# Generated by pormake.
# Topology gar, (4,6)-cn, num edge types: 1
# Building blocks:
#     Node 0, Type 0, BuildingBlock: QUQFOY_clean_sbu_1, # of connection points: 4
#     Node 1, Type 0, BuildingBlock: QUQFOY_clean_sbu_1, # of connection points: 4
#     Node 2, Type 0, BuildingBlock: QUQFOY_clean_sbu_1, # of connection points: 4
#     Node 3, Type 0, BuildingBlock: QUQFOY_clean_sbu_1, # of connection points: 4
#     Node 4, Type 0, BuildingBlock: QUQFOY_clean_sbu_1, # of connection points: 4
#     Node 5, Type 0, BuildingBlock: QUQFOY_clean_sbu_1, # of connection points: 4
#     Node 6, Type 0, BuildingBlock: QUQFOY_clean_sbu_1, # of connection points: 4
#     Node 7, Type 0, BuildingBlock: QUQFOY_clean_sbu_1, # of connection points: 4
#     Node 8, Type 0, BuildingBlock: QUQFOY_clean_sbu_1, # of connection points: 4
#     Node 9, Type 0, BuildingBlock: QUQFOY_clean_sbu_1, # of connection points: 4
#     Node 10, Type 0, BuildingBlock: QUQFOY_clean_sbu_1, # of connection points: 4
#     Node 11, Type 0, BuildingBlock: QUQFOY_clean_sbu_1, # of connection points: 4
#     Node 12, Type 0, BuildingBlock: QUQFOY_clean_sbu_1, # of connection points: 4
#     Node 13, Type 0, BuildingBlock: QUQFOY_clean_sbu_1, # of connection points: 4
#     Node 14, Type 0, BuildingBlock: QUQFOY_clean_sbu_1, # of connection points: 4
#     Node 15, Type 0, BuildingBlock: QUQFOY_clean_sbu_1, # of connection points: 4
#     Node 16, Type 0, BuildingBlock: QUQFOY_clean_sbu_1, # of connection points: 4
#     Node 17, Type 0, BuildingBlock: QUQFOY_clean_sbu_1, # of connection points: 4
#     Node 18, Type 0, BuildingBlock: QUQFOY_clean_sbu_1, # of connection points: 4
#     Node 19, Type 0, BuildingBlock: QUQFOY_clean_sbu_1, # of connection points: 4
#     Node 20, Type 0, BuildingBlock: QUQFOY_clean_sbu_1, # of connection points: 4
#     Node 21, Type 0, BuildingBlock: QUQFOY_clean_sbu_1, # of connection points: 4
#     Node 22, Type 0, BuildingBlock: QUQFOY_clean_sbu_1, # of connection points: 4
#     Node 23, Type 0, BuildingBlock: QUQFOY_clean_sbu_1, # of connection points: 4
#     Node 24, Type 1, BuildingBlock: CUWYAW_clean_sbu_0, # of connection points: 6
#     Node 25, Type 1, BuildingBlock: CUWYAW_clean_sbu_0, # of connection points: 6
#     Node 26, Type 1, BuildingBlock: CUWYAW_clean_sbu_0, # of connection points: 6
#     Node 27, Type 1, BuildingBlock: CUWYAW_clean_sbu_0, # of connection points: 6
#     Node 28, Type 1, BuildingBlock: CUWYAW_clean_sbu_0, # of connection points: 6
#     Node 29, Type 1, BuildingBlock: CUWYAW_clean_sbu_0, # of connection points: 6
#     Node 30, Type 1, BuildingBlock: CUWYAW_clean_sbu_0, # of connection points: 6
#     Node 31, Type 1, BuildingBlock: CUWYAW_clean_sbu_0, # of connection points: 6
#     Node 32, Type 1, BuildingBlock: CUWYAW_clean_sbu_0, # of connection points: 6
#     Node 33, Type 1, BuildingBlock: CUWYAW_clean_sbu_0, # of connection points: 6
#     Node 34, Type 1, BuildingBlock: CUWYAW_clean_sbu_0, # of connection points: 6
#     Node 35, Type 1, BuildingBlock: CUWYAW_clean_sbu_0, # of connection points: 6
#     Node 36, Type 1, BuildingBlock: CUWYAW_clean_sbu_0, # of connection points: 6
#     Node 37, Type 1, BuildingBlock: CUWYAW_clean_sbu_0, # of connection points: 6
#     Node 38, Type 1, BuildingBlock: CUWYAW_clean_sbu_0, # of connection points: 6
#     Node 39, Type 1, BuildingBlock: CUWYAW_clean_sbu_0, # of connection points: 6
#     Edge 40, Type (0, 1), BuildingBlock: MIFKUJ_clean_linker_0, # of connection points: 2
#     Edge 41, Type (0, 1), BuildingBlock: MIFKUJ_clean_linker_0, # of connection points: 2
#     Edge 42, Type (0, 1), BuildingBlock: MIFKUJ_clean_linker_0, # of connection points: 2
#     Edge 43, Type (0, 1), BuildingBlock: MIFKUJ_clean_linker_0, # of connection points: 2
#     Edge 44, Type (0, 1), BuildingBlock: MIFKUJ_clean_linker_0, # of connection points: 2
#     Edge 45, Type (0, 1), BuildingBlock: MIFKUJ_clean_linker_0, # of connection points: 2
#     Edge 46, Type (0, 1), BuildingBlock: MIFKUJ_clean_linker_0, # of connection points: 2
#     Edge 47, Type (0, 1), BuildingBlock: MIFKUJ_clean_linker_0, # of connection points: 2
#     Edge 48, Type (0, 1), BuildingBlock: MIFKUJ_clean_linker_0, # of connection points: 2
#     Edge 49, Type (0, 1), BuildingBlock: MIFKUJ_clean_linker_0, # of connection points: 2
#     Edge 50, Type (0, 1), BuildingBlock: MIFKUJ_clean_linker_0, # of connection points: 2
#     Edge 51, Type (0, 1), BuildingBlock: MIFKUJ_clean_linker_0, # of connection points: 2
#     Edge 52, Type (0, 1), BuildingBlock: MIFKUJ_clean_linker_0, # of connection points: 2
#     Edge 53, Type (0, 1), BuildingBlock: MIFKUJ_clean_linker_0, # of connection points: 2
#     Edge 54, Type (0, 1), BuildingBlock: MIFKUJ_clean_linker_0, # of connection points: 2
#     Edge 55, Type (0, 1), BuildingBlock: MIFKUJ_clean_linker_0, # of connection points: 2
#     Edge 56, Type (0, 1), BuildingBlock: MIFKUJ_clean_linker_0, # of connection points: 2
#     Edge 57, Type (0, 1), BuildingBlock: MIFKUJ_clean_linker_0, # of connection points: 2
#     Edge 58, Type (0, 1), BuildingBlock: MIFKUJ_clean_linker_0, # of connection points: 2
#     Edge 59, Type (0, 1), BuildingBlock: MIFKUJ_clean_linker_0, # of connection points: 2
#     Edge 60, Type (0, 1), BuildingBlock: MIFKUJ_clean_linker_0, # of connection points: 2
#     Edge 61, Type (0, 1), BuildingBlock: MIFKUJ_clean_linker_0, # of connection points: 2
#     Edge 62, Type (0, 1), BuildingBlock: MIFKUJ_clean_linker_0, # of connection points: 2
#     Edge 63, Type (0, 1), BuildingBlock: MIFKUJ_clean_linker_0, # of connection points: 2
#     Edge 64, Type (0, 1), BuildingBlock: MIFKUJ_clean_linker_0, # of connection points: 2
#     Edge 65, Type (0, 1), BuildingBlock: MIFKUJ_clean_linker_0, # of connection points: 2
#     Edge 66, Type (0, 1), BuildingBlock: MIFKUJ_clean_linker_0, # of connection points: 2
#     Edge 67, Type (0, 1), BuildingBlock: MIFKUJ_clean_linker_0, # of connection points: 2
#     Edge 68, Type (0, 1), BuildingBlock: MIFKUJ_clean_linker_0, # of connection points: 2
#     Edge 69, Type (0, 1), BuildingBlock: MIFKUJ_clean_linker_0, # of connection points: 2
#     Edge 70, Type (0, 1), BuildingBlock: MIFKUJ_clean_linker_0, # of connection points: 2
#     Edge 71, Type (0, 1), BuildingBlock: MIFKUJ_clean_linker_0, # of connection points: 2
#     Edge 72, Type (0, 1), BuildingBlock: MIFKUJ_clean_linker_0, # of connection points: 2
#     Edge 73, Type (0, 1), BuildingBlock: MIFKUJ_clean_linker_0, # of connection points: 2
#     Edge 74, Type (0, 1), BuildingBlock: MIFKUJ_clean_linker_0, # of connection points: 2
#     Edge 75, Type (0, 1), BuildingBlock: MIFKUJ_clean_linker_0, # of connection points: 2
#     Edge 76, Type (0, 1), BuildingBlock: MIFKUJ_clean_linker_0, # of connection points: 2
#     Edge 77, Type (0, 1), BuildingBlock: MIFKUJ_clean_linker_0, # of connection points: 2
#     Edge 78, Type (0, 1), BuildingBlock: MIFKUJ_clean_linker_0, # of connection points: 2
#     Edge 79, Type (0, 1), BuildingBlock: MIFKUJ_clean_linker_0, # of connection points: 2
#     Edge 80, Type (0, 1), BuildingBlock: MIFKUJ_clean_linker_0, # of connection points: 2
#     Edge 81, Type (0, 1), BuildingBlock: MIFKUJ_clean_linker_0, # of connection points: 2
#     Edge 82, Type (0, 1), BuildingBlock: MIFKUJ_clean_linker_0, # of connection points: 2
#     Edge 83, Type (0, 1), BuildingBlock: MIFKUJ_clean_linker_0, # of connection points: 2
#     Edge 84, Type (0, 1), BuildingBlock: MIFKUJ_clean_linker_0, # of connection points: 2
#     Edge 85, Type (0, 1), BuildingBlock: MIFKUJ_clean_linker_0, # of connection points: 2
#     Edge 86, Type (0, 1), BuildingBlock: MIFKUJ_clean_linker_0, # of connection points: 2
#     Edge 87, Type (0, 1), BuildingBlock: MIFKUJ_clean_linker_0, # of connection points: 2
#     Edge 88, Type (0, 1), BuildingBlock: MIFKUJ_clean_linker_0, # of connection points: 2
#     Edge 89, Type (0, 1), BuildingBlock: MIFKUJ_clean_linker_0, # of connection points: 2
#     Edge 90, Type (0, 1), BuildingBlock: MIFKUJ_clean_linker_0, # of connection points: 2
#     Edge 91, Type (0, 1), BuildingBlock: MIFKUJ_clean_linker_0, # of connection points: 2
#     Edge 92, Type (0, 1), BuildingBlock: MIFKUJ_clean_linker_0, # of connection points: 2
#     Edge 93, Type (0, 1), BuildingBlock: MIFKUJ_clean_linker_0, # of connection points: 2
#     Edge 94, Type (0, 1), BuildingBlock: MIFKUJ_clean_linker_0, # of connection points: 2
#     Edge 95, Type (0, 1), BuildingBlock: MIFKUJ_clean_linker_0, # of connection points: 2
#     Edge 96, Type (0, 1), BuildingBlock: MIFKUJ_clean_linker_0, # of connection points: 2
#     Edge 97, Type (0, 1), BuildingBlock: MIFKUJ_clean_linker_0, # of connection points: 2
#     Edge 98, Type (0, 1), BuildingBlock: MIFKUJ_clean_linker_0, # of connection points: 2
#     Edge 99, Type (0, 1), BuildingBlock: MIFKUJ_clean_linker_0, # of connection points: 2
#     Edge 100, Type (0, 1), BuildingBlock: MIFKUJ_clean_linker_0, # of connection points: 2
#     Edge 101, Type (0, 1), BuildingBlock: MIFKUJ_clean_linker_0, # of connection points: 2
#     Edge 102, Type (0, 1), BuildingBlock: MIFKUJ_clean_linker_0, # of connection points: 2
#     Edge 103, Type (0, 1), BuildingBlock: MIFKUJ_clean_linker_0, # of connection points: 2
#     Edge 104, Type (0, 1), BuildingBlock: MIFKUJ_clean_linker_0, # of connection points: 2
#     Edge 105, Type (0, 1), BuildingBlock: MIFKUJ_clean_linker_0, # of connection points: 2
#     Edge 106, Type (0, 1), BuildingBlock: MIFKUJ_clean_linker_0, # of connection points: 2
#     Edge 107, Type (0, 1), BuildingBlock: MIFKUJ_clean_linker_0, # of connection points: 2
#     Edge 108, Type (0, 1), BuildingBlock: MIFKUJ_clean_linker_0, # of connection points: 2
#     Edge 109, Type (0, 1), BuildingBlock: MIFKUJ_clean_linker_0, # of connection points: 2
#     Edge 110, Type (0, 1), BuildingBlock: MIFKUJ_clean_linker_0, # of connection points: 2
#     Edge 111, Type (0, 1), BuildingBlock: MIFKUJ_clean_linker_0, # of connection points: 2
#     Edge 112, Type (0, 1), BuildingBlock: MIFKUJ_clean_linker_0, # of connection points: 2
#     Edge 113, Type (0, 1), BuildingBlock: MIFKUJ_clean_linker_0, # of connection points: 2
#     Edge 114, Type (0, 1), BuildingBlock: MIFKUJ_clean_linker_0, # of connection points: 2
#     Edge 115, Type (0, 1), BuildingBlock: MIFKUJ_clean_linker_0, # of connection points: 2
#     Edge 116, Type (0, 1), BuildingBlock: MIFKUJ_clean_linker_0, # of connection points: 2
#     Edge 117, Type (0, 1), BuildingBlock: MIFKUJ_clean_linker_0, # of connection points: 2
#     Edge 118, Type (0, 1), BuildingBlock: MIFKUJ_clean_linker_0, # of connection points: 2
#     Edge 119, Type (0, 1), BuildingBlock: MIFKUJ_clean_linker_0, # of connection points: 2
#     Edge 120, Type (0, 1), BuildingBlock: MIFKUJ_clean_linker_0, # of connection points: 2
#     Edge 121, Type (0, 1), BuildingBlock: MIFKUJ_clean_linker_0, # of connection points: 2
#     Edge 122, Type (0, 1), BuildingBlock: MIFKUJ_clean_linker_0, # of connection points: 2
#     Edge 123, Type (0, 1), BuildingBlock: MIFKUJ_clean_linker_0, # of connection points: 2
#     Edge 124, Type (0, 1), BuildingBlock: MIFKUJ_clean_linker_0, # of connection points: 2
#     Edge 125, Type (0, 1), BuildingBlock: MIFKUJ_clean_linker_0, # of connection points: 2
#     Edge 126, Type (0, 1), BuildingBlock: MIFKUJ_clean_linker_0, # of connection points: 2
#     Edge 127, Type (0, 1), BuildingBlock: MIFKUJ_clean_linker_0, # of connection points: 2
#     Edge 128, Type (0, 1), BuildingBlock: MIFKUJ_clean_linker_0, # of connection points: 2
#     Edge 129, Type (0, 1), BuildingBlock: MIFKUJ_clean_linker_0, # of connection points: 2
#     Edge 130, Type (0, 1), BuildingBlock: MIFKUJ_clean_linker_0, # of connection points: 2
#     Edge 131, Type (0, 1), BuildingBlock: MIFKUJ_clean_linker_0, # of connection points: 2
#     Edge 132, Type (0, 1), BuildingBlock: MIFKUJ_clean_linker_0, # of connection points: 2
#     Edge 133, Type (0, 1), BuildingBlock: MIFKUJ_clean_linker_0, # of connection points: 2
#     Edge 134, Type (0, 1), BuildingBlock: MIFKUJ_clean_linker_0, # of connection points: 2
#     Edge 135, Type (0, 1), BuildingBlock: MIFKUJ_clean_linker_0, # of connection points: 2
# Relax obj value: 0.175
# Max RMSD: 0.273
# Mean RMSD: 0.170
data_MOF--net-gar--node1-QUQFOY_clean_sbu_1--node2-CUWYAW_clean_sbu_0--edge1-MIFKUJ_clean_linker_0
_symmetry_space_group_name_H-M    P1
_symmetry_Int_Tables_number       1
_symmetry_cell_setting            triclinic
loop_
_symmetry_equiv_pos_as_xyz
'x, y, z'
_cell_length_a     82.566702
_cell_length_b     71.985919
_cell_length_c     72.378026
_cell_angle_alpha  96.998142
_cell_angle_beta   95.753563
_cell_angle_gamma 100.57981
loop_
_atom_site_label
_atom_site_type_symbol
_atom_site_fract_x
_atom_site_fract_y
_atom_site_fract_z
_atom_type_partial_charge
O0 O 0.05258 0.29985 0.43103 0.0
Cd1 Cd 0.05824 0.32758 0.42625 0.0
Cd2 Cd 0.05646 0.3288 0.45953 0.0
O3 O 0.06809 0.30671 0.45814 0.0
O4 O 0.06289 0.32493 0.40057 0.0
O5 O 0.08177 0.3382 0.42523 0.0
C6 C 0.07815 0.33166 0.40756 0.0
C7 C 0.06375 0.35889 0.47098 0.0
C8 C 0.05984 0.29435 0.445 0.0
C9 C 0.02834 0.33362 0.43504 0.0
O10 O 0.03186 0.32361 0.4476 0.0
O11 O 0.04011 0.34289 0.42791 0.0
O12 O 0.05909 0.3467 0.48217 0.0
O13 O 0.06853 0.35321 0.45517 0.0
O14 O 1.00594 0.72607 0.66376 0.0
Cd15 Cd 1.0135 0.75496 0.66875 0.0
Cd16 Cd 1.00295 0.74561 0.63014 0.0
O17 O 0.98589 0.73064 0.64419 0.0
O18 O 1.00922 0.76547 0.69369 0.0
O19 O 0.99461 0.76657 0.66623 0.0
C20 C 0.99601 0.76854 0.68425 0.0
C21 C 1.00242 0.77327 0.61835 0.0
C22 C 0.99308 0.71903 0.65212 0.0
C23 C 0.03752 0.75472 0.64436 0.0
O24 O 0.02681 0.74125 0.63461 0.0
O25 O 0.03296 0.76663 0.65614 0.0
O26 O 0.99871 0.7574 0.60693 0.0
O27 O 1.00445 0.77284 0.63606 0.0
O28 O 0.59257 0.81725 0.95028 0.0
Cd29 Cd 0.57622 0.82827 0.96629 0.0
Cd30 Cd 0.55475 0.81035 0.91245 0.0
O31 O 0.56992 0.80117 0.93302 0.0
O32 O 0.57572 0.80522 0.97955 0.0
O33 O 0.55322 0.81133 0.96544 0.0
C34 C 0.56033 0.79969 0.97355 0.0
C35 C 0.52692 0.79663 0.90514 0.0
C36 C 0.58557 0.80715 0.93483 0.0
C37 C 0.56119 0.84586 0.93169 0.0
O38 O 0.55604 0.83969 0.9146 0.0
O39 O 0.56738 0.83471 0.94101 0.0
O40 O 0.53294 0.8046 0.92187 0.0
O41 O 0.53712 0.7944 0.89303 0.0
O42 O 0.51413 0.22021 0.16033 0.0
Cd43 Cd 0.51611 0.24874 0.16788 0.0
Cd44 Cd 0.51029 0.24295 0.13208 0.0
O45 O 0.49361 0.22156 0.13962 0.0
O46 O 0.50898 0.25345 0.19235 0.0
O47 O 0.49466 0.25475 0.16457 0.0
C48 C 0.49519 0.25411 0.18237 0.0
C49 C 0.50768 0.26817 0.11805 0.0
C50 C 0.50218 0.21153 0.14811 0.0
C51 C 0.54294 0.25724 0.15062 0.0
O52 O 0.5351 0.24306 0.13898 0.0
O53 O 0.53461 0.26728 0.15983 0.0
O54 O 0.50759 0.25202 0.10786 0.0
O55 O 0.50601 0.26867 0.13564 0.0
O56 O 0.05306 0.77239 0.15706 0.0
Cd57 Cd 0.05536 0.79522 0.17722 0.0
Cd58 Cd 0.07014 0.8128 0.14949 0.0
O59 O 0.06161 0.78645 0.13336 0.0
O60 O 0.03951 0.78357 0.19382 0.0
O61 O 0.03531 0.80767 0.17905 0.0
C62 C 0.02978 0.79472 0.18901 0.0
C63 C 0.06445 0.83966 0.13698 0.0
C64 C 0.05554 0.77159 0.14005 0.0
C65 C 0.09246 0.80939 0.18462 0.0
O66 O 0.09134 0.81443 0.16832 0.0
O67 O 0.07937 0.80286 0.1917 0.0
O68 O 0.07563 0.83089 0.13107 0.0
O69 O 0.0566 0.83345 0.15027 0.0
O70 O 0.53532 0.76949 0.41492 0.0
Cd71 Cd 0.51851 0.7647 0.4339 0.0
Cd72 Cd 0.50074 0.78074 0.40195 0.0
O73 O 0.52213 0.77699 0.3894 0.0
O74 O 0.53158 0.75238 0.45224 0.0
O75 O 0.50678 0.73829 0.43804 0.0
C76 C 0.51968 0.73769 0.44943 0.0
C77 C 0.47334 0.77828 0.38612 0.0
C78 C 0.53531 0.77394 0.39843 0.0
C79 C 0.51141 0.80366 0.44197 0.0
O80 O 0.5062 0.80211 0.4246 0.0
O81 O 0.51537 0.78961 0.44918 0.0
O82 O 0.48536 0.79206 0.38476 0.0
O83 O 0.477 0.76501 0.39534 0.0
O84 O 0.55825 0.26775 0.6574 0.0
Cd85 Cd 0.56159 0.29053 0.67821 0.0
Cd86 Cd 0.57683 0.30821 0.6509 0.0
O87 O 0.56874 0.28203 0.63466 0.0
O88 O 0.5457 0.28108 0.69594 0.0
O89 O 0.54171 0.30341 0.67856 0.0
C90 C 0.53614 0.29191 0.6899 0.0
C91 C 0.57116 0.33524 0.63837 0.0
C92 C 0.56163 0.26716 0.64064 0.0
C93 C 0.59902 0.30433 0.68571 0.0
O94 O 0.59789 0.3096 0.66954 0.0
O95 O 0.58586 0.29783 0.69271 0.0
O96 O 0.58301 0.32706 0.63338 0.0
O97 O 0.56259 0.32823 0.6508 0.0
O98 O 1.01156 0.23682 0.91998 0.0
Cd99 Cd 1.01258 0.25982 0.90446 0.0
Cd100 Cd 1.00278 0.27609 0.93544 0.0
O101 O 1.01082 0.254 0.9472 0.0
O102 O 0.02862 0.25729 0.88531 0.0
O103 O 0.03456 0.279 0.91058 0.0
C104 C 0.03923 0.27094 0.89563 0.0
C105 C 1.01047 0.30728 0.95066 0.0
C106 C 1.01246 0.23849 0.93782 0.0
C107 C 0.97802 0.26899 0.90072 0.0
O108 O 0.98022 0.27134 0.91854 0.0
O109 O 0.99002 0.26583 0.89171 0.0
O110 O 0.99925 0.29501 0.95622 0.0
O111 O 0.01807 0.3016 0.93694 0.0
O112 O 0.42027 0.05886 0.25305 0.0
Cd113 Cd 0.4008 0.06072 0.2705 0.0
Cd114 Cd 0.43056 0.04276 0.29605 0.0
O115 O 0.43989 0.04769 0.2698 0.0
O116 O 0.38239 0.07356 0.258 0.0
O117 O 0.39799 0.08747 0.28382 0.0
C118 C 0.38613 0.08815 0.27099 0.0
C119 C 0.44653 0.04509 0.32747 0.0
C120 C 0.43418 0.0531 0.25448 0.0
C121 C 0.39422 0.01909 0.2829 0.0
O122 O 0.40916 0.02137 0.29079 0.0
O123 O 0.3889 0.03274 0.27573 0.0
O124 O 0.44794 0.03284 0.31344 0.0
O125 O 0.43686 0.05672 0.32373 0.0
O126 O 0.27823 0.17098 0.55425 0.0
Cd127 Cd 0.27498 0.15028 0.53146 0.0
Cd128 Cd 0.26242 0.18015 0.51537 0.0
O129 O 0.27205 0.19573 0.54171 0.0
O130 O 0.28858 0.13177 0.54063 0.0
O131 O 0.29602 0.14955 0.51902 0.0
C132 C 0.2996 0.13775 0.53016 0.0
C133 C 0.26722 0.19347 0.48735 0.0
C134 C 0.2771 0.18845 0.5559 0.0
C135 C 0.23773 0.14361 0.51968 0.0
O136 O 0.24036 0.16057 0.51558 0.0
O137 O 0.24999 0.13589 0.52455 0.0
O138 O 0.2566 0.1985 0.49788 0.0
O139 O 0.27539 0.181 0.49277 0.0
O140 O 0.15005 1.00756 0.76357 0.0
Cd141 Cd 0.17028 1.00817 0.78438 0.0
Cd142 Cd 0.1425 0.0285 0.80623 0.0
O143 O 0.13009 0.01812 0.77819 0.0
O144 O 0.18676 0.99229 0.77279 0.0
O145 O 0.1732 0.98293 0.79534 0.0
C146 C 0.18351 0.9795 0.78366 0.0
C147 C 0.12872 0.02735 0.83538 0.0
C148 C 0.13558 0.01183 0.76305 0.0
C149 C 0.17743 0.05269 0.79966 0.0
O150 O 0.1629 0.05123 0.80505 0.0
O151 O 0.18278 0.03766 0.79331 0.0
O152 O 0.12563 0.03827 0.82313 0.0
O153 O 0.13929 0.01679 0.83123 0.0
O154 O 0.24563 0.88255 0.03404 0.0
Cd155 Cd 0.24638 0.89154 0.00838 0.0
Cd156 Cd 0.24751 0.85785 1.00271 0.0
O157 O 0.23198 0.85398 0.02234 0.0
O158 O 0.24164 0.91713 0.01272 0.0
O159 O 0.22476 0.89252 0.99461 0.0
C160 C 0.22739 0.90986 1.0031 0.0
C161 C 0.24315 0.84849 0.97189 0.0
C162 C 0.23769 0.86641 0.03653 0.0
C163 C 0.27837 0.88478 0.00637 0.0
O164 O 0.27213 0.86933 0.01198 0.0
O165 O 0.2689 0.89465 0.99909 0.0
O166 O 0.2465 0.83662 0.9831 0.0
O167 O 0.24012 0.86481 0.9785 0.0
O168 O 0.3029 0.40196 0.08914 0.0
Cd169 Cd 0.3037 0.41788 0.0665 0.0
Cd170 Cd 0.31207 0.38628 0.04953 0.0
O171 O 0.30281 0.37438 0.07206 0.0
O172 O 0.28895 0.43764 0.07004 0.0
O173 O 0.28174 0.412 0.04882 0.0
C174 C 0.27793 0.42723 0.05717 0.0
C175 C 0.30243 0.37222 0.01865 0.0
C176 C 0.30131 0.38383 0.08762 0.0
C177 C 0.33942 0.42117 0.05648 0.0
O178 O 0.33588 0.40299 0.05355 0.0
O179 O 0.32791 0.43039 0.06003 0.0
O180 O 0.31197 0.36461 0.02935 0.0
O181 O 0.2979 0.38758 0.02555 0.0
O182 O 0.8106 0.16574 0.08746 0.0
Cd183 Cd 0.80732 0.16261 0.05891 0.0
Cd184 Cd 0.81389 0.20382 0.06968 0.0
O185 O 0.82923 0.18991 0.08402 0.0
O186 O 0.81531 0.14068 0.04678 0.0
O187 O 0.82807 0.17124 0.04964 0.0
C188 C 0.82817 0.15342 0.04508 0.0
C189 C 0.81766 0.21845 0.04409 0.0
C190 C 0.82037 0.18115 0.09479 0.0
C191 C 0.7806 0.18253 0.05757 0.0
O192 O 0.78922 0.19444 0.07092 0.0
O193 O 0.78753 0.17202 0.0468 0.0
O194 O 0.81867 0.22881 0.06026 0.0
O195 O 0.81643 0.20032 0.04323 0.0
O196 O 0.15084 0.51566 0.27616 0.0
Cd197 Cd 0.17076 0.51536 0.29757 0.0
Cd198 Cd 0.14313 0.53536 0.31949 0.0
O199 O 0.13091 0.52597 0.29115 0.0
O200 O 0.1878 0.49921 0.28756 0.0
O201 O 0.1728 0.49015 0.30911 0.0
C202 C 0.18389 0.48664 0.2985 0.0
C203 C 0.12966 0.535 0.34883 0.0
C204 C 0.13641 0.52012 0.27585 0.0
C205 C 0.17809 0.5594 0.31369 0.0
O206 O 0.16354 0.55776 0.31889 0.0
O207 O 0.18353 0.54455 0.3071 0.0
O208 O 0.12694 0.54613 0.33666 0.0
O209 O 0.13951 0.5236 0.34435 0.0
O210 O 0.80358 0.90204 0.59259 0.0
Cd211 Cd 0.80508 0.91786 0.56977 0.0
Cd212 Cd 0.8156 0.88696 0.55516 0.0
O213 O 0.80703 0.87474 0.57766 0.0
O214 O 0.79004 0.93705 0.5732 0.0
O215 O 0.78385 0.91201 0.55121 0.0
C216 C 0.77957 0.92686 0.55969 0.0
C217 C 0.80648 0.8729 0.52431 0.0
C218 C 0.80358 0.88425 0.59225 0.0
C219 C 0.841 0.92321 0.56072 0.0
O220 O 0.8386 0.90512 0.55913 0.0
O221 O 0.82883 0.93158 0.5633 0.0
O222 O 0.81753 0.8668 0.53452 0.0
O223 O 0.80001 0.88655 0.53182 0.0
O224 O 0.91943 0.04998 0.24312 0.0
Cd225 Cd 0.9001 0.04917 0.26177 0.0
Cd226 Cd 0.9293 0.03324 0.28374 0.0
O227 O 0.93965 0.03893 0.25835 0.0
O228 O 0.88357 0.0659 0.25216 0.0
O229 O 0.89822 0.07394 0.27966 0.0
C230 C 0.88747 0.07807 0.26734 0.0
C231 C 0.94516 0.03933 0.31479 0.0
C232 C 0.93381 0.04526 0.24372 0.0
C233 C 0.89342 1.00742 0.27433 0.0
O234 O 0.90875 1.01051 0.28102 0.0
O235 O 0.88757 0.02058 0.26671 0.0
O236 O 0.94625 0.02526 0.30242 0.0
O237 O 0.93583 0.05073 0.30939 0.0
O238 O 0.31313 0.66742 0.58126 0.0
Cd239 Cd 0.30913 0.66226 0.55279 0.0
Cd240 Cd 0.31484 0.70404 0.55999 0.0
O241 O 0.33065 0.69111 0.57492 0.0
O242 O 0.3174 0.63978 0.54312 0.0
O243 O 0.32909 0.67014 0.54161 0.0
C244 C 0.32977 0.65227 0.53968 0.0
C245 C 0.31949 0.71768 0.53385 0.0
C246 C 0.32248 0.68352 0.5869 0.0
C247 C 0.28146 0.6809 0.55045 0.0
O248 O 0.29012 0.69488 0.5618 0.0
O249 O 0.28832 0.66941 0.54067 0.0
O250 O 0.32063 0.72853 0.54975 0.0
O251 O 0.31715 0.69946 0.53355 0.0
O252 O 0.41896 0.55176 0.7473 0.0
Cd253 Cd 0.39916 0.55171 0.76495 0.0
Cd254 Cd 0.42894 0.53604 0.78943 0.0
O255 O 0.43953 0.54279 0.76427 0.0
O256 O 0.38258 0.56789 0.75379 0.0
O257 O 0.39656 0.5772 0.7815 0.0
C258 C 0.38609 0.5807 0.7685 0.0
C259 C 0.44497 0.54149 0.8205 0.0
C260 C 0.43368 0.54798 0.74895 0.0
C261 C 0.393 0.50996 0.77833 0.0
O262 O 0.40812 0.51321 0.78599 0.0
O263 O 0.38732 0.52289 0.77008 0.0
O264 O 0.44697 0.52857 0.80743 0.0
O265 O 0.43449 0.55198 0.816 0.0
O266 O 0.64971 0.01549 0.77132 0.0
Cd267 Cd 0.6698 0.01593 0.79263 0.0
Cd268 Cd 0.64419 0.03663 0.81396 0.0
O269 O 0.63126 0.02904 0.78583 0.0
O270 O 0.68423 0.99721 0.78193 0.0
O271 O 0.67361 0.99394 0.80806 0.0
C272 C 0.68246 0.98769 0.79585 0.0
C273 C 0.6314 0.03594 0.84327 0.0
C274 C 0.63602 0.02165 0.77067 0.0
C275 C 0.67954 0.05929 0.80851 0.0
O276 O 0.66545 0.05808 0.8147 0.0
O277 O 0.68383 0.04438 0.80035 0.0
O278 O 0.63029 0.04892 0.83264 0.0
O279 O 0.63906 0.02278 0.83711 0.0
O280 O 0.77766 0.6718 0.06138 0.0
Cd281 Cd 0.77543 0.65275 0.0376 0.0
Cd282 Cd 0.76257 0.68307 0.02317 0.0
O283 O 0.77297 0.6975 0.04966 0.0
O284 O 0.78905 0.63394 0.04602 0.0
O285 O 0.79708 0.65347 0.02605 0.0
C286 C 0.80045 0.64099 0.03647 0.0
C287 C 0.76729 0.69826 0.99637 0.0
C288 C 0.77713 0.68941 0.0636 0.0
C289 C 0.7382 0.64584 0.02562 0.0
O290 O 0.74045 0.66326 0.02281 0.0
O291 O 0.75069 0.63816 0.02961 0.0
O292 O 0.75764 0.7036 0.00803 0.0
O293 O 0.77433 0.68422 0.99982 0.0
O294 O 0.91842 0.56226 0.76129 0.0
Cd295 Cd 0.89861 0.56468 0.77766 0.0
Cd296 Cd 0.92859 0.5459 0.80365 0.0
O297 O 0.93854 0.55161 0.77778 0.0
O298 O 0.88159 0.57793 0.7633 0.0
O299 O 0.89466 0.59085 0.7908 0.0
C300 C 0.8841 0.59207 0.77676 0.0
C301 C 0.94485 0.547 0.83477 0.0
C302 C 0.93251 0.55694 0.76255 0.0
C303 C 0.89132 0.52357 0.79007 0.0
O304 O 0.90615 0.52552 0.79825 0.0
O305 O 0.88633 0.53706 0.78236 0.0
O306 O 0.94406 0.53348 0.82105 0.0
O307 O 0.93721 0.56045 0.83087 0.0
O308 O 0.75253 0.3903 0.5398 0.0
Cd309 Cd 0.75013 0.39408 0.51242 0.0
Cd310 Cd 0.74931 0.35884 0.51189 0.0
O311 O 0.73566 0.36269 0.53315 0.0
O312 O 0.74133 0.41739 0.51056 0.0
O313 O 0.72678 0.38783 0.50104 0.0
C314 C 0.72721 0.40591 0.50489 0.0
C315 C 0.74204 0.34501 0.482 0.0
C316 C 0.74467 0.37558 0.54534 0.0
C317 C 0.78092 0.38366 0.5099 0.0
O318 O 0.77417 0.37023 0.51816 0.0
O319 O 0.7719 0.39317 0.50115 0.0
O320 O 0.74488 0.33451 0.49482 0.0
O321 O 0.74131 0.36263 0.48685 0.0
O322 O 0.65265 0.50482 0.26928 0.0
Cd323 Cd 0.67334 0.50558 0.28942 0.0
Cd324 Cd 0.64574 0.52629 0.31233 0.0
O325 O 0.63309 0.51602 0.28415 0.0
O326 O 0.68855 0.48861 0.27663 0.0
O327 O 0.67751 0.4813 0.30147 0.0
C328 C 0.68648 0.47675 0.28863 0.0
C329 C 0.63206 0.52533 0.34171 0.0
C330 C 0.6383 0.50937 0.26894 0.0
C331 C 0.68071 0.55021 0.30503 0.0
O332 O 0.6665 0.54882 0.3112 0.0
O333 O 0.68566 0.53527 0.29765 0.0
O334 O 0.62911 0.53637 0.32951 0.0
O335 O 0.64242 0.51454 0.33739 0.0
C336 C 0.0861 0.06046 0.06558 0.0
Eu337 Eu 0.05435 0.05187 0.05537 0.0
C338 C 0.09762 0.04723 0.0647 0.0
C339 C 0.11168 0.05012 0.07804 0.0
C340 C 0.12124 0.03602 0.07877 0.0
C341 C 0.11667 0.01879 0.06635 0.0
C342 C 0.10262 0.01603 0.05296 0.0
C343 C 0.0932 0.03014 0.05212 0.0
C344 C 0.02984 0.05238 0.07917 0.0
C345 C 0.04186 1.00565 0.05297 0.0
C346 C 0.98948 0.02109 0.02216 0.0
Eu347 Eu 0.02102 0.03196 0.03214 0.0
C348 C 0.97691 0.03274 0.02362 0.0
C349 C 0.96476 0.03147 0.00834 0.0
C350 C 0.95527 0.04553 0.00761 0.0
C351 C 0.95787 0.06095 0.02218 0.0
C352 C 0.96972 0.06183 0.03774 0.0
C353 C 0.97926 0.04789 0.0384 0.0
C354 C 0.04471 0.03075 0.0079 0.0
C355 C 0.03374 0.07835 0.03408 0.0
O356 O 0.07928 0.06364 0.04943 0.0
O357 O 0.07532 0.05703 0.07735 0.0
O358 O 0.04538 0.06019 0.08373 0.0
O359 O 0.02807 0.04558 0.06178 0.0
O360 O 0.05408 0.02069 0.05718 0.0
O361 O 0.02747 1.00639 0.04373 0.0
O362 O 0.9968 0.01779 0.03801 0.0
O363 O 0.99991 0.02645 0.01052 0.0
O364 O 0.02916 0.02286 1.00414 0.0
O365 O 0.0474 0.03806 0.02529 0.0
O366 O 0.02119 0.06345 0.03046 0.0
O367 O 0.04822 0.07736 0.04309 0.0
H368 H 0.11503 0.06304 0.08811 0.0
H369 H 0.13204 0.03844 0.08923 0.0
H370 H 0.099 1.00304 0.04298 0.0
H371 H 0.08225 0.02751 0.04187 0.0
H372 H 0.96319 0.02014 0.9966 0.0
H373 H 0.94622 0.04462 0.99544 0.0
H374 H 0.9717 0.07333 0.04937 0.0
H375 H 0.98892 0.04942 0.05009 0.0
C376 C 0.28072 0.80777 0.34227 0.0
Eu377 Eu 0.27818 0.7983 0.30657 0.0
C378 C 0.27364 0.79581 0.35568 0.0
C379 C 0.25757 0.79627 0.36041 0.0
C380 C 0.24972 0.78245 0.37028 0.0
C381 C 0.25779 0.76796 0.37531 0.0
C382 C 0.27398 0.76788 0.37106 0.0
C383 C 0.28188 0.78173 0.3615 0.0
C384 C 0.25171 0.79698 0.27996 0.0
C385 C 0.26469 0.75185 0.2921 0.0
C386 C 0.2811 0.77163 0.22914 0.0
Eu387 Eu 0.28429 0.77972 0.26515 0.0
C388 C 0.28794 0.78317 0.21526 0.0
C389 C 0.30393 0.78264 0.21033 0.0
C390 C 0.31099 0.79508 0.19867 0.0
C391 C 0.30222 0.80829 0.19191 0.0
C392 C 0.28624 0.80874 0.19677 0.0
C393 C 0.2791 0.79619 0.20816 0.0
C394 C 0.31057 0.77965 0.29148 0.0
C395 C 0.29818 0.82607 0.28007 0.0
O396 O 0.29259 0.80179 0.3339 0.0
O397 O 0.26993 0.81332 0.3307 0.0
O398 O 0.2518 0.80273 0.29768 0.0
O399 O 0.26557 0.79254 0.27808 0.0
O400 O 0.26784 0.76624 0.30632 0.0
O401 O 0.26898 0.75385 0.27509 0.0
O402 O 0.26981 0.77815 0.23812 0.0
O403 O 0.2919 0.76547 0.24018 0.0
O404 O 0.30944 0.77234 0.27397 0.0
O405 O 0.29749 0.78601 0.2937 0.0
O406 O 0.29583 0.81157 0.26605 0.0
O407 O 0.29296 0.82428 0.29666 0.0
H408 H 0.25093 0.80699 0.35611 0.0
H409 H 0.23741 0.78305 0.37398 0.0
H410 H 0.28077 0.75734 0.37554 0.0
H411 H 0.2943 0.78102 0.35824 0.0
H412 H 0.31105 0.77275 0.21561 0.0
H413 H 0.32322 0.79432 0.19483 0.0
H414 H 0.27899 0.81842 0.19127 0.0
H415 H 0.26672 0.79689 0.21156 0.0
C416 C 0.48936 0.03625 0.55274 0.0
Eu417 Eu 0.52027 0.03199 0.55526 0.0
C418 C 0.47852 0.05008 0.55765 0.0
C419 C 0.4663 0.0457 0.56948 0.0
C420 C 0.45414 0.05683 0.57161 0.0
C421 C 0.45377 0.07255 0.56181 0.0
C422 C 0.46656 0.07752 0.55077 0.0
C423 C 0.47875 0.06644 0.5487 0.0
C424 C 0.54213 0.03103 0.58714 0.0
C425 C 0.54678 0.07257 0.56221 0.0
C426 C 0.58892 0.02874 0.54891 0.0
Eu427 Eu 0.55837 0.0341 0.54528 0.0
C428 C 0.60019 0.0159 0.54259 0.0
C429 C 0.6132 0.02254 0.53247 0.0
C430 C 0.62568 0.01203 0.52946 0.0
C431 C 0.62555 0.99465 0.53662 0.0
C432 C 0.61203 0.98752 0.54585 0.0
C433 C 0.59954 0.998 0.54882 0.0
C434 C 0.53689 0.03613 0.51351 0.0
C435 C 0.53135 0.99371 0.53714 0.0
O436 O 0.49937 0.04035 0.5403 0.0
O437 O 0.49598 0.02802 0.56597 0.0
O438 O 0.52619 0.03004 0.58669 0.0
O439 O 0.54518 0.0322 0.57036 0.0
O440 O 0.53118 0.06325 0.55989 0.0
O441 O 0.55955 0.06441 0.55878 0.0
O442 O 0.57755 0.0219 0.55902 0.0
O443 O 0.58378 0.04004 0.53762 0.0
O444 O 0.55286 0.03705 0.51406 0.0
O445 O 0.53359 0.03445 0.53017 0.0
O446 O 0.54682 1.00297 0.53782 0.0
O447 O 0.51894 1.00152 0.54251 0.0
H448 H 0.46574 0.0332 0.57654 0.0
H449 H 0.44472 0.05276 0.58054 0.0
H450 H 0.46669 0.08938 0.54288 0.0
H451 H 0.48792 0.07027 0.5394 0.0
H452 H 0.61413 0.03627 0.52754 0.0
H453 H 0.63572 0.01783 0.52198 0.0
H454 H 0.61151 0.97431 0.5517 0.0
H455 H 0.58979 0.9924 0.55677 0.0
C456 C 0.33694 0.2772 0.78432 0.0
Eu457 Eu 0.30564 0.27392 0.78887 0.0
C458 C 0.34832 0.27058 0.77133 0.0
C459 C 0.35801 0.25731 0.77611 0.0
C460 C 0.37062 0.25339 0.76547 0.0
C461 C 0.37401 0.2628 0.74989 0.0
C462 C 0.36372 0.27533 0.7446 0.0
C463 C 0.35109 0.27917 0.75515 0.0
C464 C 0.28122 0.24181 0.79006 0.0
C465 C 0.28173 0.26668 0.74843 0.0
C466 C 0.23693 0.28275 0.78961 0.0
Eu467 Eu 0.26847 0.28459 0.78607 0.0
C468 C 0.22518 0.2862 0.8035 0.0
C469 C 0.21695 0.30162 0.80298 0.0
C470 C 0.20413 0.30349 0.81401 0.0
C471 C 0.19903 0.2899 0.82581 0.0
C472 C 0.20777 0.27491 0.82693 0.0
C473 C 0.22061 0.27305 0.8159 0.0
C474 C 0.29365 0.31645 0.78525 0.0
C475 C 0.29168 0.28972 0.82655 0.0
O476 O 0.32742 0.28846 0.77828 0.0
O477 O 0.32958 0.26526 0.79468 0.0
O478 O 0.29717 0.24226 0.79171 0.0
O479 O 0.27948 0.2588 0.78826 0.0
O480 O 0.29631 0.26689 0.75803 0.0
O481 O 0.26907 0.27241 0.75583 0.0
O482 O 0.24462 0.26853 0.79096 0.0
O483 O 0.24632 0.29747 0.78445 0.0
O484 O 0.27782 0.31651 0.78313 0.0
O485 O 0.29461 0.29937 0.78724 0.0
O486 O 0.27667 0.28751 0.81715 0.0
O487 O 0.30511 0.28731 0.81863 0.0
H488 H 0.35625 0.25046 0.78848 0.0
H489 H 0.37801 0.24334 0.7698 0.0
H490 H 0.36595 0.28304 0.73286 0.0
H491 H 0.34397 0.28954 0.75103 0.0
H492 H 0.22006 0.31196 0.79356 0.0
H493 H 0.19796 0.31543 0.81298 0.0
H494 H 0.20418 0.26405 0.83567 0.0
H495 H 0.22653 0.26088 0.81662 0.0
C496 C 0.04026 0.97987 0.52467 0.0
Eu497 Eu 0.0424 0.01587 0.5332 0.0
C498 C 0.04826 0.96794 0.53599 0.0
C499 C 0.05636 0.95432 0.5276 0.0
C500 C 0.06319 0.94238 0.53855 0.0
C501 C 0.06203 0.94424 0.55788 0.0
C502 C 0.05551 0.95914 0.5665 0.0
C503 C 0.0485 0.97082 0.55559 0.0
C504 C 0.07029 0.04347 0.53392 0.0
C505 C 0.05269 0.03025 0.57878 0.0
C506 C 0.0389 0.09182 0.56167 0.0
Eu507 Eu 0.03536 0.0557 0.55084 0.0
C508 C 0.03578 0.10685 0.55069 0.0
C509 C 0.02129 0.11421 0.55211 0.0
C510 C 0.01677 0.12617 0.53966 0.0
C511 C 0.02681 0.13107 0.52579 0.0
C512 C 0.04152 0.12412 0.52467 0.0
C513 C 0.04597 0.11207 0.537 0.0
C514 C 1.00748 0.02764 0.54945 0.0
C515 C 0.02521 0.04133 0.5053 0.0
O516 O 0.02855 0.98707 0.53218 0.0
O517 O 0.05045 0.99226 0.51737 0.0
O518 O 0.06899 0.02558 0.52757 0.0
O519 O 0.05647 0.04563 0.53929 0.0
O520 O 0.05213 0.01686 0.56423 0.0
O521 O 0.04685 0.04604 0.57714 0.0
O522 O 0.05136 0.08373 0.55776 0.0
O523 O 0.02565 0.07951 0.56364 0.0
O524 O 1.00826 0.04553 0.55544 0.0
O525 O 0.02154 0.02608 0.54457 0.0
O526 O 0.02801 0.05595 0.51925 0.0
O527 O 0.02888 0.02453 0.50778 0.0
H528 H 0.05665 0.95231 0.51257 0.0
H529 H 0.06789 0.93057 0.53175 0.0
H530 H 0.05411 0.96035 0.58131 0.0
H531 H 0.04243 0.98135 0.56246 0.0
H532 H 1.01318 0.11025 0.56247 0.0
H533 H 1.00538 0.13144 0.54076 0.0
H534 H 0.0497 0.12816 0.5144 0.0
H535 H 0.05721 0.10659 0.5355 0.0
C536 C 0.24399 0.74128 0.74162 0.0
Eu537 Eu 0.26756 0.76488 0.76321 0.0
C538 C 0.2267 0.74271 0.73767 0.0
C539 C 0.21874 0.75099 0.75189 0.0
C540 C 0.20356 0.7561 0.74743 0.0
C541 C 0.19639 0.75329 0.72872 0.0
C542 C 0.20411 0.74456 0.71457 0.0
C543 C 0.21922 0.73926 0.71905 0.0
C544 C 0.27042 0.77287 0.80038 0.0
C545 C 0.26355 0.80937 0.77381 0.0
C546 C 0.32277 0.81804 0.80105 0.0
Eu547 Eu 0.29888 0.79342 0.78133 0.0
C548 C 0.3397 0.81562 0.80568 0.0
C549 C 0.353 0.83081 0.80577 0.0
C550 C 0.3692 0.82822 0.80989 0.0
C551 C 0.37203 0.81038 0.81368 0.0
C552 C 0.35882 0.79488 0.81235 0.0
C553 C 0.34269 0.79748 0.80835 0.0
C554 C 0.29551 0.78686 0.74419 0.0
C555 C 0.30282 0.74884 0.77207 0.0
O556 O 0.25426 0.75448 0.7354 0.0
O557 O 0.24882 0.73876 0.75877 0.0
O558 O 0.25622 0.76945 0.78981 0.0
O559 O 0.282 0.77049 0.79092 0.0
O560 O 0.25637 0.79218 0.76453 0.0
O561 O 0.2791 0.81243 0.78225 0.0
O562 O 0.31145 0.80727 0.80866 0.0
O563 O 0.31866 0.81827 0.78319 0.0
O564 O 0.30979 0.78911 0.75427 0.0
O565 O 0.28403 0.78842 0.75397 0.0
O566 O 0.30992 0.76615 0.78104 0.0
O567 O 0.2873 0.74559 0.76344 0.0
H568 H 0.22455 0.75426 0.76631 0.0
H569 H 0.1977 0.76284 0.75846 0.0
H570 H 0.19854 0.74207 0.70005 0.0
H571 H 0.22542 0.73329 0.70792 0.0
H572 H 0.35082 0.8447 0.80312 0.0
H573 H 0.37942 0.84031 0.81118 0.0
H574 H 0.36093 0.78113 0.81559 0.0
H575 H 0.33257 0.78545 0.80789 0.0
C576 C 0.57563 0.0606 0.08481 0.0
Eu577 Eu 0.55054 0.04004 0.06287 0.0
C578 C 0.59266 0.06677 0.08079 0.0
C579 C 0.60222 0.05328 0.07521 0.0
C580 C 0.61717 0.05904 0.06825 0.0
C581 C 0.62267 0.07831 0.06671 0.0
C582 C 0.61339 0.09186 0.07282 0.0
C583 C 0.59847 0.08612 0.07979 0.0
C584 C 0.54522 1.0021 0.05362 0.0
C585 C 0.55268 0.0335 0.01788 0.0
C586 C 0.49023 1.00699 0.01676 0.0
Eu587 Eu 0.51773 0.02334 0.03759 0.0
C588 C 0.47381 1.0013 0.02246 0.0
C589 C 0.45965 1.00385 0.0115 0.0
C590 C 0.44399 0.99771 0.0168 0.0
C591 C 0.44252 0.98892 0.033 0.0
C592 C 0.45672 0.98732 0.04445 0.0
C593 C 0.47229 0.99363 0.03931 0.0
C594 C 0.52577 0.06142 0.04641 0.0
C595 C 0.51596 0.03159 0.0824 0.0
O596 O 0.56454 0.06799 0.07557 0.0
O597 O 0.57076 0.0423 0.08519 0.0
O598 O 0.55989 0.01291 0.05629 0.0
O599 O 0.53414 0.01159 0.05716 0.0
O600 O 0.56029 0.04243 0.03454 0.0
O601 O 0.53693 0.02402 0.01604 0.0
O602 O 0.50122 0.99756 0.02283 0.0
O603 O 0.49594 0.02537 0.01882 0.0
O604 O 0.51101 0.05179 0.04706 0.0
O605 O 0.53512 0.05045 0.04178 0.0
O606 O 0.50883 0.0207 0.06646 0.0
O607 O 0.53113 0.04204 0.08341 0.0
H608 H 0.59794 0.03819 0.07555 0.0
H609 H 0.62419 0.04841 0.06364 0.0
H610 H 0.61762 0.10689 0.07211 0.0
H611 H 0.59116 0.09668 0.08369 0.0
H612 H 0.46069 1.0101 0.99869 0.0
H613 H 0.43304 0.99884 0.00776 0.0
H614 H 0.4557 0.98051 0.05695 0.0
H615 H 0.48311 0.99194 0.04824 0.0
C616 C 0.32585 0.31999 0.28855 0.0
Eu617 Eu 0.29776 0.29789 0.28949 0.0
C618 C 0.3383 0.31356 0.27765 0.0
C619 C 0.35479 0.31582 0.28585 0.0
C620 C 0.36545 0.30533 0.27748 0.0
C621 C 0.35966 0.29249 0.2609 0.0
C622 C 0.34334 0.29069 0.25248 0.0
C623 C 0.33277 0.30108 0.26078 0.0
C624 C 0.2872 0.28031 0.31829 0.0
C625 C 0.29775 0.25185 0.2774 0.0
C626 C 0.23547 0.24725 0.27908 0.0
Eu627 Eu 0.26386 0.2694 0.27842 0.0
C628 C 0.22127 0.25169 0.28791 0.0
C629 C 0.20511 0.24526 0.27858 0.0
C630 C 0.19201 0.25297 0.28502 0.0
C631 C 0.19508 0.26719 0.30078 0.0
C632 C 0.21117 0.27296 0.31043 0.0
C633 C 0.22415 0.26547 0.3039 0.0
C634 C 0.27557 0.28173 0.24671 0.0
C635 C 0.26379 0.31586 0.28975 0.0
O636 O 0.31217 0.32192 0.2788 0.0
O637 O 0.32294 0.31059 0.30259 0.0
O638 O 0.30246 0.28744 0.31681 0.0
O639 O 0.27755 0.28528 0.30573 0.0
O640 O 0.30591 0.26982 0.27817 0.0
O641 O 0.28161 0.24831 0.27895 0.0
O642 O 0.2488 0.24685 0.29045 0.0
O643 O 0.23876 0.25698 0.26536 0.0
O644 O 0.26199 0.26942 0.24651 0.0
O645 O 0.28225 0.28551 0.26347 0.0
O646 O 0.25496 0.29799 0.28572 0.0
O647 O 0.28033 0.31926 0.29192 0.0
H648 H 0.35914 0.32492 0.29913 0.0
H649 H 0.37812 0.30703 0.28407 0.0
H650 H 0.33855 0.28068 0.23984 0.0
H651 H 0.31994 0.29838 0.25454 0.0
H652 H 0.20278 0.23501 0.26587 0.0
H653 H 0.17967 0.24834 0.27736 0.0
H654 H 0.21383 0.28357 0.32287 0.0
H655 H 0.23659 0.27118 0.31082 0.0
C656 C 0.55171 0.48055 0.02828 0.0
Eu657 Eu 0.54546 0.51433 0.03728 0.0
C658 C 0.55671 0.46758 0.04065 0.0
C659 C 0.56617 0.45422 0.03482 0.0
C660 C 0.57044 0.44174 0.04696 0.0
C661 C 0.56569 0.44306 0.06516 0.0
C662 C 0.55759 0.45769 0.07134 0.0
C663 C 0.5525 0.4692 0.05895 0.0
C664 C 0.56927 0.54578 0.03497 0.0
C665 C 0.55506 0.52644 0.0831 0.0
C666 C 0.53251 0.58198 0.06142 0.0
Eu667 Eu 0.5371 0.54732 0.0536 0.0
C668 C 0.53204 0.5966 0.04923 0.0
C669 C 0.52217 0.61018 0.05254 0.0
C670 C 0.52061 0.6231 0.03993 0.0
C671 C 0.52882 0.62244 0.02381 0.0
C672 C 0.53879 0.60884 0.02063 0.0
C673 C 0.54042 0.59604 0.03328 0.0
C674 C 0.51246 0.51628 0.05551 0.0
C675 C 0.52762 0.53514 0.00815 0.0
O676 O 0.53674 0.48374 0.02924 0.0
O677 O 0.56262 0.4962 0.02873 0.0
O678 O 0.56284 0.53257 0.02103 0.0
O679 O 0.56231 0.54215 0.04927 0.0
O680 O 0.55132 0.5123 0.06894 0.0
O681 O 0.55201 0.54324 0.08036 0.0
O682 O 0.54689 0.57717 0.06467 0.0
O683 O 0.52034 0.56723 0.05729 0.0
O684 O 0.51841 0.53008 0.06911 0.0
O685 O 0.5201 0.51936 0.04149 0.0
O686 O 0.53265 0.5497 0.02183 0.0
O687 O 0.52935 0.51805 0.01146 0.0
H688 H 0.56966 0.45298 0.02075 0.0
H689 H 0.57655 0.43044 0.04175 0.0
H690 H 0.55402 0.45929 0.08537 0.0
H691 H 0.54463 0.47878 0.06355 0.0
H692 H 0.51556 0.61065 0.06473 0.0
H693 H 0.51311 0.6337 0.04288 0.0
H694 H 0.54516 0.60795 0.00827 0.0
H695 H 0.54808 0.58557 0.03047 0.0
C696 C 0.74775 0.23664 0.26131 0.0
Eu697 Eu 0.77219 0.26337 0.27732 0.0
C698 C 0.73089 0.23765 0.25364 0.0
C699 C 0.71732 0.23087 0.26291 0.0
C700 C 0.70151 0.23355 0.25662 0.0
C701 C 0.6992 0.24301 0.24102 0.0
C702 C 0.71275 0.24987 0.23191 0.0
C703 C 0.72838 0.247 0.23799 0.0
C704 C 0.77941 0.27656 0.31361 0.0
C705 C 0.76863 0.30839 0.2835 0.0
C706 C 0.83249 0.31328 0.29864 0.0
Eu707 Eu 0.80343 0.29293 0.28662 0.0
C708 C 0.84716 0.30785 0.30747 0.0
C709 C 0.86289 0.31736 0.30477 0.0
C710 C 0.87695 0.31118 0.31188 0.0
C711 C 0.87535 0.29538 0.32171 0.0
C712 C 0.85952 0.28563 0.32401 0.0
C713 C 0.84548 0.29179 0.31686 0.0
C714 C 0.78921 0.28907 0.25106 0.0
C715 C 0.80648 0.24709 0.28315 0.0
O716 O 0.7597 0.24441 0.2524 0.0
O717 O 0.7512 0.24087 0.27953 0.0
O718 O 0.7644 0.27271 0.30494 0.0
O719 O 0.78997 0.27291 0.30306 0.0
O720 O 0.76175 0.29094 0.27454 0.0
O721 O 0.78415 0.31173 0.29208 0.0
O722 O 0.81997 0.31282 0.30851 0.0
O723 O 0.82812 0.30533 0.2812 0.0
O724 O 0.79666 0.30534 0.26043 0.0
O725 O 0.79072 0.27585 0.2605 0.0
O726 O 0.81436 0.2652 0.28428 0.0
O727 O 0.79006 0.24295 0.28165 0.0
H728 H 0.71899 0.22368 0.27507 0.0
H729 H 0.69109 0.22797 0.26368 0.0
H730 H 0.71123 0.25737 0.21993 0.0
H731 H 0.73846 0.25228 0.23044 0.0
H732 H 0.86428 0.32949 0.29714 0.0
H733 H 0.88906 0.31911 0.31019 0.0
H734 H 0.85803 0.27337 0.33146 0.0
H735 H 0.83332 0.28398 0.31858 0.0
C736 C 0.0764 0.56989 0.59333 0.0
Eu737 Eu 0.05093 0.54908 0.57232 0.0
C738 C 0.09299 0.57602 0.58822 0.0
C739 C 0.10072 0.5628 0.57826 0.0
C740 C 0.1151 0.56908 0.5705 0.0
C741 C 0.12178 0.58863 0.57239 0.0
C742 C 0.11431 0.6018 0.58273 0.0
C743 C 0.09998 0.59551 0.59063 0.0
C744 C 0.04181 0.51098 0.5667 0.0
C745 C 0.05293 0.53945 0.52655 0.0
C746 C 0.99191 0.51377 0.52495 0.0
Eu747 Eu 0.01782 0.53338 0.54634 0.0
C748 C 0.97503 0.50605 0.52878 0.0
C749 C 0.96188 0.51451 0.5224 0.0
C750 C 0.94585 0.5078 0.5263 0.0
C751 C 0.94279 0.4926 0.53663 0.0
C752 C 0.95588 0.48434 0.54337 0.0
C753 C 0.97195 0.49103 0.5395 0.0
C754 C 0.02804 0.57121 0.5515 0.0
C755 C 0.01536 0.54384 0.59099 0.0
O756 O 0.06486 0.57721 0.58477 0.0
O757 O 0.07187 0.55156 0.59372 0.0
O758 O 0.05714 0.52005 0.57091 0.0
O759 O 0.03228 0.52269 0.5684 0.0
O760 O 0.06126 0.54717 0.54342 0.0
O761 O 0.03666 0.53231 0.52482 0.0
O762 O 1.00395 0.50597 0.53181 0.0
O763 O 0.99586 0.53242 0.52691 0.0
O764 O 1.01254 0.56315 0.55091 0.0
O765 O 0.03699 0.55907 0.54954 0.0
O766 O 1.00742 0.53465 0.57459 0.0
O767 O 0.03148 0.55156 0.59278 0.0
H768 H 0.09537 0.54767 0.57584 0.0
H769 H 0.1207 0.55873 0.56254 0.0
H770 H 0.11949 0.61697 0.58458 0.0
H771 H 0.09402 0.60587 0.59801 0.0
H772 H 0.96397 0.52619 0.51425 0.0
H773 H 0.93574 0.51405 0.52076 0.0
H774 H 0.95354 0.47227 0.55101 0.0
H775 H 0.98185 0.48431 0.54471 0.0
C776 C 0.83259 0.77385 0.29245 0.0
Eu777 Eu 0.80124 0.77455 0.29441 0.0
C778 C 0.84467 0.77283 0.27869 0.0
C779 C 0.85463 0.75901 0.2792 0.0
C780 C 0.86705 0.75847 0.26744 0.0
C781 C 0.86987 0.7718 0.25483 0.0
C782 C 0.85947 0.78526 0.25389 0.0
C783 C 0.84702 0.78579 0.26569 0.0
C784 C 0.77615 0.74384 0.29798 0.0
C785 C 0.77854 0.77018 0.25377 0.0
C786 C 0.7342 0.78902 0.29378 0.0
Eu787 Eu 0.76525 0.78699 0.29132 0.0
C788 C 0.72139 0.78837 0.30695 0.0
C789 C 0.71748 0.80551 0.31516 0.0
C790 C 0.70409 0.80531 0.32566 0.0
C791 C 0.69411 0.78795 0.32808 0.0
C792 C 0.6984 0.77079 0.32049 0.0
C793 C 0.71186 0.77099 0.31005 0.0
C794 C 0.79032 0.81762 0.28717 0.0
C795 C 0.78749 0.79019 0.33204 0.0
O796 O 0.82693 0.78963 0.29568 0.0
O797 O 0.82118 0.75856 0.2921 0.0
O798 O 0.79194 0.74379 0.29992 0.0
O799 O 0.77484 0.76072 0.29531 0.0
O800 O 0.79322 0.77073 0.26326 0.0
O801 O 0.76552 0.77454 0.26133 0.0
O802 O 0.73887 0.77322 0.28743 0.0
O803 O 0.7465 0.80376 0.29705 0.0
O804 O 0.77454 0.8176 0.28559 0.0
O805 O 0.79166 0.80082 0.2901 0.0
O806 O 0.77266 0.78834 0.32237 0.0
O807 O 0.80086 0.78743 0.32425 0.0
H808 H 0.85308 0.74887 0.2891 0.0
H809 H 0.87487 0.74805 0.2688 0.0
H810 H 0.86108 0.79558 0.24418 0.0
H811 H 0.83945 0.79653 0.26484 0.0
H812 H 0.72442 0.81917 0.31291 0.0
H813 H 0.70109 0.81878 0.33113 0.0
H814 H 0.69112 0.75716 0.32232 0.0
H815 H 0.71447 0.75751 0.30396 0.0
C816 C 0.78255 0.30464 0.84754 0.0
Eu817 Eu 0.78443 0.29647 0.81229 0.0
C818 C 0.76994 0.29586 0.85827 0.0
C819 C 0.77081 0.30205 0.87744 0.0
C820 C 0.76254 0.29006 0.88869 0.0
C821 C 0.75389 0.27165 0.88081 0.0
C822 C 0.75114 0.26666 0.86129 0.0
C823 C 0.7589 0.27897 0.85002 0.0
C824 C 0.75781 0.29458 0.78564 0.0
C825 C 0.77232 0.25042 0.79601 0.0
C826 C 0.79366 0.27385 0.73739 0.0
Eu827 Eu 0.79327 0.28067 0.77289 0.0
C828 C 0.80245 0.2864 0.72569 0.0
C829 C 0.81313 0.27958 0.71388 0.0
C830 C 0.82022 0.291 0.70146 0.0
C831 C 0.81634 0.30909 0.70057 0.0
C832 C 0.80753 0.31683 0.71415 0.0
C833 C 0.80057 0.3055 0.72663 0.0
C834 C 0.82012 0.28236 0.79909 0.0
C835 C 0.80508 0.32666 0.78864 0.0
O836 O 0.79182 0.293 0.84102 0.0
O837 O 0.77743 0.31476 0.83514 0.0
O838 O 0.75816 0.30032 0.80332 0.0
O839 O 0.7717 0.29024 0.78328 0.0
O840 O 0.77394 0.26442 0.81024 0.0
O841 O 0.77853 0.25317 0.78013 0.0
O842 O 0.78132 0.27982 0.74469 0.0
O843 O 0.80317 0.26695 0.74923 0.0
O844 O 0.81922 0.27623 0.7814 0.0
O845 O 0.80639 0.28704 0.80213 0.0
O846 O 0.80276 0.31288 0.77407 0.0
O847 O 0.80012 0.32338 0.80503 0.0
H848 H 0.77907 0.31522 0.88392 0.0
H849 H 0.76481 0.29412 0.90378 0.0
H850 H 0.74455 0.25251 0.85499 0.0
H851 H 0.75761 0.27439 0.83509 0.0
H852 H 0.81523 0.26514 0.71355 0.0
H853 H 0.82716 0.28494 0.69115 0.0
H854 H 0.80437 0.33075 0.71373 0.0
H855 H 0.79291 0.31139 0.73619 0.0
C856 C 0.82439 0.81972 0.80081 0.0
Eu857 Eu 0.79447 0.8005 0.79863 0.0
C858 C 0.83685 0.81312 0.79034 0.0
C859 C 0.85373 0.81793 0.79722 0.0
C860 C 0.86498 0.80915 0.78797 0.0
C861 C 0.85927 0.79518 0.77212 0.0
C862 C 0.8423 0.79041 0.7655 0.0
C863 C 0.83128 0.79961 0.77425 0.0
C864 C 0.7797 0.78568 0.82679 0.0
C865 C 0.79577 0.75475 0.78337 0.0
C866 C 0.73371 0.75596 0.78276 0.0
Eu867 Eu 0.76398 0.77437 0.78441 0.0
C868 C 0.71977 0.76216 0.79123 0.0
C869 C 0.70503 0.76235 0.77991 0.0
C870 C 0.69238 0.76995 0.78758 0.0
C871 C 0.69426 0.77738 0.80675 0.0
C872 C 0.709 0.77697 0.81807 0.0
C873 C 0.72167 0.76959 0.81038 0.0
C874 C 0.77887 0.78929 0.75628 0.0
C875 C 0.76292 0.82019 0.79905 0.0
O876 O 0.81194 0.82348 0.79027 0.0
O877 O 0.81958 0.80914 0.81345 0.0
O878 O 0.78661 0.80355 0.82764 0.0
O879 O 0.78073 0.7766 0.81099 0.0
O880 O 0.80396 0.77264 0.7889 0.0
O881 O 0.77936 0.7512 0.78075 0.0
O882 O 0.74589 0.75336 0.79454 0.0
O883 O 0.73895 0.76515 0.76932 0.0
O884 O 0.77161 0.77147 0.75514 0.0
O885 O 0.77779 0.79825 0.77213 0.0
O886 O 0.75456 0.80237 0.79358 0.0
O887 O 0.77926 0.82356 0.802 0.0
H888 H 0.85812 0.82819 0.80977 0.0
H889 H 0.87808 0.81328 0.79319 0.0
H890 H 0.83743 0.77942 0.75365 0.0
H891 H 0.81825 0.79567 0.76871 0.0
H892 H 0.70344 0.75699 0.76506 0.0
H893 H 0.68124 0.77026 0.77845 0.0
H894 H 0.71074 0.78221 0.83295 0.0
H895 H 0.73301 0.76993 0.81947 0.0
C896 C 0.58832 0.55543 0.57647 0.0
Eu897 Eu 0.55711 0.54756 0.56297 0.0
C898 C 0.60126 0.544 0.57516 0.0
C899 C 0.61054 0.54138 0.59165 0.0
C900 C 0.62101 0.52819 0.59104 0.0
C901 C 0.62244 0.5177 0.57387 0.0
C902 C 0.61328 0.52042 0.55737 0.0
C903 C 0.60265 0.53335 0.55803 0.0
C904 C 0.53331 0.5493 0.5875 0.0
C905 C 0.54375 0.50183 0.55794 0.0
C906 C 0.49329 0.52176 0.52741 0.0
Eu907 Eu 0.5247 0.53066 0.53955 0.0
C908 C 0.48057 0.53308 0.52993 0.0
C909 C 0.46808 0.53242 0.51513 0.0
C910 C 0.45801 0.546 0.51593 0.0
C911 C 0.4603 0.5601 0.53164 0.0
C912 C 0.47253 0.56049 0.54661 0.0
C913 C 0.48279 0.54724 0.54561 0.0
C914 C 0.54805 0.5289 0.51477 0.0
C915 C 0.53869 0.57627 0.54328 0.0
O916 O 0.58268 0.56142 0.56115 0.0
O917 O 0.5765 0.5484 0.58577 0.0
O918 O 0.54894 0.55656 0.5912 0.0
O919 O 0.53046 0.54263 0.57 0.0
O920 O 0.5568 0.5159 0.56076 0.0
O921 O 0.52906 0.50429 0.55115 0.0
O922 O 0.49971 0.51596 0.54245 0.0
O923 O 0.5045 0.52917 0.51752 0.0
O924 O 0.53238 0.52178 0.51125 0.0
O925 O 0.55131 0.53567 0.53228 0.0
O926 O 0.52541 0.56244 0.54083 0.0
O927 O 0.55326 0.57372 0.55049 0.0
H928 H 0.6093 0.54915 0.60507 0.0
H929 H 0.62804 0.52625 0.60388 0.0
H930 H 0.61413 0.51226 0.54401 0.0
H931 H 0.59523 0.53465 0.54526 0.0
H932 H 0.46662 0.52197 0.50267 0.0
H933 H 0.44861 0.54566 0.50425 0.0
H934 H 0.47457 0.57153 0.55868 0.0
H935 H 0.49298 0.54863 0.55661 0.0
C936 C 0.99109 0.5393 0.06807 0.0
Eu937 Eu 0.02143 0.53505 0.06303 0.0
C938 C 0.97965 0.55305 0.06982 0.0
C939 C 0.96721 0.55001 0.08162 0.0
C940 C 0.95488 0.56105 0.08202 0.0
C941 C 0.95461 0.57555 0.07063 0.0
C942 C 0.96756 0.57923 0.05944 0.0
C943 C 0.97991 0.56804 0.05896 0.0
C944 C 0.04409 0.52996 0.09205 0.0
C945 C 0.04496 0.57635 0.06571 0.0
C946 C 0.08571 0.53321 0.04875 0.0
Eu947 Eu 0.05512 0.5376 0.05262 0.0
C948 C 0.09713 0.51933 0.04627 0.0
C949 C 0.10653 0.51958 0.03112 0.0
C950 C 0.11912 0.50889 0.02979 0.0
C951 C 0.12284 0.49759 0.04365 0.0
C952 C 0.11291 0.49669 0.05844 0.0
C953 C 0.10029 0.50745 0.05977 0.0
C954 C 0.03243 0.54274 0.02356 0.0
C955 C 0.0309 0.49618 0.04875 0.0
O956 O 0.99586 0.53503 0.05169 0.0
O957 O 1.00286 0.54025 0.0818 0.0
O958 O 0.02914 0.5199 0.08747 0.0
O959 O 0.04654 0.5423 0.08092 0.0
O960 O 0.02976 0.56632 0.06143 0.0
O961 O 0.05789 0.56805 0.06581 0.0
O962 O 0.08005 0.53595 0.06487 0.0
O963 O 0.07476 0.53413 0.03472 0.0
O964 O 0.04743 0.55273 0.02805 0.0
O965 O 0.03005 0.53036 0.03466 0.0
O966 O 0.04624 0.50602 0.05262 0.0
O967 O 0.01813 0.50465 0.04973 0.0
H968 H 0.96672 0.53861 0.09017 0.0
H969 H 0.94534 0.55799 0.09107 0.0
H970 H 0.96777 0.59021 0.05044 0.0
H971 H 0.98935 0.57076 0.04973 0.0
H972 H 0.10451 0.5286 0.02051 0.0
H973 H 0.12614 0.50975 0.01796 0.0
H974 H 0.11533 0.48831 0.06948 0.0
H975 H 0.09339 0.50692 0.07172 0.0
H976 H 0.03662 0.23949 0.96665 0.0
H977 H 0.04158 0.21325 0.98394 0.0
H978 H 0.99978 0.17565 0.9498 0.0
H979 H 0.99528 0.20163 0.93191 0.0
H980 H 1.00248 0.17919 0.99347 0.0
H981 H 0.03197 0.16715 0.93951 0.0
H982 H 0.05289 0.17684 0.9187 0.0
H983 H 0.09133 0.18873 0.96555 0.0
H984 H 0.07055 0.17942 0.98672 0.0
H985 H 1.00569 0.08685 0.01597 0.0
H986 H 1.00321 0.11523 1.0014 0.0
H987 H 0.0548 0.13935 0.02061 0.0
H988 H 0.05746 0.11085 0.03496 0.0
H989 H 0.04892 0.14497 0.98623 0.0
H990 H 0.02273 0.15553 0.03997 0.0
H991 H 1.00388 0.15116 0.06408 0.0
H992 H 0.96202 0.14808 0.02279 0.0
H993 H 0.98044 0.15148 0.99826 0.0
C994 C 0.0286 0.22556 0.96276 0.0
C995 C 0.01563 0.22251 0.94789 0.0
C996 C 0.03144 0.21061 0.97263 0.0
C997 C 0.02107 0.19248 0.96814 0.0
C998 C 1.00798 0.18949 0.95343 0.0
C999 C 1.00545 0.20428 0.94319 0.0
C1000 C 0.02361 0.17673 0.97903 0.0
C1001 C 1.01244 0.17143 0.9917 0.0
C1002 C 0.03718 0.16742 0.97747 0.0
C1003 C 0.04968 0.17281 0.96473 0.0
C1004 C 0.04485 0.17202 0.94541 0.0
C1005 C 0.05669 0.1774 0.93354 0.0
C1006 C 0.07342 0.18346 0.94081 0.0
C1007 C 0.07836 0.18407 0.95995 0.0
C1008 C 0.06655 0.17874 0.97189 0.0
C1009 C 0.0165 0.09824 0.01728 0.0
C1010 C 0.03178 0.09645 0.02673 0.0
C1011 C 0.01505 0.11457 0.00895 0.0
C1012 C 0.02878 0.12964 0.00992 0.0
C1013 C 0.04399 0.128 0.01956 0.0
C1014 C 0.04546 0.11167 0.02791 0.0
C1015 C 0.02734 0.14676 1.00038 0.0
C1016 C 0.03883 0.15252 0.98806 0.0
C1017 C 1.01429 0.15689 1.00268 0.0
C1018 C 1.003 0.15353 0.01718 0.0
C1019 C 1.00947 0.15349 0.03593 0.0
C1020 C 0.99884 0.15119 0.04969 0.0
C1021 C 0.98174 0.14925 0.04497 0.0
C1022 C 0.97523 0.14944 0.02643 0.0
C1023 C 0.98575 0.15145 0.01256 0.0
H1024 H 0.97354 0.1477 0.05569 0.0
H1025 H 0.08257 0.18762 0.93159 0.0
H1026 H 0.09992 0.78805 0.21194 0.0
H1027 H 0.12725 0.78407 0.22507 0.0
H1028 H 0.15052 0.82494 0.1921 0.0
H1029 H 0.12305 0.82827 0.17817 0.0
H1030 H 0.16695 0.79644 0.19233 0.0
H1031 H 0.14766 0.83627 0.24119 0.0
H1032 H 0.12654 0.84311 0.26147 0.0
H1033 H 0.12839 0.79155 0.28513 0.0
H1034 H 0.14941 0.78432 0.26487 0.0
H1035 H 0.24808 0.81135 0.24653 0.0
H1036 H 0.22168 0.81275 0.22822 0.0
H1037 H 0.19505 0.77756 0.26398 0.0
H1038 H 0.22123 0.77727 0.28277 0.0
H1039 H 0.18052 0.8043 0.26147 0.0
H1040 H 0.19908 0.76348 0.21412 0.0
H1041 H 0.21824 0.75353 0.19259 0.0
H1042 H 0.2166 0.80298 0.16529 0.0
H1043 H 0.19758 0.81337 0.18683 0.0
C1044 C 0.11083 0.79643 0.20766 0.0
C1045 C 0.1092 0.80878 0.19424 0.0
C1046 C 0.12654 0.7941 0.21517 0.0
C1047 C 0.14114 0.80448 0.20995 0.0
C1048 C 0.13955 0.81679 0.19648 0.0
C1049 C 0.1238 0.81884 0.18866 0.0
C1050 C 0.15797 0.80278 0.21885 0.0
C1051 C 0.17002 0.7984 0.20746 0.0
C1052 C 0.16198 0.80483 0.23858 0.0
C1053 C 0.15008 0.80975 0.25151 0.0
C1054 C 0.14359 0.82643 0.25077 0.0
C1055 C 0.13161 0.83035 0.26222 0.0
C1056 C 0.12612 0.81777 0.27457 0.0
C1057 C 0.13267 0.8013 0.27558 0.0
C1058 C 0.14465 0.79731 0.26416 0.0
C1059 C 0.23658 0.8035 0.25008 0.0
C1060 C 0.23671 0.79401 0.26594 0.0
C1061 C 0.22142 0.8043 0.23962 0.0
C1062 C 0.2061 0.79524 0.24456 0.0
C1063 C 0.20649 0.78488 0.25983 0.0
C1064 C 0.22152 0.78451 0.27049 0.0
C1065 C 0.18963 0.79759 0.23502 0.0
C1066 C 0.17761 0.80227 0.24632 0.0
C1067 C 0.18563 0.79551 0.21522 0.0
C1068 C 0.19705 0.78931 0.20224 0.0
C1069 C 0.20291 0.77232 0.20363 0.0
C1070 C 0.21372 0.76658 0.1914 0.0
C1071 C 0.21866 0.77764 0.17762 0.0
C1072 C 0.21277 0.79445 0.176 0.0
C1073 C 0.20196 0.80026 0.1882 0.0
H1074 H 0.227 0.77315 0.16815 0.0
H1075 H 0.11679 0.82078 0.28336 0.0
H1076 H 0.51533 0.81284 0.48039 0.0
H1077 H 0.52048 0.845 0.49847 0.0
H1078 H 0.52008 0.86959 0.44704 0.0
H1079 H 0.51469 0.83779 0.42896 0.0
H1080 H 0.5463 0.88881 0.47578 0.0
H1081 H 0.48709 0.86647 0.46497 0.0
H1082 H 0.461 0.84359 0.46542 0.0
H1083 H 0.47069 0.84822 0.5254 0.0
H1084 H 0.497 0.87094 0.52524 0.0
H1085 H 0.53225 0.98132 0.5009 0.0
H1086 H 0.52993 0.94832 0.48625 0.0
H1087 H 0.52184 0.92878 0.53931 0.0
H1088 H 0.52342 0.96192 0.55375 0.0
H1089 H 0.50188 0.90622 0.51184 0.0
H1090 H 0.56051 0.93298 0.52192 0.0
H1091 H 0.58554 0.95686 0.51965 0.0
H1092 H 0.57646 0.94516 0.45952 0.0
H1093 H 0.55126 0.92136 0.46141 0.0
C1094 C 0.51632 0.82511 0.47298 0.0
C1095 C 0.51433 0.82276 0.45327 0.0
C1096 C 0.51934 0.84342 0.48329 0.0
C1097 C 0.52067 0.85958 0.47402 0.0
C1098 C 0.51917 0.85728 0.45441 0.0
C1099 C 0.51588 0.83906 0.44413 0.0
C1100 C 0.52245 0.87888 0.48457 0.0
C1101 C 0.53663 0.8927 0.48368 0.0
C1102 C 0.50985 0.88378 0.4949 0.0
C1103 C 0.49409 0.87017 0.49507 0.0
C1104 C 0.48373 0.86245 0.47823 0.0
C1105 C 0.4689 0.84955 0.47843 0.0
C1106 C 0.46422 0.84439 0.49542 0.0
C1107 C 0.47436 0.85218 0.51224 0.0
C1108 C 0.48923 0.86507 0.51211 0.0
C1109 C 0.5297 0.96987 0.50928 0.0
C1110 C 0.52785 0.97386 0.52829 0.0
C1111 C 0.5286 0.95111 0.50101 0.0
C1112 C 0.52616 0.93615 0.51182 0.0
C1113 C 0.52384 0.94014 0.53077 0.0
C1114 C 0.52464 0.95895 0.53897 0.0
C1115 C 0.52579 0.91632 0.50323 0.0
C1116 C 0.51179 0.90235 0.50434 0.0
C1117 C 0.53853 0.9114 0.49298 0.0
C1118 C 0.55393 0.92543 0.49182 0.0
C1119 C 0.56381 0.93554 0.50821 0.0
C1120 C 0.57803 0.94907 0.50699 0.0
C1121 C 0.58257 0.95255 0.48946 0.0
C1122 C 0.57293 0.94245 0.4731 0.0
C1123 C 0.55869 0.92891 0.47424 0.0
H1124 H 0.59357 0.96305 0.48855 0.0
H1125 H 0.45272 0.83441 0.49556 0.0
H1126 H 0.50855 0.29496 0.66712 0.0
H1127 H 0.4795 0.28631 0.67244 0.0
H1128 H 0.49526 0.27483 0.7279 0.0
H1129 H 0.52422 0.28203 0.72193 0.0
H1130 H 0.47106 0.24861 0.71406 0.0
H1131 H 0.47858 0.31847 0.71412 0.0
H1132 H 0.48464 0.34763 0.69921 0.0
H1133 H 0.44608 0.3231 0.6539 0.0
H1134 H 0.43991 0.29375 0.66845 0.0
H1135 H 0.40477 0.25927 0.76564 0.0
H1136 H 0.43007 0.26014 0.75093 0.0
H1137 H 0.40325 0.26393 0.69771 0.0
H1138 H 0.37764 0.2627 0.71229 0.0
H1139 H 0.43039 0.29036 0.70422 0.0
H1140 H 0.41929 0.22408 0.70425 0.0
H1141 H 0.41175 0.19332 0.716 0.0
H1142 H 0.4551 0.20825 0.75694 0.0
H1143 H 0.4628 0.23924 0.74562 0.0
C1144 C 0.50579 0.2909 0.68057 0.0
C1145 C 0.51871 0.28947 0.69424 0.0
C1146 C 0.48911 0.28596 0.68364 0.0
C1147 C 0.48495 0.28022 0.70078 0.0
C1148 C 0.49795 0.27916 0.71454 0.0
C1149 C 0.51457 0.28349 0.71122 0.0
C1150 C 0.46721 0.27486 0.70448 0.0
C1151 C 0.46229 0.25794 0.71215 0.0
C1152 C 0.45519 0.2862 0.70088 0.0
C1153 C 0.45892 0.30389 0.69227 0.0
C1154 C 0.47147 0.31929 0.70094 0.0
C1155 C 0.4749 0.33584 0.69255 0.0
C1156 C 0.46578 0.3372 0.67559 0.0
C1157 C 0.45316 0.32203 0.66701 0.0
C1158 C 0.44968 0.30545 0.67532 0.0
C1159 C 0.40404 0.25975 0.75069 0.0
C1160 C 0.38903 0.26098 0.74025 0.0
C1161 C 0.41863 0.26029 0.74226 0.0
C1162 C 0.41867 0.26204 0.72314 0.0
C1163 C 0.40362 0.26267 0.7125 0.0
C1164 C 0.38897 0.26204 0.72091 0.0
C1165 C 0.43468 0.2648 0.71485 0.0
C1166 C 0.43918 0.28104 0.70613 0.0
C1167 C 0.44619 0.25264 0.71713 0.0
C1168 C 0.44156 0.23409 0.72417 0.0
C1169 C 0.42714 0.2209 0.71587 0.0
C1170 C 0.42286 0.20339 0.72243 0.0
C1171 C 0.43292 0.19885 0.73723 0.0
C1172 C 0.44731 0.2118 0.74549 0.0
C1173 C 0.45165 0.22933 0.73898 0.0
H1174 H 0.42958 0.18528 0.74228 0.0
H1175 H 0.46847 0.35002 0.66913 0.0
H1176 H 0.03471 0.78582 0.62185 0.0
H1177 H 0.04922 0.81777 0.61876 0.0
H1178 H 1.0026 0.83219 0.59923 0.0
H1179 H 0.98775 0.80017 0.60337 0.0
H1180 H 0.03638 0.83037 0.57684 0.0
H1181 H 1.01138 0.85486 0.63095 0.0
H1182 H 1.0062 0.85841 0.664 0.0
H1183 H 0.05849 0.87702 0.68173 0.0
H1184 H 0.06404 0.87305 0.64877 0.0
H1185 H 0.03592 0.91633 0.55264 0.0
H1186 H 0.03146 0.88821 0.56825 0.0
H1187 H 0.08043 0.9061 0.59955 0.0
H1188 H 0.08469 0.93525 0.58414 0.0
H1189 H 0.0533 0.89134 0.62039 0.0
H1190 H 0.07752 0.87218 0.56589 0.0
H1191 H 0.08206 0.87064 0.53263 0.0
H1192 H 0.03118 0.84284 0.51579 0.0
H1193 H 0.02623 0.84452 0.54888 0.0
C1194 C 0.02759 0.79585 0.61684 0.0
C1195 C 1.01028 0.79074 0.6124 0.0
C1196 C 0.03581 0.81409 0.61554 0.0
C1197 C 0.02681 0.82728 0.60952 0.0
C1198 C 1.00952 0.82213 0.60454 0.0
C1199 C 1.00116 0.80388 0.60634 0.0
C1200 C 0.03597 0.84479 0.60457 0.0
C1201 C 0.04008 0.84376 0.5863 0.0
C1202 C 0.04152 0.86167 0.6175 0.0
C1203 C 0.03816 0.86316 0.63735 0.0
C1204 C 0.02182 0.85921 0.64187 0.0
C1205 C 0.01881 0.86144 0.66061 0.0
C1206 C 0.03202 0.86781 0.67496 0.0
C1207 C 0.04827 0.87197 0.67061 0.0
C1208 C 0.05136 0.86969 0.6519 0.0
C1209 C 0.04579 0.91412 0.56271 0.0
C1210 C 0.06083 0.92727 0.5669 0.0
C1211 C 0.04323 0.89823 0.57165 0.0
C1212 C 0.05583 0.89502 0.58455 0.0
C1213 C 0.07076 0.90843 0.58933 0.0
C1214 C 0.07325 0.92475 0.5805 0.0
C1215 C 0.05287 0.87714 0.59231 0.0
C1216 C 0.05006 0.87782 0.61112 0.0
C1217 C 0.04854 0.85976 0.57993 0.0
C1218 C 0.05154 0.85842 0.55993 0.0
C1219 C 0.06729 0.86579 0.5551 0.0
C1220 C 0.06993 0.8649 0.53626 0.0
C1221 C 0.05693 0.85662 0.52211 0.0
C1222 C 0.04125 0.8492 0.52676 0.0
C1223 C 0.03854 0.85008 0.54557 0.0
H1224 H 0.059 0.85595 0.50753 0.0
H1225 H 0.02965 0.86962 0.68945 0.0
H1226 H 0.51025 0.78182 0.87059 0.0
H1227 H 0.48245 0.78553 0.85876 0.0
H1228 H 0.47544 0.81008 0.91403 0.0
H1229 H 0.50332 0.80661 0.9261 0.0
H1230 H 0.44697 0.77973 0.88922 0.0
H1231 H 0.48019 0.84202 0.89375 0.0
H1232 H 0.50421 0.86721 0.89126 0.0
H1233 H 0.49965 0.84927 0.83185 0.0
H1234 H 0.47567 0.82388 0.83403 0.0
H1235 H 0.37992 0.81851 0.8505 0.0
H1236 H 0.40555 0.81565 0.86899 0.0
H1237 H 0.42459 0.7962 0.8182 0.0
H1238 H 0.39867 0.79906 0.79955 0.0
H1239 H 0.44625 0.82733 0.84501 0.0
H1240 H 0.41552 0.76044 0.84424 0.0
H1241 H 0.38997 0.73795 0.84788 0.0
H1242 H 0.38801 0.76935 0.9017 0.0
H1243 H 0.41389 0.79164 0.89864 0.0
C1244 C 0.50267 0.78755 0.88035 0.0
C1245 C 0.50899 0.79399 0.89922 0.0
C1246 C 0.4869 0.7898 0.87355 0.0
C1247 C 0.47724 0.79838 0.88554 0.0
C1248 C 0.4829 0.80353 0.90466 0.0
C1249 C 0.49875 0.80138 0.91149 0.0
C1250 C 0.46151 0.80247 0.87757 0.0
C1251 C 0.44674 0.79037 0.87984 0.0
C1252 C 0.46136 0.81636 0.86538 0.0
C1253 C 0.47632 0.83085 0.86411 0.0
C1254 C 0.48449 0.84324 0.88021 0.0
C1255 C 0.49803 0.85764 0.87884 0.0
C1256 C 0.5035 0.85979 0.86142 0.0
C1257 C 0.49544 0.84755 0.84534 0.0
C1258 C 0.48186 0.83317 0.84663 0.0
C1259 C 0.38968 0.81373 0.84338 0.0
C1260 C 0.38774 0.80918 0.82384 0.0
C1261 C 0.40414 0.81198 0.85386 0.0
C1262 C 0.41671 0.8056 0.84485 0.0
C1263 C 0.41485 0.80112 0.82522 0.0
C1264 C 0.40025 0.80279 0.81467 0.0
C1265 C 0.43195 0.80409 0.85609 0.0
C1266 C 0.44654 0.81679 0.85451 0.0
C1267 C 0.43187 0.7911 0.86918 0.0
C1268 C 0.41657 0.7776 0.87124 0.0
C1269 C 0.40964 0.76247 0.85686 0.0
C1270 C 0.39512 0.74979 0.85881 0.0
C1271 C 0.3873 0.75231 0.87493 0.0
C1272 C 0.39409 0.7674 0.88924 0.0
C1273 C 0.40876 0.77996 0.88748 0.0
H1274 H 0.376 0.74253 0.87635 0.0
H1275 H 0.51395 0.87098 0.86037 0.0
H1276 H 0.50979 0.21178 0.11341 0.0
H1277 H 0.52593 0.19148 0.09808 0.0
H1278 H 0.52024 0.15469 0.14097 0.0
H1279 H 0.50589 0.17712 0.15814 0.0
H1280 H 0.54916 0.15662 0.13243 0.0
H1281 H 0.49695 0.14341 0.0965 0.0
H1282 H 0.47138 0.14932 0.0796 0.0
H1283 H 0.49968 0.17533 0.03956 0.0
H1284 H 0.5255 0.16986 0.05644 0.0
H1285 H 0.51681 0.07428 0.07937 0.0
H1286 H 0.52977 0.10363 0.09984 0.0
H1287 H 0.56295 0.11867 0.0591 0.0
H1288 H 0.55073 0.08815 0.03913 0.0
H1289 H 0.53405 0.13682 0.06391 0.0
H1290 H 0.58333 0.13076 0.10006 0.0
H1291 H 0.60126 0.11325 0.11758 0.0
H1292 H 0.56663 0.10597 0.15782 0.0
H1293 H 0.54852 0.12346 0.14064 0.0
C1294 C 0.51159 0.19914 0.11942 0.0
C1295 C 0.50624 0.19558 0.13666 0.0
C1296 C 0.52095 0.18762 0.11069 0.0
C1297 C 0.52397 0.17141 0.11817 0.0
C1298 C 0.51801 0.16723 0.13503 0.0
C1299 C 0.50945 0.1796 0.14451 0.0
C1300 C 0.53292 0.15869 0.10782 0.0
C1301 C 0.54582 0.15208 0.11749 0.0
C1302 C 0.52871 0.15323 0.08824 0.0
C1303 C 0.51321 0.15651 0.0779 0.0
C1304 C 0.49775 0.15055 0.08419 0.0
C1305 C 0.4832 0.1538 0.07461 0.0
C1306 C 0.48391 0.16277 0.05857 0.0
C1307 C 0.49916 0.16844 0.05203 0.0
C1308 C 0.51377 0.16528 0.0616 0.0
C1309 C 0.52711 0.08367 0.07506 0.0
C1310 C 0.53258 0.07957 0.0577 0.0
C1311 C 0.53487 0.10006 0.08692 0.0
C1312 C 0.54751 0.11302 0.08102 0.0
C1313 C 0.55351 0.10852 0.06397 0.0
C1314 C 0.54617 0.0916 0.0524 0.0
C1315 C 0.54886 0.13287 0.08882 0.0
C1316 C 0.53797 0.14188 0.07874 0.0
C1317 C 0.55351 0.13855 0.10824 0.0
C1318 C 0.56465 0.12865 0.11913 0.0
C1319 C 0.57957 0.1255 0.11269 0.0
C1320 C 0.58975 0.11555 0.12256 0.0
C1321 C 0.58509 0.10851 0.13879 0.0
C1322 C 0.57027 0.11151 0.14528 0.0
C1323 C 0.56009 0.12156 0.13555 0.0
H1324 H 0.59294 0.10071 0.14633 0.0
H1325 H 0.47264 0.16528 0.05116 0.0
H1326 H 0.10951 0.35274 0.40989 0.0
H1327 H 0.13195 0.3437 0.39288 0.0
H1328 H 0.09859 0.29216 0.36555 0.0
H1329 H 0.07622 0.30132 0.38169 0.0
H1330 H 0.13348 0.28958 0.3822 0.0
H1331 H 0.09982 0.32013 0.33915 0.0
H1332 H 0.08611 0.34729 0.33493 0.0
H1333 H 0.13301 0.3862 0.34999 0.0
H1334 H 0.14687 0.3592 0.3548 0.0
H1335 H 0.16369 0.24947 0.30456 0.0
H1336 H 0.14384 0.26334 0.32195 0.0
H1337 H 0.17699 0.31835 0.33067 0.0
H1338 H 0.19641 0.30488 0.3124 0.0
H1339 H 0.14508 0.32198 0.32673 0.0
H1340 H 0.17938 0.28794 0.36259 0.0
H1341 H 0.19144 0.26015 0.36911 0.0
H1342 H 0.14264 0.22713 0.3698 0.0
H1343 H 0.13027 0.25464 0.363 0.0
C1344 C 0.10706 0.33966 0.40004 0.0
C1345 C 0.09121 0.32795 0.39656 0.0
C1346 C 0.11981 0.33442 0.39066 0.0
C1347 C 0.11673 0.31723 0.37831 0.0
C1348 C 0.10104 0.30538 0.37523 0.0
C1349 C 0.08827 0.31083 0.38412 0.0
C1350 C 0.12917 0.31231 0.3668 0.0
C1351 C 0.1362 0.29663 0.37012 0.0
C1352 C 0.13244 0.32169 0.35124 0.0
C1353 C 0.12439 0.33773 0.34715 0.0
C1354 C 0.1072 0.33449 0.34147 0.0
C1355 C 0.09938 0.34984 0.33908 0.0
C1356 C 0.10869 0.36847 0.34214 0.0
C1357 C 0.12583 0.37176 0.34757 0.0
C1358 C 0.13367 0.35645 0.35012 0.0
C1359 C 0.16646 0.26463 0.30963 0.0
C1360 C 0.18172 0.27603 0.30763 0.0
C1361 C 0.15523 0.27248 0.31967 0.0
C1362 C 0.15933 0.29165 0.32801 0.0
C1363 C 0.1738 0.30345 0.32451 0.0
C1364 C 0.1849 0.2957 0.31426 0.0
C1365 C 0.14943 0.29892 0.34188 0.0
C1366 C 0.14277 0.31506 0.33898 0.0
C1367 C 0.14647 0.28983 0.35786 0.0
C1368 C 0.1539 0.27331 0.36213 0.0
C1369 C 0.17122 0.27472 0.36401 0.0
C1370 C 0.17811 0.25902 0.36777 0.0
C1371 C 0.16781 0.24187 0.36983 0.0
C1372 C 0.1506 0.24041 0.36818 0.0
C1373 C 0.14365 0.25606 0.36439 0.0
H1374 H 0.17317 0.22973 0.37273 0.0
H1375 H 0.10262 0.38035 0.34033 0.0
H1376 H 0.95975 0.02738 0.23483 0.0
H1377 H 0.97469 0.02788 0.20738 0.0
H1378 H 0.94616 0.06701 0.18633 0.0
H1379 H 0.93041 0.06546 0.21332 0.0
H1380 H 0.95028 0.0476 0.1575 0.0
H1381 H 0.99297 0.07713 0.20836 0.0
H1382 H 1.01016 0.07935 0.23877 0.0
H1383 H 0.02708 0.02845 0.21893 0.0
H1384 H 1.00987 0.02583 0.18846 0.0
H1385 H 1.00261 0.06936 0.08514 0.0
H1386 H 0.98698 0.06938 0.11227 0.0
H1387 H 1.01448 0.02988 0.13451 0.0
H1388 H 0.03076 0.031 0.10801 0.0
H1389 H 1.01094 0.0503 0.16283 0.0
H1390 H 0.9677 0.02078 0.11195 0.0
H1391 H 0.95127 0.01963 0.08126 0.0
H1392 H 0.93586 0.07149 0.10124 0.0
H1393 H 0.95235 0.07305 0.13198 0.0
C1394 C 0.95663 0.03623 0.22447 0.0
C1395 C 0.94371 0.04647 0.2268 0.0
C1396 C 0.96546 0.0367 0.20857 0.0
C1397 C 0.96227 0.04795 0.19433 0.0
C1398 C 0.94929 0.05816 0.19667 0.0
C1399 C 0.94019 0.05735 0.21239 0.0
C1400 C 0.97202 0.04876 0.17705 0.0
C1401 C 0.96359 0.04845 0.15894 0.0
C1402 C 0.98952 0.0495 0.17798 0.0
C1403 C 1.00002 0.0512 0.19619 0.0
C1404 C 1.00031 0.06638 0.21051 0.0
C1405 C 1.01006 0.06771 0.22776 0.0
C1406 C 0.01967 0.05403 0.23079 0.0
C1407 C 0.01961 0.03903 0.21656 0.0
C1408 C 1.00989 0.03763 0.1993 0.0
C1409 C 1.00504 0.06027 0.09554 0.0
C1410 C 0.0177 0.04963 0.09373 0.0
C1411 C 0.99597 0.06022 0.11132 0.0
C1412 C 0.99884 0.04918 0.1259 0.0
C1413 C 1.01154 0.03854 0.1239 0.0
C1414 C 0.02082 0.03894 0.10838 0.0
C1415 C 0.98917 0.04896 0.14327 0.0
C1416 C 0.99762 0.04941 0.1614 0.0
C1417 C 0.97172 0.04841 0.14238 0.0
C1418 C 0.96134 0.04709 0.12419 0.0
C1419 C 0.9608 0.03193 0.10978 0.0
C1420 C 0.95151 0.03123 0.09237 0.0
C1421 C 0.94256 0.0455 0.08929 0.0
C1422 C 0.94281 0.06045 0.10364 0.0
C1423 C 0.9521 0.06124 0.12106 0.0
H1424 H 0.93542 0.04497 0.07578 0.0
H1425 H 0.02719 0.05507 0.24416 0.0
H1426 H 0.32305 0.70035 0.49973 0.0
H1427 H 0.30749 0.7041 0.47063 0.0
H1428 H 0.29373 0.75452 0.49818 0.0
H1429 H 0.3087 0.75024 0.5278 0.0
H1430 H 0.26676 0.72863 0.48086 0.0
H1431 H 0.31999 0.75744 0.46437 0.0
H1432 H 0.34966 0.75805 0.46192 0.0
H1433 H 0.33692 0.70566 0.42358 0.0
H1434 H 0.30716 0.70465 0.42596 0.0
H1435 H 0.24678 0.77734 0.40828 0.0
H1436 H 0.25097 0.76047 0.43472 0.0
H1437 H 0.25872 0.71211 0.39754 0.0
H1438 H 0.25473 0.72929 0.37087 0.0
H1439 H 0.28666 0.7304 0.41856 0.0
H1440 H 0.23224 0.70566 0.43104 0.0
H1441 H 0.2029 0.70707 0.43332 0.0
H1442 H 0.21767 0.75321 0.47889 0.0
H1443 H 0.24713 0.75228 0.47672 0.0
C1444 C 0.31724 0.71266 0.49944 0.0
C1445 C 0.31686 0.72487 0.516 0.0
C1446 C 0.30827 0.71471 0.48283 0.0
C1447 C 0.29931 0.72943 0.48239 0.0
C1448 C 0.30043 0.74293 0.49841 0.0
C1449 C 0.30926 0.74071 0.51519 0.0
C1450 C 0.28796 0.72987 0.46553 0.0
C1451 C 0.27106 0.72919 0.46722 0.0
C1452 C 0.29356 0.72975 0.44774 0.0
C1453 C 0.31136 0.73094 0.44539 0.0
C1454 C 0.32352 0.74607 0.45539 0.0
C1455 C 0.34035 0.74647 0.45404 0.0
C1456 C 0.34517 0.73189 0.44261 0.0
C1457 C 0.33316 0.71696 0.4324 0.0
C1458 C 0.31631 0.71649 0.4337 0.0
C1459 C 0.24822 0.76263 0.40557 0.0
C1460 C 0.25099 0.75476 0.38778 0.0
C1461 C 0.25065 0.75293 0.42075 0.0
C1462 C 0.25555 0.73522 0.41808 0.0
C1463 C 0.25514 0.72588 0.39983 0.0
C1464 C 0.25278 0.73564 0.38463 0.0
C1465 C 0.2654 0.72967 0.43384 0.0
C1466 C 0.28215 0.72938 0.43205 0.0
C1467 C 0.25965 0.72904 0.4515 0.0
C1468 C 0.24193 0.72887 0.45373 0.0
C1469 C 0.22924 0.71609 0.44158 0.0
C1470 C 0.21259 0.71683 0.44283 0.0
C1471 C 0.20842 0.73022 0.45625 0.0
C1472 C 0.22091 0.74281 0.46854 0.0
C1473 C 0.2376 0.74213 0.46735 0.0
H1474 H 0.19552 0.73084 0.45712 0.0
H1475 H 0.35821 0.73218 0.44166 0.0
H1476 H 0.64662 0.01739 0.73559 0.0
H1477 H 0.63224 0.01977 0.70494 0.0
H1478 H 0.58915 0.02907 0.73083 0.0
H1479 H 0.60366 0.0271 0.76173 0.0
H1480 H 0.58013 1.00357 0.69797 0.0
H1481 H 0.61461 0.06562 0.71551 0.0
H1482 H 0.64088 0.08878 0.7257 0.0
H1483 H 0.6607 0.06832 0.67624 0.0
H1484 H 0.63462 0.04482 0.66588 0.0
H1485 H 0.53335 0.03018 0.62225 0.0
H1486 H 0.54974 0.02928 0.65179 0.0
H1487 H 0.59337 0.02987 0.6237 0.0
H1488 H 0.57685 0.0317 0.59381 0.0
H1489 H 0.6033 0.04969 0.65718 0.0
H1490 H 0.56988 0.98739 0.63971 0.0
H1491 H 0.54439 0.96291 0.62964 0.0
H1492 H 0.52364 0.98221 0.67884 0.0
H1493 H 0.54893 1.00696 0.6891 0.0
C1494 C 0.63403 0.01983 0.7349 0.0
C1495 C 0.62642 0.02187 0.75152 0.0
C1496 C 0.62579 0.02136 0.71717 0.0
C1497 C 0.60946 0.02478 0.71515 0.0
C1498 C 0.60169 0.02647 0.73166 0.0
C1499 C 0.61006 0.0253 0.74949 0.0
C1500 C 0.60046 0.02623 0.69594 0.0
C1501 C 0.58516 0.01388 0.68925 0.0
C1502 C 0.60703 0.03916 0.68386 0.0
C1503 C 0.62271 0.05331 0.69001 0.0
C1504 C 0.62462 0.06594 0.70688 0.0
C1505 C 0.63947 0.07915 0.71268 0.0
C1506 C 0.65246 0.07998 0.70165 0.0
C1507 C 0.65062 0.06764 0.68478 0.0
C1508 C 0.6358 0.05437 0.67893 0.0
C1509 C 0.54644 0.03009 0.62212 0.0
C1510 C 0.55347 0.03068 0.60512 0.0
C1511 C 0.55592 0.0294 0.63929 0.0
C1512 C 0.57298 0.02886 0.64047 0.0
C1513 C 0.58027 0.03 0.62359 0.0
C1514 C 0.57071 0.03091 0.60625 0.0
C1515 C 0.58278 0.02707 0.65922 0.0
C1516 C 0.59825 0.03934 0.66585 0.0
C1517 C 0.57649 0.01389 0.67125 0.0
C1518 C 0.56123 0.99913 0.66507 0.0
C1519 C 0.55982 0.9865 0.64831 0.0
C1520 C 0.54543 0.97256 0.64258 0.0
C1521 C 0.53239 0.97103 0.65357 0.0
C1522 C 0.53374 0.98343 0.67033 0.0
C1523 C 0.54811 0.9974 0.67612 0.0
H1524 H 0.52126 0.96023 0.64912 0.0
H1525 H 0.66395 0.09023 0.70616 0.0
H1526 H 0.28122 0.33919 1.00302 0.0
H1527 H 0.27679 0.32478 0.96993 0.0
H1528 H 0.31127 0.37273 0.95677 0.0
H1529 H 0.31463 0.38766 0.98954 0.0
H1530 H 0.28903 0.36236 0.92897 0.0
H1531 H 0.32145 0.32678 0.96573 0.0
H1532 H 0.32693 0.30753 0.99077 0.0
H1533 H 0.28376 0.26498 0.96759 0.0
H1534 H 0.27791 0.2841 0.94255 0.0
H1535 H 0.31649 0.31606 0.84813 0.0
H1536 H 0.31674 0.32962 0.88106 0.0
H1537 H 0.27065 0.29104 0.88348 0.0
H1538 H 0.27007 0.27789 0.8505 0.0
H1539 H 0.29707 0.29559 0.91578 0.0
H1540 H 0.2658 0.33054 0.87807 0.0
H1541 H 0.26149 0.34887 0.852 0.0
H1542 H 0.30373 0.39219 0.87642 0.0
H1543 H 0.30849 0.3739 0.90249 0.0
C1544 C 0.28754 0.34673 0.9929 0.0
C1545 C 0.29822 0.36447 0.99864 0.0
C1546 C 0.28518 0.33844 0.97405 0.0
C1547 C 0.29408 0.34735 0.96083 0.0
C1548 C 0.30429 0.36547 0.96659 0.0
C1549 C 0.30624 0.374 0.98531 0.0
C1550 C 0.29344 0.33759 0.94128 0.0
C1551 C 0.29097 0.34783 0.9262 0.0
C1552 C 0.29561 0.31845 0.93739 0.0
C1553 C 0.29915 0.30696 0.95241 0.0
C1554 C 0.31308 0.31337 0.96605 0.0
C1555 C 0.31625 0.30248 0.98023 0.0
C1556 C 0.30567 0.28507 0.9808 0.0
C1557 C 0.29192 0.27848 0.96716 0.0
C1558 C 0.28868 0.28933 0.95297 0.0
C1559 C 0.30659 0.31028 0.85583 0.0
C1560 C 0.29326 0.29597 0.84688 0.0
C1561 C 0.30669 0.31808 0.87453 0.0
C1562 C 0.29365 0.31137 0.88457 0.0
C1563 C 0.28078 0.2964 0.87592 0.0
C1564 C 0.28047 0.28894 0.85713 0.0
C1565 C 0.29301 0.32051 0.90385 0.0
C1566 C 0.29515 0.31012 0.91873 0.0
C1567 C 0.29066 0.33949 0.90755 0.0
C1568 C 0.28762 0.35074 0.89213 0.0
C1569 C 0.27426 0.34389 0.8778 0.0
C1570 C 0.27173 0.35428 0.86303 0.0
C1571 C 0.28236 0.37166 0.86252 0.0
C1572 C 0.29552 0.37871 0.87682 0.0
C1573 C 0.29814 0.36834 0.8916 0.0
H1574 H 0.28039 0.37968 0.85106 0.0
H1575 H 0.30815 0.27666 0.99179 0.0
H1576 H 0.95656 0.0121 0.3331 0.0
H1577 H 0.96915 0.01485 0.3657 0.0
H1578 H 0.96584 0.07421 0.37459 0.0
H1579 H 0.95268 0.07138 0.34199 0.0
H1580 H 0.99754 0.06717 0.38988 0.0
H1581 H 0.94047 0.04663 0.39418 0.0
H1582 H 0.91208 0.02738 0.38699 0.0
H1583 H 0.9301 0.9776 0.39996 0.0
H1584 H 0.95868 0.99651 0.40699 0.0
H1585 H 0.01859 0.07383 0.49099 0.0
H1586 H 1.00513 0.07592 0.45958 0.0
H1587 H 1.00004 0.01518 0.44446 0.0
H1588 H 1.01342 0.01299 0.47548 0.0
H1589 H 0.97146 0.02583 0.4332 0.0
H1590 H 0.02943 0.04761 0.42707 0.0
H1591 H 0.05712 0.06838 0.43581 0.0
H1592 H 0.03621 0.11768 0.42794 0.0
H1593 H 1.00836 0.09718 0.41926 0.0
C1594 C 0.95853 0.02581 0.3419 0.0
C1595 C 0.95358 0.04153 0.33469 0.0
C1596 C 0.96571 0.02734 0.36068 0.0
C1597 C 0.96852 0.04474 0.37287 0.0
C1598 C 0.96389 0.0606 0.36563 0.0
C1599 C 0.95632 0.05895 0.34692 0.0
C1600 C 0.9762 0.04613 0.39303 0.0
C1601 C 0.99167 0.05831 0.3994 0.0
C1602 C 0.9688 0.03458 0.40568 0.0
C1603 C 0.95176 0.02294 0.40085 0.0
C1604 C 0.93843 0.03152 0.39523 0.0
C1605 C 0.92229 0.02069 0.39127 0.0
C1606 C 0.9193 1.00126 0.39295 0.0
C1607 C 0.93245 0.99264 0.39861 0.0
C1608 C 0.94862 1.00341 0.4026 0.0
C1609 C 1.01467 0.06091 0.48098 0.0
C1610 C 0.01724 0.04324 0.48603 0.0
C1611 C 1.00698 0.06213 0.46289 0.0
C1612 C 1.0015 0.0457 0.44933 0.0
C1613 C 1.00402 0.02812 0.45445 0.0
C1614 C 1.01181 0.02692 0.47234 0.0
C1615 C 0.99298 0.04652 0.42996 0.0
C1616 C 0.97732 0.03473 0.4237 0.0
C1617 C 1.00013 0.05858 0.41753 0.0
C1618 C 0.01682 0.0709 0.4227 0.0
C1619 C 0.03073 0.0629 0.42732 0.0
C1620 C 0.04645 0.07461 0.43223 0.0
C1621 C 0.04841 0.09434 0.43247 0.0
C1622 C 0.03467 0.10239 0.42776 0.0
C1623 C 0.01892 0.09073 0.42281 0.0
H1624 H 0.06059 0.10339 0.43628 0.0
H1625 H 0.90678 0.99291 0.38993 0.0
H1626 H 0.29385 0.67589 0.60345 0.0
H1627 H 0.2818 0.69899 0.62239 0.0
H1628 H 0.32251 0.74388 0.61629 0.0
H1629 H 0.33493 0.72108 0.59778 0.0
H1630 H 0.31892 0.72858 0.65249 0.0
H1631 H 0.29098 0.75139 0.60158 0.0
H1632 H 0.27121 0.75157 0.57385 0.0
H1633 H 0.2304 0.73747 0.60522 0.0
H1634 H 0.24983 0.73596 0.63291 0.0
H1635 H 0.30343 0.80619 0.71575 0.0
H1636 H 0.30096 0.79225 0.68254 0.0
H1637 H 0.2782 0.73757 0.69629 0.0
H1638 H 0.28232 0.75088 0.72932 0.0
H1639 H 0.27087 0.76107 0.65404 0.0
H1640 H 0.30352 0.72044 0.69466 0.0
H1641 H 0.32329 0.72084 0.72278 0.0
H1642 H 0.35447 0.77101 0.7098 0.0
H1643 H 0.33466 0.77105 0.68182 0.0
C1644 C 0.30025 0.69068 0.60612 0.0
C1645 C 0.31559 0.69664 0.59953 0.0
C1646 C 0.29305 0.70389 0.61636 0.0
C1647 C 0.30112 0.72303 0.62012 0.0
C1648 C 0.31597 0.72915 0.61293 0.0
C1649 C 0.32325 0.71603 0.60288 0.0
C1650 C 0.2976 0.73481 0.63633 0.0
C1651 C 0.30847 0.73583 0.65269 0.0
C1652 C 0.28375 0.7438 0.63642 0.0
C1653 C 0.27196 0.74321 0.61932 0.0
C1654 C 0.2778 0.7477 0.60248 0.0
C1655 C 0.26662 0.74807 0.58675 0.0
C1656 C 0.24955 0.74429 0.58773 0.0
C1657 C 0.24361 0.74006 0.60443 0.0
C1658 C 0.25471 0.73936 0.62012 0.0
C1659 C 0.29765 0.79131 0.71142 0.0
C1660 C 0.29262 0.7795 0.72459 0.0
C1661 C 0.29594 0.78355 0.69263 0.0
C1662 C 0.28904 0.76414 0.68727 0.0
C1663 C 0.28309 0.75272 0.70035 0.0
C1664 C 0.28539 0.76028 0.7191 0.0
C1665 C 0.29219 0.75464 0.66965 0.0
C1666 C 0.28128 0.75386 0.65339 0.0
C1667 C 0.30589 0.7456 0.66938 0.0
C1668 C 0.31758 0.74589 0.68638 0.0
C1669 C 0.31455 0.73161 0.69793 0.0
C1670 C 0.32573 0.73177 0.71382 0.0
C1671 C 0.3401 0.74598 0.71811 0.0
C1672 C 0.34329 0.76008 0.70653 0.0
C1673 C 0.33206 0.76007 0.69071 0.0
H1674 H 0.34879 0.74602 0.73036 0.0
H1675 H 0.24092 0.7448 0.5756 0.0
H1676 H 0.62026 1.00608 0.86272 0.0
H1677 H 0.6086 1.00739 0.8928 0.0
H1678 H 0.6162 0.0686 0.89732 0.0
H1679 H 0.62713 0.06732 0.8669 0.0
H1680 H 0.62636 0.04391 0.93394 0.0
H1681 H 0.58356 0.06038 0.88957 0.0
H1682 H 0.56591 0.05379 0.85901 0.0
H1683 H 0.54551 0.99759 0.87028 0.0
H1684 H 0.56334 1.00376 0.90075 0.0
H1685 H 0.58232 0.05739 0.0142 0.0
H1686 H 0.59631 0.06075 0.98633 0.0
H1687 H 0.55795 0.01682 0.95429 0.0
H1688 H 0.54346 0.01401 0.98187 0.0
H1689 H 0.56515 0.03438 0.9312 0.0
H1690 H 0.60659 0.01614 0.9753 0.0
H1691 H 0.62458 0.02078 1.00557 0.0
H1692 H 0.64785 0.07649 0.99567 0.0
H1693 H 0.63001 0.07218 0.96536 0.0
C1694 C 0.61947 0.01985 0.87008 0.0
C1695 C 0.62457 0.03657 0.86205 0.0
C1696 C 0.61283 0.0206 0.88742 0.0
C1697 C 0.61149 0.03812 0.89766 0.0
C1698 C 0.61704 0.05486 0.88994 0.0
C1699 C 0.62323 0.05408 0.87236 0.0
C1700 C 0.60334 0.03883 0.91566 0.0
C1701 C 0.61297 0.04188 0.93338 0.0
C1702 C 0.58589 0.03597 0.9153 0.0
C1703 C 0.57492 0.03243 0.89726 0.0
C1704 C 0.57544 0.04656 0.88542 0.0
C1705 C 0.56539 0.04291 0.86814 0.0
C1706 C 0.55464 0.02525 0.86267 0.0
C1707 C 0.55388 0.01124 0.87451 0.0
C1708 C 0.56396 0.0148 0.89178 0.0
C1709 C 0.5769 0.04817 1.00126 0.0
C1710 C 0.56175 0.03511 1.00067 0.0
C1711 C 0.58516 0.04991 0.98511 0.0
C1712 C 0.57899 0.03816 0.96776 0.0
C1713 C 0.56358 0.02561 0.96723 0.0
C1714 C 0.55516 0.02405 0.98323 0.0
C1715 C 0.58799 0.03887 0.95011 0.0
C1716 C 0.57854 0.03615 0.9322 0.0
C1717 C 0.60565 0.04169 0.9504 0.0
C1718 C 0.6169 0.04388 0.96815 0.0
C1719 C 0.6156 0.02934 0.97957 0.0
C1720 C 0.62575 0.03193 0.99673 0.0
C1721 C 0.63732 0.04894 1.00256 0.0
C1722 C 0.63889 0.06332 0.99114 0.0
C1723 C 0.6288 0.06079 0.97395 0.0
H1724 H 0.64509 0.05097 0.0159 0.0
H1725 H 0.54686 0.02245 0.84929 0.0
H1726 H 0.31033 0.39735 0.12508 0.0
H1727 H 0.30625 0.37979 0.15187 0.0
H1728 H 0.28051 0.32974 0.11424 0.0
H1729 H 0.2851 0.34696 0.08734 0.0
H1730 H 0.26469 0.34228 0.14935 0.0
H1731 H 0.31345 0.32432 0.12816 0.0
H1732 H 0.34148 0.32951 0.11837 0.0
H1733 H 0.36136 0.36226 0.1721 0.0
H1734 H 0.33335 0.35752 0.1821 0.0
H1735 H 0.26113 0.27226 0.21068 0.0
H1736 H 0.26524 0.28993 0.18424 0.0
H1737 H 0.30245 0.33301 0.21957 0.0
H1738 H 0.29814 0.31533 0.24618 0.0
H1739 H 0.31241 0.32443 0.18547 0.0
H1740 H 0.26314 0.34114 0.20694 0.0
H1741 H 0.23487 0.33572 0.21614 0.0
H1742 H 0.21559 0.30477 0.16147 0.0
H1743 H 0.24377 0.30984 0.152 0.0
C1744 C 0.30375 0.38263 0.12251 0.0
C1745 C 0.29807 0.37358 0.10404 0.0
C1746 C 0.30147 0.37259 0.13783 0.0
C1747 C 0.2931 0.35342 0.1351 0.0
C1748 C 0.28701 0.3445 0.11672 0.0
C1749 C 0.28968 0.35436 0.10135 0.0
C1750 C 0.29091 0.3427 0.15142 0.0
C1751 C 0.27508 0.33817 0.15713 0.0
C1752 C 0.30448 0.33763 0.16181 0.0
C1753 C 0.32127 0.34082 0.15576 0.0
C1754 C 0.32376 0.33287 0.13779 0.0
C1755 C 0.33965 0.33566 0.13222 0.0
C1756 C 0.35319 0.34628 0.14458 0.0
C1757 C 0.35085 0.35409 0.16253 0.0
C1758 C 0.33497 0.35136 0.16815 0.0
C1759 C 0.27031 0.28543 0.21284 0.0
C1760 C 0.27952 0.29218 0.23059 0.0
C1761 C 0.27255 0.29563 0.19768 0.0
C1762 C 0.28403 0.31301 0.19981 0.0
C1763 C 0.29351 0.31965 0.21746 0.0
C1764 C 0.29117 0.30944 0.2327 0.0
C1765 C 0.28615 0.32401 0.18357 0.0
C1766 C 0.30199 0.32858 0.17782 0.0
C1767 C 0.27252 0.32905 0.17308 0.0
C1768 C 0.2556 0.3257 0.17883 0.0
C1769 C 0.25289 0.33302 0.19694 0.0
C1770 C 0.23688 0.33005 0.20218 0.0
C1771 C 0.22345 0.31985 0.18941 0.0
C1772 C 0.226 0.31263 0.17136 0.0
C1773 C 0.24199 0.31557 0.16604 0.0
H1774 H 0.21106 0.31759 0.19349 0.0
H1775 H 0.36549 0.34839 0.14026 0.0
H1776 H 0.22886 0.94763 0.0139 0.0
H1777 H 0.20773 0.96107 0.02922 0.0
H1778 H 0.17414 0.90636 0.01634 0.0
H1779 H 0.19496 0.89304 1.00041 0.0
H1780 H 0.15828 0.93327 0.01233 0.0
H1781 H 0.19607 0.92104 0.06054 0.0
H1782 H 0.22327 0.92129 0.07816 0.0
H1783 H 0.23237 0.98247 0.0899 0.0
H1784 H 0.20534 0.98264 0.07211 0.0
H1785 H 0.1064 0.98016 0.06449 0.0
H1786 H 0.12324 0.9558 0.05894 0.0
H1787 H 0.16684 1.00016 0.06212 0.0
H1788 H 0.15021 0.0244 0.06795 0.0
H1789 H 0.17495 0.9702 0.07603 0.0
H1790 H 0.14015 0.98064 0.01998 0.0
H1791 H 0.11408 0.97911 0.9994 0.0
H1792 H 0.10022 0.91899 1.00164 0.0
H1793 H 0.12601 0.9203 0.02255 0.0
C1794 C 0.21675 0.93868 0.01379 0.0
C1795 C 0.21351 0.91933 0.00609 0.0
C1796 C 0.20486 0.94623 0.02287 0.0
C1797 C 0.18972 0.93442 0.02458 0.0
C1798 C 0.18591 0.91556 0.01544 0.0
C1799 C 0.19771 0.90807 0.0061 0.0
C1800 C 0.17772 0.942 0.03554 0.0
C1801 C 0.16177 0.94093 0.02647 0.0
C1802 C 0.18237 0.95184 0.05401 0.0
C1803 C 0.19865 0.95184 0.06489 0.0
C1804 C 0.2039 0.93456 0.06678 0.0
C1805 C 0.2193 0.93463 0.07682 0.0
C1806 C 0.22955 0.95188 0.08514 0.0
C1807 C 0.22441 0.96911 0.08346 0.0
C1808 C 0.20903 0.96913 0.07342 0.0
C1809 C 0.11965 0.98463 0.06436 0.0
C1810 C 0.12702 1.00413 0.06638 0.0
C1811 C 0.12922 0.97075 0.06124 0.0
C1812 C 0.1462 0.97622 0.05979 0.0
C1813 C 0.15375 0.99564 0.06322 0.0
C1814 C 0.14424 1.00949 0.06653 0.0
C1815 C 0.15582 0.9623 0.05235 0.0
C1816 C 0.17132 0.96202 0.06215 0.0
C1817 C 0.15077 0.95104 0.03455 0.0
C1818 C 0.1348 0.95065 0.02309 0.0
C1819 C 0.13138 0.96719 0.01633 0.0
C1820 C 0.11669 0.96634 1.00456 0.0
C1821 C 0.10546 0.94898 0.99927 0.0
C1822 C 0.10887 0.93245 0.00581 0.0
C1823 C 0.12347 0.93325 0.01768 0.0
H1824 H 0.09413 0.94833 0.99008 0.0
H1825 H 0.24146 0.9519 0.0929 0.0
H1826 H 0.70856 0.65598 0.0143 0.0
H1827 H 0.6804 0.63986 0.0173 0.0
H1828 H 0.70012 0.59602 0.04241 0.0
H1829 H 0.72826 0.61172 0.03876 0.0
H1830 H 0.67466 0.5793 0.0212 0.0
H1831 H 0.68342 0.63381 0.06762 0.0
H1832 H 0.69021 0.6677 0.08163 0.0
H1833 H 0.64979 0.67914 0.04553 0.0
H1834 H 0.64289 0.64536 0.03108 0.0
H1835 H 0.59778 0.54118 0.05517 0.0
H1836 H 0.62644 0.55805 0.05441 0.0
H1837 H 0.60834 0.59294 0.01587 0.0
H1838 H 0.57973 0.57561 0.01615 0.0
H1839 H 0.63293 0.61417 0.04547 0.0
H1840 H 0.62551 0.55743 0.9995 0.0
H1841 H 0.61989 0.52294 0.98781 0.0
H1842 H 0.65942 0.5154 0.02774 0.0
H1843 H 0.66512 0.5498 0.03985 0.0
C1844 C 0.70693 0.6428 0.02031 0.0
C1845 C 0.72084 0.63516 0.02614 0.0
C1846 C 0.69072 0.63366 0.02227 0.0
C1847 C 0.68786 0.61676 0.03046 0.0
C1848 C 0.70175 0.60899 0.03605 0.0
C1849 C 0.71795 0.618 0.03389 0.0
C1850 C 0.67047 0.60682 0.0326 0.0
C1851 C 0.66571 0.587 0.02684 0.0
C1852 C 0.65843 0.61662 0.03974 0.0
C1853 C 0.66276 0.63706 0.0481 0.0
C1854 C 0.67609 0.64358 0.06251 0.0
C1855 C 0.67993 0.66278 0.07057 0.0
C1856 C 0.67047 0.67558 0.06443 0.0
C1857 C 0.65713 0.66922 0.05024 0.0
C1858 C 0.65324 0.65004 0.04211 0.0
C1859 C 0.59992 0.55256 0.04666 0.0
C1860 C 0.58648 0.55715 0.0358 0.0
C1861 C 0.61634 0.56215 0.04615 0.0
C1862 C 0.61971 0.57681 0.03501 0.0
C1863 C 0.60618 0.58173 0.02457 0.0
C1864 C 0.58981 0.57182 0.02473 0.0
C1865 C 0.63727 0.5868 0.03399 0.0
C1866 C 0.64201 0.60658 0.03996 0.0
C1867 C 0.64945 0.57692 0.02754 0.0
C1868 C 0.64557 0.55614 0.02076 0.0
C1869 C 0.63284 0.54837 0.00597 0.0
C1870 C 0.62968 0.52885 0.99922 0.0
C1871 C 0.63925 0.51697 0.00707 0.0
C1872 C 0.65198 0.5246 0.0217 0.0
C1873 C 0.65517 0.5441 0.02852 0.0
H1874 H 0.63683 0.50188 1.00177 0.0
H1875 H 0.67345 0.69042 0.07072 0.0
H1876 H 0.70292 0.46095 0.26066 0.0
H1877 H 0.71485 0.43204 0.25898 0.0
H1878 H 0.69895 0.42169 0.31232 0.0
H1879 H 0.68699 0.45057 0.31398 0.0
H1880 H 0.72824 0.41423 0.31317 0.0
H1881 H 0.6807 0.39289 0.26713 0.0
H1882 H 0.6612 0.39183 0.23869 0.0
H1883 H 0.70048 0.38867 0.2045 0.0
H1884 H 0.72025 0.38988 0.23275 0.0
H1885 H 0.73437 0.30754 0.2787 0.0
H1886 H 0.71968 0.3345 0.27945 0.0
H1887 H 0.76657 0.37401 0.28852 0.0
H1888 H 0.78122 0.34727 0.28787 0.0
H1889 H 0.72004 0.36504 0.25706 0.0
H1890 H 0.76703 0.40355 0.31298 0.0
H1891 H 0.7824 0.4029 0.34394 0.0
H1892 H 0.73892 0.36935 0.36016 0.0
H1893 H 0.72347 0.36951 0.32914 0.0
C1894 C 0.70188 0.45257 0.27208 0.0
C1895 C 0.69389 0.45858 0.28754 0.0
C1896 C 0.70868 0.43571 0.27103 0.0
C1897 C 0.70794 0.42402 0.28543 0.0
C1898 C 0.69995 0.43006 0.30088 0.0
C1899 C 0.69301 0.44679 0.30184 0.0
C1900 C 0.71595 0.40618 0.28487 0.0
C1901 C 0.72636 0.40367 0.30072 0.0
C1902 C 0.71368 0.39163 0.269 0.0
C1903 C 0.70201 0.39175 0.25209 0.0
C1904 C 0.68523 0.39223 0.25357 0.0
C1905 C 0.67411 0.39152 0.23748 0.0
C1906 C 0.67961 0.39025 0.21981 0.0
C1907 C 0.69624 0.3897 0.2182 0.0
C1908 C 0.70741 0.39039 0.23424 0.0
C1909 C 0.74162 0.32195 0.28088 0.0
C1910 C 0.75918 0.32489 0.2835 0.0
C1911 C 0.73313 0.33753 0.28135 0.0
C1912 C 0.74178 0.35676 0.28449 0.0
C1913 C 0.7593 0.35963 0.2866 0.0
C1914 C 0.76777 0.34411 0.2861 0.0
C1915 C 0.73273 0.3737 0.28504 0.0
C1916 C 0.72203 0.37588 0.2693 0.0
C1917 C 0.73457 0.38791 0.30099 0.0
C1918 C 0.74424 0.3863 0.31876 0.0
C1919 C 0.76087 0.39583 0.3231 0.0
C1920 C 0.76955 0.39562 0.34066 0.0
C1921 C 0.76161 0.38618 0.35405 0.0
C1922 C 0.74504 0.3767 0.3498 0.0
C1923 C 0.73637 0.37669 0.33219 0.0
H1924 H 0.76834 0.38608 0.36765 0.0
H1925 H 0.67098 0.38965 0.20737 0.0
H1926 H 0.80625 0.38895 0.48837 0.0
H1927 H 0.83487 0.40645 0.49918 0.0
H1928 H 0.82252 0.41611 0.55562 0.0
H1929 H 0.79427 0.398 0.54506 0.0
H1930 H 0.83615 0.45011 0.53627 0.0
H1931 H 0.84648 0.39149 0.55492 0.0
H1932 H 0.84695 0.35712 0.55176 0.0
H1933 H 0.87764 0.36296 0.50747 0.0
H1934 H 0.87711 0.39731 0.51013 0.0
H1935 H 0.9243 0.49556 0.5658 0.0
H1936 H 0.89593 0.47744 0.56661 0.0
H1937 H 0.89544 0.45023 0.50995 0.0
H1938 H 0.92337 0.46836 0.50906 0.0
H1939 H 0.88832 0.42516 0.53725 0.0
H1940 H 0.87484 0.48214 0.51529 0.0
H1941 H 0.87403 0.51635 0.51714 0.0
H1942 H 0.84893 0.51363 0.5662 0.0
H1943 H 0.84991 0.47944 0.56487 0.0
C1944 C 0.80985 0.39451 0.5031 0.0
C1945 C 0.79834 0.3922 0.51597 0.0
C1946 C 0.82607 0.4044 0.50925 0.0
C1947 C 0.83063 0.41241 0.52817 0.0
C1948 C 0.81916 0.40984 0.54104 0.0
C1949 C 0.80314 0.39954 0.535 0.0
C1950 C 0.84691 0.42496 0.53404 0.0
C1951 C 0.84761 0.44473 0.53693 0.0
C1952 C 0.86167 0.41773 0.53465 0.0
C1953 C 0.86157 0.39695 0.53257 0.0
C1954 C 0.85312 0.3854 0.54431 0.0
C1955 C 0.85345 0.36592 0.54265 0.0
C1956 C 0.86227 0.35784 0.52938 0.0
C1957 C 0.87078 0.36922 0.51772 0.0
C1958 C 0.87046 0.3887 0.5193 0.0
C1959 C 0.91791 0.48582 0.55355 0.0
C1960 C 0.92571 0.48314 0.53735 0.0
C1961 C 0.90186 0.4756 0.554 0.0
C1962 C 0.89379 0.46256 0.53834 0.0
C1963 C 0.90158 0.46023 0.52213 0.0
C1964 C 0.91741 0.47055 0.52161 0.0
C1965 C 0.87758 0.45032 0.53877 0.0
C1966 C 0.87688 0.43057 0.53709 0.0
C1967 C 0.86284 0.4576 0.53907 0.0
C1968 C 0.86278 0.47831 0.54022 0.0
C1969 C 0.86944 0.48889 0.52669 0.0
C1970 C 0.86888 0.50827 0.52759 0.0
C1971 C 0.86152 0.51719 0.54184 0.0
C1972 C 0.85471 0.50673 0.55522 0.0
C1973 C 0.85528 0.48736 0.55442 0.0
H1974 H 0.86104 0.53217 0.54246 0.0
H1975 H 0.86256 0.34278 0.52816 0.0
H1976 H 0.35255 0.08797 0.27066 0.0
H1977 H 0.33805 0.11474 0.27183 0.0
H1978 H 0.38443 0.15349 0.27108 0.0
H1979 H 0.39906 0.12677 0.27197 0.0
H1980 H 0.36994 0.17355 0.28904 0.0
H1981 H 0.34622 0.13471 0.2304 0.0
H1982 H 0.33245 0.10494 0.20981 0.0
H1983 H 0.2903 0.10134 0.24042 0.0
H1984 H 0.30389 0.131 0.26128 0.0
H1985 H 0.33032 0.25155 0.26999 0.0
H1986 H 0.34482 0.22472 0.26692 0.0
H1987 H 0.30084 0.18673 0.27696 0.0
H1988 H 0.28612 0.21337 0.27917 0.0
H1989 H 0.31428 0.16689 0.25333 0.0
H1990 H 0.33961 0.20716 0.31179 0.0
H1991 H 0.35364 0.23826 0.32984 0.0
H1992 H 0.39359 0.24026 0.29596 0.0
H1993 H 0.37977 0.20925 0.27776 0.0
C1994 C 0.3597 0.10221 0.27077 0.0
C1995 C 0.3771 0.10492 0.27116 0.0
C1996 C 0.35127 0.11776 0.27113 0.0
C1997 C 0.35968 0.13678 0.27086 0.0
C1998 C 0.37718 0.13938 0.27127 0.0
C1999 C 0.38569 0.1239 0.27168 0.0
C2000 C 0.35052 0.15378 0.27054 0.0
C2001 C 0.35787 0.17188 0.28092 0.0
C2002 C 0.33451 0.1525 0.26029 0.0
C2003 C 0.32613 0.13497 0.24747 0.0
C2004 C 0.33403 0.12754 0.23274 0.0
C2005 C 0.32626 0.11069 0.22104 0.0
C2006 C 0.31053 0.10123 0.22384 0.0
C2007 C 0.30249 0.10867 0.23828 0.0
C2008 C 0.3102 0.12552 0.25002 0.0
C2009 C 0.32364 0.23752 0.27154 0.0
C2010 C 0.30688 0.23508 0.27504 0.0
C2011 C 0.3321 0.22196 0.26994 0.0
C2012 C 0.32437 0.20322 0.27224 0.0
C2013 C 0.30748 0.20073 0.27523 0.0
C2014 C 0.29897 0.21622 0.27659 0.0
C2015 C 0.33372 0.18643 0.27182 0.0
C2016 C 0.32638 0.16843 0.26136 0.0
C2017 C 0.34986 0.18789 0.28166 0.0
C2018 C 0.35862 0.20595 0.29333 0.0
C2019 C 0.35142 0.21422 0.30825 0.0
C2020 C 0.35931 0.23185 0.31849 0.0
C2021 C 0.37448 0.24125 0.31403 0.0
C2022 C 0.38185 0.23297 0.29942 0.0
C2023 C 0.37401 0.21535 0.28916 0.0
H2024 H 0.38053 0.25495 0.3219 0.0
H2025 H 0.30456 0.08816 0.2148 0.0
H2026 H 0.30761 0.10502 0.54063 0.0
H2027 H 0.3352 0.09793 0.54748 0.0
H2028 H 0.35738 0.15285 0.53377 0.0
H2029 H 0.3296 0.15932 0.52557 0.0
H2030 H 0.37594 0.13155 0.52361 0.0
H2031 H 0.35619 0.14146 0.58177 0.0
H2032 H 0.33729 0.13886 0.60605 0.0
H2033 H 0.33827 0.07921 0.60393 0.0
H2034 H 0.35701 0.08139 0.57947 0.0
H2035 H 0.45389 0.11107 0.56201 0.0
H2036 H 0.42989 0.12662 0.55925 0.0
H2037 H 0.39708 0.0724 0.55832 0.0
H2038 H 0.42085 0.05687 0.56113 0.0
H2039 H 0.38685 0.10008 0.57954 0.0
H2040 H 0.40691 0.09449 0.51678 0.0
H2041 H 0.4292 0.10266 0.49709 0.0
H2042 H 0.43134 0.16238 0.51436 0.0
H2043 H 0.40917 0.15453 0.53426 0.0
C2044 C 0.31836 0.11547 0.53881 0.0
C2045 C 0.31636 0.13269 0.53246 0.0
C2046 C 0.33423 0.11154 0.54303 0.0
C2047 C 0.34865 0.12506 0.54182 0.0
C2048 C 0.34663 0.14211 0.53498 0.0
C2049 C 0.33069 0.1458 0.53022 0.0
C2050 C 0.36565 0.1212 0.54758 0.0
C2051 C 0.37828 0.1249 0.536 0.0
C2052 C 0.36927 0.11302 0.56404 0.0
C2053 C 0.35789 0.11156 0.57865 0.0
C2054 C 0.35227 0.12775 0.58638 0.0
C2055 C 0.3416 0.12636 0.60019 0.0
C2056 C 0.33654 0.10888 0.60649 0.0
C2057 C 0.34218 0.09275 0.59902 0.0
C2058 C 0.35284 0.09405 0.5852 0.0
C2059 C 0.44157 0.10245 0.56124 0.0
C2060 C 0.4394 0.08263 0.56175 0.0
C2061 C 0.42781 0.11139 0.55964 0.0
C2062 C 0.41155 0.10067 0.55823 0.0
C2063 C 0.40944 0.08105 0.55936 0.0
C2064 C 0.42312 0.07215 0.56107 0.0
C2065 C 0.39653 0.10939 0.55501 0.0
C2066 C 0.38438 0.10679 0.56721 0.0
C2067 C 0.39368 0.11934 0.53964 0.0
C2068 C 0.40644 0.12392 0.52702 0.0
C2069 C 0.41213 0.10935 0.51633 0.0
C2070 C 0.42476 0.11393 0.50517 0.0
C2071 C 0.43169 0.13303 0.50448 0.0
C2072 C 0.42596 0.14759 0.51489 0.0
C2073 C 0.41334 0.14309 0.52608 0.0
H2074 H 0.4415 0.13654 0.49589 0.0
H2075 H 0.32829 0.10783 0.61719 0.0
H2076 H 0.67737 0.572 0.27694 0.0
H2077 H 0.69132 0.60475 0.27512 0.0
H2078 H 0.71994 0.60689 0.32878 0.0
H2079 H 0.70553 0.57412 0.33073 0.0
H2080 H 0.71188 0.64013 0.32821 0.0
H2081 H 0.73555 0.60226 0.28206 0.0
H2082 H 0.73405 0.57846 0.25405 0.0
H2083 H 0.70861 0.61211 0.22054 0.0
H2084 H 0.7098 0.63601 0.24841 0.0
H2085 H 0.77694 0.71955 0.32389 0.0
H2086 H 0.75946 0.68825 0.32424 0.0
H2087 H 0.7292 0.69502 0.27445 0.0
H2088 H 0.74664 0.72692 0.27443 0.0
H2089 H 0.73646 0.65803 0.27157 0.0
H2090 H 0.71299 0.69589 0.31502 0.0
H2091 H 0.71207 0.71995 0.34199 0.0
H2092 H 0.73423 0.68694 0.37926 0.0
H2093 H 0.73552 0.66278 0.35244 0.0
C2094 C 0.68677 0.57935 0.2883 0.0
C2095 C 0.69042 0.57007 0.30384 0.0
C2096 C 0.6949 0.59826 0.28722 0.0
C2097 C 0.70721 0.60877 0.3016 0.0
C2098 C 0.71071 0.59949 0.31729 0.0
C2099 C 0.70249 0.58054 0.31839 0.0
C2100 C 0.71614 0.6293 0.30045 0.0
C2101 C 0.71746 0.6438 0.31587 0.0
C2102 C 0.723 0.63496 0.28418 0.0
C2103 C 0.72266 0.62085 0.26735 0.0
C2104 C 0.72959 0.60455 0.26873 0.0
C2105 C 0.7288 0.59104 0.25288 0.0
C2106 C 0.72121 0.59375 0.23554 0.0
C2107 C 0.71448 0.61003 0.23399 0.0
C2108 C 0.71523 0.62357 0.2498 0.0
C2109 C 0.7663 0.7147 0.31325 0.0
C2110 C 0.7631 0.72631 0.29947 0.0
C2111 C 0.75627 0.69654 0.31339 0.0
C2112 C 0.74273 0.68877 0.29942 0.0
C2113 C 0.73943 0.70034 0.28552 0.0
C2114 C 0.74931 0.71885 0.28565 0.0
C2115 C 0.73248 0.66865 0.29949 0.0
C2116 C 0.73092 0.6543 0.28391 0.0
C2117 C 0.72516 0.66315 0.31549 0.0
C2118 C 0.72452 0.67763 0.33169 0.0
C2119 C 0.71782 0.69384 0.32895 0.0
C2120 C 0.7172 0.70749 0.34421 0.0
C2121 C 0.72313 0.70501 0.36233 0.0
C2122 C 0.72967 0.68885 0.36521 0.0
C2123 C 0.73034 0.67517 0.34998 0.0
H2124 H 0.72264 0.71558 0.37413 0.0
H2125 H 0.72058 0.58326 0.22329 0.0
H2126 H 0.87103 0.5077 0.81433 0.0
H2127 H 0.85609 0.47448 0.81173 0.0
H2128 H 0.87344 0.46156 0.75828 0.0
H2129 H 0.88786 0.49498 0.76068 0.0
H2130 H 0.84403 0.44103 0.75587 0.0
H2131 H 0.89143 0.4489 0.80015 0.0
H2132 H 0.91179 0.46355 0.8277 0.0
H2133 H 0.87401 0.453 0.86394 0.0
H2134 H 0.85336 0.43849 0.83655 0.0
H2135 H 0.82252 0.33928 0.76015 0.0
H2136 H 0.83716 0.37172 0.75813 0.0
H2137 H 0.82132 0.39211 0.81054 0.0
H2138 H 0.80732 0.35975 0.81296 0.0
H2139 H 0.8519 0.4079 0.81128 0.0
H2140 H 0.80437 0.39918 0.762 0.0
H2141 H 0.78767 0.38196 0.73264 0.0
H2142 H 0.83065 0.39108 0.70355 0.0
H2143 H 0.84761 0.40827 0.73276 0.0
C2144 C 0.87138 0.49785 0.80188 0.0
C2145 C 0.88047 0.50409 0.78762 0.0
C2146 C 0.86297 0.4787 0.80044 0.0
C2147 C 0.86374 0.46505 0.78492 0.0
C2148 C 0.87248 0.47152 0.77042 0.0
C2149 C 0.88075 0.49071 0.77179 0.0
C2150 C 0.856 0.44409 0.78425 0.0
C2151 C 0.84588 0.43383 0.768 0.0
C2152 C 0.85848 0.43414 0.79975 0.0
C2153 C 0.87081 0.44279 0.81629 0.0
C2154 C 0.88744 0.44983 0.81399 0.0
C2155 C 0.89904 0.45809 0.82957 0.0
C2156 C 0.89419 0.45925 0.84755 0.0
C2157 C 0.87774 0.45211 0.84999 0.0
C2158 C 0.86608 0.44385 0.83445 0.0
C2159 C 0.82209 0.35067 0.77124 0.0
C2160 C 0.81364 0.34665 0.78675 0.0
C2161 C 0.83043 0.36939 0.77 0.0
C2162 C 0.8303 0.38481 0.78404 0.0
C2163 C 0.82178 0.38073 0.79944 0.0
C2164 C 0.81366 0.36206 0.80081 0.0
C2165 C 0.83928 0.40506 0.78328 0.0
C2166 C 0.84987 0.41516 0.79923 0.0
C2167 C 0.83764 0.41456 0.76725 0.0
C2168 C 0.82727 0.40489 0.74959 0.0
C2169 C 0.81024 0.39751 0.74934 0.0
C2170 C 0.80074 0.38775 0.73273 0.0
C2171 C 0.80811 0.38539 0.71625 0.0
C2172 C 0.82496 0.39292 0.71632 0.0
C2173 C 0.83452 0.4027 0.73289 0.0
H2174 H 0.80075 0.37775 0.70343 0.0
H2175 H 0.90319 0.46566 0.8596 0.0
H2176 H 0.07492 0.87715 0.15095 0.0
H2177 H 0.07029 0.9047 0.13578 0.0
H2178 H 0.04069 0.86667 0.08876 0.0
H2179 H 0.04613 0.83914 0.10361 0.0
H2180 H 0.05948 0.89337 0.07592 0.0
H2181 H 0.02359 0.89396 0.12426 0.0
H2182 H 0.01642 0.89392 0.15653 0.0
H2183 H 0.05144 0.94658 0.17452 0.0
H2184 H 0.05897 0.9468 0.14241 0.0
H2185 H 0.0237 0.96937 0.04138 0.0
H2186 H 0.02671 0.94028 0.05483 0.0
H2187 H 0.0676 0.97255 0.09447 0.0
H2188 H 0.06501 1.00147 0.08092 0.0
H2189 H 0.04124 0.94836 0.11014 0.0
H2190 H 0.07808 0.94689 0.06278 0.0
H2191 H 0.08503 0.94795 0.0306 0.0
H2192 H 0.04787 0.89737 0.0109 0.0
H2193 H 0.04043 0.89629 0.04301 0.0
C2194 C 0.06733 0.87478 0.13745 0.0
C2195 C 0.0607 0.85618 0.12848 0.0
C2196 C 0.0646 0.89049 0.12881 0.0
C2197 C 0.05483 0.88787 0.11124 0.0
C2198 C 0.04821 0.86915 0.10231 0.0
C2199 C 0.05121 0.85344 0.11082 0.0
C2200 C 0.05188 0.9046 0.102 0.0
C2201 C 0.0552 0.9052 0.08336 0.0
C2202 C 0.04659 0.92032 0.11169 0.0
C2203 C 0.04193 0.92031 0.13096 0.0
C2204 C 0.02983 0.90547 0.13512 0.0
C2205 C 0.02569 0.90543 0.15338 0.0
C2206 C 0.0335 0.92022 0.16758 0.0
C2207 C 0.04541 0.93512 0.16352 0.0
C2208 C 0.0496 0.93523 0.14529 0.0
C2209 C 0.03343 0.97022 0.05284 0.0
C2210 C 0.04415 0.98772 0.06003 0.0
C2211 C 0.03511 0.95362 0.06051 0.0
C2212 C 0.04733 0.95434 0.07568 0.0
C2213 C 0.05806 0.97174 0.08282 0.0
C2214 C 0.05661 0.98822 0.07495 0.0
C2215 C 0.04893 0.93701 0.08431 0.0
C2216 C 0.04534 0.93636 0.10276 0.0
C2217 C 0.05392 0.92127 0.07448 0.0
C2218 C 0.05855 0.92165 0.05524 0.0
C2219 C 0.07128 0.93609 0.05156 0.0
C2220 C 0.07533 0.93667 0.03333 0.0
C2221 C 0.06686 0.92276 0.01868 0.0
C2222 C 0.05438 0.90817 0.02226 0.0
C2223 C 0.05024 0.90757 0.04047 0.0
H2224 H 0.06995 0.92325 1.00454 0.0
H2225 H 0.03029 0.92015 0.18171 0.0
H2226 H 0.94989 0.27344 0.9165 0.0
H2227 H 0.92317 0.27712 0.90136 0.0
H2228 H 0.94134 0.27207 0.84756 0.0
H2229 H 0.9684 0.26857 0.86277 0.0
H2230 H 0.92425 0.30044 0.85064 0.0
H2231 H 0.91364 0.2351 0.86204 0.0
H2232 H 0.91298 0.20903 0.88129 0.0
H2233 H 0.88049 0.23345 0.91556 0.0
H2234 H 0.88116 0.25983 0.89667 0.0
H2235 H 0.85028 0.28024 0.78912 0.0
H2236 H 0.87592 0.27978 0.80835 0.0
H2237 H 0.85181 0.28641 0.85821 0.0
H2238 H 0.82551 0.28676 0.83858 0.0
H2239 H 0.87133 0.25923 0.85973 0.0
H2240 H 0.88038 0.32341 0.84774 0.0
H2241 H 0.8811 0.35002 0.8292 0.0
H2242 H 0.91654 0.32882 0.79709 0.0
H2243 H 0.91585 0.30189 0.81525 0.0
C2244 C 0.94828 0.273 0.90141 0.0
C2245 C 0.96146 0.27056 0.89092 0.0
C2246 C 0.93284 0.27504 0.89271 0.0
C2247 C 0.92994 0.27464 0.87318 0.0
C2248 C 0.9431 0.27237 0.86263 0.0
C2249 C 0.95861 0.27027 0.87135 0.0
C2250 C 0.91333 0.27686 0.86389 0.0
C2251 C 0.91273 0.29123 0.85246 0.0
C2252 C 0.89805 0.26543 0.86674 0.0
C2253 C 0.89759 0.24954 0.87805 0.0
C2254 C 0.90646 0.23499 0.87377 0.0
C2255 C 0.90607 0.22014 0.8846 0.0
C2256 C 0.89674 0.21961 0.89967 0.0
C2257 C 0.88774 0.2339 0.9039 0.0
C2258 C 0.88811 0.24879 0.89313 0.0
C2259 C 0.85029 0.28176 0.8042 0.0
C2260 C 0.83569 0.28362 0.81222 0.0
C2261 C 0.86514 0.28158 0.81526 0.0
C2262 C 0.8661 0.28331 0.83487 0.0
C2263 C 0.85153 0.28515 0.84311 0.0
C2264 C 0.83649 0.28547 0.83191 0.0
C2265 C 0.8823 0.28262 0.84623 0.0
C2266 C 0.88284 0.26854 0.85802 0.0
C2267 C 0.89754 0.2944 0.84382 0.0
C2268 C 0.89795 0.31052 0.83278 0.0
C2269 C 0.88822 0.32431 0.83662 0.0
C2270 C 0.88864 0.33948 0.82619 0.0
C2271 C 0.89883 0.34108 0.81195 0.0
C2272 C 0.90864 0.32754 0.80812 0.0
C2273 C 0.90825 0.31234 0.81849 0.0
H2274 H 0.89915 0.35284 0.8039 0.0
H2275 H 0.89644 0.2081 0.90804 0.0
H2276 H 0.58125 0.25472 0.6159 0.0
H2277 H 0.57941 0.22183 0.60139 0.0
H2278 H 0.53351 0.20479 0.62432 0.0
H2279 H 0.53594 0.23748 0.63979 0.0
H2280 H 0.5519 0.18157 0.63126 0.0
H2281 H 0.53576 0.20607 0.57554 0.0
H2282 H 0.53758 0.22819 0.55202 0.0
H2283 H 0.58433 0.21471 0.54 0.0
H2284 H 0.58286 0.19264 0.56361 0.0
H2285 H 0.52436 0.09178 0.57645 0.0
H2286 H 0.5285 0.12524 0.58918 0.0
H2287 H 0.57955 0.13363 0.57828 0.0
H2288 H 0.57557 0.09967 0.56528 0.0
H2289 H 0.56048 0.16085 0.56565 0.0
H2290 H 0.57261 0.13256 0.6216 0.0
H2291 H 0.56656 0.10918 0.64345 0.0
H2292 H 0.52155 0.12865 0.65294 0.0
H2293 H 0.52721 0.15197 0.63094 0.0
C2294 C 0.57059 0.244 0.61745 0.0
C2295 C 0.55873 0.2485 0.6289 0.0
C2296 C 0.56952 0.22521 0.60915 0.0
C2297 C 0.55627 0.21082 0.61168 0.0
C2298 C 0.54391 0.21561 0.62229 0.0
C2299 C 0.54523 0.23427 0.631 0.0
C2300 C 0.55589 0.19059 0.60442 0.0
C2301 C 0.55357 0.17705 0.61684 0.0
C2302 C 0.55837 0.18468 0.58572 0.0
C2303 C 0.55928 0.19786 0.57146 0.0
C2304 C 0.54648 0.20793 0.56797 0.0
C2305 C 0.54743 0.22043 0.5546 0.0
C2306 C 0.56108 0.22289 0.54456 0.0
C2307 C 0.57377 0.2128 0.54781 0.0
C2308 C 0.57288 0.20027 0.56116 0.0
C2309 C 0.53653 0.10061 0.57666 0.0
C2310 C 0.54967 0.09303 0.56977 0.0
C2311 C 0.53885 0.11975 0.58408 0.0
C2312 C 0.55435 0.13173 0.58482 0.0
C2313 C 0.56752 0.12442 0.57786 0.0
C2314 C 0.56523 0.1051 0.57048 0.0
C2315 C 0.55638 0.15204 0.59244 0.0
C2316 C 0.55898 0.16553 0.5801 0.0
C2317 C 0.55356 0.15779 0.61103 0.0
C2318 C 0.55031 0.14396 0.62452 0.0
C2319 C 0.56138 0.13179 0.62825 0.0
C2320 C 0.55802 0.11855 0.64068 0.0
C2321 C 0.54367 0.11741 0.64956 0.0
C2322 C 0.53267 0.12955 0.64606 0.0
C2323 C 0.53596 0.1428 0.63363 0.0
H2324 H 0.54109 0.10715 0.65916 0.0
H2325 H 0.5618 0.23259 0.53422 0.0
H2326 H 0.5651 0.78958 0.41861 0.0
H2327 H 0.59257 0.79464 0.40807 0.0
H2328 H 0.57045 0.7715 0.35155 0.0
H2329 H 0.54261 0.76686 0.362 0.0
H2330 H 0.59884 0.7548 0.3701 0.0
H2331 H 0.58376 0.8163 0.35981 0.0
H2332 H 0.57568 0.84654 0.37134 0.0
H2333 H 0.6194 0.86142 0.41175 0.0
H2334 H 0.62762 0.83114 0.40067 0.0
H2335 H 0.66355 0.76568 0.31609 0.0
H2336 H 0.63782 0.76569 0.3298 0.0
H2337 H 0.66341 0.80983 0.37432 0.0
H2338 H 0.68929 0.81024 0.36019 0.0
H2339 H 0.63467 0.8172 0.36608 0.0
H2340 H 0.65137 0.76284 0.38229 0.0
H2341 H 0.66247 0.73324 0.37944 0.0
H2342 H 0.62 0.70514 0.34025 0.0
H2343 H 0.60874 0.73469 0.34265 0.0
C2344 C 0.56602 0.78565 0.40388 0.0
C2345 C 0.55166 0.77765 0.39114 0.0
C2346 C 0.58176 0.78866 0.39789 0.0
C2347 C 0.58359 0.78349 0.37904 0.0
C2348 C 0.56929 0.77566 0.36617 0.0
C2349 C 0.55341 0.77303 0.37212 0.0
C2350 C 0.60049 0.78519 0.37307 0.0
C2351 C 0.60654 0.7684 0.36881 0.0
C2352 C 0.61114 0.80304 0.37307 0.0
C2353 C 0.60623 0.82135 0.3795 0.0
C2354 C 0.59158 0.82594 0.37125 0.0
C2355 C 0.58699 0.84311 0.37769 0.0
C2356 C 0.597 0.85587 0.39229 0.0
C2357 C 0.61165 0.85152 0.40045 0.0
C2358 C 0.61629 0.83436 0.39408 0.0
C2359 C 0.6638 0.77524 0.32893 0.0
C2360 C 0.67859 0.78773 0.33716 0.0
C2361 C 0.64902 0.77526 0.3368 0.0
C2362 C 0.64859 0.78746 0.3534 0.0
C2363 C 0.66331 0.8002 0.36157 0.0
C2364 C 0.67814 0.80038 0.35351 0.0
C2365 C 0.6327 0.78664 0.36194 0.0
C2366 C 0.62695 0.80353 0.36709 0.0
C2367 C 0.6227 0.76895 0.36402 0.0
C2368 C 0.62928 0.75104 0.36252 0.0
C2369 C 0.64445 0.75039 0.37295 0.0
C2370 C 0.65076 0.73362 0.37144 0.0
C2371 C 0.64196 0.71733 0.35964 0.0
C2372 C 0.6268 0.71778 0.34937 0.0
C2373 C 0.62044 0.73453 0.35082 0.0
H2374 H 0.64687 0.70435 0.35847 0.0
H2375 H 0.59342 0.86915 0.39726 0.0
H2376 H 0.05474 0.25944 0.42365 0.0
H2377 H 0.04102 0.22904 0.43266 0.0
H2378 H 0.03215 0.25944 0.48474 0.0
H2379 H 0.04634 0.28926 0.47628 0.0
H2380 H 0.05243 0.23387 0.48854 0.0
H2381 H 0.99982 0.23745 0.45609 0.0
H2382 H 0.98046 0.24063 0.42896 0.0
H2383 H 0.99038 0.18971 0.39858 0.0
H2384 H 1.00993 0.18633 0.4255 0.0
H2385 H 0.01662 0.16405 0.53595 0.0
H2386 H 0.01566 0.18984 0.51729 0.0
H2387 H 0.02794 0.15529 0.46969 0.0
H2388 H 0.02842 0.12901 0.48815 0.0
H2389 H 1.00506 0.18145 0.4614 0.0
H2390 H 0.05927 0.18022 0.49501 0.0
H2391 H 0.07967 0.1797 0.52222 0.0
H2392 H 0.06635 0.22929 0.55124 0.0
H2393 H 0.04579 0.22999 0.52427 0.0
C2394 C 0.04992 0.25937 0.43703 0.0
C2395 C 0.0523 0.27615 0.44982 0.0
C2396 C 0.0418 0.24227 0.44192 0.0
C2397 C 0.0357 0.24226 0.45931 0.0
C2398 C 0.0369 0.25934 0.4713 0.0
C2399 C 0.04532 0.27618 0.46668 0.0
C2400 C 0.0315 0.22451 0.467 0.0
C2401 C 0.0419 0.22252 0.48278 0.0
C2402 C 0.01811 0.2097 0.45896 0.0
C2403 C 1.00646 0.21174 0.44273 0.0
C2404 C 0.99799 0.22703 0.44356 0.0
C2405 C 0.98695 0.22884 0.42824 0.0
C2406 C 0.98422 0.21541 0.41203 0.0
C2407 C 0.99251 0.20011 0.41113 0.0
C2408 C 1.00356 0.19822 0.42643 0.0
C2409 C 0.01844 0.16164 0.52131 0.0
C2410 C 0.0228 0.14473 0.51349 0.0
C2411 C 0.01793 0.17636 0.51073 0.0
C2412 C 0.02192 0.17431 0.49235 0.0
C2413 C 0.02483 0.15691 0.48392 0.0
C2414 C 0.02527 0.14209 0.49449 0.0
C2415 C 0.02571 0.19124 0.48325 0.0
C2416 C 0.01546 0.19292 0.46713 0.0
C2417 C 0.03917 0.2061 0.4911 0.0
C2418 C 0.05081 0.20495 0.50775 0.0
C2419 C 0.0605 0.19081 0.50732 0.0
C2420 C 0.07216 0.19056 0.52266 0.0
C2421 C 0.07426 0.20441 0.53848 0.0
C2422 C 0.06468 0.21853 0.53901 0.0
C2423 C 0.05303 0.21886 0.52371 0.0
H2424 H 0.08334 0.20424 0.5503 0.0
H2425 H 0.97566 0.21683 0.40019 0.0
H2426 H 0.56722 0.24217 0.13466 0.0
H2427 H 0.59327 0.23748 0.15145 0.0
H2428 H 0.58007 0.26361 0.20331 0.0
H2429 H 0.55505 0.26931 0.18683 0.0
H2430 H 0.60961 0.27891 0.19833 0.0
H2431 H 0.57736 0.21495 0.19247 0.0
H2432 H 0.56135 0.18368 0.17679 0.0
H2433 H 0.60309 0.1738 0.14883 0.0
H2434 H 0.61925 0.20516 0.16402 0.0
H2435 H 0.67501 0.25523 0.25963 0.0
H2436 H 0.64721 0.25768 0.24557 0.0
H2437 H 0.65893 0.23715 0.19089 0.0
H2438 H 0.68623 0.23425 0.20474 0.0
H2439 H 0.62934 0.21801 0.19922 0.0
H2440 H 0.66 0.28312 0.20226 0.0
H2441 H 0.6755 0.31517 0.21641 0.0
H2442 H 0.63597 0.32275 0.2491 0.0
H2443 H 0.62034 0.29066 0.23532 0.0
C2444 C 0.57017 0.2472 0.14956 0.0
C2445 C 0.55941 0.25648 0.15937 0.0
C2446 C 0.58478 0.24421 0.15913 0.0
C2447 C 0.58834 0.25006 0.17856 0.0
C2448 C 0.57749 0.2591 0.18828 0.0
C2449 C 0.5633 0.26256 0.17875 0.0
C2450 C 0.60405 0.24856 0.18886 0.0
C2451 C 0.61381 0.26552 0.19879 0.0
C2452 C 0.6095 0.23111 0.18899 0.0
C2453 C 0.59947 0.21256 0.17925 0.0
C2454 C 0.58305 0.20626 0.18276 0.0
C2455 C 0.57397 0.18847 0.17401 0.0
C2456 C 0.5812 0.17678 0.16182 0.0
C2457 C 0.5975 0.18288 0.15826 0.0
C2458 C 0.60662 0.20067 0.16693 0.0
C2459 C 0.6715 0.25117 0.24465 0.0
C2460 C 0.68259 0.2446 0.23317 0.0
C2461 C 0.65581 0.25271 0.23669 0.0
C2462 C 0.65126 0.2476 0.2173 0.0
C2463 C 0.66235 0.2411 0.20591 0.0
C2464 C 0.67791 0.23956 0.21379 0.0
C2465 C 0.63477 0.24835 0.20856 0.0
C2466 C 0.62492 0.23129 0.19892 0.0
C2467 C 0.62915 0.26568 0.20869 0.0
C2468 C 0.63916 0.28433 0.21804 0.0
C2469 C 0.65477 0.29146 0.21275 0.0
C2470 C 0.66353 0.30969 0.22062 0.0
C2471 C 0.65677 0.32096 0.23372 0.0
C2472 C 0.64124 0.31399 0.23903 0.0
C2473 C 0.63244 0.29577 0.23121 0.0
H2474 H 0.66352 0.33512 0.23968 0.0
H2475 H 0.57424 0.16294 0.15523 0.0
H2476 H 0.57726 0.86712 0.96345 0.0
H2477 H 0.56562 0.88838 0.98485 0.0
H2478 H 0.52194 0.8815 0.94453 0.0
H2479 H 0.53365 0.86016 0.92286 0.0
H2480 H 0.53603 0.91756 0.9578 0.0
H2481 H 0.5176 0.86226 0.98379 0.0
H2482 H 0.51942 0.83169 0.9951 0.0
H2483 H 0.55681 0.86081 0.03998 0.0
H2484 H 0.55549 0.89153 0.02875 0.0
H2485 H 0.5266 0.99165 0.0207 0.0
H2486 H 0.51894 0.96067 1.00205 0.0
H2487 H 0.55572 0.94159 0.03808 0.0
H2488 H 0.55946 0.97167 0.05961 0.0
H2489 H 0.53473 0.91284 0.02544 0.0
H2490 H 0.56322 0.96029 0.98754 0.0
H2491 H 0.56825 0.98468 0.96642 0.0
H2492 H 0.51739 0.96865 0.94133 0.0
H2493 H 0.51219 0.94404 0.96207 0.0
C2494 C 0.56531 0.87045 0.95906 0.0
C2495 C 0.55634 0.86226 0.94162 0.0
C2496 C 0.55851 0.88211 0.97143 0.0
C2497 C 0.54264 0.88561 0.9665 0.0
C2498 C 0.53401 0.87834 0.94865 0.0
C2499 C 0.54086 0.86665 0.93618 0.0
C2500 C 0.53647 0.89935 0.97908 0.0
C2501 C 0.53519 0.91642 0.97253 0.0
C2502 C 0.53581 0.89765 0.99823 0.0
C2503 C 0.53642 0.87926 1.0054 0.0
C2504 C 0.52627 0.86216 0.99603 0.0
C2505 C 0.52722 0.84479 1.00243 0.0
C2506 C 0.53822 0.84431 0.01825 0.0
C2507 C 0.54827 0.86121 0.02774 0.0
C2508 C 0.5474 0.87862 0.02138 0.0
C2509 C 0.53131 0.98017 0.02574 0.0
C2510 C 0.54196 0.98331 0.04242 0.0
C2511 C 0.528 0.96276 0.01438 0.0
C2512 C 0.5371 0.94885 0.01824 0.0
C2513 C 0.54837 0.95205 0.03483 0.0
C2514 C 0.55065 0.96921 0.04701 0.0
C2515 C 0.53569 0.9317 1.00436 0.0
C2516 C 0.53519 0.91392 0.01068 0.0
C2517 C 0.53532 0.93276 0.98489 0.0
C2518 C 0.53727 0.95061 0.97651 0.0
C2519 C 0.55301 0.96245 0.97795 0.0
C2520 C 0.55593 0.9761 0.96585 0.0
C2521 C 0.54315 0.97802 0.95243 0.0
C2522 C 0.52726 0.96704 0.95167 0.0
C2523 C 0.52432 0.95329 0.96358 0.0
H2524 H 0.54552 0.98769 0.94228 0.0
H2525 H 0.53895 0.83084 0.02316 0.0
H2526 H 0.96507 0.76214 0.66607 0.0
H2527 H 0.93945 0.75707 0.67971 0.0
H2528 H 0.96675 0.77046 0.7353 0.0
H2529 H 0.99304 0.77443 0.72165 0.0
H2530 H 0.93686 0.73934 0.7295 0.0
H2531 H 0.95595 0.80544 0.71765 0.0
H2532 H 0.96657 0.82697 0.69565 0.0
H2533 H 0.92241 0.80532 0.65676 0.0
H2534 H 0.91165 0.78343 0.67842 0.0
H2535 H 0.88703 0.78373 0.78686 0.0
H2536 H 0.90735 0.77107 0.76938 0.0
H2537 H 0.87708 0.77154 0.71725 0.0
H2538 H 0.85763 0.78578 0.73435 0.0
H2539 H 0.90621 0.79074 0.71734 0.0
H2540 H 0.8838 0.73005 0.73202 0.0
H2541 H 0.87333 0.70579 0.75145 0.0
H2542 H 0.92197 0.71334 0.78198 0.0
H2543 H 0.93265 0.73815 0.7632 0.0
C2544 C 0.96577 0.76416 0.68123 0.0
C2545 C 0.98103 0.76915 0.69293 0.0
C2546 C 0.95111 0.76083 0.68891 0.0
C2547 C 0.95145 0.76342 0.70834 0.0
C2548 C 0.96653 0.76827 0.72019 0.0
C2549 C 0.98138 0.77102 0.71246 0.0
C2550 C 0.93604 0.76423 0.71602 0.0
C2551 C 0.93008 0.75058 0.72714 0.0
C2552 C 0.92716 0.77848 0.7119 0.0
C2553 C 0.93299 0.79282 0.69965 0.0
C2554 C 0.94847 0.80535 0.70444 0.0
C2555 C 0.95455 0.81756 0.69201 0.0
C2556 C 0.94517 0.81751 0.67482 0.0
C2557 C 0.92964 0.80536 0.67009 0.0
C2558 C 0.92353 0.79308 0.68246 0.0
C2559 C 0.88475 0.78116 0.77168 0.0
C2560 C 0.87083 0.78589 0.76197 0.0
C2561 C 0.89613 0.77353 0.76176 0.0
C2562 C 0.89349 0.77019 0.7421 0.0
C2563 C 0.87917 0.77391 0.73245 0.0
C2564 C 0.86805 0.78197 0.74228 0.0
C2565 C 0.90692 0.7661 0.73161 0.0
C2566 C 0.91263 0.77922 0.71973 0.0
C2567 C 0.91535 0.75119 0.73494 0.0
C2568 C 0.909 0.73617 0.74628 0.0
C2569 C 0.89225 0.72673 0.74302 0.0
C2570 C 0.88627 0.71284 0.75391 0.0
C2571 C 0.89697 0.70805 0.76796 0.0
C2572 C 0.91368 0.7171 0.77112 0.0
C2573 C 0.9197 0.73111 0.76036 0.0
H2574 H 0.89232 0.69731 0.7764 0.0
H2575 H 0.94994 0.8269 0.66517 0.0
H2576 H 0.1403 0.01758 0.86958 0.0
H2577 H 0.12831 0.01914 0.89915 0.0
H2578 H 0.08604 0.03725 0.87221 0.0
H2579 H 0.09886 0.03727 0.84314 0.0
H2580 H 0.08832 0.05407 0.90286 0.0
H2581 H 0.08955 0.9876 0.88973 0.0
H2582 H 0.10107 0.95855 0.88307 0.0
H2583 H 0.13442 0.97463 0.93436 0.0
H2584 H 0.12323 1.00387 0.94123 0.0
H2585 H 0.03432 0.02964 0.97108 0.0
H2586 H 0.04956 0.02968 0.94404 0.0
H2587 H 0.09527 0.03483 0.98028 0.0
H2588 H 0.07979 0.03507 0.00798 0.0
H2589 H 0.09225 1.00697 0.94681 0.0
H2590 H 0.08689 0.07278 0.95972 0.0
H2591 H 0.07138 0.09863 0.96576 0.0
H2592 H 0.04107 0.07951 0.91268 0.0
H2593 H 0.05624 0.05337 0.90644 0.0
C2594 C 0.12841 0.02186 0.86988 0.0
C2595 C 0.1207 0.02725 0.8536 0.0
C2596 C 0.1213 0.02253 0.88701 0.0
C2597 C 0.10573 0.02788 0.88857 0.0
C2598 C 0.09799 0.0331 0.87211 0.0
C2599 C 0.10536 0.03301 0.85517 0.0
C2600 C 0.09781 0.02871 0.90714 0.0
C2601 C 0.08912 0.04344 0.91213 0.0
C2602 C 0.09868 0.01536 0.92018 0.0
C2603 C 0.10571 0.99805 0.91586 0.0
C2604 C 0.09945 0.98503 0.89949 0.0
C2605 C 0.1059 0.96851 0.8957 0.0
C2606 C 0.11851 0.96478 0.90825 0.0
C2607 C 0.12469 0.97756 0.92463 0.0
C2608 C 0.1183 0.9941 0.92848 0.0
C2609 C 0.04767 0.03097 0.97357 0.0
C2610 C 0.05564 0.03248 0.9921 0.0
C2611 C 0.05646 0.031 0.95783 0.0
C2612 C 0.07378 0.03236 0.95965 0.0
C2613 C 0.08195 0.0338 0.97816 0.0
C2614 C 0.07307 0.03409 0.99415 0.0
C2615 C 0.0829 0.03213 0.94213 0.0
C2616 C 0.09165 0.01752 0.93739 0.0
C2617 C 0.08165 0.04519 0.92902 0.0
C2618 C 0.07265 0.06105 0.93267 0.0
C2619 C 0.07686 0.07402 0.94939 0.0
C2620 C 0.06813 0.08873 0.95284 0.0
C2621 C 0.05524 0.0907 0.93963 0.0
C2622 C 0.05106 0.07797 0.92291 0.0
C2623 C 0.05974 0.06322 0.91939 0.0
H2624 H 0.0485 0.1021 0.94233 0.0
H2625 H 0.12346 0.95197 0.9053 0.0
H2626 H 0.73874 0.34042 0.55662 0.0
H2627 H 0.75661 0.32874 0.57957 0.0
H2628 H 0.78783 0.38478 0.5932 0.0
H2629 H 0.77011 0.39677 0.57043 0.0
H2630 H 0.80483 0.34954 0.59131 0.0
H2631 H 0.76262 0.38046 0.61978 0.0
H2632 H 0.73346 0.38433 0.61581 0.0
H2633 H 0.71692 0.32412 0.61541 0.0
H2634 H 0.74603 0.31988 0.61903 0.0
H2635 H 0.82685 0.34589 0.694 0.0
H2636 H 0.81819 0.35858 0.66527 0.0
H2637 H 0.79383 0.30178 0.63957 0.0
H2638 H 0.80279 0.28902 0.66746 0.0
H2639 H 0.77546 0.33866 0.64696 0.0
H2640 H 0.81635 0.30678 0.61821 0.0
H2641 H 0.84497 0.30115 0.62027 0.0
H2642 H 0.86356 0.36076 0.61941 0.0
H2643 H 0.835 0.36684 0.61805 0.0
C2644 C 0.74926 0.35035 0.56465 0.0
C2645 C 0.75285 0.36959 0.56189 0.0
C2646 C 0.75968 0.34352 0.57731 0.0
C2647 C 0.77362 0.3559 0.58756 0.0
C2648 C 0.77728 0.37504 0.58496 0.0
C2649 C 0.76686 0.38192 0.57238 0.0
C2650 C 0.78217 0.34996 0.60375 0.0
C2651 C 0.79855 0.3473 0.60356 0.0
C2652 C 0.77378 0.34706 0.6195 0.0
C2653 C 0.75646 0.34988 0.61982 0.0
C2654 C 0.75275 0.36809 0.61906 0.0
C2655 C 0.73624 0.37033 0.61675 0.0
C2656 C 0.72334 0.35448 0.6154 0.0
C2657 C 0.72693 0.33639 0.61653 0.0
C2658 C 0.74343 0.33406 0.61876 0.0
C2659 C 0.82034 0.33612 0.68183 0.0
C2660 C 0.81587 0.31647 0.68264 0.0
C2661 C 0.81529 0.34334 0.66566 0.0
C2662 C 0.80557 0.33092 0.65054 0.0
C2663 C 0.8016 0.31135 0.65112 0.0
C2664 C 0.80693 0.30411 0.66694 0.0
C2665 C 0.79816 0.33826 0.63461 0.0
C2666 C 0.78187 0.34115 0.63484 0.0
C2667 C 0.80659 0.34109 0.61889 0.0
C2668 C 0.82359 0.33731 0.61831 0.0
C2669 C 0.82655 0.31872 0.61865 0.0
C2670 C 0.84276 0.31544 0.61971 0.0
C2671 C 0.85609 0.3306 0.62005 0.0
C2672 C 0.85322 0.34904 0.61921 0.0
C2673 C 0.83702 0.35242 0.61833 0.0
H2674 H 0.86865 0.32805 0.62091 0.0
H2675 H 0.71056 0.35622 0.61346 0.0
H2676 H 0.43577 0.05452 0.36184 0.0
H2677 H 0.4484 0.05237 0.39334 0.0
H2678 H 0.49016 0.03479 0.36992 0.0
H2679 H 0.47659 0.03514 0.33832 0.0
H2680 H 0.48773 0.01704 0.39552 0.0
H2681 H 0.48603 0.08487 0.39988 0.0
H2682 H 0.47231 0.11248 0.39844 0.0
H2683 H 0.44106 0.09299 0.439 0.0
H2684 H 0.45449 0.0652 0.44055 0.0
H2685 H 0.54561 0.03626 0.47822 0.0
H2686 H 0.5293 0.03792 0.44871 0.0
H2687 H 0.48626 0.04004 0.47727 0.0
H2688 H 0.50273 0.03827 0.50711 0.0
H2689 H 0.48731 0.06467 0.45089 0.0
H2690 H 0.49017 0.99898 0.44847 0.0
H2691 H 0.50363 0.97132 0.45071 0.0
H2692 H 0.53241 0.98688 0.40674 0.0
H2693 H 0.5193 0.01482 0.40443 0.0
C2694 C 0.44771 0.0503 0.36337 0.0
C2695 C 0.45509 0.04517 0.34722 0.0
C2696 C 0.45518 0.04928 0.38169 0.0
C2697 C 0.47082 0.04395 0.38486 0.0
C2698 C 0.4782 0.03897 0.36856 0.0
C2699 C 0.47042 0.0393 0.35023 0.0
C2700 C 0.4793 0.04286 0.40468 0.0
C2701 C 0.4878 0.02784 0.40737 0.0
C2702 C 0.47913 0.05614 0.42106 0.0
C2703 C 0.47115 0.07289 0.42019 0.0
C2704 C 0.47618 0.08645 0.40842 0.0
C2705 C 0.46846 0.10213 0.40759 0.0
C2706 C 0.45579 0.10445 0.41858 0.0
C2707 C 0.45085 0.09115 0.43048 0.0
C2708 C 0.45852 0.07546 0.43135 0.0
C2709 C 0.53265 0.03703 0.47843 0.0
C2710 C 0.52572 0.03705 0.49554 0.0
C2711 C 0.5232 0.03792 0.46127 0.0
C2712 C 0.50624 0.03891 0.4602 0.0
C2713 C 0.49924 0.03926 0.4773 0.0
C2714 C 0.50874 0.03818 0.49459 0.0
C2715 C 0.49615 0.03937 0.44126 0.0
C2716 C 0.4873 0.0541 0.43885 0.0
C2717 C 0.49599 0.02589 0.42509 0.0
C2718 C 0.50385 1.00908 0.42639 0.0
C2719 C 0.49946 0.99658 0.43937 0.0
C2720 C 0.50701 0.98084 0.44064 0.0
C2721 C 0.51889 0.97736 0.4289 0.0
C2722 C 0.52321 0.9896 0.41584 0.0
C2723 C 0.51572 1.00538 0.41453 0.0
H2724 H 0.52472 0.96517 0.4299 0.0
H2725 H 0.44982 0.11658 0.4179 0.0
H2726 H 0.78117 0.72815 0.07522 0.0
H2727 H 0.78304 0.74405 0.10768 0.0
H2728 H 0.78072 0.68979 0.12781 0.0
H2729 H 0.77926 0.67396 0.09591 0.0
H2730 H 0.75607 0.71098 0.13878 0.0
H2731 H 0.81389 0.71551 0.13826 0.0
H2732 H 0.84152 0.72351 0.1279 0.0
H2733 H 0.83994 0.78317 0.13738 0.0
H2734 H 0.8121 0.77549 0.14746 0.0
H2735 H 0.77397 0.73362 0.23786 0.0
H2736 H 0.77411 0.72174 0.20466 0.0
H2737 H 0.78004 0.77942 0.19177 0.0
H2738 H 0.77987 0.79129 0.22514 0.0
H2739 H 0.80259 0.75821 0.17653 0.0
H2740 H 0.74325 0.75031 0.17964 0.0
H2741 H 0.7176 0.73883 0.19311 0.0
H2742 H 0.72452 0.68106 0.18151 0.0
H2743 H 0.75031 0.69223 0.16818 0.0
C2744 C 0.78132 0.71969 0.08661 0.0
C2745 C 0.77996 0.69978 0.08295 0.0
C2746 C 0.78243 0.72877 0.10509 0.0
C2747 C 0.78195 0.71801 0.12002 0.0
C2748 C 0.78109 0.69829 0.11644 0.0
C2749 C 0.78028 0.6893 0.09814 0.0
C2750 C 0.78095 0.72683 0.13926 0.0
C2751 C 0.76624 0.7213 0.14706 0.0
C2752 C 0.79427 0.74021 0.14996 0.0
C2753 C 0.81073 0.74489 0.14324 0.0
C2754 C 0.81927 0.73032 0.13779 0.0
C2755 C 0.83502 0.7348 0.13206 0.0
C2756 C 0.84244 0.75383 0.13187 0.0
C2757 C 0.83413 0.76842 0.13744 0.0
C2758 C 0.81836 0.76401 0.14315 0.0
C2759 C 0.775 0.74365 0.22781 0.0
C2760 C 0.77663 0.76323 0.23372 0.0
C2761 C 0.77512 0.73691 0.20895 0.0
C2762 C 0.77696 0.74972 0.1958 0.0
C2763 C 0.77854 0.76935 0.20174 0.0
C2764 C 0.7783 0.77608 0.22065 0.0
C2765 C 0.77762 0.74253 0.17593 0.0
C2766 C 0.79229 0.74823 0.16808 0.0
C2767 C 0.76444 0.72887 0.16531 0.0
C2768 C 0.74875 0.72212 0.173 0.0
C2769 C 0.73934 0.73517 0.18004 0.0
C2770 C 0.72477 0.72872 0.18764 0.0
C2771 C 0.71945 0.70923 0.18819 0.0
C2772 C 0.72865 0.69615 0.18108 0.0
C2773 C 0.74323 0.70253 0.17346 0.0
H2774 H 0.70818 0.70427 0.1941 0.0
H2775 H 0.85467 0.75728 0.1275 0.0
H2776 H 0.10155 1.00938 0.75305 0.0
H2777 H 0.08696 0.0112 0.72205 0.0
H2778 H 0.13336 0.01723 0.69891 0.0
H2779 H 0.14781 0.01466 0.7294 0.0
H2780 H 0.11422 0.04507 0.68948 0.0
H2781 H 0.10897 0.97816 0.68594 0.0
H2782 H 0.10173 0.94553 0.69373 0.0
H2783 H 0.05022 0.94923 0.68956 0.0
H2784 H 0.05718 0.98207 0.68206 0.0
H2785 H 0.08537 0.02964 0.58964 0.0
H2786 H 0.09872 0.02679 0.62089 0.0
H2787 H 0.05139 0.02193 0.64201 0.0
H2788 H 0.03817 0.02559 0.61093 0.0
H2789 H 0.07054 0.99369 0.65259 0.0
H2790 H 0.07719 0.06155 0.65448 0.0
H2791 H 0.08581 0.09271 0.64384 0.0
H2792 H 0.13652 0.08568 0.64886 0.0
H2793 H 0.12816 0.05431 0.65924 0.0
C2794 C 0.10864 0.01083 0.74133 0.0
C2795 C 0.12596 0.01167 0.74397 0.0
C2796 C 0.10025 0.0119 0.72351 0.0
C2797 C 0.10895 0.0144 0.70787 0.0
C2798 C 0.12621 0.01531 0.71054 0.0
C2799 C 0.1345 0.01371 0.72812 0.0
C2800 C 0.10031 0.01659 0.68893 0.0
C2801 C 0.10476 0.03372 0.68142 0.0
C2802 C 0.0878 1.00199 0.67815 0.0
C2803 C 0.08365 0.98274 0.68382 0.0
C2804 C 0.09614 0.97219 0.68707 0.0
C2805 C 0.09207 0.9536 0.69132 0.0
C2806 C 0.07553 0.94534 0.69224 0.0
C2807 C 0.06303 0.95568 0.68894 0.0
C2808 C 0.06703 0.97429 0.68471 0.0
C2809 C 0.07781 0.02795 0.60095 0.0
C2810 C 0.06066 0.02778 0.59771 0.0
C2811 C 0.08548 0.02638 0.6189 0.0
C2812 C 0.07617 0.02414 0.63407 0.0
C2813 C 0.05896 0.02364 0.63071 0.0
C2814 C 0.05138 0.02574 0.61289 0.0
C2815 C 0.08433 0.0222 0.65329 0.0
C2816 C 0.07986 1.00509 0.66079 0.0
C2817 C 0.09699 0.03672 0.66393 0.0
C2818 C 0.10201 0.05545 0.65741 0.0
C2819 C 0.09015 0.06653 0.65309 0.0
C2820 C 0.095 0.08426 0.64716 0.0
C2821 C 0.11169 0.09115 0.64562 0.0
C2822 C 0.12358 0.08031 0.65002 0.0
C2823 C 0.1188 0.06255 0.65593 0.0
H2824 H 0.11543 0.1049 0.64106 0.0
H2825 H 0.0724 0.9309 0.69541 0.0
H2826 H 0.73511 0.30905 0.46217 0.0
H2827 H 0.74798 0.29931 0.43444 0.0
H2828 H 0.77077 0.35823 0.4336 0.0
H2829 H 0.75656 0.36805 0.45953 0.0
H2830 H 0.7646 0.34262 0.40105 0.0
H2831 H 0.79176 0.32326 0.45666 0.0
H2832 H 0.79201 0.30654 0.4845 0.0
H2833 H 0.77082 0.25324 0.44962 0.0
H2834 H 0.77039 0.26963 0.42165 0.0
H2835 H 0.80855 0.29579 0.33362 0.0
H2836 H 0.81205 0.31036 0.36665 0.0
H2837 H 0.76242 0.28133 0.37173 0.0
H2838 H 0.75851 0.26801 0.33872 0.0
H2839 H 0.794 0.28878 0.40572 0.0
H2840 H 0.75059 0.31988 0.36369 0.0
H2841 H 0.74672 0.33278 0.33377 0.0
H2842 H 0.79819 0.36014 0.34152 0.0
H2843 H 0.8024 0.34712 0.37132 0.0
C2844 C 0.7423 0.31985 0.45546 0.0
C2845 C 0.74493 0.33918 0.46289 0.0
C2846 C 0.74998 0.31432 0.44 0.0
C2847 C 0.76105 0.328 0.43271 0.0
C2848 C 0.7625 0.34742 0.4392 0.0
C2849 C 0.75422 0.353 0.45395 0.0
C2850 C 0.77138 0.32227 0.41854 0.0
C2851 C 0.77151 0.33132 0.40247 0.0
C2852 C 0.78045 0.30753 0.42031 0.0
C2853 C 0.78108 0.29767 0.43711 0.0
C2854 C 0.78718 0.30798 0.45497 0.0
C2855 C 0.78734 0.29856 0.47076 0.0
C2856 C 0.78144 0.27884 0.46883 0.0
C2857 C 0.77543 0.26849 0.4511 0.0
C2858 C 0.77528 0.27782 0.43528 0.0
C2859 C 0.79857 0.29242 0.34196 0.0
C2860 C 0.78308 0.28155 0.33376 0.0
C2861 C 0.80068 0.30042 0.36075 0.0
C2862 C 0.78747 0.29676 0.3713 0.0
C2863 C 0.77273 0.28408 0.3636 0.0
C2864 C 0.77043 0.27671 0.34479 0.0
C2865 C 0.78686 0.30897 0.38858 0.0
C2866 C 0.78819 0.30109 0.40519 0.0
C2867 C 0.77919 0.32479 0.38744 0.0
C2868 C 0.77677 0.33268 0.36967 0.0
C2869 C 0.76105 0.32866 0.35896 0.0
C2870 C 0.75884 0.33582 0.342 0.0
C2871 C 0.77222 0.34722 0.33582 0.0
C2872 C 0.78788 0.35124 0.34636 0.0
C2873 C 0.79021 0.34393 0.36323 0.0
H2874 H 0.77038 0.35336 0.32312 0.0
H2875 H 0.78154 0.27159 0.48107 0.0
H2876 H 0.45048 0.02443 0.24286 0.0
H2877 H 0.46235 0.01839 0.2137 0.0
H2878 H 0.45055 0.0704 0.19716 0.0
H2879 H 0.43716 0.07537 0.22567 0.0
H2880 H 0.4469 0.04897 0.16723 0.0
H2881 H 0.4945 0.05914 0.21654 0.0
H2882 H 0.5093 0.05163 0.24521 0.0
H2883 H 0.50508 0.99375 0.21921 0.0
H2884 H 0.49017 1.0009 0.19047 0.0
H2885 H 0.51638 0.06261 0.10907 0.0
H2886 H 0.50158 0.0644 0.13681 0.0
H2887 H 0.48114 1.00419 0.12401 0.0
H2888 H 0.49503 1.00259 0.09539 0.0
H2889 H 0.50069 0.02766 0.16739 0.0
H2890 H 0.45402 0.01558 0.1192 0.0
H2891 H 0.43917 0.02082 0.08962 0.0
H2892 H 0.44046 0.07899 0.11276 0.0
H2893 H 0.45583 0.07423 0.14232 0.0
C2894 C 0.45056 0.03476 0.23316 0.0
C2895 C 0.44305 0.05066 0.2371 0.0
C2896 C 0.4576 0.03137 0.21629 0.0
C2897 C 0.45823 0.04422 0.20291 0.0
C2898 C 0.4506 0.06011 0.20688 0.0
C2899 C 0.44299 0.06311 0.22346 0.0
C2900 C 0.46648 0.04111 0.18489 0.0
C2901 C 0.45877 0.04454 0.16758 0.0
C2902 C 0.4818 0.0346 0.18437 0.0
C2903 C 0.49115 0.03053 0.20145 0.0
C2904 C 0.49674 0.04483 0.21697 0.0
C2905 C 0.50513 0.04062 0.23323 0.0
C2906 C 0.5081 0.02222 0.23404 0.0
C2907 C 0.50277 1.008 0.21857 0.0
C2908 C 0.49438 0.01213 0.20229 0.0
C2909 C 0.50857 0.04974 0.11192 0.0
C2910 C 0.50683 0.03249 0.09961 0.0
C2911 C 0.5001 0.05079 0.12796 0.0
C2912 C 0.49 0.0345 0.13272 0.0
C2913 C 0.4886 0.01711 0.12073 0.0
C2914 C 0.49658 0.01619 0.10427 0.0
C2915 C 0.48119 0.0358 0.15023 0.0
C2916 C 0.48884 0.03214 0.16729 0.0
C2917 C 0.46573 0.04172 0.15046 0.0
C2918 C 0.45639 0.04466 0.13283 0.0
C2919 C 0.45142 0.02959 0.11787 0.0
C2920 C 0.44285 0.03245 0.10112 0.0
C2921 C 0.43895 0.05026 0.09927 0.0
C2922 C 0.44357 0.06522 0.11419 0.0
C2923 C 0.45224 0.06246 0.13093 0.0
H2924 H 0.43229 0.05244 0.08631 0.0
H2925 H 0.51455 0.01898 0.24666 0.0
H2926 H 0.76638 0.73534 0.99246 0.0
H2927 H 0.7701 0.75109 0.96468 0.0
H2928 H 0.77683 0.69834 0.93396 0.0
H2929 H 0.77433 0.68299 0.96224 0.0
H2930 H 0.79682 0.72536 0.92414 0.0
H2931 H 0.73769 0.71899 0.93139 0.0
H2932 H 0.7145 0.72481 0.94888 0.0
H2933 H 0.73257 0.78533 0.95409 0.0
H2934 H 0.75592 0.77985 0.9368 0.0
H2935 H 0.77795 0.74783 0.83058 0.0
H2936 H 0.77767 0.7335 0.85972 0.0
H2937 H 0.77812 0.78856 0.89109 0.0
H2938 H 0.77852 0.8029 0.86214 0.0
H2939 H 0.75539 0.76174 0.9012 0.0
H2940 H 0.81116 0.76907 0.88935 0.0
H2941 H 0.8367 0.76573 0.8756 0.0
H2942 H 0.82897 0.70679 0.88347 0.0
H2943 H 0.80245 0.70904 0.89505 0.0
C2944 C 0.76871 0.72713 0.97978 0.0
C2945 C 0.76993 0.70787 0.97952 0.0
C2946 C 0.77068 0.73611 0.96378 0.0
C2947 C 0.77322 0.72585 0.94683 0.0
C2948 C 0.77476 0.70666 0.94671 0.0
C2949 C 0.7733 0.69784 0.9629 0.0
C2950 C 0.77435 0.73496 0.92926 0.0
C2951 C 0.78753 0.7329 0.91881 0.0
C2952 C 0.76278 0.74581 0.92282 0.0
C2953 C 0.74859 0.749 0.93294 0.0
C2954 C 0.73673 0.73352 0.93632 0.0
C2955 C 0.72356 0.73677 0.9462 0.0
C2956 C 0.72208 0.75543 0.95262 0.0
C2957 C 0.73373 0.77089 0.94912 0.0
C2958 C 0.74691 0.76772 0.93927 0.0
C2959 C 0.77786 0.75684 0.84369 0.0
C2960 C 0.77815 0.77651 0.84404 0.0
C2961 C 0.77786 0.74866 0.86036 0.0
C2962 C 0.77801 0.75995 0.8777 0.0
C2963 C 0.77802 0.77951 0.87795 0.0
C2964 C 0.7782 0.78771 0.86137 0.0
C2965 C 0.77751 0.75143 0.89554 0.0
C2966 C 0.76453 0.75382 0.90617 0.0
C2967 C 0.78942 0.74104 0.90215 0.0
C2968 C 0.80445 0.73917 0.89282 0.0
C2969 C 0.81444 0.75514 0.88737 0.0
C2970 C 0.82913 0.75341 0.87983 0.0
C2971 C 0.83432 0.73594 0.87825 0.0
C2972 C 0.82475 0.72016 0.88407 0.0
C2973 C 0.80975 0.7216 0.8909 0.0
H2974 H 0.84586 0.7347 0.87275 0.0
H2975 H 0.7119 0.7579 0.96028 0.0
H2976 H 0.83407 0.11751 0.03744 0.0
H2977 H 0.86133 0.10896 0.03791 0.0
H2978 H 0.88478 0.16867 0.04685 0.0
H2979 H 0.85767 0.17738 0.04568 0.0
H2980 H 0.89717 0.1495 0.02088 0.0
H2981 H 0.88866 0.1434 0.08325 0.0
H2982 H 0.87381 0.13459 0.10979 0.0
H2983 H 0.86782 0.07519 0.08806 0.0
H2984 H 0.88248 0.08362 0.06128 0.0
H2985 H 0.96811 0.09951 0.03221 0.0
H2986 H 0.95 0.12247 0.03809 0.0
H2987 H 0.90704 0.07874 0.01663 0.0
H2988 H 0.92468 0.05535 0.01181 0.0
H2989 H 0.91153 0.09922 0.05699 0.0
H2990 H 0.91376 0.10793 0.99073 0.0
H2991 H 0.92697 0.11818 0.96359 0.0
H2992 H 0.94444 0.17458 0.99399 0.0
H2993 H 0.93142 0.1646 0.02136 0.0
C2994 C 0.84502 0.12877 0.03915 0.0
C2995 C 0.84382 0.14803 0.04151 0.0
C2996 C 0.86054 0.12392 0.03983 0.0
C2997 C 0.87492 0.13829 0.04311 0.0
C2998 C 0.87374 0.15749 0.04467 0.0
C2999 C 0.85825 0.16236 0.04375 0.0
C3000 C 0.89111 0.13298 0.04307 0.0
C3001 C 0.90067 0.13894 0.02918 0.0
C3002 C 0.89557 0.11943 0.05411 0.0
C3003 C 0.8867 0.11418 0.07021 0.0
C3004 C 0.88411 0.12846 0.08406 0.0
C3005 C 0.87574 0.12353 0.09917 0.0
C3006 C 0.86988 0.10434 0.10061 0.0
C3007 C 0.8724 0.09005 0.08695 0.0
C3008 C 0.88079 0.0949 0.07183 0.0
C3009 C 0.95481 0.09488 0.02848 0.0
C3010 C 0.9477 0.07562 0.02182 0.0
C3011 C 0.94465 0.10807 0.03154 0.0
C3012 C 0.92748 0.10219 0.0275 0.0
C3013 C 0.92041 0.08336 0.01962 0.0
C3014 C 0.93047 0.07011 0.01678 0.0
C3015 C 0.9166 0.11471 0.03386 0.0
C3016 C 0.90834 0.1103 0.04923 0.0
C3017 C 0.9134 0.1298 0.02429 0.0
C3018 C 0.92202 0.13538 0.00825 0.0
C3019 C 0.92073 0.1224 0.99177 0.0
C3020 C 0.92806 0.1282 0.97629 0.0
C3021 C 0.93665 0.14698 0.97711 0.0
C3022 C 0.93786 0.16002 0.99339 0.0
C3023 C 0.93049 0.1543 0.00888 0.0
H3024 H 0.94228 0.15146 0.96509 0.0
H3025 H 0.86339 0.10055 0.11231 0.0
H3026 H 0.35189 0.45936 0.05406 0.0
H3027 H 0.3808 0.47475 0.05236 0.0
H3028 H 0.39612 0.42106 0.05572 0.0
H3029 H 0.36744 0.40567 0.05722 0.0
H3030 H 0.41805 0.44845 0.07784 0.0
H3031 H 0.39436 0.43905 0.01457 0.0
H3032 H 0.37418 0.44021 0.98745 0.0
H3033 H 0.38575 0.5015 0.99742 0.0
H3034 H 0.40588 0.5007 0.0248 0.0
H3035 H 0.50008 0.47745 0.05117 0.0
H3036 H 0.47097 0.46091 0.05014 0.0
H3037 H 0.45546 0.51508 0.05439 0.0
H3038 H 0.48451 0.53156 0.05591 0.0
H3039 H 0.4338 0.48656 0.02745 0.0
H3040 H 0.45839 0.49359 0.09214 0.0
H3041 H 0.47908 0.48956 0.11761 0.0
H3042 H 0.46616 0.42867 0.10228 0.0
H3043 H 0.44555 0.43237 0.07653 0.0
C3044 C 0.3614 0.45081 0.05446 0.0
C3045 C 0.35711 0.43117 0.05578 0.0
C3046 C 0.37801 0.45964 0.05339 0.0
C3047 C 0.39092 0.44917 0.05381 0.0
C3048 C 0.38663 0.42963 0.05538 0.0
C3049 C 0.37006 0.42078 0.05617 0.0
C3050 C 0.40882 0.45846 0.05277 0.0
C3051 C 0.42142 0.45659 0.06667 0.0
C3052 C 0.41358 0.46918 0.03828 0.0
C3053 C 0.40148 0.46982 0.02189 0.0
C3054 C 0.39249 0.45278 0.0111 0.0
C3055 C 0.38109 0.45337 0.99565 0.0
C3056 C 0.37864 0.47092 0.99075 0.0
C3057 C 0.38764 0.48792 1.00126 0.0
C3058 C 0.39906 0.48741 0.01674 0.0
C3059 C 0.49044 0.4858 0.0518 0.0
C3060 C 0.49469 0.50586 0.0537 0.0
C3061 C 0.47374 0.47634 0.05125 0.0
C3062 C 0.46077 0.48664 0.05226 0.0
C3063 C 0.46503 0.50666 0.05356 0.0
C3064 C 0.48172 0.51612 0.0545 0.0
C3065 C 0.44293 0.47675 0.05268 0.0
C3066 C 0.43037 0.47846 0.03864 0.0
C3067 C 0.43824 0.46551 0.0668 0.0
C3068 C 0.45057 0.46327 0.0823 0.0
C3069 C 0.46006 0.47935 0.09411 0.0
C3070 C 0.47176 0.47713 0.1086 0.0
C3071 C 0.47397 0.45887 0.11153 0.0
C3072 C 0.46446 0.4428 0.09998 0.0
C3073 C 0.45276 0.44495 0.08544 0.0
H3074 H 0.48302 0.45718 0.12277 0.0
H3075 H 0.36981 0.47135 0.97878 0.0
H3076 H 0.36237 0.59059 0.7906 0.0
H3077 H 0.34969 0.61911 0.79219 0.0
H3078 H 0.38044 0.6413 0.75215 0.0
H3079 H 0.39272 0.61245 0.7501 0.0
H3080 H 0.37722 0.67107 0.78372 0.0
H3081 H 0.34111 0.62219 0.73717 0.0
H3082 H 0.32429 0.58973 0.72769 0.0
H3083 H 0.29448 0.59876 0.77203 0.0
H3084 H 0.31126 0.63121 0.7819 0.0
H3085 H 0.33541 0.7478 0.7657 0.0
H3086 H 0.34982 0.7209 0.7647 0.0
H3087 H 0.30637 0.68532 0.77939 0.0
H3088 H 0.29153 0.71171 0.77824 0.0
H3089 H 0.31715 0.66211 0.76173 0.0
H3090 H 0.34982 0.7089 0.80946 0.0
H3091 H 0.36592 0.74075 0.82327 0.0
H3092 H 0.40193 0.73551 0.78507 0.0
H3093 H 0.38572 0.70388 0.77057 0.0
C3094 C 0.36651 0.60151 0.78213 0.0
C3095 C 0.37866 0.59884 0.77014 0.0
C3096 C 0.35919 0.61802 0.78305 0.0
C3097 C 0.3639 0.6329 0.77233 0.0
C3098 C 0.37639 0.63044 0.76073 0.0
C3099 C 0.38343 0.61372 0.75948 0.0
C3100 C 0.35523 0.65023 0.77241 0.0
C3101 C 0.36411 0.66909 0.77871 0.0
C3102 C 0.33793 0.64821 0.7667 0.0
C3103 C 0.32746 0.62905 0.76031 0.0
C3104 C 0.33098 0.61723 0.7449 0.0
C3105 C 0.32146 0.59884 0.73947 0.0
C3106 C 0.30834 0.59218 0.74926 0.0
C3107 C 0.30464 0.60394 0.76445 0.0
C3108 C 0.31413 0.62234 0.76995 0.0
C3109 C 0.3289 0.73423 0.76872 0.0
C3110 C 0.31216 0.73227 0.77216 0.0
C3111 C 0.33733 0.71862 0.76843 0.0
C3112 C 0.32979 0.70046 0.77263 0.0
C3113 C 0.31299 0.69867 0.77605 0.0
C3114 C 0.30436 0.71404 0.77553 0.0
C3115 C 0.33901 0.68341 0.77312 0.0
C3116 C 0.33024 0.66445 0.7669 0.0
C3117 C 0.3563 0.68537 0.77968 0.0
C3118 C 0.36644 0.70407 0.78878 0.0
C3119 C 0.36113 0.71456 0.80394 0.0
C3120 C 0.37025 0.73261 0.81184 0.0
C3121 C 0.38493 0.74016 0.80504 0.0
C3122 C 0.39053 0.72966 0.7903 0.0
C3123 C 0.38135 0.71168 0.78219 0.0
H3124 H 0.39199 0.75412 0.81121 0.0
H3125 H 0.30101 0.57791 0.74507 0.0
H3126 H 0.25449 0.69799 0.547 0.0
H3127 H 0.22564 0.68267 0.54953 0.0
H3128 H 0.24283 0.63279 0.56491 0.0
H3129 H 0.27118 0.64771 0.56197 0.0
H3130 H 0.21984 0.62364 0.5356 0.0
H3131 H 0.22886 0.65941 0.59582 0.0
H3132 H 0.23547 0.68645 0.62149 0.0
H3133 H 0.19503 0.70973 0.59814 0.0
H3134 H 0.1884 0.68305 0.572 0.0
H3135 H 0.15043 0.57518 0.57477 0.0
H3136 H 0.17693 0.59039 0.5659 0.0
H3137 H 0.15328 0.6325 0.54248 0.0
H3138 H 0.1267 0.61728 0.55124 0.0
H3139 H 0.17852 0.64639 0.5732 0.0
H3140 H 0.16959 0.60323 0.51397 0.0
H3141 H 0.16376 0.57145 0.49475 0.0
H3142 H 0.20621 0.55707 0.52479 0.0
H3143 H 0.21219 0.58866 0.54432 0.0
C3144 C 0.25193 0.68386 0.55108 0.0
C3145 C 0.26464 0.67363 0.55377 0.0
C3146 C 0.23564 0.67521 0.55261 0.0
C3147 C 0.23227 0.65655 0.55711 0.0
C3148 C 0.24525 0.64706 0.56111 0.0
C3149 C 0.26133 0.65552 0.55937 0.0
C3150 C 0.21522 0.64598 0.55596 0.0
C3151 C 0.21078 0.62858 0.54385 0.0
C3152 C 0.20361 0.65253 0.5668 0.0
C3153 C 0.20828 0.66935 0.58174 0.0
C3154 C 0.22157 0.67048 0.5959 0.0
C3155 C 0.22527 0.68569 0.61062 0.0
C3156 C 0.21563 0.69973 0.61149 0.0
C3157 C 0.20245 0.69879 0.59747 0.0
C3158 C 0.19875 0.68366 0.58266 0.0
C3159 C 0.15081 0.5873 0.56718 0.0
C3160 C 0.13676 0.59539 0.56397 0.0
C3161 C 0.16588 0.59589 0.56207 0.0
C3162 C 0.16688 0.6125 0.55362 0.0
C3163 C 0.15258 0.61966 0.54903 0.0
C3164 C 0.13754 0.6111 0.55415 0.0
C3165 C 0.18314 0.6242 0.55275 0.0
C3166 C 0.18748 0.64176 0.5646 0.0
C3167 C 0.19494 0.61732 0.54245 0.0
C3168 C 0.19128 0.5983 0.53067 0.0
C3169 C 0.17761 0.59324 0.51657 0.0
C3170 C 0.1743 0.57527 0.50559 0.0
C3171 C 0.18459 0.56224 0.50856 0.0
C3172 C 0.19824 0.56717 0.52249 0.0
C3173 C 0.20161 0.58512 0.53349 0.0
H3174 H 0.182 0.54834 0.50005 0.0
H3175 H 0.21835 0.71133 0.62305 0.0
H3176 H 0.68497 0.95877 0.76809 0.0
H3177 H 0.69752 0.93054 0.77074 0.0
H3178 H 0.71113 0.94904 0.82998 0.0
H3179 H 0.69776 0.97677 0.82755 0.0
H3180 H 0.73834 0.93712 0.80467 0.0
H3181 H 0.68612 0.91567 0.8259 0.0
H3182 H 0.65571 0.90793 0.82527 0.0
H3183 H 0.65163 0.86915 0.77425 0.0
H3184 H 0.68202 0.87693 0.7744 0.0
H3185 H 0.77262 0.85506 0.82185 0.0
H3186 H 0.75911 0.88259 0.82384 0.0
H3187 H 0.72021 0.85203 0.78073 0.0
H3188 H 0.73303 0.82388 0.78009 0.0
H3189 H 0.70569 0.87133 0.79993 0.0
H3190 H 0.75884 0.89467 0.77815 0.0
H3191 H 0.78942 0.90255 0.78012 0.0
H3192 H 0.79204 0.93793 0.83301 0.0
H3193 H 0.76152 0.93015 0.8314 0.0
C3194 C 0.69054 0.95682 0.78174 0.0
C3195 C 0.69022 0.97024 0.79759 0.0
C3196 C 0.69773 0.94054 0.78325 0.0
C3197 C 0.7054 0.93734 0.80058 0.0
C3198 C 0.70532 0.95089 0.81641 0.0
C3199 C 0.6976 0.96683 0.81501 0.0
C3200 C 0.71373 0.92019 0.80196 0.0
C3201 C 0.73117 0.92274 0.80377 0.0
C3202 C 0.70464 0.9012 0.80061 0.0
C3203 C 0.68633 0.89717 0.79997 0.0
C3204 C 0.67872 0.90579 0.81435 0.0
C3205 C 0.66149 0.90131 0.81413 0.0
C3206 C 0.65173 0.88813 0.79967 0.0
C3207 C 0.65919 0.87941 0.78539 0.0
C3208 C 0.67642 0.88387 0.78553 0.0
C3209 C 0.76109 0.8541 0.81287 0.0
C3210 C 0.75402 0.83696 0.80082 0.0
C3211 C 0.7534 0.8702 0.81375 0.0
C3212 C 0.73866 0.87028 0.80195 0.0
C3213 C 0.7315 0.85295 0.79009 0.0
C3214 C 0.73891 0.83663 0.78968 0.0
C3215 C 0.73052 0.88795 0.80207 0.0
C3216 C 0.71302 0.88558 0.80059 0.0
C3217 C 0.7396 0.90715 0.80374 0.0
C3218 C 0.75793 0.91168 0.80473 0.0
C3219 C 0.76596 0.90404 0.79023 0.0
C3220 C 0.78328 0.90851 0.79129 0.0
C3221 C 0.79267 0.92069 0.80671 0.0
C3222 C 0.78476 0.92847 0.82109 0.0
C3223 C 0.76746 0.92406 0.82011 0.0
H3224 H 0.80606 0.92412 0.80749 0.0
H3225 H 0.6384 0.88462 0.79958 0.0
H3226 H 0.75092 0.90316 0.54143 0.0
H3227 H 0.72316 0.91057 0.53605 0.0
H3228 H 0.74292 0.96898 0.56093 0.0
H3229 H 0.77032 0.96128 0.56731 0.0
H3230 H 0.71623 0.95911 0.57381 0.0
H3231 H 0.72979 0.94914 0.50922 0.0
H3232 H 0.73638 0.93034 0.4811 0.0
H3233 H 0.69188 0.8885 0.48046 0.0
H3234 H 0.68514 0.90693 0.50869 0.0
H3235 H 0.65856 0.0113 0.54201 0.0
H3236 H 0.68249 0.99587 0.54377 0.0
H3237 H 0.64999 0.94057 0.53236 0.0
H3238 H 0.62576 0.95598 0.53034 0.0
H3239 H 0.67969 0.94367 0.51305 0.0
H3240 H 0.66453 0.95276 0.57437 0.0
H3241 H 0.65581 0.97053 0.6017 0.0
H3242 H 0.70153 0.0117 0.60854 0.0
H3243 H 0.71042 0.99432 0.58103 0.0
C3244 C 0.74935 0.91763 0.5456 0.0
C3245 C 0.76292 0.93164 0.55478 0.0
C3246 C 0.73341 0.92192 0.5424 0.0
C3247 C 0.73073 0.94049 0.5478 0.0
C3248 C 0.74443 0.95451 0.55664 0.0
C3249 C 0.76021 0.95012 0.56022 0.0
C3250 C 0.71375 0.94546 0.54514 0.0
C3251 C 0.70845 0.95587 0.56038 0.0
C3252 C 0.70284 0.94044 0.528 0.0
C3253 C 0.70709 0.92929 0.5112 0.0
C3254 C 0.7215 0.93585 0.50318 0.0
C3255 C 0.72524 0.92527 0.4872 0.0
C3256 C 0.71459 0.90821 0.47904 0.0
C3257 C 0.70015 0.90169 0.48682 0.0
C3258 C 0.69637 0.91219 0.5028 0.0
C3259 C 0.65641 0.99585 0.53947 0.0
C3260 C 0.64013 0.98494 0.53601 0.0
C3261 C 0.67016 0.98703 0.54063 0.0
C3262 C 0.6681 0.96705 0.53832 0.0
C3263 C 0.65192 0.95601 0.53418 0.0
C3264 C 0.63808 0.96486 0.53317 0.0
C3265 C 0.68292 0.95805 0.54137 0.0
C3266 C 0.68762 0.9468 0.52639 0.0
C3267 C 0.6932 0.962 0.55878 0.0
C3268 C 0.6881 0.97231 0.57556 0.0
C3269 C 0.67269 0.96567 0.58163 0.0
C3270 C 0.66772 0.97566 0.59716 0.0
C3271 C 0.6781 0.99225 0.60683 0.0
C3272 C 0.6935 0.99885 0.60102 0.0
C3273 C 0.69853 0.98892 0.58548 0.0
H3274 H 0.67422 0.99998 0.61885 0.0
H3275 H 0.7175 0.90006 0.46665 0.0
H3276 H 0.39234 0.48875 0.80762 0.0
H3277 H 0.3769 0.45679 0.80916 0.0
H3278 H 0.35518 0.45287 0.75174 0.0
H3279 H 0.36956 0.48576 0.75095 0.0
H3280 H 0.33363 0.43356 0.76416 0.0
H3281 H 0.39073 0.4277 0.7742 0.0
H3282 H 0.41975 0.43476 0.78934 0.0
H3283 H 0.40316 0.42211 0.8416 0.0
H3284 H 0.37404 0.41517 0.82684 0.0
H3285 H 0.30077 0.33348 0.75417 0.0
H3286 H 0.31864 0.36426 0.75247 0.0
H3287 H 0.33353 0.37134 0.81209 0.0
H3288 H 0.31629 0.33985 0.81348 0.0
H3289 H 0.35888 0.38833 0.79842 0.0
H3290 H 0.30111 0.39425 0.78608 0.0
H3291 H 0.2729 0.38512 0.76865 0.0
H3292 H 0.29268 0.39594 0.71746 0.0
H3293 H 0.321 0.40495 0.73457 0.0
C3294 C 0.38413 0.48121 0.79531 0.0
C3295 C 0.38229 0.49032 0.77919 0.0
C3296 C 0.3754 0.46243 0.79606 0.0
C3297 C 0.36494 0.45123 0.78038 0.0
C3298 C 0.36298 0.46051 0.76427 0.0
C3299 C 0.3713 0.47962 0.76376 0.0
C3300 C 0.35581 0.43038 0.78083 0.0
C3301 C 0.3395 0.42379 0.77146 0.0
C3302 C 0.36271 0.41685 0.79052 0.0
C3303 C 0.38019 0.42112 0.79945 0.0
C3304 C 0.39327 0.42655 0.78895 0.0
C3305 C 0.40974 0.43051 0.79746 0.0
C3306 C 0.41329 0.42894 0.81643 0.0
C3307 C 0.40039 0.42336 0.82692 0.0
C3308 C 0.3839 0.41939 0.81849 0.0
C3309 C 0.30816 0.34133 0.76689 0.0
C3310 C 0.30716 0.33367 0.78388 0.0
C3311 C 0.31827 0.35937 0.766 0.0
C3312 C 0.32735 0.37114 0.78225 0.0
C3313 C 0.3268 0.36312 0.79919 0.0
C3314 C 0.31691 0.34484 0.79999 0.0
C3315 C 0.33689 0.39171 0.78167 0.0
C3316 C 0.35318 0.39821 0.79107 0.0
C3317 C 0.33017 0.40506 0.77169 0.0
C3318 C 0.31314 0.40015 0.76157 0.0
C3319 C 0.29941 0.39466 0.77111 0.0
C3320 C 0.28342 0.38949 0.76128 0.0
C3321 C 0.281 0.38992 0.74196 0.0
C3322 C 0.29457 0.3956 0.73243 0.0
C3323 C 0.31058 0.40077 0.74218 0.0
H3324 H 0.26862 0.38587 0.73437 0.0
H3325 H 0.42604 0.43202 0.82299 0.0
H3326 H 0.21222 0.57235 0.31366 0.0
H3327 H 0.22696 0.60491 0.31128 0.0
H3328 H 0.18058 0.62429 0.30888 0.0
H3329 H 0.16599 0.59227 0.31197 0.0
H3330 H 0.19979 0.63678 0.28074 0.0
H3331 H 0.20495 0.63857 0.34636 0.0
H3332 H 0.21177 0.6298 0.37765 0.0
H3333 H 0.26332 0.63767 0.36981 0.0
H3334 H 0.25676 0.64618 0.33828 0.0
H3335 H 0.23125 0.73876 0.29228 0.0
H3336 H 0.21681 0.70658 0.2961 0.0
H3337 H 0.26382 0.68868 0.30277 0.0
H3338 H 0.27818 0.72078 0.29868 0.0
H3339 H 0.24404 0.67549 0.32881 0.0
H3340 H 0.2369 0.67526 0.26183 0.0
H3341 H 0.22812 0.68662 0.23235 0.0
H3342 H 0.17775 0.67812 0.24483 0.0
H3343 H 0.18628 0.66698 0.27454 0.0
C3344 C 0.20517 0.58357 0.31286 0.0
C3345 C 0.18781 0.57942 0.31323 0.0
C3346 C 0.21364 0.60229 0.31147 0.0
C3347 C 0.20499 0.61736 0.30985 0.0
C3348 C 0.18769 0.61316 0.31008 0.0
C3349 C 0.17933 0.59469 0.31199 0.0
C3350 C 0.21377 0.63733 0.30759 0.0
C3351 C 0.20938 0.64524 0.29136 0.0
C3352 C 0.22637 0.6487 0.32129 0.0
C3353 C 0.23031 0.64265 0.3398 0.0
C3354 C 0.2177 0.63808 0.35114 0.0
C3355 C 0.22153 0.63326 0.36897 0.0
C3356 C 0.23796 0.63308 0.37568 0.0
C3357 C 0.25059 0.63773 0.36456 0.0
C3358 C 0.24682 0.64254 0.3467 0.0
C3359 C 0.2385 0.72796 0.29462 0.0
C3360 C 0.25591 0.73244 0.29526 0.0
C3361 C 0.23021 0.70945 0.29671 0.0
C3362 C 0.23908 0.69482 0.29964 0.0
C3363 C 0.25653 0.69947 0.30056 0.0
C3364 C 0.26479 0.7179 0.29821 0.0
C3365 C 0.23028 0.67482 0.30181 0.0
C3366 C 0.2346 0.66694 0.31808 0.0
C3367 C 0.21738 0.66363 0.2883 0.0
C3368 C 0.21227 0.67048 0.27052 0.0
C3369 C 0.22398 0.67599 0.25838 0.0
C3370 C 0.21904 0.68236 0.24161 0.0
C3371 C 0.2024 0.68315 0.23674 0.0
C3372 C 0.19065 0.67754 0.24863 0.0
C3373 C 0.19553 0.67119 0.26543 0.0
H3374 H 0.19859 0.68805 0.22374 0.0
H3375 H 0.24091 0.62943 0.38952 0.0
H3376 H 0.54785 0.72489 0.45958 0.0
H3377 H 0.55054 0.69711 0.47534 0.0
H3378 H 0.49765 0.68479 0.47693 0.0
H3379 H 0.49478 0.71219 0.46042 0.0
H3380 H 0.52056 0.6868 0.51328 0.0
H3381 H 0.50772 0.65693 0.44958 0.0
H3382 H 0.5101 0.65095 0.41582 0.0
H3383 H 0.55945 0.64096 0.42834 0.0
H3384 H 0.55752 0.64735 0.46223 0.0
H3385 H 0.51108 0.59206 0.53875 0.0
H3386 H 0.50826 0.62041 0.52399 0.0
H3387 H 0.56005 0.62938 0.51616 0.0
H3388 H 0.56308 0.60135 0.53134 0.0
H3389 H 0.53745 0.62895 0.48295 0.0
H3390 H 0.5507 0.65991 0.54649 0.0
H3391 H 0.548 0.66458 0.58028 0.0
H3392 H 0.49756 0.67106 0.56781 0.0
H3393 H 0.49992 0.66626 0.5339 0.0
C3394 C 0.53677 0.7162 0.4632 0.0
C3395 C 0.52109 0.7207 0.45876 0.0
C3396 C 0.53833 0.70032 0.47215 0.0
C3397 C 0.5243 0.68888 0.47727 0.0
C3398 C 0.50863 0.69342 0.47304 0.0
C3399 C 0.507 0.70901 0.46358 0.0
C3400 C 0.52616 0.67252 0.48748 0.0
C3401 C 0.52402 0.67404 0.50657 0.0
C3402 C 0.5311 0.65607 0.47885 0.0
C3403 C 0.53259 0.65302 0.45849 0.0
C3404 C 0.51921 0.65386 0.44517 0.0
C3405 C 0.52045 0.65029 0.42599 0.0
C3406 C 0.53495 0.64569 0.41994 0.0
C3407 C 0.54825 0.64464 0.43305 0.0
C3408 C 0.5471 0.64826 0.45225 0.0
C3409 C 0.52193 0.60026 0.53416 0.0
C3410 C 0.53732 0.59453 0.5363 0.0
C3411 C 0.5203 0.61644 0.52573 0.0
C3412 C 0.53394 0.62699 0.51897 0.0
C3413 C 0.54937 0.62146 0.5213 0.0
C3414 C 0.5511 0.60552 0.5301 0.0
C3415 C 0.53188 0.64327 0.50871 0.0
C3416 C 0.53401 0.64174 0.48963 0.0
C3417 C 0.52694 0.65969 0.51732 0.0
C3418 C 0.52543 0.66254 0.53767 0.0
C3419 C 0.53898 0.66217 0.55095 0.0
C3420 C 0.53753 0.66489 0.57012 0.0
C3421 C 0.5226 0.66808 0.57619 0.0
C3422 C 0.50911 0.66859 0.56309 0.0
C3423 C 0.51051 0.6659 0.54389 0.0
H3424 H 0.5215 0.67019 0.59104 0.0
H3425 H 0.53585 0.64284 0.40508 0.0
H3426 H 0.62895 0.31142 0.67183 0.0
H3427 H 0.65616 0.30803 0.68605 0.0
H3428 H 0.63477 0.29181 0.73507 0.0
H3429 H 0.6074 0.29512 0.72088 0.0
H3430 H 0.66294 0.31788 0.7446 0.0
H3431 H 0.64627 0.25909 0.70242 0.0
H3432 H 0.63698 0.23856 0.67198 0.0
H3433 H 0.68089 0.26446 0.65035 0.0
H3434 H 0.69033 0.28537 0.68059 0.0
H3435 H 0.72648 0.28611 0.79343 0.0
H3436 H 0.70077 0.28679 0.77425 0.0
H3437 H 0.72802 0.29977 0.72809 0.0
H3438 H 0.75417 0.29851 0.74745 0.0
H3439 H 0.69805 0.27676 0.71499 0.0
H3440 H 0.71456 0.33564 0.7568 0.0
H3441 H 0.72338 0.35717 0.78677 0.0
H3442 H 0.67926 0.33183 0.80837 0.0
H3443 H 0.67027 0.31002 0.77862 0.0
C3444 C 0.62998 0.30726 0.68571 0.0
C3445 C 0.61586 0.30373 0.69524 0.0
C3446 C 0.6456 0.3051 0.69375 0.0
C3447 C 0.64762 0.29941 0.71159 0.0
C3448 C 0.63361 0.29614 0.72126 0.0
C3449 C 0.61793 0.29814 0.71316 0.0
C3450 C 0.66442 0.29782 0.72062 0.0
C3451 C 0.67047 0.30866 0.73819 0.0
C3452 C 0.67468 0.28639 0.712 0.0
C3453 C 0.66892 0.27398 0.69373 0.0
C3454 C 0.65387 0.26057 0.69112 0.0
C3455 C 0.64859 0.24882 0.67391 0.0
C3456 C 0.65831 0.25024 0.65923 0.0
C3457 C 0.67335 0.2634 0.66173 0.0
C3458 C 0.67867 0.2752 0.67891 0.0
C3459 C 0.72707 0.28885 0.7791 0.0
C3460 C 0.74245 0.29229 0.77205 0.0
C3461 C 0.71228 0.2894 0.76813 0.0
C3462 C 0.7123 0.29393 0.7498 0.0
C3463 C 0.72757 0.29643 0.74224 0.0
C3464 C 0.74254 0.29561 0.75327 0.0
C3465 C 0.69639 0.29656 0.73921 0.0
C3466 C 0.69053 0.28602 0.72134 0.0
C3467 C 0.68622 0.30836 0.74746 0.0
C3468 C 0.69183 0.32109 0.76555 0.0
C3469 C 0.70683 0.33453 0.76802 0.0
C3470 C 0.71184 0.34682 0.78495 0.0
C3471 C 0.70191 0.34584 0.79948 0.0
C3472 C 0.68695 0.33257 0.79712 0.0
C3473 C 0.68189 0.32025 0.78022 0.0
H3474 H 0.70579 0.35539 0.81256 0.0
H3475 H 0.65422 0.24112 0.64593 0.0
H3476 H 0.04003 0.33298 0.95747 0.0
H3477 H 0.04473 0.3663 0.97296 0.0
H3478 H 0.99234 0.36029 0.97713 0.0
H3479 H 0.9877 0.32697 0.96248 0.0
H3480 H 1.01113 0.39692 0.96374 0.0
H3481 H 1.01054 0.35479 0.01253 0.0
H3482 H 0.02067 0.33023 0.02888 0.0
H3483 H 0.07 0.36434 0.03812 0.0
H3484 H 0.06019 0.38893 0.02147 0.0
H3485 H 1.0022 0.4727 0.03106 0.0
H3486 H 0.99965 0.44091 0.01325 0.0
H3487 H 0.05174 0.44278 0.02951 0.0
H3488 H 0.05428 0.47411 0.0477 0.0
H3489 H 0.0352 0.40908 0.03076 0.0
H3490 H 0.03756 0.45269 0.98671 0.0
H3491 H 0.02972 0.47888 0.97107 0.0
H3492 H 0.98126 0.44471 0.95186 0.0
H3493 H 0.98868 0.41842 0.96773 0.0
C3494 C 0.02956 0.33887 0.96165 0.0
C3495 C 1.01355 0.32746 0.95906 0.0
C3496 C 0.03223 0.35783 0.97038 0.0
C3497 C 0.01884 0.36564 0.97606 0.0
C3498 C 1.00278 0.35447 0.97274 0.0
C3499 C 1.00019 0.33545 0.96456 0.0
C3500 C 0.02157 0.38489 0.9869 0.0
C3501 C 0.01632 0.39966 0.97841 0.0
C3502 C 0.02879 0.38846 0.00582 0.0
C3503 C 0.0347 0.3735 0.01546 0.0
C3504 C 0.02359 0.3569 0.01778 0.0
C3505 C 0.02926 0.34301 0.02716 0.0
C3506 C 0.04598 0.34568 0.03446 0.0
C3507 C 0.05707 0.36225 0.0324 0.0
C3508 C 0.05146 0.37615 0.02297 0.0
C3509 C 1.01301 0.46614 0.03116 0.0
C3510 C 0.02846 0.47593 0.0407 0.0
C3511 C 1.01159 0.44811 0.02079 0.0
C3512 C 0.02561 0.43972 0.01973 0.0
C3513 C 0.0408 0.44906 0.03003 0.0
C3514 C 0.04222 0.46698 0.04044 0.0
C3515 C 0.02458 0.42124 0.00779 0.0
C3516 C 0.03015 0.40656 0.01605 0.0
C3517 C 0.01808 0.418 0.98854 0.0
C3518 C 1.01363 0.43363 0.97861 0.0
C3519 C 0.02518 0.45079 0.97927 0.0
C3520 C 0.02081 0.46566 0.97036 0.0
C3521 C 1.00498 0.46348 0.96053 0.0
C3522 C 0.99351 0.44639 0.95952 0.0
C3523 C 0.99779 0.43149 0.96848 0.0
H3524 H 1.00161 0.47502 0.95367 0.0
H3525 H 0.05034 0.33493 0.04177 0.0
H3526 H 1.01137 0.76172 0.19668 0.0
H3527 H 0.98241 0.75565 0.20303 0.0
H3528 H 0.97962 0.81391 0.1974 0.0
H3529 H 1.0085 0.81996 0.1904 0.0
H3530 H 0.9714 0.79772 0.23357 0.0
H3531 H 0.95888 0.78582 0.16563 0.0
H3532 H 0.95974 0.76965 0.1338 0.0
H3533 H 0.93902 0.71573 0.14997 0.0
H3534 H 0.93825 0.73154 0.18199 0.0
H3535 H 0.89061 0.80347 0.24716 0.0
H3536 H 0.9159 0.80498 0.23228 0.0
H3537 H 0.90808 0.74352 0.22344 0.0
H3538 H 0.88226 0.7418 0.23779 0.0
H3539 H 0.92144 0.75857 0.19377 0.0
H3540 H 0.93448 0.7663 0.25949 0.0
H3541 H 0.93382 0.77875 0.29262 0.0
H3542 H 0.95476 0.83527 0.28268 0.0
H3543 H 0.95534 0.82318 0.24939 0.0
C3544 C 1.00461 0.77327 0.19678 0.0
C3545 C 1.01234 0.79145 0.19334 0.0
C3546 C 0.98799 0.76968 0.20018 0.0
C3547 C 0.97883 0.78426 0.20052 0.0
C3548 C 0.98645 0.80241 0.19702 0.0
C3549 C 1.00297 0.80589 0.19317 0.0
C3550 C 0.96198 0.78119 0.2066 0.0
C3551 C 0.96043 0.78944 0.22473 0.0
C3552 C 0.94786 0.76943 0.19545 0.0
C3553 C 0.94875 0.75986 0.17632 0.0
C3554 C 0.95475 0.77048 0.1625 0.0
C3555 C 0.95514 0.76138 0.14439 0.0
C3556 C 0.9495 0.74166 0.13989 0.0
C3557 C 0.94343 0.731 0.15349 0.0
C3558 C 0.943 0.74003 0.17162 0.0
C3559 C 0.89396 0.79021 0.24167 0.0
C3560 C 0.88436 0.77251 0.24387 0.0
C3561 C 0.90857 0.79111 0.23328 0.0
C3562 C 0.91408 0.77438 0.227 0.0
C3563 C 0.90415 0.75663 0.22825 0.0
C3564 C 0.88946 0.7557 0.23665 0.0
C3565 C 0.93081 0.77573 0.22052 0.0
C3566 C 0.9324 0.76696 0.20253 0.0
C3567 C 0.94518 0.78647 0.23198 0.0
C3568 C 0.9448 0.79388 0.25193 0.0
C3569 C 0.93881 0.78142 0.26434 0.0
C3570 C 0.93848 0.7884 0.28315 0.0
C3571 C 0.94421 0.8078 0.28974 0.0
C3572 C 0.95031 0.82025 0.27754 0.0
C3573 C 0.95065 0.81334 0.25871 0.0
H3574 H 0.94396 0.81317 0.30432 0.0
H3575 H 0.94979 0.73466 0.12585 0.0
H3576 H 0.50149 0.30352 0.12784 0.0
H3577 H 0.5194 0.3337 0.12405 0.0
H3578 H 0.5509 0.3025 0.0941 0.0
H3579 H 0.53284 0.27243 0.0972 0.0
H3580 H 0.56334 0.34494 0.12823 0.0
H3581 H 0.53708 0.31145 0.06201 0.0
H3582 H 0.51189 0.28968 0.04512 0.0
H3583 H 0.48144 0.3262 0.06916 0.0
H3584 H 0.50648 0.34801 0.08636 0.0
H3585 H 0.58988 0.42175 0.07018 0.0
H3586 H 0.58638 0.39123 0.08286 0.0
H3587 H 0.53819 0.39843 0.09708 0.0
H3588 H 0.54105 0.42783 0.084 0.0
H3589 H 0.53956 0.36567 0.07016 0.0
H3590 H 0.56445 0.40287 0.12989 0.0
H3591 H 0.58775 0.42522 0.14939 0.0
H3592 H 0.61886 0.38386 0.14222 0.0
H3593 H 0.59587 0.3615 0.12188 0.0
C3594 C 0.51204 0.30322 0.1201 0.0
C3595 C 0.51549 0.28585 0.11214 0.0
C3596 C 0.52251 0.32029 0.11855 0.0
C3597 C 0.53663 0.32003 0.10936 0.0
C3598 C 0.54022 0.30274 0.10163 0.0
C3599 C 0.52958 0.28572 0.10279 0.0
C3600 C 0.545 0.33763 0.10372 0.0
C3601 C 0.55849 0.34946 0.1154 0.0
C3602 C 0.53839 0.34327 0.08711 0.0
C3603 C 0.52358 0.33137 0.07526 0.0
C3604 C 0.525 0.31491 0.06348 0.0
C3605 C 0.51077 0.30252 0.05396 0.0
C3606 C 0.49507 0.30658 0.05603 0.0
C3607 C 0.4936 0.3231 0.06752 0.0
C3608 C 0.5078 0.3355 0.07712 0.0
C3609 C 0.57871 0.41691 0.07634 0.0
C3610 C 0.56577 0.42716 0.07608 0.0
C3611 C 0.57681 0.39967 0.08363 0.0
C3612 C 0.56201 0.39283 0.09067 0.0
C3613 C 0.54969 0.40369 0.09166 0.0
C3614 C 0.55148 0.42064 0.08434 0.0
C3615 C 0.55794 0.37333 0.09468 0.0
C3616 C 0.54502 0.36102 0.08264 0.0
C3617 C 0.56498 0.3676 0.1111 0.0
C3618 C 0.5785 0.38059 0.12414 0.0
C3619 C 0.57629 0.39858 0.13231 0.0
C3620 C 0.58944 0.41126 0.14354 0.0
C3621 C 0.60478 0.40597 0.1471 0.0
C3622 C 0.60697 0.38795 0.13944 0.0
C3623 C 0.59389 0.37528 0.128 0.0
H3624 H 0.61495 0.41582 0.15581 0.0
H3625 H 0.48406 0.2969 0.04875 0.0
H3626 H 0.02194 0.33136 0.39767 0.0
H3627 H 0.99566 0.31914 0.37825 0.0
H3628 H 0.97116 0.31239 0.42769 0.0
H3629 H 0.99812 0.32356 0.44751 0.0
H3630 H 0.95981 0.28233 0.39982 0.0
H3631 H 0.97019 0.35072 0.4048 0.0
H3632 H 0.98808 0.38174 0.40373 0.0
H3633 H 0.99009 0.36634 0.345 0.0
H3634 H 0.97277 0.33471 0.34582 0.0
H3635 H 0.88002 0.28896 0.35773 0.0
H3636 H 0.90648 0.28919 0.37598 0.0
H3637 H 0.93086 0.29229 0.32609 0.0
H3638 H 0.90424 0.29191 0.3076 0.0
H3639 H 0.94229 0.32286 0.3538 0.0
H3640 H 0.9316 0.25503 0.34815 0.0
H3641 H 0.91411 0.2235 0.34876 0.0
H3642 H 0.91187 0.23816 0.40764 0.0
H3643 H 0.92912 0.26994 0.40732 0.0
C3644 C 1.01095 0.32759 0.40452 0.0
C3645 C 1.0119 0.32885 0.42412 0.0
C3646 C 0.99597 0.32046 0.39336 0.0
C3647 C 0.98147 0.31527 0.40157 0.0
C3648 C 0.98228 0.31644 0.42117 0.0
C3649 C 0.99753 0.32304 0.43243 0.0
C3650 C 0.96552 0.30932 0.38942 0.0
C3651 C 0.95582 0.29125 0.38992 0.0
C3652 C 0.96066 0.32084 0.37621 0.0
C3653 C 0.97023 0.34028 0.37541 0.0
C3654 C 0.97445 0.3539 0.39165 0.0
C3655 C 0.98452 0.37161 0.39109 0.0
C3656 C 0.99015 0.37612 0.37432 0.0
C3657 C 0.9857 0.36286 0.358 0.0
C3658 C 0.97578 0.345 0.3585 0.0
C3659 C 0.89088 0.28888 0.3505 0.0
C3660 C 0.89023 0.29067 0.33136 0.0
C3661 C 0.90597 0.28902 0.36094 0.0
C3662 C 0.92051 0.29082 0.35231 0.0
C3663 C 0.91968 0.29094 0.33289 0.0
C3664 C 0.90456 0.2908 0.32242 0.0
C3665 C 0.93664 0.29583 0.36406 0.0
C3666 C 0.94633 0.31385 0.36359 0.0
C3667 C 0.9414 0.28428 0.37723 0.0
C3668 C 0.9316 0.26491 0.37769 0.0
C3669 C 0.92733 0.25156 0.36122 0.0
C3670 C 0.91746 0.23365 0.36151 0.0
C3671 C 0.91187 0.22883 0.37823 0.0
C3672 C 0.91622 0.2419 0.3947 0.0
C3673 C 0.92607 0.25987 0.39449 0.0
H3674 H 0.90419 0.21497 0.37841 0.0
H3675 H 0.99798 0.38986 0.37398 0.0
H3676 H 0.98577 0.71099 0.61432 0.0
H3677 H 0.99992 0.69165 0.5947 0.0
H3678 H 0.01787 0.66743 0.64266 0.0
H3679 H 1.0051 0.68873 0.66305 0.0
H3680 H 0.04213 0.67597 0.62432 0.0
H3681 H 0.98707 0.64205 0.60731 0.0
H3682 H 0.95685 0.63745 0.59837 0.0
H3683 H 0.96504 0.65883 0.54653 0.0
H3684 H 0.99536 0.66388 0.55532 0.0
H3685 H 0.03227 0.58462 0.58797 0.0
H3686 H 0.03908 0.61754 0.60204 0.0
H3687 H 0.04397 0.6349 0.54744 0.0
H3688 H 0.03821 0.60108 0.53335 0.0
H3689 H 0.01499 0.63892 0.56332 0.0
H3690 H 0.07323 0.65763 0.58279 0.0
H3691 H 0.09971 0.6497 0.59498 0.0
H3692 H 0.08127 0.64154 0.64738 0.0
H3693 H 0.0546 0.6491 0.63547 0.0
C3694 C 0.99226 0.70117 0.62076 0.0
C3695 C 0.99456 0.70158 0.64031 0.0
C3696 C 1.00047 0.69015 0.60945 0.0
C3697 C 1.01004 0.6782 0.61723 0.0
C3698 C 1.01078 0.67687 0.63647 0.0
C3699 C 1.00313 0.68861 0.648 0.0
C3700 C 0.01939 0.66739 0.60516 0.0
C3701 C 0.03624 0.66778 0.611 0.0
C3702 C 1.01173 0.65702 0.58768 0.0
C3703 C 0.99349 0.65359 0.58208 0.0
C3704 C 0.98243 0.64589 0.59405 0.0
C3705 C 0.96529 0.6432 0.58902 0.0
C3706 C 0.95903 0.64792 0.57193 0.0
C3707 C 0.96991 0.65524 0.55979 0.0
C3708 C 0.98708 0.65801 0.56478 0.0
C3709 C 0.03568 0.59536 0.57913 0.0
C3710 C 0.03463 0.59067 0.55975 0.0
C3711 C 0.03988 0.61422 0.58719 0.0
C3712 C 0.04213 0.62861 0.57575 0.0
C3713 C 0.04257 0.62389 0.55644 0.0
C3714 C 0.03893 0.60476 0.54842 0.0
C3715 C 0.03741 0.64643 0.58292 0.0
C3716 C 0.0212 0.64776 0.57623 0.0
C3717 C 0.04527 0.65684 0.60029 0.0
C3718 C 0.06192 0.65422 0.60826 0.0
C3719 C 0.07486 0.65434 0.59698 0.0
C3720 C 0.08989 0.64982 0.60382 0.0
C3721 C 0.09219 0.64521 0.62197 0.0
C3722 C 0.07951 0.64525 0.63337 0.0
C3723 C 0.06445 0.64975 0.6266 0.0
H3724 H 0.10378 0.64153 0.62717 0.0
H3725 H 0.94575 0.64586 0.56806 0.0
H3726 H 0.61566 0.82922 0.9319 0.0
H3727 H 0.62969 0.8305 0.90386 0.0
H3728 H 0.58744 0.79189 0.87138 0.0
H3729 H 0.57361 0.78986 0.8994 0.0
H3730 H 0.61543 0.77811 0.87292 0.0
H3731 H 0.5992 0.83569 0.85944 0.0
H3732 H 0.59523 0.86878 0.86676 0.0
H3733 H 0.64786 0.88825 0.88112 0.0
H3734 H 0.65215 0.85524 0.87413 0.0
H3735 H 0.66087 0.76333 0.79895 0.0
H3736 H 0.6389 0.77364 0.81518 0.0
H3737 H 0.67509 0.81785 0.85064 0.0
H3738 H 0.69705 0.80848 0.83362 0.0
H3739 H 0.64695 0.83004 0.8439 0.0
H3740 H 0.66278 0.77402 0.8645 0.0
H3741 H 0.66757 0.74106 0.86292 0.0
H3742 H 0.6166 0.71922 0.84018 0.0
H3743 H 0.61157 0.75207 0.84144 0.0
C3744 C 0.60929 0.82117 0.91875 0.0
C3745 C 0.59367 0.80919 0.91787 0.0
C3746 C 0.61717 0.82224 0.90268 0.0
C3747 C 0.60948 0.81143 0.8856 0.0
C3748 C 0.59345 0.80046 0.88446 0.0
C3749 C 0.58565 0.79921 0.90051 0.0
C3750 C 0.6195 0.80805 0.87038 0.0
C3751 C 0.62191 0.78937 0.86607 0.0
C3752 C 0.62847 0.82298 0.86231 0.0
C3753 C 0.62599 0.84294 0.86632 0.0
C3754 C 0.60993 0.847 0.86427 0.0
C3755 C 0.60762 0.86576 0.86834 0.0
C3756 C 0.62128 0.88061 0.87441 0.0
C3757 C 0.63729 0.87673 0.87639 0.0
C3758 C 0.63967 0.858 0.87233 0.0
C3759 C 0.66413 0.77561 0.80981 0.0
C3760 C 0.68074 0.78491 0.81517 0.0
C3761 C 0.65157 0.78137 0.81918 0.0
C3762 C 0.65545 0.79623 0.83432 0.0
C3763 C 0.67186 0.80628 0.83903 0.0
C3764 C 0.68442 0.80072 0.82947 0.0
C3765 C 0.64274 0.80001 0.84639 0.0
C3766 C 0.64002 0.81874 0.85028 0.0
C3767 C 0.63362 0.78518 0.85451 0.0
C3768 C 0.63689 0.7655 0.85272 0.0
C3769 C 0.65267 0.7622 0.85887 0.0
C3770 C 0.65541 0.74353 0.85812 0.0
C3771 C 0.64242 0.72806 0.85137 0.0
C3772 C 0.62667 0.73121 0.84533 0.0
C3773 C 0.62388 0.74984 0.84604 0.0
H3774 H 0.64454 0.71362 0.85088 0.0
H3775 H 0.61946 0.89511 0.87758 0.0
H3776 H 0.42349 0.55001 0.71148 0.0
H3777 H 0.43943 0.54992 0.68463 0.0
H3778 H 0.48334 0.54767 0.72104 0.0
H3779 H 0.46737 0.54749 0.74794 0.0
H3780 H 0.49182 0.57208 0.69636 0.0
H3781 H 0.46122 0.50801 0.68947 0.0
H3782 H 0.43643 0.48232 0.68647 0.0
H3783 H 0.41635 0.50125 0.63664 0.0
H3784 H 0.44093 0.52723 0.6395 0.0
H3785 H 0.54269 0.55422 0.62518 0.0
H3786 H 0.5264 0.55335 0.65123 0.0
H3787 H 0.48141 0.54235 0.61251 0.0
H3788 H 0.49801 0.54146 0.58605 0.0
H3789 H 0.47304 0.52534 0.63862 0.0
H3790 H 0.50346 0.59013 0.64572 0.0
H3791 H 0.52812 0.61609 0.64907 0.0
H3792 H 0.54824 0.59679 0.69866 0.0
H3793 H 0.5238 0.57059 0.69548 0.0
C3794 C 0.43655 0.54954 0.71393 0.0
C3795 C 0.4439 0.54877 0.7323 0.0
C3796 C 0.44575 0.54936 0.69833 0.0
C3797 C 0.46284 0.54859 0.70028 0.0
C3798 C 0.47029 0.54823 0.71869 0.0
C3799 C 0.46102 0.5481 0.73426 0.0
C3800 C 0.47283 0.54827 0.68335 0.0
C3801 C 0.48772 0.56168 0.68385 0.0
C3802 C 0.46768 0.53514 0.66647 0.0
C3803 C 0.45282 0.5197 0.66483 0.0
C3804 C 0.45144 0.50681 0.67798 0.0
C3805 C 0.43744 0.49217 0.67628 0.0
C3806 C 0.4248 0.49019 0.66141 0.0
C3807 C 0.42614 0.50283 0.64818 0.0
C3808 C 0.4401 0.51751 0.64983 0.0
C3809 C 0.5293 0.55163 0.62199 0.0
C3810 C 0.52193 0.54829 0.60305 0.0
C3811 C 0.51982 0.55143 0.63723 0.0
C3812 C 0.5023 0.54868 0.63457 0.0
C3813 C 0.4948 0.54486 0.61556 0.0
C3814 C 0.50439 0.54449 0.60016 0.0
C3815 C 0.49208 0.54933 0.65143 0.0
C3816 C 0.47715 0.53591 0.65099 0.0
C3817 C 0.49715 0.56259 0.66836 0.0
C3818 C 0.51187 0.5783 0.67025 0.0
C3819 C 0.51319 0.59136 0.65727 0.0
C3820 C 0.52713 0.60612 0.65915 0.0
C3821 C 0.53976 0.60806 0.67404 0.0
C3822 C 0.53846 0.59526 0.68711 0.0
C3823 C 0.52457 0.58047 0.68529 0.0
H3824 H 0.55053 0.61949 0.67547 0.0
H3825 H 0.41398 0.47883 0.6601 0.0
H3826 H 0.82892 0.211 0.01081 0.0
H3827 H 0.81403 0.21289 0.98022 0.0
H3828 H 0.77885 0.24012 0.00794 0.0
H3829 H 0.79399 0.23883 0.03851 0.0
H3830 H 0.76685 0.20458 0.97302 0.0
H3831 H 0.79896 0.2705 0.99531 0.0
H3832 H 0.8256 0.28942 0.01175 0.0
H3833 H 0.85166 0.26438 0.96991 0.0
H3834 H 0.82513 0.24505 0.95344 0.0
H3835 H 0.73727 0.2677 0.91127 0.0
H3836 H 0.74571 0.25101 0.93714 0.0
H3837 H 0.77962 0.22738 0.90397 0.0
H3838 H 0.77078 0.24327 0.87793 0.0
H3839 H 0.79226 0.25726 0.94018 0.0
H3840 H 0.75995 0.19584 0.91429 0.0
H3841 H 0.73389 0.17526 0.89833 0.0
H3842 H 0.70896 0.18958 0.9458 0.0
H3843 H 0.73489 0.21052 0.96196 0.0
C3844 C 0.81838 0.21802 0.01025 0.0
C3845 C 0.81285 0.22537 0.02679 0.0
C3846 C 0.80963 0.21852 0.99294 0.0
C3847 C 0.79515 0.22607 0.9921 0.0
C3848 C 0.78983 0.23386 0.00854 0.0
C3849 C 0.79879 0.23374 0.02585 0.0
C3850 C 0.78709 0.22853 0.97392 0.0
C3851 C 0.77227 0.21609 0.9658 0.0
C3852 C 0.79449 0.2433 0.96458 0.0
C3853 C 0.81012 0.25648 0.9731 0.0
C3854 C 0.81038 0.2692 0.98954 0.0
C3855 C 0.82545 0.27989 0.99892 0.0
C3856 C 0.84032 0.27813 0.99185 0.0
C3857 C 0.84012 0.26577 0.97532 0.0
C3858 C 0.82507 0.25497 0.96594 0.0
C3859 C 0.74577 0.25804 0.90921 0.0
C3860 C 0.75333 0.25661 0.89275 0.0
C3861 C 0.75067 0.24868 0.92393 0.0
C3862 C 0.76333 0.23823 0.92229 0.0
C3863 C 0.76975 0.23534 0.90527 0.0
C3864 C 0.76456 0.24426 0.89042 0.0
C3865 C 0.77187 0.23344 0.93921 0.0
C3866 C 0.78684 0.24558 0.94721 0.0
C3867 C 0.76463 0.21831 0.94825 0.0
C3868 C 0.74932 0.2048 0.93929 0.0
C3869 C 0.7489 0.19461 0.92132 0.0
C3870 C 0.73416 0.1829 0.91223 0.0
C3871 C 0.71977 0.18113 0.92104 0.0
C3872 C 0.72014 0.19096 0.93901 0.0
C3873 C 0.73486 0.20273 0.94817 0.0
H3874 H 0.70834 0.17214 0.91393 0.0
H3875 H 0.85199 0.28632 0.9992 0.0
H3876 H 0.10586 0.49893 0.25818 0.0
H3877 H 0.09129 0.50128 0.22731 0.0
H3878 H 0.13068 0.54709 0.22014 0.0
H3879 H 0.14549 0.54424 0.25057 0.0
H3880 H 0.09943 0.55529 0.20893 0.0
H3881 H 0.12842 0.50535 0.19537 0.0
H3882 H 0.13787 0.47519 0.19834 0.0
H3883 H 0.08757 0.44408 0.18523 0.0
H3884 H 0.07778 0.47414 0.18246 0.0
H3885 H 0.07269 0.55556 0.10984 0.0
H3886 H 0.08863 0.55517 0.14044 0.0
H3887 H 0.05498 0.50391 0.1474 0.0
H3888 H 0.03923 0.50425 0.117 0.0
H3889 H 0.08463 0.49953 0.15874 0.0
H3890 H 0.05613 0.55142 0.17214 0.0
H3891 H 0.04815 0.58241 0.16921 0.0
H3892 H 0.09925 0.61085 0.18208 0.0
H3893 H 0.10757 0.57999 0.18483 0.0
C3894 C 0.11145 0.50946 0.25002 0.0
C3895 C 0.12699 0.52129 0.257 0.0
C3896 C 0.10308 0.51082 0.23224 0.0
C3897 C 0.10972 0.52441 0.22099 0.0
C3898 C 0.12508 0.53648 0.22823 0.0
C3899 C 0.13364 0.53477 0.24572 0.0
C3900 C 0.10085 0.52582 0.20172 0.0
C3901 C 0.09637 0.5431 0.19792 0.0
C3902 C 0.0966 0.51009 0.18704 0.0
C3903 C 0.10234 0.49202 0.18897 0.0
C3904 C 0.11934 0.49211 0.19334 0.0
C3905 C 0.12477 0.47502 0.19494 0.0
C3906 C 0.11332 0.45773 0.19204 0.0
C3907 C 0.09642 0.4575 0.18752 0.0
C3908 C 0.09092 0.47455 0.18593 0.0
C3909 C 0.06869 0.54417 0.11786 0.0
C3910 C 0.05453 0.52992 0.11066 0.0
C3911 C 0.0778 0.54402 0.13559 0.0
C3912 C 0.07314 0.52959 0.14682 0.0
C3913 C 0.05911 0.51528 0.13942 0.0
C3914 C 0.04998 0.51551 0.12184 0.0
C3915 C 0.08281 0.52893 0.16593 0.0
C3916 C 0.08756 0.51175 0.16971 0.0
C3917 C 0.08744 0.54485 0.1805 0.0
C3918 C 0.08249 0.56335 0.17844 0.0
C3919 C 0.06569 0.56425 0.17413 0.0
C3920 C 0.0611 0.58181 0.17255 0.0
C3921 C 0.07319 0.59858 0.17539 0.0
C3922 C 0.0899 0.59784 0.17983 0.0
C3923 C 0.09456 0.58032 0.1814 0.0
H3924 H 0.0696 0.61216 0.1742 0.0
H3925 H 0.11755 0.44451 0.19325 0.0
H3926 H 0.82826 0.86939 0.49945 0.0
H3927 H 0.82224 0.85651 0.46603 0.0
H3928 H 0.76977 0.84607 0.47062 0.0
H3929 H 0.77578 0.85989 0.50409 0.0
H3930 H 0.7849 0.81325 0.45388 0.0
H3931 H 0.77747 0.87565 0.44672 0.0
H3932 H 0.78306 0.9108 0.45032 0.0
H3933 H 0.82798 0.91076 0.42514 0.0
H3934 H 0.82279 0.87558 0.42164 0.0
H3935 H 0.76289 0.78686 0.35451 0.0
H3936 H 0.76461 0.80073 0.38733 0.0
H3937 H 0.81706 0.8223 0.38841 0.0
H3938 H 0.81547 0.80836 0.35547 0.0
H3939 H 0.79879 0.84995 0.40188 0.0
H3940 H 0.80596 0.78637 0.41127 0.0
H3941 H 0.79803 0.75122 0.40546 0.0
H3942 H 0.75094 0.75392 0.4249 0.0
H3943 H 0.75856 0.78912 0.43067 0.0
C3944 C 0.81545 0.86446 0.49327 0.0
C3945 C 0.80246 0.86546 0.50422 0.0
C3946 C 0.81203 0.85723 0.47422 0.0
C3947 C 0.79559 0.85041 0.46593 0.0
C3948 C 0.78253 0.85138 0.47683 0.0
C3949 C 0.78595 0.85922 0.49584 0.0
C3950 C 0.79241 0.84124 0.44617 0.0
C3951 C 0.78762 0.82129 0.44244 0.0
C3952 C 0.79624 0.85176 0.43137 0.0
C3953 C 0.79986 0.87295 0.43419 0.0
C3954 C 0.78869 0.88313 0.44224 0.0
C3955 C 0.79174 0.90307 0.44418 0.0
C3956 C 0.8059 0.91301 0.43804 0.0
C3957 C 0.81704 0.90304 0.42995 0.0
C3958 C 0.81405 0.88309 0.42798 0.0
C3959 C 0.77484 0.79437 0.36178 0.0
C3960 C 0.78905 0.79657 0.35241 0.0
C3961 C 0.77579 0.80224 0.38053 0.0
C3962 C 0.79094 0.81254 0.39023 0.0
C3963 C 0.80525 0.8144 0.38109 0.0
C3964 C 0.80435 0.80633 0.36235 0.0
C3965 C 0.79167 0.82197 0.4097 0.0
C3966 C 0.796 0.84195 0.41333 0.0
C3967 C 0.78724 0.8115 0.42436 0.0
C3968 C 0.78278 0.79036 0.42127 0.0
C3969 C 0.79389 0.77946 0.41422 0.0
C3970 C 0.78946 0.75954 0.41095 0.0
C3971 C 0.77398 0.75034 0.41477 0.0
C3972 C 0.76293 0.76106 0.42195 0.0
C3973 C 0.76731 0.781 0.42526 0.0
H3974 H 0.77055 0.73492 0.4122 0.0
H3975 H 0.80821 0.92845 0.43948 0.0
H3976 H 0.47827 0.55383 0.83313 0.0
H3977 H 0.49259 0.55569 0.86486 0.0
H3978 H 0.44596 0.53366 0.88396 0.0
H3979 H 0.43156 0.53332 0.85249 0.0
H3980 H 0.46198 0.55569 0.91163 0.0
H3981 H 0.47934 0.5061 0.87244 0.0
H3982 H 0.49082 0.49258 0.84482 0.0
H3983 H 0.53689 0.53263 0.86152 0.0
H3984 H 0.5256 0.54653 0.88913 0.0
H3985 H 0.50134 0.51136 0.98606 0.0
H3986 H 0.48817 0.51464 0.95497 0.0
H3987 H 0.5232 0.56701 0.95529 0.0
H3988 H 0.53593 0.56428 0.98696 0.0
H3989 H 0.51391 0.53041 0.91874 0.0
H3990 H 0.49498 0.57959 0.95879 0.0
H3991 H 0.48304 0.58994 0.98726 0.0
H3992 H 0.43899 0.54694 0.96923 0.0
H3993 H 0.45088 0.53603 0.94083 0.0
C3994 C 0.47106 0.54955 0.84415 0.0
C3995 C 0.45373 0.5434 0.84016 0.0
C3996 C 0.47931 0.55037 0.8624 0.0
C3997 C 0.47065 0.54422 0.87718 0.0
C3998 C 0.45321 0.53845 0.87316 0.0
C3999 C 0.44491 0.53819 0.85503 0.0
C4000 C 0.47968 0.54345 0.89651 0.0
C4001 C 0.47328 0.55004 0.91296 0.0
C4002 C 0.49459 0.53619 0.89894 0.0
C4003 C 0.50158 0.52744 0.88274 0.0
C4004 C 0.49191 0.51203 0.87019 0.0
C4005 C 0.49838 0.50432 0.85454 0.0
C4006 C 0.51456 0.51177 0.85139 0.0
C4007 C 0.52435 0.52689 0.86397 0.0
C4008 C 0.51793 0.53467 0.87963 0.0
C4009 C 0.50623 0.52365 0.97958 0.0
C4010 C 0.51969 0.5376 0.98916 0.0
C4011 C 0.49868 0.52549 0.96171 0.0
C4012 C 0.50462 0.54105 0.95256 0.0
C4013 C 0.51828 0.55486 0.96194 0.0
C4014 C 0.52553 0.55334 0.98013 0.0
C4015 C 0.49631 0.5429 0.93345 0.0
C4016 C 0.50272 0.53626 0.91719 0.0
C4017 C 0.48135 0.54985 0.93118 0.0
C4018 C 0.47389 0.55686 0.9478 0.0
C4019 C 0.48281 0.57223 0.96097 0.0
C4020 C 0.47605 0.57821 0.97709 0.0
C4021 C 0.46028 0.56906 0.98008 0.0
C4022 C 0.45121 0.55398 0.96691 0.0
C4023 C 0.45796 0.5479 0.95079 0.0
H4024 H 0.45507 0.57369 0.99258 0.0
H4025 H 0.51953 0.50582 0.83923 0.0
H4026 H 0.79139 0.17234 0.11049 0.0
H4027 H 0.77915 0.19433 0.13063 0.0
H4028 H 0.82086 0.23962 0.12882 0.0
H4029 H 0.83344 0.21794 0.10914 0.0
H4030 H 0.81387 0.22011 0.16372 0.0
H4031 H 0.79189 0.25017 0.11319 0.0
H4032 H 0.77371 0.25432 0.0855 0.0
H4033 H 0.73093 0.24008 0.11396 0.0
H4034 H 0.74873 0.23494 0.14148 0.0
H4035 H 0.81396 0.29744 0.23027 0.0
H4036 H 0.8151 0.27985 0.19945 0.0
H4037 H 0.76354 0.2528 0.19705 0.0
H4038 H 0.76246 0.27096 0.2277 0.0
H4039 H 0.77145 0.26071 0.16329 0.0
H4040 H 0.79363 0.22553 0.21138 0.0
H4041 H 0.81216 0.21744 0.23684 0.0
H4042 H 0.85482 0.24154 0.21196 0.0
H4043 H 0.83654 0.24952 0.18629 0.0
C4044 C 0.79797 0.18699 0.11437 0.0
C4045 C 0.81356 0.19335 0.10851 0.0
C4046 C 0.79068 0.1996 0.12532 0.0
C4047 C 0.79888 0.21859 0.13047 0.0
C4048 C 0.81415 0.22509 0.1243 0.0
C4049 C 0.82152 0.21255 0.11356 0.0
C4050 C 0.79486 0.22963 0.14692 0.0
C4051 C 0.80464 0.22912 0.16363 0.0
C4052 C 0.78243 0.24066 0.14659 0.0
C4053 C 0.77166 0.24174 0.12927 0.0
C4054 C 0.77857 0.24729 0.11333 0.0
C4055 C 0.76831 0.2499 0.09767 0.0
C4056 C 0.75113 0.24721 0.09786 0.0
C4057 C 0.74418 0.24182 0.11368 0.0
C4058 C 0.75434 0.23899 0.12928 0.0
C4059 C 0.80271 0.28847 0.22264 0.0
C4060 C 0.78805 0.28528 0.23094 0.0
C4061 C 0.80345 0.27816 0.20536 0.0
C4062 C 0.78954 0.26469 0.19648 0.0
C4063 C 0.77442 0.26299 0.20394 0.0
C4064 C 0.77373 0.27333 0.22122 0.0
C4065 C 0.79098 0.25176 0.17988 0.0
C4066 C 0.78058 0.25161 0.16331 0.0
C4067 C 0.80295 0.24009 0.18014 0.0
C4068 C 0.81375 0.23842 0.19717 0.0
C4069 C 0.80696 0.22954 0.21165 0.0
C4070 C 0.81743 0.22479 0.22599 0.0
C4071 C 0.83466 0.22904 0.226 0.0
C4072 C 0.84149 0.23832 0.21193 0.0
C4073 C 0.8311 0.24294 0.19751 0.0
H4074 H 0.8428 0.22502 0.23675 0.0
H4075 H 0.74323 0.24948 0.08583 0.0
H4076 H 0.10389 0.5523 0.35944 0.0
H4077 H 0.09164 0.55313 0.38887 0.0
H4078 H 0.12641 0.52083 0.41069 0.0
H4079 H 0.138 0.51909 0.38077 0.0
H4080 H 0.10138 0.50886 0.42437 0.0
H4081 H 0.126 0.57432 0.42459 0.0
H4082 H 0.13194 0.6055 0.4132 0.0
H4083 H 0.08034 0.60867 0.41044 0.0
H4084 H 0.07407 0.57742 0.42165 0.0
H4085 H 0.0865 0.54056 0.52246 0.0
H4086 H 0.0998 0.53941 0.49335 0.0
H4087 H 0.05259 0.53674 0.461 0.0
H4088 H 0.03919 0.53712 0.48976 0.0
H4089 H 0.08468 0.56695 0.4541 0.0
H4090 H 0.06134 0.49984 0.45405 0.0
H4091 H 0.05725 0.46878 0.46586 0.0
H4092 H 0.10977 0.4705 0.47044 0.0
H4093 H 0.11419 0.50172 0.45894 0.0
C4094 C 0.10898 0.54533 0.37046 0.0
C4095 C 0.12208 0.53559 0.36734 0.0
C4096 C 0.10201 0.546 0.38765 0.0
C4097 C 0.10809 0.53745 0.40286 0.0
C4098 C 0.12118 0.52766 0.39965 0.0
C4099 C 0.12794 0.52669 0.38232 0.0
C4100 C 0.10067 0.53821 0.42169 0.0
C4101 C 0.09805 0.5218 0.43082 0.0
C4102 C 0.09587 0.55478 0.43074 0.0
C4103 C 0.09954 0.57343 0.42375 0.0
C4104 C 0.1159 0.5816 0.42141 0.0
C4105 C 0.11933 0.5993 0.41502 0.0
C4106 C 0.10652 0.60903 0.41104 0.0
C4107 C 0.09025 0.6011 0.41349 0.0
C4108 C 0.08675 0.5834 0.41987 0.0
C4109 C 0.07889 0.53968 0.50918 0.0
C4110 C 0.06162 0.53895 0.50881 0.0
C4111 C 0.08656 0.53898 0.49239 0.0
C4112 C 0.07735 0.53799 0.4746 0.0
C4113 C 0.06018 0.53749 0.47428 0.0
C4114 C 0.05246 0.53768 0.49093 0.0
C4115 C 0.08547 0.53768 0.45644 0.0
C4116 C 0.08819 0.55416 0.44754 0.0
C4117 C 0.09067 0.52133 0.4478 0.0
C4118 C 0.08811 0.5032 0.45582 0.0
C4119 C 0.07204 0.49376 0.45788 0.0
C4120 C 0.06965 0.47606 0.4644 0.0
C4121 C 0.08324 0.46762 0.46876 0.0
C4122 C 0.09926 0.47701 0.46696 0.0
C4123 C 0.10171 0.4947 0.46046 0.0
H4124 H 0.08135 0.4538 0.47353 0.0
H4125 H 0.10921 0.62274 0.40611 0.0
H4126 H 0.79849 0.84583 0.59456 0.0
H4127 H 0.79279 0.82981 0.6218 0.0
H4128 H 0.79387 0.88414 0.65487 0.0
H4129 H 0.7996 0.90031 0.62763 0.0
H4130 H 0.81217 0.86339 0.67346 0.0
H4131 H 0.7573 0.85188 0.64023 0.0
H4132 H 0.73538 0.84083 0.61336 0.0
H4133 H 0.74387 0.78363 0.61206 0.0
H4134 H 0.76602 0.79438 0.63876 0.0
H4135 H 0.78454 0.82761 0.75421 0.0
H4136 H 0.78705 0.84341 0.72631 0.0
H4137 H 0.78177 0.78872 0.69205 0.0
H4138 H 0.77861 0.7728 0.71996 0.0
H4139 H 0.76504 0.80972 0.67383 0.0
H4140 H 0.82041 0.82096 0.70582 0.0
H4141 H 0.84216 0.83146 0.73294 0.0
H4142 H 0.83307 0.88855 0.73604 0.0
H4143 H 0.81105 0.87831 0.70913 0.0
C4144 C 0.79746 0.85443 0.60759 0.0
C4145 C 0.79961 0.87446 0.60883 0.0
C4146 C 0.79408 0.84518 0.62318 0.0
C4147 C 0.79276 0.85568 0.64048 0.0
C4148 C 0.7948 0.87566 0.64173 0.0
C4149 C 0.79807 0.88491 0.6261 0.0
C4150 C 0.79006 0.84596 0.65744 0.0
C4151 C 0.8017 0.85184 0.67359 0.0
C4152 C 0.77669 0.83047 0.65757 0.0
C4153 C 0.76347 0.824 0.64139 0.0
C4154 C 0.75462 0.83698 0.6341 0.0
C4155 C 0.74212 0.83076 0.61892 0.0
C4156 C 0.73827 0.81156 0.61098 0.0
C4157 C 0.74689 0.79852 0.61821 0.0
C4158 C 0.75941 0.80466 0.63338 0.0
C4159 C 0.78402 0.81893 0.74076 0.0
C4160 C 0.78154 0.79892 0.73939 0.0
C4161 C 0.7855 0.82801 0.72474 0.0
C4162 C 0.78491 0.81738 0.70692 0.0
C4163 C 0.78232 0.79735 0.70553 0.0
C4164 C 0.78065 0.78824 0.72155 0.0
C4165 C 0.78717 0.82716 0.68986 0.0
C4166 C 0.77549 0.82127 0.67369 0.0
C4167 C 0.80057 0.84257 0.68961 0.0
C4168 C 0.814 0.84883 0.70557 0.0
C4169 C 0.823 0.83573 0.71235 0.0
C4170 C 0.83537 0.84164 0.72768 0.0
C4171 C 0.83898 0.86066 0.73622 0.0
C4172 C 0.83025 0.87382 0.72942 0.0
C4173 C 0.81783 0.86798 0.71412 0.0
H4174 H 0.84855 0.8652 0.7481 0.0
H4175 H 0.72858 0.80677 0.59924 0.0
H4176 H 0.70205 0.38682 0.52009 0.0
H4177 H 0.68308 0.40152 0.5378 0.0
H4178 H 0.69913 0.45441 0.51632 0.0
H4179 H 0.71928 0.44009 0.49985 0.0
H4180 H 0.70275 0.45982 0.55294 0.0
H4181 H 0.65785 0.42175 0.5047 0.0
H4182 H 0.64314 0.39028 0.48802 0.0
H4183 H 0.63278 0.3716 0.5405 0.0
H4184 H 0.64757 0.4029 0.55748 0.0
H4185 H 0.64769 0.51887 0.55309 0.0
H4186 H 0.66526 0.4954 0.54848 0.0
H4187 H 0.64026 0.46263 0.58718 0.0
H4188 H 0.62249 0.48644 0.59186 0.0
H4189 H 0.64192 0.44097 0.55321 0.0
H4190 H 0.67993 0.48106 0.60035 0.0
H4191 H 0.69629 0.51071 0.619 0.0
H4192 H 0.72108 0.52408 0.5715 0.0
H4193 H 0.70473 0.49468 0.55246 0.0
C4194 C 0.70102 0.40136 0.51851 0.0
C4195 C 0.71201 0.41242 0.5086 0.0
C4196 C 0.69021 0.40976 0.52874 0.0
C4197 C 0.68973 0.42907 0.52843 0.0
C4198 C 0.69947 0.43951 0.51688 0.0
C4199 C 0.71076 0.43132 0.50724 0.0
C4200 C 0.68058 0.43915 0.54152 0.0
C4201 C 0.68941 0.45582 0.55288 0.0
C4202 C 0.6635 0.43295 0.54271 0.0
C4203 C 0.65384 0.41461 0.53234 0.0
C4204 C 0.65239 0.41094 0.51266 0.0
C4205 C 0.64408 0.39312 0.50316 0.0
C4206 C 0.63705 0.37894 0.5132 0.0
C4207 C 0.63822 0.38259 0.53275 0.0
C4208 C 0.64653 0.40037 0.54231 0.0
C4209 C 0.64614 0.50681 0.56081 0.0
C4210 C 0.63387 0.50434 0.57279 0.0
C4211 C 0.65621 0.49351 0.55831 0.0
C4212 C 0.65418 0.47747 0.56772 0.0
C4213 C 0.64208 0.47506 0.57999 0.0
C4214 C 0.63204 0.48859 0.58267 0.0
C4215 C 0.66384 0.4627 0.56296 0.0
C4216 C 0.65528 0.44487 0.55352 0.0
C4217 C 0.68127 0.46769 0.56368 0.0
C4218 C 0.69106 0.48561 0.57496 0.0
C4219 C 0.68878 0.49038 0.59383 0.0
C4220 C 0.69808 0.50715 0.60448 0.0
C4221 C 0.70972 0.51927 0.59644 0.0
C4222 C 0.71208 0.51466 0.57772 0.0
C4223 C 0.70282 0.49792 0.567 0.0
H4224 H 0.71691 0.53223 0.60472 0.0
H4225 H 0.63068 0.36514 0.50583 0.0
H4226 H 0.20894 0.15695 0.51216 0.0
H4227 H 0.18058 0.14235 0.51601 0.0
H4228 H 0.19792 0.09372 0.534 0.0
H4229 H 0.2264 0.1082 0.52999 0.0
H4230 H 0.17066 0.08189 0.5106 0.0
H4231 H 0.18595 0.12956 0.56494 0.0
H4232 H 0.19588 0.16196 0.58239 0.0
H4233 H 0.15519 0.18111 0.55393 0.0
H4234 H 0.14514 0.14887 0.53609 0.0
H4235 H 0.10024 0.03582 0.54416 0.0
H4236 H 0.12766 0.05459 0.54285 0.0
H4237 H 0.10548 0.10066 0.52612 0.0
H4238 H 0.07759 0.08179 0.5281 0.0
H4239 H 0.13454 0.11529 0.54782 0.0
H4240 H 0.11954 0.06767 0.49334 0.0
H4241 H 0.11035 0.03557 0.475 0.0
H4242 H 0.15127 0.01671 0.50335 0.0
H4243 H 0.1606 0.04863 0.522 0.0
C4244 C 0.20679 0.14306 0.51682 0.0
C4245 C 0.22015 0.13377 0.52063 0.0
C4246 C 0.19046 0.13479 0.51923 0.0
C4247 C 0.1869 0.11697 0.52562 0.0
C4248 C 0.20017 0.1075 0.52913 0.0
C4249 C 0.21654 0.11579 0.52675 0.0
C4250 C 0.16936 0.10785 0.52797 0.0
C4251 C 0.16291 0.08916 0.519 0.0
C4252 C 0.15881 0.11741 0.53837 0.0
C4253 C 0.16488 0.13683 0.54903 0.0
C4254 C 0.1792 0.14072 0.56227 0.0
C4255 C 0.18483 0.15905 0.57226 0.0
C4256 C 0.1762 0.1736 0.56924 0.0
C4257 C 0.16188 0.16983 0.55624 0.0
C4258 C 0.1562 0.15153 0.54619 0.0
C4259 C 0.10113 0.0501 0.54051 0.0
C4260 C 0.08662 0.05723 0.53626 0.0
C4261 C 0.11693 0.06081 0.53956 0.0
C4262 C 0.11889 0.07894 0.53375 0.0
C4263 C 0.10446 0.08666 0.53044 0.0
C4264 C 0.08847 0.07592 0.53169 0.0
C4265 C 0.13595 0.08917 0.53066 0.0
C4266 C 0.1423 0.10805 0.53942 0.0
C4267 C 0.1465 0.07982 0.52004 0.0
C4268 C 0.14066 0.06049 0.50919 0.0
C4269 C 0.12648 0.05662 0.49579 0.0
C4270 C 0.12127 0.03847 0.48531 0.0
C4271 C 0.13019 0.0241 0.48804 0.0
C4272 C 0.14435 0.02784 0.50126 0.0
C4273 C 0.14961 0.04596 0.51178 0.0
H4274 H 0.12616 1.01007 0.47988 0.0
H4275 H 0.18057 0.18777 0.57699 0.0
H4276 H 0.21267 0.9736 0.77001 0.0
H4277 H 0.22521 0.94534 0.76849 0.0
H4278 H 0.1838 0.91519 0.79187 0.0
H4279 H 0.172 0.94417 0.7948 0.0
H4280 H 0.20555 0.90027 0.80363 0.0
H4281 H 0.19419 0.90793 0.74033 0.0
H4282 H 0.19349 0.92356 0.71186 0.0
H4283 H 0.24677 0.93464 0.71688 0.0
H4284 H 0.24779 0.91923 0.74551 0.0
H4285 H 0.2294 0.80914 0.76844 0.0
H4286 H 0.21514 0.83648 0.76982 0.0
H4287 H 0.26238 0.87531 0.78118 0.0
H4288 H 0.27663 0.8482 0.78052 0.0
H4289 H 0.23611 0.88351 0.75048 0.0
H4290 H 0.24342 0.87226 0.81617 0.0
H4291 H 0.23938 0.85092 0.84025 0.0
H4292 H 0.18661 0.83998 0.82429 0.0
H4293 H 0.19038 0.86111 0.79998 0.0
C4294 C 0.20618 0.96099 0.77488 0.0
C4295 C 0.19116 0.96155 0.78254 0.0
C4296 C 0.21333 0.94443 0.77375 0.0
C4297 C 0.20551 0.92718 0.77947 0.0
C4298 C 0.19047 0.92783 0.78722 0.0
C4299 C 0.18357 0.94461 0.78886 0.0
C4300 C 0.21308 0.9089 0.77771 0.0
C4301 C 0.21202 0.89677 0.79177 0.0
C4302 C 0.22156 0.90324 0.76231 0.0
C4303 C 0.22107 0.91262 0.74518 0.0
C4304 C 0.20576 0.91382 0.73544 0.0
C4305 C 0.2053 0.92261 0.71926 0.0
C4306 C 0.22008 0.93014 0.7126 0.0
C4307 C 0.23534 0.92883 0.72208 0.0
C4308 C 0.23587 0.92005 0.73827 0.0
C4309 C 0.23682 0.82347 0.77128 0.0
C4310 C 0.25435 0.82611 0.7744 0.0
C4311 C 0.22858 0.83925 0.77206 0.0
C4312 C 0.2375 0.85836 0.77555 0.0
C4313 C 0.25498 0.86097 0.77839 0.0
C4314 C 0.26319 0.84526 0.77808 0.0
C4315 C 0.22881 0.87555 0.7765 0.0
C4316 C 0.22964 0.88731 0.76226 0.0
C4317 C 0.21945 0.88031 0.79121 0.0
C4318 C 0.21719 0.86817 0.80622 0.0
C4319 C 0.23097 0.86525 0.81777 0.0
C4320 C 0.22872 0.8532 0.83146 0.0
C4321 C 0.21275 0.84408 0.83378 0.0
C4322 C 0.19898 0.84706 0.82248 0.0
C4323 C 0.20116 0.8591 0.80877 0.0
H4324 H 0.21103 0.83472 0.84435 0.0
H4325 H 0.2197 0.93695 0.70008 0.0
H4326 H 0.30543 0.8677 0.00695 0.0
H4327 H 0.3346 0.88388 0.01634 0.0
H4328 H 0.31874 0.93725 0.03024 0.0
H4329 H 0.29006 0.92153 0.02001 0.0
H4330 H 0.34059 0.93943 1.00554 0.0
H4331 H 0.34247 0.91932 0.07172 0.0
H4332 H 0.3381 0.89397 0.09198 0.0
H4333 H 0.36216 0.85889 0.05585 0.0
H4334 H 0.36685 0.88417 0.03563 0.0
H4335 H 0.41487 1.00321 0.03915 0.0
H4336 H 0.38698 0.98443 0.03986 0.0
H4337 H 0.40636 0.9325 0.03293 0.0
H4338 H 0.43416 0.95125 0.03331 0.0
H4339 H 0.3832 0.92797 0.05386 0.0
H4340 H 0.3896 0.95218 0.99513 0.0
H4341 H 0.39531 0.97672 0.97436 0.0
H4342 H 0.35529 1.00188 0.99264 0.0
H4343 H 0.34952 0.97767 0.01374 0.0
C4344 C 0.30833 0.88287 0.01204 0.0
C4345 C 0.29576 0.89358 0.01228 0.0
C4346 C 0.32486 0.89199 0.01767 0.0
C4347 C 0.32871 0.9117 0.02406 0.0
C4348 C 0.31597 0.92205 0.02524 0.0
C4349 C 0.29966 0.91312 0.0192 0.0
C4350 C 0.34591 0.92238 0.02705 0.0
C4351 C 0.34989 0.93709 0.01626 0.0
C4352 C 0.3581 0.91878 0.04045 0.0
C4353 C 0.35469 0.90338 0.05207 0.0
C4354 C 0.34663 0.90609 0.06805 0.0
C4355 C 0.3442 0.89181 0.07956 0.0
C4356 C 0.3497 0.87477 0.0751 0.0
C4357 C 0.3578 0.87204 0.05923 0.0
C4358 C 0.36041 0.88635 0.04779 0.0
C4359 C 0.41308 0.98782 0.03824 0.0
C4360 C 0.42638 0.9785 0.03611 0.0
C4361 C 0.39726 0.97713 0.03856 0.0
C4362 C 0.39463 0.95709 0.036 0.0
C4363 C 0.40815 0.94794 0.03492 0.0
C4364 C 0.42396 0.95861 0.03509 0.0
C4365 C 0.37774 0.94547 0.03275 0.0
C4366 C 0.37389 0.93046 0.04326 0.0
C4367 C 0.36569 0.94859 0.01877 0.0
C4368 C 0.36925 0.96324 0.00617 0.0
C4369 C 0.38211 0.96304 0.99483 0.0
C4370 C 0.38535 0.97688 0.98299 0.0
C4371 C 0.37569 0.99088 0.98222 0.0
C4372 C 0.36278 0.99106 0.99328 0.0
C4373 C 0.35952 0.97728 1.00518 0.0
H4374 H 0.3782 1.00156 0.97302 0.0
H4375 H 0.34777 0.86373 0.08401 0.0
H4376 H 0.86024 0.59817 0.74932 0.0
H4377 H 0.8457 0.62495 0.74863 0.0
H4378 H 0.87331 0.65175 0.80183 0.0
H4379 H 0.88754 0.62477 0.80272 0.0
H4380 H 0.8438 0.65665 0.8034 0.0
H4381 H 0.87873 0.66663 0.75472 0.0
H4382 H 0.89003 0.65888 0.72512 0.0
H4383 H 0.84126 0.65012 0.69458 0.0
H4384 H 0.82967 0.65786 0.72403 0.0
H4385 H 0.82734 0.75267 0.79934 0.0
H4386 H 0.84163 0.72547 0.79703 0.0
H4387 H 0.80031 0.69195 0.75905 0.0
H4388 H 0.78562 0.71881 0.762 0.0
H4389 H 0.8359 0.69024 0.74837 0.0
H4390 H 0.80084 0.67973 0.79586 0.0
H4391 H 0.78836 0.68454 0.82514 0.0
H4392 H 0.83624 0.69076 0.85718 0.0
H4393 H 0.84906 0.68708 0.82818 0.0
C4394 C 0.86331 0.60976 0.7609 0.0
C4395 C 0.87524 0.60896 0.77611 0.0
C4396 C 0.85498 0.62536 0.76042 0.0
C4397 C 0.8583 0.64103 0.77505 0.0
C4398 C 0.87024 0.64017 0.79023 0.0
C4399 C 0.87851 0.62457 0.79073 0.0
C4400 C 0.84908 0.65784 0.77506 0.0
C4401 C 0.84245 0.66412 0.79138 0.0
C4402 C 0.8464 0.66757 0.7593 0.0
C4403 C 0.85333 0.66272 0.74162 0.0
C4404 C 0.8704 0.66297 0.74171 0.0
C4405 C 0.87687 0.65862 0.72495 0.0
C4406 C 0.86637 0.65397 0.70798 0.0
C4407 C 0.84939 0.65373 0.70773 0.0
C4408 C 0.84287 0.65816 0.72446 0.0
C4409 C 0.82124 0.73958 0.79041 0.0
C4410 C 0.80515 0.73827 0.78089 0.0
C4411 C 0.82949 0.72386 0.78911 0.0
C4412 C 0.82227 0.70629 0.7778 0.0
C4413 C 0.8064 0.70513 0.76786 0.0
C4414 C 0.79792 0.72064 0.7696 0.0
C4415 C 0.83101 0.68916 0.77688 0.0
C4416 C 0.83746 0.68284 0.76041 0.0
C4417 C 0.83345 0.67924 0.79242 0.0
C4418 C 0.82598 0.6835 0.80981 0.0
C4419 C 0.80878 0.68276 0.80914 0.0
C4420 C 0.80162 0.68524 0.82573 0.0
C4421 C 0.81148 0.68815 0.84307 0.0
C4422 C 0.82856 0.68883 0.84383 0.0
C4423 C 0.83582 0.68664 0.82731 0.0
H4424 H 0.80582 0.68965 0.85587 0.0
H4425 H 0.87139 0.65057 0.69501 0.0
H4426 H 0.80853 0.60777 0.04544 0.0
H4427 H 0.83612 0.60091 0.05285 0.0
H4428 H 0.85836 0.6573 0.0428 0.0
H4429 H 0.83061 0.66364 0.03408 0.0
H4430 H 0.87757 0.63668 0.03228 0.0
H4431 H 0.85598 0.64358 0.08937 0.0
H4432 H 0.83566 0.6396 0.11203 0.0
H4433 H 0.83648 0.57976 0.10759 0.0
H4434 H 0.85668 0.58333 0.08472 0.0
H4435 H 0.95492 0.61402 0.06986 0.0
H4436 H 0.93105 0.62991 0.06734 0.0
H4437 H 0.89788 0.57582 0.06597 0.0
H4438 H 0.92156 0.56013 0.06903 0.0
H4439 H 0.88689 0.60231 0.08652 0.0
H4440 H 0.90876 0.6004 0.02439 0.0
H4441 H 0.9316 0.61012 0.00583 0.0
H4442 H 0.93334 0.66907 0.02645 0.0
H4443 H 0.91062 0.65967 0.04522 0.0
C4444 C 0.8193 0.61861 0.04454 0.0
C4445 C 0.81731 0.6362 0.03907 0.0
C4446 C 0.83517 0.6148 0.04908 0.0
C4447 C 0.84959 0.62875 0.04905 0.0
C4448 C 0.84761 0.64621 0.04308 0.0
C4449 C 0.83168 0.64984 0.03802 0.0
C4450 C 0.86654 0.6249 0.05517 0.0
C4451 C 0.87957 0.62938 0.04431 0.0
C4452 C 0.86971 0.61595 0.07123 0.0
C4453 C 0.85776 0.6137 0.08522 0.0
C4454 C 0.85177 0.62955 0.09316 0.0
C4455 C 0.84028 0.62737 0.10605 0.0
C4456 C 0.83476 0.60943 0.11122 0.0
C4457 C 0.84077 0.59365 0.10357 0.0
C4458 C 0.85227 0.59575 0.09067 0.0
C4459 C 0.94253 0.60553 0.06901 0.0
C4460 C 0.94025 0.58572 0.06959 0.0
C4461 C 0.92882 0.61464 0.06752 0.0
C4462 C 0.91245 0.60409 0.06606 0.0
C4463 C 0.91026 0.58441 0.06705 0.0
C4464 C 0.9239 0.5754 0.06881 0.0
C4465 C 0.89742 0.61297 0.06293 0.0
C4466 C 0.88481 0.60965 0.07454 0.0
C4467 C 0.89495 0.6238 0.04812 0.0
C4468 C 0.90807 0.62933 0.03622 0.0
C4469 C 0.91401 0.61542 0.02491 0.0
C4470 C 0.92695 0.62088 0.01439 0.0
C4471 C 0.93392 0.64019 0.01498 0.0
C4472 C 0.92793 0.65411 0.026 0.0
C4473 C 0.91501 0.64874 0.03655 0.0
H4474 H 0.94397 0.64438 0.00687 0.0
H4475 H 0.82583 0.60776 0.12117 0.0
H4476 H 0.2116 0.0647 0.79965 0.0
H4477 H 0.22726 0.09692 0.79785 0.0
H4478 H 0.18183 0.11827 0.79522 0.0
H4479 H 0.16624 0.08638 0.79773 0.0
H4480 H 0.20423 0.13218 0.76797 0.0
H4481 H 0.20432 0.13086 0.83367 0.0
H4482 H 0.20805 0.11688 0.86288 0.0
H4483 H 0.25958 0.11907 0.85702 0.0
H4484 H 0.25609 0.13285 0.82759 0.0
H4485 H 0.24607 0.23269 0.78094 0.0
H4486 H 0.22717 0.20213 0.78226 0.0
H4487 H 0.26896 0.17863 0.80204 0.0
H4488 H 0.2875 0.20885 0.80115 0.0
H4489 H 0.24619 0.16616 0.8208 0.0
H4490 H 0.24572 0.16795 0.75438 0.0
H4491 H 0.24095 0.18005 0.72426 0.0
H4492 H 0.18936 0.17627 0.73065 0.0
H4493 H 0.19386 0.16439 0.76095 0.0
C4494 C 0.2049 0.07623 0.79883 0.0
C4495 C 0.18752 0.07262 0.79911 0.0
C4496 C 0.21392 0.09479 0.79772 0.0
C4497 C 0.2059 0.11041 0.79628 0.0
C4498 C 0.18852 0.10675 0.79621 0.0
C4499 C 0.17957 0.08835 0.79783 0.0
C4500 C 0.21566 0.13053 0.79558 0.0
C4501 C 0.21327 0.13969 0.77964 0.0
C4502 C 0.22764 0.14063 0.81056 0.0
C4503 C 0.22992 0.13273 0.82838 0.0
C4504 C 0.21643 0.12825 0.83856 0.0
C4505 C 0.21849 0.12038 0.85515 0.0
C4506 C 0.23403 0.11705 0.86178 0.0
C4507 C 0.24755 0.12165 0.85185 0.0
C4508 C 0.24554 0.12951 0.83523 0.0
C4509 C 0.25122 0.22114 0.78583 0.0
C4510 C 0.26852 0.22371 0.79115 0.0
C4511 C 0.24034 0.20336 0.78635 0.0
C4512 C 0.24636 0.18744 0.79215 0.0
C4513 C 0.26361 0.19025 0.79757 0.0
C4514 C 0.27435 0.20781 0.797 0.0
C4515 C 0.23515 0.16797 0.79294 0.0
C4516 C 0.23721 0.15883 0.80902 0.0
C4517 C 0.22283 0.15796 0.77804 0.0
C4518 C 0.22019 0.16555 0.76007 0.0
C4519 C 0.2334 0.16991 0.74947 0.0
C4520 C 0.23073 0.17668 0.73234 0.0
C4521 C 0.21488 0.179 0.72558 0.0
C4522 C 0.20165 0.17453 0.73593 0.0
C4523 C 0.20425 0.16779 0.75309 0.0
H4524 H 0.21283 0.18419 0.71229 0.0
H4525 H 0.23561 0.11094 0.87462 0.0
H4526 H 0.4035 0.98605 0.29133 0.0
H4527 H 0.38695 0.95387 0.28791 0.0
H4528 H 0.34381 0.97414 0.26655 0.0
H4529 H 0.36047 1.00673 0.26991 0.0
H4530 H 0.33591 0.95079 0.29187 0.0
H4531 H 0.36476 0.94581 0.23777 0.0
H4532 H 0.38848 0.94731 0.21945 0.0
H4533 H 0.40801 0.90799 0.25127 0.0
H4534 H 0.38452 0.90644 0.26994 0.0
H4535 H 0.28557 0.857 0.27116 0.0
H4536 H 0.30078 0.88925 0.26921 0.0
H4537 H 0.34712 0.87137 0.28282 0.0
H4538 H 0.33181 0.83894 0.28388 0.0
H4539 H 0.35266 0.89396 0.25941 0.0
H4540 H 0.32632 0.90076 0.31534 0.0
H4541 H 0.30346 0.89924 0.33494 0.0
H4542 H 0.28062 0.93518 0.30169 0.0
H4543 H 0.30325 0.93673 0.28176 0.0
C4544 C 0.39048 0.98385 0.28591 0.0
C4545 C 0.38343 0.99936 0.28106 0.0
C4546 C 0.381 0.96519 0.28377 0.0
C4547 C 0.36403 0.9612 0.27672 0.0
C4548 C 0.35686 0.97662 0.27196 0.0
C4549 C 0.36642 0.99537 0.27393 0.0
C4550 C 0.35376 0.9412 0.27528 0.0
C4551 C 0.33946 0.93843 0.28445 0.0
C4552 C 0.3585 0.92473 0.26619 0.0
C4553 C 0.37295 0.92618 0.25541 0.0
C4554 C 0.37421 0.93767 0.24102 0.0
C4555 C 0.38759 0.93848 0.23053 0.0
C4556 C 0.39976 0.9278 0.23423 0.0
C4557 C 0.39859 0.91629 0.24844 0.0
C4558 C 0.38524 0.91543 0.25898 0.0
C4559 C 0.29902 0.85994 0.2735 0.0
C4560 C 0.30747 0.84534 0.27749 0.0
C4561 C 0.30778 0.87854 0.27264 0.0
C4562 C 0.3253 0.88328 0.27626 0.0
C4563 C 0.3337 0.86845 0.27995 0.0
C4564 C 0.32493 0.8498 0.28056 0.0
C4565 C 0.33486 0.90347 0.27621 0.0
C4566 C 0.34905 0.9063 0.26678 0.0
C4567 C 0.33018 0.92 0.2853 0.0
C4568 C 0.31635 0.91865 0.29693 0.0
C4569 C 0.31633 0.90817 0.31209 0.0
C4570 C 0.30344 0.90734 0.32329 0.0
C4571 C 0.29057 0.91706 0.31953 0.0
C4572 C 0.29057 0.92762 0.30456 0.0
C4573 C 0.30342 0.92848 0.29332 0.0
H4574 H 0.28062 0.91644 0.32824 0.0
H4575 H 0.41008 0.9284 0.22605 0.0
H4576 H 0.54238 0.34925 0.63689 0.0
H4577 H 0.53651 0.37662 0.622 0.0
H4578 H 0.58595 0.38651 0.60604 0.0
H4579 H 0.59177 0.35902 0.62044 0.0
H4580 H 0.57589 0.41981 0.62403 0.0
H4581 H 0.55712 0.36781 0.57343 0.0
H4582 H 0.54077 0.33678 0.55766 0.0
H4583 H 0.49553 0.35615 0.56614 0.0
H4584 H 0.51164 0.38724 0.58221 0.0
H4585 H 0.57232 0.48821 0.5636 0.0
H4586 H 0.5758 0.45901 0.5761 0.0
H4587 H 0.52309 0.4447 0.5789 0.0
H4588 H 0.51943 0.47354 0.56558 0.0
H4589 H 0.53369 0.41357 0.56858 0.0
H4590 H 0.55185 0.46555 0.61883 0.0
H4591 H 0.56785 0.4972 0.6335 0.0
H4592 H 0.61346 0.47834 0.62592 0.0
H4593 H 0.59773 0.44662 0.61105 0.0
C4594 C 0.552 0.35729 0.63023 0.0
C4595 C 0.56756 0.35201 0.62987 0.0
C4596 C 0.5486 0.37284 0.62166 0.0
C4597 C 0.56079 0.38355 0.61289 0.0
C4598 C 0.57638 0.37843 0.61273 0.0
C4599 C 0.57967 0.3627 0.62095 0.0
C4600 C 0.5575 0.40031 0.60414 0.0
C4601 C 0.56676 0.41844 0.61181 0.0
C4602 C 0.54529 0.39857 0.58851 0.0
C4603 C 0.53559 0.37974 0.57928 0.0
C4604 C 0.54369 0.36536 0.57217 0.0
C4605 C 0.53447 0.34779 0.56311 0.0
C4606 C 0.51712 0.34447 0.56097 0.0
C4607 C 0.50897 0.35873 0.56786 0.0
C4608 C 0.51814 0.37633 0.57694 0.0
C4609 C 0.56144 0.47874 0.56668 0.0
C4610 C 0.54561 0.48323 0.5637 0.0
C4611 C 0.56346 0.4621 0.57397 0.0
C4612 C 0.54977 0.44987 0.57895 0.0
C4613 C 0.53386 0.45395 0.57529 0.0
C4614 C 0.53178 0.47044 0.56766 0.0
C4615 C 0.55216 0.43312 0.58837 0.0
C4616 C 0.54272 0.415 0.58089 0.0
C4617 C 0.5641 0.43488 0.60432 0.0
C4618 C 0.57361 0.45375 0.61375 0.0
C4619 C 0.56529 0.46817 0.62027 0.0
C4620 C 0.57431 0.48612 0.62861 0.0
C4621 C 0.59166 0.48979 0.63061 0.0
C4622 C 0.60003 0.47548 0.62437 0.0
C4623 C 0.59106 0.4575 0.61602 0.0
H4624 H 0.59862 0.50371 0.63702 0.0
H4625 H 0.51001 0.33086 0.55391 0.0
H4626 H 0.45943 0.80931 0.3813 0.0
H4627 H 0.43074 0.80998 0.36904 0.0
H4628 H 0.41896 0.74851 0.36067 0.0
H4629 H 0.44751 0.74774 0.37369 0.0
H4630 H 0.41195 0.77255 0.32747 0.0
H4631 H 0.40208 0.76232 0.39066 0.0
H4632 H 0.40591 0.76976 0.42516 0.0
H4633 H 0.39262 0.82423 0.42137 0.0
H4634 H 0.38899 0.81725 0.38681 0.0
H4635 H 0.32827 0.75183 0.29217 0.0
H4636 H 0.35457 0.7522 0.31084 0.0
H4637 H 0.35308 0.80758 0.34026 0.0
H4638 H 0.32601 0.80677 0.32188 0.0
H4639 H 0.36744 0.78889 0.36388 0.0
H4640 H 0.37734 0.80115 0.30258 0.0
H4641 H 0.37445 0.79653 0.26799 0.0
H4642 H 0.38924 0.74236 0.26782 0.0
H4643 H 0.39202 0.74654 0.30241 0.0
C4644 C 0.45073 0.79591 0.37691 0.0
C4645 C 0.45586 0.77845 0.37835 0.0
C4646 C 0.43427 0.79634 0.37003 0.0
C4647 C 0.42258 0.77932 0.36404 0.0
C4648 C 0.42767 0.76185 0.36536 0.0
C4649 C 0.44403 0.76142 0.37274 0.0
C4650 C 0.40549 0.77976 0.35506 0.0
C4651 C 0.40214 0.77583 0.33545 0.0
C4652 C 0.39287 0.78495 0.36537 0.0
C4653 C 0.39554 0.78939 0.38613 0.0
C4654 C 0.40026 0.77602 0.39716 0.0
C4655 C 0.40231 0.78012 0.41674 0.0
C4656 C 0.39959 0.79749 0.42545 0.0
C4657 C 0.39479 0.8108 0.41461 0.0
C4658 C 0.39273 0.80678 0.39502 0.0
C4659 C 0.33335 0.76397 0.30287 0.0
C4660 C 0.32499 0.77925 0.30552 0.0
C4661 C 0.34858 0.76428 0.31344 0.0
C4662 C 0.35633 0.78019 0.32665 0.0
C4663 C 0.34758 0.79515 0.33008 0.0
C4664 C 0.33203 0.79466 0.31964 0.0
C4665 C 0.37367 0.78118 0.33616 0.0
C4666 C 0.37718 0.78556 0.35583 0.0
C4667 C 0.38664 0.77681 0.32589 0.0
C4668 C 0.38474 0.77409 0.30508 0.0
C4669 C 0.37984 0.78818 0.29516 0.0
C4670 C 0.37825 0.78565 0.27555 0.0
C4671 C 0.38162 0.76914 0.26572 0.0
C4672 C 0.38661 0.75513 0.27546 0.0
C4673 C 0.3882 0.75758 0.29506 0.0
H4674 H 0.38041 0.76722 0.25054 0.0
H4675 H 0.40113 0.80061 0.44061 0.0
H4676 H 0.03075 0.75061 0.1138 0.0
H4677 H 0.02837 0.7168 0.10069 0.0
H4678 H 0.07571 0.71654 0.13197 0.0
H4679 H 0.07815 0.75009 0.14458 0.0
H4680 H 0.07424 0.69963 0.09787 0.0
H4681 H 0.03929 0.69764 0.14651 0.0
H4682 H 0.01642 0.7044 0.16402 0.0
H4683 H 0.98088 0.67723 0.11666 0.0
H4684 H 1.00356 0.67061 0.09871 0.0
H4685 H 0.07055 0.59959 0.08917 0.0
H4686 H 0.072 0.63295 0.10227 0.0
H4687 H 0.02525 0.63256 0.06947 0.0
H4688 H 0.02347 0.59913 0.05688 0.0
H4689 H 0.02611 0.64954 0.10468 0.0
H4690 H 0.06327 0.65323 0.05624 0.0
H4691 H 0.08714 0.64505 0.04136 0.0
H4692 H 0.11957 0.66812 0.09236 0.0
H4693 H 0.09586 0.67626 0.10758 0.0
C4694 C 0.04073 0.7433 0.1174 0.0
C4695 C 0.05478 0.75274 0.12974 0.0
C4696 C 0.03929 0.72404 0.1102 0.0
C4697 C 0.05182 0.71419 0.11552 0.0
C4698 C 0.06595 0.7239 0.12764 0.0
C4699 C 0.06739 0.74301 0.13472 0.0
C4700 C 0.05057 0.69383 0.10838 0.0
C4701 C 0.06375 0.68868 0.0995 0.0
C4702 C 0.03685 0.67959 0.11048 0.0
C4703 C 0.02317 0.68389 0.12114 0.0
C4704 C 0.02662 0.69333 0.13972 0.0
C4705 C 1.01368 0.69709 0.14975 0.0
C4706 C 0.99721 0.69132 0.14143 0.0
C4707 C 0.99365 0.68175 0.12307 0.0
C4708 C 1.00654 0.678 0.11295 0.0
C4709 C 0.06074 0.60675 0.08457 0.0
C4710 C 0.047 0.59693 0.07188 0.0
C4711 C 0.06152 0.62573 0.09211 0.0
C4712 C 0.04879 0.63523 0.08668 0.0
C4713 C 0.03516 0.62545 0.07387 0.0
C4714 C 0.03425 0.60644 0.06658 0.0
C4715 C 0.0497 0.65549 0.09406 0.0
C4716 C 0.0365 0.66059 0.103 0.0
C4717 C 0.06352 0.66971 0.09237 0.0
C4718 C 0.0778 0.66525 0.08305 0.0
C4719 C 0.0755 0.65651 0.06427 0.0
C4720 C 0.08899 0.65188 0.05579 0.0
C4721 C 0.10486 0.65604 0.06591 0.0
C4722 C 0.10728 0.66491 0.08453 0.0
C4723 C 0.09383 0.66957 0.09308 0.0
H4724 H 0.11529 0.65241 0.05933 0.0
H4725 H 0.98721 0.69421 0.14923 0.0
H4726 H 0.04866 0.27893 0.86198 0.0
H4727 H 0.07674 0.28528 0.85316 0.0
H4728 H 0.0968 0.27955 0.90913 0.0
H4729 H 0.06866 0.27504 0.91837 0.0
H4730 H 0.11875 0.30281 0.89808 0.0
H4731 H 0.08985 0.24164 0.86805 0.0
H4732 H 0.06693 0.21792 0.84919 0.0
H4733 H 0.07388 0.2468 0.80119 0.0
H4734 H 0.09671 0.27081 0.81983 0.0
H4735 H 0.19363 0.28121 0.86127 0.0
H4736 H 0.168 0.28004 0.87599 0.0
H4737 H 0.1446 0.29889 0.82767 0.0
H4738 H 0.16985 0.29967 0.81276 0.0
H4739 H 0.12568 0.26732 0.83717 0.0
H4740 H 0.15704 0.32827 0.87047 0.0
H4741 H 0.18104 0.34852 0.89102 0.0
H4742 H 0.17114 0.31486 0.93517 0.0
H4743 H 0.1472 0.29425 0.9148 0.0
C4744 C 0.0591 0.27931 0.87246 0.0
C4745 C 0.05643 0.27638 0.89081 0.0
C4746 C 0.07522 0.28271 0.86737 0.0
C4747 C 0.08912 0.28214 0.88018 0.0
C4748 C 0.08647 0.27992 0.8988 0.0
C4749 C 0.07034 0.27729 0.9041 0.0
C4750 C 0.10611 0.2831 0.87385 0.0
C4751 C 0.12021 0.29484 0.88485 0.0
C4752 C 0.10844 0.27264 0.85669 0.0
C4753 C 0.09488 0.25808 0.84537 0.0
C4754 C 0.08644 0.24296 0.85349 0.0
C4755 C 0.07347 0.22947 0.84284 0.0
C4756 C 0.06893 0.23088 0.82401 0.0
C4757 C 0.0774 0.24574 0.81577 0.0
C4758 C 0.09037 0.25927 0.82636 0.0
C4759 C 0.18305 0.28517 0.85378 0.0
C4760 C 0.18394 0.29056 0.83574 0.0
C4761 C 0.16841 0.28465 0.86233 0.0
C4762 C 0.15429 0.28948 0.85303 0.0
C4763 C 0.15528 0.29515 0.83521 0.0
C4764 C 0.16985 0.29574 0.82673 0.0
C4765 C 0.13808 0.28745 0.86102 0.0
C4766 C 0.12415 0.2753 0.85038 0.0
C4767 C 0.13614 0.29702 0.87874 0.0
C4768 C 0.1504 0.30961 0.89104 0.0
C4769 C 0.16004 0.3251 0.88451 0.0
C4770 C 0.17363 0.33666 0.89614 0.0
C4771 C 0.17763 0.33295 0.91437 0.0
C4772 C 0.16803 0.31771 0.92104 0.0
C4773 C 0.15444 0.3061 0.90947 0.0
H4774 H 0.18816 0.34191 0.92334 0.0
H4775 H 0.05887 0.22044 0.8158 0.0
H4776 H 0.52707 0.78421 0.97083 0.0
H4777 H 0.5146 0.75012 0.96906 0.0
H4778 H 0.56334 0.73626 0.97028 0.0
H4779 H 0.57575 0.76989 0.97246 0.0
H4780 H 0.53924 0.70861 0.94725 0.0
H4781 H 0.55122 0.7444 0.00931 0.0
H4782 H 0.54967 0.77156 0.03288 0.0
H4783 H 0.49665 0.75365 0.02769 0.0
H4784 H 0.49789 0.7266 1.00368 0.0
H4785 H 0.55371 0.64212 0.00766 0.0
H4786 H 0.55207 0.66811 0.98933 0.0
H4787 H 0.49941 0.66064 0.99257 0.0
H4788 H 0.50089 0.63429 0.01069 0.0
H4789 H 0.51776 0.69678 0.00726 0.0
H4790 H 0.51224 0.65209 0.95093 0.0
H4791 H 0.5202 0.62579 0.931 0.0
H4792 H 0.56809 0.66063 0.92967 0.0
H4793 H 0.56057 0.68702 0.94989 0.0
C4794 C 0.53502 0.7738 0.97071 0.0
C4795 C 0.55236 0.77961 0.97253 0.0
C4796 C 0.52791 0.75442 0.96938 0.0
C4797 C 0.53811 0.7408 0.9695 0.0
C4798 C 0.5553 0.74657 0.97004 0.0
C4799 C 0.56237 0.76582 0.97175 0.0
C4800 C 0.53163 0.72119 0.97269 0.0
C4801 C 0.53424 0.70585 0.96017 0.0
C4802 C 0.52541 0.71784 0.98971 0.0
C4803 C 0.52461 0.73371 1.00449 0.0
C4804 C 0.53922 0.74636 0.01307 0.0
C4805 C 0.5384 0.76173 0.02651 0.0
C4806 C 0.52306 0.76439 0.03172 0.0
C4807 C 0.50852 0.75162 0.02357 0.0
C4808 C 0.50926 0.73628 0.01002 0.0
C4809 C 0.54169 0.64561 1.00399 0.0
C4810 C 0.52744 0.63638 0.01074 0.0
C4811 C 0.54077 0.66041 0.99347 0.0
C4812 C 0.52558 0.6661 0.98953 0.0
C4813 C 0.51119 0.6563 0.99545 0.0
C4814 C 0.51209 0.64145 0.00591 0.0
C4815 C 0.52538 0.68404 0.98186 0.0
C4816 C 0.5218 0.69921 0.99379 0.0
C4817 C 0.53143 0.68723 0.96469 0.0
C4818 C 0.5358 0.67158 0.95195 0.0
C4819 C 0.52448 0.65414 0.94644 0.0
C4820 C 0.52893 0.6392 0.9351 0.0
C4821 C 0.54463 0.64154 0.92907 0.0
C4822 C 0.55592 0.65885 0.93433 0.0
C4823 C 0.55155 0.67382 0.9457 0.0
H4824 H 0.54806 0.62995 0.92032 0.0
H4825 H 0.52244 0.7763 0.04212 0.0
H4826 H 0.0466 0.73134 0.66708 0.0
H4827 H 0.07454 0.73447 0.68356 0.0
H4828 H 0.09354 0.77625 0.64902 0.0
H4829 H 0.06532 0.77372 0.63301 0.0
H4830 H 0.11164 0.74466 0.65533 0.0
H4831 H 0.08723 0.79376 0.68728 0.0
H4832 H 0.06622 0.80648 0.70416 0.0
H4833 H 0.07338 0.7715 0.74709 0.0
H4834 H 0.09421 0.75827 0.73028 0.0
H4835 H 0.18997 0.77586 0.70276 0.0
H4836 H 0.16251 0.78 0.69 0.0
H4837 H 0.14028 0.74759 0.73065 0.0
H4838 H 0.16779 0.74372 0.74366 0.0
H4839 H 0.12339 0.77541 0.72182 0.0
H4840 H 0.14533 0.72468 0.69104 0.0
H4841 H 0.16522 0.7091 0.67482 0.0
H4842 H 0.16093 0.74295 0.63032 0.0
H4843 H 0.14132 0.75909 0.64652 0.0
C4844 C 0.05692 0.74061 0.66258 0.0
C4845 C 0.05422 0.75201 0.64866 0.0
C4846 C 0.07266 0.74263 0.67217 0.0
C4847 C 0.08575 0.75583 0.6676 0.0
C4848 C 0.08334 0.76617 0.65269 0.0
C4849 C 0.06745 0.76451 0.64341 0.0
C4850 C 0.10202 0.7588 0.67846 0.0
C4851 C 0.11439 0.75171 0.66975 0.0
C4852 C 0.10501 0.76724 0.69748 0.0
C4853 C 0.09213 0.77481 0.70734 0.0
C4854 C 0.08414 0.78854 0.70016 0.0
C4855 C 0.07231 0.7959 0.70976 0.0
C4856 C 0.06842 0.78975 0.72665 0.0
C4857 C 0.07637 0.77621 0.73398 0.0
C4858 C 0.08819 0.76878 0.72441 0.0
C4859 C 0.17922 0.77007 0.70921 0.0
C4860 C 0.1807 0.75912 0.7238 0.0
C4861 C 0.16366 0.77249 0.70202 0.0
C4862 C 0.14953 0.76367 0.70918 0.0
C4863 C 0.15115 0.75437 0.72497 0.0
C4864 C 0.16676 0.75211 0.73231 0.0
C4865 C 0.13319 0.76167 0.69851 0.0
C4866 C 0.12073 0.76864 0.70732 0.0
C4867 C 0.12991 0.75267 0.67965 0.0
C4868 C 0.14207 0.74333 0.67016 0.0
C4869 C 0.14882 0.72902 0.67795 0.0
C4870 C 0.16001 0.72005 0.66873 0.0
C4871 C 0.16439 0.72508 0.65158 0.0
C4872 C 0.15759 0.73912 0.64364 0.0
C4873 C 0.14646 0.74821 0.65285 0.0
H4874 H 0.17299 0.71806 0.64442 0.0
H4875 H 0.0593 0.79552 0.7341 0.0
H4876 H 0.03641 0.36438 0.4863 0.0
H4877 H 0.02295 0.39137 0.48528 0.0
H4878 H 0.06077 0.41825 0.45461 0.0
H4879 H 0.07426 0.39063 0.45512 0.0
H4880 H 0.06331 0.42952 0.49366 0.0
H4881 H 0.02104 0.42872 0.44059 0.0
H4882 H 0.99683 0.41458 0.41708 0.0
H4883 H 0.96904 0.3951 0.46054 0.0
H4884 H 0.99295 0.40983 0.48436 0.0
H4885 H 0.05908 0.50846 0.53784 0.0
H4886 H 0.05145 0.48712 0.50892 0.0
H4887 H 1.01178 0.45421 0.53298 0.0
H4888 H 0.0166 0.47945 0.5606 0.0
H4889 H 1.00844 0.44872 0.49166 0.0
H4890 H 0.04667 0.44381 0.54408 0.0
H4891 H 0.06831 0.45672 0.57094 0.0
H4892 H 0.1019 0.47866 0.53357 0.0
H4893 H 0.08038 0.46614 0.50661 0.0
C4894 C 0.04193 0.37604 0.47936 0.0
C4895 C 0.05699 0.37617 0.47191 0.0
C4896 C 0.03374 0.39101 0.47795 0.0
C4897 C 0.04086 0.40668 0.46979 0.0
C4898 C 0.05501 0.40604 0.46068 0.0
C4899 C 0.06308 0.39079 0.46176 0.0
C4900 C 0.03857 0.42504 0.47869 0.0
C4901 C 0.05147 0.43413 0.49271 0.0
C4902 C 0.02277 0.42993 0.47838 0.0
C4903 C 1.00875 0.42025 0.46415 0.0
C4904 C 1.00979 0.4213 0.44507 0.0
C4905 C 0.99609 0.41331 0.43173 0.0
C4906 C 0.98142 0.40381 0.43729 0.0
C4907 C 0.98039 0.40245 0.45624 0.0
C4908 C 0.99396 0.41077 0.46968 0.0
C4909 C 0.04795 0.49758 0.53653 0.0
C4910 C 0.03816 0.49576 0.55111 0.0
C4911 C 0.04361 0.48538 0.52001 0.0
C4912 C 0.03137 0.46904 0.51918 0.0
C4913 C 0.02126 0.46693 0.53356 0.0
C4914 C 0.02438 0.48079 0.54944 0.0
C4915 C 0.0331 0.45266 0.50633 0.0
C4916 C 0.02028 0.44418 0.49209 0.0
C4917 C 0.04866 0.44707 0.50712 0.0
C4918 C 0.06191 0.45401 0.52329 0.0
C4919 C 0.05868 0.45139 0.54161 0.0
C4920 C 0.07091 0.45866 0.55686 0.0
C4921 C 0.08648 0.46849 0.55397 0.0
C4922 C 0.08986 0.471 0.5358 0.0
C4923 C 0.07766 0.46376 0.52051 0.0
H4924 H 0.09592 0.47416 0.5658 0.0
H4925 H 0.97083 0.39756 0.42692 0.0
H4926 H 0.46468 0.25161 0.16385 0.0
H4927 H 0.43848 0.24594 0.17655 0.0
H4928 H 0.46406 0.24278 0.23072 0.0
H4929 H 0.49064 0.248 0.21803 0.0
H4930 H 0.42682 0.21945 0.2173 0.0
H4931 H 0.46474 0.28296 0.22918 0.0
H4932 H 0.48456 0.30664 0.21649 0.0
H4933 H 0.44653 0.31051 0.17291 0.0
H4934 H 0.4266 0.28645 0.1851 0.0
H4935 H 0.37994 0.27171 0.27768 0.0
H4936 H 0.40001 0.25544 0.26287 0.0
H4937 H 0.38338 0.27109 0.20952 0.0
H4938 H 0.36373 0.28766 0.22417 0.0
H4939 H 0.4162 0.2855 0.22261 0.0
H4940 H 0.37649 0.22723 0.21512 0.0
H4941 H 0.35725 0.19987 0.22318 0.0
H4942 H 0.39759 0.18341 0.25515 0.0
H4943 H 0.417 0.21116 0.248 0.0
C4944 C 0.46479 0.24949 0.17843 0.0
C4945 C 0.47967 0.25107 0.19027 0.0
C4946 C 0.4498 0.2457 0.18544 0.0
C4947 C 0.44962 0.24402 0.20442 0.0
C4948 C 0.46422 0.24392 0.21594 0.0
C4949 C 0.47932 0.2475 0.20886 0.0
C4950 C 0.43548 0.24842 0.21304 0.0
C4951 C 0.42444 0.23385 0.2189 0.0
C4952 C 0.43264 0.26722 0.21439 0.0
C4953 C 0.4442 0.28287 0.20802 0.0
C4954 C 0.46061 0.28887 0.2169 0.0
C4955 C 0.47188 0.30231 0.20977 0.0
C4956 C 0.46681 0.31007 0.1939 0.0
C4957 C 0.45044 0.30448 0.18521 0.0
C4958 C 0.43914 0.29096 0.19223 0.0
C4959 C 0.38054 0.27149 0.26277 0.0
C4960 C 0.37058 0.28115 0.25205 0.0
C4961 C 0.39173 0.26198 0.25433 0.0
C4962 C 0.39296 0.26212 0.2352 0.0
C4963 C 0.38238 0.2708 0.22431 0.0
C4964 C 0.37126 0.28028 0.23269 0.0
C4965 C 0.40714 0.25647 0.22721 0.0
C4966 C 0.41841 0.27101 0.22141 0.0
C4967 C 0.41007 0.23763 0.22602 0.0
C4968 C 0.3982 0.22155 0.23126 0.0
C4969 C 0.38123 0.21809 0.22424 0.0
C4970 C 0.37029 0.20243 0.22859 0.0
C4971 C 0.3762 0.1899 0.23964 0.0
C4972 C 0.39303 0.19311 0.24656 0.0
C4973 C 0.40399 0.20888 0.24247 0.0
H4974 H 0.36773 0.17769 0.24283 0.0
H4975 H 0.47556 0.32042 0.18835 0.0
H4976 H 0.64319 0.51459 0.37568 0.0
H4977 H 0.63126 0.51617 0.4053 0.0
H4978 H 0.58996 0.53654 0.37906 0.0
H4979 H 0.60274 0.53647 0.34995 0.0
H4980 H 0.59254 0.55282 0.41005 0.0
H4981 H 0.59199 0.48584 0.39557 0.0
H4982 H 0.60292 0.45645 0.38834 0.0
H4983 H 0.63632 0.47102 0.43967 0.0
H4984 H 0.6257 0.50059 0.44711 0.0
H4985 H 0.53765 0.52871 0.47796 0.0
H4986 H 0.55285 0.52881 0.45081 0.0
H4987 H 0.5983 0.53146 0.48666 0.0
H4988 H 0.5829 0.53169 0.51435 0.0
H4989 H 0.59469 0.50426 0.45272 0.0
H4990 H 0.59136 0.57032 0.46736 0.0
H4991 H 0.5771 0.59718 0.47409 0.0
H4992 H 0.54699 0.58095 0.4206 0.0
H4993 H 0.56088 0.55379 0.41367 0.0
C4994 C 0.63153 0.51937 0.37614 0.0
C4995 C 0.62408 0.52534 0.36001 0.0
C4996 C 0.62444 0.52007 0.3933 0.0
C4997 C 0.60914 0.52604 0.39509 0.0
C4998 C 0.60169 0.53188 0.37881 0.0
C4999 C 0.60904 0.53173 0.36183 0.0
C5000 C 0.60117 0.52681 0.41368 0.0
C5001 C 0.59293 0.54187 0.41903 0.0
C5002 C 0.60157 0.51308 0.4264 0.0
C5003 C 0.60821 0.49554 0.42176 0.0
C5004 C 0.60177 0.48286 0.40522 0.0
C5005 C 0.60788 0.46615 0.40111 0.0
C5006 C 0.62035 0.46191 0.4135 0.0
C5007 C 0.6267 0.47435 0.43006 0.0
C5008 C 0.62064 0.49108 0.43423 0.0
C5009 C 0.55094 0.52948 0.48032 0.0
C5010 C 0.55887 0.53032 0.49878 0.0
C5011 C 0.55972 0.52956 0.46453 0.0
C5012 C 0.57696 0.53022 0.4662 0.0
C5013 C 0.58505 0.53096 0.48462 0.0
C5014 C 0.57622 0.53124 0.50064 0.0
C5015 C 0.58611 0.53002 0.44866 0.0
C5016 C 0.59446 0.51511 0.44358 0.0
C5017 C 0.58542 0.54355 0.43593 0.0
C5018 C 0.5771 0.55993 0.44005 0.0
C5019 C 0.58161 0.57239 0.45709 0.0
C5020 C 0.57361 0.58768 0.46093 0.0
C5021 C 0.56114 0.59076 0.44779 0.0
C5022 C 0.55665 0.57855 0.43077 0.0
C5023 C 0.5646 0.56321 0.42687 0.0
H5024 H 0.55497 0.60262 0.45079 0.0
H5025 H 0.62505 0.44896 0.4103 0.0
H5026 H 0.24532 0.88772 0.07106 0.0
H5027 H 0.2633 0.8802 0.09695 0.0
H5028 H 0.26083 0.82409 0.06648 0.0
H5029 H 0.24224 0.83102 0.04134 0.0
H5030 H 0.25899 0.82183 0.10053 0.0
H5031 H 0.29485 0.86278 0.06766 0.0
H5032 H 0.30371 0.89209 0.05389 0.0
H5033 H 0.31058 0.92555 0.1084 0.0
H5034 H 0.30151 0.89647 0.12251 0.0
H5035 H 0.31435 0.79574 0.16032 0.0
H5036 H 0.312 0.80972 0.13143 0.0
H5037 H 0.30034 0.85993 0.1618 0.0
H5038 H 0.30294 0.84616 0.19087 0.0
H5039 H 0.31296 0.86496 0.12522 0.0
H5040 H 0.26911 0.82607 0.15431 0.0
H5041 H 0.25518 0.79789 0.16702 0.0
H5042 H 0.26176 0.76136 0.118 0.0
H5043 H 0.27571 0.78937 0.10502 0.0
C5044 C 0.24808 0.87352 0.07035 0.0
C5045 C 0.24241 0.85995 0.05428 0.0
C5046 C 0.25868 0.86944 0.08484 0.0
C5047 C 0.2639 0.85191 0.08317 0.0
C5048 C 0.25713 0.83783 0.06785 0.0
C5049 C 0.24624 0.8417 0.05365 0.0
C5050 C 0.27582 0.84769 0.09775 0.0
C5051 C 0.27098 0.83104 0.10553 0.0
C5052 C 0.2913 0.86 0.1045 0.0
C5053 C 0.2973 0.87744 0.09612 0.0
C5054 C 0.29813 0.8764 0.07671 0.0
C5055 C 0.30314 0.89299 0.06882 0.0
C5056 C 0.30751 0.9107 0.08022 0.0
C5057 C 0.30707 0.91183 0.09957 0.0
C5058 C 0.30202 0.89529 0.10752 0.0
C5059 C 0.31238 0.81027 0.16108 0.0
C5060 C 0.3083 0.81969 0.17759 0.0
C5061 C 0.31106 0.81824 0.14455 0.0
C5062 C 0.30559 0.83555 0.14457 0.0
C5063 C 0.30451 0.84649 0.16161 0.0
C5064 C 0.30585 0.83854 0.17816 0.0
C5065 C 0.29605 0.83901 0.1276 0.0
C5066 C 0.30122 0.85554 0.1196 0.0
C5067 C 0.28078 0.82662 0.12042 0.0
C5068 C 0.27382 0.8097 0.12896 0.0
C5069 C 0.26788 0.81198 0.14645 0.0
C5070 C 0.25989 0.79607 0.15363 0.0
C5071 C 0.25775 0.77783 0.14342 0.0
C5072 C 0.26356 0.77547 0.12598 0.0
C5073 C 0.27151 0.79135 0.1187 0.0
H5074 H 0.25148 0.76554 0.14897 0.0
H5075 H 0.3114 0.92352 0.07408 0.0
H5076 H 0.95637 0.57682 0.86413 0.0
H5077 H 0.97024 0.5759 0.89567 0.0
H5078 H 0.96655 0.51526 0.88219 0.0
H5079 H 0.95319 0.51621 0.85046 0.0
H5080 H 0.95737 0.52712 0.91971 0.0
H5081 H 1.00299 0.54287 0.88321 0.0
H5082 H 0.01878 0.5624 0.86277 0.0
H5083 H 0.02471 0.61202 0.9042 0.0
H5084 H 1.00878 0.59281 0.92479 0.0
H5085 H 1.00895 0.5134 1.00155 0.0
H5086 H 0.99401 0.51346 0.9705 0.0
H5087 H 0.01645 0.57285 0.97253 0.0
H5088 H 0.03223 0.57222 1.0028 0.0
H5089 H 0.0153 0.5615 0.94014 0.0
H5090 H 0.97057 0.5502 0.97644 0.0
H5091 H 0.9525 0.53476 0.99764 0.0
H5092 H 0.94188 0.48246 0.95916 0.0
H5093 H 0.96006 0.49753 0.93783 0.0
C5094 C 0.95855 0.56326 0.86777 0.0
C5095 C 0.95361 0.54662 0.85435 0.0
C5096 C 0.96654 0.56273 0.88598 0.0
C5097 C 0.96961 0.54549 0.89175 0.0
C5098 C 0.96444 0.52882 0.87846 0.0
C5099 C 0.95682 0.52942 0.86011 0.0
C5100 C 0.97843 0.54488 0.91132 0.0
C5101 C 0.97012 0.53446 0.92408 0.0
C5102 C 0.99488 0.55498 0.91774 0.0
C5103 C 1.00458 0.56645 0.90545 0.0
C5104 C 1.00756 0.55797 0.8879 0.0
C5105 C 0.01656 0.56898 0.8763 0.0
C5106 C 0.02271 0.58845 0.88216 0.0
C5107 C 0.01993 0.59694 0.89967 0.0
C5108 C 1.01093 0.586 0.91131 0.0
C5109 C 1.01062 0.52653 0.99544 0.0
C5110 C 0.02189 0.54284 1.00501 0.0
C5111 C 1.00186 0.52665 0.97751 0.0
C5112 C 1.00352 0.5433 0.96858 0.0
C5113 C 1.01467 0.55962 0.97844 0.0
C5114 C 0.02373 0.55933 0.99607 0.0
C5115 C 0.99429 0.54375 0.94899 0.0
C5116 C 1.00253 0.55413 0.93607 0.0
C5117 C 0.97752 0.53418 0.94272 0.0
C5118 C 0.96684 0.52493 0.95564 0.0
C5119 C 0.9645 0.53536 0.97258 0.0
C5120 C 0.95422 0.52668 0.98461 0.0
C5121 C 0.94609 0.50762 0.97978 0.0
C5122 C 0.94822 0.49721 0.9629 0.0
C5123 C 0.95851 0.50581 0.95084 0.0
H5124 H 0.93811 0.50094 0.98909 0.0
H5125 H 0.02966 0.59694 0.87316 0.0
H5126 H 0.2922 0.17848 0.58734 0.0
H5127 H 0.29362 0.19341 0.61965 0.0
H5128 H 0.27089 0.23817 0.60063 0.0
H5129 H 0.26936 0.22324 0.56794 0.0
H5130 H 0.29763 0.25052 0.63158 0.0
H5131 H 0.24696 0.20174 0.61393 0.0
H5132 H 0.23165 0.16906 0.60176 0.0
H5133 H 0.25889 0.14707 0.64496 0.0
H5134 H 0.27451 0.17958 0.65722 0.0
H5135 H 0.26883 0.28124 0.71824 0.0
H5136 H 0.26881 0.26922 0.68485 0.0
H5137 H 0.29006 0.22211 0.70061 0.0
H5138 H 0.29054 0.23433 0.73377 0.0
H5139 H 0.26392 0.21125 0.67121 0.0
H5140 H 0.31486 0.25441 0.68862 0.0
H5141 H 0.33418 0.28438 0.70214 0.0
H5142 H 0.31189 0.31391 0.66149 0.0
H5143 H 0.29217 0.28412 0.64793 0.0
C5144 C 0.28767 0.19165 0.58991 0.0
C5145 C 0.28042 0.19952 0.57502 0.0
C5146 C 0.2885 0.20014 0.60844 0.0
C5147 C 0.28206 0.21666 0.61253 0.0
C5148 C 0.27582 0.22533 0.59772 0.0
C5149 C 0.27498 0.2168 0.57907 0.0
C5150 C 0.28085 0.224 0.63229 0.0
C5151 C 0.28999 0.24214 0.64015 0.0
C5152 C 0.27153 0.21261 0.6437 0.0
C5153 C 0.26199 0.19309 0.6364 0.0
C5154 C 0.24976 0.18992 0.62075 0.0
C5155 C 0.24102 0.17143 0.61385 0.0
C5156 C 0.24432 0.15599 0.62256 0.0
C5157 C 0.25635 0.15903 0.63821 0.0
C5158 C 0.26513 0.17748 0.64515 0.0
C5159 C 0.27328 0.26821 0.71448 0.0
C5160 C 0.2797 0.25868 0.72844 0.0
C5161 C 0.27337 0.26144 0.6955 0.0
C5162 C 0.27954 0.24485 0.69033 0.0
C5163 C 0.28528 0.23493 0.70431 0.0
C5164 C 0.28556 0.24193 0.7232 0.0
C5165 C 0.28037 0.23797 0.67038 0.0
C5166 C 0.27131 0.21982 0.66255 0.0
C5167 C 0.29023 0.24905 0.65922 0.0
C5168 C 0.30183 0.2671 0.66747 0.0
C5169 C 0.3139 0.26735 0.68274 0.0
C5170 C 0.32496 0.28429 0.69037 0.0
C5171 C 0.32421 0.30107 0.68273 0.0
C5172 C 0.31241 0.30091 0.66743 0.0
C5173 C 0.30127 0.284 0.65977 0.0
H5174 H 0.33281 0.31417 0.68863 0.0
H5175 H 0.23754 0.14169 0.61719 0.0
H5176 H 0.60411 0.49936 0.25664 0.0
H5177 H 0.58973 0.50059 0.22525 0.0
H5178 H 0.63664 0.52234 0.20693 0.0
H5179 H 0.65101 0.52028 0.23768 0.0
H5180 H 0.60725 0.54377 0.20009 0.0
H5181 H 0.62496 0.48379 0.18789 0.0
H5182 H 0.62732 0.45119 0.19334 0.0
H5183 H 0.57419 0.43402 0.18539 0.0
H5184 H 0.57152 0.46661 0.18 0.0
H5185 H 0.58301 0.54861 0.10388 0.0
H5186 H 0.5972 0.54444 0.13387 0.0
H5187 H 0.55957 0.49478 0.13611 0.0
H5188 H 0.54651 0.49785 0.10488 0.0
H5189 H 0.58389 0.4872 0.15243 0.0
H5190 H 0.56618 0.54798 0.16388 0.0
H5191 H 0.56457 0.5809 0.15872 0.0
H5192 H 0.61773 0.59725 0.16903 0.0
H5193 H 0.61966 0.56441 0.17409 0.0
C5194 C 0.61137 0.50425 0.24588 0.0
C5195 C 0.62883 0.50955 0.24987 0.0
C5196 C 0.60312 0.50494 0.22784 0.0
C5197 C 0.612 0.51154 0.21342 0.0
C5198 C 0.62937 0.51709 0.21754 0.0
C5199 C 0.63762 0.51583 0.23526 0.0
C5200 C 0.60336 0.51323 0.19428 0.0
C5201 C 0.60218 0.53138 0.18964 0.0
C5202 C 0.59651 0.49722 0.18049 0.0
C5203 C 0.59804 0.4777 0.18387 0.0
C5204 C 0.61378 0.47313 0.18754 0.0
C5205 C 0.61518 0.45464 0.19055 0.0
C5206 C 0.60091 0.44058 0.18986 0.0
C5207 C 0.58522 0.44497 0.18605 0.0
C5208 C 0.58376 0.46343 0.18296 0.0
C5209 C 0.57774 0.53679 0.11077 0.0
C5210 C 0.56342 0.52375 0.10192 0.0
C5211 C 0.58578 0.53452 0.1283 0.0
C5212 C 0.5793 0.51974 0.13836 0.0
C5213 C 0.56505 0.5065 0.12924 0.0
C5214 C 0.55742 0.5083 0.11126 0.0
C5215 C 0.5874 0.51793 0.158 0.0
C5216 C 0.58862 0.49971 0.1628 0.0
C5217 C 0.59426 0.53396 0.17204 0.0
C5218 C 0.59306 0.55372 0.16922 0.0
C5219 C 0.57752 0.5586 0.165 0.0
C5220 C 0.57655 0.57723 0.16209 0.0
C5221 C 0.59104 0.59114 0.16351 0.0
C5222 C 0.60652 0.58647 0.16792 0.0
C5223 C 0.60756 0.56786 0.17084 0.0
H5224 H 0.59026 0.60555 0.16122 0.0
H5225 H 0.60202 0.42626 0.19212 0.0
H5226 H 0.27448 0.85573 0.96568 0.0
H5227 H 0.28535 0.85053 0.93567 0.0
H5228 H 0.23525 0.8321 0.90756 0.0
H5229 H 0.22429 0.83757 0.93779 0.0
H5230 H 0.2574 0.80487 0.9067 0.0
H5231 H 0.25514 0.86956 0.89686 0.0
H5232 H 0.26157 0.90462 0.90479 0.0
H5233 H 0.31365 0.90462 0.90572 0.0
H5234 H 0.30754 0.8695 0.89809 0.0
H5235 H 0.25139 0.79726 0.81266 0.0
H5236 H 0.25632 0.81831 0.8425 0.0
H5237 H 0.30148 0.79843 0.8573 0.0
H5238 H 0.29652 0.77701 0.82727 0.0
H5239 H 0.28912 0.84642 0.86725 0.0
H5240 H 0.28979 0.77918 0.88254 0.0
H5241 H 0.28133 0.74452 0.87171 0.0
H5242 H 0.23082 0.75069 0.85896 0.0
H5243 H 0.23908 0.78542 0.86948 0.0
C5244 C 0.26585 0.85087 0.95296 0.0
C5245 C 0.24869 0.8466 0.95365 0.0
C5246 C 0.27203 0.84819 0.93596 0.0
C5247 C 0.26103 0.84111 0.91966 0.0
C5248 C 0.24378 0.83776 0.9202 0.0
C5249 C 0.23757 0.84065 0.93727 0.0
C5250 C 0.26754 0.8338 0.90294 0.0
C5251 C 0.2645 0.81396 0.8982 0.0
C5252 C 0.27722 0.84577 0.89241 0.0
C5253 C 0.28089 0.86687 0.89718 0.0
C5254 C 0.26797 0.877 0.89901 0.0
C5255 C 0.27156 0.8969 0.90338 0.0
C5256 C 0.28801 0.90684 0.90583 0.0
C5257 C 0.30091 0.8969 0.90387 0.0
C5258 C 0.29739 0.877 0.89951 0.0
C5259 C 0.2624 0.79745 0.82224 0.0
C5260 C 0.27341 0.78533 0.81814 0.0
C5261 C 0.26543 0.8098 0.83895 0.0
C5262 C 0.27933 0.8099 0.85175 0.0
C5263 C 0.29085 0.79858 0.84729 0.0
C5264 C 0.28783 0.78618 0.83048 0.0
C5265 C 0.27882 0.81762 0.87109 0.0
C5266 C 0.28277 0.83743 0.87637 0.0
C5267 C 0.2701 0.80571 0.88239 0.0
C5268 C 0.26505 0.7848 0.87671 0.0
C5269 C 0.27689 0.7731 0.87741 0.0
C5270 C 0.27214 0.75347 0.8713 0.0
C5271 C 0.25555 0.74541 0.86463 0.0
C5272 C 0.24367 0.75695 0.86411 0.0
C5273 C 0.24837 0.77659 0.87015 0.0
H5274 H 0.2519 0.73022 0.85989 0.0
H5275 H 0.29076 0.92225 0.90919 0.0
H5276 H 0.96579 0.5561 0.75896 0.0
H5277 H 0.97908 0.55313 0.73003 0.0
H5278 H 0.9321 0.55007 0.69695 0.0
H5279 H 0.9189 0.55362 0.72566 0.0
H5280 H 0.95027 0.52247 0.68146 0.0
H5281 H 0.95822 0.58966 0.701 0.0
H5282 H 0.9667 0.61956 0.72318 0.0
H5283 H 0.01695 0.61092 0.72955 0.0
H5284 H 1.00869 0.5808 0.70757 0.0
H5285 H 0.98148 0.53487 0.59337 0.0
H5286 H 0.96711 0.53661 0.62137 0.0
H5287 H 1.01422 0.556 0.65611 0.0
H5288 H 0.02848 0.55517 0.62814 0.0
H5289 H 0.99504 0.57468 0.67074 0.0
H5290 H 0.98683 0.50698 0.65008 0.0
H5291 H 0.97782 0.47758 0.62726 0.0
H5292 H 0.92777 0.48688 0.6224 0.0
H5293 H 0.93652 0.51647 0.64505 0.0
C5294 C 0.95826 0.55491 0.74557 0.0
C5295 C 0.94119 0.55539 0.74496 0.0
C5296 C 0.96591 0.55314 0.72891 0.0
C5297 C 0.95671 0.55131 0.71099 0.0
C5298 C 0.93962 0.55137 0.71037 0.0
C5299 C 0.93207 0.55359 0.72698 0.0
C5300 C 0.96494 0.55009 0.69305 0.0
C5301 C 0.95998 0.53397 0.67909 0.0
C5302 C 0.97776 0.56484 0.68966 0.0
C5303 C 0.9828 0.58289 0.70284 0.0
C5304 C 0.97104 0.59406 0.70727 0.0
C5305 C 0.97582 0.61105 0.71977 0.0
C5306 C 0.99235 0.6171 0.72781 0.0
C5307 C 1.00414 0.60619 0.72333 0.0
C5308 C 0.99943 0.58916 0.71085 0.0
C5309 C 0.98883 0.53953 0.60696 0.0
C5310 C 1.00628 0.54484 0.60822 0.0
C5311 C 0.98054 0.54035 0.62317 0.0
C5312 C 0.98939 0.54607 0.64137 0.0
C5313 C 1.00683 0.5515 0.64254 0.0
C5314 C 0.01507 0.55097 0.62635 0.0
C5315 C 0.98071 0.54684 0.6591 0.0
C5316 C 0.98548 0.56299 0.67305 0.0
C5317 C 0.96772 0.53205 0.66243 0.0
C5318 C 0.96236 0.51403 0.64915 0.0
C5319 C 0.97392 0.50279 0.6441 0.0
C5320 C 0.96885 0.48609 0.63119 0.0
C5321 C 0.95224 0.48039 0.62335 0.0
C5322 C 0.94064 0.49133 0.62847 0.0
C5323 C 0.94563 0.50805 0.64137 0.0
H5324 H 0.94835 0.46749 0.61333 0.0
H5325 H 0.99602 0.63028 0.73748 0.0
H5326 H 0.24618 0.21126 0.46754 0.0
H5327 H 0.24951 0.22408 0.43804 0.0
H5328 H 0.29696 0.20737 0.4372 0.0
H5329 H 0.29351 0.19401 0.4666 0.0
H5330 H 0.29673 0.24582 0.42927 0.0
H5331 H 0.26764 0.18207 0.40829 0.0
H5332 H 0.24565 0.15354 0.407 0.0
H5333 H 0.20878 0.185 0.38961 0.0
H5334 H 0.23054 0.21384 0.39111 0.0
H5335 H 0.3085 0.26452 0.33839 0.0
H5336 H 0.30489 0.24857 0.36561 0.0
H5337 H 0.25367 0.25448 0.36172 0.0
H5338 H 0.25732 0.27073 0.33382 0.0
H5339 H 0.25648 0.22077 0.37211 0.0
H5340 H 0.28608 0.28506 0.39386 0.0
H5341 H 0.3084 0.31336 0.39544 0.0
H5342 H 0.34479 0.28082 0.41164 0.0
H5343 H 0.32271 0.25224 0.40991 0.0
C5344 C 0.25734 0.21027 0.46112 0.0
C5345 C 0.26956 0.20153 0.46948 0.0
C5346 C 0.2592 0.21758 0.44418 0.0
C5347 C 0.27344 0.21664 0.43527 0.0
C5348 C 0.28584 0.20825 0.44374 0.0
C5349 C 0.28383 0.20056 0.46054 0.0
C5350 C 0.27528 0.22451 0.41719 0.0
C5351 C 0.28806 0.24018 0.4167 0.0
C5352 C 0.26382 0.21744 0.40083 0.0
C5353 C 0.2507 0.20017 0.40003 0.0
C5354 C 0.25482 0.18297 0.40439 0.0
C5355 C 0.24241 0.16672 0.40358 0.0
C5356 C 0.22582 0.16747 0.39828 0.0
C5357 C 0.22163 0.18445 0.39375 0.0
C5358 C 0.234 0.20075 0.39457 0.0
C5359 C 0.29636 0.26244 0.34315 0.0
C5360 C 0.2832 0.26909 0.33384 0.0
C5361 C 0.29436 0.25333 0.35893 0.0
C5362 C 0.27916 0.25076 0.36627 0.0
C5363 C 0.26563 0.25651 0.35654 0.0
C5364 C 0.26765 0.26571 0.34048 0.0
C5365 C 0.27775 0.24239 0.38421 0.0
C5366 C 0.26512 0.22651 0.38467 0.0
C5367 C 0.28941 0.24929 0.40057 0.0
C5368 C 0.30273 0.26646 0.40159 0.0
C5369 C 0.29885 0.2839 0.39763 0.0
C5370 C 0.31146 0.29999 0.39857 0.0
C5371 C 0.32801 0.29888 0.4036 0.0
C5372 C 0.33198 0.28166 0.40773 0.0
C5373 C 0.31941 0.26551 0.40678 0.0
H5374 H 0.33775 0.31136 0.40433 0.0
H5375 H 0.21622 0.15487 0.39764 0.0
H5376 H 0.35422 0.67021 0.52212 0.0
H5377 H 0.38273 0.66472 0.52345 0.0
H5378 H 0.37007 0.61924 0.55634 0.0
H5379 H 0.34157 0.62433 0.55477 0.0
H5380 H 0.40508 0.64712 0.56582 0.0
H5381 H 0.36557 0.59924 0.51785 0.0
H5382 H 0.34121 0.59592 0.49408 0.0
H5383 H 0.36867 0.63774 0.46546 0.0
H5384 H 0.39311 0.64148 0.48931 0.0
H5385 H 0.44013 0.56704 0.55755 0.0
H5386 H 0.423 0.59131 0.55902 0.0
H5387 H 0.44136 0.6108 0.50945 0.0
H5388 H 0.45805 0.58582 0.50756 0.0
H5389 H 0.40865 0.60568 0.50681 0.0
H5390 H 0.45335 0.63897 0.55325 0.0
H5391 H 0.4743 0.64164 0.58073 0.0
H5392 H 0.43562 0.6274 0.61508 0.0
H5393 H 0.41444 0.62447 0.58778 0.0
C5394 C 0.35756 0.65893 0.52944 0.0
C5395 C 0.34575 0.6472 0.53778 0.0
C5396 C 0.37383 0.6562 0.53061 0.0
C5397 C 0.37833 0.64192 0.54034 0.0
C5398 C 0.3667 0.63058 0.54914 0.0
C5399 C 0.35039 0.63306 0.54768 0.0
C5400 C 0.39379 0.63566 0.53769 0.0
C5401 C 0.40622 0.63837 0.55289 0.0
C5402 C 0.39493 0.62441 0.52074 0.0
C5403 C 0.38118 0.62043 0.50512 0.0
C5404 C 0.36646 0.60748 0.50629 0.0
C5405 C 0.35261 0.60564 0.49292 0.0
C5406 C 0.35341 0.61656 0.47822 0.0
C5407 C 0.3681 0.62923 0.47681 0.0
C5408 C 0.38197 0.63119 0.49022 0.0
C5409 C 0.44051 0.5766 0.54707 0.0
C5410 C 0.45019 0.57473 0.53243 0.0
C5411 C 0.43094 0.59055 0.54802 0.0
C5412 C 0.43133 0.60312 0.53462 0.0
C5413 C 0.44111 0.60132 0.52 0.0
C5414 C 0.45048 0.58709 0.51886 0.0
C5415 C 0.42027 0.6169 0.53508 0.0
C5416 C 0.40832 0.61532 0.51946 0.0
C5417 C 0.41962 0.6291 0.55179 0.0
C5418 C 0.4323 0.63153 0.56844 0.0
C5419 C 0.44931 0.63641 0.56666 0.0
C5420 C 0.46123 0.63795 0.58221 0.0
C5421 C 0.45629 0.63469 0.59964 0.0
C5422 C 0.43942 0.62997 0.60158 0.0
C5423 C 0.42745 0.62844 0.58609 0.0
H5424 H 0.46554 0.63581 0.61164 0.0
H5425 H 0.34264 0.61523 0.46796 0.0
H5426 H 0.85035 0.95603 0.54473 0.0
H5427 H 0.8787 0.97168 0.54058 0.0
H5428 H 0.89878 0.93053 0.56958 0.0
H5429 H 0.87062 0.9145 0.57308 0.0
H5430 H 0.91512 0.97025 0.58218 0.0
H5431 H 0.89948 0.92471 0.52675 0.0
H5432 H 0.88229 0.90815 0.49752 0.0
H5433 H 0.88898 0.96046 0.4738 0.0
H5434 H 0.90598 0.97745 0.50305 0.0
H5435 H 1.00001 0.99405 0.56461 0.0
H5436 H 0.97209 0.97491 0.56538 0.0
H5437 H 0.9508 1.01021 0.52965 0.0
H5438 H 0.97849 0.02949 0.52929 0.0
H5439 H 0.935 0.97244 0.51991 0.0
H5440 H 0.94987 0.01805 0.57586 0.0
H5441 H 0.9665 0.03462 0.60544 0.0
H5442 H 0.96078 0.98183 0.62834 0.0
H5443 H 0.94433 0.96489 0.59875 0.0
C5444 C 0.86082 0.95042 0.55033 0.0
C5445 C 0.85814 0.93404 0.55936 0.0
C5446 C 0.87705 0.9593 0.54784 0.0
C5447 C 0.89103 0.95232 0.55472 0.0
C5448 C 0.88833 0.93626 0.5641 0.0
C5449 C 0.87216 0.92709 0.56612 0.0
C5450 C 0.90847 0.9618 0.55247 0.0
C5451 C 0.9195 0.97049 0.56855 0.0
C5452 C 0.91428 0.96247 0.53471 0.0
C5453 C 0.9038 0.95243 0.51722 0.0
C5454 C 0.89709 0.93277 0.51541 0.0
C5455 C 0.88743 0.92328 0.49881 0.0
C5456 C 0.88449 0.93327 0.48384 0.0
C5457 C 0.89123 0.95276 0.48543 0.0
C5458 C 0.90088 0.96233 0.50203 0.0
C5459 C 0.98942 0.99736 0.55649 0.0
C5460 C 0.99157 0.01313 0.54661 0.0
C5461 C 0.97338 0.98653 0.5571 0.0
C5462 C 0.95909 0.99108 0.54768 0.0
C5463 C 0.96143 1.00624 0.53704 0.0
C5464 C 0.97735 0.01724 0.53676 0.0
C5465 C 0.94171 0.98092 0.54967 0.0
C5466 C 0.93066 0.97216 0.53354 0.0
C5467 C 0.93584 0.98013 0.56741 0.0
C5468 C 0.9461 0.99016 0.58499 0.0
C5469 C 0.95235 1.00993 0.58711 0.0
C5470 C 0.9617 0.0194 0.6039 0.0
C5471 C 0.96475 1.00927 0.61873 0.0
C5472 C 0.95846 0.98965 0.61681 0.0
C5473 C 0.94913 0.9801 0.60003 0.0
H5474 H 0.97195 0.01664 0.63174 0.0
H5475 H 0.87704 0.92589 0.47098 0.0
H5476 H 0.88353 0.0999 0.30063 0.0
H5477 H 0.87111 0.12857 0.30495 0.0
H5478 H 0.8628 0.12686 0.2451 0.0
H5479 H 0.87455 0.09783 0.2407 0.0
H5480 H 0.87993 0.16787 0.27572 0.0
H5481 H 0.83158 0.11329 0.25669 0.0
H5482 H 0.81641 0.08233 0.26307 0.0
H5483 H 0.81267 0.10737 0.31906 0.0
H5484 H 0.82809 0.13837 0.3131 0.0
H5485 H 0.83496 0.24269 0.26731 0.0
H5486 H 0.84854 0.21534 0.26507 0.0
H5487 H 0.81473 0.18777 0.29971 0.0
H5488 H 0.79976 0.21406 0.29952 0.0
H5489 H 0.82047 0.16089 0.28435 0.0
H5490 H 0.86525 0.21175 0.30963 0.0
H5491 H 0.88324 0.24362 0.31222 0.0
H5492 H 0.89811 0.22847 0.25813 0.0
H5493 H 0.8801 0.19657 0.25515 0.0
C5494 C 0.87908 0.10556 0.28833 0.0
C5495 C 0.88011 0.09615 0.27025 0.0
C5496 C 0.87195 0.12214 0.29084 0.0
C5497 C 0.86593 0.13033 0.2754 0.0
C5498 C 0.86727 0.12117 0.25738 0.0
C5499 C 0.87399 0.10434 0.25485 0.0
C5500 C 0.85773 0.14784 0.2779 0.0
C5501 C 0.86687 0.16633 0.2774 0.0
C5502 C 0.84095 0.14649 0.28133 0.0
C5503 C 0.83107 0.12808 0.28449 0.0
C5504 C 0.8276 0.11215 0.27038 0.0
C5505 C 0.81895 0.0946 0.27393 0.0
C5506 C 0.81361 0.09287 0.29147 0.0
C5507 C 0.81682 0.10872 0.30548 0.0
C5508 C 0.82549 0.12628 0.30202 0.0
C5509 C 0.83039 0.23078 0.27445 0.0
C5510 C 0.8161 0.23087 0.28353 0.0
C5511 C 0.83847 0.21494 0.27347 0.0
C5512 C 0.83347 0.19885 0.28263 0.0
C5513 C 0.8193 0.19932 0.29216 0.0
C5514 C 0.81066 0.21471 0.29227 0.0
C5515 C 0.84246 0.18158 0.28179 0.0
C5516 C 0.83353 0.16293 0.2827 0.0
C5517 C 0.85979 0.18302 0.28002 0.0
C5518 C 0.87126 0.20181 0.28213 0.0
C5519 C 0.8724 0.2152 0.29832 0.0
C5520 C 0.88257 0.23328 0.29984 0.0
C5521 C 0.89179 0.23807 0.28534 0.0
C5522 C 0.89096 0.22473 0.26935 0.0
C5523 C 0.88081 0.20663 0.26776 0.0
H5524 H 0.89959 0.2521 0.2865 0.0
H5525 H 0.80695 0.07927 0.2942 0.0
H5526 H 0.75236 0.19124 0.04113 0.0
H5527 H 0.72411 0.17245 0.04065 0.0
H5528 H 0.74363 0.13654 0.07729 0.0
H5529 H 0.77154 0.15547 0.07815 0.0
H5530 H 0.72493 0.11716 0.04259 0.0
H5531 H 0.72352 0.1627 0.0955 0.0
H5532 H 0.72586 0.19453 0.11369 0.0
H5533 H 0.68632 0.20553 0.07597 0.0
H5534 H 0.68404 0.17396 0.0572 0.0
H5535 H 0.65233 0.06864 0.07641 0.0
H5536 H 0.6794 0.08459 0.06962 0.0
H5537 H 0.65543 0.11828 0.03422 0.0
H5538 H 0.62829 0.10222 0.04077 0.0
H5539 H 0.67626 0.13888 0.06635 0.0
H5540 H 0.67726 0.08998 0.01494 0.0
H5541 H 0.67549 0.05704 0.99956 0.0
H5542 H 0.71634 0.05086 0.03838 0.0
H5543 H 0.71824 0.08368 0.05416 0.0
C5544 C 0.75036 0.17969 0.04947 0.0
C5545 C 0.7637 0.17467 0.05983 0.0
C5546 C 0.73443 0.16898 0.04911 0.0
C5547 C 0.73207 0.15316 0.05882 0.0
C5548 C 0.74539 0.1487 0.06971 0.0
C5549 C 0.76116 0.15954 0.07032 0.0
C5550 C 0.71586 0.14051 0.05686 0.0
C5551 C 0.71424 0.12179 0.04781 0.0
C5552 C 0.70217 0.14686 0.0637 0.0
C5553 C 0.70375 0.16604 0.07476 0.0
C5554 C 0.7155 0.17201 0.09088 0.0
C5555 C 0.71679 0.18999 0.10134 0.0
C5556 C 0.70623 0.20202 0.09598 0.0
C5557 C 0.69449 0.19618 0.08008 0.0
C5558 C 0.69321 0.17826 0.06951 0.0
C5559 C 0.65284 0.07894 0.06664 0.0
C5560 C 0.63839 0.08459 0.0594 0.0
C5561 C 0.66825 0.08798 0.06276 0.0
C5562 C 0.66924 0.10261 0.05157 0.0
C5563 C 0.65476 0.10702 0.04295 0.0
C5564 C 0.63936 0.09798 0.04679 0.0
C5565 C 0.68515 0.11553 0.05174 0.0
C5566 C 0.68682 0.13432 0.06074 0.0
C5567 C 0.69897 0.10907 0.04526 0.0
C5568 C 0.69779 0.08926 0.03584 0.0
C5569 C 0.68575 0.08154 0.02033 0.0
C5570 C 0.68475 0.0629 0.01151 0.0
C5571 C 0.69575 0.05185 0.01804 0.0
C5572 C 0.70781 0.05943 0.03336 0.0
C5573 C 0.70888 0.07807 0.04222 0.0
H5574 H 0.69495 0.03742 0.01118 0.0
H5575 H 0.70704 0.21581 0.10421 0.0
H5576 H 0.16946 0.44957 0.30283 0.0
H5577 H 0.18145 0.42089 0.30123 0.0
H5578 H 0.2289 0.45463 0.29473 0.0
H5579 H 0.21624 0.48277 0.29419 0.0
H5580 H 0.23061 0.42583 0.2773 0.0
H5581 H 0.21183 0.42807 0.33912 0.0
H5582 H 0.19172 0.42817 0.36219 0.0
H5583 H 0.16217 0.37589 0.332 0.0
H5584 H 0.18204 0.37551 0.30884 0.0
H5585 H 0.27767 0.35451 0.29599 0.0
H5586 H 0.26422 0.38205 0.29846 0.0
H5587 H 0.21628 0.34448 0.29029 0.0
H5588 H 0.22982 0.31667 0.28817 0.0
H5589 H 0.21456 0.3739 0.31488 0.0
H5590 H 0.23456 0.37129 0.25454 0.0
H5591 H 0.25576 0.37024 0.23291 0.0
H5592 H 0.28426 0.4235 0.26223 0.0
H5593 H 0.26333 0.42476 0.28417 0.0
C5594 C 0.18248 0.45093 0.30109 0.0
C5595 C 0.19173 0.46886 0.29869 0.0
C5596 C 0.18959 0.43429 0.30047 0.0
C5597 C 0.2066 0.43484 0.29843 0.0
C5598 C 0.21582 0.45298 0.29625 0.0
C5599 C 0.20853 0.46942 0.29607 0.0
C5600 C 0.21469 0.41686 0.2978 0.0
C5601 C 0.22714 0.41486 0.28597 0.0
C5602 C 0.21034 0.40144 0.30833 0.0
C5603 C 0.1983 0.4019 0.32214 0.0
C5604 C 0.20098 0.41667 0.33738 0.0
C5605 C 0.18964 0.41674 0.3505 0.0
C5606 C 0.17565 0.40206 0.34857 0.0
C5607 C 0.17299 0.38725 0.33354 0.0
C5608 C 0.18429 0.38709 0.32042 0.0
C5609 C 0.26424 0.35191 0.29471 0.0
C5610 C 0.25503 0.33294 0.29173 0.0
C5611 C 0.25643 0.36793 0.29599 0.0
C5612 C 0.23896 0.3659 0.29415 0.0
C5613 C 0.22971 0.34693 0.29164 0.0
C5614 C 0.23754 0.33083 0.29036 0.0
C5615 C 0.23051 0.38338 0.2948 0.0
C5616 C 0.21802 0.38515 0.30648 0.0
C5617 C 0.23495 0.3987 0.28437 0.0
C5618 C 0.24743 0.39806 0.27106 0.0
C5619 C 0.24539 0.38274 0.25642 0.0
C5620 C 0.25735 0.3821 0.2441 0.0
C5621 C 0.27135 0.39678 0.24621 0.0
C5622 C 0.27341 0.41214 0.26062 0.0
C5623 C 0.26149 0.41283 0.27298 0.0
H5624 H 0.2806 0.39626 0.23667 0.0
H5625 H 0.16689 0.40213 0.35874 0.0
H5626 H 0.27098 0.46105 0.04839 0.0
H5627 H 0.24389 0.47 0.04323 0.0
H5628 H 0.21989 0.4142 0.05307 0.0
H5629 H 0.24705 0.40471 0.05633 0.0
H5630 H 0.1991 0.42398 0.03095 0.0
H5631 H 0.22873 0.45898 0.0882 0.0
H5632 H 0.25241 0.47963 0.10894 0.0
H5633 H 0.24932 0.52515 0.07634 0.0
H5634 H 0.22572 0.5047 0.0553 0.0
H5635 H 0.12624 0.46232 0.05391 0.0
H5636 H 0.15092 0.44774 0.0545 0.0
H5637 H 0.17759 0.49595 0.03284 0.0
H5638 H 0.15331 0.51074 0.03265 0.0
H5639 H 0.19565 0.48801 0.06242 0.0
H5640 H 0.16324 0.45011 0.00599 0.0
H5641 H 0.13852 0.42805 0.98854 0.0
H5642 H 0.14507 0.38617 0.02462 0.0
H5643 H 0.16973 0.40806 0.04241 0.0
C5644 C 0.2599 0.45063 0.04923 0.0
C5645 C 0.26123 0.43222 0.05289 0.0
C5646 C 0.2443 0.45582 0.04653 0.0
C5647 C 0.22953 0.44317 0.04853 0.0
C5648 C 0.23086 0.42448 0.05158 0.0
C5649 C 0.24647 0.41903 0.05351 0.0
C5650 C 0.21301 0.44971 0.04805 0.0
C5651 C 0.19841 0.43791 0.03805 0.0
C5652 C 0.2116 0.46783 0.05733 0.0
C5653 C 0.22557 0.48028 0.07012 0.0
C5654 C 0.23314 0.47338 0.08544 0.0
C5655 C 0.24655 0.48504 0.09724 0.0
C5656 C 0.25239 0.50368 0.09393 0.0
C5657 C 0.24479 0.51072 0.07887 0.0
C5658 C 0.23138 0.49911 0.06703 0.0
C5659 C 0.13735 0.46985 0.04926 0.0
C5660 C 0.13758 0.48782 0.04319 0.0
C5661 C 0.15147 0.46135 0.04942 0.0
C5662 C 0.16627 0.47058 0.04358 0.0
C5663 C 0.16643 0.48838 0.03737 0.0
C5664 C 0.15237 0.49681 0.03713 0.0
C5665 C 0.18197 0.46259 0.04494 0.0
C5666 C 0.1964 0.4741 0.05529 0.0
C5667 C 0.18298 0.44402 0.03649 0.0
C5668 C 0.16826 0.43081 0.02564 0.0
C5669 C 0.15935 0.43625 0.01028 0.0
C5670 C 0.14536 0.42376 1.00031 0.0
C5671 C 0.1402 0.40574 1.0055 0.0
C5672 C 0.14907 0.40014 0.02062 0.0
C5673 C 0.16306 0.41257 0.03064 0.0
H5674 H 0.12937 0.39611 0.99777 0.0
H5675 H 0.26279 0.51267 0.10306 0.0
H5676 H 0.86017 0.99114 0.25963 0.0
H5677 H 0.84426 0.95916 0.26162 0.0
H5678 H 0.88647 0.94675 0.29431 0.0
H5679 H 0.9024 0.97822 0.29194 0.0
H5680 H 0.87369 0.91542 0.27407 0.0
H5681 H 0.84843 0.95696 0.31295 0.0
H5682 H 0.83499 0.9842 0.32124 0.0
H5683 H 0.79459 0.96053 0.27776 0.0
H5684 H 0.80789 0.93322 0.26908 0.0
H5685 H 0.82468 0.82913 0.30095 0.0
H5686 H 0.84296 0.86015 0.29986 0.0
H5687 H 0.80307 0.87743 0.2674 0.0
H5688 H 0.78494 0.84721 0.26918 0.0
H5689 H 0.81595 0.90642 0.2895 0.0
H5690 H 0.84312 0.86344 0.25163 0.0
H5691 H 0.85746 0.83638 0.2465 0.0
H5692 H 0.89541 0.86302 0.29177 0.0
H5693 H 0.88116 0.89008 0.29736 0.0
C5694 C 0.8661 0.98169 0.26731 0.0
C5695 C 0.88278 0.98781 0.27564 0.0
C5696 C 0.85688 0.96318 0.26857 0.0
C5697 C 0.8638 0.94997 0.2784 0.0
C5698 C 0.88048 0.95612 0.28657 0.0
C5699 C 0.88968 0.97448 0.28525 0.0
C5700 C 0.85388 0.93002 0.28032 0.0
C5701 C 0.86109 0.91363 0.27758 0.0
C5702 C 0.83735 0.92691 0.28499 0.0
C5703 C 0.82923 0.94316 0.29025 0.0
C5704 C 0.83672 0.95762 0.3051 0.0
C5705 C 0.82913 0.97306 0.30987 0.0
C5706 C 0.81397 0.97412 0.3 0.0
C5707 C 0.80634 0.9597 0.28538 0.0
C5708 C 0.81389 0.94423 0.28054 0.0
C5709 C 0.8199 0.8394 0.29331 0.0
C5710 C 0.80316 0.83521 0.28499 0.0
C5711 C 0.83045 0.85738 0.29264 0.0
C5712 C 0.82478 0.87176 0.28334 0.0
C5713 C 0.80815 0.86719 0.27483 0.0
C5714 C 0.79767 0.84954 0.27572 0.0
C5715 C 0.83549 0.89165 0.28263 0.0
C5716 C 0.82847 0.90812 0.28577 0.0
C5717 C 0.85228 0.8948 0.27865 0.0
C5718 C 0.86098 0.8787 0.27502 0.0
C5719 C 0.85448 0.86348 0.26054 0.0
C5720 C 0.8626 0.84814 0.25756 0.0
C5721 C 0.87732 0.84796 0.26883 0.0
C5722 C 0.88399 0.86316 0.28307 0.0
C5723 C 0.87591 0.8785 0.28615 0.0
H5724 H 0.88356 0.83606 0.26651 0.0
H5725 H 0.80812 0.9861 0.3037 0.0
H5726 H 0.6738 0.09393 0.82424 0.0
H5727 H 0.68917 0.12599 0.82287 0.0
H5728 H 0.72463 0.10207 0.79258 0.0
H5729 H 0.70933 0.06974 0.79407 0.0
H5730 H 0.74057 0.13203 0.81758 0.0
H5731 H 0.69225 0.12186 0.77097 0.0
H5732 H 0.6623 0.11455 0.75951 0.0
H5733 H 0.65496 0.16191 0.79773 0.0
H5734 H 0.68483 0.16935 0.80959 0.0
H5735 H 0.77616 0.21525 0.77927 0.0
H5736 H 0.76052 0.18353 0.78242 0.0
H5737 H 0.73044 0.2096 0.81909 0.0
H5738 H 0.74636 0.24131 0.81643 0.0
H5739 H 0.71141 0.17938 0.79163 0.0
H5740 H 0.75722 0.19014 0.83877 0.0
H5741 H 0.78661 0.19915 0.85239 0.0
H5742 H 0.79787 0.15237 0.81653 0.0
H5743 H 0.76854 0.14327 0.80243 0.0
C5744 C 0.68495 0.09534 0.81739 0.0
C5745 C 0.69018 0.07894 0.80925 0.0
C5746 C 0.69371 0.11387 0.81647 0.0
C5747 C 0.70801 0.11677 0.80726 0.0
C5748 C 0.71363 0.10044 0.79968 0.0
C5749 C 0.70483 0.08184 0.80058 0.0
C5750 C 0.717 0.13671 0.80549 0.0
C5751 C 0.73417 0.14219 0.81159 0.0
C5752 C 0.70874 0.15057 0.79841 0.0
C5753 C 0.69076 0.14604 0.7913 0.0
C5754 C 0.68423 0.13062 0.77704 0.0
C5755 C 0.66727 0.12647 0.77045 0.0
C5756 C 0.65673 0.13772 0.77793 0.0
C5757 C 0.66313 0.15318 0.79198 0.0
C5758 C 0.68008 0.15738 0.79863 0.0
C5759 C 0.76625 0.21426 0.78805 0.0
C5760 C 0.76272 0.23095 0.79778 0.0
C5761 C 0.75728 0.19605 0.78985 0.0
C5762 C 0.74423 0.19398 0.80105 0.0
C5763 C 0.7404 0.21066 0.81037 0.0
C5764 C 0.74964 0.22884 0.80896 0.0
C5765 C 0.73494 0.17443 0.80337 0.0
C5766 C 0.71777 0.16911 0.79748 0.0
C5767 C 0.74309 0.16084 0.81097 0.0
C5768 C 0.76072 0.16617 0.81937 0.0
C5769 C 0.76599 0.18189 0.83364 0.0
C5770 C 0.78263 0.187 0.84147 0.0
C5771 C 0.79412 0.17638 0.83528 0.0
C5772 C 0.78896 0.16061 0.82127 0.0
C5773 C 0.77232 0.15546 0.81335 0.0
H5774 H 0.807 0.18034 0.84137 0.0
H5775 H 0.64361 0.13449 0.7728 0.0
loop_
_geom_bond_atom_site_label_1
_geom_bond_atom_site_label_2
_geom_bond_distance
_geom_bond_site_symmetry_2
_ccdc_geom_bond_type
O0 Cd1 2.223 . S
O0 C8 1.315 . S
Cd1 O0 2.223 . S
Cd1 O4 2.297 . S
Cd1 O5 2.439 . S
Cd1 O11 2.240 . S
Cd2 O3 2.240 . S
Cd2 O10 2.239 . S
Cd2 O12 2.297 . S
Cd2 O13 2.439 . S
O3 Cd2 2.240 . S
O3 C8 1.279 . S
O4 Cd1 2.297 . S
O4 C6 1.247 . S
O5 Cd1 2.439 . S
O5 C6 1.208 . S
C6 O4 1.247 . S
C6 O5 1.208 . S
C7 O12 1.247 . S
C7 O13 1.208 . S
C8 O0 1.315 . S
C8 O3 1.279 . S
C9 O10 1.319 . S
C9 O11 1.279 . S
O10 Cd2 2.239 . S
O10 C9 1.319 . S
O11 Cd1 2.240 . S
O11 C9 1.279 . S
O12 Cd2 2.297 . S
O12 C7 1.247 . S
O13 Cd2 2.439 . S
O13 C7 1.208 . S
O14 Cd15 2.238 . S
O14 C22 1.315 . S
Cd15 O14 2.238 . S
Cd15 O18 2.262 1_455 S
Cd15 O19 2.405 1_455 S
Cd15 O25 2.269 . S
Cd16 O17 2.240 1_455 S
Cd16 O24 2.223 . S
Cd16 O26 2.297 . S
Cd16 O27 2.439 . S
O17 Cd16 2.240 1_655 S
O17 C22 1.279 1_655 S
O18 Cd15 2.262 1_655 S
O18 C20 1.247 . S
O19 Cd15 2.405 1_655 S
O19 C20 1.208 . S
C20 O18 1.247 . S
C20 O19 1.208 . S
C21 O26 1.247 . S
C21 O27 1.208 . S
C22 O14 1.315 . S
C22 O17 1.279 1_455 S
C23 O24 1.315 . S
C23 O25 1.279 . S
O24 Cd16 2.223 . S
O24 C23 1.315 . S
O25 Cd15 2.269 . S
O25 C23 1.279 . S
O26 Cd16 2.297 . S
O26 C21 1.247 . S
O27 Cd16 2.439 . S
O27 C21 1.208 . S
O28 Cd29 2.223 . S
O28 C36 1.315 . S
Cd29 O28 2.223 . S
Cd29 O32 2.297 . S
Cd29 O33 2.439 . S
Cd29 O39 2.240 . S
Cd30 O31 2.240 . S
Cd30 O38 2.223 . S
Cd30 O40 2.297 . S
Cd30 O41 2.439 . S
O31 Cd30 2.240 . S
O31 C36 1.279 . S
O32 Cd29 2.297 . S
O32 C34 1.247 . S
O33 Cd29 2.439 . S
O33 C34 1.208 . S
C34 O32 1.247 . S
C34 O33 1.208 . S
C35 O40 1.247 . S
C35 O41 1.208 . S
C36 O28 1.315 . S
C36 O31 1.279 . S
C37 O38 1.315 . S
C37 O39 1.279 . S
O38 Cd30 2.223 . S
O38 C37 1.315 . S
O39 Cd29 2.240 . S
O39 C37 1.279 . S
O40 Cd30 2.297 . S
O40 C35 1.247 . S
O41 Cd30 2.439 . S
O41 C35 1.208 . S
O42 Cd43 2.223 . S
O42 C50 1.315 . S
Cd43 O42 2.223 . S
Cd43 O46 2.297 . S
Cd43 O47 2.439 . S
Cd43 O53 2.240 . S
Cd44 O45 2.240 . S
Cd44 O52 2.223 . S
Cd44 O54 2.297 . S
Cd44 O55 2.439 . S
O45 Cd44 2.240 . S
O45 C50 1.279 . S
O46 Cd43 2.297 . S
O46 C48 1.247 . S
O47 Cd43 2.439 . S
O47 C48 1.208 . S
C48 O46 1.247 . S
C48 O47 1.208 . S
C49 O54 1.247 . S
C49 O55 1.208 . S
C50 O42 1.315 . S
C50 O45 1.279 . S
C51 O52 1.315 . S
C51 O53 1.279 . S
O52 Cd44 2.223 . S
O52 C51 1.315 . S
O53 Cd43 2.240 . S
O53 C51 1.279 . S
O54 Cd44 2.297 . S
O54 C49 1.247 . S
O55 Cd44 2.439 . S
O55 C49 1.208 . S
O56 Cd57 2.223 . S
O56 C64 1.315 . S
Cd57 O56 2.223 . S
Cd57 O60 2.297 . S
Cd57 O61 2.439 . S
Cd57 O67 2.240 . S
Cd58 O59 2.240 . S
Cd58 O66 2.223 . S
Cd58 O68 2.297 . S
Cd58 O69 2.439 . S
O59 Cd58 2.240 . S
O59 C64 1.279 . S
O60 Cd57 2.297 . S
O60 C62 1.247 . S
O61 Cd57 2.439 . S
O61 C62 1.208 . S
C62 O60 1.247 . S
C62 O61 1.208 . S
C63 O68 1.247 . S
C63 O69 1.208 . S
C64 O56 1.315 . S
C64 O59 1.279 . S
C65 O66 1.315 . S
C65 O67 1.279 . S
O66 Cd58 2.223 . S
O66 C65 1.315 . S
O67 Cd57 2.240 . S
O67 C65 1.279 . S
O68 Cd58 2.297 . S
O68 C63 1.247 . S
O69 Cd58 2.439 . S
O69 C63 1.208 . S
O70 Cd71 2.223 . S
O70 C78 1.315 . S
Cd71 O70 2.223 . S
Cd71 O74 2.297 . S
Cd71 O75 2.439 . S
Cd71 O81 2.240 . S
Cd72 O73 2.240 . S
Cd72 O80 2.223 . S
Cd72 O82 2.297 . S
Cd72 O83 2.439 . S
O73 Cd72 2.240 . S
O73 C78 1.279 . S
O74 Cd71 2.297 . S
O74 C76 1.247 . S
O75 Cd71 2.439 . S
O75 C76 1.208 . S
C76 O74 1.247 . S
C76 O75 1.208 . S
C77 O82 1.247 . S
C77 O83 1.208 . S
C78 O70 1.315 . S
C78 O73 1.279 . S
C79 O80 1.315 . S
C79 O81 1.279 . S
O80 Cd72 2.223 . S
O80 C79 1.315 . S
O81 Cd71 2.240 . S
O81 C79 1.279 . S
O82 Cd72 2.297 . S
O82 C77 1.247 . S
O83 Cd72 2.439 . S
O83 C77 1.208 . S
O84 Cd85 2.223 . S
O84 C92 1.315 . S
Cd85 O84 2.223 . S
Cd85 O88 2.297 . S
Cd85 O89 2.439 . S
Cd85 O95 2.240 . S
Cd86 O87 2.240 . S
Cd86 O94 2.223 . S
Cd86 O96 2.297 . S
Cd86 O97 2.439 . S
O87 Cd86 2.240 . S
O87 C92 1.279 . S
O88 Cd85 2.297 . S
O88 C90 1.247 . S
O89 Cd85 2.439 . S
O89 C90 1.208 . S
C90 O88 1.247 . S
C90 O89 1.208 . S
C91 O96 1.247 . S
C91 O97 1.208 . S
C92 O84 1.315 . S
C92 O87 1.279 . S
C93 O94 1.315 . S
C93 O95 1.279 . S
O94 Cd86 2.223 . S
O94 C93 1.315 . S
O95 Cd85 2.240 . S
O95 C93 1.279 . S
O96 Cd86 2.297 . S
O96 C91 1.247 . S
O97 Cd86 2.439 . S
O97 C91 1.208 . S
O98 Cd99 2.223 1_655 S
O98 C106 1.315 . S
Cd99 O98 2.223 1_455 S
Cd99 O102 2.297 . S
Cd99 O103 2.439 . S
Cd99 O109 2.240 1_455 S
Cd100 O101 2.240 1_655 S
Cd100 O108 2.223 . S
Cd100 O110 2.297 . S
Cd100 O111 2.439 1_655 S
O101 Cd100 2.240 1_455 S
O101 C106 1.279 1_455 S
O102 Cd99 2.297 . S
O102 C104 1.247 . S
O103 Cd99 2.439 . S
O103 C104 1.208 . S
C104 O102 1.247 . S
C104 O103 1.208 . S
C105 O110 1.247 1_455 S
C105 O111 1.208 . S
C106 O98 1.315 . S
C106 O101 1.279 1_655 S
C107 O108 1.315 . S
C107 O109 1.279 . S
O108 Cd100 2.223 . S
O108 C107 1.315 . S
O109 Cd99 2.240 1_655 S
O109 C107 1.279 . S
O110 Cd100 2.297 . S
O110 C105 1.247 1_655 S
O111 Cd100 2.439 1_455 S
O111 C105 1.208 . S
O112 Cd113 2.223 . S
O112 C120 1.315 . S
Cd113 O112 2.223 . S
Cd113 O116 2.297 . S
Cd113 O117 2.439 . S
Cd113 O123 2.240 . S
Cd114 O115 2.240 . S
Cd114 O122 2.253 . S
Cd114 O124 2.297 . S
Cd114 O125 2.439 . S
O115 Cd114 2.240 . S
O115 C120 1.279 . S
O116 Cd113 2.297 . S
O116 C118 1.247 . S
O117 Cd113 2.439 . S
O117 C118 1.208 . S
C118 O116 1.247 . S
C118 O117 1.208 . S
C119 O124 1.247 . S
C119 O125 1.208 . S
C120 O112 1.315 . S
C120 O115 1.279 . S
C121 O122 1.325 . S
C121 O123 1.279 . S
O122 Cd114 2.253 . S
O122 C121 1.325 . S
O123 Cd113 2.240 . S
O123 C121 1.279 . S
O124 Cd114 2.297 . S
O124 C119 1.247 . S
O125 Cd114 2.439 . S
O125 C119 1.208 . S
O126 Cd127 2.223 . S
O126 C134 1.315 . S
Cd127 O126 2.223 . S
Cd127 O130 2.297 . S
Cd127 O131 2.439 . S
Cd127 O137 2.240 . S
Cd128 O129 2.240 . S
Cd128 O136 2.223 . S
Cd128 O138 2.297 . S
Cd128 O139 2.439 . S
O129 Cd128 2.240 . S
O129 C134 1.279 . S
O130 Cd127 2.297 . S
O130 C132 1.247 . S
O131 Cd127 2.439 . S
O131 C132 1.208 . S
C132 O130 1.247 . S
C132 O131 1.208 . S
C133 O138 1.247 . S
C133 O139 1.208 . S
C134 O126 1.315 . S
C134 O129 1.279 . S
C135 O136 1.315 . S
C135 O137 1.279 . S
O136 Cd128 2.223 . S
O136 C135 1.315 . S
O137 Cd127 2.240 . S
O137 C135 1.279 . S
O138 Cd128 2.297 . S
O138 C133 1.247 . S
O139 Cd128 2.439 . S
O139 C133 1.208 . S
O140 Cd141 2.223 1_545 S
O140 C148 1.315 1_545 S
Cd141 O140 2.223 1_565 S
Cd141 O144 2.297 . S
Cd141 O145 2.439 . S
Cd141 O151 2.240 1_565 S
Cd142 O143 2.240 1_545 S
Cd142 O150 2.223 . S
Cd142 O152 2.297 . S
Cd142 O153 2.439 1_545 S
O143 Cd142 2.240 1_565 S
O143 C148 1.279 . S
O144 Cd141 2.297 . S
O144 C146 1.247 . S
O145 Cd141 2.439 . S
O145 C146 1.208 . S
C146 O144 1.247 . S
C146 O145 1.208 . S
C147 O152 1.247 . S
C147 O153 1.208 1_545 S
C148 O140 1.315 1_565 S
C148 O143 1.279 . S
C149 O150 1.315 . S
C149 O151 1.279 . S
O150 Cd142 2.223 . S
O150 C149 1.315 . S
O151 Cd141 2.240 1_545 S
O151 C149 1.279 . S
O152 Cd142 2.297 . S
O152 C147 1.247 . S
O153 Cd142 2.439 1_565 S
O153 C147 1.208 1_565 S
O154 Cd155 2.223 . S
O154 C162 1.315 . S
Cd155 O154 2.223 . S
Cd155 O158 2.297 . S
Cd155 O159 2.439 1_554 S
Cd155 O165 2.240 1_554 S
Cd156 O157 2.240 1_556 S
Cd156 O164 2.223 1_556 S
Cd156 O166 2.297 . S
Cd156 O167 2.439 . S
O157 Cd156 2.240 1_554 S
O157 C162 1.279 . S
O158 Cd155 2.297 . S
O158 C160 1.247 . S
O159 Cd155 2.439 1_556 S
O159 C160 1.208 1_556 S
C160 O158 1.247 . S
C160 O159 1.208 1_554 S
C161 O166 1.247 . S
C161 O167 1.208 . S
C162 O154 1.315 . S
C162 O157 1.279 . S
C163 O164 1.315 . S
C163 O165 1.279 1_554 S
O164 Cd156 2.223 1_554 S
O164 C163 1.315 . S
O165 Cd155 2.240 1_556 S
O165 C163 1.279 1_556 S
O166 Cd156 2.297 . S
O166 C161 1.247 . S
O167 Cd156 2.439 . S
O167 C161 1.208 . S
O168 Cd169 2.223 . S
O168 C176 1.315 . S
Cd169 O168 2.223 . S
Cd169 O172 2.297 . S
Cd169 O173 2.439 . S
Cd169 O179 2.240 . S
Cd170 O171 2.240 . S
Cd170 O178 2.223 . S
Cd170 O180 2.297 . S
Cd170 O181 2.439 . S
O171 Cd170 2.240 . S
O171 C176 1.279 . S
O172 Cd169 2.297 . S
O172 C174 1.247 . S
O173 Cd169 2.439 . S
O173 C174 1.208 . S
C174 O172 1.247 . S
C174 O173 1.208 . S
C175 O180 1.247 1_556 S
C175 O181 1.208 1_556 S
C176 O168 1.315 . S
C176 O171 1.279 . S
C177 O178 1.315 . S
C177 O179 1.279 . S
O178 Cd170 2.223 . S
O178 C177 1.315 . S
O179 Cd169 2.240 . S
O179 C177 1.279 . S
O180 Cd170 2.297 . S
O180 C175 1.247 1_554 S
O181 Cd170 2.439 . S
O181 C175 1.208 1_554 S
O182 Cd183 2.223 . S
O182 C190 1.315 . S
Cd183 O182 2.223 . S
Cd183 O186 2.297 . S
Cd183 O187 2.439 . S
Cd183 O193 2.240 . S
Cd184 O185 2.240 . S
Cd184 O192 2.223 . S
Cd184 O194 2.297 . S
Cd184 O195 2.439 . S
O185 Cd184 2.240 . S
O185 C190 1.279 . S
O186 Cd183 2.297 . S
O186 C188 1.247 . S
O187 Cd183 2.439 . S
O187 C188 1.208 . S
C188 O186 1.247 . S
C188 O187 1.208 . S
C189 O194 1.247 . S
C189 O195 1.208 . S
C190 O182 1.315 . S
C190 O185 1.279 . S
C191 O192 1.315 . S
C191 O193 1.279 . S
O192 Cd184 2.223 . S
O192 C191 1.315 . S
O193 Cd183 2.240 . S
O193 C191 1.279 . S
O194 Cd184 2.297 . S
O194 C189 1.247 . S
O195 Cd184 2.439 . S
O195 C189 1.208 . S
O196 Cd197 2.223 . S
O196 C204 1.315 . S
Cd197 O196 2.223 . S
Cd197 O200 2.297 . S
Cd197 O201 2.439 . S
Cd197 O207 2.240 . S
Cd198 O199 2.240 . S
Cd198 O206 2.223 . S
Cd198 O208 2.297 . S
Cd198 O209 2.439 . S
O199 Cd198 2.240 . S
O199 C204 1.279 . S
O200 Cd197 2.297 . S
O200 C202 1.247 . S
O201 Cd197 2.439 . S
O201 C202 1.208 . S
C202 O200 1.247 . S
C202 O201 1.208 . S
C203 O208 1.247 . S
C203 O209 1.208 . S
C204 O196 1.315 . S
C204 O199 1.279 . S
C205 O206 1.315 . S
C205 O207 1.279 . S
O206 Cd198 2.223 . S
O206 C205 1.315 . S
O207 Cd197 2.240 . S
O207 C205 1.279 . S
O208 Cd198 2.297 . S
O208 C203 1.247 . S
O209 Cd198 2.439 . S
O209 C203 1.208 . S
O210 Cd211 2.223 . S
O210 C218 1.315 . S
Cd211 O210 2.223 . S
Cd211 O214 2.297 . S
Cd211 O215 2.439 . S
Cd211 O221 2.240 . S
Cd212 O213 2.240 . S
Cd212 O220 2.223 . S
Cd212 O222 2.297 . S
Cd212 O223 2.439 . S
O213 Cd212 2.240 . S
O213 C218 1.279 . S
O214 Cd211 2.297 . S
O214 C216 1.247 . S
O215 Cd211 2.439 . S
O215 C216 1.208 . S
C216 O214 1.247 . S
C216 O215 1.208 . S
C217 O222 1.247 . S
C217 O223 1.208 . S
C218 O210 1.315 . S
C218 O213 1.279 . S
C219 O220 1.315 . S
C219 O221 1.279 . S
O220 Cd212 2.223 . S
O220 C219 1.315 . S
O221 Cd211 2.240 . S
O221 C219 1.279 . S
O222 Cd212 2.297 . S
O222 C217 1.247 . S
O223 Cd212 2.439 . S
O223 C217 1.208 . S
O224 Cd225 2.223 . S
O224 C232 1.315 . S
Cd225 O224 2.223 . S
Cd225 O228 2.297 . S
Cd225 O229 2.439 . S
Cd225 O235 2.240 . S
Cd226 O227 2.240 . S
Cd226 O234 2.223 . S
Cd226 O236 2.297 . S
Cd226 O237 2.439 . S
O227 Cd226 2.240 . S
O227 C232 1.279 . S
O228 Cd225 2.297 . S
O228 C230 1.247 . S
O229 Cd225 2.439 . S
O229 C230 1.208 . S
C230 O228 1.247 . S
C230 O229 1.208 . S
C231 O236 1.247 . S
C231 O237 1.208 . S
C232 O224 1.315 . S
C232 O227 1.279 . S
C233 O234 1.315 . S
C233 O235 1.279 . S
O234 Cd226 2.223 . S
O234 C233 1.315 . S
O235 Cd225 2.240 . S
O235 C233 1.279 . S
O236 Cd226 2.297 . S
O236 C231 1.247 . S
O237 Cd226 2.439 . S
O237 C231 1.208 . S
O238 Cd239 2.223 . S
O238 C246 1.315 . S
Cd239 O238 2.223 . S
Cd239 O242 2.297 . S
Cd239 O243 2.439 . S
Cd239 O249 2.240 . S
Cd240 O241 2.240 . S
Cd240 O248 2.223 . S
Cd240 O250 2.297 . S
Cd240 O251 2.439 . S
O241 Cd240 2.240 . S
O241 C246 1.279 . S
O242 Cd239 2.297 . S
O242 C244 1.247 . S
O243 Cd239 2.439 . S
O243 C244 1.208 . S
C244 O242 1.247 . S
C244 O243 1.208 . S
C245 O250 1.247 . S
C245 O251 1.208 . S
C246 O238 1.315 . S
C246 O241 1.279 . S
C247 O248 1.315 . S
C247 O249 1.279 . S
O248 Cd240 2.223 . S
O248 C247 1.315 . S
O249 Cd239 2.240 . S
O249 C247 1.279 . S
O250 Cd240 2.297 . S
O250 C245 1.247 . S
O251 Cd240 2.439 . S
O251 C245 1.208 . S
O252 Cd253 2.223 . S
O252 C260 1.315 . S
Cd253 O252 2.223 . S
Cd253 O256 2.297 . S
Cd253 O257 2.439 . S
Cd253 O263 2.240 . S
Cd254 O255 2.240 . S
Cd254 O262 2.223 . S
Cd254 O264 2.297 . S
Cd254 O265 2.439 . S
O255 Cd254 2.240 . S
O255 C260 1.279 . S
O256 Cd253 2.297 . S
O256 C258 1.247 . S
O257 Cd253 2.439 . S
O257 C258 1.208 . S
C258 O256 1.247 . S
C258 O257 1.208 . S
C259 O264 1.247 . S
C259 O265 1.208 . S
C260 O252 1.315 . S
C260 O255 1.279 . S
C261 O262 1.315 . S
C261 O263 1.279 . S
O262 Cd254 2.223 . S
O262 C261 1.315 . S
O263 Cd253 2.240 . S
O263 C261 1.279 . S
O264 Cd254 2.297 . S
O264 C259 1.247 . S
O265 Cd254 2.439 . S
O265 C259 1.208 . S
O266 Cd267 2.223 . S
O266 C274 1.315 . S
Cd267 O266 2.223 . S
Cd267 O270 2.297 1_545 S
Cd267 O271 2.439 1_545 S
Cd267 O277 2.240 . S
Cd268 O269 2.240 . S
Cd268 O276 2.223 . S
Cd268 O278 2.297 . S
Cd268 O279 2.439 . S
O269 Cd268 2.240 . S
O269 C274 1.279 . S
O270 Cd267 2.297 1_565 S
O270 C272 1.247 . S
O271 Cd267 2.439 1_565 S
O271 C272 1.208 . S
C272 O270 1.247 . S
C272 O271 1.208 . S
C273 O278 1.247 . S
C273 O279 1.208 . S
C274 O266 1.315 . S
C274 O269 1.279 . S
C275 O276 1.315 . S
C275 O277 1.279 . S
O276 Cd268 2.223 . S
O276 C275 1.315 . S
O277 Cd267 2.240 . S
O277 C275 1.279 . S
O278 Cd268 2.297 . S
O278 C273 1.247 . S
O279 Cd268 2.439 . S
O279 C273 1.208 . S
O280 Cd281 2.223 . S
O280 C288 1.315 . S
Cd281 O280 2.223 . S
Cd281 O284 2.297 . S
Cd281 O285 2.439 . S
Cd281 O291 2.240 . S
Cd282 O283 2.240 . S
Cd282 O290 2.223 . S
Cd282 O292 2.259 1_554 S
Cd282 O293 2.463 . S
O283 Cd282 2.240 . S
O283 C288 1.279 . S
O284 Cd281 2.297 . S
O284 C286 1.247 . S
O285 Cd281 2.439 . S
O285 C286 1.208 . S
C286 O284 1.247 . S
C286 O285 1.208 . S
C287 O292 1.266 . S
C287 O293 1.194 1_556 S
C288 O280 1.315 . S
C288 O283 1.279 . S
C289 O290 1.315 . S
C289 O291 1.279 . S
O290 Cd282 2.223 . S
O290 C289 1.315 . S
O291 Cd281 2.240 . S
O291 C289 1.279 . S
O292 Cd282 2.259 1_556 S
O292 C287 1.266 . S
O293 Cd282 2.463 . S
O293 C287 1.194 1_554 S
O294 Cd295 2.223 . S
O294 C302 1.315 . S
Cd295 O294 2.223 . S
Cd295 O298 2.297 . S
Cd295 O299 2.439 . S
Cd295 O305 2.240 . S
Cd296 O297 2.240 . S
Cd296 O304 2.223 . S
Cd296 O306 2.297 . S
Cd296 O307 2.439 . S
O297 Cd296 2.240 . S
O297 C302 1.279 . S
O298 Cd295 2.297 . S
O298 C300 1.247 . S
O299 Cd295 2.439 . S
O299 C300 1.208 . S
C300 O298 1.247 . S
C300 O299 1.208 . S
C301 O306 1.247 . S
C301 O307 1.208 . S
C302 O294 1.315 . S
C302 O297 1.279 . S
C303 O304 1.315 . S
C303 O305 1.279 . S
O304 Cd296 2.223 . S
O304 C303 1.315 . S
O305 Cd295 2.240 . S
O305 C303 1.279 . S
O306 Cd296 2.297 . S
O306 C301 1.247 . S
O307 Cd296 2.439 . S
O307 C301 1.208 . S
O308 Cd309 2.223 . S
O308 C316 1.315 . S
Cd309 O308 2.223 . S
Cd309 O312 2.297 . S
Cd309 O313 2.439 . S
Cd309 O319 2.240 . S
Cd310 O311 2.240 . S
Cd310 O318 2.223 . S
Cd310 O320 2.297 . S
Cd310 O321 2.439 . S
O311 Cd310 2.240 . S
O311 C316 1.279 . S
O312 Cd309 2.297 . S
O312 C314 1.247 . S
O313 Cd309 2.439 . S
O313 C314 1.208 . S
C314 O312 1.247 . S
C314 O313 1.208 . S
C315 O320 1.247 . S
C315 O321 1.208 . S
C316 O308 1.315 . S
C316 O311 1.279 . S
C317 O318 1.315 . S
C317 O319 1.279 . S
O318 Cd310 2.223 . S
O318 C317 1.315 . S
O319 Cd309 2.240 . S
O319 C317 1.279 . S
O320 Cd310 2.297 . S
O320 C315 1.247 . S
O321 Cd310 2.439 . S
O321 C315 1.208 . S
O322 Cd323 2.223 . S
O322 C330 1.315 . S
Cd323 O322 2.223 . S
Cd323 O326 2.297 . S
Cd323 O327 2.439 . S
Cd323 O333 2.240 . S
Cd324 O325 2.240 . S
Cd324 O332 2.223 . S
Cd324 O334 2.297 . S
Cd324 O335 2.439 . S
O325 Cd324 2.240 . S
O325 C330 1.279 . S
O326 Cd323 2.297 . S
O326 C328 1.247 . S
O327 Cd323 2.439 . S
O327 C328 1.208 . S
C328 O326 1.247 . S
C328 O327 1.208 . S
C329 O334 1.247 . S
C329 O335 1.208 . S
C330 O322 1.315 . S
C330 O325 1.279 . S
C331 O332 1.315 . S
C331 O333 1.279 . S
O332 Cd324 2.223 . S
O332 C331 1.315 . S
O333 Cd323 2.240 . S
O333 C331 1.279 . S
O334 Cd324 2.297 . S
O334 C329 1.247 . S
O335 Cd324 2.439 . S
O335 C329 1.208 . S
C336 Eu337 2.835 . S
C336 C338 1.500 . S
C336 O356 1.257 . S
C336 O357 1.260 . S
Eu337 C336 2.835 . S
Eu337 O356 2.473 . S
Eu337 O357 2.480 . S
Eu337 O358 2.430 . S
Eu337 O359 2.670 . S
Eu337 O360 2.394 . S
Eu337 O365 2.355 . S
Eu337 O367 2.374 . S
C338 C336 1.500 . S
C338 C339 1.377 . S
C338 C343 1.377 1_545 S
C339 C338 1.377 . S
C339 C340 1.395 . S
C339 H368 0.931 . S
C340 C339 1.395 . S
C340 C341 1.383 1_545 S
C340 H369 0.931 . S
C341 C340 1.383 1_565 S
C341 C342 1.394 . S
C342 C341 1.394 . S
C342 C343 1.378 . S
C342 H370 0.931 . S
C343 C338 1.377 1_565 S
C343 C342 1.378 . S
C343 H371 0.931 . S
C344 O358 1.259 . S
C344 O359 1.270 . S
C345 O360 1.251 1_565 S
C345 O361 1.251 . S
C346 Eu347 2.863 . S
C346 C348 1.500 . S
C346 O362 1.257 . S
C346 O363 1.260 . S
Eu347 C346 2.863 . S
Eu347 O359 2.342 1_655 S
Eu347 O361 2.358 1_645 S
Eu347 O362 2.499 . S
Eu347 O363 2.504 . S
Eu347 O364 2.412 1_655 S
Eu347 O365 2.637 1_655 S
Eu347 O366 2.385 1_655 S
C348 C346 1.500 . S
C348 C349 1.377 . S
C348 C353 1.377 . S
C349 C348 1.377 . S
C349 C350 1.388 1_554 S
C349 H372 0.931 1_554 S
C350 C349 1.388 1_556 S
C350 C351 1.337 1_556 S
C350 H373 0.987 . S
C351 C350 1.337 1_554 S
C351 C352 1.394 . S
C352 C351 1.394 . S
C352 C353 1.378 . S
C352 H374 0.931 . S
C353 C348 1.377 . S
C353 C352 1.378 . S
C353 H375 0.931 . S
C354 O364 1.259 . S
C354 O365 1.270 . S
C355 O366 1.251 . S
C355 O367 1.251 . S
O356 C336 1.257 . S
O356 Eu337 2.473 . S
O357 C336 1.260 . S
O357 Eu337 2.480 . S
O358 Eu337 2.430 . S
O358 C344 1.259 . S
O359 Eu337 2.670 . S
O359 C344 1.270 . S
O359 Eu347 2.342 1_455 S
O360 Eu337 2.394 . S
O360 C345 1.251 1_545 S
O361 C345 1.251 . S
O361 Eu347 2.358 1_465 S
O362 C346 1.257 . S
O362 Eu347 2.499 . S
O363 C346 1.260 . S
O363 Eu347 2.504 . S
O364 Eu347 2.412 1_455 S
O364 C354 1.259 . S
O365 Eu337 2.355 . S
O365 Eu347 2.637 1_455 S
O365 C354 1.270 . S
O366 Eu347 2.385 1_455 S
O366 C355 1.251 . S
O367 Eu337 2.374 . S
O367 C355 1.251 . S
H368 C339 0.931 . S
H369 C340 0.931 . S
H370 C342 0.931 . S
H371 C343 0.931 . S
H372 C349 0.931 1_556 S
H373 C350 0.987 . S
H374 C352 0.931 . S
H375 C353 0.931 . S
C376 Eu377 2.835 . S
C376 C378 1.500 . S
C376 O396 1.257 . S
C376 O397 1.260 . S
Eu377 C376 2.835 . S
Eu377 O396 2.473 . S
Eu377 O397 2.480 . S
Eu377 O398 2.430 . S
Eu377 O399 2.670 . S
Eu377 O400 2.394 . S
Eu377 O405 2.355 . S
Eu377 O407 2.374 . S
C378 C376 1.500 . S
C378 C379 1.377 . S
C378 C383 1.377 . S
C379 C378 1.377 . S
C379 C380 1.395 . S
C379 H408 0.931 . S
C380 C379 1.395 . S
C380 C381 1.383 . S
C380 H409 0.931 . S
C381 C380 1.383 . S
C381 C382 1.394 . S
C382 C381 1.394 . S
C382 C383 1.378 . S
C382 H410 0.931 . S
C383 C378 1.377 . S
C383 C382 1.378 . S
C383 H411 0.931 . S
C384 O398 1.259 . S
C384 O399 1.270 . S
C385 O400 1.251 . S
C385 O401 1.251 . S
C386 Eu387 2.835 . S
C386 C388 1.500 . S
C386 O402 1.257 . S
C386 O403 1.260 . S
Eu387 C386 2.835 . S
Eu387 O399 2.355 . S
Eu387 O401 2.374 . S
Eu387 O402 2.473 . S
Eu387 O403 2.480 . S
Eu387 O404 2.430 . S
Eu387 O405 2.670 . S
Eu387 O406 2.394 . S
C388 C386 1.500 . S
C388 C389 1.377 . S
C388 C393 1.377 . S
C389 C388 1.377 . S
C389 C390 1.395 . S
C389 H412 0.931 . S
C390 C389 1.395 . S
C390 C391 1.383 . S
C390 H413 0.931 . S
C391 C390 1.383 . S
C391 C392 1.394 . S
C392 C391 1.394 . S
C392 C393 1.378 . S
C392 H414 0.931 . S
C393 C388 1.377 . S
C393 C392 1.378 . S
C393 H415 0.931 . S
C394 O404 1.259 . S
C394 O405 1.270 . S
C395 O406 1.251 . S
C395 O407 1.251 . S
O396 C376 1.257 . S
O396 Eu377 2.473 . S
O397 C376 1.260 . S
O397 Eu377 2.480 . S
O398 Eu377 2.430 . S
O398 C384 1.259 . S
O399 Eu377 2.670 . S
O399 C384 1.270 . S
O399 Eu387 2.355 . S
O400 Eu377 2.394 . S
O400 C385 1.251 . S
O401 C385 1.251 . S
O401 Eu387 2.374 . S
O402 C386 1.257 . S
O402 Eu387 2.473 . S
O403 C386 1.260 . S
O403 Eu387 2.480 . S
O404 Eu387 2.430 . S
O404 C394 1.259 . S
O405 Eu377 2.355 . S
O405 Eu387 2.670 . S
O405 C394 1.270 . S
O406 Eu387 2.394 . S
O406 C395 1.251 . S
O407 Eu377 2.374 . S
O407 C395 1.251 . S
H408 C379 0.931 . S
H409 C380 0.931 . S
H410 C382 0.931 . S
H411 C383 0.931 . S
H412 C389 0.931 . S
H413 C390 0.931 . S
H414 C392 0.931 . S
H415 C393 0.931 . S
C416 Eu417 2.835 . S
C416 C418 1.500 . S
C416 O436 1.257 . S
C416 O437 1.260 . S
Eu417 C416 2.835 . S
Eu417 O436 2.473 . S
Eu417 O437 2.480 . S
Eu417 O438 2.430 . S
Eu417 O439 2.670 . S
Eu417 O440 2.394 . S
Eu417 O445 2.355 . S
Eu417 O447 2.374 1_545 S
C418 C416 1.500 . S
C418 C419 1.377 . S
C418 C423 1.377 . S
C419 C418 1.377 . S
C419 C420 1.395 . S
C419 H448 0.931 . S
C420 C419 1.395 . S
C420 C421 1.383 . S
C420 H449 0.931 . S
C421 C420 1.383 . S
C421 C422 1.394 . S
C422 C421 1.394 . S
C422 C423 1.378 . S
C422 H450 0.931 . S
C423 C418 1.377 . S
C423 C422 1.378 . S
C423 H451 0.931 . S
C424 O438 1.259 . S
C424 O439 1.270 . S
C425 O440 1.251 . S
C425 O441 1.251 . S
C426 Eu427 2.835 . S
C426 C428 1.500 1_545 S
C426 O442 1.257 . S
C426 O443 1.260 . S
Eu427 C426 2.835 . S
Eu427 O439 2.355 . S
Eu427 O441 2.374 . S
Eu427 O442 2.473 . S
Eu427 O443 2.480 . S
Eu427 O444 2.430 . S
Eu427 O445 2.670 . S
Eu427 O446 2.394 1_545 S
C428 C426 1.500 1_565 S
C428 C429 1.377 . S
C428 C433 1.377 . S
C429 C428 1.377 . S
C429 C430 1.395 . S
C429 H452 0.891 1_565 S
C430 C429 1.395 . S
C430 C431 1.383 . S
C430 H453 0.931 . S
C431 C430 1.383 . S
C431 C432 1.394 . S
C432 C431 1.394 . S
C432 C433 1.378 . S
C432 H454 0.931 . S
C433 C428 1.377 . S
C433 C432 1.378 . S
C433 H455 0.931 . S
C434 O444 1.259 . S
C434 O445 1.270 . S
C435 O446 1.251 . S
C435 O447 1.251 . S
O436 C416 1.257 . S
O436 Eu417 2.473 . S
O437 C416 1.260 . S
O437 Eu417 2.480 . S
O438 Eu417 2.430 . S
O438 C424 1.259 . S
O439 Eu417 2.670 . S
O439 C424 1.270 . S
O439 Eu427 2.355 . S
O440 Eu417 2.394 . S
O440 C425 1.251 . S
O441 C425 1.251 . S
O441 Eu427 2.374 . S
O442 C426 1.257 . S
O442 Eu427 2.473 . S
O443 C426 1.260 . S
O443 Eu427 2.480 . S
O444 Eu427 2.430 . S
O444 C434 1.259 . S
O445 Eu417 2.355 . S
O445 Eu427 2.670 . S
O445 C434 1.270 . S
O446 Eu427 2.394 1_565 S
O446 C435 1.251 . S
O447 Eu417 2.374 1_565 S
O447 C435 1.251 . S
H448 C419 0.931 . S
H449 C420 0.931 . S
H450 C422 0.931 . S
H451 C423 0.931 . S
H452 C429 0.891 1_545 S
H453 C430 0.931 . S
H454 C432 0.931 . S
H455 C433 0.931 . S
C456 Eu457 2.835 . S
C456 C458 1.500 . S
C456 O476 1.257 . S
C456 O477 1.260 . S
Eu457 C456 2.835 . S
Eu457 O476 2.473 . S
Eu457 O477 2.480 . S
Eu457 O478 2.430 . S
Eu457 O479 2.670 . S
Eu457 O480 2.394 . S
Eu457 O485 2.355 . S
Eu457 O487 2.374 . S
C458 C456 1.500 . S
C458 C459 1.377 . S
C458 C463 1.377 . S
C459 C458 1.377 . S
C459 C460 1.395 . S
C459 H488 0.931 . S
C460 C459 1.395 . S
C460 C461 1.383 . S
C460 H489 0.931 . S
C461 C460 1.383 . S
C461 C462 1.394 . S
C462 C461 1.394 . S
C462 C463 1.378 . S
C462 H490 0.931 . S
C463 C458 1.377 . S
C463 C462 1.378 . S
C463 H491 0.931 . S
C464 O478 1.259 . S
C464 O479 1.270 . S
C465 O480 1.251 . S
C465 O481 1.251 . S
C466 Eu467 2.835 . S
C466 C468 1.500 . S
C466 O482 1.257 . S
C466 O483 1.260 . S
Eu467 C466 2.835 . S
Eu467 O479 2.355 . S
Eu467 O481 2.374 . S
Eu467 O482 2.473 . S
Eu467 O483 2.480 . S
Eu467 O484 2.430 . S
Eu467 O485 2.670 . S
Eu467 O486 2.394 . S
C468 C466 1.500 . S
C468 C469 1.377 . S
C468 C473 1.377 . S
C469 C468 1.377 . S
C469 C470 1.395 . S
C469 H492 0.931 . S
C470 C469 1.395 . S
C470 C471 1.383 . S
C470 H493 0.931 . S
C471 C470 1.383 . S
C471 C472 1.394 . S
C472 C471 1.394 . S
C472 C473 1.378 . S
C472 H494 0.931 . S
C473 C468 1.377 . S
C473 C472 1.378 . S
C473 H495 0.931 . S
C474 O484 1.259 . S
C474 O485 1.270 . S
C475 O486 1.251 . S
C475 O487 1.251 . S
O476 C456 1.257 . S
O476 Eu457 2.473 . S
O477 C456 1.260 . S
O477 Eu457 2.480 . S
O478 Eu457 2.430 . S
O478 C464 1.259 . S
O479 Eu457 2.670 . S
O479 C464 1.270 . S
O479 Eu467 2.355 . S
O480 Eu457 2.394 . S
O480 C465 1.251 . S
O481 C465 1.251 . S
O481 Eu467 2.374 . S
O482 C466 1.257 . S
O482 Eu467 2.473 . S
O483 C466 1.260 . S
O483 Eu467 2.480 . S
O484 Eu467 2.430 . S
O484 C474 1.259 . S
O485 Eu457 2.355 . S
O485 Eu467 2.670 . S
O485 C474 1.270 . S
O486 Eu467 2.394 . S
O486 C475 1.251 . S
O487 Eu457 2.374 . S
O487 C475 1.251 . S
H488 C459 0.931 . S
H489 C460 0.931 . S
H490 C462 0.931 . S
H491 C463 0.931 . S
H492 C469 0.931 . S
H493 C470 0.931 . S
H494 C472 0.931 . S
H495 C473 0.931 . S
C496 Eu497 2.842 . S
C496 C498 1.500 . S
C496 O516 1.257 . S
C496 O517 1.260 . S
Eu497 C496 2.842 . S
Eu497 O516 2.479 . S
Eu497 O517 2.487 . S
Eu497 O518 2.427 1_565 S
Eu497 O519 2.662 1_565 S
Eu497 O520 2.393 1_565 S
Eu497 O525 2.351 1_565 S
Eu497 O527 2.369 1_565 S
C498 C496 1.500 . S
C498 C499 1.377 . S
C498 C503 1.377 . S
C499 C498 1.377 . S
C499 C500 1.395 . S
C499 H528 0.931 . S
C500 C499 1.395 . S
C500 C501 1.383 . S
C500 H529 0.931 . S
C501 C500 1.383 . S
C501 C502 1.394 . S
C502 C501 1.394 . S
C502 C503 1.378 . S
C502 H530 0.931 . S
C503 C498 1.377 . S
C503 C502 1.378 . S
C503 H531 0.931 . S
C504 O518 1.259 . S
C504 O519 1.270 . S
C505 O520 1.251 . S
C505 O521 1.251 . S
C506 Eu507 2.835 . S
C506 C508 1.500 . S
C506 O522 1.257 . S
C506 O523 1.260 . S
Eu507 C506 2.835 . S
Eu507 O519 2.355 . S
Eu507 O521 2.374 . S
Eu507 O522 2.473 . S
Eu507 O523 2.480 . S
Eu507 O524 2.430 1_455 S
Eu507 O525 2.670 . S
Eu507 O526 2.394 . S
C508 C506 1.500 . S
C508 C509 1.377 . S
C508 C513 1.377 . S
C509 C508 1.377 . S
C509 C510 1.395 . S
C509 H532 0.931 1_455 S
C510 C509 1.395 . S
C510 C511 1.383 . S
C510 H533 0.931 1_455 S
C511 C510 1.383 . S
C511 C512 1.394 . S
C512 C511 1.394 . S
C512 C513 1.378 . S
C512 H534 0.931 . S
C513 C508 1.377 . S
C513 C512 1.378 . S
C513 H535 0.931 . S
C514 O524 1.259 . S
C514 O525 1.270 1_655 S
C515 O526 1.251 . S
C515 O527 1.251 . S
O516 C496 1.257 . S
O516 Eu497 2.479 . S
O517 C496 1.260 . S
O517 Eu497 2.487 . S
O518 Eu497 2.427 1_545 S
O518 C504 1.259 . S
O519 Eu497 2.662 1_545 S
O519 C504 1.270 . S
O519 Eu507 2.355 . S
O520 Eu497 2.393 1_545 S
O520 C505 1.251 . S
O521 C505 1.251 . S
O521 Eu507 2.374 . S
O522 C506 1.257 . S
O522 Eu507 2.473 . S
O523 C506 1.260 . S
O523 Eu507 2.480 . S
O524 Eu507 2.430 1_655 S
O524 C514 1.259 . S
O525 Eu497 2.351 1_545 S
O525 Eu507 2.670 . S
O525 C514 1.270 1_455 S
O526 Eu507 2.394 . S
O526 C515 1.251 . S
O527 Eu497 2.369 1_545 S
O527 C515 1.251 . S
H528 C499 0.931 . S
H529 C500 0.931 . S
H530 C502 0.931 . S
H531 C503 0.931 . S
H532 C509 0.931 1_655 S
H533 C510 0.931 1_655 S
H534 C512 0.931 . S
H535 C513 0.931 . S
C536 Eu537 2.835 . S
C536 C538 1.500 . S
C536 O556 1.257 . S
C536 O557 1.260 . S
Eu537 C536 2.835 . S
Eu537 O556 2.473 . S
Eu537 O557 2.480 . S
Eu537 O558 2.430 . S
Eu537 O559 2.670 . S
Eu537 O560 2.394 . S
Eu537 O565 2.355 . S
Eu537 O567 2.374 . S
C538 C536 1.500 . S
C538 C539 1.377 . S
C538 C543 1.377 . S
C539 C538 1.377 . S
C539 C540 1.395 . S
C539 H568 0.931 . S
C540 C539 1.395 . S
C540 C541 1.383 . S
C540 H569 0.931 . S
C541 C540 1.383 . S
C541 C542 1.394 . S
C542 C541 1.394 . S
C542 C543 1.378 . S
C542 H570 0.931 . S
C543 C538 1.377 . S
C543 C542 1.378 . S
C543 H571 0.931 . S
C544 O558 1.259 . S
C544 O559 1.270 . S
C545 O560 1.251 . S
C545 O561 1.251 . S
C546 Eu547 2.835 . S
C546 C548 1.500 . S
C546 O562 1.257 . S
C546 O563 1.260 . S
Eu547 C546 2.835 . S
Eu547 O559 2.355 . S
Eu547 O561 2.374 . S
Eu547 O562 2.473 . S
Eu547 O563 2.480 . S
Eu547 O564 2.430 . S
Eu547 O565 2.670 . S
Eu547 O566 2.394 . S
C548 C546 1.500 . S
C548 C549 1.377 . S
C548 C553 1.377 . S
C549 C548 1.377 . S
C549 C550 1.395 . S
C549 H572 0.931 . S
C550 C549 1.395 . S
C550 C551 1.383 . S
C550 H573 0.931 . S
C551 C550 1.383 . S
C551 C552 1.394 . S
C552 C551 1.394 . S
C552 C553 1.378 . S
C552 H574 0.931 . S
C553 C548 1.377 . S
C553 C552 1.378 . S
C553 H575 0.931 . S
C554 O564 1.259 . S
C554 O565 1.270 . S
C555 O566 1.251 . S
C555 O567 1.251 . S
O556 C536 1.257 . S
O556 Eu537 2.473 . S
O557 C536 1.260 . S
O557 Eu537 2.480 . S
O558 Eu537 2.430 . S
O558 C544 1.259 . S
O559 Eu537 2.670 . S
O559 C544 1.270 . S
O559 Eu547 2.355 . S
O560 Eu537 2.394 . S
O560 C545 1.251 . S
O561 C545 1.251 . S
O561 Eu547 2.374 . S
O562 C546 1.257 . S
O562 Eu547 2.473 . S
O563 C546 1.260 . S
O563 Eu547 2.480 . S
O564 Eu547 2.430 . S
O564 C554 1.259 . S
O565 Eu537 2.355 . S
O565 Eu547 2.670 . S
O565 C554 1.270 . S
O566 Eu547 2.394 . S
O566 C555 1.251 . S
O567 Eu537 2.374 . S
O567 C555 1.251 . S
H568 C539 0.931 . S
H569 C540 0.931 . S
H570 C542 0.931 . S
H571 C543 0.931 . S
H572 C549 0.931 . S
H573 C550 0.931 . S
H574 C552 0.931 . S
H575 C553 0.931 . S
C576 Eu577 2.835 . S
C576 C578 1.500 . S
C576 O596 1.257 . S
C576 O597 1.260 . S
Eu577 C576 2.835 . S
Eu577 O596 2.473 . S
Eu577 O597 2.480 . S
Eu577 O598 2.430 1_545 S
Eu577 O599 2.660 1_545 S
Eu577 O600 2.394 . S
Eu577 O605 2.355 . S
Eu577 O607 2.374 . S
C578 C576 1.500 . S
C578 C579 1.377 . S
C578 C583 1.377 . S
C579 C578 1.377 . S
C579 C580 1.395 . S
C579 H608 0.931 . S
C580 C579 1.395 . S
C580 C581 1.383 . S
C580 H609 0.931 . S
C581 C580 1.383 . S
C581 C582 1.394 . S
C582 C581 1.394 . S
C582 C583 1.378 . S
C582 H610 0.931 . S
C583 C578 1.377 . S
C583 C582 1.378 . S
C583 H611 0.931 . S
C584 O598 1.259 . S
C584 O599 1.290 . S
C585 O600 1.251 . S
C585 O601 1.251 . S
C586 Eu587 2.835 . S
C586 C588 1.500 1_545 S
C586 O602 1.257 1_545 S
C586 O603 1.260 . S
Eu587 C586 2.835 . S
Eu587 O599 2.337 1_545 S
Eu587 O601 2.374 . S
Eu587 O602 2.473 1_545 S
Eu587 O603 2.480 . S
Eu587 O604 2.430 . S
Eu587 O605 2.670 . S
Eu587 O606 2.394 . S
C588 C586 1.500 1_565 S
C588 C589 1.377 1_565 S
C588 C593 1.377 . S
C589 C588 1.377 1_545 S
C589 C590 1.395 1_545 S
C589 H612 0.931 . S
C590 C589 1.395 1_565 S
C590 C591 1.383 . S
C590 H613 0.914 1_565 S
C591 C590 1.383 . S
C591 C592 1.394 . S
C592 C591 1.394 . S
C592 C593 1.378 . S
C592 H614 0.931 . S
C593 C588 1.377 . S
C593 C592 1.378 . S
C593 H615 0.931 . S
C594 O604 1.259 . S
C594 O605 1.270 . S
C595 O606 1.251 . S
C595 O607 1.251 . S
O596 C576 1.257 . S
O596 Eu577 2.473 . S
O597 C576 1.260 . S
O597 Eu577 2.480 . S
O598 Eu577 2.430 1_565 S
O598 C584 1.259 . S
O599 Eu577 2.660 1_565 S
O599 C584 1.290 . S
O599 Eu587 2.337 1_565 S
O600 Eu577 2.394 . S
O600 C585 1.251 . S
O601 C585 1.251 . S
O601 Eu587 2.374 . S
O602 C586 1.257 1_565 S
O602 Eu587 2.473 1_565 S
O603 C586 1.260 . S
O603 Eu587 2.480 . S
O604 Eu587 2.430 . S
O604 C594 1.259 . S
O605 Eu577 2.355 . S
O605 Eu587 2.670 . S
O605 C594 1.270 . S
O606 Eu587 2.394 . S
O606 C595 1.251 . S
O607 Eu577 2.374 . S
O607 C595 1.251 . S
H608 C579 0.931 . S
H609 C580 0.931 . S
H610 C582 0.931 . S
H611 C583 0.931 . S
H612 C589 0.931 . S
H613 C590 0.914 1_545 S
H614 C592 0.931 . S
H615 C593 0.931 . S
C616 Eu617 2.835 . S
C616 C618 1.500 . S
C616 O636 1.257 . S
C616 O637 1.260 . S
Eu617 C616 2.835 . S
Eu617 O636 2.473 . S
Eu617 O637 2.480 . S
Eu617 O638 2.430 . S
Eu617 O639 2.670 . S
Eu617 O640 2.394 . S
Eu617 O645 2.355 . S
Eu617 O647 2.374 . S
C618 C616 1.500 . S
C618 C619 1.377 . S
C618 C623 1.377 . S
C619 C618 1.377 . S
C619 C620 1.395 . S
C619 H648 0.931 . S
C620 C619 1.395 . S
C620 C621 1.383 . S
C620 H649 0.931 . S
C621 C620 1.383 . S
C621 C622 1.394 . S
C622 C621 1.394 . S
C622 C623 1.378 . S
C622 H650 0.931 . S
C623 C618 1.377 . S
C623 C622 1.378 . S
C623 H651 0.931 . S
C624 O638 1.259 . S
C624 O639 1.270 . S
C625 O640 1.251 . S
C625 O641 1.251 . S
C626 Eu627 2.835 . S
C626 C628 1.500 . S
C626 O642 1.257 . S
C626 O643 1.260 . S
Eu627 C626 2.835 . S
Eu627 O639 2.355 . S
Eu627 O641 2.374 . S
Eu627 O642 2.473 . S
Eu627 O643 2.480 . S
Eu627 O644 2.430 . S
Eu627 O645 2.670 . S
Eu627 O646 2.394 . S
C628 C626 1.500 . S
C628 C629 1.377 . S
C628 C633 1.377 . S
C629 C628 1.377 . S
C629 C630 1.395 . S
C629 H652 0.931 . S
C630 C629 1.395 . S
C630 C631 1.383 . S
C630 H653 0.931 . S
C631 C630 1.383 . S
C631 C632 1.394 . S
C632 C631 1.394 . S
C632 C633 1.378 . S
C632 H654 0.931 . S
C633 C628 1.377 . S
C633 C632 1.378 . S
C633 H655 0.931 . S
C634 O644 1.259 . S
C634 O645 1.270 . S
C635 O646 1.251 . S
C635 O647 1.251 . S
O636 C616 1.257 . S
O636 Eu617 2.473 . S
O637 C616 1.260 . S
O637 Eu617 2.480 . S
O638 Eu617 2.430 . S
O638 C624 1.259 . S
O639 Eu617 2.670 . S
O639 C624 1.270 . S
O639 Eu627 2.355 . S
O640 Eu617 2.394 . S
O640 C625 1.251 . S
O641 C625 1.251 . S
O641 Eu627 2.374 . S
O642 C626 1.257 . S
O642 Eu627 2.473 . S
O643 C626 1.260 . S
O643 Eu627 2.480 . S
O644 Eu627 2.430 . S
O644 C634 1.259 . S
O645 Eu617 2.355 . S
O645 Eu627 2.670 . S
O645 C634 1.270 . S
O646 Eu627 2.394 . S
O646 C635 1.251 . S
O647 Eu617 2.374 . S
O647 C635 1.251 . S
H648 C619 0.931 . S
H649 C620 0.931 . S
H650 C622 0.931 . S
H651 C623 0.931 . S
H652 C629 0.931 . S
H653 C630 0.931 . S
H654 C632 0.931 . S
H655 C633 0.931 . S
C656 Eu657 2.835 . S
C656 C658 1.500 . S
C656 O676 1.257 . S
C656 O677 1.260 . S
Eu657 C656 2.835 . S
Eu657 O676 2.473 . S
Eu657 O677 2.480 . S
Eu657 O678 2.430 . S
Eu657 O679 2.670 . S
Eu657 O680 2.394 . S
Eu657 O685 2.355 . S
Eu657 O687 2.374 . S
C658 C656 1.500 . S
C658 C659 1.377 . S
C658 C663 1.377 . S
C659 C658 1.377 . S
C659 C660 1.395 . S
C659 H688 0.931 . S
C660 C659 1.395 . S
C660 C661 1.383 . S
C660 H689 0.931 . S
C661 C660 1.383 . S
C661 C662 1.394 . S
C662 C661 1.394 . S
C662 C663 1.378 . S
C662 H690 0.931 . S
C663 C658 1.377 . S
C663 C662 1.378 . S
C663 H691 0.931 . S
C664 O678 1.259 . S
C664 O679 1.270 . S
C665 O680 1.251 . S
C665 O681 1.251 . S
C666 Eu667 2.835 . S
C666 C668 1.500 . S
C666 O682 1.257 . S
C666 O683 1.260 . S
Eu667 C666 2.835 . S
Eu667 O679 2.355 . S
Eu667 O681 2.374 . S
Eu667 O682 2.473 . S
Eu667 O683 2.480 . S
Eu667 O684 2.430 . S
Eu667 O685 2.670 . S
Eu667 O686 2.394 . S
C668 C666 1.500 . S
C668 C669 1.377 . S
C668 C673 1.377 . S
C669 C668 1.377 . S
C669 C670 1.395 . S
C669 H692 0.931 . S
C670 C669 1.395 . S
C670 C671 1.383 . S
C670 H693 0.931 . S
C671 C670 1.383 . S
C671 C672 1.394 . S
C672 C671 1.394 . S
C672 C673 1.378 . S
C672 H694 0.931 1_554 S
C673 C668 1.377 . S
C673 C672 1.378 . S
C673 H695 0.931 . S
C674 O684 1.259 . S
C674 O685 1.270 . S
C675 O686 1.251 . S
C675 O687 1.251 . S
O676 C656 1.257 . S
O676 Eu657 2.473 . S
O677 C656 1.260 . S
O677 Eu657 2.480 . S
O678 Eu657 2.430 . S
O678 C664 1.259 . S
O679 Eu657 2.670 . S
O679 C664 1.270 . S
O679 Eu667 2.355 . S
O680 Eu657 2.394 . S
O680 C665 1.251 . S
O681 C665 1.251 . S
O681 Eu667 2.374 . S
O682 C666 1.257 . S
O682 Eu667 2.473 . S
O683 C666 1.260 . S
O683 Eu667 2.480 . S
O684 Eu667 2.430 . S
O684 C674 1.259 . S
O685 Eu657 2.355 . S
O685 Eu667 2.670 . S
O685 C674 1.270 . S
O686 Eu667 2.394 . S
O686 C675 1.251 . S
O687 Eu657 2.374 . S
O687 C675 1.251 . S
H688 C659 0.931 . S
H689 C660 0.931 . S
H690 C662 0.931 . S
H691 C663 0.931 . S
H692 C669 0.931 . S
H693 C670 0.931 . S
H694 C672 0.931 1_556 S
H695 C673 0.931 . S
C696 Eu697 2.835 . S
C696 C698 1.500 . S
C696 O716 1.257 . S
C696 O717 1.260 . S
Eu697 C696 2.835 . S
Eu697 O716 2.473 . S
Eu697 O717 2.480 . S
Eu697 O718 2.430 . S
Eu697 O719 2.670 . S
Eu697 O720 2.394 . S
Eu697 O725 2.355 . S
Eu697 O727 2.374 . S
C698 C696 1.500 . S
C698 C699 1.377 . S
C698 C703 1.377 . S
C699 C698 1.377 . S
C699 C700 1.395 . S
C699 H728 0.931 . S
C700 C699 1.395 . S
C700 C701 1.383 . S
C700 H729 0.931 . S
C701 C700 1.383 . S
C701 C702 1.394 . S
C702 C701 1.394 . S
C702 C703 1.378 . S
C702 H730 0.931 . S
C703 C698 1.377 . S
C703 C702 1.378 . S
C703 H731 0.931 . S
C704 O718 1.259 . S
C704 O719 1.270 . S
C705 O720 1.251 . S
C705 O721 1.251 . S
C706 Eu707 2.835 . S
C706 C708 1.500 . S
C706 O722 1.257 . S
C706 O723 1.260 . S
Eu707 C706 2.835 . S
Eu707 O719 2.355 . S
Eu707 O721 2.374 . S
Eu707 O722 2.473 . S
Eu707 O723 2.480 . S
Eu707 O724 2.430 . S
Eu707 O725 2.670 . S
Eu707 O726 2.394 . S
C708 C706 1.500 . S
C708 C709 1.377 . S
C708 C713 1.377 . S
C709 C708 1.377 . S
C709 C710 1.395 . S
C709 H732 0.931 . S
C710 C709 1.395 . S
C710 C711 1.383 . S
C710 H733 0.931 . S
C711 C710 1.383 . S
C711 C712 1.394 . S
C712 C711 1.394 . S
C712 C713 1.378 . S
C712 H734 0.931 . S
C713 C708 1.377 . S
C713 C712 1.378 . S
C713 H735 0.931 . S
C714 O724 1.259 . S
C714 O725 1.270 . S
C715 O726 1.251 . S
C715 O727 1.251 . S
O716 C696 1.257 . S
O716 Eu697 2.473 . S
O717 C696 1.260 . S
O717 Eu697 2.480 . S
O718 Eu697 2.430 . S
O718 C704 1.259 . S
O719 Eu697 2.670 . S
O719 C704 1.270 . S
O719 Eu707 2.355 . S
O720 Eu697 2.394 . S
O720 C705 1.251 . S
O721 C705 1.251 . S
O721 Eu707 2.374 . S
O722 C706 1.257 . S
O722 Eu707 2.473 . S
O723 C706 1.260 . S
O723 Eu707 2.480 . S
O724 Eu707 2.430 . S
O724 C714 1.259 . S
O725 Eu697 2.355 . S
O725 Eu707 2.670 . S
O725 C714 1.270 . S
O726 Eu707 2.394 . S
O726 C715 1.251 . S
O727 Eu697 2.374 . S
O727 C715 1.251 . S
H728 C699 0.931 . S
H729 C700 0.931 . S
H730 C702 0.931 . S
H731 C703 0.931 . S
H732 C709 0.931 . S
H733 C710 0.931 . S
H734 C712 0.931 . S
H735 C713 0.931 . S
C736 Eu737 2.835 . S
C736 C738 1.500 . S
C736 O756 1.257 . S
C736 O757 1.260 . S
Eu737 C736 2.835 . S
Eu737 O756 2.473 . S
Eu737 O757 2.480 . S
Eu737 O758 2.430 . S
Eu737 O759 2.670 . S
Eu737 O760 2.394 . S
Eu737 O765 2.355 . S
Eu737 O767 2.374 . S
C738 C736 1.500 . S
C738 C739 1.377 . S
C738 C743 1.377 . S
C739 C738 1.377 . S
C739 C740 1.395 . S
C739 H768 0.931 . S
C740 C739 1.395 . S
C740 C741 1.383 . S
C740 H769 0.931 . S
C741 C740 1.383 . S
C741 C742 1.394 . S
C742 C741 1.394 . S
C742 C743 1.378 . S
C742 H770 0.931 . S
C743 C738 1.377 . S
C743 C742 1.378 . S
C743 H771 0.931 . S
C744 O758 1.259 . S
C744 O759 1.270 . S
C745 O760 1.251 . S
C745 O761 1.251 . S
C746 Eu747 2.835 . S
C746 C748 1.500 . S
C746 O762 1.257 . S
C746 O763 1.260 . S
Eu747 C746 2.835 . S
Eu747 O759 2.355 1_655 S
Eu747 O761 2.374 1_655 S
Eu747 O762 2.473 . S
Eu747 O763 2.480 . S
Eu747 O764 2.430 . S
Eu747 O765 2.670 1_655 S
Eu747 O766 2.394 . S
C748 C746 1.500 . S
C748 C749 1.377 . S
C748 C753 1.377 . S
C749 C748 1.377 . S
C749 C750 1.395 . S
C749 H772 0.931 . S
C750 C749 1.395 . S
C750 C751 1.383 . S
C750 H773 0.931 . S
C751 C750 1.383 . S
C751 C752 1.394 . S
C752 C751 1.394 . S
C752 C753 1.378 . S
C752 H774 0.931 . S
C753 C748 1.377 . S
C753 C752 1.378 . S
C753 H775 0.931 . S
C754 O764 1.259 1_455 S
C754 O765 1.270 . S
C755 O766 1.251 1_455 S
C755 O767 1.251 . S
O756 C736 1.257 . S
O756 Eu737 2.473 . S
O757 C736 1.260 . S
O757 Eu737 2.480 . S
O758 Eu737 2.430 . S
O758 C744 1.259 . S
O759 Eu737 2.670 . S
O759 C744 1.270 . S
O759 Eu747 2.355 1_455 S
O760 Eu737 2.394 . S
O760 C745 1.251 . S
O761 C745 1.251 . S
O761 Eu747 2.374 1_455 S
O762 C746 1.257 . S
O762 Eu747 2.473 . S
O763 C746 1.260 . S
O763 Eu747 2.480 . S
O764 Eu747 2.430 . S
O764 C754 1.259 1_655 S
O765 Eu737 2.355 . S
O765 Eu747 2.670 1_455 S
O765 C754 1.270 . S
O766 Eu747 2.394 . S
O766 C755 1.251 1_655 S
O767 Eu737 2.374 . S
O767 C755 1.251 . S
H768 C739 0.931 . S
H769 C740 0.931 . S
H770 C742 0.931 . S
H771 C743 0.931 . S
H772 C749 0.931 . S
H773 C750 0.931 . S
H774 C752 0.931 . S
H775 C753 0.931 . S
C776 Eu777 2.835 . S
C776 C778 1.500 . S
C776 O796 1.257 . S
C776 O797 1.260 . S
Eu777 C776 2.835 . S
Eu777 O796 2.473 . S
Eu777 O797 2.480 . S
Eu777 O798 2.430 . S
Eu777 O799 2.670 . S
Eu777 O800 2.394 . S
Eu777 O805 2.355 . S
Eu777 O807 2.374 . S
C778 C776 1.500 . S
C778 C779 1.377 . S
C778 C783 1.377 . S
C779 C778 1.377 . S
C779 C780 1.395 . S
C779 H808 0.931 . S
C780 C779 1.395 . S
C780 C781 1.383 . S
C780 H809 0.931 . S
C781 C780 1.383 . S
C781 C782 1.394 . S
C782 C781 1.394 . S
C782 C783 1.378 . S
C782 H810 0.931 . S
C783 C778 1.377 . S
C783 C782 1.378 . S
C783 H811 0.931 . S
C784 O798 1.259 . S
C784 O799 1.270 . S
C785 O800 1.251 . S
C785 O801 1.251 . S
C786 Eu787 2.835 . S
C786 C788 1.500 . S
C786 O802 1.257 . S
C786 O803 1.260 . S
Eu787 C786 2.835 . S
Eu787 O799 2.355 . S
Eu787 O801 2.374 . S
Eu787 O802 2.473 . S
Eu787 O803 2.480 . S
Eu787 O804 2.430 . S
Eu787 O805 2.670 . S
Eu787 O806 2.394 . S
C788 C786 1.500 . S
C788 C789 1.377 . S
C788 C793 1.377 . S
C789 C788 1.377 . S
C789 C790 1.395 . S
C789 H812 0.931 . S
C790 C789 1.395 . S
C790 C791 1.383 . S
C790 H813 0.931 . S
C791 C790 1.383 . S
C791 C792 1.394 . S
C792 C791 1.394 . S
C792 C793 1.378 . S
C792 H814 0.931 . S
C793 C788 1.377 . S
C793 C792 1.378 . S
C793 H815 0.931 . S
C794 O804 1.259 . S
C794 O805 1.270 . S
C795 O806 1.251 . S
C795 O807 1.251 . S
O796 C776 1.257 . S
O796 Eu777 2.473 . S
O797 C776 1.260 . S
O797 Eu777 2.480 . S
O798 Eu777 2.430 . S
O798 C784 1.259 . S
O799 Eu777 2.670 . S
O799 C784 1.270 . S
O799 Eu787 2.355 . S
O800 Eu777 2.394 . S
O800 C785 1.251 . S
O801 C785 1.251 . S
O801 Eu787 2.374 . S
O802 C786 1.257 . S
O802 Eu787 2.473 . S
O803 C786 1.260 . S
O803 Eu787 2.480 . S
O804 Eu787 2.430 . S
O804 C794 1.259 . S
O805 Eu777 2.355 . S
O805 Eu787 2.670 . S
O805 C794 1.270 . S
O806 Eu787 2.394 . S
O806 C795 1.251 . S
O807 Eu777 2.374 . S
O807 C795 1.251 . S
H808 C779 0.931 . S
H809 C780 0.931 . S
H810 C782 0.931 . S
H811 C783 0.931 . S
H812 C789 0.931 . S
H813 C790 0.931 . S
H814 C792 0.931 . S
H815 C793 0.931 . S
C816 Eu817 2.835 . S
C816 C818 1.500 . S
C816 O836 1.257 . S
C816 O837 1.260 . S
Eu817 C816 2.835 . S
Eu817 O836 2.473 . S
Eu817 O837 2.480 . S
Eu817 O838 2.430 . S
Eu817 O839 2.670 . S
Eu817 O840 2.394 . S
Eu817 O845 2.355 . S
Eu817 O847 2.374 . S
C818 C816 1.500 . S
C818 C819 1.377 . S
C818 C823 1.377 . S
C819 C818 1.377 . S
C819 C820 1.395 . S
C819 H848 0.931 . S
C820 C819 1.395 . S
C820 C821 1.383 . S
C820 H849 0.931 . S
C821 C820 1.383 . S
C821 C822 1.394 . S
C822 C821 1.394 . S
C822 C823 1.378 . S
C822 H850 0.931 . S
C823 C818 1.377 . S
C823 C822 1.378 . S
C823 H851 0.931 . S
C824 O838 1.259 . S
C824 O839 1.270 . S
C825 O840 1.251 . S
C825 O841 1.251 . S
C826 Eu827 2.835 . S
C826 C828 1.500 . S
C826 O842 1.257 . S
C826 O843 1.260 . S
Eu827 C826 2.835 . S
Eu827 O839 2.355 . S
Eu827 O841 2.374 . S
Eu827 O842 2.473 . S
Eu827 O843 2.480 . S
Eu827 O844 2.430 . S
Eu827 O845 2.670 . S
Eu827 O846 2.394 . S
C828 C826 1.500 . S
C828 C829 1.377 . S
C828 C833 1.377 . S
C829 C828 1.377 . S
C829 C830 1.395 . S
C829 H852 0.931 . S
C830 C829 1.395 . S
C830 C831 1.383 . S
C830 H853 0.931 . S
C831 C830 1.383 . S
C831 C832 1.394 . S
C832 C831 1.394 . S
C832 C833 1.378 . S
C832 H854 0.931 . S
C833 C828 1.377 . S
C833 C832 1.378 . S
C833 H855 0.931 . S
C834 O844 1.259 . S
C834 O845 1.270 . S
C835 O846 1.251 . S
C835 O847 1.251 . S
O836 C816 1.257 . S
O836 Eu817 2.473 . S
O837 C816 1.260 . S
O837 Eu817 2.480 . S
O838 Eu817 2.430 . S
O838 C824 1.259 . S
O839 Eu817 2.670 . S
O839 C824 1.270 . S
O839 Eu827 2.355 . S
O840 Eu817 2.394 . S
O840 C825 1.251 . S
O841 C825 1.251 . S
O841 Eu827 2.374 . S
O842 C826 1.257 . S
O842 Eu827 2.473 . S
O843 C826 1.260 . S
O843 Eu827 2.480 . S
O844 Eu827 2.430 . S
O844 C834 1.259 . S
O845 Eu817 2.355 . S
O845 Eu827 2.670 . S
O845 C834 1.270 . S
O846 Eu827 2.394 . S
O846 C835 1.251 . S
O847 Eu817 2.374 . S
O847 C835 1.251 . S
H848 C819 0.931 . S
H849 C820 0.931 . S
H850 C822 0.931 . S
H851 C823 0.931 . S
H852 C829 0.931 . S
H853 C830 0.931 . S
H854 C832 0.931 . S
H855 C833 0.931 . S
C856 Eu857 2.835 . S
C856 C858 1.500 . S
C856 O876 1.257 . S
C856 O877 1.260 . S
Eu857 C856 2.835 . S
Eu857 O876 2.473 . S
Eu857 O877 2.480 . S
Eu857 O878 2.430 . S
Eu857 O879 2.670 . S
Eu857 O880 2.394 . S
Eu857 O885 2.355 . S
Eu857 O887 2.374 . S
C858 C856 1.500 . S
C858 C859 1.377 . S
C858 C863 1.377 . S
C859 C858 1.377 . S
C859 C860 1.395 . S
C859 H888 0.931 . S
C860 C859 1.395 . S
C860 C861 1.383 . S
C860 H889 0.931 . S
C861 C860 1.383 . S
C861 C862 1.394 . S
C862 C861 1.394 . S
C862 C863 1.378 . S
C862 H890 0.931 . S
C863 C858 1.377 . S
C863 C862 1.378 . S
C863 H891 0.931 . S
C864 O878 1.259 . S
C864 O879 1.270 . S
C865 O880 1.251 . S
C865 O881 1.251 . S
C866 Eu867 2.835 . S
C866 C868 1.500 . S
C866 O882 1.257 . S
C866 O883 1.260 . S
Eu867 C866 2.835 . S
Eu867 O879 2.355 . S
Eu867 O881 2.374 . S
Eu867 O882 2.473 . S
Eu867 O883 2.480 . S
Eu867 O884 2.430 . S
Eu867 O885 2.670 . S
Eu867 O886 2.394 . S
C868 C866 1.500 . S
C868 C869 1.377 . S
C868 C873 1.377 . S
C869 C868 1.377 . S
C869 C870 1.395 . S
C869 H892 0.931 . S
C870 C869 1.395 . S
C870 C871 1.383 . S
C870 H893 0.931 . S
C871 C870 1.383 . S
C871 C872 1.394 . S
C872 C871 1.394 . S
C872 C873 1.378 . S
C872 H894 0.931 . S
C873 C868 1.377 . S
C873 C872 1.378 . S
C873 H895 0.931 . S
C874 O884 1.259 . S
C874 O885 1.270 . S
C875 O886 1.251 . S
C875 O887 1.251 . S
O876 C856 1.257 . S
O876 Eu857 2.473 . S
O877 C856 1.260 . S
O877 Eu857 2.480 . S
O878 Eu857 2.430 . S
O878 C864 1.259 . S
O879 Eu857 2.670 . S
O879 C864 1.270 . S
O879 Eu867 2.355 . S
O880 Eu857 2.394 . S
O880 C865 1.251 . S
O881 C865 1.251 . S
O881 Eu867 2.374 . S
O882 C866 1.257 . S
O882 Eu867 2.473 . S
O883 C866 1.260 . S
O883 Eu867 2.480 . S
O884 Eu867 2.430 . S
O884 C874 1.259 . S
O885 Eu857 2.355 . S
O885 Eu867 2.670 . S
O885 C874 1.270 . S
O886 Eu867 2.394 . S
O886 C875 1.251 . S
O887 Eu857 2.374 . S
O887 C875 1.251 . S
H888 C859 0.931 . S
H889 C860 0.931 . S
H890 C862 0.931 . S
H891 C863 0.931 . S
H892 C869 0.931 . S
H893 C870 0.931 . S
H894 C872 0.931 . S
H895 C873 0.931 . S
C896 Eu897 2.835 . S
C896 C898 1.500 . S
C896 O916 1.257 . S
C896 O917 1.260 . S
Eu897 C896 2.835 . S
Eu897 O916 2.473 . S
Eu897 O917 2.480 . S
Eu897 O918 2.430 . S
Eu897 O919 2.670 . S
Eu897 O920 2.394 . S
Eu897 O925 2.355 . S
Eu897 O927 2.374 . S
C898 C896 1.500 . S
C898 C899 1.377 . S
C898 C903 1.377 . S
C899 C898 1.377 . S
C899 C900 1.395 . S
C899 H928 0.931 . S
C900 C899 1.395 . S
C900 C901 1.383 . S
C900 H929 0.931 . S
C901 C900 1.383 . S
C901 C902 1.394 . S
C902 C901 1.394 . S
C902 C903 1.378 . S
C902 H930 0.931 . S
C903 C898 1.377 . S
C903 C902 1.378 . S
C903 H931 0.931 . S
C904 O918 1.259 . S
C904 O919 1.270 . S
C905 O920 1.251 . S
C905 O921 1.251 . S
C906 Eu907 2.835 . S
C906 C908 1.500 . S
C906 O922 1.257 . S
C906 O923 1.260 . S
Eu907 C906 2.835 . S
Eu907 O919 2.355 . S
Eu907 O921 2.374 . S
Eu907 O922 2.473 . S
Eu907 O923 2.480 . S
Eu907 O924 2.430 . S
Eu907 O925 2.670 . S
Eu907 O926 2.394 . S
C908 C906 1.500 . S
C908 C909 1.377 . S
C908 C913 1.377 . S
C909 C908 1.377 . S
C909 C910 1.395 . S
C909 H932 0.931 . S
C910 C909 1.395 . S
C910 C911 1.383 . S
C910 H933 0.931 . S
C911 C910 1.383 . S
C911 C912 1.394 . S
C912 C911 1.394 . S
C912 C913 1.378 . S
C912 H934 0.931 . S
C913 C908 1.377 . S
C913 C912 1.378 . S
C913 H935 0.931 . S
C914 O924 1.259 . S
C914 O925 1.270 . S
C915 O926 1.251 . S
C915 O927 1.251 . S
O916 C896 1.257 . S
O916 Eu897 2.473 . S
O917 C896 1.260 . S
O917 Eu897 2.480 . S
O918 Eu897 2.430 . S
O918 C904 1.259 . S
O919 Eu897 2.670 . S
O919 C904 1.270 . S
O919 Eu907 2.355 . S
O920 Eu897 2.394 . S
O920 C905 1.251 . S
O921 C905 1.251 . S
O921 Eu907 2.374 . S
O922 C906 1.257 . S
O922 Eu907 2.473 . S
O923 C906 1.260 . S
O923 Eu907 2.480 . S
O924 Eu907 2.430 . S
O924 C914 1.259 . S
O925 Eu897 2.355 . S
O925 Eu907 2.670 . S
O925 C914 1.270 . S
O926 Eu907 2.394 . S
O926 C915 1.251 . S
O927 Eu897 2.374 . S
O927 C915 1.251 . S
H928 C899 0.931 . S
H929 C900 0.931 . S
H930 C902 0.931 . S
H931 C903 0.931 . S
H932 C909 0.931 . S
H933 C910 0.931 . S
H934 C912 0.931 . S
H935 C913 0.931 . S
C936 Eu937 2.835 . S
C936 C938 1.500 . S
C936 O956 1.257 . S
C936 O957 1.260 . S
Eu937 C936 2.835 . S
Eu937 O956 2.473 . S
Eu937 O957 2.480 . S
Eu937 O958 2.430 1_655 S
Eu937 O959 2.670 1_655 S
Eu937 O960 2.394 1_655 S
Eu937 O965 2.355 1_655 S
Eu937 O967 2.374 1_655 S
C938 C936 1.500 . S
C938 C939 1.377 . S
C938 C943 1.377 . S
C939 C938 1.377 . S
C939 C940 1.395 . S
C939 H968 0.931 . S
C940 C939 1.395 . S
C940 C941 1.383 . S
C940 H969 0.931 . S
C941 C940 1.383 . S
C941 C942 1.394 . S
C942 C941 1.394 . S
C942 C943 1.378 . S
C942 H970 0.931 . S
C943 C938 1.377 . S
C943 C942 1.378 . S
C943 H971 0.931 . S
C944 O958 1.259 . S
C944 O959 1.270 . S
C945 O960 1.251 . S
C945 O961 1.251 . S
C946 Eu947 2.835 . S
C946 C948 1.500 . S
C946 O962 1.257 . S
C946 O963 1.260 . S
Eu947 C946 2.835 . S
Eu947 O959 2.355 . S
Eu947 O961 2.374 . S
Eu947 O962 2.473 . S
Eu947 O963 2.480 . S
Eu947 O964 2.430 . S
Eu947 O965 2.670 . S
Eu947 O966 2.394 . S
C948 C946 1.500 . S
C948 C949 1.377 . S
C948 C953 1.377 . S
C949 C948 1.377 . S
C949 C950 1.395 . S
C949 H972 0.931 . S
C950 C949 1.395 . S
C950 C951 1.383 . S
C950 H973 0.931 . S
C951 C950 1.383 . S
C951 C952 1.394 . S
C952 C951 1.394 . S
C952 C953 1.378 . S
C952 H974 0.931 . S
C953 C948 1.377 . S
C953 C952 1.378 . S
C953 H975 0.931 . S
C954 O964 1.259 . S
C954 O965 1.270 . S
C955 O966 1.251 . S
C955 O967 1.251 . S
O956 C936 1.257 . S
O956 Eu937 2.473 . S
O957 C936 1.260 . S
O957 Eu937 2.480 . S
O958 Eu937 2.430 1_455 S
O958 C944 1.259 . S
O959 Eu937 2.670 1_455 S
O959 C944 1.270 . S
O959 Eu947 2.355 . S
O960 Eu937 2.394 1_455 S
O960 C945 1.251 . S
O961 C945 1.251 . S
O961 Eu947 2.374 . S
O962 C946 1.257 . S
O962 Eu947 2.473 . S
O963 C946 1.260 . S
O963 Eu947 2.480 . S
O964 Eu947 2.430 . S
O964 C954 1.259 . S
O965 Eu937 2.355 1_455 S
O965 Eu947 2.670 . S
O965 C954 1.270 . S
O966 Eu947 2.394 . S
O966 C955 1.251 . S
O967 Eu937 2.374 1_455 S
O967 C955 1.251 . S
H968 C939 0.931 . S
H969 C940 0.931 . S
H970 C942 0.931 . S
H971 C943 0.931 . S
H972 C949 0.931 . S
H973 C950 0.931 . S
H974 C952 0.931 . S
H975 C953 0.931 . S
H976 C994 0.951 . S
H977 C996 0.951 . S
H978 C998 0.950 . S
H979 C999 0.950 . S
H980 C1001 0.950 . S
H981 C1004 0.950 . S
H982 C1005 0.950 . S
H983 C1007 0.950 . S
H984 C1008 0.950 . S
H985 C1009 0.951 1_655 S
H986 C1011 0.951 1_656 S
H987 C1013 0.950 . S
H988 C1014 0.950 . S
H989 C1016 0.950 . S
H990 C1019 0.950 1_455 S
H991 C1020 0.950 . S
H992 C1022 0.950 . S
H993 C1023 0.950 1_556 S
C994 H976 0.951 . S
C994 C995 1.366 1_455 S
C994 C996 1.388 . S
C995 C994 1.366 1_655 S
C995 C999 1.385 . S
C996 H977 0.951 . S
C996 C994 1.388 . S
C996 C997 1.366 . S
C997 C996 1.366 . S
C997 C998 1.414 1_455 S
C997 C1000 1.499 . S
C998 H978 0.950 . S
C998 C997 1.414 1_655 S
C998 C999 1.374 . S
C999 H979 0.950 . S
C999 C995 1.385 . S
C999 C998 1.374 . S
C1000 C997 1.499 . S
C1000 C1001 1.373 1_455 S
C1000 C1002 1.389 . S
C1001 H980 0.950 . S
C1001 C1000 1.373 1_655 S
C1001 C1017 1.377 . S
C1002 C1000 1.389 . S
C1002 C1003 1.524 . S
C1002 C1016 1.377 . S
C1003 C1002 1.524 . S
C1003 C1004 1.397 . S
C1003 C1008 1.363 . S
C1004 H981 0.950 . S
C1004 C1003 1.397 . S
C1004 C1005 1.334 . S
C1005 H982 0.950 . S
C1005 C1004 1.334 . S
C1005 C1006 1.287 . S
C1006 C1005 1.287 . S
C1006 C1007 1.524 . S
C1006 H1025 0.913 . S
C1007 H983 0.950 . S
C1007 C1006 1.524 . S
C1007 C1008 1.415 . S
C1008 H984 0.950 . S
C1008 C1003 1.363 . S
C1008 C1007 1.415 . S
C1009 H985 0.951 1_455 S
C1009 C1010 1.366 . S
C1009 C1011 1.388 . S
C1010 C1009 1.366 . S
C1010 C1014 1.385 . S
C1011 H986 0.951 1_454 S
C1011 C1009 1.388 . S
C1011 C1012 1.366 . S
C1012 C1011 1.366 . S
C1012 C1013 1.414 . S
C1012 C1015 1.499 1_554 S
C1013 H987 0.950 . S
C1013 C1012 1.414 . S
C1013 C1014 1.374 . S
C1014 H988 0.950 . S
C1014 C1010 1.385 . S
C1014 C1013 1.374 . S
C1015 C1012 1.499 1_556 S
C1015 C1016 1.373 . S
C1015 C1017 1.389 1_455 S
C1016 H989 0.950 . S
C1016 C1002 1.377 . S
C1016 C1015 1.373 . S
C1017 C1001 1.377 . S
C1017 C1015 1.389 1_655 S
C1017 C1018 1.524 1_556 S
C1018 C1017 1.524 1_554 S
C1018 C1019 1.397 . S
C1018 C1023 1.363 . S
C1019 H990 0.950 1_655 S
C1019 C1018 1.397 . S
C1019 C1020 1.334 . S
C1020 H991 0.950 . S
C1020 C1019 1.334 . S
C1020 C1021 1.287 . S
C1021 C1020 1.287 . S
C1021 C1022 1.524 . S
C1021 H1024 0.999 . S
C1022 H992 0.950 . S
C1022 C1021 1.524 . S
C1022 C1023 1.415 . S
C1023 H993 0.950 1_554 S
C1023 C1018 1.363 . S
C1023 C1022 1.415 . S
H1024 C1021 0.999 . S
H1025 C1006 0.913 . S
H1026 C1044 0.951 . S
H1027 C1046 0.951 . S
H1028 C1048 0.950 . S
H1029 C1049 0.950 . S
H1030 C1051 0.950 . S
H1031 C1054 0.950 . S
H1032 C1055 0.950 . S
H1033 C1057 0.950 . S
H1034 C1058 0.950 . S
H1035 C1059 0.951 . S
H1036 C1061 0.951 . S
H1037 C1063 0.950 . S
H1038 C1064 0.950 . S
H1039 C1066 0.950 . S
H1040 C1069 0.950 . S
H1041 C1070 0.950 . S
H1042 C1072 0.950 . S
H1043 C1073 0.950 . S
C1044 H1026 0.951 . S
C1044 C1045 1.366 . S
C1044 C1046 1.388 . S
C1045 C1044 1.366 . S
C1045 C1049 1.385 . S
C1046 H1027 0.951 . S
C1046 C1044 1.388 . S
C1046 C1047 1.366 . S
C1047 C1046 1.366 . S
C1047 C1048 1.414 . S
C1047 C1050 1.499 . S
C1048 H1028 0.950 . S
C1048 C1047 1.414 . S
C1048 C1049 1.374 . S
C1049 H1029 0.950 . S
C1049 C1045 1.385 . S
C1049 C1048 1.374 . S
C1050 C1047 1.499 . S
C1050 C1051 1.373 . S
C1050 C1052 1.389 . S
C1051 H1030 0.950 . S
C1051 C1050 1.373 . S
C1051 C1067 1.377 . S
C1052 C1050 1.389 . S
C1052 C1053 1.524 . S
C1052 C1066 1.377 . S
C1053 C1052 1.524 . S
C1053 C1054 1.397 . S
C1053 C1058 1.363 . S
C1054 H1031 0.950 . S
C1054 C1053 1.397 . S
C1054 C1055 1.334 . S
C1055 H1032 0.950 . S
C1055 C1054 1.334 . S
C1055 C1056 1.287 . S
C1056 C1055 1.287 . S
C1056 C1057 1.524 . S
C1056 H1075 0.913 . S
C1057 H1033 0.950 . S
C1057 C1056 1.524 . S
C1057 C1058 1.415 . S
C1058 H1034 0.950 . S
C1058 C1053 1.363 . S
C1058 C1057 1.415 . S
C1059 H1035 0.951 . S
C1059 C1060 1.366 . S
C1059 C1061 1.388 . S
C1060 C1059 1.366 . S
C1060 C1064 1.385 . S
C1061 H1036 0.951 . S
C1061 C1059 1.388 . S
C1061 C1062 1.366 . S
C1062 C1061 1.366 . S
C1062 C1063 1.414 . S
C1062 C1065 1.499 . S
C1063 H1037 0.950 . S
C1063 C1062 1.414 . S
C1063 C1064 1.374 . S
C1064 H1038 0.950 . S
C1064 C1060 1.385 . S
C1064 C1063 1.374 . S
C1065 C1062 1.499 . S
C1065 C1066 1.373 . S
C1065 C1067 1.389 . S
C1066 H1039 0.950 . S
C1066 C1052 1.377 . S
C1066 C1065 1.373 . S
C1067 C1051 1.377 . S
C1067 C1065 1.389 . S
C1067 C1068 1.524 . S
C1068 C1067 1.524 . S
C1068 C1069 1.397 . S
C1068 C1073 1.363 . S
C1069 H1040 0.950 . S
C1069 C1068 1.397 . S
C1069 C1070 1.334 . S
C1070 H1041 0.950 . S
C1070 C1069 1.334 . S
C1070 C1071 1.287 . S
C1071 C1070 1.287 . S
C1071 C1072 1.524 . S
C1071 H1074 0.999 . S
C1072 H1042 0.950 . S
C1072 C1071 1.524 . S
C1072 C1073 1.415 . S
C1073 H1043 0.950 . S
C1073 C1068 1.363 . S
C1073 C1072 1.415 . S
H1074 C1071 0.999 . S
H1075 C1056 0.913 . S
H1076 C1094 0.951 . S
H1077 C1096 0.951 . S
H1078 C1098 0.950 . S
H1079 C1099 0.950 . S
H1080 C1101 0.950 . S
H1081 C1104 0.950 . S
H1082 C1105 0.950 . S
H1083 C1107 0.950 . S
H1084 C1108 0.950 . S
H1085 C1109 0.951 . S
H1086 C1111 0.951 . S
H1087 C1113 0.950 . S
H1088 C1114 0.950 . S
H1089 C1116 0.950 . S
H1090 C1119 0.950 . S
H1091 C1120 0.950 . S
H1092 C1122 0.950 . S
H1093 C1123 0.950 . S
C1094 H1076 0.951 . S
C1094 C1095 1.366 . S
C1094 C1096 1.388 . S
C1095 C1094 1.366 . S
C1095 C1099 1.385 . S
C1096 H1077 0.951 . S
C1096 C1094 1.388 . S
C1096 C1097 1.366 . S
C1097 C1096 1.366 . S
C1097 C1098 1.414 . S
C1097 C1100 1.499 . S
C1098 H1078 0.950 . S
C1098 C1097 1.414 . S
C1098 C1099 1.374 . S
C1099 H1079 0.950 . S
C1099 C1095 1.385 . S
C1099 C1098 1.374 . S
C1100 C1097 1.499 . S
C1100 C1101 1.373 . S
C1100 C1102 1.389 . S
C1101 H1080 0.950 . S
C1101 C1100 1.373 . S
C1101 C1117 1.377 . S
C1102 C1100 1.389 . S
C1102 C1103 1.524 . S
C1102 C1116 1.377 . S
C1103 C1102 1.524 . S
C1103 C1104 1.397 . S
C1103 C1108 1.363 . S
C1104 H1081 0.950 . S
C1104 C1103 1.397 . S
C1104 C1105 1.334 . S
C1105 H1082 0.950 . S
C1105 C1104 1.334 . S
C1105 C1106 1.287 . S
C1106 C1105 1.287 . S
C1106 C1107 1.524 . S
C1106 H1125 0.913 . S
C1107 H1083 0.950 . S
C1107 C1106 1.524 . S
C1107 C1108 1.415 . S
C1108 H1084 0.950 . S
C1108 C1103 1.363 . S
C1108 C1107 1.415 . S
C1109 H1085 0.951 . S
C1109 C1110 1.366 . S
C1109 C1111 1.388 . S
C1110 C1109 1.366 . S
C1110 C1114 1.385 . S
C1111 H1086 0.951 . S
C1111 C1109 1.388 . S
C1111 C1112 1.366 . S
C1112 C1111 1.366 . S
C1112 C1113 1.414 . S
C1112 C1115 1.499 . S
C1113 H1087 0.950 . S
C1113 C1112 1.414 . S
C1113 C1114 1.374 . S
C1114 H1088 0.950 . S
C1114 C1110 1.385 . S
C1114 C1113 1.374 . S
C1115 C1112 1.499 . S
C1115 C1116 1.373 . S
C1115 C1117 1.389 . S
C1116 H1089 0.950 . S
C1116 C1102 1.377 . S
C1116 C1115 1.373 . S
C1117 C1101 1.377 . S
C1117 C1115 1.389 . S
C1117 C1118 1.524 . S
C1118 C1117 1.524 . S
C1118 C1119 1.397 . S
C1118 C1123 1.363 . S
C1119 H1090 0.950 . S
C1119 C1118 1.397 . S
C1119 C1120 1.334 . S
C1120 H1091 0.950 . S
C1120 C1119 1.334 . S
C1120 C1121 1.287 . S
C1121 C1120 1.287 . S
C1121 C1122 1.524 . S
C1121 H1124 0.999 . S
C1122 H1092 0.950 . S
C1122 C1121 1.524 . S
C1122 C1123 1.415 . S
C1123 H1093 0.950 . S
C1123 C1118 1.363 . S
C1123 C1122 1.415 . S
H1124 C1121 0.999 . S
H1125 C1106 0.913 . S
H1126 C1144 0.951 . S
H1127 C1146 0.951 . S
H1128 C1148 0.950 . S
H1129 C1149 0.950 . S
H1130 C1151 0.950 . S
H1131 C1154 0.950 . S
H1132 C1155 0.950 . S
H1133 C1157 0.950 . S
H1134 C1158 0.950 . S
H1135 C1159 0.951 . S
H1136 C1161 0.951 . S
H1137 C1163 0.950 . S
H1138 C1164 0.950 . S
H1139 C1166 0.950 . S
H1140 C1169 0.950 . S
H1141 C1170 0.950 . S
H1142 C1172 0.950 . S
H1143 C1173 0.950 . S
C1144 H1126 0.951 . S
C1144 C1145 1.366 . S
C1144 C1146 1.388 . S
C1145 C1144 1.366 . S
C1145 C1149 1.385 . S
C1146 H1127 0.951 . S
C1146 C1144 1.388 . S
C1146 C1147 1.366 . S
C1147 C1146 1.366 . S
C1147 C1148 1.414 . S
C1147 C1150 1.499 . S
C1148 H1128 0.950 . S
C1148 C1147 1.414 . S
C1148 C1149 1.374 . S
C1149 H1129 0.950 . S
C1149 C1145 1.385 . S
C1149 C1148 1.374 . S
C1150 C1147 1.499 . S
C1150 C1151 1.373 . S
C1150 C1152 1.389 . S
C1151 H1130 0.950 . S
C1151 C1150 1.373 . S
C1151 C1167 1.377 . S
C1152 C1150 1.389 . S
C1152 C1153 1.524 . S
C1152 C1166 1.377 . S
C1153 C1152 1.524 . S
C1153 C1154 1.397 . S
C1153 C1158 1.363 . S
C1154 H1131 0.950 . S
C1154 C1153 1.397 . S
C1154 C1155 1.334 . S
C1155 H1132 0.950 . S
C1155 C1154 1.334 . S
C1155 C1156 1.287 . S
C1156 C1155 1.287 . S
C1156 C1157 1.524 . S
C1156 H1175 0.913 . S
C1157 H1133 0.950 . S
C1157 C1156 1.524 . S
C1157 C1158 1.415 . S
C1158 H1134 0.950 . S
C1158 C1153 1.363 . S
C1158 C1157 1.415 . S
C1159 H1135 0.951 . S
C1159 C1160 1.366 . S
C1159 C1161 1.388 . S
C1160 C1159 1.366 . S
C1160 C1164 1.385 . S
C1161 H1136 0.951 . S
C1161 C1159 1.388 . S
C1161 C1162 1.366 . S
C1162 C1161 1.366 . S
C1162 C1163 1.414 . S
C1162 C1165 1.499 . S
C1163 H1137 0.950 . S
C1163 C1162 1.414 . S
C1163 C1164 1.374 . S
C1164 H1138 0.950 . S
C1164 C1160 1.385 . S
C1164 C1163 1.374 . S
C1165 C1162 1.499 . S
C1165 C1166 1.373 . S
C1165 C1167 1.389 . S
C1166 H1139 0.950 . S
C1166 C1152 1.377 . S
C1166 C1165 1.373 . S
C1167 C1151 1.377 . S
C1167 C1165 1.389 . S
C1167 C1168 1.524 . S
C1168 C1167 1.524 . S
C1168 C1169 1.397 . S
C1168 C1173 1.363 . S
C1169 H1140 0.950 . S
C1169 C1168 1.397 . S
C1169 C1170 1.334 . S
C1170 H1141 0.950 . S
C1170 C1169 1.334 . S
C1170 C1171 1.287 . S
C1171 C1170 1.287 . S
C1171 C1172 1.524 . S
C1171 H1174 0.999 . S
C1172 H1142 0.950 . S
C1172 C1171 1.524 . S
C1172 C1173 1.415 . S
C1173 H1143 0.950 . S
C1173 C1168 1.363 . S
C1173 C1172 1.415 . S
H1174 C1171 0.999 . S
H1175 C1156 0.913 . S
H1176 C1194 0.951 . S
H1177 C1196 0.951 . S
H1178 C1198 0.950 1_655 S
H1179 C1199 0.950 1_655 S
H1180 C1201 0.950 . S
H1181 C1204 0.940 1_655 S
H1182 C1205 0.950 1_655 S
H1183 C1207 0.950 . S
H1184 C1208 0.950 . S
H1185 C1209 0.951 . S
H1186 C1211 0.951 . S
H1187 C1213 0.950 . S
H1188 C1214 0.950 . S
H1189 C1216 0.950 . S
H1190 C1219 0.950 . S
H1191 C1220 0.950 . S
H1192 C1222 0.950 . S
H1193 C1223 0.950 . S
C1194 H1176 0.951 . S
C1194 C1195 1.366 . S
C1194 C1196 1.388 . S
C1195 C1194 1.366 . S
C1195 C1199 1.385 . S
C1196 H1177 0.951 . S
C1196 C1194 1.388 . S
C1196 C1197 1.366 . S
C1197 C1196 1.366 . S
C1197 C1198 1.414 . S
C1197 C1200 1.499 . S
C1198 H1178 0.950 1_455 S
C1198 C1197 1.414 . S
C1198 C1199 1.374 . S
C1199 H1179 0.950 1_455 S
C1199 C1195 1.385 . S
C1199 C1198 1.374 . S
C1200 C1197 1.499 . S
C1200 C1201 1.373 . S
C1200 C1202 1.389 . S
C1201 H1180 0.950 . S
C1201 C1200 1.373 . S
C1201 C1217 1.377 . S
C1202 C1200 1.389 . S
C1202 C1203 1.524 . S
C1202 C1216 1.377 . S
C1203 C1202 1.524 . S
C1203 C1204 1.397 . S
C1203 C1208 1.363 . S
C1204 H1181 0.940 1_455 S
C1204 C1203 1.397 . S
C1204 C1205 1.334 . S
C1205 H1182 0.950 1_455 S
C1205 C1204 1.334 . S
C1205 C1206 1.287 . S
C1206 C1205 1.287 . S
C1206 C1207 1.524 . S
C1206 H1225 0.913 . S
C1207 H1183 0.950 . S
C1207 C1206 1.524 . S
C1207 C1208 1.415 . S
C1208 H1184 0.950 . S
C1208 C1203 1.363 . S
C1208 C1207 1.415 . S
C1209 H1185 0.951 . S
C1209 C1210 1.366 . S
C1209 C1211 1.388 . S
C1210 C1209 1.366 . S
C1210 C1214 1.385 . S
C1211 H1186 0.951 . S
C1211 C1209 1.388 . S
C1211 C1212 1.366 . S
C1212 C1211 1.366 . S
C1212 C1213 1.414 . S
C1212 C1215 1.499 . S
C1213 H1187 0.950 . S
C1213 C1212 1.414 . S
C1213 C1214 1.374 . S
C1214 H1188 0.950 . S
C1214 C1210 1.385 . S
C1214 C1213 1.374 . S
C1215 C1212 1.499 . S
C1215 C1216 1.373 . S
C1215 C1217 1.389 . S
C1216 H1189 0.950 . S
C1216 C1202 1.377 . S
C1216 C1215 1.373 . S
C1217 C1201 1.377 . S
C1217 C1215 1.389 . S
C1217 C1218 1.524 . S
C1218 C1217 1.524 . S
C1218 C1219 1.397 . S
C1218 C1223 1.363 . S
C1219 H1190 0.950 . S
C1219 C1218 1.397 . S
C1219 C1220 1.334 . S
C1220 H1191 0.950 . S
C1220 C1219 1.334 . S
C1220 C1221 1.287 . S
C1221 C1220 1.287 . S
C1221 C1222 1.524 . S
C1221 H1224 0.999 . S
C1222 H1192 0.950 . S
C1222 C1221 1.524 . S
C1222 C1223 1.415 . S
C1223 H1193 0.950 . S
C1223 C1218 1.363 . S
C1223 C1222 1.415 . S
H1224 C1221 0.999 . S
H1225 C1206 0.913 . S
H1226 C1244 0.951 . S
H1227 C1246 0.951 . S
H1228 C1248 0.950 . S
H1229 C1249 0.950 . S
H1230 C1251 0.950 . S
H1231 C1254 0.950 . S
H1232 C1255 0.950 . S
H1233 C1257 0.950 . S
H1234 C1258 0.950 . S
H1235 C1259 0.951 . S
H1236 C1261 0.951 . S
H1237 C1263 0.950 . S
H1238 C1264 0.950 . S
H1239 C1266 0.950 . S
H1240 C1269 0.950 . S
H1241 C1270 0.950 . S
H1242 C1272 0.950 . S
H1243 C1273 0.950 . S
C1244 H1226 0.951 . S
C1244 C1245 1.366 . S
C1244 C1246 1.388 . S
C1245 C1244 1.366 . S
C1245 C1249 1.385 . S
C1246 H1227 0.951 . S
C1246 C1244 1.388 . S
C1246 C1247 1.366 . S
C1247 C1246 1.366 . S
C1247 C1248 1.414 . S
C1247 C1250 1.499 . S
C1248 H1228 0.950 . S
C1248 C1247 1.414 . S
C1248 C1249 1.374 . S
C1249 H1229 0.950 . S
C1249 C1245 1.385 . S
C1249 C1248 1.374 . S
C1250 C1247 1.499 . S
C1250 C1251 1.373 . S
C1250 C1252 1.389 . S
C1251 H1230 0.950 . S
C1251 C1250 1.373 . S
C1251 C1267 1.377 . S
C1252 C1250 1.389 . S
C1252 C1253 1.524 . S
C1252 C1266 1.377 . S
C1253 C1252 1.524 . S
C1253 C1254 1.397 . S
C1253 C1258 1.363 . S
C1254 H1231 0.950 . S
C1254 C1253 1.397 . S
C1254 C1255 1.334 . S
C1255 H1232 0.950 . S
C1255 C1254 1.334 . S
C1255 C1256 1.287 . S
C1256 C1255 1.287 . S
C1256 C1257 1.524 . S
C1256 H1275 0.913 . S
C1257 H1233 0.950 . S
C1257 C1256 1.524 . S
C1257 C1258 1.415 . S
C1258 H1234 0.950 . S
C1258 C1253 1.363 . S
C1258 C1257 1.415 . S
C1259 H1235 0.951 . S
C1259 C1260 1.366 . S
C1259 C1261 1.388 . S
C1260 C1259 1.366 . S
C1260 C1264 1.385 . S
C1261 H1236 0.951 . S
C1261 C1259 1.388 . S
C1261 C1262 1.366 . S
C1262 C1261 1.366 . S
C1262 C1263 1.414 . S
C1262 C1265 1.499 . S
C1263 H1237 0.950 . S
C1263 C1262 1.414 . S
C1263 C1264 1.374 . S
C1264 H1238 0.950 . S
C1264 C1260 1.385 . S
C1264 C1263 1.374 . S
C1265 C1262 1.499 . S
C1265 C1266 1.373 . S
C1265 C1267 1.389 . S
C1266 H1239 0.950 . S
C1266 C1252 1.377 . S
C1266 C1265 1.373 . S
C1267 C1251 1.377 . S
C1267 C1265 1.389 . S
C1267 C1268 1.524 . S
C1268 C1267 1.524 . S
C1268 C1269 1.397 . S
C1268 C1273 1.363 . S
C1269 H1240 0.950 . S
C1269 C1268 1.397 . S
C1269 C1270 1.334 . S
C1270 H1241 0.950 . S
C1270 C1269 1.334 . S
C1270 C1271 1.287 . S
C1271 C1270 1.287 . S
C1271 C1272 1.524 . S
C1271 H1274 0.999 . S
C1272 H1242 0.950 . S
C1272 C1271 1.524 . S
C1272 C1273 1.415 . S
C1273 H1243 0.950 . S
C1273 C1268 1.363 . S
C1273 C1272 1.415 . S
H1274 C1271 0.999 . S
H1275 C1256 0.913 . S
H1276 C1294 0.951 . S
H1277 C1296 0.951 . S
H1278 C1298 0.950 . S
H1279 C1299 0.950 . S
H1280 C1301 0.950 . S
H1281 C1304 0.950 . S
H1282 C1305 0.950 . S
H1283 C1307 0.950 . S
H1284 C1308 0.950 . S
H1285 C1309 0.951 . S
H1286 C1311 0.951 . S
H1287 C1313 0.950 . S
H1288 C1314 0.950 . S
H1289 C1316 0.950 . S
H1290 C1319 0.950 . S
H1291 C1320 0.950 . S
H1292 C1322 0.950 . S
H1293 C1323 0.950 . S
C1294 H1276 0.951 . S
C1294 C1295 1.366 . S
C1294 C1296 1.388 . S
C1295 C1294 1.366 . S
C1295 C1299 1.385 . S
C1296 H1277 0.951 . S
C1296 C1294 1.388 . S
C1296 C1297 1.366 . S
C1297 C1296 1.366 . S
C1297 C1298 1.414 . S
C1297 C1300 1.499 . S
C1298 H1278 0.950 . S
C1298 C1297 1.414 . S
C1298 C1299 1.374 . S
C1299 H1279 0.950 . S
C1299 C1295 1.385 . S
C1299 C1298 1.374 . S
C1300 C1297 1.499 . S
C1300 C1301 1.373 . S
C1300 C1302 1.389 . S
C1301 H1280 0.950 . S
C1301 C1300 1.373 . S
C1301 C1317 1.377 . S
C1302 C1300 1.389 . S
C1302 C1303 1.524 . S
C1302 C1316 1.377 . S
C1303 C1302 1.524 . S
C1303 C1304 1.397 . S
C1303 C1308 1.363 . S
C1304 H1281 0.950 . S
C1304 C1303 1.397 . S
C1304 C1305 1.334 . S
C1305 H1282 0.950 . S
C1305 C1304 1.334 . S
C1305 C1306 1.287 . S
C1306 C1305 1.287 . S
C1306 C1307 1.524 . S
C1306 H1325 0.913 . S
C1307 H1283 0.950 . S
C1307 C1306 1.524 . S
C1307 C1308 1.415 . S
C1308 H1284 0.950 . S
C1308 C1303 1.363 . S
C1308 C1307 1.415 . S
C1309 H1285 0.951 . S
C1309 C1310 1.366 . S
C1309 C1311 1.388 . S
C1310 C1309 1.366 . S
C1310 C1314 1.385 . S
C1311 H1286 0.951 . S
C1311 C1309 1.388 . S
C1311 C1312 1.366 . S
C1312 C1311 1.366 . S
C1312 C1313 1.414 . S
C1312 C1315 1.499 . S
C1313 H1287 0.950 . S
C1313 C1312 1.414 . S
C1313 C1314 1.374 . S
C1314 H1288 0.950 . S
C1314 C1310 1.385 . S
C1314 C1313 1.374 . S
C1315 C1312 1.499 . S
C1315 C1316 1.373 . S
C1315 C1317 1.389 . S
C1316 H1289 0.950 . S
C1316 C1302 1.377 . S
C1316 C1315 1.373 . S
C1317 C1301 1.377 . S
C1317 C1315 1.389 . S
C1317 C1318 1.524 . S
C1318 C1317 1.524 . S
C1318 C1319 1.397 . S
C1318 C1323 1.363 . S
C1319 H1290 0.950 . S
C1319 C1318 1.397 . S
C1319 C1320 1.334 . S
C1320 H1291 0.950 . S
C1320 C1319 1.334 . S
C1320 C1321 1.287 . S
C1321 C1320 1.287 . S
C1321 C1322 1.524 . S
C1321 H1324 0.999 . S
C1322 H1292 0.950 . S
C1322 C1321 1.524 . S
C1322 C1323 1.415 . S
C1323 H1293 0.950 . S
C1323 C1318 1.363 . S
C1323 C1322 1.415 . S
H1324 C1321 0.999 . S
H1325 C1306 0.913 . S
H1326 C1344 0.951 . S
H1327 C1346 0.951 . S
H1328 C1348 0.950 . S
H1329 C1349 0.950 . S
H1330 C1351 0.950 . S
H1331 C1354 0.950 . S
H1332 C1355 0.950 . S
H1333 C1357 0.950 . S
H1334 C1358 0.950 . S
H1335 C1359 0.951 . S
H1336 C1361 0.951 . S
H1337 C1363 0.950 . S
H1338 C1364 0.950 . S
H1339 C1366 0.950 . S
H1340 C1369 0.950 . S
H1341 C1370 0.950 . S
H1342 C1372 0.950 . S
H1343 C1373 0.950 . S
C1344 H1326 0.951 . S
C1344 C1345 1.366 . S
C1344 C1346 1.388 . S
C1345 C1344 1.366 . S
C1345 C1349 1.385 . S
C1346 H1327 0.951 . S
C1346 C1344 1.388 . S
C1346 C1347 1.366 . S
C1347 C1346 1.366 . S
C1347 C1348 1.414 . S
C1347 C1350 1.499 . S
C1348 H1328 0.950 . S
C1348 C1347 1.414 . S
C1348 C1349 1.374 . S
C1349 H1329 0.950 . S
C1349 C1345 1.385 . S
C1349 C1348 1.374 . S
C1350 C1347 1.499 . S
C1350 C1351 1.373 . S
C1350 C1352 1.389 . S
C1351 H1330 0.950 . S
C1351 C1350 1.373 . S
C1351 C1367 1.377 . S
C1352 C1350 1.389 . S
C1352 C1353 1.524 . S
C1352 C1366 1.377 . S
C1353 C1352 1.524 . S
C1353 C1354 1.397 . S
C1353 C1358 1.363 . S
C1354 H1331 0.950 . S
C1354 C1353 1.397 . S
C1354 C1355 1.334 . S
C1355 H1332 0.950 . S
C1355 C1354 1.334 . S
C1355 C1356 1.287 . S
C1356 C1355 1.287 . S
C1356 C1357 1.524 . S
C1356 H1375 0.913 . S
C1357 H1333 0.950 . S
C1357 C1356 1.524 . S
C1357 C1358 1.415 . S
C1358 H1334 0.950 . S
C1358 C1353 1.363 . S
C1358 C1357 1.415 . S
C1359 H1335 0.951 . S
C1359 C1360 1.366 . S
C1359 C1361 1.388 . S
C1360 C1359 1.366 . S
C1360 C1364 1.385 . S
C1361 H1336 0.951 . S
C1361 C1359 1.388 . S
C1361 C1362 1.366 . S
C1362 C1361 1.366 . S
C1362 C1363 1.414 . S
C1362 C1365 1.499 . S
C1363 H1337 0.950 . S
C1363 C1362 1.414 . S
C1363 C1364 1.374 . S
C1364 H1338 0.950 . S
C1364 C1360 1.385 . S
C1364 C1363 1.374 . S
C1365 C1362 1.499 . S
C1365 C1366 1.373 . S
C1365 C1367 1.389 . S
C1366 H1339 0.950 . S
C1366 C1352 1.377 . S
C1366 C1365 1.373 . S
C1367 C1351 1.377 . S
C1367 C1365 1.389 . S
C1367 C1368 1.524 . S
C1368 C1367 1.524 . S
C1368 C1369 1.397 . S
C1368 C1373 1.363 . S
C1369 H1340 0.950 . S
C1369 C1368 1.397 . S
C1369 C1370 1.334 . S
C1370 H1341 0.950 . S
C1370 C1369 1.334 . S
C1370 C1371 1.287 . S
C1371 C1370 1.287 . S
C1371 C1372 1.524 . S
C1371 H1374 0.999 . S
C1372 H1342 0.950 . S
C1372 C1371 1.524 . S
C1372 C1373 1.415 . S
C1373 H1343 0.950 . S
C1373 C1368 1.363 . S
C1373 C1372 1.415 . S
H1374 C1371 0.999 . S
H1375 C1356 0.913 . S
H1376 C1394 0.951 . S
H1377 C1396 0.951 . S
H1378 C1398 0.950 . S
H1379 C1399 0.950 . S
H1380 C1401 0.950 . S
H1381 C1404 0.950 . S
H1382 C1405 0.950 . S
H1383 C1407 0.950 . S
H1384 C1408 0.950 . S
H1385 C1409 0.951 . S
H1386 C1411 0.951 . S
H1387 C1413 0.950 . S
H1388 C1414 0.950 . S
H1389 C1416 0.950 . S
H1390 C1419 0.950 . S
H1391 C1420 0.950 . S
H1392 C1422 0.950 . S
H1393 C1423 0.950 . S
C1394 H1376 0.951 . S
C1394 C1395 1.366 . S
C1394 C1396 1.388 . S
C1395 C1394 1.366 . S
C1395 C1399 1.385 . S
C1396 H1377 0.951 . S
C1396 C1394 1.388 . S
C1396 C1397 1.366 . S
C1397 C1396 1.366 . S
C1397 C1398 1.414 . S
C1397 C1400 1.499 . S
C1398 H1378 0.950 . S
C1398 C1397 1.414 . S
C1398 C1399 1.374 . S
C1399 H1379 0.950 . S
C1399 C1395 1.385 . S
C1399 C1398 1.374 . S
C1400 C1397 1.499 . S
C1400 C1401 1.373 . S
C1400 C1402 1.389 . S
C1401 H1380 0.950 . S
C1401 C1400 1.373 . S
C1401 C1417 1.377 . S
C1402 C1400 1.389 . S
C1402 C1403 1.524 . S
C1402 C1416 1.377 . S
C1403 C1402 1.524 . S
C1403 C1404 1.397 . S
C1403 C1408 1.363 . S
C1404 H1381 0.950 . S
C1404 C1403 1.397 . S
C1404 C1405 1.334 . S
C1405 H1382 0.950 . S
C1405 C1404 1.334 . S
C1405 C1406 1.282 1_655 S
C1406 C1405 1.282 1_455 S
C1406 C1407 1.526 . S
C1406 H1425 0.916 . S
C1407 H1383 0.950 . S
C1407 C1406 1.526 . S
C1407 C1408 1.415 1_455 S
C1408 H1384 0.950 . S
C1408 C1403 1.363 . S
C1408 C1407 1.415 1_655 S
C1409 H1385 0.951 . S
C1409 C1410 1.366 1_655 S
C1409 C1411 1.388 . S
C1410 C1409 1.366 1_455 S
C1410 C1414 1.385 . S
C1411 H1386 0.951 . S
C1411 C1409 1.388 . S
C1411 C1412 1.366 . S
C1412 C1411 1.366 . S
C1412 C1413 1.414 . S
C1412 C1415 1.499 . S
C1413 H1387 0.950 . S
C1413 C1412 1.414 . S
C1413 C1414 1.374 1_655 S
C1414 H1388 0.950 . S
C1414 C1410 1.385 . S
C1414 C1413 1.374 1_455 S
C1415 C1412 1.499 . S
C1415 C1416 1.373 . S
C1415 C1417 1.389 . S
C1416 H1389 0.950 . S
C1416 C1402 1.377 . S
C1416 C1415 1.373 . S
C1417 C1401 1.377 . S
C1417 C1415 1.389 . S
C1417 C1418 1.524 . S
C1418 C1417 1.524 . S
C1418 C1419 1.397 . S
C1418 C1423 1.363 . S
C1419 H1390 0.950 . S
C1419 C1418 1.397 . S
C1419 C1420 1.334 . S
C1420 H1391 0.950 . S
C1420 C1419 1.334 . S
C1420 C1421 1.287 . S
C1421 C1420 1.287 . S
C1421 C1422 1.524 . S
C1421 H1424 0.999 . S
C1422 H1392 0.950 . S
C1422 C1421 1.524 . S
C1422 C1423 1.415 . S
C1423 H1393 0.950 . S
C1423 C1418 1.363 . S
C1423 C1422 1.415 . S
H1424 C1421 0.999 . S
H1425 C1406 0.916 . S
H1426 C1444 0.951 . S
H1427 C1446 0.951 . S
H1428 C1448 0.950 . S
H1429 C1449 0.950 . S
H1430 C1451 0.950 . S
H1431 C1454 0.950 . S
H1432 C1455 0.950 . S
H1433 C1457 0.950 . S
H1434 C1458 0.950 . S
H1435 C1459 0.951 . S
H1436 C1461 0.951 . S
H1437 C1463 0.950 . S
H1438 C1464 0.950 . S
H1439 C1466 0.950 . S
H1440 C1469 0.950 . S
H1441 C1470 0.950 . S
H1442 C1472 0.950 . S
H1443 C1473 0.950 . S
C1444 H1426 0.951 . S
C1444 C1445 1.366 . S
C1444 C1446 1.388 . S
C1445 C1444 1.366 . S
C1445 C1449 1.385 . S
C1446 H1427 0.951 . S
C1446 C1444 1.388 . S
C1446 C1447 1.366 . S
C1447 C1446 1.366 . S
C1447 C1448 1.414 . S
C1447 C1450 1.499 . S
C1448 H1428 0.950 . S
C1448 C1447 1.414 . S
C1448 C1449 1.374 . S
C1449 H1429 0.950 . S
C1449 C1445 1.385 . S
C1449 C1448 1.374 . S
C1450 C1447 1.499 . S
C1450 C1451 1.373 . S
C1450 C1452 1.389 . S
C1451 H1430 0.950 . S
C1451 C1450 1.373 . S
C1451 C1467 1.377 . S
C1452 C1450 1.389 . S
C1452 C1453 1.524 . S
C1452 C1466 1.377 . S
C1453 C1452 1.524 . S
C1453 C1454 1.397 . S
C1453 C1458 1.363 . S
C1454 H1431 0.950 . S
C1454 C1453 1.397 . S
C1454 C1455 1.334 . S
C1455 H1432 0.950 . S
C1455 C1454 1.334 . S
C1455 C1456 1.287 . S
C1456 C1455 1.287 . S
C1456 C1457 1.524 . S
C1456 H1475 0.913 . S
C1457 H1433 0.950 . S
C1457 C1456 1.524 . S
C1457 C1458 1.415 . S
C1458 H1434 0.950 . S
C1458 C1453 1.363 . S
C1458 C1457 1.415 . S
C1459 H1435 0.951 . S
C1459 C1460 1.366 . S
C1459 C1461 1.388 . S
C1460 C1459 1.366 . S
C1460 C1464 1.385 . S
C1461 H1436 0.951 . S
C1461 C1459 1.388 . S
C1461 C1462 1.366 . S
C1462 C1461 1.366 . S
C1462 C1463 1.414 . S
C1462 C1465 1.499 . S
C1463 H1437 0.950 . S
C1463 C1462 1.414 . S
C1463 C1464 1.374 . S
C1464 H1438 0.950 . S
C1464 C1460 1.385 . S
C1464 C1463 1.374 . S
C1465 C1462 1.499 . S
C1465 C1466 1.373 . S
C1465 C1467 1.389 . S
C1466 H1439 0.950 . S
C1466 C1452 1.377 . S
C1466 C1465 1.373 . S
C1467 C1451 1.377 . S
C1467 C1465 1.389 . S
C1467 C1468 1.524 . S
C1468 C1467 1.524 . S
C1468 C1469 1.397 . S
C1468 C1473 1.363 . S
C1469 H1440 0.950 . S
C1469 C1468 1.397 . S
C1469 C1470 1.334 . S
C1470 H1441 0.950 . S
C1470 C1469 1.334 . S
C1470 C1471 1.287 . S
C1471 C1470 1.287 . S
C1471 C1472 1.524 . S
C1471 H1474 0.999 . S
C1472 H1442 0.950 . S
C1472 C1471 1.524 . S
C1472 C1473 1.415 . S
C1473 H1443 0.950 . S
C1473 C1468 1.363 . S
C1473 C1472 1.415 . S
H1474 C1471 0.999 . S
H1475 C1456 0.913 . S
H1476 C1494 0.951 . S
H1477 C1496 0.951 . S
H1478 C1498 0.950 . S
H1479 C1499 0.950 . S
H1480 C1501 0.970 . S
H1481 C1504 0.950 . S
H1482 C1505 0.950 . S
H1483 C1507 0.950 . S
H1484 C1508 0.950 . S
H1485 C1509 0.951 . S
H1486 C1511 0.951 . S
H1487 C1513 0.950 . S
H1488 C1514 0.950 . S
H1489 C1516 0.950 . S
H1490 C1519 0.950 . S
H1491 C1520 0.950 . S
H1492 C1522 0.950 . S
H1493 C1523 0.951 . S
C1494 H1476 0.951 . S
C1494 C1495 1.366 . S
C1494 C1496 1.388 . S
C1495 C1494 1.366 . S
C1495 C1499 1.385 . S
C1496 H1477 0.951 . S
C1496 C1494 1.388 . S
C1496 C1497 1.366 . S
C1497 C1496 1.366 . S
C1497 C1498 1.414 . S
C1497 C1500 1.499 . S
C1498 H1478 0.950 . S
C1498 C1497 1.414 . S
C1498 C1499 1.374 . S
C1499 H1479 0.950 . S
C1499 C1495 1.385 . S
C1499 C1498 1.374 . S
C1500 C1497 1.499 . S
C1500 C1501 1.373 . S
C1500 C1502 1.389 . S
C1501 H1480 0.970 . S
C1501 C1500 1.373 . S
C1501 C1517 1.377 . S
C1502 C1500 1.389 . S
C1502 C1503 1.524 . S
C1502 C1516 1.377 . S
C1503 C1502 1.524 . S
C1503 C1504 1.397 . S
C1503 C1508 1.363 . S
C1504 H1481 0.950 . S
C1504 C1503 1.397 . S
C1504 C1505 1.334 . S
C1505 H1482 0.950 . S
C1505 C1504 1.334 . S
C1505 C1506 1.287 . S
C1506 C1505 1.287 . S
C1506 C1507 1.524 . S
C1506 H1525 0.913 . S
C1507 H1483 0.950 . S
C1507 C1506 1.524 . S
C1507 C1508 1.415 . S
C1508 H1484 0.950 . S
C1508 C1503 1.363 . S
C1508 C1507 1.415 . S
C1509 H1485 0.951 . S
C1509 C1510 1.366 . S
C1509 C1511 1.388 . S
C1510 C1509 1.366 . S
C1510 C1514 1.385 . S
C1511 H1486 0.951 . S
C1511 C1509 1.388 . S
C1511 C1512 1.366 . S
C1512 C1511 1.366 . S
C1512 C1513 1.414 . S
C1512 C1515 1.499 . S
C1513 H1487 0.950 . S
C1513 C1512 1.414 . S
C1513 C1514 1.374 . S
C1514 H1488 0.950 . S
C1514 C1510 1.385 . S
C1514 C1513 1.374 . S
C1515 C1512 1.499 . S
C1515 C1516 1.373 . S
C1515 C1517 1.389 . S
C1516 H1489 0.950 . S
C1516 C1502 1.377 . S
C1516 C1515 1.373 . S
C1517 C1501 1.377 . S
C1517 C1515 1.389 . S
C1517 C1518 1.524 1_545 S
C1518 C1517 1.524 1_565 S
C1518 C1519 1.397 . S
C1518 C1523 1.363 . S
C1519 H1490 0.950 . S
C1519 C1518 1.397 . S
C1519 C1520 1.334 . S
C1520 H1491 0.950 . S
C1520 C1519 1.334 . S
C1520 C1521 1.287 . S
C1521 C1520 1.287 . S
C1521 C1522 1.524 . S
C1521 H1524 0.999 . S
C1522 H1492 0.950 . S
C1522 C1521 1.524 . S
C1522 C1523 1.415 . S
C1523 H1493 0.951 . S
C1523 C1518 1.363 . S
C1523 C1522 1.415 . S
H1524 C1521 0.999 . S
H1525 C1506 0.913 . S
H1526 C1544 0.951 . S
H1527 C1546 0.951 . S
H1528 C1548 0.950 . S
H1529 C1549 0.950 . S
H1530 C1551 0.950 . S
H1531 C1554 0.950 . S
H1532 C1555 0.950 . S
H1533 C1557 0.950 . S
H1534 C1558 0.950 . S
H1535 C1559 0.951 . S
H1536 C1561 0.951 . S
H1537 C1563 0.950 . S
H1538 C1564 0.950 . S
H1539 C1566 0.950 . S
H1540 C1569 0.950 . S
H1541 C1570 0.950 . S
H1542 C1572 0.950 . S
H1543 C1573 0.950 . S
C1544 H1526 0.951 . S
C1544 C1545 1.366 . S
C1544 C1546 1.388 . S
C1545 C1544 1.366 . S
C1545 C1549 1.385 . S
C1546 H1527 0.951 . S
C1546 C1544 1.388 . S
C1546 C1547 1.366 . S
C1547 C1546 1.366 . S
C1547 C1548 1.414 . S
C1547 C1550 1.499 . S
C1548 H1528 0.950 . S
C1548 C1547 1.414 . S
C1548 C1549 1.374 . S
C1549 H1529 0.950 . S
C1549 C1545 1.385 . S
C1549 C1548 1.374 . S
C1550 C1547 1.499 . S
C1550 C1551 1.373 . S
C1550 C1552 1.389 . S
C1551 H1530 0.950 . S
C1551 C1550 1.373 . S
C1551 C1567 1.377 . S
C1552 C1550 1.389 . S
C1552 C1553 1.524 . S
C1552 C1566 1.377 . S
C1553 C1552 1.524 . S
C1553 C1554 1.397 . S
C1553 C1558 1.363 . S
C1554 H1531 0.950 . S
C1554 C1553 1.397 . S
C1554 C1555 1.334 . S
C1555 H1532 0.950 . S
C1555 C1554 1.334 . S
C1555 C1556 1.287 . S
C1556 C1555 1.287 . S
C1556 C1557 1.524 . S
C1556 H1575 0.913 . S
C1557 H1533 0.950 . S
C1557 C1556 1.524 . S
C1557 C1558 1.415 . S
C1558 H1534 0.950 . S
C1558 C1553 1.363 . S
C1558 C1557 1.415 . S
C1559 H1535 0.951 . S
C1559 C1560 1.366 . S
C1559 C1561 1.388 . S
C1560 C1559 1.366 . S
C1560 C1564 1.385 . S
C1561 H1536 0.951 . S
C1561 C1559 1.388 . S
C1561 C1562 1.366 . S
C1562 C1561 1.366 . S
C1562 C1563 1.414 . S
C1562 C1565 1.499 . S
C1563 H1537 0.950 . S
C1563 C1562 1.414 . S
C1563 C1564 1.374 . S
C1564 H1538 0.950 . S
C1564 C1560 1.385 . S
C1564 C1563 1.374 . S
C1565 C1562 1.499 . S
C1565 C1566 1.373 . S
C1565 C1567 1.389 . S
C1566 H1539 0.950 . S
C1566 C1552 1.377 . S
C1566 C1565 1.373 . S
C1567 C1551 1.377 . S
C1567 C1565 1.389 . S
C1567 C1568 1.524 . S
C1568 C1567 1.524 . S
C1568 C1569 1.397 . S
C1568 C1573 1.363 . S
C1569 H1540 0.950 . S
C1569 C1568 1.397 . S
C1569 C1570 1.334 . S
C1570 H1541 0.950 . S
C1570 C1569 1.334 . S
C1570 C1571 1.287 . S
C1571 C1570 1.287 . S
C1571 C1572 1.524 . S
C1571 H1574 0.999 . S
C1572 H1542 0.950 . S
C1572 C1571 1.524 . S
C1572 C1573 1.415 . S
C1573 H1543 0.950 . S
C1573 C1568 1.363 . S
C1573 C1572 1.415 . S
H1574 C1571 0.999 . S
H1575 C1556 0.913 . S
H1576 C1594 0.951 . S
H1577 C1596 0.951 . S
H1578 C1598 0.950 . S
H1579 C1599 0.950 . S
H1580 C1601 0.950 . S
H1581 C1604 0.950 . S
H1582 C1605 0.950 . S
H1583 C1607 0.950 . S
H1584 C1608 0.950 . S
H1585 C1609 0.951 . S
H1586 C1611 0.951 . S
H1587 C1613 0.950 . S
H1588 C1614 0.949 . S
H1589 C1616 0.950 . S
H1590 C1619 0.950 . S
H1591 C1620 0.950 . S
H1592 C1622 0.950 . S
H1593 C1623 0.950 1_655 S
C1594 H1576 0.951 . S
C1594 C1595 1.366 . S
C1594 C1596 1.388 . S
C1595 C1594 1.366 . S
C1595 C1599 1.385 . S
C1596 H1577 0.951 . S
C1596 C1594 1.388 . S
C1596 C1597 1.366 . S
C1597 C1596 1.366 . S
C1597 C1598 1.414 . S
C1597 C1600 1.499 . S
C1598 H1578 0.950 . S
C1598 C1597 1.414 . S
C1598 C1599 1.374 . S
C1599 H1579 0.950 . S
C1599 C1595 1.385 . S
C1599 C1598 1.374 . S
C1600 C1597 1.499 . S
C1600 C1601 1.373 . S
C1600 C1602 1.389 . S
C1601 H1580 0.950 . S
C1601 C1600 1.373 . S
C1601 C1617 1.377 . S
C1602 C1600 1.389 . S
C1602 C1603 1.524 . S
C1602 C1616 1.377 . S
C1603 C1602 1.524 . S
C1603 C1604 1.397 . S
C1603 C1608 1.363 1_545 S
C1604 H1581 0.950 . S
C1604 C1603 1.397 . S
C1604 C1605 1.334 . S
C1605 H1582 0.950 . S
C1605 C1604 1.334 . S
C1605 C1606 1.287 1_545 S
C1606 C1605 1.287 1_565 S
C1606 C1607 1.524 . S
C1606 H1625 0.913 . S
C1607 H1583 0.950 . S
C1607 C1606 1.524 . S
C1607 C1608 1.415 . S
C1608 H1584 0.950 . S
C1608 C1603 1.363 1_565 S
C1608 C1607 1.415 . S
C1609 H1585 0.951 . S
C1609 C1610 1.366 . S
C1609 C1611 1.388 1_455 S
C1610 C1609 1.366 . S
C1610 C1614 1.384 . S
C1611 H1586 0.951 . S
C1611 C1609 1.388 1_655 S
C1611 C1612 1.366 . S
C1612 C1611 1.366 . S
C1612 C1613 1.414 . S
C1612 C1615 1.499 . S
C1613 H1587 0.950 . S
C1613 C1612 1.414 . S
C1613 C1614 1.375 1_655 S
C1614 H1588 0.949 . S
C1614 C1610 1.384 . S
C1614 C1613 1.375 1_455 S
C1615 C1612 1.499 . S
C1615 C1616 1.373 . S
C1615 C1617 1.389 . S
C1616 H1589 0.950 . S
C1616 C1602 1.377 . S
C1616 C1615 1.373 . S
C1617 C1601 1.377 . S
C1617 C1615 1.389 . S
C1617 C1618 1.524 1_655 S
C1618 C1617 1.524 1_455 S
C1618 C1619 1.397 . S
C1618 C1623 1.363 . S
C1619 H1590 0.950 . S
C1619 C1618 1.397 . S
C1619 C1620 1.334 . S
C1620 H1591 0.950 . S
C1620 C1619 1.334 . S
C1620 C1621 1.287 . S
C1621 C1620 1.287 . S
C1621 C1622 1.524 . S
C1621 H1624 0.999 . S
C1622 H1592 0.950 . S
C1622 C1621 1.524 . S
C1622 C1623 1.415 . S
C1623 H1593 0.950 1_455 S
C1623 C1618 1.363 . S
C1623 C1622 1.415 . S
H1624 C1621 0.999 . S
H1625 C1606 0.913 . S
H1626 C1644 0.951 . S
H1627 C1646 0.951 . S
H1628 C1648 0.950 . S
H1629 C1649 0.950 . S
H1630 C1651 0.950 . S
H1631 C1654 0.950 . S
H1632 C1655 0.950 . S
H1633 C1657 0.950 . S
H1634 C1658 0.950 . S
H1635 C1659 0.951 . S
H1636 C1661 0.951 . S
H1637 C1663 0.950 . S
H1638 C1664 0.950 . S
H1639 C1666 0.950 . S
H1640 C1669 0.950 . S
H1641 C1670 0.950 . S
H1642 C1672 0.950 . S
H1643 C1673 0.950 . S
C1644 H1626 0.951 . S
C1644 C1645 1.366 . S
C1644 C1646 1.388 . S
C1645 C1644 1.366 . S
C1645 C1649 1.385 . S
C1646 H1627 0.951 . S
C1646 C1644 1.388 . S
C1646 C1647 1.366 . S
C1647 C1646 1.366 . S
C1647 C1648 1.414 . S
C1647 C1650 1.499 . S
C1648 H1628 0.950 . S
C1648 C1647 1.414 . S
C1648 C1649 1.374 . S
C1649 H1629 0.950 . S
C1649 C1645 1.385 . S
C1649 C1648 1.374 . S
C1650 C1647 1.499 . S
C1650 C1651 1.373 . S
C1650 C1652 1.389 . S
C1651 H1630 0.950 . S
C1651 C1650 1.373 . S
C1651 C1667 1.377 . S
C1652 C1650 1.389 . S
C1652 C1653 1.524 . S
C1652 C1666 1.377 . S
C1653 C1652 1.524 . S
C1653 C1654 1.397 . S
C1653 C1658 1.363 . S
C1654 H1631 0.950 . S
C1654 C1653 1.397 . S
C1654 C1655 1.334 . S
C1655 H1632 0.950 . S
C1655 C1654 1.334 . S
C1655 C1656 1.287 . S
C1656 C1655 1.287 . S
C1656 C1657 1.524 . S
C1656 H1675 0.913 . S
C1657 H1633 0.950 . S
C1657 C1656 1.524 . S
C1657 C1658 1.415 . S
C1658 H1634 0.950 . S
C1658 C1653 1.363 . S
C1658 C1657 1.415 . S
C1659 H1635 0.951 . S
C1659 C1660 1.366 . S
C1659 C1661 1.388 . S
C1660 C1659 1.366 . S
C1660 C1664 1.385 . S
C1661 H1636 0.951 . S
C1661 C1659 1.388 . S
C1661 C1662 1.366 . S
C1662 C1661 1.366 . S
C1662 C1663 1.414 . S
C1662 C1665 1.499 . S
C1663 H1637 0.950 . S
C1663 C1662 1.414 . S
C1663 C1664 1.374 . S
C1664 H1638 0.950 . S
C1664 C1660 1.385 . S
C1664 C1663 1.374 . S
C1665 C1662 1.499 . S
C1665 C1666 1.373 . S
C1665 C1667 1.389 . S
C1666 H1639 0.950 . S
C1666 C1652 1.377 . S
C1666 C1665 1.373 . S
C1667 C1651 1.377 . S
C1667 C1665 1.389 . S
C1667 C1668 1.524 . S
C1668 C1667 1.524 . S
C1668 C1669 1.397 . S
C1668 C1673 1.363 . S
C1669 H1640 0.950 . S
C1669 C1668 1.397 . S
C1669 C1670 1.334 . S
C1670 H1641 0.950 . S
C1670 C1669 1.334 . S
C1670 C1671 1.287 . S
C1671 C1670 1.287 . S
C1671 C1672 1.524 . S
C1671 H1674 0.999 . S
C1672 H1642 0.950 . S
C1672 C1671 1.524 . S
C1672 C1673 1.415 . S
C1673 H1643 0.950 . S
C1673 C1668 1.363 . S
C1673 C1672 1.415 . S
H1674 C1671 0.999 . S
H1675 C1656 0.913 . S
H1676 C1694 0.951 . S
H1677 C1696 0.951 . S
H1678 C1698 0.950 . S
H1679 C1699 0.950 . S
H1680 C1701 0.950 . S
H1681 C1704 0.950 . S
H1682 C1705 0.950 . S
H1683 C1707 0.950 1_565 S
H1684 C1708 0.950 1_565 S
H1685 C1709 0.951 1_554 S
H1686 C1711 0.951 . S
H1687 C1713 0.950 . S
H1688 C1714 0.950 . S
H1689 C1716 0.950 . S
H1690 C1719 0.950 . S
H1691 C1720 0.950 1_554 S
H1692 C1722 0.950 . S
H1693 C1723 0.950 . S
C1694 H1676 0.951 . S
C1694 C1695 1.366 . S
C1694 C1696 1.388 . S
C1695 C1694 1.366 . S
C1695 C1699 1.385 . S
C1696 H1677 0.951 . S
C1696 C1694 1.388 . S
C1696 C1697 1.366 . S
C1697 C1696 1.366 . S
C1697 C1698 1.414 . S
C1697 C1700 1.499 . S
C1698 H1678 0.950 . S
C1698 C1697 1.414 . S
C1698 C1699 1.374 . S
C1699 H1679 0.950 . S
C1699 C1695 1.385 . S
C1699 C1698 1.374 . S
C1700 C1697 1.499 . S
C1700 C1701 1.373 . S
C1700 C1702 1.389 . S
C1701 H1680 0.950 . S
C1701 C1700 1.373 . S
C1701 C1717 1.377 . S
C1702 C1700 1.389 . S
C1702 C1703 1.524 . S
C1702 C1716 1.377 . S
C1703 C1702 1.524 . S
C1703 C1704 1.397 . S
C1703 C1708 1.363 . S
C1704 H1681 0.950 . S
C1704 C1703 1.397 . S
C1704 C1705 1.334 . S
C1705 H1682 0.950 . S
C1705 C1704 1.334 . S
C1705 C1706 1.287 . S
C1706 C1705 1.287 . S
C1706 C1707 1.524 . S
C1706 H1725 0.913 . S
C1707 H1683 0.950 1_545 S
C1707 C1706 1.524 . S
C1707 C1708 1.415 . S
C1708 H1684 0.950 1_545 S
C1708 C1703 1.363 . S
C1708 C1707 1.415 . S
C1709 H1685 0.951 1_556 S
C1709 C1710 1.366 . S
C1709 C1711 1.388 . S
C1710 C1709 1.366 . S
C1710 C1714 1.385 . S
C1711 H1686 0.951 . S
C1711 C1709 1.388 . S
C1711 C1712 1.366 . S
C1712 C1711 1.366 . S
C1712 C1713 1.414 . S
C1712 C1715 1.499 . S
C1713 H1687 0.950 . S
C1713 C1712 1.414 . S
C1713 C1714 1.374 . S
C1714 H1688 0.950 . S
C1714 C1710 1.385 . S
C1714 C1713 1.374 . S
C1715 C1712 1.499 . S
C1715 C1716 1.373 . S
C1715 C1717 1.389 . S
C1716 H1689 0.950 . S
C1716 C1702 1.377 . S
C1716 C1715 1.373 . S
C1717 C1701 1.377 . S
C1717 C1715 1.389 . S
C1717 C1718 1.524 . S
C1718 C1717 1.524 . S
C1718 C1719 1.397 . S
C1718 C1723 1.363 . S
C1719 H1690 0.950 . S
C1719 C1718 1.397 . S
C1719 C1720 1.334 . S
C1720 H1691 0.950 1_556 S
C1720 C1719 1.334 . S
C1720 C1721 1.287 1_556 S
C1721 C1720 1.287 1_554 S
C1721 C1722 1.524 1_554 S
C1721 H1724 0.999 . S
C1722 H1692 0.950 . S
C1722 C1721 1.524 1_556 S
C1722 C1723 1.415 . S
C1723 H1693 0.950 . S
C1723 C1718 1.363 . S
C1723 C1722 1.415 . S
H1724 C1721 0.999 . S
H1725 C1706 0.913 . S
H1726 C1744 0.951 . S
H1727 C1746 0.951 . S
H1728 C1748 0.950 . S
H1729 C1749 0.950 . S
H1730 C1751 0.950 . S
H1731 C1754 0.950 . S
H1732 C1755 0.950 . S
H1733 C1757 0.950 . S
H1734 C1758 0.950 . S
H1735 C1759 0.951 . S
H1736 C1761 0.951 . S
H1737 C1763 0.950 . S
H1738 C1764 0.950 . S
H1739 C1766 0.950 . S
H1740 C1769 0.950 . S
H1741 C1770 0.950 . S
H1742 C1772 0.950 . S
H1743 C1773 0.950 . S
C1744 H1726 0.951 . S
C1744 C1745 1.366 . S
C1744 C1746 1.388 . S
C1745 C1744 1.366 . S
C1745 C1749 1.385 . S
C1746 H1727 0.951 . S
C1746 C1744 1.388 . S
C1746 C1747 1.366 . S
C1747 C1746 1.366 . S
C1747 C1748 1.414 . S
C1747 C1750 1.499 . S
C1748 H1728 0.950 . S
C1748 C1747 1.414 . S
C1748 C1749 1.374 . S
C1749 H1729 0.950 . S
C1749 C1745 1.385 . S
C1749 C1748 1.374 . S
C1750 C1747 1.499 . S
C1750 C1751 1.373 . S
C1750 C1752 1.389 . S
C1751 H1730 0.950 . S
C1751 C1750 1.373 . S
C1751 C1767 1.377 . S
C1752 C1750 1.389 . S
C1752 C1753 1.524 . S
C1752 C1766 1.377 . S
C1753 C1752 1.524 . S
C1753 C1754 1.397 . S
C1753 C1758 1.363 . S
C1754 H1731 0.950 . S
C1754 C1753 1.397 . S
C1754 C1755 1.334 . S
C1755 H1732 0.950 . S
C1755 C1754 1.334 . S
C1755 C1756 1.287 . S
C1756 C1755 1.287 . S
C1756 C1757 1.524 . S
C1756 H1775 0.913 . S
C1757 H1733 0.950 . S
C1757 C1756 1.524 . S
C1757 C1758 1.415 . S
C1758 H1734 0.950 . S
C1758 C1753 1.363 . S
C1758 C1757 1.415 . S
C1759 H1735 0.951 . S
C1759 C1760 1.366 . S
C1759 C1761 1.388 . S
C1760 C1759 1.366 . S
C1760 C1764 1.385 . S
C1761 H1736 0.951 . S
C1761 C1759 1.388 . S
C1761 C1762 1.366 . S
C1762 C1761 1.366 . S
C1762 C1763 1.414 . S
C1762 C1765 1.499 . S
C1763 H1737 0.950 . S
C1763 C1762 1.414 . S
C1763 C1764 1.374 . S
C1764 H1738 0.950 . S
C1764 C1760 1.385 . S
C1764 C1763 1.374 . S
C1765 C1762 1.499 . S
C1765 C1766 1.373 . S
C1765 C1767 1.389 . S
C1766 H1739 0.950 . S
C1766 C1752 1.377 . S
C1766 C1765 1.373 . S
C1767 C1751 1.377 . S
C1767 C1765 1.389 . S
C1767 C1768 1.524 . S
C1768 C1767 1.524 . S
C1768 C1769 1.397 . S
C1768 C1773 1.363 . S
C1769 H1740 0.950 . S
C1769 C1768 1.397 . S
C1769 C1770 1.334 . S
C1770 H1741 0.950 . S
C1770 C1769 1.334 . S
C1770 C1771 1.287 . S
C1771 C1770 1.287 . S
C1771 C1772 1.524 . S
C1771 H1774 0.999 . S
C1772 H1742 0.950 . S
C1772 C1771 1.524 . S
C1772 C1773 1.415 . S
C1773 H1743 0.950 . S
C1773 C1768 1.363 . S
C1773 C1772 1.415 . S
H1774 C1771 0.999 . S
H1775 C1756 0.913 . S
H1776 C1794 0.951 . S
H1777 C1796 0.951 . S
H1778 C1798 0.950 . S
H1779 C1799 0.950 . S
H1780 C1801 0.950 . S
H1781 C1804 0.950 . S
H1782 C1805 0.950 . S
H1783 C1807 0.950 . S
H1784 C1808 0.950 . S
H1785 C1809 0.951 . S
H1786 C1811 0.951 . S
H1787 C1813 0.950 . S
H1788 C1814 0.950 1_545 S
H1789 C1816 0.950 . S
H1790 C1819 0.950 . S
H1791 C1820 0.950 . S
H1792 C1822 0.950 . S
H1793 C1823 0.950 . S
C1794 H1776 0.951 . S
C1794 C1795 1.366 . S
C1794 C1796 1.388 . S
C1795 C1794 1.366 . S
C1795 C1799 1.385 . S
C1796 H1777 0.951 . S
C1796 C1794 1.388 . S
C1796 C1797 1.366 . S
C1797 C1796 1.366 . S
C1797 C1798 1.414 . S
C1797 C1800 1.499 . S
C1798 H1778 0.950 . S
C1798 C1797 1.414 . S
C1798 C1799 1.374 . S
C1799 H1779 0.950 . S
C1799 C1795 1.385 . S
C1799 C1798 1.374 . S
C1800 C1797 1.499 . S
C1800 C1801 1.373 . S
C1800 C1802 1.389 . S
C1801 H1780 0.950 . S
C1801 C1800 1.373 . S
C1801 C1817 1.377 . S
C1802 C1800 1.389 . S
C1802 C1803 1.524 . S
C1802 C1816 1.377 . S
C1803 C1802 1.524 . S
C1803 C1804 1.397 . S
C1803 C1808 1.363 . S
C1804 H1781 0.950 . S
C1804 C1803 1.397 . S
C1804 C1805 1.334 . S
C1805 H1782 0.950 . S
C1805 C1804 1.334 . S
C1805 C1806 1.287 . S
C1806 C1805 1.287 . S
C1806 C1807 1.524 . S
C1806 H1825 0.913 . S
C1807 H1783 0.950 . S
C1807 C1806 1.524 . S
C1807 C1808 1.415 . S
C1808 H1784 0.950 . S
C1808 C1803 1.363 . S
C1808 C1807 1.415 . S
C1809 H1785 0.951 . S
C1809 C1810 1.366 . S
C1809 C1811 1.388 . S
C1810 C1809 1.366 . S
C1810 C1814 1.385 . S
C1811 H1786 0.951 . S
C1811 C1809 1.388 . S
C1811 C1812 1.366 . S
C1812 C1811 1.366 . S
C1812 C1813 1.414 . S
C1812 C1815 1.499 . S
C1813 H1787 0.950 . S
C1813 C1812 1.414 . S
C1813 C1814 1.374 . S
C1814 H1788 0.950 1_565 S
C1814 C1810 1.385 . S
C1814 C1813 1.374 . S
C1815 C1812 1.499 . S
C1815 C1816 1.373 . S
C1815 C1817 1.389 . S
C1816 H1789 0.950 . S
C1816 C1802 1.377 . S
C1816 C1815 1.373 . S
C1817 C1801 1.377 . S
C1817 C1815 1.389 . S
C1817 C1818 1.524 . S
C1818 C1817 1.524 . S
C1818 C1819 1.397 . S
C1818 C1823 1.363 . S
C1819 H1790 0.950 . S
C1819 C1818 1.397 . S
C1819 C1820 1.334 1_554 S
C1820 H1791 0.950 . S
C1820 C1819 1.334 1_556 S
C1820 C1821 1.287 . S
C1821 C1820 1.287 . S
C1821 C1822 1.524 . S
C1821 H1824 0.999 . S
C1822 H1792 0.950 . S
C1822 C1821 1.524 . S
C1822 C1823 1.415 1_556 S
C1823 H1793 0.950 . S
C1823 C1818 1.363 . S
C1823 C1822 1.415 1_554 S
H1824 C1821 0.999 . S
H1825 C1806 0.913 . S
H1826 C1844 0.951 . S
H1827 C1846 0.951 . S
H1828 C1848 0.950 . S
H1829 C1849 0.950 . S
H1830 C1851 0.950 . S
H1831 C1854 0.950 . S
H1832 C1855 0.950 . S
H1833 C1857 0.950 . S
H1834 C1858 0.950 . S
H1835 C1859 0.951 . S
H1836 C1861 0.951 . S
H1837 C1863 0.950 . S
H1838 C1864 0.950 . S
H1839 C1866 0.950 . S
H1840 C1869 0.950 1_556 S
H1841 C1870 0.950 . S
H1842 C1872 0.950 . S
H1843 C1873 0.950 . S
C1844 H1826 0.951 . S
C1844 C1845 1.366 . S
C1844 C1846 1.388 . S
C1845 C1844 1.366 . S
C1845 C1849 1.385 . S
C1846 H1827 0.951 . S
C1846 C1844 1.388 . S
C1846 C1847 1.366 . S
C1847 C1846 1.366 . S
C1847 C1848 1.414 . S
C1847 C1850 1.499 . S
C1848 H1828 0.950 . S
C1848 C1847 1.414 . S
C1848 C1849 1.374 . S
C1849 H1829 0.950 . S
C1849 C1845 1.385 . S
C1849 C1848 1.374 . S
C1850 C1847 1.499 . S
C1850 C1851 1.373 . S
C1850 C1852 1.389 . S
C1851 H1830 0.950 . S
C1851 C1850 1.373 . S
C1851 C1867 1.377 . S
C1852 C1850 1.389 . S
C1852 C1853 1.524 . S
C1852 C1866 1.377 . S
C1853 C1852 1.524 . S
C1853 C1854 1.397 . S
C1853 C1858 1.363 . S
C1854 H1831 0.950 . S
C1854 C1853 1.397 . S
C1854 C1855 1.334 . S
C1855 H1832 0.950 . S
C1855 C1854 1.334 . S
C1855 C1856 1.287 . S
C1856 C1855 1.287 . S
C1856 C1857 1.524 . S
C1856 H1875 0.913 . S
C1857 H1833 0.950 . S
C1857 C1856 1.524 . S
C1857 C1858 1.415 . S
C1858 H1834 0.950 . S
C1858 C1853 1.363 . S
C1858 C1857 1.415 . S
C1859 H1835 0.951 . S
C1859 C1860 1.366 . S
C1859 C1861 1.388 . S
C1860 C1859 1.366 . S
C1860 C1864 1.385 . S
C1861 H1836 0.951 . S
C1861 C1859 1.388 . S
C1861 C1862 1.366 . S
C1862 C1861 1.366 . S
C1862 C1863 1.414 . S
C1862 C1865 1.499 . S
C1863 H1837 0.950 . S
C1863 C1862 1.414 . S
C1863 C1864 1.374 . S
C1864 H1838 0.950 . S
C1864 C1860 1.385 . S
C1864 C1863 1.374 . S
C1865 C1862 1.499 . S
C1865 C1866 1.373 . S
C1865 C1867 1.389 . S
C1866 H1839 0.950 . S
C1866 C1852 1.377 . S
C1866 C1865 1.373 . S
C1867 C1851 1.377 . S
C1867 C1865 1.389 . S
C1867 C1868 1.524 . S
C1868 C1867 1.524 . S
C1868 C1869 1.397 . S
C1868 C1873 1.363 . S
C1869 H1840 0.950 1_554 S
C1869 C1868 1.397 . S
C1869 C1870 1.334 1_554 S
C1870 H1841 0.950 . S
C1870 C1869 1.334 1_556 S
C1870 C1871 1.291 . S
C1871 C1870 1.291 . S
C1871 C1872 1.516 1_556 S
C1871 H1874 1.002 . S
C1872 H1842 0.950 . S
C1872 C1871 1.516 1_554 S
C1872 C1873 1.415 . S
C1873 H1843 0.950 . S
C1873 C1868 1.363 . S
C1873 C1872 1.415 . S
H1874 C1871 1.002 . S
H1875 C1856 0.913 . S
H1876 C1894 0.951 . S
H1877 C1896 0.951 . S
H1878 C1898 0.950 . S
H1879 C1899 0.950 . S
H1880 C1901 0.950 . S
H1881 C1904 0.950 . S
H1882 C1905 0.950 . S
H1883 C1907 0.950 . S
H1884 C1908 0.950 . S
H1885 C1909 0.951 . S
H1886 C1911 0.951 . S
H1887 C1913 0.950 . S
H1888 C1914 0.950 . S
H1889 C1916 0.950 . S
H1890 C1919 0.950 . S
H1891 C1920 0.950 . S
H1892 C1922 0.950 . S
H1893 C1923 0.950 . S
C1894 H1876 0.951 . S
C1894 C1895 1.366 . S
C1894 C1896 1.388 . S
C1895 C1894 1.366 . S
C1895 C1899 1.385 . S
C1896 H1877 0.951 . S
C1896 C1894 1.388 . S
C1896 C1897 1.366 . S
C1897 C1896 1.366 . S
C1897 C1898 1.414 . S
C1897 C1900 1.499 . S
C1898 H1878 0.950 . S
C1898 C1897 1.414 . S
C1898 C1899 1.374 . S
C1899 H1879 0.950 . S
C1899 C1895 1.385 . S
C1899 C1898 1.374 . S
C1900 C1897 1.499 . S
C1900 C1901 1.373 . S
C1900 C1902 1.389 . S
C1901 H1880 0.950 . S
C1901 C1900 1.373 . S
C1901 C1917 1.377 . S
C1902 C1900 1.389 . S
C1902 C1903 1.524 . S
C1902 C1916 1.377 . S
C1903 C1902 1.524 . S
C1903 C1904 1.397 . S
C1903 C1908 1.363 . S
C1904 H1881 0.950 . S
C1904 C1903 1.397 . S
C1904 C1905 1.334 . S
C1905 H1882 0.950 . S
C1905 C1904 1.334 . S
C1905 C1906 1.287 . S
C1906 C1905 1.287 . S
C1906 C1907 1.524 . S
C1906 H1925 0.913 . S
C1907 H1883 0.950 . S
C1907 C1906 1.524 . S
C1907 C1908 1.415 . S
C1908 H1884 0.950 . S
C1908 C1903 1.363 . S
C1908 C1907 1.415 . S
C1909 H1885 0.951 . S
C1909 C1910 1.366 . S
C1909 C1911 1.388 . S
C1910 C1909 1.366 . S
C1910 C1914 1.385 . S
C1911 H1886 0.951 . S
C1911 C1909 1.388 . S
C1911 C1912 1.366 . S
C1912 C1911 1.366 . S
C1912 C1913 1.414 . S
C1912 C1915 1.499 . S
C1913 H1887 0.950 . S
C1913 C1912 1.414 . S
C1913 C1914 1.374 . S
C1914 H1888 0.950 . S
C1914 C1910 1.385 . S
C1914 C1913 1.374 . S
C1915 C1912 1.499 . S
C1915 C1916 1.373 . S
C1915 C1917 1.389 . S
C1916 H1889 0.950 . S
C1916 C1902 1.377 . S
C1916 C1915 1.373 . S
C1917 C1901 1.377 . S
C1917 C1915 1.389 . S
C1917 C1918 1.524 . S
C1918 C1917 1.524 . S
C1918 C1919 1.397 . S
C1918 C1923 1.363 . S
C1919 H1890 0.950 . S
C1919 C1918 1.397 . S
C1919 C1920 1.334 . S
C1920 H1891 0.950 . S
C1920 C1919 1.334 . S
C1920 C1921 1.287 . S
C1921 C1920 1.287 . S
C1921 C1922 1.524 . S
C1921 H1924 0.999 . S
C1922 H1892 0.950 . S
C1922 C1921 1.524 . S
C1922 C1923 1.415 . S
C1923 H1893 0.950 . S
C1923 C1918 1.363 . S
C1923 C1922 1.415 . S
H1924 C1921 0.999 . S
H1925 C1906 0.913 . S
H1926 C1944 0.951 . S
H1927 C1946 0.951 . S
H1928 C1948 0.950 . S
H1929 C1949 0.950 . S
H1930 C1951 0.950 . S
H1931 C1954 0.950 . S
H1932 C1955 0.950 . S
H1933 C1957 0.950 . S
H1934 C1958 0.950 . S
H1935 C1959 0.951 . S
H1936 C1961 0.951 . S
H1937 C1963 0.950 . S
H1938 C1964 0.950 . S
H1939 C1966 0.950 . S
H1940 C1969 0.950 . S
H1941 C1970 0.950 . S
H1942 C1972 0.950 . S
H1943 C1973 0.950 . S
C1944 H1926 0.951 . S
C1944 C1945 1.366 . S
C1944 C1946 1.388 . S
C1945 C1944 1.366 . S
C1945 C1949 1.385 . S
C1946 H1927 0.951 . S
C1946 C1944 1.388 . S
C1946 C1947 1.366 . S
C1947 C1946 1.366 . S
C1947 C1948 1.414 . S
C1947 C1950 1.499 . S
C1948 H1928 0.950 . S
C1948 C1947 1.414 . S
C1948 C1949 1.374 . S
C1949 H1929 0.950 . S
C1949 C1945 1.385 . S
C1949 C1948 1.374 . S
C1950 C1947 1.499 . S
C1950 C1951 1.373 . S
C1950 C1952 1.389 . S
C1951 H1930 0.950 . S
C1951 C1950 1.373 . S
C1951 C1967 1.377 . S
C1952 C1950 1.389 . S
C1952 C1953 1.524 . S
C1952 C1966 1.377 . S
C1953 C1952 1.524 . S
C1953 C1954 1.397 . S
C1953 C1958 1.363 . S
C1954 H1931 0.950 . S
C1954 C1953 1.397 . S
C1954 C1955 1.334 . S
C1955 H1932 0.950 . S
C1955 C1954 1.334 . S
C1955 C1956 1.287 . S
C1956 C1955 1.287 . S
C1956 C1957 1.524 . S
C1956 H1975 0.913 . S
C1957 H1933 0.950 . S
C1957 C1956 1.524 . S
C1957 C1958 1.415 . S
C1958 H1934 0.950 . S
C1958 C1953 1.363 . S
C1958 C1957 1.415 . S
C1959 H1935 0.951 . S
C1959 C1960 1.366 . S
C1959 C1961 1.388 . S
C1960 C1959 1.366 . S
C1960 C1964 1.385 . S
C1961 H1936 0.951 . S
C1961 C1959 1.388 . S
C1961 C1962 1.366 . S
C1962 C1961 1.366 . S
C1962 C1963 1.414 . S
C1962 C1965 1.499 . S
C1963 H1937 0.950 . S
C1963 C1962 1.414 . S
C1963 C1964 1.374 . S
C1964 H1938 0.950 . S
C1964 C1960 1.385 . S
C1964 C1963 1.374 . S
C1965 C1962 1.499 . S
C1965 C1966 1.373 . S
C1965 C1967 1.389 . S
C1966 H1939 0.950 . S
C1966 C1952 1.377 . S
C1966 C1965 1.373 . S
C1967 C1951 1.377 . S
C1967 C1965 1.389 . S
C1967 C1968 1.524 . S
C1968 C1967 1.524 . S
C1968 C1969 1.397 . S
C1968 C1973 1.363 . S
C1969 H1940 0.950 . S
C1969 C1968 1.397 . S
C1969 C1970 1.334 . S
C1970 H1941 0.950 . S
C1970 C1969 1.334 . S
C1970 C1971 1.287 . S
C1971 C1970 1.287 . S
C1971 C1972 1.524 . S
C1971 H1974 0.999 . S
C1972 H1942 0.950 . S
C1972 C1971 1.524 . S
C1972 C1973 1.415 . S
C1973 H1943 0.950 . S
C1973 C1968 1.363 . S
C1973 C1972 1.415 . S
H1974 C1971 0.999 . S
H1975 C1956 0.913 . S
H1976 C1994 0.951 . S
H1977 C1996 0.951 . S
H1978 C1998 0.950 . S
H1979 C1999 0.950 . S
H1980 C2001 0.950 . S
H1981 C2004 0.950 . S
H1982 C2005 0.950 . S
H1983 C2007 0.950 . S
H1984 C2008 0.950 . S
H1985 C2009 0.951 . S
H1986 C2011 0.951 . S
H1987 C2013 0.950 . S
H1988 C2014 0.950 . S
H1989 C2016 0.950 . S
H1990 C2019 0.950 . S
H1991 C2020 0.950 . S
H1992 C2022 0.950 . S
H1993 C2023 0.950 . S
C1994 H1976 0.951 . S
C1994 C1995 1.366 . S
C1994 C1996 1.388 . S
C1995 C1994 1.366 . S
C1995 C1999 1.385 . S
C1996 H1977 0.951 . S
C1996 C1994 1.388 . S
C1996 C1997 1.366 . S
C1997 C1996 1.366 . S
C1997 C1998 1.414 . S
C1997 C2000 1.499 . S
C1998 H1978 0.950 . S
C1998 C1997 1.414 . S
C1998 C1999 1.374 . S
C1999 H1979 0.950 . S
C1999 C1995 1.385 . S
C1999 C1998 1.374 . S
C2000 C1997 1.499 . S
C2000 C2001 1.373 . S
C2000 C2002 1.389 . S
C2001 H1980 0.950 . S
C2001 C2000 1.373 . S
C2001 C2017 1.377 . S
C2002 C2000 1.389 . S
C2002 C2003 1.524 . S
C2002 C2016 1.377 . S
C2003 C2002 1.524 . S
C2003 C2004 1.397 . S
C2003 C2008 1.363 . S
C2004 H1981 0.950 . S
C2004 C2003 1.397 . S
C2004 C2005 1.334 . S
C2005 H1982 0.950 . S
C2005 C2004 1.334 . S
C2005 C2006 1.287 . S
C2006 C2005 1.287 . S
C2006 C2007 1.524 . S
C2006 H2025 0.913 . S
C2007 H1983 0.950 . S
C2007 C2006 1.524 . S
C2007 C2008 1.415 . S
C2008 H1984 0.950 . S
C2008 C2003 1.363 . S
C2008 C2007 1.415 . S
C2009 H1985 0.951 . S
C2009 C2010 1.366 . S
C2009 C2011 1.388 . S
C2010 C2009 1.366 . S
C2010 C2014 1.385 . S
C2011 H1986 0.951 . S
C2011 C2009 1.388 . S
C2011 C2012 1.366 . S
C2012 C2011 1.366 . S
C2012 C2013 1.414 . S
C2012 C2015 1.499 . S
C2013 H1987 0.950 . S
C2013 C2012 1.414 . S
C2013 C2014 1.374 . S
C2014 H1988 0.950 . S
C2014 C2010 1.385 . S
C2014 C2013 1.374 . S
C2015 C2012 1.499 . S
C2015 C2016 1.373 . S
C2015 C2017 1.389 . S
C2016 H1989 0.950 . S
C2016 C2002 1.377 . S
C2016 C2015 1.373 . S
C2017 C2001 1.377 . S
C2017 C2015 1.389 . S
C2017 C2018 1.524 . S
C2018 C2017 1.524 . S
C2018 C2019 1.397 . S
C2018 C2023 1.363 . S
C2019 H1990 0.950 . S
C2019 C2018 1.397 . S
C2019 C2020 1.334 . S
C2020 H1991 0.950 . S
C2020 C2019 1.334 . S
C2020 C2021 1.287 . S
C2021 C2020 1.287 . S
C2021 C2022 1.524 . S
C2021 H2024 0.999 . S
C2022 H1992 0.950 . S
C2022 C2021 1.524 . S
C2022 C2023 1.415 . S
C2023 H1993 0.950 . S
C2023 C2018 1.363 . S
C2023 C2022 1.415 . S
H2024 C2021 0.999 . S
H2025 C2006 0.913 . S
H2026 C2044 0.951 . S
H2027 C2046 0.951 . S
H2028 C2048 0.950 . S
H2029 C2049 0.950 . S
H2030 C2051 0.950 . S
H2031 C2054 0.950 . S
H2032 C2055 0.950 . S
H2033 C2057 0.950 . S
H2034 C2058 0.950 . S
H2035 C2059 0.951 . S
H2036 C2061 0.951 . S
H2037 C2063 0.950 . S
H2038 C2064 0.950 . S
H2039 C2066 0.950 . S
H2040 C2069 0.950 . S
H2041 C2070 0.950 . S
H2042 C2072 0.950 . S
H2043 C2073 0.950 . S
C2044 H2026 0.951 . S
C2044 C2045 1.366 . S
C2044 C2046 1.388 . S
C2045 C2044 1.366 . S
C2045 C2049 1.385 . S
C2046 H2027 0.951 . S
C2046 C2044 1.388 . S
C2046 C2047 1.366 . S
C2047 C2046 1.366 . S
C2047 C2048 1.414 . S
C2047 C2050 1.499 . S
C2048 H2028 0.950 . S
C2048 C2047 1.414 . S
C2048 C2049 1.374 . S
C2049 H2029 0.950 . S
C2049 C2045 1.385 . S
C2049 C2048 1.374 . S
C2050 C2047 1.499 . S
C2050 C2051 1.373 . S
C2050 C2052 1.389 . S
C2051 H2030 0.950 . S
C2051 C2050 1.373 . S
C2051 C2067 1.377 . S
C2052 C2050 1.389 . S
C2052 C2053 1.524 . S
C2052 C2066 1.377 . S
C2053 C2052 1.524 . S
C2053 C2054 1.397 . S
C2053 C2058 1.363 . S
C2054 H2031 0.950 . S
C2054 C2053 1.397 . S
C2054 C2055 1.334 . S
C2055 H2032 0.950 . S
C2055 C2054 1.334 . S
C2055 C2056 1.287 . S
C2056 C2055 1.287 . S
C2056 C2057 1.524 . S
C2056 H2075 0.913 . S
C2057 H2033 0.950 . S
C2057 C2056 1.524 . S
C2057 C2058 1.415 . S
C2058 H2034 0.950 . S
C2058 C2053 1.363 . S
C2058 C2057 1.415 . S
C2059 H2035 0.951 . S
C2059 C2060 1.366 . S
C2059 C2061 1.388 . S
C2060 C2059 1.366 . S
C2060 C2064 1.385 . S
C2061 H2036 0.951 . S
C2061 C2059 1.388 . S
C2061 C2062 1.366 . S
C2062 C2061 1.366 . S
C2062 C2063 1.414 . S
C2062 C2065 1.499 . S
C2063 H2037 0.950 . S
C2063 C2062 1.414 . S
C2063 C2064 1.374 . S
C2064 H2038 0.950 . S
C2064 C2060 1.385 . S
C2064 C2063 1.374 . S
C2065 C2062 1.499 . S
C2065 C2066 1.373 . S
C2065 C2067 1.389 . S
C2066 H2039 0.950 . S
C2066 C2052 1.377 . S
C2066 C2065 1.373 . S
C2067 C2051 1.377 . S
C2067 C2065 1.389 . S
C2067 C2068 1.524 . S
C2068 C2067 1.524 . S
C2068 C2069 1.397 . S
C2068 C2073 1.363 . S
C2069 H2040 0.950 . S
C2069 C2068 1.397 . S
C2069 C2070 1.334 . S
C2070 H2041 0.950 . S
C2070 C2069 1.334 . S
C2070 C2071 1.287 . S
C2071 C2070 1.287 . S
C2071 C2072 1.524 . S
C2071 H2074 0.999 . S
C2072 H2042 0.950 . S
C2072 C2071 1.524 . S
C2072 C2073 1.415 . S
C2073 H2043 0.950 . S
C2073 C2068 1.363 . S
C2073 C2072 1.415 . S
H2074 C2071 0.999 . S
H2075 C2056 0.913 . S
H2076 C2094 0.951 . S
H2077 C2096 0.951 . S
H2078 C2098 0.950 . S
H2079 C2099 0.950 . S
H2080 C2101 0.950 . S
H2081 C2104 0.950 . S
H2082 C2105 0.950 . S
H2083 C2107 0.950 . S
H2084 C2108 0.950 . S
H2085 C2109 0.951 . S
H2086 C2111 0.951 . S
H2087 C2113 0.950 . S
H2088 C2114 0.950 . S
H2089 C2116 0.950 . S
H2090 C2119 0.950 . S
H2091 C2120 0.950 . S
H2092 C2122 0.950 . S
H2093 C2123 0.950 . S
C2094 H2076 0.951 . S
C2094 C2095 1.366 . S
C2094 C2096 1.388 . S
C2095 C2094 1.366 . S
C2095 C2099 1.385 . S
C2096 H2077 0.951 . S
C2096 C2094 1.388 . S
C2096 C2097 1.366 . S
C2097 C2096 1.366 . S
C2097 C2098 1.414 . S
C2097 C2100 1.499 . S
C2098 H2078 0.950 . S
C2098 C2097 1.414 . S
C2098 C2099 1.374 . S
C2099 H2079 0.950 . S
C2099 C2095 1.385 . S
C2099 C2098 1.374 . S
C2100 C2097 1.499 . S
C2100 C2101 1.373 . S
C2100 C2102 1.389 . S
C2101 H2080 0.950 . S
C2101 C2100 1.373 . S
C2101 C2117 1.377 . S
C2102 C2100 1.389 . S
C2102 C2103 1.524 . S
C2102 C2116 1.377 . S
C2103 C2102 1.524 . S
C2103 C2104 1.397 . S
C2103 C2108 1.363 . S
C2104 H2081 0.950 . S
C2104 C2103 1.397 . S
C2104 C2105 1.334 . S
C2105 H2082 0.950 . S
C2105 C2104 1.334 . S
C2105 C2106 1.287 . S
C2106 C2105 1.287 . S
C2106 C2107 1.524 . S
C2106 H2125 0.913 . S
C2107 H2083 0.950 . S
C2107 C2106 1.524 . S
C2107 C2108 1.415 . S
C2108 H2084 0.950 . S
C2108 C2103 1.363 . S
C2108 C2107 1.415 . S
C2109 H2085 0.951 . S
C2109 C2110 1.366 . S
C2109 C2111 1.388 . S
C2110 C2109 1.366 . S
C2110 C2114 1.385 . S
C2111 H2086 0.951 . S
C2111 C2109 1.388 . S
C2111 C2112 1.366 . S
C2112 C2111 1.366 . S
C2112 C2113 1.414 . S
C2112 C2115 1.499 . S
C2113 H2087 0.950 . S
C2113 C2112 1.414 . S
C2113 C2114 1.374 . S
C2114 H2088 0.950 . S
C2114 C2110 1.385 . S
C2114 C2113 1.374 . S
C2115 C2112 1.499 . S
C2115 C2116 1.373 . S
C2115 C2117 1.389 . S
C2116 H2089 0.950 . S
C2116 C2102 1.377 . S
C2116 C2115 1.373 . S
C2117 C2101 1.377 . S
C2117 C2115 1.389 . S
C2117 C2118 1.524 . S
C2118 C2117 1.524 . S
C2118 C2119 1.397 . S
C2118 C2123 1.363 . S
C2119 H2090 0.950 . S
C2119 C2118 1.397 . S
C2119 C2120 1.334 . S
C2120 H2091 0.950 . S
C2120 C2119 1.334 . S
C2120 C2121 1.287 . S
C2121 C2120 1.287 . S
C2121 C2122 1.524 . S
C2121 H2124 0.999 . S
C2122 H2092 0.950 . S
C2122 C2121 1.524 . S
C2122 C2123 1.415 . S
C2123 H2093 0.950 . S
C2123 C2118 1.363 . S
C2123 C2122 1.415 . S
H2124 C2121 0.999 . S
H2125 C2106 0.913 . S
H2126 C2144 0.951 . S
H2127 C2146 0.951 . S
H2128 C2148 0.950 . S
H2129 C2149 0.950 . S
H2130 C2151 0.950 . S
H2131 C2154 0.950 . S
H2132 C2155 0.950 . S
H2133 C2157 0.950 . S
H2134 C2158 0.950 . S
H2135 C2159 0.951 . S
H2136 C2161 0.951 . S
H2137 C2163 0.950 . S
H2138 C2164 0.950 . S
H2139 C2166 0.950 . S
H2140 C2169 0.950 . S
H2141 C2170 0.950 . S
H2142 C2172 0.950 . S
H2143 C2173 0.950 . S
C2144 H2126 0.951 . S
C2144 C2145 1.366 . S
C2144 C2146 1.388 . S
C2145 C2144 1.366 . S
C2145 C2149 1.385 . S
C2146 H2127 0.951 . S
C2146 C2144 1.388 . S
C2146 C2147 1.366 . S
C2147 C2146 1.366 . S
C2147 C2148 1.414 . S
C2147 C2150 1.499 . S
C2148 H2128 0.950 . S
C2148 C2147 1.414 . S
C2148 C2149 1.374 . S
C2149 H2129 0.950 . S
C2149 C2145 1.385 . S
C2149 C2148 1.374 . S
C2150 C2147 1.499 . S
C2150 C2151 1.373 . S
C2150 C2152 1.389 . S
C2151 H2130 0.950 . S
C2151 C2150 1.373 . S
C2151 C2167 1.377 . S
C2152 C2150 1.389 . S
C2152 C2153 1.524 . S
C2152 C2166 1.377 . S
C2153 C2152 1.524 . S
C2153 C2154 1.397 . S
C2153 C2158 1.363 . S
C2154 H2131 0.950 . S
C2154 C2153 1.397 . S
C2154 C2155 1.334 . S
C2155 H2132 0.950 . S
C2155 C2154 1.334 . S
C2155 C2156 1.287 . S
C2156 C2155 1.287 . S
C2156 C2157 1.524 . S
C2156 H2175 0.913 . S
C2157 H2133 0.950 . S
C2157 C2156 1.524 . S
C2157 C2158 1.415 . S
C2158 H2134 0.950 . S
C2158 C2153 1.363 . S
C2158 C2157 1.415 . S
C2159 H2135 0.951 . S
C2159 C2160 1.366 . S
C2159 C2161 1.388 . S
C2160 C2159 1.366 . S
C2160 C2164 1.385 . S
C2161 H2136 0.951 . S
C2161 C2159 1.388 . S
C2161 C2162 1.366 . S
C2162 C2161 1.366 . S
C2162 C2163 1.414 . S
C2162 C2165 1.499 . S
C2163 H2137 0.950 . S
C2163 C2162 1.414 . S
C2163 C2164 1.374 . S
C2164 H2138 0.950 . S
C2164 C2160 1.385 . S
C2164 C2163 1.374 . S
C2165 C2162 1.499 . S
C2165 C2166 1.373 . S
C2165 C2167 1.389 . S
C2166 H2139 0.950 . S
C2166 C2152 1.377 . S
C2166 C2165 1.373 . S
C2167 C2151 1.377 . S
C2167 C2165 1.389 . S
C2167 C2168 1.524 . S
C2168 C2167 1.524 . S
C2168 C2169 1.397 . S
C2168 C2173 1.363 . S
C2169 H2140 0.950 . S
C2169 C2168 1.397 . S
C2169 C2170 1.334 . S
C2170 H2141 0.950 . S
C2170 C2169 1.334 . S
C2170 C2171 1.287 . S
C2171 C2170 1.287 . S
C2171 C2172 1.524 . S
C2171 H2174 0.999 . S
C2172 H2142 0.950 . S
C2172 C2171 1.524 . S
C2172 C2173 1.415 . S
C2173 H2143 0.950 . S
C2173 C2168 1.363 . S
C2173 C2172 1.415 . S
H2174 C2171 0.999 . S
H2175 C2156 0.913 . S
H2176 C2194 0.951 . S
H2177 C2196 0.951 . S
H2178 C2198 0.950 . S
H2179 C2199 0.950 . S
H2180 C2201 0.950 . S
H2181 C2204 0.950 . S
H2182 C2205 0.950 . S
H2183 C2207 0.950 . S
H2184 C2208 0.950 . S
H2185 C2209 0.951 . S
H2186 C2211 0.951 . S
H2187 C2213 0.950 . S
H2188 C2214 0.950 . S
H2189 C2216 0.950 . S
H2190 C2219 0.950 . S
H2191 C2220 0.950 . S
H2192 C2222 0.950 . S
H2193 C2223 0.950 . S
C2194 H2176 0.951 . S
C2194 C2195 1.366 . S
C2194 C2196 1.388 . S
C2195 C2194 1.366 . S
C2195 C2199 1.385 . S
C2196 H2177 0.951 . S
C2196 C2194 1.388 . S
C2196 C2197 1.366 . S
C2197 C2196 1.366 . S
C2197 C2198 1.414 . S
C2197 C2200 1.499 . S
C2198 H2178 0.950 . S
C2198 C2197 1.414 . S
C2198 C2199 1.374 . S
C2199 H2179 0.950 . S
C2199 C2195 1.385 . S
C2199 C2198 1.374 . S
C2200 C2197 1.499 . S
C2200 C2201 1.373 . S
C2200 C2202 1.389 . S
C2201 H2180 0.950 . S
C2201 C2200 1.373 . S
C2201 C2217 1.377 . S
C2202 C2200 1.389 . S
C2202 C2203 1.524 . S
C2202 C2216 1.377 . S
C2203 C2202 1.524 . S
C2203 C2204 1.397 . S
C2203 C2208 1.363 . S
C2204 H2181 0.950 . S
C2204 C2203 1.397 . S
C2204 C2205 1.334 . S
C2205 H2182 0.950 . S
C2205 C2204 1.334 . S
C2205 C2206 1.287 . S
C2206 C2205 1.287 . S
C2206 C2207 1.524 . S
C2206 H2225 0.913 . S
C2207 H2183 0.950 . S
C2207 C2206 1.524 . S
C2207 C2208 1.415 . S
C2208 H2184 0.950 . S
C2208 C2203 1.363 . S
C2208 C2207 1.415 . S
C2209 H2185 0.951 . S
C2209 C2210 1.366 . S
C2209 C2211 1.388 . S
C2210 C2209 1.366 . S
C2210 C2214 1.385 . S
C2211 H2186 0.951 . S
C2211 C2209 1.388 . S
C2211 C2212 1.366 . S
C2212 C2211 1.366 . S
C2212 C2213 1.414 . S
C2212 C2215 1.499 . S
C2213 H2187 0.950 . S
C2213 C2212 1.414 . S
C2213 C2214 1.374 . S
C2214 H2188 0.950 . S
C2214 C2210 1.385 . S
C2214 C2213 1.374 . S
C2215 C2212 1.499 . S
C2215 C2216 1.373 . S
C2215 C2217 1.389 . S
C2216 H2189 0.950 . S
C2216 C2202 1.377 . S
C2216 C2215 1.373 . S
C2217 C2201 1.377 . S
C2217 C2215 1.389 . S
C2217 C2218 1.524 . S
C2218 C2217 1.524 . S
C2218 C2219 1.397 . S
C2218 C2223 1.363 . S
C2219 H2190 0.950 . S
C2219 C2218 1.397 . S
C2219 C2220 1.334 . S
C2220 H2191 0.950 . S
C2220 C2219 1.334 . S
C2220 C2221 1.287 . S
C2221 C2220 1.287 . S
C2221 C2222 1.524 . S
C2221 H2224 0.999 . S
C2222 H2192 0.950 . S
C2222 C2221 1.524 . S
C2222 C2223 1.415 . S
C2223 H2193 0.950 . S
C2223 C2218 1.363 . S
C2223 C2222 1.415 . S
H2224 C2221 0.999 . S
H2225 C2206 0.913 . S
H2226 C2244 0.951 . S
H2227 C2246 0.951 . S
H2228 C2248 0.950 . S
H2229 C2249 0.950 . S
H2230 C2251 0.950 . S
H2231 C2254 0.950 . S
H2232 C2255 0.950 . S
H2233 C2257 0.950 . S
H2234 C2258 0.950 . S
H2235 C2259 0.951 . S
H2236 C2261 0.951 . S
H2237 C2263 0.950 . S
H2238 C2264 0.950 . S
H2239 C2266 0.950 . S
H2240 C2269 0.950 . S
H2241 C2270 0.950 . S
H2242 C2272 0.950 . S
H2243 C2273 0.950 . S
C2244 H2226 0.951 . S
C2244 C2245 1.366 . S
C2244 C2246 1.388 . S
C2245 C2244 1.366 . S
C2245 C2249 1.385 . S
C2246 H2227 0.951 . S
C2246 C2244 1.388 . S
C2246 C2247 1.366 . S
C2247 C2246 1.366 . S
C2247 C2248 1.414 . S
C2247 C2250 1.499 . S
C2248 H2228 0.950 . S
C2248 C2247 1.414 . S
C2248 C2249 1.374 . S
C2249 H2229 0.950 . S
C2249 C2245 1.385 . S
C2249 C2248 1.374 . S
C2250 C2247 1.499 . S
C2250 C2251 1.373 . S
C2250 C2252 1.389 . S
C2251 H2230 0.950 . S
C2251 C2250 1.373 . S
C2251 C2267 1.377 . S
C2252 C2250 1.389 . S
C2252 C2253 1.524 . S
C2252 C2266 1.377 . S
C2253 C2252 1.524 . S
C2253 C2254 1.397 . S
C2253 C2258 1.363 . S
C2254 H2231 0.950 . S
C2254 C2253 1.397 . S
C2254 C2255 1.334 . S
C2255 H2232 0.950 . S
C2255 C2254 1.334 . S
C2255 C2256 1.287 . S
C2256 C2255 1.287 . S
C2256 C2257 1.524 . S
C2256 H2275 0.913 . S
C2257 H2233 0.950 . S
C2257 C2256 1.524 . S
C2257 C2258 1.415 . S
C2258 H2234 0.950 . S
C2258 C2253 1.363 . S
C2258 C2257 1.415 . S
C2259 H2235 0.951 . S
C2259 C2260 1.366 . S
C2259 C2261 1.388 . S
C2260 C2259 1.366 . S
C2260 C2264 1.385 . S
C2261 H2236 0.951 . S
C2261 C2259 1.388 . S
C2261 C2262 1.366 . S
C2262 C2261 1.366 . S
C2262 C2263 1.414 . S
C2262 C2265 1.499 . S
C2263 H2237 0.950 . S
C2263 C2262 1.414 . S
C2263 C2264 1.374 . S
C2264 H2238 0.950 . S
C2264 C2260 1.385 . S
C2264 C2263 1.374 . S
C2265 C2262 1.499 . S
C2265 C2266 1.373 . S
C2265 C2267 1.389 . S
C2266 H2239 0.950 . S
C2266 C2252 1.377 . S
C2266 C2265 1.373 . S
C2267 C2251 1.377 . S
C2267 C2265 1.389 . S
C2267 C2268 1.524 . S
C2268 C2267 1.524 . S
C2268 C2269 1.397 . S
C2268 C2273 1.363 . S
C2269 H2240 0.950 . S
C2269 C2268 1.397 . S
C2269 C2270 1.334 . S
C2270 H2241 0.950 . S
C2270 C2269 1.334 . S
C2270 C2271 1.287 . S
C2271 C2270 1.287 . S
C2271 C2272 1.524 . S
C2271 H2274 0.999 . S
C2272 H2242 0.950 . S
C2272 C2271 1.524 . S
C2272 C2273 1.415 . S
C2273 H2243 0.950 . S
C2273 C2268 1.363 . S
C2273 C2272 1.415 . S
H2274 C2271 0.999 . S
H2275 C2256 0.913 . S
H2276 C2294 0.951 . S
H2277 C2296 0.951 . S
H2278 C2298 0.950 . S
H2279 C2299 0.950 . S
H2280 C2301 0.950 . S
H2281 C2304 0.950 . S
H2282 C2305 0.950 . S
H2283 C2307 0.950 . S
H2284 C2308 0.950 . S
H2285 C2309 0.951 . S
H2286 C2311 0.951 . S
H2287 C2313 0.950 . S
H2288 C2314 0.950 . S
H2289 C2316 0.950 . S
H2290 C2319 0.950 . S
H2291 C2320 0.950 . S
H2292 C2322 0.950 . S
H2293 C2323 0.950 . S
C2294 H2276 0.951 . S
C2294 C2295 1.366 . S
C2294 C2296 1.388 . S
C2295 C2294 1.366 . S
C2295 C2299 1.385 . S
C2296 H2277 0.951 . S
C2296 C2294 1.388 . S
C2296 C2297 1.366 . S
C2297 C2296 1.366 . S
C2297 C2298 1.414 . S
C2297 C2300 1.499 . S
C2298 H2278 0.950 . S
C2298 C2297 1.414 . S
C2298 C2299 1.374 . S
C2299 H2279 0.950 . S
C2299 C2295 1.385 . S
C2299 C2298 1.374 . S
C2300 C2297 1.499 . S
C2300 C2301 1.373 . S
C2300 C2302 1.389 . S
C2301 H2280 0.950 . S
C2301 C2300 1.373 . S
C2301 C2317 1.377 . S
C2302 C2300 1.389 . S
C2302 C2303 1.524 . S
C2302 C2316 1.377 . S
C2303 C2302 1.524 . S
C2303 C2304 1.397 . S
C2303 C2308 1.363 . S
C2304 H2281 0.950 . S
C2304 C2303 1.397 . S
C2304 C2305 1.334 . S
C2305 H2282 0.950 . S
C2305 C2304 1.334 . S
C2305 C2306 1.287 . S
C2306 C2305 1.287 . S
C2306 C2307 1.524 . S
C2306 H2325 0.913 . S
C2307 H2283 0.950 . S
C2307 C2306 1.524 . S
C2307 C2308 1.415 . S
C2308 H2284 0.950 . S
C2308 C2303 1.363 . S
C2308 C2307 1.415 . S
C2309 H2285 0.951 . S
C2309 C2310 1.366 . S
C2309 C2311 1.388 . S
C2310 C2309 1.366 . S
C2310 C2314 1.385 . S
C2311 H2286 0.951 . S
C2311 C2309 1.388 . S
C2311 C2312 1.366 . S
C2312 C2311 1.366 . S
C2312 C2313 1.414 . S
C2312 C2315 1.499 . S
C2313 H2287 0.950 . S
C2313 C2312 1.414 . S
C2313 C2314 1.374 . S
C2314 H2288 0.950 . S
C2314 C2310 1.385 . S
C2314 C2313 1.374 . S
C2315 C2312 1.499 . S
C2315 C2316 1.373 . S
C2315 C2317 1.389 . S
C2316 H2289 0.950 . S
C2316 C2302 1.377 . S
C2316 C2315 1.373 . S
C2317 C2301 1.377 . S
C2317 C2315 1.389 . S
C2317 C2318 1.524 . S
C2318 C2317 1.524 . S
C2318 C2319 1.397 . S
C2318 C2323 1.363 . S
C2319 H2290 0.950 . S
C2319 C2318 1.397 . S
C2319 C2320 1.334 . S
C2320 H2291 0.950 . S
C2320 C2319 1.334 . S
C2320 C2321 1.287 . S
C2321 C2320 1.287 . S
C2321 C2322 1.524 . S
C2321 H2324 0.999 . S
C2322 H2292 0.950 . S
C2322 C2321 1.524 . S
C2322 C2323 1.415 . S
C2323 H2293 0.950 . S
C2323 C2318 1.363 . S
C2323 C2322 1.415 . S
H2324 C2321 0.999 . S
H2325 C2306 0.913 . S
H2326 C2344 0.951 . S
H2327 C2346 0.951 . S
H2328 C2348 0.950 . S
H2329 C2349 0.950 . S
H2330 C2351 0.950 . S
H2331 C2354 0.950 . S
H2332 C2355 0.950 . S
H2333 C2357 0.950 . S
H2334 C2358 0.950 . S
H2335 C2359 0.951 . S
H2336 C2361 0.951 . S
H2337 C2363 0.950 . S
H2338 C2364 0.950 . S
H2339 C2366 0.950 . S
H2340 C2369 0.950 . S
H2341 C2370 0.950 . S
H2342 C2372 0.950 . S
H2343 C2373 0.950 . S
C2344 H2326 0.951 . S
C2344 C2345 1.366 . S
C2344 C2346 1.388 . S
C2345 C2344 1.366 . S
C2345 C2349 1.385 . S
C2346 H2327 0.951 . S
C2346 C2344 1.388 . S
C2346 C2347 1.366 . S
C2347 C2346 1.366 . S
C2347 C2348 1.414 . S
C2347 C2350 1.499 . S
C2348 H2328 0.950 . S
C2348 C2347 1.414 . S
C2348 C2349 1.374 . S
C2349 H2329 0.950 . S
C2349 C2345 1.385 . S
C2349 C2348 1.374 . S
C2350 C2347 1.499 . S
C2350 C2351 1.373 . S
C2350 C2352 1.389 . S
C2351 H2330 0.950 . S
C2351 C2350 1.373 . S
C2351 C2367 1.377 . S
C2352 C2350 1.389 . S
C2352 C2353 1.524 . S
C2352 C2366 1.377 . S
C2353 C2352 1.524 . S
C2353 C2354 1.397 . S
C2353 C2358 1.363 . S
C2354 H2331 0.950 . S
C2354 C2353 1.397 . S
C2354 C2355 1.334 . S
C2355 H2332 0.950 . S
C2355 C2354 1.334 . S
C2355 C2356 1.287 . S
C2356 C2355 1.287 . S
C2356 C2357 1.524 . S
C2356 H2375 0.913 . S
C2357 H2333 0.950 . S
C2357 C2356 1.524 . S
C2357 C2358 1.415 . S
C2358 H2334 0.950 . S
C2358 C2353 1.363 . S
C2358 C2357 1.415 . S
C2359 H2335 0.951 . S
C2359 C2360 1.366 . S
C2359 C2361 1.388 . S
C2360 C2359 1.366 . S
C2360 C2364 1.385 . S
C2361 H2336 0.951 . S
C2361 C2359 1.388 . S
C2361 C2362 1.366 . S
C2362 C2361 1.366 . S
C2362 C2363 1.414 . S
C2362 C2365 1.499 . S
C2363 H2337 0.950 . S
C2363 C2362 1.414 . S
C2363 C2364 1.374 . S
C2364 H2338 0.950 . S
C2364 C2360 1.385 . S
C2364 C2363 1.374 . S
C2365 C2362 1.499 . S
C2365 C2366 1.373 . S
C2365 C2367 1.389 . S
C2366 H2339 0.950 . S
C2366 C2352 1.377 . S
C2366 C2365 1.373 . S
C2367 C2351 1.377 . S
C2367 C2365 1.389 . S
C2367 C2368 1.524 . S
C2368 C2367 1.524 . S
C2368 C2369 1.397 . S
C2368 C2373 1.363 . S
C2369 H2340 0.950 . S
C2369 C2368 1.397 . S
C2369 C2370 1.334 . S
C2370 H2341 0.950 . S
C2370 C2369 1.334 . S
C2370 C2371 1.287 . S
C2371 C2370 1.287 . S
C2371 C2372 1.524 . S
C2371 H2374 0.999 . S
C2372 H2342 0.950 . S
C2372 C2371 1.524 . S
C2372 C2373 1.415 . S
C2373 H2343 0.950 . S
C2373 C2368 1.363 . S
C2373 C2372 1.415 . S
H2374 C2371 0.999 . S
H2375 C2356 0.913 . S
H2376 C2394 0.951 . S
H2377 C2396 0.951 . S
H2378 C2398 0.950 . S
H2379 C2399 0.950 . S
H2380 C2401 0.950 . S
H2381 C2404 0.950 . S
H2382 C2405 0.950 . S
H2383 C2407 0.950 . S
H2384 C2408 0.950 1_455 S
H2385 C2409 0.951 . S
H2386 C2411 0.951 . S
H2387 C2413 0.950 . S
H2388 C2414 0.950 . S
H2389 C2416 0.950 . S
H2390 C2419 0.950 . S
H2391 C2420 0.950 . S
H2392 C2422 0.950 . S
H2393 C2423 0.950 . S
C2394 H2376 0.951 . S
C2394 C2395 1.366 . S
C2394 C2396 1.388 . S
C2395 C2394 1.366 . S
C2395 C2399 1.385 . S
C2396 H2377 0.951 . S
C2396 C2394 1.388 . S
C2396 C2397 1.366 . S
C2397 C2396 1.366 . S
C2397 C2398 1.414 . S
C2397 C2400 1.499 . S
C2398 H2378 0.950 . S
C2398 C2397 1.414 . S
C2398 C2399 1.374 . S
C2399 H2379 0.950 . S
C2399 C2395 1.385 . S
C2399 C2398 1.374 . S
C2400 C2397 1.499 . S
C2400 C2401 1.373 . S
C2400 C2402 1.389 . S
C2401 H2380 0.950 . S
C2401 C2400 1.373 . S
C2401 C2417 1.377 . S
C2402 C2400 1.389 . S
C2402 C2403 1.524 1_455 S
C2402 C2416 1.377 . S
C2403 C2402 1.524 1_655 S
C2403 C2404 1.397 . S
C2403 C2408 1.363 . S
C2404 H2381 0.950 . S
C2404 C2403 1.397 . S
C2404 C2405 1.334 . S
C2405 H2382 0.950 . S
C2405 C2404 1.334 . S
C2405 C2406 1.287 . S
C2406 C2405 1.287 . S
C2406 C2407 1.524 . S
C2406 H2425 0.913 . S
C2407 H2383 0.950 . S
C2407 C2406 1.524 . S
C2407 C2408 1.415 . S
C2408 H2384 0.950 1_655 S
C2408 C2403 1.363 . S
C2408 C2407 1.415 . S
C2409 H2385 0.951 . S
C2409 C2410 1.366 . S
C2409 C2411 1.388 . S
C2410 C2409 1.366 . S
C2410 C2414 1.385 . S
C2411 H2386 0.951 . S
C2411 C2409 1.388 . S
C2411 C2412 1.366 . S
C2412 C2411 1.366 . S
C2412 C2413 1.414 . S
C2412 C2415 1.499 . S
C2413 H2387 0.950 . S
C2413 C2412 1.414 . S
C2413 C2414 1.374 . S
C2414 H2388 0.950 . S
C2414 C2410 1.385 . S
C2414 C2413 1.374 . S
C2415 C2412 1.499 . S
C2415 C2416 1.373 . S
C2415 C2417 1.389 . S
C2416 H2389 0.950 . S
C2416 C2402 1.377 . S
C2416 C2415 1.373 . S
C2417 C2401 1.377 . S
C2417 C2415 1.389 . S
C2417 C2418 1.524 . S
C2418 C2417 1.524 . S
C2418 C2419 1.397 . S
C2418 C2423 1.363 . S
C2419 H2390 0.950 . S
C2419 C2418 1.397 . S
C2419 C2420 1.334 . S
C2420 H2391 0.950 . S
C2420 C2419 1.334 . S
C2420 C2421 1.287 . S
C2421 C2420 1.287 . S
C2421 C2422 1.524 . S
C2421 H2424 0.999 . S
C2422 H2392 0.950 . S
C2422 C2421 1.524 . S
C2422 C2423 1.415 . S
C2423 H2393 0.950 . S
C2423 C2418 1.363 . S
C2423 C2422 1.415 . S
H2424 C2421 0.999 . S
H2425 C2406 0.913 . S
H2426 C2444 0.951 . S
H2427 C2446 0.951 . S
H2428 C2448 0.950 . S
H2429 C2449 0.950 . S
H2430 C2451 0.950 . S
H2431 C2454 0.950 . S
H2432 C2455 0.950 . S
H2433 C2457 0.950 . S
H2434 C2458 0.950 . S
H2435 C2459 0.951 . S
H2436 C2461 0.951 . S
H2437 C2463 0.950 . S
H2438 C2464 0.950 . S
H2439 C2466 0.950 . S
H2440 C2469 0.950 . S
H2441 C2470 0.950 . S
H2442 C2472 0.950 . S
H2443 C2473 0.950 . S
C2444 H2426 0.951 . S
C2444 C2445 1.366 . S
C2444 C2446 1.388 . S
C2445 C2444 1.366 . S
C2445 C2449 1.385 . S
C2446 H2427 0.951 . S
C2446 C2444 1.388 . S
C2446 C2447 1.366 . S
C2447 C2446 1.366 . S
C2447 C2448 1.414 . S
C2447 C2450 1.499 . S
C2448 H2428 0.950 . S
C2448 C2447 1.414 . S
C2448 C2449 1.374 . S
C2449 H2429 0.950 . S
C2449 C2445 1.385 . S
C2449 C2448 1.374 . S
C2450 C2447 1.499 . S
C2450 C2451 1.373 . S
C2450 C2452 1.389 . S
C2451 H2430 0.950 . S
C2451 C2450 1.373 . S
C2451 C2467 1.377 . S
C2452 C2450 1.389 . S
C2452 C2453 1.524 . S
C2452 C2466 1.377 . S
C2453 C2452 1.524 . S
C2453 C2454 1.397 . S
C2453 C2458 1.363 . S
C2454 H2431 0.950 . S
C2454 C2453 1.397 . S
C2454 C2455 1.334 . S
C2455 H2432 0.950 . S
C2455 C2454 1.334 . S
C2455 C2456 1.287 . S
C2456 C2455 1.287 . S
C2456 C2457 1.524 . S
C2456 H2475 0.913 . S
C2457 H2433 0.950 . S
C2457 C2456 1.524 . S
C2457 C2458 1.415 . S
C2458 H2434 0.950 . S
C2458 C2453 1.363 . S
C2458 C2457 1.415 . S
C2459 H2435 0.951 . S
C2459 C2460 1.366 . S
C2459 C2461 1.388 . S
C2460 C2459 1.366 . S
C2460 C2464 1.385 . S
C2461 H2436 0.951 . S
C2461 C2459 1.388 . S
C2461 C2462 1.366 . S
C2462 C2461 1.366 . S
C2462 C2463 1.414 . S
C2462 C2465 1.499 . S
C2463 H2437 0.950 . S
C2463 C2462 1.414 . S
C2463 C2464 1.374 . S
C2464 H2438 0.950 . S
C2464 C2460 1.385 . S
C2464 C2463 1.374 . S
C2465 C2462 1.499 . S
C2465 C2466 1.373 . S
C2465 C2467 1.389 . S
C2466 H2439 0.950 . S
C2466 C2452 1.377 . S
C2466 C2465 1.373 . S
C2467 C2451 1.377 . S
C2467 C2465 1.389 . S
C2467 C2468 1.524 . S
C2468 C2467 1.524 . S
C2468 C2469 1.397 . S
C2468 C2473 1.363 . S
C2469 H2440 0.950 . S
C2469 C2468 1.397 . S
C2469 C2470 1.334 . S
C2470 H2441 0.950 . S
C2470 C2469 1.334 . S
C2470 C2471 1.287 . S
C2471 C2470 1.287 . S
C2471 C2472 1.524 . S
C2471 H2474 0.999 . S
C2472 H2442 0.950 . S
C2472 C2471 1.524 . S
C2472 C2473 1.415 . S
C2473 H2443 0.950 . S
C2473 C2468 1.363 . S
C2473 C2472 1.415 . S
H2474 C2471 0.999 . S
H2475 C2456 0.913 . S
H2476 C2494 0.951 . S
H2477 C2496 0.951 . S
H2478 C2498 0.950 . S
H2479 C2499 0.950 . S
H2480 C2501 0.950 . S
H2481 C2504 0.962 . S
H2482 C2505 0.950 . S
H2483 C2507 0.950 . S
H2484 C2508 0.950 . S
H2485 C2509 0.951 . S
H2486 C2511 0.951 1_556 S
H2487 C2513 0.950 . S
H2488 C2514 0.950 . S
H2489 C2516 0.950 . S
H2490 C2519 0.950 . S
H2491 C2520 0.950 . S
H2492 C2522 0.950 . S
H2493 C2523 0.950 . S
C2494 H2476 0.951 . S
C2494 C2495 1.366 . S
C2494 C2496 1.388 . S
C2495 C2494 1.366 . S
C2495 C2499 1.385 . S
C2496 H2477 0.951 . S
C2496 C2494 1.388 . S
C2496 C2497 1.366 . S
C2497 C2496 1.366 . S
C2497 C2498 1.414 . S
C2497 C2500 1.499 . S
C2498 H2478 0.950 . S
C2498 C2497 1.414 . S
C2498 C2499 1.374 . S
C2499 H2479 0.950 . S
C2499 C2495 1.385 . S
C2499 C2498 1.374 . S
C2500 C2497 1.499 . S
C2500 C2501 1.373 . S
C2500 C2502 1.389 . S
C2501 H2480 0.950 . S
C2501 C2500 1.373 . S
C2501 C2517 1.377 . S
C2502 C2500 1.389 . S
C2502 C2503 1.524 1_556 S
C2502 C2516 1.377 1_556 S
C2503 C2502 1.524 1_554 S
C2503 C2504 1.394 1_554 S
C2503 C2508 1.363 . S
C2504 H2481 0.962 . S
C2504 C2503 1.394 1_556 S
C2504 C2505 1.325 1_556 S
C2505 H2482 0.950 . S
C2505 C2504 1.325 1_554 S
C2505 C2506 1.287 . S
C2506 C2505 1.287 . S
C2506 C2507 1.524 . S
C2506 H2525 0.913 . S
C2507 H2483 0.950 . S
C2507 C2506 1.524 . S
C2507 C2508 1.415 . S
C2508 H2484 0.950 . S
C2508 C2503 1.363 . S
C2508 C2507 1.415 . S
C2509 H2485 0.951 . S
C2509 C2510 1.366 . S
C2509 C2511 1.388 . S
C2510 C2509 1.366 . S
C2510 C2514 1.385 . S
C2511 H2486 0.951 1_554 S
C2511 C2509 1.388 . S
C2511 C2512 1.366 . S
C2512 C2511 1.366 . S
C2512 C2513 1.414 . S
C2512 C2515 1.494 1_554 S
C2513 H2487 0.950 . S
C2513 C2512 1.414 . S
C2513 C2514 1.374 . S
C2514 H2488 0.950 . S
C2514 C2510 1.385 . S
C2514 C2513 1.374 . S
C2515 C2512 1.494 1_556 S
C2515 C2516 1.367 1_556 S
C2515 C2517 1.401 . S
C2516 H2489 0.950 . S
C2516 C2502 1.377 1_554 S
C2516 C2515 1.367 1_554 S
C2517 C2501 1.377 . S
C2517 C2515 1.401 . S
C2517 C2518 1.524 . S
C2518 C2517 1.524 . S
C2518 C2519 1.397 . S
C2518 C2523 1.363 . S
C2519 H2490 0.950 . S
C2519 C2518 1.397 . S
C2519 C2520 1.334 . S
C2520 H2491 0.950 . S
C2520 C2519 1.334 . S
C2520 C2521 1.287 . S
C2521 C2520 1.287 . S
C2521 C2522 1.524 . S
C2521 H2524 0.999 . S
C2522 H2492 0.950 . S
C2522 C2521 1.524 . S
C2522 C2523 1.415 . S
C2523 H2493 0.950 . S
C2523 C2518 1.363 . S
C2523 C2522 1.415 . S
H2524 C2521 0.999 . S
H2525 C2506 0.913 . S
H2526 C2544 0.951 . S
H2527 C2546 0.951 . S
H2528 C2548 0.950 . S
H2529 C2549 0.950 . S
H2530 C2551 0.950 . S
H2531 C2554 0.950 . S
H2532 C2555 0.950 . S
H2533 C2557 0.950 . S
H2534 C2558 0.950 . S
H2535 C2559 0.951 . S
H2536 C2561 0.951 . S
H2537 C2563 0.950 . S
H2538 C2564 0.950 . S
H2539 C2566 0.950 . S
H2540 C2569 0.950 . S
H2541 C2570 0.950 . S
H2542 C2572 0.950 . S
H2543 C2573 0.950 . S
C2544 H2526 0.951 . S
C2544 C2545 1.366 . S
C2544 C2546 1.388 . S
C2545 C2544 1.366 . S
C2545 C2549 1.385 . S
C2546 H2527 0.951 . S
C2546 C2544 1.388 . S
C2546 C2547 1.366 . S
C2547 C2546 1.366 . S
C2547 C2548 1.414 . S
C2547 C2550 1.499 . S
C2548 H2528 0.950 . S
C2548 C2547 1.414 . S
C2548 C2549 1.374 . S
C2549 H2529 0.950 . S
C2549 C2545 1.385 . S
C2549 C2548 1.374 . S
C2550 C2547 1.499 . S
C2550 C2551 1.373 . S
C2550 C2552 1.389 . S
C2551 H2530 0.950 . S
C2551 C2550 1.373 . S
C2551 C2567 1.377 . S
C2552 C2550 1.389 . S
C2552 C2553 1.524 . S
C2552 C2566 1.377 . S
C2553 C2552 1.524 . S
C2553 C2554 1.397 . S
C2553 C2558 1.363 . S
C2554 H2531 0.950 . S
C2554 C2553 1.397 . S
C2554 C2555 1.334 . S
C2555 H2532 0.950 . S
C2555 C2554 1.334 . S
C2555 C2556 1.287 . S
C2556 C2555 1.287 . S
C2556 C2557 1.524 . S
C2556 H2575 0.913 . S
C2557 H2533 0.950 . S
C2557 C2556 1.524 . S
C2557 C2558 1.415 . S
C2558 H2534 0.950 . S
C2558 C2553 1.363 . S
C2558 C2557 1.415 . S
C2559 H2535 0.951 . S
C2559 C2560 1.366 . S
C2559 C2561 1.388 . S
C2560 C2559 1.366 . S
C2560 C2564 1.385 . S
C2561 H2536 0.951 . S
C2561 C2559 1.388 . S
C2561 C2562 1.366 . S
C2562 C2561 1.366 . S
C2562 C2563 1.414 . S
C2562 C2565 1.499 . S
C2563 H2537 0.950 . S
C2563 C2562 1.414 . S
C2563 C2564 1.374 . S
C2564 H2538 0.950 . S
C2564 C2560 1.385 . S
C2564 C2563 1.374 . S
C2565 C2562 1.499 . S
C2565 C2566 1.373 . S
C2565 C2567 1.389 . S
C2566 H2539 0.950 . S
C2566 C2552 1.377 . S
C2566 C2565 1.373 . S
C2567 C2551 1.377 . S
C2567 C2565 1.389 . S
C2567 C2568 1.524 . S
C2568 C2567 1.524 . S
C2568 C2569 1.397 . S
C2568 C2573 1.363 . S
C2569 H2540 0.950 . S
C2569 C2568 1.397 . S
C2569 C2570 1.334 . S
C2570 H2541 0.950 . S
C2570 C2569 1.334 . S
C2570 C2571 1.287 . S
C2571 C2570 1.287 . S
C2571 C2572 1.524 . S
C2571 H2574 0.999 . S
C2572 H2542 0.950 . S
C2572 C2571 1.524 . S
C2572 C2573 1.415 . S
C2573 H2543 0.950 . S
C2573 C2568 1.363 . S
C2573 C2572 1.415 . S
H2574 C2571 0.999 . S
H2575 C2556 0.913 . S
H2576 C2594 0.951 . S
H2577 C2596 0.951 . S
H2578 C2598 0.950 . S
H2579 C2599 0.950 . S
H2580 C2601 0.950 . S
H2581 C2604 0.950 . S
H2582 C2605 0.950 . S
H2583 C2607 0.950 . S
H2584 C2608 0.950 . S
H2585 C2609 0.951 . S
H2586 C2611 0.951 . S
H2587 C2613 0.950 . S
H2588 C2614 0.950 . S
H2589 C2616 0.950 1_565 S
H2590 C2619 0.950 . S
H2591 C2620 0.950 . S
H2592 C2622 0.950 . S
H2593 C2623 0.950 . S
C2594 H2576 0.951 . S
C2594 C2595 1.366 . S
C2594 C2596 1.388 . S
C2595 C2594 1.366 . S
C2595 C2599 1.385 . S
C2596 H2577 0.951 . S
C2596 C2594 1.388 . S
C2596 C2597 1.366 . S
C2597 C2596 1.366 . S
C2597 C2598 1.414 . S
C2597 C2600 1.499 . S
C2598 H2578 0.950 . S
C2598 C2597 1.414 . S
C2598 C2599 1.374 . S
C2599 H2579 0.950 . S
C2599 C2595 1.385 . S
C2599 C2598 1.374 . S
C2600 C2597 1.499 . S
C2600 C2601 1.373 . S
C2600 C2602 1.389 . S
C2601 H2580 0.950 . S
C2601 C2600 1.373 . S
C2601 C2617 1.377 . S
C2602 C2600 1.389 . S
C2602 C2603 1.524 1_545 S
C2602 C2616 1.377 . S
C2603 C2602 1.524 1_565 S
C2603 C2604 1.397 . S
C2603 C2608 1.363 . S
C2604 H2581 0.950 . S
C2604 C2603 1.397 . S
C2604 C2605 1.334 . S
C2605 H2582 0.950 . S
C2605 C2604 1.334 . S
C2605 C2606 1.287 . S
C2606 C2605 1.287 . S
C2606 C2607 1.524 . S
C2606 H2625 0.913 . S
C2607 H2583 0.950 . S
C2607 C2606 1.524 . S
C2607 C2608 1.415 . S
C2608 H2584 0.950 . S
C2608 C2603 1.363 . S
C2608 C2607 1.415 . S
C2609 H2585 0.951 . S
C2609 C2610 1.366 . S
C2609 C2611 1.388 . S
C2610 C2609 1.366 . S
C2610 C2614 1.385 . S
C2611 H2586 0.951 . S
C2611 C2609 1.388 . S
C2611 C2612 1.366 . S
C2612 C2611 1.366 . S
C2612 C2613 1.414 . S
C2612 C2615 1.499 . S
C2613 H2587 0.950 . S
C2613 C2612 1.414 . S
C2613 C2614 1.374 . S
C2614 H2588 0.950 . S
C2614 C2610 1.385 . S
C2614 C2613 1.374 . S
C2615 C2612 1.499 . S
C2615 C2616 1.373 . S
C2615 C2617 1.389 . S
C2616 H2589 0.950 1_545 S
C2616 C2602 1.377 . S
C2616 C2615 1.373 . S
C2617 C2601 1.377 . S
C2617 C2615 1.389 . S
C2617 C2618 1.524 . S
C2618 C2617 1.524 . S
C2618 C2619 1.397 . S
C2618 C2623 1.363 . S
C2619 H2590 0.950 . S
C2619 C2618 1.397 . S
C2619 C2620 1.334 . S
C2620 H2591 0.950 . S
C2620 C2619 1.334 . S
C2620 C2621 1.287 . S
C2621 C2620 1.287 . S
C2621 C2622 1.524 . S
C2621 H2624 0.999 . S
C2622 H2592 0.950 . S
C2622 C2621 1.524 . S
C2622 C2623 1.415 . S
C2623 H2593 0.950 . S
C2623 C2618 1.363 . S
C2623 C2622 1.415 . S
H2624 C2621 0.999 . S
H2625 C2606 0.913 . S
H2626 C2644 0.951 . S
H2627 C2646 0.951 . S
H2628 C2648 0.950 . S
H2629 C2649 0.950 . S
H2630 C2651 0.950 . S
H2631 C2654 0.950 . S
H2632 C2655 0.950 . S
H2633 C2657 0.950 . S
H2634 C2658 0.950 . S
H2635 C2659 0.951 . S
H2636 C2661 0.951 . S
H2637 C2663 0.950 . S
H2638 C2664 0.950 . S
H2639 C2666 0.950 . S
H2640 C2669 0.950 . S
H2641 C2670 0.950 . S
H2642 C2672 0.950 . S
H2643 C2673 0.950 . S
C2644 H2626 0.951 . S
C2644 C2645 1.366 . S
C2644 C2646 1.388 . S
C2645 C2644 1.366 . S
C2645 C2649 1.385 . S
C2646 H2627 0.951 . S
C2646 C2644 1.388 . S
C2646 C2647 1.366 . S
C2647 C2646 1.366 . S
C2647 C2648 1.414 . S
C2647 C2650 1.499 . S
C2648 H2628 0.950 . S
C2648 C2647 1.414 . S
C2648 C2649 1.374 . S
C2649 H2629 0.950 . S
C2649 C2645 1.385 . S
C2649 C2648 1.374 . S
C2650 C2647 1.499 . S
C2650 C2651 1.373 . S
C2650 C2652 1.389 . S
C2651 H2630 0.950 . S
C2651 C2650 1.373 . S
C2651 C2667 1.377 . S
C2652 C2650 1.389 . S
C2652 C2653 1.524 . S
C2652 C2666 1.377 . S
C2653 C2652 1.524 . S
C2653 C2654 1.397 . S
C2653 C2658 1.363 . S
C2654 H2631 0.950 . S
C2654 C2653 1.397 . S
C2654 C2655 1.334 . S
C2655 H2632 0.950 . S
C2655 C2654 1.334 . S
C2655 C2656 1.287 . S
C2656 C2655 1.287 . S
C2656 C2657 1.524 . S
C2656 H2675 0.913 . S
C2657 H2633 0.950 . S
C2657 C2656 1.524 . S
C2657 C2658 1.415 . S
C2658 H2634 0.950 . S
C2658 C2653 1.363 . S
C2658 C2657 1.415 . S
C2659 H2635 0.951 . S
C2659 C2660 1.366 . S
C2659 C2661 1.388 . S
C2660 C2659 1.366 . S
C2660 C2664 1.385 . S
C2661 H2636 0.951 . S
C2661 C2659 1.388 . S
C2661 C2662 1.366 . S
C2662 C2661 1.366 . S
C2662 C2663 1.414 . S
C2662 C2665 1.499 . S
C2663 H2637 0.950 . S
C2663 C2662 1.414 . S
C2663 C2664 1.374 . S
C2664 H2638 0.950 . S
C2664 C2660 1.385 . S
C2664 C2663 1.374 . S
C2665 C2662 1.499 . S
C2665 C2666 1.373 . S
C2665 C2667 1.389 . S
C2666 H2639 0.950 . S
C2666 C2652 1.377 . S
C2666 C2665 1.373 . S
C2667 C2651 1.377 . S
C2667 C2665 1.389 . S
C2667 C2668 1.524 . S
C2668 C2667 1.524 . S
C2668 C2669 1.397 . S
C2668 C2673 1.363 . S
C2669 H2640 0.950 . S
C2669 C2668 1.397 . S
C2669 C2670 1.334 . S
C2670 H2641 0.950 . S
C2670 C2669 1.334 . S
C2670 C2671 1.287 . S
C2671 C2670 1.287 . S
C2671 C2672 1.524 . S
C2671 H2674 0.999 . S
C2672 H2642 0.950 . S
C2672 C2671 1.524 . S
C2672 C2673 1.415 . S
C2673 H2643 0.950 . S
C2673 C2668 1.363 . S
C2673 C2672 1.415 . S
H2674 C2671 0.999 . S
H2675 C2656 0.913 . S
H2676 C2694 0.951 . S
H2677 C2696 0.951 . S
H2678 C2698 0.950 . S
H2679 C2699 0.950 . S
H2680 C2701 0.950 . S
H2681 C2704 0.950 . S
H2682 C2705 0.950 . S
H2683 C2707 0.950 . S
H2684 C2708 0.950 . S
H2685 C2709 0.951 . S
H2686 C2711 0.951 . S
H2687 C2713 0.950 . S
H2688 C2714 0.950 . S
H2689 C2716 0.950 . S
H2690 C2719 0.950 . S
H2691 C2720 0.950 . S
H2692 C2722 0.950 . S
H2693 C2723 0.930 1_545 S
C2694 H2676 0.951 . S
C2694 C2695 1.366 . S
C2694 C2696 1.388 . S
C2695 C2694 1.366 . S
C2695 C2699 1.385 . S
C2696 H2677 0.951 . S
C2696 C2694 1.388 . S
C2696 C2697 1.366 . S
C2697 C2696 1.366 . S
C2697 C2698 1.414 . S
C2697 C2700 1.499 . S
C2698 H2678 0.950 . S
C2698 C2697 1.414 . S
C2698 C2699 1.374 . S
C2699 H2679 0.950 . S
C2699 C2695 1.385 . S
C2699 C2698 1.374 . S
C2700 C2697 1.499 . S
C2700 C2701 1.373 . S
C2700 C2702 1.389 . S
C2701 H2680 0.950 . S
C2701 C2700 1.373 . S
C2701 C2717 1.377 . S
C2702 C2700 1.389 . S
C2702 C2703 1.524 . S
C2702 C2716 1.377 . S
C2703 C2702 1.524 . S
C2703 C2704 1.397 . S
C2703 C2708 1.363 . S
C2704 H2681 0.950 . S
C2704 C2703 1.397 . S
C2704 C2705 1.334 . S
C2705 H2682 0.950 . S
C2705 C2704 1.334 . S
C2705 C2706 1.287 . S
C2706 C2705 1.287 . S
C2706 C2707 1.524 . S
C2706 H2725 0.913 . S
C2707 H2683 0.950 . S
C2707 C2706 1.524 . S
C2707 C2708 1.415 . S
C2708 H2684 0.950 . S
C2708 C2703 1.363 . S
C2708 C2707 1.415 . S
C2709 H2685 0.951 . S
C2709 C2710 1.366 . S
C2709 C2711 1.388 . S
C2710 C2709 1.366 . S
C2710 C2714 1.385 . S
C2711 H2686 0.951 . S
C2711 C2709 1.388 . S
C2711 C2712 1.366 . S
C2712 C2711 1.366 . S
C2712 C2713 1.414 . S
C2712 C2715 1.499 . S
C2713 H2687 0.950 . S
C2713 C2712 1.414 . S
C2713 C2714 1.374 . S
C2714 H2688 0.950 . S
C2714 C2710 1.385 . S
C2714 C2713 1.374 . S
C2715 C2712 1.499 . S
C2715 C2716 1.373 . S
C2715 C2717 1.389 . S
C2716 H2689 0.950 . S
C2716 C2702 1.377 . S
C2716 C2715 1.373 . S
C2717 C2701 1.377 . S
C2717 C2715 1.389 . S
C2717 C2718 1.524 . S
C2718 C2717 1.524 . S
C2718 C2719 1.397 1_545 S
C2718 C2723 1.358 1_545 S
C2719 H2690 0.950 . S
C2719 C2718 1.397 1_565 S
C2719 C2720 1.334 . S
C2720 H2691 0.950 . S
C2720 C2719 1.334 . S
C2720 C2721 1.287 . S
C2721 C2720 1.287 . S
C2721 C2722 1.524 . S
C2721 H2724 0.999 . S
C2722 H2692 0.950 . S
C2722 C2721 1.524 . S
C2722 C2723 1.441 . S
C2723 H2693 0.930 1_565 S
C2723 C2718 1.358 1_565 S
C2723 C2722 1.441 . S
H2724 C2721 0.999 . S
H2725 C2706 0.913 . S
H2726 C2744 0.951 . S
H2727 C2746 0.951 . S
H2728 C2748 0.950 . S
H2729 C2749 0.950 . S
H2730 C2751 0.950 . S
H2731 C2754 0.950 . S
H2732 C2755 0.950 . S
H2733 C2757 0.950 . S
H2734 C2758 0.950 . S
H2735 C2759 0.951 . S
H2736 C2761 0.951 . S
H2737 C2763 0.950 . S
H2738 C2764 0.950 . S
H2739 C2766 0.950 . S
H2740 C2769 0.950 . S
H2741 C2770 0.950 . S
H2742 C2772 0.950 . S
H2743 C2773 0.950 . S
C2744 H2726 0.951 . S
C2744 C2745 1.366 . S
C2744 C2746 1.388 . S
C2745 C2744 1.366 . S
C2745 C2749 1.385 . S
C2746 H2727 0.951 . S
C2746 C2744 1.388 . S
C2746 C2747 1.366 . S
C2747 C2746 1.366 . S
C2747 C2748 1.414 . S
C2747 C2750 1.499 . S
C2748 H2728 0.950 . S
C2748 C2747 1.414 . S
C2748 C2749 1.374 . S
C2749 H2729 0.950 . S
C2749 C2745 1.385 . S
C2749 C2748 1.374 . S
C2750 C2747 1.499 . S
C2750 C2751 1.373 . S
C2750 C2752 1.389 . S
C2751 H2730 0.950 . S
C2751 C2750 1.373 . S
C2751 C2767 1.377 . S
C2752 C2750 1.389 . S
C2752 C2753 1.524 . S
C2752 C2766 1.377 . S
C2753 C2752 1.524 . S
C2753 C2754 1.397 . S
C2753 C2758 1.363 . S
C2754 H2731 0.950 . S
C2754 C2753 1.397 . S
C2754 C2755 1.334 . S
C2755 H2732 0.950 . S
C2755 C2754 1.334 . S
C2755 C2756 1.287 . S
C2756 C2755 1.287 . S
C2756 C2757 1.524 . S
C2756 H2775 0.913 . S
C2757 H2733 0.950 . S
C2757 C2756 1.524 . S
C2757 C2758 1.415 . S
C2758 H2734 0.950 . S
C2758 C2753 1.363 . S
C2758 C2757 1.415 . S
C2759 H2735 0.951 . S
C2759 C2760 1.366 . S
C2759 C2761 1.388 . S
C2760 C2759 1.366 . S
C2760 C2764 1.385 . S
C2761 H2736 0.951 . S
C2761 C2759 1.388 . S
C2761 C2762 1.366 . S
C2762 C2761 1.366 . S
C2762 C2763 1.414 . S
C2762 C2765 1.499 . S
C2763 H2737 0.950 . S
C2763 C2762 1.414 . S
C2763 C2764 1.374 . S
C2764 H2738 0.950 . S
C2764 C2760 1.385 . S
C2764 C2763 1.374 . S
C2765 C2762 1.499 . S
C2765 C2766 1.373 . S
C2765 C2767 1.389 . S
C2766 H2739 0.950 . S
C2766 C2752 1.377 . S
C2766 C2765 1.373 . S
C2767 C2751 1.377 . S
C2767 C2765 1.389 . S
C2767 C2768 1.524 . S
C2768 C2767 1.524 . S
C2768 C2769 1.397 . S
C2768 C2773 1.363 . S
C2769 H2740 0.950 . S
C2769 C2768 1.397 . S
C2769 C2770 1.334 . S
C2770 H2741 0.950 . S
C2770 C2769 1.334 . S
C2770 C2771 1.287 . S
C2771 C2770 1.287 . S
C2771 C2772 1.524 . S
C2771 H2774 0.999 . S
C2772 H2742 0.950 . S
C2772 C2771 1.524 . S
C2772 C2773 1.415 . S
C2773 H2743 0.950 . S
C2773 C2768 1.363 . S
C2773 C2772 1.415 . S
H2774 C2771 0.999 . S
H2775 C2756 0.913 . S
H2776 C2794 0.951 . S
H2777 C2796 0.952 . S
H2778 C2798 0.950 . S
H2779 C2799 0.950 . S
H2780 C2801 0.950 . S
H2781 C2804 0.950 . S
H2782 C2805 0.950 . S
H2783 C2807 0.950 . S
H2784 C2808 0.950 . S
H2785 C2809 0.951 . S
H2786 C2811 0.951 . S
H2787 C2813 0.950 . S
H2788 C2814 0.950 . S
H2789 C2816 0.950 . S
H2790 C2819 0.950 . S
H2791 C2820 0.950 . S
H2792 C2822 0.950 . S
H2793 C2823 0.950 . S
C2794 H2776 0.951 . S
C2794 C2795 1.366 1_565 S
C2794 C2796 1.410 . S
C2795 C2794 1.366 1_545 S
C2795 C2799 1.385 . S
C2796 H2777 0.952 . S
C2796 C2794 1.410 . S
C2796 C2797 1.347 1_565 S
C2797 C2796 1.347 1_545 S
C2797 C2798 1.414 . S
C2797 C2800 1.499 . S
C2798 H2778 0.950 . S
C2798 C2797 1.414 . S
C2798 C2799 1.374 . S
C2799 H2779 0.950 . S
C2799 C2795 1.385 . S
C2799 C2798 1.374 . S
C2800 C2797 1.499 . S
C2800 C2801 1.373 . S
C2800 C2802 1.389 1_545 S
C2801 H2780 0.950 . S
C2801 C2800 1.373 . S
C2801 C2817 1.377 . S
C2802 C2800 1.389 1_565 S
C2802 C2803 1.524 . S
C2802 C2816 1.377 . S
C2803 C2802 1.524 . S
C2803 C2804 1.397 . S
C2803 C2808 1.363 . S
C2804 H2781 0.950 . S
C2804 C2803 1.397 . S
C2804 C2805 1.334 . S
C2805 H2782 0.950 . S
C2805 C2804 1.334 . S
C2805 C2806 1.287 . S
C2806 C2805 1.287 . S
C2806 C2807 1.524 . S
C2806 H2825 0.913 . S
C2807 H2783 0.950 . S
C2807 C2806 1.524 . S
C2807 C2808 1.415 . S
C2808 H2784 0.950 . S
C2808 C2803 1.363 . S
C2808 C2807 1.415 . S
C2809 H2785 0.951 . S
C2809 C2810 1.366 . S
C2809 C2811 1.388 . S
C2810 C2809 1.366 . S
C2810 C2814 1.385 . S
C2811 H2786 0.951 . S
C2811 C2809 1.388 . S
C2811 C2812 1.366 . S
C2812 C2811 1.366 . S
C2812 C2813 1.414 . S
C2812 C2815 1.499 . S
C2813 H2787 0.950 . S
C2813 C2812 1.414 . S
C2813 C2814 1.374 . S
C2814 H2788 0.950 . S
C2814 C2810 1.385 . S
C2814 C2813 1.374 . S
C2815 C2812 1.499 . S
C2815 C2816 1.373 1_545 S
C2815 C2817 1.389 . S
C2816 H2789 0.950 . S
C2816 C2802 1.377 . S
C2816 C2815 1.373 1_565 S
C2817 C2801 1.377 . S
C2817 C2815 1.389 . S
C2817 C2818 1.524 . S
C2818 C2817 1.524 . S
C2818 C2819 1.397 . S
C2818 C2823 1.363 . S
C2819 H2790 0.950 . S
C2819 C2818 1.397 . S
C2819 C2820 1.334 . S
C2820 H2791 0.950 . S
C2820 C2819 1.334 . S
C2820 C2821 1.287 . S
C2821 C2820 1.287 . S
C2821 C2822 1.524 . S
C2821 H2824 0.999 . S
C2822 H2792 0.950 . S
C2822 C2821 1.524 . S
C2822 C2823 1.415 . S
C2823 H2793 0.950 . S
C2823 C2818 1.363 . S
C2823 C2822 1.415 . S
H2824 C2821 0.999 . S
H2825 C2806 0.913 . S
H2826 C2844 0.951 . S
H2827 C2846 0.951 . S
H2828 C2848 0.950 . S
H2829 C2849 0.950 . S
H2830 C2851 0.950 . S
H2831 C2854 0.950 . S
H2832 C2855 0.950 . S
H2833 C2857 0.950 . S
H2834 C2858 0.950 . S
H2835 C2859 0.951 . S
H2836 C2861 0.951 . S
H2837 C2863 0.950 . S
H2838 C2864 0.950 . S
H2839 C2866 0.950 . S
H2840 C2869 0.950 . S
H2841 C2870 0.950 . S
H2842 C2872 0.950 . S
H2843 C2873 0.950 . S
C2844 H2826 0.951 . S
C2844 C2845 1.366 . S
C2844 C2846 1.388 . S
C2845 C2844 1.366 . S
C2845 C2849 1.385 . S
C2846 H2827 0.951 . S
C2846 C2844 1.388 . S
C2846 C2847 1.366 . S
C2847 C2846 1.366 . S
C2847 C2848 1.414 . S
C2847 C2850 1.499 . S
C2848 H2828 0.950 . S
C2848 C2847 1.414 . S
C2848 C2849 1.374 . S
C2849 H2829 0.950 . S
C2849 C2845 1.385 . S
C2849 C2848 1.374 . S
C2850 C2847 1.499 . S
C2850 C2851 1.373 . S
C2850 C2852 1.389 . S
C2851 H2830 0.950 . S
C2851 C2850 1.373 . S
C2851 C2867 1.377 . S
C2852 C2850 1.389 . S
C2852 C2853 1.524 . S
C2852 C2866 1.377 . S
C2853 C2852 1.524 . S
C2853 C2854 1.397 . S
C2853 C2858 1.363 . S
C2854 H2831 0.950 . S
C2854 C2853 1.397 . S
C2854 C2855 1.334 . S
C2855 H2832 0.950 . S
C2855 C2854 1.334 . S
C2855 C2856 1.287 . S
C2856 C2855 1.287 . S
C2856 C2857 1.524 . S
C2856 H2875 0.913 . S
C2857 H2833 0.950 . S
C2857 C2856 1.524 . S
C2857 C2858 1.415 . S
C2858 H2834 0.950 . S
C2858 C2853 1.363 . S
C2858 C2857 1.415 . S
C2859 H2835 0.951 . S
C2859 C2860 1.366 . S
C2859 C2861 1.388 . S
C2860 C2859 1.366 . S
C2860 C2864 1.385 . S
C2861 H2836 0.951 . S
C2861 C2859 1.388 . S
C2861 C2862 1.366 . S
C2862 C2861 1.366 . S
C2862 C2863 1.414 . S
C2862 C2865 1.499 . S
C2863 H2837 0.950 . S
C2863 C2862 1.414 . S
C2863 C2864 1.374 . S
C2864 H2838 0.950 . S
C2864 C2860 1.385 . S
C2864 C2863 1.374 . S
C2865 C2862 1.499 . S
C2865 C2866 1.373 . S
C2865 C2867 1.389 . S
C2866 H2839 0.950 . S
C2866 C2852 1.377 . S
C2866 C2865 1.373 . S
C2867 C2851 1.377 . S
C2867 C2865 1.389 . S
C2867 C2868 1.524 . S
C2868 C2867 1.524 . S
C2868 C2869 1.397 . S
C2868 C2873 1.363 . S
C2869 H2840 0.950 . S
C2869 C2868 1.397 . S
C2869 C2870 1.334 . S
C2870 H2841 0.950 . S
C2870 C2869 1.334 . S
C2870 C2871 1.287 . S
C2871 C2870 1.287 . S
C2871 C2872 1.524 . S
C2871 H2874 0.999 . S
C2872 H2842 0.950 . S
C2872 C2871 1.524 . S
C2872 C2873 1.415 . S
C2873 H2843 0.950 . S
C2873 C2868 1.363 . S
C2873 C2872 1.415 . S
H2874 C2871 0.999 . S
H2875 C2856 0.913 . S
H2876 C2894 0.951 . S
H2877 C2896 0.920 1_565 S
H2878 C2898 0.950 . S
H2879 C2899 0.950 . S
H2880 C2901 0.950 . S
H2881 C2904 0.950 . S
H2882 C2905 0.950 . S
H2883 C2907 0.950 . S
H2884 C2908 0.950 . S
H2885 C2909 0.951 . S
H2886 C2911 0.951 . S
H2887 C2913 0.969 . S
H2888 C2914 0.950 . S
H2889 C2916 0.950 . S
H2890 C2919 0.950 . S
H2891 C2920 0.950 . S
H2892 C2922 0.950 . S
H2893 C2923 0.950 . S
C2894 H2876 0.951 . S
C2894 C2895 1.366 . S
C2894 C2896 1.388 . S
C2895 C2894 1.366 . S
C2895 C2899 1.385 . S
C2896 H2877 0.920 1_545 S
C2896 C2894 1.388 . S
C2896 C2897 1.366 . S
C2897 C2896 1.366 . S
C2897 C2898 1.414 . S
C2897 C2900 1.499 . S
C2898 H2878 0.950 . S
C2898 C2897 1.414 . S
C2898 C2899 1.374 . S
C2899 H2879 0.950 . S
C2899 C2895 1.385 . S
C2899 C2898 1.374 . S
C2900 C2897 1.499 . S
C2900 C2901 1.373 . S
C2900 C2902 1.389 . S
C2901 H2880 0.950 . S
C2901 C2900 1.373 . S
C2901 C2917 1.377 . S
C2902 C2900 1.389 . S
C2902 C2903 1.524 . S
C2902 C2916 1.377 . S
C2903 C2902 1.524 . S
C2903 C2904 1.397 . S
C2903 C2908 1.363 1_545 S
C2904 H2881 0.950 . S
C2904 C2903 1.397 . S
C2904 C2905 1.334 . S
C2905 H2882 0.950 . S
C2905 C2904 1.334 . S
C2905 C2906 1.287 . S
C2906 C2905 1.287 . S
C2906 C2907 1.524 1_545 S
C2906 H2925 0.913 . S
C2907 H2883 0.950 . S
C2907 C2906 1.524 1_565 S
C2907 C2908 1.415 . S
C2908 H2884 0.950 . S
C2908 C2903 1.363 1_565 S
C2908 C2907 1.415 . S
C2909 H2885 0.951 . S
C2909 C2910 1.366 . S
C2909 C2911 1.388 . S
C2910 C2909 1.366 . S
C2910 C2914 1.385 1_545 S
C2911 H2886 0.951 . S
C2911 C2909 1.388 . S
C2911 C2912 1.366 . S
C2912 C2911 1.366 . S
C2912 C2913 1.394 1_545 S
C2912 C2915 1.499 . S
C2913 H2887 0.969 . S
C2913 C2912 1.394 1_565 S
C2913 C2914 1.376 . S
C2914 H2888 0.950 . S
C2914 C2910 1.385 1_565 S
C2914 C2913 1.376 . S
C2915 C2912 1.499 . S
C2915 C2916 1.373 . S
C2915 C2917 1.389 . S
C2916 H2889 0.950 . S
C2916 C2902 1.377 . S
C2916 C2915 1.373 . S
C2917 C2901 1.377 . S
C2917 C2915 1.389 . S
C2917 C2918 1.524 . S
C2918 C2917 1.524 . S
C2918 C2919 1.397 . S
C2918 C2923 1.363 . S
C2919 H2890 0.950 . S
C2919 C2918 1.397 . S
C2919 C2920 1.334 . S
C2920 H2891 0.950 . S
C2920 C2919 1.334 . S
C2920 C2921 1.287 . S
C2921 C2920 1.287 . S
C2921 C2922 1.524 . S
C2921 H2924 0.999 . S
C2922 H2892 0.950 . S
C2922 C2921 1.524 . S
C2922 C2923 1.415 . S
C2923 H2893 0.950 . S
C2923 C2918 1.363 . S
C2923 C2922 1.415 . S
H2924 C2921 0.999 . S
H2925 C2906 0.913 . S
H2926 C2944 0.951 . S
H2927 C2946 0.951 . S
H2928 C2948 0.950 . S
H2929 C2949 0.950 . S
H2930 C2951 0.950 . S
H2931 C2954 0.950 . S
H2932 C2955 0.950 . S
H2933 C2957 0.950 . S
H2934 C2958 0.950 . S
H2935 C2959 0.951 . S
H2936 C2961 0.951 . S
H2937 C2963 0.950 . S
H2938 C2964 0.950 . S
H2939 C2966 0.950 . S
H2940 C2969 0.950 . S
H2941 C2970 0.950 . S
H2942 C2972 0.950 . S
H2943 C2973 0.950 . S
C2944 H2926 0.951 . S
C2944 C2945 1.366 . S
C2944 C2946 1.388 . S
C2945 C2944 1.366 . S
C2945 C2949 1.385 . S
C2946 H2927 0.951 . S
C2946 C2944 1.388 . S
C2946 C2947 1.366 . S
C2947 C2946 1.366 . S
C2947 C2948 1.414 . S
C2947 C2950 1.499 . S
C2948 H2928 0.950 . S
C2948 C2947 1.414 . S
C2948 C2949 1.374 . S
C2949 H2929 0.950 . S
C2949 C2945 1.385 . S
C2949 C2948 1.374 . S
C2950 C2947 1.499 . S
C2950 C2951 1.373 . S
C2950 C2952 1.389 . S
C2951 H2930 0.950 . S
C2951 C2950 1.373 . S
C2951 C2967 1.377 . S
C2952 C2950 1.389 . S
C2952 C2953 1.524 . S
C2952 C2966 1.377 . S
C2953 C2952 1.524 . S
C2953 C2954 1.397 . S
C2953 C2958 1.363 . S
C2954 H2931 0.950 . S
C2954 C2953 1.397 . S
C2954 C2955 1.334 . S
C2955 H2932 0.950 . S
C2955 C2954 1.334 . S
C2955 C2956 1.287 . S
C2956 C2955 1.287 . S
C2956 C2957 1.524 . S
C2956 H2975 0.913 . S
C2957 H2933 0.950 . S
C2957 C2956 1.524 . S
C2957 C2958 1.415 . S
C2958 H2934 0.950 . S
C2958 C2953 1.363 . S
C2958 C2957 1.415 . S
C2959 H2935 0.951 . S
C2959 C2960 1.366 . S
C2959 C2961 1.388 . S
C2960 C2959 1.366 . S
C2960 C2964 1.385 . S
C2961 H2936 0.951 . S
C2961 C2959 1.388 . S
C2961 C2962 1.366 . S
C2962 C2961 1.366 . S
C2962 C2963 1.414 . S
C2962 C2965 1.499 . S
C2963 H2937 0.950 . S
C2963 C2962 1.414 . S
C2963 C2964 1.374 . S
C2964 H2938 0.950 . S
C2964 C2960 1.385 . S
C2964 C2963 1.374 . S
C2965 C2962 1.499 . S
C2965 C2966 1.373 . S
C2965 C2967 1.389 . S
C2966 H2939 0.950 . S
C2966 C2952 1.377 . S
C2966 C2965 1.373 . S
C2967 C2951 1.377 . S
C2967 C2965 1.389 . S
C2967 C2968 1.524 . S
C2968 C2967 1.524 . S
C2968 C2969 1.397 . S
C2968 C2973 1.363 . S
C2969 H2940 0.950 . S
C2969 C2968 1.397 . S
C2969 C2970 1.334 . S
C2970 H2941 0.950 . S
C2970 C2969 1.334 . S
C2970 C2971 1.287 . S
C2971 C2970 1.287 . S
C2971 C2972 1.524 . S
C2971 H2974 0.999 . S
C2972 H2942 0.950 . S
C2972 C2971 1.524 . S
C2972 C2973 1.415 . S
C2973 H2943 0.950 . S
C2973 C2968 1.363 . S
C2973 C2972 1.415 . S
H2974 C2971 0.999 . S
H2975 C2956 0.913 . S
H2976 C2994 0.951 . S
H2977 C2996 0.951 . S
H2978 C2998 0.950 . S
H2979 C2999 0.950 . S
H2980 C3001 0.950 . S
H2981 C3004 0.950 . S
H2982 C3005 0.950 . S
H2983 C3007 0.950 . S
H2984 C3008 0.950 . S
H2985 C3009 0.951 . S
H2986 C3011 0.951 . S
H2987 C3013 0.950 . S
H2988 C3014 0.950 . S
H2989 C3016 0.950 . S
H2990 C3019 0.950 . S
H2991 C3020 0.950 . S
H2992 C3022 0.950 . S
H2993 C3023 0.950 . S
C2994 H2976 0.951 . S
C2994 C2995 1.366 . S
C2994 C2996 1.388 . S
C2995 C2994 1.366 . S
C2995 C2999 1.385 . S
C2996 H2977 0.951 . S
C2996 C2994 1.388 . S
C2996 C2997 1.366 . S
C2997 C2996 1.366 . S
C2997 C2998 1.414 . S
C2997 C3000 1.499 . S
C2998 H2978 0.950 . S
C2998 C2997 1.414 . S
C2998 C2999 1.374 . S
C2999 H2979 0.950 . S
C2999 C2995 1.385 . S
C2999 C2998 1.374 . S
C3000 C2997 1.499 . S
C3000 C3001 1.373 . S
C3000 C3002 1.389 . S
C3001 H2980 0.950 . S
C3001 C3000 1.373 . S
C3001 C3017 1.377 . S
C3002 C3000 1.389 . S
C3002 C3003 1.524 . S
C3002 C3016 1.377 . S
C3003 C3002 1.524 . S
C3003 C3004 1.397 . S
C3003 C3008 1.363 . S
C3004 H2981 0.950 . S
C3004 C3003 1.397 . S
C3004 C3005 1.334 . S
C3005 H2982 0.950 . S
C3005 C3004 1.334 . S
C3005 C3006 1.287 . S
C3006 C3005 1.287 . S
C3006 C3007 1.524 . S
C3006 H3025 0.913 . S
C3007 H2983 0.950 . S
C3007 C3006 1.524 . S
C3007 C3008 1.415 . S
C3008 H2984 0.950 . S
C3008 C3003 1.363 . S
C3008 C3007 1.415 . S
C3009 H2985 0.951 . S
C3009 C3010 1.366 . S
C3009 C3011 1.388 . S
C3010 C3009 1.366 . S
C3010 C3014 1.385 . S
C3011 H2986 0.951 . S
C3011 C3009 1.388 . S
C3011 C3012 1.366 . S
C3012 C3011 1.366 . S
C3012 C3013 1.414 . S
C3012 C3015 1.499 . S
C3013 H2987 0.950 . S
C3013 C3012 1.414 . S
C3013 C3014 1.374 . S
C3014 H2988 0.950 . S
C3014 C3010 1.385 . S
C3014 C3013 1.374 . S
C3015 C3012 1.499 . S
C3015 C3016 1.373 . S
C3015 C3017 1.389 . S
C3016 H2989 0.950 . S
C3016 C3002 1.377 . S
C3016 C3015 1.373 . S
C3017 C3001 1.377 . S
C3017 C3015 1.389 . S
C3017 C3018 1.524 . S
C3018 C3017 1.524 . S
C3018 C3019 1.397 1_554 S
C3018 C3023 1.363 . S
C3019 H2990 0.950 . S
C3019 C3018 1.397 1_556 S
C3019 C3020 1.334 . S
C3020 H2991 0.950 . S
C3020 C3019 1.334 . S
C3020 C3021 1.287 . S
C3021 C3020 1.287 . S
C3021 C3022 1.524 . S
C3021 H3024 0.999 . S
C3022 H2992 0.950 . S
C3022 C3021 1.524 . S
C3022 C3023 1.415 1_556 S
C3023 H2993 0.950 . S
C3023 C3018 1.363 . S
C3023 C3022 1.415 1_554 S
H3024 C3021 0.999 . S
H3025 C3006 0.913 . S
H3026 C3044 0.951 . S
H3027 C3046 0.951 . S
H3028 C3048 0.950 . S
H3029 C3049 0.950 . S
H3030 C3051 0.950 . S
H3031 C3054 0.950 . S
H3032 C3055 0.950 . S
H3033 C3057 0.950 . S
H3034 C3058 0.950 . S
H3035 C3059 0.951 . S
H3036 C3061 0.951 . S
H3037 C3063 0.950 . S
H3038 C3064 0.950 . S
H3039 C3066 0.950 . S
H3040 C3069 0.950 . S
H3041 C3070 0.950 . S
H3042 C3072 0.950 . S
H3043 C3073 0.950 . S
C3044 H3026 0.951 . S
C3044 C3045 1.366 . S
C3044 C3046 1.388 . S
C3045 C3044 1.366 . S
C3045 C3049 1.385 . S
C3046 H3027 0.951 . S
C3046 C3044 1.388 . S
C3046 C3047 1.366 . S
C3047 C3046 1.366 . S
C3047 C3048 1.414 . S
C3047 C3050 1.499 . S
C3048 H3028 0.950 . S
C3048 C3047 1.414 . S
C3048 C3049 1.374 . S
C3049 H3029 0.950 . S
C3049 C3045 1.385 . S
C3049 C3048 1.374 . S
C3050 C3047 1.499 . S
C3050 C3051 1.373 . S
C3050 C3052 1.389 . S
C3051 H3030 0.950 . S
C3051 C3050 1.373 . S
C3051 C3067 1.377 . S
C3052 C3050 1.389 . S
C3052 C3053 1.524 . S
C3052 C3066 1.377 . S
C3053 C3052 1.524 . S
C3053 C3054 1.397 . S
C3053 C3058 1.363 . S
C3054 H3031 0.950 . S
C3054 C3053 1.397 . S
C3054 C3055 1.334 1_554 S
C3055 H3032 0.950 . S
C3055 C3054 1.334 1_556 S
C3055 C3056 1.287 . S
C3056 C3055 1.287 . S
C3056 C3057 1.524 . S
C3056 H3075 0.913 . S
C3057 H3033 0.950 . S
C3057 C3056 1.524 . S
C3057 C3058 1.415 1_556 S
C3058 H3034 0.950 . S
C3058 C3053 1.363 . S
C3058 C3057 1.415 1_554 S
C3059 H3035 0.951 . S
C3059 C3060 1.366 . S
C3059 C3061 1.388 . S
C3060 C3059 1.366 . S
C3060 C3064 1.385 . S
C3061 H3036 0.951 . S
C3061 C3059 1.388 . S
C3061 C3062 1.366 . S
C3062 C3061 1.366 . S
C3062 C3063 1.414 . S
C3062 C3065 1.499 . S
C3063 H3037 0.950 . S
C3063 C3062 1.414 . S
C3063 C3064 1.374 . S
C3064 H3038 0.950 . S
C3064 C3060 1.385 . S
C3064 C3063 1.374 . S
C3065 C3062 1.499 . S
C3065 C3066 1.373 . S
C3065 C3067 1.389 . S
C3066 H3039 0.950 . S
C3066 C3052 1.377 . S
C3066 C3065 1.373 . S
C3067 C3051 1.377 . S
C3067 C3065 1.389 . S
C3067 C3068 1.524 . S
C3068 C3067 1.524 . S
C3068 C3069 1.397 . S
C3068 C3073 1.363 . S
C3069 H3040 0.950 . S
C3069 C3068 1.397 . S
C3069 C3070 1.334 . S
C3070 H3041 0.950 . S
C3070 C3069 1.334 . S
C3070 C3071 1.287 . S
C3071 C3070 1.287 . S
C3071 C3072 1.524 . S
C3071 H3074 0.999 . S
C3072 H3042 0.950 . S
C3072 C3071 1.524 . S
C3072 C3073 1.415 . S
C3073 H3043 0.950 . S
C3073 C3068 1.363 . S
C3073 C3072 1.415 . S
H3074 C3071 0.999 . S
H3075 C3056 0.913 . S
H3076 C3094 0.951 . S
H3077 C3096 0.951 . S
H3078 C3098 0.950 . S
H3079 C3099 0.950 . S
H3080 C3101 0.950 . S
H3081 C3104 0.950 . S
H3082 C3105 0.950 . S
H3083 C3107 0.950 . S
H3084 C3108 0.950 . S
H3085 C3109 0.951 . S
H3086 C3111 0.951 . S
H3087 C3113 0.950 . S
H3088 C3114 0.950 . S
H3089 C3116 0.950 . S
H3090 C3119 0.950 . S
H3091 C3120 0.950 . S
H3092 C3122 0.950 . S
H3093 C3123 0.950 . S
C3094 H3076 0.951 . S
C3094 C3095 1.366 . S
C3094 C3096 1.388 . S
C3095 C3094 1.366 . S
C3095 C3099 1.385 . S
C3096 H3077 0.951 . S
C3096 C3094 1.388 . S
C3096 C3097 1.366 . S
C3097 C3096 1.366 . S
C3097 C3098 1.414 . S
C3097 C3100 1.499 . S
C3098 H3078 0.950 . S
C3098 C3097 1.414 . S
C3098 C3099 1.374 . S
C3099 H3079 0.950 . S
C3099 C3095 1.385 . S
C3099 C3098 1.374 . S
C3100 C3097 1.499 . S
C3100 C3101 1.373 . S
C3100 C3102 1.389 . S
C3101 H3080 0.950 . S
C3101 C3100 1.373 . S
C3101 C3117 1.377 . S
C3102 C3100 1.389 . S
C3102 C3103 1.524 . S
C3102 C3116 1.377 . S
C3103 C3102 1.524 . S
C3103 C3104 1.397 . S
C3103 C3108 1.363 . S
C3104 H3081 0.950 . S
C3104 C3103 1.397 . S
C3104 C3105 1.334 . S
C3105 H3082 0.950 . S
C3105 C3104 1.334 . S
C3105 C3106 1.287 . S
C3106 C3105 1.287 . S
C3106 C3107 1.524 . S
C3106 H3125 0.913 . S
C3107 H3083 0.950 . S
C3107 C3106 1.524 . S
C3107 C3108 1.415 . S
C3108 H3084 0.950 . S
C3108 C3103 1.363 . S
C3108 C3107 1.415 . S
C3109 H3085 0.951 . S
C3109 C3110 1.366 . S
C3109 C3111 1.388 . S
C3110 C3109 1.366 . S
C3110 C3114 1.385 . S
C3111 H3086 0.951 . S
C3111 C3109 1.388 . S
C3111 C3112 1.366 . S
C3112 C3111 1.366 . S
C3112 C3113 1.414 . S
C3112 C3115 1.499 . S
C3113 H3087 0.950 . S
C3113 C3112 1.414 . S
C3113 C3114 1.374 . S
C3114 H3088 0.950 . S
C3114 C3110 1.385 . S
C3114 C3113 1.374 . S
C3115 C3112 1.499 . S
C3115 C3116 1.373 . S
C3115 C3117 1.389 . S
C3116 H3089 0.950 . S
C3116 C3102 1.377 . S
C3116 C3115 1.373 . S
C3117 C3101 1.377 . S
C3117 C3115 1.389 . S
C3117 C3118 1.524 . S
C3118 C3117 1.524 . S
C3118 C3119 1.397 . S
C3118 C3123 1.363 . S
C3119 H3090 0.950 . S
C3119 C3118 1.397 . S
C3119 C3120 1.334 . S
C3120 H3091 0.950 . S
C3120 C3119 1.334 . S
C3120 C3121 1.287 . S
C3121 C3120 1.287 . S
C3121 C3122 1.524 . S
C3121 H3124 0.999 . S
C3122 H3092 0.950 . S
C3122 C3121 1.524 . S
C3122 C3123 1.415 . S
C3123 H3093 0.950 . S
C3123 C3118 1.363 . S
C3123 C3122 1.415 . S
H3124 C3121 0.999 . S
H3125 C3106 0.913 . S
H3126 C3144 0.951 . S
H3127 C3146 0.951 . S
H3128 C3148 0.950 . S
H3129 C3149 0.950 . S
H3130 C3151 0.950 . S
H3131 C3154 0.950 . S
H3132 C3155 0.950 . S
H3133 C3157 0.950 . S
H3134 C3158 0.950 . S
H3135 C3159 0.951 . S
H3136 C3161 0.951 . S
H3137 C3163 0.950 . S
H3138 C3164 0.950 . S
H3139 C3166 0.950 . S
H3140 C3169 0.950 . S
H3141 C3170 0.950 . S
H3142 C3172 0.950 . S
H3143 C3173 0.950 . S
C3144 H3126 0.951 . S
C3144 C3145 1.366 . S
C3144 C3146 1.388 . S
C3145 C3144 1.366 . S
C3145 C3149 1.385 . S
C3146 H3127 0.951 . S
C3146 C3144 1.388 . S
C3146 C3147 1.366 . S
C3147 C3146 1.366 . S
C3147 C3148 1.414 . S
C3147 C3150 1.499 . S
C3148 H3128 0.950 . S
C3148 C3147 1.414 . S
C3148 C3149 1.374 . S
C3149 H3129 0.950 . S
C3149 C3145 1.385 . S
C3149 C3148 1.374 . S
C3150 C3147 1.499 . S
C3150 C3151 1.373 . S
C3150 C3152 1.389 . S
C3151 H3130 0.950 . S
C3151 C3150 1.373 . S
C3151 C3167 1.377 . S
C3152 C3150 1.389 . S
C3152 C3153 1.524 . S
C3152 C3166 1.377 . S
C3153 C3152 1.524 . S
C3153 C3154 1.397 . S
C3153 C3158 1.363 . S
C3154 H3131 0.950 . S
C3154 C3153 1.397 . S
C3154 C3155 1.334 . S
C3155 H3132 0.950 . S
C3155 C3154 1.334 . S
C3155 C3156 1.287 . S
C3156 C3155 1.287 . S
C3156 C3157 1.524 . S
C3156 H3175 0.913 . S
C3157 H3133 0.950 . S
C3157 C3156 1.524 . S
C3157 C3158 1.415 . S
C3158 H3134 0.950 . S
C3158 C3153 1.363 . S
C3158 C3157 1.415 . S
C3159 H3135 0.951 . S
C3159 C3160 1.366 . S
C3159 C3161 1.388 . S
C3160 C3159 1.366 . S
C3160 C3164 1.385 . S
C3161 H3136 0.951 . S
C3161 C3159 1.388 . S
C3161 C3162 1.366 . S
C3162 C3161 1.366 . S
C3162 C3163 1.414 . S
C3162 C3165 1.499 . S
C3163 H3137 0.950 . S
C3163 C3162 1.414 . S
C3163 C3164 1.374 . S
C3164 H3138 0.950 . S
C3164 C3160 1.385 . S
C3164 C3163 1.374 . S
C3165 C3162 1.499 . S
C3165 C3166 1.373 . S
C3165 C3167 1.389 . S
C3166 H3139 0.950 . S
C3166 C3152 1.377 . S
C3166 C3165 1.373 . S
C3167 C3151 1.377 . S
C3167 C3165 1.389 . S
C3167 C3168 1.524 . S
C3168 C3167 1.524 . S
C3168 C3169 1.397 . S
C3168 C3173 1.363 . S
C3169 H3140 0.950 . S
C3169 C3168 1.397 . S
C3169 C3170 1.334 . S
C3170 H3141 0.950 . S
C3170 C3169 1.334 . S
C3170 C3171 1.287 . S
C3171 C3170 1.287 . S
C3171 C3172 1.524 . S
C3171 H3174 0.999 . S
C3172 H3142 0.950 . S
C3172 C3171 1.524 . S
C3172 C3173 1.415 . S
C3173 H3143 0.950 . S
C3173 C3168 1.363 . S
C3173 C3172 1.415 . S
H3174 C3171 0.999 . S
H3175 C3156 0.913 . S
H3176 C3194 0.951 . S
H3177 C3196 0.951 . S
H3178 C3198 0.950 . S
H3179 C3199 0.950 . S
H3180 C3201 0.950 . S
H3181 C3204 0.950 . S
H3182 C3205 0.950 . S
H3183 C3207 0.950 . S
H3184 C3208 0.950 . S
H3185 C3209 0.951 . S
H3186 C3211 0.951 . S
H3187 C3213 0.950 . S
H3188 C3214 0.950 . S
H3189 C3216 0.950 . S
H3190 C3219 0.950 . S
H3191 C3220 0.950 . S
H3192 C3222 0.950 . S
H3193 C3223 0.950 . S
C3194 H3176 0.951 . S
C3194 C3195 1.366 . S
C3194 C3196 1.388 . S
C3195 C3194 1.366 . S
C3195 C3199 1.385 . S
C3196 H3177 0.951 . S
C3196 C3194 1.388 . S
C3196 C3197 1.366 . S
C3197 C3196 1.366 . S
C3197 C3198 1.414 . S
C3197 C3200 1.499 . S
C3198 H3178 0.950 . S
C3198 C3197 1.414 . S
C3198 C3199 1.374 . S
C3199 H3179 0.950 . S
C3199 C3195 1.385 . S
C3199 C3198 1.374 . S
C3200 C3197 1.499 . S
C3200 C3201 1.373 . S
C3200 C3202 1.389 . S
C3201 H3180 0.950 . S
C3201 C3200 1.373 . S
C3201 C3217 1.377 . S
C3202 C3200 1.389 . S
C3202 C3203 1.524 . S
C3202 C3216 1.377 . S
C3203 C3202 1.524 . S
C3203 C3204 1.397 . S
C3203 C3208 1.363 . S
C3204 H3181 0.950 . S
C3204 C3203 1.397 . S
C3204 C3205 1.334 . S
C3205 H3182 0.950 . S
C3205 C3204 1.334 . S
C3205 C3206 1.287 . S
C3206 C3205 1.287 . S
C3206 C3207 1.524 . S
C3206 H3225 0.913 . S
C3207 H3183 0.950 . S
C3207 C3206 1.524 . S
C3207 C3208 1.415 . S
C3208 H3184 0.950 . S
C3208 C3203 1.363 . S
C3208 C3207 1.415 . S
C3209 H3185 0.951 . S
C3209 C3210 1.366 . S
C3209 C3211 1.388 . S
C3210 C3209 1.366 . S
C3210 C3214 1.385 . S
C3211 H3186 0.951 . S
C3211 C3209 1.388 . S
C3211 C3212 1.366 . S
C3212 C3211 1.366 . S
C3212 C3213 1.414 . S
C3212 C3215 1.499 . S
C3213 H3187 0.950 . S
C3213 C3212 1.414 . S
C3213 C3214 1.374 . S
C3214 H3188 0.950 . S
C3214 C3210 1.385 . S
C3214 C3213 1.374 . S
C3215 C3212 1.499 . S
C3215 C3216 1.373 . S
C3215 C3217 1.389 . S
C3216 H3189 0.950 . S
C3216 C3202 1.377 . S
C3216 C3215 1.373 . S
C3217 C3201 1.377 . S
C3217 C3215 1.389 . S
C3217 C3218 1.524 . S
C3218 C3217 1.524 . S
C3218 C3219 1.397 . S
C3218 C3223 1.363 . S
C3219 H3190 0.950 . S
C3219 C3218 1.397 . S
C3219 C3220 1.334 . S
C3220 H3191 0.950 . S
C3220 C3219 1.334 . S
C3220 C3221 1.287 . S
C3221 C3220 1.287 . S
C3221 C3222 1.524 . S
C3221 H3224 0.999 . S
C3222 H3192 0.950 . S
C3222 C3221 1.524 . S
C3222 C3223 1.415 . S
C3223 H3193 0.950 . S
C3223 C3218 1.363 . S
C3223 C3222 1.415 . S
H3224 C3221 0.999 . S
H3225 C3206 0.913 . S
H3226 C3244 0.951 . S
H3227 C3246 0.951 . S
H3228 C3248 0.950 . S
H3229 C3249 0.950 . S
H3230 C3251 0.950 . S
H3231 C3254 0.950 . S
H3232 C3255 0.950 . S
H3233 C3257 0.950 . S
H3234 C3258 0.950 . S
H3235 C3259 0.951 . S
H3236 C3261 0.951 . S
H3237 C3263 0.950 . S
H3238 C3264 0.950 . S
H3239 C3266 0.950 . S
H3240 C3269 0.950 . S
H3241 C3270 0.950 . S
H3242 C3272 0.950 . S
H3243 C3273 0.950 . S
C3244 H3226 0.951 . S
C3244 C3245 1.366 . S
C3244 C3246 1.388 . S
C3245 C3244 1.366 . S
C3245 C3249 1.385 . S
C3246 H3227 0.951 . S
C3246 C3244 1.388 . S
C3246 C3247 1.366 . S
C3247 C3246 1.366 . S
C3247 C3248 1.414 . S
C3247 C3250 1.499 . S
C3248 H3228 0.950 . S
C3248 C3247 1.414 . S
C3248 C3249 1.374 . S
C3249 H3229 0.950 . S
C3249 C3245 1.385 . S
C3249 C3248 1.374 . S
C3250 C3247 1.499 . S
C3250 C3251 1.373 . S
C3250 C3252 1.389 . S
C3251 H3230 0.950 . S
C3251 C3250 1.373 . S
C3251 C3267 1.377 . S
C3252 C3250 1.389 . S
C3252 C3253 1.524 . S
C3252 C3266 1.377 . S
C3253 C3252 1.524 . S
C3253 C3254 1.397 . S
C3253 C3258 1.363 . S
C3254 H3231 0.950 . S
C3254 C3253 1.397 . S
C3254 C3255 1.334 . S
C3255 H3232 0.950 . S
C3255 C3254 1.334 . S
C3255 C3256 1.287 . S
C3256 C3255 1.287 . S
C3256 C3257 1.524 . S
C3256 H3275 0.913 . S
C3257 H3233 0.950 . S
C3257 C3256 1.524 . S
C3257 C3258 1.415 . S
C3258 H3234 0.950 . S
C3258 C3253 1.363 . S
C3258 C3257 1.415 . S
C3259 H3235 0.951 . S
C3259 C3260 1.366 . S
C3259 C3261 1.388 . S
C3260 C3259 1.366 . S
C3260 C3264 1.385 . S
C3261 H3236 0.951 . S
C3261 C3259 1.388 . S
C3261 C3262 1.366 . S
C3262 C3261 1.366 . S
C3262 C3263 1.414 . S
C3262 C3265 1.499 . S
C3263 H3237 0.950 . S
C3263 C3262 1.414 . S
C3263 C3264 1.374 . S
C3264 H3238 0.950 . S
C3264 C3260 1.385 . S
C3264 C3263 1.374 . S
C3265 C3262 1.499 . S
C3265 C3266 1.373 . S
C3265 C3267 1.389 . S
C3266 H3239 0.950 . S
C3266 C3252 1.377 . S
C3266 C3265 1.373 . S
C3267 C3251 1.377 . S
C3267 C3265 1.389 . S
C3267 C3268 1.524 . S
C3268 C3267 1.524 . S
C3268 C3269 1.397 . S
C3268 C3273 1.363 . S
C3269 H3240 0.950 . S
C3269 C3268 1.397 . S
C3269 C3270 1.334 . S
C3270 H3241 0.950 . S
C3270 C3269 1.334 . S
C3270 C3271 1.287 . S
C3271 C3270 1.287 . S
C3271 C3272 1.524 . S
C3271 H3274 0.999 . S
C3272 H3242 0.950 . S
C3272 C3271 1.524 . S
C3272 C3273 1.415 . S
C3273 H3243 0.950 . S
C3273 C3268 1.363 . S
C3273 C3272 1.415 . S
H3274 C3271 0.999 . S
H3275 C3256 0.913 . S
H3276 C3294 0.951 . S
H3277 C3296 0.951 . S
H3278 C3298 0.950 . S
H3279 C3299 0.950 . S
H3280 C3301 0.950 . S
H3281 C3304 0.950 . S
H3282 C3305 0.950 . S
H3283 C3307 0.950 . S
H3284 C3308 0.950 . S
H3285 C3309 0.951 . S
H3286 C3311 0.951 . S
H3287 C3313 0.950 . S
H3288 C3314 0.950 . S
H3289 C3316 0.950 . S
H3290 C3319 0.950 . S
H3291 C3320 0.950 . S
H3292 C3322 0.950 . S
H3293 C3323 0.950 . S
C3294 H3276 0.951 . S
C3294 C3295 1.366 . S
C3294 C3296 1.388 . S
C3295 C3294 1.366 . S
C3295 C3299 1.385 . S
C3296 H3277 0.951 . S
C3296 C3294 1.388 . S
C3296 C3297 1.366 . S
C3297 C3296 1.366 . S
C3297 C3298 1.414 . S
C3297 C3300 1.499 . S
C3298 H3278 0.950 . S
C3298 C3297 1.414 . S
C3298 C3299 1.374 . S
C3299 H3279 0.950 . S
C3299 C3295 1.385 . S
C3299 C3298 1.374 . S
C3300 C3297 1.499 . S
C3300 C3301 1.373 . S
C3300 C3302 1.389 . S
C3301 H3280 0.950 . S
C3301 C3300 1.373 . S
C3301 C3317 1.377 . S
C3302 C3300 1.389 . S
C3302 C3303 1.524 . S
C3302 C3316 1.377 . S
C3303 C3302 1.524 . S
C3303 C3304 1.397 . S
C3303 C3308 1.363 . S
C3304 H3281 0.950 . S
C3304 C3303 1.397 . S
C3304 C3305 1.334 . S
C3305 H3282 0.950 . S
C3305 C3304 1.334 . S
C3305 C3306 1.287 . S
C3306 C3305 1.287 . S
C3306 C3307 1.524 . S
C3306 H3325 0.913 . S
C3307 H3283 0.950 . S
C3307 C3306 1.524 . S
C3307 C3308 1.415 . S
C3308 H3284 0.950 . S
C3308 C3303 1.363 . S
C3308 C3307 1.415 . S
C3309 H3285 0.951 . S
C3309 C3310 1.366 . S
C3309 C3311 1.388 . S
C3310 C3309 1.366 . S
C3310 C3314 1.385 . S
C3311 H3286 0.951 . S
C3311 C3309 1.388 . S
C3311 C3312 1.366 . S
C3312 C3311 1.366 . S
C3312 C3313 1.414 . S
C3312 C3315 1.499 . S
C3313 H3287 0.950 . S
C3313 C3312 1.414 . S
C3313 C3314 1.374 . S
C3314 H3288 0.950 . S
C3314 C3310 1.385 . S
C3314 C3313 1.374 . S
C3315 C3312 1.499 . S
C3315 C3316 1.373 . S
C3315 C3317 1.389 . S
C3316 H3289 0.950 . S
C3316 C3302 1.377 . S
C3316 C3315 1.373 . S
C3317 C3301 1.377 . S
C3317 C3315 1.389 . S
C3317 C3318 1.524 . S
C3318 C3317 1.524 . S
C3318 C3319 1.397 . S
C3318 C3323 1.363 . S
C3319 H3290 0.950 . S
C3319 C3318 1.397 . S
C3319 C3320 1.334 . S
C3320 H3291 0.950 . S
C3320 C3319 1.334 . S
C3320 C3321 1.287 . S
C3321 C3320 1.287 . S
C3321 C3322 1.524 . S
C3321 H3324 0.999 . S
C3322 H3292 0.950 . S
C3322 C3321 1.524 . S
C3322 C3323 1.415 . S
C3323 H3293 0.950 . S
C3323 C3318 1.363 . S
C3323 C3322 1.415 . S
H3324 C3321 0.999 . S
H3325 C3306 0.913 . S
H3326 C3344 0.951 . S
H3327 C3346 0.951 . S
H3328 C3348 0.950 . S
H3329 C3349 0.950 . S
H3330 C3351 0.950 . S
H3331 C3354 0.950 . S
H3332 C3355 0.950 . S
H3333 C3357 0.950 . S
H3334 C3358 0.950 . S
H3335 C3359 0.951 . S
H3336 C3361 0.951 . S
H3337 C3363 0.950 . S
H3338 C3364 0.950 . S
H3339 C3366 0.950 . S
H3340 C3369 0.950 . S
H3341 C3370 0.950 . S
H3342 C3372 0.950 . S
H3343 C3373 0.950 . S
C3344 H3326 0.951 . S
C3344 C3345 1.366 . S
C3344 C3346 1.388 . S
C3345 C3344 1.366 . S
C3345 C3349 1.385 . S
C3346 H3327 0.951 . S
C3346 C3344 1.388 . S
C3346 C3347 1.366 . S
C3347 C3346 1.366 . S
C3347 C3348 1.414 . S
C3347 C3350 1.499 . S
C3348 H3328 0.950 . S
C3348 C3347 1.414 . S
C3348 C3349 1.374 . S
C3349 H3329 0.950 . S
C3349 C3345 1.385 . S
C3349 C3348 1.374 . S
C3350 C3347 1.499 . S
C3350 C3351 1.373 . S
C3350 C3352 1.389 . S
C3351 H3330 0.950 . S
C3351 C3350 1.373 . S
C3351 C3367 1.377 . S
C3352 C3350 1.389 . S
C3352 C3353 1.524 . S
C3352 C3366 1.377 . S
C3353 C3352 1.524 . S
C3353 C3354 1.397 . S
C3353 C3358 1.363 . S
C3354 H3331 0.950 . S
C3354 C3353 1.397 . S
C3354 C3355 1.334 . S
C3355 H3332 0.950 . S
C3355 C3354 1.334 . S
C3355 C3356 1.287 . S
C3356 C3355 1.287 . S
C3356 C3357 1.524 . S
C3356 H3375 0.913 . S
C3357 H3333 0.950 . S
C3357 C3356 1.524 . S
C3357 C3358 1.415 . S
C3358 H3334 0.950 . S
C3358 C3353 1.363 . S
C3358 C3357 1.415 . S
C3359 H3335 0.951 . S
C3359 C3360 1.366 . S
C3359 C3361 1.388 . S
C3360 C3359 1.366 . S
C3360 C3364 1.385 . S
C3361 H3336 0.951 . S
C3361 C3359 1.388 . S
C3361 C3362 1.366 . S
C3362 C3361 1.366 . S
C3362 C3363 1.414 . S
C3362 C3365 1.499 . S
C3363 H3337 0.950 . S
C3363 C3362 1.414 . S
C3363 C3364 1.374 . S
C3364 H3338 0.950 . S
C3364 C3360 1.385 . S
C3364 C3363 1.374 . S
C3365 C3362 1.499 . S
C3365 C3366 1.373 . S
C3365 C3367 1.389 . S
C3366 H3339 0.950 . S
C3366 C3352 1.377 . S
C3366 C3365 1.373 . S
C3367 C3351 1.377 . S
C3367 C3365 1.389 . S
C3367 C3368 1.524 . S
C3368 C3367 1.524 . S
C3368 C3369 1.397 . S
C3368 C3373 1.363 . S
C3369 H3340 0.950 . S
C3369 C3368 1.397 . S
C3369 C3370 1.334 . S
C3370 H3341 0.950 . S
C3370 C3369 1.334 . S
C3370 C3371 1.287 . S
C3371 C3370 1.287 . S
C3371 C3372 1.524 . S
C3371 H3374 0.999 . S
C3372 H3342 0.950 . S
C3372 C3371 1.524 . S
C3372 C3373 1.415 . S
C3373 H3343 0.950 . S
C3373 C3368 1.363 . S
C3373 C3372 1.415 . S
H3374 C3371 0.999 . S
H3375 C3356 0.913 . S
H3376 C3394 0.951 . S
H3377 C3396 0.951 . S
H3378 C3398 0.950 . S
H3379 C3399 0.950 . S
H3380 C3401 0.950 . S
H3381 C3404 0.950 . S
H3382 C3405 0.950 . S
H3383 C3407 0.950 . S
H3384 C3408 0.950 . S
H3385 C3409 0.951 . S
H3386 C3411 0.951 . S
H3387 C3413 0.950 . S
H3388 C3414 0.950 . S
H3389 C3416 0.950 . S
H3390 C3419 0.950 . S
H3391 C3420 0.950 . S
H3392 C3422 0.950 . S
H3393 C3423 0.950 . S
C3394 H3376 0.951 . S
C3394 C3395 1.366 . S
C3394 C3396 1.388 . S
C3395 C3394 1.366 . S
C3395 C3399 1.385 . S
C3396 H3377 0.951 . S
C3396 C3394 1.388 . S
C3396 C3397 1.366 . S
C3397 C3396 1.366 . S
C3397 C3398 1.414 . S
C3397 C3400 1.499 . S
C3398 H3378 0.950 . S
C3398 C3397 1.414 . S
C3398 C3399 1.374 . S
C3399 H3379 0.950 . S
C3399 C3395 1.385 . S
C3399 C3398 1.374 . S
C3400 C3397 1.499 . S
C3400 C3401 1.373 . S
C3400 C3402 1.389 . S
C3401 H3380 0.950 . S
C3401 C3400 1.373 . S
C3401 C3417 1.377 . S
C3402 C3400 1.389 . S
C3402 C3403 1.524 . S
C3402 C3416 1.377 . S
C3403 C3402 1.524 . S
C3403 C3404 1.397 . S
C3403 C3408 1.363 . S
C3404 H3381 0.950 . S
C3404 C3403 1.397 . S
C3404 C3405 1.334 . S
C3405 H3382 0.950 . S
C3405 C3404 1.334 . S
C3405 C3406 1.287 . S
C3406 C3405 1.287 . S
C3406 C3407 1.524 . S
C3406 H3425 0.913 . S
C3407 H3383 0.950 . S
C3407 C3406 1.524 . S
C3407 C3408 1.415 . S
C3408 H3384 0.950 . S
C3408 C3403 1.363 . S
C3408 C3407 1.415 . S
C3409 H3385 0.951 . S
C3409 C3410 1.366 . S
C3409 C3411 1.388 . S
C3410 C3409 1.366 . S
C3410 C3414 1.385 . S
C3411 H3386 0.951 . S
C3411 C3409 1.388 . S
C3411 C3412 1.366 . S
C3412 C3411 1.366 . S
C3412 C3413 1.414 . S
C3412 C3415 1.499 . S
C3413 H3387 0.950 . S
C3413 C3412 1.414 . S
C3413 C3414 1.374 . S
C3414 H3388 0.950 . S
C3414 C3410 1.385 . S
C3414 C3413 1.374 . S
C3415 C3412 1.499 . S
C3415 C3416 1.373 . S
C3415 C3417 1.389 . S
C3416 H3389 0.950 . S
C3416 C3402 1.377 . S
C3416 C3415 1.373 . S
C3417 C3401 1.377 . S
C3417 C3415 1.389 . S
C3417 C3418 1.524 . S
C3418 C3417 1.524 . S
C3418 C3419 1.397 . S
C3418 C3423 1.363 . S
C3419 H3390 0.950 . S
C3419 C3418 1.397 . S
C3419 C3420 1.334 . S
C3420 H3391 0.950 . S
C3420 C3419 1.334 . S
C3420 C3421 1.287 . S
C3421 C3420 1.287 . S
C3421 C3422 1.524 . S
C3421 H3424 0.999 . S
C3422 H3392 0.950 . S
C3422 C3421 1.524 . S
C3422 C3423 1.415 . S
C3423 H3393 0.950 . S
C3423 C3418 1.363 . S
C3423 C3422 1.415 . S
H3424 C3421 0.999 . S
H3425 C3406 0.913 . S
H3426 C3444 0.951 . S
H3427 C3446 0.951 . S
H3428 C3448 0.950 . S
H3429 C3449 0.950 . S
H3430 C3451 0.950 . S
H3431 C3454 0.950 . S
H3432 C3455 0.950 . S
H3433 C3457 0.950 . S
H3434 C3458 0.950 . S
H3435 C3459 0.951 . S
H3436 C3461 0.951 . S
H3437 C3463 0.950 . S
H3438 C3464 0.950 . S
H3439 C3466 0.950 . S
H3440 C3469 0.950 . S
H3441 C3470 0.950 . S
H3442 C3472 0.950 . S
H3443 C3473 0.950 . S
C3444 H3426 0.951 . S
C3444 C3445 1.366 . S
C3444 C3446 1.388 . S
C3445 C3444 1.366 . S
C3445 C3449 1.385 . S
C3446 H3427 0.951 . S
C3446 C3444 1.388 . S
C3446 C3447 1.366 . S
C3447 C3446 1.366 . S
C3447 C3448 1.414 . S
C3447 C3450 1.499 . S
C3448 H3428 0.950 . S
C3448 C3447 1.414 . S
C3448 C3449 1.374 . S
C3449 H3429 0.950 . S
C3449 C3445 1.385 . S
C3449 C3448 1.374 . S
C3450 C3447 1.499 . S
C3450 C3451 1.373 . S
C3450 C3452 1.389 . S
C3451 H3430 0.950 . S
C3451 C3450 1.373 . S
C3451 C3467 1.377 . S
C3452 C3450 1.389 . S
C3452 C3453 1.524 . S
C3452 C3466 1.377 . S
C3453 C3452 1.524 . S
C3453 C3454 1.397 . S
C3453 C3458 1.363 . S
C3454 H3431 0.950 . S
C3454 C3453 1.397 . S
C3454 C3455 1.334 . S
C3455 H3432 0.950 . S
C3455 C3454 1.334 . S
C3455 C3456 1.287 . S
C3456 C3455 1.287 . S
C3456 C3457 1.524 . S
C3456 H3475 0.913 . S
C3457 H3433 0.950 . S
C3457 C3456 1.524 . S
C3457 C3458 1.415 . S
C3458 H3434 0.950 . S
C3458 C3453 1.363 . S
C3458 C3457 1.415 . S
C3459 H3435 0.951 . S
C3459 C3460 1.366 . S
C3459 C3461 1.388 . S
C3460 C3459 1.366 . S
C3460 C3464 1.385 . S
C3461 H3436 0.951 . S
C3461 C3459 1.388 . S
C3461 C3462 1.366 . S
C3462 C3461 1.366 . S
C3462 C3463 1.414 . S
C3462 C3465 1.499 . S
C3463 H3437 0.950 . S
C3463 C3462 1.414 . S
C3463 C3464 1.374 . S
C3464 H3438 0.950 . S
C3464 C3460 1.385 . S
C3464 C3463 1.374 . S
C3465 C3462 1.499 . S
C3465 C3466 1.373 . S
C3465 C3467 1.389 . S
C3466 H3439 0.950 . S
C3466 C3452 1.377 . S
C3466 C3465 1.373 . S
C3467 C3451 1.377 . S
C3467 C3465 1.389 . S
C3467 C3468 1.524 . S
C3468 C3467 1.524 . S
C3468 C3469 1.397 . S
C3468 C3473 1.363 . S
C3469 H3440 0.950 . S
C3469 C3468 1.397 . S
C3469 C3470 1.334 . S
C3470 H3441 0.950 . S
C3470 C3469 1.334 . S
C3470 C3471 1.287 . S
C3471 C3470 1.287 . S
C3471 C3472 1.524 . S
C3471 H3474 0.999 . S
C3472 H3442 0.950 . S
C3472 C3471 1.524 . S
C3472 C3473 1.415 . S
C3473 H3443 0.950 . S
C3473 C3468 1.363 . S
C3473 C3472 1.415 . S
H3474 C3471 0.999 . S
H3475 C3456 0.913 . S
H3476 C3494 0.951 . S
H3477 C3496 0.951 . S
H3478 C3498 0.950 . S
H3479 C3499 0.950 . S
H3480 C3501 0.950 1_655 S
H3481 C3504 0.940 1_655 S
H3482 C3505 0.950 . S
H3483 C3507 0.950 . S
H3484 C3508 0.950 . S
H3485 C3509 0.951 1_655 S
H3486 C3511 0.951 1_655 S
H3487 C3513 0.950 . S
H3488 C3514 0.950 . S
H3489 C3516 0.950 . S
H3490 C3519 0.950 . S
H3491 C3520 0.950 . S
H3492 C3522 0.950 . S
H3493 C3523 0.950 . S
C3494 H3476 0.951 . S
C3494 C3495 1.366 . S
C3494 C3496 1.388 . S
C3495 C3494 1.366 . S
C3495 C3499 1.385 1_455 S
C3496 H3477 0.951 . S
C3496 C3494 1.388 . S
C3496 C3497 1.366 . S
C3497 C3496 1.366 . S
C3497 C3498 1.414 1_455 S
C3497 C3500 1.499 . S
C3498 H3478 0.950 . S
C3498 C3497 1.414 1_655 S
C3498 C3499 1.374 . S
C3499 H3479 0.950 . S
C3499 C3495 1.385 1_655 S
C3499 C3498 1.374 . S
C3500 C3497 1.499 . S
C3500 C3501 1.373 . S
C3500 C3502 1.389 1_556 S
C3501 H3480 0.950 1_455 S
C3501 C3500 1.373 . S
C3501 C3517 1.377 . S
C3502 C3500 1.389 1_554 S
C3502 C3503 1.524 . S
C3502 C3516 1.377 . S
C3503 C3502 1.524 . S
C3503 C3504 1.397 . S
C3503 C3508 1.363 . S
C3504 H3481 0.940 1_455 S
C3504 C3503 1.397 . S
C3504 C3505 1.334 . S
C3505 H3482 0.950 . S
C3505 C3504 1.334 . S
C3505 C3506 1.287 . S
C3506 C3505 1.287 . S
C3506 C3507 1.524 . S
C3506 H3525 0.913 . S
C3507 H3483 0.950 . S
C3507 C3506 1.524 . S
C3507 C3508 1.415 . S
C3508 H3484 0.950 . S
C3508 C3503 1.363 . S
C3508 C3507 1.415 . S
C3509 H3485 0.951 1_455 S
C3509 C3510 1.366 . S
C3509 C3511 1.388 . S
C3510 C3509 1.366 . S
C3510 C3514 1.385 . S
C3511 H3486 0.951 1_455 S
C3511 C3509 1.388 . S
C3511 C3512 1.366 . S
C3512 C3511 1.366 . S
C3512 C3513 1.414 . S
C3512 C3515 1.499 . S
C3513 H3487 0.950 . S
C3513 C3512 1.414 . S
C3513 C3514 1.374 . S
C3514 H3488 0.950 . S
C3514 C3510 1.385 . S
C3514 C3513 1.374 . S
C3515 C3512 1.499 . S
C3515 C3516 1.373 . S
C3515 C3517 1.389 1_554 S
C3516 H3489 0.950 . S
C3516 C3502 1.377 . S
C3516 C3515 1.373 . S
C3517 C3501 1.377 . S
C3517 C3515 1.389 1_556 S
C3517 C3518 1.527 . S
C3518 C3517 1.527 . S
C3518 C3519 1.400 . S
C3518 C3523 1.357 1_455 S
C3519 H3490 0.950 . S
C3519 C3518 1.400 . S
C3519 C3520 1.334 . S
C3520 H3491 0.950 . S
C3520 C3519 1.334 . S
C3520 C3521 1.287 1_455 S
C3521 C3520 1.287 1_655 S
C3521 C3522 1.524 . S
C3521 H3524 0.999 . S
C3522 H3492 0.950 . S
C3522 C3521 1.524 . S
C3522 C3523 1.415 . S
C3523 H3493 0.950 . S
C3523 C3518 1.357 1_655 S
C3523 C3522 1.415 . S
H3524 C3521 0.999 . S
H3525 C3506 0.913 . S
H3526 C3544 0.951 . S
H3527 C3546 0.951 . S
H3528 C3548 0.950 . S
H3529 C3549 0.950 . S
H3530 C3551 0.950 . S
H3531 C3554 0.950 . S
H3532 C3555 0.950 . S
H3533 C3557 0.950 . S
H3534 C3558 0.950 . S
H3535 C3559 0.951 . S
H3536 C3561 0.951 . S
H3537 C3563 0.950 . S
H3538 C3564 0.950 . S
H3539 C3566 0.950 . S
H3540 C3569 0.950 . S
H3541 C3570 0.950 . S
H3542 C3572 0.950 . S
H3543 C3573 0.950 . S
C3544 H3526 0.951 . S
C3544 C3545 1.366 . S
C3544 C3546 1.388 . S
C3545 C3544 1.366 . S
C3545 C3549 1.385 . S
C3546 H3527 0.951 . S
C3546 C3544 1.388 . S
C3546 C3547 1.366 . S
C3547 C3546 1.366 . S
C3547 C3548 1.414 . S
C3547 C3550 1.499 . S
C3548 H3528 0.950 . S
C3548 C3547 1.414 . S
C3548 C3549 1.374 . S
C3549 H3529 0.950 . S
C3549 C3545 1.385 . S
C3549 C3548 1.374 . S
C3550 C3547 1.499 . S
C3550 C3551 1.373 . S
C3550 C3552 1.389 . S
C3551 H3530 0.950 . S
C3551 C3550 1.373 . S
C3551 C3567 1.377 . S
C3552 C3550 1.389 . S
C3552 C3553 1.524 . S
C3552 C3566 1.377 . S
C3553 C3552 1.524 . S
C3553 C3554 1.397 . S
C3553 C3558 1.363 . S
C3554 H3531 0.950 . S
C3554 C3553 1.397 . S
C3554 C3555 1.334 . S
C3555 H3532 0.950 . S
C3555 C3554 1.334 . S
C3555 C3556 1.287 . S
C3556 C3555 1.287 . S
C3556 C3557 1.524 . S
C3556 H3575 0.913 . S
C3557 H3533 0.950 . S
C3557 C3556 1.524 . S
C3557 C3558 1.415 . S
C3558 H3534 0.950 . S
C3558 C3553 1.363 . S
C3558 C3557 1.415 . S
C3559 H3535 0.951 . S
C3559 C3560 1.366 . S
C3559 C3561 1.388 . S
C3560 C3559 1.366 . S
C3560 C3564 1.385 . S
C3561 H3536 0.951 . S
C3561 C3559 1.388 . S
C3561 C3562 1.366 . S
C3562 C3561 1.366 . S
C3562 C3563 1.414 . S
C3562 C3565 1.499 . S
C3563 H3537 0.950 . S
C3563 C3562 1.414 . S
C3563 C3564 1.374 . S
C3564 H3538 0.950 . S
C3564 C3560 1.385 . S
C3564 C3563 1.374 . S
C3565 C3562 1.499 . S
C3565 C3566 1.373 . S
C3565 C3567 1.389 . S
C3566 H3539 0.950 . S
C3566 C3552 1.377 . S
C3566 C3565 1.373 . S
C3567 C3551 1.377 . S
C3567 C3565 1.389 . S
C3567 C3568 1.524 . S
C3568 C3567 1.524 . S
C3568 C3569 1.397 . S
C3568 C3573 1.363 . S
C3569 H3540 0.950 . S
C3569 C3568 1.397 . S
C3569 C3570 1.334 . S
C3570 H3541 0.950 . S
C3570 C3569 1.334 . S
C3570 C3571 1.287 . S
C3571 C3570 1.287 . S
C3571 C3572 1.524 . S
C3571 H3574 0.999 . S
C3572 H3542 0.950 . S
C3572 C3571 1.524 . S
C3572 C3573 1.415 . S
C3573 H3543 0.950 . S
C3573 C3568 1.363 . S
C3573 C3572 1.415 . S
H3574 C3571 0.999 . S
H3575 C3556 0.913 . S
H3576 C3594 0.951 . S
H3577 C3596 0.951 . S
H3578 C3598 0.950 . S
H3579 C3599 0.950 . S
H3580 C3601 0.950 . S
H3581 C3604 0.950 . S
H3582 C3605 0.950 . S
H3583 C3607 0.950 . S
H3584 C3608 0.950 . S
H3585 C3609 0.951 . S
H3586 C3611 0.951 . S
H3587 C3613 0.950 . S
H3588 C3614 0.950 . S
H3589 C3616 0.950 . S
H3590 C3619 0.950 . S
H3591 C3620 0.950 . S
H3592 C3622 0.950 . S
H3593 C3623 0.950 . S
C3594 H3576 0.951 . S
C3594 C3595 1.366 . S
C3594 C3596 1.388 . S
C3595 C3594 1.366 . S
C3595 C3599 1.385 . S
C3596 H3577 0.951 . S
C3596 C3594 1.388 . S
C3596 C3597 1.366 . S
C3597 C3596 1.366 . S
C3597 C3598 1.414 . S
C3597 C3600 1.499 . S
C3598 H3578 0.950 . S
C3598 C3597 1.414 . S
C3598 C3599 1.374 . S
C3599 H3579 0.950 . S
C3599 C3595 1.385 . S
C3599 C3598 1.374 . S
C3600 C3597 1.499 . S
C3600 C3601 1.373 . S
C3600 C3602 1.389 . S
C3601 H3580 0.950 . S
C3601 C3600 1.373 . S
C3601 C3617 1.377 . S
C3602 C3600 1.389 . S
C3602 C3603 1.524 . S
C3602 C3616 1.377 . S
C3603 C3602 1.524 . S
C3603 C3604 1.397 . S
C3603 C3608 1.363 . S
C3604 H3581 0.950 . S
C3604 C3603 1.397 . S
C3604 C3605 1.334 . S
C3605 H3582 0.950 . S
C3605 C3604 1.334 . S
C3605 C3606 1.287 . S
C3606 C3605 1.287 . S
C3606 C3607 1.524 . S
C3606 H3625 0.913 . S
C3607 H3583 0.950 . S
C3607 C3606 1.524 . S
C3607 C3608 1.415 . S
C3608 H3584 0.950 . S
C3608 C3603 1.363 . S
C3608 C3607 1.415 . S
C3609 H3585 0.951 . S
C3609 C3610 1.366 . S
C3609 C3611 1.388 . S
C3610 C3609 1.366 . S
C3610 C3614 1.385 . S
C3611 H3586 0.951 . S
C3611 C3609 1.388 . S
C3611 C3612 1.366 . S
C3612 C3611 1.366 . S
C3612 C3613 1.414 . S
C3612 C3615 1.499 . S
C3613 H3587 0.950 . S
C3613 C3612 1.414 . S
C3613 C3614 1.374 . S
C3614 H3588 0.950 . S
C3614 C3610 1.385 . S
C3614 C3613 1.374 . S
C3615 C3612 1.499 . S
C3615 C3616 1.373 . S
C3615 C3617 1.389 . S
C3616 H3589 0.950 . S
C3616 C3602 1.377 . S
C3616 C3615 1.373 . S
C3617 C3601 1.377 . S
C3617 C3615 1.389 . S
C3617 C3618 1.524 . S
C3618 C3617 1.524 . S
C3618 C3619 1.397 . S
C3618 C3623 1.363 . S
C3619 H3590 0.950 . S
C3619 C3618 1.397 . S
C3619 C3620 1.334 . S
C3620 H3591 0.950 . S
C3620 C3619 1.334 . S
C3620 C3621 1.287 . S
C3621 C3620 1.287 . S
C3621 C3622 1.524 . S
C3621 H3624 0.999 . S
C3622 H3592 0.950 . S
C3622 C3621 1.524 . S
C3622 C3623 1.415 . S
C3623 H3593 0.950 . S
C3623 C3618 1.363 . S
C3623 C3622 1.415 . S
H3624 C3621 0.999 . S
H3625 C3606 0.913 . S
H3626 C3644 0.951 1_455 S
H3627 C3646 0.951 . S
H3628 C3648 0.950 . S
H3629 C3649 0.950 . S
H3630 C3651 0.950 . S
H3631 C3654 0.950 . S
H3632 C3655 0.950 . S
H3633 C3657 0.950 . S
H3634 C3658 0.950 . S
H3635 C3659 0.951 . S
H3636 C3661 0.951 . S
H3637 C3663 0.950 . S
H3638 C3664 0.950 . S
H3639 C3666 0.950 . S
H3640 C3669 0.950 . S
H3641 C3670 0.950 . S
H3642 C3672 0.950 . S
H3643 C3673 0.950 . S
C3644 H3626 0.951 1_655 S
C3644 C3645 1.366 . S
C3644 C3646 1.388 . S
C3645 C3644 1.366 . S
C3645 C3649 1.385 . S
C3646 H3627 0.951 . S
C3646 C3644 1.388 . S
C3646 C3647 1.366 . S
C3647 C3646 1.366 . S
C3647 C3648 1.414 . S
C3647 C3650 1.499 . S
C3648 H3628 0.950 . S
C3648 C3647 1.414 . S
C3648 C3649 1.374 . S
C3649 H3629 0.950 . S
C3649 C3645 1.385 . S
C3649 C3648 1.374 . S
C3650 C3647 1.499 . S
C3650 C3651 1.373 . S
C3650 C3652 1.389 . S
C3651 H3630 0.950 . S
C3651 C3650 1.373 . S
C3651 C3667 1.377 . S
C3652 C3650 1.389 . S
C3652 C3653 1.524 . S
C3652 C3666 1.377 . S
C3653 C3652 1.524 . S
C3653 C3654 1.397 . S
C3653 C3658 1.363 . S
C3654 H3631 0.950 . S
C3654 C3653 1.397 . S
C3654 C3655 1.334 . S
C3655 H3632 0.950 . S
C3655 C3654 1.334 . S
C3655 C3656 1.287 . S
C3656 C3655 1.287 . S
C3656 C3657 1.524 . S
C3656 H3675 0.913 . S
C3657 H3633 0.950 . S
C3657 C3656 1.524 . S
C3657 C3658 1.415 . S
C3658 H3634 0.950 . S
C3658 C3653 1.363 . S
C3658 C3657 1.415 . S
C3659 H3635 0.951 . S
C3659 C3660 1.366 . S
C3659 C3661 1.388 . S
C3660 C3659 1.366 . S
C3660 C3664 1.385 . S
C3661 H3636 0.951 . S
C3661 C3659 1.388 . S
C3661 C3662 1.366 . S
C3662 C3661 1.366 . S
C3662 C3663 1.414 . S
C3662 C3665 1.499 . S
C3663 H3637 0.950 . S
C3663 C3662 1.414 . S
C3663 C3664 1.374 . S
C3664 H3638 0.950 . S
C3664 C3660 1.385 . S
C3664 C3663 1.374 . S
C3665 C3662 1.499 . S
C3665 C3666 1.373 . S
C3665 C3667 1.389 . S
C3666 H3639 0.950 . S
C3666 C3652 1.377 . S
C3666 C3665 1.373 . S
C3667 C3651 1.377 . S
C3667 C3665 1.389 . S
C3667 C3668 1.524 . S
C3668 C3667 1.524 . S
C3668 C3669 1.397 . S
C3668 C3673 1.363 . S
C3669 H3640 0.950 . S
C3669 C3668 1.397 . S
C3669 C3670 1.334 . S
C3670 H3641 0.950 . S
C3670 C3669 1.334 . S
C3670 C3671 1.287 . S
C3671 C3670 1.287 . S
C3671 C3672 1.524 . S
C3671 H3674 0.999 . S
C3672 H3642 0.950 . S
C3672 C3671 1.524 . S
C3672 C3673 1.415 . S
C3673 H3643 0.950 . S
C3673 C3668 1.363 . S
C3673 C3672 1.415 . S
H3674 C3671 0.999 . S
H3675 C3656 0.913 . S
H3676 C3694 0.951 . S
H3677 C3696 0.957 1_655 S
H3678 C3698 0.950 . S
H3679 C3699 0.950 . S
H3680 C3701 0.950 . S
H3681 C3704 0.950 . S
H3682 C3705 0.950 . S
H3683 C3707 0.950 . S
H3684 C3708 0.950 . S
H3685 C3709 0.951 . S
H3686 C3711 0.951 . S
H3687 C3713 0.950 . S
H3688 C3714 0.950 . S
H3689 C3716 0.950 . S
H3690 C3719 0.950 . S
H3691 C3720 0.950 . S
H3692 C3722 0.950 . S
H3693 C3723 0.950 . S
C3694 H3676 0.951 . S
C3694 C3695 1.367 1_655 S
C3694 C3696 1.382 1_655 S
C3695 C3694 1.367 1_455 S
C3695 C3699 1.389 . S
C3696 H3677 0.957 1_455 S
C3696 C3694 1.382 1_455 S
C3696 C3697 1.371 . S
C3697 C3696 1.371 . S
C3697 C3698 1.414 . S
C3697 C3700 1.499 . S
C3698 H3678 0.950 . S
C3698 C3697 1.414 . S
C3698 C3699 1.374 . S
C3699 H3679 0.950 . S
C3699 C3695 1.389 . S
C3699 C3698 1.374 . S
C3700 C3697 1.499 . S
C3700 C3701 1.373 . S
C3700 C3702 1.389 1_455 S
C3701 H3680 0.950 . S
C3701 C3700 1.373 . S
C3701 C3717 1.377 . S
C3702 C3700 1.389 1_655 S
C3702 C3703 1.524 . S
C3702 C3716 1.377 . S
C3703 C3702 1.524 . S
C3703 C3704 1.397 . S
C3703 C3708 1.363 . S
C3704 H3681 0.950 . S
C3704 C3703 1.397 . S
C3704 C3705 1.334 . S
C3705 H3682 0.950 . S
C3705 C3704 1.334 . S
C3705 C3706 1.287 . S
C3706 C3705 1.287 . S
C3706 C3707 1.524 . S
C3706 H3725 0.913 . S
C3707 H3683 0.950 . S
C3707 C3706 1.524 . S
C3707 C3708 1.415 . S
C3708 H3684 0.950 . S
C3708 C3703 1.363 . S
C3708 C3707 1.415 . S
C3709 H3685 0.951 . S
C3709 C3710 1.366 . S
C3709 C3711 1.388 . S
C3710 C3709 1.366 . S
C3710 C3714 1.385 . S
C3711 H3686 0.951 . S
C3711 C3709 1.388 . S
C3711 C3712 1.366 . S
C3712 C3711 1.366 . S
C3712 C3713 1.414 . S
C3712 C3715 1.499 . S
C3713 H3687 0.950 . S
C3713 C3712 1.414 . S
C3713 C3714 1.374 . S
C3714 H3688 0.950 . S
C3714 C3710 1.385 . S
C3714 C3713 1.374 . S
C3715 C3712 1.499 . S
C3715 C3716 1.373 1_455 S
C3715 C3717 1.389 . S
C3716 H3689 0.950 . S
C3716 C3702 1.377 . S
C3716 C3715 1.373 1_655 S
C3717 C3701 1.377 . S
C3717 C3715 1.389 . S
C3717 C3718 1.524 . S
C3718 C3717 1.524 . S
C3718 C3719 1.397 . S
C3718 C3723 1.363 . S
C3719 H3690 0.950 . S
C3719 C3718 1.397 . S
C3719 C3720 1.334 . S
C3720 H3691 0.950 . S
C3720 C3719 1.334 . S
C3720 C3721 1.287 . S
C3721 C3720 1.287 . S
C3721 C3722 1.524 . S
C3721 H3724 0.999 . S
C3722 H3692 0.950 . S
C3722 C3721 1.524 . S
C3722 C3723 1.415 . S
C3723 H3693 0.950 . S
C3723 C3718 1.363 . S
C3723 C3722 1.415 . S
H3724 C3721 0.999 . S
H3725 C3706 0.913 . S
H3726 C3744 0.951 . S
H3727 C3746 0.951 . S
H3728 C3748 0.950 . S
H3729 C3749 0.950 . S
H3730 C3751 0.950 . S
H3731 C3754 0.950 . S
H3732 C3755 0.950 . S
H3733 C3757 0.950 . S
H3734 C3758 0.950 . S
H3735 C3759 0.951 . S
H3736 C3761 0.951 . S
H3737 C3763 0.950 . S
H3738 C3764 0.950 . S
H3739 C3766 0.950 . S
H3740 C3769 0.950 . S
H3741 C3770 0.950 . S
H3742 C3772 0.950 . S
H3743 C3773 0.950 . S
C3744 H3726 0.951 . S
C3744 C3745 1.366 . S
C3744 C3746 1.388 . S
C3745 C3744 1.366 . S
C3745 C3749 1.385 . S
C3746 H3727 0.951 . S
C3746 C3744 1.388 . S
C3746 C3747 1.366 . S
C3747 C3746 1.366 . S
C3747 C3748 1.414 . S
C3747 C3750 1.499 . S
C3748 H3728 0.950 . S
C3748 C3747 1.414 . S
C3748 C3749 1.374 . S
C3749 H3729 0.950 . S
C3749 C3745 1.385 . S
C3749 C3748 1.374 . S
C3750 C3747 1.499 . S
C3750 C3751 1.373 . S
C3750 C3752 1.389 . S
C3751 H3730 0.950 . S
C3751 C3750 1.373 . S
C3751 C3767 1.377 . S
C3752 C3750 1.389 . S
C3752 C3753 1.524 . S
C3752 C3766 1.377 . S
C3753 C3752 1.524 . S
C3753 C3754 1.397 . S
C3753 C3758 1.363 . S
C3754 H3731 0.950 . S
C3754 C3753 1.397 . S
C3754 C3755 1.334 . S
C3755 H3732 0.950 . S
C3755 C3754 1.334 . S
C3755 C3756 1.287 . S
C3756 C3755 1.287 . S
C3756 C3757 1.524 . S
C3756 H3775 0.913 . S
C3757 H3733 0.950 . S
C3757 C3756 1.524 . S
C3757 C3758 1.415 . S
C3758 H3734 0.950 . S
C3758 C3753 1.363 . S
C3758 C3757 1.415 . S
C3759 H3735 0.951 . S
C3759 C3760 1.366 . S
C3759 C3761 1.388 . S
C3760 C3759 1.366 . S
C3760 C3764 1.385 . S
C3761 H3736 0.951 . S
C3761 C3759 1.388 . S
C3761 C3762 1.366 . S
C3762 C3761 1.366 . S
C3762 C3763 1.414 . S
C3762 C3765 1.499 . S
C3763 H3737 0.950 . S
C3763 C3762 1.414 . S
C3763 C3764 1.374 . S
C3764 H3738 0.950 . S
C3764 C3760 1.385 . S
C3764 C3763 1.374 . S
C3765 C3762 1.499 . S
C3765 C3766 1.373 . S
C3765 C3767 1.389 . S
C3766 H3739 0.950 . S
C3766 C3752 1.377 . S
C3766 C3765 1.373 . S
C3767 C3751 1.377 . S
C3767 C3765 1.389 . S
C3767 C3768 1.524 . S
C3768 C3767 1.524 . S
C3768 C3769 1.397 . S
C3768 C3773 1.363 . S
C3769 H3740 0.950 . S
C3769 C3768 1.397 . S
C3769 C3770 1.334 . S
C3770 H3741 0.950 . S
C3770 C3769 1.334 . S
C3770 C3771 1.287 . S
C3771 C3770 1.287 . S
C3771 C3772 1.524 . S
C3771 H3774 0.999 . S
C3772 H3742 0.950 . S
C3772 C3771 1.524 . S
C3772 C3773 1.415 . S
C3773 H3743 0.950 . S
C3773 C3768 1.363 . S
C3773 C3772 1.415 . S
H3774 C3771 0.999 . S
H3775 C3756 0.913 . S
H3776 C3794 0.951 . S
H3777 C3796 0.951 . S
H3778 C3798 0.950 . S
H3779 C3799 0.950 . S
H3780 C3801 0.950 . S
H3781 C3804 0.950 . S
H3782 C3805 0.950 . S
H3783 C3807 0.950 . S
H3784 C3808 0.950 . S
H3785 C3809 0.951 . S
H3786 C3811 0.951 . S
H3787 C3813 0.950 . S
H3788 C3814 0.950 . S
H3789 C3816 0.950 . S
H3790 C3819 0.950 . S
H3791 C3820 0.950 . S
H3792 C3822 0.950 . S
H3793 C3823 0.950 . S
C3794 H3776 0.951 . S
C3794 C3795 1.366 . S
C3794 C3796 1.388 . S
C3795 C3794 1.366 . S
C3795 C3799 1.385 . S
C3796 H3777 0.951 . S
C3796 C3794 1.388 . S
C3796 C3797 1.366 . S
C3797 C3796 1.366 . S
C3797 C3798 1.414 . S
C3797 C3800 1.499 . S
C3798 H3778 0.950 . S
C3798 C3797 1.414 . S
C3798 C3799 1.374 . S
C3799 H3779 0.950 . S
C3799 C3795 1.385 . S
C3799 C3798 1.374 . S
C3800 C3797 1.499 . S
C3800 C3801 1.373 . S
C3800 C3802 1.389 . S
C3801 H3780 0.950 . S
C3801 C3800 1.373 . S
C3801 C3817 1.377 . S
C3802 C3800 1.389 . S
C3802 C3803 1.524 . S
C3802 C3816 1.377 . S
C3803 C3802 1.524 . S
C3803 C3804 1.397 . S
C3803 C3808 1.363 . S
C3804 H3781 0.950 . S
C3804 C3803 1.397 . S
C3804 C3805 1.334 . S
C3805 H3782 0.950 . S
C3805 C3804 1.334 . S
C3805 C3806 1.287 . S
C3806 C3805 1.287 . S
C3806 C3807 1.524 . S
C3806 H3825 0.913 . S
C3807 H3783 0.950 . S
C3807 C3806 1.524 . S
C3807 C3808 1.415 . S
C3808 H3784 0.950 . S
C3808 C3803 1.363 . S
C3808 C3807 1.415 . S
C3809 H3785 0.951 . S
C3809 C3810 1.366 . S
C3809 C3811 1.388 . S
C3810 C3809 1.366 . S
C3810 C3814 1.385 . S
C3811 H3786 0.951 . S
C3811 C3809 1.388 . S
C3811 C3812 1.366 . S
C3812 C3811 1.366 . S
C3812 C3813 1.414 . S
C3812 C3815 1.499 . S
C3813 H3787 0.950 . S
C3813 C3812 1.414 . S
C3813 C3814 1.374 . S
C3814 H3788 0.950 . S
C3814 C3810 1.385 . S
C3814 C3813 1.374 . S
C3815 C3812 1.499 . S
C3815 C3816 1.373 . S
C3815 C3817 1.389 . S
C3816 H3789 0.950 . S
C3816 C3802 1.377 . S
C3816 C3815 1.373 . S
C3817 C3801 1.377 . S
C3817 C3815 1.389 . S
C3817 C3818 1.524 . S
C3818 C3817 1.524 . S
C3818 C3819 1.397 . S
C3818 C3823 1.363 . S
C3819 H3790 0.950 . S
C3819 C3818 1.397 . S
C3819 C3820 1.334 . S
C3820 H3791 0.950 . S
C3820 C3819 1.334 . S
C3820 C3821 1.287 . S
C3821 C3820 1.287 . S
C3821 C3822 1.524 . S
C3821 H3824 0.999 . S
C3822 H3792 0.950 . S
C3822 C3821 1.524 . S
C3822 C3823 1.415 . S
C3823 H3793 0.950 . S
C3823 C3818 1.363 . S
C3823 C3822 1.415 . S
H3824 C3821 0.999 . S
H3825 C3806 0.913 . S
H3826 C3844 0.951 . S
H3827 C3846 0.951 . S
H3828 C3848 0.950 . S
H3829 C3849 0.950 . S
H3830 C3851 0.950 . S
H3831 C3854 0.950 . S
H3832 C3855 0.921 1_554 S
H3833 C3857 0.950 . S
H3834 C3858 0.950 . S
H3835 C3859 0.951 . S
H3836 C3861 0.951 . S
H3837 C3863 0.950 . S
H3838 C3864 0.950 . S
H3839 C3866 0.950 . S
H3840 C3869 0.950 . S
H3841 C3870 0.950 . S
H3842 C3872 0.950 . S
H3843 C3873 0.950 . S
C3844 H3826 0.951 . S
C3844 C3845 1.366 . S
C3844 C3846 1.388 1_554 S
C3845 C3844 1.366 . S
C3845 C3849 1.385 . S
C3846 H3827 0.951 . S
C3846 C3844 1.388 1_556 S
C3846 C3847 1.366 . S
C3847 C3846 1.366 . S
C3847 C3848 1.414 . S
C3847 C3850 1.499 . S
C3848 H3828 0.950 . S
C3848 C3847 1.414 . S
C3848 C3849 1.374 1_556 S
C3849 H3829 0.950 . S
C3849 C3845 1.385 . S
C3849 C3848 1.374 1_554 S
C3850 C3847 1.499 . S
C3850 C3851 1.373 . S
C3850 C3852 1.389 . S
C3851 H3830 0.950 . S
C3851 C3850 1.373 . S
C3851 C3867 1.377 . S
C3852 C3850 1.389 . S
C3852 C3853 1.524 . S
C3852 C3866 1.377 . S
C3853 C3852 1.524 . S
C3853 C3854 1.397 . S
C3853 C3858 1.363 . S
C3854 H3831 0.950 . S
C3854 C3853 1.397 . S
C3854 C3855 1.347 . S
C3855 H3832 0.921 1_556 S
C3855 C3854 1.347 . S
C3855 C3856 1.305 . S
C3856 C3855 1.305 . S
C3856 C3857 1.524 . S
C3856 H3875 0.913 . S
C3857 H3833 0.950 . S
C3857 C3856 1.524 . S
C3857 C3858 1.415 . S
C3858 H3834 0.950 . S
C3858 C3853 1.363 . S
C3858 C3857 1.415 . S
C3859 H3835 0.951 . S
C3859 C3860 1.366 . S
C3859 C3861 1.388 . S
C3860 C3859 1.366 . S
C3860 C3864 1.385 . S
C3861 H3836 0.951 . S
C3861 C3859 1.388 . S
C3861 C3862 1.366 . S
C3862 C3861 1.366 . S
C3862 C3863 1.414 . S
C3862 C3865 1.499 . S
C3863 H3837 0.950 . S
C3863 C3862 1.414 . S
C3863 C3864 1.374 . S
C3864 H3838 0.950 . S
C3864 C3860 1.385 . S
C3864 C3863 1.374 . S
C3865 C3862 1.499 . S
C3865 C3866 1.373 . S
C3865 C3867 1.389 . S
C3866 H3839 0.950 . S
C3866 C3852 1.377 . S
C3866 C3865 1.373 . S
C3867 C3851 1.377 . S
C3867 C3865 1.389 . S
C3867 C3868 1.524 . S
C3868 C3867 1.524 . S
C3868 C3869 1.397 . S
C3868 C3873 1.363 . S
C3869 H3840 0.950 . S
C3869 C3868 1.397 . S
C3869 C3870 1.334 . S
C3870 H3841 0.950 . S
C3870 C3869 1.334 . S
C3870 C3871 1.287 . S
C3871 C3870 1.287 . S
C3871 C3872 1.524 . S
C3871 H3874 0.999 . S
C3872 H3842 0.950 . S
C3872 C3871 1.524 . S
C3872 C3873 1.415 . S
C3873 H3843 0.950 . S
C3873 C3868 1.363 . S
C3873 C3872 1.415 . S
H3874 C3871 0.999 . S
H3875 C3856 0.913 . S
H3876 C3894 0.951 . S
H3877 C3896 0.951 . S
H3878 C3898 0.950 . S
H3879 C3899 0.950 . S
H3880 C3901 0.950 . S
H3881 C3904 0.950 . S
H3882 C3905 0.950 . S
H3883 C3907 0.950 . S
H3884 C3908 0.950 . S
H3885 C3909 0.951 . S
H3886 C3911 0.951 . S
H3887 C3913 0.950 . S
H3888 C3914 0.950 . S
H3889 C3916 0.950 . S
H3890 C3919 0.950 . S
H3891 C3920 0.950 . S
H3892 C3922 0.950 . S
H3893 C3923 0.950 . S
C3894 H3876 0.951 . S
C3894 C3895 1.366 . S
C3894 C3896 1.388 . S
C3895 C3894 1.366 . S
C3895 C3899 1.385 . S
C3896 H3877 0.951 . S
C3896 C3894 1.388 . S
C3896 C3897 1.366 . S
C3897 C3896 1.366 . S
C3897 C3898 1.414 . S
C3897 C3900 1.499 . S
C3898 H3878 0.950 . S
C3898 C3897 1.414 . S
C3898 C3899 1.374 . S
C3899 H3879 0.950 . S
C3899 C3895 1.385 . S
C3899 C3898 1.374 . S
C3900 C3897 1.499 . S
C3900 C3901 1.373 . S
C3900 C3902 1.389 . S
C3901 H3880 0.950 . S
C3901 C3900 1.373 . S
C3901 C3917 1.377 . S
C3902 C3900 1.389 . S
C3902 C3903 1.524 . S
C3902 C3916 1.377 . S
C3903 C3902 1.524 . S
C3903 C3904 1.397 . S
C3903 C3908 1.363 . S
C3904 H3881 0.950 . S
C3904 C3903 1.397 . S
C3904 C3905 1.334 . S
C3905 H3882 0.950 . S
C3905 C3904 1.334 . S
C3905 C3906 1.287 . S
C3906 C3905 1.287 . S
C3906 C3907 1.524 . S
C3906 H3925 0.913 . S
C3907 H3883 0.950 . S
C3907 C3906 1.524 . S
C3907 C3908 1.415 . S
C3908 H3884 0.950 . S
C3908 C3903 1.363 . S
C3908 C3907 1.415 . S
C3909 H3885 0.951 . S
C3909 C3910 1.366 . S
C3909 C3911 1.388 . S
C3910 C3909 1.366 . S
C3910 C3914 1.385 . S
C3911 H3886 0.951 . S
C3911 C3909 1.388 . S
C3911 C3912 1.366 . S
C3912 C3911 1.366 . S
C3912 C3913 1.414 . S
C3912 C3915 1.499 . S
C3913 H3887 0.950 . S
C3913 C3912 1.414 . S
C3913 C3914 1.374 . S
C3914 H3888 0.950 . S
C3914 C3910 1.385 . S
C3914 C3913 1.374 . S
C3915 C3912 1.499 . S
C3915 C3916 1.373 . S
C3915 C3917 1.389 . S
C3916 H3889 0.950 . S
C3916 C3902 1.377 . S
C3916 C3915 1.373 . S
C3917 C3901 1.377 . S
C3917 C3915 1.389 . S
C3917 C3918 1.524 . S
C3918 C3917 1.524 . S
C3918 C3919 1.397 . S
C3918 C3923 1.363 . S
C3919 H3890 0.950 . S
C3919 C3918 1.397 . S
C3919 C3920 1.334 . S
C3920 H3891 0.950 . S
C3920 C3919 1.334 . S
C3920 C3921 1.287 . S
C3921 C3920 1.287 . S
C3921 C3922 1.524 . S
C3921 H3924 0.999 . S
C3922 H3892 0.950 . S
C3922 C3921 1.524 . S
C3922 C3923 1.415 . S
C3923 H3893 0.950 . S
C3923 C3918 1.363 . S
C3923 C3922 1.415 . S
H3924 C3921 0.999 . S
H3925 C3906 0.913 . S
H3926 C3944 0.951 . S
H3927 C3946 0.951 . S
H3928 C3948 0.950 . S
H3929 C3949 0.950 . S
H3930 C3951 0.950 . S
H3931 C3954 0.950 . S
H3932 C3955 0.950 . S
H3933 C3957 0.950 . S
H3934 C3958 0.950 . S
H3935 C3959 0.951 . S
H3936 C3961 0.951 . S
H3937 C3963 0.950 . S
H3938 C3964 0.950 . S
H3939 C3966 0.950 . S
H3940 C3969 0.950 . S
H3941 C3970 0.950 . S
H3942 C3972 0.950 . S
H3943 C3973 0.950 . S
C3944 H3926 0.951 . S
C3944 C3945 1.366 . S
C3944 C3946 1.388 . S
C3945 C3944 1.366 . S
C3945 C3949 1.385 . S
C3946 H3927 0.951 . S
C3946 C3944 1.388 . S
C3946 C3947 1.366 . S
C3947 C3946 1.366 . S
C3947 C3948 1.414 . S
C3947 C3950 1.499 . S
C3948 H3928 0.950 . S
C3948 C3947 1.414 . S
C3948 C3949 1.374 . S
C3949 H3929 0.950 . S
C3949 C3945 1.385 . S
C3949 C3948 1.374 . S
C3950 C3947 1.499 . S
C3950 C3951 1.373 . S
C3950 C3952 1.389 . S
C3951 H3930 0.950 . S
C3951 C3950 1.373 . S
C3951 C3967 1.377 . S
C3952 C3950 1.389 . S
C3952 C3953 1.524 . S
C3952 C3966 1.377 . S
C3953 C3952 1.524 . S
C3953 C3954 1.397 . S
C3953 C3958 1.363 . S
C3954 H3931 0.950 . S
C3954 C3953 1.397 . S
C3954 C3955 1.334 . S
C3955 H3932 0.950 . S
C3955 C3954 1.334 . S
C3955 C3956 1.287 . S
C3956 C3955 1.287 . S
C3956 C3957 1.524 . S
C3956 H3975 0.913 . S
C3957 H3933 0.950 . S
C3957 C3956 1.524 . S
C3957 C3958 1.415 . S
C3958 H3934 0.950 . S
C3958 C3953 1.363 . S
C3958 C3957 1.415 . S
C3959 H3935 0.951 . S
C3959 C3960 1.366 . S
C3959 C3961 1.388 . S
C3960 C3959 1.366 . S
C3960 C3964 1.385 . S
C3961 H3936 0.951 . S
C3961 C3959 1.388 . S
C3961 C3962 1.366 . S
C3962 C3961 1.366 . S
C3962 C3963 1.414 . S
C3962 C3965 1.499 . S
C3963 H3937 0.950 . S
C3963 C3962 1.414 . S
C3963 C3964 1.374 . S
C3964 H3938 0.950 . S
C3964 C3960 1.385 . S
C3964 C3963 1.374 . S
C3965 C3962 1.499 . S
C3965 C3966 1.373 . S
C3965 C3967 1.389 . S
C3966 H3939 0.950 . S
C3966 C3952 1.377 . S
C3966 C3965 1.373 . S
C3967 C3951 1.377 . S
C3967 C3965 1.389 . S
C3967 C3968 1.524 . S
C3968 C3967 1.524 . S
C3968 C3969 1.397 . S
C3968 C3973 1.363 . S
C3969 H3940 0.950 . S
C3969 C3968 1.397 . S
C3969 C3970 1.334 . S
C3970 H3941 0.950 . S
C3970 C3969 1.334 . S
C3970 C3971 1.287 . S
C3971 C3970 1.287 . S
C3971 C3972 1.524 . S
C3971 H3974 0.999 . S
C3972 H3942 0.950 . S
C3972 C3971 1.524 . S
C3972 C3973 1.415 . S
C3973 H3943 0.950 . S
C3973 C3968 1.363 . S
C3973 C3972 1.415 . S
H3974 C3971 0.999 . S
H3975 C3956 0.913 . S
H3976 C3994 0.951 . S
H3977 C3996 0.951 . S
H3978 C3998 0.950 . S
H3979 C3999 0.950 . S
H3980 C4001 0.950 . S
H3981 C4004 0.950 . S
H3982 C4005 0.950 . S
H3983 C4007 0.950 . S
H3984 C4008 0.950 . S
H3985 C4009 0.951 . S
H3986 C4011 0.951 . S
H3987 C4013 0.950 . S
H3988 C4014 0.950 . S
H3989 C4016 0.950 . S
H3990 C4019 0.950 . S
H3991 C4020 0.950 . S
H3992 C4022 0.950 . S
H3993 C4023 0.950 . S
C3994 H3976 0.951 . S
C3994 C3995 1.366 . S
C3994 C3996 1.388 . S
C3995 C3994 1.366 . S
C3995 C3999 1.385 . S
C3996 H3977 0.951 . S
C3996 C3994 1.388 . S
C3996 C3997 1.366 . S
C3997 C3996 1.366 . S
C3997 C3998 1.414 . S
C3997 C4000 1.499 . S
C3998 H3978 0.950 . S
C3998 C3997 1.414 . S
C3998 C3999 1.374 . S
C3999 H3979 0.950 . S
C3999 C3995 1.385 . S
C3999 C3998 1.374 . S
C4000 C3997 1.499 . S
C4000 C4001 1.373 . S
C4000 C4002 1.389 . S
C4001 H3980 0.950 . S
C4001 C4000 1.373 . S
C4001 C4017 1.377 . S
C4002 C4000 1.389 . S
C4002 C4003 1.524 . S
C4002 C4016 1.377 . S
C4003 C4002 1.524 . S
C4003 C4004 1.397 . S
C4003 C4008 1.363 . S
C4004 H3981 0.950 . S
C4004 C4003 1.397 . S
C4004 C4005 1.334 . S
C4005 H3982 0.950 . S
C4005 C4004 1.334 . S
C4005 C4006 1.287 . S
C4006 C4005 1.287 . S
C4006 C4007 1.524 . S
C4006 H4025 0.913 . S
C4007 H3983 0.950 . S
C4007 C4006 1.524 . S
C4007 C4008 1.415 . S
C4008 H3984 0.950 . S
C4008 C4003 1.363 . S
C4008 C4007 1.415 . S
C4009 H3985 0.951 . S
C4009 C4010 1.366 . S
C4009 C4011 1.388 . S
C4010 C4009 1.366 . S
C4010 C4014 1.385 . S
C4011 H3986 0.951 . S
C4011 C4009 1.388 . S
C4011 C4012 1.366 . S
C4012 C4011 1.366 . S
C4012 C4013 1.414 . S
C4012 C4015 1.499 . S
C4013 H3987 0.950 . S
C4013 C4012 1.414 . S
C4013 C4014 1.374 . S
C4014 H3988 0.950 . S
C4014 C4010 1.385 . S
C4014 C4013 1.374 . S
C4015 C4012 1.499 . S
C4015 C4016 1.373 . S
C4015 C4017 1.389 . S
C4016 H3989 0.950 . S
C4016 C4002 1.377 . S
C4016 C4015 1.373 . S
C4017 C4001 1.377 . S
C4017 C4015 1.389 . S
C4017 C4018 1.524 . S
C4018 C4017 1.524 . S
C4018 C4019 1.397 . S
C4018 C4023 1.363 . S
C4019 H3990 0.950 . S
C4019 C4018 1.397 . S
C4019 C4020 1.334 . S
C4020 H3991 0.950 . S
C4020 C4019 1.334 . S
C4020 C4021 1.287 . S
C4021 C4020 1.287 . S
C4021 C4022 1.524 . S
C4021 H4024 0.999 . S
C4022 H3992 0.950 . S
C4022 C4021 1.524 . S
C4022 C4023 1.415 . S
C4023 H3993 0.950 . S
C4023 C4018 1.363 . S
C4023 C4022 1.415 . S
H4024 C4021 0.999 . S
H4025 C4006 0.913 . S
H4026 C4044 0.951 . S
H4027 C4046 0.951 . S
H4028 C4048 0.950 . S
H4029 C4049 0.950 . S
H4030 C4051 0.950 . S
H4031 C4054 0.950 . S
H4032 C4055 0.950 . S
H4033 C4057 0.950 . S
H4034 C4058 0.950 . S
H4035 C4059 0.951 . S
H4036 C4061 0.951 . S
H4037 C4063 0.950 . S
H4038 C4064 0.950 . S
H4039 C4066 0.950 . S
H4040 C4069 0.950 . S
H4041 C4070 0.950 . S
H4042 C4072 0.950 . S
H4043 C4073 0.950 . S
C4044 H4026 0.951 . S
C4044 C4045 1.366 . S
C4044 C4046 1.388 . S
C4045 C4044 1.366 . S
C4045 C4049 1.385 . S
C4046 H4027 0.951 . S
C4046 C4044 1.388 . S
C4046 C4047 1.366 . S
C4047 C4046 1.366 . S
C4047 C4048 1.414 . S
C4047 C4050 1.499 . S
C4048 H4028 0.950 . S
C4048 C4047 1.414 . S
C4048 C4049 1.374 . S
C4049 H4029 0.950 . S
C4049 C4045 1.385 . S
C4049 C4048 1.374 . S
C4050 C4047 1.499 . S
C4050 C4051 1.373 . S
C4050 C4052 1.389 . S
C4051 H4030 0.950 . S
C4051 C4050 1.373 . S
C4051 C4067 1.377 . S
C4052 C4050 1.389 . S
C4052 C4053 1.524 . S
C4052 C4066 1.377 . S
C4053 C4052 1.524 . S
C4053 C4054 1.397 . S
C4053 C4058 1.363 . S
C4054 H4031 0.950 . S
C4054 C4053 1.397 . S
C4054 C4055 1.334 . S
C4055 H4032 0.950 . S
C4055 C4054 1.334 . S
C4055 C4056 1.287 . S
C4056 C4055 1.287 . S
C4056 C4057 1.524 . S
C4056 H4075 0.913 . S
C4057 H4033 0.950 . S
C4057 C4056 1.524 . S
C4057 C4058 1.415 . S
C4058 H4034 0.950 . S
C4058 C4053 1.363 . S
C4058 C4057 1.415 . S
C4059 H4035 0.951 . S
C4059 C4060 1.366 . S
C4059 C4061 1.388 . S
C4060 C4059 1.366 . S
C4060 C4064 1.385 . S
C4061 H4036 0.951 . S
C4061 C4059 1.388 . S
C4061 C4062 1.366 . S
C4062 C4061 1.366 . S
C4062 C4063 1.414 . S
C4062 C4065 1.499 . S
C4063 H4037 0.950 . S
C4063 C4062 1.414 . S
C4063 C4064 1.374 . S
C4064 H4038 0.950 . S
C4064 C4060 1.385 . S
C4064 C4063 1.374 . S
C4065 C4062 1.499 . S
C4065 C4066 1.373 . S
C4065 C4067 1.389 . S
C4066 H4039 0.950 . S
C4066 C4052 1.377 . S
C4066 C4065 1.373 . S
C4067 C4051 1.377 . S
C4067 C4065 1.389 . S
C4067 C4068 1.524 . S
C4068 C4067 1.524 . S
C4068 C4069 1.397 . S
C4068 C4073 1.363 . S
C4069 H4040 0.950 . S
C4069 C4068 1.397 . S
C4069 C4070 1.334 . S
C4070 H4041 0.950 . S
C4070 C4069 1.334 . S
C4070 C4071 1.287 . S
C4071 C4070 1.287 . S
C4071 C4072 1.524 . S
C4071 H4074 0.999 . S
C4072 H4042 0.950 . S
C4072 C4071 1.524 . S
C4072 C4073 1.415 . S
C4073 H4043 0.950 . S
C4073 C4068 1.363 . S
C4073 C4072 1.415 . S
H4074 C4071 0.999 . S
H4075 C4056 0.913 . S
H4076 C4094 0.951 . S
H4077 C4096 0.951 . S
H4078 C4098 0.950 . S
H4079 C4099 0.950 . S
H4080 C4101 0.950 . S
H4081 C4104 0.950 . S
H4082 C4105 0.950 . S
H4083 C4107 0.950 . S
H4084 C4108 0.950 . S
H4085 C4109 0.951 . S
H4086 C4111 0.951 . S
H4087 C4113 0.950 . S
H4088 C4114 0.950 . S
H4089 C4116 0.950 . S
H4090 C4119 0.950 . S
H4091 C4120 0.950 . S
H4092 C4122 0.950 . S
H4093 C4123 0.950 . S
C4094 H4076 0.951 . S
C4094 C4095 1.366 . S
C4094 C4096 1.388 . S
C4095 C4094 1.366 . S
C4095 C4099 1.385 . S
C4096 H4077 0.951 . S
C4096 C4094 1.388 . S
C4096 C4097 1.366 . S
C4097 C4096 1.366 . S
C4097 C4098 1.414 . S
C4097 C4100 1.499 . S
C4098 H4078 0.950 . S
C4098 C4097 1.414 . S
C4098 C4099 1.374 . S
C4099 H4079 0.950 . S
C4099 C4095 1.385 . S
C4099 C4098 1.374 . S
C4100 C4097 1.499 . S
C4100 C4101 1.373 . S
C4100 C4102 1.389 . S
C4101 H4080 0.950 . S
C4101 C4100 1.373 . S
C4101 C4117 1.377 . S
C4102 C4100 1.389 . S
C4102 C4103 1.524 . S
C4102 C4116 1.377 . S
C4103 C4102 1.524 . S
C4103 C4104 1.397 . S
C4103 C4108 1.363 . S
C4104 H4081 0.950 . S
C4104 C4103 1.397 . S
C4104 C4105 1.334 . S
C4105 H4082 0.950 . S
C4105 C4104 1.334 . S
C4105 C4106 1.287 . S
C4106 C4105 1.287 . S
C4106 C4107 1.524 . S
C4106 H4125 0.913 . S
C4107 H4083 0.950 . S
C4107 C4106 1.524 . S
C4107 C4108 1.415 . S
C4108 H4084 0.950 . S
C4108 C4103 1.363 . S
C4108 C4107 1.415 . S
C4109 H4085 0.951 . S
C4109 C4110 1.366 . S
C4109 C4111 1.388 . S
C4110 C4109 1.366 . S
C4110 C4114 1.385 . S
C4111 H4086 0.951 . S
C4111 C4109 1.388 . S
C4111 C4112 1.366 . S
C4112 C4111 1.366 . S
C4112 C4113 1.414 . S
C4112 C4115 1.499 . S
C4113 H4087 0.950 . S
C4113 C4112 1.414 . S
C4113 C4114 1.374 . S
C4114 H4088 0.950 . S
C4114 C4110 1.385 . S
C4114 C4113 1.374 . S
C4115 C4112 1.499 . S
C4115 C4116 1.373 . S
C4115 C4117 1.389 . S
C4116 H4089 0.950 . S
C4116 C4102 1.377 . S
C4116 C4115 1.373 . S
C4117 C4101 1.377 . S
C4117 C4115 1.389 . S
C4117 C4118 1.524 . S
C4118 C4117 1.524 . S
C4118 C4119 1.397 . S
C4118 C4123 1.363 . S
C4119 H4090 0.950 . S
C4119 C4118 1.397 . S
C4119 C4120 1.334 . S
C4120 H4091 0.950 . S
C4120 C4119 1.334 . S
C4120 C4121 1.287 . S
C4121 C4120 1.287 . S
C4121 C4122 1.524 . S
C4121 H4124 0.999 . S
C4122 H4092 0.950 . S
C4122 C4121 1.524 . S
C4122 C4123 1.415 . S
C4123 H4093 0.950 . S
C4123 C4118 1.363 . S
C4123 C4122 1.415 . S
H4124 C4121 0.999 . S
H4125 C4106 0.913 . S
H4126 C4144 0.951 . S
H4127 C4146 0.951 . S
H4128 C4148 0.950 . S
H4129 C4149 0.950 . S
H4130 C4151 0.950 . S
H4131 C4154 0.950 . S
H4132 C4155 0.950 . S
H4133 C4157 0.950 . S
H4134 C4158 0.950 . S
H4135 C4159 0.951 . S
H4136 C4161 0.951 . S
H4137 C4163 0.950 . S
H4138 C4164 0.950 . S
H4139 C4166 0.950 . S
H4140 C4169 0.950 . S
H4141 C4170 0.950 . S
H4142 C4172 0.950 . S
H4143 C4173 0.950 . S
C4144 H4126 0.951 . S
C4144 C4145 1.366 . S
C4144 C4146 1.388 . S
C4145 C4144 1.366 . S
C4145 C4149 1.385 . S
C4146 H4127 0.951 . S
C4146 C4144 1.388 . S
C4146 C4147 1.366 . S
C4147 C4146 1.366 . S
C4147 C4148 1.414 . S
C4147 C4150 1.499 . S
C4148 H4128 0.950 . S
C4148 C4147 1.414 . S
C4148 C4149 1.374 . S
C4149 H4129 0.950 . S
C4149 C4145 1.385 . S
C4149 C4148 1.374 . S
C4150 C4147 1.499 . S
C4150 C4151 1.373 . S
C4150 C4152 1.389 . S
C4151 H4130 0.950 . S
C4151 C4150 1.373 . S
C4151 C4167 1.377 . S
C4152 C4150 1.389 . S
C4152 C4153 1.524 . S
C4152 C4166 1.377 . S
C4153 C4152 1.524 . S
C4153 C4154 1.397 . S
C4153 C4158 1.363 . S
C4154 H4131 0.950 . S
C4154 C4153 1.397 . S
C4154 C4155 1.334 . S
C4155 H4132 0.950 . S
C4155 C4154 1.334 . S
C4155 C4156 1.287 . S
C4156 C4155 1.287 . S
C4156 C4157 1.524 . S
C4156 H4175 0.913 . S
C4157 H4133 0.950 . S
C4157 C4156 1.524 . S
C4157 C4158 1.415 . S
C4158 H4134 0.950 . S
C4158 C4153 1.363 . S
C4158 C4157 1.415 . S
C4159 H4135 0.951 . S
C4159 C4160 1.366 . S
C4159 C4161 1.388 . S
C4160 C4159 1.366 . S
C4160 C4164 1.385 . S
C4161 H4136 0.951 . S
C4161 C4159 1.388 . S
C4161 C4162 1.366 . S
C4162 C4161 1.366 . S
C4162 C4163 1.414 . S
C4162 C4165 1.499 . S
C4163 H4137 0.950 . S
C4163 C4162 1.414 . S
C4163 C4164 1.374 . S
C4164 H4138 0.950 . S
C4164 C4160 1.385 . S
C4164 C4163 1.374 . S
C4165 C4162 1.499 . S
C4165 C4166 1.373 . S
C4165 C4167 1.389 . S
C4166 H4139 0.950 . S
C4166 C4152 1.377 . S
C4166 C4165 1.373 . S
C4167 C4151 1.377 . S
C4167 C4165 1.389 . S
C4167 C4168 1.524 . S
C4168 C4167 1.524 . S
C4168 C4169 1.397 . S
C4168 C4173 1.363 . S
C4169 H4140 0.950 . S
C4169 C4168 1.397 . S
C4169 C4170 1.334 . S
C4170 H4141 0.950 . S
C4170 C4169 1.334 . S
C4170 C4171 1.287 . S
C4171 C4170 1.287 . S
C4171 C4172 1.524 . S
C4171 H4174 0.999 . S
C4172 H4142 0.950 . S
C4172 C4171 1.524 . S
C4172 C4173 1.415 . S
C4173 H4143 0.950 . S
C4173 C4168 1.363 . S
C4173 C4172 1.415 . S
H4174 C4171 0.999 . S
H4175 C4156 0.913 . S
H4176 C4194 0.951 . S
H4177 C4196 0.951 . S
H4178 C4198 0.950 . S
H4179 C4199 0.950 . S
H4180 C4201 0.950 . S
H4181 C4204 0.950 . S
H4182 C4205 0.950 . S
H4183 C4207 0.950 . S
H4184 C4208 0.950 . S
H4185 C4209 0.951 . S
H4186 C4211 0.951 . S
H4187 C4213 0.950 . S
H4188 C4214 0.950 . S
H4189 C4216 0.950 . S
H4190 C4219 0.950 . S
H4191 C4220 0.950 . S
H4192 C4222 0.950 . S
H4193 C4223 0.950 . S
C4194 H4176 0.951 . S
C4194 C4195 1.366 . S
C4194 C4196 1.388 . S
C4195 C4194 1.366 . S
C4195 C4199 1.385 . S
C4196 H4177 0.951 . S
C4196 C4194 1.388 . S
C4196 C4197 1.366 . S
C4197 C4196 1.366 . S
C4197 C4198 1.414 . S
C4197 C4200 1.499 . S
C4198 H4178 0.950 . S
C4198 C4197 1.414 . S
C4198 C4199 1.374 . S
C4199 H4179 0.950 . S
C4199 C4195 1.385 . S
C4199 C4198 1.374 . S
C4200 C4197 1.499 . S
C4200 C4201 1.373 . S
C4200 C4202 1.389 . S
C4201 H4180 0.950 . S
C4201 C4200 1.373 . S
C4201 C4217 1.377 . S
C4202 C4200 1.389 . S
C4202 C4203 1.524 . S
C4202 C4216 1.377 . S
C4203 C4202 1.524 . S
C4203 C4204 1.397 . S
C4203 C4208 1.363 . S
C4204 H4181 0.950 . S
C4204 C4203 1.397 . S
C4204 C4205 1.334 . S
C4205 H4182 0.950 . S
C4205 C4204 1.334 . S
C4205 C4206 1.287 . S
C4206 C4205 1.287 . S
C4206 C4207 1.524 . S
C4206 H4225 0.913 . S
C4207 H4183 0.950 . S
C4207 C4206 1.524 . S
C4207 C4208 1.415 . S
C4208 H4184 0.950 . S
C4208 C4203 1.363 . S
C4208 C4207 1.415 . S
C4209 H4185 0.951 . S
C4209 C4210 1.366 . S
C4209 C4211 1.388 . S
C4210 C4209 1.366 . S
C4210 C4214 1.385 . S
C4211 H4186 0.951 . S
C4211 C4209 1.388 . S
C4211 C4212 1.366 . S
C4212 C4211 1.366 . S
C4212 C4213 1.414 . S
C4212 C4215 1.499 . S
C4213 H4187 0.950 . S
C4213 C4212 1.414 . S
C4213 C4214 1.374 . S
C4214 H4188 0.950 . S
C4214 C4210 1.385 . S
C4214 C4213 1.374 . S
C4215 C4212 1.499 . S
C4215 C4216 1.373 . S
C4215 C4217 1.389 . S
C4216 H4189 0.950 . S
C4216 C4202 1.377 . S
C4216 C4215 1.373 . S
C4217 C4201 1.377 . S
C4217 C4215 1.389 . S
C4217 C4218 1.524 . S
C4218 C4217 1.524 . S
C4218 C4219 1.397 . S
C4218 C4223 1.363 . S
C4219 H4190 0.950 . S
C4219 C4218 1.397 . S
C4219 C4220 1.334 . S
C4220 H4191 0.950 . S
C4220 C4219 1.334 . S
C4220 C4221 1.287 . S
C4221 C4220 1.287 . S
C4221 C4222 1.524 . S
C4221 H4224 0.999 . S
C4222 H4192 0.950 . S
C4222 C4221 1.524 . S
C4222 C4223 1.415 . S
C4223 H4193 0.950 . S
C4223 C4218 1.363 . S
C4223 C4222 1.415 . S
H4224 C4221 0.999 . S
H4225 C4206 0.913 . S
H4226 C4244 0.951 . S
H4227 C4246 0.951 . S
H4228 C4248 0.950 . S
H4229 C4249 0.950 . S
H4230 C4251 0.950 . S
H4231 C4254 0.950 . S
H4232 C4255 0.950 . S
H4233 C4257 0.950 . S
H4234 C4258 0.950 . S
H4235 C4259 0.951 . S
H4236 C4261 0.951 . S
H4237 C4263 0.950 . S
H4238 C4264 0.950 . S
H4239 C4266 0.950 . S
H4240 C4269 0.950 . S
H4241 C4270 0.950 . S
H4242 C4272 0.950 . S
H4243 C4273 0.950 . S
C4244 H4226 0.951 . S
C4244 C4245 1.366 . S
C4244 C4246 1.388 . S
C4245 C4244 1.366 . S
C4245 C4249 1.385 . S
C4246 H4227 0.951 . S
C4246 C4244 1.388 . S
C4246 C4247 1.366 . S
C4247 C4246 1.366 . S
C4247 C4248 1.414 . S
C4247 C4250 1.499 . S
C4248 H4228 0.950 . S
C4248 C4247 1.414 . S
C4248 C4249 1.374 . S
C4249 H4229 0.950 . S
C4249 C4245 1.385 . S
C4249 C4248 1.374 . S
C4250 C4247 1.499 . S
C4250 C4251 1.373 . S
C4250 C4252 1.389 . S
C4251 H4230 0.950 . S
C4251 C4250 1.373 . S
C4251 C4267 1.377 . S
C4252 C4250 1.389 . S
C4252 C4253 1.524 . S
C4252 C4266 1.377 . S
C4253 C4252 1.524 . S
C4253 C4254 1.397 . S
C4253 C4258 1.363 . S
C4254 H4231 0.950 . S
C4254 C4253 1.397 . S
C4254 C4255 1.334 . S
C4255 H4232 0.950 . S
C4255 C4254 1.334 . S
C4255 C4256 1.287 . S
C4256 C4255 1.287 . S
C4256 C4257 1.524 . S
C4256 H4275 0.913 . S
C4257 H4233 0.950 . S
C4257 C4256 1.524 . S
C4257 C4258 1.415 . S
C4258 H4234 0.950 . S
C4258 C4253 1.363 . S
C4258 C4257 1.415 . S
C4259 H4235 0.951 . S
C4259 C4260 1.366 . S
C4259 C4261 1.388 . S
C4260 C4259 1.366 . S
C4260 C4264 1.385 . S
C4261 H4236 0.951 . S
C4261 C4259 1.388 . S
C4261 C4262 1.366 . S
C4262 C4261 1.366 . S
C4262 C4263 1.414 . S
C4262 C4265 1.499 . S
C4263 H4237 0.950 . S
C4263 C4262 1.414 . S
C4263 C4264 1.374 . S
C4264 H4238 0.950 . S
C4264 C4260 1.385 . S
C4264 C4263 1.374 . S
C4265 C4262 1.499 . S
C4265 C4266 1.373 . S
C4265 C4267 1.389 . S
C4266 H4239 0.950 . S
C4266 C4252 1.377 . S
C4266 C4265 1.373 . S
C4267 C4251 1.377 . S
C4267 C4265 1.389 . S
C4267 C4268 1.524 . S
C4268 C4267 1.524 . S
C4268 C4269 1.397 . S
C4268 C4273 1.363 . S
C4269 H4240 0.950 . S
C4269 C4268 1.397 . S
C4269 C4270 1.334 . S
C4270 H4241 0.950 . S
C4270 C4269 1.334 . S
C4270 C4271 1.287 . S
C4271 C4270 1.287 . S
C4271 C4272 1.524 . S
C4271 H4274 0.999 . S
C4272 H4242 0.950 . S
C4272 C4271 1.524 . S
C4272 C4273 1.415 . S
C4273 H4243 0.950 . S
C4273 C4268 1.363 . S
C4273 C4272 1.415 . S
H4274 C4271 0.999 . S
H4275 C4256 0.913 . S
H4276 C4294 0.951 . S
H4277 C4296 0.951 . S
H4278 C4298 0.950 . S
H4279 C4299 0.950 . S
H4280 C4301 0.950 . S
H4281 C4304 0.950 . S
H4282 C4305 0.950 . S
H4283 C4307 0.950 . S
H4284 C4308 0.950 . S
H4285 C4309 0.951 . S
H4286 C4311 0.951 . S
H4287 C4313 0.950 . S
H4288 C4314 0.950 . S
H4289 C4316 0.950 . S
H4290 C4319 0.950 . S
H4291 C4320 0.950 . S
H4292 C4322 0.950 . S
H4293 C4323 0.950 . S
C4294 H4276 0.951 . S
C4294 C4295 1.366 . S
C4294 C4296 1.388 . S
C4295 C4294 1.366 . S
C4295 C4299 1.385 . S
C4296 H4277 0.951 . S
C4296 C4294 1.388 . S
C4296 C4297 1.366 . S
C4297 C4296 1.366 . S
C4297 C4298 1.414 . S
C4297 C4300 1.499 . S
C4298 H4278 0.950 . S
C4298 C4297 1.414 . S
C4298 C4299 1.374 . S
C4299 H4279 0.950 . S
C4299 C4295 1.385 . S
C4299 C4298 1.374 . S
C4300 C4297 1.499 . S
C4300 C4301 1.373 . S
C4300 C4302 1.389 . S
C4301 H4280 0.950 . S
C4301 C4300 1.373 . S
C4301 C4317 1.377 . S
C4302 C4300 1.389 . S
C4302 C4303 1.524 . S
C4302 C4316 1.377 . S
C4303 C4302 1.524 . S
C4303 C4304 1.397 . S
C4303 C4308 1.363 . S
C4304 H4281 0.950 . S
C4304 C4303 1.397 . S
C4304 C4305 1.334 . S
C4305 H4282 0.950 . S
C4305 C4304 1.334 . S
C4305 C4306 1.287 . S
C4306 C4305 1.287 . S
C4306 C4307 1.524 . S
C4306 H4325 0.913 . S
C4307 H4283 0.950 . S
C4307 C4306 1.524 . S
C4307 C4308 1.415 . S
C4308 H4284 0.950 . S
C4308 C4303 1.363 . S
C4308 C4307 1.415 . S
C4309 H4285 0.951 . S
C4309 C4310 1.366 . S
C4309 C4311 1.388 . S
C4310 C4309 1.366 . S
C4310 C4314 1.385 . S
C4311 H4286 0.951 . S
C4311 C4309 1.388 . S
C4311 C4312 1.366 . S
C4312 C4311 1.366 . S
C4312 C4313 1.414 . S
C4312 C4315 1.499 . S
C4313 H4287 0.950 . S
C4313 C4312 1.414 . S
C4313 C4314 1.374 . S
C4314 H4288 0.950 . S
C4314 C4310 1.385 . S
C4314 C4313 1.374 . S
C4315 C4312 1.499 . S
C4315 C4316 1.373 . S
C4315 C4317 1.389 . S
C4316 H4289 0.950 . S
C4316 C4302 1.377 . S
C4316 C4315 1.373 . S
C4317 C4301 1.377 . S
C4317 C4315 1.389 . S
C4317 C4318 1.524 . S
C4318 C4317 1.524 . S
C4318 C4319 1.397 . S
C4318 C4323 1.363 . S
C4319 H4290 0.950 . S
C4319 C4318 1.397 . S
C4319 C4320 1.334 . S
C4320 H4291 0.950 . S
C4320 C4319 1.334 . S
C4320 C4321 1.287 . S
C4321 C4320 1.287 . S
C4321 C4322 1.524 . S
C4321 H4324 0.999 . S
C4322 H4292 0.950 . S
C4322 C4321 1.524 . S
C4322 C4323 1.415 . S
C4323 H4293 0.950 . S
C4323 C4318 1.363 . S
C4323 C4322 1.415 . S
H4324 C4321 0.999 . S
H4325 C4306 0.913 . S
H4326 C4344 0.951 . S
H4327 C4346 0.951 . S
H4328 C4348 0.950 . S
H4329 C4349 0.950 . S
H4330 C4351 0.987 . S
H4331 C4354 0.950 . S
H4332 C4355 0.950 . S
H4333 C4357 0.950 . S
H4334 C4358 0.950 . S
H4335 C4359 0.951 . S
H4336 C4361 0.951 . S
H4337 C4363 0.950 . S
H4338 C4364 0.950 . S
H4339 C4366 0.950 . S
H4340 C4369 0.950 . S
H4341 C4370 0.950 . S
H4342 C4372 0.950 . S
H4343 C4373 0.950 1_554 S
C4344 H4326 0.951 . S
C4344 C4345 1.366 . S
C4344 C4346 1.388 . S
C4345 C4344 1.366 . S
C4345 C4349 1.385 . S
C4346 H4327 0.951 . S
C4346 C4344 1.388 . S
C4346 C4347 1.366 . S
C4347 C4346 1.366 . S
C4347 C4348 1.414 . S
C4347 C4350 1.499 . S
C4348 H4328 0.950 . S
C4348 C4347 1.414 . S
C4348 C4349 1.374 . S
C4349 H4329 0.950 . S
C4349 C4345 1.385 . S
C4349 C4348 1.374 . S
C4350 C4347 1.499 . S
C4350 C4351 1.373 . S
C4350 C4352 1.389 . S
C4351 H4330 0.987 . S
C4351 C4350 1.373 . S
C4351 C4367 1.377 . S
C4352 C4350 1.389 . S
C4352 C4353 1.524 . S
C4352 C4366 1.377 . S
C4353 C4352 1.524 . S
C4353 C4354 1.397 . S
C4353 C4358 1.363 . S
C4354 H4331 0.950 . S
C4354 C4353 1.397 . S
C4354 C4355 1.334 . S
C4355 H4332 0.950 . S
C4355 C4354 1.334 . S
C4355 C4356 1.287 . S
C4356 C4355 1.287 . S
C4356 C4357 1.524 . S
C4356 H4375 0.913 . S
C4357 H4333 0.950 . S
C4357 C4356 1.524 . S
C4357 C4358 1.415 . S
C4358 H4334 0.950 . S
C4358 C4353 1.363 . S
C4358 C4357 1.415 . S
C4359 H4335 0.951 . S
C4359 C4360 1.366 . S
C4359 C4361 1.388 . S
C4360 C4359 1.366 . S
C4360 C4364 1.385 . S
C4361 H4336 0.951 . S
C4361 C4359 1.388 . S
C4361 C4362 1.366 . S
C4362 C4361 1.366 . S
C4362 C4363 1.414 . S
C4362 C4365 1.499 . S
C4363 H4337 0.950 . S
C4363 C4362 1.414 . S
C4363 C4364 1.374 . S
C4364 H4338 0.950 . S
C4364 C4360 1.385 . S
C4364 C4363 1.374 . S
C4365 C4362 1.499 . S
C4365 C4366 1.373 . S
C4365 C4367 1.389 . S
C4366 H4339 0.950 . S
C4366 C4352 1.377 . S
C4366 C4365 1.373 . S
C4367 C4351 1.377 . S
C4367 C4365 1.389 . S
C4367 C4368 1.524 1_554 S
C4368 C4367 1.524 1_556 S
C4368 C4369 1.397 . S
C4368 C4373 1.363 . S
C4369 H4340 0.950 . S
C4369 C4368 1.397 . S
C4369 C4370 1.334 . S
C4370 H4341 0.950 . S
C4370 C4369 1.334 . S
C4370 C4371 1.287 . S
C4371 C4370 1.287 . S
C4371 C4372 1.524 . S
C4371 H4374 0.999 . S
C4372 H4342 0.950 . S
C4372 C4371 1.524 . S
C4372 C4373 1.415 . S
C4373 H4343 0.950 1_556 S
C4373 C4368 1.363 . S
C4373 C4372 1.415 . S
H4374 C4371 0.999 . S
H4375 C4356 0.913 . S
H4376 C4394 0.951 . S
H4377 C4396 0.951 . S
H4378 C4398 0.950 . S
H4379 C4399 0.950 . S
H4380 C4401 0.950 . S
H4381 C4404 0.950 . S
H4382 C4405 0.950 . S
H4383 C4407 0.950 . S
H4384 C4408 0.950 . S
H4385 C4409 0.951 . S
H4386 C4411 0.951 . S
H4387 C4413 0.950 . S
H4388 C4414 0.950 . S
H4389 C4416 0.950 . S
H4390 C4419 0.950 . S
H4391 C4420 0.950 . S
H4392 C4422 0.950 . S
H4393 C4423 0.950 . S
C4394 H4376 0.951 . S
C4394 C4395 1.366 . S
C4394 C4396 1.388 . S
C4395 C4394 1.366 . S
C4395 C4399 1.385 . S
C4396 H4377 0.951 . S
C4396 C4394 1.388 . S
C4396 C4397 1.366 . S
C4397 C4396 1.366 . S
C4397 C4398 1.414 . S
C4397 C4400 1.499 . S
C4398 H4378 0.950 . S
C4398 C4397 1.414 . S
C4398 C4399 1.374 . S
C4399 H4379 0.950 . S
C4399 C4395 1.385 . S
C4399 C4398 1.374 . S
C4400 C4397 1.499 . S
C4400 C4401 1.373 . S
C4400 C4402 1.389 . S
C4401 H4380 0.950 . S
C4401 C4400 1.373 . S
C4401 C4417 1.377 . S
C4402 C4400 1.389 . S
C4402 C4403 1.524 . S
C4402 C4416 1.377 . S
C4403 C4402 1.524 . S
C4403 C4404 1.397 . S
C4403 C4408 1.363 . S
C4404 H4381 0.950 . S
C4404 C4403 1.397 . S
C4404 C4405 1.334 . S
C4405 H4382 0.950 . S
C4405 C4404 1.334 . S
C4405 C4406 1.287 . S
C4406 C4405 1.287 . S
C4406 C4407 1.524 . S
C4406 H4425 0.913 . S
C4407 H4383 0.950 . S
C4407 C4406 1.524 . S
C4407 C4408 1.415 . S
C4408 H4384 0.950 . S
C4408 C4403 1.363 . S
C4408 C4407 1.415 . S
C4409 H4385 0.951 . S
C4409 C4410 1.366 . S
C4409 C4411 1.388 . S
C4410 C4409 1.366 . S
C4410 C4414 1.385 . S
C4411 H4386 0.951 . S
C4411 C4409 1.388 . S
C4411 C4412 1.366 . S
C4412 C4411 1.366 . S
C4412 C4413 1.414 . S
C4412 C4415 1.499 . S
C4413 H4387 0.950 . S
C4413 C4412 1.414 . S
C4413 C4414 1.374 . S
C4414 H4388 0.950 . S
C4414 C4410 1.385 . S
C4414 C4413 1.374 . S
C4415 C4412 1.499 . S
C4415 C4416 1.373 . S
C4415 C4417 1.389 . S
C4416 H4389 0.950 . S
C4416 C4402 1.377 . S
C4416 C4415 1.373 . S
C4417 C4401 1.377 . S
C4417 C4415 1.389 . S
C4417 C4418 1.524 . S
C4418 C4417 1.524 . S
C4418 C4419 1.397 . S
C4418 C4423 1.363 . S
C4419 H4390 0.950 . S
C4419 C4418 1.397 . S
C4419 C4420 1.334 . S
C4420 H4391 0.950 . S
C4420 C4419 1.334 . S
C4420 C4421 1.287 . S
C4421 C4420 1.287 . S
C4421 C4422 1.524 . S
C4421 H4424 0.999 . S
C4422 H4392 0.950 . S
C4422 C4421 1.524 . S
C4422 C4423 1.415 . S
C4423 H4393 0.950 . S
C4423 C4418 1.363 . S
C4423 C4422 1.415 . S
H4424 C4421 0.999 . S
H4425 C4406 0.913 . S
H4426 C4444 0.951 . S
H4427 C4446 0.951 . S
H4428 C4448 0.950 . S
H4429 C4449 0.950 . S
H4430 C4451 0.950 . S
H4431 C4454 0.950 . S
H4432 C4455 0.950 . S
H4433 C4457 0.950 . S
H4434 C4458 0.950 . S
H4435 C4459 0.951 . S
H4436 C4461 0.951 . S
H4437 C4463 0.950 . S
H4438 C4464 0.950 . S
H4439 C4466 0.950 . S
H4440 C4469 0.950 . S
H4441 C4470 0.950 . S
H4442 C4472 0.950 . S
H4443 C4473 0.950 . S
C4444 H4426 0.951 . S
C4444 C4445 1.366 . S
C4444 C4446 1.388 . S
C4445 C4444 1.366 . S
C4445 C4449 1.385 . S
C4446 H4427 0.951 . S
C4446 C4444 1.388 . S
C4446 C4447 1.366 . S
C4447 C4446 1.366 . S
C4447 C4448 1.414 . S
C4447 C4450 1.499 . S
C4448 H4428 0.950 . S
C4448 C4447 1.414 . S
C4448 C4449 1.374 . S
C4449 H4429 0.950 . S
C4449 C4445 1.385 . S
C4449 C4448 1.374 . S
C4450 C4447 1.499 . S
C4450 C4451 1.373 . S
C4450 C4452 1.389 . S
C4451 H4430 0.950 . S
C4451 C4450 1.373 . S
C4451 C4467 1.377 . S
C4452 C4450 1.389 . S
C4452 C4453 1.524 . S
C4452 C4466 1.377 . S
C4453 C4452 1.524 . S
C4453 C4454 1.397 . S
C4453 C4458 1.363 . S
C4454 H4431 0.950 . S
C4454 C4453 1.397 . S
C4454 C4455 1.334 . S
C4455 H4432 0.950 . S
C4455 C4454 1.334 . S
C4455 C4456 1.287 . S
C4456 C4455 1.287 . S
C4456 C4457 1.524 . S
C4456 H4475 0.913 . S
C4457 H4433 0.950 . S
C4457 C4456 1.524 . S
C4457 C4458 1.415 . S
C4458 H4434 0.950 . S
C4458 C4453 1.363 . S
C4458 C4457 1.415 . S
C4459 H4435 0.951 . S
C4459 C4460 1.366 . S
C4459 C4461 1.388 . S
C4460 C4459 1.366 . S
C4460 C4464 1.385 . S
C4461 H4436 0.951 . S
C4461 C4459 1.388 . S
C4461 C4462 1.366 . S
C4462 C4461 1.366 . S
C4462 C4463 1.414 . S
C4462 C4465 1.499 . S
C4463 H4437 0.950 . S
C4463 C4462 1.414 . S
C4463 C4464 1.374 . S
C4464 H4438 0.950 . S
C4464 C4460 1.385 . S
C4464 C4463 1.374 . S
C4465 C4462 1.499 . S
C4465 C4466 1.373 . S
C4465 C4467 1.389 . S
C4466 H4439 0.950 . S
C4466 C4452 1.377 . S
C4466 C4465 1.373 . S
C4467 C4451 1.377 . S
C4467 C4465 1.389 . S
C4467 C4468 1.524 . S
C4468 C4467 1.524 . S
C4468 C4469 1.397 . S
C4468 C4473 1.363 . S
C4469 H4440 0.950 . S
C4469 C4468 1.397 . S
C4469 C4470 1.334 . S
C4470 H4441 0.950 . S
C4470 C4469 1.334 . S
C4470 C4471 1.287 . S
C4471 C4470 1.287 . S
C4471 C4472 1.524 . S
C4471 H4474 0.999 . S
C4472 H4442 0.950 . S
C4472 C4471 1.524 . S
C4472 C4473 1.415 . S
C4473 H4443 0.950 . S
C4473 C4468 1.363 . S
C4473 C4472 1.415 . S
H4474 C4471 0.999 . S
H4475 C4456 0.913 . S
H4476 C4494 0.951 . S
H4477 C4496 0.951 . S
H4478 C4498 0.950 . S
H4479 C4499 0.950 . S
H4480 C4501 0.950 . S
H4481 C4504 0.950 . S
H4482 C4505 0.950 . S
H4483 C4507 0.950 . S
H4484 C4508 0.950 . S
H4485 C4509 0.951 . S
H4486 C4511 0.951 . S
H4487 C4513 0.950 . S
H4488 C4514 0.950 . S
H4489 C4516 0.950 . S
H4490 C4519 0.950 . S
H4491 C4520 0.950 . S
H4492 C4522 0.950 . S
H4493 C4523 0.950 . S
C4494 H4476 0.951 . S
C4494 C4495 1.366 . S
C4494 C4496 1.388 . S
C4495 C4494 1.366 . S
C4495 C4499 1.385 . S
C4496 H4477 0.951 . S
C4496 C4494 1.388 . S
C4496 C4497 1.366 . S
C4497 C4496 1.366 . S
C4497 C4498 1.414 . S
C4497 C4500 1.499 . S
C4498 H4478 0.950 . S
C4498 C4497 1.414 . S
C4498 C4499 1.374 . S
C4499 H4479 0.950 . S
C4499 C4495 1.385 . S
C4499 C4498 1.374 . S
C4500 C4497 1.499 . S
C4500 C4501 1.373 . S
C4500 C4502 1.389 . S
C4501 H4480 0.950 . S
C4501 C4500 1.373 . S
C4501 C4517 1.377 . S
C4502 C4500 1.389 . S
C4502 C4503 1.524 . S
C4502 C4516 1.377 . S
C4503 C4502 1.524 . S
C4503 C4504 1.397 . S
C4503 C4508 1.363 . S
C4504 H4481 0.950 . S
C4504 C4503 1.397 . S
C4504 C4505 1.334 . S
C4505 H4482 0.950 . S
C4505 C4504 1.334 . S
C4505 C4506 1.287 . S
C4506 C4505 1.287 . S
C4506 C4507 1.524 . S
C4506 H4525 0.913 . S
C4507 H4483 0.950 . S
C4507 C4506 1.524 . S
C4507 C4508 1.415 . S
C4508 H4484 0.950 . S
C4508 C4503 1.363 . S
C4508 C4507 1.415 . S
C4509 H4485 0.951 . S
C4509 C4510 1.366 . S
C4509 C4511 1.388 . S
C4510 C4509 1.366 . S
C4510 C4514 1.385 . S
C4511 H4486 0.951 . S
C4511 C4509 1.388 . S
C4511 C4512 1.366 . S
C4512 C4511 1.366 . S
C4512 C4513 1.414 . S
C4512 C4515 1.499 . S
C4513 H4487 0.950 . S
C4513 C4512 1.414 . S
C4513 C4514 1.374 . S
C4514 H4488 0.950 . S
C4514 C4510 1.385 . S
C4514 C4513 1.374 . S
C4515 C4512 1.499 . S
C4515 C4516 1.373 . S
C4515 C4517 1.389 . S
C4516 H4489 0.950 . S
C4516 C4502 1.377 . S
C4516 C4515 1.373 . S
C4517 C4501 1.377 . S
C4517 C4515 1.389 . S
C4517 C4518 1.524 . S
C4518 C4517 1.524 . S
C4518 C4519 1.397 . S
C4518 C4523 1.363 . S
C4519 H4490 0.950 . S
C4519 C4518 1.397 . S
C4519 C4520 1.334 . S
C4520 H4491 0.950 . S
C4520 C4519 1.334 . S
C4520 C4521 1.287 . S
C4521 C4520 1.287 . S
C4521 C4522 1.524 . S
C4521 H4524 0.999 . S
C4522 H4492 0.950 . S
C4522 C4521 1.524 . S
C4522 C4523 1.415 . S
C4523 H4493 0.950 . S
C4523 C4518 1.363 . S
C4523 C4522 1.415 . S
H4524 C4521 0.999 . S
H4525 C4506 0.913 . S
H4526 C4544 0.951 . S
H4527 C4546 0.951 . S
H4528 C4548 0.950 . S
H4529 C4549 0.950 . S
H4530 C4551 0.950 . S
H4531 C4554 0.950 . S
H4532 C4555 0.950 . S
H4533 C4557 0.950 . S
H4534 C4558 0.950 . S
H4535 C4559 0.951 . S
H4536 C4561 0.951 . S
H4537 C4563 0.950 . S
H4538 C4564 0.950 . S
H4539 C4566 0.950 . S
H4540 C4569 0.950 . S
H4541 C4570 0.950 . S
H4542 C4572 0.950 . S
H4543 C4573 0.950 . S
C4544 H4526 0.951 . S
C4544 C4545 1.366 . S
C4544 C4546 1.388 . S
C4545 C4544 1.366 . S
C4545 C4549 1.385 . S
C4546 H4527 0.951 . S
C4546 C4544 1.388 . S
C4546 C4547 1.366 . S
C4547 C4546 1.366 . S
C4547 C4548 1.414 . S
C4547 C4550 1.499 . S
C4548 H4528 0.950 . S
C4548 C4547 1.414 . S
C4548 C4549 1.374 . S
C4549 H4529 0.950 . S
C4549 C4545 1.385 . S
C4549 C4548 1.374 . S
C4550 C4547 1.499 . S
C4550 C4551 1.373 . S
C4550 C4552 1.389 . S
C4551 H4530 0.950 . S
C4551 C4550 1.373 . S
C4551 C4567 1.377 . S
C4552 C4550 1.389 . S
C4552 C4553 1.524 . S
C4552 C4566 1.377 . S
C4553 C4552 1.524 . S
C4553 C4554 1.397 . S
C4553 C4558 1.363 . S
C4554 H4531 0.950 . S
C4554 C4553 1.397 . S
C4554 C4555 1.334 . S
C4555 H4532 0.950 . S
C4555 C4554 1.334 . S
C4555 C4556 1.287 . S
C4556 C4555 1.287 . S
C4556 C4557 1.524 . S
C4556 H4575 0.913 . S
C4557 H4533 0.950 . S
C4557 C4556 1.524 . S
C4557 C4558 1.415 . S
C4558 H4534 0.950 . S
C4558 C4553 1.363 . S
C4558 C4557 1.415 . S
C4559 H4535 0.951 . S
C4559 C4560 1.366 . S
C4559 C4561 1.388 . S
C4560 C4559 1.366 . S
C4560 C4564 1.385 . S
C4561 H4536 0.951 . S
C4561 C4559 1.388 . S
C4561 C4562 1.366 . S
C4562 C4561 1.366 . S
C4562 C4563 1.414 . S
C4562 C4565 1.499 . S
C4563 H4537 0.950 . S
C4563 C4562 1.414 . S
C4563 C4564 1.374 . S
C4564 H4538 0.950 . S
C4564 C4560 1.385 . S
C4564 C4563 1.374 . S
C4565 C4562 1.499 . S
C4565 C4566 1.373 . S
C4565 C4567 1.389 . S
C4566 H4539 0.950 . S
C4566 C4552 1.377 . S
C4566 C4565 1.373 . S
C4567 C4551 1.377 . S
C4567 C4565 1.389 . S
C4567 C4568 1.524 . S
C4568 C4567 1.524 . S
C4568 C4569 1.397 . S
C4568 C4573 1.363 . S
C4569 H4540 0.950 . S
C4569 C4568 1.397 . S
C4569 C4570 1.334 . S
C4570 H4541 0.950 . S
C4570 C4569 1.334 . S
C4570 C4571 1.287 . S
C4571 C4570 1.287 . S
C4571 C4572 1.524 . S
C4571 H4574 0.999 . S
C4572 H4542 0.950 . S
C4572 C4571 1.524 . S
C4572 C4573 1.415 . S
C4573 H4543 0.950 . S
C4573 C4568 1.363 . S
C4573 C4572 1.415 . S
H4574 C4571 0.999 . S
H4575 C4556 0.913 . S
H4576 C4594 0.951 . S
H4577 C4596 0.951 . S
H4578 C4598 0.950 . S
H4579 C4599 0.950 . S
H4580 C4601 0.950 . S
H4581 C4604 0.950 . S
H4582 C4605 0.950 . S
H4583 C4607 0.950 . S
H4584 C4608 0.950 . S
H4585 C4609 0.951 . S
H4586 C4611 0.951 . S
H4587 C4613 0.950 . S
H4588 C4614 0.950 . S
H4589 C4616 0.950 . S
H4590 C4619 0.950 . S
H4591 C4620 0.950 . S
H4592 C4622 0.950 . S
H4593 C4623 0.950 . S
C4594 H4576 0.951 . S
C4594 C4595 1.366 . S
C4594 C4596 1.388 . S
C4595 C4594 1.366 . S
C4595 C4599 1.385 . S
C4596 H4577 0.951 . S
C4596 C4594 1.388 . S
C4596 C4597 1.366 . S
C4597 C4596 1.366 . S
C4597 C4598 1.414 . S
C4597 C4600 1.499 . S
C4598 H4578 0.950 . S
C4598 C4597 1.414 . S
C4598 C4599 1.374 . S
C4599 H4579 0.950 . S
C4599 C4595 1.385 . S
C4599 C4598 1.374 . S
C4600 C4597 1.499 . S
C4600 C4601 1.373 . S
C4600 C4602 1.389 . S
C4601 H4580 0.950 . S
C4601 C4600 1.373 . S
C4601 C4617 1.377 . S
C4602 C4600 1.389 . S
C4602 C4603 1.524 . S
C4602 C4616 1.377 . S
C4603 C4602 1.524 . S
C4603 C4604 1.397 . S
C4603 C4608 1.363 . S
C4604 H4581 0.950 . S
C4604 C4603 1.397 . S
C4604 C4605 1.334 . S
C4605 H4582 0.950 . S
C4605 C4604 1.334 . S
C4605 C4606 1.287 . S
C4606 C4605 1.287 . S
C4606 C4607 1.524 . S
C4606 H4625 0.913 . S
C4607 H4583 0.950 . S
C4607 C4606 1.524 . S
C4607 C4608 1.415 . S
C4608 H4584 0.950 . S
C4608 C4603 1.363 . S
C4608 C4607 1.415 . S
C4609 H4585 0.951 . S
C4609 C4610 1.366 . S
C4609 C4611 1.388 . S
C4610 C4609 1.366 . S
C4610 C4614 1.385 . S
C4611 H4586 0.951 . S
C4611 C4609 1.388 . S
C4611 C4612 1.366 . S
C4612 C4611 1.366 . S
C4612 C4613 1.414 . S
C4612 C4615 1.499 . S
C4613 H4587 0.950 . S
C4613 C4612 1.414 . S
C4613 C4614 1.374 . S
C4614 H4588 0.950 . S
C4614 C4610 1.385 . S
C4614 C4613 1.374 . S
C4615 C4612 1.499 . S
C4615 C4616 1.373 . S
C4615 C4617 1.389 . S
C4616 H4589 0.950 . S
C4616 C4602 1.377 . S
C4616 C4615 1.373 . S
C4617 C4601 1.377 . S
C4617 C4615 1.389 . S
C4617 C4618 1.524 . S
C4618 C4617 1.524 . S
C4618 C4619 1.397 . S
C4618 C4623 1.363 . S
C4619 H4590 0.950 . S
C4619 C4618 1.397 . S
C4619 C4620 1.334 . S
C4620 H4591 0.950 . S
C4620 C4619 1.334 . S
C4620 C4621 1.287 . S
C4621 C4620 1.287 . S
C4621 C4622 1.524 . S
C4621 H4624 0.999 . S
C4622 H4592 0.950 . S
C4622 C4621 1.524 . S
C4622 C4623 1.415 . S
C4623 H4593 0.950 . S
C4623 C4618 1.363 . S
C4623 C4622 1.415 . S
H4624 C4621 0.999 . S
H4625 C4606 0.913 . S
H4626 C4644 0.951 . S
H4627 C4646 0.951 . S
H4628 C4648 0.950 . S
H4629 C4649 0.950 . S
H4630 C4651 0.950 . S
H4631 C4654 0.950 . S
H4632 C4655 0.950 . S
H4633 C4657 0.950 . S
H4634 C4658 0.950 . S
H4635 C4659 0.951 . S
H4636 C4661 0.951 . S
H4637 C4663 0.950 . S
H4638 C4664 0.950 . S
H4639 C4666 0.950 . S
H4640 C4669 0.950 . S
H4641 C4670 0.950 . S
H4642 C4672 0.950 . S
H4643 C4673 0.950 . S
C4644 H4626 0.951 . S
C4644 C4645 1.366 . S
C4644 C4646 1.388 . S
C4645 C4644 1.366 . S
C4645 C4649 1.385 . S
C4646 H4627 0.951 . S
C4646 C4644 1.388 . S
C4646 C4647 1.366 . S
C4647 C4646 1.366 . S
C4647 C4648 1.414 . S
C4647 C4650 1.499 . S
C4648 H4628 0.950 . S
C4648 C4647 1.414 . S
C4648 C4649 1.374 . S
C4649 H4629 0.950 . S
C4649 C4645 1.385 . S
C4649 C4648 1.374 . S
C4650 C4647 1.499 . S
C4650 C4651 1.373 . S
C4650 C4652 1.389 . S
C4651 H4630 0.950 . S
C4651 C4650 1.373 . S
C4651 C4667 1.377 . S
C4652 C4650 1.389 . S
C4652 C4653 1.524 . S
C4652 C4666 1.377 . S
C4653 C4652 1.524 . S
C4653 C4654 1.397 . S
C4653 C4658 1.363 . S
C4654 H4631 0.950 . S
C4654 C4653 1.397 . S
C4654 C4655 1.334 . S
C4655 H4632 0.950 . S
C4655 C4654 1.334 . S
C4655 C4656 1.287 . S
C4656 C4655 1.287 . S
C4656 C4657 1.524 . S
C4656 H4675 0.913 . S
C4657 H4633 0.950 . S
C4657 C4656 1.524 . S
C4657 C4658 1.415 . S
C4658 H4634 0.950 . S
C4658 C4653 1.363 . S
C4658 C4657 1.415 . S
C4659 H4635 0.951 . S
C4659 C4660 1.366 . S
C4659 C4661 1.388 . S
C4660 C4659 1.366 . S
C4660 C4664 1.385 . S
C4661 H4636 0.951 . S
C4661 C4659 1.388 . S
C4661 C4662 1.366 . S
C4662 C4661 1.366 . S
C4662 C4663 1.414 . S
C4662 C4665 1.499 . S
C4663 H4637 0.950 . S
C4663 C4662 1.414 . S
C4663 C4664 1.374 . S
C4664 H4638 0.950 . S
C4664 C4660 1.385 . S
C4664 C4663 1.374 . S
C4665 C4662 1.499 . S
C4665 C4666 1.373 . S
C4665 C4667 1.389 . S
C4666 H4639 0.950 . S
C4666 C4652 1.377 . S
C4666 C4665 1.373 . S
C4667 C4651 1.377 . S
C4667 C4665 1.389 . S
C4667 C4668 1.524 . S
C4668 C4667 1.524 . S
C4668 C4669 1.397 . S
C4668 C4673 1.363 . S
C4669 H4640 0.950 . S
C4669 C4668 1.397 . S
C4669 C4670 1.334 . S
C4670 H4641 0.950 . S
C4670 C4669 1.334 . S
C4670 C4671 1.287 . S
C4671 C4670 1.287 . S
C4671 C4672 1.524 . S
C4671 H4674 0.999 . S
C4672 H4642 0.950 . S
C4672 C4671 1.524 . S
C4672 C4673 1.415 . S
C4673 H4643 0.950 . S
C4673 C4668 1.363 . S
C4673 C4672 1.415 . S
H4674 C4671 0.999 . S
H4675 C4656 0.913 . S
H4676 C4694 0.951 . S
H4677 C4696 0.951 . S
H4678 C4698 0.950 . S
H4679 C4699 0.950 . S
H4680 C4701 0.950 . S
H4681 C4704 0.950 . S
H4682 C4705 0.950 . S
H4683 C4707 0.950 . S
H4684 C4708 0.950 . S
H4685 C4709 0.951 . S
H4686 C4711 0.951 . S
H4687 C4713 0.950 . S
H4688 C4714 0.950 . S
H4689 C4716 0.950 . S
H4690 C4719 0.950 . S
H4691 C4720 0.950 . S
H4692 C4722 0.950 . S
H4693 C4723 0.950 . S
C4694 H4676 0.951 . S
C4694 C4695 1.366 . S
C4694 C4696 1.388 . S
C4695 C4694 1.366 . S
C4695 C4699 1.385 . S
C4696 H4677 0.951 . S
C4696 C4694 1.388 . S
C4696 C4697 1.366 . S
C4697 C4696 1.366 . S
C4697 C4698 1.414 . S
C4697 C4700 1.499 . S
C4698 H4678 0.950 . S
C4698 C4697 1.414 . S
C4698 C4699 1.374 . S
C4699 H4679 0.950 . S
C4699 C4695 1.385 . S
C4699 C4698 1.374 . S
C4700 C4697 1.499 . S
C4700 C4701 1.373 . S
C4700 C4702 1.389 . S
C4701 H4680 0.950 . S
C4701 C4700 1.373 . S
C4701 C4717 1.377 . S
C4702 C4700 1.389 . S
C4702 C4703 1.524 . S
C4702 C4716 1.377 . S
C4703 C4702 1.524 . S
C4703 C4704 1.397 . S
C4703 C4708 1.363 1_455 S
C4704 H4681 0.950 . S
C4704 C4703 1.397 . S
C4704 C4705 1.334 1_455 S
C4705 H4682 0.950 . S
C4705 C4704 1.334 1_655 S
C4705 C4706 1.287 . S
C4706 C4705 1.287 . S
C4706 C4707 1.524 . S
C4706 H4725 0.913 . S
C4707 H4683 0.950 . S
C4707 C4706 1.524 . S
C4707 C4708 1.415 . S
C4708 H4684 0.950 . S
C4708 C4703 1.363 1_655 S
C4708 C4707 1.415 . S
C4709 H4685 0.951 . S
C4709 C4710 1.366 . S
C4709 C4711 1.388 . S
C4710 C4709 1.366 . S
C4710 C4714 1.385 . S
C4711 H4686 0.951 . S
C4711 C4709 1.388 . S
C4711 C4712 1.366 . S
C4712 C4711 1.366 . S
C4712 C4713 1.414 . S
C4712 C4715 1.499 . S
C4713 H4687 0.950 . S
C4713 C4712 1.414 . S
C4713 C4714 1.374 . S
C4714 H4688 0.950 . S
C4714 C4710 1.385 . S
C4714 C4713 1.374 . S
C4715 C4712 1.499 . S
C4715 C4716 1.373 . S
C4715 C4717 1.389 . S
C4716 H4689 0.950 . S
C4716 C4702 1.377 . S
C4716 C4715 1.373 . S
C4717 C4701 1.377 . S
C4717 C4715 1.389 . S
C4717 C4718 1.524 . S
C4718 C4717 1.524 . S
C4718 C4719 1.397 . S
C4718 C4723 1.363 . S
C4719 H4690 0.950 . S
C4719 C4718 1.397 . S
C4719 C4720 1.334 . S
C4720 H4691 0.950 . S
C4720 C4719 1.334 . S
C4720 C4721 1.287 . S
C4721 C4720 1.287 . S
C4721 C4722 1.524 . S
C4721 H4724 0.999 . S
C4722 H4692 0.950 . S
C4722 C4721 1.524 . S
C4722 C4723 1.415 . S
C4723 H4693 0.950 . S
C4723 C4718 1.363 . S
C4723 C4722 1.415 . S
H4724 C4721 0.999 . S
H4725 C4706 0.913 . S
H4726 C4744 0.951 . S
H4727 C4746 0.951 . S
H4728 C4748 0.950 . S
H4729 C4749 0.950 . S
H4730 C4751 0.950 . S
H4731 C4754 0.950 . S
H4732 C4755 0.950 . S
H4733 C4757 0.950 . S
H4734 C4758 0.950 . S
H4735 C4759 0.951 . S
H4736 C4761 0.951 . S
H4737 C4763 0.950 . S
H4738 C4764 0.950 . S
H4739 C4766 0.950 . S
H4740 C4769 0.950 . S
H4741 C4770 0.950 . S
H4742 C4772 0.950 . S
H4743 C4773 0.950 . S
C4744 H4726 0.951 . S
C4744 C4745 1.366 . S
C4744 C4746 1.388 . S
C4745 C4744 1.366 . S
C4745 C4749 1.385 . S
C4746 H4727 0.951 . S
C4746 C4744 1.388 . S
C4746 C4747 1.366 . S
C4747 C4746 1.366 . S
C4747 C4748 1.414 . S
C4747 C4750 1.499 . S
C4748 H4728 0.950 . S
C4748 C4747 1.414 . S
C4748 C4749 1.374 . S
C4749 H4729 0.950 . S
C4749 C4745 1.385 . S
C4749 C4748 1.374 . S
C4750 C4747 1.499 . S
C4750 C4751 1.373 . S
C4750 C4752 1.389 . S
C4751 H4730 0.950 . S
C4751 C4750 1.373 . S
C4751 C4767 1.377 . S
C4752 C4750 1.389 . S
C4752 C4753 1.524 . S
C4752 C4766 1.377 . S
C4753 C4752 1.524 . S
C4753 C4754 1.397 . S
C4753 C4758 1.363 . S
C4754 H4731 0.950 . S
C4754 C4753 1.397 . S
C4754 C4755 1.334 . S
C4755 H4732 0.950 . S
C4755 C4754 1.334 . S
C4755 C4756 1.287 . S
C4756 C4755 1.287 . S
C4756 C4757 1.524 . S
C4756 H4775 0.913 . S
C4757 H4733 0.950 . S
C4757 C4756 1.524 . S
C4757 C4758 1.415 . S
C4758 H4734 0.950 . S
C4758 C4753 1.363 . S
C4758 C4757 1.415 . S
C4759 H4735 0.951 . S
C4759 C4760 1.366 . S
C4759 C4761 1.388 . S
C4760 C4759 1.366 . S
C4760 C4764 1.385 . S
C4761 H4736 0.951 . S
C4761 C4759 1.388 . S
C4761 C4762 1.366 . S
C4762 C4761 1.366 . S
C4762 C4763 1.414 . S
C4762 C4765 1.499 . S
C4763 H4737 0.950 . S
C4763 C4762 1.414 . S
C4763 C4764 1.374 . S
C4764 H4738 0.950 . S
C4764 C4760 1.385 . S
C4764 C4763 1.374 . S
C4765 C4762 1.499 . S
C4765 C4766 1.373 . S
C4765 C4767 1.389 . S
C4766 H4739 0.950 . S
C4766 C4752 1.377 . S
C4766 C4765 1.373 . S
C4767 C4751 1.377 . S
C4767 C4765 1.389 . S
C4767 C4768 1.524 . S
C4768 C4767 1.524 . S
C4768 C4769 1.397 . S
C4768 C4773 1.363 . S
C4769 H4740 0.950 . S
C4769 C4768 1.397 . S
C4769 C4770 1.334 . S
C4770 H4741 0.950 . S
C4770 C4769 1.334 . S
C4770 C4771 1.287 . S
C4771 C4770 1.287 . S
C4771 C4772 1.524 . S
C4771 H4774 0.999 . S
C4772 H4742 0.950 . S
C4772 C4771 1.524 . S
C4772 C4773 1.415 . S
C4773 H4743 0.950 . S
C4773 C4768 1.363 . S
C4773 C4772 1.415 . S
H4774 C4771 0.999 . S
H4775 C4756 0.913 . S
H4776 C4794 0.951 . S
H4777 C4796 0.951 . S
H4778 C4798 0.950 . S
H4779 C4799 0.950 . S
H4780 C4801 0.950 . S
H4781 C4804 0.950 1_556 S
H4782 C4805 0.950 . S
H4783 C4807 0.950 . S
H4784 C4808 0.950 . S
H4785 C4809 0.951 . S
H4786 C4811 0.951 . S
H4787 C4813 0.950 . S
H4788 C4814 0.950 . S
H4789 C4816 0.950 1_554 S
H4790 C4819 0.950 . S
H4791 C4820 0.950 . S
H4792 C4822 0.950 . S
H4793 C4823 0.950 . S
C4794 H4776 0.951 . S
C4794 C4795 1.366 . S
C4794 C4796 1.388 . S
C4795 C4794 1.366 . S
C4795 C4799 1.385 . S
C4796 H4777 0.951 . S
C4796 C4794 1.388 . S
C4796 C4797 1.366 . S
C4797 C4796 1.366 . S
C4797 C4798 1.414 . S
C4797 C4800 1.499 . S
C4798 H4778 0.950 . S
C4798 C4797 1.414 . S
C4798 C4799 1.374 . S
C4799 H4779 0.950 . S
C4799 C4795 1.385 . S
C4799 C4798 1.374 . S
C4800 C4797 1.499 . S
C4800 C4801 1.373 . S
C4800 C4802 1.389 . S
C4801 H4780 0.950 . S
C4801 C4800 1.373 . S
C4801 C4817 1.377 . S
C4802 C4800 1.389 . S
C4802 C4803 1.559 . S
C4802 C4816 1.377 . S
C4803 C4802 1.559 . S
C4803 C4804 1.394 1_556 S
C4803 C4808 1.331 1_556 S
C4804 H4781 0.950 1_554 S
C4804 C4803 1.394 1_554 S
C4804 C4805 1.334 . S
C4805 H4782 0.950 . S
C4805 C4804 1.334 . S
C4805 C4806 1.287 . S
C4806 C4805 1.287 . S
C4806 C4807 1.524 . S
C4806 H4825 0.913 . S
C4807 H4783 0.950 . S
C4807 C4806 1.524 . S
C4807 C4808 1.415 . S
C4808 H4784 0.950 . S
C4808 C4803 1.331 1_554 S
C4808 C4807 1.415 . S
C4809 H4785 0.951 . S
C4809 C4810 1.366 1_556 S
C4809 C4811 1.388 . S
C4810 C4809 1.366 1_554 S
C4810 C4814 1.385 . S
C4811 H4786 0.951 . S
C4811 C4809 1.388 . S
C4811 C4812 1.366 . S
C4812 C4811 1.366 . S
C4812 C4813 1.414 . S
C4812 C4815 1.499 . S
C4813 H4787 0.950 . S
C4813 C4812 1.414 . S
C4813 C4814 1.374 1_556 S
C4814 H4788 0.950 . S
C4814 C4810 1.385 . S
C4814 C4813 1.374 1_554 S
C4815 C4812 1.499 . S
C4815 C4816 1.373 . S
C4815 C4817 1.389 . S
C4816 H4789 0.950 1_556 S
C4816 C4802 1.377 . S
C4816 C4815 1.373 . S
C4817 C4801 1.377 . S
C4817 C4815 1.389 . S
C4817 C4818 1.524 . S
C4818 C4817 1.524 . S
C4818 C4819 1.397 . S
C4818 C4823 1.363 . S
C4819 H4790 0.950 . S
C4819 C4818 1.397 . S
C4819 C4820 1.334 . S
C4820 H4791 0.950 . S
C4820 C4819 1.334 . S
C4820 C4821 1.287 . S
C4821 C4820 1.287 . S
C4821 C4822 1.524 . S
C4821 H4824 0.999 . S
C4822 H4792 0.950 . S
C4822 C4821 1.524 . S
C4822 C4823 1.415 . S
C4823 H4793 0.950 . S
C4823 C4818 1.363 . S
C4823 C4822 1.415 . S
H4824 C4821 0.999 . S
H4825 C4806 0.913 . S
H4826 C4844 0.951 . S
H4827 C4846 0.951 . S
H4828 C4848 0.950 . S
H4829 C4849 0.950 . S
H4830 C4851 0.950 . S
H4831 C4854 0.950 . S
H4832 C4855 0.950 . S
H4833 C4857 0.950 . S
H4834 C4858 0.950 . S
H4835 C4859 0.951 . S
H4836 C4861 0.951 . S
H4837 C4863 0.950 . S
H4838 C4864 0.950 . S
H4839 C4866 0.950 . S
H4840 C4869 0.950 . S
H4841 C4870 0.950 . S
H4842 C4872 0.950 . S
H4843 C4873 0.950 . S
C4844 H4826 0.951 . S
C4844 C4845 1.366 . S
C4844 C4846 1.388 . S
C4845 C4844 1.366 . S
C4845 C4849 1.385 . S
C4846 H4827 0.951 . S
C4846 C4844 1.388 . S
C4846 C4847 1.366 . S
C4847 C4846 1.366 . S
C4847 C4848 1.414 . S
C4847 C4850 1.499 . S
C4848 H4828 0.950 . S
C4848 C4847 1.414 . S
C4848 C4849 1.374 . S
C4849 H4829 0.950 . S
C4849 C4845 1.385 . S
C4849 C4848 1.374 . S
C4850 C4847 1.499 . S
C4850 C4851 1.373 . S
C4850 C4852 1.389 . S
C4851 H4830 0.950 . S
C4851 C4850 1.373 . S
C4851 C4867 1.377 . S
C4852 C4850 1.389 . S
C4852 C4853 1.524 . S
C4852 C4866 1.377 . S
C4853 C4852 1.524 . S
C4853 C4854 1.397 . S
C4853 C4858 1.363 . S
C4854 H4831 0.950 . S
C4854 C4853 1.397 . S
C4854 C4855 1.334 . S
C4855 H4832 0.950 . S
C4855 C4854 1.334 . S
C4855 C4856 1.287 . S
C4856 C4855 1.287 . S
C4856 C4857 1.524 . S
C4856 H4875 0.913 . S
C4857 H4833 0.950 . S
C4857 C4856 1.524 . S
C4857 C4858 1.415 . S
C4858 H4834 0.950 . S
C4858 C4853 1.363 . S
C4858 C4857 1.415 . S
C4859 H4835 0.951 . S
C4859 C4860 1.366 . S
C4859 C4861 1.388 . S
C4860 C4859 1.366 . S
C4860 C4864 1.385 . S
C4861 H4836 0.951 . S
C4861 C4859 1.388 . S
C4861 C4862 1.366 . S
C4862 C4861 1.366 . S
C4862 C4863 1.414 . S
C4862 C4865 1.499 . S
C4863 H4837 0.950 . S
C4863 C4862 1.414 . S
C4863 C4864 1.374 . S
C4864 H4838 0.950 . S
C4864 C4860 1.385 . S
C4864 C4863 1.374 . S
C4865 C4862 1.499 . S
C4865 C4866 1.373 . S
C4865 C4867 1.389 . S
C4866 H4839 0.950 . S
C4866 C4852 1.377 . S
C4866 C4865 1.373 . S
C4867 C4851 1.377 . S
C4867 C4865 1.389 . S
C4867 C4868 1.524 . S
C4868 C4867 1.524 . S
C4868 C4869 1.397 . S
C4868 C4873 1.363 . S
C4869 H4840 0.950 . S
C4869 C4868 1.397 . S
C4869 C4870 1.334 . S
C4870 H4841 0.950 . S
C4870 C4869 1.334 . S
C4870 C4871 1.287 . S
C4871 C4870 1.287 . S
C4871 C4872 1.524 . S
C4871 H4874 0.999 . S
C4872 H4842 0.950 . S
C4872 C4871 1.524 . S
C4872 C4873 1.415 . S
C4873 H4843 0.950 . S
C4873 C4868 1.363 . S
C4873 C4872 1.415 . S
H4874 C4871 0.999 . S
H4875 C4856 0.913 . S
H4876 C4894 0.951 . S
H4877 C4896 0.951 . S
H4878 C4898 0.950 . S
H4879 C4899 0.950 . S
H4880 C4901 0.950 . S
H4881 C4904 0.950 1_455 S
H4882 C4905 0.950 . S
H4883 C4907 0.950 . S
H4884 C4908 0.950 . S
H4885 C4909 0.951 . S
H4886 C4911 0.951 . S
H4887 C4913 0.950 . S
H4888 C4914 0.932 1_655 S
H4889 C4916 0.982 . S
H4890 C4919 0.950 . S
H4891 C4920 0.950 . S
H4892 C4922 0.950 . S
H4893 C4923 0.950 . S
C4894 H4876 0.951 . S
C4894 C4895 1.366 . S
C4894 C4896 1.388 . S
C4895 C4894 1.366 . S
C4895 C4899 1.385 . S
C4896 H4877 0.951 . S
C4896 C4894 1.388 . S
C4896 C4897 1.366 . S
C4897 C4896 1.366 . S
C4897 C4898 1.414 . S
C4897 C4900 1.499 . S
C4898 H4878 0.950 . S
C4898 C4897 1.414 . S
C4898 C4899 1.374 . S
C4899 H4879 0.950 . S
C4899 C4895 1.385 . S
C4899 C4898 1.374 . S
C4900 C4897 1.499 . S
C4900 C4901 1.373 . S
C4900 C4902 1.389 . S
C4901 H4880 0.950 . S
C4901 C4900 1.373 . S
C4901 C4917 1.377 . S
C4902 C4900 1.389 . S
C4902 C4903 1.524 1_455 S
C4902 C4916 1.377 . S
C4903 C4902 1.524 1_655 S
C4903 C4904 1.397 . S
C4903 C4908 1.363 . S
C4904 H4881 0.950 1_655 S
C4904 C4903 1.397 . S
C4904 C4905 1.334 . S
C4905 H4882 0.950 . S
C4905 C4904 1.334 . S
C4905 C4906 1.287 . S
C4906 C4905 1.287 . S
C4906 C4907 1.524 . S
C4906 H4925 0.913 . S
C4907 H4883 0.950 . S
C4907 C4906 1.524 . S
C4907 C4908 1.415 . S
C4908 H4884 0.950 . S
C4908 C4903 1.363 . S
C4908 C4907 1.415 . S
C4909 H4885 0.951 . S
C4909 C4910 1.366 . S
C4909 C4911 1.388 . S
C4910 C4909 1.366 . S
C4910 C4914 1.385 . S
C4911 H4886 0.951 . S
C4911 C4909 1.388 . S
C4911 C4912 1.366 . S
C4912 C4911 1.366 . S
C4912 C4913 1.414 . S
C4912 C4915 1.499 . S
C4913 H4887 0.950 . S
C4913 C4912 1.414 . S
C4913 C4914 1.374 . S
C4914 H4888 0.932 1_455 S
C4914 C4910 1.385 . S
C4914 C4913 1.374 . S
C4915 C4912 1.499 . S
C4915 C4916 1.373 . S
C4915 C4917 1.389 . S
C4916 H4889 0.982 . S
C4916 C4902 1.377 . S
C4916 C4915 1.373 . S
C4917 C4901 1.377 . S
C4917 C4915 1.389 . S
C4917 C4918 1.524 . S
C4918 C4917 1.524 . S
C4918 C4919 1.397 . S
C4918 C4923 1.363 . S
C4919 H4890 0.950 . S
C4919 C4918 1.397 . S
C4919 C4920 1.334 . S
C4920 H4891 0.950 . S
C4920 C4919 1.334 . S
C4920 C4921 1.287 . S
C4921 C4920 1.287 . S
C4921 C4922 1.524 . S
C4921 H4924 0.999 . S
C4922 H4892 0.950 . S
C4922 C4921 1.524 . S
C4922 C4923 1.415 . S
C4923 H4893 0.950 . S
C4923 C4918 1.363 . S
C4923 C4922 1.415 . S
H4924 C4921 0.999 . S
H4925 C4906 0.913 . S
H4926 C4944 0.951 . S
H4927 C4946 0.951 . S
H4928 C4948 0.950 . S
H4929 C4949 0.950 . S
H4930 C4951 0.950 . S
H4931 C4954 0.950 . S
H4932 C4955 0.950 . S
H4933 C4957 0.950 . S
H4934 C4958 0.950 . S
H4935 C4959 0.951 . S
H4936 C4961 0.951 . S
H4937 C4963 0.950 . S
H4938 C4964 0.950 . S
H4939 C4966 0.950 . S
H4940 C4969 0.950 . S
H4941 C4970 0.950 . S
H4942 C4972 0.950 . S
H4943 C4973 0.950 . S
C4944 H4926 0.951 . S
C4944 C4945 1.366 . S
C4944 C4946 1.388 . S
C4945 C4944 1.366 . S
C4945 C4949 1.385 . S
C4946 H4927 0.951 . S
C4946 C4944 1.388 . S
C4946 C4947 1.366 . S
C4947 C4946 1.366 . S
C4947 C4948 1.414 . S
C4947 C4950 1.499 . S
C4948 H4928 0.950 . S
C4948 C4947 1.414 . S
C4948 C4949 1.374 . S
C4949 H4929 0.950 . S
C4949 C4945 1.385 . S
C4949 C4948 1.374 . S
C4950 C4947 1.499 . S
C4950 C4951 1.373 . S
C4950 C4952 1.389 . S
C4951 H4930 0.950 . S
C4951 C4950 1.373 . S
C4951 C4967 1.377 . S
C4952 C4950 1.389 . S
C4952 C4953 1.524 . S
C4952 C4966 1.377 . S
C4953 C4952 1.524 . S
C4953 C4954 1.397 . S
C4953 C4958 1.363 . S
C4954 H4931 0.950 . S
C4954 C4953 1.397 . S
C4954 C4955 1.334 . S
C4955 H4932 0.950 . S
C4955 C4954 1.334 . S
C4955 C4956 1.287 . S
C4956 C4955 1.287 . S
C4956 C4957 1.524 . S
C4956 H4975 0.913 . S
C4957 H4933 0.950 . S
C4957 C4956 1.524 . S
C4957 C4958 1.415 . S
C4958 H4934 0.950 . S
C4958 C4953 1.363 . S
C4958 C4957 1.415 . S
C4959 H4935 0.951 . S
C4959 C4960 1.366 . S
C4959 C4961 1.388 . S
C4960 C4959 1.366 . S
C4960 C4964 1.385 . S
C4961 H4936 0.951 . S
C4961 C4959 1.388 . S
C4961 C4962 1.366 . S
C4962 C4961 1.366 . S
C4962 C4963 1.414 . S
C4962 C4965 1.499 . S
C4963 H4937 0.950 . S
C4963 C4962 1.414 . S
C4963 C4964 1.374 . S
C4964 H4938 0.950 . S
C4964 C4960 1.385 . S
C4964 C4963 1.374 . S
C4965 C4962 1.499 . S
C4965 C4966 1.373 . S
C4965 C4967 1.389 . S
C4966 H4939 0.950 . S
C4966 C4952 1.377 . S
C4966 C4965 1.373 . S
C4967 C4951 1.377 . S
C4967 C4965 1.389 . S
C4967 C4968 1.524 . S
C4968 C4967 1.524 . S
C4968 C4969 1.397 . S
C4968 C4973 1.363 . S
C4969 H4940 0.950 . S
C4969 C4968 1.397 . S
C4969 C4970 1.334 . S
C4970 H4941 0.950 . S
C4970 C4969 1.334 . S
C4970 C4971 1.287 . S
C4971 C4970 1.287 . S
C4971 C4972 1.524 . S
C4971 H4974 0.999 . S
C4972 H4942 0.950 . S
C4972 C4971 1.524 . S
C4972 C4973 1.415 . S
C4973 H4943 0.950 . S
C4973 C4968 1.363 . S
C4973 C4972 1.415 . S
H4974 C4971 0.999 . S
H4975 C4956 0.913 . S
H4976 C4994 0.951 . S
H4977 C4996 0.951 . S
H4978 C4998 0.950 . S
H4979 C4999 0.950 . S
H4980 C5001 0.950 . S
H4981 C5004 0.950 . S
H4982 C5005 0.950 . S
H4983 C5007 0.950 . S
H4984 C5008 0.950 . S
H4985 C5009 0.951 . S
H4986 C5011 0.951 . S
H4987 C5013 0.950 . S
H4988 C5014 0.950 . S
H4989 C5016 0.950 . S
H4990 C5019 0.950 . S
H4991 C5020 0.950 . S
H4992 C5022 0.950 . S
H4993 C5023 0.950 . S
C4994 H4976 0.951 . S
C4994 C4995 1.366 . S
C4994 C4996 1.388 . S
C4995 C4994 1.366 . S
C4995 C4999 1.385 . S
C4996 H4977 0.951 . S
C4996 C4994 1.388 . S
C4996 C4997 1.366 . S
C4997 C4996 1.366 . S
C4997 C4998 1.414 . S
C4997 C5000 1.499 . S
C4998 H4978 0.950 . S
C4998 C4997 1.414 . S
C4998 C4999 1.374 . S
C4999 H4979 0.950 . S
C4999 C4995 1.385 . S
C4999 C4998 1.374 . S
C5000 C4997 1.499 . S
C5000 C5001 1.373 . S
C5000 C5002 1.389 . S
C5001 H4980 0.950 . S
C5001 C5000 1.373 . S
C5001 C5017 1.377 . S
C5002 C5000 1.389 . S
C5002 C5003 1.524 . S
C5002 C5016 1.377 . S
C5003 C5002 1.524 . S
C5003 C5004 1.397 . S
C5003 C5008 1.363 . S
C5004 H4981 0.950 . S
C5004 C5003 1.397 . S
C5004 C5005 1.334 . S
C5005 H4982 0.950 . S
C5005 C5004 1.334 . S
C5005 C5006 1.287 . S
C5006 C5005 1.287 . S
C5006 C5007 1.524 . S
C5006 H5025 0.913 . S
C5007 H4983 0.950 . S
C5007 C5006 1.524 . S
C5007 C5008 1.415 . S
C5008 H4984 0.950 . S
C5008 C5003 1.363 . S
C5008 C5007 1.415 . S
C5009 H4985 0.951 . S
C5009 C5010 1.366 . S
C5009 C5011 1.388 . S
C5010 C5009 1.366 . S
C5010 C5014 1.385 . S
C5011 H4986 0.951 . S
C5011 C5009 1.388 . S
C5011 C5012 1.366 . S
C5012 C5011 1.366 . S
C5012 C5013 1.414 . S
C5012 C5015 1.499 . S
C5013 H4987 0.950 . S
C5013 C5012 1.414 . S
C5013 C5014 1.374 . S
C5014 H4988 0.950 . S
C5014 C5010 1.385 . S
C5014 C5013 1.374 . S
C5015 C5012 1.499 . S
C5015 C5016 1.373 . S
C5015 C5017 1.389 . S
C5016 H4989 0.950 . S
C5016 C5002 1.377 . S
C5016 C5015 1.373 . S
C5017 C5001 1.377 . S
C5017 C5015 1.389 . S
C5017 C5018 1.524 . S
C5018 C5017 1.524 . S
C5018 C5019 1.397 . S
C5018 C5023 1.363 . S
C5019 H4990 0.950 . S
C5019 C5018 1.397 . S
C5019 C5020 1.334 . S
C5020 H4991 0.950 . S
C5020 C5019 1.334 . S
C5020 C5021 1.287 . S
C5021 C5020 1.287 . S
C5021 C5022 1.524 . S
C5021 H5024 0.999 . S
C5022 H4992 0.950 . S
C5022 C5021 1.524 . S
C5022 C5023 1.415 . S
C5023 H4993 0.950 . S
C5023 C5018 1.363 . S
C5023 C5022 1.415 . S
H5024 C5021 0.999 . S
H5025 C5006 0.913 . S
H5026 C5044 0.951 . S
H5027 C5046 0.951 . S
H5028 C5048 0.950 . S
H5029 C5049 0.950 . S
H5030 C5051 0.950 . S
H5031 C5054 0.950 . S
H5032 C5055 0.950 . S
H5033 C5057 0.950 . S
H5034 C5058 0.950 . S
H5035 C5059 0.951 . S
H5036 C5061 0.951 . S
H5037 C5063 0.950 . S
H5038 C5064 0.950 . S
H5039 C5066 0.950 . S
H5040 C5069 0.950 . S
H5041 C5070 0.950 . S
H5042 C5072 0.950 . S
H5043 C5073 0.950 . S
C5044 H5026 0.951 . S
C5044 C5045 1.366 . S
C5044 C5046 1.388 . S
C5045 C5044 1.366 . S
C5045 C5049 1.385 . S
C5046 H5027 0.951 . S
C5046 C5044 1.388 . S
C5046 C5047 1.366 . S
C5047 C5046 1.366 . S
C5047 C5048 1.414 . S
C5047 C5050 1.499 . S
C5048 H5028 0.950 . S
C5048 C5047 1.414 . S
C5048 C5049 1.374 . S
C5049 H5029 0.950 . S
C5049 C5045 1.385 . S
C5049 C5048 1.374 . S
C5050 C5047 1.499 . S
C5050 C5051 1.373 . S
C5050 C5052 1.389 . S
C5051 H5030 0.950 . S
C5051 C5050 1.373 . S
C5051 C5067 1.377 . S
C5052 C5050 1.389 . S
C5052 C5053 1.524 . S
C5052 C5066 1.377 . S
C5053 C5052 1.524 . S
C5053 C5054 1.397 . S
C5053 C5058 1.363 . S
C5054 H5031 0.950 . S
C5054 C5053 1.397 . S
C5054 C5055 1.334 . S
C5055 H5032 0.950 . S
C5055 C5054 1.334 . S
C5055 C5056 1.287 . S
C5056 C5055 1.287 . S
C5056 C5057 1.524 . S
C5056 H5075 0.913 . S
C5057 H5033 0.950 . S
C5057 C5056 1.524 . S
C5057 C5058 1.415 . S
C5058 H5034 0.950 . S
C5058 C5053 1.363 . S
C5058 C5057 1.415 . S
C5059 H5035 0.951 . S
C5059 C5060 1.366 . S
C5059 C5061 1.388 . S
C5060 C5059 1.366 . S
C5060 C5064 1.385 . S
C5061 H5036 0.951 . S
C5061 C5059 1.388 . S
C5061 C5062 1.366 . S
C5062 C5061 1.366 . S
C5062 C5063 1.414 . S
C5062 C5065 1.499 . S
C5063 H5037 0.950 . S
C5063 C5062 1.414 . S
C5063 C5064 1.374 . S
C5064 H5038 0.950 . S
C5064 C5060 1.385 . S
C5064 C5063 1.374 . S
C5065 C5062 1.499 . S
C5065 C5066 1.373 . S
C5065 C5067 1.389 . S
C5066 H5039 0.950 . S
C5066 C5052 1.377 . S
C5066 C5065 1.373 . S
C5067 C5051 1.377 . S
C5067 C5065 1.389 . S
C5067 C5068 1.524 . S
C5068 C5067 1.524 . S
C5068 C5069 1.397 . S
C5068 C5073 1.363 . S
C5069 H5040 0.950 . S
C5069 C5068 1.397 . S
C5069 C5070 1.334 . S
C5070 H5041 0.950 . S
C5070 C5069 1.334 . S
C5070 C5071 1.287 . S
C5071 C5070 1.287 . S
C5071 C5072 1.524 . S
C5071 H5074 0.999 . S
C5072 H5042 0.950 . S
C5072 C5071 1.524 . S
C5072 C5073 1.415 . S
C5073 H5043 0.950 . S
C5073 C5068 1.363 . S
C5073 C5072 1.415 . S
H5074 C5071 0.999 . S
H5075 C5056 0.913 . S
H5076 C5094 0.951 . S
H5077 C5096 0.951 . S
H5078 C5098 0.950 . S
H5079 C5099 0.950 . S
H5080 C5101 0.950 . S
H5081 C5104 0.950 . S
H5082 C5105 0.950 . S
H5083 C5107 0.950 . S
H5084 C5108 0.950 . S
H5085 C5109 0.951 . S
H5086 C5111 0.951 . S
H5087 C5113 0.950 . S
H5088 C5114 0.933 1_455 S
H5089 C5116 0.950 . S
H5090 C5119 0.950 . S
H5091 C5120 0.950 . S
H5092 C5122 0.950 . S
H5093 C5123 0.950 . S
C5094 H5076 0.951 . S
C5094 C5095 1.366 . S
C5094 C5096 1.388 . S
C5095 C5094 1.366 . S
C5095 C5099 1.385 . S
C5096 H5077 0.951 . S
C5096 C5094 1.388 . S
C5096 C5097 1.366 . S
C5097 C5096 1.366 . S
C5097 C5098 1.414 . S
C5097 C5100 1.499 . S
C5098 H5078 0.950 . S
C5098 C5097 1.414 . S
C5098 C5099 1.374 . S
C5099 H5079 0.950 . S
C5099 C5095 1.385 . S
C5099 C5098 1.374 . S
C5100 C5097 1.499 . S
C5100 C5101 1.373 . S
C5100 C5102 1.389 . S
C5101 H5080 0.950 . S
C5101 C5100 1.373 . S
C5101 C5117 1.377 . S
C5102 C5100 1.389 . S
C5102 C5103 1.524 . S
C5102 C5116 1.377 . S
C5103 C5102 1.524 . S
C5103 C5104 1.397 . S
C5103 C5108 1.363 . S
C5104 H5081 0.950 . S
C5104 C5103 1.397 . S
C5104 C5105 1.334 . S
C5105 H5082 0.950 . S
C5105 C5104 1.334 . S
C5105 C5106 1.287 1_655 S
C5106 C5105 1.287 1_455 S
C5106 C5107 1.524 . S
C5106 H5125 0.913 . S
C5107 H5083 0.950 . S
C5107 C5106 1.524 . S
C5107 C5108 1.415 1_455 S
C5108 H5084 0.950 . S
C5108 C5103 1.363 . S
C5108 C5107 1.415 1_655 S
C5109 H5085 0.951 . S
C5109 C5110 1.381 . S
C5109 C5111 1.388 . S
C5110 C5109 1.381 . S
C5110 C5114 1.382 . S
C5111 H5086 0.951 . S
C5111 C5109 1.388 . S
C5111 C5112 1.366 . S
C5112 C5111 1.366 . S
C5112 C5113 1.414 . S
C5112 C5115 1.499 . S
C5113 H5087 0.950 . S
C5113 C5112 1.414 . S
C5113 C5114 1.406 . S
C5114 H5088 0.933 1_655 S
C5114 C5110 1.382 . S
C5114 C5113 1.406 . S
C5115 C5112 1.499 . S
C5115 C5116 1.373 . S
C5115 C5117 1.389 . S
C5116 H5089 0.950 . S
C5116 C5102 1.377 . S
C5116 C5115 1.373 . S
C5117 C5101 1.377 . S
C5117 C5115 1.389 . S
C5117 C5118 1.524 . S
C5118 C5117 1.524 . S
C5118 C5119 1.397 . S
C5118 C5123 1.363 . S
C5119 H5090 0.950 . S
C5119 C5118 1.397 . S
C5119 C5120 1.334 . S
C5120 H5091 0.950 . S
C5120 C5119 1.334 . S
C5120 C5121 1.287 . S
C5121 C5120 1.287 . S
C5121 C5122 1.524 . S
C5121 H5124 0.999 . S
C5122 H5092 0.950 . S
C5122 C5121 1.524 . S
C5122 C5123 1.415 . S
C5123 H5093 0.950 . S
C5123 C5118 1.363 . S
C5123 C5122 1.415 . S
H5124 C5121 0.999 . S
H5125 C5106 0.913 . S
H5126 C5144 0.951 . S
H5127 C5146 0.951 . S
H5128 C5148 0.950 . S
H5129 C5149 0.950 . S
H5130 C5151 0.950 . S
H5131 C5154 0.950 . S
H5132 C5155 0.950 . S
H5133 C5157 0.950 . S
H5134 C5158 0.950 . S
H5135 C5159 0.951 . S
H5136 C5161 0.951 . S
H5137 C5163 0.950 . S
H5138 C5164 0.950 . S
H5139 C5166 0.950 . S
H5140 C5169 0.950 . S
H5141 C5170 0.950 . S
H5142 C5172 0.950 . S
H5143 C5173 0.950 . S
C5144 H5126 0.951 . S
C5144 C5145 1.366 . S
C5144 C5146 1.388 . S
C5145 C5144 1.366 . S
C5145 C5149 1.385 . S
C5146 H5127 0.951 . S
C5146 C5144 1.388 . S
C5146 C5147 1.366 . S
C5147 C5146 1.366 . S
C5147 C5148 1.414 . S
C5147 C5150 1.499 . S
C5148 H5128 0.950 . S
C5148 C5147 1.414 . S
C5148 C5149 1.374 . S
C5149 H5129 0.950 . S
C5149 C5145 1.385 . S
C5149 C5148 1.374 . S
C5150 C5147 1.499 . S
C5150 C5151 1.373 . S
C5150 C5152 1.389 . S
C5151 H5130 0.950 . S
C5151 C5150 1.373 . S
C5151 C5167 1.377 . S
C5152 C5150 1.389 . S
C5152 C5153 1.524 . S
C5152 C5166 1.377 . S
C5153 C5152 1.524 . S
C5153 C5154 1.397 . S
C5153 C5158 1.363 . S
C5154 H5131 0.950 . S
C5154 C5153 1.397 . S
C5154 C5155 1.334 . S
C5155 H5132 0.950 . S
C5155 C5154 1.334 . S
C5155 C5156 1.287 . S
C5156 C5155 1.287 . S
C5156 C5157 1.524 . S
C5156 H5175 0.913 . S
C5157 H5133 0.950 . S
C5157 C5156 1.524 . S
C5157 C5158 1.415 . S
C5158 H5134 0.950 . S
C5158 C5153 1.363 . S
C5158 C5157 1.415 . S
C5159 H5135 0.951 . S
C5159 C5160 1.366 . S
C5159 C5161 1.388 . S
C5160 C5159 1.366 . S
C5160 C5164 1.385 . S
C5161 H5136 0.951 . S
C5161 C5159 1.388 . S
C5161 C5162 1.366 . S
C5162 C5161 1.366 . S
C5162 C5163 1.414 . S
C5162 C5165 1.499 . S
C5163 H5137 0.950 . S
C5163 C5162 1.414 . S
C5163 C5164 1.374 . S
C5164 H5138 0.950 . S
C5164 C5160 1.385 . S
C5164 C5163 1.374 . S
C5165 C5162 1.499 . S
C5165 C5166 1.373 . S
C5165 C5167 1.389 . S
C5166 H5139 0.950 . S
C5166 C5152 1.377 . S
C5166 C5165 1.373 . S
C5167 C5151 1.377 . S
C5167 C5165 1.389 . S
C5167 C5168 1.524 . S
C5168 C5167 1.524 . S
C5168 C5169 1.397 . S
C5168 C5173 1.363 . S
C5169 H5140 0.950 . S
C5169 C5168 1.397 . S
C5169 C5170 1.334 . S
C5170 H5141 0.950 . S
C5170 C5169 1.334 . S
C5170 C5171 1.287 . S
C5171 C5170 1.287 . S
C5171 C5172 1.524 . S
C5171 H5174 0.999 . S
C5172 H5142 0.950 . S
C5172 C5171 1.524 . S
C5172 C5173 1.415 . S
C5173 H5143 0.950 . S
C5173 C5168 1.363 . S
C5173 C5172 1.415 . S
H5174 C5171 0.999 . S
H5175 C5156 0.913 . S
H5176 C5194 0.951 . S
H5177 C5196 0.951 . S
H5178 C5198 0.950 . S
H5179 C5199 0.950 . S
H5180 C5201 0.950 . S
H5181 C5204 0.950 . S
H5182 C5205 0.950 . S
H5183 C5207 0.950 . S
H5184 C5208 0.950 . S
H5185 C5209 0.951 . S
H5186 C5211 0.951 . S
H5187 C5213 0.950 . S
H5188 C5214 0.950 . S
H5189 C5216 0.950 . S
H5190 C5219 0.950 . S
H5191 C5220 0.950 . S
H5192 C5222 0.950 . S
H5193 C5223 0.950 . S
C5194 H5176 0.951 . S
C5194 C5195 1.366 . S
C5194 C5196 1.388 . S
C5195 C5194 1.366 . S
C5195 C5199 1.385 . S
C5196 H5177 0.951 . S
C5196 C5194 1.388 . S
C5196 C5197 1.366 . S
C5197 C5196 1.366 . S
C5197 C5198 1.414 . S
C5197 C5200 1.499 . S
C5198 H5178 0.950 . S
C5198 C5197 1.414 . S
C5198 C5199 1.374 . S
C5199 H5179 0.950 . S
C5199 C5195 1.385 . S
C5199 C5198 1.374 . S
C5200 C5197 1.499 . S
C5200 C5201 1.373 . S
C5200 C5202 1.389 . S
C5201 H5180 0.950 . S
C5201 C5200 1.373 . S
C5201 C5217 1.377 . S
C5202 C5200 1.389 . S
C5202 C5203 1.524 . S
C5202 C5216 1.377 . S
C5203 C5202 1.524 . S
C5203 C5204 1.397 . S
C5203 C5208 1.363 . S
C5204 H5181 0.950 . S
C5204 C5203 1.397 . S
C5204 C5205 1.334 . S
C5205 H5182 0.950 . S
C5205 C5204 1.334 . S
C5205 C5206 1.287 . S
C5206 C5205 1.287 . S
C5206 C5207 1.524 . S
C5206 H5225 0.913 . S
C5207 H5183 0.950 . S
C5207 C5206 1.524 . S
C5207 C5208 1.415 . S
C5208 H5184 0.950 . S
C5208 C5203 1.363 . S
C5208 C5207 1.415 . S
C5209 H5185 0.951 . S
C5209 C5210 1.366 . S
C5209 C5211 1.388 . S
C5210 C5209 1.366 . S
C5210 C5214 1.385 . S
C5211 H5186 0.951 . S
C5211 C5209 1.388 . S
C5211 C5212 1.366 . S
C5212 C5211 1.366 . S
C5212 C5213 1.414 . S
C5212 C5215 1.499 . S
C5213 H5187 0.950 . S
C5213 C5212 1.414 . S
C5213 C5214 1.374 . S
C5214 H5188 0.950 . S
C5214 C5210 1.385 . S
C5214 C5213 1.374 . S
C5215 C5212 1.499 . S
C5215 C5216 1.373 . S
C5215 C5217 1.389 . S
C5216 H5189 0.950 . S
C5216 C5202 1.377 . S
C5216 C5215 1.373 . S
C5217 C5201 1.377 . S
C5217 C5215 1.389 . S
C5217 C5218 1.524 . S
C5218 C5217 1.524 . S
C5218 C5219 1.397 . S
C5218 C5223 1.363 . S
C5219 H5190 0.950 . S
C5219 C5218 1.397 . S
C5219 C5220 1.334 . S
C5220 H5191 0.950 . S
C5220 C5219 1.334 . S
C5220 C5221 1.287 . S
C5221 C5220 1.287 . S
C5221 C5222 1.524 . S
C5221 H5224 0.999 . S
C5222 H5192 0.950 . S
C5222 C5221 1.524 . S
C5222 C5223 1.415 . S
C5223 H5193 0.950 . S
C5223 C5218 1.363 . S
C5223 C5222 1.415 . S
H5224 C5221 0.999 . S
H5225 C5206 0.913 . S
H5226 C5244 0.951 . S
H5227 C5246 0.951 . S
H5228 C5248 0.950 . S
H5229 C5249 0.950 . S
H5230 C5251 0.950 . S
H5231 C5254 0.950 . S
H5232 C5255 0.950 . S
H5233 C5257 0.950 . S
H5234 C5258 0.950 . S
H5235 C5259 0.951 . S
H5236 C5261 0.951 . S
H5237 C5263 0.950 . S
H5238 C5264 0.950 . S
H5239 C5266 0.950 . S
H5240 C5269 0.950 . S
H5241 C5270 0.950 . S
H5242 C5272 0.950 . S
H5243 C5273 0.950 . S
C5244 H5226 0.951 . S
C5244 C5245 1.366 . S
C5244 C5246 1.388 . S
C5245 C5244 1.366 . S
C5245 C5249 1.385 . S
C5246 H5227 0.951 . S
C5246 C5244 1.388 . S
C5246 C5247 1.366 . S
C5247 C5246 1.366 . S
C5247 C5248 1.414 . S
C5247 C5250 1.499 . S
C5248 H5228 0.950 . S
C5248 C5247 1.414 . S
C5248 C5249 1.374 . S
C5249 H5229 0.950 . S
C5249 C5245 1.385 . S
C5249 C5248 1.374 . S
C5250 C5247 1.499 . S
C5250 C5251 1.373 . S
C5250 C5252 1.389 . S
C5251 H5230 0.950 . S
C5251 C5250 1.373 . S
C5251 C5267 1.377 . S
C5252 C5250 1.389 . S
C5252 C5253 1.524 . S
C5252 C5266 1.377 . S
C5253 C5252 1.524 . S
C5253 C5254 1.397 . S
C5253 C5258 1.363 . S
C5254 H5231 0.950 . S
C5254 C5253 1.397 . S
C5254 C5255 1.334 . S
C5255 H5232 0.950 . S
C5255 C5254 1.334 . S
C5255 C5256 1.287 . S
C5256 C5255 1.287 . S
C5256 C5257 1.524 . S
C5256 H5275 0.913 . S
C5257 H5233 0.950 . S
C5257 C5256 1.524 . S
C5257 C5258 1.415 . S
C5258 H5234 0.950 . S
C5258 C5253 1.363 . S
C5258 C5257 1.415 . S
C5259 H5235 0.951 . S
C5259 C5260 1.366 . S
C5259 C5261 1.388 . S
C5260 C5259 1.366 . S
C5260 C5264 1.385 . S
C5261 H5236 0.951 . S
C5261 C5259 1.388 . S
C5261 C5262 1.366 . S
C5262 C5261 1.366 . S
C5262 C5263 1.414 . S
C5262 C5265 1.499 . S
C5263 H5237 0.950 . S
C5263 C5262 1.414 . S
C5263 C5264 1.374 . S
C5264 H5238 0.950 . S
C5264 C5260 1.385 . S
C5264 C5263 1.374 . S
C5265 C5262 1.499 . S
C5265 C5266 1.373 . S
C5265 C5267 1.389 . S
C5266 H5239 0.950 . S
C5266 C5252 1.377 . S
C5266 C5265 1.373 . S
C5267 C5251 1.377 . S
C5267 C5265 1.389 . S
C5267 C5268 1.524 . S
C5268 C5267 1.524 . S
C5268 C5269 1.397 . S
C5268 C5273 1.363 . S
C5269 H5240 0.950 . S
C5269 C5268 1.397 . S
C5269 C5270 1.334 . S
C5270 H5241 0.950 . S
C5270 C5269 1.334 . S
C5270 C5271 1.287 . S
C5271 C5270 1.287 . S
C5271 C5272 1.524 . S
C5271 H5274 0.999 . S
C5272 H5242 0.950 . S
C5272 C5271 1.524 . S
C5272 C5273 1.415 . S
C5273 H5243 0.950 . S
C5273 C5268 1.363 . S
C5273 C5272 1.415 . S
H5274 C5271 0.999 . S
H5275 C5256 0.913 . S
H5276 C5294 0.951 . S
H5277 C5296 0.951 . S
H5278 C5298 0.950 . S
H5279 C5299 0.950 . S
H5280 C5301 0.950 . S
H5281 C5304 0.950 . S
H5282 C5305 0.950 . S
H5283 C5307 0.950 . S
H5284 C5308 0.950 . S
H5285 C5309 0.951 . S
H5286 C5311 0.951 . S
H5287 C5313 0.950 . S
H5288 C5314 0.950 1_455 S
H5289 C5316 0.950 . S
H5290 C5319 0.950 . S
H5291 C5320 0.950 . S
H5292 C5322 0.950 . S
H5293 C5323 0.950 . S
C5294 H5276 0.951 . S
C5294 C5295 1.366 . S
C5294 C5296 1.388 . S
C5295 C5294 1.366 . S
C5295 C5299 1.385 . S
C5296 H5277 0.951 . S
C5296 C5294 1.388 . S
C5296 C5297 1.366 . S
C5297 C5296 1.366 . S
C5297 C5298 1.414 . S
C5297 C5300 1.499 . S
C5298 H5278 0.950 . S
C5298 C5297 1.414 . S
C5298 C5299 1.374 . S
C5299 H5279 0.950 . S
C5299 C5295 1.385 . S
C5299 C5298 1.374 . S
C5300 C5297 1.499 . S
C5300 C5301 1.373 . S
C5300 C5302 1.389 . S
C5301 H5280 0.950 . S
C5301 C5300 1.373 . S
C5301 C5317 1.377 . S
C5302 C5300 1.389 . S
C5302 C5303 1.524 . S
C5302 C5316 1.377 . S
C5303 C5302 1.524 . S
C5303 C5304 1.397 . S
C5303 C5308 1.363 . S
C5304 H5281 0.950 . S
C5304 C5303 1.397 . S
C5304 C5305 1.334 . S
C5305 H5282 0.950 . S
C5305 C5304 1.334 . S
C5305 C5306 1.287 . S
C5306 C5305 1.287 . S
C5306 C5307 1.524 . S
C5306 H5325 0.913 . S
C5307 H5283 0.950 . S
C5307 C5306 1.524 . S
C5307 C5308 1.415 . S
C5308 H5284 0.950 . S
C5308 C5303 1.363 . S
C5308 C5307 1.415 . S
C5309 H5285 0.951 . S
C5309 C5310 1.366 . S
C5309 C5311 1.388 . S
C5310 C5309 1.366 . S
C5310 C5314 1.385 . S
C5311 H5286 0.951 . S
C5311 C5309 1.388 . S
C5311 C5312 1.366 . S
C5312 C5311 1.366 . S
C5312 C5313 1.414 . S
C5312 C5315 1.499 . S
C5313 H5287 0.950 . S
C5313 C5312 1.414 . S
C5313 C5314 1.374 . S
C5314 H5288 0.950 1_655 S
C5314 C5310 1.385 . S
C5314 C5313 1.374 . S
C5315 C5312 1.499 . S
C5315 C5316 1.373 . S
C5315 C5317 1.389 . S
C5316 H5289 0.950 . S
C5316 C5302 1.377 . S
C5316 C5315 1.373 . S
C5317 C5301 1.377 . S
C5317 C5315 1.389 . S
C5317 C5318 1.524 . S
C5318 C5317 1.524 . S
C5318 C5319 1.397 . S
C5318 C5323 1.363 . S
C5319 H5290 0.950 . S
C5319 C5318 1.397 . S
C5319 C5320 1.334 . S
C5320 H5291 0.950 . S
C5320 C5319 1.334 . S
C5320 C5321 1.287 . S
C5321 C5320 1.287 . S
C5321 C5322 1.524 . S
C5321 H5324 0.999 . S
C5322 H5292 0.950 . S
C5322 C5321 1.524 . S
C5322 C5323 1.415 . S
C5323 H5293 0.950 . S
C5323 C5318 1.363 . S
C5323 C5322 1.415 . S
H5324 C5321 0.999 . S
H5325 C5306 0.913 . S
H5326 C5344 0.951 . S
H5327 C5346 0.951 . S
H5328 C5348 0.950 . S
H5329 C5349 0.950 . S
H5330 C5351 0.950 . S
H5331 C5354 0.950 . S
H5332 C5355 0.950 . S
H5333 C5357 0.950 . S
H5334 C5358 0.950 . S
H5335 C5359 0.951 . S
H5336 C5361 0.951 . S
H5337 C5363 0.950 . S
H5338 C5364 0.950 . S
H5339 C5366 0.950 . S
H5340 C5369 0.950 . S
H5341 C5370 0.950 . S
H5342 C5372 0.950 . S
H5343 C5373 0.950 . S
C5344 H5326 0.951 . S
C5344 C5345 1.366 . S
C5344 C5346 1.388 . S
C5345 C5344 1.366 . S
C5345 C5349 1.385 . S
C5346 H5327 0.951 . S
C5346 C5344 1.388 . S
C5346 C5347 1.366 . S
C5347 C5346 1.366 . S
C5347 C5348 1.414 . S
C5347 C5350 1.499 . S
C5348 H5328 0.950 . S
C5348 C5347 1.414 . S
C5348 C5349 1.374 . S
C5349 H5329 0.950 . S
C5349 C5345 1.385 . S
C5349 C5348 1.374 . S
C5350 C5347 1.499 . S
C5350 C5351 1.373 . S
C5350 C5352 1.389 . S
C5351 H5330 0.950 . S
C5351 C5350 1.373 . S
C5351 C5367 1.377 . S
C5352 C5350 1.389 . S
C5352 C5353 1.524 . S
C5352 C5366 1.377 . S
C5353 C5352 1.524 . S
C5353 C5354 1.397 . S
C5353 C5358 1.363 . S
C5354 H5331 0.950 . S
C5354 C5353 1.397 . S
C5354 C5355 1.334 . S
C5355 H5332 0.950 . S
C5355 C5354 1.334 . S
C5355 C5356 1.287 . S
C5356 C5355 1.287 . S
C5356 C5357 1.524 . S
C5356 H5375 0.913 . S
C5357 H5333 0.950 . S
C5357 C5356 1.524 . S
C5357 C5358 1.415 . S
C5358 H5334 0.950 . S
C5358 C5353 1.363 . S
C5358 C5357 1.415 . S
C5359 H5335 0.951 . S
C5359 C5360 1.366 . S
C5359 C5361 1.388 . S
C5360 C5359 1.366 . S
C5360 C5364 1.385 . S
C5361 H5336 0.951 . S
C5361 C5359 1.388 . S
C5361 C5362 1.366 . S
C5362 C5361 1.366 . S
C5362 C5363 1.414 . S
C5362 C5365 1.499 . S
C5363 H5337 0.950 . S
C5363 C5362 1.414 . S
C5363 C5364 1.374 . S
C5364 H5338 0.950 . S
C5364 C5360 1.385 . S
C5364 C5363 1.374 . S
C5365 C5362 1.499 . S
C5365 C5366 1.373 . S
C5365 C5367 1.389 . S
C5366 H5339 0.950 . S
C5366 C5352 1.377 . S
C5366 C5365 1.373 . S
C5367 C5351 1.377 . S
C5367 C5365 1.389 . S
C5367 C5368 1.524 . S
C5368 C5367 1.524 . S
C5368 C5369 1.397 . S
C5368 C5373 1.363 . S
C5369 H5340 0.950 . S
C5369 C5368 1.397 . S
C5369 C5370 1.334 . S
C5370 H5341 0.950 . S
C5370 C5369 1.334 . S
C5370 C5371 1.287 . S
C5371 C5370 1.287 . S
C5371 C5372 1.524 . S
C5371 H5374 0.999 . S
C5372 H5342 0.950 . S
C5372 C5371 1.524 . S
C5372 C5373 1.415 . S
C5373 H5343 0.950 . S
C5373 C5368 1.363 . S
C5373 C5372 1.415 . S
H5374 C5371 0.999 . S
H5375 C5356 0.913 . S
H5376 C5394 0.951 . S
H5377 C5396 0.951 . S
H5378 C5398 0.950 . S
H5379 C5399 0.950 . S
H5380 C5401 0.950 . S
H5381 C5404 0.950 . S
H5382 C5405 0.950 . S
H5383 C5407 0.950 . S
H5384 C5408 0.950 . S
H5385 C5409 0.951 . S
H5386 C5411 0.951 . S
H5387 C5413 0.950 . S
H5388 C5414 0.950 . S
H5389 C5416 0.950 . S
H5390 C5419 0.950 . S
H5391 C5420 0.950 . S
H5392 C5422 0.950 . S
H5393 C5423 0.950 . S
C5394 H5376 0.951 . S
C5394 C5395 1.366 . S
C5394 C5396 1.388 . S
C5395 C5394 1.366 . S
C5395 C5399 1.385 . S
C5396 H5377 0.951 . S
C5396 C5394 1.388 . S
C5396 C5397 1.366 . S
C5397 C5396 1.366 . S
C5397 C5398 1.414 . S
C5397 C5400 1.499 . S
C5398 H5378 0.950 . S
C5398 C5397 1.414 . S
C5398 C5399 1.374 . S
C5399 H5379 0.950 . S
C5399 C5395 1.385 . S
C5399 C5398 1.374 . S
C5400 C5397 1.499 . S
C5400 C5401 1.373 . S
C5400 C5402 1.389 . S
C5401 H5380 0.950 . S
C5401 C5400 1.373 . S
C5401 C5417 1.377 . S
C5402 C5400 1.389 . S
C5402 C5403 1.524 . S
C5402 C5416 1.377 . S
C5403 C5402 1.524 . S
C5403 C5404 1.397 . S
C5403 C5408 1.363 . S
C5404 H5381 0.950 . S
C5404 C5403 1.397 . S
C5404 C5405 1.334 . S
C5405 H5382 0.950 . S
C5405 C5404 1.334 . S
C5405 C5406 1.287 . S
C5406 C5405 1.287 . S
C5406 C5407 1.524 . S
C5406 H5425 0.913 . S
C5407 H5383 0.950 . S
C5407 C5406 1.524 . S
C5407 C5408 1.415 . S
C5408 H5384 0.950 . S
C5408 C5403 1.363 . S
C5408 C5407 1.415 . S
C5409 H5385 0.951 . S
C5409 C5410 1.366 . S
C5409 C5411 1.388 . S
C5410 C5409 1.366 . S
C5410 C5414 1.385 . S
C5411 H5386 0.951 . S
C5411 C5409 1.388 . S
C5411 C5412 1.366 . S
C5412 C5411 1.366 . S
C5412 C5413 1.414 . S
C5412 C5415 1.499 . S
C5413 H5387 0.950 . S
C5413 C5412 1.414 . S
C5413 C5414 1.374 . S
C5414 H5388 0.950 . S
C5414 C5410 1.385 . S
C5414 C5413 1.374 . S
C5415 C5412 1.499 . S
C5415 C5416 1.373 . S
C5415 C5417 1.389 . S
C5416 H5389 0.950 . S
C5416 C5402 1.377 . S
C5416 C5415 1.373 . S
C5417 C5401 1.377 . S
C5417 C5415 1.389 . S
C5417 C5418 1.524 . S
C5418 C5417 1.524 . S
C5418 C5419 1.397 . S
C5418 C5423 1.363 . S
C5419 H5390 0.950 . S
C5419 C5418 1.397 . S
C5419 C5420 1.334 . S
C5420 H5391 0.950 . S
C5420 C5419 1.334 . S
C5420 C5421 1.287 . S
C5421 C5420 1.287 . S
C5421 C5422 1.524 . S
C5421 H5424 0.999 . S
C5422 H5392 0.950 . S
C5422 C5421 1.524 . S
C5422 C5423 1.415 . S
C5423 H5393 0.950 . S
C5423 C5418 1.363 . S
C5423 C5422 1.415 . S
H5424 C5421 0.999 . S
H5425 C5406 0.913 . S
H5426 C5444 0.951 . S
H5427 C5446 0.951 . S
H5428 C5448 0.950 . S
H5429 C5449 0.950 . S
H5430 C5451 0.950 . S
H5431 C5454 0.950 . S
H5432 C5455 0.950 . S
H5433 C5457 0.950 . S
H5434 C5458 0.950 . S
H5435 C5459 0.951 . S
H5436 C5461 0.951 . S
H5437 C5463 0.950 . S
H5438 C5464 0.906 1_545 S
H5439 C5466 0.950 . S
H5440 C5469 0.986 . S
H5441 C5470 0.950 . S
H5442 C5472 0.950 . S
H5443 C5473 0.950 . S
C5444 H5426 0.951 . S
C5444 C5445 1.366 . S
C5444 C5446 1.388 . S
C5445 C5444 1.366 . S
C5445 C5449 1.385 . S
C5446 H5427 0.951 . S
C5446 C5444 1.388 . S
C5446 C5447 1.366 . S
C5447 C5446 1.366 . S
C5447 C5448 1.414 . S
C5447 C5450 1.499 . S
C5448 H5428 0.950 . S
C5448 C5447 1.414 . S
C5448 C5449 1.374 . S
C5449 H5429 0.950 . S
C5449 C5445 1.385 . S
C5449 C5448 1.374 . S
C5450 C5447 1.499 . S
C5450 C5451 1.373 . S
C5450 C5452 1.389 . S
C5451 H5430 0.950 . S
C5451 C5450 1.373 . S
C5451 C5467 1.377 . S
C5452 C5450 1.389 . S
C5452 C5453 1.524 . S
C5452 C5466 1.377 . S
C5453 C5452 1.524 . S
C5453 C5454 1.397 . S
C5453 C5458 1.363 . S
C5454 H5431 0.950 . S
C5454 C5453 1.397 . S
C5454 C5455 1.334 . S
C5455 H5432 0.950 . S
C5455 C5454 1.334 . S
C5455 C5456 1.287 . S
C5456 C5455 1.287 . S
C5456 C5457 1.524 . S
C5456 H5475 0.913 . S
C5457 H5433 0.950 . S
C5457 C5456 1.524 . S
C5457 C5458 1.415 . S
C5458 H5434 0.950 . S
C5458 C5453 1.363 . S
C5458 C5457 1.415 . S
C5459 H5435 0.951 . S
C5459 C5460 1.366 . S
C5459 C5461 1.388 . S
C5460 C5459 1.366 . S
C5460 C5464 1.410 . S
C5461 H5436 0.951 . S
C5461 C5459 1.388 . S
C5461 C5462 1.366 . S
C5462 C5461 1.366 . S
C5462 C5463 1.414 . S
C5462 C5465 1.499 . S
C5463 H5437 0.950 . S
C5463 C5462 1.414 . S
C5463 C5464 1.395 . S
C5464 H5438 0.906 1_565 S
C5464 C5460 1.410 . S
C5464 C5463 1.395 . S
C5465 C5462 1.499 . S
C5465 C5466 1.373 . S
C5465 C5467 1.389 . S
C5466 H5439 0.950 . S
C5466 C5452 1.377 . S
C5466 C5465 1.373 . S
C5467 C5451 1.377 . S
C5467 C5465 1.389 . S
C5467 C5468 1.524 . S
C5468 C5467 1.524 . S
C5468 C5469 1.397 . S
C5468 C5473 1.363 . S
C5469 H5440 0.986 . S
C5469 C5468 1.397 . S
C5469 C5470 1.334 1_565 S
C5470 H5441 0.950 . S
C5470 C5469 1.334 1_545 S
C5470 C5471 1.287 1_545 S
C5471 C5470 1.287 1_565 S
C5471 C5472 1.524 . S
C5471 H5474 0.999 1_565 S
C5472 H5442 0.950 . S
C5472 C5471 1.524 . S
C5472 C5473 1.415 . S
C5473 H5443 0.950 . S
C5473 C5468 1.363 . S
C5473 C5472 1.415 . S
H5474 C5471 0.999 1_545 S
H5475 C5456 0.913 . S
H5476 C5494 0.951 . S
H5477 C5496 0.951 . S
H5478 C5498 0.950 . S
H5479 C5499 0.950 . S
H5480 C5501 0.950 . S
H5481 C5504 0.950 . S
H5482 C5505 0.950 . S
H5483 C5507 0.950 . S
H5484 C5508 0.950 . S
H5485 C5509 0.951 . S
H5486 C5511 0.951 . S
H5487 C5513 0.950 . S
H5488 C5514 0.950 . S
H5489 C5516 0.950 . S
H5490 C5519 0.950 . S
H5491 C5520 0.950 . S
H5492 C5522 0.950 . S
H5493 C5523 0.950 . S
C5494 H5476 0.951 . S
C5494 C5495 1.366 . S
C5494 C5496 1.388 . S
C5495 C5494 1.366 . S
C5495 C5499 1.385 . S
C5496 H5477 0.951 . S
C5496 C5494 1.388 . S
C5496 C5497 1.366 . S
C5497 C5496 1.366 . S
C5497 C5498 1.414 . S
C5497 C5500 1.499 . S
C5498 H5478 0.950 . S
C5498 C5497 1.414 . S
C5498 C5499 1.374 . S
C5499 H5479 0.950 . S
C5499 C5495 1.385 . S
C5499 C5498 1.374 . S
C5500 C5497 1.499 . S
C5500 C5501 1.373 . S
C5500 C5502 1.389 . S
C5501 H5480 0.950 . S
C5501 C5500 1.373 . S
C5501 C5517 1.377 . S
C5502 C5500 1.389 . S
C5502 C5503 1.524 . S
C5502 C5516 1.377 . S
C5503 C5502 1.524 . S
C5503 C5504 1.397 . S
C5503 C5508 1.363 . S
C5504 H5481 0.950 . S
C5504 C5503 1.397 . S
C5504 C5505 1.334 . S
C5505 H5482 0.950 . S
C5505 C5504 1.334 . S
C5505 C5506 1.287 . S
C5506 C5505 1.287 . S
C5506 C5507 1.524 . S
C5506 H5525 0.913 . S
C5507 H5483 0.950 . S
C5507 C5506 1.524 . S
C5507 C5508 1.415 . S
C5508 H5484 0.950 . S
C5508 C5503 1.363 . S
C5508 C5507 1.415 . S
C5509 H5485 0.951 . S
C5509 C5510 1.366 . S
C5509 C5511 1.388 . S
C5510 C5509 1.366 . S
C5510 C5514 1.385 . S
C5511 H5486 0.951 . S
C5511 C5509 1.388 . S
C5511 C5512 1.366 . S
C5512 C5511 1.366 . S
C5512 C5513 1.414 . S
C5512 C5515 1.499 . S
C5513 H5487 0.950 . S
C5513 C5512 1.414 . S
C5513 C5514 1.374 . S
C5514 H5488 0.950 . S
C5514 C5510 1.385 . S
C5514 C5513 1.374 . S
C5515 C5512 1.499 . S
C5515 C5516 1.373 . S
C5515 C5517 1.389 . S
C5516 H5489 0.950 . S
C5516 C5502 1.377 . S
C5516 C5515 1.373 . S
C5517 C5501 1.377 . S
C5517 C5515 1.389 . S
C5517 C5518 1.524 . S
C5518 C5517 1.524 . S
C5518 C5519 1.397 . S
C5518 C5523 1.363 . S
C5519 H5490 0.950 . S
C5519 C5518 1.397 . S
C5519 C5520 1.334 . S
C5520 H5491 0.950 . S
C5520 C5519 1.334 . S
C5520 C5521 1.287 . S
C5521 C5520 1.287 . S
C5521 C5522 1.524 . S
C5521 H5524 0.999 . S
C5522 H5492 0.950 . S
C5522 C5521 1.524 . S
C5522 C5523 1.415 . S
C5523 H5493 0.950 . S
C5523 C5518 1.363 . S
C5523 C5522 1.415 . S
H5524 C5521 0.999 . S
H5525 C5506 0.913 . S
H5526 C5544 0.951 . S
H5527 C5546 0.951 . S
H5528 C5548 0.950 . S
H5529 C5549 0.950 . S
H5530 C5551 0.950 . S
H5531 C5554 0.950 . S
H5532 C5555 0.950 . S
H5533 C5557 0.950 . S
H5534 C5558 0.950 . S
H5535 C5559 0.951 . S
H5536 C5561 0.951 . S
H5537 C5563 0.950 . S
H5538 C5564 0.950 . S
H5539 C5566 0.950 . S
H5540 C5569 0.950 . S
H5541 C5570 0.949 . S
H5542 C5572 0.950 . S
H5543 C5573 0.950 . S
C5544 H5526 0.951 . S
C5544 C5545 1.366 . S
C5544 C5546 1.388 . S
C5545 C5544 1.366 . S
C5545 C5549 1.385 . S
C5546 H5527 0.951 . S
C5546 C5544 1.388 . S
C5546 C5547 1.366 . S
C5547 C5546 1.366 . S
C5547 C5548 1.414 . S
C5547 C5550 1.499 . S
C5548 H5528 0.950 . S
C5548 C5547 1.414 . S
C5548 C5549 1.374 . S
C5549 H5529 0.950 . S
C5549 C5545 1.385 . S
C5549 C5548 1.374 . S
C5550 C5547 1.499 . S
C5550 C5551 1.373 . S
C5550 C5552 1.389 . S
C5551 H5530 0.950 . S
C5551 C5550 1.373 . S
C5551 C5567 1.377 . S
C5552 C5550 1.389 . S
C5552 C5553 1.524 . S
C5552 C5566 1.377 . S
C5553 C5552 1.524 . S
C5553 C5554 1.397 . S
C5553 C5558 1.363 . S
C5554 H5531 0.950 . S
C5554 C5553 1.397 . S
C5554 C5555 1.334 . S
C5555 H5532 0.950 . S
C5555 C5554 1.334 . S
C5555 C5556 1.287 . S
C5556 C5555 1.287 . S
C5556 C5557 1.524 . S
C5556 H5575 0.913 . S
C5557 H5533 0.950 . S
C5557 C5556 1.524 . S
C5557 C5558 1.415 . S
C5558 H5534 0.950 . S
C5558 C5553 1.363 . S
C5558 C5557 1.415 . S
C5559 H5535 0.951 . S
C5559 C5560 1.366 . S
C5559 C5561 1.388 . S
C5560 C5559 1.366 . S
C5560 C5564 1.385 . S
C5561 H5536 0.951 . S
C5561 C5559 1.388 . S
C5561 C5562 1.366 . S
C5562 C5561 1.366 . S
C5562 C5563 1.414 . S
C5562 C5565 1.499 . S
C5563 H5537 0.950 . S
C5563 C5562 1.414 . S
C5563 C5564 1.374 . S
C5564 H5538 0.950 . S
C5564 C5560 1.385 . S
C5564 C5563 1.374 . S
C5565 C5562 1.499 . S
C5565 C5566 1.373 . S
C5565 C5567 1.389 . S
C5566 H5539 0.950 . S
C5566 C5552 1.377 . S
C5566 C5565 1.373 . S
C5567 C5551 1.377 . S
C5567 C5565 1.389 . S
C5567 C5568 1.524 . S
C5568 C5567 1.524 . S
C5568 C5569 1.397 . S
C5568 C5573 1.363 . S
C5569 H5540 0.950 . S
C5569 C5568 1.397 . S
C5569 C5570 1.334 . S
C5570 H5541 0.949 . S
C5570 C5569 1.334 . S
C5570 C5571 1.287 . S
C5571 C5570 1.287 . S
C5571 C5572 1.524 . S
C5571 H5574 0.999 . S
C5572 H5542 0.950 . S
C5572 C5571 1.524 . S
C5572 C5573 1.415 . S
C5573 H5543 0.950 . S
C5573 C5568 1.363 . S
C5573 C5572 1.415 . S
H5574 C5571 0.999 . S
H5575 C5556 0.913 . S
H5576 C5594 0.951 . S
H5577 C5596 0.951 . S
H5578 C5598 0.950 . S
H5579 C5599 0.950 . S
H5580 C5601 0.950 . S
H5581 C5604 0.950 . S
H5582 C5605 0.950 . S
H5583 C5607 0.950 . S
H5584 C5608 0.950 . S
H5585 C5609 0.951 . S
H5586 C5611 0.951 . S
H5587 C5613 0.950 . S
H5588 C5614 0.950 . S
H5589 C5616 0.950 . S
H5590 C5619 0.950 . S
H5591 C5620 0.950 . S
H5592 C5622 0.950 . S
H5593 C5623 0.950 . S
C5594 H5576 0.951 . S
C5594 C5595 1.366 . S
C5594 C5596 1.388 . S
C5595 C5594 1.366 . S
C5595 C5599 1.385 . S
C5596 H5577 0.951 . S
C5596 C5594 1.388 . S
C5596 C5597 1.366 . S
C5597 C5596 1.366 . S
C5597 C5598 1.414 . S
C5597 C5600 1.499 . S
C5598 H5578 0.950 . S
C5598 C5597 1.414 . S
C5598 C5599 1.374 . S
C5599 H5579 0.950 . S
C5599 C5595 1.385 . S
C5599 C5598 1.374 . S
C5600 C5597 1.499 . S
C5600 C5601 1.373 . S
C5600 C5602 1.389 . S
C5601 H5580 0.950 . S
C5601 C5600 1.373 . S
C5601 C5617 1.377 . S
C5602 C5600 1.389 . S
C5602 C5603 1.524 . S
C5602 C5616 1.377 . S
C5603 C5602 1.524 . S
C5603 C5604 1.397 . S
C5603 C5608 1.363 . S
C5604 H5581 0.950 . S
C5604 C5603 1.397 . S
C5604 C5605 1.334 . S
C5605 H5582 0.950 . S
C5605 C5604 1.334 . S
C5605 C5606 1.287 . S
C5606 C5605 1.287 . S
C5606 C5607 1.524 . S
C5606 H5625 0.913 . S
C5607 H5583 0.950 . S
C5607 C5606 1.524 . S
C5607 C5608 1.415 . S
C5608 H5584 0.950 . S
C5608 C5603 1.363 . S
C5608 C5607 1.415 . S
C5609 H5585 0.951 . S
C5609 C5610 1.366 . S
C5609 C5611 1.388 . S
C5610 C5609 1.366 . S
C5610 C5614 1.385 . S
C5611 H5586 0.951 . S
C5611 C5609 1.388 . S
C5611 C5612 1.366 . S
C5612 C5611 1.366 . S
C5612 C5613 1.414 . S
C5612 C5615 1.499 . S
C5613 H5587 0.950 . S
C5613 C5612 1.414 . S
C5613 C5614 1.374 . S
C5614 H5588 0.950 . S
C5614 C5610 1.385 . S
C5614 C5613 1.374 . S
C5615 C5612 1.499 . S
C5615 C5616 1.373 . S
C5615 C5617 1.389 . S
C5616 H5589 0.950 . S
C5616 C5602 1.377 . S
C5616 C5615 1.373 . S
C5617 C5601 1.377 . S
C5617 C5615 1.389 . S
C5617 C5618 1.524 . S
C5618 C5617 1.524 . S
C5618 C5619 1.397 . S
C5618 C5623 1.363 . S
C5619 H5590 0.950 . S
C5619 C5618 1.397 . S
C5619 C5620 1.334 . S
C5620 H5591 0.950 . S
C5620 C5619 1.334 . S
C5620 C5621 1.287 . S
C5621 C5620 1.287 . S
C5621 C5622 1.524 . S
C5621 H5624 0.999 . S
C5622 H5592 0.950 . S
C5622 C5621 1.524 . S
C5622 C5623 1.415 . S
C5623 H5593 0.950 . S
C5623 C5618 1.363 . S
C5623 C5622 1.415 . S
H5624 C5621 0.999 . S
H5625 C5606 0.913 . S
H5626 C5644 0.951 . S
H5627 C5646 0.951 . S
H5628 C5648 0.950 . S
H5629 C5649 0.950 . S
H5630 C5651 0.950 . S
H5631 C5654 0.950 . S
H5632 C5655 0.950 . S
H5633 C5657 0.950 . S
H5634 C5658 0.950 . S
H5635 C5659 0.951 . S
H5636 C5661 0.951 . S
H5637 C5663 0.950 . S
H5638 C5664 0.950 . S
H5639 C5666 0.950 . S
H5640 C5669 0.935 1_556 S
H5641 C5670 0.950 . S
H5642 C5672 0.950 . S
H5643 C5673 0.950 . S
C5644 H5626 0.951 . S
C5644 C5645 1.366 . S
C5644 C5646 1.388 . S
C5645 C5644 1.366 . S
C5645 C5649 1.385 . S
C5646 H5627 0.951 . S
C5646 C5644 1.388 . S
C5646 C5647 1.366 . S
C5647 C5646 1.366 . S
C5647 C5648 1.414 . S
C5647 C5650 1.499 . S
C5648 H5628 0.950 . S
C5648 C5647 1.414 . S
C5648 C5649 1.374 . S
C5649 H5629 0.950 . S
C5649 C5645 1.385 . S
C5649 C5648 1.374 . S
C5650 C5647 1.499 . S
C5650 C5651 1.373 . S
C5650 C5652 1.389 . S
C5651 H5630 0.950 . S
C5651 C5650 1.373 . S
C5651 C5667 1.377 . S
C5652 C5650 1.389 . S
C5652 C5653 1.524 . S
C5652 C5666 1.377 . S
C5653 C5652 1.524 . S
C5653 C5654 1.397 . S
C5653 C5658 1.363 . S
C5654 H5631 0.950 . S
C5654 C5653 1.397 . S
C5654 C5655 1.334 . S
C5655 H5632 0.950 . S
C5655 C5654 1.334 . S
C5655 C5656 1.287 . S
C5656 C5655 1.287 . S
C5656 C5657 1.524 . S
C5656 H5675 0.913 . S
C5657 H5633 0.950 . S
C5657 C5656 1.524 . S
C5657 C5658 1.415 . S
C5658 H5634 0.950 . S
C5658 C5653 1.363 . S
C5658 C5657 1.415 . S
C5659 H5635 0.951 . S
C5659 C5660 1.366 . S
C5659 C5661 1.388 . S
C5660 C5659 1.366 . S
C5660 C5664 1.385 . S
C5661 H5636 0.951 . S
C5661 C5659 1.388 . S
C5661 C5662 1.366 . S
C5662 C5661 1.366 . S
C5662 C5663 1.414 . S
C5662 C5665 1.499 . S
C5663 H5637 0.950 . S
C5663 C5662 1.414 . S
C5663 C5664 1.374 . S
C5664 H5638 0.950 . S
C5664 C5660 1.385 . S
C5664 C5663 1.374 . S
C5665 C5662 1.499 . S
C5665 C5666 1.373 . S
C5665 C5667 1.389 . S
C5666 H5639 0.950 . S
C5666 C5652 1.377 . S
C5666 C5665 1.373 . S
C5667 C5651 1.377 . S
C5667 C5665 1.389 . S
C5667 C5668 1.524 . S
C5668 C5667 1.524 . S
C5668 C5669 1.397 . S
C5668 C5673 1.363 . S
C5669 H5640 0.935 1_554 S
C5669 C5668 1.397 . S
C5669 C5670 1.334 1_554 S
C5670 H5641 0.950 . S
C5670 C5669 1.334 1_556 S
C5670 C5671 1.287 . S
C5671 C5670 1.287 . S
C5671 C5672 1.524 1_556 S
C5671 H5674 0.999 . S
C5672 H5642 0.950 . S
C5672 C5671 1.524 1_554 S
C5672 C5673 1.415 . S
C5673 H5643 0.950 . S
C5673 C5668 1.363 . S
C5673 C5672 1.415 . S
H5674 C5671 0.999 . S
H5675 C5656 0.913 . S
H5676 C5694 0.951 . S
H5677 C5696 0.951 . S
H5678 C5698 0.950 . S
H5679 C5699 0.950 . S
H5680 C5701 0.950 . S
H5681 C5704 0.950 . S
H5682 C5705 0.950 . S
H5683 C5707 0.950 . S
H5684 C5708 0.950 . S
H5685 C5709 0.951 . S
H5686 C5711 0.951 . S
H5687 C5713 0.950 . S
H5688 C5714 0.950 . S
H5689 C5716 0.950 . S
H5690 C5719 0.950 . S
H5691 C5720 0.950 . S
H5692 C5722 0.950 . S
H5693 C5723 0.950 . S
C5694 H5676 0.951 . S
C5694 C5695 1.366 . S
C5694 C5696 1.388 . S
C5695 C5694 1.366 . S
C5695 C5699 1.385 . S
C5696 H5677 0.951 . S
C5696 C5694 1.388 . S
C5696 C5697 1.366 . S
C5697 C5696 1.366 . S
C5697 C5698 1.414 . S
C5697 C5700 1.499 . S
C5698 H5678 0.950 . S
C5698 C5697 1.414 . S
C5698 C5699 1.374 . S
C5699 H5679 0.950 . S
C5699 C5695 1.385 . S
C5699 C5698 1.374 . S
C5700 C5697 1.499 . S
C5700 C5701 1.373 . S
C5700 C5702 1.389 . S
C5701 H5680 0.950 . S
C5701 C5700 1.373 . S
C5701 C5717 1.377 . S
C5702 C5700 1.389 . S
C5702 C5703 1.524 . S
C5702 C5716 1.377 . S
C5703 C5702 1.524 . S
C5703 C5704 1.397 . S
C5703 C5708 1.363 . S
C5704 H5681 0.950 . S
C5704 C5703 1.397 . S
C5704 C5705 1.334 . S
C5705 H5682 0.950 . S
C5705 C5704 1.334 . S
C5705 C5706 1.287 . S
C5706 C5705 1.287 . S
C5706 C5707 1.524 . S
C5706 H5725 0.913 . S
C5707 H5683 0.950 . S
C5707 C5706 1.524 . S
C5707 C5708 1.415 . S
C5708 H5684 0.950 . S
C5708 C5703 1.363 . S
C5708 C5707 1.415 . S
C5709 H5685 0.951 . S
C5709 C5710 1.366 . S
C5709 C5711 1.388 . S
C5710 C5709 1.366 . S
C5710 C5714 1.385 . S
C5711 H5686 0.951 . S
C5711 C5709 1.388 . S
C5711 C5712 1.366 . S
C5712 C5711 1.366 . S
C5712 C5713 1.414 . S
C5712 C5715 1.499 . S
C5713 H5687 0.950 . S
C5713 C5712 1.414 . S
C5713 C5714 1.374 . S
C5714 H5688 0.950 . S
C5714 C5710 1.385 . S
C5714 C5713 1.374 . S
C5715 C5712 1.499 . S
C5715 C5716 1.373 . S
C5715 C5717 1.389 . S
C5716 H5689 0.950 . S
C5716 C5702 1.377 . S
C5716 C5715 1.373 . S
C5717 C5701 1.377 . S
C5717 C5715 1.389 . S
C5717 C5718 1.524 . S
C5718 C5717 1.524 . S
C5718 C5719 1.397 . S
C5718 C5723 1.363 . S
C5719 H5690 0.950 . S
C5719 C5718 1.397 . S
C5719 C5720 1.334 . S
C5720 H5691 0.950 . S
C5720 C5719 1.334 . S
C5720 C5721 1.287 . S
C5721 C5720 1.287 . S
C5721 C5722 1.524 . S
C5721 H5724 0.999 . S
C5722 H5692 0.950 . S
C5722 C5721 1.524 . S
C5722 C5723 1.415 . S
C5723 H5693 0.950 . S
C5723 C5718 1.363 . S
C5723 C5722 1.415 . S
H5724 C5721 0.999 . S
H5725 C5706 0.913 . S
H5726 C5744 0.951 . S
H5727 C5746 0.951 . S
H5728 C5748 0.950 . S
H5729 C5749 0.950 . S
H5730 C5751 0.950 . S
H5731 C5754 0.950 . S
H5732 C5755 0.950 . S
H5733 C5757 0.950 . S
H5734 C5758 0.950 . S
H5735 C5759 0.951 . S
H5736 C5761 0.951 . S
H5737 C5763 0.950 . S
H5738 C5764 0.950 . S
H5739 C5766 0.950 . S
H5740 C5769 0.950 . S
H5741 C5770 0.950 . S
H5742 C5772 0.950 . S
H5743 C5773 0.950 . S
C5744 H5726 0.951 . S
C5744 C5745 1.366 . S
C5744 C5746 1.388 . S
C5745 C5744 1.366 . S
C5745 C5749 1.385 . S
C5746 H5727 0.951 . S
C5746 C5744 1.388 . S
C5746 C5747 1.366 . S
C5747 C5746 1.366 . S
C5747 C5748 1.414 . S
C5747 C5750 1.499 . S
C5748 H5728 0.950 . S
C5748 C5747 1.414 . S
C5748 C5749 1.374 . S
C5749 H5729 0.950 . S
C5749 C5745 1.385 . S
C5749 C5748 1.374 . S
C5750 C5747 1.499 . S
C5750 C5751 1.373 . S
C5750 C5752 1.389 . S
C5751 H5730 0.950 . S
C5751 C5750 1.373 . S
C5751 C5767 1.377 . S
C5752 C5750 1.389 . S
C5752 C5753 1.524 . S
C5752 C5766 1.377 . S
C5753 C5752 1.524 . S
C5753 C5754 1.397 . S
C5753 C5758 1.363 . S
C5754 H5731 0.950 . S
C5754 C5753 1.397 . S
C5754 C5755 1.334 . S
C5755 H5732 0.950 . S
C5755 C5754 1.334 . S
C5755 C5756 1.287 . S
C5756 C5755 1.287 . S
C5756 C5757 1.524 . S
C5756 H5775 0.913 . S
C5757 H5733 0.950 . S
C5757 C5756 1.524 . S
C5757 C5758 1.415 . S
C5758 H5734 0.950 . S
C5758 C5753 1.363 . S
C5758 C5757 1.415 . S
C5759 H5735 0.951 . S
C5759 C5760 1.366 . S
C5759 C5761 1.388 . S
C5760 C5759 1.366 . S
C5760 C5764 1.385 . S
C5761 H5736 0.951 . S
C5761 C5759 1.388 . S
C5761 C5762 1.366 . S
C5762 C5761 1.366 . S
C5762 C5763 1.414 . S
C5762 C5765 1.499 . S
C5763 H5737 0.950 . S
C5763 C5762 1.414 . S
C5763 C5764 1.374 . S
C5764 H5738 0.950 . S
C5764 C5760 1.385 . S
C5764 C5763 1.374 . S
C5765 C5762 1.499 . S
C5765 C5766 1.373 . S
C5765 C5767 1.389 . S
C5766 H5739 0.950 . S
C5766 C5752 1.377 . S
C5766 C5765 1.373 . S
C5767 C5751 1.377 . S
C5767 C5765 1.389 . S
C5767 C5768 1.524 . S
C5768 C5767 1.524 . S
C5768 C5769 1.397 . S
C5768 C5773 1.363 . S
C5769 H5740 0.950 . S
C5769 C5768 1.397 . S
C5769 C5770 1.334 . S
C5770 H5741 0.950 . S
C5770 C5769 1.334 . S
C5770 C5771 1.287 . S
C5771 C5770 1.287 . S
C5771 C5772 1.524 . S
C5771 H5774 0.999 . S
C5772 H5742 0.950 . S
C5772 C5771 1.524 . S
C5772 C5773 1.415 . S
C5773 H5743 0.950 . S
C5773 C5768 1.363 . S
C5773 C5772 1.415 . S
H5774 C5771 0.999 . S
H5775 C5756 0.913 . S
C995 C106 2.442 . S
C1010 C355 2.408 . S
C1045 C65 2.154 . S
C1060 C384 2.143 . S
C1095 C79 1.456 . S
C1110 C435 1.429 . S
C1160 C461 1.305 . S
C1145 C90 1.294 . S
C1195 C21 0.294 . S
C1210 C501 0.242 . S
C1260 C551 0.216 . S
C1245 C35 0.430 . S
C1310 C594 0.335 . S
C1295 C50 0.122 . S
C1345 C6 0.953 . S
C1360 C631 0.986 . S
C1410 C344 2.616 . S
C1395 C232 2.609 . S
C1445 C245 0.561 . S
C1460 C381 0.489 . S
C1510 C424 2.507 . S
C1495 C274 2.521 . S
C1560 C475 1.094 . S
C1545 C175 1.098 . S
C1595 C231 1.470 . S
C1610 C515 1.487 . S
C1660 C554 0.357 . S
C1645 C246 0.276 . S
C1710 C585 1.702 1_556 S
C1695 C273 1.691 . S
C1760 C634 2.149 . S
C1745 C176 2.129 . S
C1810 C341 1.204 . S
C1795 C160 1.170 . S
C1845 C289 2.323 . S
C1860 C664 2.311 . S
C1910 C705 2.454 . S
C1895 C328 2.429 . S
C1960 C751 0.593 . S
C1945 C317 0.590 . S
C1995 C118 2.488 . S
C2010 C625 2.508 . S
C2045 C132 1.471 . S
C2060 C421 1.494 . S
C2095 C331 2.354 . S
C2110 C784 2.336 . S
C2160 C835 1.951 . S
C2145 C303 1.969 . S
C2210 C345 1.909 . S
C2195 C63 1.928 . S
C2260 C834 2.635 . S
C2245 C107 2.610 . S
C2295 C92 1.182 . S
C2310 C425 1.179 . S
C2345 C78 1.851 . S
C2360 C791 1.862 . S
C2410 C511 0.709 . S
C2395 C8 0.710 . S
C2445 C51 0.273 . S
C2460 C701 0.250 . S
C2510 C584 0.478 . S
C2495 C37 0.471 . S
C2560 C861 0.893 . S
C2545 C20 0.883 . S
C2610 C354 2.387 1_556 S
C2595 C147 2.333 . S
C2660 C831 0.303 . S
C2645 C316 0.258 . S
C2695 C119 2.378 . S
C2710 C434 2.424 . S
C2745 C288 1.216 . S
C2760 C785 1.213 . S
C2795 C148 1.963 1_545 S
C2810 C505 1.932 . S
C2860 C704 0.430 . S
C2845 C315 0.439 . S
C2895 C120 2.055 . S
C2910 C595 1.982 . S
C2945 C287 1.839 . S
C2960 C864 1.856 . S
C2995 C188 0.946 . S
C3010 C351 0.953 . S
C3045 C177 2.743 . S
C3060 C674 2.750 . S
C3095 C258 2.515 . S
C3110 C555 2.556 . S
C3145 C247 0.520 . S
C3160 C741 0.521 . S
C3210 C875 2.440 . S
C3195 C272 2.436 . S
C3245 C216 1.318 . S
C3260 C431 1.330 . S
C3310 C474 2.588 . S
C3295 C261 2.583 . S
C3360 C385 2.089 . S
C3345 C205 2.121 . S
C3395 C76 2.024 . S
C3410 C915 2.025 . S
C3460 C824 2.238 . S
C3445 C93 2.247 . S
C3495 C105 1.005 . S
C3510 C955 1.001 . S
C3545 C62 1.325 1_655 S
C3560 C781 1.339 . S
C3595 C49 0.293 . S
C3610 C661 0.249 . S
C3660 C711 0.519 . S
C3645 C9 0.517 1_655 S
C3710 C754 0.377 . S
C3695 C22 0.185 . S
C3760 C871 1.271 . S
C3745 C36 1.270 . S
C3810 C904 2.548 . S
C3795 C260 2.540 . S
C3845 C189 0.616 . S
C3860 C821 0.565 . S
C3910 C944 2.379 . S
C3895 C204 2.392 . S
C3960 C795 0.920 . S
C3945 C217 0.925 . S
C4010 C675 1.794 1_556 S
C3995 C259 1.764 . S
C4045 C190 0.426 . S
C4060 C714 0.458 . S
C4110 C745 1.913 . S
C4095 C203 1.901 . S
C4145 C218 2.247 . S
C4160 C874 2.271 . S
C4210 C901 1.187 . S
C4195 C314 1.151 . S
C4245 C135 2.406 . S
C4260 C504 2.393 . S
C4310 C545 2.311 . S
C4295 C146 2.281 . S
C4360 C591 0.600 . S
C4345 C163 0.598 . S
C4410 C865 2.589 . S
C4395 C300 2.572 . S
C4445 C286 1.396 . S
C4460 C941 1.422 . S
C4510 C464 2.239 . S
C4495 C149 2.254 . S
C4560 C395 1.888 . S
C4545 C121 1.915 1_565 S
C4595 C91 1.892 . S
C4610 C905 1.880 . S
C4660 C394 2.212 . S
C4645 C77 2.158 . S
C4695 C64 1.148 . S
C4710 C945 1.149 . S
C4745 C104 1.498 . S
C4760 C471 1.515 . S
C4795 C34 0.363 . S
C4810 C671 0.311 . S
C4860 C541 0.209 . S
C4845 C23 0.266 . S
C4895 C7 0.449 . S
C4910 C744 0.348 . S
C4945 C48 0.821 . S
C4960 C621 0.827 . S
C5010 C914 2.352 . S
C4995 C329 2.304 . S
C5045 C162 0.275 . S
C5060 C391 0.281 . S
C5110 C954 2.391 1_656 S
C5095 C301 2.379 . S
C5145 C134 1.227 . S
C5160 C465 1.224 . S
C5195 C330 1.925 . S
C5210 C665 1.896 . S
C5260 C544 0.485 . S
C5245 C161 0.486 . S
C5295 C302 2.018 . S
C5310 C755 1.955 1_655 S
C5360 C624 1.842 . S
C5345 C133 1.829 . S
C5410 C911 1.143 . S
C5395 C244 1.130 . S
C5460 C514 2.691 1_565 S
C5445 C219 2.675 . S
C5495 C230 2.127 . S
C5510 C715 2.155 . S
C5560 C581 0.554 . S
C5545 C191 0.549 . S
C5595 C202 2.719 . S
C5610 C635 2.733 . S
C5645 C174 1.564 . S
C5660 C951 1.581 . S
C5710 C794 2.565 . S
C5695 C233 2.553 1_565 S
C5760 C825 2.043 . S
C5745 C275 2.088 . S
