# Generated by pormake.
# Topology iac, (4,6)-cn, num edge types: 1
# Building blocks:
#     Node 0, Type 0, BuildingBlock: CEKHIL_clean_sbu_0, # of connection points: 4
#     Node 1, Type 0, BuildingBlock: CEKHIL_clean_sbu_0, # of connection points: 4
#     Node 2, Type 0, BuildingBlock: CEKHIL_clean_sbu_0, # of connection points: 4
#     Node 3, Type 0, BuildingBlock: CEKHIL_clean_sbu_0, # of connection points: 4
#     Node 4, Type 0, BuildingBlock: CEKHIL_clean_sbu_0, # of connection points: 4
#     Node 5, Type 0, BuildingBlock: CEKHIL_clean_sbu_0, # of connection points: 4
#     Node 6, Type 0, BuildingBlock: CEKHIL_clean_sbu_0, # of connection points: 4
#     Node 7, Type 0, BuildingBlock: CEKHIL_clean_sbu_0, # of connection points: 4
#     Node 8, Type 0, BuildingBlock: CEKHIL_clean_sbu_0, # of connection points: 4
#     Node 9, Type 0, BuildingBlock: CEKHIL_clean_sbu_0, # of connection points: 4
#     Node 10, Type 0, BuildingBlock: CEKHIL_clean_sbu_0, # of connection points: 4
#     Node 11, Type 0, BuildingBlock: CEKHIL_clean_sbu_0, # of connection points: 4
#     Node 12, Type 0, BuildingBlock: CEKHIL_clean_sbu_0, # of connection points: 4
#     Node 13, Type 0, BuildingBlock: CEKHIL_clean_sbu_0, # of connection points: 4
#     Node 14, Type 0, BuildingBlock: CEKHIL_clean_sbu_0, # of connection points: 4
#     Node 15, Type 0, BuildingBlock: CEKHIL_clean_sbu_0, # of connection points: 4
#     Node 16, Type 0, BuildingBlock: CEKHIL_clean_sbu_0, # of connection points: 4
#     Node 17, Type 0, BuildingBlock: CEKHIL_clean_sbu_0, # of connection points: 4
#     Node 18, Type 0, BuildingBlock: CEKHIL_clean_sbu_0, # of connection points: 4
#     Node 19, Type 0, BuildingBlock: CEKHIL_clean_sbu_0, # of connection points: 4
#     Node 20, Type 0, BuildingBlock: CEKHIL_clean_sbu_0, # of connection points: 4
#     Node 21, Type 0, BuildingBlock: CEKHIL_clean_sbu_0, # of connection points: 4
#     Node 22, Type 0, BuildingBlock: CEKHIL_clean_sbu_0, # of connection points: 4
#     Node 23, Type 0, BuildingBlock: CEKHIL_clean_sbu_0, # of connection points: 4
#     Node 24, Type 1, BuildingBlock: JUFBIX_clean_sbu_0, # of connection points: 6
#     Node 25, Type 1, BuildingBlock: JUFBIX_clean_sbu_0, # of connection points: 6
#     Node 26, Type 1, BuildingBlock: JUFBIX_clean_sbu_0, # of connection points: 6
#     Node 27, Type 1, BuildingBlock: JUFBIX_clean_sbu_0, # of connection points: 6
#     Node 28, Type 1, BuildingBlock: JUFBIX_clean_sbu_0, # of connection points: 6
#     Node 29, Type 1, BuildingBlock: JUFBIX_clean_sbu_0, # of connection points: 6
#     Node 30, Type 1, BuildingBlock: JUFBIX_clean_sbu_0, # of connection points: 6
#     Node 31, Type 1, BuildingBlock: JUFBIX_clean_sbu_0, # of connection points: 6
#     Node 32, Type 1, BuildingBlock: JUFBIX_clean_sbu_0, # of connection points: 6
#     Node 33, Type 1, BuildingBlock: JUFBIX_clean_sbu_0, # of connection points: 6
#     Node 34, Type 1, BuildingBlock: JUFBIX_clean_sbu_0, # of connection points: 6
#     Node 35, Type 1, BuildingBlock: JUFBIX_clean_sbu_0, # of connection points: 6
#     Node 36, Type 1, BuildingBlock: JUFBIX_clean_sbu_0, # of connection points: 6
#     Node 37, Type 1, BuildingBlock: JUFBIX_clean_sbu_0, # of connection points: 6
#     Node 38, Type 1, BuildingBlock: JUFBIX_clean_sbu_0, # of connection points: 6
#     Node 39, Type 1, BuildingBlock: JUFBIX_clean_sbu_0, # of connection points: 6
#     Edge 40, Type (0, 1), BuildingBlock: CIFDUS_clean_linker_0, # of connection points: 2
#     Edge 41, Type (0, 1), BuildingBlock: CIFDUS_clean_linker_0, # of connection points: 2
#     Edge 42, Type (0, 1), BuildingBlock: CIFDUS_clean_linker_0, # of connection points: 2
#     Edge 43, Type (0, 1), BuildingBlock: CIFDUS_clean_linker_0, # of connection points: 2
#     Edge 44, Type (0, 1), BuildingBlock: CIFDUS_clean_linker_0, # of connection points: 2
#     Edge 45, Type (0, 1), BuildingBlock: CIFDUS_clean_linker_0, # of connection points: 2
#     Edge 46, Type (0, 1), BuildingBlock: CIFDUS_clean_linker_0, # of connection points: 2
#     Edge 47, Type (0, 1), BuildingBlock: CIFDUS_clean_linker_0, # of connection points: 2
#     Edge 48, Type (0, 1), BuildingBlock: CIFDUS_clean_linker_0, # of connection points: 2
#     Edge 49, Type (0, 1), BuildingBlock: CIFDUS_clean_linker_0, # of connection points: 2
#     Edge 50, Type (0, 1), BuildingBlock: CIFDUS_clean_linker_0, # of connection points: 2
#     Edge 51, Type (0, 1), BuildingBlock: CIFDUS_clean_linker_0, # of connection points: 2
#     Edge 52, Type (0, 1), BuildingBlock: CIFDUS_clean_linker_0, # of connection points: 2
#     Edge 53, Type (0, 1), BuildingBlock: CIFDUS_clean_linker_0, # of connection points: 2
#     Edge 54, Type (0, 1), BuildingBlock: CIFDUS_clean_linker_0, # of connection points: 2
#     Edge 55, Type (0, 1), BuildingBlock: CIFDUS_clean_linker_0, # of connection points: 2
#     Edge 56, Type (0, 1), BuildingBlock: CIFDUS_clean_linker_0, # of connection points: 2
#     Edge 57, Type (0, 1), BuildingBlock: CIFDUS_clean_linker_0, # of connection points: 2
#     Edge 58, Type (0, 1), BuildingBlock: CIFDUS_clean_linker_0, # of connection points: 2
#     Edge 59, Type (0, 1), BuildingBlock: CIFDUS_clean_linker_0, # of connection points: 2
#     Edge 60, Type (0, 1), BuildingBlock: CIFDUS_clean_linker_0, # of connection points: 2
#     Edge 61, Type (0, 1), BuildingBlock: CIFDUS_clean_linker_0, # of connection points: 2
#     Edge 62, Type (0, 1), BuildingBlock: CIFDUS_clean_linker_0, # of connection points: 2
#     Edge 63, Type (0, 1), BuildingBlock: CIFDUS_clean_linker_0, # of connection points: 2
#     Edge 64, Type (0, 1), BuildingBlock: CIFDUS_clean_linker_0, # of connection points: 2
#     Edge 65, Type (0, 1), BuildingBlock: CIFDUS_clean_linker_0, # of connection points: 2
#     Edge 66, Type (0, 1), BuildingBlock: CIFDUS_clean_linker_0, # of connection points: 2
#     Edge 67, Type (0, 1), BuildingBlock: CIFDUS_clean_linker_0, # of connection points: 2
#     Edge 68, Type (0, 1), BuildingBlock: CIFDUS_clean_linker_0, # of connection points: 2
#     Edge 69, Type (0, 1), BuildingBlock: CIFDUS_clean_linker_0, # of connection points: 2
#     Edge 70, Type (0, 1), BuildingBlock: CIFDUS_clean_linker_0, # of connection points: 2
#     Edge 71, Type (0, 1), BuildingBlock: CIFDUS_clean_linker_0, # of connection points: 2
#     Edge 72, Type (0, 1), BuildingBlock: CIFDUS_clean_linker_0, # of connection points: 2
#     Edge 73, Type (0, 1), BuildingBlock: CIFDUS_clean_linker_0, # of connection points: 2
#     Edge 74, Type (0, 1), BuildingBlock: CIFDUS_clean_linker_0, # of connection points: 2
#     Edge 75, Type (0, 1), BuildingBlock: CIFDUS_clean_linker_0, # of connection points: 2
#     Edge 76, Type (0, 1), BuildingBlock: CIFDUS_clean_linker_0, # of connection points: 2
#     Edge 77, Type (0, 1), BuildingBlock: CIFDUS_clean_linker_0, # of connection points: 2
#     Edge 78, Type (0, 1), BuildingBlock: CIFDUS_clean_linker_0, # of connection points: 2
#     Edge 79, Type (0, 1), BuildingBlock: CIFDUS_clean_linker_0, # of connection points: 2
#     Edge 80, Type (0, 1), BuildingBlock: CIFDUS_clean_linker_0, # of connection points: 2
#     Edge 81, Type (0, 1), BuildingBlock: CIFDUS_clean_linker_0, # of connection points: 2
#     Edge 82, Type (0, 1), BuildingBlock: CIFDUS_clean_linker_0, # of connection points: 2
#     Edge 83, Type (0, 1), BuildingBlock: CIFDUS_clean_linker_0, # of connection points: 2
#     Edge 84, Type (0, 1), BuildingBlock: CIFDUS_clean_linker_0, # of connection points: 2
#     Edge 85, Type (0, 1), BuildingBlock: CIFDUS_clean_linker_0, # of connection points: 2
#     Edge 86, Type (0, 1), BuildingBlock: CIFDUS_clean_linker_0, # of connection points: 2
#     Edge 87, Type (0, 1), BuildingBlock: CIFDUS_clean_linker_0, # of connection points: 2
#     Edge 88, Type (0, 1), BuildingBlock: CIFDUS_clean_linker_0, # of connection points: 2
#     Edge 89, Type (0, 1), BuildingBlock: CIFDUS_clean_linker_0, # of connection points: 2
#     Edge 90, Type (0, 1), BuildingBlock: CIFDUS_clean_linker_0, # of connection points: 2
#     Edge 91, Type (0, 1), BuildingBlock: CIFDUS_clean_linker_0, # of connection points: 2
#     Edge 92, Type (0, 1), BuildingBlock: CIFDUS_clean_linker_0, # of connection points: 2
#     Edge 93, Type (0, 1), BuildingBlock: CIFDUS_clean_linker_0, # of connection points: 2
#     Edge 94, Type (0, 1), BuildingBlock: CIFDUS_clean_linker_0, # of connection points: 2
#     Edge 95, Type (0, 1), BuildingBlock: CIFDUS_clean_linker_0, # of connection points: 2
#     Edge 96, Type (0, 1), BuildingBlock: CIFDUS_clean_linker_0, # of connection points: 2
#     Edge 97, Type (0, 1), BuildingBlock: CIFDUS_clean_linker_0, # of connection points: 2
#     Edge 98, Type (0, 1), BuildingBlock: CIFDUS_clean_linker_0, # of connection points: 2
#     Edge 99, Type (0, 1), BuildingBlock: CIFDUS_clean_linker_0, # of connection points: 2
#     Edge 100, Type (0, 1), BuildingBlock: CIFDUS_clean_linker_0, # of connection points: 2
#     Edge 101, Type (0, 1), BuildingBlock: CIFDUS_clean_linker_0, # of connection points: 2
#     Edge 102, Type (0, 1), BuildingBlock: CIFDUS_clean_linker_0, # of connection points: 2
#     Edge 103, Type (0, 1), BuildingBlock: CIFDUS_clean_linker_0, # of connection points: 2
#     Edge 104, Type (0, 1), BuildingBlock: CIFDUS_clean_linker_0, # of connection points: 2
#     Edge 105, Type (0, 1), BuildingBlock: CIFDUS_clean_linker_0, # of connection points: 2
#     Edge 106, Type (0, 1), BuildingBlock: CIFDUS_clean_linker_0, # of connection points: 2
#     Edge 107, Type (0, 1), BuildingBlock: CIFDUS_clean_linker_0, # of connection points: 2
#     Edge 108, Type (0, 1), BuildingBlock: CIFDUS_clean_linker_0, # of connection points: 2
#     Edge 109, Type (0, 1), BuildingBlock: CIFDUS_clean_linker_0, # of connection points: 2
#     Edge 110, Type (0, 1), BuildingBlock: CIFDUS_clean_linker_0, # of connection points: 2
#     Edge 111, Type (0, 1), BuildingBlock: CIFDUS_clean_linker_0, # of connection points: 2
#     Edge 112, Type (0, 1), BuildingBlock: CIFDUS_clean_linker_0, # of connection points: 2
#     Edge 113, Type (0, 1), BuildingBlock: CIFDUS_clean_linker_0, # of connection points: 2
#     Edge 114, Type (0, 1), BuildingBlock: CIFDUS_clean_linker_0, # of connection points: 2
#     Edge 115, Type (0, 1), BuildingBlock: CIFDUS_clean_linker_0, # of connection points: 2
#     Edge 116, Type (0, 1), BuildingBlock: CIFDUS_clean_linker_0, # of connection points: 2
#     Edge 117, Type (0, 1), BuildingBlock: CIFDUS_clean_linker_0, # of connection points: 2
#     Edge 118, Type (0, 1), BuildingBlock: CIFDUS_clean_linker_0, # of connection points: 2
#     Edge 119, Type (0, 1), BuildingBlock: CIFDUS_clean_linker_0, # of connection points: 2
#     Edge 120, Type (0, 1), BuildingBlock: CIFDUS_clean_linker_0, # of connection points: 2
#     Edge 121, Type (0, 1), BuildingBlock: CIFDUS_clean_linker_0, # of connection points: 2
#     Edge 122, Type (0, 1), BuildingBlock: CIFDUS_clean_linker_0, # of connection points: 2
#     Edge 123, Type (0, 1), BuildingBlock: CIFDUS_clean_linker_0, # of connection points: 2
#     Edge 124, Type (0, 1), BuildingBlock: CIFDUS_clean_linker_0, # of connection points: 2
#     Edge 125, Type (0, 1), BuildingBlock: CIFDUS_clean_linker_0, # of connection points: 2
#     Edge 126, Type (0, 1), BuildingBlock: CIFDUS_clean_linker_0, # of connection points: 2
#     Edge 127, Type (0, 1), BuildingBlock: CIFDUS_clean_linker_0, # of connection points: 2
#     Edge 128, Type (0, 1), BuildingBlock: CIFDUS_clean_linker_0, # of connection points: 2
#     Edge 129, Type (0, 1), BuildingBlock: CIFDUS_clean_linker_0, # of connection points: 2
#     Edge 130, Type (0, 1), BuildingBlock: CIFDUS_clean_linker_0, # of connection points: 2
#     Edge 131, Type (0, 1), BuildingBlock: CIFDUS_clean_linker_0, # of connection points: 2
#     Edge 132, Type (0, 1), BuildingBlock: CIFDUS_clean_linker_0, # of connection points: 2
#     Edge 133, Type (0, 1), BuildingBlock: CIFDUS_clean_linker_0, # of connection points: 2
#     Edge 134, Type (0, 1), BuildingBlock: CIFDUS_clean_linker_0, # of connection points: 2
#     Edge 135, Type (0, 1), BuildingBlock: CIFDUS_clean_linker_0, # of connection points: 2
# Relax obj value: 0.239
# Max RMSD: 0.240
# Mean RMSD: 0.115
data_MOF--net-iac--node1-CEKHIL_clean_sbu_0--node2-JUFBIX_clean_sbu_0--edge1-CIFDUS_clean_linker_0
_symmetry_space_group_name_H-M    P1
_symmetry_Int_Tables_number       1
_symmetry_cell_setting            triclinic
loop_
_symmetry_equiv_pos_as_xyz
'x, y, z'
_cell_length_a     48.038352
_cell_length_b     48.59492
_cell_length_c     47.774741
_cell_angle_alpha  89.100544
_cell_angle_beta   88.014328
_cell_angle_gamma 88.68584
loop_
_atom_site_label
_atom_site_type_symbol
_atom_site_fract_x
_atom_site_fract_y
_atom_site_fract_z
_atom_type_partial_charge
Co0 Co 0.03793 0.29882 0.15718 0.0
O1 O 0.99687 0.30035 0.1543 0.0
O2 O 0.01819 0.28914 0.19263 0.0
C3 C 0.04594 0.34225 0.1357 0.0
O4 O 0.07888 0.29664 0.17184 0.0
Co5 Co 0.07833 0.29623 0.10907 0.0
O6 O 0.10805 0.30503 0.13553 0.0
C7 C 0.04747 0.2456 0.12103 0.0
C8 C 0.9946 0.29352 0.18066 0.0
C9 C 0.10374 0.30186 0.16183 0.0
O10 O 0.03871 0.25757 0.14408 0.0
O11 O 0.06228 0.25871 0.10269 0.0
O12 O 0.03868 0.33929 0.16196 0.0
O13 O 0.04652 0.31916 0.12222 0.0
Co14 Co 0.07593 0.77901 0.40923 0.0
O15 O 0.11571 0.77739 0.41297 0.0
O16 O 0.09338 0.76977 0.37398 0.0
C17 C 0.06728 0.81874 0.43148 0.0
O18 O 0.03645 0.7805 0.39623 0.0
Co19 Co 0.03411 0.77661 0.46021 0.0
O20 O 1.00631 0.78838 0.43235 0.0
C21 C 0.06509 0.72669 0.4423 0.0
C22 C 0.11684 0.77175 0.3864 0.0
C23 C 0.01201 0.78667 0.40618 0.0
O24 O 0.07338 0.73887 0.41962 0.0
O25 O 0.05155 0.73876 0.46229 0.0
O26 O 0.07673 0.81888 0.40567 0.0
O27 O 0.06647 0.79489 0.44387 0.0
Co28 Co 0.53629 0.79225 0.6556 0.0
O29 O 0.49628 0.79163 0.6484 0.0
O30 O 0.51356 0.78343 0.68956 0.0
C31 C 0.54338 0.83461 0.63168 0.0
O32 O 0.57553 0.79208 0.67412 0.0
Co33 Co 0.58186 0.78954 0.61274 0.0
O34 O 0.60909 0.79903 0.64154 0.0
C35 C 0.55106 0.73834 0.62299 0.0
C36 C 0.49148 0.78579 0.6747 0.0
C37 C 0.60147 0.79662 0.6672 0.0
O38 O 0.53972 0.75061 0.64475 0.0
O39 O 0.5674 0.75138 0.60597 0.0
O40 O 0.53459 0.83318 0.65766 0.0
O41 O 0.54709 0.81056 0.62036 0.0
Co42 Co 0.54508 0.27864 0.91599 0.0
O43 O 0.58469 0.2739 0.91069 0.0
O44 O 0.55406 0.27477 0.87687 0.0
C45 C 0.54449 0.3139 0.94552 0.0
O46 O 0.50373 0.28439 0.91276 0.0
Co47 Co 0.51414 0.26971 0.97366 0.0
O48 O 0.48085 0.28484 0.95465 0.0
C49 C 0.53749 0.22266 0.94191 0.0
C50 C 0.57983 0.27256 0.88411 0.0
C51 C 0.4816 0.28816 0.92814 0.0
O52 O 0.54108 0.23785 0.92002 0.0
O53 O 0.52983 0.23184 0.96598 0.0
O54 O 0.54865 0.31815 0.91878 0.0
O55 O 0.54438 0.28843 0.95375 0.0
Co56 Co 0.15303 0.01729 0.32351 0.0
O57 O 0.15401 0.9803 0.31 0.0
O58 O 0.18895 0.00956 0.30625 0.0
C59 C 0.13357 0.00689 0.3652 0.0
O60 O 0.16046 0.05617 0.33462 0.0
Co61 Co 0.09871 0.04941 0.34102 0.0
O62 O 0.12339 0.07857 0.35391 0.0
C63 C 0.11325 0.0385 0.28136 0.0
C64 C 0.17949 0.98526 0.30172 0.0
C65 C 0.14906 0.0773 0.34641 0.0
O66 O 0.13811 0.03089 0.28732 0.0
O67 O 0.09396 0.04387 0.29981 0.0
O68 O 0.16038 1.00402 0.36124 0.0
O69 O 0.11942 0.01478 0.34399 0.0
Co70 Co 0.25585 0.8968 0.5462 0.0
O71 O 0.21589 0.89666 0.546 0.0
O72 O 0.24121 0.92759 0.56683 0.0
C73 C 0.26505 0.88889 0.50086 0.0
O74 O 0.29644 0.90485 0.55021 0.0
Co75 Co 0.29269 0.84513 0.53249 0.0
O76 O 0.32358 0.8718 0.53038 0.0
C77 C 0.26017 0.84784 0.58544 0.0
C78 C 0.21682 0.91884 0.56085 0.0
C79 C 0.32023 0.89547 0.54127 0.0
O80 O 0.25532 0.87358 0.58107 0.0
O81 O 0.27233 0.83209 0.56738 0.0
O82 O 0.25769 0.91352 0.50893 0.0
O83 O 0.26303 0.86959 0.51971 0.0
Co84 Co 0.40978 0.06576 0.77403 0.0
O85 O 0.4076 0.1051 0.77263 0.0
O86 O 0.37617 0.07761 0.75578 0.0
C87 C 0.42135 0.06085 0.81881 0.0
O88 O 0.40444 0.02411 0.77352 0.0
Co89 Co 0.46648 0.03604 0.78478 0.0
O90 O 0.44239 1.00407 0.7922 0.0
C91 C 0.45862 0.06727 0.73313 0.0
C92 C 0.38419 0.10251 0.76026 0.0
C93 C 0.41725 1.00326 0.78466 0.0
O94 O 0.43201 0.06617 0.73736 0.0
O95 O 0.47601 0.05916 0.75128 0.0
O96 O 0.3954 0.06534 0.81288 0.0
O97 O 0.4391 0.06306 0.79808 0.0
Co98 Co 0.2895 0.16815 0.02334 0.0
O99 O 0.32981 0.17467 0.02271 0.0
O100 O 0.31192 0.1343 0.03088 0.0
C101 C 0.28144 0.19272 0.98128 0.0
O102 O 0.2494 0.15097 0.02427 0.0
Co103 Co 0.24583 0.21289 0.02858 0.0
O104 O 0.21792 0.18513 0.01901 0.0
C105 C 0.27828 0.20054 0.07857 0.0
C106 C 0.33432 0.14872 0.02803 0.0
C107 C 0.2239 0.15948 0.02044 0.0
O108 O 0.28726 0.1783 0.0659 0.0
O109 O 0.26312 0.21851 0.06598 0.0
O110 O 0.28999 0.16716 0.98152 0.0
O111 O 0.27924 0.20314 0.00612 0.0
Co112 Co 0.77182 0.40562 0.03228 0.0
O113 O 0.73239 0.40372 0.03856 0.0
O114 O 0.75843 0.43892 0.04966 0.0
C115 C 0.7737 0.39058 0.98843 0.0
O116 O 0.81244 0.41501 0.02808 0.0
Co117 Co 0.8072 0.35218 0.02263 0.0
O118 O 0.8386 0.37771 0.01616 0.0
C119 C 0.78196 0.36378 0.07791 0.0
C120 C 0.734 0.42794 0.04944 0.0
C121 C 0.83585 0.40338 0.02097 0.0
O122 O 0.77755 0.38872 0.07 0.0
O123 O 0.79081 0.34485 0.0613 0.0
O124 O 0.76703 0.41615 0.9934 0.0
O125 O 0.77577 0.37447 0.0101 0.0
Co126 Co 0.91332 0.5623 0.26907 0.0
O127 O 0.91861 0.60014 0.27735 0.0
O128 O 0.8797 0.58306 0.26162 0.0
C129 C 0.93182 0.5438 0.30738 0.0
O130 O 0.90048 0.52426 0.25954 0.0
Co131 Co 0.96566 0.52359 0.26006 0.0
O132 O 0.93733 0.49462 0.25899 0.0
C133 C 0.95242 0.56722 0.21946 0.0
C134 C 0.89327 0.60436 0.26943 0.0
C135 C 0.91125 0.49984 0.25779 0.0
O136 O 0.92744 0.56906 0.22968 0.0
O137 O 0.97178 0.55302 0.23096 0.0
O138 O 0.90629 0.55336 0.30861 0.0
O139 O 0.94587 0.54907 0.28457 0.0
Co140 Co 0.7903 0.66631 0.52663 0.0
O141 O 0.83062 0.67241 0.52486 0.0
O142 O 0.81241 0.63274 0.53598 0.0
C143 C 0.78164 0.68715 0.4831 0.0
O144 O 0.74998 0.6498 0.52868 0.0
Co145 Co 0.74796 0.71234 0.52955 0.0
O146 O 0.72007 0.68455 0.51991 0.0
C147 C 0.78 0.7021 0.58013 0.0
C148 C 0.83492 0.64671 0.53144 0.0
C149 C 0.72508 0.65882 0.52287 0.0
O150 O 0.78864 0.67919 0.56847 0.0
O151 O 0.76508 0.71967 0.56673 0.0
O152 O 0.79022 0.66174 0.48556 0.0
O153 O 0.78029 0.70012 0.5067 0.0
Co154 Co 0.64945 0.52259 0.82289 0.0
O155 O 0.64789 0.48393 0.81502 0.0
O156 O 0.68567 0.5094 0.81034 0.0
C157 C 0.62604 0.52106 0.86409 0.0
O158 O 0.66036 0.56182 0.82959 0.0
Co159 Co 0.59766 0.56144 0.82938 0.0
O160 O 0.62393 0.59019 0.83951 0.0
C161 C 0.61672 0.54247 0.77336 0.0
C162 C 0.67431 0.48555 0.80845 0.0
C163 C 0.65 0.58538 0.83661 0.0
O164 O 0.63888 0.53151 0.78344 0.0
O165 O 0.59717 0.55375 0.78834 0.0
O166 O 0.6525 0.51477 0.86261 0.0
O167 O 0.61415 0.52621 0.8407 0.0
Co168 Co 0.04629 0.80301 0.90736 0.0
O169 O 0.08605 0.80505 0.91505 0.0
O170 O 0.07054 0.79182 0.87507 0.0
C171 C 0.0363 0.84706 0.92574 0.0
O172 O 1.0075 0.80022 0.88781 0.0
Co173 Co 1.00067 0.80148 0.94839 0.0
O174 O 0.97216 0.80187 0.9192 0.0
C175 C 0.03372 0.75046 0.94408 0.0
C176 C 0.09201 0.79704 0.88973 0.0
C177 C 0.98083 0.80047 0.89385 0.0
O178 O 0.04621 0.76248 0.92279 0.0
O179 O 0.01498 0.7634 0.95863 0.0
O180 O 0.04505 0.84303 0.90011 0.0
O181 O 0.03364 0.82438 0.94047 0.0
Co182 Co 0.9951 0.31556 0.64526 0.0
O183 O 0.95617 0.31212 0.63822 0.0
O184 O 0.97627 0.30078 0.67803 0.0
C185 C 0.99754 0.35819 0.62685 0.0
O186 O 0.03373 0.3164 0.66098 0.0
Co187 Co 0.03967 0.32516 0.59797 0.0
O188 O 0.06648 0.32732 0.62839 0.0
C189 C 0.01942 0.26889 0.61046 0.0
C190 C 0.95365 0.30318 0.66391 0.0
C191 C 0.05917 0.32085 0.65347 0.0
O192 O 1.00368 0.27761 0.63091 0.0
O193 O 0.03358 0.28477 0.59406 0.0
O194 O 0.98907 0.35469 0.65274 0.0
O195 O 1.0033 0.33621 0.61284 0.0
Co196 Co 0.54432 0.29655 0.40694 0.0
O197 O 0.58456 0.29688 0.41388 0.0
O198 O 0.5678 0.28696 0.37348 0.0
C199 C 0.53586 0.33915 0.42949 0.0
O200 O 0.50523 0.29593 0.38759 0.0
Co201 Co 0.4975 0.29502 0.44852 0.0
O202 O 0.46961 0.29652 0.41882 0.0
C203 C 0.52856 0.24277 0.4406 0.0
C204 C 0.58979 0.29076 0.38782 0.0
C205 C 0.47853 0.29601 0.39351 0.0
O206 O 0.54248 0.25515 0.42028 0.0
O207 O 0.51009 0.25578 0.45544 0.0
O208 O 0.54455 0.33754 0.40348 0.0
O209 O 0.53219 0.31518 0.44137 0.0
Co210 Co 0.51674 0.81048 0.13359 0.0
O211 O 0.47963 0.79975 0.12566 0.0
O212 O 0.50103 0.79136 0.16547 0.0
C213 C 0.51041 0.8534 0.11795 0.0
O214 O 0.55372 0.81863 0.15016 0.0
Co215 Co 0.55915 0.83081 0.08848 0.0
O216 O 0.58344 0.8392 0.11987 0.0
C217 C 0.55105 0.77109 0.09766 0.0
C218 C 0.47833 0.79088 0.15142 0.0
C219 C 0.57719 0.82975 0.14424 0.0
O220 O 0.53316 0.77589 0.1177 0.0
O221 O 0.56227 0.79001 0.08242 0.0
O222 O 0.50271 0.84681 0.1434 0.0
O223 O 0.52081 0.83396 0.10235 0.0
Co224 Co 0.89621 0.08678 0.78268 0.0
O225 O 0.90059 0.12392 0.77022 0.0
O226 O 0.86937 0.09532 0.75466 0.0
C227 C 0.89742 0.0959 0.82812 0.0
O228 O 0.88581 0.04739 0.7909 0.0
Co229 Co 0.94298 0.05714 0.81667 0.0
O230 O 0.91732 0.02567 0.81769 0.0
C231 C 0.94984 0.06519 0.75565 0.0
C232 C 0.87964 0.11989 0.75448 0.0
C233 C 0.89496 0.02596 0.80406 0.0
O234 O 0.9244 0.07363 0.75389 0.0
O235 O 0.96192 0.06064 0.77878 0.0
O236 O 0.87407 0.09929 0.81554 0.0
O237 O 0.91903 0.0893 0.81277 0.0
Co238 Co 0.81275 0.15681 0.49688 0.0
O239 O 0.84969 0.16021 0.51071 0.0
O240 O 0.82261 0.12418 0.5176 0.0
C241 C 0.82447 0.17232 0.45378 0.0
O242 O 0.77475 0.14449 0.48626 0.0
Co243 Co 0.77669 0.20404 0.47126 0.0
O244 O 0.7488 0.17585 0.46365 0.0
C245 C 0.77951 0.19631 0.53325 0.0
C246 C 0.84661 0.13534 0.52062 0.0
C247 C 0.75223 0.1519 0.47432 0.0
O248 O 0.79519 0.17455 0.53098 0.0
O249 O 0.77203 0.2112 0.51233 0.0
O250 O 0.82892 0.14655 0.46028 0.0
O251 O 0.81363 0.18761 0.47321 0.0
Co252 Co 0.6552 0.01091 0.3049 0.0
O253 O 0.64771 0.97368 0.29603 0.0
O254 O 0.68663 0.99573 0.28435 0.0
C255 C 0.64111 0.00683 0.34949 0.0
O256 O 0.67081 0.04837 0.31082 0.0
Co257 Co 0.60953 0.0523 0.32568 0.0
O258 O 0.64066 0.07696 0.33316 0.0
C259 C 0.61623 0.03974 0.26528 0.0
C260 C 0.67279 0.97302 0.28501 0.0
C261 C 0.66473 0.07143 0.32243 0.0
O262 O 0.63771 0.02436 0.26986 0.0
O263 O 0.60135 0.05129 0.28474 0.0
O264 O 0.66633 0.99936 0.34197 0.0
O265 O 0.62491 0.0153 0.32995 0.0
Co266 Co 0.78098 0.92159 0.02358 0.0
O267 O 0.73991 0.91735 0.02402 0.0
O268 O 0.76039 0.95521 0.03474 0.0
C269 C 0.78846 0.89975 0.98016 0.0
O270 O 0.82095 0.93891 0.02408 0.0
Co271 Co 0.82673 0.87906 0.02281 0.0
O272 O 0.85568 0.90767 0.02231 0.0
C273 C 0.79456 0.88544 0.07607 0.0
C274 C 0.7371 0.94297 0.03136 0.0
C275 C 0.84745 0.93265 0.02364 0.0
O276 O 0.78234 0.90711 0.06507 0.0
O277 O 0.81192 0.87056 0.06174 0.0
O278 O 0.78079 0.92556 0.98187 0.0
O279 O 0.79162 0.8879 0.00439 0.0
Co280 Co 0.32956 0.66752 0.01447 0.0
O281 O 0.36681 0.66989 0.02812 0.0
O282 O 0.34045 0.63304 0.03118 0.0
C283 C 0.34022 0.68833 0.97336 0.0
O284 O 0.29145 0.6556 0.00313 0.0
Co285 Co 0.29167 0.71603 0.99444 0.0
O286 O 0.26479 0.68824 0.98331 0.0
C287 C 0.29711 0.70262 0.05541 0.0
C288 C 0.36421 0.64416 0.03548 0.0
C289 C 0.26878 0.66354 0.99172 0.0
O290 O 0.31267 0.68114 0.05076 0.0
O291 O 0.28884 0.71919 0.03613 0.0
O292 O 0.34517 0.66205 0.97651 0.0
O293 O 0.32923 0.70088 0.99464 0.0
Co294 Co 0.14845 0.51156 0.79011 0.0
O295 O 0.14051 0.47489 0.7787 0.0
O296 O 0.18206 0.49413 0.77594 0.0
C297 C 0.12501 0.50758 0.83106 0.0
O298 O 0.16532 0.54786 0.79999 0.0
Co299 Co 0.10317 0.55626 0.80479 0.0
O300 O 0.13413 0.57832 0.81797 0.0
C301 C 0.12148 0.54561 0.74545 0.0
C302 C 0.16712 0.4724 0.77335 0.0
C303 C 0.15903 0.57132 0.81081 0.0
O304 O 0.13955 0.52715 0.75259 0.0
O305 O 0.10461 0.55782 0.7628 0.0
O306 O 0.15056 0.49843 0.82851 0.0
O307 O 0.11418 0.51802 0.80887 0.0
Co308 Co 0.28258 0.42338 0.51865 0.0
O309 O 0.24164 0.4196 0.51724 0.0
O310 O 0.26182 0.45667 0.53081 0.0
C311 C 0.29071 0.40468 0.47398 0.0
O312 O 0.32281 0.43978 0.52127 0.0
Co313 Co 0.32665 0.38024 0.51725 0.0
O314 O 0.3566 0.40766 0.51821 0.0
C315 C 0.29518 0.38607 0.57071 0.0
C316 C 0.23866 0.44485 0.5256 0.0
C317 C 0.34912 0.43274 0.5208 0.0
O318 O 0.28244 0.40724 0.55947 0.0
O319 O 0.31314 0.37165 0.55666 0.0
O320 O 0.28393 0.43043 0.4778 0.0
O321 O 0.29274 0.39044 0.49711 0.0
Co322 Co 0.40585 0.58021 0.29049 0.0
O323 O 0.41789 0.61728 0.29011 0.0
O324 O 0.38707 0.60059 0.26156 0.0
C325 C 0.39814 0.57696 0.33663 0.0
O326 O 0.38875 0.54315 0.28578 0.0
Co327 Co 0.44212 0.53651 0.32255 0.0
O328 O 0.41182 0.51195 0.31226 0.0
C329 C 0.46098 0.55707 0.26738 0.0
C330 C 0.40034 0.62167 0.27045 0.0
C331 C 0.39264 0.51861 0.29543 0.0
O332 O 0.43729 0.56929 0.26402 0.0
O333 O 0.46827 0.54542 0.29024 0.0
O334 O 0.37917 0.58836 0.32136 0.0
O335 O 0.42162 0.571 0.32409 0.0
Co336 Co 0.03363 0.05037 0.0127 0.0
C337 C 0.02949 0.09044 0.05691 0.0
Co338 Co 0.04296 0.03328 0.0535 0.0
C339 C 1.00536 0.05808 0.96273 0.0
C340 C 0.03177 0.09202 0.96956 0.0
N341 N 0.0252 0.06674 0.97937 0.0
N342 N 0.99825 0.07727 0.94362 0.0
C343 C 0.01505 0.09864 0.94749 0.0
H344 H 0.99455 0.03897 0.96619 0.0
H345 H 0.04617 0.10552 0.97913 0.0
C346 C 0.04707 0.9938 0.00848 0.0
N347 N 0.05002 0.01629 0.08705 0.0
C348 C 0.0602 0.027 0.11028 0.0
C349 C 0.04163 0.99085 0.09478 0.0
N350 N 0.05791 0.00941 0.13222 0.0
C351 C 0.04632 0.98663 0.12266 0.0
C352 C 0.98663 0.02486 0.03957 0.0
O353 O 0.0415 0.0151 0.99357 0.0
O354 O 0.05027 0.9976 0.03458 0.0
O355 O 1.00425 0.02238 0.05878 0.0
O356 O 0.99416 0.03853 0.01776 0.0
O357 O 0.03568 0.06964 0.07243 0.0
H358 H 0.03129 0.97684 0.0814 0.0
H359 H 0.06746 0.04786 0.11156 0.0
O360 O 0.02567 0.08563 0.03115 0.0
O361 O 0.0728 0.06209 0.00787 0.0
O362 O 0.08194 0.04375 0.04865 0.0
C363 C 0.09016 0.05789 0.02729 0.0
H364 H 0.01436 0.1181 0.93618 0.0
H365 H 0.0408 0.96869 0.1352 0.0
Co366 Co 0.3149 0.81611 0.29387 0.0
C367 C 0.31804 0.76259 0.27573 0.0
Co368 Co 0.28861 0.80836 0.25841 0.0
C369 C 0.32834 0.83822 0.34554 0.0
C370 C 0.36176 0.812 0.33051 0.0
N371 N 0.33679 0.82289 0.32358 0.0
N372 N 0.34661 0.83711 0.36619 0.0
C373 C 0.36771 0.82047 0.35706 0.0
H374 H 0.30794 0.84812 0.34738 0.0
H375 H 0.37401 0.79763 0.31783 0.0
C376 C 0.28513 0.86193 0.27547 0.0
N377 N 0.26622 0.80141 0.22931 0.0
C378 C 0.27296 0.78475 0.20789 0.0
C379 C 0.23928 0.80877 0.22596 0.0
N380 N 0.25128 0.78091 0.19143 0.0
C381 C 0.23002 0.79623 0.20248 0.0
C382 C 0.26197 0.80023 0.30982 0.0
O383 O 0.30179 0.85337 0.2939 0.0
O384 O 0.27731 0.84544 0.25719 0.0
O385 O 0.25872 0.80063 0.2836 0.0
O386 O 0.28541 0.80624 0.31914 0.0
O387 O 0.29953 0.77127 0.25944 0.0
H388 H 0.22702 0.82176 0.24011 0.0
H389 H 0.29349 0.77548 0.2046 0.0
O390 O 0.32805 0.77888 0.29312 0.0
O391 O 0.34395 0.8255 0.26938 0.0
O392 O 0.31941 0.81556 0.23315 0.0
C393 C 0.34234 0.82261 0.24319 0.0
H394 H 0.38528 0.8138 0.36923 0.0
H395 H 0.20919 0.79777 0.19457 0.0
Co396 Co 0.51253 0.03237 0.52627 0.0
C397 C 0.52885 0.08635 0.50753 0.0
Co398 Co 0.55284 0.04401 0.54178 0.0
C399 C 0.46731 0.99885 0.51094 0.0
C400 C 0.45574 0.04165 0.51266 0.0
N401 N 0.47768 0.02399 0.51476 0.0
N402 N 0.43969 1.00009 0.50721 0.0
C403 C 0.43228 0.02695 0.50821 0.0
H404 H 0.4792 0.97981 0.51329 0.0
H405 H 0.45634 0.06354 0.51624 0.0
C406 C 0.53701 0.99006 0.56075 0.0
N407 N 0.58786 0.05283 0.55246 0.0
C408 C 0.60734 0.06362 0.53486 0.0
C409 C 0.60043 0.04937 0.57709 0.0
N410 N 0.63167 0.06706 0.54728 0.0
C411 C 0.62754 0.05808 0.57393 0.0
C412 C 0.50988 0.05949 0.57701 0.0
O413 O 0.51617 0.99581 0.5456 0.0
O414 O 0.55538 0.00853 0.56259 0.0
O415 O 0.53623 0.0608 0.57396 0.0
O416 O 0.49626 0.04745 0.55878 0.0
O417 O 0.5504 0.0797 0.52113 0.0
H418 H 0.59065 0.04083 0.59592 0.0
H419 H 0.60391 0.06815 0.51298 0.0
O420 O 0.50948 0.06877 0.50725 0.0
O421 O 0.52823 0.01735 0.49381 0.0
O422 O 0.56901 0.02705 0.50959 0.0
C423 C 0.55449 0.01684 0.49085 0.0
H424 H 0.41112 0.03508 0.50785 0.0
H425 H 0.64289 0.05797 0.59 0.0
Co426 Co 0.30067 0.30094 0.78318 0.0
C427 C 0.28947 0.31441 0.72634 0.0
Co428 Co 0.26331 0.28112 0.7689 0.0
C429 C 0.35 0.30934 0.81378 0.0
C430 C 0.34026 0.34343 0.78665 0.0
N431 N 0.33185 0.31806 0.79457 0.0
N432 N 0.36934 0.32828 0.81817 0.0
C433 C 0.36348 0.3497 0.80103 0.0
H434 H 0.34905 0.2895 0.82435 0.0
H435 H 0.32979 0.35679 0.77185 0.0
C436 C 0.27518 0.26723 0.82591 0.0
N437 N 0.23083 0.26618 0.75684 0.0
C438 C 0.21427 0.27938 0.73856 0.0
C439 C 0.21688 0.24331 0.7646 0.0
N440 N 0.19082 0.26586 0.73434 0.0
C441 C 0.19198 0.24317 0.75081 0.0
C442 C 0.31099 0.24946 0.76067 0.0
O443 O 0.29485 0.28404 0.82086 0.0
O444 O 0.25837 0.26316 0.80621 0.0
O445 O 0.28487 0.24987 0.75679 0.0
O446 O 0.32194 0.2699 0.77198 0.0
O447 O 0.26889 0.29895 0.73167 0.0
H448 H 0.22401 0.22813 0.77969 0.0
H449 H 0.21863 0.29932 0.72921 0.0
O450 O 0.3066 0.31746 0.74573 0.0
O451 O 0.2797 0.33194 0.79408 0.0
O452 O 0.24195 0.31249 0.78079 0.0
C453 C 0.25377 0.33319 0.79046 0.0
H454 H 0.37474 0.36874 0.79954 0.0
H455 H 0.1761 0.22774 0.75268 0.0
Co456 Co 0.01767 0.00807 0.55197 0.0
C457 C 1.00863 0.02145 0.60667 0.0
Co458 Co 0.04315 0.0426 0.56458 0.0
C459 C 0.01025 0.95898 0.52298 0.0
C460 C 0.97313 0.96869 0.54713 0.0
N461 N 0.99866 0.97812 0.54005 0.0
N462 N 0.99326 0.93792 0.51904 0.0
C463 C 0.96982 0.94368 0.53434 0.0
H464 H 0.0315 0.95974 0.51471 0.0
H465 H 0.9583 0.97885 0.5613 0.0
C466 C 0.0533 0.02984 0.51014 0.0
N467 N 0.06311 0.07207 0.57598 0.0
C468 C 0.0525 0.09644 0.58473 0.0
C469 C 0.09089 0.07548 0.57382 0.0
N470 N 0.07237 0.11522 0.58749 0.0
C471 C 0.09665 0.10206 0.58084 0.0
C472 C 0.06945 0.99261 0.57181 0.0
O473 O 0.03492 0.01194 0.51549 0.0
O474 O 0.05967 0.04621 0.52905 0.0
O475 O 0.07233 0.01825 0.57492 0.0
O476 O 0.04693 0.98403 0.56247 0.0
O477 O 0.02689 0.03912 0.60029 0.0
H478 H 0.10583 0.06015 0.56617 0.0
H479 H 0.03039 0.10091 0.58714 0.0
O480 O 1.00093 1.00484 0.58832 0.0
O481 O 0.98833 0.03191 0.54175 0.0
O482 O 0.01336 0.06668 0.55391 0.0
C483 C 0.99081 0.0576 0.54495 0.0
H484 H 0.9519 0.93062 0.53647 0.0
H485 H 0.11697 0.11125 0.57993 0.0
Co486 Co 0.29614 0.79932 0.79464 0.0
C487 C 0.24326 0.78006 0.80887 0.0
Co488 Co 0.28917 0.76024 0.77379 0.0
C489 C 0.31338 0.85505 0.79532 0.0
C490 C 0.30289 0.84043 0.83679 0.0
N491 N 0.30358 0.83299 0.80968 0.0
N492 N 0.31912 0.87583 0.81232 0.0
C493 C 0.31274 0.86676 0.83849 0.0
H494 H 0.31768 0.85535 0.77291 0.0
H495 H 0.29657 0.82724 0.8542 0.0
C496 C 0.342 0.78017 0.75962 0.0
N497 N 0.28172 0.72647 0.7592 0.0
C498 C 0.26929 0.70617 0.77408 0.0
C499 C 0.28592 0.71641 0.73323 0.0
N500 N 0.26516 0.68384 0.75859 0.0
C501 C 0.27573 0.69007 0.7328 0.0
C502 C 0.2721 0.80389 0.74243 0.0
O503 O 0.33298 0.79879 0.77635 0.0
O504 O 0.32596 0.76036 0.75465 0.0
O505 O 0.27389 0.77787 0.74325 0.0
O506 O 0.28084 0.81755 0.76271 0.0
O507 O 0.25222 0.76083 0.79277 0.0
H508 H 0.29525 0.72766 0.71572 0.0
H509 H 0.2633 0.70786 0.79604 0.0
O510 O 0.25947 0.79981 0.81318 0.0
O511 O 0.31129 0.78056 0.82618 0.0
O512 O 0.30465 0.74211 0.80444 0.0
C513 C 0.31322 0.75444 0.82547 0.0
H514 H 0.31565 0.8781 0.85746 0.0
H515 H 0.27532 0.67696 0.71472 0.0
Co516 Co 0.52695 0.02787 0.01146 0.0
C517 C 0.58147 0.01444 0.02905 0.0
Co518 Co 0.53851 0.0523 0.04695 0.0
C519 C 0.49881 0.01274 0.96339 0.0
C520 C 0.52414 0.97913 0.97807 0.0
N521 N 0.51657 1.00554 0.9834 0.0
N522 N 0.49492 0.99208 0.94577 0.0
C523 C 0.51115 0.97092 0.95442 0.0
H524 H 0.48992 0.03328 0.96085 0.0
H525 H 0.53853 0.96687 0.99024 0.0
C526 C 0.48347 0.06466 0.02903 0.0
N527 N 0.54846 0.07436 0.07539 0.0
C528 C 0.55985 0.06574 0.09931 0.0
C529 C 0.54457 0.10179 0.07807 0.0
N530 N 0.56312 0.08656 0.11705 0.0
C531 C 0.5535 0.10937 0.10388 0.0
C532 C 0.55212 0.07506 0.9948 0.0
O533 O 0.49034 0.04546 0.01221 0.0
O534 O 0.50164 0.07193 0.04619 0.0
O535 O 0.55347 0.07758 0.02107 0.0
O536 O 0.5401 0.05449 0.98501 0.0
O537 O 0.57534 0.03258 0.04752 0.0
H538 H 0.53525 0.11523 0.06256 0.0
H539 H 0.56451 0.0443 0.10407 0.0
O540 O 0.56333 0.00986 0.01098 0.0
O541 O 0.51395 1.00189 0.03709 0.0
O542 O 0.5236 0.02641 0.0733 0.0
C543 C 0.5138 1.00479 0.06337 0.0
H544 H 0.51396 0.95141 0.94395 0.0
H545 H 0.55264 0.1299 0.11239 0.0
Co546 Co 0.2826 0.27115 0.29151 0.0
C547 C 0.33934 0.28392 0.30005 0.0
Co548 Co 0.29389 0.31041 0.27253 0.0
C549 C 0.25617 0.21916 0.30275 0.0
C550 C 0.28012 0.23254 0.33677 0.0
N551 N 0.27324 0.23915 0.31029 0.0
N552 N 0.25185 0.20068 0.32369 0.0
C553 C 0.26684 0.20895 0.34513 0.0
H554 H 0.24618 0.2188 0.28279 0.0
H555 H 0.29328 0.24461 0.34953 0.0
C556 C 0.23691 0.29691 0.26485 0.0
N557 N 0.3034 0.34261 0.25474 0.0
C558 C 0.32199 0.36017 0.26405 0.0
C559 C 0.29388 0.35437 0.23101 0.0
N560 N 0.32464 0.38235 0.24721 0.0
C561 C 0.30682 0.37919 0.22645 0.0
C562 C 0.29743 0.26555 0.23405 0.0
O563 O 0.24399 0.27657 0.28045 0.0
O564 O 0.25514 0.31524 0.25968 0.0
O565 O 0.30235 0.29087 0.23804 0.0
O566 O 0.28977 0.25113 0.25552 0.0
O567 O 0.33288 0.30525 0.28553 0.0
H568 H 0.27841 0.34562 0.21806 0.0
H569 H 0.33284 0.3572 0.28339 0.0
O570 O 0.32096 0.26549 0.30297 0.0
O571 O 0.27541 0.29135 0.3268 0.0
O572 O 0.28546 0.33072 0.30718 0.0
C573 C 0.2791 0.31712 0.3294 0.0
H574 H 0.26787 0.19876 0.3654 0.0
H575 H 0.3035 0.39367 0.20938 0.0
Co576 Co 0.53347 0.51387 0.06239 0.0
C577 C 0.52793 0.52354 0.11865 0.0
Co578 Co 0.56024 0.54672 0.07608 0.0
C579 C 0.51914 0.46945 0.02859 0.0
C580 C 0.48744 0.47619 0.06046 0.0
N581 N 0.51179 0.48605 0.05 0.0
N582 N 0.50058 0.44967 0.02524 0.0
C583 C 0.48065 0.45341 0.04538 0.0
H584 H 0.53856 0.47084 0.01651 0.0
H585 H 0.47586 0.48445 0.07836 0.0
C586 C 0.56633 0.53749 0.01985 0.0
N587 N 0.58265 0.57378 0.088 0.0
C588 C 0.57429 0.59618 0.10235 0.0
C589 C 0.60973 0.57777 0.08097 0.0
N590 N 0.59474 0.61445 0.10389 0.0
C591 C 0.61714 0.60308 0.09044 0.0
C592 C 0.58571 0.49565 0.07751 0.0
O593 O 0.54723 0.52038 0.02507 0.0
O594 O 0.57519 0.5516 0.03957 0.0
O595 O 0.58849 0.52076 0.08328 0.0
O596 O 0.56289 0.48793 0.06797 0.0
O597 O 0.5456 0.5419 0.11268 0.0
H598 H 0.62257 0.56414 0.06801 0.0
H599 H 0.55286 0.60027 0.1091 0.0
O600 O 0.51996 0.50797 0.09955 0.0
O601 O 0.50428 0.5395 0.05697 0.0
O602 O 0.53115 0.57309 0.06861 0.0
C603 C 0.50765 0.56495 0.06101 0.0
H604 H 0.46291 0.44036 0.04917 0.0
H605 H 0.63665 0.61323 0.08594 0.0
Co606 Co 0.79044 0.30213 0.2822 0.0
C607 C 0.73809 0.28052 0.2991 0.0
Co608 Co 0.78505 0.26075 0.26629 0.0
C609 C 0.80654 0.35813 0.27891 0.0
C610 C 0.78556 0.34894 0.31808 0.0
N611 N 0.79428 0.33764 0.29361 0.0
N612 N 0.80602 0.3818 0.29323 0.0
C613 C 0.79275 0.37619 0.31789 0.0
H614 H 0.81578 0.35566 0.25809 0.0
H615 H 0.77506 0.33796 0.33509 0.0
C616 C 0.83718 0.28222 0.2492 0.0
N617 N 0.78084 0.22514 0.2556 0.0
C618 C 0.77044 0.20554 0.27281 0.0
C619 C 0.7854 0.21282 0.23072 0.0
N620 N 0.76771 0.18151 0.2598 0.0
C621 C 0.77728 0.1858 0.23326 0.0
C622 C 0.76707 0.29914 0.22944 0.0
O623 O 0.8282 0.30229 0.26419 0.0
O624 O 0.82143 0.26164 0.24701 0.0
O625 O 0.76875 0.27343 0.23387 0.0
O626 O 0.77514 0.31541 0.24798 0.0
O627 O 0.74811 0.26014 0.28527 0.0
H628 H 0.79329 0.22301 0.21188 0.0
H629 H 0.76453 0.20908 0.29454 0.0
O630 O 0.75303 0.30176 0.30035 0.0
O631 O 0.80583 0.28881 0.31578 0.0
O632 O 0.80177 0.24761 0.29889 0.0
C633 C 0.80929 0.26294 0.31826 0.0
H634 H 0.78945 0.39045 0.33493 0.0
H635 H 0.77722 0.17093 0.21663 0.0
Co636 Co 0.02695 0.52626 0.5033 0.0
C637 C 0.08291 0.51504 0.51746 0.0
Co638 Co 0.04006 0.55229 0.53692 0.0
C639 C 0.99326 0.50659 0.46067 0.0
C640 C 0.02313 0.4757 0.47261 0.0
N641 N 0.01453 0.50188 0.47774 0.0
N642 N 0.98807 0.48456 0.44526 0.0
C643 C 1.00713 0.46514 0.45208 0.0
H644 H 0.98241 0.52626 0.45859 0.0
H645 H 0.04005 0.46508 0.4829 0.0
C646 C 0.98375 0.56262 0.52319 0.0
N647 N 0.05223 0.57669 0.5621 0.0
C648 C 0.06776 0.57067 0.58421 0.0
C649 C 0.0486 0.60431 0.56217 0.0
N650 N 0.07409 0.59337 0.59825 0.0
C651 C 0.06193 0.61467 0.58462 0.0
C652 C 0.04853 0.57338 0.4824 0.0
O653 O 0.98982 0.54297 0.50663 0.0
O654 O 1.00298 0.57092 0.53853 0.0
O655 O 0.05183 0.57637 0.50834 0.0
O656 O 0.03674 0.55201 0.47409 0.0
O657 O 0.07717 0.53366 0.53546 0.0
H658 H 0.03693 0.61609 0.54696 0.0
H659 H 0.07352 0.54984 0.59038 0.0
O660 O 0.06401 0.50927 0.50054 0.0
O661 O 0.0172 0.50119 0.53171 0.0
O662 O 0.02834 0.52755 0.56612 0.0
C663 C 0.01886 0.50505 0.55777 0.0
H664 H 0.00962 0.44517 0.44247 0.0
H665 H 0.06236 0.63603 0.59062 0.0
Co666 Co 0.80448 0.79877 0.28614 0.0
C667 C 0.78997 0.81085 0.2306 0.0
Co668 Co 0.76388 0.78233 0.27743 0.0
C669 C 0.8557 0.80021 0.31392 0.0
C670 C 0.85276 0.83302 0.28368 0.0
N671 N 0.83913 0.81099 0.29425 0.0
N672 N 0.87892 0.81472 0.31633 0.0
C673 C 0.87747 0.83527 0.29719 0.0
H674 H 0.85084 0.78208 0.32644 0.0
H675 H 0.84495 0.84691 0.26772 0.0
C676 C 0.779 0.77099 0.3334 0.0
N677 N 0.72882 0.771 0.26946 0.0
C678 C 0.71013 0.7866 0.25564 0.0
C679 C 0.71601 0.74708 0.27519 0.0
N680 N 0.68614 0.77351 0.25222 0.0
C681 C 0.68964 0.74857 0.26459 0.0
C682 C 0.80568 0.74486 0.26731 0.0
O683 O 0.79896 0.78618 0.32498 0.0
O684 O 0.76041 0.76582 0.31581 0.0
O685 O 0.77971 0.74884 0.26449 0.0
O686 O 0.82009 0.76403 0.27672 0.0
O687 O 0.76764 0.79906 0.23902 0.0
H688 H 0.72533 0.72968 0.28607 0.0
H689 H 0.71409 0.80738 0.24836 0.0
O690 O 0.80979 0.81145 0.24759 0.0
O691 O 0.78907 0.83336 0.29525 0.0
O692 O 0.74813 0.81572 0.29022 0.0
C693 C 0.76282 0.83623 0.29539 0.0
H694 H 0.89269 0.85119 0.2939 0.0
H695 H 0.67456 0.73235 0.26532 0.0
Co696 Co 0.77093 0.29639 0.77455 0.0
C697 C 0.77596 0.24389 0.7539 0.0
Co698 Co 0.74425 0.28916 0.7392 0.0
C699 C 0.78636 0.31564 0.82778 0.0
C700 C 0.81934 0.29181 0.80814 0.0
N701 N 0.79325 0.30178 0.80433 0.0
N702 N 0.80699 0.31461 0.84615 0.0
C703 C 0.8278 0.29954 0.83404 0.0
H704 H 0.76621 0.32554 0.8317 0.0
H705 H 0.83125 0.27934 0.79325 0.0
C706 C 0.73892 0.34182 0.75938 0.0
N707 N 0.72272 0.28288 0.70917 0.0
C708 C 0.73203 0.26812 0.68715 0.0
C709 C 0.69617 0.29007 0.70353 0.0
N710 N 0.71256 0.26538 0.66798 0.0
C711 C 0.6899 0.27944 0.67787 0.0
C712 C 0.71865 0.27824 0.79037 0.0
O713 O 0.7565 0.33305 0.7769 0.0
O714 O 0.73145 0.32605 0.74023 0.0
O715 O 0.71446 0.27928 0.76423 0.0
O716 O 0.7423 0.28441 0.79911 0.0
O717 O 0.75671 0.25201 0.73822 0.0
H718 H 0.68239 0.30217 0.71712 0.0
H719 H 0.75313 0.25992 0.68497 0.0
O720 O 0.78525 0.26011 0.77166 0.0
O721 O 0.79943 0.30789 0.75065 0.0
O722 O 0.77508 0.29889 0.71414 0.0
C723 C 0.79792 0.30585 0.72441 0.0
H724 H 0.84757 0.29449 0.84328 0.0
H725 H 0.67032 0.28174 0.66743 0.0
Co726 Co 0.78354 0.78178 0.79003 0.0
C727 C 0.84135 0.79197 0.79997 0.0
Co728 Co 0.79906 0.81876 0.76925 0.0
C729 C 0.75086 0.73385 0.80292 0.0
C730 C 0.78088 0.74128 0.83384 0.0
N731 N 0.77179 0.75057 0.80894 0.0
N732 N 0.74657 0.71456 0.82312 0.0
C733 C 0.76554 0.71905 0.84253 0.0
H734 H 0.73874 0.73602 0.7843 0.0
H735 H 0.79691 0.75071 0.84552 0.0
C736 C 0.7415 0.80854 0.75926 0.0
N737 N 0.81053 0.85032 0.75119 0.0
C738 C 0.82306 0.87123 0.76338 0.0
C739 C 0.806 0.85914 0.72481 0.0
N740 N 0.82624 0.89306 0.74595 0.0
C741 C 0.81564 0.88552 0.72152 0.0
C742 C 0.80112 0.77293 0.73286 0.0
O743 O 0.74534 0.78894 0.77689 0.0
O744 O 0.76183 0.82459 0.75426 0.0
O745 O 0.80854 0.79774 0.73592 0.0
O746 O 0.79093 0.76046 0.75462 0.0
O747 O 0.83681 0.81295 0.78424 0.0
H748 H 0.79542 0.84758 0.70938 0.0
H749 H 0.82838 0.8709 0.7852 0.0
O750 O 0.82165 0.77482 0.8031 0.0
O751 O 0.77616 0.80314 0.82503 0.0
O752 O 0.78914 0.84019 0.80258 0.0
C753 C 0.78108 0.82885 0.82555 0.0
H754 H 0.76742 0.70777 0.86213 0.0
H755 H 0.81437 0.89827 0.70282 0.0
Co756 Co 0.53671 0.54771 0.51109 0.0
C757 C 0.53514 0.58344 0.55804 0.0
Co758 Co 0.54845 0.52637 0.5493 0.0
C759 C 0.50129 0.56482 0.46742 0.0
C760 C 0.53562 0.59166 0.4704 0.0
N761 N 0.52557 0.56749 0.48013 0.0
N762 N 0.49515 0.58666 0.4509 0.0
C763 C 0.51699 0.60345 0.45232 0.0
H764 H 0.48745 0.54799 0.47167 0.0
H765 H 0.5542 0.60113 0.4775 0.0
C766 C 0.54985 0.49172 0.50045 0.0
N767 N 0.55949 0.50753 0.58076 0.0
C768 C 0.57425 0.51774 0.60147 0.0
C769 C 0.55505 0.48106 0.58823 0.0
N770 N 0.5791 0.49884 0.62172 0.0
C771 C 0.56718 0.47563 0.6135 0.0
C772 C 0.49162 0.51911 0.53896 0.0
O773 O 0.54421 0.51483 0.48854 0.0
O774 O 0.55387 0.49198 0.52682 0.0
O775 O 0.51026 0.51489 0.557 0.0
O776 O 0.49808 0.53441 0.51794 0.0
O777 O 0.54278 0.56161 0.57138 0.0
H778 H 0.5434 0.4668 0.57631 0.0
H779 H 0.58126 0.53874 0.60173 0.0
O780 O 0.52921 0.58055 0.53255 0.0
O781 O 0.5752 0.56072 0.50496 0.0
O782 O 0.58702 0.53734 0.5421 0.0
C783 C 0.59381 0.5542 0.52248 0.0
H784 H 0.51905 0.62324 0.44186 0.0
H785 H 0.56637 0.4565 0.62538 0.0
Co786 Co 0.02722 0.53979 0.02367 0.0
C787 C 0.04605 0.5933 0.00879 0.0
Co788 Co 0.06899 0.54663 0.03867 0.0
C789 C 0.97272 0.51677 0.02045 0.0
C790 C 0.98086 0.5466 0.98794 0.0
N791 N 0.99214 0.53434 0.0106 0.0
N792 N 0.94987 0.51771 0.00489 0.0
C793 C 0.95475 0.53653 0.98451 0.0
H794 H 0.9753 0.50336 0.03852 0.0
H795 H 0.99119 0.5614 0.97427 0.0
C796 C 0.04873 0.49286 0.0538 0.0
N797 N 0.10451 0.55275 0.05013 0.0
C798 C 0.12457 0.56485 0.03417 0.0
C799 C 0.11641 0.5468 0.07469 0.0
N800 N 0.14856 0.5669 0.04766 0.0
C801 C 0.14359 0.55547 0.07322 0.0
C802 C 0.02758 0.56311 0.07569 0.0
O803 O 0.02879 0.50208 0.03906 0.0
O804 O 0.06898 0.50909 0.05742 0.0
O805 O 0.05376 0.56234 0.07124 0.0
O806 O 0.01177 0.55296 0.0579 0.0
O807 O 0.06833 0.58422 0.01998 0.0
H808 H 0.10595 0.53703 0.09249 0.0
H809 H 0.12163 0.5718 0.01282 0.0
O810 O 0.02564 0.57712 0.00876 0.0
O811 O 0.04278 0.52694 0.98946 0.0
O812 O 0.08432 0.53092 0.00614 0.0
C813 C 0.069 0.52391 0.98662 0.0
H814 H 0.94087 0.54178 0.96776 0.0
H815 H 0.1583 0.55402 0.08986 0.0
H816 H 0.04299 0.22092 0.06979 0.0
H817 H 0.03815 0.20115 0.15794 0.0
H818 H 0.03235 0.15226 0.14707 0.0
H819 H 0.03019 0.11376 0.11165 0.0
H820 H 0.03166 0.1364 0.02385 0.0
H821 H 0.03708 0.18431 0.03548 0.0
C822 C 0.04051 0.20608 0.08682 0.0
C823 C 0.04124 0.21542 0.11486 0.0
C824 C 0.03658 0.17784 0.08036 0.0
C825 C 0.03764 0.19524 0.13621 0.0
C826 C 0.03442 0.16698 0.1299 0.0
C827 C 0.0314 0.12914 0.09502 0.0
C828 C 0.03042 0.12051 0.06658 0.0
C829 C 0.03405 0.15777 0.10194 0.0
C830 C 0.03211 0.14151 0.04581 0.0
C831 C 0.03536 0.16933 0.05246 0.0
H832 H 0.16791 0.78576 0.40342 0.0
H833 H 0.12502 0.75511 0.33273 0.0
H834 H 0.16704 0.75972 0.30318 0.0
H835 H 0.21427 0.77635 0.29636 0.0
H836 H 0.25745 0.8079 0.36639 0.0
H837 H 0.21694 0.79894 0.39736 0.0
C838 C 0.16794 0.77966 0.38167 0.0
C839 C 0.14339 0.77039 0.37017 0.0
C840 C 0.19204 0.78284 0.36464 0.0
C841 C 0.14364 0.76253 0.34199 0.0
C842 C 0.16761 0.76523 0.32505 0.0
C843 C 0.21488 0.78117 0.31844 0.0
C844 C 0.23857 0.79311 0.32904 0.0
C845 C 0.19163 0.77608 0.33597 0.0
C846 C 0.2393 0.79883 0.35774 0.0
C847 C 0.21617 0.79374 0.37543 0.0
H848 H 0.55246 0.88863 0.64806 0.0
H849 H 0.53139 0.84192 0.57619 0.0
H850 H 0.52607 0.88456 0.54866 0.0
H851 H 0.52679 0.93612 0.54447 0.0
H852 H 0.55325 0.98224 0.61467 0.0
H853 H 0.55693 0.93974 0.64271 0.0
C854 C 0.54685 0.88768 0.62632 0.0
C855 C 0.54227 0.8615 0.61456 0.0
C856 C 0.54462 0.91264 0.61004 0.0
C857 C 0.53523 0.86129 0.58613 0.0
C858 C 0.53204 0.88591 0.57025 0.0
C859 C 0.53335 0.93694 0.56592 0.0
C860 C 0.5394 0.96295 0.57728 0.0
C861 C 0.53654 0.91186 0.58189 0.0
C862 C 0.54833 0.96296 0.6051 0.0
C863 C 0.55045 0.93845 0.62128 0.0
H864 H 0.47969 0.3204 0.88247 0.0
H865 H 0.42739 0.2756 0.94161 0.0
H866 H 0.38686 0.28547 0.91286 0.0
H867 H 0.36767 0.3037 0.86884 0.0
H868 H 0.42079 0.34809 0.81015 0.0
H869 H 0.45997 0.34164 0.84098 0.0
C870 C 0.45935 0.31294 0.88915 0.0
C871 C 0.4564 0.29694 0.91372 0.0
C872 C 0.43654 0.31848 0.87256 0.0
C873 C 0.42999 0.2879 0.92264 0.0
C874 C 0.40696 0.29338 0.90615 0.0
C875 C 0.38787 0.3119 0.86292 0.0
C876 C 0.39163 0.32601 0.83722 0.0
C877 C 0.4102 0.30807 0.88073 0.0
C878 C 0.41757 0.33721 0.8299 0.0
C879 C 0.43991 0.33344 0.84742 0.0
H880 H 0.03127 0.82159 0.47658 0.0
H881 H 0.0746 0.87173 0.41455 0.0
H882 H 0.05355 0.91328 0.43513 0.0
H883 H 0.02411 0.93528 0.47158 0.0
H884 H 0.98002 0.88558 0.53316 0.0
H885 H 0.99932 0.84364 0.51132 0.0
C886 C 0.03609 0.84159 0.46757 0.0
C887 C 0.05466 0.84366 0.44426 0.0
C888 C 0.0235 0.86533 0.47918 0.0
C889 C 0.06046 0.86968 0.43259 0.0
C890 C 0.04839 0.8934 0.44428 0.0
C891 C 0.01863 0.91522 0.48006 0.0
C892 C 1.00092 0.91339 0.50401 0.0
C893 C 0.03003 0.89144 0.46764 0.0
C894 C 0.99348 0.88738 0.51461 0.0
C895 C 1.00474 0.86349 0.50232 0.0
H896 H 0.47114 0.79608 0.72833 0.0
H897 H 0.44577 0.76769 0.64836 0.0
H898 H 0.39819 0.76174 0.66733 0.0
H899 H 0.36287 0.7653 0.70684 0.0
H900 H 0.3876 0.79846 0.7851 0.0
H901 H 0.4356 0.80175 0.76689 0.0
C902 C 0.45525 0.78847 0.71507 0.0
C903 C 0.46237 0.78212 0.68689 0.0
C904 C 0.42746 0.78596 0.72594 0.0
C905 C 0.44114 0.77274 0.67006 0.0
C906 C 0.4138 0.76929 0.68096 0.0
C907 C 0.3788 0.7731 0.71994 0.0
C908 C 0.3714 0.78137 0.74755 0.0
C909 C 0.40656 0.77589 0.70889 0.0
C910 C 0.39245 0.79189 0.76389 0.0
C911 C 0.42006 0.79377 0.75345 0.0
H912 H 0.57942 0.19415 0.96412 0.0
H913 H 0.50662 0.18585 0.91518 0.0
H914 H 0.50906 0.13565 0.92159 0.0
H915 H 0.5261 0.09627 0.94987 0.0
H916 H 0.59719 0.10604 1.00118 0.0
H917 H 0.6022 0.1533 0.9842 0.0
C918 C 0.56468 0.18112 0.95422 0.0
C919 C 0.5427 0.19314 0.93964 0.0
C920 C 0.56599 0.15264 0.95847 0.0
C921 C 0.52362 0.1766 0.92662 0.0
C922 C 0.52498 0.14804 0.93038 0.0
C923 C 0.54337 0.10844 0.95628 0.0
C924 C 0.561 0.09816 0.97695 0.0
C925 C 0.54525 0.13601 0.94747 0.0
C926 C 0.58326 0.11391 0.98541 0.0
C927 C 0.58597 0.14094 0.97594 0.0
H928 H 0.1161 0.2775 0.21436 0.0
H929 H 0.14875 0.33373 0.15133 0.0
H930 H 0.19083 0.33871 0.17753 0.0
H931 H 0.22038 0.32601 0.21747 0.0
H932 H 0.18986 0.26782 0.27949 0.0
H933 H 0.146 0.26499 0.25512 0.0
C934 C 0.13226 0.29105 0.20645 0.0
C935 C 0.12864 0.30519 0.18048 0.0
C936 C 0.15735 0.29353 0.22163 0.0
C937 C 0.15045 0.32235 0.1709 0.0
C938 C 0.1748 0.32531 0.18601 0.0
C939 C 0.20404 0.31298 0.22598 0.0
C940 C 0.20883 0.29744 0.25081 0.0
C941 C 0.17877 0.31086 0.2113 0.0
C942 C 0.18717 0.28028 0.26075 0.0
C943 C 0.16187 0.27856 0.24664 0.0
H944 H 0.06473 0.02331 0.26111 0.0
H945 H 0.14599 0.05273 0.23601 0.0
H946 H 0.13506 0.04805 0.18663 0.0
H947 H 0.10325 0.03263 0.15092 0.0
H948 H 0.02409 0.99911 0.17677 0.0
H949 H 0.03318 0.00822 0.22579 0.0
C950 C 0.07982 0.02912 0.24478 0.0
C951 C 0.10595 0.03853 0.2519 0.0
C952 C 0.07385 0.0253 0.21674 0.0
C953 C 0.12569 0.04547 0.23076 0.0
C954 C 0.11949 0.04274 0.20265 0.0
C955 C 0.08808 0.02758 0.16743 0.0
C956 C 0.06321 0.0152 0.16069 0.0
C957 C 0.09382 0.0322 0.19545 0.0
C958 C 0.04353 0.00837 0.18188 0.0
C959 C 0.04865 0.01369 0.20973 0.0
H960 H 0.2978 0.84484 0.48696 0.0
H961 H 0.26731 0.92303 0.45503 0.0
H962 H 0.29367 0.91549 0.41092 0.0
H963 H 0.32286 0.88506 0.38076 0.0
H964 H 0.35426 0.80789 0.41377 0.0
H965 H 0.33129 0.81738 0.4592 0.0
C966 C 0.29708 0.86043 0.47058 0.0
C967 C 0.28047 0.88436 0.47414 0.0
C968 C 0.31291 0.85637 0.44585 0.0
C969 C 0.27982 0.90432 0.45262 0.0
C970 C 0.29499 0.90012 0.42753 0.0
C971 C 0.32513 0.87074 0.39822 0.0
C972 C 0.33997 0.84582 0.39413 0.0
C973 C 0.31137 0.87608 0.42389 0.0
C974 C 0.34313 0.82731 0.41667 0.0
C975 C 0.32963 0.83254 0.44241 0.0
H976 H 0.43229 0.06936 0.68365 0.0
H977 H 0.51139 0.08359 0.72055 0.0
H978 H 0.53384 0.08712 0.67426 0.0
H979 H 0.53253 0.07812 0.62416 0.0
H980 H 0.45381 0.06209 0.5873 0.0
H981 H 0.42973 0.06784 0.63257 0.0
C982 C 0.45428 0.07387 0.68153 0.0
C983 C 0.47028 0.07539 0.70541 0.0
C984 C 0.46727 0.07522 0.65485 0.0
C985 C 0.49872 0.0816 0.7024 0.0
C986 C 0.51163 0.08364 0.67595 0.0
C987 C 0.51004 0.0765 0.62593 0.0
C988 C 0.49511 0.06899 0.60268 0.0
C989 C 0.49636 0.07918 0.65211 0.0
C990 C 0.4659 0.06732 0.60512 0.0
C991 C 0.45207 0.07056 0.63099 0.0
H992 H 0.26541 0.17881 0.92764 0.0
H993 H 0.29533 0.24677 0.97403 0.0
H994 H 0.29694 0.27527 0.93131 0.0
H995 H 0.2907 0.28128 0.87972 0.0
H996 H 0.25578 0.21507 0.83445 0.0
H997 H 0.2552 0.18622 0.87693 0.0
C998 C 0.27216 0.1999 0.92849 0.0
C999 C 0.28041 0.21029 0.95453 0.0
C1000 C 0.27215 0.2168 0.90362 0.0
C1001 C 0.28876 0.23793 0.95473 0.0
C1002 C 0.28978 0.25436 0.93008 0.0
C1003 C 0.28277 0.26061 0.87911 0.0
C1004 C 0.27336 0.25064 0.85333 0.0
C1005 C 0.28164 0.24411 0.90424 0.0
C1006 C 0.26304 0.22368 0.85359 0.0
C1007 C 0.2628 0.20698 0.87807 0.0
H1008 H 0.1353 0.0439 0.40572 0.0
H1009 H 0.10003 0.96665 0.38443 0.0
H1010 H 0.07094 0.9671 0.42766 0.0
H1011 H 0.05454 0.99059 0.47039 0.0
H1012 H 0.08871 0.06905 0.49049 0.0
H1013 H 0.11889 0.06741 0.44846 0.0
C1014 C 0.12161 0.027 0.41102 0.0
C1015 C 0.11997 1.00499 0.39274 0.0
C1016 C 0.1044 0.02797 0.43521 0.0
C1017 C 0.10175 0.98346 0.39888 0.0
C1018 C 0.08501 0.98388 0.4233 0.0
C1019 C 0.06839 0.00744 0.46541 0.0
C1020 C 0.06932 0.02994 0.48338 0.0
C1021 C 0.08586 1.00627 0.44139 0.0
C1022 C 0.08757 0.05152 0.47688 0.0
C1023 C 0.10495 0.05055 0.45297 0.0
H1024 H 0.25852 0.87556 0.634 0.0
H1025 H 0.24878 0.7948 0.59972 0.0
H1026 H 0.24656 0.77475 0.6469 0.0
H1027 H 0.25423 0.77935 0.69649 0.0
H1028 H 0.26909 0.85926 0.73066 0.0
H1029 H 0.2618 0.88071 0.68475 0.0
C1030 C 0.25532 0.85366 0.63692 0.0
C1031 C 0.25415 0.83654 0.61358 0.0
C1032 C 0.25522 0.84219 0.66395 0.0
C1033 C 0.2501 0.80823 0.61749 0.0
C1034 C 0.24883 0.7968 0.64438 0.0
C1035 C 0.25549 0.80153 0.69408 0.0
C1036 C 0.2627 0.81768 0.71674 0.0
C1037 C 0.25247 0.81345 0.6676 0.0
C1038 C 0.26384 0.84639 0.71339 0.0
C1039 C 0.2598 0.85862 0.68716 0.0
H1040 H 0.46972 0.03391 0.82827 0.0
H1041 H 0.39149 0.05811 0.86877 0.0
H1042 H 0.40613 0.03513 0.91221 0.0
H1043 H 0.44311 0.01081 0.9387 0.0
H1044 H 0.51821 0.98286 0.89518 0.0
H1045 H 0.50177 1.00298 0.85137 0.0
C1046 C 0.45535 0.03367 0.84615 0.0
C1047 C 0.42952 0.04765 0.84526 0.0
C1048 C 0.46308 0.01913 0.87003 0.0
C1049 C 0.41159 0.04756 0.86907 0.0
C1050 C 0.41983 0.03427 0.89372 0.0
C1051 C 0.45522 0.0084 0.91928 0.0
C1052 C 0.48171 0.99561 0.91974 0.0
C1053 C 0.44567 0.02018 0.89441 0.0
C1054 C 0.49763 0.99241 0.89488 0.0
C1055 C 0.48846 1.0043 0.87011 0.0
H1056 H 0.28647 0.25053 0.10207 0.0
H1057 H 0.28461 0.16441 0.12427 0.0
H1058 H 0.2903 0.17583 0.17383 0.0
H1059 H 0.29389 0.21139 0.21207 0.0
H1060 H 0.29898 0.29691 0.18664 0.0
H1061 H 0.29406 0.28459 0.13823 0.0
C1062 C 0.28751 0.23407 0.11761 0.0
C1063 C 0.2849 0.2065 0.1089 0.0
C1064 C 0.29131 0.24081 0.14609 0.0
C1065 C 0.28664 0.18577 0.12983 0.0
C1066 C 0.28976 0.1924 0.15841 0.0
C1067 C 0.29425 0.22732 0.19595 0.0
C1068 C 0.29689 0.25534 0.20388 0.0
C1069 C 0.29187 0.21999 0.16705 0.0
C1070 C 0.29721 0.27528 0.18203 0.0
C1071 C 0.29425 0.26826 0.15394 0.0
H1072 H 0.20997 0.10975 0.04858 0.0
H1073 H 0.18255 0.16556 0.9836 0.0
H1074 H 0.1407 0.13894 0.97845 0.0
H1075 H 0.10958 0.1012 0.99384 0.0
H1076 H 0.13492 0.04649 0.06055 0.0
H1077 H 0.17886 0.07073 0.06332 0.0
C1078 C 0.1951 0.11584 0.03297 0.0
C1079 C 0.20004 0.1399 0.01636 0.0
C1080 C 0.17011 0.10054 0.03047 0.0
C1081 C 0.17979 0.14737 0.99672 0.0
C1082 C 0.15558 0.13207 0.99375 0.0
C1083 C 0.12483 0.09421 0.00874 0.0
C1084 C 0.11851 0.07153 0.02674 0.0
C1085 C 0.15017 0.1088 0.01071 0.0
C1086 C 0.13879 0.06355 0.04619 0.0
C1087 C 0.16413 0.07758 0.04787 0.0
H1088 H 0.68122 0.40979 0.05066 0.0
H1089 H 0.73081 0.47841 0.07358 0.0
H1090 H 0.68868 0.50393 0.08855 0.0
H1091 H 0.63807 0.50843 0.09036 0.0
H1092 H 0.58823 0.44098 0.06474 0.0
H1093 H 0.63041 0.4129 0.05623 0.0
C1094 C 0.68283 0.43024 0.05915 0.0
C1095 C 0.70896 0.44241 0.06064 0.0
C1096 C 0.65858 0.44489 0.06728 0.0
C1097 C 0.71083 0.46876 0.07195 0.0
C1098 C 0.6868 0.48333 0.08055 0.0
C1099 C 0.63634 0.48742 0.08339 0.0
C1100 C 0.61013 0.47688 0.07786 0.0
C1101 C 0.66058 0.47183 0.07764 0.0
C1102 C 0.60823 0.44958 0.069 0.0
C1103 C 0.63231 0.4336 0.06396 0.0
H1104 H 0.85824 0.49786 0.27849 0.0
H1105 H 0.92263 0.44914 0.23621 0.0
H1106 H 0.89405 0.40833 0.24132 0.0
H1107 H 0.85321 0.38583 0.26208 0.0
H1108 H 0.78998 0.43365 0.30685 0.0
H1109 H 0.8158 0.4757 0.29664 0.0
C1110 C 0.86575 0.47843 0.26989 0.0
C1111 C 0.89246 0.47641 0.25705 0.0
C1112 C 0.84964 0.45492 0.27373 0.0
C1113 C 0.90215 0.45108 0.24631 0.0
C1114 C 0.88588 0.42777 0.24928 0.0
C1115 C 0.84479 0.40553 0.26909 0.0
C1116 C 0.81981 0.40673 0.28522 0.0
C1117 C 0.85995 0.42934 0.2636 0.0
C1118 C 0.80937 0.43229 0.29467 0.0
C1119 C 0.82405 0.45627 0.28875 0.0
H1120 H 0.85335 0.59328 0.52093 0.0
H1121 H 0.88268 0.67245 0.54453 0.0
H1122 H 0.93046 0.65386 0.54563 0.0
H1123 H 0.96489 0.61504 0.53881 0.0
H1124 H 0.93579 0.53721 0.51078 0.0
H1125 H 0.88784 0.55508 0.51247 0.0
C1126 C 0.87015 0.60643 0.52654 0.0
C1127 C 0.86403 0.63432 0.53294 0.0
C1128 C 0.89804 0.59574 0.52621 0.0
C1129 C 0.88645 0.65097 0.53959 0.0
C1130 C 0.91394 0.6403 0.54021 0.0
C1131 C 0.94806 0.60193 0.5332 0.0
C1132 C 0.95434 0.57456 0.52485 0.0
C1133 C 0.92016 0.61271 0.53341 0.0
C1134 C 0.93196 0.55825 0.51729 0.0
C1135 C 0.90433 0.5685 0.51828 0.0
H1136 H 0.18506 0.0942 0.30647 0.0
H1137 H 0.15002 0.11597 0.38765 0.0
H1138 H 0.17961 0.15662 0.38795 0.0
H1139 H 0.21593 0.18533 0.36484 0.0
H1140 H 0.2479 0.16454 0.28232 0.0
H1141 H 0.21881 0.12382 0.28257 0.0
C1142 C 0.18403 0.10779 0.32432 0.0
C1143 C 0.16589 0.10208 0.34724 0.0
C1144 C 0.20041 0.13113 0.32395 0.0
C1145 C 0.16405 0.12007 0.36991 0.0
C1146 C 0.18093 0.14317 0.37005 0.0
C1147 C 0.21644 0.17174 0.34704 0.0
C1148 C 0.23404 0.1775 0.32367 0.0
C1149 C 0.19927 0.1488 0.3472 0.0
C1150 C 0.23437 0.1603 0.3004 0.0
C1151 C 0.21788 0.1371 0.30062 0.0
H1152 H 0.36743 0.89459 0.50796 0.0
H1153 H 0.32516 0.93919 0.57508 0.0
H1154 H 0.35889 0.97566 0.57027 0.0
H1155 H 0.39801 0.99661 0.54479 0.0
H1156 H 0.44153 0.95278 0.47848 0.0
H1157 H 0.40963 0.91409 0.48498 0.0
C1158 C 0.366 0.91201 0.5219 0.0
C1159 C 0.34372 0.91434 0.54164 0.0
C1160 C 0.38528 0.93319 0.51878 0.0
C1161 C 0.34199 0.93707 0.55951 0.0
C1162 C 0.36117 0.958 0.55673 0.0
C1163 C 0.40026 0.9786 0.5317 0.0
C1164 C 0.42132 0.97751 0.51075 0.0
C1165 C 0.38235 0.95662 0.53595 0.0
C1166 C 0.42498 0.95391 0.49442 0.0
C1167 C 0.40689 0.93191 0.49823 0.0
H1168 H 0.84121 0.62007 0.25389 0.0
H1169 H 0.91811 0.65157 0.28336 0.0
H1170 H 0.89834 0.69809 0.283 0.0
H1171 H 0.85896 0.72947 0.27632 0.0
H1172 H 0.78126 0.69866 0.2482 0.0
H1173 H 0.80181 0.65221 0.24561 0.0
C1174 C 0.8536 0.63715 0.26018 0.0
C1175 C 0.88098 0.63237 0.26881 0.0
C1176 C 0.84207 0.66393 0.26004 0.0
C1177 C 0.8969 0.65467 0.27678 0.0
C1178 C 0.88566 0.68131 0.27653 0.0
C1179 C 0.84654 0.71269 0.26933 0.0
C1180 C 0.81863 0.71748 0.26253 0.0
C1181 C 0.85824 0.68612 0.26843 0.0
C1182 C 0.80284 0.69548 0.25355 0.0
C1183 C 0.81452 0.66892 0.25218 0.0
H1184 H 0.65766 0.44374 0.77708 0.0
H1185 H 0.72813 0.47354 0.82006 0.0
H1186 H 0.75516 0.43185 0.80781 0.0
H1187 H 0.75774 0.38593 0.7867 0.0
H1188 H 0.68819 0.35781 0.74089 0.0
H1189 H 0.66192 0.4 0.75202 0.0
C1190 C 0.67896 0.44103 0.78365 0.0
C1191 C 0.69089 0.46126 0.7997 0.0
C1192 C 0.69452 0.41744 0.77592 0.0
C1193 C 0.71862 0.45802 0.80771 0.0
C1194 C 0.73402 0.43424 0.80076 0.0
C1195 C 0.73696 0.38923 0.77893 0.0
C1196 C 0.72485 0.3688 0.76318 0.0
C1197 C 0.72207 0.41368 0.78511 0.0
C1198 C 0.698 0.37334 0.75298 0.0
C1199 C 0.68288 0.39736 0.75947 0.0
H1200 H 0.04337 0.86407 0.98116 0.0
H1201 H 0.02994 0.89625 0.89804 0.0
H1202 H 0.03244 0.94324 0.91511 0.0
H1203 H 0.03884 0.97637 0.95369 0.0
H1204 H 0.05405 0.94435 0.03656 0.0
H1205 H 0.0507 0.89735 0.01972 0.0
C1206 C 0.04071 0.88131 0.96676 0.0
C1207 C 0.03614 0.87598 0.93808 0.0
C1208 C 0.04282 0.90889 0.97674 0.0
C1209 C 0.03332 0.89913 0.92009 0.0
C1210 C 0.03485 0.9263 0.9299 0.0
C1211 C 0.0417 0.95919 0.96813 0.0
C1212 C 0.04698 0.96464 0.99663 0.0
C1213 C 0.03977 0.93163 0.95817 0.0
C1214 C 0.05025 0.94148 0.0146 0.0
C1215 C 0.04818 0.91428 0.00493 0.0
H1216 H 0.90283 0.31264 0.64152 0.0
H1217 H 0.94266 0.28386 0.71661 0.0
H1218 H 0.89758 0.28213 0.74134 0.0
H1219 H 0.84796 0.29145 0.74264 0.0
H1220 H 0.80641 0.3191 0.66835 0.0
H1221 H 0.85144 0.31878 0.64205 0.0
C1222 C 0.90157 0.30569 0.6632 0.0
C1223 C 0.92607 0.29865 0.67734 0.0
C1224 C 0.87552 0.30499 0.67743 0.0
C1225 C 0.92416 0.28955 0.70534 0.0
C1226 C 0.89842 0.28866 0.71953 0.0
C1227 C 0.84867 0.2977 0.72072 0.0
C1228 C 0.82412 0.30609 0.70756 0.0
C1229 C 0.87418 0.29694 0.70596 0.0
C1230 C 0.82521 0.31305 0.67895 0.0
C1231 C 0.85086 0.31276 0.664 0.0
H1232 H 0.49048 0.20497 0.46 0.0
H1233 H 0.5782 0.21196 0.44027 0.0
H1234 H 0.58652 0.16529 0.45948 0.0
H1235 H 0.56887 0.12235 0.4842 0.0
H1236 H 0.48032 0.11513 0.49961 0.0
H1237 H 0.47258 0.16131 0.48012 0.0
C1238 C 0.51147 0.19627 0.45952 0.0
C1239 C 0.53365 0.21252 0.44847 0.0
C1240 C 0.51604 0.16905 0.47024 0.0
C1241 C 0.56057 0.20032 0.44818 0.0
C1242 C 0.56536 0.1735 0.45947 0.0
C1243 C 0.54784 0.13081 0.48321 0.0
C1244 C 0.52521 0.11478 0.49385 0.0
C1245 C 0.54331 0.15764 0.47095 0.0
C1246 C 0.49821 0.12645 0.49181 0.0
C1247 C 0.49373 0.15311 0.48061 0.0
H1248 H 0.57451 0.80117 0.19341 0.0
H1249 H 0.62944 0.85162 0.14195 0.0
H1250 H 0.66795 0.83966 0.1723 0.0
H1251 H 0.68685 0.811 0.21003 0.0
H1252 H 0.63229 0.75927 0.26028 0.0
H1253 H 0.59269 0.77523 0.23316 0.0
C1254 C 0.59475 0.81 0.18899 0.0
C1255 C 0.59909 0.82713 0.16524 0.0
C1256 C 0.61694 0.80233 0.20591 0.0
C1257 C 0.62552 0.83831 0.15999 0.0
C1258 C 0.64759 0.83134 0.17723 0.0
C1259 C 0.66625 0.80357 0.21546 0.0
C1260 C 0.66257 0.78383 0.23712 0.0
C1261 C 0.64368 0.81274 0.19973 0.0
C1262 C 0.63575 0.7741 0.24345 0.0
C1263 C 0.6131 0.78337 0.22809 0.0
H1264 H 0.06264 0.24347 0.58317 0.0
H1265 H 0.98742 0.22714 0.63217 0.0
H1266 H 0.99812 0.1777 0.63055 0.0
H1267 H 0.0293 0.13946 0.61575 0.0
H1268 H 0.10434 0.15647 0.56683 0.0
H1269 H 0.09365 0.20564 0.56876 0.0
C1270 C 0.04832 0.22914 0.59322 0.0
C1271 C 0.02409 0.23895 0.60751 0.0
C1272 C 0.05488 0.20099 0.59272 0.0
C1273 C 1.00612 0.22008 0.62088 0.0
C1274 C 0.0123 0.19186 0.62009 0.0
C1275 C 0.04325 0.15393 0.60545 0.0
C1276 C 0.06754 0.14427 0.59112 0.0
C1277 C 0.03672 0.18215 0.60622 0.0
C1278 C 0.08573 0.1633 0.57833 0.0
C1279 C 0.07946 0.19142 0.57913 0.0
H1280 H 0.61076 0.2641 0.34016 0.0
H1281 H 0.63536 0.31712 0.40597 0.0
H1282 H 0.68222 0.31971 0.38448 0.0
H1283 H 0.7169 0.30746 0.34638 0.0
H1284 H 0.69368 0.25086 0.28315 0.0
H1285 H 0.64645 0.24917 0.30395 0.0
C1286 C 0.62638 0.27614 0.3499 0.0
C1287 C 0.61908 0.2905 0.37482 0.0
C1288 C 0.6539 0.277 0.33769 0.0
C1289 C 0.64002 0.30574 0.387 0.0
C1290 C 0.66699 0.30733 0.37458 0.0
C1291 C 0.70152 0.29477 0.33709 0.0
C1292 C 0.70916 0.27953 0.31282 0.0
C1293 C 0.67427 0.29317 0.34982 0.0
C1294 C 0.68874 0.2629 0.30163 0.0
C1295 C 0.66153 0.26193 0.31358 0.0
H1296 H 0.51575 0.90219 0.14337 0.0
H1297 H 0.49172 0.86491 0.06676 0.0
H1298 H 0.48396 0.91023 0.04548 0.0
H1299 H 0.48966 0.95921 0.04663 0.0
H1300 H 0.52107 0.99722 0.1199 0.0
H1301 H 0.51911 0.95296 0.14523 0.0
C1302 C 0.50857 0.90423 0.12214 0.0
C1303 C 0.50462 0.88067 0.10633 0.0
C1304 C 0.50533 0.93033 0.10968 0.0
C1305 C 0.49532 0.88305 0.07892 0.0
C1306 C 0.49072 0.90883 0.06689 0.0
C1307 C 0.49576 0.958 0.06829 0.0
C1308 C 0.50607 0.98118 0.08125 0.0
C1309 C 0.49649 0.93248 0.08178 0.0
C1310 C 0.51325 0.97948 0.10947 0.0
C1311 C 0.51243 0.95418 0.1238 0.0
H1312 H 0.93049 0.77434 0.89603 0.0
H1313 H 0.98111 0.82479 0.84075 0.0
H1314 H 0.9435 0.82711 0.80701 0.0
H1315 H 0.8944 0.81622 0.79371 0.0
H1316 H 0.84672 0.76199 0.8482 0.0
H1317 H 0.88438 0.75981 0.88093 0.0
C1318 C 0.93355 0.78568 0.87648 0.0
C1319 C 0.95903 0.79945 0.87135 0.0
C1320 C 0.91191 0.78636 0.85672 0.0
C1321 C 0.96215 0.81379 0.84556 0.0
C1322 C 0.94039 0.81524 0.82619 0.0
C1323 C 0.89232 0.80365 0.81256 0.0
C1324 C 0.86706 0.78929 0.81801 0.0
C1325 C 0.9149 0.80181 0.83155 0.0
C1326 C 0.86542 0.77319 0.84284 0.0
C1327 C 0.88714 0.77199 0.86188 0.0
H1328 H 0.904 0.05325 0.86243 0.0
H1329 H 0.89955 0.14167 0.85945 0.0
H1330 H 0.93005 0.14369 0.89938 0.0
H1331 H 0.96622 0.12023 0.92682 0.0
H1332 H 0.97608 0.03183 0.92277 0.0
H1333 H 0.9359 0.02961 0.89341 0.0
C1334 C 0.90887 0.07285 0.8714 0.0
C1335 C 0.90008 0.09721 0.85822 0.0
C1336 C 0.9285 0.07374 0.89214 0.0
C1337 C 0.90605 0.12266 0.86972 0.0
C1338 C 0.92406 0.12378 0.89198 0.0
C1339 C 0.95961 0.10054 0.91942 0.0
C1340 C 0.9744 0.0763 0.92649 0.0
C1341 C 0.93695 0.09948 0.90187 0.0
C1342 C 0.96508 0.05079 0.91752 0.0
C1343 C 0.94207 0.04948 0.90081 0.0
H1344 H 0.73791 0.23346 0.54431 0.0
H1345 H 0.79464 0.17637 0.58466 0.0
H1346 H 0.77556 0.19038 0.63048 0.0
H1347 H 0.74508 0.22086 0.65867 0.0
H1348 H 0.69045 0.27966 0.61838 0.0
H1349 H 0.70565 0.262 0.57248 0.0
C1350 C 0.74626 0.22407 0.56307 0.0
C1351 C 0.76807 0.20424 0.56109 0.0
C1352 C 0.73529 0.23222 0.58917 0.0
C1353 C 0.7781 0.19188 0.58563 0.0
C1354 C 0.76714 0.19981 0.61178 0.0
C1355 C 0.73647 0.22975 0.63981 0.0
C1356 C 0.71712 0.25185 0.64172 0.0
C1357 C 0.74607 0.22024 0.61373 0.0
C1358 C 0.70535 0.26263 0.61732 0.0
C1359 C 0.7143 0.25276 0.59116 0.0
H1360 H 0.58922 0.9955 0.36633 0.0
H1361 H 0.67018 0.01325 0.39685 0.0
H1362 H 0.65075 0.01452 0.44501 0.0
H1363 H 0.60966 0.01546 0.47701 0.0
H1364 H 0.52885 0.99743 0.44559 0.0
H1365 H 0.54956 0.99064 0.39895 0.0
C1366 C 0.60259 0.99946 0.38362 0.0
C1367 C 0.63077 1.00488 0.37842 0.0
C1368 C 0.59137 0.99998 0.41086 0.0
C1369 C 0.64827 0.00928 0.4007 0.0
C1370 C 0.63719 0.01003 0.42807 0.0
C1371 C 0.59667 0.00959 0.46006 0.0
C1372 C 0.56774 0.00752 0.4645 0.0
C1373 C 0.60861 1.0061 0.43324 0.0
C1374 C 0.55116 0.9995 0.44253 0.0
C1375 C 0.56292 0.99572 0.41586 0.0
H1376 H 0.82999 0.85737 0.11046 0.0
H1377 H 0.7463 0.8911 0.11005 0.0
H1378 H 0.73663 0.87014 0.15658 0.0
H1379 H 0.75194 0.84062 0.19768 0.0
H1380 H 0.83707 0.81044 0.19774 0.0
H1381 H 0.84587 0.83111 0.15151 0.0
C1382 C 0.80959 0.86044 0.1205 0.0
C1383 C 0.78895 0.87602 0.10625 0.0
C1384 C 0.80429 0.84848 0.14744 0.0
C1385 C 0.7628 0.87961 0.1202 0.0
C1386 C 0.75719 0.86733 0.14688 0.0
C1387 C 0.77236 0.83842 0.18748 0.0
C1388 C 0.79373 0.82338 0.20143 0.0
C1389 C 0.77769 0.85138 0.16072 0.0
C1390 C 0.82015 0.82151 0.18782 0.0
C1391 C 0.82525 0.83348 0.16123 0.0
H1392 H 0.92936 0.04005 0.71145 0.0
H1393 H 1.00466 0.07282 0.74302 0.0
H1394 H 0.03039 0.0593 0.70012 0.0
H1395 H 0.03067 0.04021 0.6532 0.0
H1396 H 0.95584 1.00626 0.6218 0.0
H1397 H 0.93064 0.0174 0.66577 0.0
C1398 C 0.95137 0.04437 0.70874 0.0
C1399 C 0.96514 0.05787 0.7298 0.0
C1400 C 0.96603 0.03594 0.68448 0.0
C1401 C 0.99375 0.06271 0.72673 0.0
C1402 C 1.0084 0.05489 0.70237 0.0
C1403 C 0.00893 0.03492 0.65617 0.0
C1404 C 0.99494 0.0227 0.63444 0.0
C1405 C 0.99467 0.04169 0.68111 0.0
C1406 C 0.96695 0.01556 0.63845 0.0
C1407 C 0.95252 0.02221 0.66337 0.0
H1408 H 0.83196 0.22527 0.44086 0.0
H1409 H 0.82648 0.1453 0.40376 0.0
H1410 H 0.82514 0.16692 0.35704 0.0
H1411 H 0.81912 0.20871 0.32829 0.0
H1412 H 0.82219 0.28863 0.36637 0.0
H1413 H 0.83133 0.2667 0.41154 0.0
C1414 C 0.83082 0.21254 0.42248 0.0
C1415 C 0.82876 0.18388 0.42552 0.0
C1416 C 0.82947 0.22509 0.39612 0.0
C1417 C 0.82792 0.16746 0.40173 0.0
C1418 C 0.827 0.17982 0.37516 0.0
C1419 C 0.82217 0.22138 0.34638 0.0
C1420 C 0.81947 0.25024 0.34419 0.0
C1421 C 0.82676 0.20865 0.3723 0.0
C1422 C 0.8239 0.26638 0.36765 0.0
C1423 C 0.82903 0.25387 0.39344 0.0
H1424 H 0.58229 0.08051 0.24561 0.0
H1425 H 0.63491 0.01173 0.21912 0.0
H1426 H 0.62459 0.02177 0.17042 0.0
H1427 H 0.60019 0.04941 0.13563 0.0
H1428 H 0.5466 0.11737 0.16162 0.0
H1429 H 0.55851 0.10886 0.21042 0.0
C1430 C 0.59136 0.0676 0.22921 0.0
C1431 C 0.60915 0.04529 0.23598 0.0
C1432 C 0.58551 0.07356 0.20124 0.0
C1433 C 0.62109 0.02901 0.21447 0.0
C1434 C 0.61527 0.03474 0.18662 0.0
C1435 C 0.59104 0.06228 0.15201 0.0
C1436 C 0.57236 0.08375 0.14518 0.0
C1437 C 0.59748 0.05689 0.17984 0.0
C1438 C 0.56121 0.10081 0.16642 0.0
C1439 C 0.56778 0.09577 0.19429 0.0
H1440 H 0.78061 0.91742 0.92464 0.0
H1441 H 0.79526 0.84397 0.97424 0.0
H1442 H 0.7926 0.81582 0.93258 0.0
H1443 H 0.78635 0.8112 0.88117 0.0
H1444 H 0.77427 0.88471 0.83105 0.0
H1445 H 0.77549 0.91288 0.87296 0.0
C1446 C 0.78336 0.89528 0.92642 0.0
C1447 C 0.78818 0.88321 0.95318 0.0
C1448 C 0.78202 0.87881 0.90188 0.0
C1449 C 0.79162 0.85427 0.9544 0.0
C1450 C 0.78999 0.83795 0.93036 0.0
C1451 C 0.78361 0.83335 0.87938 0.0
C1452 C 0.77972 0.84546 0.85248 0.0
C1453 C 0.7851 0.84984 0.90387 0.0
C1454 C 0.77698 0.87444 0.85109 0.0
C1455 C 0.7778 0.89074 0.87525 0.0
H1456 H 0.8943 0.9322 0.05506 0.0
H1457 H 0.85107 0.98271 0.99505 0.0
H1458 H 0.88934 0.01562 0.99405 0.0
H1459 H 0.93702 0.02944 0.00912 0.0
H1460 H 0.97668 0.98013 0.07295 0.0
H1461 H 0.93848 0.94818 0.07354 0.0
C1462 C 0.89302 0.95054 0.0419 0.0
C1463 C 0.8695 0.9546 0.02503 0.0
C1464 C 0.91488 0.9699 0.04207 0.0
C1465 C 0.86854 0.97881 0.00839 0.0
C1466 C 0.89066 0.99769 0.00774 0.0
C1467 C 0.93717 0.01193 0.02345 0.0
C1468 C 0.96034 0.00767 0.04102 0.0
C1469 C 0.91423 0.99344 0.02433 0.0
C1470 C 0.95956 0.98455 0.05929 0.0
C1471 C 0.93757 0.96594 0.05958 0.0
H1472 H 0.41813 0.65947 0.04021 0.0
H1473 H 0.36348 0.59062 0.05242 0.0
H1474 H 0.40318 0.56038 0.06203 0.0
H1475 H 0.45334 0.55266 0.06369 0.0
H1476 H 0.50876 0.62085 0.05243 0.0
H1477 H 0.46877 0.65225 0.04571 0.0
C1478 C 0.4149 0.63794 0.04538 0.0
C1479 C 0.38792 0.62726 0.04534 0.0
C1480 C 0.43793 0.6205 0.05068 0.0
C1481 C 0.38404 0.59934 0.05214 0.0
C1482 C 0.40673 0.58198 0.05754 0.0
C1483 C 0.4567 0.5744 0.05974 0.0
C1484 C 0.4839 0.58439 0.05803 0.0
C1485 C 0.43376 0.5922 0.05622 0.0
C1486 C 0.48795 0.61268 0.05357 0.0
C1487 C 0.46512 0.6306 0.04976 0.0
H1488 H 0.20682 0.57116 0.779 0.0
H1489 H 0.15864 0.62014 0.8387 0.0
H1490 H 0.18881 0.65916 0.82872 0.0
H1491 H 0.22509 0.6806 0.79928 0.0
H1492 H 0.27199 0.63239 0.73812 0.0
H1493 H 0.24547 0.59174 0.75206 0.0
C1494 C 0.20325 0.59014 0.79036 0.0
C1495 C 0.18043 0.59274 0.80955 0.0
C1496 C 0.21998 0.61275 0.78376 0.0
C1497 C 0.17601 0.61761 0.82381 0.0
C1498 C 0.19313 0.63997 0.81797 0.0
C1499 C 0.22998 0.66112 0.78935 0.0
C1500 C 0.25051 0.65956 0.76762 0.0
C1501 C 0.21459 0.63799 0.79737 0.0
C1502 C 0.25605 0.63422 0.7546 0.0
C1503 C 0.24104 0.61096 0.76271 0.0
H1504 H 0.18879 0.43321 0.50108 0.0
H1505 H 0.2255 0.49161 0.55497 0.0
H1506 H 0.18152 0.51801 0.55788 0.0
H1507 H 0.13208 0.52539 0.5446 0.0
H1508 H 0.09646 0.46818 0.48852 0.0
H1509 H 0.13984 0.44109 0.48704 0.0
C1510 C 0.18716 0.4516 0.51364 0.0
C1511 C 0.21078 0.46007 0.52796 0.0
C1512 C 0.16169 0.46727 0.51473 0.0
C1513 C 0.20797 0.48432 0.54374 0.0
C1514 C 0.18267 0.49957 0.5454 0.0
C1515 C 0.13375 0.50703 0.532 0.0
C1516 C 0.11052 0.49915 0.51667 0.0
C1517 C 0.1593 0.49141 0.53087 0.0
C1518 C 0.11361 0.47514 0.5005 0.0
C1519 C 0.1386 0.45943 0.49967 0.0
H1520 H 0.85617 0.01561 0.76599 0.0
H1521 H 0.90351 0.97689 0.8317 0.0
H1522 H 0.88649 0.93199 0.81896 0.0
H1523 H 0.86101 0.90373 0.78721 0.0
H1524 H 0.81347 0.94242 0.72174 0.0
H1525 H 0.82873 0.98751 0.73582 0.0
C1526 C 0.86244 0.99746 0.77791 0.0
C1527 C 0.88115 0.99963 0.79975 0.0
C1528 C 0.85315 0.97171 0.77007 0.0
C1529 C 0.88916 0.97581 0.81477 0.0
C1530 C 0.87959 0.95012 0.80739 0.0
C1531 C 0.85362 0.92199 0.77621 0.0
C1532 C 0.83608 0.91961 0.75343 0.0
C1533 C 0.86206 0.94782 0.78472 0.0
C1534 C 0.82731 0.94354 0.73905 0.0
C1535 C 0.83577 0.96937 0.74729 0.0
H1536 H 0.74951 0.10582 0.50678 0.0
H1537 H 0.69975 0.1584 0.45345 0.0
H1538 H 0.65767 0.13524 0.4706 0.0
H1539 H 0.63484 0.10414 0.50488 0.0
H1540 H 0.68474 0.054 0.56012 0.0
H1541 H 0.72716 0.07291 0.53855 0.0
C1542 C 0.72959 0.11199 0.49838 0.0
C1543 C 0.72785 0.13405 0.47896 0.0
C1544 C 0.70549 0.09955 0.50927 0.0
C1545 C 0.70175 0.14156 0.46842 0.0
C1546 C 0.67765 0.1285 0.47843 0.0
C1547 C 0.655 0.09704 0.51191 0.0
C1548 C 0.65666 0.0778 0.5342 0.0
C1549 C 0.67923 0.10815 0.49955 0.0
C1550 C 0.68293 0.06912 0.54336 0.0
C1551 C 0.70715 0.07974 0.53087 0.0
H1552 H 0.21688 0.45743 0.79245 0.0
H1553 H 0.14594 0.42599 0.75145 0.0
H1554 H 0.16568 0.37907 0.75495 0.0
H1555 H 0.20303 0.34732 0.7704 0.0
H1556 H 0.27228 0.37951 0.814 0.0
H1557 H 0.2527 0.42593 0.80958 0.0
C1558 C 0.20601 0.44037 0.78378 0.0
C1559 C 0.18039 0.44502 0.77115 0.0
C1560 C 0.21677 0.41362 0.78706 0.0
C1561 C 0.16598 0.42275 0.76083 0.0
C1562 C 0.17709 0.396 0.76311 0.0
C1563 C 0.21354 0.36443 0.7794 0.0
C1564 C 0.23905 0.36 0.79251 0.0
C1565 C 0.20233 0.39118 0.77653 0.0
C1566 C 0.25258 0.38239 0.80385 0.0
C1567 C 0.24156 0.40897 0.80111 0.0
H1568 H 0.3504 0.63917 0.25213 0.0
H1569 H 0.43061 0.66758 0.27566 0.0
H1570 H 0.4118 0.71449 0.27971 0.0
H1571 H 0.37128 0.74604 0.28214 0.0
H1572 H 0.29099 0.71775 0.25882 0.0
H1573 H 0.31093 0.67188 0.24969 0.0
C1574 C 0.36394 0.6558 0.25724 0.0
C1575 C 0.3917 0.65006 0.2638 0.0
C1576 C 0.35274 0.68244 0.26058 0.0
C1577 C 0.40907 0.67166 0.27061 0.0
C1578 C 0.39828 0.69836 0.27328 0.0
C1579 C 0.35818 0.72969 0.27533 0.0
C1580 C 0.32969 0.73478 0.27191 0.0
C1581 C 0.36988 0.7037 0.26952 0.0
C1582 C 0.31296 0.71392 0.2621 0.0
C1583 C 0.32436 0.68785 0.25665 0.0
H1584 H 0.55833 0.71161 0.57283 0.0
H1585 H 0.53139 0.69583 0.65835 0.0
H1586 H 0.5249 0.64705 0.64738 0.0
H1587 H 0.52719 0.60759 0.61257 0.0
H1588 H 0.55169 0.6269 0.5268 0.0
H1589 H 0.55873 0.67436 0.53886 0.0
C1590 C 0.55101 0.69768 0.58929 0.0
C1591 C 0.54561 0.70808 0.61662 0.0
C1592 C 0.54682 0.66959 0.58267 0.0
C1593 C 0.53581 0.68905 0.63715 0.0
C1594 C 0.53214 0.66086 0.63081 0.0
C1595 C 0.53403 0.62214 0.59651 0.0
C1596 C 0.53867 0.61285 0.56846 0.0
C1597 C 0.53763 0.65063 0.60353 0.0
C1598 C 0.54748 0.63273 0.54836 0.0
C1599 C 0.55169 0.66025 0.55527 0.0
H1600 H 0.63493 0.26703 0.89328 0.0
H1601 H 0.57569 0.27176 0.82737 0.0
H1602 H 0.61371 0.27124 0.79213 0.0
H1603 H 0.66372 0.27332 0.78027 0.0
H1604 H 0.72272 0.26984 0.84651 0.0
H1605 H 0.68479 0.26568 0.88136 0.0
C1606 C 0.63033 0.26772 0.87121 0.0
C1607 C 0.60263 0.26975 0.86293 0.0
C1608 C 0.65223 0.2677 0.85111 0.0
C1609 C 0.59693 0.27039 0.83426 0.0
C1610 C 0.61863 0.27011 0.81409 0.0
C1611 C 0.66828 0.27125 0.80229 0.0
C1612 C 0.69591 0.27214 0.8108 0.0
C1613 C 0.64636 0.26934 0.8223 0.0
C1614 C 0.70155 0.26943 0.83942 0.0
C1615 C 0.6799 0.2671 0.85939 0.0
H1616 H 0.03006 0.36426 0.08369 0.0
H1617 H 0.07185 0.38574 0.1583 0.0
H1618 H 0.07818 0.43263 0.13997 0.0
H1619 H 0.07071 0.46917 0.10299 0.0
H1620 H 0.0245 0.44866 0.03076 0.0
H1621 H 0.02121 0.40107 0.04757 0.0
C1622 C 0.04085 0.37906 0.09585 0.0
C1623 C 0.05082 0.37075 0.12246 0.0
C1624 C 0.04356 0.40682 0.0855 0.0
C1625 C 0.06407 0.39096 0.13783 0.0
C1626 C 0.06768 0.41806 0.12728 0.0
C1627 C 0.06008 0.4543 0.09076 0.0
C1628 C 0.04813 0.46314 0.06518 0.0
C1629 C 0.05738 0.42651 0.10117 0.0
C1630 C 0.03405 0.44308 0.05032 0.0
C1631 C 0.03213 0.41554 0.06 0.0
H1632 H 0.95598 0.78564 0.41582 0.0
H1633 H 0.01908 0.80189 0.35147 0.0
H1634 H 0.98322 0.81327 0.31811 0.0
H1635 H 0.93383 0.81816 0.30698 0.0
H1636 H 0.87079 0.79984 0.37037 0.0
H1637 H 0.90663 0.78979 0.40445 0.0
C1638 C 0.96184 0.79171 0.39452 0.0
C1639 C 0.99007 0.79288 0.38613 0.0
C1640 C 0.94114 0.79789 0.37531 0.0
C1641 C 0.99743 0.80059 0.35839 0.0
C1642 C 0.97697 0.80723 0.33931 0.0
C1643 C 0.92812 0.81218 0.32834 0.0
C1644 C 0.89998 0.80976 0.33635 0.0
C1645 C 0.94879 0.80593 0.34753 0.0
C1646 C 0.8925 0.80161 0.36388 0.0
C1647 C 0.91292 0.79594 0.3833 0.0
H1648 H 0.5379 0.36776 0.93179 0.0
H1649 H 0.52916 0.31003 1.00095 0.0
H1650 H 0.51132 0.3469 0.03127 0.0
H1651 H 0.50007 0.39613 0.03856 0.0
H1652 H 0.51139 0.45383 0.97013 0.0
H1653 H 0.52582 0.41637 0.93872 0.0
C1654 C 0.53214 0.36324 0.9535 0.0
C1655 C 0.53494 0.33629 0.96416 0.0
C1656 C 0.52202 0.38449 0.97077 0.0
C1657 C 0.52731 0.3307 0.9923 0.0
C1658 C 0.51699 0.35172 0.00961 0.0
C1659 C 0.50509 0.40018 0.01659 0.0
C1660 C 0.5044 0.42733 0.00631 0.0
C1661 C 0.51434 0.3787 0.99909 0.0
C1662 C 0.5116 0.43284 0.97812 0.0
C1663 C 0.52003 0.41155 0.96035 0.0
H1664 H 0.94253 0.27867 0.16295 0.0
H1665 H 0.9841 0.30651 0.23543 0.0
H1666 H 0.93987 0.30715 0.26247 0.0
H1667 H 0.8886 0.2997 0.26608 0.0
H1668 H 0.84815 0.26662 0.19534 0.0
H1669 H 0.89192 0.26814 0.16755 0.0
C1670 C 0.94194 0.28485 0.18467 0.0
C1671 C 0.96696 0.29271 0.1969 0.0
C1672 C 0.91627 0.28425 0.20062 0.0
C1673 C 0.96548 0.30029 0.22528 0.0
C1674 C 0.94002 0.30074 0.24084 0.0
C1675 C 0.88935 0.29286 0.24457 0.0
C1676 C 0.86473 0.28325 0.23289 0.0
C1677 C 0.91516 0.29278 0.22883 0.0
C1678 C 0.86652 0.2741 0.20503 0.0
C1679 C 0.89168 0.275 0.18903 0.0
H1680 H 0.04184 0.68437 0.41626 0.0
H1681 H 0.102 0.70409 0.47727 0.0
H1682 H 0.10706 0.65545 0.49038 0.0
H1683 H 0.08849 0.60947 0.49014 0.0
H1684 H 0.02423 0.58977 0.43344 0.0
H1685 H 0.02727 0.63591 0.41202 0.0
C1686 C 0.05652 0.6777 0.43188 0.0
C1687 C 0.07155 0.69736 0.44595 0.0
C1688 C 0.05843 0.64984 0.44003 0.0
C1689 C 0.09032 0.68902 0.46635 0.0
C1690 C 0.09314 0.66133 0.47383 0.0
C1691 C 0.07563 0.61505 0.4726 0.0
C1692 C 0.05586 0.59658 0.46362 0.0
C1693 C 0.07646 0.64182 0.46163 0.0
C1694 C 0.0396 0.60375 0.44066 0.0
C1695 C 0.04109 0.63022 0.42871 0.0
H1696 H 0.65107 0.82422 0.66441 0.0
H1697 H 0.60294 0.77145 0.71975 0.0
H1698 H 0.64085 0.77028 0.75306 0.0
H1699 H 0.6894 0.78294 0.76603 0.0
H1700 H 0.73502 0.8386 0.7112 0.0
H1701 H 0.69692 0.83987 0.67893 0.0
C1702 C 0.64864 0.81255 0.68383 0.0
C1703 C 0.62378 0.7978 0.68913 0.0
C1704 C 0.67048 0.81243 0.70332 0.0
C1705 C 0.62145 0.78312 0.71479 0.0
C1706 C 0.64336 0.78236 0.73393 0.0
C1707 C 0.69092 0.79564 0.74721 0.0
C1708 C 0.71565 0.81071 0.74153 0.0
C1709 C 0.66823 0.79676 0.72842 0.0
C1710 C 0.71666 0.82688 0.71672 0.0
C1711 C 0.69473 0.82755 0.69795 0.0
H1712 H 0.6308 0.49952 0.74015 0.0
H1713 H 0.59225 0.58058 0.73966 0.0
H1714 H 0.57928 0.5749 0.69112 0.0
H1715 H 0.57499 0.54533 0.65083 0.0
H1716 H 0.61011 0.46294 0.652 0.0
H1717 H 0.62823 0.47047 0.69856 0.0
C1718 C 0.62004 0.51608 0.72915 0.0
C1719 C 0.61247 0.54043 0.74322 0.0
C1720 C 0.61171 0.51223 0.70168 0.0
C1721 C 0.59815 0.56164 0.7291 0.0
C1722 C 0.5907 0.55838 0.70146 0.0
C1723 C 0.58707 0.52922 0.66105 0.0
C1724 C 0.59132 0.50366 0.64812 0.0
C1725 C 0.59678 0.53353 0.68783 0.0
C1726 C 0.60645 0.4827 0.66179 0.0
C1727 C 0.61686 0.48704 0.68827 0.0
H1728 H 0.80171 0.34403 0.97298 0.0
H1729 H 0.75848 0.41565 0.94 0.0
H1730 H 0.76621 0.3988 0.8924 0.0
H1731 H 0.78364 0.36286 0.86052 0.0
H1732 H 0.82782 0.29185 0.89305 0.0
H1733 H 0.82184 0.30952 0.94068 0.0
C1734 C 0.79403 0.35593 0.95535 0.0
C1735 C 0.77931 0.38082 0.95985 0.0
C1736 C 0.79884 0.34631 0.92811 0.0
C1737 C 0.7698 0.39633 0.93692 0.0
C1738 C 0.77419 0.38673 0.90976 0.0
C1739 C 0.79196 0.35137 0.87811 0.0
C1740 C 0.80587 0.32608 0.87358 0.0
C1741 C 0.78842 0.36164 0.90518 0.0
C1742 C 0.81714 0.31147 0.89624 0.0
C1743 C 0.81355 0.32145 0.92338 0.0
H1744 H 1.00075 0.58803 0.20061 0.0
H1745 H 0.91802 0.56969 0.17529 0.0
H1746 H 0.93366 0.5717 0.12605 0.0
H1747 H 0.97302 0.5681 0.09198 0.0
H1748 H 0.05627 0.5836 0.11847 0.0
H1749 H 0.03823 0.59352 0.16549 0.0
C1750 C 0.98602 0.58532 0.18419 0.0
C1751 C 0.95863 0.57799 0.19125 0.0
C1752 C 0.9954 0.58535 0.15626 0.0
C1753 C 0.93936 0.57513 0.17013 0.0
C1754 C 0.94837 0.57594 0.14205 0.0
C1755 C 0.98712 0.57413 0.10793 0.0
C1756 C 0.01597 0.57416 0.10212 0.0
C1757 C 0.97671 0.57928 0.13509 0.0
C1758 C 0.03399 0.58274 0.12267 0.0
C1759 C 0.02373 0.58847 0.14955 0.0
H1760 H 0.79279 0.74035 0.46367 0.0
H1761 H 0.76019 0.66346 0.43739 0.0
H1762 H 0.7543 0.68243 0.39012 0.0
H1763 H 0.76016 0.72056 0.35474 0.0
H1764 H 0.7974 0.79565 0.38 0.0
H1765 H 0.79958 0.77806 0.42813 0.0
C1766 C 0.78409 0.72783 0.44771 0.0
C1767 C 0.77665 0.70039 0.45461 0.0
C1768 C 0.78166 0.73867 0.41987 0.0
C1769 C 0.76601 0.68455 0.4331 0.0
C1770 C 0.76265 0.69545 0.40585 0.0
C1771 C 0.76844 0.73323 0.37082 0.0
C1772 C 0.77823 0.75979 0.36334 0.0
C1773 C 0.77061 0.72245 0.39874 0.0
C1774 C 0.78949 0.77534 0.38474 0.0
C1775 C 0.79081 0.76521 0.41249 0.0
H1776 H 0.64558 0.5393 0.91245 0.0
H1777 H 0.57195 0.50921 0.87518 0.0
H1778 H 0.54631 0.51227 0.92026 0.0
H1779 H 0.54554 0.52216 0.97059 0.0
H1780 H 0.61837 0.55544 0.0069 0.0
H1781 H 0.64358 0.55289 0.96177 0.0
C1782 C 0.62393 0.53342 0.91433 0.0
C1783 C 0.61064 0.52369 0.89093 0.0
C1784 C 0.6092 0.53599 0.94 0.0
C1785 C 0.58248 0.51665 0.89317 0.0
C1786 C 0.56787 0.5184 0.91886 0.0
C1787 C 0.56683 0.52908 0.96849 0.0
C1788 C 0.58014 0.53883 0.99195 0.0
C1789 C 0.58109 0.52788 0.94244 0.0
C1790 C 0.60765 0.54796 0.98903 0.0
C1791 C 0.62215 0.54636 0.96331 0.0
H1792 H 0.76367 0.31575 0.09999 0.0
H1793 H 0.78802 0.39726 0.12213 0.0
H1794 H 0.78134 0.38572 0.17182 0.0
H1795 H 0.77299 0.35103 0.20871 0.0
H1796 H 0.74812 0.26961 0.18637 0.0
H1797 H 0.74971 0.28287 0.13699 0.0
C1798 C 0.76746 0.33093 0.11576 0.0
C1799 C 0.77685 0.35703 0.10764 0.0
C1800 C 0.76321 0.3243 0.14417 0.0
C1801 C 0.78102 0.37688 0.12806 0.0
C1802 C 0.77716 0.37034 0.15641 0.0
C1803 C 0.76725 0.3364 0.1931 0.0
C1804 C 0.76092 0.30929 0.20111 0.0
C1805 C 0.76876 0.34394 0.1647 0.0
C1806 C 0.75336 0.29058 0.18068 0.0
C1807 C 0.75447 0.29804 0.15242 0.0
H1808 H 0.90813 0.53086 0.35807 0.0
H1809 H 0.98155 0.51609 0.30526 0.0
H1810 H 1.00303 0.48949 0.34256 0.0
H1811 H 1.00408 0.47718 0.39234 0.0
H1812 H 0.93337 0.49634 0.44665 0.0
H1813 H 0.90714 0.51358 0.40666 0.0
C1814 C 0.92866 0.52151 0.35468 0.0
C1815 C 0.94341 0.5258 0.32921 0.0
C1816 C 0.94125 0.50683 0.37649 0.0
C1817 C 0.9699 0.51339 0.32487 0.0
C1818 C 0.98221 0.49808 0.34615 0.0
C1819 C 0.98251 0.48404 0.39499 0.0
C1820 C 0.97038 0.48547 0.42194 0.0
C1821 C 0.96847 0.49548 0.37231 0.0
C1822 C 0.94274 0.49497 0.42575 0.0
C1823 C 0.92801 0.50514 0.40304 0.0
H1824 H 0.79104 0.75267 0.60134 0.0
H1825 H 0.7835 0.668 0.62763 0.0
H1826 H 0.78911 0.68129 0.67667 0.0
H1827 H 0.7943 0.71821 0.71327 0.0
H1828 H 0.80569 0.80188 0.68398 0.0
H1829 H 0.80056 0.78779 0.63608 0.0
C1830 C 0.79085 0.73693 0.61767 0.0
C1831 C 0.78667 0.70919 0.61022 0.0
C1832 C 0.79472 0.7447 0.64591 0.0
C1833 C 0.7868 0.68941 0.63218 0.0
C1834 C 0.78987 0.69713 0.66048 0.0
C1835 C 0.79599 0.73335 0.69644 0.0
C1836 C 0.80044 0.76143 0.70313 0.0
C1837 C 0.7936 0.72488 0.66784 0.0
C1838 C 0.80248 0.78027 0.68035 0.0
C1839 C 0.79941 0.77221 0.65254 0.0
H1840 H 0.71337 0.60572 0.54531 0.0
H1841 H 0.68082 0.66894 0.49022 0.0
H1842 H 0.63938 0.64238 0.48372 0.0
H1843 H 0.61021 0.60214 0.49489 0.0
H1844 H 0.64066 0.53933 0.5514 0.0
H1845 H 0.68404 0.56422 0.55574 0.0
C1846 C 0.69739 0.61359 0.53166 0.0
C1847 C 0.7008 0.63977 0.51841 0.0
C1848 C 0.67267 0.5981 0.52817 0.0
C1849 C 0.67925 0.64924 0.50102 0.0
C1850 C 0.65526 0.63393 0.49717 0.0
C1851 C 0.62646 0.59355 0.50782 0.0
C1852 C 0.62179 0.56839 0.52247 0.0
C1853 C 0.65144 0.60844 0.51079 0.0
C1854 C 0.6433 0.55834 0.53957 0.0
C1855 C 0.6683 0.57275 0.54219 0.0
H1856 H 0.16358 0.90257 0.55725 0.0
H1857 H 0.21322 0.96959 0.5841 0.0
H1858 H 0.17113 0.99739 0.59355 0.0
H1859 H 0.1209 1.00437 0.58914 0.0
H1860 H 0.07132 0.93759 0.56142 0.0
H1861 H 0.11274 0.90781 0.55792 0.0
C1862 C 0.16514 0.92316 0.56543 0.0
C1863 C 0.19137 0.93422 0.56952 0.0
C1864 C 0.14092 0.93907 0.57065 0.0
C1865 C 0.19318 0.96073 0.58054 0.0
C1866 C 0.16916 0.97666 0.58593 0.0
C1867 C 0.11907 0.98315 0.58283 0.0
C1868 C 0.09321 0.97334 0.57516 0.0
C1869 C 0.143 0.96629 0.58034 0.0
C1870 C 0.09108 0.94573 0.56726 0.0
C1871 C 0.11476 0.9287 0.56509 0.0
H1872 H 0.37091 0.98348 0.7604 0.0
H1873 H 0.42839 0.96699 0.82648 0.0
H1874 H 0.40215 0.92704 0.84179 0.0
H1875 H 0.36298 0.89645 0.83668 0.0
H1876 H 0.30705 0.90996 0.7692 0.0
H1877 H 0.33229 0.95136 0.75418 0.0
C1878 C 0.37769 0.97102 0.77803 0.0
C1879 C 0.40168 0.97814 0.79209 0.0
C1880 C 0.36266 0.94764 0.78661 0.0
C1881 C 0.41026 0.96178 0.81494 0.0
C1882 C 0.39515 0.939 0.82392 0.0
C1883 C 0.35624 0.90872 0.8189 0.0
C1884 C 0.33311 0.90064 0.80426 0.0
C1885 C 0.37132 0.93178 0.80999 0.0
C1886 C 0.32481 0.9161 0.78078 0.0
C1887 C 0.33924 0.93965 0.77222 0.0
H1888 H 0.35367 0.09528 0.01891 0.0
H1889 H 0.38139 0.175 0.04268 0.0
H1890 H 0.429 0.15659 0.0467 0.0
H1891 H 0.46384 0.1176 0.04272 0.0
H1892 H 0.43637 0.03918 0.01458 0.0
H1893 H 0.38854 0.05705 0.0131 0.0
C1894 C 0.37007 0.10863 0.02511 0.0
C1895 C 0.36351 0.13662 0.03069 0.0
C1896 C 0.39791 0.09801 0.02658 0.0
C1897 C 0.38547 0.15347 0.03825 0.0
C1898 C 0.41288 0.14288 0.04059 0.0
C1899 C 0.44738 0.10437 0.03641 0.0
C1900 C 0.45411 0.07681 0.02899 0.0
C1901 C 0.41954 0.11515 0.03473 0.0
C1902 C 0.43221 0.06036 0.02045 0.0
C1903 C 0.40463 0.07061 0.0196 0.0
H1904 H 0.64311 0.63847 0.8198 0.0
H1905 H 0.70087 0.58209 0.85917 0.0
H1906 H 0.73584 0.61781 0.85939 0.0
H1907 H 0.75087 0.66405 0.84579 0.0
H1908 H 0.6944 0.71979 0.80389 0.0
H1909 H 0.65808 0.68525 0.80676 0.0
C1910 C 0.6632 0.63426 0.82883 0.0
C1911 C 0.66948 0.6079 0.83963 0.0
C1912 C 0.68351 0.65457 0.82796 0.0
C1913 C 0.6957 0.60234 0.85079 0.0
C1914 C 0.71569 0.62268 0.85083 0.0
C1915 C 0.73051 0.66867 0.83755 0.0
C1916 C 0.72527 0.6943 0.82464 0.0
C1917 C 0.70997 0.64869 0.83904 0.0
C1918 C 0.69898 0.7 0.8136 0.0
C1919 C 0.67819 0.68036 0.81543 0.0
H1920 H 0.83619 0.45801 0.01043 0.0
H1921 H 0.89057 0.38781 0.02564 0.0
H1922 H 0.93102 0.4176 0.02308 0.0
H1923 H 0.95068 0.46371 0.0165 0.0
H1924 H 0.89637 0.53313 0.99897 0.0
H1925 H 0.8558 0.50351 0.00258 0.0
C1926 C 0.85689 0.44922 0.01327 0.0
C1927 C 0.86045 0.42084 0.01841 0.0
C1928 C 0.8799 0.46632 0.01143 0.0
C1929 C 0.88738 0.40963 0.02159 0.0
C1930 C 0.91045 0.42663 0.02024 0.0
C1931 C 0.92988 0.47225 0.01377 0.0
C1932 C 0.92621 0.50043 0.00777 0.0
C1933 C 0.90691 0.455 0.01527 0.0
C1934 C 0.89941 0.51141 0.0036 0.0
C1935 C 0.87635 0.49453 0.00568 0.0
H1936 H 0.4013 0.15474 0.7562 0.0
H1937 H 0.32855 0.10524 0.74931 0.0
H1938 H 0.29925 0.14702 0.7455 0.0
H1939 H 0.294 0.19755 0.74979 0.0
H1940 H 0.36743 0.24608 0.75789 0.0
H1941 H 0.39679 0.20471 0.75529 0.0
C1942 C 0.37906 0.15307 0.75353 0.0
C1943 C 0.36699 0.12705 0.75346 0.0
C1944 C 0.36246 0.17701 0.75176 0.0
C1945 C 0.33827 0.12513 0.74953 0.0
C1946 C 0.32152 0.14899 0.7475 0.0
C1947 C 0.31645 0.19907 0.75045 0.0
C1948 C 0.32847 0.2248 0.75443 0.0
C1949 C 0.33331 0.17505 0.74941 0.0
C1950 C 0.35761 0.22649 0.7552 0.0
C1951 C 0.37445 0.20285 0.75374 0.0
H1952 H 0.23437 0.97723 0.30925 0.0
H1953 H 0.16428 0.94445 0.26785 0.0
H1954 H 0.19288 0.90496 0.25221 0.0
H1955 H 0.23584 0.87763 0.25491 0.0
H1956 H 0.3042 0.90716 0.3015 0.0
H1957 H 0.2784 0.9504 0.31037 0.0
C1958 C 0.22562 0.96164 0.29636 0.0
C1959 C 0.19745 0.96351 0.28958 0.0
C1960 C 0.24179 0.93846 0.28863 0.0
C1961 C 0.18598 0.94316 0.27331 0.0
C1962 C 0.20228 0.92067 0.26442 0.0
C1963 C 0.24534 0.89375 0.26653 0.0
C1964 C 0.27184 0.88937 0.27752 0.0
C1965 C 0.22995 0.91777 0.27262 0.0
C1966 C 0.28377 0.91019 0.29289 0.0
C1967 C 0.26902 0.9348 0.29801 0.0
H1968 H 0.54656 0.39327 0.41137 0.0
H1969 H 0.52796 0.3458 0.48637 0.0
H1970 H 0.53195 0.38698 0.51463 0.0
H1971 H 0.54078 0.43739 0.51889 0.0
H1972 H 0.55719 0.48519 0.44363 0.0
H1973 H 0.55422 0.44381 0.41548 0.0
C1974 C 0.54322 0.39182 0.43388 0.0
C1975 C 0.53686 0.36577 0.44633 0.0
C1976 C 0.54542 0.41607 0.45038 0.0
C1977 C 0.53275 0.36505 0.47575 0.0
C1978 C 0.53515 0.38883 0.49213 0.0
C1979 C 0.54404 0.43881 0.49635 0.0
C1980 C 0.54968 0.46498 0.48379 0.0
C1981 C 0.54161 0.41458 0.47984 0.0
C1982 C 0.55309 0.4658 0.45431 0.0
C1983 C 0.55129 0.44192 0.43801 0.0
H1984 H 0.46604 0.8137 0.20031 0.0
H1985 H 0.42987 0.76895 0.134 0.0
H1986 H 0.38314 0.7767 0.15558 0.0
H1987 H 0.35298 0.79733 0.19326 0.0
H1988 H 0.39055 0.84598 0.25616 0.0
H1989 H 0.43649 0.8365 0.23521 0.0
C1990 C 0.44798 0.80503 0.19096 0.0
C1991 C 0.45121 0.79002 0.16625 0.0
C1992 C 0.42148 0.81113 0.20232 0.0
C1993 C 0.42769 0.77994 0.15353 0.0
C1994 C 0.40107 0.78474 0.16561 0.0
C1995 C 0.37117 0.80639 0.2019 0.0
C1996 C 0.36842 0.82228 0.22623 0.0
C1997 C 0.39771 0.80073 0.1898 0.0
C1998 C 0.39217 0.83367 0.23743 0.0
C1999 C 0.41847 0.82803 0.22568 0.0
H2000 H 1.00196 0.71441 0.97592 0.0
H2001 H 0.08183 0.71886 0.93245 0.0
H2002 H 0.09386 0.67211 0.94929 0.0
H2003 H 0.0816 0.62893 0.97717 0.0
H2004 H 0.99983 0.62504 0.01708 0.0
H2005 H 0.9891 0.67182 1.00124 0.0
C2006 C 0.02206 0.70529 0.96995 0.0
C2007 C 0.04088 0.72079 0.95278 0.0
C2008 C 0.0287 0.67805 0.9794 0.0
C2009 C 0.06667 0.70789 0.9454 0.0
C2010 C 0.07365 0.68098 0.95522 0.0
C2011 C 0.06151 0.63838 0.98255 0.0
C2012 C 0.04168 0.62299 0.99878 0.0
C2013 C 0.0549 0.6657 0.97242 0.0
C2014 C 0.01563 0.6359 0.00484 0.0
C2015 C 0.00938 0.66288 0.9957 0.0
H2016 H 0.11512 0.31765 0.64305 0.0
H2017 H 0.05241 0.30683 0.70906 0.0
H2018 H 0.08753 0.28714 0.73969 0.0
H2019 H 0.1361 0.27115 0.74714 0.0
H2020 H 0.19827 0.28285 0.68126 0.0
H2021 H 0.16327 0.3035 0.65092 0.0
C2022 C 0.1091 0.31141 0.66426 0.0
C2023 C 0.08109 0.31371 0.67361 0.0
C2024 C 0.12925 0.29964 0.6816 0.0
C2025 C 0.07381 0.30536 0.70122 0.0
C2026 C 0.09385 0.29385 0.71873 0.0
C2027 C 0.14167 0.27789 0.72598 0.0
C2028 C 0.16941 0.27518 0.71609 0.0
C2029 C 0.12153 0.29037 0.70895 0.0
C2030 C 0.17684 0.28458 0.68898 0.0
C2031 C 0.15694 0.29652 0.67179 0.0
H2032 H 0.54438 0.7289 0.1345 0.0
H2033 H 0.58202 0.74965 0.05367 0.0
H2034 H 0.60227 0.7032 0.05027 0.0
H2035 H 0.60761 0.65631 0.06958 0.0
H2036 H 0.5688 0.6355 0.14942 0.0
H2037 H 0.55111 0.68293 0.15442 0.0
C2038 C 0.55679 0.72327 0.11597 0.0
C2039 C 0.56141 0.74259 0.09421 0.0
C2040 C 0.56857 0.69681 0.11432 0.0
C2041 C 0.57797 0.73506 0.07061 0.0
C2042 C 0.58969 0.7086 0.06873 0.0
C2043 C 0.59599 0.66252 0.08838 0.0
C2044 C 0.58974 0.64293 0.10937 0.0
C2045 C 0.58513 0.68937 0.09048 0.0
C2046 C 0.57399 0.65065 0.13332 0.0
C2047 C 0.56369 0.67752 0.13596 0.0
H2048 H 0.11405 0.76846 0.84388 0.0
H2049 H 0.13719 0.82276 0.90923 0.0
H2050 H 0.1851 0.82292 0.8903 0.0
H2051 H 0.22103 0.80821 0.85466 0.0
H2052 H 0.19892 0.75112 0.79138 0.0
H2053 H 0.15079 0.75145 0.80985 0.0
C2054 C 0.12957 0.78028 0.85403 0.0
C2055 C 0.12163 0.79571 0.87803 0.0
C2056 C 0.15761 0.77982 0.84329 0.0
C2057 C 0.14238 0.81064 0.89087 0.0
C2058 C 0.16994 0.8108 0.87996 0.0
C2059 C 0.20572 0.79579 0.8449 0.0
C2060 C 0.21392 0.7798 0.82137 0.0
C2061 C 0.1779 0.79557 0.8561 0.0
C2062 C 0.19355 0.76366 0.8094 0.0
C2063 C 0.16583 0.76387 0.81998 0.0
H2064 H 0.01052 0.40841 0.64733 0.0
H2065 H 0.98248 0.36757 0.57417 0.0
H2066 H 0.98291 0.41073 0.54784 0.0
H2067 H 0.99459 0.4584 0.54421 0.0
H2068 H 0.02737 0.50013 0.61459 0.0
H2069 H 0.02116 0.45843 0.64375 0.0
C2070 C 1.00432 0.40923 0.62572 0.0
C2071 C 0.99672 0.38501 0.61251 0.0
C2072 C 1.00546 0.43412 0.6103 0.0
C2073 C 0.98877 0.386 0.58454 0.0
C2074 C 0.98889 0.41063 0.56952 0.0
C2075 C 1.00027 0.45861 0.56599 0.0
C2076 C 0.01173 0.48218 0.57715 0.0
C2077 C 0.99774 0.43458 0.582 0.0
C2078 C 0.01855 0.48214 0.60552 0.0
C2079 C 0.01518 0.45828 0.6221 0.0
H2080 H 0.43065 0.26627 0.39378 0.0
H2081 H 0.47663 0.32409 0.34227 0.0
H2082 H 0.43861 0.32607 0.30891 0.0
H2083 H 0.39029 0.31257 0.29507 0.0
H2084 H 0.34777 0.25118 0.34572 0.0
H2085 H 0.38582 0.2495 0.3779 0.0
C2086 C 0.43262 0.27916 0.37511 0.0
C2087 C 0.45686 0.29508 0.37093 0.0
C2088 C 0.41084 0.27965 0.35556 0.0
C2089 C 0.45863 0.31141 0.34628 0.0
C2090 C 0.43663 0.31265 0.32716 0.0
C2091 C 0.38946 0.29856 0.31293 0.0
C2092 C 0.36551 0.282 0.31748 0.0
C2093 C 0.41233 0.29704 0.3316 0.0
C2094 C 0.36545 0.26411 0.34105 0.0
C2095 C 0.38738 0.26317 0.35979 0.0
H2096 H 0.40438 0.62073 0.36782 0.0
H2097 H 0.39231 0.53331 0.37171 0.0
H2098 H 0.41955 0.52953 0.41384 0.0
H2099 H 0.45758 0.54866 0.43843 0.0
H2100 H 0.47438 0.63554 0.43117 0.0
H2101 H 0.43518 0.64196 0.40059 0.0
C2102 C 0.40639 0.60121 0.37903 0.0
C2103 C 0.39687 0.57728 0.36695 0.0
C2104 C 0.42435 0.59892 0.40138 0.0
C2105 C 0.39954 0.55193 0.38103 0.0
C2106 C 0.41569 0.54972 0.40462 0.0
C2107 C 0.45238 0.56923 0.43104 0.0
C2108 C 0.46968 0.59138 0.43638 0.0
C2109 C 0.43009 0.5727 0.41331 0.0
C2110 C 0.46223 0.61785 0.42646 0.0
C2111 C 0.43955 0.62163 0.40926 0.0
H2112 H 0.25346 0.73509 0.07105 0.0
H2113 H 0.32044 0.6852 0.10447 0.0
H2114 H 0.30898 0.70261 0.15141 0.0
H2115 H 0.28367 0.73611 0.18117 0.0
H2116 H 0.21963 0.78864 0.14619 0.0
H2117 H 0.22573 0.76542 0.10144 0.0
C2118 C 0.26554 0.72788 0.08859 0.0
C2119 C 0.28822 0.70946 0.08427 0.0
C2120 C 0.25934 0.73844 0.11508 0.0
C2121 C 0.30308 0.69963 0.10729 0.0
C2122 C 0.2966 0.70965 0.13404 0.0
C2123 C 0.27108 0.74251 0.16374 0.0
C2124 C 0.25173 0.76454 0.16671 0.0
C2125 C 0.27542 0.72977 0.1379 0.0
C2126 C 0.23472 0.77184 0.14436 0.0
C2127 C 0.23836 0.75872 0.11875 0.0
H2128 H 0.14547 0.4962 0.88194 0.0
H2129 H 0.07009 0.51972 0.84018 0.0
H2130 H 0.04494 0.52345 0.88521 0.0
H2131 H 0.04552 0.524 0.93624 0.0
H2132 H 0.12164 0.50344 0.97807 0.0
H2133 H 0.14534 0.49412 0.9331 0.0
C2134 C 0.12349 0.5019 0.88275 0.0
C2135 C 0.10967 0.50798 0.85801 0.0
C2136 C 0.10935 0.50452 0.90863 0.0
C2137 C 0.0812 0.51526 0.85914 0.0
C2138 C 0.0668 0.51733 0.8848 0.0
C2139 C 0.06715 0.51701 0.9355 0.0
C2140 C 0.08193 0.51456 0.96019 0.0
C2141 C 0.08082 0.51256 0.90966 0.0
C2142 C 0.10997 0.50566 0.95913 0.0
C2143 C 0.12353 0.50039 0.9335 0.0
H2144 H 0.33192 0.36451 0.60827 0.0
H2145 H 0.24489 0.38571 0.60115 0.0
H2146 H 0.23496 0.3647 0.64754 0.0
H2147 H 0.25102 0.33836 0.69015 0.0
H2148 H 0.33895 0.32169 0.69807 0.0
H2149 H 0.34833 0.34248 0.65188 0.0
C2150 C 0.31075 0.36487 0.61692 0.0
C2151 C 0.28922 0.37685 0.60081 0.0
C2152 C 0.30528 0.35313 0.64395 0.0
C2153 C 0.26201 0.37704 0.61282 0.0
C2154 C 0.2563 0.36473 0.63941 0.0
C2155 C 0.27224 0.33926 0.68175 0.0
C2156 C 0.29424 0.32793 0.6978 0.0
C2157 C 0.27771 0.35236 0.65515 0.0
C2158 C 0.32157 0.32996 0.68649 0.0
C2159 C 0.32698 0.34193 0.65992 0.0
H2160 H 0.44648 0.52868 0.22347 0.0
H2161 H 0.51434 0.57303 0.25651 0.0
H2162 H 0.54255 0.56434 0.21348 0.0
H2163 H 0.54629 0.54628 0.1657 0.0
H2164 H 0.47867 0.50018 0.13391 0.0
H2165 H 0.45202 0.50669 0.17779 0.0
C2166 C 0.46747 0.53641 0.22107 0.0
C2167 C 0.47838 0.55193 0.24238 0.0
C2168 C 0.48352 0.53074 0.19686 0.0
C2169 C 0.50569 0.56135 0.23988 0.0
C2170 C 0.52171 0.55631 0.21546 0.0
C2171 C 0.52588 0.53734 0.16856 0.0
C2172 C 0.51428 0.52303 0.14661 0.0
C2173 C 0.51066 0.54129 0.19371 0.0
C2174 C 0.48801 0.51124 0.15058 0.0
C2175 C 0.47267 0.51516 0.17553 0.0
H2176 H 0.33779 0.66788 0.92086 0.0
H2177 H 0.34869 0.74254 0.96646 0.0
H2178 H 0.34435 0.76992 0.92364 0.0
H2179 H 0.33135 0.77308 0.87472 0.0
H2180 H 0.31846 0.6986 0.82923 0.0
H2181 H 0.32987 0.67085 0.87028 0.0
C2182 C 0.33988 0.69005 0.92116 0.0
C2183 C 0.34319 0.70327 0.9466 0.0
C2184 C 0.33657 0.70579 0.89658 0.0
C2185 C 0.34578 0.73202 0.94698 0.0
C2186 C 0.34323 0.7477 0.92257 0.0
C2187 C 0.33141 0.75078 0.8737 0.0
C2188 C 0.32363 0.73799 0.8492 0.0
C2189 C 0.33759 0.73489 0.89747 0.0
C2190 C 0.32406 0.70904 0.84803 0.0
C2191 C 0.33058 0.69307 0.87149 0.0
H2192 H 0.09704 0.59159 0.72445 0.0
H2193 H 0.14358 0.51817 0.7 0.0
H2194 H 0.1373 0.53 0.65071 0.0
H2195 H 0.11355 0.55794 0.61543 0.0
H2196 H 0.06382 0.62896 0.64051 0.0
H2197 H 0.07748 0.62202 0.68886 0.0
C2198 C 0.10589 0.57816 0.70837 0.0
C2199 C 0.12006 0.55366 0.71579 0.0
C2200 C 0.10186 0.58482 0.6803 0.0
C2201 C 0.13218 0.53694 0.69476 0.0
C2202 C 0.12865 0.54369 0.66663 0.0
C2203 C 0.10592 0.572 0.63149 0.0
C2204 C 0.08716 0.59344 0.6247 0.0
C2205 C 0.11275 0.56709 0.65928 0.0
C2206 C 0.0782 0.61222 0.64532 0.0
C2207 C 0.08572 0.60806 0.67298 0.0
H2208 H 0.28283 0.35002 0.4593 0.0
H2209 H 0.29667 0.43036 0.42271 0.0
H2210 H 0.29389 0.41141 0.37575 0.0
H2211 H 0.2874 0.37179 0.34411 0.0
H2212 H 0.2716 0.29181 0.38086 0.0
H2213 H 0.27501 0.31066 0.42768 0.0
C2214 C 0.28546 0.36341 0.44109 0.0
C2215 C 0.29028 0.39182 0.44507 0.0
C2216 C 0.28319 0.35236 0.41369 0.0
C2217 C 0.2931 0.40856 0.42078 0.0
C2218 C 0.29143 0.39766 0.39369 0.0
C2219 C 0.28441 0.35844 0.3623 0.0
C2220 C 0.279 0.33014 0.35831 0.0
C2221 C 0.28634 0.36958 0.38971 0.0
C2222 C 0.27552 0.31355 0.38267 0.0
C2223 C 0.27763 0.32438 0.40973 0.0
H2224 H 0.39721 0.42818 0.55028 0.0
H2225 H 0.35306 0.48496 0.4968 0.0
H2226 H 0.39226 0.51669 0.49729 0.0
H2227 H 0.44089 0.5277 0.51157 0.0
H2228 H 0.482 0.47188 0.56878 0.0
H2229 H 0.44275 0.44112 0.56823 0.0
C2230 C 0.39594 0.44762 0.53889 0.0
C2231 C 0.37186 0.45383 0.52338 0.0
C2232 C 0.4184 0.46622 0.53992 0.0
C2233 C 0.37094 0.47941 0.50905 0.0
C2234 C 0.39359 0.4976 0.50924 0.0
C2235 C 0.44114 0.50901 0.52425 0.0
C2236 C 0.46496 0.50254 0.5403 0.0
C2237 C 0.41769 0.49121 0.52442 0.0
C2238 C 0.46435 0.47796 0.55641 0.0
C2239 C 0.44176 0.46006 0.556 0.0
H2240 H 0.9005 0.15078 0.52313 0.0
H2241 H 0.8461 0.08258 0.54037 0.0
H2242 H 0.88622 0.0525 0.54914 0.0
H2243 H 0.93663 0.04474 0.54872 0.0
H2244 H 0.99147 0.11271 0.53288 0.0
H2245 H 0.95121 0.14376 0.52645 0.0
C2246 C 0.89742 0.12946 0.52926 0.0
C2247 C 0.8704 0.11887 0.53087 0.0
C2248 C 0.92061 0.11215 0.53398 0.0
C2249 C 0.8667 0.09122 0.53889 0.0
C2250 C 0.88962 0.07394 0.54374 0.0
C2251 C 0.93976 0.06633 0.54369 0.0
C2252 C 0.96686 0.07639 0.54067 0.0
C2253 C 0.91665 0.08402 0.54064 0.0
C2254 C 0.97071 0.10451 0.53494 0.0
C2255 C 0.94774 0.12224 0.53139 0.0
H2256 H 0.71308 0.06964 0.29161 0.0
H2257 H 0.662 0.12313 0.3447 0.0
H2258 H 0.69122 0.16191 0.33109 0.0
H2259 H 0.72724 0.18126 0.30001 0.0
H2260 H 0.777 0.12842 0.24534 0.0
H2261 H 0.75154 0.08844 0.26332 0.0
C2262 C 0.70851 0.08965 0.30066 0.0
C2263 C 0.68515 0.09354 0.31893 0.0
C2264 C 0.72471 0.11194 0.29201 0.0
C2265 C 0.67972 0.11961 0.33046 0.0
C2266 C 0.6963 0.1418 0.32256 0.0
C2267 C 0.73303 0.16096 0.29244 0.0
C2268 C 0.75399 0.15775 0.27135 0.0
C2269 C 0.71824 0.13831 0.30269 0.0
C2270 C 0.7607 0.13137 0.26131 0.0
C2271 C 0.74629 0.10857 0.2717 0.0
H2272 H 0.68549 0.93065 0.01057 0.0
H2273 H 0.72579 0.99043 0.06004 0.0
H2274 H 0.68216 0.01712 0.06489 0.0
H2275 H 0.63199 0.0247 0.05415 0.0
H2276 H 0.59278 0.96611 1.00222 0.0
H2277 H 0.6357 0.93843 0.99944 0.0
C2278 C 0.68473 0.94939 0.02261 0.0
C2279 C 0.70929 0.95817 0.03504 0.0
C2280 C 0.65939 0.96525 0.02482 0.0
C2281 C 0.70754 0.98288 0.0502 0.0
C2282 C 0.68241 0.99831 0.05299 0.0
C2283 C 0.63276 1.00584 0.0423 0.0
C2284 C 0.60867 0.99781 0.02844 0.0
C2285 C 0.65811 0.9899 0.04025 0.0
C2286 C 0.61063 0.97321 0.01307 0.0
C2287 C 0.63536 0.95716 0.01147 0.0
H2288 H 0.4075 0.46515 0.29267 0.0
H2289 H 0.3412 0.52273 0.27245 0.0
H2290 H 0.31497 0.48545 0.25264 0.0
H2291 H 0.31032 0.43585 0.2432 0.0
H2292 H 0.37712 0.37929 0.26382 0.0
H2293 H 0.40421 0.41702 0.28096 0.0
C2294 C 0.38719 0.46956 0.28417 0.0
C2295 C 0.37602 0.49646 0.28445 0.0
C2296 C 0.3726 0.44831 0.27258 0.0
C2297 C 0.35005 0.50203 0.27268 0.0
C2298 C 0.33514 0.4808 0.26127 0.0
C2299 C 0.33105 0.4321 0.25089 0.0
C2300 C 0.34188 0.40511 0.25244 0.0
C2301 C 0.34619 0.45383 0.26124 0.0
C2302 C 0.36855 0.40007 0.2627 0.0
C2303 C 0.38389 0.42152 0.27258 0.0
H2304 H 0.2662 0.6148 0.02003 0.0
H2305 H 0.21727 0.67025 0.96885 0.0
H2306 H 0.17566 0.64378 0.98052 0.0
H2307 H 0.1525 0.60817 0.00938 0.0
H2308 H 0.20131 0.5544 0.0622 0.0
H2309 H 0.24373 0.57745 0.04614 0.0
C2310 C 0.2466 0.62091 0.01091 0.0
C2311 C 0.24492 0.64466 0.99366 0.0
C2312 C 0.22264 0.60626 0.01853 0.0
C2313 C 0.21922 0.65213 0.9822 0.0
C2314 C 0.19536 0.63712 0.98904 0.0
C2315 C 0.17244 0.60116 0.01703 0.0
C2316 C 0.17369 0.57965 0.03712 0.0
C2317 C 0.1967 0.61466 0.00785 0.0
C2318 C 0.19971 0.57116 0.04712 0.0
C2319 C 0.22398 0.58421 0.03778 0.0
H2320 H 0.72695 0.96105 0.29131 0.0
H2321 H 0.64928 0.92573 0.26916 0.0
H2322 H 0.67043 0.87953 0.27176 0.0
H2323 H 0.70974 0.84959 0.28353 0.0
H2324 H 0.78711 0.8847 0.3074 0.0
H2325 H 0.76684 0.93097 0.30194 0.0
C2326 C 0.71491 0.94326 0.28633 0.0
C2327 C 0.68679 0.94654 0.2798 0.0
C2328 C 0.72678 0.9169 0.28917 0.0
C2329 C 0.67109 0.92346 0.274 0.0
C2330 C 0.68304 0.89715 0.27583 0.0
C2331 C 0.72213 0.86732 0.28787 0.0
C2332 C 0.74977 0.86379 0.29614 0.0
C2333 C 0.71059 0.89367 0.28419 0.0
C2334 C 0.76566 0.88696 0.30131 0.0
C2335 C 0.75421 0.91336 0.2979 0.0
H2336 H 0.82491 0.12412 0.74321 0.0
H2337 H 0.9013 0.16928 0.74014 0.0
H2338 H 0.87492 0.21264 0.73752 0.0
H2339 H 0.83055 0.23736 0.74515 0.0
H2340 H 0.7538 0.19314 0.7486 0.0
H2341 H 0.77988 0.14941 0.7424 0.0
C2342 C 0.83575 0.1434 0.7409 0.0
C2343 C 0.86487 0.14371 0.74241 0.0
C2344 C 0.82041 0.16827 0.74055 0.0
C2345 C 0.8788 0.16872 0.73935 0.0
C2346 C 0.86376 0.19348 0.73818 0.0
C2347 C 0.81964 0.21807 0.74441 0.0
C2348 C 0.79065 0.2179 0.7483 0.0
C2349 C 0.83464 0.19345 0.74045 0.0
C2350 C 0.77631 0.19328 0.74627 0.0
C2351 C 0.79116 0.16846 0.7426 0.0
loop_
_geom_bond_atom_site_label_1
_geom_bond_atom_site_label_2
_geom_bond_distance
_geom_bond_site_symmetry_2
_ccdc_geom_bond_type
Co0 O1 2.216 1_455 S
Co0 O2 2.091 1_455 S
Co0 O4 2.004 . S
Co0 O10 2.021 . S
Co0 O12 2.137 . S
Co0 O13 2.244 . S
O1 Co0 2.216 1_655 S
O1 C8 1.247 . S
O2 Co0 2.091 1_655 S
O2 C8 1.261 . S
C3 O12 1.247 . S
C3 O13 1.272 . S
O4 Co0 2.004 . S
O4 C9 1.259 . S
Co5 O6 2.061 . S
Co5 O11 2.052 . S
Co5 O13 2.135 . S
O6 Co5 2.061 . S
O6 C9 1.235 . S
C7 O10 1.238 . S
C7 O11 1.241 . S
C8 O1 1.247 . S
C8 O2 1.261 . S
C9 O4 1.259 . S
C9 O6 1.235 . S
O10 Co0 2.021 . S
O10 C7 1.238 . S
O11 Co5 2.052 . S
O11 C7 1.241 . S
O12 Co0 2.137 . S
O12 C3 1.247 . S
O13 Co0 2.244 . S
O13 C3 1.272 . S
O13 Co5 2.135 . S
Co14 O15 2.216 . S
Co14 O16 2.091 . S
Co14 O18 2.004 . S
Co14 O24 2.021 . S
Co14 O26 2.137 . S
Co14 O27 2.244 . S
O15 Co14 2.216 . S
O15 C22 1.247 . S
O16 Co14 2.091 . S
O16 C22 1.261 . S
C17 O26 1.247 . S
C17 O27 1.272 . S
O18 Co14 2.004 . S
O18 C23 1.259 . S
Co19 O20 2.061 1_455 S
Co19 O25 2.052 . S
Co19 O27 2.135 . S
O20 Co19 2.061 1_655 S
O20 C23 1.235 1_655 S
C21 O24 1.238 . S
C21 O25 1.241 . S
C22 O15 1.247 . S
C22 O16 1.261 . S
C23 O18 1.259 . S
C23 O20 1.235 1_455 S
O24 Co14 2.021 . S
O24 C21 1.238 . S
O25 Co19 2.052 . S
O25 C21 1.241 . S
O26 Co14 2.137 . S
O26 C17 1.247 . S
O27 Co14 2.244 . S
O27 C17 1.272 . S
O27 Co19 2.135 . S
Co28 O29 2.216 . S
Co28 O30 2.091 . S
Co28 O32 2.004 . S
Co28 O38 2.021 . S
Co28 O40 2.137 . S
Co28 O41 2.244 . S
O29 Co28 2.216 . S
O29 C36 1.247 . S
O30 Co28 2.091 . S
O30 C36 1.261 . S
C31 O40 1.247 . S
C31 O41 1.272 . S
O32 Co28 2.004 . S
O32 C37 1.259 . S
Co33 O34 2.061 . S
Co33 O39 2.052 . S
Co33 O41 2.135 . S
O34 Co33 2.061 . S
O34 C37 1.235 . S
C35 O38 1.238 . S
C35 O39 1.241 . S
C36 O29 1.247 . S
C36 O30 1.261 . S
C37 O32 1.259 . S
C37 O34 1.235 . S
O38 Co28 2.021 . S
O38 C35 1.238 . S
O39 Co33 2.052 . S
O39 C35 1.241 . S
O40 Co28 2.137 . S
O40 C31 1.247 . S
O41 Co28 2.244 . S
O41 C31 1.272 . S
O41 Co33 2.135 . S
Co42 O43 2.216 . S
Co42 O44 2.091 . S
Co42 O46 2.004 . S
Co42 O52 2.021 . S
Co42 O54 2.137 . S
Co42 O55 2.244 . S
O43 Co42 2.216 . S
O43 C50 1.247 . S
O44 Co42 2.091 . S
O44 C50 1.261 . S
C45 O54 1.247 . S
C45 O55 1.272 . S
O46 Co42 2.004 . S
O46 C51 1.259 . S
Co47 O48 2.061 . S
Co47 O53 2.052 . S
Co47 O55 2.135 . S
O48 Co47 2.061 . S
O48 C51 1.235 . S
C49 O52 1.238 . S
C49 O53 1.241 . S
C50 O43 1.247 . S
C50 O44 1.261 . S
C51 O46 1.259 . S
C51 O48 1.235 . S
O52 Co42 2.021 . S
O52 C49 1.238 . S
O53 Co47 2.052 . S
O53 C49 1.241 . S
O54 Co42 2.137 . S
O54 C45 1.247 . S
O55 Co42 2.244 . S
O55 C45 1.272 . S
O55 Co47 2.135 . S
Co56 O57 2.216 1_545 S
Co56 O58 2.091 1_545 S
Co56 O60 2.004 . S
Co56 O66 2.021 . S
Co56 O68 2.137 1_545 S
Co56 O69 2.244 . S
O57 Co56 2.216 1_565 S
O57 C64 1.247 . S
O58 Co56 2.091 1_565 S
O58 C64 1.261 . S
C59 O68 1.247 1_545 S
C59 O69 1.272 . S
O60 Co56 2.004 . S
O60 C65 1.259 . S
Co61 O62 2.061 . S
Co61 O67 2.052 . S
Co61 O69 2.135 . S
O62 Co61 2.061 . S
O62 C65 1.235 . S
C63 O66 1.238 . S
C63 O67 1.241 . S
C64 O57 1.247 . S
C64 O58 1.261 . S
C65 O60 1.259 . S
C65 O62 1.235 . S
O66 Co56 2.021 . S
O66 C63 1.238 . S
O67 Co61 2.052 . S
O67 C63 1.241 . S
O68 Co56 2.137 1_565 S
O68 C59 1.247 1_565 S
O69 Co56 2.244 . S
O69 C59 1.272 . S
O69 Co61 2.135 . S
Co70 O71 2.216 . S
Co70 O72 2.091 . S
Co70 O74 2.004 . S
Co70 O80 2.021 . S
Co70 O82 2.137 . S
Co70 O83 2.244 . S
O71 Co70 2.216 . S
O71 C78 1.247 . S
O72 Co70 2.091 . S
O72 C78 1.261 . S
C73 O82 1.247 . S
C73 O83 1.272 . S
O74 Co70 2.004 . S
O74 C79 1.259 . S
Co75 O76 2.061 . S
Co75 O81 2.052 . S
Co75 O83 2.135 . S
O76 Co75 2.061 . S
O76 C79 1.235 . S
C77 O80 1.238 . S
C77 O81 1.241 . S
C78 O71 1.247 . S
C78 O72 1.261 . S
C79 O74 1.259 . S
C79 O76 1.235 . S
O80 Co70 2.021 . S
O80 C77 1.238 . S
O81 Co75 2.052 . S
O81 C77 1.241 . S
O82 Co70 2.137 . S
O82 C73 1.247 . S
O83 Co70 2.244 . S
O83 C73 1.272 . S
O83 Co75 2.135 . S
Co84 O85 2.216 . S
Co84 O86 2.091 . S
Co84 O88 2.004 . S
Co84 O94 2.021 . S
Co84 O96 2.137 . S
Co84 O97 2.244 . S
O85 Co84 2.216 . S
O85 C92 1.247 . S
O86 Co84 2.091 . S
O86 C92 1.261 . S
C87 O96 1.247 . S
C87 O97 1.272 . S
O88 Co84 2.004 . S
O88 C93 1.259 . S
Co89 O90 2.061 . S
Co89 O95 2.052 . S
Co89 O97 2.135 . S
O90 Co89 2.061 . S
O90 C93 1.235 . S
C91 O94 1.238 . S
C91 O95 1.241 . S
C92 O85 1.247 . S
C92 O86 1.261 . S
C93 O88 1.259 . S
C93 O90 1.235 . S
O94 Co84 2.021 . S
O94 C91 1.238 . S
O95 Co89 2.052 . S
O95 C91 1.241 . S
O96 Co84 2.137 . S
O96 C87 1.247 . S
O97 Co84 2.244 . S
O97 C87 1.272 . S
O97 Co89 2.135 . S
Co98 O99 2.216 . S
Co98 O100 2.091 . S
Co98 O102 2.004 . S
Co98 O108 2.021 . S
Co98 O110 2.137 1_554 S
Co98 O111 2.244 . S
O99 Co98 2.216 . S
O99 C106 1.247 . S
O100 Co98 2.091 . S
O100 C106 1.261 . S
C101 O110 1.247 . S
C101 O111 1.272 1_556 S
O102 Co98 2.004 . S
O102 C107 1.259 . S
Co103 O104 2.061 . S
Co103 O109 2.052 . S
Co103 O111 2.135 . S
O104 Co103 2.061 . S
O104 C107 1.235 . S
C105 O108 1.238 . S
C105 O109 1.241 . S
C106 O99 1.247 . S
C106 O100 1.261 . S
C107 O102 1.259 . S
C107 O104 1.235 . S
O108 Co98 2.021 . S
O108 C105 1.238 . S
O109 Co103 2.052 . S
O109 C105 1.241 . S
O110 Co98 2.137 1_556 S
O110 C101 1.247 . S
O111 Co98 2.244 . S
O111 C101 1.272 1_554 S
O111 Co103 2.135 . S
Co112 O113 2.216 . S
Co112 O114 2.091 . S
Co112 O116 2.004 . S
Co112 O122 2.021 . S
Co112 O124 2.137 . S
Co112 O125 2.244 . S
O113 Co112 2.216 . S
O113 C120 1.247 . S
O114 Co112 2.091 . S
O114 C120 1.261 . S
C115 O124 1.247 . S
C115 O125 1.272 . S
O116 Co112 2.004 . S
O116 C121 1.259 . S
Co117 O118 2.061 . S
Co117 O123 2.052 . S
Co117 O125 2.135 . S
O118 Co117 2.061 . S
O118 C121 1.235 . S
C119 O122 1.238 . S
C119 O123 1.241 . S
C120 O113 1.247 . S
C120 O114 1.261 . S
C121 O116 1.259 . S
C121 O118 1.235 . S
O122 Co112 2.021 . S
O122 C119 1.238 . S
O123 Co117 2.052 . S
O123 C119 1.241 . S
O124 Co112 2.137 . S
O124 C115 1.247 . S
O125 Co112 2.244 . S
O125 C115 1.272 . S
O125 Co117 2.135 . S
Co126 O127 2.216 . S
Co126 O128 2.091 . S
Co126 O130 2.004 . S
Co126 O136 2.021 . S
Co126 O138 2.137 . S
Co126 O139 2.244 . S
O127 Co126 2.216 . S
O127 C134 1.247 . S
O128 Co126 2.091 . S
O128 C134 1.261 . S
C129 O138 1.247 . S
C129 O139 1.272 . S
O130 Co126 2.004 . S
O130 C135 1.259 . S
Co131 O132 2.061 . S
Co131 O137 2.052 . S
Co131 O139 2.135 . S
O132 Co131 2.061 . S
O132 C135 1.235 . S
C133 O136 1.238 . S
C133 O137 1.241 . S
C134 O127 1.247 . S
C134 O128 1.261 . S
C135 O130 1.259 . S
C135 O132 1.235 . S
O136 Co126 2.021 . S
O136 C133 1.238 . S
O137 Co131 2.052 . S
O137 C133 1.241 . S
O138 Co126 2.137 . S
O138 C129 1.247 . S
O139 Co126 2.244 . S
O139 C129 1.272 . S
O139 Co131 2.135 . S
Co140 O141 2.216 . S
Co140 O142 2.091 . S
Co140 O144 2.004 . S
Co140 O150 2.021 . S
Co140 O152 2.137 . S
Co140 O153 2.244 . S
O141 Co140 2.216 . S
O141 C148 1.247 . S
O142 Co140 2.091 . S
O142 C148 1.261 . S
C143 O152 1.247 . S
C143 O153 1.272 . S
O144 Co140 2.004 . S
O144 C149 1.259 . S
Co145 O146 2.061 . S
Co145 O151 2.052 . S
Co145 O153 2.135 . S
O146 Co145 2.061 . S
O146 C149 1.235 . S
C147 O150 1.238 . S
C147 O151 1.241 . S
C148 O141 1.247 . S
C148 O142 1.261 . S
C149 O144 1.259 . S
C149 O146 1.235 . S
O150 Co140 2.021 . S
O150 C147 1.238 . S
O151 Co145 2.052 . S
O151 C147 1.241 . S
O152 Co140 2.137 . S
O152 C143 1.247 . S
O153 Co140 2.244 . S
O153 C143 1.272 . S
O153 Co145 2.135 . S
Co154 O155 2.216 . S
Co154 O156 2.091 . S
Co154 O158 2.004 . S
Co154 O164 2.021 . S
Co154 O166 2.137 . S
Co154 O167 2.244 . S
O155 Co154 2.216 . S
O155 C162 1.247 . S
O156 Co154 2.091 . S
O156 C162 1.261 . S
C157 O166 1.247 . S
C157 O167 1.272 . S
O158 Co154 2.004 . S
O158 C163 1.259 . S
Co159 O160 2.061 . S
Co159 O165 2.052 . S
Co159 O167 2.135 . S
O160 Co159 2.061 . S
O160 C163 1.235 . S
C161 O164 1.238 . S
C161 O165 1.241 . S
C162 O155 1.247 . S
C162 O156 1.261 . S
C163 O158 1.259 . S
C163 O160 1.235 . S
O164 Co154 2.021 . S
O164 C161 1.238 . S
O165 Co159 2.052 . S
O165 C161 1.241 . S
O166 Co154 2.137 . S
O166 C157 1.247 . S
O167 Co154 2.244 . S
O167 C157 1.272 . S
O167 Co159 2.135 . S
Co168 O169 2.216 . S
Co168 O170 2.091 . S
Co168 O172 2.004 1_455 S
Co168 O178 2.021 . S
Co168 O180 2.137 . S
Co168 O181 2.244 . S
O169 Co168 2.216 . S
O169 C176 1.247 . S
O170 Co168 2.091 . S
O170 C176 1.261 . S
C171 O180 1.247 . S
C171 O181 1.272 . S
O172 Co168 2.004 1_655 S
O172 C177 1.259 . S
Co173 O174 2.061 . S
Co173 O179 2.052 1_655 S
Co173 O181 2.135 1_655 S
O174 Co173 2.061 . S
O174 C177 1.235 . S
C175 O178 1.238 . S
C175 O179 1.241 . S
C176 O169 1.247 . S
C176 O170 1.261 . S
C177 O172 1.259 . S
C177 O174 1.235 . S
O178 Co168 2.021 . S
O178 C175 1.238 . S
O179 Co173 2.052 1_455 S
O179 C175 1.241 . S
O180 Co168 2.137 . S
O180 C171 1.247 . S
O181 Co168 2.244 . S
O181 C171 1.272 . S
O181 Co173 2.135 1_455 S
Co182 O183 2.216 . S
Co182 O184 2.091 . S
Co182 O186 2.004 1_655 S
Co182 O192 2.021 . S
Co182 O194 2.137 . S
Co182 O195 2.244 1_655 S
O183 Co182 2.216 . S
O183 C190 1.247 . S
O184 Co182 2.091 . S
O184 C190 1.261 . S
C185 O194 1.234 1_455 S
C185 O195 1.283 . S
O186 Co182 2.004 1_455 S
O186 C191 1.259 . S
Co187 O188 2.061 . S
Co187 O193 2.052 . S
Co187 O195 2.135 . S
O188 Co187 2.061 . S
O188 C191 1.235 . S
C189 O192 1.238 1_455 S
C189 O193 1.241 . S
C190 O183 1.247 . S
C190 O184 1.261 . S
C191 O186 1.259 . S
C191 O188 1.235 . S
O192 Co182 2.021 . S
O192 C189 1.238 1_655 S
O193 Co187 2.052 . S
O193 C189 1.241 . S
O194 Co182 2.137 . S
O194 C185 1.234 1_655 S
O195 Co182 2.244 1_455 S
O195 C185 1.283 . S
O195 Co187 2.135 . S
Co196 O197 2.216 . S
Co196 O198 2.091 . S
Co196 O200 2.004 . S
Co196 O206 2.021 . S
Co196 O208 2.137 . S
Co196 O209 2.244 . S
O197 Co196 2.216 . S
O197 C204 1.247 . S
O198 Co196 2.091 . S
O198 C204 1.261 . S
C199 O208 1.247 . S
C199 O209 1.272 . S
O200 Co196 2.004 . S
O200 C205 1.259 . S
Co201 O202 2.061 . S
Co201 O207 2.052 . S
Co201 O209 2.135 . S
O202 Co201 2.061 . S
O202 C205 1.235 . S
C203 O206 1.238 . S
C203 O207 1.241 . S
C204 O197 1.247 . S
C204 O198 1.261 . S
C205 O200 1.259 . S
C205 O202 1.235 . S
O206 Co196 2.021 . S
O206 C203 1.238 . S
O207 Co201 2.052 . S
O207 C203 1.241 . S
O208 Co196 2.137 . S
O208 C199 1.247 . S
O209 Co196 2.244 . S
O209 C199 1.272 . S
O209 Co201 2.135 . S
Co210 O211 2.216 . S
Co210 O212 2.091 . S
Co210 O214 2.004 . S
Co210 O220 2.021 . S
Co210 O222 2.137 . S
Co210 O223 2.244 . S
O211 Co210 2.216 . S
O211 C218 1.247 . S
O212 Co210 2.091 . S
O212 C218 1.261 . S
C213 O222 1.247 . S
C213 O223 1.272 . S
O214 Co210 2.004 . S
O214 C219 1.259 . S
Co215 O216 2.061 . S
Co215 O221 2.052 . S
Co215 O223 2.135 . S
O216 Co215 2.061 . S
O216 C219 1.235 . S
C217 O220 1.238 . S
C217 O221 1.241 . S
C218 O211 1.247 . S
C218 O212 1.261 . S
C219 O214 1.259 . S
C219 O216 1.235 . S
O220 Co210 2.021 . S
O220 C217 1.238 . S
O221 Co215 2.052 . S
O221 C217 1.241 . S
O222 Co210 2.137 . S
O222 C213 1.247 . S
O223 Co210 2.244 . S
O223 C213 1.272 . S
O223 Co215 2.135 . S
Co224 O225 2.216 . S
Co224 O226 2.091 . S
Co224 O228 2.004 . S
Co224 O234 2.021 . S
Co224 O236 2.137 . S
Co224 O237 2.244 . S
O225 Co224 2.216 . S
O225 C232 1.247 . S
O226 Co224 2.091 . S
O226 C232 1.261 . S
C227 O236 1.247 . S
C227 O237 1.272 . S
O228 Co224 2.004 . S
O228 C233 1.259 . S
Co229 O230 2.061 . S
Co229 O235 2.052 . S
Co229 O237 2.135 . S
O230 Co229 2.061 . S
O230 C233 1.235 . S
C231 O234 1.238 . S
C231 O235 1.241 . S
C232 O225 1.247 . S
C232 O226 1.261 . S
C233 O228 1.259 . S
C233 O230 1.235 . S
O234 Co224 2.021 . S
O234 C231 1.238 . S
O235 Co229 2.052 . S
O235 C231 1.241 . S
O236 Co224 2.137 . S
O236 C227 1.247 . S
O237 Co224 2.244 . S
O237 C227 1.272 . S
O237 Co229 2.135 . S
Co238 O239 2.216 . S
Co238 O240 2.091 . S
Co238 O242 2.004 . S
Co238 O248 2.021 . S
Co238 O250 2.137 . S
Co238 O251 2.244 . S
O239 Co238 2.216 . S
O239 C246 1.247 . S
O240 Co238 2.091 . S
O240 C246 1.261 . S
C241 O250 1.247 . S
C241 O251 1.272 . S
O242 Co238 2.004 . S
O242 C247 1.259 . S
Co243 O244 2.061 . S
Co243 O249 2.052 . S
Co243 O251 2.135 . S
O244 Co243 2.061 . S
O244 C247 1.235 . S
C245 O248 1.238 . S
C245 O249 1.241 . S
C246 O239 1.247 . S
C246 O240 1.261 . S
C247 O242 1.259 . S
C247 O244 1.235 . S
O248 Co238 2.021 . S
O248 C245 1.238 . S
O249 Co243 2.052 . S
O249 C245 1.241 . S
O250 Co238 2.137 . S
O250 C241 1.247 . S
O251 Co238 2.244 . S
O251 C241 1.272 . S
O251 Co243 2.135 . S
Co252 O253 2.216 1_545 S
Co252 O254 2.091 1_545 S
Co252 O256 2.004 . S
Co252 O262 2.021 . S
Co252 O264 2.137 1_545 S
Co252 O265 2.244 . S
O253 Co252 2.216 1_565 S
O253 C260 1.247 . S
O254 Co252 2.091 1_565 S
O254 C260 1.261 . S
C255 O264 1.247 1_545 S
C255 O265 1.272 . S
O256 Co252 2.004 . S
O256 C261 1.259 . S
Co257 O258 2.061 . S
Co257 O263 2.052 . S
Co257 O265 2.135 . S
O258 Co257 2.061 . S
O258 C261 1.235 . S
C259 O262 1.238 . S
C259 O263 1.241 . S
C260 O253 1.247 . S
C260 O254 1.261 . S
C261 O256 1.259 . S
C261 O258 1.235 . S
O262 Co252 2.021 . S
O262 C259 1.238 . S
O263 Co257 2.052 . S
O263 C259 1.241 . S
O264 Co252 2.137 1_565 S
O264 C255 1.247 1_565 S
O265 Co252 2.244 . S
O265 C255 1.272 . S
O265 Co257 2.135 . S
Co266 O267 2.216 . S
Co266 O268 2.091 . S
Co266 O270 2.004 . S
Co266 O276 2.021 . S
Co266 O278 2.137 1_554 S
Co266 O279 2.244 . S
O267 Co266 2.216 . S
O267 C274 1.247 . S
O268 Co266 2.091 . S
O268 C274 1.261 . S
C269 O278 1.247 . S
C269 O279 1.272 1_556 S
O270 Co266 2.004 . S
O270 C275 1.259 . S
Co271 O272 2.061 . S
Co271 O277 2.052 . S
Co271 O279 2.135 . S
O272 Co271 2.061 . S
O272 C275 1.235 . S
C273 O276 1.238 . S
C273 O277 1.241 . S
C274 O267 1.247 . S
C274 O268 1.261 . S
C275 O270 1.259 . S
C275 O272 1.235 . S
O276 Co266 2.021 . S
O276 C273 1.238 . S
O277 Co271 2.052 . S
O277 C273 1.241 . S
O278 Co266 2.137 1_556 S
O278 C269 1.247 . S
O279 Co266 2.244 . S
O279 C269 1.272 1_554 S
O279 Co271 2.135 . S
Co280 O281 2.216 . S
Co280 O282 2.091 1_556 S
Co280 O284 2.004 . S
Co280 O290 2.021 1_556 S
Co280 O292 2.137 . S
Co280 O293 2.244 . S
O281 Co280 2.216 . S
O281 C288 1.250 . S
O282 Co280 2.091 1_554 S
O282 C288 1.262 1_554 S
C283 O292 1.247 . S
C283 O293 1.272 . S
O284 Co280 2.004 . S
O284 C289 1.259 . S
Co285 O286 2.061 1_556 S
Co285 O291 2.047 1_556 S
Co285 O293 2.138 . S
O286 Co285 2.061 1_554 S
O286 C289 1.235 1_554 S
C287 O290 1.238 . S
C287 O291 1.241 . S
C288 O281 1.250 . S
C288 O282 1.262 1_556 S
C289 O284 1.259 . S
C289 O286 1.235 1_556 S
O290 Co280 2.021 1_554 S
O290 C287 1.238 . S
O291 Co285 2.047 1_554 S
O291 C287 1.241 . S
O292 Co280 2.137 . S
O292 C283 1.247 . S
O293 Co280 2.244 . S
O293 C283 1.272 . S
O293 Co285 2.138 . S
Co294 O295 2.216 . S
Co294 O296 2.091 . S
Co294 O298 2.004 . S
Co294 O304 2.021 . S
Co294 O306 2.137 . S
Co294 O307 2.244 . S
O295 Co294 2.216 . S
O295 C302 1.247 . S
O296 Co294 2.091 . S
O296 C302 1.261 . S
C297 O306 1.247 . S
C297 O307 1.272 . S
O298 Co294 2.004 . S
O298 C303 1.259 . S
Co299 O300 2.061 . S
Co299 O305 2.052 . S
Co299 O307 2.135 . S
O300 Co299 2.061 . S
O300 C303 1.235 . S
C301 O304 1.238 . S
C301 O305 1.241 . S
C302 O295 1.247 . S
C302 O296 1.261 . S
C303 O298 1.259 . S
C303 O300 1.235 . S
O304 Co294 2.021 . S
O304 C301 1.238 . S
O305 Co299 2.052 . S
O305 C301 1.241 . S
O306 Co294 2.137 . S
O306 C297 1.247 . S
O307 Co294 2.244 . S
O307 C297 1.272 . S
O307 Co299 2.135 . S
Co308 O309 2.216 . S
Co308 O310 2.091 . S
Co308 O312 2.004 . S
Co308 O318 2.021 . S
Co308 O320 2.137 . S
Co308 O321 2.244 . S
O309 Co308 2.216 . S
O309 C316 1.247 . S
O310 Co308 2.091 . S
O310 C316 1.261 . S
C311 O320 1.247 . S
C311 O321 1.272 . S
O312 Co308 2.004 . S
O312 C317 1.259 . S
Co313 O314 2.061 . S
Co313 O319 2.052 . S
Co313 O321 2.135 . S
O314 Co313 2.061 . S
O314 C317 1.235 . S
C315 O318 1.238 . S
C315 O319 1.241 . S
C316 O309 1.247 . S
C316 O310 1.261 . S
C317 O312 1.259 . S
C317 O314 1.235 . S
O318 Co308 2.021 . S
O318 C315 1.238 . S
O319 Co313 2.052 . S
O319 C315 1.241 . S
O320 Co308 2.137 . S
O320 C311 1.247 . S
O321 Co308 2.244 . S
O321 C311 1.272 . S
O321 Co313 2.135 . S
Co322 O323 2.216 . S
Co322 O324 2.091 . S
Co322 O326 2.004 . S
Co322 O332 2.021 . S
Co322 O334 2.137 . S
Co322 O335 2.244 . S
O323 Co322 2.216 . S
O323 C330 1.247 . S
O324 Co322 2.091 . S
O324 C330 1.261 . S
C325 O334 1.247 . S
C325 O335 1.272 . S
O326 Co322 2.004 . S
O326 C331 1.259 . S
Co327 O328 2.061 . S
Co327 O333 2.052 . S
Co327 O335 2.135 . S
O328 Co327 2.061 . S
O328 C331 1.235 . S
C329 O332 1.238 . S
C329 O333 1.241 . S
C330 O323 1.247 . S
C330 O324 1.261 . S
C331 O326 1.259 . S
C331 O328 1.235 . S
O332 Co322 2.021 . S
O332 C329 1.238 . S
O333 Co327 2.052 . S
O333 C329 1.241 . S
O334 Co322 2.137 . S
O334 C325 1.247 . S
O335 Co322 2.244 . S
O335 C325 1.272 . S
O335 Co327 2.135 . S
Co336 N341 2.057 1_554 S
Co336 O353 2.021 1_554 S
Co336 O356 2.062 1_455 S
Co336 O360 2.117 . S
Co336 O361 2.019 . S
C337 O357 1.259 . S
C337 O360 1.258 . S
Co338 N347 2.057 . S
Co338 O354 2.117 1_545 S
Co338 O355 2.020 1_455 S
Co338 O357 2.021 . S
Co338 O362 2.062 . S
C339 N341 1.313 1_655 S
C339 N342 1.352 . S
C339 H344 0.929 1_655 S
C340 N341 1.375 1_655 S
C340 C343 1.350 . S
C340 H345 0.936 . S
N341 Co336 2.057 1_556 S
N341 C339 1.313 1_455 S
N341 C340 1.375 1_455 S
N342 C339 1.352 . S
N342 C343 1.373 . S
C343 C340 1.350 . S
C343 N342 1.373 . S
C343 H364 0.931 . S
H344 C339 0.929 1_455 S
H345 C340 0.936 . S
C346 O353 1.259 1_564 S
C346 O354 1.258 . S
N347 Co338 2.057 . S
N347 C348 1.316 . S
N347 C349 1.375 1_545 S
C348 N347 1.316 . S
C348 N350 1.345 . S
C348 H359 0.931 . S
C349 N347 1.375 1_565 S
C349 C351 1.350 . S
C349 H358 0.930 . S
N350 C348 1.345 . S
N350 C351 1.376 1_545 S
C351 C349 1.350 . S
C351 N350 1.376 1_565 S
C351 H365 0.931 . S
C352 O355 1.256 . S
C352 O356 1.255 . S
O353 Co336 2.021 1_556 S
O353 C346 1.259 1_546 S
O354 Co338 2.117 1_565 S
O354 C346 1.258 . S
O355 Co338 2.020 1_655 S
O355 C352 1.256 . S
O356 Co336 2.062 1_655 S
O356 C352 1.255 . S
O357 C337 1.259 . S
O357 Co338 2.021 . S
H358 C349 0.930 . S
H359 C348 0.931 . S
O360 Co336 2.117 . S
O360 C337 1.258 . S
O361 Co336 2.019 . S
O361 C363 1.283 . S
O362 Co338 2.062 . S
O362 C363 1.255 . S
C363 O361 1.283 . S
C363 O362 1.255 . S
H364 C343 0.931 . S
H365 C351 0.931 . S
Co366 N371 2.057 . S
Co366 O383 2.021 . S
Co366 O386 2.062 . S
Co366 O390 2.117 . S
Co366 O391 2.020 . S
C367 O387 1.259 . S
C367 O390 1.258 . S
Co368 N377 2.057 . S
Co368 O384 2.117 . S
Co368 O385 2.020 . S
Co368 O387 2.021 . S
Co368 O392 2.062 . S
C369 N371 1.316 . S
C369 N372 1.347 . S
C369 H374 0.931 . S
C370 N371 1.375 . S
C370 C373 1.350 . S
C370 H375 0.930 . S
N371 Co366 2.057 . S
N371 C369 1.316 . S
N371 C370 1.375 . S
N372 C369 1.347 . S
N372 C373 1.373 . S
C373 C370 1.350 . S
C373 N372 1.373 . S
C373 H394 0.931 . S
H374 C369 0.931 . S
H375 C370 0.930 . S
C376 O383 1.259 . S
C376 O384 1.258 . S
N377 Co368 2.057 . S
N377 C378 1.316 . S
N377 C379 1.375 . S
C378 N377 1.316 . S
C378 N380 1.347 . S
C378 H389 0.931 . S
C379 N377 1.375 . S
C379 C381 1.350 . S
C379 H388 0.930 . S
N380 C378 1.347 . S
N380 C381 1.373 . S
C381 C379 1.350 . S
C381 N380 1.373 . S
C381 H395 0.931 . S
C382 O385 1.256 . S
C382 O386 1.255 . S
O383 Co366 2.021 . S
O383 C376 1.259 . S
O384 Co368 2.117 . S
O384 C376 1.258 . S
O385 Co368 2.020 . S
O385 C382 1.256 . S
O386 Co366 2.062 . S
O386 C382 1.255 . S
O387 C367 1.259 . S
O387 Co368 2.021 . S
H388 C379 0.930 . S
H389 C378 0.931 . S
O390 Co366 2.117 . S
O390 C367 1.258 . S
O391 Co366 2.020 . S
O391 C393 1.256 . S
O392 Co368 2.062 . S
O392 C393 1.255 . S
C393 O391 1.256 . S
C393 O392 1.255 . S
H394 C373 0.931 . S
H395 C381 0.931 . S
Co396 N401 2.057 . S
Co396 O413 2.021 1_545 S
Co396 O416 2.062 . S
Co396 O420 2.117 . S
Co396 O421 2.020 . S
C397 O417 1.259 . S
C397 O420 1.258 . S
Co398 N407 2.057 . S
Co398 O414 2.117 . S
Co398 O415 2.020 . S
Co398 O417 2.021 . S
Co398 O422 2.062 . S
C399 N401 1.316 1_565 S
C399 N402 1.347 1_565 S
C399 H404 0.931 . S
C400 N401 1.375 . S
C400 C403 1.350 . S
C400 H405 0.930 . S
N401 Co396 2.057 . S
N401 C399 1.316 1_545 S
N401 C400 1.375 . S
N402 C399 1.347 1_545 S
N402 C403 1.373 . S
C403 C400 1.350 . S
C403 N402 1.373 . S
C403 H424 0.931 . S
H404 C399 0.931 . S
H405 C400 0.930 . S
C406 O413 1.259 . S
C406 O414 1.258 1_565 S
N407 Co398 2.057 . S
N407 C408 1.316 . S
N407 C409 1.375 . S
C408 N407 1.316 . S
C408 N410 1.347 . S
C408 H419 0.931 . S
C409 N407 1.375 . S
C409 C411 1.350 . S
C409 H418 0.930 . S
N410 C408 1.347 . S
N410 C411 1.373 . S
C411 C409 1.350 . S
C411 N410 1.373 . S
C411 H425 0.931 . S
C412 O415 1.256 . S
C412 O416 1.255 . S
O413 Co396 2.021 1_565 S
O413 C406 1.259 . S
O414 Co398 2.117 . S
O414 C406 1.258 1_545 S
O415 Co398 2.020 . S
O415 C412 1.256 . S
O416 Co396 2.062 . S
O416 C412 1.255 . S
O417 C397 1.259 . S
O417 Co398 2.021 . S
H418 C409 0.930 . S
H419 C408 0.931 . S
O420 Co396 2.117 . S
O420 C397 1.258 . S
O421 Co396 2.020 . S
O421 C423 1.256 . S
O422 Co398 2.062 . S
O422 C423 1.255 . S
C423 O421 1.256 . S
C423 O422 1.255 . S
H424 C403 0.931 . S
H425 C411 0.931 . S
Co426 N431 2.057 . S
Co426 O443 2.021 . S
Co426 O446 2.062 . S
Co426 O450 2.117 . S
Co426 O451 2.020 . S
C427 O447 1.259 . S
C427 O450 1.258 . S
Co428 N437 2.057 . S
Co428 O444 2.117 . S
Co428 O445 2.020 . S
Co428 O447 2.021 . S
Co428 O452 2.062 . S
C429 N431 1.316 . S
C429 N432 1.347 . S
C429 H434 0.931 . S
C430 N431 1.375 . S
C430 C433 1.350 . S
C430 H435 0.930 . S
N431 Co426 2.057 . S
N431 C429 1.316 . S
N431 C430 1.375 . S
N432 C429 1.347 . S
N432 C433 1.373 . S
C433 C430 1.350 . S
C433 N432 1.373 . S
C433 H454 0.931 . S
H434 C429 0.931 . S
H435 C430 0.930 . S
C436 O443 1.259 . S
C436 O444 1.258 . S
N437 Co428 2.057 . S
N437 C438 1.316 . S
N437 C439 1.375 . S
C438 N437 1.316 . S
C438 N440 1.347 . S
C438 H449 0.931 . S
C439 N437 1.375 . S
C439 C441 1.350 . S
C439 H448 0.930 . S
N440 C438 1.347 . S
N440 C441 1.373 . S
C441 C439 1.350 . S
C441 N440 1.373 . S
C441 H455 0.931 . S
C442 O445 1.256 . S
C442 O446 1.255 . S
O443 Co426 2.021 . S
O443 C436 1.259 . S
O444 Co428 2.117 . S
O444 C436 1.258 . S
O445 Co428 2.020 . S
O445 C442 1.256 . S
O446 Co426 2.062 . S
O446 C442 1.255 . S
O447 C427 1.259 . S
O447 Co428 2.021 . S
H448 C439 0.930 . S
H449 C438 0.931 . S
O450 Co426 2.117 . S
O450 C427 1.258 . S
O451 Co426 2.020 . S
O451 C453 1.256 . S
O452 Co428 2.062 . S
O452 C453 1.255 . S
C453 O451 1.256 . S
C453 O452 1.255 . S
H454 C433 0.931 . S
H455 C441 0.931 . S
Co456 N461 2.057 1_545 S
Co456 O473 2.021 . S
Co456 O476 2.062 1_545 S
Co456 O480 2.117 . S
Co456 O481 2.020 1_455 S
C457 O477 1.259 . S
C457 O480 1.258 . S
Co458 N467 2.057 . S
Co458 O474 2.117 . S
Co458 O475 2.020 . S
Co458 O477 2.021 . S
Co458 O482 2.062 1_455 S
C459 N461 1.316 . S
C459 N462 1.347 . S
C459 H464 0.931 . S
C460 N461 1.375 1_655 S
C460 C463 1.350 . S
C460 H465 0.930 . S
N461 Co456 2.057 1_565 S
N461 C459 1.316 . S
N461 C460 1.375 1_455 S
N462 C459 1.347 . S
N462 C463 1.373 1_455 S
C463 C460 1.350 . S
C463 N462 1.373 1_655 S
C463 H484 0.931 . S
H464 C459 0.931 . S
H465 C460 0.930 . S
C466 O473 1.259 . S
C466 O474 1.258 . S
N467 Co458 2.057 . S
N467 C468 1.316 . S
N467 C469 1.375 . S
C468 N467 1.316 . S
C468 N470 1.347 . S
C468 H479 0.931 . S
C469 N467 1.375 . S
C469 C471 1.350 . S
C469 H478 0.930 . S
N470 C468 1.347 . S
N470 C471 1.373 . S
C471 C469 1.350 . S
C471 N470 1.373 . S
C471 H485 0.931 . S
C472 O475 1.256 . S
C472 O476 1.255 1_545 S
O473 Co456 2.021 . S
O473 C466 1.259 . S
O474 Co458 2.117 . S
O474 C466 1.258 . S
O475 Co458 2.020 . S
O475 C472 1.256 . S
O476 Co456 2.062 1_565 S
O476 C472 1.255 1_565 S
O477 C457 1.259 . S
O477 Co458 2.021 . S
H478 C469 0.930 . S
H479 C468 0.931 . S
O480 Co456 2.117 . S
O480 C457 1.258 . S
O481 Co456 2.020 1_655 S
O481 C483 1.256 . S
O482 Co458 2.062 1_655 S
O482 C483 1.255 . S
C483 O481 1.256 . S
C483 O482 1.255 . S
H484 C463 0.931 . S
H485 C471 0.931 . S
Co486 N491 2.057 . S
Co486 O503 2.021 . S
Co486 O506 2.062 . S
Co486 O510 2.117 . S
Co486 O511 2.020 . S
C487 O507 1.259 . S
C487 O510 1.258 . S
Co488 N497 2.057 . S
Co488 O504 2.117 . S
Co488 O505 2.020 . S
Co488 O507 2.021 . S
Co488 O512 2.062 . S
C489 N491 1.316 . S
C489 N492 1.347 . S
C489 H494 0.931 . S
C490 N491 1.375 . S
C490 C493 1.350 . S
C490 H495 0.930 . S
N491 Co486 2.057 . S
N491 C489 1.316 . S
N491 C490 1.375 . S
N492 C489 1.347 . S
N492 C493 1.373 . S
C493 C490 1.350 . S
C493 N492 1.373 . S
C493 H514 0.931 . S
H494 C489 0.931 . S
H495 C490 0.930 . S
C496 O503 1.259 . S
C496 O504 1.258 . S
N497 Co488 2.057 . S
N497 C498 1.316 . S
N497 C499 1.375 . S
C498 N497 1.316 . S
C498 N500 1.347 . S
C498 H509 0.931 . S
C499 N497 1.375 . S
C499 C501 1.350 . S
C499 H508 0.930 . S
N500 C498 1.347 . S
N500 C501 1.373 . S
C501 C499 1.350 . S
C501 N500 1.373 . S
C501 H515 0.931 . S
C502 O505 1.256 . S
C502 O506 1.255 . S
O503 Co486 2.021 . S
O503 C496 1.259 . S
O504 Co488 2.117 . S
O504 C496 1.258 . S
O505 Co488 2.020 . S
O505 C502 1.256 . S
O506 Co486 2.062 . S
O506 C502 1.255 . S
O507 C487 1.259 . S
O507 Co488 2.021 . S
H508 C499 0.930 . S
H509 C498 0.931 . S
O510 Co486 2.117 . S
O510 C487 1.258 . S
O511 Co486 2.020 . S
O511 C513 1.256 . S
O512 Co488 2.062 . S
O512 C513 1.255 . S
C513 O511 1.256 . S
C513 O512 1.255 . S
H514 C493 0.931 . S
H515 C501 0.931 . S
Co516 N521 2.057 1_554 S
Co516 O533 2.021 . S
Co516 O536 2.062 1_554 S
Co516 O540 2.117 . S
Co516 O541 2.020 1_545 S
C517 O537 1.259 . S
C517 O540 1.258 . S
Co518 N527 2.057 . S
Co518 O534 2.117 . S
Co518 O535 2.020 . S
Co518 O537 2.021 . S
Co518 O542 2.062 . S
C519 N521 1.316 . S
C519 N522 1.347 . S
C519 H524 0.931 . S
C520 N521 1.375 . S
C520 C523 1.350 . S
C520 H525 0.930 1_545 S
N521 Co516 2.057 1_556 S
N521 C519 1.316 . S
N521 C520 1.375 . S
N522 C519 1.347 . S
N522 C523 1.373 . S
C523 C520 1.350 . S
C523 N522 1.373 . S
C523 H544 0.931 1_545 S
H524 C519 0.931 . S
H525 C520 0.930 1_565 S
C526 O533 1.259 . S
C526 O534 1.258 . S
N527 Co518 2.057 . S
N527 C528 1.316 . S
N527 C529 1.375 . S
C528 N527 1.316 . S
C528 N530 1.347 . S
C528 H539 0.931 . S
C529 N527 1.375 . S
C529 C531 1.350 . S
C529 H538 0.930 . S
N530 C528 1.347 . S
N530 C531 1.373 . S
C531 C529 1.350 . S
C531 N530 1.373 . S
C531 H545 0.931 . S
C532 O535 1.256 . S
C532 O536 1.255 1_554 S
O533 Co516 2.021 . S
O533 C526 1.259 . S
O534 Co518 2.117 . S
O534 C526 1.258 . S
O535 Co518 2.020 . S
O535 C532 1.256 . S
O536 Co516 2.062 1_556 S
O536 C532 1.255 1_556 S
O537 C517 1.259 . S
O537 Co518 2.021 . S
H538 C529 0.930 . S
H539 C528 0.931 . S
O540 Co516 2.117 . S
O540 C517 1.258 . S
O541 Co516 2.020 1_565 S
O541 C543 1.256 . S
O542 Co518 2.062 . S
O542 C543 1.255 1_545 S
C543 O541 1.256 . S
C543 O542 1.255 1_565 S
H544 C523 0.931 1_565 S
H545 C531 0.931 . S
Co546 N551 2.057 . S
Co546 O563 2.021 . S
Co546 O566 2.062 . S
Co546 O570 2.117 . S
Co546 O571 2.020 . S
C547 O567 1.259 . S
C547 O570 1.258 . S
Co548 N557 2.057 . S
Co548 O564 2.117 . S
Co548 O565 2.020 . S
Co548 O567 2.021 . S
Co548 O572 2.062 . S
C549 N551 1.316 . S
C549 N552 1.347 . S
C549 H554 0.931 . S
C550 N551 1.375 . S
C550 C553 1.350 . S
C550 H555 0.930 . S
N551 Co546 2.057 . S
N551 C549 1.316 . S
N551 C550 1.375 . S
N552 C549 1.347 . S
N552 C553 1.373 . S
C553 C550 1.350 . S
C553 N552 1.373 . S
C553 H574 0.931 . S
H554 C549 0.931 . S
H555 C550 0.930 . S
C556 O563 1.259 . S
C556 O564 1.258 . S
N557 Co548 2.057 . S
N557 C558 1.316 . S
N557 C559 1.375 . S
C558 N557 1.316 . S
C558 N560 1.347 . S
C558 H569 0.931 . S
C559 N557 1.375 . S
C559 C561 1.350 . S
C559 H568 0.930 . S
N560 C558 1.347 . S
N560 C561 1.373 . S
C561 C559 1.350 . S
C561 N560 1.373 . S
C561 H575 0.931 . S
C562 O565 1.256 . S
C562 O566 1.255 . S
O563 Co546 2.021 . S
O563 C556 1.259 . S
O564 Co548 2.117 . S
O564 C556 1.258 . S
O565 Co548 2.020 . S
O565 C562 1.256 . S
O566 Co546 2.062 . S
O566 C562 1.255 . S
O567 C547 1.259 . S
O567 Co548 2.021 . S
H568 C559 0.930 . S
H569 C558 0.931 . S
O570 Co546 2.117 . S
O570 C547 1.258 . S
O571 Co546 2.020 . S
O571 C573 1.256 . S
O572 Co548 2.062 . S
O572 C573 1.255 . S
C573 O571 1.256 . S
C573 O572 1.255 . S
H574 C553 0.931 . S
H575 C561 0.931 . S
Co576 N581 2.057 . S
Co576 O593 2.021 1_554 S
Co576 O596 2.062 . S
Co576 O600 2.117 . S
Co576 O601 2.020 . S
C577 O597 1.259 . S
C577 O600 1.258 . S
Co578 N587 2.057 . S
Co578 O594 2.129 . S
Co578 O595 2.020 . S
Co578 O597 2.021 . S
Co578 O602 2.062 . S
C579 N581 1.316 1_556 S
C579 N582 1.347 1_556 S
C579 H584 0.931 . S
C580 N581 1.375 . S
C580 C583 1.350 . S
C580 H585 0.930 . S
N581 Co576 2.057 . S
N581 C579 1.316 1_554 S
N581 C580 1.375 . S
N582 C579 1.347 1_554 S
N582 C583 1.373 . S
C583 C580 1.350 . S
C583 N582 1.373 . S
C583 H604 0.931 . S
H584 C579 0.931 . S
H585 C580 0.930 . S
C586 O593 1.259 . S
C586 O594 1.248 1_556 S
N587 Co578 2.057 . S
N587 C588 1.316 . S
N587 C589 1.375 . S
C588 N587 1.316 . S
C588 N590 1.347 . S
C588 H599 0.931 . S
C589 N587 1.375 . S
C589 C591 1.350 . S
C589 H598 0.930 . S
N590 C588 1.347 . S
N590 C591 1.373 . S
C591 C589 1.350 . S
C591 N590 1.373 . S
C591 H605 0.931 . S
C592 O595 1.256 . S
C592 O596 1.255 . S
O593 Co576 2.021 1_556 S
O593 C586 1.259 . S
O594 Co578 2.129 . S
O594 C586 1.248 1_554 S
O595 Co578 2.020 . S
O595 C592 1.256 . S
O596 Co576 2.062 . S
O596 C592 1.255 . S
O597 C577 1.259 . S
O597 Co578 2.021 . S
H598 C589 0.930 . S
H599 C588 0.931 . S
O600 Co576 2.117 . S
O600 C577 1.258 . S
O601 Co576 2.020 . S
O601 C603 1.256 . S
O602 Co578 2.062 . S
O602 C603 1.255 . S
C603 O601 1.256 . S
C603 O602 1.255 . S
H604 C583 0.931 . S
H605 C591 0.931 . S
Co606 N611 2.057 . S
Co606 O623 2.021 . S
Co606 O626 2.062 . S
Co606 O630 2.117 . S
Co606 O631 2.020 . S
C607 O627 1.259 . S
C607 O630 1.258 . S
Co608 N617 2.057 . S
Co608 O624 2.117 . S
Co608 O625 2.020 . S
Co608 O627 2.021 . S
Co608 O632 2.062 . S
C609 N611 1.316 . S
C609 N612 1.347 . S
C609 H614 0.931 . S
C610 N611 1.375 . S
C610 C613 1.350 . S
C610 H615 0.930 . S
N611 Co606 2.057 . S
N611 C609 1.316 . S
N611 C610 1.375 . S
N612 C609 1.347 . S
N612 C613 1.373 . S
C613 C610 1.350 . S
C613 N612 1.373 . S
C613 H634 0.931 . S
H614 C609 0.931 . S
H615 C610 0.930 . S
C616 O623 1.259 . S
C616 O624 1.258 . S
N617 Co608 2.057 . S
N617 C618 1.316 . S
N617 C619 1.375 . S
C618 N617 1.316 . S
C618 N620 1.347 . S
C618 H629 0.931 . S
C619 N617 1.375 . S
C619 C621 1.350 . S
C619 H628 0.930 . S
N620 C618 1.347 . S
N620 C621 1.373 . S
C621 C619 1.350 . S
C621 N620 1.373 . S
C621 H635 0.931 . S
C622 O625 1.256 . S
C622 O626 1.255 . S
O623 Co606 2.021 . S
O623 C616 1.259 . S
O624 Co608 2.117 . S
O624 C616 1.258 . S
O625 Co608 2.020 . S
O625 C622 1.256 . S
O626 Co606 2.062 . S
O626 C622 1.255 . S
O627 C607 1.259 . S
O627 Co608 2.021 . S
H628 C619 0.930 . S
H629 C618 0.931 . S
O630 Co606 2.117 . S
O630 C607 1.258 . S
O631 Co606 2.020 . S
O631 C633 1.256 . S
O632 Co608 2.062 . S
O632 C633 1.255 . S
C633 O631 1.256 . S
C633 O632 1.255 . S
H634 C613 0.931 . S
H635 C621 0.931 . S
Co636 N641 2.057 . S
Co636 O653 2.021 1_455 S
Co636 O656 2.062 . S
Co636 O660 2.117 . S
Co636 O661 2.020 . S
C637 O657 1.259 . S
C637 O660 1.258 . S
Co638 N647 2.057 . S
Co638 O654 2.117 1_455 S
Co638 O655 2.020 . S
Co638 O657 2.021 . S
Co638 O662 2.062 . S
C639 N641 1.316 1_655 S
C639 N642 1.347 . S
C639 H644 0.931 . S
C640 N641 1.375 . S
C640 C643 1.350 . S
C640 H645 0.930 . S
N641 Co636 2.057 . S
N641 C639 1.316 1_455 S
N641 C640 1.375 . S
N642 C639 1.347 . S
N642 C643 1.373 1_655 S
C643 C640 1.350 . S
C643 N642 1.373 1_455 S
C643 H664 0.931 . S
H644 C639 0.931 . S
H645 C640 0.930 . S
C646 O653 1.259 . S
C646 O654 1.258 . S
N647 Co638 2.057 . S
N647 C648 1.316 . S
N647 C649 1.375 . S
C648 N647 1.316 . S
C648 N650 1.347 . S
C648 H659 0.931 . S
C649 N647 1.375 . S
C649 C651 1.350 . S
C649 H658 0.930 . S
N650 C648 1.347 . S
N650 C651 1.373 . S
C651 C649 1.350 . S
C651 N650 1.373 . S
C651 H665 0.931 . S
C652 O655 1.256 . S
C652 O656 1.255 . S
O653 Co636 2.021 1_655 S
O653 C646 1.259 . S
O654 Co638 2.117 1_655 S
O654 C646 1.258 . S
O655 Co638 2.020 . S
O655 C652 1.256 . S
O656 Co636 2.062 . S
O656 C652 1.255 . S
O657 C637 1.259 . S
O657 Co638 2.021 . S
H658 C649 0.930 . S
H659 C648 0.931 . S
O660 Co636 2.117 . S
O660 C637 1.258 . S
O661 Co636 2.020 . S
O661 C663 1.256 . S
O662 Co638 2.062 . S
O662 C663 1.255 . S
C663 O661 1.256 . S
C663 O662 1.255 . S
H664 C643 0.931 . S
H665 C651 0.931 . S
Co666 N671 2.057 . S
Co666 O683 2.021 . S
Co666 O686 2.062 . S
Co666 O690 2.117 . S
Co666 O691 2.020 . S
C667 O687 1.259 . S
C667 O690 1.258 . S
Co668 N677 2.057 . S
Co668 O684 2.117 . S
Co668 O685 2.020 . S
Co668 O687 2.021 . S
Co668 O692 2.062 . S
C669 N671 1.316 . S
C669 N672 1.347 . S
C669 H674 0.931 . S
C670 N671 1.375 . S
C670 C673 1.350 . S
C670 H675 0.930 . S
N671 Co666 2.057 . S
N671 C669 1.316 . S
N671 C670 1.375 . S
N672 C669 1.347 . S
N672 C673 1.373 . S
C673 C670 1.350 . S
C673 N672 1.373 . S
C673 H694 0.931 . S
H674 C669 0.931 . S
H675 C670 0.930 . S
C676 O683 1.259 . S
C676 O684 1.258 . S
N677 Co668 2.057 . S
N677 C678 1.316 . S
N677 C679 1.375 . S
C678 N677 1.316 . S
C678 N680 1.347 . S
C678 H689 0.931 . S
C679 N677 1.375 . S
C679 C681 1.350 . S
C679 H688 0.930 . S
N680 C678 1.347 . S
N680 C681 1.373 . S
C681 C679 1.350 . S
C681 N680 1.373 . S
C681 H695 0.931 . S
C682 O685 1.256 . S
C682 O686 1.255 . S
O683 Co666 2.021 . S
O683 C676 1.259 . S
O684 Co668 2.117 . S
O684 C676 1.258 . S
O685 Co668 2.020 . S
O685 C682 1.256 . S
O686 Co666 2.062 . S
O686 C682 1.255 . S
O687 C667 1.259 . S
O687 Co668 2.021 . S
H688 C679 0.930 . S
H689 C678 0.931 . S
O690 Co666 2.117 . S
O690 C667 1.258 . S
O691 Co666 2.020 . S
O691 C693 1.256 . S
O692 Co668 2.062 . S
O692 C693 1.255 . S
C693 O691 1.256 . S
C693 O692 1.255 . S
H694 C673 0.931 . S
H695 C681 0.931 . S
Co696 N701 2.057 . S
Co696 O713 2.021 . S
Co696 O716 2.062 . S
Co696 O720 2.117 . S
Co696 O721 2.020 . S
C697 O717 1.259 . S
C697 O720 1.258 . S
Co698 N707 2.057 . S
Co698 O714 2.117 . S
Co698 O715 2.020 . S
Co698 O717 2.021 . S
Co698 O722 2.062 . S
C699 N701 1.316 . S
C699 N702 1.347 . S
C699 H704 0.931 . S
C700 N701 1.375 . S
C700 C703 1.350 . S
C700 H705 0.930 . S
N701 Co696 2.057 . S
N701 C699 1.316 . S
N701 C700 1.375 . S
N702 C699 1.347 . S
N702 C703 1.373 . S
C703 C700 1.350 . S
C703 N702 1.373 . S
C703 H724 0.931 . S
H704 C699 0.931 . S
H705 C700 0.930 . S
C706 O713 1.259 . S
C706 O714 1.258 . S
N707 Co698 2.057 . S
N707 C708 1.316 . S
N707 C709 1.375 . S
C708 N707 1.316 . S
C708 N710 1.347 . S
C708 H719 0.931 . S
C709 N707 1.375 . S
C709 C711 1.350 . S
C709 H718 0.930 . S
N710 C708 1.347 . S
N710 C711 1.373 . S
C711 C709 1.350 . S
C711 N710 1.373 . S
C711 H725 0.931 . S
C712 O715 1.256 . S
C712 O716 1.255 . S
O713 Co696 2.021 . S
O713 C706 1.259 . S
O714 Co698 2.117 . S
O714 C706 1.258 . S
O715 Co698 2.020 . S
O715 C712 1.256 . S
O716 Co696 2.062 . S
O716 C712 1.255 . S
O717 C697 1.259 . S
O717 Co698 2.021 . S
H718 C709 0.930 . S
H719 C708 0.931 . S
O720 Co696 2.117 . S
O720 C697 1.258 . S
O721 Co696 2.020 . S
O721 C723 1.256 . S
O722 Co698 2.062 . S
O722 C723 1.255 . S
C723 O721 1.256 . S
C723 O722 1.255 . S
H724 C703 0.931 . S
H725 C711 0.931 . S
Co726 N731 2.057 . S
Co726 O743 2.021 . S
Co726 O746 2.062 . S
Co726 O750 2.117 . S
Co726 O751 2.020 . S
C727 O747 1.259 . S
C727 O750 1.258 . S
Co728 N737 2.057 . S
Co728 O744 2.117 . S
Co728 O745 2.020 . S
Co728 O747 2.021 . S
Co728 O752 2.062 . S
C729 N731 1.316 . S
C729 N732 1.347 . S
C729 H734 0.931 . S
C730 N731 1.375 . S
C730 C733 1.350 . S
C730 H735 0.930 . S
N731 Co726 2.057 . S
N731 C729 1.316 . S
N731 C730 1.375 . S
N732 C729 1.347 . S
N732 C733 1.373 . S
C733 C730 1.350 . S
C733 N732 1.373 . S
C733 H754 0.931 . S
H734 C729 0.931 . S
H735 C730 0.930 . S
C736 O743 1.259 . S
C736 O744 1.258 . S
N737 Co728 2.057 . S
N737 C738 1.316 . S
N737 C739 1.375 . S
C738 N737 1.316 . S
C738 N740 1.347 . S
C738 H749 0.931 . S
C739 N737 1.375 . S
C739 C741 1.350 . S
C739 H748 0.930 . S
N740 C738 1.347 . S
N740 C741 1.373 . S
C741 C739 1.350 . S
C741 N740 1.373 . S
C741 H755 0.931 . S
C742 O745 1.256 . S
C742 O746 1.255 . S
O743 Co726 2.021 . S
O743 C736 1.259 . S
O744 Co728 2.117 . S
O744 C736 1.258 . S
O745 Co728 2.020 . S
O745 C742 1.256 . S
O746 Co726 2.062 . S
O746 C742 1.255 . S
O747 C727 1.259 . S
O747 Co728 2.021 . S
H748 C739 0.930 . S
H749 C738 0.931 . S
O750 Co726 2.117 . S
O750 C727 1.258 . S
O751 Co726 2.020 . S
O751 C753 1.256 . S
O752 Co728 2.062 . S
O752 C753 1.255 . S
C753 O751 1.256 . S
C753 O752 1.255 . S
H754 C733 0.931 . S
H755 C741 0.931 . S
Co756 N761 2.057 . S
Co756 O773 2.021 . S
Co756 O776 2.062 . S
Co756 O780 2.117 . S
Co756 O781 2.020 . S
C757 O777 1.259 . S
C757 O780 1.258 . S
Co758 N767 2.057 . S
Co758 O774 2.117 . S
Co758 O775 2.020 . S
Co758 O777 2.021 . S
Co758 O782 2.062 . S
C759 N761 1.316 . S
C759 N762 1.347 . S
C759 H764 0.931 . S
C760 N761 1.375 . S
C760 C763 1.350 . S
C760 H765 0.930 . S
N761 Co756 2.057 . S
N761 C759 1.316 . S
N761 C760 1.375 . S
N762 C759 1.347 . S
N762 C763 1.373 . S
C763 C760 1.350 . S
C763 N762 1.373 . S
C763 H784 0.931 . S
H764 C759 0.931 . S
H765 C760 0.930 . S
C766 O773 1.259 . S
C766 O774 1.258 . S
N767 Co758 2.057 . S
N767 C768 1.316 . S
N767 C769 1.375 . S
C768 N767 1.316 . S
C768 N770 1.347 . S
C768 H779 0.931 . S
C769 N767 1.375 . S
C769 C771 1.350 . S
C769 H778 0.930 . S
N770 C768 1.347 . S
N770 C771 1.373 . S
C771 C769 1.350 . S
C771 N770 1.373 . S
C771 H785 0.931 . S
C772 O775 1.256 . S
C772 O776 1.255 . S
O773 Co756 2.021 . S
O773 C766 1.259 . S
O774 Co758 2.117 . S
O774 C766 1.258 . S
O775 Co758 2.020 . S
O775 C772 1.256 . S
O776 Co756 2.062 . S
O776 C772 1.255 . S
O777 C757 1.259 . S
O777 Co758 2.021 . S
H778 C769 0.930 . S
H779 C768 0.931 . S
O780 Co756 2.117 . S
O780 C757 1.258 . S
O781 Co756 2.020 . S
O781 C783 1.256 . S
O782 Co758 2.062 . S
O782 C783 1.255 . S
C783 O781 1.256 . S
C783 O782 1.255 . S
H784 C763 0.931 . S
H785 C771 0.931 . S
Co786 N791 2.057 1_455 S
Co786 O803 2.021 . S
Co786 O806 2.062 1_455 S
Co786 O810 2.117 . S
Co786 O811 2.020 1_554 S
C787 O807 1.259 . S
C787 O810 1.258 . S
Co788 N797 2.057 . S
Co788 O804 2.117 . S
Co788 O805 2.020 . S
Co788 O807 2.021 . S
Co788 O812 2.062 1_554 S
C789 N791 1.316 . S
C789 N792 1.347 . S
C789 H794 0.931 . S
C790 N791 1.375 1_556 S
C790 C793 1.350 . S
C790 H795 0.930 . S
N791 Co786 2.057 1_655 S
N791 C789 1.316 . S
N791 C790 1.375 1_554 S
N792 C789 1.347 . S
N792 C793 1.373 1_554 S
C793 C790 1.350 . S
C793 N792 1.373 1_556 S
C793 H814 0.931 . S
H794 C789 0.931 . S
H795 C790 0.930 . S
C796 O803 1.259 . S
C796 O804 1.258 . S
N797 Co788 2.057 . S
N797 C798 1.316 . S
N797 C799 1.375 . S
C798 N797 1.316 . S
C798 N800 1.347 . S
C798 H809 0.931 . S
C799 N797 1.375 . S
C799 C801 1.350 . S
C799 H808 0.930 . S
N800 C798 1.347 . S
N800 C801 1.373 . S
C801 C799 1.350 . S
C801 N800 1.373 . S
C801 H815 0.931 . S
C802 O805 1.256 . S
C802 O806 1.255 1_455 S
O803 Co786 2.021 . S
O803 C796 1.259 . S
O804 Co788 2.117 . S
O804 C796 1.258 . S
O805 Co788 2.020 . S
O805 C802 1.256 . S
O806 Co786 2.062 1_655 S
O806 C802 1.255 1_655 S
O807 C787 1.259 . S
O807 Co788 2.021 . S
H808 C799 0.930 . S
H809 C798 0.931 . S
O810 Co786 2.117 . S
O810 C787 1.258 . S
O811 Co786 2.020 1_556 S
O811 C813 1.256 . S
O812 Co788 2.062 1_556 S
O812 C813 1.255 . S
C813 O811 1.256 . S
C813 O812 1.255 . S
H814 C793 0.931 . S
H815 C801 0.931 . S
H816 C822 0.930 . S
H817 C825 0.930 . S
H818 C826 0.930 . S
H819 C827 0.930 . S
H820 C830 0.930 . S
H821 C831 0.930 . S
C822 H816 0.930 . S
C822 C823 1.355 . S
C822 C824 1.415 . S
C823 C822 1.355 . S
C823 C825 1.419 . S
C824 C822 1.415 . S
C824 C829 1.425 . S
C824 C831 1.409 1_455 S
C825 H817 0.930 . S
C825 C823 1.419 . S
C825 C826 1.362 . S
C826 H818 0.930 . S
C826 C825 1.362 . S
C826 C829 1.409 . S
C827 H819 0.930 . S
C827 C828 1.355 . S
C827 C829 1.415 . S
C828 C827 1.355 . S
C828 C830 1.419 1_455 S
C829 C824 1.425 . S
C829 C826 1.409 . S
C829 C827 1.415 . S
C830 H820 0.930 . S
C830 C828 1.419 1_655 S
C830 C831 1.362 . S
C831 H821 0.930 . S
C831 C824 1.409 1_655 S
C831 C830 1.362 . S
H832 C838 0.930 . S
H833 C841 0.930 . S
H834 C842 0.930 . S
H835 C843 0.930 . S
H836 C846 0.930 . S
H837 C847 0.930 . S
C838 H832 0.930 . S
C838 C839 1.355 . S
C838 C840 1.415 . S
C839 C838 1.355 . S
C839 C841 1.419 . S
C840 C838 1.415 . S
C840 C845 1.425 . S
C840 C847 1.409 . S
C841 H833 0.930 . S
C841 C839 1.419 . S
C841 C842 1.362 . S
C842 H834 0.930 . S
C842 C841 1.362 . S
C842 C845 1.409 . S
C843 H835 0.930 . S
C843 C844 1.355 . S
C843 C845 1.415 . S
C844 C843 1.355 . S
C844 C846 1.419 . S
C845 C840 1.425 . S
C845 C842 1.409 . S
C845 C843 1.415 . S
C846 H836 0.930 . S
C846 C844 1.419 . S
C846 C847 1.362 . S
C847 H837 0.930 . S
C847 C840 1.409 . S
C847 C846 1.362 . S
H848 C854 0.930 . S
H849 C857 0.930 . S
H850 C858 0.930 . S
H851 C859 0.930 . S
H852 C862 0.930 . S
H853 C863 0.930 . S
C854 H848 0.930 . S
C854 C855 1.355 . S
C854 C856 1.415 . S
C855 C854 1.355 . S
C855 C857 1.419 . S
C856 C854 1.415 . S
C856 C861 1.425 . S
C856 C863 1.409 . S
C857 H849 0.930 . S
C857 C855 1.419 . S
C857 C858 1.362 . S
C858 H850 0.930 . S
C858 C857 1.362 . S
C858 C861 1.409 . S
C859 H851 0.930 . S
C859 C860 1.355 . S
C859 C861 1.415 . S
C860 C859 1.355 . S
C860 C862 1.419 . S
C861 C856 1.425 . S
C861 C858 1.409 . S
C861 C859 1.415 . S
C862 H852 0.930 . S
C862 C860 1.419 . S
C862 C863 1.362 . S
C863 H853 0.930 . S
C863 C856 1.409 . S
C863 C862 1.362 . S
H864 C870 0.930 . S
H865 C873 0.930 . S
H866 C874 0.930 . S
H867 C875 0.930 . S
H868 C878 0.930 . S
H869 C879 0.930 . S
C870 H864 0.930 . S
C870 C871 1.355 . S
C870 C872 1.415 . S
C871 C870 1.355 . S
C871 C873 1.419 . S
C872 C870 1.415 . S
C872 C877 1.425 . S
C872 C879 1.409 . S
C873 H865 0.930 . S
C873 C871 1.419 . S
C873 C874 1.362 . S
C874 H866 0.930 . S
C874 C873 1.362 . S
C874 C877 1.409 . S
C875 H867 0.930 . S
C875 C876 1.355 . S
C875 C877 1.415 . S
C876 C875 1.355 . S
C876 C878 1.419 . S
C877 C872 1.425 . S
C877 C874 1.409 . S
C877 C875 1.415 . S
C878 H868 0.930 . S
C878 C876 1.419 . S
C878 C879 1.362 . S
C879 H869 0.930 . S
C879 C872 1.409 . S
C879 C878 1.362 . S
H880 C886 0.930 . S
H881 C889 0.930 . S
H882 C890 0.930 . S
H883 C891 0.930 . S
H884 C894 0.930 . S
H885 C895 0.930 . S
C886 H880 0.930 . S
C886 C887 1.355 . S
C886 C888 1.415 . S
C887 C886 1.355 . S
C887 C889 1.419 . S
C888 C886 1.415 . S
C888 C893 1.425 . S
C888 C895 1.409 1_455 S
C889 H881 0.930 . S
C889 C887 1.419 . S
C889 C890 1.362 . S
C890 H882 0.930 . S
C890 C889 1.362 . S
C890 C893 1.409 . S
C891 H883 0.930 . S
C891 C892 1.355 . S
C891 C893 1.415 . S
C892 C891 1.355 . S
C892 C894 1.419 1_455 S
C893 C888 1.425 . S
C893 C890 1.409 . S
C893 C891 1.415 . S
C894 H884 0.930 . S
C894 C892 1.419 1_655 S
C894 C895 1.362 . S
C895 H885 0.930 . S
C895 C888 1.409 1_655 S
C895 C894 1.362 . S
H896 C902 0.930 . S
H897 C905 0.930 . S
H898 C906 0.930 . S
H899 C907 0.930 . S
H900 C910 0.930 . S
H901 C911 0.930 . S
C902 H896 0.930 . S
C902 C903 1.355 . S
C902 C904 1.415 . S
C903 C902 1.355 . S
C903 C905 1.419 . S
C904 C902 1.415 . S
C904 C909 1.425 . S
C904 C911 1.409 . S
C905 H897 0.930 . S
C905 C903 1.419 . S
C905 C906 1.362 . S
C906 H898 0.930 . S
C906 C905 1.362 . S
C906 C909 1.409 . S
C907 H899 0.930 . S
C907 C908 1.355 . S
C907 C909 1.415 . S
C908 C907 1.355 . S
C908 C910 1.419 . S
C909 C904 1.425 . S
C909 C906 1.409 . S
C909 C907 1.415 . S
C910 H900 0.930 . S
C910 C908 1.419 . S
C910 C911 1.362 . S
C911 H901 0.930 . S
C911 C904 1.409 . S
C911 C910 1.362 . S
H912 C918 0.930 . S
H913 C921 0.930 . S
H914 C922 0.930 . S
H915 C923 0.930 . S
H916 C926 0.930 . S
H917 C927 0.930 . S
C918 H912 0.930 . S
C918 C919 1.355 . S
C918 C920 1.415 . S
C919 C918 1.355 . S
C919 C921 1.419 . S
C920 C918 1.415 . S
C920 C925 1.425 . S
C920 C927 1.409 1_556 S
C921 H913 0.930 . S
C921 C919 1.419 . S
C921 C922 1.362 . S
C922 H914 0.930 . S
C922 C921 1.362 . S
C922 C925 1.409 . S
C923 H915 0.930 . S
C923 C924 1.331 1_556 S
C923 C925 1.415 . S
C924 C923 1.331 1_554 S
C924 C926 1.434 . S
C925 C920 1.425 . S
C925 C922 1.409 . S
C925 C923 1.415 . S
C926 H916 0.930 . S
C926 C924 1.434 . S
C926 C927 1.362 . S
C927 H917 0.930 . S
C927 C920 1.409 1_554 S
C927 C926 1.362 . S
H928 C934 0.930 . S
H929 C937 0.930 . S
H930 C938 0.930 . S
H931 C939 0.930 . S
H932 C942 0.930 . S
H933 C943 0.930 . S
C934 H928 0.930 . S
C934 C935 1.355 . S
C934 C936 1.415 . S
C935 C934 1.355 . S
C935 C937 1.419 . S
C936 C934 1.415 . S
C936 C941 1.425 . S
C936 C943 1.409 . S
C937 H929 0.930 . S
C937 C935 1.419 . S
C937 C938 1.362 . S
C938 H930 0.930 . S
C938 C937 1.362 . S
C938 C941 1.409 . S
C939 H931 0.930 . S
C939 C940 1.355 . S
C939 C941 1.415 . S
C940 C939 1.355 . S
C940 C942 1.419 . S
C941 C936 1.425 . S
C941 C938 1.409 . S
C941 C939 1.415 . S
C942 H932 0.930 . S
C942 C940 1.419 . S
C942 C943 1.362 . S
C943 H933 0.930 . S
C943 C936 1.409 . S
C943 C942 1.362 . S
H944 C950 0.930 . S
H945 C953 0.932 . S
H946 C954 0.929 1_565 S
H947 C955 0.930 . S
H948 C958 0.930 . S
H949 C959 0.930 . S
C950 H944 0.930 . S
C950 C951 1.355 . S
C950 C952 1.415 . S
C951 C950 1.355 . S
C951 C953 1.419 . S
C952 C950 1.415 . S
C952 C957 1.425 . S
C952 C959 1.409 . S
C953 H945 0.932 . S
C953 C951 1.419 . S
C953 C954 1.363 . S
C954 H946 0.929 1_545 S
C954 C953 1.363 . S
C954 C957 1.410 . S
C955 H947 0.930 . S
C955 C956 1.355 . S
C955 C957 1.415 . S
C956 C955 1.355 . S
C956 C958 1.419 . S
C957 C952 1.425 . S
C957 C954 1.410 . S
C957 C955 1.415 . S
C958 H948 0.930 . S
C958 C956 1.419 . S
C958 C959 1.362 . S
C959 H949 0.930 . S
C959 C952 1.409 . S
C959 C958 1.362 . S
H960 C966 0.930 . S
H961 C969 0.930 . S
H962 C970 0.930 . S
H963 C971 0.930 . S
H964 C974 0.930 . S
H965 C975 0.930 . S
C966 H960 0.930 . S
C966 C967 1.355 . S
C966 C968 1.415 . S
C967 C966 1.355 . S
C967 C969 1.419 . S
C968 C966 1.415 . S
C968 C973 1.425 . S
C968 C975 1.409 . S
C969 H961 0.930 . S
C969 C967 1.419 . S
C969 C970 1.362 . S
C970 H962 0.930 . S
C970 C969 1.362 . S
C970 C973 1.409 . S
C971 H963 0.930 . S
C971 C972 1.355 . S
C971 C973 1.415 . S
C972 C971 1.355 . S
C972 C974 1.419 . S
C973 C968 1.425 . S
C973 C970 1.409 . S
C973 C971 1.415 . S
C974 H964 0.930 . S
C974 C972 1.419 . S
C974 C975 1.362 . S
C975 H965 0.930 . S
C975 C968 1.409 . S
C975 C974 1.362 . S
H976 C982 0.930 . S
H977 C985 0.930 . S
H978 C986 0.930 . S
H979 C987 0.930 . S
H980 C990 0.930 . S
H981 C991 0.930 . S
C982 H976 0.930 . S
C982 C983 1.355 . S
C982 C984 1.415 . S
C983 C982 1.355 . S
C983 C985 1.419 . S
C984 C982 1.415 . S
C984 C989 1.425 . S
C984 C991 1.409 . S
C985 H977 0.930 . S
C985 C983 1.419 . S
C985 C986 1.362 . S
C986 H978 0.930 . S
C986 C985 1.362 . S
C986 C989 1.409 . S
C987 H979 0.930 . S
C987 C988 1.355 . S
C987 C989 1.415 . S
C988 C987 1.355 . S
C988 C990 1.419 . S
C989 C984 1.425 . S
C989 C986 1.409 . S
C989 C987 1.415 . S
C990 H980 0.930 . S
C990 C988 1.419 . S
C990 C991 1.362 . S
C991 H981 0.930 . S
C991 C984 1.409 . S
C991 C990 1.362 . S
H992 C998 0.930 . S
H993 C1001 0.930 . S
H994 C1002 0.930 . S
H995 C1003 0.930 . S
H996 C1006 0.930 . S
H997 C1007 0.930 . S
C998 H992 0.930 . S
C998 C999 1.355 . S
C998 C1000 1.415 . S
C999 C998 1.355 . S
C999 C1001 1.419 . S
C1000 C998 1.415 . S
C1000 C1005 1.425 . S
C1000 C1007 1.409 . S
C1001 H993 0.930 . S
C1001 C999 1.419 . S
C1001 C1002 1.362 . S
C1002 H994 0.930 . S
C1002 C1001 1.362 . S
C1002 C1005 1.409 . S
C1003 H995 0.930 . S
C1003 C1004 1.355 . S
C1003 C1005 1.415 . S
C1004 C1003 1.355 . S
C1004 C1006 1.419 . S
C1005 C1000 1.425 . S
C1005 C1002 1.409 . S
C1005 C1003 1.415 . S
C1006 H996 0.930 . S
C1006 C1004 1.419 . S
C1006 C1007 1.362 . S
C1007 H997 0.930 . S
C1007 C1000 1.409 . S
C1007 C1006 1.362 . S
H1008 C1014 0.930 . S
H1009 C1017 0.930 1_565 S
H1010 C1018 0.930 . S
H1011 C1019 0.930 . S
H1012 C1022 0.930 . S
H1013 C1023 0.930 . S
C1014 H1008 0.930 . S
C1014 C1015 1.355 . S
C1014 C1016 1.415 . S
C1015 C1014 1.355 . S
C1015 C1017 1.419 . S
C1016 C1014 1.415 . S
C1016 C1021 1.425 . S
C1016 C1023 1.409 . S
C1017 H1009 0.930 1_545 S
C1017 C1015 1.419 . S
C1017 C1018 1.362 . S
C1018 H1010 0.930 . S
C1018 C1017 1.362 . S
C1018 C1021 1.409 . S
C1019 H1011 0.930 . S
C1019 C1020 1.355 . S
C1019 C1021 1.415 . S
C1020 C1019 1.355 . S
C1020 C1022 1.419 . S
C1021 C1016 1.425 . S
C1021 C1018 1.409 . S
C1021 C1019 1.415 . S
C1022 H1012 0.930 . S
C1022 C1020 1.419 . S
C1022 C1023 1.362 . S
C1023 H1013 0.930 . S
C1023 C1016 1.409 . S
C1023 C1022 1.362 . S
H1024 C1030 0.930 . S
H1025 C1033 0.930 . S
H1026 C1034 0.930 . S
H1027 C1035 0.930 . S
H1028 C1038 0.930 . S
H1029 C1039 0.930 . S
C1030 H1024 0.930 . S
C1030 C1031 1.355 . S
C1030 C1032 1.415 . S
C1031 C1030 1.355 . S
C1031 C1033 1.419 . S
C1032 C1030 1.415 . S
C1032 C1037 1.425 . S
C1032 C1039 1.409 . S
C1033 H1025 0.930 . S
C1033 C1031 1.419 . S
C1033 C1034 1.362 . S
C1034 H1026 0.930 . S
C1034 C1033 1.362 . S
C1034 C1037 1.409 . S
C1035 H1027 0.930 . S
C1035 C1036 1.355 . S
C1035 C1037 1.415 . S
C1036 C1035 1.355 . S
C1036 C1038 1.419 . S
C1037 C1032 1.425 . S
C1037 C1034 1.409 . S
C1037 C1035 1.415 . S
C1038 H1028 0.930 . S
C1038 C1036 1.419 . S
C1038 C1039 1.362 . S
C1039 H1029 0.930 . S
C1039 C1032 1.409 . S
C1039 C1038 1.362 . S
H1040 C1046 0.930 . S
H1041 C1049 0.930 . S
H1042 C1050 0.930 . S
H1043 C1051 0.930 . S
H1044 C1054 0.936 . S
H1045 C1055 0.930 . S
C1046 H1040 0.930 . S
C1046 C1047 1.355 . S
C1046 C1048 1.415 . S
C1047 C1046 1.355 . S
C1047 C1049 1.419 . S
C1048 C1046 1.415 . S
C1048 C1053 1.425 . S
C1048 C1055 1.409 . S
C1049 H1041 0.930 . S
C1049 C1047 1.419 . S
C1049 C1050 1.362 . S
C1050 H1042 0.930 . S
C1050 C1049 1.362 . S
C1050 C1053 1.409 . S
C1051 H1043 0.930 . S
C1051 C1052 1.355 . S
C1051 C1053 1.415 . S
C1052 C1051 1.355 . S
C1052 C1054 1.419 . S
C1053 C1048 1.425 . S
C1053 C1050 1.409 . S
C1053 C1051 1.415 . S
C1054 H1044 0.936 . S
C1054 C1052 1.419 . S
C1054 C1055 1.362 . S
C1055 H1045 0.930 . S
C1055 C1048 1.409 . S
C1055 C1054 1.362 . S
H1056 C1062 0.930 . S
H1057 C1065 0.930 . S
H1058 C1066 0.930 . S
H1059 C1067 0.930 . S
H1060 C1070 0.930 . S
H1061 C1071 0.930 . S
C1062 H1056 0.930 . S
C1062 C1063 1.355 . S
C1062 C1064 1.415 . S
C1063 C1062 1.355 . S
C1063 C1065 1.419 . S
C1064 C1062 1.415 . S
C1064 C1069 1.425 . S
C1064 C1071 1.409 . S
C1065 H1057 0.930 . S
C1065 C1063 1.419 . S
C1065 C1066 1.362 . S
C1066 H1058 0.930 . S
C1066 C1065 1.362 . S
C1066 C1069 1.409 . S
C1067 H1059 0.930 . S
C1067 C1068 1.355 . S
C1067 C1069 1.415 . S
C1068 C1067 1.355 . S
C1068 C1070 1.419 . S
C1069 C1064 1.425 . S
C1069 C1066 1.409 . S
C1069 C1067 1.415 . S
C1070 H1060 0.930 . S
C1070 C1068 1.419 . S
C1070 C1071 1.362 . S
C1071 H1061 0.930 . S
C1071 C1064 1.409 . S
C1071 C1070 1.362 . S
H1072 C1078 0.930 . S
H1073 C1081 0.930 . S
H1074 C1082 0.930 . S
H1075 C1083 0.930 . S
H1076 C1086 0.930 . S
H1077 C1087 0.930 . S
C1078 H1072 0.930 . S
C1078 C1079 1.355 . S
C1078 C1080 1.415 . S
C1079 C1078 1.355 . S
C1079 C1081 1.419 . S
C1080 C1078 1.415 . S
C1080 C1085 1.425 . S
C1080 C1087 1.409 . S
C1081 H1073 0.930 . S
C1081 C1079 1.419 . S
C1081 C1082 1.362 . S
C1082 H1074 0.930 . S
C1082 C1081 1.362 . S
C1082 C1085 1.409 . S
C1083 H1075 0.930 . S
C1083 C1084 1.355 . S
C1083 C1085 1.415 . S
C1084 C1083 1.355 . S
C1084 C1086 1.419 . S
C1085 C1080 1.425 . S
C1085 C1082 1.409 . S
C1085 C1083 1.415 . S
C1086 H1076 0.930 . S
C1086 C1084 1.419 . S
C1086 C1087 1.362 . S
C1087 H1077 0.930 . S
C1087 C1080 1.409 . S
C1087 C1086 1.362 . S
H1088 C1094 0.930 . S
H1089 C1097 0.930 . S
H1090 C1098 0.930 . S
H1091 C1099 0.930 . S
H1092 C1102 0.930 . S
H1093 C1103 0.930 . S
C1094 H1088 0.930 . S
C1094 C1095 1.355 . S
C1094 C1096 1.415 . S
C1095 C1094 1.355 . S
C1095 C1097 1.419 . S
C1096 C1094 1.415 . S
C1096 C1101 1.425 . S
C1096 C1103 1.409 . S
C1097 H1089 0.930 . S
C1097 C1095 1.419 . S
C1097 C1098 1.362 . S
C1098 H1090 0.930 . S
C1098 C1097 1.362 . S
C1098 C1101 1.409 . S
C1099 H1091 0.930 . S
C1099 C1100 1.355 . S
C1099 C1101 1.415 . S
C1100 C1099 1.355 . S
C1100 C1102 1.419 . S
C1101 C1096 1.425 . S
C1101 C1098 1.409 . S
C1101 C1099 1.415 . S
C1102 H1092 0.930 . S
C1102 C1100 1.419 . S
C1102 C1103 1.362 . S
C1103 H1093 0.930 . S
C1103 C1096 1.409 . S
C1103 C1102 1.362 . S
H1104 C1110 0.930 . S
H1105 C1113 0.930 . S
H1106 C1114 0.930 . S
H1107 C1115 0.930 . S
H1108 C1118 0.930 . S
H1109 C1119 0.930 . S
C1110 H1104 0.930 . S
C1110 C1111 1.355 . S
C1110 C1112 1.415 . S
C1111 C1110 1.355 . S
C1111 C1113 1.419 . S
C1112 C1110 1.415 . S
C1112 C1117 1.425 . S
C1112 C1119 1.409 . S
C1113 H1105 0.930 . S
C1113 C1111 1.419 . S
C1113 C1114 1.362 . S
C1114 H1106 0.930 . S
C1114 C1113 1.362 . S
C1114 C1117 1.409 . S
C1115 H1107 0.930 . S
C1115 C1116 1.355 . S
C1115 C1117 1.415 . S
C1116 C1115 1.355 . S
C1116 C1118 1.419 . S
C1117 C1112 1.425 . S
C1117 C1114 1.409 . S
C1117 C1115 1.415 . S
C1118 H1108 0.930 . S
C1118 C1116 1.419 . S
C1118 C1119 1.362 . S
C1119 H1109 0.930 . S
C1119 C1112 1.409 . S
C1119 C1118 1.362 . S
H1120 C1126 0.930 . S
H1121 C1129 0.930 . S
H1122 C1130 0.930 . S
H1123 C1131 0.930 . S
H1124 C1134 0.930 . S
H1125 C1135 0.930 . S
C1126 H1120 0.930 . S
C1126 C1127 1.355 . S
C1126 C1128 1.415 . S
C1127 C1126 1.355 . S
C1127 C1129 1.419 . S
C1128 C1126 1.415 . S
C1128 C1133 1.425 . S
C1128 C1135 1.409 . S
C1129 H1121 0.930 . S
C1129 C1127 1.419 . S
C1129 C1130 1.362 . S
C1130 H1122 0.930 . S
C1130 C1129 1.362 . S
C1130 C1133 1.409 . S
C1131 H1123 0.930 . S
C1131 C1132 1.355 . S
C1131 C1133 1.415 . S
C1132 C1131 1.355 . S
C1132 C1134 1.419 . S
C1133 C1128 1.425 . S
C1133 C1130 1.409 . S
C1133 C1131 1.415 . S
C1134 H1124 0.930 . S
C1134 C1132 1.419 . S
C1134 C1135 1.362 . S
C1135 H1125 0.930 . S
C1135 C1128 1.409 . S
C1135 C1134 1.362 . S
H1136 C1142 0.930 . S
H1137 C1145 0.930 . S
H1138 C1146 0.930 . S
H1139 C1147 0.930 . S
H1140 C1150 0.930 . S
H1141 C1151 0.930 . S
C1142 H1136 0.930 . S
C1142 C1143 1.355 . S
C1142 C1144 1.415 . S
C1143 C1142 1.355 . S
C1143 C1145 1.419 . S
C1144 C1142 1.415 . S
C1144 C1149 1.425 . S
C1144 C1151 1.409 . S
C1145 H1137 0.930 . S
C1145 C1143 1.419 . S
C1145 C1146 1.362 . S
C1146 H1138 0.930 . S
C1146 C1145 1.362 . S
C1146 C1149 1.409 . S
C1147 H1139 0.930 . S
C1147 C1148 1.355 . S
C1147 C1149 1.415 . S
C1148 C1147 1.355 . S
C1148 C1150 1.419 . S
C1149 C1144 1.425 . S
C1149 C1146 1.409 . S
C1149 C1147 1.415 . S
C1150 H1140 0.930 . S
C1150 C1148 1.419 . S
C1150 C1151 1.362 . S
C1151 H1141 0.930 . S
C1151 C1144 1.409 . S
C1151 C1150 1.362 . S
H1152 C1158 0.930 . S
H1153 C1161 0.930 . S
H1154 C1162 0.930 1_545 S
H1155 C1163 0.930 1_545 S
H1156 C1166 0.930 . S
H1157 C1167 0.930 . S
C1158 H1152 0.930 . S
C1158 C1159 1.355 . S
C1158 C1160 1.415 . S
C1159 C1158 1.355 . S
C1159 C1161 1.419 . S
C1160 C1158 1.415 . S
C1160 C1165 1.425 . S
C1160 C1167 1.409 . S
C1161 H1153 0.930 . S
C1161 C1159 1.419 . S
C1161 C1162 1.362 . S
C1162 H1154 0.930 1_565 S
C1162 C1161 1.362 . S
C1162 C1165 1.409 . S
C1163 H1155 0.930 1_565 S
C1163 C1164 1.355 . S
C1163 C1165 1.415 . S
C1164 C1163 1.355 . S
C1164 C1166 1.419 . S
C1165 C1160 1.425 . S
C1165 C1162 1.409 . S
C1165 C1163 1.415 . S
C1166 H1156 0.930 . S
C1166 C1164 1.419 . S
C1166 C1167 1.362 . S
C1167 H1157 0.930 . S
C1167 C1160 1.409 . S
C1167 C1166 1.362 . S
H1168 C1174 0.930 . S
H1169 C1177 0.930 . S
H1170 C1178 0.930 . S
H1171 C1179 0.930 . S
H1172 C1182 0.930 . S
H1173 C1183 0.930 . S
C1174 H1168 0.930 . S
C1174 C1175 1.355 . S
C1174 C1176 1.415 . S
C1175 C1174 1.355 . S
C1175 C1177 1.419 . S
C1176 C1174 1.415 . S
C1176 C1181 1.425 . S
C1176 C1183 1.409 . S
C1177 H1169 0.930 . S
C1177 C1175 1.419 . S
C1177 C1178 1.362 . S
C1178 H1170 0.930 . S
C1178 C1177 1.362 . S
C1178 C1181 1.409 . S
C1179 H1171 0.930 . S
C1179 C1180 1.355 . S
C1179 C1181 1.415 . S
C1180 C1179 1.355 . S
C1180 C1182 1.419 . S
C1181 C1176 1.425 . S
C1181 C1178 1.409 . S
C1181 C1179 1.415 . S
C1182 H1172 0.930 . S
C1182 C1180 1.419 . S
C1182 C1183 1.362 . S
C1183 H1173 0.930 . S
C1183 C1176 1.409 . S
C1183 C1182 1.362 . S
H1184 C1190 0.930 . S
H1185 C1193 0.930 . S
H1186 C1194 0.930 . S
H1187 C1195 0.930 . S
H1188 C1198 0.930 . S
H1189 C1199 0.930 . S
C1190 H1184 0.930 . S
C1190 C1191 1.355 . S
C1190 C1192 1.415 . S
C1191 C1190 1.355 . S
C1191 C1193 1.419 . S
C1192 C1190 1.415 . S
C1192 C1197 1.425 . S
C1192 C1199 1.409 . S
C1193 H1185 0.930 . S
C1193 C1191 1.419 . S
C1193 C1194 1.362 . S
C1194 H1186 0.930 . S
C1194 C1193 1.362 . S
C1194 C1197 1.409 . S
C1195 H1187 0.930 . S
C1195 C1196 1.355 . S
C1195 C1197 1.415 . S
C1196 C1195 1.355 . S
C1196 C1198 1.419 . S
C1197 C1192 1.425 . S
C1197 C1194 1.409 . S
C1197 C1195 1.415 . S
C1198 H1188 0.930 . S
C1198 C1196 1.419 . S
C1198 C1199 1.362 . S
C1199 H1189 0.930 . S
C1199 C1192 1.409 . S
C1199 C1198 1.362 . S
H1200 C1206 0.930 . S
H1201 C1209 0.930 . S
H1202 C1210 0.930 . S
H1203 C1211 0.930 . S
H1204 C1214 0.930 . S
H1205 C1215 0.930 . S
C1206 H1200 0.930 . S
C1206 C1207 1.355 . S
C1206 C1208 1.415 . S
C1207 C1206 1.355 . S
C1207 C1209 1.419 . S
C1208 C1206 1.415 . S
C1208 C1213 1.425 . S
C1208 C1215 1.409 1_556 S
C1209 H1201 0.930 . S
C1209 C1207 1.419 . S
C1209 C1210 1.362 . S
C1210 H1202 0.930 . S
C1210 C1209 1.362 . S
C1210 C1213 1.409 . S
C1211 H1203 0.930 . S
C1211 C1212 1.355 . S
C1211 C1213 1.415 . S
C1212 C1211 1.355 . S
C1212 C1214 1.419 1_556 S
C1213 C1208 1.425 . S
C1213 C1210 1.409 . S
C1213 C1211 1.415 . S
C1214 H1204 0.930 . S
C1214 C1212 1.419 1_554 S
C1214 C1215 1.362 . S
C1215 H1205 0.930 . S
C1215 C1208 1.409 1_554 S
C1215 C1214 1.362 . S
H1216 C1222 0.930 . S
H1217 C1225 0.930 . S
H1218 C1226 0.930 . S
H1219 C1227 0.930 . S
H1220 C1230 0.930 . S
H1221 C1231 0.930 . S
C1222 H1216 0.930 . S
C1222 C1223 1.355 . S
C1222 C1224 1.415 . S
C1223 C1222 1.355 . S
C1223 C1225 1.419 . S
C1224 C1222 1.415 . S
C1224 C1229 1.425 . S
C1224 C1231 1.409 . S
C1225 H1217 0.930 . S
C1225 C1223 1.419 . S
C1225 C1226 1.362 . S
C1226 H1218 0.930 . S
C1226 C1225 1.362 . S
C1226 C1229 1.409 . S
C1227 H1219 0.930 . S
C1227 C1228 1.355 . S
C1227 C1229 1.415 . S
C1228 C1227 1.355 . S
C1228 C1230 1.419 . S
C1229 C1224 1.425 . S
C1229 C1226 1.409 . S
C1229 C1227 1.415 . S
C1230 H1220 0.930 . S
C1230 C1228 1.419 . S
C1230 C1231 1.362 . S
C1231 H1221 0.930 . S
C1231 C1224 1.409 . S
C1231 C1230 1.362 . S
H1232 C1238 0.930 . S
H1233 C1241 0.930 . S
H1234 C1242 0.930 . S
H1235 C1243 0.930 . S
H1236 C1246 0.930 . S
H1237 C1247 0.930 . S
C1238 H1232 0.930 . S
C1238 C1239 1.355 . S
C1238 C1240 1.415 . S
C1239 C1238 1.355 . S
C1239 C1241 1.419 . S
C1240 C1238 1.415 . S
C1240 C1245 1.425 . S
C1240 C1247 1.409 . S
C1241 H1233 0.930 . S
C1241 C1239 1.419 . S
C1241 C1242 1.362 . S
C1242 H1234 0.930 . S
C1242 C1241 1.362 . S
C1242 C1245 1.409 . S
C1243 H1235 0.930 . S
C1243 C1244 1.355 . S
C1243 C1245 1.415 . S
C1244 C1243 1.355 . S
C1244 C1246 1.419 . S
C1245 C1240 1.425 . S
C1245 C1242 1.409 . S
C1245 C1243 1.415 . S
C1246 H1236 0.930 . S
C1246 C1244 1.419 . S
C1246 C1247 1.362 . S
C1247 H1237 0.930 . S
C1247 C1240 1.409 . S
C1247 C1246 1.362 . S
H1248 C1254 0.930 . S
H1249 C1257 0.930 . S
H1250 C1258 0.930 . S
H1251 C1259 0.930 . S
H1252 C1262 0.930 . S
H1253 C1263 0.930 . S
C1254 H1248 0.930 . S
C1254 C1255 1.355 . S
C1254 C1256 1.415 . S
C1255 C1254 1.355 . S
C1255 C1257 1.419 . S
C1256 C1254 1.415 . S
C1256 C1261 1.425 . S
C1256 C1263 1.409 . S
C1257 H1249 0.930 . S
C1257 C1255 1.419 . S
C1257 C1258 1.362 . S
C1258 H1250 0.930 . S
C1258 C1257 1.362 . S
C1258 C1261 1.409 . S
C1259 H1251 0.930 . S
C1259 C1260 1.355 . S
C1259 C1261 1.415 . S
C1260 C1259 1.355 . S
C1260 C1262 1.419 . S
C1261 C1256 1.425 . S
C1261 C1258 1.409 . S
C1261 C1259 1.415 . S
C1262 H1252 0.930 . S
C1262 C1260 1.419 . S
C1262 C1263 1.362 . S
C1263 H1253 0.930 . S
C1263 C1256 1.409 . S
C1263 C1262 1.362 . S
H1264 C1270 0.930 . S
H1265 C1273 0.930 . S
H1266 C1274 0.930 . S
H1267 C1275 0.930 . S
H1268 C1278 0.930 . S
H1269 C1279 0.930 . S
C1270 H1264 0.930 . S
C1270 C1271 1.355 . S
C1270 C1272 1.415 . S
C1271 C1270 1.355 . S
C1271 C1273 1.419 1_455 S
C1272 C1270 1.415 . S
C1272 C1277 1.425 . S
C1272 C1279 1.409 . S
C1273 H1265 0.930 . S
C1273 C1271 1.419 1_655 S
C1273 C1274 1.362 . S
C1274 H1266 0.930 . S
C1274 C1273 1.362 . S
C1274 C1277 1.409 1_655 S
C1275 H1267 0.930 . S
C1275 C1276 1.355 . S
C1275 C1277 1.415 . S
C1276 C1275 1.355 . S
C1276 C1278 1.419 . S
C1277 C1272 1.425 . S
C1277 C1274 1.409 1_455 S
C1277 C1275 1.415 . S
C1278 H1268 0.930 . S
C1278 C1276 1.419 . S
C1278 C1279 1.362 . S
C1279 H1269 0.930 . S
C1279 C1272 1.409 . S
C1279 C1278 1.362 . S
H1280 C1286 0.930 . S
H1281 C1289 0.930 . S
H1282 C1290 0.930 . S
H1283 C1291 0.930 . S
H1284 C1294 0.930 . S
H1285 C1295 0.930 . S
C1286 H1280 0.930 . S
C1286 C1287 1.355 . S
C1286 C1288 1.415 . S
C1287 C1286 1.355 . S
C1287 C1289 1.419 . S
C1288 C1286 1.415 . S
C1288 C1293 1.425 . S
C1288 C1295 1.409 . S
C1289 H1281 0.930 . S
C1289 C1287 1.419 . S
C1289 C1290 1.362 . S
C1290 H1282 0.930 . S
C1290 C1289 1.362 . S
C1290 C1293 1.409 . S
C1291 H1283 0.930 . S
C1291 C1292 1.355 . S
C1291 C1293 1.415 . S
C1292 C1291 1.355 . S
C1292 C1294 1.419 . S
C1293 C1288 1.425 . S
C1293 C1290 1.409 . S
C1293 C1291 1.415 . S
C1294 H1284 0.930 . S
C1294 C1292 1.419 . S
C1294 C1295 1.362 . S
C1295 H1285 0.930 . S
C1295 C1288 1.409 . S
C1295 C1294 1.362 . S
H1296 C1302 0.930 . S
H1297 C1305 0.930 . S
H1298 C1306 0.930 . S
H1299 C1307 0.930 . S
H1300 C1310 0.930 . S
H1301 C1311 0.930 . S
C1302 H1296 0.930 . S
C1302 C1303 1.355 . S
C1302 C1304 1.415 . S
C1303 C1302 1.355 . S
C1303 C1305 1.419 . S
C1304 C1302 1.415 . S
C1304 C1309 1.425 . S
C1304 C1311 1.409 . S
C1305 H1297 0.930 . S
C1305 C1303 1.419 . S
C1305 C1306 1.362 . S
C1306 H1298 0.930 . S
C1306 C1305 1.362 . S
C1306 C1309 1.409 . S
C1307 H1299 0.930 . S
C1307 C1308 1.355 . S
C1307 C1309 1.415 . S
C1308 C1307 1.355 . S
C1308 C1310 1.419 . S
C1309 C1304 1.425 . S
C1309 C1306 1.409 . S
C1309 C1307 1.415 . S
C1310 H1300 0.930 . S
C1310 C1308 1.419 . S
C1310 C1311 1.362 . S
C1311 H1301 0.930 . S
C1311 C1304 1.409 . S
C1311 C1310 1.362 . S
H1312 C1318 0.930 . S
H1313 C1321 0.930 . S
H1314 C1322 0.930 . S
H1315 C1323 0.930 . S
H1316 C1326 0.930 . S
H1317 C1327 0.930 . S
C1318 H1312 0.930 . S
C1318 C1319 1.355 . S
C1318 C1320 1.415 . S
C1319 C1318 1.355 . S
C1319 C1321 1.419 . S
C1320 C1318 1.415 . S
C1320 C1325 1.425 . S
C1320 C1327 1.409 . S
C1321 H1313 0.930 . S
C1321 C1319 1.419 . S
C1321 C1322 1.362 . S
C1322 H1314 0.930 . S
C1322 C1321 1.362 . S
C1322 C1325 1.409 . S
C1323 H1315 0.930 . S
C1323 C1324 1.355 . S
C1323 C1325 1.415 . S
C1324 C1323 1.355 . S
C1324 C1326 1.419 . S
C1325 C1320 1.425 . S
C1325 C1322 1.409 . S
C1325 C1323 1.415 . S
C1326 H1316 0.930 . S
C1326 C1324 1.419 . S
C1326 C1327 1.362 . S
C1327 H1317 0.930 . S
C1327 C1320 1.409 . S
C1327 C1326 1.362 . S
H1328 C1334 0.930 . S
H1329 C1337 0.930 . S
H1330 C1338 0.930 . S
H1331 C1339 0.930 . S
H1332 C1342 0.930 1_455 S
H1333 C1343 0.936 . S
C1334 H1328 0.930 . S
C1334 C1335 1.355 . S
C1334 C1336 1.415 . S
C1335 C1334 1.355 . S
C1335 C1337 1.419 . S
C1336 C1334 1.415 . S
C1336 C1341 1.425 . S
C1336 C1343 1.409 . S
C1337 H1329 0.930 . S
C1337 C1335 1.419 . S
C1337 C1338 1.362 . S
C1338 H1330 0.930 . S
C1338 C1337 1.362 . S
C1338 C1341 1.409 . S
C1339 H1331 0.930 . S
C1339 C1340 1.355 . S
C1339 C1341 1.415 . S
C1340 C1339 1.355 . S
C1340 C1342 1.419 . S
C1341 C1336 1.425 . S
C1341 C1338 1.409 . S
C1341 C1339 1.415 . S
C1342 H1332 0.930 1_655 S
C1342 C1340 1.419 . S
C1342 C1343 1.362 . S
C1343 H1333 0.936 . S
C1343 C1336 1.409 . S
C1343 C1342 1.362 . S
H1344 C1350 0.930 . S
H1345 C1353 0.930 . S
H1346 C1354 0.930 . S
H1347 C1355 0.930 . S
H1348 C1358 0.930 . S
H1349 C1359 0.930 . S
C1350 H1344 0.930 . S
C1350 C1351 1.355 . S
C1350 C1352 1.415 . S
C1351 C1350 1.355 . S
C1351 C1353 1.419 . S
C1352 C1350 1.415 . S
C1352 C1357 1.425 . S
C1352 C1359 1.409 . S
C1353 H1345 0.930 . S
C1353 C1351 1.419 . S
C1353 C1354 1.362 . S
C1354 H1346 0.930 . S
C1354 C1353 1.362 . S
C1354 C1357 1.409 . S
C1355 H1347 0.930 . S
C1355 C1356 1.355 . S
C1355 C1357 1.415 . S
C1356 C1355 1.355 . S
C1356 C1358 1.419 . S
C1357 C1352 1.425 . S
C1357 C1354 1.409 . S
C1357 C1355 1.415 . S
C1358 H1348 0.930 . S
C1358 C1356 1.419 . S
C1358 C1359 1.362 . S
C1359 H1349 0.930 . S
C1359 C1352 1.409 . S
C1359 C1358 1.362 . S
H1360 C1366 0.930 . S
H1361 C1369 0.930 . S
H1362 C1370 0.930 . S
H1363 C1371 0.930 . S
H1364 C1374 0.930 . S
H1365 C1375 0.930 . S
C1366 H1360 0.930 . S
C1366 C1367 1.355 . S
C1366 C1368 1.415 . S
C1367 C1366 1.355 . S
C1367 C1369 1.419 . S
C1368 C1366 1.415 . S
C1368 C1373 1.425 . S
C1368 C1375 1.409 . S
C1369 H1361 0.930 . S
C1369 C1367 1.419 . S
C1369 C1370 1.362 . S
C1370 H1362 0.930 . S
C1370 C1369 1.362 . S
C1370 C1373 1.409 . S
C1371 H1363 0.930 . S
C1371 C1372 1.355 . S
C1371 C1373 1.415 . S
C1372 C1371 1.355 . S
C1372 C1374 1.419 . S
C1373 C1368 1.425 . S
C1373 C1370 1.409 . S
C1373 C1371 1.415 . S
C1374 H1364 0.930 . S
C1374 C1372 1.419 . S
C1374 C1375 1.362 . S
C1375 H1365 0.930 . S
C1375 C1368 1.409 . S
C1375 C1374 1.362 . S
H1376 C1382 0.930 . S
H1377 C1385 0.930 . S
H1378 C1386 0.930 . S
H1379 C1387 0.930 . S
H1380 C1390 0.930 . S
H1381 C1391 0.930 . S
C1382 H1376 0.930 . S
C1382 C1383 1.355 . S
C1382 C1384 1.415 . S
C1383 C1382 1.355 . S
C1383 C1385 1.419 . S
C1384 C1382 1.415 . S
C1384 C1389 1.425 . S
C1384 C1391 1.409 . S
C1385 H1377 0.930 . S
C1385 C1383 1.419 . S
C1385 C1386 1.362 . S
C1386 H1378 0.930 . S
C1386 C1385 1.362 . S
C1386 C1389 1.409 . S
C1387 H1379 0.930 . S
C1387 C1388 1.355 . S
C1387 C1389 1.415 . S
C1388 C1387 1.355 . S
C1388 C1390 1.419 . S
C1389 C1384 1.425 . S
C1389 C1386 1.409 . S
C1389 C1387 1.415 . S
C1390 H1380 0.930 . S
C1390 C1388 1.419 . S
C1390 C1391 1.362 . S
C1391 H1381 0.930 . S
C1391 C1384 1.409 . S
C1391 C1390 1.362 . S
H1392 C1398 0.930 . S
H1393 C1401 0.930 . S
H1394 C1402 0.930 . S
H1395 C1403 0.930 1_455 S
H1396 C1406 0.930 . S
H1397 C1407 0.930 . S
C1398 H1392 0.930 . S
C1398 C1399 1.355 . S
C1398 C1400 1.415 . S
C1399 C1398 1.355 . S
C1399 C1401 1.419 . S
C1400 C1398 1.415 . S
C1400 C1405 1.425 . S
C1400 C1407 1.409 . S
C1401 H1393 0.930 . S
C1401 C1399 1.419 . S
C1401 C1402 1.362 . S
C1402 H1394 0.930 . S
C1402 C1401 1.362 . S
C1402 C1405 1.409 . S
C1403 H1395 0.930 1_655 S
C1403 C1404 1.355 . S
C1403 C1405 1.415 . S
C1404 C1403 1.355 . S
C1404 C1406 1.419 . S
C1405 C1400 1.425 . S
C1405 C1402 1.409 . S
C1405 C1403 1.415 . S
C1406 H1396 0.930 . S
C1406 C1404 1.419 . S
C1406 C1407 1.362 . S
C1407 H1397 0.930 . S
C1407 C1400 1.409 . S
C1407 C1406 1.362 . S
H1408 C1414 0.930 . S
H1409 C1417 0.930 . S
H1410 C1418 0.930 . S
H1411 C1419 0.930 . S
H1412 C1422 0.930 . S
H1413 C1423 0.930 . S
C1414 H1408 0.930 . S
C1414 C1415 1.355 . S
C1414 C1416 1.415 . S
C1415 C1414 1.355 . S
C1415 C1417 1.419 . S
C1416 C1414 1.415 . S
C1416 C1421 1.425 . S
C1416 C1423 1.409 . S
C1417 H1409 0.930 . S
C1417 C1415 1.419 . S
C1417 C1418 1.362 . S
C1418 H1410 0.930 . S
C1418 C1417 1.362 . S
C1418 C1421 1.409 . S
C1419 H1411 0.930 . S
C1419 C1420 1.355 . S
C1419 C1421 1.415 . S
C1420 C1419 1.355 . S
C1420 C1422 1.419 . S
C1421 C1416 1.425 . S
C1421 C1418 1.409 . S
C1421 C1419 1.415 . S
C1422 H1412 0.930 . S
C1422 C1420 1.419 . S
C1422 C1423 1.362 . S
C1423 H1413 0.930 . S
C1423 C1416 1.409 . S
C1423 C1422 1.362 . S
H1424 C1430 0.930 . S
H1425 C1433 0.930 . S
H1426 C1434 0.930 . S
H1427 C1435 0.930 . S
H1428 C1438 0.930 . S
H1429 C1439 0.930 . S
C1430 H1424 0.930 . S
C1430 C1431 1.355 . S
C1430 C1432 1.415 . S
C1431 C1430 1.355 . S
C1431 C1433 1.419 1_545 S
C1432 C1430 1.415 . S
C1432 C1437 1.425 . S
C1432 C1439 1.409 . S
C1433 H1425 0.930 . S
C1433 C1431 1.419 1_565 S
C1433 C1434 1.362 . S
C1434 H1426 0.930 . S
C1434 C1433 1.362 . S
C1434 C1437 1.409 1_565 S
C1435 H1427 0.930 . S
C1435 C1436 1.355 . S
C1435 C1437 1.415 . S
C1436 C1435 1.355 . S
C1436 C1438 1.419 . S
C1437 C1432 1.425 . S
C1437 C1434 1.409 1_545 S
C1437 C1435 1.415 . S
C1438 H1428 0.930 . S
C1438 C1436 1.419 . S
C1438 C1439 1.362 . S
C1439 H1429 0.930 . S
C1439 C1432 1.409 . S
C1439 C1438 1.362 . S
H1440 C1446 0.930 . S
H1441 C1449 0.930 . S
H1442 C1450 0.930 . S
H1443 C1451 0.930 . S
H1444 C1454 0.930 . S
H1445 C1455 0.930 . S
C1446 H1440 0.930 . S
C1446 C1447 1.355 . S
C1446 C1448 1.415 . S
C1447 C1446 1.355 . S
C1447 C1449 1.419 . S
C1448 C1446 1.415 . S
C1448 C1453 1.425 . S
C1448 C1455 1.409 . S
C1449 H1441 0.930 . S
C1449 C1447 1.419 . S
C1449 C1450 1.362 . S
C1450 H1442 0.930 . S
C1450 C1449 1.362 . S
C1450 C1453 1.409 . S
C1451 H1443 0.930 . S
C1451 C1452 1.355 . S
C1451 C1453 1.415 . S
C1452 C1451 1.355 . S
C1452 C1454 1.419 . S
C1453 C1448 1.425 . S
C1453 C1450 1.409 . S
C1453 C1451 1.415 . S
C1454 H1444 0.930 . S
C1454 C1452 1.419 . S
C1454 C1455 1.362 . S
C1455 H1445 0.930 . S
C1455 C1448 1.409 . S
C1455 C1454 1.362 . S
H1456 C1462 0.930 . S
H1457 C1465 0.930 . S
H1458 C1466 0.930 . S
H1459 C1467 0.930 . S
H1460 C1470 0.930 . S
H1461 C1471 0.930 . S
C1462 H1456 0.930 . S
C1462 C1463 1.355 . S
C1462 C1464 1.415 . S
C1463 C1462 1.355 . S
C1463 C1465 1.419 1_554 S
C1464 C1462 1.415 . S
C1464 C1469 1.425 . S
C1464 C1471 1.409 . S
C1465 H1457 0.930 . S
C1465 C1463 1.419 1_556 S
C1465 C1466 1.362 . S
C1466 H1458 0.930 . S
C1466 C1465 1.362 . S
C1466 C1469 1.409 1_556 S
C1467 H1459 0.930 . S
C1467 C1468 1.355 1_565 S
C1467 C1469 1.415 . S
C1468 C1467 1.355 1_545 S
C1468 C1470 1.419 . S
C1469 C1464 1.425 . S
C1469 C1466 1.409 1_554 S
C1469 C1467 1.415 . S
C1470 H1460 0.930 . S
C1470 C1468 1.419 . S
C1470 C1471 1.362 1_545 S
C1471 H1461 0.930 . S
C1471 C1464 1.409 . S
C1471 C1470 1.362 1_565 S
H1472 C1478 0.930 . S
H1473 C1481 0.930 . S
H1474 C1482 0.930 . S
H1475 C1483 0.930 . S
H1476 C1486 0.930 . S
H1477 C1487 0.930 . S
C1478 H1472 0.930 . S
C1478 C1479 1.355 1_556 S
C1478 C1480 1.415 . S
C1479 C1478 1.355 1_554 S
C1479 C1481 1.419 . S
C1480 C1478 1.415 . S
C1480 C1485 1.425 1_556 S
C1480 C1487 1.409 . S
C1481 H1473 0.930 . S
C1481 C1479 1.419 . S
C1481 C1482 1.362 . S
C1482 H1474 0.930 . S
C1482 C1481 1.362 . S
C1482 C1485 1.409 . S
C1483 H1475 0.930 . S
C1483 C1484 1.355 . S
C1483 C1485 1.415 . S
C1484 C1483 1.355 . S
C1484 C1486 1.419 1_554 S
C1485 C1480 1.425 1_554 S
C1485 C1482 1.409 . S
C1485 C1483 1.415 . S
C1486 H1476 0.930 . S
C1486 C1484 1.419 1_556 S
C1486 C1487 1.362 . S
C1487 H1477 0.930 . S
C1487 C1480 1.409 . S
C1487 C1486 1.362 . S
H1488 C1494 0.930 . S
H1489 C1497 0.930 . S
H1490 C1498 0.930 . S
H1491 C1499 0.930 . S
H1492 C1502 0.930 . S
H1493 C1503 0.930 . S
C1494 H1488 0.930 . S
C1494 C1495 1.355 . S
C1494 C1496 1.415 . S
C1495 C1494 1.355 . S
C1495 C1497 1.419 . S
C1496 C1494 1.415 . S
C1496 C1501 1.425 . S
C1496 C1503 1.409 . S
C1497 H1489 0.930 . S
C1497 C1495 1.419 . S
C1497 C1498 1.362 . S
C1498 H1490 0.930 . S
C1498 C1497 1.362 . S
C1498 C1501 1.409 . S
C1499 H1491 0.930 . S
C1499 C1500 1.355 . S
C1499 C1501 1.415 . S
C1500 C1499 1.355 . S
C1500 C1502 1.419 . S
C1501 C1496 1.425 . S
C1501 C1498 1.409 . S
C1501 C1499 1.415 . S
C1502 H1492 0.930 . S
C1502 C1500 1.419 . S
C1502 C1503 1.362 . S
C1503 H1493 0.930 . S
C1503 C1496 1.409 . S
C1503 C1502 1.362 . S
H1504 C1510 0.930 . S
H1505 C1513 0.930 . S
H1506 C1514 0.930 . S
H1507 C1515 0.930 . S
H1508 C1518 0.930 . S
H1509 C1519 0.930 . S
C1510 H1504 0.930 . S
C1510 C1511 1.355 . S
C1510 C1512 1.415 . S
C1511 C1510 1.355 . S
C1511 C1513 1.419 . S
C1512 C1510 1.415 . S
C1512 C1517 1.425 . S
C1512 C1519 1.409 . S
C1513 H1505 0.930 . S
C1513 C1511 1.419 . S
C1513 C1514 1.362 . S
C1514 H1506 0.930 . S
C1514 C1513 1.362 . S
C1514 C1517 1.409 . S
C1515 H1507 0.930 . S
C1515 C1516 1.355 . S
C1515 C1517 1.415 . S
C1516 C1515 1.355 . S
C1516 C1518 1.419 . S
C1517 C1512 1.425 . S
C1517 C1514 1.409 . S
C1517 C1515 1.415 . S
C1518 H1508 0.930 . S
C1518 C1516 1.419 . S
C1518 C1519 1.362 . S
C1519 H1509 0.930 . S
C1519 C1512 1.409 . S
C1519 C1518 1.362 . S
H1520 C1526 0.930 . S
H1521 C1529 0.930 . S
H1522 C1530 0.930 . S
H1523 C1531 0.930 . S
H1524 C1534 0.930 . S
H1525 C1535 0.930 . S
C1526 H1520 0.930 . S
C1526 C1527 1.355 . S
C1526 C1528 1.415 . S
C1527 C1526 1.355 . S
C1527 C1529 1.419 . S
C1528 C1526 1.415 . S
C1528 C1533 1.425 . S
C1528 C1535 1.409 . S
C1529 H1521 0.930 . S
C1529 C1527 1.419 . S
C1529 C1530 1.362 . S
C1530 H1522 0.930 . S
C1530 C1529 1.362 . S
C1530 C1533 1.409 . S
C1531 H1523 0.930 . S
C1531 C1532 1.355 . S
C1531 C1533 1.415 . S
C1532 C1531 1.355 . S
C1532 C1534 1.419 . S
C1533 C1528 1.425 . S
C1533 C1530 1.409 . S
C1533 C1531 1.415 . S
C1534 H1524 0.930 . S
C1534 C1532 1.419 . S
C1534 C1535 1.362 . S
C1535 H1525 0.930 . S
C1535 C1528 1.409 . S
C1535 C1534 1.362 . S
H1536 C1542 0.930 . S
H1537 C1545 0.930 . S
H1538 C1546 0.930 . S
H1539 C1547 0.930 . S
H1540 C1550 0.930 . S
H1541 C1551 0.930 . S
C1542 H1536 0.930 . S
C1542 C1543 1.355 . S
C1542 C1544 1.415 . S
C1543 C1542 1.355 . S
C1543 C1545 1.419 . S
C1544 C1542 1.415 . S
C1544 C1549 1.425 . S
C1544 C1551 1.409 . S
C1545 H1537 0.930 . S
C1545 C1543 1.419 . S
C1545 C1546 1.362 . S
C1546 H1538 0.930 . S
C1546 C1545 1.362 . S
C1546 C1549 1.409 . S
C1547 H1539 0.930 . S
C1547 C1548 1.355 . S
C1547 C1549 1.415 . S
C1548 C1547 1.355 . S
C1548 C1550 1.419 . S
C1549 C1544 1.425 . S
C1549 C1546 1.409 . S
C1549 C1547 1.415 . S
C1550 H1540 0.930 . S
C1550 C1548 1.419 . S
C1550 C1551 1.362 . S
C1551 H1541 0.930 . S
C1551 C1544 1.409 . S
C1551 C1550 1.362 . S
H1552 C1558 0.930 . S
H1553 C1561 0.930 . S
H1554 C1562 0.930 . S
H1555 C1563 0.930 . S
H1556 C1566 0.930 . S
H1557 C1567 0.930 . S
C1558 H1552 0.930 . S
C1558 C1559 1.355 . S
C1558 C1560 1.415 . S
C1559 C1558 1.355 . S
C1559 C1561 1.419 . S
C1560 C1558 1.415 . S
C1560 C1565 1.425 . S
C1560 C1567 1.409 . S
C1561 H1553 0.930 . S
C1561 C1559 1.419 . S
C1561 C1562 1.362 . S
C1562 H1554 0.930 . S
C1562 C1561 1.362 . S
C1562 C1565 1.409 . S
C1563 H1555 0.930 . S
C1563 C1564 1.355 . S
C1563 C1565 1.415 . S
C1564 C1563 1.355 . S
C1564 C1566 1.419 . S
C1565 C1560 1.425 . S
C1565 C1562 1.409 . S
C1565 C1563 1.415 . S
C1566 H1556 0.930 . S
C1566 C1564 1.419 . S
C1566 C1567 1.362 . S
C1567 H1557 0.930 . S
C1567 C1560 1.409 . S
C1567 C1566 1.362 . S
H1568 C1574 0.930 . S
H1569 C1577 0.930 . S
H1570 C1578 0.930 . S
H1571 C1579 0.930 . S
H1572 C1582 0.930 . S
H1573 C1583 0.930 . S
C1574 H1568 0.930 . S
C1574 C1575 1.355 . S
C1574 C1576 1.415 . S
C1575 C1574 1.355 . S
C1575 C1577 1.419 . S
C1576 C1574 1.415 . S
C1576 C1581 1.425 . S
C1576 C1583 1.409 . S
C1577 H1569 0.930 . S
C1577 C1575 1.419 . S
C1577 C1578 1.362 . S
C1578 H1570 0.930 . S
C1578 C1577 1.362 . S
C1578 C1581 1.409 . S
C1579 H1571 0.930 . S
C1579 C1580 1.355 . S
C1579 C1581 1.415 . S
C1580 C1579 1.355 . S
C1580 C1582 1.419 . S
C1581 C1576 1.425 . S
C1581 C1578 1.409 . S
C1581 C1579 1.415 . S
C1582 H1572 0.930 . S
C1582 C1580 1.419 . S
C1582 C1583 1.362 . S
C1583 H1573 0.930 . S
C1583 C1576 1.409 . S
C1583 C1582 1.362 . S
H1584 C1590 0.930 . S
H1585 C1593 0.930 . S
H1586 C1594 0.930 . S
H1587 C1595 0.930 . S
H1588 C1598 0.930 . S
H1589 C1599 0.930 . S
C1590 H1584 0.930 . S
C1590 C1591 1.355 . S
C1590 C1592 1.415 . S
C1591 C1590 1.355 . S
C1591 C1593 1.419 . S
C1592 C1590 1.415 . S
C1592 C1597 1.425 . S
C1592 C1599 1.409 . S
C1593 H1585 0.930 . S
C1593 C1591 1.419 . S
C1593 C1594 1.362 . S
C1594 H1586 0.930 . S
C1594 C1593 1.362 . S
C1594 C1597 1.409 . S
C1595 H1587 0.930 . S
C1595 C1596 1.355 . S
C1595 C1597 1.415 . S
C1596 C1595 1.355 . S
C1596 C1598 1.419 . S
C1597 C1592 1.425 . S
C1597 C1594 1.409 . S
C1597 C1595 1.415 . S
C1598 H1588 0.930 . S
C1598 C1596 1.419 . S
C1598 C1599 1.362 . S
C1599 H1589 0.930 . S
C1599 C1592 1.409 . S
C1599 C1598 1.362 . S
H1600 C1606 0.930 . S
H1601 C1609 0.930 . S
H1602 C1610 0.930 . S
H1603 C1611 0.930 . S
H1604 C1614 0.930 . S
H1605 C1615 0.930 . S
C1606 H1600 0.930 . S
C1606 C1607 1.355 . S
C1606 C1608 1.415 . S
C1607 C1606 1.355 . S
C1607 C1609 1.419 . S
C1608 C1606 1.415 . S
C1608 C1613 1.425 . S
C1608 C1615 1.409 . S
C1609 H1601 0.930 . S
C1609 C1607 1.419 . S
C1609 C1610 1.362 . S
C1610 H1602 0.930 . S
C1610 C1609 1.362 . S
C1610 C1613 1.409 . S
C1611 H1603 0.930 . S
C1611 C1612 1.355 . S
C1611 C1613 1.415 . S
C1612 C1611 1.355 . S
C1612 C1614 1.419 . S
C1613 C1608 1.425 . S
C1613 C1610 1.409 . S
C1613 C1611 1.415 . S
C1614 H1604 0.930 . S
C1614 C1612 1.419 . S
C1614 C1615 1.362 . S
C1615 H1605 0.930 . S
C1615 C1608 1.409 . S
C1615 C1614 1.362 . S
H1616 C1622 0.930 . S
H1617 C1625 0.930 . S
H1618 C1626 0.930 . S
H1619 C1627 0.930 . S
H1620 C1630 0.930 . S
H1621 C1631 0.930 . S
C1622 H1616 0.930 . S
C1622 C1623 1.355 . S
C1622 C1624 1.415 . S
C1623 C1622 1.355 . S
C1623 C1625 1.419 . S
C1624 C1622 1.415 . S
C1624 C1629 1.425 . S
C1624 C1631 1.409 . S
C1625 H1617 0.930 . S
C1625 C1623 1.419 . S
C1625 C1626 1.362 . S
C1626 H1618 0.930 . S
C1626 C1625 1.362 . S
C1626 C1629 1.409 . S
C1627 H1619 0.930 . S
C1627 C1628 1.355 . S
C1627 C1629 1.415 . S
C1628 C1627 1.355 . S
C1628 C1630 1.419 . S
C1629 C1624 1.425 . S
C1629 C1626 1.409 . S
C1629 C1627 1.415 . S
C1630 H1620 0.930 . S
C1630 C1628 1.419 . S
C1630 C1631 1.362 . S
C1631 H1621 0.930 . S
C1631 C1624 1.409 . S
C1631 C1630 1.362 . S
H1632 C1638 0.930 . S
H1633 C1641 0.930 1_455 S
H1634 C1642 0.930 . S
H1635 C1643 0.930 . S
H1636 C1646 0.930 . S
H1637 C1647 0.930 . S
C1638 H1632 0.930 . S
C1638 C1639 1.355 . S
C1638 C1640 1.415 . S
C1639 C1638 1.355 . S
C1639 C1641 1.419 . S
C1640 C1638 1.415 . S
C1640 C1645 1.425 . S
C1640 C1647 1.409 . S
C1641 H1633 0.930 1_655 S
C1641 C1639 1.419 . S
C1641 C1642 1.362 . S
C1642 H1634 0.930 . S
C1642 C1641 1.362 . S
C1642 C1645 1.409 . S
C1643 H1635 0.930 . S
C1643 C1644 1.355 . S
C1643 C1645 1.415 . S
C1644 C1643 1.355 . S
C1644 C1646 1.419 . S
C1645 C1640 1.425 . S
C1645 C1642 1.409 . S
C1645 C1643 1.415 . S
C1646 H1636 0.930 . S
C1646 C1644 1.419 . S
C1646 C1647 1.362 . S
C1647 H1637 0.930 . S
C1647 C1640 1.409 . S
C1647 C1646 1.362 . S
H1648 C1654 0.930 . S
H1649 C1657 0.930 . S
H1650 C1658 0.930 1_554 S
H1651 C1659 0.930 1_554 S
H1652 C1662 0.930 . S
H1653 C1663 0.930 . S
C1654 H1648 0.930 . S
C1654 C1655 1.355 . S
C1654 C1656 1.415 . S
C1655 C1654 1.355 . S
C1655 C1657 1.419 . S
C1656 C1654 1.415 . S
C1656 C1661 1.425 . S
C1656 C1663 1.409 . S
C1657 H1649 0.930 . S
C1657 C1655 1.419 . S
C1657 C1658 1.362 . S
C1658 H1650 0.930 1_556 S
C1658 C1657 1.362 . S
C1658 C1661 1.409 . S
C1659 H1651 0.930 1_556 S
C1659 C1660 1.355 . S
C1659 C1661 1.415 . S
C1660 C1659 1.355 . S
C1660 C1662 1.419 . S
C1661 C1656 1.425 . S
C1661 C1658 1.409 . S
C1661 C1659 1.415 . S
C1662 H1652 0.930 . S
C1662 C1660 1.419 . S
C1662 C1663 1.362 . S
C1663 H1653 0.930 . S
C1663 C1656 1.409 . S
C1663 C1662 1.362 . S
H1664 C1670 0.930 . S
H1665 C1673 0.930 . S
H1666 C1674 0.930 . S
H1667 C1675 0.930 . S
H1668 C1678 0.930 . S
H1669 C1679 0.930 . S
C1670 H1664 0.930 . S
C1670 C1671 1.355 . S
C1670 C1672 1.415 . S
C1671 C1670 1.355 . S
C1671 C1673 1.419 . S
C1672 C1670 1.415 . S
C1672 C1677 1.425 . S
C1672 C1679 1.409 . S
C1673 H1665 0.930 . S
C1673 C1671 1.419 . S
C1673 C1674 1.362 . S
C1674 H1666 0.930 . S
C1674 C1673 1.362 . S
C1674 C1677 1.409 . S
C1675 H1667 0.930 . S
C1675 C1676 1.355 . S
C1675 C1677 1.415 . S
C1676 C1675 1.355 . S
C1676 C1678 1.419 . S
C1677 C1672 1.425 . S
C1677 C1674 1.409 . S
C1677 C1675 1.415 . S
C1678 H1668 0.930 . S
C1678 C1676 1.419 . S
C1678 C1679 1.362 . S
C1679 H1669 0.930 . S
C1679 C1672 1.409 . S
C1679 C1678 1.362 . S
H1680 C1686 0.930 . S
H1681 C1689 0.930 . S
H1682 C1690 0.930 . S
H1683 C1691 0.930 . S
H1684 C1694 0.930 . S
H1685 C1695 0.930 . S
C1686 H1680 0.930 . S
C1686 C1687 1.355 . S
C1686 C1688 1.415 . S
C1687 C1686 1.355 . S
C1687 C1689 1.419 . S
C1688 C1686 1.415 . S
C1688 C1693 1.425 . S
C1688 C1695 1.409 . S
C1689 H1681 0.930 . S
C1689 C1687 1.419 . S
C1689 C1690 1.362 . S
C1690 H1682 0.930 . S
C1690 C1689 1.362 . S
C1690 C1693 1.409 . S
C1691 H1683 0.930 . S
C1691 C1692 1.355 . S
C1691 C1693 1.415 . S
C1692 C1691 1.355 . S
C1692 C1694 1.419 . S
C1693 C1688 1.425 . S
C1693 C1690 1.409 . S
C1693 C1691 1.415 . S
C1694 H1684 0.930 . S
C1694 C1692 1.419 . S
C1694 C1695 1.362 . S
C1695 H1685 0.930 . S
C1695 C1688 1.409 . S
C1695 C1694 1.362 . S
H1696 C1702 0.930 . S
H1697 C1705 0.930 . S
H1698 C1706 0.930 . S
H1699 C1707 0.930 . S
H1700 C1710 0.930 . S
H1701 C1711 0.930 . S
C1702 H1696 0.930 . S
C1702 C1703 1.355 . S
C1702 C1704 1.415 . S
C1703 C1702 1.355 . S
C1703 C1705 1.419 . S
C1704 C1702 1.415 . S
C1704 C1709 1.425 . S
C1704 C1711 1.409 . S
C1705 H1697 0.930 . S
C1705 C1703 1.419 . S
C1705 C1706 1.362 . S
C1706 H1698 0.930 . S
C1706 C1705 1.362 . S
C1706 C1709 1.409 . S
C1707 H1699 0.930 . S
C1707 C1708 1.355 . S
C1707 C1709 1.415 . S
C1708 C1707 1.355 . S
C1708 C1710 1.419 . S
C1709 C1704 1.425 . S
C1709 C1706 1.409 . S
C1709 C1707 1.415 . S
C1710 H1700 0.930 . S
C1710 C1708 1.419 . S
C1710 C1711 1.362 . S
C1711 H1701 0.930 . S
C1711 C1704 1.409 . S
C1711 C1710 1.362 . S
H1712 C1718 0.930 . S
H1713 C1721 0.930 . S
H1714 C1722 0.930 . S
H1715 C1723 0.930 . S
H1716 C1726 0.930 . S
H1717 C1727 0.930 . S
C1718 H1712 0.930 . S
C1718 C1719 1.355 . S
C1718 C1720 1.415 . S
C1719 C1718 1.355 . S
C1719 C1721 1.419 . S
C1720 C1718 1.415 . S
C1720 C1725 1.425 . S
C1720 C1727 1.409 . S
C1721 H1713 0.930 . S
C1721 C1719 1.419 . S
C1721 C1722 1.362 . S
C1722 H1714 0.930 . S
C1722 C1721 1.362 . S
C1722 C1725 1.409 . S
C1723 H1715 0.930 . S
C1723 C1724 1.355 . S
C1723 C1725 1.415 . S
C1724 C1723 1.355 . S
C1724 C1726 1.419 . S
C1725 C1720 1.425 . S
C1725 C1722 1.409 . S
C1725 C1723 1.415 . S
C1726 H1716 0.930 . S
C1726 C1724 1.419 . S
C1726 C1727 1.362 . S
C1727 H1717 0.930 . S
C1727 C1720 1.409 . S
C1727 C1726 1.362 . S
H1728 C1734 0.930 . S
H1729 C1737 0.930 . S
H1730 C1738 0.930 . S
H1731 C1739 0.930 . S
H1732 C1742 0.930 . S
H1733 C1743 0.930 . S
C1734 H1728 0.930 . S
C1734 C1735 1.355 . S
C1734 C1736 1.415 . S
C1735 C1734 1.355 . S
C1735 C1737 1.419 . S
C1736 C1734 1.415 . S
C1736 C1741 1.425 . S
C1736 C1743 1.409 . S
C1737 H1729 0.930 . S
C1737 C1735 1.419 . S
C1737 C1738 1.362 . S
C1738 H1730 0.930 . S
C1738 C1737 1.362 . S
C1738 C1741 1.409 . S
C1739 H1731 0.930 . S
C1739 C1740 1.355 . S
C1739 C1741 1.415 . S
C1740 C1739 1.355 . S
C1740 C1742 1.419 . S
C1741 C1736 1.425 . S
C1741 C1738 1.409 . S
C1741 C1739 1.415 . S
C1742 H1732 0.930 . S
C1742 C1740 1.419 . S
C1742 C1743 1.362 . S
C1743 H1733 0.930 . S
C1743 C1736 1.409 . S
C1743 C1742 1.362 . S
H1744 C1750 0.930 . S
H1745 C1753 0.930 . S
H1746 C1754 0.930 . S
H1747 C1755 0.930 . S
H1748 C1758 0.930 . S
H1749 C1759 0.939 . S
C1750 H1744 0.930 . S
C1750 C1751 1.355 . S
C1750 C1752 1.415 . S
C1751 C1750 1.355 . S
C1751 C1753 1.419 . S
C1752 C1750 1.415 . S
C1752 C1757 1.425 . S
C1752 C1759 1.394 1_655 S
C1753 H1745 0.930 . S
C1753 C1751 1.419 . S
C1753 C1754 1.362 . S
C1754 H1746 0.930 . S
C1754 C1753 1.362 . S
C1754 C1757 1.409 . S
C1755 H1747 0.930 . S
C1755 C1756 1.355 . S
C1755 C1757 1.415 . S
C1756 C1755 1.355 . S
C1756 C1758 1.419 1_655 S
C1757 C1752 1.425 . S
C1757 C1754 1.409 . S
C1757 C1755 1.415 . S
C1758 H1748 0.930 . S
C1758 C1756 1.419 1_455 S
C1758 C1759 1.369 . S
C1759 H1749 0.939 . S
C1759 C1752 1.394 1_455 S
C1759 C1758 1.369 . S
H1760 C1766 0.930 . S
H1761 C1769 0.930 . S
H1762 C1770 0.930 . S
H1763 C1771 0.930 . S
H1764 C1774 0.930 . S
H1765 C1775 0.930 . S
C1766 H1760 0.930 . S
C1766 C1767 1.355 . S
C1766 C1768 1.415 . S
C1767 C1766 1.355 . S
C1767 C1769 1.419 . S
C1768 C1766 1.415 . S
C1768 C1773 1.425 . S
C1768 C1775 1.409 . S
C1769 H1761 0.930 . S
C1769 C1767 1.419 . S
C1769 C1770 1.362 . S
C1770 H1762 0.930 . S
C1770 C1769 1.362 . S
C1770 C1773 1.409 . S
C1771 H1763 0.930 . S
C1771 C1772 1.355 . S
C1771 C1773 1.415 . S
C1772 C1771 1.355 . S
C1772 C1774 1.419 . S
C1773 C1768 1.425 . S
C1773 C1770 1.409 . S
C1773 C1771 1.415 . S
C1774 H1764 0.930 . S
C1774 C1772 1.419 . S
C1774 C1775 1.362 . S
C1775 H1765 0.930 . S
C1775 C1768 1.409 . S
C1775 C1774 1.362 . S
H1776 C1782 0.930 . S
H1777 C1785 0.930 . S
H1778 C1786 0.930 . S
H1779 C1787 0.930 . S
H1780 C1790 0.930 . S
H1781 C1791 0.930 . S
C1782 H1776 0.930 . S
C1782 C1783 1.355 . S
C1782 C1784 1.415 . S
C1783 C1782 1.355 . S
C1783 C1785 1.419 . S
C1784 C1782 1.415 . S
C1784 C1789 1.425 . S
C1784 C1791 1.409 . S
C1785 H1777 0.930 . S
C1785 C1783 1.419 . S
C1785 C1786 1.362 . S
C1786 H1778 0.930 . S
C1786 C1785 1.362 . S
C1786 C1789 1.409 . S
C1787 H1779 0.930 . S
C1787 C1788 1.355 . S
C1787 C1789 1.415 . S
C1788 C1787 1.355 . S
C1788 C1790 1.419 . S
C1789 C1784 1.425 . S
C1789 C1786 1.409 . S
C1789 C1787 1.415 . S
C1790 H1780 0.930 . S
C1790 C1788 1.419 . S
C1790 C1791 1.362 . S
C1791 H1781 0.930 . S
C1791 C1784 1.409 . S
C1791 C1790 1.362 . S
H1792 C1798 0.930 . S
H1793 C1801 0.930 . S
H1794 C1802 0.930 . S
H1795 C1803 0.930 . S
H1796 C1806 0.930 . S
H1797 C1807 0.930 . S
C1798 H1792 0.930 . S
C1798 C1799 1.355 . S
C1798 C1800 1.415 . S
C1799 C1798 1.355 . S
C1799 C1801 1.419 . S
C1800 C1798 1.415 . S
C1800 C1805 1.425 . S
C1800 C1807 1.409 . S
C1801 H1793 0.930 . S
C1801 C1799 1.419 . S
C1801 C1802 1.362 . S
C1802 H1794 0.930 . S
C1802 C1801 1.362 . S
C1802 C1805 1.409 . S
C1803 H1795 0.930 . S
C1803 C1804 1.355 . S
C1803 C1805 1.415 . S
C1804 C1803 1.355 . S
C1804 C1806 1.419 . S
C1805 C1800 1.425 . S
C1805 C1802 1.409 . S
C1805 C1803 1.415 . S
C1806 H1796 0.930 . S
C1806 C1804 1.419 . S
C1806 C1807 1.362 . S
C1807 H1797 0.930 . S
C1807 C1800 1.409 . S
C1807 C1806 1.362 . S
H1808 C1814 0.930 . S
H1809 C1817 0.930 . S
H1810 C1818 0.930 1_455 S
H1811 C1819 0.930 1_455 S
H1812 C1822 0.930 . S
H1813 C1823 0.930 . S
C1814 H1808 0.930 . S
C1814 C1815 1.355 . S
C1814 C1816 1.415 . S
C1815 C1814 1.355 . S
C1815 C1817 1.419 . S
C1816 C1814 1.415 . S
C1816 C1821 1.425 . S
C1816 C1823 1.409 . S
C1817 H1809 0.930 . S
C1817 C1815 1.419 . S
C1817 C1818 1.362 . S
C1818 H1810 0.930 1_655 S
C1818 C1817 1.362 . S
C1818 C1821 1.409 . S
C1819 H1811 0.930 1_655 S
C1819 C1820 1.355 . S
C1819 C1821 1.415 . S
C1820 C1819 1.355 . S
C1820 C1822 1.419 . S
C1821 C1816 1.425 . S
C1821 C1818 1.409 . S
C1821 C1819 1.415 . S
C1822 H1812 0.930 . S
C1822 C1820 1.419 . S
C1822 C1823 1.362 . S
C1823 H1813 0.930 . S
C1823 C1816 1.409 . S
C1823 C1822 1.362 . S
H1824 C1830 0.930 . S
H1825 C1833 0.930 . S
H1826 C1834 0.930 . S
H1827 C1835 0.930 . S
H1828 C1838 0.930 . S
H1829 C1839 0.930 . S
C1830 H1824 0.930 . S
C1830 C1831 1.355 . S
C1830 C1832 1.415 . S
C1831 C1830 1.355 . S
C1831 C1833 1.419 . S
C1832 C1830 1.415 . S
C1832 C1837 1.425 . S
C1832 C1839 1.409 . S
C1833 H1825 0.930 . S
C1833 C1831 1.419 . S
C1833 C1834 1.362 . S
C1834 H1826 0.930 . S
C1834 C1833 1.362 . S
C1834 C1837 1.409 . S
C1835 H1827 0.930 . S
C1835 C1836 1.355 . S
C1835 C1837 1.415 . S
C1836 C1835 1.355 . S
C1836 C1838 1.419 . S
C1837 C1832 1.425 . S
C1837 C1834 1.409 . S
C1837 C1835 1.415 . S
C1838 H1828 0.930 . S
C1838 C1836 1.419 . S
C1838 C1839 1.362 . S
C1839 H1829 0.930 . S
C1839 C1832 1.409 . S
C1839 C1838 1.362 . S
H1840 C1846 0.930 . S
H1841 C1849 0.930 . S
H1842 C1850 0.930 . S
H1843 C1851 0.930 . S
H1844 C1854 0.930 . S
H1845 C1855 0.930 . S
C1846 H1840 0.930 . S
C1846 C1847 1.355 . S
C1846 C1848 1.415 . S
C1847 C1846 1.355 . S
C1847 C1849 1.419 . S
C1848 C1846 1.415 . S
C1848 C1853 1.425 . S
C1848 C1855 1.409 . S
C1849 H1841 0.930 . S
C1849 C1847 1.419 . S
C1849 C1850 1.362 . S
C1850 H1842 0.930 . S
C1850 C1849 1.362 . S
C1850 C1853 1.409 . S
C1851 H1843 0.930 . S
C1851 C1852 1.355 . S
C1851 C1853 1.415 . S
C1852 C1851 1.355 . S
C1852 C1854 1.419 . S
C1853 C1848 1.425 . S
C1853 C1850 1.409 . S
C1853 C1851 1.415 . S
C1854 H1844 0.930 . S
C1854 C1852 1.419 . S
C1854 C1855 1.362 . S
C1855 H1845 0.930 . S
C1855 C1848 1.409 . S
C1855 C1854 1.362 . S
H1856 C1862 0.930 . S
H1857 C1865 0.930 . S
H1858 C1866 0.930 1_545 S
H1859 C1867 0.930 . S
H1860 C1870 0.930 . S
H1861 C1871 0.930 . S
C1862 H1856 0.930 . S
C1862 C1863 1.355 . S
C1862 C1864 1.415 . S
C1863 C1862 1.355 . S
C1863 C1865 1.419 . S
C1864 C1862 1.415 . S
C1864 C1869 1.425 . S
C1864 C1871 1.409 . S
C1865 H1857 0.930 . S
C1865 C1863 1.419 . S
C1865 C1866 1.362 . S
C1866 H1858 0.930 1_565 S
C1866 C1865 1.362 . S
C1866 C1869 1.409 . S
C1867 H1859 0.930 . S
C1867 C1868 1.355 . S
C1867 C1869 1.415 1_545 S
C1868 C1867 1.355 . S
C1868 C1870 1.419 1_545 S
C1869 C1864 1.425 . S
C1869 C1866 1.409 . S
C1869 C1867 1.415 1_565 S
C1870 H1860 0.930 . S
C1870 C1868 1.419 1_565 S
C1870 C1871 1.362 . S
C1871 H1861 0.930 . S
C1871 C1864 1.409 . S
C1871 C1870 1.362 . S
H1872 C1878 0.930 . S
H1873 C1881 0.930 . S
H1874 C1882 0.930 . S
H1875 C1883 0.930 . S
H1876 C1886 0.930 . S
H1877 C1887 0.930 . S
C1878 H1872 0.930 . S
C1878 C1879 1.355 . S
C1878 C1880 1.415 . S
C1879 C1878 1.355 . S
C1879 C1881 1.419 . S
C1880 C1878 1.415 . S
C1880 C1885 1.425 . S
C1880 C1887 1.409 . S
C1881 H1873 0.930 . S
C1881 C1879 1.419 . S
C1881 C1882 1.362 . S
C1882 H1874 0.930 . S
C1882 C1881 1.362 . S
C1882 C1885 1.409 . S
C1883 H1875 0.930 . S
C1883 C1884 1.355 . S
C1883 C1885 1.415 . S
C1884 C1883 1.355 . S
C1884 C1886 1.419 . S
C1885 C1880 1.425 . S
C1885 C1882 1.409 . S
C1885 C1883 1.415 . S
C1886 H1876 0.930 . S
C1886 C1884 1.419 . S
C1886 C1887 1.362 . S
C1887 H1877 0.930 . S
C1887 C1880 1.409 . S
C1887 C1886 1.362 . S
H1888 C1894 0.930 . S
H1889 C1897 0.930 . S
H1890 C1898 0.930 . S
H1891 C1899 0.930 . S
H1892 C1902 0.930 . S
H1893 C1903 0.930 . S
C1894 H1888 0.930 . S
C1894 C1895 1.355 . S
C1894 C1896 1.415 . S
C1895 C1894 1.355 . S
C1895 C1897 1.419 . S
C1896 C1894 1.415 . S
C1896 C1901 1.425 . S
C1896 C1903 1.409 . S
C1897 H1889 0.930 . S
C1897 C1895 1.419 . S
C1897 C1898 1.362 . S
C1898 H1890 0.930 . S
C1898 C1897 1.362 . S
C1898 C1901 1.409 . S
C1899 H1891 0.930 . S
C1899 C1900 1.355 . S
C1899 C1901 1.415 . S
C1900 C1899 1.355 . S
C1900 C1902 1.419 . S
C1901 C1896 1.425 . S
C1901 C1898 1.409 . S
C1901 C1899 1.415 . S
C1902 H1892 0.930 . S
C1902 C1900 1.419 . S
C1902 C1903 1.362 . S
C1903 H1893 0.930 . S
C1903 C1896 1.409 . S
C1903 C1902 1.362 . S
H1904 C1910 0.930 . S
H1905 C1913 0.930 . S
H1906 C1914 0.930 . S
H1907 C1915 0.930 . S
H1908 C1918 0.930 . S
H1909 C1919 0.930 . S
C1910 H1904 0.930 . S
C1910 C1911 1.355 . S
C1910 C1912 1.415 . S
C1911 C1910 1.355 . S
C1911 C1913 1.419 . S
C1912 C1910 1.415 . S
C1912 C1917 1.425 . S
C1912 C1919 1.409 . S
C1913 H1905 0.930 . S
C1913 C1911 1.419 . S
C1913 C1914 1.362 . S
C1914 H1906 0.930 . S
C1914 C1913 1.362 . S
C1914 C1917 1.409 . S
C1915 H1907 0.930 . S
C1915 C1916 1.355 . S
C1915 C1917 1.415 . S
C1916 C1915 1.355 . S
C1916 C1918 1.419 . S
C1917 C1912 1.425 . S
C1917 C1914 1.409 . S
C1917 C1915 1.415 . S
C1918 H1908 0.930 . S
C1918 C1916 1.419 . S
C1918 C1919 1.362 . S
C1919 H1909 0.930 . S
C1919 C1912 1.409 . S
C1919 C1918 1.362 . S
H1920 C1926 0.930 . S
H1921 C1929 0.930 . S
H1922 C1930 0.930 . S
H1923 C1931 0.930 . S
H1924 C1934 0.930 . S
H1925 C1935 0.930 . S
C1926 H1920 0.930 . S
C1926 C1927 1.355 . S
C1926 C1928 1.415 . S
C1927 C1926 1.355 . S
C1927 C1929 1.419 . S
C1928 C1926 1.415 . S
C1928 C1933 1.425 . S
C1928 C1935 1.409 . S
C1929 H1921 0.930 . S
C1929 C1927 1.419 . S
C1929 C1930 1.362 . S
C1930 H1922 0.930 . S
C1930 C1929 1.362 . S
C1930 C1933 1.409 . S
C1931 H1923 0.930 . S
C1931 C1932 1.355 . S
C1931 C1933 1.415 . S
C1932 C1931 1.355 . S
C1932 C1934 1.419 . S
C1933 C1928 1.425 . S
C1933 C1930 1.409 . S
C1933 C1931 1.415 . S
C1934 H1924 0.930 . S
C1934 C1932 1.419 . S
C1934 C1935 1.362 . S
C1935 H1925 0.930 . S
C1935 C1928 1.409 . S
C1935 C1934 1.362 . S
H1936 C1942 0.930 . S
H1937 C1945 0.930 . S
H1938 C1946 0.930 . S
H1939 C1947 0.930 . S
H1940 C1950 0.930 . S
H1941 C1951 0.930 . S
C1942 H1936 0.930 . S
C1942 C1943 1.355 . S
C1942 C1944 1.415 . S
C1943 C1942 1.355 . S
C1943 C1945 1.419 . S
C1944 C1942 1.415 . S
C1944 C1949 1.425 . S
C1944 C1951 1.409 . S
C1945 H1937 0.930 . S
C1945 C1943 1.419 . S
C1945 C1946 1.362 . S
C1946 H1938 0.930 . S
C1946 C1945 1.362 . S
C1946 C1949 1.409 . S
C1947 H1939 0.930 . S
C1947 C1948 1.355 . S
C1947 C1949 1.415 . S
C1948 C1947 1.355 . S
C1948 C1950 1.419 . S
C1949 C1944 1.425 . S
C1949 C1946 1.409 . S
C1949 C1947 1.415 . S
C1950 H1940 0.930 . S
C1950 C1948 1.419 . S
C1950 C1951 1.362 . S
C1951 H1941 0.930 . S
C1951 C1944 1.409 . S
C1951 C1950 1.362 . S
H1952 C1958 0.930 . S
H1953 C1961 0.930 . S
H1954 C1962 0.930 . S
H1955 C1963 0.930 . S
H1956 C1966 0.930 . S
H1957 C1967 0.930 . S
C1958 H1952 0.930 . S
C1958 C1959 1.355 . S
C1958 C1960 1.415 . S
C1959 C1958 1.355 . S
C1959 C1961 1.419 . S
C1960 C1958 1.415 . S
C1960 C1965 1.425 . S
C1960 C1967 1.409 . S
C1961 H1953 0.930 . S
C1961 C1959 1.419 . S
C1961 C1962 1.362 . S
C1962 H1954 0.930 . S
C1962 C1961 1.362 . S
C1962 C1965 1.409 . S
C1963 H1955 0.930 . S
C1963 C1964 1.355 . S
C1963 C1965 1.415 . S
C1964 C1963 1.355 . S
C1964 C1966 1.419 . S
C1965 C1960 1.425 . S
C1965 C1962 1.409 . S
C1965 C1963 1.415 . S
C1966 H1956 0.930 . S
C1966 C1964 1.419 . S
C1966 C1967 1.362 . S
C1967 H1957 0.930 . S
C1967 C1960 1.409 . S
C1967 C1966 1.362 . S
H1968 C1974 0.930 . S
H1969 C1977 0.930 . S
H1970 C1978 0.930 . S
H1971 C1979 0.930 . S
H1972 C1982 0.930 . S
H1973 C1983 0.930 . S
C1974 H1968 0.930 . S
C1974 C1975 1.355 . S
C1974 C1976 1.415 . S
C1975 C1974 1.355 . S
C1975 C1977 1.419 . S
C1976 C1974 1.415 . S
C1976 C1981 1.425 . S
C1976 C1983 1.409 . S
C1977 H1969 0.930 . S
C1977 C1975 1.419 . S
C1977 C1978 1.362 . S
C1978 H1970 0.930 . S
C1978 C1977 1.362 . S
C1978 C1981 1.409 . S
C1979 H1971 0.930 . S
C1979 C1980 1.355 . S
C1979 C1981 1.415 . S
C1980 C1979 1.355 . S
C1980 C1982 1.419 . S
C1981 C1976 1.425 . S
C1981 C1978 1.409 . S
C1981 C1979 1.415 . S
C1982 H1972 0.930 . S
C1982 C1980 1.419 . S
C1982 C1983 1.362 . S
C1983 H1973 0.930 . S
C1983 C1976 1.409 . S
C1983 C1982 1.362 . S
H1984 C1990 0.930 . S
H1985 C1993 0.930 . S
H1986 C1994 0.930 . S
H1987 C1995 0.930 . S
H1988 C1998 0.930 . S
H1989 C1999 0.930 . S
C1990 H1984 0.930 . S
C1990 C1991 1.355 . S
C1990 C1992 1.415 . S
C1991 C1990 1.355 . S
C1991 C1993 1.419 . S
C1992 C1990 1.415 . S
C1992 C1997 1.425 . S
C1992 C1999 1.409 . S
C1993 H1985 0.930 . S
C1993 C1991 1.419 . S
C1993 C1994 1.362 . S
C1994 H1986 0.930 . S
C1994 C1993 1.362 . S
C1994 C1997 1.409 . S
C1995 H1987 0.930 . S
C1995 C1996 1.355 . S
C1995 C1997 1.415 . S
C1996 C1995 1.355 . S
C1996 C1998 1.419 . S
C1997 C1992 1.425 . S
C1997 C1994 1.409 . S
C1997 C1995 1.415 . S
C1998 H1988 0.930 . S
C1998 C1996 1.419 . S
C1998 C1999 1.362 . S
C1999 H1989 0.930 . S
C1999 C1992 1.409 . S
C1999 C1998 1.362 . S
H2000 C2006 0.930 1_655 S
H2001 C2009 0.930 . S
H2002 C2010 0.930 1_554 S
H2003 C2011 0.930 1_554 S
H2004 C2014 0.930 . S
H2005 C2015 0.930 . S
C2006 H2000 0.930 1_455 S
C2006 C2007 1.355 . S
C2006 C2008 1.415 . S
C2007 C2006 1.355 . S
C2007 C2009 1.419 . S
C2008 C2006 1.415 . S
C2008 C2013 1.425 . S
C2008 C2015 1.409 1_455 S
C2009 H2001 0.930 . S
C2009 C2007 1.419 . S
C2009 C2010 1.362 . S
C2010 H2002 0.930 1_556 S
C2010 C2009 1.362 . S
C2010 C2013 1.409 . S
C2011 H2003 0.930 1_556 S
C2011 C2012 1.355 . S
C2011 C2013 1.415 . S
C2012 C2011 1.355 . S
C2012 C2014 1.419 1_455 S
C2013 C2008 1.425 . S
C2013 C2010 1.409 . S
C2013 C2011 1.415 . S
C2014 H2004 0.930 . S
C2014 C2012 1.419 1_655 S
C2014 C2015 1.362 . S
C2015 H2005 0.930 . S
C2015 C2008 1.409 1_655 S
C2015 C2014 1.362 . S
H2016 C2022 0.930 . S
H2017 C2025 0.930 . S
H2018 C2026 0.930 . S
H2019 C2027 0.930 . S
H2020 C2030 0.930 . S
H2021 C2031 0.930 . S
C2022 H2016 0.930 . S
C2022 C2023 1.355 . S
C2022 C2024 1.415 . S
C2023 C2022 1.355 . S
C2023 C2025 1.419 . S
C2024 C2022 1.415 . S
C2024 C2029 1.425 . S
C2024 C2031 1.409 . S
C2025 H2017 0.930 . S
C2025 C2023 1.419 . S
C2025 C2026 1.362 . S
C2026 H2018 0.930 . S
C2026 C2025 1.362 . S
C2026 C2029 1.409 . S
C2027 H2019 0.930 . S
C2027 C2028 1.355 . S
C2027 C2029 1.415 . S
C2028 C2027 1.355 . S
C2028 C2030 1.419 . S
C2029 C2024 1.425 . S
C2029 C2026 1.409 . S
C2029 C2027 1.415 . S
C2030 H2020 0.930 . S
C2030 C2028 1.419 . S
C2030 C2031 1.362 . S
C2031 H2021 0.930 . S
C2031 C2024 1.409 . S
C2031 C2030 1.362 . S
H2032 C2038 0.930 . S
H2033 C2041 0.930 . S
H2034 C2042 0.930 . S
H2035 C2043 0.930 . S
H2036 C2046 0.930 . S
H2037 C2047 0.930 . S
C2038 H2032 0.930 . S
C2038 C2039 1.355 . S
C2038 C2040 1.415 . S
C2039 C2038 1.355 . S
C2039 C2041 1.419 . S
C2040 C2038 1.415 . S
C2040 C2045 1.425 . S
C2040 C2047 1.409 . S
C2041 H2033 0.930 . S
C2041 C2039 1.419 . S
C2041 C2042 1.362 . S
C2042 H2034 0.930 . S
C2042 C2041 1.362 . S
C2042 C2045 1.409 . S
C2043 H2035 0.930 . S
C2043 C2044 1.355 . S
C2043 C2045 1.415 . S
C2044 C2043 1.355 . S
C2044 C2046 1.419 . S
C2045 C2040 1.425 . S
C2045 C2042 1.409 . S
C2045 C2043 1.415 . S
C2046 H2036 0.930 . S
C2046 C2044 1.419 . S
C2046 C2047 1.362 . S
C2047 H2037 0.930 . S
C2047 C2040 1.409 . S
C2047 C2046 1.362 . S
H2048 C2054 0.930 . S
H2049 C2057 0.930 . S
H2050 C2058 0.930 . S
H2051 C2059 0.930 . S
H2052 C2062 0.930 . S
H2053 C2063 0.930 . S
C2054 H2048 0.930 . S
C2054 C2055 1.355 . S
C2054 C2056 1.415 . S
C2055 C2054 1.355 . S
C2055 C2057 1.419 . S
C2056 C2054 1.415 . S
C2056 C2061 1.425 . S
C2056 C2063 1.409 . S
C2057 H2049 0.930 . S
C2057 C2055 1.419 . S
C2057 C2058 1.362 . S
C2058 H2050 0.930 . S
C2058 C2057 1.362 . S
C2058 C2061 1.409 . S
C2059 H2051 0.930 . S
C2059 C2060 1.355 . S
C2059 C2061 1.415 . S
C2060 C2059 1.355 . S
C2060 C2062 1.419 . S
C2061 C2056 1.425 . S
C2061 C2058 1.409 . S
C2061 C2059 1.415 . S
C2062 H2052 0.930 . S
C2062 C2060 1.419 . S
C2062 C2063 1.362 . S
C2063 H2053 0.930 . S
C2063 C2056 1.409 . S
C2063 C2062 1.362 . S
H2064 C2070 0.930 . S
H2065 C2073 0.930 . S
H2066 C2074 0.930 . S
H2067 C2075 0.930 . S
H2068 C2078 0.930 . S
H2069 C2079 0.930 . S
C2070 H2064 0.930 . S
C2070 C2071 1.355 1_655 S
C2070 C2072 1.415 . S
C2071 C2070 1.355 1_455 S
C2071 C2073 1.419 . S
C2072 C2070 1.415 . S
C2072 C2077 1.425 1_655 S
C2072 C2079 1.409 . S
C2073 H2065 0.930 . S
C2073 C2071 1.419 . S
C2073 C2074 1.362 . S
C2074 H2066 0.930 . S
C2074 C2073 1.362 . S
C2074 C2077 1.409 . S
C2075 H2067 0.930 . S
C2075 C2076 1.355 . S
C2075 C2077 1.415 . S
C2076 C2075 1.355 . S
C2076 C2078 1.419 1_455 S
C2077 C2072 1.425 1_455 S
C2077 C2074 1.409 . S
C2077 C2075 1.415 . S
C2078 H2068 0.930 . S
C2078 C2076 1.419 1_655 S
C2078 C2079 1.362 . S
C2079 H2069 0.930 . S
C2079 C2072 1.409 . S
C2079 C2078 1.362 . S
H2080 C2086 0.930 . S
H2081 C2089 0.930 . S
H2082 C2090 0.930 . S
H2083 C2091 0.930 . S
H2084 C2094 0.930 . S
H2085 C2095 0.930 . S
C2086 H2080 0.930 . S
C2086 C2087 1.355 . S
C2086 C2088 1.415 . S
C2087 C2086 1.355 . S
C2087 C2089 1.419 . S
C2088 C2086 1.415 . S
C2088 C2093 1.425 . S
C2088 C2095 1.409 . S
C2089 H2081 0.930 . S
C2089 C2087 1.419 . S
C2089 C2090 1.362 . S
C2090 H2082 0.930 . S
C2090 C2089 1.362 . S
C2090 C2093 1.409 . S
C2091 H2083 0.930 . S
C2091 C2092 1.355 . S
C2091 C2093 1.415 . S
C2092 C2091 1.355 . S
C2092 C2094 1.419 . S
C2093 C2088 1.425 . S
C2093 C2090 1.409 . S
C2093 C2091 1.415 . S
C2094 H2084 0.930 . S
C2094 C2092 1.419 . S
C2094 C2095 1.362 . S
C2095 H2085 0.930 . S
C2095 C2088 1.409 . S
C2095 C2094 1.362 . S
H2096 C2102 0.930 . S
H2097 C2105 0.930 . S
H2098 C2106 0.930 . S
H2099 C2107 0.930 . S
H2100 C2110 0.930 . S
H2101 C2111 0.930 . S
C2102 H2096 0.930 . S
C2102 C2103 1.355 . S
C2102 C2104 1.415 . S
C2103 C2102 1.355 . S
C2103 C2105 1.419 . S
C2104 C2102 1.415 . S
C2104 C2109 1.425 . S
C2104 C2111 1.409 . S
C2105 H2097 0.930 . S
C2105 C2103 1.419 . S
C2105 C2106 1.362 . S
C2106 H2098 0.930 . S
C2106 C2105 1.362 . S
C2106 C2109 1.409 . S
C2107 H2099 0.930 . S
C2107 C2108 1.355 . S
C2107 C2109 1.415 . S
C2108 C2107 1.355 . S
C2108 C2110 1.419 . S
C2109 C2104 1.425 . S
C2109 C2106 1.409 . S
C2109 C2107 1.415 . S
C2110 H2100 0.930 . S
C2110 C2108 1.419 . S
C2110 C2111 1.362 . S
C2111 H2101 0.930 . S
C2111 C2104 1.409 . S
C2111 C2110 1.362 . S
H2112 C2118 0.930 . S
H2113 C2121 0.930 . S
H2114 C2122 0.930 . S
H2115 C2123 0.930 . S
H2116 C2126 0.930 . S
H2117 C2127 0.930 . S
C2118 H2112 0.930 . S
C2118 C2119 1.355 . S
C2118 C2120 1.415 . S
C2119 C2118 1.355 . S
C2119 C2121 1.419 . S
C2120 C2118 1.415 . S
C2120 C2125 1.425 . S
C2120 C2127 1.409 . S
C2121 H2113 0.930 . S
C2121 C2119 1.419 . S
C2121 C2122 1.362 . S
C2122 H2114 0.930 . S
C2122 C2121 1.362 . S
C2122 C2125 1.409 . S
C2123 H2115 0.930 . S
C2123 C2124 1.355 . S
C2123 C2125 1.415 . S
C2124 C2123 1.355 . S
C2124 C2126 1.419 . S
C2125 C2120 1.425 . S
C2125 C2122 1.409 . S
C2125 C2123 1.415 . S
C2126 H2116 0.930 . S
C2126 C2124 1.419 . S
C2126 C2127 1.362 . S
C2127 H2117 0.930 . S
C2127 C2120 1.409 . S
C2127 C2126 1.362 . S
H2128 C2134 0.930 . S
H2129 C2137 0.930 . S
H2130 C2138 0.930 . S
H2131 C2139 0.930 . S
H2132 C2142 0.930 . S
H2133 C2143 0.930 . S
C2134 H2128 0.930 . S
C2134 C2135 1.355 . S
C2134 C2136 1.415 . S
C2135 C2134 1.355 . S
C2135 C2137 1.419 . S
C2136 C2134 1.415 . S
C2136 C2141 1.425 . S
C2136 C2143 1.409 . S
C2137 H2129 0.930 . S
C2137 C2135 1.419 . S
C2137 C2138 1.362 . S
C2138 H2130 0.930 . S
C2138 C2137 1.362 . S
C2138 C2141 1.409 . S
C2139 H2131 0.930 . S
C2139 C2140 1.355 . S
C2139 C2141 1.415 . S
C2140 C2139 1.355 . S
C2140 C2142 1.419 . S
C2141 C2136 1.425 . S
C2141 C2138 1.409 . S
C2141 C2139 1.415 . S
C2142 H2132 0.930 . S
C2142 C2140 1.419 . S
C2142 C2143 1.362 . S
C2143 H2133 0.930 . S
C2143 C2136 1.409 . S
C2143 C2142 1.362 . S
H2144 C2150 0.930 . S
H2145 C2153 0.930 . S
H2146 C2154 0.930 . S
H2147 C2155 0.930 . S
H2148 C2158 0.930 . S
H2149 C2159 0.930 . S
C2150 H2144 0.930 . S
C2150 C2151 1.355 . S
C2150 C2152 1.415 . S
C2151 C2150 1.355 . S
C2151 C2153 1.419 . S
C2152 C2150 1.415 . S
C2152 C2157 1.425 . S
C2152 C2159 1.409 . S
C2153 H2145 0.930 . S
C2153 C2151 1.419 . S
C2153 C2154 1.362 . S
C2154 H2146 0.930 . S
C2154 C2153 1.362 . S
C2154 C2157 1.409 . S
C2155 H2147 0.930 . S
C2155 C2156 1.355 . S
C2155 C2157 1.415 . S
C2156 C2155 1.355 . S
C2156 C2158 1.419 . S
C2157 C2152 1.425 . S
C2157 C2154 1.409 . S
C2157 C2155 1.415 . S
C2158 H2148 0.930 . S
C2158 C2156 1.419 . S
C2158 C2159 1.362 . S
C2159 H2149 0.930 . S
C2159 C2152 1.409 . S
C2159 C2158 1.362 . S
H2160 C2166 0.930 . S
H2161 C2169 0.930 . S
H2162 C2170 0.930 . S
H2163 C2171 0.930 . S
H2164 C2174 0.930 . S
H2165 C2175 0.930 . S
C2166 H2160 0.930 . S
C2166 C2167 1.355 . S
C2166 C2168 1.415 . S
C2167 C2166 1.355 . S
C2167 C2169 1.419 . S
C2168 C2166 1.415 . S
C2168 C2173 1.425 . S
C2168 C2175 1.409 . S
C2169 H2161 0.930 . S
C2169 C2167 1.419 . S
C2169 C2170 1.362 . S
C2170 H2162 0.930 . S
C2170 C2169 1.362 . S
C2170 C2173 1.409 . S
C2171 H2163 0.930 . S
C2171 C2172 1.355 . S
C2171 C2173 1.415 . S
C2172 C2171 1.355 . S
C2172 C2174 1.419 . S
C2173 C2168 1.425 . S
C2173 C2170 1.409 . S
C2173 C2171 1.415 . S
C2174 H2164 0.930 . S
C2174 C2172 1.419 . S
C2174 C2175 1.362 . S
C2175 H2165 0.930 . S
C2175 C2168 1.409 . S
C2175 C2174 1.362 . S
H2176 C2182 0.930 . S
H2177 C2185 0.930 . S
H2178 C2186 0.930 . S
H2179 C2187 0.930 . S
H2180 C2190 0.930 . S
H2181 C2191 0.930 . S
C2182 H2176 0.930 . S
C2182 C2183 1.355 . S
C2182 C2184 1.415 . S
C2183 C2182 1.355 . S
C2183 C2185 1.419 . S
C2184 C2182 1.415 . S
C2184 C2189 1.425 . S
C2184 C2191 1.409 . S
C2185 H2177 0.930 . S
C2185 C2183 1.419 . S
C2185 C2186 1.362 . S
C2186 H2178 0.930 . S
C2186 C2185 1.362 . S
C2186 C2189 1.409 . S
C2187 H2179 0.930 . S
C2187 C2188 1.355 . S
C2187 C2189 1.415 . S
C2188 C2187 1.355 . S
C2188 C2190 1.419 . S
C2189 C2184 1.425 . S
C2189 C2186 1.409 . S
C2189 C2187 1.415 . S
C2190 H2180 0.930 . S
C2190 C2188 1.419 . S
C2190 C2191 1.362 . S
C2191 H2181 0.930 . S
C2191 C2184 1.409 . S
C2191 C2190 1.362 . S
H2192 C2198 0.930 . S
H2193 C2201 0.930 . S
H2194 C2202 0.930 . S
H2195 C2203 0.930 . S
H2196 C2206 0.930 . S
H2197 C2207 0.930 . S
C2198 H2192 0.930 . S
C2198 C2199 1.355 . S
C2198 C2200 1.415 . S
C2199 C2198 1.355 . S
C2199 C2201 1.419 . S
C2200 C2198 1.415 . S
C2200 C2205 1.425 . S
C2200 C2207 1.409 . S
C2201 H2193 0.930 . S
C2201 C2199 1.419 . S
C2201 C2202 1.362 . S
C2202 H2194 0.930 . S
C2202 C2201 1.362 . S
C2202 C2205 1.409 . S
C2203 H2195 0.930 . S
C2203 C2204 1.355 . S
C2203 C2205 1.415 . S
C2204 C2203 1.355 . S
C2204 C2206 1.419 . S
C2205 C2200 1.425 . S
C2205 C2202 1.409 . S
C2205 C2203 1.415 . S
C2206 H2196 0.930 . S
C2206 C2204 1.419 . S
C2206 C2207 1.362 . S
C2207 H2197 0.930 . S
C2207 C2200 1.409 . S
C2207 C2206 1.362 . S
H2208 C2214 0.930 . S
H2209 C2217 0.930 . S
H2210 C2218 0.930 . S
H2211 C2219 0.930 . S
H2212 C2222 0.930 . S
H2213 C2223 0.930 . S
C2214 H2208 0.930 . S
C2214 C2215 1.355 . S
C2214 C2216 1.415 . S
C2215 C2214 1.355 . S
C2215 C2217 1.419 . S
C2216 C2214 1.415 . S
C2216 C2221 1.425 . S
C2216 C2223 1.409 . S
C2217 H2209 0.930 . S
C2217 C2215 1.419 . S
C2217 C2218 1.362 . S
C2218 H2210 0.930 . S
C2218 C2217 1.362 . S
C2218 C2221 1.409 . S
C2219 H2211 0.930 . S
C2219 C2220 1.355 . S
C2219 C2221 1.415 . S
C2220 C2219 1.355 . S
C2220 C2222 1.419 . S
C2221 C2216 1.425 . S
C2221 C2218 1.409 . S
C2221 C2219 1.415 . S
C2222 H2212 0.930 . S
C2222 C2220 1.419 . S
C2222 C2223 1.362 . S
C2223 H2213 0.930 . S
C2223 C2216 1.409 . S
C2223 C2222 1.362 . S
H2224 C2230 0.930 . S
H2225 C2233 0.930 . S
H2226 C2234 0.930 . S
H2227 C2235 0.930 . S
H2228 C2238 0.930 . S
H2229 C2239 0.930 . S
C2230 H2224 0.930 . S
C2230 C2231 1.355 . S
C2230 C2232 1.415 . S
C2231 C2230 1.355 . S
C2231 C2233 1.419 . S
C2232 C2230 1.415 . S
C2232 C2237 1.425 . S
C2232 C2239 1.409 . S
C2233 H2225 0.930 . S
C2233 C2231 1.419 . S
C2233 C2234 1.362 . S
C2234 H2226 0.930 . S
C2234 C2233 1.362 . S
C2234 C2237 1.409 . S
C2235 H2227 0.930 . S
C2235 C2236 1.355 . S
C2235 C2237 1.415 . S
C2236 C2235 1.355 . S
C2236 C2238 1.419 . S
C2237 C2232 1.425 . S
C2237 C2234 1.409 . S
C2237 C2235 1.415 . S
C2238 H2228 0.930 . S
C2238 C2236 1.419 . S
C2238 C2239 1.362 . S
C2239 H2229 0.930 . S
C2239 C2232 1.409 . S
C2239 C2238 1.362 . S
H2240 C2246 0.930 . S
H2241 C2249 0.930 . S
H2242 C2250 0.930 . S
H2243 C2251 0.930 . S
H2244 C2254 0.930 . S
H2245 C2255 0.930 . S
C2246 H2240 0.930 . S
C2246 C2247 1.355 . S
C2246 C2248 1.415 . S
C2247 C2246 1.355 . S
C2247 C2249 1.419 . S
C2248 C2246 1.415 . S
C2248 C2253 1.425 . S
C2248 C2255 1.409 . S
C2249 H2241 0.930 . S
C2249 C2247 1.419 . S
C2249 C2250 1.362 . S
C2250 H2242 0.930 . S
C2250 C2249 1.362 . S
C2250 C2253 1.409 . S
C2251 H2243 0.930 . S
C2251 C2252 1.355 . S
C2251 C2253 1.415 . S
C2252 C2251 1.355 . S
C2252 C2254 1.419 . S
C2253 C2248 1.425 . S
C2253 C2250 1.409 . S
C2253 C2251 1.415 . S
C2254 H2244 0.930 . S
C2254 C2252 1.419 . S
C2254 C2255 1.362 . S
C2255 H2245 0.930 . S
C2255 C2248 1.409 . S
C2255 C2254 1.362 . S
H2256 C2262 0.930 . S
H2257 C2265 0.930 . S
H2258 C2266 0.930 . S
H2259 C2267 0.930 . S
H2260 C2270 0.930 . S
H2261 C2271 0.930 . S
C2262 H2256 0.930 . S
C2262 C2263 1.355 . S
C2262 C2264 1.415 . S
C2263 C2262 1.355 . S
C2263 C2265 1.419 . S
C2264 C2262 1.415 . S
C2264 C2269 1.425 . S
C2264 C2271 1.409 . S
C2265 H2257 0.930 . S
C2265 C2263 1.419 . S
C2265 C2266 1.362 . S
C2266 H2258 0.930 . S
C2266 C2265 1.362 . S
C2266 C2269 1.409 . S
C2267 H2259 0.930 . S
C2267 C2268 1.355 . S
C2267 C2269 1.415 . S
C2268 C2267 1.355 . S
C2268 C2270 1.419 . S
C2269 C2264 1.425 . S
C2269 C2266 1.409 . S
C2269 C2267 1.415 . S
C2270 H2260 0.930 . S
C2270 C2268 1.419 . S
C2270 C2271 1.362 . S
C2271 H2261 0.930 . S
C2271 C2264 1.409 . S
C2271 C2270 1.362 . S
H2272 C2278 0.930 . S
H2273 C2281 0.930 . S
H2274 C2282 0.930 1_546 S
H2275 C2283 0.930 . S
H2276 C2286 0.930 . S
H2277 C2287 0.930 . S
C2278 H2272 0.930 . S
C2278 C2279 1.355 . S
C2278 C2280 1.415 . S
C2279 C2278 1.355 . S
C2279 C2281 1.419 . S
C2280 C2278 1.415 . S
C2280 C2285 1.425 . S
C2280 C2287 1.409 . S
C2281 H2273 0.930 . S
C2281 C2279 1.419 . S
C2281 C2282 1.362 . S
C2282 H2274 0.930 1_564 S
C2282 C2281 1.362 . S
C2282 C2285 1.409 . S
C2283 H2275 0.930 . S
C2283 C2284 1.355 1_545 S
C2283 C2285 1.415 1_545 S
C2284 C2283 1.355 1_565 S
C2284 C2286 1.419 . S
C2285 C2280 1.425 . S
C2285 C2282 1.409 . S
C2285 C2283 1.415 1_565 S
C2286 H2276 0.930 . S
C2286 C2284 1.419 . S
C2286 C2287 1.362 . S
C2287 H2277 0.930 . S
C2287 C2280 1.409 . S
C2287 C2286 1.362 . S
H2288 C2294 0.930 . S
H2289 C2297 0.930 . S
H2290 C2298 0.930 . S
H2291 C2299 0.930 . S
H2292 C2302 0.930 . S
H2293 C2303 0.930 . S
C2294 H2288 0.930 . S
C2294 C2295 1.355 . S
C2294 C2296 1.415 . S
C2295 C2294 1.355 . S
C2295 C2297 1.419 . S
C2296 C2294 1.415 . S
C2296 C2301 1.425 . S
C2296 C2303 1.409 . S
C2297 H2289 0.930 . S
C2297 C2295 1.419 . S
C2297 C2298 1.362 . S
C2298 H2290 0.930 . S
C2298 C2297 1.362 . S
C2298 C2301 1.409 . S
C2299 H2291 0.930 . S
C2299 C2300 1.355 . S
C2299 C2301 1.415 . S
C2300 C2299 1.355 . S
C2300 C2302 1.419 . S
C2301 C2296 1.425 . S
C2301 C2298 1.409 . S
C2301 C2299 1.415 . S
C2302 H2292 0.930 . S
C2302 C2300 1.419 . S
C2302 C2303 1.362 . S
C2303 H2293 0.930 . S
C2303 C2296 1.409 . S
C2303 C2302 1.362 . S
H2304 C2310 0.930 . S
H2305 C2313 0.930 . S
H2306 C2314 0.931 1_556 S
H2307 C2315 0.930 . S
H2308 C2318 0.930 . S
H2309 C2319 0.930 . S
C2310 H2304 0.930 . S
C2310 C2311 1.355 . S
C2310 C2312 1.415 . S
C2311 C2310 1.355 . S
C2311 C2313 1.419 1_554 S
C2312 C2310 1.415 . S
C2312 C2317 1.425 . S
C2312 C2319 1.409 . S
C2313 H2305 0.930 . S
C2313 C2311 1.419 1_556 S
C2313 C2314 1.362 1_556 S
C2314 H2306 0.931 1_554 S
C2314 C2313 1.362 1_554 S
C2314 C2317 1.409 . S
C2315 H2307 0.930 . S
C2315 C2316 1.355 . S
C2315 C2317 1.415 . S
C2316 C2315 1.355 . S
C2316 C2318 1.419 . S
C2317 C2312 1.425 . S
C2317 C2314 1.409 . S
C2317 C2315 1.415 . S
C2318 H2308 0.930 . S
C2318 C2316 1.419 . S
C2318 C2319 1.362 . S
C2319 H2309 0.930 . S
C2319 C2312 1.409 . S
C2319 C2318 1.362 . S
H2320 C2326 0.930 . S
H2321 C2329 0.930 . S
H2322 C2330 0.930 . S
H2323 C2331 0.930 . S
H2324 C2334 0.930 . S
H2325 C2335 0.930 . S
C2326 H2320 0.930 . S
C2326 C2327 1.355 . S
C2326 C2328 1.415 . S
C2327 C2326 1.355 . S
C2327 C2329 1.419 . S
C2328 C2326 1.415 . S
C2328 C2333 1.425 . S
C2328 C2335 1.409 . S
C2329 H2321 0.930 . S
C2329 C2327 1.419 . S
C2329 C2330 1.362 . S
C2330 H2322 0.930 . S
C2330 C2329 1.362 . S
C2330 C2333 1.409 . S
C2331 H2323 0.930 . S
C2331 C2332 1.355 . S
C2331 C2333 1.415 . S
C2332 C2331 1.355 . S
C2332 C2334 1.419 . S
C2333 C2328 1.425 . S
C2333 C2330 1.409 . S
C2333 C2331 1.415 . S
C2334 H2324 0.930 . S
C2334 C2332 1.419 . S
C2334 C2335 1.362 . S
C2335 H2325 0.930 . S
C2335 C2328 1.409 . S
C2335 C2334 1.362 . S
H2336 C2342 0.930 . S
H2337 C2345 0.930 . S
H2338 C2346 0.930 . S
H2339 C2347 0.930 . S
H2340 C2350 0.930 . S
H2341 C2351 0.930 . S
C2342 H2336 0.930 . S
C2342 C2343 1.355 . S
C2342 C2344 1.415 . S
C2343 C2342 1.355 . S
C2343 C2345 1.419 . S
C2344 C2342 1.415 . S
C2344 C2349 1.425 . S
C2344 C2351 1.409 . S
C2345 H2337 0.930 . S
C2345 C2343 1.419 . S
C2345 C2346 1.362 . S
C2346 H2338 0.930 . S
C2346 C2345 1.362 . S
C2346 C2349 1.409 . S
C2347 H2339 0.930 . S
C2347 C2348 1.355 . S
C2347 C2349 1.415 . S
C2348 C2347 1.355 . S
C2348 C2350 1.419 . S
C2349 C2344 1.425 . S
C2349 C2346 1.409 . S
C2349 C2347 1.415 . S
C2350 H2340 0.930 . S
C2350 C2348 1.419 . S
C2350 C2351 1.362 . S
C2351 H2341 0.930 . S
C2351 C2344 1.409 . S
C2351 C2350 1.362 . S
C828 C337 1.879 . S
C823 C7 1.888 . S
C839 C22 1.023 . S
C844 C382 1.039 . S
C855 C31 1.780 . S
C860 C406 1.765 . S
C876 N432 1.135 . S
C871 C51 1.108 . S
C887 C17 1.215 . S
C892 N462 1.212 . S
C908 C496 1.583 . S
C903 C36 1.637 . S
C924 C532 1.263 . S
C919 C49 1.254 . S
C935 C9 1.827 . S
C940 C556 1.779 . S
C951 C63 1.059 . S
C956 N350 1.046 . S
C967 C73 1.162 . S
C972 N372 1.183 . S
C988 C412 1.098 . S
C983 C91 1.019 . S
C1004 C436 1.820 . S
C999 C101 1.834 . S
C1015 C59 1.295 . S
C1020 C466 1.274 . S
C1036 C502 1.145 . S
C1031 C77 1.145 . S
C1052 N522 1.159 . S
C1047 C87 1.156 . S
C1068 C562 1.771 . S
C1063 C105 1.797 . S
C1084 C363 1.732 . S
C1079 C107 1.741 . S
C1100 C592 1.038 . S
C1095 C120 1.044 . S
C1111 C135 1.121 . S
C1116 N612 1.162 . S
C1132 C646 1.609 . S
C1127 C148 1.648 . S
C1143 C65 0.979 . S
C1148 N552 0.992 . S
C1164 N402 1.166 1_565 S
C1159 C79 1.163 . S
C1175 C134 1.125 . S
C1180 C682 1.107 . S
C1196 C706 1.124 . S
C1191 C162 1.118 . S
C1207 C171 1.852 . S
C1212 C346 1.844 1_556 S
C1228 C723 0.987 . S
C1223 C190 1.002 . S
C1239 C203 1.738 . S
C1244 C397 1.740 . S
C1255 C219 1.109 . S
C1260 N680 1.116 . S
C1276 N470 1.184 . S
C1271 C189 1.132 . S
C1292 C607 1.591 . S
C1287 C204 1.613 . S
C1308 C543 1.185 . S
C1303 C213 1.211 . S
C1324 C727 1.770 . S
C1319 C177 1.812 . S
C1340 N342 1.020 . S
C1335 C227 1.008 . S
C1351 C245 1.161 . S
C1356 N710 1.181 . S
C1372 C423 1.079 . S
C1367 C255 1.070 . S
C1383 C273 1.732 . S
C1388 C667 1.768 . S
C1399 C231 1.157 . S
C1404 C457 1.216 1_655 S
C1415 C241 1.122 . S
C1420 C633 1.126 . S
C1436 N530 1.150 . S
C1431 C259 1.108 . S
C1447 C269 1.752 . S
C1452 C753 1.724 . S
C1463 C275 1.730 . S
C1468 C352 1.715 . S
C1479 C288 1.000 1_554 S
C1484 C603 1.025 . S
C1495 C303 1.134 . S
C1500 N500 1.144 . S
C1511 C316 1.587 . S
C1516 C637 1.558 . S
C1532 N740 0.953 . S
C1527 C233 0.940 1_565 S
C1548 N410 1.142 . S
C1543 C247 1.134 . S
C1564 C453 1.064 . S
C1559 C302 1.083 . S
C1580 C367 1.051 . S
C1575 C330 1.081 . S
C1591 C35 1.893 . S
C1596 C757 1.869 . S
C1612 C712 1.063 . S
C1607 C50 1.026 . S
C1628 C796 1.735 . S
C1623 C3 1.781 . S
C1639 C23 1.135 1_655 S
C1644 N672 1.140 . S
C1655 C45 1.214 . S
C1660 N582 1.210 1_556 S
C1676 C616 1.610 . S
C1671 C8 1.627 . S
C1692 C652 1.231 . S
C1687 C21 1.203 . S
C1708 C736 1.814 . S
C1703 C37 1.843 . S
C1724 N770 1.022 . S
C1719 C161 1.000 . S
C1735 C115 1.162 1_556 S
C1740 N702 1.183 . S
C1751 C133 1.120 . S
C1756 C802 1.104 1_655 S
C1772 C676 1.785 . S
C1767 C143 1.830 . S
C1788 C586 1.235 . S
C1783 C157 1.278 . S
C1799 C119 1.169 . S
C1804 C622 1.181 . S
C1820 N642 1.167 . S
C1815 C129 1.166 . S
C1831 C147 1.797 . S
C1836 C742 1.768 . S
C1852 C783 1.744 . S
C1847 C149 1.744 . S
C1868 C472 1.050 . S
C1863 C78 1.032 . S
C1884 N492 1.161 . S
C1879 C93 1.119 1_565 S
C1895 C106 1.648 . S
C1900 C526 1.604 . S
C1916 N732 0.993 . S
C1911 C163 0.987 . S
C1927 C121 1.125 . S
C1932 N792 1.156 . S
C1948 C442 1.115 . S
C1943 C92 1.080 . S
C1964 C376 1.074 . S
C1959 C64 1.122 . S
C1975 C199 1.861 . S
C1980 C766 1.826 . S
C1996 C393 1.039 . S
C1991 C218 1.021 . S
C2012 C787 1.734 1_556 S
C2007 C175 1.708 . S
C2023 C191 1.092 . S
C2028 N440 1.105 . S
C2039 C217 1.079 . S
C2044 N590 1.175 . S
C2055 C176 1.606 . S
C2060 C487 1.569 . S
C2071 C185 1.215 . S
C2076 C663 1.200 . S
C2087 C205 1.811 . S
C2092 C547 1.763 . S
C2108 N762 1.000 . S
C2103 C325 1.024 . S
C2119 C287 1.127 . S
C2124 N380 1.170 . S
C2140 C813 1.039 . S
C2135 C297 1.058 . S
C2151 C315 1.728 . S
C2156 C427 1.764 . S
C2167 C329 1.129 . S
C2172 C577 1.188 . S
C2188 C513 1.097 . S
C2183 C283 1.129 . S
C2199 C301 1.094 . S
C2204 N650 1.135 . S
C2220 C573 1.722 . S
C2215 C311 1.746 . S
C2236 C772 1.680 . S
C2231 C317 1.720 . S
C2252 C483 1.005 . S
C2247 C246 1.001 . S
C2263 C261 1.124 . S
C2268 N620 1.140 . S
C2284 C517 1.556 1_565 S
C2279 C274 1.587 . S
C2300 N560 0.973 . S
C2295 C331 0.973 . S
C2311 C289 1.134 1_554 S
C2316 N800 1.142 . S
C2332 C693 1.074 . S
C2327 C260 1.088 . S
C2348 C697 1.049 . S
C2343 C232 1.080 . S
