# Generated by pormake.
# Topology pth, (4,4)-cn, num edge types: 1
# Building blocks:
#     Node 0, Type 0, BuildingBlock: GALJAG_clean_sbu_0, # of connection points: 4
#     Node 1, Type 0, BuildingBlock: GALJAG_clean_sbu_0, # of connection points: 4
#     Node 2, Type 0, BuildingBlock: GALJAG_clean_sbu_0, # of connection points: 4
#     Node 3, Type 1, BuildingBlock: KOZSID_clean_sbu_0, # of connection points: 4
#     Node 4, Type 1, BuildingBlock: KOZSID_clean_sbu_0, # of connection points: 4
#     Node 5, Type 1, BuildingBlock: KOZSID_clean_sbu_0, # of connection points: 4
#     Edge 6, Type (0, 1), BuildingBlock: OJICUG_clean_linker_0, # of connection points: 2
#     Edge 7, Type (0, 1), BuildingBlock: OJICUG_clean_linker_0, # of connection points: 2
#     Edge 8, Type (0, 1), BuildingBlock: OJICUG_clean_linker_0, # of connection points: 2
#     Edge 9, Type (0, 1), BuildingBlock: OJICUG_clean_linker_0, # of connection points: 2
#     Edge 10, Type (0, 1), BuildingBlock: OJICUG_clean_linker_0, # of connection points: 2
#     Edge 11, Type (0, 1), BuildingBlock: OJICUG_clean_linker_0, # of connection points: 2
#     Edge 12, Type (0, 1), BuildingBlock: OJICUG_clean_linker_0, # of connection points: 2
#     Edge 13, Type (0, 1), BuildingBlock: OJICUG_clean_linker_0, # of connection points: 2
#     Edge 14, Type (0, 1), BuildingBlock: OJICUG_clean_linker_0, # of connection points: 2
#     Edge 15, Type (0, 1), BuildingBlock: OJICUG_clean_linker_0, # of connection points: 2
#     Edge 16, Type (0, 1), BuildingBlock: OJICUG_clean_linker_0, # of connection points: 2
#     Edge 17, Type (0, 1), BuildingBlock: OJICUG_clean_linker_0, # of connection points: 2
# Relax obj value: 0.002
# Max RMSD: 0.047
# Mean RMSD: 0.027
data_MOF--net-pth--node1-GALJAG_clean_sbu_0--node2-KOZSID_clean_sbu_0--edge1-OJICUG_clean_linker_0
_symmetry_space_group_name_H-M    P1
_symmetry_Int_Tables_number       1
_symmetry_cell_setting            triclinic
loop_
_symmetry_equiv_pos_as_xyz
'x, y, z'
_cell_length_a     20.458233
_cell_length_b     20.451959
_cell_length_c     44.537042
_cell_angle_alpha  86.798333
_cell_angle_beta   86.740612
_cell_angle_gamma 119.98265
loop_
_atom_site_label
_atom_site_type_symbol
_atom_site_fract_x
_atom_site_fract_y
_atom_site_fract_z
_atom_type_partial_charge
In0 In 0.09125 0.06595 0.05098 0.0
O1 O 0.02447 0.11662 0.07364 0.0
O2 O 0.14157 0.16482 0.07967 0.0
C3 C 0.98577 0.97012 0.01643 0.0
C4 C 0.20627 0.17419 0.01237 0.0
C5 C 0.09908 0.96125 0.0885 0.0
O6 O 0.97031 0.00394 0.03611 0.0
O7 O 0.05417 0.98671 0.0137 0.0
O8 O 0.13857 0.98838 0.06341 0.0
O9 O 0.05763 0.98868 0.09518 0.0
C10 C 0.08164 0.16717 0.08488 0.0
O11 O 0.21683 0.14148 0.03492 0.0
O12 O 0.13749 0.15023 0.00853 0.0
In13 In 0.06973 0.09701 0.38618 0.0
O14 O 0.12003 0.22257 0.37089 0.0
O15 O 0.04638 0.14241 0.34245 0.0
C16 C 0.17631 0.10985 0.42349 0.0
C17 C 0.94539 0.08248 0.41841 0.0
C18 C 0.06466 0.99041 0.35105 0.0
O19 O 0.19254 0.15201 0.39925 0.0
O20 O 0.10641 0.06393 0.42958 0.0
O21 O 0.01115 0.97677 0.37064 0.0
O22 O 0.11912 0.05785 0.34866 0.0
C23 C 0.08609 0.21135 0.34717 0.0
O24 O 0.95236 0.02579 0.41373 0.0
O25 O 1.00111 0.14529 0.40783 0.0
In26 In 0.09536 0.06392 0.71584 0.0
O27 O 0.01945 0.93704 0.73073 0.0
O28 O 0.0115 0.01484 0.75824 0.0
C29 C 0.20197 0.05911 0.67856 0.0
C30 C 0.99462 0.07368 0.6818 0.0
C31 C 0.19388 0.1707 0.74911 0.0
O32 O 0.17094 0.01507 0.70251 0.0
O33 O 0.17809 0.1043 0.67307 0.0
O34 O 0.16308 0.18667 0.72827 0.0
O35 O 0.17333 0.10132 0.75345 0.0
C36 C 0.98714 0.94647 0.75373 0.0
O37 O 0.02511 0.11839 0.70179 0.0
O38 O 0.0174 0.02729 0.67845 0.0
C39 C 0.16027 0.71874 0.17021 0.0
C40 C 0.23137 0.77539 0.15738 0.0
C41 C 0.28334 0.76405 0.17098 0.0
C42 C 0.24148 0.7018 0.19139 0.0
N43 N 0.16573 0.67202 0.19151 0.0
Co44 Co 0.08474 0.58322 0.21871 0.0
N45 N 0.16207 0.57421 0.24173 0.0
C46 C 0.23822 0.62037 0.23751 0.0
C47 C 0.27719 0.59886 0.25573 0.0
C48 C 0.22289 0.53453 0.27243 0.0
C49 C 0.15339 0.52058 0.26349 0.0
N50 N 0.00402 0.49258 0.24514 0.0
C51 C 0.01022 0.44532 0.26596 0.0
C52 C 0.93962 0.38626 0.27793 0.0
C53 C 0.88701 0.39525 0.2636 0.0
C54 C 0.92823 0.45915 0.24386 0.0
N55 N 0.00756 0.59448 0.19654 0.0
C56 C 0.93123 0.55077 0.20168 0.0
C57 C 0.89277 0.57409 0.1839 0.0
C58 C 0.94775 0.63753 0.16681 0.0
C59 C 0.01687 0.64941 0.17527 0.0
N60 N 0.0865 0.51279 0.18985 0.0
C61 C 0.08468 0.40241 0.15348 0.0
C62 C 0.0201 0.40849 0.15933 0.0
C63 C 0.02204 0.46285 0.17753 0.0
C64 C 0.15096 0.45475 0.16551 0.0
C65 C 0.15093 0.50959 0.18295 0.0
N66 N 0.08219 0.65317 0.24752 0.0
C67 C 0.01033 0.69445 0.27809 0.0
C68 C 0.07637 0.76075 0.28326 0.0
C69 C 0.1457 0.77049 0.27109 0.0
C70 C 0.1473 0.71661 0.25345 0.0
C71 C 0.01455 0.64175 0.2606 0.0
H72 H 0.20182 0.72804 0.24447 0.0
H73 H 0.96202 0.5929 0.25747 0.0
H74 H 0.97013 0.46249 0.1815 0.0
H75 H 0.20358 0.54798 0.19101 0.0
C76 C 0.27174 0.6768 0.21343 0.0
C77 C 0.08961 0.71454 0.16288 0.0
C78 C 0.08141 0.45276 0.27454 0.0
C79 C 0.89761 0.48838 0.22348 0.0
H80 H 0.24493 0.822 0.14075 0.0
H81 H 0.34446 0.7994 0.16752 0.0
H82 H 0.33804 0.6245 0.2557 0.0
H83 H 0.23401 0.50033 0.28839 0.0
H84 H 0.92747 0.34067 0.29491 0.0
H85 H 0.82601 0.35875 0.26681 0.0
H86 H 0.832 0.54861 0.18369 0.0
H87 H 0.93805 0.67177 0.15025 0.0
H88 H 0.96767 0.37153 0.14998 0.0
H89 H 0.20284 0.453 0.16214 0.0
H90 H 0.95499 0.68379 0.28674 0.0
H91 H 0.19887 0.81961 0.27502 0.0
C92 C 0.44019 0.99187 0.59586 0.0
C93 C 0.38462 0.92036 0.60871 0.0
C94 C 0.40233 0.86963 0.59749 0.0
C95 C 0.46689 0.91253 0.57821 0.0
N96 N 0.49119 0.98728 0.5766 0.0
Co97 Co 0.57932 0.06874 0.54995 0.0
N98 N 0.58388 0.99393 0.5243 0.0
C99 C 0.5457 0.91797 0.53069 0.0
C100 C 0.55721 0.88026 0.50838 0.0
C101 C 0.60735 0.93587 0.48683 0.0
C102 C 0.62465 0.00474 0.4975 0.0
N103 N 0.6686 0.15056 0.52366 0.0
C104 C 0.70595 0.14749 0.49797 0.0
C105 C 0.76987 0.2178 0.48892 0.0
C106 C 0.77346 0.26568 0.50979 0.0
C107 C 0.71211 0.22252 0.53047 0.0
N108 N 0.57346 0.1428 0.57545 0.0
C109 C 0.62829 0.21507 0.57681 0.0
C110 C 0.60754 0.25265 0.59632 0.0
C111 C 0.53492 0.20068 0.60798 0.0
C112 C 0.51546 0.13427 0.59476 0.0
N113 N 0.64906 0.06039 0.57644 0.0
C114 C 0.75688 0.06156 0.61312 0.0
C115 C 0.69283 0.06214 0.62579 0.0
C116 C 0.63925 0.06078 0.6071 0.0
C117 C 0.76479 0.05896 0.5819 0.0
C118 C 0.7107 0.05835 0.56414 0.0
N119 N 0.50983 0.07807 0.52368 0.0
C120 C 0.46936 0.15634 0.49757 0.0
C121 C 0.40355 0.09198 0.49056 0.0
C122 C 0.39335 0.02052 0.49984 0.0
C123 C 0.44706 0.01484 0.51618 0.0
C124 C 0.52147 0.14817 0.51411 0.0
H125 H 0.43688 0.95905 0.52317 0.0
H126 H 0.57037 0.19883 0.51974 0.0
H127 H 0.59042 0.06104 0.61744 0.0
H128 H 0.72018 0.05765 0.54033 0.0
C129 C 0.49493 0.88378 0.55657 0.0
C130 C 0.4437 0.06296 0.60256 0.0
C131 C 0.69015 0.07733 0.48453 0.0
C132 C 0.69205 0.24852 0.55577 0.0
H133 H 0.33525 0.90566 0.62398 0.0
H134 H 0.36905 0.8084 0.60132 0.0
H135 H 0.53222 0.8196 0.50783 0.0
H136 H 0.63173 0.92698 0.46634 0.0
H137 H 0.81196 0.2328 0.47006 0.0
H138 H 0.81647 0.32465 0.51009 0.0
H139 H 0.64002 0.31161 0.60062 0.0
H140 H 0.50033 0.21045 0.62436 0.0
H141 H 0.68387 0.06307 0.64993 0.0
H142 H 0.81358 0.0591 0.57099 0.0
H143 H 0.47966 0.21277 0.49109 0.0
H144 H 0.34417 0.96909 0.4945 0.0
C145 C 0.73527 0.63305 0.83814 0.0
C146 C 0.79491 0.62218 0.82883 0.0
C147 C 0.78233 0.5573 0.84456 0.0
C148 C 0.71653 0.53259 0.8627 0.0
N149 N 0.68546 0.57713 0.85933 0.0
Co150 Co 0.59313 0.56497 0.88329 0.0
N151 N 0.57906 0.47322 0.90836 0.0
C152 C 0.62342 0.44168 0.90618 0.0
C153 C 0.59709 0.37611 0.92467 0.0
C154 C 0.53128 0.36415 0.93934 0.0
C155 C 0.52154 0.42394 0.92913 0.0
N156 N 0.50081 0.5526 0.90724 0.0
C157 C 0.45129 0.49656 0.92849 0.0
C158 C 0.3938 0.50917 0.9391 0.0
C159 C 0.40614 0.57425 0.92344 0.0
C160 C 0.47047 0.59794 0.90437 0.0
N161 N 0.60724 0.65659 0.8582 0.0
C162 C 0.56258 0.68785 0.86012 0.0
C163 C 0.58724 0.75119 0.84033 0.0
C164 C 0.6522 0.76184 0.82518 0.0
C165 C 0.66378 0.7044 0.83678 0.0
N166 N 0.52681 0.49784 0.85398 0.0
C167 C 0.42302 0.39464 0.81688 0.0
C168 C 0.41726 0.45618 0.82568 0.0
C169 C 0.46928 0.5066 0.84392 0.0
C170 C 0.48346 0.38725 0.82617 0.0
C171 C 0.53441 0.43919 0.84444 0.0
N172 N 0.65921 0.6326 0.91259 0.0
C173 C 0.70116 0.74453 0.93951 0.0
C174 C 0.76204 0.73882 0.94916 0.0
C175 C 0.76873 0.67706 0.94108 0.0
C176 C 0.71702 0.62496 0.92305 0.0
C177 C 0.65088 0.69128 0.92159 0.0
H178 H 0.7256 0.57961 0.91751 0.0
H179 H 0.60667 0.69998 0.9148 0.0
H180 H 0.46062 0.55133 0.85006 0.0
H181 H 0.57888 0.43017 0.85092 0.0
C182 C 0.68584 0.47114 0.88469 0.0
C183 C 0.73066 0.69934 0.82743 0.0
C184 C 0.45483 0.42922 0.93856 0.0
C185 C 0.50059 0.65917 0.88204 0.0
H186 H 0.84393 0.65832 0.81303 0.0
H187 H 0.8184 0.53262 0.84371 0.0
H188 H 0.62119 0.33961 0.92634 0.0
H189 H 0.49378 0.31531 0.95499 0.0
H190 H 0.34683 0.47403 0.95596 0.0
H191 H 0.37112 0.59999 0.92513 0.0
H192 H 0.56206 0.78657 0.83778 0.0
H193 H 0.6879 0.80762 0.80795 0.0
H194 H 0.37137 0.46442 0.81934 0.0
H195 H 0.49151 0.34147 0.81946 0.0
H196 H 0.69334 0.79129 0.94493 0.0
H197 H 0.81382 0.66884 0.94853 0.0
C198 C 0.01434 0.21487 0.11817 0.0
C199 C 0.08069 0.22684 0.10188 0.0
H200 H 0.9639 0.25866 0.14826 0.0
C201 C 0.1477 0.29687 0.10206 0.0
H202 H 0.96201 0.16116 0.11854 0.0
C203 C 0.14856 0.35398 0.11816 0.0
C204 C 0.08279 0.342 0.13527 0.0
H205 H 0.19957 0.30802 0.08934 0.0
H206 H 0.20101 0.40774 0.11685 0.0
C207 C 0.01556 0.27134 0.13501 0.0
C208 C 0.8461 0.11931 0.42252 0.0
C209 C 0.87734 0.07697 0.43436 0.0
H210 H 0.75996 0.14971 0.4284 0.0
C211 C 0.84537 0.03279 0.46208 0.0
H212 H 0.86989 0.1537 0.40107 0.0
C213 C 0.78493 0.03326 0.47828 0.0
C214 C 0.75335 0.07558 0.4665 0.0
H215 H 0.86895 1.00024 0.47175 0.0
H216 H 0.7633 1.001 0.50022 0.0
C217 C 0.7836 0.11729 0.43813 0.0
C218 C 0.88031 0.81193 0.76166 0.0
C219 C 0.92254 0.88293 0.77277 0.0
H220 H 0.7847 0.69885 0.76997 0.0
C221 C 0.90026 0.89368 0.80166 0.0
H222 H 0.89551 0.80236 0.73931 0.0
C223 C 0.83775 0.83413 0.81931 0.0
C224 C 0.79571 0.76324 0.80819 0.0
H225 H 0.93151 0.94795 0.81072 0.0
H226 H 0.82233 0.84323 0.84172 0.0
C227 C 0.81685 0.75293 0.77907 0.0
C228 C 0.06722 0.88235 0.13804 0.0
C229 C 0.09804 0.89925 0.1077 0.0
H230 H 0.04155 0.81098 0.17937 0.0
C231 C 0.12512 0.85437 0.09547 0.0
H232 H 0.04559 0.91575 0.14801 0.0
C233 C 0.12107 0.79354 0.11319 0.0
C234 C 0.09167 0.77768 0.14365 0.0
H235 H 0.14826 0.86544 0.07206 0.0
H236 H 0.14141 0.75912 0.1032 0.0
C237 C 0.06461 0.82243 0.15592 0.0
C238 C 0.31223 0.15948 0.43356 0.0
C239 C 0.23452 0.10926 0.44184 0.0
H240 H 0.42641 0.19317 0.44218 0.0
C241 C 0.21291 0.05496 0.46676 0.0
H242 H 0.3308 0.20172 0.41438 0.0
C243 C 0.26762 0.04985 0.48262 0.0
C244 C 0.34545 0.09909 0.47406 0.0
H245 H 0.15355 0.01538 0.47375 0.0
H246 H 0.24885 0.00726 0.50169 0.0
C247 C 0.36705 0.15462 0.44954 0.0
C248 C 0.27752 0.30591 0.75997 0.0
C249 C 0.25164 0.22835 0.76649 0.0
H250 H 0.35285 0.41932 0.77024 0.0
C251 C 0.28304 0.206 0.78938 0.0
H252 H 0.25483 0.32496 0.74232 0.0
C253 C 0.33895 0.25988 0.80544 0.0
C254 C 0.36504 0.3376 0.79902 0.0
H255 H 0.26434 0.14664 0.79498 0.0
H256 H 0.36078 0.24037 0.82328 0.0
C257 C 0.33359 0.35993 0.77605 0.0
C258 C 0.90476 0.02105 0.64237 0.0
C259 C 0.93413 0.07204 0.66448 0.0
H260 H 0.82517 0.97674 0.60946 0.0
C261 C 0.90308 0.1183 0.67041 0.0
H262 H 0.92681 0.98403 0.63743 0.0
C263 C 0.84417 0.11388 0.6543 0.0
C264 C 0.81569 0.06349 0.63187 0.0
H265 H 0.92418 0.15774 0.68748 0.0
H266 H 0.82207 0.15099 0.65894 0.0
C267 C 0.84643 0.01686 0.62629 0.0
C268 C 0.95042 0.87869 0.97696 0.0
C269 C 0.92832 0.91266 0.99886 0.0
H270 H 0.91599 0.79835 0.94403 0.0
C271 C 0.85103 0.88896 0.00445 0.0
H272 H 0.00956 0.89566 0.97208 0.0
C273 C 0.79702 0.83225 0.98858 0.0
C274 C 0.81907 0.798 0.96668 0.0
H275 H 0.83213 0.91359 0.02134 0.0
H276 H 0.73781 0.81456 0.99377 0.0
C277 C 0.89658 0.82223 0.96107 0.0
C278 C 0.01299 0.85444 0.3409 0.0
C279 C 0.06567 0.93174 0.33322 0.0
H280 H 0.97629 0.74002 0.33205 0.0
C281 C 0.12156 0.95251 0.309 0.0
H282 H 0.96967 0.8366 0.35964 0.0
C283 C 0.12481 0.89729 0.29283 0.0
C284 C 0.07278 0.81963 0.30066 0.0
H285 H 0.16287 0.01165 0.30245 0.0
H286 H 0.16778 0.91578 0.27393 0.0
C287 C 0.01673 0.79906 0.32495 0.0
C288 C 0.30392 0.02643 0.6702 0.0
C289 C 0.26331 0.05965 0.65901 0.0
H290 H 0.39469 0.00396 0.66143 0.0
C291 C 0.28333 0.09518 0.62931 0.0
H292 H 0.29064 0.99977 0.69315 0.0
C293 C 0.34178 0.09603 0.61097 0.0
C294 C 0.38163 0.06203 0.62212 0.0
H295 H 0.25337 0.12173 0.62015 0.0
H296 H 0.35577 0.12297 0.58805 0.0
C297 C 0.36327 0.02866 0.65208 0.0
C298 C 0.25932 0.26084 0.96427 0.0
C299 C 0.26947 0.23914 0.99335 0.0
H300 H 0.31092 0.33775 0.92395 0.0
C301 C 0.34004 0.28192 0.00469 0.0
H302 H 0.20534 0.22918 0.95506 0.0
C303 C 0.39935 0.34502 0.98729 0.0
C304 C 0.38999 0.36522 0.95788 0.0
H305 H 0.34911 0.26726 0.02721 0.0
H306 H 0.45311 0.37742 0.99658 0.0
C307 C 0.31935 0.32297 0.94657 0.0
C308 C 0.10928 0.34367 0.33955 0.0
C309 C 0.08653 0.2734 0.3282 0.0
H310 H 0.12302 0.4546 0.33177 0.0
C311 C 0.06028 0.26183 0.29938 0.0
H312 H 0.12864 0.35387 0.36186 0.0
C313 C 0.05813 0.31992 0.28206 0.0
C314 C 0.0811 0.39009 0.29344 0.0
H315 H 0.04182 0.20807 0.29017 0.0
H316 H 0.0389 0.3103 0.2597 0.0
C317 C 0.1057 0.40111 0.32247 0.0
loop_
_geom_bond_atom_site_label_1
_geom_bond_atom_site_label_2
_geom_bond_distance
_geom_bond_site_symmetry_2
_ccdc_geom_bond_type
In0 O1 2.294 . S
In0 O2 2.326 . S
In0 O6 2.266 1_445 S
In0 O7 2.326 1_545 S
In0 O8 2.266 1_545 S
In0 O9 2.326 1_545 S
In0 O11 2.294 . S
In0 O12 2.326 . S
O1 In0 2.294 . S
O1 C10 1.240 . S
O2 In0 2.326 . S
O2 C10 1.252 . S
C3 O6 1.252 1_455 S
C3 O7 1.260 . S
C4 O11 1.240 . S
C4 O12 1.252 . S
C5 O8 1.252 . S
C5 O9 1.260 . S
O6 In0 2.266 1_665 S
O6 C3 1.252 1_655 S
O7 In0 2.326 1_565 S
O7 C3 1.260 . S
O8 In0 2.266 1_565 S
O8 C5 1.252 . S
O9 In0 2.326 1_565 S
O9 C5 1.260 . S
C10 O1 1.240 . S
C10 O2 1.252 . S
O11 In0 2.294 . S
O11 C4 1.240 . S
O12 In0 2.326 . S
O12 C4 1.252 . S
In13 O14 2.294 . S
In13 O15 2.326 1_455 S
In13 O19 2.266 . S
In13 O20 2.326 . S
In13 O21 2.266 1_545 S
In13 O22 2.326 . S
In13 O24 2.294 1_455 S
In13 O25 2.326 . S
O14 In13 2.294 . S
O14 C23 1.240 . S
O15 In13 2.326 1_655 S
O15 C23 1.252 1_655 S
C16 O19 1.252 . S
C16 O20 1.260 . S
C17 O24 1.240 . S
C17 O25 1.252 1_655 S
C18 O21 1.252 1_545 S
C18 O22 1.260 . S
O19 In13 2.266 . S
O19 C16 1.252 . S
O20 In13 2.326 . S
O20 C16 1.260 . S
O21 In13 2.266 1_565 S
O21 C18 1.252 1_565 S
O22 In13 2.326 . S
O22 C18 1.260 . S
C23 O14 1.240 . S
C23 O15 1.252 1_455 S
O24 In13 2.294 1_655 S
O24 C17 1.240 . S
O25 In13 2.326 . S
O25 C17 1.252 1_455 S
In26 O27 2.294 1_545 S
In26 O28 2.326 1_455 S
In26 O32 2.266 . S
In26 O33 2.326 . S
In26 O34 2.266 . S
In26 O35 2.326 . S
In26 O37 2.294 . S
In26 O38 2.326 1_445 S
O27 In26 2.294 1_565 S
O27 C36 1.240 1_455 S
O28 In26 2.326 1_655 S
O28 C36 1.252 1_545 S
C29 O32 1.252 . S
C29 O33 1.260 . S
C30 O37 1.240 1_655 S
C30 O38 1.252 1_545 S
C31 O34 1.252 . S
C31 O35 1.260 . S
O32 In26 2.266 . S
O32 C29 1.252 . S
O33 In26 2.326 . S
O33 C29 1.260 . S
O34 In26 2.266 . S
O34 C31 1.252 . S
O35 In26 2.326 . S
O35 C31 1.260 . S
C36 O27 1.240 1_655 S
C36 O28 1.252 1_565 S
O37 In26 2.294 . S
O37 C30 1.240 1_455 S
O38 In26 2.326 1_665 S
O38 C30 1.252 1_565 S
C39 C40 1.443 . S
C39 N43 1.376 . S
C39 C77 1.389 . S
C40 C39 1.443 . S
C40 C41 1.340 . S
C40 H80 0.951 . S
C41 C40 1.340 . S
C41 C42 1.439 . S
C41 H81 0.950 . S
C42 C41 1.439 . S
C42 N43 1.374 . S
C42 C76 1.395 . S
N43 C39 1.376 . S
N43 C42 1.374 . S
N43 Co44 2.008 . S
Co44 N43 2.008 . S
Co44 N45 1.995 . S
Co44 N50 2.008 1_455 S
Co44 N55 1.995 1_455 S
Co44 N60 2.282 . S
Co44 N66 2.282 . S
N45 Co44 1.995 . S
N45 C46 1.376 . S
N45 C49 1.383 . S
C46 N45 1.376 . S
C46 C47 1.446 . S
C46 C76 1.391 . S
C47 C46 1.446 . S
C47 C48 1.339 . S
C47 H82 0.949 . S
C48 C47 1.339 . S
C48 C49 1.439 . S
C48 H83 0.950 . S
C49 N45 1.383 . S
C49 C48 1.439 . S
C49 C78 1.392 . S
N50 Co44 2.008 1_655 S
N50 C51 1.376 . S
N50 C54 1.374 . S
C51 N50 1.376 . S
C51 C52 1.443 . S
C51 C78 1.389 1_655 S
C52 C51 1.443 . S
C52 C53 1.340 . S
C52 H84 0.951 . S
C53 C52 1.340 . S
C53 C54 1.439 . S
C53 H85 0.950 . S
C54 N50 1.374 . S
C54 C53 1.439 . S
C54 C79 1.395 . S
N55 Co44 1.995 1_655 S
N55 C56 1.376 . S
N55 C59 1.383 1_655 S
C56 N55 1.376 . S
C56 C57 1.446 . S
C56 C79 1.391 . S
C57 C56 1.446 . S
C57 C58 1.339 . S
C57 H86 0.949 . S
C58 C57 1.339 . S
C58 C59 1.439 1_655 S
C58 H87 0.950 . S
C59 N55 1.383 1_455 S
C59 C58 1.439 1_455 S
C59 C77 1.392 . S
N60 Co44 2.282 . S
N60 C63 1.332 . S
N60 C65 1.332 . S
C61 C62 1.386 . S
C61 C64 1.388 . S
C62 C61 1.386 . S
C62 C63 1.382 . S
C62 H88 0.950 1_455 S
C63 N60 1.332 . S
C63 C62 1.382 . S
C63 H74 0.952 1_455 S
C64 C61 1.388 . S
C64 C65 1.382 . S
C64 H89 0.950 . S
C65 N60 1.332 . S
C65 C64 1.382 . S
C65 H75 0.948 . S
N66 Co44 2.282 . S
N66 C70 1.332 . S
N66 C71 1.332 1_455 S
C67 C68 1.388 1_655 S
C67 C71 1.382 . S
C67 H90 0.950 . S
C68 C67 1.388 1_455 S
C68 C69 1.386 . S
C69 C68 1.386 . S
C69 C70 1.382 . S
C69 H91 0.950 . S
C70 N66 1.332 . S
C70 C69 1.382 . S
C70 H72 0.952 . S
C71 N66 1.332 1_655 S
C71 C67 1.382 . S
C71 H73 0.948 . S
H72 C70 0.952 . S
H73 C71 0.948 . S
H74 C63 0.952 1_655 S
H75 C65 0.948 . S
C76 C42 1.395 . S
C76 C46 1.391 . S
C77 C39 1.389 . S
C77 C59 1.392 . S
C78 C49 1.392 . S
C78 C51 1.389 1_455 S
C79 C54 1.395 . S
C79 C56 1.391 . S
H80 C40 0.951 . S
H81 C41 0.950 . S
H82 C47 0.949 . S
H83 C48 0.950 . S
H84 C52 0.951 . S
H85 C53 0.950 . S
H86 C57 0.949 . S
H87 C58 0.950 . S
H88 C62 0.950 1_655 S
H89 C64 0.950 . S
H90 C67 0.950 . S
H91 C69 0.950 . S
C92 C93 1.443 1_545 S
C92 N96 1.376 1_545 S
C92 C130 1.389 . S
C93 C92 1.443 1_565 S
C93 C94 1.340 . S
C93 H133 0.951 . S
C94 C93 1.340 . S
C94 C95 1.439 . S
C94 H134 0.950 . S
C95 C94 1.439 . S
C95 N96 1.375 . S
C95 C129 1.395 . S
N96 C92 1.376 1_565 S
N96 C95 1.375 . S
N96 Co97 2.008 1_565 S
Co97 N96 2.008 1_545 S
Co97 N98 1.995 . S
Co97 N103 2.008 . S
Co97 N108 1.995 . S
Co97 N113 2.282 . S
Co97 N119 2.282 . S
N98 Co97 1.995 . S
N98 C99 1.376 1_545 S
N98 C102 1.383 . S
C99 N98 1.376 1_565 S
C99 C100 1.446 . S
C99 C129 1.391 . S
C100 C99 1.446 . S
C100 C101 1.339 . S
C100 H135 0.949 . S
C101 C100 1.339 . S
C101 C102 1.439 1_565 S
C101 H136 0.950 . S
C102 N98 1.383 . S
C102 C101 1.439 1_545 S
C102 C131 1.392 . S
N103 Co97 2.008 . S
N103 C104 1.376 . S
N103 C107 1.374 . S
C104 N103 1.376 . S
C104 C105 1.443 . S
C104 C131 1.389 . S
C105 C104 1.443 . S
C105 C106 1.340 . S
C105 H137 0.951 . S
C106 C105 1.340 . S
C106 C107 1.439 . S
C106 H138 0.950 . S
C107 N103 1.374 . S
C107 C106 1.439 . S
C107 C132 1.395 . S
N108 Co97 1.995 . S
N108 C109 1.376 . S
N108 C112 1.383 . S
C109 N108 1.376 . S
C109 C110 1.446 . S
C109 C132 1.391 . S
C110 C109 1.446 . S
C110 C111 1.339 . S
C110 H139 0.949 . S
C111 C110 1.339 . S
C111 C112 1.439 . S
C111 H140 0.950 . S
C112 N108 1.383 . S
C112 C111 1.439 . S
C112 C130 1.392 . S
N113 Co97 2.282 . S
N113 C116 1.332 . S
N113 C118 1.332 . S
C114 C115 1.386 . S
C114 C117 1.388 . S
C115 C114 1.386 . S
C115 C116 1.382 . S
C115 H141 0.950 . S
C116 N113 1.332 . S
C116 C115 1.382 . S
C116 H127 0.952 . S
C117 C114 1.388 . S
C117 C118 1.382 . S
C117 H142 0.950 1_545 S
C118 N113 1.332 . S
C118 C117 1.382 . S
C118 H128 0.948 1_545 S
N119 Co97 2.282 . S
N119 C123 1.332 . S
N119 C124 1.332 . S
C120 C121 1.388 . S
C120 C124 1.382 . S
C120 H143 0.950 . S
C121 C120 1.388 . S
C121 C122 1.386 . S
C122 C121 1.386 . S
C122 C123 1.382 . S
C122 H144 0.950 1_545 S
C123 N119 1.332 . S
C123 C122 1.382 . S
C123 H125 0.952 1_545 S
C124 N119 1.332 . S
C124 C120 1.382 . S
C124 H126 0.948 . S
H125 C123 0.952 1_565 S
H126 C124 0.948 . S
H127 C116 0.952 . S
H128 C118 0.948 1_565 S
C129 C95 1.395 . S
C129 C99 1.391 . S
C130 C92 1.389 . S
C130 C112 1.392 . S
C131 C102 1.392 . S
C131 C104 1.389 . S
C132 C107 1.395 . S
C132 C109 1.391 . S
H133 C93 0.951 . S
H134 C94 0.950 . S
H135 C100 0.949 . S
H136 C101 0.950 . S
H137 C105 0.951 . S
H138 C106 0.950 . S
H139 C110 0.949 . S
H140 C111 0.950 . S
H141 C115 0.950 . S
H142 C117 0.950 1_565 S
H143 C120 0.950 . S
H144 C122 0.950 1_565 S
C145 C146 1.443 . S
C145 N149 1.376 . S
C145 C183 1.389 . S
C146 C145 1.443 . S
C146 C147 1.340 . S
C146 H186 0.951 . S
C147 C146 1.340 . S
C147 C148 1.439 . S
C147 H187 0.950 . S
C148 C147 1.439 . S
C148 N149 1.374 . S
C148 C182 1.395 . S
N149 C145 1.376 . S
N149 C148 1.374 . S
N149 Co150 2.008 . S
Co150 N149 2.008 . S
Co150 N151 1.995 . S
Co150 N156 2.008 . S
Co150 N161 1.995 . S
Co150 N166 2.282 . S
Co150 N172 2.282 . S
N151 Co150 1.995 . S
N151 C152 1.376 . S
N151 C155 1.383 . S
C152 N151 1.376 . S
C152 C153 1.446 . S
C152 C182 1.391 . S
C153 C152 1.446 . S
C153 C154 1.339 . S
C153 H188 0.949 . S
C154 C153 1.339 . S
C154 C155 1.439 . S
C154 H189 0.950 . S
C155 N151 1.383 . S
C155 C154 1.439 . S
C155 C184 1.392 . S
N156 Co150 2.008 . S
N156 C157 1.376 . S
N156 C160 1.374 . S
C157 N156 1.376 . S
C157 C158 1.443 . S
C157 C184 1.389 . S
C158 C157 1.443 . S
C158 C159 1.340 . S
C158 H190 0.951 . S
C159 C158 1.340 . S
C159 C160 1.439 . S
C159 H191 0.950 . S
C160 N156 1.374 . S
C160 C159 1.439 . S
C160 C185 1.395 . S
N161 Co150 1.995 . S
N161 C162 1.376 . S
N161 C165 1.383 . S
C162 N161 1.376 . S
C162 C163 1.446 . S
C162 C185 1.391 . S
C163 C162 1.446 . S
C163 C164 1.339 . S
C163 H192 0.949 . S
C164 C163 1.339 . S
C164 C165 1.439 . S
C164 H193 0.950 . S
C165 N161 1.383 . S
C165 C164 1.439 . S
C165 C183 1.392 . S
N166 Co150 2.282 . S
N166 C169 1.332 . S
N166 C171 1.332 . S
C167 C168 1.386 . S
C167 C170 1.388 . S
C168 C167 1.386 . S
C168 C169 1.382 . S
C168 H194 0.950 . S
C169 N166 1.332 . S
C169 C168 1.382 . S
C169 H180 0.952 . S
C170 C167 1.388 . S
C170 C171 1.382 . S
C170 H195 0.950 . S
C171 N166 1.332 . S
C171 C170 1.382 . S
C171 H181 0.948 . S
N172 Co150 2.282 . S
N172 C176 1.332 . S
N172 C177 1.332 . S
C173 C174 1.388 . S
C173 C177 1.382 . S
C173 H196 0.950 . S
C174 C173 1.388 . S
C174 C175 1.386 . S
C175 C174 1.386 . S
C175 C176 1.382 . S
C175 H197 0.950 . S
C176 N172 1.332 . S
C176 C175 1.382 . S
C176 H178 0.952 . S
C177 N172 1.332 . S
C177 C173 1.382 . S
C177 H179 0.948 . S
H178 C176 0.952 . S
H179 C177 0.948 . S
H180 C169 0.952 . S
H181 C171 0.948 . S
C182 C148 1.395 . S
C182 C152 1.391 . S
C183 C145 1.389 . S
C183 C165 1.392 . S
C184 C155 1.392 . S
C184 C157 1.389 . S
C185 C160 1.395 . S
C185 C162 1.391 . S
H186 C146 0.951 . S
H187 C147 0.950 . S
H188 C153 0.949 . S
H189 C154 0.950 . S
H190 C158 0.951 . S
H191 C159 0.950 . S
H192 C163 0.949 . S
H193 C164 0.950 . S
H194 C168 0.950 . S
H195 C170 0.950 . S
H196 C173 0.950 . S
H197 C175 0.950 . S
C198 C199 1.387 . S
C198 H202 0.950 1_455 S
C198 C207 1.390 . S
C199 C198 1.387 . S
C199 C201 1.387 . S
H200 C207 0.950 1_655 S
C201 C199 1.387 . S
C201 C203 1.390 . S
C201 H205 0.950 . S
H202 C198 0.950 1_655 S
C203 C201 1.390 . S
C203 C204 1.387 . S
C203 H206 0.950 . S
C204 C203 1.387 . S
C204 C207 1.387 . S
H205 C201 0.950 . S
H206 C203 0.950 . S
C207 C198 1.390 . S
C207 H200 0.950 1_455 S
C207 C204 1.387 . S
C208 C209 1.387 . S
C208 H212 0.950 . S
C208 C217 1.390 . S
C209 C208 1.387 . S
C209 C211 1.387 . S
H210 C217 0.950 . S
C211 C209 1.387 . S
C211 C213 1.390 . S
C211 H215 0.950 1_545 S
H212 C208 0.950 . S
C213 C211 1.390 . S
C213 C214 1.387 . S
C213 H216 0.950 1_545 S
C214 C213 1.387 . S
C214 C217 1.387 . S
H215 C211 0.950 1_565 S
H216 C213 0.950 1_565 S
C217 C208 1.390 . S
C217 H210 0.950 . S
C217 C214 1.387 . S
C218 C219 1.387 . S
C218 H222 0.950 . S
C218 C227 1.390 . S
C219 C218 1.387 . S
C219 C221 1.387 . S
H220 C227 0.950 . S
C221 C219 1.387 . S
C221 C223 1.390 . S
C221 H225 0.950 . S
H222 C218 0.950 . S
C223 C221 1.390 . S
C223 C224 1.387 . S
C223 H226 0.950 . S
C224 C223 1.387 . S
C224 C227 1.387 . S
H225 C221 0.950 . S
H226 C223 0.950 . S
C227 C218 1.390 . S
C227 H220 0.950 . S
C227 C224 1.387 . S
C228 C229 1.387 . S
C228 H232 0.950 . S
C228 C237 1.390 . S
C229 C228 1.387 . S
C229 C231 1.387 . S
H230 C237 0.950 . S
C231 C229 1.387 . S
C231 C233 1.390 . S
C231 H235 0.950 . S
H232 C228 0.950 . S
C233 C231 1.390 . S
C233 C234 1.387 . S
C233 H236 0.950 . S
C234 C233 1.387 . S
C234 C237 1.387 . S
H235 C231 0.950 . S
H236 C233 0.950 . S
C237 C228 1.390 . S
C237 H230 0.950 . S
C237 C234 1.387 . S
C238 C239 1.387 . S
C238 H242 0.950 . S
C238 C247 1.390 . S
C239 C238 1.387 . S
C239 C241 1.387 . S
H240 C247 0.950 . S
C241 C239 1.387 . S
C241 C243 1.390 . S
C241 H245 0.950 1_545 S
H242 C238 0.950 . S
C243 C241 1.390 . S
C243 C244 1.387 . S
C243 H246 0.950 1_545 S
C244 C243 1.387 . S
C244 C247 1.387 . S
H245 C241 0.950 1_565 S
H246 C243 0.950 1_565 S
C247 C238 1.390 . S
C247 H240 0.950 . S
C247 C244 1.387 . S
C248 C249 1.387 . S
C248 H252 0.950 . S
C248 C257 1.390 . S
C249 C248 1.387 . S
C249 C251 1.387 . S
H250 C257 0.950 . S
C251 C249 1.387 . S
C251 C253 1.390 . S
C251 H255 0.950 . S
H252 C248 0.950 . S
C253 C251 1.390 . S
C253 C254 1.387 . S
C253 H256 0.950 . S
C254 C253 1.387 . S
C254 C257 1.387 . S
H255 C251 0.950 . S
H256 C253 0.950 . S
C257 C248 1.390 . S
C257 H250 0.950 . S
C257 C254 1.387 . S
C258 C259 1.387 1_565 S
C258 H262 0.950 . S
C258 C267 1.391 1_565 S
C259 C258 1.387 1_545 S
C259 C261 1.387 . S
H260 C267 0.950 1_565 S
C261 C259 1.387 . S
C261 C263 1.390 . S
C261 H265 0.950 . S
H262 C258 0.950 . S
C263 C261 1.390 . S
C263 C264 1.387 . S
C263 H266 0.950 . S
C264 C263 1.387 . S
C264 C267 1.386 . S
H265 C261 0.950 . S
H266 C263 0.950 . S
C267 C258 1.391 1_545 S
C267 H260 0.950 1_545 S
C267 C264 1.386 . S
C268 C269 1.387 . S
C268 H272 0.950 1_655 S
C268 C277 1.390 . S
C269 C268 1.387 . S
C269 C271 1.387 . S
H270 C277 0.950 . S
C271 C269 1.387 . S
C271 C273 1.390 . S
C271 H275 0.950 . S
H272 C268 0.950 1_455 S
C273 C271 1.390 . S
C273 C274 1.387 . S
C273 H276 0.950 . S
C274 C273 1.387 . S
C274 C277 1.387 . S
H275 C271 0.950 . S
H276 C273 0.950 . S
C277 C268 1.390 . S
C277 H270 0.950 . S
C277 C274 1.387 . S
C278 C279 1.387 . S
C278 H282 0.950 1_455 S
C278 C287 1.393 1_455 S
C279 C278 1.387 . S
C279 C281 1.387 . S
H280 C287 0.953 . S
C281 C279 1.387 . S
C281 C283 1.390 . S
C281 H285 0.950 1_565 S
H282 C278 0.950 1_655 S
C283 C281 1.390 . S
C283 C284 1.387 . S
C283 H286 0.950 . S
C284 C283 1.387 . S
C284 C287 1.382 1_455 S
H285 C281 0.950 1_545 S
H286 C283 0.950 . S
C287 C278 1.393 1_655 S
C287 H280 0.953 . S
C287 C284 1.382 1_655 S
C288 C289 1.387 . S
C288 H292 0.950 . S
C288 C297 1.390 . S
C289 C288 1.387 . S
C289 C291 1.387 . S
H290 C297 0.950 . S
C291 C289 1.387 . S
C291 C293 1.390 . S
C291 H295 0.950 1_545 S
H292 C288 0.950 . S
C293 C291 1.390 . S
C293 C294 1.387 . S
C293 H296 0.950 1_545 S
C294 C293 1.387 . S
C294 C297 1.387 . S
H295 C291 0.950 1_565 S
H296 C293 0.950 1_565 S
C297 C288 1.390 . S
C297 H290 0.950 . S
C297 C294 1.387 . S
C298 C299 1.387 . S
C298 H302 0.950 . S
C298 C307 1.390 . S
C299 C298 1.387 . S
C299 C301 1.380 1_556 S
H300 C307 0.950 . S
C301 C299 1.380 1_554 S
C301 C303 1.382 1_554 S
C301 H305 0.966 . S
H302 C298 0.950 . S
C303 C301 1.382 1_556 S
C303 C304 1.387 . S
C303 H306 0.950 . S
C304 C303 1.387 . S
C304 C307 1.387 . S
H305 C301 0.966 . S
H306 C303 0.950 . S
C307 C298 1.390 . S
C307 H300 0.950 . S
C307 C304 1.387 . S
C308 C309 1.387 . S
C308 H312 0.950 . S
C308 C317 1.390 . S
C309 C308 1.387 . S
C309 C311 1.387 . S
H310 C317 0.950 . S
C311 C309 1.387 . S
C311 C313 1.390 . S
C311 H315 0.950 . S
H312 C308 0.950 . S
C313 C311 1.390 . S
C313 C314 1.387 . S
C313 H316 0.950 . S
C314 C313 1.387 . S
C314 C317 1.387 . S
H315 C311 0.950 . S
H316 C313 0.950 . S
C317 C308 1.390 . S
C317 H310 0.950 . S
C317 C314 1.387 . S
C204 C61 1.513 . S
C199 C10 1.513 . S
C209 C17 1.515 . S
C214 C131 1.514 . S
C219 C36 1.520 . S
C224 C183 1.520 . S
C229 C5 1.516 . S
C234 C77 1.516 . S
C244 C121 1.516 . S
C239 C16 1.516 . S
C249 C31 1.516 . S
C254 C167 1.516 . S
C264 C114 1.513 . S
C259 C30 1.514 . S
C269 C3 1.516 1_656 S
C274 C174 1.516 . S
C284 C68 1.516 . S
C279 C18 1.516 1_565 S
C294 C130 1.516 . S
C289 C29 1.516 . S
C304 C184 1.518 . S
C299 C4 1.519 1_556 S
C309 C23 1.514 . S
C314 C78 1.514 . S
