# Generated by pormake.
# Topology gar, (4,6)-cn, num edge types: 1
# Building blocks:
#     Node 0, Type 0, BuildingBlock: QUQFOY_clean_sbu_1, # of connection points: 4
#     Node 1, Type 0, BuildingBlock: QUQFOY_clean_sbu_1, # of connection points: 4
#     Node 2, Type 0, BuildingBlock: QUQFOY_clean_sbu_1, # of connection points: 4
#     Node 3, Type 0, BuildingBlock: QUQFOY_clean_sbu_1, # of connection points: 4
#     Node 4, Type 0, BuildingBlock: QUQFOY_clean_sbu_1, # of connection points: 4
#     Node 5, Type 0, BuildingBlock: QUQFOY_clean_sbu_1, # of connection points: 4
#     Node 6, Type 0, BuildingBlock: QUQFOY_clean_sbu_1, # of connection points: 4
#     Node 7, Type 0, BuildingBlock: QUQFOY_clean_sbu_1, # of connection points: 4
#     Node 8, Type 0, BuildingBlock: QUQFOY_clean_sbu_1, # of connection points: 4
#     Node 9, Type 0, BuildingBlock: QUQFOY_clean_sbu_1, # of connection points: 4
#     Node 10, Type 0, BuildingBlock: QUQFOY_clean_sbu_1, # of connection points: 4
#     Node 11, Type 0, BuildingBlock: QUQFOY_clean_sbu_1, # of connection points: 4
#     Node 12, Type 0, BuildingBlock: QUQFOY_clean_sbu_1, # of connection points: 4
#     Node 13, Type 0, BuildingBlock: QUQFOY_clean_sbu_1, # of connection points: 4
#     Node 14, Type 0, BuildingBlock: QUQFOY_clean_sbu_1, # of connection points: 4
#     Node 15, Type 0, BuildingBlock: QUQFOY_clean_sbu_1, # of connection points: 4
#     Node 16, Type 0, BuildingBlock: QUQFOY_clean_sbu_1, # of connection points: 4
#     Node 17, Type 0, BuildingBlock: QUQFOY_clean_sbu_1, # of connection points: 4
#     Node 18, Type 0, BuildingBlock: QUQFOY_clean_sbu_1, # of connection points: 4
#     Node 19, Type 0, BuildingBlock: QUQFOY_clean_sbu_1, # of connection points: 4
#     Node 20, Type 0, BuildingBlock: QUQFOY_clean_sbu_1, # of connection points: 4
#     Node 21, Type 0, BuildingBlock: QUQFOY_clean_sbu_1, # of connection points: 4
#     Node 22, Type 0, BuildingBlock: QUQFOY_clean_sbu_1, # of connection points: 4
#     Node 23, Type 0, BuildingBlock: QUQFOY_clean_sbu_1, # of connection points: 4
#     Node 24, Type 1, BuildingBlock: CUKXOW_clean_sbu_0, # of connection points: 6
#     Node 25, Type 1, BuildingBlock: CUKXOW_clean_sbu_0, # of connection points: 6
#     Node 26, Type 1, BuildingBlock: CUKXOW_clean_sbu_0, # of connection points: 6
#     Node 27, Type 1, BuildingBlock: CUKXOW_clean_sbu_0, # of connection points: 6
#     Node 28, Type 1, BuildingBlock: CUKXOW_clean_sbu_0, # of connection points: 6
#     Node 29, Type 1, BuildingBlock: CUKXOW_clean_sbu_0, # of connection points: 6
#     Node 30, Type 1, BuildingBlock: CUKXOW_clean_sbu_0, # of connection points: 6
#     Node 31, Type 1, BuildingBlock: CUKXOW_clean_sbu_0, # of connection points: 6
#     Node 32, Type 1, BuildingBlock: CUKXOW_clean_sbu_0, # of connection points: 6
#     Node 33, Type 1, BuildingBlock: CUKXOW_clean_sbu_0, # of connection points: 6
#     Node 34, Type 1, BuildingBlock: CUKXOW_clean_sbu_0, # of connection points: 6
#     Node 35, Type 1, BuildingBlock: CUKXOW_clean_sbu_0, # of connection points: 6
#     Node 36, Type 1, BuildingBlock: CUKXOW_clean_sbu_0, # of connection points: 6
#     Node 37, Type 1, BuildingBlock: CUKXOW_clean_sbu_0, # of connection points: 6
#     Node 38, Type 1, BuildingBlock: CUKXOW_clean_sbu_0, # of connection points: 6
#     Node 39, Type 1, BuildingBlock: CUKXOW_clean_sbu_0, # of connection points: 6
#     Edge 40, Type (0, 1), BuildingBlock: UVAHIK_clean_linker_0, # of connection points: 2
#     Edge 41, Type (0, 1), BuildingBlock: UVAHIK_clean_linker_0, # of connection points: 2
#     Edge 42, Type (0, 1), BuildingBlock: UVAHIK_clean_linker_0, # of connection points: 2
#     Edge 43, Type (0, 1), BuildingBlock: UVAHIK_clean_linker_0, # of connection points: 2
#     Edge 44, Type (0, 1), BuildingBlock: UVAHIK_clean_linker_0, # of connection points: 2
#     Edge 45, Type (0, 1), BuildingBlock: UVAHIK_clean_linker_0, # of connection points: 2
#     Edge 46, Type (0, 1), BuildingBlock: UVAHIK_clean_linker_0, # of connection points: 2
#     Edge 47, Type (0, 1), BuildingBlock: UVAHIK_clean_linker_0, # of connection points: 2
#     Edge 48, Type (0, 1), BuildingBlock: UVAHIK_clean_linker_0, # of connection points: 2
#     Edge 49, Type (0, 1), BuildingBlock: UVAHIK_clean_linker_0, # of connection points: 2
#     Edge 50, Type (0, 1), BuildingBlock: UVAHIK_clean_linker_0, # of connection points: 2
#     Edge 51, Type (0, 1), BuildingBlock: UVAHIK_clean_linker_0, # of connection points: 2
#     Edge 52, Type (0, 1), BuildingBlock: UVAHIK_clean_linker_0, # of connection points: 2
#     Edge 53, Type (0, 1), BuildingBlock: UVAHIK_clean_linker_0, # of connection points: 2
#     Edge 54, Type (0, 1), BuildingBlock: UVAHIK_clean_linker_0, # of connection points: 2
#     Edge 55, Type (0, 1), BuildingBlock: UVAHIK_clean_linker_0, # of connection points: 2
#     Edge 56, Type (0, 1), BuildingBlock: UVAHIK_clean_linker_0, # of connection points: 2
#     Edge 57, Type (0, 1), BuildingBlock: UVAHIK_clean_linker_0, # of connection points: 2
#     Edge 58, Type (0, 1), BuildingBlock: UVAHIK_clean_linker_0, # of connection points: 2
#     Edge 59, Type (0, 1), BuildingBlock: UVAHIK_clean_linker_0, # of connection points: 2
#     Edge 60, Type (0, 1), BuildingBlock: UVAHIK_clean_linker_0, # of connection points: 2
#     Edge 61, Type (0, 1), BuildingBlock: UVAHIK_clean_linker_0, # of connection points: 2
#     Edge 62, Type (0, 1), BuildingBlock: UVAHIK_clean_linker_0, # of connection points: 2
#     Edge 63, Type (0, 1), BuildingBlock: UVAHIK_clean_linker_0, # of connection points: 2
#     Edge 64, Type (0, 1), BuildingBlock: UVAHIK_clean_linker_0, # of connection points: 2
#     Edge 65, Type (0, 1), BuildingBlock: UVAHIK_clean_linker_0, # of connection points: 2
#     Edge 66, Type (0, 1), BuildingBlock: UVAHIK_clean_linker_0, # of connection points: 2
#     Edge 67, Type (0, 1), BuildingBlock: UVAHIK_clean_linker_0, # of connection points: 2
#     Edge 68, Type (0, 1), BuildingBlock: UVAHIK_clean_linker_0, # of connection points: 2
#     Edge 69, Type (0, 1), BuildingBlock: UVAHIK_clean_linker_0, # of connection points: 2
#     Edge 70, Type (0, 1), BuildingBlock: UVAHIK_clean_linker_0, # of connection points: 2
#     Edge 71, Type (0, 1), BuildingBlock: UVAHIK_clean_linker_0, # of connection points: 2
#     Edge 72, Type (0, 1), BuildingBlock: UVAHIK_clean_linker_0, # of connection points: 2
#     Edge 73, Type (0, 1), BuildingBlock: UVAHIK_clean_linker_0, # of connection points: 2
#     Edge 74, Type (0, 1), BuildingBlock: UVAHIK_clean_linker_0, # of connection points: 2
#     Edge 75, Type (0, 1), BuildingBlock: UVAHIK_clean_linker_0, # of connection points: 2
#     Edge 76, Type (0, 1), BuildingBlock: UVAHIK_clean_linker_0, # of connection points: 2
#     Edge 77, Type (0, 1), BuildingBlock: UVAHIK_clean_linker_0, # of connection points: 2
#     Edge 78, Type (0, 1), BuildingBlock: UVAHIK_clean_linker_0, # of connection points: 2
#     Edge 79, Type (0, 1), BuildingBlock: UVAHIK_clean_linker_0, # of connection points: 2
#     Edge 80, Type (0, 1), BuildingBlock: UVAHIK_clean_linker_0, # of connection points: 2
#     Edge 81, Type (0, 1), BuildingBlock: UVAHIK_clean_linker_0, # of connection points: 2
#     Edge 82, Type (0, 1), BuildingBlock: UVAHIK_clean_linker_0, # of connection points: 2
#     Edge 83, Type (0, 1), BuildingBlock: UVAHIK_clean_linker_0, # of connection points: 2
#     Edge 84, Type (0, 1), BuildingBlock: UVAHIK_clean_linker_0, # of connection points: 2
#     Edge 85, Type (0, 1), BuildingBlock: UVAHIK_clean_linker_0, # of connection points: 2
#     Edge 86, Type (0, 1), BuildingBlock: UVAHIK_clean_linker_0, # of connection points: 2
#     Edge 87, Type (0, 1), BuildingBlock: UVAHIK_clean_linker_0, # of connection points: 2
#     Edge 88, Type (0, 1), BuildingBlock: UVAHIK_clean_linker_0, # of connection points: 2
#     Edge 89, Type (0, 1), BuildingBlock: UVAHIK_clean_linker_0, # of connection points: 2
#     Edge 90, Type (0, 1), BuildingBlock: UVAHIK_clean_linker_0, # of connection points: 2
#     Edge 91, Type (0, 1), BuildingBlock: UVAHIK_clean_linker_0, # of connection points: 2
#     Edge 92, Type (0, 1), BuildingBlock: UVAHIK_clean_linker_0, # of connection points: 2
#     Edge 93, Type (0, 1), BuildingBlock: UVAHIK_clean_linker_0, # of connection points: 2
#     Edge 94, Type (0, 1), BuildingBlock: UVAHIK_clean_linker_0, # of connection points: 2
#     Edge 95, Type (0, 1), BuildingBlock: UVAHIK_clean_linker_0, # of connection points: 2
#     Edge 96, Type (0, 1), BuildingBlock: UVAHIK_clean_linker_0, # of connection points: 2
#     Edge 97, Type (0, 1), BuildingBlock: UVAHIK_clean_linker_0, # of connection points: 2
#     Edge 98, Type (0, 1), BuildingBlock: UVAHIK_clean_linker_0, # of connection points: 2
#     Edge 99, Type (0, 1), BuildingBlock: UVAHIK_clean_linker_0, # of connection points: 2
#     Edge 100, Type (0, 1), BuildingBlock: UVAHIK_clean_linker_0, # of connection points: 2
#     Edge 101, Type (0, 1), BuildingBlock: UVAHIK_clean_linker_0, # of connection points: 2
#     Edge 102, Type (0, 1), BuildingBlock: UVAHIK_clean_linker_0, # of connection points: 2
#     Edge 103, Type (0, 1), BuildingBlock: UVAHIK_clean_linker_0, # of connection points: 2
#     Edge 104, Type (0, 1), BuildingBlock: UVAHIK_clean_linker_0, # of connection points: 2
#     Edge 105, Type (0, 1), BuildingBlock: UVAHIK_clean_linker_0, # of connection points: 2
#     Edge 106, Type (0, 1), BuildingBlock: UVAHIK_clean_linker_0, # of connection points: 2
#     Edge 107, Type (0, 1), BuildingBlock: UVAHIK_clean_linker_0, # of connection points: 2
#     Edge 108, Type (0, 1), BuildingBlock: UVAHIK_clean_linker_0, # of connection points: 2
#     Edge 109, Type (0, 1), BuildingBlock: UVAHIK_clean_linker_0, # of connection points: 2
#     Edge 110, Type (0, 1), BuildingBlock: UVAHIK_clean_linker_0, # of connection points: 2
#     Edge 111, Type (0, 1), BuildingBlock: UVAHIK_clean_linker_0, # of connection points: 2
#     Edge 112, Type (0, 1), BuildingBlock: UVAHIK_clean_linker_0, # of connection points: 2
#     Edge 113, Type (0, 1), BuildingBlock: UVAHIK_clean_linker_0, # of connection points: 2
#     Edge 114, Type (0, 1), BuildingBlock: UVAHIK_clean_linker_0, # of connection points: 2
#     Edge 115, Type (0, 1), BuildingBlock: UVAHIK_clean_linker_0, # of connection points: 2
#     Edge 116, Type (0, 1), BuildingBlock: UVAHIK_clean_linker_0, # of connection points: 2
#     Edge 117, Type (0, 1), BuildingBlock: UVAHIK_clean_linker_0, # of connection points: 2
#     Edge 118, Type (0, 1), BuildingBlock: UVAHIK_clean_linker_0, # of connection points: 2
#     Edge 119, Type (0, 1), BuildingBlock: UVAHIK_clean_linker_0, # of connection points: 2
#     Edge 120, Type (0, 1), BuildingBlock: UVAHIK_clean_linker_0, # of connection points: 2
#     Edge 121, Type (0, 1), BuildingBlock: UVAHIK_clean_linker_0, # of connection points: 2
#     Edge 122, Type (0, 1), BuildingBlock: UVAHIK_clean_linker_0, # of connection points: 2
#     Edge 123, Type (0, 1), BuildingBlock: UVAHIK_clean_linker_0, # of connection points: 2
#     Edge 124, Type (0, 1), BuildingBlock: UVAHIK_clean_linker_0, # of connection points: 2
#     Edge 125, Type (0, 1), BuildingBlock: UVAHIK_clean_linker_0, # of connection points: 2
#     Edge 126, Type (0, 1), BuildingBlock: UVAHIK_clean_linker_0, # of connection points: 2
#     Edge 127, Type (0, 1), BuildingBlock: UVAHIK_clean_linker_0, # of connection points: 2
#     Edge 128, Type (0, 1), BuildingBlock: UVAHIK_clean_linker_0, # of connection points: 2
#     Edge 129, Type (0, 1), BuildingBlock: UVAHIK_clean_linker_0, # of connection points: 2
#     Edge 130, Type (0, 1), BuildingBlock: UVAHIK_clean_linker_0, # of connection points: 2
#     Edge 131, Type (0, 1), BuildingBlock: UVAHIK_clean_linker_0, # of connection points: 2
#     Edge 132, Type (0, 1), BuildingBlock: UVAHIK_clean_linker_0, # of connection points: 2
#     Edge 133, Type (0, 1), BuildingBlock: UVAHIK_clean_linker_0, # of connection points: 2
#     Edge 134, Type (0, 1), BuildingBlock: UVAHIK_clean_linker_0, # of connection points: 2
#     Edge 135, Type (0, 1), BuildingBlock: UVAHIK_clean_linker_0, # of connection points: 2
# Relax obj value: 0.110
# Max RMSD: 0.222
# Mean RMSD: 0.160
data_MOF--net-gar--node1-QUQFOY_clean_sbu_1--node2-CUKXOW_clean_sbu_0--edge1-UVAHIK_clean_linker_0
_symmetry_space_group_name_H-M    P1
_symmetry_Int_Tables_number       1
_symmetry_cell_setting            triclinic
loop_
_symmetry_equiv_pos_as_xyz
'x, y, z'
_cell_length_a     72.036725
_cell_length_b     70.415189
_cell_length_c     70.794558
_cell_angle_alpha  94.173125
_cell_angle_beta   96.146323
_cell_angle_gamma 102.33117
loop_
_atom_site_label
_atom_site_type_symbol
_atom_site_fract_x
_atom_site_fract_y
_atom_site_fract_z
_atom_type_partial_charge
O0 O 0.02498 0.24489 0.42992 0.0
Cd1 Cd 0.02731 0.26678 0.41218 0.0
Cd2 Cd 0.01219 0.28494 0.44124 0.0
O3 O 0.01484 0.26009 0.45376 0.0
O4 O 0.04161 0.25789 0.39222 0.0
O5 O 0.05278 0.28508 0.41147 0.0
C6 C 0.05501 0.27323 0.39751 0.0
C7 C 0.02121 0.31387 0.46126 0.0
C8 C 0.01999 0.24531 0.44656 0.0
C9 C 0.98977 0.27779 0.40203 0.0
O10 O 0.99042 0.28393 0.41946 0.0
O11 O 0.0032 0.27069 0.39637 0.0
O12 O 0.00563 0.30125 0.46237 0.0
O13 O 0.03191 0.31003 0.44862 0.0
O14 O 0.99658 0.76 0.60769 0.0
Cd15 Cd 0.00196 0.78132 0.63041 0.0
Cd16 Cd 0.02198 0.80116 0.6058 0.0
O17 O 0.01201 0.77679 0.58684 0.0
O18 O 0.98381 0.77022 0.648 0.0
O19 O 0.98297 0.79776 0.63507 0.0
C20 C 0.97605 0.78496 0.64612 0.0
C21 C 0.01529 0.83042 0.59811 0.0
C22 C 0.00166 0.76111 0.59108 0.0
C23 C 0.04408 0.79621 0.64231 0.0
O24 O 0.04505 0.80208 0.62584 0.0
O25 O 0.02809 0.78788 0.64712 0.0
O26 O 0.02901 0.82404 0.59137 0.0
O27 O 0.00514 0.81994 0.60919 0.0
O28 O 0.57554 0.78707 0.93146 0.0
Cd29 Cd 0.55821 0.78588 0.95255 0.0
Cd30 Cd 0.53307 0.79657 0.92603 0.0
O31 O 0.55657 0.79888 0.91122 0.0
O32 O 0.56435 0.7663 0.96937 0.0
O33 O 0.53628 0.76295 0.95154 0.0
C34 C 0.54731 0.75603 0.96356 0.0
C35 C 0.50402 0.78635 0.90618 0.0
C36 C 0.57209 0.79347 0.91548 0.0
C37 C 0.54426 0.82016 0.9649 0.0
O38 O 0.53284 0.81572 0.94948 0.0
O39 O 0.55733 0.81098 0.96869 0.0
O40 O 0.51442 0.80372 0.90669 0.0
O41 O 0.50994 0.77458 0.91735 0.0
O42 O 0.48399 0.25577 0.0929 0.0
Cd43 Cd 0.48982 0.27233 0.11895 0.0
Cd44 Cd 0.51477 0.29502 0.10098 0.0
O45 O 0.50865 0.27176 0.08026 0.0
O46 O 0.46841 0.26184 0.13337 0.0
O47 O 0.47527 0.29248 0.12635 0.0
C48 C 0.46499 0.27908 0.13474 0.0
C49 C 0.51041 0.32498 0.09251 0.0
C50 C 0.49434 0.25748 0.0794 0.0
C51 C 0.53026 0.28273 0.13756 0.0
O52 O 0.53338 0.29436 0.1248 0.0
O53 O 0.51393 0.27135 0.13708 0.0
O54 O 0.52554 0.31892 0.08917 0.0
O55 O 0.49763 0.31386 0.10071 0.0
O56 O 0.98811 0.7317 0.1616 0.0
Cd57 Cd 0.99067 0.7571 0.17925 0.0
Cd58 Cd 0.00337 0.77467 0.14824 0.0
O59 O 0.99382 0.7464 0.13565 0.0
O60 O 0.97407 0.75095 0.19978 0.0
O61 O 0.96909 0.77118 0.17823 0.0
C62 C 0.96397 0.76254 0.19296 0.0
C63 C 0.99843 0.79949 0.1292 0.0
C64 C 0.98932 0.73086 0.14379 0.0
C65 C 0.03156 0.77844 0.18416 0.0
O66 O 0.02878 0.78102 0.16658 0.0
O67 O 0.01777 0.77008 0.19255 0.0
O68 O 0.01073 0.78917 0.12607 0.0
O69 O 0.98863 0.79566 0.14324 0.0
O70 O 0.56743 0.7976 0.3785 0.0
Cd71 Cd 0.5449 0.7944 0.39471 0.0
Cd72 Cd 0.52778 0.80731 0.36332 0.0
O73 O 0.55127 0.80177 0.35142 0.0
O74 O 0.5521 0.77888 0.41555 0.0
O75 O 0.52705 0.76796 0.39362 0.0
C76 C 0.53768 0.76505 0.40855 0.0
C77 C 0.49718 0.79645 0.34646 0.0
C78 C 0.56654 0.7993 0.3607 0.0
C79 C 0.53428 0.83297 0.4003 0.0
O80 O 0.53089 0.83194 0.38222 0.0
O81 O 0.53881 0.81878 0.40836 0.0
O82 O 0.50923 0.81114 0.34178 0.0
O83 O 0.50276 0.78736 0.36047 0.0
O84 O 0.48824 0.23188 0.65763 0.0
Cd85 Cd 0.49055 0.25493 0.67833 0.0
Cd86 Cd 0.50717 0.27731 0.65137 0.0
O87 O 0.50113 0.25015 0.63632 0.0
O88 O 0.47234 0.24635 0.697 0.0
O89 O 0.46968 0.26993 0.67853 0.0
C90 C 0.46329 0.25939 0.69165 0.0
C91 C 0.50295 0.30285 0.63301 0.0
C92 C 0.49374 0.23348 0.64121 0.0
C93 C 0.53145 0.27693 0.6889 0.0
O94 O 0.53019 0.28334 0.67259 0.0
O95 O 0.51712 0.26557 0.69416 0.0
O96 O 0.51677 0.29413 0.6315 0.0
O97 O 0.49141 0.29726 0.64529 0.0
O98 O 0.0243 0.25369 0.88033 0.0
Cd99 Cd 0.02629 0.27377 0.86027 0.0
Cd100 Cd 0.01256 0.29503 0.89042 0.0
O101 O 0.01544 0.27066 0.9039 0.0
O102 O 0.04055 0.26308 0.84094 0.0
O103 O 0.05223 0.29112 0.85862 0.0
C104 C 0.05447 0.27808 0.84576 0.0
C105 C 0.01907 0.32494 0.90939 0.0
C106 C 0.01997 0.25526 0.89723 0.0
C107 C 0.98859 0.28543 0.85132 0.0
O108 O 0.99056 0.29237 0.86868 0.0
O109 O 0.00142 0.27777 0.84489 0.0
O110 O 0.00442 0.31127 0.91082 0.0
O111 O 0.03053 0.32155 0.89736 0.0
O112 O 0.40629 0.08223 0.21396 0.0
Cd113 Cd 0.38734 0.08128 0.23425 0.0
Cd114 Cd 0.41762 0.06747 0.25493 0.0
O115 O 0.43067 0.07437 0.23093 0.0
O116 O 0.36711 0.09445 0.22361 0.0
O117 O 0.38597 0.10563 0.25056 0.0
C118 C 0.37199 0.10728 0.23821 0.0
C119 C 0.43552 0.07284 0.2854 0.0
C120 C 0.42319 0.07922 0.21541 0.0
C121 C 0.37831 0.04034 0.2458 0.0
O122 O 0.39598 0.04268 0.25177 0.0
O123 O 0.37176 0.05425 0.23925 0.0
O124 O 0.4375 0.05961 0.27271 0.0
O125 O 0.42397 0.08387 0.28052 0.0
O126 O 0.26821 0.15682 0.52278 0.0
Cd127 Cd 0.26474 0.13913 0.49756 0.0
Cd128 Cd 0.25765 0.17062 0.48154 0.0
O129 O 0.26324 0.18274 0.50923 0.0
O130 O 0.27525 0.11642 0.50461 0.0
O131 O 0.28827 0.13744 0.48532 0.0
C132 C 0.28873 0.12222 0.49437 0.0
C133 C 0.27468 0.18913 0.46074 0.0
C134 C 0.26713 0.17461 0.52409 0.0
C135 C 0.22552 0.13554 0.47602 0.0
O136 O 0.23062 0.1534 0.4731 0.0
O137 O 0.23728 0.12706 0.48475 0.0
O138 O 0.26041 0.19421 0.46759 0.0
O139 O 0.27886 0.17286 0.46491 0.0
O140 O 0.14891 0.99594 0.75458 0.0
Cd141 Cd 0.16982 0.00036 0.77782 0.0
Cd142 Cd 0.13939 0.01162 0.79608 0.0
O143 O 0.12481 0.00143 0.76934 0.0
O144 O 0.18933 0.98692 0.76845 0.0
O145 O 0.17396 0.97796 0.79288 0.0
C146 C 0.18614 0.97513 0.78143 0.0
C147 C 0.12065 0.00687 0.82133 0.0
C148 C 0.13138 0.99657 0.75421 0.0
C149 C 0.17648 0.04208 0.79435 0.0
O150 O 0.15948 0.03786 0.79865 0.0
O151 O 0.18379 0.02898 0.78667 0.0
O152 O 0.1187 0.0194 0.80937 0.0
O153 O 0.13345 0.99685 0.81911 0.0
O154 O 0.22131 0.89244 0.06741 0.0
Cd155 Cd 0.2202 0.91136 0.04629 0.0
Cd156 Cd 0.23144 0.87851 0.02509 0.0
O157 O 0.22586 0.86652 0.05037 0.0
O158 O 0.20809 0.93243 0.05655 0.0
O159 O 0.19485 0.91208 0.03114 0.0
C160 C 0.19418 0.92675 0.04292 0.0
C161 C 0.22747 0.85787 0.99645 0.0
C162 C 0.22321 0.87482 0.06615 0.0
C163 C 0.25853 0.91915 0.03151 0.0
O164 O 0.2552 0.90102 0.02608 0.0
O165 O 0.24608 0.92643 0.03912 0.0
O166 O 0.24031 0.85746 0.01041 0.0
O167 O 0.21593 0.86928 0.99904 0.0
O168 O 0.22726 0.3966 0.0783 0.0
Cd169 Cd 0.23585 0.41848 0.06115 0.0
Cd170 Cd 0.24247 0.39001 0.03723 0.0
O171 O 0.2321 0.3734 0.05804 0.0
O172 O 0.22221 0.44001 0.06459 0.0
O173 O 0.21846 0.4203 0.03788 0.0
C174 C 0.21429 0.43498 0.04718 0.0
C175 C 0.23173 0.37756 0.00568 0.0
C176 C 0.2269 0.37871 0.07379 0.0
C177 C 0.27608 0.42278 0.05268 0.0
O178 O 0.27004 0.40668 0.04228 0.0
O179 O 0.26466 0.43028 0.06171 0.0
O180 O 0.24313 0.36983 0.01633 0.0
O181 O 0.22619 0.39241 0.01297 0.0
O182 O 0.80863 0.17514 0.04817 0.0
Cd183 Cd 0.80674 0.15557 0.02419 0.0
Cd184 Cd 0.79218 0.186 0.00691 0.0
O185 O 0.80028 0.19979 0.03438 0.0
O186 O 0.82114 0.13564 0.03275 0.0
O187 O 0.82944 0.15398 0.00978 0.0
C188 C 0.8325 0.14032 0.02013 0.0
C189 C 0.79471 0.20421 0.98027 0.0
C190 C 0.8055 0.19231 0.04935 0.0
C191 C 0.76545 0.14605 0.00685 0.0
O192 O 0.7679 0.16382 0.00341 0.0
O193 O 0.77936 0.13947 0.01429 0.0
O194 O 0.78307 0.20634 0.99241 0.0
O195 O 0.80575 0.19229 0.98364 0.0
O196 O 0.10882 0.48602 0.24216 0.0
Cd197 Cd 0.13086 0.48793 0.264 0.0
Cd198 Cd 0.10505 0.50745 0.28326 0.0
O199 O 0.08941 0.50123 0.25635 0.0
O200 O 0.14795 0.47303 0.25201 0.0
O201 O 0.13518 0.46472 0.27797 0.0
C202 C 0.1461 0.46153 0.26533 0.0
C203 C 0.08879 0.50636 0.31033 0.0
C204 C 0.0936 0.49252 0.24153 0.0
C205 C 0.14569 0.52991 0.28062 0.0
O206 O 0.12952 0.52938 0.28642 0.0
O207 O 0.14898 0.51502 0.27148 0.0
O208 O 0.0887 0.51987 0.29904 0.0
O209 O 0.09753 0.49277 0.30588 0.0
O210 O 0.72714 0.89801 0.5826 0.0
Cd211 Cd 0.73776 0.92133 0.56785 0.0
Cd212 Cd 0.74553 0.89435 0.54288 0.0
O213 O 0.73277 0.87614 0.56142 0.0
O214 O 0.72375 0.94235 0.57223 0.0
O215 O 0.72239 0.92567 0.54409 0.0
C216 C 0.71723 0.93915 0.55429 0.0
C217 C 0.73729 0.8834 0.51065 0.0
C218 C 0.72638 0.88031 0.57684 0.0
C219 C 0.77871 0.92602 0.56219 0.0
O220 O 0.77304 0.91068 0.55063 0.0
O221 O 0.7668 0.93301 0.57098 0.0
O222 O 0.7479 0.87524 0.52175 0.0
O223 O 0.73128 0.89802 0.51781 0.0
O224 O 0.88465 0.07015 0.20634 0.0
Cd225 Cd 0.86537 0.06555 0.22612 0.0
Cd226 Cd 0.89551 0.05898 0.2486 0.0
O227 O 0.90991 0.06892 0.22634 0.0
O228 O 0.84486 0.07961 0.21908 0.0
O229 O 0.86479 0.08728 0.24596 0.0
C230 C 0.85054 0.09059 0.23495 0.0
C231 C 0.91103 0.06788 0.27969 0.0
C232 C 0.90261 0.07161 0.20988 0.0
C233 C 0.8612 0.02525 0.23751 0.0
O234 O 0.87851 0.03107 0.24503 0.0
O235 O 0.85249 0.03707 0.22961 0.0
O236 O 0.91669 0.05626 0.26784 0.0
O237 O 0.89673 0.07516 0.27371 0.0
O238 O 0.31478 0.68331 0.55024 0.0
Cd239 Cd 0.31091 0.66308 0.52661 0.0
Cd240 Cd 0.29571 0.69323 0.50961 0.0
O241 O 0.30518 0.70754 0.53682 0.0
O242 O 0.32453 0.64278 0.5356 0.0
O243 O 0.33261 0.65952 0.51148 0.0
C244 C 0.33546 0.64625 0.52242 0.0
C245 C 0.29903 0.71002 0.4822 0.0
C246 C 0.31164 0.70045 0.55155 0.0
C247 C 0.26892 0.65388 0.51111 0.0
O248 O 0.27112 0.67142 0.50697 0.0
O249 O 0.28306 0.64757 0.51844 0.0
O250 O 0.28782 0.71367 0.49431 0.0
O251 O 0.30914 0.69735 0.486 0.0
O252 O 0.38084 0.56324 0.69949 0.0
Cd253 Cd 0.36147 0.55878 0.71922 0.0
Cd254 Cd 0.39139 0.5524 0.7422 0.0
O255 O 0.40579 0.56193 0.71986 0.0
O256 O 0.34153 0.57383 0.71311 0.0
O257 O 0.36192 0.5802 0.73973 0.0
C258 C 0.34778 0.58431 0.72919 0.0
C259 C 0.40794 0.56136 0.77287 0.0
C260 C 0.39876 0.56462 0.70331 0.0
C261 C 0.35684 0.51873 0.73122 0.0
O262 O 0.37403 0.52467 0.73907 0.0
O263 O 0.34833 0.53037 0.72275 0.0
O264 O 0.41283 0.54929 0.76088 0.0
O265 O 0.39369 0.56891 0.76733 0.0
O266 O 0.60876 0.98212 0.73853 0.0
Cd267 Cd 0.63052 0.98526 0.76085 0.0
Cd268 Cd 0.60337 0.0034 0.77925 0.0
O269 O 0.58819 0.99624 0.75205 0.0
O270 O 0.64846 0.97057 0.75003 0.0
O271 O 0.63518 0.96279 0.77586 0.0
C272 C 0.64651 0.95947 0.76368 0.0
C273 C 0.58681 0.00192 0.80623 0.0
C274 C 0.59309 0.98782 0.73745 0.0
C275 C 0.64338 0.02762 0.77649 0.0
O276 O 0.62711 0.02625 0.78231 0.0
O277 O 0.64752 0.01303 0.76762 0.0
O278 O 0.58614 0.01507 0.79463 0.0
O279 O 0.59627 0.98885 0.80213 0.0
O280 O 0.77411 0.66499 0.02929 0.0
Cd281 Cd 0.76974 0.64359 0.00684 0.0
Cd282 Cd 0.76132 0.67325 0.98651 0.0
O283 O 0.76739 0.68862 0.01294 0.0
O284 O 0.78027 0.62271 0.0185 0.0
O285 O 0.79254 0.63824 0.99507 0.0
C286 C 0.79324 0.62546 0.00719 0.0
C287 C 0.77424 0.69077 0.96253 0.0
C288 C 0.7724 0.68251 0.02867 0.0
C289 C 0.73007 0.63719 0.98564 0.0
O290 O 0.735 0.65417 0.98026 0.0
O291 O 0.74197 0.6301 0.99591 0.0
O292 O 0.75962 0.69437 0.96988 0.0
O293 O 0.7813 0.67652 0.96835 0.0
O294 O 0.90892 0.58245 0.71748 0.0
Cd295 Cd 0.89023 0.58064 0.73792 0.0
Cd296 Cd 0.92111 0.56893 0.75885 0.0
O297 O 0.93375 0.57563 0.73454 0.0
O298 O 0.87062 0.5951 0.72844 0.0
O299 O 0.88926 0.60392 0.75595 0.0
C300 C 0.87574 0.60693 0.74379 0.0
C301 C 0.93977 0.57571 0.78884 0.0
C302 C 0.92602 0.58007 0.71896 0.0
C303 C 0.88239 0.54017 0.75035 0.0
O304 O 0.90001 0.54373 0.75702 0.0
O305 O 0.87533 0.55314 0.74246 0.0
O306 O 0.94216 0.56261 0.77626 0.0
O307 O 0.92721 0.58574 0.78415 0.0
O308 O 0.72217 0.39453 0.5654 0.0
Cd309 Cd 0.72257 0.41584 0.54656 0.0
Cd310 Cd 0.73448 0.3847 0.52289 0.0
O311 O 0.72984 0.37098 0.54745 0.0
O312 O 0.70925 0.43508 0.55846 0.0
O313 O 0.69879 0.41884 0.53012 0.0
C314 C 0.69675 0.43149 0.54346 0.0
C315 C 0.73068 0.36524 0.49349 0.0
C316 C 0.72554 0.37751 0.56327 0.0
C317 C 0.76122 0.42554 0.5327 0.0
O318 O 0.75751 0.40813 0.52482 0.0
O319 O 0.74915 0.43173 0.54196 0.0
O320 O 0.7441 0.36508 0.50696 0.0
O321 O 0.71864 0.37587 0.49691 0.0
O322 O 0.64576 0.50348 0.25275 0.0
Cd323 Cd 0.66487 0.50716 0.27733 0.0
Cd324 Cd 0.6338 0.51707 0.29393 0.0
O325 O 0.62056 0.50706 0.26667 0.0
O326 O 0.68583 0.49454 0.27042 0.0
O327 O 0.66645 0.48351 0.29135 0.0
C328 C 0.68049 0.48167 0.28194 0.0
C329 C 0.61422 0.50992 0.31814 0.0
C330 C 0.62799 0.50321 0.25178 0.0
C331 C 0.67039 0.54842 0.29477 0.0
O332 O 0.65296 0.54399 0.29777 0.0
O333 O 0.6783 0.53548 0.28776 0.0
O334 O 0.61201 0.52286 0.3067 0.0
O335 O 0.62783 0.50093 0.31603 0.0
Tb336 Tb 0.0158 0.05021 0.01049 0.0
C337 C 0.01543 0.0155 0.98045 0.0
Tb338 Tb 0.00295 0.00784 0.02106 0.0
O339 O 0.04627 0.04892 0.01297 0.0
O340 O 0.02733 0.03082 0.02734 0.0
O341 O 0.01155 0.03307 0.98288 0.0
C342 C 0.00179 0.97254 0.03295 0.0
O343 O 0.01489 0.00373 0.9943 0.0
C344 C 0.97509 0.02512 0.01075 0.0
C345 C 0.00282 0.0432 0.05139 0.0
O346 O 0.99082 0.97619 0.01847 0.0
O347 O 0.01338 0.98865 0.04047 0.0
O348 O 0.97351 0.01086 0.02155 0.0
O349 O 0.99102 0.02729 0.00425 0.0
O350 O 0.00259 0.02429 0.04826 0.0
O351 O 0.00699 0.05584 0.03856 0.0
C352 C 0.01812 0.08595 0.99914 0.0
O353 O 0.00515 0.0772 0.00892 0.0
O354 O 0.02976 0.07471 0.99606 0.0
C355 C 0.0439 0.03373 0.02246 0.0
Tb356 Tb 0.26985 0.80813 0.27126 0.0
C357 C 0.3003 0.78234 0.2765 0.0
Tb358 Tb 0.25588 0.763 0.26877 0.0
O359 O 0.27998 0.81076 0.30188 0.0
O360 O 0.25873 0.78702 0.28944 0.0
O361 O 0.29691 0.79905 0.27103 0.0
C362 C 0.24629 0.72567 0.27567 0.0
O363 O 0.2864 0.76717 0.27856 0.0
C364 C 0.25535 0.77779 0.23571 0.0
C365 C 0.22535 0.78858 0.26329 0.0
O366 O 0.25781 0.73246 0.26361 0.0
O367 O 0.24021 0.73988 0.28382 0.0
O368 O 0.24518 0.76081 0.23827 0.0
O369 O 0.26693 0.78412 0.25061 0.0
O370 O 0.22872 0.7718 0.26865 0.0
O371 O 0.23926 0.80387 0.2614 0.0
C372 C 0.28071 0.84521 0.26382 0.0
O373 O 0.267 0.83865 0.27379 0.0
O374 O 0.28814 0.83094 0.25806 0.0
C375 C 0.27017 0.7936 0.30437 0.0
Tb376 Tb 0.52968 0.03607 0.5104 0.0
C377 C 0.51655 0.02052 0.54974 0.0
Tb378 Tb 0.48824 0.03271 0.51866 0.0
O379 O 0.53554 0.06809 0.516 0.0
O380 O 0.5153 0.05005 0.52951 0.0
O381 O 0.52909 0.02163 0.53706 0.0
C382 C 0.45642 0.04473 0.52403 0.0
O383 O 0.50028 0.02651 0.54655 0.0
C384 C 0.49578 0.00113 0.5028 0.0
C385 C 0.50135 0.0479 0.47905 0.0
O386 O 0.45755 0.02654 0.52162 0.0
O387 O 0.47316 0.05591 0.52372 0.0
O388 O 0.48234 0.00076 0.51378 0.0
O389 O 0.50256 0.01846 0.49974 0.0
O390 O 0.48834 0.04581 0.49125 0.0
O391 O 0.51816 0.04312 0.48276 0.0
C392 C 0.56193 0.02534 0.50393 0.0
O393 O 0.5606 0.04313 0.50867 0.0
O394 O 0.54517 0.01377 0.50278 0.0
C395 C 0.52209 0.06747 0.52697 0.0
Tb396 Tb 0.26412 0.28996 0.78975 0.0
C397 C 0.27205 0.32008 0.75877 0.0
Tb398 Tb 0.2586 0.27473 0.74555 0.0
O399 O 0.29482 0.28811 0.79547 0.0
O400 O 0.27935 0.28139 0.76908 0.0
O401 O 0.26692 0.31708 0.77603 0.0
C402 C 0.26486 0.26447 0.71049 0.0
O403 O 0.27181 0.30564 0.74546 0.0
C404 C 0.22747 0.27679 0.76104 0.0
C405 C 0.25319 0.24436 0.77634 0.0
O406 O 0.25394 0.27627 0.71475 0.0
O407 O 0.27208 0.25842 0.72591 0.0
O408 O 0.22754 0.26521 0.74586 0.0
O409 O 0.24382 0.2878 0.76525 0.0
O410 O 0.25739 0.24772 0.75887 0.0
O411 O 0.25302 0.25848 0.78988 0.0
C412 C 0.2554 0.3034 0.82286 0.0
O413 O 0.24721 0.28656 0.81364 0.0
O414 O 0.26877 0.31244 0.81369 0.0
C415 C 0.29564 0.28255 0.77766 0.0
Tb416 Tb 0.99269 0.03812 0.50665 0.0
C417 C 0.96786 0.02551 0.53906 0.0
Tb418 Tb 0.01355 0.03579 0.54698 0.0
O419 O 0.98203 0.00632 0.50341 0.0
O420 O 0.00785 0.01931 0.52005 0.0
O421 O 0.96835 0.03365 0.52272 0.0
C422 C 0.02744 0.02359 0.57924 0.0
O423 O 0.98351 0.02326 0.54965 0.0
C424 C 0.0108 0.07086 0.53933 0.0
C425 C 0.03829 0.05019 0.51502 0.0
O426 O 0.02653 0.01494 0.56225 0.0
O427 O 0.02057 0.03913 0.57806 0.0
O428 O 0.02382 0.06751 0.55202 0.0
O429 O 0.99896 0.05507 0.53338 0.0
O430 O 0.03807 0.04168 0.53117 0.0
O431 O 0.02247 0.05246 0.50474 0.0
C432 C 0.97973 0.04693 0.47236 0.0
O433 O 0.99278 0.03707 0.47578 0.0
O434 O 0.97373 0.05179 0.48829 0.0
C435 C 0.99604 0.00341 0.51511 0.0
Tb436 Tb 0.29215 0.78181 0.78352 0.0
C437 C 0.26108 0.78607 0.81031 0.0
Tb438 Tb 0.25134 0.78002 0.76482 0.0
O439 O 0.29475 0.8123 0.79461 0.0
O440 O 0.27764 0.80066 0.76904 0.0
O441 O 0.2778 0.78123 0.80911 0.0
C442 C 0.2178 0.78788 0.75284 0.0
O443 O 0.24941 0.78786 0.79499 0.0
C444 C 0.2606 0.74621 0.76678 0.0
C445 C 0.28217 0.77554 0.73795 0.0
O446 O 0.22016 0.77149 0.75887 0.0
O447 O 0.23432 0.79981 0.75343 0.0
O448 O 0.24798 0.74961 0.75369 0.0
O449 O 0.26589 0.76091 0.77899 0.0
O450 O 0.26556 0.78058 0.73921 0.0
O451 O 0.29384 0.77359 0.75325 0.0
C452 C 0.32581 0.77439 0.79621 0.0
O453 O 0.32352 0.78959 0.78767 0.0
O454 O 0.30919 0.76347 0.79761 0.0
C455 C 0.2825 0.81548 0.78102 0.0
Tb456 Tb 0.48842 0.0293 0.01205 0.0
C457 C 0.51772 0.00412 0.02331 0.0
Tb458 Tb 0.53095 0.049 0.01595 0.0
O459 O 0.4916 0.01046 0.98716 0.0
O460 O 0.50877 0.03864 0.99316 0.0
O461 O 0.49988 0.00609 0.0238 0.0
C462 C 0.56812 0.05918 0.01179 0.0
O463 O 0.53155 0.01833 0.01899 0.0
C464 C 0.51354 0.05539 0.04566 0.0
C465 C 0.50156 0.07437 0.00589 0.0
O466 O 0.56107 0.05943 0.0279 0.0
O467 O 0.55422 0.05327 0.99799 0.0
O468 O 0.52812 0.06774 0.04106 0.0
O469 O 0.51061 0.03976 0.03481 0.0
O470 O 0.51928 0.07235 0.0045 0.0
O471 O 0.48804 0.06014 0.01064 0.0
C472 C 0.45108 0.01845 0.01524 0.0
O473 O 0.45829 0.02207 0.99952 0.0
O474 O 0.46489 0.02094 0.02916 0.0
C475 C 0.506 0.02294 0.98245 0.0
Tb476 Tb 0.25154 0.28557 0.28297 0.0
C477 C 0.28931 0.29706 0.31295 0.0
Tb478 Tb 0.29081 0.29935 0.26866 0.0
O479 O 0.24904 0.25589 0.26882 0.0
O480 O 0.27549 0.27396 0.27862 0.0
O481 O 0.27027 0.29364 0.30992 0.0
C482 C 0.32439 0.29988 0.25637 0.0
O483 O 0.30035 0.29903 0.29896 0.0
C484 C 0.27004 0.32567 0.27104 0.0
C485 C 0.25324 0.28903 0.23963 0.0
O486 O 0.30972 0.2852 0.25363 0.0
O487 O 0.32025 0.31444 0.26621 0.0
O488 O 0.28265 0.32578 0.25922 0.0
O489 O 0.27101 0.31242 0.28185 0.0
O490 O 0.27154 0.28817 0.24235 0.0
O491 O 0.2431 0.29081 0.2539 0.0
C492 C 0.21985 0.28391 0.29939 0.0
O493 O 0.22548 0.29564 0.28681 0.0
O494 O 0.23194 0.27285 0.30257 0.0
C495 C 0.26747 0.25794 0.2694 0.0
Tb496 Tb 0.49366 0.53477 0.99902 0.0
C497 C 0.4666 0.5211 0.02955 0.0
Tb498 Tb 0.51188 0.53355 0.04065 0.0
O499 O 0.48429 0.50285 0.99563 0.0
O500 O 0.50871 0.51685 0.01403 0.0
O501 O 0.46796 0.5289 0.01308 0.0
C502 C 0.52446 0.5221 0.07379 0.0
O503 O 0.48178 0.51981 0.04143 0.0
C504 C 0.50829 0.56805 0.03174 0.0
C505 C 0.53889 0.54855 0.01065 0.0
O506 O 0.5248 0.51345 0.05707 0.0
O507 O 0.51703 0.53721 0.07187 0.0
O508 O 0.52064 0.56544 0.04552 0.0
O509 O 0.49733 0.55187 0.02543 0.0
O510 O 0.53771 0.54049 0.027 0.0
O511 O 0.52362 0.54979 0.99885 0.0
C512 C 0.4817 0.54367 0.96449 0.0
O513 O 0.49463 0.53371 0.96823 0.0
O514 O 0.47534 0.54855 0.9802 0.0
C515 C 0.49765 0.50059 0.00853 0.0
Tb516 Tb 0.78138 0.28469 0.27515 0.0
C517 C 0.75258 0.28835 0.3046 0.0
Tb518 Tb 0.73855 0.27667 0.26003 0.0
O519 O 0.78276 0.31556 0.28331 0.0
O520 O 0.76254 0.30004 0.26109 0.0
O521 O 0.76973 0.28509 0.30227 0.0
C522 C 0.70273 0.27928 0.24943 0.0
O523 O 0.73907 0.28756 0.29001 0.0
C524 C 0.75236 0.24554 0.2639 0.0
C525 C 0.76772 0.27278 0.23066 0.0
O526 O 0.7077 0.26709 0.26082 0.0
O527 O 0.71788 0.28984 0.24392 0.0
O528 O 0.73763 0.24597 0.25179 0.0
O529 O 0.75719 0.26147 0.27444 0.0
O530 O 0.75023 0.27521 0.23286 0.0
O531 O 0.78139 0.2744 0.24525 0.0
C532 C 0.81711 0.28178 0.28589 0.0
O533 O 0.81238 0.29587 0.27701 0.0
O534 O 0.80178 0.26944 0.2887 0.0
C535 C 0.76764 0.31592 0.27172 0.0
Tb536 Tb 0.99229 0.53333 0.51718 0.0
C537 C 0.02155 0.50712 0.52359 0.0
Tb538 Tb 0.03497 0.55257 0.51987 0.0
O539 O 0.9938 0.51543 0.49102 0.0
O540 O 0.01192 0.54307 0.49774 0.0
O541 O 0.00427 0.50939 0.52667 0.0
C542 C 0.07192 0.56318 0.51518 0.0
O543 O 0.03475 0.52139 0.51846 0.0
C544 C 0.01907 0.55804 0.55087 0.0
C545 C 0.00574 0.57879 0.51299 0.0
O546 O 0.06538 0.5558 0.53006 0.0
O547 O 0.05766 0.56462 0.50292 0.0
O548 O 0.03381 0.57019 0.54636 0.0
O549 O 0.01534 0.54289 0.53928 0.0
O550 O 0.02327 0.57674 0.51076 0.0
O551 O 0.99226 0.56443 0.51754 0.0
C552 C 0.95515 0.52282 0.52131 0.0
O553 O 0.96196 0.52858 0.50594 0.0
O554 O 0.96926 0.52288 0.53436 0.0
C555 C 0.00828 0.5278 0.48632 0.0
Tb556 Tb 0.76625 0.79529 0.29231 0.0
C557 C 0.77521 0.82606 0.26217 0.0
Tb558 Tb 0.76003 0.78114 0.24776 0.0
O559 O 0.79662 0.79231 0.29753 0.0
O560 O 0.78081 0.78604 0.2713 0.0
O561 O 0.7698 0.82281 0.27927 0.0
C562 C 0.76599 0.77193 0.21233 0.0
O563 O 0.77462 0.81178 0.24858 0.0
C564 C 0.72938 0.78471 0.26341 0.0
C565 C 0.75236 0.75007 0.27764 0.0
O566 O 0.75565 0.78409 0.2172 0.0
O567 O 0.77271 0.76482 0.22735 0.0
O568 O 0.7288 0.7735 0.2478 0.0
O569 O 0.74617 0.79467 0.26795 0.0
O570 O 0.75689 0.75348 0.26028 0.0
O571 O 0.75297 0.76417 0.29147 0.0
C572 C 0.75912 0.80872 0.32619 0.0
O573 O 0.7509 0.7917 0.31733 0.0
O574 O 0.77159 0.81793 0.31618 0.0
C575 C 0.79711 0.78677 0.27965 0.0
Tb576 Tb 0.76733 0.30702 0.77173 0.0
C577 C 0.80019 0.28332 0.76763 0.0
Tb578 Tb 0.7566 0.26271 0.76394 0.0
O579 O 0.76218 0.30535 0.80161 0.0
O580 O 0.77122 0.28302 0.78693 0.0
O581 O 0.79505 0.30035 0.76689 0.0
C582 C 0.74386 0.22513 0.76883 0.0
O583 O 0.78763 0.26683 0.76907 0.0
C584 C 0.75829 0.28184 0.73337 0.0
C585 C 0.72365 0.2865 0.76784 0.0
O586 O 0.75139 0.23155 0.754 0.0
O587 O 0.7435 0.23985 0.78081 0.0
O588 O 0.7611 0.26423 0.73379 0.0
O589 O 0.75272 0.28665 0.74887 0.0
O590 O 0.7287 0.26938 0.768 0.0
O591 O 0.7363 0.30313 0.7671 0.0
C592 C 0.77999 0.34486 0.76774 0.0
O593 O 0.77425 0.33786 0.78311 0.0
O594 O 0.77862 0.33056 0.75467 0.0
C595 C 0.76532 0.28789 0.80225 0.0
Tb596 Tb 0.74365 0.77737 0.77643 0.0
C597 C 0.7823 0.78634 0.80267 0.0
Tb598 Tb 0.78018 0.78797 0.75794 0.0
O599 O 0.7505 0.74963 0.78352 0.0
O600 O 0.75935 0.76226 0.75938 0.0
O601 O 0.76429 0.78823 0.80156 0.0
C602 C 0.81381 0.78999 0.74493 0.0
O603 O 0.79087 0.78414 0.78722 0.0
C604 C 0.76268 0.81644 0.76411 0.0
C605 C 0.74128 0.77809 0.73133 0.0
O606 O 0.80751 0.80483 0.75133 0.0
O607 O 0.80122 0.77403 0.7459 0.0
O608 O 0.77257 0.81496 0.75001 0.0
O609 O 0.76431 0.80322 0.77487 0.0
O610 O 0.75992 0.77878 0.73224 0.0
O611 O 0.73225 0.77851 0.7467 0.0
C612 C 0.71026 0.77679 0.78962 0.0
O613 O 0.72004 0.7634 0.79126 0.0
O614 O 0.71922 0.79044 0.78046 0.0
C615 C 0.76067 0.74861 0.7696 0.0
Tb616 Tb 0.51414 0.54798 0.50649 0.0
C617 C 0.50897 0.51184 0.47512 0.0
Tb618 Tb 0.50025 0.50583 0.51748 0.0
O619 O 0.54207 0.55054 0.52412 0.0
O620 O 0.52604 0.52377 0.51202 0.0
O621 O 0.51033 0.53096 0.47872 0.0
C622 C 0.49991 0.47122 0.53036 0.0
O623 O 0.50607 0.49928 0.48829 0.0
C624 C 0.47327 0.52548 0.51168 0.0
C625 C 0.50446 0.5419 0.54785 0.0
O626 O 0.488 0.47432 0.51631 0.0
O627 O 0.51194 0.48748 0.5368 0.0
O628 O 0.47202 0.51091 0.52206 0.0
O629 O 0.48806 0.52669 0.50339 0.0
O630 O 0.50657 0.52369 0.54493 0.0
O631 O 0.50483 0.55366 0.53407 0.0
C632 C 0.51738 0.58197 0.49136 0.0
O633 O 0.50409 0.57462 0.50146 0.0
O634 O 0.52896 0.57026 0.48991 0.0
C635 C 0.54077 0.53177 0.52317 0.0
Tb636 Tb 0.03314 0.53764 0.01477 0.0
C637 C 0.01896 0.52452 0.05327 0.0
Tb638 Tb 0.99116 0.53573 0.01988 0.0
O639 O 0.04212 0.56358 0.0355 0.0
O640 O 0.01566 0.55781 0.01851 0.0
O641 O 0.03135 0.52317 0.04087 0.0
C642 C 0.9586 0.54337 0.02973 0.0
O643 O 0.00291 0.53059 0.04865 0.0
C644 C 0.99853 0.50451 0.00254 0.0
C645 C 0.00528 0.54877 0.98124 0.0
O646 O 0.9755 0.55455 0.03442 0.0
O647 O 0.96008 0.52764 0.01981 0.0
O648 O 0.98231 0.50966 0.99921 0.0
O649 O 0.0087 0.51557 0.01621 0.0
O650 O 0.99236 0.54932 0.99322 0.0
O651 O 0.02167 0.54349 0.98623 0.0
C652 C 0.06541 0.52999 0.00413 0.0
O653 O 0.04824 0.52026 0.99765 0.0
O654 O 0.06439 0.54423 0.01641 0.0
C655 C 0.02594 0.56879 0.03219 0.0
C656 C 0.0299 0.22435 0.90468 0.0
C657 C 0.02005 0.23893 0.90926 0.0
C658 C 0.02999 0.20895 0.91606 0.0
C659 C 0.00262 0.18009 0.94853 0.0
H660 H 0.05064 0.16638 0.96533 0.0
C661 C 0.00594 0.11647 0.99548 0.0
C662 C 0.01883 0.10486 0.99124 0.0
C663 C 0.00637 0.134 0.98715 0.0
C664 C 0.03706 0.16982 0.96058 0.0
H665 H 0.00239 0.24867 0.92927 0.0
H666 H 0.00226 0.22146 0.9489 0.0
H667 H 0.05068 0.19438 0.94703 0.0
H668 H 0.04219 0.10228 0.97503 0.0
H669 H 0.04259 0.13229 0.96011 0.0
H670 H 0.98886 0.15514 0.96136 0.0
C671 C 0.01001 0.2221 0.93658 0.0
C672 C 0.03713 0.18593 0.95017 0.0
C673 C 0.01018 0.2377 0.9254 0.0
C674 C 0.03218 0.11105 0.97868 0.0
C675 C 0.03249 0.12838 0.97023 0.0
C676 C 0.00251 0.16378 0.95872 0.0
C677 C 0.01999 0.20764 0.93206 0.0
C678 C 0.01991 0.19111 0.94389 0.0
C679 C 0.01959 0.14011 0.9743 0.0
C680 C 0.01972 0.15828 0.96468 0.0
H681 H 0.03767 0.2249 0.89238 0.0
H682 H 0.03767 0.19789 0.91218 0.0
H683 H 0.98913 0.18373 0.94374 0.0
H684 H 0.9955 0.11198 0.00514 0.0
H685 H 0.99637 0.14274 0.99082 0.0
C686 C 0.05452 0.78306 0.21432 0.0
C687 C 0.05126 0.78386 0.19449 0.0
C688 C 0.0732 0.78638 0.22371 0.0
C689 C 0.12458 0.80497 0.2173 0.0
H690 H 0.13332 0.77075 0.25618 0.0
C691 C 0.19037 0.77302 0.25588 0.0
C692 C 0.20519 0.78993 0.25822 0.0
C693 C 0.17151 0.77401 0.24991 0.0
C694 C 0.13118 0.78035 0.24526 0.0
H695 H 0.06514 0.78932 0.16906 0.0
H696 H 0.09753 0.79454 0.18524 0.0
H697 H 0.10084 0.76963 0.24199 0.0
H698 H 0.21167 0.82126 0.25663 0.0
H699 H 0.17868 0.82307 0.24674 0.0
H700 H 0.15501 0.81487 0.2198 0.0
C701 C 0.08575 0.79178 0.19371 0.0
C702 C 0.11247 0.77993 0.23732 0.0
C703 C 0.06711 0.78866 0.18437 0.0
C704 C 0.20062 0.80793 0.25487 0.0
C705 C 0.1817 0.80895 0.24907 0.0
C706 C 0.14332 0.80525 0.22512 0.0
C707 C 0.08907 0.7904 0.21346 0.0
C708 C 0.10891 0.79205 0.22303 0.0
C709 C 0.16691 0.79196 0.2463 0.0
C710 C 0.1469 0.79273 0.23902 0.0
H711 H 0.04264 0.77955 0.22257 0.0
H712 H 0.07517 0.78559 0.23898 0.0
H713 H 0.12242 0.81476 0.20658 0.0
H714 H 0.19337 0.75887 0.25818 0.0
H715 H 0.16062 0.76055 0.24761 0.0
C716 C 0.53267 0.86822 0.40396 0.0
C717 C 0.5323 0.85051 0.41204 0.0
C718 C 0.53016 0.8846 0.41492 0.0
C719 C 0.50689 0.89858 0.45486 0.0
H720 H 0.54196 0.94902 0.457 0.0
C721 C 0.49634 0.96572 0.50086 0.0
C722 C 0.5009 0.98389 0.49356 0.0
C723 C 0.50128 0.9494 0.49201 0.0
C724 C 0.53185 0.93513 0.45635 0.0
H725 H 0.52901 0.83608 0.43793 0.0
H726 H 0.52413 0.86464 0.45691 0.0
H727 H 0.54844 0.92072 0.43909 0.0
H728 H 0.5139 0.99936 0.47125 0.0
H729 H 0.52184 0.97088 0.45535 0.0
H730 H 0.48979 0.91291 0.47132 0.0
C731 C 0.52656 0.86582 0.44216 0.0
C732 C 0.53566 0.91892 0.44618 0.0
C733 C 0.52944 0.84954 0.43132 0.0
C734 C 0.51037 0.9855 0.47725 0.0
C735 C 0.51505 0.96917 0.46823 0.0
C736 C 0.50288 0.91484 0.46475 0.0
C737 C 0.52686 0.88347 0.43404 0.0
C738 C 0.52319 0.90052 0.44531 0.0
C739 C 0.51059 0.95087 0.47548 0.0
C740 C 0.51525 0.93338 0.46556 0.0
H741 H 0.53489 0.86943 0.38916 0.0
H742 H 0.53033 0.89803 0.40832 0.0
H743 H 0.49695 0.88456 0.45422 0.0
H744 H 0.48916 0.96418 0.51353 0.0
H745 H 0.49791 0.93568 0.49824 0.0
C746 C 0.43314 0.27193 0.69156 0.0
C747 C 0.44617 0.2621 0.70047 0.0
C748 C 0.41678 0.27402 0.69983 0.0
C749 C 0.38662 0.25428 0.73701 0.0
H750 H 0.36627 0.30048 0.73084 0.0
C751 C 0.32819 0.27505 0.77998 0.0
C752 C 0.31265 0.27963 0.76896 0.0
C753 C 0.34441 0.2726 0.77163 0.0
C754 C 0.37176 0.28746 0.7326 0.0
H755 H 0.45251 0.24719 0.72528 0.0
H756 H 0.42461 0.25154 0.74009 0.0
H757 H 0.39487 0.29719 0.71652 0.0
H758 H 0.30207 0.28598 0.74086 0.0
H759 H 0.33045 0.28193 0.7263 0.0
H760 H 0.36373 0.24497 0.75365 0.0
C761 C 0.4265 0.25705 0.72638 0.0
C762 C 0.38811 0.28548 0.72429 0.0
C763 C 0.44265 0.25467 0.71795 0.0
C764 C 0.31369 0.28202 0.74956 0.0
C765 C 0.33001 0.27993 0.74129 0.0
C766 C 0.37047 0.25645 0.74559 0.0
C767 C 0.41321 0.26663 0.71739 0.0
C768 C 0.39577 0.26882 0.72631 0.0
C769 C 0.34552 0.27516 0.75222 0.0
C770 C 0.36284 0.27301 0.7434 0.0
H771 H 0.43541 0.27771 0.67802 0.0
H772 H 0.40679 0.28118 0.69225 0.0
H773 H 0.39173 0.24103 0.73859 0.0
H774 H 0.32774 0.27324 0.795 0.0
H775 H 0.35623 0.26906 0.7804 0.0
C776 C 0.99337 0.85345 0.5943 0.0
C777 C 0.01146 0.84926 0.59318 0.0
C778 C 0.98966 0.871 0.58854 0.0
C779 C 0.0127 0.92079 0.58106 0.0
H780 H 0.9725 0.91681 0.53893 0.0
C781 C 0.01334 0.98138 0.53172 0.0
C782 C 0.99595 0.98564 0.52464 0.0
C783 C 0.01348 0.96532 0.54206 0.0
C784 C 0.98351 0.91828 0.55096 0.0
H785 H 0.04003 0.86028 0.58593 0.0
H786 H 0.03367 0.89104 0.57629 0.0
H787 H 0.97563 0.88783 0.55485 0.0
H788 H 0.96506 0.97664 0.52242 0.0
H789 H 0.96521 0.94852 0.54077 0.0
H790 H 0.02075 0.95112 0.57723 0.0
C791 C 0.02235 0.88074 0.58146 0.0
C792 C 0.98529 0.90169 0.56003 0.0
C793 C 0.02593 0.8631 0.58683 0.0
C794 C 0.97864 0.97344 0.52766 0.0
C795 C 0.97875 0.95742 0.53817 0.0
C796 C 0.01079 0.93742 0.57219 0.0
C797 C 0.00415 0.88472 0.58204 0.0
C798 C 0.00025 0.90273 0.57475 0.0
C799 C 0.9962 0.95327 0.5456 0.0
C800 C 0.99657 0.93621 0.55661 0.0
H801 H 0.98197 0.84297 0.59914 0.0
H802 H 0.97551 0.87383 0.58907 0.0
H803 H 0.02422 0.92193 0.59255 0.0
H804 H 0.02684 0.99055 0.52933 0.0
H805 H 0.02717 0.96227 0.54714 0.0
C806 C 0.47288 0.76271 0.89399 0.0
C807 C 0.48604 0.78036 0.89295 0.0
C808 C 0.45568 0.75767 0.88159 0.0
C809 C 0.43236 0.76927 0.836 0.0
H810 H 0.38516 0.7553 0.8585 0.0
C811 C 0.36139 0.78408 0.80274 0.0
C812 C 0.34427 0.77073 0.80423 0.0
C813 C 0.37879 0.78136 0.81156 0.0
C814 C 0.39819 0.75879 0.85189 0.0
H815 H 0.49174 0.80634 0.87785 0.0
H816 H 0.46198 0.79762 0.85644 0.0
H817 H 0.41575 0.75719 0.87786 0.0
H818 H 0.33178 0.74371 0.81542 0.0
H819 H 0.36225 0.73891 0.83087 0.0
H820 H 0.41488 0.77151 0.81021 0.0
C821 C 0.46489 0.78757 0.86666 0.0
C822 C 0.41571 0.75987 0.86299 0.0
C823 C 0.48189 0.79265 0.87908 0.0
C824 C 0.34483 0.75428 0.81418 0.0
C825 C 0.36223 0.75157 0.82305 0.0
C826 C 0.41488 0.76819 0.82491 0.0
C827 C 0.45154 0.77011 0.86783 0.0
C828 C 0.43299 0.76572 0.85531 0.0
C829 C 0.37937 0.76523 0.82206 0.0
C830 C 0.39764 0.76352 0.8329 0.0
H831 H 0.47572 0.75294 0.90452 0.0
H832 H 0.44564 0.7441 0.88277 0.0
H833 H 0.44546 0.77347 0.82961 0.0
H834 H 0.36131 0.79688 0.79514 0.0
H835 H 0.39169 0.79229 0.81073 0.0
C836 C 0.5055 0.2387 0.05324 0.0
C837 C 0.49065 0.24179 0.06358 0.0
C838 C 0.50299 0.22188 0.04064 0.0
C839 C 0.47438 0.17162 0.03518 0.0
H840 H 0.50297 0.16612 0.99247 0.0
C841 C 0.47816 0.09595 0.00433 0.0
C842 C 0.49702 0.09367 0.00384 0.0
C843 C 0.47429 0.11455 0.00571 0.0
C844 C 0.49482 0.16747 0.0043 0.0
H845 H 0.46095 0.23082 0.06746 0.0
H846 H 0.45632 0.20186 0.04495 0.0
H847 H 0.50119 0.19871 0.00558 0.0
H848 H 0.52637 0.10904 0.00284 0.0
H849 H 0.51963 0.14151 0.00557 0.0
H850 H 0.46851 0.14057 0.03439 0.0
C851 C 0.47015 0.21199 0.04709 0.0
C852 C 0.49383 0.1861 0.01185 0.0
C853 C 0.47276 0.22862 0.05992 0.0
C854 C 0.51169 0.11029 0.00329 0.0
C855 C 0.50781 0.12892 0.00473 0.0
C856 C 0.47525 0.15308 0.02758 0.0
C857 C 0.48548 0.20797 0.03794 0.0
C858 C 0.48403 0.1884 0.02773 0.0
C859 C 0.48919 0.13125 0.00669 0.0
C860 C 0.48588 0.1508 0.0124 0.0
H861 H 0.51945 0.24862 0.05576 0.0
H862 H 0.51517 0.21924 0.03399 0.0
H863 H 0.46704 0.17274 0.04764 0.0
H864 H 0.46646 0.08344 0.00448 0.0
H865 H 0.45974 0.1159 0.00686 0.0
C866 C 0.0885 0.29144 0.39505 0.0
C867 C 0.07225 0.27688 0.38764 0.0
C868 C 0.10489 0.29428 0.3857 0.0
C869 C 0.12095 0.28541 0.33896 0.0
H870 H 0.17021 0.2869 0.36786 0.0
C871 C 0.19114 0.29692 0.30471 0.0
C872 C 0.20307 0.28416 0.30941 0.0
C873 C 0.17551 0.29765 0.31458 0.0
C874 C 0.15653 0.28649 0.35963 0.0
H875 H 0.06028 0.25412 0.36453 0.0
H876 H 0.08872 0.25915 0.34829 0.0
H877 H 0.14201 0.28575 0.38454 0.0
H878 H 0.20826 0.26224 0.32802 0.0
H879 H 0.18081 0.26344 0.34528 0.0
H880 H 0.13531 0.28569 0.31402 0.0
C881 C 0.08882 0.2684 0.36123 0.0
C882 C 0.14048 0.28605 0.36918 0.0
C883 C 0.07258 0.26545 0.37063 0.0
C884 C 0.1992 0.27216 0.32413 0.0
C885 C 0.18363 0.27297 0.33408 0.0
C886 C 0.13701 0.286 0.32943 0.0
C887 C 0.10515 0.28277 0.36869 0.0
C888 C 0.12249 0.28518 0.35888 0.0
C889 C 0.17163 0.28572 0.32939 0.0
C890 C 0.15489 0.28625 0.33965 0.0
H891 H 0.08863 0.30046 0.40815 0.0
H892 H 0.11731 0.30551 0.39169 0.0
H893 H 0.10726 0.2849 0.3307 0.0
H894 H 0.19393 0.30641 0.29348 0.0
H895 H 0.16658 0.30771 0.31077 0.0
C896 C 0.90692 0.07271 0.17523 0.0
C897 C 0.91498 0.07482 0.19445 0.0
C898 C 0.91856 0.07319 0.16059 0.0
C899 C 0.94684 0.08114 0.13163 0.0
H900 H 0.98725 0.05284 0.13929 0.0
C901 C 0.99408 0.06925 0.07265 0.0
C902 C 0.99691 0.05015 0.06961 0.0
C903 C 0.98638 0.075 0.08889 0.0
C904 C 0.97602 0.06077 0.1369 0.0
H905 H 0.94172 0.08036 0.21338 0.0
H906 H 0.96201 0.08165 0.18792 0.0
H907 H 0.96889 0.05823 0.16525 0.0
H908 H 0.99441 0.02236 0.08166 0.0
H909 H 0.98089 0.0323 0.10971 0.0
H910 H 0.95339 0.08277 0.10292 0.0
C911 C 0.94665 0.07908 0.1841 0.0
C912 C 0.96563 0.0641 0.15188 0.0
C913 C 0.93501 0.07846 0.19872 0.0
C914 C 0.99248 0.0372 0.08351 0.0
C915 C 0.9848 0.04294 0.09971 0.0
C916 C 0.95721 0.07774 0.11659 0.0
C917 C 0.93855 0.07592 0.16485 0.0
C918 C 0.9507 0.07406 0.14937 0.0
C919 C 0.98137 0.06181 0.10247 0.0
C920 C 0.9717 0.0672 0.11895 0.0
H921 H 0.89154 0.06985 0.17144 0.0
H922 H 0.91178 0.07051 0.14595 0.0
H923 H 0.93561 0.08907 0.12925 0.0
H924 H 0.99731 0.07962 0.06224 0.0
H925 H 0.98414 0.08972 0.0907 0.0
C926 C 0.30329 0.70959 0.44742 0.0
C927 C 0.29914 0.71922 0.46402 0.0
C928 C 0.30108 0.71726 0.42979 0.0
C929 C 0.30064 0.7621 0.40736 0.0
H930 H 0.26526 0.73005 0.36633 0.0
C931 C 0.27636 0.79569 0.33978 0.0
C932 C 0.27212 0.78414 0.32222 0.0
C933 C 0.2797 0.78734 0.35679 0.0
C934 C 0.27547 0.73916 0.37743 0.0
H935 H 0.29013 0.74478 0.47531 0.0
H936 H 0.28705 0.75855 0.44468 0.0
H937 H 0.27248 0.71641 0.39627 0.0
H938 H 0.26874 0.75495 0.30858 0.0
H939 H 0.27517 0.74032 0.33805 0.0
H940 H 0.30432 0.78465 0.38862 0.0
C941 C 0.29171 0.74493 0.44526 0.0
C942 C 0.27952 0.7313 0.39463 0.0
C943 C 0.29346 0.73704 0.46277 0.0
C944 C 0.27136 0.76406 0.32195 0.0
C945 C 0.27513 0.75572 0.33894 0.0
C946 C 0.29694 0.76984 0.39005 0.0
C947 C 0.29515 0.73495 0.42854 0.0
C948 C 0.29195 0.74279 0.40984 0.0
C949 C 0.27949 0.76727 0.35667 0.0
C950 C 0.28404 0.75861 0.37488 0.0
H951 H 0.30753 0.69575 0.44792 0.0
H952 H 0.30389 0.70934 0.4171 0.0
H953 H 0.31042 0.77121 0.41881 0.0
H954 H 0.27706 0.81125 0.34037 0.0
H955 H 0.28245 0.79674 0.37004 0.0
C956 C 0.56572 0.99516 0.71602 0.0
C957 C 0.58165 0.98655 0.71842 0.0
C958 C 0.55678 0.99643 0.6977 0.0
C959 C 0.56828 0.99878 0.64849 0.0
H960 H 0.5135 0.99124 0.63451 0.0
C961 C 0.53722 0.00464 0.57138 0.0
C962 C 0.52189 0.01399 0.56865 0.0
C963 C 0.54315 0.99959 0.58943 0.0
C964 C 0.52885 0.99361 0.63822 0.0
H965 H 0.59987 0.97151 0.70334 0.0
H966 H 0.58428 0.97367 0.6716 0.0
H967 H 0.52595 0.98522 0.66651 0.0
H968 H 0.5005 0.02502 0.58278 0.0
H969 H 0.51113 0.01664 0.61436 0.0
H970 H 0.57139 0.00764 0.62058 0.0
C971 C 0.5789 0.97972 0.68385 0.0
C972 C 0.53596 0.9901 0.65657 0.0
C973 C 0.58776 0.97838 0.7021 0.0
C974 C 0.51233 0.01776 0.58435 0.0
C975 C 0.51838 0.01286 0.60247 0.0
C976 C 0.56121 0.00241 0.63027 0.0
C977 C 0.56363 0.9892 0.68139 0.0
C978 C 0.55577 0.99258 0.66188 0.0
C979 C 0.53406 0.00394 0.60532 0.0
C980 C 0.5414 -0.00018 0.62481 0.0
H981 H 0.56061 0.00161 0.72825 0.0
H982 H 0.54508 0.00387 0.6963 0.0
H983 H 0.58364 0.00125 0.65223 0.0
H984 H 0.54478 0.0013 0.55958 0.0
H985 H 0.55497 0.99232 0.59091 0.0
C986 C 0.22354 0.38309 0.97169 0.0
C987 C 0.22632 0.37023 0.98544 0.0
C988 C 0.22181 0.37679 0.95227 0.0
C989 C 0.21173 0.33509 0.91634 0.0
H990 H 0.25698 0.36108 0.89551 0.0
C991 C 0.23865 0.29978 0.85183 0.0
C992 C 0.24921 0.31183 0.84002 0.0
C993 C 0.23284 0.30793 0.86816 0.0
C994 C 0.24395 0.35392 0.90073 0.0
H995 H 0.22791 0.34047 0.98991 0.0
H996 H 0.22424 0.32931 0.95593 0.0
H997 H 0.25002 0.37377 0.92611 0.0
H998 H 0.2612 0.34173 0.83519 0.0
H999 H 0.25023 0.35609 0.86301 0.0
H1000 H 0.20545 0.3153 0.89097 0.0
C1001 C 0.22366 0.34426 0.96016 0.0
C1002 C 0.24004 0.36121 0.91834 0.0
C1003 C 0.22588 0.35066 0.97954 0.0
C1004 C 0.25337 0.33214 0.84435 0.0
C1005 C 0.24713 0.34033 0.86036 0.0
C1006 C 0.21537 0.32803 0.89847 0.0
C1007 C 0.22228 0.35744 0.94643 0.0
C1008 C 0.22419 0.35158 0.92647 0.0
C1009 C 0.23705 0.32835 0.87269 0.0
C1010 C 0.23185 0.33703 0.89066 0.0
H1011 H 0.22391 0.39828 0.97594 0.0
H1012 H 0.22084 0.38717 0.94184 0.0
H1013 H 0.19942 0.32746 0.92245 0.0
H1014 H 0.23525 0.28405 0.84867 0.0
H1015 H 0.22546 0.29815 0.87742 0.0
C1016 C 0.91065 0.07867 0.31426 0.0
C1017 C 0.91987 0.07122 0.29982 0.0
C1018 C 0.91765 0.07869 0.33353 0.0
C1019 C 0.94484 0.05088 0.36302 0.0
H1020 H 0.9483 0.09195 0.40367 0.0
C1021 C 0.98178 0.04655 0.43755 0.0
C1022 C 0.97306 0.05181 0.4533 0.0
C1023 C 0.97536 0.05054 0.4193 0.0
C1024 C 0.9472 0.08028 0.39248 0.0
H1025 H 0.94442 0.05944 0.29416 0.0
H1026 H 0.95666 0.05973 0.32754 0.0
H1027 H 0.93727 0.09683 0.37074 0.0
H1028 H 0.9511 0.06578 0.46254 0.0
H1029 H 0.93953 0.07253 0.4304 0.0
H1030 H 0.95449 0.03421 0.38448 0.0
C1031 C 0.94381 0.06509 0.32408 0.0
C1032 C 0.94093 0.0831 0.37366 0.0
C1033 C 0.93683 0.06502 0.30495 0.0
C1034 C 0.958 0.06152 0.45057 0.0
C1035 C 0.95149 0.06548 0.43222 0.0
C1036 C 0.951 0.04806 0.38172 0.0
C1037 C 0.93395 0.07128 0.33859 0.0
C1038 C 0.93997 0.0685 0.35872 0.0
C1039 C 0.95995 0.05978 0.41635 0.0
C1040 C 0.95253 0.0628 0.39665 0.0
H1041 H 0.89755 0.08355 0.31073 0.0
H1042 H 0.90976 0.08356 0.34442 0.0
H1043 H 0.94376 0.03915 0.3519 0.0
H1044 H 0.99356 0.03924 0.4393 0.0
H1045 H 0.98247 0.04633 0.40747 0.0
C1046 C 0.31098 0.73055 0.57286 0.0
C1047 C 0.31338 0.71124 0.57078 0.0
C1048 C 0.31022 0.73972 0.59094 0.0
C1049 C 0.31871 0.73442 0.64345 0.0
H1050 H 0.28223 0.76742 0.64651 0.0
C1051 C 0.27354 0.7671 0.70256 0.0
C1052 C 0.28747 0.77094 0.71868 0.0
C1053 C 0.27817 0.76157 0.68457 0.0
C1054 C 0.29236 0.7581 0.646 0.0
H1055 H 0.31738 0.68665 0.5863 0.0
H1056 H 0.3155 0.70225 0.61747 0.0
H1057 H 0.28784 0.75431 0.6155 0.0
H1058 H 0.31739 0.77248 0.72835 0.0
H1059 H 0.32566 0.76357 0.69693 0.0
H1060 H 0.32238 0.73724 0.67396 0.0
C1061 C 0.31465 0.71063 0.60531 0.0
C1062 C 0.29585 0.75082 0.62809 0.0
C1063 C 0.31565 0.70158 0.5873 0.0
C1064 C 0.30626 0.76952 0.71627 0.0
C1065 C 0.31097 0.76424 0.69821 0.0
C1066 C 0.31503 0.7415 0.66136 0.0
C1067 C 0.31161 0.72973 0.60741 0.0
C1068 C 0.30894 0.73868 0.62652 0.0
C1069 C 0.29694 0.75996 0.68209 0.0
C1070 C 0.30165 0.75329 0.66294 0.0
H1071 H 0.30927 0.73848 0.56047 0.0
H1072 H 0.30829 0.75457 0.59194 0.0
H1073 H 0.32914 0.72544 0.64294 0.0
H1074 H 0.25887 0.76784 0.70389 0.0
H1075 H 0.26682 0.75804 0.6727 0.0
C1076 C 0.57462 0.98666 0.83496 0.0
C1077 C 0.57789 0.00272 0.82413 0.0
C1078 C 0.56663 0.98798 0.85212 0.0
C1079 C 0.54103 0.01957 0.87998 0.0
H1080 H 0.55616 0.99154 0.92205 0.0
C1081 C 0.5254 0.03631 0.95716 0.0
C1082 C 0.51554 0.02016 0.96533 0.0
C1083 C 0.53331 0.03365 0.9402 0.0
C1084 C 0.55179 0.99939 0.91037 0.0
H1085 H 0.57575 0.03288 0.82303 0.0
H1086 H 0.56278 0.03549 0.85303 0.0
H1087 H 0.56913 0.98782 0.89182 0.0
H1088 H 0.5068 0.98858 0.96268 0.0
H1089 H 0.52114 0.98391 0.93326 0.0
H1090 H 0.52428 0.03167 0.89891 0.0
C1091 C 0.56555 0.02156 0.84812 0.0
C1092 C 0.55909 0.99717 0.89296 0.0
C1093 C 0.57316 0.02012 0.83087 0.0
C1094 C 0.51427 0.00128 0.9566 0.0
C1095 C 0.52253 0.9986 0.93986 0.0
C1096 C 0.53408 0.02207 0.89747 0.0
C1097 C 0.56205 0.00551 0.85901 0.0
C1098 C 0.55387 0.00729 0.87749 0.0
C1099 C 0.53185 0.01478 0.93133 0.0
C1100 C 0.5394 0.01205 0.91285 0.0
H1101 H 0.57809 0.97304 0.83012 0.0
H1102 H 0.56392 0.97518 0.85987 0.0
H1103 H 0.53618 0.02722 0.86838 0.0
H1104 H 0.52656 0.05102 0.96359 0.0
H1105 H 0.54054 0.04636 0.93397 0.0
C1106 C 0.21615 0.36918 0.10503 0.0
C1107 C 0.22224 0.36409 0.08752 0.0
C1108 C 0.21447 0.35606 0.119 0.0
C1109 C 0.23841 0.3201 0.1362 0.0
H1110 H 0.19776 0.30764 0.168 0.0
C1111 C 0.25143 0.28321 0.20414 0.0
C1112 C 0.24455 0.29071 0.22021 0.0
C1113 C 0.24482 0.28719 0.18589 0.0
C1114 C 0.20931 0.31108 0.15935 0.0
H1115 H 0.23008 0.34077 0.07047 0.0
H1116 H 0.22753 0.3182 0.09502 0.0
H1117 H 0.19276 0.32479 0.13973 0.0
H1118 H 0.22496 0.30772 0.22989 0.0
H1119 H 0.2142 0.3155 0.19841 0.0
H1120 H 0.25558 0.30795 0.15624 0.0
C1121 C 0.22405 0.33228 0.09787 0.0
C1122 C 0.20636 0.32078 0.14312 0.0
C1123 C 0.22549 0.34524 0.08385 0.0
C1124 C 0.23039 0.30157 0.21771 0.0
C1125 C 0.22411 0.30593 0.19956 0.0
C1126 C 0.24152 0.3108 0.15258 0.0
C1127 C 0.21905 0.33778 0.11572 0.0
C1128 C 0.22101 0.32561 0.13161 0.0
C1129 C 0.23159 0.29922 0.18343 0.0
C1130 C 0.22716 0.30651 0.16461 0.0
H1131 H 0.21343 0.38353 0.10824 0.0
H1132 H 0.2107 0.36065 0.13275 0.0
H1133 H 0.25002 0.32391 0.12764 0.0
H1134 H 0.26222 0.27462 0.20571 0.0
H1135 H 0.25054 0.28133 0.17378 0.0
C1136 C 0.16046 0.92808 0.0303 0.0
C1137 C 0.17818 0.93703 0.04092 0.0
C1138 C 0.14536 0.93784 0.02887 0.0
C1139 C 0.12996 0.98127 0.0511 0.0
H1140 H 0.09339 0.97208 0.00526 0.0
C1141 C 0.07775 0.03143 0.03149 0.0
C1142 C 0.05843 0.02201 0.02636 0.0
C1143 C 0.09185 0.02056 0.03408 0.0
C1144 C 0.10344 0.97468 0.0182 0.0
H1145 H 0.19411 0.96346 0.05791 0.0
H1146 H 0.16838 0.98077 0.05469 0.0
H1147 H 0.11906 0.95438 0.00772 0.0
H1148 H 0.03891 0.99387 0.01891 0.0
H1149 H 0.06349 0.97486 0.02322 0.0
H1150 H 0.11467 0.00225 0.0611 0.0
C1151 C 0.16566 0.96594 0.04806 0.0
C1152 C 0.11814 0.96445 0.01971 0.0
C1153 C 0.18056 0.95604 0.0498 0.0
C1154 C 0.05352 0.00152 0.02355 0.0
C1155 C 0.06765 0.99064 0.02573 0.0
C1156 C 0.1155 0.99177 0.04941 0.0
C1157 C 0.14772 0.95697 0.03772 0.0
C1158 C 0.1317 0.9676 0.03618 0.0
C1159 C 0.08698 5e-05 0.03103 0.0
C1160 C 0.10209 0.9886 0.03295 0.0
H1161 H 0.15813 0.91339 0.02338 0.0
H1162 H 0.13177 0.93021 0.02103 0.0
H1163 H 0.13969 0.98385 0.06424 0.0
H1164 H 0.08195 0.04723 0.03349 0.0
H1165 H 0.10665 0.02821 0.03799 0.0
C1166 C 0.70444 0.60681 0.98525 0.0
C1167 C 0.70979 0.62656 0.98188 0.0
C1168 C 0.68511 0.59768 0.98466 0.0
C1169 C 0.64144 0.60973 0.99601 0.0
H1170 H 0.61574 0.5584 0.97141 0.0
C1171 C 0.57378 0.56296 0.0198 0.0
C1172 C 0.55806 0.55685 0.00551 0.0
C1173 C 0.59183 0.57135 0.01506 0.0
C1174 C 0.62277 0.57278 0.97825 0.0
H1175 H 0.69903 0.65188 0.97423 0.0
H1176 H 0.66534 0.63598 0.9736 0.0
H1177 H 0.64833 0.57315 0.96506 0.0
H1178 H 0.54897 0.55433 0.97504 0.0
H1179 H 0.58083 0.56857 0.96673 0.0
H1180 H 0.61626 0.60909 0.00977 0.0
C1181 C 0.67612 0.62762 0.97662 0.0
C1182 C 0.64134 0.58115 0.97468 0.0
C1183 C 0.6954 0.63666 0.9769 0.0
C1184 C 0.56082 0.55898 0.98635 0.0
C1185 C 0.579 0.56702 0.98157 0.0
C1186 C 0.62308 0.60121 0.99986 0.0
C1187 C 0.67086 0.60822 0.98096 0.0
C1188 C 0.65082 0.59968 0.98357 0.0
C1189 C 0.59458 0.57344 0.99592 0.0
C1190 C 0.61365 0.58265 0.99111 0.0
H1191 H 0.71519 0.59862 0.98905 0.0
H1192 H 0.68138 0.58272 0.98813 0.0
H1193 H 0.64854 0.62394 0.0032 0.0
H1194 H 0.57206 0.56158 0.03469 0.0
H1195 H 0.6037 0.57615 0.02634 0.0
C1196 C 0.70813 0.46613 0.27806 0.0
C1197 C 0.68973 0.4649 0.28347 0.0
C1198 C 0.71643 0.44991 0.27803 0.0
C1199 C 0.70448 0.39717 0.27113 0.0
H1200 H 0.75595 0.40044 0.2957 0.0
C1201 C 0.73829 0.32959 0.2718 0.0
C1202 C 0.75812 0.33249 0.2716 0.0
C1203 C 0.72967 0.34555 0.27359 0.0
C1204 C 0.7417 0.3993 0.28843 0.0
H1205 H 0.66564 0.44578 0.29324 0.0
H1206 H 0.68003 0.41716 0.29269 0.0
H1207 H 0.74159 0.42868 0.29873 0.0
H1208 H 0.78459 0.3542 0.27305 0.0
H1209 H 0.76961 0.3821 0.2751 0.0
H1210 H 0.70472 0.36818 0.26008 0.0
C1211 C 0.68804 0.4308 0.28868 0.0
C1212 C 0.73343 0.41547 0.29036 0.0
C1213 C 0.67989 0.44717 0.28911 0.0
C1214 C 0.76921 0.35161 0.27304 0.0
C1215 C 0.7606 0.36758 0.27445 0.0
C1216 C 0.71287 0.38109 0.26889 0.0
C1217 C 0.70635 0.43201 0.28304 0.0
C1218 C 0.71476 0.41457 0.28172 0.0
C1219 C 0.74071 0.36482 0.27502 0.0
C1220 C 0.73164 0.38192 0.27747 0.0
H1221 H 0.71607 0.4796 0.27366 0.0
H1222 H 0.73052 0.4512 0.27353 0.0
H1223 H 0.69013 0.3962 0.26413 0.0
H1224 H 0.72953 0.31508 0.27156 0.0
H1225 H 0.71443 0.34271 0.27444 0.0
C1226 C 0.7857 0.45737 0.5407 0.0
C1227 C 0.78013 0.43839 0.53123 0.0
C1228 C 0.80391 0.46898 0.53961 0.0
C1229 C 0.84752 0.48452 0.54434 0.0
H1230 H 0.86924 0.48191 0.49667 0.0
C1231 C 0.92879 0.50826 0.53972 0.0
C1232 C 0.93464 0.51651 0.52328 0.0
C1233 C 0.90933 0.50121 0.54101 0.0
C1234 C 0.86337 0.48308 0.51005 0.0
H1235 H 0.78935 0.41685 0.51309 0.0
H1236 H 0.82084 0.43685 0.51141 0.0
H1237 H 0.83616 0.46554 0.4978 0.0
H1238 H 0.92487 0.52466 0.49565 0.0
H1239 H 0.89091 0.51276 0.49801 0.0
H1240 H 0.87478 0.50223 0.55654 0.0
C1241 C 0.81115 0.44295 0.51944 0.0
C1242 C 0.84443 0.47346 0.51075 0.0
C1243 C 0.79307 0.4314 0.52054 0.0
C1244 C 0.92073 0.51818 0.50842 0.0
C1245 C 0.90128 0.51127 0.50975 0.0
C1246 C 0.86651 0.49422 0.54364 0.0
C1247 C 0.81683 0.46186 0.52897 0.0
C1248 C 0.83637 0.47375 0.52797 0.0
C1249 C 0.89533 0.50238 0.52592 0.0
C1250 C 0.87475 0.49337 0.52653 0.0
H1251 H 0.77609 0.46321 0.54906 0.0
H1252 H 0.80781 0.48355 0.547 0.0
H1253 H 0.84178 0.48495 0.55786 0.0
H1254 H 0.93927 0.50682 0.55139 0.0
H1255 H 0.90531 0.49426 0.55358 0.0
C1256 C 0.34392 0.12202 0.22946 0.0
C1257 C 0.36143 0.12303 0.24078 0.0
C1258 C 0.33355 0.13647 0.23208 0.0
C1259 C 0.32923 0.17684 0.26728 0.0
H1260 H 0.2998 0.19192 0.22399 0.0
C1261 C 0.297 0.24482 0.27218 0.0
C1262 C 0.27767 0.24243 0.26472 0.0
C1263 C 0.3068 0.23009 0.26873 0.0
C1264 C 0.30782 0.18772 0.23622 0.0
H1265 H 0.38198 0.14023 0.26353 0.0
H1266 H 0.36428 0.16584 0.26772 0.0
H1267 H 0.3183 0.16711 0.21897 0.0
H1268 H 0.25351 0.2229 0.24752 0.0
H1269 H 0.27084 0.19702 0.24118 0.0
H1270 H 0.31911 0.19791 0.28439 0.0
C1271 C 0.35821 0.15359 0.25713 0.0
C1272 C 0.31841 0.17345 0.23339 0.0
C1273 C 0.36848 0.13897 0.25465 0.0
C1274 C 0.2684 0.22509 0.25343 0.0
C1275 C 0.27832 0.21036 0.24977 0.0
C1276 C 0.31885 0.19126 0.27005 0.0
C1277 C 0.34052 0.15249 0.24596 0.0
C1278 C 0.32929 0.1678 0.24889 0.0
C1279 C 0.29757 0.21265 0.2576 0.0
C1280 C 0.30807 0.19688 0.25456 0.0
H1281 H 0.338 0.10984 0.21873 0.0
H1282 H 0.31987 0.13484 0.22343 0.0
H1283 H 0.33701 0.17264 0.27964 0.0
H1284 H 0.30454 0.258 0.28101 0.0
H1285 H 0.32167 0.23238 0.27477 0.0
C1286 C 0.32286 0.12263 0.49044 0.0
C1287 C 0.30492 0.11248 0.49437 0.0
C1288 C 0.33885 0.11443 0.49329 0.0
C1289 C 0.35488 0.06904 0.49745 0.0
H1290 H 0.39757 0.1008 0.5318 0.0
C1291 C 0.42081 0.03893 0.52293 0.0
C1292 C 0.43867 0.05189 0.52381 0.0
C1293 C 0.40395 0.04583 0.52049 0.0
C1294 C 0.38592 0.0918 0.52198 0.0
H1295 H 0.28933 0.08539 0.50326 0.0
H1296 H 0.31722 0.07087 0.50773 0.0
H1297 H 0.36941 0.11371 0.52298 0.0
H1298 H 0.45312 0.08217 0.52335 0.0
H1299 H 0.42396 0.09408 0.5185 0.0
H1300 H 0.37153 0.04734 0.49587 0.0
C1301 C 0.31893 0.08523 0.50269 0.0
C1302 C 0.3698 0.09922 0.51697 0.0
C1303 C 0.30302 0.09356 0.50018 0.0
C1304 C 0.4395 0.07186 0.5228 0.0
C1305 C 0.42273 0.07871 0.52013 0.0
C1306 C 0.37116 0.06171 0.5022 0.0
C1307 C 0.33705 0.09581 0.49976 0.0
C1308 C 0.35419 0.08794 0.50462 0.0
C1309 C 0.40471 0.06576 0.51868 0.0
C1310 C 0.38693 0.07304 0.51447 0.0
H1311 H 0.32473 0.13726 0.48602 0.0
H1312 H 0.3527 0.12278 0.49081 0.0
H1313 H 0.34298 0.06009 0.48788 0.0
H1314 H 0.41984 0.02345 0.52371 0.0
H1315 H 0.39035 0.0355 0.5198 0.0
C1316 C 0.6712 0.58414 0.30095 0.0
C1317 C 0.68099 0.56917 0.29776 0.0
C1318 C 0.68058 0.60375 0.30137 0.0
C1319 C 0.70479 0.64507 0.30838 0.0
H1320 H 0.7406 0.65699 0.27148 0.0
C1321 C 0.7436 0.72459 0.30027 0.0
C1322 C 0.74589 0.72944 0.2816 0.0
C1323 C 0.73717 0.70511 0.30383 0.0
C1324 C 0.73053 0.65397 0.28178 0.0
H1325 H 0.70865 0.56317 0.29358 0.0
H1326 H 0.72515 0.59736 0.2949 0.0
H1327 H 0.72652 0.62316 0.27524 0.0
H1328 H 0.74302 0.71751 0.25202 0.0
H1329 H 0.73141 0.68384 0.25811 0.0
H1330 H 0.70807 0.67594 0.31418 0.0
C1331 C 0.71006 0.59396 0.29651 0.0
C1332 C 0.72266 0.63449 0.28417 0.0
C1333 C 0.70062 0.57432 0.29591 0.0
C1334 C 0.74161 0.71435 0.26661 0.0
C1335 C 0.73504 0.69494 0.27013 0.0
C1336 C 0.71255 0.66458 0.30587 0.0
C1337 C 0.70005 0.60894 0.29879 0.0
C1338 C 0.70951 0.62974 0.29735 0.0
C1339 C 0.73273 0.69003 0.28879 0.0
C1340 C 0.72534 0.66929 0.29235 0.0
H1341 H 0.65605 0.58073 0.30236 0.0
H1342 H 0.67229 0.61479 0.30292 0.0
H1343 H 0.69493 0.64203 0.31887 0.0
H1344 H 0.74685 0.73581 0.31219 0.0
H1345 H 0.73582 0.70189 0.31841 0.0
C1346 C 0.87801 0.50657 0.76104 0.0
C1347 C 0.87013 0.52072 0.75204 0.0
C1348 C 0.86664 0.48826 0.76287 0.0
C1349 C 0.83752 0.45516 0.77478 0.0
H1350 H 0.80158 0.42707 0.73205 0.0
C1351 C 0.78911 0.37989 0.781 0.0
C1352 C 0.78772 0.36563 0.76569 0.0
C1353 C 0.79734 0.39946 0.77933 0.0
C1354 C 0.81159 0.43472 0.7441 0.0
H1355 H 0.84403 0.52662 0.73785 0.0
H1356 H 0.8241 0.49455 0.74115 0.0
H1357 H 0.81981 0.46 0.72919 0.0
H1358 H 0.79338 0.36056 0.73652 0.0
H1359 H 0.80799 0.39468 0.73365 0.0
H1360 H 0.82984 0.42973 0.78949 0.0
C1361 C 0.83916 0.49766 0.74666 0.0
C1362 C 0.82188 0.45366 0.74253 0.0
C1363 C 0.85056 0.51606 0.74484 0.0
C1364 C 0.79429 0.3713 0.74854 0.0
C1365 C 0.80253 0.39086 0.74687 0.0
C1366 C 0.82725 0.43626 0.77636 0.0
C1367 C 0.84708 0.48359 0.75576 0.0
C1368 C 0.83516 0.46399 0.75777 0.0
C1369 C 0.80435 0.40515 0.76232 0.0
C1370 C 0.81432 0.42572 0.76097 0.0
H1371 H 0.89303 0.50959 0.7667 0.0
H1372 H 0.87328 0.47765 0.76966 0.0
H1373 H 0.84745 0.46282 0.78689 0.0
H1374 H 0.78406 0.37589 0.79435 0.0
H1375 H 0.79827 0.41014 0.79141 0.0
C1376 C 0.98467 0.82848 0.12173 0.0
C1377 C 0.99628 0.81549 0.11726 0.0
C1378 C 0.98388 0.84432 0.11102 0.0
C1379 C 0.01277 0.87554 0.08041 0.0
H1380 H 0.96636 0.89376 0.06718 0.0
C1381 C 0.01439 0.95169 0.0557 0.0
C1382 C 0.00075 0.95349 0.04063 0.0
C1383 C 0.01318 0.93407 0.06382 0.0
C1384 C 0.9794 0.88872 0.07062 0.0
H1385 H 0.01549 0.80849 0.09755 0.0
H1386 H 0.01395 0.83585 0.07888 0.0
H1387 H 0.96482 0.86406 0.08348 0.0
H1388 H 0.97522 0.93833 0.02206 0.0
H1389 H 0.97308 0.90728 0.03628 0.0
H1390 H 0.02737 0.90006 0.06758 0.0
C1391 C 0.00575 0.83407 0.09085 0.0
C1392 C 0.97855 0.87185 0.08013 0.0
C1393 C 0.00656 0.81832 0.10152 0.0
C1394 C 0.98593 0.93727 0.03366 0.0
C1395 C 0.98465 0.91959 0.04188 0.0
C1396 C 0.01363 0.89238 0.071 0.0
C1397 C 0.99469 0.84747 0.09565 0.0
C1398 C 0.99526 0.86511 0.08519 0.0
C1399 C 0.99826 0.91783 0.05708 0.0
C1400 C 0.997 0.89927 0.06612 0.0
H1401 H 0.97657 0.82668 0.13377 0.0
H1402 H 0.97532 0.85446 0.11516 0.0
H1403 H 0.02595 0.8709 0.08428 0.0
H1404 H 0.02594 0.96399 0.06138 0.0
H1405 H 0.02375 0.93329 0.07566 0.0
C1406 C 0.95722 0.29525 0.84602 0.0
C1407 C 0.97098 0.28626 0.83875 0.0
C1408 C 0.94034 0.29577 0.83463 0.0
C1409 C 0.9101 0.3038 0.80551 0.0
H1410 H 0.88169 0.25656 0.77499 0.0
C1411 C 0.83463 0.30012 0.7676 0.0
C1412 C 0.82087 0.28322 0.76971 0.0
C1413 C 0.85418 0.30073 0.77191 0.0
C1414 C 0.88944 0.26988 0.78344 0.0
H1415 H 0.97778 0.27092 0.81362 0.0
H1416 H 0.94816 0.27193 0.7936 0.0
H1417 H 0.91369 0.25763 0.79099 0.0
H1418 H 0.81693 0.25337 0.77712 0.0
H1419 H 0.85082 0.25458 0.78502 0.0
H1420 H 0.88559 0.31573 0.79895 0.0
C1421 C 0.95048 0.27844 0.80823 0.0
C1422 C 0.90789 0.27057 0.79243 0.0
C1423 C 0.96748 0.27794 0.81967 0.0
C1424 C 0.82712 0.26664 0.77532 0.0
C1425 C 0.84663 0.2673 0.77975 0.0
C1426 C 0.89168 0.3031 0.79661 0.0
C1427 C 0.9367 0.28735 0.81562 0.0
C1428 C 0.91823 0.28737 0.80399 0.0
C1429 C 0.86041 0.2845 0.77855 0.0
C1430 C 0.88091 0.28598 0.78582 0.0
H1431 H 0.95935 0.30178 0.86064 0.0
H1432 H 0.92991 0.30241 0.84093 0.0
H1433 H 0.9178 0.31711 0.81403 0.0
H1434 H 0.83033 0.31309 0.76311 0.0
H1435 H 0.86439 0.3141 0.77044 0.0
C1436 C 0.50054 0.21778 0.61062 0.0
C1437 C 0.49294 0.21585 0.62805 0.0
C1438 C 0.50161 0.20133 0.59891 0.0
C1439 C 0.5032 0.14953 0.6012 0.0
H1440 H 0.49732 0.14821 0.54597 0.0
C1441 C 0.50641 0.08136 0.55267 0.0
C1442 C 0.51753 0.08436 0.53757 0.0
C1443 C 0.50218 0.09714 0.56309 0.0
C1444 C 0.49914 0.14845 0.56138 0.0
H1445 H 0.47973 0.19499 0.64643 0.0
H1446 H 0.48123 0.16618 0.62576 0.0
H1447 H 0.49093 0.17582 0.56513 0.0
H1448 H 0.53288 0.10613 0.52141 0.0
H1449 H 0.5255 0.13394 0.53973 0.0
H1450 H 0.51136 0.12215 0.59743 0.0
C1451 C 0.48676 0.1805 0.62136 0.0
C1452 C 0.49548 0.16426 0.57238 0.0
C1453 C 0.48576 0.19701 0.63316 0.0
C1454 C 0.52427 0.10346 0.53299 0.0
C1455 C 0.51994 0.11931 0.54338 0.0
C1456 C 0.50673 0.13369 0.59021 0.0
C1457 C 0.495 0.18247 0.60425 0.0
C1458 C 0.49762 0.16508 0.59244 0.0
C1459 C 0.50896 0.1163 0.55864 0.0
C1460 C 0.50487 0.13304 0.5702 0.0
H1461 H 0.50623 0.23206 0.6062 0.0
H1462 H 0.50827 0.20346 0.58599 0.0
H1463 H 0.50536 0.14982 0.6166 0.0
H1464 H 0.50106 0.06678 0.55657 0.0
H1465 H 0.49351 0.09433 0.57461 0.0
C1466 C 0.58099 0.79228 0.33104 0.0
C1467 C 0.58335 0.79821 0.35071 0.0
C1468 C 0.59685 0.79078 0.32171 0.0
C1469 C 0.64732 0.8103 0.32218 0.0
H1470 H 0.64929 0.76058 0.29607 0.0
C1471 C 0.71503 0.79947 0.28986 0.0
C1472 C 0.7128 0.78638 0.27345 0.0
C1473 C 0.69938 0.80079 0.29956 0.0
C1474 C 0.6489 0.7747 0.30294 0.0
H1475 H 0.60415 0.80759 0.37594 0.0
H1476 H 0.63195 0.80559 0.35939 0.0
H1477 H 0.62148 0.76349 0.31192 0.0
H1478 H 0.69239 0.76493 0.2538 0.0
H1479 H 0.66484 0.76798 0.26993 0.0
H1480 H 0.67419 0.82191 0.31264 0.0
C1481 C 0.61779 0.80184 0.35135 0.0
C1482 C 0.63299 0.77627 0.31215 0.0
C1483 C 0.6019 0.80291 0.36079 0.0
C1484 C 0.69454 0.775 0.26658 0.0
C1485 C 0.67877 0.77663 0.27599 0.0
C1486 C 0.66305 0.80888 0.31262 0.0
C1487 C 0.61536 0.79562 0.33178 0.0
C1488 C 0.63212 0.79405 0.3219 0.0
C1489 C 0.68096 0.78944 0.29273 0.0
C1490 C 0.66413 0.79102 0.3029 0.0
H1491 H 0.56686 0.7885 0.32293 0.0
H1492 H 0.59468 0.78601 0.30658 0.0
H1493 H 0.64685 0.82422 0.32951 0.0
H1494 H 0.72889 0.80874 0.2952 0.0
H1495 H 0.70184 0.81062 0.31251 0.0
C1496 C 0.02032 0.23041 0.47754 0.0
C1497 C 0.02017 0.22843 0.45763 0.0
C1498 C 0.02064 0.2144 0.48799 0.0
C1499 C 0.03036 0.16461 0.48403 0.0
H1500 H 1.00002 0.15696 0.5261 0.0
C1501 C 0.00549 0.09065 0.51246 0.0
C1502 C 0.0114 0.08979 0.53179 0.0
C1503 C 0.0075 0.10856 0.50489 0.0
C1504 C 0.00869 0.15911 0.5145 0.0
H1505 H 0.01988 0.20814 0.43299 0.0
H1506 H 0.01965 0.18008 0.45103 0.0
H1507 H 0.00179 0.18655 0.50967 0.0
H1508 H 0.02389 0.10681 0.55861 0.0
H1509 H 0.02685 0.13853 0.54541 0.0
H1510 H 0.03636 0.13663 0.48832 0.0
C1511 C 0.0202 0.19409 0.45873 0.0
C1512 C 0.0098 0.17602 0.50514 0.0
C1513 C 0.02019 0.21014 0.44835 0.0
C1514 C 0.01911 0.10718 0.54363 0.0
C1515 C 0.02078 0.12522 0.53615 0.0
C1516 C 0.02896 0.1476 0.49316 0.0
C1517 C 0.02053 0.19603 0.47869 0.0
C1518 C 0.02042 0.17882 0.4896 0.0
C1519 C 0.01523 0.12593 0.51666 0.0
C1520 C 0.01793 0.14464 0.50827 0.0
H1521 H 0.02045 0.2444 0.48508 0.0
H1522 H 0.02116 0.21648 0.50336 0.0
H1523 H 0.03908 0.16651 0.47247 0.0
H1524 H 0.00016 0.0775 0.50302 0.0
H1525 H 0.00318 0.10884 0.48979 0.0
C1526 C 0.54323 0.26877 0.16644 0.0
C1527 C 0.54564 0.2827 0.15312 0.0
C1528 C 0.55798 0.26875 0.18096 0.0
C1529 C 0.59689 0.26446 0.19985 0.0
H1530 H 0.62862 0.31317 0.22499 0.0
C1531 C 0.67969 0.29539 0.23188 0.0
C1532 C 0.683 0.28065 0.24321 0.0
C1533 C 0.66105 0.29615 0.22493 0.0
C1534 C 0.61986 0.29945 0.21812 0.0
H1535 H 0.56526 0.30774 0.14482 0.0
H1536 H 0.59092 0.30758 0.16998 0.0
H1537 H 0.59886 0.31342 0.20508 0.0
H1538 H 0.66966 0.25555 0.25681 0.0
H1539 H 0.63687 0.2568 0.24451 0.0
H1540 H 0.61826 0.25058 0.21226 0.0
C1541 C 0.57759 0.29681 0.16935 0.0
C1542 C 0.60285 0.2996 0.20675 0.0
C1543 C 0.56294 0.29677 0.15481 0.0
C1544 C 0.6674 0.267 0.24799 0.0
C1545 C 0.6487 0.26769 0.24094 0.0
C1546 C 0.61392 0.26432 0.21123 0.0
C1547 C 0.57532 0.28275 0.1825 0.0
C1548 C 0.59154 0.28219 0.197 0.0
C1549 C 0.64537 0.28215 0.22915 0.0
C1550 C 0.62587 0.2819 0.21996 0.0
H1551 H 0.53003 0.25778 0.16555 0.0
H1552 H 0.55585 0.25779 0.19096 0.0
H1553 H 0.58851 0.25084 0.19241 0.0
H1554 H 0.69151 0.30612 0.22806 0.0
H1555 H 0.65897 0.30729 0.21565 0.0
C1556 C 0.55813 0.85054 0.98665 0.0
C1557 C 0.54213 0.83626 0.97825 0.0
C1558 C 0.55567 0.86732 0.99699 0.0
C1559 C 0.51837 0.89589 1.0 0.0
H1560 H 0.55592 0.92841 0.03907 0.0
C1561 C 0.50714 0.96917 0.02927 0.0
C1562 C 0.52191 0.98481 0.0262 0.0
C1563 C 0.51007 0.95021 0.02871 0.0
C1564 C 0.54529 0.91936 0.02826 0.0
H1565 H 0.51123 0.82715 0.97537 0.0
H1566 H 0.50688 0.85567 0.99441 0.0
H1567 H 0.55966 0.89568 0.02846 0.0
H1568 H 0.55185 0.99306 0.02184 0.0
H1569 H 0.55689 0.9598 0.02083 0.0
H1570 H 0.50405 0.91947 0.99973 0.0
C1571 C 0.5213 0.85463 0.99227 0.0
C1572 C 0.54746 0.9007 0.02208 0.0
C1573 C 0.52375 0.8382 0.98149 0.0
C1574 C 0.54012 0.98131 0.0241 0.0
C1575 C 0.54307 0.9623 0.02365 0.0
C1576 C 0.51605 0.91428 0.00638 0.0
C1577 C 0.53715 0.86983 0.99945 0.0
C1578 C 0.53415 0.88884 0.00764 0.0
C1579 C 0.52785 0.94654 0.0252 0.0
C1580 C 0.5296 0.9263 0.02034 0.0
H1581 H 0.57245 0.84927 0.98427 0.0
H1582 H 0.56821 0.87873 0.00215 0.0
H1583 H 0.5081 0.88757 0.98848 0.0
H1584 H 0.493 0.97135 0.03118 0.0
H1585 H 0.49817 0.93828 0.03013 0.0
C1586 C 0.95387 0.80473 0.65812 0.0
C1587 C 0.9599 0.78704 0.65663 0.0
C1588 C 0.93901 0.80668 0.6688 0.0
C1589 C 0.91235 0.78355 0.70635 0.0
H1590 H 0.87395 0.81116 0.68791 0.0
C1591 C 0.83832 0.77406 0.73252 0.0
C1592 C 0.83189 0.79113 0.73685 0.0
C1593 C 0.85509 0.77502 0.72408 0.0
C1594 C 0.88472 0.80361 0.69332 0.0
H1595 H 0.95483 0.75739 0.66468 0.0
H1596 H 0.92866 0.76057 0.6827 0.0
H1597 H 0.90098 0.81011 0.67011 0.0
H1598 H 0.83779 0.82253 0.73601 0.0
H1599 H 0.86706 0.82416 0.72091 0.0
H1600 H 0.89564 0.77648 0.72917 0.0
C1601 C 0.93571 0.77316 0.67619 0.0
C1602 C 0.90022 0.80304 0.68318 0.0
C1603 C 0.95062 0.77128 0.66571 0.0
C1604 C 0.84252 0.80918 0.7328 0.0
C1605 C 0.85916 0.81011 0.72411 0.0
C1606 C 0.89676 0.78394 0.71634 0.0
C1607 C 0.92984 0.79092 0.67803 0.0
C1608 C 0.91407 0.79276 0.68944 0.0
C1609 C 0.86553 0.79302 0.71963 0.0
C1610 C 0.8827 0.79377 0.70979 0.0
H1611 H 0.96083 0.81715 0.65132 0.0
H1612 H 0.93494 0.82061 0.67007 0.0
H1613 H 0.92301 0.7759 0.71183 0.0
H1614 H 0.83032 0.75997 0.73552 0.0
H1615 H 0.85963 0.76162 0.7206 0.0
C1616 C 0.09495 0.01587 0.8388 0.0
C1617 C 0.10846 0.00432 0.83697 0.0
C1618 C 0.08338 0.01383 0.85345 0.0
C1619 C 0.08057 0.9965 0.90117 0.0
H1620 H 0.02815 0.00237 0.89162 0.0
C1621 C 0.0317 0.99421 0.96109 0.0
C1622 C 0.02224 0.00971 0.96233 0.0
C1623 C 0.04051 0.99049 0.94495 0.0
C1624 C 0.04277 0.00074 0.89453 0.0
H1625 H 0.12031 0.98142 0.84909 0.0
H1626 H 0.09991 0.97772 0.87474 0.0
H1627 H 0.04705 0.00141 0.86513 0.0
H1628 H 0.01395 0.03291 0.9472 0.0
H1629 H 0.02918 0.02635 0.91909 0.0
H1630 H 0.07633 0.99612 0.93064 0.0
C1631 C 0.09844 0.98851 0.86487 0.0
C1632 C 0.05363 0.00023 0.87935 0.0
C1633 C 0.11007 0.99057 0.85014 0.0
C1634 C 0.02108 0.02085 0.94673 0.0
C1635 C 0.02976 0.01703 0.93055 0.0
C1636 C 0.06967 0.99693 0.91635 0.0
C1637 C 0.08493 0.00013 0.86668 0.0
C1638 C 0.07281 0.99855 0.88253 0.0
C1639 C 0.03992 0.00208 0.92964 0.0
C1640 C 0.05077 0.99947 0.91325 0.0
H1641 H 0.09335 0.02667 0.82897 0.0
H1642 H 0.07344 0.0233 0.8546 0.0
H1643 H 0.09534 0.99538 0.90418 0.0
H1644 H 0.03295 0.9854 0.97288 0.0
H1645 H 0.04807 0.97874 0.94459 0.0
C1646 C 0.73209 0.34806 0.57859 0.0
C1647 C 0.72619 0.36587 0.57996 0.0
C1648 C 0.73474 0.33817 0.59477 0.0
C1649 C 0.72326 0.3347 0.64449 0.0
H1650 H 0.76897 0.31393 0.65145 0.0
C1651 C 0.74858 0.30878 0.71634 0.0
C1652 C 0.7557 0.29169 0.71582 0.0
C1653 C 0.74498 0.31752 0.69962 0.0
C1654 C 0.75602 0.31942 0.64965 0.0
H1655 H 0.71786 0.38684 0.59948 0.0
H1656 H 0.72249 0.36962 0.62763 0.0
H1657 H 0.76181 0.32906 0.62244 0.0
H1658 H 0.76487 0.27048 0.69741 0.0
H1659 H 0.7584 0.28559 0.6681 0.0
H1660 H 0.71747 0.32511 0.6717 0.0
C1661 C 0.72498 0.36324 0.614 0.0
C1662 C 0.75189 0.32809 0.63298 0.0
C1663 C 0.72238 0.37316 0.59784 0.0
C1664 C 0.75943 0.28368 0.69825 0.0
C1665 C 0.7558 0.2924 0.68148 0.0
C1666 C 0.72736 0.32601 0.66114 0.0
C1667 C 0.7315 0.34578 0.61275 0.0
C1668 C 0.7355 0.33593 0.63022 0.0
C1669 C 0.74834 0.30935 0.68191 0.0
C1670 C 0.74386 0.31834 0.664 0.0
H1671 H 0.73513 0.34196 0.56508 0.0
H1672 H 0.73946 0.3246 0.59322 0.0
H1673 H 0.71037 0.34031 0.64273 0.0
H1674 H 0.7455 0.31528 0.72966 0.0
H1675 H 0.73957 0.33072 0.70059 0.0
C1676 C 0.45484 0.05966 0.31065 0.0
C1677 C 0.44519 0.07416 0.30521 0.0
C1678 C 0.46253 0.05958 0.3296 0.0
C1679 C 0.45843 0.07863 0.379 0.0
H1680 H 0.50286 0.0568 0.39075 0.0
C1681 C 0.47695 0.05337 0.45317 0.0
C1682 C 0.49618 0.05419 0.46 0.0
C1683 C 0.47189 0.05813 0.43476 0.0
C1684 C 0.49061 0.06324 0.38787 0.0
H1685 H 0.43663 0.10036 0.31542 0.0
H1686 H 0.45064 0.10064 0.34848 0.0
H1687 H 0.49304 0.06185 0.35801 0.0
H1688 H 0.52529 0.06145 0.45306 0.0
H1689 H 0.51662 0.07046 0.42127 0.0
H1690 H 0.45639 0.08062 0.40897 0.0
C1691 C 0.45183 0.089 0.33815 0.0
C1692 C 0.48476 0.06585 0.36893 0.0
C1693 C 0.44393 0.08895 0.31914 0.0
C1694 C 0.51031 0.06046 0.44818 0.0
C1695 C 0.50529 0.06551 0.42986 0.0
C1696 C 0.46444 0.07626 0.39799 0.0
C1697 C 0.46103 0.07414 0.3437 0.0
C1698 C 0.46834 0.07319 0.36414 0.0
C1699 C 0.48597 0.06415 0.42274 0.0
C1700 C 0.48041 0.06818 0.40268 0.0
H1701 H 0.45597 0.04794 0.30035 0.0
H1702 H 0.46911 0.04765 0.33325 0.0
H1703 H 0.44564 0.08418 0.37596 0.0
H1704 H 0.46566 0.04849 0.46183 0.0
H1705 H 0.45684 0.05652 0.42979 0.0
C1706 C 0.7705 0.7139 0.04647 0.0
C1707 C 0.77567 0.69573 0.04644 0.0
C1708 C 0.77233 0.72581 0.0635 0.0
C1709 C 0.79551 0.7347 0.1132 0.0
H1710 H 0.74906 0.75055 0.124 0.0
C1711 C 0.78011 0.7526 0.18934 0.0
C1712 C 0.76968 0.7669 0.19282 0.0
C1713 C 0.78315 0.74723 0.17079 0.0
C1714 C 0.76231 0.74666 0.12111 0.0
H1715 H 0.78759 0.67621 0.06408 0.0
H1716 H 0.79079 0.69707 0.09381 0.0
H1717 H 0.75071 0.73536 0.09243 0.0
H1718 H 0.75482 0.78736 0.17996 0.0
H1719 H 0.76038 0.77819 0.14742 0.0
H1720 H 0.80702 0.74572 0.14198 0.0
C1721 C 0.78537 0.70207 0.08065 0.0
C1722 C 0.76322 0.73791 0.10302 0.0
C1723 C 0.78338 0.69007 0.06366 0.0
C1724 C 0.76276 0.77615 0.17756 0.0
C1725 C 0.76591 0.77086 0.15897 0.0
C1726 C 0.79466 0.7436 0.13126 0.0
C1727 C 0.77954 0.71988 0.08076 0.0
C1728 C 0.77965 0.73142 0.09906 0.0
C1729 C 0.77594 0.75616 0.15536 0.0
C1730 C 0.77786 0.74919 0.13556 0.0
H1731 H 0.76458 0.71872 0.03343 0.0
H1732 H 0.76787 0.73955 0.06322 0.0
H1733 H 0.80843 0.73005 0.11039 0.0
H1734 H 0.78562 0.74529 0.20092 0.0
H1735 H 0.79065 0.73563 0.1685 0.0
C1736 C 0.09883 0.98991 0.73529 0.0
C1737 C 0.11882 0.99323 0.73576 0.0
C1738 C 0.08711 0.98901 0.71804 0.0
C1739 C 0.06762 0.00285 0.68356 0.0
H1740 H 0.0813 0.98584 0.63466 0.0
C1741 C 0.03892 0.02962 0.61402 0.0
C1742 C 0.0356 0.01723 0.59702 0.0
C1743 C 0.04737 0.02406 0.6308 0.0
C1744 C 0.07704 0.9904 0.64817 0.0
H1745 H 0.14214 0.99751 0.7184 0.0
H1746 H 0.12186 0.99668 0.6885 0.0
H1747 H 0.09872 0.97927 0.66394 0.0
H1748 H 0.03796 0.98912 0.58415 0.0
H1749 H 0.05222 0.97905 0.61363 0.0
H1750 H 0.04566 0.01355 0.66785 0.0
C1751 C 0.11508 0.99426 0.70131 0.0
C1752 C 0.08725 0.98687 0.66501 0.0
C1753 C 0.12677 0.99486 0.71852 0.0
C1754 C 0.0405 0.99898 0.59711 0.0
C1755 C 0.04876 0.99329 0.61397 0.0
C1756 C 0.05729 0.00616 0.66675 0.0
C1757 C 0.09512 0.99174 0.70089 0.0
C1758 C 0.08296 0.99344 0.68294 0.0
C1759 C 0.05245 0.00584 0.63101 0.0
C1760 C 0.06216 0.00042 0.64883 0.0
H1761 H 0.09225 0.98837 0.74832 0.0
H1762 H 0.07178 0.98654 0.71825 0.0
H1763 H 0.06396 0.00835 0.69702 0.0
H1764 H 0.03536 0.04382 0.6143 0.0
H1765 H 0.05032 0.03431 0.64348 0.0
C1766 C 0.74411 0.34382 0.4714 0.0
C1767 C 0.7302 0.35463 0.47445 0.0
C1768 C 0.7452 0.33542 0.45318 0.0
C1769 C 0.71876 0.32008 0.40488 0.0
H1770 H 0.76978 0.32726 0.38976 0.0
C1771 C 0.73244 0.30157 0.32694 0.0
C1772 C 0.74864 0.29403 0.32416 0.0
C1773 C 0.72935 0.30806 0.34527 0.0
C1774 C 0.75544 0.32482 0.39379 0.0
H1775 H 0.70605 0.36446 0.46073 0.0
H1776 H 0.70793 0.34967 0.42876 0.0
H1777 H 0.76559 0.33987 0.42153 0.0
H1778 H 0.77398 0.28691 0.33866 0.0
H1779 H 0.76839 0.29778 0.37057 0.0
H1780 H 0.70862 0.30491 0.37711 0.0
C1781 C 0.71798 0.3477 0.44058 0.0
C1782 C 0.75303 0.33212 0.41204 0.0
C1783 C 0.71692 0.35621 0.45889 0.0
C1784 C 0.76143 0.29275 0.34022 0.0
C1785 C 0.75827 0.29912 0.35855 0.0
C1786 C 0.72117 0.31266 0.3866 0.0
C1787 C 0.7324 0.33754 0.43746 0.0
C1788 C 0.73469 0.3298 0.41787 0.0
C1789 C 0.74232 0.30711 0.36133 0.0
C1790 C 0.73957 0.31488 0.38082 0.0
H1791 H 0.75451 0.34218 0.48305 0.0
H1792 H 0.75625 0.32738 0.45136 0.0
H1793 H 0.70445 0.31791 0.40897 0.0
H1794 H 0.72234 0.30292 0.3149 0.0
H1795 H 0.71704 0.31433 0.34677 0.0
C1796 C 0.42539 0.0843 0.18082 0.0
C1797 C 0.43362 0.0797 0.19836 0.0
C1798 C 0.43431 0.08278 0.16432 0.0
C1799 C 0.46102 0.08701 0.13331 0.0
H1800 H 0.48222 0.04134 0.12489 0.0
C1801 C 0.50664 0.07719 0.07218 0.0
C1802 C 0.50361 0.05847 0.06246 0.0
C1803 C 0.49777 0.08017 0.08845 0.0
C1804 C 0.47625 0.0541 0.12694 0.0
H1805 H 0.45812 0.07053 0.21231 0.0
H1806 H 0.47368 0.06803 0.1836 0.0
H1807 H 0.4678 0.04635 0.15395 0.0
H1808 H 0.48902 0.02816 0.06212 0.0
H1809 H 0.47332 0.03335 0.09042 0.0
H1810 H 0.46927 0.09461 0.10615 0.0
C1811 C 0.46017 0.07255 0.18256 0.0
C1812 C 0.46819 0.05711 0.14372 0.0
C1813 C 0.4513 0.07414 0.19907 0.0
C1814 C 0.49146 0.04278 0.06923 0.0
C1815 C 0.48264 0.04573 0.08556 0.0
C1816 C 0.46917 0.08405 0.11655 0.0
C1817 C 0.45165 0.07655 0.16492 0.0
C1818 C 0.46047 0.0736 0.14713 0.0
C1819 C 0.48576 0.06446 0.09543 0.0
C1820 C 0.47687 0.06754 0.11314 0.0
H1821 H 0.41179 0.08861 0.1797 0.0
H1822 H 0.42728 0.08586 0.15095 0.0
H1823 H 0.45531 0.09992 0.13552 0.0
H1824 H 0.51596 0.08954 0.06727 0.0
H1825 H 0.50067 0.09473 0.0958 0.0
C1826 C 0.77617 0.72005 0.94457 0.0
C1827 C 0.78271 0.70311 0.94826 0.0
C1828 C 0.78376 0.73188 0.93109 0.0
C1829 C 0.80517 0.7296 0.8872 0.0
H1830 H 0.8099 0.78569 0.89384 0.0
C1831 C 0.80692 0.77375 0.82257 0.0
C1832 C 0.79201 0.78381 0.82144 0.0
C1833 C 0.81311 0.76727 0.83985 0.0
C1834 C 0.80884 0.77008 0.89182 0.0
H1835 H 0.80265 0.68547 0.94097 0.0
H1836 H 0.81582 0.70617 0.91698 0.0
H1837 H 0.80709 0.76687 0.92144 0.0
H1838 H 0.77314 0.79655 0.83779 0.0
H1839 H 0.78395 0.78539 0.86786 0.0
H1840 H 0.80585 0.73262 0.85745 0.0
C1841 C 0.80481 0.71023 0.92466 0.0
C1842 C 0.8072 0.75931 0.90759 0.0
C1843 C 0.79727 0.6984 0.93835 0.0
C1844 C 0.78458 0.78874 0.8382 0.0
C1845 C 0.79089 0.78245 0.85548 0.0
C1846 C 0.80685 0.74038 0.87143 0.0
C1847 C 0.79805 0.72707 0.92088 0.0
C1848 C 0.80443 0.73885 0.90528 0.0
C1849 C 0.80464 0.77095 0.85631 0.0
C1850 C 0.80782 0.7606 0.87346 0.0
H1851 H 0.76503 0.72417 0.95201 0.0
H1852 H 0.77794 0.74451 0.92824 0.0
H1853 H 0.80296 0.71385 0.88495 0.0
H1854 H 0.81291 0.76967 0.80989 0.0
H1855 H 0.82385 0.75859 0.84013 0.0
C1856 C 0.86099 0.13497 0.00411 0.0
C1857 C 0.84814 0.12991 0.01752 0.0
C1858 C 0.87528 0.12453 0.0015 0.0
C1859 C 0.88645 0.07643 0.00896 0.0
H1860 H 0.93911 0.10178 0.00518 0.0
C1861 C 0.94666 0.03572 0.02101 0.0
C1862 C 0.96136 0.03811 0.00928 0.0
C1863 C 0.93337 0.04751 0.02018 0.0
C1864 C 0.92441 0.09446 0.00593 0.0
H1865 H 0.84056 0.11006 0.03893 0.0
H1866 H 0.86526 0.09206 0.03444 0.0
H1867 H 0.91494 0.12144 0.00722 0.0
H1868 H 0.97364 0.05482 0.98738 0.0
H1869 H 0.95024 0.07576 0.98594 0.0
H1870 H 0.89573 0.04955 0.00785 0.0
C1871 C 0.86423 0.10391 0.02573 0.0
C1872 C 0.91056 0.10573 0.00712 0.0
C1873 C 0.85009 0.11435 0.0284 0.0
C1874 C 0.96254 0.05275 0.9967 0.0
C1875 C 0.94916 0.06472 0.9959 0.0
C1876 C 0.9002 0.06524 0.00773 0.0
C1877 C 0.87691 0.1087 0.01214 0.0
C1878 C 0.89148 0.09687 0.00911 0.0
C1879 C 0.93426 0.06207 0.00752 0.0
C1880 C 0.91946 0.0741 0.00667 0.0
H1881 H 0.85992 0.14689 0.99551 0.0
H1882 H 0.88477 0.12858 0.99087 0.0
H1883 H 0.87182 0.06904 0.00996 0.0
H1884 H 0.94543 0.02471 0.03102 0.0
H1885 H 0.92241 0.04529 0.02966 0.0
C1886 C 0.3029 0.45203 0.06309 0.0
C1887 C 0.29636 0.43313 0.05361 0.0
C1888 C 0.32178 0.46221 0.0629 0.0
C1889 C 0.36977 0.45564 0.05424 0.0
H1890 H 0.37796 0.50936 0.04198 0.0
C1891 C 0.44526 0.50229 0.05069 0.0
C1892 C 0.44734 0.51287 0.03466 0.0
C1893 C 0.42709 0.49356 0.05493 0.0
C1894 C 0.37588 0.49437 0.0454 0.0
H1895 H 0.30469 0.40994 0.03691 0.0
H1896 H 0.33753 0.42772 0.03654 0.0
H1897 H 0.3458 0.4917 0.04603 0.0
H1898 H 0.43189 0.52291 0.01073 0.0
H1899 H 0.4002 0.50759 0.01811 0.0
H1900 H 0.39972 0.4581 0.05304 0.0
C1901 C 0.32811 0.43461 0.04423 0.0
C1902 C 0.35752 0.48433 0.04792 0.0
C1903 C 0.30924 0.42447 0.04435 0.0
C1904 C 0.43082 0.51487 0.02319 0.0
C1905 C 0.41265 0.5062 0.02748 0.0
C1906 C 0.38813 0.4657 0.05179 0.0
C1907 C 0.33452 0.45366 0.05332 0.0
C1908 C 0.35424 0.46477 0.05211 0.0
C1909 C 0.4106 0.49528 0.04328 0.0
C1910 C 0.39134 0.48509 0.04711 0.0
H1911 H 0.29336 0.45911 0.07039 0.0
H1912 H 0.3264 0.47681 0.07019 0.0
H1913 H 0.3677 0.44064 0.05765 0.0
H1914 H 0.45767 0.50044 0.05984 0.0
H1915 H 0.42595 0.48541 0.06732 0.0
C1916 C 0.34455 0.61117 0.75324 0.0
C1917 C 0.3389 0.60055 0.73519 0.0
C1918 C 0.33593 0.62642 0.75873 0.0
C1919 C 0.29253 0.64586 0.74637 0.0
H1920 H 0.32311 0.69434 0.7731 0.0
C1921 C 0.26631 0.7172 0.74812 0.0
C1922 C 0.26924 0.72902 0.76549 0.0
C1923 C 0.27458 0.70108 0.74634 0.0
C1924 C 0.31436 0.68079 0.76586 0.0
H1925 H 0.31996 0.59779 0.70868 0.0
H1926 H 0.3053 0.62444 0.71804 0.0
H1927 H 0.33818 0.667 0.76631 0.0
H1928 H 0.28241 0.73281 0.79485 0.0
H1929 H 0.29753 0.70479 0.79159 0.0
H1930 H 0.26886 0.65981 0.74542 0.0
C1931 C 0.31604 0.6208 0.72818 0.0
C1932 C 0.32297 0.66511 0.76199 0.0
C1933 C 0.32457 0.60557 0.72274 0.0
C1934 C 0.28044 0.72427 0.78115 0.0
C1935 C 0.28895 0.70819 0.77932 0.0
C1936 C 0.284 0.66153 0.75012 0.0
C1937 C 0.32151 0.63138 0.74628 0.0
C1938 C 0.31222 0.64757 0.75186 0.0
C1939 C 0.28604 0.6964 0.76187 0.0
C1940 C 0.29487 0.67928 0.75959 0.0
H1941 H 0.35553 0.60765 0.76317 0.0
H1942 H 0.34039 0.63415 0.77282 0.0
H1943 H 0.2837 0.63242 0.73899 0.0
H1944 H 0.25777 0.72054 0.73577 0.0
H1945 H 0.27227 0.69243 0.73265 0.0
C1946 C 0.24536 0.62446 0.51848 0.0
C1947 C 0.24942 0.64114 0.50855 0.0
C1948 C 0.22655 0.61367 0.51771 0.0
C1949 C 0.17854 0.60327 0.49044 0.0
H1950 H 0.16047 0.59542 0.53954 0.0
C1951 C 0.09798 0.58113 0.49832 0.0
C1952 C 0.09234 0.56959 0.51292 0.0
C1953 C 0.11741 0.58807 0.49682 0.0
C1954 C 0.16528 0.59707 0.52566 0.0
H1955 H 0.23704 0.65902 0.48928 0.0
H1956 H 0.20424 0.63996 0.48771 0.0
H1957 H 0.19404 0.60997 0.53815 0.0
H1958 H 0.10239 0.55556 0.53699 0.0
H1959 H 0.13626 0.56697 0.53401 0.0
H1960 H 0.14989 0.5902 0.47786 0.0
C1961 C 0.21562 0.63533 0.49617 0.0
C1962 C 0.18455 0.6055 0.5249 0.0
C1963 C 0.23438 0.64629 0.49716 0.0
C1964 C 0.1064 0.56461 0.52569 0.0
C1965 C 0.12581 0.57128 0.52404 0.0
C1966 C 0.1593 0.59457 0.49116 0.0
C1967 C 0.21146 0.61917 0.50676 0.0
C1968 C 0.19133 0.60889 0.50731 0.0
C1969 C 0.13162 0.58336 0.50976 0.0
C1970 C 0.15234 0.59157 0.50881 0.0
H1971 H 0.25661 0.62011 0.5274 0.0
H1972 H 0.22373 0.60118 0.52589 0.0
H1973 H 0.18345 0.60559 0.47667 0.0
H1974 H 0.08738 0.58522 0.48832 0.0
H1975 H 0.12125 0.59756 0.48583 0.0
C1976 C 0.65724 0.93288 0.78113 0.0
C1977 C 0.65737 0.94383 0.76527 0.0
C1978 C 0.66839 0.91883 0.78273 0.0
C1979 C 0.71086 0.90564 0.76443 0.0
H1980 H 0.69217 0.85495 0.78195 0.0
C1981 C 0.74759 0.84223 0.75118 0.0
C1982 C 0.75048 0.83073 0.76613 0.0
C1983 C 0.73622 0.85589 0.75269 0.0
C1984 C 0.69766 0.86914 0.77725 0.0
H1985 H 0.66887 0.94812 0.73841 0.0
H1986 H 0.68788 0.92365 0.74103 0.0
H1987 H 0.67205 0.87899 0.78155 0.0
H1988 H 0.74382 0.82453 0.79448 0.0
H1989 H 0.72356 0.84837 0.79705 0.0
H1990 H 0.73625 0.8958 0.75981 0.0
C1991 C 0.67958 0.92613 0.75248 0.0
C1992 C 0.68615 0.88292 0.77703 0.0
C1993 C 0.66854 0.94012 0.75091 0.0
C1994 C 0.74166 0.83309 0.78266 0.0
C1995 C 0.73008 0.8467 0.78412 0.0
C1996 C 0.72226 0.89192 0.76458 0.0
C1997 C 0.67991 0.91548 0.76851 0.0
C1998 C 0.69248 0.90121 0.77026 0.0
C1999 C 0.7274 0.85839 0.76919 0.0
C2000 C 0.71569 0.87337 0.77064 0.0
H2001 H 0.6488 0.93539 0.79244 0.0
H2002 H 0.66835 0.91094 0.7953 0.0
H2003 H 0.71644 0.91975 0.75962 0.0
H2004 H 0.7541 0.84065 0.73822 0.0
H2005 H 0.7342 0.86441 0.74081 0.0
C2006 C 0.69589 0.96253 0.55756 0.0
C2007 C 0.70401 0.9505 0.54578 0.0
C2008 C 0.68288 0.97277 0.54967 0.0
C2009 C 0.64925 0.9721 0.50635 0.0
H2010 H 0.64528 0.02154 0.53162 0.0
C2011 C 0.57931 0.99865 0.50053 0.0
C2012 C 0.57983 0.01871 0.5027 0.0
C2013 C 0.59627 0.99202 0.50192 0.0
C2014 C 0.64634 0.00795 0.52407 0.0
H2015 H 0.70535 0.94018 0.51644 0.0
H2016 H 0.68294 0.95847 0.50259 0.0
H2017 H 0.67234 0.00756 0.54151 0.0
H2018 H 0.59829 0.04768 0.50678 0.0
H2019 H 0.62809 0.03616 0.50867 0.0
H2020 H 0.62337 0.97264 0.48874 0.0
C2021 C 0.68629 0.95966 0.51797 0.0
C2022 C 0.66174 0.99976 0.52998 0.0
C2023 C 0.69919 0.94924 0.52589 0.0
C2024 C 0.59756 0.03212 0.5052 0.0
C2025 C 0.61459 0.02549 0.50641 0.0
C2026 C 0.63396 0.98042 0.50028 0.0
C2027 C 0.67783 0.97141 0.52978 0.0
C2028 C 0.66304 0.98142 0.52164 0.0
C2029 C 0.61414 0.00534 0.50532 0.0
C2030 C 0.63197 0.99813 0.50949 0.0
H2031 H 0.69925 0.96374 0.57294 0.0
H2032 H 0.67638 0.98132 0.55926 0.0
H2033 H 0.64971 0.95794 0.49961 0.0
H2034 H 0.56579 0.988 0.49858 0.0
H2035 H 0.59528 0.97642 0.50128 0.0
C2036 C 0.32715 0.49162 0.72602 0.0
C2037 C 0.34685 0.49818 0.73225 0.0
C2038 C 0.31785 0.47227 0.7275 0.0
C2039 C 0.32716 0.42316 0.73212 0.0
H2040 H 0.27862 0.41218 0.75266 0.0
C2041 C 0.28572 0.34433 0.73682 0.0
C2042 C 0.27855 0.34048 0.7542 0.0
C2043 C 0.29272 0.36353 0.73287 0.0
C2044 C 0.29218 0.41503 0.74693 0.0
H2045 H 0.37222 0.48946 0.74479 0.0
H2046 H 0.35604 0.45589 0.74732 0.0
H2047 H 0.29363 0.44583 0.74808 0.0
H2048 H 0.27275 0.35393 0.78087 0.0
H2049 H 0.28504 0.38739 0.77397 0.0
H2050 H 0.32599 0.3925 0.73136 0.0
C2051 C 0.34779 0.46562 0.74118 0.0
C2052 C 0.30068 0.43426 0.74413 0.0
C2053 C 0.35704 0.48493 0.73983 0.0
C2054 C 0.27817 0.35633 0.76735 0.0
C2055 C 0.28511 0.37553 0.76335 0.0
C2056 C 0.31863 0.40395 0.73481 0.0
C2057 C 0.32809 0.45907 0.73508 0.0
C2058 C 0.31838 0.43855 0.73691 0.0
C2059 C 0.29266 0.37934 0.74616 0.0
C2060 C 0.30114 0.39968 0.74243 0.0
H2061 H 0.31888 0.50145 0.72013 0.0
H2062 H 0.30267 0.46759 0.72257 0.0
H2063 H 0.34071 0.42597 0.72635 0.0
H2064 H 0.2862 0.33253 0.72632 0.0
H2065 H 0.29823 0.36599 0.71939 0.0
C2066 C 0.15735 0.56459 0.29485 0.0
C2067 C 0.16034 0.54851 0.28356 0.0
C2068 C 0.17014 0.58271 0.29618 0.0
C2069 C 0.20385 0.61158 0.26862 0.0
H2070 H 0.21698 0.64693 0.31506 0.0
C2071 C 0.24723 0.69059 0.26891 0.0
C2072 C 0.2402 0.70496 0.27888 0.0
C2073 C 0.24048 0.67083 0.27113 0.0
C2074 C 0.21337 0.63726 0.30195 0.0
H2075 H 0.17959 0.5387 0.26542 0.0
H2076 H 0.20193 0.57045 0.26773 0.0
H2077 H 0.19989 0.61323 0.31624 0.0
H2078 H 0.22107 0.71014 0.29932 0.0
H2079 H 0.20902 0.67571 0.30296 0.0
H2080 H 0.21669 0.6357 0.25418 0.0
C2081 C 0.18957 0.569 0.27543 0.0
C2082 C 0.20363 0.61795 0.30265 0.0
C2083 C 0.17682 0.5508 0.27419 0.0
C2084 C 0.22672 0.69932 0.29147 0.0
C2085 C 0.21994 0.6796 0.29366 0.0
C2086 C 0.21353 0.63089 0.2679 0.0
C2087 C 0.18618 0.58522 0.28618 0.0
C2088 C 0.19845 0.60501 0.28592 0.0
C2089 C 0.22655 0.66508 0.28333 0.0
C2090 C 0.21808 0.64407 0.2845 0.0
H2091 H 0.14484 0.56333 0.30232 0.0
H2092 H 0.16701 0.59496 0.30442 0.0
H2093 H 0.19984 0.60204 0.25544 0.0
H2094 H 0.25772 0.6946 0.25919 0.0
H2095 H 0.24606 0.66005 0.26316 0.0
C2096 C 0.51996 0.73014 0.40838 0.0
C2097 C 0.53396 0.74631 0.41722 0.0
C2098 C 0.51737 0.7122 0.41622 0.0
C2099 C 0.54305 0.68477 0.44869 0.0
H2100 H 0.49268 0.65163 0.44908 0.0
C2101 C 0.50552 0.61207 0.48526 0.0
C2102 C 0.51879 0.60047 0.48253 0.0
C2103 C 0.50685 0.62961 0.47687 0.0
C2104 C 0.50684 0.66078 0.4492 0.0
H2105 H 0.55579 0.75649 0.44154 0.0
H2106 H 0.55106 0.72548 0.45531 0.0
H2107 H 0.49569 0.68299 0.43573 0.0
H2108 H 0.54366 0.59781 0.46874 0.0
H2109 H 0.54589 0.62827 0.45386 0.0
H2110 H 0.55422 0.66289 0.46257 0.0
C2111 C 0.54236 0.72645 0.44211 0.0
C2112 C 0.50858 0.67865 0.44135 0.0
C2113 C 0.54498 0.74429 0.43426 0.0
C2114 C 0.53332 0.60658 0.47117 0.0
C2115 C 0.53464 0.62407 0.46273 0.0
C2116 C 0.54132 0.66695 0.45655 0.0
C2117 C 0.52871 0.7101 0.43307 0.0
C2118 C 0.52671 0.69091 0.44108 0.0
C2119 C 0.52147 0.63586 0.46554 0.0
C2120 C 0.5232 0.65474 0.45695 0.0
H2121 H 0.51126 0.73123 0.39521 0.0
H2122 H 0.50683 0.69987 0.40882 0.0
H2123 H 0.55726 0.69369 0.44848 0.0
H2124 H 0.49415 0.60766 0.49397 0.0
H2125 H 0.49662 0.63844 0.47953 0.0
C2126 C 0.56684 0.29078 0.69385 0.0
C2127 C 0.55021 0.28149 0.70113 0.0
C2128 C 0.58483 0.29329 0.70446 0.0
C2129 C 0.62132 0.3039 0.73186 0.0
H2130 H 0.63078 0.26086 0.75978 0.0
C2131 C 0.69707 0.30442 0.76767 0.0
C2132 C 0.70301 0.28671 0.7656 0.0
C2133 C 0.67777 0.30489 0.76337 0.0
C2134 C 0.62844 0.27298 0.75198 0.0
H2135 H 0.53942 0.26837 0.72572 0.0
H2136 H 0.57081 0.27325 0.74448 0.0
H2137 H 0.59855 0.26018 0.74502 0.0
H2138 H 0.6932 0.25548 0.758 0.0
H2139 H 0.65979 0.25634 0.74995 0.0
H2140 H 0.65136 0.31612 0.73773 0.0
C2141 C 0.56998 0.27815 0.73033 0.0
C2142 C 0.60984 0.27274 0.74374 0.0
C2143 C 0.55195 0.27548 0.71962 0.0
C2144 C 0.68912 0.26938 0.75984 0.0
C2145 C 0.66988 0.26987 0.75531 0.0
C2146 C 0.63993 0.30404 0.73992 0.0
C2147 C 0.5867 0.28677 0.72274 0.0
C2148 C 0.60609 0.28802 0.73325 0.0
C2149 C 0.66397 0.28769 0.75664 0.0
C2150 C 0.64383 0.28842 0.7498 0.0
H2151 H 0.56608 0.29553 0.67963 0.0
H2152 H 0.59734 0.2997 0.69795 0.0
H2153 H 0.61896 0.31611 0.72421 0.0
H2154 H 0.70738 0.31801 0.77227 0.0
H2155 H 0.67374 0.31882 0.765 0.0
C2156 C 0.01146 0.34592 0.93609 0.0
C2157 C 0.02183 0.34412 0.92059 0.0
C2158 C 0.01238 0.3642 0.94567 0.0
C2159 C 0.01989 0.41558 0.93773 0.0
H2160 H 0.02143 0.42337 0.99274 0.0
C2161 C 0.01947 0.48054 0.00073 0.0
C2162 C 0.00367 0.48742 0.99294 0.0
C2163 C 0.02414 0.46409 0.99188 0.0
C2164 C 0.02119 0.42151 0.97738 0.0
H2165 H 0.04171 0.36 0.90327 0.0
H2166 H 0.04315 0.39215 0.91996 0.0
H2167 H 0.02617 0.39262 0.97794 0.0
H2168 H 0.98051 0.48274 0.96976 0.0
H2169 H 0.98862 0.45392 0.95425 0.0
H2170 H 0.01447 0.44432 0.93715 0.0
C2171 C 0.03433 0.37933 0.92465 0.0
C2172 C 0.02378 0.40387 0.96891 0.0
C2173 C 0.0336 0.36095 0.9152 0.0
C2174 C 0.99275 0.47771 0.97605 0.0
C2175 C 0.99749 0.46133 0.96711 0.0
C2176 C 0.01711 0.43317 0.94619 0.0
C2177 C 0.02354 0.38114 0.93985 0.0
C2178 C 0.02288 0.4006 0.94897 0.0
C2179 C 0.01315 0.45426 0.97501 0.0
C2180 C 0.01748 0.43622 0.96609 0.0
H2181 H 0.00228 0.33323 0.94062 0.0
H2182 H 0.00375 0.36513 0.95719 0.0
H2183 H 0.01896 0.41343 0.92232 0.0
H2184 H 0.02809 0.48774 0.01381 0.0
H2185 H 0.03636 0.45907 0.99822 0.0
C2186 C 0.94412 0.75956 0.21996 0.0
C2187 C 0.94698 0.76561 0.20181 0.0
C2188 C 0.92797 0.76204 0.22832 0.0
C2189 C 0.8885 0.78884 0.22471 0.0
H2190 H 0.86545 0.74951 0.25599 0.0
C2191 C 0.81481 0.78622 0.25129 0.0
C2192 C 0.81394 0.78377 0.2707 0.0
C2193 C 0.83098 0.784 0.24282 0.0
C2194 C 0.87182 0.76067 0.2474 0.0
H2195 H 0.93508 0.77898 0.17815 0.0
H2196 H 0.90655 0.78275 0.19241 0.0
H2197 H 0.89348 0.74555 0.24099 0.0
H2198 H 0.82922 0.77727 0.29658 0.0
H2199 H 0.85749 0.77302 0.28169 0.0
H2200 H 0.86639 0.80363 0.23081 0.0
C2201 C 0.91701 0.77652 0.20046 0.0
C2202 C 0.88796 0.75848 0.23884 0.0
C2203 C 0.93334 0.77427 0.1922 0.0
C2204 C 0.82952 0.77909 0.28154 0.0
C2205 C 0.84562 0.77659 0.27301 0.0
C2206 C 0.8722 0.79088 0.23307 0.0
C2207 C 0.91408 0.7704 0.21863 0.0
C2208 C 0.89662 0.7726 0.22746 0.0
C2209 C 0.84654 0.77913 0.25358 0.0
C2210 C 0.86375 0.77687 0.24457 0.0
H2211 H 0.95445 0.753 0.22783 0.0
H2212 H 0.92651 0.75754 0.24248 0.0
H2213 H 0.89489 0.8002 0.21635 0.0
H2214 H 0.8032 0.79033 0.24275 0.0
H2215 H 0.83126 0.78598 0.22781 0.0
C2216 C 0.48955 0.34829 0.08481 0.0
C2217 C 0.5078 0.34403 0.08681 0.0
C2218 C 0.48706 0.36594 0.07824 0.0
C2219 C 0.51219 0.41589 0.07326 0.0
H2220 H 0.47572 0.4125 0.02801 0.0
C2221 C 0.51499 0.47931 0.02647 0.0
C2222 C 0.49772 0.48273 0.01791 0.0
C2223 C 0.51506 0.4628 0.03619 0.0
C2224 C 0.4857 0.41381 0.04086 0.0
H2225 H 0.53784 0.35508 0.08425 0.0
H2226 H 0.53352 0.38601 0.07312 0.0
H2227 H 0.47758 0.38317 0.04373 0.0
H2228 H 0.46698 0.47188 0.01262 0.0
H2229 H 0.46695 0.44311 0.02995 0.0
H2230 H 0.52031 0.44649 0.07058 0.0
C2231 C 0.52116 0.37568 0.07651 0.0
C2232 C 0.48677 0.39699 0.04982 0.0
C2233 C 0.52359 0.35794 0.08274 0.0
C2234 C 0.48049 0.46936 0.019 0.0
C2235 C 0.48051 0.45293 0.02891 0.0
C2236 C 0.51096 0.43276 0.06448 0.0
C2237 C 0.50285 0.37971 0.07396 0.0
C2238 C 0.50027 0.39784 0.06585 0.0
C2239 C 0.49781 0.44947 0.03765 0.0
C2240 C 0.49799 0.43185 0.04792 0.0
H2241 H 0.47713 0.3378 0.08784 0.0
H2242 H 0.47282 0.3688 0.07642 0.0
H2243 H 0.52258 0.41691 0.08576 0.0
H2244 H 0.52845 0.48939 0.02557 0.0
H2245 H 0.52868 0.4604 0.04236 0.0
C2246 C 0.95866 0.28755 0.3937 0.0
C2247 C 0.97336 0.27896 0.38809 0.0
C2248 C 0.94317 0.28854 0.38044 0.0
C2249 C 0.91772 0.29812 0.34709 0.0
H2250 H 0.89298 0.2515 0.31355 0.0
C2251 C 0.85207 0.29662 0.29261 0.0
C2252 C 0.83665 0.28083 0.29337 0.0
C2253 C 0.87026 0.29651 0.30163 0.0
C2254 C 0.89979 0.26463 0.32279 0.0
H2255 H 0.9834 0.26482 0.36411 0.0
H2256 H 0.95638 0.2666 0.34105 0.0
H2257 H 0.92181 0.2515 0.33507 0.0
H2258 H 0.82808 0.2522 0.3032 0.0
H2259 H 0.85981 0.25199 0.319 0.0
H2260 H 0.89534 0.31102 0.33529 0.0
C2261 C 0.95678 0.27242 0.35571 0.0
C2262 C 0.91635 0.26469 0.33499 0.0
C2263 C 0.97229 0.27148 0.36893 0.0
C2264 C 0.83979 0.26457 0.30249 0.0
C2265 C 0.85796 0.26441 0.31141 0.0
C2266 C 0.9012 0.29808 0.33484 0.0
C2267 C 0.94205 0.28091 0.36135 0.0
C2268 C 0.92529 0.28133 0.34748 0.0
C2269 C 0.87328 0.28055 0.31142 0.0
C2270 C 0.8919 0.28123 0.3228 0.0
H2271 H 0.95906 0.29345 0.40833 0.0
H2272 H 0.93188 0.29495 0.38523 0.0
H2273 H 0.92446 0.31122 0.35641 0.0
H2274 H 0.84996 0.3093 0.28558 0.0
H2275 H 0.88189 0.30905 0.30124 0.0
C2276 C 0.98875 0.72535 0.58291 0.0
C2277 C 0.99616 0.74374 0.57699 0.0
C2278 C 0.98512 0.70861 0.57012 0.0
C2279 C 0.00095 0.69051 0.52598 0.0
H2280 H 0.96466 0.64375 0.53463 0.0
C2281 C 0.01646 0.615 0.5147 0.0
C2282 C 0.00148 0.59827 0.51188 0.0
C2283 C 0.01251 0.63353 0.51649 0.0
C2284 C 0.9746 0.65666 0.53154 0.0
H2285 H 0.00448 0.75918 0.55273 0.0
H2286 H 0.99762 0.72991 0.53019 0.0
H2287 H 0.96207 0.67516 0.54906 0.0
H2288 H 0.97063 0.58778 0.50708 0.0
H2289 H 0.96369 0.62022 0.50948 0.0
H2290 H 0.01334 0.67202 0.50826 0.0
C2291 C 0.99511 0.72838 0.54486 0.0
C2292 C 0.9733 0.67471 0.54013 0.0
C2293 C 0.99899 0.74516 0.55776 0.0
C2294 C 0.98247 0.60045 0.50955 0.0
C2295 C 0.97851 0.61904 0.511 0.0
C2296 C 0.00203 0.67249 0.51707 0.0
C2297 C 0.98854 0.70984 0.551 0.0
C2298 C 0.98708 0.69169 0.5383 0.0
C2299 C 0.99348 0.63579 0.51519 0.0
C2300 C 0.98951 0.65522 0.52058 0.0
H2301 H 0.98644 0.72374 0.59763 0.0
H2302 H 0.98046 0.69461 0.57554 0.0
H2303 H 0.01181 0.70325 0.52416 0.0
H2304 H 0.03127 0.61379 0.51662 0.0
H2305 H 0.02447 0.64597 0.52003 0.0
C2306 C 0.5844 0.80394 0.88523 0.0
C2307 C 0.58552 0.79326 0.90118 0.0
C2308 C 0.59629 0.80257 0.87107 0.0
C2309 C 0.62165 0.7693 0.84928 0.0
H2310 H 0.65566 0.815 0.83493 0.0
C2311 C 0.6866 0.7636 0.81108 0.0
C2312 C 0.69295 0.77745 0.7986 0.0
C2313 C 0.67134 0.76526 0.82116 0.0
C2314 C 0.64595 0.8021 0.83841 0.0
H2315 H 0.60004 0.77292 0.9149 0.0
H2316 H 0.62053 0.77032 0.88999 0.0
H2317 H 0.6331 0.81898 0.85751 0.0
H2318 H 0.68803 0.80342 0.78613 0.0
H2319 H 0.66086 0.80603 0.8033 0.0
H2320 H 0.63422 0.75235 0.8302 0.0
C2321 C 0.6105 0.77977 0.88853 0.0
C2322 C 0.63314 0.80442 0.85142 0.0
C2323 C 0.59889 0.78139 0.90282 0.0
C2324 C 0.68337 0.79259 0.79576 0.0
C2325 C 0.66794 0.79415 0.8057 0.0
C2326 C 0.63421 0.76699 0.83607 0.0
C2327 C 0.60919 0.79022 0.87249 0.0
C2328 C 0.62126 0.788 0.8573 0.0
C2329 C 0.66197 0.7807 0.81879 0.0
C2330 C 0.6469 0.78332 0.83087 0.0
H2331 H 0.57424 0.81322 0.88361 0.0
H2332 H 0.59509 0.81077 0.8588 0.0
H2333 H 0.61237 0.75646 0.85343 0.0
H2334 H 0.69384 0.75185 0.81357 0.0
H2335 H 0.6674 0.75484 0.83136 0.0
C2336 C 0.4315 0.57217 0.69303 0.0
C2337 C 0.4115 0.56789 0.6882 0.0
C2338 C 0.44362 0.57304 0.67883 0.0
C2339 C 0.46436 0.55911 0.64755 0.0
H2340 H 0.45265 0.57738 0.59828 0.0
C2341 C 0.49535 0.53528 0.58032 0.0
C2342 C 0.49891 0.5484 0.56639 0.0
C2343 C 0.4871 0.54028 0.59641 0.0
C2344 C 0.45633 0.57248 0.61205 0.0
H2345 H 0.38858 0.56194 0.66462 0.0
H2346 H 0.40969 0.56303 0.63983 0.0
H2347 H 0.43347 0.58237 0.62375 0.0
H2348 H 0.49756 0.57753 0.55908 0.0
H2349 H 0.48355 0.58636 0.58735 0.0
H2350 H 0.48731 0.54936 0.63593 0.0
C2351 C 0.41605 0.56602 0.6546 0.0
C2352 C 0.44515 0.5751 0.62658 0.0
C2353 C 0.40392 0.56531 0.66882 0.0
C2354 C 0.49496 0.56702 0.56946 0.0
C2355 C 0.48675 0.57204 0.5856 0.0
C2356 C 0.47558 0.55656 0.63306 0.0
C2357 C 0.43604 0.56948 0.65944 0.0
C2358 C 0.44883 0.56818 0.64443 0.0
C2359 C 0.48227 0.55854 0.59903 0.0
C2360 C 0.47153 0.56292 0.61503 0.0
H2361 H 0.43783 0.57445 0.70783 0.0
H2362 H 0.45894 0.57618 0.68309 0.0
H2363 H 0.46751 0.55338 0.66102 0.0
H2364 H 0.49814 0.52079 0.57841 0.0
H2365 H 0.48369 0.52943 0.60634 0.0
C2366 C 0.80247 0.20794 0.94669 0.0
C2367 C 0.79421 0.21413 0.96248 0.0
C2368 C 0.7999 0.21587 0.92924 0.0
C2369 C 0.76733 0.24226 0.90281 0.0
H2370 H 0.80662 0.25079 0.86902 0.0
C2371 C 0.76172 0.28557 0.83683 0.0
C2372 C 0.7675 0.27824 0.81998 0.0
C2373 C 0.76479 0.27719 0.8539 0.0
C2374 C 0.79543 0.2483 0.87822 0.0
H2375 H 0.77758 0.2342 0.97256 0.0
H2376 H 0.77363 0.2484 0.94251 0.0
H2377 H 0.81318 0.23801 0.8996 0.0
H2378 H 0.78076 0.25617 0.80769 0.0
H2379 H 0.78618 0.24154 0.83753 0.0
H2380 H 0.7497 0.25283 0.88156 0.0
C2381 C 0.78158 0.23699 0.94331 0.0
C2382 C 0.79918 0.24095 0.89577 0.0
C2383 C 0.78401 0.22896 0.96065 0.0
C2384 C 0.77616 0.26215 0.82047 0.0
C2385 C 0.77939 0.25387 0.83758 0.0
C2386 C 0.76365 0.24973 0.88537 0.0
C2387 C 0.78912 0.23027 0.92721 0.0
C2388 C 0.78521 0.23792 0.90837 0.0
C2389 C 0.77384 0.26136 0.85453 0.0
C2390 C 0.77766 0.25291 0.87288 0.0
H2391 H 0.81032 0.19645 0.94761 0.0
H2392 H 0.80582 0.2102 0.91716 0.0
H2393 H 0.75602 0.23969 0.91186 0.0
H2394 H 0.75503 0.29797 0.83687 0.0
H2395 H 0.76048 0.28342 0.86672 0.0
C2396 C 0.08675 0.48262 0.20631 0.0
C2397 C 0.08183 0.49175 0.2228 0.0
C2398 C 0.07769 0.4843 0.18826 0.0
C2399 C 0.03603 0.49801 0.16189 0.0
H2400 H 0.07137 0.51156 0.12484 0.0
C2401 C 0.01445 0.52459 0.0881 0.0
C2402 C 0.02327 0.51857 0.07264 0.0
C2403 C 0.01999 0.52023 0.10662 0.0
C2404 C 0.06121 0.5075 0.13487 0.0
H2405 H 0.06264 0.50889 0.23319 0.0
H2406 H 0.04681 0.51183 0.20157 0.0
H2407 H 0.08342 0.5052 0.15654 0.0
H2408 H 0.04406 0.50236 0.06436 0.0
H2409 H 0.0533 0.49444 0.09628 0.0
H2410 H 0.01378 0.50034 0.14004 0.0
C2411 C 0.05771 0.50335 0.20269 0.0
C2412 C 0.06815 0.50386 0.15309 0.0
C2413 C 0.06683 0.50169 0.22081 0.0
C2414 C 0.03716 0.50749 0.07596 0.0
C2415 C 0.04255 0.50303 0.09434 0.0
C2416 C 0.02902 0.50157 0.14352 0.0
C2417 C 0.06345 0.49515 0.18617 0.0
C2418 C 0.05567 0.49893 0.16681 0.0
C2419 C 0.03438 0.50969 0.11 0.0
C2420 C 0.04154 0.50622 0.12973 0.0
H2421 H 0.0981 0.47469 0.20726 0.0
H2422 H 0.08217 0.47746 0.17584 0.0
H2423 H 0.02604 0.49421 0.17214 0.0
H2424 H 0.00374 0.5332 0.08601 0.0
H2425 H 0.01346 0.52569 0.11834 0.0
C2426 C 0.73093 0.8895 0.47649 0.0
C2427 C 0.73288 0.87644 0.49025 0.0
C2428 C 0.72959 0.88325 0.45709 0.0
C2429 C 0.71856 0.84123 0.42135 0.0
H2430 H 0.76349 0.86656 0.39962 0.0
C2431 C 0.7436 0.80526 0.35595 0.0
C2432 C 0.75368 0.81722 0.34375 0.0
C2433 C 0.73843 0.81351 0.3726 0.0
C2434 C 0.75057 0.85957 0.40513 0.0
H2435 H 0.73358 0.84645 0.49471 0.0
H2436 H 0.73061 0.83543 0.46077 0.0
H2437 H 0.75723 0.87958 0.43043 0.0
H2438 H 0.76554 0.84707 0.33865 0.0
H2439 H 0.75573 0.86159 0.36708 0.0
H2440 H 0.71169 0.82129 0.39608 0.0
C2441 C 0.73037 0.85048 0.46498 0.0
C2442 C 0.74705 0.86705 0.42284 0.0
C2443 C 0.7322 0.85681 0.48434 0.0
C2444 C 0.75806 0.83753 0.34808 0.0
C2445 C 0.75249 0.84583 0.36444 0.0
C2446 C 0.72182 0.83397 0.4034 0.0
C2447 C 0.72963 0.86377 0.45125 0.0
C2448 C 0.73129 0.85768 0.43127 0.0
C2449 C 0.74283 0.83394 0.37709 0.0
C2450 C 0.73816 0.84274 0.39526 0.0
H2451 H 0.73148 0.90472 0.48076 0.0
H2452 H 0.72909 0.89372 0.44667 0.0
H2453 H 0.7063 0.83381 0.42766 0.0
H2454 H 0.74004 0.78952 0.35281 0.0
H2455 H 0.73135 0.80381 0.3821 0.0
C2456 C 0.40929 0.57294 0.8075 0.0
C2457 C 0.41771 0.56511 0.79263 0.0
C2458 C 0.41728 0.57347 0.82652 0.0
C2459 C 0.44619 0.54659 0.85525 0.0
H2460 H 0.45039 0.58824 0.89549 0.0
C2461 C 0.48406 0.54315 0.9297 0.0
C2462 C 0.47528 0.54852 0.94537 0.0
C2463 C 0.47767 0.54705 0.9114 0.0
C2464 C 0.44913 0.57643 0.88441 0.0
H2465 H 0.44188 0.5532 0.78585 0.0
H2466 H 0.45588 0.55442 0.81882 0.0
H2467 H 0.43828 0.59243 0.86271 0.0
H2468 H 0.45332 0.56259 0.95445 0.0
H2469 H 0.44183 0.56914 0.92228 0.0
H2470 H 0.45669 0.53043 0.87672 0.0
C2471 C 0.44287 0.55966 0.81591 0.0
C2472 C 0.44224 0.57885 0.86568 0.0
C2473 C 0.43488 0.55905 0.79701 0.0
C2474 C 0.46027 0.55826 0.94254 0.0
C2475 C 0.4538 0.56211 0.92417 0.0
C2476 C 0.45299 0.54416 0.87387 0.0
C2477 C 0.43381 0.56623 0.8309 0.0
C2478 C 0.44089 0.564 0.85089 0.0
C2479 C 0.46228 0.55631 0.90836 0.0
C2480 C 0.45472 0.55909 0.88866 0.0
H2481 H 0.39604 0.57773 0.80452 0.0
H2482 H 0.40999 0.57861 0.8378 0.0
H2483 H 0.44485 0.53467 0.84426 0.0
H2484 H 0.4958 0.53579 0.93155 0.0
H2485 H 0.48477 0.54273 0.89959 0.0
C2486 C 0.80339 0.22212 0.07027 0.0
C2487 C 0.80548 0.20267 0.06846 0.0
C2488 C 0.80064 0.23091 0.08787 0.0
C2489 C 0.78088 0.21809 0.13202 0.0
H2490 H 0.80675 0.27075 0.15268 0.0
C2491 C 0.75734 0.25835 0.1966 0.0
C2492 C 0.7721 0.26704 0.21129 0.0
C2493 C 0.76163 0.25143 0.17887 0.0
C2494 C 0.79941 0.25603 0.14707 0.0
H2495 H 0.80696 0.17749 0.08404 0.0
H2496 H 0.80201 0.19278 0.11458 0.0
H2497 H 0.81483 0.25683 0.1227 0.0
H2498 H 0.80295 0.27579 0.21858 0.0
H2499 H 0.81036 0.26407 0.18758 0.0
H2500 H 0.76538 0.21729 0.15628 0.0
C2501 C 0.80244 0.20119 0.10235 0.0
C2502 C 0.80398 0.2481 0.12988 0.0
C2503 C 0.80545 0.19249 0.08485 0.0
C2504 C 0.79122 0.26915 0.20762 0.0
C2505 C 0.79549 0.26252 0.18981 0.0
C2506 C 0.77612 0.22612 0.14903 0.0
C2507 C 0.79965 0.22037 0.10399 0.0
C2508 C 0.79486 0.22897 0.12223 0.0
C2509 C 0.78076 0.25332 0.17531 0.0
C2510 C 0.78539 0.24514 0.15683 0.0
H2511 H 0.80332 0.2304 0.05797 0.0
H2512 H 0.79849 0.2457 0.08866 0.0
H2513 H 0.77345 0.2034 0.1264 0.0
H2514 H 0.74247 0.25638 0.19896 0.0
H2515 H 0.74996 0.24453 0.16793 0.0
C2516 C 0.07595 0.491 0.33871 0.0
C2517 C 0.08 0.50728 0.32827 0.0
C2518 C 0.06802 0.4924 0.35587 0.0
C2519 C 0.04382 0.52485 0.38425 0.0
H2520 H 0.05755 0.49547 0.42577 0.0
C2521 C 0.0283 0.54108 0.46149 0.0
C2522 C 0.01779 0.52499 0.46922 0.0
C2523 C 0.03625 0.53841 0.44457 0.0
C2524 C 0.05358 0.5037 0.41424 0.0
H2525 H 0.07933 0.53789 0.32785 0.0
H2526 H 0.06644 0.54059 0.35788 0.0
H2527 H 0.07047 0.49167 0.39552 0.0
H2528 H 0.00797 0.49349 0.46593 0.0
H2529 H 0.02235 0.48879 0.43657 0.0
H2530 H 0.02751 0.53738 0.40333 0.0
C2531 C 0.06857 0.52648 0.35265 0.0
C2532 C 0.06085 0.50144 0.39683 0.0
C2533 C 0.07613 0.52498 0.3354 0.0
C2534 C 0.01592 0.50614 0.46016 0.0
C2535 C 0.0242 0.50344 0.44345 0.0
C2536 C 0.0369 0.52738 0.40174 0.0
C2537 C 0.06428 0.51021 0.36314 0.0
C2538 C 0.05612 0.51204 0.38158 0.0
C2539 C 0.03417 0.51958 0.43534 0.0
C2540 C 0.04173 0.51687 0.4169 0.0
H2541 H 0.07876 0.47716 0.33355 0.0
H2542 H 0.06468 0.47945 0.36333 0.0
H2543 H 0.03937 0.5329 0.37279 0.0
H2544 H 0.02994 0.55576 0.46822 0.0
H2545 H 0.04398 0.55108 0.43864 0.0
C2546 C 0.72044 0.84518 0.58298 0.0
C2547 C 0.71936 0.86445 0.58864 0.0
C2548 C 0.71645 0.83058 0.59519 0.0
C2549 C 0.69589 0.81677 0.63891 0.0
H2550 H 0.74125 0.79613 0.64951 0.0
C2551 C 0.71757 0.79125 0.71125 0.0
C2552 C 0.73078 0.77925 0.71265 0.0
C2553 C 0.71092 0.79629 0.69348 0.0
C2554 C 0.72814 0.80111 0.64648 0.0
H2555 H 0.71175 0.88312 0.61092 0.0
H2556 H 0.70478 0.85747 0.6323 0.0
H2557 H 0.7385 0.81518 0.62275 0.0
H2558 H 0.74585 0.76133 0.69672 0.0
H2559 H 0.73325 0.76898 0.66552 0.0
H2560 H 0.68556 0.80281 0.66278 0.0
C2561 C 0.70872 0.85377 0.61838 0.0
C2562 C 0.72665 0.8122 0.63113 0.0
C2563 C 0.71287 0.86847 0.60621 0.0
C2564 C 0.73583 0.77083 0.69595 0.0
C2565 C 0.72874 0.77539 0.67812 0.0
C2566 C 0.69719 0.8053 0.65412 0.0
C2567 C 0.71113 0.83488 0.61322 0.0
C2568 C 0.71082 0.82062 0.62755 0.0
C2569 C 0.71706 0.78906 0.67671 0.0
C2570 C 0.71366 0.79788 0.65851 0.0
H2571 H 0.72518 0.8415 0.56945 0.0
H2572 H 0.71827 0.81608 0.59085 0.0
H2573 H 0.68346 0.82301 0.63629 0.0
H2574 H 0.7136 0.79806 0.72398 0.0
H2575 H 0.70213 0.80698 0.69314 0.0
C2576 C 0.6708 0.44288 0.52379 0.0
C2577 C 0.68077 0.4418 0.5417 0.0
C2578 C 0.65613 0.45316 0.52219 0.0
C2579 C 0.63506 0.48941 0.54967 0.0
H2580 H 0.59265 0.47168 0.50947 0.0
C2581 C 0.57525 0.53268 0.53515 0.0
C2582 C 0.55681 0.52202 0.52773 0.0
C2583 C 0.59061 0.5233 0.53745 0.0
C2584 C 0.60418 0.47675 0.52102 0.0
H2585 H 0.68291 0.45032 0.57202 0.0
H2586 H 0.65685 0.46734 0.56942 0.0
H2587 H 0.61811 0.45423 0.51252 0.0
H2588 H 0.54003 0.49315 0.51705 0.0
H2589 H 0.56609 0.4767 0.52235 0.0
H2590 H 0.6205 0.51131 0.55878 0.0
C2591 C 0.6607 0.46095 0.55644 0.0
C2592 C 0.61912 0.46689 0.52253 0.0
C2593 C 0.67559 0.451 0.55798 0.0
C2594 C 0.55396 0.50177 0.52316 0.0
C2595 C 0.56911 0.49237 0.52581 0.0
C2596 C 0.61992 0.49909 0.54835 0.0
C2597 C 0.65077 0.46232 0.5385 0.0
C2598 C 0.63484 0.47303 0.53686 0.0
C2599 C 0.5878 0.50299 0.53259 0.0
C2600 C 0.60419 0.49288 0.53403 0.0
H2601 H 0.67457 0.43611 0.51095 0.0
H2602 H 0.64922 0.45413 0.50806 0.0
H2603 H 0.647 0.49493 0.56072 0.0
H2604 H 0.57793 0.54834 0.53861 0.0
H2605 H 0.60476 0.53212 0.54249 0.0
C2606 C 0.20007 0.10477 0.47096 0.0
C2607 C 0.20518 0.12524 0.47191 0.0
C2608 C 0.18104 0.09515 0.47121 0.0
C2609 C 0.13097 0.10257 0.47005 0.0
H2610 H 0.12634 0.06109 0.50355 0.0
C2611 C 0.07411 0.05992 0.52025 0.0
C2612 C 0.05689 0.05762 0.50811 0.0
C2613 C 0.09165 0.06715 0.51375 0.0
C2614 C 0.12735 0.07275 0.49429 0.0
H2615 H 0.19423 0.15162 0.47262 0.0
H2616 H 0.16118 0.13499 0.47374 0.0
H2617 H 0.15745 0.07556 0.49477 0.0
H2618 H 0.04456 0.06087 0.4795 0.0
H2619 H 0.07515 0.07292 0.46801 0.0
H2620 H 0.10098 0.10052 0.4706 0.0
C2621 C 0.1717 0.12622 0.47239 0.0
C2622 C 0.1452 0.08084 0.48892 0.0
C2623 C 0.19071 0.13581 0.47178 0.0
C2624 C 0.05758 0.06258 0.48928 0.0
C2625 C 0.07513 0.0696 0.4827 0.0
C2626 C 0.11311 0.09462 0.47562 0.0
C2627 C 0.16675 0.10582 0.47282 0.0
C2628 C 0.14732 0.09601 0.47689 0.0
C2629 C 0.09241 0.07202 0.49486 0.0
C2630 C 0.11113 0.07978 0.48803 0.0
H2631 H 0.21092 0.09622 0.47082 0.0
H2632 H 0.17768 0.07938 0.47092 0.0
H2633 H 0.13197 0.11406 0.46059 0.0
H2634 H 0.07407 0.0564 0.53489 0.0
H2635 H 0.10461 0.0692 0.52367 0.0
C2636 C 0.20353 0.95197 0.76655 0.0
C2637 C 0.19572 0.95852 0.78251 0.0
C2638 C 0.21216 0.93601 0.76711 0.0
C2639 C 0.23796 0.90952 0.79848 0.0
H2640 H 0.22166 0.86646 0.75869 0.0
C2641 C 0.27073 0.84126 0.7993 0.0
C2642 C 0.27274 0.83187 0.78171 0.0
C2643 C 0.26069 0.85621 0.79999 0.0
C2644 C 0.22667 0.87847 0.76975 0.0
H2645 H 0.19107 0.95362 0.81167 0.0
H2646 H 0.20683 0.92596 0.81284 0.0
H2647 H 0.2056 0.89362 0.75881 0.0
H2648 H 0.26635 0.83092 0.75107 0.0
H2649 H 0.24958 0.85755 0.75208 0.0
H2650 H 0.2596 0.89503 0.809 0.0
C2651 C 0.20598 0.93313 0.79984 0.0
C2652 C 0.21731 0.89395 0.76988 0.0
C2653 C 0.19694 0.94889 0.79915 0.0
C2654 C 0.26484 0.83787 0.76481 0.0
C2655 C 0.25508 0.85303 0.76545 0.0
C2656 C 0.24759 0.89422 0.79816 0.0
C2657 C 0.21353 0.92646 0.78376 0.0
C2658 C 0.22291 0.90965 0.7842 0.0
C2659 C 0.25273 0.86237 0.78306 0.0
C2660 C 0.24216 0.87849 0.78373 0.0
H2661 H 0.20275 0.95902 0.75348 0.0
H2662 H 0.21799 0.93124 0.75456 0.0
H2663 H 0.24266 0.92156 0.80957 0.0
H2664 H 0.27651 0.8367 0.81255 0.0
H2665 H 0.25892 0.86267 0.81384 0.0
C2666 C 0.29096 0.92338 0.02066 0.0
C2667 C 0.27734 0.93166 0.02908 0.0
C2668 C 0.30888 0.93479 0.01863 0.0
C2669 C 0.34174 0.96359 0.00653 0.0
H2670 H 0.36967 0.00076 0.0484 0.0
C2671 C 0.41682 0.00985 0.00082 0.0
C2672 C 0.43054 0.01161 0.01686 0.0
C2673 C 0.39744 0.00234 0.00208 0.0
C2674 C 0.36208 0.99039 0.0366 0.0
H2675 H 0.27192 0.95857 0.04187 0.0
H2676 H 0.30329 0.9786 0.03816 0.0
H2677 H 0.33709 0.98305 0.05084 0.0
H2678 H 0.43485 0.00741 0.04688 0.0
H2679 H 0.40107 0.99391 0.04904 0.0
H2680 H 0.36688 0.97024 0.99259 0.0
C2681 C 0.30008 0.96318 0.0333 0.0
C2682 C 0.34332 0.98041 0.0379 0.0
C2683 C 0.28207 0.95172 0.03534 0.0
C2684 C 0.42453 0.00619 0.0343 0.0
C2685 C 0.40515 0.99859 0.03555 0.0
C2686 C 0.36047 0.97351 0.00524 0.0
C2687 C 0.3137 0.95482 0.02492 0.0
C2688 C 0.33303 0.96666 0.023 0.0
C2689 C 0.39138 0.99634 0.01939 0.0
C2690 C 0.37098 0.98685 0.02035 0.0
H2691 H 0.28789 0.90798 0.01572 0.0
H2692 H 0.31911 0.92777 0.01243 0.0
H2693 H 0.33414 0.95332 0.99466 0.0
H2694 H 0.42108 0.01406 0.98723 0.0
H2695 H 0.3872 0.00113 0.98943 0.0
C2696 C 0.86658 0.63211 0.76579 0.0
C2697 C 0.86609 0.62323 0.74725 0.0
C2698 C 0.85646 0.64674 0.76899 0.0
C2699 C 0.8361 0.68397 0.74597 0.0
H2700 H 0.79992 0.67694 0.78303 0.0
C2701 C 0.77954 0.73085 0.74981 0.0
C2702 C 0.77363 0.73515 0.76755 0.0
C2703 C 0.79177 0.71801 0.74793 0.0
C2704 C 0.8102 0.67943 0.77288 0.0
H2705 H 0.8551 0.62312 0.71749 0.0
H2706 H 0.8379 0.64896 0.72305 0.0
H2707 H 0.82026 0.65374 0.77911 0.0
H2708 H 0.77618 0.72993 0.79737 0.0
H2709 H 0.79804 0.70813 0.79437 0.0
H2710 H 0.82649 0.70985 0.73994 0.0
C2711 C 0.84594 0.64449 0.7351 0.0
C2712 C 0.8218 0.66603 0.77061 0.0
C2713 C 0.85571 0.62963 0.73195 0.0
C2714 C 0.78034 0.72662 0.78346 0.0
C2715 C 0.79282 0.71404 0.78167 0.0
C2716 C 0.82474 0.69758 0.74846 0.0
C2717 C 0.84602 0.65304 0.75366 0.0
C2718 C 0.83469 0.66803 0.75697 0.0
C2719 C 0.79861 0.70939 0.76384 0.0
C2720 C 0.81142 0.69539 0.76178 0.0
H2721 H 0.8744 0.62745 0.77787 0.0
H2722 H 0.85682 0.65316 0.78344 0.0
H2723 H 0.84606 0.68595 0.73547 0.0
H2724 H 0.77444 0.73717 0.7373 0.0
H2725 H 0.79555 0.7146 0.73388 0.0
C2726 C 0.82379 0.61854 0.99742 0.0
C2727 C 0.80897 0.61498 0.00896 0.0
C2728 C 0.83935 0.60969 0.00028 0.0
C2729 C 0.85532 0.56918 0.02313 0.0
H2730 H 0.90597 0.60104 0.02112 0.0
C2731 C 0.92314 0.53783 0.02262 0.0
C2732 C 0.94056 0.54948 0.03166 0.0
C2733 C 0.90649 0.54505 0.02159 0.0
C2734 C 0.89195 0.59201 0.02198 0.0
H2735 H 0.79863 0.59901 0.03225 0.0
H2736 H 0.82579 0.58383 0.03736 0.0
H2737 H 0.87805 0.61498 0.01494 0.0
H2738 H 0.95415 0.57725 0.04771 0.0
H2739 H 0.92496 0.58974 0.04631 0.0
H2740 H 0.8693 0.54632 0.03055 0.0
C2741 C 0.82533 0.59323 0.02595 0.0
C2742 C 0.87592 0.59991 0.01812 0.0
C2743 C 0.80979 0.60203 0.02307 0.0
C2744 C 0.94088 0.56801 0.04061 0.0
C2745 C 0.92421 0.57521 0.03964 0.0
C2746 C 0.87138 0.56128 0.02703 0.0
C2747 C 0.84041 0.59713 0.01475 0.0
C2748 C 0.85741 0.58857 0.01858 0.0
C2749 C 0.90695 0.56403 0.02963 0.0
C2750 C 0.88988 0.5726 0.02646 0.0
H2751 H 0.82353 0.62841 0.9864 0.0
H2752 H 0.8506 0.61274 0.99121 0.0
H2753 H 0.84125 0.56 0.02347 0.0
H2754 H 0.92256 0.5235 0.01556 0.0
H2755 H 0.89348 0.53611 0.01367 0.0
C2756 C 0.20653 0.06793 0.79392 0.0
C2757 C 0.18718 0.06279 0.79691 0.0
C2758 C 0.21595 0.0876 0.79457 0.0
C2759 C 0.22805 0.12865 0.78316 0.0
H2760 H 0.21407 0.16932 0.81484 0.0
C2761 C 0.24381 0.20854 0.76571 0.0
C2762 C 0.24795 0.22371 0.78062 0.0
C2763 C 0.23829 0.18908 0.76945 0.0
C2764 C 0.21841 0.1582 0.80606 0.0
H2765 H 0.16275 0.07439 0.80342 0.0
H2766 H 0.17887 0.10841 0.80397 0.0
H2767 H 0.20183 0.13525 0.81944 0.0
H2768 H 0.24984 0.23019 0.81128 0.0
H2769 H 0.24069 0.19614 0.81789 0.0
H2770 H 0.24502 0.15157 0.77012 0.0
C2771 C 0.18701 0.09738 0.80157 0.0
C2772 C 0.21113 0.13858 0.80852 0.0
C2773 C 0.17768 0.07778 0.80113 0.0
C2774 C 0.24666 0.21888 0.79944 0.0
C2775 C 0.24131 0.19933 0.80321 0.0
C2776 C 0.23548 0.14826 0.78085 0.0
C2777 C 0.2062 0.1026 0.79802 0.0
C2778 C 0.21552 0.12351 0.79682 0.0
C2779 C 0.23694 0.18415 0.78824 0.0
C2780 C 0.23044 0.16332 0.79197 0.0
H2781 H 0.21432 0.05677 0.79076 0.0
H2782 H 0.23083 0.091 0.79214 0.0
H2783 H 0.23166 0.11755 0.77373 0.0
H2784 H 0.24446 0.21168 0.75101 0.0
H2785 H 0.23464 0.17792 0.75748 0.0
C2786 C 0.34566 0.01906 0.2465 0.0
C2787 C 0.36545 0.021 0.24611 0.0
C2788 C 0.33372 0.00062 0.24702 0.0
C2789 C 0.3292 0.94923 0.23306 0.0
H2790 H 0.30157 0.93797 0.27649 0.0
C2791 C 0.30418 0.87092 0.25138 0.0
C2792 C 0.28742 0.86565 0.25997 0.0
C2793 C 0.3112 0.89029 0.24818 0.0
C2794 C 0.30881 0.9409 0.26403 0.0
H2795 H 0.3882 0.00522 0.2456 0.0
H2796 H 0.36728 0.97308 0.24592 0.0
H2797 H 0.31817 0.9715 0.27339 0.0
H2798 H 0.26453 0.87628 0.27161 0.0
H2799 H 0.27649 0.91025 0.26551 0.0
H2800 H 0.3199 0.91889 0.22348 0.0
C2801 C 0.36107 0.98581 0.24606 0.0
C2802 C 0.31836 0.9601 0.26233 0.0
C2803 C 0.37303 0.0042 0.24598 0.0
C2804 C 0.27755 0.88004 0.26503 0.0
C2805 C 0.28447 0.89948 0.26162 0.0
C2806 C 0.31942 0.93015 0.23455 0.0
C2807 C 0.34136 0.98387 0.24665 0.0
C2808 C 0.32906 0.96427 0.24711 0.0
C2809 C 0.30147 0.90486 0.25324 0.0
C2810 C 0.3096 0.9256 0.25038 0.0
H2811 H 0.33945 0.03178 0.24667 0.0
H2812 H 0.31854 0.99941 0.24748 0.0
H2813 H 0.3372 0.95221 0.22108 0.0
H2814 H 0.31213 0.86012 0.24744 0.0
H2815 H 0.32456 0.89386 0.24213 0.0
C2816 C 0.51193 0.32226 0.60596 0.0
C2817 C 0.5007 0.3187 0.62092 0.0
C2818 C 0.51057 0.33753 0.5948 0.0
C2819 C 0.48056 0.37239 0.58138 0.0
H2820 H 0.52864 0.40249 0.56901 0.0
C2821 C 0.48498 0.43592 0.5326 0.0
C2822 C 0.49946 0.45265 0.53885 0.0
C2823 C 0.4844 0.41873 0.54159 0.0
C2824 C 0.51508 0.39432 0.57239 0.0
H2825 H 0.47886 0.32815 0.63562 0.0
H2826 H 0.47675 0.35526 0.61631 0.0
H2827 H 0.52861 0.37449 0.58707 0.0
H2828 H 0.52468 0.46459 0.55923 0.0
H2829 H 0.52361 0.43489 0.57491 0.0
H2830 H 0.46717 0.39279 0.56715 0.0
C2831 C 0.48644 0.346 0.61307 0.0
C2832 C 0.51503 0.37808 0.58258 0.0
C2833 C 0.48772 0.33055 0.62421 0.0
C2834 C 0.5134 0.45188 0.55405 0.0
C2835 C 0.51284 0.4348 0.56298 0.0
C2836 C 0.48062 0.38873 0.57118 0.0
C2837 C 0.49805 0.34981 0.59838 0.0
C2838 C 0.4978 0.36693 0.58726 0.0
C2839 C 0.49834 0.41801 0.5569 0.0
C2840 C 0.49792 0.39997 0.56672 0.0
H2841 H 0.5219 0.31326 0.60287 0.0
H2842 H 0.51941 0.33975 0.58336 0.0
H2843 H 0.46702 0.36402 0.58459 0.0
H2844 H 0.47404 0.43618 0.52093 0.0
H2845 H 0.47315 0.40599 0.53646 0.0
C2846 C 0.46374 0.77553 0.34203 0.0
C2847 C 0.47726 0.79111 0.33673 0.0
C2848 C 0.44457 0.77174 0.33386 0.0
C2849 C 0.41244 0.78355 0.29354 0.0
H2850 H 0.37375 0.77211 0.3277 0.0
C2851 C 0.33562 0.7951 0.27664 0.0
C2852 C 0.32042 0.7808 0.28132 0.0
C2853 C 0.35461 0.79413 0.28203 0.0
C2854 C 0.38436 0.77504 0.31791 0.0
H2855 H 0.48133 0.8146 0.31831 0.0
H2856 H 0.44806 0.80827 0.30443 0.0
H2857 H 0.40722 0.77404 0.33947 0.0
H2858 H 0.31333 0.75415 0.2952 0.0
H2859 H 0.3465 0.75257 0.30466 0.0
H2860 H 0.38955 0.78518 0.27217 0.0
C2861 C 0.4522 0.79872 0.31462 0.0
C2862 C 0.40356 0.77608 0.32464 0.0
C2863 C 0.47132 0.80244 0.32271 0.0
C2864 C 0.32467 0.76539 0.2913 0.0
C2865 C 0.34368 0.76453 0.29684 0.0
C2866 C 0.39325 0.78265 0.28687 0.0
C2867 C 0.4385 0.78348 0.32025 0.0
C2868 C 0.41789 0.78063 0.31261 0.0
C2869 C 0.35885 0.77895 0.29237 0.0
C2870 C 0.37904 0.77863 0.29905 0.0
H2871 H 0.46788 0.76648 0.35275 0.0
H2872 H 0.43447 0.7597 0.33832 0.0
H2873 H 0.42302 0.7867 0.28376 0.0
H2874 H 0.33286 0.80717 0.26896 0.0
H2875 H 0.366 0.80558 0.27855 0.0
C2876 C 0.99303 0.6963 0.14135 0.0
C2877 C 0.98746 0.71184 0.13264 0.0
C2878 C 0.99435 0.67947 0.13029 0.0
C2879 C 0.99926 0.66324 0.08012 0.0
H2880 H 0.9949 0.61274 0.09987 0.0
C2881 C 0.00572 0.59322 0.03537 0.0
C2882 C 0.01993 0.5843 0.04345 0.0
C2883 C 0.99992 0.60788 0.04607 0.0
C2884 C 0.99613 0.62679 0.09422 0.0
H2885 H 0.97752 0.72142 0.10577 0.0
H2886 H 0.97864 0.69167 0.08658 0.0
H2887 H 0.98647 0.63942 0.11867 0.0
H2888 H 0.03904 0.58333 0.06897 0.0
H2889 H 0.02858 0.6088 0.08788 0.0
H2890 H 0.00848 0.65028 0.05548 0.0
C2891 C 0.98292 0.69272 0.10182 0.0
C2892 C 0.99143 0.64214 0.10501 0.0
C2893 C 0.98206 0.70973 0.11283 0.0
C2894 C 0.02812 0.5901 0.06243 0.0
C2895 C 0.02205 0.6045 0.07326 0.0
C2896 C 0.00356 0.64778 0.06921 0.0
C2897 C 0.98973 0.67761 0.11028 0.0
C2898 C 0.99319 0.6607 0.09824 0.0
C2899 C 0.008 0.61361 0.06512 0.0
C2900 C 0.0023 0.62953 0.07628 0.0
H2901 H 0.99744 0.69761 0.15659 0.0
H2902 H 0.99987 0.66836 0.13741 0.0
H2903 H 0.00129 0.67733 0.07452 0.0
H2904 H 0.99922 0.58896 0.02073 0.0
H2905 H 0.98903 0.61468 0.03953 0.0
C2906 C 0.07425 0.26526 0.82308 0.0
C2907 C 0.07262 0.27966 0.83724 0.0
C2908 C 0.09157 0.26581 0.81574 0.0
C2909 C 0.13814 0.29801 0.81055 0.0
H2910 H 0.15315 0.24872 0.80164 0.0
C2911 C 0.21119 0.2927 0.78527 0.0
C2912 C 0.21062 0.27756 0.771 0.0
C2913 C 0.19504 0.29345 0.79445 0.0
C2914 C 0.1491 0.2626 0.80389 0.0
H2915 H 0.08788 0.3062 0.85454 0.0
H2916 H 0.11829 0.30711 0.84174 0.0
H2917 H 0.12373 0.24944 0.81541 0.0
H2918 H 0.19279 0.25144 0.75504 0.0
H2919 H 0.16456 0.25281 0.77082 0.0
H2920 H 0.16355 0.31112 0.79889 0.0
C2921 C 0.10606 0.29545 0.83624 0.0
C2922 C 0.13221 0.26301 0.81178 0.0
C2923 C 0.08866 0.2949 0.84361 0.0
C2924 C 0.19364 0.26323 0.76605 0.0
C2925 C 0.17752 0.26396 0.7752 0.0
C2926 C 0.15509 0.2976 0.80265 0.0
C2927 C 0.10777 0.28074 0.82238 0.0
C2928 C 0.12635 0.28067 0.81495 0.0
C2929 C 0.17799 0.27907 0.78951 0.0
C2930 C 0.16063 0.27983 0.79898 0.0
H2931 H 0.06217 0.25337 0.81774 0.0
H2932 H 0.09224 0.25448 0.8048 0.0
H2933 H 0.13398 0.31184 0.81269 0.0
H2934 H 0.22408 0.30404 0.78924 0.0
H2935 H 0.19595 0.3052 0.80551 0.0
C2936 C 0.55452 0.72696 0.97824 0.0
C2937 C 0.54091 0.73664 0.97021 0.0
C2938 C 0.54874 0.70838 0.9841 0.0
C2939 C 0.51053 0.67584 0.00193 0.0
H2940 H 0.53375 0.63474 0.9824 0.0
C2941 C 0.51305 0.60415 0.03662 0.0
C2942 C 0.50818 0.5869 0.02421 0.0
C2943 C 0.51432 0.62227 0.02939 0.0
C2944 C 0.52704 0.64604 0.98784 0.0
H2945 H 0.51059 0.73473 0.96233 0.0
H2946 H 0.50042 0.7022 0.97314 0.0
H2947 H 0.54144 0.66701 0.9708 0.0
H2948 H 0.50158 0.57501 0.99471 0.0
H2949 H 0.50376 0.60654 0.98194 0.0
H2950 H 0.49666 0.65497 0.0195 0.0
C2951 C 0.51555 0.70903 0.97465 0.0
C2952 C 0.53151 0.66446 0.9813 0.0
C2953 C 0.52136 0.72753 0.96843 0.0
C2954 C 0.50458 0.58799 0.00454 0.0
C2955 C 0.50612 0.60605 0.99726 0.0
C2956 C 0.50631 0.65746 0.00875 0.0
C2957 C 0.52924 0.69928 0.98233 0.0
C2958 C 0.52341 0.67952 0.9884 0.0
C2959 C 0.51117 0.62335 0.00962 0.0
C2960 C 0.51463 0.64247 0.00181 0.0
H2961 H 0.56969 0.7336 0.97975 0.0
H2962 H 0.55951 0.70113 0.99012 0.0
H2963 H 0.50421 0.68733 0.00764 0.0
H2964 H 0.51606 0.60363 0.05188 0.0
H2965 H 0.51847 0.63544 0.03918 0.0
C2966 C 0.07966 0.80227 0.6495 0.0
C2967 C 0.0616 0.79906 0.65596 0.0
C2968 C 0.09619 0.8042 0.66236 0.0
C2969 C 0.13029 0.81564 0.69266 0.0
H2970 H 0.12749 0.78155 0.73334 0.0
C2971 C 0.198 0.81081 0.74155 0.0
C2972 C 0.19936 0.79187 0.74544 0.0
C2973 C 0.18063 0.81427 0.73343 0.0
C2974 C 0.12856 0.79111 0.72201 0.0
H2975 H 0.04668 0.79623 0.681 0.0
H2976 H 0.07557 0.80031 0.70354 0.0
H2977 H 0.09849 0.78271 0.71309 0.0
H2978 H 0.18386 0.76179 0.74437 0.0
H2979 H 0.15381 0.76756 0.72955 0.0
H2980 H 0.16056 0.82293 0.70071 0.0
C2981 C 0.07697 0.80069 0.68849 0.0
C2982 C 0.11184 0.79202 0.71055 0.0
C2983 C 0.06042 0.79842 0.67558 0.0
C2984 C 0.1831 0.77654 0.74154 0.0
C2985 C 0.16584 0.77992 0.7332 0.0
C2986 C 0.14705 0.8145 0.70394 0.0
C2987 C 0.09505 0.8033 0.68201 0.0
C2988 C 0.11254 0.80398 0.69546 0.0
C2989 C 0.16442 0.79879 0.72885 0.0
C2990 C 0.14643 0.80188 0.71848 0.0
H2991 H 0.08099 0.80275 0.63444 0.0
H2992 H 0.10979 0.80581 0.65677 0.0
H2993 H 0.13132 0.82534 0.68145 0.0
H2994 H 0.21038 0.8229 0.74463 0.0
H2995 H 0.17997 0.82903 0.73058 0.0
C2996 C 0.01512 0.33502 0.48858 0.0
C2997 C 0.0259 0.3325 0.47356 0.0
C2998 C 0.01765 0.35323 0.49882 0.0
C2999 C 0.04848 0.40301 0.5084 0.0
H3000 H 0.99994 0.41796 0.51081 0.0
C3001 C 0.0407 0.48284 0.51499 0.0
C3002 C 0.02564 0.4875 0.52412 0.0
C3003 C 0.043 0.46364 0.51314 0.0
C3004 C 0.01364 0.41398 0.51073 0.0
H3005 H 0.04863 0.34674 0.45824 0.0
H3006 H 0.05285 0.37881 0.476 0.0
H3007 H 0.00022 0.38468 0.49975 0.0
H3008 H 0.0021 0.47605 0.53977 0.0
H3009 H 0.00641 0.44261 0.53698 0.0
H3010 H 0.06187 0.43258 0.51902 0.0
C3011 C 0.04256 0.3666 0.47994 0.0
C3012 C 0.0138 0.39486 0.50432 0.0
C3013 C 0.04007 0.34829 0.46971 0.0
C3014 C 0.01367 0.47284 0.53242 0.0
C3015 C 0.01611 0.45368 0.53075 0.0
C3016 C 0.04833 0.4222 0.51495 0.0
C3017 C 0.03094 0.36935 0.4942 0.0
C3018 C 0.03119 0.38923 0.5028 0.0
C3019 C 0.03039 0.44874 0.52054 0.0
C3020 C 0.03088 0.42797 0.51587 0.0
H3021 H 0.00427 0.32304 0.4921 0.0
H3022 H 0.00875 0.35484 0.50997 0.0
H3023 H 0.06209 0.39901 0.50753 0.0
H3024 H 0.05016 0.49381 0.5084 0.0
H3025 H 0.05403 0.46035 0.50501 0.0
C3026 C 0.44978 0.30287 0.15212 0.0
C3027 C 0.45065 0.28349 0.14679 0.0
C3028 C 0.43774 0.3069 0.16541 0.0
C3029 C 0.41327 0.28448 0.20423 0.0
H3030 H 0.38182 0.32248 0.19799 0.0
C3031 C 0.34582 0.2826 0.24035 0.0
C3032 C 0.34212 0.30022 0.24781 0.0
C3033 C 0.36146 0.28267 0.23035 0.0
C3034 C 0.3908 0.31208 0.20009 0.0
H3035 H 0.43892 0.25312 0.15042 0.0
H3036 H 0.41773 0.26009 0.17316 0.0
H3037 H 0.40394 0.31852 0.17484 0.0
H3038 H 0.35195 0.33171 0.2512 0.0
H3039 H 0.37939 0.33187 0.23332 0.0
H3040 H 0.39967 0.27756 0.22906 0.0
C3041 C 0.42669 0.27222 0.16754 0.0
C3042 C 0.40342 0.30979 0.18683 0.0
C3043 C 0.43872 0.26822 0.15437 0.0
C3044 C 0.35461 0.31794 0.24561 0.0
C3045 C 0.37018 0.31804 0.23532 0.0
C3046 C 0.40063 0.2867 0.21738 0.0
C3047 C 0.42638 0.2916 0.17356 0.0
C3048 C 0.4144 0.29558 0.1885 0.0
C3049 C 0.37359 0.30038 0.22743 0.0
C3050 C 0.38894 0.30018 0.21518 0.0
H3051 H 0.45886 0.31494 0.14655 0.0
H3052 H 0.4378 0.32198 0.16978 0.0
H3053 H 0.42192 0.27377 0.20619 0.0
H3054 H 0.33636 0.26874 0.24187 0.0
H3055 H 0.36362 0.26886 0.22425 0.0
C3056 C 0.58728 0.5165 0.33513 0.0
C3057 C 0.60135 0.50569 0.33304 0.0
C3058 C 0.57501 0.51283 0.34905 0.0
C3059 C 0.57083 0.4918 0.39496 0.0
H3060 H 0.51854 0.49796 0.38491 0.0
C3061 C 0.52146 0.48838 0.45426 0.0
C3062 C 0.51359 0.50495 0.4563 0.0
C3063 C 0.52954 0.48423 0.43774 0.0
C3064 C 0.53308 0.49613 0.38792 0.0
H3065 H 0.61346 0.48237 0.34388 0.0
H3066 H 0.59182 0.4758 0.36824 0.0
H3067 H 0.53823 0.49859 0.35891 0.0
H3068 H 0.50679 0.52931 0.44207 0.0
H3069 H 0.52057 0.52191 0.41322 0.0
H3070 H 0.56571 0.4897 0.42407 0.0
C3071 C 0.59044 0.48728 0.35916 0.0
C3072 C 0.54441 0.49657 0.37305 0.0
C3073 C 0.6028 0.491 0.34518 0.0
C3074 C 0.51277 0.51646 0.44096 0.0
C3075 C 0.52061 0.51217 0.42438 0.0
C3076 C 0.55943 0.49122 0.40982 0.0
C3077 C 0.57639 0.49818 0.36125 0.0
C3078 C 0.56361 0.495 0.37649 0.0
C3079 C 0.52964 0.49639 0.42284 0.0
C3080 C 0.5406 0.49392 0.40655 0.0
H3081 H 0.58578 0.52799 0.32609 0.0
H3082 H 0.56468 0.52182 0.35049 0.0
H3083 H 0.58558 0.4907 0.39819 0.0
H3084 H 0.52242 0.47928 0.46587 0.0
H3085 H 0.53625 0.47187 0.43687 0.0
C3086 C 0.2269 0.87462 0.10185 0.0
C3087 C 0.22395 0.86432 0.08361 0.0
C3088 C 0.22959 0.8651 0.11829 0.0
C3089 C 0.24306 0.81981 0.13395 0.0
H3090 H 0.22644 0.83631 0.18156 0.0
C3091 C 0.24529 0.7769 0.20075 0.0
C3092 C 0.25269 0.78789 0.21833 0.0
C3093 C 0.24183 0.78617 0.18432 0.0
C3094 C 0.2313 0.83165 0.1684 0.0
H3095 H 0.22069 0.83568 0.06845 0.0
H3096 H 0.22462 0.81896 0.09703 0.0
H3097 H 0.21919 0.85203 0.15294 0.0
H3098 H 0.26137 0.81709 0.23259 0.0
H3099 H 0.25546 0.83345 0.20396 0.0
H3100 H 0.25478 0.79912 0.14944 0.0
C3101 C 0.22552 0.83454 0.0987 0.0
C3102 C 0.22719 0.84069 0.15196 0.0
C3103 C 0.22307 0.84412 0.08226 0.0
C3104 C 0.25633 0.80833 0.21919 0.0
C3105 C 0.25261 0.81764 0.20282 0.0
C3106 C 0.24695 0.81061 0.15034 0.0
C3107 C 0.22917 0.84495 0.11697 0.0
C3108 C 0.23308 0.83497 0.13448 0.0
C3109 C 0.24534 0.80666 0.18518 0.0
C3110 C 0.24118 0.81647 0.16777 0.0
H3111 H 0.22782 0.89022 0.10345 0.0
H3112 H 0.23262 0.87373 0.132 0.0
H3113 H 0.24824 0.81522 0.12096 0.0
H3114 H 0.24216 0.76108 0.19971 0.0
H3115 H 0.23603 0.77728 0.171 0.0
C3116 C 0.96598 0.56946 0.81199 0.0
C3117 C 0.95007 0.57783 0.80841 0.0
C3118 C 0.97427 0.56898 0.83067 0.0
C3119 C 0.9752 0.5884 0.88139 0.0
H3120 H 0.98961 0.53979 0.89169 0.0
C3121 C 0.98595 0.56365 0.95727 0.0
C3122 C 0.00131 0.55465 0.96177 0.0
C3123 C 0.98154 0.56837 0.93872 0.0
C3124 C 0.98591 0.55357 0.88903 0.0
H3125 H 0.93081 0.59295 0.8216 0.0
H3126 H 0.94494 0.5917 0.85429 0.0
H3127 H 0.97864 0.54488 0.85917 0.0
H3128 H 0.02426 0.54386 0.9503 0.0
H3129 H 0.01645 0.55201 0.91786 0.0
H3130 H 0.98194 0.59671 0.91151 0.0
C3131 C 0.95128 0.58579 0.84265 0.0
C3132 C 0.97965 0.55654 0.87033 0.0
C3133 C 0.94312 0.58648 0.8239 0.0
C3134 C 0.01235 0.55079 0.94734 0.0
C3135 C 0.00781 0.55535 0.92872 0.0
C3136 C 0.98132 0.58534 0.90015 0.0
C3137 C 0.96669 0.57662 0.8463 0.0
C3138 C 0.97413 0.57397 0.86623 0.0
C3139 C 0.99226 0.56406 0.92418 0.0
C3140 C 0.98667 0.56784 0.90419 0.0
H3141 H 0.9718 0.56284 0.80035 0.0
H3142 H 0.98642 0.56227 0.83284 0.0
H3143 H 0.97134 0.60211 0.87878 0.0
H3144 H 0.97717 0.5669 0.96803 0.0
H3145 H 0.96936 0.57489 0.93565 0.0
C3146 C 0.26582 0.20461 0.54447 0.0
C3147 C 0.26993 0.18595 0.54294 0.0
C3148 C 0.26753 0.21508 0.56226 0.0
C3149 C 0.28975 0.21994 0.61178 0.0
H3150 H 0.24509 0.239 0.62316 0.0
C3151 C 0.27777 0.24318 0.68825 0.0
C3152 C 0.26809 0.25823 0.69113 0.0
C3153 C 0.27993 0.23633 0.66982 0.0
C3154 C 0.25785 0.23417 0.62013 0.0
H3155 H 0.27969 0.16394 0.55881 0.0
H3156 H 0.28275 0.18241 0.59003 0.0
H3157 H 0.24559 0.22335 0.59151 0.0
H3158 H 0.25382 0.27861 0.67735 0.0
H3159 H 0.25804 0.26705 0.64506 0.0
H3160 H 0.30207 0.23081 0.64038 0.0
C3161 C 0.27821 0.18883 0.57737 0.0
C3162 C 0.25808 0.22511 0.60202 0.0
C3163 C 0.27633 0.17823 0.55955 0.0
C3164 C 0.26117 0.26683 0.67541 0.0
C3165 C 0.26352 0.26014 0.65696 0.0
C3166 C 0.28962 0.22921 0.62987 0.0
C3167 C 0.27354 0.20721 0.57887 0.0
C3168 C 0.27392 0.21772 0.59777 0.0
C3169 C 0.27263 0.24458 0.65394 0.0
C3170 C 0.27355 0.23619 0.63432 0.0
H3171 H 0.26093 0.21102 0.53194 0.0
H3172 H 0.26401 0.22931 0.56306 0.0
H3173 H 0.30221 0.21452 0.60873 0.0
H3174 H 0.28324 0.23632 0.7002 0.0
H3175 H 0.28677 0.22415 0.66803 0.0
C3176 C 0.62431 0.50212 0.21611 0.0
C3177 C 0.61595 0.49955 0.23304 0.0
C3178 C 0.61284 0.50081 0.19864 0.0
C3179 C 0.58575 0.49118 0.16178 0.0
H3180 H 0.54135 0.51391 0.16313 0.0
C3181 C 0.53838 0.49876 0.09269 0.0
C3182 C 0.53233 0.51639 0.09201 0.0
C3183 C 0.54676 0.49389 0.10989 0.0
C3184 C 0.55375 0.5076 0.16246 0.0
H3185 H 0.58901 0.49232 0.24481 0.0
H3186 H 0.56901 0.48931 0.2143 0.0
H3187 H 0.55994 0.51044 0.1928 0.0
H3188 H 0.53 0.54266 0.1086 0.0
H3189 H 0.54509 0.53456 0.13843 0.0
H3190 H 0.5802 0.4895 0.13135 0.0
C3191 C 0.58442 0.49304 0.21453 0.0
C3192 C 0.56427 0.5053 0.17954 0.0
C3193 C 0.59589 0.49464 0.23203 0.0
C3194 C 0.53448 0.52892 0.10879 0.0
C3195 C 0.54301 0.52418 0.12592 0.0
C3196 C 0.57533 0.49368 0.14467 0.0
C3197 C 0.59273 0.49662 0.19767 0.0
C3198 C 0.58059 0.49734 0.17945 0.0
C3199 C 0.54939 0.50666 0.12669 0.0
C3200 C 0.5594 0.50226 0.1448 0.0
H3201 H 0.63973 0.50598 0.21644 0.0
H3202 H 0.6198 0.50391 0.18604 0.0
H3203 H 0.59803 0.48468 0.16113 0.0
H3204 H 0.53675 0.48879 0.07991 0.0
H3205 H 0.55122 0.48014 0.11 0.0
C3206 C 0.21585 0.84982 0.96129 0.0
C3207 C 0.22739 0.84691 0.97768 0.0
C3208 C 0.21784 0.84139 0.94324 0.0
C3209 C 0.25397 0.8235 0.91799 0.0
H3210 H 0.21156 0.80162 0.87862 0.0
C3211 C 0.26629 0.78709 0.84612 0.0
C3212 C 0.25561 0.79072 0.82949 0.0
C3213 C 0.26179 0.79258 0.86419 0.0
C3214 C 0.22359 0.80786 0.88939 0.0
H3215 H 0.24935 0.83202 0.988 0.0
H3216 H 0.25264 0.81728 0.95675 0.0
H3217 H 0.20521 0.81355 0.91005 0.0
H3218 H 0.23168 0.80288 0.81893 0.0
H3219 H 0.22408 0.8127 0.85034 0.0
H3220 H 0.27238 0.81823 0.89741 0.0
C3221 C 0.24232 0.82635 0.95773 0.0
C3222 C 0.21993 0.81468 0.90742 0.0
C3223 C 0.24031 0.83471 0.97569 0.0
C3224 C 0.24014 0.79969 0.8314 0.0
C3225 C 0.23571 0.80528 0.84947 0.0
C3226 C 0.25762 0.81679 0.89999 0.0
C3227 C 0.23145 0.82994 0.94121 0.0
C3228 C 0.23508 0.82253 0.92197 0.0
C3229 C 0.24659 0.80197 0.86613 0.0
C3230 C 0.24251 0.80883 0.88542 0.0
H3231 H 0.20579 0.85919 0.9623 0.0
H3232 H 0.20929 0.84452 0.93081 0.0
H3233 H 0.26602 0.82983 0.92872 0.0
H3234 H 0.27824 0.78013 0.84522 0.0
H3235 H 0.27029 0.78946 0.87666 0.0
C3236 C 0.92729 0.5834 0.68398 0.0
C3237 C 0.93646 0.58092 0.70192 0.0
C3238 C 0.9364 0.5822 0.66758 0.0
C3239 C 0.9837 0.58421 0.65081 0.0
H3240 H 0.9536 0.55381 0.60564 0.0
C3241 C 0.01335 0.57951 0.57826 0.0
C3242 C 0.0093 0.56108 0.56779 0.0
C3243 C 0.00439 0.58253 0.59444 0.0
C3244 C 0.96223 0.56226 0.61815 0.0
H3245 H 0.96271 0.57587 0.71666 0.0
H3246 H 0.97855 0.57381 0.68807 0.0
H3247 H 0.93845 0.55848 0.63432 0.0
H3248 H 0.99303 0.53125 0.5662 0.0
H3249 H 0.97716 0.5365 0.59437 0.0
H3250 H 0.00756 0.58769 0.63474 0.0
C3251 C 0.96434 0.57675 0.68671 0.0
C3252 C 0.9535 0.56513 0.63453 0.0
C3253 C 0.95521 0.57787 0.70311 0.0
C3254 C 0.99611 0.5457 0.57378 0.0
C3255 C 0.98707 0.54872 0.58993 0.0
C3256 C 0.99241 0.58141 0.6344 0.0
C3257 C 0.95492 0.57859 0.6687 0.0
C3258 C 0.96414 0.57608 0.65109 0.0
C3259 C 0.99115 0.56716 0.6005 0.0
C3260 C 0.9818 0.57034 0.61789 0.0
H3261 H 0.91288 0.58581 0.6825 0.0
H3262 H 0.92886 0.58399 0.65398 0.0
H3263 H 0.99228 0.59283 0.66326 0.0
H3264 H 0.02343 0.59165 0.57392 0.0
H3265 H 0.00769 0.59696 0.6021 0.0
C3266 C 0.29427 0.22164 0.45684 0.0
C3267 C 0.28632 0.20232 0.44928 0.0
C3268 C 0.30321 0.23523 0.44541 0.0
C3269 C 0.31712 0.24086 0.39601 0.0
H3270 H 0.30276 0.2905 0.4046 0.0
C3271 C 0.28705 0.29631 0.3477 0.0
C3272 C 0.29801 0.2957 0.33252 0.0
C3273 C 0.29268 0.28985 0.36508 0.0
C3274 C 0.30697 0.27676 0.402 0.0
H3275 H 0.28194 0.18157 0.42432 0.0
H3276 H 0.29634 0.20547 0.40379 0.0
H3277 H 0.29904 0.26772 0.42856 0.0
H3278 H 0.32456 0.28986 0.3243 0.0
H3279 H 0.33465 0.27892 0.35493 0.0
H3280 H 0.32313 0.24922 0.36851 0.0
C3281 C 0.29652 0.21018 0.41872 0.0
C3282 C 0.30511 0.2637 0.41593 0.0
C3283 C 0.2881 0.19645 0.43038 0.0
C3284 C 0.31574 0.29041 0.33571 0.0
C3285 C 0.32143 0.28394 0.3532 0.0
C3286 C 0.31862 0.2538 0.38188 0.0
C3287 C 0.3037 0.22993 0.42594 0.0
C3288 C 0.30939 0.2452 0.41281 0.0
C3289 C 0.30949 0.28272 0.36776 0.0
C3290 C 0.31272 0.27153 0.38438 0.0
H3291 H 0.2932 0.22635 0.47153 0.0
H3292 H 0.30908 0.25005 0.45172 0.0
H3293 H 0.32115 0.22705 0.3933 0.0
H3294 H 0.27339 0.3005 0.34577 0.0
H3295 H 0.28298 0.28904 0.37581 0.0
C3296 C 0.35283 0.62063 0.53223 0.0
C3297 C 0.35048 0.63501 0.51998 0.0
C3298 C 0.36646 0.60949 0.52988 0.0
C3299 C 0.41086 0.60779 0.50854 0.0
H3300 H 0.39607 0.55275 0.5156 0.0
C3301 C 0.45996 0.55241 0.49752 0.0
C3302 C 0.46008 0.53898 0.51124 0.0
C3303 C 0.44699 0.56477 0.49733 0.0
C3304 C 0.40052 0.56812 0.51373 0.0
H3305 H 0.36092 0.64914 0.49576 0.0
H3306 H 0.38479 0.62953 0.49159 0.0
H3307 H 0.37282 0.57305 0.51745 0.0
H3308 H 0.44707 0.52819 0.53572 0.0
H3309 H 0.42464 0.54957 0.53545 0.0
H3310 H 0.4387 0.60272 0.50494 0.0
C3311 C 0.37609 0.62699 0.5031 0.0
C3312 C 0.38716 0.57979 0.5148 0.0
C3313 C 0.36235 0.63817 0.50544 0.0
C3314 C 0.44718 0.53825 0.52483 0.0
C3315 C 0.43427 0.55047 0.52463 0.0
C3316 C 0.42429 0.59605 0.50746 0.0
C3317 C 0.37816 0.61236 0.51519 0.0
C3318 C 0.39221 0.59985 0.51258 0.0
C3319 C 0.43382 0.56376 0.51077 0.0
C3320 C 0.41937 0.57614 0.5104 0.0
H3321 H 0.34406 0.61785 0.54367 0.0
H3322 H 0.36789 0.59865 0.53971 0.0
H3323 H 0.41526 0.6232 0.50684 0.0
H3324 H 0.46961 0.55311 0.48674 0.0
H3325 H 0.44697 0.57475 0.4864 0.0
C3326 C 0.80534 0.95482 0.57487 0.0
C3327 C 0.79912 0.93632 0.56449 0.0
C3328 C 0.82429 0.96522 0.57553 0.0
C3329 C 0.87277 0.9599 0.56672 0.0
H3330 H 0.88017 0.01409 0.5561 0.0
C3331 C 0.94767 0.00682 0.56122 0.0
C3332 C 0.949 0.01771 0.54534 0.0
C3333 C 0.92981 0.99818 0.56628 0.0
C3334 C 0.87833 0.99898 0.55909 0.0
H3335 H 0.80813 0.91396 0.54726 0.0
H3336 H 0.84103 0.9321 0.54835 0.0
H3337 H 0.84827 0.99585 0.56024 0.0
H3338 H 0.93256 0.02849 0.52265 0.0
H3339 H 0.90144 0.0133 0.53142 0.0
H3340 H 0.90266 0.96278 0.56483 0.0
C3341 C 0.83133 0.93853 0.55609 0.0
C3342 C 0.86011 0.9886 0.56167 0.0
C3343 C 0.81242 0.92818 0.55537 0.0
C3344 C 0.93208 0.02021 0.53497 0.0
C3345 C 0.91422 0.0116 0.54007 0.0
C3346 C 0.89099 0.97029 0.56418 0.0
C3347 C 0.83741 0.95729 0.56592 0.0
C3348 C 0.85707 0.96884 0.56518 0.0
C3349 C 0.91289 0.00027 0.55562 0.0
C3350 C 0.8939 0.98985 0.56001 0.0
H3351 H 0.79548 0.96149 0.5821 0.0
H3352 H 0.82862 0.97956 0.58339 0.0
H3353 H 0.87091 0.94476 0.5696 0.0
H3354 H 0.96041 0.00459 0.56954 0.0
H3355 H 0.92925 0.98971 0.57847 0.0
C3356 C 0.82567 0.1098 0.22767 0.0
C3357 C 0.84087 0.10644 0.24019 0.0
C3358 C 0.81635 0.12461 0.2324 0.0
C3359 C 0.82186 0.17072 0.26294 0.0
H3360 H 0.76685 0.16083 0.249 0.0
C3361 C 0.7758 0.22756 0.27901 0.0
C3362 C 0.76279 0.22965 0.26349 0.0
C3363 C 0.78565 0.21242 0.27809 0.0
C3364 C 0.78223 0.16385 0.25292 0.0
H3365 H 0.85827 0.11612 0.26752 0.0
H3366 H 0.84181 0.14201 0.27588 0.0
H3367 H 0.78345 0.13453 0.24406 0.0
H3368 H 0.74964 0.21756 0.23496 0.0
H3369 H 0.76656 0.19115 0.2334 0.0
H3370 H 0.8205 0.20019 0.27168 0.0
C3371 C 0.83724 0.13322 0.26231 0.0
C3372 C 0.79176 0.14879 0.25005 0.0
C3373 C 0.84661 0.11834 0.25756 0.0
C3374 C 0.75955 0.21625 0.24718 0.0
C3375 C 0.76921 0.20109 0.2463 0.0
C3376 C 0.81227 0.18583 0.26589 0.0
C3377 C 0.82193 0.13645 0.2498 0.0
C3378 C 0.81174 0.15213 0.25461 0.0
C3379 C 0.78235 0.19896 0.26173 0.0
C3380 C 0.7924 0.18264 0.2605 0.0
H3381 H 0.82095 0.101 0.21412 0.0
H3382 H 0.80489 0.12692 0.22224 0.0
H3383 H 0.83727 0.17382 0.26651 0.0
H3384 H 0.77811 0.23737 0.29195 0.0
H3385 H 0.79555 0.21101 0.29027 0.0
C3386 C 0.73037 0.14118 0.99603 0.0
C3387 C 0.74581 0.13349 0.00342 0.0
C3388 C 0.71158 0.1303 0.99464 0.0
C3389 C 0.67305 0.10211 0.98618 0.0
H3390 H 0.65948 0.07391 0.02954 0.0
C3391 C 0.59486 0.06294 0.99158 0.0
C3392 C 0.58863 0.06492 0.00959 0.0
C3393 C 0.61431 0.06875 0.98952 0.0
C3394 C 0.663 0.08178 0.01735 0.0
H3395 H 0.75356 0.10786 0.01434 0.0
H3396 H 0.72068 0.08868 0.0116 0.0
H3397 H 0.6929 0.08876 0.02765 0.0
H3398 H 0.59772 0.07434 0.03958 0.0
H3399 H 0.63153 0.08494 0.03601 0.0
H3400 H 0.64307 0.09602 0.97637 0.0
C3401 C 0.72315 0.10334 0.00722 0.0
C3402 C 0.68223 0.09006 0.01612 0.0
C3403 C 0.74201 0.11428 0.00866 0.0
C3404 C 0.60216 0.07262 0.02553 0.0
C3405 C 0.62157 0.07853 0.02348 0.0
C3406 C 0.65381 0.09392 0.98745 0.0
C3407 C 0.70767 0.11135 0.00051 0.0
C3408 C 0.68748 0.10067 0.0007 0.0
C3409 C 0.62791 0.07676 0.00544 0.0
C3410 C 0.6485 0.08396 0.00324 0.0
H3411 H 0.73271 0.15592 0.99184 0.0
H3412 H 0.70006 0.13709 0.98966 0.0
H3413 H 0.67658 0.10991 0.97394 0.0
H3414 H 0.5847 0.05692 0.97907 0.0
H3415 H 0.61868 0.06693 0.97546 0.0
C3416 C 0.15715 0.43464 0.28191 0.0
C3417 C 0.15685 0.44578 0.26622 0.0
C3418 C 0.16853 0.42078 0.28306 0.0
C3419 C 0.21132 0.40926 0.26438 0.0
H3420 H 0.19447 0.35836 0.28216 0.0
C3421 C 0.2539 0.34962 0.25572 0.0
C3422 C 0.25629 0.33851 0.27109 0.0
C3423 C 0.24116 0.36205 0.25567 0.0
C3424 C 0.19945 0.3726 0.27735 0.0
H3425 H 0.1677 0.45051 0.2391 0.0
H3426 H 0.18716 0.42635 0.24099 0.0
H3427 H 0.17311 0.38115 0.28115 0.0
H3428 H 0.24731 0.33163 0.2985 0.0
H3429 H 0.22493 0.3534 0.29846 0.0
H3430 H 0.23757 0.40085 0.26053 0.0
C3431 C 0.17899 0.42855 0.25262 0.0
C3432 C 0.18721 0.38566 0.27678 0.0
C3433 C 0.1677 0.44235 0.25149 0.0
C3434 C 0.24556 0.3399 0.28637 0.0
C3435 C 0.23275 0.35235 0.28633 0.0
C3436 C 0.22348 0.39626 0.26493 0.0
C3437 C 0.17983 0.41781 0.26855 0.0
C3438 C 0.19293 0.40407 0.27006 0.0
C3439 C 0.23055 0.36373 0.27105 0.0
C3440 C 0.21765 0.37768 0.27121 0.0
H3441 H 0.14895 0.43694 0.2935 0.0
H3442 H 0.1689 0.41281 0.29556 0.0
H3443 H 0.21639 0.42349 0.25957 0.0
H3444 H 0.26185 0.34867 0.24366 0.0
H3445 H 0.23957 0.37032 0.24352 0.0
C3446 C 0.18964 0.4383 0.02063 0.0
C3447 C 0.20089 0.44582 0.03811 0.0
C3448 C 0.17662 0.44837 0.01234 0.0
C3449 C 0.16461 0.49663 0.01237 0.0
H3450 H 0.11208 0.46731 0.00036 0.0
C3451 C 0.10032 0.53246 0.01241 0.0
C3452 C 0.08304 0.52347 0.00114 0.0
C3453 C 0.11624 0.52414 0.01223 0.0
C3454 C 0.12672 0.4757 0.00313 0.0
H3455 H 0.20778 0.47002 0.06033 0.0
H3456 H 0.18513 0.48762 0.0458 0.0
H3457 H 0.13729 0.45027 0.00895 0.0
H3458 H 0.06909 0.49968 0.97976 0.0
H3459 H 0.0971 0.48543 0.97895 0.0
H3460 H 0.15405 0.52212 0.00684 0.0
C3461 C 0.1864 0.47398 0.0385 0.0
C3462 C 0.14116 0.4659 0.00814 0.0
C3463 C 0.19923 0.46381 0.0469 0.0
C3464 C 0.08227 0.50682 0.98867 0.0
C3465 C 0.09826 0.49859 0.98834 0.0
C3466 C 0.1502 0.50642 0.00714 0.0
C3467 C 0.17484 0.46627 0.02125 0.0
C3468 C 0.16014 0.47634 0.01334 0.0
C3469 C 0.11523 0.50675 0.00064 0.0
C3470 C 0.13098 0.49615 0.00302 0.0
H3471 H 0.19065 0.42449 0.01349 0.0
H3472 H 0.16789 0.44215 0.999 0.0
H3473 H 0.17921 0.50496 0.01606 0.0
H3474 H 0.10125 0.5453 0.02218 0.0
H3475 H 0.12894 0.53074 0.02206 0.0
C3476 C 0.83152 0.99815 0.23216 0.0
C3477 C 0.85125 0.00463 0.23826 0.0
C3478 C 0.82223 0.97875 0.23339 0.0
C3479 C 0.83148 0.92948 0.23712 0.0
H3480 H 0.78302 0.91833 0.25782 0.0
C3481 C 0.78949 0.85059 0.24076 0.0
C3482 C 0.78222 0.84652 0.25805 0.0
C3483 C 0.79675 0.86984 0.23714 0.0
C3484 C 0.79657 0.92123 0.25205 0.0
H3485 H 0.8767 0.99571 0.25029 0.0
H3486 H 0.86053 0.96204 0.2524 0.0
H3487 H 0.79814 0.95205 0.25368 0.0
H3488 H 0.77658 0.85964 0.28495 0.0
H3489 H 0.78933 0.89319 0.27864 0.0
H3490 H 0.83017 0.89877 0.23589 0.0
C3491 C 0.85225 0.97188 0.24654 0.0
C3492 C 0.80512 0.9405 0.2495 0.0
C3493 C 0.86149 0.99124 0.24544 0.0
C3494 C 0.78207 0.8622 0.27148 0.0
C3495 C 0.78927 0.88147 0.26782 0.0
C3496 C 0.82289 0.91022 0.23957 0.0
C3497 C 0.83252 0.96541 0.24059 0.0
C3498 C 0.82279 0.94486 0.24221 0.0
C3499 C 0.79685 0.88549 0.25068 0.0
C3500 C 0.80543 0.90589 0.24724 0.0
H3501 H 0.82321 0.00808 0.22657 0.0
H3502 H 0.80703 0.97414 0.22855 0.0
H3503 H 0.84499 0.93234 0.23129 0.0
H3504 H 0.7898 0.8389 0.23005 0.0
H3505 H 0.80228 0.87247 0.22371 0.0
C3506 C 0.65459 0.06183 0.79201 0.0
C3507 C 0.65698 0.04688 0.77886 0.0
C3508 C 0.66597 0.08067 0.79281 0.0
C3509 C 0.70962 0.11006 0.77605 0.0
H3510 H 0.68287 0.15191 0.78274 0.0
C3511 C 0.738 0.18948 0.7581 0.0
C3512 C 0.73608 0.2045 0.77141 0.0
C3513 C 0.72987 0.16997 0.76026 0.0
C3514 C 0.6906 0.1404 0.78106 0.0
H3515 H 0.67365 0.03981 0.75669 0.0
H3516 H 0.69313 0.07281 0.75765 0.0
H3517 H 0.66613 0.11837 0.78447 0.0
H3518 H 0.72456 0.21103 0.79756 0.0
H3519 H 0.71018 0.17701 0.80122 0.0
H3520 H 0.73393 0.13231 0.77199 0.0
C3521 C 0.68274 0.06994 0.76764 0.0
C3522 C 0.68104 0.12114 0.78214 0.0
C3523 C 0.67151 0.051 0.76703 0.0
C3524 C 0.72618 0.19971 0.78706 0.0
C3525 C 0.71791 0.18027 0.78911 0.0
C3526 C 0.71913 0.12937 0.77476 0.0
C3527 C 0.67983 0.08512 0.78027 0.0
C3528 C 0.6904 0.10568 0.77967 0.0
C3529 C 0.71952 0.16521 0.77565 0.0
C3530 C 0.7097 0.14472 0.77728 0.0
H3531 H 0.64367 0.05907 0.80149 0.0
H3532 H 0.66365 0.09183 0.80308 0.0
H3533 H 0.71737 0.09859 0.77431 0.0
H3534 H 0.7456 0.19282 0.74593 0.0
H3535 H 0.73122 0.15867 0.7496 0.0
loop_
_geom_bond_atom_site_label_1
_geom_bond_atom_site_label_2
_geom_bond_distance
_geom_bond_site_symmetry_2
_ccdc_geom_bond_type
O0 Cd1 2.223 . S
O0 C8 1.315 . S
Cd1 O0 2.223 . S
Cd1 O4 2.297 . S
Cd1 O5 2.439 . S
Cd1 O11 2.258 . S
Cd2 O3 2.240 . S
Cd2 O10 2.223 1_455 S
Cd2 O12 2.297 . S
Cd2 O13 2.439 . S
O3 Cd2 2.240 . S
O3 C8 1.279 . S
O4 Cd1 2.297 . S
O4 C6 1.247 . S
O5 Cd1 2.439 . S
O5 C6 1.208 . S
C6 O4 1.247 . S
C6 O5 1.208 . S
C7 O12 1.247 . S
C7 O13 1.208 . S
C8 O0 1.315 . S
C8 O3 1.279 . S
C9 O10 1.315 . S
C9 O11 1.262 1_655 S
O10 Cd2 2.223 1_655 S
O10 C9 1.315 . S
O11 Cd1 2.258 . S
O11 C9 1.262 1_455 S
O12 Cd2 2.297 . S
O12 C7 1.247 . S
O13 Cd2 2.439 . S
O13 C7 1.208 . S
O14 Cd15 2.222 . S
O14 C22 1.315 . S
Cd15 O14 2.222 . S
Cd15 O18 2.297 . S
Cd15 O19 2.439 . S
Cd15 O25 2.240 1_655 S
Cd16 O17 2.240 1_455 S
Cd16 O24 2.223 . S
Cd16 O26 2.297 . S
Cd16 O27 2.424 1_455 S
O17 Cd16 2.240 1_655 S
O17 C22 1.279 . S
O18 Cd15 2.297 . S
O18 C20 1.247 . S
O19 Cd15 2.439 . S
O19 C20 1.208 . S
C20 O18 1.247 . S
C20 O19 1.208 . S
C21 O26 1.247 . S
C21 O27 1.190 1_455 S
C22 O14 1.315 . S
C22 O17 1.279 . S
C23 O24 1.315 . S
C23 O25 1.279 . S
O24 Cd16 2.223 . S
O24 C23 1.315 . S
O25 Cd15 2.240 1_455 S
O25 C23 1.279 . S
O26 Cd16 2.297 . S
O26 C21 1.247 . S
O27 Cd16 2.424 1_655 S
O27 C21 1.190 1_655 S
O28 Cd29 2.223 . S
O28 C36 1.315 . S
Cd29 O28 2.223 . S
Cd29 O32 2.297 . S
Cd29 O33 2.439 . S
Cd29 O39 2.240 . S
Cd30 O31 2.240 . S
Cd30 O38 2.223 . S
Cd30 O40 2.297 . S
Cd30 O41 2.439 . S
O31 Cd30 2.240 . S
O31 C36 1.279 . S
O32 Cd29 2.297 . S
O32 C34 1.247 . S
O33 Cd29 2.439 . S
O33 C34 1.208 . S
C34 O32 1.247 . S
C34 O33 1.208 . S
C35 O40 1.247 . S
C35 O41 1.208 . S
C36 O28 1.315 . S
C36 O31 1.279 . S
C37 O38 1.315 . S
C37 O39 1.279 . S
O38 Cd30 2.223 . S
O38 C37 1.315 . S
O39 Cd29 2.240 . S
O39 C37 1.279 . S
O40 Cd30 2.297 . S
O40 C35 1.247 . S
O41 Cd30 2.439 . S
O41 C35 1.208 . S
O42 Cd43 2.223 . S
O42 C50 1.315 . S
Cd43 O42 2.223 . S
Cd43 O46 2.297 . S
Cd43 O47 2.439 . S
Cd43 O53 2.240 . S
Cd44 O45 2.240 . S
Cd44 O52 2.223 . S
Cd44 O54 2.297 . S
Cd44 O55 2.439 . S
O45 Cd44 2.240 . S
O45 C50 1.279 . S
O46 Cd43 2.297 . S
O46 C48 1.247 . S
O47 Cd43 2.439 . S
O47 C48 1.208 . S
C48 O46 1.247 . S
C48 O47 1.208 . S
C49 O54 1.247 . S
C49 O55 1.208 . S
C50 O42 1.315 . S
C50 O45 1.279 . S
C51 O52 1.315 . S
C51 O53 1.279 . S
O52 Cd44 2.223 . S
O52 C51 1.315 . S
O53 Cd43 2.240 . S
O53 C51 1.279 . S
O54 Cd44 2.297 . S
O54 C49 1.247 . S
O55 Cd44 2.439 . S
O55 C49 1.208 . S
O56 Cd57 2.223 . S
O56 C64 1.315 . S
Cd57 O56 2.223 . S
Cd57 O60 2.297 1_455 S
Cd57 O61 2.439 1_455 S
Cd57 O67 2.240 . S
Cd58 O59 2.221 1_455 S
Cd58 O66 2.223 . S
Cd58 O68 2.297 . S
Cd58 O69 2.439 . S
O59 Cd58 2.221 1_655 S
O59 C64 1.260 1_655 S
O60 Cd57 2.297 1_655 S
O60 C62 1.247 . S
O61 Cd57 2.439 1_655 S
O61 C62 1.208 . S
C62 O60 1.247 . S
C62 O61 1.208 . S
C63 O68 1.247 . S
C63 O69 1.208 . S
C64 O56 1.315 . S
C64 O59 1.260 1_455 S
C65 O66 1.315 . S
C65 O67 1.279 . S
O66 Cd58 2.223 . S
O66 C65 1.315 . S
O67 Cd57 2.240 . S
O67 C65 1.279 . S
O68 Cd58 2.297 . S
O68 C63 1.247 . S
O69 Cd58 2.439 . S
O69 C63 1.208 . S
O70 Cd71 2.223 . S
O70 C78 1.315 . S
Cd71 O70 2.223 . S
Cd71 O74 2.297 . S
Cd71 O75 2.439 . S
Cd71 O81 2.240 . S
Cd72 O73 2.240 . S
Cd72 O80 2.223 . S
Cd72 O82 2.297 . S
Cd72 O83 2.439 . S
O73 Cd72 2.240 . S
O73 C78 1.279 . S
O74 Cd71 2.297 . S
O74 C76 1.247 . S
O75 Cd71 2.439 . S
O75 C76 1.208 . S
C76 O74 1.247 . S
C76 O75 1.208 . S
C77 O82 1.247 . S
C77 O83 1.208 . S
C78 O70 1.315 . S
C78 O73 1.279 . S
C79 O80 1.315 . S
C79 O81 1.279 . S
O80 Cd72 2.223 . S
O80 C79 1.315 . S
O81 Cd71 2.240 . S
O81 C79 1.279 . S
O82 Cd72 2.297 . S
O82 C77 1.247 . S
O83 Cd72 2.439 . S
O83 C77 1.208 . S
O84 Cd85 2.223 . S
O84 C92 1.315 . S
Cd85 O84 2.223 . S
Cd85 O88 2.297 . S
Cd85 O89 2.439 . S
Cd85 O95 2.240 . S
Cd86 O87 2.240 . S
Cd86 O94 2.223 . S
Cd86 O96 2.297 . S
Cd86 O97 2.439 . S
O87 Cd86 2.240 . S
O87 C92 1.279 . S
O88 Cd85 2.297 . S
O88 C90 1.247 . S
O89 Cd85 2.439 . S
O89 C90 1.208 . S
C90 O88 1.247 . S
C90 O89 1.208 . S
C91 O96 1.247 . S
C91 O97 1.208 . S
C92 O84 1.315 . S
C92 O87 1.279 . S
C93 O94 1.315 . S
C93 O95 1.279 . S
O94 Cd86 2.223 . S
O94 C93 1.315 . S
O95 Cd85 2.240 . S
O95 C93 1.279 . S
O96 Cd86 2.297 . S
O96 C91 1.247 . S
O97 Cd86 2.439 . S
O97 C91 1.208 . S
O98 Cd99 2.223 . S
O98 C106 1.315 . S
Cd99 O98 2.223 . S
Cd99 O102 2.297 . S
Cd99 O103 2.439 . S
Cd99 O109 2.240 1_455 S
Cd100 O101 2.240 . S
Cd100 O108 2.223 1_455 S
Cd100 O110 2.299 . S
Cd100 O111 2.439 . S
O101 Cd100 2.240 . S
O101 C106 1.279 . S
O102 Cd99 2.297 . S
O102 C104 1.247 . S
O103 Cd99 2.439 . S
O103 C104 1.208 . S
C104 O102 1.247 . S
C104 O103 1.208 . S
C105 O110 1.250 . S
C105 O111 1.208 . S
C106 O98 1.315 . S
C106 O101 1.279 . S
C107 O108 1.315 . S
C107 O109 1.279 . S
O108 Cd100 2.223 1_655 S
O108 C107 1.315 . S
O109 Cd99 2.240 1_655 S
O109 C107 1.279 . S
O110 Cd100 2.299 . S
O110 C105 1.250 . S
O111 Cd100 2.439 . S
O111 C105 1.208 . S
O112 Cd113 2.223 . S
O112 C120 1.315 . S
Cd113 O112 2.223 . S
Cd113 O116 2.297 . S
Cd113 O117 2.439 . S
Cd113 O123 2.240 . S
Cd114 O115 2.240 . S
Cd114 O122 2.223 . S
Cd114 O124 2.297 . S
Cd114 O125 2.439 . S
O115 Cd114 2.240 . S
O115 C120 1.279 . S
O116 Cd113 2.297 . S
O116 C118 1.247 . S
O117 Cd113 2.439 . S
O117 C118 1.208 . S
C118 O116 1.247 . S
C118 O117 1.208 . S
C119 O124 1.247 . S
C119 O125 1.208 . S
C120 O112 1.315 . S
C120 O115 1.279 . S
C121 O122 1.315 . S
C121 O123 1.279 . S
O122 Cd114 2.223 . S
O122 C121 1.315 . S
O123 Cd113 2.240 . S
O123 C121 1.279 . S
O124 Cd114 2.297 . S
O124 C119 1.247 . S
O125 Cd114 2.439 . S
O125 C119 1.208 . S
O126 Cd127 2.223 . S
O126 C134 1.315 . S
Cd127 O126 2.223 . S
Cd127 O130 2.297 . S
Cd127 O131 2.439 . S
Cd127 O137 2.240 . S
Cd128 O129 2.240 . S
Cd128 O136 2.223 . S
Cd128 O138 2.297 . S
Cd128 O139 2.439 . S
O129 Cd128 2.240 . S
O129 C134 1.279 . S
O130 Cd127 2.297 . S
O130 C132 1.247 . S
O131 Cd127 2.439 . S
O131 C132 1.208 . S
C132 O130 1.247 . S
C132 O131 1.208 . S
C133 O138 1.247 . S
C133 O139 1.208 . S
C134 O126 1.315 . S
C134 O129 1.279 . S
C135 O136 1.315 . S
C135 O137 1.279 . S
O136 Cd128 2.223 . S
O136 C135 1.315 . S
O137 Cd127 2.240 . S
O137 C135 1.279 . S
O138 Cd128 2.297 . S
O138 C133 1.247 . S
O139 Cd128 2.439 . S
O139 C133 1.208 . S
O140 Cd141 2.223 1_545 S
O140 C148 1.315 1_545 S
Cd141 O140 2.223 1_565 S
Cd141 O144 2.297 . S
Cd141 O145 2.439 . S
Cd141 O151 2.240 1_565 S
Cd142 O143 2.240 1_545 S
Cd142 O150 2.223 . S
Cd142 O152 2.297 . S
Cd142 O153 2.439 1_545 S
O143 Cd142 2.240 1_565 S
O143 C148 1.293 . S
O144 Cd141 2.297 . S
O144 C146 1.247 . S
O145 Cd141 2.439 . S
O145 C146 1.208 . S
C146 O144 1.247 . S
C146 O145 1.208 . S
C147 O152 1.247 . S
C147 O153 1.208 1_545 S
C148 O140 1.315 1_565 S
C148 O143 1.293 . S
C149 O150 1.315 . S
C149 O151 1.279 . S
O150 Cd142 2.223 . S
O150 C149 1.315 . S
O151 Cd141 2.240 1_545 S
O151 C149 1.279 . S
O152 Cd142 2.297 . S
O152 C147 1.247 . S
O153 Cd142 2.439 1_565 S
O153 C147 1.208 1_565 S
O154 Cd155 2.223 . S
O154 C162 1.315 . S
Cd155 O154 2.223 . S
Cd155 O158 2.297 . S
Cd155 O159 2.439 . S
Cd155 O165 2.240 . S
Cd156 O157 2.240 . S
Cd156 O164 2.223 . S
Cd156 O166 2.297 1_554 S
Cd156 O167 2.439 1_554 S
O157 Cd156 2.240 . S
O157 C162 1.279 . S
O158 Cd155 2.297 . S
O158 C160 1.247 . S
O159 Cd155 2.439 . S
O159 C160 1.208 . S
C160 O158 1.247 . S
C160 O159 1.208 . S
C161 O166 1.247 . S
C161 O167 1.208 . S
C162 O154 1.315 . S
C162 O157 1.279 . S
C163 O164 1.315 . S
C163 O165 1.279 . S
O164 Cd156 2.223 . S
O164 C163 1.315 . S
O165 Cd155 2.240 . S
O165 C163 1.279 . S
O166 Cd156 2.297 1_556 S
O166 C161 1.247 . S
O167 Cd156 2.439 1_556 S
O167 C161 1.208 . S
O168 Cd169 2.223 . S
O168 C176 1.315 . S
Cd169 O168 2.223 . S
Cd169 O172 2.297 . S
Cd169 O173 2.439 . S
Cd169 O179 2.240 . S
Cd170 O171 2.240 . S
Cd170 O178 2.223 . S
Cd170 O180 2.297 1_554 S
Cd170 O181 2.439 1_554 S
O171 Cd170 2.240 . S
O171 C176 1.279 . S
O172 Cd169 2.297 . S
O172 C174 1.247 . S
O173 Cd169 2.439 . S
O173 C174 1.208 . S
C174 O172 1.247 . S
C174 O173 1.208 . S
C175 O180 1.247 . S
C175 O181 1.208 . S
C176 O168 1.315 . S
C176 O171 1.279 . S
C177 O178 1.315 . S
C177 O179 1.279 . S
O178 Cd170 2.223 . S
O178 C177 1.315 . S
O179 Cd169 2.240 . S
O179 C177 1.279 . S
O180 Cd170 2.297 1_556 S
O180 C175 1.247 . S
O181 Cd170 2.439 1_556 S
O181 C175 1.208 . S
O182 Cd183 2.223 . S
O182 C190 1.315 . S
Cd183 O182 2.223 . S
Cd183 O186 2.297 . S
Cd183 O187 2.439 1_554 S
Cd183 O193 2.240 1_554 S
Cd184 O185 2.240 1_556 S
Cd184 O192 2.223 1_556 S
Cd184 O194 2.297 . S
Cd184 O195 2.439 . S
O185 Cd184 2.240 1_554 S
O185 C190 1.279 . S
O186 Cd183 2.297 . S
O186 C188 1.247 . S
O187 Cd183 2.439 1_556 S
O187 C188 1.208 1_556 S
C188 O186 1.247 . S
C188 O187 1.208 1_554 S
C189 O194 1.247 . S
C189 O195 1.208 . S
C190 O182 1.315 . S
C190 O185 1.279 . S
C191 O192 1.313 1_556 S
C191 O193 1.297 . S
O192 Cd184 2.223 1_554 S
O192 C191 1.313 1_554 S
O193 Cd183 2.240 1_556 S
O193 C191 1.297 . S
O194 Cd184 2.297 . S
O194 C189 1.247 . S
O195 Cd184 2.439 . S
O195 C189 1.208 . S
O196 Cd197 2.223 . S
O196 C204 1.315 . S
Cd197 O196 2.223 . S
Cd197 O200 2.297 . S
Cd197 O201 2.439 . S
Cd197 O207 2.240 . S
Cd198 O199 2.240 . S
Cd198 O206 2.223 . S
Cd198 O208 2.297 . S
Cd198 O209 2.439 . S
O199 Cd198 2.240 . S
O199 C204 1.279 . S
O200 Cd197 2.297 . S
O200 C202 1.247 . S
O201 Cd197 2.439 . S
O201 C202 1.208 . S
C202 O200 1.247 . S
C202 O201 1.208 . S
C203 O208 1.247 . S
C203 O209 1.208 . S
C204 O196 1.315 . S
C204 O199 1.279 . S
C205 O206 1.315 . S
C205 O207 1.279 . S
O206 Cd198 2.223 . S
O206 C205 1.315 . S
O207 Cd197 2.240 . S
O207 C205 1.279 . S
O208 Cd198 2.297 . S
O208 C203 1.247 . S
O209 Cd198 2.439 . S
O209 C203 1.208 . S
O210 Cd211 2.223 . S
O210 C218 1.315 . S
Cd211 O210 2.223 . S
Cd211 O214 2.297 . S
Cd211 O215 2.439 . S
Cd211 O221 2.240 . S
Cd212 O213 2.240 . S
Cd212 O220 2.223 . S
Cd212 O222 2.297 . S
Cd212 O223 2.439 . S
O213 Cd212 2.240 . S
O213 C218 1.279 . S
O214 Cd211 2.297 . S
O214 C216 1.247 . S
O215 Cd211 2.439 . S
O215 C216 1.208 . S
C216 O214 1.247 . S
C216 O215 1.208 . S
C217 O222 1.247 . S
C217 O223 1.208 . S
C218 O210 1.315 . S
C218 O213 1.279 . S
C219 O220 1.315 . S
C219 O221 1.279 . S
O220 Cd212 2.223 . S
O220 C219 1.315 . S
O221 Cd211 2.240 . S
O221 C219 1.279 . S
O222 Cd212 2.297 . S
O222 C217 1.247 . S
O223 Cd212 2.439 . S
O223 C217 1.208 . S
O224 Cd225 2.223 . S
O224 C232 1.315 . S
Cd225 O224 2.223 . S
Cd225 O228 2.297 . S
Cd225 O229 2.439 . S
Cd225 O235 2.240 . S
Cd226 O227 2.240 . S
Cd226 O234 2.223 . S
Cd226 O236 2.297 . S
Cd226 O237 2.439 . S
O227 Cd226 2.240 . S
O227 C232 1.279 . S
O228 Cd225 2.297 . S
O228 C230 1.247 . S
O229 Cd225 2.439 . S
O229 C230 1.208 . S
C230 O228 1.247 . S
C230 O229 1.208 . S
C231 O236 1.247 . S
C231 O237 1.208 . S
C232 O224 1.315 . S
C232 O227 1.279 . S
C233 O234 1.315 . S
C233 O235 1.279 . S
O234 Cd226 2.223 . S
O234 C233 1.315 . S
O235 Cd225 2.240 . S
O235 C233 1.279 . S
O236 Cd226 2.297 . S
O236 C231 1.247 . S
O237 Cd226 2.439 . S
O237 C231 1.208 . S
O238 Cd239 2.223 . S
O238 C246 1.315 . S
Cd239 O238 2.223 . S
Cd239 O242 2.297 . S
Cd239 O243 2.439 . S
Cd239 O249 2.240 . S
Cd240 O241 2.240 . S
Cd240 O248 2.223 . S
Cd240 O250 2.297 . S
Cd240 O251 2.439 . S
O241 Cd240 2.240 . S
O241 C246 1.279 . S
O242 Cd239 2.297 . S
O242 C244 1.247 . S
O243 Cd239 2.439 . S
O243 C244 1.208 . S
C244 O242 1.247 . S
C244 O243 1.208 . S
C245 O250 1.247 . S
C245 O251 1.208 . S
C246 O238 1.315 . S
C246 O241 1.279 . S
C247 O248 1.315 . S
C247 O249 1.279 . S
O248 Cd240 2.223 . S
O248 C247 1.315 . S
O249 Cd239 2.240 . S
O249 C247 1.279 . S
O250 Cd240 2.297 . S
O250 C245 1.247 . S
O251 Cd240 2.439 . S
O251 C245 1.208 . S
O252 Cd253 2.223 . S
O252 C260 1.315 . S
Cd253 O252 2.223 . S
Cd253 O256 2.297 . S
Cd253 O257 2.439 . S
Cd253 O263 2.240 . S
Cd254 O255 2.240 . S
Cd254 O262 2.223 . S
Cd254 O264 2.297 . S
Cd254 O265 2.439 . S
O255 Cd254 2.240 . S
O255 C260 1.279 . S
O256 Cd253 2.297 . S
O256 C258 1.247 . S
O257 Cd253 2.439 . S
O257 C258 1.208 . S
C258 O256 1.247 . S
C258 O257 1.208 . S
C259 O264 1.247 . S
C259 O265 1.208 . S
C260 O252 1.315 . S
C260 O255 1.279 . S
C261 O262 1.315 . S
C261 O263 1.279 . S
O262 Cd254 2.223 . S
O262 C261 1.315 . S
O263 Cd253 2.240 . S
O263 C261 1.279 . S
O264 Cd254 2.297 . S
O264 C259 1.247 . S
O265 Cd254 2.439 . S
O265 C259 1.208 . S
O266 Cd267 2.223 . S
O266 C274 1.315 . S
Cd267 O266 2.223 . S
Cd267 O270 2.297 1_545 S
Cd267 O271 2.439 1_545 S
Cd267 O277 2.240 . S
Cd268 O269 2.240 . S
Cd268 O276 2.223 . S
Cd268 O278 2.297 . S
Cd268 O279 2.439 . S
O269 Cd268 2.240 . S
O269 C274 1.279 . S
O270 Cd267 2.297 1_565 S
O270 C272 1.247 . S
O271 Cd267 2.439 1_565 S
O271 C272 1.208 . S
C272 O270 1.247 . S
C272 O271 1.208 . S
C273 O278 1.247 . S
C273 O279 1.208 . S
C274 O266 1.315 . S
C274 O269 1.279 . S
C275 O276 1.315 . S
C275 O277 1.279 . S
O276 Cd268 2.223 . S
O276 C275 1.315 . S
O277 Cd267 2.240 . S
O277 C275 1.279 . S
O278 Cd268 2.297 . S
O278 C273 1.247 . S
O279 Cd268 2.439 . S
O279 C273 1.208 . S
O280 Cd281 2.223 . S
O280 C288 1.315 . S
Cd281 O280 2.223 . S
Cd281 O284 2.297 . S
Cd281 O285 2.439 . S
Cd281 O291 2.240 . S
Cd282 O283 2.240 . S
Cd282 O290 2.223 . S
Cd282 O292 2.297 1_554 S
Cd282 O293 2.439 1_554 S
O283 Cd282 2.240 . S
O283 C288 1.279 . S
O284 Cd281 2.297 . S
O284 C286 1.247 . S
O285 Cd281 2.439 . S
O285 C286 1.208 . S
C286 O284 1.247 . S
C286 O285 1.208 . S
C287 O292 1.247 . S
C287 O293 1.208 . S
C288 O280 1.315 . S
C288 O283 1.279 . S
C289 O290 1.315 . S
C289 O291 1.279 . S
O290 Cd282 2.223 . S
O290 C289 1.315 . S
O291 Cd281 2.240 . S
O291 C289 1.279 . S
O292 Cd282 2.297 1_556 S
O292 C287 1.247 . S
O293 Cd282 2.439 1_556 S
O293 C287 1.208 . S
O294 Cd295 2.223 . S
O294 C302 1.315 . S
Cd295 O294 2.223 . S
Cd295 O298 2.297 . S
Cd295 O299 2.439 . S
Cd295 O305 2.240 . S
Cd296 O297 2.240 . S
Cd296 O304 2.223 . S
Cd296 O306 2.297 . S
Cd296 O307 2.439 . S
O297 Cd296 2.240 . S
O297 C302 1.279 . S
O298 Cd295 2.297 . S
O298 C300 1.247 . S
O299 Cd295 2.439 . S
O299 C300 1.208 . S
C300 O298 1.247 . S
C300 O299 1.208 . S
C301 O306 1.247 . S
C301 O307 1.208 . S
C302 O294 1.315 . S
C302 O297 1.279 . S
C303 O304 1.315 . S
C303 O305 1.279 . S
O304 Cd296 2.223 . S
O304 C303 1.315 . S
O305 Cd295 2.240 . S
O305 C303 1.279 . S
O306 Cd296 2.297 . S
O306 C301 1.247 . S
O307 Cd296 2.439 . S
O307 C301 1.208 . S
O308 Cd309 2.223 . S
O308 C316 1.315 . S
Cd309 O308 2.223 . S
Cd309 O312 2.297 . S
Cd309 O313 2.439 . S
Cd309 O319 2.240 . S
Cd310 O311 2.240 . S
Cd310 O318 2.223 . S
Cd310 O320 2.297 . S
Cd310 O321 2.439 . S
O311 Cd310 2.240 . S
O311 C316 1.279 . S
O312 Cd309 2.297 . S
O312 C314 1.247 . S
O313 Cd309 2.439 . S
O313 C314 1.208 . S
C314 O312 1.247 . S
C314 O313 1.208 . S
C315 O320 1.247 . S
C315 O321 1.208 . S
C316 O308 1.315 . S
C316 O311 1.279 . S
C317 O318 1.315 . S
C317 O319 1.279 . S
O318 Cd310 2.223 . S
O318 C317 1.315 . S
O319 Cd309 2.240 . S
O319 C317 1.279 . S
O320 Cd310 2.297 . S
O320 C315 1.247 . S
O321 Cd310 2.439 . S
O321 C315 1.208 . S
O322 Cd323 2.223 . S
O322 C330 1.315 . S
Cd323 O322 2.223 . S
Cd323 O326 2.297 . S
Cd323 O327 2.439 . S
Cd323 O333 2.240 . S
Cd324 O325 2.240 . S
Cd324 O332 2.223 . S
Cd324 O334 2.297 . S
Cd324 O335 2.439 . S
O325 Cd324 2.240 . S
O325 C330 1.279 . S
O326 Cd323 2.297 . S
O326 C328 1.247 . S
O327 Cd323 2.439 . S
O327 C328 1.208 . S
C328 O326 1.247 . S
C328 O327 1.208 . S
C329 O334 1.247 . S
C329 O335 1.208 . S
C330 O322 1.315 . S
C330 O325 1.279 . S
C331 O332 1.315 . S
C331 O333 1.279 . S
O332 Cd324 2.223 . S
O332 C331 1.315 . S
O333 Cd323 2.240 . S
O333 C331 1.279 . S
O334 Cd324 2.297 . S
O334 C329 1.247 . S
O335 Cd324 2.439 . S
O335 C329 1.208 . S
Tb336 O339 2.453 . S
Tb336 O340 2.596 . S
Tb336 O341 2.374 1_554 S
Tb336 O349 2.343 1_455 S
Tb336 O351 2.353 . S
Tb336 O353 2.427 . S
Tb336 O354 2.513 1_554 S
C337 O341 1.251 . S
C337 O343 1.263 . S
Tb338 O340 2.343 1_655 S
Tb338 O343 2.353 1_654 S
Tb338 O346 2.427 1_645 S
Tb338 O347 2.513 1_645 S
Tb338 O348 2.453 . S
Tb338 O349 2.596 . S
Tb338 O350 2.374 . S
O339 Tb336 2.453 . S
O339 C355 1.245 . S
O340 Tb336 2.596 . S
O340 Tb338 2.343 1_455 S
O340 C355 1.259 . S
O341 Tb336 2.374 1_556 S
O341 C337 1.251 . S
C342 O346 1.275 . S
C342 O347 1.246 . S
O343 C337 1.263 . S
O343 Tb338 2.353 1_456 S
C344 O348 1.245 . S
C344 O349 1.259 . S
C345 O350 1.250 1_455 S
C345 O351 1.263 . S
O346 Tb338 2.427 1_465 S
O346 C342 1.275 . S
O347 Tb338 2.513 1_465 S
O347 C342 1.246 . S
O348 Tb338 2.453 . S
O348 C344 1.245 . S
O349 Tb336 2.343 1_655 S
O349 Tb338 2.596 . S
O349 C344 1.259 . S
O350 Tb338 2.374 . S
O350 C345 1.250 1_655 S
O351 Tb336 2.353 . S
O351 C345 1.263 . S
C352 O353 1.275 . S
C352 O354 1.246 1_554 S
O353 Tb336 2.427 . S
O353 C352 1.275 . S
O354 Tb336 2.513 1_556 S
O354 C352 1.246 1_556 S
C355 O339 1.245 . S
C355 O340 1.259 . S
Tb356 O359 2.453 . S
Tb356 O360 2.596 . S
Tb356 O361 2.374 . S
Tb356 O369 2.343 . S
Tb356 O371 2.353 . S
Tb356 O373 2.427 . S
Tb356 O374 2.513 . S
C357 O361 1.251 . S
C357 O363 1.263 . S
Tb358 O360 2.343 . S
Tb358 O363 2.353 . S
Tb358 O366 2.427 . S
Tb358 O367 2.513 . S
Tb358 O368 2.453 . S
Tb358 O369 2.596 . S
Tb358 O370 2.374 . S
O359 Tb356 2.453 . S
O359 C375 1.245 . S
O360 Tb356 2.596 . S
O360 Tb358 2.343 . S
O360 C375 1.259 . S
O361 Tb356 2.374 . S
O361 C357 1.251 . S
C362 O366 1.275 . S
C362 O367 1.246 . S
O363 C357 1.263 . S
O363 Tb358 2.353 . S
C364 O368 1.245 . S
C364 O369 1.259 . S
C365 O370 1.250 . S
C365 O371 1.263 . S
O366 Tb358 2.427 . S
O366 C362 1.275 . S
O367 Tb358 2.513 . S
O367 C362 1.246 . S
O368 Tb358 2.453 . S
O368 C364 1.245 . S
O369 Tb356 2.343 . S
O369 Tb358 2.596 . S
O369 C364 1.259 . S
O370 Tb358 2.374 . S
O370 C365 1.250 . S
O371 Tb356 2.353 . S
O371 C365 1.263 . S
C372 O373 1.275 . S
C372 O374 1.246 . S
O373 Tb356 2.427 . S
O373 C372 1.275 . S
O374 Tb356 2.513 . S
O374 C372 1.246 . S
C375 O359 1.245 . S
C375 O360 1.259 . S
Tb376 O379 2.453 . S
Tb376 O380 2.596 . S
Tb376 O381 2.374 . S
Tb376 O389 2.343 . S
Tb376 O391 2.353 . S
Tb376 O393 2.427 . S
Tb376 O394 2.513 . S
C377 O381 1.251 . S
C377 O383 1.263 . S
Tb378 O380 2.343 . S
Tb378 O383 2.353 . S
Tb378 O386 2.427 . S
Tb378 O387 2.513 . S
Tb378 O388 2.453 1_545 S
Tb378 O389 2.596 . S
Tb378 O390 2.374 . S
O379 Tb376 2.453 . S
O379 C395 1.245 . S
O380 Tb376 2.596 . S
O380 Tb378 2.343 . S
O380 C395 1.259 . S
O381 Tb376 2.374 . S
O381 C377 1.251 . S
C382 O386 1.275 . S
C382 O387 1.246 . S
O383 C377 1.263 . S
O383 Tb378 2.353 . S
C384 O388 1.245 . S
C384 O389 1.259 1_565 S
C385 O390 1.250 . S
C385 O391 1.263 . S
O386 Tb378 2.427 . S
O386 C382 1.275 . S
O387 Tb378 2.513 . S
O387 C382 1.246 . S
O388 Tb378 2.453 1_565 S
O388 C384 1.245 . S
O389 Tb376 2.343 . S
O389 Tb378 2.596 . S
O389 C384 1.259 1_545 S
O390 Tb378 2.374 . S
O390 C385 1.250 . S
O391 Tb376 2.353 . S
O391 C385 1.263 . S
C392 O393 1.275 . S
C392 O394 1.246 . S
O393 Tb376 2.427 . S
O393 C392 1.275 . S
O394 Tb376 2.513 . S
O394 C392 1.246 . S
C395 O379 1.245 . S
C395 O380 1.259 . S
Tb396 O399 2.453 . S
Tb396 O400 2.596 . S
Tb396 O401 2.374 . S
Tb396 O409 2.343 . S
Tb396 O411 2.353 . S
Tb396 O413 2.427 . S
Tb396 O414 2.513 . S
C397 O401 1.251 . S
C397 O403 1.263 . S
Tb398 O400 2.343 . S
Tb398 O403 2.353 . S
Tb398 O406 2.427 . S
Tb398 O407 2.513 . S
Tb398 O408 2.453 . S
Tb398 O409 2.596 . S
Tb398 O410 2.374 . S
O399 Tb396 2.453 . S
O399 C415 1.245 . S
O400 Tb396 2.596 . S
O400 Tb398 2.343 . S
O400 C415 1.259 . S
O401 Tb396 2.374 . S
O401 C397 1.251 . S
C402 O406 1.275 . S
C402 O407 1.246 . S
O403 C397 1.263 . S
O403 Tb398 2.353 . S
C404 O408 1.245 . S
C404 O409 1.259 . S
C405 O410 1.250 . S
C405 O411 1.263 . S
O406 Tb398 2.427 . S
O406 C402 1.275 . S
O407 Tb398 2.513 . S
O407 C402 1.246 . S
O408 Tb398 2.453 . S
O408 C404 1.245 . S
O409 Tb396 2.343 . S
O409 Tb398 2.596 . S
O409 C404 1.259 . S
O410 Tb398 2.374 . S
O410 C405 1.250 . S
O411 Tb396 2.353 . S
O411 C405 1.263 . S
C412 O413 1.275 . S
C412 O414 1.246 . S
O413 Tb396 2.427 . S
O413 C412 1.275 . S
O414 Tb396 2.513 . S
O414 C412 1.246 . S
C415 O399 1.245 . S
C415 O400 1.259 . S
Tb416 O419 2.453 1_545 S
Tb416 O420 2.596 . S
Tb416 O421 2.374 1_455 S
Tb416 O429 2.343 . S
Tb416 O431 2.353 . S
Tb416 O433 2.427 . S
Tb416 O434 2.513 1_455 S
C417 O421 1.251 . S
C417 O423 1.263 . S
Tb418 O420 2.343 . S
Tb418 O423 2.353 1_455 S
Tb418 O426 2.427 . S
Tb418 O427 2.513 . S
Tb418 O428 2.453 . S
Tb418 O429 2.596 . S
Tb418 O430 2.374 . S
O419 Tb416 2.453 1_565 S
O419 C435 1.245 1_565 S
O420 Tb416 2.596 . S
O420 Tb418 2.343 . S
O420 C435 1.259 . S
O421 Tb416 2.374 1_655 S
O421 C417 1.251 . S
C422 O426 1.275 . S
C422 O427 1.246 . S
O423 C417 1.263 . S
O423 Tb418 2.353 1_655 S
C424 O428 1.245 . S
C424 O429 1.259 . S
C425 O430 1.250 . S
C425 O431 1.263 . S
O426 Tb418 2.427 . S
O426 C422 1.275 . S
O427 Tb418 2.513 . S
O427 C422 1.246 . S
O428 Tb418 2.453 . S
O428 C424 1.245 . S
O429 Tb416 2.343 . S
O429 Tb418 2.596 . S
O429 C424 1.259 . S
O430 Tb418 2.374 . S
O430 C425 1.250 . S
O431 Tb416 2.353 . S
O431 C425 1.263 . S
C432 O433 1.275 . S
C432 O434 1.246 1_455 S
O433 Tb416 2.427 . S
O433 C432 1.275 . S
O434 Tb416 2.513 1_655 S
O434 C432 1.246 1_655 S
C435 O419 1.245 1_545 S
C435 O420 1.259 . S
Tb436 O439 2.453 . S
Tb436 O440 2.596 . S
Tb436 O441 2.374 . S
Tb436 O449 2.343 . S
Tb436 O451 2.353 . S
Tb436 O453 2.427 . S
Tb436 O454 2.513 . S
C437 O441 1.251 . S
C437 O443 1.263 . S
Tb438 O440 2.343 . S
Tb438 O443 2.353 . S
Tb438 O446 2.427 . S
Tb438 O447 2.513 . S
Tb438 O448 2.453 . S
Tb438 O449 2.596 . S
Tb438 O450 2.374 . S
O439 Tb436 2.453 . S
O439 C455 1.245 . S
O440 Tb436 2.596 . S
O440 Tb438 2.343 . S
O440 C455 1.259 . S
O441 Tb436 2.374 . S
O441 C437 1.251 . S
C442 O446 1.275 . S
C442 O447 1.246 . S
O443 C437 1.263 . S
O443 Tb438 2.353 . S
C444 O448 1.245 . S
C444 O449 1.259 . S
C445 O450 1.250 . S
C445 O451 1.263 . S
O446 Tb438 2.427 . S
O446 C442 1.275 . S
O447 Tb438 2.513 . S
O447 C442 1.246 . S
O448 Tb438 2.453 . S
O448 C444 1.245 . S
O449 Tb436 2.343 . S
O449 Tb438 2.596 . S
O449 C444 1.259 . S
O450 Tb438 2.374 . S
O450 C445 1.250 . S
O451 Tb436 2.353 . S
O451 C445 1.263 . S
C452 O453 1.275 . S
C452 O454 1.246 . S
O453 Tb436 2.427 . S
O453 C452 1.275 . S
O454 Tb436 2.513 . S
O454 C452 1.246 . S
C455 O439 1.245 . S
C455 O440 1.259 . S
Tb456 O459 2.453 1_554 S
Tb456 O460 2.596 . S
Tb456 O461 2.412 . S
Tb456 O469 2.343 . S
Tb456 O471 2.353 . S
Tb456 O473 2.427 . S
Tb456 O474 2.513 . S
C457 O461 1.232 1_565 S
C457 O463 1.263 1_565 S
Tb458 O460 2.343 . S
Tb458 O463 2.353 . S
Tb458 O466 2.427 . S
Tb458 O467 2.513 . S
Tb458 O468 2.453 . S
Tb458 O469 2.596 . S
Tb458 O470 2.374 . S
O459 Tb456 2.453 1_556 S
O459 C475 1.245 . S
O460 Tb456 2.596 . S
O460 Tb458 2.343 . S
O460 C475 1.259 1_554 S
O461 Tb456 2.412 . S
O461 C457 1.232 1_545 S
C462 O466 1.275 . S
C462 O467 1.246 . S
O463 C457 1.263 1_545 S
O463 Tb458 2.353 . S
C464 O468 1.245 . S
C464 O469 1.259 . S
C465 O470 1.250 . S
C465 O471 1.263 . S
O466 Tb458 2.427 . S
O466 C462 1.275 . S
O467 Tb458 2.513 . S
O467 C462 1.246 . S
O468 Tb458 2.453 . S
O468 C464 1.245 . S
O469 Tb456 2.343 . S
O469 Tb458 2.596 . S
O469 C464 1.259 . S
O470 Tb458 2.374 . S
O470 C465 1.250 . S
O471 Tb456 2.353 . S
O471 C465 1.263 . S
C472 O473 1.275 . S
C472 O474 1.246 . S
O473 Tb456 2.427 . S
O473 C472 1.275 . S
O474 Tb456 2.513 . S
O474 C472 1.246 . S
C475 O459 1.245 . S
C475 O460 1.259 1_556 S
Tb476 O479 2.453 . S
Tb476 O480 2.596 . S
Tb476 O481 2.374 . S
Tb476 O489 2.343 . S
Tb476 O491 2.353 . S
Tb476 O493 2.427 . S
Tb476 O494 2.513 . S
C477 O481 1.251 . S
C477 O483 1.263 . S
Tb478 O480 2.343 . S
Tb478 O483 2.353 . S
Tb478 O486 2.427 . S
Tb478 O487 2.513 . S
Tb478 O488 2.453 . S
Tb478 O489 2.596 . S
Tb478 O490 2.374 . S
O479 Tb476 2.453 . S
O479 C495 1.245 . S
O480 Tb476 2.596 . S
O480 Tb478 2.343 . S
O480 C495 1.259 . S
O481 Tb476 2.374 . S
O481 C477 1.251 . S
C482 O486 1.275 . S
C482 O487 1.246 . S
O483 C477 1.263 . S
O483 Tb478 2.353 . S
C484 O488 1.245 . S
C484 O489 1.259 . S
C485 O490 1.250 . S
C485 O491 1.263 . S
O486 Tb478 2.427 . S
O486 C482 1.275 . S
O487 Tb478 2.513 . S
O487 C482 1.246 . S
O488 Tb478 2.453 . S
O488 C484 1.245 . S
O489 Tb476 2.343 . S
O489 Tb478 2.596 . S
O489 C484 1.259 . S
O490 Tb478 2.374 . S
O490 C485 1.250 . S
O491 Tb476 2.353 . S
O491 C485 1.263 . S
C492 O493 1.275 . S
C492 O494 1.246 . S
O493 Tb476 2.427 . S
O493 C492 1.275 . S
O494 Tb476 2.513 . S
O494 C492 1.246 . S
C495 O479 1.245 . S
C495 O480 1.259 . S
Tb496 O499 2.453 1_556 S
Tb496 O500 2.596 1_556 S
Tb496 O501 2.374 1_556 S
Tb496 O509 2.343 1_556 S
Tb496 O511 2.353 1_556 S
Tb496 O513 2.427 . S
Tb496 O514 2.513 . S
C497 O501 1.251 . S
C497 O503 1.263 . S
Tb498 O500 2.343 . S
Tb498 O503 2.353 . S
Tb498 O506 2.427 . S
Tb498 O507 2.513 . S
Tb498 O508 2.453 . S
Tb498 O509 2.596 . S
Tb498 O510 2.374 . S
O499 Tb496 2.453 1_554 S
O499 C515 1.245 . S
O500 Tb496 2.596 1_554 S
O500 Tb498 2.343 . S
O500 C515 1.259 . S
O501 Tb496 2.374 1_554 S
O501 C497 1.251 . S
C502 O506 1.275 . S
C502 O507 1.246 . S
O503 C497 1.263 . S
O503 Tb498 2.353 . S
C504 O508 1.245 . S
C504 O509 1.259 . S
C505 O510 1.250 . S
C505 O511 1.263 . S
O506 Tb498 2.427 . S
O506 C502 1.275 . S
O507 Tb498 2.513 . S
O507 C502 1.246 . S
O508 Tb498 2.453 . S
O508 C504 1.245 . S
O509 Tb496 2.343 1_554 S
O509 Tb498 2.596 . S
O509 C504 1.259 . S
O510 Tb498 2.374 . S
O510 C505 1.250 . S
O511 Tb496 2.353 1_554 S
O511 C505 1.263 . S
C512 O513 1.275 . S
C512 O514 1.246 . S
O513 Tb496 2.427 . S
O513 C512 1.275 . S
O514 Tb496 2.513 . S
O514 C512 1.246 . S
C515 O499 1.245 . S
C515 O500 1.259 . S
Tb516 O519 2.453 . S
Tb516 O520 2.596 . S
Tb516 O521 2.374 . S
Tb516 O529 2.343 . S
Tb516 O531 2.353 . S
Tb516 O533 2.427 . S
Tb516 O534 2.513 . S
C517 O521 1.251 . S
C517 O523 1.263 . S
Tb518 O520 2.343 . S
Tb518 O523 2.353 . S
Tb518 O526 2.427 . S
Tb518 O527 2.513 . S
Tb518 O528 2.453 . S
Tb518 O529 2.596 . S
Tb518 O530 2.374 . S
O519 Tb516 2.453 . S
O519 C535 1.245 . S
O520 Tb516 2.596 . S
O520 Tb518 2.343 . S
O520 C535 1.259 . S
O521 Tb516 2.374 . S
O521 C517 1.251 . S
C522 O526 1.275 . S
C522 O527 1.246 . S
O523 C517 1.263 . S
O523 Tb518 2.353 . S
C524 O528 1.245 . S
C524 O529 1.259 . S
C525 O530 1.250 . S
C525 O531 1.263 . S
O526 Tb518 2.427 . S
O526 C522 1.275 . S
O527 Tb518 2.513 . S
O527 C522 1.246 . S
O528 Tb518 2.453 . S
O528 C524 1.245 . S
O529 Tb516 2.343 . S
O529 Tb518 2.596 . S
O529 C524 1.259 . S
O530 Tb518 2.374 . S
O530 C525 1.250 . S
O531 Tb516 2.353 . S
O531 C525 1.263 . S
C532 O533 1.275 . S
C532 O534 1.246 . S
O533 Tb516 2.427 . S
O533 C532 1.275 . S
O534 Tb516 2.513 . S
O534 C532 1.246 . S
C535 O519 1.245 . S
C535 O520 1.259 . S
Tb536 O539 2.453 1_655 S
Tb536 O540 2.596 1_655 S
Tb536 O541 2.374 . S
Tb536 O549 2.343 . S
Tb536 O551 2.353 . S
Tb536 O553 2.427 . S
Tb536 O554 2.513 . S
C537 O541 1.251 1_455 S
C537 O543 1.263 . S
Tb538 O540 2.343 . S
Tb538 O543 2.353 . S
Tb538 O546 2.427 . S
Tb538 O547 2.513 . S
Tb538 O548 2.453 . S
Tb538 O549 2.596 1_455 S
Tb538 O550 2.374 . S
O539 Tb536 2.453 1_455 S
O539 C555 1.245 . S
O540 Tb536 2.596 1_455 S
O540 Tb538 2.343 . S
O540 C555 1.259 . S
O541 Tb536 2.374 . S
O541 C537 1.251 1_655 S
C542 O546 1.275 . S
C542 O547 1.246 . S
O543 C537 1.263 . S
O543 Tb538 2.353 . S
C544 O548 1.245 1_655 S
C544 O549 1.259 . S
C545 O550 1.250 . S
C545 O551 1.263 1_455 S
O546 Tb538 2.427 . S
O546 C542 1.275 . S
O547 Tb538 2.513 . S
O547 C542 1.246 . S
O548 Tb538 2.453 . S
O548 C544 1.245 1_455 S
O549 Tb536 2.343 . S
O549 Tb538 2.596 1_655 S
O549 C544 1.259 . S
O550 Tb538 2.374 . S
O550 C545 1.250 . S
O551 Tb536 2.353 . S
O551 C545 1.263 1_655 S
C552 O553 1.275 . S
C552 O554 1.246 . S
O553 Tb536 2.427 . S
O553 C552 1.275 . S
O554 Tb536 2.513 . S
O554 C552 1.246 . S
C555 O539 1.245 . S
C555 O540 1.259 . S
Tb556 O559 2.453 . S
Tb556 O560 2.596 . S
Tb556 O561 2.374 . S
Tb556 O569 2.343 . S
Tb556 O571 2.353 . S
Tb556 O573 2.427 . S
Tb556 O574 2.513 . S
C557 O561 1.251 . S
C557 O563 1.263 . S
Tb558 O560 2.343 . S
Tb558 O563 2.353 . S
Tb558 O566 2.427 . S
Tb558 O567 2.513 . S
Tb558 O568 2.453 . S
Tb558 O569 2.596 . S
Tb558 O570 2.374 . S
O559 Tb556 2.453 . S
O559 C575 1.245 . S
O560 Tb556 2.596 . S
O560 Tb558 2.343 . S
O560 C575 1.259 . S
O561 Tb556 2.374 . S
O561 C557 1.251 . S
C562 O566 1.275 . S
C562 O567 1.246 . S
O563 C557 1.263 . S
O563 Tb558 2.353 . S
C564 O568 1.245 . S
C564 O569 1.259 . S
C565 O570 1.250 . S
C565 O571 1.263 . S
O566 Tb558 2.427 . S
O566 C562 1.275 . S
O567 Tb558 2.513 . S
O567 C562 1.246 . S
O568 Tb558 2.453 . S
O568 C564 1.245 . S
O569 Tb556 2.343 . S
O569 Tb558 2.596 . S
O569 C564 1.259 . S
O570 Tb558 2.374 . S
O570 C565 1.250 . S
O571 Tb556 2.353 . S
O571 C565 1.263 . S
C572 O573 1.275 . S
C572 O574 1.246 . S
O573 Tb556 2.427 . S
O573 C572 1.275 . S
O574 Tb556 2.513 . S
O574 C572 1.246 . S
C575 O559 1.245 . S
C575 O560 1.259 . S
Tb576 O579 2.453 . S
Tb576 O580 2.596 . S
Tb576 O581 2.374 . S
Tb576 O589 2.343 . S
Tb576 O591 2.353 . S
Tb576 O593 2.427 . S
Tb576 O594 2.513 . S
C577 O581 1.251 . S
C577 O583 1.263 . S
Tb578 O580 2.343 . S
Tb578 O583 2.353 . S
Tb578 O586 2.427 . S
Tb578 O587 2.513 . S
Tb578 O588 2.453 . S
Tb578 O589 2.596 . S
Tb578 O590 2.374 . S
O579 Tb576 2.453 . S
O579 C595 1.245 . S
O580 Tb576 2.596 . S
O580 Tb578 2.343 . S
O580 C595 1.259 . S
O581 Tb576 2.374 . S
O581 C577 1.251 . S
C582 O586 1.275 . S
C582 O587 1.246 . S
O583 C577 1.263 . S
O583 Tb578 2.353 . S
C584 O588 1.245 . S
C584 O589 1.259 . S
C585 O590 1.250 . S
C585 O591 1.263 . S
O586 Tb578 2.427 . S
O586 C582 1.275 . S
O587 Tb578 2.513 . S
O587 C582 1.246 . S
O588 Tb578 2.453 . S
O588 C584 1.245 . S
O589 Tb576 2.343 . S
O589 Tb578 2.596 . S
O589 C584 1.259 . S
O590 Tb578 2.374 . S
O590 C585 1.250 . S
O591 Tb576 2.353 . S
O591 C585 1.263 . S
C592 O593 1.275 . S
C592 O594 1.246 . S
O593 Tb576 2.427 . S
O593 C592 1.275 . S
O594 Tb576 2.513 . S
O594 C592 1.246 . S
C595 O579 1.245 . S
C595 O580 1.259 . S
Tb596 O599 2.453 . S
Tb596 O600 2.596 . S
Tb596 O601 2.374 . S
Tb596 O609 2.343 . S
Tb596 O611 2.353 . S
Tb596 O613 2.427 . S
Tb596 O614 2.513 . S
C597 O601 1.251 . S
C597 O603 1.263 . S
Tb598 O600 2.343 . S
Tb598 O603 2.353 . S
Tb598 O606 2.427 . S
Tb598 O607 2.513 . S
Tb598 O608 2.453 . S
Tb598 O609 2.596 . S
Tb598 O610 2.374 . S
O599 Tb596 2.453 . S
O599 C615 1.245 . S
O600 Tb596 2.596 . S
O600 Tb598 2.343 . S
O600 C615 1.259 . S
O601 Tb596 2.374 . S
O601 C597 1.251 . S
C602 O606 1.275 . S
C602 O607 1.246 . S
O603 C597 1.263 . S
O603 Tb598 2.353 . S
C604 O608 1.245 . S
C604 O609 1.259 . S
C605 O610 1.250 . S
C605 O611 1.263 . S
O606 Tb598 2.427 . S
O606 C602 1.275 . S
O607 Tb598 2.513 . S
O607 C602 1.246 . S
O608 Tb598 2.453 . S
O608 C604 1.245 . S
O609 Tb596 2.343 . S
O609 Tb598 2.596 . S
O609 C604 1.259 . S
O610 Tb598 2.374 . S
O610 C605 1.250 . S
O611 Tb596 2.353 . S
O611 C605 1.263 . S
C612 O613 1.275 . S
C612 O614 1.246 . S
O613 Tb596 2.427 . S
O613 C612 1.275 . S
O614 Tb596 2.513 . S
O614 C612 1.246 . S
C615 O599 1.245 . S
C615 O600 1.259 . S
Tb616 O619 2.453 . S
Tb616 O620 2.596 . S
Tb616 O621 2.374 . S
Tb616 O629 2.343 . S
Tb616 O631 2.353 . S
Tb616 O633 2.427 . S
Tb616 O634 2.513 . S
C617 O621 1.251 . S
C617 O623 1.263 . S
Tb618 O620 2.343 . S
Tb618 O623 2.353 . S
Tb618 O626 2.427 . S
Tb618 O627 2.513 . S
Tb618 O628 2.453 . S
Tb618 O629 2.596 . S
Tb618 O630 2.374 . S
O619 Tb616 2.453 . S
O619 C635 1.245 . S
O620 Tb616 2.596 . S
O620 Tb618 2.343 . S
O620 C635 1.259 . S
O621 Tb616 2.374 . S
O621 C617 1.251 . S
C622 O626 1.275 . S
C622 O627 1.246 . S
O623 C617 1.263 . S
O623 Tb618 2.353 . S
C624 O628 1.245 . S
C624 O629 1.259 . S
C625 O630 1.250 . S
C625 O631 1.263 . S
O626 Tb618 2.427 . S
O626 C622 1.275 . S
O627 Tb618 2.513 . S
O627 C622 1.246 . S
O628 Tb618 2.453 . S
O628 C624 1.245 . S
O629 Tb616 2.343 . S
O629 Tb618 2.596 . S
O629 C624 1.259 . S
O630 Tb618 2.374 . S
O630 C625 1.250 . S
O631 Tb616 2.353 . S
O631 C625 1.263 . S
C632 O633 1.275 . S
C632 O634 1.246 . S
O633 Tb616 2.427 . S
O633 C632 1.275 . S
O634 Tb616 2.513 . S
O634 C632 1.246 . S
C635 O619 1.245 . S
C635 O620 1.259 . S
Tb636 O639 2.453 . S
Tb636 O640 2.596 . S
Tb636 O641 2.374 . S
Tb636 O649 2.343 . S
Tb636 O651 2.353 . S
Tb636 O653 2.427 . S
Tb636 O654 2.513 . S
C637 O641 1.251 . S
C637 O643 1.263 . S
Tb638 O640 2.343 1_655 S
Tb638 O643 2.353 1_655 S
Tb638 O646 2.427 . S
Tb638 O647 2.513 . S
Tb638 O648 2.453 . S
Tb638 O649 2.596 1_655 S
Tb638 O650 2.374 . S
O639 Tb636 2.453 . S
O639 C655 1.245 . S
O640 Tb636 2.596 . S
O640 Tb638 2.343 1_455 S
O640 C655 1.259 . S
O641 Tb636 2.374 . S
O641 C637 1.251 . S
C642 O646 1.275 . S
C642 O647 1.246 . S
O643 C637 1.263 . S
O643 Tb638 2.353 1_455 S
C644 O648 1.245 1_455 S
C644 O649 1.259 . S
C645 O650 1.250 1_456 S
C645 O651 1.263 1_556 S
O646 Tb638 2.427 . S
O646 C642 1.275 . S
O647 Tb638 2.513 . S
O647 C642 1.246 . S
O648 Tb638 2.453 . S
O648 C644 1.245 1_655 S
O649 Tb636 2.343 . S
O649 Tb638 2.596 1_455 S
O649 C644 1.259 . S
O650 Tb638 2.374 . S
O650 C645 1.250 1_654 S
O651 Tb636 2.353 . S
O651 C645 1.263 1_554 S
C652 O653 1.275 . S
C652 O654 1.246 . S
O653 Tb636 2.427 . S
O653 C652 1.275 . S
O654 Tb636 2.513 . S
O654 C652 1.246 . S
C655 O639 1.245 . S
C655 O640 1.259 . S
C656 C657 1.349 . S
C656 C658 1.327 . S
C656 H681 0.950 . S
C657 C656 1.349 . S
C657 C673 1.365 . S
C658 C656 1.327 . S
C658 C677 1.429 . S
C658 H682 0.950 . S
C659 C676 1.574 . S
C659 C678 1.368 . S
C659 H683 0.949 1_455 S
H660 C664 0.949 . S
C661 C662 1.359 . S
C661 C663 1.327 1_554 S
C661 H684 0.950 1_455 S
C662 C661 1.359 . S
C662 C674 1.316 1_554 S
C663 C661 1.327 1_556 S
C663 C679 1.429 . S
C663 H685 0.948 1_456 S
C664 H660 0.949 . S
C664 C672 1.574 . S
C664 C680 1.368 . S
H665 C673 0.931 1_655 S
H666 C671 0.925 1_655 S
H667 C672 0.949 . S
H668 C674 0.950 . S
H669 C675 0.950 . S
H670 C676 0.949 1_655 S
C671 H666 0.925 1_455 S
C671 C673 1.325 . S
C671 C677 1.460 . S
C672 C664 1.574 . S
C672 H667 0.949 . S
C672 C678 1.368 . S
C673 C657 1.365 . S
C673 H665 0.931 1_455 S
C673 C671 1.325 . S
C674 C662 1.316 1_556 S
C674 H668 0.950 . S
C674 C675 1.327 . S
C675 H669 0.950 . S
C675 C674 1.327 . S
C675 C679 1.429 . S
C676 C659 1.574 . S
C676 H670 0.949 1_455 S
C676 C680 1.368 . S
C677 C658 1.429 . S
C677 C671 1.460 . S
C677 C678 1.523 . S
C678 C659 1.368 . S
C678 C672 1.368 . S
C678 C677 1.523 . S
C679 C663 1.429 . S
C679 C675 1.429 . S
C679 C680 1.523 . S
C680 C664 1.368 . S
C680 C676 1.368 . S
C680 C679 1.523 . S
H681 C656 0.950 . S
H682 C658 0.950 . S
H683 C659 0.949 1_655 S
H684 C661 0.950 1_655 S
H685 C663 0.948 1_654 S
C686 C687 1.349 . S
C686 C688 1.327 . S
C686 H711 0.950 . S
C687 C686 1.349 . S
C687 C703 1.349 . S
C688 C686 1.327 . S
C688 C707 1.429 . S
C688 H712 0.950 . S
C689 C706 1.574 . S
C689 C708 1.368 . S
C689 H713 0.949 . S
H690 C694 0.949 . S
C691 C692 1.349 . S
C691 C693 1.327 . S
C691 H714 0.950 . S
C692 C691 1.349 . S
C692 C704 1.349 . S
C693 C691 1.327 . S
C693 C709 1.429 . S
C693 H715 0.950 . S
C694 H690 0.949 . S
C694 C702 1.574 . S
C694 C710 1.368 . S
H695 C703 0.950 . S
H696 C701 0.950 . S
H697 C702 0.949 . S
H698 C704 0.950 . S
H699 C705 0.950 . S
H700 C706 0.949 . S
C701 H696 0.950 . S
C701 C703 1.327 . S
C701 C707 1.429 . S
C702 C694 1.574 . S
C702 H697 0.949 . S
C702 C708 1.368 . S
C703 C687 1.349 . S
C703 H695 0.950 . S
C703 C701 1.327 . S
C704 C692 1.349 . S
C704 H698 0.950 . S
C704 C705 1.327 . S
C705 H699 0.950 . S
C705 C704 1.327 . S
C705 C709 1.429 . S
C706 C689 1.574 . S
C706 H700 0.949 . S
C706 C710 1.368 . S
C707 C688 1.429 . S
C707 C701 1.429 . S
C707 C708 1.523 . S
C708 C689 1.368 . S
C708 C702 1.368 . S
C708 C707 1.523 . S
C709 C693 1.429 . S
C709 C705 1.429 . S
C709 C710 1.523 . S
C710 C694 1.368 . S
C710 C706 1.368 . S
C710 C709 1.523 . S
H711 C686 0.950 . S
H712 C688 0.950 . S
H713 C689 0.949 . S
H714 C691 0.950 . S
H715 C693 0.950 . S
C716 C717 1.349 . S
C716 C718 1.327 . S
C716 H741 0.950 . S
C717 C716 1.349 . S
C717 C733 1.349 . S
C718 C716 1.327 . S
C718 C737 1.429 . S
C718 H742 0.950 . S
C719 C736 1.574 . S
C719 C738 1.368 . S
C719 H743 0.949 . S
H720 C724 0.949 . S
C721 C722 1.349 . S
C721 C723 1.327 . S
C721 H744 0.950 . S
C722 C721 1.349 . S
C722 C734 1.349 . S
C723 C721 1.327 . S
C723 C739 1.429 . S
C723 H745 0.950 . S
C724 H720 0.949 . S
C724 C732 1.574 . S
C724 C740 1.368 . S
H725 C733 0.950 . S
H726 C731 0.950 . S
H727 C732 0.949 . S
H728 C734 0.950 . S
H729 C735 0.950 . S
H730 C736 0.949 . S
C731 H726 0.950 . S
C731 C733 1.327 . S
C731 C737 1.429 . S
C732 C724 1.574 . S
C732 H727 0.949 . S
C732 C738 1.368 . S
C733 C717 1.349 . S
C733 H725 0.950 . S
C733 C731 1.327 . S
C734 C722 1.349 . S
C734 H728 0.950 . S
C734 C735 1.327 . S
C735 H729 0.950 . S
C735 C734 1.327 . S
C735 C739 1.429 . S
C736 C719 1.574 . S
C736 H730 0.949 . S
C736 C740 1.368 . S
C737 C718 1.429 . S
C737 C731 1.429 . S
C737 C738 1.523 . S
C738 C719 1.368 . S
C738 C732 1.368 . S
C738 C737 1.523 . S
C739 C723 1.429 . S
C739 C735 1.429 . S
C739 C740 1.523 . S
C740 C724 1.368 . S
C740 C736 1.368 . S
C740 C739 1.523 . S
H741 C716 0.950 . S
H742 C718 0.950 . S
H743 C719 0.949 . S
H744 C721 0.950 . S
H745 C723 0.950 . S
C746 C747 1.349 . S
C746 C748 1.327 . S
C746 H771 0.950 . S
C747 C746 1.349 . S
C747 C763 1.349 . S
C748 C746 1.327 . S
C748 C767 1.429 . S
C748 H772 0.950 . S
C749 C766 1.574 . S
C749 C768 1.368 . S
C749 H773 0.949 . S
H750 C754 0.949 . S
C751 C752 1.349 . S
C751 C753 1.327 . S
C751 H774 0.950 . S
C752 C751 1.349 . S
C752 C764 1.349 . S
C753 C751 1.327 . S
C753 C769 1.429 . S
C753 H775 0.950 . S
C754 H750 0.949 . S
C754 C762 1.574 . S
C754 C770 1.368 . S
H755 C763 0.950 . S
H756 C761 0.950 . S
H757 C762 0.949 . S
H758 C764 0.950 . S
H759 C765 0.950 . S
H760 C766 0.949 . S
C761 H756 0.950 . S
C761 C763 1.327 . S
C761 C767 1.429 . S
C762 C754 1.574 . S
C762 H757 0.949 . S
C762 C768 1.368 . S
C763 C747 1.349 . S
C763 H755 0.950 . S
C763 C761 1.327 . S
C764 C752 1.349 . S
C764 H758 0.950 . S
C764 C765 1.327 . S
C765 H759 0.950 . S
C765 C764 1.327 . S
C765 C769 1.429 . S
C766 C749 1.574 . S
C766 H760 0.949 . S
C766 C770 1.368 . S
C767 C748 1.429 . S
C767 C761 1.429 . S
C767 C768 1.523 . S
C768 C749 1.368 . S
C768 C762 1.368 . S
C768 C767 1.523 . S
C769 C753 1.429 . S
C769 C765 1.429 . S
C769 C770 1.523 . S
C770 C754 1.368 . S
C770 C766 1.368 . S
C770 C769 1.523 . S
H771 C746 0.950 . S
H772 C748 0.950 . S
H773 C749 0.949 . S
H774 C751 0.950 . S
H775 C753 0.950 . S
C776 C777 1.347 . S
C776 C778 1.331 . S
C776 H801 0.952 1_455 S
C777 C776 1.347 . S
C777 C793 1.349 . S
C778 C776 1.331 . S
C778 C797 1.442 . S
C778 H802 0.933 1_455 S
C779 C796 1.574 . S
C779 C798 1.368 . S
C779 H803 0.949 . S
H780 C784 0.949 1_655 S
C781 C782 1.349 . S
C781 C783 1.327 . S
C781 H804 0.909 1_565 S
C782 C781 1.349 . S
C782 C794 1.349 . S
C783 C781 1.327 . S
C783 C799 1.429 . S
C783 H805 0.950 . S
C784 H780 0.949 1_455 S
C784 C792 1.574 . S
C784 C800 1.368 . S
H785 C793 0.950 . S
H786 C791 0.950 . S
H787 C792 0.949 1_655 S
H788 C794 0.950 1_655 S
H789 C795 0.950 1_655 S
H790 C796 0.949 . S
C791 H786 0.950 . S
C791 C793 1.327 . S
C791 C797 1.429 . S
C792 C784 1.574 . S
C792 H787 0.949 1_455 S
C792 C798 1.368 . S
C793 C777 1.349 . S
C793 H785 0.950 . S
C793 C791 1.327 . S
C794 C782 1.349 . S
C794 H788 0.950 1_455 S
C794 C795 1.327 . S
C795 H789 0.950 1_455 S
C795 C794 1.327 . S
C795 C799 1.429 . S
C796 C779 1.574 . S
C796 H790 0.949 . S
C796 C800 1.368 . S
C797 C778 1.442 . S
C797 C791 1.429 . S
C797 C798 1.523 . S
C798 C779 1.368 . S
C798 C792 1.368 . S
C798 C797 1.523 . S
C799 C783 1.429 . S
C799 C795 1.429 . S
C799 C800 1.523 . S
C800 C784 1.368 . S
C800 C796 1.368 . S
C800 C799 1.523 . S
H801 C776 0.952 1_655 S
H802 C778 0.933 1_655 S
H803 C779 0.949 . S
H804 C781 0.909 1_545 S
H805 C783 0.950 . S
C806 C807 1.349 . S
C806 C808 1.327 . S
C806 H831 0.950 . S
C807 C806 1.349 . S
C807 C823 1.349 . S
C808 C806 1.327 . S
C808 C827 1.429 . S
C808 H832 0.950 . S
C809 C826 1.574 . S
C809 C828 1.368 . S
C809 H833 0.949 . S
H810 C814 0.949 . S
C811 C812 1.349 . S
C811 C813 1.327 . S
C811 H834 0.950 . S
C812 C811 1.349 . S
C812 C824 1.349 . S
C813 C811 1.327 . S
C813 C829 1.429 . S
C813 H835 0.950 . S
C814 H810 0.949 . S
C814 C822 1.574 . S
C814 C830 1.368 . S
H815 C823 0.950 . S
H816 C821 0.950 . S
H817 C822 0.949 . S
H818 C824 0.950 . S
H819 C825 0.950 . S
H820 C826 0.949 . S
C821 H816 0.950 . S
C821 C823 1.327 . S
C821 C827 1.429 . S
C822 C814 1.574 . S
C822 H817 0.949 . S
C822 C828 1.368 . S
C823 C807 1.349 . S
C823 H815 0.950 . S
C823 C821 1.327 . S
C824 C812 1.349 . S
C824 H818 0.950 . S
C824 C825 1.327 . S
C825 H819 0.950 . S
C825 C824 1.327 . S
C825 C829 1.429 . S
C826 C809 1.574 . S
C826 H820 0.949 . S
C826 C830 1.368 . S
C827 C808 1.429 . S
C827 C821 1.429 . S
C827 C828 1.523 . S
C828 C809 1.368 . S
C828 C822 1.368 . S
C828 C827 1.523 . S
C829 C813 1.429 . S
C829 C825 1.429 . S
C829 C830 1.523 . S
C830 C814 1.368 . S
C830 C826 1.368 . S
C830 C829 1.523 . S
H831 C806 0.950 . S
H832 C808 0.950 . S
H833 C809 0.949 . S
H834 C811 0.950 . S
H835 C813 0.950 . S
C836 C837 1.349 . S
C836 C838 1.327 . S
C836 H861 0.950 . S
C837 C836 1.349 . S
C837 C853 1.349 . S
C838 C836 1.327 . S
C838 C857 1.429 . S
C838 H862 0.950 . S
C839 C856 1.574 . S
C839 C858 1.368 . S
C839 H863 0.949 . S
H840 C844 0.949 . S
C841 C842 1.349 . S
C841 C843 1.327 . S
C841 H864 0.950 . S
C842 C841 1.349 . S
C842 C854 1.349 . S
C843 C841 1.327 . S
C843 C859 1.429 . S
C843 H865 0.950 . S
C844 H840 0.949 . S
C844 C852 1.574 . S
C844 C860 1.368 . S
H845 C853 0.950 . S
H846 C851 0.950 . S
H847 C852 0.949 . S
H848 C854 0.950 . S
H849 C855 0.950 . S
H850 C856 0.949 . S
C851 H846 0.950 . S
C851 C853 1.327 . S
C851 C857 1.429 . S
C852 C844 1.574 . S
C852 H847 0.949 . S
C852 C858 1.368 . S
C853 C837 1.349 . S
C853 H845 0.950 . S
C853 C851 1.327 . S
C854 C842 1.349 . S
C854 H848 0.950 . S
C854 C855 1.327 . S
C855 H849 0.950 . S
C855 C854 1.327 . S
C855 C859 1.429 . S
C856 C839 1.574 . S
C856 H850 0.949 . S
C856 C860 1.368 . S
C857 C838 1.429 . S
C857 C851 1.429 . S
C857 C858 1.523 . S
C858 C839 1.368 . S
C858 C852 1.368 . S
C858 C857 1.523 . S
C859 C843 1.429 . S
C859 C855 1.429 . S
C859 C860 1.523 . S
C860 C844 1.368 . S
C860 C856 1.368 . S
C860 C859 1.523 . S
H861 C836 0.950 . S
H862 C838 0.950 . S
H863 C839 0.949 . S
H864 C841 0.950 . S
H865 C843 0.950 . S
C866 C867 1.349 . S
C866 C868 1.327 . S
C866 H891 0.950 . S
C867 C866 1.349 . S
C867 C883 1.349 . S
C868 C866 1.327 . S
C868 C887 1.429 . S
C868 H892 0.950 . S
C869 C886 1.574 . S
C869 C888 1.368 . S
C869 H893 0.949 . S
H870 C874 0.949 . S
C871 C872 1.349 . S
C871 C873 1.327 . S
C871 H894 0.950 . S
C872 C871 1.349 . S
C872 C884 1.349 . S
C873 C871 1.327 . S
C873 C889 1.429 . S
C873 H895 0.950 . S
C874 H870 0.949 . S
C874 C882 1.574 . S
C874 C890 1.368 . S
H875 C883 0.950 . S
H876 C881 0.950 . S
H877 C882 0.949 . S
H878 C884 0.950 . S
H879 C885 0.950 . S
H880 C886 0.949 . S
C881 H876 0.950 . S
C881 C883 1.327 . S
C881 C887 1.429 . S
C882 C874 1.574 . S
C882 H877 0.949 . S
C882 C888 1.368 . S
C883 C867 1.349 . S
C883 H875 0.950 . S
C883 C881 1.327 . S
C884 C872 1.349 . S
C884 H878 0.950 . S
C884 C885 1.327 . S
C885 H879 0.950 . S
C885 C884 1.327 . S
C885 C889 1.429 . S
C886 C869 1.574 . S
C886 H880 0.949 . S
C886 C890 1.368 . S
C887 C868 1.429 . S
C887 C881 1.429 . S
C887 C888 1.523 . S
C888 C869 1.368 . S
C888 C882 1.368 . S
C888 C887 1.523 . S
C889 C873 1.429 . S
C889 C885 1.429 . S
C889 C890 1.523 . S
C890 C874 1.368 . S
C890 C886 1.368 . S
C890 C889 1.523 . S
H891 C866 0.950 . S
H892 C868 0.950 . S
H893 C869 0.949 . S
H894 C871 0.950 . S
H895 C873 0.950 . S
C896 C897 1.349 . S
C896 C898 1.327 . S
C896 H921 0.950 . S
C897 C896 1.349 . S
C897 C913 1.349 . S
C898 C896 1.327 . S
C898 C917 1.429 . S
C898 H922 0.950 . S
C899 C916 1.574 . S
C899 C918 1.368 . S
C899 H923 0.949 . S
H900 C904 0.949 . S
C901 C902 1.349 . S
C901 C903 1.327 . S
C901 H924 0.950 1_655 S
C902 C901 1.349 . S
C902 C914 1.349 . S
C903 C901 1.327 . S
C903 C919 1.429 . S
C903 H925 0.950 . S
C904 H900 0.949 . S
C904 C912 1.574 . S
C904 C920 1.368 . S
H905 C913 0.950 . S
H906 C911 0.950 . S
H907 C912 0.949 . S
H908 C914 0.950 . S
H909 C915 0.950 . S
H910 C916 0.949 . S
C911 H906 0.950 . S
C911 C913 1.327 . S
C911 C917 1.429 . S
C912 C904 1.574 . S
C912 H907 0.949 . S
C912 C918 1.368 . S
C913 C897 1.349 . S
C913 H905 0.950 . S
C913 C911 1.327 . S
C914 C902 1.349 . S
C914 H908 0.950 . S
C914 C915 1.327 . S
C915 H909 0.950 . S
C915 C914 1.327 . S
C915 C919 1.429 . S
C916 C899 1.574 . S
C916 H910 0.949 . S
C916 C920 1.368 . S
C917 C898 1.429 . S
C917 C911 1.429 . S
C917 C918 1.523 . S
C918 C899 1.368 . S
C918 C912 1.368 . S
C918 C917 1.523 . S
C919 C903 1.429 . S
C919 C915 1.429 . S
C919 C920 1.523 . S
C920 C904 1.368 . S
C920 C916 1.368 . S
C920 C919 1.523 . S
H921 C896 0.950 . S
H922 C898 0.950 . S
H923 C899 0.949 . S
H924 C901 0.950 1_455 S
H925 C903 0.950 . S
C926 C927 1.349 . S
C926 C928 1.327 . S
C926 H951 0.950 . S
C927 C926 1.349 . S
C927 C943 1.349 . S
C928 C926 1.327 . S
C928 C947 1.429 . S
C928 H952 0.950 . S
C929 C946 1.574 . S
C929 C948 1.368 . S
C929 H953 0.949 . S
H930 C934 0.949 . S
C931 C932 1.349 . S
C931 C933 1.327 . S
C931 H954 0.950 . S
C932 C931 1.349 . S
C932 C944 1.349 . S
C933 C931 1.327 . S
C933 C949 1.429 . S
C933 H955 0.950 . S
C934 H930 0.949 . S
C934 C942 1.574 . S
C934 C950 1.368 . S
H935 C943 0.950 . S
H936 C941 0.950 . S
H937 C942 0.949 . S
H938 C944 0.950 . S
H939 C945 0.950 . S
H940 C946 0.949 . S
C941 H936 0.950 . S
C941 C943 1.327 . S
C941 C947 1.429 . S
C942 C934 1.574 . S
C942 H937 0.949 . S
C942 C948 1.368 . S
C943 C927 1.349 . S
C943 H935 0.950 . S
C943 C941 1.327 . S
C944 C932 1.349 . S
C944 H938 0.950 . S
C944 C945 1.327 . S
C945 H939 0.950 . S
C945 C944 1.327 . S
C945 C949 1.429 . S
C946 C929 1.574 . S
C946 H940 0.949 . S
C946 C950 1.368 . S
C947 C928 1.429 . S
C947 C941 1.429 . S
C947 C948 1.523 . S
C948 C929 1.368 . S
C948 C942 1.368 . S
C948 C947 1.523 . S
C949 C933 1.429 . S
C949 C945 1.429 . S
C949 C950 1.523 . S
C950 C934 1.368 . S
C950 C946 1.368 . S
C950 C949 1.523 . S
H951 C926 0.950 . S
H952 C928 0.950 . S
H953 C929 0.949 . S
H954 C931 0.950 . S
H955 C933 0.950 . S
C956 C957 1.349 . S
C956 C958 1.327 . S
C956 H981 0.950 1_545 S
C957 C956 1.349 . S
C957 C973 1.349 . S
C958 C956 1.327 . S
C958 C977 1.429 . S
C958 H982 0.950 1_545 S
C959 C976 1.574 . S
C959 C978 1.368 . S
C959 H983 0.949 . S
H960 C964 0.949 . S
C961 C962 1.349 . S
C961 C963 1.327 . S
C961 H984 0.950 . S
C962 C961 1.349 . S
C962 C974 1.349 . S
C963 C961 1.327 . S
C963 C979 1.429 . S
C963 H985 0.950 . S
C964 H960 0.949 . S
C964 C972 1.574 . S
C964 C980 1.368 . S
H965 C973 0.950 . S
H966 C971 0.950 . S
H967 C972 0.924 1_565 S
H968 C974 0.950 . S
H969 C975 0.950 . S
H970 C976 0.949 . S
C971 H966 0.950 . S
C971 C973 1.327 . S
C971 C977 1.429 . S
C972 C964 1.574 . S
C972 H967 0.924 1_545 S
C972 C978 1.368 . S
C973 C957 1.349 . S
C973 H965 0.950 . S
C973 C971 1.327 . S
C974 C962 1.349 . S
C974 H968 0.950 . S
C974 C975 1.327 . S
C975 H969 0.950 . S
C975 C974 1.327 . S
C975 C979 1.429 . S
C976 C959 1.574 . S
C976 H970 0.949 . S
C976 C980 1.368 . S
C977 C958 1.429 . S
C977 C971 1.429 . S
C977 C978 1.523 . S
C978 C959 1.368 . S
C978 C972 1.368 . S
C978 C977 1.523 . S
C979 C963 1.429 . S
C979 C975 1.429 . S
C979 C980 1.523 . S
C980 C964 1.368 . S
C980 C976 1.368 . S
C980 C979 1.523 . S
H981 C956 0.950 1_565 S
H982 C958 0.950 1_565 S
H983 C959 0.949 . S
H984 C961 0.950 . S
H985 C963 0.950 . S
C986 C987 1.349 . S
C986 C988 1.327 . S
C986 H1011 0.950 . S
C987 C986 1.349 . S
C987 C1003 1.349 . S
C988 C986 1.327 . S
C988 C1007 1.429 . S
C988 H1012 0.950 . S
C989 C1006 1.574 . S
C989 C1008 1.368 . S
C989 H1013 0.949 . S
H990 C994 0.949 . S
C991 C992 1.349 . S
C991 C993 1.327 . S
C991 H1014 0.950 . S
C992 C991 1.349 . S
C992 C1004 1.349 . S
C993 C991 1.327 . S
C993 C1009 1.429 . S
C993 H1015 0.950 . S
C994 H990 0.949 . S
C994 C1002 1.574 . S
C994 C1010 1.368 . S
H995 C1003 0.950 . S
H996 C1001 0.950 . S
H997 C1002 0.949 . S
H998 C1004 0.950 . S
H999 C1005 0.950 . S
H1000 C1006 0.949 . S
C1001 H996 0.950 . S
C1001 C1003 1.327 . S
C1001 C1007 1.429 . S
C1002 C994 1.574 . S
C1002 H997 0.949 . S
C1002 C1008 1.368 . S
C1003 C987 1.349 . S
C1003 H995 0.950 . S
C1003 C1001 1.327 . S
C1004 C992 1.349 . S
C1004 H998 0.950 . S
C1004 C1005 1.327 . S
C1005 H999 0.950 . S
C1005 C1004 1.327 . S
C1005 C1009 1.429 . S
C1006 C989 1.574 . S
C1006 H1000 0.949 . S
C1006 C1010 1.368 . S
C1007 C988 1.429 . S
C1007 C1001 1.429 . S
C1007 C1008 1.523 . S
C1008 C989 1.368 . S
C1008 C1002 1.368 . S
C1008 C1007 1.523 . S
C1009 C993 1.429 . S
C1009 C1005 1.429 . S
C1009 C1010 1.523 . S
C1010 C994 1.368 . S
C1010 C1006 1.368 . S
C1010 C1009 1.523 . S
H1011 C986 0.950 . S
H1012 C988 0.950 . S
H1013 C989 0.949 . S
H1014 C991 0.950 . S
H1015 C993 0.950 . S
C1016 C1017 1.349 . S
C1016 C1018 1.327 . S
C1016 H1041 0.950 . S
C1017 C1016 1.349 . S
C1017 C1033 1.349 . S
C1018 C1016 1.327 . S
C1018 C1037 1.429 . S
C1018 H1042 0.950 . S
C1019 C1036 1.574 . S
C1019 C1038 1.368 . S
C1019 H1043 0.949 . S
H1020 C1024 0.949 . S
C1021 C1022 1.352 . S
C1021 C1023 1.310 1_455 S
C1021 H1044 0.950 . S
C1022 C1021 1.352 . S
C1022 C1034 1.344 1_455 S
C1023 C1021 1.310 1_655 S
C1023 C1039 1.472 . S
C1023 H1045 0.924 1_655 S
C1024 H1020 0.949 . S
C1024 C1032 1.574 . S
C1024 C1040 1.368 . S
H1025 C1033 0.950 . S
H1026 C1031 0.950 . S
H1027 C1032 0.949 . S
H1028 C1034 0.950 . S
H1029 C1035 0.950 . S
H1030 C1036 0.949 . S
C1031 H1026 0.950 . S
C1031 C1033 1.327 . S
C1031 C1037 1.429 . S
C1032 C1024 1.574 . S
C1032 H1027 0.949 . S
C1032 C1038 1.368 . S
C1033 C1017 1.349 . S
C1033 H1025 0.950 . S
C1033 C1031 1.327 . S
C1034 C1022 1.344 1_655 S
C1034 H1028 0.950 . S
C1034 C1035 1.327 . S
C1035 H1029 0.950 . S
C1035 C1034 1.327 . S
C1035 C1039 1.429 . S
C1036 C1019 1.574 . S
C1036 H1030 0.949 . S
C1036 C1040 1.368 . S
C1037 C1018 1.429 . S
C1037 C1031 1.429 . S
C1037 C1038 1.523 . S
C1038 C1019 1.368 . S
C1038 C1032 1.368 . S
C1038 C1037 1.523 . S
C1039 C1023 1.472 . S
C1039 C1035 1.429 . S
C1039 C1040 1.523 . S
C1040 C1024 1.368 . S
C1040 C1036 1.368 . S
C1040 C1039 1.523 . S
H1041 C1016 0.950 . S
H1042 C1018 0.950 . S
H1043 C1019 0.949 . S
H1044 C1021 0.950 . S
H1045 C1023 0.924 1_455 S
C1046 C1047 1.349 . S
C1046 C1048 1.327 . S
C1046 H1071 0.950 . S
C1047 C1046 1.349 . S
C1047 C1063 1.349 . S
C1048 C1046 1.327 . S
C1048 C1067 1.429 . S
C1048 H1072 0.950 . S
C1049 C1066 1.574 . S
C1049 C1068 1.368 . S
C1049 H1073 0.949 . S
H1050 C1054 0.949 . S
C1051 C1052 1.349 . S
C1051 C1053 1.327 . S
C1051 H1074 0.950 . S
C1052 C1051 1.349 . S
C1052 C1064 1.349 . S
C1053 C1051 1.327 . S
C1053 C1069 1.429 . S
C1053 H1075 0.950 . S
C1054 H1050 0.949 . S
C1054 C1062 1.574 . S
C1054 C1070 1.368 . S
H1055 C1063 0.950 . S
H1056 C1061 0.950 . S
H1057 C1062 0.949 . S
H1058 C1064 0.950 . S
H1059 C1065 0.950 . S
H1060 C1066 0.949 . S
C1061 H1056 0.950 . S
C1061 C1063 1.327 . S
C1061 C1067 1.429 . S
C1062 C1054 1.574 . S
C1062 H1057 0.949 . S
C1062 C1068 1.368 . S
C1063 C1047 1.349 . S
C1063 H1055 0.950 . S
C1063 C1061 1.327 . S
C1064 C1052 1.349 . S
C1064 H1058 0.950 . S
C1064 C1065 1.327 . S
C1065 H1059 0.950 . S
C1065 C1064 1.327 . S
C1065 C1069 1.429 . S
C1066 C1049 1.574 . S
C1066 H1060 0.949 . S
C1066 C1070 1.368 . S
C1067 C1048 1.429 . S
C1067 C1061 1.429 . S
C1067 C1068 1.523 . S
C1068 C1049 1.368 . S
C1068 C1062 1.368 . S
C1068 C1067 1.523 . S
C1069 C1053 1.429 . S
C1069 C1065 1.429 . S
C1069 C1070 1.523 . S
C1070 C1054 1.368 . S
C1070 C1066 1.368 . S
C1070 C1069 1.523 . S
H1071 C1046 0.950 . S
H1072 C1048 0.950 . S
H1073 C1049 0.949 . S
H1074 C1051 0.950 . S
H1075 C1053 0.950 . S
C1076 C1077 1.349 . S
C1076 C1078 1.327 . S
C1076 H1101 0.950 . S
C1077 C1076 1.349 . S
C1077 C1093 1.349 . S
C1078 C1076 1.327 . S
C1078 C1097 1.429 . S
C1078 H1102 0.950 . S
C1079 C1096 1.574 . S
C1079 C1098 1.368 . S
C1079 H1103 0.949 . S
H1080 C1084 0.949 . S
C1081 C1082 1.349 . S
C1081 C1083 1.327 . S
C1081 H1104 0.950 . S
C1082 C1081 1.349 . S
C1082 C1094 1.349 . S
C1083 C1081 1.327 . S
C1083 C1099 1.429 . S
C1083 H1105 0.950 . S
C1084 H1080 0.949 . S
C1084 C1092 1.574 . S
C1084 C1100 1.368 . S
H1085 C1093 0.950 . S
H1086 C1091 0.950 . S
H1087 C1092 0.949 . S
H1088 C1094 0.950 . S
H1089 C1095 0.950 . S
H1090 C1096 0.949 . S
C1091 H1086 0.950 . S
C1091 C1093 1.327 . S
C1091 C1097 1.429 . S
C1092 C1084 1.574 . S
C1092 H1087 0.949 . S
C1092 C1098 1.368 . S
C1093 C1077 1.349 . S
C1093 H1085 0.950 . S
C1093 C1091 1.327 . S
C1094 C1082 1.349 . S
C1094 H1088 0.950 . S
C1094 C1095 1.327 . S
C1095 H1089 0.950 . S
C1095 C1094 1.327 . S
C1095 C1099 1.429 . S
C1096 C1079 1.574 . S
C1096 H1090 0.949 . S
C1096 C1100 1.368 . S
C1097 C1078 1.429 . S
C1097 C1091 1.429 . S
C1097 C1098 1.523 . S
C1098 C1079 1.368 . S
C1098 C1092 1.368 . S
C1098 C1097 1.523 . S
C1099 C1083 1.429 . S
C1099 C1095 1.429 . S
C1099 C1100 1.523 . S
C1100 C1084 1.368 . S
C1100 C1096 1.368 . S
C1100 C1099 1.523 . S
H1101 C1076 0.950 . S
H1102 C1078 0.950 . S
H1103 C1079 0.949 . S
H1104 C1081 0.950 . S
H1105 C1083 0.950 . S
C1106 C1107 1.349 . S
C1106 C1108 1.327 . S
C1106 H1131 0.950 . S
C1107 C1106 1.349 . S
C1107 C1123 1.349 . S
C1108 C1106 1.327 . S
C1108 C1127 1.429 . S
C1108 H1132 0.950 . S
C1109 C1126 1.574 . S
C1109 C1128 1.368 . S
C1109 H1133 0.949 . S
H1110 C1114 0.949 . S
C1111 C1112 1.349 . S
C1111 C1113 1.327 . S
C1111 H1134 0.950 . S
C1112 C1111 1.349 . S
C1112 C1124 1.349 . S
C1113 C1111 1.327 . S
C1113 C1129 1.429 . S
C1113 H1135 0.950 . S
C1114 H1110 0.949 . S
C1114 C1122 1.574 . S
C1114 C1130 1.368 . S
H1115 C1123 0.950 . S
H1116 C1121 0.950 . S
H1117 C1122 0.949 . S
H1118 C1124 0.950 . S
H1119 C1125 0.950 . S
H1120 C1126 0.949 . S
C1121 H1116 0.950 . S
C1121 C1123 1.327 . S
C1121 C1127 1.429 . S
C1122 C1114 1.574 . S
C1122 H1117 0.949 . S
C1122 C1128 1.368 . S
C1123 C1107 1.349 . S
C1123 H1115 0.950 . S
C1123 C1121 1.327 . S
C1124 C1112 1.349 . S
C1124 H1118 0.950 . S
C1124 C1125 1.327 . S
C1125 H1119 0.950 . S
C1125 C1124 1.327 . S
C1125 C1129 1.429 . S
C1126 C1109 1.574 . S
C1126 H1120 0.949 . S
C1126 C1130 1.368 . S
C1127 C1108 1.429 . S
C1127 C1121 1.429 . S
C1127 C1128 1.523 . S
C1128 C1109 1.368 . S
C1128 C1122 1.368 . S
C1128 C1127 1.523 . S
C1129 C1113 1.429 . S
C1129 C1125 1.429 . S
C1129 C1130 1.523 . S
C1130 C1114 1.368 . S
C1130 C1126 1.368 . S
C1130 C1129 1.523 . S
H1131 C1106 0.950 . S
H1132 C1108 0.950 . S
H1133 C1109 0.949 . S
H1134 C1111 0.950 . S
H1135 C1113 0.950 . S
C1136 C1137 1.349 . S
C1136 C1138 1.327 . S
C1136 H1161 0.950 . S
C1137 C1136 1.349 . S
C1137 C1153 1.349 . S
C1138 C1136 1.327 . S
C1138 C1157 1.429 . S
C1138 H1162 0.950 . S
C1139 C1156 1.574 . S
C1139 C1158 1.368 . S
C1139 H1163 0.949 . S
H1140 C1144 0.949 . S
C1141 C1142 1.349 . S
C1141 C1143 1.327 . S
C1141 H1164 0.950 . S
C1142 C1141 1.349 . S
C1142 C1154 1.349 . S
C1143 C1141 1.327 . S
C1143 C1159 1.429 1_545 S
C1143 H1165 0.950 . S
C1144 H1140 0.949 . S
C1144 C1152 1.574 . S
C1144 C1160 1.368 . S
H1145 C1153 0.950 . S
H1146 C1151 0.950 . S
H1147 C1152 0.949 . S
H1148 C1154 0.950 . S
H1149 C1155 0.950 . S
H1150 C1156 0.949 1_545 S
C1151 H1146 0.950 . S
C1151 C1153 1.327 . S
C1151 C1157 1.429 . S
C1152 C1144 1.574 . S
C1152 H1147 0.949 . S
C1152 C1158 1.368 . S
C1153 C1137 1.349 . S
C1153 H1145 0.950 . S
C1153 C1151 1.327 . S
C1154 C1142 1.349 . S
C1154 H1148 0.950 . S
C1154 C1155 1.327 1_545 S
C1155 H1149 0.950 . S
C1155 C1154 1.327 1_565 S
C1155 C1159 1.429 . S
C1156 C1139 1.574 . S
C1156 H1150 0.949 1_565 S
C1156 C1160 1.368 . S
C1157 C1138 1.429 . S
C1157 C1151 1.429 . S
C1157 C1158 1.523 . S
C1158 C1139 1.368 . S
C1158 C1152 1.368 . S
C1158 C1157 1.523 . S
C1159 C1143 1.429 1_565 S
C1159 C1155 1.429 . S
C1159 C1160 1.523 . S
C1160 C1144 1.368 . S
C1160 C1156 1.368 . S
C1160 C1159 1.523 . S
H1161 C1136 0.950 . S
H1162 C1138 0.950 . S
H1163 C1139 0.949 . S
H1164 C1141 0.950 . S
H1165 C1143 0.950 . S
C1166 C1167 1.380 . S
C1166 C1168 1.327 . S
C1166 H1191 0.912 1_554 S
C1167 C1166 1.380 . S
C1167 C1183 1.349 . S
C1168 C1166 1.327 . S
C1168 C1187 1.469 . S
C1168 H1192 0.919 1_554 S
C1169 C1186 1.574 . S
C1169 C1188 1.368 . S
C1169 H1193 0.949 . S
H1170 C1174 0.949 1_556 S
C1171 C1172 1.349 . S
C1171 C1173 1.327 . S
C1171 H1194 0.950 . S
C1172 C1171 1.349 . S
C1172 C1184 1.349 . S
C1173 C1171 1.327 . S
C1173 C1189 1.429 . S
C1173 H1195 0.950 . S
C1174 H1170 0.949 1_554 S
C1174 C1182 1.574 . S
C1174 C1190 1.368 . S
H1175 C1183 0.950 . S
H1176 C1181 0.950 . S
H1177 C1182 0.949 1_556 S
H1178 C1184 0.950 1_556 S
H1179 C1185 0.950 1_556 S
H1180 C1186 0.949 . S
C1181 H1176 0.950 . S
C1181 C1183 1.327 . S
C1181 C1187 1.429 . S
C1182 C1174 1.574 . S
C1182 H1177 0.949 1_554 S
C1182 C1188 1.368 . S
C1183 C1167 1.349 . S
C1183 H1175 0.950 . S
C1183 C1181 1.327 . S
C1184 C1172 1.349 . S
C1184 H1178 0.950 1_554 S
C1184 C1185 1.327 . S
C1185 H1179 0.950 1_554 S
C1185 C1184 1.327 . S
C1185 C1189 1.429 . S
C1186 C1169 1.574 . S
C1186 H1180 0.949 . S
C1186 C1190 1.368 . S
C1187 C1168 1.469 . S
C1187 C1181 1.429 . S
C1187 C1188 1.523 . S
C1188 C1169 1.368 . S
C1188 C1182 1.368 . S
C1188 C1187 1.523 . S
C1189 C1173 1.429 . S
C1189 C1185 1.429 . S
C1189 C1190 1.523 . S
C1190 C1174 1.368 . S
C1190 C1186 1.368 . S
C1190 C1189 1.523 . S
H1191 C1166 0.912 1_556 S
H1192 C1168 0.919 1_556 S
H1193 C1169 0.949 . S
H1194 C1171 0.950 . S
H1195 C1173 0.950 . S
C1196 C1197 1.349 . S
C1196 C1198 1.327 . S
C1196 H1221 0.950 . S
C1197 C1196 1.349 . S
C1197 C1213 1.349 . S
C1198 C1196 1.327 . S
C1198 C1217 1.429 . S
C1198 H1222 0.950 . S
C1199 C1216 1.574 . S
C1199 C1218 1.368 . S
C1199 H1223 0.949 . S
H1200 C1204 0.949 . S
C1201 C1202 1.349 . S
C1201 C1203 1.327 . S
C1201 H1224 0.950 . S
C1202 C1201 1.349 . S
C1202 C1214 1.349 . S
C1203 C1201 1.327 . S
C1203 C1219 1.429 . S
C1203 H1225 0.950 . S
C1204 H1200 0.949 . S
C1204 C1212 1.574 . S
C1204 C1220 1.368 . S
H1205 C1213 0.950 . S
H1206 C1211 0.950 . S
H1207 C1212 0.949 . S
H1208 C1214 0.950 . S
H1209 C1215 0.950 . S
H1210 C1216 0.949 . S
C1211 H1206 0.950 . S
C1211 C1213 1.327 . S
C1211 C1217 1.429 . S
C1212 C1204 1.574 . S
C1212 H1207 0.949 . S
C1212 C1218 1.368 . S
C1213 C1197 1.349 . S
C1213 H1205 0.950 . S
C1213 C1211 1.327 . S
C1214 C1202 1.349 . S
C1214 H1208 0.950 . S
C1214 C1215 1.327 . S
C1215 H1209 0.950 . S
C1215 C1214 1.327 . S
C1215 C1219 1.429 . S
C1216 C1199 1.574 . S
C1216 H1210 0.949 . S
C1216 C1220 1.368 . S
C1217 C1198 1.429 . S
C1217 C1211 1.429 . S
C1217 C1218 1.523 . S
C1218 C1199 1.368 . S
C1218 C1212 1.368 . S
C1218 C1217 1.523 . S
C1219 C1203 1.429 . S
C1219 C1215 1.429 . S
C1219 C1220 1.523 . S
C1220 C1204 1.368 . S
C1220 C1216 1.368 . S
C1220 C1219 1.523 . S
H1221 C1196 0.950 . S
H1222 C1198 0.950 . S
H1223 C1199 0.949 . S
H1224 C1201 0.950 . S
H1225 C1203 0.950 . S
C1226 C1227 1.349 . S
C1226 C1228 1.327 . S
C1226 H1251 0.950 . S
C1227 C1226 1.349 . S
C1227 C1243 1.349 . S
C1228 C1226 1.327 . S
C1228 C1247 1.429 . S
C1228 H1252 0.950 . S
C1229 C1246 1.574 . S
C1229 C1248 1.368 . S
C1229 H1253 0.949 . S
H1230 C1234 0.949 . S
C1231 C1232 1.349 . S
C1231 C1233 1.327 . S
C1231 H1254 0.950 . S
C1232 C1231 1.349 . S
C1232 C1244 1.349 . S
C1233 C1231 1.327 . S
C1233 C1249 1.429 . S
C1233 H1255 0.950 . S
C1234 H1230 0.949 . S
C1234 C1242 1.574 . S
C1234 C1250 1.368 . S
H1235 C1243 0.950 . S
H1236 C1241 0.950 . S
H1237 C1242 0.949 . S
H1238 C1244 0.950 . S
H1239 C1245 0.950 . S
H1240 C1246 0.949 . S
C1241 H1236 0.950 . S
C1241 C1243 1.327 . S
C1241 C1247 1.429 . S
C1242 C1234 1.574 . S
C1242 H1237 0.949 . S
C1242 C1248 1.368 . S
C1243 C1227 1.349 . S
C1243 H1235 0.950 . S
C1243 C1241 1.327 . S
C1244 C1232 1.349 . S
C1244 H1238 0.950 . S
C1244 C1245 1.327 . S
C1245 H1239 0.950 . S
C1245 C1244 1.327 . S
C1245 C1249 1.429 . S
C1246 C1229 1.574 . S
C1246 H1240 0.949 . S
C1246 C1250 1.368 . S
C1247 C1228 1.429 . S
C1247 C1241 1.429 . S
C1247 C1248 1.523 . S
C1248 C1229 1.368 . S
C1248 C1242 1.368 . S
C1248 C1247 1.523 . S
C1249 C1233 1.429 . S
C1249 C1245 1.429 . S
C1249 C1250 1.523 . S
C1250 C1234 1.368 . S
C1250 C1246 1.368 . S
C1250 C1249 1.523 . S
H1251 C1226 0.950 . S
H1252 C1228 0.950 . S
H1253 C1229 0.949 . S
H1254 C1231 0.950 . S
H1255 C1233 0.950 . S
C1256 C1257 1.349 . S
C1256 C1258 1.327 . S
C1256 H1281 0.950 . S
C1257 C1256 1.349 . S
C1257 C1273 1.349 . S
C1258 C1256 1.327 . S
C1258 C1277 1.429 . S
C1258 H1282 0.950 . S
C1259 C1276 1.574 . S
C1259 C1278 1.368 . S
C1259 H1283 0.949 . S
H1260 C1264 0.949 . S
C1261 C1262 1.349 . S
C1261 C1263 1.327 . S
C1261 H1284 0.950 . S
C1262 C1261 1.349 . S
C1262 C1274 1.349 . S
C1263 C1261 1.327 . S
C1263 C1279 1.429 . S
C1263 H1285 0.950 . S
C1264 H1260 0.949 . S
C1264 C1272 1.574 . S
C1264 C1280 1.368 . S
H1265 C1273 0.950 . S
H1266 C1271 0.950 . S
H1267 C1272 0.949 . S
H1268 C1274 0.950 . S
H1269 C1275 0.950 . S
H1270 C1276 0.949 . S
C1271 H1266 0.950 . S
C1271 C1273 1.327 . S
C1271 C1277 1.429 . S
C1272 C1264 1.574 . S
C1272 H1267 0.949 . S
C1272 C1278 1.368 . S
C1273 C1257 1.349 . S
C1273 H1265 0.950 . S
C1273 C1271 1.327 . S
C1274 C1262 1.349 . S
C1274 H1268 0.950 . S
C1274 C1275 1.327 . S
C1275 H1269 0.950 . S
C1275 C1274 1.327 . S
C1275 C1279 1.429 . S
C1276 C1259 1.574 . S
C1276 H1270 0.949 . S
C1276 C1280 1.368 . S
C1277 C1258 1.429 . S
C1277 C1271 1.429 . S
C1277 C1278 1.523 . S
C1278 C1259 1.368 . S
C1278 C1272 1.368 . S
C1278 C1277 1.523 . S
C1279 C1263 1.429 . S
C1279 C1275 1.429 . S
C1279 C1280 1.523 . S
C1280 C1264 1.368 . S
C1280 C1276 1.368 . S
C1280 C1279 1.523 . S
H1281 C1256 0.950 . S
H1282 C1258 0.950 . S
H1283 C1259 0.949 . S
H1284 C1261 0.950 . S
H1285 C1263 0.950 . S
C1286 C1287 1.349 . S
C1286 C1288 1.327 . S
C1286 H1311 0.950 . S
C1287 C1286 1.349 . S
C1287 C1303 1.349 . S
C1288 C1286 1.327 . S
C1288 C1307 1.429 . S
C1288 H1312 0.950 . S
C1289 C1306 1.574 . S
C1289 C1308 1.368 . S
C1289 H1313 0.949 . S
H1290 C1294 0.949 . S
C1291 C1292 1.349 . S
C1291 C1293 1.327 . S
C1291 H1314 0.950 . S
C1292 C1291 1.349 . S
C1292 C1304 1.349 . S
C1293 C1291 1.327 . S
C1293 C1309 1.429 . S
C1293 H1315 0.950 . S
C1294 H1290 0.949 . S
C1294 C1302 1.574 . S
C1294 C1310 1.368 . S
H1295 C1303 0.950 . S
H1296 C1301 0.950 . S
H1297 C1302 0.949 . S
H1298 C1304 0.950 . S
H1299 C1305 0.950 . S
H1300 C1306 0.949 . S
C1301 H1296 0.950 . S
C1301 C1303 1.327 . S
C1301 C1307 1.429 . S
C1302 C1294 1.574 . S
C1302 H1297 0.949 . S
C1302 C1308 1.368 . S
C1303 C1287 1.349 . S
C1303 H1295 0.950 . S
C1303 C1301 1.327 . S
C1304 C1292 1.349 . S
C1304 H1298 0.950 . S
C1304 C1305 1.327 . S
C1305 H1299 0.950 . S
C1305 C1304 1.327 . S
C1305 C1309 1.429 . S
C1306 C1289 1.574 . S
C1306 H1300 0.949 . S
C1306 C1310 1.368 . S
C1307 C1288 1.429 . S
C1307 C1301 1.429 . S
C1307 C1308 1.523 . S
C1308 C1289 1.368 . S
C1308 C1302 1.368 . S
C1308 C1307 1.523 . S
C1309 C1293 1.429 . S
C1309 C1305 1.429 . S
C1309 C1310 1.523 . S
C1310 C1294 1.368 . S
C1310 C1306 1.368 . S
C1310 C1309 1.523 . S
H1311 C1286 0.950 . S
H1312 C1288 0.950 . S
H1313 C1289 0.949 . S
H1314 C1291 0.950 . S
H1315 C1293 0.950 . S
C1316 C1317 1.349 . S
C1316 C1318 1.327 . S
C1316 H1341 0.950 . S
C1317 C1316 1.349 . S
C1317 C1333 1.349 . S
C1318 C1316 1.327 . S
C1318 C1337 1.429 . S
C1318 H1342 0.950 . S
C1319 C1336 1.574 . S
C1319 C1338 1.368 . S
C1319 H1343 0.949 . S
H1320 C1324 0.949 . S
C1321 C1322 1.349 . S
C1321 C1323 1.327 . S
C1321 H1344 0.950 . S
C1322 C1321 1.349 . S
C1322 C1334 1.349 . S
C1323 C1321 1.327 . S
C1323 C1339 1.429 . S
C1323 H1345 0.950 . S
C1324 H1320 0.949 . S
C1324 C1332 1.574 . S
C1324 C1340 1.368 . S
H1325 C1333 0.950 . S
H1326 C1331 0.950 . S
H1327 C1332 0.949 . S
H1328 C1334 0.950 . S
H1329 C1335 0.950 . S
H1330 C1336 0.949 . S
C1331 H1326 0.950 . S
C1331 C1333 1.327 . S
C1331 C1337 1.429 . S
C1332 C1324 1.574 . S
C1332 H1327 0.949 . S
C1332 C1338 1.368 . S
C1333 C1317 1.349 . S
C1333 H1325 0.950 . S
C1333 C1331 1.327 . S
C1334 C1322 1.349 . S
C1334 H1328 0.950 . S
C1334 C1335 1.327 . S
C1335 H1329 0.950 . S
C1335 C1334 1.327 . S
C1335 C1339 1.429 . S
C1336 C1319 1.574 . S
C1336 H1330 0.949 . S
C1336 C1340 1.368 . S
C1337 C1318 1.429 . S
C1337 C1331 1.429 . S
C1337 C1338 1.523 . S
C1338 C1319 1.368 . S
C1338 C1332 1.368 . S
C1338 C1337 1.523 . S
C1339 C1323 1.429 . S
C1339 C1335 1.429 . S
C1339 C1340 1.523 . S
C1340 C1324 1.368 . S
C1340 C1336 1.368 . S
C1340 C1339 1.523 . S
H1341 C1316 0.950 . S
H1342 C1318 0.950 . S
H1343 C1319 0.949 . S
H1344 C1321 0.950 . S
H1345 C1323 0.950 . S
C1346 C1347 1.349 . S
C1346 C1348 1.327 . S
C1346 H1371 0.950 . S
C1347 C1346 1.349 . S
C1347 C1363 1.349 . S
C1348 C1346 1.327 . S
C1348 C1367 1.429 . S
C1348 H1372 0.950 . S
C1349 C1366 1.574 . S
C1349 C1368 1.368 . S
C1349 H1373 0.949 . S
H1350 C1354 0.949 . S
C1351 C1352 1.349 . S
C1351 C1353 1.327 . S
C1351 H1374 0.950 . S
C1352 C1351 1.349 . S
C1352 C1364 1.349 . S
C1353 C1351 1.327 . S
C1353 C1369 1.429 . S
C1353 H1375 0.950 . S
C1354 H1350 0.949 . S
C1354 C1362 1.574 . S
C1354 C1370 1.368 . S
H1355 C1363 0.950 . S
H1356 C1361 0.950 . S
H1357 C1362 0.949 . S
H1358 C1364 0.950 . S
H1359 C1365 0.950 . S
H1360 C1366 0.949 . S
C1361 H1356 0.950 . S
C1361 C1363 1.327 . S
C1361 C1367 1.429 . S
C1362 C1354 1.574 . S
C1362 H1357 0.949 . S
C1362 C1368 1.368 . S
C1363 C1347 1.349 . S
C1363 H1355 0.950 . S
C1363 C1361 1.327 . S
C1364 C1352 1.349 . S
C1364 H1358 0.950 . S
C1364 C1365 1.327 . S
C1365 H1359 0.950 . S
C1365 C1364 1.327 . S
C1365 C1369 1.429 . S
C1366 C1349 1.574 . S
C1366 H1360 0.949 . S
C1366 C1370 1.368 . S
C1367 C1348 1.429 . S
C1367 C1361 1.429 . S
C1367 C1368 1.523 . S
C1368 C1349 1.368 . S
C1368 C1362 1.368 . S
C1368 C1367 1.523 . S
C1369 C1353 1.429 . S
C1369 C1365 1.429 . S
C1369 C1370 1.523 . S
C1370 C1354 1.368 . S
C1370 C1366 1.368 . S
C1370 C1369 1.523 . S
H1371 C1346 0.950 . S
H1372 C1348 0.950 . S
H1373 C1349 0.949 . S
H1374 C1351 0.950 . S
H1375 C1353 0.950 . S
C1376 C1377 1.349 . S
C1376 C1378 1.327 . S
C1376 H1401 0.950 1_455 S
C1377 C1376 1.349 . S
C1377 C1393 1.349 . S
C1378 C1376 1.327 . S
C1378 C1397 1.429 . S
C1378 H1402 0.950 1_455 S
C1379 C1396 1.574 . S
C1379 C1398 1.368 . S
C1379 H1403 0.949 . S
H1380 C1384 0.953 1_655 S
C1381 C1382 1.349 . S
C1381 C1383 1.327 . S
C1381 H1404 0.950 . S
C1382 C1381 1.349 . S
C1382 C1394 1.349 1_455 S
C1383 C1381 1.327 . S
C1383 C1399 1.429 . S
C1383 H1405 0.950 . S
C1384 H1380 0.953 1_455 S
C1384 C1392 1.565 . S
C1384 C1400 1.365 . S
H1385 C1393 0.950 . S
H1386 C1391 0.950 . S
H1387 C1392 0.926 1_655 S
H1388 C1394 0.950 . S
H1389 C1395 0.978 . S
H1390 C1396 0.949 . S
C1391 H1386 0.950 . S
C1391 C1393 1.327 . S
C1391 C1397 1.429 . S
C1392 C1384 1.565 . S
C1392 H1387 0.926 1_455 S
C1392 C1398 1.405 . S
C1393 C1377 1.349 . S
C1393 H1385 0.950 . S
C1393 C1391 1.327 . S
C1394 C1382 1.349 1_655 S
C1394 H1388 0.950 . S
C1394 C1395 1.337 . S
C1395 H1389 0.978 . S
C1395 C1394 1.337 . S
C1395 C1399 1.395 1_655 S
C1396 C1379 1.574 . S
C1396 H1390 0.949 . S
C1396 C1400 1.368 . S
C1397 C1378 1.429 . S
C1397 C1391 1.429 . S
C1397 C1398 1.523 . S
C1398 C1379 1.368 . S
C1398 C1392 1.405 . S
C1398 C1397 1.523 . S
C1399 C1383 1.429 . S
C1399 C1395 1.395 1_455 S
C1399 C1400 1.523 . S
C1400 C1384 1.365 . S
C1400 C1396 1.368 . S
C1400 C1399 1.523 . S
H1401 C1376 0.950 1_655 S
H1402 C1378 0.950 1_655 S
H1403 C1379 0.949 . S
H1404 C1381 0.950 . S
H1405 C1383 0.950 . S
C1406 C1407 1.349 . S
C1406 C1408 1.327 . S
C1406 H1431 0.950 . S
C1407 C1406 1.349 . S
C1407 C1423 1.349 . S
C1408 C1406 1.327 . S
C1408 C1427 1.429 . S
C1408 H1432 0.950 . S
C1409 C1426 1.574 . S
C1409 C1428 1.368 . S
C1409 H1433 0.949 . S
H1410 C1414 0.949 . S
C1411 C1412 1.349 . S
C1411 C1413 1.327 . S
C1411 H1434 0.950 . S
C1412 C1411 1.349 . S
C1412 C1424 1.349 . S
C1413 C1411 1.327 . S
C1413 C1429 1.429 . S
C1413 H1435 0.950 . S
C1414 H1410 0.949 . S
C1414 C1422 1.574 . S
C1414 C1430 1.368 . S
H1415 C1423 0.950 . S
H1416 C1421 0.950 . S
H1417 C1422 0.949 . S
H1418 C1424 0.950 . S
H1419 C1425 0.950 . S
H1420 C1426 0.949 . S
C1421 H1416 0.950 . S
C1421 C1423 1.327 . S
C1421 C1427 1.429 . S
C1422 C1414 1.574 . S
C1422 H1417 0.949 . S
C1422 C1428 1.368 . S
C1423 C1407 1.349 . S
C1423 H1415 0.950 . S
C1423 C1421 1.327 . S
C1424 C1412 1.349 . S
C1424 H1418 0.950 . S
C1424 C1425 1.327 . S
C1425 H1419 0.950 . S
C1425 C1424 1.327 . S
C1425 C1429 1.429 . S
C1426 C1409 1.574 . S
C1426 H1420 0.949 . S
C1426 C1430 1.368 . S
C1427 C1408 1.429 . S
C1427 C1421 1.429 . S
C1427 C1428 1.523 . S
C1428 C1409 1.368 . S
C1428 C1422 1.368 . S
C1428 C1427 1.523 . S
C1429 C1413 1.429 . S
C1429 C1425 1.429 . S
C1429 C1430 1.523 . S
C1430 C1414 1.368 . S
C1430 C1426 1.368 . S
C1430 C1429 1.523 . S
H1431 C1406 0.950 . S
H1432 C1408 0.950 . S
H1433 C1409 0.949 . S
H1434 C1411 0.950 . S
H1435 C1413 0.950 . S
C1436 C1437 1.349 . S
C1436 C1438 1.327 . S
C1436 H1461 0.950 . S
C1437 C1436 1.349 . S
C1437 C1453 1.349 . S
C1438 C1436 1.327 . S
C1438 C1457 1.429 . S
C1438 H1462 0.950 . S
C1439 C1456 1.574 . S
C1439 C1458 1.368 . S
C1439 H1463 0.949 . S
H1440 C1444 0.949 . S
C1441 C1442 1.349 . S
C1441 C1443 1.327 . S
C1441 H1464 0.950 . S
C1442 C1441 1.349 . S
C1442 C1454 1.349 . S
C1443 C1441 1.327 . S
C1443 C1459 1.429 . S
C1443 H1465 0.950 . S
C1444 H1440 0.949 . S
C1444 C1452 1.574 . S
C1444 C1460 1.368 . S
H1445 C1453 0.950 . S
H1446 C1451 0.950 . S
H1447 C1452 0.949 . S
H1448 C1454 0.950 . S
H1449 C1455 0.950 . S
H1450 C1456 0.949 . S
C1451 H1446 0.950 . S
C1451 C1453 1.327 . S
C1451 C1457 1.429 . S
C1452 C1444 1.574 . S
C1452 H1447 0.949 . S
C1452 C1458 1.368 . S
C1453 C1437 1.349 . S
C1453 H1445 0.950 . S
C1453 C1451 1.327 . S
C1454 C1442 1.349 . S
C1454 H1448 0.950 . S
C1454 C1455 1.327 . S
C1455 H1449 0.950 . S
C1455 C1454 1.327 . S
C1455 C1459 1.429 . S
C1456 C1439 1.574 . S
C1456 H1450 0.949 . S
C1456 C1460 1.368 . S
C1457 C1438 1.429 . S
C1457 C1451 1.429 . S
C1457 C1458 1.523 . S
C1458 C1439 1.368 . S
C1458 C1452 1.368 . S
C1458 C1457 1.523 . S
C1459 C1443 1.429 . S
C1459 C1455 1.429 . S
C1459 C1460 1.523 . S
C1460 C1444 1.368 . S
C1460 C1456 1.368 . S
C1460 C1459 1.523 . S
H1461 C1436 0.950 . S
H1462 C1438 0.950 . S
H1463 C1439 0.949 . S
H1464 C1441 0.950 . S
H1465 C1443 0.950 . S
C1466 C1467 1.349 . S
C1466 C1468 1.327 . S
C1466 H1491 0.950 . S
C1467 C1466 1.349 . S
C1467 C1483 1.349 . S
C1468 C1466 1.327 . S
C1468 C1487 1.429 . S
C1468 H1492 0.950 . S
C1469 C1486 1.574 . S
C1469 C1488 1.368 . S
C1469 H1493 0.949 . S
H1470 C1474 0.949 . S
C1471 C1472 1.349 . S
C1471 C1473 1.327 . S
C1471 H1494 0.950 . S
C1472 C1471 1.349 . S
C1472 C1484 1.349 . S
C1473 C1471 1.327 . S
C1473 C1489 1.429 . S
C1473 H1495 0.950 . S
C1474 H1470 0.949 . S
C1474 C1482 1.574 . S
C1474 C1490 1.368 . S
H1475 C1483 0.950 . S
H1476 C1481 0.950 . S
H1477 C1482 0.949 . S
H1478 C1484 0.950 . S
H1479 C1485 0.950 . S
H1480 C1486 0.949 . S
C1481 H1476 0.950 . S
C1481 C1483 1.327 . S
C1481 C1487 1.429 . S
C1482 C1474 1.574 . S
C1482 H1477 0.949 . S
C1482 C1488 1.368 . S
C1483 C1467 1.349 . S
C1483 H1475 0.950 . S
C1483 C1481 1.327 . S
C1484 C1472 1.349 . S
C1484 H1478 0.950 . S
C1484 C1485 1.327 . S
C1485 H1479 0.950 . S
C1485 C1484 1.327 . S
C1485 C1489 1.429 . S
C1486 C1469 1.574 . S
C1486 H1480 0.949 . S
C1486 C1490 1.368 . S
C1487 C1468 1.429 . S
C1487 C1481 1.429 . S
C1487 C1488 1.523 . S
C1488 C1469 1.368 . S
C1488 C1482 1.368 . S
C1488 C1487 1.523 . S
C1489 C1473 1.429 . S
C1489 C1485 1.429 . S
C1489 C1490 1.523 . S
C1490 C1474 1.368 . S
C1490 C1486 1.368 . S
C1490 C1489 1.523 . S
H1491 C1466 0.950 . S
H1492 C1468 0.950 . S
H1493 C1469 0.949 . S
H1494 C1471 0.950 . S
H1495 C1473 0.950 . S
C1496 C1497 1.349 . S
C1496 C1498 1.327 . S
C1496 H1521 0.950 1_455 S
C1497 C1496 1.349 . S
C1497 C1513 1.349 . S
C1498 C1496 1.327 . S
C1498 C1517 1.429 . S
C1498 H1522 0.950 1_455 S
C1499 C1516 1.574 . S
C1499 C1518 1.368 . S
C1499 H1523 0.949 . S
H1500 C1504 0.949 1_655 S
C1501 C1502 1.349 . S
C1501 C1503 1.327 . S
C1501 H1524 0.950 . S
C1502 C1501 1.349 . S
C1502 C1514 1.349 . S
C1503 C1501 1.327 . S
C1503 C1519 1.429 . S
C1503 H1525 0.950 . S
C1504 H1500 0.949 1_455 S
C1504 C1512 1.574 . S
C1504 C1520 1.368 . S
H1505 C1513 0.950 . S
H1506 C1511 0.950 . S
H1507 C1512 0.949 1_655 S
H1508 C1514 0.930 1_655 S
H1509 C1515 0.950 1_655 S
H1510 C1516 0.949 . S
C1511 H1506 0.950 . S
C1511 C1513 1.327 . S
C1511 C1517 1.429 . S
C1512 C1504 1.574 . S
C1512 H1507 0.949 1_455 S
C1512 C1518 1.368 . S
C1513 C1497 1.349 . S
C1513 H1505 0.950 . S
C1513 C1511 1.327 . S
C1514 C1502 1.349 . S
C1514 H1508 0.930 1_455 S
C1514 C1515 1.327 . S
C1515 H1509 0.950 1_455 S
C1515 C1514 1.327 . S
C1515 C1519 1.429 . S
C1516 C1499 1.574 . S
C1516 H1510 0.949 . S
C1516 C1520 1.368 . S
C1517 C1498 1.429 . S
C1517 C1511 1.429 . S
C1517 C1518 1.523 . S
C1518 C1499 1.368 . S
C1518 C1512 1.368 . S
C1518 C1517 1.523 . S
C1519 C1503 1.429 . S
C1519 C1515 1.429 . S
C1519 C1520 1.523 . S
C1520 C1504 1.368 . S
C1520 C1516 1.368 . S
C1520 C1519 1.523 . S
H1521 C1496 0.950 1_655 S
H1522 C1498 0.950 1_655 S
H1523 C1499 0.949 . S
H1524 C1501 0.950 . S
H1525 C1503 0.950 . S
C1526 C1527 1.349 . S
C1526 C1528 1.327 . S
C1526 H1551 0.950 . S
C1527 C1526 1.349 . S
C1527 C1543 1.349 . S
C1528 C1526 1.327 . S
C1528 C1547 1.429 . S
C1528 H1552 0.950 . S
C1529 C1546 1.574 . S
C1529 C1548 1.368 . S
C1529 H1553 0.949 . S
H1530 C1534 0.949 . S
C1531 C1532 1.349 . S
C1531 C1533 1.327 . S
C1531 H1554 0.950 . S
C1532 C1531 1.349 . S
C1532 C1544 1.349 . S
C1533 C1531 1.327 . S
C1533 C1549 1.429 . S
C1533 H1555 0.950 . S
C1534 H1530 0.949 . S
C1534 C1542 1.574 . S
C1534 C1550 1.368 . S
H1535 C1543 0.950 . S
H1536 C1541 0.950 . S
H1537 C1542 0.949 . S
H1538 C1544 0.950 . S
H1539 C1545 0.950 . S
H1540 C1546 0.949 . S
C1541 H1536 0.950 . S
C1541 C1543 1.327 . S
C1541 C1547 1.429 . S
C1542 C1534 1.574 . S
C1542 H1537 0.949 . S
C1542 C1548 1.368 . S
C1543 C1527 1.349 . S
C1543 H1535 0.950 . S
C1543 C1541 1.327 . S
C1544 C1532 1.349 . S
C1544 H1538 0.950 . S
C1544 C1545 1.327 . S
C1545 H1539 0.950 . S
C1545 C1544 1.327 . S
C1545 C1549 1.429 . S
C1546 C1529 1.574 . S
C1546 H1540 0.949 . S
C1546 C1550 1.368 . S
C1547 C1528 1.429 . S
C1547 C1541 1.429 . S
C1547 C1548 1.523 . S
C1548 C1529 1.368 . S
C1548 C1542 1.368 . S
C1548 C1547 1.523 . S
C1549 C1533 1.429 . S
C1549 C1545 1.429 . S
C1549 C1550 1.523 . S
C1550 C1534 1.368 . S
C1550 C1546 1.368 . S
C1550 C1549 1.523 . S
H1551 C1526 0.950 . S
H1552 C1528 0.950 . S
H1553 C1529 0.949 . S
H1554 C1531 0.950 . S
H1555 C1533 0.950 . S
C1556 C1557 1.349 . S
C1556 C1558 1.327 . S
C1556 H1581 0.950 . S
C1557 C1556 1.349 . S
C1557 C1573 1.349 . S
C1558 C1556 1.327 . S
C1558 C1577 1.429 . S
C1558 H1582 0.950 . S
C1559 C1576 1.574 . S
C1559 C1578 1.368 . S
C1559 H1583 0.949 . S
H1560 C1564 0.949 . S
C1561 C1562 1.379 . S
C1561 C1563 1.327 . S
C1561 H1584 0.950 . S
C1562 C1561 1.379 . S
C1562 C1574 1.336 1_556 S
C1563 C1561 1.327 . S
C1563 C1579 1.429 . S
C1563 H1585 0.950 . S
C1564 H1560 0.949 . S
C1564 C1572 1.574 . S
C1564 C1580 1.368 . S
H1565 C1573 0.950 . S
H1566 C1571 0.950 . S
H1567 C1572 0.949 . S
H1568 C1574 0.950 . S
H1569 C1575 0.950 1_554 S
H1570 C1576 0.949 . S
C1571 H1566 0.950 . S
C1571 C1573 1.327 . S
C1571 C1577 1.429 . S
C1572 C1564 1.574 . S
C1572 H1567 0.949 . S
C1572 C1578 1.368 . S
C1573 C1557 1.349 . S
C1573 H1565 0.950 . S
C1573 C1571 1.327 . S
C1574 C1562 1.336 1_554 S
C1574 H1568 0.950 . S
C1574 C1575 1.327 1_554 S
C1575 H1569 0.950 1_556 S
C1575 C1574 1.327 1_556 S
C1575 C1579 1.429 . S
C1576 C1559 1.574 . S
C1576 H1570 0.949 . S
C1576 C1580 1.368 . S
C1577 C1558 1.429 . S
C1577 C1571 1.429 . S
C1577 C1578 1.523 . S
C1578 C1559 1.368 . S
C1578 C1572 1.368 . S
C1578 C1577 1.523 . S
C1579 C1563 1.429 . S
C1579 C1575 1.429 . S
C1579 C1580 1.523 . S
C1580 C1564 1.368 . S
C1580 C1576 1.368 . S
C1580 C1579 1.523 . S
H1581 C1556 0.950 . S
H1582 C1558 0.950 . S
H1583 C1559 0.949 . S
H1584 C1561 0.950 . S
H1585 C1563 0.950 . S
C1586 C1587 1.349 . S
C1586 C1588 1.327 . S
C1586 H1611 0.950 . S
C1587 C1586 1.349 . S
C1587 C1603 1.349 . S
C1588 C1586 1.327 . S
C1588 C1607 1.429 . S
C1588 H1612 0.950 . S
C1589 C1606 1.574 . S
C1589 C1608 1.368 . S
C1589 H1613 0.949 . S
H1590 C1594 0.949 . S
C1591 C1592 1.349 . S
C1591 C1593 1.327 . S
C1591 H1614 0.950 . S
C1592 C1591 1.349 . S
C1592 C1604 1.349 . S
C1593 C1591 1.327 . S
C1593 C1609 1.429 . S
C1593 H1615 0.950 . S
C1594 H1590 0.949 . S
C1594 C1602 1.574 . S
C1594 C1610 1.368 . S
H1595 C1603 0.950 . S
H1596 C1601 0.950 . S
H1597 C1602 0.949 . S
H1598 C1604 0.950 . S
H1599 C1605 0.950 . S
H1600 C1606 0.949 . S
C1601 H1596 0.950 . S
C1601 C1603 1.327 . S
C1601 C1607 1.429 . S
C1602 C1594 1.574 . S
C1602 H1597 0.949 . S
C1602 C1608 1.368 . S
C1603 C1587 1.349 . S
C1603 H1595 0.950 . S
C1603 C1601 1.327 . S
C1604 C1592 1.349 . S
C1604 H1598 0.950 . S
C1604 C1605 1.327 . S
C1605 H1599 0.950 . S
C1605 C1604 1.327 . S
C1605 C1609 1.429 . S
C1606 C1589 1.574 . S
C1606 H1600 0.949 . S
C1606 C1610 1.368 . S
C1607 C1588 1.429 . S
C1607 C1601 1.429 . S
C1607 C1608 1.523 . S
C1608 C1589 1.368 . S
C1608 C1602 1.368 . S
C1608 C1607 1.523 . S
C1609 C1593 1.429 . S
C1609 C1605 1.429 . S
C1609 C1610 1.523 . S
C1610 C1594 1.368 . S
C1610 C1606 1.368 . S
C1610 C1609 1.523 . S
H1611 C1586 0.950 . S
H1612 C1588 0.950 . S
H1613 C1589 0.949 . S
H1614 C1591 0.950 . S
H1615 C1593 0.950 . S
C1616 C1617 1.349 . S
C1616 C1618 1.327 . S
C1616 H1641 0.950 . S
C1617 C1616 1.349 . S
C1617 C1633 1.349 1_545 S
C1618 C1616 1.327 . S
C1618 C1637 1.429 . S
C1618 H1642 0.950 . S
C1619 C1636 1.574 . S
C1619 C1638 1.368 . S
C1619 H1643 0.949 1_545 S
H1620 C1624 0.949 . S
C1621 C1622 1.349 . S
C1621 C1623 1.327 . S
C1621 H1644 0.950 . S
C1622 C1621 1.349 . S
C1622 C1634 1.349 . S
C1623 C1621 1.327 . S
C1623 C1639 1.429 . S
C1623 H1645 0.950 . S
C1624 H1620 0.949 . S
C1624 C1632 1.574 . S
C1624 C1640 1.368 . S
H1625 C1633 0.950 . S
H1626 C1631 0.950 . S
H1627 C1632 0.949 . S
H1628 C1634 0.950 . S
H1629 C1635 0.950 . S
H1630 C1636 0.914 1_565 S
C1631 H1626 0.950 . S
C1631 C1633 1.327 . S
C1631 C1637 1.429 1_565 S
C1632 C1624 1.574 . S
C1632 H1627 0.949 . S
C1632 C1638 1.368 . S
C1633 C1617 1.349 1_565 S
C1633 H1625 0.950 . S
C1633 C1631 1.327 . S
C1634 C1622 1.349 . S
C1634 H1628 0.950 . S
C1634 C1635 1.327 . S
C1635 H1629 0.950 . S
C1635 C1634 1.327 . S
C1635 C1639 1.429 . S
C1636 C1619 1.574 . S
C1636 H1630 0.914 1_545 S
C1636 C1640 1.368 . S
C1637 C1618 1.429 . S
C1637 C1631 1.429 1_545 S
C1637 C1638 1.523 . S
C1638 C1619 1.368 . S
C1638 C1632 1.368 . S
C1638 C1637 1.523 . S
C1639 C1623 1.429 . S
C1639 C1635 1.429 . S
C1639 C1640 1.523 . S
C1640 C1624 1.368 . S
C1640 C1636 1.368 . S
C1640 C1639 1.523 . S
H1641 C1616 0.950 . S
H1642 C1618 0.950 . S
H1643 C1619 0.949 1_565 S
H1644 C1621 0.950 . S
H1645 C1623 0.950 . S
C1646 C1647 1.349 . S
C1646 C1648 1.327 . S
C1646 H1671 0.950 . S
C1647 C1646 1.349 . S
C1647 C1663 1.349 . S
C1648 C1646 1.327 . S
C1648 C1667 1.429 . S
C1648 H1672 0.950 . S
C1649 C1666 1.574 . S
C1649 C1668 1.368 . S
C1649 H1673 0.949 . S
H1650 C1654 0.949 . S
C1651 C1652 1.349 . S
C1651 C1653 1.327 . S
C1651 H1674 0.950 . S
C1652 C1651 1.349 . S
C1652 C1664 1.349 . S
C1653 C1651 1.327 . S
C1653 C1669 1.429 . S
C1653 H1675 0.950 . S
C1654 H1650 0.949 . S
C1654 C1662 1.574 . S
C1654 C1670 1.368 . S
H1655 C1663 0.950 . S
H1656 C1661 0.950 . S
H1657 C1662 0.949 . S
H1658 C1664 0.950 . S
H1659 C1665 0.950 . S
H1660 C1666 0.949 . S
C1661 H1656 0.950 . S
C1661 C1663 1.327 . S
C1661 C1667 1.429 . S
C1662 C1654 1.574 . S
C1662 H1657 0.949 . S
C1662 C1668 1.368 . S
C1663 C1647 1.349 . S
C1663 H1655 0.950 . S
C1663 C1661 1.327 . S
C1664 C1652 1.349 . S
C1664 H1658 0.950 . S
C1664 C1665 1.327 . S
C1665 H1659 0.950 . S
C1665 C1664 1.327 . S
C1665 C1669 1.429 . S
C1666 C1649 1.574 . S
C1666 H1660 0.949 . S
C1666 C1670 1.368 . S
C1667 C1648 1.429 . S
C1667 C1661 1.429 . S
C1667 C1668 1.523 . S
C1668 C1649 1.368 . S
C1668 C1662 1.368 . S
C1668 C1667 1.523 . S
C1669 C1653 1.429 . S
C1669 C1665 1.429 . S
C1669 C1670 1.523 . S
C1670 C1654 1.368 . S
C1670 C1666 1.368 . S
C1670 C1669 1.523 . S
H1671 C1646 0.950 . S
H1672 C1648 0.950 . S
H1673 C1649 0.949 . S
H1674 C1651 0.950 . S
H1675 C1653 0.950 . S
C1676 C1677 1.349 . S
C1676 C1678 1.327 . S
C1676 H1701 0.950 . S
C1677 C1676 1.349 . S
C1677 C1693 1.349 . S
C1678 C1676 1.327 . S
C1678 C1697 1.429 . S
C1678 H1702 0.950 . S
C1679 C1696 1.574 . S
C1679 C1698 1.368 . S
C1679 H1703 0.949 . S
H1680 C1684 0.949 . S
C1681 C1682 1.349 . S
C1681 C1683 1.327 . S
C1681 H1704 0.950 . S
C1682 C1681 1.349 . S
C1682 C1694 1.349 . S
C1683 C1681 1.327 . S
C1683 C1699 1.429 . S
C1683 H1705 0.950 . S
C1684 H1680 0.949 . S
C1684 C1692 1.574 . S
C1684 C1700 1.368 . S
H1685 C1693 0.950 . S
H1686 C1691 0.950 . S
H1687 C1692 0.949 . S
H1688 C1694 0.950 . S
H1689 C1695 0.950 . S
H1690 C1696 0.949 . S
C1691 H1686 0.950 . S
C1691 C1693 1.327 . S
C1691 C1697 1.429 . S
C1692 C1684 1.574 . S
C1692 H1687 0.949 . S
C1692 C1698 1.368 . S
C1693 C1677 1.349 . S
C1693 H1685 0.950 . S
C1693 C1691 1.327 . S
C1694 C1682 1.349 . S
C1694 H1688 0.950 . S
C1694 C1695 1.327 . S
C1695 H1689 0.950 . S
C1695 C1694 1.327 . S
C1695 C1699 1.429 . S
C1696 C1679 1.574 . S
C1696 H1690 0.949 . S
C1696 C1700 1.368 . S
C1697 C1678 1.429 . S
C1697 C1691 1.429 . S
C1697 C1698 1.523 . S
C1698 C1679 1.368 . S
C1698 C1692 1.368 . S
C1698 C1697 1.523 . S
C1699 C1683 1.429 . S
C1699 C1695 1.429 . S
C1699 C1700 1.523 . S
C1700 C1684 1.368 . S
C1700 C1696 1.368 . S
C1700 C1699 1.523 . S
H1701 C1676 0.950 . S
H1702 C1678 0.950 . S
H1703 C1679 0.949 . S
H1704 C1681 0.950 . S
H1705 C1683 0.950 . S
C1706 C1707 1.349 . S
C1706 C1708 1.327 . S
C1706 H1731 0.950 . S
C1707 C1706 1.349 . S
C1707 C1723 1.349 . S
C1708 C1706 1.327 . S
C1708 C1727 1.429 . S
C1708 H1732 0.950 . S
C1709 C1726 1.574 . S
C1709 C1728 1.368 . S
C1709 H1733 0.949 . S
H1710 C1714 0.949 . S
C1711 C1712 1.349 . S
C1711 C1713 1.327 . S
C1711 H1734 0.950 . S
C1712 C1711 1.349 . S
C1712 C1724 1.349 . S
C1713 C1711 1.327 . S
C1713 C1729 1.429 . S
C1713 H1735 0.950 . S
C1714 H1710 0.949 . S
C1714 C1722 1.574 . S
C1714 C1730 1.368 . S
H1715 C1723 0.950 . S
H1716 C1721 0.950 . S
H1717 C1722 0.949 . S
H1718 C1724 0.950 . S
H1719 C1725 0.950 . S
H1720 C1726 0.949 . S
C1721 H1716 0.950 . S
C1721 C1723 1.327 . S
C1721 C1727 1.429 . S
C1722 C1714 1.574 . S
C1722 H1717 0.949 . S
C1722 C1728 1.368 . S
C1723 C1707 1.349 . S
C1723 H1715 0.950 . S
C1723 C1721 1.327 . S
C1724 C1712 1.349 . S
C1724 H1718 0.950 . S
C1724 C1725 1.327 . S
C1725 H1719 0.950 . S
C1725 C1724 1.327 . S
C1725 C1729 1.429 . S
C1726 C1709 1.574 . S
C1726 H1720 0.949 . S
C1726 C1730 1.368 . S
C1727 C1708 1.429 . S
C1727 C1721 1.429 . S
C1727 C1728 1.523 . S
C1728 C1709 1.368 . S
C1728 C1722 1.368 . S
C1728 C1727 1.523 . S
C1729 C1713 1.429 . S
C1729 C1725 1.429 . S
C1729 C1730 1.523 . S
C1730 C1714 1.368 . S
C1730 C1726 1.368 . S
C1730 C1729 1.523 . S
H1731 C1706 0.950 . S
H1732 C1708 0.950 . S
H1733 C1709 0.949 . S
H1734 C1711 0.950 . S
H1735 C1713 0.950 . S
C1736 C1737 1.349 1_565 S
C1736 C1738 1.327 . S
C1736 H1761 0.950 . S
C1737 C1736 1.349 1_545 S
C1737 C1753 1.349 . S
C1738 C1736 1.327 . S
C1738 C1757 1.429 1_565 S
C1738 H1762 0.950 . S
C1739 C1756 1.574 . S
C1739 C1758 1.368 . S
C1739 H1763 0.949 . S
H1740 C1744 0.949 1_565 S
C1741 C1742 1.349 . S
C1741 C1743 1.327 . S
C1741 H1764 0.950 . S
C1742 C1741 1.349 . S
C1742 C1754 1.349 . S
C1743 C1741 1.327 . S
C1743 C1759 1.429 . S
C1743 H1765 0.950 . S
C1744 H1740 0.949 1_545 S
C1744 C1752 1.574 1_545 S
C1744 C1760 1.368 . S
H1745 C1753 0.950 . S
H1746 C1751 0.950 . S
H1747 C1752 0.949 . S
H1748 C1754 0.950 . S
H1749 C1755 0.950 1_565 S
H1750 C1756 0.949 . S
C1751 H1746 0.950 . S
C1751 C1753 1.327 . S
C1751 C1757 1.429 . S
C1752 C1744 1.574 1_565 S
C1752 H1747 0.949 . S
C1752 C1758 1.368 1_565 S
C1753 C1737 1.349 . S
C1753 H1745 0.950 . S
C1753 C1751 1.327 . S
C1754 C1742 1.349 . S
C1754 H1748 0.950 . S
C1754 C1755 1.327 . S
C1755 H1749 0.950 1_545 S
C1755 C1754 1.327 . S
C1755 C1759 1.429 . S
C1756 C1739 1.574 . S
C1756 H1750 0.949 . S
C1756 C1760 1.368 . S
C1757 C1738 1.429 1_545 S
C1757 C1751 1.429 . S
C1757 C1758 1.523 . S
C1758 C1739 1.368 . S
C1758 C1752 1.368 1_545 S
C1758 C1757 1.523 . S
C1759 C1743 1.429 . S
C1759 C1755 1.429 . S
C1759 C1760 1.523 . S
C1760 C1744 1.368 . S
C1760 C1756 1.368 . S
C1760 C1759 1.523 . S
H1761 C1736 0.950 . S
H1762 C1738 0.950 . S
H1763 C1739 0.949 . S
H1764 C1741 0.950 . S
H1765 C1743 0.950 . S
C1766 C1767 1.349 . S
C1766 C1768 1.327 . S
C1766 H1791 0.950 . S
C1767 C1766 1.349 . S
C1767 C1783 1.349 . S
C1768 C1766 1.327 . S
C1768 C1787 1.429 . S
C1768 H1792 0.950 . S
C1769 C1786 1.574 . S
C1769 C1788 1.368 . S
C1769 H1793 0.949 . S
H1770 C1774 0.949 . S
C1771 C1772 1.349 . S
C1771 C1773 1.327 . S
C1771 H1794 0.950 . S
C1772 C1771 1.349 . S
C1772 C1784 1.349 . S
C1773 C1771 1.327 . S
C1773 C1789 1.429 . S
C1773 H1795 0.950 . S
C1774 H1770 0.949 . S
C1774 C1782 1.574 . S
C1774 C1790 1.368 . S
H1775 C1783 0.950 . S
H1776 C1781 0.950 . S
H1777 C1782 0.949 . S
H1778 C1784 0.950 . S
H1779 C1785 0.950 . S
H1780 C1786 0.949 . S
C1781 H1776 0.950 . S
C1781 C1783 1.327 . S
C1781 C1787 1.429 . S
C1782 C1774 1.574 . S
C1782 H1777 0.949 . S
C1782 C1788 1.368 . S
C1783 C1767 1.349 . S
C1783 H1775 0.950 . S
C1783 C1781 1.327 . S
C1784 C1772 1.349 . S
C1784 H1778 0.950 . S
C1784 C1785 1.327 . S
C1785 H1779 0.950 . S
C1785 C1784 1.327 . S
C1785 C1789 1.429 . S
C1786 C1769 1.574 . S
C1786 H1780 0.949 . S
C1786 C1790 1.368 . S
C1787 C1768 1.429 . S
C1787 C1781 1.429 . S
C1787 C1788 1.523 . S
C1788 C1769 1.368 . S
C1788 C1782 1.368 . S
C1788 C1787 1.523 . S
C1789 C1773 1.429 . S
C1789 C1785 1.429 . S
C1789 C1790 1.523 . S
C1790 C1774 1.368 . S
C1790 C1786 1.368 . S
C1790 C1789 1.523 . S
H1791 C1766 0.950 . S
H1792 C1768 0.950 . S
H1793 C1769 0.949 . S
H1794 C1771 0.950 . S
H1795 C1773 0.950 . S
C1796 C1797 1.349 . S
C1796 C1798 1.327 . S
C1796 H1821 0.950 . S
C1797 C1796 1.349 . S
C1797 C1813 1.349 . S
C1798 C1796 1.327 . S
C1798 C1817 1.429 . S
C1798 H1822 0.950 . S
C1799 C1816 1.574 . S
C1799 C1818 1.368 . S
C1799 H1823 0.949 . S
H1800 C1804 0.949 . S
C1801 C1802 1.349 . S
C1801 C1803 1.327 . S
C1801 H1824 0.950 . S
C1802 C1801 1.349 . S
C1802 C1814 1.349 . S
C1803 C1801 1.327 . S
C1803 C1819 1.429 . S
C1803 H1825 0.950 . S
C1804 H1800 0.949 . S
C1804 C1812 1.574 . S
C1804 C1820 1.368 . S
H1805 C1813 0.950 . S
H1806 C1811 0.950 . S
H1807 C1812 0.949 . S
H1808 C1814 0.990 . S
H1809 C1815 0.950 . S
H1810 C1816 0.949 . S
C1811 H1806 0.950 . S
C1811 C1813 1.327 . S
C1811 C1817 1.429 . S
C1812 C1804 1.574 . S
C1812 H1807 0.949 . S
C1812 C1818 1.368 . S
C1813 C1797 1.349 . S
C1813 H1805 0.950 . S
C1813 C1811 1.327 . S
C1814 C1802 1.349 . S
C1814 H1808 0.990 . S
C1814 C1815 1.327 . S
C1815 H1809 0.950 . S
C1815 C1814 1.327 . S
C1815 C1819 1.429 . S
C1816 C1799 1.574 . S
C1816 H1810 0.949 . S
C1816 C1820 1.368 . S
C1817 C1798 1.429 . S
C1817 C1811 1.429 . S
C1817 C1818 1.523 . S
C1818 C1799 1.368 . S
C1818 C1812 1.368 . S
C1818 C1817 1.523 . S
C1819 C1803 1.429 . S
C1819 C1815 1.429 . S
C1819 C1820 1.523 . S
C1820 C1804 1.368 . S
C1820 C1816 1.368 . S
C1820 C1819 1.523 . S
H1821 C1796 0.950 . S
H1822 C1798 0.950 . S
H1823 C1799 0.949 . S
H1824 C1801 0.950 . S
H1825 C1803 0.950 . S
C1826 C1827 1.349 . S
C1826 C1828 1.327 . S
C1826 H1851 0.950 . S
C1827 C1826 1.349 . S
C1827 C1843 1.349 . S
C1828 C1826 1.327 . S
C1828 C1847 1.429 . S
C1828 H1852 0.950 . S
C1829 C1846 1.574 . S
C1829 C1848 1.368 . S
C1829 H1853 0.949 . S
H1830 C1834 0.949 . S
C1831 C1832 1.349 . S
C1831 C1833 1.327 . S
C1831 H1854 0.950 . S
C1832 C1831 1.349 . S
C1832 C1844 1.349 . S
C1833 C1831 1.327 . S
C1833 C1849 1.429 . S
C1833 H1855 0.950 . S
C1834 H1830 0.949 . S
C1834 C1842 1.574 . S
C1834 C1850 1.368 . S
H1835 C1843 0.950 . S
H1836 C1841 0.950 . S
H1837 C1842 0.949 . S
H1838 C1844 0.950 . S
H1839 C1845 0.950 . S
H1840 C1846 0.949 . S
C1841 H1836 0.950 . S
C1841 C1843 1.327 . S
C1841 C1847 1.429 . S
C1842 C1834 1.574 . S
C1842 H1837 0.949 . S
C1842 C1848 1.368 . S
C1843 C1827 1.349 . S
C1843 H1835 0.950 . S
C1843 C1841 1.327 . S
C1844 C1832 1.349 . S
C1844 H1838 0.950 . S
C1844 C1845 1.327 . S
C1845 H1839 0.950 . S
C1845 C1844 1.327 . S
C1845 C1849 1.429 . S
C1846 C1829 1.574 . S
C1846 H1840 0.949 . S
C1846 C1850 1.368 . S
C1847 C1828 1.429 . S
C1847 C1841 1.429 . S
C1847 C1848 1.523 . S
C1848 C1829 1.368 . S
C1848 C1842 1.368 . S
C1848 C1847 1.523 . S
C1849 C1833 1.429 . S
C1849 C1845 1.429 . S
C1849 C1850 1.523 . S
C1850 C1834 1.368 . S
C1850 C1846 1.368 . S
C1850 C1849 1.523 . S
H1851 C1826 0.950 . S
H1852 C1828 0.950 . S
H1853 C1829 0.949 . S
H1854 C1831 0.950 . S
H1855 C1833 0.950 . S
C1856 C1857 1.349 1_556 S
C1856 C1858 1.327 . S
C1856 H1881 0.950 . S
C1857 C1856 1.349 1_554 S
C1857 C1873 1.349 . S
C1858 C1856 1.327 . S
C1858 C1877 1.429 1_556 S
C1858 H1882 0.950 . S
C1859 C1876 1.574 . S
C1859 C1878 1.368 . S
C1859 H1883 0.949 . S
H1860 C1864 0.949 . S
C1861 C1862 1.349 . S
C1861 C1863 1.327 . S
C1861 H1884 0.950 . S
C1862 C1861 1.349 . S
C1862 C1874 1.349 1_554 S
C1863 C1861 1.327 . S
C1863 C1879 1.429 . S
C1863 H1885 0.950 . S
C1864 H1860 0.949 . S
C1864 C1872 1.574 . S
C1864 C1880 1.368 1_556 S
H1865 C1873 0.950 . S
H1866 C1871 0.950 . S
H1867 C1872 0.949 . S
H1868 C1874 0.950 . S
H1869 C1875 0.950 . S
H1870 C1876 0.949 . S
C1871 H1866 0.950 . S
C1871 C1873 1.327 . S
C1871 C1877 1.429 . S
C1872 C1864 1.574 . S
C1872 H1867 0.949 . S
C1872 C1878 1.368 1_556 S
C1873 C1857 1.349 . S
C1873 H1865 0.950 . S
C1873 C1871 1.327 . S
C1874 C1862 1.349 1_556 S
C1874 H1868 0.950 . S
C1874 C1875 1.327 . S
C1875 H1869 0.950 . S
C1875 C1874 1.327 . S
C1875 C1879 1.429 1_556 S
C1876 C1859 1.574 . S
C1876 H1870 0.949 . S
C1876 C1880 1.368 . S
C1877 C1858 1.429 1_554 S
C1877 C1871 1.429 . S
C1877 C1878 1.523 . S
C1878 C1859 1.368 . S
C1878 C1872 1.368 1_554 S
C1878 C1877 1.523 . S
C1879 C1863 1.429 . S
C1879 C1875 1.429 1_554 S
C1879 C1880 1.523 . S
C1880 C1864 1.368 1_554 S
C1880 C1876 1.368 . S
C1880 C1879 1.523 . S
H1881 C1856 0.950 . S
H1882 C1858 0.950 . S
H1883 C1859 0.949 . S
H1884 C1861 0.950 . S
H1885 C1863 0.950 . S
C1886 C1887 1.349 . S
C1886 C1888 1.327 . S
C1886 H1911 0.950 . S
C1887 C1886 1.349 . S
C1887 C1903 1.349 . S
C1888 C1886 1.327 . S
C1888 C1907 1.429 . S
C1888 H1912 0.950 . S
C1889 C1906 1.574 . S
C1889 C1908 1.368 . S
C1889 H1913 0.949 . S
H1890 C1894 0.949 . S
C1891 C1892 1.349 . S
C1891 C1893 1.327 . S
C1891 H1914 0.950 . S
C1892 C1891 1.349 . S
C1892 C1904 1.349 . S
C1893 C1891 1.327 . S
C1893 C1909 1.429 . S
C1893 H1915 0.950 . S
C1894 H1890 0.949 . S
C1894 C1902 1.574 . S
C1894 C1910 1.368 . S
H1895 C1903 0.950 . S
H1896 C1901 0.950 . S
H1897 C1902 0.949 . S
H1898 C1904 0.950 . S
H1899 C1905 0.950 . S
H1900 C1906 0.949 . S
C1901 H1896 0.950 . S
C1901 C1903 1.327 . S
C1901 C1907 1.429 . S
C1902 C1894 1.574 . S
C1902 H1897 0.949 . S
C1902 C1908 1.368 . S
C1903 C1887 1.349 . S
C1903 H1895 0.950 . S
C1903 C1901 1.327 . S
C1904 C1892 1.349 . S
C1904 H1898 0.950 . S
C1904 C1905 1.327 . S
C1905 H1899 0.950 . S
C1905 C1904 1.327 . S
C1905 C1909 1.429 . S
C1906 C1889 1.574 . S
C1906 H1900 0.949 . S
C1906 C1910 1.368 . S
C1907 C1888 1.429 . S
C1907 C1901 1.429 . S
C1907 C1908 1.523 . S
C1908 C1889 1.368 . S
C1908 C1902 1.368 . S
C1908 C1907 1.523 . S
C1909 C1893 1.429 . S
C1909 C1905 1.429 . S
C1909 C1910 1.523 . S
C1910 C1894 1.368 . S
C1910 C1906 1.368 . S
C1910 C1909 1.523 . S
H1911 C1886 0.950 . S
H1912 C1888 0.950 . S
H1913 C1889 0.949 . S
H1914 C1891 0.950 . S
H1915 C1893 0.950 . S
C1916 C1917 1.349 . S
C1916 C1918 1.327 . S
C1916 H1941 0.950 . S
C1917 C1916 1.349 . S
C1917 C1933 1.349 . S
C1918 C1916 1.327 . S
C1918 C1937 1.429 . S
C1918 H1942 0.950 . S
C1919 C1936 1.574 . S
C1919 C1938 1.368 . S
C1919 H1943 0.949 . S
H1920 C1924 0.949 . S
C1921 C1922 1.349 . S
C1921 C1923 1.327 . S
C1921 H1944 0.950 . S
C1922 C1921 1.349 . S
C1922 C1934 1.349 . S
C1923 C1921 1.327 . S
C1923 C1939 1.429 . S
C1923 H1945 0.950 . S
C1924 H1920 0.949 . S
C1924 C1932 1.574 . S
C1924 C1940 1.368 . S
H1925 C1933 0.950 . S
H1926 C1931 0.950 . S
H1927 C1932 0.949 . S
H1928 C1934 0.950 . S
H1929 C1935 0.950 . S
H1930 C1936 0.949 . S
C1931 H1926 0.950 . S
C1931 C1933 1.327 . S
C1931 C1937 1.429 . S
C1932 C1924 1.574 . S
C1932 H1927 0.949 . S
C1932 C1938 1.368 . S
C1933 C1917 1.349 . S
C1933 H1925 0.950 . S
C1933 C1931 1.327 . S
C1934 C1922 1.349 . S
C1934 H1928 0.950 . S
C1934 C1935 1.327 . S
C1935 H1929 0.950 . S
C1935 C1934 1.327 . S
C1935 C1939 1.429 . S
C1936 C1919 1.574 . S
C1936 H1930 0.949 . S
C1936 C1940 1.368 . S
C1937 C1918 1.429 . S
C1937 C1931 1.429 . S
C1937 C1938 1.523 . S
C1938 C1919 1.368 . S
C1938 C1932 1.368 . S
C1938 C1937 1.523 . S
C1939 C1923 1.429 . S
C1939 C1935 1.429 . S
C1939 C1940 1.523 . S
C1940 C1924 1.368 . S
C1940 C1936 1.368 . S
C1940 C1939 1.523 . S
H1941 C1916 0.950 . S
H1942 C1918 0.950 . S
H1943 C1919 0.949 . S
H1944 C1921 0.950 . S
H1945 C1923 0.950 . S
C1946 C1947 1.349 . S
C1946 C1948 1.327 . S
C1946 H1971 0.950 . S
C1947 C1946 1.349 . S
C1947 C1963 1.349 . S
C1948 C1946 1.327 . S
C1948 C1967 1.429 . S
C1948 H1972 0.950 . S
C1949 C1966 1.574 . S
C1949 C1968 1.368 . S
C1949 H1973 0.949 . S
H1950 C1954 0.949 . S
C1951 C1952 1.349 . S
C1951 C1953 1.327 . S
C1951 H1974 0.950 . S
C1952 C1951 1.349 . S
C1952 C1964 1.349 . S
C1953 C1951 1.327 . S
C1953 C1969 1.429 . S
C1953 H1975 0.950 . S
C1954 H1950 0.949 . S
C1954 C1962 1.574 . S
C1954 C1970 1.368 . S
H1955 C1963 0.950 . S
H1956 C1961 0.950 . S
H1957 C1962 0.949 . S
H1958 C1964 0.950 . S
H1959 C1965 0.950 . S
H1960 C1966 0.949 . S
C1961 H1956 0.950 . S
C1961 C1963 1.327 . S
C1961 C1967 1.429 . S
C1962 C1954 1.574 . S
C1962 H1957 0.949 . S
C1962 C1968 1.368 . S
C1963 C1947 1.349 . S
C1963 H1955 0.950 . S
C1963 C1961 1.327 . S
C1964 C1952 1.349 . S
C1964 H1958 0.950 . S
C1964 C1965 1.327 . S
C1965 H1959 0.950 . S
C1965 C1964 1.327 . S
C1965 C1969 1.429 . S
C1966 C1949 1.574 . S
C1966 H1960 0.949 . S
C1966 C1970 1.368 . S
C1967 C1948 1.429 . S
C1967 C1961 1.429 . S
C1967 C1968 1.523 . S
C1968 C1949 1.368 . S
C1968 C1962 1.368 . S
C1968 C1967 1.523 . S
C1969 C1953 1.429 . S
C1969 C1965 1.429 . S
C1969 C1970 1.523 . S
C1970 C1954 1.368 . S
C1970 C1966 1.368 . S
C1970 C1969 1.523 . S
H1971 C1946 0.950 . S
H1972 C1948 0.950 . S
H1973 C1949 0.949 . S
H1974 C1951 0.950 . S
H1975 C1953 0.950 . S
C1976 C1977 1.349 . S
C1976 C1978 1.327 . S
C1976 H2001 0.950 . S
C1977 C1976 1.349 . S
C1977 C1993 1.349 . S
C1978 C1976 1.327 . S
C1978 C1997 1.429 . S
C1978 H2002 0.950 . S
C1979 C1996 1.574 . S
C1979 C1998 1.368 . S
C1979 H2003 0.949 . S
H1980 C1984 0.949 . S
C1981 C1982 1.349 . S
C1981 C1983 1.327 . S
C1981 H2004 0.950 . S
C1982 C1981 1.349 . S
C1982 C1994 1.349 . S
C1983 C1981 1.327 . S
C1983 C1999 1.429 . S
C1983 H2005 0.950 . S
C1984 H1980 0.949 . S
C1984 C1992 1.574 . S
C1984 C2000 1.368 . S
H1985 C1993 0.950 . S
H1986 C1991 0.950 . S
H1987 C1992 0.949 . S
H1988 C1994 0.950 . S
H1989 C1995 0.950 . S
H1990 C1996 0.949 . S
C1991 H1986 0.950 . S
C1991 C1993 1.327 . S
C1991 C1997 1.429 . S
C1992 C1984 1.574 . S
C1992 H1987 0.949 . S
C1992 C1998 1.368 . S
C1993 C1977 1.349 . S
C1993 H1985 0.950 . S
C1993 C1991 1.327 . S
C1994 C1982 1.349 . S
C1994 H1988 0.950 . S
C1994 C1995 1.327 . S
C1995 H1989 0.950 . S
C1995 C1994 1.327 . S
C1995 C1999 1.429 . S
C1996 C1979 1.574 . S
C1996 H1990 0.949 . S
C1996 C2000 1.368 . S
C1997 C1978 1.429 . S
C1997 C1991 1.429 . S
C1997 C1998 1.523 . S
C1998 C1979 1.368 . S
C1998 C1992 1.368 . S
C1998 C1997 1.523 . S
C1999 C1983 1.429 . S
C1999 C1995 1.429 . S
C1999 C2000 1.523 . S
C2000 C1984 1.368 . S
C2000 C1996 1.368 . S
C2000 C1999 1.523 . S
H2001 C1976 0.950 . S
H2002 C1978 0.950 . S
H2003 C1979 0.949 . S
H2004 C1981 0.950 . S
H2005 C1983 0.950 . S
C2006 C2007 1.349 . S
C2006 C2008 1.327 . S
C2006 H2031 0.950 . S
C2007 C2006 1.349 . S
C2007 C2023 1.349 . S
C2008 C2006 1.327 . S
C2008 C2027 1.429 . S
C2008 H2032 0.950 . S
C2009 C2026 1.574 . S
C2009 C2028 1.368 . S
C2009 H2033 0.949 . S
H2010 C2014 0.949 . S
C2011 C2012 1.349 1_565 S
C2011 C2013 1.327 . S
C2011 H2034 0.950 . S
C2012 C2011 1.349 1_545 S
C2012 C2024 1.349 . S
C2013 C2011 1.327 . S
C2013 C2029 1.429 . S
C2013 H2035 0.950 . S
C2014 H2010 0.949 . S
C2014 C2022 1.574 . S
C2014 C2030 1.368 . S
H2015 C2023 0.950 . S
H2016 C2021 0.950 . S
H2017 C2022 0.949 . S
H2018 C2024 0.950 . S
H2019 C2025 0.948 1_545 S
H2020 C2026 0.949 . S
C2021 H2016 0.950 . S
C2021 C2023 1.327 . S
C2021 C2027 1.429 . S
C2022 C2014 1.574 . S
C2022 H2017 0.949 . S
C2022 C2028 1.368 . S
C2023 C2007 1.349 . S
C2023 H2015 0.950 . S
C2023 C2021 1.327 . S
C2024 C2012 1.349 . S
C2024 H2018 0.950 . S
C2024 C2025 1.293 1_545 S
C2025 H2019 0.948 1_565 S
C2025 C2024 1.293 1_565 S
C2025 C2029 1.467 . S
C2026 C2009 1.574 . S
C2026 H2020 0.949 . S
C2026 C2030 1.368 . S
C2027 C2008 1.429 . S
C2027 C2021 1.429 . S
C2027 C2028 1.523 . S
C2028 C2009 1.368 . S
C2028 C2022 1.368 . S
C2028 C2027 1.523 . S
C2029 C2013 1.429 . S
C2029 C2025 1.467 . S
C2029 C2030 1.523 . S
C2030 C2014 1.368 . S
C2030 C2026 1.368 . S
C2030 C2029 1.523 . S
H2031 C2006 0.950 . S
H2032 C2008 0.950 . S
H2033 C2009 0.949 . S
H2034 C2011 0.950 . S
H2035 C2013 0.950 . S
C2036 C2037 1.349 . S
C2036 C2038 1.327 . S
C2036 H2061 0.950 . S
C2037 C2036 1.349 . S
C2037 C2053 1.349 . S
C2038 C2036 1.327 . S
C2038 C2057 1.429 . S
C2038 H2062 0.950 . S
C2039 C2056 1.574 . S
C2039 C2058 1.368 . S
C2039 H2063 0.949 . S
H2040 C2044 0.949 . S
C2041 C2042 1.349 . S
C2041 C2043 1.327 . S
C2041 H2064 0.950 . S
C2042 C2041 1.349 . S
C2042 C2054 1.349 . S
C2043 C2041 1.327 . S
C2043 C2059 1.429 . S
C2043 H2065 0.950 . S
C2044 H2040 0.949 . S
C2044 C2052 1.574 . S
C2044 C2060 1.368 . S
H2045 C2053 0.950 . S
H2046 C2051 0.950 . S
H2047 C2052 0.949 . S
H2048 C2054 0.950 . S
H2049 C2055 0.950 . S
H2050 C2056 0.949 . S
C2051 H2046 0.950 . S
C2051 C2053 1.327 . S
C2051 C2057 1.429 . S
C2052 C2044 1.574 . S
C2052 H2047 0.949 . S
C2052 C2058 1.368 . S
C2053 C2037 1.349 . S
C2053 H2045 0.950 . S
C2053 C2051 1.327 . S
C2054 C2042 1.349 . S
C2054 H2048 0.950 . S
C2054 C2055 1.327 . S
C2055 H2049 0.950 . S
C2055 C2054 1.327 . S
C2055 C2059 1.429 . S
C2056 C2039 1.574 . S
C2056 H2050 0.949 . S
C2056 C2060 1.368 . S
C2057 C2038 1.429 . S
C2057 C2051 1.429 . S
C2057 C2058 1.523 . S
C2058 C2039 1.368 . S
C2058 C2052 1.368 . S
C2058 C2057 1.523 . S
C2059 C2043 1.429 . S
C2059 C2055 1.429 . S
C2059 C2060 1.523 . S
C2060 C2044 1.368 . S
C2060 C2056 1.368 . S
C2060 C2059 1.523 . S
H2061 C2036 0.950 . S
H2062 C2038 0.950 . S
H2063 C2039 0.949 . S
H2064 C2041 0.950 . S
H2065 C2043 0.950 . S
C2066 C2067 1.349 . S
C2066 C2068 1.327 . S
C2066 H2091 0.950 . S
C2067 C2066 1.349 . S
C2067 C2083 1.349 . S
C2068 C2066 1.327 . S
C2068 C2087 1.429 . S
C2068 H2092 0.950 . S
C2069 C2086 1.574 . S
C2069 C2088 1.368 . S
C2069 H2093 0.949 . S
H2070 C2074 0.949 . S
C2071 C2072 1.349 . S
C2071 C2073 1.327 . S
C2071 H2094 0.950 . S
C2072 C2071 1.349 . S
C2072 C2084 1.349 . S
C2073 C2071 1.327 . S
C2073 C2089 1.429 . S
C2073 H2095 0.950 . S
C2074 H2070 0.949 . S
C2074 C2082 1.574 . S
C2074 C2090 1.368 . S
H2075 C2083 0.950 . S
H2076 C2081 0.950 . S
H2077 C2082 0.949 . S
H2078 C2084 0.950 . S
H2079 C2085 0.950 . S
H2080 C2086 0.949 . S
C2081 H2076 0.950 . S
C2081 C2083 1.327 . S
C2081 C2087 1.429 . S
C2082 C2074 1.574 . S
C2082 H2077 0.949 . S
C2082 C2088 1.368 . S
C2083 C2067 1.349 . S
C2083 H2075 0.950 . S
C2083 C2081 1.327 . S
C2084 C2072 1.349 . S
C2084 H2078 0.950 . S
C2084 C2085 1.327 . S
C2085 H2079 0.950 . S
C2085 C2084 1.327 . S
C2085 C2089 1.429 . S
C2086 C2069 1.574 . S
C2086 H2080 0.949 . S
C2086 C2090 1.368 . S
C2087 C2068 1.429 . S
C2087 C2081 1.429 . S
C2087 C2088 1.523 . S
C2088 C2069 1.368 . S
C2088 C2082 1.368 . S
C2088 C2087 1.523 . S
C2089 C2073 1.429 . S
C2089 C2085 1.429 . S
C2089 C2090 1.523 . S
C2090 C2074 1.368 . S
C2090 C2086 1.368 . S
C2090 C2089 1.523 . S
H2091 C2066 0.950 . S
H2092 C2068 0.950 . S
H2093 C2069 0.949 . S
H2094 C2071 0.950 . S
H2095 C2073 0.950 . S
C2096 C2097 1.349 . S
C2096 C2098 1.327 . S
C2096 H2121 0.950 . S
C2097 C2096 1.349 . S
C2097 C2113 1.349 . S
C2098 C2096 1.327 . S
C2098 C2117 1.429 . S
C2098 H2122 0.950 . S
C2099 C2116 1.574 . S
C2099 C2118 1.368 . S
C2099 H2123 0.949 . S
H2100 C2104 0.949 . S
C2101 C2102 1.349 . S
C2101 C2103 1.327 . S
C2101 H2124 0.950 . S
C2102 C2101 1.349 . S
C2102 C2114 1.349 . S
C2103 C2101 1.327 . S
C2103 C2119 1.429 . S
C2103 H2125 0.950 . S
C2104 H2100 0.949 . S
C2104 C2112 1.574 . S
C2104 C2120 1.368 . S
H2105 C2113 0.950 . S
H2106 C2111 0.950 . S
H2107 C2112 0.949 . S
H2108 C2114 0.950 . S
H2109 C2115 0.950 . S
H2110 C2116 0.949 . S
C2111 H2106 0.950 . S
C2111 C2113 1.327 . S
C2111 C2117 1.429 . S
C2112 C2104 1.574 . S
C2112 H2107 0.949 . S
C2112 C2118 1.368 . S
C2113 C2097 1.349 . S
C2113 H2105 0.950 . S
C2113 C2111 1.327 . S
C2114 C2102 1.349 . S
C2114 H2108 0.950 . S
C2114 C2115 1.327 . S
C2115 H2109 0.950 . S
C2115 C2114 1.327 . S
C2115 C2119 1.429 . S
C2116 C2099 1.574 . S
C2116 H2110 0.949 . S
C2116 C2120 1.368 . S
C2117 C2098 1.429 . S
C2117 C2111 1.429 . S
C2117 C2118 1.523 . S
C2118 C2099 1.368 . S
C2118 C2112 1.368 . S
C2118 C2117 1.523 . S
C2119 C2103 1.429 . S
C2119 C2115 1.429 . S
C2119 C2120 1.523 . S
C2120 C2104 1.368 . S
C2120 C2116 1.368 . S
C2120 C2119 1.523 . S
H2121 C2096 0.950 . S
H2122 C2098 0.950 . S
H2123 C2099 0.949 . S
H2124 C2101 0.950 . S
H2125 C2103 0.950 . S
C2126 C2127 1.349 . S
C2126 C2128 1.327 . S
C2126 H2151 0.950 . S
C2127 C2126 1.349 . S
C2127 C2143 1.349 . S
C2128 C2126 1.327 . S
C2128 C2147 1.429 . S
C2128 H2152 0.950 . S
C2129 C2146 1.574 . S
C2129 C2148 1.368 . S
C2129 H2153 0.949 . S
H2130 C2134 0.949 . S
C2131 C2132 1.349 . S
C2131 C2133 1.327 . S
C2131 H2154 0.950 . S
C2132 C2131 1.349 . S
C2132 C2144 1.349 . S
C2133 C2131 1.327 . S
C2133 C2149 1.429 . S
C2133 H2155 0.950 . S
C2134 H2130 0.949 . S
C2134 C2142 1.574 . S
C2134 C2150 1.368 . S
H2135 C2143 0.950 . S
H2136 C2141 0.950 . S
H2137 C2142 0.949 . S
H2138 C2144 0.950 . S
H2139 C2145 0.950 . S
H2140 C2146 0.949 . S
C2141 H2136 0.950 . S
C2141 C2143 1.327 . S
C2141 C2147 1.429 . S
C2142 C2134 1.574 . S
C2142 H2137 0.949 . S
C2142 C2148 1.368 . S
C2143 C2127 1.349 . S
C2143 H2135 0.950 . S
C2143 C2141 1.327 . S
C2144 C2132 1.349 . S
C2144 H2138 0.950 . S
C2144 C2145 1.327 . S
C2145 H2139 0.950 . S
C2145 C2144 1.327 . S
C2145 C2149 1.429 . S
C2146 C2129 1.574 . S
C2146 H2140 0.949 . S
C2146 C2150 1.368 . S
C2147 C2128 1.429 . S
C2147 C2141 1.429 . S
C2147 C2148 1.523 . S
C2148 C2129 1.368 . S
C2148 C2142 1.368 . S
C2148 C2147 1.523 . S
C2149 C2133 1.429 . S
C2149 C2145 1.429 . S
C2149 C2150 1.523 . S
C2150 C2134 1.368 . S
C2150 C2146 1.368 . S
C2150 C2149 1.523 . S
H2151 C2126 0.950 . S
H2152 C2128 0.950 . S
H2153 C2129 0.949 . S
H2154 C2131 0.950 . S
H2155 C2133 0.950 . S
C2156 C2157 1.342 1_655 S
C2156 C2158 1.329 . S
C2156 H2181 0.954 . S
C2157 C2156 1.342 1_455 S
C2157 C2173 1.349 . S
C2158 C2156 1.329 . S
C2158 C2177 1.429 1_655 S
C2158 H2182 0.950 . S
C2159 C2176 1.574 . S
C2159 C2178 1.368 . S
C2159 H2183 0.949 . S
H2160 C2164 0.949 . S
C2161 C2162 1.349 . S
C2161 C2163 1.327 . S
C2161 H2184 0.950 . S
C2162 C2161 1.349 . S
C2162 C2174 1.350 1_455 S
C2163 C2161 1.327 . S
C2163 C2179 1.429 1_554 S
C2163 H2185 0.950 . S
C2164 H2160 0.949 . S
C2164 C2172 1.574 . S
C2164 C2180 1.368 1_655 S
H2165 C2173 0.950 . S
H2166 C2171 0.950 . S
H2167 C2172 0.949 . S
H2168 C2174 0.951 1_556 S
H2169 C2175 0.950 . S
H2170 C2176 0.949 . S
C2171 H2166 0.950 . S
C2171 C2173 1.327 . S
C2171 C2177 1.429 . S
C2172 C2164 1.574 . S
C2172 H2167 0.949 . S
C2172 C2178 1.368 1_655 S
C2173 C2157 1.349 . S
C2173 H2165 0.950 . S
C2173 C2171 1.327 . S
C2174 C2162 1.350 1_655 S
C2174 H2168 0.951 1_554 S
C2174 C2175 1.326 1_554 S
C2175 H2169 0.950 . S
C2175 C2174 1.326 1_556 S
C2175 C2179 1.429 1_655 S
C2176 C2159 1.574 . S
C2176 H2170 0.949 . S
C2176 C2180 1.368 . S
C2177 C2158 1.429 1_455 S
C2177 C2171 1.429 . S
C2177 C2178 1.523 . S
C2178 C2159 1.368 . S
C2178 C2172 1.368 1_455 S
C2178 C2177 1.523 . S
C2179 C2163 1.429 1_556 S
C2179 C2175 1.429 1_455 S
C2179 C2180 1.523 . S
C2180 C2164 1.368 1_455 S
C2180 C2176 1.368 . S
C2180 C2179 1.523 . S
H2181 C2156 0.954 . S
H2182 C2158 0.950 . S
H2183 C2159 0.949 . S
H2184 C2161 0.950 . S
H2185 C2163 0.950 . S
C2186 C2187 1.349 . S
C2186 C2188 1.327 . S
C2186 H2211 0.950 . S
C2187 C2186 1.349 . S
C2187 C2203 1.349 . S
C2188 C2186 1.327 . S
C2188 C2207 1.429 . S
C2188 H2212 0.950 . S
C2189 C2206 1.574 . S
C2189 C2208 1.368 . S
C2189 H2213 0.949 . S
H2190 C2194 0.949 . S
C2191 C2192 1.349 . S
C2191 C2193 1.327 . S
C2191 H2214 0.950 . S
C2192 C2191 1.349 . S
C2192 C2204 1.349 . S
C2193 C2191 1.327 . S
C2193 C2209 1.429 . S
C2193 H2215 0.950 . S
C2194 H2190 0.949 . S
C2194 C2202 1.574 . S
C2194 C2210 1.368 . S
H2195 C2203 0.950 . S
H2196 C2201 0.950 . S
H2197 C2202 0.949 . S
H2198 C2204 0.950 . S
H2199 C2205 0.950 . S
H2200 C2206 0.949 . S
C2201 H2196 0.950 . S
C2201 C2203 1.327 . S
C2201 C2207 1.429 . S
C2202 C2194 1.574 . S
C2202 H2197 0.949 . S
C2202 C2208 1.368 . S
C2203 C2187 1.349 . S
C2203 H2195 0.950 . S
C2203 C2201 1.327 . S
C2204 C2192 1.349 . S
C2204 H2198 0.950 . S
C2204 C2205 1.327 . S
C2205 H2199 0.950 . S
C2205 C2204 1.327 . S
C2205 C2209 1.429 . S
C2206 C2189 1.574 . S
C2206 H2200 0.949 . S
C2206 C2210 1.368 . S
C2207 C2188 1.429 . S
C2207 C2201 1.429 . S
C2207 C2208 1.523 . S
C2208 C2189 1.368 . S
C2208 C2202 1.368 . S
C2208 C2207 1.523 . S
C2209 C2193 1.429 . S
C2209 C2205 1.429 . S
C2209 C2210 1.523 . S
C2210 C2194 1.368 . S
C2210 C2206 1.368 . S
C2210 C2209 1.523 . S
H2211 C2186 0.950 . S
H2212 C2188 0.950 . S
H2213 C2189 0.949 . S
H2214 C2191 0.950 . S
H2215 C2193 0.950 . S
C2216 C2217 1.349 . S
C2216 C2218 1.327 . S
C2216 H2241 0.950 . S
C2217 C2216 1.349 . S
C2217 C2233 1.349 . S
C2218 C2216 1.327 . S
C2218 C2237 1.429 . S
C2218 H2242 0.950 . S
C2219 C2236 1.574 . S
C2219 C2238 1.368 . S
C2219 H2243 0.949 . S
H2220 C2224 0.949 . S
C2221 C2222 1.349 . S
C2221 C2223 1.327 . S
C2221 H2244 0.950 . S
C2222 C2221 1.349 . S
C2222 C2234 1.349 . S
C2223 C2221 1.327 . S
C2223 C2239 1.429 . S
C2223 H2245 0.950 . S
C2224 H2220 0.949 . S
C2224 C2232 1.574 . S
C2224 C2240 1.368 . S
H2225 C2233 0.950 . S
H2226 C2231 0.950 . S
H2227 C2232 0.949 . S
H2228 C2234 0.950 . S
H2229 C2235 0.950 . S
H2230 C2236 0.949 . S
C2231 H2226 0.950 . S
C2231 C2233 1.327 . S
C2231 C2237 1.429 . S
C2232 C2224 1.574 . S
C2232 H2227 0.949 . S
C2232 C2238 1.368 . S
C2233 C2217 1.349 . S
C2233 H2225 0.950 . S
C2233 C2231 1.327 . S
C2234 C2222 1.349 . S
C2234 H2228 0.950 . S
C2234 C2235 1.327 . S
C2235 H2229 0.950 . S
C2235 C2234 1.327 . S
C2235 C2239 1.429 . S
C2236 C2219 1.574 . S
C2236 H2230 0.949 . S
C2236 C2240 1.368 . S
C2237 C2218 1.429 . S
C2237 C2231 1.429 . S
C2237 C2238 1.523 . S
C2238 C2219 1.368 . S
C2238 C2232 1.368 . S
C2238 C2237 1.523 . S
C2239 C2223 1.429 . S
C2239 C2235 1.429 . S
C2239 C2240 1.523 . S
C2240 C2224 1.368 . S
C2240 C2236 1.368 . S
C2240 C2239 1.523 . S
H2241 C2216 0.950 . S
H2242 C2218 0.950 . S
H2243 C2219 0.949 . S
H2244 C2221 0.950 . S
H2245 C2223 0.950 . S
C2246 C2247 1.349 . S
C2246 C2248 1.327 . S
C2246 H2271 0.950 . S
C2247 C2246 1.349 . S
C2247 C2263 1.349 . S
C2248 C2246 1.327 . S
C2248 C2267 1.429 . S
C2248 H2272 0.950 . S
C2249 C2266 1.574 . S
C2249 C2268 1.368 . S
C2249 H2273 0.949 . S
H2250 C2254 0.949 . S
C2251 C2252 1.349 . S
C2251 C2253 1.327 . S
C2251 H2274 0.950 . S
C2252 C2251 1.349 . S
C2252 C2264 1.349 . S
C2253 C2251 1.327 . S
C2253 C2269 1.429 . S
C2253 H2275 0.950 . S
C2254 H2250 0.949 . S
C2254 C2262 1.574 . S
C2254 C2270 1.368 . S
H2255 C2263 0.950 . S
H2256 C2261 0.950 . S
H2257 C2262 0.949 . S
H2258 C2264 0.950 . S
H2259 C2265 0.950 . S
H2260 C2266 0.949 . S
C2261 H2256 0.950 . S
C2261 C2263 1.327 . S
C2261 C2267 1.429 . S
C2262 C2254 1.574 . S
C2262 H2257 0.949 . S
C2262 C2268 1.368 . S
C2263 C2247 1.349 . S
C2263 H2255 0.950 . S
C2263 C2261 1.327 . S
C2264 C2252 1.349 . S
C2264 H2258 0.950 . S
C2264 C2265 1.327 . S
C2265 H2259 0.950 . S
C2265 C2264 1.327 . S
C2265 C2269 1.429 . S
C2266 C2249 1.574 . S
C2266 H2260 0.949 . S
C2266 C2270 1.368 . S
C2267 C2248 1.429 . S
C2267 C2261 1.429 . S
C2267 C2268 1.523 . S
C2268 C2249 1.368 . S
C2268 C2262 1.368 . S
C2268 C2267 1.523 . S
C2269 C2253 1.429 . S
C2269 C2265 1.429 . S
C2269 C2270 1.523 . S
C2270 C2254 1.368 . S
C2270 C2266 1.368 . S
C2270 C2269 1.523 . S
H2271 C2246 0.950 . S
H2272 C2248 0.950 . S
H2273 C2249 0.949 . S
H2274 C2251 0.950 . S
H2275 C2253 0.950 . S
C2276 C2277 1.349 . S
C2276 C2278 1.327 . S
C2276 H2301 0.950 . S
C2277 C2276 1.349 . S
C2277 C2293 1.349 1_655 S
C2278 C2276 1.327 . S
C2278 C2297 1.429 . S
C2278 H2302 0.950 . S
C2279 C2296 1.574 . S
C2279 C2298 1.324 1_455 S
C2279 H2303 0.949 . S
H2280 C2284 0.949 . S
C2281 C2282 1.349 . S
C2281 C2283 1.327 . S
C2281 H2304 0.950 . S
C2282 C2281 1.349 . S
C2282 C2294 1.349 1_455 S
C2283 C2281 1.327 . S
C2283 C2299 1.459 . S
C2283 H2305 0.950 . S
C2284 H2280 0.949 . S
C2284 C2292 1.574 . S
C2284 C2300 1.369 1_655 S
H2285 C2293 0.950 . S
H2286 C2291 0.950 . S
H2287 C2292 0.949 . S
H2288 C2294 0.950 . S
H2289 C2295 0.950 . S
H2290 C2296 0.949 . S
C2291 H2286 0.950 . S
C2291 C2293 1.327 . S
C2291 C2297 1.429 1_455 S
C2292 C2284 1.574 . S
C2292 H2287 0.949 . S
C2292 C2298 1.402 . S
C2293 C2277 1.349 1_455 S
C2293 H2285 0.950 . S
C2293 C2291 1.327 . S
C2294 C2282 1.349 1_655 S
C2294 H2288 0.950 . S
C2294 C2295 1.327 . S
C2295 H2289 0.950 . S
C2295 C2294 1.327 . S
C2295 C2299 1.411 1_655 S
C2296 C2279 1.574 . S
C2296 H2290 0.949 . S
C2296 C2300 1.368 . S
C2297 C2278 1.429 . S
C2297 C2291 1.429 1_655 S
C2297 C2298 1.540 . S
C2298 C2279 1.324 1_655 S
C2298 C2292 1.402 . S
C2298 C2297 1.540 . S
C2299 C2283 1.459 . S
C2299 C2295 1.411 1_455 S
C2299 C2300 1.512 . S
C2300 C2284 1.369 1_455 S
C2300 C2296 1.368 . S
C2300 C2299 1.512 . S
H2301 C2276 0.950 . S
H2302 C2278 0.950 . S
H2303 C2279 0.949 . S
H2304 C2281 0.950 . S
H2305 C2283 0.950 . S
C2306 C2307 1.349 . S
C2306 C2308 1.327 . S
C2306 H2331 0.950 . S
C2307 C2306 1.349 . S
C2307 C2323 1.349 . S
C2308 C2306 1.327 . S
C2308 C2327 1.429 . S
C2308 H2332 0.950 . S
C2309 C2326 1.574 . S
C2309 C2328 1.368 . S
C2309 H2333 0.949 . S
H2310 C2314 0.949 . S
C2311 C2312 1.349 . S
C2311 C2313 1.327 . S
C2311 H2334 0.950 . S
C2312 C2311 1.349 . S
C2312 C2324 1.349 . S
C2313 C2311 1.327 . S
C2313 C2329 1.429 . S
C2313 H2335 0.950 . S
C2314 H2310 0.949 . S
C2314 C2322 1.574 . S
C2314 C2330 1.368 . S
H2315 C2323 0.950 . S
H2316 C2321 0.950 . S
H2317 C2322 0.949 . S
H2318 C2324 0.950 . S
H2319 C2325 0.950 . S
H2320 C2326 0.949 . S
C2321 H2316 0.950 . S
C2321 C2323 1.327 . S
C2321 C2327 1.429 . S
C2322 C2314 1.574 . S
C2322 H2317 0.949 . S
C2322 C2328 1.368 . S
C2323 C2307 1.349 . S
C2323 H2315 0.950 . S
C2323 C2321 1.327 . S
C2324 C2312 1.349 . S
C2324 H2318 0.950 . S
C2324 C2325 1.327 . S
C2325 H2319 0.950 . S
C2325 C2324 1.327 . S
C2325 C2329 1.429 . S
C2326 C2309 1.574 . S
C2326 H2320 0.949 . S
C2326 C2330 1.368 . S
C2327 C2308 1.429 . S
C2327 C2321 1.429 . S
C2327 C2328 1.523 . S
C2328 C2309 1.368 . S
C2328 C2322 1.368 . S
C2328 C2327 1.523 . S
C2329 C2313 1.429 . S
C2329 C2325 1.429 . S
C2329 C2330 1.523 . S
C2330 C2314 1.368 . S
C2330 C2326 1.368 . S
C2330 C2329 1.523 . S
H2331 C2306 0.950 . S
H2332 C2308 0.950 . S
H2333 C2309 0.949 . S
H2334 C2311 0.950 . S
H2335 C2313 0.950 . S
C2336 C2337 1.349 . S
C2336 C2338 1.327 . S
C2336 H2361 0.950 . S
C2337 C2336 1.349 . S
C2337 C2353 1.349 . S
C2338 C2336 1.327 . S
C2338 C2357 1.429 . S
C2338 H2362 0.950 . S
C2339 C2356 1.574 . S
C2339 C2358 1.368 . S
C2339 H2363 0.949 . S
H2340 C2344 0.949 . S
C2341 C2342 1.349 . S
C2341 C2343 1.327 . S
C2341 H2364 0.950 . S
C2342 C2341 1.349 . S
C2342 C2354 1.349 . S
C2343 C2341 1.327 . S
C2343 C2359 1.429 . S
C2343 H2365 0.950 . S
C2344 H2340 0.949 . S
C2344 C2352 1.574 . S
C2344 C2360 1.368 . S
H2345 C2353 0.950 . S
H2346 C2351 0.950 . S
H2347 C2352 0.949 . S
H2348 C2354 0.950 . S
H2349 C2355 0.950 . S
H2350 C2356 0.949 . S
C2351 H2346 0.950 . S
C2351 C2353 1.327 . S
C2351 C2357 1.429 . S
C2352 C2344 1.574 . S
C2352 H2347 0.949 . S
C2352 C2358 1.368 . S
C2353 C2337 1.349 . S
C2353 H2345 0.950 . S
C2353 C2351 1.327 . S
C2354 C2342 1.349 . S
C2354 H2348 0.950 . S
C2354 C2355 1.327 . S
C2355 H2349 0.950 . S
C2355 C2354 1.327 . S
C2355 C2359 1.429 . S
C2356 C2339 1.574 . S
C2356 H2350 0.949 . S
C2356 C2360 1.368 . S
C2357 C2338 1.429 . S
C2357 C2351 1.429 . S
C2357 C2358 1.523 . S
C2358 C2339 1.368 . S
C2358 C2352 1.368 . S
C2358 C2357 1.523 . S
C2359 C2343 1.429 . S
C2359 C2355 1.429 . S
C2359 C2360 1.523 . S
C2360 C2344 1.368 . S
C2360 C2356 1.368 . S
C2360 C2359 1.523 . S
H2361 C2336 0.950 . S
H2362 C2338 0.950 . S
H2363 C2339 0.949 . S
H2364 C2341 0.950 . S
H2365 C2343 0.950 . S
C2366 C2367 1.349 . S
C2366 C2368 1.327 . S
C2366 H2391 0.950 . S
C2367 C2366 1.349 . S
C2367 C2383 1.349 . S
C2368 C2366 1.327 . S
C2368 C2387 1.429 . S
C2368 H2392 0.950 . S
C2369 C2386 1.574 . S
C2369 C2388 1.368 . S
C2369 H2393 0.949 . S
H2370 C2374 0.949 . S
C2371 C2372 1.349 . S
C2371 C2373 1.327 . S
C2371 H2394 0.950 . S
C2372 C2371 1.349 . S
C2372 C2384 1.349 . S
C2373 C2371 1.327 . S
C2373 C2389 1.429 . S
C2373 H2395 0.950 . S
C2374 H2370 0.949 . S
C2374 C2382 1.574 . S
C2374 C2390 1.368 . S
H2375 C2383 0.950 . S
H2376 C2381 0.950 . S
H2377 C2382 0.949 . S
H2378 C2384 0.950 . S
H2379 C2385 0.950 . S
H2380 C2386 0.949 . S
C2381 H2376 0.950 . S
C2381 C2383 1.327 . S
C2381 C2387 1.429 . S
C2382 C2374 1.574 . S
C2382 H2377 0.949 . S
C2382 C2388 1.368 . S
C2383 C2367 1.349 . S
C2383 H2375 0.950 . S
C2383 C2381 1.327 . S
C2384 C2372 1.349 . S
C2384 H2378 0.950 . S
C2384 C2385 1.327 . S
C2385 H2379 0.950 . S
C2385 C2384 1.327 . S
C2385 C2389 1.429 . S
C2386 C2369 1.574 . S
C2386 H2380 0.949 . S
C2386 C2390 1.368 . S
C2387 C2368 1.429 . S
C2387 C2381 1.429 . S
C2387 C2388 1.523 . S
C2388 C2369 1.368 . S
C2388 C2382 1.368 . S
C2388 C2387 1.523 . S
C2389 C2373 1.429 . S
C2389 C2385 1.429 . S
C2389 C2390 1.523 . S
C2390 C2374 1.368 . S
C2390 C2386 1.368 . S
C2390 C2389 1.523 . S
H2391 C2366 0.950 . S
H2392 C2368 0.950 . S
H2393 C2369 0.949 . S
H2394 C2371 0.950 . S
H2395 C2373 0.950 . S
C2396 C2397 1.349 . S
C2396 C2398 1.327 . S
C2396 H2421 0.950 . S
C2397 C2396 1.349 . S
C2397 C2413 1.349 . S
C2398 C2396 1.327 . S
C2398 C2417 1.429 . S
C2398 H2422 0.950 . S
C2399 C2416 1.574 . S
C2399 C2418 1.368 . S
C2399 H2423 0.949 . S
H2400 C2404 0.949 . S
C2401 C2402 1.349 . S
C2401 C2403 1.327 . S
C2401 H2424 0.950 . S
C2402 C2401 1.349 . S
C2402 C2414 1.349 . S
C2403 C2401 1.327 . S
C2403 C2419 1.429 . S
C2403 H2425 0.950 . S
C2404 H2400 0.949 . S
C2404 C2412 1.574 . S
C2404 C2420 1.368 . S
H2405 C2413 0.950 . S
H2406 C2411 0.950 . S
H2407 C2412 0.949 . S
H2408 C2414 0.950 . S
H2409 C2415 0.950 . S
H2410 C2416 0.949 . S
C2411 H2406 0.950 . S
C2411 C2413 1.327 . S
C2411 C2417 1.429 . S
C2412 C2404 1.574 . S
C2412 H2407 0.949 . S
C2412 C2418 1.368 . S
C2413 C2397 1.349 . S
C2413 H2405 0.950 . S
C2413 C2411 1.327 . S
C2414 C2402 1.349 . S
C2414 H2408 0.950 . S
C2414 C2415 1.327 . S
C2415 H2409 0.950 . S
C2415 C2414 1.327 . S
C2415 C2419 1.429 . S
C2416 C2399 1.574 . S
C2416 H2410 0.949 . S
C2416 C2420 1.368 . S
C2417 C2398 1.429 . S
C2417 C2411 1.429 . S
C2417 C2418 1.523 . S
C2418 C2399 1.368 . S
C2418 C2412 1.368 . S
C2418 C2417 1.523 . S
C2419 C2403 1.429 . S
C2419 C2415 1.429 . S
C2419 C2420 1.523 . S
C2420 C2404 1.368 . S
C2420 C2416 1.368 . S
C2420 C2419 1.523 . S
H2421 C2396 0.950 . S
H2422 C2398 0.950 . S
H2423 C2399 0.949 . S
H2424 C2401 0.950 . S
H2425 C2403 0.950 . S
C2426 C2427 1.349 . S
C2426 C2428 1.327 . S
C2426 H2451 0.950 . S
C2427 C2426 1.349 . S
C2427 C2443 1.349 . S
C2428 C2426 1.327 . S
C2428 C2447 1.429 . S
C2428 H2452 0.950 . S
C2429 C2446 1.574 . S
C2429 C2448 1.368 . S
C2429 H2453 0.949 . S
H2430 C2434 0.949 . S
C2431 C2432 1.349 . S
C2431 C2433 1.327 . S
C2431 H2454 0.950 . S
C2432 C2431 1.349 . S
C2432 C2444 1.349 . S
C2433 C2431 1.327 . S
C2433 C2449 1.429 . S
C2433 H2455 0.950 . S
C2434 H2430 0.949 . S
C2434 C2442 1.574 . S
C2434 C2450 1.368 . S
H2435 C2443 0.950 . S
H2436 C2441 0.950 . S
H2437 C2442 0.949 . S
H2438 C2444 0.950 . S
H2439 C2445 0.950 . S
H2440 C2446 0.949 . S
C2441 H2436 0.950 . S
C2441 C2443 1.327 . S
C2441 C2447 1.429 . S
C2442 C2434 1.574 . S
C2442 H2437 0.949 . S
C2442 C2448 1.368 . S
C2443 C2427 1.349 . S
C2443 H2435 0.950 . S
C2443 C2441 1.327 . S
C2444 C2432 1.349 . S
C2444 H2438 0.950 . S
C2444 C2445 1.327 . S
C2445 H2439 0.950 . S
C2445 C2444 1.327 . S
C2445 C2449 1.429 . S
C2446 C2429 1.574 . S
C2446 H2440 0.949 . S
C2446 C2450 1.368 . S
C2447 C2428 1.429 . S
C2447 C2441 1.429 . S
C2447 C2448 1.523 . S
C2448 C2429 1.368 . S
C2448 C2442 1.368 . S
C2448 C2447 1.523 . S
C2449 C2433 1.429 . S
C2449 C2445 1.429 . S
C2449 C2450 1.523 . S
C2450 C2434 1.368 . S
C2450 C2446 1.368 . S
C2450 C2449 1.523 . S
H2451 C2426 0.950 . S
H2452 C2428 0.950 . S
H2453 C2429 0.949 . S
H2454 C2431 0.950 . S
H2455 C2433 0.950 . S
C2456 C2457 1.349 . S
C2456 C2458 1.327 . S
C2456 H2481 0.950 . S
C2457 C2456 1.349 . S
C2457 C2473 1.349 . S
C2458 C2456 1.327 . S
C2458 C2477 1.429 . S
C2458 H2482 0.950 . S
C2459 C2476 1.574 . S
C2459 C2478 1.368 . S
C2459 H2483 0.949 . S
H2460 C2464 0.949 . S
C2461 C2462 1.349 . S
C2461 C2463 1.327 . S
C2461 H2484 0.950 . S
C2462 C2461 1.349 . S
C2462 C2474 1.349 . S
C2463 C2461 1.327 . S
C2463 C2479 1.429 . S
C2463 H2485 0.950 . S
C2464 H2460 0.949 . S
C2464 C2472 1.574 . S
C2464 C2480 1.368 . S
H2465 C2473 0.950 . S
H2466 C2471 0.950 . S
H2467 C2472 0.949 . S
H2468 C2474 0.950 . S
H2469 C2475 0.950 . S
H2470 C2476 0.949 . S
C2471 H2466 0.950 . S
C2471 C2473 1.327 . S
C2471 C2477 1.429 . S
C2472 C2464 1.574 . S
C2472 H2467 0.949 . S
C2472 C2478 1.368 . S
C2473 C2457 1.349 . S
C2473 H2465 0.950 . S
C2473 C2471 1.327 . S
C2474 C2462 1.349 . S
C2474 H2468 0.950 . S
C2474 C2475 1.327 . S
C2475 H2469 0.950 . S
C2475 C2474 1.327 . S
C2475 C2479 1.429 . S
C2476 C2459 1.574 . S
C2476 H2470 0.949 . S
C2476 C2480 1.368 . S
C2477 C2458 1.429 . S
C2477 C2471 1.429 . S
C2477 C2478 1.523 . S
C2478 C2459 1.368 . S
C2478 C2472 1.368 . S
C2478 C2477 1.523 . S
C2479 C2463 1.429 . S
C2479 C2475 1.429 . S
C2479 C2480 1.523 . S
C2480 C2464 1.368 . S
C2480 C2476 1.368 . S
C2480 C2479 1.523 . S
H2481 C2456 0.950 . S
H2482 C2458 0.950 . S
H2483 C2459 0.949 . S
H2484 C2461 0.950 . S
H2485 C2463 0.950 . S
C2486 C2487 1.349 . S
C2486 C2488 1.327 . S
C2486 H2511 0.950 . S
C2487 C2486 1.349 . S
C2487 C2503 1.349 . S
C2488 C2486 1.327 . S
C2488 C2507 1.429 . S
C2488 H2512 0.950 . S
C2489 C2506 1.574 . S
C2489 C2508 1.368 . S
C2489 H2513 0.949 . S
H2490 C2494 0.949 . S
C2491 C2492 1.349 . S
C2491 C2493 1.327 . S
C2491 H2514 0.950 . S
C2492 C2491 1.349 . S
C2492 C2504 1.349 . S
C2493 C2491 1.327 . S
C2493 C2509 1.429 . S
C2493 H2515 0.950 . S
C2494 H2490 0.949 . S
C2494 C2502 1.574 . S
C2494 C2510 1.368 . S
H2495 C2503 0.950 . S
H2496 C2501 0.950 . S
H2497 C2502 0.949 . S
H2498 C2504 0.950 . S
H2499 C2505 0.950 . S
H2500 C2506 0.949 . S
C2501 H2496 0.950 . S
C2501 C2503 1.327 . S
C2501 C2507 1.429 . S
C2502 C2494 1.574 . S
C2502 H2497 0.949 . S
C2502 C2508 1.368 . S
C2503 C2487 1.349 . S
C2503 H2495 0.950 . S
C2503 C2501 1.327 . S
C2504 C2492 1.349 . S
C2504 H2498 0.950 . S
C2504 C2505 1.327 . S
C2505 H2499 0.950 . S
C2505 C2504 1.327 . S
C2505 C2509 1.429 . S
C2506 C2489 1.574 . S
C2506 H2500 0.949 . S
C2506 C2510 1.368 . S
C2507 C2488 1.429 . S
C2507 C2501 1.429 . S
C2507 C2508 1.523 . S
C2508 C2489 1.368 . S
C2508 C2502 1.368 . S
C2508 C2507 1.523 . S
C2509 C2493 1.429 . S
C2509 C2505 1.429 . S
C2509 C2510 1.523 . S
C2510 C2494 1.368 . S
C2510 C2506 1.368 . S
C2510 C2509 1.523 . S
H2511 C2486 0.950 . S
H2512 C2488 0.950 . S
H2513 C2489 0.949 . S
H2514 C2491 0.950 . S
H2515 C2493 0.950 . S
C2516 C2517 1.349 . S
C2516 C2518 1.327 . S
C2516 H2541 0.950 . S
C2517 C2516 1.349 . S
C2517 C2533 1.349 . S
C2518 C2516 1.327 . S
C2518 C2537 1.429 . S
C2518 H2542 0.950 . S
C2519 C2536 1.574 . S
C2519 C2538 1.368 . S
C2519 H2543 0.949 . S
H2520 C2524 0.949 . S
C2521 C2522 1.349 . S
C2521 C2523 1.327 . S
C2521 H2544 0.950 . S
C2522 C2521 1.349 . S
C2522 C2534 1.349 . S
C2523 C2521 1.327 . S
C2523 C2539 1.429 . S
C2523 H2545 0.950 . S
C2524 H2520 0.949 . S
C2524 C2532 1.574 . S
C2524 C2540 1.368 . S
H2525 C2533 0.950 . S
H2526 C2531 0.950 . S
H2527 C2532 0.949 . S
H2528 C2534 0.950 . S
H2529 C2535 0.950 . S
H2530 C2536 0.949 . S
C2531 H2526 0.950 . S
C2531 C2533 1.327 . S
C2531 C2537 1.429 . S
C2532 C2524 1.574 . S
C2532 H2527 0.949 . S
C2532 C2538 1.368 . S
C2533 C2517 1.349 . S
C2533 H2525 0.950 . S
C2533 C2531 1.327 . S
C2534 C2522 1.349 . S
C2534 H2528 0.950 . S
C2534 C2535 1.327 . S
C2535 H2529 0.950 . S
C2535 C2534 1.327 . S
C2535 C2539 1.429 . S
C2536 C2519 1.574 . S
C2536 H2530 0.949 . S
C2536 C2540 1.368 . S
C2537 C2518 1.429 . S
C2537 C2531 1.429 . S
C2537 C2538 1.523 . S
C2538 C2519 1.368 . S
C2538 C2532 1.368 . S
C2538 C2537 1.523 . S
C2539 C2523 1.429 . S
C2539 C2535 1.429 . S
C2539 C2540 1.523 . S
C2540 C2524 1.368 . S
C2540 C2536 1.368 . S
C2540 C2539 1.523 . S
H2541 C2516 0.950 . S
H2542 C2518 0.950 . S
H2543 C2519 0.949 . S
H2544 C2521 0.950 . S
H2545 C2523 0.950 . S
C2546 C2547 1.349 . S
C2546 C2548 1.327 . S
C2546 H2571 0.950 . S
C2547 C2546 1.349 . S
C2547 C2563 1.349 . S
C2548 C2546 1.327 . S
C2548 C2567 1.429 . S
C2548 H2572 0.950 . S
C2549 C2566 1.574 . S
C2549 C2568 1.368 . S
C2549 H2573 0.949 . S
H2550 C2554 0.949 . S
C2551 C2552 1.349 . S
C2551 C2553 1.327 . S
C2551 H2574 0.950 . S
C2552 C2551 1.349 . S
C2552 C2564 1.349 . S
C2553 C2551 1.327 . S
C2553 C2569 1.429 . S
C2553 H2575 0.950 . S
C2554 H2550 0.949 . S
C2554 C2562 1.574 . S
C2554 C2570 1.368 . S
H2555 C2563 0.950 . S
H2556 C2561 0.950 . S
H2557 C2562 0.949 . S
H2558 C2564 0.950 . S
H2559 C2565 0.950 . S
H2560 C2566 0.949 . S
C2561 H2556 0.950 . S
C2561 C2563 1.327 . S
C2561 C2567 1.429 . S
C2562 C2554 1.574 . S
C2562 H2557 0.949 . S
C2562 C2568 1.368 . S
C2563 C2547 1.349 . S
C2563 H2555 0.950 . S
C2563 C2561 1.327 . S
C2564 C2552 1.349 . S
C2564 H2558 0.950 . S
C2564 C2565 1.327 . S
C2565 H2559 0.950 . S
C2565 C2564 1.327 . S
C2565 C2569 1.429 . S
C2566 C2549 1.574 . S
C2566 H2560 0.949 . S
C2566 C2570 1.368 . S
C2567 C2548 1.429 . S
C2567 C2561 1.429 . S
C2567 C2568 1.523 . S
C2568 C2549 1.368 . S
C2568 C2562 1.368 . S
C2568 C2567 1.523 . S
C2569 C2553 1.429 . S
C2569 C2565 1.429 . S
C2569 C2570 1.523 . S
C2570 C2554 1.368 . S
C2570 C2566 1.368 . S
C2570 C2569 1.523 . S
H2571 C2546 0.950 . S
H2572 C2548 0.950 . S
H2573 C2549 0.949 . S
H2574 C2551 0.950 . S
H2575 C2553 0.950 . S
C2576 C2577 1.349 . S
C2576 C2578 1.327 . S
C2576 H2601 0.950 . S
C2577 C2576 1.349 . S
C2577 C2593 1.349 . S
C2578 C2576 1.327 . S
C2578 C2597 1.429 . S
C2578 H2602 0.950 . S
C2579 C2596 1.574 . S
C2579 C2598 1.368 . S
C2579 H2603 0.949 . S
H2580 C2584 0.949 . S
C2581 C2582 1.349 . S
C2581 C2583 1.327 . S
C2581 H2604 0.950 . S
C2582 C2581 1.349 . S
C2582 C2594 1.349 . S
C2583 C2581 1.327 . S
C2583 C2599 1.429 . S
C2583 H2605 0.950 . S
C2584 H2580 0.949 . S
C2584 C2592 1.574 . S
C2584 C2600 1.368 . S
H2585 C2593 0.950 . S
H2586 C2591 0.950 . S
H2587 C2592 0.949 . S
H2588 C2594 0.950 . S
H2589 C2595 0.950 . S
H2590 C2596 0.949 . S
C2591 H2586 0.950 . S
C2591 C2593 1.327 . S
C2591 C2597 1.429 . S
C2592 C2584 1.574 . S
C2592 H2587 0.949 . S
C2592 C2598 1.368 . S
C2593 C2577 1.349 . S
C2593 H2585 0.950 . S
C2593 C2591 1.327 . S
C2594 C2582 1.349 . S
C2594 H2588 0.950 . S
C2594 C2595 1.327 . S
C2595 H2589 0.950 . S
C2595 C2594 1.327 . S
C2595 C2599 1.429 . S
C2596 C2579 1.574 . S
C2596 H2590 0.949 . S
C2596 C2600 1.368 . S
C2597 C2578 1.429 . S
C2597 C2591 1.429 . S
C2597 C2598 1.523 . S
C2598 C2579 1.368 . S
C2598 C2592 1.368 . S
C2598 C2597 1.523 . S
C2599 C2583 1.429 . S
C2599 C2595 1.429 . S
C2599 C2600 1.523 . S
C2600 C2584 1.368 . S
C2600 C2596 1.368 . S
C2600 C2599 1.523 . S
H2601 C2576 0.950 . S
H2602 C2578 0.950 . S
H2603 C2579 0.949 . S
H2604 C2581 0.950 . S
H2605 C2583 0.950 . S
C2606 C2607 1.349 . S
C2606 C2608 1.327 . S
C2606 H2631 0.950 . S
C2607 C2606 1.349 . S
C2607 C2623 1.349 . S
C2608 C2606 1.327 . S
C2608 C2627 1.429 . S
C2608 H2632 0.950 . S
C2609 C2626 1.574 . S
C2609 C2628 1.368 . S
C2609 H2633 0.949 . S
H2610 C2614 0.949 . S
C2611 C2612 1.349 . S
C2611 C2613 1.327 . S
C2611 H2634 0.950 . S
C2612 C2611 1.349 . S
C2612 C2624 1.349 . S
C2613 C2611 1.327 . S
C2613 C2629 1.429 . S
C2613 H2635 0.950 . S
C2614 H2610 0.949 . S
C2614 C2622 1.574 . S
C2614 C2630 1.368 . S
H2615 C2623 0.950 . S
H2616 C2621 0.950 . S
H2617 C2622 0.949 . S
H2618 C2624 0.950 . S
H2619 C2625 0.950 . S
H2620 C2626 0.949 . S
C2621 H2616 0.950 . S
C2621 C2623 1.327 . S
C2621 C2627 1.429 . S
C2622 C2614 1.574 . S
C2622 H2617 0.949 . S
C2622 C2628 1.368 . S
C2623 C2607 1.349 . S
C2623 H2615 0.950 . S
C2623 C2621 1.327 . S
C2624 C2612 1.349 . S
C2624 H2618 0.950 . S
C2624 C2625 1.327 . S
C2625 H2619 0.950 . S
C2625 C2624 1.327 . S
C2625 C2629 1.429 . S
C2626 C2609 1.574 . S
C2626 H2620 0.949 . S
C2626 C2630 1.368 . S
C2627 C2608 1.429 . S
C2627 C2621 1.429 . S
C2627 C2628 1.523 . S
C2628 C2609 1.368 . S
C2628 C2622 1.368 . S
C2628 C2627 1.523 . S
C2629 C2613 1.429 . S
C2629 C2625 1.429 . S
C2629 C2630 1.523 . S
C2630 C2614 1.368 . S
C2630 C2626 1.368 . S
C2630 C2629 1.523 . S
H2631 C2606 0.950 . S
H2632 C2608 0.950 . S
H2633 C2609 0.949 . S
H2634 C2611 0.950 . S
H2635 C2613 0.950 . S
C2636 C2637 1.349 . S
C2636 C2638 1.327 . S
C2636 H2661 0.950 . S
C2637 C2636 1.349 . S
C2637 C2653 1.349 . S
C2638 C2636 1.327 . S
C2638 C2657 1.429 . S
C2638 H2662 0.950 . S
C2639 C2656 1.574 . S
C2639 C2658 1.368 . S
C2639 H2663 0.949 . S
H2640 C2644 0.949 . S
C2641 C2642 1.349 . S
C2641 C2643 1.327 . S
C2641 H2664 0.950 . S
C2642 C2641 1.349 . S
C2642 C2654 1.349 . S
C2643 C2641 1.327 . S
C2643 C2659 1.429 . S
C2643 H2665 0.950 . S
C2644 H2640 0.949 . S
C2644 C2652 1.574 . S
C2644 C2660 1.368 . S
H2645 C2653 0.950 . S
H2646 C2651 0.950 . S
H2647 C2652 0.949 . S
H2648 C2654 0.950 . S
H2649 C2655 0.950 . S
H2650 C2656 0.949 . S
C2651 H2646 0.950 . S
C2651 C2653 1.327 . S
C2651 C2657 1.429 . S
C2652 C2644 1.574 . S
C2652 H2647 0.949 . S
C2652 C2658 1.368 . S
C2653 C2637 1.349 . S
C2653 H2645 0.950 . S
C2653 C2651 1.327 . S
C2654 C2642 1.349 . S
C2654 H2648 0.950 . S
C2654 C2655 1.327 . S
C2655 H2649 0.950 . S
C2655 C2654 1.327 . S
C2655 C2659 1.429 . S
C2656 C2639 1.574 . S
C2656 H2650 0.949 . S
C2656 C2660 1.368 . S
C2657 C2638 1.429 . S
C2657 C2651 1.429 . S
C2657 C2658 1.523 . S
C2658 C2639 1.368 . S
C2658 C2652 1.368 . S
C2658 C2657 1.523 . S
C2659 C2643 1.429 . S
C2659 C2655 1.429 . S
C2659 C2660 1.523 . S
C2660 C2644 1.368 . S
C2660 C2656 1.368 . S
C2660 C2659 1.523 . S
H2661 C2636 0.950 . S
H2662 C2638 0.950 . S
H2663 C2639 0.949 . S
H2664 C2641 0.950 . S
H2665 C2643 0.950 . S
C2666 C2667 1.349 . S
C2666 C2668 1.327 . S
C2666 H2691 0.950 . S
C2667 C2666 1.349 . S
C2667 C2683 1.349 . S
C2668 C2666 1.327 . S
C2668 C2687 1.429 . S
C2668 H2692 0.950 . S
C2669 C2686 1.574 . S
C2669 C2688 1.368 . S
C2669 H2693 0.949 . S
H2670 C2674 0.949 . S
C2671 C2672 1.349 . S
C2671 C2673 1.327 1_545 S
C2671 H2694 0.950 . S
C2672 C2671 1.349 . S
C2672 C2684 1.349 1_545 S
C2673 C2671 1.327 1_565 S
C2673 C2689 1.429 . S
C2673 H2695 0.964 . S
C2674 H2670 0.949 . S
C2674 C2682 1.574 . S
C2674 C2690 1.368 . S
H2675 C2683 0.950 . S
H2676 C2681 0.950 . S
H2677 C2682 0.949 . S
H2678 C2684 0.942 . S
H2679 C2685 0.950 . S
H2680 C2686 0.949 . S
C2681 H2676 0.950 . S
C2681 C2683 1.327 . S
C2681 C2687 1.429 . S
C2682 C2674 1.574 . S
C2682 H2677 0.949 . S
C2682 C2688 1.368 . S
C2683 C2667 1.349 . S
C2683 H2675 0.950 . S
C2683 C2681 1.327 . S
C2684 C2672 1.349 1_565 S
C2684 H2678 0.942 . S
C2684 C2685 1.327 . S
C2685 H2679 0.950 . S
C2685 C2684 1.327 . S
C2685 C2689 1.429 . S
C2686 C2669 1.574 . S
C2686 H2680 0.949 . S
C2686 C2690 1.368 . S
C2687 C2668 1.429 . S
C2687 C2681 1.429 . S
C2687 C2688 1.523 . S
C2688 C2669 1.368 . S
C2688 C2682 1.368 . S
C2688 C2687 1.523 . S
C2689 C2673 1.429 . S
C2689 C2685 1.429 . S
C2689 C2690 1.523 . S
C2690 C2674 1.368 . S
C2690 C2686 1.368 . S
C2690 C2689 1.523 . S
H2691 C2666 0.950 . S
H2692 C2668 0.950 . S
H2693 C2669 0.949 . S
H2694 C2671 0.950 . S
H2695 C2673 0.964 . S
C2696 C2697 1.349 . S
C2696 C2698 1.327 . S
C2696 H2721 0.950 . S
C2697 C2696 1.349 . S
C2697 C2713 1.349 . S
C2698 C2696 1.327 . S
C2698 C2717 1.429 . S
C2698 H2722 0.950 . S
C2699 C2716 1.574 . S
C2699 C2718 1.368 . S
C2699 H2723 0.949 . S
H2700 C2704 0.949 . S
C2701 C2702 1.349 . S
C2701 C2703 1.327 . S
C2701 H2724 0.950 . S
C2702 C2701 1.349 . S
C2702 C2714 1.349 . S
C2703 C2701 1.327 . S
C2703 C2719 1.429 . S
C2703 H2725 0.950 . S
C2704 H2700 0.949 . S
C2704 C2712 1.574 . S
C2704 C2720 1.368 . S
H2705 C2713 0.950 . S
H2706 C2711 0.950 . S
H2707 C2712 0.949 . S
H2708 C2714 0.950 . S
H2709 C2715 0.950 . S
H2710 C2716 0.949 . S
C2711 H2706 0.950 . S
C2711 C2713 1.327 . S
C2711 C2717 1.429 . S
C2712 C2704 1.574 . S
C2712 H2707 0.949 . S
C2712 C2718 1.368 . S
C2713 C2697 1.349 . S
C2713 H2705 0.950 . S
C2713 C2711 1.327 . S
C2714 C2702 1.349 . S
C2714 H2708 0.950 . S
C2714 C2715 1.327 . S
C2715 H2709 0.950 . S
C2715 C2714 1.327 . S
C2715 C2719 1.429 . S
C2716 C2699 1.574 . S
C2716 H2710 0.949 . S
C2716 C2720 1.368 . S
C2717 C2698 1.429 . S
C2717 C2711 1.429 . S
C2717 C2718 1.523 . S
C2718 C2699 1.368 . S
C2718 C2712 1.368 . S
C2718 C2717 1.523 . S
C2719 C2703 1.429 . S
C2719 C2715 1.429 . S
C2719 C2720 1.523 . S
C2720 C2704 1.368 . S
C2720 C2716 1.368 . S
C2720 C2719 1.523 . S
H2721 C2696 0.950 . S
H2722 C2698 0.950 . S
H2723 C2699 0.949 . S
H2724 C2701 0.950 . S
H2725 C2703 0.950 . S
C2726 C2727 1.349 . S
C2726 C2728 1.327 . S
C2726 H2751 0.902 1_554 S
C2727 C2726 1.349 . S
C2727 C2743 1.349 . S
C2728 C2726 1.327 . S
C2728 C2747 1.429 . S
C2728 H2752 0.950 . S
C2729 C2746 1.574 . S
C2729 C2748 1.368 . S
C2729 H2753 0.949 . S
H2730 C2734 0.949 . S
C2731 C2732 1.349 . S
C2731 C2733 1.327 . S
C2731 H2754 0.950 . S
C2732 C2731 1.349 . S
C2732 C2744 1.349 . S
C2733 C2731 1.327 . S
C2733 C2749 1.429 . S
C2733 H2755 0.950 . S
C2734 H2730 0.949 . S
C2734 C2742 1.574 . S
C2734 C2750 1.368 . S
H2735 C2743 0.950 . S
H2736 C2741 0.950 . S
H2737 C2742 0.949 . S
H2738 C2744 0.950 . S
H2739 C2745 0.950 . S
H2740 C2746 0.949 . S
C2741 H2736 0.950 . S
C2741 C2743 1.327 . S
C2741 C2747 1.429 . S
C2742 C2734 1.574 . S
C2742 H2737 0.949 . S
C2742 C2748 1.368 . S
C2743 C2727 1.349 . S
C2743 H2735 0.950 . S
C2743 C2741 1.327 . S
C2744 C2732 1.349 . S
C2744 H2738 0.950 . S
C2744 C2745 1.327 . S
C2745 H2739 0.950 . S
C2745 C2744 1.327 . S
C2745 C2749 1.429 . S
C2746 C2729 1.574 . S
C2746 H2740 0.949 . S
C2746 C2750 1.368 . S
C2747 C2728 1.429 . S
C2747 C2741 1.429 . S
C2747 C2748 1.523 . S
C2748 C2729 1.368 . S
C2748 C2742 1.368 . S
C2748 C2747 1.523 . S
C2749 C2733 1.429 . S
C2749 C2745 1.429 . S
C2749 C2750 1.523 . S
C2750 C2734 1.368 . S
C2750 C2746 1.368 . S
C2750 C2749 1.523 . S
H2751 C2726 0.902 1_556 S
H2752 C2728 0.950 . S
H2753 C2729 0.949 . S
H2754 C2731 0.950 . S
H2755 C2733 0.950 . S
C2756 C2757 1.349 . S
C2756 C2758 1.327 . S
C2756 H2781 0.950 . S
C2757 C2756 1.349 . S
C2757 C2773 1.349 . S
C2758 C2756 1.327 . S
C2758 C2777 1.429 . S
C2758 H2782 0.950 . S
C2759 C2776 1.574 . S
C2759 C2778 1.368 . S
C2759 H2783 0.949 . S
H2760 C2764 0.949 . S
C2761 C2762 1.349 . S
C2761 C2763 1.327 . S
C2761 H2784 0.950 . S
C2762 C2761 1.349 . S
C2762 C2774 1.349 . S
C2763 C2761 1.327 . S
C2763 C2779 1.429 . S
C2763 H2785 0.950 . S
C2764 H2760 0.949 . S
C2764 C2772 1.574 . S
C2764 C2780 1.368 . S
H2765 C2773 0.950 . S
H2766 C2771 0.950 . S
H2767 C2772 0.949 . S
H2768 C2774 0.950 . S
H2769 C2775 0.950 . S
H2770 C2776 0.949 . S
C2771 H2766 0.950 . S
C2771 C2773 1.327 . S
C2771 C2777 1.429 . S
C2772 C2764 1.574 . S
C2772 H2767 0.949 . S
C2772 C2778 1.368 . S
C2773 C2757 1.349 . S
C2773 H2765 0.950 . S
C2773 C2771 1.327 . S
C2774 C2762 1.349 . S
C2774 H2768 0.950 . S
C2774 C2775 1.327 . S
C2775 H2769 0.950 . S
C2775 C2774 1.327 . S
C2775 C2779 1.429 . S
C2776 C2759 1.574 . S
C2776 H2770 0.949 . S
C2776 C2780 1.368 . S
C2777 C2758 1.429 . S
C2777 C2771 1.429 . S
C2777 C2778 1.523 . S
C2778 C2759 1.368 . S
C2778 C2772 1.368 . S
C2778 C2777 1.523 . S
C2779 C2763 1.429 . S
C2779 C2775 1.429 . S
C2779 C2780 1.523 . S
C2780 C2764 1.368 . S
C2780 C2776 1.368 . S
C2780 C2779 1.523 . S
H2781 C2756 0.950 . S
H2782 C2758 0.950 . S
H2783 C2759 0.949 . S
H2784 C2761 0.950 . S
H2785 C2763 0.950 . S
C2786 C2787 1.349 . S
C2786 C2788 1.327 1_545 S
C2786 H2811 0.950 . S
C2787 C2786 1.349 . S
C2787 C2803 1.349 1_545 S
C2788 C2786 1.327 1_565 S
C2788 C2807 1.429 . S
C2788 H2812 0.950 . S
C2789 C2806 1.574 . S
C2789 C2808 1.368 . S
C2789 H2813 0.949 . S
H2790 C2794 0.949 . S
C2791 C2792 1.349 . S
C2791 C2793 1.327 . S
C2791 H2814 0.950 . S
C2792 C2791 1.349 . S
C2792 C2804 1.349 . S
C2793 C2791 1.327 . S
C2793 C2809 1.429 . S
C2793 H2815 0.950 . S
C2794 H2790 0.949 . S
C2794 C2802 1.574 . S
C2794 C2810 1.368 . S
H2795 C2803 0.950 . S
H2796 C2801 0.950 . S
H2797 C2802 0.949 . S
H2798 C2804 0.950 . S
H2799 C2805 0.950 . S
H2800 C2806 0.949 . S
C2801 H2796 0.950 . S
C2801 C2803 1.327 . S
C2801 C2807 1.429 . S
C2802 C2794 1.574 . S
C2802 H2797 0.949 . S
C2802 C2808 1.368 . S
C2803 C2787 1.349 1_565 S
C2803 H2795 0.950 . S
C2803 C2801 1.327 . S
C2804 C2792 1.349 . S
C2804 H2798 0.950 . S
C2804 C2805 1.327 . S
C2805 H2799 0.950 . S
C2805 C2804 1.327 . S
C2805 C2809 1.429 . S
C2806 C2789 1.574 . S
C2806 H2800 0.949 . S
C2806 C2810 1.368 . S
C2807 C2788 1.429 . S
C2807 C2801 1.429 . S
C2807 C2808 1.523 . S
C2808 C2789 1.368 . S
C2808 C2802 1.368 . S
C2808 C2807 1.523 . S
C2809 C2793 1.429 . S
C2809 C2805 1.429 . S
C2809 C2810 1.523 . S
C2810 C2794 1.368 . S
C2810 C2806 1.368 . S
C2810 C2809 1.523 . S
H2811 C2786 0.950 . S
H2812 C2788 0.950 . S
H2813 C2789 0.949 . S
H2814 C2791 0.950 . S
H2815 C2793 0.950 . S
C2816 C2817 1.349 . S
C2816 C2818 1.327 . S
C2816 H2841 0.950 . S
C2817 C2816 1.349 . S
C2817 C2833 1.349 . S
C2818 C2816 1.327 . S
C2818 C2837 1.429 . S
C2818 H2842 0.950 . S
C2819 C2836 1.574 . S
C2819 C2838 1.368 . S
C2819 H2843 0.949 . S
H2820 C2824 0.949 . S
C2821 C2822 1.349 . S
C2821 C2823 1.327 . S
C2821 H2844 0.950 . S
C2822 C2821 1.349 . S
C2822 C2834 1.349 . S
C2823 C2821 1.327 . S
C2823 C2839 1.429 . S
C2823 H2845 0.950 . S
C2824 H2820 0.949 . S
C2824 C2832 1.574 . S
C2824 C2840 1.368 . S
H2825 C2833 0.950 . S
H2826 C2831 0.950 . S
H2827 C2832 0.949 . S
H2828 C2834 0.950 . S
H2829 C2835 0.950 . S
H2830 C2836 0.949 . S
C2831 H2826 0.950 . S
C2831 C2833 1.327 . S
C2831 C2837 1.429 . S
C2832 C2824 1.574 . S
C2832 H2827 0.949 . S
C2832 C2838 1.368 . S
C2833 C2817 1.349 . S
C2833 H2825 0.950 . S
C2833 C2831 1.327 . S
C2834 C2822 1.349 . S
C2834 H2828 0.950 . S
C2834 C2835 1.327 . S
C2835 H2829 0.950 . S
C2835 C2834 1.327 . S
C2835 C2839 1.429 . S
C2836 C2819 1.574 . S
C2836 H2830 0.949 . S
C2836 C2840 1.368 . S
C2837 C2818 1.429 . S
C2837 C2831 1.429 . S
C2837 C2838 1.523 . S
C2838 C2819 1.368 . S
C2838 C2832 1.368 . S
C2838 C2837 1.523 . S
C2839 C2823 1.429 . S
C2839 C2835 1.429 . S
C2839 C2840 1.523 . S
C2840 C2824 1.368 . S
C2840 C2836 1.368 . S
C2840 C2839 1.523 . S
H2841 C2816 0.950 . S
H2842 C2818 0.950 . S
H2843 C2819 0.949 . S
H2844 C2821 0.950 . S
H2845 C2823 0.950 . S
C2846 C2847 1.349 . S
C2846 C2848 1.327 . S
C2846 H2871 0.950 . S
C2847 C2846 1.349 . S
C2847 C2863 1.349 . S
C2848 C2846 1.327 . S
C2848 C2867 1.429 . S
C2848 H2872 0.950 . S
C2849 C2866 1.574 . S
C2849 C2868 1.368 . S
C2849 H2873 0.949 . S
H2850 C2854 0.949 . S
C2851 C2852 1.349 . S
C2851 C2853 1.327 . S
C2851 H2874 0.950 . S
C2852 C2851 1.349 . S
C2852 C2864 1.349 . S
C2853 C2851 1.327 . S
C2853 C2869 1.429 . S
C2853 H2875 0.950 . S
C2854 H2850 0.949 . S
C2854 C2862 1.574 . S
C2854 C2870 1.368 . S
H2855 C2863 0.950 . S
H2856 C2861 0.950 . S
H2857 C2862 0.949 . S
H2858 C2864 0.950 . S
H2859 C2865 0.950 . S
H2860 C2866 0.949 . S
C2861 H2856 0.950 . S
C2861 C2863 1.327 . S
C2861 C2867 1.429 . S
C2862 C2854 1.574 . S
C2862 H2857 0.949 . S
C2862 C2868 1.368 . S
C2863 C2847 1.349 . S
C2863 H2855 0.950 . S
C2863 C2861 1.327 . S
C2864 C2852 1.349 . S
C2864 H2858 0.950 . S
C2864 C2865 1.327 . S
C2865 H2859 0.950 . S
C2865 C2864 1.327 . S
C2865 C2869 1.429 . S
C2866 C2849 1.574 . S
C2866 H2860 0.949 . S
C2866 C2870 1.368 . S
C2867 C2848 1.429 . S
C2867 C2861 1.429 . S
C2867 C2868 1.523 . S
C2868 C2849 1.368 . S
C2868 C2862 1.368 . S
C2868 C2867 1.523 . S
C2869 C2853 1.429 . S
C2869 C2865 1.429 . S
C2869 C2870 1.523 . S
C2870 C2854 1.368 . S
C2870 C2866 1.368 . S
C2870 C2869 1.523 . S
H2871 C2846 0.950 . S
H2872 C2848 0.950 . S
H2873 C2849 0.949 . S
H2874 C2851 0.950 . S
H2875 C2853 0.950 . S
C2876 C2877 1.345 1_655 S
C2876 C2878 1.313 1_655 S
C2876 H2901 0.959 . S
C2877 C2876 1.345 1_455 S
C2877 C2893 1.349 . S
C2878 C2876 1.313 1_455 S
C2878 C2897 1.444 . S
C2878 H2902 0.944 1_455 S
C2879 C2896 1.574 . S
C2879 C2898 1.368 . S
C2879 H2903 0.949 . S
H2880 C2884 0.945 1_655 S
C2881 C2882 1.349 . S
C2881 C2883 1.327 . S
C2881 H2904 0.950 . S
C2882 C2881 1.349 . S
C2882 C2894 1.349 . S
C2883 C2881 1.327 . S
C2883 C2899 1.429 . S
C2883 H2905 0.950 . S
C2884 H2880 0.945 1_455 S
C2884 C2892 1.574 . S
C2884 C2900 1.368 . S
H2885 C2893 0.950 . S
H2886 C2891 0.950 . S
H2887 C2892 0.949 1_655 S
H2888 C2894 0.950 . S
H2889 C2895 0.950 . S
H2890 C2896 0.949 . S
C2891 H2886 0.950 . S
C2891 C2893 1.327 . S
C2891 C2897 1.429 . S
C2892 C2884 1.574 . S
C2892 H2887 0.949 1_455 S
C2892 C2898 1.368 . S
C2893 C2877 1.349 . S
C2893 H2885 0.950 . S
C2893 C2891 1.327 . S
C2894 C2882 1.349 . S
C2894 H2888 0.950 . S
C2894 C2895 1.327 . S
C2895 H2889 0.950 . S
C2895 C2894 1.327 . S
C2895 C2899 1.429 . S
C2896 C2879 1.574 . S
C2896 H2890 0.949 . S
C2896 C2900 1.368 . S
C2897 C2878 1.444 . S
C2897 C2891 1.429 . S
C2897 C2898 1.523 . S
C2898 C2879 1.368 . S
C2898 C2892 1.368 . S
C2898 C2897 1.523 . S
C2899 C2883 1.429 . S
C2899 C2895 1.429 . S
C2899 C2900 1.523 . S
C2900 C2884 1.368 . S
C2900 C2896 1.368 . S
C2900 C2899 1.523 . S
H2901 C2876 0.959 . S
H2902 C2878 0.944 1_655 S
H2903 C2879 0.949 . S
H2904 C2881 0.950 . S
H2905 C2883 0.950 . S
C2906 C2907 1.349 . S
C2906 C2908 1.327 . S
C2906 H2931 0.950 . S
C2907 C2906 1.349 . S
C2907 C2923 1.349 . S
C2908 C2906 1.327 . S
C2908 C2927 1.429 . S
C2908 H2932 0.950 . S
C2909 C2926 1.574 . S
C2909 C2928 1.368 . S
C2909 H2933 0.949 . S
H2910 C2914 0.949 . S
C2911 C2912 1.349 . S
C2911 C2913 1.327 . S
C2911 H2934 0.950 . S
C2912 C2911 1.349 . S
C2912 C2924 1.349 . S
C2913 C2911 1.327 . S
C2913 C2929 1.429 . S
C2913 H2935 0.950 . S
C2914 H2910 0.949 . S
C2914 C2922 1.574 . S
C2914 C2930 1.368 . S
H2915 C2923 0.950 . S
H2916 C2921 0.950 . S
H2917 C2922 0.949 . S
H2918 C2924 0.950 . S
H2919 C2925 0.950 . S
H2920 C2926 0.949 . S
C2921 H2916 0.950 . S
C2921 C2923 1.327 . S
C2921 C2927 1.429 . S
C2922 C2914 1.574 . S
C2922 H2917 0.949 . S
C2922 C2928 1.368 . S
C2923 C2907 1.349 . S
C2923 H2915 0.950 . S
C2923 C2921 1.327 . S
C2924 C2912 1.349 . S
C2924 H2918 0.950 . S
C2924 C2925 1.327 . S
C2925 H2919 0.950 . S
C2925 C2924 1.327 . S
C2925 C2929 1.429 . S
C2926 C2909 1.574 . S
C2926 H2920 0.949 . S
C2926 C2930 1.368 . S
C2927 C2908 1.429 . S
C2927 C2921 1.429 . S
C2927 C2928 1.523 . S
C2928 C2909 1.368 . S
C2928 C2922 1.368 . S
C2928 C2927 1.523 . S
C2929 C2913 1.429 . S
C2929 C2925 1.429 . S
C2929 C2930 1.523 . S
C2930 C2914 1.368 . S
C2930 C2926 1.368 . S
C2930 C2929 1.523 . S
H2931 C2906 0.950 . S
H2932 C2908 0.950 . S
H2933 C2909 0.949 . S
H2934 C2911 0.950 . S
H2935 C2913 0.950 . S
C2936 C2937 1.349 . S
C2936 C2938 1.327 . S
C2936 H2961 0.950 . S
C2937 C2936 1.349 . S
C2937 C2953 1.349 . S
C2938 C2936 1.327 . S
C2938 C2957 1.429 . S
C2938 H2962 0.950 . S
C2939 C2956 1.574 . S
C2939 C2958 1.368 . S
C2939 H2963 0.949 . S
H2940 C2944 0.949 . S
C2941 C2942 1.349 1_554 S
C2941 C2943 1.327 1_554 S
C2941 H2964 0.950 . S
C2942 C2941 1.349 1_556 S
C2942 C2954 1.349 . S
C2943 C2941 1.327 1_556 S
C2943 C2959 1.429 . S
C2943 H2965 0.950 . S
C2944 H2940 0.949 . S
C2944 C2952 1.574 . S
C2944 C2960 1.368 . S
H2945 C2953 0.950 . S
H2946 C2951 0.950 . S
H2947 C2952 0.949 . S
H2948 C2954 0.950 . S
H2949 C2955 0.950 . S
H2950 C2956 0.949 . S
C2951 H2946 0.950 . S
C2951 C2953 1.327 . S
C2951 C2957 1.429 . S
C2952 C2944 1.574 . S
C2952 H2947 0.949 . S
C2952 C2958 1.368 . S
C2953 C2937 1.349 . S
C2953 H2945 0.950 . S
C2953 C2951 1.327 . S
C2954 C2942 1.349 . S
C2954 H2948 0.950 . S
C2954 C2955 1.327 . S
C2955 H2949 0.950 . S
C2955 C2954 1.327 . S
C2955 C2959 1.429 . S
C2956 C2939 1.574 . S
C2956 H2950 0.949 . S
C2956 C2960 1.368 . S
C2957 C2938 1.429 . S
C2957 C2951 1.429 . S
C2957 C2958 1.523 . S
C2958 C2939 1.368 . S
C2958 C2952 1.368 . S
C2958 C2957 1.523 . S
C2959 C2943 1.429 . S
C2959 C2955 1.429 . S
C2959 C2960 1.523 . S
C2960 C2944 1.368 . S
C2960 C2956 1.368 . S
C2960 C2959 1.523 . S
H2961 C2936 0.950 . S
H2962 C2938 0.950 . S
H2963 C2939 0.949 . S
H2964 C2941 0.950 . S
H2965 C2943 0.950 . S
C2966 C2967 1.349 . S
C2966 C2968 1.327 . S
C2966 H2991 0.950 . S
C2967 C2966 1.349 . S
C2967 C2983 1.349 . S
C2968 C2966 1.327 . S
C2968 C2987 1.429 . S
C2968 H2992 0.950 . S
C2969 C2986 1.574 . S
C2969 C2988 1.368 . S
C2969 H2993 0.949 . S
H2970 C2974 0.949 . S
C2971 C2972 1.349 . S
C2971 C2973 1.327 . S
C2971 H2994 0.950 . S
C2972 C2971 1.349 . S
C2972 C2984 1.349 . S
C2973 C2971 1.327 . S
C2973 C2989 1.429 . S
C2973 H2995 0.950 . S
C2974 H2970 0.949 . S
C2974 C2982 1.574 . S
C2974 C2990 1.368 . S
H2975 C2983 0.950 . S
H2976 C2981 0.950 . S
H2977 C2982 0.949 . S
H2978 C2984 0.950 . S
H2979 C2985 0.950 . S
H2980 C2986 0.949 . S
C2981 H2976 0.950 . S
C2981 C2983 1.327 . S
C2981 C2987 1.429 . S
C2982 C2974 1.574 . S
C2982 H2977 0.949 . S
C2982 C2988 1.368 . S
C2983 C2967 1.349 . S
C2983 H2975 0.950 . S
C2983 C2981 1.327 . S
C2984 C2972 1.349 . S
C2984 H2978 0.950 . S
C2984 C2985 1.327 . S
C2985 H2979 0.950 . S
C2985 C2984 1.327 . S
C2985 C2989 1.429 . S
C2986 C2969 1.574 . S
C2986 H2980 0.949 . S
C2986 C2990 1.368 . S
C2987 C2968 1.429 . S
C2987 C2981 1.429 . S
C2987 C2988 1.523 . S
C2988 C2969 1.368 . S
C2988 C2982 1.368 . S
C2988 C2987 1.523 . S
C2989 C2973 1.429 . S
C2989 C2985 1.429 . S
C2989 C2990 1.523 . S
C2990 C2974 1.368 . S
C2990 C2986 1.368 . S
C2990 C2989 1.523 . S
H2991 C2966 0.950 . S
H2992 C2968 0.950 . S
H2993 C2969 0.949 . S
H2994 C2971 0.950 . S
H2995 C2973 0.950 . S
C2996 C2997 1.349 . S
C2996 C2998 1.327 . S
C2996 H3021 0.950 . S
C2997 C2996 1.349 . S
C2997 C3013 1.349 . S
C2998 C2996 1.327 . S
C2998 C3017 1.429 . S
C2998 H3022 0.979 . S
C2999 C3016 1.574 . S
C2999 C3018 1.368 . S
C2999 H3023 0.949 . S
H3000 C3004 0.949 1_655 S
C3001 C3002 1.349 . S
C3001 C3003 1.327 . S
C3001 H3024 0.950 . S
C3002 C3001 1.349 . S
C3002 C3014 1.349 . S
C3003 C3001 1.327 . S
C3003 C3019 1.429 . S
C3003 H3025 0.950 . S
C3004 H3000 0.949 1_455 S
C3004 C3012 1.574 . S
C3004 C3020 1.368 . S
H3005 C3013 0.950 . S
H3006 C3011 0.950 . S
H3007 C3012 0.941 1_655 S
H3008 C3014 0.950 1_655 S
H3009 C3015 0.950 1_655 S
H3010 C3016 0.949 . S
C3011 H3006 0.950 . S
C3011 C3013 1.327 . S
C3011 C3017 1.429 . S
C3012 C3004 1.574 . S
C3012 H3007 0.941 1_455 S
C3012 C3018 1.368 . S
C3013 C2997 1.349 . S
C3013 H3005 0.950 . S
C3013 C3011 1.327 . S
C3014 C3002 1.349 . S
C3014 H3008 0.950 1_455 S
C3014 C3015 1.327 . S
C3015 H3009 0.950 1_455 S
C3015 C3014 1.327 . S
C3015 C3019 1.429 . S
C3016 C2999 1.574 . S
C3016 H3010 0.949 . S
C3016 C3020 1.368 . S
C3017 C2998 1.429 . S
C3017 C3011 1.429 . S
C3017 C3018 1.523 . S
C3018 C2999 1.368 . S
C3018 C3012 1.368 . S
C3018 C3017 1.523 . S
C3019 C3003 1.429 . S
C3019 C3015 1.429 . S
C3019 C3020 1.523 . S
C3020 C3004 1.368 . S
C3020 C3016 1.368 . S
C3020 C3019 1.523 . S
H3021 C2996 0.950 . S
H3022 C2998 0.979 . S
H3023 C2999 0.949 . S
H3024 C3001 0.950 . S
H3025 C3003 0.950 . S
C3026 C3027 1.349 . S
C3026 C3028 1.327 . S
C3026 H3051 0.950 . S
C3027 C3026 1.349 . S
C3027 C3043 1.349 . S
C3028 C3026 1.327 . S
C3028 C3047 1.429 . S
C3028 H3052 0.950 . S
C3029 C3046 1.574 . S
C3029 C3048 1.368 . S
C3029 H3053 0.949 . S
H3030 C3034 0.949 . S
C3031 C3032 1.349 . S
C3031 C3033 1.327 . S
C3031 H3054 0.950 . S
C3032 C3031 1.349 . S
C3032 C3044 1.349 . S
C3033 C3031 1.327 . S
C3033 C3049 1.429 . S
C3033 H3055 0.950 . S
C3034 H3030 0.949 . S
C3034 C3042 1.574 . S
C3034 C3050 1.368 . S
H3035 C3043 0.950 . S
H3036 C3041 0.950 . S
H3037 C3042 0.949 . S
H3038 C3044 0.950 . S
H3039 C3045 0.950 . S
H3040 C3046 0.949 . S
C3041 H3036 0.950 . S
C3041 C3043 1.327 . S
C3041 C3047 1.429 . S
C3042 C3034 1.574 . S
C3042 H3037 0.949 . S
C3042 C3048 1.368 . S
C3043 C3027 1.349 . S
C3043 H3035 0.950 . S
C3043 C3041 1.327 . S
C3044 C3032 1.349 . S
C3044 H3038 0.950 . S
C3044 C3045 1.327 . S
C3045 H3039 0.950 . S
C3045 C3044 1.327 . S
C3045 C3049 1.429 . S
C3046 C3029 1.574 . S
C3046 H3040 0.949 . S
C3046 C3050 1.368 . S
C3047 C3028 1.429 . S
C3047 C3041 1.429 . S
C3047 C3048 1.523 . S
C3048 C3029 1.368 . S
C3048 C3042 1.368 . S
C3048 C3047 1.523 . S
C3049 C3033 1.429 . S
C3049 C3045 1.429 . S
C3049 C3050 1.523 . S
C3050 C3034 1.368 . S
C3050 C3046 1.368 . S
C3050 C3049 1.523 . S
H3051 C3026 0.950 . S
H3052 C3028 0.950 . S
H3053 C3029 0.949 . S
H3054 C3031 0.950 . S
H3055 C3033 0.950 . S
C3056 C3057 1.349 . S
C3056 C3058 1.327 . S
C3056 H3081 0.950 . S
C3057 C3056 1.349 . S
C3057 C3073 1.349 . S
C3058 C3056 1.327 . S
C3058 C3077 1.429 . S
C3058 H3082 0.950 . S
C3059 C3076 1.574 . S
C3059 C3078 1.368 . S
C3059 H3083 0.949 . S
H3060 C3064 0.949 . S
C3061 C3062 1.349 . S
C3061 C3063 1.327 . S
C3061 H3084 0.950 . S
C3062 C3061 1.349 . S
C3062 C3074 1.349 . S
C3063 C3061 1.327 . S
C3063 C3079 1.429 . S
C3063 H3085 0.950 . S
C3064 H3060 0.949 . S
C3064 C3072 1.574 . S
C3064 C3080 1.368 . S
H3065 C3073 0.950 . S
H3066 C3071 0.950 . S
H3067 C3072 0.949 . S
H3068 C3074 0.950 . S
H3069 C3075 0.950 . S
H3070 C3076 0.949 . S
C3071 H3066 0.950 . S
C3071 C3073 1.327 . S
C3071 C3077 1.429 . S
C3072 C3064 1.574 . S
C3072 H3067 0.949 . S
C3072 C3078 1.368 . S
C3073 C3057 1.349 . S
C3073 H3065 0.950 . S
C3073 C3071 1.327 . S
C3074 C3062 1.349 . S
C3074 H3068 0.950 . S
C3074 C3075 1.327 . S
C3075 H3069 0.950 . S
C3075 C3074 1.327 . S
C3075 C3079 1.429 . S
C3076 C3059 1.574 . S
C3076 H3070 0.949 . S
C3076 C3080 1.368 . S
C3077 C3058 1.429 . S
C3077 C3071 1.429 . S
C3077 C3078 1.523 . S
C3078 C3059 1.368 . S
C3078 C3072 1.368 . S
C3078 C3077 1.523 . S
C3079 C3063 1.429 . S
C3079 C3075 1.429 . S
C3079 C3080 1.523 . S
C3080 C3064 1.368 . S
C3080 C3076 1.368 . S
C3080 C3079 1.523 . S
H3081 C3056 0.950 . S
H3082 C3058 0.950 . S
H3083 C3059 0.949 . S
H3084 C3061 0.950 . S
H3085 C3063 0.950 . S
C3086 C3087 1.349 . S
C3086 C3088 1.327 . S
C3086 H3111 0.950 . S
C3087 C3086 1.349 . S
C3087 C3103 1.349 . S
C3088 C3086 1.327 . S
C3088 C3107 1.429 . S
C3088 H3112 0.950 . S
C3089 C3106 1.574 . S
C3089 C3108 1.368 . S
C3089 H3113 0.949 . S
H3090 C3094 0.949 . S
C3091 C3092 1.349 . S
C3091 C3093 1.327 . S
C3091 H3114 0.950 . S
C3092 C3091 1.349 . S
C3092 C3104 1.349 . S
C3093 C3091 1.327 . S
C3093 C3109 1.429 . S
C3093 H3115 0.950 . S
C3094 H3090 0.949 . S
C3094 C3102 1.574 . S
C3094 C3110 1.368 . S
H3095 C3103 0.950 . S
H3096 C3101 0.950 . S
H3097 C3102 0.949 . S
H3098 C3104 0.950 . S
H3099 C3105 0.950 . S
H3100 C3106 0.949 . S
C3101 H3096 0.950 . S
C3101 C3103 1.327 . S
C3101 C3107 1.429 . S
C3102 C3094 1.574 . S
C3102 H3097 0.949 . S
C3102 C3108 1.368 . S
C3103 C3087 1.349 . S
C3103 H3095 0.950 . S
C3103 C3101 1.327 . S
C3104 C3092 1.349 . S
C3104 H3098 0.950 . S
C3104 C3105 1.327 . S
C3105 H3099 0.950 . S
C3105 C3104 1.327 . S
C3105 C3109 1.429 . S
C3106 C3089 1.574 . S
C3106 H3100 0.949 . S
C3106 C3110 1.368 . S
C3107 C3088 1.429 . S
C3107 C3101 1.429 . S
C3107 C3108 1.523 . S
C3108 C3089 1.368 . S
C3108 C3102 1.368 . S
C3108 C3107 1.523 . S
C3109 C3093 1.429 . S
C3109 C3105 1.429 . S
C3109 C3110 1.523 . S
C3110 C3094 1.368 . S
C3110 C3106 1.368 . S
C3110 C3109 1.523 . S
H3111 C3086 0.950 . S
H3112 C3088 0.950 . S
H3113 C3089 0.949 . S
H3114 C3091 0.950 . S
H3115 C3093 0.950 . S
C3116 C3117 1.349 . S
C3116 C3118 1.327 . S
C3116 H3141 0.950 . S
C3117 C3116 1.349 . S
C3117 C3133 1.349 . S
C3118 C3116 1.327 . S
C3118 C3137 1.429 . S
C3118 H3142 0.950 . S
C3119 C3136 1.574 . S
C3119 C3138 1.368 . S
C3119 H3143 0.949 . S
H3120 C3124 0.949 . S
C3121 C3122 1.349 . S
C3121 C3123 1.327 . S
C3121 H3144 0.950 . S
C3122 C3121 1.349 . S
C3122 C3134 1.359 . S
C3123 C3121 1.327 . S
C3123 C3139 1.429 . S
C3123 H3145 0.950 . S
C3124 H3120 0.949 . S
C3124 C3132 1.574 . S
C3124 C3140 1.368 . S
H3125 C3133 0.950 . S
H3126 C3131 0.950 . S
H3127 C3132 0.949 . S
H3128 C3134 0.930 1_455 S
H3129 C3135 0.950 . S
H3130 C3136 0.949 . S
C3131 H3126 0.950 . S
C3131 C3133 1.327 . S
C3131 C3137 1.429 . S
C3132 C3124 1.574 . S
C3132 H3127 0.949 . S
C3132 C3138 1.368 . S
C3133 C3117 1.349 . S
C3133 H3125 0.950 . S
C3133 C3131 1.327 . S
C3134 C3122 1.359 . S
C3134 H3128 0.930 1_655 S
C3134 C3135 1.338 . S
C3135 H3129 0.950 . S
C3135 C3134 1.338 . S
C3135 C3139 1.429 . S
C3136 C3119 1.574 . S
C3136 H3130 0.949 . S
C3136 C3140 1.368 . S
C3137 C3118 1.429 . S
C3137 C3131 1.429 . S
C3137 C3138 1.523 . S
C3138 C3119 1.368 . S
C3138 C3132 1.368 . S
C3138 C3137 1.523 . S
C3139 C3123 1.429 . S
C3139 C3135 1.429 . S
C3139 C3140 1.523 . S
C3140 C3124 1.368 . S
C3140 C3136 1.368 . S
C3140 C3139 1.523 . S
H3141 C3116 0.950 . S
H3142 C3118 0.950 . S
H3143 C3119 0.949 . S
H3144 C3121 0.950 . S
H3145 C3123 0.950 . S
C3146 C3147 1.349 . S
C3146 C3148 1.327 . S
C3146 H3171 0.950 . S
C3147 C3146 1.349 . S
C3147 C3163 1.349 . S
C3148 C3146 1.327 . S
C3148 C3167 1.429 . S
C3148 H3172 0.950 . S
C3149 C3166 1.574 . S
C3149 C3168 1.368 . S
C3149 H3173 0.949 . S
H3150 C3154 0.949 . S
C3151 C3152 1.349 . S
C3151 C3153 1.327 . S
C3151 H3174 0.950 . S
C3152 C3151 1.349 . S
C3152 C3164 1.349 . S
C3153 C3151 1.327 . S
C3153 C3169 1.429 . S
C3153 H3175 0.950 . S
C3154 H3150 0.949 . S
C3154 C3162 1.574 . S
C3154 C3170 1.368 . S
H3155 C3163 0.950 . S
H3156 C3161 0.950 . S
H3157 C3162 0.949 . S
H3158 C3164 0.950 . S
H3159 C3165 0.950 . S
H3160 C3166 0.949 . S
C3161 H3156 0.950 . S
C3161 C3163 1.327 . S
C3161 C3167 1.429 . S
C3162 C3154 1.574 . S
C3162 H3157 0.949 . S
C3162 C3168 1.368 . S
C3163 C3147 1.349 . S
C3163 H3155 0.950 . S
C3163 C3161 1.327 . S
C3164 C3152 1.349 . S
C3164 H3158 0.950 . S
C3164 C3165 1.327 . S
C3165 H3159 0.950 . S
C3165 C3164 1.327 . S
C3165 C3169 1.429 . S
C3166 C3149 1.574 . S
C3166 H3160 0.949 . S
C3166 C3170 1.368 . S
C3167 C3148 1.429 . S
C3167 C3161 1.429 . S
C3167 C3168 1.523 . S
C3168 C3149 1.368 . S
C3168 C3162 1.368 . S
C3168 C3167 1.523 . S
C3169 C3153 1.429 . S
C3169 C3165 1.429 . S
C3169 C3170 1.523 . S
C3170 C3154 1.368 . S
C3170 C3166 1.368 . S
C3170 C3169 1.523 . S
H3171 C3146 0.950 . S
H3172 C3148 0.950 . S
H3173 C3149 0.949 . S
H3174 C3151 0.950 . S
H3175 C3153 0.950 . S
C3176 C3177 1.349 . S
C3176 C3178 1.327 . S
C3176 H3201 0.950 . S
C3177 C3176 1.349 . S
C3177 C3193 1.349 . S
C3178 C3176 1.327 . S
C3178 C3197 1.429 . S
C3178 H3202 0.950 . S
C3179 C3196 1.574 . S
C3179 C3198 1.368 . S
C3179 H3203 0.949 . S
H3180 C3184 0.949 . S
C3181 C3182 1.349 . S
C3181 C3183 1.327 . S
C3181 H3204 0.950 . S
C3182 C3181 1.349 . S
C3182 C3194 1.349 . S
C3183 C3181 1.327 . S
C3183 C3199 1.429 . S
C3183 H3205 0.950 . S
C3184 H3180 0.949 . S
C3184 C3192 1.574 . S
C3184 C3200 1.368 . S
H3185 C3193 0.950 . S
H3186 C3191 0.950 . S
H3187 C3192 0.949 . S
H3188 C3194 0.950 . S
H3189 C3195 0.950 . S
H3190 C3196 0.949 . S
C3191 H3186 0.950 . S
C3191 C3193 1.327 . S
C3191 C3197 1.429 . S
C3192 C3184 1.574 . S
C3192 H3187 0.949 . S
C3192 C3198 1.368 . S
C3193 C3177 1.349 . S
C3193 H3185 0.950 . S
C3193 C3191 1.327 . S
C3194 C3182 1.349 . S
C3194 H3188 0.950 . S
C3194 C3195 1.327 . S
C3195 H3189 0.950 . S
C3195 C3194 1.327 . S
C3195 C3199 1.429 . S
C3196 C3179 1.574 . S
C3196 H3190 0.949 . S
C3196 C3200 1.368 . S
C3197 C3178 1.429 . S
C3197 C3191 1.429 . S
C3197 C3198 1.523 . S
C3198 C3179 1.368 . S
C3198 C3192 1.368 . S
C3198 C3197 1.523 . S
C3199 C3183 1.429 . S
C3199 C3195 1.429 . S
C3199 C3200 1.523 . S
C3200 C3184 1.368 . S
C3200 C3196 1.368 . S
C3200 C3199 1.523 . S
H3201 C3176 0.950 . S
H3202 C3178 0.950 . S
H3203 C3179 0.949 . S
H3204 C3181 0.950 . S
H3205 C3183 0.950 . S
C3206 C3207 1.349 . S
C3206 C3208 1.327 . S
C3206 H3231 0.950 . S
C3207 C3206 1.349 . S
C3207 C3223 1.349 . S
C3208 C3206 1.327 . S
C3208 C3227 1.429 . S
C3208 H3232 0.950 . S
C3209 C3226 1.574 . S
C3209 C3228 1.368 . S
C3209 H3233 0.949 . S
H3210 C3214 0.949 . S
C3211 C3212 1.349 . S
C3211 C3213 1.327 . S
C3211 H3234 0.950 . S
C3212 C3211 1.349 . S
C3212 C3224 1.349 . S
C3213 C3211 1.327 . S
C3213 C3229 1.429 . S
C3213 H3235 0.950 . S
C3214 H3210 0.949 . S
C3214 C3222 1.574 . S
C3214 C3230 1.368 . S
H3215 C3223 0.950 . S
H3216 C3221 0.950 . S
H3217 C3222 0.949 . S
H3218 C3224 0.950 . S
H3219 C3225 0.950 . S
H3220 C3226 0.949 . S
C3221 H3216 0.950 . S
C3221 C3223 1.327 . S
C3221 C3227 1.429 . S
C3222 C3214 1.574 . S
C3222 H3217 0.949 . S
C3222 C3228 1.368 . S
C3223 C3207 1.349 . S
C3223 H3215 0.950 . S
C3223 C3221 1.327 . S
C3224 C3212 1.349 . S
C3224 H3218 0.950 . S
C3224 C3225 1.327 . S
C3225 H3219 0.950 . S
C3225 C3224 1.327 . S
C3225 C3229 1.429 . S
C3226 C3209 1.574 . S
C3226 H3220 0.949 . S
C3226 C3230 1.368 . S
C3227 C3208 1.429 . S
C3227 C3221 1.429 . S
C3227 C3228 1.523 . S
C3228 C3209 1.368 . S
C3228 C3222 1.368 . S
C3228 C3227 1.523 . S
C3229 C3213 1.429 . S
C3229 C3225 1.429 . S
C3229 C3230 1.523 . S
C3230 C3214 1.368 . S
C3230 C3226 1.368 . S
C3230 C3229 1.523 . S
H3231 C3206 0.950 . S
H3232 C3208 0.950 . S
H3233 C3209 0.949 . S
H3234 C3211 0.950 . S
H3235 C3213 0.950 . S
C3236 C3237 1.349 . S
C3236 C3238 1.327 . S
C3236 H3261 0.950 . S
C3237 C3236 1.349 . S
C3237 C3253 1.349 . S
C3238 C3236 1.327 . S
C3238 C3257 1.429 . S
C3238 H3262 0.950 . S
C3239 C3256 1.574 . S
C3239 C3258 1.368 . S
C3239 H3263 0.949 . S
H3240 C3244 0.949 . S
C3241 C3242 1.349 . S
C3241 C3243 1.327 . S
C3241 H3264 0.950 1_655 S
C3242 C3241 1.349 . S
C3242 C3254 1.349 . S
C3243 C3241 1.327 . S
C3243 C3259 1.429 . S
C3243 H3265 0.950 . S
C3244 H3240 0.949 . S
C3244 C3252 1.574 . S
C3244 C3260 1.368 . S
H3245 C3253 0.950 . S
H3246 C3251 0.950 . S
H3247 C3252 0.949 . S
H3248 C3254 0.950 . S
H3249 C3255 0.950 . S
H3250 C3256 0.949 . S
C3251 H3246 0.950 . S
C3251 C3253 1.327 . S
C3251 C3257 1.429 . S
C3252 C3244 1.574 . S
C3252 H3247 0.949 . S
C3252 C3258 1.368 . S
C3253 C3237 1.349 . S
C3253 H3245 0.950 . S
C3253 C3251 1.327 . S
C3254 C3242 1.349 . S
C3254 H3248 0.950 . S
C3254 C3255 1.327 . S
C3255 H3249 0.950 . S
C3255 C3254 1.327 . S
C3255 C3259 1.429 . S
C3256 C3239 1.574 . S
C3256 H3250 0.949 . S
C3256 C3260 1.368 . S
C3257 C3238 1.429 . S
C3257 C3251 1.429 . S
C3257 C3258 1.523 . S
C3258 C3239 1.368 . S
C3258 C3252 1.368 . S
C3258 C3257 1.523 . S
C3259 C3243 1.429 . S
C3259 C3255 1.429 . S
C3259 C3260 1.523 . S
C3260 C3244 1.368 . S
C3260 C3256 1.368 . S
C3260 C3259 1.523 . S
H3261 C3236 0.950 . S
H3262 C3238 0.950 . S
H3263 C3239 0.949 . S
H3264 C3241 0.950 1_455 S
H3265 C3243 0.950 . S
C3266 C3267 1.349 . S
C3266 C3268 1.327 . S
C3266 H3291 0.950 . S
C3267 C3266 1.349 . S
C3267 C3283 1.349 . S
C3268 C3266 1.327 . S
C3268 C3287 1.429 . S
C3268 H3292 0.950 . S
C3269 C3286 1.574 . S
C3269 C3288 1.368 . S
C3269 H3293 0.949 . S
H3270 C3274 0.949 . S
C3271 C3272 1.349 . S
C3271 C3273 1.327 . S
C3271 H3294 0.950 . S
C3272 C3271 1.349 . S
C3272 C3284 1.349 . S
C3273 C3271 1.327 . S
C3273 C3289 1.429 . S
C3273 H3295 0.950 . S
C3274 H3270 0.949 . S
C3274 C3282 1.574 . S
C3274 C3290 1.368 . S
H3275 C3283 0.950 . S
H3276 C3281 0.950 . S
H3277 C3282 0.949 . S
H3278 C3284 0.950 . S
H3279 C3285 0.950 . S
H3280 C3286 0.949 . S
C3281 H3276 0.950 . S
C3281 C3283 1.327 . S
C3281 C3287 1.429 . S
C3282 C3274 1.574 . S
C3282 H3277 0.949 . S
C3282 C3288 1.368 . S
C3283 C3267 1.349 . S
C3283 H3275 0.950 . S
C3283 C3281 1.327 . S
C3284 C3272 1.349 . S
C3284 H3278 0.950 . S
C3284 C3285 1.327 . S
C3285 H3279 0.950 . S
C3285 C3284 1.327 . S
C3285 C3289 1.429 . S
C3286 C3269 1.574 . S
C3286 H3280 0.949 . S
C3286 C3290 1.368 . S
C3287 C3268 1.429 . S
C3287 C3281 1.429 . S
C3287 C3288 1.523 . S
C3288 C3269 1.368 . S
C3288 C3282 1.368 . S
C3288 C3287 1.523 . S
C3289 C3273 1.429 . S
C3289 C3285 1.429 . S
C3289 C3290 1.523 . S
C3290 C3274 1.368 . S
C3290 C3286 1.368 . S
C3290 C3289 1.523 . S
H3291 C3266 0.950 . S
H3292 C3268 0.950 . S
H3293 C3269 0.949 . S
H3294 C3271 0.950 . S
H3295 C3273 0.950 . S
C3296 C3297 1.349 . S
C3296 C3298 1.327 . S
C3296 H3321 0.950 . S
C3297 C3296 1.349 . S
C3297 C3313 1.349 . S
C3298 C3296 1.327 . S
C3298 C3317 1.429 . S
C3298 H3322 0.950 . S
C3299 C3316 1.574 . S
C3299 C3318 1.368 . S
C3299 H3323 0.949 . S
H3300 C3304 0.949 . S
C3301 C3302 1.349 . S
C3301 C3303 1.327 . S
C3301 H3324 0.950 . S
C3302 C3301 1.349 . S
C3302 C3314 1.349 . S
C3303 C3301 1.327 . S
C3303 C3319 1.429 . S
C3303 H3325 0.950 . S
C3304 H3300 0.949 . S
C3304 C3312 1.574 . S
C3304 C3320 1.368 . S
H3305 C3313 0.950 . S
H3306 C3311 0.950 . S
H3307 C3312 0.949 . S
H3308 C3314 0.950 . S
H3309 C3315 0.950 . S
H3310 C3316 0.949 . S
C3311 H3306 0.950 . S
C3311 C3313 1.327 . S
C3311 C3317 1.429 . S
C3312 C3304 1.574 . S
C3312 H3307 0.949 . S
C3312 C3318 1.368 . S
C3313 C3297 1.349 . S
C3313 H3305 0.950 . S
C3313 C3311 1.327 . S
C3314 C3302 1.349 . S
C3314 H3308 0.950 . S
C3314 C3315 1.327 . S
C3315 H3309 0.950 . S
C3315 C3314 1.327 . S
C3315 C3319 1.429 . S
C3316 C3299 1.574 . S
C3316 H3310 0.949 . S
C3316 C3320 1.368 . S
C3317 C3298 1.429 . S
C3317 C3311 1.429 . S
C3317 C3318 1.523 . S
C3318 C3299 1.368 . S
C3318 C3312 1.368 . S
C3318 C3317 1.523 . S
C3319 C3303 1.429 . S
C3319 C3315 1.429 . S
C3319 C3320 1.523 . S
C3320 C3304 1.368 . S
C3320 C3316 1.368 . S
C3320 C3319 1.523 . S
H3321 C3296 0.950 . S
H3322 C3298 0.950 . S
H3323 C3299 0.949 . S
H3324 C3301 0.950 . S
H3325 C3303 0.950 . S
C3326 C3327 1.349 . S
C3326 C3328 1.327 . S
C3326 H3351 0.950 . S
C3327 C3326 1.349 . S
C3327 C3343 1.349 . S
C3328 C3326 1.327 . S
C3328 C3347 1.429 . S
C3328 H3352 0.950 . S
C3329 C3346 1.574 . S
C3329 C3348 1.368 . S
C3329 H3353 0.949 . S
H3330 C3334 0.949 . S
C3331 C3332 1.349 1_565 S
C3331 C3333 1.327 . S
C3331 H3354 0.950 . S
C3332 C3331 1.349 1_545 S
C3332 C3344 1.349 . S
C3333 C3331 1.327 . S
C3333 C3349 1.429 . S
C3333 H3355 0.950 . S
C3334 H3330 0.949 . S
C3334 C3342 1.574 . S
C3334 C3350 1.368 . S
H3335 C3343 0.950 . S
H3336 C3341 0.950 . S
H3337 C3342 0.949 . S
H3338 C3344 0.950 . S
H3339 C3345 0.934 1_545 S
H3340 C3346 0.949 . S
C3341 H3336 0.950 . S
C3341 C3343 1.327 . S
C3341 C3347 1.429 . S
C3342 C3334 1.574 . S
C3342 H3337 0.949 . S
C3342 C3348 1.368 . S
C3343 C3327 1.349 . S
C3343 H3335 0.950 . S
C3343 C3341 1.327 . S
C3344 C3332 1.349 . S
C3344 H3338 0.950 . S
C3344 C3345 1.314 1_545 S
C3345 H3339 0.934 1_565 S
C3345 C3344 1.314 1_565 S
C3345 C3349 1.458 . S
C3346 C3329 1.574 . S
C3346 H3340 0.949 . S
C3346 C3350 1.368 . S
C3347 C3328 1.429 . S
C3347 C3341 1.429 . S
C3347 C3348 1.523 . S
C3348 C3329 1.368 . S
C3348 C3342 1.368 . S
C3348 C3347 1.523 . S
C3349 C3333 1.429 . S
C3349 C3345 1.458 . S
C3349 C3350 1.523 . S
C3350 C3334 1.368 . S
C3350 C3346 1.368 . S
C3350 C3349 1.523 . S
H3351 C3326 0.950 . S
H3352 C3328 0.950 . S
H3353 C3329 0.949 . S
H3354 C3331 0.950 . S
H3355 C3333 0.950 . S
C3356 C3357 1.349 . S
C3356 C3358 1.327 . S
C3356 H3381 0.950 . S
C3357 C3356 1.349 . S
C3357 C3373 1.349 . S
C3358 C3356 1.327 . S
C3358 C3377 1.429 . S
C3358 H3382 0.950 . S
C3359 C3376 1.574 . S
C3359 C3378 1.368 . S
C3359 H3383 0.949 . S
H3360 C3364 0.949 . S
C3361 C3362 1.349 . S
C3361 C3363 1.327 . S
C3361 H3384 0.950 . S
C3362 C3361 1.349 . S
C3362 C3374 1.349 . S
C3363 C3361 1.327 . S
C3363 C3379 1.429 . S
C3363 H3385 0.950 . S
C3364 H3360 0.949 . S
C3364 C3372 1.574 . S
C3364 C3380 1.368 . S
H3365 C3373 0.950 . S
H3366 C3371 0.950 . S
H3367 C3372 0.949 . S
H3368 C3374 0.950 . S
H3369 C3375 0.950 . S
H3370 C3376 0.949 . S
C3371 H3366 0.950 . S
C3371 C3373 1.327 . S
C3371 C3377 1.429 . S
C3372 C3364 1.574 . S
C3372 H3367 0.949 . S
C3372 C3378 1.368 . S
C3373 C3357 1.349 . S
C3373 H3365 0.950 . S
C3373 C3371 1.327 . S
C3374 C3362 1.349 . S
C3374 H3368 0.950 . S
C3374 C3375 1.327 . S
C3375 H3369 0.950 . S
C3375 C3374 1.327 . S
C3375 C3379 1.429 . S
C3376 C3359 1.574 . S
C3376 H3370 0.949 . S
C3376 C3380 1.368 . S
C3377 C3358 1.429 . S
C3377 C3371 1.429 . S
C3377 C3378 1.523 . S
C3378 C3359 1.368 . S
C3378 C3372 1.368 . S
C3378 C3377 1.523 . S
C3379 C3363 1.429 . S
C3379 C3375 1.429 . S
C3379 C3380 1.523 . S
C3380 C3364 1.368 . S
C3380 C3376 1.368 . S
C3380 C3379 1.523 . S
H3381 C3356 0.950 . S
H3382 C3358 0.950 . S
H3383 C3359 0.949 . S
H3384 C3361 0.950 . S
H3385 C3363 0.950 . S
C3386 C3387 1.349 . S
C3386 C3388 1.327 . S
C3386 H3411 0.950 . S
C3387 C3386 1.349 . S
C3387 C3403 1.349 1_554 S
C3388 C3386 1.327 . S
C3388 C3407 1.429 . S
C3388 H3412 0.950 . S
C3389 C3406 1.574 . S
C3389 C3408 1.368 1_556 S
C3389 H3413 0.949 . S
H3390 C3394 0.949 . S
C3391 C3392 1.349 . S
C3391 C3393 1.327 . S
C3391 H3414 0.950 1_554 S
C3392 C3391 1.349 . S
C3392 C3404 1.349 . S
C3393 C3391 1.327 . S
C3393 C3409 1.429 . S
C3393 H3415 0.950 1_554 S
C3394 H3390 0.949 . S
C3394 C3402 1.574 . S
C3394 C3410 1.368 . S
H3395 C3403 0.950 . S
H3396 C3401 0.950 . S
H3397 C3402 0.949 . S
H3398 C3404 0.950 . S
H3399 C3405 0.950 . S
H3400 C3406 0.949 . S
C3401 H3396 0.950 . S
C3401 C3403 1.327 . S
C3401 C3407 1.429 1_556 S
C3402 C3394 1.574 . S
C3402 H3397 0.949 . S
C3402 C3408 1.368 . S
C3403 C3387 1.349 1_556 S
C3403 H3395 0.950 . S
C3403 C3401 1.327 . S
C3404 C3392 1.349 . S
C3404 H3398 0.950 . S
C3404 C3405 1.327 . S
C3405 H3399 0.950 . S
C3405 C3404 1.327 . S
C3405 C3409 1.429 . S
C3406 C3389 1.574 . S
C3406 H3400 0.949 . S
C3406 C3410 1.368 1_556 S
C3407 C3388 1.429 . S
C3407 C3401 1.429 1_554 S
C3407 C3408 1.523 . S
C3408 C3389 1.368 1_554 S
C3408 C3402 1.368 . S
C3408 C3407 1.523 . S
C3409 C3393 1.429 . S
C3409 C3405 1.429 . S
C3409 C3410 1.523 . S
C3410 C3394 1.368 . S
C3410 C3406 1.368 1_554 S
C3410 C3409 1.523 . S
H3411 C3386 0.950 . S
H3412 C3388 0.950 . S
H3413 C3389 0.949 . S
H3414 C3391 0.950 1_556 S
H3415 C3393 0.950 1_556 S
C3416 C3417 1.349 . S
C3416 C3418 1.327 . S
C3416 H3441 0.950 . S
C3417 C3416 1.349 . S
C3417 C3433 1.349 . S
C3418 C3416 1.327 . S
C3418 C3437 1.429 . S
C3418 H3442 0.950 . S
C3419 C3436 1.574 . S
C3419 C3438 1.368 . S
C3419 H3443 0.949 . S
H3420 C3424 0.949 . S
C3421 C3422 1.349 . S
C3421 C3423 1.327 . S
C3421 H3444 0.950 . S
C3422 C3421 1.349 . S
C3422 C3434 1.349 . S
C3423 C3421 1.327 . S
C3423 C3439 1.429 . S
C3423 H3445 0.950 . S
C3424 H3420 0.949 . S
C3424 C3432 1.574 . S
C3424 C3440 1.368 . S
H3425 C3433 0.950 . S
H3426 C3431 0.950 . S
H3427 C3432 0.949 . S
H3428 C3434 0.950 . S
H3429 C3435 0.950 . S
H3430 C3436 0.949 . S
C3431 H3426 0.950 . S
C3431 C3433 1.327 . S
C3431 C3437 1.429 . S
C3432 C3424 1.574 . S
C3432 H3427 0.949 . S
C3432 C3438 1.368 . S
C3433 C3417 1.349 . S
C3433 H3425 0.950 . S
C3433 C3431 1.327 . S
C3434 C3422 1.349 . S
C3434 H3428 0.950 . S
C3434 C3435 1.327 . S
C3435 H3429 0.950 . S
C3435 C3434 1.327 . S
C3435 C3439 1.429 . S
C3436 C3419 1.574 . S
C3436 H3430 0.949 . S
C3436 C3440 1.368 . S
C3437 C3418 1.429 . S
C3437 C3431 1.429 . S
C3437 C3438 1.523 . S
C3438 C3419 1.368 . S
C3438 C3432 1.368 . S
C3438 C3437 1.523 . S
C3439 C3423 1.429 . S
C3439 C3435 1.429 . S
C3439 C3440 1.523 . S
C3440 C3424 1.368 . S
C3440 C3436 1.368 . S
C3440 C3439 1.523 . S
H3441 C3416 0.950 . S
H3442 C3418 0.950 . S
H3443 C3419 0.949 . S
H3444 C3421 0.950 . S
H3445 C3423 0.950 . S
C3446 C3447 1.349 . S
C3446 C3448 1.327 . S
C3446 H3471 0.950 . S
C3447 C3446 1.349 . S
C3447 C3463 1.349 . S
C3448 C3446 1.327 . S
C3448 C3467 1.429 . S
C3448 H3472 0.950 . S
C3449 C3466 1.574 . S
C3449 C3468 1.368 . S
C3449 H3473 0.949 . S
H3450 C3454 0.933 1_556 S
C3451 C3452 1.349 . S
C3451 C3453 1.327 . S
C3451 H3474 0.950 . S
C3452 C3451 1.349 . S
C3452 C3464 1.349 . S
C3453 C3451 1.327 . S
C3453 C3469 1.429 . S
C3453 H3475 0.950 . S
C3454 H3450 0.933 1_554 S
C3454 C3462 1.574 . S
C3454 C3470 1.368 . S
H3455 C3463 0.950 . S
H3456 C3461 0.950 . S
H3457 C3462 0.949 . S
H3458 C3464 0.950 1_556 S
H3459 C3465 0.950 1_556 S
H3460 C3466 0.949 . S
C3461 H3456 0.950 . S
C3461 C3463 1.327 . S
C3461 C3467 1.429 . S
C3462 C3454 1.574 . S
C3462 H3457 0.949 . S
C3462 C3468 1.368 . S
C3463 C3447 1.349 . S
C3463 H3455 0.950 . S
C3463 C3461 1.327 . S
C3464 C3452 1.349 . S
C3464 H3458 0.950 1_554 S
C3464 C3465 1.327 . S
C3465 H3459 0.950 1_554 S
C3465 C3464 1.327 . S
C3465 C3469 1.429 . S
C3466 C3449 1.574 . S
C3466 H3460 0.949 . S
C3466 C3470 1.368 . S
C3467 C3448 1.429 . S
C3467 C3461 1.429 . S
C3467 C3468 1.523 . S
C3468 C3449 1.368 . S
C3468 C3462 1.368 . S
C3468 C3467 1.523 . S
C3469 C3453 1.429 . S
C3469 C3465 1.429 . S
C3469 C3470 1.523 . S
C3470 C3454 1.368 . S
C3470 C3466 1.368 . S
C3470 C3469 1.523 . S
H3471 C3446 0.950 . S
H3472 C3448 0.950 . S
H3473 C3449 0.949 . S
H3474 C3451 0.950 . S
H3475 C3453 0.950 . S
C3476 C3477 1.349 . S
C3476 C3478 1.327 . S
C3476 H3501 0.950 1_565 S
C3477 C3476 1.349 . S
C3477 C3493 1.349 . S
C3478 C3476 1.327 . S
C3478 C3497 1.429 . S
C3478 H3502 0.950 . S
C3479 C3496 1.574 . S
C3479 C3498 1.368 . S
C3479 H3503 0.949 . S
H3480 C3484 0.949 . S
C3481 C3482 1.349 . S
C3481 C3483 1.327 . S
C3481 H3504 0.950 . S
C3482 C3481 1.349 . S
C3482 C3494 1.349 . S
C3483 C3481 1.327 . S
C3483 C3499 1.429 . S
C3483 H3505 0.950 . S
C3484 H3480 0.949 . S
C3484 C3492 1.574 . S
C3484 C3500 1.368 . S
H3485 C3493 0.950 . S
H3486 C3491 0.950 . S
H3487 C3492 0.949 . S
H3488 C3494 0.950 . S
H3489 C3495 0.950 . S
H3490 C3496 0.949 . S
C3491 H3486 0.950 . S
C3491 C3493 1.327 . S
C3491 C3497 1.429 . S
C3492 C3484 1.574 . S
C3492 H3487 0.949 . S
C3492 C3498 1.368 . S
C3493 C3477 1.349 . S
C3493 H3485 0.950 . S
C3493 C3491 1.327 . S
C3494 C3482 1.349 . S
C3494 H3488 0.950 . S
C3494 C3495 1.327 . S
C3495 H3489 0.950 . S
C3495 C3494 1.327 . S
C3495 C3499 1.429 . S
C3496 C3479 1.574 . S
C3496 H3490 0.949 . S
C3496 C3500 1.368 . S
C3497 C3478 1.429 . S
C3497 C3491 1.429 . S
C3497 C3498 1.523 . S
C3498 C3479 1.368 . S
C3498 C3492 1.368 . S
C3498 C3497 1.523 . S
C3499 C3483 1.429 . S
C3499 C3495 1.429 . S
C3499 C3500 1.523 . S
C3500 C3484 1.368 . S
C3500 C3496 1.368 . S
C3500 C3499 1.523 . S
H3501 C3476 0.950 1_545 S
H3502 C3478 0.950 . S
H3503 C3479 0.949 . S
H3504 C3481 0.950 . S
H3505 C3483 0.950 . S
C3506 C3507 1.349 . S
C3506 C3508 1.327 . S
C3506 H3531 0.950 . S
C3507 C3506 1.349 . S
C3507 C3523 1.349 . S
C3508 C3506 1.327 . S
C3508 C3527 1.429 . S
C3508 H3532 0.950 . S
C3509 C3526 1.574 . S
C3509 C3528 1.368 . S
C3509 H3533 0.949 . S
H3510 C3514 0.949 . S
C3511 C3512 1.349 . S
C3511 C3513 1.327 . S
C3511 H3534 0.950 . S
C3512 C3511 1.349 . S
C3512 C3524 1.349 . S
C3513 C3511 1.327 . S
C3513 C3529 1.429 . S
C3513 H3535 0.950 . S
C3514 H3510 0.949 . S
C3514 C3522 1.574 . S
C3514 C3530 1.368 . S
H3515 C3523 0.950 . S
H3516 C3521 0.950 . S
H3517 C3522 0.949 . S
H3518 C3524 0.950 . S
H3519 C3525 0.950 . S
H3520 C3526 0.949 . S
C3521 H3516 0.950 . S
C3521 C3523 1.327 . S
C3521 C3527 1.429 . S
C3522 C3514 1.574 . S
C3522 H3517 0.949 . S
C3522 C3528 1.368 . S
C3523 C3507 1.349 . S
C3523 H3515 0.950 . S
C3523 C3521 1.327 . S
C3524 C3512 1.349 . S
C3524 H3518 0.950 . S
C3524 C3525 1.327 . S
C3525 H3519 0.950 . S
C3525 C3524 1.327 . S
C3525 C3529 1.429 . S
C3526 C3509 1.574 . S
C3526 H3520 0.949 . S
C3526 C3530 1.368 . S
C3527 C3508 1.429 . S
C3527 C3521 1.429 . S
C3527 C3528 1.523 . S
C3528 C3509 1.368 . S
C3528 C3522 1.368 . S
C3528 C3527 1.523 . S
C3529 C3513 1.429 . S
C3529 C3525 1.429 . S
C3529 C3530 1.523 . S
C3530 C3514 1.368 . S
C3530 C3526 1.368 . S
C3530 C3529 1.523 . S
H3531 C3506 0.950 . S
H3532 C3508 0.950 . S
H3533 C3509 0.949 . S
H3534 C3511 0.950 . S
H3535 C3513 0.950 . S
C657 C106 1.526 . S
C662 C352 1.508 . S
C687 C65 1.171 . S
C692 C365 1.165 . S
C717 C79 1.643 . S
C722 C384 1.647 . S
C752 C415 1.686 . S
C747 C90 1.700 . S
C777 C21 1.496 . S
C782 C435 1.508 1_565 S
C812 C452 0.742 . S
C807 C35 0.742 . S
C842 C465 1.522 . S
C837 C50 1.528 . S
C867 C6 0.906 . S
C872 C492 0.913 . S
C902 C345 1.328 1_655 S
C897 C232 1.350 . S
C927 C245 1.372 . S
C932 C375 1.393 . S
C962 C377 1.718 . S
C957 C274 1.758 . S
C992 C412 0.752 . S
C987 C175 0.752 . S
C1017 C231 0.846 . S
C1022 C432 0.852 . S
C1052 C445 1.748 . S
C1047 C246 1.751 . S
C1082 C475 1.036 . S
C1077 C273 1.033 . S
C1112 C485 1.280 . S
C1107 C176 1.302 . S
C1142 C355 1.596 . S
C1137 C160 1.565 . S
C1167 C289 1.875 . S
C1172 C505 1.865 . S
C1202 C535 1.618 . S
C1197 C328 1.567 . S
C1232 C552 1.236 . S
C1227 C317 1.255 . S
C1257 C118 1.902 . S
C1262 C495 1.960 . S
C1287 C132 1.155 . S
C1292 C382 1.170 . S
C1317 C331 1.990 . S
C1322 C565 1.981 . S
C1352 C592 1.007 . S
C1347 C303 1.023 . S
C1382 C342 1.090 . S
C1377 C63 1.088 . S
C1412 C577 1.543 . S
C1407 C107 1.536 . S
C1437 C92 1.405 . S
C1442 C395 1.386 . S
C1467 C78 2.363 . S
C1472 C564 2.348 . S
C1502 C424 2.120 . S
C1497 C8 2.140 . S
C1527 C51 0.859 . S
C1532 C522 0.856 . S
C1562 C457 1.822 1_556 S
C1557 C37 1.812 . S
C1592 C602 0.853 . S
C1587 C20 0.853 . S
C1622 C337 1.142 . S
C1617 C147 1.123 . S
C1652 C584 1.558 . S
C1647 C316 1.591 . S
C1677 C119 1.679 . S
C1682 C385 1.671 . S
C1707 C288 0.883 . S
C1712 C562 0.881 . S
C1737 C148 1.174 1_545 S
C1742 C422 1.176 . S
C1772 C517 1.760 . S
C1767 C315 1.719 . S
C1797 C120 1.384 . S
C1802 C464 1.355 . S
C1827 C287 1.148 . S
C1832 C597 1.152 . S
C1857 C188 1.425 . S
C1862 C344 1.433 . S
C1887 C177 2.157 . S
C1892 C497 2.165 . S
C1917 C258 1.711 . S
C1922 C444 1.754 . S
C1947 C247 1.326 . S
C1952 C542 1.315 . S
C1982 C604 1.827 . S
C1977 C272 1.803 . S
C2007 C216 1.010 . S
C2012 C392 1.018 . S
C2042 C397 2.216 . S
C2037 C261 2.201 . S
C2072 C362 1.031 . S
C2067 C205 1.045 . S
C2097 C76 1.132 . S
C2102 C632 1.145 . S
C2132 C585 1.229 . S
C2127 C93 1.235 . S
C2157 C105 1.218 . S
C2162 C644 1.252 . S
C2187 C62 1.725 . S
C2192 C575 1.716 . S
C2217 C49 1.468 . S
C2222 C515 1.477 . S
C2252 C532 1.107 . S
C2247 C9 1.112 . S
C2282 C545 1.467 . S
C2277 C22 1.473 . S
C2312 C612 1.248 . S
C2307 C36 1.275 . S
C2342 C625 1.246 . S
C2337 C260 1.266 . S
C2367 C189 1.211 . S
C2372 C595 1.220 . S
C2402 C637 1.623 . S
C2397 C204 1.668 . S
C2432 C572 0.584 . S
C2427 C217 0.595 . S
C2462 C512 1.033 . S
C2457 C259 1.017 . S
C2487 C190 1.843 . S
C2492 C525 1.838 . S
C2522 C555 1.208 . S
C2517 C203 1.195 . S
C2547 C218 1.405 . S
C2552 C605 1.381 . S
C2582 C635 1.518 . S
C2577 C314 1.475 . S
C2607 C135 1.934 . S
C2612 C425 1.925 . S
C2642 C455 1.544 . S
C2637 C146 1.488 . S
C2672 C472 1.291 . S
C2667 C163 1.305 . S
C2702 C615 2.042 . S
C2697 C300 1.998 . S
C2727 C286 1.097 . S
C2732 C642 1.116 . S
C2762 C405 1.910 . S
C2757 C149 1.913 . S
C2792 C372 0.955 . S
C2787 C121 0.972 . S
C2817 C91 1.050 . S
C2822 C622 1.053 . S
C2852 C357 1.156 . S
C2847 C77 1.141 . S
C2877 C64 1.370 . S
C2882 C655 1.349 . S
C2907 C104 1.948 . S
C2912 C404 1.959 . S
C2937 C34 1.709 . S
C2942 C504 1.735 1_556 S
C2972 C442 0.822 . S
C2967 C23 0.823 . S
C2997 C7 1.349 . S
C3002 C537 1.393 . S
C3027 C48 0.816 . S
C3032 C482 0.817 . S
C3062 C617 1.142 . S
C3057 C329 1.126 . S
C3087 C162 1.589 . S
C3092 C364 1.557 . S
C3122 C645 1.659 1_655 S
C3117 C301 1.666 . S
C3147 C134 0.904 . S
C3152 C402 0.901 . S
C3177 C330 1.191 . S
C3182 C502 1.185 . S
C3212 C437 1.749 . S
C3207 C161 1.712 . S
C3237 C302 1.380 . S
C3242 C544 1.351 . S
C3272 C477 1.150 . S
C3267 C133 1.149 . S
C3302 C624 1.741 . S
C3297 C244 1.733 . S
C3332 C417 2.145 . S
C3327 C219 2.131 . S
C3357 C230 1.442 . S
C3362 C524 1.480 . S
C3392 C462 1.276 . S
C3387 C191 1.283 1_554 S
C3417 C202 2.096 . S
C3422 C484 2.121 . S
C3447 C174 1.244 . S
C3452 C652 1.261 . S
C3482 C557 2.208 . S
C3477 C233 2.186 1_565 S
C3512 C582 0.995 . S
C3507 C275 1.014 . S
