# Generated by pormake.
# Topology ctn, (3,4)-cn, num edge types: 1
# Building blocks:
#     Node 0, Type 0, BuildingBlock: WUSLED_clean_sbu_0, # of connection points: 3
#     Node 1, Type 0, BuildingBlock: WUSLED_clean_sbu_0, # of connection points: 3
#     Node 2, Type 0, BuildingBlock: WUSLED_clean_sbu_0, # of connection points: 3
#     Node 3, Type 0, BuildingBlock: WUSLED_clean_sbu_0, # of connection points: 3
#     Node 4, Type 0, BuildingBlock: WUSLED_clean_sbu_0, # of connection points: 3
#     Node 5, Type 0, BuildingBlock: WUSLED_clean_sbu_0, # of connection points: 3
#     Node 6, Type 0, BuildingBlock: WUSLED_clean_sbu_0, # of connection points: 3
#     Node 7, Type 0, BuildingBlock: WUSLED_clean_sbu_0, # of connection points: 3
#     Node 8, Type 0, BuildingBlock: WUSLED_clean_sbu_0, # of connection points: 3
#     Node 9, Type 0, BuildingBlock: WUSLED_clean_sbu_0, # of connection points: 3
#     Node 10, Type 0, BuildingBlock: WUSLED_clean_sbu_0, # of connection points: 3
#     Node 11, Type 0, BuildingBlock: WUSLED_clean_sbu_0, # of connection points: 3
#     Node 12, Type 0, BuildingBlock: WUSLED_clean_sbu_0, # of connection points: 3
#     Node 13, Type 0, BuildingBlock: WUSLED_clean_sbu_0, # of connection points: 3
#     Node 14, Type 0, BuildingBlock: WUSLED_clean_sbu_0, # of connection points: 3
#     Node 15, Type 0, BuildingBlock: WUSLED_clean_sbu_0, # of connection points: 3
#     Node 16, Type 1, BuildingBlock: QUQFOY_clean_sbu_1, # of connection points: 4
#     Node 17, Type 1, BuildingBlock: QUQFOY_clean_sbu_1, # of connection points: 4
#     Node 18, Type 1, BuildingBlock: QUQFOY_clean_sbu_1, # of connection points: 4
#     Node 19, Type 1, BuildingBlock: QUQFOY_clean_sbu_1, # of connection points: 4
#     Node 20, Type 1, BuildingBlock: QUQFOY_clean_sbu_1, # of connection points: 4
#     Node 21, Type 1, BuildingBlock: QUQFOY_clean_sbu_1, # of connection points: 4
#     Node 22, Type 1, BuildingBlock: QUQFOY_clean_sbu_1, # of connection points: 4
#     Node 23, Type 1, BuildingBlock: QUQFOY_clean_sbu_1, # of connection points: 4
#     Node 24, Type 1, BuildingBlock: QUQFOY_clean_sbu_1, # of connection points: 4
#     Node 25, Type 1, BuildingBlock: QUQFOY_clean_sbu_1, # of connection points: 4
#     Node 26, Type 1, BuildingBlock: QUQFOY_clean_sbu_1, # of connection points: 4
#     Node 27, Type 1, BuildingBlock: QUQFOY_clean_sbu_1, # of connection points: 4
#     Edge 28, Type (0, 1), BuildingBlock: XIVTED_clean_linker_0, # of connection points: 2
#     Edge 29, Type (0, 1), BuildingBlock: XIVTED_clean_linker_0, # of connection points: 2
#     Edge 30, Type (0, 1), BuildingBlock: XIVTED_clean_linker_0, # of connection points: 2
#     Edge 31, Type (0, 1), BuildingBlock: XIVTED_clean_linker_0, # of connection points: 2
#     Edge 32, Type (0, 1), BuildingBlock: XIVTED_clean_linker_0, # of connection points: 2
#     Edge 33, Type (0, 1), BuildingBlock: XIVTED_clean_linker_0, # of connection points: 2
#     Edge 34, Type (0, 1), BuildingBlock: XIVTED_clean_linker_0, # of connection points: 2
#     Edge 35, Type (0, 1), BuildingBlock: XIVTED_clean_linker_0, # of connection points: 2
#     Edge 36, Type (0, 1), BuildingBlock: XIVTED_clean_linker_0, # of connection points: 2
#     Edge 37, Type (0, 1), BuildingBlock: XIVTED_clean_linker_0, # of connection points: 2
#     Edge 38, Type (0, 1), BuildingBlock: XIVTED_clean_linker_0, # of connection points: 2
#     Edge 39, Type (0, 1), BuildingBlock: XIVTED_clean_linker_0, # of connection points: 2
#     Edge 40, Type (0, 1), BuildingBlock: XIVTED_clean_linker_0, # of connection points: 2
#     Edge 41, Type (0, 1), BuildingBlock: XIVTED_clean_linker_0, # of connection points: 2
#     Edge 42, Type (0, 1), BuildingBlock: XIVTED_clean_linker_0, # of connection points: 2
#     Edge 43, Type (0, 1), BuildingBlock: XIVTED_clean_linker_0, # of connection points: 2
#     Edge 44, Type (0, 1), BuildingBlock: XIVTED_clean_linker_0, # of connection points: 2
#     Edge 45, Type (0, 1), BuildingBlock: XIVTED_clean_linker_0, # of connection points: 2
#     Edge 46, Type (0, 1), BuildingBlock: XIVTED_clean_linker_0, # of connection points: 2
#     Edge 47, Type (0, 1), BuildingBlock: XIVTED_clean_linker_0, # of connection points: 2
#     Edge 48, Type (0, 1), BuildingBlock: XIVTED_clean_linker_0, # of connection points: 2
#     Edge 49, Type (0, 1), BuildingBlock: XIVTED_clean_linker_0, # of connection points: 2
#     Edge 50, Type (0, 1), BuildingBlock: XIVTED_clean_linker_0, # of connection points: 2
#     Edge 51, Type (0, 1), BuildingBlock: XIVTED_clean_linker_0, # of connection points: 2
#     Edge 52, Type (0, 1), BuildingBlock: XIVTED_clean_linker_0, # of connection points: 2
#     Edge 53, Type (0, 1), BuildingBlock: XIVTED_clean_linker_0, # of connection points: 2
#     Edge 54, Type (0, 1), BuildingBlock: XIVTED_clean_linker_0, # of connection points: 2
#     Edge 55, Type (0, 1), BuildingBlock: XIVTED_clean_linker_0, # of connection points: 2
#     Edge 56, Type (0, 1), BuildingBlock: XIVTED_clean_linker_0, # of connection points: 2
#     Edge 57, Type (0, 1), BuildingBlock: XIVTED_clean_linker_0, # of connection points: 2
#     Edge 58, Type (0, 1), BuildingBlock: XIVTED_clean_linker_0, # of connection points: 2
#     Edge 59, Type (0, 1), BuildingBlock: XIVTED_clean_linker_0, # of connection points: 2
#     Edge 60, Type (0, 1), BuildingBlock: XIVTED_clean_linker_0, # of connection points: 2
#     Edge 61, Type (0, 1), BuildingBlock: XIVTED_clean_linker_0, # of connection points: 2
#     Edge 62, Type (0, 1), BuildingBlock: XIVTED_clean_linker_0, # of connection points: 2
#     Edge 63, Type (0, 1), BuildingBlock: XIVTED_clean_linker_0, # of connection points: 2
#     Edge 64, Type (0, 1), BuildingBlock: XIVTED_clean_linker_0, # of connection points: 2
#     Edge 65, Type (0, 1), BuildingBlock: XIVTED_clean_linker_0, # of connection points: 2
#     Edge 66, Type (0, 1), BuildingBlock: XIVTED_clean_linker_0, # of connection points: 2
#     Edge 67, Type (0, 1), BuildingBlock: XIVTED_clean_linker_0, # of connection points: 2
#     Edge 68, Type (0, 1), BuildingBlock: XIVTED_clean_linker_0, # of connection points: 2
#     Edge 69, Type (0, 1), BuildingBlock: XIVTED_clean_linker_0, # of connection points: 2
#     Edge 70, Type (0, 1), BuildingBlock: XIVTED_clean_linker_0, # of connection points: 2
#     Edge 71, Type (0, 1), BuildingBlock: XIVTED_clean_linker_0, # of connection points: 2
#     Edge 72, Type (0, 1), BuildingBlock: XIVTED_clean_linker_0, # of connection points: 2
#     Edge 73, Type (0, 1), BuildingBlock: XIVTED_clean_linker_0, # of connection points: 2
#     Edge 74, Type (0, 1), BuildingBlock: XIVTED_clean_linker_0, # of connection points: 2
#     Edge 75, Type (0, 1), BuildingBlock: XIVTED_clean_linker_0, # of connection points: 2
# Relax obj value: 0.036
# Max RMSD: 0.140
# Mean RMSD: 0.064
data_MOF--net-ctn--node1-WUSLED_clean_sbu_0--node2-QUQFOY_clean_sbu_1--edge1-XIVTED_clean_linker_0
_symmetry_space_group_name_H-M    P1
_symmetry_Int_Tables_number       1
_symmetry_cell_setting            triclinic
loop_
_symmetry_equiv_pos_as_xyz
'x, y, z'
_cell_length_a     71.629344
_cell_length_b     72.027081
_cell_length_c     72.137799
_cell_angle_alpha  93.300774
_cell_angle_beta   90.027387
_cell_angle_gamma 94.238623
loop_
_atom_site_label
_atom_site_type_symbol
_atom_site_fract_x
_atom_site_fract_y
_atom_site_fract_z
_atom_type_partial_charge
C0 C 0.0147 0.1003 0.10476 0.0
C1 C 0.02125 0.088 0.11722 0.0
C2 C 0.99298 0.09032 0.13581 0.0
C3 C 0.01052 0.0831 0.13263 0.0
C4 C 0.98664 0.10287 0.12336 0.0
C5 C 0.99741 0.10779 0.10798 0.0
U6 U 0.05434 0.09132 0.07109 0.0
O7 O 0.05469 0.09055 0.04057 0.0
O8 O 0.07347 0.11091 0.05659 0.0
C9 C 0.06662 0.10528 0.04014 0.0
C10 C 0.02544 0.10486 0.08805 0.0
C11 C 0.06077 0.12006 0.02864 0.0
C12 C 0.04037 0.14469 0.02315 0.0
C13 C 0.04636 0.13116 0.0345 0.0
C14 C 0.06325 0.13628 1.00002 0.0
C15 C 0.04864 0.14733 0.00569 0.0
C16 C 0.06924 0.12276 0.0114 0.0
C17 C 0.08538 0.05145 0.08036 0.0
C18 C 0.11326 0.04471 0.06278 0.0
C19 C 0.10045 0.02285 0.08459 0.0
C20 C 0.08624 0.03462 0.08902 0.0
C21 C 0.11414 0.0277 0.07138 0.0
C22 C 0.09897 0.05646 0.0672 0.0
C23 C 0.07004 0.06335 0.08507 0.0
O24 O 0.04277 0.11175 0.09096 0.0
O25 O 0.02386 0.09204 0.07432 0.0
O26 O 0.05548 0.06116 0.07385 0.0
O27 O 0.07495 0.08093 0.08982 0.0
H28 H 0.03458 0.08206 0.11493 0.0
H29 H 0.01599 0.07363 0.14205 0.0
H30 H 0.97312 0.10851 0.12522 0.0
H31 H 0.9921 0.11724 0.09843 0.0
H32 H 0.02929 0.15312 0.0281 0.0
H33 H 0.03967 0.12926 0.04779 0.0
H34 H 0.06978 0.13776 0.9866 0.0
H35 H 0.08032 0.11423 0.00663 0.0
H36 H 0.12368 0.04902 0.05272 0.0
H37 H 0.10046 0.00977 0.09126 0.0
H38 H 0.07579 0.03049 0.09914 0.0
H39 H 0.09851 0.06941 0.06034 0.0
C40 C 0.26818 0.76016 0.19412 0.0
C41 C 0.28419 0.77173 0.19034 0.0
C42 C 0.26651 0.7878 0.1681 0.0
C43 C 0.28337 0.7854 0.1774 0.0
C44 C 0.25045 0.77634 0.1722 0.0
C45 C 0.25131 0.76263 0.18508 0.0
U46 U 0.29269 0.73716 0.23277 0.0
O47 O 0.28104 0.72453 0.25778 0.0
O48 O 0.29576 0.7076 0.23703 0.0
C49 C 0.28581 0.70782 0.25233 0.0
C50 C 0.26891 0.74542 0.20734 0.0
C51 C 0.27112 0.69256 0.25349 0.0
C52 C 0.24563 0.6722 0.23973 0.0
C53 C 0.2589 0.68736 0.23857 0.0
C54 C 0.25642 0.66763 0.27087 0.0
C55 C 0.24434 0.66204 0.25585 0.0
C56 C 0.26969 0.68272 0.26966 0.0
C57 C 0.33978 0.75757 0.25191 0.0
C58 C 0.35243 0.75155 0.28211 0.0
C59 C 0.37313 0.76305 0.25812 0.0
C60 C 0.35786 0.76317 0.24605 0.0
C61 C 0.3706 0.75743 0.27639 0.0
C62 C 0.33719 0.75153 0.26997 0.0
C63 C 0.32386 0.75804 0.23904 0.0
O64 O 0.28192 0.73368 0.20415 0.0
O65 O 0.26766 0.75095 0.22494 0.0
O66 O 0.30779 0.76175 0.24669 0.0
O67 O 0.32225 0.74442 0.22608 0.0
H68 H 0.29732 0.77011 0.19732 0.0
H69 H 0.29593 0.79415 0.17474 0.0
H70 H 0.23731 0.77767 0.16514 0.0
H71 H 0.23881 0.75382 0.18786 0.0
H72 H 0.23667 0.66819 0.22785 0.0
H73 H 0.25981 0.69484 0.22595 0.0
H74 H 0.25558 0.66039 0.28362 0.0
H75 H 0.27896 0.68662 0.28134 0.0
H76 H 0.34987 0.74733 0.2961 0.0
H77 H 0.38693 0.76731 0.25308 0.0
H78 H 0.36017 0.76769 0.23211 0.0
H79 H 0.32337 0.74698 0.27476 0.0
C80 C 0.94456 0.45136 0.02051 0.0
C81 C 0.96289 0.44602 0.02245 0.0
C82 C 0.95606 0.41935 1.0006 0.0
C83 C 0.96862 0.43023 0.0125 0.0
C84 C 0.93761 0.42458 0.99894 0.0
C85 C 0.93194 0.4405 0.00878 0.0
U86 U 0.95054 0.48628 0.06157 0.0
O87 O 0.95054 0.51687 0.06344 0.0
O88 O 0.93 0.5001 0.0792 0.0
C89 C 0.93549 0.51678 0.07386 0.0
C90 C 0.93855 0.4681 0.03082 0.0
C91 C 0.92061 0.52789 0.06737 0.0
C92 C 0.89516 0.53219 0.04612 0.0
C93 C 0.90885 0.52119 0.05254 0.0
C94 C 0.90484 0.55666 0.06933 0.0
C95 C 0.89304 0.55012 0.05437 0.0
C96 C 0.91849 0.54563 0.07575 0.0
C97 C 0.98981 0.47838 0.09609 0.0
C98 C 0.99558 0.4961 0.12545 0.0
C99 C 0.0176 0.47415 0.11417 0.0
C100 C 0.00643 0.46969 0.09844 0.0
C101 C 0.01234 0.48741 0.12789 0.0
C102 C 0.98442 0.49164 0.10966 0.0
C103 C 0.97841 0.4734 0.07936 0.0
O104 O 0.93098 0.46522 0.04709 0.0
O105 O 0.95066 0.48275 0.03113 0.0
O106 O 0.9808 0.48478 0.06582 0.0
O107 O 0.96075 0.46804 0.08216 0.0
H108 H 0.97279 0.45409 0.03163 0.0
H109 H 0.98283 0.42641 0.01426 0.0
H110 H 0.92767 0.41655 0.98978 0.0
H111 H 0.91772 0.44437 0.00719 0.0
H112 H 0.88617 0.52658 0.03476 0.0
H113 H 0.91032 0.50751 0.04588 0.0
H114 H 0.90382 0.57047 0.07585 0.0
H115 H 0.92754 0.55106 0.08715 0.0
H116 H 0.99099 0.50621 0.13583 0.0
H117 H 0.03054 0.46742 0.11541 0.0
H118 H 0.01082 0.45947 0.08803 0.0
H119 H 0.9716 0.49849 0.10804 0.0
C120 C 0.70963 0.7794 0.19551 0.0
C121 C 0.72742 0.78215 0.18751 0.0
C122 C 0.71862 0.75865 0.16278 0.0
C123 C 0.73191 0.77179 0.17132 0.0
C124 C 0.70083 0.75599 0.1709 0.0
C125 C 0.69641 0.76626 0.18712 0.0
U126 U 0.71693 0.82197 0.2294 0.0
O127 O 0.69659 0.83924 0.24342 0.0
O128 O 0.71533 0.8239 0.25999 0.0
C129 C 0.70073 0.83394 0.25997 0.0
C130 C 0.70455 0.79024 0.21242 0.0
C131 C 0.6847 0.82738 0.27129 0.0
C132 C 0.65287 0.81354 0.27384 0.0
C133 C 0.6684 0.81852 0.26298 0.0
C134 C 0.66996 0.82539 0.30154 0.0
C135 C 0.65339 0.81712 0.29321 0.0
C136 C 0.68544 0.83054 0.29065 0.0
C137 C 0.7555 0.85981 0.22026 0.0
C138 C 0.76479 0.88537 0.24259 0.0
C139 C 0.77624 0.8858 0.21101 0.0
C140 C 0.76622 0.86871 0.20668 0.0
C141 C 0.77576 0.8943 0.22905 0.0
C142 C 0.75471 0.86828 0.23822 0.0
C143 C 0.74511 0.84183 0.21537 0.0
O144 O 0.71694 0.79145 0.22598 0.0
O145 O 0.69743 0.80616 0.20968 0.0
O146 O 0.72765 0.84286 0.21021 0.0
O147 O 0.74725 0.8285 0.22674 0.0
H148 H 0.73778 0.79236 0.19374 0.0
H149 H 0.74564 0.77431 0.16529 0.0
H150 H 0.69036 0.74584 0.16477 0.0
H151 H 0.68261 0.76396 0.19311 0.0
H152 H 0.64038 0.80698 0.26706 0.0
H153 H 0.66756 0.81573 0.24808 0.0
H154 H 0.67073 0.82844 0.31642 0.0
H155 H 0.6979 0.83732 0.29732 0.0
H156 H 0.76424 0.89139 0.25667 0.0
H157 H 0.78424 0.89242 0.20015 0.0
H158 H 0.76684 0.86243 0.1927 0.0
H159 H 0.7464 0.86163 0.24886 0.0
C160 C 0.99965 0.98198 0.44168 0.0
C161 C 0.99869 1.00111 0.4392 0.0
C162 C 0.97907 0.99399 0.41177 0.0
C163 C 0.9884 0.00705 0.42446 0.0
C164 C 0.98019 0.97487 0.41419 0.0
C165 C 0.99033 0.96893 0.42906 0.0
U166 U 0.04295 0.98669 0.47239 0.0
O167 O 0.04627 0.98501 0.50257 0.0
O168 O 0.0601 0.9657 0.48337 0.0
C169 C 0.05617 0.97037 0.50074 0.0
C170 C 0.01057 0.97548 0.45708 0.0
C171 C 0.05036 0.9549 0.51239 0.0
C172 C 0.03057 0.92702 0.51831 0.0
C173 C 0.03575 0.94166 0.50697 0.0
C174 C 0.05445 0.93885 0.54064 0.0
C175 C 0.03988 0.92542 0.53531 0.0
C176 C 0.05963 0.95342 0.52928 0.0
C177 C 0.08052 0.02557 0.4636 0.0
C178 C 0.10463 0.03729 0.48588 0.0
C179 C 0.10749 0.04484 0.45365 0.0
C180 C 0.09054 0.03451 0.44957 0.0
C181 C 0.11464 0.04647 0.47187 0.0
C182 C 0.08775 0.02684 0.48176 0.0
C183 C 0.06252 0.01512 0.45908 0.0
O184 O 0.02625 0.96813 0.45228 0.0
O185 O 0.0123 0.9868 0.47205 0.0
O186 O 0.0492 0.01694 0.47144 0.0
O187 O 0.06361 0.99784 0.4525 0.0
H188 H 0.00596 0.01149 0.4486 0.0
H189 H 0.98799 0.02186 0.42281 0.0
H190 H 0.97304 0.96449 0.40471 0.0
H191 H 0.99094 0.95412 0.43068 0.0
H192 H 0.01944 0.91682 0.51366 0.0
H193 H 0.02842 0.94261 0.49395 0.0
H194 H 0.06171 0.93827 0.55374 0.0
H195 H 0.07088 0.9636 0.53372 0.0
H196 H 0.10991 0.03811 0.5 0.0
H197 H 0.11478 0.05189 0.4426 0.0
H198 H 0.08517 0.03364 0.43548 0.0
H199 H 0.0803 0.01986 0.49276 0.0
C200 C 0.19983 0.78364 0.85108 0.0
C201 C 0.21644 0.78232 0.86107 0.0
C202 C 0.20593 0.80397 0.88545 0.0
C203 C 0.21949 0.79243 0.87809 0.0
C204 C 0.18923 0.80504 0.87539 0.0
C205 C 0.18624 0.79498 0.85837 0.0
U206 U 0.21177 0.74563 0.81494 0.0
O207 O 0.19306 0.72547 0.79837 0.0
O208 O 0.21195 0.74558 0.78445 0.0
C209 C 0.19791 0.73277 0.78264 0.0
C210 C 0.19643 0.77317 0.83316 0.0
C211 C 0.18224 0.73731 0.77093 0.0
C212 C 0.15889 0.75829 0.76264 0.0
C213 C 0.17416 0.75444 0.77354 0.0
C214 C 0.15961 0.72791 0.74648 0.0
C215 C 0.15134 0.74499 0.74909 0.0
C216 C 0.17493 0.72413 0.7573 0.0
C217 C 0.25243 0.71564 0.8249 0.0
C218 C 0.26346 0.69181 0.80318 0.0
C219 C 0.27508 0.69476 0.83485 0.0
C220 C 0.26397 0.70964 0.83869 0.0
C221 C 0.27487 0.68556 0.8171 0.0
C222 C 0.25226 0.7067 0.80708 0.0
C223 C 0.24039 0.73088 0.82962 0.0
O224 O 0.20952 0.7757 0.82059 0.0
O225 O 0.19038 0.75559 0.8342 0.0
O226 O 0.22288 0.72568 0.83329 0.0
O227 O 0.24217 0.74527 0.81917 0.0
H228 H 0.22708 0.77357 0.85566 0.0
H229 H 0.23259 0.79143 0.88532 0.0
H230 H 0.17836 0.81353 0.88076 0.0
H231 H 0.17327 0.79603 0.85088 0.0
H232 H 0.1527 0.77148 0.76513 0.0
H233 H 0.17954 0.76474 0.78412 0.0
H234 H 0.15428 0.71747 0.73603 0.0
H235 H 0.18099 0.71084 0.75511 0.0
H236 H 0.26286 0.68492 0.78943 0.0
H237 H 0.28389 0.69049 0.8458 0.0
H238 H 0.26428 0.7164 0.85251 0.0
H239 H 0.24334 0.71111 0.79628 0.0
C240 C 0.95645 0.6034 0.52047 0.0
C241 C 0.97536 0.61012 0.52139 0.0
C242 C 0.96709 0.63762 0.53995 0.0
C243 C 0.98064 0.62705 0.53114 0.0
C244 C 0.94815 0.63095 0.53871 0.0
C245 C 0.9429 0.61397 0.52909 0.0
U246 U 0.96223 0.56568 0.48185 0.0
O247 O 0.95884 0.53514 0.48242 0.0
O248 O 0.94071 0.54969 0.46444 0.0
C249 C 0.94395 0.53387 0.47162 0.0
C250 C 0.95055 0.58547 0.51064 0.0
C251 C 0.92728 0.52321 0.47851 0.0
C252 C 0.90778 0.51227 0.50386 0.0
C253 C 0.92388 0.52218 0.49763 0.0
C254 C 0.89811 0.50457 0.47198 0.0
C255 C 0.89468 0.50345 0.49109 0.0
C256 C 0.9143 0.51431 0.46576 0.0
C257 C 1.00196 0.57147 0.4468 0.0
C258 C 0.01405 0.54662 0.42708 0.0
C259 C 0.01968 0.57878 0.41913 0.0
C260 C 0.00982 0.58457 0.43487 0.0
C261 C 0.02195 0.55974 0.41508 0.0
C262 C 0.00404 0.55242 0.44276 0.0
C263 C 0.99158 0.57801 0.46323 0.0
O264 O 0.94399 0.58656 0.49376 0.0
O265 O 0.9619 0.57206 0.512 0.0
O266 O 0.99273 0.56835 0.47807 0.0
O267 O 0.97456 0.58271 0.45994 0.0
H268 H 0.98603 0.60226 0.51465 0.0
H269 H 0.99531 0.63194 0.53169 0.0
H270 H 0.93742 0.63867 0.54551 0.0
H271 H 0.92825 0.60901 0.52849 0.0
H272 H 0.9054 0.51182 0.51865 0.0
H273 H 0.93358 0.52913 0.50776 0.0
H274 H 0.88836 0.49776 0.46182 0.0
H275 H 0.91665 0.51498 0.45097 0.0
H276 H 0.0154 0.53185 0.42421 0.0
H277 H 0.02577 0.58923 0.41027 0.0
H278 H 0.00835 0.59932 0.43775 0.0
H279 H 0.99792 0.54204 0.45169 0.0
C280 C 0.77322 0.7976 0.85072 0.0
C281 C 0.78851 0.78658 0.8517 0.0
C282 C 0.77497 0.77208 0.87881 0.0
C283 C 0.78937 0.77391 0.86562 0.0
C284 C 0.75959 0.78305 0.87757 0.0
C285 C 0.75875 0.7957 0.86366 0.0
U286 U 0.79322 0.82078 0.80819 0.0
O287 O 0.77913 0.83035 0.78374 0.0
O288 O 0.79612 0.8504 0.80199 0.0
C289 C 0.78421 0.84801 0.78803 0.0
C290 C 0.77231 0.81132 0.83649 0.0
C291 C 0.76942 0.86133 0.78807 0.0
C292 C 0.73672 0.86838 0.78629 0.0
C293 C 0.75032 0.85535 0.78621 0.0
C294 C 0.76105 0.8935 0.79011 0.0
C295 C 0.74194 0.8876 0.78838 0.0
C296 C 0.77461 0.88052 0.78987 0.0
C297 C 0.83903 0.80416 0.78746 0.0
C298 C 0.85096 0.80695 0.75609 0.0
C299 C 0.87203 0.80135 0.78111 0.0
C300 C 0.85713 0.80144 0.79359 0.0
C301 C 0.86912 0.80386 0.76214 0.0
C302 C 0.83605 0.80714 0.76864 0.0
C303 C 0.82355 0.8034 0.80091 0.0
O304 O 0.78555 0.82498 0.83755 0.0
O305 O 0.76916 0.80432 0.81945 0.0
O306 O 0.8069 0.79745 0.79435 0.0
O307 O 0.82321 0.8178 0.81291 0.0
H308 H 0.79983 0.78792 0.84179 0.0
H309 H 0.80148 0.76581 0.86627 0.0
H310 H 0.7481 0.78178 0.88728 0.0
H311 H 0.74681 0.80406 0.86305 0.0
H312 H 0.7221 0.86341 0.78505 0.0
H313 H 0.74584 0.84065 0.78479 0.0
H314 H 0.76555 0.90821 0.79147 0.0
H315 H 0.78923 0.8855 0.79115 0.0
H316 H 0.84815 0.80877 0.74159 0.0
H317 H 0.88585 0.79932 0.78635 0.0
H318 H 0.85973 0.79924 0.80807 0.0
H319 H 0.8222 0.80937 0.76359 0.0
C320 C 0.27568 0.29893 0.34982 0.0
C321 C 0.28018 0.28046 0.34588 0.0
C322 C 0.27695 0.27398 0.3786 0.0
C323 C 0.28074 0.26809 0.36012 0.0
C324 C 0.27289 0.29264 0.38248 0.0
C325 C 0.27219 0.30493 0.36823 0.0
U326 U 0.29415 0.32131 0.30592 0.0
O327 O 0.27895 0.32927 0.28139 0.0
O328 O 0.29558 0.35056 0.29855 0.0
C329 C 0.28354 0.34715 0.2848 0.0
C330 C 0.27433 0.31212 0.33502 0.0
C331 C 0.26795 0.35934 0.28496 0.0
C332 C 0.2415 0.3726 0.30049 0.0
C333 C 0.2557 0.36024 0.3001 0.0
C334 C 0.25137 0.38292 0.27041 0.0
C335 C 0.23927 0.38423 0.28572 0.0
C336 C 0.26559 0.3706 0.27006 0.0
C337 C 0.34024 0.30565 0.28484 0.0
C338 C 0.35153 0.30646 0.25306 0.0
C339 C 0.37347 0.30492 0.27838 0.0
C340 C 0.35871 0.30498 0.29102 0.0
C341 C 0.37007 0.3054 0.25921 0.0
C342 C 0.33675 0.30663 0.26576 0.0
C343 C 0.325 0.30486 0.29858 0.0
O344 O 0.28714 0.32617 0.33547 0.0
O345 O 0.2708 0.30474 0.31816 0.0
O346 O 0.30839 0.2981 0.29255 0.0
O347 O 0.3244 0.31959 0.31012 0.0
H348 H 0.28305 0.27548 0.33179 0.0
H349 H 0.28372 0.25381 0.35655 0.0
H350 H 0.27027 0.29781 0.39656 0.0
H351 H 0.26883 0.31916 0.3716 0.0
H352 H 0.23229 0.37308 0.31238 0.0
H353 H 0.25728 0.35157 0.3117 0.0
H354 H 0.25021 0.39181 0.25892 0.0
H355 H 0.27495 0.37008 0.25828 0.0
H356 H 0.34836 0.3067 0.2384 0.0
H357 H 0.38757 0.30449 0.28368 0.0
H358 H 0.36172 0.30434 0.30569 0.0
H359 H 0.3226 0.30725 0.26064 0.0
C360 C 0.44465 0.95146 0.51913 0.0
C361 C 0.463 0.94608 0.52075 0.0
C362 C 0.45561 0.91912 0.4994 0.0
C363 C 0.46846 0.93012 0.51089 0.0
C364 C 0.43717 0.92442 0.49803 0.0
C365 C 0.43176 0.9405 0.50778 0.0
U366 U 0.45031 0.98617 0.56052 0.0
O367 O 0.45064 0.01672 0.56272 0.0
O368 O 0.42932 1.00003 0.57766 0.0
C369 C 0.43514 0.01668 0.57248 0.0
C370 C 0.43879 0.96826 0.52946 0.0
C371 C 0.42053 0.02799 0.56562 0.0
C372 C 0.40441 0.04107 0.54029 0.0
C373 C 0.41798 0.02987 0.54654 0.0
C374 C 0.39541 0.04834 0.57208 0.0
C375 C 0.39294 0.0505 0.55297 0.0
C376 C 0.40909 0.03723 0.57832 0.0
C377 C 0.48873 0.97772 0.59579 0.0
C378 C 0.49455 0.99578 0.62496 0.0
C379 C 0.51612 0.97311 0.61432 0.0
C380 C 0.50506 0.96865 0.59851 0.0
C381 C 0.51104 0.98676 0.62775 0.0
C382 C 0.48349 0.99132 0.60908 0.0
C383 C 0.47759 0.9729 0.57887 0.0
O384 O 0.43085 0.96537 0.54556 0.0
O385 O 0.45111 0.98276 0.53008 0.0
O386 O 0.48042 0.98428 0.56539 0.0
O387 O 0.45982 0.96775 0.58133 0.0
H388 H 0.47311 0.95422 0.52965 0.0
H389 H 0.48269 0.92626 0.51242 0.0
H390 H 0.427 0.91631 0.48918 0.0
H391 H 0.41752 0.94439 0.50644 0.0
H392 H 0.40316 0.04257 0.5255 0.0
H393 H 0.4266 0.0228 0.53645 0.0
H394 H 0.38665 0.05508 0.58226 0.0
H395 H 0.41076 0.03588 0.5931 0.0
H396 H 0.49009 0.00619 0.63511 0.0
H397 H 0.52886 0.96611 0.61582 0.0
H398 H 0.50934 0.95818 0.58832 0.0
H399 H 0.4709 0.99846 0.60717 0.0
C400 C 0.21294 0.27902 0.69529 0.0
C401 C 0.22078 0.28862 0.68043 0.0
C402 C 0.22319 0.25925 0.6624 0.0
C403 C 0.22576 0.27883 0.6641 0.0
C404 C 0.21577 0.24967 0.67751 0.0
C405 C 0.21063 0.2595 0.69379 0.0
U406 U 0.21797 0.32117 0.72967 0.0
O407 O 0.19693 0.33778 0.74341 0.0
O408 O 0.2159 0.32293 0.76023 0.0
C409 C 0.20104 0.33261 0.76002 0.0
C410 C 0.20707 0.28918 0.71235 0.0
C411 C 0.18507 0.32593 0.77141 0.0
C412 C 0.15256 0.31417 0.77436 0.0
C413 C 0.16795 0.31897 0.76325 0.0
C414 C 0.17134 0.32234 0.80196 0.0
C415 C 0.15401 0.31603 0.79383 0.0
C416 C 0.1867 0.32732 0.79083 0.0
C417 C 0.25583 0.36004 0.72109 0.0
C418 C 0.25675 0.39142 0.73558 0.0
C419 C 0.28407 0.38071 0.71964 0.0
C420 C 0.27437 0.36345 0.71534 0.0
C421 C 0.27536 0.39497 0.72973 0.0
C422 C 0.24708 0.37409 0.73134 0.0
C423 C 0.24589 0.34183 0.71616 0.0
O424 O 0.21931 0.29071 0.72603 0.0
O425 O 0.1991 0.30474 0.70992 0.0
O426 O 0.22844 0.34224 0.71063 0.0
O427 O 0.24825 0.32868 0.72766 0.0
H428 H 0.22291 0.3037 0.68139 0.0
H429 H 0.23167 0.28658 0.65279 0.0
H430 H 0.21348 0.23461 0.67656 0.0
H431 H 0.20467 0.25185 0.70514 0.0
H432 H 0.13944 0.30912 0.76771 0.0
H433 H 0.16635 0.31757 0.74829 0.0
H434 H 0.17285 0.32406 0.81691 0.0
H435 H 0.19976 0.33266 0.79741 0.0
H436 H 0.24953 0.40211 0.7432 0.0
H437 H 0.29848 0.38278 0.71523 0.0
H438 H 0.28137 0.35273 0.70752 0.0
H439 H 0.23276 0.37169 0.73596 0.0
C440 C 0.77012 0.25847 0.69135 0.0
C441 C 0.77255 0.27757 0.69679 0.0
C442 C 0.76815 0.28566 0.66481 0.0
C443 C 0.77147 0.29104 0.68365 0.0
C444 C 0.7657 0.26655 0.65946 0.0
C445 C 0.76661 0.25312 0.6726 0.0
U446 U 0.79429 0.23618 0.73106 0.0
O447 O 0.78253 0.22274 0.75549 0.0
O448 O 0.79823 0.20661 0.73487 0.0
C449 C 0.7879 0.20627 0.7499 0.0
C450 C 0.77116 0.24387 0.70482 0.0
C451 C 0.77373 0.19045 0.75056 0.0
C452 C 0.74159 0.17711 0.74795 0.0
C453 C 0.7548 0.19229 0.74653 0.0
C454 C 0.76618 0.15804 0.75694 0.0
C455 C 0.7471 0.15983 0.75333 0.0
C456 C 0.77932 0.17321 0.75561 0.0
C457 C 0.84028 0.25777 0.75173 0.0
C458 C 0.85246 0.25121 0.78196 0.0
C459 C 0.87337 0.26408 0.75881 0.0
C460 C 0.85834 0.26413 0.74645 0.0
C461 C 0.87061 0.25778 0.77681 0.0
C462 C 0.83746 0.25112 0.76951 0.0
C463 C 0.82465 0.25796 0.73846 0.0
O464 O 0.78465 0.23263 0.70199 0.0
O465 O 0.76897 0.24899 0.72244 0.0
O466 O 0.80823 0.261 0.74571 0.0
O467 O 0.82383 0.24453 0.7253 0.0
H468 H 0.77538 0.28212 0.71116 0.0
H469 H 0.77359 0.30564 0.68816 0.0
H470 H 0.7629 0.26195 0.6451 0.0
H471 H 0.76461 0.23849 0.66809 0.0
H472 H 0.72702 0.17905 0.74522 0.0
H473 H 0.7502 0.20549 0.74252 0.0
H474 H 0.771 0.14487 0.76074 0.0
H475 H 0.7939 0.1715 0.75863 0.0
H476 H 0.84972 0.24645 0.79573 0.0
H477 H 0.88718 0.26889 0.7542 0.0
H478 H 0.86083 0.26912 0.73271 0.0
H479 H 0.82364 0.24598 0.77385 0.0
C480 C 0.51353 0.60027 0.60587 0.0
C481 C 0.51978 0.5876 0.61811 0.0
C482 C 0.49163 0.59032 0.6368 0.0
C483 C 0.50896 0.5827 0.63346 0.0
C484 C 0.4856 0.60323 0.62458 0.0
C485 C 0.49646 0.60814 0.60925 0.0
U486 U 0.55329 0.5913 0.57231 0.0
O487 O 0.55371 0.59056 0.54179 0.0
O488 O 0.57246 0.6109 0.55788 0.0
C489 C 0.56566 0.60527 0.5414 0.0
C490 C 0.52435 0.60483 0.58921 0.0
C491 C 0.55988 0.62006 0.52987 0.0
C492 C 0.5397 0.64488 0.52439 0.0
C493 C 0.54562 0.63134 0.53577 0.0
C494 C 0.56233 0.63611 0.50115 0.0
C495 C 0.54787 0.64734 0.50686 0.0
C496 C 0.56825 0.62258 0.51256 0.0
C497 C 0.58434 0.55146 0.58148 0.0
C498 C 0.61187 0.5446 0.5634 0.0
C499 C 0.59975 0.52309 0.58586 0.0
C500 C 0.58554 0.53483 0.59041 0.0
C501 C 0.61309 0.52778 0.57225 0.0
C502 C 0.59759 0.55632 0.56795 0.0
C503 C 0.56897 0.5633 0.58626 0.0
O504 O 0.54168 0.61169 0.59219 0.0
O505 O 0.52281 0.59203 0.57546 0.0
O506 O 0.55442 0.56113 0.57504 0.0
O507 O 0.57386 0.58088 0.59106 0.0
H508 H 0.53294 0.58137 0.61569 0.0
H509 H 0.51418 0.57294 0.64271 0.0
H510 H 0.47225 0.60919 0.62656 0.0
H511 H 0.49139 0.61788 0.59986 0.0
H512 H 0.52874 0.65345 0.52937 0.0
H513 H 0.539 0.62958 0.54912 0.0
H514 H 0.56878 0.63745 0.48767 0.0
H515 H 0.57922 0.61392 0.50776 0.0
H516 H 0.62201 0.54879 0.55303 0.0
H517 H 0.60004 0.51015 0.59275 0.0
H518 H 0.57536 0.53082 0.60083 0.0
H519 H 0.59685 0.56912 0.56089 0.0
C520 C 0.50056 0.48047 0.94001 0.0
C521 C 0.50018 0.49961 0.93733 0.0
C522 C 0.47966 0.49281 0.9105 0.0
C523 C 0.48973 0.50572 0.92279 0.0
C524 C 0.4802 0.47365 0.91313 0.0
C525 C 0.49051 0.46755 0.9278 0.0
U526 U 0.54384 0.48573 0.97061 0.0
O527 O 0.5474 0.48332 1.00065 0.0
O528 O 0.56181 0.46503 0.98089 0.0
C529 C 0.55778 0.46908 0.99838 0.0
C530 C 0.51171 0.47383 0.95515 0.0
C531 C 0.5524 0.45315 0.00959 0.0
C532 C 0.53301 0.42487 0.01499 0.0
C533 C 0.53803 0.43975 0.00389 0.0
C534 C 0.55663 0.43672 0.03758 0.0
C535 C 0.54223 0.42319 0.03201 0.0
C536 C 0.56166 0.45153 0.02646 0.0
C537 C 0.57977 0.52639 0.96284 0.0
C538 C 0.61108 0.52941 0.97619 0.0
C539 C 0.59834 0.55596 0.96293 0.0
C540 C 0.58181 0.54511 0.95844 0.0
C541 C 0.61316 0.54825 0.97186 0.0
C542 C 0.59447 0.51858 0.97181 0.0
C543 C 0.56215 0.51534 0.95818 0.0
O544 O 0.52766 0.4672 0.95008 0.0
O545 O 0.51311 0.48476 0.97041 0.0
O546 O 0.54898 0.51625 0.9708 0.0
O547 O 0.56379 0.49835 0.951 0.0
H548 H 0.50804 0.50986 0.94642 0.0
H549 H 0.48978 0.52055 0.92097 0.0
H550 H 0.47247 0.46338 0.90397 0.0
H551 H 0.49069 0.45273 0.92959 0.0
H552 H 0.52202 0.41461 0.01014 0.0
H553 H 0.53071 0.44082 0.99089 0.0
H554 H 0.56382 0.43608 0.05071 0.0
H555 H 0.57271 0.46183 0.03112 0.0
H556 H 0.62218 0.52314 0.98325 0.0
H557 H 0.59959 0.57036 0.95922 0.0
H558 H 0.5706 0.55134 0.95153 0.0
H559 H 0.59307 0.50417 0.97546 0.0
C560 C 0.70041 0.28184 0.35248 0.0
C561 C 0.71734 0.28133 0.36216 0.0
C562 C 0.70607 0.30198 0.38701 0.0
C563 C 0.72017 0.29134 0.37926 0.0
C564 C 0.68901 0.30213 0.37734 0.0
C565 C 0.68624 0.29217 0.36023 0.0
U566 U 0.71283 0.24507 0.31501 0.0
O567 O 0.69444 0.22562 0.29744 0.0
O568 O 0.71313 0.24668 0.28459 0.0
C569 C 0.69907 0.23397 0.28219 0.0
C570 C 0.69734 0.27188 0.33425 0.0
C571 C 0.68328 0.23941 0.27111 0.0
C572 C 0.65271 0.25177 0.26921 0.0
C573 C 0.66788 0.24716 0.27978 0.0
C574 C 0.66842 0.24159 0.24109 0.0
C575 C 0.65274 0.24891 0.24975 0.0
C576 C 0.68353 0.23682 0.25171 0.0
C577 C 0.75338 0.2145 0.32411 0.0
C578 C 0.7646 0.19119 0.30192 0.0
C579 C 0.77558 0.19305 0.3338 0.0
C580 C 0.76457 0.20796 0.33787 0.0
C581 C 0.77561 0.18436 0.31583 0.0
C582 C 0.75349 0.20611 0.30606 0.0
C583 C 0.7413 0.22963 0.32916 0.0
O584 O 0.71056 0.27493 0.32193 0.0
O585 O 0.69134 0.25422 0.33462 0.0
O586 O 0.72375 0.2243 0.33251 0.0
O587 O 0.74321 0.24441 0.31926 0.0
H588 H 0.72843 0.27336 0.35639 0.0
H589 H 0.73354 0.29106 0.3862 0.0
H590 H 0.67774 0.30989 0.38302 0.0
H591 H 0.67303 0.29261 0.353 0.0
H592 H 0.64095 0.25761 0.27626 0.0
H593 H 0.66751 0.2495 0.29475 0.0
H594 H 0.66879 0.2391 0.22615 0.0
H595 H 0.69534 0.23094 0.24478 0.0
H596 H 0.7642 0.1847 0.28799 0.0
H597 H 0.78409 0.18832 0.34475 0.0
H598 H 0.76467 0.21428 0.35187 0.0
H599 H 0.74483 0.21094 0.29527 0.0
C600 C 0.45651 0.10084 0.02152 0.0
C601 C 0.46655 0.1155 0.013 0.0
C602 C 0.46771 0.13414 0.0423 0.0
C603 C 0.47202 0.13207 0.0233 0.0
C604 C 0.45773 0.11936 0.05073 0.0
C605 C 0.45216 0.10288 0.04041 0.0
U606 U 0.46216 0.06444 0.98158 0.0
O607 O 0.45909 0.03381 0.98184 0.0
O608 O 0.44083 0.04842 0.96408 0.0
C609 C 0.44422 0.03252 0.97103 0.0
C610 C 0.45065 0.08326 0.01108 0.0
C611 C 0.42777 0.02193 0.97826 0.0
C612 C 0.40032 0.02028 0.99802 0.0
C613 C 0.41607 0.03036 0.99132 0.0
C614 C 0.408 0.99312 0.97892 0.0
C615 C 0.39608 1.00155 0.99186 0.0
C616 C 0.4237 1.00326 0.97215 0.0
C617 C 0.50161 0.07101 0.94646 0.0
C618 C 0.51286 0.04626 0.92602 0.0
C619 C 0.52032 0.07859 0.9195 0.0
C620 C 0.51038 0.08426 0.93524 0.0
C621 C 0.52174 0.05953 0.91476 0.0
C622 C 0.50278 0.05195 0.94168 0.0
C623 C 0.49131 0.07734 0.963 0.0
O624 O 0.44389 0.08477 0.99432 0.0
O625 O 0.46226 0.07003 0.01189 0.0
O626 O 0.49262 0.06746 0.97766 0.0
O627 O 0.47422 0.08196 0.9599 0.0
H628 H 0.47018 0.11411 0.99843 0.0
H629 H 0.47985 0.14315 0.01648 0.0
H630 H 0.454 0.12061 0.06528 0.0
H631 H 0.44443 0.0917 0.0472 0.0
H632 H 0.39155 0.02709 0.00814 0.0
H633 H 0.41911 0.04475 0.9963 0.0
H634 H 0.405 0.97879 0.97377 0.0
H635 H 0.43262 0.99655 0.96209 0.0
H636 H 0.51353 0.03149 0.92259 0.0
H637 H 0.52717 0.08915 0.91121 0.0
H638 H 0.5096 0.09902 0.93869 0.0
H639 H 0.49594 0.04147 0.95007 0.0
O640 O 0.246 0.87758 0.01431 0.0
Cd641 Cd 0.25805 0.89157 0.03763 0.0
Cd642 Cd 0.23622 0.92073 0.02452 0.0
O643 O 0.22899 0.89954 0.00465 0.0
O644 O 0.271 0.87191 0.04985 0.0
O645 O 0.24799 0.88637 0.0632 0.0
C646 C 0.26017 0.87407 0.06392 0.0
C647 C 0.21254 0.94007 0.03401 0.0
C648 C 0.23461 0.8832 1.00271 0.0
C649 C 0.27849 0.92799 0.02768 0.0
O650 O 0.2628 0.93385 0.02351 0.0
O651 O 0.27941 0.91183 0.03369 0.0
O652 O 0.22003 0.94076 0.01783 0.0
O653 O 0.21838 0.92816 0.04499 0.0
O654 O 0.15514 0.53977 0.28166 0.0
Cd655 Cd 0.13862 0.51646 0.28867 0.0
Cd656 Cd 0.11298 0.53273 0.26538 0.0
O657 O 0.13579 0.55154 0.26241 0.0
O658 O 0.15634 0.50138 0.30157 0.0
O659 O 0.14231 0.49161 0.27515 0.0
C660 C 0.15384 0.48871 0.28828 0.0
C661 C 0.09507 0.52368 0.23878 0.0
C662 C 0.15156 0.55217 0.27058 0.0
C663 C 0.10227 0.52784 0.30554 0.0
O664 O 0.09837 0.53407 0.28998 0.0
O665 O 0.11731 0.51986 0.30769 0.0
O666 O 0.09467 0.54006 0.24685 0.0
O667 O 0.1059 0.51228 0.24574 0.0
O668 O 0.75763 0.68529 0.99352 0.0
Cd669 Cd 0.74798 0.6693 0.01486 0.0
Cd670 Cd 0.77007 0.64375 0.9949 0.0
O671 O 0.77483 0.6657 0.97773 0.0
O672 O 0.7328 0.68711 0.02933 0.0
O673 O 0.75738 0.67537 0.04123 0.0
C674 C 0.74374 0.68604 0.0433 0.0
C675 C 0.79515 0.62892 0.00659 0.0
C676 C 0.76813 0.68156 0.97981 0.0
C677 C 0.72929 0.6322 0.99946 0.0
O678 O 0.7448 0.62805 0.99241 0.0
O679 O 0.72808 0.64753 0.00887 0.0
O680 O 0.78979 0.62607 0.98952 0.0
O681 O 0.78649 0.64066 0.01703 0.0
O682 O 0.90787 0.02992 0.28955 0.0
Cd683 Cd 0.8941 0.03315 0.26492 0.0
Cd684 Cd 0.86651 0.04507 0.29014 0.0
O685 O 0.88704 0.04051 0.30926 0.0
O686 O 0.91352 0.02832 0.24581 0.0
O687 O 0.90083 0.05528 0.24947 0.0
C688 C 0.91245 0.04506 0.24076 0.0
C689 C 0.85045 0.0722 0.2946 0.0
C690 C 0.90274 0.03381 0.3061 0.0
C691 C 0.85644 0.0111 0.26452 0.0
O692 O 0.85144 0.02198 0.27781 0.0
O693 O 0.87256 0.01358 0.25732 0.0
O694 O 0.84754 0.05832 0.30498 0.0
O695 O 0.86275 0.07082 0.28159 0.0
O696 O 0.25632 0.18532 0.49242 0.0
Cd697 Cd 0.2479 0.1692 0.51414 0.0
Cd698 Cd 0.27028 0.14473 0.49368 0.0
O699 O 0.27503 0.16701 0.47697 0.0
O700 O 0.2337 0.18712 0.52958 0.0
O701 O 0.25867 0.1748 0.54003 0.0
C702 C 0.24538 0.18578 0.5429 0.0
C703 C 0.29531 0.12934 0.50469 0.0
C704 C 0.26729 0.18233 0.4789 0.0
C705 C 0.22958 0.13231 0.4987 0.0
O706 O 0.24499 0.12905 0.49087 0.0
O707 O 0.2282 0.1471 0.50893 0.0
O708 O 0.28966 0.12685 0.48769 0.0
O709 O 0.28702 0.1411 0.51546 0.0
O710 O 0.40622 0.5297 0.78993 0.0
Cd711 Cd 0.39205 0.53368 0.76566 0.0
Cd712 Cd 0.36562 0.54619 0.79178 0.0
O713 O 0.38665 0.54153 0.81025 0.0
O714 O 0.41088 0.52847 0.74606 0.0
O715 O 0.39924 0.5559 0.75047 0.0
C716 C 0.41033 0.54539 0.74135 0.0
C717 C 0.34998 0.57354 0.79643 0.0
C718 C 0.40187 0.53406 0.80662 0.0
C719 C 0.35402 0.51252 0.76632 0.0
O720 O 0.34994 0.52315 0.78018 0.0
O721 O 0.3697 0.51496 0.75824 0.0
O722 O 0.34731 0.55985 0.80709 0.0
O723 O 0.36183 0.57185 0.78305 0.0
O724 O 0.74608 0.37863 0.51432 0.0
Cd725 Cd 0.75794 0.39299 0.5376 0.0
Cd726 Cd 0.73502 0.42117 0.52403 0.0
O727 O 0.72763 0.39948 0.50483 0.0
O728 O 0.77161 0.37344 0.54918 0.0
O729 O 0.74855 0.38714 0.56329 0.0
C730 C 0.76095 0.37502 0.56346 0.0
C731 C 0.71131 0.44035 0.53379 0.0
C732 C 0.73403 0.38349 0.50295 0.0
C733 C 0.77724 0.42958 0.52671 0.0
O734 O 0.76135 0.43456 0.52193 0.0
O735 O 0.77868 0.41394 0.5337 0.0
O736 O 0.71827 0.44074 0.51736 0.0
O737 O 0.7177 0.42883 0.54486 0.0
O738 O 0.65452 0.04084 0.78117 0.0
Cd739 Cd 0.63829 0.01746 0.78848 0.0
Cd740 Cd 0.61274 0.03322 0.76423 0.0
O741 O 0.63575 0.05166 0.76073 0.0
O742 O 0.65632 0.00363 0.80241 0.0
O743 O 0.64296 0.99224 0.77618 0.0
C744 C 0.65444 0.99037 0.78965 0.0
C745 C 0.59458 0.02391 0.73784 0.0
C746 C 0.65126 0.05271 0.76943 0.0
C747 C 0.60173 0.02913 0.80452 0.0
O748 O 0.59814 0.03526 0.78884 0.0
O749 O 0.61661 0.02098 0.807 0.0
O750 O 0.59448 0.04045 0.74559 0.0
O751 O 0.60526 0.01249 0.74498 0.0
O752 O 0.98587 0.29196 0.92483 0.0
Cd753 Cd 0.99011 0.26774 0.9091 0.0
Cd754 Cd 0.0098 0.2929 0.88697 0.0
O755 O 0.00426 0.31123 0.90904 0.0
O756 O 0.9846 0.247 0.92589 0.0
O757 O 0.01269 0.25363 0.91421 0.0
C758 C 1.00198 0.24351 0.92468 0.0
C759 C 0.03859 0.29762 0.87175 0.0
C760 C 0.99343 0.30822 0.92268 0.0
C761 C 0.97482 0.27089 0.87105 0.0
O762 O 0.98784 0.28366 0.86943 0.0
O763 O 0.97353 0.26188 0.8857 0.0
O764 O 0.02548 0.30874 0.87035 0.0
O765 O 0.03563 0.28383 0.88231 0.0
O766 O 0.48596 0.79181 0.42446 0.0
Cd767 Cd 0.48988 0.76722 0.40921 0.0
Cd768 Cd 0.50955 0.7917 0.38631 0.0
O769 O 0.50416 0.81059 0.40796 0.0
O770 O 0.48433 0.74691 0.42648 0.0
O771 O 0.51235 0.75301 0.41445 0.0
C772 C 0.50164 0.74321 0.4252 0.0
C773 C 0.53832 0.79603 0.371 0.0
C774 C 0.49352 0.80797 0.42182 0.0
C775 C 0.47438 0.76949 0.37108 0.0
O776 O 0.48751 0.78206 0.36903 0.0
O777 O 0.47308 0.76096 0.38602 0.0
O778 O 0.52517 0.80704 0.36921 0.0
O779 O 0.5354 0.78258 0.38197 0.0
O780 O 0.98703 0.7796 0.67442 0.0
Cd781 Cd 0.00943 0.77162 0.65852 0.0
Cd782 Cd 0.99107 0.79448 0.63309 0.0
O783 O 0.97378 0.79808 0.65573 0.0
O784 O 0.0228 0.75654 0.67591 0.0
O785 O 0.03584 0.78229 0.66488 0.0
C786 C 0.03712 0.76834 0.67516 0.0
C787 C 1.00047 0.82055 0.6165 0.0
C788 C 0.97431 0.7904 0.67113 0.0
C789 C 0.99532 0.75408 0.62122 0.0
O790 O 0.98851 0.76932 0.61776 0.0
O791 O 0.0044 0.75266 0.63615 0.0
O792 O 0.98362 0.81294 0.61541 0.0
O793 O 0.01209 0.81352 0.62736 0.0
O794 O 0.48868 0.28082 0.17294 0.0
Cd795 Cd 0.51085 0.27154 0.15761 0.0
Cd796 Cd 0.4928 0.29317 0.13078 0.0
O797 O 0.47485 0.29739 0.15284 0.0
O798 O 0.52367 0.2576 0.17638 0.0
O799 O 0.53758 0.28175 0.16319 0.0
C800 C 0.53833 0.2688 0.17476 0.0
C801 C 0.50237 0.31874 0.11357 0.0
C802 C 0.47563 0.29092 0.16884 0.0
C803 C 0.49702 0.25225 0.12098 0.0
O804 O 0.49099 0.26749 0.11633 0.0
O805 O 0.50529 0.25132 0.13646 0.0
O806 O 0.48565 0.31086 0.11219 0.0
O807 O 0.51378 0.31223 0.12503 0.0
H808 H 0.22263 0.79344 0.91716 0.0
H809 H 0.2123 0.89118 0.97372 0.0
H810 H 0.19683 0.83969 0.89478 0.0
H811 H 0.24335 0.84727 0.99398 0.0
H812 H 0.20435 0.87151 0.94572 0.0
H813 H 0.22855 0.81212 0.94621 0.0
C814 C 0.21826 0.80754 0.9183 0.0
C815 C 0.20926 0.81499 0.90341 0.0
C816 C 0.21285 0.86615 0.95632 0.0
C817 C 0.21579 0.8364 0.93681 0.0
C818 C 0.21736 0.87736 0.97236 0.0
C819 C 0.2286 0.87093 0.98624 0.0
C820 C 0.21958 0.84833 0.95409 0.0
C821 C 0.23471 0.85287 0.98365 0.0
C822 C 0.22155 0.81816 0.93495 0.0
C823 C 0.20361 0.83324 0.9059 0.0
N824 N 0.23017 0.84224 0.96788 0.0
N825 N 0.207 0.8433 0.92223 0.0
H826 H 0.01986 0.57185 0.37993 0.0
H827 H 0.10483 0.51534 0.34069 0.0
H828 H 0.04831 0.53396 0.41232 0.0
H829 H 0.07057 0.54691 0.30674 0.0
H830 H 0.08441 0.52181 0.36711 0.0
H831 H 0.03852 0.56287 0.353 0.0
C832 C 0.03007 0.56164 0.38137 0.0
C833 C 0.03261 0.55372 0.39842 0.0
C834 C 0.08132 0.52722 0.35384 0.0
C835 C 0.05402 0.5433 0.3676 0.0
C836 C 0.09298 0.52355 0.33874 0.0
C837 C 0.08949 0.53065 0.32145 0.0
C838 C 0.06612 0.53819 0.35168 0.0
C839 C 0.07387 0.54116 0.31978 0.0
C840 C 0.04064 0.55643 0.36596 0.0
C841 C 0.04582 0.54033 0.39941 0.0
N842 N 0.06286 0.54469 0.33471 0.0
N843 N 0.05613 0.53563 0.38425 0.0
H844 H 0.78711 0.73661 0.87685 0.0
H845 H 0.75936 0.7179 0.98194 0.0
H846 H 0.76516 0.77758 0.91532 0.0
H847 H 0.78456 0.6773 0.94544 0.0
H848 H 0.76267 0.74022 0.95786 0.0
H849 H 0.78758 0.71504 0.90185 0.0
C850 C 0.78253 0.74114 0.89057 0.0
C851 C 0.77595 0.75893 0.89392 0.0
C852 C 0.76759 0.72648 0.95511 0.0
C853 C 0.7763 0.73422 0.92256 0.0
C854 C 0.76571 0.71369 0.96889 0.0
C855 C 0.7716 0.69561 0.96571 0.0
C856 C 0.77532 0.72122 0.93788 0.0
C857 C 0.7798 0.69106 0.94851 0.0
C858 C 0.78272 0.72877 0.90482 0.0
C859 C 0.77 0.76391 0.91196 0.0
N860 N 0.7813 0.70373 0.93519 0.0
N861 N 0.77026 0.75163 0.92553 0.0
H862 H 0.97918 0.98094 0.37536 0.0
H863 H 0.89887 0.04361 0.34322 0.0
H864 H 0.9545 0.02147 0.41228 0.0
H865 H 0.93388 0.01388 0.30486 0.0
H866 H 0.91787 0.03457 0.36897 0.0
H867 H 0.96122 0.99145 0.34959 0.0
C868 C 0.96992 0.99201 0.37804 0.0
C869 C 0.96831 1.00032 0.39599 0.0
C870 C 0.92144 0.03013 0.3549 0.0
C871 C 0.94774 0.01247 0.36656 0.0
C872 C 0.91059 0.03527 0.34019 0.0
C873 C 0.91475 0.02949 0.32182 0.0
C874 C 0.93642 0.01893 0.35126 0.0
C875 C 0.93014 0.0187 0.31876 0.0
C876 C 0.95977 0.99809 0.36332 0.0
C877 C 0.95627 0.01478 0.39863 0.0
N878 N 0.94031 0.01368 0.33332 0.0
N879 N 0.94637 0.02032 0.3841 0.0
H880 H 0.21471 0.26784 0.62714 0.0
H881 H 0.26315 0.18221 0.57626 0.0
H882 H 0.24155 0.22714 0.65738 0.0
H883 H 0.22302 0.21426 0.55009 0.0
H884 H 0.2587 0.20042 0.6056 0.0
H885 H 0.22118 0.25039 0.59813 0.0
C886 C 0.22211 0.2553 0.62766 0.0
C887 C 0.22759 0.24894 0.6447 0.0
C888 C 0.25091 0.20342 0.5934 0.0
C889 C 0.23496 0.22878 0.6115 0.0
C890 C 0.25348 0.19309 0.57666 0.0
C891 C 0.2434 0.19668 0.56073 0.0
C892 C 0.23836 0.21756 0.59408 0.0
C893 C 0.23102 0.21093 0.56204 0.0
C894 C 0.22569 0.24527 0.6111 0.0
C895 C 0.23693 0.23244 0.64454 0.0
N896 N 0.2289 0.22085 0.57837 0.0
N897 N 0.24036 0.22293 0.62818 0.0
H898 H 0.47012 0.61168 0.66003 0.0
H899 H 0.4337 0.52569 0.71936 0.0
H900 H 0.48562 0.55525 0.64953 0.0
H901 H 0.41411 0.58073 0.72835 0.0
H902 H 0.45341 0.53683 0.69426 0.0
H903 H 0.45008 0.60115 0.68544 0.0
C904 C 0.46929 0.59708 0.663 0.0
C905 C 0.47965 0.58435 0.65259 0.0
C906 C 0.44481 0.54652 0.70167 0.0
C907 C 0.45684 0.57226 0.6818 0.0
C908 C 0.43352 0.54015 0.71606 0.0
C909 C 0.4222 0.55229 0.726 0.0
C910 C 0.44489 0.56521 0.69712 0.0
C911 C 0.4226 0.57088 0.72104 0.0
C912 C 0.4579 0.5911 0.67758 0.0
C913 C 0.47818 0.56565 0.65731 0.0
N914 N 0.43379 0.5768 0.70694 0.0
N915 N 0.46701 0.56021 0.67151 0.0
H916 H 0.75037 0.31828 0.66685 0.0
H917 H 0.78442 0.34716 0.56607 0.0
H918 H 0.78451 0.28532 0.63058 0.0
H919 H 0.74165 0.37497 0.59653 0.0
H920 H 0.7867 0.32626 0.59117 0.0
H921 H 0.74906 0.34098 0.64285 0.0
C922 C 0.75767 0.31588 0.65389 0.0
C923 C 0.76749 0.29983 0.65067 0.0
C924 C 0.77682 0.33693 0.59242 0.0
C925 C 0.76604 0.32568 0.6232 0.0
C926 C 0.77553 0.34893 0.57808 0.0
C927 C 0.76276 0.36283 0.57914 0.0
C928 C 0.76532 0.33879 0.60807 0.0
C929 C 0.75164 0.36442 0.59511 0.0
C930 C 0.75683 0.32877 0.64017 0.0
C931 C 0.77656 0.29734 0.63357 0.0
N932 N 0.75317 0.35252 0.60897 0.0
N933 N 0.77564 0.31012 0.62053 0.0
H934 H 0.52998 0.9635 0.64877 0.0
H935 H 0.57284 0.04593 0.71882 0.0
H936 H 0.51981 0.02146 0.64461 0.0
H937 H 0.58875 0.98933 0.71959 0.0
H938 H 0.55244 0.03679 0.69233 0.0
H939 H 0.55061 0.97227 0.67534 0.0
C940 C 0.53212 0.97808 0.65338 0.0
C941 C 0.52313 0.99176 0.64435 0.0
C942 C 0.5604 0.02634 0.69824 0.0
C943 C 0.54662 1.00185 0.67495 0.0
C944 C 0.57207 0.03155 0.7134 0.0
C945 C 0.58255 0.01837 0.72146 0.0
C946 C 0.55906 0.00777 0.69104 0.0
C947 C 0.58096 0.99996 0.7138 0.0
C948 C 0.54385 0.98305 0.66861 0.0
C949 C 0.5262 0.01038 0.65122 0.0
N950 N 0.56939 0.99518 0.69903 0.0
N951 N 0.53768 0.01486 0.66606 0.0
H952 H 0.87775 0.2326 0.80288 0.0
H953 H 0.97234 0.28919 0.83908 0.0
H954 H 0.89985 0.28453 0.78152 0.0
H955 H 0.9446 0.24482 0.86892 0.0
H956 H 0.94768 0.28505 0.81567 0.0
H957 H 0.9036 0.23465 0.82527 0.0
C958 C 0.88796 0.24446 0.80289 0.0
C959 C 0.88652 0.25843 0.79023 0.0
C960 C 0.94698 0.27617 0.8273 0.0
C961 C 0.91635 0.26065 0.81566 0.0
C962 C 0.96113 0.27847 0.84069 0.0
C963 C 0.96053 0.2674 0.85611 0.0
C964 C 0.93208 0.26264 0.82922 0.0
C965 C 0.94561 0.25372 0.85732 0.0
C966 C 0.90278 0.24555 0.81563 0.0
C967 C 0.90045 0.27326 0.79074 0.0
N968 N 0.93194 0.25176 0.84408 0.0
N969 N 0.91472 0.27396 0.80322 0.0
H970 H 0.43685 0.88455 0.49514 0.0
H971 H 0.51034 0.84347 0.42337 0.0
H972 H 0.48777 0.91539 0.47945 0.0
H973 H 0.46663 0.80924 0.44883 0.0
H974 H 0.50165 0.87027 0.44292 0.0
H975 H 0.44669 0.85713 0.47714 0.0
C976 C 0.45007 0.88556 0.48787 0.0
C977 C 0.4615 0.90228 0.48877 0.0
C978 C 0.49403 0.85687 0.44431 0.0
C979 C 0.47287 0.87097 0.46819 0.0
C980 C 0.49897 0.84155 0.43313 0.0
C981 C 0.48918 0.82405 0.43441 0.0
C982 C 0.47905 0.85477 0.45675 0.0
C983 C 0.4746 0.82244 0.44736 0.0
C984 C 0.45574 0.86987 0.4777 0.0
C985 C 0.47861 0.90273 0.47926 0.0
N986 N 0.46989 0.83762 0.45793 0.0
N987 N 0.48372 0.88735 0.46929 0.0
H988 H 0.15104 0.29681 0.82571 0.0
H989 H 0.04599 0.32252 0.84525 0.0
H990 H 0.1189 0.32727 0.78881 0.0
H991 H 0.07088 0.27911 0.87342 0.0
H992 H 0.0741 0.32659 0.82654 0.0
H993 H 0.1232 0.29208 0.84526 0.0
C994 C 0.13813 0.30248 0.82173 0.0
C995 C 0.13725 0.31239 0.80558 0.0
C996 C 0.07345 0.31615 0.8368 0.0
C997 C 0.1055 0.30716 0.82787 0.0
C998 C 0.05741 0.31387 0.84757 0.0
C999 C 0.05604 0.30042 0.86093 0.0
C1000 C 0.08841 0.30504 0.83943 0.0
C1001 C 0.07133 0.28961 0.86325 0.0
C1002 C 0.12226 0.29971 0.83283 0.0
C1003 C 0.12016 0.31935 0.801 0.0
N1004 N 0.08693 0.29219 0.85262 0.0
N1005 N 0.10503 0.31669 0.81213 0.0
H1006 H 0.51167 0.65572 0.50101 0.0
H1007 H 0.53787 0.73323 0.42789 0.0
H1008 H 0.56838 0.67063 0.4842 0.0
H1009 H 0.48195 0.71976 0.44776 0.0
H1010 H 0.54938 0.70964 0.44735 0.0
H1011 H 0.50063 0.67859 0.48077 0.0
C1012 C 0.52185 0.66389 0.49317 0.0
C1013 C 0.54103 0.66127 0.49444 0.0
C1014 C 0.53459 0.71184 0.4474 0.0
C1015 C 0.52838 0.68743 0.4709 0.0
C1016 C 0.528 0.72527 0.43627 0.0
C1017 C 0.50891 0.72852 0.4362 0.0
C1018 C 0.52199 0.70155 0.45852 0.0
C1019 C 0.49678 0.7178 0.44736 0.0
C1020 C 0.5155 0.67689 0.48149 0.0
C1021 C 0.55346 0.67203 0.48356 0.0
N1022 N 0.50352 0.70486 0.45805 0.0
N1023 N 0.54693 0.68465 0.47229 0.0
H1024 H 0.87675 0.8249 0.73194 0.0
H1025 H 0.96971 0.77451 0.70457 0.0
H1026 H 0.89748 0.78025 0.76167 0.0
H1027 H 0.94512 0.81308 0.66975 0.0
H1028 H 0.94455 0.77842 0.72687 0.0
H1029 H 0.90264 0.82239 0.71002 0.0
C1030 C 0.88667 0.81453 0.73385 0.0
C1031 C 0.88488 0.80279 0.74875 0.0
C1032 C 0.94466 0.78606 0.71437 0.0
C1033 C 0.91472 0.80003 0.72381 0.0
C1034 C 0.95908 0.78387 0.70162 0.0
C1035 C 0.95955 0.79342 0.68518 0.0
C1036 C 0.93056 0.79793 0.71076 0.0
C1037 C 0.94533 0.80538 0.68219 0.0
C1038 C 0.90151 0.81318 0.72137 0.0
C1039 C 0.89839 0.78982 0.75063 0.0
N1040 N 0.93141 0.80728 0.69484 0.0
N1041 N 0.91269 0.7888 0.73834 0.0
H1042 H 0.06269 0.9053 0.55588 0.0
H1043 H 0.97833 0.83942 0.59446 0.0
H1044 H 0.00453 0.91016 0.54263 0.0
H1045 H 0.0356 0.83804 0.61264 0.0
H1046 H 0.9879 0.86495 0.57496 0.0
H1047 H 0.05328 0.88034 0.57624 0.0
C1048 C 0.04793 0.90121 0.55731 0.0
C1049 C 0.03439 0.90993 0.54749 0.0
C1050 C 0.99839 0.85913 0.58324 0.0
C1051 C 0.02354 0.88112 0.57068 0.0
C1052 C 0.99293 0.84452 0.59441 0.0
C1053 C 0.00619 0.83654 0.60522 0.0
C1054 C 0.01728 0.86583 0.58276 0.0
C1055 C 0.02491 0.84378 0.60456 0.0
C1056 C 0.04258 0.88688 0.56889 0.0
C1057 C 0.0155 0.90373 0.54968 0.0
N1058 N 0.02991 0.85797 0.59347 0.0
N1059 N 0.01066 0.88974 0.56101 0.0
H1060 H 0.12077 0.72106 0.74042 0.0
H1061 H 0.06925 0.79179 0.67942 0.0
H1062 H 0.14363 0.7772 0.73271 0.0
H1063 H 0.04421 0.73867 0.69515 0.0
H1064 H 0.09734 0.78651 0.69737 0.0
H1065 H 0.09338 0.72697 0.72222 0.0
C1066 C 0.12008 0.73461 0.73479 0.0
C1067 C 0.13458 0.74862 0.73804 0.0
C1068 C 0.08566 0.77605 0.69688 0.0
C1069 C 0.10305 0.75559 0.71724 0.0
C1070 C 0.06965 0.77903 0.68661 0.0
C1071 C 0.05434 0.76566 0.68578 0.0
C1072 C 0.08637 0.75952 0.70625 0.0
C1073 C 0.05563 0.7494 0.6954 0.0
C1074 C 0.10436 0.73803 0.72448 0.0
C1075 C 0.13272 0.76604 0.73066 0.0
N1076 N 0.07133 0.74679 0.70516 0.0
N1077 N 0.11727 0.76902 0.72055 0.0
H1078 H 0.99625 0.64477 0.56452 0.0
H1079 H 0.97283 0.75018 0.59022 0.0
H1080 H 0.95054 0.67075 0.54005 0.0
H1081 H 0.01077 0.72043 0.62199 0.0
H1082 H 0.96697 0.72238 0.56938 0.0
H1083 H 0.0043 0.67364 0.58327 0.0
C1084 C 0.98802 0.65661 0.56297 0.0
C1085 C 0.97266 0.65533 0.55076 0.0
C1086 C 0.97661 0.72196 0.58089 0.0
C1087 C 0.98171 0.68838 0.57225 0.0
C1088 C 0.98001 0.73785 0.59278 0.0
C1089 C 0.99225 0.73764 0.60797 0.0
C1090 C 0.9856 0.70576 0.58411 0.0
C1091 C 1.00114 0.72123 0.61055 0.0
C1092 C 0.99254 0.67305 0.57376 0.0
C1093 C 0.96235 0.67105 0.54946 0.0
N1094 N 0.99763 0.70596 0.59876 0.0
N1095 N 0.96706 0.68691 0.56008 0.0
H1096 H 0.76594 0.92419 0.25154 0.0
H1097 H 0.86307 0.98418 0.23743 0.0
H1098 H 0.81107 0.90539 0.21733 0.0
H1099 H 0.82102 1.00072 0.27666 0.0
H1100 H 0.84297 0.95641 0.22811 0.0
H1101 H 0.78488 0.95323 0.25944 0.0
C1102 C 0.77984 0.92611 0.24573 0.0
C1103 C 0.78689 0.91225 0.23375 0.0
C1104 C 0.8381 0.96613 0.23872 0.0
C1105 C 0.80857 0.94562 0.24257 0.0
C1106 C 0.84956 0.98205 0.24403 0.0
C1107 C 0.84379 0.99481 0.25794 0.0
C1108 C 0.82067 0.96288 0.24733 0.0
C1109 C 0.8261 0.99126 0.26593 0.0
C1110 C 0.7906 0.94276 0.25017 0.0
C1111 C 0.8049 0.91572 0.22641 0.0
N1112 N 0.81519 0.9756 0.26056 0.0
N1113 N 0.81509 0.93201 0.23095 0.0
H1114 H 0.79734 0.17632 0.28529 0.0
H1115 H 0.82594 0.07957 0.32249 0.0
H1116 H 0.77909 0.15482 0.33741 0.0
H1117 H 0.85039 0.10296 0.27354 0.0
H1118 H 0.80782 0.10671 0.32724 0.0
H1119 H 0.81579 0.14916 0.27969 0.0
C1120 C 0.79714 0.16586 0.29551 0.0
C1121 C 0.78672 0.16791 0.3119 0.0
C1122 C 0.81716 0.10598 0.31546 0.0
C1123 C 0.80783 0.13688 0.30561 0.0
C1124 C 0.82753 0.09044 0.31272 0.0
C1125 C 0.83974 0.08896 0.29759 0.0
C1126 C 0.81886 0.12023 0.30294 0.0
C1127 C 0.84117 0.10354 0.28541 0.0
C1128 C 0.80776 0.15043 0.29235 0.0
C1129 C 0.78713 0.154 0.32472 0.0
N1130 N 0.83082 0.11856 0.28833 0.0
N1131 N 0.79746 0.13913 0.3213 0.0
H1132 H 0.39268 0.96551 1.00252 0.0
H1133 H 0.282 0.96421 0.01763 0.0
H1134 H 0.36084 0.01343 0.99668 0.0
H1135 H 0.31479 0.91856 0.03031 0.0
H1136 H 0.31078 0.98256 0.01027 0.0
H1137 H 0.36433 0.94806 0.01278 0.0
C1138 C 0.37972 0.97235 0.00337 0.0
C1139 C 0.37912 0.99095 0.99867 0.0
C1140 C 0.3117 0.96857 0.01477 0.0
C1141 C 0.34663 0.97109 0.0105 0.0
C1142 C 0.29525 0.95806 0.01898 0.0
C1143 C 0.29593 0.93975 0.02453 0.0
C1144 C 0.32899 0.9607 0.01596 0.0
C1145 C 0.31355 0.93259 0.02607 0.0
C1146 C 0.36356 0.96242 0.00934 0.0
C1147 C 0.36199 0.99919 1.00031 0.0
N1148 N 0.32935 0.94303 0.02169 0.0
N1149 N 0.34642 0.98918 0.00598 0.0
H1150 H 0.22975 0.40658 0.31572 0.0
H1151 H 0.15619 0.46146 0.26018 0.0
H1152 H 0.21633 0.39401 0.25781 0.0
H1153 H 0.1758 0.47749 0.3158 0.0
H1154 H 0.17563 0.43477 0.25975 0.0
H1155 H 0.20741 0.43057 0.31674 0.0
C1156 C 0.22195 0.40871 0.30325 0.0
C1157 C 0.22498 0.39824 0.28664 0.0
C1158 C 0.17559 0.4441 0.27206 0.0
C1159 C 0.19945 0.42599 0.28764 0.0
C1160 C 0.16445 0.4593 0.27234 0.0
C1161 C 0.16443 0.47179 0.28801 0.0
C1162 C 0.18668 0.44134 0.28762 0.0
C1163 C 0.17544 0.46831 0.30337 0.0
C1164 C 0.20927 0.42253 0.3038 0.0
C1165 C 0.21464 0.4019 0.27085 0.0
N1166 N 0.18612 0.45348 0.30276 0.0
N1167 N 0.20237 0.41548 0.27173 0.0
H1168 H 0.1475 0.04797 0.45233 0.0
H1169 H 0.19575 0.13237 0.51638 0.0
H1170 H 0.12175 0.07156 0.50145 0.0
H1171 H 0.22547 0.10184 0.47398 0.0
H1172 H 0.16819 0.11082 0.51047 0.0
H1173 H 0.17588 0.06822 0.45932 0.0
C1174 C 0.14782 0.05742 0.46458 0.0
C1175 C 0.13223 0.0581 0.47631 0.0
C1176 C 0.18076 0.10878 0.5025 0.0
C1177 C 0.16464 0.0813 0.4844 0.0
C1178 C 0.19651 0.12112 0.50584 0.0
C1179 C 0.21297 0.11896 0.49563 0.0
C1180 C 0.18137 0.09424 0.48874 0.0
C1181 C 0.21311 0.10405 0.4822 0.0
C1182 C 0.16405 0.0689 0.46862 0.0
C1183 C 0.1335 0.07045 0.49212 0.0
N1184 N 0.19752 0.09233 0.47907 0.0
N1185 N 0.14937 0.08163 0.49564 0.0
H1186 H 0.746 0.13425 0.78011 0.0
H1187 H 0.65029 0.07968 0.74408 0.0
H1188 H 0.71607 0.14886 0.73171 0.0
H1189 H 0.68474 0.06113 0.78751 0.0
H1190 H 0.67362 0.1056 0.73978 0.0
H1191 H 0.72313 0.1079 0.78345 0.0
C1192 C 0.7347 0.13186 0.77008 0.0
C1193 C 0.73307 0.14381 0.75553 0.0
C1194 C 0.67609 0.09582 0.75021 0.0
C1195 C 0.70654 0.11369 0.7595 0.0
C1196 C 0.66276 0.08101 0.75269 0.0
C1197 C 0.66551 0.06818 0.76621 0.0
C1198 C 0.69225 0.0979 0.76139 0.0
C1199 C 0.68198 0.07064 0.77692 0.0
C1200 C 0.72157 0.11683 0.77206 0.0
C1201 C 0.71783 0.14018 0.74325 0.0
N1202 N 0.69467 0.08522 0.77432 0.0
N1203 N 0.70516 0.12546 0.74551 0.0
H1204 H 0.38212 0.08374 0.5689 0.0
H1205 H 0.3122 0.10101 0.48623 0.0
H1206 H 0.37079 0.04488 0.52168 0.0
H1207 H 0.31258 0.13259 0.53895 0.0
H1208 H 0.33595 0.08213 0.49803 0.0
H1209 H 0.3586 0.10325 0.55743 0.0
C1210 C 0.37464 0.0792 0.5562 0.0
C1211 C 0.37855 0.06255 0.54627 0.0
C1212 C 0.33087 0.09319 0.50704 0.0
C1213 C 0.35181 0.08513 0.53288 0.0
C1214 C 0.31734 0.10406 0.50028 0.0
C1215 C 0.31034 0.11843 0.51162 0.0
C1216 C 0.33763 0.09674 0.52527 0.0
C1217 C 0.31755 0.12165 0.52973 0.0
C1218 C 0.36128 0.09044 0.54961 0.0
C1219 C 0.36858 0.05769 0.52969 0.0
N1220 N 0.33082 0.1109 0.53599 0.0
N1221 N 0.35576 0.06892 0.52353 0.0
H1222 H 0.63295 0.50691 0.59506 0.0
H1223 H 0.69384 0.46389 0.51238 0.0
H1224 H 0.62709 0.51929 0.53759 0.0
H1225 H 0.69544 0.4457 0.56829 0.0
H1226 H 0.67023 0.48513 0.52185 0.0
H1227 H 0.65658 0.48532 0.58601 0.0
C1228 C 0.63655 0.50506 0.58053 0.0
C1229 C 0.62793 0.51498 0.56708 0.0
C1230 C 0.67569 0.47649 0.53208 0.0
C1231 C 0.6552 0.49038 0.55666 0.0
C1232 C 0.68921 0.46433 0.52668 0.0
C1233 C 0.69666 0.45296 0.53956 0.0
C1234 C 0.66953 0.47743 0.55056 0.0
C1235 C 0.69006 0.45418 0.55789 0.0
C1236 C 0.65012 0.49277 0.57539 0.0
C1237 C 0.63348 0.51221 0.54851 0.0
N1238 N 0.6769 0.46623 0.56286 0.0
N1239 N 0.64671 0.50019 0.54388 0.0
H1240 H 0.7244 0.29267 0.41832 0.0
H1241 H 0.71023 0.3898 0.47457 0.0
H1242 H 0.69508 0.33698 0.39651 0.0
H1243 H 0.74454 0.34813 0.49428 0.0
H1244 H 0.70243 0.36947 0.44699 0.0
H1245 H 0.73016 0.3118 0.44714 0.0
C1246 C 0.71921 0.30643 0.41954 0.0
C1247 C 0.70926 0.3132 0.40488 0.0
C1248 C 0.71161 0.36474 0.45738 0.0
C1249 C 0.71563 0.33512 0.438 0.0
C1250 C 0.71604 0.37633 0.47318 0.0
C1251 C 0.72815 0.37074 0.48677 0.0
C1252 C 0.7193 0.34737 0.45509 0.0
C1253 C 0.73521 0.35309 0.48416 0.0
C1254 C 0.72242 0.31731 0.43606 0.0
C1255 C 0.7026 0.33103 0.40746 0.0
N1256 N 0.73073 0.34207 0.46862 0.0
N1257 N 0.70593 0.34136 0.42365 0.0
H1258 H 0.54669 0.03242 0.91176 0.0
H1259 H 0.57058 0.04904 0.80528 0.0
H1260 H 0.52156 0.07316 0.8801 0.0
H1261 H 0.60325 0.01631 0.83962 0.0
H1262 H 0.55026 0.05532 0.83167 0.0
H1263 H 0.56526 0.02367 0.88457 0.0
C1264 C 0.54497 0.03942 0.89904 0.0
C1265 C 0.53262 0.0536 0.89821 0.0
C1266 C 0.56184 0.04672 0.83343 0.0
C1267 C 0.55386 0.04372 0.86709 0.0
C1268 C 0.57345 0.04308 0.81833 0.0
C1269 C 0.58874 0.03219 0.82022 0.0
C1270 C 0.56545 0.03938 0.85057 0.0
C1271 C 0.59169 0.02485 0.83752 0.0
C1272 C 0.55566 0.0345 0.88357 0.0
C1273 C 0.5311 0.06233 0.88143 0.0
N1274 N 0.58017 0.0286 0.85203 0.0
N1275 N 0.54158 0.05725 0.86655 0.0
H1276 H 0.30004 0.24554 0.38331 0.0
H1277 H 0.25121 0.21552 0.47789 0.0
H1278 H 0.25324 0.27184 0.40841 0.0
H1279 H 0.28982 0.18172 0.4479 0.0
H1280 H 0.25444 0.23804 0.454 0.0
H1281 H 0.29872 0.22354 0.40799 0.0
C1282 C 0.28945 0.24669 0.39393 0.0
C1283 C 0.27674 0.26066 0.39371 0.0
C1284 C 0.26226 0.22573 0.45263 0.0
C1285 C 0.27538 0.23564 0.42218 0.0
C1286 C 0.26047 0.21284 0.46633 0.0
C1287 C 0.2702 0.19659 0.46491 0.0
C1288 C 0.27392 0.22248 0.43733 0.0
C1289 C 0.28201 0.194 0.44956 0.0
C1290 C 0.28879 0.23417 0.40808 0.0
C1291 C 0.26355 0.26158 0.40809 0.0
N1292 N 0.28351 0.20679 0.43635 0.0
N1293 N 0.26324 0.24928 0.42169 0.0
H1294 H 0.47825 0.47919 0.87424 0.0
H1295 H 0.39971 0.5447 0.8437 0.0
H1296 H 0.45619 0.52124 0.91135 0.0
H1297 H 0.43198 0.5127 0.80464 0.0
H1298 H 0.4191 0.53528 0.86896 0.0
H1299 H 0.45999 0.49001 0.84885 0.0
C1300 C 0.4695 0.49066 0.87705 0.0
C1301 C 0.46871 0.49931 0.89494 0.0
C1302 C 0.42199 0.53042 0.85484 0.0
C1303 C 0.44781 0.51182 0.86594 0.0
C1304 C 0.41092 0.53578 0.84041 0.0
C1305 C 0.41418 0.52947 0.82199 0.0
C1306 C 0.43631 0.51849 0.85089 0.0
C1307 C 0.42894 0.51794 0.81859 0.0
C1308 C 0.45918 0.49692 0.86253 0.0
C1309 C 0.45732 0.51428 0.89774 0.0
N1310 N 0.43935 0.51272 0.8329 0.0
N1311 N 0.44724 0.51999 0.88342 0.0
H1312 H 0.75091 0.74184 0.15368 0.0
H1313 H 0.71451 0.70708 0.05171 0.0
H1314 H 0.69649 0.75128 0.13195 0.0
H1315 H 0.76535 0.68953 0.07515 0.0
H1316 H 0.70883 0.72478 0.08062 0.0
H1317 H 0.75761 0.72418 0.12465 0.0
C1318 C 0.74041 0.74027 0.14279 0.0
C1319 C 0.72308 0.748 0.14528 0.0
C1320 C 0.72123 0.71706 0.07951 0.0
C1321 C 0.73063 0.72779 0.11211 0.0
C1322 C 0.72452 0.70694 0.06295 0.0
C1323 C 0.74044 0.69676 0.06098 0.0
C1324 C 0.73398 0.71715 0.09431 0.0
C1325 C 0.75288 0.69715 0.07608 0.0
C1326 C 0.7442 0.7301 0.12628 0.0
C1327 C 0.70993 0.74536 0.13076 0.0
N1328 N 0.7494 0.70721 0.09212 0.0
N1329 N 0.71399 0.73554 0.11483 0.0
H1330 H 0.97085 0.11144 0.15863 0.0
H1331 H 0.93681 0.02584 0.21951 0.0
H1332 H 0.98788 0.05543 0.14913 0.0
H1333 H 0.91517 0.08011 0.22705 0.0
H1334 H 0.95636 0.03709 0.19434 0.0
H1335 H 0.95104 0.10085 0.18419 0.0
C1336 C 0.9704 0.09691 0.16185 0.0
C1337 C 0.98113 0.08433 0.15168 0.0
C1338 C 0.94735 0.04658 0.20145 0.0
C1339 C 0.95859 0.07217 0.18106 0.0
C1340 C 0.93616 0.04016 0.21588 0.0
C1341 C 0.92429 0.05204 0.22543 0.0
C1342 C 0.94679 0.06509 0.19646 0.0
C1343 C 0.92409 0.07046 0.22005 0.0
C1344 C 0.95914 0.0909 0.17651 0.0
C1345 C 0.98015 0.06573 0.15671 0.0
N1346 N 0.93519 0.07644 0.20592 0.0
N1347 N 0.9691 0.06025 0.17099 0.0
H1348 H 0.23898 0.81153 0.16217 0.0
H1349 H 0.2869 0.85016 0.07045 0.0
H1350 H 0.29234 0.79585 0.14118 0.0
H1351 H 0.23691 0.87146 0.09421 0.0
H1352 H 0.28886 0.83019 0.09639 0.0
H1353 H 0.23764 0.83343 0.13753 0.0
C1354 C 0.25041 0.81268 0.15238 0.0
C1355 C 0.26579 0.80178 0.15374 0.0
C1356 C 0.27748 0.83926 0.09602 0.0
C1357 C 0.26436 0.82688 0.12554 0.0
C1358 C 0.27633 0.85068 0.08116 0.0
C1359 C 0.26167 0.86248 0.0801 0.0
C1360 C 0.26381 0.83948 0.10995 0.0
C1361 C 0.24845 0.86257 0.09446 0.0
C1362 C 0.24968 0.82526 0.13838 0.0
C1363 C 0.28031 0.80407 0.14082 0.0
N1364 N 0.24977 0.85117 0.10876 0.0
N1365 N 0.27918 0.81627 0.12724 0.0
H1366 H 0.03191 0.46411 0.14826 0.0
H1367 H 0.07301 0.54573 0.22016 0.0
H1368 H 0.02049 0.52191 0.14545 0.0
H1369 H 0.08994 0.48942 0.21978 0.0
H1370 H 0.0529 0.53682 0.1934 0.0
H1371 H 0.0524 0.47268 0.17498 0.0
C1372 C 0.03375 0.47862 0.15319 0.0
C1373 C 0.02444 0.49231 0.14451 0.0
C1374 C 0.06102 0.52639 0.19911 0.0
C1375 C 0.04776 0.50217 0.17528 0.0
C1376 C 0.07253 0.53147 0.21443 0.0
C1377 C 0.0832 0.5183 0.22225 0.0
C1378 C 0.06005 0.50796 0.19151 0.0
C1379 C 0.08199 0.50003 0.21418 0.0
C1380 C 0.0454 0.48348 0.16851 0.0
C1381 C 0.02714 0.51082 0.15178 0.0
N1382 N 0.07057 0.49539 0.19927 0.0
N1383 N 0.03854 0.51519 0.1667 0.0
H1384 H 0.40043 0.78363 0.27967 0.0
H1385 H 0.44408 0.74353 0.36975 0.0
H1386 H 0.37764 0.73312 0.30333 0.0
H1387 H 0.47168 0.78704 0.33868 0.0
H1388 H 0.41936 0.73947 0.34604 0.0
H1389 H 0.42639 0.78513 0.30162 0.0
C1390 C 0.40094 0.77271 0.28933 0.0
C1391 C 0.38675 0.75819 0.28954 0.0
C1392 C 0.43091 0.74981 0.34439 0.0
C1393 C 0.41642 0.76008 0.31512 0.0
C1394 C 0.44503 0.75214 0.35791 0.0
C1395 C 0.45997 0.76571 0.35629 0.0
C1396 C 0.43166 0.76124 0.32921 0.0
C1397 C 0.46045 0.77644 0.34061 0.0
C1398 C 0.41576 0.77366 0.30197 0.0
C1399 C 0.38807 0.74473 0.30277 0.0
N1400 N 0.44647 0.77405 0.32779 0.0
N1401 N 0.40259 0.74604 0.31507 0.0
H1402 H 0.98868 0.41626 0.98129 0.0
H1403 H 0.96637 0.30858 0.94956 0.0
H1404 H 0.93764 0.38467 0.99536 0.0
H1405 H 0.00989 0.34389 0.92512 0.0
H1406 H 0.95771 0.33532 0.96928 0.0
H1407 H 0.99864 0.38887 0.9634 0.0
C1408 C 0.97962 0.40352 0.98071 0.0
C1409 C 0.96229 0.40275 0.98981 0.0
C1410 C 0.96919 0.33719 0.95963 0.0
C1411 C 0.97358 0.37136 0.96932 0.0
C1412 C 0.97421 0.32191 0.94842 0.0
C1413 C 0.98885 0.32398 0.93559 0.0
C1414 C 0.97897 0.35466 0.95814 0.0
C1415 C 0.99846 0.34163 0.93474 0.0
C1416 C 0.98526 0.38792 0.97041 0.0
C1417 C 0.95101 0.38593 0.98839 0.0
N1418 N 0.99335 0.35627 0.94584 0.0
N1419 N 0.95687 0.37089 0.97838 0.0
H1420 H 0.6176 0.825 0.28569 0.0
H1421 H 0.57125 0.77894 0.37452 0.0
H1422 H 0.65056 0.80041 0.32655 0.0
H1423 H 0.54513 0.81897 0.34271 0.0
H1424 H 0.59962 0.78347 0.35562 0.0
H1425 H 0.58982 0.81934 0.30472 0.0
C1426 C 0.61895 0.81825 0.29861 0.0
C1427 C 0.63641 0.81314 0.30453 0.0
C1428 C 0.58765 0.79127 0.35287 0.0
C1429 C 0.60464 0.80671 0.3265 0.0
C1430 C 0.57148 0.78867 0.36361 0.0
C1431 C 0.55581 0.79862 0.36022 0.0
C1432 C 0.588 0.80367 0.3385 0.0
C1433 C 0.55687 0.81105 0.34589 0.0
C1434 C 0.60312 0.81515 0.30955 0.0
C1435 C 0.63737 0.80468 0.32155 0.0
N1436 N 0.57262 0.81314 0.33554 0.0
N1437 N 0.62168 0.80166 0.33193 0.0
H1438 H 0.01237 0.15534 0.99962 0.0
H1439 H 0.03832 0.23391 0.92753 0.0
H1440 H 0.06909 0.17099 0.98333 0.0
H1441 H 0.98232 0.21946 0.94668 0.0
H1442 H 0.04994 0.2102 0.94678 0.0
H1443 H 1.00122 0.17824 0.97947 0.0
C1444 C 0.02252 0.16368 0.99191 0.0
C1445 C 0.04174 0.16125 0.99331 0.0
C1446 C 0.03511 0.21221 0.94671 0.0
C1447 C 0.02897 0.18745 0.96987 0.0
C1448 C 0.02846 0.22571 0.9357 0.0
C1449 C 0.00931 0.22872 0.9355 0.0
C1450 C 0.02252 0.20163 0.95759 0.0
C1451 C 0.9972 0.21769 0.94639 0.0
C1452 C 0.01612 0.17669 0.98028 0.0
C1453 C 0.05414 0.17223 0.9826 0.0
N1454 N 0.004 0.20469 0.95698 0.0
N1455 N 0.04756 0.18486 0.97137 0.0
H1456 H 0.37576 0.32381 0.22695 0.0
H1457 H 0.4723 0.27816 0.20375 0.0
H1458 H 0.40021 0.28419 0.26064 0.0
H1459 H 0.44496 0.31146 0.1655 0.0
H1460 H 0.44701 0.28242 0.22576 0.0
H1461 H 0.40171 0.32122 0.20507 0.0
C1462 C 0.38652 0.31453 0.22974 0.0
C1463 C 0.38577 0.30425 0.24575 0.0
C1464 C 0.44652 0.28884 0.21258 0.0
C1465 C 0.41563 0.30141 0.22085 0.0
C1466 C 0.46102 0.28646 0.19998 0.0
C1467 C 0.46077 0.2944 0.18266 0.0
C1468 C 0.43158 0.29929 0.20793 0.0
C1469 C 0.44574 0.30503 0.17865 0.0
C1470 C 0.40138 0.31314 0.21729 0.0
C1471 C 0.4003 0.29265 0.24871 0.0
N1472 N 0.43172 0.30713 0.19117 0.0
N1473 N 0.41457 0.29157 0.23642 0.0
H1474 H 0.56496 0.40317 0.0528 0.0
H1475 H 0.48055 0.33674 0.09045 0.0
H1476 H 0.5069 0.4076 0.03884 0.0
H1477 H 0.53742 0.33658 0.11021 0.0
H1478 H 0.49026 0.36203 0.07071 0.0
H1479 H 0.55547 0.37818 0.07311 0.0
C1480 C 0.55021 0.39897 0.05405 0.0
C1481 C 0.53672 0.40759 0.04406 0.0
C1482 C 0.50063 0.35652 0.07938 0.0
C1483 C 0.52578 0.37875 0.06719 0.0
C1484 C 0.4951 0.34205 0.09068 0.0
C1485 C 0.50819 0.3345 0.10202 0.0
C1486 C 0.51945 0.36352 0.0793 0.0
C1487 C 0.52684 0.34199 0.10172 0.0
C1488 C 0.54481 0.38463 0.0656 0.0
C1489 C 0.51784 0.40125 0.04602 0.0
N1490 N 0.53193 0.35605 0.09049 0.0
N1491 N 0.51295 0.38725 0.05733 0.0
H1492 H 0.65192 0.26659 0.21698 0.0
H1493 H 0.54137 0.24687 0.20395 0.0
H1494 H 0.61583 0.24021 0.25716 0.0
H1495 H 0.57387 0.2857 0.17119 0.0
H1496 H 0.56917 0.24276 0.22224 0.0
H1497 H 0.62421 0.27224 0.19868 0.0
C1498 C 0.63818 0.26198 0.22193 0.0
C1499 C 0.63618 0.25293 0.23864 0.0
C1500 C 0.57027 0.25223 0.2111 0.0
C1501 C 0.60449 0.2593 0.21779 0.0
C1502 C 0.55438 0.25456 0.20058 0.0
C1503 C 0.55528 0.26665 0.18598 0.0
C1504 C 0.58734 0.26191 0.20693 0.0
C1505 C 0.57255 0.27626 0.18235 0.0
C1506 C 0.62238 0.2653 0.21155 0.0
C1507 C 0.61803 0.24741 0.24449 0.0
N1508 N 0.58795 0.27361 0.1927 0.0
N1509 N 0.60294 0.25058 0.23404 0.0
H1510 H 0.48301 0.13785 0.0772 0.0
H1511 H 0.48168 0.24897 0.08593 0.0
H1512 H 0.4656 0.17023 0.03263 0.0
H1513 H 0.50531 0.21667 0.1275 0.0
H1514 H 0.47569 0.22044 0.06613 0.0
H1515 H 0.49117 0.1667 0.09581 0.0
C1516 C 0.48088 0.15105 0.07134 0.0
C1517 C 0.47351 0.15163 0.05337 0.0
C1518 C 0.48226 0.21962 0.07955 0.0
C1519 C 0.48291 0.18477 0.0746 0.0
C1520 C 0.48567 0.23591 0.09089 0.0
C1521 C 0.49396 0.23524 0.10847 0.0
C1522 C 0.48707 0.2025 0.08586 0.0
C1523 C 0.49887 0.21789 0.11409 0.0
C1524 C 0.48564 0.16753 0.08194 0.0
C1525 C 0.47135 0.16915 0.04638 0.0
N1526 N 0.49527 0.20223 0.10287 0.0
N1527 N 0.47592 0.18502 0.05705 0.0
H1528 H 0.3002 0.41459 0.7078 0.0
H1529 H 0.32192 0.49923 0.7834 0.0
H1530 H 0.27426 0.41749 0.76182 0.0
H1531 H 0.35607 0.48929 0.73504 0.0
H1532 H 0.3016 0.47153 0.77387 0.0
H1533 H 0.31824 0.444 0.71593 0.0
C1534 C 0.29832 0.42134 0.7214 0.0
C1535 C 0.28577 0.41338 0.7342 0.0
C1536 C 0.3135 0.47547 0.76532 0.0
C1537 C 0.30623 0.44734 0.74346 0.0
C1538 C 0.32508 0.49133 0.77071 0.0
C1539 C 0.34081 0.49657 0.76006 0.0
C1540 C 0.31759 0.46482 0.7491 0.0
C1541 C 0.34418 0.48575 0.74375 0.0
C1542 C 0.30857 0.43822 0.72598 0.0
C1543 C 0.28362 0.42311 0.75143 0.0
N1544 N 0.3327 0.47039 0.7388 0.0
N1545 N 0.29378 0.43954 0.75557 0.0
H1546 H 0.29594 0.67694 0.78627 0.0
H1547 H 0.32663 0.58168 0.82511 0.0
H1548 H 0.27946 0.65684 0.83948 0.0
H1549 H 0.34912 0.60374 0.77472 0.0
H1550 H 0.30858 0.60888 0.82985 0.0
H1551 H 0.3146 0.64992 0.78091 0.0
C1552 C 0.29618 0.66682 0.79679 0.0
C1553 C 0.28617 0.66922 0.81339 0.0
C1554 C 0.31748 0.60785 0.81776 0.0
C1555 C 0.30753 0.63834 0.80739 0.0
C1556 C 0.32781 0.59228 0.81503 0.0
C1557 C 0.33943 0.5904 0.79948 0.0
C1558 C 0.31863 0.62172 0.80481 0.0
C1559 C 0.34037 0.60463 0.78691 0.0
C1560 C 0.30692 0.65147 0.79377 0.0
C1561 C 0.28715 0.65575 0.8266 0.0
N1562 N 0.33005 0.61968 0.78982 0.0
N1563 N 0.29758 0.64092 0.8233 0.0
H1564 H 0.89121 0.47873 0.51863 0.0
H1565 H 0.77998 0.46148 0.50769 0.0
H1566 H 0.85884 0.50499 0.47849 0.0
H1567 H 0.81346 0.42541 0.5374 0.0
H1568 H 0.80843 0.48021 0.50009 0.0
H1569 H 0.86251 0.46163 0.52875 0.0
C1570 C 0.87804 0.48097 0.51203 0.0
C1571 C 0.87741 0.49323 0.49764 0.0
C1572 C 0.80955 0.46823 0.50832 0.0
C1573 C 0.84457 0.47375 0.50913 0.0
C1574 C 0.79329 0.45755 0.51274 0.0
C1575 C 0.79431 0.44175 0.52313 0.0
C1576 C 0.82699 0.46321 0.51442 0.0
C1577 C 0.812 0.4374 0.52928 0.0
C1578 C 0.8617 0.47115 0.51774 0.0
C1579 C 0.86 0.49549 0.48946 0.0
N1580 N 0.82764 0.44805 0.52481 0.0
N1581 N 0.84428 0.48588 0.49534 0.0
H1582 H 0.71098 0.88867 0.76597 0.0
H1583 H 0.67979 0.98353 0.81615 0.0
H1584 H 0.74028 0.91831 0.81223 0.0
H1585 H 0.6551 0.95997 0.76465 0.0
H1586 H 0.69985 0.95773 0.81644 0.0
H1587 H 0.68831 0.91265 0.76676 0.0
C1588 C 0.71256 0.90014 0.77637 0.0
C1589 C 0.72762 0.90155 0.78898 0.0
C1590 C 0.69003 0.95812 0.80507 0.0
C1591 C 0.7018 0.92901 0.78994 0.0
C1592 C 0.6785 0.97287 0.80491 0.0
C1593 C 0.66578 0.974 0.79029 0.0
C1594 C 0.6889 0.94428 0.79052 0.0
C1595 C 0.66475 0.95969 0.77617 0.0
C1596 C 0.69969 0.91386 0.77674 0.0
C1597 C 0.72907 0.91679 0.80206 0.0
N1598 N 0.67621 0.94543 0.77659 0.0
N1599 N 0.71636 0.92988 0.80219 0.0
H1600 H 0.64949 0.53907 0.96759 0.0
H1601 H 0.69336 0.63799 0.00988 0.0
H1602 H 0.61658 0.58397 0.98719 0.0
H1603 H 0.72639 0.59713 0.98202 0.0
H1604 H 0.66534 0.61717 0.00396 0.0
H1605 H 0.67805 0.55894 0.9751 0.0
C1606 C 0.64828 0.55306 0.97358 0.0
C1607 C 0.63063 0.55991 0.9767 0.0
C1608 C 0.67871 0.61273 0.99915 0.0
C1609 C 0.66321 0.58271 0.98526 0.0
C1610 C 0.69476 0.62461 1.00256 0.0
C1611 C 0.7123 0.61935 0.99639 0.0
C1612 C 0.68014 0.59538 0.98955 0.0
C1613 C 0.71317 0.60181 0.98698 0.0
C1614 C 0.66457 0.56443 0.97776 0.0
C1615 C 0.62989 0.57821 0.98432 0.0
N1616 N 0.69731 0.59045 0.98384 0.0
N1617 N 0.64592 0.58895 0.98835 0.0
H1618 H 0.20807 0.6575 0.24285 0.0
H1619 H 0.18752 0.55716 0.284 0.0
H1620 H 0.24938 0.62891 0.27145 0.0
H1621 H 0.14793 0.58282 0.25031 0.0
H1622 H 0.21026 0.58348 0.2797 0.0
H1623 H 0.18579 0.63038 0.24543 0.0
C1624 C 0.21252 0.64549 0.24956 0.0
C1625 C 0.23064 0.64557 0.25702 0.0
C1626 C 0.19662 0.58334 0.27319 0.0
C1627 C 0.20509 0.61452 0.26021 0.0
C1628 C 0.1836 0.56829 0.27565 0.0
C1629 C 0.16573 0.56776 0.26755 0.0
C1630 C 0.19176 0.59805 0.26261 0.0
C1631 C 0.16151 0.58261 0.25684 0.0
C1632 C 0.19974 0.63004 0.25111 0.0
C1633 C 0.23548 0.62966 0.26579 0.0
N1634 N 0.1744 0.59717 0.25475 0.0
N1635 N 0.22279 0.61484 0.26717 0.0
H1636 H 0.88301 0.55405 0.01813 0.0
H1637 H 0.8079 0.62893 0.04256 0.0
H1638 H 0.87071 0.57363 0.07418 0.0
H1639 H 0.81692 0.6049 0.98739 0.0
H1640 H 0.83202 0.61018 0.05436 0.0
H1641 H 0.85973 0.57367 0.00662 0.0
C1642 C 0.87533 0.56237 0.02806 0.0
C1643 C 0.87883 0.56207 0.04719 0.0
C1644 C 0.82874 0.60906 0.03967 0.0
C1645 C 0.85224 0.58491 0.03401 0.0
C1646 C 0.81501 0.61981 0.03291 0.0
C1647 C 0.81034 0.61848 0.01395 0.0
C1648 C 0.83791 0.59694 0.02737 0.0
C1649 C 0.82 0.60637 1.00211 0.0
C1650 C 0.86211 0.57369 0.02144 0.0
C1651 C 0.86868 0.57352 0.0593 0.0
N1652 N 0.83327 0.59608 0.00901 0.0
N1653 N 0.85585 0.58444 0.05252 0.0
H1654 H 0.13323 0.00627 0.09431 0.0
H1655 H 0.19609 0.96436 0.01263 0.0
H1656 H 0.12902 0.01975 0.03697 0.0
H1657 H 0.19567 0.94483 0.0681 0.0
H1658 H 0.17245 0.98567 0.02185 0.0
H1659 H 0.15691 0.98466 0.08551 0.0
C1660 C 0.1372 0.00466 0.07986 0.0
C1661 C 0.12902 0.01489 0.06637 0.0
C1662 C 0.17747 0.97672 0.03203 0.0
C1663 C 0.15636 0.99027 0.05625 0.0
C1664 C 0.19101 0.96452 0.02678 0.0
C1665 C 0.19789 0.95275 0.03961 0.0
C1666 C 0.17074 0.9773 0.05031 0.0
C1667 C 0.19074 0.95363 0.05774 0.0
C1668 C 0.1508 0.99236 0.07487 0.0
C1669 C 0.13506 0.01242 0.04792 0.0
N1670 N 0.17758 0.96573 0.06257 0.0
N1671 N 0.14831 1.00038 0.04343 0.0
loop_
_geom_bond_atom_site_label_1
_geom_bond_atom_site_label_2
_geom_bond_distance
_geom_bond_site_symmetry_2
_ccdc_geom_bond_type
C0 C1 1.264 . S
C0 C5 1.479 . S
C0 C10 1.465 . S
C1 C0 1.264 . S
C1 C3 1.339 . S
C1 H28 0.931 . S
C2 C3 1.395 . S
C2 C4 1.320 . S
C3 C1 1.339 . S
C3 C2 1.395 . S
C3 H29 0.929 . S
C4 C2 1.320 . S
C4 C5 1.405 . S
C4 H30 0.930 . S
C5 C0 1.479 . S
C5 C4 1.405 . S
C5 H31 0.931 . S
U6 O7 2.454 . S
U6 O8 2.458 . S
U6 C9 2.984 . S
U6 C10 2.847 . S
U6 C23 2.882 . S
U6 O24 2.441 . S
U6 O25 2.420 . S
U6 O26 2.455 . S
U6 O27 2.449 . S
O7 U6 2.454 . S
O7 C9 1.353 . S
O8 U6 2.458 . S
O8 C9 1.286 . S
C9 U6 2.984 . S
C9 O7 1.353 . S
C9 O8 1.286 . S
C9 C11 1.363 . S
C10 C0 1.465 . S
C10 U6 2.847 . S
C10 O24 1.249 . S
C10 O25 1.202 . S
C11 C9 1.363 . S
C11 C13 1.408 . S
C11 C16 1.342 . S
C12 C13 1.310 . S
C12 C15 1.461 . S
C12 H32 0.932 . S
C13 C11 1.408 . S
C13 C12 1.310 . S
C13 H33 0.930 . S
C14 C15 1.474 . S
C14 C16 1.285 . S
C14 H34 0.929 . S
C15 C12 1.461 . S
C15 C14 1.474 . S
C16 C11 1.342 . S
C16 C14 1.285 . S
C16 H35 0.930 . S
C17 C20 1.424 . S
C17 C22 1.245 . S
C17 C23 1.428 . S
C18 C21 1.260 . S
C18 C22 1.477 . S
C18 H36 0.932 . S
C19 C20 1.384 . S
C19 C21 1.479 . S
C19 H37 0.929 . S
C20 C17 1.424 . S
C20 C19 1.384 . S
C20 H38 0.928 . S
C21 C18 1.260 . S
C21 C19 1.479 . S
C22 C17 1.245 . S
C22 C18 1.477 . S
C22 H39 0.932 . S
C23 U6 2.882 . S
C23 C17 1.428 . S
C23 O26 1.301 . S
C23 O27 1.282 . S
O24 U6 2.441 . S
O24 C10 1.249 . S
O25 U6 2.420 . S
O25 C10 1.202 . S
O26 U6 2.455 . S
O26 C23 1.301 . S
O27 U6 2.449 . S
O27 C23 1.282 . S
H28 C1 0.931 . S
H29 C3 0.929 . S
H30 C4 0.930 . S
H31 C5 0.931 . S
H32 C12 0.932 . S
H33 C13 0.930 . S
H34 C14 0.929 . S
H35 C16 0.930 . S
H36 C18 0.932 . S
H37 C19 0.929 . S
H38 C20 0.928 . S
H39 C22 0.932 . S
C40 C41 1.264 . S
C40 C45 1.479 . S
C40 C50 1.465 . S
C41 C40 1.264 . S
C41 C43 1.339 . S
C41 H68 0.931 . S
C42 C43 1.395 . S
C42 C44 1.320 . S
C43 C41 1.339 . S
C43 C42 1.395 . S
C43 H69 0.929 . S
C44 C42 1.320 . S
C44 C45 1.405 . S
C44 H70 0.930 . S
C45 C40 1.479 . S
C45 C44 1.405 . S
C45 H71 0.931 . S
U46 O47 2.454 . S
U46 O48 2.458 . S
U46 C49 2.984 . S
U46 C50 2.847 . S
U46 C63 2.882 . S
U46 O64 2.441 . S
U46 O65 2.420 . S
U46 O66 2.455 . S
U46 O67 2.449 . S
O47 U46 2.454 . S
O47 C49 1.353 . S
O48 U46 2.458 . S
O48 C49 1.286 . S
C49 U46 2.984 . S
C49 O47 1.353 . S
C49 O48 1.286 . S
C49 C51 1.363 . S
C50 C40 1.465 . S
C50 U46 2.847 . S
C50 O64 1.249 . S
C50 O65 1.202 . S
C51 C49 1.363 . S
C51 C53 1.408 . S
C51 C56 1.342 . S
C52 C53 1.310 . S
C52 C55 1.461 . S
C52 H72 0.932 . S
C53 C51 1.408 . S
C53 C52 1.310 . S
C53 H73 0.930 . S
C54 C55 1.474 . S
C54 C56 1.285 . S
C54 H74 0.929 . S
C55 C52 1.461 . S
C55 C54 1.474 . S
C56 C51 1.342 . S
C56 C54 1.285 . S
C56 H75 0.930 . S
C57 C60 1.424 . S
C57 C62 1.245 . S
C57 C63 1.428 . S
C58 C61 1.260 . S
C58 C62 1.477 . S
C58 H76 0.932 . S
C59 C60 1.384 . S
C59 C61 1.479 . S
C59 H77 0.929 . S
C60 C57 1.424 . S
C60 C59 1.384 . S
C60 H78 0.928 . S
C61 C58 1.260 . S
C61 C59 1.479 . S
C62 C57 1.245 . S
C62 C58 1.477 . S
C62 H79 0.932 . S
C63 U46 2.882 . S
C63 C57 1.428 . S
C63 O66 1.301 . S
C63 O67 1.282 . S
O64 U46 2.441 . S
O64 C50 1.249 . S
O65 U46 2.420 . S
O65 C50 1.202 . S
O66 U46 2.455 . S
O66 C63 1.301 . S
O67 U46 2.449 . S
O67 C63 1.282 . S
H68 C41 0.931 . S
H69 C43 0.929 . S
H70 C44 0.930 . S
H71 C45 0.931 . S
H72 C52 0.932 . S
H73 C53 0.930 . S
H74 C54 0.929 . S
H75 C56 0.930 . S
H76 C58 0.932 . S
H77 C59 0.929 . S
H78 C60 0.928 . S
H79 C62 0.932 . S
C80 C81 1.264 . S
C80 C85 1.479 . S
C80 C90 1.465 . S
C81 C80 1.264 . S
C81 C83 1.339 . S
C81 H108 0.931 . S
C82 C83 1.395 . S
C82 C84 1.320 . S
C83 C81 1.339 . S
C83 C82 1.395 . S
C83 H109 0.929 . S
C84 C82 1.320 . S
C84 C85 1.405 . S
C84 H110 0.930 . S
C85 C80 1.479 . S
C85 C84 1.405 . S
C85 H111 0.931 . S
U86 O87 2.454 . S
U86 O88 2.458 . S
U86 C89 2.984 . S
U86 C90 2.847 . S
U86 C103 2.882 . S
U86 O104 2.441 . S
U86 O105 2.420 . S
U86 O106 2.455 . S
U86 O107 2.449 . S
O87 U86 2.454 . S
O87 C89 1.353 . S
O88 U86 2.458 . S
O88 C89 1.286 . S
C89 U86 2.984 . S
C89 O87 1.353 . S
C89 O88 1.286 . S
C89 C91 1.363 . S
C90 C80 1.465 . S
C90 U86 2.847 . S
C90 O104 1.249 . S
C90 O105 1.202 . S
C91 C89 1.363 . S
C91 C93 1.408 . S
C91 C96 1.342 . S
C92 C93 1.310 . S
C92 C95 1.461 . S
C92 H112 0.932 . S
C93 C91 1.408 . S
C93 C92 1.310 . S
C93 H113 0.930 . S
C94 C95 1.474 . S
C94 C96 1.285 . S
C94 H114 0.929 . S
C95 C92 1.461 . S
C95 C94 1.474 . S
C96 C91 1.342 . S
C96 C94 1.285 . S
C96 H115 0.930 . S
C97 C100 1.424 . S
C97 C102 1.245 . S
C97 C103 1.428 . S
C98 C101 1.260 . S
C98 C102 1.477 . S
C98 H116 0.932 . S
C99 C100 1.384 . S
C99 C101 1.479 . S
C99 H117 0.929 . S
C100 C97 1.424 . S
C100 C99 1.384 . S
C100 H118 0.928 . S
C101 C98 1.260 . S
C101 C99 1.479 . S
C102 C97 1.245 . S
C102 C98 1.477 . S
C102 H119 0.932 . S
C103 U86 2.882 . S
C103 C97 1.428 . S
C103 O106 1.301 . S
C103 O107 1.282 . S
O104 U86 2.441 . S
O104 C90 1.249 . S
O105 U86 2.420 . S
O105 C90 1.202 . S
O106 U86 2.455 . S
O106 C103 1.301 . S
O107 U86 2.449 . S
O107 C103 1.282 . S
H108 C81 0.931 . S
H109 C83 0.929 . S
H110 C84 0.930 . S
H111 C85 0.931 . S
H112 C92 0.932 . S
H113 C93 0.930 . S
H114 C94 0.929 . S
H115 C96 0.930 . S
H116 C98 0.932 . S
H117 C99 0.929 . S
H118 C100 0.928 . S
H119 C102 0.932 . S
C120 C121 1.264 . S
C120 C125 1.479 . S
C120 C130 1.465 . S
C121 C120 1.264 . S
C121 C123 1.339 . S
C121 H148 0.931 . S
C122 C123 1.395 . S
C122 C124 1.320 . S
C123 C121 1.339 . S
C123 C122 1.395 . S
C123 H149 0.929 . S
C124 C122 1.320 . S
C124 C125 1.405 . S
C124 H150 0.930 . S
C125 C120 1.479 . S
C125 C124 1.405 . S
C125 H151 0.931 . S
U126 O127 2.454 . S
U126 O128 2.458 . S
U126 C129 2.984 . S
U126 C130 2.847 . S
U126 C143 2.882 . S
U126 O144 2.441 . S
U126 O145 2.420 . S
U126 O146 2.455 . S
U126 O147 2.449 . S
O127 U126 2.454 . S
O127 C129 1.353 . S
O128 U126 2.458 . S
O128 C129 1.286 . S
C129 U126 2.984 . S
C129 O127 1.353 . S
C129 O128 1.286 . S
C129 C131 1.363 . S
C130 C120 1.465 . S
C130 U126 2.847 . S
C130 O144 1.249 . S
C130 O145 1.202 . S
C131 C129 1.363 . S
C131 C133 1.408 . S
C131 C136 1.342 . S
C132 C133 1.310 . S
C132 C135 1.461 . S
C132 H152 0.932 . S
C133 C131 1.408 . S
C133 C132 1.310 . S
C133 H153 0.930 . S
C134 C135 1.474 . S
C134 C136 1.285 . S
C134 H154 0.929 . S
C135 C132 1.461 . S
C135 C134 1.474 . S
C136 C131 1.342 . S
C136 C134 1.285 . S
C136 H155 0.930 . S
C137 C140 1.424 . S
C137 C142 1.245 . S
C137 C143 1.428 . S
C138 C141 1.260 . S
C138 C142 1.477 . S
C138 H156 0.932 . S
C139 C140 1.384 . S
C139 C141 1.479 . S
C139 H157 0.929 . S
C140 C137 1.424 . S
C140 C139 1.384 . S
C140 H158 0.928 . S
C141 C138 1.260 . S
C141 C139 1.479 . S
C142 C137 1.245 . S
C142 C138 1.477 . S
C142 H159 0.932 . S
C143 U126 2.882 . S
C143 C137 1.428 . S
C143 O146 1.301 . S
C143 O147 1.282 . S
O144 U126 2.441 . S
O144 C130 1.249 . S
O145 U126 2.420 . S
O145 C130 1.202 . S
O146 U126 2.455 . S
O146 C143 1.301 . S
O147 U126 2.449 . S
O147 C143 1.282 . S
H148 C121 0.931 . S
H149 C123 0.929 . S
H150 C124 0.930 . S
H151 C125 0.931 . S
H152 C132 0.932 . S
H153 C133 0.930 . S
H154 C134 0.929 . S
H155 C136 0.930 . S
H156 C138 0.932 . S
H157 C139 0.929 . S
H158 C140 0.928 . S
H159 C142 0.932 . S
C160 C161 1.264 . S
C160 C165 1.479 . S
C160 C170 1.465 . S
C161 C160 1.264 . S
C161 C163 1.339 . S
C161 H188 0.931 . S
C162 C163 1.395 . S
C162 C164 1.320 . S
C163 C161 1.339 . S
C163 C162 1.395 . S
C163 H189 0.929 . S
C164 C162 1.320 . S
C164 C165 1.405 . S
C164 H190 0.930 . S
C165 C160 1.479 . S
C165 C164 1.405 . S
C165 H191 0.931 . S
U166 O167 2.454 . S
U166 O168 2.458 . S
U166 C169 2.984 . S
U166 C170 2.847 . S
U166 C183 2.882 . S
U166 O184 2.441 . S
U166 O185 2.420 . S
U166 O186 2.455 . S
U166 O187 2.449 . S
O167 U166 2.454 . S
O167 C169 1.353 . S
O168 U166 2.458 . S
O168 C169 1.286 . S
C169 U166 2.984 . S
C169 O167 1.353 . S
C169 O168 1.286 . S
C169 C171 1.363 . S
C170 C160 1.465 . S
C170 U166 2.847 . S
C170 O184 1.249 . S
C170 O185 1.202 . S
C171 C169 1.363 . S
C171 C173 1.408 . S
C171 C176 1.342 . S
C172 C173 1.310 . S
C172 C175 1.461 . S
C172 H192 0.932 . S
C173 C171 1.408 . S
C173 C172 1.310 . S
C173 H193 0.930 . S
C174 C175 1.474 . S
C174 C176 1.285 . S
C174 H194 0.929 . S
C175 C172 1.461 . S
C175 C174 1.474 . S
C176 C171 1.342 . S
C176 C174 1.285 . S
C176 H195 0.930 . S
C177 C180 1.424 1_565 S
C177 C182 1.245 . S
C177 C183 1.428 . S
C178 C181 1.299 . S
C178 C182 1.449 1_545 S
C178 H196 0.920 1_545 S
C179 C180 1.384 . S
C179 C181 1.479 . S
C179 H197 0.929 . S
C180 C177 1.424 1_545 S
C180 C179 1.384 . S
C180 H198 0.928 . S
C181 C178 1.299 . S
C181 C179 1.479 . S
C182 C177 1.245 . S
C182 C178 1.449 1_565 S
C182 H199 0.932 . S
C183 U166 2.882 . S
C183 C177 1.428 . S
C183 O186 1.301 . S
C183 O187 1.282 . S
O184 U166 2.441 . S
O184 C170 1.249 . S
O185 U166 2.420 . S
O185 C170 1.202 . S
O186 U166 2.455 . S
O186 C183 1.301 . S
O187 U166 2.449 . S
O187 C183 1.282 . S
H188 C161 0.931 . S
H189 C163 0.929 . S
H190 C164 0.930 . S
H191 C165 0.931 . S
H192 C172 0.932 . S
H193 C173 0.930 . S
H194 C174 0.929 . S
H195 C176 0.930 . S
H196 C178 0.920 1_565 S
H197 C179 0.929 . S
H198 C180 0.928 . S
H199 C182 0.932 . S
C200 C201 1.264 . S
C200 C205 1.479 . S
C200 C210 1.465 . S
C201 C200 1.264 . S
C201 C203 1.339 . S
C201 H228 0.931 . S
C202 C203 1.395 . S
C202 C204 1.320 . S
C203 C201 1.339 . S
C203 C202 1.395 . S
C203 H229 0.929 . S
C204 C202 1.320 . S
C204 C205 1.405 . S
C204 H230 0.930 . S
C205 C200 1.479 . S
C205 C204 1.405 . S
C205 H231 0.931 . S
U206 O207 2.454 . S
U206 O208 2.458 . S
U206 C209 2.984 . S
U206 C210 2.847 . S
U206 C223 2.882 . S
U206 O224 2.441 . S
U206 O225 2.420 . S
U206 O226 2.455 . S
U206 O227 2.449 . S
O207 U206 2.454 . S
O207 C209 1.353 . S
O208 U206 2.458 . S
O208 C209 1.286 . S
C209 U206 2.984 . S
C209 O207 1.353 . S
C209 O208 1.286 . S
C209 C211 1.363 . S
C210 C200 1.465 . S
C210 U206 2.847 . S
C210 O224 1.249 . S
C210 O225 1.202 . S
C211 C209 1.363 . S
C211 C213 1.408 . S
C211 C216 1.342 . S
C212 C213 1.310 . S
C212 C215 1.461 . S
C212 H232 0.932 . S
C213 C211 1.408 . S
C213 C212 1.310 . S
C213 H233 0.930 . S
C214 C215 1.474 . S
C214 C216 1.285 . S
C214 H234 0.929 . S
C215 C212 1.461 . S
C215 C214 1.474 . S
C216 C211 1.342 . S
C216 C214 1.285 . S
C216 H235 0.930 . S
C217 C220 1.424 . S
C217 C222 1.245 . S
C217 C223 1.428 . S
C218 C221 1.260 . S
C218 C222 1.477 . S
C218 H236 0.932 . S
C219 C220 1.384 . S
C219 C221 1.479 . S
C219 H237 0.929 . S
C220 C217 1.424 . S
C220 C219 1.384 . S
C220 H238 0.928 . S
C221 C218 1.260 . S
C221 C219 1.479 . S
C222 C217 1.245 . S
C222 C218 1.477 . S
C222 H239 0.932 . S
C223 U206 2.882 . S
C223 C217 1.428 . S
C223 O226 1.301 . S
C223 O227 1.282 . S
O224 U206 2.441 . S
O224 C210 1.249 . S
O225 U206 2.420 . S
O225 C210 1.202 . S
O226 U206 2.455 . S
O226 C223 1.301 . S
O227 U206 2.449 . S
O227 C223 1.282 . S
H228 C201 0.931 . S
H229 C203 0.929 . S
H230 C204 0.930 . S
H231 C205 0.931 . S
H232 C212 0.932 . S
H233 C213 0.930 . S
H234 C214 0.929 . S
H235 C216 0.930 . S
H236 C218 0.932 . S
H237 C219 0.929 . S
H238 C220 0.928 . S
H239 C222 0.932 . S
C240 C241 1.264 . S
C240 C245 1.479 . S
C240 C250 1.465 . S
C241 C240 1.264 . S
C241 C243 1.339 . S
C241 H268 0.931 . S
C242 C243 1.395 . S
C242 C244 1.320 . S
C243 C241 1.339 . S
C243 C242 1.395 . S
C243 H269 0.929 . S
C244 C242 1.320 . S
C244 C245 1.405 . S
C244 H270 0.930 . S
C245 C240 1.479 . S
C245 C244 1.405 . S
C245 H271 0.931 . S
U246 O247 2.454 . S
U246 O248 2.458 . S
U246 C249 2.984 . S
U246 C250 2.847 . S
U246 C263 2.882 . S
U246 O264 2.441 . S
U246 O265 2.420 . S
U246 O266 2.455 . S
U246 O267 2.449 . S
O247 U246 2.454 . S
O247 C249 1.353 . S
O248 U246 2.458 . S
O248 C249 1.286 . S
C249 U246 2.984 . S
C249 O247 1.353 . S
C249 O248 1.286 . S
C249 C251 1.363 . S
C250 C240 1.465 . S
C250 U246 2.847 . S
C250 O264 1.249 . S
C250 O265 1.202 . S
C251 C249 1.363 . S
C251 C253 1.408 . S
C251 C256 1.342 . S
C252 C253 1.310 . S
C252 C255 1.461 . S
C252 H272 0.932 . S
C253 C251 1.408 . S
C253 C252 1.310 . S
C253 H273 0.930 . S
C254 C255 1.474 . S
C254 C256 1.285 . S
C254 H274 0.929 . S
C255 C252 1.461 . S
C255 C254 1.474 . S
C256 C251 1.342 . S
C256 C254 1.285 . S
C256 H275 0.930 . S
C257 C260 1.424 . S
C257 C262 1.245 . S
C257 C263 1.428 . S
C258 C261 1.260 . S
C258 C262 1.477 . S
C258 H276 0.932 . S
C259 C260 1.384 . S
C259 C261 1.479 . S
C259 H277 0.929 . S
C260 C257 1.424 . S
C260 C259 1.384 . S
C260 H278 0.928 . S
C261 C258 1.260 . S
C261 C259 1.479 . S
C262 C257 1.245 . S
C262 C258 1.477 . S
C262 H279 0.932 . S
C263 U246 2.882 . S
C263 C257 1.428 . S
C263 O266 1.301 . S
C263 O267 1.282 . S
O264 U246 2.441 . S
O264 C250 1.249 . S
O265 U246 2.420 . S
O265 C250 1.202 . S
O266 U246 2.455 . S
O266 C263 1.301 . S
O267 U246 2.449 . S
O267 C263 1.282 . S
H268 C241 0.931 . S
H269 C243 0.929 . S
H270 C244 0.930 . S
H271 C245 0.931 . S
H272 C252 0.932 . S
H273 C253 0.930 . S
H274 C254 0.929 . S
H275 C256 0.930 . S
H276 C258 0.932 . S
H277 C259 0.929 . S
H278 C260 0.928 . S
H279 C262 0.932 . S
C280 C281 1.264 . S
C280 C285 1.479 . S
C280 C290 1.465 . S
C281 C280 1.264 . S
C281 C283 1.339 . S
C281 H308 0.931 . S
C282 C283 1.395 . S
C282 C284 1.320 . S
C283 C281 1.339 . S
C283 C282 1.395 . S
C283 H309 0.929 . S
C284 C282 1.320 . S
C284 C285 1.405 . S
C284 H310 0.930 . S
C285 C280 1.479 . S
C285 C284 1.405 . S
C285 H311 0.931 . S
U286 O287 2.454 . S
U286 O288 2.458 . S
U286 C289 2.984 . S
U286 C290 2.847 . S
U286 C303 2.882 . S
U286 O304 2.441 . S
U286 O305 2.420 . S
U286 O306 2.455 . S
U286 O307 2.449 . S
O287 U286 2.454 . S
O287 C289 1.353 . S
O288 U286 2.458 . S
O288 C289 1.286 . S
C289 U286 2.984 . S
C289 O287 1.353 . S
C289 O288 1.286 . S
C289 C291 1.363 . S
C290 C280 1.465 . S
C290 U286 2.847 . S
C290 O304 1.249 . S
C290 O305 1.202 . S
C291 C289 1.363 . S
C291 C293 1.408 . S
C291 C296 1.342 . S
C292 C293 1.310 . S
C292 C295 1.461 . S
C292 H312 0.932 . S
C293 C291 1.408 . S
C293 C292 1.310 . S
C293 H313 0.930 . S
C294 C295 1.474 . S
C294 C296 1.285 . S
C294 H314 0.929 . S
C295 C292 1.461 . S
C295 C294 1.474 . S
C296 C291 1.342 . S
C296 C294 1.285 . S
C296 H315 0.930 . S
C297 C300 1.424 . S
C297 C302 1.245 . S
C297 C303 1.428 . S
C298 C301 1.260 . S
C298 C302 1.477 . S
C298 H316 0.932 . S
C299 C300 1.384 . S
C299 C301 1.479 . S
C299 H317 0.929 . S
C300 C297 1.424 . S
C300 C299 1.384 . S
C300 H318 0.928 . S
C301 C298 1.260 . S
C301 C299 1.479 . S
C302 C297 1.245 . S
C302 C298 1.477 . S
C302 H319 0.932 . S
C303 U286 2.882 . S
C303 C297 1.428 . S
C303 O306 1.301 . S
C303 O307 1.282 . S
O304 U286 2.441 . S
O304 C290 1.249 . S
O305 U286 2.420 . S
O305 C290 1.202 . S
O306 U286 2.455 . S
O306 C303 1.301 . S
O307 U286 2.449 . S
O307 C303 1.282 . S
H308 C281 0.931 . S
H309 C283 0.929 . S
H310 C284 0.930 . S
H311 C285 0.931 . S
H312 C292 0.932 . S
H313 C293 0.930 . S
H314 C294 0.929 . S
H315 C296 0.930 . S
H316 C298 0.932 . S
H317 C299 0.929 . S
H318 C300 0.928 . S
H319 C302 0.932 . S
C320 C321 1.264 . S
C320 C325 1.479 . S
C320 C330 1.465 . S
C321 C320 1.264 . S
C321 C323 1.339 . S
C321 H348 0.931 . S
C322 C323 1.395 . S
C322 C324 1.320 . S
C323 C321 1.339 . S
C323 C322 1.395 . S
C323 H349 0.929 . S
C324 C322 1.320 . S
C324 C325 1.405 . S
C324 H350 0.930 . S
C325 C320 1.479 . S
C325 C324 1.405 . S
C325 H351 0.931 . S
U326 O327 2.454 . S
U326 O328 2.458 . S
U326 C329 2.984 . S
U326 C330 2.847 . S
U326 C343 2.882 . S
U326 O344 2.441 . S
U326 O345 2.420 . S
U326 O346 2.455 . S
U326 O347 2.449 . S
O327 U326 2.454 . S
O327 C329 1.353 . S
O328 U326 2.458 . S
O328 C329 1.286 . S
C329 U326 2.984 . S
C329 O327 1.353 . S
C329 O328 1.286 . S
C329 C331 1.363 . S
C330 C320 1.465 . S
C330 U326 2.847 . S
C330 O344 1.249 . S
C330 O345 1.202 . S
C331 C329 1.363 . S
C331 C333 1.408 . S
C331 C336 1.342 . S
C332 C333 1.310 . S
C332 C335 1.461 . S
C332 H352 0.932 . S
C333 C331 1.408 . S
C333 C332 1.310 . S
C333 H353 0.930 . S
C334 C335 1.474 . S
C334 C336 1.285 . S
C334 H354 0.929 . S
C335 C332 1.461 . S
C335 C334 1.474 . S
C336 C331 1.342 . S
C336 C334 1.285 . S
C336 H355 0.930 . S
C337 C340 1.424 . S
C337 C342 1.245 . S
C337 C343 1.428 . S
C338 C341 1.260 . S
C338 C342 1.477 . S
C338 H356 0.932 . S
C339 C340 1.384 . S
C339 C341 1.479 . S
C339 H357 0.929 . S
C340 C337 1.424 . S
C340 C339 1.384 . S
C340 H358 0.928 . S
C341 C338 1.260 . S
C341 C339 1.479 . S
C342 C337 1.245 . S
C342 C338 1.477 . S
C342 H359 0.932 . S
C343 U326 2.882 . S
C343 C337 1.428 . S
C343 O346 1.301 . S
C343 O347 1.282 . S
O344 U326 2.441 . S
O344 C330 1.249 . S
O345 U326 2.420 . S
O345 C330 1.202 . S
O346 U326 2.455 . S
O346 C343 1.301 . S
O347 U326 2.449 . S
O347 C343 1.282 . S
H348 C321 0.931 . S
H349 C323 0.929 . S
H350 C324 0.930 . S
H351 C325 0.931 . S
H352 C332 0.932 . S
H353 C333 0.930 . S
H354 C334 0.929 . S
H355 C336 0.930 . S
H356 C338 0.932 . S
H357 C339 0.929 . S
H358 C340 0.928 . S
H359 C342 0.932 . S
C360 C361 1.264 . S
C360 C365 1.479 . S
C360 C370 1.465 . S
C361 C360 1.264 . S
C361 C363 1.339 . S
C361 H388 0.931 . S
C362 C363 1.395 . S
C362 C364 1.320 . S
C363 C361 1.339 . S
C363 C362 1.395 . S
C363 H389 0.929 . S
C364 C362 1.320 . S
C364 C365 1.405 . S
C364 H390 0.930 . S
C365 C360 1.479 . S
C365 C364 1.405 . S
C365 H391 0.931 . S
U366 O367 2.454 . S
U366 O368 2.458 . S
U366 C369 2.984 . S
U366 C370 2.847 . S
U366 C383 2.882 . S
U366 O384 2.441 . S
U366 O385 2.420 . S
U366 O386 2.455 . S
U366 O387 2.449 . S
O367 U366 2.454 . S
O367 C369 1.353 . S
O368 U366 2.458 . S
O368 C369 1.286 . S
C369 U366 2.984 . S
C369 O367 1.353 . S
C369 O368 1.286 . S
C369 C371 1.363 . S
C370 C360 1.465 . S
C370 U366 2.847 . S
C370 O384 1.249 . S
C370 O385 1.202 . S
C371 C369 1.363 . S
C371 C373 1.408 . S
C371 C376 1.342 . S
C372 C373 1.310 . S
C372 C375 1.461 . S
C372 H392 0.932 . S
C373 C371 1.408 . S
C373 C372 1.310 . S
C373 H393 0.930 . S
C374 C375 1.474 . S
C374 C376 1.285 . S
C374 H394 0.952 . S
C375 C372 1.461 . S
C375 C374 1.474 . S
C376 C371 1.342 . S
C376 C374 1.285 . S
C376 H395 0.930 . S
C377 C380 1.424 . S
C377 C382 1.245 . S
C377 C383 1.428 . S
C378 C381 1.260 . S
C378 C382 1.477 . S
C378 H396 0.932 . S
C379 C380 1.384 . S
C379 C381 1.479 . S
C379 H397 0.929 . S
C380 C377 1.424 . S
C380 C379 1.384 . S
C380 H398 0.928 . S
C381 C378 1.260 . S
C381 C379 1.479 . S
C382 C377 1.245 . S
C382 C378 1.477 . S
C382 H399 0.932 . S
C383 U366 2.882 . S
C383 C377 1.428 . S
C383 O386 1.301 . S
C383 O387 1.282 . S
O384 U366 2.441 . S
O384 C370 1.249 . S
O385 U366 2.420 . S
O385 C370 1.202 . S
O386 U366 2.455 . S
O386 C383 1.301 . S
O387 U366 2.449 . S
O387 C383 1.282 . S
H388 C361 0.931 . S
H389 C363 0.929 . S
H390 C364 0.930 . S
H391 C365 0.931 . S
H392 C372 0.932 . S
H393 C373 0.930 . S
H394 C374 0.952 . S
H395 C376 0.930 . S
H396 C378 0.932 . S
H397 C379 0.929 . S
H398 C380 0.928 . S
H399 C382 0.932 . S
C400 C401 1.264 . S
C400 C405 1.479 . S
C400 C410 1.465 . S
C401 C400 1.264 . S
C401 C403 1.339 . S
C401 H428 0.931 . S
C402 C403 1.395 . S
C402 C404 1.320 . S
C403 C401 1.339 . S
C403 C402 1.395 . S
C403 H429 0.929 . S
C404 C402 1.320 . S
C404 C405 1.405 . S
C404 H430 0.930 . S
C405 C400 1.479 . S
C405 C404 1.405 . S
C405 H431 0.931 . S
U406 O407 2.454 . S
U406 O408 2.458 . S
U406 C409 2.984 . S
U406 C410 2.847 . S
U406 C423 2.882 . S
U406 O424 2.441 . S
U406 O425 2.420 . S
U406 O426 2.455 . S
U406 O427 2.449 . S
O407 U406 2.454 . S
O407 C409 1.353 . S
O408 U406 2.458 . S
O408 C409 1.286 . S
C409 U406 2.984 . S
C409 O407 1.353 . S
C409 O408 1.286 . S
C409 C411 1.363 . S
C410 C400 1.465 . S
C410 U406 2.847 . S
C410 O424 1.249 . S
C410 O425 1.202 . S
C411 C409 1.363 . S
C411 C413 1.408 . S
C411 C416 1.342 . S
C412 C413 1.310 . S
C412 C415 1.461 . S
C412 H432 0.932 . S
C413 C411 1.408 . S
C413 C412 1.310 . S
C413 H433 0.930 . S
C414 C415 1.474 . S
C414 C416 1.285 . S
C414 H434 0.929 . S
C415 C412 1.461 . S
C415 C414 1.474 . S
C416 C411 1.342 . S
C416 C414 1.285 . S
C416 H435 0.930 . S
C417 C420 1.424 . S
C417 C422 1.245 . S
C417 C423 1.428 . S
C418 C421 1.260 . S
C418 C422 1.477 . S
C418 H436 0.932 . S
C419 C420 1.384 . S
C419 C421 1.479 . S
C419 H437 0.929 . S
C420 C417 1.424 . S
C420 C419 1.384 . S
C420 H438 0.928 . S
C421 C418 1.260 . S
C421 C419 1.479 . S
C422 C417 1.245 . S
C422 C418 1.477 . S
C422 H439 0.932 . S
C423 U406 2.882 . S
C423 C417 1.428 . S
C423 O426 1.301 . S
C423 O427 1.282 . S
O424 U406 2.441 . S
O424 C410 1.249 . S
O425 U406 2.420 . S
O425 C410 1.202 . S
O426 U406 2.455 . S
O426 C423 1.301 . S
O427 U406 2.449 . S
O427 C423 1.282 . S
H428 C401 0.931 . S
H429 C403 0.929 . S
H430 C404 0.930 . S
H431 C405 0.931 . S
H432 C412 0.932 . S
H433 C413 0.930 . S
H434 C414 0.929 . S
H435 C416 0.930 . S
H436 C418 0.932 . S
H437 C419 0.929 . S
H438 C420 0.928 . S
H439 C422 0.932 . S
C440 C441 1.264 . S
C440 C445 1.479 . S
C440 C450 1.465 . S
C441 C440 1.264 . S
C441 C443 1.339 . S
C441 H468 0.931 . S
C442 C443 1.395 . S
C442 C444 1.320 . S
C443 C441 1.339 . S
C443 C442 1.395 . S
C443 H469 0.929 . S
C444 C442 1.320 . S
C444 C445 1.405 . S
C444 H470 0.930 . S
C445 C440 1.479 . S
C445 C444 1.405 . S
C445 H471 0.931 . S
U446 O447 2.454 . S
U446 O448 2.458 . S
U446 C449 2.984 . S
U446 C450 2.847 . S
U446 C463 2.882 . S
U446 O464 2.441 . S
U446 O465 2.420 . S
U446 O466 2.455 . S
U446 O467 2.449 . S
O447 U446 2.454 . S
O447 C449 1.353 . S
O448 U446 2.458 . S
O448 C449 1.286 . S
C449 U446 2.984 . S
C449 O447 1.353 . S
C449 O448 1.286 . S
C449 C451 1.363 . S
C450 C440 1.465 . S
C450 U446 2.847 . S
C450 O464 1.249 . S
C450 O465 1.202 . S
C451 C449 1.363 . S
C451 C453 1.408 . S
C451 C456 1.342 . S
C452 C453 1.310 . S
C452 C455 1.461 . S
C452 H472 0.932 . S
C453 C451 1.408 . S
C453 C452 1.310 . S
C453 H473 0.930 . S
C454 C455 1.474 . S
C454 C456 1.285 . S
C454 H474 0.929 . S
C455 C452 1.461 . S
C455 C454 1.474 . S
C456 C451 1.342 . S
C456 C454 1.285 . S
C456 H475 0.930 . S
C457 C460 1.424 . S
C457 C462 1.245 . S
C457 C463 1.428 . S
C458 C461 1.260 . S
C458 C462 1.477 . S
C458 H476 0.932 . S
C459 C460 1.384 . S
C459 C461 1.479 . S
C459 H477 0.929 . S
C460 C457 1.424 . S
C460 C459 1.384 . S
C460 H478 0.928 . S
C461 C458 1.260 . S
C461 C459 1.479 . S
C462 C457 1.245 . S
C462 C458 1.477 . S
C462 H479 0.932 . S
C463 U446 2.882 . S
C463 C457 1.428 . S
C463 O466 1.301 . S
C463 O467 1.282 . S
O464 U446 2.441 . S
O464 C450 1.249 . S
O465 U446 2.420 . S
O465 C450 1.202 . S
O466 U446 2.455 . S
O466 C463 1.301 . S
O467 U446 2.449 . S
O467 C463 1.282 . S
H468 C441 0.931 . S
H469 C443 0.929 . S
H470 C444 0.930 . S
H471 C445 0.931 . S
H472 C452 0.932 . S
H473 C453 0.930 . S
H474 C454 0.929 . S
H475 C456 0.930 . S
H476 C458 0.932 . S
H477 C459 0.929 . S
H478 C460 0.928 . S
H479 C462 0.932 . S
C480 C481 1.264 . S
C480 C485 1.479 . S
C480 C490 1.465 . S
C481 C480 1.264 . S
C481 C483 1.339 . S
C481 H508 0.931 . S
C482 C483 1.395 . S
C482 C484 1.320 . S
C483 C481 1.339 . S
C483 C482 1.395 . S
C483 H509 0.929 . S
C484 C482 1.320 . S
C484 C485 1.405 . S
C484 H510 0.930 . S
C485 C480 1.479 . S
C485 C484 1.405 . S
C485 H511 0.931 . S
U486 O487 2.454 . S
U486 O488 2.458 . S
U486 C489 2.984 . S
U486 C490 2.847 . S
U486 C503 2.882 . S
U486 O504 2.441 . S
U486 O505 2.420 . S
U486 O506 2.455 . S
U486 O507 2.449 . S
O487 U486 2.454 . S
O487 C489 1.353 . S
O488 U486 2.458 . S
O488 C489 1.286 . S
C489 U486 2.984 . S
C489 O487 1.353 . S
C489 O488 1.286 . S
C489 C491 1.363 . S
C490 C480 1.465 . S
C490 U486 2.847 . S
C490 O504 1.249 . S
C490 O505 1.202 . S
C491 C489 1.363 . S
C491 C493 1.408 . S
C491 C496 1.342 . S
C492 C493 1.310 . S
C492 C495 1.461 . S
C492 H512 0.932 . S
C493 C491 1.408 . S
C493 C492 1.310 . S
C493 H513 0.930 . S
C494 C495 1.474 . S
C494 C496 1.285 . S
C494 H514 0.929 . S
C495 C492 1.461 . S
C495 C494 1.474 . S
C496 C491 1.342 . S
C496 C494 1.285 . S
C496 H515 0.930 . S
C497 C500 1.424 . S
C497 C502 1.245 . S
C497 C503 1.428 . S
C498 C501 1.260 . S
C498 C502 1.477 . S
C498 H516 0.932 . S
C499 C500 1.384 . S
C499 C501 1.479 . S
C499 H517 0.929 . S
C500 C497 1.424 . S
C500 C499 1.384 . S
C500 H518 0.928 . S
C501 C498 1.260 . S
C501 C499 1.479 . S
C502 C497 1.245 . S
C502 C498 1.477 . S
C502 H519 0.932 . S
C503 U486 2.882 . S
C503 C497 1.428 . S
C503 O506 1.301 . S
C503 O507 1.282 . S
O504 U486 2.441 . S
O504 C490 1.249 . S
O505 U486 2.420 . S
O505 C490 1.202 . S
O506 U486 2.455 . S
O506 C503 1.301 . S
O507 U486 2.449 . S
O507 C503 1.282 . S
H508 C481 0.931 . S
H509 C483 0.929 . S
H510 C484 0.930 . S
H511 C485 0.931 . S
H512 C492 0.932 . S
H513 C493 0.930 . S
H514 C494 0.929 . S
H515 C496 0.930 . S
H516 C498 0.932 . S
H517 C499 0.929 . S
H518 C500 0.928 . S
H519 C502 0.932 . S
C520 C521 1.264 . S
C520 C525 1.479 . S
C520 C530 1.465 . S
C521 C520 1.264 . S
C521 C523 1.339 . S
C521 H548 0.931 . S
C522 C523 1.395 . S
C522 C524 1.320 . S
C523 C521 1.339 . S
C523 C522 1.395 . S
C523 H549 0.929 . S
C524 C522 1.320 . S
C524 C525 1.405 . S
C524 H550 0.930 . S
C525 C520 1.479 . S
C525 C524 1.405 . S
C525 H551 0.931 . S
U526 O527 2.454 . S
U526 O528 2.458 . S
U526 C529 2.984 . S
U526 C530 2.847 . S
U526 C543 2.882 . S
U526 O544 2.441 . S
U526 O545 2.420 . S
U526 O546 2.455 . S
U526 O547 2.449 . S
O527 U526 2.454 . S
O527 C529 1.353 . S
O528 U526 2.458 . S
O528 C529 1.286 . S
C529 U526 2.984 . S
C529 O527 1.353 . S
C529 O528 1.286 . S
C529 C531 1.363 . S
C530 C520 1.465 . S
C530 U526 2.847 . S
C530 O544 1.249 . S
C530 O545 1.202 . S
C531 C529 1.363 . S
C531 C533 1.408 . S
C531 C536 1.342 . S
C532 C533 1.310 . S
C532 C535 1.461 . S
C532 H552 0.932 . S
C533 C531 1.408 . S
C533 C532 1.310 . S
C533 H553 0.930 . S
C534 C535 1.474 . S
C534 C536 1.285 . S
C534 H554 0.929 . S
C535 C532 1.461 . S
C535 C534 1.474 . S
C536 C531 1.342 . S
C536 C534 1.285 . S
C536 H555 0.930 . S
C537 C540 1.424 . S
C537 C542 1.245 . S
C537 C543 1.428 . S
C538 C541 1.260 . S
C538 C542 1.477 . S
C538 H556 0.932 . S
C539 C540 1.384 . S
C539 C541 1.479 . S
C539 H557 0.929 . S
C540 C537 1.424 . S
C540 C539 1.384 . S
C540 H558 0.928 . S
C541 C538 1.260 . S
C541 C539 1.479 . S
C542 C537 1.245 . S
C542 C538 1.477 . S
C542 H559 0.932 . S
C543 U526 2.882 . S
C543 C537 1.428 . S
C543 O546 1.301 . S
C543 O547 1.282 . S
O544 U526 2.441 . S
O544 C530 1.249 . S
O545 U526 2.420 . S
O545 C530 1.202 . S
O546 U526 2.455 . S
O546 C543 1.301 . S
O547 U526 2.449 . S
O547 C543 1.282 . S
H548 C521 0.931 . S
H549 C523 0.929 . S
H550 C524 0.930 . S
H551 C525 0.931 . S
H552 C532 0.932 . S
H553 C533 0.930 . S
H554 C534 0.929 . S
H555 C536 0.930 . S
H556 C538 0.932 . S
H557 C539 0.929 . S
H558 C540 0.928 . S
H559 C542 0.932 . S
C560 C561 1.264 . S
C560 C565 1.479 . S
C560 C570 1.465 . S
C561 C560 1.264 . S
C561 C563 1.339 . S
C561 H588 0.931 . S
C562 C563 1.395 . S
C562 C564 1.320 . S
C563 C561 1.339 . S
C563 C562 1.395 . S
C563 H589 0.929 . S
C564 C562 1.320 . S
C564 C565 1.405 . S
C564 H590 0.930 . S
C565 C560 1.479 . S
C565 C564 1.405 . S
C565 H591 0.931 . S
U566 O567 2.454 . S
U566 O568 2.458 . S
U566 C569 2.984 . S
U566 C570 2.847 . S
U566 C583 2.882 . S
U566 O584 2.441 . S
U566 O585 2.420 . S
U566 O586 2.455 . S
U566 O587 2.449 . S
O567 U566 2.454 . S
O567 C569 1.353 . S
O568 U566 2.458 . S
O568 C569 1.286 . S
C569 U566 2.984 . S
C569 O567 1.353 . S
C569 O568 1.286 . S
C569 C571 1.363 . S
C570 C560 1.465 . S
C570 U566 2.847 . S
C570 O584 1.249 . S
C570 O585 1.202 . S
C571 C569 1.363 . S
C571 C573 1.408 . S
C571 C576 1.342 . S
C572 C573 1.310 . S
C572 C575 1.461 . S
C572 H592 0.932 . S
C573 C571 1.408 . S
C573 C572 1.310 . S
C573 H593 0.930 . S
C574 C575 1.474 . S
C574 C576 1.285 . S
C574 H594 0.929 . S
C575 C572 1.461 . S
C575 C574 1.474 . S
C576 C571 1.342 . S
C576 C574 1.285 . S
C576 H595 0.930 . S
C577 C580 1.424 . S
C577 C582 1.245 . S
C577 C583 1.428 . S
C578 C581 1.260 . S
C578 C582 1.477 . S
C578 H596 0.932 . S
C579 C580 1.384 . S
C579 C581 1.479 . S
C579 H597 0.929 . S
C580 C577 1.424 . S
C580 C579 1.384 . S
C580 H598 0.928 . S
C581 C578 1.260 . S
C581 C579 1.479 . S
C582 C577 1.245 . S
C582 C578 1.477 . S
C582 H599 0.932 . S
C583 U566 2.882 . S
C583 C577 1.428 . S
C583 O586 1.301 . S
C583 O587 1.282 . S
O584 U566 2.441 . S
O584 C570 1.249 . S
O585 U566 2.420 . S
O585 C570 1.202 . S
O586 U566 2.455 . S
O586 C583 1.301 . S
O587 U566 2.449 . S
O587 C583 1.282 . S
H588 C561 0.931 . S
H589 C563 0.929 . S
H590 C564 0.930 . S
H591 C565 0.931 . S
H592 C572 0.932 . S
H593 C573 0.930 . S
H594 C574 0.929 . S
H595 C576 0.930 . S
H596 C578 0.932 . S
H597 C579 0.929 . S
H598 C580 0.928 . S
H599 C582 0.932 . S
C600 C601 1.264 . S
C600 C605 1.479 . S
C600 C610 1.465 . S
C601 C600 1.264 . S
C601 C603 1.339 . S
C601 H628 0.931 . S
C602 C603 1.395 . S
C602 C604 1.307 1_556 S
C603 C601 1.339 . S
C603 C602 1.395 . S
C603 H629 0.929 . S
C604 C602 1.307 1_554 S
C604 C605 1.393 1_554 S
C604 H630 0.958 . S
C605 C600 1.479 . S
C605 C604 1.393 1_556 S
C605 H631 0.931 . S
U606 O607 2.454 . S
U606 O608 2.458 . S
U606 C609 2.984 . S
U606 C610 2.847 . S
U606 C623 2.882 . S
U606 O624 2.441 . S
U606 O625 2.420 . S
U606 O626 2.455 . S
U606 O627 2.449 . S
O607 U606 2.454 . S
O607 C609 1.353 . S
O608 U606 2.458 . S
O608 C609 1.286 . S
C609 U606 2.984 . S
C609 O607 1.353 . S
C609 O608 1.286 . S
C609 C611 1.363 . S
C610 C600 1.465 . S
C610 U606 2.847 . S
C610 O624 1.249 . S
C610 O625 1.202 . S
C611 C609 1.363 . S
C611 C613 1.408 . S
C611 C616 1.342 . S
C612 C613 1.310 . S
C612 C615 1.461 . S
C612 H632 0.932 . S
C613 C611 1.408 . S
C613 C612 1.310 . S
C613 H633 0.930 . S
C614 C615 1.474 . S
C614 C616 1.285 . S
C614 H634 0.929 . S
C615 C612 1.461 . S
C615 C614 1.474 . S
C616 C611 1.342 . S
C616 C614 1.285 . S
C616 H635 0.930 . S
C617 C620 1.424 . S
C617 C622 1.245 . S
C617 C623 1.428 . S
C618 C621 1.260 . S
C618 C622 1.477 . S
C618 H636 0.932 . S
C619 C620 1.384 . S
C619 C621 1.479 . S
C619 H637 0.929 . S
C620 C617 1.424 . S
C620 C619 1.384 . S
C620 H638 0.928 . S
C621 C618 1.260 . S
C621 C619 1.479 . S
C622 C617 1.245 . S
C622 C618 1.477 . S
C622 H639 0.932 . S
C623 U606 2.882 . S
C623 C617 1.428 . S
C623 O626 1.301 . S
C623 O627 1.282 . S
O624 U606 2.441 . S
O624 C610 1.249 . S
O625 U606 2.420 . S
O625 C610 1.202 . S
O626 U606 2.455 . S
O626 C623 1.301 . S
O627 U606 2.449 . S
O627 C623 1.282 . S
H628 C601 0.931 . S
H629 C603 0.929 . S
H630 C604 0.958 . S
H631 C605 0.931 . S
H632 C612 0.932 . S
H633 C613 0.930 . S
H634 C614 0.929 . S
H635 C616 0.930 . S
H636 C618 0.932 . S
H637 C619 0.929 . S
H638 C620 0.928 . S
H639 C622 0.932 . S
O640 Cd641 2.223 . S
O640 C648 1.315 . S
Cd641 O640 2.223 . S
Cd641 O644 2.297 . S
Cd641 O645 2.439 . S
Cd641 O651 2.240 . S
Cd642 O643 2.240 . S
Cd642 O650 2.223 . S
Cd642 O652 2.297 . S
Cd642 O653 2.439 . S
O643 Cd642 2.240 . S
O643 C648 1.279 . S
O644 Cd641 2.297 . S
O644 C646 1.247 . S
O645 Cd641 2.439 . S
O645 C646 1.208 . S
C646 O644 1.247 . S
C646 O645 1.208 . S
C647 O652 1.247 . S
C647 O653 1.208 . S
C648 O640 1.315 . S
C648 O643 1.279 . S
C649 O650 1.315 . S
C649 O651 1.279 . S
O650 Cd642 2.223 . S
O650 C649 1.315 . S
O651 Cd641 2.240 . S
O651 C649 1.279 . S
O652 Cd642 2.297 . S
O652 C647 1.247 . S
O653 Cd642 2.439 . S
O653 C647 1.208 . S
O654 Cd655 2.223 . S
O654 C662 1.315 . S
Cd655 O654 2.223 . S
Cd655 O658 2.297 . S
Cd655 O659 2.439 . S
Cd655 O665 2.240 . S
Cd656 O657 2.240 . S
Cd656 O664 2.223 . S
Cd656 O666 2.297 . S
Cd656 O667 2.439 . S
O657 Cd656 2.240 . S
O657 C662 1.279 . S
O658 Cd655 2.297 . S
O658 C660 1.247 . S
O659 Cd655 2.439 . S
O659 C660 1.208 . S
C660 O658 1.247 . S
C660 O659 1.208 . S
C661 O666 1.247 . S
C661 O667 1.208 . S
C662 O654 1.315 . S
C662 O657 1.279 . S
C663 O664 1.315 . S
C663 O665 1.279 . S
O664 Cd656 2.223 . S
O664 C663 1.315 . S
O665 Cd655 2.240 . S
O665 C663 1.279 . S
O666 Cd656 2.297 . S
O666 C661 1.247 . S
O667 Cd656 2.439 . S
O667 C661 1.208 . S
O668 Cd669 2.223 1_556 S
O668 C676 1.315 . S
Cd669 O668 2.223 1_554 S
Cd669 O672 2.297 . S
Cd669 O673 2.439 . S
Cd669 O679 2.240 . S
Cd670 O671 2.240 . S
Cd670 O678 2.223 . S
Cd670 O680 2.297 1_556 S
Cd670 O681 2.439 1_556 S
O671 Cd670 2.240 . S
O671 C676 1.279 . S
O672 Cd669 2.297 . S
O672 C674 1.247 . S
O673 Cd669 2.439 . S
O673 C674 1.208 . S
C674 O672 1.247 . S
C674 O673 1.208 . S
C675 O680 1.247 . S
C675 O681 1.208 . S
C676 O668 1.315 . S
C676 O671 1.279 . S
C677 O678 1.315 . S
C677 O679 1.279 1_556 S
O678 Cd670 2.223 . S
O678 C677 1.315 . S
O679 Cd669 2.240 . S
O679 C677 1.279 1_554 S
O680 Cd670 2.297 1_554 S
O680 C675 1.247 . S
O681 Cd670 2.439 1_554 S
O681 C675 1.208 . S
O682 Cd683 2.223 . S
O682 C690 1.315 . S
Cd683 O682 2.223 . S
Cd683 O686 2.297 . S
Cd683 O687 2.439 . S
Cd683 O693 2.240 . S
Cd684 O685 2.240 . S
Cd684 O692 2.223 . S
Cd684 O694 2.297 . S
Cd684 O695 2.439 . S
O685 Cd684 2.240 . S
O685 C690 1.279 . S
O686 Cd683 2.297 . S
O686 C688 1.247 . S
O687 Cd683 2.439 . S
O687 C688 1.208 . S
C688 O686 1.247 . S
C688 O687 1.208 . S
C689 O694 1.247 . S
C689 O695 1.208 . S
C690 O682 1.315 . S
C690 O685 1.279 . S
C691 O692 1.315 . S
C691 O693 1.279 . S
O692 Cd684 2.223 . S
O692 C691 1.315 . S
O693 Cd683 2.240 . S
O693 C691 1.279 . S
O694 Cd684 2.297 . S
O694 C689 1.247 . S
O695 Cd684 2.439 . S
O695 C689 1.208 . S
O696 Cd697 2.223 . S
O696 C704 1.315 . S
Cd697 O696 2.223 . S
Cd697 O700 2.297 . S
Cd697 O701 2.439 . S
Cd697 O707 2.240 . S
Cd698 O699 2.240 . S
Cd698 O706 2.223 . S
Cd698 O708 2.297 . S
Cd698 O709 2.439 . S
O699 Cd698 2.240 . S
O699 C704 1.279 . S
O700 Cd697 2.297 . S
O700 C702 1.247 . S
O701 Cd697 2.439 . S
O701 C702 1.208 . S
C702 O700 1.247 . S
C702 O701 1.208 . S
C703 O708 1.247 . S
C703 O709 1.208 . S
C704 O696 1.315 . S
C704 O699 1.279 . S
C705 O706 1.315 . S
C705 O707 1.279 . S
O706 Cd698 2.223 . S
O706 C705 1.315 . S
O707 Cd697 2.240 . S
O707 C705 1.279 . S
O708 Cd698 2.297 . S
O708 C703 1.247 . S
O709 Cd698 2.439 . S
O709 C703 1.208 . S
O710 Cd711 2.223 . S
O710 C718 1.315 . S
Cd711 O710 2.223 . S
Cd711 O714 2.297 . S
Cd711 O715 2.439 . S
Cd711 O721 2.240 . S
Cd712 O713 2.240 . S
Cd712 O720 2.223 . S
Cd712 O722 2.297 . S
Cd712 O723 2.439 . S
O713 Cd712 2.240 . S
O713 C718 1.279 . S
O714 Cd711 2.297 . S
O714 C716 1.247 . S
O715 Cd711 2.439 . S
O715 C716 1.208 . S
C716 O714 1.247 . S
C716 O715 1.208 . S
C717 O722 1.247 . S
C717 O723 1.208 . S
C718 O710 1.315 . S
C718 O713 1.279 . S
C719 O720 1.315 . S
C719 O721 1.279 . S
O720 Cd712 2.223 . S
O720 C719 1.315 . S
O721 Cd711 2.240 . S
O721 C719 1.279 . S
O722 Cd712 2.297 . S
O722 C717 1.247 . S
O723 Cd712 2.439 . S
O723 C717 1.208 . S
O724 Cd725 2.223 . S
O724 C732 1.315 . S
Cd725 O724 2.223 . S
Cd725 O728 2.297 . S
Cd725 O729 2.439 . S
Cd725 O735 2.240 . S
Cd726 O727 2.240 . S
Cd726 O734 2.223 . S
Cd726 O736 2.297 . S
Cd726 O737 2.439 . S
O727 Cd726 2.240 . S
O727 C732 1.279 . S
O728 Cd725 2.297 . S
O728 C730 1.247 . S
O729 Cd725 2.439 . S
O729 C730 1.208 . S
C730 O728 1.247 . S
C730 O729 1.208 . S
C731 O736 1.247 . S
C731 O737 1.208 . S
C732 O724 1.315 . S
C732 O727 1.279 . S
C733 O734 1.315 . S
C733 O735 1.279 . S
O734 Cd726 2.223 . S
O734 C733 1.315 . S
O735 Cd725 2.240 . S
O735 C733 1.279 . S
O736 Cd726 2.297 . S
O736 C731 1.247 . S
O737 Cd726 2.439 . S
O737 C731 1.208 . S
O738 Cd739 2.223 1_545 S
O738 C746 1.315 . S
Cd739 O738 2.223 1_565 S
Cd739 O742 2.297 . S
Cd739 O743 2.439 . S
Cd739 O749 2.240 1_565 S
Cd740 O741 2.240 . S
Cd740 O748 2.223 . S
Cd740 O750 2.297 . S
Cd740 O751 2.439 1_545 S
O741 Cd740 2.240 . S
O741 C746 1.279 . S
O742 Cd739 2.297 . S
O742 C744 1.247 . S
O743 Cd739 2.439 . S
O743 C744 1.208 . S
C744 O742 1.247 . S
C744 O743 1.208 . S
C745 O750 1.247 1_565 S
C745 O751 1.208 . S
C746 O738 1.315 . S
C746 O741 1.279 . S
C747 O748 1.315 . S
C747 O749 1.279 . S
O748 Cd740 2.223 . S
O748 C747 1.315 . S
O749 Cd739 2.240 1_545 S
O749 C747 1.279 . S
O750 Cd740 2.297 . S
O750 C745 1.247 1_545 S
O751 Cd740 2.439 1_565 S
O751 C745 1.208 . S
O752 Cd753 2.223 . S
O752 C760 1.315 . S
Cd753 O752 2.223 . S
Cd753 O756 2.297 1_655 S
Cd753 O757 2.439 1_655 S
Cd753 O763 2.240 . S
Cd754 O755 2.240 . S
Cd754 O762 2.223 1_455 S
Cd754 O764 2.297 . S
Cd754 O765 2.439 . S
O755 Cd754 2.240 . S
O755 C760 1.279 1_455 S
O756 Cd753 2.297 1_455 S
O756 C758 1.247 . S
O757 Cd753 2.439 1_455 S
O757 C758 1.208 . S
C758 O756 1.247 . S
C758 O757 1.208 . S
C759 O764 1.247 . S
C759 O765 1.208 . S
C760 O752 1.315 . S
C760 O755 1.279 1_655 S
C761 O762 1.315 . S
C761 O763 1.279 . S
O762 Cd754 2.223 1_655 S
O762 C761 1.315 . S
O763 Cd753 2.240 . S
O763 C761 1.279 . S
O764 Cd754 2.297 . S
O764 C759 1.247 . S
O765 Cd754 2.439 . S
O765 C759 1.208 . S
O766 Cd767 2.223 . S
O766 C774 1.315 . S
Cd767 O766 2.223 . S
Cd767 O770 2.297 . S
Cd767 O771 2.439 . S
Cd767 O777 2.240 . S
Cd768 O769 2.240 . S
Cd768 O776 2.223 . S
Cd768 O778 2.297 . S
Cd768 O779 2.439 . S
O769 Cd768 2.240 . S
O769 C774 1.279 . S
O770 Cd767 2.297 . S
O770 C772 1.247 . S
O771 Cd767 2.439 . S
O771 C772 1.208 . S
C772 O770 1.247 . S
C772 O771 1.208 . S
C773 O778 1.247 . S
C773 O779 1.208 . S
C774 O766 1.315 . S
C774 O769 1.279 . S
C775 O776 1.315 . S
C775 O777 1.279 . S
O776 Cd768 2.223 . S
O776 C775 1.315 . S
O777 Cd767 2.240 . S
O777 C775 1.279 . S
O778 Cd768 2.297 . S
O778 C773 1.247 . S
O779 Cd768 2.439 . S
O779 C773 1.208 . S
O780 Cd781 2.223 1_655 S
O780 C788 1.315 . S
Cd781 O780 2.223 1_455 S
Cd781 O784 2.297 . S
Cd781 O785 2.439 . S
Cd781 O791 2.240 . S
Cd782 O783 2.240 . S
Cd782 O790 2.223 . S
Cd782 O792 2.297 1_655 S
Cd782 O793 2.439 1_655 S
O783 Cd782 2.240 . S
O783 C788 1.279 . S
O784 Cd781 2.297 . S
O784 C786 1.247 . S
O785 Cd781 2.439 . S
O785 C786 1.208 . S
C786 O784 1.247 . S
C786 O785 1.208 . S
C787 O792 1.247 . S
C787 O793 1.208 . S
C788 O780 1.315 . S
C788 O783 1.279 . S
C789 O790 1.315 . S
C789 O791 1.279 1_655 S
O790 Cd782 2.223 . S
O790 C789 1.315 . S
O791 Cd781 2.240 . S
O791 C789 1.279 1_455 S
O792 Cd782 2.297 1_455 S
O792 C787 1.247 . S
O793 Cd782 2.439 1_455 S
O793 C787 1.208 . S
O794 Cd795 2.223 . S
O794 C802 1.315 . S
Cd795 O794 2.223 . S
Cd795 O798 2.297 . S
Cd795 O799 2.439 . S
Cd795 O805 2.240 . S
Cd796 O797 2.240 . S
Cd796 O804 2.223 . S
Cd796 O806 2.297 . S
Cd796 O807 2.439 . S
O797 Cd796 2.240 . S
O797 C802 1.279 . S
O798 Cd795 2.297 . S
O798 C800 1.247 . S
O799 Cd795 2.439 . S
O799 C800 1.208 . S
C800 O798 1.247 . S
C800 O799 1.208 . S
C801 O806 1.247 . S
C801 O807 1.208 . S
C802 O794 1.315 . S
C802 O797 1.279 . S
C803 O804 1.315 . S
C803 O805 1.279 . S
O804 Cd796 2.223 . S
O804 C803 1.315 . S
O805 Cd795 2.240 . S
O805 C803 1.279 . S
O806 Cd796 2.297 . S
O806 C801 1.247 . S
O807 Cd796 2.439 . S
O807 C801 1.208 . S
H808 C814 0.930 . S
H809 C818 0.930 . S
H810 C823 0.929 . S
H811 C821 0.929 . S
H812 C816 0.929 . S
H813 C822 0.929 . S
C814 H808 0.930 . S
C814 C815 1.367 . S
C814 C822 1.378 . S
C815 C814 1.367 . S
C815 C823 1.433 . S
C816 H812 0.929 . S
C816 C818 1.378 . S
C816 C820 1.350 . S
C817 C820 1.463 . S
C817 C822 1.350 . S
C817 N825 1.427 . S
C818 H809 0.930 . S
C818 C816 1.378 . S
C818 C819 1.367 1_556 S
C819 C818 1.367 1_554 S
C819 C821 1.433 . S
C820 C816 1.350 . S
C820 C817 1.463 . S
C820 N824 1.427 . S
C821 H811 0.929 . S
C821 C819 1.433 . S
C821 N824 1.384 1_554 S
C822 H813 0.929 . S
C822 C814 1.378 . S
C822 C817 1.350 . S
C823 H810 0.929 . S
C823 C815 1.433 . S
C823 N825 1.384 . S
N824 C820 1.427 . S
N824 C821 1.384 1_556 S
N825 C817 1.427 . S
N825 C823 1.384 . S
H826 C832 0.937 . S
H827 C836 0.930 . S
H828 C841 0.929 . S
H829 C839 0.929 . S
H830 C834 0.929 . S
H831 C840 0.929 . S
C832 H826 0.937 . S
C832 C833 1.367 1_455 S
C832 C840 1.378 . S
C833 C832 1.367 1_655 S
C833 C841 1.433 . S
C834 H830 0.929 . S
C834 C836 1.378 . S
C834 C838 1.350 . S
C835 C838 1.463 . S
C835 C840 1.350 . S
C835 N843 1.427 . S
C836 H827 0.930 . S
C836 C834 1.378 . S
C836 C837 1.367 . S
C837 C836 1.367 . S
C837 C839 1.433 . S
C838 C834 1.350 . S
C838 C835 1.463 . S
C838 N842 1.427 . S
C839 H829 0.929 . S
C839 C837 1.433 . S
C839 N842 1.384 . S
C840 H831 0.929 . S
C840 C832 1.378 . S
C840 C835 1.350 . S
C841 H828 0.929 . S
C841 C833 1.433 . S
C841 N843 1.384 1_655 S
N842 C838 1.427 . S
N842 C839 1.384 . S
N843 C835 1.427 . S
N843 C841 1.384 1_455 S
H844 C850 0.930 . S
H845 C854 0.930 . S
H846 C859 0.929 . S
H847 C857 0.929 . S
H848 C852 0.929 . S
H849 C858 0.929 . S
C850 H844 0.930 . S
C850 C851 1.367 . S
C850 C858 1.378 . S
C851 C850 1.367 . S
C851 C859 1.433 . S
C852 H848 0.929 . S
C852 C854 1.378 . S
C852 C856 1.350 . S
C853 C856 1.463 . S
C853 C858 1.350 . S
C853 N861 1.427 . S
C854 H845 0.930 . S
C854 C852 1.378 . S
C854 C855 1.367 . S
C855 C854 1.367 . S
C855 C857 1.433 . S
C856 C852 1.350 . S
C856 C853 1.463 . S
C856 N860 1.427 . S
C857 H847 0.929 . S
C857 C855 1.433 . S
C857 N860 1.384 . S
C858 H849 0.929 . S
C858 C850 1.378 . S
C858 C853 1.350 . S
C859 H846 0.929 . S
C859 C851 1.433 . S
C859 N861 1.384 . S
N860 C856 1.427 . S
N860 C857 1.384 . S
N861 C853 1.427 . S
N861 C859 1.384 . S
H862 C868 0.930 . S
H863 C872 0.930 . S
H864 C877 0.929 . S
H865 C875 0.904 1_565 S
H866 C870 0.929 . S
H867 C876 0.929 . S
C868 H862 0.930 . S
C868 C869 1.367 1_655 S
C868 C876 1.378 . S
C869 C868 1.367 1_455 S
C869 C877 1.433 1_565 S
C870 H866 0.929 . S
C870 C872 1.378 . S
C870 C874 1.350 . S
C871 C874 1.463 1_565 S
C871 C876 1.350 . S
C871 N879 1.427 1_565 S
C872 H863 0.930 . S
C872 C870 1.378 . S
C872 C873 1.367 . S
C873 C872 1.367 . S
C873 C875 1.433 . S
C874 C870 1.350 . S
C874 C871 1.463 1_545 S
C874 N878 1.427 1_545 S
C875 H865 0.904 1_545 S
C875 C873 1.433 . S
C875 N878 1.384 1_545 S
C876 H867 0.929 . S
C876 C868 1.378 . S
C876 C871 1.350 . S
C877 H864 0.929 . S
C877 C869 1.433 1_545 S
C877 N879 1.384 1_455 S
N878 C874 1.427 1_565 S
N878 C875 1.384 1_565 S
N879 C871 1.427 1_545 S
N879 C877 1.384 1_655 S
H880 C886 0.930 . S
H881 C890 0.930 . S
H882 C895 0.929 . S
H883 C893 0.929 . S
H884 C888 0.929 . S
H885 C894 0.929 . S
C886 H880 0.930 . S
C886 C887 1.367 . S
C886 C894 1.378 . S
C887 C886 1.367 . S
C887 C895 1.433 . S
C888 H884 0.929 . S
C888 C890 1.378 . S
C888 C892 1.350 . S
C889 C892 1.463 . S
C889 C894 1.350 . S
C889 N897 1.427 . S
C890 H881 0.930 . S
C890 C888 1.378 . S
C890 C891 1.367 . S
C891 C890 1.367 . S
C891 C893 1.433 . S
C892 C888 1.350 . S
C892 C889 1.463 . S
C892 N896 1.427 . S
C893 H883 0.929 . S
C893 C891 1.433 . S
C893 N896 1.384 . S
C894 H885 0.929 . S
C894 C886 1.378 . S
C894 C889 1.350 . S
C895 H882 0.929 . S
C895 C887 1.433 . S
C895 N897 1.384 . S
N896 C892 1.427 . S
N896 C893 1.384 . S
N897 C889 1.427 . S
N897 C895 1.384 . S
H898 C904 0.930 . S
H899 C908 0.930 . S
H900 C913 0.929 . S
H901 C911 0.929 . S
H902 C906 0.929 . S
H903 C912 0.929 . S
C904 H898 0.930 . S
C904 C905 1.367 . S
C904 C912 1.378 . S
C905 C904 1.367 . S
C905 C913 1.433 . S
C906 H902 0.929 . S
C906 C908 1.378 . S
C906 C910 1.350 . S
C907 C910 1.463 . S
C907 C912 1.350 . S
C907 N915 1.427 . S
C908 H899 0.930 . S
C908 C906 1.378 . S
C908 C909 1.367 . S
C909 C908 1.367 . S
C909 C911 1.433 . S
C910 C906 1.350 . S
C910 C907 1.463 . S
C910 N914 1.427 . S
C911 H901 0.929 . S
C911 C909 1.433 . S
C911 N914 1.384 . S
C912 H903 0.929 . S
C912 C904 1.378 . S
C912 C907 1.350 . S
C913 H900 0.929 . S
C913 C905 1.433 . S
C913 N915 1.384 . S
N914 C910 1.427 . S
N914 C911 1.384 . S
N915 C907 1.427 . S
N915 C913 1.384 . S
H916 C922 0.930 . S
H917 C926 0.930 . S
H918 C931 0.929 . S
H919 C929 0.929 . S
H920 C924 0.929 . S
H921 C930 0.929 . S
C922 H916 0.930 . S
C922 C923 1.367 . S
C922 C930 1.378 . S
C923 C922 1.367 . S
C923 C931 1.433 . S
C924 H920 0.929 . S
C924 C926 1.378 . S
C924 C928 1.350 . S
C925 C928 1.463 . S
C925 C930 1.350 . S
C925 N933 1.427 . S
C926 H917 0.930 . S
C926 C924 1.378 . S
C926 C927 1.367 . S
C927 C926 1.367 . S
C927 C929 1.433 . S
C928 C924 1.350 . S
C928 C925 1.463 . S
C928 N932 1.427 . S
C929 H919 0.929 . S
C929 C927 1.433 . S
C929 N932 1.384 . S
C930 H921 0.929 . S
C930 C922 1.378 . S
C930 C925 1.350 . S
C931 H918 0.929 . S
C931 C923 1.433 . S
C931 N933 1.384 . S
N932 C928 1.427 . S
N932 C929 1.384 . S
N933 C925 1.427 . S
N933 C931 1.384 . S
H934 C940 0.930 . S
H935 C944 0.930 1_545 S
H936 C949 0.929 . S
H937 C947 0.929 . S
H938 C942 0.929 . S
H939 C948 0.929 . S
C940 H934 0.930 . S
C940 C941 1.367 . S
C940 C948 1.378 . S
C941 C940 1.367 . S
C941 C949 1.433 . S
C942 H938 0.929 . S
C942 C944 1.378 . S
C942 C946 1.350 . S
C943 C946 1.463 . S
C943 C948 1.350 . S
C943 N951 1.427 . S
C944 H935 0.930 1_565 S
C944 C942 1.378 . S
C944 C945 1.367 . S
C945 C944 1.367 . S
C945 C947 1.433 . S
C946 C942 1.350 . S
C946 C943 1.463 . S
C946 N950 1.427 . S
C947 H937 0.929 . S
C947 C945 1.433 . S
C947 N950 1.384 . S
C948 H939 0.929 . S
C948 C940 1.378 . S
C948 C943 1.350 . S
C949 H936 0.929 . S
C949 C941 1.433 . S
C949 N951 1.384 . S
N950 C946 1.427 . S
N950 C947 1.384 . S
N951 C943 1.427 . S
N951 C949 1.384 . S
H952 C958 0.930 . S
H953 C962 0.930 . S
H954 C967 0.929 . S
H955 C965 0.929 . S
H956 C960 0.929 . S
H957 C966 0.929 . S
C958 H952 0.930 . S
C958 C959 1.367 . S
C958 C966 1.378 . S
C959 C958 1.367 . S
C959 C967 1.433 . S
C960 H956 0.929 . S
C960 C962 1.378 . S
C960 C964 1.350 . S
C961 C964 1.463 . S
C961 C966 1.350 . S
C961 N969 1.427 . S
C962 H953 0.930 . S
C962 C960 1.378 . S
C962 C963 1.367 . S
C963 C962 1.367 . S
C963 C965 1.433 . S
C964 C960 1.350 . S
C964 C961 1.463 . S
C964 N968 1.427 . S
C965 H955 0.929 . S
C965 C963 1.433 . S
C965 N968 1.384 . S
C966 H957 0.929 . S
C966 C958 1.378 . S
C966 C961 1.350 . S
C967 H954 0.929 . S
C967 C959 1.433 . S
C967 N969 1.384 . S
N968 C964 1.427 . S
N968 C965 1.384 . S
N969 C961 1.427 . S
N969 C967 1.384 . S
H970 C976 0.930 . S
H971 C980 0.930 . S
H972 C985 0.929 . S
H973 C983 0.929 . S
H974 C978 0.929 . S
H975 C984 0.929 . S
C976 H970 0.930 . S
C976 C977 1.367 . S
C976 C984 1.378 . S
C977 C976 1.367 . S
C977 C985 1.433 . S
C978 H974 0.929 . S
C978 C980 1.378 . S
C978 C982 1.350 . S
C979 C982 1.463 . S
C979 C984 1.350 . S
C979 N987 1.427 . S
C980 H971 0.930 . S
C980 C978 1.378 . S
C980 C981 1.367 . S
C981 C980 1.367 . S
C981 C983 1.433 . S
C982 C978 1.350 . S
C982 C979 1.463 . S
C982 N986 1.427 . S
C983 H973 0.929 . S
C983 C981 1.433 . S
C983 N986 1.384 . S
C984 H975 0.929 . S
C984 C976 1.378 . S
C984 C979 1.350 . S
C985 H972 0.929 . S
C985 C977 1.433 . S
C985 N987 1.384 . S
N986 C982 1.427 . S
N986 C983 1.384 . S
N987 C979 1.427 . S
N987 C985 1.384 . S
H988 C994 0.930 . S
H989 C998 0.930 . S
H990 C1003 0.929 . S
H991 C1001 0.929 . S
H992 C996 0.929 . S
H993 C1002 0.929 . S
C994 H988 0.930 . S
C994 C995 1.367 . S
C994 C1002 1.378 . S
C995 C994 1.367 . S
C995 C1003 1.433 . S
C996 H992 0.929 . S
C996 C998 1.378 . S
C996 C1000 1.350 . S
C997 C1000 1.463 . S
C997 C1002 1.350 . S
C997 N1005 1.427 . S
C998 H989 0.930 . S
C998 C996 1.378 . S
C998 C999 1.367 . S
C999 C998 1.367 . S
C999 C1001 1.433 . S
C1000 C996 1.350 . S
C1000 C997 1.463 . S
C1000 N1004 1.427 . S
C1001 H991 0.929 . S
C1001 C999 1.433 . S
C1001 N1004 1.384 . S
C1002 H993 0.929 . S
C1002 C994 1.378 . S
C1002 C997 1.350 . S
C1003 H990 0.929 . S
C1003 C995 1.433 . S
C1003 N1005 1.384 . S
N1004 C1000 1.427 . S
N1004 C1001 1.384 . S
N1005 C997 1.427 . S
N1005 C1003 1.384 . S
H1006 C1012 0.930 . S
H1007 C1016 0.930 . S
H1008 C1021 0.929 . S
H1009 C1019 0.929 . S
H1010 C1014 0.929 . S
H1011 C1020 0.929 . S
C1012 H1006 0.930 . S
C1012 C1013 1.367 . S
C1012 C1020 1.378 . S
C1013 C1012 1.367 . S
C1013 C1021 1.433 . S
C1014 H1010 0.929 . S
C1014 C1016 1.378 . S
C1014 C1018 1.350 . S
C1015 C1018 1.463 . S
C1015 C1020 1.350 . S
C1015 N1023 1.427 . S
C1016 H1007 0.930 . S
C1016 C1014 1.378 . S
C1016 C1017 1.367 . S
C1017 C1016 1.367 . S
C1017 C1019 1.433 . S
C1018 C1014 1.350 . S
C1018 C1015 1.463 . S
C1018 N1022 1.427 . S
C1019 H1009 0.929 . S
C1019 C1017 1.433 . S
C1019 N1022 1.384 . S
C1020 H1011 0.929 . S
C1020 C1012 1.378 . S
C1020 C1015 1.350 . S
C1021 H1008 0.929 . S
C1021 C1013 1.433 . S
C1021 N1023 1.384 . S
N1022 C1018 1.427 . S
N1022 C1019 1.384 . S
N1023 C1015 1.427 . S
N1023 C1021 1.384 . S
H1024 C1030 0.930 . S
H1025 C1034 0.930 . S
H1026 C1039 0.929 . S
H1027 C1037 0.929 . S
H1028 C1032 0.929 . S
H1029 C1038 0.929 . S
C1030 H1024 0.930 . S
C1030 C1031 1.367 . S
C1030 C1038 1.378 . S
C1031 C1030 1.367 . S
C1031 C1039 1.433 . S
C1032 H1028 0.929 . S
C1032 C1034 1.378 . S
C1032 C1036 1.350 . S
C1033 C1036 1.463 . S
C1033 C1038 1.350 . S
C1033 N1041 1.427 . S
C1034 H1025 0.930 . S
C1034 C1032 1.378 . S
C1034 C1035 1.367 . S
C1035 C1034 1.367 . S
C1035 C1037 1.433 . S
C1036 C1032 1.350 . S
C1036 C1033 1.463 . S
C1036 N1040 1.427 . S
C1037 H1027 0.929 . S
C1037 C1035 1.433 . S
C1037 N1040 1.384 . S
C1038 H1029 0.929 . S
C1038 C1030 1.378 . S
C1038 C1033 1.350 . S
C1039 H1026 0.929 . S
C1039 C1031 1.433 . S
C1039 N1041 1.384 . S
N1040 C1036 1.427 . S
N1040 C1037 1.384 . S
N1041 C1033 1.427 . S
N1041 C1039 1.384 . S
H1042 C1048 0.930 . S
H1043 C1052 0.930 . S
H1044 C1057 0.929 . S
H1045 C1055 0.929 . S
H1046 C1050 0.929 . S
H1047 C1056 0.929 . S
C1048 H1042 0.930 . S
C1048 C1049 1.367 . S
C1048 C1056 1.378 . S
C1049 C1048 1.367 . S
C1049 C1057 1.433 . S
C1050 H1046 0.929 . S
C1050 C1052 1.378 . S
C1050 C1054 1.350 . S
C1051 C1054 1.463 . S
C1051 C1056 1.350 . S
C1051 N1059 1.427 . S
C1052 H1043 0.930 . S
C1052 C1050 1.378 . S
C1052 C1053 1.367 . S
C1053 C1052 1.367 . S
C1053 C1055 1.433 . S
C1054 C1050 1.350 . S
C1054 C1051 1.463 . S
C1054 N1058 1.427 . S
C1055 H1045 0.929 . S
C1055 C1053 1.433 . S
C1055 N1058 1.384 . S
C1056 H1047 0.929 . S
C1056 C1048 1.378 . S
C1056 C1051 1.350 . S
C1057 H1044 0.929 . S
C1057 C1049 1.433 . S
C1057 N1059 1.384 . S
N1058 C1054 1.427 . S
N1058 C1055 1.384 . S
N1059 C1051 1.427 . S
N1059 C1057 1.384 . S
H1060 C1066 0.930 . S
H1061 C1070 0.930 . S
H1062 C1075 0.929 . S
H1063 C1073 0.929 . S
H1064 C1068 0.929 . S
H1065 C1074 0.929 . S
C1066 H1060 0.930 . S
C1066 C1067 1.367 . S
C1066 C1074 1.378 . S
C1067 C1066 1.367 . S
C1067 C1075 1.433 . S
C1068 H1064 0.929 . S
C1068 C1070 1.378 . S
C1068 C1072 1.350 . S
C1069 C1072 1.463 . S
C1069 C1074 1.350 . S
C1069 N1077 1.427 . S
C1070 H1061 0.930 . S
C1070 C1068 1.378 . S
C1070 C1071 1.367 . S
C1071 C1070 1.367 . S
C1071 C1073 1.433 . S
C1072 C1068 1.350 . S
C1072 C1069 1.463 . S
C1072 N1076 1.427 . S
C1073 H1063 0.929 . S
C1073 C1071 1.433 . S
C1073 N1076 1.384 . S
C1074 H1065 0.929 . S
C1074 C1066 1.378 . S
C1074 C1069 1.350 . S
C1075 H1062 0.929 . S
C1075 C1067 1.433 . S
C1075 N1077 1.384 . S
N1076 C1072 1.427 . S
N1076 C1073 1.384 . S
N1077 C1069 1.427 . S
N1077 C1075 1.384 . S
H1078 C1084 0.930 . S
H1079 C1088 0.930 . S
H1080 C1093 0.929 . S
H1081 C1091 0.929 1_455 S
H1082 C1086 0.929 . S
H1083 C1092 0.929 . S
C1084 H1078 0.930 . S
C1084 C1085 1.367 . S
C1084 C1092 1.378 . S
C1085 C1084 1.367 . S
C1085 C1093 1.433 . S
C1086 H1082 0.929 . S
C1086 C1088 1.378 . S
C1086 C1090 1.350 . S
C1087 C1090 1.463 . S
C1087 C1092 1.350 . S
C1087 N1095 1.427 . S
C1088 H1079 0.930 . S
C1088 C1086 1.378 . S
C1088 C1089 1.367 . S
C1089 C1088 1.367 . S
C1089 C1091 1.433 . S
C1090 C1086 1.350 . S
C1090 C1087 1.463 . S
C1090 N1094 1.427 . S
C1091 H1081 0.929 1_655 S
C1091 C1089 1.433 . S
C1091 N1094 1.384 . S
C1092 H1083 0.929 . S
C1092 C1084 1.378 . S
C1092 C1087 1.350 . S
C1093 H1080 0.929 . S
C1093 C1085 1.433 . S
C1093 N1095 1.384 . S
N1094 C1090 1.427 . S
N1094 C1091 1.384 . S
N1095 C1087 1.427 . S
N1095 C1093 1.384 . S
H1096 C1102 0.930 . S
H1097 C1106 0.930 . S
H1098 C1111 0.929 . S
H1099 C1109 0.929 . S
H1100 C1104 0.929 . S
H1101 C1110 0.929 . S
C1102 H1096 0.930 . S
C1102 C1103 1.367 . S
C1102 C1110 1.378 . S
C1103 C1102 1.367 . S
C1103 C1111 1.433 . S
C1104 H1100 0.929 . S
C1104 C1106 1.378 . S
C1104 C1108 1.350 . S
C1105 C1108 1.463 . S
C1105 C1110 1.350 . S
C1105 N1113 1.427 . S
C1106 H1097 0.930 . S
C1106 C1104 1.378 . S
C1106 C1107 1.367 1_565 S
C1107 C1106 1.367 1_545 S
C1107 C1109 1.433 . S
C1108 C1104 1.350 . S
C1108 C1105 1.463 . S
C1108 N1112 1.427 . S
C1109 H1099 0.929 . S
C1109 C1107 1.433 . S
C1109 N1112 1.384 1_545 S
C1110 H1101 0.929 . S
C1110 C1102 1.378 . S
C1110 C1105 1.350 . S
C1111 H1098 0.929 . S
C1111 C1103 1.433 . S
C1111 N1113 1.384 . S
N1112 C1108 1.427 . S
N1112 C1109 1.384 1_565 S
N1113 C1105 1.427 . S
N1113 C1111 1.384 . S
H1114 C1120 0.930 . S
H1115 C1124 0.930 . S
H1116 C1129 0.929 . S
H1117 C1127 0.929 . S
H1118 C1122 0.929 . S
H1119 C1128 0.929 . S
C1120 H1114 0.930 . S
C1120 C1121 1.367 . S
C1120 C1128 1.378 . S
C1121 C1120 1.367 . S
C1121 C1129 1.433 . S
C1122 H1118 0.929 . S
C1122 C1124 1.378 . S
C1122 C1126 1.350 . S
C1123 C1126 1.463 . S
C1123 C1128 1.350 . S
C1123 N1131 1.427 . S
C1124 H1115 0.930 . S
C1124 C1122 1.378 . S
C1124 C1125 1.367 . S
C1125 C1124 1.367 . S
C1125 C1127 1.433 . S
C1126 C1122 1.350 . S
C1126 C1123 1.463 . S
C1126 N1130 1.427 . S
C1127 H1117 0.929 . S
C1127 C1125 1.433 . S
C1127 N1130 1.384 . S
C1128 H1119 0.929 . S
C1128 C1120 1.378 . S
C1128 C1123 1.350 . S
C1129 H1116 0.929 . S
C1129 C1121 1.433 . S
C1129 N1131 1.384 . S
N1130 C1126 1.427 . S
N1130 C1127 1.384 . S
N1131 C1123 1.427 . S
N1131 C1129 1.384 . S
H1132 C1138 0.930 . S
H1133 C1142 0.930 . S
H1134 C1147 0.929 . S
H1135 C1145 0.929 . S
H1136 C1140 0.929 . S
H1137 C1146 0.929 . S
C1138 H1132 0.930 . S
C1138 C1139 1.367 . S
C1138 C1146 1.378 1_545 S
C1139 C1138 1.367 . S
C1139 C1147 1.433 . S
C1140 H1136 0.929 . S
C1140 C1142 1.378 . S
C1140 C1144 1.361 . S
C1141 C1144 1.439 1_556 S
C1141 C1146 1.350 . S
C1141 N1149 1.427 1_565 S
C1142 H1133 0.930 . S
C1142 C1140 1.378 . S
C1142 C1143 1.367 . S
C1143 C1142 1.367 . S
C1143 C1145 1.433 . S
C1144 C1140 1.361 . S
C1144 C1141 1.439 1_554 S
C1144 N1148 1.441 . S
C1145 H1135 0.929 . S
C1145 C1143 1.433 . S
C1145 N1148 1.384 . S
C1146 H1137 0.929 . S
C1146 C1138 1.378 1_565 S
C1146 C1141 1.350 . S
C1147 H1134 0.929 . S
C1147 C1139 1.433 . S
C1147 N1149 1.384 . S
N1148 C1144 1.441 . S
N1148 C1145 1.384 . S
N1149 C1141 1.427 1_545 S
N1149 C1147 1.384 . S
H1150 C1156 0.930 . S
H1151 C1160 0.930 . S
H1152 C1165 0.929 . S
H1153 C1163 0.929 . S
H1154 C1158 0.929 . S
H1155 C1164 0.929 . S
C1156 H1150 0.930 . S
C1156 C1157 1.367 . S
C1156 C1164 1.378 . S
C1157 C1156 1.367 . S
C1157 C1165 1.433 . S
C1158 H1154 0.929 . S
C1158 C1160 1.378 . S
C1158 C1162 1.350 . S
C1159 C1162 1.463 . S
C1159 C1164 1.350 . S
C1159 N1167 1.427 . S
C1160 H1151 0.930 . S
C1160 C1158 1.378 . S
C1160 C1161 1.367 . S
C1161 C1160 1.367 . S
C1161 C1163 1.433 . S
C1162 C1158 1.350 . S
C1162 C1159 1.463 . S
C1162 N1166 1.427 . S
C1163 H1153 0.929 . S
C1163 C1161 1.433 . S
C1163 N1166 1.384 . S
C1164 H1155 0.929 . S
C1164 C1156 1.378 . S
C1164 C1159 1.350 . S
C1165 H1152 0.929 . S
C1165 C1157 1.433 . S
C1165 N1167 1.384 . S
N1166 C1162 1.427 . S
N1166 C1163 1.384 . S
N1167 C1159 1.427 . S
N1167 C1165 1.384 . S
H1168 C1174 0.930 . S
H1169 C1178 0.930 . S
H1170 C1183 0.929 . S
H1171 C1181 0.929 . S
H1172 C1176 0.929 . S
H1173 C1182 0.929 . S
C1174 H1168 0.930 . S
C1174 C1175 1.367 . S
C1174 C1182 1.378 . S
C1175 C1174 1.367 . S
C1175 C1183 1.433 . S
C1176 H1172 0.929 . S
C1176 C1178 1.378 . S
C1176 C1180 1.350 . S
C1177 C1180 1.463 . S
C1177 C1182 1.350 . S
C1177 N1185 1.427 . S
C1178 H1169 0.930 . S
C1178 C1176 1.378 . S
C1178 C1179 1.367 . S
C1179 C1178 1.367 . S
C1179 C1181 1.433 . S
C1180 C1176 1.350 . S
C1180 C1177 1.463 . S
C1180 N1184 1.427 . S
C1181 H1171 0.929 . S
C1181 C1179 1.433 . S
C1181 N1184 1.384 . S
C1182 H1173 0.929 . S
C1182 C1174 1.378 . S
C1182 C1177 1.350 . S
C1183 H1170 0.929 . S
C1183 C1175 1.433 . S
C1183 N1185 1.384 . S
N1184 C1180 1.427 . S
N1184 C1181 1.384 . S
N1185 C1177 1.427 . S
N1185 C1183 1.384 . S
H1186 C1192 0.930 . S
H1187 C1196 0.930 . S
H1188 C1201 0.929 . S
H1189 C1199 0.929 . S
H1190 C1194 0.929 . S
H1191 C1200 0.929 . S
C1192 H1186 0.930 . S
C1192 C1193 1.367 . S
C1192 C1200 1.378 . S
C1193 C1192 1.367 . S
C1193 C1201 1.433 . S
C1194 H1190 0.929 . S
C1194 C1196 1.378 . S
C1194 C1198 1.350 . S
C1195 C1198 1.463 . S
C1195 C1200 1.350 . S
C1195 N1203 1.427 . S
C1196 H1187 0.930 . S
C1196 C1194 1.378 . S
C1196 C1197 1.367 . S
C1197 C1196 1.367 . S
C1197 C1199 1.433 . S
C1198 C1194 1.350 . S
C1198 C1195 1.463 . S
C1198 N1202 1.427 . S
C1199 H1189 0.929 . S
C1199 C1197 1.433 . S
C1199 N1202 1.384 . S
C1200 H1191 0.929 . S
C1200 C1192 1.378 . S
C1200 C1195 1.350 . S
C1201 H1188 0.929 . S
C1201 C1193 1.433 . S
C1201 N1203 1.384 . S
N1202 C1198 1.427 . S
N1202 C1199 1.384 . S
N1203 C1195 1.427 . S
N1203 C1201 1.384 . S
H1204 C1210 0.930 . S
H1205 C1214 0.930 . S
H1206 C1219 0.929 1_565 S
H1207 C1217 0.929 . S
H1208 C1212 0.929 . S
H1209 C1218 0.929 . S
C1210 H1204 0.930 . S
C1210 C1211 1.367 . S
C1210 C1218 1.378 . S
C1211 C1210 1.367 . S
C1211 C1219 1.433 . S
C1212 H1208 0.929 . S
C1212 C1214 1.378 . S
C1212 C1216 1.350 . S
C1213 C1216 1.463 . S
C1213 C1218 1.350 . S
C1213 N1221 1.427 . S
C1214 H1205 0.930 . S
C1214 C1212 1.378 . S
C1214 C1215 1.367 . S
C1215 C1214 1.367 . S
C1215 C1217 1.433 . S
C1216 C1212 1.350 . S
C1216 C1213 1.463 . S
C1216 N1220 1.427 . S
C1217 H1207 0.929 . S
C1217 C1215 1.433 . S
C1217 N1220 1.384 . S
C1218 H1209 0.929 . S
C1218 C1210 1.378 . S
C1218 C1213 1.350 . S
C1219 H1206 0.929 1_545 S
C1219 C1211 1.433 . S
C1219 N1221 1.384 . S
N1220 C1216 1.427 . S
N1220 C1217 1.384 . S
N1221 C1213 1.427 . S
N1221 C1219 1.384 . S
H1222 C1228 0.930 . S
H1223 C1232 0.930 . S
H1224 C1237 0.929 . S
H1225 C1235 0.929 . S
H1226 C1230 0.929 . S
H1227 C1236 0.929 . S
C1228 H1222 0.930 . S
C1228 C1229 1.367 . S
C1228 C1236 1.378 . S
C1229 C1228 1.367 . S
C1229 C1237 1.433 . S
C1230 H1226 0.929 . S
C1230 C1232 1.378 . S
C1230 C1234 1.350 . S
C1231 C1234 1.463 . S
C1231 C1236 1.350 . S
C1231 N1239 1.427 . S
C1232 H1223 0.930 . S
C1232 C1230 1.378 . S
C1232 C1233 1.367 . S
C1233 C1232 1.367 . S
C1233 C1235 1.433 . S
C1234 C1230 1.350 . S
C1234 C1231 1.463 . S
C1234 N1238 1.427 . S
C1235 H1225 0.929 . S
C1235 C1233 1.433 . S
C1235 N1238 1.384 . S
C1236 H1227 0.929 . S
C1236 C1228 1.378 . S
C1236 C1231 1.350 . S
C1237 H1224 0.929 . S
C1237 C1229 1.433 . S
C1237 N1239 1.384 . S
N1238 C1234 1.427 . S
N1238 C1235 1.384 . S
N1239 C1231 1.427 . S
N1239 C1237 1.384 . S
H1240 C1246 0.930 . S
H1241 C1250 0.930 . S
H1242 C1255 0.929 . S
H1243 C1253 0.929 . S
H1244 C1248 0.929 . S
H1245 C1254 0.929 . S
C1246 H1240 0.930 . S
C1246 C1247 1.367 . S
C1246 C1254 1.378 . S
C1247 C1246 1.367 . S
C1247 C1255 1.433 . S
C1248 H1244 0.929 . S
C1248 C1250 1.378 . S
C1248 C1252 1.350 . S
C1249 C1252 1.463 . S
C1249 C1254 1.350 . S
C1249 N1257 1.427 . S
C1250 H1241 0.930 . S
C1250 C1248 1.378 . S
C1250 C1251 1.367 . S
C1251 C1250 1.367 . S
C1251 C1253 1.433 . S
C1252 C1248 1.350 . S
C1252 C1249 1.463 . S
C1252 N1256 1.427 . S
C1253 H1243 0.929 . S
C1253 C1251 1.433 . S
C1253 N1256 1.384 . S
C1254 H1245 0.929 . S
C1254 C1246 1.378 . S
C1254 C1249 1.350 . S
C1255 H1242 0.929 . S
C1255 C1247 1.433 . S
C1255 N1257 1.384 . S
N1256 C1252 1.427 . S
N1256 C1253 1.384 . S
N1257 C1249 1.427 . S
N1257 C1255 1.384 . S
H1258 C1264 0.930 . S
H1259 C1268 0.930 . S
H1260 C1273 0.929 . S
H1261 C1271 0.929 . S
H1262 C1266 0.929 . S
H1263 C1272 0.929 . S
C1264 H1258 0.930 . S
C1264 C1265 1.367 . S
C1264 C1272 1.378 . S
C1265 C1264 1.367 . S
C1265 C1273 1.433 . S
C1266 H1262 0.929 . S
C1266 C1268 1.378 . S
C1266 C1270 1.350 . S
C1267 C1270 1.463 . S
C1267 C1272 1.350 . S
C1267 N1275 1.427 . S
C1268 H1259 0.930 . S
C1268 C1266 1.378 . S
C1268 C1269 1.367 . S
C1269 C1268 1.367 . S
C1269 C1271 1.433 . S
C1270 C1266 1.350 . S
C1270 C1267 1.463 . S
C1270 N1274 1.427 . S
C1271 H1261 0.929 . S
C1271 C1269 1.433 . S
C1271 N1274 1.384 . S
C1272 H1263 0.929 . S
C1272 C1264 1.378 . S
C1272 C1267 1.350 . S
C1273 H1260 0.929 . S
C1273 C1265 1.433 . S
C1273 N1275 1.384 . S
N1274 C1270 1.427 . S
N1274 C1271 1.384 . S
N1275 C1267 1.427 . S
N1275 C1273 1.384 . S
H1276 C1282 0.930 . S
H1277 C1286 0.930 . S
H1278 C1291 0.929 . S
H1279 C1289 0.929 . S
H1280 C1284 0.929 . S
H1281 C1290 0.929 . S
C1282 H1276 0.930 . S
C1282 C1283 1.367 . S
C1282 C1290 1.378 . S
C1283 C1282 1.367 . S
C1283 C1291 1.433 . S
C1284 H1280 0.929 . S
C1284 C1286 1.378 . S
C1284 C1288 1.350 . S
C1285 C1288 1.463 . S
C1285 C1290 1.350 . S
C1285 N1293 1.427 . S
C1286 H1277 0.930 . S
C1286 C1284 1.378 . S
C1286 C1287 1.367 . S
C1287 C1286 1.367 . S
C1287 C1289 1.433 . S
C1288 C1284 1.350 . S
C1288 C1285 1.463 . S
C1288 N1292 1.427 . S
C1289 H1279 0.929 . S
C1289 C1287 1.433 . S
C1289 N1292 1.384 . S
C1290 H1281 0.929 . S
C1290 C1282 1.378 . S
C1290 C1285 1.350 . S
C1291 H1278 0.929 . S
C1291 C1283 1.433 . S
C1291 N1293 1.384 . S
N1292 C1288 1.427 . S
N1292 C1289 1.384 . S
N1293 C1285 1.427 . S
N1293 C1291 1.384 . S
H1294 C1300 0.930 . S
H1295 C1304 0.930 . S
H1296 C1309 0.929 . S
H1297 C1307 0.929 . S
H1298 C1302 0.929 . S
H1299 C1308 0.929 . S
C1300 H1294 0.930 . S
C1300 C1301 1.367 . S
C1300 C1308 1.378 . S
C1301 C1300 1.367 . S
C1301 C1309 1.433 . S
C1302 H1298 0.929 . S
C1302 C1304 1.378 . S
C1302 C1306 1.350 . S
C1303 C1306 1.463 . S
C1303 C1308 1.350 . S
C1303 N1311 1.427 . S
C1304 H1295 0.930 . S
C1304 C1302 1.378 . S
C1304 C1305 1.367 . S
C1305 C1304 1.367 . S
C1305 C1307 1.433 . S
C1306 C1302 1.350 . S
C1306 C1303 1.463 . S
C1306 N1310 1.427 . S
C1307 H1297 0.929 . S
C1307 C1305 1.433 . S
C1307 N1310 1.384 . S
C1308 H1299 0.929 . S
C1308 C1300 1.378 . S
C1308 C1303 1.350 . S
C1309 H1296 0.929 . S
C1309 C1301 1.433 . S
C1309 N1311 1.384 . S
N1310 C1306 1.427 . S
N1310 C1307 1.384 . S
N1311 C1303 1.427 . S
N1311 C1309 1.384 . S
H1312 C1318 0.930 . S
H1313 C1322 0.930 . S
H1314 C1327 0.929 . S
H1315 C1325 0.929 . S
H1316 C1320 0.929 . S
H1317 C1326 0.929 . S
C1318 H1312 0.930 . S
C1318 C1319 1.367 . S
C1318 C1326 1.378 . S
C1319 C1318 1.367 . S
C1319 C1327 1.433 . S
C1320 H1316 0.929 . S
C1320 C1322 1.378 . S
C1320 C1324 1.350 . S
C1321 C1324 1.463 . S
C1321 C1326 1.350 . S
C1321 N1329 1.427 . S
C1322 H1313 0.930 . S
C1322 C1320 1.378 . S
C1322 C1323 1.367 . S
C1323 C1322 1.367 . S
C1323 C1325 1.433 . S
C1324 C1320 1.350 . S
C1324 C1321 1.463 . S
C1324 N1328 1.427 . S
C1325 H1315 0.929 . S
C1325 C1323 1.433 . S
C1325 N1328 1.384 . S
C1326 H1317 0.929 . S
C1326 C1318 1.378 . S
C1326 C1321 1.350 . S
C1327 H1314 0.929 . S
C1327 C1319 1.433 . S
C1327 N1329 1.384 . S
N1328 C1324 1.427 . S
N1328 C1325 1.384 . S
N1329 C1321 1.427 . S
N1329 C1327 1.384 . S
H1330 C1336 0.930 . S
H1331 C1340 0.930 . S
H1332 C1345 0.929 . S
H1333 C1343 0.929 . S
H1334 C1338 0.929 . S
H1335 C1344 0.929 . S
C1336 H1330 0.930 . S
C1336 C1337 1.367 . S
C1336 C1344 1.378 . S
C1337 C1336 1.367 . S
C1337 C1345 1.433 . S
C1338 H1334 0.929 . S
C1338 C1340 1.378 . S
C1338 C1342 1.350 . S
C1339 C1342 1.463 . S
C1339 C1344 1.350 1_655 S
C1339 N1347 1.427 . S
C1340 H1331 0.930 . S
C1340 C1338 1.378 . S
C1340 C1341 1.367 . S
C1341 C1340 1.367 . S
C1341 C1343 1.433 . S
C1342 C1338 1.350 . S
C1342 C1339 1.463 . S
C1342 N1346 1.427 . S
C1343 H1333 0.929 . S
C1343 C1341 1.433 . S
C1343 N1346 1.384 . S
C1344 H1335 0.929 . S
C1344 C1336 1.378 . S
C1344 C1339 1.350 1_455 S
C1345 H1332 0.929 . S
C1345 C1337 1.433 . S
C1345 N1347 1.384 1_455 S
N1346 C1342 1.427 . S
N1346 C1343 1.384 . S
N1347 C1339 1.427 . S
N1347 C1345 1.384 1_655 S
H1348 C1354 0.930 . S
H1349 C1358 0.930 . S
H1350 C1363 0.929 . S
H1351 C1361 0.929 . S
H1352 C1356 0.929 . S
H1353 C1362 0.929 . S
C1354 H1348 0.930 . S
C1354 C1355 1.367 . S
C1354 C1362 1.378 . S
C1355 C1354 1.367 . S
C1355 C1363 1.433 . S
C1356 H1352 0.929 . S
C1356 C1358 1.378 . S
C1356 C1360 1.350 . S
C1357 C1360 1.463 . S
C1357 C1362 1.350 . S
C1357 N1365 1.427 . S
C1358 H1349 0.930 . S
C1358 C1356 1.378 . S
C1358 C1359 1.367 . S
C1359 C1358 1.367 . S
C1359 C1361 1.433 . S
C1360 C1356 1.350 . S
C1360 C1357 1.463 . S
C1360 N1364 1.427 . S
C1361 H1351 0.929 . S
C1361 C1359 1.433 . S
C1361 N1364 1.384 . S
C1362 H1353 0.929 . S
C1362 C1354 1.378 . S
C1362 C1357 1.350 . S
C1363 H1350 0.929 . S
C1363 C1355 1.433 . S
C1363 N1365 1.384 . S
N1364 C1360 1.427 . S
N1364 C1361 1.384 . S
N1365 C1357 1.427 . S
N1365 C1363 1.384 . S
H1366 C1372 0.930 . S
H1367 C1376 0.930 . S
H1368 C1381 0.929 . S
H1369 C1379 0.929 . S
H1370 C1374 0.929 . S
H1371 C1380 0.929 1_455 S
C1372 H1366 0.930 . S
C1372 C1373 1.367 . S
C1372 C1380 1.378 . S
C1373 C1372 1.367 . S
C1373 C1381 1.433 . S
C1374 H1370 0.929 . S
C1374 C1376 1.378 . S
C1374 C1378 1.350 . S
C1375 C1378 1.463 . S
C1375 C1380 1.350 1_455 S
C1375 N1383 1.427 1_455 S
C1376 H1367 0.930 . S
C1376 C1374 1.378 . S
C1376 C1377 1.367 . S
C1377 C1376 1.367 . S
C1377 C1379 1.433 . S
C1378 C1374 1.350 . S
C1378 C1375 1.463 . S
C1378 N1382 1.427 . S
C1379 H1369 0.929 . S
C1379 C1377 1.433 . S
C1379 N1382 1.384 . S
C1380 H1371 0.929 1_655 S
C1380 C1372 1.378 . S
C1380 C1375 1.350 1_655 S
C1381 H1368 0.929 . S
C1381 C1373 1.433 . S
C1381 N1383 1.384 . S
N1382 C1378 1.427 . S
N1382 C1379 1.384 . S
N1383 C1375 1.427 1_655 S
N1383 C1381 1.384 . S
H1384 C1390 0.930 . S
H1385 C1394 0.930 . S
H1386 C1399 0.929 . S
H1387 C1397 0.929 . S
H1388 C1392 0.929 . S
H1389 C1398 0.929 . S
C1390 H1384 0.930 . S
C1390 C1391 1.367 . S
C1390 C1398 1.378 . S
C1391 C1390 1.367 . S
C1391 C1399 1.433 . S
C1392 H1388 0.929 . S
C1392 C1394 1.378 . S
C1392 C1396 1.350 . S
C1393 C1396 1.463 . S
C1393 C1398 1.350 . S
C1393 N1401 1.427 . S
C1394 H1385 0.930 . S
C1394 C1392 1.378 . S
C1394 C1395 1.367 . S
C1395 C1394 1.367 . S
C1395 C1397 1.433 . S
C1396 C1392 1.350 . S
C1396 C1393 1.463 . S
C1396 N1400 1.427 . S
C1397 H1387 0.929 . S
C1397 C1395 1.433 . S
C1397 N1400 1.384 . S
C1398 H1389 0.929 . S
C1398 C1390 1.378 . S
C1398 C1393 1.350 . S
C1399 H1386 0.929 . S
C1399 C1391 1.433 . S
C1399 N1401 1.384 . S
N1400 C1396 1.427 . S
N1400 C1397 1.384 . S
N1401 C1393 1.427 . S
N1401 C1399 1.384 . S
H1402 C1408 0.924 1_554 S
H1403 C1412 0.930 . S
H1404 C1417 0.929 . S
H1405 C1415 0.929 . S
H1406 C1410 0.929 . S
H1407 C1416 0.929 . S
C1408 H1402 0.924 1_556 S
C1408 C1409 1.340 1_556 S
C1408 C1416 1.414 . S
C1409 C1408 1.340 1_554 S
C1409 C1417 1.433 . S
C1410 H1406 0.929 . S
C1410 C1412 1.378 . S
C1410 C1414 1.350 . S
C1411 C1414 1.463 . S
C1411 C1416 1.350 . S
C1411 N1419 1.427 . S
C1412 H1403 0.930 . S
C1412 C1410 1.378 . S
C1412 C1413 1.367 . S
C1413 C1412 1.367 . S
C1413 C1415 1.433 . S
C1414 C1410 1.350 . S
C1414 C1411 1.463 . S
C1414 N1418 1.427 . S
C1415 H1405 0.929 . S
C1415 C1413 1.433 . S
C1415 N1418 1.384 . S
C1416 H1407 0.929 . S
C1416 C1408 1.414 . S
C1416 C1411 1.350 . S
C1417 H1404 0.929 . S
C1417 C1409 1.433 . S
C1417 N1419 1.384 1_554 S
N1418 C1414 1.427 . S
N1418 C1415 1.384 . S
N1419 C1411 1.427 . S
N1419 C1417 1.384 1_556 S
H1420 C1426 0.930 . S
H1421 C1430 0.930 . S
H1422 C1435 0.929 . S
H1423 C1433 0.929 . S
H1424 C1428 0.929 . S
H1425 C1434 0.929 . S
C1426 H1420 0.930 . S
C1426 C1427 1.367 . S
C1426 C1434 1.378 . S
C1427 C1426 1.367 . S
C1427 C1435 1.433 . S
C1428 H1424 0.929 . S
C1428 C1430 1.378 . S
C1428 C1432 1.350 . S
C1429 C1432 1.463 . S
C1429 C1434 1.350 . S
C1429 N1437 1.427 . S
C1430 H1421 0.930 . S
C1430 C1428 1.378 . S
C1430 C1431 1.367 . S
C1431 C1430 1.367 . S
C1431 C1433 1.433 . S
C1432 C1428 1.350 . S
C1432 C1429 1.463 . S
C1432 N1436 1.427 . S
C1433 H1423 0.929 . S
C1433 C1431 1.433 . S
C1433 N1436 1.384 . S
C1434 H1425 0.929 . S
C1434 C1426 1.378 . S
C1434 C1429 1.350 . S
C1435 H1422 0.929 . S
C1435 C1427 1.433 . S
C1435 N1437 1.384 . S
N1436 C1432 1.427 . S
N1436 C1433 1.384 . S
N1437 C1429 1.427 . S
N1437 C1435 1.384 . S
H1438 C1444 0.930 . S
H1439 C1448 0.930 . S
H1440 C1453 0.929 . S
H1441 C1451 0.929 . S
H1442 C1446 0.929 . S
H1443 C1452 0.916 1_556 S
C1444 H1438 0.930 . S
C1444 C1445 1.367 . S
C1444 C1452 1.378 . S
C1445 C1444 1.367 . S
C1445 C1453 1.433 . S
C1446 H1442 0.929 . S
C1446 C1448 1.378 . S
C1446 C1450 1.350 . S
C1447 C1450 1.463 1_554 S
C1447 C1452 1.350 . S
C1447 N1455 1.427 . S
C1448 H1439 0.930 . S
C1448 C1446 1.378 . S
C1448 C1449 1.367 . S
C1449 C1448 1.367 . S
C1449 C1451 1.433 . S
C1450 C1446 1.350 . S
C1450 C1447 1.463 1_556 S
C1450 N1454 1.427 . S
C1451 H1441 0.929 . S
C1451 C1449 1.433 . S
C1451 N1454 1.384 . S
C1452 H1443 0.916 1_554 S
C1452 C1444 1.378 . S
C1452 C1447 1.350 . S
C1453 H1440 0.929 . S
C1453 C1445 1.433 . S
C1453 N1455 1.384 . S
N1454 C1450 1.427 . S
N1454 C1451 1.384 . S
N1455 C1447 1.427 . S
N1455 C1453 1.384 . S
H1456 C1462 0.930 . S
H1457 C1466 0.930 . S
H1458 C1471 0.929 . S
H1459 C1469 0.929 . S
H1460 C1464 0.929 . S
H1461 C1470 0.929 . S
C1462 H1456 0.930 . S
C1462 C1463 1.367 . S
C1462 C1470 1.378 . S
C1463 C1462 1.367 . S
C1463 C1471 1.433 . S
C1464 H1460 0.929 . S
C1464 C1466 1.378 . S
C1464 C1468 1.350 . S
C1465 C1468 1.463 . S
C1465 C1470 1.350 . S
C1465 N1473 1.427 . S
C1466 H1457 0.930 . S
C1466 C1464 1.378 . S
C1466 C1467 1.367 . S
C1467 C1466 1.367 . S
C1467 C1469 1.433 . S
C1468 C1464 1.350 . S
C1468 C1465 1.463 . S
C1468 N1472 1.427 . S
C1469 H1459 0.929 . S
C1469 C1467 1.433 . S
C1469 N1472 1.384 . S
C1470 H1461 0.929 . S
C1470 C1462 1.378 . S
C1470 C1465 1.350 . S
C1471 H1458 0.929 . S
C1471 C1463 1.433 . S
C1471 N1473 1.384 . S
N1472 C1468 1.427 . S
N1472 C1469 1.384 . S
N1473 C1465 1.427 . S
N1473 C1471 1.384 . S
H1474 C1480 0.930 . S
H1475 C1484 0.930 . S
H1476 C1489 0.929 1_556 S
H1477 C1487 0.929 . S
H1478 C1482 0.929 . S
H1479 C1488 0.929 . S
C1480 H1474 0.930 . S
C1480 C1481 1.367 . S
C1480 C1488 1.378 1_556 S
C1481 C1480 1.367 . S
C1481 C1489 1.433 1_556 S
C1482 H1478 0.929 . S
C1482 C1484 1.378 . S
C1482 C1486 1.350 . S
C1483 C1486 1.463 . S
C1483 C1488 1.350 . S
C1483 N1491 1.427 . S
C1484 H1475 0.930 . S
C1484 C1482 1.378 . S
C1484 C1485 1.367 . S
C1485 C1484 1.367 . S
C1485 C1487 1.433 . S
C1486 C1482 1.350 . S
C1486 C1483 1.463 . S
C1486 N1490 1.427 . S
C1487 H1477 0.929 . S
C1487 C1485 1.433 . S
C1487 N1490 1.384 . S
C1488 H1479 0.929 . S
C1488 C1480 1.378 1_554 S
C1488 C1483 1.350 . S
C1489 H1476 0.929 1_554 S
C1489 C1481 1.433 1_554 S
C1489 N1491 1.384 . S
N1490 C1486 1.427 . S
N1490 C1487 1.384 . S
N1491 C1483 1.427 . S
N1491 C1489 1.384 . S
H1492 C1498 0.930 . S
H1493 C1502 0.930 . S
H1494 C1507 0.929 . S
H1495 C1505 0.929 . S
H1496 C1500 0.929 . S
H1497 C1506 0.929 . S
C1498 H1492 0.930 . S
C1498 C1499 1.367 . S
C1498 C1506 1.378 . S
C1499 C1498 1.367 . S
C1499 C1507 1.433 . S
C1500 H1496 0.929 . S
C1500 C1502 1.378 . S
C1500 C1504 1.350 . S
C1501 C1504 1.463 . S
C1501 C1506 1.350 . S
C1501 N1509 1.427 . S
C1502 H1493 0.930 . S
C1502 C1500 1.378 . S
C1502 C1503 1.367 . S
C1503 C1502 1.367 . S
C1503 C1505 1.433 . S
C1504 C1500 1.350 . S
C1504 C1501 1.463 . S
C1504 N1508 1.427 . S
C1505 H1495 0.929 . S
C1505 C1503 1.433 . S
C1505 N1508 1.384 . S
C1506 H1497 0.929 . S
C1506 C1498 1.378 . S
C1506 C1501 1.350 . S
C1507 H1494 0.929 . S
C1507 C1499 1.433 . S
C1507 N1509 1.384 . S
N1508 C1504 1.427 . S
N1508 C1505 1.384 . S
N1509 C1501 1.427 . S
N1509 C1507 1.384 . S
H1510 C1516 0.930 . S
H1511 C1520 0.930 . S
H1512 C1525 0.929 1_556 S
H1513 C1523 0.929 . S
H1514 C1518 0.929 . S
H1515 C1524 0.929 . S
C1516 H1510 0.930 . S
C1516 C1517 1.367 . S
C1516 C1524 1.378 . S
C1517 C1516 1.367 . S
C1517 C1525 1.433 . S
C1518 H1514 0.929 . S
C1518 C1520 1.378 . S
C1518 C1522 1.350 . S
C1519 C1522 1.463 . S
C1519 C1524 1.350 . S
C1519 N1527 1.427 . S
C1520 H1511 0.930 . S
C1520 C1518 1.378 . S
C1520 C1521 1.367 . S
C1521 C1520 1.367 . S
C1521 C1523 1.433 . S
C1522 C1518 1.350 . S
C1522 C1519 1.463 . S
C1522 N1526 1.427 . S
C1523 H1513 0.929 . S
C1523 C1521 1.433 . S
C1523 N1526 1.384 . S
C1524 H1515 0.929 . S
C1524 C1516 1.378 . S
C1524 C1519 1.350 . S
C1525 H1512 0.929 1_554 S
C1525 C1517 1.433 . S
C1525 N1527 1.384 . S
N1526 C1522 1.427 . S
N1526 C1523 1.384 . S
N1527 C1519 1.427 . S
N1527 C1525 1.384 . S
H1528 C1534 0.930 . S
H1529 C1538 0.930 . S
H1530 C1543 0.929 . S
H1531 C1541 0.929 . S
H1532 C1536 0.929 . S
H1533 C1542 0.929 . S
C1534 H1528 0.930 . S
C1534 C1535 1.367 . S
C1534 C1542 1.378 . S
C1535 C1534 1.367 . S
C1535 C1543 1.433 . S
C1536 H1532 0.929 . S
C1536 C1538 1.378 . S
C1536 C1540 1.350 . S
C1537 C1540 1.463 . S
C1537 C1542 1.350 . S
C1537 N1545 1.427 . S
C1538 H1529 0.930 . S
C1538 C1536 1.378 . S
C1538 C1539 1.367 . S
C1539 C1538 1.367 . S
C1539 C1541 1.433 . S
C1540 C1536 1.350 . S
C1540 C1537 1.463 . S
C1540 N1544 1.427 . S
C1541 H1531 0.929 . S
C1541 C1539 1.433 . S
C1541 N1544 1.384 . S
C1542 H1533 0.929 . S
C1542 C1534 1.378 . S
C1542 C1537 1.350 . S
C1543 H1530 0.929 . S
C1543 C1535 1.433 . S
C1543 N1545 1.384 . S
N1544 C1540 1.427 . S
N1544 C1541 1.384 . S
N1545 C1537 1.427 . S
N1545 C1543 1.384 . S
H1546 C1552 0.930 . S
H1547 C1556 0.930 . S
H1548 C1561 0.929 . S
H1549 C1559 0.929 . S
H1550 C1554 0.929 . S
H1551 C1560 0.929 . S
C1552 H1546 0.930 . S
C1552 C1553 1.367 . S
C1552 C1560 1.378 . S
C1553 C1552 1.367 . S
C1553 C1561 1.433 . S
C1554 H1550 0.929 . S
C1554 C1556 1.378 . S
C1554 C1558 1.350 . S
C1555 C1558 1.463 . S
C1555 C1560 1.350 . S
C1555 N1563 1.427 . S
C1556 H1547 0.930 . S
C1556 C1554 1.378 . S
C1556 C1557 1.367 . S
C1557 C1556 1.367 . S
C1557 C1559 1.433 . S
C1558 C1554 1.350 . S
C1558 C1555 1.463 . S
C1558 N1562 1.427 . S
C1559 H1549 0.929 . S
C1559 C1557 1.433 . S
C1559 N1562 1.384 . S
C1560 H1551 0.929 . S
C1560 C1552 1.378 . S
C1560 C1555 1.350 . S
C1561 H1548 0.929 . S
C1561 C1553 1.433 . S
C1561 N1563 1.384 . S
N1562 C1558 1.427 . S
N1562 C1559 1.384 . S
N1563 C1555 1.427 . S
N1563 C1561 1.384 . S
H1564 C1570 0.930 . S
H1565 C1574 0.930 . S
H1566 C1579 0.929 . S
H1567 C1577 0.929 . S
H1568 C1572 0.929 . S
H1569 C1578 0.929 . S
C1570 H1564 0.930 . S
C1570 C1571 1.367 . S
C1570 C1578 1.378 . S
C1571 C1570 1.367 . S
C1571 C1579 1.433 . S
C1572 H1568 0.929 . S
C1572 C1574 1.378 . S
C1572 C1576 1.350 . S
C1573 C1576 1.463 . S
C1573 C1578 1.350 . S
C1573 N1581 1.427 . S
C1574 H1565 0.930 . S
C1574 C1572 1.378 . S
C1574 C1575 1.367 . S
C1575 C1574 1.367 . S
C1575 C1577 1.433 . S
C1576 C1572 1.350 . S
C1576 C1573 1.463 . S
C1576 N1580 1.427 . S
C1577 H1567 0.929 . S
C1577 C1575 1.433 . S
C1577 N1580 1.384 . S
C1578 H1569 0.929 . S
C1578 C1570 1.378 . S
C1578 C1573 1.350 . S
C1579 H1566 0.929 . S
C1579 C1571 1.433 . S
C1579 N1581 1.384 . S
N1580 C1576 1.427 . S
N1580 C1577 1.384 . S
N1581 C1573 1.427 . S
N1581 C1579 1.384 . S
H1582 C1588 0.930 . S
H1583 C1592 0.930 . S
H1584 C1597 0.929 . S
H1585 C1595 0.929 . S
H1586 C1590 0.929 . S
H1587 C1596 0.929 . S
C1588 H1582 0.930 . S
C1588 C1589 1.367 . S
C1588 C1596 1.378 . S
C1589 C1588 1.367 . S
C1589 C1597 1.433 . S
C1590 H1586 0.929 . S
C1590 C1592 1.378 . S
C1590 C1594 1.350 . S
C1591 C1594 1.463 . S
C1591 C1596 1.350 . S
C1591 N1599 1.427 . S
C1592 H1583 0.930 . S
C1592 C1590 1.378 . S
C1592 C1593 1.367 . S
C1593 C1592 1.367 . S
C1593 C1595 1.433 . S
C1594 C1590 1.350 . S
C1594 C1591 1.463 . S
C1594 N1598 1.427 . S
C1595 H1585 0.929 . S
C1595 C1593 1.433 . S
C1595 N1598 1.384 . S
C1596 H1587 0.929 . S
C1596 C1588 1.378 . S
C1596 C1591 1.350 . S
C1597 H1584 0.929 . S
C1597 C1589 1.433 . S
C1597 N1599 1.384 . S
N1598 C1594 1.427 . S
N1598 C1595 1.384 . S
N1599 C1591 1.427 . S
N1599 C1597 1.384 . S
H1600 C1606 0.930 . S
H1601 C1610 0.930 . S
H1602 C1615 0.929 . S
H1603 C1613 0.929 . S
H1604 C1608 0.929 . S
H1605 C1614 0.929 . S
C1606 H1600 0.930 . S
C1606 C1607 1.367 . S
C1606 C1614 1.378 . S
C1607 C1606 1.367 . S
C1607 C1615 1.433 . S
C1608 H1604 0.929 . S
C1608 C1610 1.378 . S
C1608 C1612 1.350 . S
C1609 C1612 1.463 . S
C1609 C1614 1.350 . S
C1609 N1617 1.427 . S
C1610 H1601 0.930 . S
C1610 C1608 1.378 . S
C1610 C1611 1.367 . S
C1611 C1610 1.367 . S
C1611 C1613 1.433 . S
C1612 C1608 1.350 . S
C1612 C1609 1.463 . S
C1612 N1616 1.427 . S
C1613 H1603 0.929 . S
C1613 C1611 1.433 . S
C1613 N1616 1.384 . S
C1614 H1605 0.929 . S
C1614 C1606 1.378 . S
C1614 C1609 1.350 . S
C1615 H1602 0.929 . S
C1615 C1607 1.433 . S
C1615 N1617 1.384 . S
N1616 C1612 1.427 . S
N1616 C1613 1.384 . S
N1617 C1609 1.427 . S
N1617 C1615 1.384 . S
H1618 C1624 0.930 . S
H1619 C1628 0.930 . S
H1620 C1633 0.929 . S
H1621 C1631 0.929 . S
H1622 C1626 0.929 . S
H1623 C1632 0.929 . S
C1624 H1618 0.930 . S
C1624 C1625 1.367 . S
C1624 C1632 1.378 . S
C1625 C1624 1.367 . S
C1625 C1633 1.433 . S
C1626 H1622 0.929 . S
C1626 C1628 1.378 . S
C1626 C1630 1.350 . S
C1627 C1630 1.463 . S
C1627 C1632 1.350 . S
C1627 N1635 1.427 . S
C1628 H1619 0.930 . S
C1628 C1626 1.378 . S
C1628 C1629 1.367 . S
C1629 C1628 1.367 . S
C1629 C1631 1.433 . S
C1630 C1626 1.350 . S
C1630 C1627 1.463 . S
C1630 N1634 1.427 . S
C1631 H1621 0.929 . S
C1631 C1629 1.433 . S
C1631 N1634 1.384 . S
C1632 H1623 0.929 . S
C1632 C1624 1.378 . S
C1632 C1627 1.350 . S
C1633 H1620 0.929 . S
C1633 C1625 1.433 . S
C1633 N1635 1.384 . S
N1634 C1630 1.427 . S
N1634 C1631 1.384 . S
N1635 C1627 1.427 . S
N1635 C1633 1.384 . S
H1636 C1642 0.930 . S
H1637 C1646 0.930 . S
H1638 C1651 0.929 . S
H1639 C1649 0.929 . S
H1640 C1644 0.929 . S
H1641 C1650 0.929 . S
C1642 H1636 0.930 . S
C1642 C1643 1.367 . S
C1642 C1650 1.378 . S
C1643 C1642 1.367 . S
C1643 C1651 1.433 . S
C1644 H1640 0.929 . S
C1644 C1646 1.378 . S
C1644 C1648 1.350 . S
C1645 C1648 1.463 . S
C1645 C1650 1.350 . S
C1645 N1653 1.427 . S
C1646 H1637 0.930 . S
C1646 C1644 1.378 . S
C1646 C1647 1.367 . S
C1647 C1646 1.367 . S
C1647 C1649 1.433 . S
C1648 C1644 1.350 . S
C1648 C1645 1.463 . S
C1648 N1652 1.427 . S
C1649 H1639 0.929 . S
C1649 C1647 1.433 . S
C1649 N1652 1.384 . S
C1650 H1641 0.929 . S
C1650 C1642 1.378 . S
C1650 C1645 1.350 . S
C1651 H1638 0.929 . S
C1651 C1643 1.433 . S
C1651 N1653 1.384 . S
N1652 C1648 1.427 . S
N1652 C1649 1.384 . S
N1653 C1645 1.427 . S
N1653 C1651 1.384 . S
H1654 C1660 0.930 . S
H1655 C1664 0.930 . S
H1656 C1669 0.929 . S
H1657 C1667 0.929 . S
H1658 C1662 0.929 . S
H1659 C1668 0.929 . S
C1660 H1654 0.930 . S
C1660 C1661 1.367 . S
C1660 C1668 1.378 . S
C1661 C1660 1.367 . S
C1661 C1669 1.433 . S
C1662 H1658 0.929 . S
C1662 C1664 1.378 1_545 S
C1662 C1666 1.350 . S
C1663 C1666 1.463 . S
C1663 C1668 1.350 . S
C1663 N1671 1.427 . S
C1664 H1655 0.930 . S
C1664 C1662 1.378 1_565 S
C1664 C1665 1.367 . S
C1665 C1664 1.367 . S
C1665 C1667 1.433 . S
C1666 C1662 1.350 . S
C1666 C1663 1.463 . S
C1666 N1670 1.427 1_545 S
C1667 H1657 0.929 . S
C1667 C1665 1.433 . S
C1667 N1670 1.384 . S
C1668 H1659 0.929 . S
C1668 C1660 1.378 . S
C1668 C1663 1.350 . S
C1669 H1656 0.929 . S
C1669 C1661 1.433 . S
C1669 N1671 1.384 . S
N1670 C1666 1.427 1_565 S
N1670 C1667 1.384 . S
N1671 C1663 1.427 . S
N1671 C1669 1.384 . S
C819 C648 1.623 . S
C815 C202 1.621 . S
C837 C663 1.794 . S
C833 C261 1.772 . S
C851 C282 1.733 . S
C855 C676 1.726 . S
C873 C690 1.613 . S
C869 C162 1.593 . S
C891 C702 1.656 . S
C887 C402 1.708 . S
C909 C716 1.434 . S
C905 C482 1.354 . S
C923 C442 1.792 . S
C927 C730 1.762 . S
C945 C745 1.592 . S
C941 C381 1.524 . S
C959 C461 1.737 . S
C963 C761 1.726 . S
C981 C774 1.590 . S
C977 C362 1.545 . S
C995 C415 1.581 . S
C999 C759 1.528 . S
C1017 C772 1.669 . S
C1013 C495 1.611 . S
C1031 C301 1.921 . S
C1035 C788 1.908 . S
C1049 C175 1.672 . S
C1053 C787 1.670 . S
C1067 C215 1.726 . S
C1071 C786 1.669 . S
C1085 C242 1.613 . S
C1089 C789 1.655 . S
C1103 C141 1.749 . S
C1107 C691 1.744 . S
C1121 C581 1.537 . S
C1125 C689 1.510 . S
C1143 C649 1.556 . S
C1139 C615 1.582 . S
C1161 C660 1.767 . S
C1157 C335 1.784 . S
C1175 C181 1.678 . S
C1179 C705 1.721 . S
C1197 C746 1.896 . S
C1193 C455 1.902 . S
C1215 C703 1.599 . S
C1211 C375 1.573 1_545 S
C1233 C731 1.649 . S
C1229 C501 1.572 . S
C1251 C732 1.623 . S
C1247 C562 1.621 . S
C1265 C621 1.761 . S
C1269 C747 1.787 . S
C1283 C322 1.734 . S
C1287 C704 1.726 . S
C1305 C718 1.612 . S
C1301 C522 1.592 . S
C1319 C122 1.711 . S
C1323 C674 1.645 . S
C1341 C688 1.440 . S
C1337 C2 1.360 . S
C1359 C646 1.756 . S
C1355 C42 1.789 . S
C1377 C661 1.591 . S
C1373 C101 1.520 . S
C1391 C61 1.734 . S
C1395 C775 1.730 . S
C1409 C82 1.528 . S
C1413 C760 1.579 . S
C1427 C135 1.581 . S
C1431 C773 1.526 . S
C1445 C15 1.610 . S
C1449 C758 1.666 . S
C1467 C802 1.908 . S
C1463 C341 1.921 . S
C1485 C801 1.674 . S
C1481 C535 1.677 . S
C1503 C800 1.661 . S
C1499 C575 1.726 . S
C1517 C602 1.610 1_554 S
C1521 C803 1.651 . S
C1535 C421 1.749 . S
C1539 C719 1.743 . S
C1557 C717 1.510 . S
C1553 C221 1.537 . S
C1575 C733 1.558 . S
C1571 C255 1.581 . S
C1593 C744 1.764 . S
C1589 C295 1.788 . S
C1607 C541 1.672 . S
C1611 C677 1.721 . S
C1629 C662 1.894 . S
C1625 C55 1.902 . S
C1643 C95 1.567 . S
C1647 C675 1.601 . S
C1665 C647 1.648 . S
C1661 C21 1.567 . S
