# Generated by pormake.
# Topology gar, (4,6)-cn, num edge types: 1
# Building blocks:
#     Node 0, Type 0, BuildingBlock: CEKHIL_clean_sbu_0, # of connection points: 4
#     Node 1, Type 0, BuildingBlock: CEKHIL_clean_sbu_0, # of connection points: 4
#     Node 2, Type 0, BuildingBlock: CEKHIL_clean_sbu_0, # of connection points: 4
#     Node 3, Type 0, BuildingBlock: CEKHIL_clean_sbu_0, # of connection points: 4
#     Node 4, Type 0, BuildingBlock: CEKHIL_clean_sbu_0, # of connection points: 4
#     Node 5, Type 0, BuildingBlock: CEKHIL_clean_sbu_0, # of connection points: 4
#     Node 6, Type 0, BuildingBlock: CEKHIL_clean_sbu_0, # of connection points: 4
#     Node 7, Type 0, BuildingBlock: CEKHIL_clean_sbu_0, # of connection points: 4
#     Node 8, Type 0, BuildingBlock: CEKHIL_clean_sbu_0, # of connection points: 4
#     Node 9, Type 0, BuildingBlock: CEKHIL_clean_sbu_0, # of connection points: 4
#     Node 10, Type 0, BuildingBlock: CEKHIL_clean_sbu_0, # of connection points: 4
#     Node 11, Type 0, BuildingBlock: CEKHIL_clean_sbu_0, # of connection points: 4
#     Node 12, Type 0, BuildingBlock: CEKHIL_clean_sbu_0, # of connection points: 4
#     Node 13, Type 0, BuildingBlock: CEKHIL_clean_sbu_0, # of connection points: 4
#     Node 14, Type 0, BuildingBlock: CEKHIL_clean_sbu_0, # of connection points: 4
#     Node 15, Type 0, BuildingBlock: CEKHIL_clean_sbu_0, # of connection points: 4
#     Node 16, Type 0, BuildingBlock: CEKHIL_clean_sbu_0, # of connection points: 4
#     Node 17, Type 0, BuildingBlock: CEKHIL_clean_sbu_0, # of connection points: 4
#     Node 18, Type 0, BuildingBlock: CEKHIL_clean_sbu_0, # of connection points: 4
#     Node 19, Type 0, BuildingBlock: CEKHIL_clean_sbu_0, # of connection points: 4
#     Node 20, Type 0, BuildingBlock: CEKHIL_clean_sbu_0, # of connection points: 4
#     Node 21, Type 0, BuildingBlock: CEKHIL_clean_sbu_0, # of connection points: 4
#     Node 22, Type 0, BuildingBlock: CEKHIL_clean_sbu_0, # of connection points: 4
#     Node 23, Type 0, BuildingBlock: CEKHIL_clean_sbu_0, # of connection points: 4
#     Node 24, Type 1, BuildingBlock: KUMJIN_clean_sbu_0, # of connection points: 6
#     Node 25, Type 1, BuildingBlock: KUMJIN_clean_sbu_0, # of connection points: 6
#     Node 26, Type 1, BuildingBlock: KUMJIN_clean_sbu_0, # of connection points: 6
#     Node 27, Type 1, BuildingBlock: KUMJIN_clean_sbu_0, # of connection points: 6
#     Node 28, Type 1, BuildingBlock: KUMJIN_clean_sbu_0, # of connection points: 6
#     Node 29, Type 1, BuildingBlock: KUMJIN_clean_sbu_0, # of connection points: 6
#     Node 30, Type 1, BuildingBlock: KUMJIN_clean_sbu_0, # of connection points: 6
#     Node 31, Type 1, BuildingBlock: KUMJIN_clean_sbu_0, # of connection points: 6
#     Node 32, Type 1, BuildingBlock: KUMJIN_clean_sbu_0, # of connection points: 6
#     Node 33, Type 1, BuildingBlock: KUMJIN_clean_sbu_0, # of connection points: 6
#     Node 34, Type 1, BuildingBlock: KUMJIN_clean_sbu_0, # of connection points: 6
#     Node 35, Type 1, BuildingBlock: KUMJIN_clean_sbu_0, # of connection points: 6
#     Node 36, Type 1, BuildingBlock: KUMJIN_clean_sbu_0, # of connection points: 6
#     Node 37, Type 1, BuildingBlock: KUMJIN_clean_sbu_0, # of connection points: 6
#     Node 38, Type 1, BuildingBlock: KUMJIN_clean_sbu_0, # of connection points: 6
#     Node 39, Type 1, BuildingBlock: KUMJIN_clean_sbu_0, # of connection points: 6
#     Edge 40, Type (0, 1), BuildingBlock: ZUJKAS_clean_linker_0, # of connection points: 2
#     Edge 41, Type (0, 1), BuildingBlock: ZUJKAS_clean_linker_0, # of connection points: 2
#     Edge 42, Type (0, 1), BuildingBlock: ZUJKAS_clean_linker_0, # of connection points: 2
#     Edge 43, Type (0, 1), BuildingBlock: ZUJKAS_clean_linker_0, # of connection points: 2
#     Edge 44, Type (0, 1), BuildingBlock: ZUJKAS_clean_linker_0, # of connection points: 2
#     Edge 45, Type (0, 1), BuildingBlock: ZUJKAS_clean_linker_0, # of connection points: 2
#     Edge 46, Type (0, 1), BuildingBlock: ZUJKAS_clean_linker_0, # of connection points: 2
#     Edge 47, Type (0, 1), BuildingBlock: ZUJKAS_clean_linker_0, # of connection points: 2
#     Edge 48, Type (0, 1), BuildingBlock: ZUJKAS_clean_linker_0, # of connection points: 2
#     Edge 49, Type (0, 1), BuildingBlock: ZUJKAS_clean_linker_0, # of connection points: 2
#     Edge 50, Type (0, 1), BuildingBlock: ZUJKAS_clean_linker_0, # of connection points: 2
#     Edge 51, Type (0, 1), BuildingBlock: ZUJKAS_clean_linker_0, # of connection points: 2
#     Edge 52, Type (0, 1), BuildingBlock: ZUJKAS_clean_linker_0, # of connection points: 2
#     Edge 53, Type (0, 1), BuildingBlock: ZUJKAS_clean_linker_0, # of connection points: 2
#     Edge 54, Type (0, 1), BuildingBlock: ZUJKAS_clean_linker_0, # of connection points: 2
#     Edge 55, Type (0, 1), BuildingBlock: ZUJKAS_clean_linker_0, # of connection points: 2
#     Edge 56, Type (0, 1), BuildingBlock: ZUJKAS_clean_linker_0, # of connection points: 2
#     Edge 57, Type (0, 1), BuildingBlock: ZUJKAS_clean_linker_0, # of connection points: 2
#     Edge 58, Type (0, 1), BuildingBlock: ZUJKAS_clean_linker_0, # of connection points: 2
#     Edge 59, Type (0, 1), BuildingBlock: ZUJKAS_clean_linker_0, # of connection points: 2
#     Edge 60, Type (0, 1), BuildingBlock: ZUJKAS_clean_linker_0, # of connection points: 2
#     Edge 61, Type (0, 1), BuildingBlock: ZUJKAS_clean_linker_0, # of connection points: 2
#     Edge 62, Type (0, 1), BuildingBlock: ZUJKAS_clean_linker_0, # of connection points: 2
#     Edge 63, Type (0, 1), BuildingBlock: ZUJKAS_clean_linker_0, # of connection points: 2
#     Edge 64, Type (0, 1), BuildingBlock: ZUJKAS_clean_linker_0, # of connection points: 2
#     Edge 65, Type (0, 1), BuildingBlock: ZUJKAS_clean_linker_0, # of connection points: 2
#     Edge 66, Type (0, 1), BuildingBlock: ZUJKAS_clean_linker_0, # of connection points: 2
#     Edge 67, Type (0, 1), BuildingBlock: ZUJKAS_clean_linker_0, # of connection points: 2
#     Edge 68, Type (0, 1), BuildingBlock: ZUJKAS_clean_linker_0, # of connection points: 2
#     Edge 69, Type (0, 1), BuildingBlock: ZUJKAS_clean_linker_0, # of connection points: 2
#     Edge 70, Type (0, 1), BuildingBlock: ZUJKAS_clean_linker_0, # of connection points: 2
#     Edge 71, Type (0, 1), BuildingBlock: ZUJKAS_clean_linker_0, # of connection points: 2
#     Edge 72, Type (0, 1), BuildingBlock: ZUJKAS_clean_linker_0, # of connection points: 2
#     Edge 73, Type (0, 1), BuildingBlock: ZUJKAS_clean_linker_0, # of connection points: 2
#     Edge 74, Type (0, 1), BuildingBlock: ZUJKAS_clean_linker_0, # of connection points: 2
#     Edge 75, Type (0, 1), BuildingBlock: ZUJKAS_clean_linker_0, # of connection points: 2
#     Edge 76, Type (0, 1), BuildingBlock: ZUJKAS_clean_linker_0, # of connection points: 2
#     Edge 77, Type (0, 1), BuildingBlock: ZUJKAS_clean_linker_0, # of connection points: 2
#     Edge 78, Type (0, 1), BuildingBlock: ZUJKAS_clean_linker_0, # of connection points: 2
#     Edge 79, Type (0, 1), BuildingBlock: ZUJKAS_clean_linker_0, # of connection points: 2
#     Edge 80, Type (0, 1), BuildingBlock: ZUJKAS_clean_linker_0, # of connection points: 2
#     Edge 81, Type (0, 1), BuildingBlock: ZUJKAS_clean_linker_0, # of connection points: 2
#     Edge 82, Type (0, 1), BuildingBlock: ZUJKAS_clean_linker_0, # of connection points: 2
#     Edge 83, Type (0, 1), BuildingBlock: ZUJKAS_clean_linker_0, # of connection points: 2
#     Edge 84, Type (0, 1), BuildingBlock: ZUJKAS_clean_linker_0, # of connection points: 2
#     Edge 85, Type (0, 1), BuildingBlock: ZUJKAS_clean_linker_0, # of connection points: 2
#     Edge 86, Type (0, 1), BuildingBlock: ZUJKAS_clean_linker_0, # of connection points: 2
#     Edge 87, Type (0, 1), BuildingBlock: ZUJKAS_clean_linker_0, # of connection points: 2
#     Edge 88, Type (0, 1), BuildingBlock: ZUJKAS_clean_linker_0, # of connection points: 2
#     Edge 89, Type (0, 1), BuildingBlock: ZUJKAS_clean_linker_0, # of connection points: 2
#     Edge 90, Type (0, 1), BuildingBlock: ZUJKAS_clean_linker_0, # of connection points: 2
#     Edge 91, Type (0, 1), BuildingBlock: ZUJKAS_clean_linker_0, # of connection points: 2
#     Edge 92, Type (0, 1), BuildingBlock: ZUJKAS_clean_linker_0, # of connection points: 2
#     Edge 93, Type (0, 1), BuildingBlock: ZUJKAS_clean_linker_0, # of connection points: 2
#     Edge 94, Type (0, 1), BuildingBlock: ZUJKAS_clean_linker_0, # of connection points: 2
#     Edge 95, Type (0, 1), BuildingBlock: ZUJKAS_clean_linker_0, # of connection points: 2
#     Edge 96, Type (0, 1), BuildingBlock: ZUJKAS_clean_linker_0, # of connection points: 2
#     Edge 97, Type (0, 1), BuildingBlock: ZUJKAS_clean_linker_0, # of connection points: 2
#     Edge 98, Type (0, 1), BuildingBlock: ZUJKAS_clean_linker_0, # of connection points: 2
#     Edge 99, Type (0, 1), BuildingBlock: ZUJKAS_clean_linker_0, # of connection points: 2
#     Edge 100, Type (0, 1), BuildingBlock: ZUJKAS_clean_linker_0, # of connection points: 2
#     Edge 101, Type (0, 1), BuildingBlock: ZUJKAS_clean_linker_0, # of connection points: 2
#     Edge 102, Type (0, 1), BuildingBlock: ZUJKAS_clean_linker_0, # of connection points: 2
#     Edge 103, Type (0, 1), BuildingBlock: ZUJKAS_clean_linker_0, # of connection points: 2
#     Edge 104, Type (0, 1), BuildingBlock: ZUJKAS_clean_linker_0, # of connection points: 2
#     Edge 105, Type (0, 1), BuildingBlock: ZUJKAS_clean_linker_0, # of connection points: 2
#     Edge 106, Type (0, 1), BuildingBlock: ZUJKAS_clean_linker_0, # of connection points: 2
#     Edge 107, Type (0, 1), BuildingBlock: ZUJKAS_clean_linker_0, # of connection points: 2
#     Edge 108, Type (0, 1), BuildingBlock: ZUJKAS_clean_linker_0, # of connection points: 2
#     Edge 109, Type (0, 1), BuildingBlock: ZUJKAS_clean_linker_0, # of connection points: 2
#     Edge 110, Type (0, 1), BuildingBlock: ZUJKAS_clean_linker_0, # of connection points: 2
#     Edge 111, Type (0, 1), BuildingBlock: ZUJKAS_clean_linker_0, # of connection points: 2
#     Edge 112, Type (0, 1), BuildingBlock: ZUJKAS_clean_linker_0, # of connection points: 2
#     Edge 113, Type (0, 1), BuildingBlock: ZUJKAS_clean_linker_0, # of connection points: 2
#     Edge 114, Type (0, 1), BuildingBlock: ZUJKAS_clean_linker_0, # of connection points: 2
#     Edge 115, Type (0, 1), BuildingBlock: ZUJKAS_clean_linker_0, # of connection points: 2
#     Edge 116, Type (0, 1), BuildingBlock: ZUJKAS_clean_linker_0, # of connection points: 2
#     Edge 117, Type (0, 1), BuildingBlock: ZUJKAS_clean_linker_0, # of connection points: 2
#     Edge 118, Type (0, 1), BuildingBlock: ZUJKAS_clean_linker_0, # of connection points: 2
#     Edge 119, Type (0, 1), BuildingBlock: ZUJKAS_clean_linker_0, # of connection points: 2
#     Edge 120, Type (0, 1), BuildingBlock: ZUJKAS_clean_linker_0, # of connection points: 2
#     Edge 121, Type (0, 1), BuildingBlock: ZUJKAS_clean_linker_0, # of connection points: 2
#     Edge 122, Type (0, 1), BuildingBlock: ZUJKAS_clean_linker_0, # of connection points: 2
#     Edge 123, Type (0, 1), BuildingBlock: ZUJKAS_clean_linker_0, # of connection points: 2
#     Edge 124, Type (0, 1), BuildingBlock: ZUJKAS_clean_linker_0, # of connection points: 2
#     Edge 125, Type (0, 1), BuildingBlock: ZUJKAS_clean_linker_0, # of connection points: 2
#     Edge 126, Type (0, 1), BuildingBlock: ZUJKAS_clean_linker_0, # of connection points: 2
#     Edge 127, Type (0, 1), BuildingBlock: ZUJKAS_clean_linker_0, # of connection points: 2
#     Edge 128, Type (0, 1), BuildingBlock: ZUJKAS_clean_linker_0, # of connection points: 2
#     Edge 129, Type (0, 1), BuildingBlock: ZUJKAS_clean_linker_0, # of connection points: 2
#     Edge 130, Type (0, 1), BuildingBlock: ZUJKAS_clean_linker_0, # of connection points: 2
#     Edge 131, Type (0, 1), BuildingBlock: ZUJKAS_clean_linker_0, # of connection points: 2
#     Edge 132, Type (0, 1), BuildingBlock: ZUJKAS_clean_linker_0, # of connection points: 2
#     Edge 133, Type (0, 1), BuildingBlock: ZUJKAS_clean_linker_0, # of connection points: 2
#     Edge 134, Type (0, 1), BuildingBlock: ZUJKAS_clean_linker_0, # of connection points: 2
#     Edge 135, Type (0, 1), BuildingBlock: ZUJKAS_clean_linker_0, # of connection points: 2
# Relax obj value: 0.113
# Max RMSD: 0.306
# Mean RMSD: 0.147
data_MOF--net-gar--node1-CEKHIL_clean_sbu_0--node2-KUMJIN_clean_sbu_0--edge1-ZUJKAS_clean_linker_0
_symmetry_space_group_name_H-M    P1
_symmetry_Int_Tables_number       1
_symmetry_cell_setting            triclinic
loop_
_symmetry_equiv_pos_as_xyz
'x, y, z'
_cell_length_a     77.397948
_cell_length_b     71.790601
_cell_length_c     71.10612
_cell_angle_alpha  99.669115
_cell_angle_beta   93.193497
_cell_angle_gamma 101.63256
loop_
_atom_site_label
_atom_site_type_symbol
_atom_site_fract_x
_atom_site_fract_y
_atom_site_fract_z
_atom_type_partial_charge
Co0 Co 0.10287 0.31447 0.38372 0.0
O1 O 0.1271 0.312 0.38497 0.0
O2 O 0.10749 0.30006 0.35972 0.0
C3 C 0.10817 0.34626 0.39599 0.0
O4 O 0.07707 0.3151 0.37689 0.0
Co5 Co 0.08536 0.32653 0.42089 0.0
O6 O 0.06692 0.33085 0.40259 0.0
C7 C 0.09236 0.28727 0.41151 0.0
C8 C 0.12366 0.30278 0.3674 0.0
C9 C 0.06534 0.32344 0.38481 0.0
O10 O 0.09595 0.29002 0.39458 0.0
O11 O 0.08935 0.30059 0.42451 0.0
O12 O 0.10978 0.34047 0.37798 0.0
O13 O 0.10527 0.33285 0.40616 0.0
Co14 Co 1.00564 0.77431 0.66227 0.0
O15 O 0.98052 0.77271 0.662 0.0
O16 O 0.99797 0.77111 0.68719 0.0
C17 C 0.01144 0.79955 0.64669 0.0
O18 O 0.03203 0.77591 0.66817 0.0
Co19 Co 0.02351 0.76805 0.62411 0.0
O20 O 0.04592 0.7748 0.64117 0.0
C21 C 1.00068 0.73539 0.63686 0.0
C22 C 0.98211 0.77073 0.67979 0.0
C23 C 0.04615 0.77641 0.65933 0.0
O24 O 1.00146 0.74538 0.6538 0.0
O25 O 1.00665 0.74254 0.62259 0.0
O26 O 0.00996 0.8027 0.66504 0.0
O27 O 0.00802 0.78166 0.63853 0.0
Co28 Co 0.60547 0.82207 0.89384 0.0
O29 O 0.62968 0.81948 0.89332 0.0
O30 O 0.60797 0.8042 0.87105 0.0
C31 C 0.61099 0.85461 0.90121 0.0
O32 O 0.57925 0.82203 0.88901 0.0
Co33 Co 0.59179 0.8403 0.93153 0.0
O34 O 0.57134 0.84135 0.91387 0.0
C35 C 0.59893 0.80111 0.92725 0.0
C36 C 0.62472 0.80788 0.87699 0.0
C37 C 0.56819 0.8314 0.89694 0.0
O38 O 0.60016 0.80051 0.90916 0.0
O39 O 0.59751 0.81632 0.93882 0.0
O40 O 0.61105 0.84604 0.88361 0.0
O41 O 0.60965 0.84344 0.91374 0.0
Co42 Co 0.51347 0.28568 0.16757 0.0
O43 O 0.4882 0.28236 0.16724 0.0
O44 O 0.50581 0.27804 0.19106 0.0
C45 C 0.51831 0.31403 0.15696 0.0
O46 O 0.53988 0.28828 0.17354 0.0
Co47 Co 0.53261 0.28703 0.13039 0.0
O48 O 0.55474 0.29252 0.14778 0.0
C49 C 0.51243 0.24987 0.13773 0.0
C50 C 0.48988 0.27795 0.18414 0.0
C51 C 0.55437 0.29123 0.16543 0.0
O52 O 0.51087 0.25775 0.15502 0.0
O53 O 0.51893 0.25951 0.12521 0.0
O54 O 0.51646 0.31377 0.17499 0.0
O55 O 0.51579 0.29732 0.14596 0.0
Co56 Co 0.08228 0.81795 0.12797 0.0
O57 O 0.05653 0.81408 0.12444 0.0
O58 O 0.07143 0.811 0.15058 0.0
C59 C 0.08708 0.84672 0.11614 0.0
O60 O 0.1084 0.82117 0.13878 0.0
Co61 Co 0.10663 0.81904 0.09661 0.0
O62 O 0.12715 0.82449 0.11623 0.0
C63 C 0.0862 0.78092 0.1012 0.0
C64 C 0.05617 0.81056 0.14176 0.0
C65 C 0.1243 0.82354 0.13352 0.0
O66 O 0.0809 0.78934 0.1167 0.0
O67 O 0.09553 0.79055 0.09032 0.0
O68 O 0.08416 0.84613 0.13387 0.0
O69 O 0.08681 0.82993 0.10578 0.0
Co70 Co 0.53095 0.77809 0.41973 0.0
O71 O 0.55674 0.78306 0.42337 0.0
O72 O 0.54097 0.76858 0.3963 0.0
C73 C 0.52885 0.80883 0.43368 0.0
O74 O 0.50448 0.77224 0.40886 0.0
Co75 Co 0.50735 0.77943 0.45218 0.0
O76 O 0.48798 0.77975 0.43276 0.0
C77 C 0.52466 0.74622 0.44482 0.0
C78 C 0.55657 0.77552 0.40542 0.0
C79 C 0.48963 0.77526 0.41496 0.0
O80 O 0.52927 0.7518 0.429 0.0
O81 O 0.51681 0.75626 0.45678 0.0
O82 O 0.53234 0.80477 0.416 0.0
O83 O 0.52793 0.7946 0.44295 0.0
Co84 Co 0.58324 0.31964 0.62767 0.0
O85 O 0.5574 0.31542 0.62439 0.0
O86 O 0.57265 0.31326 0.65065 0.0
C87 C 0.58751 0.34799 0.61496 0.0
O88 O 0.60951 0.32345 0.63846 0.0
Co89 Co 0.60751 0.32035 0.59634 0.0
O90 O 0.62818 0.32729 0.61592 0.0
C91 C 0.58721 0.28229 0.60144 0.0
C92 C 0.55726 0.31246 0.64192 0.0
C93 C 0.62545 0.32643 0.63326 0.0
O94 O 0.58204 0.29087 0.61695 0.0
O95 O 0.59643 0.29182 0.59039 0.0
O96 O 0.5848 0.34783 0.63281 0.0
O97 O 0.58743 0.33105 0.60504 0.0
Co98 Co 0.02856 0.27593 0.92254 0.0
O99 O 0.05431 0.28002 0.9254 0.0
O100 O 0.03769 0.26565 0.8988 0.0
C101 C 0.0276 0.30704 0.93636 0.0
O102 O 1.00186 0.27076 0.91259 0.0
Co103 Co 1.00617 0.27857 0.95597 0.0
O104 O 0.98678 0.28011 0.93716 0.0
C105 C 0.02234 0.24455 0.94814 0.0
C106 C 0.05354 0.27209 0.90748 0.0
C107 C 0.98758 0.27496 0.91925 0.0
O108 O 0.02659 0.24982 0.9321 0.0
O109 O 0.01505 0.25497 0.96036 0.0
O110 O 0.03049 0.30257 0.91853 0.0
O111 O 0.0266 0.29295 0.94582 0.0
Co112 Co 0.41944 0.05405 0.30226 0.0
O113 O 0.41569 0.07832 0.29629 0.0
O114 O 0.39578 0.05063 0.29066 0.0
C115 C 0.43291 0.06639 0.33192 0.0
O116 O 0.41713 0.02649 0.30647 0.0
Co117 Co 0.45574 0.04445 0.3125 0.0
O118 O 0.44234 0.01915 0.31683 0.0
C119 C 0.44339 0.04361 0.27194 0.0
C120 C 0.39972 0.06888 0.28976 0.0
C121 C 0.42574 0.01458 0.31206 0.0
O122 O 0.42835 0.04717 0.27646 0.0
O123 O 0.45597 0.04311 0.28419 0.0
O124 O 0.41569 0.06237 0.32913 0.0
O125 O 0.44127 0.06363 0.31689 0.0
Co126 Co 0.29781 0.18293 0.50756 0.0
O127 O 0.32335 0.18618 0.51207 0.0
O128 O 0.30374 0.1604 0.51575 0.0
C129 C 0.29823 0.19319 0.47886 0.0
O130 O 0.27085 0.173 0.50381 0.0
Co131 Co 0.2786 0.21592 0.50357 0.0
O132 O 0.2567 0.19551 0.49644 0.0
C133 C 0.29221 0.2119 0.5422 0.0
C134 C 0.32027 0.16892 0.51622 0.0
C135 C 0.25655 0.17836 0.49905 0.0
O136 O 0.2965 0.19585 0.53511 0.0
O137 O 0.28614 0.22248 0.53177 0.0
O138 O 0.29916 0.17551 0.4799 0.0
O139 O 0.29803 0.2043 0.49511 0.0
Co140 Co 0.17812 0.01104 0.77796 0.0
O141 O 0.1754 0.9819 0.7754 0.0
O142 O 0.19968 1.00045 0.77093 0.0
C143 C 0.16537 0.01566 0.8083 0.0
O144 O 0.18928 0.04105 0.78026 0.0
Co145 Co 0.14954 0.0349 0.78121 0.0
O146 O 0.16861 0.05865 0.7854 0.0
C147 C 0.15363 0.01545 0.74191 0.0
C148 C 0.19193 0.98294 0.77215 0.0
C149 C 0.18465 0.05776 0.7832 0.0
O150 O 0.16753 0.00966 0.74883 0.0
O151 O 0.14424 0.02422 0.75309 0.0
O152 O 0.18154 0.01344 0.80687 0.0
O153 O 0.15718 0.01425 0.79161 0.0
Co154 Co 0.31248 0.9301 0.03284 0.0
O155 O 0.28803 0.92786 0.0381 0.0
O156 O 0.30831 0.95517 0.04378 0.0
C157 C 0.307 0.91206 1.00305 0.0
O158 O 0.33859 0.93853 0.02841 0.0
Co159 Co 0.3297 0.89428 0.02476 0.0
O160 O 0.34899 0.9125 0.016 0.0
C161 C 0.32423 0.9104 0.06461 0.0
C162 C 0.29187 0.94647 0.04395 0.0
C163 C 0.35071 0.93076 0.02063 0.0
O164 O 0.31897 0.92476 0.05916 0.0
O165 O 0.32786 0.89637 0.05295 0.0
O166 O 0.30589 0.93012 0.00585 0.0
O167 O 0.3098 0.9052 0.01831 0.0
Co168 Co 0.30754 0.40121 0.03427 0.0
O169 O 0.28201 0.39829 0.03192 0.0
O170 O 0.30102 0.42537 0.04465 0.0
C171 C 0.30945 0.38636 1.00381 0.0
O172 O 0.33457 0.41062 0.03808 0.0
Co173 Co 0.32561 0.36621 0.02984 0.0
O174 O 0.34758 0.3857 0.02894 0.0
C175 C 0.30843 0.37642 0.06511 0.0
C176 C 0.28464 0.41652 0.03947 0.0
C177 C 0.34842 0.40375 0.03425 0.0
O178 O 0.30676 0.39256 0.06022 0.0
O179 O 0.31412 0.36338 0.0541 0.0
O180 O 0.30825 0.40438 0.00746 0.0
O181 O 0.30803 0.37757 0.01825 0.0
Co182 Co 0.80075 0.14877 0.00926 0.0
O183 O 0.82564 0.14879 0.01083 0.0
O184 O 0.80507 0.12715 0.02046 0.0
C185 C 0.79906 0.15408 0.97888 0.0
O186 O 0.77382 0.14357 0.00932 0.0
Co187 Co 0.78693 0.18506 1.00213 0.0
O188 O 0.76324 0.16742 0.99903 0.0
C189 C 0.80426 0.18434 0.04004 0.0
C190 C 0.82168 0.13322 0.01809 0.0
C191 C 0.76086 0.15105 1.00433 0.0
O192 O 0.80379 0.1661 0.03525 0.0
O193 O 0.79984 0.19464 0.02829 0.0
O194 O 0.7982 0.13662 0.98207 0.0
O195 O 0.80204 0.16753 0.99387 0.0
Co196 Co 0.19168 0.53348 0.2607 0.0
O197 O 0.19443 0.50727 0.25927 0.0
O198 O 0.21082 0.52921 0.24543 0.0
C199 C 0.18928 0.53966 0.29232 0.0
O200 O 0.19365 0.56193 0.2597 0.0
Co201 Co 0.15771 0.54664 0.27377 0.0
O202 O 0.17201 0.57316 0.27467 0.0
C203 C 0.15703 0.52287 0.2355 0.0
C204 C 0.20745 0.5117 0.24894 0.0
C205 C 0.18639 0.57589 0.26662 0.0
O206 O 0.17403 0.52535 0.23732 0.0
O207 O 0.14807 0.52859 0.24909 0.0
O208 O 0.20489 0.54119 0.28609 0.0
O209 O 0.17598 0.53308 0.2796 0.0
Co210 Co 0.80516 0.90177 0.53402 0.0
O211 O 0.77963 0.8989 0.53173 0.0
O212 O 0.79863 0.92571 0.54518 0.0
C213 C 0.80693 0.88766 0.50321 0.0
O214 O 0.8322 0.91119 0.53792 0.0
Co215 Co 0.82329 0.86684 0.52843 0.0
O216 O 0.84532 0.88651 0.52821 0.0
C217 C 0.80606 0.87587 0.56389 0.0
C218 C 0.78226 0.91699 0.53979 0.0
C219 C 0.8461 0.90448 0.53397 0.0
O220 O 0.80444 0.89228 0.5596 0.0
O221 O 0.81166 0.86309 0.55245 0.0
O222 O 0.80581 0.90568 0.50738 0.0
O223 O 0.80563 0.87848 0.51738 0.0
Co224 Co 0.93235 0.07336 0.2819 0.0
O225 O 0.9351 0.10254 0.28523 0.0
O226 O 0.91049 0.08274 0.27438 0.0
C227 C 0.94663 0.07177 0.31249 0.0
O228 O 0.92117 0.04322 0.27786 0.0
Co229 Co 0.96143 0.05014 0.28109 0.0
O230 O 0.94256 0.02737 0.28321 0.0
C231 C 0.95541 0.06634 0.24636 0.0
C232 C 0.9185 0.10079 0.27931 0.0
C233 C 0.92618 0.02734 0.28013 0.0
O234 O 0.94133 0.07145 0.25363 0.0
O235 O 0.96587 0.05904 0.25608 0.0
O236 O 0.93055 0.07456 0.31045 0.0
O237 O 0.95399 0.07168 0.29658 0.0
Co238 Co 0.30063 0.65066 0.5144 0.0
O239 O 0.32578 0.65224 0.51631 0.0
O240 O 0.30632 0.63137 0.5283 0.0
C241 C 0.2981 0.65212 0.48303 0.0
O242 O 0.27373 0.64405 0.51461 0.0
Co243 Co 0.28417 0.68359 0.50265 0.0
O244 O 0.26167 0.66397 0.4993 0.0
C245 C 0.29982 0.68741 0.54246 0.0
C246 C 0.32271 0.63781 0.52535 0.0
C247 C 0.26022 0.64912 0.5072 0.0
O248 O 0.30304 0.6703 0.53888 0.0
O249 O 0.29324 0.69544 0.52983 0.0
O250 O 0.29823 0.63568 0.48833 0.0
O251 O 0.30068 0.66705 0.49658 0.0
Co252 Co 0.43256 0.57474 0.77764 0.0
O253 O 0.43506 0.60396 0.78149 0.0
O254 O 0.41047 0.58412 0.77082 0.0
C255 C 0.44736 0.57272 0.8078 0.0
O256 O 0.42165 0.54451 0.77323 0.0
Co257 Co 0.46192 0.55176 0.77578 0.0
O258 O 0.44335 0.52914 0.77889 0.0
C259 C 0.45459 0.56758 0.74114 0.0
C260 C 0.41837 0.60218 0.77592 0.0
C261 C 0.42691 0.52883 0.77576 0.0
O262 O 0.44107 0.57328 0.7492 0.0
O263 O 0.46511 0.55978 0.75018 0.0
O264 O 0.43123 0.57543 0.80619 0.0
O265 O 0.45447 0.573 0.79178 0.0
Co266 Co 0.68493 0.03613 0.74509 0.0
O267 O 0.6808 0.00895 0.74618 0.0
O268 O 0.70696 0.02774 0.74447 0.0
C269 C 0.66814 0.04405 0.76874 0.0
O270 O 0.69502 0.06457 0.74498 0.0
Co271 Co 0.65516 0.05744 0.73582 0.0
O272 O 0.67339 0.08124 0.74549 0.0
C273 C 0.66874 0.03302 0.70463 0.0
C274 C 0.69784 0.01082 0.74591 0.0
C275 C 0.68972 0.0806 0.74672 0.0
O276 O 0.68077 0.02992 0.71622 0.0
O277 O 0.65703 0.04262 0.70985 0.0
O278 O 0.68422 0.04224 0.77284 0.0
O279 O 0.66241 0.03975 0.75084 0.0
Co280 Co 0.80033 0.68131 0.00687 0.0
O281 O 0.82586 0.68462 0.01155 0.0
O282 O 0.80623 0.65901 0.01558 0.0
C283 C 0.80078 0.69096 0.97784 0.0
O284 O 0.77342 0.67139 1.00295 0.0
Co285 Co 0.78141 0.71441 1.0025 0.0
O286 O 0.75946 0.69403 0.99549 0.0
C287 C 0.79455 0.71058 0.04131 0.0
C288 C 0.82278 0.66749 0.01601 0.0
C289 C 0.7592 0.67686 0.99812 0.0
O290 O 0.79875 0.69445 0.03429 0.0
O291 O 0.78876 0.72123 0.03077 0.0
O292 O 0.80186 0.67343 0.97933 0.0
O293 O 0.8006 0.7024 0.99392 0.0
Co294 Co 0.92372 0.56407 0.80482 0.0
O295 O 0.92739 0.59042 0.80089 0.0
O296 O 0.90206 0.56875 0.79383 0.0
C297 C 0.93771 0.57133 0.83454 0.0
O298 O 0.91432 0.53602 0.80722 0.0
Co299 Co 0.95447 0.54366 0.81282 0.0
O300 O 0.93571 0.52259 0.81819 0.0
C301 C 0.94461 0.54873 0.77332 0.0
C302 C 0.91082 0.58631 0.79427 0.0
C303 C 0.91953 0.52188 0.81309 0.0
O304 O 0.93124 0.55574 0.77861 0.0
O305 O 0.95571 0.54423 0.78488 0.0
O306 O 0.92122 0.57253 0.832 0.0
O307 O 0.94525 0.56679 0.81925 0.0
Co308 Co 0.81019 0.43958 0.52265 0.0
O309 O 0.78579 0.44108 0.52486 0.0
O310 O 0.80874 0.46587 0.53256 0.0
C311 C 0.80634 0.42137 0.49309 0.0
O312 O 0.83693 0.44411 0.52141 0.0
Co313 Co 0.8223 0.40044 0.51837 0.0
O314 O 0.84488 0.41577 0.51211 0.0
C315 C 0.81114 0.41746 0.55512 0.0
C316 C 0.79167 0.45949 0.53113 0.0
C317 C 0.84845 0.43421 0.51579 0.0
O318 O 0.81211 0.43372 0.54944 0.0
O319 O 0.81294 0.40202 0.54416 0.0
O320 O 0.80734 0.43991 0.49517 0.0
O321 O 0.80591 0.41442 0.50868 0.0
Co322 Co 0.67673 0.50676 0.27246 0.0
O323 O 0.67409 0.47765 0.27009 0.0
O324 O 0.69839 0.4962 0.26568 0.0
C325 C 0.6638 0.51147 0.30277 0.0
O326 O 0.68788 0.53673 0.27473 0.0
Co327 Co 0.64825 0.53051 0.27535 0.0
O328 O 0.66735 0.55428 0.28093 0.0
C329 C 0.65265 0.51122 0.23606 0.0
C330 C 0.69065 0.4787 0.26694 0.0
C331 C 0.68336 0.55344 0.27844 0.0
O332 O 0.66635 0.50524 0.24318 0.0
O333 O 0.64328 0.52016 0.24713 0.0
O334 O 0.68004 0.50945 0.30144 0.0
O335 O 0.65564 0.50985 0.28601 0.0
Eu336 Eu 0.03875 0.02813 0.01423 0.0
C337 C 0.08183 0.10042 0.06685 0.0
C338 C 0.08352 0.12517 0.04722 0.0
C339 C 0.08362 0.13395 0.08174 0.0
C340 C 0.08173 0.10556 0.04889 0.0
C341 C 0.08347 0.11472 0.08349 0.0
C342 C 0.08366 0.13917 0.06363 0.0
C343 C 0.08762 0.09071 0.10237 0.0
N344 N 0.08214 0.08182 0.06812 0.0
C345 C 0.08596 0.07704 0.08551 0.0
C346 C 0.08592 0.10951 0.10139 0.0
Eu347 Eu 0.07838 0.0596 0.03867 0.0
N348 N 0.08198 0.09179 0.03332 0.0
C349 C 0.08651 0.09706 0.01635 0.0
C350 C 0.08628 0.13032 0.02933 0.0
C351 C 0.08831 0.11628 0.01397 0.0
H352 H 0.08747 0.06261 0.08648 0.0
H353 H 0.09118 0.12023 1.00026 0.0
H354 H 0.08471 0.15423 0.06256 0.0
H355 H 0.09019 0.08672 0.11611 0.0
H356 H 0.08818 0.08641 1.00437 0.0
H357 H 0.02174 0.97338 0.05987 0.0
H358 H 0.08774 0.14521 0.02746 0.0
H359 H 0.03303 0.02011 0.96598 0.0
H360 H 0.02697 1.00571 0.05247 0.0
H361 H 0.03103 0.99315 0.93881 0.0
H362 H 0.0846 0.14506 0.09435 0.0
H363 H 0.02415 0.94548 0.03534 0.0
H364 H 0.02821 0.93253 1.00142 0.0
H365 H 0.0873 0.1201 0.11448 0.0
H366 H 0.03081 0.9379 0.96838 0.0
N367 N 0.03304 0.9972 0.02366 0.0
C368 C 0.02823 0.99411 0.04133 0.0
C369 C 0.02654 0.95986 0.03187 0.0
C370 C 0.03015 0.96277 0.01343 0.0
C371 C 0.02515 0.97554 0.04573 0.0
C372 C 0.03304 0.9818 0.00957 0.0
H373 H 0.03139 0.9603 0.94487 0.0
N374 N 0.03531 1.00287 0.98724 0.0
C375 C 0.03211 0.9906 0.95336 0.0
C376 C 0.03436 0.98475 0.99087 0.0
C377 C 0.03323 1.00582 0.96878 0.0
C378 C 0.03239 0.97211 0.95686 0.0
C379 C 0.03305 0.96888 0.97573 0.0
O380 O 0.01187 0.01665 1.00044 0.0
O381 O 0.05314 0.05927 0.02115 0.0
O382 O 0.05692 0.0622 0.06034 0.0
O383 O 0.03393 0.03641 0.04651 0.0
O384 O 0.04163 0.04903 0.99335 0.0
O385 O 0.01716 0.04283 0.02156 0.0
O386 O 0.10051 0.0447 0.04026 0.0
O387 O 0.0643 0.0282 0.03072 0.0
O388 O 0.06067 0.02602 0.99303 0.0
O389 O 0.08303 0.05253 0.00619 0.0
O390 O 0.07564 0.03801 0.0587 0.0
O391 O 0.10589 0.07512 0.03982 0.0
C392 C 0.05027 0.06423 1.00501 0.0
C393 C 0.98871 0.02277 0.01932 0.0
C394 C 0.95978 0.02747 0.02879 0.0
C395 C 0.97555 0.03371 0.0205 0.0
C396 C 0.95752 0.01018 0.0361 0.0
C397 C 0.98609 1.00548 0.02652 0.0
C398 C 0.97061 0.9993 0.03495 0.0
C399 C 0.0412 0.05061 0.0612 0.0
C400 C 1.00507 0.02968 0.01062 0.0
C401 C 0.03158 0.9502 0.97979 0.0
C402 C 0.0301 0.94714 0.99861 0.0
C403 C 0.06701 0.02298 0.04678 0.0
C404 C 0.12743 0.06349 0.05683 0.0
C405 C 0.14014 0.05193 0.05472 0.0
C406 C 0.15476 0.0552 0.06851 0.0
C407 C 0.15623 0.06994 0.08465 0.0
C408 C 0.12938 0.07831 0.07294 0.0
C409 C 0.14361 0.08136 0.08682 0.0
C410 C 0.07605 0.03797 0.99178 0.0
C411 C 0.11267 0.06035 0.04178 0.0
H412 H 0.97766 0.04714 0.01505 0.0
H413 H 0.94547 1.00484 0.04235 0.0
H414 H 0.99591 0.99667 0.0255 0.0
H415 H 0.96867 0.98593 0.04045 0.0
H416 H 0.13888 0.04078 0.04208 0.0
H417 H 0.16715 0.07263 0.09566 0.0
H418 H 0.12004 0.08769 0.07472 0.0
H419 H 0.14496 0.09275 0.09923 0.0
Eu420 Eu 0.31214 0.78505 0.25685 0.0
C421 C 0.27948 0.84604 0.3046 0.0
C422 C 0.30393 0.87353 0.31453 0.0
C423 C 0.27427 0.87874 0.30839 0.0
C424 C 0.29744 0.85334 0.30916 0.0
C425 C 0.26762 0.85866 0.3049 0.0
C426 C 0.29241 0.88617 0.31326 0.0
C427 C 0.24342 0.83093 0.30175 0.0
N428 N 0.27341 0.82662 0.30188 0.0
C429 C 0.25568 0.81905 0.30177 0.0
C430 C 0.2494 0.85078 0.30283 0.0
Eu431 Eu 0.29504 0.80729 0.29991 0.0
N432 N 0.30823 0.84072 0.31049 0.0
C433 C 0.32504 0.84738 0.31928 0.0
C434 C 0.32149 0.88037 0.3223 0.0
C435 C 0.33182 0.86718 0.32537 0.0
H436 H 0.2509 0.80371 0.30099 0.0
H437 H 0.34487 0.87224 0.33288 0.0
H438 H 0.29725 0.90169 0.31697 0.0
H439 H 0.22938 0.82475 0.30093 0.0
H440 H 0.33331 0.83768 0.32219 0.0
H441 H 0.28173 0.78098 0.18457 0.0
H442 H 0.32687 0.89572 0.32699 0.0
H443 H 0.3222 0.7465 0.27511 0.0
H444 H 0.30108 0.79604 0.21436 0.0
H445 H 0.31196 0.71157 0.27031 0.0
H446 H 0.26539 0.88864 0.30837 0.0
H447 H 0.26597 0.74671 0.18008 0.0
H448 H 0.26116 0.71518 0.19194 0.0
H449 H 0.23988 0.85999 0.30299 0.0
H450 H 0.26958 0.69621 0.21534 0.0
N451 N 0.2956 0.77082 0.22689 0.0
C452 C 0.29423 0.78105 0.21245 0.0
C453 C 0.27436 0.75329 0.19318 0.0
C454 C 0.27713 0.74243 0.20724 0.0
C455 C 0.28328 0.7726 0.19562 0.0
C456 C 0.28818 0.7517 0.22406 0.0
H457 H 0.28891 0.69463 0.24421 0.0
N458 N 0.3047 0.75042 0.25242 0.0
C459 C 0.30634 0.71972 0.26098 0.0
C460 C 0.29296 0.74111 0.23718 0.0
C461 C 0.31202 0.73984 0.26376 0.0
C462 C 0.29334 0.71021 0.24626 0.0
C463 C 0.28675 0.72083 0.23387 0.0
O464 O 0.34109 0.79053 0.2614 0.0
O465 O 0.3147 0.81191 0.27886 0.0
O466 O 0.27706 0.8109 0.27448 0.0
O467 O 0.28624 0.79354 0.24734 0.0
O468 O 0.31372 0.81538 0.2508 0.0
O469 O 0.32869 0.78364 0.23281 0.0
O470 O 0.29627 0.7869 0.31935 0.0
O471 O 0.29578 0.77943 0.28068 0.0
O472 O 0.32596 0.77919 0.28404 0.0
O473 O 0.32432 0.80635 0.3058 0.0
O474 O 0.27113 0.78338 0.28857 0.0
O475 O 0.28862 0.81361 0.32962 0.0
C476 C 0.31553 0.82439 0.2683 0.0
C477 C 0.35506 0.80802 0.23946 0.0
C478 C 0.35894 0.83804 0.22666 0.0
C479 C 0.34841 0.82018 0.22864 0.0
C480 C 0.37632 0.84358 0.23559 0.0
C481 C 0.37252 0.81375 0.24805 0.0
C482 C 0.38306 0.83144 0.24612 0.0
C483 C 0.27535 0.80376 0.25581 0.0
C484 C 0.34346 0.79044 0.24354 0.0
C485 C 0.27471 0.71171 0.21791 0.0
C486 C 0.2699 0.7225 0.2046 0.0
C487 C 0.27944 0.77183 0.27876 0.0
C488 C 0.27396 0.78547 0.34042 0.0
C489 C 0.27511 0.76787 0.34596 0.0
C490 C 0.26039 0.75638 0.35222 0.0
C491 C 0.24431 0.76262 0.35265 0.0
C492 C 0.25785 0.79164 0.34127 0.0
C493 C 0.24311 0.78019 0.34725 0.0
C494 C 0.33193 0.79162 0.3002 0.0
C495 C 0.28944 0.79656 0.33297 0.0
H496 H 0.33488 0.81602 0.22214 0.0
H497 H 0.38482 0.85714 0.23417 0.0
H498 H 0.37785 0.80472 0.25663 0.0
H499 H 0.39647 0.83581 0.25292 0.0
H500 H 0.28749 0.76302 0.34519 0.0
H501 H 0.23281 0.75418 0.3576 0.0
H502 H 0.25656 0.8052 0.33725 0.0
H503 H 0.23073 0.785 0.34782 0.0
Eu504 Eu 0.57318 0.0484 0.51908 0.0
C505 C 0.51177 1.00203 0.55777 0.0
C506 C 0.49689 0.97493 0.53332 0.0
C507 C 0.49721 0.97198 0.56689 0.0
C508 C 0.50691 0.99404 0.53866 0.0
C509 C 0.50677 0.99118 0.57213 0.0
C510 C 0.4923 0.96386 0.54752 0.0
C511 C 0.5203 0.01941 0.59583 0.0
N512 N 0.52098 0.02062 0.56236 0.0
C513 C 0.52492 0.02959 0.58108 0.0
C514 C 0.5113 1.00007 0.59134 0.0
Eu515 Eu 0.52884 0.03664 0.53657 0.0
N516 N 0.5115 1.00514 0.52531 0.0
C517 C 0.50556 0.99844 0.50646 0.0
C518 C 0.49151 0.96765 0.51391 0.0
C519 C 0.4957 0.97954 0.50045 0.0
H520 H 0.53195 0.04449 0.58469 0.0
H521 H 0.4914 0.97416 0.48542 0.0
H522 H 0.4847 0.94912 0.54369 0.0
H523 H 0.5237 0.02647 0.61064 0.0
H524 H 0.50874 1.00744 0.49589 0.0
H525 H 0.60904 0.11022 0.57205 0.0
H526 H 0.48387 0.95303 0.50922 0.0
H527 H 0.57294 0.04116 0.47128 0.0
H528 H 0.59229 0.0768 0.56049 0.0
H529 H 0.58199 0.05982 0.44593 0.0
H530 H 0.49334 0.96337 0.57771 0.0
H531 H 0.61673 0.13225 0.54907 0.0
H532 H 0.61668 0.13705 0.51484 0.0
H533 H 0.50771 0.99223 0.6028 0.0
H534 H 0.60943 0.12331 0.48051 0.0
N535 N 0.59002 0.07997 0.53129 0.0
C536 C 0.59558 0.08622 0.55028 0.0
C537 C 0.60937 0.11758 0.54391 0.0
C538 C 0.60452 0.11071 0.52433 0.0
C539 C 0.60509 0.10518 0.55691 0.0
C540 C 0.59485 0.09153 0.51839 0.0
H541 H 0.59672 0.09445 0.45467 0.0
N542 N 0.58217 0.06507 0.49405 0.0
C543 C 0.5845 0.06677 0.46084 0.0
C544 C 0.59078 0.08383 0.49914 0.0
C545 C 0.57943 0.05624 0.47523 0.0
C546 C 0.59277 0.08633 0.46583 0.0
C547 C 0.59622 0.09505 0.48519 0.0
O548 O 0.58997 0.02994 0.50544 0.0
O549 O 0.54994 0.0249 0.52118 0.0
O550 O 0.5472 0.02241 0.5523 0.0
O551 O 0.57329 0.04422 0.55019 0.0
O552 O 0.56202 0.02169 0.4962 0.0
O553 O 0.59713 0.0448 0.53469 0.0
O554 O 0.5133 0.05637 0.5504 0.0
O555 O 0.55177 0.06043 0.5336 0.0
O556 O 0.55423 0.06011 0.50104 0.0
O557 O 0.52778 0.03972 0.50527 0.0
O558 O 0.54088 0.0631 0.55937 0.0
O559 O 0.50372 0.03918 0.52246 0.0
C560 C 0.54956 0.0136 0.50535 0.0
C561 C 0.62042 0.03747 0.51658 0.0
C562 C 0.6493 0.02832 0.51676 0.0
C563 C 0.63144 0.02503 0.52101 0.0
C564 C 0.65594 0.04443 0.50839 0.0
C565 C 0.62742 0.05344 0.50833 0.0
C566 C 0.6451 0.0569 0.50431 0.0
C567 C 0.56423 0.02968 0.5572 0.0
C568 C 0.6016 0.03351 0.5203 0.0
C569 C 0.60526 0.1144 0.49101 0.0
C570 C 0.60939 0.12223 0.51055 0.0
C571 C 0.55256 0.0716 0.5496 0.0
C572 C 0.48235 0.04889 0.54246 0.0
C573 C 0.47142 0.06167 0.53881 0.0
C574 C 0.45455 0.05999 0.54573 0.0
C575 C 0.44868 0.04519 0.55602 0.0
C576 C 0.47611 0.03411 0.55258 0.0
C577 C 0.45933 0.03227 0.55926 0.0
C578 C 0.53718 0.05241 0.49622 0.0
C579 C 0.50053 0.05176 0.5366 0.0
H580 H 0.62602 0.01262 0.52732 0.0
H581 H 0.66962 0.04751 0.50515 0.0
H582 H 0.61919 0.06316 0.50491 0.0
H583 H 0.65041 0.06926 0.49793 0.0
H584 H 0.47622 0.0732 0.53109 0.0
H585 H 0.43576 0.04356 0.56146 0.0
H586 H 0.48429 0.02418 0.55552 0.0
H587 H 0.45463 0.02088 0.56715 0.0
Eu588 Eu 0.28444 0.29842 0.7726 0.0
C589 C 0.3429 0.26536 0.81261 0.0
C590 C 0.3544 0.28996 0.84052 0.0
C591 C 0.35461 0.25633 0.84143 0.0
C592 C 0.34624 0.28443 0.8216 0.0
C593 C 0.34761 0.25115 0.82217 0.0
C594 C 0.35799 0.27574 0.85061 0.0
C595 C 0.34041 0.22843 0.79225 0.0
N596 N 0.33652 0.261 0.79393 0.0
C597 C 0.33597 0.24306 0.78342 0.0
C598 C 0.34593 0.23239 0.81181 0.0
Eu599 Eu 0.32841 0.28607 0.77983 0.0
N600 N 0.34295 0.29777 0.81125 0.0
C601 C 0.3492 0.31703 0.81835 0.0
C602 C 0.35948 0.30967 0.8484 0.0
C603 C 0.35721 0.32327 0.8371 0.0
H604 H 0.33157 0.23987 0.76832 0.0
H605 H 0.36155 0.33857 0.84284 0.0
H606 H 0.36402 0.27968 0.86524 0.0
H607 H 0.3395 0.21411 0.78397 0.0
H608 H 0.34751 0.32779 0.80994 0.0
H609 H 0.25087 0.24769 0.70885 0.0
H610 H 0.36573 0.31454 0.8629 0.0
H611 H 0.28171 0.34473 0.78543 0.0
H612 H 0.26527 0.25759 0.74176 0.0
H613 H 0.27422 0.37117 0.77056 0.0
H614 H 0.3581 0.24559 0.8491 0.0
H615 H 0.24679 0.27249 0.68966 0.0
H616 H 0.24923 0.30758 0.68809 0.0
H617 H 0.34944 0.22107 0.8186 0.0
H618 H 0.25561 0.34141 0.70499 0.0
N619 N 0.2702 0.28772 0.74106 0.0
C620 C 0.26371 0.2686 0.73358 0.0
C621 C 0.25334 0.27691 0.70405 0.0
C622 C 0.2588 0.29649 0.7123 0.0
C623 C 0.25551 0.2629 0.71488 0.0
C624 C 0.26709 0.30148 0.73117 0.0
H625 H 0.26446 0.3652 0.73594 0.0
N626 N 0.27684 0.32423 0.75935 0.0
C627 C 0.27325 0.35699 0.76194 0.0
C628 C 0.27058 0.32042 0.74064 0.0
C629 C 0.27745 0.34199 0.77031 0.0
C630 C 0.26783 0.35359 0.74238 0.0
C631 C 0.26602 0.33501 0.73156 0.0
O632 O 0.26729 0.30809 0.79414 0.0
O633 O 0.30571 0.29551 0.79401 0.0
O634 O 0.30779 0.26049 0.78695 0.0
O635 O 0.28133 0.26568 0.77337 0.0
O636 O 0.29464 0.31972 0.79978 0.0
O637 O 0.25848 0.28055 0.77558 0.0
O638 O 0.34551 0.27549 0.75869 0.0
O639 O 0.30703 0.28868 0.75837 0.0
O640 O 0.30499 0.32401 0.7655 0.0
O641 O 0.33144 0.31881 0.77905 0.0
O642 O 0.31799 0.26437 0.75295 0.0
O643 O 0.35382 0.30407 0.77537 0.0
C644 C 0.30591 0.31074 0.80606 0.0
C645 C 0.23626 0.297 0.78684 0.0
C646 C 0.2069 0.29768 0.79841 0.0
C647 C 0.22383 0.29308 0.80038 0.0
C648 C 0.20268 0.30588 0.78258 0.0
C649 C 0.23147 0.30507 0.77123 0.0
C650 C 0.21481 0.30945 0.76912 0.0
C651 C 0.29055 0.25447 0.78097 0.0
C652 C 0.25431 0.29309 0.78907 0.0
C653 C 0.25898 0.33037 0.7123 0.0
C654 C 0.25536 0.31111 0.70268 0.0
C655 C 0.30673 0.27326 0.7465 0.0
C656 C 0.37645 0.28778 0.76518 0.0
C657 C 0.38833 0.29027 0.75086 0.0
C658 C 0.4056 0.2866 0.75323 0.0
C659 C 0.41069 0.28077 0.77027 0.0
C660 C 0.38206 0.28195 0.78192 0.0
C661 C 0.39905 0.27852 0.78443 0.0
C662 C 0.32218 0.33008 0.77158 0.0
C663 C 0.35815 0.29091 0.76266 0.0
H664 H 0.22743 0.28687 0.81252 0.0
H665 H 0.18981 0.30937 0.78045 0.0
H666 H 0.24065 0.30804 0.76064 0.0
H667 H 0.21127 0.31568 0.75699 0.0
H668 H 0.38406 0.29469 0.73784 0.0
H669 H 0.42385 0.27813 0.77279 0.0
H670 H 0.37327 0.28005 0.79308 0.0
H671 H 0.40325 0.27407 0.79745 0.0
Eu672 Eu 0.04854 0.06251 0.53765 0.0
C673 C 0.07654 0.01153 0.47232 0.0
C674 C 0.05346 1.00431 0.44616 0.0
C675 C 0.08397 1.005 0.43939 0.0
C676 C 0.05896 0.00926 0.46596 0.0
C677 C 0.08924 0.0091 0.45913 0.0
C678 C 0.0661 1.00261 0.43291 0.0
C679 C 0.11116 0.01356 0.48591 0.0
N680 N 0.08114 0.01532 0.49148 0.0
C681 C 0.0981 0.01583 0.49842 0.0
C682 C 0.10676 0.0104 0.46618 0.0
Eu683 Eu 0.05849 0.01996 0.51193 0.0
N684 N 0.0471 0.01084 0.47915 0.0
C685 C 0.02935 1.00615 0.47348 0.0
C686 C 0.03536 1.00065 0.44028 0.0
C687 C 0.02323 1.00128 0.45404 0.0
H688 H 0.10178 0.01833 0.51361 0.0
H689 H 0.00917 0.99811 0.44969 0.0
H690 H 0.06214 0.999 0.41766 0.0
H691 H 0.12462 0.01432 0.49152 0.0
H692 H 0.01972 1.00659 0.48381 0.0
H693 H 0.10369 0.08691 0.59475 0.0
H694 H 0.03059 0.99686 0.42522 0.0
H695 H 1.00547 0.06352 0.5417 0.0
H696 H 0.09038 0.07923 0.56186 0.0
H697 H 0.98513 0.06579 0.56709 0.0
H698 H 0.09354 1.00323 0.42904 0.0
H699 H 0.08488 0.08509 0.62155 0.0
H700 H 0.05459 0.07972 0.63276 0.0
H701 H 0.11689 1.00862 0.45652 0.0
H702 H 0.02238 0.07416 0.62531 0.0
N703 N 0.06366 0.07201 0.5691 0.0
C704 C 0.08165 0.07812 0.573 0.0
C705 C 0.07878 0.08147 0.60695 0.0
C706 C 0.06038 0.0765 0.60306 0.0
C707 C 0.08943 0.08261 0.59187 0.0
C708 C 0.05306 0.07202 0.58376 0.0
H709 H 0.9965 0.0695 0.601 0.0
N710 N 0.02816 0.06588 0.56103 0.0
C711 C 0.99906 0.06663 0.57081 0.0
C712 C 0.03484 0.06889 0.57961 0.0
C713 C 0.01064 0.0655 0.55648 0.0
C714 C 1.00551 0.06862 0.58991 0.0
C715 C 0.02361 0.07012 0.59456 0.0
O716 O 0.05908 0.08628 0.52297 0.0
O717 O 0.04712 0.04593 0.5072 0.0
O718 O 0.07795 0.04479 0.50404 0.0
O719 O 0.07759 0.06734 0.53134 0.0
O720 O 0.02493 0.05579 0.51495 0.0
O721 O 0.0419 0.09088 0.54525 0.0
O722 O 0.0685 0.9967 0.52198 0.0
O723 O 0.05879 0.03625 0.54266 0.0
O724 O 0.02724 0.03756 0.54285 0.0
O725 O 0.02936 0.0141 0.51715 0.0
O726 O 0.08107 0.02643 0.53587 0.0
O727 O 0.04154 0.99112 0.50894 0.0
C728 C 0.03171 0.04739 0.50055 0.0
C729 C 0.03825 0.10507 0.51793 0.0
C730 C 0.03587 0.12393 0.49269 0.0
C731 C 0.04627 0.11755 0.50616 0.0
C732 C 0.01735 0.11745 0.49101 0.0
C733 C 0.0197 0.09899 0.51613 0.0
C734 C 0.00936 0.10509 0.50269 0.0
C735 C 0.08509 0.06111 0.51587 0.0
C736 C 0.04937 0.09752 0.53109 0.0
C737 C 0.03083 0.07343 0.61367 0.0
C738 C 0.04916 0.07659 0.61791 0.0
C739 C 0.07402 0.03489 0.54989 0.0
C740 C 0.05459 0.9641 0.50996 0.0
C741 C 0.05011 0.95076 0.52206 0.0
C742 C 0.0511 0.93134 0.51644 0.0
C743 C 0.05681 0.92546 0.49838 0.0
C744 C 0.06015 0.95815 0.49195 0.0
C745 C 0.06124 0.93882 0.4862 0.0
C746 C 0.02085 0.02083 0.53142 0.0
C747 C 0.05364 0.98413 0.51711 0.0
H748 H 0.06056 0.12238 0.50763 0.0
H749 H 0.00903 0.12182 0.48055 0.0
H750 H 0.01315 0.08934 0.52491 0.0
H751 H 0.9951 0.10016 0.50127 0.0
H752 H 0.04615 0.95567 0.53612 0.0
H753 H 0.05767 0.91056 0.49361 0.0
H754 H 0.06371 0.96839 0.48249 0.0
H755 H 0.06556 0.93417 0.47229 0.0
Eu756 Eu 0.32569 0.80973 0.7741 0.0
C757 C 0.27499 0.74627 0.80402 0.0
C758 C 0.28583 0.71761 0.79207 0.0
C759 C 0.27106 0.71949 0.82138 0.0
C760 C 0.28383 0.73647 0.79073 0.0
C761 C 0.26798 0.73765 0.81916 0.0
C762 C 0.27998 0.70947 0.80783 0.0
C763 C 0.25331 0.76423 0.82709 0.0
N764 N 0.27187 0.76353 0.80115 0.0
C765 C 0.2604 0.77205 0.81174 0.0
C766 C 0.25739 0.74713 0.83105 0.0
Eu767 Eu 0.28523 0.77681 0.77575 0.0
N768 N 0.28888 0.74461 0.77548 0.0
C769 C 0.29431 0.73382 0.7601 0.0
C770 C 0.29278 0.70713 0.77703 0.0
C771 C 0.29665 0.71511 0.76078 0.0
H772 H 0.25707 0.78519 0.80866 0.0
H773 H 0.30153 0.70692 0.7488 0.0
H774 H 0.28163 0.69512 0.80924 0.0
H775 H 0.24466 0.77136 0.83579 0.0
H776 H 0.2974 0.73972 0.74742 0.0
H777 H 0.30978 0.87979 0.8006 0.0
H778 H 0.29455 0.69261 0.7775 0.0
H779 H 0.35233 0.79967 0.73979 0.0
H780 H 0.31361 0.84686 0.80213 0.0
H781 H 0.36526 0.81362 0.71302 0.0
H782 H 0.26599 0.71273 0.83305 0.0
H783 H 0.31714 0.89398 0.77191 0.0
H784 H 0.33031 0.89129 0.74032 0.0
H785 H 0.25175 0.74099 0.84284 0.0
H786 H 0.34572 0.87334 0.71654 0.0
N787 N 0.32224 0.84187 0.77416 0.0
C788 C 0.31681 0.85275 0.78945 0.0
C789 C 0.31874 0.87942 0.77243 0.0
C790 C 0.32569 0.8688 0.75748 0.0
C791 C 0.31465 0.8715 0.78868 0.0
C792 C 0.32745 0.84988 0.75887 0.0
H793 H 0.35928 0.84464 0.70657 0.0
N794 N 0.33881 0.82235 0.74825 0.0
C795 C 0.357 0.82109 0.72197 0.0
C796 C 0.33614 0.83985 0.74554 0.0
C797 C 0.34964 0.81323 0.73718 0.0
C798 C 0.35353 0.83856 0.71833 0.0
C799 C 0.34326 0.84835 0.73038 0.0
O800 O 0.35339 0.808 0.77935 0.0
O801 O 0.31524 0.7791 0.78001 0.0
O802 O 0.29557 0.78658 0.80681 0.0
O803 O 0.31642 0.81396 0.80394 0.0
O804 O 0.33517 0.78236 0.76214 0.0
O805 O 0.34274 0.8289 0.7981 0.0
O806 O 0.25813 0.77998 0.76923 0.0
O807 O 0.29578 0.80735 0.76998 0.0
O808 O 0.31376 0.80153 0.74347 0.0
O809 O 0.29549 0.77265 0.74638 0.0
O810 O 0.27582 0.80428 0.78779 0.0
O811 O 0.26785 0.75724 0.7522 0.0
C812 C 0.32574 0.76984 0.7705 0.0
C813 C 0.37318 0.83702 0.79337 0.0
C814 C 0.40527 0.84726 0.80051 0.0
C815 C 0.38931 0.83384 0.80074 0.0
C816 C 0.40482 0.86388 0.79262 0.0
C817 C 0.37299 0.85372 0.78564 0.0
C818 C 0.38876 0.86705 0.78525 0.0
C819 C 0.30665 0.803 0.81422 0.0
C820 C 0.35685 0.82253 0.7936 0.0
C821 C 0.34053 0.86666 0.72822 0.0
C822 C 0.33174 0.87687 0.74175 0.0
C823 C 0.28541 0.81676 0.77949 0.0
C824 C 0.23719 0.75151 0.75637 0.0
C825 C 0.22153 0.75624 0.74966 0.0
C826 C 0.20498 0.74392 0.75 0.0
C827 C 0.20432 0.72676 0.75726 0.0
C828 C 0.23629 0.73442 0.76373 0.0
C829 C 0.2199 0.72212 0.76415 0.0
C830 C 0.30384 0.78447 0.73588 0.0
C831 C 0.2542 0.76479 0.75576 0.0
H832 H 0.38941 0.82078 0.80647 0.0
H833 H 0.41683 0.8746 0.79242 0.0
H834 H 0.3607 0.85649 0.77997 0.0
H835 H 0.38853 0.87992 0.77929 0.0
H836 H 0.22228 0.76941 0.74389 0.0
H837 H 0.19176 0.71705 0.75781 0.0
H838 H 0.24821 0.73057 0.7691 0.0
H839 H 0.21926 0.70894 0.76983 0.0
Eu840 Eu 0.56131 0.04041 0.03433 0.0
C841 C 0.50871 0.07839 0.99074 0.0
C842 C 0.48574 0.05201 0.97356 0.0
C843 C 0.47907 0.08359 0.98403 0.0
C844 C 0.5033 0.05924 0.98187 0.0
C845 C 0.49676 0.0909 0.99159 0.0
C846 C 0.47356 0.06418 0.97503 0.0
C847 C 0.52102 0.11724 0.00587 0.0
N848 N 0.52591 0.08503 0.99771 0.0
C849 C 0.53237 0.10428 1.00462 0.0
C850 C 0.50308 0.11049 0.99953 0.0
Eu851 Eu 0.54428 0.06225 0.99533 0.0
N852 N 0.51541 0.0479 0.98058 0.0
C853 C 0.51115 0.02959 0.97007 0.0
C854 C 0.48107 0.03294 0.96355 0.0
C855 C 0.49388 0.02174 0.96164 0.0
H856 H 0.54621 0.10955 0.00963 0.0
H857 H 0.49048 1.00706 0.95368 0.0
H858 H 0.45998 0.05883 0.96888 0.0
H859 H 0.5261 0.13241 0.01174 0.0
H860 H 0.52092 0.02078 0.96849 0.0
H861 H 0.61285 0.09908 0.07543 0.0
H862 H 0.46773 0.02688 0.9569 0.0
H863 H 0.56196 0.99363 0.02175 0.0
H864 H 0.58283 0.08332 0.06094 0.0
H865 H 0.58353 0.97239 0.02049 0.0
H866 H 0.46965 0.09293 0.98469 0.0
H867 H 0.63697 0.08109 0.07294 0.0
H868 H 0.64645 0.0498 0.06233 0.0
H869 H 0.49432 0.12056 1.00045 0.0
H870 H 0.63848 0.0153 0.04748 0.0
N871 N 0.58967 0.05656 0.0498 0.0
C872 C 0.59307 0.07514 0.05973 0.0
C873 C 0.62374 0.07402 0.06655 0.0
C874 C 0.61997 0.05468 0.05728 0.0
C875 C 0.61016 0.0842 0.06801 0.0
C876 C 0.60255 0.04621 0.04909 0.0
H877 H 0.61501 0.98625 0.03207 0.0
N878 N 0.58111 0.01918 0.03361 0.0
C879 C 0.58784 0.98771 0.02617 0.0
C880 C 0.59812 0.0269 0.0407 0.0
C881 C 0.57566 0.99974 0.02696 0.0
C882 C 0.60559 0.9956 0.03267 0.0
C883 C 0.6109 0.01538 0.04028 0.0
O884 O 0.54936 0.01896 0.05085 0.0
O885 O 0.53789 0.04224 0.01581 0.0
O886 O 0.53263 0.07299 0.02241 0.0
O887 O 0.55405 0.06947 0.04512 0.0
O888 O 0.53875 0.01513 0.02116 0.0
O889 O 0.55498 0.04959 0.06338 0.0
O890 O 0.55763 0.08313 0.97906 0.0
O891 O 0.56772 0.05967 0.01331 0.0
O892 O 0.57185 0.02854 0.00696 0.0
O893 O 0.55113 0.03306 0.9839 0.0
O894 O 0.56768 0.08689 0.00805 0.0
O895 O 0.5471 0.05333 0.965 0.0
C896 C 0.52945 0.02494 0.01285 0.0
C897 C 0.55376 0.02772 0.08462 0.0
C898 C 0.54579 0.02647 0.11705 0.0
C899 C 0.54189 0.02962 0.09851 0.0
C900 C 0.56176 0.02092 0.1214 0.0
C901 C 0.56975 0.02242 0.08905 0.0
C902 C 0.57367 0.01893 0.10743 0.0
C903 C 0.5404 0.07675 0.04009 0.0
C904 C 0.54897 0.03197 0.06591 0.0
C905 C 0.62842 0.02386 0.04781 0.0
C906 C 0.63296 0.0435 0.05627 0.0
C907 C 0.57674 0.07668 0.01609 0.0
C908 C 0.5485 0.07739 0.94602 0.0
C909 C 0.5576 0.07494 0.92969 0.0
C910 C 0.55231 0.0812 0.91304 0.0
C911 C 0.53775 0.09015 0.91301 0.0
C912 C 0.53388 0.08617 0.94584 0.0
C913 C 0.52856 0.09255 0.92935 0.0
C914 C 0.56409 0.02489 0.98928 0.0
C915 C 0.55475 0.07072 0.96297 0.0
H916 H 0.52947 0.03351 0.09477 0.0
H917 H 0.56514 0.01842 0.13562 0.0
H918 H 0.57911 0.02103 0.0784 0.0
H919 H 0.586 0.01481 0.1109 0.0
H920 H 0.56905 0.06838 0.93008 0.0
H921 H 0.53336 0.09507 0.90034 0.0
H922 H 0.52669 0.08818 0.95837 0.0
H923 H 0.51729 0.09936 0.92923 0.0
Eu924 Eu 0.32428 0.31355 0.28658 0.0
C925 C 0.25367 0.26586 0.23733 0.0
C926 C 0.2309 0.25858 0.25859 0.0
C927 C 0.22261 0.26116 0.22583 0.0
C928 C 0.24896 0.26311 0.25525 0.0
C929 C 0.24054 0.26446 0.22226 0.0
C930 C 0.2178 0.25818 0.24396 0.0
C931 C 0.26362 0.26732 0.20076 0.0
N932 N 0.27103 0.26853 0.23425 0.0
C933 C 0.2761 0.26842 0.21612 0.0
C934 C 0.24577 0.26563 0.20389 0.0
Eu935 Eu 0.29165 0.27042 0.26076 0.0
N936 N 0.26196 0.26352 0.26904 0.0
C937 C 0.25767 0.25801 0.28598 0.0
C938 C 0.22653 0.25385 0.27627 0.0
C939 C 0.23998 0.25322 0.28988 0.0
H940 H 0.2899 0.26977 0.21362 0.0
H941 H 0.23676 0.24907 0.30341 0.0
H942 H 0.20389 0.25498 0.24635 0.0
H943 H 0.26778 0.26778 0.18653 0.0
H944 H 0.26774 0.2573 0.29674 0.0
H945 H 0.37834 0.32108 0.23964 0.0
H946 H 0.21283 0.2502 0.27936 0.0
H947 H 0.32841 0.32455 0.33456 0.0
H948 H 0.3479 0.31902 0.24777 0.0
H949 H 0.35092 0.32701 0.36147 0.0
H950 H 0.21235 0.26022 0.21449 0.0
H951 H 0.40172 0.31935 0.2639 0.0
H952 H 0.4106 0.31699 0.29765 0.0
H953 H 0.2361 0.26464 0.19195 0.0
H954 H 0.40306 0.31819 0.33088 0.0
N955 N 0.35322 0.31495 0.27645 0.0
C956 C 0.35764 0.3179 0.25864 0.0
C957 C 0.38819 0.31804 0.26759 0.0
C958 C 0.38389 0.31623 0.28613 0.0
C959 C 0.37506 0.31916 0.25389 0.0
C960 C 0.36612 0.31511 0.29033 0.0
H961 H 0.38096 0.32238 0.35487 0.0
N962 N 0.34519 0.31716 0.31313 0.0
C963 C 0.35415 0.3237 0.34684 0.0
C964 C 0.36193 0.316 0.30915 0.0
C965 C 0.34144 0.32224 0.3316 0.0
C966 C 0.37106 0.321 0.34304 0.0
C967 C 0.37531 0.31771 0.32406 0.0
O968 O 0.3389 0.34346 0.29586 0.0
O969 O 0.29616 0.29905 0.27996 0.0
O970 O 0.28977 0.29667 0.24701 0.0
O971 O 0.3187 0.31418 0.25493 0.0
O972 O 0.30313 0.31565 0.30737 0.0
O973 O 0.31222 0.33792 0.28275 0.0
O974 O 0.29498 0.24495 0.24088 0.0
O975 O 0.3204 0.28383 0.26908 0.0
O976 O 0.32201 0.29157 0.30663 0.0
O977 O 0.2977 0.26735 0.29185 0.0
O978 O 0.31335 0.27013 0.24081 0.0
O979 O 0.28886 0.2426 0.26993 0.0
C980 C 0.29022 0.30488 0.29554 0.0
C981 C 0.33233 0.36386 0.27465 0.0
C982 C 0.32486 0.38616 0.25467 0.0
C983 C 0.32046 0.37441 0.2684 0.0
C984 C 0.34126 0.38697 0.24697 0.0
C985 C 0.34887 0.36522 0.26712 0.0
C986 C 0.3532 0.37661 0.25325 0.0
C987 C 0.30333 0.31032 0.24436 0.0
C988 C 0.32679 0.35076 0.28816 0.0
C989 C 0.39268 0.31718 0.31965 0.0
C990 C 0.39697 0.31651 0.30072 0.0
C991 C 0.32639 0.27869 0.25335 0.0
C992 C 0.28037 0.21439 0.24631 0.0
C993 C 0.28827 0.19841 0.24485 0.0
C994 C 0.27807 0.17957 0.23919 0.0
C995 C 0.25969 0.17687 0.23491 0.0
C996 C 0.26206 0.21165 0.2418 0.0
C997 C 0.25177 0.1929 0.23607 0.0
C998 C 0.31005 0.27533 0.30628 0.0
C999 C 0.29165 0.23354 0.25327 0.0
H1000 H 0.30766 0.3733 0.27412 0.0
H1001 H 0.34504 0.39601 0.23647 0.0
H1002 H 0.35838 0.35738 0.27176 0.0
H1003 H 0.36589 0.37746 0.2474 0.0
H1004 H 0.3024 0.20067 0.2487 0.0
H1005 H 0.25152 0.16244 0.23064 0.0
H1006 H 0.25576 0.22391 0.24288 0.0
H1007 H 0.23762 0.19076 0.23269 0.0
Eu1008 Eu 0.54986 0.55922 0.03158 0.0
C1009 C 0.57544 0.51141 0.96436 0.0
C1010 C 0.551 0.50503 0.93962 0.0
C1011 C 0.58111 0.50752 0.93073 0.0
C1012 C 0.55738 0.50887 0.9592 0.0
C1013 C 0.58737 0.51017 0.9501 0.0
C1014 C 0.56298 0.50498 0.92551 0.0
C1015 C 0.61061 0.51212 0.97494 0.0
N1016 N 0.58121 0.51375 0.98318 0.0
C1017 C 0.59836 0.5133 0.98857 0.0
C1018 C 0.60517 0.5109 0.95566 0.0
Eu1019 Eu 0.55961 0.51695 1.00515 0.0
N1020 N 0.54599 0.50877 0.97314 0.0
C1021 C 0.52811 0.50305 0.96824 0.0
C1022 C 0.5327 0.5006 0.9347 0.0
C1023 C 0.52123 0.49924 0.94906 0.0
H1024 H 0.60276 0.51442 1.00347 0.0
H1025 H 0.50705 0.49535 0.94537 0.0
H1026 H 0.55828 0.50232 0.91045 0.0
H1027 H 0.62425 0.51225 0.97934 0.0
H1028 H 0.51884 0.50189 0.97887 0.0
H1029 H 0.59955 0.57979 0.09341 0.0
H1030 H 0.52731 0.49763 0.91985 0.0
H1031 H 0.50654 0.5606 0.03059 0.0
H1032 H 0.58875 0.57243 0.05928 0.0
H1033 H 0.48377 0.56342 0.05306 0.0
H1034 H 0.59012 0.50679 0.91963 0.0
H1035 H 0.57828 0.57952 0.1181 0.0
H1036 H 0.54674 0.57644 0.12604 0.0
H1037 H 0.61469 0.50997 0.94512 0.0
H1038 H 0.51523 0.57216 0.11506 0.0
N1039 N 0.56145 0.56731 0.06427 0.0
C1040 C 0.57922 0.57221 0.06977 0.0
C1041 C 0.57342 0.57623 0.10307 0.0
C1042 C 0.55527 0.5724 0.09739 0.0
C1043 C 0.58546 0.57645 0.08919 0.0
C1044 C 0.54964 0.56812 0.07762 0.0
H1045 H 0.49169 0.56764 0.08792 0.0
N1046 N 0.52728 0.56278 0.05238 0.0
C1047 C 0.49727 0.56405 0.05844 0.0
C1048 C 0.53199 0.56582 0.07148 0.0
C1049 C 0.51027 0.56248 0.04573 0.0
C1050 C 0.50178 0.56638 0.0781 0.0
C1051 C 0.51936 0.56757 0.08488 0.0
O1052 O 0.53989 0.58282 0.02228 0.0
O1053 O 0.54946 0.54349 1.00058 0.0
O1054 O 0.5812 0.54161 1.0002 0.0
O1055 O 0.57884 0.5653 0.02565 0.0
O1056 O 0.52745 0.55385 0.0077 0.0
O1057 O 0.56649 0.58842 0.03618 0.0
O1058 O 0.55125 0.49382 0.02139 0.0
O1059 O 0.56107 0.53305 0.03575 0.0
O1060 O 0.53019 0.53394 0.03845 0.0
O1061 O 0.53033 0.51241 0.01038 0.0
O1062 O 0.58312 0.52294 0.02799 0.0
O1063 O 0.56223 0.48734 0.99455 0.0
C1064 C 0.53435 0.54541 0.99352 0.0
C1065 C 0.55245 0.61495 0.03713 0.0
C1066 C 0.5551 0.64874 0.03433 0.0
C1067 C 0.55799 0.63024 0.02745 0.0
C1068 C 0.54676 0.65184 0.0513 0.0
C1069 C 0.54431 0.61819 0.05414 0.0
C1070 C 0.54155 0.63665 0.06122 0.0
C1071 C 0.58736 0.55851 0.0114 0.0
C1072 C 0.55441 0.59566 0.02831 0.0
C1073 C 0.52475 0.57094 0.10456 0.0
C1074 C 0.54269 0.57335 0.11081 0.0
C1075 C 0.57642 0.53141 0.04244 0.0
C1076 C 0.57014 0.47171 0.0196 0.0
C1077 C 0.56507 0.46272 0.03514 0.0
C1078 C 0.57698 0.45434 0.0449 0.0
C1079 C 0.59415 0.45532 0.03902 0.0
C1080 C 0.58724 0.47206 0.01374 0.0
C1081 C 0.59916 0.46404 0.0235 0.0
C1082 C 0.52279 0.51817 0.02596 0.0
C1083 C 0.55775 0.48126 0.01017 0.0
H1084 H 0.56403 0.62756 0.01412 0.0
H1085 H 0.54436 0.666 0.05689 0.0
H1086 H 0.53991 0.60647 0.06173 0.0
H1087 H 0.53518 0.63915 0.0743 0.0
H1088 H 0.55176 0.46205 0.03941 0.0
H1089 H 0.60374 0.44935 0.04643 0.0
H1090 H 0.59148 0.47858 1.00168 0.0
H1091 H 0.61236 0.46458 0.019 0.0
Eu1092 Eu 0.82484 0.30641 0.26849 0.0
C1093 C 0.77593 0.24741 0.30658 0.0
C1094 C 0.78676 0.2181 0.29776 0.0
C1095 C 0.7726 0.22337 0.32725 0.0
C1096 C 0.78462 0.23633 0.29427 0.0
C1097 C 0.76934 0.2408 0.32294 0.0
C1098 C 0.78128 0.21201 0.31465 0.0
C1099 C 0.75468 0.26764 0.32799 0.0
N1100 N 0.77261 0.2639 0.30169 0.0
C1101 C 0.76132 0.27344 0.31151 0.0
C1102 C 0.75898 0.25145 0.33395 0.0
Eu1103 Eu 0.7854 0.27378 0.27437 0.0
N1104 N 0.78939 0.2425 0.27793 0.0
C1105 C 0.7946 0.23022 0.26358 0.0
C1106 C 0.79344 0.20611 0.2837 0.0
C1107 C 0.79698 0.21202 0.26634 0.0
H1108 H 0.75764 0.28578 0.3069 0.0
H1109 H 0.80164 0.20263 0.25511 0.0
H1110 H 0.78305 0.19819 0.31771 0.0
H1111 H 0.74615 0.27561 0.33601 0.0
H1112 H 0.79738 0.23454 0.25008 0.0
H1113 H 0.81045 0.37743 0.29405 0.0
H1114 H 0.79522 0.19199 0.2858 0.0
H1115 H 0.84639 0.29307 0.23041 0.0
H1116 H 0.8148 0.34489 0.29653 0.0
H1117 H 0.85544 0.30464 0.20094 0.0
H1118 H 0.76783 0.21817 0.33987 0.0
H1119 H 0.81486 0.38966 0.26378 0.0
H1120 H 0.82459 0.38481 0.23053 0.0
H1121 H 0.75366 0.24687 0.34661 0.0
H1122 H 0.83706 0.36509 0.20525 0.0
N1123 N 0.82099 0.33825 0.26768 0.0
C1124 C 0.81679 0.34995 0.2832 0.0
C1125 C 0.81675 0.37529 0.26476 0.0
C1126 C 0.82229 0.36378 0.24935 0.0
C1127 C 0.81431 0.36847 0.28188 0.0
C1128 C 0.82447 0.34514 0.25134 0.0
H1129 H 0.84895 0.33539 0.19427 0.0
N1130 N 0.83455 0.31682 0.24017 0.0
C1131 C 0.84868 0.31304 0.21097 0.0
C1132 C 0.83157 0.33412 0.23718 0.0
C1133 C 0.84356 0.30656 0.22771 0.0
C1134 C 0.84493 0.33037 0.20723 0.0
C1135 C 0.83654 0.34131 0.22054 0.0
O1136 O 0.853 0.30589 0.27048 0.0
O1137 O 0.81556 0.27673 0.27698 0.0
O1138 O 0.79695 0.28575 0.30466 0.0
O1139 O 0.81758 0.31227 0.29913 0.0
O1140 O 0.83452 0.27879 0.25789 0.0
O1141 O 0.84326 0.32638 0.29084 0.0
O1142 O 0.7588 0.27696 0.26547 0.0
O1143 O 0.79494 0.30358 0.26633 0.0
O1144 O 0.80996 0.29622 0.23923 0.0
O1145 O 0.79513 0.26689 0.245 0.0
O1146 O 0.77595 0.30158 0.28526 0.0
O1147 O 0.76739 0.251 0.25398 0.0
C1148 C 0.82584 0.26706 0.26762 0.0
C1149 C 0.87296 0.33516 0.28349 0.0
C1150 C 0.90506 0.34634 0.28947 0.0
C1151 C 0.88948 0.33261 0.29035 0.0
C1152 C 0.90381 0.36264 0.28133 0.0
C1153 C 0.87193 0.35149 0.27545 0.0
C1154 C 0.88733 0.36514 0.27436 0.0
C1155 C 0.80834 0.3023 0.3106 0.0
C1156 C 0.85713 0.3204 0.28476 0.0
C1157 C 0.83349 0.3594 0.21802 0.0
C1158 C 0.82637 0.37062 0.2324 0.0
C1159 C 0.785 0.31348 0.27594 0.0
C1160 C 0.73694 0.24828 0.25858 0.0
C1161 C 0.72155 0.25417 0.25299 0.0
C1162 C 0.70477 0.2438 0.25582 0.0
C1163 C 0.70353 0.22732 0.26431 0.0
C1164 C 0.73555 0.23196 0.26733 0.0
C1165 C 0.71887 0.22153 0.27012 0.0
C1166 C 0.80142 0.27823 0.2331 0.0
C1167 C 0.75418 0.25966 0.25534 0.0
H1168 H 0.89017 0.31975 0.29622 0.0
H1169 H 0.9155 0.37361 0.28062 0.0
H1170 H 0.8593 0.35371 0.27008 0.0
H1171 H 0.88648 0.37776 0.26819 0.0
H1172 H 0.72266 0.26675 0.24618 0.0
H1173 H 0.69073 0.2191 0.26667 0.0
H1174 H 0.74727 0.22726 0.27197 0.0
H1175 H 0.71784 0.20893 0.27683 0.0
Eu1176 Eu 0.06093 0.5353 0.53512 0.0
C1177 C 0.0117 0.57303 0.48662 0.0
C1178 C 0.9894 0.54653 0.46847 0.0
C1179 C 0.98236 0.57807 0.47804 0.0
C1180 C 1.00663 0.55386 0.47769 0.0
C1181 C 0.99971 0.58544 0.48668 0.0
C1182 C 0.97721 0.55866 0.46895 0.0
C1183 C 0.02318 0.61171 0.5029 0.0
N1184 N 0.02854 0.57968 0.49486 0.0
C1185 C 0.03461 0.59887 0.50239 0.0
C1186 C 1.0056 0.60494 0.49517 0.0
Eu1187 Eu 0.04676 0.55681 0.49437 0.0
N1188 N 0.01871 0.54252 0.47751 0.0
C1189 C 0.01479 0.52407 0.4673 0.0
C1190 C 0.98504 0.52733 0.45874 0.0
C1191 C 0.99785 0.51612 0.458 0.0
H1192 H 0.04815 0.60417 0.50851 0.0
H1193 H 0.99468 0.50132 0.45032 0.0
H1194 H 0.96387 0.55324 0.46207 0.0
H1195 H 0.02792 0.62681 0.50929 0.0
H1196 H 0.02454 0.51522 0.4667 0.0
H1197 H 0.10842 0.59536 0.58008 0.0
H1198 H 0.97193 0.52115 0.4515 0.0
H1199 H 0.06348 0.489 0.52353 0.0
H1200 H 0.07981 0.57881 0.56241 0.0
H1201 H 0.08567 0.46871 0.52511 0.0
H1202 H 0.97291 0.58734 0.47804 0.0
H1203 H 0.13302 0.5782 0.58114 0.0
H1204 H 0.14406 0.54765 0.5721 0.0
H1205 H 0.99677 0.61492 0.49556 0.0
H1206 H 0.13793 0.51321 0.5571 0.0
N1207 N 0.08803 0.55248 0.55281 0.0
C1208 C 0.09032 0.57103 0.5626 0.0
C1209 C 0.12047 0.57084 0.57318 0.0
C1210 C 0.11784 0.5516 0.56385 0.0
C1211 C 0.1066 0.58054 0.57268 0.0
C1212 C 0.1012 0.54264 0.55382 0.0
H1213 H 0.11614 0.4836 0.53975 0.0
N1214 N 0.08139 0.51505 0.53668 0.0
C1215 C 0.08928 0.48406 0.53083 0.0
C1216 C 0.09779 0.52333 0.54541 0.0
C1217 C 0.07676 0.49555 0.52999 0.0
C1218 C 0.10647 0.49254 0.53905 0.0
C1219 C 0.11085 0.51235 0.54673 0.0
O1220 O 0.04954 0.5137 0.55179 0.0
O1221 O 0.03903 0.53647 0.5143 0.0
O1222 O 0.0327 0.56693 0.51965 0.0
O1223 O 0.05223 0.56388 0.54457 0.0
O1224 O 0.0391 0.50968 0.52085 0.0
O1225 O 0.05108 0.54424 0.56247 0.0
O1226 O 0.06394 0.57697 0.48031 0.0
O1227 O 0.06894 0.55448 0.51445 0.0
O1228 O 0.07315 0.52334 0.50888 0.0
O1229 O 0.054 0.52768 0.48418 0.0
O1230 O 0.06893 0.58179 0.50931 0.0
O1231 O 0.05018 0.54907 0.46391 0.0
C1232 C 0.03057 0.51919 0.5112 0.0
C1233 C 0.05237 0.52461 0.58538 0.0
C1234 C 0.04606 0.52814 0.61876 0.0
C1235 C 0.04134 0.52889 0.59963 0.0
C1236 C 0.062 0.5227 0.62344 0.0
C1237 C 0.06836 0.51943 0.59015 0.0
C1238 C 0.07309 0.51841 0.60917 0.0
C1239 C 0.03882 0.57064 0.5379 0.0
C1240 C 0.04705 0.52671 0.56595 0.0
C1241 C 0.12766 0.52136 0.55606 0.0
C1242 C 0.13115 0.54096 0.56461 0.0
C1243 C 0.0776 0.57167 0.51803 0.0
C1244 C 0.05873 0.57486 0.4471 0.0
C1245 C 0.07171 0.57499 0.43424 0.0
C1246 C 0.07159 0.58532 0.41919 0.0
C1247 C 0.05813 0.59552 0.41703 0.0
C1248 C 0.04518 0.58485 0.44479 0.0
C1249 C 0.04488 0.59509 0.4297 0.0
C1250 C 0.0665 0.51958 0.49075 0.0
C1251 C 0.06083 0.56559 0.46363 0.0
H1252 H 0.02894 0.53275 0.59572 0.0
H1253 H 0.06598 0.52203 0.63811 0.0
H1254 H 0.07715 0.5163 0.57929 0.0
H1255 H 0.08542 0.5144 0.61287 0.0
H1256 H 0.08235 0.56753 0.43636 0.0
H1257 H 0.05782 0.60364 0.40553 0.0
H1258 H 0.03511 0.58499 0.45476 0.0
H1259 H 0.03449 0.60291 0.42796 0.0
Eu1260 Eu 0.78246 0.79487 0.27407 0.0
C1261 C 0.83979 0.76242 0.31037 0.0
C1262 C 0.84911 0.78623 0.33936 0.0
C1263 C 0.85033 0.75266 0.33928 0.0
C1264 C 0.84215 0.78118 0.31999 0.0
C1265 C 0.84447 0.74804 0.31966 0.0
C1266 C 0.85262 0.77174 0.34913 0.0
C1267 C 0.83976 0.72655 0.28895 0.0
N1268 N 0.8345 0.75866 0.29139 0.0
C1269 C 0.83541 0.74139 0.2804 0.0
C1270 C 0.84397 0.72977 0.30875 0.0
Eu1271 Eu 0.82653 0.78405 0.27771 0.0
N1272 N 0.83901 0.79478 0.30994 0.0
C1273 C 0.84385 0.81396 0.31798 0.0
C1274 C 0.85302 0.80577 0.34805 0.0
C1275 C 0.85071 0.81972 0.33719 0.0
H1276 H 0.83218 0.7389 0.26507 0.0
H1277 H 0.85406 0.83492 0.34363 0.0
H1278 H 0.85775 0.77528 0.36409 0.0
H1279 H 0.8399 0.71268 0.28026 0.0
H1280 H 0.84199 0.82487 0.30981 0.0
H1281 H 0.72008 0.7413 0.26246 0.0
H1282 H 0.85833 0.81026 0.36292 0.0
H1283 H 0.79957 0.82466 0.24411 0.0
H1284 H 0.74599 0.76405 0.28124 0.0
H1285 H 0.79489 0.82805 0.21066 0.0
H1286 H 0.85376 0.74176 0.34676 0.0
H1287 H 0.71602 0.73897 0.2273 0.0
H1288 H 0.72592 0.75192 0.19807 0.0
H1289 H 0.84749 0.71832 0.31533 0.0
H1290 H 0.74599 0.77602 0.18413 0.0
N1291 N 0.75724 0.77302 0.25679 0.0
C1292 C 0.74451 0.76269 0.26583 0.0
C1293 C 0.72752 0.74872 0.23546 0.0
C1294 C 0.73962 0.76089 0.22659 0.0
C1295 C 0.72976 0.74997 0.25528 0.0
C1296 C 0.75434 0.77336 0.23791 0.0
H1297 H 0.77129 0.80483 0.18885 0.0
N1298 N 0.77873 0.79971 0.24188 0.0
C1299 C 0.78648 0.81647 0.21596 0.0
C1300 C 0.76535 0.78721 0.23023 0.0
C1301 C 0.78907 0.81447 0.23508 0.0
C1302 C 0.77318 0.80332 0.20368 0.0
C1303 C 0.7623 0.78856 0.21078 0.0
O1304 O 0.76872 0.81893 0.27533 0.0
O1305 O 0.80714 0.79837 0.2936 0.0
O1306 O 0.80632 0.75654 0.28243 0.0
O1307 O 0.7785 0.7618 0.27272 0.0
O1308 O 0.78343 0.78549 0.30272 0.0
O1309 O 0.76375 0.79987 0.29554 0.0
O1310 O 0.84309 0.77606 0.25473 0.0
O1311 O 0.80473 0.78787 0.25742 0.0
O1312 O 0.80239 0.82463 0.27776 0.0
O1313 O 0.82999 0.81637 0.27593 0.0
O1314 O 0.81476 0.76287 0.25101 0.0
O1315 O 0.85361 0.80036 0.27689 0.0
C1316 C 0.80009 0.7921 0.30763 0.0
C1317 C 0.73908 0.81137 0.28465 0.0
C1318 C 0.70905 0.80682 0.29557 0.0
C1319 C 0.72755 0.80858 0.2993 0.0
C1320 C 0.7023 0.80762 0.27704 0.0
C1321 C 0.73173 0.81179 0.26624 0.0
C1322 C 0.71352 0.80993 0.26252 0.0
C1323 C 0.78878 0.75036 0.27801 0.0
C1324 C 0.75863 0.81353 0.28841 0.0
C1325 C 0.74836 0.77536 0.19914 0.0
C1326 C 0.737 0.76158 0.20705 0.0
C1327 C 0.80357 0.77229 0.24538 0.0
C1328 C 0.87418 0.78324 0.26269 0.0
C1329 C 0.88629 0.78647 0.24873 0.0
C1330 C 0.90264 0.78046 0.24979 0.0
C1331 C 0.90658 0.77143 0.26514 0.0
C1332 C 0.87865 0.77429 0.27778 0.0
C1333 C 0.89471 0.76841 0.27895 0.0
C1334 C 0.81994 0.82946 0.27698 0.0
C1335 C 0.85699 0.78934 0.26171 0.0
H1336 H 0.73296 0.80805 0.31354 0.0
H1337 H 0.68821 0.80623 0.27372 0.0
H1338 H 0.74003 0.81354 0.25461 0.0
H1339 H 0.70806 0.81032 0.24828 0.0
H1340 H 0.88292 0.79341 0.23704 0.0
H1341 H 0.91905 0.76696 0.2667 0.0
H1342 H 0.86979 0.77196 0.28878 0.0
H1343 H 0.89803 0.76157 0.29071 0.0
Eu1344 Eu 0.81344 0.29069 0.7572 0.0
C1345 C 0.79112 0.35348 0.81882 0.0
C1346 C 0.81801 0.36953 0.83888 0.0
C1347 C 0.7932 0.38537 0.83834 0.0
C1348 C 0.80803 0.3533 0.82586 0.0
C1349 C 0.78357 0.36963 0.82491 0.0
C1350 C 0.81032 0.38522 0.84547 0.0
C1351 C 0.75686 0.35304 0.80523 0.0
N1352 N 0.78197 0.33789 0.80611 0.0
C1353 C 0.76469 0.33727 0.80001 0.0
C1354 C 0.76637 0.36936 0.81768 0.0
Eu1355 Eu 0.79457 0.30979 0.80067 0.0
N1356 N 0.815 0.33773 0.81941 0.0
C1357 C 0.83276 0.33899 0.82379 0.0
C1358 C 0.83561 0.36982 0.84454 0.0
C1359 C 0.84313 0.3547 0.83654 0.0
H1360 H 0.75653 0.32446 0.79121 0.0
H1361 H 0.85706 0.35526 0.83993 0.0
H1362 H 0.8177 0.39758 0.8557 0.0
H1363 H 0.74332 0.35239 0.79996 0.0
H1364 H 0.83966 0.32867 0.81697 0.0
H1365 H 0.74757 0.2482 0.72421 0.0
H1366 H 0.84371 0.38203 0.85438 0.0
H1367 H 0.84979 0.27278 0.768 0.0
H1368 H 0.76783 0.27577 0.74308 0.0
H1369 H 0.8591 0.24213 0.76439 0.0
H1370 H 0.78754 0.39774 0.8433 0.0
H1371 H 0.75712 0.21753 0.71461 0.0
H1372 H 0.78022 0.19831 0.71684 0.0
H1373 H 0.76017 0.38148 0.82197 0.0
H1374 H 0.8099 0.19628 0.72908 0.0
N1375 N 0.79063 0.26307 0.74212 0.0
C1376 C 0.77322 0.26354 0.73786 0.0
C1377 C 0.76658 0.23012 0.72228 0.0
C1378 C 0.78381 0.22898 0.72799 0.0
C1379 C 0.76119 0.24741 0.72757 0.0
C1380 C 0.7957 0.24585 0.73803 0.0
H1381 H 0.83892 0.21223 0.74732 0.0
N1382 N 0.82326 0.26081 0.75541 0.0
C1383 C 0.8458 0.24251 0.75913 0.0
C1384 C 0.81236 0.24465 0.74508 0.0
C1385 C 0.84015 0.25996 0.76163 0.0
C1386 C 0.83445 0.22574 0.74937 0.0
C1387 C 0.81763 0.22666 0.74197 0.0
O1388 O 0.84053 0.29619 0.74964 0.0
O1389 O 0.81533 0.31555 0.78133 0.0
O1390 O 0.7798 0.31535 0.77315 0.0
O1391 O 0.79092 0.30229 0.74506 0.0
O1392 O 0.81781 0.32243 0.75445 0.0
O1393 O 0.81896 0.29111 0.72736 0.0
O1394 O 0.76669 0.29779 0.8016 0.0
O1395 O 0.79296 0.28441 0.77705 0.0
O1396 O 0.83169 0.29115 0.78441 0.0
O1397 O 0.81859 0.29984 0.81269 0.0
O1398 O 0.79497 0.2796 0.80523 0.0
O1399 O 0.78396 0.30644 0.82821 0.0
C1400 C 0.8175 0.3293 0.77228 0.0
C1401 C 0.84591 0.31332 0.72461 0.0
C1402 C 0.84702 0.34254 0.71101 0.0
C1403 C 0.83721 0.32569 0.71613 0.0
C1404 C 0.86559 0.34683 0.71436 0.0
C1405 C 0.86449 0.31775 0.72752 0.0
C1406 C 0.87424 0.33444 0.72247 0.0
C1407 C 0.77957 0.31142 0.75405 0.0
C1408 C 0.83609 0.29649 0.73178 0.0
C1409 C 0.80602 0.21012 0.7316 0.0
C1410 C 0.78917 0.21129 0.72456 0.0
C1411 C 0.79334 0.27173 0.78738 0.0
C1412 C 0.75749 0.28176 0.8265 0.0
C1413 C 0.76525 0.26785 0.83346 0.0
C1414 C 0.75447 0.25119 0.83801 0.0
C1415 C 0.73593 0.24879 0.83567 0.0
C1416 C 0.73897 0.27905 0.82435 0.0
C1417 C 0.72828 0.26267 0.82892 0.0
C1418 C 0.83154 0.2937 0.80344 0.0
C1419 C 0.76793 0.29865 0.82009 0.0
H1420 H 0.82287 0.32248 0.71384 0.0
H1421 H 0.87345 0.35957 0.7103 0.0
H1422 H 0.87146 0.30843 0.73402 0.0
H1423 H 0.88855 0.33778 0.72487 0.0
H1424 H 0.77953 0.26981 0.83508 0.0
H1425 H 0.72731 0.23635 0.83941 0.0
H1426 H 0.73277 0.28957 0.8189 0.0
H1427 H 0.71401 0.26072 0.82722 0.0
Eu1428 Eu 0.81908 0.80996 0.78549 0.0
C1429 C 0.74241 0.75902 0.75098 0.0
C1430 C 0.72881 0.74594 0.77706 0.0
C1431 C 0.7104 0.74725 0.74883 0.0
C1432 C 0.74416 0.75388 0.76867 0.0
C1433 C 0.72548 0.75595 0.74093 0.0
C1434 C 0.71206 0.74224 0.76687 0.0
C1435 C 0.73939 0.77048 0.71594 0.0
N1436 N 0.75715 0.7678 0.74389 0.0
C1437 C 0.75582 0.7731 0.72632 0.0
C1438 C 0.72412 0.76186 0.72327 0.0
Eu1439 Eu 0.78533 0.76894 0.76003 0.0
N1440 N 0.76054 0.75838 0.77843 0.0
C1441 C 0.76161 0.75732 0.7976 0.0
C1442 C 0.73054 0.74288 0.79584 0.0
C1443 C 0.74695 0.7491 0.8063 0.0
H1444 H 0.76744 0.7789 0.7198 0.0
H1445 H 0.74826 0.7482 0.82135 0.0
H1446 H 0.70025 0.73607 0.77308 0.0
H1447 H 0.73857 0.77485 0.70212 0.0
H1448 H 0.77326 0.76388 0.80708 0.0
H1449 H 0.87688 0.81166 0.74404 0.0
H1450 H 0.71912 0.73686 0.80274 0.0
H1451 H 0.81954 0.82078 0.83363 0.0
H1452 H 0.84603 0.81208 0.74919 0.0
H1453 H 0.83954 0.82239 0.86225 0.0
H1454 H 0.69735 0.74469 0.74127 0.0
H1455 H 0.89768 0.8093 0.77067 0.0
H1456 H 0.9032 0.80684 0.80503 0.0
H1457 H 0.71138 0.75976 0.71516 0.0
H1458 H 0.89291 0.80933 0.83724 0.0
N1459 N 0.84851 0.80869 0.77843 0.0
C1460 C 0.85459 0.81056 0.761 0.0
C1461 C 0.8839 0.80884 0.77295 0.0
C1462 C 0.87788 0.80774 0.79098 0.0
C1463 C 0.87225 0.81041 0.75795 0.0
C1464 C 0.85994 0.80806 0.79344 0.0
H1465 H 0.86941 0.81567 0.85875 0.0
N1466 N 0.83743 0.81205 0.8139 0.0
C1467 C 0.84377 0.81857 0.84812 0.0
C1468 C 0.85421 0.80967 0.81167 0.0
C1469 C 0.83241 0.81751 0.83181 0.0
C1470 C 0.86059 0.81471 0.84608 0.0
C1471 C 0.86618 0.81071 0.82774 0.0
O1472 O 0.80875 0.83521 0.78108 0.0
O1473 O 0.79018 0.79796 0.77807 0.0
O1474 O 0.78627 0.79723 0.7485 0.0
O1475 O 0.8162 0.80925 0.75341 0.0
O1476 O 0.798 0.81156 0.80629 0.0
O1477 O 0.83542 0.83931 0.79353 0.0
O1478 O 0.79109 0.76429 0.73026 0.0
O1479 O 0.8142 0.78352 0.76298 0.0
O1480 O 0.81626 0.78633 0.80405 0.0
O1481 O 0.79473 0.75962 0.78747 0.0
O1482 O 0.80809 0.7541 0.76407 0.0
O1483 O 0.7783 0.73988 0.74231 0.0
C1484 C 0.7847 0.80274 0.79414 0.0
C1485 C 0.81924 0.86343 0.80392 0.0
C1486 C 0.8028 0.88888 0.81201 0.0
C1487 C 0.8073 0.87432 0.7986 0.0
C1488 C 0.81082 0.89278 0.83088 0.0
C1489 C 0.8271 0.86742 0.82285 0.0
C1490 C 0.82292 0.8821 0.83622 0.0
C1491 C 0.80085 0.80777 0.74358 0.0
C1492 C 0.82266 0.84765 0.78947 0.0
C1493 C 0.88362 0.80882 0.82509 0.0
C1494 C 0.88948 0.80741 0.80675 0.0
C1495 C 0.82077 0.76895 0.76423 0.0
C1496 C 0.79707 0.73451 0.71716 0.0
C1497 C 0.80631 0.72295 0.72611 0.0
C1498 C 0.81883 0.71415 0.71648 0.0
C1499 C 0.82175 0.71684 0.69767 0.0
C1500 C 0.80005 0.73681 0.69833 0.0
C1501 C 0.8123 0.72799 0.68865 0.0
C1502 C 0.80634 0.76854 0.8025 0.0
C1503 C 0.78537 0.74565 0.72744 0.0
H1504 H 0.80149 0.8714 0.78389 0.0
H1505 H 0.80756 0.90387 0.84156 0.0
H1506 H 0.83634 0.85919 0.82736 0.0
H1507 H 0.82896 0.88511 0.85081 0.0
H1508 H 0.80385 0.72088 0.74054 0.0
H1509 H 0.83154 0.7106 0.69002 0.0
H1510 H 0.79313 0.74579 0.69124 0.0
H1511 H 0.81468 0.73004 0.6742 0.0
Eu1512 Eu 0.53645 0.5277 0.50932 0.0
C1513 C 0.582 0.60181 0.55773 0.0
C1514 C 0.58678 0.62409 0.53559 0.0
C1515 C 0.58621 0.63641 0.56946 0.0
C1516 C 0.58327 0.60502 0.53925 0.0
C1517 C 0.58405 0.61751 0.57316 0.0
C1518 C 0.5876 0.6397 0.55068 0.0
C1519 C 0.58424 0.595 0.59482 0.0
N1520 N 0.58045 0.58346 0.5608 0.0
C1521 C 0.58238 0.57996 0.57906 0.0
C1522 C 0.58474 0.61382 0.59186 0.0
Eu1523 Eu 0.57652 0.55837 0.53347 0.0
N1524 N 0.58275 0.58962 0.52511 0.0
C1525 C 0.58746 0.5925 0.5074 0.0
C1526 C 0.59029 0.62695 0.51709 0.0
C1527 C 0.591 0.6111 0.50304 0.0
H1528 H 0.58188 0.5654 0.58145 0.0
H1529 H 0.59422 0.61317 0.48881 0.0
H1530 H 0.59002 0.65442 0.5481 0.0
H1531 H 0.58525 0.59204 0.60923 0.0
H1532 H 0.58802 0.58047 0.4963 0.0
H1533 H 0.5216 0.47051 0.55245 0.0
H1534 H 0.59311 0.64136 0.51372 0.0
H1535 H 0.52653 0.52136 0.4616 0.0
H1536 H 0.52608 0.50342 0.54645 0.0
H1537 H 0.52337 0.49544 0.43319 0.0
H1538 H 0.58758 0.64864 0.58109 0.0
H1539 H 0.52399 0.44364 0.52667 0.0
H1540 H 0.52694 0.43217 0.49203 0.0
H1541 H 0.58631 0.62548 0.60409 0.0
H1542 H 0.52745 0.439 0.45932 0.0
N1543 N 0.53156 0.49616 0.51728 0.0
C1544 C 0.52722 0.49221 0.53482 0.0
C1545 C 0.52599 0.45825 0.52383 0.0
C1546 C 0.52891 0.46204 0.50548 0.0
C1547 C 0.52462 0.47334 0.53839 0.0
C1548 C 0.53128 0.48133 0.50249 0.0
H1549 H 0.52555 0.46241 0.4372 0.0
N1550 N 0.53143 0.5034 0.48138 0.0
C1551 C 0.52579 0.49237 0.44738 0.0
C1552 C 0.53135 0.48511 0.484 0.0
C1553 C 0.52758 0.50699 0.46349 0.0
C1554 C 0.52711 0.47377 0.4497 0.0
C1555 C 0.52937 0.4698 0.46818 0.0
O1556 O 0.50856 0.51544 0.49939 0.0
O1557 O 0.55128 0.55869 0.51661 0.0
O1558 O 0.55422 0.56271 0.55373 0.0
O1559 O 0.53279 0.53493 0.54193 0.0
O1560 O 0.53966 0.54893 0.48877 0.0
O1561 O 0.51592 0.54415 0.51614 0.0
O1562 O 0.59906 0.5537 0.5506 0.0
O1563 O 0.56225 0.52689 0.52514 0.0
O1564 O 0.5567 0.52616 0.48623 0.0
O1565 O 0.58193 0.54788 0.50162 0.0
O1566 O 0.57347 0.53649 0.55311 0.0
O1567 O 0.60269 0.56138 0.5228 0.0
C1568 C 0.54864 0.56389 0.50054 0.0
C1569 C 0.48813 0.52566 0.52031 0.0
C1570 C 0.46192 0.53416 0.5342 0.0
C1571 C 0.47595 0.53779 0.52258 0.0
C1572 C 0.46048 0.51837 0.5438 0.0
C1573 C 0.48622 0.5098 0.52976 0.0
C1574 C 0.47256 0.5063 0.54155 0.0
C1575 C 0.53933 0.55026 0.5557 0.0
C1576 C 0.50291 0.53003 0.50842 0.0
C1577 C 0.52868 0.45088 0.47128 0.0
C1578 C 0.52841 0.44699 0.48991 0.0
C1579 C 0.56512 0.52152 0.5411 0.0
C1580 C 0.62754 0.57016 0.5457 0.0
C1581 C 0.64252 0.56202 0.54483 0.0
C1582 C 0.65938 0.57321 0.55207 0.0
C1583 C 0.66098 0.59278 0.56034 0.0
C1584 C 0.62932 0.58971 0.55384 0.0
C1585 C 0.64602 0.60095 0.56115 0.0
C1586 C 0.57341 0.53563 0.48606 0.0
C1587 C 0.61026 0.55777 0.53818 0.0
H1588 H 0.47749 0.5501 0.51537 0.0
H1589 H 0.44976 0.51504 0.55266 0.0
H1590 H 0.49524 0.5001 0.52802 0.0
H1591 H 0.47123 0.49407 0.54882 0.0
H1592 H 0.64097 0.54681 0.53874 0.0
H1593 H 0.67381 0.6018 0.56595 0.0
H1594 H 0.61788 0.59623 0.55457 0.0
H1595 H 0.64737 0.61605 0.56745 0.0
Eu1596 Eu 0.0748 0.54718 0.02225 0.0
C1597 C 0.01353 0.50108 0.06108 0.0
C1598 C 0.9986 0.47391 0.03676 0.0
C1599 C 0.99882 0.47118 0.07038 0.0
C1600 C 0.0088 0.49293 0.04198 0.0
C1601 C 0.00836 0.4904 0.07552 0.0
C1602 C 0.99392 0.46296 0.05103 0.0
C1603 C 0.0213 0.51894 0.09909 0.0
N1604 N 0.02256 0.51974 0.06558 0.0
C1605 C 0.02601 0.52898 0.08426 0.0
C1606 C 0.01258 0.49951 0.09471 0.0
Eu1607 Eu 0.03049 0.53554 0.03967 0.0
N1608 N 0.01346 0.50391 0.02854 0.0
C1609 C 1.00742 0.49718 0.00972 0.0
C1610 C 0.99297 0.46665 0.0174 0.0
C1611 C 0.9973 0.47839 1.00383 0.0
H1612 H 0.0328 0.54398 0.08777 0.0
H1613 H 0.99281 0.473 0.98885 0.0
H1614 H 0.98622 0.44825 0.04727 0.0
H1615 H 0.0244 0.5262 0.11387 0.0
H1616 H 0.01063 0.50615 0.99912 0.0
H1617 H 0.10988 0.60928 0.07561 0.0
H1618 H 0.98494 0.45219 0.01286 0.0
H1619 H 0.07646 0.53964 0.97478 0.0
H1620 H 0.0935 0.57583 0.06396 0.0
H1621 H 0.08645 0.55807 0.94955 0.0
H1622 H 0.99483 0.46269 0.08126 0.0
H1623 H 0.11774 0.63134 0.05271 0.0
H1624 H 0.1183 0.63606 0.01849 0.0
H1625 H 0.00888 0.49179 0.10622 0.0
H1626 H 0.11202 0.62208 0.98412 0.0
N1627 N 0.09147 0.57888 0.03468 0.0
C1628 C 0.09682 0.58519 0.05373 0.0
C1629 C 0.1105 0.61663 0.04748 0.0
C1630 C 0.10598 0.6097 0.02787 0.0
C1631 C 0.10614 0.60421 0.06044 0.0
C1632 C 0.09645 0.59046 0.02184 0.0
H1633 H 0.10048 0.5929 0.95828 0.0
N1634 N 0.0845 0.56385 0.99745 0.0
C1635 C 0.08826 0.56521 0.96441 0.0
C1636 C 0.09286 0.58269 1.00259 0.0
C1637 C 0.08265 0.5548 0.97873 0.0
C1638 C 0.09612 0.58487 0.96939 0.0
C1639 C 0.09876 0.5938 0.9887 0.0
O1640 O 0.09176 0.52904 0.00833 0.0
O1641 O 0.05168 0.52348 0.02473 0.0
O1642 O 0.04903 0.52262 0.05661 0.0
O1643 O 0.07531 0.54373 0.05359 0.0
O1644 O 0.0632 0.52078 0.9993 0.0
O1645 O 0.09835 0.54281 0.03795 0.0
O1646 O 0.01468 0.55509 0.05342 0.0
O1647 O 0.05326 0.55926 0.0364 0.0
O1648 O 0.0561 0.55872 1.00368 0.0
O1649 O 0.02929 0.53915 0.0085 0.0
O1650 O 0.04223 0.56236 0.0621 0.0
O1651 O 1.00511 0.53732 0.02575 0.0
C1652 C 0.05105 0.51247 0.00866 0.0
C1653 C 0.12208 0.53668 0.02008 0.0
C1654 C 0.15152 0.52884 0.02165 0.0
C1655 C 0.13328 0.52437 0.02434 0.0
C1656 C 0.15819 0.54571 0.01443 0.0
C1657 C 0.12914 0.55341 0.01301 0.0
C1658 C 0.14708 0.55785 0.01017 0.0
C1659 C 0.06589 0.53049 0.06201 0.0
C1660 C 0.10315 0.53214 0.02332 0.0
C1661 C 0.10755 0.61323 0.99457 0.0
C1662 C 0.11113 0.62119 0.01413 0.0
C1663 C 0.05394 0.57065 0.05223 0.0
C1664 C 0.98365 0.54691 0.04555 0.0
C1665 C 0.97226 0.55895 0.04108 0.0
C1666 C 0.95486 0.55631 0.04682 0.0
C1667 C 0.94924 0.54143 0.05719 0.0
C1668 C 0.97761 0.53215 0.05573 0.0
C1669 C 0.9605 0.52947 0.06152 0.0
C1670 C 0.03883 0.55182 0.99953 0.0
C1671 C 1.00183 0.55004 0.0397 0.0
H1672 H 0.12785 0.51155 0.03001 0.0
H1673 H 0.17201 0.54946 0.01183 0.0
H1674 H 0.12079 0.56305 0.0097 0.0
H1675 H 0.15242 0.57076 1.00462 0.0
H1676 H 0.97693 0.57019 0.03299 0.0
H1677 H 0.93617 0.53916 0.06225 0.0
H1678 H 0.98614 0.52278 0.05928 0.0
H1679 H 0.95596 0.51813 0.06951 0.0
H1680 H 0.01691 0.231 0.98173 0.0
H1681 H 0.02277 0.20165 0.99111 0.0
H1682 H 0.04134 0.1853 0.93601 0.0
H1683 H 0.03592 0.21524 0.92662 0.0
H1684 H 0.0098 0.16503 0.97947 0.0
H1685 H 0.08111 0.17605 0.96859 0.0
H1686 H 0.06883 0.19476 0.96757 0.0
H1687 H 0.0675 0.17567 0.94722 0.0
C1688 C 0.02232 0.22131 0.97148 0.0
C1689 C 0.02594 0.22587 0.9533 0.0
C1690 C 0.02567 0.20431 0.97695 0.0
C1691 C 0.03284 0.19101 0.96456 0.0
C1692 C 0.03629 0.19533 0.94624 0.0
H1693 H 0.05503 0.07679 0.97143 0.0
H1694 H 0.05111 0.10731 0.96255 0.0
C1695 C 0.033 0.21251 0.94075 0.0
C1696 C 0.03616 0.17267 0.97089 0.0
H1697 H 0.06755 0.14552 0.97555 0.0
C1698 C 0.02251 0.16093 0.97866 0.0
C1699 C 0.0527 0.16693 0.97006 0.0
C1700 C 0.06843 0.17909 0.9631 0.0
C1701 C 0.02474 0.14383 0.98513 0.0
C1702 C 0.04123 0.13806 0.98418 0.0
C1703 C 0.05488 0.14974 0.97641 0.0
C1704 C 0.04429 0.1196 0.99032 0.0
C1705 C 0.00916 0.13176 0.99244 0.0
C1706 C 0.04213 0.11602 0.00912 0.0
C1707 C 0.04454 0.09843 0.01432 0.0
C1708 C 0.04931 0.08395 1.00089 0.0
C1709 C 0.05156 0.08764 0.98222 0.0
C1710 C 0.04931 0.10519 0.9771 0.0
H1711 H 0.99645 0.1354 0.98796 0.0
H1712 H 0.00829 0.1161 0.98724 0.0
H1713 H 0.01085 0.13451 0.00833 0.0
H1714 H 0.03859 0.12685 0.01984 0.0
H1715 H 0.04245 0.09605 0.02874 0.0
H1716 H 0.1595 0.82751 0.12713 0.0
H1717 H 0.1843 0.8249 0.14856 0.0
H1718 H 0.14957 0.81732 0.19325 0.0
H1719 H 0.12448 0.8195 0.17167 0.0
H1720 H 0.20045 0.8455 0.18211 0.0
H1721 H 0.17188 0.7714 0.1933 0.0
H1722 H 0.16225 0.78226 0.17536 0.0
H1723 H 0.15816 0.78833 0.20008 0.0
C1724 C 0.15703 0.82534 0.14153 0.0
C1725 C 0.13976 0.82363 0.14748 0.0
C1726 C 0.17134 0.82384 0.15385 0.0
C1727 C 0.16896 0.82048 0.17256 0.0
C1728 C 0.15185 0.81937 0.17879 0.0
H1729 H 0.24135 0.80354 0.26514 0.0
H1730 H 0.2162 0.8085 0.2456 0.0
C1731 C 0.13746 0.82084 0.16643 0.0
C1732 C 0.1844 0.81823 0.18534 0.0
H1733 H 0.19872 0.78754 0.21187 0.0
C1734 C 0.20002 0.83277 0.18855 0.0
C1735 C 0.1841 0.80165 0.19388 0.0
C1736 C 0.16828 0.78493 0.19037 0.0
C1737 C 0.21504 0.83138 0.2001 0.0
C1738 C 0.21475 0.81478 0.20858 0.0
C1739 C 0.1991 0.80029 0.20548 0.0
C1740 C 0.23044 0.81218 0.22069 0.0
C1741 C 0.23096 0.84797 0.20346 0.0
C1742 C 0.24703 0.81236 0.21339 0.0
C1743 C 0.26157 0.80975 0.22475 0.0
C1744 C 0.25997 0.80683 0.24373 0.0
C1745 C 0.24333 0.8064 0.2509 0.0
C1746 C 0.22879 0.80898 0.23957 0.0
H1747 H 0.2274 0.86158 0.20072 0.0
H1748 H 0.23721 0.85049 0.21836 0.0
H1749 H 0.2409 0.84451 0.19352 0.0
H1750 H 0.24874 0.81435 0.1988 0.0
H1751 H 0.27414 0.81028 0.21871 0.0
H1752 H 0.5272 0.82365 0.47192 0.0
H1753 H 0.52756 0.85733 0.48665 0.0
H1754 H 0.52949 0.87355 0.43103 0.0
H1755 H 0.52907 0.84012 0.41632 0.0
H1756 H 0.55317 0.89114 0.48655 0.0
H1757 H 0.4893 0.89733 0.45192 0.0
H1758 H 0.49523 0.8743 0.45215 0.0
H1759 H 0.50369 0.88888 0.43507 0.0
C1760 C 0.52751 0.83435 0.4628 0.0
C1761 C 0.52802 0.82903 0.44287 0.0
C1762 C 0.52778 0.85367 0.47127 0.0
C1763 C 0.5283 0.86814 0.46 0.0
C1764 C 0.52871 0.86276 0.4401 0.0
H1765 H 0.54103 0.99153 0.47011 0.0
H1766 H 0.5347 0.95627 0.4611 0.0
C1767 C 0.52856 0.84355 0.43168 0.0
C1768 C 0.52908 0.88892 0.46893 0.0
H1769 H 0.50894 0.92699 0.46662 0.0
C1770 C 0.54336 0.8989 0.48237 0.0
C1771 C 0.51633 0.89924 0.4636 0.0
C1772 C 0.50018 0.88936 0.45004 0.0
C1773 C 0.54569 0.9189 0.48983 0.0
C1774 C 0.53317 0.92935 0.48411 0.0
C1775 C 0.51861 0.9192 0.47109 0.0
C1776 C 0.53563 0.95097 0.49017 0.0
C1777 C 0.56205 0.92883 0.50308 0.0
C1778 C 0.53776 0.96011 0.50961 0.0
C1779 C 0.54142 0.98048 0.51481 0.0
C1780 C 0.54271 0.99218 0.50069 0.0
C1781 C 0.53992 0.98298 0.48135 0.0
C1782 C 0.53632 0.96274 0.47617 0.0
H1783 H 0.57231 0.91998 0.50244 0.0
H1784 H 0.5679 0.9431 0.49949 0.0
H1785 H 0.55842 0.93125 0.51803 0.0
H1786 H 0.53691 0.95153 0.5208 0.0
H1787 H 0.54381 0.98703 0.52984 0.0
H1788 H 0.52301 0.3099 0.62719 0.0
H1789 H 0.49599 0.30614 0.64397 0.0
H1790 H 0.52662 0.30399 0.69575 0.0
H1791 H 0.55364 0.30786 0.67915 0.0
H1792 H 0.47965 0.27701 0.66245 0.0
H1793 H 0.4998 0.34607 0.71422 0.0
H1794 H 0.51122 0.3407 0.69318 0.0
H1795 H 0.51565 0.33093 0.7142 0.0
C1796 C 0.52401 0.3086 0.64215 0.0
C1797 C 0.5406 0.30927 0.65179 0.0
C1798 C 0.50851 0.30645 0.65175 0.0
C1799 C 0.50919 0.30512 0.67129 0.0
C1800 C 0.52569 0.30541 0.68082 0.0
H1801 H 0.42665 0.26175 0.74009 0.0
H1802 H 0.45043 0.26659 0.71909 0.0
C1803 C 0.54117 0.30749 0.67123 0.0
C1804 C 0.49269 0.30318 0.68165 0.0
H1805 H 0.47445 0.32381 0.72059 0.0
C1806 C 0.4785 0.28733 0.67509 0.0
C1807 C 0.4909 0.31675 0.698 0.0
C1808 C 0.50512 0.33468 0.70524 0.0
C1809 C 0.46299 0.28435 0.68474 0.0
C1810 C 0.46157 0.29744 0.70162 0.0
C1811 C 0.47549 0.31365 0.70779 0.0
C1812 C 0.44618 0.29411 0.71353 0.0
C1813 C 0.44821 0.2672 0.67669 0.0
C1814 C 0.43571 0.30798 0.71766 0.0
C1815 C 0.42198 0.30523 0.7298 0.0
C1816 C 0.41859 0.2887 0.73837 0.0
C1817 C 0.4289 0.27472 0.73388 0.0
C1818 C 0.44247 0.2774 0.7217 0.0
H1819 H 0.4489 0.26217 0.66115 0.0
H1820 H 0.44938 0.25507 0.68416 0.0
H1821 H 0.43505 0.27073 0.67882 0.0
H1822 H 0.4383 0.32106 0.71166 0.0
H1823 H 0.41448 0.31639 0.73306 0.0
H1824 H 0.01715 0.8391 0.65843 0.0
H1825 H 0.02381 0.86386 0.63814 0.0
H1826 H 0.02422 0.81922 0.58944 0.0
H1827 H 0.01751 0.79469 0.60925 0.0
H1828 H 0.05293 0.87155 0.61371 0.0
H1829 H 0.98684 0.84873 0.5726 0.0
H1830 H 0.99134 0.84215 0.59552 0.0
H1831 H 0.99774 0.82912 0.57409 0.0
C1832 C 0.01877 0.83465 0.64342 0.0
C1833 C 0.01666 0.81496 0.63541 0.0
C1834 C 0.02256 0.84876 0.63188 0.0
C1835 C 0.02418 0.84327 0.61225 0.0
C1836 C 0.02269 0.8237 0.60447 0.0
H1837 H 0.06876 0.90392 0.52515 0.0
H1838 H 0.06212 0.88327 0.54915 0.0
C1839 C 0.01891 0.80971 0.61589 0.0
C1840 C 0.02715 0.85767 0.59949 0.0
H1841 H 0.00937 0.8686 0.55878 0.0
C1842 C 0.04336 0.87111 0.60182 0.0
C1843 C 0.01454 0.85716 0.58413 0.0
C1844 C 0.99656 0.84364 0.58149 0.0
C1845 C 0.04755 0.88359 0.5887 0.0
C1846 C 0.03532 0.8823 0.57272 0.0
C1847 C 0.01884 0.86937 0.57086 0.0
C1848 C 0.0392 0.89436 0.55785 0.0
C1849 C 0.065 0.89807 0.59209 0.0
C1850 C 0.02809 0.90679 0.55422 0.0
C1851 C 0.03168 0.91833 0.54036 0.0
C1852 C 0.04646 0.91766 0.5298 0.0
C1853 C 0.05725 0.90472 0.533 0.0
C1854 C 0.05363 0.89313 0.5469 0.0
H1855 H 0.07055 0.90082 0.60729 0.0
H1856 H 0.07468 0.89231 0.58308 0.0
H1857 H 0.06353 0.91202 0.58813 0.0
H1858 H 0.01675 0.90776 0.56232 0.0
H1859 H 0.02293 0.92791 0.538 0.0
H1860 H 0.55566 0.81161 0.86062 0.0
H1861 H 0.5285 0.81296 0.84196 0.0
H1862 H 0.51541 0.85195 0.88938 0.0
H1863 H 0.54245 0.8509 0.90806 0.0
H1864 H 0.49256 0.8038 0.85035 0.0
H1865 H 0.51391 0.88088 0.84413 0.0
H1866 H 0.52919 0.86683 0.8513 0.0
H1867 H 0.5156 0.87674 0.86832 0.0
C1868 C 0.54699 0.82044 0.86711 0.0
C1869 C 0.55132 0.83121 0.88584 0.0
C1870 C 0.53148 0.82118 0.85642 0.0
C1871 C 0.52013 0.83281 0.86419 0.0
C1872 C 0.52418 0.84319 0.88299 0.0
H1873 H 0.41143 0.83392 0.83358 0.0
H1874 H 0.43948 0.82911 0.84735 0.0
C1875 C 0.53962 0.84245 0.89369 0.0
C1876 C 0.50398 0.83413 0.85277 0.0
H1877 H 0.48334 0.86641 0.83554 0.0
C1878 C 0.49058 0.81743 0.84695 0.0
C1879 C 0.50156 0.85189 0.84812 0.0
C1880 C 0.51589 0.87008 0.85312 0.0
C1881 C 0.47451 0.81818 0.8372 0.0
C1882 C 0.47175 0.83614 0.83342 0.0
C1883 C 0.48542 0.85269 0.83862 0.0
C1884 C 0.45462 0.83825 0.82458 0.0
C1885 C 0.46066 0.79973 0.831 0.0
C1886 C 0.45388 0.84534 0.80739 0.0
C1887 C 0.43786 0.84814 0.79948 0.0
C1888 C 0.42228 0.84399 0.80869 0.0
C1889 C 0.4231 0.83691 0.82593 0.0
C1890 C 0.43912 0.83413 0.83382 0.0
H1891 H 0.46657 0.78676 0.83001 0.0
H1892 H 0.45078 0.79875 0.84172 0.0
H1893 H 0.4536 0.79949 0.8169 0.0
H1894 H 0.46573 0.8487 0.80009 0.0
H1895 H 0.43765 0.85342 0.78609 0.0
H1896 H 0.5131 0.22332 0.16115 0.0
H1897 H 0.51329 0.18894 0.15094 0.0
H1898 H 0.50338 0.19411 0.092 0.0
H1899 H 0.50335 0.22835 0.10195 0.0
H1900 H 0.4852 0.15502 0.11137 0.0
H1901 H 0.55828 0.18198 0.11383 0.0
H1902 H 0.54559 0.19177 0.13208 0.0
H1903 H 0.54353 0.19731 0.10852 0.0
C1904 C 0.5104 0.21698 0.14607 0.0
C1905 C 0.50843 0.22856 0.13231 0.0
C1906 C 0.51052 0.19737 0.1403 0.0
C1907 C 0.5084 0.18914 0.12076 0.0
C1908 C 0.50498 0.20027 0.10715 0.0
H1909 H 0.51194 0.09349 0.03614 0.0
H1910 H 0.50337 0.11842 0.05898 0.0
C1911 C 0.50505 0.21983 0.11286 0.0
C1912 C 0.51248 0.17007 0.11406 0.0
H1913 H 0.5465 0.15033 0.09769 0.0
C1914 C 0.49862 0.15379 0.1087 0.0
C1915 C 0.53002 0.16859 0.11083 0.0
C1916 C 0.54531 0.18577 0.1166 0.0
C1917 C 0.50182 0.13611 0.09934 0.0
C1918 C 0.51921 0.13503 0.09472 0.0
C1919 C 0.53316 0.15111 0.10113 0.0
C1920 C 0.52315 0.11825 0.08172 0.0
C1921 C 0.48649 0.1189 0.09432 0.0
C1922 C 0.53738 0.11002 0.08665 0.0
C1923 C 0.54278 0.09624 0.07328 0.0
C1924 C 0.53402 0.09037 0.05471 0.0
C1925 C 0.51927 0.09798 0.05012 0.0
C1926 C 0.51408 0.11198 0.06337 0.0
H1927 H 0.47651 0.11961 0.10491 0.0
H1928 H 0.47983 0.11899 0.08011 0.0
H1929 H 0.49093 0.10506 0.09374 0.0
H1930 H 0.54463 0.11468 0.10069 0.0
H1931 H 0.55407 0.09054 0.0774 0.0
H1932 H 0.12426 0.29499 0.32844 0.0
H1933 H 0.15005 0.29087 0.31076 0.0
H1934 H 0.18115 0.29452 0.36401 0.0
H1935 H 0.15567 0.2988 0.38168 0.0
H1936 H 0.18348 0.32017 0.31878 0.0
H1937 H 0.19193 0.24711 0.32733 0.0
H1938 H 0.17103 0.25453 0.32939 0.0
H1939 H 0.18803 0.26184 0.34906 0.0
C1940 C 0.1365 0.29447 0.3363 0.0
C1941 C 0.13801 0.29725 0.35642 0.0
C1942 C 0.15119 0.29219 0.3262 0.0
C1943 C 0.16741 0.29226 0.33611 0.0
C1944 C 0.16867 0.29417 0.35611 0.0
H1945 H 0.27698 0.29897 0.3288 0.0
H1946 H 0.24614 0.29594 0.33629 0.0
C1947 C 0.15413 0.29669 0.36618 0.0
C1948 C 0.1836 0.29228 0.32605 0.0
H1949 H 0.21745 0.26869 0.31999 0.0
C1950 C 0.1908 0.30875 0.31859 0.0
C1951 C 0.19304 0.2774 0.32598 0.0
C1952 C 0.18556 0.25912 0.33321 0.0
C1953 C 0.20781 0.3113 0.31217 0.0
C1954 C 0.21761 0.29675 0.31288 0.0
C1955 C 0.20997 0.27985 0.31947 0.0
C1956 C 0.23626 0.29925 0.3082 0.0
C1957 C 0.21549 0.33003 0.30581 0.0
C1958 C 0.24097 0.30226 0.28997 0.0
C1959 C 0.25859 0.304 0.28572 0.0
C1960 C 0.27161 0.30238 0.29953 0.0
C1961 C 0.26701 0.29986 0.31785 0.0
C1962 C 0.24945 0.29814 0.3221 0.0
H1963 H 0.20801 0.34143 0.31046 0.0
H1964 H 0.22957 0.3355 0.31156 0.0
H1965 H 0.21489 0.32751 0.28994 0.0
H1966 H 0.231 0.30286 0.27892 0.0
H1967 H 0.26202 0.30642 0.27163 0.0
H1968 H 0.98705 0.08569 0.23657 0.0
H1969 H 0.99953 0.0838 0.20564 0.0
H1970 H 0.9506 0.04672 0.17859 0.0
H1971 H 0.93788 0.04943 0.20964 0.0
H1972 H 0.00981 0.0595 0.18287 0.0
H1973 H 0.95675 0.07437 0.13635 0.0
H1974 H 0.95637 0.07789 0.16199 0.0
H1975 H 0.94877 0.05411 0.14751 0.0
C1976 C 0.97858 0.07771 0.22396 0.0
C1977 C 0.96096 0.06847 0.22608 0.0
C1978 C 0.98595 0.07634 0.20596 0.0
C1979 C 0.97634 0.06531 0.18877 0.0
C1980 C 0.95861 0.05603 0.19085 0.0
H1981 H 0.00848 0.0299 0.06947 0.0
H1982 H 0.99334 0.03331 0.09897 0.0
C1983 C 0.95112 0.05764 0.20894 0.0
C1984 C 0.98529 0.06296 0.16948 0.0
H1985 H 0.97937 0.06189 0.1205 0.0
C1986 C 1.00297 0.06026 0.16939 0.0
C1987 C 0.97704 0.06369 0.15114 0.0
C1988 C 0.95877 0.06787 0.1492 0.0
C1989 C 0.01212 0.05812 0.15239 0.0
C1990 C 1.00384 0.05876 0.13412 0.0
C1991 C 0.98614 0.06128 0.13407 0.0
C1992 C 0.01328 0.05692 0.11523 0.0
C1993 C 0.03065 0.05462 0.15421 0.0
C1994 C 0.02974 0.06913 0.11338 0.0
C1995 C 0.03847 0.0673 0.09617 0.0
C1996 C 0.03143 0.05303 0.07974 0.0
C1997 C 0.0148 0.04102 0.08148 0.0
C1998 C 1.00595 0.04301 0.09863 0.0
H1999 H 0.03331 0.04897 0.16745 0.0
H2000 H 0.03298 0.04421 0.14169 0.0
H2001 H 0.0403 0.0685 0.15492 0.0
H2002 H 0.03589 0.08044 0.12528 0.0
H2003 H 0.05084 0.07728 0.09578 0.0
H2004 H 0.27569 0.62607 0.455 0.0
H2005 H 0.26581 0.632 0.42333 0.0
H2006 H 0.30116 0.68815 0.43509 0.0
H2007 H 0.31059 0.68259 0.46659 0.0
H2008 H 0.25138 0.66878 0.42159 0.0
H2009 H 0.30759 0.6616 0.37807 0.0
H2010 H 0.30247 0.64836 0.39731 0.0
H2011 H 0.31417 0.67323 0.40257 0.0
C2012 C 0.28157 0.63946 0.45055 0.0
C2013 C 0.29385 0.65392 0.46311 0.0
C2014 C 0.27593 0.64282 0.43256 0.0
C2015 C 0.28296 0.6604 0.42688 0.0
C2016 C 0.2958 0.67438 0.43913 0.0
H2017 H 0.28757 0.75118 0.37527 0.0
H2018 H 0.29008 0.7224 0.38813 0.0
C2019 C 0.3011 0.67124 0.45713 0.0
C2020 C 0.27568 0.66573 0.40941 0.0
H2021 H 0.29048 0.68478 0.37104 0.0
C2022 C 0.25952 0.67167 0.41003 0.0
C2023 C 0.28639 0.66939 0.39446 0.0
C2024 C 0.30357 0.66265 0.3929 0.0
C2025 C 0.2548 0.68328 0.3974 0.0
C2026 C 0.26645 0.68862 0.38363 0.0
C2027 C 0.28163 0.68079 0.3817 0.0
C2028 C 0.2651 0.70508 0.37398 0.0
C2029 C 0.23835 0.69131 0.4002 0.0
C2030 C 0.2503 0.70485 0.36154 0.0
C2031 C 0.24875 0.72146 0.35427 0.0
C2032 C 0.26213 0.7384 0.35909 0.0
C2033 C 0.27715 0.73831 0.37107 0.0
C2034 C 0.2786 0.72185 0.37843 0.0
H2035 H 0.23191 0.68751 0.41304 0.0
H2036 H 0.24161 0.70731 0.40172 0.0
H2037 H 0.22863 0.6854 0.38748 0.0
H2038 H 0.23986 0.69196 0.35767 0.0
H2039 H 0.2371 0.72109 0.34493 0.0
H2040 H 0.66472 0.99513 0.68806 0.0
H2041 H 0.65222 0.9812 0.65494 0.0
H2042 H 0.65619 0.03879 0.64284 0.0
H2043 H 0.66853 0.05247 0.67556 0.0
H2044 H 0.62069 0.98742 0.64498 0.0
H2045 H 0.66413 0.0112 0.5914 0.0
H2046 H 0.67278 0.01069 0.61543 0.0
H2047 H 0.66522 0.03161 0.61009 0.0
C2048 C 0.66376 1.00468 0.67794 0.0
C2049 C 0.66751 0.0248 0.68417 0.0
C2050 C 0.65657 0.99675 0.65908 0.0
C2051 C 0.65337 0.00892 0.64631 0.0
C2052 C 0.65891 0.02904 0.65216 0.0
H2053 H 0.56699 0.03281 0.59586 0.0
H2054 H 0.58787 0.02027 0.61492 0.0
C2055 C 0.66586 0.0369 0.67094 0.0
C2056 C 0.64069 1.00153 0.62901 0.0
H2057 H 0.63243 0.01299 0.58531 0.0
C2058 C 0.62339 0.99235 0.63162 0.0
C2059 C 0.64415 1.00742 0.61135 0.0
C2060 C 0.66267 0.01557 0.60688 0.0
C2061 C 0.60916 0.99132 0.61814 0.0
C2062 C 0.61233 1.00005 0.6019 0.0
C2063 C 0.62987 1.00682 0.59806 0.0
C2064 C 0.59785 1.00487 0.59039 0.0
C2065 C 0.59078 0.98187 0.62197 0.0
C2066 C 0.59658 1.00051 0.5703 0.0
C2067 C 0.58485 1.0079 0.55952 0.0
C2068 C 0.57428 0.01973 0.56866 0.0
C2069 C 0.57494 0.02349 0.58865 0.0
C2070 C 0.58675 0.0162 0.59947 0.0
H2071 H 0.59122 0.96962 0.62957 0.0
H2072 H 0.58507 0.99256 0.6314 0.0
H2073 H 0.58191 0.97642 0.60852 0.0
H2074 H 0.6051 0.99198 0.563 0.0
H2075 H 0.58445 1.00493 0.54402 0.0
H2076 H 0.30973 0.34811 0.99201 0.0
H2077 H 0.31322 0.33168 0.95975 0.0
H2078 H 0.31881 0.38576 0.93958 0.0
H2079 H 0.31532 0.40228 0.97175 0.0
H2080 H 0.29154 0.3298 0.92572 0.0
H2081 H 0.36127 0.36427 0.91956 0.0
H2082 H 0.35187 0.36474 0.94229 0.0
H2083 H 0.34773 0.38126 0.92702 0.0
C2084 C 0.31185 0.35654 0.98074 0.0
C2085 C 0.31227 0.37653 0.98446 0.0
C2086 C 0.31383 0.34711 0.9623 0.0
C2087 C 0.31652 0.35751 0.94728 0.0
C2088 C 0.31709 0.37749 0.95101 0.0
H2089 H 0.31619 0.34592 0.82783 0.0
H2090 H 0.32071 0.35437 0.86267 0.0
C2091 C 0.31499 0.3869 0.96939 0.0
C2092 C 0.3178 0.3474 0.92747 0.0
H2093 H 0.34395 0.34795 0.89031 0.0
C2094 C 0.3031 0.3335 0.91804 0.0
C2095 C 0.33292 0.35217 0.91752 0.0
C2096 C 0.34942 0.36629 0.92715 0.0
C2097 C 0.30269 0.32516 0.89858 0.0
C2098 C 0.31755 0.33055 0.88837 0.0
C2099 C 0.33257 0.34377 0.8981 0.0
C2100 C 0.31685 0.3248 0.86715 0.0
C2101 C 0.28593 0.31155 0.88884 0.0
C2102 C 0.3137 0.3053 0.8579 0.0
C2103 C 0.31108 0.3004 0.83779 0.0
C2104 C 0.31184 0.31499 0.82673 0.0
C2105 C 0.3157 0.33442 0.83603 0.0
C2106 C 0.3183 0.33926 0.85595 0.0
H2107 H 0.27467 0.31155 0.89787 0.0
H2108 H 0.28212 0.31552 0.875 0.0
H2109 H 0.28821 0.29661 0.88581 0.0
H2110 H 0.31281 0.29388 0.86622 0.0
H2111 H 0.30784 0.28531 0.83096 0.0
H2112 H 0.93327 0.06841 0.34805 0.0
H2113 H 0.94819 0.06393 0.37798 0.0
H2114 H 0.9963 0.0636 0.35055 0.0
H2115 H 0.98144 0.06812 0.32074 0.0
H2116 H 0.96306 0.03664 0.38984 0.0
H2117 H 0.01813 0.1005 0.39817 0.0
H2118 H 0.99935 0.09674 0.38074 0.0
H2119 H 0.01706 0.08431 0.37578 0.0
C2120 C 0.94706 0.06748 0.34828 0.0
C2121 C 0.95589 0.06883 0.33143 0.0
C2122 C 0.95574 0.06485 0.36568 0.0
C2123 C 0.97386 0.06372 0.36743 0.0
C2124 C 0.98261 0.06489 0.3505 0.0
H2125 H 0.04865 0.05019 0.46592 0.0
H2126 H 0.03542 0.05337 0.43437 0.0
C2127 C 0.97391 0.06735 0.33307 0.0
C2128 C 0.98326 0.0609 0.38651 0.0
H2129 H 0.02022 0.07866 0.4194 0.0
C2130 C 0.97552 0.04602 0.39618 0.0
C2131 C 0.9998 0.07267 0.39549 0.0
C2132 C 0.00903 0.08957 0.38716 0.0
C2133 C 0.98357 0.04247 0.41356 0.0
C2134 C 0.99997 0.05442 0.42273 0.0
C2135 C 1.00781 0.06923 0.41299 0.0
C2136 C 0.00865 0.05216 0.44242 0.0
C2137 C 0.97449 0.02523 0.4215 0.0
C2138 C 0.9987 0.05059 0.4584 0.0
C2139 C 1.00628 0.04853 0.47644 0.0
C2140 C 0.02438 0.04803 0.47993 0.0
C2141 C 0.03463 0.05 0.46415 0.0
C2142 C 0.02694 0.05201 0.44589 0.0
H2143 H 0.96639 0.01391 0.41002 0.0
H2144 H 0.98419 0.01867 0.42877 0.0
H2145 H 0.96541 0.02986 0.432 0.0
H2146 H 0.98487 0.05133 0.45716 0.0
H2147 H 0.99776 0.04756 0.48798 0.0
H2148 H 0.27943 0.71025 0.55982 0.0
H2149 H 0.28372 0.72836 0.59245 0.0
H2150 H 0.33159 0.7079 0.60247 0.0
H2151 H 0.32662 0.68859 0.56988 0.0
H2152 H 0.3147 0.70698 0.63199 0.0
H2153 H 0.31531 0.77848 0.61363 0.0
H2154 H 0.29505 0.7624 0.60311 0.0
H2155 H 0.31595 0.75776 0.59564 0.0
C2156 C 0.29094 0.7097 0.56894 0.0
C2157 C 0.30282 0.69822 0.56231 0.0
C2158 C 0.29349 0.72024 0.58756 0.0
C2159 C 0.30835 0.72014 0.59976 0.0
C2160 C 0.32015 0.70843 0.59325 0.0
H2161 H 0.32191 0.80189 0.70898 0.0
H2162 H 0.32586 0.78668 0.67659 0.0
C2163 C 0.31732 0.6974 0.57468 0.0
C2164 C 0.31079 0.73142 0.61961 0.0
H2165 H 0.30681 0.77468 0.64545 0.0
C2166 C 0.3133 0.7219 0.63492 0.0
C2167 C 0.30955 0.7511 0.62358 0.0
C2168 C 0.30905 0.76304 0.60807 0.0
C2169 C 0.31354 0.73114 0.65398 0.0
C2170 C 0.31025 0.75007 0.65781 0.0
C2171 C 0.30883 0.75998 0.64257 0.0
C2172 C 0.30773 0.75959 0.67739 0.0
C2173 C 0.31745 0.72045 0.66973 0.0
C2174 C 0.29573 0.74985 0.68841 0.0
C2175 C 0.29405 0.75824 0.70719 0.0
C2176 C 0.30396 0.77683 0.71521 0.0
C2177 C 0.31478 0.78724 0.7036 0.0
C2178 C 0.31686 0.77861 0.68496 0.0
H2179 H 0.32609 0.71023 0.66508 0.0
H2180 H 0.32406 0.73053 0.6829 0.0
H2181 H 0.30487 0.71178 0.67323 0.0
H2182 H 0.28779 0.73559 0.6826 0.0
H2183 H 0.28517 0.74994 0.71548 0.0
H2184 H 0.63719 0.05531 0.76254 0.0
H2185 H 0.61764 0.06513 0.78619 0.0
H2186 H 0.65391 0.05803 0.83145 0.0
H2187 H 0.67392 0.0487 0.80775 0.0
H2188 H 0.60118 0.0429 0.80915 0.0
H2189 H 0.64273 0.10971 0.85306 0.0
H2190 H 0.64841 0.09899 0.83003 0.0
H2191 H 0.65319 0.0894 0.85108 0.0
C2192 C 0.64117 0.0561 0.77754 0.0
C2193 C 0.65708 0.05122 0.78333 0.0
C2194 C 0.62997 0.06172 0.79104 0.0
C2195 C 0.63439 0.0625 0.81058 0.0
C2196 C 0.65043 0.05795 0.81647 0.0
H2197 H 0.56377 0.04894 0.89789 0.0
H2198 H 0.58293 0.04533 0.87202 0.0
C2199 C 0.66178 0.0525 0.80293 0.0
C2200 C 0.62149 0.06652 0.82448 0.0
H2201 H 0.61638 0.0956 0.86605 0.0
C2202 C 0.60446 0.05455 0.82149 0.0
C2203 C 0.62572 0.08187 0.84042 0.0
C2204 C 0.64345 0.09586 0.84377 0.0
C2205 C 0.59168 0.05717 0.83429 0.0
C2206 C 0.59619 0.07189 0.85073 0.0
C2207 C 0.61303 0.08424 0.85346 0.0
C2208 C 0.58395 0.07399 0.86578 0.0
C2209 C 0.57346 0.04416 0.83006 0.0
C2210 C 0.57834 0.09141 0.87097 0.0
C2211 C 0.5675 0.0936 0.88592 0.0
C2212 C 0.56229 0.07844 0.89599 0.0
C2213 C 0.56769 0.06092 0.89048 0.0
C2214 C 0.5785 0.05876 0.8756 0.0
H2215 H 0.5705 0.03799 0.81453 0.0
H2216 H 0.57282 0.03193 0.83788 0.0
H2217 H 0.56306 0.05207 0.83475 0.0
H2218 H 0.58251 0.10336 0.86359 0.0
H2219 H 0.56369 0.10732 0.89002 0.0
H2220 H 0.30879 0.40245 0.09871 0.0
H2221 H 0.30639 0.395 0.1312 0.0
H2222 H 0.29645 0.33406 0.10764 0.0
H2223 H 0.29911 0.34129 0.07555 0.0
H2224 H 0.28024 0.37179 0.14958 0.0
H2225 H 0.34106 0.3425 0.14437 0.0
H2226 H 0.33442 0.35666 0.12768 0.0
H2227 H 0.32452 0.3313 0.12488 0.0
C2228 C 0.30585 0.38747 0.10047 0.0
C2229 C 0.30444 0.37249 0.08453 0.0
C2230 C 0.3045 0.38323 0.11904 0.0
C2231 C 0.30166 0.36396 0.12193 0.0
C2232 C 0.29909 0.34904 0.10588 0.0
H2233 H 0.27433 0.30813 0.21888 0.0
H2234 H 0.27362 0.32324 0.19049 0.0
C2235 C 0.30059 0.35323 0.08748 0.0
C2236 C 0.30234 0.35915 0.14155 0.0
H2237 H 0.3235 0.33483 0.16962 0.0
C2238 C 0.28979 0.36387 0.15406 0.0
C2239 C 0.31501 0.34914 0.14762 0.0
C2240 C 0.32963 0.34477 0.13552 0.0
C2241 C 0.28917 0.35814 0.17211 0.0
C2242 C 0.30119 0.34709 0.17763 0.0
C2243 C 0.31411 0.34305 0.16538 0.0
C2244 C 0.30078 0.33941 0.19592 0.0
C2245 C 0.27579 0.36414 0.18517 0.0
C2246 C 0.31625 0.34329 0.20848 0.0
C2247 C 0.31683 0.33419 0.22435 0.0
C2248 C 0.30196 0.32095 0.22819 0.0
C2249 C 0.28619 0.31779 0.21614 0.0
C2250 C 0.28567 0.32674 0.20005 0.0
H2251 H 0.27126 0.3769 0.18143 0.0
H2252 H 0.26404 0.35206 0.18366 0.0
H2253 H 0.28137 0.36765 0.20039 0.0
H2254 H 0.32808 0.35305 0.20575 0.0
H2255 H 0.32917 0.33729 0.23335 0.0
H2256 H 0.29577 0.98551 0.05595 0.0
H2257 H 0.27229 1.00358 0.0616 0.0
H2258 H 0.23295 0.95022 0.04831 0.0
H2259 H 0.2563 0.93207 0.043 0.0
H2260 H 0.24548 1.00503 0.03539 0.0
H2261 H 0.21711 0.97646 0.09737 0.0
H2262 H 0.23832 0.97306 0.08982 0.0
H2263 H 0.21817 0.95791 0.07738 0.0
C2264 C 0.28214 0.9776 0.05454 0.0
C2265 C 0.27791 0.95734 0.04909 0.0
C2266 C 0.26873 0.98795 0.05771 0.0
C2267 C 0.25086 0.97826 0.0556 0.0
C2268 C 0.24664 0.95801 0.05045 0.0
H2269 H 0.15048 0.01599 0.05654 0.0
H2270 H 0.1737 0.99721 0.05284 0.0
C2271 C 0.26003 0.94765 0.04732 0.0
C2272 C 0.2366 0.98939 0.05762 0.0
H2273 H 0.20048 0.99498 0.08181 0.0
C2274 C 0.23572 1.00292 0.04564 0.0
C2275 C 0.22378 0.98654 0.0709 0.0
C2276 C 0.22444 0.97284 0.08473 0.0
C2277 C 0.22227 0.01349 0.04639 0.0
C2278 C 0.20947 0.01063 0.05965 0.0
C2279 C 0.21028 0.99707 0.0716 0.0
C2280 C 0.19541 0.02198 0.06166 0.0
C2281 C 0.22168 0.02738 0.03275 0.0
C2282 C 0.19991 0.04208 0.06798 0.0
C2283 C 0.18673 0.05281 0.07007 0.0
C2284 C 0.16872 0.04366 0.06595 0.0
C2285 C 0.16423 0.02349 0.05963 0.0
C2286 C 0.17746 0.01274 0.05762 0.0
H2287 H 0.22959 0.02439 0.02045 0.0
H2288 H 0.20783 0.02665 0.02714 0.0
H2289 H 0.22725 0.04235 0.04047 0.0
H2290 H 0.21366 0.04947 0.07141 0.0
H2291 H 0.19066 0.06833 0.07479 0.0
H2292 H 0.75262 0.63836 1.00099 0.0
H2293 H 0.72384 0.61657 1.0008 0.0
H2294 H 0.69748 0.66257 0.99296 0.0
H2295 H 0.72604 0.68426 0.99266 0.0
H2296 H 0.69902 0.61906 0.02518 0.0
H2297 H 0.6695 0.61941 0.95265 0.0
H2298 H 0.69274 0.62888 0.96007 0.0
H2299 H 0.67674 0.6434 0.96636 0.0
C2300 C 0.7407 0.6438 0.99896 0.0
C2301 C 0.74174 0.66311 0.99675 0.0
C2302 C 0.72423 0.6313 0.99889 0.0
C2303 C 0.7084 0.63778 0.99657 0.0
C2304 C 0.70941 0.65701 0.99427 0.0
H2305 H 0.6071 0.59081 0.03505 0.0
H2306 H 0.63638 0.60917 0.031 0.0
C2307 C 0.72584 0.66947 0.99422 0.0
C2308 C 0.69092 0.62483 0.99765 0.0
H2309 H 0.64939 0.6075 0.9745 0.0
C2310 C 0.68823 0.61641 0.01401 0.0
C2311 C 0.67685 0.62106 0.98297 0.0
C2312 C 0.67914 0.6285 0.96444 0.0
C2313 C 0.67179 0.60486 0.01635 0.0
C2314 C 0.65743 0.60199 1.00216 0.0
C2315 C 0.66027 0.6099 0.98552 0.0
C2316 C 0.63936 0.59096 1.00438 0.0
C2317 C 0.67006 0.59565 0.03393 0.0
C2318 C 0.63085 0.57502 0.99037 0.0
C2319 C 0.61391 0.56462 0.9925 0.0
C2320 C 0.60511 0.56988 0.00872 0.0
C2321 C 0.6135 0.58614 0.02248 0.0
C2322 C 0.63037 0.5966 0.02028 0.0
H2323 H 0.68314 0.59418 0.04005 0.0
H2324 H 0.66452 0.60494 0.04506 0.0
H2325 H 0.66109 0.58112 0.03065 0.0
H2326 H 0.63737 0.57052 0.97784 0.0
H2327 H 0.60769 0.55254 0.98136 0.0
H2328 H 0.72688 0.47855 0.26532 0.0
H2329 H 0.74277 0.45214 0.26546 0.0
H2330 H 0.69351 0.4126 0.26773 0.0
H2331 H 0.67762 0.43902 0.26758 0.0
H2332 H 0.74999 0.429 0.28888 0.0
H2333 H 0.71125 0.37805 0.22708 0.0
H2334 H 0.70891 0.4028 0.23292 0.0
H2335 H 0.69765 0.38487 0.24553 0.0
C2336 C 0.71923 0.46424 0.26567 0.0
C2337 C 0.70055 0.46153 0.26622 0.0
C2338 C 0.72853 0.44882 0.26584 0.0
C2339 C 0.71983 0.42947 0.26625 0.0
C2340 C 0.70112 0.42677 0.26686 0.0
H2341 H 0.77185 0.33778 0.3026 0.0
H2342 H 0.75747 0.36467 0.29983 0.0
C2343 C 0.69183 0.44225 0.26689 0.0
C2344 C 0.73024 0.41266 0.2665 0.0
H2345 H 0.73111 0.36539 0.24565 0.0
C2346 C 0.74565 0.41519 0.2793 0.0
C2347 C 0.72549 0.39412 0.25406 0.0
C2348 C 0.71005 0.38977 0.23898 0.0
C2349 C 0.75561 0.40036 0.28035 0.0
C2350 C 0.75054 0.38164 0.26834 0.0
C2351 C 0.73543 0.37925 0.25517 0.0
C2352 C 0.76034 0.36459 0.26976 0.0
C2353 C 0.77194 0.40517 0.29432 0.0
C2354 C 0.76727 0.35436 0.25394 0.0
C2355 C 0.77602 0.33863 0.2556 0.0
C2356 C 0.7781 0.33201 0.27318 0.0
C2357 C 0.77105 0.34221 0.2888 0.0
C2358 C 0.76265 0.35795 0.28722 0.0
H2359 H 0.77722 0.42104 0.29816 0.0
H2360 H 0.76851 0.39979 0.30766 0.0
H2361 H 0.78253 0.39822 0.28836 0.0
H2362 H 0.76596 0.35855 0.24008 0.0
H2363 H 0.78072 0.33135 0.24294 0.0
H2364 H 0.87658 0.41857 0.50469 0.0
H2365 H 0.90648 0.43563 0.50104 0.0
H2366 H 0.89147 0.49034 0.51741 0.0
H2367 H 0.8615 0.47344 0.52136 0.0
H2368 H 0.91799 0.46278 0.47725 0.0
H2369 H 0.9352 0.49438 0.5546 0.0
H2370 H 0.91625 0.47495 0.54611 0.0
H2371 H 0.9154 0.49934 0.54398 0.0
C2372 C 0.87958 0.43423 0.50759 0.0
C2373 C 0.86662 0.44461 0.5135 0.0
C2374 C 0.89669 0.44396 0.50541 0.0
C2375 C 0.90123 0.46423 0.50916 0.0
C2376 C 0.8883 0.47467 0.51475 0.0
H2377 H 1.00518 0.54064 0.51661 0.0
H2378 H 0.97312 0.52869 0.51298 0.0
C2379 C 0.87116 0.46497 0.51696 0.0
C2380 C 0.9196 0.47432 0.50743 0.0
H2381 H 0.95669 0.50278 0.5336 0.0
C2382 C 0.92646 0.47161 0.48953 0.0
C2383 C 0.93056 0.48586 0.52348 0.0
C2384 C 0.92409 0.48874 0.54318 0.0
C2385 C 0.94406 0.48005 0.48728 0.0
C2386 C 0.95514 0.49121 0.50343 0.0
C2387 C 0.94814 0.49428 0.52122 0.0
C2388 C 0.9743 0.49889 0.50263 0.0
C2389 C 0.95062 0.47698 0.46765 0.0
C2390 C 0.98562 0.48618 0.49771 0.0
C2391 C 1.00397 0.49306 0.49955 0.0
C2392 C 0.0113 0.51275 0.5063 0.0
C2393 C 0.99994 0.52552 0.51083 0.0
C2394 C 0.9816 0.51867 0.50892 0.0
H2395 H 0.93952 0.47364 0.45617 0.0
H2396 H 0.96034 0.4899 0.46547 0.0
H2397 H 0.95722 0.46452 0.46616 0.0
H2398 H 0.98033 0.4708 0.49331 0.0
H2399 H 0.01249 0.48289 0.49633 0.0
H2400 H 0.4025 0.10745 0.28945 0.0
H2401 H 0.37949 0.12301 0.2781 0.0
H2402 H 0.34385 0.06733 0.26142 0.0
H2403 H 0.36669 0.05166 0.27265 0.0
H2404 H 0.34519 0.09278 0.2335 0.0
H2405 H 0.33419 0.12727 0.30661 0.0
H2406 H 0.35686 0.13154 0.30101 0.0
H2407 H 0.34547 0.10746 0.30237 0.0
C2408 C 0.38979 0.09853 0.28328 0.0
C2409 C 0.38635 0.07836 0.28206 0.0
C2410 C 0.37667 0.10743 0.27688 0.0
C2411 C 0.35995 0.09629 0.26915 0.0
C2412 C 0.35666 0.07614 0.26741 0.0
H2413 H 0.2683 0.14803 0.25603 0.0
H2414 H 0.28617 0.12438 0.26112 0.0
C2415 C 0.36972 0.06725 0.27388 0.0
C2416 C 0.34576 0.10569 0.26321 0.0
H2417 H 0.31994 0.13674 0.28051 0.0
C2418 C 0.33956 0.10231 0.24375 0.0
C2419 C 0.33827 0.11779 0.2767 0.0
C2420 C 0.34389 0.12115 0.29787 0.0
C2421 C 0.32645 0.11134 0.23733 0.0
C2422 C 0.31952 0.12411 0.25073 0.0
C2423 C 0.3253 0.12694 0.27026 0.0
C2424 C 0.30727 0.13588 0.2448 0.0
C2425 C 0.32017 0.1072 0.21629 0.0
C2426 C 0.31305 0.14982 0.23357 0.0
C2427 C 0.3029 0.16325 0.23066 0.0
C2428 C 0.28683 0.16304 0.239 0.0
C2429 C 0.28055 0.14838 0.2493 0.0
C2430 C 0.29077 0.13496 0.25229 0.0
H2431 H 0.32269 0.09317 0.20902 0.0
H2432 H 0.3058 0.10692 0.21407 0.0
H2433 H 0.32748 0.11876 0.20936 0.0
H2434 H 0.32587 0.151 0.22795 0.0
H2435 H 0.308 0.17439 0.22262 0.0
H2436 H 0.3178 0.13034 0.51551 0.0
H2437 H 0.34166 0.11357 0.52058 0.0
H2438 H 0.37954 0.16808 0.53159 0.0
H2439 H 0.35571 0.18485 0.52555 0.0
H2440 H 0.39312 0.14263 0.51052 0.0
H2441 H 0.36549 0.10841 0.56939 0.0
H2442 H 0.35019 0.10153 0.54833 0.0
H2443 H 0.35616 0.1265 0.5602 0.0
C2444 C 0.33119 0.1388 0.51917 0.0
C2445 C 0.33481 0.15898 0.5203 0.0
C2446 C 0.34486 0.12918 0.5222 0.0
C2447 C 0.36246 0.13951 0.52699 0.0
C2448 C 0.36611 0.1597 0.52805 0.0
H2449 H 0.44129 0.08319 0.57295 0.0
H2450 H 0.42055 0.104 0.56833 0.0
C2451 C 0.35245 0.16931 0.52466 0.0
C2452 C 0.37705 0.1292 0.53038 0.0
H2453 H 0.38861 0.09555 0.55458 0.0
C2454 C 0.39218 0.13247 0.5203 0.0
C2455 C 0.37615 0.11616 0.5434 0.0
C2456 C 0.36121 0.11311 0.55609 0.0
C2457 C 0.40615 0.12286 0.52256 0.0
C2458 C 0.40474 0.10895 0.53473 0.0
C2459 C 0.38974 0.10597 0.54505 0.0
C2460 C 0.41864 0.09749 0.53731 0.0
C2461 C 0.42242 0.12815 0.51221 0.0
C2462 C 0.42481 0.08694 0.52149 0.0
C2463 C 0.43708 0.07541 0.52417 0.0
C2464 C 0.44304 0.07372 0.54271 0.0
C2465 C 0.43692 0.08425 0.5585 0.0
C2466 C 0.425 0.0961 0.55584 0.0
H2467 H 0.42405 0.14306 0.50916 0.0
H2468 H 0.43461 0.12719 0.52066 0.0
H2469 H 0.42104 0.11811 0.49827 0.0
H2470 H 0.41979 0.08715 0.50704 0.0
H2471 H 0.44138 0.06721 0.51176 0.0
H2472 H 0.71947 0.56156 0.27119 0.0
H2473 H 0.73912 0.59347 0.27178 0.0
H2474 H 0.6963 0.62135 0.28709 0.0
H2475 H 0.67705 0.59015 0.28695 0.0
H2476 H 0.73918 0.62306 0.25193 0.0
H2477 H 0.73313 0.65335 0.32719 0.0
H2478 H 0.72528 0.62798 0.31741 0.0
H2479 H 0.71179 0.64511 0.31397 0.0
C2480 C 0.71427 0.57447 0.27491 0.0
C2481 C 0.69645 0.57279 0.27922 0.0
C2482 C 0.72558 0.5929 0.27517 0.0
C2483 C 0.7196 0.61038 0.27992 0.0
C2484 C 0.70178 0.60856 0.28395 0.0
H2485 H 0.7548 0.73608 0.28663 0.0
H2486 H 0.73954 0.70278 0.28653 0.0
C2487 C 0.69058 0.59035 0.28371 0.0
C2488 C 0.73148 0.63043 0.28037 0.0
H2489 H 0.74423 0.67628 0.3076 0.0
C2490 C 0.7404 0.63456 0.26425 0.0
C2491 C 0.73342 0.64592 0.29629 0.0
C2492 C 0.72555 0.64284 0.31475 0.0
C2493 C 0.75031 0.65342 0.26336 0.0
C2494 C 0.75184 0.66901 0.27912 0.0
C2495 C 0.7432 0.66475 0.29534 0.0
C2496 C 0.76171 0.68983 0.27896 0.0
C2497 C 0.75847 0.6566 0.24508 0.0
C2498 C 0.77966 0.69452 0.27506 0.0
C2499 C 0.78852 0.71391 0.27503 0.0
C2500 C 0.77984 0.7295 0.27888 0.0
C2501 C 0.76202 0.72477 0.2831 0.0
C2502 C 0.75321 0.70548 0.28323 0.0
H2503 H 0.75227 0.64503 0.23278 0.0
H2504 H 0.75717 0.67079 0.24157 0.0
H2505 H 0.77277 0.65649 0.2469 0.0
H2506 H 0.78698 0.68316 0.27215 0.0
H2507 H 0.8021 0.71659 0.27157 0.0
H2508 H 0.92604 0.48742 0.81995 0.0
H2509 H 0.90542 0.45605 0.81415 0.0
H2510 H 0.86307 0.48258 0.79775 0.0
H2511 H 0.88361 0.51419 0.80341 0.0
H2512 H 0.85625 0.45285 0.82473 0.0
H2513 H 0.88434 0.42893 0.75678 0.0
H2514 H 0.90015 0.43989 0.7771 0.0
H2515 H 0.88662 0.45414 0.76727 0.0
C2516 C 0.91231 0.48672 0.81533 0.0
C2517 C 0.90654 0.50336 0.81199 0.0
C2518 C 0.90058 0.46875 0.81196 0.0
C2519 C 0.88285 0.46705 0.80529 0.0
C2520 C 0.87677 0.48366 0.8028 0.0
H2521 H 0.80087 0.35945 0.77401 0.0
H2522 H 0.81497 0.39409 0.78286 0.0
C2523 C 0.88853 0.50169 0.80606 0.0
C2524 C 0.87095 0.44773 0.80029 0.0
H2525 H 0.86485 0.40485 0.76904 0.0
C2526 C 0.85786 0.4424 0.81239 0.0
C2527 C 0.87322 0.43423 0.78422 0.0
C2528 C 0.88674 0.43954 0.77045 0.0
C2529 C 0.84747 0.42351 0.80928 0.0
C2530 C 0.85019 0.40978 0.79361 0.0
C2531 C 0.86285 0.41539 0.78112 0.0
C2532 C 0.84095 0.38918 0.79046 0.0
C2533 C 0.83465 0.41793 0.82353 0.0
C2534 C 0.85088 0.37504 0.7918 0.0
C2535 C 0.8429 0.35545 0.78669 0.0
C2536 C 0.82482 0.34968 0.78046 0.0
C2537 C 0.81476 0.36371 0.77932 0.0
C2538 C 0.82277 0.3834 0.78439 0.0
H2539 H 0.83422 0.43027 0.83511 0.0
H2540 H 0.82112 0.41215 0.81623 0.0
H2541 H 0.83876 0.40635 0.83007 0.0
H2542 H 0.86496 0.3792 0.79623 0.0
H2543 H 0.85097 0.34478 0.78708 0.0
H2544 H 0.08916 0.85155 0.0784 0.0
H2545 H 0.08572 0.87978 0.06439 0.0
H2546 H 0.07986 0.91062 0.12028 0.0
H2547 H 0.08313 0.88246 0.13428 0.0
H2548 H 0.05454 0.91444 0.09408 0.0
H2549 H 0.11928 0.93079 0.06405 0.0
H2550 H 0.10695 0.90645 0.05595 0.0
H2551 H 0.115 0.91447 0.08081 0.0
C2552 C 0.08738 0.86443 0.08778 0.0
C2553 C 0.08655 0.86456 0.10759 0.0
C2554 C 0.08548 0.88071 0.07972 0.0
C2555 C 0.08272 0.89774 0.09117 0.0
C2556 C 0.08202 0.89789 0.11096 0.0
H2557 H 0.06429 0.01184 0.08105 0.0
H2558 H 0.06759 0.98148 0.09033 0.0
C2559 C 0.08397 0.88167 0.11903 0.0
C2560 C 0.07974 0.91502 0.08263 0.0
H2561 H 0.09831 0.94896 0.05655 0.0
C2562 C 0.06419 0.92194 0.0859 0.0
C2563 C 0.09208 0.92496 0.07168 0.0
C2564 C 0.10934 0.91895 0.06801 0.0
C2565 C 0.06065 0.93817 0.0787 0.0
C2566 C 0.07318 0.94846 0.06816 0.0
C2567 C 0.08859 0.94131 0.06454 0.0
C2568 C 0.07097 0.96717 0.06191 0.0
C2569 C 0.04323 0.94384 0.08225 0.0
C2570 C 0.07232 0.97004 0.04278 0.0
C2571 C 0.07054 0.98778 0.03738 0.0
C2572 C 0.06734 1.00313 0.05098 0.0
C2573 C 0.06633 1.00027 0.07006 0.0
C2574 C 0.06811 0.98272 0.07541 0.0
H2575 H 0.03294 0.93126 0.08421 0.0
H2576 H 0.04498 0.95486 0.09556 0.0
H2577 H 0.03834 0.95 0.07023 0.0
H2578 H 0.07473 0.95854 0.03197 0.0
H2579 H 0.07192 0.98957 0.02268 0.0
H2580 H 0.98448 0.27432 0.8799 0.0
H2581 H 0.95841 0.277 0.85984 0.0
H2582 H 0.92784 0.27688 0.90865 0.0
H2583 H 0.95367 0.27472 0.92867 0.0
H2584 H 0.92524 0.25548 0.84923 0.0
H2585 H 0.91861 0.3248 0.8924 0.0
H2586 H 0.93776 0.3146 0.8958 0.0
H2587 H 0.9178 0.30631 0.90661 0.0
C2588 C 0.97218 0.27475 0.88634 0.0
C2589 C 0.97142 0.27447 0.90608 0.0
C2590 C 0.95722 0.27635 0.87483 0.0
C2591 C 0.94107 0.27774 0.8827 0.0
C2592 C 0.94014 0.27656 0.90218 0.0
H2593 H 0.83441 0.28757 0.84078 0.0
H2594 H 0.86061 0.28337 0.85945 0.0
C2595 C 0.95503 0.27513 0.91366 0.0
C2596 C 0.92519 0.28039 0.87077 0.0
H2597 H 0.89414 0.30844 0.86977 0.0
C2598 C 0.91858 0.26717 0.8537 0.0
C2599 C 0.91625 0.29564 0.87636 0.0
C2600 C 0.92307 0.31125 0.89368 0.0
C2601 C 0.90325 0.26845 0.84253 0.0
C2602 C 0.89418 0.28349 0.84831 0.0
C2603 C 0.90085 0.29677 0.86529 0.0
C2604 C 0.87802 0.28592 0.83681 0.0
C2605 C 0.89662 0.25331 0.82481 0.0
C2606 C 0.8789 0.28921 0.8179 0.0
C2607 C 0.86394 0.29177 0.80724 0.0
C2608 C 0.84749 0.29097 0.81503 0.0
C2609 C 0.8467 0.28807 0.83412 0.0
C2610 C 0.86174 0.28564 0.84485 0.0
H2611 H 0.90205 0.24014 0.825 0.0
H2612 H 0.88193 0.24909 0.82331 0.0
H2613 H 0.90087 0.25931 0.812 0.0
H2614 H 0.89131 0.29017 0.81142 0.0
H2615 H 0.86547 0.29489 0.793 0.0
H2616 H 0.57469 0.25464 0.62339 0.0
H2617 H 0.56986 0.21924 0.61432 0.0
H2618 H 0.58468 0.22509 0.55774 0.0
H2619 H 0.59003 0.26015 0.5668 0.0
H2620 H 0.54826 0.19238 0.5886 0.0
H2621 H 0.61618 0.19045 0.56943 0.0
H2622 H 0.61043 0.21227 0.58138 0.0
H2623 H 0.60599 0.20482 0.55577 0.0
C2624 C 0.57695 0.24841 0.60902 0.0
C2625 C 0.58298 0.26051 0.59597 0.0
C2626 C 0.57419 0.22806 0.60381 0.0
C2627 C 0.57736 0.2192 0.58542 0.0
C2628 C 0.58274 0.23129 0.57223 0.0
H2629 H 0.55837 0.0976 0.52448 0.0
H2630 H 0.56496 0.13324 0.53271 0.0
C2631 C 0.58565 0.25152 0.57744 0.0
C2632 C 0.57472 0.19745 0.57983 0.0
H2633 H 0.59454 0.16101 0.55978 0.0
C2634 C 0.55848 0.18562 0.58243 0.0
C2635 C 0.58795 0.18825 0.5717 0.0
C2636 C 0.60617 0.19959 0.56959 0.0
C2637 C 0.55504 0.16525 0.57692 0.0
C2638 C 0.56815 0.15615 0.56859 0.0
C2639 C 0.58438 0.16788 0.56596 0.0
C2640 C 0.56544 0.13448 0.56336 0.0
C2641 C 0.53721 0.15354 0.57981 0.0
C2642 C 0.564 0.12316 0.57775 0.0
C2643 C 0.56056 0.10288 0.57308 0.0
C2644 C 0.55853 0.09321 0.55388 0.0
C2645 C 0.56025 0.10451 0.53942 0.0
C2646 C 0.56388 0.12492 0.54413 0.0
H2647 H 0.5273 0.16269 0.58252 0.0
H2648 H 0.53212 0.14203 0.5671 0.0
H2649 H 0.53861 0.14643 0.59235 0.0
H2650 H 0.56531 0.13004 0.59268 0.0
H2651 H 0.55916 0.09467 0.58458 0.0
H2652 H 0.5609 0.75752 0.36916 0.0
H2653 H 0.58783 0.76094 0.35232 0.0
H2654 H 0.61668 0.80021 0.40187 0.0
H2655 H 0.59004 0.79616 0.41896 0.0
H2656 H 0.60631 0.78992 0.34079 0.0
H2657 H 0.65208 0.76813 0.391 0.0
H2658 H 0.62864 0.76461 0.39344 0.0
H2659 H 0.64318 0.78772 0.40273 0.0
C2660 C 0.57306 0.76661 0.3766 0.0
C2661 C 0.57325 0.7764 0.39553 0.0
C2662 C 0.58851 0.76864 0.36691 0.0
C2663 C 0.60462 0.7806 0.37579 0.0
C2664 C 0.60477 0.79038 0.39474 0.0
H2665 H 0.68765 0.83086 0.30904 0.0
H2666 H 0.66329 0.8246 0.32922 0.0
C2667 C 0.58939 0.78815 0.40451 0.0
C2668 C 0.62082 0.78373 0.36488 0.0
H2669 H 0.66551 0.7852 0.36746 0.0
C2670 C 0.61919 0.78872 0.34665 0.0
C2671 C 0.63777 0.78191 0.37213 0.0
C2672 C 0.6405 0.77509 0.3908 0.0
C2673 C 0.63383 0.79229 0.33579 0.0
C2674 C 0.65097 0.79161 0.34353 0.0
C2675 C 0.65256 0.78614 0.36154 0.0
C2676 C 0.66725 0.79641 0.33306 0.0
C2677 C 0.63057 0.79629 0.31587 0.0
C2678 C 0.67862 0.78339 0.32947 0.0
C2679 C 0.69299 0.78727 0.31832 0.0
C2680 C 0.69628 0.80424 0.31047 0.0
C2681 C 0.68545 0.81764 0.31485 0.0
C2682 C 0.67132 0.81392 0.32619 0.0
H2683 H 0.61665 0.79004 0.30984 0.0
H2684 H 0.63296 0.81215 0.31646 0.0
H2685 H 0.6395 0.79026 0.30596 0.0
H2686 H 0.676 0.76985 0.33467 0.0
H2687 H 0.70097 0.77657 0.31504 0.0
H2688 H 0.09066 0.27757 0.44689 0.0
H2689 H 0.08617 0.24551 0.45495 0.0
H2690 H 0.08669 0.2204 0.39552 0.0
H2691 H 0.09104 0.25274 0.38714 0.0
H2692 H 0.05784 0.20301 0.41194 0.0
H2693 H 0.1186 0.20811 0.45858 0.0
H2694 H 0.10889 0.22853 0.46578 0.0
H2695 H 0.11702 0.2248 0.44248 0.0
C2696 C 0.09003 0.26532 0.43547 0.0
C2697 C 0.09112 0.26776 0.41632 0.0
C2698 C 0.08766 0.24697 0.44018 0.0
C2699 C 0.08642 0.2306 0.4259 0.0
C2700 C 0.08781 0.2329 0.40678 0.0
H2701 H 0.06602 0.12351 0.47409 0.0
H2702 H 0.07957 0.14647 0.45436 0.0
C2703 C 0.09029 0.25137 0.40203 0.0
C2704 C 0.08181 0.21116 0.43104 0.0
H2705 H 0.09225 0.18584 0.46501 0.0
C2706 C 0.06558 0.19899 0.4232 0.0
C2707 C 0.09205 0.2057 0.44546 0.0
C2708 C 0.1102 0.2174 0.45339 0.0
C2709 C 0.0586 0.18242 0.4306 0.0
C2710 C 0.06796 0.17816 0.44643 0.0
C2711 C 0.08492 0.18933 0.4531 0.0
C2712 C 0.05959 0.16367 0.45758 0.0
C2713 C 0.04095 0.17001 0.42183 0.0
C2714 C 0.0441 0.16597 0.46619 0.0
C2715 C 0.03644 0.15304 0.47751 0.0
C2716 C 0.04418 0.13757 0.48058 0.0
C2717 C 0.05982 0.13536 0.47209 0.0
C2718 C 0.0675 0.14836 0.46072 0.0
H2719 H 0.03864 0.17097 0.40649 0.0
H2720 H 0.04005 0.15461 0.42297 0.0
H2721 H 0.03021 0.17522 0.42945 0.0
H2722 H 0.03809 0.17803 0.46446 0.0
H2723 H 0.02463 0.1554 0.48417 0.0
H2724 H 0.56077 0.29679 0.20439 0.0
H2725 H 0.58709 0.29296 0.2227 0.0
H2726 H 0.61155 0.28084 0.17024 0.0
H2727 H 0.58558 0.2853 0.15192 0.0
H2728 H 0.59899 0.26105 0.22116 0.0
H2729 H 0.6522 0.31714 0.20294 0.0
H2730 H 0.62905 0.31676 0.19761 0.0
H2731 H 0.64024 0.30183 0.18176 0.0
C2732 C 0.5719 0.2937 0.19678 0.0
C2733 C 0.57109 0.29138 0.17669 0.0
C2734 C 0.58693 0.29149 0.20727 0.0
C2735 C 0.6014 0.28682 0.19789 0.0
C2736 C 0.60078 0.28496 0.17787 0.0
H2737 H 0.67512 0.22187 0.23425 0.0
H2738 H 0.64963 0.233 0.22183 0.0
C2739 C 0.58586 0.28742 0.16739 0.0
C2740 C 0.6164 0.28219 0.20879 0.0
H2741 H 0.66153 0.29114 0.21528 0.0
C2742 C 0.61266 0.26783 0.22007 0.0
C2743 C 0.63424 0.29121 0.20764 0.0
C2744 C 0.63916 0.30773 0.197 0.0
C2745 C 0.62625 0.26177 0.22968 0.0
C2746 C 0.6441 0.26986 0.22746 0.0
C2747 C 0.64785 0.28472 0.21676 0.0
C2748 C 0.65909 0.2629 0.23575 0.0
C2749 C 0.62131 0.24685 0.24219 0.0
C2750 C 0.67307 0.27604 0.24737 0.0
C2751 C 0.68775 0.26975 0.25421 0.0
C2752 C 0.68869 0.25018 0.24961 0.0
C2753 C 0.67458 0.23698 0.23824 0.0
C2754 C 0.65999 0.24332 0.23121 0.0
H2755 H 0.60808 0.24707 0.24743 0.0
H2756 H 0.62067 0.23224 0.2337 0.0
H2757 H 0.6312 0.24925 0.25476 0.0
H2758 H 0.67269 0.29122 0.25102 0.0
H2759 H 0.69843 0.28021 0.26303 0.0
H2760 H 0.60985 0.8749 0.93676 0.0
H2761 H 0.60198 0.90632 0.94503 0.0
H2762 H 0.59853 0.91116 0.88539 0.0
H2763 H 0.60632 0.87944 0.87686 0.0
H2764 H 0.61822 0.94681 0.91723 0.0
H2765 H 0.54907 0.91229 0.92688 0.0
H2766 H 0.56609 0.90232 0.93723 0.0
H2767 H 0.56293 0.90013 0.91169 0.0
C2768 C 0.60761 0.8827 0.92538 0.0
C2769 C 0.60856 0.87465 0.90614 0.0
C2770 C 0.6031 0.90062 0.93014 0.0
C2771 C 0.59952 0.91084 0.91578 0.0
C2772 C 0.60122 0.90335 0.89662 0.0
H2773 H 0.54732 1.00638 0.95412 0.0
H2774 H 0.55599 0.9805 0.93206 0.0
C2775 C 0.60569 0.8853 0.8918 0.0
C2776 C 0.59326 0.92893 0.92108 0.0
H2777 H 0.55895 0.94562 0.94092 0.0
C2778 C 0.60516 0.94666 0.92206 0.0
C2779 C 0.57613 0.92859 0.92706 0.0
C2780 C 0.56271 0.90984 0.92555 0.0
C2781 C 0.6007 0.9641 0.93012 0.0
C2782 C 0.58406 0.96363 0.93757 0.0
C2783 C 0.57175 0.94596 0.93532 0.0
C2784 C 0.57985 0.98078 0.94957 0.0
C2785 C 0.614 0.98281 0.93103 0.0
C2786 C 0.59042 0.98951 0.96667 0.0
C2787 C 0.58553 1.00422 0.97926 0.0
C2788 C 0.56982 0.01036 0.97512 0.0
C2789 C 0.55948 1.00196 0.95774 0.0
C2790 C 0.56441 0.98719 0.94511 0.0
H2791 H 0.62286 0.98165 0.91931 0.0
H2792 H 0.60736 0.99501 0.93008 0.0
H2793 H 0.62241 0.98619 0.94484 0.0
H2794 H 0.60217 0.98449 0.97063 0.0
H2795 H 0.59393 0.01053 0.9924 0.0
H2796 H 0.94863 0.77356 0.66889 0.0
H2797 H 0.92251 0.76842 0.68659 0.0
H2798 H 0.95358 0.75521 0.73289 0.0
H2799 H 0.98002 0.76086 0.71538 0.0
H2800 H 0.90575 0.73598 0.69924 0.0
H2801 H 0.93055 0.79619 0.76101 0.0
H2802 H 0.94171 0.79375 0.73942 0.0
H2803 H 0.94396 0.77848 0.75661 0.0
C2804 C 0.94996 0.76965 0.68288 0.0
C2805 C 0.96642 0.76776 0.6908 0.0
C2806 C 0.93499 0.76665 0.69296 0.0
C2807 C 0.9361 0.76163 0.71116 0.0
C2808 C 0.95247 0.75946 0.71904 0.0
H2809 H 0.84752 0.75961 0.78463 0.0
H2810 H 0.87569 0.75354 0.77314 0.0
C2811 C 0.96755 0.76263 0.709 0.0
C2812 C 0.91999 0.75884 0.72165 0.0
H2813 H 0.90171 0.77807 0.76091 0.0
C2814 C 0.90488 0.74522 0.71273 0.0
C2815 C 0.91894 0.77054 0.7395 0.0
C2816 C 0.93459 0.78567 0.74969 0.0
C2817 C 0.88855 0.74374 0.72063 0.0
C2818 C 0.88722 0.75643 0.73773 0.0
C2819 C 0.90262 0.76887 0.74747 0.0
C2820 C 0.86982 0.75866 0.74454 0.0
C2821 C 0.87285 0.72867 0.71053 0.0
C2822 C 0.85731 0.76377 0.73239 0.0
C2823 C 0.84147 0.76744 0.739 0.0
C2824 C 0.83797 0.76633 0.75794 0.0
C2825 C 0.85023 0.7609 0.77007 0.0
C2826 C 0.86619 0.75732 0.76348 0.0
H2827 H 0.87711 0.71608 0.70226 0.0
H2828 H 0.8637 0.72345 0.72089 0.0
H2829 H 0.86553 0.73504 0.70029 0.0
H2830 H 0.85997 0.76537 0.71789 0.0
H2831 H 0.83196 0.77123 0.72934 0.0
H2832 H 0.13202 0.0234 0.81497 0.0
H2833 H 0.11759 0.02719 0.84486 0.0
H2834 H 0.16362 0.018 0.87571 0.0
H2835 H 0.1781 0.0142 0.84572 0.0
H2836 H 0.13453 0.99904 0.88965 0.0
H2837 H 0.12278 0.07212 0.88817 0.0
H2838 H 0.1131 0.055 0.867 0.0
H2839 H 0.13681 0.06134 0.87217 0.0
C2840 C 0.13927 0.02231 0.82807 0.0
C2841 C 0.15656 0.01858 0.82739 0.0
C2842 C 0.1309 0.02464 0.8455 0.0
C2843 C 0.13928 0.02331 0.86336 0.0
C2844 C 0.15649 0.01931 0.86263 0.0
H2845 H 0.10339 0.06366 0.97915 0.0
H2846 H 0.11805 0.06001 0.94935 0.0
C2847 C 0.16493 0.01717 0.84521 0.0
C2848 C 0.13014 0.02572 0.88242 0.0
H2849 H 0.10866 0.05581 0.91147 0.0
C2850 C 0.12891 0.01154 0.89424 0.0
C2851 C 0.12272 0.042 0.88935 0.0
C2852 C 0.12403 0.05859 0.87866 0.0
C2853 C 0.12052 0.01289 0.91181 0.0
C2854 C 0.11267 0.02891 0.91846 0.0
C2855 C 0.11424 0.0433 0.90686 0.0
C2856 C 0.10319 0.03114 0.93731 0.0
C2857 C 0.12062 0.99714 0.92339 0.0
C2858 C 0.08938 0.01648 0.94138 0.0
C2859 C 0.08078 0.01864 0.95867 0.0
C2860 C 0.08543 0.03558 0.97301 0.0
C2861 C 0.09918 0.05028 0.96891 0.0
C2862 C 0.10768 0.04819 0.95154 0.0
H2863 H 0.13133 0.98928 0.91981 0.0
H2864 H 0.12237 1.0031 0.93899 0.0
H2865 H 0.1078 0.98651 0.92015 0.0
H2866 H 0.08497 1.00324 0.93101 0.0
H2867 H 0.07047 1.00678 0.96084 0.0
H2868 H 0.79609 0.38583 0.56917 0.0
H2869 H 0.79668 0.3819 0.60248 0.0
H2870 H 0.8217 0.44219 0.62045 0.0
H2871 H 0.82114 0.44627 0.58679 0.0
H2872 H 0.8408 0.41696 0.63243 0.0
H2873 H 0.77178 0.39676 0.64991 0.0
H2874 H 0.77489 0.3834 0.62713 0.0
H2875 H 0.77773 0.40931 0.63041 0.0
C2876 C 0.80135 0.39839 0.58021 0.0
C2877 C 0.80876 0.41631 0.57539 0.0
C2878 C 0.80147 0.39617 0.59929 0.0
C2879 C 0.80901 0.4118 0.61398 0.0
C2880 C 0.81561 0.43001 0.60932 0.0
H2881 H 0.85217 0.38196 0.71944 0.0
H2882 H 0.84098 0.40301 0.70011 0.0
C2883 C 0.81531 0.43232 0.59012 0.0
C2884 C 0.81268 0.40794 0.63345 0.0
H2885 H 0.79337 0.38299 0.66638 0.0
C2886 C 0.83045 0.4101 0.64027 0.0
C2887 C 0.79913 0.39894 0.64355 0.0
C2888 C 0.77981 0.39715 0.63745 0.0
C2889 C 0.8351 0.40183 0.65581 0.0
C2890 C 0.82154 0.39156 0.66508 0.0
C2891 C 0.80374 0.39077 0.65921 0.0
C2892 C 0.82561 0.37941 0.67892 0.0
C2893 C 0.85448 0.40275 0.66107 0.0
C2894 C 0.81979 0.35923 0.67406 0.0
C2895 C 0.82597 0.34723 0.68517 0.0
C2896 C 0.83816 0.35523 0.70127 0.0
C2897 C 0.84303 0.37546 0.70687 0.0
C2898 C 0.83667 0.38747 0.69586 0.0
H2899 H 0.86301 0.40824 0.65027 0.0
H2900 H 0.8588 0.41263 0.67502 0.0
H2901 H 0.85671 0.38823 0.66253 0.0
H2902 H 0.81123 0.35271 0.66106 0.0
H2903 H 0.82204 0.3317 0.68052 0.0
H2904 H 0.42198 0.05683 0.36576 0.0
H2905 H 0.44086 0.06067 0.39567 0.0
H2906 H 0.48492 0.09146 0.37067 0.0
H2907 H 0.46636 0.08705 0.34073 0.0
H2908 H 0.49338 0.06215 0.38416 0.0
H2909 H 0.4618 0.10384 0.43979 0.0
H2910 H 0.44653 0.08299 0.4265 0.0
H2911 H 0.45614 0.10223 0.4145 0.0
C2912 C 0.43556 0.06483 0.36689 0.0
C2913 C 0.44278 0.07155 0.351 0.0
C2914 C 0.44633 0.06711 0.38398 0.0
C2915 C 0.46429 0.0765 0.38545 0.0
C2916 C 0.47113 0.08417 0.36987 0.0
H2917 H 0.55011 0.07897 0.47383 0.0
H2918 H 0.53383 0.08756 0.44704 0.0
C2919 C 0.46051 0.08164 0.35279 0.0
C2920 C 0.47652 0.07625 0.40217 0.0
H2921 H 0.48246 0.08623 0.45103 0.0
C2922 C 0.49117 0.06775 0.39877 0.0
C2923 C 0.47364 0.08358 0.4212 0.0
C2924 C 0.45877 0.09385 0.42572 0.0
C2925 C 0.50256 0.06561 0.4139 0.0
C2926 C 0.49924 0.07221 0.43291 0.0
C2927 C 0.48494 0.08124 0.43637 0.0
C2928 C 0.50922 0.06785 0.44932 0.0
C2929 C 0.51755 0.05547 0.40954 0.0
C2930 C 0.5007 0.05403 0.45936 0.0
C2931 C 0.50991 0.04897 0.4744 0.0
C2932 C 0.52787 0.05773 0.47984 0.0
C2933 C 0.53638 0.07177 0.46986 0.0
C2934 C 0.5271 0.07676 0.45464 0.0
H2935 H 0.51715 0.04936 0.39405 0.0
H2936 H 0.53039 0.06588 0.41395 0.0
H2937 H 0.51708 0.04358 0.4178 0.0
H2938 H 0.48693 0.04695 0.45538 0.0
H2939 H 0.50285 0.03813 0.48173 0.0
H2940 H 0.80373 0.6919 0.0702 0.0
H2941 H 0.80351 0.70235 0.10491 0.0
H2942 H 0.78759 0.75435 0.09518 0.0
H2943 H 0.78762 0.74413 0.06079 0.0
H2944 H 0.82234 0.7358 0.12968 0.0
H2945 H 0.75015 0.73258 0.12867 0.0
H2946 H 0.76009 0.72141 0.10859 0.0
H2947 H 0.76082 0.74699 0.11256 0.0
C2948 C 0.80021 0.70557 0.07544 0.0
C2949 C 0.79557 0.71705 0.06254 0.0
C2950 C 0.80007 0.71152 0.09531 0.0
C2951 C 0.79515 0.72896 0.10268 0.0
C2952 C 0.79098 0.74062 0.08988 0.0
H2953 H 0.81723 0.79384 0.21967 0.0
H2954 H 0.81406 0.78391 0.18466 0.0
C2955 C 0.79114 0.73475 0.07013 0.0
C2956 C 0.79467 0.73529 0.12371 0.0
H2957 H 0.76766 0.74869 0.15771 0.0
C2958 C 0.81036 0.73851 0.13581 0.0
C2959 C 0.779 0.73868 0.1318 0.0
C2960 C 0.76151 0.73457 0.11978 0.0
C2961 C 0.81091 0.74544 0.15562 0.0
C2962 C 0.7954 0.74954 0.16358 0.0
C2963 C 0.7796 0.74585 0.15158 0.0
C2964 C 0.7953 0.75705 0.18444 0.0
C2965 C 0.82806 0.74805 0.16791 0.0
C2966 C 0.7851 0.7458 0.1959 0.0
C2967 C 0.78674 0.75162 0.21586 0.0
C2968 C 0.7982 0.76904 0.22467 0.0
C2969 C 0.8078 0.78071 0.21315 0.0
C2970 C 0.80622 0.77487 0.1932 0.0
H2971 H 0.83733 0.73993 0.16059 0.0
H2972 H 0.83463 0.76361 0.17108 0.0
H2973 H 0.82561 0.74319 0.18173 0.0
H2974 H 0.77658 0.73202 0.18949 0.0
H2975 H 0.77962 0.74212 0.22451 0.0
H2976 H 0.11932 1.00629 0.72583 0.0
H2977 H 0.10684 0.00945 0.69459 0.0
H2978 H 0.1594 0.02467 0.67717 0.0
H2979 H 0.17205 0.02137 0.70884 0.0
H2980 H 0.10637 0.03811 0.67701 0.0
H2981 H 0.13838 0.98996 0.6283 0.0
H2982 H 0.13948 0.99028 0.65376 0.0
H2983 H 0.154 1.0086 0.64421 0.0
C2984 C 0.12843 0.00981 0.71529 0.0
C2985 C 0.14697 0.013 0.7204 0.0
C2986 C 0.12111 0.01187 0.69714 0.0
C2987 C 0.13175 0.01725 0.6826 0.0
C2988 C 0.15038 0.02005 0.68738 0.0
H2989 H 0.10837 0.03886 0.56393 0.0
H2990 H 0.12121 0.03533 0.59494 0.0
C2991 C 0.15779 0.018 0.70577 0.0
C2992 C 0.12316 0.02052 0.66326 0.0
H2993 H 0.12209 0.00919 0.61383 0.0
C2994 C 0.10991 0.03163 0.66327 0.0
C2995 C 0.12724 0.0124 0.64471 0.0
C2996 C 0.14041 0.99949 0.64262 0.0
C2997 C 0.10132 0.0351 0.64612 0.0
C2998 C 0.10532 0.02688 0.62753 0.0
C2999 C 0.11858 0.01575 0.62754 0.0
C3000 C 0.09661 0.03 0.60814 0.0
C3001 C 0.08842 0.04831 0.64834 0.0
C3002 C 0.07806 0.02852 0.604 0.0
C3003 C 0.07051 0.03089 0.58582 0.0
C3004 C 0.08111 0.03472 0.57071 0.0
C3005 C 0.09952 0.03616 0.57491 0.0
C3006 C 0.10701 0.03396 0.59295 0.0
H3007 H 0.09098 0.05821 0.66247 0.0
H3008 H 0.0891 0.05719 0.63695 0.0
H3009 H 0.07477 0.03947 0.64746 0.0
H3010 H 0.06913 0.02494 0.61464 0.0
H3011 H 0.05629 0.02911 0.58345 0.0
H3012 H 0.81478 0.38603 0.48717 0.0
H3013 H 0.81736 0.36587 0.45683 0.0
H3014 H 0.80221 0.40824 0.42651 0.0
H3015 H 0.80068 0.42916 0.45714 0.0
H3016 H 0.79377 0.34856 0.42961 0.0
H3017 H 0.84399 0.39883 0.39942 0.0
H3018 H 0.83881 0.40393 0.42391 0.0
H3019 H 0.82503 0.40882 0.40485 0.0
C3020 C 0.8122 0.39122 0.47409 0.0
C3021 C 0.80766 0.40926 0.47453 0.0
C3022 C 0.81365 0.37963 0.45671 0.0
C3023 C 0.81026 0.38563 0.43934 0.0
C3024 C 0.80543 0.40354 0.43971 0.0
H3025 H 0.78076 0.3077 0.33105 0.0
H3026 H 0.78186 0.32695 0.36289 0.0
C3027 C 0.80439 0.4154 0.45719 0.0
C3028 C 0.811 0.37259 0.42098 0.0
H3029 H 0.82829 0.37055 0.37776 0.0
C3030 C 0.80147 0.35335 0.41835 0.0
C3031 C 0.8213 0.37868 0.40641 0.0
C3032 C 0.83301 0.39863 0.40886 0.0
C3033 C 0.8017 0.34014 0.4015 0.0
C3034 C 0.81112 0.34655 0.38647 0.0
C3035 C 0.82093 0.36568 0.38921 0.0
C3036 C 0.81052 0.33387 0.36759 0.0
C3037 C 0.7921 0.31939 0.4002 0.0
C3038 C 0.82624 0.33172 0.35932 0.0
C3039 C 0.82557 0.32087 0.34092 0.0
C3040 C 0.80919 0.31175 0.3307 0.0
C3041 C 0.79351 0.31376 0.33901 0.0
C3042 C 0.79416 0.32487 0.35721 0.0
H3043 H 0.79124 0.31545 0.41464 0.0
H3044 H 0.77837 0.3175 0.39366 0.0
H3045 H 0.79877 0.30921 0.39133 0.0
H3046 H 0.83902 0.33869 0.36697 0.0
H3047 H 0.83783 0.3198 0.33458 0.0
H3048 H 0.46161 0.01787 0.25576 0.0
H3049 H 0.47229 0.01515 0.22406 0.0
H3050 H 0.44403 0.05798 0.21066 0.0
H3051 H 0.43307 0.06071 0.2427 0.0
H3052 H 0.45487 1.00865 0.18424 0.0
H3053 H 0.49902 0.0812 0.21075 0.0
H3054 H 0.48799 0.06706 0.22704 0.0
H3055 H 0.4755 0.07838 0.21211 0.0
C3056 C 0.45737 0.02644 0.24593 0.0
C3057 C 0.44677 0.03972 0.25168 0.0
C3058 C 0.46338 0.02478 0.22781 0.0
C3059 C 0.45907 0.0365 0.21519 0.0
C3060 C 0.44751 0.04888 0.22034 0.0
H3061 H 0.5276 0.05539 0.12366 0.0
H3062 H 0.50424 0.05794 0.145 0.0
C3063 C 0.44125 0.05039 0.23853 0.0
C3064 C 0.46871 0.03722 0.19796 0.0
H3065 H 0.50586 0.0627 0.18301 0.0
C3066 C 0.46578 0.02062 0.18365 0.0
C3067 C 0.48293 0.05287 0.19738 0.0
C3068 C 0.48671 0.07092 0.21262 0.0
C3069 C 0.47722 0.01892 0.16915 0.0
C3070 C 0.49218 0.03401 0.16937 0.0
C3071 C 0.49448 0.05107 0.18302 0.0
C3072 C 0.5061 0.03212 0.15618 0.0
C3073 C 0.47332 1.00086 0.15394 0.0
C3074 C 0.51522 0.01703 0.15579 0.0
C3075 C 0.5285 0.01541 0.14346 0.0
C3076 C 0.53294 0.02897 0.13146 0.0
C3077 C 0.52422 0.04448 0.13245 0.0
C3078 C 0.51091 0.046 0.14466 0.0
H3079 H 0.45896 0.99403 0.15205 0.0
H3080 H 0.47759 1.00402 0.13995 0.0
H3081 H 0.48057 0.99022 0.15836 0.0
H3082 H 0.51208 1.0065 0.16503 0.0
H3083 H 0.53496 1.00331 0.14298 0.0
H3084 H 0.80412 0.67078 0.94235 0.0
H3085 H 0.80546 0.68252 0.9119 0.0
H3086 H 0.79892 0.73822 0.94047 0.0
H3087 H 0.79747 0.72656 0.97093 0.0
H3088 H 0.77768 0.7246 0.90559 0.0
H3089 H 0.84759 0.7201 0.8966 0.0
H3090 H 0.83348 0.69806 0.90016 0.0
H3091 H 0.83801 0.71891 0.91906 0.0
C3092 C 0.80292 0.68552 0.94216 0.0
C3093 C 0.80076 0.69774 0.95914 0.0
C3094 C 0.80381 0.69226 0.92473 0.0
C3095 C 0.80259 0.71138 0.92388 0.0
C3096 C 0.80001 0.72346 0.94073 0.0
H3097 H 0.82994 0.7791 0.83489 0.0
H3098 H 0.82898 0.76483 0.86377 0.0
C3099 C 0.79919 0.71676 0.95817 0.0
C3100 C 0.80389 0.71881 0.90546 0.0
H3101 H 0.83165 0.728 0.87069 0.0
C3102 C 0.78947 0.7253 0.89795 0.0
C3103 C 0.81935 0.71999 0.89556 0.0
C3104 C 0.83558 0.71407 0.90328 0.0
C3105 C 0.79001 0.73271 0.8808 0.0
C3106 C 0.80533 0.73349 0.87068 0.0
C3107 C 0.81984 0.72722 0.8783 0.0
C3108 C 0.80669 0.74135 0.85251 0.0
C3109 C 0.7743 0.74005 0.87388 0.0
C3110 C 0.79498 0.73256 0.83618 0.0
C3111 C 0.79546 0.74081 0.81963 0.0
C3112 C 0.80754 0.75822 0.81903 0.0
C3113 C 0.81998 0.76624 0.835 0.0
C3114 C 0.81955 0.75794 0.85153 0.0
H3115 H 0.76548 0.74266 0.88539 0.0
H3116 H 0.77868 0.7537 0.86843 0.0
H3117 H 0.76644 0.72912 0.86195 0.0
H3118 H 0.78525 0.71943 0.83633 0.0
H3119 H 0.78596 0.73378 0.80751 0.0
H3120 H 0.85723 0.14415 0.01617 0.0
H3121 H 0.87981 0.12553 0.02053 0.0
H3122 H 0.84011 0.07948 0.03405 0.0
H3123 H 0.81728 0.09804 0.02955 0.0
H3124 H 0.89035 0.11008 0.05237 0.0
H3125 H 0.86314 0.05298 0.98872 0.0
H3126 H 0.85651 0.07592 0.99295 0.0
H3127 H 0.84787 0.05748 0.00622 0.0
C3128 C 0.85327 0.13012 0.02019 0.0
C3129 C 0.83543 0.12251 0.02239 0.0
C3130 C 0.86622 0.11951 0.02271 0.0
C3131 C 0.8616 0.10103 0.02735 0.0
C3132 C 0.8439 0.09361 0.03017 0.0
H3133 H 0.93931 0.0352 0.05821 0.0
H3134 H 0.91518 0.05263 0.05869 0.0
C3135 C 0.8309 0.10426 0.0277 0.0
C3136 C 0.87534 0.08948 0.02866 0.0
H3137 H 0.88835 0.04919 0.00661 0.0
C3138 C 0.88988 0.09669 0.04247 0.0
C3139 C 0.87478 0.07217 0.01553 0.0
C3140 C 0.85983 0.06419 0.99989 0.0
C3141 C 0.90395 0.0871 0.04345 0.0
C3142 C 0.90333 0.06972 0.0304 0.0
C3143 C 0.88873 0.06246 0.01666 0.0
C3144 C 0.91798 0.05921 0.03027 0.0
C3145 C 0.9196 0.09595 0.05805 0.0
C3146 C 0.92735 0.05683 0.01401 0.0
C3147 C 0.94103 0.04673 0.01362 0.0
C3148 C 0.94555 0.03869 0.02946 0.0
C3149 C 0.93609 0.04109 0.04573 0.0
C3150 C 0.92241 0.05121 0.0461 0.0
H3151 H 0.91989 0.11136 0.06396 0.0
H3152 H 0.91878 0.0879 0.07011 0.0
H3153 H 0.93224 0.09499 0.05166 0.0
H3154 H 0.92407 0.0628 1.0016 0.0
H3155 H 0.94784 0.0449 1.00076 0.0
H3156 H 0.38085 0.39429 0.03137 0.0
H3157 H 0.40972 0.4159 0.03273 0.0
H3158 H 0.38541 0.46526 0.04202 0.0
H3159 H 0.35623 0.44365 0.04058 0.0
H3160 H 0.40922 0.46632 0.01338 0.0
H3161 H 0.44009 0.4508 0.07958 0.0
H3162 H 0.43038 0.42942 0.06234 0.0
H3163 H 0.41645 0.4446 0.07324 0.0
C3164 C 0.38155 0.40974 0.03385 0.0
C3165 C 0.3661 0.41717 0.03592 0.0
C3166 C 0.39816 0.4221 0.03474 0.0
C3167 C 0.39982 0.44223 0.03777 0.0
C3168 C 0.38448 0.44977 0.03982 0.0
H3169 H 0.50355 0.52341 0.05711 0.0
H3170 H 0.47339 0.50654 0.06063 0.0
C3171 C 0.3678 0.43739 0.03903 0.0
C3172 C 0.4175 0.4552 0.03789 0.0
H3173 H 0.45979 0.46676 0.05965 0.0
C3174 C 0.42022 0.46657 0.02362 0.0
C3175 C 0.43185 0.45573 0.05138 0.0
C3176 C 0.42956 0.44464 0.06762 0.0
C3177 C 0.43703 0.47782 0.02202 0.0
C3178 C 0.45158 0.47754 0.0349 0.0
C3179 C 0.4487 0.46681 0.04965 0.0
C3180 C 0.46995 0.4878 0.03287 0.0
C3181 C 0.43908 0.48988 0.00652 0.0
C3182 C 0.47822 0.48263 0.0163 0.0
C3183 C 0.49543 0.49226 0.01423 0.0
C3184 C 0.50481 0.50735 0.02867 0.0
C3185 C 0.49665 0.51216 0.04551 0.0
C3186 C 0.47941 0.50245 0.0476 0.0
H3187 H 0.42619 0.49274 1.00144 0.0
H3188 H 0.44851 0.50394 0.01166 0.0
H3189 H 0.44435 0.48199 0.99411 0.0
H3190 H 0.47137 0.47105 1.00494 0.0
H3191 H 0.50129 0.48787 1.0012 0.0
H3192 H 0.43134 0.64273 0.7862 0.0
H3193 H 0.41582 0.66943 0.78624 0.0
H3194 H 0.36703 0.62841 0.76595 0.0
H3195 H 0.38267 0.60178 0.76548 0.0
H3196 H 0.36452 0.65655 0.74946 0.0
H3197 H 0.38867 0.69567 0.82254 0.0
H3198 H 0.40668 0.69361 0.8081 0.0
H3199 H 0.39294 0.67215 0.8137 0.0
C3200 C 0.41728 0.6392 0.78176 0.0
C3201 C 0.40864 0.61943 0.77589 0.0
C3202 C 0.40812 0.65481 0.782 0.0
C3203 C 0.3896 0.65182 0.77657 0.0
C3204 C 0.38108 0.63202 0.77042 0.0
H3205 H 0.32655 0.74811 0.80136 0.0
H3206 H 0.34079 0.72032 0.80314 0.0
C3207 C 0.39023 0.61643 0.77018 0.0
C3208 C 0.3793 0.66882 0.77676 0.0
H3209 H 0.37377 0.71248 0.80297 0.0
C3210 C 0.36674 0.66865 0.76133 0.0
C3211 C 0.38117 0.68513 0.7921 0.0
C3212 C 0.39293 0.68662 0.81014 0.0
C3213 C 0.3569 0.68363 0.76055 0.0
C3214 C 0.35938 0.70035 0.77547 0.0
C3215 C 0.37155 0.70031 0.79116 0.0
C3216 C 0.34988 0.71781 0.77469 0.0
C3217 C 0.34337 0.68087 0.74368 0.0
C3218 C 0.34975 0.72676 0.75839 0.0
C3219 C 0.34149 0.74271 0.75737 0.0
C3220 C 0.33261 0.75107 0.77251 0.0
C3221 C 0.33272 0.74233 0.78905 0.0
C3222 C 0.34116 0.72624 0.7901 0.0
H3223 H 0.33845 0.6653 0.73744 0.0
H3224 H 0.33185 0.68719 0.74776 0.0
H3225 H 0.34962 0.68804 0.73234 0.0
H3226 H 0.35652 0.72172 0.74627 0.0
H3227 H 0.34228 0.74878 0.74442 0.0
H3228 H 0.25043 0.62105 0.52881 0.0
H3229 H 0.22029 0.60442 0.53279 0.0
H3230 H 0.19909 0.63575 0.49364 0.0
H3231 H 0.22899 0.65233 0.48948 0.0
H3232 H 0.19214 0.62249 0.54614 0.0
H3233 H 0.17478 0.57853 0.47309 0.0
H3234 H 0.19738 0.58928 0.48264 0.0
H3235 H 0.18364 0.60371 0.47337 0.0
C3236 C 0.23937 0.62425 0.52088 0.0
C3237 C 0.24216 0.63804 0.50881 0.0
C3238 C 0.22217 0.61478 0.52323 0.0
C3239 C 0.20751 0.61874 0.51337 0.0
C3240 C 0.21025 0.63229 0.50116 0.0
H3241 H 0.09757 0.60777 0.53057 0.0
H3242 H 0.12989 0.61796 0.53197 0.0
C3243 C 0.22738 0.64182 0.49888 0.0
C3244 C 0.18924 0.60935 0.51627 0.0
H3245 H 0.15076 0.58192 0.49211 0.0
C3246 C 0.18311 0.61341 0.53441 0.0
C3247 C 0.17759 0.59735 0.50101 0.0
C3248 C 0.18369 0.59178 0.48146 0.0
C3249 C 0.16539 0.60642 0.53748 0.0
C3250 C 0.1535 0.59528 0.52193 0.0
C3251 C 0.15984 0.59058 0.504 0.0
C3252 C 0.13426 0.58897 0.52357 0.0
C3253 C 0.15955 0.6111 0.55728 0.0
C3254 C 0.12598 0.56935 0.51831 0.0
C3255 C 0.10756 0.56359 0.51727 0.0
C3256 C 0.09708 0.57731 0.52169 0.0
C3257 C 0.10539 0.59689 0.5274 0.0
C3258 C 0.12384 0.60269 0.52834 0.0
H3259 H 0.17088 0.61427 0.56846 0.0
H3260 H 0.15375 0.62413 0.55833 0.0
H3261 H 0.14934 0.599 0.5603 0.0
H3262 H 0.13374 0.55854 0.51442 0.0
H3263 H 0.10158 0.54847 0.51236 0.0
H3264 H 0.73273 0.01006 0.74366 0.0
H3265 H 0.74814 0.98603 0.75304 0.0
H3266 H 0.69863 0.95226 0.765 0.0
H3267 H 0.68305 0.97627 0.75564 0.0
H3268 H 0.72644 0.96202 0.79571 0.0
H3269 H 0.74845 0.92983 0.727 0.0
H3270 H 0.75314 0.95582 0.73197 0.0
H3271 H 0.73054 0.94258 0.72808 0.0
C3272 C 0.72506 0.99734 0.74794 0.0
C3273 C 0.70669 0.99506 0.74896 0.0
C3274 C 0.73388 0.9836 0.75322 0.0
C3275 C 0.72448 0.96736 0.75958 0.0
C3276 C 0.70607 0.9647 0.76004 0.0
H3277 H 0.77177 0.87468 0.78916 0.0
H3278 H 0.7516 0.893 0.777 0.0
C3279 C 0.6972 0.97838 0.75464 0.0
C3280 C 0.73415 0.95412 0.76731 0.0
H3281 H 0.76211 0.92372 0.75559 0.0
C3282 C 0.7341 0.95348 0.78692 0.0
C3283 C 0.74402 0.94297 0.75576 0.0
C3284 C 0.74397 0.94264 0.73449 0.0
C3285 C 0.74417 0.9424 0.79544 0.0
C3286 C 0.75459 0.93185 0.78403 0.0
C3287 C 0.75419 0.93199 0.7643 0.0
C3288 C 0.76625 0.9208 0.79233 0.0
C3289 C 0.74365 0.94207 0.81656 0.0
C3290 C 0.7811 0.93042 0.80504 0.0
C3291 C 0.79276 0.92003 0.81189 0.0
C3292 C 0.78977 0.89985 0.80605 0.0
C3293 C 0.77461 0.89025 0.79367 0.0
C3294 C 0.76302 0.90065 0.78678 0.0
H3295 H 0.7321 0.94732 0.82232 0.0
H3296 H 0.74311 0.92722 0.81939 0.0
H3297 H 0.75589 0.95161 0.82446 0.0
H3298 H 0.78391 0.94602 0.80926 0.0
H3299 H 0.80441 0.92785 0.82122 0.0
H3300 H 0.78296 0.95373 0.55892 0.0
H3301 H 0.7593 0.97183 0.55876 0.0
H3302 H 0.7249 0.92262 0.52248 0.0
H3303 H 0.74822 0.90429 0.52322 0.0
H3304 H 0.74464 0.98331 0.53051 0.0
H3305 H 0.69091 0.93648 0.55943 0.0
H3306 H 0.71335 0.93296 0.56052 0.0
H3307 H 0.69856 0.92325 0.53906 0.0
C3308 C 0.77024 0.94664 0.55121 0.0
C3309 C 0.76748 0.9275 0.54118 0.0
C3310 C 0.7567 0.95704 0.55107 0.0
C3311 C 0.74009 0.94859 0.54085 0.0
C3312 C 0.73731 0.92938 0.53098 0.0
H3313 H 0.67084 0.01268 0.49254 0.0
H3314 H 0.6922 0.99333 0.49935 0.0
C3315 C 0.75076 0.91892 0.5313 0.0
C3316 C 0.72625 0.9603 0.53927 0.0
H3317 H 0.68212 0.95975 0.54225 0.0
C3318 C 0.73102 0.97819 0.5333 0.0
C3319 C 0.70845 0.95394 0.54318 0.0
C3320 C 0.70256 0.93571 0.55111 0.0
C3321 C 0.71854 0.9895 0.53054 0.0
C3322 C 0.70052 0.98254 0.5332 0.0
C3323 C 0.69582 0.965 0.53985 0.0
C3324 C 0.68642 0.99311 0.52876 0.0
C3325 C 0.72493 0.00897 0.52502 0.0
C3326 C 0.67519 0.99858 0.54262 0.0
C3327 C 0.66265 0.00943 0.53861 0.0
C3328 C 0.66116 0.0151 0.52067 0.0
C3329 C 0.6719 0.0089 0.50662 0.0
C3330 C 0.68422 0.99791 0.51055 0.0
H3331 H 0.7392 0.01483 0.52978 0.0
H3332 H 0.72333 1.00737 0.50919 0.0
H3333 H 0.71729 0.01963 0.5313 0.0
H3334 H 0.67645 0.99492 0.55673 0.0
H3335 H 0.65458 0.01397 0.54974 0.0
H3336 H 0.39004 0.51671 0.76453 0.0
H3337 H 0.37082 0.4844 0.76334 0.0
H3338 H 0.41559 0.46387 0.78376 0.0
H3339 H 0.43455 0.49554 0.78507 0.0
H3340 H 0.37135 0.44655 0.74336 0.0
H3341 H 0.38066 0.44686 0.82096 0.0
H3342 H 0.38693 0.46852 0.81103 0.0
H3343 H 0.40128 0.45161 0.81049 0.0
C3344 C 0.39581 0.50538 0.76888 0.0
C3345 C 0.41411 0.50927 0.77499 0.0
C3346 C 0.38473 0.48671 0.76814 0.0
C3347 C 0.39143 0.47129 0.77377 0.0
C3348 C 0.40967 0.47522 0.77971 0.0
H3349 H 0.35654 0.34911 0.78553 0.0
H3350 H 0.37185 0.38234 0.78532 0.0
C3351 C 0.42066 0.49363 0.78032 0.0
C3352 C 0.37982 0.45111 0.77338 0.0
H3353 H 0.36834 0.41632 0.80117 0.0
C3354 C 0.37057 0.44009 0.7561 0.0
C3355 C 0.3786 0.44212 0.7898 0.0
C3356 C 0.38724 0.45293 0.80916 0.0
C3357 C 0.36095 0.42062 0.75466 0.0
C3358 C 0.3599 0.41153 0.77108 0.0
C3359 C 0.36893 0.42274 0.7884 0.0
C3360 C 0.35006 0.39051 0.77066 0.0
C3361 C 0.35267 0.40973 0.7352 0.0
C3362 C 0.33233 0.38317 0.76263 0.0
C3363 C 0.32344 0.36378 0.76261 0.0
C3364 C 0.33172 0.35085 0.7709 0.0
C3365 C 0.34942 0.35825 0.77898 0.0
C3366 C 0.35831 0.37755 0.77892 0.0
H3367 H 0.35911 0.41615 0.7235 0.0
H3368 H 0.35358 0.39429 0.73322 0.0
H3369 H 0.33849 0.41045 0.73376 0.0
H3370 H 0.32513 0.39252 0.75654 0.0
H3371 H 0.30999 0.35896 0.75605 0.0
H3372 H 0.17403 0.60919 0.27587 0.0
H3373 H 0.18953 0.64227 0.2752 0.0
H3374 H 0.23483 0.62115 0.25511 0.0
H3375 H 0.21934 0.58806 0.25527 0.0
H3376 H 0.21982 0.66221 0.29558 0.0
H3377 H 0.22859 0.65679 0.2182 0.0
H3378 H 0.21376 0.63844 0.2275 0.0
H3379 H 0.23716 0.63902 0.2286 0.0
C3380 C 0.18722 0.61154 0.27109 0.0
C3381 C 0.19539 0.59592 0.26553 0.0
C3382 C 0.19606 0.63047 0.27073 0.0
C3383 C 0.21323 0.63416 0.2648 0.0
C3384 C 0.22141 0.61862 0.25924 0.0
H3385 H 0.28843 0.74415 0.29627 0.0
H3386 H 0.27265 0.71029 0.29218 0.0
C3387 C 0.21255 0.59969 0.25947 0.0
C3388 C 0.22298 0.65435 0.26558 0.0
H3389 H 0.24559 0.68493 0.239 0.0
C3390 C 0.22534 0.66721 0.28317 0.0
C3391 C 0.23005 0.66091 0.24933 0.0
C3392 C 0.22712 0.64813 0.2298 0.0
C3393 C 0.2348 0.68637 0.28506 0.0
C3394 C 0.24249 0.6927 0.26901 0.0
C3395 C 0.23988 0.67996 0.25133 0.0
C3396 C 0.25301 0.71261 0.27027 0.0
C3397 C 0.23622 0.69968 0.30419 0.0
C3398 C 0.24765 0.72489 0.25874 0.0
C3399 C 0.25683 0.74411 0.26087 0.0
C3400 C 0.27172 0.75109 0.27419 0.0
C3401 C 0.27727 0.73878 0.28549 0.0
C3402 C 0.26811 0.71959 0.28337 0.0
H3403 H 0.22557 0.69441 0.31308 0.0
H3404 H 0.24912 0.7003 0.31217 0.0
H3405 H 0.23551 0.71458 0.30238 0.0
H3406 H 0.23603 0.71979 0.24855 0.0
H3407 H 0.25214 0.75362 0.2524 0.0
H3408 H 0.53633 0.71568 0.42268 0.0
H3409 H 0.54101 0.68539 0.43211 0.0
H3410 H 0.52674 0.70455 0.48868 0.0
H3411 H 0.52159 0.73413 0.47934 0.0
H3412 H 0.5626 0.67595 0.45784 0.0
H3413 H 0.49513 0.65263 0.47866 0.0
H3414 H 0.50085 0.67259 0.46622 0.0
H3415 H 0.50556 0.6761 0.49185 0.0
C3416 C 0.53407 0.7134 0.43709 0.0
C3417 C 0.52828 0.72755 0.45004 0.0
C3418 C 0.53678 0.69597 0.44254 0.0
C3419 C 0.53378 0.69205 0.46109 0.0
C3420 C 0.52856 0.70649 0.4741 0.0
H3421 H 0.54384 0.59718 0.5247 0.0
H3422 H 0.54119 0.62835 0.5157 0.0
C3423 C 0.52573 0.7237 0.46867 0.0
C3424 C 0.53638 0.6733 0.46713 0.0
H3425 H 0.51676 0.63619 0.48906 0.0
C3426 C 0.55246 0.66725 0.46452 0.0
C3427 C 0.52332 0.66157 0.47597 0.0
C3428 C 0.50519 0.66593 0.47816 0.0
C3429 C 0.55593 0.65045 0.47076 0.0
C3430 C 0.54297 0.63892 0.47984 0.0
C3431 C 0.5269 0.64492 0.48241 0.0
C3432 C 0.54546 0.62017 0.48586 0.0
C3433 C 0.57373 0.64548 0.4679 0.0
C3434 C 0.54866 0.60483 0.47231 0.0
C3435 C 0.55014 0.58706 0.47747 0.0
C3436 C 0.5487 0.58389 0.49642 0.0
C3437 C 0.54546 0.59916 0.51009 0.0
C3438 C 0.54382 0.617 0.50486 0.0
H3439 H 0.58387 0.65833 0.46626 0.0
H3440 H 0.57843 0.63942 0.4801 0.0
H3441 H 0.57256 0.63446 0.45466 0.0
H3442 H 0.54955 0.60637 0.45749 0.0
H3443 H 0.5523 0.57559 0.46644 0.0
H3444 H 0.62593 0.31815 0.67002 0.0
H3445 H 0.65174 0.31756 0.69153 0.0
H3446 H 0.68649 0.33587 0.64978 0.0
H3447 H 0.66094 0.33657 0.62836 0.0
H3448 H 0.67749 0.2956 0.68586 0.0
H3449 H 0.7098 0.37331 0.69822 0.0
H3450 H 0.68715 0.36434 0.68803 0.0
H3451 H 0.70512 0.36256 0.6733 0.0
C3452 C 0.63906 0.32233 0.66549 0.0
C3453 C 0.64115 0.32753 0.64734 0.0
C3454 C 0.65388 0.32189 0.67782 0.0
C3455 C 0.67128 0.3269 0.67255 0.0
C3456 C 0.67338 0.33229 0.65454 0.0
H3457 H 0.7671 0.29474 0.71672 0.0
H3458 H 0.74119 0.29871 0.69784 0.0
C3459 C 0.65862 0.3326 0.64218 0.0
C3460 C 0.68716 0.32577 0.68539 0.0
H3461 H 0.72717 0.35208 0.70799 0.0
C3462 C 0.68828 0.30801 0.69075 0.0
C3463 C 0.70134 0.34192 0.6921 0.0
C3464 C 0.70079 0.36166 0.6878 0.0
C3465 C 0.70317 0.30585 0.70201 0.0
C3466 C 0.71764 0.32182 0.70813 0.0
C3467 C 0.71631 0.33972 0.70324 0.0
C3468 C 0.73417 0.32014 0.71954 0.0
C3469 C 0.70317 0.28643 0.70747 0.0
C3470 C 0.73965 0.33144 0.73789 0.0
C3471 C 0.75463 0.32918 0.74885 0.0
C3472 C 0.76466 0.31559 0.74183 0.0
C3473 C 0.75966 0.30509 0.72299 0.0
C3474 C 0.74466 0.30725 0.71211 0.0
H3475 H 0.68956 0.27737 0.7062 0.0
H3476 H 0.71112 0.27859 0.69773 0.0
H3477 H 0.70917 0.28814 0.72238 0.0
H3478 H 0.73214 0.34182 0.74394 0.0
H3479 H 0.75837 0.33822 0.76278 0.0
H3480 H 0.02995 0.33854 0.91894 0.0
H3481 H 0.03215 0.37235 0.93357 0.0
H3482 H 0.02807 0.35635 0.98916 0.0
H3483 H 0.02563 0.32221 0.97447 0.0
H3484 H 0.00819 0.38413 0.98384 0.0
H3485 H 0.07618 0.40744 0.96376 0.0
H3486 H 0.06084 0.395 0.94357 0.0
H3487 H 0.06583 0.38229 0.96227 0.0
C3488 C 0.02946 0.34212 0.93429 0.0
C3489 C 0.02775 0.32752 0.94549 0.0
C3490 C 0.03084 0.36158 0.94269 0.0
C3491 C 0.03069 0.36718 0.96261 0.0
C3492 C 0.02838 0.35257 0.97381 0.0
H3493 H 0.04544 0.48551 0.03281 0.0
H3494 H 0.03936 0.45 0.02331 0.0
C3495 C 0.02699 0.333 0.96537 0.0
C3496 C 0.03316 0.38824 0.97154 0.0
H3497 H 0.06098 0.43251 0.97432 0.0
C3498 C 0.01986 0.39466 0.98198 0.0
C3499 C 0.04837 0.40218 0.96924 0.0
C3500 C 0.0637 0.39639 0.95927 0.0
C3501 C 0.02103 0.41451 0.98938 0.0
C3502 C 0.03598 0.42845 0.98651 0.0
C3503 C 0.04945 0.42196 0.97651 0.0
C3504 C 0.03762 0.44989 0.99278 0.0
C3505 C 1.00585 0.42063 0.99931 0.0
C3506 C 0.03854 0.46184 0.97895 0.0
C3507 C 0.04187 0.48203 0.98436 0.0
C3508 C 0.04441 0.49101 1.00378 0.0
C3509 C 0.04311 0.47911 0.01774 0.0
C3510 C 0.03968 0.45876 0.01228 0.0
H3511 H 0.99445 0.40831 0.99888 0.0
H3512 H 0.01031 0.42716 0.01451 0.0
H3513 H 1.00132 0.43177 0.99238 0.0
H3514 H 0.0371 0.45552 0.96385 0.0
H3515 H 0.04301 0.49074 0.97325 0.0
H3516 H 0.05176 0.80296 0.17795 0.0
H3517 H 0.02442 0.79822 0.19395 0.0
H3518 H 0.99516 0.8061 0.14355 0.0
H3519 H 0.02244 0.81056 0.12735 0.0
H3520 H 1.00204 0.82258 0.20312 0.0
H3521 H 0.9652 0.75638 0.15404 0.0
H3522 H 0.98865 0.76549 0.15366 0.0
H3523 H 0.97289 0.77637 0.14231 0.0
C3524 C 0.03949 0.80353 0.17018 0.0
C3525 C 0.03935 0.80702 0.15127 0.0
C3526 C 0.02383 0.80087 0.1794 0.0
C3527 C 1.00756 0.80153 0.16996 0.0
C3528 C 1.00739 0.80509 0.15108 0.0
H3529 H 0.91376 0.81289 0.23376 0.0
H3530 H 0.93809 0.81877 0.21324 0.0
C3531 C 0.02307 0.80773 0.14184 0.0
C3532 C 0.99095 0.79891 0.18007 0.0
H3533 H 0.9493 0.77063 0.17794 0.0
C3534 C 0.9905 0.81125 0.19756 0.0
C3535 C 0.97585 0.78403 0.173 0.0
C3536 C 0.97565 0.76968 0.15482 0.0
C3537 C 0.97554 0.80911 0.20812 0.0
C3538 C 0.96035 0.79439 0.20092 0.0
C3539 C 0.96078 0.78208 0.18341 0.0
C3540 C 0.94446 0.79059 0.21203 0.0
C3541 C 0.9764 0.82224 0.22724 0.0
C3542 C 0.93925 0.77253 0.2175 0.0
C3543 C 0.92526 0.76908 0.22902 0.0
C3544 C 0.91596 0.78358 0.23541 0.0
C3545 C 0.92058 0.80138 0.22915 0.0
C3546 C 0.93467 0.80484 0.21759 0.0
H3547 H 0.99023 0.82963 0.23273 0.0
H3548 H 0.96879 0.83353 0.22567 0.0
H3549 H 0.97047 0.81402 0.23806 0.0
H3550 H 0.94638 0.76118 0.21331 0.0
H3551 H 0.92191 0.75507 0.23323 0.0
H3552 H 0.52931 0.35123 0.17695 0.0
H3553 H 0.53834 0.38078 0.16351 0.0
H3554 H 0.52803 0.34675 0.10644 0.0
H3555 H 0.51914 0.31741 0.11961 0.0
H3556 H 0.56638 0.38759 0.1379 0.0
H3557 H 0.5007 0.39106 0.1052 0.0
H3558 H 0.50329 0.37768 0.12419 0.0
H3559 H 0.50566 0.36745 0.09983 0.0
C3560 C 0.52889 0.35013 0.16155 0.0
C3561 C 0.5235 0.33204 0.14933 0.0
C3562 C 0.53403 0.36697 0.15392 0.0
C3563 C 0.53356 0.36592 0.134 0.0
C3564 C 0.52816 0.34789 0.12184 0.0
H3565 H 0.58458 0.42046 0.05178 0.0
H3566 H 0.57476 0.40276 0.077 0.0
C3567 C 0.5232 0.33112 0.12941 0.0
C3568 C 0.53951 0.38334 0.12557 0.0
H3569 H 0.52615 0.40779 0.09219 0.0
C3570 C 0.55754 0.39234 0.12823 0.0
C3571 C 0.5279 0.38964 0.11316 0.0
C3572 C 0.50827 0.38109 0.11054 0.0
C3573 C 0.56449 0.40654 0.11769 0.0
C3574 C 0.55312 0.41165 0.10408 0.0
C3575 C 0.53488 0.4037 0.1025 0.0
C3576 C 0.56009 0.42347 0.08992 0.0
C3577 C 0.58405 0.41547 0.12071 0.0
C3578 C 0.55489 0.44088 0.08866 0.0
C3579 C 0.56059 0.45115 0.07426 0.0
C3580 C 0.57141 0.44403 0.06075 0.0
C3581 C 0.57658 0.42659 0.06216 0.0
C3582 C 0.57098 0.41643 0.07658 0.0
H3583 H 0.58974 0.41469 0.13517 0.0
H3584 H 0.59101 0.40744 0.10995 0.0
H3585 H 0.58665 0.43084 0.11892 0.0
H3586 H 0.54636 0.44644 0.09876 0.0
H3587 H 0.55653 0.46464 0.07371 0.0
H3588 H 0.05556 0.3081 0.34667 0.0
H3589 H 0.0297 0.31163 0.32712 0.0
H3590 H 0.01347 0.34545 0.37632 0.0
H3591 H 0.03912 0.34215 0.39592 0.0
H3592 H 0.99289 0.30076 0.33328 0.0
H3593 H 0.01446 0.37953 0.33466 0.0
H3594 H 0.02955 0.36477 0.34066 0.0
H3595 H 0.01533 0.37296 0.35793 0.0
C3596 C 0.04649 0.3163 0.35334 0.0
C3597 C 0.04948 0.32488 0.37288 0.0
C3598 C 0.03175 0.31829 0.34214 0.0
C3599 C 0.01988 0.32906 0.35023 0.0
C3600 C 0.02267 0.33739 0.36973 0.0
H3601 H 0.91243 0.33296 0.3222 0.0
H3602 H 0.94078 0.32782 0.33464 0.0
C3603 C 0.03731 0.33536 0.38094 0.0
C3604 C 1.00425 0.33132 0.33855 0.0
H3605 H 0.98394 0.36544 0.32458 0.0
C3606 C 0.991 0.31486 0.33115 0.0
C3607 C 1.00195 0.34971 0.33561 0.0
C3608 C 0.01614 0.36775 0.34246 0.0
C3609 C 0.97511 0.31642 0.32166 0.0
C3610 C 0.9724 0.33493 0.31969 0.0
C3611 C 0.986 0.35129 0.32628 0.0
C3612 C 0.95522 0.33772 0.31174 0.0
C3613 C 0.96124 0.2983 0.31399 0.0
C3614 C 0.95404 0.34539 0.29494 0.0
C3615 C 0.93779 0.34825 0.28768 0.0
C3616 C 0.92247 0.34364 0.29722 0.0
C3617 C 0.92384 0.33625 0.31424 0.0
C3618 C 0.94004 0.33332 0.3214 0.0
H3619 H 0.96704 0.28522 0.3121 0.0
H3620 H 0.95103 0.2965 0.32428 0.0
H3621 H 0.95459 0.29924 0.30004 0.0
H3622 H 0.96566 0.34899 0.28736 0.0
H3623 H 0.93718 0.35379 0.27446 0.0
H3624 H 0.97669 0.71271 0.60908 0.0
H3625 H 0.97544 0.67856 0.59665 0.0
H3626 H 0.01253 0.67694 0.64365 0.0
H3627 H 0.0131 0.71088 0.65657 0.0
H3628 H 1.00627 0.67273 0.58513 0.0
H3629 H 0.98404 0.62189 0.63389 0.0
H3630 H 0.97867 0.64549 0.63631 0.0
H3631 H 1.00004 0.64298 0.64554 0.0
C3632 C 0.98378 0.70472 0.61728 0.0
C3633 C 0.995 0.71427 0.6337 0.0
C3634 C 0.98311 0.68525 0.61017 0.0
C3635 C 0.99397 0.67521 0.61914 0.0
C3636 C 1.00379 0.68423 0.63666 0.0
H3637 H 0.05102 0.58856 0.57479 0.0
H3638 H 0.03819 0.61201 0.59559 0.0
C3639 C 1.00415 0.70366 0.64403 0.0
C3640 C 0.99823 0.6576 0.60802 0.0
H3641 H 1.00199 0.61122 0.60932 0.0
C3642 C 1.00501 0.65918 0.5903 0.0
C3643 C 0.99695 0.64008 0.61496 0.0
C3644 C 0.98938 0.63742 0.63365 0.0
C3645 C 0.01079 0.6439 0.57946 0.0
C3646 C 0.00959 0.62642 0.5864 0.0
C3647 C 1.0028 0.62468 0.60408 0.0
C3648 C 0.0157 0.61007 0.57535 0.0
C3649 C 0.01863 0.64677 0.56089 0.0
C3650 C 1.00699 0.60094 0.55737 0.0
C3651 C 0.01433 0.58777 0.54542 0.0
C3652 C 0.0305 0.58344 0.55128 0.0
C3653 C 0.03866 0.59176 0.56978 0.0
C3654 C 0.03131 0.60504 0.58173 0.0
H3655 H 0.02202 0.66228 0.55965 0.0
H3656 H 0.03076 0.6408 0.55959 0.0
H3657 H 0.00886 0.63899 0.54866 0.0
H3658 H 0.99483 0.60456 0.55231 0.0
H3659 H 1.00748 0.58129 0.53143 0.0
H3660 H 0.62136 0.79454 0.83826 0.0
H3661 H 0.64511 0.78798 0.81823 0.0
H3662 H 0.68171 0.79943 0.86886 0.0
H3663 H 0.65825 0.80619 0.88883 0.0
H3664 H 0.67797 0.81725 0.81917 0.0
H3665 H 0.69035 0.74838 0.83643 0.0
H3666 H 0.66954 0.75576 0.83961 0.0
H3667 H 0.68823 0.76572 0.85709 0.0
C3668 C 0.63438 0.79521 0.84511 0.0
C3669 C 0.63798 0.80088 0.8651 0.0
C3670 C 0.64792 0.79154 0.83366 0.0
C3671 C 0.6651 0.79307 0.8421 0.0
C3672 C 0.66848 0.7979 0.8621 0.0
H3673 H 0.77272 0.80271 0.82895 0.0
H3674 H 0.74216 0.79913 0.83712 0.0
C3675 C 0.65507 0.80183 0.87348 0.0
C3676 C 0.68006 0.7916 0.83025 0.0
H3677 H 0.71427 0.76846 0.82435 0.0
C3678 C 0.68573 0.80633 0.81984 0.0
C3679 C 0.69008 0.77734 0.8312 0.0
C3680 C 0.68418 0.76078 0.84154 0.0
C3681 C 0.70194 0.80803 0.8116 0.0
C3682 C 0.71249 0.79437 0.81354 0.0
C3683 C 0.7062 0.77894 0.82289 0.0
C3684 C 0.73092 0.79701 0.80807 0.0
C3685 C 0.70817 0.82514 0.80206 0.0
C3686 C 0.73482 0.79738 0.78905 0.0
C3687 C 0.7524 0.79969 0.7844 0.0
C3688 C 0.76617 0.80108 0.79862 0.0
C3689 C 0.76228 0.80134 0.81768 0.0
C3690 C 0.74483 0.79917 0.82233 0.0
H3691 H 0.70003 0.83622 0.80496 0.0
H3692 H 0.72222 0.83205 0.80702 0.0
H3693 H 0.70724 0.82014 0.78634 0.0
H3694 H 0.7243 0.7956 0.77778 0.0
H3695 H 0.7552 0.80016 0.76973 0.0
H3696 H 0.442 0.5423 0.70658 0.0
H3697 H 0.45524 0.5403 0.67578 0.0
H3698 H 0.49281 0.59347 0.69804 0.0
H3699 H 0.47986 0.59509 0.72884 0.0
H3700 H 0.4609 0.55805 0.64648 0.0
H3701 H 0.52827 0.56433 0.67997 0.0
H3702 H 0.50927 0.56202 0.6936 0.0
H3703 H 0.51966 0.58524 0.68849 0.0
C3704 C 0.45271 0.55397 0.7048 0.0
C3705 C 0.45915 0.56932 0.72051 0.0
C3706 C 0.46059 0.55268 0.68699 0.0
C3707 C 0.47568 0.56641 0.68393 0.0
C3708 C 0.48169 0.58211 0.69945 0.0
H3709 H 0.54644 0.58038 0.58799 0.0
H3710 H 0.5314 0.58398 0.61752 0.0
C3711 C 0.47386 0.58335 0.71724 0.0
C3712 C 0.48508 0.56419 0.66497 0.0
H3713 H 0.526 0.56597 0.64692 0.0
C3714 C 0.47515 0.55972 0.6468 0.0
C3715 C 0.50383 0.56619 0.66444 0.0
C3716 C 0.51588 0.5695 0.68264 0.0
C3717 C 0.48308 0.55779 0.62895 0.0
C3718 C 0.50183 0.55989 0.62845 0.0
C3719 C 0.51175 0.56434 0.6466 0.0
C3720 C 0.51134 0.55753 0.60961 0.0
C3721 C 0.47108 0.55414 0.61067 0.0
C3722 C 0.50584 0.54135 0.5945 0.0
C3723 C 0.5147 0.53917 0.5774 0.0
C3724 C 0.5297 0.55297 0.5743 0.0
C3725 C 0.53524 0.56914 0.58941 0.0
C3726 C 0.52643 0.57127 0.60658 0.0
H3727 H 0.45857 0.55913 0.61318 0.0
H3728 H 0.47765 0.56156 0.59964 0.0
H3729 H 0.46751 0.53837 0.60494 0.0
H3730 H 0.49474 0.52998 0.59596 0.0
H3731 H 0.50974 0.52638 0.56657 0.0
H3732 H 0.80554 0.18963 0.9695 0.0
H3733 H 0.79995 0.19822 0.93839 0.0
H3734 H 0.78073 0.13799 0.91346 0.0
H3735 H 0.78644 0.12911 0.94489 0.0
H3736 H 0.81267 0.18299 0.9001 0.0
H3737 H 0.73952 0.16836 0.90443 0.0
H3738 H 0.75466 0.17258 0.92572 0.0
H3739 H 0.75185 0.15047 0.90875 0.0
C3740 C 0.80022 0.17813 0.95742 0.0
C3741 C 0.7963 0.15869 0.95964 0.0
C3742 C 0.79714 0.18309 0.93963 0.0
C3743 C 0.78995 0.16874 0.92371 0.0
C3744 C 0.7863 0.14923 0.92566 0.0
H3745 H 0.74402 0.21176 0.82894 0.0
H3746 H 0.75409 0.188 0.84534 0.0
C3747 C 0.78954 0.1442 0.94356 0.0
C3748 C 0.78535 0.17484 0.90559 0.0
H3749 H 0.75085 0.18677 0.88193 0.0
C3750 C 0.79912 0.18341 0.89575 0.0
C3751 C 0.76767 0.17523 0.89996 0.0
C3752 C 0.75248 0.16623 0.9102 0.0
C3753 C 0.79573 0.19341 0.88107 0.0
C3754 C 0.7782 0.19527 0.87657 0.0
C3755 C 0.76431 0.18544 0.88547 0.0
C3756 C 0.77412 0.20909 0.86454 0.0
C3757 C 0.81102 0.20232 0.87093 0.0
C3758 C 0.78218 0.22883 0.86971 0.0
C3759 C 0.77642 0.24243 0.8604 0.0
C3760 C 0.76231 0.23658 0.84592 0.0
C3761 C 0.75474 0.21674 0.84025 0.0
C3762 C 0.76056 0.20313 0.84951 0.0
H3763 H 0.82154 0.19381 0.87051 0.0
H3764 H 0.80668 0.2033 0.85605 0.0
H3765 H 0.81695 0.21711 0.8789 0.0
H3766 H 0.79229 0.23387 0.88164 0.0
H3767 H 0.78234 0.25762 0.86529 0.0
H3768 H 0.1216 0.50799 0.22759 0.0
H3769 H 0.10459 0.50138 0.19643 0.0
H3770 H 0.15297 0.51355 0.16918 0.0
H3771 H 0.1702 0.52002 0.20037 0.0
H3772 H 0.10705 0.53171 0.1766 0.0
H3773 H 0.12233 0.46725 0.1313 0.0
H3774 H 0.12595 0.47192 0.15716 0.0
H3775 H 0.14147 0.48458 0.14332 0.0
C3776 C 0.12869 0.50879 0.21494 0.0
C3777 C 0.14725 0.51484 0.21647 0.0
C3778 C 0.11892 0.50492 0.19714 0.0
C3779 C 0.12752 0.50696 0.18054 0.0
C3780 C 0.1461 0.51159 0.18181 0.0
H3781 H 0.09876 0.54689 0.08019 0.0
H3782 H 0.11271 0.53872 0.1084 0.0
C3783 C 0.15593 0.51539 0.19966 0.0
C3784 C 0.11705 0.50751 0.1627 0.0
H3785 H 0.10866 0.48802 0.11504 0.0
C3786 C 0.10718 0.52195 0.16321 0.0
C3787 C 0.11731 0.49479 0.14528 0.0
C3788 C 0.1272 0.47864 0.14418 0.0
C3789 C 0.09801 0.52443 0.14662 0.0
C3790 C 0.09879 0.5122 0.12911 0.0
C3791 C 0.10818 0.49736 0.12859 0.0
C3792 C 0.09079 0.51565 0.11112 0.0
C3793 C 0.0879 0.54044 0.14774 0.0
C3794 C 0.07389 0.5052 0.10335 0.0
C3795 C 0.06578 0.50986 0.08722 0.0
C3796 C 0.07449 0.52507 0.07873 0.0
C3797 C 0.09162 0.53516 0.08639 0.0
C3798 C 0.09967 0.53049 0.10246 0.0
H3799 H 0.0867 0.54705 0.16277 0.0
H3800 H 0.09485 0.55191 0.14045 0.0
H3801 H 0.07441 0.53485 0.14021 0.0
H3802 H 0.06687 0.49375 0.11 0.0
H3803 H 0.05269 0.50164 0.08153 0.0
H3804 H 0.80791 0.84974 0.49089 0.0
H3805 H 0.80983 0.83344 0.45818 0.0
H3806 H 0.81233 0.88726 0.43813 0.0
H3807 H 0.81049 0.90371 0.47086 0.0
H3808 H 0.78589 0.83065 0.42623 0.0
H3809 H 0.85356 0.86698 0.41385 0.0
H3810 H 0.846 0.86779 0.4375 0.0
H3811 H 0.83952 0.88316 0.42213 0.0
C3812 C 0.80905 0.85817 0.47956 0.0
C3813 C 0.80907 0.87805 0.48351 0.0
C3814 C 0.81013 0.84881 0.46085 0.0
C3815 C 0.81144 0.85913 0.44569 0.0
C3816 C 0.81167 0.87904 0.44962 0.0
H3817 H 0.80794 0.83061 0.32206 0.0
H3818 H 0.81177 0.84624 0.3559 0.0
C3819 C 0.81051 0.88841 0.46833 0.0
C3820 C 0.81153 0.84883 0.42565 0.0
H3821 H 0.8356 0.84724 0.3867 0.0
C3822 C 0.79682 0.83417 0.41764 0.0
C3823 C 0.82577 0.85346 0.4144 0.0
C3824 C 0.8422 0.86859 0.42241 0.0
C3825 C 0.79572 0.8244 0.39858 0.0
C3826 C 0.80994 0.82905 0.38728 0.0
C3827 C 0.82473 0.84361 0.39534 0.0
C3828 C 0.80929 0.81954 0.36683 0.0
C3829 C 0.77902 0.80967 0.39053 0.0
C3830 C 0.80711 0.79934 0.36164 0.0
C3831 C 0.80485 0.79041 0.34229 0.0
C3832 C 0.80527 0.80154 0.32782 0.0
C3833 C 0.80799 0.82176 0.33299 0.0
C3834 C 0.81012 0.83067 0.3523 0.0
H3835 H 0.76779 0.81139 0.39927 0.0
H3836 H 0.7751 0.81084 0.37558 0.0
H3837 H 0.78138 0.79493 0.39048 0.0
H3838 H 0.80675 0.79045 0.37255 0.0
H3839 H 0.8025 0.77478 0.3386 0.0
H3840 H 0.43438 0.56783 0.84325 0.0
H3841 H 0.44971 0.56256 0.87258 0.0
H3842 H 0.4977 0.56426 0.84458 0.0
H3843 H 0.48242 0.56951 0.81534 0.0
H3844 H 0.46551 0.53482 0.88286 0.0
H3845 H 0.51912 0.6003 0.89311 0.0
H3846 H 0.5001 0.59666 0.87601 0.0
H3847 H 0.51812 0.58496 0.87022 0.0
C3848 C 0.44823 0.56718 0.84322 0.0
C3849 C 0.4569 0.56932 0.82639 0.0
C3850 C 0.45715 0.56409 0.86027 0.0
C3851 C 0.47536 0.56328 0.86169 0.0
C3852 C 0.48395 0.56525 0.84477 0.0
H3853 H 0.55153 0.54984 0.95917 0.0
H3854 H 0.5381 0.55316 0.92775 0.0
C3855 C 0.475 0.56814 0.82768 0.0
C3856 C 0.48503 0.56 0.88041 0.0
H3857 H 0.52184 0.57787 0.91347 0.0
C3858 C 0.47778 0.54442 0.88944 0.0
C3859 C 0.50137 0.57201 0.88963 0.0
C3860 C 0.5101 0.58953 0.8819 0.0
C3861 C 0.48612 0.54047 0.90647 0.0
C3862 C 0.50226 0.55272 0.91597 0.0
C3863 C 0.50962 0.5682 0.90683 0.0
C3864 C 0.51108 0.55011 0.93547 0.0
C3865 C 0.47763 0.52249 0.91365 0.0
C3866 C 0.50105 0.54736 0.9512 0.0
C3867 C 0.50875 0.54522 0.96913 0.0
C3868 C 0.52707 0.54577 0.9728 0.0
C3869 C 0.53737 0.54878 0.95725 0.0
C3870 C 0.52956 0.5509 0.93907 0.0
H3871 H 0.46998 0.51129 0.90177 0.0
H3872 H 0.48764 0.51616 0.92068 0.0
H3873 H 0.4682 0.52618 0.92414 0.0
H3874 H 0.48705 0.54732 0.94988 0.0
H3875 H 0.50015 0.54338 0.98049 0.0
H3876 H 0.81567 0.22286 0.05391 0.0
H3877 H 0.81816 0.23933 0.08715 0.0
H3878 H 0.80459 0.18426 0.10535 0.0
H3879 H 0.80237 0.16757 0.07201 0.0
H3880 H 0.78988 0.23658 0.10858 0.0
H3881 H 0.84532 0.21366 0.1448 0.0
H3882 H 0.84186 0.21084 0.11906 0.0
H3883 H 0.82879 0.19395 0.13144 0.0
C3884 C 0.81355 0.2142 0.065 0.0
C3885 C 0.80868 0.1939 0.06032 0.0
C3886 C 0.81499 0.22366 0.08399 0.0
C3887 C 0.81161 0.21304 0.09871 0.0
C3888 C 0.80757 0.19273 0.09423 0.0
H3889 H 0.79317 0.23987 0.21723 0.0
H3890 H 0.79573 0.225 0.1844 0.0
C3891 C 0.80625 0.18321 0.07517 0.0
C3892 C 0.81049 0.2233 0.11833 0.0
H3893 H 0.827 0.22946 0.16498 0.0
C3894 C 0.79811 0.23517 0.1209 0.0
C3895 C 0.82119 0.22136 0.13434 0.0
C3896 C 0.83516 0.20941 0.13231 0.0
C3897 C 0.79587 0.24485 0.13914 0.0
C3898 C 0.80646 0.24276 0.15516 0.0
C3899 C 0.81892 0.23101 0.1526 0.0
C3900 C 0.80437 0.25212 0.17481 0.0
C3901 C 0.78186 0.25675 0.14119 0.0
C3902 C 0.80819 0.27235 0.18022 0.0
C3903 C 0.80663 0.28096 0.19903 0.0
C3904 C 0.80145 0.26945 0.21275 0.0
C3905 C 0.79726 0.2492 0.2071 0.0
C3906 C 0.7988 0.24064 0.18834 0.0
H3907 H 0.77234 0.25347 0.12818 0.0
H3908 H 0.77438 0.25418 0.15372 0.0
H3909 H 0.78832 0.27233 0.14353 0.0
H3910 H 0.81264 0.28146 0.16998 0.0
H3911 H 0.80969 0.29659 0.20286 0.0
H3912 H 0.20152 0.57685 0.31074 0.0
H3913 H 0.18882 0.59297 0.33834 0.0
H3914 H 0.15666 0.53796 0.34388 0.0
H3915 H 0.16891 0.52209 0.31623 0.0
H3916 H 0.1508 0.58959 0.33495 0.0
H3917 H 0.17314 0.56521 0.4001 0.0
H3918 H 0.18577 0.56569 0.37946 0.0
H3919 H 0.16741 0.54589 0.37974 0.0
C3920 C 0.19234 0.56819 0.31848 0.0
C3921 C 0.18629 0.54827 0.31169 0.0
C3922 C 0.18503 0.57738 0.33409 0.0
C3923 C 0.17197 0.5666 0.34326 0.0
C3924 C 0.16698 0.54648 0.33728 0.0
H3925 H 0.08255 0.55444 0.40026 0.0
H3926 H 0.10894 0.55461 0.38295 0.0
C3927 C 0.17397 0.53741 0.32151 0.0
C3928 C 0.16118 0.57617 0.35669 0.0
H3929 H 0.14383 0.57246 0.39922 0.0
C3930 C 0.14959 0.58646 0.34928 0.0
C3931 C 0.15968 0.572 0.3753 0.0
C3932 C 0.17229 0.56175 0.3842 0.0
C3933 C 0.1354 0.59098 0.35929 0.0
C3934 C 0.13303 0.58532 0.37723 0.0
C3935 C 0.14558 0.57659 0.38534 0.0
C3936 C 0.11651 0.58581 0.38662 0.0
C3937 C 0.12224 0.60031 0.34994 0.0
C3938 C 0.11178 0.60331 0.39398 0.0
C3939 C 0.09653 0.60322 0.40373 0.0
C3940 C 0.086 0.58563 0.40638 0.0
C3941 C 0.0905 0.56818 0.39845 0.0
C3942 C 0.10559 0.56827 0.38867 0.0
H3943 H 0.12479 0.60152 0.33492 0.0
H3944 H 0.10854 0.59188 0.35 0.0
H3945 H 0.12303 0.61507 0.35818 0.0
H3946 H 0.12014 0.617 0.39271 0.0
H3947 H 0.09343 0.61686 0.40994 0.0
H3948 H 0.81016 0.90068 0.59883 0.0
H3949 H 0.80826 0.89156 0.63067 0.0
H3950 H 0.79084 0.83159 0.60393 0.0
H3951 H 0.79331 0.84048 0.57243 0.0
H3952 H 0.78294 0.87255 0.65024 0.0
H3953 H 0.83412 0.82945 0.63667 0.0
H3954 H 0.82912 0.84537 0.62103 0.0
H3955 H 0.81559 0.8214 0.61886 0.0
C3956 C 0.80571 0.8856 0.59979 0.0
C3957 C 0.80214 0.87129 0.58309 0.0
C3958 C 0.80467 0.88037 0.61799 0.0
C3959 C 0.79993 0.86078 0.61979 0.0
C3960 C 0.79513 0.84671 0.60305 0.0
H3961 H 0.7717 0.81245 0.72204 0.0
H3962 H 0.77134 0.82599 0.69271 0.0
C3963 C 0.79642 0.85186 0.58498 0.0
C3964 C 0.80064 0.85478 0.63894 0.0
H3965 H 0.8178 0.82455 0.66348 0.0
C3966 C 0.79066 0.86216 0.6532 0.0
C3967 C 0.81099 0.84151 0.64308 0.0
C3968 C 0.82321 0.83414 0.62918 0.0
C3969 C 0.79037 0.85624 0.67116 0.0
C3970 C 0.79995 0.84213 0.67486 0.0
C3971 C 0.81024 0.83516 0.66073 0.0
C3972 C 0.79988 0.83453 0.69326 0.0
C3973 C 0.78007 0.8655 0.68609 0.0
C3974 C 0.81598 0.83428 0.70332 0.0
C3975 C 0.8162 0.82589 0.71972 0.0
C3976 C 0.80032 0.81748 0.72662 0.0
C3977 C 0.78419 0.81824 0.71691 0.0
C3978 C 0.78397 0.8264 0.70028 0.0
H3979 H 0.77851 0.87995 0.68355 0.0
H3980 H 0.76662 0.85626 0.68536 0.0
H3981 H 0.78664 0.86719 0.70075 0.0
H3982 H 0.82847 0.84044 0.69835 0.0
H3983 H 0.8289 0.82578 0.72682 0.0
H3984 H 0.75557 0.45003 0.52893 0.0
H3985 H 0.73525 0.47197 0.53476 0.0
H3986 H 0.77963 0.5205 0.54981 0.0
H3987 H 0.8001 0.49866 0.54379 0.0
H3988 H 0.73195 0.49821 0.56793 0.0
H3989 H 0.75004 0.53535 0.50694 0.0
H3990 H 0.7561 0.51285 0.5095 0.0
H3991 H 0.76817 0.53521 0.52381 0.0
C3992 C 0.76103 0.46537 0.53354 0.0
C3993 C 0.77944 0.47264 0.53577 0.0
C3994 C 0.7494 0.47787 0.53689 0.0
C3995 C 0.75594 0.49787 0.54245 0.0
C3996 C 0.77432 0.50514 0.5452 0.0
H3997 H 0.68658 0.57737 0.57992 0.0
H3998 H 0.71138 0.56078 0.57862 0.0
C3999 C 0.78598 0.49264 0.54185 0.0
C4000 C 0.74343 0.51102 0.545 0.0
H4001 H 0.72905 0.54655 0.52617 0.0
C4002 C 0.73137 0.50889 0.55892 0.0
C4003 C 0.74264 0.52479 0.53306 0.0
C4004 C 0.75481 0.52716 0.51736 0.0
C4005 C 0.71838 0.52 0.56107 0.0
C4006 C 0.71761 0.53379 0.54915 0.0
C4007 C 0.7298 0.53609 0.53539 0.0
C4008 C 0.70341 0.5449 0.54975 0.0
C4009 C 0.70517 0.51641 0.57559 0.0
C4010 C 0.69111 0.54196 0.53373 0.0
C4011 C 0.67707 0.5515 0.53437 0.0
C4012 C 0.67508 0.56425 0.55104 0.0
C4013 C 0.68779 0.56769 0.56686 0.0
C4014 C 0.70185 0.55809 0.56621 0.0
H4015 H 0.70539 0.50274 0.58087 0.0
H4016 H 0.70839 0.5285 0.58805 0.0
H4017 H 0.69154 0.51575 0.56934 0.0
H4018 H 0.69216 0.53194 0.52084 0.0
H4019 H 0.66768 0.5488 0.52183 0.0
H4020 H 0.25011 0.14014 0.50304 0.0
H4021 H 0.22139 0.11835 0.50318 0.0
H4022 H 0.1948 0.16361 0.49332 0.0
H4023 H 0.22331 0.1853 0.49272 0.0
H4024 H 0.19641 0.12172 0.52739 0.0
H4025 H 0.16706 0.11913 0.45405 0.0
H4026 H 0.19028 0.12882 0.46141 0.0
H4027 H 0.17424 0.14346 0.46696 0.0
C4028 C 0.23816 0.14541 0.50062 0.0
C4029 C 0.23913 0.16453 0.49779 0.0
C4030 C 0.22172 0.13291 0.50075 0.0
C4031 C 0.20584 0.13918 0.49797 0.0
C4032 C 0.20677 0.1582 0.495 0.0
H4033 H 0.10452 0.09492 0.53745 0.0
H4034 H 0.13372 0.11277 0.53259 0.0
C4035 C 0.22318 0.17067 0.49479 0.0
C4036 C 0.18838 0.1263 0.49934 0.0
H4037 H 0.1469 0.10809 0.47625 0.0
C4038 C 0.18565 0.11861 0.51612 0.0
C4039 C 0.17434 0.12194 0.48455 0.0
C4040 C 0.17666 0.1286 0.46565 0.0
C4041 C 0.16921 0.10726 0.51876 0.0
C4042 C 0.15488 0.10381 0.50443 0.0
C4043 C 0.15776 0.11094 0.48738 0.0
C4044 C 0.13679 0.09308 0.50701 0.0
C4045 C 0.16741 0.09893 0.53686 0.0
C4046 C 0.12833 0.07645 0.49381 0.0
C4047 C 0.11145 0.06623 0.49646 0.0
C4048 C 0.10265 0.07239 0.51241 0.0
C4049 C 0.11096 0.08942 0.52524 0.0
C4050 C 0.12777 0.09965 0.52253 0.0
H4051 H 0.18048 0.09781 0.54334 0.0
H4052 H 0.16171 0.10857 0.5475 0.0
H4053 H 0.15852 0.08435 0.53407 0.0
H4054 H 0.13488 0.07121 0.48156 0.0
H4055 H 0.10534 0.05349 0.48601 0.0
H4056 H 0.17882 0.94286 0.77106 0.0
H4057 H 0.19487 0.91643 0.77097 0.0
H4058 H 0.24423 0.95686 0.77176 0.0
H4059 H 0.22824 0.98315 0.77166 0.0
H4060 H 0.21673 0.89836 0.74736 0.0
H4061 H 0.25803 0.93151 0.81515 0.0
H4062 H 0.23927 0.94064 0.80743 0.0
H4063 H 0.26009 0.94681 0.79749 0.0
C4064 C 0.1931 0.9463 0.77115 0.0
C4065 C 0.20185 0.96579 0.77135 0.0
C4066 C 0.20247 0.93087 0.77109 0.0
C4067 C 0.22127 0.93391 0.77168 0.0
C4068 C 0.22996 0.95338 0.77172 0.0
H4069 H 0.28316 0.83644 0.74746 0.0
H4070 H 0.2686 0.86375 0.74475 0.0
C4071 C 0.22059 0.96872 0.7715 0.0
C4072 C 0.2316 0.91713 0.77226 0.0
H4073 H 0.26522 0.90347 0.79765 0.0
C4074 C 0.22736 0.89973 0.75842 0.0
C4075 C 0.24564 0.91786 0.78657 0.0
C4076 C 0.25098 0.93508 0.80263 0.0
C4077 C 0.23648 0.88401 0.7583 0.0
C4078 C 0.2507 0.88489 0.77245 0.0
C4079 C 0.25472 0.90215 0.78646 0.0
C4080 C 0.2607 0.86795 0.77372 0.0
C4081 C 0.23033 0.86616 0.7431 0.0
C4082 C 0.26224 0.86063 0.7909 0.0
C4083 C 0.2706 0.84483 0.79239 0.0
C4084 C 0.27856 0.83541 0.77704 0.0
C4085 C 0.27757 0.84297 0.75987 0.0
C4086 C 0.26886 0.85874 0.75826 0.0
H4087 H 0.21685 0.86541 0.73635 0.0
H4088 H 0.23957 0.86642 0.73173 0.0
H4089 H 0.23021 0.85287 0.74917 0.0
H4090 H 0.25646 0.86685 0.80332 0.0
H4091 H 0.2707 0.83977 0.80591 0.0
H4092 H 0.37971 0.91928 0.00633 0.0
H4093 H 0.40817 0.93937 1.00263 0.0
H4094 H 0.38905 0.99068 0.02365 0.0
H4095 H 0.3604 0.97058 0.02783 0.0
H4096 H 0.4171 0.96769 0.98104 0.0
H4097 H 0.43424 0.99777 0.05874 0.0
H4098 H 0.41604 0.97753 0.05005 0.0
H4099 H 0.41379 1.00168 0.04858 0.0
C4100 C 0.38145 0.93484 0.01019 0.0
C4101 C 0.36773 0.94327 0.01756 0.0
C4102 C 0.39778 0.94632 0.008 0.0
C4103 C 0.40085 0.96651 0.0131 0.0
C4104 C 0.38709 0.9751 0.01998 0.0
H4105 H 0.50416 0.04617 0.02078 0.0
H4106 H 0.47204 0.03408 0.01826 0.0
C4107 C 0.37069 0.96358 0.02227 0.0
C4108 C 0.41863 0.97829 0.01141 0.0
H4109 H 0.45533 1.00741 0.03783 0.0
C4110 C 0.42541 0.97653 0.99343 0.0
C4111 C 0.42945 0.98984 0.02757 0.0
C4112 C 0.42313 0.99176 0.04737 0.0
C4113 C 0.44284 0.98562 0.99125 0.0
C4114 C 0.45386 0.99661 0.00752 0.0
C4115 C 0.44686 0.99901 0.02536 0.0
C4116 C 0.47305 1.00446 0.00677 0.0
C4117 C 0.44929 0.98314 0.97154 0.0
C4118 C 0.48431 0.99188 1.00103 0.0
C4119 C 0.50263 0.99882 1.00228 0.0
C4120 C 0.51004 0.01845 0.00924 0.0
C4121 C 0.49879 0.03108 0.01484 0.0
C4122 C 0.48044 0.02415 0.01354 0.0
H4123 H 0.43816 0.98052 0.9602 0.0
H4124 H 0.45926 0.99601 0.96976 0.0
H4125 H 0.45552 0.9704 0.9694 0.0
H4126 H 0.47899 0.97655 0.99627 0.0
H4127 H 0.51107 0.98874 0.99824 0.0
H4128 H 0.92549 0.62443 0.79525 0.0
H4129 H 0.91115 0.64884 0.78475 0.0
H4130 H 0.8628 0.60577 0.76766 0.0
H4131 H 0.87691 0.58137 0.77841 0.0
H4132 H 0.89663 0.64973 0.749 0.0
H4133 H 0.8457 0.64924 0.80072 0.0
H4134 H 0.86456 0.63836 0.80352 0.0
H4135 H 0.84543 0.62555 0.78755 0.0
C4136 C 0.91178 0.62018 0.78933 0.0
C4137 C 0.90228 0.60101 0.78773 0.0
C4138 C 0.90362 0.63414 0.78336 0.0
C4139 C 0.88584 0.62918 0.77577 0.0
C4140 C 0.87641 0.61 0.77393 0.0
H4141 H 0.82777 0.6803 0.70093 0.0
H4142 H 0.84553 0.66169 0.71643 0.0
C4143 C 0.88453 0.59605 0.77994 0.0
C4144 C 0.87728 0.64385 0.76907 0.0
H4145 H 0.84103 0.664 0.77354 0.0
C4146 C 0.88458 0.65301 0.7545 0.0
C4147 C 0.86177 0.6484 0.77655 0.0
C4148 C 0.854 0.64003 0.79309 0.0
C4149 C 0.87629 0.66594 0.74657 0.0
C4150 C 0.86015 0.66946 0.75317 0.0
C4151 C 0.8533 0.66103 0.76835 0.0
C4152 C 0.84973 0.68107 0.74386 0.0
C4153 C 0.88482 0.67566 0.73114 0.0
C4154 C 0.84584 0.69786 0.75433 0.0
C4155 C 0.83563 0.70851 0.74552 0.0
C4156 C 0.82912 0.70252 0.7261 0.0
C4157 C 0.83287 0.68552 0.71578 0.0
C4158 C 0.84304 0.67489 0.7246 0.0
H4159 H 0.89924 0.67592 0.73166 0.0
H4160 H 0.87863 0.6675 0.7169 0.0
H4161 H 0.8829 0.69073 0.73247 0.0
H4162 H 0.85082 0.70278 0.76926 0.0
H4163 H 0.83308 0.72158 0.75382 0.0
H4164 H 0.85872 0.68202 0.01934 0.0
H4165 H 0.88249 0.66471 0.02405 0.0
H4166 H 0.84355 0.61317 0.02642 0.0
H4167 H 0.81978 0.63031 0.0218 0.0
H4168 H 0.88944 0.64381 0.05504 0.0
H4169 H 0.87494 0.59633 0.98339 0.0
H4170 H 0.86711 0.6185 0.98903 0.0
H4171 H 0.85616 0.5971 0.99705 0.0
C4172 C 0.85521 0.66703 0.02098 0.0
C4173 C 0.83731 0.65755 0.02013 0.0
C4174 C 0.86882 0.65716 0.02366 0.0
C4175 C 0.86481 0.63756 0.02532 0.0
C4176 C 0.84698 0.6282 0.0249 0.0
H4177 H 0.91901 0.54576 0.03665 0.0
H4178 H 0.89845 0.56648 0.03161 0.0
C4179 C 0.83339 0.63807 0.02236 0.0
C4180 C 0.87917 0.62677 0.02738 0.0
H4181 H 0.89534 0.58858 0.00537 0.0
C4182 C 0.89086 0.63183 0.04413 0.0
C4183 C 0.88101 0.61115 0.01313 0.0
C4184 C 0.86926 0.60548 0.99454 0.0
C4185 C 0.90387 0.62124 0.04735 0.0
C4186 C 0.90557 0.60541 0.0332 0.0
C4187 C 0.89409 0.60065 0.01626 0.0
C4188 C 0.91851 0.59297 0.03601 0.0
C4189 C 0.91517 0.62663 0.06625 0.0
C4190 C 0.93681 0.60078 0.03981 0.0
C4191 C 0.94867 0.58893 0.04299 0.0
C4192 C 0.94253 0.56894 0.04228 0.0
C4193 C 0.92426 0.56112 0.03779 0.0
C4194 C 0.91244 0.57296 0.03473 0.0
H4195 H 0.90918 0.63555 0.0773 0.0
H4196 H 0.91719 0.61354 0.07169 0.0
H4197 H 0.92833 0.63523 0.06424 0.0
H4198 H 0.94195 0.61607 0.04039 0.0
H4199 H 0.9626 0.59554 0.04644 0.0
H4200 H 0.17671 0.09283 0.78039 0.0
H4201 H 0.19593 0.12398 0.78028 0.0
H4202 H 0.2417 0.09923 0.78676 0.0
H4203 H 0.22219 0.06734 0.78602 0.0
H4204 H 0.21709 0.14895 0.80379 0.0
H4205 H 0.25937 0.12806 0.74719 0.0
H4206 H 0.24009 0.11144 0.75202 0.0
H4207 H 0.26067 0.11548 0.76679 0.0
C4208 C 0.19087 0.09373 0.7817 0.0
C4209 C 0.1976 0.07702 0.78318 0.0
C4210 C 0.20203 0.11191 0.78168 0.0
C4211 C 0.22064 0.11461 0.78324 0.0
C4212 C 0.22753 0.09799 0.78493 0.0
H4213 H 0.30322 0.22477 0.79453 0.0
H4214 H 0.28742 0.19156 0.79514 0.0
C4215 C 0.21625 0.07954 0.78469 0.0
C4216 C 0.23228 0.13487 0.78361 0.0
H4217 H 0.26749 0.16038 0.76419 0.0
C4218 C 0.22803 0.15122 0.79498 0.0
C4219 C 0.24684 0.13861 0.77231 0.0
C4220 C 0.25194 0.12252 0.75875 0.0
C4221 C 0.23753 0.17048 0.79535 0.0
C4222 C 0.25198 0.17417 0.78405 0.0
C4223 C 0.25654 0.15792 0.77296 0.0
C4224 C 0.26206 0.19472 0.78326 0.0
C4225 C 0.23205 0.18686 0.80814 0.0
C4226 C 0.2535 0.2081 0.77624 0.0
C4227 C 0.26266 0.22716 0.77558 0.0
C4228 C 0.28086 0.23386 0.78203 0.0
C4229 C 0.28941 0.22045 0.78916 0.0
C4230 C 0.28026 0.20126 0.78957 0.0
H4231 H 0.22376 0.18167 0.81925 0.0
H4232 H 0.24384 0.19778 0.81534 0.0
H4233 H 0.22419 0.19412 0.79931 0.0
H4234 H 0.2396 0.20376 0.77104 0.0
H4235 H 0.25534 0.23667 0.76993 0.0
H4236 H 0.43946 0.98195 0.30981 0.0
H4237 H 0.42288 0.94831 0.30163 0.0
H4238 H 0.37371 0.96783 0.30262 0.0
H4239 H 0.39006 1.00134 0.31046 0.0
H4240 H 0.39784 0.92626 0.31912 0.0
H4241 H 0.36907 0.93518 0.24913 0.0
H4242 H 0.38712 0.95289 0.26309 0.0
H4243 H 0.36463 0.95252 0.26853 0.0
C4244 C 0.42511 0.97905 0.30858 0.0
C4245 C 0.41607 0.99432 0.31058 0.0
C4246 C 0.41568 0.95985 0.30377 0.0
C4247 C 0.3971 0.95565 0.30092 0.0
C4248 C 0.38806 0.9708 0.30412 0.0
H4249 H 0.30847 0.86012 0.26893 0.0
H4250 H 0.32978 0.89127 0.27679 0.0
C4251 C 0.39744 0.98994 0.30879 0.0
C4252 C 0.38701 0.93549 0.29466 0.0
H4253 H 0.35551 0.90696 0.26076 0.0
C4254 C 0.38861 0.92193 0.30632 0.0
C4255 C 0.37534 0.92983 0.27771 0.0
C4256 C 0.37407 0.94332 0.26378 0.0
C4257 C 0.37804 0.90314 0.3022 0.0
C4258 C 0.36551 0.89775 0.28579 0.0
C4259 C 0.36466 0.91113 0.27361 0.0
C4260 C 0.35267 0.87876 0.2812 0.0
C4261 C 0.38042 0.88973 0.31589 0.0
C4262 C 0.35831 0.8613 0.28079 0.0
C4263 C 0.34599 0.84373 0.27742 0.0
C4264 C 0.32794 0.84317 0.2733 0.0
C4265 C 0.32231 0.86036 0.27249 0.0
C4266 C 0.33454 0.87807 0.27678 0.0
H4267 H 0.38484 0.89788 0.33066 0.0
H4268 H 0.36817 0.87899 0.31642 0.0
H4269 H 0.39084 0.88187 0.31117 0.0
H4270 H 0.37222 0.86121 0.28317 0.0
H4271 H 0.35061 0.8305 0.27766 0.0
H4272 H 0.5901 0.35209 0.57704 0.0
H4273 H 0.58629 0.37965 0.56209 0.0
H4274 H 0.57855 0.41112 0.617 0.0
H4275 H 0.58226 0.38363 0.63195 0.0
H4276 H 0.55344 0.41358 0.58949 0.0
H4277 H 0.61908 0.4313 0.56163 0.0
H4278 H 0.6074 0.40665 0.55388 0.0
H4279 H 0.61473 0.41545 0.57882 0.0
C4280 C 0.58782 0.36496 0.58602 0.0
C4281 C 0.58662 0.36546 0.60584 0.0
C4282 C 0.5857 0.38088 0.57741 0.0
C4283 C 0.58231 0.3979 0.58829 0.0
C4284 C 0.5812 0.3984 0.6081 0.0
H4285 H 0.56217 0.51048 0.57534 0.0
H4286 H 0.56581 0.48043 0.58505 0.0
C4287 C 0.58341 0.38256 0.61671 0.0
C4288 C 0.57914 0.41479 0.57914 0.0
H4289 H 0.59782 0.44865 0.55298 0.0
C4290 C 0.56322 0.42119 0.58154 0.0
C4291 C 0.59164 0.42487 0.56843 0.0
C4292 C 0.60925 0.41938 0.56562 0.0
C4293 C 0.5595 0.43705 0.57375 0.0
C4294 C 0.57218 0.44752 0.56351 0.0
C4295 C 0.58797 0.44088 0.56073 0.0
C4296 C 0.56975 0.46603 0.55687 0.0
C4297 C 0.54169 0.44212 0.57628 0.0
C4298 C 0.57123 0.46877 0.5377 0.0
C4299 C 0.5692 0.48634 0.53202 0.0
C4300 C 0.56567 0.50169 0.54539 0.0
C4301 C 0.56451 0.49894 0.5645 0.0
C4302 C 0.56648 0.48155 0.5701 0.0
H4303 H 0.53164 0.42949 0.5786 0.0
H4304 H 0.54285 0.45371 0.58904 0.0
H4305 H 0.53686 0.44735 0.56359 0.0
H4306 H 0.57393 0.45728 0.52708 0.0
H4307 H 0.57065 0.48801 0.5173 0.0
H4308 H 0.45453 0.76574 0.42081 0.0
H4309 H 0.42867 0.76718 0.40028 0.0
H4310 H 0.46275 0.78587 0.35802 0.0
H4311 H 0.48865 0.78336 0.37821 0.0
H4312 H 0.41775 0.79457 0.38976 0.0
H4313 H 0.42679 0.74857 0.32213 0.0
H4314 H 0.44021 0.74996 0.34406 0.0
H4315 H 0.44549 0.76825 0.32949 0.0
C4316 C 0.45655 0.76978 0.40696 0.0
C4317 C 0.4738 0.77421 0.40117 0.0
C4318 C 0.44165 0.77073 0.39518 0.0
C4319 C 0.44338 0.77644 0.37724 0.0
C4320 C 0.46066 0.78081 0.37138 0.0
H4321 H 0.35608 0.81982 0.32499 0.0
H4322 H 0.38292 0.81667 0.34287 0.0
C4323 C 0.47561 0.77945 0.38303 0.0
C4324 C 0.42718 0.77868 0.36544 0.0
H4325 H 0.40519 0.76777 0.32034 0.0
C4326 C 0.41505 0.78855 0.37459 0.0
C4327 C 0.42316 0.77073 0.34559 0.0
C4328 C 0.4345 0.75861 0.33479 0.0
C4329 C 0.39938 0.79071 0.36475 0.0
C4330 C 0.39576 0.78354 0.34473 0.0
C4331 C 0.40782 0.77357 0.33556 0.0
C4332 C 0.37942 0.78576 0.3332 0.0
C4333 C 0.38656 0.80005 0.37626 0.0
C4334 C 0.36857 0.76975 0.32082 0.0
C4335 C 0.35331 0.77166 0.31014 0.0
C4336 C 0.34825 0.78961 0.31159 0.0
C4337 C 0.3592 0.80566 0.32376 0.0
C4338 C 0.37463 0.80383 0.33417 0.0
H4339 H 0.38813 0.79867 0.39156 0.0
H4340 H 0.38925 0.81572 0.37572 0.0
H4341 H 0.37261 0.79352 0.37058 0.0
H4342 H 0.37177 0.75561 0.31954 0.0
H4343 H 0.34534 0.75894 0.30094 0.0
H4344 H 0.07363 0.75337 0.12311 0.0
H4345 H 0.06918 0.71802 0.11425 0.0
H4346 H 0.08449 0.72377 0.05781 0.0
H4347 H 0.08944 0.75884 0.06667 0.0
H4348 H 0.04793 0.691 0.08826 0.0
H4349 H 0.11645 0.68987 0.07066 0.0
H4350 H 0.11029 0.71157 0.08231 0.0
H4351 H 0.10623 0.70398 0.0567 0.0
C4352 C 0.07605 0.74712 0.10881 0.0
C4353 C 0.0821 0.75918 0.09574 0.0
C4354 C 0.07352 0.72682 0.10373 0.0
C4355 C 0.07695 0.71798 0.08546 0.0
C4356 C 0.08234 0.73 0.07221 0.0
H4357 H 0.05948 0.59595 0.02647 0.0
H4358 H 0.06569 0.6316 0.03397 0.0
C4359 C 0.08502 0.75021 0.0773 0.0
C4360 C 0.07459 0.69628 0.08007 0.0
H4361 H 0.09521 0.66013 0.06123 0.0
C4362 C 0.05835 0.68434 0.08247 0.0
C4363 C 0.0881 0.68727 0.07244 0.0
C4364 C 0.1063 0.69882 0.07055 0.0
C4365 C 0.0552 0.66398 0.07726 0.0
C4366 C 0.06863 0.65505 0.06947 0.0
C4367 C 0.08484 0.6669 0.06701 0.0
C4368 C 0.06624 0.63344 0.0647 0.0
C4369 C 0.03739 0.65208 0.07993 0.0
C4370 C 0.06497 0.62251 0.07939 0.0
C4371 C 0.06173 0.60224 0.07514 0.0
C4372 C 0.05974 0.59223 0.05608 0.0
C4373 C 0.06132 0.60316 0.04131 0.0
C4374 C 0.06474 0.62356 0.0456 0.0
H4375 H 0.02731 0.66106 0.08233 0.0
H4376 H 0.03258 0.64046 0.06724 0.0
H4377 H 0.0387 0.6451 0.09257 0.0
H4378 H 0.06623 0.62968 0.09423 0.0
H4379 H 0.06044 0.5943 0.08685 0.0
H4380 H 0.05633 0.2549 0.87044 0.0
H4381 H 0.08298 0.25654 0.85315 0.0
H4382 H 0.11435 0.2915 0.90355 0.0
H4383 H 0.08791 0.28936 0.92101 0.0
H4384 H 0.10382 0.28586 0.8433 0.0
H4385 H 0.14563 0.25466 0.8895 0.0
H4386 H 0.12239 0.25331 0.89218 0.0
H4387 H 0.13855 0.27484 0.90281 0.0
C4388 C 0.06895 0.26267 0.87795 0.0
C4389 C 0.06991 0.27186 0.89721 0.0
C4390 C 0.08424 0.26367 0.868 0.0
C4391 C 0.10094 0.27389 0.87701 0.0
C4392 C 0.10188 0.28302 0.89629 0.0
H4393 H 0.18809 0.32307 0.81559 0.0
H4394 H 0.16315 0.31671 0.83489 0.0
C4395 C 0.08663 0.28189 0.90628 0.0
C4396 C 0.11705 0.27599 0.86594 0.0
H4397 H 0.16059 0.27223 0.8671 0.0
C4398 C 0.11616 0.28271 0.84851 0.0
C4399 C 0.13325 0.27164 0.87236 0.0
C4400 C 0.13499 0.26301 0.89013 0.0
C4401 C 0.1309 0.28568 0.83772 0.0
C4402 C 0.14737 0.28239 0.84469 0.0
C4403 C 0.14816 0.2751 0.86181 0.0
C4404 C 0.16383 0.28665 0.83444 0.0
C4405 C 0.12851 0.29201 0.81872 0.0
C4406 C 0.17346 0.2723 0.82864 0.0
C4407 C 0.18807 0.27605 0.81779 0.0
C4408 C 0.19334 0.29424 0.81246 0.0
C4409 C 0.18424 0.30881 0.81915 0.0
C4410 C 0.16983 0.30513 0.8301 0.0
H4411 H 0.11443 0.28787 0.81269 0.0
H4412 H 0.13262 0.308 0.8208 0.0
H4413 H 0.13666 0.28559 0.8081 0.0
H4414 H 0.16931 0.25796 0.83193 0.0
H4415 H 0.19472 0.26448 0.81284 0.0
H4416 H 0.58119 0.76432 0.91137 0.0
H4417 H 0.57425 0.73682 0.92814 0.0
H4418 H 0.60745 0.77044 0.97801 0.0
H4419 H 0.61375 0.79806 0.96168 0.0
H4420 H 0.59196 0.71456 0.94566 0.0
H4421 H 0.56042 0.75828 0.9996 0.0
H4422 H 0.5674 0.76633 0.978 0.0
H4423 H 0.58317 0.76939 0.99849 0.0
C4424 C 0.58725 0.76565 0.92578 0.0
C4425 C 0.5978 0.78334 0.93536 0.0
C4426 C 0.58323 0.74999 0.93537 0.0
C4427 C 0.58987 0.75181 0.95456 0.0
C4428 C 0.60167 0.76894 0.96346 0.0
H4429 H 0.58709 0.66035 0.02095 0.0
H4430 H 0.59511 0.68492 1.00107 0.0
C4431 C 0.60539 0.78464 0.95407 0.0
C4432 C 0.58378 0.73637 0.9657 0.0
H4433 H 0.56556 0.72862 0.00709 0.0
C4434 C 0.58608 0.71757 0.95903 0.0
C4435 C 0.57567 0.74018 0.98291 0.0
C4436 C 0.57133 0.75958 0.99006 0.0
C4437 C 0.58101 0.70264 0.96941 0.0
C4438 C 0.57396 0.70679 0.98725 0.0
C4439 C 0.57121 0.72546 0.9936 0.0
C4440 C 0.56924 0.69206 0.99957 0.0
C4441 C 0.58296 0.68252 0.96094 0.0
C4442 C 0.55231 0.68855 0.0062 0.0
C4443 C 0.54787 0.67489 0.01799 0.0
C4444 C 0.56024 0.66438 0.02325 0.0
C4445 C 0.57726 0.66813 0.01692 0.0
C4446 C 0.58179 0.68201 0.00539 0.0
H4447 H 0.58284 0.68048 0.94509 0.0
H4448 H 0.59585 0.68023 0.96666 0.0
H4449 H 0.5722 0.67132 0.96461 0.0
H4450 H 0.54244 0.69622 1.00203 0.0
H4451 H 0.53462 0.67215 0.02256 0.0
H4452 H 0.07758 0.77177 0.64542 0.0
H4453 H 0.10444 0.76906 0.66332 0.0
H4454 H 0.08066 0.78045 0.71631 0.0
H4455 H 0.05341 0.78264 0.69844 0.0
H4456 H 0.12784 0.79305 0.6907 0.0
H4457 H 0.09394 0.72936 0.7194 0.0
H4458 H 0.08339 0.73881 0.70095 0.0
H4459 H 0.08494 0.75051 0.72561 0.0
C4460 C 0.07804 0.77386 0.66089 0.0
C4461 C 0.06319 0.77719 0.67045 0.0
C4462 C 0.09346 0.77231 0.67112 0.0
C4463 C 0.09445 0.77412 0.69113 0.0
C4464 C 0.08003 0.77847 0.70083 0.0
H4465 H 0.19516 0.77878 0.75714 0.0
H4466 H 0.16831 0.78708 0.74413 0.0
C4467 C 0.0645 0.77986 0.69059 0.0
C4468 C 0.11039 0.7708 0.70157 0.0
H4469 H 0.12426 0.74142 0.72963 0.0
C4470 C 0.12706 0.78182 0.69929 0.0
C4471 C 0.10938 0.75594 0.71254 0.0
C4472 C 0.09199 0.74284 0.71467 0.0
C4473 C 0.14275 0.77827 0.70748 0.0
C4474 C 0.14171 0.76361 0.71869 0.0
C4475 C 0.12503 0.75274 0.72115 0.0
C4476 C 0.15777 0.75861 0.72718 0.0
C4477 C 0.16028 0.78978 0.70341 0.0
C4478 C 0.16049 0.73967 0.72255 0.0
C4479 C 0.17568 0.73484 0.73017 0.0
C4480 C 0.18851 0.74887 0.74252 0.0
C4481 C 0.18564 0.76775 0.7474 0.0
C4482 C 0.17034 0.77253 0.73993 0.0
H4483 H 0.15889 0.79659 0.69064 0.0
H4484 H 0.16554 0.80151 0.71587 0.0
H4485 H 0.17012 0.78051 0.70101 0.0
H4486 H 0.15096 0.72867 0.71279 0.0
H4487 H 0.17759 0.72021 0.72605 0.0
H4488 H 0.10751 0.37585 0.37636 0.0
H4489 H 0.10198 0.40786 0.38902 0.0
H4490 H 0.09981 0.39343 0.44545 0.0
H4491 H 0.10515 0.36149 0.43296 0.0
H4492 H 0.0702 0.40685 0.432 0.0
H4493 H 0.1344 0.45542 0.42483 0.0
H4494 H 0.12433 0.43796 0.40393 0.0
H4495 H 0.13231 0.42987 0.42465 0.0
C4496 C 0.10611 0.37964 0.39151 0.0
C4497 C 0.1067 0.36619 0.40368 0.0
C4498 C 0.10302 0.39792 0.39871 0.0
C4499 C 0.1006 0.40297 0.41816 0.0
C4500 C 0.10167 0.38975 0.43039 0.0
H4501 H 0.09571 0.50459 0.49631 0.0
H4502 H 0.10385 0.47727 0.47618 0.0
C4503 C 0.10472 0.37153 0.42323 0.0
C4504 C 0.09576 0.42147 0.42574 0.0
H4505 H 0.11177 0.47026 0.43708 0.0
C4506 C 0.0792 0.42075 0.43298 0.0
C4507 C 0.10762 0.43948 0.42701 0.0
C4508 C 0.12573 0.44087 0.41983 0.0
C4509 C 0.07431 0.43757 0.44194 0.0
C4510 C 0.08621 0.45559 0.44335 0.0
C4511 C 0.10265 0.45639 0.43577 0.0
C4512 C 0.08235 0.47348 0.45415 0.0
C4513 C 0.05678 0.43581 0.45054 0.0
C4514 C 0.06784 0.48068 0.44813 0.0
C4515 C 0.06298 0.49615 0.45973 0.0
C4516 C 0.07261 0.50463 0.47751 0.0
C4517 C 0.08775 0.49806 0.48293 0.0
C4518 C 0.09254 0.48258 0.47136 0.0
H4519 H 0.05075 0.4206 0.4514 0.0
H4520 H 0.0584 0.4447 0.46515 0.0
H4521 H 0.04741 0.44119 0.44151 0.0
H4522 H 0.05999 0.47398 0.43472 0.0
H4523 H 0.05137 0.50101 0.45504 0.0
H4524 H 0.45555 0.2768 0.17265 0.0
H4525 H 0.42987 0.27088 0.19083 0.0
H4526 H 0.463 0.26274 0.23828 0.0
H4527 H 0.48903 0.26895 0.22016 0.0
H4528 H 0.4159 0.23801 0.20701 0.0
H4529 H 0.43761 0.30503 0.26243 0.0
H4530 H 0.44798 0.30173 0.24034 0.0
H4531 H 0.45233 0.28855 0.25876 0.0
C4532 C 0.45743 0.27371 0.18693 0.0
C4533 C 0.47433 0.27346 0.19502 0.0
C4534 C 0.44272 0.27027 0.19728 0.0
C4535 C 0.44457 0.26654 0.21594 0.0
C4536 C 0.46136 0.26585 0.22399 0.0
H4537 H 0.35039 0.27215 0.28016 0.0
H4538 H 0.37979 0.26513 0.27465 0.0
C4539 C 0.47616 0.26932 0.21359 0.0
C4540 C 0.42875 0.26391 0.22677 0.0
H4541 H 0.40836 0.28794 0.26139 0.0
C4542 C 0.41433 0.24877 0.2191 0.0
C4543 C 0.42684 0.27771 0.2428 0.0
C4544 C 0.44193 0.29426 0.25161 0.0
C4545 C 0.39764 0.24802 0.22599 0.0
C4546 C 0.39531 0.26295 0.2407 0.0
C4547 C 0.41012 0.27686 0.24975 0.0
C4548 C 0.37745 0.26627 0.2444 0.0
C4549 C 0.38247 0.23172 0.21685 0.0
C4550 C 0.36664 0.26959 0.22934 0.0
C4551 C 0.35012 0.27373 0.23248 0.0
C4552 C 0.34422 0.27505 0.25083 0.0
C4553 C 0.35489 0.27159 0.26596 0.0
C4554 C 0.37154 0.26743 0.2628 0.0
H4555 H 0.38726 0.21835 0.21164 0.0
H4556 H 0.37238 0.22851 0.22703 0.0
H4557 H 0.37605 0.23584 0.20429 0.0
H4558 H 0.37112 0.26928 0.21515 0.0
H4559 H 0.34204 0.27622 0.22059 0.0
H4560 H 0.62811 0.50985 0.30876 0.0
H4561 H 0.61381 0.51379 0.33881 0.0
H4562 H 0.66455 0.52386 0.37104 0.0
H4563 H 0.67884 0.51969 0.34098 0.0
H4564 H 0.6106 0.49425 0.36959 0.0
H4565 H 0.64645 0.56907 0.39923 0.0
H4566 H 0.64697 0.55807 0.37456 0.0
H4567 H 0.66065 0.55245 0.39319 0.0
C4568 C 0.63638 0.51299 0.32218 0.0
C4569 C 0.65493 0.51448 0.32186 0.0
C4570 C 0.62804 0.51523 0.33966 0.0
C4571 C 0.63776 0.51951 0.35794 0.0
C4572 C 0.65633 0.52102 0.35763 0.0
H4573 H 0.60958 0.54542 0.48028 0.0
H4574 H 0.62437 0.54108 0.45063 0.0
C4575 C 0.66464 0.51848 0.34013 0.0
C4576 C 0.62851 0.52196 0.37696 0.0
H4577 H 0.62813 0.55314 0.41975 0.0
C4578 C 0.61451 0.50724 0.38043 0.0
C4579 C 0.63321 0.53866 0.39183 0.0
C4580 C 0.64752 0.55557 0.38955 0.0
C4581 C 0.60574 0.50844 0.39777 0.0
C4582 C 0.61016 0.52535 0.41255 0.0
C4583 C 0.62422 0.54006 0.40902 0.0
C4584 C 0.60066 0.528 0.4315 0.0
C4585 C 0.59227 0.49087 0.40022 0.0
C4586 C 0.58198 0.52266 0.43183 0.0
C4587 C 0.57342 0.52487 0.44914 0.0
C4588 C 0.58286 0.533 0.4673 0.0
C4589 C 0.60148 0.53893 0.46698 0.0
C4590 C 0.6101 0.53646 0.44967 0.0
H4591 H 0.59493 0.47744 0.39173 0.0
H4592 H 0.59217 0.4892 0.41545 0.0
H4593 H 0.57891 0.49224 0.3949 0.0
H4594 H 0.57371 0.51699 0.41853 0.0
H4595 H 0.55916 0.5205 0.44811 0.0
H4596 H 0.30899 0.92861 0.0947 0.0
H4597 H 0.31247 0.92535 0.12861 0.0
H4598 H 0.3486 0.88763 0.11474 0.0
H4599 H 0.34525 0.89069 0.08134 0.0
H4600 H 0.30503 0.88894 0.14263 0.0
H4601 H 0.37474 0.9274 0.16169 0.0
H4602 H 0.36129 0.9314 0.14174 0.0
H4603 H 0.37196 0.91113 0.1391 0.0
C4604 C 0.31782 0.91983 0.09899 0.0
C4605 C 0.32678 0.90985 0.08531 0.0
C4606 C 0.31977 0.91797 0.11832 0.0
C4607 C 0.331 0.90648 0.12419 0.0
C4608 C 0.34013 0.89685 0.11059 0.0
H4609 H 0.33963 0.82684 0.19189 0.0
H4610 H 0.33016 0.8473 0.1711 0.0
C4611 C 0.33805 0.8985 0.09142 0.0
C4612 C 0.33254 0.90303 0.14412 0.0
H4613 H 0.36416 0.90126 0.17873 0.0
C4614 C 0.31784 0.89211 0.15087 0.0
C4615 C 0.34916 0.90746 0.15504 0.0
C4616 C 0.36514 0.92018 0.14911 0.0
C4617 C 0.31973 0.8839 0.16727 0.0
C4618 C 0.33679 0.88644 0.17687 0.0
C4619 C 0.35111 0.89901 0.17123 0.0
C4620 C 0.34061 0.87422 0.19082 0.0
C4621 C 0.30355 0.87192 0.17365 0.0
C4622 C 0.34987 0.88252 0.2088 0.0
C4623 C 0.35544 0.87078 0.22074 0.0
C4624 C 0.35195 0.85056 0.21482 0.0
C4625 C 0.3423 0.84232 0.19702 0.0
C4626 C 0.33678 0.85402 0.18513 0.0
H4627 H 0.29149 0.87731 0.17013 0.0
H4628 H 0.30153 0.85675 0.16594 0.0
H4629 H 0.30498 0.87203 0.1893 0.0
H4630 H 0.3531 0.89808 0.21343 0.0
H4631 H 0.36265 0.87753 0.23449 0.0
H4632 H 0.92439 0.57298 0.86967 0.0
H4633 H 0.9411 0.57498 0.90069 0.0
H4634 H 0.98939 0.57736 0.87283 0.0
H4635 H 0.97299 0.57539 0.84212 0.0
H4636 H 0.96135 0.54697 0.90722 0.0
H4637 H 1.00335 0.62105 0.92017 0.0
H4638 H 0.98332 0.61396 0.90403 0.0
H4639 H 1.00353 0.60769 0.89647 0.0
C4640 C 0.9386 0.57422 0.87029 0.0
C4641 C 0.9474 0.57394 0.85353 0.0
C4642 C 0.9481 0.57539 0.88795 0.0
C4643 C 0.96649 0.57664 0.88901 0.0
C4644 C 0.97528 0.57684 0.87235 0.0
H4645 H 0.05061 0.56212 0.96613 0.0
H4646 H 0.03281 0.56981 0.93996 0.0
C4647 C 0.96584 0.57551 0.85479 0.0
C4648 C 0.9764 0.5756 0.90699 0.0
H4649 H 0.01258 0.59865 0.93799 0.0
C4650 C 0.97236 0.55838 0.91418 0.0
C4651 C 0.99091 0.59042 0.91576 0.0
C4652 C 0.99547 0.6094 0.90883 0.0
C4653 C 0.98286 0.55526 0.92954 0.0
C4654 C 0.99751 0.56999 0.93819 0.0
C4655 C 1.00137 0.58739 0.93125 0.0
C4656 C 0.00886 0.56746 0.95455 0.0
C4657 C 0.97856 0.53592 0.93588 0.0
C4658 C 1.00144 0.56434 0.97155 0.0
C4659 C 0.01146 0.55974 0.98625 0.0
C4660 C 0.02918 0.55844 0.98438 0.0
C4661 C 0.03698 0.56284 0.96787 0.0
C4662 C 0.02683 0.56725 0.95297 0.0
H4663 H 0.97003 0.52464 0.92468 0.0
H4664 H 0.99082 0.53094 0.93944 0.0
H4665 H 0.9713 0.53734 0.94889 0.0
H4666 H 0.98774 0.565 0.97325 0.0
H4667 H 1.00522 0.55706 0.99904 0.0
H4668 H 0.27813 0.24048 0.56181 0.0
H4669 H 0.27979 0.25162 0.59626 0.0
H4670 H 0.31097 0.21008 0.60564 0.0
H4671 H 0.30929 0.19852 0.57081 0.0
H4672 H 0.26868 0.22518 0.62512 0.0
H4673 H 0.33845 0.26714 0.63602 0.0
H4674 H 0.32548 0.26226 0.61311 0.0
H4675 H 0.33371 0.24323 0.62151 0.0
C4676 C 0.28545 0.23366 0.57107 0.0
C4677 C 0.29363 0.21857 0.56339 0.0
C4678 C 0.28633 0.24009 0.59083 0.0
C4679 C 0.29558 0.23179 0.6035 0.0
C4680 C 0.30386 0.21677 0.59605 0.0
H4681 H 0.29568 0.23788 0.72524 0.0
H4682 H 0.29146 0.22885 0.69038 0.0
C4683 C 0.30284 0.21015 0.57616 0.0
C4684 C 0.29605 0.23869 0.62448 0.0
H4685 H 0.3227 0.26609 0.66343 0.0
C4686 C 0.28049 0.2341 0.63352 0.0
C4687 C 0.31137 0.25057 0.63532 0.0
C4688 C 0.32825 0.25626 0.6261 0.0
C4689 C 0.27994 0.24076 0.6532 0.0
C4690 C 0.29537 0.25238 0.66417 0.0
C4691 C 0.31084 0.25729 0.65503 0.0
C4692 C 0.29611 0.25827 0.68538 0.0
C4693 C 0.26283 0.23533 0.66208 0.0
C4694 C 0.30006 0.2779 0.69431 0.0
C4695 C 0.30238 0.28313 0.71441 0.0
C4696 C 0.30089 0.26876 0.72579 0.0
C4697 C 0.2966 0.24922 0.71679 0.0
C4698 C 0.29416 0.24404 0.69686 0.0
H4699 H 0.25123 0.23114 0.65115 0.0
H4700 H 0.26329 0.22282 0.66923 0.0
H4701 H 0.26087 0.24749 0.67301 0.0
H4702 H 0.30175 0.28913 0.68572 0.0
H4703 H 0.30608 0.29828 0.72099 0.0
H4704 H 0.67133 0.51532 0.20259 0.0
H4705 H 0.65898 0.51828 0.17053 0.0
H4706 H 0.60635 0.50626 0.18838 0.0
H4707 H 0.61841 0.5033 0.21984 0.0
H4708 H 0.63503 0.49588 0.13953 0.0
H4709 H 0.60385 0.55547 0.1699 0.0
H4710 H 0.61954 0.54684 0.18409 0.0
H4711 H 0.59672 0.5341 0.17978 0.0
C4712 C 0.65709 0.51277 0.19963 0.0
C4713 C 0.64612 0.50877 0.21445 0.0
C4714 C 0.6499 0.51474 0.18107 0.0
C4715 C 0.63141 0.51315 0.17644 0.0
C4716 C 0.62057 0.5083 0.19101 0.0
H4717 H 0.55894 0.52683 0.07646 0.0
H4718 H 0.57173 0.52242 0.10772 0.0
C4719 C 0.62766 0.50629 0.20929 0.0
C4720 C 0.62329 0.51656 0.15694 0.0
H4721 H 0.59527 0.54176 0.13709 0.0
C4722 C 0.62649 0.5061 0.1392 0.0
C4723 C 0.61172 0.52964 0.15558 0.0
C4724 C 0.60785 0.5423 0.17331 0.0
C4725 C 0.61849 0.5079 0.12101 0.0
C4726 C 0.60703 0.52113 0.11963 0.0
C4727 C 0.60383 0.53157 0.13739 0.0
C4728 C 0.59874 0.52455 0.10019 0.0
C4729 C 0.62192 0.49476 0.10337 0.0
C4730 C 0.60914 0.52796 0.08485 0.0
C4731 C 0.60177 0.53061 0.06692 0.0
C4732 C 0.58354 0.53037 0.06306 0.0
C4733 C 0.57302 0.52741 0.07846 0.0
C4734 C 0.58047 0.52475 0.09658 0.0
H4735 H 0.62531 0.48137 0.10696 0.0
H4736 H 0.61024 0.49056 0.09257 0.0
H4737 H 0.63336 0.50236 0.09687 0.0
H4738 H 0.62324 0.5287 0.08668 0.0
H4739 H 0.61058 0.53279 0.05581 0.0
H4740 H 0.2965 0.92044 0.96862 0.0
H4741 H 0.29552 0.90069 0.93673 0.0
H4742 H 0.31656 0.85841 0.96209 0.0
H4743 H 0.31679 0.87755 0.99387 0.0
H4744 H 0.32065 0.88978 0.91704 0.0
H4745 H 0.27505 0.82398 0.92942 0.0
H4746 H 0.27888 0.84661 0.94608 0.0
H4747 H 0.29415 0.83073 0.94652 0.0
C4748 C 0.30079 0.90686 0.96736 0.0
C4749 C 0.30659 0.90046 0.98373 0.0
C4750 C 0.30024 0.8956 0.94916 0.0
C4751 C 0.3056 0.87783 0.94703 0.0
C4752 C 0.31181 0.87172 0.96337 0.0
H4753 H 0.33532 0.82077 0.83924 0.0
H4754 H 0.33536 0.83817 0.87201 0.0
C4755 C 0.31208 0.88278 0.98155 0.0
C4756 C 0.30523 0.86597 0.92771 0.0
H4757 H 0.29099 0.82032 0.90165 0.0
C4758 C 0.31406 0.87463 0.91363 0.0
C4759 C 0.29638 0.84626 0.92315 0.0
C4760 C 0.28542 0.83642 0.93703 0.0
C4761 C 0.31454 0.86408 0.89523 0.0
C4762 C 0.30652 0.8441 0.89101 0.0
C4763 C 0.29742 0.83553 0.90499 0.0
C4764 C 0.30678 0.83203 0.87195 0.0
C4765 C 0.32324 0.87462 0.88041 0.0
C4766 C 0.2908 0.82185 0.86144 0.0
C4767 C 0.29081 0.81148 0.84298 0.0
C4768 C 0.30679 0.81112 0.83468 0.0
C4769 C 0.32282 0.82078 0.84539 0.0
C4770 C 0.32283 0.8309 0.86399 0.0
H4771 H 0.32381 0.89042 0.88404 0.0
H4772 H 0.33704 0.87258 0.87983 0.0
H4773 H 0.31606 0.86903 0.86596 0.0
H4774 H 0.27824 0.82251 0.86725 0.0
H4775 H 0.27828 0.80476 0.83486 0.0
H4776 H 0.93897 0.5713 0.74709 0.0
H4777 H 0.94999 0.56957 0.71516 0.0
H4778 H 0.96901 0.51848 0.72243 0.0
H4779 H 0.95824 0.52019 0.75404 0.0
H4780 H 0.98667 0.57201 0.71187 0.0
H4781 H 0.94738 0.50508 0.66663 0.0
H4782 H 0.93939 0.51729 0.68766 0.0
H4783 H 0.95412 0.50115 0.68994 0.0
C4784 C 0.94504 0.55941 0.74155 0.0
C4785 C 0.94793 0.54596 0.75299 0.0
C4786 C 0.95133 0.55846 0.7234 0.0
C4787 C 0.96012 0.54377 0.71641 0.0
C4788 C 0.96196 0.52969 0.72739 0.0
H4789 H 0.03589 0.50856 0.64747 0.0
H4790 H 0.0139 0.51466 0.66988 0.0
C4791 C 0.95595 0.53079 0.74552 0.0
C4792 C 0.96989 0.5445 0.69922 0.0
H4793 H 0.97773 0.51522 0.65912 0.0
C4794 C 0.98448 0.55988 0.7 0.0
C4795 C 0.96696 0.52861 0.68387 0.0
C4796 C 0.95099 0.5122 0.68186 0.0
C4797 C 0.99709 0.55904 0.68664 0.0
C4798 C 0.99479 0.5425 0.67206 0.0
C4799 C 0.97954 0.52775 0.67051 0.0
C4800 C 0.0086 0.53958 0.65905 0.0
C4801 C 0.01332 0.57521 0.68897 0.0
C4802 C 0.013 0.55176 0.6458 0.0
C4803 C 0.02567 0.54844 0.63318 0.0
C4804 C 0.03402 0.53278 0.63348 0.0
C4805 C 0.02983 0.52085 0.64705 0.0
C4806 C 0.01716 0.52419 0.6597 0.0
H4807 H 0.01459 0.58522 0.70295 0.0
H4808 H 0.0255 0.5693 0.68778 0.0
H4809 H 0.01249 0.58371 0.6774 0.0
H4810 H 1.00641 0.5636 0.64499 0.0
H4811 H 0.02878 0.558 0.62298 0.0
H4812 H 0.29681 0.17277 0.44224 0.0
H4813 H 0.29849 0.18561 0.41227 0.0
H4814 H 0.30197 0.24311 0.44399 0.0
H4815 H 0.30011 0.23045 0.4739 0.0
H4816 H 0.27426 0.21431 0.39926 0.0
H4817 H 0.34747 0.24105 0.40945 0.0
H4818 H 0.33652 0.22078 0.41951 0.0
H4819 H 0.33487 0.24484 0.4298 0.0
C4820 C 0.29782 0.18813 0.44282 0.0
C4821 C 0.29835 0.20058 0.4605 0.0
C4822 C 0.29877 0.19543 0.42569 0.0
C4823 C 0.30045 0.21532 0.42592 0.0
C4824 C 0.30075 0.22773 0.44349 0.0
H4825 H 0.32182 0.29193 0.34375 0.0
H4826 H 0.31928 0.27685 0.37205 0.0
C4827 C 0.29965 0.22044 0.46058 0.0
C4828 C 0.30217 0.22328 0.40792 0.0
H4829 H 0.33231 0.24835 0.38292 0.0
C4830 C 0.28694 0.22166 0.39557 0.0
C4831 C 0.31869 0.23303 0.40329 0.0
C4832 C 0.33541 0.23505 0.41609 0.0
C4833 C 0.28775 0.22984 0.37887 0.0
C4834 C 0.30436 0.23946 0.37406 0.0
C4835 C 0.31959 0.24096 0.38646 0.0
C4836 C 0.3062 0.24846 0.35655 0.0
C4837 C 0.27069 0.22868 0.36694 0.0
C4838 C 0.30004 0.23756 0.33821 0.0
C4839 C 0.30146 0.24625 0.32194 0.0
C4840 C 0.30941 0.26598 0.32353 0.0
C4841 C 0.31595 0.27671 0.34184 0.0
C4842 C 0.31438 0.26807 0.35812 0.0
H4843 H 0.25904 0.22616 0.37537 0.0
H4844 H 0.2709 0.24214 0.36113 0.0
H4845 H 0.26886 0.21638 0.35474 0.0
H4846 H 0.29414 0.22229 0.33643 0.0
H4847 H 0.29636 0.23745 0.30808 0.0
H4848 H 0.35777 0.64875 0.52072 0.0
H4849 H 0.38115 0.6314 0.52596 0.0
H4850 H 0.34399 0.58837 0.5473 0.0
H4851 H 0.32033 0.60554 0.5418 0.0
H4852 H 0.39522 0.62016 0.55825 0.0
H4853 H 0.36284 0.55681 0.50247 0.0
H4854 H 0.35589 0.57956 0.50523 0.0
H4855 H 0.34954 0.56323 0.52143 0.0
C4856 C 0.35456 0.63568 0.52669 0.0
C4857 C 0.33715 0.6284 0.53067 0.0
C4858 C 0.36797 0.62581 0.52971 0.0
C4859 C 0.36425 0.60844 0.53672 0.0
C4860 C 0.34706 0.60157 0.54155 0.0
H4861 H 0.44655 0.54736 0.56626 0.0
H4862 H 0.42282 0.5654 0.56812 0.0
C4863 C 0.33359 0.61145 0.5385 0.0
C4864 C 0.37824 0.5972 0.538 0.0
H4865 H 0.38968 0.55504 0.51864 0.0
C4866 C 0.39399 0.60586 0.54971 0.0
C4867 C 0.37667 0.57868 0.52661 0.0
C4868 C 0.36041 0.56903 0.51309 0.0
C4869 C 0.40828 0.59654 0.55021 0.0
C4870 C 0.40666 0.57797 0.5389 0.0
C4871 C 0.39084 0.56924 0.52736 0.0
C4872 C 0.42143 0.56761 0.53812 0.0
C4873 C 0.4252 0.60691 0.56233 0.0
C4874 C 0.42836 0.56265 0.5206 0.0
C4875 C 0.44174 0.55215 0.51943 0.0
C4876 C 0.44843 0.54631 0.53577 0.0
C4877 C 0.44158 0.55149 0.55337 0.0
C4878 C 0.42816 0.56198 0.55451 0.0
H4879 H 0.42574 0.62265 0.56654 0.0
H4880 H 0.42603 0.60081 0.57561 0.0
H4881 H 0.43695 0.60493 0.55458 0.0
H4882 H 0.42329 0.56677 0.50775 0.0
H4883 H 0.44651 0.54816 0.5056 0.0
H4884 H 0.87864 0.89526 0.53112 0.0
H4885 H 0.90753 0.91709 0.53338 0.0
H4886 H 0.88297 0.96621 0.54367 0.0
H4887 H 0.8538 0.94439 0.54135 0.0
H4888 H 0.90734 0.96825 0.5155 0.0
H4889 H 0.93711 0.95095 0.58138 0.0
H4890 H 0.92767 0.92997 0.56352 0.0
H4891 H 0.91353 0.94481 0.57457 0.0
C4892 C 0.87929 0.9107 0.534 0.0
C4893 C 0.86378 0.918 0.5361 0.0
C4894 C 0.89591 0.92319 0.53541 0.0
C4895 C 0.8975 0.94332 0.53898 0.0
C4896 C 0.88209 0.95073 0.54105 0.0
H4897 H 1.00087 0.0253 0.56205 0.0
H4898 H 0.97056 1.00804 0.56457 0.0
C4899 C 0.86541 0.93821 0.53975 0.0
C4900 C 0.9152 0.95645 0.53971 0.0
H4901 H 0.95713 0.96787 0.56242 0.0
C4902 C 0.91817 0.96831 0.52588 0.0
C4903 C 0.92933 0.95673 0.55338 0.0
C4904 C 0.92676 0.94508 0.56918 0.0
C4905 C 0.93501 0.97982 0.52489 0.0
C4906 C 0.94934 0.97934 0.53795 0.0
C4907 C 0.94621 0.96809 0.55227 0.0
C4908 C 0.96776 0.98989 0.53654 0.0
C4909 C 0.93732 0.99239 0.50981 0.0
C4910 C 0.97644 0.98521 0.52014 0.0
C4911 C 0.9937 0.99507 0.51864 0.0
C4912 C 1.00276 0.00991 0.53353 0.0
C4913 C 0.99419 0.01428 0.55015 0.0
C4914 C 0.97689 1.00433 0.55166 0.0
H4915 H 0.92448 0.99523 0.50456 0.0
H4916 H 0.94659 1.00645 0.51545 0.0
H4917 H 0.94292 0.98491 0.49742 0.0
H4918 H 0.96984 0.97384 0.50846 0.0
H4919 H 0.99986 0.99114 0.50569 0.0
H4920 H 0.88301 0.1005 0.26804 0.0
H4921 H 0.86776 0.12732 0.26728 0.0
H4922 H 0.91634 0.16803 0.28915 0.0
H4923 H 0.93165 0.14123 0.28955 0.0
H4924 H 0.85781 0.15473 0.29002 0.0
H4925 H 0.90495 0.19617 0.2491 0.0
H4926 H 0.90633 0.17216 0.25241 0.0
H4927 H 0.91559 0.1928 0.27093 0.0
C4928 C 0.89065 0.11513 0.27258 0.0
C4929 C 0.90898 0.11806 0.27867 0.0
C4930 C 0.88172 0.1308 0.27221 0.0
C4931 C 0.89048 0.15057 0.27773 0.0
C4932 C 0.90878 0.15347 0.28409 0.0
H4933 H 0.82797 0.24784 0.30008 0.0
H4934 H 0.84267 0.22083 0.30338 0.0
C4935 C 0.91772 0.13779 0.28449 0.0
C4936 C 0.88055 0.16769 0.27701 0.0
H4937 H 0.88341 0.21211 0.26273 0.0
C4938 C 0.86362 0.16721 0.28402 0.0
C4939 C 0.88724 0.18447 0.269 0.0
C4940 C 0.90441 0.18642 0.25975 0.0
C4941 C 0.85385 0.18232 0.28354 0.0
C4942 C 0.86081 0.19935 0.27604 0.0
C4943 C 0.8776 0.19968 0.26881 0.0
C4944 C 0.8508 0.21626 0.2745 0.0
C4945 C 0.83566 0.17937 0.29054 0.0
C4946 C 0.85007 0.22397 0.25746 0.0
C4947 C 0.84157 0.23958 0.25562 0.0
C4948 C 0.83309 0.2488 0.27061 0.0
C4949 C 0.83378 0.24129 0.28784 0.0
C4950 C 0.84233 0.22547 0.2897 0.0
H4951 H 0.83005 0.16387 0.29057 0.0
H4952 H 0.83652 0.18737 0.30546 0.0
H4953 H 0.8264 0.18487 0.28149 0.0
H4954 H 0.85615 0.21785 0.24523 0.0
H4955 H 0.84179 0.24462 0.24209 0.0
H4956 H 0.73013 0.16022 0.99173 0.0
H4957 H 0.69981 0.14483 0.99577 0.0
H4958 H 0.71906 0.10341 0.02409 0.0
H4959 H 0.74961 0.1188 0.02024 0.0
H4960 H 0.6818 0.10565 0.98269 0.0
H4961 H 0.68668 0.12691 0.06209 0.0
H4962 H 0.70264 0.13834 0.04768 0.0
H4963 H 0.70319 0.11465 0.05232 0.0
C4964 C 0.728 0.14782 0.9988 0.0
C4965 C 0.74239 0.14084 0.00574 0.0
C4966 C 0.71062 0.13904 1.00109 0.0
C4967 C 0.7072 0.12317 0.01047 0.0
C4968 C 0.72144 0.11585 0.01709 0.0
H4969 H 0.60019 0.05326 0.00752 0.0
H4970 H 0.63234 0.06306 0.00808 0.0
C4971 C 0.73889 0.12459 0.01473 0.0
C4972 C 0.68864 0.11435 0.01309 0.0
H4973 H 0.6592 0.10852 0.04685 0.0
C4974 C 0.67688 0.10613 0.99671 0.0
C4975 C 0.68226 0.11516 0.03141 0.0
C4976 C 0.69426 0.12435 0.04943 0.0
C4977 C 0.65884 0.09891 0.99813 0.0
C4978 C 0.65243 0.09977 0.01644 0.0
C4979 C 0.66421 0.10779 0.03286 0.0
C4980 C 0.63333 0.09336 0.0186 0.0
C4981 C 0.64664 0.09097 0.98 0.0
C4982 C 0.62331 0.10705 0.02499 0.0
C4983 C 0.60491 0.10144 0.02484 0.0
C4984 C 0.59629 0.08201 0.01861 0.0
C4985 C 0.60644 0.06825 0.01279 0.0
C4986 C 0.62482 0.07385 0.01294 0.0
H4987 H 0.65302 0.09462 0.96709 0.0
H4988 H 0.64285 0.07497 0.97824 0.0
H4989 H 0.63433 0.09665 0.98079 0.0
H4990 H 0.62965 0.12219 0.02937 0.0
H4991 H 0.59735 0.11233 0.02921 0.0
H4992 H 0.20438 0.47523 0.25631 0.0
H4993 H 0.22489 0.45377 0.24951 0.0
H4994 H 0.256 0.49487 0.2202 0.0
H4995 H 0.23566 0.51671 0.22733 0.0
H4996 H 0.23753 0.43629 0.21627 0.0
H4997 H 0.29083 0.49028 0.26375 0.0
H4998 H 0.26802 0.49247 0.2628 0.0
H4999 H 0.28128 0.49837 0.24382 0.0
C5000 C 0.21546 0.47964 0.24823 0.0
C5001 C 0.21857 0.49779 0.24261 0.0
C5002 C 0.22713 0.46731 0.24427 0.0
C5003 C 0.2421 0.47287 0.23462 0.0
C5004 C 0.24468 0.49047 0.22797 0.0
H5005 H 0.31524 0.39203 0.21867 0.0
H5006 H 0.29586 0.41324 0.21035 0.0
C5007 C 0.23303 0.5029 0.23201 0.0
C5008 C 0.25563 0.46091 0.2332 0.0
H5009 H 0.29702 0.46017 0.25184 0.0
C5010 C 0.25065 0.44154 0.22377 0.0
C5011 C 0.27269 0.46784 0.24312 0.0
C5012 C 0.27857 0.48832 0.25408 0.0
C5013 C 0.26202 0.42868 0.22473 0.0
C5014 C 0.27882 0.43549 0.2352 0.0
C5015 C 0.28412 0.45506 0.24379 0.0
C5016 C 0.29022 0.42224 0.23957 0.0
C5017 C 0.25567 0.40772 0.2154 0.0
C5018 C 0.29351 0.42042 0.25869 0.0
C5019 C 0.3046 0.40854 0.26346 0.0
C5020 C 0.31266 0.39823 0.24919 0.0
C5021 C 0.3093 0.39995 0.22997 0.0
C5022 C 0.29813 0.4119 0.22519 0.0
H5023 H 0.2413 0.40416 0.21052 0.0
H5024 H 0.26308 0.4046 0.20276 0.0
H5025 H 0.25821 0.39809 0.22546 0.0
H5026 H 0.28754 0.42831 0.27 0.0
H5027 H 0.30713 0.40774 0.27841 0.0
H5028 H 0.2493 0.40153 0.02916 0.0
H5029 H 0.22532 0.41907 0.02824 0.0
H5030 H 0.26234 0.47272 0.0508 0.0
H5031 H 0.28639 0.45523 0.05202 0.0
H5032 H 0.23023 0.46964 0.06748 0.0
H5033 H 0.21824 0.452 0.98816 0.0
H5034 H 0.21679 0.43131 0.99956 0.0
H5035 H 0.23765 0.44814 1.00089 0.0
C5036 C 0.25234 0.41705 0.03408 0.0
C5037 C 0.26982 0.42697 0.04057 0.0
C5038 C 0.23861 0.42709 0.0334 0.0
C5039 C 0.24204 0.4473 0.03907 0.0
C5040 C 0.25936 0.45716 0.04622 0.0
H5041 H 0.18542 0.53982 0.03907 0.0
H5042 H 0.20633 0.51942 0.04407 0.0
C5043 C 0.27311 0.44712 0.04693 0.0
C5044 C 0.22769 0.45821 0.03724 0.0
H5045 H 0.19854 0.46864 1.00461 0.0
C5046 C 0.22331 0.46942 0.05373 0.0
C5047 C 0.21857 0.45791 0.01931 0.0
C5048 C 0.22311 0.44685 1.00093 0.0
C5049 C 0.21005 0.48019 0.0528 0.0
C5050 C 0.2011 0.48009 0.03484 0.0
C5051 C 0.20532 0.46869 0.01839 0.0
C5052 C 0.18794 0.49239 0.03262 0.0
C5053 C 0.2056 0.49139 0.07114 0.0
C5054 C 0.17061 0.48411 0.02422 0.0
C5055 C 0.15859 0.49582 0.02115 0.0
C5056 C 0.16372 0.51611 0.02619 0.0
C5057 C 0.18103 0.52429 0.03482 0.0
C5058 C 0.19297 0.5126 0.03791 0.0
H5059 H 0.20947 0.48542 0.0838 0.0
H5060 H 0.21298 0.50664 0.07309 0.0
H5061 H 0.19122 0.49129 0.07075 0.0
H5062 H 0.16642 0.46856 0.01987 0.0
H5063 H 0.14547 0.48902 0.0143 0.0
H5064 H 0.93378 0.99178 0.28177 0.0
H5065 H 0.91425 0.96057 0.28108 0.0
H5066 H 0.86886 0.98621 0.27621 0.0
H5067 H 0.88863 0.01788 0.27651 0.0
H5068 H 0.89238 0.94663 0.30388 0.0
H5069 H 0.85135 0.93954 0.23573 0.0
H5070 H 0.87103 0.95835 0.2428 0.0
H5071 H 0.85058 0.9607 0.25287 0.0
C5072 C 0.91964 0.99103 0.2804 0.0
C5073 C 0.9131 1.0079 0.27911 0.0
C5074 C 0.90832 0.97285 0.28006 0.0
C5075 C 0.88973 0.97032 0.27833 0.0
C5076 C 0.88301 0.98713 0.27706 0.0
H5077 H 0.80575 0.86253 0.27678 0.0
H5078 H 0.82151 0.89616 0.2775 0.0
C5079 C 0.89444 1.00551 0.27738 0.0
C5080 C 0.87792 0.9503 0.27851 0.0
H5081 H 0.84324 0.91494 0.25395 0.0
C5082 C 0.88168 0.93984 0.29284 0.0
C5083 C 0.86364 0.94087 0.26437 0.0
C5084 C 0.85895 0.95031 0.24796 0.0
C5085 C 0.87195 0.9209 0.29348 0.0
C5086 C 0.85794 0.9113 0.27915 0.0
C5087 C 0.85387 0.92185 0.26502 0.0
C5088 C 0.84789 0.89032 0.27837 0.0
C5089 C 0.87668 0.91152 0.30995 0.0
C5090 C 0.857 0.87513 0.27827 0.0
C5091 C 0.84796 0.85581 0.27787 0.0
C5092 C 0.82928 0.85055 0.27743 0.0
C5093 C 0.82007 0.86568 0.27724 0.0
C5094 C 0.82917 0.88511 0.27759 0.0
H5095 H 0.88319 0.92248 0.3226 0.0
H5096 H 0.86479 0.90237 0.31433 0.0
H5097 H 0.88615 0.90224 0.30551 0.0
H5098 H 0.87128 0.87814 0.27834 0.0
H5099 H 0.8558 0.84491 0.27789 0.0
H5100 H 0.6839 0.11704 0.74773 0.0
H5101 H 0.70586 0.14737 0.7527 0.0
H5102 H 0.74779 0.11655 0.75777 0.0
H5103 H 0.72586 0.08593 0.75286 0.0
H5104 H 0.74976 0.15004 0.7871 0.0
H5105 H 0.74064 0.16601 0.71411 0.0
H5106 H 0.72015 0.15992 0.72461 0.0
H5107 H 0.73341 0.1421 0.71952 0.0
C5108 C 0.69777 0.11661 0.74983 0.0
C5109 C 0.70311 0.099 0.74979 0.0
C5110 C 0.71031 0.13397 0.75256 0.0
C5111 C 0.72842 0.1341 0.75526 0.0
C5112 C 0.73385 0.11666 0.75552 0.0
H5113 H 0.81009 0.24226 0.78949 0.0
H5114 H 0.79702 0.20742 0.78065 0.0
C5115 C 0.7213 0.09922 0.7527 0.0
C5116 C 0.74146 0.15269 0.75846 0.0
H5117 H 0.75427 0.19282 0.7388 0.0
C5118 C 0.75107 0.15932 0.77647 0.0
C5119 C 0.74321 0.16458 0.74445 0.0
C5120 C 0.73394 0.15774 0.72451 0.0
C5121 C 0.76144 0.17819 0.78134 0.0
C5122 C 0.76232 0.19052 0.76766 0.0
C5123 C 0.75351 0.1834 0.74929 0.0
C5124 C 0.77076 0.21134 0.77257 0.0
C5125 C 0.77052 0.18503 0.80136 0.0
C5126 C 0.76044 0.22502 0.77062 0.0
C5127 C 0.76798 0.24472 0.77514 0.0
C5128 C 0.786 0.25104 0.78142 0.0
C5129 C 0.79625 0.23751 0.78407 0.0
C5130 C 0.78878 0.21771 0.77922 0.0
H5131 H 0.76489 0.17561 0.81139 0.0
H5132 H 0.78478 0.18473 0.80105 0.0
H5133 H 0.76949 0.20009 0.80703 0.0
H5134 H 0.74646 0.22043 0.76577 0.0
H5135 H 0.75971 0.25505 0.77391 0.0
loop_
_geom_bond_atom_site_label_1
_geom_bond_atom_site_label_2
_geom_bond_distance
_geom_bond_site_symmetry_2
_ccdc_geom_bond_type
Co0 O1 2.216 . S
Co0 O2 2.091 . S
Co0 O4 2.004 . S
Co0 O10 2.021 . S
Co0 O12 2.137 . S
Co0 O13 2.244 . S
O1 Co0 2.216 . S
O1 C8 1.247 . S
O2 Co0 2.091 . S
O2 C8 1.261 . S
C3 O12 1.247 . S
C3 O13 1.272 . S
O4 Co0 2.004 . S
O4 C9 1.259 . S
Co5 O6 2.061 . S
Co5 O11 2.052 . S
Co5 O13 2.135 . S
O6 Co5 2.061 . S
O6 C9 1.235 . S
C7 O10 1.238 . S
C7 O11 1.241 . S
C8 O1 1.247 . S
C8 O2 1.261 . S
C9 O4 1.259 . S
C9 O6 1.235 . S
O10 Co0 2.021 . S
O10 C7 1.238 . S
O11 Co5 2.052 . S
O11 C7 1.241 . S
O12 Co0 2.137 . S
O12 C3 1.247 . S
O13 Co0 2.244 . S
O13 C3 1.272 . S
O13 Co5 2.135 . S
Co14 O15 2.216 . S
Co14 O16 2.091 . S
Co14 O18 2.004 1_655 S
Co14 O24 2.021 . S
Co14 O26 2.137 . S
Co14 O27 2.244 1_655 S
O15 Co14 2.216 . S
O15 C22 1.247 . S
O16 Co14 2.091 . S
O16 C22 1.261 . S
C17 O26 1.247 1_455 S
C17 O27 1.272 . S
O18 Co14 2.004 1_455 S
O18 C23 1.259 . S
Co19 O20 2.061 . S
Co19 O25 2.052 . S
Co19 O27 2.135 . S
O20 Co19 2.061 . S
O20 C23 1.235 . S
C21 O24 1.261 . S
C21 O25 1.214 1_655 S
C22 O15 1.247 . S
C22 O16 1.261 . S
C23 O18 1.259 . S
C23 O20 1.235 . S
O24 Co14 2.021 . S
O24 C21 1.261 . S
O25 Co19 2.052 . S
O25 C21 1.214 1_455 S
O26 Co14 2.137 . S
O26 C17 1.247 1_655 S
O27 Co14 2.244 1_455 S
O27 C17 1.272 . S
O27 Co19 2.135 . S
Co28 O29 2.216 . S
Co28 O30 2.091 . S
Co28 O32 2.004 . S
Co28 O38 2.021 . S
Co28 O40 2.137 . S
Co28 O41 2.244 . S
O29 Co28 2.216 . S
O29 C36 1.247 . S
O30 Co28 2.091 . S
O30 C36 1.261 . S
C31 O40 1.247 . S
C31 O41 1.272 . S
O32 Co28 2.004 . S
O32 C37 1.259 . S
Co33 O34 2.061 . S
Co33 O39 2.052 . S
Co33 O41 2.135 . S
O34 Co33 2.061 . S
O34 C37 1.235 . S
C35 O38 1.238 . S
C35 O39 1.241 . S
C36 O29 1.247 . S
C36 O30 1.261 . S
C37 O32 1.259 . S
C37 O34 1.235 . S
O38 Co28 2.021 . S
O38 C35 1.238 . S
O39 Co33 2.052 . S
O39 C35 1.241 . S
O40 Co28 2.137 . S
O40 C31 1.247 . S
O41 Co28 2.244 . S
O41 C31 1.272 . S
O41 Co33 2.135 . S
Co42 O43 2.216 . S
Co42 O44 2.091 . S
Co42 O46 2.004 . S
Co42 O52 2.021 . S
Co42 O54 2.137 . S
Co42 O55 2.244 . S
O43 Co42 2.216 . S
O43 C50 1.247 . S
O44 Co42 2.091 . S
O44 C50 1.261 . S
C45 O54 1.247 . S
C45 O55 1.272 . S
O46 Co42 2.004 . S
O46 C51 1.259 . S
Co47 O48 2.061 . S
Co47 O53 2.052 . S
Co47 O55 2.135 . S
O48 Co47 2.061 . S
O48 C51 1.235 . S
C49 O52 1.238 . S
C49 O53 1.241 . S
C50 O43 1.247 . S
C50 O44 1.261 . S
C51 O46 1.259 . S
C51 O48 1.235 . S
O52 Co42 2.021 . S
O52 C49 1.238 . S
O53 Co47 2.052 . S
O53 C49 1.241 . S
O54 Co42 2.137 . S
O54 C45 1.247 . S
O55 Co42 2.244 . S
O55 C45 1.272 . S
O55 Co47 2.135 . S
Co56 O57 2.216 . S
Co56 O58 2.091 . S
Co56 O60 2.004 . S
Co56 O66 2.021 . S
Co56 O68 2.137 . S
Co56 O69 2.244 . S
O57 Co56 2.216 . S
O57 C64 1.247 . S
O58 Co56 2.091 . S
O58 C64 1.261 . S
C59 O68 1.247 . S
C59 O69 1.272 . S
O60 Co56 2.004 . S
O60 C65 1.259 . S
Co61 O62 2.061 . S
Co61 O67 2.052 . S
Co61 O69 2.135 . S
O62 Co61 2.061 . S
O62 C65 1.235 . S
C63 O66 1.238 . S
C63 O67 1.241 . S
C64 O57 1.247 . S
C64 O58 1.261 . S
C65 O60 1.259 . S
C65 O62 1.235 . S
O66 Co56 2.021 . S
O66 C63 1.238 . S
O67 Co61 2.052 . S
O67 C63 1.241 . S
O68 Co56 2.137 . S
O68 C59 1.247 . S
O69 Co56 2.244 . S
O69 C59 1.272 . S
O69 Co61 2.135 . S
Co70 O71 2.216 . S
Co70 O72 2.091 . S
Co70 O74 2.004 . S
Co70 O80 2.021 . S
Co70 O82 2.137 . S
Co70 O83 2.244 . S
O71 Co70 2.216 . S
O71 C78 1.247 . S
O72 Co70 2.091 . S
O72 C78 1.261 . S
C73 O82 1.247 . S
C73 O83 1.272 . S
O74 Co70 2.004 . S
O74 C79 1.259 . S
Co75 O76 2.061 . S
Co75 O81 2.052 . S
Co75 O83 2.135 . S
O76 Co75 2.061 . S
O76 C79 1.235 . S
C77 O80 1.238 . S
C77 O81 1.241 . S
C78 O71 1.247 . S
C78 O72 1.261 . S
C79 O74 1.259 . S
C79 O76 1.235 . S
O80 Co70 2.021 . S
O80 C77 1.238 . S
O81 Co75 2.052 . S
O81 C77 1.241 . S
O82 Co70 2.137 . S
O82 C73 1.247 . S
O83 Co70 2.244 . S
O83 C73 1.272 . S
O83 Co75 2.135 . S
Co84 O85 2.216 . S
Co84 O86 2.091 . S
Co84 O88 2.004 . S
Co84 O94 2.021 . S
Co84 O96 2.137 . S
Co84 O97 2.244 . S
O85 Co84 2.216 . S
O85 C92 1.247 . S
O86 Co84 2.091 . S
O86 C92 1.261 . S
C87 O96 1.247 . S
C87 O97 1.272 . S
O88 Co84 2.004 . S
O88 C93 1.259 . S
Co89 O90 2.061 . S
Co89 O95 2.052 . S
Co89 O97 2.135 . S
O90 Co89 2.061 . S
O90 C93 1.235 . S
C91 O94 1.238 . S
C91 O95 1.241 . S
C92 O85 1.247 . S
C92 O86 1.261 . S
C93 O88 1.259 . S
C93 O90 1.235 . S
O94 Co84 2.021 . S
O94 C91 1.238 . S
O95 Co89 2.052 . S
O95 C91 1.241 . S
O96 Co84 2.137 . S
O96 C87 1.247 . S
O97 Co84 2.244 . S
O97 C87 1.272 . S
O97 Co89 2.135 . S
Co98 O99 2.216 . S
Co98 O100 2.091 . S
Co98 O102 2.004 1_455 S
Co98 O108 2.021 . S
Co98 O110 2.137 . S
Co98 O111 2.244 . S
O99 Co98 2.216 . S
O99 C106 1.247 . S
O100 Co98 2.091 . S
O100 C106 1.261 . S
C101 O110 1.247 . S
C101 O111 1.272 . S
O102 Co98 2.004 1_655 S
O102 C107 1.259 . S
Co103 O104 2.061 . S
Co103 O109 2.052 1_655 S
Co103 O111 2.135 1_655 S
O104 Co103 2.061 . S
O104 C107 1.235 . S
C105 O108 1.238 . S
C105 O109 1.241 . S
C106 O99 1.247 . S
C106 O100 1.261 . S
C107 O102 1.259 . S
C107 O104 1.235 . S
O108 Co98 2.021 . S
O108 C105 1.238 . S
O109 Co103 2.052 1_455 S
O109 C105 1.241 . S
O110 Co98 2.137 . S
O110 C101 1.247 . S
O111 Co98 2.244 . S
O111 C101 1.272 . S
O111 Co103 2.135 1_455 S
Co112 O113 2.216 . S
Co112 O114 2.091 . S
Co112 O116 2.004 . S
Co112 O122 2.021 . S
Co112 O124 2.137 . S
Co112 O125 2.244 . S
O113 Co112 2.216 . S
O113 C120 1.247 . S
O114 Co112 2.091 . S
O114 C120 1.261 . S
C115 O124 1.247 . S
C115 O125 1.272 . S
O116 Co112 2.004 . S
O116 C121 1.259 1_545 S
Co117 O118 2.061 1_545 S
Co117 O123 2.052 . S
Co117 O125 2.135 . S
O118 Co117 2.061 1_565 S
O118 C121 1.235 . S
C119 O122 1.238 . S
C119 O123 1.241 . S
C120 O113 1.247 . S
C120 O114 1.261 . S
C121 O116 1.259 1_565 S
C121 O118 1.235 . S
O122 Co112 2.021 . S
O122 C119 1.238 . S
O123 Co117 2.052 . S
O123 C119 1.241 . S
O124 Co112 2.137 . S
O124 C115 1.247 . S
O125 Co112 2.244 . S
O125 C115 1.272 . S
O125 Co117 2.135 . S
Co126 O127 2.216 . S
Co126 O128 2.091 . S
Co126 O130 2.004 . S
Co126 O136 2.021 . S
Co126 O138 2.137 . S
Co126 O139 2.244 . S
O127 Co126 2.216 . S
O127 C134 1.247 . S
O128 Co126 2.091 . S
O128 C134 1.261 . S
C129 O138 1.247 . S
C129 O139 1.272 . S
O130 Co126 2.004 . S
O130 C135 1.259 . S
Co131 O132 2.061 . S
Co131 O137 2.052 . S
Co131 O139 2.135 . S
O132 Co131 2.061 . S
O132 C135 1.235 . S
C133 O136 1.238 . S
C133 O137 1.241 . S
C134 O127 1.247 . S
C134 O128 1.261 . S
C135 O130 1.259 . S
C135 O132 1.235 . S
O136 Co126 2.021 . S
O136 C133 1.238 . S
O137 Co131 2.052 . S
O137 C133 1.241 . S
O138 Co126 2.137 . S
O138 C129 1.247 . S
O139 Co126 2.244 . S
O139 C129 1.272 . S
O139 Co131 2.135 . S
Co140 O141 2.216 . S
Co140 O142 2.091 . S
Co140 O144 2.004 1_565 S
Co140 O150 2.021 . S
Co140 O152 2.137 . S
Co140 O153 2.244 1_565 S
O141 Co140 2.216 . S
O141 C148 1.247 . S
O142 Co140 2.091 . S
O142 C148 1.261 . S
C143 O152 1.247 1_545 S
C143 O153 1.272 . S
O144 Co140 2.004 1_545 S
O144 C149 1.259 . S
Co145 O146 2.061 . S
Co145 O151 2.052 . S
Co145 O153 2.135 . S
O146 Co145 2.061 . S
O146 C149 1.235 . S
C147 O150 1.238 . S
C147 O151 1.241 1_565 S
C148 O141 1.247 . S
C148 O142 1.261 . S
C149 O144 1.259 . S
C149 O146 1.235 . S
O150 Co140 2.021 . S
O150 C147 1.238 . S
O151 Co145 2.052 . S
O151 C147 1.241 1_545 S
O152 Co140 2.137 . S
O152 C143 1.247 1_565 S
O153 Co140 2.244 1_545 S
O153 C143 1.272 . S
O153 Co145 2.135 . S
Co154 O155 2.216 . S
Co154 O156 2.091 . S
Co154 O158 2.004 . S
Co154 O164 2.021 . S
Co154 O166 2.137 1_554 S
Co154 O167 2.244 1_554 S
O155 Co154 2.216 . S
O155 C162 1.247 . S
O156 Co154 2.091 . S
O156 C162 1.261 . S
C157 O166 1.247 . S
C157 O167 1.272 . S
O158 Co154 2.004 . S
O158 C163 1.259 . S
Co159 O160 2.061 . S
Co159 O165 2.052 . S
Co159 O167 2.135 1_554 S
O160 Co159 2.061 . S
O160 C163 1.235 . S
C161 O164 1.238 . S
C161 O165 1.241 . S
C162 O155 1.247 . S
C162 O156 1.261 . S
C163 O158 1.259 . S
C163 O160 1.235 . S
O164 Co154 2.021 . S
O164 C161 1.238 . S
O165 Co159 2.052 . S
O165 C161 1.241 . S
O166 Co154 2.137 1_556 S
O166 C157 1.247 . S
O167 Co154 2.244 1_556 S
O167 C157 1.272 . S
O167 Co159 2.135 1_556 S
Co168 O169 2.216 . S
Co168 O170 2.091 . S
Co168 O172 2.004 . S
Co168 O178 2.021 . S
Co168 O180 2.137 . S
Co168 O181 2.244 . S
O169 Co168 2.216 . S
O169 C176 1.247 . S
O170 Co168 2.091 . S
O170 C176 1.261 . S
C171 O180 1.247 . S
C171 O181 1.272 . S
O172 Co168 2.004 . S
O172 C177 1.259 . S
Co173 O174 2.061 . S
Co173 O179 2.052 . S
Co173 O181 2.135 . S
O174 Co173 2.061 . S
O174 C177 1.235 . S
C175 O178 1.238 . S
C175 O179 1.241 . S
C176 O169 1.247 . S
C176 O170 1.261 . S
C177 O172 1.259 . S
C177 O174 1.235 . S
O178 Co168 2.021 . S
O178 C175 1.238 . S
O179 Co173 2.052 . S
O179 C175 1.241 . S
O180 Co168 2.137 . S
O180 C171 1.247 . S
O181 Co168 2.244 . S
O181 C171 1.272 . S
O181 Co173 2.135 . S
Co182 O183 2.216 . S
Co182 O184 2.091 . S
Co182 O186 2.004 . S
Co182 O192 2.021 . S
Co182 O194 2.137 1_554 S
Co182 O195 2.244 . S
O183 Co182 2.216 . S
O183 C190 1.247 . S
O184 Co182 2.091 . S
O184 C190 1.261 . S
C185 O194 1.247 . S
C185 O195 1.272 1_556 S
O186 Co182 2.004 . S
O186 C191 1.259 . S
Co187 O188 2.061 . S
Co187 O193 2.052 . S
Co187 O195 2.135 . S
O188 Co187 2.061 . S
O188 C191 1.235 . S
C189 O192 1.238 . S
C189 O193 1.241 . S
C190 O183 1.247 . S
C190 O184 1.261 . S
C191 O186 1.259 . S
C191 O188 1.235 . S
O192 Co182 2.021 . S
O192 C189 1.238 . S
O193 Co187 2.052 . S
O193 C189 1.241 . S
O194 Co182 2.137 1_556 S
O194 C185 1.247 . S
O195 Co182 2.244 . S
O195 C185 1.272 1_554 S
O195 Co187 2.135 . S
Co196 O197 2.216 . S
Co196 O198 2.091 . S
Co196 O200 2.004 . S
Co196 O206 2.021 . S
Co196 O208 2.137 . S
Co196 O209 2.244 . S
O197 Co196 2.216 . S
O197 C204 1.247 . S
O198 Co196 2.091 . S
O198 C204 1.261 . S
C199 O208 1.247 . S
C199 O209 1.272 . S
O200 Co196 2.004 . S
O200 C205 1.259 . S
Co201 O202 2.061 . S
Co201 O207 2.052 . S
Co201 O209 2.135 . S
O202 Co201 2.061 . S
O202 C205 1.235 . S
C203 O206 1.238 . S
C203 O207 1.241 . S
C204 O197 1.247 . S
C204 O198 1.261 . S
C205 O200 1.259 . S
C205 O202 1.235 . S
O206 Co196 2.021 . S
O206 C203 1.238 . S
O207 Co201 2.052 . S
O207 C203 1.241 . S
O208 Co196 2.137 . S
O208 C199 1.247 . S
O209 Co196 2.244 . S
O209 C199 1.272 . S
O209 Co201 2.135 . S
Co210 O211 2.216 . S
Co210 O212 2.091 . S
Co210 O214 2.004 . S
Co210 O220 2.021 . S
Co210 O222 2.137 . S
Co210 O223 2.244 . S
O211 Co210 2.216 . S
O211 C218 1.247 . S
O212 Co210 2.091 . S
O212 C218 1.261 . S
C213 O222 1.247 . S
C213 O223 1.272 . S
O214 Co210 2.004 . S
O214 C219 1.259 . S
Co215 O216 2.061 . S
Co215 O221 2.052 . S
Co215 O223 2.135 . S
O216 Co215 2.061 . S
O216 C219 1.235 . S
C217 O220 1.238 . S
C217 O221 1.241 . S
C218 O211 1.247 . S
C218 O212 1.261 . S
C219 O214 1.259 . S
C219 O216 1.235 . S
O220 Co210 2.021 . S
O220 C217 1.238 . S
O221 Co215 2.052 . S
O221 C217 1.241 . S
O222 Co210 2.137 . S
O222 C213 1.247 . S
O223 Co210 2.244 . S
O223 C213 1.272 . S
O223 Co215 2.135 . S
Co224 O225 2.216 . S
Co224 O226 2.091 . S
Co224 O228 2.004 . S
Co224 O234 2.021 . S
Co224 O236 2.137 . S
Co224 O237 2.244 . S
O225 Co224 2.216 . S
O225 C232 1.247 . S
O226 Co224 2.091 . S
O226 C232 1.261 . S
C227 O236 1.247 . S
C227 O237 1.272 . S
O228 Co224 2.004 . S
O228 C233 1.259 . S
Co229 O230 2.061 . S
Co229 O235 2.052 . S
Co229 O237 2.135 . S
O230 Co229 2.061 . S
O230 C233 1.235 . S
C231 O234 1.238 . S
C231 O235 1.241 . S
C232 O225 1.247 . S
C232 O226 1.261 . S
C233 O228 1.259 . S
C233 O230 1.235 . S
O234 Co224 2.021 . S
O234 C231 1.238 . S
O235 Co229 2.052 . S
O235 C231 1.241 . S
O236 Co224 2.137 . S
O236 C227 1.247 . S
O237 Co224 2.244 . S
O237 C227 1.272 . S
O237 Co229 2.135 . S
Co238 O239 2.216 . S
Co238 O240 2.091 . S
Co238 O242 2.004 . S
Co238 O248 2.021 . S
Co238 O250 2.137 . S
Co238 O251 2.244 . S
O239 Co238 2.216 . S
O239 C246 1.247 . S
O240 Co238 2.091 . S
O240 C246 1.261 . S
C241 O250 1.247 . S
C241 O251 1.272 . S
O242 Co238 2.004 . S
O242 C247 1.259 . S
Co243 O244 2.061 . S
Co243 O249 2.052 . S
Co243 O251 2.135 . S
O244 Co243 2.061 . S
O244 C247 1.235 . S
C245 O248 1.238 . S
C245 O249 1.241 . S
C246 O239 1.247 . S
C246 O240 1.261 . S
C247 O242 1.259 . S
C247 O244 1.235 . S
O248 Co238 2.021 . S
O248 C245 1.238 . S
O249 Co243 2.052 . S
O249 C245 1.241 . S
O250 Co238 2.137 . S
O250 C241 1.247 . S
O251 Co238 2.244 . S
O251 C241 1.272 . S
O251 Co243 2.135 . S
Co252 O253 2.216 . S
Co252 O254 2.091 . S
Co252 O256 2.004 . S
Co252 O262 2.021 . S
Co252 O264 2.137 . S
Co252 O265 2.244 . S
O253 Co252 2.216 . S
O253 C260 1.247 . S
O254 Co252 2.091 . S
O254 C260 1.261 . S
C255 O264 1.247 . S
C255 O265 1.272 . S
O256 Co252 2.004 . S
O256 C261 1.259 . S
Co257 O258 2.061 . S
Co257 O263 2.052 . S
Co257 O265 2.135 . S
O258 Co257 2.061 . S
O258 C261 1.235 . S
C259 O262 1.238 . S
C259 O263 1.241 . S
C260 O253 1.247 . S
C260 O254 1.261 . S
C261 O256 1.259 . S
C261 O258 1.235 . S
O262 Co252 2.021 . S
O262 C259 1.238 . S
O263 Co257 2.052 . S
O263 C259 1.241 . S
O264 Co252 2.137 . S
O264 C255 1.247 . S
O265 Co252 2.244 . S
O265 C255 1.272 . S
O265 Co257 2.135 . S
Co266 O267 2.216 . S
Co266 O268 2.091 . S
Co266 O270 2.004 . S
Co266 O276 2.021 . S
Co266 O278 2.137 . S
Co266 O279 2.244 . S
O267 Co266 2.216 . S
O267 C274 1.247 . S
O268 Co266 2.091 . S
O268 C274 1.261 . S
C269 O278 1.247 . S
C269 O279 1.272 . S
O270 Co266 2.004 . S
O270 C275 1.259 . S
Co271 O272 2.061 . S
Co271 O277 2.052 . S
Co271 O279 2.135 . S
O272 Co271 2.061 . S
O272 C275 1.235 . S
C273 O276 1.238 . S
C273 O277 1.241 . S
C274 O267 1.247 . S
C274 O268 1.261 . S
C275 O270 1.259 . S
C275 O272 1.235 . S
O276 Co266 2.021 . S
O276 C273 1.238 . S
O277 Co271 2.052 . S
O277 C273 1.241 . S
O278 Co266 2.137 . S
O278 C269 1.247 . S
O279 Co266 2.244 . S
O279 C269 1.272 . S
O279 Co271 2.135 . S
Co280 O281 2.216 . S
Co280 O282 2.091 . S
Co280 O284 2.004 . S
Co280 O290 2.021 1_556 S
Co280 O292 2.137 . S
Co280 O293 2.244 . S
O281 Co280 2.216 . S
O281 C288 1.253 . S
O282 Co280 2.091 . S
O282 C288 1.258 . S
C283 O292 1.247 . S
C283 O293 1.272 . S
O284 Co280 2.004 . S
O284 C289 1.259 . S
Co285 O286 2.060 . S
Co285 O291 2.052 . S
Co285 O293 2.135 1_554 S
O286 Co285 2.060 . S
O286 C289 1.234 1_554 S
C287 O290 1.238 . S
C287 O291 1.241 . S
C288 O281 1.253 . S
C288 O282 1.258 . S
C289 O284 1.259 . S
C289 O286 1.234 1_556 S
O290 Co280 2.021 1_554 S
O290 C287 1.238 . S
O291 Co285 2.052 . S
O291 C287 1.241 . S
O292 Co280 2.137 . S
O292 C283 1.247 . S
O293 Co280 2.244 . S
O293 C283 1.272 . S
O293 Co285 2.135 1_556 S
Co294 O295 2.216 . S
Co294 O296 2.091 . S
Co294 O298 2.004 . S
Co294 O304 2.021 . S
Co294 O306 2.137 . S
Co294 O307 2.244 . S
O295 Co294 2.216 . S
O295 C302 1.247 . S
O296 Co294 2.091 . S
O296 C302 1.261 . S
C297 O306 1.247 . S
C297 O307 1.272 . S
O298 Co294 2.004 . S
O298 C303 1.259 . S
Co299 O300 2.061 . S
Co299 O305 2.052 . S
Co299 O307 2.135 . S
O300 Co299 2.061 . S
O300 C303 1.235 . S
C301 O304 1.238 . S
C301 O305 1.241 . S
C302 O295 1.247 . S
C302 O296 1.261 . S
C303 O298 1.259 . S
C303 O300 1.235 . S
O304 Co294 2.021 . S
O304 C301 1.238 . S
O305 Co299 2.052 . S
O305 C301 1.241 . S
O306 Co294 2.137 . S
O306 C297 1.247 . S
O307 Co294 2.244 . S
O307 C297 1.272 . S
O307 Co299 2.135 . S
Co308 O309 2.216 . S
Co308 O310 2.091 . S
Co308 O312 2.004 . S
Co308 O318 2.021 . S
Co308 O320 2.137 . S
Co308 O321 2.244 . S
O309 Co308 2.216 . S
O309 C316 1.247 . S
O310 Co308 2.091 . S
O310 C316 1.261 . S
C311 O320 1.247 . S
C311 O321 1.272 . S
O312 Co308 2.004 . S
O312 C317 1.259 . S
Co313 O314 2.061 . S
Co313 O319 2.052 . S
Co313 O321 2.135 . S
O314 Co313 2.061 . S
O314 C317 1.235 . S
C315 O318 1.238 . S
C315 O319 1.241 . S
C316 O309 1.247 . S
C316 O310 1.261 . S
C317 O312 1.259 . S
C317 O314 1.235 . S
O318 Co308 2.021 . S
O318 C315 1.238 . S
O319 Co313 2.052 . S
O319 C315 1.241 . S
O320 Co308 2.137 . S
O320 C311 1.247 . S
O321 Co308 2.244 . S
O321 C311 1.272 . S
O321 Co313 2.135 . S
Co322 O323 2.216 . S
Co322 O324 2.091 . S
Co322 O326 2.004 . S
Co322 O332 2.021 . S
Co322 O334 2.137 . S
Co322 O335 2.244 . S
O323 Co322 2.216 . S
O323 C330 1.247 . S
O324 Co322 2.091 . S
O324 C330 1.261 . S
C325 O334 1.247 . S
C325 O335 1.272 . S
O326 Co322 2.004 . S
O326 C331 1.259 . S
Co327 O328 2.061 . S
Co327 O333 2.052 . S
Co327 O335 2.135 . S
O328 Co327 2.061 . S
O328 C331 1.235 . S
C329 O332 1.238 . S
C329 O333 1.241 . S
C330 O323 1.247 . S
C330 O324 1.261 . S
C331 O326 1.259 . S
C331 O328 1.235 . S
O332 Co322 2.021 . S
O332 C329 1.238 . S
O333 Co327 2.052 . S
O333 C329 1.241 . S
O334 Co322 2.137 . S
O334 C325 1.247 . S
O335 Co322 2.244 . S
O335 C325 1.272 . S
O335 Co327 2.135 . S
Eu336 N367 2.657 1_545 S
Eu336 N374 2.609 1_544 S
Eu336 O380 2.558 1_454 S
Eu336 O381 2.612 . S
Eu336 O383 2.339 . S
Eu336 O384 2.563 . S
Eu336 O385 2.419 1_455 S
Eu336 O387 2.380 . S
Eu336 O388 2.432 1_554 S
Eu336 C400 2.848 1_454 S
C337 C340 1.429 . S
C337 C341 1.411 . S
C337 N344 1.377 . S
C338 C340 1.420 . S
C338 C342 1.423 . S
C338 C350 1.392 . S
C339 C341 1.420 . S
C339 C342 1.351 . S
C339 H362 0.931 . S
C340 C337 1.429 . S
C340 C338 1.420 . S
C340 N348 1.362 . S
C341 C337 1.411 . S
C341 C339 1.420 . S
C341 C346 1.395 . S
C342 C338 1.423 . S
C342 C339 1.351 . S
C342 H354 0.930 . S
C343 C345 1.400 . S
C343 C346 1.386 . S
C343 H355 0.930 . S
N344 C337 1.377 . S
N344 C345 1.321 . S
N344 Eu347 2.609 . S
C345 C343 1.400 . S
C345 N344 1.321 . S
C345 H352 0.930 . S
C346 C341 1.395 . S
C346 C343 1.386 . S
C346 H365 0.930 . S
Eu347 N344 2.609 . S
Eu347 N348 2.657 . S
Eu347 O381 2.380 . S
Eu347 O382 2.432 . S
Eu347 O386 2.558 . S
Eu347 O387 2.612 . S
Eu347 O389 2.344 1_554 S
Eu347 O390 2.563 . S
Eu347 O391 2.419 . S
Eu347 C411 2.848 . S
N348 C340 1.362 . S
N348 Eu347 2.657 . S
N348 C349 1.333 . S
C349 N348 1.333 . S
C349 C351 1.414 1_554 S
C349 H356 0.929 1_554 S
C350 C338 1.392 . S
C350 C351 1.367 1_554 S
C350 H358 0.915 1_554 S
C351 C349 1.414 1_556 S
C351 C350 1.367 1_556 S
C351 H353 0.930 . S
H352 C345 0.930 . S
H353 C351 0.930 . S
H354 C342 0.930 . S
H355 C343 0.930 . S
H356 C349 0.929 1_556 S
H357 C371 0.930 . S
H358 C350 0.915 1_556 S
H359 C377 0.930 1_545 S
H360 C368 0.929 1_545 S
H361 C375 0.930 . S
H362 C339 0.931 . S
H363 C369 0.930 . S
H364 C402 0.930 . S
H365 C346 0.930 . S
H366 C401 0.931 . S
N367 Eu336 2.657 1_565 S
N367 C368 1.334 . S
N367 C372 1.362 . S
C368 H360 0.929 1_565 S
C368 N367 1.334 . S
C368 C371 1.413 . S
C369 H363 0.930 . S
C369 C370 1.392 . S
C369 C371 1.367 1_655 S
C370 C369 1.392 . S
C370 C372 1.420 1_655 S
C370 C402 1.423 . S
C371 H357 0.930 . S
C371 C368 1.413 . S
C371 C369 1.367 1_455 S
C372 N367 1.362 . S
C372 C370 1.420 1_455 S
C372 C376 1.429 1_554 S
H373 C378 0.930 . S
N374 Eu336 2.609 1_566 S
N374 C376 1.377 . S
N374 C377 1.321 . S
C375 H361 0.930 . S
C375 C377 1.400 . S
C375 C378 1.386 1_455 S
C376 C372 1.429 1_556 S
C376 N374 1.377 . S
C376 C379 1.411 1_455 S
C377 H359 0.930 1_565 S
C377 N374 1.321 . S
C377 C375 1.400 . S
C378 H373 0.930 . S
C378 C375 1.386 1_655 S
C378 C379 1.395 . S
C379 C376 1.411 1_655 S
C379 C378 1.395 . S
C379 C401 1.420 . S
O380 Eu336 2.558 1_656 S
O380 C400 1.257 . S
O381 Eu336 2.612 . S
O381 Eu347 2.380 . S
O381 C392 1.276 . S
O382 Eu347 2.432 . S
O382 C399 1.264 . S
O383 Eu336 2.339 . S
O383 C399 1.254 . S
O384 Eu336 2.563 . S
O384 C392 1.235 . S
O385 Eu336 2.419 1_655 S
O385 C400 1.249 1_554 S
O386 Eu347 2.558 . S
O386 C411 1.257 . S
O387 Eu336 2.380 . S
O387 Eu347 2.612 . S
O387 C403 1.276 . S
O388 Eu336 2.432 1_556 S
O388 C410 1.264 . S
O389 Eu347 2.344 1_556 S
O389 C410 1.250 . S
O390 Eu347 2.563 . S
O390 C403 1.235 . S
O391 Eu347 2.419 . S
O391 C411 1.249 . S
C392 O381 1.276 . S
C392 O384 1.235 . S
C393 C395 1.393 1_556 S
C393 C397 1.395 . S
C393 C400 1.492 . S
C394 C395 1.392 . S
C394 C396 1.386 1_554 S
C395 C393 1.393 1_554 S
C395 C394 1.392 . S
C395 H412 0.930 . S
C396 C394 1.386 1_556 S
C396 C398 1.395 . S
C396 H413 0.930 . S
C397 C393 1.395 . S
C397 C398 1.379 . S
C397 H414 0.930 . S
C398 C396 1.395 . S
C398 C397 1.379 . S
C398 H415 0.930 . S
C399 O382 1.264 . S
C399 O383 1.254 . S
C400 Eu336 2.848 1_656 S
C400 O380 1.257 . S
C400 O385 1.249 1_556 S
C400 C393 1.492 . S
C401 H366 0.931 . S
C401 C379 1.420 . S
C401 C402 1.351 1_556 S
C402 H364 0.930 . S
C402 C370 1.423 . S
C402 C401 1.351 1_554 S
C403 O387 1.276 . S
C403 O390 1.235 . S
C404 C405 1.393 . S
C404 C408 1.395 . S
C404 C411 1.492 . S
C405 C404 1.393 . S
C405 C406 1.392 . S
C405 H416 0.930 . S
C406 C405 1.392 . S
C406 C407 1.386 . S
C407 C406 1.386 . S
C407 C409 1.395 . S
C407 H417 0.930 . S
C408 C404 1.395 . S
C408 C409 1.379 . S
C408 H418 0.930 . S
C409 C407 1.395 . S
C409 C408 1.379 . S
C409 H419 0.930 . S
C410 O388 1.264 . S
C410 O389 1.250 . S
C411 Eu347 2.848 . S
C411 O386 1.257 . S
C411 O391 1.249 . S
C411 C404 1.492 . S
H412 C395 0.930 . S
H413 C396 0.930 . S
H414 C397 0.930 . S
H415 C398 0.930 . S
H416 C405 0.930 . S
H417 C407 0.930 . S
H418 C408 0.930 . S
H419 C409 0.930 . S
Eu420 N451 2.657 . S
Eu420 N458 2.609 . S
Eu420 O464 2.558 . S
Eu420 O465 2.612 . S
Eu420 O467 2.339 . S
Eu420 O468 2.563 . S
Eu420 O469 2.419 . S
Eu420 O471 2.380 . S
Eu420 O472 2.432 . S
Eu420 C484 2.848 . S
C421 C424 1.429 . S
C421 C425 1.411 . S
C421 N428 1.377 . S
C422 C424 1.420 . S
C422 C426 1.423 . S
C422 C434 1.392 . S
C423 C425 1.420 . S
C423 C426 1.351 . S
C423 H446 0.931 . S
C424 C421 1.429 . S
C424 C422 1.420 . S
C424 N432 1.362 . S
C425 C421 1.411 . S
C425 C423 1.420 . S
C425 C430 1.395 . S
C426 C422 1.423 . S
C426 C423 1.351 . S
C426 H438 0.930 . S
C427 C429 1.400 . S
C427 C430 1.386 . S
C427 H439 0.930 . S
N428 C421 1.377 . S
N428 C429 1.321 . S
N428 Eu431 2.609 . S
C429 C427 1.400 . S
C429 N428 1.321 . S
C429 H436 0.930 . S
C430 C425 1.395 . S
C430 C427 1.386 . S
C430 H449 0.930 . S
Eu431 N428 2.609 . S
Eu431 N432 2.657 . S
Eu431 O465 2.380 . S
Eu431 O466 2.432 . S
Eu431 O470 2.558 . S
Eu431 O471 2.612 . S
Eu431 O473 2.339 . S
Eu431 O474 2.563 . S
Eu431 O475 2.419 . S
Eu431 C495 2.848 . S
N432 C424 1.362 . S
N432 Eu431 2.657 . S
N432 C433 1.334 . S
C433 N432 1.334 . S
C433 C435 1.413 . S
C433 H440 0.929 . S
C434 C422 1.392 . S
C434 C435 1.367 . S
C434 H442 0.930 . S
C435 C433 1.413 . S
C435 C434 1.367 . S
C435 H437 0.930 . S
H436 C429 0.930 . S
H437 C435 0.930 . S
H438 C426 0.930 . S
H439 C427 0.930 . S
H440 C433 0.929 . S
H441 C455 0.930 . S
H442 C434 0.930 . S
H443 C461 0.930 . S
H444 C452 0.929 . S
H445 C459 0.930 . S
H446 C423 0.931 . S
H447 C453 0.930 . S
H448 C486 0.930 . S
H449 C430 0.930 . S
H450 C485 0.931 . S
N451 Eu420 2.657 . S
N451 C452 1.334 . S
N451 C456 1.362 . S
C452 H444 0.929 . S
C452 N451 1.334 . S
C452 C455 1.413 . S
C453 H447 0.930 . S
C453 C454 1.392 . S
C453 C455 1.367 . S
C454 C453 1.392 . S
C454 C456 1.420 . S
C454 C486 1.423 . S
C455 H441 0.930 . S
C455 C452 1.413 . S
C455 C453 1.367 . S
C456 N451 1.362 . S
C456 C454 1.420 . S
C456 C460 1.429 . S
H457 C462 0.930 . S
N458 Eu420 2.609 . S
N458 C460 1.377 . S
N458 C461 1.321 . S
C459 H445 0.930 . S
C459 C461 1.400 . S
C459 C462 1.386 . S
C460 C456 1.429 . S
C460 N458 1.377 . S
C460 C463 1.411 . S
C461 H443 0.930 . S
C461 N458 1.321 . S
C461 C459 1.400 . S
C462 H457 0.930 . S
C462 C459 1.386 . S
C462 C463 1.395 . S
C463 C460 1.411 . S
C463 C462 1.395 . S
C463 C485 1.420 . S
O464 Eu420 2.558 . S
O464 C484 1.257 . S
O465 Eu420 2.612 . S
O465 Eu431 2.380 . S
O465 C476 1.276 . S
O466 Eu431 2.432 . S
O466 C483 1.264 . S
O467 Eu420 2.339 . S
O467 C483 1.254 . S
O468 Eu420 2.563 . S
O468 C476 1.235 . S
O469 Eu420 2.419 . S
O469 C484 1.249 . S
O470 Eu431 2.558 . S
O470 C495 1.257 . S
O471 Eu420 2.380 . S
O471 Eu431 2.612 . S
O471 C487 1.276 . S
O472 Eu420 2.432 . S
O472 C494 1.264 . S
O473 Eu431 2.339 . S
O473 C494 1.254 . S
O474 Eu431 2.563 . S
O474 C487 1.235 . S
O475 Eu431 2.419 . S
O475 C495 1.249 . S
C476 O465 1.276 . S
C476 O468 1.235 . S
C477 C479 1.393 . S
C477 C481 1.395 . S
C477 C484 1.492 . S
C478 C479 1.392 . S
C478 C480 1.386 . S
C479 C477 1.393 . S
C479 C478 1.392 . S
C479 H496 0.930 . S
C480 C478 1.386 . S
C480 C482 1.395 . S
C480 H497 0.930 . S
C481 C477 1.395 . S
C481 C482 1.379 . S
C481 H498 0.930 . S
C482 C480 1.395 . S
C482 C481 1.379 . S
C482 H499 0.930 . S
C483 O466 1.264 . S
C483 O467 1.254 . S
C484 Eu420 2.848 . S
C484 O464 1.257 . S
C484 O469 1.249 . S
C484 C477 1.492 . S
C485 H450 0.931 . S
C485 C463 1.420 . S
C485 C486 1.351 . S
C486 H448 0.930 . S
C486 C454 1.423 . S
C486 C485 1.351 . S
C487 O471 1.276 . S
C487 O474 1.235 . S
C488 C489 1.393 . S
C488 C492 1.395 . S
C488 C495 1.492 . S
C489 C488 1.393 . S
C489 C490 1.392 . S
C489 H500 0.930 . S
C490 C489 1.392 . S
C490 C491 1.386 . S
C491 C490 1.386 . S
C491 C493 1.395 . S
C491 H501 0.930 . S
C492 C488 1.395 . S
C492 C493 1.379 . S
C492 H502 0.930 . S
C493 C491 1.395 . S
C493 C492 1.379 . S
C493 H503 0.930 . S
C494 O472 1.264 . S
C494 O473 1.254 . S
C495 Eu431 2.848 . S
C495 O470 1.257 . S
C495 O475 1.249 . S
C495 C488 1.492 . S
H496 C479 0.930 . S
H497 C480 0.930 . S
H498 C481 0.930 . S
H499 C482 0.930 . S
H500 C489 0.930 . S
H501 C491 0.930 . S
H502 C492 0.930 . S
H503 C493 0.930 . S
Eu504 N535 2.657 . S
Eu504 N542 2.609 . S
Eu504 O548 2.558 . S
Eu504 O549 2.612 . S
Eu504 O551 2.339 . S
Eu504 O552 2.563 1_545 S
Eu504 O553 2.419 . S
Eu504 O555 2.380 . S
Eu504 O556 2.432 . S
Eu504 C568 2.848 . S
C505 C508 1.429 . S
C505 C509 1.411 . S
C505 N512 1.377 1_565 S
C506 C508 1.420 . S
C506 C510 1.423 . S
C506 C518 1.392 . S
C507 C509 1.420 . S
C507 C510 1.351 . S
C507 H530 0.931 . S
C508 C505 1.429 . S
C508 C506 1.420 . S
C508 N516 1.362 . S
C509 C505 1.411 . S
C509 C507 1.420 . S
C509 C514 1.395 . S
C510 C506 1.423 . S
C510 C507 1.351 . S
C510 H522 0.930 . S
C511 C513 1.400 . S
C511 C514 1.386 1_545 S
C511 H523 0.930 . S
N512 C505 1.377 1_545 S
N512 C513 1.321 . S
N512 Eu515 2.609 . S
C513 C511 1.400 . S
C513 N512 1.321 . S
C513 H520 0.930 . S
C514 C509 1.395 . S
C514 C511 1.386 1_565 S
C514 H533 0.930 . S
Eu515 N512 2.609 . S
Eu515 N516 2.657 1_545 S
Eu515 O549 2.380 . S
Eu515 O550 2.432 . S
Eu515 O554 2.558 . S
Eu515 O555 2.612 . S
Eu515 O557 2.339 . S
Eu515 O558 2.563 . S
Eu515 O559 2.419 . S
Eu515 C579 2.848 . S
N516 C508 1.362 . S
N516 Eu515 2.657 1_565 S
N516 C517 1.334 . S
C517 N516 1.334 . S
C517 C519 1.413 . S
C517 H524 0.929 1_565 S
C518 C506 1.392 . S
C518 C519 1.367 . S
C518 H526 0.930 . S
C519 C517 1.413 . S
C519 C518 1.367 . S
C519 H521 0.930 . S
H520 C513 0.930 . S
H521 C519 0.930 . S
H522 C510 0.930 . S
H523 C511 0.930 . S
H524 C517 0.929 1_545 S
H525 C539 0.930 . S
H526 C518 0.930 . S
H527 C545 0.930 . S
H528 C536 0.929 . S
H529 C543 0.930 . S
H530 C507 0.931 . S
H531 C537 0.930 . S
H532 C570 0.930 . S
H533 C514 0.930 . S
H534 C569 0.931 . S
N535 Eu504 2.657 . S
N535 C536 1.334 . S
N535 C540 1.362 . S
C536 H528 0.929 . S
C536 N535 1.334 . S
C536 C539 1.413 . S
C537 H531 0.930 . S
C537 C538 1.392 . S
C537 C539 1.367 . S
C538 C537 1.392 . S
C538 C540 1.420 . S
C538 C570 1.423 . S
C539 H525 0.930 . S
C539 C536 1.413 . S
C539 C537 1.367 . S
C540 N535 1.362 . S
C540 C538 1.420 . S
C540 C544 1.429 . S
H541 C546 0.930 . S
N542 Eu504 2.609 . S
N542 C544 1.377 . S
N542 C545 1.321 . S
C543 H529 0.930 . S
C543 C545 1.400 . S
C543 C546 1.386 . S
C544 C540 1.429 . S
C544 N542 1.377 . S
C544 C547 1.411 . S
C545 H527 0.930 . S
C545 N542 1.321 . S
C545 C543 1.400 . S
C546 H541 0.930 . S
C546 C543 1.386 . S
C546 C547 1.395 . S
C547 C544 1.411 . S
C547 C546 1.395 . S
C547 C569 1.420 . S
O548 Eu504 2.558 . S
O548 C568 1.257 . S
O549 Eu504 2.612 . S
O549 Eu515 2.380 . S
O549 C560 1.276 1_545 S
O550 Eu515 2.432 . S
O550 C567 1.264 . S
O551 Eu504 2.339 . S
O551 C567 1.254 . S
O552 Eu504 2.563 1_565 S
O552 C560 1.235 . S
O553 Eu504 2.419 . S
O553 C568 1.249 . S
O554 Eu515 2.558 . S
O554 C579 1.257 . S
O555 Eu504 2.380 . S
O555 Eu515 2.612 . S
O555 C571 1.276 . S
O556 Eu504 2.432 . S
O556 C578 1.264 . S
O557 Eu515 2.339 . S
O557 C578 1.254 . S
O558 Eu515 2.563 . S
O558 C571 1.235 . S
O559 Eu515 2.419 . S
O559 C579 1.249 . S
C560 O549 1.276 1_565 S
C560 O552 1.235 . S
C561 C563 1.393 . S
C561 C565 1.395 . S
C561 C568 1.492 . S
C562 C563 1.392 1_565 S
C562 C564 1.386 . S
C563 C561 1.393 . S
C563 C562 1.392 1_545 S
C563 H580 0.930 . S
C564 C562 1.386 . S
C564 C566 1.395 1_565 S
C564 H581 0.930 . S
C565 C561 1.395 . S
C565 C566 1.379 . S
C565 H582 0.930 . S
C566 C564 1.395 1_545 S
C566 C565 1.379 . S
C566 H583 0.930 . S
C567 O550 1.264 . S
C567 O551 1.254 . S
C568 Eu504 2.848 . S
C568 O548 1.257 . S
C568 O553 1.249 . S
C568 C561 1.492 . S
C569 H534 0.931 . S
C569 C547 1.420 . S
C569 C570 1.351 . S
C570 H532 0.930 . S
C570 C538 1.423 . S
C570 C569 1.351 . S
C571 O555 1.276 . S
C571 O558 1.235 . S
C572 C573 1.393 . S
C572 C576 1.395 . S
C572 C579 1.492 . S
C573 C572 1.393 . S
C573 C574 1.392 . S
C573 H584 0.930 . S
C574 C573 1.392 . S
C574 C575 1.386 . S
C575 C574 1.386 . S
C575 C577 1.395 . S
C575 H585 0.930 . S
C576 C572 1.395 . S
C576 C577 1.379 . S
C576 H586 0.930 . S
C577 C575 1.395 . S
C577 C576 1.379 . S
C577 H587 0.930 . S
C578 O556 1.264 . S
C578 O557 1.254 . S
C579 Eu515 2.848 . S
C579 O554 1.257 . S
C579 O559 1.249 . S
C579 C572 1.492 . S
H580 C563 0.930 . S
H581 C564 0.930 . S
H582 C565 0.930 . S
H583 C566 0.930 . S
H584 C573 0.930 . S
H585 C575 0.930 . S
H586 C576 0.930 . S
H587 C577 0.930 . S
Eu588 N619 2.657 . S
Eu588 N626 2.609 . S
Eu588 O632 2.558 . S
Eu588 O633 2.612 . S
Eu588 O635 2.339 . S
Eu588 O636 2.563 . S
Eu588 O637 2.419 . S
Eu588 O639 2.380 . S
Eu588 O640 2.432 . S
Eu588 C652 2.848 . S
C589 C592 1.429 . S
C589 C593 1.411 . S
C589 N596 1.377 . S
C590 C592 1.420 . S
C590 C594 1.423 . S
C590 C602 1.392 . S
C591 C593 1.420 . S
C591 C594 1.351 . S
C591 H614 0.931 . S
C592 C589 1.429 . S
C592 C590 1.420 . S
C592 N600 1.362 . S
C593 C589 1.411 . S
C593 C591 1.420 . S
C593 C598 1.395 . S
C594 C590 1.423 . S
C594 C591 1.351 . S
C594 H606 0.930 . S
C595 C597 1.400 . S
C595 C598 1.386 . S
C595 H607 0.930 . S
N596 C589 1.377 . S
N596 C597 1.321 . S
N596 Eu599 2.609 . S
C597 C595 1.400 . S
C597 N596 1.321 . S
C597 H604 0.930 . S
C598 C593 1.395 . S
C598 C595 1.386 . S
C598 H617 0.930 . S
Eu599 N596 2.609 . S
Eu599 N600 2.657 . S
Eu599 O633 2.380 . S
Eu599 O634 2.432 . S
Eu599 O638 2.558 . S
Eu599 O639 2.612 . S
Eu599 O641 2.339 . S
Eu599 O642 2.563 . S
Eu599 O643 2.419 . S
Eu599 C663 2.848 . S
N600 C592 1.362 . S
N600 Eu599 2.657 . S
N600 C601 1.334 . S
C601 N600 1.334 . S
C601 C603 1.413 . S
C601 H608 0.929 . S
C602 C590 1.392 . S
C602 C603 1.367 . S
C602 H610 0.930 . S
C603 C601 1.413 . S
C603 C602 1.367 . S
C603 H605 0.930 . S
H604 C597 0.930 . S
H605 C603 0.930 . S
H606 C594 0.930 . S
H607 C595 0.930 . S
H608 C601 0.929 . S
H609 C623 0.930 . S
H610 C602 0.930 . S
H611 C629 0.930 . S
H612 C620 0.929 . S
H613 C627 0.930 . S
H614 C591 0.931 . S
H615 C621 0.930 . S
H616 C654 0.930 . S
H617 C598 0.930 . S
H618 C653 0.931 . S
N619 Eu588 2.657 . S
N619 C620 1.334 . S
N619 C624 1.362 . S
C620 H612 0.929 . S
C620 N619 1.334 . S
C620 C623 1.413 . S
C621 H615 0.930 . S
C621 C622 1.392 . S
C621 C623 1.367 . S
C622 C621 1.392 . S
C622 C624 1.420 . S
C622 C654 1.423 . S
C623 H609 0.930 . S
C623 C620 1.413 . S
C623 C621 1.367 . S
C624 N619 1.362 . S
C624 C622 1.420 . S
C624 C628 1.429 . S
H625 C630 0.930 . S
N626 Eu588 2.609 . S
N626 C628 1.377 . S
N626 C629 1.321 . S
C627 H613 0.930 . S
C627 C629 1.400 . S
C627 C630 1.386 . S
C628 C624 1.429 . S
C628 N626 1.377 . S
C628 C631 1.411 . S
C629 H611 0.930 . S
C629 N626 1.321 . S
C629 C627 1.400 . S
C630 H625 0.930 . S
C630 C627 1.386 . S
C630 C631 1.395 . S
C631 C628 1.411 . S
C631 C630 1.395 . S
C631 C653 1.420 . S
O632 Eu588 2.558 . S
O632 C652 1.257 . S
O633 Eu588 2.612 . S
O633 Eu599 2.380 . S
O633 C644 1.276 . S
O634 Eu599 2.432 . S
O634 C651 1.264 . S
O635 Eu588 2.339 . S
O635 C651 1.254 . S
O636 Eu588 2.563 . S
O636 C644 1.235 . S
O637 Eu588 2.419 . S
O637 C652 1.249 . S
O638 Eu599 2.558 . S
O638 C663 1.257 . S
O639 Eu588 2.380 . S
O639 Eu599 2.612 . S
O639 C655 1.276 . S
O640 Eu588 2.432 . S
O640 C662 1.264 . S
O641 Eu599 2.339 . S
O641 C662 1.254 . S
O642 Eu599 2.563 . S
O642 C655 1.235 . S
O643 Eu599 2.419 . S
O643 C663 1.249 . S
C644 O633 1.276 . S
C644 O636 1.235 . S
C645 C647 1.393 . S
C645 C649 1.395 . S
C645 C652 1.492 . S
C646 C647 1.392 . S
C646 C648 1.386 . S
C647 C645 1.393 . S
C647 C646 1.392 . S
C647 H664 0.930 . S
C648 C646 1.386 . S
C648 C650 1.395 . S
C648 H665 0.930 . S
C649 C645 1.395 . S
C649 C650 1.379 . S
C649 H666 0.930 . S
C650 C648 1.395 . S
C650 C649 1.379 . S
C650 H667 0.930 . S
C651 O634 1.264 . S
C651 O635 1.254 . S
C652 Eu588 2.848 . S
C652 O632 1.257 . S
C652 O637 1.249 . S
C652 C645 1.492 . S
C653 H618 0.931 . S
C653 C631 1.420 . S
C653 C654 1.351 . S
C654 H616 0.930 . S
C654 C622 1.423 . S
C654 C653 1.351 . S
C655 O639 1.276 . S
C655 O642 1.235 . S
C656 C657 1.393 . S
C656 C660 1.395 . S
C656 C663 1.492 . S
C657 C656 1.393 . S
C657 C658 1.392 . S
C657 H668 0.930 . S
C658 C657 1.392 . S
C658 C659 1.386 . S
C659 C658 1.386 . S
C659 C661 1.395 . S
C659 H669 0.930 . S
C660 C656 1.395 . S
C660 C661 1.379 . S
C660 H670 0.930 . S
C661 C659 1.395 . S
C661 C660 1.379 . S
C661 H671 0.930 . S
C662 O640 1.264 . S
C662 O641 1.254 . S
C663 Eu599 2.848 . S
C663 O638 1.257 . S
C663 O643 1.249 . S
C663 C656 1.492 . S
H664 C647 0.930 . S
H665 C648 0.930 . S
H666 C649 0.930 . S
H667 C650 0.930 . S
H668 C657 0.930 . S
H669 C659 0.930 . S
H670 C660 0.930 . S
H671 C661 0.930 . S
Eu672 N703 2.657 . S
Eu672 N710 2.609 . S
Eu672 O716 2.558 . S
Eu672 O717 2.612 . S
Eu672 O719 2.339 . S
Eu672 O720 2.563 . S
Eu672 O721 2.419 . S
Eu672 O723 2.380 . S
Eu672 O724 2.432 . S
Eu672 C736 2.848 . S
C673 C676 1.429 . S
C673 C677 1.411 . S
C673 N680 1.377 . S
C674 C676 1.420 . S
C674 C678 1.423 . S
C674 C686 1.392 . S
C675 C677 1.420 . S
C675 C678 1.351 . S
C675 H698 0.931 . S
C676 C673 1.429 . S
C676 C674 1.420 . S
C676 N684 1.362 . S
C677 C673 1.411 . S
C677 C675 1.420 . S
C677 C682 1.395 . S
C678 C674 1.423 . S
C678 C675 1.351 . S
C678 H690 0.930 . S
C679 C681 1.400 . S
C679 C682 1.386 . S
C679 H691 0.930 . S
N680 C673 1.377 . S
N680 C681 1.321 . S
N680 Eu683 2.609 1_565 S
C681 C679 1.400 . S
C681 N680 1.321 . S
C681 H688 0.930 1_565 S
C682 C677 1.395 . S
C682 C679 1.386 . S
C682 H701 0.930 . S
Eu683 N680 2.609 1_545 S
Eu683 N684 2.657 1_545 S
Eu683 O717 2.380 . S
Eu683 O718 2.432 . S
Eu683 O722 2.558 1_545 S
Eu683 O723 2.612 . S
Eu683 O725 2.339 . S
Eu683 O726 2.563 . S
Eu683 O727 2.419 1_545 S
Eu683 C747 2.848 1_545 S
N684 C676 1.362 . S
N684 Eu683 2.657 1_565 S
N684 C685 1.334 . S
C685 N684 1.334 . S
C685 C687 1.413 . S
C685 H692 0.929 . S
C686 C674 1.392 . S
C686 C687 1.367 . S
C686 H694 0.930 . S
C687 C685 1.413 . S
C687 C686 1.367 . S
C687 H689 0.930 1_455 S
H688 C681 0.930 1_545 S
H689 C687 0.930 1_655 S
H690 C678 0.930 . S
H691 C679 0.930 . S
H692 C685 0.929 . S
H693 C707 0.930 . S
H694 C686 0.930 . S
H695 C713 0.930 . S
H696 C704 0.929 . S
H697 C711 0.930 1_655 S
H698 C675 0.931 . S
H699 C705 0.930 . S
H700 C738 0.930 . S
H701 C682 0.930 . S
H702 C737 0.931 . S
N703 Eu672 2.657 . S
N703 C704 1.334 . S
N703 C708 1.362 . S
C704 H696 0.929 . S
C704 N703 1.334 . S
C704 C707 1.413 . S
C705 H699 0.930 . S
C705 C706 1.392 . S
C705 C707 1.367 . S
C706 C705 1.392 . S
C706 C708 1.420 . S
C706 C738 1.423 . S
C707 H693 0.930 . S
C707 C704 1.413 . S
C707 C705 1.367 . S
C708 N703 1.362 . S
C708 C706 1.420 . S
C708 C712 1.429 . S
H709 C714 0.930 . S
N710 Eu672 2.609 . S
N710 C712 1.377 . S
N710 C713 1.321 . S
C711 H697 0.930 1_455 S
C711 C713 1.400 . S
C711 C714 1.386 . S
C712 C708 1.429 . S
C712 N710 1.377 . S
C712 C715 1.411 . S
C713 H695 0.930 . S
C713 N710 1.321 . S
C713 C711 1.400 . S
C714 H709 0.930 . S
C714 C711 1.386 . S
C714 C715 1.395 . S
C715 C712 1.411 . S
C715 C714 1.395 . S
C715 C737 1.420 . S
O716 Eu672 2.558 . S
O716 C736 1.257 . S
O717 Eu672 2.612 . S
O717 Eu683 2.380 . S
O717 C728 1.276 . S
O718 Eu683 2.432 . S
O718 C735 1.264 . S
O719 Eu672 2.339 . S
O719 C735 1.254 . S
O720 Eu672 2.563 . S
O720 C728 1.235 . S
O721 Eu672 2.419 . S
O721 C736 1.249 . S
O722 Eu683 2.558 1_565 S
O722 C747 1.257 . S
O723 Eu672 2.380 . S
O723 Eu683 2.612 . S
O723 C739 1.276 . S
O724 Eu672 2.432 . S
O724 C746 1.264 . S
O725 Eu683 2.339 . S
O725 C746 1.254 . S
O726 Eu683 2.563 . S
O726 C739 1.235 . S
O727 Eu683 2.419 1_565 S
O727 C747 1.249 . S
C728 O717 1.276 . S
C728 O720 1.235 . S
C729 C731 1.393 . S
C729 C733 1.395 . S
C729 C736 1.492 . S
C730 C731 1.392 . S
C730 C732 1.386 . S
C731 C729 1.393 . S
C731 C730 1.392 . S
C731 H748 0.930 . S
C732 C730 1.386 . S
C732 C734 1.395 . S
C732 H749 0.930 . S
C733 C729 1.395 . S
C733 C734 1.379 . S
C733 H750 0.930 . S
C734 C732 1.395 . S
C734 C733 1.379 . S
C734 H751 0.930 . S
C735 O718 1.264 . S
C735 O719 1.254 . S
C736 Eu672 2.848 . S
C736 O716 1.257 . S
C736 O721 1.249 . S
C736 C729 1.492 . S
C737 H702 0.931 . S
C737 C715 1.420 . S
C737 C738 1.351 . S
C738 H700 0.930 . S
C738 C706 1.423 . S
C738 C737 1.351 . S
C739 O723 1.276 . S
C739 O726 1.235 . S
C740 C741 1.393 . S
C740 C744 1.395 . S
C740 C747 1.492 . S
C741 C740 1.393 . S
C741 C742 1.392 . S
C741 H752 0.930 . S
C742 C741 1.392 . S
C742 C743 1.386 . S
C743 C742 1.386 . S
C743 C745 1.395 . S
C743 H753 0.930 . S
C744 C740 1.395 . S
C744 C745 1.379 . S
C744 H754 0.930 . S
C745 C743 1.395 . S
C745 C744 1.379 . S
C745 H755 0.930 . S
C746 O724 1.264 . S
C746 O725 1.254 . S
C747 Eu683 2.848 1_565 S
C747 O722 1.257 . S
C747 O727 1.249 . S
C747 C740 1.492 . S
H748 C731 0.930 . S
H749 C732 0.930 . S
H750 C733 0.930 . S
H751 C734 0.930 . S
H752 C741 0.930 . S
H753 C743 0.930 . S
H754 C744 0.930 . S
H755 C745 0.930 . S
Eu756 N787 2.657 . S
Eu756 N794 2.609 . S
Eu756 O800 2.558 . S
Eu756 O801 2.612 . S
Eu756 O803 2.339 . S
Eu756 O804 2.563 . S
Eu756 O805 2.419 . S
Eu756 O807 2.380 . S
Eu756 O808 2.432 . S
Eu756 C820 2.848 . S
C757 C760 1.429 . S
C757 C761 1.411 . S
C757 N764 1.377 . S
C758 C760 1.420 . S
C758 C762 1.423 . S
C758 C770 1.392 . S
C759 C761 1.420 . S
C759 C762 1.351 . S
C759 H782 0.931 . S
C760 C757 1.429 . S
C760 C758 1.420 . S
C760 N768 1.362 . S
C761 C757 1.411 . S
C761 C759 1.420 . S
C761 C766 1.395 . S
C762 C758 1.423 . S
C762 C759 1.351 . S
C762 H774 0.930 . S
C763 C765 1.400 . S
C763 C766 1.386 . S
C763 H775 0.930 . S
N764 C757 1.377 . S
N764 C765 1.321 . S
N764 Eu767 2.609 . S
C765 C763 1.400 . S
C765 N764 1.321 . S
C765 H772 0.930 . S
C766 C761 1.395 . S
C766 C763 1.386 . S
C766 H785 0.930 . S
Eu767 N764 2.609 . S
Eu767 N768 2.657 . S
Eu767 O801 2.380 . S
Eu767 O802 2.432 . S
Eu767 O806 2.558 . S
Eu767 O807 2.612 . S
Eu767 O809 2.339 . S
Eu767 O810 2.563 . S
Eu767 O811 2.419 . S
Eu767 C831 2.848 . S
N768 C760 1.362 . S
N768 Eu767 2.657 . S
N768 C769 1.334 . S
C769 N768 1.334 . S
C769 C771 1.413 . S
C769 H776 0.929 . S
C770 C758 1.392 . S
C770 C771 1.367 . S
C770 H778 0.930 . S
C771 C769 1.413 . S
C771 C770 1.367 . S
C771 H773 0.930 . S
H772 C765 0.930 . S
H773 C771 0.930 . S
H774 C762 0.930 . S
H775 C763 0.930 . S
H776 C769 0.929 . S
H777 C791 0.930 . S
H778 C770 0.930 . S
H779 C797 0.930 . S
H780 C788 0.929 . S
H781 C795 0.930 . S
H782 C759 0.931 . S
H783 C789 0.930 . S
H784 C822 0.930 . S
H785 C766 0.930 . S
H786 C821 0.931 . S
N787 Eu756 2.657 . S
N787 C788 1.334 . S
N787 C792 1.362 . S
C788 H780 0.929 . S
C788 N787 1.334 . S
C788 C791 1.413 . S
C789 H783 0.930 . S
C789 C790 1.392 . S
C789 C791 1.367 . S
C790 C789 1.392 . S
C790 C792 1.420 . S
C790 C822 1.423 . S
C791 H777 0.930 . S
C791 C788 1.413 . S
C791 C789 1.367 . S
C792 N787 1.362 . S
C792 C790 1.420 . S
C792 C796 1.429 . S
H793 C798 0.930 . S
N794 Eu756 2.609 . S
N794 C796 1.377 . S
N794 C797 1.321 . S
C795 H781 0.930 . S
C795 C797 1.400 . S
C795 C798 1.386 . S
C796 C792 1.429 . S
C796 N794 1.377 . S
C796 C799 1.411 . S
C797 H779 0.930 . S
C797 N794 1.321 . S
C797 C795 1.400 . S
C798 H793 0.930 . S
C798 C795 1.386 . S
C798 C799 1.395 . S
C799 C796 1.411 . S
C799 C798 1.395 . S
C799 C821 1.420 . S
O800 Eu756 2.558 . S
O800 C820 1.257 . S
O801 Eu756 2.612 . S
O801 Eu767 2.380 . S
O801 C812 1.276 . S
O802 Eu767 2.432 . S
O802 C819 1.264 . S
O803 Eu756 2.339 . S
O803 C819 1.254 . S
O804 Eu756 2.563 . S
O804 C812 1.235 . S
O805 Eu756 2.419 . S
O805 C820 1.249 . S
O806 Eu767 2.558 . S
O806 C831 1.257 . S
O807 Eu756 2.380 . S
O807 Eu767 2.612 . S
O807 C823 1.276 . S
O808 Eu756 2.432 . S
O808 C830 1.264 . S
O809 Eu767 2.339 . S
O809 C830 1.254 . S
O810 Eu767 2.563 . S
O810 C823 1.235 . S
O811 Eu767 2.419 . S
O811 C831 1.249 . S
C812 O801 1.276 . S
C812 O804 1.235 . S
C813 C815 1.393 . S
C813 C817 1.395 . S
C813 C820 1.492 . S
C814 C815 1.392 . S
C814 C816 1.386 . S
C815 C813 1.393 . S
C815 C814 1.392 . S
C815 H832 0.930 . S
C816 C814 1.386 . S
C816 C818 1.395 . S
C816 H833 0.930 . S
C817 C813 1.395 . S
C817 C818 1.379 . S
C817 H834 0.930 . S
C818 C816 1.395 . S
C818 C817 1.379 . S
C818 H835 0.930 . S
C819 O802 1.264 . S
C819 O803 1.254 . S
C820 Eu756 2.848 . S
C820 O800 1.257 . S
C820 O805 1.249 . S
C820 C813 1.492 . S
C821 H786 0.931 . S
C821 C799 1.420 . S
C821 C822 1.351 . S
C822 H784 0.930 . S
C822 C790 1.423 . S
C822 C821 1.351 . S
C823 O807 1.276 . S
C823 O810 1.235 . S
C824 C825 1.393 . S
C824 C828 1.395 . S
C824 C831 1.492 . S
C825 C824 1.393 . S
C825 C826 1.392 . S
C825 H836 0.930 . S
C826 C825 1.392 . S
C826 C827 1.386 . S
C827 C826 1.386 . S
C827 C829 1.395 . S
C827 H837 0.930 . S
C828 C824 1.395 . S
C828 C829 1.379 . S
C828 H838 0.930 . S
C829 C827 1.395 . S
C829 C828 1.379 . S
C829 H839 0.930 . S
C830 O808 1.264 . S
C830 O809 1.254 . S
C831 Eu767 2.848 . S
C831 O806 1.257 . S
C831 O811 1.249 . S
C831 C824 1.492 . S
H832 C815 0.930 . S
H833 C816 0.930 . S
H834 C817 0.930 . S
H835 C818 0.930 . S
H836 C825 0.930 . S
H837 C827 0.930 . S
H838 C828 0.930 . S
H839 C829 0.930 . S
Eu840 N871 2.657 . S
Eu840 N878 2.609 . S
Eu840 O884 2.558 . S
Eu840 O885 2.612 . S
Eu840 O887 2.339 . S
Eu840 O888 2.563 . S
Eu840 O889 2.419 . S
Eu840 O891 2.380 . S
Eu840 O892 2.432 . S
Eu840 C904 2.848 . S
C841 C844 1.429 . S
C841 C845 1.411 . S
C841 N848 1.377 . S
C842 C844 1.420 . S
C842 C846 1.423 . S
C842 C854 1.392 1_545 S
C843 C845 1.420 . S
C843 C846 1.351 . S
C843 H866 0.931 . S
C844 C841 1.429 . S
C844 C842 1.420 . S
C844 N852 1.362 . S
C845 C841 1.411 . S
C845 C843 1.420 . S
C845 C850 1.395 . S
C846 C842 1.423 . S
C846 C843 1.351 . S
C846 H858 0.930 . S
C847 C849 1.400 . S
C847 C850 1.386 . S
C847 H859 0.930 . S
N848 C841 1.377 . S
N848 C849 1.321 . S
N848 Eu851 2.609 . S
C849 C847 1.400 . S
C849 N848 1.321 . S
C849 H856 0.930 . S
C850 C845 1.395 . S
C850 C847 1.386 . S
C850 H869 0.930 . S
Eu851 N848 2.609 . S
Eu851 N852 2.657 . S
Eu851 O885 2.380 1_556 S
Eu851 O886 2.432 1_556 S
Eu851 O890 2.558 . S
Eu851 O891 2.612 1_556 S
Eu851 O893 2.339 . S
Eu851 O894 2.567 . S
Eu851 O895 2.419 . S
Eu851 C915 2.848 . S
N852 C844 1.362 . S
N852 Eu851 2.657 . S
N852 C853 1.334 . S
C853 N852 1.334 . S
C853 C855 1.413 1_545 S
C853 H860 0.929 1_545 S
C854 C842 1.392 1_565 S
C854 C855 1.367 . S
C854 H862 0.930 . S
C855 C853 1.413 1_565 S
C855 C854 1.367 . S
C855 H857 0.930 . S
H856 C849 0.930 . S
H857 C855 0.930 . S
H858 C846 0.930 . S
H859 C847 0.930 . S
H860 C853 0.929 1_565 S
H861 C875 0.930 . S
H862 C854 0.930 . S
H863 C881 0.930 . S
H864 C872 0.929 . S
H865 C879 0.930 . S
H866 C843 0.931 . S
H867 C873 0.930 . S
H868 C906 0.930 . S
H869 C850 0.930 . S
H870 C905 0.931 . S
N871 Eu840 2.657 . S
N871 C872 1.334 . S
N871 C876 1.362 . S
C872 H864 0.929 . S
C872 N871 1.334 . S
C872 C875 1.413 . S
C873 H867 0.930 . S
C873 C874 1.392 . S
C873 C875 1.367 . S
C874 C873 1.392 . S
C874 C876 1.420 . S
C874 C906 1.423 . S
C875 H861 0.930 . S
C875 C872 1.413 . S
C875 C873 1.367 . S
C876 N871 1.362 . S
C876 C874 1.420 . S
C876 C880 1.429 . S
H877 C882 0.930 . S
N878 Eu840 2.609 . S
N878 C880 1.377 . S
N878 C881 1.321 1_545 S
C879 H865 0.930 . S
C879 C881 1.400 . S
C879 C882 1.386 . S
C880 C876 1.429 . S
C880 N878 1.377 . S
C880 C883 1.411 . S
C881 H863 0.930 . S
C881 N878 1.321 1_565 S
C881 C879 1.400 . S
C882 H877 0.930 . S
C882 C879 1.386 . S
C882 C883 1.395 1_565 S
C883 C880 1.411 . S
C883 C882 1.395 1_545 S
C883 C905 1.420 . S
O884 Eu840 2.558 . S
O884 C904 1.257 . S
O885 Eu840 2.612 . S
O885 Eu851 2.380 1_554 S
O885 C896 1.276 . S
O886 Eu851 2.432 1_554 S
O886 C903 1.264 . S
O887 Eu840 2.339 . S
O887 C903 1.254 . S
O888 Eu840 2.563 . S
O888 C896 1.235 . S
O889 Eu840 2.419 . S
O889 C904 1.249 . S
O890 Eu851 2.558 . S
O890 C915 1.257 . S
O891 Eu840 2.380 . S
O891 Eu851 2.612 1_554 S
O891 C907 1.276 . S
O892 Eu840 2.432 . S
O892 C914 1.285 . S
O893 Eu851 2.339 . S
O893 C914 1.240 1_556 S
O894 Eu851 2.567 . S
O894 C907 1.188 1_556 S
O895 Eu851 2.419 . S
O895 C915 1.249 . S
C896 O885 1.276 . S
C896 O888 1.235 . S
C897 C899 1.393 . S
C897 C901 1.395 1_545 S
C897 C904 1.492 . S
C898 C899 1.392 . S
C898 C900 1.386 . S
C899 C897 1.393 . S
C899 C898 1.392 . S
C899 H916 0.930 . S
C900 C898 1.386 . S
C900 C902 1.395 1_545 S
C900 H917 0.930 . S
C901 C897 1.395 1_565 S
C901 C902 1.379 . S
C901 H918 0.930 . S
C902 C900 1.395 1_565 S
C902 C901 1.379 . S
C902 H919 0.930 . S
C903 O886 1.264 . S
C903 O887 1.254 . S
C904 Eu840 2.848 . S
C904 O884 1.257 . S
C904 O889 1.249 . S
C904 C897 1.492 . S
C905 H870 0.931 . S
C905 C883 1.420 . S
C905 C906 1.351 . S
C906 H868 0.930 . S
C906 C874 1.423 . S
C906 C905 1.351 . S
C907 O891 1.276 . S
C907 O894 1.188 1_554 S
C908 C909 1.393 . S
C908 C912 1.395 . S
C908 C915 1.492 . S
C909 C908 1.393 . S
C909 C910 1.392 . S
C909 H920 0.930 . S
C910 C909 1.392 . S
C910 C911 1.386 . S
C911 C910 1.386 . S
C911 C913 1.395 . S
C911 H921 0.930 . S
C912 C908 1.395 . S
C912 C913 1.379 . S
C912 H922 0.930 . S
C913 C911 1.395 . S
C913 C912 1.379 . S
C913 H923 0.930 . S
C914 O892 1.285 . S
C914 O893 1.240 1_554 S
C915 Eu851 2.848 . S
C915 O890 1.257 . S
C915 O895 1.249 . S
C915 C908 1.492 . S
H916 C899 0.930 . S
H917 C900 0.930 . S
H918 C901 0.930 . S
H919 C902 0.930 . S
H920 C909 0.930 . S
H921 C911 0.930 . S
H922 C912 0.930 . S
H923 C913 0.930 . S
Eu924 N955 2.657 . S
Eu924 N962 2.609 . S
Eu924 O968 2.558 . S
Eu924 O969 2.612 . S
Eu924 O971 2.339 . S
Eu924 O972 2.563 . S
Eu924 O973 2.419 . S
Eu924 O975 2.380 . S
Eu924 O976 2.432 . S
Eu924 C988 2.848 . S
C925 C928 1.429 . S
C925 C929 1.411 . S
C925 N932 1.377 . S
C926 C928 1.420 . S
C926 C930 1.423 . S
C926 C938 1.392 . S
C927 C929 1.420 . S
C927 C930 1.351 . S
C927 H950 0.931 . S
C928 C925 1.429 . S
C928 C926 1.420 . S
C928 N936 1.362 . S
C929 C925 1.411 . S
C929 C927 1.420 . S
C929 C934 1.395 . S
C930 C926 1.423 . S
C930 C927 1.351 . S
C930 H942 0.930 . S
C931 C933 1.400 . S
C931 C934 1.386 . S
C931 H943 0.930 . S
N932 C925 1.377 . S
N932 C933 1.321 . S
N932 Eu935 2.609 . S
C933 C931 1.400 . S
C933 N932 1.321 . S
C933 H940 0.930 . S
C934 C929 1.395 . S
C934 C931 1.386 . S
C934 H953 0.930 . S
Eu935 N932 2.609 . S
Eu935 N936 2.657 . S
Eu935 O969 2.380 . S
Eu935 O970 2.432 . S
Eu935 O974 2.558 . S
Eu935 O975 2.612 . S
Eu935 O977 2.339 . S
Eu935 O978 2.563 . S
Eu935 O979 2.419 . S
Eu935 C999 2.848 . S
N936 C928 1.362 . S
N936 Eu935 2.657 . S
N936 C937 1.334 . S
C937 N936 1.334 . S
C937 C939 1.413 . S
C937 H944 0.929 . S
C938 C926 1.392 . S
C938 C939 1.367 . S
C938 H946 0.930 . S
C939 C937 1.413 . S
C939 C938 1.367 . S
C939 H941 0.930 . S
H940 C933 0.930 . S
H941 C939 0.930 . S
H942 C930 0.930 . S
H943 C931 0.930 . S
H944 C937 0.929 . S
H945 C959 0.930 . S
H946 C938 0.930 . S
H947 C965 0.930 . S
H948 C956 0.929 . S
H949 C963 0.930 . S
H950 C927 0.931 . S
H951 C957 0.930 . S
H952 C990 0.930 . S
H953 C934 0.930 . S
H954 C989 0.931 . S
N955 Eu924 2.657 . S
N955 C956 1.334 . S
N955 C960 1.362 . S
C956 H948 0.929 . S
C956 N955 1.334 . S
C956 C959 1.413 . S
C957 H951 0.930 . S
C957 C958 1.392 . S
C957 C959 1.367 . S
C958 C957 1.392 . S
C958 C960 1.420 . S
C958 C990 1.423 . S
C959 H945 0.930 . S
C959 C956 1.413 . S
C959 C957 1.367 . S
C960 N955 1.362 . S
C960 C958 1.420 . S
C960 C964 1.429 . S
H961 C966 0.930 . S
N962 Eu924 2.609 . S
N962 C964 1.377 . S
N962 C965 1.321 . S
C963 H949 0.930 . S
C963 C965 1.400 . S
C963 C966 1.386 . S
C964 C960 1.429 . S
C964 N962 1.377 . S
C964 C967 1.411 . S
C965 H947 0.930 . S
C965 N962 1.321 . S
C965 C963 1.400 . S
C966 H961 0.930 . S
C966 C963 1.386 . S
C966 C967 1.395 . S
C967 C964 1.411 . S
C967 C966 1.395 . S
C967 C989 1.420 . S
O968 Eu924 2.558 . S
O968 C988 1.257 . S
O969 Eu924 2.612 . S
O969 Eu935 2.380 . S
O969 C980 1.276 . S
O970 Eu935 2.432 . S
O970 C987 1.264 . S
O971 Eu924 2.339 . S
O971 C987 1.254 . S
O972 Eu924 2.563 . S
O972 C980 1.235 . S
O973 Eu924 2.419 . S
O973 C988 1.249 . S
O974 Eu935 2.558 . S
O974 C999 1.257 . S
O975 Eu924 2.380 . S
O975 Eu935 2.612 . S
O975 C991 1.276 . S
O976 Eu924 2.432 . S
O976 C998 1.264 . S
O977 Eu935 2.339 . S
O977 C998 1.254 . S
O978 Eu935 2.563 . S
O978 C991 1.235 . S
O979 Eu935 2.419 . S
O979 C999 1.249 . S
C980 O969 1.276 . S
C980 O972 1.235 . S
C981 C983 1.393 . S
C981 C985 1.395 . S
C981 C988 1.492 . S
C982 C983 1.392 . S
C982 C984 1.386 . S
C983 C981 1.393 . S
C983 C982 1.392 . S
C983 H1000 0.930 . S
C984 C982 1.386 . S
C984 C986 1.395 . S
C984 H1001 0.930 . S
C985 C981 1.395 . S
C985 C986 1.379 . S
C985 H1002 0.930 . S
C986 C984 1.395 . S
C986 C985 1.379 . S
C986 H1003 0.930 . S
C987 O970 1.264 . S
C987 O971 1.254 . S
C988 Eu924 2.848 . S
C988 O968 1.257 . S
C988 O973 1.249 . S
C988 C981 1.492 . S
C989 H954 0.931 . S
C989 C967 1.420 . S
C989 C990 1.351 . S
C990 H952 0.930 . S
C990 C958 1.423 . S
C990 C989 1.351 . S
C991 O975 1.276 . S
C991 O978 1.235 . S
C992 C993 1.393 . S
C992 C996 1.395 . S
C992 C999 1.492 . S
C993 C992 1.393 . S
C993 C994 1.392 . S
C993 H1004 0.930 . S
C994 C993 1.392 . S
C994 C995 1.386 . S
C995 C994 1.386 . S
C995 C997 1.395 . S
C995 H1005 0.930 . S
C996 C992 1.395 . S
C996 C997 1.379 . S
C996 H1006 0.930 . S
C997 C995 1.395 . S
C997 C996 1.379 . S
C997 H1007 0.930 . S
C998 O976 1.264 . S
C998 O977 1.254 . S
C999 Eu935 2.848 . S
C999 O974 1.257 . S
C999 O979 1.249 . S
C999 C992 1.492 . S
H1000 C983 0.930 . S
H1001 C984 0.930 . S
H1002 C985 0.930 . S
H1003 C986 0.930 . S
H1004 C993 0.930 . S
H1005 C995 0.930 . S
H1006 C996 0.930 . S
H1007 C997 0.930 . S
Eu1008 N1039 2.657 . S
Eu1008 N1046 2.609 . S
Eu1008 O1052 2.558 . S
Eu1008 O1053 2.612 1_554 S
Eu1008 O1055 2.339 . S
Eu1008 O1056 2.563 1_554 S
Eu1008 O1057 2.419 . S
Eu1008 O1059 2.380 . S
Eu1008 O1060 2.432 . S
Eu1008 C1072 2.848 . S
C1009 C1012 1.429 . S
C1009 C1013 1.411 . S
C1009 N1016 1.377 . S
C1010 C1012 1.420 . S
C1010 C1014 1.423 . S
C1010 C1022 1.392 . S
C1011 C1013 1.420 . S
C1011 C1014 1.351 . S
C1011 H1034 0.931 . S
C1012 C1009 1.429 . S
C1012 C1010 1.420 . S
C1012 N1020 1.362 . S
C1013 C1009 1.411 . S
C1013 C1011 1.420 . S
C1013 C1018 1.395 . S
C1014 C1010 1.423 . S
C1014 C1011 1.351 . S
C1014 H1026 0.930 . S
C1015 C1017 1.400 . S
C1015 C1018 1.386 . S
C1015 H1027 0.930 . S
N1016 C1009 1.377 . S
N1016 C1017 1.321 . S
N1016 Eu1019 2.609 1_556 S
C1017 C1015 1.400 . S
C1017 N1016 1.321 . S
C1017 H1024 0.930 . S
C1018 C1013 1.395 . S
C1018 C1015 1.386 . S
C1018 H1037 0.930 . S
Eu1019 N1016 2.609 1_554 S
Eu1019 N1020 2.657 1_554 S
Eu1019 O1053 2.380 1_554 S
Eu1019 O1054 2.432 . S
Eu1019 O1058 2.558 . S
Eu1019 O1059 2.612 . S
Eu1019 O1061 2.339 . S
Eu1019 O1062 2.563 . S
Eu1019 O1063 2.419 . S
Eu1019 C1083 2.848 . S
N1020 C1012 1.362 . S
N1020 Eu1019 2.657 1_556 S
N1020 C1021 1.334 . S
C1021 N1020 1.334 . S
C1021 C1023 1.413 . S
C1021 H1028 0.929 . S
C1022 C1010 1.392 . S
C1022 C1023 1.367 . S
C1022 H1030 0.930 . S
C1023 C1021 1.413 . S
C1023 C1022 1.367 . S
C1023 H1025 0.930 . S
H1024 C1017 0.930 . S
H1025 C1023 0.930 . S
H1026 C1014 0.930 . S
H1027 C1015 0.930 . S
H1028 C1021 0.929 . S
H1029 C1043 0.930 . S
H1030 C1022 0.930 . S
H1031 C1049 0.930 . S
H1032 C1040 0.929 . S
H1033 C1047 0.930 . S
H1034 C1011 0.931 . S
H1035 C1041 0.930 . S
H1036 C1074 0.930 . S
H1037 C1018 0.930 . S
H1038 C1073 0.931 . S
N1039 Eu1008 2.657 . S
N1039 C1040 1.334 . S
N1039 C1044 1.362 . S
C1040 H1032 0.929 . S
C1040 N1039 1.334 . S
C1040 C1043 1.413 . S
C1041 H1035 0.930 . S
C1041 C1042 1.392 . S
C1041 C1043 1.367 . S
C1042 C1041 1.392 . S
C1042 C1044 1.420 . S
C1042 C1074 1.423 . S
C1043 H1029 0.930 . S
C1043 C1040 1.413 . S
C1043 C1041 1.367 . S
C1044 N1039 1.362 . S
C1044 C1042 1.420 . S
C1044 C1048 1.429 . S
H1045 C1050 0.930 . S
N1046 Eu1008 2.609 . S
N1046 C1048 1.377 . S
N1046 C1049 1.321 . S
C1047 H1033 0.930 . S
C1047 C1049 1.400 . S
C1047 C1050 1.386 . S
C1048 C1044 1.429 . S
C1048 N1046 1.377 . S
C1048 C1051 1.411 . S
C1049 H1031 0.930 . S
C1049 N1046 1.321 . S
C1049 C1047 1.400 . S
C1050 H1045 0.930 . S
C1050 C1047 1.386 . S
C1050 C1051 1.395 . S
C1051 C1048 1.411 . S
C1051 C1050 1.395 . S
C1051 C1073 1.420 . S
O1052 Eu1008 2.558 . S
O1052 C1072 1.257 . S
O1053 Eu1008 2.612 1_556 S
O1053 Eu1019 2.380 1_556 S
O1053 C1064 1.276 . S
O1054 Eu1019 2.432 . S
O1054 C1071 1.264 . S
O1055 Eu1008 2.339 . S
O1055 C1071 1.254 . S
O1056 Eu1008 2.563 1_556 S
O1056 C1064 1.235 . S
O1057 Eu1008 2.419 . S
O1057 C1072 1.249 . S
O1058 Eu1019 2.558 . S
O1058 C1083 1.257 . S
O1059 Eu1008 2.380 . S
O1059 Eu1019 2.612 . S
O1059 C1075 1.276 . S
O1060 Eu1008 2.432 . S
O1060 C1082 1.264 . S
O1061 Eu1019 2.339 . S
O1061 C1082 1.254 . S
O1062 Eu1019 2.563 . S
O1062 C1075 1.235 . S
O1063 Eu1019 2.419 . S
O1063 C1083 1.249 . S
C1064 O1053 1.276 . S
C1064 O1056 1.235 . S
C1065 C1067 1.393 . S
C1065 C1069 1.395 . S
C1065 C1072 1.492 . S
C1066 C1067 1.392 1_556 S
C1066 C1068 1.386 1_556 S
C1067 C1065 1.393 . S
C1067 C1066 1.392 1_554 S
C1067 H1084 0.934 . S
C1068 C1066 1.386 1_554 S
C1068 C1070 1.395 . S
C1068 H1085 0.958 . S
C1069 C1065 1.395 . S
C1069 C1070 1.379 . S
C1069 H1086 0.930 . S
C1070 C1068 1.395 . S
C1070 C1069 1.379 . S
C1070 H1087 0.930 . S
C1071 O1054 1.264 . S
C1071 O1055 1.254 . S
C1072 Eu1008 2.848 . S
C1072 O1052 1.257 . S
C1072 O1057 1.249 . S
C1072 C1065 1.492 . S
C1073 H1038 0.931 . S
C1073 C1051 1.420 . S
C1073 C1074 1.351 . S
C1074 H1036 0.930 . S
C1074 C1042 1.423 . S
C1074 C1073 1.351 . S
C1075 O1059 1.276 . S
C1075 O1062 1.235 . S
C1076 C1077 1.393 . S
C1076 C1080 1.395 . S
C1076 C1083 1.492 . S
C1077 C1076 1.393 . S
C1077 C1078 1.392 . S
C1077 H1088 0.930 . S
C1078 C1077 1.392 . S
C1078 C1079 1.386 . S
C1079 C1078 1.386 . S
C1079 C1081 1.395 . S
C1079 H1089 0.930 . S
C1080 C1076 1.395 . S
C1080 C1081 1.379 . S
C1080 H1090 0.930 . S
C1081 C1079 1.395 . S
C1081 C1080 1.379 . S
C1081 H1091 0.930 . S
C1082 O1060 1.264 . S
C1082 O1061 1.254 . S
C1083 Eu1019 2.848 . S
C1083 O1058 1.257 . S
C1083 O1063 1.249 . S
C1083 C1076 1.492 . S
H1084 C1067 0.934 . S
H1085 C1068 0.958 . S
H1086 C1069 0.930 . S
H1087 C1070 0.930 . S
H1088 C1077 0.930 . S
H1089 C1079 0.930 . S
H1090 C1080 0.930 . S
H1091 C1081 0.930 . S
Eu1092 N1123 2.657 . S
Eu1092 N1130 2.609 . S
Eu1092 O1136 2.558 . S
Eu1092 O1137 2.612 . S
Eu1092 O1139 2.339 . S
Eu1092 O1140 2.563 . S
Eu1092 O1141 2.419 . S
Eu1092 O1143 2.380 . S
Eu1092 O1144 2.432 . S
Eu1092 C1156 2.848 . S
C1093 C1096 1.429 . S
C1093 C1097 1.411 . S
C1093 N1100 1.377 . S
C1094 C1096 1.420 . S
C1094 C1098 1.423 . S
C1094 C1106 1.392 . S
C1095 C1097 1.420 . S
C1095 C1098 1.351 . S
C1095 H1118 0.931 . S
C1096 C1093 1.429 . S
C1096 C1094 1.420 . S
C1096 N1104 1.362 . S
C1097 C1093 1.411 . S
C1097 C1095 1.420 . S
C1097 C1102 1.395 . S
C1098 C1094 1.423 . S
C1098 C1095 1.351 . S
C1098 H1110 0.930 . S
C1099 C1101 1.400 . S
C1099 C1102 1.386 . S
C1099 H1111 0.930 . S
N1100 C1093 1.377 . S
N1100 C1101 1.321 . S
N1100 Eu1103 2.609 . S
C1101 C1099 1.400 . S
C1101 N1100 1.321 . S
C1101 H1108 0.930 . S
C1102 C1097 1.395 . S
C1102 C1099 1.386 . S
C1102 H1121 0.930 . S
Eu1103 N1100 2.609 . S
Eu1103 N1104 2.657 . S
Eu1103 O1137 2.380 . S
Eu1103 O1138 2.432 . S
Eu1103 O1142 2.558 . S
Eu1103 O1143 2.612 . S
Eu1103 O1145 2.339 . S
Eu1103 O1146 2.563 . S
Eu1103 O1147 2.419 . S
Eu1103 C1167 2.848 . S
N1104 C1096 1.362 . S
N1104 Eu1103 2.657 . S
N1104 C1105 1.334 . S
C1105 N1104 1.334 . S
C1105 C1107 1.413 . S
C1105 H1112 0.929 . S
C1106 C1094 1.392 . S
C1106 C1107 1.367 . S
C1106 H1114 0.930 . S
C1107 C1105 1.413 . S
C1107 C1106 1.367 . S
C1107 H1109 0.930 . S
H1108 C1101 0.930 . S
H1109 C1107 0.930 . S
H1110 C1098 0.930 . S
H1111 C1099 0.930 . S
H1112 C1105 0.929 . S
H1113 C1127 0.930 . S
H1114 C1106 0.930 . S
H1115 C1133 0.930 . S
H1116 C1124 0.929 . S
H1117 C1131 0.930 . S
H1118 C1095 0.931 . S
H1119 C1125 0.930 . S
H1120 C1158 0.930 . S
H1121 C1102 0.930 . S
H1122 C1157 0.931 . S
N1123 Eu1092 2.657 . S
N1123 C1124 1.334 . S
N1123 C1128 1.362 . S
C1124 H1116 0.929 . S
C1124 N1123 1.334 . S
C1124 C1127 1.413 . S
C1125 H1119 0.930 . S
C1125 C1126 1.392 . S
C1125 C1127 1.367 . S
C1126 C1125 1.392 . S
C1126 C1128 1.420 . S
C1126 C1158 1.423 . S
C1127 H1113 0.930 . S
C1127 C1124 1.413 . S
C1127 C1125 1.367 . S
C1128 N1123 1.362 . S
C1128 C1126 1.420 . S
C1128 C1132 1.429 . S
H1129 C1134 0.930 . S
N1130 Eu1092 2.609 . S
N1130 C1132 1.377 . S
N1130 C1133 1.321 . S
C1131 H1117 0.930 . S
C1131 C1133 1.400 . S
C1131 C1134 1.386 . S
C1132 C1128 1.429 . S
C1132 N1130 1.377 . S
C1132 C1135 1.411 . S
C1133 H1115 0.930 . S
C1133 N1130 1.321 . S
C1133 C1131 1.400 . S
C1134 H1129 0.930 . S
C1134 C1131 1.386 . S
C1134 C1135 1.395 . S
C1135 C1132 1.411 . S
C1135 C1134 1.395 . S
C1135 C1157 1.420 . S
O1136 Eu1092 2.558 . S
O1136 C1156 1.257 . S
O1137 Eu1092 2.612 . S
O1137 Eu1103 2.380 . S
O1137 C1148 1.276 . S
O1138 Eu1103 2.432 . S
O1138 C1155 1.264 . S
O1139 Eu1092 2.339 . S
O1139 C1155 1.254 . S
O1140 Eu1092 2.563 . S
O1140 C1148 1.235 . S
O1141 Eu1092 2.419 . S
O1141 C1156 1.249 . S
O1142 Eu1103 2.558 . S
O1142 C1167 1.257 . S
O1143 Eu1092 2.380 . S
O1143 Eu1103 2.612 . S
O1143 C1159 1.276 . S
O1144 Eu1092 2.432 . S
O1144 C1166 1.264 . S
O1145 Eu1103 2.339 . S
O1145 C1166 1.254 . S
O1146 Eu1103 2.563 . S
O1146 C1159 1.235 . S
O1147 Eu1103 2.419 . S
O1147 C1167 1.249 . S
C1148 O1137 1.276 . S
C1148 O1140 1.235 . S
C1149 C1151 1.393 . S
C1149 C1153 1.395 . S
C1149 C1156 1.492 . S
C1150 C1151 1.392 . S
C1150 C1152 1.386 . S
C1151 C1149 1.393 . S
C1151 C1150 1.392 . S
C1151 H1168 0.930 . S
C1152 C1150 1.386 . S
C1152 C1154 1.395 . S
C1152 H1169 0.930 . S
C1153 C1149 1.395 . S
C1153 C1154 1.379 . S
C1153 H1170 0.930 . S
C1154 C1152 1.395 . S
C1154 C1153 1.379 . S
C1154 H1171 0.930 . S
C1155 O1138 1.264 . S
C1155 O1139 1.254 . S
C1156 Eu1092 2.848 . S
C1156 O1136 1.257 . S
C1156 O1141 1.249 . S
C1156 C1149 1.492 . S
C1157 H1122 0.931 . S
C1157 C1135 1.420 . S
C1157 C1158 1.351 . S
C1158 H1120 0.930 . S
C1158 C1126 1.423 . S
C1158 C1157 1.351 . S
C1159 O1143 1.276 . S
C1159 O1146 1.235 . S
C1160 C1161 1.393 . S
C1160 C1164 1.395 . S
C1160 C1167 1.492 . S
C1161 C1160 1.393 . S
C1161 C1162 1.392 . S
C1161 H1172 0.930 . S
C1162 C1161 1.392 . S
C1162 C1163 1.386 . S
C1163 C1162 1.386 . S
C1163 C1165 1.395 . S
C1163 H1173 0.930 . S
C1164 C1160 1.395 . S
C1164 C1165 1.379 . S
C1164 H1174 0.930 . S
C1165 C1163 1.395 . S
C1165 C1164 1.379 . S
C1165 H1175 0.930 . S
C1166 O1144 1.264 . S
C1166 O1145 1.254 . S
C1167 Eu1103 2.848 . S
C1167 O1142 1.257 . S
C1167 O1147 1.249 . S
C1167 C1160 1.492 . S
H1168 C1151 0.930 . S
H1169 C1152 0.930 . S
H1170 C1153 0.930 . S
H1171 C1154 0.930 . S
H1172 C1161 0.930 . S
H1173 C1163 0.930 . S
H1174 C1164 0.930 . S
H1175 C1165 0.930 . S
Eu1176 N1207 2.657 . S
Eu1176 N1214 2.609 . S
Eu1176 O1220 2.558 . S
Eu1176 O1221 2.612 . S
Eu1176 O1223 2.339 . S
Eu1176 O1224 2.563 . S
Eu1176 O1225 2.419 . S
Eu1176 O1227 2.380 . S
Eu1176 O1228 2.432 . S
Eu1176 C1240 2.848 . S
C1177 C1180 1.429 . S
C1177 C1181 1.411 1_455 S
C1177 N1184 1.377 . S
C1178 C1180 1.420 1_655 S
C1178 C1182 1.423 . S
C1178 C1190 1.392 . S
C1179 C1181 1.420 . S
C1179 C1182 1.351 . S
C1179 H1202 0.931 . S
C1180 C1177 1.429 . S
C1180 C1178 1.420 1_455 S
C1180 N1188 1.362 . S
C1181 C1177 1.411 1_655 S
C1181 C1179 1.420 . S
C1181 C1186 1.395 . S
C1182 C1178 1.423 . S
C1182 C1179 1.351 . S
C1182 H1194 0.930 . S
C1183 C1185 1.400 . S
C1183 C1186 1.386 1_455 S
C1183 H1195 0.930 . S
N1184 C1177 1.377 . S
N1184 C1185 1.321 . S
N1184 Eu1187 2.609 . S
C1185 C1183 1.400 . S
C1185 N1184 1.321 . S
C1185 H1192 0.930 . S
C1186 C1181 1.395 . S
C1186 C1183 1.386 1_655 S
C1186 H1205 0.930 . S
Eu1187 N1184 2.609 . S
Eu1187 N1188 2.657 . S
Eu1187 O1221 2.380 . S
Eu1187 O1222 2.432 . S
Eu1187 O1226 2.558 . S
Eu1187 O1227 2.612 . S
Eu1187 O1229 2.339 . S
Eu1187 O1230 2.563 . S
Eu1187 O1231 2.419 . S
Eu1187 C1251 2.848 . S
N1188 C1180 1.362 . S
N1188 Eu1187 2.657 . S
N1188 C1189 1.334 . S
C1189 N1188 1.334 . S
C1189 C1191 1.413 1_455 S
C1189 H1196 0.929 . S
C1190 C1178 1.392 . S
C1190 C1191 1.367 . S
C1190 H1198 0.930 . S
C1191 C1189 1.413 1_655 S
C1191 C1190 1.367 . S
C1191 H1193 0.930 . S
H1192 C1185 0.930 . S
H1193 C1191 0.930 . S
H1194 C1182 0.930 . S
H1195 C1183 0.930 . S
H1196 C1189 0.929 . S
H1197 C1211 0.930 . S
H1198 C1190 0.930 . S
H1199 C1217 0.930 . S
H1200 C1208 0.929 . S
H1201 C1215 0.930 . S
H1202 C1179 0.931 . S
H1203 C1209 0.930 . S
H1204 C1242 0.930 . S
H1205 C1186 0.930 . S
H1206 C1241 0.931 . S
N1207 Eu1176 2.657 . S
N1207 C1208 1.334 . S
N1207 C1212 1.362 . S
C1208 H1200 0.929 . S
C1208 N1207 1.334 . S
C1208 C1211 1.413 . S
C1209 H1203 0.930 . S
C1209 C1210 1.392 . S
C1209 C1211 1.367 . S
C1210 C1209 1.392 . S
C1210 C1212 1.420 . S
C1210 C1242 1.423 . S
C1211 H1197 0.930 . S
C1211 C1208 1.413 . S
C1211 C1209 1.367 . S
C1212 N1207 1.362 . S
C1212 C1210 1.420 . S
C1212 C1216 1.429 . S
H1213 C1218 0.930 . S
N1214 Eu1176 2.609 . S
N1214 C1216 1.377 . S
N1214 C1217 1.321 . S
C1215 H1201 0.930 . S
C1215 C1217 1.400 . S
C1215 C1218 1.386 . S
C1216 C1212 1.429 . S
C1216 N1214 1.377 . S
C1216 C1219 1.411 . S
C1217 H1199 0.930 . S
C1217 N1214 1.321 . S
C1217 C1215 1.400 . S
C1218 H1213 0.930 . S
C1218 C1215 1.386 . S
C1218 C1219 1.395 . S
C1219 C1216 1.411 . S
C1219 C1218 1.395 . S
C1219 C1241 1.420 . S
O1220 Eu1176 2.558 . S
O1220 C1240 1.257 . S
O1221 Eu1176 2.612 . S
O1221 Eu1187 2.380 . S
O1221 C1232 1.276 . S
O1222 Eu1187 2.432 . S
O1222 C1239 1.264 . S
O1223 Eu1176 2.339 . S
O1223 C1239 1.254 . S
O1224 Eu1176 2.563 . S
O1224 C1232 1.235 . S
O1225 Eu1176 2.419 . S
O1225 C1240 1.249 . S
O1226 Eu1187 2.558 . S
O1226 C1251 1.257 . S
O1227 Eu1176 2.380 . S
O1227 Eu1187 2.612 . S
O1227 C1243 1.276 . S
O1228 Eu1176 2.432 . S
O1228 C1250 1.264 . S
O1229 Eu1187 2.339 . S
O1229 C1250 1.254 . S
O1230 Eu1187 2.563 . S
O1230 C1243 1.235 . S
O1231 Eu1187 2.419 . S
O1231 C1251 1.249 . S
C1232 O1221 1.276 . S
C1232 O1224 1.235 . S
C1233 C1235 1.393 . S
C1233 C1237 1.395 . S
C1233 C1240 1.492 . S
C1234 C1235 1.392 . S
C1234 C1236 1.386 . S
C1235 C1233 1.393 . S
C1235 C1234 1.392 . S
C1235 H1252 0.930 . S
C1236 C1234 1.386 . S
C1236 C1238 1.395 . S
C1236 H1253 0.930 . S
C1237 C1233 1.395 . S
C1237 C1238 1.379 . S
C1237 H1254 0.930 . S
C1238 C1236 1.395 . S
C1238 C1237 1.379 . S
C1238 H1255 0.930 . S
C1239 O1222 1.264 . S
C1239 O1223 1.254 . S
C1240 Eu1176 2.848 . S
C1240 O1220 1.257 . S
C1240 O1225 1.249 . S
C1240 C1233 1.492 . S
C1241 H1206 0.931 . S
C1241 C1219 1.420 . S
C1241 C1242 1.351 . S
C1242 H1204 0.930 . S
C1242 C1210 1.423 . S
C1242 C1241 1.351 . S
C1243 O1227 1.276 . S
C1243 O1230 1.235 . S
C1244 C1245 1.393 . S
C1244 C1248 1.395 . S
C1244 C1251 1.492 . S
C1245 C1244 1.393 . S
C1245 C1246 1.392 . S
C1245 H1256 0.930 . S
C1246 C1245 1.392 . S
C1246 C1247 1.386 . S
C1247 C1246 1.386 . S
C1247 C1249 1.395 . S
C1247 H1257 0.930 . S
C1248 C1244 1.395 . S
C1248 C1249 1.379 . S
C1248 H1258 0.930 . S
C1249 C1247 1.395 . S
C1249 C1248 1.379 . S
C1249 H1259 0.930 . S
C1250 O1228 1.264 . S
C1250 O1229 1.254 . S
C1251 Eu1187 2.848 . S
C1251 O1226 1.257 . S
C1251 O1231 1.249 . S
C1251 C1244 1.492 . S
H1252 C1235 0.930 . S
H1253 C1236 0.930 . S
H1254 C1237 0.930 . S
H1255 C1238 0.930 . S
H1256 C1245 0.930 . S
H1257 C1247 0.930 . S
H1258 C1248 0.930 . S
H1259 C1249 0.930 . S
Eu1260 N1291 2.657 . S
Eu1260 N1298 2.609 . S
Eu1260 O1304 2.558 . S
Eu1260 O1305 2.612 . S
Eu1260 O1307 2.339 . S
Eu1260 O1308 2.563 . S
Eu1260 O1309 2.419 . S
Eu1260 O1311 2.380 . S
Eu1260 O1312 2.432 . S
Eu1260 C1324 2.848 . S
C1261 C1264 1.429 . S
C1261 C1265 1.411 . S
C1261 N1268 1.377 . S
C1262 C1264 1.420 . S
C1262 C1266 1.423 . S
C1262 C1274 1.392 . S
C1263 C1265 1.420 . S
C1263 C1266 1.351 . S
C1263 H1286 0.931 . S
C1264 C1261 1.429 . S
C1264 C1262 1.420 . S
C1264 N1272 1.362 . S
C1265 C1261 1.411 . S
C1265 C1263 1.420 . S
C1265 C1270 1.395 . S
C1266 C1262 1.423 . S
C1266 C1263 1.351 . S
C1266 H1278 0.930 . S
C1267 C1269 1.400 . S
C1267 C1270 1.386 . S
C1267 H1279 0.930 . S
N1268 C1261 1.377 . S
N1268 C1269 1.321 . S
N1268 Eu1271 2.609 . S
C1269 C1267 1.400 . S
C1269 N1268 1.321 . S
C1269 H1276 0.930 . S
C1270 C1265 1.395 . S
C1270 C1267 1.386 . S
C1270 H1289 0.930 . S
Eu1271 N1268 2.609 . S
Eu1271 N1272 2.657 . S
Eu1271 O1305 2.380 . S
Eu1271 O1306 2.432 . S
Eu1271 O1310 2.558 . S
Eu1271 O1311 2.612 . S
Eu1271 O1313 2.339 . S
Eu1271 O1314 2.563 . S
Eu1271 O1315 2.419 . S
Eu1271 C1335 2.848 . S
N1272 C1264 1.362 . S
N1272 Eu1271 2.657 . S
N1272 C1273 1.334 . S
C1273 N1272 1.334 . S
C1273 C1275 1.413 . S
C1273 H1280 0.929 . S
C1274 C1262 1.392 . S
C1274 C1275 1.367 . S
C1274 H1282 0.930 . S
C1275 C1273 1.413 . S
C1275 C1274 1.367 . S
C1275 H1277 0.930 . S
H1276 C1269 0.930 . S
H1277 C1275 0.930 . S
H1278 C1266 0.930 . S
H1279 C1267 0.930 . S
H1280 C1273 0.929 . S
H1281 C1295 0.930 . S
H1282 C1274 0.930 . S
H1283 C1301 0.930 . S
H1284 C1292 0.929 . S
H1285 C1299 0.930 . S
H1286 C1263 0.931 . S
H1287 C1293 0.930 . S
H1288 C1326 0.930 . S
H1289 C1270 0.930 . S
H1290 C1325 0.931 . S
N1291 Eu1260 2.657 . S
N1291 C1292 1.334 . S
N1291 C1296 1.362 . S
C1292 H1284 0.929 . S
C1292 N1291 1.334 . S
C1292 C1295 1.413 . S
C1293 H1287 0.930 . S
C1293 C1294 1.392 . S
C1293 C1295 1.367 . S
C1294 C1293 1.392 . S
C1294 C1296 1.420 . S
C1294 C1326 1.423 . S
C1295 H1281 0.930 . S
C1295 C1292 1.413 . S
C1295 C1293 1.367 . S
C1296 N1291 1.362 . S
C1296 C1294 1.420 . S
C1296 C1300 1.429 . S
H1297 C1302 0.930 . S
N1298 Eu1260 2.609 . S
N1298 C1300 1.377 . S
N1298 C1301 1.321 . S
C1299 H1285 0.930 . S
C1299 C1301 1.400 . S
C1299 C1302 1.386 . S
C1300 C1296 1.429 . S
C1300 N1298 1.377 . S
C1300 C1303 1.411 . S
C1301 H1283 0.930 . S
C1301 N1298 1.321 . S
C1301 C1299 1.400 . S
C1302 H1297 0.930 . S
C1302 C1299 1.386 . S
C1302 C1303 1.395 . S
C1303 C1300 1.411 . S
C1303 C1302 1.395 . S
C1303 C1325 1.420 . S
O1304 Eu1260 2.558 . S
O1304 C1324 1.257 . S
O1305 Eu1260 2.612 . S
O1305 Eu1271 2.380 . S
O1305 C1316 1.276 . S
O1306 Eu1271 2.432 . S
O1306 C1323 1.264 . S
O1307 Eu1260 2.339 . S
O1307 C1323 1.254 . S
O1308 Eu1260 2.563 . S
O1308 C1316 1.235 . S
O1309 Eu1260 2.419 . S
O1309 C1324 1.249 . S
O1310 Eu1271 2.558 . S
O1310 C1335 1.257 . S
O1311 Eu1260 2.380 . S
O1311 Eu1271 2.612 . S
O1311 C1327 1.276 . S
O1312 Eu1260 2.432 . S
O1312 C1334 1.264 . S
O1313 Eu1271 2.339 . S
O1313 C1334 1.254 . S
O1314 Eu1271 2.563 . S
O1314 C1327 1.235 . S
O1315 Eu1271 2.419 . S
O1315 C1335 1.249 . S
C1316 O1305 1.276 . S
C1316 O1308 1.235 . S
C1317 C1319 1.393 . S
C1317 C1321 1.395 . S
C1317 C1324 1.492 . S
C1318 C1319 1.392 . S
C1318 C1320 1.386 . S
C1319 C1317 1.393 . S
C1319 C1318 1.392 . S
C1319 H1336 0.930 . S
C1320 C1318 1.386 . S
C1320 C1322 1.395 . S
C1320 H1337 0.930 . S
C1321 C1317 1.395 . S
C1321 C1322 1.379 . S
C1321 H1338 0.930 . S
C1322 C1320 1.395 . S
C1322 C1321 1.379 . S
C1322 H1339 0.930 . S
C1323 O1306 1.264 . S
C1323 O1307 1.254 . S
C1324 Eu1260 2.848 . S
C1324 O1304 1.257 . S
C1324 O1309 1.249 . S
C1324 C1317 1.492 . S
C1325 H1290 0.931 . S
C1325 C1303 1.420 . S
C1325 C1326 1.351 . S
C1326 H1288 0.930 . S
C1326 C1294 1.423 . S
C1326 C1325 1.351 . S
C1327 O1311 1.276 . S
C1327 O1314 1.235 . S
C1328 C1329 1.393 . S
C1328 C1332 1.395 . S
C1328 C1335 1.492 . S
C1329 C1328 1.393 . S
C1329 C1330 1.392 . S
C1329 H1340 0.930 . S
C1330 C1329 1.392 . S
C1330 C1331 1.386 . S
C1331 C1330 1.386 . S
C1331 C1333 1.395 . S
C1331 H1341 0.930 . S
C1332 C1328 1.395 . S
C1332 C1333 1.379 . S
C1332 H1342 0.930 . S
C1333 C1331 1.395 . S
C1333 C1332 1.379 . S
C1333 H1343 0.930 . S
C1334 O1312 1.264 . S
C1334 O1313 1.254 . S
C1335 Eu1271 2.848 . S
C1335 O1310 1.257 . S
C1335 O1315 1.249 . S
C1335 C1328 1.492 . S
H1336 C1319 0.930 . S
H1337 C1320 0.930 . S
H1338 C1321 0.930 . S
H1339 C1322 0.930 . S
H1340 C1329 0.930 . S
H1341 C1331 0.930 . S
H1342 C1332 0.930 . S
H1343 C1333 0.930 . S
Eu1344 N1375 2.657 . S
Eu1344 N1382 2.609 . S
Eu1344 O1388 2.558 . S
Eu1344 O1389 2.612 . S
Eu1344 O1391 2.339 . S
Eu1344 O1392 2.563 . S
Eu1344 O1393 2.419 . S
Eu1344 O1395 2.380 . S
Eu1344 O1396 2.432 . S
Eu1344 C1408 2.848 . S
C1345 C1348 1.429 . S
C1345 C1349 1.411 . S
C1345 N1352 1.377 . S
C1346 C1348 1.420 . S
C1346 C1350 1.423 . S
C1346 C1358 1.392 . S
C1347 C1349 1.420 . S
C1347 C1350 1.351 . S
C1347 H1370 0.931 . S
C1348 C1345 1.429 . S
C1348 C1346 1.420 . S
C1348 N1356 1.362 . S
C1349 C1345 1.411 . S
C1349 C1347 1.420 . S
C1349 C1354 1.395 . S
C1350 C1346 1.423 . S
C1350 C1347 1.351 . S
C1350 H1362 0.930 . S
C1351 C1353 1.400 . S
C1351 C1354 1.386 . S
C1351 H1363 0.930 . S
N1352 C1345 1.377 . S
N1352 C1353 1.321 . S
N1352 Eu1355 2.609 . S
C1353 C1351 1.400 . S
C1353 N1352 1.321 . S
C1353 H1360 0.930 . S
C1354 C1349 1.395 . S
C1354 C1351 1.386 . S
C1354 H1373 0.930 . S
Eu1355 N1352 2.609 . S
Eu1355 N1356 2.657 . S
Eu1355 O1389 2.380 . S
Eu1355 O1390 2.432 . S
Eu1355 O1394 2.558 . S
Eu1355 O1395 2.612 . S
Eu1355 O1397 2.339 . S
Eu1355 O1398 2.563 . S
Eu1355 O1399 2.419 . S
Eu1355 C1419 2.848 . S
N1356 C1348 1.362 . S
N1356 Eu1355 2.657 . S
N1356 C1357 1.334 . S
C1357 N1356 1.334 . S
C1357 C1359 1.413 . S
C1357 H1364 0.929 . S
C1358 C1346 1.392 . S
C1358 C1359 1.367 . S
C1358 H1366 0.930 . S
C1359 C1357 1.413 . S
C1359 C1358 1.367 . S
C1359 H1361 0.930 . S
H1360 C1353 0.930 . S
H1361 C1359 0.930 . S
H1362 C1350 0.930 . S
H1363 C1351 0.930 . S
H1364 C1357 0.929 . S
H1365 C1379 0.930 . S
H1366 C1358 0.930 . S
H1367 C1385 0.930 . S
H1368 C1376 0.929 . S
H1369 C1383 0.930 . S
H1370 C1347 0.931 . S
H1371 C1377 0.930 . S
H1372 C1410 0.930 . S
H1373 C1354 0.930 . S
H1374 C1409 0.931 . S
N1375 Eu1344 2.657 . S
N1375 C1376 1.334 . S
N1375 C1380 1.362 . S
C1376 H1368 0.929 . S
C1376 N1375 1.334 . S
C1376 C1379 1.413 . S
C1377 H1371 0.930 . S
C1377 C1378 1.392 . S
C1377 C1379 1.367 . S
C1378 C1377 1.392 . S
C1378 C1380 1.420 . S
C1378 C1410 1.423 . S
C1379 H1365 0.930 . S
C1379 C1376 1.413 . S
C1379 C1377 1.367 . S
C1380 N1375 1.362 . S
C1380 C1378 1.420 . S
C1380 C1384 1.429 . S
H1381 C1386 0.930 . S
N1382 Eu1344 2.609 . S
N1382 C1384 1.377 . S
N1382 C1385 1.321 . S
C1383 H1369 0.930 . S
C1383 C1385 1.400 . S
C1383 C1386 1.386 . S
C1384 C1380 1.429 . S
C1384 N1382 1.377 . S
C1384 C1387 1.411 . S
C1385 H1367 0.930 . S
C1385 N1382 1.321 . S
C1385 C1383 1.400 . S
C1386 H1381 0.930 . S
C1386 C1383 1.386 . S
C1386 C1387 1.395 . S
C1387 C1384 1.411 . S
C1387 C1386 1.395 . S
C1387 C1409 1.420 . S
O1388 Eu1344 2.558 . S
O1388 C1408 1.257 . S
O1389 Eu1344 2.612 . S
O1389 Eu1355 2.380 . S
O1389 C1400 1.276 . S
O1390 Eu1355 2.432 . S
O1390 C1407 1.264 . S
O1391 Eu1344 2.339 . S
O1391 C1407 1.254 . S
O1392 Eu1344 2.563 . S
O1392 C1400 1.235 . S
O1393 Eu1344 2.419 . S
O1393 C1408 1.249 . S
O1394 Eu1355 2.558 . S
O1394 C1419 1.257 . S
O1395 Eu1344 2.380 . S
O1395 Eu1355 2.612 . S
O1395 C1411 1.276 . S
O1396 Eu1344 2.432 . S
O1396 C1418 1.264 . S
O1397 Eu1355 2.339 . S
O1397 C1418 1.254 . S
O1398 Eu1355 2.563 . S
O1398 C1411 1.235 . S
O1399 Eu1355 2.419 . S
O1399 C1419 1.249 . S
C1400 O1389 1.276 . S
C1400 O1392 1.235 . S
C1401 C1403 1.393 . S
C1401 C1405 1.395 . S
C1401 C1408 1.492 . S
C1402 C1403 1.392 . S
C1402 C1404 1.386 . S
C1403 C1401 1.393 . S
C1403 C1402 1.392 . S
C1403 H1420 0.930 . S
C1404 C1402 1.386 . S
C1404 C1406 1.395 . S
C1404 H1421 0.930 . S
C1405 C1401 1.395 . S
C1405 C1406 1.379 . S
C1405 H1422 0.930 . S
C1406 C1404 1.395 . S
C1406 C1405 1.379 . S
C1406 H1423 0.930 . S
C1407 O1390 1.264 . S
C1407 O1391 1.254 . S
C1408 Eu1344 2.848 . S
C1408 O1388 1.257 . S
C1408 O1393 1.249 . S
C1408 C1401 1.492 . S
C1409 H1374 0.931 . S
C1409 C1387 1.420 . S
C1409 C1410 1.351 . S
C1410 H1372 0.930 . S
C1410 C1378 1.423 . S
C1410 C1409 1.351 . S
C1411 O1395 1.276 . S
C1411 O1398 1.235 . S
C1412 C1413 1.393 . S
C1412 C1416 1.395 . S
C1412 C1419 1.492 . S
C1413 C1412 1.393 . S
C1413 C1414 1.392 . S
C1413 H1424 0.930 . S
C1414 C1413 1.392 . S
C1414 C1415 1.386 . S
C1415 C1414 1.386 . S
C1415 C1417 1.395 . S
C1415 H1425 0.930 . S
C1416 C1412 1.395 . S
C1416 C1417 1.379 . S
C1416 H1426 0.930 . S
C1417 C1415 1.395 . S
C1417 C1416 1.379 . S
C1417 H1427 0.930 . S
C1418 O1396 1.264 . S
C1418 O1397 1.254 . S
C1419 Eu1355 2.848 . S
C1419 O1394 1.257 . S
C1419 O1399 1.249 . S
C1419 C1412 1.492 . S
H1420 C1403 0.930 . S
H1421 C1404 0.930 . S
H1422 C1405 0.930 . S
H1423 C1406 0.930 . S
H1424 C1413 0.930 . S
H1425 C1415 0.930 . S
H1426 C1416 0.930 . S
H1427 C1417 0.930 . S
Eu1428 N1459 2.657 . S
Eu1428 N1466 2.609 . S
Eu1428 O1472 2.558 . S
Eu1428 O1473 2.612 . S
Eu1428 O1475 2.339 . S
Eu1428 O1476 2.563 . S
Eu1428 O1477 2.419 . S
Eu1428 O1479 2.380 . S
Eu1428 O1480 2.432 . S
Eu1428 C1492 2.848 . S
C1429 C1432 1.429 . S
C1429 C1433 1.411 . S
C1429 N1436 1.377 . S
C1430 C1432 1.420 . S
C1430 C1434 1.423 . S
C1430 C1442 1.392 . S
C1431 C1433 1.420 . S
C1431 C1434 1.351 . S
C1431 H1454 0.931 . S
C1432 C1429 1.429 . S
C1432 C1430 1.420 . S
C1432 N1440 1.362 . S
C1433 C1429 1.411 . S
C1433 C1431 1.420 . S
C1433 C1438 1.395 . S
C1434 C1430 1.423 . S
C1434 C1431 1.351 . S
C1434 H1446 0.930 . S
C1435 C1437 1.400 . S
C1435 C1438 1.386 . S
C1435 H1447 0.930 . S
N1436 C1429 1.377 . S
N1436 C1437 1.321 . S
N1436 Eu1439 2.609 . S
C1437 C1435 1.400 . S
C1437 N1436 1.321 . S
C1437 H1444 0.930 . S
C1438 C1433 1.395 . S
C1438 C1435 1.386 . S
C1438 H1457 0.930 . S
Eu1439 N1436 2.609 . S
Eu1439 N1440 2.657 . S
Eu1439 O1473 2.380 . S
Eu1439 O1474 2.432 . S
Eu1439 O1478 2.558 . S
Eu1439 O1479 2.612 . S
Eu1439 O1481 2.339 . S
Eu1439 O1482 2.563 . S
Eu1439 O1483 2.419 . S
Eu1439 C1503 2.848 . S
N1440 C1432 1.362 . S
N1440 Eu1439 2.657 . S
N1440 C1441 1.334 . S
C1441 N1440 1.334 . S
C1441 C1443 1.413 . S
C1441 H1448 0.929 . S
C1442 C1430 1.392 . S
C1442 C1443 1.367 . S
C1442 H1450 0.930 . S
C1443 C1441 1.413 . S
C1443 C1442 1.367 . S
C1443 H1445 0.930 . S
H1444 C1437 0.930 . S
H1445 C1443 0.930 . S
H1446 C1434 0.930 . S
H1447 C1435 0.930 . S
H1448 C1441 0.929 . S
H1449 C1463 0.930 . S
H1450 C1442 0.930 . S
H1451 C1469 0.930 . S
H1452 C1460 0.929 . S
H1453 C1467 0.930 . S
H1454 C1431 0.931 . S
H1455 C1461 0.930 . S
H1456 C1494 0.930 . S
H1457 C1438 0.930 . S
H1458 C1493 0.931 . S
N1459 Eu1428 2.657 . S
N1459 C1460 1.334 . S
N1459 C1464 1.362 . S
C1460 H1452 0.929 . S
C1460 N1459 1.334 . S
C1460 C1463 1.413 . S
C1461 H1455 0.930 . S
C1461 C1462 1.392 . S
C1461 C1463 1.367 . S
C1462 C1461 1.392 . S
C1462 C1464 1.420 . S
C1462 C1494 1.423 . S
C1463 H1449 0.930 . S
C1463 C1460 1.413 . S
C1463 C1461 1.367 . S
C1464 N1459 1.362 . S
C1464 C1462 1.420 . S
C1464 C1468 1.429 . S
H1465 C1470 0.930 . S
N1466 Eu1428 2.609 . S
N1466 C1468 1.377 . S
N1466 C1469 1.321 . S
C1467 H1453 0.930 . S
C1467 C1469 1.400 . S
C1467 C1470 1.386 . S
C1468 C1464 1.429 . S
C1468 N1466 1.377 . S
C1468 C1471 1.411 . S
C1469 H1451 0.930 . S
C1469 N1466 1.321 . S
C1469 C1467 1.400 . S
C1470 H1465 0.930 . S
C1470 C1467 1.386 . S
C1470 C1471 1.395 . S
C1471 C1468 1.411 . S
C1471 C1470 1.395 . S
C1471 C1493 1.420 . S
O1472 Eu1428 2.558 . S
O1472 C1492 1.257 . S
O1473 Eu1428 2.612 . S
O1473 Eu1439 2.380 . S
O1473 C1484 1.276 . S
O1474 Eu1439 2.432 . S
O1474 C1491 1.264 . S
O1475 Eu1428 2.339 . S
O1475 C1491 1.254 . S
O1476 Eu1428 2.563 . S
O1476 C1484 1.235 . S
O1477 Eu1428 2.419 . S
O1477 C1492 1.249 . S
O1478 Eu1439 2.558 . S
O1478 C1503 1.257 . S
O1479 Eu1428 2.380 . S
O1479 Eu1439 2.612 . S
O1479 C1495 1.276 . S
O1480 Eu1428 2.432 . S
O1480 C1502 1.264 . S
O1481 Eu1439 2.339 . S
O1481 C1502 1.254 . S
O1482 Eu1439 2.563 . S
O1482 C1495 1.235 . S
O1483 Eu1439 2.419 . S
O1483 C1503 1.249 . S
C1484 O1473 1.276 . S
C1484 O1476 1.235 . S
C1485 C1487 1.393 . S
C1485 C1489 1.395 . S
C1485 C1492 1.492 . S
C1486 C1487 1.392 . S
C1486 C1488 1.386 . S
C1487 C1485 1.393 . S
C1487 C1486 1.392 . S
C1487 H1504 0.930 . S
C1488 C1486 1.386 . S
C1488 C1490 1.395 . S
C1488 H1505 0.930 . S
C1489 C1485 1.395 . S
C1489 C1490 1.379 . S
C1489 H1506 0.930 . S
C1490 C1488 1.395 . S
C1490 C1489 1.379 . S
C1490 H1507 0.930 . S
C1491 O1474 1.264 . S
C1491 O1475 1.254 . S
C1492 Eu1428 2.848 . S
C1492 O1472 1.257 . S
C1492 O1477 1.249 . S
C1492 C1485 1.492 . S
C1493 H1458 0.931 . S
C1493 C1471 1.420 . S
C1493 C1494 1.351 . S
C1494 H1456 0.930 . S
C1494 C1462 1.423 . S
C1494 C1493 1.351 . S
C1495 O1479 1.276 . S
C1495 O1482 1.235 . S
C1496 C1497 1.393 . S
C1496 C1500 1.395 . S
C1496 C1503 1.492 . S
C1497 C1496 1.393 . S
C1497 C1498 1.392 . S
C1497 H1508 0.930 . S
C1498 C1497 1.392 . S
C1498 C1499 1.386 . S
C1499 C1498 1.386 . S
C1499 C1501 1.395 . S
C1499 H1509 0.930 . S
C1500 C1496 1.395 . S
C1500 C1501 1.379 . S
C1500 H1510 0.930 . S
C1501 C1499 1.395 . S
C1501 C1500 1.379 . S
C1501 H1511 0.930 . S
C1502 O1480 1.264 . S
C1502 O1481 1.254 . S
C1503 Eu1439 2.848 . S
C1503 O1478 1.257 . S
C1503 O1483 1.249 . S
C1503 C1496 1.492 . S
H1504 C1487 0.930 . S
H1505 C1488 0.930 . S
H1506 C1489 0.930 . S
H1507 C1490 0.930 . S
H1508 C1497 0.930 . S
H1509 C1499 0.930 . S
H1510 C1500 0.930 . S
H1511 C1501 0.930 . S
Eu1512 N1543 2.657 . S
Eu1512 N1550 2.609 . S
Eu1512 O1556 2.558 . S
Eu1512 O1557 2.612 . S
Eu1512 O1559 2.339 . S
Eu1512 O1560 2.563 . S
Eu1512 O1561 2.419 . S
Eu1512 O1563 2.380 . S
Eu1512 O1564 2.432 . S
Eu1512 C1576 2.848 . S
C1513 C1516 1.429 . S
C1513 C1517 1.411 . S
C1513 N1520 1.377 . S
C1514 C1516 1.420 . S
C1514 C1518 1.423 . S
C1514 C1526 1.392 . S
C1515 C1517 1.420 . S
C1515 C1518 1.351 . S
C1515 H1538 0.931 . S
C1516 C1513 1.429 . S
C1516 C1514 1.420 . S
C1516 N1524 1.362 . S
C1517 C1513 1.411 . S
C1517 C1515 1.420 . S
C1517 C1522 1.395 . S
C1518 C1514 1.423 . S
C1518 C1515 1.351 . S
C1518 H1530 0.930 . S
C1519 C1521 1.400 . S
C1519 C1522 1.386 . S
C1519 H1531 0.930 . S
N1520 C1513 1.377 . S
N1520 C1521 1.321 . S
N1520 Eu1523 2.609 . S
C1521 C1519 1.400 . S
C1521 N1520 1.321 . S
C1521 H1528 0.930 . S
C1522 C1517 1.395 . S
C1522 C1519 1.386 . S
C1522 H1541 0.930 . S
Eu1523 N1520 2.609 . S
Eu1523 N1524 2.657 . S
Eu1523 O1557 2.380 . S
Eu1523 O1558 2.432 . S
Eu1523 O1562 2.558 . S
Eu1523 O1563 2.612 . S
Eu1523 O1565 2.339 . S
Eu1523 O1566 2.563 . S
Eu1523 O1567 2.419 . S
Eu1523 C1587 2.848 . S
N1524 C1516 1.362 . S
N1524 Eu1523 2.657 . S
N1524 C1525 1.334 . S
C1525 N1524 1.334 . S
C1525 C1527 1.413 . S
C1525 H1532 0.929 . S
C1526 C1514 1.392 . S
C1526 C1527 1.367 . S
C1526 H1534 0.930 . S
C1527 C1525 1.413 . S
C1527 C1526 1.367 . S
C1527 H1529 0.930 . S
H1528 C1521 0.930 . S
H1529 C1527 0.930 . S
H1530 C1518 0.930 . S
H1531 C1519 0.930 . S
H1532 C1525 0.929 . S
H1533 C1547 0.930 . S
H1534 C1526 0.930 . S
H1535 C1553 0.930 . S
H1536 C1544 0.929 . S
H1537 C1551 0.930 . S
H1538 C1515 0.931 . S
H1539 C1545 0.930 . S
H1540 C1578 0.930 . S
H1541 C1522 0.930 . S
H1542 C1577 0.931 . S
N1543 Eu1512 2.657 . S
N1543 C1544 1.334 . S
N1543 C1548 1.362 . S
C1544 H1536 0.929 . S
C1544 N1543 1.334 . S
C1544 C1547 1.413 . S
C1545 H1539 0.930 . S
C1545 C1546 1.392 . S
C1545 C1547 1.367 . S
C1546 C1545 1.392 . S
C1546 C1548 1.420 . S
C1546 C1578 1.423 . S
C1547 H1533 0.930 . S
C1547 C1544 1.413 . S
C1547 C1545 1.367 . S
C1548 N1543 1.362 . S
C1548 C1546 1.420 . S
C1548 C1552 1.429 . S
H1549 C1554 0.930 . S
N1550 Eu1512 2.609 . S
N1550 C1552 1.377 . S
N1550 C1553 1.321 . S
C1551 H1537 0.930 . S
C1551 C1553 1.400 . S
C1551 C1554 1.386 . S
C1552 C1548 1.429 . S
C1552 N1550 1.377 . S
C1552 C1555 1.411 . S
C1553 H1535 0.930 . S
C1553 N1550 1.321 . S
C1553 C1551 1.400 . S
C1554 H1549 0.930 . S
C1554 C1551 1.386 . S
C1554 C1555 1.395 . S
C1555 C1552 1.411 . S
C1555 C1554 1.395 . S
C1555 C1577 1.420 . S
O1556 Eu1512 2.558 . S
O1556 C1576 1.257 . S
O1557 Eu1512 2.612 . S
O1557 Eu1523 2.380 . S
O1557 C1568 1.276 . S
O1558 Eu1523 2.432 . S
O1558 C1575 1.264 . S
O1559 Eu1512 2.339 . S
O1559 C1575 1.254 . S
O1560 Eu1512 2.563 . S
O1560 C1568 1.235 . S
O1561 Eu1512 2.419 . S
O1561 C1576 1.249 . S
O1562 Eu1523 2.558 . S
O1562 C1587 1.257 . S
O1563 Eu1512 2.380 . S
O1563 Eu1523 2.612 . S
O1563 C1579 1.276 . S
O1564 Eu1512 2.432 . S
O1564 C1586 1.264 . S
O1565 Eu1523 2.339 . S
O1565 C1586 1.254 . S
O1566 Eu1523 2.563 . S
O1566 C1579 1.235 . S
O1567 Eu1523 2.419 . S
O1567 C1587 1.249 . S
C1568 O1557 1.276 . S
C1568 O1560 1.235 . S
C1569 C1571 1.393 . S
C1569 C1573 1.395 . S
C1569 C1576 1.492 . S
C1570 C1571 1.392 . S
C1570 C1572 1.386 . S
C1571 C1569 1.393 . S
C1571 C1570 1.392 . S
C1571 H1588 0.930 . S
C1572 C1570 1.386 . S
C1572 C1574 1.395 . S
C1572 H1589 0.930 . S
C1573 C1569 1.395 . S
C1573 C1574 1.379 . S
C1573 H1590 0.930 . S
C1574 C1572 1.395 . S
C1574 C1573 1.379 . S
C1574 H1591 0.930 . S
C1575 O1558 1.264 . S
C1575 O1559 1.254 . S
C1576 Eu1512 2.848 . S
C1576 O1556 1.257 . S
C1576 O1561 1.249 . S
C1576 C1569 1.492 . S
C1577 H1542 0.931 . S
C1577 C1555 1.420 . S
C1577 C1578 1.351 . S
C1578 H1540 0.930 . S
C1578 C1546 1.423 . S
C1578 C1577 1.351 . S
C1579 O1563 1.276 . S
C1579 O1566 1.235 . S
C1580 C1581 1.393 . S
C1580 C1584 1.395 . S
C1580 C1587 1.492 . S
C1581 C1580 1.393 . S
C1581 C1582 1.392 . S
C1581 H1592 0.930 . S
C1582 C1581 1.392 . S
C1582 C1583 1.386 . S
C1583 C1582 1.386 . S
C1583 C1585 1.395 . S
C1583 H1593 0.930 . S
C1584 C1580 1.395 . S
C1584 C1585 1.379 . S
C1584 H1594 0.930 . S
C1585 C1583 1.395 . S
C1585 C1584 1.379 . S
C1585 H1595 0.930 . S
C1586 O1564 1.264 . S
C1586 O1565 1.254 . S
C1587 Eu1523 2.848 . S
C1587 O1562 1.257 . S
C1587 O1567 1.249 . S
C1587 C1580 1.492 . S
H1588 C1571 0.930 . S
H1589 C1572 0.930 . S
H1590 C1573 0.930 . S
H1591 C1574 0.930 . S
H1592 C1581 0.930 . S
H1593 C1583 0.930 . S
H1594 C1584 0.930 . S
H1595 C1585 0.930 . S
Eu1596 N1627 2.657 . S
Eu1596 N1634 2.609 1_554 S
Eu1596 O1640 2.558 1_554 S
Eu1596 O1641 2.612 . S
Eu1596 O1643 2.339 . S
Eu1596 O1644 2.563 . S
Eu1596 O1645 2.419 . S
Eu1596 O1647 2.380 . S
Eu1596 O1648 2.432 1_554 S
Eu1596 C1660 2.833 1_554 S
C1597 C1600 1.429 . S
C1597 C1601 1.411 . S
C1597 N1604 1.377 1_655 S
C1598 C1600 1.420 . S
C1598 C1602 1.423 . S
C1598 C1610 1.396 1_554 S
C1599 C1601 1.420 . S
C1599 C1602 1.351 . S
C1599 H1622 0.931 . S
C1600 C1597 1.429 . S
C1600 C1598 1.420 . S
C1600 N1608 1.362 1_655 S
C1601 C1597 1.411 . S
C1601 C1599 1.420 . S
C1601 C1606 1.395 . S
C1602 C1598 1.423 . S
C1602 C1599 1.351 . S
C1602 H1614 0.930 . S
C1603 C1605 1.400 . S
C1603 C1606 1.386 1_455 S
C1603 H1615 0.930 . S
N1604 C1597 1.377 1_455 S
N1604 C1605 1.321 . S
N1604 Eu1607 2.609 . S
C1605 C1603 1.400 . S
C1605 N1604 1.321 . S
C1605 H1612 0.930 . S
C1606 C1601 1.395 . S
C1606 C1603 1.386 1_655 S
C1606 H1625 0.930 . S
Eu1607 N1604 2.609 . S
Eu1607 N1608 2.657 . S
Eu1607 O1641 2.380 . S
Eu1607 O1642 2.432 . S
Eu1607 O1646 2.558 . S
Eu1607 O1647 2.612 . S
Eu1607 O1649 2.320 1_554 S
Eu1607 O1650 2.563 . S
Eu1607 O1651 2.419 1_455 S
Eu1607 C1671 2.848 1_455 S
N1608 C1600 1.362 1_455 S
N1608 Eu1607 2.657 . S
N1608 C1609 1.334 1_454 S
C1609 N1608 1.334 1_656 S
C1609 C1611 1.413 . S
C1609 H1616 0.929 1_655 S
C1610 C1598 1.396 1_556 S
C1610 C1611 1.364 . S
C1610 H1618 0.929 . S
C1611 C1609 1.413 . S
C1611 C1610 1.364 . S
C1611 H1613 0.930 . S
H1612 C1605 0.930 . S
H1613 C1611 0.930 . S
H1614 C1602 0.930 . S
H1615 C1603 0.930 . S
H1616 C1609 0.929 1_455 S
H1617 C1631 0.930 . S
H1618 C1610 0.929 . S
H1619 C1637 0.930 . S
H1620 C1628 0.929 . S
H1621 C1635 0.930 . S
H1622 C1599 0.931 . S
H1623 C1629 0.930 . S
H1624 C1662 0.930 . S
H1625 C1606 0.930 . S
H1626 C1661 0.931 . S
N1627 Eu1596 2.657 . S
N1627 C1628 1.334 . S
N1627 C1632 1.362 . S
C1628 H1620 0.929 . S
C1628 N1627 1.334 . S
C1628 C1631 1.413 . S
C1629 H1623 0.930 . S
C1629 C1630 1.392 . S
C1629 C1631 1.367 . S
C1630 C1629 1.392 . S
C1630 C1632 1.420 . S
C1630 C1662 1.423 . S
C1631 H1617 0.930 . S
C1631 C1628 1.413 . S
C1631 C1629 1.367 . S
C1632 N1627 1.362 . S
C1632 C1630 1.420 . S
C1632 C1636 1.429 1_554 S
H1633 C1638 0.930 . S
N1634 Eu1596 2.609 1_556 S
N1634 C1636 1.377 . S
N1634 C1637 1.321 . S
C1635 H1621 0.930 . S
C1635 C1637 1.400 . S
C1635 C1638 1.386 . S
C1636 C1632 1.429 1_556 S
C1636 N1634 1.377 . S
C1636 C1639 1.411 . S
C1637 H1619 0.930 . S
C1637 N1634 1.321 . S
C1637 C1635 1.400 . S
C1638 H1633 0.930 . S
C1638 C1635 1.386 . S
C1638 C1639 1.395 . S
C1639 C1636 1.411 . S
C1639 C1638 1.395 . S
C1639 C1661 1.420 . S
O1640 Eu1596 2.558 1_556 S
O1640 C1660 1.304 . S
O1641 Eu1596 2.612 . S
O1641 Eu1607 2.380 . S
O1641 C1652 1.276 . S
O1642 Eu1607 2.432 . S
O1642 C1659 1.264 . S
O1643 Eu1596 2.339 . S
O1643 C1659 1.254 . S
O1644 Eu1596 2.563 . S
O1644 C1652 1.235 . S
O1645 Eu1596 2.419 . S
O1645 C1660 1.192 1_554 S
O1646 Eu1607 2.558 . S
O1646 C1671 1.257 1_455 S
O1647 Eu1596 2.380 . S
O1647 Eu1607 2.612 . S
O1647 C1663 1.276 . S
O1648 Eu1596 2.432 1_556 S
O1648 C1670 1.264 . S
O1649 Eu1607 2.320 1_556 S
O1649 C1670 1.269 . S
O1650 Eu1607 2.563 . S
O1650 C1663 1.235 . S
O1651 Eu1607 2.419 1_655 S
O1651 C1671 1.249 . S
C1652 O1641 1.276 . S
C1652 O1644 1.235 . S
C1653 C1655 1.393 1_556 S
C1653 C1657 1.395 . S
C1653 C1660 1.504 . S
C1654 C1655 1.392 . S
C1654 C1656 1.386 1_554 S
C1655 C1653 1.393 1_554 S
C1655 C1654 1.392 . S
C1655 H1672 0.930 . S
C1656 C1654 1.386 1_556 S
C1656 C1658 1.395 . S
C1656 H1673 0.930 . S
C1657 C1653 1.395 . S
C1657 C1658 1.379 . S
C1657 H1674 0.930 . S
C1658 C1656 1.395 . S
C1658 C1657 1.379 . S
C1658 H1675 0.930 . S
C1659 O1642 1.264 . S
C1659 O1643 1.254 . S
C1660 Eu1596 2.833 1_556 S
C1660 O1640 1.304 . S
C1660 O1645 1.192 1_556 S
C1660 C1653 1.504 . S
C1661 H1626 0.931 . S
C1661 C1639 1.420 . S
C1661 C1662 1.351 1_556 S
C1662 H1624 0.930 . S
C1662 C1630 1.423 . S
C1662 C1661 1.351 1_554 S
C1663 O1647 1.276 . S
C1663 O1650 1.235 . S
C1664 C1665 1.393 . S
C1664 C1668 1.395 . S
C1664 C1671 1.492 . S
C1665 C1664 1.393 . S
C1665 C1666 1.392 . S
C1665 H1676 0.930 . S
C1666 C1665 1.392 . S
C1666 C1667 1.386 . S
C1667 C1666 1.386 . S
C1667 C1669 1.395 . S
C1667 H1677 0.930 . S
C1668 C1664 1.395 . S
C1668 C1669 1.379 . S
C1668 H1678 0.930 . S
C1669 C1667 1.395 . S
C1669 C1668 1.379 . S
C1669 H1679 0.930 . S
C1670 O1648 1.264 . S
C1670 O1649 1.269 . S
C1671 Eu1607 2.848 1_655 S
C1671 O1646 1.257 1_655 S
C1671 O1651 1.249 . S
C1671 C1664 1.492 . S
H1672 C1655 0.930 . S
H1673 C1656 0.930 . S
H1674 C1657 0.930 . S
H1675 C1658 0.930 . S
H1676 C1665 0.930 . S
H1677 C1667 0.930 . S
H1678 C1668 0.930 . S
H1679 C1669 0.930 . S
H1680 C1688 0.929 . S
H1681 C1690 0.930 . S
H1682 C1692 0.930 . S
H1683 C1695 0.929 . S
H1684 C1698 0.898 1_655 S
H1685 C1700 0.960 . S
H1686 C1700 0.960 . S
H1687 C1700 0.960 . S
C1688 H1680 0.929 . S
C1688 C1689 1.377 . S
C1688 C1690 1.384 . S
C1689 C1688 1.377 . S
C1689 C1695 1.390 . S
C1690 H1681 0.930 . S
C1690 C1688 1.384 . S
C1690 C1691 1.372 . S
C1691 C1690 1.372 . S
C1691 C1692 1.400 . S
C1691 C1696 1.490 . S
C1692 H1682 0.930 . S
C1692 C1691 1.400 . S
C1692 C1695 1.386 . S
H1693 C1709 0.930 . S
H1694 C1710 0.931 . S
C1695 H1683 0.929 . S
C1695 C1689 1.390 . S
C1695 C1692 1.386 . S
C1696 C1691 1.490 . S
C1696 C1698 1.395 . S
C1696 C1699 1.403 . S
H1697 C1703 0.930 . S
C1698 H1684 0.898 1_455 S
C1698 C1696 1.395 . S
C1698 C1701 1.403 . S
C1699 C1696 1.403 . S
C1699 C1700 1.524 . S
C1699 C1703 1.400 . S
C1700 H1685 0.960 . S
C1700 H1686 0.960 . S
C1700 H1687 0.960 . S
C1700 C1699 1.524 . S
C1701 C1698 1.403 . S
C1701 C1702 1.392 . S
C1701 C1705 1.495 1_455 S
C1702 C1701 1.392 . S
C1702 C1703 1.385 . S
C1702 C1704 1.490 . S
C1703 H1697 0.930 . S
C1703 C1699 1.400 . S
C1703 C1702 1.385 . S
C1704 C1702 1.490 . S
C1704 C1706 1.357 1_556 S
C1704 C1710 1.394 . S
C1705 C1701 1.495 1_655 S
C1705 H1711 0.959 . S
C1705 H1712 0.961 . S
C1705 H1713 0.982 . S
C1706 C1704 1.357 1_554 S
C1706 C1707 1.394 . S
C1706 H1714 0.930 . S
C1707 C1706 1.394 . S
C1707 C1708 1.383 . S
C1707 H1715 0.929 . S
C1708 C1707 1.383 . S
C1708 C1709 1.377 1_554 S
C1709 H1693 0.930 . S
C1709 C1708 1.377 1_556 S
C1709 C1710 1.379 . S
C1710 H1694 0.931 . S
C1710 C1704 1.394 . S
C1710 C1709 1.379 . S
H1711 C1705 0.959 . S
H1712 C1705 0.961 . S
H1713 C1705 0.982 . S
H1714 C1706 0.930 . S
H1715 C1707 0.929 . S
H1716 C1724 0.929 . S
H1717 C1726 0.930 . S
H1718 C1728 0.930 . S
H1719 C1731 0.929 . S
H1720 C1734 0.930 . S
H1721 C1736 0.960 . S
H1722 C1736 0.960 . S
H1723 C1736 0.960 . S
C1724 H1716 0.929 . S
C1724 C1725 1.377 . S
C1724 C1726 1.384 . S
C1725 C1724 1.377 . S
C1725 C1731 1.390 . S
C1726 H1717 0.930 . S
C1726 C1724 1.384 . S
C1726 C1727 1.372 . S
C1727 C1726 1.372 . S
C1727 C1728 1.400 . S
C1727 C1732 1.490 . S
C1728 H1718 0.930 . S
C1728 C1727 1.400 . S
C1728 C1731 1.386 . S
H1729 C1745 0.930 . S
H1730 C1746 0.931 . S
C1731 H1719 0.929 . S
C1731 C1725 1.390 . S
C1731 C1728 1.386 . S
C1732 C1727 1.490 . S
C1732 C1734 1.395 . S
C1732 C1735 1.403 . S
H1733 C1739 0.930 . S
C1734 H1720 0.930 . S
C1734 C1732 1.395 . S
C1734 C1737 1.403 . S
C1735 C1732 1.403 . S
C1735 C1736 1.524 . S
C1735 C1739 1.400 . S
C1736 H1721 0.960 . S
C1736 H1722 0.960 . S
C1736 H1723 0.960 . S
C1736 C1735 1.524 . S
C1737 C1734 1.403 . S
C1737 C1738 1.392 . S
C1737 C1741 1.495 . S
C1738 C1737 1.392 . S
C1738 C1739 1.385 . S
C1738 C1740 1.478 . S
C1739 H1733 0.930 . S
C1739 C1735 1.400 . S
C1739 C1738 1.385 . S
C1740 C1738 1.478 . S
C1740 C1742 1.381 . S
C1740 C1746 1.383 . S
C1741 C1737 1.495 . S
C1741 H1747 0.959 . S
C1741 H1748 0.961 . S
C1741 H1749 0.960 . S
C1742 C1740 1.381 . S
C1742 C1743 1.394 . S
C1742 H1750 0.930 . S
C1743 C1742 1.394 . S
C1743 C1744 1.383 . S
C1743 H1751 0.929 . S
C1744 C1743 1.383 . S
C1744 C1745 1.377 . S
C1745 H1729 0.930 . S
C1745 C1744 1.377 . S
C1745 C1746 1.379 . S
C1746 H1730 0.931 . S
C1746 C1740 1.383 . S
C1746 C1745 1.379 . S
H1747 C1741 0.959 . S
H1748 C1741 0.961 . S
H1749 C1741 0.960 . S
H1750 C1742 0.930 . S
H1751 C1743 0.929 . S
H1752 C1760 0.929 . S
H1753 C1762 0.930 . S
H1754 C1764 0.930 . S
H1755 C1767 0.929 . S
H1756 C1770 0.930 . S
H1757 C1772 0.960 . S
H1758 C1772 0.960 . S
H1759 C1772 0.960 . S
C1760 H1752 0.929 . S
C1760 C1761 1.377 . S
C1760 C1762 1.384 . S
C1761 C1760 1.377 . S
C1761 C1767 1.390 . S
C1762 H1753 0.930 . S
C1762 C1760 1.384 . S
C1762 C1763 1.372 . S
C1763 C1762 1.372 . S
C1763 C1764 1.400 . S
C1763 C1768 1.490 . S
C1764 H1754 0.930 . S
C1764 C1763 1.400 . S
C1764 C1767 1.386 . S
H1765 C1781 0.930 . S
H1766 C1782 0.931 . S
C1767 H1755 0.929 . S
C1767 C1761 1.390 . S
C1767 C1764 1.386 . S
C1768 C1763 1.490 . S
C1768 C1770 1.395 . S
C1768 C1771 1.403 . S
H1769 C1775 0.930 . S
C1770 H1756 0.930 . S
C1770 C1768 1.395 . S
C1770 C1773 1.403 . S
C1771 C1768 1.403 . S
C1771 C1772 1.524 . S
C1771 C1775 1.400 . S
C1772 H1757 0.960 . S
C1772 H1758 0.960 . S
C1772 H1759 0.960 . S
C1772 C1771 1.524 . S
C1773 C1770 1.403 . S
C1773 C1774 1.392 . S
C1773 C1777 1.495 . S
C1774 C1773 1.392 . S
C1774 C1775 1.385 . S
C1774 C1776 1.478 . S
C1775 H1769 0.930 . S
C1775 C1771 1.400 . S
C1775 C1774 1.385 . S
C1776 C1774 1.478 . S
C1776 C1778 1.381 . S
C1776 C1782 1.383 . S
C1777 C1773 1.495 . S
C1777 H1783 0.959 . S
C1777 H1784 0.961 . S
C1777 H1785 0.960 . S
C1778 C1776 1.381 . S
C1778 C1779 1.394 . S
C1778 H1786 0.930 . S
C1779 C1778 1.394 . S
C1779 C1780 1.383 . S
C1779 H1787 0.929 . S
C1780 C1779 1.383 . S
C1780 C1781 1.377 . S
C1781 H1765 0.930 . S
C1781 C1780 1.377 . S
C1781 C1782 1.379 . S
C1782 H1766 0.931 . S
C1782 C1776 1.383 . S
C1782 C1781 1.379 . S
H1783 C1777 0.959 . S
H1784 C1777 0.961 . S
H1785 C1777 0.960 . S
H1786 C1778 0.930 . S
H1787 C1779 0.929 . S
H1788 C1796 0.929 . S
H1789 C1798 0.930 . S
H1790 C1800 0.930 . S
H1791 C1803 0.929 . S
H1792 C1806 0.930 . S
H1793 C1808 0.960 . S
H1794 C1808 0.960 . S
H1795 C1808 0.960 . S
C1796 H1788 0.929 . S
C1796 C1797 1.377 . S
C1796 C1798 1.384 . S
C1797 C1796 1.377 . S
C1797 C1803 1.390 . S
C1798 H1789 0.930 . S
C1798 C1796 1.384 . S
C1798 C1799 1.372 . S
C1799 C1798 1.372 . S
C1799 C1800 1.400 . S
C1799 C1804 1.490 . S
C1800 H1790 0.930 . S
C1800 C1799 1.400 . S
C1800 C1803 1.386 . S
H1801 C1817 0.930 . S
H1802 C1818 0.931 . S
C1803 H1791 0.929 . S
C1803 C1797 1.390 . S
C1803 C1800 1.386 . S
C1804 C1799 1.490 . S
C1804 C1806 1.395 . S
C1804 C1807 1.403 . S
H1805 C1811 0.930 . S
C1806 H1792 0.930 . S
C1806 C1804 1.395 . S
C1806 C1809 1.403 . S
C1807 C1804 1.403 . S
C1807 C1808 1.524 . S
C1807 C1811 1.400 . S
C1808 H1793 0.960 . S
C1808 H1794 0.960 . S
C1808 H1795 0.960 . S
C1808 C1807 1.524 . S
C1809 C1806 1.403 . S
C1809 C1810 1.392 . S
C1809 C1813 1.495 . S
C1810 C1809 1.392 . S
C1810 C1811 1.385 . S
C1810 C1812 1.478 . S
C1811 H1805 0.930 . S
C1811 C1807 1.400 . S
C1811 C1810 1.385 . S
C1812 C1810 1.478 . S
C1812 C1814 1.381 . S
C1812 C1818 1.383 . S
C1813 C1809 1.495 . S
C1813 H1819 0.959 . S
C1813 H1820 0.961 . S
C1813 H1821 0.960 . S
C1814 C1812 1.381 . S
C1814 C1815 1.394 . S
C1814 H1822 0.930 . S
C1815 C1814 1.394 . S
C1815 C1816 1.383 . S
C1815 H1823 0.929 . S
C1816 C1815 1.383 . S
C1816 C1817 1.377 . S
C1817 H1801 0.930 . S
C1817 C1816 1.377 . S
C1817 C1818 1.379 . S
C1818 H1802 0.931 . S
C1818 C1812 1.383 . S
C1818 C1817 1.379 . S
H1819 C1813 0.959 . S
H1820 C1813 0.961 . S
H1821 C1813 0.960 . S
H1822 C1814 0.930 . S
H1823 C1815 0.929 . S
H1824 C1832 0.929 . S
H1825 C1834 0.930 . S
H1826 C1836 0.930 . S
H1827 C1839 0.929 . S
H1828 C1842 0.930 . S
H1829 C1844 0.960 . S
H1830 C1844 0.960 . S
H1831 C1844 0.960 . S
C1832 H1824 0.929 . S
C1832 C1833 1.377 1_655 S
C1832 C1834 1.384 . S
C1833 C1832 1.377 1_455 S
C1833 C1839 1.390 . S
C1834 H1825 0.930 . S
C1834 C1832 1.384 . S
C1834 C1835 1.372 1_655 S
C1835 C1834 1.372 1_455 S
C1835 C1836 1.400 . S
C1835 C1840 1.490 . S
C1836 H1826 0.930 . S
C1836 C1835 1.400 . S
C1836 C1839 1.386 . S
H1837 C1853 0.930 . S
H1838 C1854 0.931 . S
C1839 H1827 0.929 . S
C1839 C1833 1.390 . S
C1839 C1836 1.386 . S
C1840 C1835 1.490 . S
C1840 C1842 1.395 . S
C1840 C1843 1.403 . S
H1841 C1847 0.930 . S
C1842 H1828 0.930 . S
C1842 C1840 1.395 . S
C1842 C1845 1.403 . S
C1843 C1840 1.403 . S
C1843 C1844 1.524 . S
C1843 C1847 1.400 . S
C1844 H1829 0.960 . S
C1844 H1830 0.960 . S
C1844 H1831 0.960 . S
C1844 C1843 1.524 . S
C1845 C1842 1.403 . S
C1845 C1846 1.392 . S
C1845 C1849 1.495 . S
C1846 C1845 1.392 . S
C1846 C1847 1.385 . S
C1846 C1848 1.478 . S
C1847 H1841 0.930 . S
C1847 C1843 1.400 . S
C1847 C1846 1.385 . S
C1848 C1846 1.478 . S
C1848 C1850 1.381 . S
C1848 C1854 1.383 . S
C1849 C1845 1.495 . S
C1849 H1855 0.959 . S
C1849 H1856 0.961 . S
C1849 H1857 0.960 . S
C1850 C1848 1.381 . S
C1850 C1851 1.394 . S
C1850 H1858 0.930 . S
C1851 C1850 1.394 . S
C1851 C1852 1.383 . S
C1851 H1859 0.929 . S
C1852 C1851 1.383 . S
C1852 C1853 1.377 . S
C1853 H1837 0.930 . S
C1853 C1852 1.377 . S
C1853 C1854 1.379 . S
C1854 H1838 0.931 . S
C1854 C1848 1.383 . S
C1854 C1853 1.379 . S
H1855 C1849 0.959 . S
H1856 C1849 0.961 . S
H1857 C1849 0.960 . S
H1858 C1850 0.930 . S
H1859 C1851 0.929 . S
H1860 C1868 0.929 . S
H1861 C1870 0.930 . S
H1862 C1872 0.930 . S
H1863 C1875 0.929 . S
H1864 C1878 0.930 . S
H1865 C1880 0.960 . S
H1866 C1880 0.960 . S
H1867 C1880 0.960 . S
C1868 H1860 0.929 . S
C1868 C1869 1.377 . S
C1868 C1870 1.384 . S
C1869 C1868 1.377 . S
C1869 C1875 1.390 . S
C1870 H1861 0.930 . S
C1870 C1868 1.384 . S
C1870 C1871 1.372 . S
C1871 C1870 1.372 . S
C1871 C1872 1.400 . S
C1871 C1876 1.490 . S
C1872 H1862 0.930 . S
C1872 C1871 1.400 . S
C1872 C1875 1.386 . S
H1873 C1889 0.930 . S
H1874 C1890 0.931 . S
C1875 H1863 0.929 . S
C1875 C1869 1.390 . S
C1875 C1872 1.386 . S
C1876 C1871 1.490 . S
C1876 C1878 1.395 . S
C1876 C1879 1.403 . S
H1877 C1883 0.930 . S
C1878 H1864 0.930 . S
C1878 C1876 1.395 . S
C1878 C1881 1.403 . S
C1879 C1876 1.403 . S
C1879 C1880 1.524 . S
C1879 C1883 1.400 . S
C1880 H1865 0.960 . S
C1880 H1866 0.960 . S
C1880 H1867 0.960 . S
C1880 C1879 1.524 . S
C1881 C1878 1.403 . S
C1881 C1882 1.392 . S
C1881 C1885 1.495 . S
C1882 C1881 1.392 . S
C1882 C1883 1.385 . S
C1882 C1884 1.478 . S
C1883 H1877 0.930 . S
C1883 C1879 1.400 . S
C1883 C1882 1.385 . S
C1884 C1882 1.478 . S
C1884 C1886 1.381 . S
C1884 C1890 1.383 . S
C1885 C1881 1.495 . S
C1885 H1891 0.959 . S
C1885 H1892 0.961 . S
C1885 H1893 0.960 . S
C1886 C1884 1.381 . S
C1886 C1887 1.394 . S
C1886 H1894 0.930 . S
C1887 C1886 1.394 . S
C1887 C1888 1.383 . S
C1887 H1895 0.929 . S
C1888 C1887 1.383 . S
C1888 C1889 1.377 . S
C1889 H1873 0.930 . S
C1889 C1888 1.377 . S
C1889 C1890 1.379 . S
C1890 H1874 0.931 . S
C1890 C1884 1.383 . S
C1890 C1889 1.379 . S
H1891 C1885 0.959 . S
H1892 C1885 0.961 . S
H1893 C1885 0.960 . S
H1894 C1886 0.930 . S
H1895 C1887 0.929 . S
H1896 C1904 0.929 . S
H1897 C1906 0.930 . S
H1898 C1908 0.930 . S
H1899 C1911 0.929 . S
H1900 C1914 0.930 . S
H1901 C1916 0.960 . S
H1902 C1916 0.960 . S
H1903 C1916 0.960 . S
C1904 H1896 0.929 . S
C1904 C1905 1.377 . S
C1904 C1906 1.384 . S
C1905 C1904 1.377 . S
C1905 C1911 1.390 . S
C1906 H1897 0.930 . S
C1906 C1904 1.384 . S
C1906 C1907 1.372 . S
C1907 C1906 1.372 . S
C1907 C1908 1.400 . S
C1907 C1912 1.490 . S
C1908 H1898 0.930 . S
C1908 C1907 1.400 . S
C1908 C1911 1.386 . S
H1909 C1925 0.930 . S
H1910 C1926 0.931 . S
C1911 H1899 0.929 . S
C1911 C1905 1.390 . S
C1911 C1908 1.386 . S
C1912 C1907 1.490 . S
C1912 C1914 1.395 . S
C1912 C1915 1.403 . S
H1913 C1919 0.930 . S
C1914 H1900 0.930 . S
C1914 C1912 1.395 . S
C1914 C1917 1.403 . S
C1915 C1912 1.403 . S
C1915 C1916 1.524 . S
C1915 C1919 1.400 . S
C1916 H1901 0.960 . S
C1916 H1902 0.960 . S
C1916 H1903 0.960 . S
C1916 C1915 1.524 . S
C1917 C1914 1.403 . S
C1917 C1918 1.392 . S
C1917 C1921 1.495 . S
C1918 C1917 1.392 . S
C1918 C1919 1.385 . S
C1918 C1920 1.478 . S
C1919 H1913 0.930 . S
C1919 C1915 1.400 . S
C1919 C1918 1.385 . S
C1920 C1918 1.478 . S
C1920 C1922 1.381 . S
C1920 C1926 1.383 . S
C1921 C1917 1.495 . S
C1921 H1927 0.959 . S
C1921 H1928 0.961 . S
C1921 H1929 0.960 . S
C1922 C1920 1.381 . S
C1922 C1923 1.394 . S
C1922 H1930 0.930 . S
C1923 C1922 1.394 . S
C1923 C1924 1.383 . S
C1923 H1931 0.929 . S
C1924 C1923 1.383 . S
C1924 C1925 1.377 . S
C1925 H1909 0.930 . S
C1925 C1924 1.377 . S
C1925 C1926 1.379 . S
C1926 H1910 0.931 . S
C1926 C1920 1.383 . S
C1926 C1925 1.379 . S
H1927 C1921 0.959 . S
H1928 C1921 0.961 . S
H1929 C1921 0.960 . S
H1930 C1922 0.930 . S
H1931 C1923 0.929 . S
H1932 C1940 0.929 . S
H1933 C1942 0.930 . S
H1934 C1944 0.930 . S
H1935 C1947 0.929 . S
H1936 C1950 0.930 . S
H1937 C1952 0.960 . S
H1938 C1952 0.960 . S
H1939 C1952 0.960 . S
C1940 H1932 0.929 . S
C1940 C1941 1.377 . S
C1940 C1942 1.384 . S
C1941 C1940 1.377 . S
C1941 C1947 1.390 . S
C1942 H1933 0.930 . S
C1942 C1940 1.384 . S
C1942 C1943 1.372 . S
C1943 C1942 1.372 . S
C1943 C1944 1.400 . S
C1943 C1948 1.490 . S
C1944 H1934 0.930 . S
C1944 C1943 1.400 . S
C1944 C1947 1.386 . S
H1945 C1961 0.930 . S
H1946 C1962 0.931 . S
C1947 H1935 0.929 . S
C1947 C1941 1.390 . S
C1947 C1944 1.386 . S
C1948 C1943 1.490 . S
C1948 C1950 1.395 . S
C1948 C1951 1.403 . S
H1949 C1955 0.930 . S
C1950 H1936 0.930 . S
C1950 C1948 1.395 . S
C1950 C1953 1.403 . S
C1951 C1948 1.403 . S
C1951 C1952 1.524 . S
C1951 C1955 1.400 . S
C1952 H1937 0.960 . S
C1952 H1938 0.960 . S
C1952 H1939 0.960 . S
C1952 C1951 1.524 . S
C1953 C1950 1.403 . S
C1953 C1954 1.392 . S
C1953 C1957 1.495 . S
C1954 C1953 1.392 . S
C1954 C1955 1.385 . S
C1954 C1956 1.478 . S
C1955 H1949 0.930 . S
C1955 C1951 1.400 . S
C1955 C1954 1.385 . S
C1956 C1954 1.478 . S
C1956 C1958 1.381 . S
C1956 C1962 1.383 . S
C1957 C1953 1.495 . S
C1957 H1963 0.959 . S
C1957 H1964 0.961 . S
C1957 H1965 0.960 . S
C1958 C1956 1.381 . S
C1958 C1959 1.394 . S
C1958 H1966 0.930 . S
C1959 C1958 1.394 . S
C1959 C1960 1.383 . S
C1959 H1967 0.929 . S
C1960 C1959 1.383 . S
C1960 C1961 1.377 . S
C1961 H1945 0.930 . S
C1961 C1960 1.377 . S
C1961 C1962 1.379 . S
C1962 H1946 0.931 . S
C1962 C1956 1.383 . S
C1962 C1961 1.379 . S
H1963 C1957 0.959 . S
H1964 C1957 0.961 . S
H1965 C1957 0.960 . S
H1966 C1958 0.930 . S
H1967 C1959 0.929 . S
H1968 C1976 0.929 . S
H1969 C1978 0.930 . S
H1970 C1980 0.930 . S
H1971 C1983 0.929 . S
H1972 C1986 0.930 . S
H1973 C1988 0.960 . S
H1974 C1988 0.960 . S
H1975 C1988 0.960 . S
C1976 H1968 0.929 . S
C1976 C1977 1.377 . S
C1976 C1978 1.384 . S
C1977 C1976 1.377 . S
C1977 C1983 1.390 . S
C1978 H1969 0.930 . S
C1978 C1976 1.384 . S
C1978 C1979 1.372 . S
C1979 C1978 1.372 . S
C1979 C1980 1.400 . S
C1979 C1984 1.490 . S
C1980 H1970 0.930 . S
C1980 C1979 1.400 . S
C1980 C1983 1.386 . S
H1981 C1997 0.930 . S
H1982 C1998 0.931 1_655 S
C1983 H1971 0.929 . S
C1983 C1977 1.390 . S
C1983 C1980 1.386 . S
C1984 C1979 1.490 . S
C1984 C1986 1.395 1_655 S
C1984 C1987 1.403 . S
H1985 C1991 0.930 . S
C1986 H1972 0.930 . S
C1986 C1984 1.395 1_455 S
C1986 C1989 1.403 . S
C1987 C1984 1.403 . S
C1987 C1988 1.524 . S
C1987 C1991 1.400 . S
C1988 H1973 0.960 . S
C1988 H1974 0.960 . S
C1988 H1975 0.960 . S
C1988 C1987 1.524 . S
C1989 C1986 1.403 . S
C1989 C1990 1.392 . S
C1989 C1993 1.495 . S
C1990 C1989 1.392 . S
C1990 C1991 1.385 1_455 S
C1990 C1992 1.478 . S
C1991 H1985 0.930 . S
C1991 C1987 1.400 . S
C1991 C1990 1.385 1_655 S
C1992 C1990 1.478 . S
C1992 C1994 1.381 . S
C1992 C1998 1.383 . S
C1993 C1989 1.495 . S
C1993 H1999 0.959 . S
C1993 H2000 0.961 . S
C1993 H2001 0.960 . S
C1994 C1992 1.381 . S
C1994 C1995 1.394 . S
C1994 H2002 0.930 . S
C1995 C1994 1.394 . S
C1995 C1996 1.383 . S
C1995 H2003 0.929 . S
C1996 C1995 1.383 . S
C1996 C1997 1.377 . S
C1997 H1981 0.930 . S
C1997 C1996 1.377 . S
C1997 C1998 1.379 . S
C1998 H1982 0.931 1_455 S
C1998 C1992 1.383 . S
C1998 C1997 1.379 . S
H1999 C1993 0.959 . S
H2000 C1993 0.961 . S
H2001 C1993 0.960 . S
H2002 C1994 0.930 . S
H2003 C1995 0.929 . S
H2004 C2012 0.929 . S
H2005 C2014 0.930 . S
H2006 C2016 0.930 . S
H2007 C2019 0.929 . S
H2008 C2022 0.930 . S
H2009 C2024 0.960 . S
H2010 C2024 0.960 . S
H2011 C2024 0.960 . S
C2012 H2004 0.929 . S
C2012 C2013 1.377 . S
C2012 C2014 1.384 . S
C2013 C2012 1.377 . S
C2013 C2019 1.390 . S
C2014 H2005 0.930 . S
C2014 C2012 1.384 . S
C2014 C2015 1.372 . S
C2015 C2014 1.372 . S
C2015 C2016 1.400 . S
C2015 C2020 1.490 . S
C2016 H2006 0.930 . S
C2016 C2015 1.400 . S
C2016 C2019 1.386 . S
H2017 C2033 0.930 . S
H2018 C2034 0.931 . S
C2019 H2007 0.929 . S
C2019 C2013 1.390 . S
C2019 C2016 1.386 . S
C2020 C2015 1.490 . S
C2020 C2022 1.395 . S
C2020 C2023 1.403 . S
H2021 C2027 0.930 . S
C2022 H2008 0.930 . S
C2022 C2020 1.395 . S
C2022 C2025 1.403 . S
C2023 C2020 1.403 . S
C2023 C2024 1.524 . S
C2023 C2027 1.400 . S
C2024 H2009 0.960 . S
C2024 H2010 0.960 . S
C2024 H2011 0.960 . S
C2024 C2023 1.524 . S
C2025 C2022 1.403 . S
C2025 C2026 1.392 . S
C2025 C2029 1.495 . S
C2026 C2025 1.392 . S
C2026 C2027 1.385 . S
C2026 C2028 1.478 . S
C2027 H2021 0.930 . S
C2027 C2023 1.400 . S
C2027 C2026 1.385 . S
C2028 C2026 1.478 . S
C2028 C2030 1.381 . S
C2028 C2034 1.383 . S
C2029 C2025 1.495 . S
C2029 H2035 0.959 . S
C2029 H2036 0.961 . S
C2029 H2037 0.960 . S
C2030 C2028 1.381 . S
C2030 C2031 1.394 . S
C2030 H2038 0.930 . S
C2031 C2030 1.394 . S
C2031 C2032 1.383 . S
C2031 H2039 0.929 . S
C2032 C2031 1.383 . S
C2032 C2033 1.377 . S
C2033 H2017 0.930 . S
C2033 C2032 1.377 . S
C2033 C2034 1.379 . S
C2034 H2018 0.931 . S
C2034 C2028 1.383 . S
C2034 C2033 1.379 . S
H2035 C2029 0.959 . S
H2036 C2029 0.961 . S
H2037 C2029 0.960 . S
H2038 C2030 0.930 . S
H2039 C2031 0.929 . S
H2040 C2048 0.929 . S
H2041 C2050 0.930 . S
H2042 C2052 0.930 . S
H2043 C2055 0.929 . S
H2044 C2058 0.930 . S
H2045 C2060 0.960 . S
H2046 C2060 0.960 . S
H2047 C2060 0.960 . S
C2048 H2040 0.929 . S
C2048 C2049 1.377 . S
C2048 C2050 1.384 . S
C2049 C2048 1.377 . S
C2049 C2055 1.390 . S
C2050 H2041 0.930 . S
C2050 C2048 1.384 . S
C2050 C2051 1.372 . S
C2051 C2050 1.372 . S
C2051 C2052 1.400 . S
C2051 C2056 1.490 . S
C2052 H2042 0.930 . S
C2052 C2051 1.400 . S
C2052 C2055 1.386 . S
H2053 C2069 0.930 . S
H2054 C2070 0.931 . S
C2055 H2043 0.929 . S
C2055 C2049 1.390 . S
C2055 C2052 1.386 . S
C2056 C2051 1.490 . S
C2056 C2058 1.395 . S
C2056 C2059 1.403 . S
H2057 C2063 0.930 . S
C2058 H2044 0.930 . S
C2058 C2056 1.395 . S
C2058 C2061 1.403 . S
C2059 C2056 1.403 . S
C2059 C2060 1.524 . S
C2059 C2063 1.400 . S
C2060 H2045 0.960 . S
C2060 H2046 0.960 . S
C2060 H2047 0.960 . S
C2060 C2059 1.524 . S
C2061 C2058 1.403 . S
C2061 C2062 1.392 . S
C2061 C2065 1.495 1_545 S
C2062 C2061 1.392 . S
C2062 C2063 1.385 . S
C2062 C2064 1.478 . S
C2063 H2057 0.930 . S
C2063 C2059 1.400 . S
C2063 C2062 1.385 . S
C2064 C2062 1.478 . S
C2064 C2066 1.381 . S
C2064 C2070 1.383 . S
C2065 C2061 1.495 1_565 S
C2065 H2071 0.959 . S
C2065 H2072 0.961 . S
C2065 H2073 0.960 . S
C2066 C2064 1.381 . S
C2066 C2067 1.394 . S
C2066 H2074 0.930 . S
C2067 C2066 1.394 . S
C2067 C2068 1.383 . S
C2067 H2075 0.929 . S
C2068 C2067 1.383 . S
C2068 C2069 1.377 . S
C2069 H2053 0.930 . S
C2069 C2068 1.377 . S
C2069 C2070 1.379 . S
C2070 H2054 0.931 . S
C2070 C2064 1.383 . S
C2070 C2069 1.379 . S
H2071 C2065 0.959 . S
H2072 C2065 0.961 . S
H2073 C2065 0.960 . S
H2074 C2066 0.930 . S
H2075 C2067 0.929 . S
H2076 C2084 0.929 . S
H2077 C2086 0.930 . S
H2078 C2088 0.930 . S
H2079 C2091 0.929 . S
H2080 C2094 0.930 . S
H2081 C2096 0.960 . S
H2082 C2096 0.960 . S
H2083 C2096 0.960 . S
C2084 H2076 0.929 . S
C2084 C2085 1.377 . S
C2084 C2086 1.384 . S
C2085 C2084 1.377 . S
C2085 C2091 1.390 . S
C2086 H2077 0.930 . S
C2086 C2084 1.384 . S
C2086 C2087 1.372 . S
C2087 C2086 1.372 . S
C2087 C2088 1.400 . S
C2087 C2092 1.490 . S
C2088 H2078 0.930 . S
C2088 C2087 1.400 . S
C2088 C2091 1.386 . S
H2089 C2105 0.930 . S
H2090 C2106 0.931 . S
C2091 H2079 0.929 . S
C2091 C2085 1.390 . S
C2091 C2088 1.386 . S
C2092 C2087 1.490 . S
C2092 C2094 1.395 . S
C2092 C2095 1.403 . S
H2093 C2099 0.930 . S
C2094 H2080 0.930 . S
C2094 C2092 1.395 . S
C2094 C2097 1.403 . S
C2095 C2092 1.403 . S
C2095 C2096 1.524 . S
C2095 C2099 1.400 . S
C2096 H2081 0.960 . S
C2096 H2082 0.960 . S
C2096 H2083 0.960 . S
C2096 C2095 1.524 . S
C2097 C2094 1.403 . S
C2097 C2098 1.392 . S
C2097 C2101 1.495 . S
C2098 C2097 1.392 . S
C2098 C2099 1.385 . S
C2098 C2100 1.478 . S
C2099 H2093 0.930 . S
C2099 C2095 1.400 . S
C2099 C2098 1.385 . S
C2100 C2098 1.478 . S
C2100 C2102 1.381 . S
C2100 C2106 1.383 . S
C2101 C2097 1.495 . S
C2101 H2107 0.959 . S
C2101 H2108 0.961 . S
C2101 H2109 0.960 . S
C2102 C2100 1.381 . S
C2102 C2103 1.394 . S
C2102 H2110 0.930 . S
C2103 C2102 1.394 . S
C2103 C2104 1.383 . S
C2103 H2111 0.929 . S
C2104 C2103 1.383 . S
C2104 C2105 1.377 . S
C2105 H2089 0.930 . S
C2105 C2104 1.377 . S
C2105 C2106 1.379 . S
C2106 H2090 0.931 . S
C2106 C2100 1.383 . S
C2106 C2105 1.379 . S
H2107 C2101 0.959 . S
H2108 C2101 0.961 . S
H2109 C2101 0.960 . S
H2110 C2102 0.930 . S
H2111 C2103 0.929 . S
H2112 C2120 0.929 . S
H2113 C2122 0.930 . S
H2114 C2124 0.930 . S
H2115 C2127 0.929 . S
H2116 C2130 0.930 . S
H2117 C2132 0.960 . S
H2118 C2132 0.960 . S
H2119 C2132 0.960 . S
C2120 H2112 0.929 . S
C2120 C2121 1.377 . S
C2120 C2122 1.384 . S
C2121 C2120 1.377 . S
C2121 C2127 1.390 . S
C2122 H2113 0.930 . S
C2122 C2120 1.384 . S
C2122 C2123 1.372 . S
C2123 C2122 1.372 . S
C2123 C2124 1.400 . S
C2123 C2128 1.490 . S
C2124 H2114 0.930 . S
C2124 C2123 1.400 . S
C2124 C2127 1.386 . S
H2125 C2141 0.930 . S
H2126 C2142 0.931 . S
C2127 H2115 0.929 . S
C2127 C2121 1.390 . S
C2127 C2124 1.386 . S
C2128 C2123 1.490 . S
C2128 C2130 1.395 . S
C2128 C2131 1.403 1_655 S
H2129 C2135 0.930 . S
C2130 H2116 0.930 . S
C2130 C2128 1.395 . S
C2130 C2133 1.403 . S
C2131 C2128 1.403 1_455 S
C2131 C2132 1.524 . S
C2131 C2135 1.400 . S
C2132 H2117 0.960 . S
C2132 H2118 0.960 . S
C2132 H2119 0.960 . S
C2132 C2131 1.524 . S
C2133 C2130 1.403 . S
C2133 C2134 1.392 1_655 S
C2133 C2137 1.495 . S
C2134 C2133 1.392 1_455 S
C2134 C2135 1.385 . S
C2134 C2136 1.478 . S
C2135 H2129 0.930 . S
C2135 C2131 1.400 . S
C2135 C2134 1.385 . S
C2136 C2134 1.478 . S
C2136 C2138 1.381 . S
C2136 C2142 1.383 . S
C2137 C2133 1.495 . S
C2137 H2143 0.959 . S
C2137 H2144 0.961 . S
C2137 H2145 0.960 . S
C2138 C2136 1.381 . S
C2138 C2139 1.394 . S
C2138 H2146 0.930 . S
C2139 C2138 1.394 . S
C2139 C2140 1.383 . S
C2139 H2147 0.929 . S
C2140 C2139 1.383 . S
C2140 C2141 1.377 . S
C2141 H2125 0.930 . S
C2141 C2140 1.377 . S
C2141 C2142 1.379 . S
C2142 H2126 0.931 . S
C2142 C2136 1.383 . S
C2142 C2141 1.379 . S
H2143 C2137 0.959 . S
H2144 C2137 0.961 . S
H2145 C2137 0.960 . S
H2146 C2138 0.930 . S
H2147 C2139 0.929 . S
H2148 C2156 0.929 . S
H2149 C2158 0.930 . S
H2150 C2160 0.930 . S
H2151 C2163 0.929 . S
H2152 C2166 0.930 . S
H2153 C2168 0.960 . S
H2154 C2168 0.960 . S
H2155 C2168 0.960 . S
C2156 H2148 0.929 . S
C2156 C2157 1.377 . S
C2156 C2158 1.384 . S
C2157 C2156 1.377 . S
C2157 C2163 1.390 . S
C2158 H2149 0.930 . S
C2158 C2156 1.384 . S
C2158 C2159 1.372 . S
C2159 C2158 1.372 . S
C2159 C2160 1.400 . S
C2159 C2164 1.490 . S
C2160 H2150 0.930 . S
C2160 C2159 1.400 . S
C2160 C2163 1.386 . S
H2161 C2177 0.930 . S
H2162 C2178 0.931 . S
C2163 H2151 0.929 . S
C2163 C2157 1.390 . S
C2163 C2160 1.386 . S
C2164 C2159 1.490 . S
C2164 C2166 1.395 . S
C2164 C2167 1.403 . S
H2165 C2171 0.930 . S
C2166 H2152 0.930 . S
C2166 C2164 1.395 . S
C2166 C2169 1.403 . S
C2167 C2164 1.403 . S
C2167 C2168 1.524 . S
C2167 C2171 1.400 . S
C2168 H2153 0.960 . S
C2168 H2154 0.960 . S
C2168 H2155 0.960 . S
C2168 C2167 1.524 . S
C2169 C2166 1.403 . S
C2169 C2170 1.392 . S
C2169 C2173 1.495 . S
C2170 C2169 1.392 . S
C2170 C2171 1.385 . S
C2170 C2172 1.478 . S
C2171 H2165 0.930 . S
C2171 C2167 1.400 . S
C2171 C2170 1.385 . S
C2172 C2170 1.478 . S
C2172 C2174 1.381 . S
C2172 C2178 1.383 . S
C2173 C2169 1.495 . S
C2173 H2179 0.959 . S
C2173 H2180 0.961 . S
C2173 H2181 0.960 . S
C2174 C2172 1.381 . S
C2174 C2175 1.394 . S
C2174 H2182 0.930 . S
C2175 C2174 1.394 . S
C2175 C2176 1.383 . S
C2175 H2183 0.929 . S
C2176 C2175 1.383 . S
C2176 C2177 1.377 . S
C2177 H2161 0.930 . S
C2177 C2176 1.377 . S
C2177 C2178 1.379 . S
C2178 H2162 0.931 . S
C2178 C2172 1.383 . S
C2178 C2177 1.379 . S
H2179 C2173 0.959 . S
H2180 C2173 0.961 . S
H2181 C2173 0.960 . S
H2182 C2174 0.930 . S
H2183 C2175 0.929 . S
H2184 C2192 0.929 . S
H2185 C2194 0.930 . S
H2186 C2196 0.930 . S
H2187 C2199 0.929 . S
H2188 C2202 0.930 . S
H2189 C2204 0.960 . S
H2190 C2204 0.960 . S
H2191 C2204 0.960 . S
C2192 H2184 0.929 . S
C2192 C2193 1.377 . S
C2192 C2194 1.384 . S
C2193 C2192 1.377 . S
C2193 C2199 1.390 . S
C2194 H2185 0.930 . S
C2194 C2192 1.384 . S
C2194 C2195 1.372 . S
C2195 C2194 1.372 . S
C2195 C2196 1.400 . S
C2195 C2200 1.490 . S
C2196 H2186 0.930 . S
C2196 C2195 1.400 . S
C2196 C2199 1.386 . S
H2197 C2213 0.930 . S
H2198 C2214 0.931 . S
C2199 H2187 0.929 . S
C2199 C2193 1.390 . S
C2199 C2196 1.386 . S
C2200 C2195 1.490 . S
C2200 C2202 1.395 . S
C2200 C2203 1.403 . S
H2201 C2207 0.930 . S
C2202 H2188 0.930 . S
C2202 C2200 1.395 . S
C2202 C2205 1.403 . S
C2203 C2200 1.403 . S
C2203 C2204 1.524 . S
C2203 C2207 1.400 . S
C2204 H2189 0.960 . S
C2204 H2190 0.960 . S
C2204 H2191 0.960 . S
C2204 C2203 1.524 . S
C2205 C2202 1.403 . S
C2205 C2206 1.392 . S
C2205 C2209 1.495 . S
C2206 C2205 1.392 . S
C2206 C2207 1.385 . S
C2206 C2208 1.478 . S
C2207 H2201 0.930 . S
C2207 C2203 1.400 . S
C2207 C2206 1.385 . S
C2208 C2206 1.478 . S
C2208 C2210 1.381 . S
C2208 C2214 1.383 . S
C2209 C2205 1.495 . S
C2209 H2215 0.959 . S
C2209 H2216 0.961 . S
C2209 H2217 0.960 . S
C2210 C2208 1.381 . S
C2210 C2211 1.394 . S
C2210 H2218 0.930 . S
C2211 C2210 1.394 . S
C2211 C2212 1.383 . S
C2211 H2219 0.929 . S
C2212 C2211 1.383 . S
C2212 C2213 1.377 . S
C2213 H2197 0.930 . S
C2213 C2212 1.377 . S
C2213 C2214 1.379 . S
C2214 H2198 0.931 . S
C2214 C2208 1.383 . S
C2214 C2213 1.379 . S
H2215 C2209 0.959 . S
H2216 C2209 0.961 . S
H2217 C2209 0.960 . S
H2218 C2210 0.930 . S
H2219 C2211 0.929 . S
H2220 C2228 0.929 . S
H2221 C2230 0.930 . S
H2222 C2232 0.930 . S
H2223 C2235 0.929 . S
H2224 C2238 0.930 . S
H2225 C2240 0.960 . S
H2226 C2240 0.960 . S
H2227 C2240 0.960 . S
C2228 H2220 0.929 . S
C2228 C2229 1.377 . S
C2228 C2230 1.384 . S
C2229 C2228 1.377 . S
C2229 C2235 1.390 . S
C2230 H2221 0.930 . S
C2230 C2228 1.384 . S
C2230 C2231 1.372 . S
C2231 C2230 1.372 . S
C2231 C2232 1.400 . S
C2231 C2236 1.490 . S
C2232 H2222 0.930 . S
C2232 C2231 1.400 . S
C2232 C2235 1.386 . S
H2233 C2249 0.930 . S
H2234 C2250 0.931 . S
C2235 H2223 0.929 . S
C2235 C2229 1.390 . S
C2235 C2232 1.386 . S
C2236 C2231 1.490 . S
C2236 C2238 1.395 . S
C2236 C2239 1.403 . S
H2237 C2243 0.930 . S
C2238 H2224 0.930 . S
C2238 C2236 1.395 . S
C2238 C2241 1.403 . S
C2239 C2236 1.403 . S
C2239 C2240 1.524 . S
C2239 C2243 1.400 . S
C2240 H2225 0.960 . S
C2240 H2226 0.960 . S
C2240 H2227 0.960 . S
C2240 C2239 1.524 . S
C2241 C2238 1.403 . S
C2241 C2242 1.392 . S
C2241 C2245 1.495 . S
C2242 C2241 1.392 . S
C2242 C2243 1.385 . S
C2242 C2244 1.478 . S
C2243 H2237 0.930 . S
C2243 C2239 1.400 . S
C2243 C2242 1.385 . S
C2244 C2242 1.478 . S
C2244 C2246 1.381 . S
C2244 C2250 1.383 . S
C2245 C2241 1.495 . S
C2245 H2251 0.959 . S
C2245 H2252 0.961 . S
C2245 H2253 0.960 . S
C2246 C2244 1.381 . S
C2246 C2247 1.394 . S
C2246 H2254 0.930 . S
C2247 C2246 1.394 . S
C2247 C2248 1.383 . S
C2247 H2255 0.929 . S
C2248 C2247 1.383 . S
C2248 C2249 1.377 . S
C2249 H2233 0.930 . S
C2249 C2248 1.377 . S
C2249 C2250 1.379 . S
C2250 H2234 0.931 . S
C2250 C2244 1.383 . S
C2250 C2249 1.379 . S
H2251 C2245 0.959 . S
H2252 C2245 0.961 . S
H2253 C2245 0.960 . S
H2254 C2246 0.930 . S
H2255 C2247 0.929 . S
H2256 C2264 0.929 . S
H2257 C2266 0.930 . S
H2258 C2268 0.930 . S
H2259 C2271 0.946 . S
H2260 C2274 0.930 . S
H2261 C2276 0.960 . S
H2262 C2276 0.960 . S
H2263 C2276 0.960 . S
C2264 H2256 0.929 . S
C2264 C2265 1.377 . S
C2264 C2266 1.384 . S
C2265 C2264 1.377 . S
C2265 C2271 1.390 . S
C2266 H2257 0.930 . S
C2266 C2264 1.384 . S
C2266 C2267 1.372 . S
C2267 C2266 1.372 . S
C2267 C2268 1.400 . S
C2267 C2272 1.490 . S
C2268 H2258 0.930 . S
C2268 C2267 1.400 . S
C2268 C2271 1.386 . S
H2269 C2285 0.930 . S
H2270 C2286 0.931 . S
C2271 H2259 0.946 . S
C2271 C2265 1.390 . S
C2271 C2268 1.386 . S
C2272 C2267 1.490 . S
C2272 C2274 1.395 . S
C2272 C2275 1.403 . S
H2273 C2279 0.930 . S
C2274 H2260 0.930 . S
C2274 C2272 1.395 . S
C2274 C2277 1.404 . S
C2275 C2272 1.403 . S
C2275 C2276 1.524 . S
C2275 C2279 1.400 . S
C2276 H2261 0.960 . S
C2276 H2262 0.960 . S
C2276 H2263 0.960 . S
C2276 C2275 1.524 . S
C2277 C2274 1.404 . S
C2277 C2278 1.393 . S
C2277 C2281 1.494 1_565 S
C2278 C2277 1.393 . S
C2278 C2279 1.385 . S
C2278 C2280 1.478 . S
C2279 H2273 0.930 . S
C2279 C2275 1.400 . S
C2279 C2278 1.385 . S
C2280 C2278 1.478 . S
C2280 C2282 1.381 1_565 S
C2280 C2286 1.383 . S
C2281 C2277 1.494 1_545 S
C2281 H2287 0.959 . S
C2281 H2288 0.940 1_554 S
C2281 H2289 0.960 . S
C2282 C2280 1.381 1_545 S
C2282 C2283 1.394 . S
C2282 H2290 0.930 . S
C2283 C2282 1.394 . S
C2283 C2284 1.383 . S
C2283 H2291 0.929 . S
C2284 C2283 1.383 . S
C2284 C2285 1.377 1_545 S
C2285 H2269 0.930 . S
C2285 C2284 1.377 1_565 S
C2285 C2286 1.379 . S
C2286 H2270 0.931 . S
C2286 C2280 1.383 . S
C2286 C2285 1.379 . S
H2287 C2281 0.959 . S
H2288 C2281 0.940 1_556 S
H2289 C2281 0.960 . S
H2290 C2282 0.930 . S
H2291 C2283 0.929 . S
H2292 C2300 0.929 . S
H2293 C2302 0.930 . S
H2294 C2304 0.930 . S
H2295 C2307 0.929 . S
H2296 C2310 0.930 . S
H2297 C2312 0.960 . S
H2298 C2312 0.960 . S
H2299 C2312 0.960 . S
C2300 H2292 0.929 . S
C2300 C2301 1.377 1_554 S
C2300 C2302 1.384 . S
C2301 C2300 1.377 1_556 S
C2301 C2307 1.390 . S
C2302 H2293 0.930 . S
C2302 C2300 1.384 . S
C2302 C2303 1.372 1_554 S
C2303 C2302 1.372 1_556 S
C2303 C2304 1.400 . S
C2303 C2308 1.493 . S
C2304 H2294 0.930 . S
C2304 C2303 1.400 . S
C2304 C2307 1.386 . S
H2305 C2321 0.949 . S
H2306 C2322 0.941 . S
C2307 H2295 0.929 . S
C2307 C2301 1.390 . S
C2307 C2304 1.386 . S
C2308 C2303 1.493 . S
C2308 C2310 1.381 1_556 S
C2308 C2311 1.412 . S
H2309 C2315 0.930 . S
C2310 H2296 0.930 . S
C2310 C2308 1.381 1_554 S
C2310 C2313 1.403 . S
C2311 C2308 1.412 . S
C2311 C2312 1.524 . S
C2311 C2315 1.400 . S
C2312 H2297 0.960 . S
C2312 H2298 0.960 . S
C2312 H2299 0.960 . S
C2312 C2311 1.524 . S
C2313 C2310 1.403 . S
C2313 C2314 1.392 . S
C2313 C2317 1.495 . S
C2314 C2313 1.392 . S
C2314 C2315 1.385 1_554 S
C2314 C2316 1.478 . S
C2315 H2309 0.930 . S
C2315 C2311 1.400 . S
C2315 C2314 1.385 1_556 S
C2316 C2314 1.478 . S
C2316 C2318 1.381 . S
C2316 C2322 1.376 1_554 S
C2317 C2313 1.495 . S
C2317 H2323 0.959 . S
C2317 H2324 0.961 . S
C2317 H2325 0.960 . S
C2318 C2316 1.381 . S
C2318 C2319 1.394 . S
C2318 H2326 0.930 . S
C2319 C2318 1.394 . S
C2319 C2320 1.383 . S
C2319 H2327 0.929 . S
C2320 C2319 1.383 . S
C2320 C2321 1.353 1_554 S
C2321 H2305 0.949 . S
C2321 C2320 1.353 1_556 S
C2321 C2322 1.384 . S
C2322 H2306 0.941 . S
C2322 C2316 1.376 1_556 S
C2322 C2321 1.384 . S
H2323 C2317 0.959 . S
H2324 C2317 0.961 . S
H2325 C2317 0.960 . S
H2326 C2318 0.930 . S
H2327 C2319 0.929 . S
H2328 C2336 0.929 . S
H2329 C2338 0.930 . S
H2330 C2340 0.930 . S
H2331 C2343 0.929 . S
H2332 C2346 0.930 . S
H2333 C2348 0.960 . S
H2334 C2348 0.960 . S
H2335 C2348 0.960 . S
C2336 H2328 0.929 . S
C2336 C2337 1.377 . S
C2336 C2338 1.384 . S
C2337 C2336 1.377 . S
C2337 C2343 1.390 . S
C2338 H2329 0.930 . S
C2338 C2336 1.384 . S
C2338 C2339 1.372 . S
C2339 C2338 1.372 . S
C2339 C2340 1.400 . S
C2339 C2344 1.490 . S
C2340 H2330 0.930 . S
C2340 C2339 1.400 . S
C2340 C2343 1.386 . S
H2341 C2357 0.930 . S
H2342 C2358 0.931 . S
C2343 H2331 0.929 . S
C2343 C2337 1.390 . S
C2343 C2340 1.386 . S
C2344 C2339 1.490 . S
C2344 C2346 1.395 . S
C2344 C2347 1.403 . S
H2345 C2351 0.930 . S
C2346 H2332 0.930 . S
C2346 C2344 1.395 . S
C2346 C2349 1.403 . S
C2347 C2344 1.403 . S
C2347 C2348 1.524 . S
C2347 C2351 1.400 . S
C2348 H2333 0.960 . S
C2348 H2334 0.960 . S
C2348 H2335 0.960 . S
C2348 C2347 1.524 . S
C2349 C2346 1.403 . S
C2349 C2350 1.392 . S
C2349 C2353 1.495 . S
C2350 C2349 1.392 . S
C2350 C2351 1.385 . S
C2350 C2352 1.478 . S
C2351 H2345 0.930 . S
C2351 C2347 1.400 . S
C2351 C2350 1.385 . S
C2352 C2350 1.478 . S
C2352 C2354 1.381 . S
C2352 C2358 1.383 . S
C2353 C2349 1.495 . S
C2353 H2359 0.959 . S
C2353 H2360 0.961 . S
C2353 H2361 0.960 . S
C2354 C2352 1.381 . S
C2354 C2355 1.394 . S
C2354 H2362 0.930 . S
C2355 C2354 1.394 . S
C2355 C2356 1.383 . S
C2355 H2363 0.929 . S
C2356 C2355 1.383 . S
C2356 C2357 1.377 . S
C2357 H2341 0.930 . S
C2357 C2356 1.377 . S
C2357 C2358 1.379 . S
C2358 H2342 0.931 . S
C2358 C2352 1.383 . S
C2358 C2357 1.379 . S
H2359 C2353 0.959 . S
H2360 C2353 0.961 . S
H2361 C2353 0.960 . S
H2362 C2354 0.930 . S
H2363 C2355 0.929 . S
H2364 C2372 0.929 . S
H2365 C2374 0.930 . S
H2366 C2376 0.930 . S
H2367 C2379 0.929 . S
H2368 C2382 0.930 . S
H2369 C2384 0.960 . S
H2370 C2384 0.960 . S
H2371 C2384 0.960 . S
C2372 H2364 0.929 . S
C2372 C2373 1.377 . S
C2372 C2374 1.384 . S
C2373 C2372 1.377 . S
C2373 C2379 1.390 . S
C2374 H2365 0.930 . S
C2374 C2372 1.384 . S
C2374 C2375 1.372 . S
C2375 C2374 1.372 . S
C2375 C2376 1.400 . S
C2375 C2380 1.490 . S
C2376 H2366 0.930 . S
C2376 C2375 1.400 . S
C2376 C2379 1.386 . S
H2377 C2393 0.926 1_455 S
H2378 C2394 0.931 . S
C2379 H2367 0.929 . S
C2379 C2373 1.390 . S
C2379 C2376 1.386 . S
C2380 C2375 1.490 . S
C2380 C2382 1.395 . S
C2380 C2383 1.403 . S
H2381 C2387 0.930 . S
C2382 H2368 0.930 . S
C2382 C2380 1.395 . S
C2382 C2385 1.403 . S
C2383 C2380 1.403 . S
C2383 C2384 1.524 . S
C2383 C2387 1.400 . S
C2384 H2369 0.960 . S
C2384 H2370 0.960 . S
C2384 H2371 0.960 . S
C2384 C2383 1.524 . S
C2385 C2382 1.403 . S
C2385 C2386 1.392 . S
C2385 C2389 1.495 . S
C2386 C2385 1.392 . S
C2386 C2387 1.385 . S
C2386 C2388 1.478 . S
C2387 H2381 0.930 . S
C2387 C2383 1.400 . S
C2387 C2386 1.385 . S
C2388 C2386 1.478 . S
C2388 C2390 1.381 . S
C2388 C2394 1.383 . S
C2389 C2385 1.495 . S
C2389 H2395 0.959 . S
C2389 H2396 0.961 . S
C2389 H2397 0.960 . S
C2390 C2388 1.381 . S
C2390 C2391 1.394 1_655 S
C2390 H2398 0.930 . S
C2391 C2390 1.394 1_455 S
C2391 C2392 1.383 . S
C2391 H2399 0.929 . S
C2392 C2391 1.383 . S
C2392 C2393 1.377 1_455 S
C2393 H2377 0.926 1_655 S
C2393 C2392 1.377 1_655 S
C2393 C2394 1.379 . S
C2394 H2378 0.931 . S
C2394 C2388 1.383 . S
C2394 C2393 1.379 . S
H2395 C2389 0.959 . S
H2396 C2389 0.961 . S
H2397 C2389 0.960 . S
H2398 C2390 0.930 . S
H2399 C2391 0.929 . S
H2400 C2408 0.929 . S
H2401 C2410 0.930 . S
H2402 C2412 0.930 . S
H2403 C2415 0.929 . S
H2404 C2418 0.930 . S
H2405 C2420 0.960 . S
H2406 C2420 0.960 . S
H2407 C2420 0.960 . S
C2408 H2400 0.929 . S
C2408 C2409 1.377 . S
C2408 C2410 1.384 . S
C2409 C2408 1.377 . S
C2409 C2415 1.390 . S
C2410 H2401 0.930 . S
C2410 C2408 1.384 . S
C2410 C2411 1.372 . S
C2411 C2410 1.372 . S
C2411 C2412 1.400 . S
C2411 C2416 1.490 . S
C2412 H2402 0.930 . S
C2412 C2411 1.400 . S
C2412 C2415 1.386 . S
H2413 C2429 0.930 . S
H2414 C2430 0.931 . S
C2415 H2403 0.929 . S
C2415 C2409 1.390 . S
C2415 C2412 1.386 . S
C2416 C2411 1.490 . S
C2416 C2418 1.395 . S
C2416 C2419 1.403 . S
H2417 C2423 0.930 . S
C2418 H2404 0.930 . S
C2418 C2416 1.395 . S
C2418 C2421 1.403 . S
C2419 C2416 1.403 . S
C2419 C2420 1.524 . S
C2419 C2423 1.400 . S
C2420 H2405 0.960 . S
C2420 H2406 0.960 . S
C2420 H2407 0.960 . S
C2420 C2419 1.524 . S
C2421 C2418 1.403 . S
C2421 C2422 1.392 . S
C2421 C2425 1.495 . S
C2422 C2421 1.392 . S
C2422 C2423 1.385 . S
C2422 C2424 1.478 . S
C2423 H2417 0.930 . S
C2423 C2419 1.400 . S
C2423 C2422 1.385 . S
C2424 C2422 1.478 . S
C2424 C2426 1.381 . S
C2424 C2430 1.383 . S
C2425 C2421 1.495 . S
C2425 H2431 0.959 . S
C2425 H2432 0.961 . S
C2425 H2433 0.960 . S
C2426 C2424 1.381 . S
C2426 C2427 1.394 . S
C2426 H2434 0.930 . S
C2427 C2426 1.394 . S
C2427 C2428 1.383 . S
C2427 H2435 0.929 . S
C2428 C2427 1.383 . S
C2428 C2429 1.377 . S
C2429 H2413 0.930 . S
C2429 C2428 1.377 . S
C2429 C2430 1.379 . S
C2430 H2414 0.931 . S
C2430 C2424 1.383 . S
C2430 C2429 1.379 . S
H2431 C2425 0.959 . S
H2432 C2425 0.961 . S
H2433 C2425 0.960 . S
H2434 C2426 0.930 . S
H2435 C2427 0.929 . S
H2436 C2444 0.929 . S
H2437 C2446 0.930 . S
H2438 C2448 0.930 . S
H2439 C2451 0.929 . S
H2440 C2454 0.930 . S
H2441 C2456 0.960 . S
H2442 C2456 0.960 . S
H2443 C2456 0.960 . S
C2444 H2436 0.929 . S
C2444 C2445 1.377 . S
C2444 C2446 1.384 . S
C2445 C2444 1.377 . S
C2445 C2451 1.390 . S
C2446 H2437 0.930 . S
C2446 C2444 1.384 . S
C2446 C2447 1.372 . S
C2447 C2446 1.372 . S
C2447 C2448 1.400 . S
C2447 C2452 1.490 . S
C2448 H2438 0.930 . S
C2448 C2447 1.400 . S
C2448 C2451 1.386 . S
H2449 C2465 0.930 . S
H2450 C2466 0.931 . S
C2451 H2439 0.929 . S
C2451 C2445 1.390 . S
C2451 C2448 1.386 . S
C2452 C2447 1.490 . S
C2452 C2454 1.395 . S
C2452 C2455 1.403 . S
H2453 C2459 0.930 . S
C2454 H2440 0.930 . S
C2454 C2452 1.395 . S
C2454 C2457 1.403 . S
C2455 C2452 1.403 . S
C2455 C2456 1.524 . S
C2455 C2459 1.400 . S
C2456 H2441 0.960 . S
C2456 H2442 0.960 . S
C2456 H2443 0.960 . S
C2456 C2455 1.524 . S
C2457 C2454 1.403 . S
C2457 C2458 1.392 . S
C2457 C2461 1.495 . S
C2458 C2457 1.392 . S
C2458 C2459 1.385 . S
C2458 C2460 1.478 . S
C2459 H2453 0.930 . S
C2459 C2455 1.400 . S
C2459 C2458 1.385 . S
C2460 C2458 1.478 . S
C2460 C2462 1.381 . S
C2460 C2466 1.383 . S
C2461 C2457 1.495 . S
C2461 H2467 0.959 . S
C2461 H2468 0.961 . S
C2461 H2469 0.960 . S
C2462 C2460 1.381 . S
C2462 C2463 1.394 . S
C2462 H2470 0.930 . S
C2463 C2462 1.394 . S
C2463 C2464 1.383 . S
C2463 H2471 0.929 . S
C2464 C2463 1.383 . S
C2464 C2465 1.377 . S
C2465 H2449 0.930 . S
C2465 C2464 1.377 . S
C2465 C2466 1.379 . S
C2466 H2450 0.931 . S
C2466 C2460 1.383 . S
C2466 C2465 1.379 . S
H2467 C2461 0.959 . S
H2468 C2461 0.961 . S
H2469 C2461 0.960 . S
H2470 C2462 0.930 . S
H2471 C2463 0.929 . S
H2472 C2480 0.929 . S
H2473 C2482 0.930 . S
H2474 C2484 0.930 . S
H2475 C2487 0.929 . S
H2476 C2490 0.930 . S
H2477 C2492 0.960 . S
H2478 C2492 0.960 . S
H2479 C2492 0.960 . S
C2480 H2472 0.929 . S
C2480 C2481 1.377 . S
C2480 C2482 1.384 . S
C2481 C2480 1.377 . S
C2481 C2487 1.390 . S
C2482 H2473 0.930 . S
C2482 C2480 1.384 . S
C2482 C2483 1.372 . S
C2483 C2482 1.372 . S
C2483 C2484 1.400 . S
C2483 C2488 1.490 . S
C2484 H2474 0.930 . S
C2484 C2483 1.400 . S
C2484 C2487 1.386 . S
H2485 C2501 0.930 . S
H2486 C2502 0.931 . S
C2487 H2475 0.929 . S
C2487 C2481 1.390 . S
C2487 C2484 1.386 . S
C2488 C2483 1.490 . S
C2488 C2490 1.395 . S
C2488 C2491 1.403 . S
H2489 C2495 0.930 . S
C2490 H2476 0.930 . S
C2490 C2488 1.395 . S
C2490 C2493 1.403 . S
C2491 C2488 1.403 . S
C2491 C2492 1.524 . S
C2491 C2495 1.400 . S
C2492 H2477 0.960 . S
C2492 H2478 0.960 . S
C2492 H2479 0.960 . S
C2492 C2491 1.524 . S
C2493 C2490 1.403 . S
C2493 C2494 1.392 . S
C2493 C2497 1.495 . S
C2494 C2493 1.392 . S
C2494 C2495 1.385 . S
C2494 C2496 1.478 . S
C2495 H2489 0.930 . S
C2495 C2491 1.400 . S
C2495 C2494 1.385 . S
C2496 C2494 1.478 . S
C2496 C2498 1.381 . S
C2496 C2502 1.383 . S
C2497 C2493 1.495 . S
C2497 H2503 0.959 . S
C2497 H2504 0.961 . S
C2497 H2505 0.960 . S
C2498 C2496 1.381 . S
C2498 C2499 1.394 . S
C2498 H2506 0.930 . S
C2499 C2498 1.394 . S
C2499 C2500 1.383 . S
C2499 H2507 0.929 . S
C2500 C2499 1.383 . S
C2500 C2501 1.377 . S
C2501 H2485 0.930 . S
C2501 C2500 1.377 . S
C2501 C2502 1.379 . S
C2502 H2486 0.931 . S
C2502 C2496 1.383 . S
C2502 C2501 1.379 . S
H2503 C2497 0.959 . S
H2504 C2497 0.961 . S
H2505 C2497 0.960 . S
H2506 C2498 0.930 . S
H2507 C2499 0.929 . S
H2508 C2516 0.929 . S
H2509 C2518 0.930 . S
H2510 C2520 0.930 . S
H2511 C2523 0.929 . S
H2512 C2526 0.930 . S
H2513 C2528 0.960 . S
H2514 C2528 0.960 . S
H2515 C2528 0.960 . S
C2516 H2508 0.929 . S
C2516 C2517 1.377 . S
C2516 C2518 1.384 . S
C2517 C2516 1.377 . S
C2517 C2523 1.390 . S
C2518 H2509 0.930 . S
C2518 C2516 1.384 . S
C2518 C2519 1.372 . S
C2519 C2518 1.372 . S
C2519 C2520 1.400 . S
C2519 C2524 1.490 . S
C2520 H2510 0.930 . S
C2520 C2519 1.400 . S
C2520 C2523 1.386 . S
H2521 C2537 0.930 . S
H2522 C2538 0.931 . S
C2523 H2511 0.929 . S
C2523 C2517 1.390 . S
C2523 C2520 1.386 . S
C2524 C2519 1.490 . S
C2524 C2526 1.395 . S
C2524 C2527 1.403 . S
H2525 C2531 0.930 . S
C2526 H2512 0.930 . S
C2526 C2524 1.395 . S
C2526 C2529 1.403 . S
C2527 C2524 1.403 . S
C2527 C2528 1.524 . S
C2527 C2531 1.400 . S
C2528 H2513 0.960 . S
C2528 H2514 0.960 . S
C2528 H2515 0.960 . S
C2528 C2527 1.524 . S
C2529 C2526 1.403 . S
C2529 C2530 1.392 . S
C2529 C2533 1.495 . S
C2530 C2529 1.392 . S
C2530 C2531 1.385 . S
C2530 C2532 1.478 . S
C2531 H2525 0.930 . S
C2531 C2527 1.400 . S
C2531 C2530 1.385 . S
C2532 C2530 1.478 . S
C2532 C2534 1.381 . S
C2532 C2538 1.383 . S
C2533 C2529 1.495 . S
C2533 H2539 0.959 . S
C2533 H2540 0.961 . S
C2533 H2541 0.960 . S
C2534 C2532 1.381 . S
C2534 C2535 1.394 . S
C2534 H2542 0.930 . S
C2535 C2534 1.394 . S
C2535 C2536 1.383 . S
C2535 H2543 0.929 . S
C2536 C2535 1.383 . S
C2536 C2537 1.377 . S
C2537 H2521 0.930 . S
C2537 C2536 1.377 . S
C2537 C2538 1.379 . S
C2538 H2522 0.931 . S
C2538 C2532 1.383 . S
C2538 C2537 1.379 . S
H2539 C2533 0.959 . S
H2540 C2533 0.961 . S
H2541 C2533 0.960 . S
H2542 C2534 0.930 . S
H2543 C2535 0.929 . S
H2544 C2552 0.929 . S
H2545 C2554 0.930 . S
H2546 C2556 0.930 . S
H2547 C2559 0.929 . S
H2548 C2562 0.930 . S
H2549 C2564 0.960 . S
H2550 C2564 0.960 . S
H2551 C2564 0.960 . S
C2552 H2544 0.929 . S
C2552 C2553 1.377 . S
C2552 C2554 1.384 . S
C2553 C2552 1.377 . S
C2553 C2559 1.390 . S
C2554 H2545 0.930 . S
C2554 C2552 1.384 . S
C2554 C2555 1.372 . S
C2555 C2554 1.372 . S
C2555 C2556 1.400 . S
C2555 C2560 1.490 . S
C2556 H2546 0.930 . S
C2556 C2555 1.400 . S
C2556 C2559 1.386 . S
H2557 C2573 0.930 . S
H2558 C2574 0.931 . S
C2559 H2547 0.929 . S
C2559 C2553 1.390 . S
C2559 C2556 1.386 . S
C2560 C2555 1.490 . S
C2560 C2562 1.395 . S
C2560 C2563 1.403 . S
H2561 C2567 0.930 . S
C2562 H2548 0.930 . S
C2562 C2560 1.395 . S
C2562 C2565 1.403 . S
C2563 C2560 1.403 . S
C2563 C2564 1.524 . S
C2563 C2567 1.400 . S
C2564 H2549 0.960 . S
C2564 H2550 0.960 . S
C2564 H2551 0.960 . S
C2564 C2563 1.524 . S
C2565 C2562 1.403 . S
C2565 C2566 1.392 . S
C2565 C2569 1.495 . S
C2566 C2565 1.392 . S
C2566 C2567 1.385 . S
C2566 C2568 1.478 . S
C2567 H2561 0.930 . S
C2567 C2563 1.400 . S
C2567 C2566 1.385 . S
C2568 C2566 1.478 . S
C2568 C2570 1.381 . S
C2568 C2574 1.383 . S
C2569 C2565 1.495 . S
C2569 H2575 0.959 . S
C2569 H2576 0.961 . S
C2569 H2577 0.960 . S
C2570 C2568 1.381 . S
C2570 C2571 1.394 . S
C2570 H2578 0.930 . S
C2571 C2570 1.394 . S
C2571 C2572 1.383 . S
C2571 H2579 0.929 . S
C2572 C2571 1.383 . S
C2572 C2573 1.377 . S
C2573 H2557 0.930 . S
C2573 C2572 1.377 . S
C2573 C2574 1.379 . S
C2574 H2558 0.931 . S
C2574 C2568 1.383 . S
C2574 C2573 1.379 . S
H2575 C2569 0.959 . S
H2576 C2569 0.961 . S
H2577 C2569 0.960 . S
H2578 C2570 0.930 . S
H2579 C2571 0.929 . S
H2580 C2588 0.929 . S
H2581 C2590 0.930 . S
H2582 C2592 0.930 . S
H2583 C2595 0.929 . S
H2584 C2598 0.930 . S
H2585 C2600 0.960 . S
H2586 C2600 0.960 . S
H2587 C2600 0.960 . S
C2588 H2580 0.929 . S
C2588 C2589 1.377 . S
C2588 C2590 1.384 . S
C2589 C2588 1.377 . S
C2589 C2595 1.390 . S
C2590 H2581 0.930 . S
C2590 C2588 1.384 . S
C2590 C2591 1.372 . S
C2591 C2590 1.372 . S
C2591 C2592 1.400 . S
C2591 C2596 1.490 . S
C2592 H2582 0.930 . S
C2592 C2591 1.400 . S
C2592 C2595 1.386 . S
H2593 C2609 0.930 . S
H2594 C2610 0.931 . S
C2595 H2583 0.929 . S
C2595 C2589 1.390 . S
C2595 C2592 1.386 . S
C2596 C2591 1.490 . S
C2596 C2598 1.395 . S
C2596 C2599 1.403 . S
H2597 C2603 0.930 . S
C2598 H2584 0.930 . S
C2598 C2596 1.395 . S
C2598 C2601 1.403 . S
C2599 C2596 1.403 . S
C2599 C2600 1.524 . S
C2599 C2603 1.400 . S
C2600 H2585 0.960 . S
C2600 H2586 0.960 . S
C2600 H2587 0.960 . S
C2600 C2599 1.524 . S
C2601 C2598 1.403 . S
C2601 C2602 1.392 . S
C2601 C2605 1.495 . S
C2602 C2601 1.392 . S
C2602 C2603 1.385 . S
C2602 C2604 1.478 . S
C2603 H2597 0.930 . S
C2603 C2599 1.400 . S
C2603 C2602 1.385 . S
C2604 C2602 1.478 . S
C2604 C2606 1.381 . S
C2604 C2610 1.383 . S
C2605 C2601 1.495 . S
C2605 H2611 0.959 . S
C2605 H2612 0.961 . S
C2605 H2613 0.960 . S
C2606 C2604 1.381 . S
C2606 C2607 1.394 . S
C2606 H2614 0.930 . S
C2607 C2606 1.394 . S
C2607 C2608 1.383 . S
C2607 H2615 0.929 . S
C2608 C2607 1.383 . S
C2608 C2609 1.377 . S
C2609 H2593 0.930 . S
C2609 C2608 1.377 . S
C2609 C2610 1.379 . S
C2610 H2594 0.931 . S
C2610 C2604 1.383 . S
C2610 C2609 1.379 . S
H2611 C2605 0.959 . S
H2612 C2605 0.961 . S
H2613 C2605 0.960 . S
H2614 C2606 0.930 . S
H2615 C2607 0.929 . S
H2616 C2624 0.929 . S
H2617 C2626 0.930 . S
H2618 C2628 0.930 . S
H2619 C2631 0.929 . S
H2620 C2634 0.930 . S
H2621 C2636 0.960 . S
H2622 C2636 0.960 . S
H2623 C2636 0.960 . S
C2624 H2616 0.929 . S
C2624 C2625 1.377 . S
C2624 C2626 1.384 . S
C2625 C2624 1.377 . S
C2625 C2631 1.390 . S
C2626 H2617 0.930 . S
C2626 C2624 1.384 . S
C2626 C2627 1.372 . S
C2627 C2626 1.372 . S
C2627 C2628 1.400 . S
C2627 C2632 1.490 . S
C2628 H2618 0.930 . S
C2628 C2627 1.400 . S
C2628 C2631 1.386 . S
H2629 C2645 0.930 . S
H2630 C2646 0.931 . S
C2631 H2619 0.929 . S
C2631 C2625 1.390 . S
C2631 C2628 1.386 . S
C2632 C2627 1.490 . S
C2632 C2634 1.395 . S
C2632 C2635 1.403 . S
H2633 C2639 0.930 . S
C2634 H2620 0.930 . S
C2634 C2632 1.395 . S
C2634 C2637 1.403 . S
C2635 C2632 1.403 . S
C2635 C2636 1.524 . S
C2635 C2639 1.400 . S
C2636 H2621 0.960 . S
C2636 H2622 0.960 . S
C2636 H2623 0.960 . S
C2636 C2635 1.524 . S
C2637 C2634 1.403 . S
C2637 C2638 1.392 . S
C2637 C2641 1.495 . S
C2638 C2637 1.392 . S
C2638 C2639 1.385 . S
C2638 C2640 1.478 . S
C2639 H2633 0.930 . S
C2639 C2635 1.400 . S
C2639 C2638 1.385 . S
C2640 C2638 1.478 . S
C2640 C2642 1.381 . S
C2640 C2646 1.383 . S
C2641 C2637 1.495 . S
C2641 H2647 0.959 . S
C2641 H2648 0.961 . S
C2641 H2649 0.960 . S
C2642 C2640 1.381 . S
C2642 C2643 1.394 . S
C2642 H2650 0.930 . S
C2643 C2642 1.394 . S
C2643 C2644 1.383 . S
C2643 H2651 0.929 . S
C2644 C2643 1.383 . S
C2644 C2645 1.377 . S
C2645 H2629 0.930 . S
C2645 C2644 1.377 . S
C2645 C2646 1.379 . S
C2646 H2630 0.931 . S
C2646 C2640 1.383 . S
C2646 C2645 1.379 . S
H2647 C2641 0.959 . S
H2648 C2641 0.961 . S
H2649 C2641 0.960 . S
H2650 C2642 0.930 . S
H2651 C2643 0.929 . S
H2652 C2660 0.929 . S
H2653 C2662 0.930 . S
H2654 C2664 0.930 . S
H2655 C2667 0.929 . S
H2656 C2670 0.930 . S
H2657 C2672 0.960 . S
H2658 C2672 0.960 . S
H2659 C2672 0.960 . S
C2660 H2652 0.929 . S
C2660 C2661 1.377 . S
C2660 C2662 1.384 . S
C2661 C2660 1.377 . S
C2661 C2667 1.390 . S
C2662 H2653 0.930 . S
C2662 C2660 1.384 . S
C2662 C2663 1.372 . S
C2663 C2662 1.372 . S
C2663 C2664 1.400 . S
C2663 C2668 1.490 . S
C2664 H2654 0.930 . S
C2664 C2663 1.400 . S
C2664 C2667 1.386 . S
H2665 C2681 0.930 . S
H2666 C2682 0.931 . S
C2667 H2655 0.929 . S
C2667 C2661 1.390 . S
C2667 C2664 1.386 . S
C2668 C2663 1.490 . S
C2668 C2670 1.395 . S
C2668 C2671 1.403 . S
H2669 C2675 0.930 . S
C2670 H2656 0.930 . S
C2670 C2668 1.395 . S
C2670 C2673 1.403 . S
C2671 C2668 1.403 . S
C2671 C2672 1.524 . S
C2671 C2675 1.400 . S
C2672 H2657 0.960 . S
C2672 H2658 0.960 . S
C2672 H2659 0.960 . S
C2672 C2671 1.524 . S
C2673 C2670 1.403 . S
C2673 C2674 1.392 . S
C2673 C2677 1.495 . S
C2674 C2673 1.392 . S
C2674 C2675 1.385 . S
C2674 C2676 1.478 . S
C2675 H2669 0.930 . S
C2675 C2671 1.400 . S
C2675 C2674 1.385 . S
C2676 C2674 1.478 . S
C2676 C2678 1.381 . S
C2676 C2682 1.383 . S
C2677 C2673 1.495 . S
C2677 H2683 0.959 . S
C2677 H2684 0.961 . S
C2677 H2685 0.960 . S
C2678 C2676 1.381 . S
C2678 C2679 1.394 . S
C2678 H2686 0.930 . S
C2679 C2678 1.394 . S
C2679 C2680 1.383 . S
C2679 H2687 0.929 . S
C2680 C2679 1.383 . S
C2680 C2681 1.377 . S
C2681 H2665 0.930 . S
C2681 C2680 1.377 . S
C2681 C2682 1.379 . S
C2682 H2666 0.931 . S
C2682 C2676 1.383 . S
C2682 C2681 1.379 . S
H2683 C2677 0.959 . S
H2684 C2677 0.961 . S
H2685 C2677 0.960 . S
H2686 C2678 0.930 . S
H2687 C2679 0.929 . S
H2688 C2696 0.929 . S
H2689 C2698 0.930 . S
H2690 C2700 0.930 . S
H2691 C2703 0.929 . S
H2692 C2706 0.930 . S
H2693 C2708 0.960 . S
H2694 C2708 0.960 . S
H2695 C2708 0.960 . S
C2696 H2688 0.929 . S
C2696 C2697 1.377 . S
C2696 C2698 1.384 . S
C2697 C2696 1.377 . S
C2697 C2703 1.390 . S
C2698 H2689 0.930 . S
C2698 C2696 1.384 . S
C2698 C2699 1.372 . S
C2699 C2698 1.372 . S
C2699 C2700 1.400 . S
C2699 C2704 1.490 . S
C2700 H2690 0.930 . S
C2700 C2699 1.400 . S
C2700 C2703 1.386 . S
H2701 C2717 0.930 . S
H2702 C2718 0.931 . S
C2703 H2691 0.929 . S
C2703 C2697 1.390 . S
C2703 C2700 1.386 . S
C2704 C2699 1.490 . S
C2704 C2706 1.395 . S
C2704 C2707 1.403 . S
H2705 C2711 0.930 . S
C2706 H2692 0.930 . S
C2706 C2704 1.395 . S
C2706 C2709 1.403 . S
C2707 C2704 1.403 . S
C2707 C2708 1.524 . S
C2707 C2711 1.400 . S
C2708 H2693 0.960 . S
C2708 H2694 0.960 . S
C2708 H2695 0.960 . S
C2708 C2707 1.524 . S
C2709 C2706 1.403 . S
C2709 C2710 1.392 . S
C2709 C2713 1.495 . S
C2710 C2709 1.392 . S
C2710 C2711 1.385 . S
C2710 C2712 1.478 . S
C2711 H2705 0.930 . S
C2711 C2707 1.400 . S
C2711 C2710 1.385 . S
C2712 C2710 1.478 . S
C2712 C2714 1.381 . S
C2712 C2718 1.383 . S
C2713 C2709 1.495 . S
C2713 H2719 0.959 . S
C2713 H2720 0.961 . S
C2713 H2721 0.960 . S
C2714 C2712 1.381 . S
C2714 C2715 1.394 . S
C2714 H2722 0.930 . S
C2715 C2714 1.394 . S
C2715 C2716 1.383 . S
C2715 H2723 0.929 . S
C2716 C2715 1.383 . S
C2716 C2717 1.377 . S
C2717 H2701 0.930 . S
C2717 C2716 1.377 . S
C2717 C2718 1.379 . S
C2718 H2702 0.931 . S
C2718 C2712 1.383 . S
C2718 C2717 1.379 . S
H2719 C2713 0.959 . S
H2720 C2713 0.961 . S
H2721 C2713 0.960 . S
H2722 C2714 0.930 . S
H2723 C2715 0.929 . S
H2724 C2732 0.929 . S
H2725 C2734 0.930 . S
H2726 C2736 0.930 . S
H2727 C2739 0.929 . S
H2728 C2742 0.930 . S
H2729 C2744 0.960 . S
H2730 C2744 0.960 . S
H2731 C2744 0.960 . S
C2732 H2724 0.929 . S
C2732 C2733 1.377 . S
C2732 C2734 1.384 . S
C2733 C2732 1.377 . S
C2733 C2739 1.390 . S
C2734 H2725 0.930 . S
C2734 C2732 1.384 . S
C2734 C2735 1.372 . S
C2735 C2734 1.372 . S
C2735 C2736 1.400 . S
C2735 C2740 1.490 . S
C2736 H2726 0.930 . S
C2736 C2735 1.400 . S
C2736 C2739 1.386 . S
H2737 C2753 0.930 . S
H2738 C2754 0.931 . S
C2739 H2727 0.929 . S
C2739 C2733 1.390 . S
C2739 C2736 1.386 . S
C2740 C2735 1.490 . S
C2740 C2742 1.395 . S
C2740 C2743 1.403 . S
H2741 C2747 0.930 . S
C2742 H2728 0.930 . S
C2742 C2740 1.395 . S
C2742 C2745 1.403 . S
C2743 C2740 1.403 . S
C2743 C2744 1.524 . S
C2743 C2747 1.400 . S
C2744 H2729 0.960 . S
C2744 H2730 0.960 . S
C2744 H2731 0.960 . S
C2744 C2743 1.524 . S
C2745 C2742 1.403 . S
C2745 C2746 1.392 . S
C2745 C2749 1.495 . S
C2746 C2745 1.392 . S
C2746 C2747 1.385 . S
C2746 C2748 1.478 . S
C2747 H2741 0.930 . S
C2747 C2743 1.400 . S
C2747 C2746 1.385 . S
C2748 C2746 1.478 . S
C2748 C2750 1.381 . S
C2748 C2754 1.383 . S
C2749 C2745 1.495 . S
C2749 H2755 0.959 . S
C2749 H2756 0.961 . S
C2749 H2757 0.960 . S
C2750 C2748 1.381 . S
C2750 C2751 1.394 . S
C2750 H2758 0.930 . S
C2751 C2750 1.394 . S
C2751 C2752 1.383 . S
C2751 H2759 0.929 . S
C2752 C2751 1.383 . S
C2752 C2753 1.377 . S
C2753 H2737 0.930 . S
C2753 C2752 1.377 . S
C2753 C2754 1.379 . S
C2754 H2738 0.931 . S
C2754 C2748 1.383 . S
C2754 C2753 1.379 . S
H2755 C2749 0.959 . S
H2756 C2749 0.961 . S
H2757 C2749 0.960 . S
H2758 C2750 0.930 . S
H2759 C2751 0.929 . S
H2760 C2768 0.929 . S
H2761 C2770 0.930 . S
H2762 C2772 0.930 . S
H2763 C2775 0.929 . S
H2764 C2778 0.930 . S
H2765 C2780 0.960 . S
H2766 C2780 0.960 . S
H2767 C2780 0.960 . S
C2768 H2760 0.929 . S
C2768 C2769 1.377 . S
C2768 C2770 1.384 . S
C2769 C2768 1.377 . S
C2769 C2775 1.390 . S
C2770 H2761 0.930 . S
C2770 C2768 1.384 . S
C2770 C2771 1.372 . S
C2771 C2770 1.372 . S
C2771 C2772 1.400 . S
C2771 C2776 1.490 . S
C2772 H2762 0.930 . S
C2772 C2771 1.400 . S
C2772 C2775 1.386 . S
H2773 C2789 0.930 . S
H2774 C2790 0.931 . S
C2775 H2763 0.929 . S
C2775 C2769 1.390 . S
C2775 C2772 1.386 . S
C2776 C2771 1.490 . S
C2776 C2778 1.395 . S
C2776 C2779 1.403 . S
H2777 C2783 0.930 . S
C2778 H2764 0.930 . S
C2778 C2776 1.395 . S
C2778 C2781 1.403 . S
C2779 C2776 1.403 . S
C2779 C2780 1.524 . S
C2779 C2783 1.400 . S
C2780 H2765 0.960 . S
C2780 H2766 0.960 . S
C2780 H2767 0.960 . S
C2780 C2779 1.524 . S
C2781 C2778 1.403 . S
C2781 C2782 1.392 . S
C2781 C2785 1.495 . S
C2782 C2781 1.392 . S
C2782 C2783 1.385 . S
C2782 C2784 1.478 . S
C2783 H2777 0.930 . S
C2783 C2779 1.400 . S
C2783 C2782 1.385 . S
C2784 C2782 1.478 . S
C2784 C2786 1.381 . S
C2784 C2790 1.383 . S
C2785 C2781 1.495 . S
C2785 H2791 0.959 . S
C2785 H2792 0.961 . S
C2785 H2793 0.960 . S
C2786 C2784 1.381 . S
C2786 C2787 1.394 1_556 S
C2786 H2794 0.930 . S
C2787 C2786 1.394 1_554 S
C2787 C2788 1.383 1_554 S
C2787 H2795 0.929 . S
C2788 C2787 1.383 1_556 S
C2788 C2789 1.377 . S
C2789 H2773 0.930 . S
C2789 C2788 1.377 . S
C2789 C2790 1.379 . S
C2790 H2774 0.931 . S
C2790 C2784 1.383 . S
C2790 C2789 1.379 . S
H2791 C2785 0.959 . S
H2792 C2785 0.961 . S
H2793 C2785 0.960 . S
H2794 C2786 0.930 . S
H2795 C2787 0.929 . S
H2796 C2804 0.929 . S
H2797 C2806 0.930 . S
H2798 C2808 0.930 . S
H2799 C2811 0.929 . S
H2800 C2814 0.930 . S
H2801 C2816 0.960 . S
H2802 C2816 0.960 . S
H2803 C2816 0.960 . S
C2804 H2796 0.929 . S
C2804 C2805 1.377 . S
C2804 C2806 1.384 . S
C2805 C2804 1.377 . S
C2805 C2811 1.390 . S
C2806 H2797 0.930 . S
C2806 C2804 1.384 . S
C2806 C2807 1.372 . S
C2807 C2806 1.372 . S
C2807 C2808 1.400 . S
C2807 C2812 1.490 . S
C2808 H2798 0.930 . S
C2808 C2807 1.400 . S
C2808 C2811 1.386 . S
H2809 C2825 0.930 . S
H2810 C2826 0.931 . S
C2811 H2799 0.929 . S
C2811 C2805 1.390 . S
C2811 C2808 1.386 . S
C2812 C2807 1.490 . S
C2812 C2814 1.395 . S
C2812 C2815 1.403 . S
H2813 C2819 0.930 . S
C2814 H2800 0.930 . S
C2814 C2812 1.395 . S
C2814 C2817 1.403 . S
C2815 C2812 1.403 . S
C2815 C2816 1.524 . S
C2815 C2819 1.400 . S
C2816 H2801 0.960 . S
C2816 H2802 0.960 . S
C2816 H2803 0.960 . S
C2816 C2815 1.524 . S
C2817 C2814 1.403 . S
C2817 C2818 1.392 . S
C2817 C2821 1.495 . S
C2818 C2817 1.392 . S
C2818 C2819 1.385 . S
C2818 C2820 1.478 . S
C2819 H2813 0.930 . S
C2819 C2815 1.400 . S
C2819 C2818 1.385 . S
C2820 C2818 1.478 . S
C2820 C2822 1.381 . S
C2820 C2826 1.383 . S
C2821 C2817 1.495 . S
C2821 H2827 0.959 . S
C2821 H2828 0.961 . S
C2821 H2829 0.960 . S
C2822 C2820 1.381 . S
C2822 C2823 1.394 . S
C2822 H2830 0.930 . S
C2823 C2822 1.394 . S
C2823 C2824 1.383 . S
C2823 H2831 0.929 . S
C2824 C2823 1.383 . S
C2824 C2825 1.377 . S
C2825 H2809 0.930 . S
C2825 C2824 1.377 . S
C2825 C2826 1.379 . S
C2826 H2810 0.931 . S
C2826 C2820 1.383 . S
C2826 C2825 1.379 . S
H2827 C2821 0.959 . S
H2828 C2821 0.961 . S
H2829 C2821 0.960 . S
H2830 C2822 0.930 . S
H2831 C2823 0.929 . S
H2832 C2840 0.929 . S
H2833 C2842 0.930 . S
H2834 C2844 0.930 . S
H2835 C2847 0.929 . S
H2836 C2850 0.930 . S
H2837 C2852 0.960 . S
H2838 C2852 0.960 . S
H2839 C2852 0.960 . S
C2840 H2832 0.929 . S
C2840 C2841 1.377 1_565 S
C2840 C2842 1.384 . S
C2841 C2840 1.377 1_545 S
C2841 C2847 1.390 . S
C2842 H2833 0.930 . S
C2842 C2840 1.384 . S
C2842 C2843 1.372 1_565 S
C2843 C2842 1.372 1_545 S
C2843 C2844 1.400 . S
C2843 C2848 1.490 . S
C2844 H2834 0.930 . S
C2844 C2843 1.400 . S
C2844 C2847 1.386 . S
H2845 C2861 0.930 . S
H2846 C2862 0.931 . S
C2847 H2835 0.929 . S
C2847 C2841 1.390 . S
C2847 C2844 1.386 . S
C2848 C2843 1.490 . S
C2848 C2850 1.395 1_545 S
C2848 C2851 1.403 . S
H2849 C2855 0.930 . S
C2850 H2836 0.930 . S
C2850 C2848 1.395 1_565 S
C2850 C2853 1.403 . S
C2851 C2848 1.403 . S
C2851 C2852 1.524 . S
C2851 C2855 1.400 . S
C2852 H2837 0.960 . S
C2852 H2838 0.960 . S
C2852 H2839 0.960 . S
C2852 C2851 1.524 . S
C2853 C2850 1.403 . S
C2853 C2854 1.392 1_565 S
C2853 C2857 1.495 . S
C2854 C2853 1.392 1_545 S
C2854 C2855 1.385 . S
C2854 C2856 1.478 . S
C2855 H2849 0.930 . S
C2855 C2851 1.400 . S
C2855 C2854 1.385 . S
C2856 C2854 1.478 . S
C2856 C2858 1.381 1_545 S
C2856 C2862 1.383 . S
C2857 C2853 1.495 . S
C2857 H2863 0.959 . S
C2857 H2864 0.961 . S
C2857 H2865 0.960 . S
C2858 C2856 1.381 1_565 S
C2858 C2859 1.398 . S
C2858 H2866 0.930 . S
C2859 C2858 1.398 . S
C2859 C2860 1.356 1_565 S
C2859 H2867 0.954 . S
C2860 C2859 1.356 1_545 S
C2860 C2861 1.377 . S
C2861 H2845 0.930 . S
C2861 C2860 1.377 . S
C2861 C2862 1.379 . S
C2862 H2846 0.931 . S
C2862 C2856 1.383 . S
C2862 C2861 1.379 . S
H2863 C2857 0.959 . S
H2864 C2857 0.961 . S
H2865 C2857 0.960 . S
H2866 C2858 0.930 . S
H2867 C2859 0.954 . S
H2868 C2876 0.929 . S
H2869 C2878 0.930 . S
H2870 C2880 0.930 . S
H2871 C2883 0.929 . S
H2872 C2886 0.930 . S
H2873 C2888 0.960 . S
H2874 C2888 0.960 . S
H2875 C2888 0.960 . S
C2876 H2868 0.929 . S
C2876 C2877 1.377 . S
C2876 C2878 1.384 . S
C2877 C2876 1.377 . S
C2877 C2883 1.390 . S
C2878 H2869 0.930 . S
C2878 C2876 1.384 . S
C2878 C2879 1.372 . S
C2879 C2878 1.372 . S
C2879 C2880 1.400 . S
C2879 C2884 1.490 . S
C2880 H2870 0.930 . S
C2880 C2879 1.400 . S
C2880 C2883 1.386 . S
H2881 C2897 0.930 . S
H2882 C2898 0.931 . S
C2883 H2871 0.929 . S
C2883 C2877 1.390 . S
C2883 C2880 1.386 . S
C2884 C2879 1.490 . S
C2884 C2886 1.395 . S
C2884 C2887 1.403 . S
H2885 C2891 0.930 . S
C2886 H2872 0.930 . S
C2886 C2884 1.395 . S
C2886 C2889 1.403 . S
C2887 C2884 1.403 . S
C2887 C2888 1.524 . S
C2887 C2891 1.400 . S
C2888 H2873 0.960 . S
C2888 H2874 0.960 . S
C2888 H2875 0.960 . S
C2888 C2887 1.524 . S
C2889 C2886 1.403 . S
C2889 C2890 1.392 . S
C2889 C2893 1.495 . S
C2890 C2889 1.392 . S
C2890 C2891 1.385 . S
C2890 C2892 1.478 . S
C2891 H2885 0.930 . S
C2891 C2887 1.400 . S
C2891 C2890 1.385 . S
C2892 C2890 1.478 . S
C2892 C2894 1.381 . S
C2892 C2898 1.383 . S
C2893 C2889 1.495 . S
C2893 H2899 0.959 . S
C2893 H2900 0.961 . S
C2893 H2901 0.960 . S
C2894 C2892 1.381 . S
C2894 C2895 1.394 . S
C2894 H2902 0.930 . S
C2895 C2894 1.394 . S
C2895 C2896 1.383 . S
C2895 H2903 0.929 . S
C2896 C2895 1.383 . S
C2896 C2897 1.377 . S
C2897 H2881 0.930 . S
C2897 C2896 1.377 . S
C2897 C2898 1.379 . S
C2898 H2882 0.931 . S
C2898 C2892 1.383 . S
C2898 C2897 1.379 . S
H2899 C2893 0.959 . S
H2900 C2893 0.961 . S
H2901 C2893 0.960 . S
H2902 C2894 0.930 . S
H2903 C2895 0.929 . S
H2904 C2912 0.929 . S
H2905 C2914 0.930 . S
H2906 C2916 0.930 . S
H2907 C2919 0.929 . S
H2908 C2922 0.930 . S
H2909 C2924 0.960 . S
H2910 C2924 0.960 . S
H2911 C2924 0.960 . S
C2912 H2904 0.929 . S
C2912 C2913 1.377 . S
C2912 C2914 1.384 . S
C2913 C2912 1.377 . S
C2913 C2919 1.390 . S
C2914 H2905 0.930 . S
C2914 C2912 1.384 . S
C2914 C2915 1.372 . S
C2915 C2914 1.372 . S
C2915 C2916 1.400 . S
C2915 C2920 1.490 . S
C2916 H2906 0.930 . S
C2916 C2915 1.400 . S
C2916 C2919 1.386 . S
H2917 C2933 0.930 . S
H2918 C2934 0.931 . S
C2919 H2907 0.929 . S
C2919 C2913 1.390 . S
C2919 C2916 1.386 . S
C2920 C2915 1.490 . S
C2920 C2922 1.395 . S
C2920 C2923 1.403 . S
H2921 C2927 0.930 . S
C2922 H2908 0.930 . S
C2922 C2920 1.395 . S
C2922 C2925 1.403 . S
C2923 C2920 1.403 . S
C2923 C2924 1.524 . S
C2923 C2927 1.400 . S
C2924 H2909 0.960 . S
C2924 H2910 0.960 . S
C2924 H2911 0.960 . S
C2924 C2923 1.524 . S
C2925 C2922 1.403 . S
C2925 C2926 1.392 . S
C2925 C2929 1.495 1_545 S
C2926 C2925 1.392 . S
C2926 C2927 1.385 . S
C2926 C2928 1.478 . S
C2927 H2921 0.930 . S
C2927 C2923 1.400 . S
C2927 C2926 1.385 . S
C2928 C2926 1.478 . S
C2928 C2930 1.381 . S
C2928 C2934 1.383 . S
C2929 C2925 1.495 1_565 S
C2929 H2935 0.959 . S
C2929 H2936 0.961 . S
C2929 H2937 0.958 . S
C2930 C2928 1.381 . S
C2930 C2931 1.394 . S
C2930 H2938 0.930 . S
C2931 C2930 1.394 . S
C2931 C2932 1.383 . S
C2931 H2939 0.929 . S
C2932 C2931 1.383 . S
C2932 C2933 1.377 . S
C2933 H2917 0.930 . S
C2933 C2932 1.377 . S
C2933 C2934 1.379 . S
C2934 H2918 0.931 . S
C2934 C2928 1.383 . S
C2934 C2933 1.379 . S
H2935 C2929 0.959 . S
H2936 C2929 0.961 . S
H2937 C2929 0.958 . S
H2938 C2930 0.930 . S
H2939 C2931 0.929 . S
H2940 C2948 0.929 . S
H2941 C2950 0.930 . S
H2942 C2952 0.930 . S
H2943 C2955 0.929 . S
H2944 C2958 0.930 . S
H2945 C2960 0.960 . S
H2946 C2960 0.960 . S
H2947 C2960 0.960 . S
C2948 H2940 0.929 . S
C2948 C2949 1.377 . S
C2948 C2950 1.384 . S
C2949 C2948 1.377 . S
C2949 C2955 1.390 . S
C2950 H2941 0.930 . S
C2950 C2948 1.384 . S
C2950 C2951 1.372 . S
C2951 C2950 1.372 . S
C2951 C2952 1.400 . S
C2951 C2956 1.490 . S
C2952 H2942 0.930 . S
C2952 C2951 1.400 . S
C2952 C2955 1.386 . S
H2953 C2969 0.930 . S
H2954 C2970 0.931 . S
C2955 H2943 0.929 . S
C2955 C2949 1.390 . S
C2955 C2952 1.386 . S
C2956 C2951 1.490 . S
C2956 C2958 1.395 . S
C2956 C2959 1.403 . S
H2957 C2963 0.930 . S
C2958 H2944 0.930 . S
C2958 C2956 1.395 . S
C2958 C2961 1.403 . S
C2959 C2956 1.403 . S
C2959 C2960 1.524 . S
C2959 C2963 1.400 . S
C2960 H2945 0.960 . S
C2960 H2946 0.960 . S
C2960 H2947 0.960 . S
C2960 C2959 1.524 . S
C2961 C2958 1.403 . S
C2961 C2962 1.392 . S
C2961 C2965 1.495 . S
C2962 C2961 1.392 . S
C2962 C2963 1.385 . S
C2962 C2964 1.478 . S
C2963 H2957 0.930 . S
C2963 C2959 1.400 . S
C2963 C2962 1.385 . S
C2964 C2962 1.478 . S
C2964 C2966 1.381 . S
C2964 C2970 1.383 . S
C2965 C2961 1.495 . S
C2965 H2971 0.959 . S
C2965 H2972 0.961 . S
C2965 H2973 0.960 . S
C2966 C2964 1.381 . S
C2966 C2967 1.394 . S
C2966 H2974 0.930 . S
C2967 C2966 1.394 . S
C2967 C2968 1.383 . S
C2967 H2975 0.929 . S
C2968 C2967 1.383 . S
C2968 C2969 1.377 . S
C2969 H2953 0.930 . S
C2969 C2968 1.377 . S
C2969 C2970 1.379 . S
C2970 H2954 0.931 . S
C2970 C2964 1.383 . S
C2970 C2969 1.379 . S
H2971 C2965 0.959 . S
H2972 C2965 0.961 . S
H2973 C2965 0.960 . S
H2974 C2966 0.930 . S
H2975 C2967 0.929 . S
H2976 C2984 0.929 . S
H2977 C2986 0.930 . S
H2978 C2988 0.930 . S
H2979 C2991 0.929 . S
H2980 C2994 0.930 1_565 S
H2981 C2996 0.960 . S
H2982 C2996 0.960 . S
H2983 C2996 0.960 . S
C2984 H2976 0.929 . S
C2984 C2985 1.377 . S
C2984 C2986 1.384 . S
C2985 C2984 1.377 . S
C2985 C2991 1.390 1_565 S
C2986 H2977 0.930 . S
C2986 C2984 1.384 . S
C2986 C2987 1.372 1_565 S
C2987 C2986 1.372 1_545 S
C2987 C2988 1.400 . S
C2987 C2992 1.490 . S
C2988 H2978 0.930 . S
C2988 C2987 1.400 . S
C2988 C2991 1.386 . S
H2989 C3005 0.930 . S
H2990 C3006 0.931 . S
C2991 H2979 0.929 . S
C2991 C2985 1.390 1_545 S
C2991 C2988 1.386 . S
C2992 C2987 1.490 . S
C2992 C2994 1.395 . S
C2992 C2995 1.403 . S
H2993 C2999 0.930 . S
C2994 H2980 0.930 1_545 S
C2994 C2992 1.395 . S
C2994 C2997 1.403 . S
C2995 C2992 1.403 . S
C2995 C2996 1.524 . S
C2995 C2999 1.400 . S
C2996 H2981 0.960 . S
C2996 H2982 0.960 . S
C2996 H2983 0.960 . S
C2996 C2995 1.524 . S
C2997 C2994 1.403 . S
C2997 C2998 1.392 . S
C2997 C3001 1.495 . S
C2998 C2997 1.392 . S
C2998 C2999 1.385 . S
C2998 C3000 1.478 . S
C2999 H2993 0.930 . S
C2999 C2995 1.400 . S
C2999 C2998 1.385 . S
C3000 C2998 1.478 . S
C3000 C3002 1.381 . S
C3000 C3006 1.383 . S
C3001 C2997 1.495 . S
C3001 H3007 0.954 1_545 S
C3001 H3008 0.971 . S
C3001 H3009 0.955 1_545 S
C3002 C3000 1.381 . S
C3002 C3003 1.394 . S
C3002 H3010 0.930 1_545 S
C3003 C3002 1.394 . S
C3003 C3004 1.383 . S
C3003 H3011 0.929 1_545 S
C3004 C3003 1.383 . S
C3004 C3005 1.377 . S
C3005 H2989 0.930 . S
C3005 C3004 1.377 . S
C3005 C3006 1.379 . S
C3006 H2990 0.931 . S
C3006 C3000 1.383 . S
C3006 C3005 1.379 . S
H3007 C3001 0.954 1_565 S
H3008 C3001 0.971 . S
H3009 C3001 0.955 1_565 S
H3010 C3002 0.930 1_565 S
H3011 C3003 0.929 1_565 S
H3012 C3020 0.929 . S
H3013 C3022 0.930 . S
H3014 C3024 0.930 . S
H3015 C3027 0.929 . S
H3016 C3030 0.930 . S
H3017 C3032 0.960 . S
H3018 C3032 0.960 . S
H3019 C3032 0.960 . S
C3020 H3012 0.929 . S
C3020 C3021 1.377 . S
C3020 C3022 1.384 . S
C3021 C3020 1.377 . S
C3021 C3027 1.390 . S
C3022 H3013 0.930 . S
C3022 C3020 1.384 . S
C3022 C3023 1.372 . S
C3023 C3022 1.372 . S
C3023 C3024 1.400 . S
C3023 C3028 1.490 . S
C3024 H3014 0.930 . S
C3024 C3023 1.400 . S
C3024 C3027 1.386 . S
H3025 C3041 0.930 . S
H3026 C3042 0.931 . S
C3027 H3015 0.929 . S
C3027 C3021 1.390 . S
C3027 C3024 1.386 . S
C3028 C3023 1.490 . S
C3028 C3030 1.395 . S
C3028 C3031 1.403 . S
H3029 C3035 0.930 . S
C3030 H3016 0.930 . S
C3030 C3028 1.395 . S
C3030 C3033 1.403 . S
C3031 C3028 1.403 . S
C3031 C3032 1.524 . S
C3031 C3035 1.400 . S
C3032 H3017 0.960 . S
C3032 H3018 0.960 . S
C3032 H3019 0.960 . S
C3032 C3031 1.524 . S
C3033 C3030 1.403 . S
C3033 C3034 1.392 . S
C3033 C3037 1.495 . S
C3034 C3033 1.392 . S
C3034 C3035 1.385 . S
C3034 C3036 1.478 . S
C3035 H3029 0.930 . S
C3035 C3031 1.400 . S
C3035 C3034 1.385 . S
C3036 C3034 1.478 . S
C3036 C3038 1.381 . S
C3036 C3042 1.383 . S
C3037 C3033 1.495 . S
C3037 H3043 0.959 . S
C3037 H3044 0.961 . S
C3037 H3045 0.960 . S
C3038 C3036 1.381 . S
C3038 C3039 1.394 . S
C3038 H3046 0.930 . S
C3039 C3038 1.394 . S
C3039 C3040 1.383 . S
C3039 H3047 0.929 . S
C3040 C3039 1.383 . S
C3040 C3041 1.377 . S
C3041 H3025 0.930 . S
C3041 C3040 1.377 . S
C3041 C3042 1.379 . S
C3042 H3026 0.931 . S
C3042 C3036 1.383 . S
C3042 C3041 1.379 . S
H3043 C3037 0.959 . S
H3044 C3037 0.961 . S
H3045 C3037 0.960 . S
H3046 C3038 0.930 . S
H3047 C3039 0.929 . S
H3048 C3056 0.929 1_565 S
H3049 C3058 0.930 1_565 S
H3050 C3060 0.930 . S
H3051 C3063 0.929 . S
H3052 C3066 0.930 . S
H3053 C3068 0.960 . S
H3054 C3068 0.960 . S
H3055 C3068 0.960 . S
C3056 H3048 0.929 1_545 S
C3056 C3057 1.377 . S
C3056 C3058 1.384 . S
C3057 C3056 1.377 . S
C3057 C3063 1.390 . S
C3058 H3049 0.930 1_545 S
C3058 C3056 1.384 . S
C3058 C3059 1.372 . S
C3059 C3058 1.372 . S
C3059 C3060 1.400 . S
C3059 C3064 1.490 . S
C3060 H3050 0.930 . S
C3060 C3059 1.400 . S
C3060 C3063 1.386 . S
H3061 C3077 0.930 . S
H3062 C3078 0.931 . S
C3063 H3051 0.929 . S
C3063 C3057 1.390 . S
C3063 C3060 1.386 . S
C3064 C3059 1.490 . S
C3064 C3066 1.395 . S
C3064 C3067 1.403 . S
H3065 C3071 0.930 . S
C3066 H3052 0.930 . S
C3066 C3064 1.395 . S
C3066 C3069 1.403 . S
C3067 C3064 1.403 . S
C3067 C3068 1.524 . S
C3067 C3071 1.400 . S
C3068 H3053 0.960 . S
C3068 H3054 0.960 . S
C3068 H3055 0.960 . S
C3068 C3067 1.524 . S
C3069 C3066 1.403 . S
C3069 C3070 1.392 . S
C3069 C3073 1.495 . S
C3070 C3069 1.392 . S
C3070 C3071 1.385 . S
C3070 C3072 1.478 . S
C3071 H3065 0.930 . S
C3071 C3067 1.400 . S
C3071 C3070 1.385 . S
C3072 C3070 1.478 . S
C3072 C3074 1.381 . S
C3072 C3078 1.383 . S
C3073 C3069 1.495 . S
C3073 H3079 0.959 . S
C3073 H3080 0.961 . S
C3073 H3081 0.960 . S
C3074 C3072 1.381 . S
C3074 C3075 1.394 . S
C3074 H3082 0.930 1_545 S
C3075 C3074 1.394 . S
C3075 C3076 1.383 . S
C3075 H3083 0.929 1_545 S
C3076 C3075 1.383 . S
C3076 C3077 1.377 . S
C3077 H3061 0.930 . S
C3077 C3076 1.377 . S
C3077 C3078 1.379 . S
C3078 H3062 0.931 . S
C3078 C3072 1.383 . S
C3078 C3077 1.379 . S
H3079 C3073 0.959 . S
H3080 C3073 0.961 . S
H3081 C3073 0.960 . S
H3082 C3074 0.930 1_565 S
H3083 C3075 0.929 1_565 S
H3084 C3092 0.929 . S
H3085 C3094 0.930 . S
H3086 C3096 0.930 . S
H3087 C3099 0.929 . S
H3088 C3102 0.930 . S
H3089 C3104 0.960 . S
H3090 C3104 0.960 . S
H3091 C3104 0.960 . S
C3092 H3084 0.929 . S
C3092 C3093 1.377 . S
C3092 C3094 1.384 . S
C3093 C3092 1.377 . S
C3093 C3099 1.390 . S
C3094 H3085 0.930 . S
C3094 C3092 1.384 . S
C3094 C3095 1.372 . S
C3095 C3094 1.372 . S
C3095 C3096 1.400 . S
C3095 C3100 1.490 . S
C3096 H3086 0.930 . S
C3096 C3095 1.400 . S
C3096 C3099 1.386 . S
H3097 C3113 0.930 . S
H3098 C3114 0.931 . S
C3099 H3087 0.929 . S
C3099 C3093 1.390 . S
C3099 C3096 1.386 . S
C3100 C3095 1.490 . S
C3100 C3102 1.395 . S
C3100 C3103 1.403 . S
H3101 C3107 0.930 . S
C3102 H3088 0.930 . S
C3102 C3100 1.395 . S
C3102 C3105 1.403 . S
C3103 C3100 1.403 . S
C3103 C3104 1.524 . S
C3103 C3107 1.400 . S
C3104 H3089 0.960 . S
C3104 H3090 0.960 . S
C3104 H3091 0.960 . S
C3104 C3103 1.524 . S
C3105 C3102 1.403 . S
C3105 C3106 1.392 . S
C3105 C3109 1.495 . S
C3106 C3105 1.392 . S
C3106 C3107 1.385 . S
C3106 C3108 1.478 . S
C3107 H3101 0.930 . S
C3107 C3103 1.400 . S
C3107 C3106 1.385 . S
C3108 C3106 1.478 . S
C3108 C3110 1.381 . S
C3108 C3114 1.383 . S
C3109 C3105 1.495 . S
C3109 H3115 0.959 . S
C3109 H3116 0.961 . S
C3109 H3117 0.960 . S
C3110 C3108 1.381 . S
C3110 C3111 1.394 . S
C3110 H3118 0.930 . S
C3111 C3110 1.394 . S
C3111 C3112 1.383 . S
C3111 H3119 0.929 . S
C3112 C3111 1.383 . S
C3112 C3113 1.377 . S
C3113 H3097 0.930 . S
C3113 C3112 1.377 . S
C3113 C3114 1.379 . S
C3114 H3098 0.931 . S
C3114 C3108 1.383 . S
C3114 C3113 1.379 . S
H3115 C3109 0.959 . S
H3116 C3109 0.961 . S
H3117 C3109 0.960 . S
H3118 C3110 0.930 . S
H3119 C3111 0.929 . S
H3120 C3128 0.929 . S
H3121 C3130 0.930 . S
H3122 C3132 0.930 1_556 S
H3123 C3135 0.929 1_556 S
H3124 C3138 0.930 . S
H3125 C3140 0.960 . S
H3126 C3140 0.960 . S
H3127 C3140 0.960 . S
C3128 H3120 0.929 . S
C3128 C3129 1.377 . S
C3128 C3130 1.384 . S
C3129 C3128 1.377 . S
C3129 C3135 1.390 . S
C3130 H3121 0.930 . S
C3130 C3128 1.384 . S
C3130 C3131 1.372 . S
C3131 C3130 1.372 . S
C3131 C3132 1.400 . S
C3131 C3136 1.490 . S
C3132 H3122 0.930 1_554 S
C3132 C3131 1.400 . S
C3132 C3135 1.386 . S
H3133 C3149 0.930 1_556 S
H3134 C3150 0.931 1_556 S
C3135 H3123 0.929 1_554 S
C3135 C3129 1.390 . S
C3135 C3132 1.386 . S
C3136 C3131 1.490 . S
C3136 C3138 1.395 . S
C3136 C3139 1.403 . S
H3137 C3143 0.930 1_556 S
C3138 H3124 0.930 . S
C3138 C3136 1.395 . S
C3138 C3141 1.403 . S
C3139 C3136 1.403 . S
C3139 C3140 1.524 1_554 S
C3139 C3143 1.400 . S
C3140 H3125 0.960 . S
C3140 H3126 0.960 . S
C3140 H3127 0.960 . S
C3140 C3139 1.524 1_556 S
C3141 C3138 1.403 . S
C3141 C3142 1.392 . S
C3141 C3145 1.495 . S
C3142 C3141 1.392 . S
C3142 C3143 1.385 . S
C3142 C3144 1.478 . S
C3143 H3137 0.930 1_554 S
C3143 C3139 1.400 . S
C3143 C3142 1.385 . S
C3144 C3142 1.478 . S
C3144 C3146 1.381 . S
C3144 C3150 1.383 . S
C3145 C3141 1.495 . S
C3145 H3151 0.959 . S
C3145 H3152 0.961 . S
C3145 H3153 0.960 . S
C3146 C3144 1.381 . S
C3146 C3147 1.394 . S
C3146 H3154 0.930 . S
C3147 C3146 1.394 . S
C3147 C3148 1.383 . S
C3147 H3155 0.929 . S
C3148 C3147 1.383 . S
C3148 C3149 1.377 . S
C3149 H3133 0.930 1_554 S
C3149 C3148 1.377 . S
C3149 C3150 1.379 . S
C3150 H3134 0.931 1_554 S
C3150 C3144 1.383 . S
C3150 C3149 1.379 . S
H3151 C3145 0.959 . S
H3152 C3145 0.961 . S
H3153 C3145 0.960 . S
H3154 C3146 0.930 . S
H3155 C3147 0.929 . S
H3156 C3164 0.929 . S
H3157 C3166 0.930 . S
H3158 C3168 0.930 . S
H3159 C3171 0.929 . S
H3160 C3174 0.930 . S
H3161 C3176 0.960 . S
H3162 C3176 0.960 . S
H3163 C3176 0.960 . S
C3164 H3156 0.929 . S
C3164 C3165 1.377 . S
C3164 C3166 1.384 . S
C3165 C3164 1.377 . S
C3165 C3171 1.390 . S
C3166 H3157 0.930 . S
C3166 C3164 1.384 . S
C3166 C3167 1.372 . S
C3167 C3166 1.372 . S
C3167 C3168 1.400 . S
C3167 C3172 1.490 . S
C3168 H3158 0.930 . S
C3168 C3167 1.400 . S
C3168 C3171 1.386 . S
H3169 C3185 0.930 . S
H3170 C3186 0.931 . S
C3171 H3159 0.929 . S
C3171 C3165 1.390 . S
C3171 C3168 1.386 . S
C3172 C3167 1.490 . S
C3172 C3174 1.395 . S
C3172 C3175 1.403 . S
H3173 C3179 0.930 . S
C3174 H3160 0.930 . S
C3174 C3172 1.395 . S
C3174 C3177 1.403 . S
C3175 C3172 1.403 . S
C3175 C3176 1.524 . S
C3175 C3179 1.400 . S
C3176 H3161 0.960 . S
C3176 H3162 0.960 . S
C3176 H3163 0.960 . S
C3176 C3175 1.524 . S
C3177 C3174 1.403 . S
C3177 C3178 1.392 . S
C3177 C3181 1.495 . S
C3178 C3177 1.392 . S
C3178 C3179 1.385 . S
C3178 C3180 1.478 . S
C3179 H3173 0.930 . S
C3179 C3175 1.400 . S
C3179 C3178 1.385 . S
C3180 C3178 1.478 . S
C3180 C3182 1.381 . S
C3180 C3186 1.383 . S
C3181 C3177 1.495 . S
C3181 H3187 0.959 . S
C3181 H3188 0.961 . S
C3181 H3189 0.960 . S
C3182 C3180 1.381 . S
C3182 C3183 1.394 . S
C3182 H3190 0.930 . S
C3183 C3182 1.394 . S
C3183 C3184 1.383 . S
C3183 H3191 0.929 . S
C3184 C3183 1.383 . S
C3184 C3185 1.377 . S
C3185 H3169 0.930 . S
C3185 C3184 1.377 . S
C3185 C3186 1.379 . S
C3186 H3170 0.931 . S
C3186 C3180 1.383 . S
C3186 C3185 1.379 . S
H3187 C3181 0.959 . S
H3188 C3181 0.961 . S
H3189 C3181 0.960 . S
H3190 C3182 0.930 . S
H3191 C3183 0.929 . S
H3192 C3200 0.929 . S
H3193 C3202 0.930 . S
H3194 C3204 0.930 . S
H3195 C3207 0.929 . S
H3196 C3210 0.930 . S
H3197 C3212 0.960 . S
H3198 C3212 0.960 . S
H3199 C3212 0.960 . S
C3200 H3192 0.929 . S
C3200 C3201 1.377 . S
C3200 C3202 1.384 . S
C3201 C3200 1.377 . S
C3201 C3207 1.390 . S
C3202 H3193 0.930 . S
C3202 C3200 1.384 . S
C3202 C3203 1.372 . S
C3203 C3202 1.372 . S
C3203 C3204 1.400 . S
C3203 C3208 1.490 . S
C3204 H3194 0.930 . S
C3204 C3203 1.400 . S
C3204 C3207 1.386 . S
H3205 C3221 0.930 . S
H3206 C3222 0.931 . S
C3207 H3195 0.929 . S
C3207 C3201 1.390 . S
C3207 C3204 1.386 . S
C3208 C3203 1.490 . S
C3208 C3210 1.395 . S
C3208 C3211 1.403 . S
H3209 C3215 0.930 . S
C3210 H3196 0.930 . S
C3210 C3208 1.395 . S
C3210 C3213 1.403 . S
C3211 C3208 1.403 . S
C3211 C3212 1.524 . S
C3211 C3215 1.400 . S
C3212 H3197 0.960 . S
C3212 H3198 0.960 . S
C3212 H3199 0.960 . S
C3212 C3211 1.524 . S
C3213 C3210 1.403 . S
C3213 C3214 1.392 . S
C3213 C3217 1.495 . S
C3214 C3213 1.392 . S
C3214 C3215 1.385 . S
C3214 C3216 1.478 . S
C3215 H3209 0.930 . S
C3215 C3211 1.400 . S
C3215 C3214 1.385 . S
C3216 C3214 1.478 . S
C3216 C3218 1.381 . S
C3216 C3222 1.383 . S
C3217 C3213 1.495 . S
C3217 H3223 0.959 . S
C3217 H3224 0.961 . S
C3217 H3225 0.960 . S
C3218 C3216 1.381 . S
C3218 C3219 1.394 . S
C3218 H3226 0.930 . S
C3219 C3218 1.394 . S
C3219 C3220 1.383 . S
C3219 H3227 0.929 . S
C3220 C3219 1.383 . S
C3220 C3221 1.377 . S
C3221 H3205 0.930 . S
C3221 C3220 1.377 . S
C3221 C3222 1.379 . S
C3222 H3206 0.931 . S
C3222 C3216 1.383 . S
C3222 C3221 1.379 . S
H3223 C3217 0.959 . S
H3224 C3217 0.961 . S
H3225 C3217 0.960 . S
H3226 C3218 0.930 . S
H3227 C3219 0.929 . S
H3228 C3236 0.929 . S
H3229 C3238 0.930 . S
H3230 C3240 0.930 . S
H3231 C3243 0.929 . S
H3232 C3246 0.930 . S
H3233 C3248 0.960 . S
H3234 C3248 0.960 . S
H3235 C3248 0.960 . S
C3236 H3228 0.929 . S
C3236 C3237 1.377 . S
C3236 C3238 1.384 . S
C3237 C3236 1.377 . S
C3237 C3243 1.390 . S
C3238 H3229 0.930 . S
C3238 C3236 1.384 . S
C3238 C3239 1.372 . S
C3239 C3238 1.372 . S
C3239 C3240 1.400 . S
C3239 C3244 1.490 . S
C3240 H3230 0.930 . S
C3240 C3239 1.400 . S
C3240 C3243 1.386 . S
H3241 C3257 0.930 . S
H3242 C3258 0.931 . S
C3243 H3231 0.929 . S
C3243 C3237 1.390 . S
C3243 C3240 1.386 . S
C3244 C3239 1.490 . S
C3244 C3246 1.395 . S
C3244 C3247 1.403 . S
H3245 C3251 0.930 . S
C3246 H3232 0.930 . S
C3246 C3244 1.395 . S
C3246 C3249 1.403 . S
C3247 C3244 1.403 . S
C3247 C3248 1.524 . S
C3247 C3251 1.400 . S
C3248 H3233 0.960 . S
C3248 H3234 0.960 . S
C3248 H3235 0.960 . S
C3248 C3247 1.524 . S
C3249 C3246 1.403 . S
C3249 C3250 1.392 . S
C3249 C3253 1.495 . S
C3250 C3249 1.392 . S
C3250 C3251 1.385 . S
C3250 C3252 1.478 . S
C3251 H3245 0.930 . S
C3251 C3247 1.400 . S
C3251 C3250 1.385 . S
C3252 C3250 1.478 . S
C3252 C3254 1.381 . S
C3252 C3258 1.383 . S
C3253 C3249 1.495 . S
C3253 H3259 0.959 . S
C3253 H3260 0.961 . S
C3253 H3261 0.960 . S
C3254 C3252 1.381 . S
C3254 C3255 1.394 . S
C3254 H3262 0.930 . S
C3255 C3254 1.394 . S
C3255 C3256 1.383 . S
C3255 H3263 0.929 . S
C3256 C3255 1.383 . S
C3256 C3257 1.377 . S
C3257 H3241 0.930 . S
C3257 C3256 1.377 . S
C3257 C3258 1.379 . S
C3258 H3242 0.931 . S
C3258 C3252 1.383 . S
C3258 C3257 1.379 . S
H3259 C3253 0.959 . S
H3260 C3253 0.961 . S
H3261 C3253 0.960 . S
H3262 C3254 0.930 . S
H3263 C3255 0.929 . S
H3264 C3272 0.929 . S
H3265 C3274 0.930 . S
H3266 C3276 0.930 . S
H3267 C3279 0.929 . S
H3268 C3282 0.930 . S
H3269 C3284 0.960 . S
H3270 C3284 0.960 . S
H3271 C3284 0.960 . S
C3272 H3264 0.929 . S
C3272 C3273 1.380 . S
C3272 C3274 1.384 1_545 S
C3273 C3272 1.380 . S
C3273 C3279 1.336 1_545 S
C3274 H3265 0.930 . S
C3274 C3272 1.384 1_565 S
C3274 C3275 1.372 . S
C3275 C3274 1.372 . S
C3275 C3276 1.400 . S
C3275 C3280 1.490 . S
C3276 H3266 0.930 . S
C3276 C3275 1.400 . S
C3276 C3279 1.386 . S
H3277 C3293 0.930 . S
H3278 C3294 0.931 . S
C3279 H3267 0.929 . S
C3279 C3273 1.336 1_565 S
C3279 C3276 1.386 . S
C3280 C3275 1.490 . S
C3280 C3282 1.395 . S
C3280 C3283 1.403 . S
H3281 C3287 0.930 . S
C3282 H3268 0.930 . S
C3282 C3280 1.395 . S
C3282 C3285 1.403 . S
C3283 C3280 1.403 . S
C3283 C3284 1.524 . S
C3283 C3287 1.400 . S
C3284 H3269 0.960 . S
C3284 H3270 0.960 . S
C3284 H3271 0.960 . S
C3284 C3283 1.524 . S
C3285 C3282 1.403 . S
C3285 C3286 1.392 . S
C3285 C3289 1.495 . S
C3286 C3285 1.392 . S
C3286 C3287 1.385 . S
C3286 C3288 1.478 . S
C3287 H3281 0.930 . S
C3287 C3283 1.400 . S
C3287 C3286 1.385 . S
C3288 C3286 1.478 . S
C3288 C3290 1.381 . S
C3288 C3294 1.383 . S
C3289 C3285 1.495 . S
C3289 H3295 0.959 . S
C3289 H3296 0.961 . S
C3289 H3297 0.960 . S
C3290 C3288 1.381 . S
C3290 C3291 1.394 . S
C3290 H3298 0.930 . S
C3291 C3290 1.394 . S
C3291 C3292 1.383 . S
C3291 H3299 0.929 . S
C3292 C3291 1.383 . S
C3292 C3293 1.377 . S
C3293 H3277 0.930 . S
C3293 C3292 1.377 . S
C3293 C3294 1.379 . S
C3294 H3278 0.931 . S
C3294 C3288 1.383 . S
C3294 C3293 1.379 . S
H3295 C3289 0.959 . S
H3296 C3289 0.961 . S
H3297 C3289 0.960 . S
H3298 C3290 0.930 . S
H3299 C3291 0.929 . S
H3300 C3308 0.929 . S
H3301 C3310 0.930 . S
H3302 C3312 0.930 . S
H3303 C3315 0.929 . S
H3304 C3318 0.930 . S
H3305 C3320 0.960 . S
H3306 C3320 0.960 . S
H3307 C3320 0.960 . S
C3308 H3300 0.929 . S
C3308 C3309 1.377 . S
C3308 C3310 1.384 . S
C3309 C3308 1.377 . S
C3309 C3315 1.390 . S
C3310 H3301 0.930 . S
C3310 C3308 1.384 . S
C3310 C3311 1.372 . S
C3311 C3310 1.372 . S
C3311 C3312 1.400 . S
C3311 C3316 1.490 . S
C3312 H3302 0.930 . S
C3312 C3311 1.400 . S
C3312 C3315 1.386 . S
H3313 C3329 0.930 . S
H3314 C3330 0.931 . S
C3315 H3303 0.929 . S
C3315 C3309 1.390 . S
C3315 C3312 1.386 . S
C3316 C3311 1.490 . S
C3316 C3318 1.395 . S
C3316 C3319 1.403 . S
H3317 C3323 0.930 . S
C3318 H3304 0.930 . S
C3318 C3316 1.395 . S
C3318 C3321 1.403 . S
C3319 C3316 1.403 . S
C3319 C3320 1.524 . S
C3319 C3323 1.400 . S
C3320 H3305 0.960 . S
C3320 H3306 0.960 . S
C3320 H3307 0.960 . S
C3320 C3319 1.524 . S
C3321 C3318 1.403 . S
C3321 C3322 1.392 . S
C3321 C3325 1.495 . S
C3322 C3321 1.392 . S
C3322 C3323 1.385 . S
C3322 C3324 1.478 . S
C3323 H3317 0.930 . S
C3323 C3319 1.400 . S
C3323 C3322 1.385 . S
C3324 C3322 1.478 . S
C3324 C3326 1.381 . S
C3324 C3330 1.383 . S
C3325 C3321 1.495 . S
C3325 H3331 0.959 . S
C3325 H3332 0.961 . S
C3325 H3333 0.960 . S
C3326 C3324 1.381 . S
C3326 C3327 1.394 . S
C3326 H3334 0.930 . S
C3327 C3326 1.394 . S
C3327 C3328 1.383 . S
C3327 H3335 0.929 . S
C3328 C3327 1.383 . S
C3328 C3329 1.377 . S
C3329 H3313 0.930 . S
C3329 C3328 1.377 . S
C3329 C3330 1.379 . S
C3330 H3314 0.931 . S
C3330 C3324 1.383 . S
C3330 C3329 1.379 . S
H3331 C3325 0.959 . S
H3332 C3325 0.961 . S
H3333 C3325 0.960 . S
H3334 C3326 0.930 . S
H3335 C3327 0.929 . S
H3336 C3344 0.929 . S
H3337 C3346 0.930 . S
H3338 C3348 0.930 . S
H3339 C3351 0.929 . S
H3340 C3354 0.930 . S
H3341 C3356 0.960 . S
H3342 C3356 0.960 . S
H3343 C3356 0.960 . S
C3344 H3336 0.929 . S
C3344 C3345 1.377 . S
C3344 C3346 1.384 . S
C3345 C3344 1.377 . S
C3345 C3351 1.390 . S
C3346 H3337 0.930 . S
C3346 C3344 1.384 . S
C3346 C3347 1.372 . S
C3347 C3346 1.372 . S
C3347 C3348 1.400 . S
C3347 C3352 1.490 . S
C3348 H3338 0.930 . S
C3348 C3347 1.400 . S
C3348 C3351 1.386 . S
H3349 C3365 0.930 . S
H3350 C3366 0.931 . S
C3351 H3339 0.929 . S
C3351 C3345 1.390 . S
C3351 C3348 1.386 . S
C3352 C3347 1.490 . S
C3352 C3354 1.395 . S
C3352 C3355 1.403 . S
H3353 C3359 0.930 . S
C3354 H3340 0.930 . S
C3354 C3352 1.395 . S
C3354 C3357 1.403 . S
C3355 C3352 1.403 . S
C3355 C3356 1.524 . S
C3355 C3359 1.400 . S
C3356 H3341 0.960 . S
C3356 H3342 0.960 . S
C3356 H3343 0.960 . S
C3356 C3355 1.524 . S
C3357 C3354 1.403 . S
C3357 C3358 1.392 . S
C3357 C3361 1.495 . S
C3358 C3357 1.392 . S
C3358 C3359 1.385 . S
C3358 C3360 1.478 . S
C3359 H3353 0.930 . S
C3359 C3355 1.400 . S
C3359 C3358 1.385 . S
C3360 C3358 1.478 . S
C3360 C3362 1.381 . S
C3360 C3366 1.383 . S
C3361 C3357 1.495 . S
C3361 H3367 0.959 . S
C3361 H3368 0.961 . S
C3361 H3369 0.960 . S
C3362 C3360 1.381 . S
C3362 C3363 1.394 . S
C3362 H3370 0.930 . S
C3363 C3362 1.394 . S
C3363 C3364 1.383 . S
C3363 H3371 0.929 . S
C3364 C3363 1.383 . S
C3364 C3365 1.377 . S
C3365 H3349 0.930 . S
C3365 C3364 1.377 . S
C3365 C3366 1.379 . S
C3366 H3350 0.931 . S
C3366 C3360 1.383 . S
C3366 C3365 1.379 . S
H3367 C3361 0.959 . S
H3368 C3361 0.961 . S
H3369 C3361 0.960 . S
H3370 C3362 0.930 . S
H3371 C3363 0.929 . S
H3372 C3380 0.929 . S
H3373 C3382 0.930 . S
H3374 C3384 0.930 . S
H3375 C3387 0.929 . S
H3376 C3390 0.930 . S
H3377 C3392 0.960 . S
H3378 C3392 0.960 . S
H3379 C3392 0.960 . S
C3380 H3372 0.929 . S
C3380 C3381 1.377 . S
C3380 C3382 1.384 . S
C3381 C3380 1.377 . S
C3381 C3387 1.390 . S
C3382 H3373 0.930 . S
C3382 C3380 1.384 . S
C3382 C3383 1.372 . S
C3383 C3382 1.372 . S
C3383 C3384 1.400 . S
C3383 C3388 1.490 . S
C3384 H3374 0.930 . S
C3384 C3383 1.400 . S
C3384 C3387 1.386 . S
H3385 C3401 0.930 . S
H3386 C3402 0.931 . S
C3387 H3375 0.929 . S
C3387 C3381 1.390 . S
C3387 C3384 1.386 . S
C3388 C3383 1.490 . S
C3388 C3390 1.395 . S
C3388 C3391 1.403 . S
H3389 C3395 0.930 . S
C3390 H3376 0.930 . S
C3390 C3388 1.395 . S
C3390 C3393 1.403 . S
C3391 C3388 1.403 . S
C3391 C3392 1.524 . S
C3391 C3395 1.400 . S
C3392 H3377 0.960 . S
C3392 H3378 0.960 . S
C3392 H3379 0.960 . S
C3392 C3391 1.524 . S
C3393 C3390 1.403 . S
C3393 C3394 1.392 . S
C3393 C3397 1.495 . S
C3394 C3393 1.392 . S
C3394 C3395 1.385 . S
C3394 C3396 1.478 . S
C3395 H3389 0.930 . S
C3395 C3391 1.400 . S
C3395 C3394 1.385 . S
C3396 C3394 1.478 . S
C3396 C3398 1.381 . S
C3396 C3402 1.383 . S
C3397 C3393 1.495 . S
C3397 H3403 0.959 . S
C3397 H3404 0.961 . S
C3397 H3405 0.960 . S
C3398 C3396 1.381 . S
C3398 C3399 1.394 . S
C3398 H3406 0.930 . S
C3399 C3398 1.394 . S
C3399 C3400 1.383 . S
C3399 H3407 0.929 . S
C3400 C3399 1.383 . S
C3400 C3401 1.377 . S
C3401 H3385 0.930 . S
C3401 C3400 1.377 . S
C3401 C3402 1.379 . S
C3402 H3386 0.931 . S
C3402 C3396 1.383 . S
C3402 C3401 1.379 . S
H3403 C3397 0.959 . S
H3404 C3397 0.961 . S
H3405 C3397 0.960 . S
H3406 C3398 0.930 . S
H3407 C3399 0.929 . S
H3408 C3416 0.929 . S
H3409 C3418 0.930 . S
H3410 C3420 0.930 . S
H3411 C3423 0.929 . S
H3412 C3426 0.930 . S
H3413 C3428 0.960 . S
H3414 C3428 0.960 . S
H3415 C3428 0.960 . S
C3416 H3408 0.929 . S
C3416 C3417 1.377 . S
C3416 C3418 1.384 . S
C3417 C3416 1.377 . S
C3417 C3423 1.390 . S
C3418 H3409 0.930 . S
C3418 C3416 1.384 . S
C3418 C3419 1.372 . S
C3419 C3418 1.372 . S
C3419 C3420 1.400 . S
C3419 C3424 1.490 . S
C3420 H3410 0.930 . S
C3420 C3419 1.400 . S
C3420 C3423 1.386 . S
H3421 C3437 0.930 . S
H3422 C3438 0.931 . S
C3423 H3411 0.929 . S
C3423 C3417 1.390 . S
C3423 C3420 1.386 . S
C3424 C3419 1.490 . S
C3424 C3426 1.395 . S
C3424 C3427 1.403 . S
H3425 C3431 0.930 . S
C3426 H3412 0.930 . S
C3426 C3424 1.395 . S
C3426 C3429 1.403 . S
C3427 C3424 1.403 . S
C3427 C3428 1.524 . S
C3427 C3431 1.400 . S
C3428 H3413 0.960 . S
C3428 H3414 0.960 . S
C3428 H3415 0.960 . S
C3428 C3427 1.524 . S
C3429 C3426 1.403 . S
C3429 C3430 1.392 . S
C3429 C3433 1.495 . S
C3430 C3429 1.392 . S
C3430 C3431 1.385 . S
C3430 C3432 1.478 . S
C3431 H3425 0.930 . S
C3431 C3427 1.400 . S
C3431 C3430 1.385 . S
C3432 C3430 1.478 . S
C3432 C3434 1.381 . S
C3432 C3438 1.383 . S
C3433 C3429 1.495 . S
C3433 H3439 0.959 . S
C3433 H3440 0.961 . S
C3433 H3441 0.960 . S
C3434 C3432 1.381 . S
C3434 C3435 1.394 . S
C3434 H3442 0.930 . S
C3435 C3434 1.394 . S
C3435 C3436 1.383 . S
C3435 H3443 0.929 . S
C3436 C3435 1.383 . S
C3436 C3437 1.377 . S
C3437 H3421 0.930 . S
C3437 C3436 1.377 . S
C3437 C3438 1.379 . S
C3438 H3422 0.931 . S
C3438 C3432 1.383 . S
C3438 C3437 1.379 . S
H3439 C3433 0.959 . S
H3440 C3433 0.961 . S
H3441 C3433 0.960 . S
H3442 C3434 0.930 . S
H3443 C3435 0.929 . S
H3444 C3452 0.929 . S
H3445 C3454 0.930 . S
H3446 C3456 0.930 . S
H3447 C3459 0.929 . S
H3448 C3462 0.930 . S
H3449 C3464 0.960 . S
H3450 C3464 0.960 . S
H3451 C3464 0.960 . S
C3452 H3444 0.929 . S
C3452 C3453 1.377 . S
C3452 C3454 1.384 . S
C3453 C3452 1.377 . S
C3453 C3459 1.390 . S
C3454 H3445 0.930 . S
C3454 C3452 1.384 . S
C3454 C3455 1.372 . S
C3455 C3454 1.372 . S
C3455 C3456 1.400 . S
C3455 C3460 1.490 . S
C3456 H3446 0.930 . S
C3456 C3455 1.400 . S
C3456 C3459 1.386 . S
H3457 C3473 0.930 . S
H3458 C3474 0.931 . S
C3459 H3447 0.929 . S
C3459 C3453 1.390 . S
C3459 C3456 1.386 . S
C3460 C3455 1.490 . S
C3460 C3462 1.395 . S
C3460 C3463 1.403 . S
H3461 C3467 0.930 . S
C3462 H3448 0.930 . S
C3462 C3460 1.395 . S
C3462 C3465 1.403 . S
C3463 C3460 1.403 . S
C3463 C3464 1.524 . S
C3463 C3467 1.400 . S
C3464 H3449 0.960 . S
C3464 H3450 0.960 . S
C3464 H3451 0.960 . S
C3464 C3463 1.524 . S
C3465 C3462 1.403 . S
C3465 C3466 1.392 . S
C3465 C3469 1.495 . S
C3466 C3465 1.392 . S
C3466 C3467 1.385 . S
C3466 C3468 1.478 . S
C3467 H3461 0.930 . S
C3467 C3463 1.400 . S
C3467 C3466 1.385 . S
C3468 C3466 1.478 . S
C3468 C3470 1.381 . S
C3468 C3474 1.383 . S
C3469 C3465 1.495 . S
C3469 H3475 0.959 . S
C3469 H3476 0.961 . S
C3469 H3477 0.960 . S
C3470 C3468 1.381 . S
C3470 C3471 1.394 . S
C3470 H3478 0.930 . S
C3471 C3470 1.394 . S
C3471 C3472 1.383 . S
C3471 H3479 0.929 . S
C3472 C3471 1.383 . S
C3472 C3473 1.377 . S
C3473 H3457 0.930 . S
C3473 C3472 1.377 . S
C3473 C3474 1.379 . S
C3474 H3458 0.931 . S
C3474 C3468 1.383 . S
C3474 C3473 1.379 . S
H3475 C3469 0.959 . S
H3476 C3469 0.961 . S
H3477 C3469 0.960 . S
H3478 C3470 0.930 . S
H3479 C3471 0.929 . S
H3480 C3488 0.882 1_655 S
H3481 C3490 0.930 . S
H3482 C3492 0.930 . S
H3483 C3495 0.929 . S
H3484 C3498 0.930 . S
H3485 C3500 0.960 . S
H3486 C3500 0.960 . S
H3487 C3500 0.960 . S
C3488 H3480 0.882 1_455 S
C3488 C3489 1.377 . S
C3488 C3490 1.384 . S
C3489 C3488 1.377 . S
C3489 C3495 1.390 . S
C3490 H3481 0.930 . S
C3490 C3488 1.384 . S
C3490 C3491 1.372 . S
C3491 C3490 1.372 . S
C3491 C3492 1.400 . S
C3491 C3496 1.490 . S
C3492 H3482 0.930 . S
C3492 C3491 1.400 . S
C3492 C3495 1.386 . S
H3493 C3509 0.930 . S
H3494 C3510 0.931 . S
C3495 H3483 0.929 . S
C3495 C3489 1.390 . S
C3495 C3492 1.386 . S
C3496 C3491 1.490 . S
C3496 C3498 1.395 . S
C3496 C3499 1.403 . S
H3497 C3503 0.930 . S
C3498 H3484 0.930 . S
C3498 C3496 1.395 . S
C3498 C3501 1.403 1_556 S
C3499 C3496 1.403 . S
C3499 C3500 1.524 . S
C3499 C3503 1.400 . S
C3500 H3485 0.960 . S
C3500 H3486 0.960 . S
C3500 H3487 0.960 . S
C3500 C3499 1.524 . S
C3501 C3498 1.403 1_554 S
C3501 C3502 1.392 1_554 S
C3501 C3505 1.495 . S
C3502 C3501 1.392 1_556 S
C3502 C3503 1.385 . S
C3502 C3504 1.478 1_556 S
C3503 H3497 0.930 . S
C3503 C3499 1.400 . S
C3503 C3502 1.385 . S
C3504 C3502 1.478 1_554 S
C3504 C3506 1.381 1_554 S
C3504 C3510 1.383 . S
C3505 C3501 1.495 . S
C3505 H3511 0.959 1_455 S
C3505 H3512 0.961 . S
C3505 H3513 0.954 1_455 S
C3506 C3504 1.381 1_556 S
C3506 C3507 1.394 1_556 S
C3506 H3514 0.930 . S
C3507 C3506 1.394 1_554 S
C3507 C3508 1.383 . S
C3507 H3515 0.938 . S
C3508 C3507 1.383 . S
C3508 C3509 1.377 . S
C3509 H3493 0.930 . S
C3509 C3508 1.377 . S
C3509 C3510 1.379 . S
C3510 H3494 0.931 . S
C3510 C3504 1.383 . S
C3510 C3509 1.379 . S
H3511 C3505 0.959 1_655 S
H3512 C3505 0.961 . S
H3513 C3505 0.954 1_655 S
H3514 C3506 0.930 . S
H3515 C3507 0.938 . S
H3516 C3524 0.929 . S
H3517 C3526 0.930 . S
H3518 C3528 0.945 . S
H3519 C3531 0.929 . S
H3520 C3534 0.930 . S
H3521 C3536 0.960 . S
H3522 C3536 0.960 . S
H3523 C3536 0.960 . S
C3524 H3516 0.929 . S
C3524 C3525 1.377 . S
C3524 C3526 1.384 . S
C3525 C3524 1.377 . S
C3525 C3531 1.390 . S
C3526 H3517 0.930 . S
C3526 C3524 1.384 . S
C3526 C3527 1.372 1_455 S
C3527 C3526 1.372 1_655 S
C3527 C3528 1.402 . S
C3527 C3532 1.490 . S
C3528 H3518 0.945 . S
C3528 C3527 1.402 . S
C3528 C3531 1.368 1_655 S
H3529 C3545 0.930 . S
H3530 C3546 0.931 . S
C3531 H3519 0.929 . S
C3531 C3525 1.390 . S
C3531 C3528 1.368 1_455 S
C3532 C3527 1.490 . S
C3532 C3534 1.395 . S
C3532 C3535 1.403 . S
H3533 C3539 0.930 . S
C3534 H3520 0.930 . S
C3534 C3532 1.395 . S
C3534 C3537 1.403 . S
C3535 C3532 1.403 . S
C3535 C3536 1.524 . S
C3535 C3539 1.400 . S
C3536 H3521 0.960 . S
C3536 H3522 0.960 . S
C3536 H3523 0.960 . S
C3536 C3535 1.524 . S
C3537 C3534 1.403 . S
C3537 C3538 1.392 . S
C3537 C3541 1.495 . S
C3538 C3537 1.392 . S
C3538 C3539 1.385 . S
C3538 C3540 1.478 . S
C3539 H3533 0.930 . S
C3539 C3535 1.400 . S
C3539 C3538 1.385 . S
C3540 C3538 1.478 . S
C3540 C3542 1.381 . S
C3540 C3546 1.383 . S
C3541 C3537 1.495 . S
C3541 H3547 0.959 . S
C3541 H3548 0.961 . S
C3541 H3549 0.960 . S
C3542 C3540 1.381 . S
C3542 C3543 1.394 . S
C3542 H3550 0.930 . S
C3543 C3542 1.394 . S
C3543 C3544 1.383 . S
C3543 H3551 0.929 . S
C3544 C3543 1.383 . S
C3544 C3545 1.377 . S
C3545 H3529 0.930 . S
C3545 C3544 1.377 . S
C3545 C3546 1.379 . S
C3546 H3530 0.931 . S
C3546 C3540 1.383 . S
C3546 C3545 1.379 . S
H3547 C3541 0.959 . S
H3548 C3541 0.961 . S
H3549 C3541 0.960 . S
H3550 C3542 0.930 . S
H3551 C3543 0.929 . S
H3552 C3560 0.929 . S
H3553 C3562 0.930 . S
H3554 C3564 0.930 . S
H3555 C3567 0.929 . S
H3556 C3570 0.930 . S
H3557 C3572 0.960 . S
H3558 C3572 0.960 . S
H3559 C3572 0.960 . S
C3560 H3552 0.929 . S
C3560 C3561 1.377 . S
C3560 C3562 1.384 . S
C3561 C3560 1.377 . S
C3561 C3567 1.390 . S
C3562 H3553 0.930 . S
C3562 C3560 1.384 . S
C3562 C3563 1.372 . S
C3563 C3562 1.372 . S
C3563 C3564 1.400 . S
C3563 C3568 1.490 . S
C3564 H3554 0.930 . S
C3564 C3563 1.400 . S
C3564 C3567 1.386 . S
H3565 C3581 0.930 . S
H3566 C3582 0.931 . S
C3567 H3555 0.929 . S
C3567 C3561 1.390 . S
C3567 C3564 1.386 . S
C3568 C3563 1.490 . S
C3568 C3570 1.395 . S
C3568 C3571 1.403 . S
H3569 C3575 0.930 . S
C3570 H3556 0.930 . S
C3570 C3568 1.395 . S
C3570 C3573 1.403 . S
C3571 C3568 1.403 . S
C3571 C3572 1.524 . S
C3571 C3575 1.400 . S
C3572 H3557 0.960 . S
C3572 H3558 0.960 . S
C3572 H3559 0.960 . S
C3572 C3571 1.524 . S
C3573 C3570 1.403 . S
C3573 C3574 1.392 . S
C3573 C3577 1.495 . S
C3574 C3573 1.392 . S
C3574 C3575 1.385 . S
C3574 C3576 1.478 . S
C3575 H3569 0.930 . S
C3575 C3571 1.400 . S
C3575 C3574 1.385 . S
C3576 C3574 1.478 . S
C3576 C3578 1.381 . S
C3576 C3582 1.383 . S
C3577 C3573 1.495 . S
C3577 H3583 0.959 . S
C3577 H3584 0.961 . S
C3577 H3585 0.960 . S
C3578 C3576 1.381 . S
C3578 C3579 1.394 . S
C3578 H3586 0.930 . S
C3579 C3578 1.394 . S
C3579 C3580 1.383 . S
C3579 H3587 0.929 . S
C3580 C3579 1.383 . S
C3580 C3581 1.377 . S
C3581 H3565 0.930 . S
C3581 C3580 1.377 . S
C3581 C3582 1.379 . S
C3582 H3566 0.931 . S
C3582 C3576 1.383 . S
C3582 C3581 1.379 . S
H3583 C3577 0.959 . S
H3584 C3577 0.961 . S
H3585 C3577 0.960 . S
H3586 C3578 0.930 . S
H3587 C3579 0.929 . S
H3588 C3596 0.929 . S
H3589 C3598 0.930 . S
H3590 C3600 0.930 . S
H3591 C3603 0.929 . S
H3592 C3606 0.930 . S
H3593 C3608 0.960 . S
H3594 C3608 0.960 1_455 S
H3595 C3608 0.982 . S
C3596 H3588 0.929 . S
C3596 C3597 1.377 . S
C3596 C3598 1.384 . S
C3597 C3596 1.377 . S
C3597 C3603 1.390 . S
C3598 H3589 0.930 . S
C3598 C3596 1.384 . S
C3598 C3599 1.372 . S
C3599 C3598 1.372 . S
C3599 C3600 1.400 . S
C3599 C3604 1.490 1_455 S
C3600 H3590 0.930 . S
C3600 C3599 1.400 . S
C3600 C3603 1.386 . S
H3601 C3617 0.930 . S
H3602 C3618 0.931 . S
C3603 H3591 0.929 . S
C3603 C3597 1.390 . S
C3603 C3600 1.386 . S
C3604 C3599 1.490 1_655 S
C3604 C3606 1.395 . S
C3604 C3607 1.403 . S
H3605 C3611 0.930 . S
C3606 H3592 0.930 . S
C3606 C3604 1.395 . S
C3606 C3609 1.403 . S
C3607 C3604 1.403 . S
C3607 C3608 1.524 . S
C3607 C3611 1.400 . S
C3608 H3593 0.960 . S
C3608 H3594 0.960 1_655 S
C3608 H3595 0.982 . S
C3608 C3607 1.524 . S
C3609 C3606 1.403 . S
C3609 C3610 1.392 . S
C3609 C3613 1.495 . S
C3610 C3609 1.392 . S
C3610 C3611 1.385 . S
C3610 C3612 1.478 . S
C3611 H3605 0.930 . S
C3611 C3607 1.400 . S
C3611 C3610 1.385 . S
C3612 C3610 1.478 . S
C3612 C3614 1.381 . S
C3612 C3618 1.383 . S
C3613 C3609 1.495 . S
C3613 H3619 0.959 . S
C3613 H3620 0.961 . S
C3613 H3621 0.960 . S
C3614 C3612 1.381 . S
C3614 C3615 1.394 . S
C3614 H3622 0.930 . S
C3615 C3614 1.394 . S
C3615 C3616 1.383 . S
C3615 H3623 0.929 . S
C3616 C3615 1.383 . S
C3616 C3617 1.377 . S
C3617 H3601 0.930 . S
C3617 C3616 1.377 . S
C3617 C3618 1.379 . S
C3618 H3602 0.931 . S
C3618 C3612 1.383 . S
C3618 C3617 1.379 . S
H3619 C3613 0.959 . S
H3620 C3613 0.961 . S
H3621 C3613 0.960 . S
H3622 C3614 0.930 . S
H3623 C3615 0.929 . S
H3624 C3632 0.929 . S
H3625 C3634 0.930 . S
H3626 C3636 0.930 . S
H3627 C3639 0.929 . S
H3628 C3642 0.930 . S
H3629 C3644 0.960 . S
H3630 C3644 0.960 . S
H3631 C3644 0.960 . S
C3632 H3624 0.929 . S
C3632 C3633 1.377 . S
C3632 C3634 1.384 . S
C3633 C3632 1.377 . S
C3633 C3639 1.390 1_655 S
C3634 H3625 0.930 . S
C3634 C3632 1.384 . S
C3634 C3635 1.372 1_655 S
C3635 C3634 1.372 1_455 S
C3635 C3636 1.400 . S
C3635 C3640 1.490 . S
C3636 H3626 0.930 . S
C3636 C3635 1.400 . S
C3636 C3639 1.386 . S
H3637 C3653 0.930 . S
H3638 C3654 0.931 . S
C3639 H3627 0.929 . S
C3639 C3633 1.390 1_455 S
C3639 C3636 1.386 . S
C3640 C3635 1.490 . S
C3640 C3642 1.395 . S
C3640 C3643 1.403 . S
H3641 C3647 0.930 . S
C3642 H3628 0.930 . S
C3642 C3640 1.395 . S
C3642 C3645 1.403 . S
C3643 C3640 1.403 . S
C3643 C3644 1.524 1_455 S
C3643 C3647 1.400 . S
C3644 H3629 0.960 . S
C3644 H3630 0.960 . S
C3644 H3631 0.960 . S
C3644 C3643 1.524 1_655 S
C3645 C3642 1.403 . S
C3645 C3646 1.392 . S
C3645 C3649 1.495 . S
C3646 C3645 1.392 . S
C3646 C3647 1.385 . S
C3646 C3648 1.478 . S
C3647 H3641 0.930 . S
C3647 C3643 1.400 . S
C3647 C3646 1.385 . S
C3648 C3646 1.478 . S
C3648 C3650 1.381 . S
C3648 C3654 1.383 . S
C3649 C3645 1.495 . S
C3649 H3655 0.959 . S
C3649 H3656 0.961 . S
C3649 H3657 0.960 . S
C3650 C3648 1.381 . S
C3650 C3651 1.394 . S
C3650 H3658 0.930 . S
C3651 C3650 1.394 . S
C3651 C3652 1.383 . S
C3651 H3659 0.929 . S
C3652 C3651 1.383 . S
C3652 C3653 1.377 . S
C3653 H3637 0.930 . S
C3653 C3652 1.377 . S
C3653 C3654 1.379 . S
C3654 H3638 0.931 . S
C3654 C3648 1.383 . S
C3654 C3653 1.379 . S
H3655 C3649 0.959 . S
H3656 C3649 0.961 . S
H3657 C3649 0.960 . S
H3658 C3650 0.930 . S
H3659 C3651 0.929 . S
H3660 C3668 0.929 . S
H3661 C3670 0.930 . S
H3662 C3672 0.930 . S
H3663 C3675 0.929 . S
H3664 C3678 0.930 . S
H3665 C3680 0.960 . S
H3666 C3680 0.960 . S
H3667 C3680 0.960 . S
C3668 H3660 0.929 . S
C3668 C3669 1.377 . S
C3668 C3670 1.384 . S
C3669 C3668 1.377 . S
C3669 C3675 1.390 . S
C3670 H3661 0.930 . S
C3670 C3668 1.384 . S
C3670 C3671 1.372 . S
C3671 C3670 1.372 . S
C3671 C3672 1.400 . S
C3671 C3676 1.490 . S
C3672 H3662 0.930 . S
C3672 C3671 1.400 . S
C3672 C3675 1.386 . S
H3673 C3689 0.930 . S
H3674 C3690 0.931 . S
C3675 H3663 0.929 . S
C3675 C3669 1.390 . S
C3675 C3672 1.386 . S
C3676 C3671 1.490 . S
C3676 C3678 1.395 . S
C3676 C3679 1.403 . S
H3677 C3683 0.930 . S
C3678 H3664 0.930 . S
C3678 C3676 1.395 . S
C3678 C3681 1.403 . S
C3679 C3676 1.403 . S
C3679 C3680 1.524 . S
C3679 C3683 1.400 . S
C3680 H3665 0.960 . S
C3680 H3666 0.960 . S
C3680 H3667 0.960 . S
C3680 C3679 1.524 . S
C3681 C3678 1.403 . S
C3681 C3682 1.392 . S
C3681 C3685 1.495 . S
C3682 C3681 1.392 . S
C3682 C3683 1.385 . S
C3682 C3684 1.478 . S
C3683 H3677 0.930 . S
C3683 C3679 1.400 . S
C3683 C3682 1.385 . S
C3684 C3682 1.478 . S
C3684 C3686 1.381 . S
C3684 C3690 1.383 . S
C3685 C3681 1.495 . S
C3685 H3691 0.959 . S
C3685 H3692 0.961 . S
C3685 H3693 0.960 . S
C3686 C3684 1.381 . S
C3686 C3687 1.394 . S
C3686 H3694 0.930 . S
C3687 C3686 1.394 . S
C3687 C3688 1.383 . S
C3687 H3695 0.929 . S
C3688 C3687 1.383 . S
C3688 C3689 1.377 . S
C3689 H3673 0.930 . S
C3689 C3688 1.377 . S
C3689 C3690 1.379 . S
C3690 H3674 0.931 . S
C3690 C3684 1.383 . S
C3690 C3689 1.379 . S
H3691 C3685 0.959 . S
H3692 C3685 0.961 . S
H3693 C3685 0.960 . S
H3694 C3686 0.930 . S
H3695 C3687 0.929 . S
H3696 C3704 0.929 . S
H3697 C3706 0.930 . S
H3698 C3708 0.930 . S
H3699 C3711 0.929 . S
H3700 C3714 0.930 . S
H3701 C3716 0.960 . S
H3702 C3716 0.960 . S
H3703 C3716 0.960 . S
C3704 H3696 0.929 . S
C3704 C3705 1.377 . S
C3704 C3706 1.384 . S
C3705 C3704 1.377 . S
C3705 C3711 1.390 . S
C3706 H3697 0.930 . S
C3706 C3704 1.384 . S
C3706 C3707 1.372 . S
C3707 C3706 1.372 . S
C3707 C3708 1.400 . S
C3707 C3712 1.490 . S
C3708 H3698 0.930 . S
C3708 C3707 1.400 . S
C3708 C3711 1.386 . S
H3709 C3725 0.930 . S
H3710 C3726 0.931 . S
C3711 H3699 0.929 . S
C3711 C3705 1.390 . S
C3711 C3708 1.386 . S
C3712 C3707 1.490 . S
C3712 C3714 1.395 . S
C3712 C3715 1.403 . S
H3713 C3719 0.930 . S
C3714 H3700 0.930 . S
C3714 C3712 1.395 . S
C3714 C3717 1.403 . S
C3715 C3712 1.403 . S
C3715 C3716 1.524 . S
C3715 C3719 1.400 . S
C3716 H3701 0.960 . S
C3716 H3702 0.960 . S
C3716 H3703 0.960 . S
C3716 C3715 1.524 . S
C3717 C3714 1.403 . S
C3717 C3718 1.392 . S
C3717 C3721 1.495 . S
C3718 C3717 1.392 . S
C3718 C3719 1.385 . S
C3718 C3720 1.478 . S
C3719 H3713 0.930 . S
C3719 C3715 1.400 . S
C3719 C3718 1.385 . S
C3720 C3718 1.478 . S
C3720 C3722 1.381 . S
C3720 C3726 1.383 . S
C3721 C3717 1.495 . S
C3721 H3727 0.959 . S
C3721 H3728 0.961 . S
C3721 H3729 0.960 . S
C3722 C3720 1.381 . S
C3722 C3723 1.394 . S
C3722 H3730 0.930 . S
C3723 C3722 1.394 . S
C3723 C3724 1.383 . S
C3723 H3731 0.929 . S
C3724 C3723 1.383 . S
C3724 C3725 1.377 . S
C3725 H3709 0.930 . S
C3725 C3724 1.377 . S
C3725 C3726 1.379 . S
C3726 H3710 0.931 . S
C3726 C3720 1.383 . S
C3726 C3725 1.379 . S
H3727 C3721 0.959 . S
H3728 C3721 0.961 . S
H3729 C3721 0.960 . S
H3730 C3722 0.930 . S
H3731 C3723 0.929 . S
H3732 C3740 0.929 . S
H3733 C3742 0.930 . S
H3734 C3744 0.930 . S
H3735 C3747 0.929 . S
H3736 C3750 0.930 . S
H3737 C3752 0.960 . S
H3738 C3752 0.960 . S
H3739 C3752 0.960 . S
C3740 H3732 0.929 . S
C3740 C3741 1.377 . S
C3740 C3742 1.384 . S
C3741 C3740 1.377 . S
C3741 C3747 1.390 . S
C3742 H3733 0.930 . S
C3742 C3740 1.384 . S
C3742 C3743 1.372 . S
C3743 C3742 1.372 . S
C3743 C3744 1.400 . S
C3743 C3748 1.490 . S
C3744 H3734 0.930 . S
C3744 C3743 1.400 . S
C3744 C3747 1.386 . S
H3745 C3761 0.930 . S
H3746 C3762 0.931 . S
C3747 H3735 0.929 . S
C3747 C3741 1.390 . S
C3747 C3744 1.386 . S
C3748 C3743 1.490 . S
C3748 C3750 1.395 . S
C3748 C3751 1.403 . S
H3749 C3755 0.930 . S
C3750 H3736 0.930 . S
C3750 C3748 1.395 . S
C3750 C3753 1.403 . S
C3751 C3748 1.403 . S
C3751 C3752 1.524 . S
C3751 C3755 1.400 . S
C3752 H3737 0.960 . S
C3752 H3738 0.960 . S
C3752 H3739 0.960 . S
C3752 C3751 1.524 . S
C3753 C3750 1.403 . S
C3753 C3754 1.392 . S
C3753 C3757 1.495 . S
C3754 C3753 1.392 . S
C3754 C3755 1.385 . S
C3754 C3756 1.478 . S
C3755 H3749 0.930 . S
C3755 C3751 1.400 . S
C3755 C3754 1.385 . S
C3756 C3754 1.478 . S
C3756 C3758 1.381 . S
C3756 C3762 1.383 . S
C3757 C3753 1.495 . S
C3757 H3763 0.959 . S
C3757 H3764 0.961 . S
C3757 H3765 0.960 . S
C3758 C3756 1.381 . S
C3758 C3759 1.394 . S
C3758 H3766 0.930 . S
C3759 C3758 1.394 . S
C3759 C3760 1.383 . S
C3759 H3767 0.929 . S
C3760 C3759 1.383 . S
C3760 C3761 1.377 . S
C3761 H3745 0.930 . S
C3761 C3760 1.377 . S
C3761 C3762 1.379 . S
C3762 H3746 0.931 . S
C3762 C3756 1.383 . S
C3762 C3761 1.379 . S
H3763 C3757 0.959 . S
H3764 C3757 0.961 . S
H3765 C3757 0.960 . S
H3766 C3758 0.930 . S
H3767 C3759 0.929 . S
H3768 C3776 0.929 . S
H3769 C3778 0.930 . S
H3770 C3780 0.930 . S
H3771 C3783 0.929 . S
H3772 C3786 0.930 . S
H3773 C3788 0.960 . S
H3774 C3788 0.960 . S
H3775 C3788 0.960 . S
C3776 H3768 0.929 . S
C3776 C3777 1.377 . S
C3776 C3778 1.384 . S
C3777 C3776 1.377 . S
C3777 C3783 1.390 . S
C3778 H3769 0.930 . S
C3778 C3776 1.384 . S
C3778 C3779 1.372 . S
C3779 C3778 1.372 . S
C3779 C3780 1.400 . S
C3779 C3784 1.490 . S
C3780 H3770 0.930 . S
C3780 C3779 1.400 . S
C3780 C3783 1.386 . S
H3781 C3797 0.930 . S
H3782 C3798 0.931 . S
C3783 H3771 0.929 . S
C3783 C3777 1.390 . S
C3783 C3780 1.386 . S
C3784 C3779 1.490 . S
C3784 C3786 1.395 . S
C3784 C3787 1.403 . S
H3785 C3791 0.930 . S
C3786 H3772 0.930 . S
C3786 C3784 1.395 . S
C3786 C3789 1.403 . S
C3787 C3784 1.403 . S
C3787 C3788 1.524 . S
C3787 C3791 1.400 . S
C3788 H3773 0.960 . S
C3788 H3774 0.960 . S
C3788 H3775 0.960 . S
C3788 C3787 1.524 . S
C3789 C3786 1.403 . S
C3789 C3790 1.392 . S
C3789 C3793 1.495 . S
C3790 C3789 1.392 . S
C3790 C3791 1.385 . S
C3790 C3792 1.478 . S
C3791 H3785 0.930 . S
C3791 C3787 1.400 . S
C3791 C3790 1.385 . S
C3792 C3790 1.478 . S
C3792 C3794 1.381 . S
C3792 C3798 1.383 . S
C3793 C3789 1.495 . S
C3793 H3799 0.959 . S
C3793 H3800 0.961 . S
C3793 H3801 0.960 . S
C3794 C3792 1.381 . S
C3794 C3795 1.394 . S
C3794 H3802 0.930 . S
C3795 C3794 1.394 . S
C3795 C3796 1.383 . S
C3795 H3803 0.929 . S
C3796 C3795 1.383 . S
C3796 C3797 1.377 . S
C3797 H3781 0.930 . S
C3797 C3796 1.377 . S
C3797 C3798 1.379 . S
C3798 H3782 0.931 . S
C3798 C3792 1.383 . S
C3798 C3797 1.379 . S
H3799 C3793 0.959 . S
H3800 C3793 0.961 . S
H3801 C3793 0.960 . S
H3802 C3794 0.930 . S
H3803 C3795 0.929 . S
H3804 C3812 0.929 . S
H3805 C3814 0.930 . S
H3806 C3816 0.930 . S
H3807 C3819 0.929 . S
H3808 C3822 0.930 . S
H3809 C3824 0.960 . S
H3810 C3824 0.960 . S
H3811 C3824 0.960 . S
C3812 H3804 0.929 . S
C3812 C3813 1.377 . S
C3812 C3814 1.384 . S
C3813 C3812 1.377 . S
C3813 C3819 1.390 . S
C3814 H3805 0.930 . S
C3814 C3812 1.384 . S
C3814 C3815 1.372 . S
C3815 C3814 1.372 . S
C3815 C3816 1.400 . S
C3815 C3820 1.490 . S
C3816 H3806 0.930 . S
C3816 C3815 1.400 . S
C3816 C3819 1.386 . S
H3817 C3833 0.930 . S
H3818 C3834 0.931 . S
C3819 H3807 0.929 . S
C3819 C3813 1.390 . S
C3819 C3816 1.386 . S
C3820 C3815 1.490 . S
C3820 C3822 1.395 . S
C3820 C3823 1.403 . S
H3821 C3827 0.930 . S
C3822 H3808 0.930 . S
C3822 C3820 1.395 . S
C3822 C3825 1.403 . S
C3823 C3820 1.403 . S
C3823 C3824 1.524 . S
C3823 C3827 1.400 . S
C3824 H3809 0.960 . S
C3824 H3810 0.960 . S
C3824 H3811 0.960 . S
C3824 C3823 1.524 . S
C3825 C3822 1.403 . S
C3825 C3826 1.392 . S
C3825 C3829 1.495 . S
C3826 C3825 1.392 . S
C3826 C3827 1.385 . S
C3826 C3828 1.478 . S
C3827 H3821 0.930 . S
C3827 C3823 1.400 . S
C3827 C3826 1.385 . S
C3828 C3826 1.478 . S
C3828 C3830 1.381 . S
C3828 C3834 1.383 . S
C3829 C3825 1.495 . S
C3829 H3835 0.959 . S
C3829 H3836 0.961 . S
C3829 H3837 0.960 . S
C3830 C3828 1.381 . S
C3830 C3831 1.394 . S
C3830 H3838 0.930 . S
C3831 C3830 1.394 . S
C3831 C3832 1.383 . S
C3831 H3839 0.929 . S
C3832 C3831 1.383 . S
C3832 C3833 1.377 . S
C3833 H3817 0.930 . S
C3833 C3832 1.377 . S
C3833 C3834 1.379 . S
C3834 H3818 0.931 . S
C3834 C3828 1.383 . S
C3834 C3833 1.379 . S
H3835 C3829 0.959 . S
H3836 C3829 0.961 . S
H3837 C3829 0.960 . S
H3838 C3830 0.930 . S
H3839 C3831 0.929 . S
H3840 C3848 0.929 . S
H3841 C3850 0.930 . S
H3842 C3852 0.930 . S
H3843 C3855 0.929 . S
H3844 C3858 0.930 . S
H3845 C3860 0.960 . S
H3846 C3860 0.960 . S
H3847 C3860 0.960 . S
C3848 H3840 0.929 . S
C3848 C3849 1.377 . S
C3848 C3850 1.384 . S
C3849 C3848 1.377 . S
C3849 C3855 1.390 . S
C3850 H3841 0.930 . S
C3850 C3848 1.384 . S
C3850 C3851 1.372 . S
C3851 C3850 1.372 . S
C3851 C3852 1.400 . S
C3851 C3856 1.490 . S
C3852 H3842 0.930 . S
C3852 C3851 1.400 . S
C3852 C3855 1.386 . S
H3853 C3869 0.930 . S
H3854 C3870 0.931 . S
C3855 H3843 0.929 . S
C3855 C3849 1.390 . S
C3855 C3852 1.386 . S
C3856 C3851 1.490 . S
C3856 C3858 1.395 . S
C3856 C3859 1.403 . S
H3857 C3863 0.930 . S
C3858 H3844 0.930 . S
C3858 C3856 1.395 . S
C3858 C3861 1.403 . S
C3859 C3856 1.403 . S
C3859 C3860 1.524 . S
C3859 C3863 1.400 . S
C3860 H3845 0.960 . S
C3860 H3846 0.960 . S
C3860 H3847 0.960 . S
C3860 C3859 1.524 . S
C3861 C3858 1.403 . S
C3861 C3862 1.392 . S
C3861 C3865 1.495 . S
C3862 C3861 1.392 . S
C3862 C3863 1.385 . S
C3862 C3864 1.478 . S
C3863 H3857 0.930 . S
C3863 C3859 1.400 . S
C3863 C3862 1.385 . S
C3864 C3862 1.478 . S
C3864 C3866 1.381 . S
C3864 C3870 1.383 . S
C3865 C3861 1.495 . S
C3865 H3871 0.959 . S
C3865 H3872 0.961 . S
C3865 H3873 0.960 . S
C3866 C3864 1.381 . S
C3866 C3867 1.394 . S
C3866 H3874 0.930 . S
C3867 C3866 1.394 . S
C3867 C3868 1.383 . S
C3867 H3875 0.929 . S
C3868 C3867 1.383 . S
C3868 C3869 1.377 . S
C3869 H3853 0.930 . S
C3869 C3868 1.377 . S
C3869 C3870 1.379 . S
C3870 H3854 0.931 . S
C3870 C3864 1.383 . S
C3870 C3869 1.379 . S
H3871 C3865 0.959 . S
H3872 C3865 0.961 . S
H3873 C3865 0.960 . S
H3874 C3866 0.930 . S
H3875 C3867 0.929 . S
H3876 C3884 0.929 . S
H3877 C3886 0.930 . S
H3878 C3888 0.930 . S
H3879 C3891 0.929 . S
H3880 C3894 0.930 . S
H3881 C3896 0.960 . S
H3882 C3896 0.960 . S
H3883 C3896 0.960 . S
C3884 H3876 0.929 . S
C3884 C3885 1.377 . S
C3884 C3886 1.384 . S
C3885 C3884 1.377 . S
C3885 C3891 1.390 . S
C3886 H3877 0.930 . S
C3886 C3884 1.384 . S
C3886 C3887 1.372 . S
C3887 C3886 1.372 . S
C3887 C3888 1.400 . S
C3887 C3892 1.490 . S
C3888 H3878 0.930 . S
C3888 C3887 1.400 . S
C3888 C3891 1.386 . S
H3889 C3905 0.930 . S
H3890 C3906 0.931 . S
C3891 H3879 0.929 . S
C3891 C3885 1.390 . S
C3891 C3888 1.386 . S
C3892 C3887 1.490 . S
C3892 C3894 1.395 . S
C3892 C3895 1.403 . S
H3893 C3899 0.930 . S
C3894 H3880 0.930 . S
C3894 C3892 1.395 . S
C3894 C3897 1.403 . S
C3895 C3892 1.403 . S
C3895 C3896 1.524 . S
C3895 C3899 1.400 . S
C3896 H3881 0.960 . S
C3896 H3882 0.960 . S
C3896 H3883 0.960 . S
C3896 C3895 1.524 . S
C3897 C3894 1.403 . S
C3897 C3898 1.392 . S
C3897 C3901 1.495 . S
C3898 C3897 1.392 . S
C3898 C3899 1.385 . S
C3898 C3900 1.478 . S
C3899 H3893 0.930 . S
C3899 C3895 1.400 . S
C3899 C3898 1.385 . S
C3900 C3898 1.478 . S
C3900 C3902 1.381 . S
C3900 C3906 1.383 . S
C3901 C3897 1.495 . S
C3901 H3907 0.959 . S
C3901 H3908 0.961 . S
C3901 H3909 0.960 . S
C3902 C3900 1.381 . S
C3902 C3903 1.394 . S
C3902 H3910 0.930 . S
C3903 C3902 1.394 . S
C3903 C3904 1.383 . S
C3903 H3911 0.929 . S
C3904 C3903 1.383 . S
C3904 C3905 1.377 . S
C3905 H3889 0.930 . S
C3905 C3904 1.377 . S
C3905 C3906 1.379 . S
C3906 H3890 0.931 . S
C3906 C3900 1.383 . S
C3906 C3905 1.379 . S
H3907 C3901 0.959 . S
H3908 C3901 0.961 . S
H3909 C3901 0.960 . S
H3910 C3902 0.930 . S
H3911 C3903 0.929 . S
H3912 C3920 0.929 . S
H3913 C3922 0.930 . S
H3914 C3924 0.930 . S
H3915 C3927 0.929 . S
H3916 C3930 0.930 . S
H3917 C3932 0.960 . S
H3918 C3932 0.960 . S
H3919 C3932 0.960 . S
C3920 H3912 0.929 . S
C3920 C3921 1.377 . S
C3920 C3922 1.384 . S
C3921 C3920 1.377 . S
C3921 C3927 1.390 . S
C3922 H3913 0.930 . S
C3922 C3920 1.384 . S
C3922 C3923 1.372 . S
C3923 C3922 1.372 . S
C3923 C3924 1.400 . S
C3923 C3928 1.490 . S
C3924 H3914 0.930 . S
C3924 C3923 1.400 . S
C3924 C3927 1.386 . S
H3925 C3941 0.930 . S
H3926 C3942 0.931 . S
C3927 H3915 0.929 . S
C3927 C3921 1.390 . S
C3927 C3924 1.386 . S
C3928 C3923 1.490 . S
C3928 C3930 1.395 . S
C3928 C3931 1.403 . S
H3929 C3935 0.930 . S
C3930 H3916 0.930 . S
C3930 C3928 1.395 . S
C3930 C3933 1.403 . S
C3931 C3928 1.403 . S
C3931 C3932 1.524 . S
C3931 C3935 1.400 . S
C3932 H3917 0.960 . S
C3932 H3918 0.960 . S
C3932 H3919 0.960 . S
C3932 C3931 1.524 . S
C3933 C3930 1.403 . S
C3933 C3934 1.392 . S
C3933 C3937 1.495 . S
C3934 C3933 1.392 . S
C3934 C3935 1.385 . S
C3934 C3936 1.478 . S
C3935 H3929 0.930 . S
C3935 C3931 1.400 . S
C3935 C3934 1.385 . S
C3936 C3934 1.478 . S
C3936 C3938 1.381 . S
C3936 C3942 1.383 . S
C3937 C3933 1.495 . S
C3937 H3943 0.959 . S
C3937 H3944 0.961 . S
C3937 H3945 0.960 . S
C3938 C3936 1.381 . S
C3938 C3939 1.394 . S
C3938 H3946 0.930 . S
C3939 C3938 1.394 . S
C3939 C3940 1.383 . S
C3939 H3947 0.929 . S
C3940 C3939 1.383 . S
C3940 C3941 1.377 . S
C3941 H3925 0.930 . S
C3941 C3940 1.377 . S
C3941 C3942 1.379 . S
C3942 H3926 0.931 . S
C3942 C3936 1.383 . S
C3942 C3941 1.379 . S
H3943 C3937 0.959 . S
H3944 C3937 0.961 . S
H3945 C3937 0.960 . S
H3946 C3938 0.930 . S
H3947 C3939 0.929 . S
H3948 C3956 0.929 . S
H3949 C3958 0.930 . S
H3950 C3960 0.930 . S
H3951 C3963 0.929 . S
H3952 C3966 0.930 . S
H3953 C3968 0.960 . S
H3954 C3968 0.960 . S
H3955 C3968 0.960 . S
C3956 H3948 0.929 . S
C3956 C3957 1.377 . S
C3956 C3958 1.384 . S
C3957 C3956 1.377 . S
C3957 C3963 1.390 . S
C3958 H3949 0.930 . S
C3958 C3956 1.384 . S
C3958 C3959 1.372 . S
C3959 C3958 1.372 . S
C3959 C3960 1.400 . S
C3959 C3964 1.490 . S
C3960 H3950 0.930 . S
C3960 C3959 1.400 . S
C3960 C3963 1.386 . S
H3961 C3977 0.930 . S
H3962 C3978 0.931 . S
C3963 H3951 0.929 . S
C3963 C3957 1.390 . S
C3963 C3960 1.386 . S
C3964 C3959 1.490 . S
C3964 C3966 1.395 . S
C3964 C3967 1.403 . S
H3965 C3971 0.930 . S
C3966 H3952 0.930 . S
C3966 C3964 1.395 . S
C3966 C3969 1.403 . S
C3967 C3964 1.403 . S
C3967 C3968 1.524 . S
C3967 C3971 1.400 . S
C3968 H3953 0.960 . S
C3968 H3954 0.960 . S
C3968 H3955 0.960 . S
C3968 C3967 1.524 . S
C3969 C3966 1.403 . S
C3969 C3970 1.392 . S
C3969 C3973 1.495 . S
C3970 C3969 1.392 . S
C3970 C3971 1.385 . S
C3970 C3972 1.478 . S
C3971 H3965 0.930 . S
C3971 C3967 1.400 . S
C3971 C3970 1.385 . S
C3972 C3970 1.478 . S
C3972 C3974 1.381 . S
C3972 C3978 1.383 . S
C3973 C3969 1.495 . S
C3973 H3979 0.959 . S
C3973 H3980 0.961 . S
C3973 H3981 0.960 . S
C3974 C3972 1.381 . S
C3974 C3975 1.394 . S
C3974 H3982 0.930 . S
C3975 C3974 1.394 . S
C3975 C3976 1.383 . S
C3975 H3983 0.929 . S
C3976 C3975 1.383 . S
C3976 C3977 1.377 . S
C3977 H3961 0.930 . S
C3977 C3976 1.377 . S
C3977 C3978 1.379 . S
C3978 H3962 0.931 . S
C3978 C3972 1.383 . S
C3978 C3977 1.379 . S
H3979 C3973 0.959 . S
H3980 C3973 0.961 . S
H3981 C3973 0.960 . S
H3982 C3974 0.930 . S
H3983 C3975 0.929 . S
H3984 C3992 0.929 . S
H3985 C3994 0.930 . S
H3986 C3996 0.930 . S
H3987 C3999 0.929 . S
H3988 C4002 0.930 . S
H3989 C4004 0.960 . S
H3990 C4004 0.960 . S
H3991 C4004 0.960 . S
C3992 H3984 0.929 . S
C3992 C3993 1.377 . S
C3992 C3994 1.384 . S
C3993 C3992 1.377 . S
C3993 C3999 1.390 . S
C3994 H3985 0.930 . S
C3994 C3992 1.384 . S
C3994 C3995 1.372 . S
C3995 C3994 1.372 . S
C3995 C3996 1.400 . S
C3995 C4000 1.490 . S
C3996 H3986 0.930 . S
C3996 C3995 1.400 . S
C3996 C3999 1.386 . S
H3997 C4013 0.930 . S
H3998 C4014 0.931 . S
C3999 H3987 0.929 . S
C3999 C3993 1.390 . S
C3999 C3996 1.386 . S
C4000 C3995 1.490 . S
C4000 C4002 1.395 . S
C4000 C4003 1.403 . S
H4001 C4007 0.930 . S
C4002 H3988 0.930 . S
C4002 C4000 1.395 . S
C4002 C4005 1.403 . S
C4003 C4000 1.403 . S
C4003 C4004 1.524 . S
C4003 C4007 1.400 . S
C4004 H3989 0.960 . S
C4004 H3990 0.960 . S
C4004 H3991 0.960 . S
C4004 C4003 1.524 . S
C4005 C4002 1.403 . S
C4005 C4006 1.392 . S
C4005 C4009 1.495 . S
C4006 C4005 1.392 . S
C4006 C4007 1.385 . S
C4006 C4008 1.478 . S
C4007 H4001 0.930 . S
C4007 C4003 1.400 . S
C4007 C4006 1.385 . S
C4008 C4006 1.478 . S
C4008 C4010 1.381 . S
C4008 C4014 1.383 . S
C4009 C4005 1.495 . S
C4009 H4015 0.959 . S
C4009 H4016 0.961 . S
C4009 H4017 0.960 . S
C4010 C4008 1.381 . S
C4010 C4011 1.394 . S
C4010 H4018 0.930 . S
C4011 C4010 1.394 . S
C4011 C4012 1.383 . S
C4011 H4019 0.929 . S
C4012 C4011 1.383 . S
C4012 C4013 1.377 . S
C4013 H3997 0.930 . S
C4013 C4012 1.377 . S
C4013 C4014 1.379 . S
C4014 H3998 0.931 . S
C4014 C4008 1.383 . S
C4014 C4013 1.379 . S
H4015 C4009 0.959 . S
H4016 C4009 0.961 . S
H4017 C4009 0.960 . S
H4018 C4010 0.930 . S
H4019 C4011 0.929 . S
H4020 C4028 0.929 . S
H4021 C4030 0.930 . S
H4022 C4032 0.930 . S
H4023 C4035 0.929 . S
H4024 C4038 0.930 . S
H4025 C4040 0.960 . S
H4026 C4040 0.960 . S
H4027 C4040 0.960 . S
C4028 H4020 0.929 . S
C4028 C4029 1.377 . S
C4028 C4030 1.384 . S
C4029 C4028 1.377 . S
C4029 C4035 1.390 . S
C4030 H4021 0.930 . S
C4030 C4028 1.384 . S
C4030 C4031 1.372 . S
C4031 C4030 1.372 . S
C4031 C4032 1.400 . S
C4031 C4036 1.490 . S
C4032 H4022 0.930 . S
C4032 C4031 1.400 . S
C4032 C4035 1.386 . S
H4033 C4049 0.930 . S
H4034 C4050 0.931 . S
C4035 H4023 0.929 . S
C4035 C4029 1.390 . S
C4035 C4032 1.386 . S
C4036 C4031 1.490 . S
C4036 C4038 1.395 . S
C4036 C4039 1.403 . S
H4037 C4043 0.930 . S
C4038 H4024 0.930 . S
C4038 C4036 1.395 . S
C4038 C4041 1.403 . S
C4039 C4036 1.403 . S
C4039 C4040 1.524 . S
C4039 C4043 1.400 . S
C4040 H4025 0.960 . S
C4040 H4026 0.960 . S
C4040 H4027 0.960 . S
C4040 C4039 1.524 . S
C4041 C4038 1.403 . S
C4041 C4042 1.392 . S
C4041 C4045 1.495 . S
C4042 C4041 1.392 . S
C4042 C4043 1.385 . S
C4042 C4044 1.478 . S
C4043 H4037 0.930 . S
C4043 C4039 1.400 . S
C4043 C4042 1.385 . S
C4044 C4042 1.478 . S
C4044 C4046 1.381 . S
C4044 C4050 1.383 . S
C4045 C4041 1.495 . S
C4045 H4051 0.959 . S
C4045 H4052 0.961 . S
C4045 H4053 0.960 . S
C4046 C4044 1.381 . S
C4046 C4047 1.394 . S
C4046 H4054 0.930 . S
C4047 C4046 1.394 . S
C4047 C4048 1.383 . S
C4047 H4055 0.929 . S
C4048 C4047 1.383 . S
C4048 C4049 1.377 . S
C4049 H4033 0.930 . S
C4049 C4048 1.377 . S
C4049 C4050 1.379 . S
C4050 H4034 0.931 . S
C4050 C4044 1.383 . S
C4050 C4049 1.379 . S
H4051 C4045 0.959 . S
H4052 C4045 0.961 . S
H4053 C4045 0.960 . S
H4054 C4046 0.930 . S
H4055 C4047 0.929 . S
H4056 C4064 0.929 . S
H4057 C4066 0.930 . S
H4058 C4068 0.930 . S
H4059 C4071 0.929 . S
H4060 C4074 0.930 . S
H4061 C4076 0.960 . S
H4062 C4076 0.960 . S
H4063 C4076 0.960 . S
C4064 H4056 0.929 . S
C4064 C4065 1.377 . S
C4064 C4066 1.384 . S
C4065 C4064 1.377 . S
C4065 C4071 1.390 . S
C4066 H4057 0.930 . S
C4066 C4064 1.384 . S
C4066 C4067 1.372 . S
C4067 C4066 1.372 . S
C4067 C4068 1.400 . S
C4067 C4072 1.490 . S
C4068 H4058 0.930 . S
C4068 C4067 1.400 . S
C4068 C4071 1.386 . S
H4069 C4085 0.930 . S
H4070 C4086 0.931 . S
C4071 H4059 0.929 . S
C4071 C4065 1.390 . S
C4071 C4068 1.386 . S
C4072 C4067 1.490 . S
C4072 C4074 1.395 . S
C4072 C4075 1.403 . S
H4073 C4079 0.930 . S
C4074 H4060 0.930 . S
C4074 C4072 1.395 . S
C4074 C4077 1.403 . S
C4075 C4072 1.403 . S
C4075 C4076 1.524 . S
C4075 C4079 1.400 . S
C4076 H4061 0.960 . S
C4076 H4062 0.960 . S
C4076 H4063 0.960 . S
C4076 C4075 1.524 . S
C4077 C4074 1.403 . S
C4077 C4078 1.392 . S
C4077 C4081 1.495 . S
C4078 C4077 1.392 . S
C4078 C4079 1.385 . S
C4078 C4080 1.478 . S
C4079 H4073 0.930 . S
C4079 C4075 1.400 . S
C4079 C4078 1.385 . S
C4080 C4078 1.478 . S
C4080 C4082 1.381 . S
C4080 C4086 1.383 . S
C4081 C4077 1.495 . S
C4081 H4087 0.959 . S
C4081 H4088 0.961 . S
C4081 H4089 0.960 . S
C4082 C4080 1.381 . S
C4082 C4083 1.394 . S
C4082 H4090 0.930 . S
C4083 C4082 1.394 . S
C4083 C4084 1.383 . S
C4083 H4091 0.929 . S
C4084 C4083 1.383 . S
C4084 C4085 1.377 . S
C4085 H4069 0.930 . S
C4085 C4084 1.377 . S
C4085 C4086 1.379 . S
C4086 H4070 0.931 . S
C4086 C4080 1.383 . S
C4086 C4085 1.379 . S
H4087 C4081 0.959 . S
H4088 C4081 0.961 . S
H4089 C4081 0.960 . S
H4090 C4082 0.930 . S
H4091 C4083 0.929 . S
H4092 C4100 0.929 1_556 S
H4093 C4102 0.887 1_556 S
H4094 C4104 0.930 . S
H4095 C4107 0.929 . S
H4096 C4110 0.930 . S
H4097 C4112 0.960 . S
H4098 C4112 0.960 . S
H4099 C4112 0.960 . S
C4100 H4092 0.929 1_554 S
C4100 C4101 1.377 . S
C4100 C4102 1.392 . S
C4101 C4100 1.377 . S
C4101 C4107 1.390 . S
C4102 H4093 0.887 1_554 S
C4102 C4100 1.392 . S
C4102 C4103 1.407 . S
C4103 C4102 1.407 . S
C4103 C4104 1.400 . S
C4103 C4108 1.490 . S
C4104 H4094 0.930 . S
C4104 C4103 1.400 . S
C4104 C4107 1.386 . S
H4105 C4121 0.930 . S
H4106 C4122 0.931 . S
C4107 H4095 0.929 . S
C4107 C4101 1.390 . S
C4107 C4104 1.386 . S
C4108 C4103 1.490 . S
C4108 C4110 1.395 . S
C4108 C4111 1.403 . S
H4109 C4115 0.930 . S
C4110 H4096 0.930 . S
C4110 C4108 1.395 . S
C4110 C4113 1.403 1_565 S
C4111 C4108 1.403 . S
C4111 C4112 1.524 . S
C4111 C4115 1.400 . S
C4112 H4097 0.960 . S
C4112 H4098 0.960 . S
C4112 H4099 0.960 . S
C4112 C4111 1.524 . S
C4113 C4110 1.403 1_545 S
C4113 C4114 1.392 1_545 S
C4113 C4117 1.523 . S
C4114 C4113 1.392 1_565 S
C4114 C4115 1.385 . S
C4114 C4116 1.478 1_565 S
C4115 H4109 0.930 . S
C4115 C4111 1.400 . S
C4115 C4114 1.385 . S
C4116 C4114 1.478 1_545 S
C4116 C4118 1.373 1_554 S
C4116 C4122 1.383 . S
C4117 C4113 1.523 . S
C4117 H4123 0.946 1_554 S
C4117 H4124 0.989 . S
C4117 H4125 0.921 1_554 S
C4118 C4116 1.373 1_556 S
C4118 C4119 1.396 1_556 S
C4118 H4126 0.937 . S
C4119 C4118 1.396 1_554 S
C4119 C4120 1.391 . S
C4119 H4127 0.921 1_554 S
C4120 C4119 1.391 . S
C4120 C4121 1.377 . S
C4121 H4105 0.930 . S
C4121 C4120 1.377 . S
C4121 C4122 1.379 . S
C4122 H4106 0.931 . S
C4122 C4116 1.383 . S
C4122 C4121 1.379 . S
H4123 C4117 0.946 1_556 S
H4124 C4117 0.989 . S
H4125 C4117 0.921 1_556 S
H4126 C4118 0.937 . S
H4127 C4119 0.921 1_556 S
H4128 C4136 0.929 . S
H4129 C4138 0.930 . S
H4130 C4140 0.930 . S
H4131 C4143 0.929 . S
H4132 C4146 0.930 . S
H4133 C4148 0.960 . S
H4134 C4148 0.960 . S
H4135 C4148 0.960 . S
C4136 H4128 0.929 . S
C4136 C4137 1.377 . S
C4136 C4138 1.384 . S
C4137 C4136 1.377 . S
C4137 C4143 1.390 . S
C4138 H4129 0.930 . S
C4138 C4136 1.384 . S
C4138 C4139 1.372 . S
C4139 C4138 1.372 . S
C4139 C4140 1.400 . S
C4139 C4144 1.490 . S
C4140 H4130 0.930 . S
C4140 C4139 1.400 . S
C4140 C4143 1.386 . S
H4141 C4157 0.930 . S
H4142 C4158 0.931 . S
C4143 H4131 0.929 . S
C4143 C4137 1.390 . S
C4143 C4140 1.386 . S
C4144 C4139 1.490 . S
C4144 C4146 1.395 . S
C4144 C4147 1.403 . S
H4145 C4151 0.930 . S
C4146 H4132 0.930 . S
C4146 C4144 1.395 . S
C4146 C4149 1.403 . S
C4147 C4144 1.403 . S
C4147 C4148 1.524 . S
C4147 C4151 1.400 . S
C4148 H4133 0.960 . S
C4148 H4134 0.960 . S
C4148 H4135 0.960 . S
C4148 C4147 1.524 . S
C4149 C4146 1.403 . S
C4149 C4150 1.392 . S
C4149 C4153 1.495 . S
C4150 C4149 1.392 . S
C4150 C4151 1.385 . S
C4150 C4152 1.478 . S
C4151 H4145 0.930 . S
C4151 C4147 1.400 . S
C4151 C4150 1.385 . S
C4152 C4150 1.478 . S
C4152 C4154 1.381 . S
C4152 C4158 1.383 . S
C4153 C4149 1.495 . S
C4153 H4159 0.959 . S
C4153 H4160 0.961 . S
C4153 H4161 0.960 . S
C4154 C4152 1.381 . S
C4154 C4155 1.394 . S
C4154 H4162 0.930 . S
C4155 C4154 1.394 . S
C4155 C4156 1.383 . S
C4155 H4163 0.929 . S
C4156 C4155 1.383 . S
C4156 C4157 1.377 . S
C4157 H4141 0.930 . S
C4157 C4156 1.377 . S
C4157 C4158 1.379 . S
C4158 H4142 0.931 . S
C4158 C4152 1.383 . S
C4158 C4157 1.379 . S
H4159 C4153 0.959 . S
H4160 C4153 0.961 . S
H4161 C4153 0.960 . S
H4162 C4154 0.930 . S
H4163 C4155 0.929 . S
H4164 C4172 0.929 . S
H4165 C4174 0.930 . S
H4166 C4176 0.932 1_556 S
H4167 C4179 0.929 . S
H4168 C4182 0.930 . S
H4169 C4184 0.960 . S
H4170 C4184 0.960 . S
H4171 C4184 0.960 . S
C4172 H4164 0.929 . S
C4172 C4173 1.377 . S
C4172 C4174 1.384 . S
C4173 C4172 1.377 . S
C4173 C4179 1.390 1_554 S
C4174 H4165 0.930 . S
C4174 C4172 1.384 . S
C4174 C4175 1.372 . S
C4175 C4174 1.372 . S
C4175 C4176 1.400 . S
C4175 C4180 1.490 . S
C4176 H4166 0.932 1_554 S
C4176 C4175 1.400 . S
C4176 C4179 1.386 1_554 S
H4177 C4193 0.930 . S
H4178 C4194 0.931 . S
C4179 H4167 0.929 . S
C4179 C4173 1.390 1_556 S
C4179 C4176 1.386 1_556 S
C4180 C4175 1.490 . S
C4180 C4182 1.395 . S
C4180 C4183 1.403 1_554 S
H4181 C4187 0.930 1_556 S
C4182 H4168 0.930 . S
C4182 C4180 1.395 . S
C4182 C4185 1.403 . S
C4183 C4180 1.403 1_556 S
C4183 C4184 1.524 . S
C4183 C4187 1.400 1_556 S
C4184 H4169 0.960 . S
C4184 H4170 0.960 . S
C4184 H4171 0.960 . S
C4184 C4183 1.524 . S
C4185 C4182 1.403 . S
C4185 C4186 1.392 . S
C4185 C4189 1.495 . S
C4186 C4185 1.392 . S
C4186 C4187 1.385 . S
C4186 C4188 1.478 . S
C4187 H4181 0.930 1_554 S
C4187 C4183 1.400 1_554 S
C4187 C4186 1.385 . S
C4188 C4186 1.478 . S
C4188 C4190 1.381 . S
C4188 C4194 1.383 . S
C4189 C4185 1.495 . S
C4189 H4195 0.959 . S
C4189 H4196 0.961 . S
C4189 H4197 0.960 . S
C4190 C4188 1.381 . S
C4190 C4191 1.394 . S
C4190 H4198 0.930 . S
C4191 C4190 1.394 . S
C4191 C4192 1.383 . S
C4191 H4199 0.929 . S
C4192 C4191 1.383 . S
C4192 C4193 1.377 . S
C4193 H4177 0.930 . S
C4193 C4192 1.377 . S
C4193 C4194 1.379 . S
C4194 H4178 0.931 . S
C4194 C4188 1.383 . S
C4194 C4193 1.379 . S
H4195 C4189 0.959 . S
H4196 C4189 0.961 . S
H4197 C4189 0.960 . S
H4198 C4190 0.930 . S
H4199 C4191 0.929 . S
H4200 C4208 0.929 . S
H4201 C4210 0.930 . S
H4202 C4212 0.930 . S
H4203 C4215 0.929 . S
H4204 C4218 0.930 . S
H4205 C4220 0.960 . S
H4206 C4220 0.960 . S
H4207 C4220 0.960 . S
C4208 H4200 0.929 . S
C4208 C4209 1.377 . S
C4208 C4210 1.384 . S
C4209 C4208 1.377 . S
C4209 C4215 1.390 . S
C4210 H4201 0.930 . S
C4210 C4208 1.384 . S
C4210 C4211 1.372 . S
C4211 C4210 1.372 . S
C4211 C4212 1.400 . S
C4211 C4216 1.490 . S
C4212 H4202 0.930 . S
C4212 C4211 1.400 . S
C4212 C4215 1.386 . S
H4213 C4229 0.930 . S
H4214 C4230 0.931 . S
C4215 H4203 0.929 . S
C4215 C4209 1.390 . S
C4215 C4212 1.386 . S
C4216 C4211 1.490 . S
C4216 C4218 1.395 . S
C4216 C4219 1.403 . S
H4217 C4223 0.930 . S
C4218 H4204 0.930 . S
C4218 C4216 1.395 . S
C4218 C4221 1.403 . S
C4219 C4216 1.403 . S
C4219 C4220 1.524 . S
C4219 C4223 1.400 . S
C4220 H4205 0.960 . S
C4220 H4206 0.960 . S
C4220 H4207 0.960 . S
C4220 C4219 1.524 . S
C4221 C4218 1.403 . S
C4221 C4222 1.392 . S
C4221 C4225 1.495 . S
C4222 C4221 1.392 . S
C4222 C4223 1.385 . S
C4222 C4224 1.478 . S
C4223 H4217 0.930 . S
C4223 C4219 1.400 . S
C4223 C4222 1.385 . S
C4224 C4222 1.478 . S
C4224 C4226 1.381 . S
C4224 C4230 1.383 . S
C4225 C4221 1.495 . S
C4225 H4231 0.959 . S
C4225 H4232 0.961 . S
C4225 H4233 0.960 . S
C4226 C4224 1.381 . S
C4226 C4227 1.394 . S
C4226 H4234 0.930 . S
C4227 C4226 1.394 . S
C4227 C4228 1.383 . S
C4227 H4235 0.929 . S
C4228 C4227 1.383 . S
C4228 C4229 1.377 . S
C4229 H4213 0.930 . S
C4229 C4228 1.377 . S
C4229 C4230 1.379 . S
C4230 H4214 0.931 . S
C4230 C4224 1.383 . S
C4230 C4229 1.379 . S
H4231 C4225 0.959 . S
H4232 C4225 0.961 . S
H4233 C4225 0.960 . S
H4234 C4226 0.930 . S
H4235 C4227 0.929 . S
H4236 C4244 0.929 . S
H4237 C4246 0.930 . S
H4238 C4248 0.930 . S
H4239 C4251 0.929 . S
H4240 C4254 0.930 . S
H4241 C4256 0.960 . S
H4242 C4256 0.960 . S
H4243 C4256 0.960 . S
C4244 H4236 0.929 . S
C4244 C4245 1.377 . S
C4244 C4246 1.384 . S
C4245 C4244 1.377 . S
C4245 C4251 1.390 . S
C4246 H4237 0.930 . S
C4246 C4244 1.384 . S
C4246 C4247 1.372 . S
C4247 C4246 1.372 . S
C4247 C4248 1.400 . S
C4247 C4252 1.490 . S
C4248 H4238 0.930 . S
C4248 C4247 1.400 . S
C4248 C4251 1.386 . S
H4249 C4265 0.930 . S
H4250 C4266 0.931 . S
C4251 H4239 0.929 . S
C4251 C4245 1.390 . S
C4251 C4248 1.386 . S
C4252 C4247 1.490 . S
C4252 C4254 1.395 . S
C4252 C4255 1.403 . S
H4253 C4259 0.930 . S
C4254 H4240 0.930 . S
C4254 C4252 1.395 . S
C4254 C4257 1.403 . S
C4255 C4252 1.403 . S
C4255 C4256 1.524 . S
C4255 C4259 1.400 . S
C4256 H4241 0.960 . S
C4256 H4242 0.960 . S
C4256 H4243 0.960 . S
C4256 C4255 1.524 . S
C4257 C4254 1.403 . S
C4257 C4258 1.392 . S
C4257 C4261 1.495 . S
C4258 C4257 1.392 . S
C4258 C4259 1.385 . S
C4258 C4260 1.478 . S
C4259 H4253 0.930 . S
C4259 C4255 1.400 . S
C4259 C4258 1.385 . S
C4260 C4258 1.478 . S
C4260 C4262 1.381 . S
C4260 C4266 1.383 . S
C4261 C4257 1.495 . S
C4261 H4267 0.959 . S
C4261 H4268 0.961 . S
C4261 H4269 0.960 . S
C4262 C4260 1.381 . S
C4262 C4263 1.394 . S
C4262 H4270 0.930 . S
C4263 C4262 1.394 . S
C4263 C4264 1.383 . S
C4263 H4271 0.929 . S
C4264 C4263 1.383 . S
C4264 C4265 1.377 . S
C4265 H4249 0.930 . S
C4265 C4264 1.377 . S
C4265 C4266 1.379 . S
C4266 H4250 0.931 . S
C4266 C4260 1.383 . S
C4266 C4265 1.379 . S
H4267 C4261 0.959 . S
H4268 C4261 0.961 . S
H4269 C4261 0.960 . S
H4270 C4262 0.930 . S
H4271 C4263 0.929 . S
H4272 C4280 0.929 . S
H4273 C4282 0.930 . S
H4274 C4284 0.930 . S
H4275 C4287 0.929 . S
H4276 C4290 0.930 . S
H4277 C4292 0.960 . S
H4278 C4292 0.960 . S
H4279 C4292 0.960 . S
C4280 H4272 0.929 . S
C4280 C4281 1.377 . S
C4280 C4282 1.384 . S
C4281 C4280 1.377 . S
C4281 C4287 1.390 . S
C4282 H4273 0.930 . S
C4282 C4280 1.384 . S
C4282 C4283 1.372 . S
C4283 C4282 1.372 . S
C4283 C4284 1.400 . S
C4283 C4288 1.490 . S
C4284 H4274 0.930 . S
C4284 C4283 1.400 . S
C4284 C4287 1.386 . S
H4285 C4301 0.930 . S
H4286 C4302 0.931 . S
C4287 H4275 0.929 . S
C4287 C4281 1.390 . S
C4287 C4284 1.386 . S
C4288 C4283 1.490 . S
C4288 C4290 1.395 . S
C4288 C4291 1.403 . S
H4289 C4295 0.930 . S
C4290 H4276 0.930 . S
C4290 C4288 1.395 . S
C4290 C4293 1.403 . S
C4291 C4288 1.403 . S
C4291 C4292 1.524 . S
C4291 C4295 1.400 . S
C4292 H4277 0.960 . S
C4292 H4278 0.960 . S
C4292 H4279 0.960 . S
C4292 C4291 1.524 . S
C4293 C4290 1.403 . S
C4293 C4294 1.392 . S
C4293 C4297 1.495 . S
C4294 C4293 1.392 . S
C4294 C4295 1.385 . S
C4294 C4296 1.478 . S
C4295 H4289 0.930 . S
C4295 C4291 1.400 . S
C4295 C4294 1.385 . S
C4296 C4294 1.478 . S
C4296 C4298 1.381 . S
C4296 C4302 1.383 . S
C4297 C4293 1.495 . S
C4297 H4303 0.959 . S
C4297 H4304 0.961 . S
C4297 H4305 0.960 . S
C4298 C4296 1.381 . S
C4298 C4299 1.394 . S
C4298 H4306 0.930 . S
C4299 C4298 1.394 . S
C4299 C4300 1.383 . S
C4299 H4307 0.929 . S
C4300 C4299 1.383 . S
C4300 C4301 1.377 . S
C4301 H4285 0.930 . S
C4301 C4300 1.377 . S
C4301 C4302 1.379 . S
C4302 H4286 0.931 . S
C4302 C4296 1.383 . S
C4302 C4301 1.379 . S
H4303 C4297 0.959 . S
H4304 C4297 0.961 . S
H4305 C4297 0.960 . S
H4306 C4298 0.930 . S
H4307 C4299 0.929 . S
H4308 C4316 0.929 . S
H4309 C4318 0.930 . S
H4310 C4320 0.930 . S
H4311 C4323 0.929 . S
H4312 C4326 0.930 . S
H4313 C4328 0.960 . S
H4314 C4328 0.960 . S
H4315 C4328 0.960 . S
C4316 H4308 0.929 . S
C4316 C4317 1.377 . S
C4316 C4318 1.384 . S
C4317 C4316 1.377 . S
C4317 C4323 1.390 . S
C4318 H4309 0.930 . S
C4318 C4316 1.384 . S
C4318 C4319 1.372 . S
C4319 C4318 1.372 . S
C4319 C4320 1.400 . S
C4319 C4324 1.490 . S
C4320 H4310 0.930 . S
C4320 C4319 1.400 . S
C4320 C4323 1.386 . S
H4321 C4337 0.930 . S
H4322 C4338 0.931 . S
C4323 H4311 0.929 . S
C4323 C4317 1.390 . S
C4323 C4320 1.386 . S
C4324 C4319 1.490 . S
C4324 C4326 1.395 . S
C4324 C4327 1.403 . S
H4325 C4331 0.930 . S
C4326 H4312 0.930 . S
C4326 C4324 1.395 . S
C4326 C4329 1.403 . S
C4327 C4324 1.403 . S
C4327 C4328 1.524 . S
C4327 C4331 1.400 . S
C4328 H4313 0.960 . S
C4328 H4314 0.960 . S
C4328 H4315 0.960 . S
C4328 C4327 1.524 . S
C4329 C4326 1.403 . S
C4329 C4330 1.392 . S
C4329 C4333 1.495 . S
C4330 C4329 1.392 . S
C4330 C4331 1.385 . S
C4330 C4332 1.478 . S
C4331 H4325 0.930 . S
C4331 C4327 1.400 . S
C4331 C4330 1.385 . S
C4332 C4330 1.478 . S
C4332 C4334 1.381 . S
C4332 C4338 1.383 . S
C4333 C4329 1.495 . S
C4333 H4339 0.959 . S
C4333 H4340 0.961 . S
C4333 H4341 0.960 . S
C4334 C4332 1.381 . S
C4334 C4335 1.394 . S
C4334 H4342 0.930 . S
C4335 C4334 1.394 . S
C4335 C4336 1.383 . S
C4335 H4343 0.929 . S
C4336 C4335 1.383 . S
C4336 C4337 1.377 . S
C4337 H4321 0.930 . S
C4337 C4336 1.377 . S
C4337 C4338 1.379 . S
C4338 H4322 0.931 . S
C4338 C4332 1.383 . S
C4338 C4337 1.379 . S
H4339 C4333 0.959 . S
H4340 C4333 0.961 . S
H4341 C4333 0.960 . S
H4342 C4334 0.930 . S
H4343 C4335 0.929 . S
H4344 C4352 0.929 . S
H4345 C4354 0.930 . S
H4346 C4356 0.930 . S
H4347 C4359 0.929 . S
H4348 C4362 0.930 . S
H4349 C4364 0.960 . S
H4350 C4364 0.960 . S
H4351 C4364 0.960 . S
C4352 H4344 0.929 . S
C4352 C4353 1.377 . S
C4352 C4354 1.384 . S
C4353 C4352 1.377 . S
C4353 C4359 1.390 . S
C4354 H4345 0.930 . S
C4354 C4352 1.384 . S
C4354 C4355 1.372 . S
C4355 C4354 1.372 . S
C4355 C4356 1.400 . S
C4355 C4360 1.490 . S
C4356 H4346 0.930 . S
C4356 C4355 1.400 . S
C4356 C4359 1.386 . S
H4357 C4373 0.930 . S
H4358 C4374 0.931 . S
C4359 H4347 0.929 . S
C4359 C4353 1.390 . S
C4359 C4356 1.386 . S
C4360 C4355 1.490 . S
C4360 C4362 1.395 . S
C4360 C4363 1.403 . S
H4361 C4367 0.930 . S
C4362 H4348 0.930 . S
C4362 C4360 1.395 . S
C4362 C4365 1.403 . S
C4363 C4360 1.403 . S
C4363 C4364 1.524 . S
C4363 C4367 1.400 . S
C4364 H4349 0.960 . S
C4364 H4350 0.960 . S
C4364 H4351 0.960 . S
C4364 C4363 1.524 . S
C4365 C4362 1.403 . S
C4365 C4366 1.392 . S
C4365 C4369 1.495 . S
C4366 C4365 1.392 . S
C4366 C4367 1.385 . S
C4366 C4368 1.478 . S
C4367 H4361 0.930 . S
C4367 C4363 1.400 . S
C4367 C4366 1.385 . S
C4368 C4366 1.478 . S
C4368 C4370 1.381 . S
C4368 C4374 1.383 . S
C4369 C4365 1.495 . S
C4369 H4375 0.959 . S
C4369 H4376 0.961 . S
C4369 H4377 0.960 . S
C4370 C4368 1.381 . S
C4370 C4371 1.394 . S
C4370 H4378 0.930 . S
C4371 C4370 1.394 . S
C4371 C4372 1.383 . S
C4371 H4379 0.929 . S
C4372 C4371 1.383 . S
C4372 C4373 1.377 . S
C4373 H4357 0.930 . S
C4373 C4372 1.377 . S
C4373 C4374 1.379 . S
C4374 H4358 0.931 . S
C4374 C4368 1.383 . S
C4374 C4373 1.379 . S
H4375 C4369 0.959 . S
H4376 C4369 0.961 . S
H4377 C4369 0.960 . S
H4378 C4370 0.930 . S
H4379 C4371 0.929 . S
H4380 C4388 0.929 . S
H4381 C4390 0.930 . S
H4382 C4392 0.930 . S
H4383 C4395 0.929 . S
H4384 C4398 0.930 . S
H4385 C4400 0.960 . S
H4386 C4400 0.960 . S
H4387 C4400 0.960 . S
C4388 H4380 0.929 . S
C4388 C4389 1.377 . S
C4388 C4390 1.384 . S
C4389 C4388 1.377 . S
C4389 C4395 1.390 . S
C4390 H4381 0.930 . S
C4390 C4388 1.384 . S
C4390 C4391 1.372 . S
C4391 C4390 1.372 . S
C4391 C4392 1.400 . S
C4391 C4396 1.490 . S
C4392 H4382 0.930 . S
C4392 C4391 1.400 . S
C4392 C4395 1.386 . S
H4393 C4409 0.930 . S
H4394 C4410 0.931 . S
C4395 H4383 0.929 . S
C4395 C4389 1.390 . S
C4395 C4392 1.386 . S
C4396 C4391 1.490 . S
C4396 C4398 1.395 . S
C4396 C4399 1.403 . S
H4397 C4403 0.930 . S
C4398 H4384 0.930 . S
C4398 C4396 1.395 . S
C4398 C4401 1.403 . S
C4399 C4396 1.403 . S
C4399 C4400 1.524 . S
C4399 C4403 1.400 . S
C4400 H4385 0.960 . S
C4400 H4386 0.960 . S
C4400 H4387 0.960 . S
C4400 C4399 1.524 . S
C4401 C4398 1.403 . S
C4401 C4402 1.392 . S
C4401 C4405 1.495 . S
C4402 C4401 1.392 . S
C4402 C4403 1.385 . S
C4402 C4404 1.478 . S
C4403 H4397 0.930 . S
C4403 C4399 1.400 . S
C4403 C4402 1.385 . S
C4404 C4402 1.478 . S
C4404 C4406 1.381 . S
C4404 C4410 1.383 . S
C4405 C4401 1.495 . S
C4405 H4411 0.959 . S
C4405 H4412 0.961 . S
C4405 H4413 0.960 . S
C4406 C4404 1.381 . S
C4406 C4407 1.394 . S
C4406 H4414 0.930 . S
C4407 C4406 1.394 . S
C4407 C4408 1.383 . S
C4407 H4415 0.929 . S
C4408 C4407 1.383 . S
C4408 C4409 1.377 . S
C4409 H4393 0.930 . S
C4409 C4408 1.377 . S
C4409 C4410 1.379 . S
C4410 H4394 0.931 . S
C4410 C4404 1.383 . S
C4410 C4409 1.379 . S
H4411 C4405 0.959 . S
H4412 C4405 0.961 . S
H4413 C4405 0.960 . S
H4414 C4406 0.930 . S
H4415 C4407 0.929 . S
H4416 C4424 0.929 . S
H4417 C4426 0.930 . S
H4418 C4428 0.930 . S
H4419 C4431 0.929 . S
H4420 C4434 0.930 . S
H4421 C4436 0.960 . S
H4422 C4436 0.960 . S
H4423 C4436 0.960 . S
C4424 H4416 0.929 . S
C4424 C4425 1.377 . S
C4424 C4426 1.384 . S
C4425 C4424 1.377 . S
C4425 C4431 1.390 . S
C4426 H4417 0.930 . S
C4426 C4424 1.384 . S
C4426 C4427 1.372 . S
C4427 C4426 1.372 . S
C4427 C4428 1.400 . S
C4427 C4432 1.490 . S
C4428 H4418 0.930 . S
C4428 C4427 1.400 . S
C4428 C4431 1.386 . S
H4429 C4445 0.930 . S
H4430 C4446 0.931 . S
C4431 H4419 0.929 . S
C4431 C4425 1.390 . S
C4431 C4428 1.386 . S
C4432 C4427 1.490 . S
C4432 C4434 1.395 . S
C4432 C4435 1.403 . S
H4433 C4439 0.930 . S
C4434 H4420 0.930 . S
C4434 C4432 1.395 . S
C4434 C4437 1.403 . S
C4435 C4432 1.403 . S
C4435 C4436 1.524 . S
C4435 C4439 1.400 . S
C4436 H4421 0.960 . S
C4436 H4422 0.960 . S
C4436 H4423 0.960 . S
C4436 C4435 1.524 . S
C4437 C4434 1.403 . S
C4437 C4438 1.392 . S
C4437 C4441 1.495 . S
C4438 C4437 1.392 . S
C4438 C4439 1.385 . S
C4438 C4440 1.478 . S
C4439 H4433 0.930 . S
C4439 C4435 1.400 . S
C4439 C4438 1.385 . S
C4440 C4438 1.478 . S
C4440 C4442 1.381 . S
C4440 C4446 1.383 . S
C4441 C4437 1.495 . S
C4441 H4447 0.959 . S
C4441 H4448 0.961 . S
C4441 H4449 0.960 . S
C4442 C4440 1.381 . S
C4442 C4443 1.394 . S
C4442 H4450 0.930 . S
C4443 C4442 1.394 . S
C4443 C4444 1.383 . S
C4443 H4451 0.929 . S
C4444 C4443 1.383 . S
C4444 C4445 1.377 . S
C4445 H4429 0.930 . S
C4445 C4444 1.377 . S
C4445 C4446 1.379 . S
C4446 H4430 0.931 . S
C4446 C4440 1.383 . S
C4446 C4445 1.379 . S
H4447 C4441 0.959 . S
H4448 C4441 0.961 . S
H4449 C4441 0.960 . S
H4450 C4442 0.930 . S
H4451 C4443 0.929 . S
H4452 C4460 0.929 . S
H4453 C4462 0.930 . S
H4454 C4464 0.930 . S
H4455 C4467 0.929 . S
H4456 C4470 0.930 . S
H4457 C4472 0.960 . S
H4458 C4472 0.960 . S
H4459 C4472 0.960 . S
C4460 H4452 0.929 . S
C4460 C4461 1.377 . S
C4460 C4462 1.384 . S
C4461 C4460 1.377 . S
C4461 C4467 1.390 . S
C4462 H4453 0.930 . S
C4462 C4460 1.384 . S
C4462 C4463 1.372 . S
C4463 C4462 1.372 . S
C4463 C4464 1.400 . S
C4463 C4468 1.490 . S
C4464 H4454 0.930 . S
C4464 C4463 1.400 . S
C4464 C4467 1.386 . S
H4465 C4481 0.930 . S
H4466 C4482 0.931 . S
C4467 H4455 0.929 . S
C4467 C4461 1.390 . S
C4467 C4464 1.386 . S
C4468 C4463 1.490 . S
C4468 C4470 1.395 . S
C4468 C4471 1.403 . S
H4469 C4475 0.930 . S
C4470 H4456 0.930 . S
C4470 C4468 1.395 . S
C4470 C4473 1.403 . S
C4471 C4468 1.403 . S
C4471 C4472 1.524 . S
C4471 C4475 1.400 . S
C4472 H4457 0.960 . S
C4472 H4458 0.960 . S
C4472 H4459 0.960 . S
C4472 C4471 1.524 . S
C4473 C4470 1.403 . S
C4473 C4474 1.392 . S
C4473 C4477 1.495 . S
C4474 C4473 1.392 . S
C4474 C4475 1.385 . S
C4474 C4476 1.478 . S
C4475 H4469 0.930 . S
C4475 C4471 1.400 . S
C4475 C4474 1.385 . S
C4476 C4474 1.478 . S
C4476 C4478 1.381 . S
C4476 C4482 1.383 . S
C4477 C4473 1.495 . S
C4477 H4483 0.959 . S
C4477 H4484 0.961 . S
C4477 H4485 0.960 . S
C4478 C4476 1.381 . S
C4478 C4479 1.394 . S
C4478 H4486 0.930 . S
C4479 C4478 1.394 . S
C4479 C4480 1.383 . S
C4479 H4487 0.929 . S
C4480 C4479 1.383 . S
C4480 C4481 1.377 . S
C4481 H4465 0.930 . S
C4481 C4480 1.377 . S
C4481 C4482 1.379 . S
C4482 H4466 0.931 . S
C4482 C4476 1.383 . S
C4482 C4481 1.379 . S
H4483 C4477 0.959 . S
H4484 C4477 0.961 . S
H4485 C4477 0.960 . S
H4486 C4478 0.930 . S
H4487 C4479 0.929 . S
H4488 C4496 0.929 . S
H4489 C4498 0.930 . S
H4490 C4500 0.930 . S
H4491 C4503 0.929 . S
H4492 C4506 0.930 . S
H4493 C4508 0.960 . S
H4494 C4508 0.960 . S
H4495 C4508 0.960 . S
C4496 H4488 0.929 . S
C4496 C4497 1.377 . S
C4496 C4498 1.384 . S
C4497 C4496 1.377 . S
C4497 C4503 1.390 . S
C4498 H4489 0.930 . S
C4498 C4496 1.384 . S
C4498 C4499 1.372 . S
C4499 C4498 1.372 . S
C4499 C4500 1.400 . S
C4499 C4504 1.490 . S
C4500 H4490 0.930 . S
C4500 C4499 1.400 . S
C4500 C4503 1.386 . S
H4501 C4517 0.930 . S
H4502 C4518 0.931 . S
C4503 H4491 0.929 . S
C4503 C4497 1.390 . S
C4503 C4500 1.386 . S
C4504 C4499 1.490 . S
C4504 C4506 1.395 . S
C4504 C4507 1.403 . S
H4505 C4511 0.930 . S
C4506 H4492 0.930 . S
C4506 C4504 1.395 . S
C4506 C4509 1.403 . S
C4507 C4504 1.403 . S
C4507 C4508 1.524 . S
C4507 C4511 1.400 . S
C4508 H4493 0.960 . S
C4508 H4494 0.960 . S
C4508 H4495 0.960 . S
C4508 C4507 1.524 . S
C4509 C4506 1.403 . S
C4509 C4510 1.392 . S
C4509 C4513 1.495 . S
C4510 C4509 1.392 . S
C4510 C4511 1.385 . S
C4510 C4512 1.478 . S
C4511 H4505 0.930 . S
C4511 C4507 1.400 . S
C4511 C4510 1.385 . S
C4512 C4510 1.478 . S
C4512 C4514 1.381 . S
C4512 C4518 1.383 . S
C4513 C4509 1.495 . S
C4513 H4519 0.959 . S
C4513 H4520 0.961 . S
C4513 H4521 0.960 . S
C4514 C4512 1.381 . S
C4514 C4515 1.394 . S
C4514 H4522 0.930 . S
C4515 C4514 1.394 . S
C4515 C4516 1.383 . S
C4515 H4523 0.929 . S
C4516 C4515 1.383 . S
C4516 C4517 1.377 . S
C4517 H4501 0.930 . S
C4517 C4516 1.377 . S
C4517 C4518 1.379 . S
C4518 H4502 0.931 . S
C4518 C4512 1.383 . S
C4518 C4517 1.379 . S
H4519 C4513 0.959 . S
H4520 C4513 0.961 . S
H4521 C4513 0.960 . S
H4522 C4514 0.930 . S
H4523 C4515 0.929 . S
H4524 C4532 0.929 . S
H4525 C4534 0.930 . S
H4526 C4536 0.930 . S
H4527 C4539 0.929 . S
H4528 C4542 0.930 . S
H4529 C4544 0.960 . S
H4530 C4544 0.960 . S
H4531 C4544 0.960 . S
C4532 H4524 0.929 . S
C4532 C4533 1.377 . S
C4532 C4534 1.384 . S
C4533 C4532 1.377 . S
C4533 C4539 1.390 . S
C4534 H4525 0.930 . S
C4534 C4532 1.384 . S
C4534 C4535 1.372 . S
C4535 C4534 1.372 . S
C4535 C4536 1.400 . S
C4535 C4540 1.490 . S
C4536 H4526 0.930 . S
C4536 C4535 1.400 . S
C4536 C4539 1.386 . S
H4537 C4553 0.930 . S
H4538 C4554 0.931 . S
C4539 H4527 0.929 . S
C4539 C4533 1.390 . S
C4539 C4536 1.386 . S
C4540 C4535 1.490 . S
C4540 C4542 1.395 . S
C4540 C4543 1.403 . S
H4541 C4547 0.930 . S
C4542 H4528 0.930 . S
C4542 C4540 1.395 . S
C4542 C4545 1.403 . S
C4543 C4540 1.403 . S
C4543 C4544 1.524 . S
C4543 C4547 1.400 . S
C4544 H4529 0.960 . S
C4544 H4530 0.960 . S
C4544 H4531 0.960 . S
C4544 C4543 1.524 . S
C4545 C4542 1.403 . S
C4545 C4546 1.392 . S
C4545 C4549 1.495 . S
C4546 C4545 1.392 . S
C4546 C4547 1.385 . S
C4546 C4548 1.478 . S
C4547 H4541 0.930 . S
C4547 C4543 1.400 . S
C4547 C4546 1.385 . S
C4548 C4546 1.478 . S
C4548 C4550 1.381 . S
C4548 C4554 1.383 . S
C4549 C4545 1.495 . S
C4549 H4555 0.959 . S
C4549 H4556 0.961 . S
C4549 H4557 0.960 . S
C4550 C4548 1.381 . S
C4550 C4551 1.394 . S
C4550 H4558 0.930 . S
C4551 C4550 1.394 . S
C4551 C4552 1.383 . S
C4551 H4559 0.929 . S
C4552 C4551 1.383 . S
C4552 C4553 1.377 . S
C4553 H4537 0.930 . S
C4553 C4552 1.377 . S
C4553 C4554 1.379 . S
C4554 H4538 0.931 . S
C4554 C4548 1.383 . S
C4554 C4553 1.379 . S
H4555 C4549 0.959 . S
H4556 C4549 0.961 . S
H4557 C4549 0.960 . S
H4558 C4550 0.930 . S
H4559 C4551 0.929 . S
H4560 C4568 0.929 . S
H4561 C4570 0.930 . S
H4562 C4572 0.930 . S
H4563 C4575 0.929 . S
H4564 C4578 0.930 . S
H4565 C4580 0.960 . S
H4566 C4580 0.960 . S
H4567 C4580 0.960 . S
C4568 H4560 0.929 . S
C4568 C4569 1.377 . S
C4568 C4570 1.384 . S
C4569 C4568 1.377 . S
C4569 C4575 1.390 . S
C4570 H4561 0.930 . S
C4570 C4568 1.384 . S
C4570 C4571 1.372 . S
C4571 C4570 1.372 . S
C4571 C4572 1.400 . S
C4571 C4576 1.490 . S
C4572 H4562 0.930 . S
C4572 C4571 1.400 . S
C4572 C4575 1.386 . S
H4573 C4589 0.930 . S
H4574 C4590 0.931 . S
C4575 H4563 0.929 . S
C4575 C4569 1.390 . S
C4575 C4572 1.386 . S
C4576 C4571 1.490 . S
C4576 C4578 1.395 . S
C4576 C4579 1.403 . S
H4577 C4583 0.930 . S
C4578 H4564 0.930 . S
C4578 C4576 1.395 . S
C4578 C4581 1.403 . S
C4579 C4576 1.403 . S
C4579 C4580 1.524 . S
C4579 C4583 1.400 . S
C4580 H4565 0.960 . S
C4580 H4566 0.960 . S
C4580 H4567 0.960 . S
C4580 C4579 1.524 . S
C4581 C4578 1.403 . S
C4581 C4582 1.392 . S
C4581 C4585 1.495 . S
C4582 C4581 1.392 . S
C4582 C4583 1.385 . S
C4582 C4584 1.478 . S
C4583 H4577 0.930 . S
C4583 C4579 1.400 . S
C4583 C4582 1.385 . S
C4584 C4582 1.478 . S
C4584 C4586 1.381 . S
C4584 C4590 1.383 . S
C4585 C4581 1.495 . S
C4585 H4591 0.959 . S
C4585 H4592 0.961 . S
C4585 H4593 0.960 . S
C4586 C4584 1.381 . S
C4586 C4587 1.394 . S
C4586 H4594 0.930 . S
C4587 C4586 1.394 . S
C4587 C4588 1.383 . S
C4587 H4595 0.929 . S
C4588 C4587 1.383 . S
C4588 C4589 1.377 . S
C4589 H4573 0.930 . S
C4589 C4588 1.377 . S
C4589 C4590 1.379 . S
C4590 H4574 0.931 . S
C4590 C4584 1.383 . S
C4590 C4589 1.379 . S
H4591 C4585 0.959 . S
H4592 C4585 0.961 . S
H4593 C4585 0.960 . S
H4594 C4586 0.930 . S
H4595 C4587 0.929 . S
H4596 C4604 0.929 . S
H4597 C4606 0.930 . S
H4598 C4608 0.930 . S
H4599 C4611 0.929 . S
H4600 C4614 0.930 . S
H4601 C4616 0.960 . S
H4602 C4616 0.960 . S
H4603 C4616 0.960 . S
C4604 H4596 0.929 . S
C4604 C4605 1.377 . S
C4604 C4606 1.384 . S
C4605 C4604 1.377 . S
C4605 C4611 1.390 . S
C4606 H4597 0.930 . S
C4606 C4604 1.384 . S
C4606 C4607 1.372 . S
C4607 C4606 1.372 . S
C4607 C4608 1.400 . S
C4607 C4612 1.490 . S
C4608 H4598 0.930 . S
C4608 C4607 1.400 . S
C4608 C4611 1.386 . S
H4609 C4625 0.930 . S
H4610 C4626 0.931 . S
C4611 H4599 0.929 . S
C4611 C4605 1.390 . S
C4611 C4608 1.386 . S
C4612 C4607 1.490 . S
C4612 C4614 1.395 . S
C4612 C4615 1.403 . S
H4613 C4619 0.930 . S
C4614 H4600 0.930 . S
C4614 C4612 1.395 . S
C4614 C4617 1.403 . S
C4615 C4612 1.403 . S
C4615 C4616 1.524 . S
C4615 C4619 1.400 . S
C4616 H4601 0.960 . S
C4616 H4602 0.960 . S
C4616 H4603 0.960 . S
C4616 C4615 1.524 . S
C4617 C4614 1.403 . S
C4617 C4618 1.392 . S
C4617 C4621 1.495 . S
C4618 C4617 1.392 . S
C4618 C4619 1.385 . S
C4618 C4620 1.478 . S
C4619 H4613 0.930 . S
C4619 C4615 1.400 . S
C4619 C4618 1.385 . S
C4620 C4618 1.478 . S
C4620 C4622 1.381 . S
C4620 C4626 1.383 . S
C4621 C4617 1.495 . S
C4621 H4627 0.959 . S
C4621 H4628 0.961 . S
C4621 H4629 0.960 . S
C4622 C4620 1.381 . S
C4622 C4623 1.394 . S
C4622 H4630 0.930 . S
C4623 C4622 1.394 . S
C4623 C4624 1.383 . S
C4623 H4631 0.929 . S
C4624 C4623 1.383 . S
C4624 C4625 1.377 . S
C4625 H4609 0.930 . S
C4625 C4624 1.377 . S
C4625 C4626 1.379 . S
C4626 H4610 0.931 . S
C4626 C4620 1.383 . S
C4626 C4625 1.379 . S
H4627 C4621 0.959 . S
H4628 C4621 0.961 . S
H4629 C4621 0.960 . S
H4630 C4622 0.930 . S
H4631 C4623 0.929 . S
H4632 C4640 0.929 . S
H4633 C4642 0.930 . S
H4634 C4644 0.930 . S
H4635 C4647 0.929 . S
H4636 C4650 0.930 . S
H4637 C4652 0.960 1_455 S
H4638 C4652 0.960 . S
H4639 C4652 0.960 . S
C4640 H4632 0.929 . S
C4640 C4641 1.377 . S
C4640 C4642 1.384 . S
C4641 C4640 1.377 . S
C4641 C4647 1.390 . S
C4642 H4633 0.930 . S
C4642 C4640 1.384 . S
C4642 C4643 1.372 . S
C4643 C4642 1.372 . S
C4643 C4644 1.400 . S
C4643 C4648 1.490 . S
C4644 H4634 0.930 . S
C4644 C4643 1.400 . S
C4644 C4647 1.386 . S
H4645 C4661 0.930 . S
H4646 C4662 0.931 . S
C4647 H4635 0.929 . S
C4647 C4641 1.390 . S
C4647 C4644 1.386 . S
C4648 C4643 1.490 . S
C4648 C4650 1.395 . S
C4648 C4651 1.403 . S
H4649 C4655 0.930 1_455 S
C4650 H4636 0.930 . S
C4650 C4648 1.395 . S
C4650 C4653 1.403 . S
C4651 C4648 1.403 . S
C4651 C4652 1.524 . S
C4651 C4655 1.400 . S
C4652 H4637 0.960 1_655 S
C4652 H4638 0.960 . S
C4652 H4639 0.960 . S
C4652 C4651 1.524 . S
C4653 C4650 1.403 . S
C4653 C4654 1.392 . S
C4653 C4657 1.495 . S
C4654 C4653 1.392 . S
C4654 C4655 1.385 . S
C4654 C4656 1.478 . S
C4655 H4649 0.930 1_655 S
C4655 C4651 1.400 . S
C4655 C4654 1.385 . S
C4656 C4654 1.478 . S
C4656 C4658 1.381 . S
C4656 C4662 1.383 1_655 S
C4657 C4653 1.495 . S
C4657 H4663 0.959 . S
C4657 H4664 0.961 . S
C4657 H4665 0.960 . S
C4658 C4656 1.381 . S
C4658 C4659 1.394 1_655 S
C4658 H4666 0.930 . S
C4659 C4658 1.394 1_455 S
C4659 C4660 1.383 . S
C4659 H4667 0.929 . S
C4660 C4659 1.383 . S
C4660 C4661 1.377 . S
C4661 H4645 0.930 . S
C4661 C4660 1.377 . S
C4661 C4662 1.379 . S
C4662 H4646 0.931 . S
C4662 C4656 1.383 1_455 S
C4662 C4661 1.379 . S
H4663 C4657 0.959 . S
H4664 C4657 0.961 . S
H4665 C4657 0.960 . S
H4666 C4658 0.930 . S
H4667 C4659 0.929 . S
H4668 C4676 0.929 . S
H4669 C4678 0.930 . S
H4670 C4680 0.930 . S
H4671 C4683 0.929 . S
H4672 C4686 0.930 . S
H4673 C4688 0.960 . S
H4674 C4688 0.960 . S
H4675 C4688 0.960 . S
C4676 H4668 0.929 . S
C4676 C4677 1.377 . S
C4676 C4678 1.384 . S
C4677 C4676 1.377 . S
C4677 C4683 1.390 . S
C4678 H4669 0.930 . S
C4678 C4676 1.384 . S
C4678 C4679 1.372 . S
C4679 C4678 1.372 . S
C4679 C4680 1.400 . S
C4679 C4684 1.490 . S
C4680 H4670 0.930 . S
C4680 C4679 1.400 . S
C4680 C4683 1.386 . S
H4681 C4697 0.930 . S
H4682 C4698 0.931 . S
C4683 H4671 0.929 . S
C4683 C4677 1.390 . S
C4683 C4680 1.386 . S
C4684 C4679 1.490 . S
C4684 C4686 1.395 . S
C4684 C4687 1.403 . S
H4685 C4691 0.930 . S
C4686 H4672 0.930 . S
C4686 C4684 1.395 . S
C4686 C4689 1.403 . S
C4687 C4684 1.403 . S
C4687 C4688 1.524 . S
C4687 C4691 1.400 . S
C4688 H4673 0.960 . S
C4688 H4674 0.960 . S
C4688 H4675 0.960 . S
C4688 C4687 1.524 . S
C4689 C4686 1.403 . S
C4689 C4690 1.392 . S
C4689 C4693 1.495 . S
C4690 C4689 1.392 . S
C4690 C4691 1.385 . S
C4690 C4692 1.478 . S
C4691 H4685 0.930 . S
C4691 C4687 1.400 . S
C4691 C4690 1.385 . S
C4692 C4690 1.478 . S
C4692 C4694 1.381 . S
C4692 C4698 1.383 . S
C4693 C4689 1.495 . S
C4693 H4699 0.959 . S
C4693 H4700 0.961 . S
C4693 H4701 0.960 . S
C4694 C4692 1.381 . S
C4694 C4695 1.394 . S
C4694 H4702 0.930 . S
C4695 C4694 1.394 . S
C4695 C4696 1.383 . S
C4695 H4703 0.929 . S
C4696 C4695 1.383 . S
C4696 C4697 1.377 . S
C4697 H4681 0.930 . S
C4697 C4696 1.377 . S
C4697 C4698 1.379 . S
C4698 H4682 0.931 . S
C4698 C4692 1.383 . S
C4698 C4697 1.379 . S
H4699 C4693 0.959 . S
H4700 C4693 0.961 . S
H4701 C4693 0.960 . S
H4702 C4694 0.930 . S
H4703 C4695 0.929 . S
H4704 C4712 0.929 . S
H4705 C4714 0.930 . S
H4706 C4716 0.930 . S
H4707 C4719 0.929 . S
H4708 C4722 0.930 . S
H4709 C4724 0.960 . S
H4710 C4724 0.960 . S
H4711 C4724 0.960 . S
C4712 H4704 0.929 . S
C4712 C4713 1.377 . S
C4712 C4714 1.384 . S
C4713 C4712 1.377 . S
C4713 C4719 1.390 . S
C4714 H4705 0.930 . S
C4714 C4712 1.384 . S
C4714 C4715 1.372 . S
C4715 C4714 1.372 . S
C4715 C4716 1.400 . S
C4715 C4720 1.490 . S
C4716 H4706 0.930 . S
C4716 C4715 1.400 . S
C4716 C4719 1.386 . S
H4717 C4733 0.930 . S
H4718 C4734 0.931 . S
C4719 H4707 0.929 . S
C4719 C4713 1.390 . S
C4719 C4716 1.386 . S
C4720 C4715 1.490 . S
C4720 C4722 1.395 . S
C4720 C4723 1.403 . S
H4721 C4727 0.930 . S
C4722 H4708 0.930 . S
C4722 C4720 1.395 . S
C4722 C4725 1.403 . S
C4723 C4720 1.403 . S
C4723 C4724 1.524 . S
C4723 C4727 1.400 . S
C4724 H4709 0.960 . S
C4724 H4710 0.960 . S
C4724 H4711 0.960 . S
C4724 C4723 1.524 . S
C4725 C4722 1.403 . S
C4725 C4726 1.392 . S
C4725 C4729 1.495 . S
C4726 C4725 1.392 . S
C4726 C4727 1.385 . S
C4726 C4728 1.478 . S
C4727 H4721 0.930 . S
C4727 C4723 1.400 . S
C4727 C4726 1.385 . S
C4728 C4726 1.478 . S
C4728 C4730 1.381 . S
C4728 C4734 1.383 . S
C4729 C4725 1.495 . S
C4729 H4735 0.959 . S
C4729 H4736 0.961 . S
C4729 H4737 0.960 . S
C4730 C4728 1.381 . S
C4730 C4731 1.394 . S
C4730 H4738 0.930 . S
C4731 C4730 1.394 . S
C4731 C4732 1.383 . S
C4731 H4739 0.929 . S
C4732 C4731 1.383 . S
C4732 C4733 1.377 . S
C4733 H4717 0.930 . S
C4733 C4732 1.377 . S
C4733 C4734 1.379 . S
C4734 H4718 0.931 . S
C4734 C4728 1.383 . S
C4734 C4733 1.379 . S
H4735 C4729 0.959 . S
H4736 C4729 0.961 . S
H4737 C4729 0.960 . S
H4738 C4730 0.930 . S
H4739 C4731 0.929 . S
H4740 C4748 0.929 . S
H4741 C4750 0.930 . S
H4742 C4752 0.930 . S
H4743 C4755 0.929 . S
H4744 C4758 0.930 . S
H4745 C4760 0.960 . S
H4746 C4760 0.960 . S
H4747 C4760 0.960 . S
C4748 H4740 0.929 . S
C4748 C4749 1.377 . S
C4748 C4750 1.384 . S
C4749 C4748 1.377 . S
C4749 C4755 1.390 . S
C4750 H4741 0.930 . S
C4750 C4748 1.384 . S
C4750 C4751 1.372 . S
C4751 C4750 1.372 . S
C4751 C4752 1.400 . S
C4751 C4756 1.490 . S
C4752 H4742 0.930 . S
C4752 C4751 1.400 . S
C4752 C4755 1.386 . S
H4753 C4769 0.930 . S
H4754 C4770 0.931 . S
C4755 H4743 0.929 . S
C4755 C4749 1.390 . S
C4755 C4752 1.386 . S
C4756 C4751 1.490 . S
C4756 C4758 1.395 . S
C4756 C4759 1.403 . S
H4757 C4763 0.930 . S
C4758 H4744 0.930 . S
C4758 C4756 1.395 . S
C4758 C4761 1.403 . S
C4759 C4756 1.403 . S
C4759 C4760 1.524 . S
C4759 C4763 1.400 . S
C4760 H4745 0.960 . S
C4760 H4746 0.960 . S
C4760 H4747 0.960 . S
C4760 C4759 1.524 . S
C4761 C4758 1.403 . S
C4761 C4762 1.392 . S
C4761 C4765 1.495 . S
C4762 C4761 1.392 . S
C4762 C4763 1.385 . S
C4762 C4764 1.478 . S
C4763 H4757 0.930 . S
C4763 C4759 1.400 . S
C4763 C4762 1.385 . S
C4764 C4762 1.478 . S
C4764 C4766 1.381 . S
C4764 C4770 1.383 . S
C4765 C4761 1.495 . S
C4765 H4771 0.959 . S
C4765 H4772 0.961 . S
C4765 H4773 0.960 . S
C4766 C4764 1.381 . S
C4766 C4767 1.394 . S
C4766 H4774 0.930 . S
C4767 C4766 1.394 . S
C4767 C4768 1.383 . S
C4767 H4775 0.929 . S
C4768 C4767 1.383 . S
C4768 C4769 1.377 . S
C4769 H4753 0.930 . S
C4769 C4768 1.377 . S
C4769 C4770 1.379 . S
C4770 H4754 0.931 . S
C4770 C4764 1.383 . S
C4770 C4769 1.379 . S
H4771 C4765 0.959 . S
H4772 C4765 0.961 . S
H4773 C4765 0.960 . S
H4774 C4766 0.930 . S
H4775 C4767 0.929 . S
H4776 C4784 0.929 . S
H4777 C4786 0.930 . S
H4778 C4788 0.930 . S
H4779 C4791 0.929 . S
H4780 C4794 0.930 . S
H4781 C4796 0.960 . S
H4782 C4796 0.960 . S
H4783 C4796 0.960 . S
C4784 H4776 0.929 . S
C4784 C4785 1.377 . S
C4784 C4786 1.384 . S
C4785 C4784 1.377 . S
C4785 C4791 1.390 . S
C4786 H4777 0.930 . S
C4786 C4784 1.384 . S
C4786 C4787 1.372 . S
C4787 C4786 1.372 . S
C4787 C4788 1.400 . S
C4787 C4792 1.490 . S
C4788 H4778 0.930 . S
C4788 C4787 1.400 . S
C4788 C4791 1.386 . S
H4789 C4805 0.930 . S
H4790 C4806 0.931 . S
C4791 H4779 0.929 . S
C4791 C4785 1.390 . S
C4791 C4788 1.386 . S
C4792 C4787 1.490 . S
C4792 C4794 1.395 . S
C4792 C4795 1.403 . S
H4793 C4799 0.930 . S
C4794 H4780 0.930 . S
C4794 C4792 1.395 . S
C4794 C4797 1.403 . S
C4795 C4792 1.403 . S
C4795 C4796 1.524 . S
C4795 C4799 1.400 . S
C4796 H4781 0.960 . S
C4796 H4782 0.960 . S
C4796 H4783 0.960 . S
C4796 C4795 1.524 . S
C4797 C4794 1.403 . S
C4797 C4798 1.392 . S
C4797 C4801 1.495 1_655 S
C4798 C4797 1.392 . S
C4798 C4799 1.385 . S
C4798 C4800 1.478 . S
C4799 H4793 0.930 . S
C4799 C4795 1.400 . S
C4799 C4798 1.385 . S
C4800 C4798 1.478 . S
C4800 C4802 1.381 . S
C4800 C4806 1.383 . S
C4801 C4797 1.495 1_455 S
C4801 H4807 0.959 . S
C4801 H4808 0.961 . S
C4801 H4809 0.960 . S
C4802 C4800 1.381 . S
C4802 C4803 1.404 . S
C4802 H4810 0.930 . S
C4803 C4802 1.404 . S
C4803 C4804 1.377 1_655 S
C4803 H4811 0.926 1_655 S
C4804 C4803 1.377 1_455 S
C4804 C4805 1.377 1_455 S
C4805 H4789 0.930 . S
C4805 C4804 1.377 1_655 S
C4805 C4806 1.379 . S
C4806 H4790 0.931 . S
C4806 C4800 1.383 . S
C4806 C4805 1.379 . S
H4807 C4801 0.959 . S
H4808 C4801 0.961 . S
H4809 C4801 0.960 . S
H4810 C4802 0.930 . S
H4811 C4803 0.926 1_455 S
H4812 C4820 0.929 . S
H4813 C4822 0.930 . S
H4814 C4824 0.930 . S
H4815 C4827 0.929 . S
H4816 C4830 0.930 . S
H4817 C4832 0.960 . S
H4818 C4832 0.960 . S
H4819 C4832 0.960 . S
C4820 H4812 0.929 . S
C4820 C4821 1.377 . S
C4820 C4822 1.384 . S
C4821 C4820 1.377 . S
C4821 C4827 1.390 . S
C4822 H4813 0.930 . S
C4822 C4820 1.384 . S
C4822 C4823 1.372 . S
C4823 C4822 1.372 . S
C4823 C4824 1.400 . S
C4823 C4828 1.490 . S
C4824 H4814 0.930 . S
C4824 C4823 1.400 . S
C4824 C4827 1.386 . S
H4825 C4841 0.930 . S
H4826 C4842 0.931 . S
C4827 H4815 0.929 . S
C4827 C4821 1.390 . S
C4827 C4824 1.386 . S
C4828 C4823 1.490 . S
C4828 C4830 1.395 . S
C4828 C4831 1.403 . S
H4829 C4835 0.930 . S
C4830 H4816 0.930 . S
C4830 C4828 1.395 . S
C4830 C4833 1.403 . S
C4831 C4828 1.403 . S
C4831 C4832 1.524 . S
C4831 C4835 1.400 . S
C4832 H4817 0.960 . S
C4832 H4818 0.960 . S
C4832 H4819 0.960 . S
C4832 C4831 1.524 . S
C4833 C4830 1.403 . S
C4833 C4834 1.392 . S
C4833 C4837 1.495 . S
C4834 C4833 1.392 . S
C4834 C4835 1.385 . S
C4834 C4836 1.478 . S
C4835 H4829 0.930 . S
C4835 C4831 1.400 . S
C4835 C4834 1.385 . S
C4836 C4834 1.478 . S
C4836 C4838 1.381 . S
C4836 C4842 1.383 . S
C4837 C4833 1.495 . S
C4837 H4843 0.959 . S
C4837 H4844 0.961 . S
C4837 H4845 0.960 . S
C4838 C4836 1.381 . S
C4838 C4839 1.394 . S
C4838 H4846 0.930 . S
C4839 C4838 1.394 . S
C4839 C4840 1.383 . S
C4839 H4847 0.929 . S
C4840 C4839 1.383 . S
C4840 C4841 1.377 . S
C4841 H4825 0.930 . S
C4841 C4840 1.377 . S
C4841 C4842 1.379 . S
C4842 H4826 0.931 . S
C4842 C4836 1.383 . S
C4842 C4841 1.379 . S
H4843 C4837 0.959 . S
H4844 C4837 0.961 . S
H4845 C4837 0.960 . S
H4846 C4838 0.930 . S
H4847 C4839 0.929 . S
H4848 C4856 0.929 . S
H4849 C4858 0.930 . S
H4850 C4860 0.930 . S
H4851 C4863 0.929 . S
H4852 C4866 0.930 . S
H4853 C4868 0.960 . S
H4854 C4868 0.960 . S
H4855 C4868 0.960 . S
C4856 H4848 0.929 . S
C4856 C4857 1.377 . S
C4856 C4858 1.384 . S
C4857 C4856 1.377 . S
C4857 C4863 1.390 . S
C4858 H4849 0.930 . S
C4858 C4856 1.384 . S
C4858 C4859 1.372 . S
C4859 C4858 1.372 . S
C4859 C4860 1.400 . S
C4859 C4864 1.490 . S
C4860 H4850 0.930 . S
C4860 C4859 1.400 . S
C4860 C4863 1.386 . S
H4861 C4877 0.930 . S
H4862 C4878 0.931 . S
C4863 H4851 0.929 . S
C4863 C4857 1.390 . S
C4863 C4860 1.386 . S
C4864 C4859 1.490 . S
C4864 C4866 1.395 . S
C4864 C4867 1.403 . S
H4865 C4871 0.930 . S
C4866 H4852 0.930 . S
C4866 C4864 1.395 . S
C4866 C4869 1.403 . S
C4867 C4864 1.403 . S
C4867 C4868 1.524 . S
C4867 C4871 1.400 . S
C4868 H4853 0.960 . S
C4868 H4854 0.960 . S
C4868 H4855 0.960 . S
C4868 C4867 1.524 . S
C4869 C4866 1.403 . S
C4869 C4870 1.392 . S
C4869 C4873 1.495 . S
C4870 C4869 1.392 . S
C4870 C4871 1.385 . S
C4870 C4872 1.478 . S
C4871 H4865 0.930 . S
C4871 C4867 1.400 . S
C4871 C4870 1.385 . S
C4872 C4870 1.478 . S
C4872 C4874 1.381 . S
C4872 C4878 1.383 . S
C4873 C4869 1.495 . S
C4873 H4879 0.959 . S
C4873 H4880 0.961 . S
C4873 H4881 0.960 . S
C4874 C4872 1.381 . S
C4874 C4875 1.394 . S
C4874 H4882 0.930 . S
C4875 C4874 1.394 . S
C4875 C4876 1.383 . S
C4875 H4883 0.929 . S
C4876 C4875 1.383 . S
C4876 C4877 1.377 . S
C4877 H4861 0.930 . S
C4877 C4876 1.377 . S
C4877 C4878 1.379 . S
C4878 H4862 0.931 . S
C4878 C4872 1.383 . S
C4878 C4877 1.379 . S
H4879 C4873 0.959 . S
H4880 C4873 0.961 . S
H4881 C4873 0.960 . S
H4882 C4874 0.930 . S
H4883 C4875 0.929 . S
H4884 C4892 0.929 . S
H4885 C4894 0.930 . S
H4886 C4896 0.930 . S
H4887 C4899 0.929 . S
H4888 C4902 0.930 . S
H4889 C4904 0.960 . S
H4890 C4904 0.960 . S
H4891 C4904 0.960 . S
C4892 H4884 0.929 . S
C4892 C4893 1.377 . S
C4892 C4894 1.384 . S
C4893 C4892 1.377 . S
C4893 C4899 1.390 . S
C4894 H4885 0.930 . S
C4894 C4892 1.384 . S
C4894 C4895 1.372 . S
C4895 C4894 1.372 . S
C4895 C4896 1.400 . S
C4895 C4900 1.490 . S
C4896 H4886 0.930 . S
C4896 C4895 1.400 . S
C4896 C4899 1.386 . S
H4897 C4913 0.930 . S
H4898 C4914 0.897 1_545 S
C4899 H4887 0.929 . S
C4899 C4893 1.390 . S
C4899 C4896 1.386 . S
C4900 C4895 1.490 . S
C4900 C4902 1.395 . S
C4900 C4903 1.403 . S
H4901 C4907 0.930 . S
C4902 H4888 0.930 . S
C4902 C4900 1.395 . S
C4902 C4905 1.403 . S
C4903 C4900 1.403 . S
C4903 C4904 1.524 . S
C4903 C4907 1.400 . S
C4904 H4889 0.960 . S
C4904 H4890 0.960 . S
C4904 H4891 0.960 . S
C4904 C4903 1.524 . S
C4905 C4902 1.403 . S
C4905 C4906 1.392 . S
C4905 C4909 1.495 . S
C4906 C4905 1.392 . S
C4906 C4907 1.385 . S
C4906 C4908 1.478 . S
C4907 H4901 0.930 . S
C4907 C4903 1.400 . S
C4907 C4906 1.385 . S
C4908 C4906 1.478 . S
C4908 C4910 1.381 . S
C4908 C4914 1.442 . S
C4909 C4905 1.495 . S
C4909 H4915 0.959 . S
C4909 H4916 0.961 . S
C4909 H4917 0.960 . S
C4910 C4908 1.381 . S
C4910 C4911 1.394 . S
C4910 H4918 0.930 . S
C4911 C4910 1.394 . S
C4911 C4912 1.383 1_565 S
C4911 H4919 0.963 . S
C4912 C4911 1.383 1_545 S
C4912 C4913 1.377 . S
C4913 H4897 0.930 . S
C4913 C4912 1.377 . S
C4913 C4914 1.357 1_545 S
C4914 H4898 0.897 1_565 S
C4914 C4908 1.442 . S
C4914 C4913 1.357 1_565 S
H4915 C4909 0.959 . S
H4916 C4909 0.961 . S
H4917 C4909 0.960 . S
H4918 C4910 0.930 . S
H4919 C4911 0.963 . S
H4920 C4928 0.929 . S
H4921 C4930 0.930 . S
H4922 C4932 0.930 . S
H4923 C4935 0.929 . S
H4924 C4938 0.930 . S
H4925 C4940 0.960 . S
H4926 C4940 0.960 . S
H4927 C4940 0.960 . S
C4928 H4920 0.929 . S
C4928 C4929 1.377 . S
C4928 C4930 1.384 . S
C4929 C4928 1.377 . S
C4929 C4935 1.390 . S
C4930 H4921 0.930 . S
C4930 C4928 1.384 . S
C4930 C4931 1.372 . S
C4931 C4930 1.372 . S
C4931 C4932 1.400 . S
C4931 C4936 1.490 . S
C4932 H4922 0.930 . S
C4932 C4931 1.400 . S
C4932 C4935 1.386 . S
H4933 C4949 0.930 . S
H4934 C4950 0.931 . S
C4935 H4923 0.929 . S
C4935 C4929 1.390 . S
C4935 C4932 1.386 . S
C4936 C4931 1.490 . S
C4936 C4938 1.395 . S
C4936 C4939 1.403 . S
H4937 C4943 0.930 . S
C4938 H4924 0.930 . S
C4938 C4936 1.395 . S
C4938 C4941 1.403 . S
C4939 C4936 1.403 . S
C4939 C4940 1.524 . S
C4939 C4943 1.400 . S
C4940 H4925 0.960 . S
C4940 H4926 0.960 . S
C4940 H4927 0.960 . S
C4940 C4939 1.524 . S
C4941 C4938 1.403 . S
C4941 C4942 1.392 . S
C4941 C4945 1.495 . S
C4942 C4941 1.392 . S
C4942 C4943 1.385 . S
C4942 C4944 1.478 . S
C4943 H4937 0.930 . S
C4943 C4939 1.400 . S
C4943 C4942 1.385 . S
C4944 C4942 1.478 . S
C4944 C4946 1.381 . S
C4944 C4950 1.383 . S
C4945 C4941 1.495 . S
C4945 H4951 0.959 . S
C4945 H4952 0.961 . S
C4945 H4953 0.960 . S
C4946 C4944 1.381 . S
C4946 C4947 1.394 . S
C4946 H4954 0.930 . S
C4947 C4946 1.394 . S
C4947 C4948 1.383 . S
C4947 H4955 0.929 . S
C4948 C4947 1.383 . S
C4948 C4949 1.377 . S
C4949 H4933 0.930 . S
C4949 C4948 1.377 . S
C4949 C4950 1.379 . S
C4950 H4934 0.931 . S
C4950 C4944 1.383 . S
C4950 C4949 1.379 . S
H4951 C4945 0.959 . S
H4952 C4945 0.961 . S
H4953 C4945 0.960 . S
H4954 C4946 0.930 . S
H4955 C4947 0.929 . S
H4956 C4964 0.929 . S
H4957 C4966 0.930 . S
H4958 C4968 0.930 . S
H4959 C4971 0.929 . S
H4960 C4974 0.930 . S
H4961 C4976 0.960 . S
H4962 C4976 0.960 . S
H4963 C4976 0.960 . S
C4964 H4956 0.929 . S
C4964 C4965 1.377 . S
C4964 C4966 1.384 . S
C4965 C4964 1.377 . S
C4965 C4971 1.390 . S
C4966 H4957 0.930 . S
C4966 C4964 1.384 . S
C4966 C4967 1.372 . S
C4967 C4966 1.372 . S
C4967 C4968 1.400 . S
C4967 C4972 1.490 . S
C4968 H4958 0.930 . S
C4968 C4967 1.400 . S
C4968 C4971 1.386 . S
H4969 C4985 0.930 1_556 S
H4970 C4986 0.931 1_556 S
C4971 H4959 0.929 . S
C4971 C4965 1.390 . S
C4971 C4968 1.386 . S
C4972 C4967 1.490 . S
C4972 C4974 1.395 . S
C4972 C4975 1.403 . S
H4973 C4979 0.930 . S
C4974 H4960 0.930 . S
C4974 C4972 1.395 . S
C4974 C4977 1.403 . S
C4975 C4972 1.403 . S
C4975 C4976 1.524 . S
C4975 C4979 1.400 . S
C4976 H4961 0.960 . S
C4976 H4962 0.960 . S
C4976 H4963 0.960 . S
C4976 C4975 1.524 . S
C4977 C4974 1.403 . S
C4977 C4978 1.392 . S
C4977 C4981 1.495 . S
C4978 C4977 1.392 . S
C4978 C4979 1.385 . S
C4978 C4980 1.478 . S
C4979 H4973 0.930 . S
C4979 C4975 1.400 . S
C4979 C4978 1.385 . S
C4980 C4978 1.478 . S
C4980 C4982 1.381 . S
C4980 C4986 1.383 . S
C4981 C4977 1.495 . S
C4981 H4987 0.959 1_554 S
C4981 H4988 0.961 1_554 S
C4981 H4989 0.960 . S
C4982 C4980 1.381 . S
C4982 C4983 1.394 . S
C4982 H4990 0.930 . S
C4983 C4982 1.394 . S
C4983 C4984 1.383 . S
C4983 H4991 0.929 . S
C4984 C4983 1.383 . S
C4984 C4985 1.377 . S
C4985 H4969 0.930 1_554 S
C4985 C4984 1.377 . S
C4985 C4986 1.379 . S
C4986 H4970 0.931 1_554 S
C4986 C4980 1.383 . S
C4986 C4985 1.379 . S
H4987 C4981 0.959 1_556 S
H4988 C4981 0.961 1_556 S
H4989 C4981 0.960 . S
H4990 C4982 0.930 . S
H4991 C4983 0.929 . S
H4992 C5000 0.929 . S
H4993 C5002 0.930 . S
H4994 C5004 0.930 . S
H4995 C5007 0.929 . S
H4996 C5010 0.930 . S
H4997 C5012 0.960 . S
H4998 C5012 0.960 . S
H4999 C5012 0.960 . S
C5000 H4992 0.929 . S
C5000 C5001 1.377 . S
C5000 C5002 1.384 . S
C5001 C5000 1.377 . S
C5001 C5007 1.390 . S
C5002 H4993 0.930 . S
C5002 C5000 1.384 . S
C5002 C5003 1.372 . S
C5003 C5002 1.372 . S
C5003 C5004 1.400 . S
C5003 C5008 1.490 . S
C5004 H4994 0.930 . S
C5004 C5003 1.400 . S
C5004 C5007 1.386 . S
H5005 C5021 0.930 . S
H5006 C5022 0.931 . S
C5007 H4995 0.929 . S
C5007 C5001 1.390 . S
C5007 C5004 1.386 . S
C5008 C5003 1.490 . S
C5008 C5010 1.395 . S
C5008 C5011 1.403 . S
H5009 C5015 0.930 . S
C5010 H4996 0.930 . S
C5010 C5008 1.395 . S
C5010 C5013 1.403 . S
C5011 C5008 1.403 . S
C5011 C5012 1.524 . S
C5011 C5015 1.400 . S
C5012 H4997 0.960 . S
C5012 H4998 0.960 . S
C5012 H4999 0.960 . S
C5012 C5011 1.524 . S
C5013 C5010 1.403 . S
C5013 C5014 1.392 . S
C5013 C5017 1.495 . S
C5014 C5013 1.392 . S
C5014 C5015 1.385 . S
C5014 C5016 1.478 . S
C5015 H5009 0.930 . S
C5015 C5011 1.400 . S
C5015 C5014 1.385 . S
C5016 C5014 1.478 . S
C5016 C5018 1.381 . S
C5016 C5022 1.383 . S
C5017 C5013 1.495 . S
C5017 H5023 0.959 . S
C5017 H5024 0.961 . S
C5017 H5025 0.960 . S
C5018 C5016 1.381 . S
C5018 C5019 1.394 . S
C5018 H5026 0.930 . S
C5019 C5018 1.394 . S
C5019 C5020 1.383 . S
C5019 H5027 0.929 . S
C5020 C5019 1.383 . S
C5020 C5021 1.377 . S
C5021 H5005 0.930 . S
C5021 C5020 1.377 . S
C5021 C5022 1.379 . S
C5022 H5006 0.931 . S
C5022 C5016 1.383 . S
C5022 C5021 1.379 . S
H5023 C5017 0.959 . S
H5024 C5017 0.961 . S
H5025 C5017 0.960 . S
H5026 C5018 0.930 . S
H5027 C5019 0.929 . S
H5028 C5036 0.929 . S
H5029 C5038 0.930 . S
H5030 C5040 0.930 . S
H5031 C5043 0.929 . S
H5032 C5046 0.930 . S
H5033 C5048 0.960 . S
H5034 C5048 0.960 1_554 S
H5035 C5048 0.960 . S
C5036 H5028 0.929 . S
C5036 C5037 1.377 . S
C5036 C5038 1.384 . S
C5037 C5036 1.377 . S
C5037 C5043 1.390 . S
C5038 H5029 0.930 . S
C5038 C5036 1.384 . S
C5038 C5039 1.372 . S
C5039 C5038 1.372 . S
C5039 C5040 1.400 . S
C5039 C5044 1.490 . S
C5040 H5030 0.930 . S
C5040 C5039 1.400 . S
C5040 C5043 1.386 . S
H5041 C5057 0.930 1_556 S
H5042 C5058 0.958 . S
C5043 H5031 0.929 . S
C5043 C5037 1.390 . S
C5043 C5040 1.386 . S
C5044 C5039 1.490 . S
C5044 C5046 1.395 . S
C5044 C5047 1.403 . S
H5045 C5051 0.958 . S
C5046 H5032 0.930 . S
C5046 C5044 1.395 . S
C5046 C5049 1.403 . S
C5047 C5044 1.403 . S
C5047 C5048 1.524 1_554 S
C5047 C5051 1.400 . S
C5048 H5033 0.960 . S
C5048 H5034 0.960 1_556 S
C5048 H5035 0.960 . S
C5048 C5047 1.524 1_556 S
C5049 C5046 1.403 . S
C5049 C5050 1.392 . S
C5049 C5053 1.495 . S
C5050 C5049 1.392 . S
C5050 C5051 1.385 . S
C5050 C5052 1.478 . S
C5051 H5045 0.958 . S
C5051 C5047 1.400 . S
C5051 C5050 1.385 . S
C5052 C5050 1.478 . S
C5052 C5054 1.381 . S
C5052 C5058 1.383 . S
C5053 C5049 1.495 . S
C5053 H5059 0.959 . S
C5053 H5060 0.961 . S
C5053 H5061 0.960 . S
C5054 C5052 1.381 . S
C5054 C5055 1.394 . S
C5054 H5062 0.930 . S
C5055 C5054 1.394 . S
C5055 C5056 1.383 . S
C5055 H5063 0.929 . S
C5056 C5055 1.383 . S
C5056 C5057 1.377 . S
C5057 H5041 0.930 1_554 S
C5057 C5056 1.377 . S
C5057 C5058 1.379 . S
C5058 H5042 0.958 . S
C5058 C5052 1.383 . S
C5058 C5057 1.379 . S
H5059 C5053 0.959 . S
H5060 C5053 0.961 . S
H5061 C5053 0.960 . S
H5062 C5054 0.930 . S
H5063 C5055 0.929 . S
H5064 C5072 0.929 . S
H5065 C5074 0.930 . S
H5066 C5076 0.930 . S
H5067 C5079 0.929 1_545 S
H5068 C5082 0.930 . S
H5069 C5084 0.960 . S
H5070 C5084 0.960 . S
H5071 C5084 0.960 . S
C5072 H5064 0.929 . S
C5072 C5073 1.378 1_565 S
C5072 C5074 1.384 . S
C5073 C5072 1.378 1_545 S
C5073 C5079 1.390 1_545 S
C5074 H5065 0.930 . S
C5074 C5072 1.384 . S
C5074 C5075 1.372 . S
C5075 C5074 1.372 . S
C5075 C5076 1.400 . S
C5075 C5080 1.490 . S
C5076 H5066 0.930 . S
C5076 C5075 1.400 . S
C5076 C5079 1.386 . S
H5077 C5093 0.930 . S
H5078 C5094 0.931 . S
C5079 H5067 0.929 1_565 S
C5079 C5073 1.390 1_565 S
C5079 C5076 1.386 . S
C5080 C5075 1.490 . S
C5080 C5082 1.395 . S
C5080 C5083 1.403 . S
H5081 C5087 0.930 . S
C5082 H5068 0.930 . S
C5082 C5080 1.395 . S
C5082 C5085 1.403 . S
C5083 C5080 1.403 . S
C5083 C5084 1.524 . S
C5083 C5087 1.400 . S
C5084 H5069 0.960 . S
C5084 H5070 0.960 . S
C5084 H5071 0.960 . S
C5084 C5083 1.524 . S
C5085 C5082 1.403 . S
C5085 C5086 1.392 . S
C5085 C5089 1.495 . S
C5086 C5085 1.392 . S
C5086 C5087 1.385 . S
C5086 C5088 1.478 . S
C5087 H5081 0.930 . S
C5087 C5083 1.400 . S
C5087 C5086 1.385 . S
C5088 C5086 1.478 . S
C5088 C5090 1.381 . S
C5088 C5094 1.383 . S
C5089 C5085 1.495 . S
C5089 H5095 0.959 . S
C5089 H5096 0.961 . S
C5089 H5097 0.960 . S
C5090 C5088 1.381 . S
C5090 C5091 1.394 . S
C5090 H5098 0.930 . S
C5091 C5090 1.394 . S
C5091 C5092 1.383 . S
C5091 H5099 0.929 . S
C5092 C5091 1.383 . S
C5092 C5093 1.377 . S
C5093 H5077 0.930 . S
C5093 C5092 1.377 . S
C5093 C5094 1.379 . S
C5094 H5078 0.931 . S
C5094 C5088 1.383 . S
C5094 C5093 1.379 . S
H5095 C5089 0.959 . S
H5096 C5089 0.961 . S
H5097 C5089 0.960 . S
H5098 C5090 0.930 . S
H5099 C5091 0.929 . S
H5100 C5108 0.929 . S
H5101 C5110 0.930 . S
H5102 C5112 0.930 . S
H5103 C5115 0.929 . S
H5104 C5118 0.930 . S
H5105 C5120 0.960 . S
H5106 C5120 0.960 . S
H5107 C5120 0.960 . S
C5108 H5100 0.929 . S
C5108 C5109 1.377 . S
C5108 C5110 1.384 . S
C5109 C5108 1.377 . S
C5109 C5115 1.390 . S
C5110 H5101 0.930 . S
C5110 C5108 1.384 . S
C5110 C5111 1.372 . S
C5111 C5110 1.372 . S
C5111 C5112 1.400 . S
C5111 C5116 1.490 . S
C5112 H5102 0.930 . S
C5112 C5111 1.400 . S
C5112 C5115 1.386 . S
H5113 C5129 0.930 . S
H5114 C5130 0.931 . S
C5115 H5103 0.929 . S
C5115 C5109 1.390 . S
C5115 C5112 1.386 . S
C5116 C5111 1.490 . S
C5116 C5118 1.395 . S
C5116 C5119 1.403 . S
H5117 C5123 0.930 . S
C5118 H5104 0.930 . S
C5118 C5116 1.395 . S
C5118 C5121 1.403 . S
C5119 C5116 1.403 . S
C5119 C5120 1.524 . S
C5119 C5123 1.400 . S
C5120 H5105 0.960 . S
C5120 H5106 0.960 . S
C5120 H5107 0.960 . S
C5120 C5119 1.524 . S
C5121 C5118 1.403 . S
C5121 C5122 1.392 . S
C5121 C5125 1.495 . S
C5122 C5121 1.392 . S
C5122 C5123 1.385 . S
C5122 C5124 1.478 . S
C5123 H5117 0.930 . S
C5123 C5119 1.400 . S
C5123 C5122 1.385 . S
C5124 C5122 1.478 . S
C5124 C5126 1.381 . S
C5124 C5130 1.383 . S
C5125 C5121 1.495 . S
C5125 H5131 0.959 . S
C5125 H5132 0.961 . S
C5125 H5133 0.960 . S
C5126 C5124 1.381 . S
C5126 C5127 1.394 . S
C5126 H5134 0.930 . S
C5127 C5126 1.394 . S
C5127 C5128 1.383 . S
C5127 H5135 0.929 . S
C5128 C5127 1.383 . S
C5128 C5129 1.377 . S
C5129 H5113 0.930 . S
C5129 C5128 1.377 . S
C5129 C5130 1.379 . S
C5130 H5114 0.931 . S
C5130 C5124 1.383 . S
C5130 C5129 1.379 . S
H5131 C5125 0.959 . S
H5132 C5125 0.961 . S
H5133 C5125 0.960 . S
H5134 C5126 0.930 . S
H5135 C5127 0.929 . S
C1689 C105 1.645 . S
C1708 C392 1.488 . S
C1725 C65 2.235 . S
C1744 C483 2.165 . S
C1761 C73 1.454 . S
C1780 C560 1.369 . S
C1816 C658 1.588 . S
C1797 C92 1.710 . S
C1833 C17 1.654 . S
C1852 C742 1.591 . S
C1888 C814 0.901 . S
C1869 C37 0.943 . S
C1924 C903 0.735 . S
C1905 C49 0.702 . S
C1941 C8 1.303 . S
C1960 C980 1.119 . S
C1996 C399 1.928 . S
C1977 C231 2.003 . S
C2013 C241 0.594 . S
C2032 C490 0.568 . S
C2068 C567 1.234 . S
C2049 C273 1.207 . S
C2104 C644 1.478 . S
C2085 C171 1.563 1_556 S
C2121 C227 2.032 . S
C2140 C728 1.839 . S
C2176 C830 1.031 . S
C2157 C245 1.116 . S
C2212 C910 0.699 . S
C2193 C269 0.744 . S
C2248 C987 1.361 . S
C2229 C175 1.424 . S
C2284 C406 1.433 . S
C2265 C162 1.539 . S
C2301 C289 2.053 . S
C2320 C1071 1.944 . S
C2356 C1159 2.167 . S
C2337 C330 2.320 . S
C2392 C1232 0.446 . S
C2373 C317 0.357 . S
C2409 C120 0.685 . S
C2428 C994 0.647 . S
C2445 C134 1.463 . S
C2464 C574 1.433 . S
C2481 C331 2.320 . S
C2500 C1323 2.222 . S
C2536 C1400 0.735 . S
C2517 C303 0.611 . S
C2572 C403 1.532 1_565 S
C2553 C59 1.663 . S
C2608 C1418 2.200 . S
C2589 C107 2.265 . S
C2625 C91 1.511 . S
C2644 C571 1.406 . S
C2661 C78 1.752 . S
C2680 C1318 1.610 . S
C2716 C730 1.575 . S
C2697 C7 1.613 . S
C2733 C51 0.980 . S
C2752 C1162 0.863 . S
C2788 C914 0.787 1_566 S
C2769 C31 0.753 . S
C2824 C1495 1.156 . S
C2805 C22 1.316 . S
C2860 C410 2.008 . S
C2841 C143 2.091 . S
C2896 C1402 0.594 . S
C2877 C315 0.652 . S
C2913 C115 1.283 . S
C2932 C578 1.198 . S
C2949 C287 1.598 . S
C2968 C1327 1.504 . S
C2985 C147 1.986 . S
C3004 C739 1.933 . S
C3040 C1155 1.147 . S
C3021 C311 1.185 . S
C3057 C119 0.776 . S
C3076 C898 0.816 . S
C3093 C283 1.482 . S
C3112 C1502 1.357 . S
C3129 C190 1.557 . S
C3148 C394 1.462 . S
C3165 C177 2.086 . S
C3184 C1082 1.997 . S
C3201 C260 2.357 . S
C3220 C812 2.174 . S
C3237 C247 0.422 . S
C3256 C1243 0.595 . S
C3292 C1486 0.629 . S
C3273 C274 0.733 . S
C3309 C218 1.481 . S
C3328 C562 1.406 . S
C3364 C662 2.289 . S
C3345 C261 2.365 . S
C3400 C487 0.615 . S
C3381 C205 0.669 . S
C3417 C77 1.649 . S
C3436 C1568 1.542 . S
C3472 C1407 2.153 . S
C3453 C93 2.238 . S
C3489 C101 1.449 . S
C3508 C1652 1.407 . S
C3525 C64 1.712 . S
C3544 C1330 1.561 . S
C3561 C45 1.655 . S
C3580 C1078 1.556 . S
C3616 C1150 0.869 . S
C3597 C9 0.940 . S
C3652 C1239 0.657 . S
C3633 C21 0.733 . S
C3688 C1484 1.216 . S
C3669 C36 1.304 . S
C3724 C1575 1.955 . S
C3705 C259 1.997 . S
C3741 C185 0.590 . S
C3760 C1414 0.719 . S
C3796 C1659 1.172 . S
C3777 C203 1.194 . S
C3832 C1316 1.469 . S
C3813 C213 1.563 . S
C3868 C1064 1.895 . S
C3849 C255 2.031 . S
C3885 C189 1.127 . S
C3904 C1166 1.117 . S
C3940 C1246 0.679 . S
C3921 C199 0.744 . S
C3957 C217 1.417 . S
C3976 C1491 1.357 . S
C4012 C1582 1.444 . S
C3993 C316 1.538 . S
C4029 C135 2.053 . S
C4048 C735 1.946 . S
C4084 C823 2.127 . S
C4065 C148 2.324 . S
C4120 C896 0.601 . S
C4101 C163 0.335 . S
C4156 C1498 0.678 . S
C4137 C302 0.683 . S
C4173 C288 1.462 1_554 S
C4192 C1666 1.374 . S
C4228 C651 2.244 . S
C4209 C149 2.314 . S
C4264 C476 0.615 . S
C4245 C121 0.618 . S
C4281 C87 1.663 . S
C4300 C1579 1.530 . S
C4336 C494 2.208 . S
C4317 C79 2.268 . S
C4353 C63 1.511 . S
C4372 C1663 1.407 . S
C4389 C106 1.752 . S
C4408 C646 1.612 . S
C4425 C35 1.611 . S
C4444 C1066 1.606 . S
C4480 C826 0.985 . S
C4461 C23 0.980 . S
C4497 C3 0.757 . S
C4516 C1250 0.712 . S
C4533 C50 1.315 . S
C4552 C991 1.176 . S
C4588 C1586 1.981 . S
C4569 C325 2.090 . S
C4605 C161 0.659 . S
C4624 C478 0.695 . S
C4660 C1670 1.212 . S
C4641 C297 1.283 . S
C4677 C133 1.595 . S
C4696 C655 1.518 . S
C4713 C329 1.977 . S
C4732 C1075 1.889 . S
C4768 C819 1.070 . S
C4749 C157 1.184 . S
C4785 C301 0.793 . S
C4804 C1234 0.756 . S
C4840 C998 1.352 . S
C4821 C129 1.482 . S
C4876 C1570 1.471 . S
C4857 C246 1.555 . S
C4912 C746 1.990 1_655 S
C4893 C219 2.088 . S
C4929 C232 2.356 . S
C4948 C1148 2.212 . S
C4984 C907 0.431 . S
C4965 C191 0.410 . S
C5001 C204 0.667 . S
C5020 C982 0.732 . S
C5037 C176 1.480 . S
C5056 C1654 1.433 . S
C5092 C1334 2.283 . S
C5073 C233 2.364 . S
C5128 C1411 0.615 . S
C5109 C275 0.668 . S
