# Generated by pormake.
# Topology pts, (4,4)-cn, num edge types: 1
# Building blocks:
#     Node 0, Type 0, BuildingBlock: ESEHIV_clean_sbu_0, # of connection points: 4
#     Node 1, Type 0, BuildingBlock: ESEHIV_clean_sbu_0, # of connection points: 4
#     Node 2, Type 1, BuildingBlock: AZAVOO_clean_sbu_0, # of connection points: 4
#     Node 3, Type 1, BuildingBlock: AZAVOO_clean_sbu_0, # of connection points: 4
#     Edge 4, Type (0, 1), BuildingBlock: XUDNAN_clean_linker_2, # of connection points: 2
#     Edge 5, Type (0, 1), BuildingBlock: XUDNAN_clean_linker_2, # of connection points: 2
#     Edge 6, Type (0, 1), BuildingBlock: XUDNAN_clean_linker_2, # of connection points: 2
#     Edge 7, Type (0, 1), BuildingBlock: XUDNAN_clean_linker_2, # of connection points: 2
#     Edge 8, Type (0, 1), BuildingBlock: XUDNAN_clean_linker_2, # of connection points: 2
#     Edge 9, Type (0, 1), BuildingBlock: XUDNAN_clean_linker_2, # of connection points: 2
#     Edge 10, Type (0, 1), BuildingBlock: XUDNAN_clean_linker_2, # of connection points: 2
#     Edge 11, Type (0, 1), BuildingBlock: XUDNAN_clean_linker_2, # of connection points: 2
# Relax obj value: 0.001
# Max RMSD: 0.095
# Mean RMSD: 0.062
data_MOF--net-pts--node1-ESEHIV_clean_sbu_0--node2-AZAVOO_clean_sbu_0--edge1-XUDNAN_clean_linker_2
_symmetry_space_group_name_H-M    P1
_symmetry_Int_Tables_number       1
_symmetry_cell_setting            triclinic
loop_
_symmetry_equiv_pos_as_xyz
'x, y, z'
_cell_length_a     24.252479
_cell_length_b     25.227991
_cell_length_c     37.83927
_cell_angle_alpha  93.581809
_cell_angle_beta   100.59878
_cell_angle_gamma 89.653827
loop_
_atom_site_label
_atom_site_type_symbol
_atom_site_fract_x
_atom_site_fract_y
_atom_site_fract_z
_atom_type_partial_charge
Cu0 Cu 0.56764 0.07341 0.0284 0.0
N1 N 0.61755 0.03386 1.00524 0.0
N2 N 0.68525 0.02714 0.97217 0.0
C3 C 0.63719 0.05144 0.97705 0.0
C4 C 0.69507 0.99142 0.99777 0.0
C5 C 0.65342 0.99592 0.01828 0.0
O6 O 0.61246 0.11848 0.06663 0.0
C7 C 0.49066 0.07691 0.96614 0.0
O8 O 0.50905 0.02799 0.96357 0.0
H9 H 0.61909 0.08497 0.96269 0.0
H10 H 0.65255 0.97682 0.04298 0.0
N11 N 0.52317 0.03403 0.05232 0.0
N12 N 0.45636 0.02508 0.08521 0.0
C13 C 0.49066 0.05881 0.07324 0.0
C14 C 0.50922 0.9823 0.05059 0.0
C15 C 0.46785 0.97661 0.071 0.0
C16 C 0.66408 0.12908 0.06768 0.0
O17 O 0.68455 0.12399 0.03787 0.0
H18 H 0.49041 0.10155 0.07795 0.0
H19 H 0.52637 0.95138 0.03474 0.0
O20 O 0.51331 0.10781 0.99276 0.0
H21 H 0.73231 0.96729 1.00348 0.0
H22 H 0.44736 0.93985 0.07455 0.0
Cu23 Cu 0.11169 0.57695 0.52958 0.0
N24 N 0.154 0.5428 0.56762 0.0
N25 N 0.16814 0.48725 0.61197 0.0
C26 C 0.138 0.49727 0.57951 0.0
C27 C 0.20474 0.52804 0.62099 0.0
C28 C 0.19602 0.56231 0.59341 0.0
O29 O 0.06978 0.52333 0.49643 0.0
C30 C 0.09222 0.67088 0.56557 0.0
O31 O 0.14502 0.67713 0.56299 0.0
H32 H 0.10194 0.47413 0.56594 0.0
H33 H 0.21632 0.60032 0.59327 0.0
N34 N 0.15505 0.61259 0.50263 0.0
N35 N 0.17279 0.66538 0.46092 0.0
C36 C 0.13527 0.65116 0.48079 0.0
C37 C 0.20708 0.60207 0.49651 0.0
C38 C 0.21806 0.63455 0.47051 0.0
C39 C 0.10011 0.48706 0.4851 0.0
O40 O 0.15448 0.48793 0.49694 0.0
H41 H 0.09309 0.66666 0.47828 0.0
H42 H 0.23415 0.57164 0.50903 0.0
O43 O 0.06642 0.62871 0.55143 0.0
H44 H 0.23399 0.53368 0.64625 0.0
H45 H 0.25581 0.63481 0.45907 0.0
Mg46 Mg 0.10636 0.05832 0.28968 0.0
O47 O 1.01477 0.05869 0.25893 0.0
O48 O 0.96259 0.04471 0.30046 0.0
Mg49 Mg 1.0181 0.0277 0.3544 0.0
C50 C 0.96702 0.05496 0.26844 0.0
C51 C 0.14521 0.06223 0.21667 0.0
O52 O 0.11881 0.01635 0.21284 0.0
O53 O 0.09009 0.13915 0.31667 0.0
O54 O 0.04343 0.1163 0.35939 0.0
O55 O 0.11679 0.97159 0.27838 0.0
O56 O 0.08694 1.00585 0.32631 0.0
C57 C 0.06684 0.15119 0.34382 0.0
C58 C 0.09978 0.96421 0.30812 0.0
O59 O 0.14149 0.09337 0.24395 0.0
Mg60 Mg 1.01033 0.07001 0.74995 0.0
O61 O 0.09571 0.06495 0.78794 0.0
O62 O 0.16031 0.04792 0.75359 0.0
Mg63 Mg 0.11667 0.03762 0.69445 0.0
C64 C 0.14667 0.05793 0.78435 0.0
C65 C 0.96654 0.06939 0.82045 0.0
O66 O 0.9945 0.02476 0.81925 0.0
O67 O 0.03794 0.15177 0.73538 0.0
O68 O 0.09547 0.12624 0.69741 0.0
O69 O 0.9926 0.98247 0.7485 0.0
O70 O 0.03741 0.01943 0.71079 0.0
C71 C 0.06933 0.16225 0.71291 0.0
C72 C 1.01812 0.97703 0.7214 0.0
O73 O 0.96847 0.10212 0.79639 0.0
H74 H 0.36097 0.97001 0.08955 0.0
H75 H 0.45579 0.11363 0.12987 0.0
H76 H 0.38165 0.1426 0.16294 0.0
H77 H 0.22272 0.02796 0.07958 0.0
H78 H 0.19116 0.97145 0.09515 0.0
H79 H 0.25056 0.9624 0.07299 0.0
H80 H 0.30489 0.91575 0.1279 0.0
H81 H 0.24538 0.92399 0.14995 0.0
H82 H 0.31321 0.94906 0.17214 0.0
H83 H 0.29814 0.15605 0.19262 0.0
H84 H 0.2154 0.1484 0.22149 0.0
H85 H 0.17536 0.99544 0.1634 0.0
C86 C 0.36638 0.00739 0.10545 0.0
C87 C 0.41414 0.03981 0.10644 0.0
C88 C 0.4192 0.08853 0.12774 0.0
C89 C 0.37728 0.10539 0.14681 0.0
C90 C 0.33038 0.07307 0.14464 0.0
C91 C 0.32492 0.02481 0.12488 0.0
C92 C 0.27137 0.99663 0.12849 0.0
C93 C 0.23161 0.98919 0.09187 0.0
C94 C 0.28452 0.94321 0.14565 0.0
C95 C 0.24808 0.03637 0.15365 0.0
C96 C 0.28248 0.08045 0.16231 0.0
C97 C 0.27072 0.12179 0.18597 0.0
C98 C 0.22345 0.11719 0.20214 0.0
C99 C 0.18868 0.07143 0.19473 0.0
C100 C 0.20066 0.03121 0.16945 0.0
H101 H 0.14289 0.38538 0.5896 0.0
H102 H 0.16686 0.49557 0.68362 0.0
H103 H 0.13888 0.42529 0.71997 0.0
H104 H 0.02325 0.31679 0.60691 0.0
H105 H 0.04522 0.25252 0.59126 0.0
H106 H 0.06656 0.3116 0.5729 0.0
H107 H 0.17087 0.28513 0.59059 0.0
H108 H 0.14995 0.2256 0.60857 0.0
H109 H 0.19876 0.27117 0.63658 0.0
H110 H 0.10353 0.34275 0.74499 0.0
H111 H 0.07711 0.25223 0.75848 0.0
H112 H 0.08186 0.19651 0.64835 0.0
C113 C 0.14237 0.39448 0.61788 0.0
C114 C 0.15683 0.44564 0.63393 0.0
C115 C 0.15634 0.45632 0.67104 0.0
C116 C 0.14003 0.41686 0.69172 0.0
C117 C 0.12509 0.36689 0.67488 0.0
C118 C 0.12715 0.35545 0.63891 0.0
C119 C 0.11142 0.29826 0.62741 0.0
C120 C 0.05846 0.29462 0.59788 0.0
C121 C 0.1607 0.26828 0.61508 0.0
C122 C 0.10002 0.27918 0.66249 0.0
C123 C 0.1072 0.31939 0.68948 0.0
C124 C 0.09813 0.31091 0.7241 0.0
C125 C 0.08277 0.25962 0.73148 0.0
C126 C 0.07773 0.21761 0.70449 0.0
C127 C 0.08577 0.22793 0.66955 0.0
H128 H 0.77922 0.12407 0.08 0.0
H129 H 0.63708 0.13569 0.13507 0.0
H130 H 0.70006 0.12055 0.19255 0.0
H131 H 0.84474 0.01944 0.1259 0.0
H132 H 0.91563 0.04259 0.12852 0.0
H133 H 0.86138 0.06118 0.09229 0.0
H134 H 0.88379 0.16077 0.1093 0.0
H135 H 0.93895 0.14252 0.14519 0.0
H136 H 0.88428 0.18683 0.15482 0.0
H137 H 0.77576 0.09377 0.24235 0.0
H138 H 0.86102 0.06665 0.28293 0.0
H139 H 0.95509 0.07285 0.19597 0.0
C140 C 0.76147 0.12508 0.10429 0.0
C141 C 0.70305 0.13134 0.10294 0.0
C142 C 0.68161 0.13133 0.13535 0.0
C143 C 0.71706 0.12253 0.16815 0.0
C144 C 0.77394 0.11416 0.1682 0.0
C145 C 0.79627 0.11627 0.13727 0.0
C146 C 0.85839 0.10331 0.14439 0.0
C147 C 0.87072 0.05369 0.12141 0.0
C148 C 0.89342 0.15122 0.13806 0.0
C149 C 0.86722 0.09253 0.184 0.0
C150 C 0.81791 0.09903 0.19713 0.0
C151 C 0.8148 0.08927 0.2325 0.0
C152 C 0.86356 0.07345 0.2553 0.0
C153 C 0.91511 0.06761 0.2428 0.0
C154 C 0.91658 0.07709 0.2065 0.0
H155 H 0.11917 0.77523 0.57682 0.0
H156 H 1.00882 0.65619 0.60449 0.0
H157 H 0.97733 0.72172 0.64824 0.0
H158 H 0.1639 0.83384 0.66339 0.0
H159 H 0.16491 0.9008 0.64945 0.0
H160 H 0.17563 0.84578 0.61887 0.0
H161 H 0.09302 0.87709 0.57118 0.0
H162 H 0.08272 0.93284 0.60134 0.0
H163 H 0.02528 0.88812 0.58342 0.0
H164 H 0.96529 0.79919 0.69306 0.0
H165 H 0.96444 0.8843 0.72925 0.0
H166 H 0.0805 0.9516 0.66936 0.0
C167 C 0.08771 0.76314 0.59169 0.0
C168 C 0.06636 0.71081 0.58743 0.0
C169 C 0.02521 0.69637 0.60721 0.0
C170 C 1.00748 0.73317 0.63225 0.0
C171 C 0.03081 0.78417 0.6366 0.0
C172 C 0.0692 0.79933 0.61627 0.0
C173 C 0.08836 0.85615 0.62589 0.0
C174 C 0.15196 0.85928 0.64025 0.0
C175 C 0.0713 0.89058 0.59354 0.0
C176 C 0.05552 0.87057 0.65533 0.0
C177 C 0.02282 0.82859 0.66139 0.0
C178 C 0.9903 0.83244 0.68823 0.0
C179 C 0.99041 0.88081 0.7088 0.0
C180 C 0.02249 0.9247 0.70221 0.0
C181 C 0.0556 0.91905 0.67523 0.0
H182 H 0.45745 0.04008 0.89667 0.0
H183 H 0.40597 0.14264 0.98082 0.0
H184 H 0.31138 0.1499 0.94313 0.0
H185 H 0.37606 0.10821 0.81995 0.0
H186 H 0.36101 0.04653 0.79326 0.0
H187 H 0.42526 0.05419 0.82575 0.0
H188 H 0.40003 0.97015 0.85561 0.0
H189 H 0.33515 0.96288 0.8238 0.0
H190 H 0.33444 0.96751 0.87144 0.0
H191 H 0.21904 0.13595 0.89884 0.0
H192 H 0.14097 0.11373 0.84819 0.0
H193 H 0.25535 0.02318 0.79244 0.0
C194 C 0.42668 0.06521 0.90677 0.0
C195 C 0.43889 0.09106 0.94151 0.0
C196 C 0.39759 0.12322 0.95402 0.0
C197 C 0.34368 0.12711 0.93293 0.0
C198 C 0.33235 0.09933 0.89927 0.0
C199 C 0.37322 0.07008 0.88594 0.0
C200 C 0.35047 0.04311 0.84934 0.0
C201 C 0.37994 0.06429 0.82036 0.0
C202 C 0.35532 0.98232 0.85013 0.0
C203 C 0.28993 0.06056 0.84441 0.0
C204 C 0.28009 0.09269 0.87354 0.0
C205 C 0.22655 0.11151 0.87568 0.0
C206 C 0.18235 0.09824 0.84692 0.0
C207 C 0.19204 0.06684 0.81626 0.0
C208 C 0.24659 0.04756 0.81533 0.0
H209 H 0.06478 0.3875 0.49331 0.0
H210 H 0.09152 0.4956 0.41361 0.0
H211 H 0.07833 0.42153 0.36666 0.0
H212 H 0.13997 0.28436 0.46521 0.0
H213 H 0.0948 0.23133 0.47269 0.0
H214 H 0.09593 0.29362 0.49864 0.0
H215 H 0.98876 0.3034 0.47813 0.0
H216 H 0.98681 0.24041 0.45264 0.0
H217 H 0.95895 0.29881 0.43073 0.0
H218 H 0.07814 0.33397 0.33133 0.0
H219 H 0.08062 0.24029 0.30825 0.0
H220 H 0.05115 0.18921 0.41067 0.0
C221 C 0.06508 0.39571 0.46558 0.0
C222 C 0.0773 0.44709 0.45651 0.0
C223 C 0.08034 0.45654 0.42052 0.0
C224 C 0.07331 0.41471 0.39384 0.0
C225 C 0.06302 0.3639 0.40375 0.0
C226 C 0.05772 0.35439 0.43862 0.0
C227 C 0.05086 0.29561 0.44284 0.0
C228 C 0.09822 0.27506 0.47153 0.0
C229 C 0.99289 0.28387 0.45159 0.0
C230 C 0.05549 0.2734 0.40537 0.0
C231 C 0.06226 0.31339 0.38318 0.0
C232 C 0.07163 0.30234 0.3482 0.0
C233 C 0.07343 0.24902 0.33541 0.0
C234 C 0.06566 0.20742 0.35752 0.0
C235 C 0.05636 0.22008 0.39289 0.0
H236 H 0.76895 0.96895 0.94952 0.0
H237 H 0.68994 0.124 0.9442 0.0
H238 H 0.75579 0.15283 0.90715 0.0
H239 H 0.91126 0.0176 0.95664 0.0
H240 H 0.93191 0.96258 0.92932 0.0
H241 H 0.87821 0.95356 0.95561 0.0
H242 H 0.8095 0.91893 0.89812 0.0
H243 H 0.86308 0.92748 0.87173 0.0
H244 H 0.79599 0.95913 0.85974 0.0
H245 H 0.82927 0.16489 0.86923 0.0
H246 H 0.90352 0.1575 0.83228 0.0
H247 H 0.93727 0.99653 0.86444 0.0
C248 C 0.7656 0.00905 0.94079 0.0
C249 C 0.72348 0.04372 0.94972 0.0
C250 C 0.72062 0.09587 0.93732 0.0
C251 C 0.75841 0.11304 0.91646 0.0
C252 C 0.79935 0.07793 0.90831 0.0
C253 C 0.80324 0.02703 0.92008 0.0
C254 C 0.85074 0.99695 0.90712 0.0
C255 C 0.89569 0.9818 0.93908 0.0
C256 C 0.82848 0.94773 0.88273 0.0
C257 C 0.87247 0.03874 0.88597 0.0
C258 C 0.8424 0.08525 0.88706 0.0
C259 C 0.85344 0.12879 0.86838 0.0
C260 C 0.89573 0.12429 0.84752 0.0
C261 C 0.92651 0.07664 0.84559 0.0
C262 C 0.91508 0.03378 0.86562 0.0
H263 H 0.1216 0.76081 0.46318 0.0
H264 H 0.20297 0.65285 0.39565 0.0
H265 H 0.1836 0.7145 0.34647 0.0
H266 H 1.01275 0.80842 0.3928 0.0
H267 H 1.01698 0.87592 0.41179 0.0
H268 H 0.03357 0.82176 0.44076 0.0
H269 H 0.13123 0.86335 0.46645 0.0
H270 H 0.11471 0.91787 0.43791 0.0
H271 H 0.17693 0.87917 0.43597 0.0
H272 H 0.15594 0.78761 0.30517 0.0
H273 H 0.13403 0.87246 0.27702 0.0
H274 H 0.07459 0.93574 0.37255 0.0
C275 C 0.13485 0.75018 0.43787 0.0
C276 C 0.16347 0.70213 0.43293 0.0
C277 C 0.18128 0.68968 0.39986 0.0
C278 C 0.16995 0.72415 0.37176 0.0
C279 C 0.14129 0.77111 0.37739 0.0
C280 C 0.12473 0.7846 0.4098 0.0
C281 C 0.0985 0.83931 0.40982 0.0
C282 C 0.03678 0.83613 0.41404 0.0
C283 C 0.13238 0.87715 0.43927 0.0
C284 C 0.10344 0.85475 0.37245 0.0
C285 C 0.12723 0.81435 0.35399 0.0
C286 C 0.13725 0.81952 0.31932 0.0
C287 C 0.12443 0.8679 0.30352 0.0
C288 C 0.10255 0.91084 0.32255 0.0
C289 C 0.09076 0.90358 0.35716 0.0
loop_
_geom_bond_atom_site_label_1
_geom_bond_atom_site_label_2
_geom_bond_distance
_geom_bond_site_symmetry_2
_ccdc_geom_bond_type
Cu0 N1 1.999 1_554 S
Cu0 O6 1.974 . S
Cu0 N11 1.985 . S
Cu0 O20 1.959 1_554 S
N1 Cu0 1.999 1_556 S
N1 C3 1.263 . S
N1 C5 1.389 . S
N2 C3 1.358 . S
N2 C4 1.400 . S
C3 N1 1.263 . S
C3 N2 1.358 . S
C3 H9 0.930 . S
C4 N2 1.400 . S
C4 C5 1.351 . S
C4 H21 0.930 . S
C5 N1 1.389 . S
C5 C4 1.351 . S
C5 H10 0.930 . S
O6 Cu0 1.974 . S
O6 C16 1.282 . S
C7 O8 1.261 1_545 S
C7 O20 1.251 . S
O8 C7 1.261 1_565 S
H9 C3 0.930 . S
H10 C5 0.930 . S
N11 Cu0 1.985 . S
N11 C13 1.335 . S
N11 C14 1.390 . S
N12 C13 1.345 . S
N12 C15 1.336 . S
C13 N11 1.335 . S
C13 N12 1.345 . S
C13 H18 0.930 . S
C14 N11 1.390 . S
C14 C15 1.346 . S
C14 H19 0.930 . S
C15 N12 1.336 . S
C15 C14 1.346 . S
C15 H22 0.929 . S
C16 O6 1.282 . S
C16 O17 1.216 1_545 S
O17 C16 1.216 1_565 S
H18 C13 0.930 . S
H19 C14 0.930 . S
O20 Cu0 1.959 1_556 S
O20 C7 1.251 . S
H21 C4 0.930 . S
H22 C15 0.929 . S
Cu23 N24 1.999 . S
Cu23 O29 1.974 . S
Cu23 N34 1.985 . S
Cu23 O43 1.959 . S
N24 Cu23 1.999 . S
N24 C26 1.263 . S
N24 C28 1.381 1_455 S
N25 C26 1.358 . S
N25 C27 1.400 . S
C26 N24 1.263 . S
C26 N25 1.358 . S
C26 H32 0.930 . S
C27 N25 1.400 . S
C27 C28 1.351 1_455 S
C27 H44 0.930 1_455 S
C28 N24 1.381 1_655 S
C28 C27 1.351 1_655 S
C28 H33 0.937 . S
O29 Cu23 1.974 . S
O29 C39 1.282 . S
C30 O31 1.261 . S
C30 O43 1.251 . S
O31 C30 1.261 . S
H32 C26 0.930 . S
H33 C28 0.937 . S
N34 Cu23 1.985 . S
N34 C36 1.335 . S
N34 C37 1.390 . S
N35 C36 1.345 . S
N35 C38 1.336 . S
C36 N34 1.335 . S
C36 N35 1.345 . S
C36 H41 0.930 . S
C37 N34 1.390 . S
C37 C38 1.346 . S
C37 H42 0.930 . S
C38 N35 1.336 . S
C38 C37 1.346 . S
C38 H45 0.929 . S
C39 O29 1.282 . S
C39 O40 1.216 . S
O40 C39 1.216 . S
H41 C36 0.930 . S
H42 C37 0.930 . S
O43 Cu23 1.959 . S
O43 C30 1.251 . S
H44 C27 0.930 1_655 S
H45 C38 0.929 . S
Mg46 O47 2.028 . S
Mg46 O53 1.986 . S
Mg46 O55 2.114 1_545 S
Mg46 O56 2.251 . S
Mg46 O59 2.010 . S
O47 Mg46 2.028 . S
O47 C50 1.250 1_455 S
O48 Mg49 2.028 . S
O48 C50 1.248 . S
Mg49 O48 2.028 . S
Mg49 O54 2.032 1_655 S
Mg49 O56 2.079 1_655 S
C50 O47 1.250 1_655 S
C50 O48 1.248 . S
C51 O52 1.264 . S
C51 O59 1.249 . S
O52 C51 1.264 . S
O53 Mg46 1.986 . S
O53 C57 1.246 . S
O54 Mg49 2.032 1_455 S
O54 C57 1.259 . S
O55 Mg46 2.114 1_565 S
O55 C58 1.252 . S
O56 Mg46 2.251 . S
O56 Mg49 2.079 1_455 S
O56 C58 1.273 1_545 S
C57 O53 1.246 . S
C57 O54 1.259 . S
C58 O55 1.252 . S
C58 O56 1.273 1_565 S
O59 Mg46 2.010 . S
O59 C51 1.249 . S
Mg60 O61 2.028 . S
Mg60 O67 1.986 . S
Mg60 O69 2.114 1_545 S
Mg60 O70 2.251 . S
Mg60 O73 2.010 1_455 S
O61 Mg60 2.028 . S
O61 C64 1.250 . S
O62 Mg63 2.028 . S
O62 C64 1.248 . S
Mg63 O62 2.028 . S
Mg63 O68 2.032 . S
Mg63 O70 2.079 . S
C64 O61 1.250 . S
C64 O62 1.248 . S
C65 O66 1.264 . S
C65 O73 1.249 . S
O66 C65 1.264 . S
O67 Mg60 1.986 . S
O67 C71 1.246 . S
O68 Mg63 2.032 . S
O68 C71 1.259 . S
O69 Mg60 2.114 1_565 S
O69 C72 1.252 . S
O70 Mg60 2.251 . S
O70 Mg63 2.079 . S
O70 C72 1.273 1_545 S
C71 O67 1.246 . S
C71 O68 1.259 . S
C72 O69 1.252 . S
C72 O70 1.273 1_565 S
O73 Mg60 2.010 1_655 S
O73 C65 1.249 . S
H74 C86 0.930 . S
H75 C88 0.930 . S
H76 C89 0.930 . S
H77 C93 0.959 . S
H78 C93 0.959 1_565 S
H79 C93 0.961 1_565 S
H80 C94 0.960 . S
H81 C94 0.961 . S
H82 C94 0.959 . S
H83 C97 0.929 . S
H84 C98 0.931 . S
H85 C100 0.930 . S
C86 H74 0.930 . S
C86 C87 1.399 . S
C86 C91 1.399 . S
C87 C86 1.399 . S
C87 C88 1.376 . S
C88 H75 0.930 . S
C88 C87 1.376 . S
C88 C89 1.388 . S
C89 H76 0.930 . S
C89 C88 1.388 . S
C89 C90 1.390 . S
C90 C89 1.390 . S
C90 C91 1.394 . S
C90 C96 1.465 . S
C91 C86 1.399 . S
C91 C90 1.394 . S
C91 C92 1.516 . S
C92 C91 1.516 . S
C92 C93 1.502 . S
C92 C94 1.561 1_545 S
C92 C95 1.526 . S
C93 H77 0.959 . S
C93 H78 0.959 1_545 S
C93 H79 0.961 1_545 S
C93 C92 1.502 . S
C94 H80 0.960 . S
C94 H81 0.961 . S
C94 H82 0.959 . S
C94 C92 1.561 1_565 S
C95 C92 1.526 . S
C95 C96 1.396 . S
C95 C100 1.390 . S
C96 C90 1.465 . S
C96 C95 1.396 . S
C96 C97 1.399 . S
C97 H83 0.929 . S
C97 C96 1.399 . S
C97 C98 1.385 . S
C98 H84 0.931 . S
C98 C97 1.385 . S
C98 C99 1.389 . S
C99 C98 1.389 . S
C99 C100 1.387 . S
C100 H85 0.930 . S
C100 C95 1.390 . S
C100 C99 1.387 . S
H101 C113 0.930 . S
H102 C115 0.930 . S
H103 C116 0.930 . S
H104 C120 0.959 . S
H105 C120 0.959 . S
H106 C120 0.961 . S
H107 C121 0.960 . S
H108 C121 0.961 . S
H109 C121 0.959 . S
H110 C124 0.929 . S
H111 C125 0.931 . S
H112 C127 0.930 . S
C113 H101 0.930 . S
C113 C114 1.399 . S
C113 C118 1.399 . S
C114 C113 1.399 . S
C114 C115 1.376 . S
C115 H102 0.930 . S
C115 C114 1.376 . S
C115 C116 1.388 . S
C116 H103 0.930 . S
C116 C115 1.388 . S
C116 C117 1.390 . S
C117 C116 1.390 . S
C117 C118 1.394 . S
C117 C123 1.465 . S
C118 C113 1.399 . S
C118 C117 1.394 . S
C118 C119 1.516 . S
C119 C118 1.516 . S
C119 C120 1.502 . S
C119 C121 1.561 . S
C119 C122 1.526 . S
C120 H104 0.959 . S
C120 H105 0.959 . S
C120 H106 0.961 . S
C120 C119 1.502 . S
C121 H107 0.960 . S
C121 H108 0.961 . S
C121 H109 0.959 . S
C121 C119 1.561 . S
C122 C119 1.526 . S
C122 C123 1.396 . S
C122 C127 1.390 . S
C123 C117 1.465 . S
C123 C122 1.396 . S
C123 C124 1.399 . S
C124 H110 0.929 . S
C124 C123 1.399 . S
C124 C125 1.385 . S
C125 H111 0.931 . S
C125 C124 1.385 . S
C125 C126 1.389 . S
C126 C125 1.389 . S
C126 C127 1.387 . S
C127 H112 0.930 . S
C127 C122 1.390 . S
C127 C126 1.387 . S
H128 C140 0.930 . S
H129 C142 0.930 1_565 S
H130 C143 0.930 1_565 S
H131 C147 0.959 . S
H132 C147 0.959 . S
H133 C147 0.961 . S
H134 C148 0.960 . S
H135 C148 0.961 . S
H136 C148 0.959 . S
H137 C151 0.929 . S
H138 C152 0.931 . S
H139 C154 0.930 . S
C140 H128 0.930 . S
C140 C141 1.399 . S
C140 C145 1.399 . S
C141 C140 1.399 . S
C141 C142 1.376 . S
C142 H129 0.930 1_545 S
C142 C141 1.376 . S
C142 C143 1.388 . S
C143 H130 0.930 1_545 S
C143 C142 1.388 . S
C143 C144 1.390 . S
C144 C143 1.390 . S
C144 C145 1.394 . S
C144 C150 1.465 . S
C145 C140 1.399 . S
C145 C144 1.394 . S
C145 C146 1.516 . S
C146 C145 1.516 . S
C146 C147 1.502 . S
C146 C148 1.561 . S
C146 C149 1.526 . S
C147 H131 0.959 . S
C147 H132 0.959 . S
C147 H133 0.961 . S
C147 C146 1.502 . S
C148 H134 0.960 . S
C148 H135 0.961 . S
C148 H136 0.959 . S
C148 C146 1.561 . S
C149 C146 1.526 . S
C149 C150 1.396 . S
C149 C154 1.390 . S
C150 C144 1.465 . S
C150 C149 1.396 . S
C150 C151 1.399 . S
C151 H137 0.929 . S
C151 C150 1.399 . S
C151 C152 1.385 . S
C152 H138 0.931 . S
C152 C151 1.385 . S
C152 C153 1.389 . S
C153 C152 1.389 . S
C153 C154 1.387 . S
C154 H139 0.930 . S
C154 C149 1.390 . S
C154 C153 1.387 . S
H155 C167 0.930 . S
H156 C169 0.930 . S
H157 C170 0.930 . S
H158 C174 0.959 . S
H159 C174 0.959 . S
H160 C174 0.961 . S
H161 C175 0.960 . S
H162 C175 0.961 . S
H163 C175 0.959 . S
H164 C178 0.929 1_655 S
H165 C179 0.931 . S
H166 C181 0.930 . S
C167 H155 0.930 . S
C167 C168 1.399 . S
C167 C172 1.399 . S
C168 C167 1.399 . S
C168 C169 1.376 . S
C169 H156 0.930 . S
C169 C168 1.376 . S
C169 C170 1.388 . S
C170 H157 0.930 . S
C170 C169 1.388 . S
C170 C171 1.390 . S
C171 C170 1.390 . S
C171 C172 1.394 . S
C171 C177 1.465 . S
C172 C167 1.399 . S
C172 C171 1.394 . S
C172 C173 1.516 . S
C173 C172 1.516 . S
C173 C174 1.502 . S
C173 C175 1.561 . S
C173 C176 1.526 . S
C174 H158 0.959 . S
C174 H159 0.959 . S
C174 H160 0.961 . S
C174 C173 1.502 . S
C175 H161 0.960 . S
C175 H162 0.961 . S
C175 H163 0.959 . S
C175 C173 1.561 . S
C176 C173 1.526 . S
C176 C177 1.396 . S
C176 C181 1.390 . S
C177 C171 1.465 . S
C177 C176 1.396 . S
C177 C178 1.399 . S
C178 H164 0.929 1_455 S
C178 C177 1.399 . S
C178 C179 1.385 . S
C179 H165 0.931 . S
C179 C178 1.385 . S
C179 C180 1.389 . S
C180 C179 1.389 . S
C180 C181 1.387 . S
C181 H166 0.930 . S
C181 C176 1.390 . S
C181 C180 1.387 . S
H182 C194 0.930 . S
H183 C196 0.930 . S
H184 C197 0.930 . S
H185 C201 0.959 . S
H186 C201 0.959 . S
H187 C201 0.961 . S
H188 C202 0.960 . S
H189 C202 0.961 . S
H190 C202 0.959 . S
H191 C205 0.929 . S
H192 C206 0.931 . S
H193 C208 0.930 . S
C194 H182 0.930 . S
C194 C195 1.399 . S
C194 C199 1.399 . S
C195 C194 1.399 . S
C195 C196 1.376 1_545 S
C196 H183 0.930 . S
C196 C195 1.376 1_565 S
C196 C197 1.388 . S
C197 H184 0.930 . S
C197 C196 1.388 . S
C197 C198 1.390 1_565 S
C198 C197 1.390 1_545 S
C198 C199 1.394 . S
C198 C204 1.465 . S
C199 C194 1.399 . S
C199 C198 1.394 . S
C199 C200 1.516 . S
C200 C199 1.516 . S
C200 C201 1.502 . S
C200 C202 1.561 . S
C200 C203 1.526 . S
C201 H185 0.959 . S
C201 H186 0.959 . S
C201 H187 0.961 . S
C201 C200 1.502 . S
C202 H188 0.960 . S
C202 H189 0.961 . S
C202 H190 0.959 . S
C202 C200 1.561 . S
C203 C200 1.526 . S
C203 C204 1.396 . S
C203 C208 1.390 . S
C204 C198 1.465 . S
C204 C203 1.396 . S
C204 C205 1.399 1_545 S
C205 H191 0.929 . S
C205 C204 1.399 1_565 S
C205 C206 1.385 . S
C206 H192 0.931 . S
C206 C205 1.385 . S
C206 C207 1.389 1_565 S
C207 C206 1.389 1_545 S
C207 C208 1.387 . S
C208 H193 0.930 . S
C208 C203 1.390 . S
C208 C207 1.387 . S
H209 C221 0.930 . S
H210 C223 0.930 . S
H211 C224 0.930 . S
H212 C228 0.959 . S
H213 C228 0.959 . S
H214 C228 0.961 . S
H215 C229 0.960 1_655 S
H216 C229 0.961 1_655 S
H217 C229 0.959 . S
H218 C232 0.929 . S
H219 C233 0.931 . S
H220 C235 0.930 . S
C221 H209 0.930 . S
C221 C222 1.399 . S
C221 C226 1.399 . S
C222 C221 1.399 . S
C222 C223 1.376 . S
C223 H210 0.930 . S
C223 C222 1.376 . S
C223 C224 1.388 . S
C224 H211 0.930 . S
C224 C223 1.388 . S
C224 C225 1.390 . S
C225 C224 1.390 . S
C225 C226 1.394 . S
C225 C231 1.465 . S
C226 C221 1.399 . S
C226 C225 1.394 . S
C226 C227 1.516 . S
C227 C226 1.516 . S
C227 C228 1.502 1_455 S
C227 C229 1.561 . S
C227 C230 1.526 . S
C228 H212 0.959 . S
C228 H213 0.959 . S
C228 H214 0.961 . S
C228 C227 1.502 1_655 S
C229 H215 0.960 1_455 S
C229 H216 0.961 1_455 S
C229 H217 0.959 . S
C229 C227 1.561 . S
C230 C227 1.526 . S
C230 C231 1.396 . S
C230 C235 1.390 . S
C231 C225 1.465 . S
C231 C230 1.396 . S
C231 C232 1.399 . S
C232 H218 0.929 . S
C232 C231 1.399 . S
C232 C233 1.385 . S
C233 H219 0.931 . S
C233 C232 1.385 . S
C233 C234 1.389 . S
C234 C233 1.389 . S
C234 C235 1.387 . S
C235 H220 0.930 . S
C235 C230 1.390 . S
C235 C234 1.387 . S
H236 C248 0.930 1_565 S
H237 C250 0.930 . S
H238 C251 0.930 . S
H239 C255 0.959 1_545 S
H240 C255 0.959 . S
H241 C255 0.961 . S
H242 C256 0.960 . S
H243 C256 0.961 . S
H244 C256 0.959 . S
H245 C259 0.929 . S
H246 C260 0.931 . S
H247 C262 0.930 1_565 S
C248 H236 0.930 1_545 S
C248 C249 1.399 . S
C248 C253 1.399 . S
C249 C248 1.399 . S
C249 C250 1.376 . S
C250 H237 0.930 . S
C250 C249 1.376 . S
C250 C251 1.388 . S
C251 H238 0.930 . S
C251 C250 1.388 . S
C251 C252 1.390 . S
C252 C251 1.390 . S
C252 C253 1.394 . S
C252 C258 1.465 . S
C253 C248 1.399 . S
C253 C252 1.394 . S
C253 C254 1.516 1_545 S
C254 C253 1.516 1_565 S
C254 C255 1.502 . S
C254 C256 1.561 . S
C254 C257 1.526 1_565 S
C255 H239 0.959 1_565 S
C255 H240 0.959 . S
C255 H241 0.961 . S
C255 C254 1.502 . S
C256 H242 0.960 . S
C256 H243 0.961 . S
C256 H244 0.959 . S
C256 C254 1.561 . S
C257 C254 1.526 1_545 S
C257 C258 1.396 . S
C257 C262 1.390 . S
C258 C252 1.465 . S
C258 C257 1.396 . S
C258 C259 1.399 . S
C259 H245 0.929 . S
C259 C258 1.399 . S
C259 C260 1.385 . S
C260 H246 0.931 . S
C260 C259 1.385 . S
C260 C261 1.389 . S
C261 C260 1.389 . S
C261 C262 1.387 . S
C262 H247 0.930 1_545 S
C262 C257 1.390 . S
C262 C261 1.387 . S
H263 C275 0.930 . S
H264 C277 0.930 . S
H265 C278 0.930 . S
H266 C282 0.959 . S
H267 C282 0.959 . S
H268 C282 0.961 . S
H269 C283 0.960 . S
H270 C283 0.961 . S
H271 C283 0.959 . S
H272 C286 0.929 . S
H273 C287 0.931 . S
H274 C289 0.930 . S
C275 H263 0.930 . S
C275 C276 1.399 . S
C275 C280 1.399 . S
C276 C275 1.399 . S
C276 C277 1.376 . S
C277 H264 0.930 . S
C277 C276 1.376 . S
C277 C278 1.388 . S
C278 H265 0.930 . S
C278 C277 1.388 . S
C278 C279 1.390 . S
C279 C278 1.390 . S
C279 C280 1.394 . S
C279 C285 1.465 . S
C280 C275 1.399 . S
C280 C279 1.394 . S
C280 C281 1.516 . S
C281 C280 1.516 . S
C281 C282 1.502 1_455 S
C281 C283 1.561 . S
C281 C284 1.526 . S
C282 H266 0.959 . S
C282 H267 0.959 . S
C282 H268 0.961 . S
C282 C281 1.502 1_655 S
C283 H269 0.960 . S
C283 H270 0.961 . S
C283 H271 0.959 . S
C283 C281 1.561 . S
C284 C281 1.526 . S
C284 C285 1.396 . S
C284 C289 1.390 . S
C285 C279 1.465 . S
C285 C284 1.396 . S
C285 C286 1.399 . S
C286 H272 0.929 . S
C286 C285 1.399 . S
C286 C287 1.385 . S
C287 H273 0.931 . S
C287 C286 1.385 . S
C287 C288 1.389 . S
C288 C287 1.389 . S
C288 C289 1.387 . S
C289 H274 0.930 . S
C289 C284 1.390 . S
C289 C288 1.387 . S
C99 C51 1.183 . S
C87 N12 1.407 . S
C126 C71 1.498 . S
C114 N25 1.451 . S
C153 C50 1.399 . S
C141 C16 1.455 . S
C180 C72 1.508 . S
C168 C30 1.500 . S
C207 C64 1.457 . S
C195 C7 1.510 . S
C234 C57 1.447 . S
C222 C39 1.436 . S
C261 C65 1.214 . S
C249 N2 1.433 . S
C276 N35 1.409 . S
C288 C58 1.478 . S
