# Generated by pormake.
# Topology gar, (4,6)-cn, num edge types: 1
# Building blocks:
#     Node 0, Type 0, BuildingBlock: GALJAG_clean_sbu_0, # of connection points: 4
#     Node 1, Type 0, BuildingBlock: GALJAG_clean_sbu_0, # of connection points: 4
#     Node 2, Type 0, BuildingBlock: GALJAG_clean_sbu_0, # of connection points: 4
#     Node 3, Type 0, BuildingBlock: GALJAG_clean_sbu_0, # of connection points: 4
#     Node 4, Type 0, BuildingBlock: GALJAG_clean_sbu_0, # of connection points: 4
#     Node 5, Type 0, BuildingBlock: GALJAG_clean_sbu_0, # of connection points: 4
#     Node 6, Type 0, BuildingBlock: GALJAG_clean_sbu_0, # of connection points: 4
#     Node 7, Type 0, BuildingBlock: GALJAG_clean_sbu_0, # of connection points: 4
#     Node 8, Type 0, BuildingBlock: GALJAG_clean_sbu_0, # of connection points: 4
#     Node 9, Type 0, BuildingBlock: GALJAG_clean_sbu_0, # of connection points: 4
#     Node 10, Type 0, BuildingBlock: GALJAG_clean_sbu_0, # of connection points: 4
#     Node 11, Type 0, BuildingBlock: GALJAG_clean_sbu_0, # of connection points: 4
#     Node 12, Type 0, BuildingBlock: GALJAG_clean_sbu_0, # of connection points: 4
#     Node 13, Type 0, BuildingBlock: GALJAG_clean_sbu_0, # of connection points: 4
#     Node 14, Type 0, BuildingBlock: GALJAG_clean_sbu_0, # of connection points: 4
#     Node 15, Type 0, BuildingBlock: GALJAG_clean_sbu_0, # of connection points: 4
#     Node 16, Type 0, BuildingBlock: GALJAG_clean_sbu_0, # of connection points: 4
#     Node 17, Type 0, BuildingBlock: GALJAG_clean_sbu_0, # of connection points: 4
#     Node 18, Type 0, BuildingBlock: GALJAG_clean_sbu_0, # of connection points: 4
#     Node 19, Type 0, BuildingBlock: GALJAG_clean_sbu_0, # of connection points: 4
#     Node 20, Type 0, BuildingBlock: GALJAG_clean_sbu_0, # of connection points: 4
#     Node 21, Type 0, BuildingBlock: GALJAG_clean_sbu_0, # of connection points: 4
#     Node 22, Type 0, BuildingBlock: GALJAG_clean_sbu_0, # of connection points: 4
#     Node 23, Type 0, BuildingBlock: GALJAG_clean_sbu_0, # of connection points: 4
#     Node 24, Type 1, BuildingBlock: KUMBOL_clean_sbu_1, # of connection points: 6
#     Node 25, Type 1, BuildingBlock: KUMBOL_clean_sbu_1, # of connection points: 6
#     Node 26, Type 1, BuildingBlock: KUMBOL_clean_sbu_1, # of connection points: 6
#     Node 27, Type 1, BuildingBlock: KUMBOL_clean_sbu_1, # of connection points: 6
#     Node 28, Type 1, BuildingBlock: KUMBOL_clean_sbu_1, # of connection points: 6
#     Node 29, Type 1, BuildingBlock: KUMBOL_clean_sbu_1, # of connection points: 6
#     Node 30, Type 1, BuildingBlock: KUMBOL_clean_sbu_1, # of connection points: 6
#     Node 31, Type 1, BuildingBlock: KUMBOL_clean_sbu_1, # of connection points: 6
#     Node 32, Type 1, BuildingBlock: KUMBOL_clean_sbu_1, # of connection points: 6
#     Node 33, Type 1, BuildingBlock: KUMBOL_clean_sbu_1, # of connection points: 6
#     Node 34, Type 1, BuildingBlock: KUMBOL_clean_sbu_1, # of connection points: 6
#     Node 35, Type 1, BuildingBlock: KUMBOL_clean_sbu_1, # of connection points: 6
#     Node 36, Type 1, BuildingBlock: KUMBOL_clean_sbu_1, # of connection points: 6
#     Node 37, Type 1, BuildingBlock: KUMBOL_clean_sbu_1, # of connection points: 6
#     Node 38, Type 1, BuildingBlock: KUMBOL_clean_sbu_1, # of connection points: 6
#     Node 39, Type 1, BuildingBlock: KUMBOL_clean_sbu_1, # of connection points: 6
#     Edge 40, Type (0, 1), BuildingBlock: AJUNOK_clean_linker_0, # of connection points: 2
#     Edge 41, Type (0, 1), BuildingBlock: AJUNOK_clean_linker_0, # of connection points: 2
#     Edge 42, Type (0, 1), BuildingBlock: AJUNOK_clean_linker_0, # of connection points: 2
#     Edge 43, Type (0, 1), BuildingBlock: AJUNOK_clean_linker_0, # of connection points: 2
#     Edge 44, Type (0, 1), BuildingBlock: AJUNOK_clean_linker_0, # of connection points: 2
#     Edge 45, Type (0, 1), BuildingBlock: AJUNOK_clean_linker_0, # of connection points: 2
#     Edge 46, Type (0, 1), BuildingBlock: AJUNOK_clean_linker_0, # of connection points: 2
#     Edge 47, Type (0, 1), BuildingBlock: AJUNOK_clean_linker_0, # of connection points: 2
#     Edge 48, Type (0, 1), BuildingBlock: AJUNOK_clean_linker_0, # of connection points: 2
#     Edge 49, Type (0, 1), BuildingBlock: AJUNOK_clean_linker_0, # of connection points: 2
#     Edge 50, Type (0, 1), BuildingBlock: AJUNOK_clean_linker_0, # of connection points: 2
#     Edge 51, Type (0, 1), BuildingBlock: AJUNOK_clean_linker_0, # of connection points: 2
#     Edge 52, Type (0, 1), BuildingBlock: AJUNOK_clean_linker_0, # of connection points: 2
#     Edge 53, Type (0, 1), BuildingBlock: AJUNOK_clean_linker_0, # of connection points: 2
#     Edge 54, Type (0, 1), BuildingBlock: AJUNOK_clean_linker_0, # of connection points: 2
#     Edge 55, Type (0, 1), BuildingBlock: AJUNOK_clean_linker_0, # of connection points: 2
#     Edge 56, Type (0, 1), BuildingBlock: AJUNOK_clean_linker_0, # of connection points: 2
#     Edge 57, Type (0, 1), BuildingBlock: AJUNOK_clean_linker_0, # of connection points: 2
#     Edge 58, Type (0, 1), BuildingBlock: AJUNOK_clean_linker_0, # of connection points: 2
#     Edge 59, Type (0, 1), BuildingBlock: AJUNOK_clean_linker_0, # of connection points: 2
#     Edge 60, Type (0, 1), BuildingBlock: AJUNOK_clean_linker_0, # of connection points: 2
#     Edge 61, Type (0, 1), BuildingBlock: AJUNOK_clean_linker_0, # of connection points: 2
#     Edge 62, Type (0, 1), BuildingBlock: AJUNOK_clean_linker_0, # of connection points: 2
#     Edge 63, Type (0, 1), BuildingBlock: AJUNOK_clean_linker_0, # of connection points: 2
#     Edge 64, Type (0, 1), BuildingBlock: AJUNOK_clean_linker_0, # of connection points: 2
#     Edge 65, Type (0, 1), BuildingBlock: AJUNOK_clean_linker_0, # of connection points: 2
#     Edge 66, Type (0, 1), BuildingBlock: AJUNOK_clean_linker_0, # of connection points: 2
#     Edge 67, Type (0, 1), BuildingBlock: AJUNOK_clean_linker_0, # of connection points: 2
#     Edge 68, Type (0, 1), BuildingBlock: AJUNOK_clean_linker_0, # of connection points: 2
#     Edge 69, Type (0, 1), BuildingBlock: AJUNOK_clean_linker_0, # of connection points: 2
#     Edge 70, Type (0, 1), BuildingBlock: AJUNOK_clean_linker_0, # of connection points: 2
#     Edge 71, Type (0, 1), BuildingBlock: AJUNOK_clean_linker_0, # of connection points: 2
#     Edge 72, Type (0, 1), BuildingBlock: AJUNOK_clean_linker_0, # of connection points: 2
#     Edge 73, Type (0, 1), BuildingBlock: AJUNOK_clean_linker_0, # of connection points: 2
#     Edge 74, Type (0, 1), BuildingBlock: AJUNOK_clean_linker_0, # of connection points: 2
#     Edge 75, Type (0, 1), BuildingBlock: AJUNOK_clean_linker_0, # of connection points: 2
#     Edge 76, Type (0, 1), BuildingBlock: AJUNOK_clean_linker_0, # of connection points: 2
#     Edge 77, Type (0, 1), BuildingBlock: AJUNOK_clean_linker_0, # of connection points: 2
#     Edge 78, Type (0, 1), BuildingBlock: AJUNOK_clean_linker_0, # of connection points: 2
#     Edge 79, Type (0, 1), BuildingBlock: AJUNOK_clean_linker_0, # of connection points: 2
#     Edge 80, Type (0, 1), BuildingBlock: AJUNOK_clean_linker_0, # of connection points: 2
#     Edge 81, Type (0, 1), BuildingBlock: AJUNOK_clean_linker_0, # of connection points: 2
#     Edge 82, Type (0, 1), BuildingBlock: AJUNOK_clean_linker_0, # of connection points: 2
#     Edge 83, Type (0, 1), BuildingBlock: AJUNOK_clean_linker_0, # of connection points: 2
#     Edge 84, Type (0, 1), BuildingBlock: AJUNOK_clean_linker_0, # of connection points: 2
#     Edge 85, Type (0, 1), BuildingBlock: AJUNOK_clean_linker_0, # of connection points: 2
#     Edge 86, Type (0, 1), BuildingBlock: AJUNOK_clean_linker_0, # of connection points: 2
#     Edge 87, Type (0, 1), BuildingBlock: AJUNOK_clean_linker_0, # of connection points: 2
#     Edge 88, Type (0, 1), BuildingBlock: AJUNOK_clean_linker_0, # of connection points: 2
#     Edge 89, Type (0, 1), BuildingBlock: AJUNOK_clean_linker_0, # of connection points: 2
#     Edge 90, Type (0, 1), BuildingBlock: AJUNOK_clean_linker_0, # of connection points: 2
#     Edge 91, Type (0, 1), BuildingBlock: AJUNOK_clean_linker_0, # of connection points: 2
#     Edge 92, Type (0, 1), BuildingBlock: AJUNOK_clean_linker_0, # of connection points: 2
#     Edge 93, Type (0, 1), BuildingBlock: AJUNOK_clean_linker_0, # of connection points: 2
#     Edge 94, Type (0, 1), BuildingBlock: AJUNOK_clean_linker_0, # of connection points: 2
#     Edge 95, Type (0, 1), BuildingBlock: AJUNOK_clean_linker_0, # of connection points: 2
#     Edge 96, Type (0, 1), BuildingBlock: AJUNOK_clean_linker_0, # of connection points: 2
#     Edge 97, Type (0, 1), BuildingBlock: AJUNOK_clean_linker_0, # of connection points: 2
#     Edge 98, Type (0, 1), BuildingBlock: AJUNOK_clean_linker_0, # of connection points: 2
#     Edge 99, Type (0, 1), BuildingBlock: AJUNOK_clean_linker_0, # of connection points: 2
#     Edge 100, Type (0, 1), BuildingBlock: AJUNOK_clean_linker_0, # of connection points: 2
#     Edge 101, Type (0, 1), BuildingBlock: AJUNOK_clean_linker_0, # of connection points: 2
#     Edge 102, Type (0, 1), BuildingBlock: AJUNOK_clean_linker_0, # of connection points: 2
#     Edge 103, Type (0, 1), BuildingBlock: AJUNOK_clean_linker_0, # of connection points: 2
#     Edge 104, Type (0, 1), BuildingBlock: AJUNOK_clean_linker_0, # of connection points: 2
#     Edge 105, Type (0, 1), BuildingBlock: AJUNOK_clean_linker_0, # of connection points: 2
#     Edge 106, Type (0, 1), BuildingBlock: AJUNOK_clean_linker_0, # of connection points: 2
#     Edge 107, Type (0, 1), BuildingBlock: AJUNOK_clean_linker_0, # of connection points: 2
#     Edge 108, Type (0, 1), BuildingBlock: AJUNOK_clean_linker_0, # of connection points: 2
#     Edge 109, Type (0, 1), BuildingBlock: AJUNOK_clean_linker_0, # of connection points: 2
#     Edge 110, Type (0, 1), BuildingBlock: AJUNOK_clean_linker_0, # of connection points: 2
#     Edge 111, Type (0, 1), BuildingBlock: AJUNOK_clean_linker_0, # of connection points: 2
#     Edge 112, Type (0, 1), BuildingBlock: AJUNOK_clean_linker_0, # of connection points: 2
#     Edge 113, Type (0, 1), BuildingBlock: AJUNOK_clean_linker_0, # of connection points: 2
#     Edge 114, Type (0, 1), BuildingBlock: AJUNOK_clean_linker_0, # of connection points: 2
#     Edge 115, Type (0, 1), BuildingBlock: AJUNOK_clean_linker_0, # of connection points: 2
#     Edge 116, Type (0, 1), BuildingBlock: AJUNOK_clean_linker_0, # of connection points: 2
#     Edge 117, Type (0, 1), BuildingBlock: AJUNOK_clean_linker_0, # of connection points: 2
#     Edge 118, Type (0, 1), BuildingBlock: AJUNOK_clean_linker_0, # of connection points: 2
#     Edge 119, Type (0, 1), BuildingBlock: AJUNOK_clean_linker_0, # of connection points: 2
#     Edge 120, Type (0, 1), BuildingBlock: AJUNOK_clean_linker_0, # of connection points: 2
#     Edge 121, Type (0, 1), BuildingBlock: AJUNOK_clean_linker_0, # of connection points: 2
#     Edge 122, Type (0, 1), BuildingBlock: AJUNOK_clean_linker_0, # of connection points: 2
#     Edge 123, Type (0, 1), BuildingBlock: AJUNOK_clean_linker_0, # of connection points: 2
#     Edge 124, Type (0, 1), BuildingBlock: AJUNOK_clean_linker_0, # of connection points: 2
#     Edge 125, Type (0, 1), BuildingBlock: AJUNOK_clean_linker_0, # of connection points: 2
#     Edge 126, Type (0, 1), BuildingBlock: AJUNOK_clean_linker_0, # of connection points: 2
#     Edge 127, Type (0, 1), BuildingBlock: AJUNOK_clean_linker_0, # of connection points: 2
#     Edge 128, Type (0, 1), BuildingBlock: AJUNOK_clean_linker_0, # of connection points: 2
#     Edge 129, Type (0, 1), BuildingBlock: AJUNOK_clean_linker_0, # of connection points: 2
#     Edge 130, Type (0, 1), BuildingBlock: AJUNOK_clean_linker_0, # of connection points: 2
#     Edge 131, Type (0, 1), BuildingBlock: AJUNOK_clean_linker_0, # of connection points: 2
#     Edge 132, Type (0, 1), BuildingBlock: AJUNOK_clean_linker_0, # of connection points: 2
#     Edge 133, Type (0, 1), BuildingBlock: AJUNOK_clean_linker_0, # of connection points: 2
#     Edge 134, Type (0, 1), BuildingBlock: AJUNOK_clean_linker_0, # of connection points: 2
#     Edge 135, Type (0, 1), BuildingBlock: AJUNOK_clean_linker_0, # of connection points: 2
# Relax obj value: 0.108
# Max RMSD: 0.191
# Mean RMSD: 0.135
data_MOF--net-gar--node1-GALJAG_clean_sbu_0--node2-KUMBOL_clean_sbu_1--edge1-AJUNOK_clean_linker_0
_symmetry_space_group_name_H-M    P1
_symmetry_Int_Tables_number       1
_symmetry_cell_setting            triclinic
loop_
_symmetry_equiv_pos_as_xyz
'x, y, z'
_cell_length_a     45.723586
_cell_length_b     45.654476
_cell_length_c     42.231202
_cell_angle_alpha  97.110257
_cell_angle_beta   97.108074
_cell_angle_gamma 101.96188
loop_
_atom_site_label
_atom_site_type_symbol
_atom_site_fract_x
_atom_site_fract_y
_atom_site_fract_z
_atom_type_partial_charge
In0 In 0.07487 0.35146 0.37188 0.0
O1 O 0.10454 0.3358 0.33024 0.0
O2 O 0.12961 0.35856 0.37357 0.0
C3 C 1.01203 0.34191 0.34323 0.0
C4 C 0.06953 0.30139 0.40249 0.0
C5 C 0.07647 0.40784 0.41049 0.0
O6 O 0.0341 0.35243 0.32897 0.0
O7 O 0.02169 0.33552 0.37032 0.0
O8 O 0.0836 0.38527 0.42143 0.0
O9 O 0.07063 0.40309 0.37988 0.0
C10 C 0.13112 0.34426 0.34634 0.0
O11 O 0.0805 0.32799 0.41723 0.0
O12 O 0.06104 0.30022 0.37268 0.0
In13 In 0.04635 0.77094 0.71837 0.0
O14 O 0.03831 0.79771 0.67718 0.0
O15 O 0.06204 0.82216 0.72242 0.0
C16 C 0.03999 0.71842 0.67419 0.0
C17 C 0.11138 0.77826 0.73971 0.0
C18 C 0.98867 0.77451 0.74273 0.0
O19 O 0.04144 0.74453 0.66662 0.0
O20 O 0.04048 0.71816 0.70434 0.0
O21 O 1.01502 0.78512 0.7591 0.0
O22 O 0.99138 0.7604 0.71587 0.0
C23 C 0.05204 0.82301 0.6934 0.0
O24 O 0.09117 0.76781 0.75649 0.0
O25 O 0.09878 0.78496 0.71411 0.0
In26 In 0.5765 0.85234 0.87164 0.0
O27 O 0.60989 0.84695 0.82959 0.0
O28 O 0.62897 0.84725 0.87654 0.0
C29 C 0.51275 0.84169 0.84423 0.0
C30 C 0.57065 0.80344 0.90367 0.0
C31 C 0.57979 0.90993 0.90881 0.0
O32 O 0.53396 0.8424 0.82708 0.0
O33 O 0.52351 0.84548 0.87386 0.0
O34 O 0.5877 0.8879 0.92007 0.0
O35 O 0.57297 0.90435 0.87827 0.0
C36 C 0.63349 0.84396 0.84748 0.0
O37 O 0.57993 0.83042 0.91777 0.0
O38 O 0.56343 0.8011 0.87345 0.0
In39 In 0.54594 0.26957 0.21756 0.0
O40 O 0.53231 0.23915 0.16704 0.0
O41 O 0.54894 0.21846 0.20529 0.0
C42 C 0.54889 0.31776 0.1861 0.0
C43 C 0.48854 0.27306 0.24323 0.0
C44 C 0.61159 0.28009 0.23905 0.0
O45 O 0.54098 0.29071 0.17209 0.0
O46 O 0.55496 0.32072 0.2165 0.0
O47 O 0.59168 0.26895 0.2558 0.0
O48 O 0.59849 0.28654 0.21354 0.0
C49 C 0.53991 0.21579 0.17516 0.0
O50 O 0.51507 0.28412 0.25901 0.0
O51 O 0.49105 0.25845 0.21658 0.0
In52 In 0.09643 0.82152 0.12889 0.0
O53 O 0.10808 0.77761 0.0974 0.0
O54 O 0.06768 0.76964 0.11537 0.0
C55 C 0.08829 0.87764 0.10321 0.0
C56 C 0.05264 0.8179 0.16521 0.0
C57 C 0.14836 0.82812 0.17538 0.0
O58 O 0.11074 0.86551 0.10039 0.0
O59 O 0.06969 0.86087 0.11657 0.0
O60 O 0.12155 0.82366 0.18118 0.0
O61 O 0.14975 0.83104 0.1461 0.0
C62 C 0.08571 0.7573 0.10127 0.0
O63 O 0.0803 0.82805 0.17709 0.0
O64 O 0.04724 0.81024 0.13481 0.0
In65 In 0.51769 0.79405 0.47578 0.0
O66 O 0.5425 0.78493 0.43169 0.0
O67 O 0.56807 0.81185 0.47441 0.0
C68 C 0.46225 0.79129 0.43606 0.0
C69 C 0.52603 0.73858 0.50148 0.0
C70 C 0.52385 0.85633 0.50384 0.0
O71 O 0.48729 0.79127 0.4261 0.0
O72 O 0.46418 0.79012 0.46617 0.0
O73 O 0.51919 0.83455 0.52026 0.0
O74 O 0.52574 0.8466 0.47508 0.0
C75 C 0.56819 0.80011 0.44582 0.0
O76 O 0.54206 0.76511 0.51148 0.0
O77 O 0.50395 0.74002 0.48076 0.0
In78 In 0.59825 0.3227 0.62741 0.0
O79 O 0.60033 0.27732 0.58971 0.0
O80 O 0.57873 0.26981 0.62935 0.0
C81 C 0.5934 0.38065 0.60371 0.0
C82 C 0.54941 0.31936 0.65713 0.0
C83 C 0.65185 0.32945 0.67066 0.0
O84 O 0.59183 0.3558 0.58515 0.0
O85 O 0.59867 0.37631 0.63266 0.0
O86 O 0.62621 0.32928 0.67866 0.0
O87 O 0.65129 0.3275 0.64029 0.0
C88 C 0.58699 0.25708 0.60481 0.0
O89 O 0.57617 0.32823 0.67186 0.0
O90 O 0.54713 0.31247 0.62678 0.0
In91 In 1.01727 0.29308 0.97498 0.0
O92 O 0.04006 0.2643 0.0127 0.0
O93 O 1.0046 0.23867 0.97878 0.0
C94 C 0.0269 0.35554 1.00459 0.0
C95 C 0.06568 0.29434 0.94265 0.0
C96 C 0.96259 0.29389 0.93507 0.0
O97 O 1.01172 0.33353 0.01588 0.0
O98 O 0.03809 0.34583 0.98069 0.0
O99 O 0.98838 0.29746 0.9262 0.0
O100 O 0.96348 0.28758 0.96362 0.0
C101 C 0.02529 0.23751 1.00131 0.0
O102 O 0.03877 0.2829 0.92892 0.0
O103 O 0.06775 0.30513 0.97204 0.0
In104 In 0.40964 0.03569 0.33571 0.0
O105 O 0.44627 0.06077 0.31129 0.0
O106 O 0.40634 0.03344 0.28214 0.0
C107 C 0.44499 0.03733 0.38989 0.0
C108 C 0.37325 0.07281 0.33837 0.0
C109 C 0.38334 0.97823 0.3187 0.0
O110 O 0.4548 0.03886 0.36356 0.0
O111 O 0.41698 0.03487 0.38929 0.0
O112 O 0.36947 0.99774 0.32864 0.0
O113 O 0.41129 0.98756 0.31853 0.0
C114 C 0.43208 0.05041 0.2833 0.0
O115 O 0.36384 0.04463 0.33557 0.0
O116 O 0.40162 0.08244 0.34401 0.0
In117 In 0.28474 0.21422 0.53389 0.0
O118 O 0.31404 0.24203 0.58243 0.0
O119 O 0.26709 0.23208 0.58093 0.0
C120 C 0.29081 0.24023 0.47676 0.0
C121 C 0.32664 0.18123 0.54086 0.0
C122 C 0.231 0.17245 0.52699 0.0
O123 O 0.28004 0.25207 0.50009 0.0
O124 O 0.29799 0.21598 0.48224 0.0
O125 O 0.25639 0.16567 0.53085 0.0
O126 O 0.23256 0.20018 0.52506 0.0
C127 C 0.29248 0.24295 0.59824 0.0
O128 O 0.29869 0.16949 0.53445 0.0
O129 O 0.33376 0.2098 0.54329 0.0
In130 In 0.15384 0.0832 0.81536 0.0
O131 O 0.12506 0.05454 0.76655 0.0
O132 O 0.13833 0.10155 0.76867 0.0
C133 C 0.12927 0.07699 0.87256 0.0
C134 C 0.18569 0.04024 0.8084 0.0
C135 C 0.19559 0.13711 0.82358 0.0
O136 O 0.11541 0.08498 0.84837 0.0
O137 O 0.1547 0.07267 0.86774 0.0
O138 O 0.20199 0.11147 0.82101 0.0
O139 O 0.16761 0.136 0.82311 0.0
C140 C 0.1259 0.07659 0.75109 0.0
O141 O 0.19781 0.0681 0.8158 0.0
O142 O 0.15708 0.0338 0.80454 0.0
In143 In 0.333 0.95339 1.00525 0.0
O144 O 0.3122 0.91762 0.03371 0.0
O145 O 0.33829 0.95998 0.05896 0.0
C146 C 0.32984 0.92024 0.94927 0.0
C147 C 0.29312 0.98666 1.0014 0.0
C148 C 0.38893 0.98406 0.01299 0.0
O149 O 0.3421 0.91376 0.97508 0.0
O150 O 0.31853 0.94311 0.9519 0.0
O151 O 0.36641 0.99531 0.00675 0.0
O152 O 0.38326 0.95627 0.01553 0.0
C153 C 0.32285 0.93417 0.06057 0.0
O154 O 0.32108 0.99809 1.00444 0.0
O155 O 0.28571 0.95801 0.99774 0.0
In156 In 0.34387 0.40243 0.06609 0.0
O157 O 0.34257 0.3607 0.09462 0.0
O158 O 0.3347 0.40056 0.11906 0.0
C159 C 0.33539 0.37078 1.0037 0.0
C160 C 0.29816 0.4317 0.0658 0.0
C161 C 0.3978 0.44389 0.06735 0.0
O162 O 0.35976 0.37545 0.02313 0.0
O163 O 0.31494 0.38056 0.0161 0.0
O164 O 0.37208 0.44781 0.05696 0.0
O165 O 0.39662 0.41932 0.07865 0.0
C166 C 0.33569 0.37336 0.12014 0.0
O167 O 0.32557 0.44557 0.0738 0.0
O168 O 0.29408 0.40335 0.05789 0.0
In169 In 0.7866 0.15054 0.09437 0.0
O170 O 0.81226 0.11419 0.10312 0.0
O171 O 0.83416 0.15667 0.09128 0.0
C172 C 0.73004 0.12105 0.08002 0.0
C173 C 0.79835 0.18212 0.15154 0.0
C174 C 0.78135 0.1846 0.04876 0.0
O175 O 0.75026 0.11188 0.06624 0.0
O176 O 0.73919 0.14305 0.10266 0.0
O177 O 0.78004 0.19319 0.0779 0.0
O178 O 0.78566 0.1582 0.04231 0.0
C179 C 0.83654 0.13151 0.09902 0.0
O180 O 0.80936 0.19134 0.12775 0.0
O181 O 0.78118 0.15594 0.14675 0.0
In182 In 0.21404 0.58222 0.25336 0.0
O183 O 0.25356 0.56087 0.24954 0.0
O184 O 0.20871 0.53306 0.24047 0.0
C185 C 0.23991 0.63969 0.26848 0.0
C186 C 0.1843 0.58468 0.19785 0.0
C187 C 0.1847 0.57504 0.30297 0.0
O188 O 0.25377 0.61984 0.27647 0.0
O189 O 0.21408 0.63051 0.25202 0.0
O190 O 0.17294 0.56375 0.2744 0.0
O191 O 0.21257 0.58701 0.30696 0.0
C192 C 0.23671 0.53449 0.24294 0.0
O193 O 0.17336 0.58713 0.22374 0.0
O194 O 0.21095 0.58067 0.19953 0.0
In195 In 0.84405 0.90527 0.56453 0.0
O196 O 0.83575 0.86248 0.59085 0.0
O197 O 0.84003 0.90491 0.61915 0.0
C198 C 0.83631 0.87593 0.50157 0.0
C199 C 0.79623 0.93136 0.56683 0.0
C200 C 0.8998 0.94344 0.56549 0.0
O201 O 0.84408 0.86366 0.52563 0.0
O202 O 0.83189 0.90197 0.50938 0.0
O203 O 0.8749 0.94808 0.55363 0.0
O204 O 0.89714 0.91978 0.57869 0.0
C205 C 0.83459 0.87652 0.61834 0.0
O206 O 0.82308 0.94584 0.57702 0.0
O207 O 0.7936 0.90388 0.55539 0.0
In208 In 0.96518 0.02585 0.28108 0.0
O209 O 1.00798 0.03407 0.25419 0.0
O210 O 0.96528 0.02701 0.22616 0.0
C211 C 0.99523 0.03476 0.344 0.0
C212 C 0.93702 0.07247 0.28329 0.0
C213 C 0.92684 0.96993 0.27943 0.0
O214 O 0.99762 1.01398 0.32238 0.0
O215 O 0.97871 0.05163 0.33377 0.0
O216 O 0.91825 0.99126 0.26745 0.0
O217 O 0.95468 0.97614 0.29046 0.0
C218 C 0.99344 0.03364 0.22661 0.0
O219 O 0.92279 0.04519 0.28054 0.0
O220 O 0.96544 0.07616 0.28627 0.0
In221 In 0.28678 0.65433 0.59338 0.0
O222 O 0.3108 0.61654 0.59265 0.0
O223 O 0.33601 0.66198 0.60967 0.0
C224 C 0.22952 0.62649 0.57659 0.0
C225 C 0.28302 0.68601 0.64711 0.0
C226 C 0.2975 0.68169 0.5434 0.0
O227 O 0.24921 0.61274 0.58693 0.0
O228 O 0.23903 0.65407 0.5751 0.0
O229 O 0.30517 0.69498 0.57207 0.0
O230 O 0.2873 0.65339 0.54007 0.0
C231 C 0.33624 0.63445 0.60279 0.0
O232 O 0.28009 0.69559 0.62055 0.0
O233 O 0.28722 0.65955 0.64679 0.0
In234 In 0.46265 0.52454 0.77992 0.0
O235 O 0.42006 0.5429 0.77021 0.0
O236 O 0.46189 0.57429 0.7896 0.0
C237 C 0.42294 0.46914 0.77866 0.0
C238 C 0.49229 0.53493 0.72633 0.0
C239 C 0.49328 0.53325 0.84254 0.0
O240 O 0.41927 0.49416 0.79167 0.0
O241 O 0.44632 0.4718 0.76509 0.0
O242 O 0.4971 0.51397 0.82009 0.0
O243 O 0.4754 0.54901 0.83306 0.0
C244 C 0.43381 0.5701 0.78021 0.0
O245 O 0.50555 0.53025 0.75275 0.0
O246 O 0.46438 0.5329 0.72651 0.0
In247 In 0.71653 0.0845 0.75308 0.0
O248 O 0.75504 0.06244 0.7461 0.0
O249 O 0.7101 0.03514 0.74039 0.0
C250 C 0.74511 0.14136 0.76934 0.0
C251 C 0.68428 0.08825 0.69951 0.0
C252 C 0.68722 0.07637 0.80252 0.0
O253 O 0.75842 0.12036 0.7746 0.0
O254 O 0.7186 0.1332 0.75424 0.0
O255 O 0.67565 0.06516 0.7739 0.0
O256 O 0.71507 0.08853 0.80668 0.0
C257 C 0.73786 0.0362 0.74056 0.0
O258 O 0.67666 0.09454 0.72669 0.0
O259 O 0.7092 0.08046 0.69901 0.0
In260 In 0.7825 0.71188 0.0341 0.0
O261 O 0.79647 0.66711 0.03537 0.0
O262 O 0.83173 0.70609 0.04063 0.0
C263 C 0.72869 0.67179 0.02775 0.0
C264 C 0.7892 0.74036 0.09854 0.0
C265 C 0.78564 0.73905 0.97777 0.0
O266 O 0.75184 0.66459 0.01835 0.0
O267 O 0.73221 0.69959 0.03928 0.0
O268 O 0.80028 0.75136 1.00512 0.0
O269 O 0.76777 0.71448 0.97918 0.0
C270 C 0.82445 0.67791 0.04007 0.0
O271 O 0.80987 0.74412 0.08123 0.0
O272 O 0.76467 0.72431 0.08286 0.0
In273 In 0.91305 0.53882 0.84321 0.0
O274 O 0.87276 0.55903 0.84633 0.0
O275 O 0.91618 0.58833 0.84757 0.0
C276 C 0.88585 0.4809 0.82951 0.0
C277 C 0.93588 0.54948 0.78995 0.0
C278 C 0.94362 0.53969 0.90025 0.0
O279 O 0.87088 0.50124 0.83016 0.0
O280 O 0.91414 0.48982 0.8359 0.0
O281 O 0.95351 0.53317 0.87439 0.0
O282 O 0.91818 0.54659 0.89761 0.0
C283 C 0.88791 0.58539 0.84543 0.0
O284 O 0.95186 0.55647 0.81752 0.0
O285 O 0.90861 0.53663 0.78953 0.0
In286 In 0.83067 0.46023 0.50848 0.0
O287 O 0.81408 0.42457 0.53878 0.0
O288 O 0.83811 0.4685 0.56226 0.0
C289 C 0.82578 0.42497 0.45329 0.0
C290 C 0.78885 0.4915 0.50414 0.0
C291 C 0.88907 0.48495 0.51914 0.0
O292 O 0.82769 0.41506 0.47987 0.0
O293 O 0.82582 0.45276 0.45467 0.0
O294 O 0.86969 0.50046 0.52343 0.0
O295 O 0.87891 0.45712 0.50913 0.0
C296 C 0.82573 0.44183 0.56497 0.0
O297 O 0.81559 0.50247 0.50025 0.0
O298 O 0.78262 0.46348 0.50555 0.0
In299 In 0.65659 0.58222 0.31203 0.0
O300 O 0.69468 0.55779 0.31928 0.0
O301 O 0.65169 0.5318 0.29539 0.0
C302 C 0.69652 0.63702 0.3182 0.0
C303 C 0.63075 0.57734 0.24713 0.0
C304 C 0.63335 0.576 0.37043 0.0
O305 O 0.70431 0.6121 0.3163 0.0
O306 O 0.66849 0.63462 0.31842 0.0
O307 O 0.61807 0.58142 0.34549 0.0
O308 O 0.65965 0.5742 0.36586 0.0
C309 C 0.67915 0.53239 0.3051 0.0
O310 O 0.61551 0.57906 0.27025 0.0
O311 O 0.6581 0.57807 0.25685 0.0
C312 C 1.00533 0.97497 0.99547 0.0
C313 C 0.97846 0.94423 0.03077 0.0
C314 C 0.99534 0.97216 0.02525 0.0
C315 C 0.97201 0.91902 1.00636 0.0
C316 C 0.99884 0.94949 0.97109 0.0
C317 C 0.98248 0.92156 0.97681 0.0
N318 N 1.0207 1.00251 0.99008 0.0
C319 C 0.02725 1.00631 0.95991 0.0
C320 C 1.00855 0.95288 0.94135 0.0
C321 C 0.02204 0.98152 0.93546 0.0
Gd322 Gd 0.10514 0.0779 0.07293 0.0
Gd323 Gd 0.02498 0.04198 0.03282 0.0
N324 N 1.00273 0.99664 0.04907 0.0
C325 C 0.96849 0.94243 0.0607 0.0
C326 C 0.9927 0.99511 0.07808 0.0
C327 C 0.97555 0.96804 0.0844 0.0
H328 H 0.99671 1.01501 0.09577 0.0
H329 H 0.9676 0.96704 0.10743 0.0
H330 H 0.14395 0.09414 0.01292 0.0
H331 H 0.03508 0.02836 0.95367 0.0
H332 H 0.17648 0.13816 0.99707 0.0
H333 H 0.95528 0.9214 0.06572 0.0
H334 H 0.95903 0.89738 0.01014 0.0
H335 H 0.09005 0.10232 0.1482 0.0
H336 H 1.00519 0.93366 0.92251 0.0
H337 H 0.02789 0.98464 0.91184 0.0
H338 H 0.17826 0.21968 0.08097 0.0
H339 H 0.97746 0.90179 0.95831 0.0
H340 H 0.12295 0.19809 0.16727 0.0
H341 H 0.09641 0.15062 0.18343 0.0
N342 N 0.11087 0.12189 0.11088 0.0
C343 C 0.12805 0.14747 0.10312 0.0
C344 C 0.10077 0.12263 0.14003 0.0
C345 C 0.1204 0.17676 0.15177 0.0
C346 C 0.10497 0.15008 0.16063 0.0
C347 C 0.13302 0.17559 0.1233 0.0
H348 H 0.15356 0.22357 0.12892 0.0
N349 N 0.13437 0.11884 0.05467 0.0
C350 C 0.14084 0.14567 0.07485 0.0
C351 C 0.17258 0.16872 0.03867 0.0
C352 C 0.15978 0.17149 0.06703 0.0
C353 C 0.14736 0.11585 0.02745 0.0
C354 C 0.16639 0.14071 0.01884 0.0
O355 O 0.0497 1.00534 0.05072 0.0
O356 O 0.09524 0.02771 0.08229 0.0
O357 O 0.14459 0.06297 0.06207 0.0
O358 O 0.14387 0.08505 0.11139 0.0
O359 O 0.03026 0.06604 0.08438 0.0
O360 O 0.075 0.05867 0.1078 0.0
O361 O 0.08128 0.11475 0.05139 0.0
O362 O 0.03072 0.09367 0.03275 0.0
O363 O 0.98041 0.04088 0.04338 0.0
O364 O 0.98822 0.03809 0.99368 0.0
O365 O 0.09874 0.05442 0.02097 0.0
O366 O 0.05504 0.06462 0.99942 0.0
C367 C 0.07408 1.0029 0.06992 0.0
C368 C 0.04706 0.06066 0.1096 0.0
C369 C 0.18943 0.06837 0.1004 0.0
C370 C 0.232 0.05002 0.08411 0.0
C371 C 0.23305 0.07007 0.14019 0.0
C372 C 0.20424 0.0756 0.13246 0.0
C373 C 0.247 0.05729 0.11604 0.0
C374 C 0.20351 0.05571 0.07641 0.0
C375 C 0.15879 0.07225 0.09149 0.0
C376 C 0.16446 0.19944 0.08702 0.0
C377 C 0.15053 0.20159 0.11458 0.0
H378 H 0.18713 0.18807 0.03182 0.0
C379 C 0.05372 0.11778 0.0389 0.0
C380 C 0.08251 0.0616 0.99654 0.0
C381 C 0.94877 0.06019 0.00808 0.0
C382 C 0.91591 0.08956 0.02959 0.0
C383 C 0.91952 0.08496 0.97255 0.0
C384 C 0.94022 0.06672 0.9771 0.0
C385 C 0.90729 0.09641 0.9988 0.0
C386 C 0.93655 0.07178 0.03419 0.0
C387 C 0.9688 0.03986 0.01344 0.0
H388 H 0.24441 0.07539 0.16493 0.0
H389 H 0.1935 0.08512 0.15144 0.0
H390 H 0.26908 0.05258 0.12228 0.0
H391 H 0.19224 0.04978 0.05155 0.0
H392 H 0.91271 0.0899 0.9487 0.0
H393 H 0.94923 0.05753 0.95649 0.0
H394 H 0.89082 0.11012 0.99506 0.0
H395 H 0.94266 0.06678 0.05828 0.0
C396 C 0.3434 0.75683 0.2304 0.0
C397 C 0.30105 0.73331 0.18867 0.0
C398 C 0.3154 0.75687 0.21422 0.0
C399 C 0.31489 0.70917 0.18089 0.0
C400 C 0.35825 0.73359 0.22157 0.0
C401 C 0.34353 0.70938 0.19723 0.0
N402 N 0.35689 0.78047 0.2537 0.0
C403 C 0.38597 0.78338 0.26778 0.0
C404 C 0.38771 0.7358 0.23697 0.0
C405 C 0.40183 0.76113 0.25986 0.0
Gd406 Gd 0.27966 0.82045 0.3525 0.0
Gd407 Gd 0.32775 0.81426 0.27073 0.0
N408 N 0.30289 0.78071 0.22247 0.0
C409 C 0.27365 0.73509 0.1712 0.0
C410 C 0.27771 0.78384 0.20312 0.0
C411 C 0.26231 0.76085 0.17799 0.0
H412 H 0.2694 0.80409 0.206 0.0
H413 H 0.24193 0.76326 0.16354 0.0
H414 H 0.3451 0.84338 0.40657 0.0
H415 H 0.39705 0.80306 0.28481 0.0
H416 H 0.3676 0.88387 0.45166 0.0
H417 H 0.2618 0.7174 0.15157 0.0
H418 H 0.30403 0.69071 0.16165 0.0
H419 H 0.21069 0.83218 0.32835 0.0
H420 H 0.39999 0.71853 0.2308 0.0
H421 H 0.42488 0.76357 0.27138 0.0
H422 H 0.29244 0.94231 0.46078 0.0
H423 H 0.35439 0.69111 0.19038 0.0
H424 H 0.19995 0.91141 0.38631 0.0
H425 H 0.18004 0.86886 0.34151 0.0
N426 N 0.24848 0.85427 0.3637 0.0
C427 C 0.2594 0.87683 0.38921 0.0
C428 C 0.22018 0.85111 0.34702 0.0
C429 C 0.21371 0.89547 0.38029 0.0
C430 C 0.20247 0.87163 0.35489 0.0
C431 C 0.24241 0.89825 0.39792 0.0
H432 H 0.24183 0.93844 0.43077 0.0
N433 N 0.30415 0.85839 0.39665 0.0
C434 C 0.28788 0.87881 0.4064 0.0
C435 C 0.32919 0.90435 0.44862 0.0
C436 C 0.30017 0.90254 0.43234 0.0
C437 C 0.33227 0.85977 0.41306 0.0
C438 C 0.34521 0.88279 0.43903 0.0
O439 O 0.31361 0.77181 0.29066 0.0
O440 O 0.27291 0.78543 0.3082 0.0
O441 O 0.28021 0.79039 0.38818 0.0
O442 O 0.23737 0.79971 0.36686 0.0
O443 O 0.28027 0.82363 0.25945 0.0
O444 O 0.25145 0.81976 0.30209 0.0
O445 O 0.30314 0.86672 0.34785 0.0
O446 O 0.31389 0.83449 0.31286 0.0
O447 O 0.32878 0.85425 0.24837 0.0
O448 O 0.37075 0.84262 0.26569 0.0
O449 O 0.32641 0.8062 0.36141 0.0
O450 O 0.35663 0.81446 0.32013 0.0
C451 C 0.28932 0.76541 0.30422 0.0
C452 C 0.25463 0.82343 0.27152 0.0
C453 C 0.23456 0.76663 0.4069 0.0
C454 C 0.23597 0.7348 0.4482 0.0
C455 C 0.18768 0.73997 0.42124 0.0
C456 C 0.20281 0.75943 0.40254 0.0
C457 C 0.20417 0.72749 0.44395 0.0
C458 C 0.25094 0.75484 0.43016 0.0
C459 C 0.25099 0.7861 0.38726 0.0
C460 C 0.28333 0.92392 0.44096 0.0
C461 C 0.25453 0.92175 0.42384 0.0
H462 H 0.33941 0.92226 0.46863 0.0
C463 C 0.3178 0.86268 0.32471 0.0
C464 C 0.35291 0.80852 0.34996 0.0
C465 C 0.36854 0.86584 0.21879 0.0
C466 C 0.36039 0.88324 0.16744 0.0
C467 C 0.4062 0.86645 0.18299 0.0
C468 C 0.39646 0.86043 0.21203 0.0
C469 C 0.3882 0.87782 0.16067 0.0
C470 C 0.35067 0.87754 0.19641 0.0
C471 C 0.35796 0.85998 0.24914 0.0
H472 H 0.16322 0.73444 0.41797 0.0
H473 H 0.18977 0.76868 0.3847 0.0
H474 H 0.19216 0.71211 0.45805 0.0
H475 H 0.27547 0.76135 0.43437 0.0
H476 H 0.42777 0.86245 0.17786 0.0
H477 H 0.41078 0.85168 0.22914 0.0
H478 H 0.39607 0.88278 0.13832 0.0
H479 H 0.32931 0.88243 0.20144 0.0
C480 C 0.62262 0.10798 0.50366 0.0
C481 C 0.6627 0.14332 0.54158 0.0
C482 C 0.63896 0.11708 0.53478 0.0
C483 C 0.66893 0.16103 0.51732 0.0
C484 C 0.63015 0.12496 0.47888 0.0
C485 C 0.65275 0.15185 0.48606 0.0
N486 N 0.6013 0.08141 0.49702 0.0
C487 C 0.58958 0.069 0.46566 0.0
C488 C 0.61584 0.11367 0.4472 0.0
C489 C 0.59608 0.08522 0.44047 0.0
Gd490 Gd 0.51381 0.05129 0.58393 0.0
Gd491 Gd 0.59338 0.05651 0.5418 0.0
N492 N 0.63303 0.09927 0.55781 0.0
C493 C 0.68048 0.1502 0.57215 0.0
C494 C 0.65246 0.10399 0.58604 0.0
C495 C 0.67581 0.12999 0.5942 0.0
H496 H 0.65095 0.08708 0.60151 0.0
H497 H 0.69073 0.13392 0.61705 0.0
H498 H 0.45881 0.0179 0.52461 0.0
H499 H 0.57545 0.04636 0.45972 0.0
H500 H 0.41975 0.97008 0.51006 0.0
H501 H 0.69891 0.17012 0.57828 0.0
H502 H 0.68687 0.18139 0.52222 0.0
H503 H 0.54311 0.05545 0.66437 0.0
H504 H 0.62101 0.12606 0.42755 0.0
H505 H 0.58611 0.07558 0.41582 0.0
H506 H 0.43102 0.92013 0.60286 0.0
H507 H 0.6585 0.16529 0.46736 0.0
H508 H 0.50296 0.97278 0.69447 0.0
H509 H 0.5382 0.02303 0.70604 0.0
N510 N 0.51314 0.0229 0.62723 0.0
C511 C 0.4925 0.99574 0.62086 0.0
C512 C 0.52876 0.03305 0.65778 0.0
C513 C 0.50562 0.98657 0.67543 0.0
C514 C 0.5256 1.01489 0.68202 0.0
C515 C 0.48839 0.97686 0.64478 0.0
H516 H 0.46322 0.93463 0.65589 0.0
N517 N 0.47764 1.00619 0.56837 0.0
C518 C 0.47405 0.98737 0.59083 0.0
C519 C 0.43237 0.95361 0.55431 0.0
C520 C 0.45151 0.96025 0.58412 0.0
C521 C 0.45776 1.00102 0.5404 0.0
C522 C 0.43523 0.97434 0.53256 0.0
O523 O 0.5851 0.10461 0.56057 0.0
O524 O 0.54118 0.10135 0.58518 0.0
O525 O 0.47687 0.07192 0.56768 0.0
O526 O 0.48207 0.05972 0.61568 0.0
O527 O 0.57351 0.04398 0.58427 0.0
O528 O 0.5552 0.07347 0.61781 0.0
O529 O 0.52394 1.00453 0.56287 0.0
O530 O 0.5636 1.0079 0.53204 0.0
O531 O 0.63101 0.03624 0.56212 0.0
O532 O 0.61712 0.03501 0.5102 0.0
O533 O 0.51056 0.05363 0.53154 0.0
O534 O 0.55166 0.04474 0.50636 0.0
C535 C 0.5655 0.11768 0.5753 0.0
C536 C 0.57797 0.06317 0.61038 0.0
C537 C 0.45554 0.09806 0.60779 0.0
C538 C 0.41834 0.12886 0.60164 0.0
C539 C 0.45085 0.13413 0.65306 0.0
C540 C 0.46487 0.11213 0.64004 0.0
C541 C 0.42761 0.14237 0.63409 0.0
C542 C 0.43247 0.10673 0.58856 0.0
C543 C 0.46658 0.07174 0.59506 0.0
C544 C 0.44818 0.9411 0.60759 0.0
C545 C 0.46654 0.94938 0.6378 0.0
H546 H 0.4147 0.93306 0.54832 0.0
C547 C 0.541 0.9918 0.54412 0.0
C548 C 0.52388 0.04765 0.50661 0.0
C549 C 0.65638 1.00942 0.52176 0.0
C550 C 0.69729 0.98333 0.531 0.0
C551 C 0.67317 0.98246 0.47641 0.0
C552 C 0.6542 0.9998 0.48828 0.0
C553 C 0.69458 0.97423 0.4976 0.0
C554 C 0.67823 1.00111 0.54333 0.0
C555 C 0.63509 0.02755 0.53253 0.0
H556 H 0.45774 0.14456 0.67806 0.0
H557 H 0.4824 0.1056 0.65545 0.0
H558 H 0.41689 0.15941 0.64474 0.0
H559 H 0.42468 0.0954 0.5639 0.0
H560 H 0.67118 0.97528 0.45068 0.0
H561 H 0.63769 1.00558 0.47087 0.0
H562 H 0.70912 0.96056 0.4879 0.0
H563 H 0.6802 1.00804 0.56914 0.0
C564 C 0.24472 0.336 0.73736 0.0
C565 C 0.20869 0.29132 0.70765 0.0
C566 C 0.23143 0.30525 0.73406 0.0
C567 C 0.20014 0.3085 0.68423 0.0
C568 C 0.23616 0.35326 0.71383 0.0
C569 C 0.21398 0.33931 0.68719 0.0
N570 N 0.26602 0.34901 0.76347 0.0
C571 C 0.27886 0.3793 0.76806 0.0
C572 C 0.25007 0.38411 0.71782 0.0
C573 C 0.27138 0.3972 0.74516 0.0
Gd574 Gd 0.35155 0.2861 0.80693 0.0
Gd575 Gd 0.27664 0.3168 0.80023 0.0
N576 N 0.24145 0.28879 0.75611 0.0
C577 C 0.19563 0.26038 0.70527 0.0
C578 C 0.22899 0.25863 0.75369 0.0
C579 C 0.20588 0.24397 0.7284 0.0
H580 H 0.23676 0.24576 0.77103 0.0
H581 H 0.19617 0.21998 0.72663 0.0
H582 H 0.39468 0.35723 0.828 0.0
H583 H 0.29424 0.38997 0.78978 0.0
H584 H 0.43302 0.38689 0.87256 0.0
H585 H 0.17806 0.24887 0.68541 0.0
H586 H 0.18298 0.29811 0.6636 0.0
H587 H 0.34845 0.21423 0.81669 0.0
H588 H 0.24419 0.39811 0.70021 0.0
H589 H 0.28176 0.42117 0.74883 0.0
H590 H 0.44596 0.31589 0.94498 0.0
H591 H 0.20721 0.35222 0.66883 0.0
H592 H 0.39411 0.21227 0.91063 0.0
H593 H 0.36232 0.1851 0.85955 0.0
N594 N 0.36684 0.25688 0.84518 0.0
C595 C 0.38634 0.27209 0.87179 0.0
C596 C 0.35951 0.22604 0.84004 0.0
C597 C 0.38668 0.22503 0.89243 0.0
C598 C 0.36856 0.20962 0.86378 0.0
C599 C 0.39664 0.25657 0.89629 0.0
H600 H 0.42539 0.26126 0.94227 0.0
N601 N 0.38732 0.3172 0.84931 0.0
C602 C 0.39754 0.30299 0.87354 0.0
C603 C 0.43249 0.34959 0.89925 0.0
C604 C 0.41992 0.31896 0.89948 0.0
C605 C 0.40047 0.3467 0.84841 0.0
C606 C 0.4229 0.36342 0.87342 0.0
O607 O 0.29035 0.30046 0.75141 0.0
O608 O 0.31945 0.26574 0.76031 0.0
O609 O 0.39168 0.30087 0.78399 0.0
O610 O 0.37463 0.25311 0.78796 0.0
O611 O 0.27635 0.27438 0.82322 0.0
O612 O 0.30902 0.2481 0.80167 0.0
O613 O 0.33594 0.30066 0.85509 0.0
O614 O 0.3111 0.33811 0.8445 0.0
O615 O 0.23919 0.30234 0.82766 0.0
O616 O 0.25014 0.34805 0.81526 0.0
O617 O 0.34971 0.32754 0.78234 0.0
O618 O 0.3203 0.3533 0.80944 0.0
C619 C 0.30402 0.27924 0.74056 0.0
C620 C 0.28393 0.24873 0.81414 0.0
C621 C 0.41937 0.26377 0.76337 0.0
C622 C 0.45916 0.27268 0.73039 0.0
C623 C 0.44676 0.22477 0.75028 0.0
C624 C 0.42455 0.23473 0.76555 0.0
C625 C 0.46397 0.24361 0.73267 0.0
C626 C 0.43696 0.28295 0.74589 0.0
C627 C 0.39501 0.27307 0.77871 0.0
C628 C 0.42923 0.30385 0.92459 0.0
C629 C 0.41747 0.27276 0.92309 0.0
H630 H 0.44981 0.36262 0.91863 0.0
C631 C 0.32413 0.32359 0.86504 0.0
C632 C 0.34308 0.35323 0.79319 0.0
C633 C 0.20881 0.33859 0.84586 0.0
C634 C 0.16678 0.33019 0.87706 0.0
C635 C 0.18593 0.3801 0.86365 0.0
C636 C 0.20716 0.36916 0.84768 0.0
C637 C 0.16596 0.36085 0.87822 0.0
C638 C 0.18829 0.3188 0.86062 0.0
C639 C 0.23297 0.32906 0.82944 0.0
H640 H 0.45058 0.20237 0.75202 0.0
H641 H 0.41137 0.2196 0.77904 0.0
H642 H 0.48116 0.23556 0.72083 0.0
H643 H 0.43318 0.30538 0.74393 0.0
H644 H 0.18504 0.4037 0.86486 0.0
H645 H 0.22253 0.38499 0.8369 0.0
H646 H 0.14963 0.37 0.89057 0.0
H647 H 0.18931 0.29522 0.85979 0.0
C648 C 0.03048 0.12536 0.60924 0.0
C649 C 0.0726 0.16739 0.6331 0.0
C650 C 0.06026 0.14104 0.6103 0.0
C651 C 0.05529 0.17677 0.65594 0.0
C652 C 1.01306 0.13485 0.63213 0.0
C653 C 0.02574 0.16036 0.65569 0.0
N654 N 1.01835 0.10138 0.58544 0.0
C655 C 0.98877 0.08648 0.58274 0.0
C656 C 0.98313 0.11881 0.63029 0.0
C657 C 0.97093 0.09462 0.60541 0.0
Gd658 Gd 0.08189 0.01834 0.54138 0.0
Gd659 Gd 0.05001 0.0924 0.54754 0.0
N660 N 0.0771 0.13063 0.58896 0.0
C661 C 0.10199 0.1836 0.6322 0.0
C662 C 0.10608 0.14568 0.58885 0.0
C663 C 0.1189 0.17253 0.61011 0.0
H664 H 0.11931 0.13725 0.57243 0.0
H665 H 0.14192 0.18441 0.60973 0.0
H666 H 1.01224 0.97323 0.51818 0.0
H667 H 0.97831 0.06902 0.56262 0.0
H668 H 0.98488 0.93422 0.4729 0.0
H669 H 0.11213 0.20415 0.64904 0.0
H670 H 0.06456 0.19671 0.67392 0.0
H671 H 0.15439 0.03339 0.52962 0.0
H672 H 0.96906 0.12535 0.6475 0.0
H673 H 0.94754 0.08265 0.60324 0.0
H674 H 0.0594 0.92428 0.40416 0.0
H675 H 1.01266 0.16794 0.67347 0.0
H676 H 0.16005 0.9842 0.43861 0.0
H677 H 0.18462 0.02058 0.48771 0.0
N678 N 0.11277 1.00753 0.50314 0.0
C679 C 0.09903 0.98636 0.47711 0.0
C680 C 0.1432 0.01916 0.50746 0.0
C681 C 0.14655 0.99054 0.45655 0.0
C682 C 0.16048 1.01121 0.48411 0.0
C683 C 0.11558 0.97744 0.453 0.0
H684 H 0.11328 0.94837 0.4077 0.0
N685 N 0.05292 0.98224 0.49837 0.0
C686 C 0.06847 0.97291 0.47497 0.0
C687 C 0.02346 0.93622 0.44803 0.0
C688 C 0.05399 0.94994 0.44892 0.0
C689 C 0.0236 0.96798 0.49828 0.0
C690 C 1.00828 0.94518 0.47294 0.0
O691 O 0.06918 0.08143 0.59714 0.0
O692 O 0.10013 0.04746 0.59013 0.0
O693 O 0.06767 0.97761 0.5638 0.0
O694 O 0.11483 0.99369 0.55671 0.0
O695 O 0.09187 0.09158 0.52397 0.0
O696 O 0.11862 0.06209 0.54986 0.0
O697 O 0.06563 0.03289 0.49281 0.0
O698 O 0.02863 0.05859 0.50286 0.0
O699 O 0.06237 0.1296 0.5196 0.0
O700 O 1.01758 0.11854 0.53382 0.0
O701 O 0.04005 0.01883 0.56546 0.0
O702 O 1.01465 0.0481 0.53765 0.0
C703 C 0.08865 0.06603 0.60881 0.0
C704 C 0.11784 0.08612 0.53561 0.0
C705 C 0.10454 0.94769 0.57932 0.0
C706 C 0.09967 0.90872 0.61413 0.0
C707 C 0.13858 0.91346 0.57946 0.0
C708 C 0.12894 0.93768 0.56804 0.0
C709 C 0.1241 0.89905 0.60229 0.0
C710 C 0.08971 0.93307 0.6023 0.0
C711 C 0.0952 0.97342 0.56676 0.0
C712 C 0.07027 0.94156 0.42455 0.0
C713 C 0.10094 0.95534 0.42653 0.0
H714 H 1.01152 0.91857 0.42841 0.0
C715 C 0.04282 0.04482 0.48255 0.0
C716 C 1.01458 0.02507 0.55352 0.0
C717 C 0.02664 0.16125 0.50458 0.0
C718 C 0.03455 0.20367 0.47374 0.0
C719 C 0.98794 0.18998 0.49588 0.0
C720 C 0.9981 0.16668 0.50874 0.0
C721 C 1.00595 0.20832 0.47858 0.0
C722 C 0.04514 0.18001 0.48691 0.0
C723 C 0.03612 0.13636 0.51976 0.0
H724 H 0.15733 0.90579 0.57053 0.0
H725 H 0.14049 0.9485 0.55019 0.0
H726 H 0.13189 0.88004 0.61053 0.0
H727 H 0.07108 0.94097 0.61135 0.0
H728 H 0.96591 0.19385 0.49934 0.0
H729 H 0.98345 0.15295 0.5222 0.0
H730 H 0.99741 0.22626 0.46867 0.0
H731 H 0.06709 0.17611 0.48314 0.0
C732 C 0.2574 0.75062 0.84765 0.0
C733 C 0.21978 0.71009 0.81246 0.0
C734 C 0.24739 0.73185 0.81782 0.0
C735 C 0.20119 0.70874 0.83649 0.0
C736 C 0.23921 0.74818 0.87227 0.0
C737 C 0.21079 0.72783 0.86622 0.0
N738 N 0.28557 0.76944 0.85334 0.0
C739 C 0.29769 0.78397 0.88395 0.0
C740 C 0.25056 0.76532 0.90275 0.0
C741 C 0.28009 0.78285 0.90874 0.0
Gd742 Gd 0.31672 0.85155 0.7637 0.0
Gd743 Gd 0.30991 0.77039 0.8073 0.0
N744 N 0.26538 0.73374 0.79454 0.0
C745 C 0.2123 0.68948 0.7836 0.0
C746 C 0.25999 0.7118 0.76826 0.0
C747 C 0.23293 0.68984 0.76178 0.0
H748 H 0.27705 0.71074 0.75299 0.0
H749 H 0.22832 0.67286 0.7404 0.0
H750 H 0.34884 0.90095 0.83018 0.0
H751 H 0.321 0.79623 0.88989 0.0
H752 H 0.39667 0.93863 0.85005 0.0
H753 H 0.1914 0.67226 0.7787 0.0
H754 H 0.17974 0.69238 0.83269 0.0
H755 H 0.31268 0.83826 0.68064 0.0
H756 H 0.2372 0.76415 0.92222 0.0
H757 H 0.28953 0.79509 0.93267 0.0
H758 H 0.44921 0.94004 0.7587 0.0
H759 H 0.1965 0.72587 0.88484 0.0
H760 H 0.39792 0.88123 0.65843 0.0
H761 H 0.34658 0.84898 0.64112 0.0
N762 N 0.34579 0.86044 0.72173 0.0
C763 C 0.37307 0.88034 0.73139 0.0
C764 C 0.33565 0.85072 0.68938 0.0
C765 C 0.38348 0.87571 0.67635 0.0
C766 C 0.35458 0.85741 0.66649 0.0
C767 C 0.39273 0.88815 0.70891 0.0
H768 H 0.43579 0.91518 0.70227 0.0
N769 N 0.36086 0.88824 0.78451 0.0
C770 C 0.38064 0.8948 0.76341 0.0
C771 C 0.41408 0.93204 0.80521 0.0
C772 C 0.40801 0.91672 0.77344 0.0
C773 C 0.36583 0.90437 0.8148 0.0
C774 C 0.39266 0.92618 0.8258 0.0
O775 O 0.26282 0.77777 0.78358 0.0
O776 O 0.26671 0.82346 0.76176 0.0
O777 O 0.30194 0.89294 0.7812 0.0
O778 O 0.29408 0.87323 0.72974 0.0
O779 O 0.31454 0.79657 0.76876 0.0
O780 O 0.30645 0.8128 0.72417 0.0
O781 O 0.36332 0.84106 0.7867 0.0
O782 O 0.36011 0.79739 0.81268 0.0
O783 O 0.33198 0.73873 0.78131 0.0
O784 O 0.32103 0.73367 0.8294 0.0
O785 O 0.30185 0.83609 0.80887 0.0
O786 O 0.32871 0.81243 0.84132 0.0
C787 C 0.25016 0.79803 0.76952 0.0
C788 C 0.30844 0.78997 0.73795 0.0
C789 C 0.27662 0.9184 0.74153 0.0
C790 C 0.24938 0.95763 0.75269 0.0
C791 C 0.2585 0.94358 0.69818 0.0
C792 C 0.27358 0.92226 0.70882 0.0
C793 C 0.24642 0.96125 0.72002 0.0
C794 C 0.26445 0.93618 0.76356 0.0
C795 C 0.29092 0.89454 0.75155 0.0
C796 C 0.42805 0.92335 0.75136 0.0
C797 C 0.42044 0.90913 0.71922 0.0
H798 H 0.43481 0.94907 0.81376 0.0
C799 C 0.37617 0.82192 0.80288 0.0
C800 C 0.32079 0.8372 0.83501 0.0
C801 C 0.3628 0.71605 0.81635 0.0
C802 C 0.39183 0.67717 0.81756 0.0
C803 C 0.40614 0.72231 0.8581 0.0
C804 C 0.38238 0.73331 0.84365 0.0
C805 C 0.41068 0.69423 0.84537 0.0
C806 C 0.36797 0.68826 0.80295 0.0
C807 C 0.33404 0.72385 0.80577 0.0
H808 H 0.25607 0.94631 0.67297 0.0
H809 H 0.28269 0.90866 0.69134 0.0
H810 H 0.23461 0.9777 0.71144 0.0
H811 H 0.26635 0.93318 0.78876 0.0
H812 H 0.42068 0.73527 0.87961 0.0
H813 H 0.37844 0.75461 0.85463 0.0
H814 H 0.42901 0.68582 0.85713 0.0
H815 H 0.35258 0.6746 0.78229 0.0
C816 C 0.61113 0.0222 0.11004 0.0
C817 C 0.63544 0.06352 0.15288 0.0
C818 C 0.61117 0.04971 0.12797 0.0
C819 C 0.66028 0.05009 0.15808 0.0
C820 C 0.63531 1.0079 0.11607 0.0
C821 C 0.66017 0.02227 0.13977 0.0
N822 N 0.58719 1.00929 0.08673 0.0
C823 C 0.58514 0.98143 0.06955 0.0
C824 C 0.63367 0.97951 0.09814 0.0
C825 C 0.60825 0.96605 0.07509 0.0
Gd826 Gd 0.55688 0.0933 0.9962 0.0
Gd827 Gd 0.55258 0.03878 0.07398 0.0
N828 N 0.58675 0.06204 0.1221 0.0
C829 C 0.63351 0.08978 0.17258 0.0
C830 C 0.58343 0.0857 0.14366 0.0
C831 C 0.60696 0.1003 0.16861 0.0
H832 H 0.5627 0.09353 0.14235 0.0
H833 H 0.60447 0.11953 0.18496 0.0
H834 H 0.54194 0.03538 0.93283 0.0
H835 H 0.56586 0.97122 0.05119 0.0
H836 H 0.50121 1.01295 0.88768 0.0
H837 H 0.65168 0.10115 0.19191 0.0
H838 H 0.67929 0.0606 0.17681 0.0
H839 H 0.54588 0.16233 0.02233 0.0
H840 H 0.65174 0.96771 0.10208 0.0
H841 H 0.60667 0.94405 0.06122 0.0
H842 H 0.43851 0.08509 0.8851 0.0
H843 H 0.67916 1.01183 0.1445 0.0
H844 H 0.46712 0.17469 0.96436 0.0
H845 H 0.50886 0.19314 0.0102 0.0
N846 N 0.52541 0.1265 0.98372 0.0
C847 C 0.50367 0.11684 0.95725 0.0
C848 C 0.52781 0.15388 1.00221 0.0
C849 C 0.48352 0.16115 0.96931 0.0
C850 C 0.50696 0.17157 0.9953 0.0
C851 C 0.48164 0.13349 0.94987 0.0
H852 H 0.44088 0.13417 0.91798 0.0
N853 N 0.52397 0.07374 0.9466 0.0
C854 C 0.5029 0.08968 0.93801 0.0
C855 C 0.4785 0.04964 0.89397 0.0
C856 C 0.47931 0.07779 0.91186 0.0
C857 C 0.52427 0.04717 0.92787 0.0
C858 C 0.50132 0.03448 0.90174 0.0
O859 O 0.5971 0.05054 0.05745 0.0
O860 O 0.58404 0.09159 0.04295 0.0
O861 O 0.59453 0.09468 0.96987 0.0
O862 O 0.58405 0.13643 0.99063 0.0
O863 O 0.54642 0.08743 0.08776 0.0
O864 O 0.55132 0.11796 0.04637 0.0
O865 O 0.5097 0.0688 0.99273 0.0
O866 O 0.53396 0.05501 0.03211 0.0
O867 O 0.51123 0.03683 0.09401 0.0
O868 O 0.52718 0.9958 0.08338 0.0
O869 O 0.56664 0.04458 0.98604 0.0
O870 O 0.54957 1.01157 0.02276 0.0
C871 C 0.60363 0.07477 0.04425 0.0
C872 C 0.54676 0.11349 0.07639 0.0
C873 C 0.60587 0.13714 0.94315 0.0
C874 C 0.62634 0.13408 0.89313 0.0
C875 C 0.61001 0.17926 0.91283 0.0
C876 C 0.60171 0.16629 0.93957 0.0
C877 C 0.62256 0.16333 0.88973 0.0
C878 C 0.61787 0.12112 0.91968 0.0
C879 C 0.60047 0.12416 0.97237 0.0
C880 C 0.45694 0.09397 0.90491 0.0
C881 C 0.45824 0.12187 0.9237 0.0
H882 H 0.46054 0.03955 0.87397 0.0
C883 C 0.50776 0.0534 0.01571 0.0
C884 C 0.56002 0.01701 0.99516 0.0
C885 C 0.49981 0.99929 0.12709 0.0
C886 C 0.48245 1.01054 0.17806 0.0
C887 C 0.48481 0.95909 0.15836 0.0
C888 C 0.49552 0.96868 0.131 0.0
C889 C 0.47807 0.9799 0.18176 0.0
C890 C 0.49352 0.02034 0.151 0.0
C891 C 0.50763 1.00825 0.09658 0.0
H892 H 0.60722 0.20187 0.91032 0.0
H893 H 0.59267 0.17928 0.95764 0.0
H894 H 0.62973 0.17399 0.86959 0.0
H895 H 0.62119 0.09862 0.92227 0.0
H896 H 0.48104 0.93539 0.16104 0.0
H897 H 0.49975 0.95205 0.11253 0.0
H898 H 0.4688 0.97206 0.20241 0.0
H899 H 0.49597 0.04398 0.14815 0.0
C900 C 0.39218 0.36558 0.35132 0.0
C901 C 0.42249 0.39035 0.31447 0.0
C902 C 0.39496 0.37313 0.32058 0.0
C903 C 0.44728 0.39952 0.33935 0.0
C904 C 0.41717 0.37476 0.37621 0.0
C905 C 0.4447 0.3914 0.36995 0.0
N906 N 0.36497 0.35005 0.3571 0.0
C907 C 0.36112 0.34457 0.3876 0.0
C908 C 0.41371 0.36736 0.40688 0.0
C909 C 0.38551 0.35254 0.41269 0.0
Gd910 Gd 0.28843 0.26374 0.27477 0.0
Gd911 Gd 0.32564 0.34182 0.31354 0.0
N912 N 0.37069 0.36383 0.29674 0.0
C913 C 0.42422 0.39813 0.2836 0.0
C914 C 0.37177 0.37293 0.26726 0.0
C915 C 0.39863 0.38956 0.25995 0.0
H916 H 0.35166 0.3691 0.24997 0.0
H917 H 0.3993 0.39655 0.23642 0.0
H918 H 0.27191 0.23003 0.3396 0.0
H919 H 0.33922 0.33537 0.39348 0.0
H920 H 0.2274 0.20186 0.35811 0.0
H921 H 0.44496 0.4114 0.27803 0.0
H922 H 0.46866 0.41265 0.3351 0.0
H923 H 0.26357 0.27943 0.2008 0.0
H924 H 0.43243 0.37353 0.42646 0.0
H925 H 0.38238 0.34789 0.43671 0.0
H926 H 0.14685 0.19411 0.27161 0.0
H927 H 0.46419 0.39787 0.38862 0.0
H928 H 0.16859 0.24206 0.18053 0.0
H929 H 0.21539 0.27009 0.1644 0.0
N930 N 0.24419 0.25886 0.23828 0.0
C931 C 0.2189 0.24189 0.24677 0.0
C932 C 0.24335 0.26816 0.20873 0.0
C933 C 0.18984 0.24585 0.19637 0.0
C934 C 0.21609 0.26224 0.18758 0.0
C935 C 0.19113 0.23477 0.22577 0.0
H936 H 0.14368 0.21237 0.21959 0.0
N937 N 0.24738 0.23966 0.29737 0.0
C938 C 0.2205 0.23225 0.27703 0.0
C939 C 0.19695 0.20441 0.31594 0.0
C940 C 0.19452 0.21469 0.28608 0.0
C941 C 0.25014 0.22805 0.32563 0.0
C942 C 0.22497 0.21088 0.33564 0.0
O943 O 0.36266 0.3146 0.30108 0.0
O944 O 0.33881 0.27207 0.26496 0.0
O945 O 0.29314 0.21972 0.28415 0.0
O946 O 0.27879 0.22632 0.23514 0.0
O947 O 0.30269 0.33518 0.26088 0.0
O948 O 0.31101 0.29049 0.23914 0.0
O949 O 0.25244 0.29356 0.28569 0.0
O950 O 0.27661 0.33281 0.3256 0.0
O951 O 0.31813 0.38234 0.29642 0.0
O952 O 0.33356 0.3832 0.34742 0.0
O953 O 0.31188 0.26956 0.32732 0.0
O954 O 0.30252 0.31397 0.34828 0.0
C955 C 0.36445 0.29109 0.27977 0.0
C956 C 0.30956 0.31838 0.23651 0.0
C957 C 0.30309 0.18616 0.24265 0.0
C958 C 0.32757 0.146 0.25478 0.0
C959 C 0.32801 0.16265 0.20242 0.0
C960 C 0.3117 0.18412 0.21181 0.0
C961 C 0.33615 0.14371 0.22391 0.0
C962 C 0.3103 0.16648 0.26345 0.0
C963 C 0.2855 0.20741 0.25393 0.0
C964 C 0.16702 0.20745 0.26497 0.0
C965 C 0.16531 0.21757 0.23506 0.0
H966 H 0.17753 0.19073 0.32358 0.0
C967 C 0.25088 0.31598 0.30872 0.0
C968 C 0.3055 0.28665 0.35188 0.0
C969 C 0.30547 0.41849 0.33308 0.0
C970 C 0.27837 0.45461 0.31525 0.0
C971 C 0.28006 0.44504 0.37046 0.0
C972 C 0.29768 0.42403 0.36409 0.0
C973 C 0.27027 0.46033 0.346 0.0
C974 C 0.29586 0.43394 0.30891 0.0
C975 C 0.32506 0.39832 0.32524 0.0
H976 H 0.33453 0.16084 0.17861 0.0
H977 H 0.30577 0.19883 0.19503 0.0
H978 H 0.34931 0.12758 0.21659 0.0
H979 H 0.30237 0.1671 0.28667 0.0
H980 H 0.27417 0.44958 0.39433 0.0
H981 H 0.30533 0.41248 0.38332 0.0
H982 H 0.25678 0.47676 0.35105 0.0
H983 H 0.30208 0.43004 0.28499 0.0
C984 C 0.53722 0.62418 0.11237 0.0
C985 C 0.58442 0.65657 0.14077 0.0
C986 C 0.56789 0.63603 0.11369 0.0
C987 C 0.56994 0.66376 0.1672 0.0
C988 C 0.52232 0.63216 0.13829 0.0
C989 C 0.53895 0.65159 0.16594 0.0
N990 N 0.52189 0.60517 0.08544 0.0
C991 C 0.49137 0.59477 0.08208 0.0
C992 C 0.49111 0.62053 0.13549 0.0
C993 C 0.4755 0.60205 0.10705 0.0
Gd994 Gd 0.58212 0.51878 0.04104 0.0
Gd995 Gd 0.55066 0.59222 0.04585 0.0
N996 N 0.58129 0.62817 0.08792 0.0
C997 C 0.6147 0.67001 0.13993 0.0
C998 C 0.60946 0.64379 0.0855 0.0
C999 C 0.62702 0.66423 0.11176 0.0
H1000 H 0.6178 0.64153 0.06289 0.0
H1001 H 0.64974 0.676 0.10998 0.0
H1002 H 0.51245 0.47391 0.01526 0.0
H1003 H 0.4792 0.58159 0.05978 0.0
H1004 H 0.48888 0.42932 0.97463 0.0
H1005 H 0.62822 0.68601 0.16019 0.0
H1006 H 0.58233 0.67925 0.18839 0.0
H1007 H 0.65349 0.54281 0.0252 0.0
H1008 H 0.47878 0.62614 0.15485 0.0
H1009 H 0.45125 0.5936 0.10423 0.0
H1010 H 0.56929 0.41177 0.91724 0.0
H1011 H 0.52796 0.65774 0.18627 0.0
H1012 H 0.66442 0.48368 0.94328 0.0
H1013 H 0.68477 0.52841 0.98545 0.0
N1014 N 0.61421 0.50882 1.00379 0.0
C1015 C 0.60268 0.48389 0.98105 0.0
C1016 C 0.6435 0.5244 1.00591 0.0
C1017 C 0.65013 0.49048 0.96012 0.0
C1018 C 0.66165 0.51583 0.98378 0.0
C1019 C 0.62049 0.4739 0.9588 0.0
H1020 H 0.62173 0.43961 0.91894 0.0
N1021 N 0.55546 0.4798 0.99989 0.0
C1022 C 0.57279 0.46846 0.9797 0.0
C1023 C 0.52984 0.42825 0.95471 0.0
C1024 C 0.56038 0.44234 0.95653 0.0
C1025 C 0.52582 0.46587 0.9985 0.0
C1026 C 0.51247 0.44017 0.97569 0.0
O1027 O 0.56284 0.57519 0.09434 0.0
O1028 O 0.60221 0.55302 0.08614 0.0
O1029 O 0.57027 0.48248 0.06983 0.0
O1030 O 0.61529 0.49385 0.05527 0.0
O1031 O 0.59324 0.59087 0.02329 0.0
O1032 O 0.61761 0.56257 0.05336 0.0
O1033 O 0.56595 0.53153 0.99149 0.0
O1034 O 0.52914 0.5572 1.00194 0.0
O1035 O 0.56439 0.6288 0.01696 0.0
O1036 O 0.51909 0.6182 0.03036 0.0
O1037 O 0.53777 0.51641 0.06121 0.0
O1038 O 0.51313 0.5493 0.03763 0.0
C1039 C 0.58667 0.56545 0.10598 0.0
C1040 C 0.61834 0.58489 0.03662 0.0
C1041 C 0.60696 0.45292 0.08636 0.0
C1042 C 0.59726 0.41097 0.11659 0.0
C1043 C 0.64636 0.42619 0.10005 0.0
C1044 C 0.63653 0.44888 0.08548 0.0
C1045 C 0.62683 0.40725 0.1155 0.0
C1046 C 0.58726 0.4339 0.10213 0.0
C1047 C 0.59707 0.47662 0.07017 0.0
C1048 C 0.57847 0.43174 0.9352 0.0
C1049 C 0.60831 0.44767 0.93608 0.0
H1050 H 0.51941 0.40834 0.93705 0.0
C1051 C 0.543 0.54333 0.98126 0.0
C1052 C 0.51264 0.52476 0.05142 0.0
C1053 C 0.52734 0.65783 0.99743 0.0
C1054 C 0.53543 0.70048 0.96704 0.0
C1055 C 0.4847 0.67675 0.97464 0.0
C1056 C 0.49611 0.65658 0.99199 0.0
C1057 C 0.50414 0.69849 0.96226 0.0
C1058 C 0.54728 0.68006 0.98481 0.0
C1059 C 0.5376 0.63478 0.01517 0.0
H1060 H 0.66914 0.42319 0.09923 0.0
H1061 H 0.65212 0.46317 0.07341 0.0
H1062 H 0.63473 0.38957 0.12658 0.0
H1063 H 0.56432 0.43657 0.10285 0.0
H1064 H 0.4606 0.67545 0.97068 0.0
H1065 H 0.48019 0.63971 1.00094 0.0
H1066 H 0.49467 0.714 0.94884 0.0
H1067 H 0.57142 0.68135 0.98852 0.0
C1068 C 0.75736 0.24742 0.34395 0.0
C1069 C 0.71971 0.20985 0.30555 0.0
C1070 C 0.74739 0.23164 0.31268 0.0
C1071 C 0.70203 0.20434 0.32997 0.0
C1072 C 0.74022 0.24074 0.36878 0.0
C1073 C 0.71231 0.21961 0.3615 0.0
N1074 N 0.78456 0.26775 0.35057 0.0
C1075 C 0.79724 0.27943 0.38174 0.0
C1076 C 0.75216 0.25459 0.40051 0.0
C1077 C 0.78105 0.27355 0.40707 0.0
Gd1078 Gd 0.81751 0.35294 0.25999 0.0
Gd1079 Gd 0.81004 0.27408 0.30632 0.0
N1080 N 0.76509 0.23702 0.28942 0.0
C1081 C 0.71094 0.19362 0.27424 0.0
C1082 C 0.75768 0.21964 0.2597 0.0
C1083 C 0.73024 0.19827 0.25134 0.0
H1084 H 0.7731 0.22145 0.24276 0.0
H1085 H 0.72431 0.18498 0.22745 0.0
H1086 H 0.85371 0.399 0.32696 0.0
H1087 H 0.82031 0.29225 0.38729 0.0
H1088 H 0.90172 0.43712 0.34498 0.0
H1089 H 0.68983 0.17675 0.26783 0.0
H1090 H 0.68069 0.18773 0.3249 0.0
H1091 H 0.81351 0.33423 0.17737 0.0
H1092 H 0.73978 0.24983 0.42026 0.0
H1093 H 0.79112 0.28313 0.43171 0.0
H1094 H 0.94982 0.43992 0.25043 0.0
H1095 H 0.6988 0.21439 0.38027 0.0
H1096 H 0.89658 0.37925 0.15182 0.0
H1097 H 0.8461 0.34483 0.13658 0.0
N1098 N 0.84623 0.35985 0.21719 0.0
C1099 C 0.87327 0.38038 0.22568 0.0
C1100 C 0.83607 0.348 0.18528 0.0
C1101 C 0.88268 0.37406 0.1703 0.0
C1102 C 0.85427 0.35451 0.16163 0.0
C1103 C 0.89232 0.38764 0.20246 0.0
H1104 H 0.93504 0.4143 0.19438 0.0
N1105 N 0.86282 0.38849 0.27949 0.0
C1106 C 0.88161 0.39526 0.25745 0.0
C1107 C 0.91657 0.43187 0.29856 0.0
C1108 C 0.90922 0.41699 0.26663 0.0
C1109 C 0.86936 0.40369 0.31027 0.0
C1110 C 0.89645 0.42535 0.32039 0.0
O1111 O 0.76305 0.28364 0.28685 0.0
O1112 O 0.76768 0.32376 0.25624 0.0
O1113 O 0.80218 0.39399 0.2751 0.0
O1114 O 0.79801 0.37572 0.22379 0.0
O1115 O 0.82191 0.29624 0.26555 0.0
O1116 O 0.80446 0.31236 0.22304 0.0
O1117 O 0.86435 0.34281 0.28201 0.0
O1118 O 0.85924 0.3028 0.31282 0.0
O1119 O 0.82644 0.23348 0.2874 0.0
O1120 O 0.83388 0.25276 0.33886 0.0
O1121 O 0.80137 0.34598 0.30789 0.0
O1122 O 0.8239 0.31758 0.33979 0.0
C1123 C 0.75078 0.30119 0.26834 0.0
C1124 C 0.80991 0.28969 0.23561 0.0
C1125 C 0.77947 0.42076 0.23574 0.0
C1126 C 0.74654 0.45539 0.2449 0.0
C1127 C 0.76682 0.45046 0.19445 0.0
C1128 C 0.78174 0.42899 0.20505 0.0
C1129 C 0.74927 0.46358 0.2142 0.0
C1130 C 0.76197 0.43411 0.25578 0.0
C1131 C 0.79301 0.39626 0.24526 0.0
C1132 C 0.92847 0.42342 0.24374 0.0
C1133 C 0.92005 0.40881 0.21179 0.0
H1134 H 0.93754 0.44872 0.30649 0.0
C1135 C 0.87623 0.32537 0.30124 0.0
C1136 C 0.81752 0.34353 0.33508 0.0
C1137 C 0.85538 0.21015 0.32774 0.0
C1138 C 0.88257 0.17008 0.31862 0.0
C1139 C 0.88114 0.19261 0.37325 0.0
C1140 C 0.86364 0.21141 0.36129 0.0
C1141 C 0.89063 0.17211 0.35209 0.0
C1142 C 0.86486 0.18915 0.30617 0.0
C1143 C 0.83844 0.2323 0.31691 0.0
H1144 H 0.76865 0.45676 0.17078 0.0
H1145 H 0.79486 0.41864 0.18912 0.0
H1146 H 0.73782 0.48023 0.20551 0.0
H1147 H 0.75939 0.42713 0.27909 0.0
H1148 H 0.88741 0.19399 0.39905 0.0
H1149 H 0.85682 0.2272 0.37864 0.0
H1150 H 0.90428 0.15759 0.36188 0.0
H1151 H 0.85895 0.1879 0.2803 0.0
C1152 C 0.10071 0.5167 0.61828 0.0
C1153 C 0.12957 0.5589 0.65799 0.0
C1154 C 0.1056 0.54673 0.6321 0.0
C1155 C 0.14807 0.54042 0.6697 0.0
C1156 C 0.11983 0.49827 0.62937 0.0
C1157 C 0.14332 0.51022 0.6553 0.0
N1158 N 0.07824 0.5058 0.59291 0.0
C1159 C 0.07379 0.47693 0.57718 0.0
C1160 C 0.11529 0.46856 0.61348 0.0
C1161 C 0.0922 0.45788 0.5872 0.0
Gd1162 Gd 0.05338 0.592 0.49723 0.0
Gd1163 Gd 0.04981 0.53897 0.57458 0.0
N1164 N 0.08808 0.56435 0.61922 0.0
C1165 C 0.1349 0.58952 0.67086 0.0
C1166 C 0.09466 0.59478 0.63096 0.0
C1167 C 0.11746 0.60754 0.65711 0.0
H1168 H 0.08359 0.61029 0.62039 0.0
H1169 H 0.12197 0.63155 0.66619 0.0
H1170 H 0.0417 0.53703 0.4318 0.0
H1171 H 0.05614 0.4686 0.55663 0.0
H1172 H 1.00128 0.51381 0.38625 0.0
H1173 H 0.15294 0.59963 0.69077 0.0
H1174 H 0.16654 0.54946 0.68944 0.0
H1175 H 0.04253 0.66145 0.52161 0.0
H1176 H 0.12969 0.45383 0.62105 0.0
H1177 H 0.08871 0.43506 0.57449 0.0
H1178 H 0.93388 0.58169 0.38697 0.0
H1179 H 0.15821 0.4964 0.66412 0.0
H1180 H 0.96077 0.67091 0.46701 0.0
H1181 H 1.00387 0.69089 0.51123 0.0
N1182 N 1.02097 0.62447 0.48505 0.0
C1183 C 0.99879 0.61426 0.45911 0.0
C1184 C 0.02353 0.65216 0.50288 0.0
C1185 C 0.9777 0.65786 0.47158 0.0
C1186 C 1.00188 0.66914 0.49666 0.0
C1187 C 0.97609 0.63025 0.45217 0.0
H1188 H 0.93471 0.62992 0.42078 0.0
N1189 N 1.02088 0.57269 0.44743 0.0
C1190 C 0.99879 0.58761 0.43952 0.0
C1191 C 0.97605 0.54825 0.39436 0.0
C1192 C 0.97545 0.57551 0.41321 0.0
C1193 C 0.02278 0.54738 0.4276 0.0
C1194 C 1.00013 0.53443 0.40124 0.0
O1195 O 0.09332 0.54884 0.55728 0.0
O1196 O 0.084 0.59227 0.54363 0.0
O1197 O 0.09055 0.59334 0.47001 0.0
O1198 O 0.07941 0.63502 0.4899 0.0
O1199 O 0.03991 0.58593 0.58692 0.0
O1200 O 0.04884 0.61764 0.54728 0.0
O1201 O 1.00573 0.5667 0.49448 0.0
O1202 O 0.03323 0.5571 0.53406 0.0
O1203 O 1.01207 0.5418 0.59906 0.0
O1204 O 1.01749 0.49769 0.57888 0.0
O1205 O 0.06248 0.54301 0.48656 0.0
O1206 O 0.04797 0.5105 0.52452 0.0
C1207 C 0.10237 0.57381 0.54597 0.0
C1208 C 0.04187 0.61255 0.57638 0.0
C1209 C 0.10224 0.6358 0.443 0.0
C1210 C 0.12444 0.6333 0.39399 0.0
C1211 C 0.10899 0.67889 0.41408 0.0
C1212 C 0.09924 0.66542 0.43997 0.0
C1213 C 0.12191 0.66306 0.3913 0.0
C1214 C 0.11451 0.61981 0.41972 0.0
C1215 C 0.09615 0.62277 0.47206 0.0
C1216 C 0.95218 0.59078 0.40687 0.0
C1217 C 0.9526 0.61819 0.42618 0.0
H1218 H 0.95839 0.53802 0.37412 0.0
C1219 C 1.0064 0.55262 0.51845 0.0
C1220 C 0.05707 0.51564 0.49626 0.0
C1221 C 0.99702 0.50266 0.62793 0.0
C1222 C 0.98316 0.51408 0.68077 0.0
C1223 C 0.99638 0.46617 0.66509 0.0
C1224 C 1.00134 0.4745 0.63516 0.0
C1225 C 0.98747 0.48595 0.68794 0.0
C1226 C 0.98736 0.52216 0.65074 0.0
C1227 C 1.00292 0.51265 0.59725 0.0
H1228 H 0.10709 0.70184 0.41205 0.0
H1229 H 0.09014 0.67844 0.45796 0.0
H1230 H 0.13027 0.67414 0.37189 0.0
H1231 H 0.11697 0.59697 0.42188 0.0
H1232 H 0.99952 0.4444 0.67062 0.0
H1233 H 1.0086 0.45904 0.61784 0.0
H1234 H 0.98358 0.47921 0.71106 0.0
H1235 H 0.98336 0.54377 0.64539 0.0
C1236 C 0.74539 0.83797 0.23658 0.0
C1237 C 0.71084 0.7928 0.20584 0.0
C1238 C 0.73304 0.80697 0.2327 0.0
C1239 C 0.70157 0.81005 0.18287 0.0
C1240 C 0.73593 0.85532 0.21355 0.0
C1241 C 0.71409 0.84119 0.18669 0.0
N1242 N 0.76648 0.8512 0.26285 0.0
C1243 C 0.7785 0.88171 0.26781 0.0
C1244 C 0.74853 0.88649 0.21828 0.0
C1245 C 0.76981 0.89973 0.24557 0.0
Gd1246 Gd 0.8512 0.78536 0.30764 0.0
Gd1247 Gd 0.77765 0.81913 0.29967 0.0
N1248 N 0.74306 0.79061 0.25488 0.0
C1249 C 0.69841 0.76172 0.20292 0.0
C1250 C 0.73065 0.76038 0.25215 0.0
C1251 C 0.70814 0.74552 0.22642 0.0
H1252 H 0.73801 0.7474 0.26934 0.0
H1253 H 0.6987 0.72146 0.22448 0.0
H1254 H 0.90728 0.84728 0.32685 0.0
H1255 H 0.79405 0.89249 0.28944 0.0
H1256 H 0.94768 0.8719 0.37261 0.0
H1257 H 0.68128 0.75006 0.18272 0.0
H1258 H 0.68463 0.79952 0.16208 0.0
H1259 H 0.83495 0.71253 0.31729 0.0
H1260 H 0.74176 0.90057 0.20117 0.0
H1261 H 0.77928 0.9239 0.2497 0.0
H1262 H 0.93834 0.80276 0.44926 0.0
H1263 H 0.70659 0.8542 0.16878 0.0
H1264 H 0.87356 0.7046 0.41238 0.0
H1265 H 0.8415 0.68119 0.36014 0.0
N1266 N 0.85879 0.75355 0.34626 0.0
C1267 C 0.87809 0.76642 0.37387 0.0
C1268 C 0.84668 0.72316 0.34079 0.0
C1269 C 0.86956 0.71857 0.39406 0.0
C1270 C 0.85134 0.7053 0.3647 0.0
C1271 C 0.88387 0.74933 0.39863 0.0
H1272 H 0.9094 0.75034 0.44571 0.0
N1273 N 0.88908 0.81113 0.35079 0.0
C1274 C 0.894 0.79609 0.37608 0.0
C1275 C 0.93525 0.83751 0.40203 0.0
C1276 C 0.91665 0.80922 0.40281 0.0
C1277 C 0.90878 0.8374 0.34872 0.0
C1278 C 0.93195 0.85114 0.37439 0.0
O1279 O 0.79213 0.80283 0.25128 0.0
O1280 O 0.82012 0.76699 0.25987 0.0
O1281 O 0.88817 0.79657 0.27959 0.0
O1282 O 0.87628 0.75185 0.2947 0.0
O1283 O 0.7773 0.77676 0.32302 0.0
O1284 O 0.80674 0.74987 0.29716 0.0
O1285 O 0.83451 0.80108 0.35456 0.0
O1286 O 0.81324 0.8406 0.34309 0.0
O1287 O 0.74103 0.80601 0.32871 0.0
O1288 O 0.75017 0.85007 0.31292 0.0
O1289 O 0.85699 0.83176 0.29049 0.0
O1290 O 0.82083 0.85611 0.30815 0.0
C1291 C 0.80511 0.78106 0.24038 0.0
C1292 C 0.78291 0.75072 0.31164 0.0
C1293 C 0.91728 0.7593 0.26371 0.0
C1294 C 0.95976 0.76852 0.23431 0.0
C1295 C 0.94109 0.71831 0.24688 0.0
C1296 C 0.91923 0.72884 0.2623 0.0
C1297 C 0.96132 0.73805 0.23295 0.0
C1298 C 0.93763 0.77922 0.2495 0.0
C1299 C 0.89359 0.7696 0.27949 0.0
C1300 C 0.92127 0.79292 0.42839 0.0
C1301 C 0.90483 0.76304 0.42635 0.0
H1302 H 0.95326 0.84817 0.42179 0.0
C1303 C 0.8255 0.82592 0.36402 0.0
C1304 C 0.84648 0.8564 0.29676 0.0
C1305 C 0.70751 0.84101 0.34167 0.0
C1306 C 0.66558 0.83477 0.37339 0.0
C1307 C 0.67566 0.87756 0.34431 0.0
C1308 C 0.69977 0.86759 0.33323 0.0
C1309 C 0.65871 0.86135 0.3641 0.0
C1310 C 0.69008 0.82425 0.36191 0.0
C1311 C 0.73307 0.83162 0.32761 0.0
H1312 H 0.94238 0.69482 0.24577 0.0
H1313 H 0.90372 0.71302 0.27294 0.0
H1314 H 0.97833 0.72961 0.22114 0.0
H1315 H 0.93649 0.80279 0.25044 0.0
H1316 H 0.67005 0.89803 0.33746 0.0
H1317 H 0.71224 0.88081 0.31761 0.0
H1318 H 0.64003 0.86973 0.3724 0.0
H1319 H 0.6956 0.80372 0.3688 0.0
C1320 C 0.85094 0.2637 0.73273 0.0
C1321 C 0.80778 0.23278 0.69564 0.0
C1322 C 0.82065 0.2582 0.71969 0.0
C1323 C 0.82601 0.2138 0.68435 0.0
C1324 C 0.86904 0.24396 0.72238 0.0
C1325 C 0.85654 0.2193 0.69779 0.0
N1326 N 0.86226 0.28713 0.7571 0.0
C1327 C 0.89121 0.29197 0.77255 0.0
C1328 C 0.89895 0.24905 0.73779 0.0
C1329 C 0.91003 0.27309 0.7631 0.0
Gd1330 Gd 0.77701 0.3159 0.84947 0.0
Gd1331 Gd 0.8298 0.31723 0.77338 0.0
N1332 N 0.80332 0.27613 0.7324 0.0
C1333 C 0.77671 0.2263 0.68465 0.0
C1334 C 0.77253 0.2681 0.72331 0.0
C1335 C 0.75897 0.24382 0.69891 0.0
H1336 H 0.75759 0.27907 0.73525 0.0
H1337 H 0.73465 0.23813 0.69176 0.0
H1338 H 0.83387 0.32758 0.91376 0.0
H1339 H 0.89979 0.31042 0.79226 0.0
H1340 H 0.8559 0.36636 0.96076 0.0
H1341 H 0.76602 0.20705 0.66623 0.0
H1342 H 0.81649 0.19426 0.66592 0.0
H1343 H 0.70728 0.32566 0.82727 0.0
H1344 H 0.9135 0.23425 0.73071 0.0
H1345 H 0.93301 0.277 0.77546 0.0
H1346 H 0.78721 0.43283 0.96301 0.0
H1347 H 0.87012 0.20394 0.6895 0.0
H1348 H 0.69794 0.40705 0.88323 0.0
H1349 H 0.67771 0.36428 0.83859 0.0
N1350 N 0.74446 0.34742 0.86331 0.0
C1351 C 0.75485 0.36929 0.88948 0.0
C1352 C 0.71659 0.34472 0.84601 0.0
C1353 C 0.71101 0.39024 0.87814 0.0
C1354 C 0.69959 0.36625 0.85283 0.0
C1355 C 0.73876 0.39173 0.8972 0.0
H1356 H 0.73899 0.4325 0.92963 0.0
N1357 N 0.79688 0.34749 0.89976 0.0
C1358 C 0.78173 0.36918 0.90856 0.0
C1359 C 0.8209 0.3911 0.9541 0.0
C1360 C 0.79365 0.39194 0.93548 0.0
C1361 C 0.82262 0.34568 0.91897 0.0
C1362 C 0.83514 0.36757 0.94611 0.0
O1363 O 0.81962 0.27331 0.79041 0.0
O1364 O 0.77813 0.28689 0.80322 0.0
O1365 O 0.77545 0.27839 0.87632 0.0
O1366 O 0.73394 0.28808 0.85411 0.0
O1367 O 0.78353 0.32797 0.75936 0.0
O1368 O 0.75179 0.32228 0.79942 0.0
O1369 O 0.80233 0.36388 0.85273 0.0
O1370 O 0.8118 0.3369 0.8128 0.0
O1371 O 0.82766 0.35079 0.74252 0.0
O1372 O 0.87116 0.34856 0.76822 0.0
O1373 O 0.82541 0.30512 0.85986 0.0
O1374 O 0.85792 0.32385 0.82401 0.0
C1375 C 0.79498 0.26711 0.80293 0.0
C1376 C 0.7571 0.32778 0.76976 0.0
C1377 C 0.73188 0.26531 0.901 0.0
C1378 C 0.73341 0.24487 0.95107 0.0
C1379 C 0.68846 0.26035 0.92939 0.0
C1380 C 0.70233 0.26887 0.90327 0.0
C1381 C 0.70393 0.24834 0.95329 0.0
C1382 C 0.74722 0.25315 0.92495 0.0
C1383 C 0.74597 0.27171 0.87263 0.0
C1384 C 0.77822 0.41493 0.94267 0.0
C1385 C 0.7508 0.41479 0.92362 0.0
H1386 H 0.83089 0.40824 0.97489 0.0
C1387 C 0.81658 0.36366 0.82877 0.0
C1388 C 0.85308 0.3128 0.85129 0.0
C1389 C 0.86866 0.36213 0.71573 0.0
C1390 C 0.86431 0.37904 0.66391 0.0
C1391 C 0.90167 0.35023 0.67772 0.0
C1392 C 0.89204 0.3483 0.70767 0.0
C1393 C 0.88794 0.36571 0.65587 0.0
C1394 C 0.85479 0.37733 0.69368 0.0
C1395 C 0.85691 0.36016 0.74605 0.0
H1396 H 0.66562 0.26278 0.93094 0.0
H1397 H 0.68977 0.27775 0.88471 0.0
H1398 H 0.69285 0.24142 0.97327 0.0
H1399 H 0.76987 0.24987 0.9233 0.0
H1400 H 0.91988 0.3399 0.67152 0.0
H1401 H 0.90276 0.33606 0.7243 0.0
H1402 H 0.8959 0.36764 0.63293 0.0
H1403 H 0.8368 0.3882 0.69983 0.0
C1404 C 0.89021 0.87513 0.85596 0.0
C1405 C 0.9216 0.89654 0.81833 0.0
C1406 C 0.89424 0.87885 0.8245 0.0
C1407 C 0.94484 0.90993 0.84402 0.0
C1408 C 0.91349 0.88898 0.88182 0.0
C1409 C 0.94079 0.90602 0.87559 0.0
N1410 N 0.863 0.85962 0.86152 0.0
C1411 C 0.85741 0.85861 0.8926 0.0
C1412 C 0.9083 0.88644 0.91339 0.0
C1413 C 0.88003 0.87151 0.9188 0.0
Gd1414 Gd 0.7875 0.76354 0.771 0.0
Gd1415 Gd 0.82598 0.84054 0.81527 0.0
N1416 N 0.87142 0.86551 0.79997 0.0
C1417 C 0.92484 0.90037 0.78652 0.0
C1418 C 0.87449 0.86981 0.76902 0.0
C1419 C 0.90109 0.88696 0.76176 0.0
H1420 H 0.85679 0.86016 0.74968 0.0
H1421 H 0.90312 0.88998 0.73703 0.0
H1422 H 0.77415 0.70942 0.81953 0.0
H1423 H 0.83501 0.84918 0.89745 0.0
H1424 H 0.73021 0.67749 0.83586 0.0
H1425 H 0.94547 0.91378 0.78087 0.0
H1426 H 0.96599 0.9235 0.83973 0.0
H1427 H 0.76084 0.78241 0.69905 0.0
H1428 H 0.92553 0.89697 0.93383 0.0
H1429 H 0.87538 0.8706 0.94322 0.0
H1430 H 0.64502 0.6964 0.77002 0.0
H1431 H 0.95859 0.91691 0.89521 0.0
H1432 H 0.66451 0.75643 0.68667 0.0
H1433 H 0.71145 0.7808 0.66787 0.0
N1434 N 0.74252 0.75938 0.73549 0.0
C1435 C 0.71704 0.74354 0.7446 0.0
C1436 C 0.74082 0.77168 0.70765 0.0
C1437 C 0.68629 0.75651 0.70011 0.0
C1438 C 0.71272 0.77057 0.68965 0.0
C1439 C 0.68823 0.74203 0.72732 0.0
H1440 H 0.63995 0.72559 0.72541 0.0
N1441 N 0.74775 0.73 0.78728 0.0
C1442 C 0.71977 0.72841 0.77111 0.0
C1443 C 0.69775 0.69242 0.80392 0.0
C1444 C 0.69392 0.7102 0.77967 0.0
C1445 C 0.75176 0.71057 0.80885 0.0
C1446 C 0.72687 0.69204 0.81799 0.0
O1447 O 0.86388 0.81661 0.80057 0.0
O1448 O 0.83896 0.77472 0.76393 0.0
O1449 O 0.80817 0.72693 0.77817 0.0
O1450 O 0.77734 0.72427 0.73245 0.0
O1451 O 0.806 0.83798 0.76165 0.0
O1452 O 0.80843 0.79195 0.73609 0.0
O1453 O 0.75386 0.79549 0.78198 0.0
O1454 O 0.77813 0.82404 0.82941 0.0
O1455 O 0.80305 0.87366 0.79687 0.0
O1456 O 0.8285 0.88206 0.84622 0.0
O1457 O 0.79397 0.76317 0.82545 0.0
O1458 O 0.81779 0.80999 0.85306 0.0
C1459 C 0.86492 0.79334 0.77877 0.0
C1460 C 0.8084 0.82045 0.7352 0.0
C1461 C 0.79986 0.68113 0.74097 0.0
C1462 C 0.82143 0.64014 0.75668 0.0
C1463 C 0.7996 0.63819 0.70094 0.0
C1464 C 0.79232 0.66618 0.70902 0.0
C1465 C 0.81449 0.6253 0.72464 0.0
C1466 C 0.81392 0.66773 0.76471 0.0
C1467 C 0.79474 0.71122 0.75023 0.0
C1468 C 0.66518 0.70968 0.76328 0.0
C1469 C 0.66233 0.72599 0.73756 0.0
H1470 H 0.67846 0.67809 0.8111 0.0
C1471 C 0.75238 0.81281 0.80938 0.0
C1472 C 0.80534 0.78142 0.85265 0.0
C1473 C 0.80389 0.92024 0.83168 0.0
C1474 C 0.78475 0.9605 0.81228 0.0
C1475 C 0.79555 0.96074 0.86982 0.0
C1476 C 0.80488 0.93366 0.86372 0.0
C1477 C 0.78528 0.97419 0.84402 0.0
C1478 C 0.79408 0.9338 0.80607 0.0
C1479 C 0.81172 0.89148 0.82464 0.0
H1480 H 0.79414 0.62673 0.67623 0.0
H1481 H 0.78141 0.67631 0.69035 0.0
H1482 H 0.82065 0.60395 0.71807 0.0
H1483 H 0.82009 0.67921 0.78948 0.0
H1484 H 0.79598 0.97106 0.89441 0.0
H1485 H 0.81233 0.92303 0.88385 0.0
H1486 H 0.77766 0.99503 0.84869 0.0
H1487 H 0.79322 0.92344 0.78128 0.0
C1488 C 0.50352 0.4786 0.49512 0.0
C1489 C 0.4783 0.44923 0.53229 0.0
C1490 C 0.49567 0.47653 0.52573 0.0
C1491 C 0.46959 0.42387 0.50799 0.0
C1492 C 0.49417 0.45332 0.47054 0.0
C1493 C 0.47769 0.4259 0.4773 0.0
N1494 N 0.51925 0.50557 0.48905 0.0
C1495 C 0.52481 0.50904 0.45852 0.0
C1496 C 0.50114 0.4565 0.43964 0.0
C1497 C 0.51614 0.48455 0.4335 0.0
Gd1498 Gd 0.6069 0.58147 0.57444 0.0
Gd1499 Gd 0.52997 0.54551 0.53238 0.0
N1500 N 0.50428 0.50145 0.54881 0.0
C1501 C 0.46962 0.44841 0.56288 0.0
C1502 C 0.49407 0.50128 0.57778 0.0
C1503 C 0.47728 0.47471 0.58562 0.0
H1504 H 0.49743 0.52178 0.59429 0.0
H1505 H 0.46957 0.47477 0.60885 0.0
H1506 H 0.6403 0.602 0.51094 0.0
H1507 H 0.53467 0.53082 0.45278 0.0
H1508 H 0.67325 0.64649 0.49749 0.0
H1509 H 0.45622 0.4279 0.56882 0.0
H1510 H 0.45632 0.40268 0.51258 0.0
H1511 H 0.58903 0.60372 0.64882 0.0
H1512 H 0.49459 0.43768 0.42019 0.0
H1513 H 0.52061 0.48744 0.40937 0.0
H1514 H 0.68314 0.72253 0.58928 0.0
H1515 H 0.47096 0.40619 0.45885 0.0
H1516 H 0.62838 0.69784 0.67496 0.0
H1517 H 0.59809 0.65035 0.68721 0.0
N1518 N 0.61101 0.62458 0.6129 0.0
C1519 C 0.62921 0.65027 0.60658 0.0
C1520 C 0.60071 0.62426 0.64192 0.0
C1521 C 0.62396 0.67739 0.65763 0.0
C1522 C 0.60654 0.65071 0.66439 0.0
C1523 C 0.63615 0.67728 0.62891 0.0
H1524 H 0.66056 0.72421 0.6388 0.0
N1525 N 0.63289 0.624 0.55548 0.0
C1526 C 0.64115 0.64966 0.57768 0.0
C1527 C 0.67269 0.6744 0.54226 0.0
C1528 C 0.66119 0.6756 0.57147 0.0
C1529 C 0.64448 0.62273 0.52719 0.0
C1530 C 0.66414 0.64787 0.51996 0.0
O1531 O 0.55554 0.50734 0.54461 0.0
O1532 O 0.59606 0.53081 0.58357 0.0
O1533 O 0.65093 0.57675 0.56587 0.0
O1534 O 0.64329 0.58906 0.61494 0.0
O1535 O 0.53469 0.56736 0.5852 0.0
O1536 O 0.57838 0.55901 0.60909 0.0
O1537 O 0.57937 0.61831 0.56018 0.0
O1538 O 0.54097 0.59393 0.51955 0.0
O1539 O 0.49181 0.56076 0.54791 0.0
O1540 O 0.49026 0.54086 0.49709 0.0
O1541 O 0.60443 0.55801 0.5222 0.0
O1542 O 0.56037 0.56607 0.49855 0.0
C1543 C 0.57768 0.50532 0.56739 0.0
C1544 C 0.5503 0.5606 0.61048 0.0
C1545 C 0.68339 0.5647 0.60708 0.0
C1546 C 0.72254 0.53916 0.59413 0.0
C1547 C 0.7107 0.54402 0.64861 0.0
C1548 C 0.68852 0.55953 0.6392 0.0
C1549 C 0.72777 0.53379 0.62612 0.0
C1550 C 0.70063 0.55462 0.58491 0.0
C1551 C 0.66256 0.58295 0.59635 0.0
C1552 C 0.66825 0.70227 0.59392 0.0
C1553 C 0.65534 0.70324 0.6222 0.0
H1554 H 0.68795 0.69391 0.53659 0.0
C1555 C 0.55731 0.61964 0.53668 0.0
C1556 C 0.58767 0.56244 0.49623 0.0
C1557 C 0.44646 0.55767 0.51076 0.0
C1558 C 0.40693 0.5807 0.52681 0.0
C1559 C 0.40307 0.55714 0.47135 0.0
C1560 C 0.4308 0.54955 0.47907 0.0
C1561 C 0.39113 0.57288 0.49514 0.0
C1562 C 0.43436 0.573 0.53455 0.0
C1563 C 0.47673 0.55327 0.51861 0.0
H1564 H 0.71481 0.54012 0.67336 0.0
H1565 H 0.6758 0.56776 0.65699 0.0
H1566 H 0.74488 0.52176 0.63358 0.0
H1567 H 0.69762 0.55952 0.56034 0.0
H1568 H 0.39105 0.55119 0.44689 0.0
H1569 H 0.44025 0.53801 0.46023 0.0
H1570 H 0.36971 0.57898 0.48893 0.0
H1571 H 0.44675 0.58011 0.55888 0.0
C1572 C 0.1223 0.60924 0.99956 0.0
C1573 C 0.16872 0.63941 0.03309 0.0
C1574 C 0.14228 0.61605 0.02891 0.0
C1575 C 0.17389 0.65724 0.00877 0.0
C1576 C 0.12814 0.627 0.97494 0.0
C1577 C 0.15351 0.65131 0.98002 0.0
N1578 N 0.09858 0.58447 0.99425 0.0
C1579 C 0.08146 0.57555 0.96421 0.0
C1580 C 0.10906 0.61917 0.94523 0.0
C1581 C 0.08589 0.59317 0.93975 0.0
Gd1582 Gd 1.01711 0.55293 0.08328 0.0
Gd1583 Gd 0.09671 0.55747 0.03829 0.0
N1584 N 0.1367 0.59927 0.05289 0.0
C1585 C 0.18929 0.64437 0.06177 0.0
C1586 C 0.15762 0.60276 0.0798 0.0
C1587 C 0.18372 0.62585 0.0852 0.0
H1588 H 0.15533 0.58666 0.09611 0.0
H1589 H 0.19997 0.62869 0.10691 0.0
H1590 H 0.96558 0.52222 0.01804 0.0
H1591 H 0.06489 0.55446 0.95785 0.0
H1592 H 0.92381 0.47725 1.00072 0.0
H1593 H 0.20973 0.66216 0.06585 0.0
H1594 H 0.19377 0.67561 0.0119 0.0
H1595 H 0.04094 0.55305 0.16473 0.0
H1596 H 0.11282 0.63234 0.92586 0.0
H1597 H 0.07194 0.58615 0.91629 0.0
H1598 H 0.91805 0.42946 0.09512 0.0
H1599 H 0.15811 0.66514 0.96134 0.0
H1600 H 0.98831 0.47397 0.19041 0.0
H1601 H 0.02878 0.5205 0.20473 0.0
N1602 N 1.01038 0.52364 0.12528 0.0
C1603 C 0.9868 0.49885 0.11732 0.0
C1604 C 0.0246 0.53196 0.15667 0.0
C1605 C 0.99424 0.4877 0.17198 0.0
C1606 C 1.01721 0.51384 0.18011 0.0
C1607 C 0.9783 0.48024 0.14057 0.0
H1608 H 0.94692 0.44082 0.14977 0.0
N1609 N 0.97787 0.51071 0.064 0.0
C1610 C 0.97007 0.49242 0.08617 0.0
C1611 C 0.92895 0.4614 0.0466 0.0
C1612 C 0.94518 0.46727 0.07792 0.0
C1613 C 0.96108 0.50607 0.03411 0.0
C1614 C 0.93684 0.48101 0.02466 0.0
O1615 O 0.09073 0.60571 0.0616 0.0
O1616 O 0.04412 0.6022 0.0812 0.0
O1617 O 0.97655 0.56987 0.06802 0.0
O1618 O 0.99692 0.57513 0.11911 0.0
O1619 O 0.07424 0.54734 0.07948 0.0
O1620 O 0.05784 0.56877 0.12004 0.0
O1621 O 0.02562 0.50486 0.06154 0.0
O1622 O 0.06816 0.5082 0.03392 0.0
O1623 O 0.13189 0.53543 0.05874 0.0
O1624 O 0.12714 0.54332 0.00871 0.0
O1625 O 0.03224 0.5667 0.03802 0.0
O1626 O 0.05401 0.53921 1.00474 0.0
C1627 C 0.06985 0.6187 0.07424 0.0
C1628 C 0.08055 0.56231 0.10822 0.0
C1629 C 0.95333 0.59585 0.10957 0.0
C1630 C 0.91269 0.62179 0.0999 0.0
C1631 C 0.9331 0.61846 0.15475 0.0
C1632 C 0.95312 0.60225 0.14302 0.0
C1633 C 0.91298 0.62825 0.13333 0.0
C1634 C 0.93304 0.60577 0.08792 0.0
C1635 C 0.97589 0.5802 0.09818 0.0
C1636 C 0.93707 0.44884 0.10108 0.0
C1637 C 0.9536 0.45525 0.13221 0.0
H1638 H 0.90989 0.44217 0.03934 0.0
C1639 C 0.04414 0.49199 0.04434 0.0
C1640 C 0.02976 0.54759 0.01179 0.0
C1641 C 0.15596 0.50764 0.0204 0.0
C1642 C 0.19677 0.48098 0.02776 0.0
C1643 C 0.16624 0.4748 0.97515 0.0
C1644 C 0.14909 0.49397 0.98774 0.0
C1645 C 0.19 0.46844 0.99495 0.0
C1646 C 0.17989 0.50086 0.04053 0.0
C1647 C 0.14239 0.53306 0.03131 0.0
H1648 H 0.93319 0.62342 0.1805 0.0
H1649 H 0.9686 0.59495 0.16027 0.0
H1650 H 0.89744 0.64078 0.14281 0.0
H1651 H 0.93295 0.60102 0.06209 0.0
H1652 H 0.16136 0.46517 0.94981 0.0
H1653 H 0.13124 0.49903 0.97143 0.0
H1654 H 0.20323 0.45363 0.98464 0.0
H1655 H 0.18584 0.51153 0.06557 0.0
C1656 C 1.01054 0.18151 0.01453 0.0
C1657 C 0.03298 0.20745 0.01175 0.0
C1658 C 1.01749 0.15382 0.02351 0.0
C1659 C 0.04751 0.14912 0.03001 0.0
H1660 H 0.98699 0.18258 0.00998 0.0
H1661 H 0.99866 0.13561 0.02526 0.0
S1662 S 0.11503 0.20762 0.02074 0.0
N1663 N 0.08699 0.22476 0.01374 0.0
N1664 N 0.09969 0.17375 0.0287 0.0
C1665 C 0.07009 0.17465 0.0261 0.0
C1666 C 0.063 0.20308 0.01757 0.0
C1667 C 0.20535 0.84003 0.19673 0.0
C1668 C 0.17522 0.82791 0.20061 0.0
C1669 C 0.23042 0.8393 0.21999 0.0
C1670 C 0.22701 0.82542 0.24799 0.0
H1671 H 0.20969 0.85048 0.1756 0.0
H1672 H 0.25284 0.8497 0.21578 0.0
S1673 S 0.15286 0.78843 0.26883 0.0
N1674 N 0.14362 0.8016 0.23521 0.0
N1675 N 0.19017 0.79765 0.27662 0.0
C1676 C 0.19692 0.81277 0.25179 0.0
C1677 C 0.17136 0.81455 0.22877 0.0
C1678 C 0.53735 0.90522 0.54777 0.0
C1679 C 0.52623 0.89054 0.51553 0.0
C1680 C 0.54126 0.93738 0.55718 0.0
C1681 C 0.53422 0.95692 0.53502 0.0
H1682 H 0.54389 0.89192 0.56581 0.0
H1683 H 0.55063 0.94714 0.58197 0.0
S1684 S 0.50166 0.93054 0.44872 0.0
N1685 N 0.50639 0.89914 0.46225 0.0
N1686 N 0.51391 0.95807 0.4797 0.0
C1687 C 0.52248 0.94241 0.50317 0.0
C1688 C 0.51847 0.90993 0.4936 0.0
C1689 C 0.52877 0.3199 0.70897 0.0
C1690 C 0.5235 0.31358 0.67496 0.0
C1691 C 0.50642 0.30905 0.72712 0.0
C1692 C 0.47811 0.29172 0.71181 0.0
H1693 H 0.55091 0.33167 0.7218 0.0
H1694 H 0.51201 0.31234 0.7532 0.0
S1695 S 0.45129 0.27217 0.6239 0.0
N1696 N 0.48654 0.29158 0.62686 0.0
N1697 N 0.44467 0.27104 0.66134 0.0
C1698 C 0.47164 0.28726 0.67805 0.0
C1699 C 0.49434 0.29829 0.65947 0.0
C1700 C 0.09212 0.86514 0.6841 0.0
C1701 C 0.06157 0.84975 0.67779 0.0
C1702 C 0.10372 0.88612 0.66479 0.0
C1703 C 0.08518 0.89261 0.6386 0.0
H1704 H 0.10764 0.85937 0.7026 0.0
H1705 H 0.1278 0.89613 0.66928 0.0
S1706 S 1.00229 0.86269 0.61645 0.0
N1707 N 1.01208 0.8452 0.64672 0.0
N1708 N 0.03377 0.88524 0.61053 0.0
C1709 C 0.05398 0.8795 0.63404 0.0
C1710 C 0.04223 0.85774 0.65351 0.0
C1711 C 0.4617 0.81612 0.80537 0.0
C1712 C 0.47825 0.83799 0.83191 0.0
C1713 C 0.42941 0.81132 0.79607 0.0
C1714 C 0.41136 0.82867 0.81189 0.0
H1715 H 0.47363 0.80177 0.79215 0.0
H1716 H 0.41839 0.79358 0.77619 0.0
S1717 S 0.44288 0.89022 0.88152 0.0
N1718 N 0.47287 0.8776 0.87324 0.0
N1719 N 0.41399 0.86972 0.85511 0.0
C1720 C 0.42781 0.85115 0.83772 0.0
C1721 C 0.46041 0.85545 0.84778 0.0
C1722 C 0.51623 0.17386 0.12729 0.0
C1723 C 0.54151 0.18928 0.15048 0.0
C1724 C 0.51801 0.14978 0.10321 0.0
C1725 C 0.54536 0.14054 0.10055 0.0
H1726 H 0.49474 0.1802 0.128 0.0
H1727 H 0.49773 0.13821 0.08665 0.0
S1728 S 0.61933 0.17708 0.15144 0.0
N1729 N 0.59537 0.19523 0.16685 0.0
N1730 N 0.599 0.15151 0.12136 0.0
C1731 C 0.57102 0.15684 0.12261 0.0
C1732 C 0.56905 0.18075 0.1475 0.0
C1733 C 0.19019 0.34822 0.35504 0.0
C1734 C 0.16126 0.33699 0.33553 0.0
C1735 C 0.21797 0.3415 0.34624 0.0
C1736 C 0.21961 0.32258 0.3172 0.0
H1737 H 0.19159 0.36264 0.3778 0.0
H1738 H 0.23865 0.35133 0.3629 0.0
S1739 S 0.15099 0.2872 0.25622 0.0
N1740 N 0.13704 0.30552 0.2848 0.0
N1741 N 0.1878 0.29344 0.26852 0.0
C1742 C 0.19077 0.31118 0.29743 0.0
C1743 C 0.16243 0.31813 0.30639 0.0
C1744 C 0.037 0.03832 0.19372 0.0
C1745 C 1.00772 0.04207 0.1976 0.0
C1746 C 0.04987 0.0451 0.16585 0.0
C1747 C 0.03434 0.05653 0.14072 0.0
H1748 H 0.04979 0.02928 0.21196 0.0
H1749 H 0.07199 0.04071 0.16374 0.0
S1750 S 0.95889 0.07487 0.14127 0.0
N1751 N 0.96479 0.06064 0.17497 0.0
N1752 N 0.98915 0.07423 0.12381 0.0
C1753 C 1.0058 0.06203 0.14534 0.0
C1754 C 0.99248 0.05456 0.1733 0.0
C1755 C 0.26292 0.7127 0.52715 0.0
C1756 C 0.28602 0.69826 0.51964 0.0
C1757 C 0.24693 0.7246 0.50378 0.0
C1758 C 0.25384 0.72262 0.47235 0.0
H1759 H 0.25625 0.71364 0.55096 0.0
H1760 H 0.22893 0.7352 0.51027 0.0
S1761 S 0.31473 0.68953 0.44199 0.0
N1762 N 0.31631 0.68364 0.47992 0.0
N1763 N 0.28722 0.70751 0.43564 0.0
C1764 C 0.27807 0.70954 0.46504 0.0
C1765 C 0.29389 0.69678 0.48881 0.0
C1766 C 0.64574 0.10617 0.66778 0.0
C1767 C 0.66188 0.08354 0.67157 0.0
C1768 C 0.61787 0.09939 0.64801 0.0
C1769 C 0.60608 0.06992 0.63166 0.0
H1770 H 0.65416 0.12879 0.68129 0.0
H1771 H 0.60572 0.11716 0.64521 0.0
S1772 S 0.63777 1.00208 0.6375 0.0
N1773 N 0.66328 0.03034 0.66004 0.0
N1774 N 0.61046 0.0174 0.62252 0.0
C1775 C 0.62171 0.04697 0.63569 0.0
C1776 C 0.65006 0.05393 0.65562 0.0
C1777 C 0.35748 0.35635 0.95351 0.0
C1778 C 0.33181 0.35717 0.9687 0.0
C1779 C 0.35479 0.34542 0.92026 0.0
C1780 C 0.32651 0.33435 0.90058 0.0
H1781 H 0.37994 0.36503 0.9672 0.0
H1782 H 0.37503 0.34673 0.90967 0.0
S1783 S 0.25206 0.33034 0.92811 0.0
N1784 N 0.27679 0.3454 0.96098 0.0
N1785 N 0.27216 0.32442 0.89901 0.0
C1786 C 0.30067 0.33482 0.9154 0.0
C1787 C 0.30324 0.34621 0.94922 0.0
C1788 C 1.01413 1.01257 0.39266 0.0
C1789 C 1.00904 0.03804 0.37889 0.0
C1790 C 0.02534 1.01491 0.42587 0.0
C1791 C 0.03228 0.04271 0.44688 0.0
H1792 H 1.00856 0.99043 0.37789 0.0
H1793 H 0.02754 0.9946 0.43528 0.0
S1794 S 0.02581 0.11678 0.42259 0.0
N1795 N 1.01345 0.09242 0.38891 0.0
N1796 N 0.03482 0.09664 0.45067 0.0
C1797 C 0.0279 0.0684 0.43323 0.0
C1798 C 1.01629 0.0661 0.39952 0.0
C1799 C 0.26623 0.71808 0.68774 0.0
C1800 C 0.28991 0.70753 0.67583 0.0
C1801 C 0.27247 0.74491 0.70932 0.0
C1802 C 0.30248 0.76042 0.72013 0.0
H1803 H 0.24288 0.70656 0.67893 0.0
H1804 H 0.25386 0.75366 0.71719 0.0
S1805 S 0.371 0.74622 0.68904 0.0
N1806 N 0.34345 0.71734 0.67101 0.0
N1807 N 0.35527 0.76721 0.71348 0.0
C1808 C 0.3262 0.75073 0.70753 0.0
C1809 C 0.31987 0.72401 0.68497 0.0
C1810 C 0.67858 0.08911 0.85864 0.0
C1811 C 0.66835 0.08552 0.82544 0.0
C1812 C 0.66435 0.10438 0.88059 0.0
C1813 C 0.64001 0.11697 0.86975 0.0
H1814 H 0.6983 0.08109 0.86752 0.0
H1815 H 0.67314 0.10734 0.9061 0.0
S1816 S 0.60496 0.11366 0.78522 0.0
N1817 N 0.63245 0.09551 0.78264 0.0
N1818 N 0.60564 0.12402 0.8242 0.0
C1819 C 0.62913 0.11283 0.83672 0.0
C1820 C 0.64332 0.09705 0.81443 0.0
C1821 C 0.34536 0.33886 0.16164 0.0
C1822 C 0.3277 0.35763 0.14842 0.0
C1823 C 0.33882 0.32553 0.18936 0.0
C1824 C 0.31431 0.33035 0.2052 0.0
H1825 H 0.36493 0.33513 0.15104 0.0
H1826 H 0.35373 0.31217 0.19916 0.0
S1827 S 0.2577 0.3727 0.17677 0.0
N1828 N 0.28232 0.37701 0.15121 0.0
N1829 N 0.27023 0.3522 0.20277 0.0
C1830 C 0.2957 0.34783 0.19126 0.0
C1831 C 0.30233 0.36136 0.16312 0.0
C1832 C 0.28467 0.03572 0.02539 0.0
C1833 C 0.27282 1.00489 0.01284 0.0
C1834 C 0.27095 0.05062 0.04819 0.0
C1835 C 0.24504 0.03508 0.05856 0.0
H1836 H 0.30597 0.04767 0.01972 0.0
H1837 H 0.28122 0.07394 0.05864 0.0
S1838 S 0.20297 0.95594 0.02908 0.0
N1839 N 0.2317 0.96078 0.00896 0.0
N1840 N 0.20627 0.9888 0.05214 0.0
C1841 C 0.23154 1.00531 0.04389 0.0
C1842 C 0.24523 0.99025 0.0206 0.0
C1843 C 0.69296 0.64322 0.05932 0.0
C1844 C 0.70107 0.64862 0.02915 0.0
C1845 C 0.6674 0.6208 0.06159 0.0
C1846 C 0.64787 0.60452 0.03374 0.0
H1847 H 0.70668 0.6562 0.08133 0.0
H1848 H 0.66196 0.61735 0.08531 0.0
S1849 S 0.66146 0.60685 0.94937 0.0
N1850 N 0.6901 0.63259 0.97109 0.0
N1851 N 0.64027 0.59277 0.97531 0.0
C1852 C 0.65633 0.60891 1.00353 0.0
C1853 C 0.68331 0.6305 1.00126 0.0
C1854 C 0.68103 0.48805 0.26575 0.0
C1855 C 0.69351 0.50745 0.2949 0.0
C1856 C 0.69764 0.46937 0.2509 0.0
C1857 C 0.72718 0.4693 0.26481 0.0
H1858 H 0.65922 0.48893 0.25302 0.0
H1859 H 0.688 0.45619 0.22741 0.0
S1860 S 0.76781 0.51158 0.34397 0.0
N1861 N 0.73545 0.52244 0.33941 0.0
N1862 N 0.76663 0.4869 0.31147 0.0
C1863 C 0.73878 0.48629 0.29547 0.0
C1864 C 0.72196 0.50561 0.31049 0.0
C1865 C 0.93311 0.52504 0.54561 0.0
C1866 C 0.92101 0.49886 0.52284 0.0
C1867 C 0.96246 0.54147 0.54599 0.0
C1868 C 0.98024 0.53161 0.52405 0.0
H1869 H 0.91939 0.53357 0.56215 0.0
H1870 H 0.97066 0.56276 0.56221 0.0
S1871 S 0.95847 0.46558 0.45901 0.0
N1872 N 0.92859 0.4642 0.47757 0.0
N1873 N 0.98412 0.49525 0.4787 0.0
C1874 C 0.96877 0.50513 0.5019 0.0
C1875 C 0.93896 0.48848 0.50133 0.0
C1876 C 0.34099 0.07745 0.28976 0.0
C1877 C 0.35517 0.09002 0.32139 0.0
C1878 C 0.33168 0.09576 0.26841 0.0
C1879 C 0.33616 0.12699 0.27823 0.0
H1880 H 0.33916 0.05377 0.28065 0.0
H1881 H 0.32165 0.08555 0.24389 0.0
S1882 S 0.37095 0.16964 0.35933 0.0
N1883 N 0.37221 0.13426 0.36218 0.0
N1884 N 0.35433 0.16945 0.32228 0.0
C1885 C 0.3489 0.13946 0.31046 0.0
C1886 C 0.35854 0.1207 0.33202 0.0
C1887 C 0.34412 0.15073 0.58021 0.0
C1888 C 0.34822 0.16384 0.55229 0.0
C1889 C 0.36637 0.13795 0.59508 0.0
C1890 C 0.39324 0.13755 0.58225 0.0
H1891 H 0.32429 0.15178 0.59158 0.0
H1892 H 0.36302 0.12927 0.61743 0.0
S1893 S 0.4119 0.16413 0.50608 0.0
N1894 N 0.37899 0.17265 0.51007 0.0
N1895 N 0.42085 0.14775 0.53758 0.0
C1896 C 0.39642 0.14834 0.55277 0.0
C1897 C 0.37391 0.1619 0.53795 0.0
C1898 C 0.74772 0.66622 0.31083 0.0
C1899 C 0.71845 0.66618 0.31809 0.0
C1900 C 0.76808 0.69325 0.30826 0.0
C1901 C 0.76102 0.7218 0.31485 0.0
H1902 H 0.75466 0.64504 0.30585 0.0
H1903 H 0.78903 0.69127 0.3001 0.0
S1904 S 0.6858 0.7336 0.33183 0.0
N1905 N 0.68218 0.69664 0.32853 0.0
N1906 N 0.721 0.74733 0.32713 0.0
C1907 C 0.73164 0.7218 0.32239 0.0
C1908 C 0.71036 0.69415 0.32323 0.0
C1909 C 0.8482 0.43569 0.80054 0.0
C1910 C 0.87147 0.44912 0.82625 0.0
C1911 C 0.83193 0.40604 0.79957 0.0
C1912 C 0.83866 0.3897 0.82442 0.0
H1913 H 0.84194 0.44849 0.78185 0.0
H1914 H 0.81278 0.39669 0.78067 0.0
S1915 S 0.89672 0.41543 0.89721 0.0
N1916 N 0.90048 0.44428 0.87684 0.0
N1917 N 0.86937 0.38857 0.87521 0.0
C1918 C 0.86237 0.40261 0.84965 0.0
C1919 C 0.87905 0.43249 0.8505 0.0
C1920 C 0.05661 0.91904 0.09273 0.0
C1921 C 0.08438 0.90924 0.09372 0.0
C1922 C 0.05331 0.94832 0.08488 0.0
C1923 C 0.07757 0.97077 0.07822 0.0
H1924 H 0.03694 0.9039 0.09814 0.0
H1925 H 0.03147 0.95365 0.08499 0.0
S1926 S 0.15555 0.95898 0.08167 0.0
N1927 N 0.1368 0.9263 0.08887 0.0
N1928 N 0.13107 0.98037 0.07569 0.0
C1929 C 0.10541 0.96147 0.08011 0.0
C1930 C 0.10861 0.93142 0.0873 0.0
C1931 C 0.90454 0.2841 0.91659 0.0
C1932 C 0.93448 0.29899 0.91423 0.0
C1933 C 0.8786 0.28872 0.89678 0.0
C1934 C 0.88091 0.30885 0.87364 0.0
H1935 H 0.90105 0.26824 0.93356 0.0
H1936 H 0.85648 0.27602 0.89941 0.0
S1937 S 0.95359 0.35705 0.86095 0.0
N1938 N 0.96413 0.33684 0.8883 0.0
N1939 N 0.91641 0.346 0.85247 0.0
C1940 C 0.91071 0.32468 0.87203 0.0
C1941 C 0.937 0.31969 0.89182 0.0
C1942 C 0.56767 0.2016 0.61621 0.0
C1943 C 0.58175 0.22154 0.59619 0.0
C1944 C 0.5626 0.16902 0.60946 0.0
C1945 C 0.57152 0.15336 0.58227 0.0
H1946 H 0.56029 0.21129 0.63771 0.0
H1947 H 0.5517 0.15592 0.62617 0.0
S1948 S 0.60682 0.19341 0.5199 0.0
N1949 N 0.60295 0.22158 0.54642 0.0
N1950 N 0.59373 0.16186 0.53399 0.0
C1951 C 0.58532 0.17297 0.56187 0.0
C1952 C 0.59027 0.2062 0.56865 0.0
C1953 C 0.59729 0.78796 0.40036 0.0
C1954 C 0.59598 0.80542 0.42995 0.0
C1955 C 0.62208 0.79511 0.38353 0.0
C1956 C 0.64646 0.81997 0.3957 0.0
H1957 H 0.57848 0.7694 0.38944 0.0
H1958 H 0.62109 0.78253 0.35978 0.0
S1959 S 0.65497 0.87207 0.47252 0.0
N1960 N 0.62234 0.84795 0.47116 0.0
N1961 N 0.66845 0.86096 0.43973 0.0
C1962 C 0.64625 0.83632 0.42612 0.0
C1963 C 0.62114 0.82923 0.44313 0.0
C1964 C 0.07799 0.27596 0.45167 0.0
C1965 C 0.0654 0.27397 0.41901 0.0
C1966 C 0.07105 0.25138 0.46876 0.0
C1967 C 0.0514 0.22386 0.45379 0.0
H1968 H 0.09216 0.29712 0.46459 0.0
H1969 H 0.07925 0.25469 0.49443 0.0
S1970 S 1.01437 0.20582 0.36853 0.0
N1971 N 0.03389 0.2411 0.37204 0.0
N1972 N 1.02118 0.19532 0.40421 0.0
C1973 C 0.04045 0.22089 0.42074 0.0
C1974 C 0.04731 0.24581 0.40336 0.0
C1975 C 0.6632 0.28242 0.2773 0.0
C1976 C 0.64718 0.2849 0.2469 0.0
C1977 C 0.69584 0.28715 0.28386 0.0
C1978 C 0.71525 0.29524 0.26078 0.0
H1979 H 0.65043 0.27687 0.29652 0.0
H1980 H 0.70603 0.2849 0.30773 0.0
S1981 S 0.68609 0.30167 0.17626 0.0
N1982 N 0.65497 0.29382 0.19267 0.0
N1983 N 0.71447 0.30335 0.20518 0.0
C1984 C 0.69953 0.29732 0.23031 0.0
C1985 C 0.66643 0.29206 0.22344 0.0
C1986 C 0.54947 0.94992 0.92449 0.0
C1987 C 0.57578 0.93826 0.93015 0.0
C1988 C 0.54429 0.97484 0.94542 0.0
C1989 C 0.56538 0.99005 0.97294 0.0
H1990 H 0.53221 0.93914 0.90409 0.0
H1991 H 0.52335 0.98206 0.94007 0.0
S1992 S 0.63851 0.97008 0.99841 0.0
N1993 N 0.62325 0.94484 0.96595 0.0
N1994 N 0.6141 0.99164 1.00382 0.0
C1995 C 0.5918 0.97885 0.97865 0.0
C1996 C 0.59683 0.95316 0.95779 0.0
C1997 C 0.92858 0.76199 0.73598 0.0
C1998 C 0.95732 0.77909 0.75282 0.0
C1999 C 0.89974 0.76632 0.74431 0.0
C2000 C 0.89678 0.78845 0.77007 0.0
H2001 H 0.92822 0.74469 0.71584 0.0
H2002 H 0.87934 0.75202 0.72999 0.0
S2003 S 0.96429 0.84034 0.8222 0.0
N2004 N 0.97968 0.81996 0.79679 0.0
N2005 N 0.9273 0.82773 0.81231 0.0
C2006 C 0.92542 0.80575 0.78696 0.0
C2007 C 0.95473 0.80125 0.77852 0.0
C2008 C 0.09067 0.08149 0.91091 0.0
C2009 C 0.11727 0.07259 0.904 0.0
C2010 C 0.07965 0.07781 0.9405 0.0
C2011 C 0.09437 0.0646 0.96466 0.0
H2012 H 0.07836 0.09175 0.89343 0.0
H2013 H 0.0594 0.08559 0.94451 0.0
S2014 S 0.16433 0.03617 0.95839 0.0
N2015 N 0.15795 0.04967 0.92432 0.0
N2016 N 0.13656 0.04136 0.97838 0.0
C2017 C 0.1206 0.05495 0.95766 0.0
C2018 C 0.13218 0.05932 0.92792 0.0
C2019 C 0.81338 0.40245 0.59969 0.0
C2020 C 0.83169 0.42983 0.59493 0.0
C2021 C 0.8232 0.38654 0.62362 0.0
C2022 C 0.85172 0.39755 0.64263 0.0
H2023 H 0.79225 0.39252 0.58373 0.0
H2024 H 0.80935 0.36484 0.62602 0.0
S2025 S 0.90728 0.46813 0.64062 0.0
N2026 N 0.87878 0.46789 0.61249 0.0
N2027 N 0.89702 0.43755 0.65723 0.0
C2028 C 0.8692 0.42563 0.63959 0.0
C2029 C 0.85919 0.442 0.6157 0.0
C2030 C 0.46123 1.01682 0.43829 0.0
C2031 C 0.46537 0.03989 0.41927 0.0
C2032 C 0.48161 0.01873 0.46614 0.0
C2033 C 0.50554 0.04421 0.4758 0.0
H2034 H 0.44258 0.99715 0.4313 0.0
H2035 H 0.47856 1.00041 0.48025 0.0
S2036 S 0.52523 0.11044 0.43412 0.0
N2037 N 0.49517 0.08816 0.41083 0.0
N2038 N 0.53229 0.09282 0.4651 0.0
C2039 C 0.5099 0.06727 0.45694 0.0
C2040 C 0.48987 0.06487 0.42808 0.0
C2041 C 0.77114 0.74145 0.15337 0.0
C2042 C 0.79364 0.75173 0.1346 0.0
C2043 C 0.7751 0.75061 0.18726 0.0
C2044 C 0.80145 0.771 0.20426 0.0
H2045 H 0.75036 0.72565 0.14188 0.0
H2046 H 0.75756 0.74107 0.20028 0.0
S2047 S 0.86813 0.8037 0.16766 0.0
N2048 N 0.84419 0.78268 0.13666 0.0
N2049 N 0.851 0.8002 0.19968 0.0
C2050 C 0.82428 0.78114 0.18601 0.0
C2051 C 0.8205 0.77155 0.15152 0.0
C2052 C 0.10385 0.04545 0.69494 0.0
C2053 C 0.11541 0.07378 0.71501 0.0
C2054 C 0.0955 0.04317 0.66092 0.0
C2055 C 0.09795 0.06906 0.6452 0.0
H2056 H 0.1015 0.02481 0.70549 0.0
H2057 H 0.08681 0.02086 0.6468 0.0
S2058 S 0.13076 0.14799 0.68594 0.0
N2059 N 0.13104 0.1279 0.71568 0.0
N2060 N 0.11578 0.12351 0.65288 0.0
C2061 C 0.1101 0.09721 0.66501 0.0
C2062 C 0.11869 0.09956 0.69942 0.0
C2063 C 0.8354 0.37924 0.42291 0.0
C2064 C 0.82395 0.40537 0.42291 0.0
C2065 C 0.8339 0.36006 0.39421 0.0
C2066 C 0.81946 0.36538 0.36466 0.0
H2067 H 0.84619 0.37388 0.44513 0.0
H2068 H 0.84449 0.34108 0.39544 0.0
S2069 S 0.78632 0.43167 0.35271 0.0
N2070 N 0.79954 0.43715 0.39161 0.0
N2071 N 0.79351 0.39921 0.33784 0.0
C2072 C 0.80768 0.39153 0.36468 0.0
C2073 C 0.8107 0.41197 0.39377 0.0
C2074 C 0.42839 0.04052 0.2242 0.0
C2075 C 0.44654 0.05177 0.25436 0.0
C2076 C 0.44109 0.03032 0.19781 0.0
C2077 C 0.47209 0.03118 0.20103 0.0
H2078 H 0.40397 0.03683 0.22174 0.0
H2079 H 0.42631 0.01915 0.1757 0.0
S2080 S 0.53014 0.06539 0.27216 0.0
N2081 N 0.49775 0.06863 0.28416 0.0
N2082 N 0.52145 0.04907 0.23401 0.0
C2083 C 0.49097 0.04604 0.22955 0.0
C2084 C 0.47815 0.05661 0.25649 0.0
C2085 C 0.76882 0.74104 0.91825 0.0
C2086 C 0.79071 0.75079 0.94635 0.0
C2087 C 0.77369 0.75087 0.88834 0.0
C2088 C 0.80105 0.77025 0.88457 0.0
H2089 H 0.74747 0.72592 0.91943 0.0
H2090 H 0.75548 0.74375 0.86821 0.0
S2091 S 0.867 0.8 0.94959 0.0
N2092 N 0.8414 0.78029 0.96776 0.0
N2093 N 0.85108 0.79701 0.91168 0.0
C2094 C 0.82332 0.77958 0.91232 0.0
C2095 C 0.81809 0.77023 0.94296 0.0
C2096 C 0.88739 0.14211 0.08532 0.0
C2097 C 0.86429 0.12165 0.09562 0.0
C2098 C 0.90596 0.13143 0.06541 0.0
C2099 C 0.90279 0.1003 0.05705 0.0
H2100 H 0.88844 0.16626 0.08876 0.0
H2101 H 0.92108 0.14737 0.05446 0.0
S2102 S 0.85554 0.03883 0.09033 0.0
N2103 N 0.84553 0.07 0.10471 0.0
N2104 N 0.88229 0.04965 0.06848 0.0
C2105 C 0.88439 0.08005 0.07281 0.0
C2106 C 0.86474 0.09093 0.09234 0.0
C2107 C 0.45516 0.45988 0.07535 0.0
C2108 C 0.42676 0.46548 0.06436 0.0
C2109 C 0.48246 0.47924 0.0714 0.0
C2110 C 0.48286 0.50496 0.0557 0.0
H2111 H 0.4564 0.44024 0.08699 0.0
H2112 H 0.5035 0.47362 0.08045 0.0
S2113 S 0.41442 0.52888 0.02075 0.0
N2114 N 0.40081 0.49891 0.03708 0.0
N2115 N 0.45151 0.53336 0.02721 0.0
C2116 C 0.45449 0.51033 0.04393 0.0
C2117 C 0.42673 0.49118 0.04887 0.0
C2118 C 0.40724 0.59902 0.81562 0.0
C2119 C 0.41793 0.59452 0.78606 0.0
C2120 C 0.39703 0.62518 0.82487 0.0
C2121 C 0.39707 0.64748 0.80471 0.0
H2122 H 0.40821 0.58295 0.83237 0.0
H2123 H 0.39023 0.62862 0.84849 0.0
S2124 S 0.42035 0.64481 0.72364 0.0
N2125 N 0.42637 0.61323 0.73586 0.0
N2126 N 0.40644 0.66232 0.75292 0.0
C2127 C 0.40592 0.64229 0.77422 0.0
C2128 C 0.41671 0.61581 0.765 0.0
C2129 C 0.17752 0.62845 0.55403 0.0
C2130 C 0.1976 0.61186 0.5669 0.0
C2131 C 0.14669 0.61553 0.54586 0.0
C2132 C 0.13512 0.58558 0.5501 0.0
H2133 H 0.1855 0.6518 0.5508 0.0
H2134 H 0.13185 0.62942 0.53713 0.0
S2135 S 0.17892 0.53227 0.58158 0.0
N2136 N 0.20422 0.56407 0.58296 0.0
N2137 N 0.1465 0.53904 0.56629 0.0
C2138 C 0.15529 0.56837 0.56173 0.0
C2139 C 0.18652 0.58175 0.57057 0.0
C2140 C 0.73019 0.98553 0.75544 0.0
C2141 C 0.74954 1.00955 0.74517 0.0
C2142 C 0.74204 0.96795 0.77593 0.0
C2143 C 0.77328 0.97341 0.78527 0.0
H2144 H 0.70584 0.98282 0.75135 0.0
H2145 H 0.72678 0.95177 0.78649 0.0
S2146 S 0.83316 0.02543 0.75547 0.0
N2147 N 0.80115 0.03258 0.73911 0.0
N2148 N 0.82345 0.99794 0.77678 0.0
C2149 C 0.79284 0.99335 0.77067 0.0
C2150 C 0.78084 1.01175 0.75036 0.0
C2151 C 0.77463 0.97736 0.56549 0.0
C2152 C 0.77015 0.94593 0.56575 0.0
C2153 C 0.75003 0.99066 0.5582 0.0
C2154 C 0.7203 0.973 0.55157 0.0
H2155 H 0.79731 0.99139 0.56849 0.0
H2156 H 0.75446 1.01428 0.555 0.0
S2157 S 0.69617 0.89101 0.55466 0.0
N2158 N 0.73346 0.89837 0.56273 0.0
N2159 N 0.68739 0.9236 0.5495 0.0
C2160 C 0.71541 0.94226 0.55482 0.0
C2161 C 0.74033 0.92862 0.56174 0.0
C2162 C 0.37958 0.43834 0.80094 0.0
C2163 C 0.40212 0.4394 0.78077 0.0
C2164 C 0.36046 0.41073 0.80449 0.0
C2165 C 0.36261 0.38271 0.78774 0.0
H2166 H 0.37696 0.45905 0.81468 0.0
H2167 H 0.34425 0.41141 0.82106 0.0
S2168 S 0.41754 0.37277 0.73138 0.0
N2169 N 0.42525 0.40968 0.74371 0.0
N2170 N 0.38933 0.3582 0.7497 0.0
C2171 C 0.3849 0.38352 0.7672 0.0
C2172 C 0.40454 0.41164 0.76387 0.0
C2173 C 0.25693 0.68987 0.25467 0.0
C2174 C 0.252 0.67151 0.2784 0.0
C2175 C 0.2673 0.7209 0.26349 0.0
C2176 C 0.27349 0.73402 0.29609 0.0
H2177 H 0.25286 0.68021 0.22931 0.0
H2178 H 0.2706 0.73471 0.2448 0.0
S2179 S 0.25499 0.696 0.36553 0.0
N2180 N 0.24713 0.66837 0.3345 0.0
N2181 N 0.26822 0.72748 0.35137 0.0
C2182 C 0.26607 0.71618 0.31972 0.0
C2183 C 0.25507 0.68449 0.31073 0.0
C2184 C 0.51216 0.68075 0.50914 0.0
C2185 C 0.53394 0.70852 0.51131 0.0
C2186 C 0.5198 0.65312 0.51745 0.0
C2187 C 0.5499 0.65064 0.52856 0.0
H2188 H 0.48864 0.68025 0.50098 0.0
H2189 H 0.50155 0.63326 0.51518 0.0
S2190 S 0.61652 0.71486 0.53321 0.0
N2191 N 0.58777 0.73 0.52258 0.0
N2192 N 0.60178 0.67947 0.53701 0.0
C2193 C 0.57186 0.6781 0.52975 0.0
C2194 C 0.56407 0.70624 0.52152 0.0
C2195 C 0.67684 0.33056 0.72841 0.0
C2196 C 0.67942 0.33044 0.69535 0.0
C2197 C 0.70168 0.33026 0.75203 0.0
C2198 C 0.73085 0.33005 0.7443 0.0
H2199 H 0.65517 0.33052 0.73627 0.0
H2200 H 0.69762 0.32997 0.77651 0.0
S2201 S 0.7501 0.32975 0.66079 0.0
N2202 N 0.71378 0.32996 0.65612 0.0
N2203 N 0.76023 0.33007 0.69974 0.0
C2204 C 0.73374 0.33033 0.71111 0.0
C2205 C 0.70828 0.33033 0.68703 0.0
C2206 C 0.04893 0.41193 1.00156 0.0
C2207 C 0.03077 0.39002 0.01631 0.0
C2208 C 0.05263 0.44387 0.01065 0.0
C2209 C 0.03833 0.45679 0.03516 0.0
H2210 H 0.06064 0.40436 0.98246 0.0
H2211 H 0.06702 0.45868 0.99792 0.0
S2212 S 0.98945 0.40998 0.08328 0.0
N2213 N 0.99883 0.38433 0.05781 0.0
N2214 N 1.00599 0.44339 0.07513 0.0
C2215 C 1.02028 0.43508 0.05041 0.0
C2216 C 1.01651 0.40234 0.04106 0.0
C2217 C 0.99811 0.80489 0.17101 0.0
C2218 C 0.02869 0.8119 0.18542 0.0
C2219 C 0.97509 0.79345 0.18817 0.0
C2220 C 0.98211 0.78864 0.22011 0.0
H2221 H 0.99203 0.80676 0.14583 0.0
H2222 H 0.95199 0.78638 0.17576 0.0
S2223 S 0.05787 0.8056 0.2697 0.0
N2224 N 0.06431 0.81527 0.23437 0.0
N2225 N 1.02083 0.79361 0.26636 0.0
C2226 C 1.01219 0.79743 0.23546 0.0
C2227 C 0.03561 0.80916 0.21815 0.0
C2228 C 0.55485 0.33707 0.13422 0.0
C2229 C 0.55478 0.34332 0.16772 0.0
C2230 C 0.56616 0.35998 0.11693 0.0
C2231 C 0.57733 0.3899 0.13246 0.0
H2232 H 0.54802 0.31402 0.12157 0.0
H2233 H 0.56804 0.35393 0.09174 0.0
S2234 S 0.57792 0.41922 0.21826 0.0
N2235 N 0.56374 0.3824 0.21487 0.0
N2236 N 0.5847 0.42555 0.18188 0.0
C2237 C 0.57502 0.39704 0.16514 0.0
C2238 C 0.56379 0.37368 0.18294 0.0
C2239 C 0.95578 0.33005 0.3515 0.0
C2240 C 0.97759 0.33811 0.33096 0.0
C2241 C 0.92393 0.32638 0.34181 0.0
C2242 C 0.91115 0.33087 0.31092 0.0
H2243 H 0.96338 0.32646 0.37573 0.0
H2244 H 0.90905 0.32008 0.35911 0.0
S2245 S 0.95684 0.34949 0.24594 0.0
N2246 N 0.98269 0.34864 0.27667 0.0
N2247 N 0.92382 0.34213 0.25891 0.0
C2248 C 0.93253 0.33862 0.28985 0.0
C2249 C 0.96513 0.3421 0.29965 0.0
C2250 C 0.04837 0.69465 0.61914 0.0
C2251 C 0.03923 0.69098 0.64947 0.0
C2252 C 0.04895 0.66962 0.59586 0.0
C2253 C 0.03953 0.63929 0.60099 0.0
H2254 H 0.05601 0.71724 0.61353 0.0
H2255 H 0.05781 0.67439 0.57409 0.0
S2256 S 1.01323 0.61694 0.67659 0.0
N2257 N 1.02094 0.65433 0.68346 0.0
N2258 N 1.02061 0.60766 0.63987 0.0
C2259 C 0.03004 0.63539 0.63131 0.0
C2260 C 0.03017 0.66096 0.6553 0.0
C2261 C 0.68739 0.83118 0.85906 0.0
C2262 C 0.66355 0.83614 0.83648 0.0
C2263 C 0.71504 0.8239 0.85035 0.0
C2264 C 0.72145 0.82021 0.81804 0.0
H2265 H 0.68477 0.83298 0.88431 0.0
H2266 H 0.73161 0.82076 0.86951 0.0
S2267 S 0.6683 0.83141 0.74842 0.0
N2268 N 0.65014 0.83732 0.77927 0.0
N2269 N 0.70031 0.82323 0.76328 0.0
C2270 C 0.69781 0.8249 0.79509 0.0
C2271 C 0.66979 0.83283 0.80405 0.0
C2272 C 0.53601 0.53615 0.69332 0.0
C2273 C 0.5079 0.54309 0.69774 0.0
C2274 C 0.55005 0.54281 0.66598 0.0
C2275 C 0.53678 0.55671 0.64149 0.0
H2276 H 0.54706 0.52495 0.71084 0.0
H2277 H 0.57136 0.53661 0.66387 0.0
S2278 S 0.46614 0.58456 0.6442 0.0
N2279 N 0.46929 0.56806 0.67672 0.0
N2280 N 0.49553 0.58068 0.62634 0.0
C2281 C 0.50963 0.56537 0.64675 0.0
C2282 C 0.49525 0.55843 0.67435 0.0
C2283 C 0.77113 0.19044 0.99111 0.0
C2284 C 0.77445 0.20275 0.02387 0.0
C2285 C 0.75895 0.20499 0.96724 0.0
C2286 C 0.74966 0.23196 0.97572 0.0
H2287 H 0.77657 0.16882 0.98393 0.0
H2288 H 0.75542 0.19439 0.94223 0.0
S2289 S 0.75838 0.2759 0.05729 0.0
N2290 N 0.77119 0.24546 0.06313 0.0
N2291 N 0.74803 0.27248 0.01791 0.0
C2292 C 0.75494 0.24559 0.00799 0.0
C2293 C 0.7675 0.23104 0.03225 0.0
C2294 C 0.15408 0.55418 0.1495 0.0
C2295 C 0.16502 0.58289 0.16804 0.0
C2296 C 0.12664 0.54794 0.12897 0.0
C2297 C 0.11033 0.57056 0.12626 0.0
H2298 H 0.1652 0.53582 0.15321 0.0
H2299 H 0.11742 0.52503 0.11646 0.0
S2300 S 0.13087 0.64956 0.16852 0.0
N2301 N 0.15882 0.63424 0.18185 0.0
N2302 N 0.10702 0.6226 0.14246 0.0
C2303 C 0.12167 0.59963 0.14367 0.0
C2304 C 0.14948 0.60592 0.16456 0.0
C2305 C 0.83852 0.88117 0.4431 0.0
C2306 C 0.83387 0.86218 0.46684 0.0
C2307 C 0.83612 0.86931 0.41016 0.0
C2308 C 0.82901 0.83784 0.39934 0.0
H2309 H 0.84427 0.90557 0.45003 0.0
H2310 H 0.84003 0.88497 0.39303 0.0
S2311 S 0.81144 0.7782 0.4508 0.0
N2312 N 0.81976 0.81018 0.47654 0.0
N2313 N 0.81539 0.78794 0.4149 0.0
C2314 C 0.82398 0.81857 0.42269 0.0
C2315 C 0.82634 0.83068 0.45629 0.0
C2316 C 0.50108 0.55764 0.90143 0.0
C2317 C 0.50705 0.53616 0.87745 0.0
C2318 C 0.51276 0.55966 0.93449 0.0
C2319 C 0.53137 0.54058 0.94541 0.0
H2320 H 0.48699 0.57293 0.89471 0.0
H2321 H 0.50721 0.57658 0.95164 0.0
S2322 S 0.55422 0.48097 0.89191 0.0
N2323 N 0.53252 0.49537 0.867 0.0
N2324 N 0.55564 0.50012 0.9281 0.0
C2325 C 0.5379 0.51952 0.92135 0.0
C2326 C 0.52547 0.51706 0.88782 0.0
C2327 C 0.82154 0.21426 0.20241 0.0
C2328 C 0.79692 0.20455 0.17757 0.0
C2329 C 0.82563 0.2423 0.22153 0.0
C2330 C 0.80462 0.26034 0.21662 0.0
H2331 H 0.83868 0.20119 0.20551 0.0
H2332 H 0.84594 0.2505 0.23917 0.0
S2333 S 0.74006 0.24688 0.1504 0.0
N2334 N 0.75387 0.21622 0.14587 0.0
N2335 N 0.76092 0.26868 0.18285 0.0
C2336 C 0.78046 0.25117 0.19117 0.0
C2337 C 0.7765 0.22294 0.1716 0.0
C2338 C 0.17561 0.58707 0.35914 0.0
C2339 C 0.1661 0.58468 0.32592 0.0
C2340 C 0.16148 0.60234 0.38123 0.0
C2341 C 0.13805 0.61618 0.37051 0.0
H2342 H 0.19463 0.57797 0.36796 0.0
H2343 H 0.16963 0.60428 0.40679 0.0
S2344 S 0.10569 0.61687 0.28592 0.0
N2345 N 0.13226 0.59755 0.28322 0.0
N2346 N 0.10561 0.62606 0.32494 0.0
C2347 C 0.12807 0.61345 0.3374 0.0
C2348 C 0.14213 0.59767 0.315 0.0
C2349 C 0.82162 0.87826 0.67551 0.0
C2350 C 0.82649 0.86124 0.64711 0.0
C2351 C 0.81436 0.86477 0.70289 0.0
C2352 C 0.8123 0.83355 0.7039 0.0
H2353 H 0.82352 0.90243 0.67676 0.0
H2354 H 0.81135 0.87932 0.72394 0.0
S2355 S 0.81966 0.77795 0.63455 0.0
N2356 N 0.82572 0.81066 0.62081 0.0
N2357 N 0.81353 0.78563 0.67208 0.0
C2358 C 0.81604 0.81606 0.67512 0.0
C2359 C 0.82283 0.82976 0.64699 0.0
C2360 C 0.74096 0.5025 0.51662 0.0
C2361 C 0.77259 0.51025 0.52195 0.0
C2362 C 0.72481 0.51235 0.54011 0.0
C2363 C 0.74003 0.52957 0.56973 0.0
H2364 H 0.72879 0.48732 0.49509 0.0
H2365 H 0.70033 0.50549 0.53565 0.0
S2366 S 0.82264 0.55672 0.59463 0.0
N2367 N 0.81867 0.53701 0.55825 0.0
N2368 N 0.78796 0.55568 0.60235 0.0
C2369 C 0.77155 0.53859 0.57471 0.0
C2370 C 0.78799 0.52896 0.5507 0.0
C2371 C 0.20232 0.12139 0.53627 0.0
C2372 C 0.20211 0.15003 0.52705 0.0
C2373 C 0.17533 0.10098 0.53911 0.0
C2374 C 0.14669 0.10747 0.53119 0.0
H2375 H 0.22361 0.11507 0.54256 0.0
H2376 H 0.17725 0.08037 0.54835 0.0
S2377 S 0.13412 0.18014 0.5064 0.0
N2378 N 0.17116 0.18459 0.51186 0.0
N2379 N 0.1207 0.14549 0.51321 0.0
C2380 C 0.14645 0.13585 0.52081 0.0
C2381 C 0.17397 0.15722 0.51976 0.0
C2382 C 0.2335 0.02801 0.79499 0.0
C2383 C 0.20374 0.01779 0.80092 0.0
C2384 C 0.24942 1.00775 0.78183 0.0
C2385 C 0.23628 0.97668 0.77475 0.0
H2386 H 0.24389 0.052 0.79847 0.0
H2387 H 0.27135 1.01659 0.77525 0.0
S2388 S 0.16142 0.93774 0.79079 0.0
N2389 N 0.1633 0.9741 0.80237 0.0
N2390 N 0.1938 0.9359 0.77796 0.0
C2391 C 0.2078 0.96577 0.78319 0.0
C2392 C 0.19133 0.98642 0.79622 0.0
C2393 C 0.44445 0.99067 0.02638 0.0
C2394 C 0.41939 1.00239 0.01622 0.0
C2395 C 0.47373 1.00775 0.02754 0.0
C2396 C 0.47839 0.03741 0.02071 0.0
H2397 H 0.44146 0.96785 0.03209 0.0
H2398 H 0.49252 0.99711 0.03184 0.0
S2399 S 0.42036 0.07715 0.98972 0.0
N2400 N 0.40119 0.04403 0.99557 0.0
N2401 N 0.45605 0.07733 1.00181 0.0
C2402 C 0.45346 0.04945 0.01101 0.0
C2403 C 0.42392 0.03165 0.00796 0.0
C2404 C 0.88539 0.61455 0.80093 0.0
C2405 C 0.87359 0.60565 0.82835 0.0
C2406 C 0.86816 0.62561 0.77773 0.0
C2407 C 0.83892 0.62858 0.78164 0.0
H2408 H 0.9072 0.61086 0.79608 0.0
H2409 H 0.87751 0.63141 0.75637 0.0
S2410 S 0.79967 0.61247 0.85142 0.0
N2411 N 0.83223 0.60253 0.8595 0.0
N2412 N 0.8001 0.62529 0.8165 0.0
C2413 C 0.82773 0.62195 0.8101 0.0
C2414 C 0.84503 0.6099 0.83335 0.0
C2415 C 0.87719 0.66989 0.04743 0.0
C2416 C 0.84634 0.65986 0.04955 0.0
C2417 C 0.89884 0.65564 0.06141 0.0
C2418 C 0.8901 0.63136 0.0782 0.0
H2419 H 0.88475 0.68958 0.03612 0.0
H2420 H 0.92259 0.66484 0.06095 0.0
S2421 S 0.81248 0.59563 0.08927 0.0
N2422 N 0.80826 0.62308 0.0683 0.0
N2423 N 0.84906 0.5967 0.09462 0.0
C2424 C 0.85935 0.62012 0.07889 0.0
C2425 C 0.83737 0.63431 0.06455 0.0
C2426 C 0.21129 0.19393 0.82609 0.0
C2427 C 0.21895 0.16556 0.82411 0.0
C2428 C 0.23273 0.22047 0.82413 0.0
C2429 C 0.26256 0.21987 0.81857 0.0
H2430 H 0.18845 0.19568 0.82885 0.0
H2431 H 0.22529 0.24154 0.82581 0.0
S2432 S 0.29463 0.15125 0.81438 0.0
N2433 N 0.2594 0.13884 0.81984 0.0
N2434 N 0.29815 0.18766 0.81269 0.0
C2435 C 0.27036 0.19152 0.81709 0.0
C2436 C 0.24902 0.16474 0.82065 0.0
C2437 C 0.33644 0.93906 0.30287 0.0
C2438 C 0.36806 0.94657 0.31113 0.0
C2439 C 0.3202 0.91 0.30383 0.0
C2440 C 0.33526 0.88807 0.31334 0.0
H2441 H 0.32406 0.95622 0.29779 0.0
H2442 H 0.29568 0.90533 0.29966 0.0
S2443 S 0.41776 0.8964 0.3354 0.0
N2444 N 0.41404 0.92957 0.32606 0.0
N2445 N 0.38309 0.87523 0.33041 0.0
C2446 C 0.36687 0.89483 0.31993 0.0
C2447 C 0.38349 0.92413 0.31791 0.0
C2448 C 0.58376 0.41813 0.56136 0.0
C2449 C 0.58905 0.41227 0.59383 0.0
C2450 C 0.57973 0.44718 0.553 0.0
C2451 C 0.5813 0.47325 0.57632 0.0
H2452 H 0.58263 0.39996 0.54186 0.0
H2453 H 0.5758 0.44929 0.52766 0.0
S2454 S 0.59103 0.47072 0.66482 0.0
N2455 N 0.59267 0.43619 0.64929 0.0
N2456 N 0.58651 0.48914 0.63394 0.0
C2457 C 0.58602 0.46747 0.6087 0.0
C2458 C 0.58947 0.43789 0.61721 0.0
C2459 C 0.4044 0.78811 0.4221 0.0
C2460 C 0.43412 0.79521 0.41432 0.0
C2461 C 0.3786 0.79231 0.40162 0.0
C2462 C 0.38089 0.80439 0.37232 0.0
H2463 H 0.4009 0.77892 0.44412 0.0
H2464 H 0.35657 0.78591 0.40893 0.0
S2465 S 0.45415 0.83071 0.34298 0.0
N2466 N 0.46403 0.81684 0.37587 0.0
N2467 N 0.41713 0.82632 0.33946 0.0
C2468 C 0.4108 0.81266 0.36528 0.0
C2469 C 0.43676 0.80771 0.38556 0.0
C2470 C 0.05478 0.70108 0.09582 0.0
C2471 C 0.08176 0.7221 0.09303 0.0
C2472 C 0.05136 0.66867 0.08987 0.0
C2473 C 0.07473 0.65436 0.08097 0.0
H2474 H 0.03581 0.70974 0.10281 0.0
H2475 H 0.02983 0.65464 0.09239 0.0
S2476 S 0.1513 0.69871 0.07382 0.0
N2477 N 0.13284 0.72532 0.08234 0.0
N2478 N 0.12713 0.66603 0.07249 0.0
C2479 C 0.10202 0.67534 0.07897 0.0
C2480 C 0.1053 0.70833 0.08461 0.0
C2481 C 0.1214 0.31246 0.94311 0.0
C2482 C 0.09283 0.29706 0.92585 0.0
C2483 C 0.1467 0.31969 0.92745 0.0
C2484 C 0.14463 0.31176 0.89386 0.0
H2485 H 0.12396 0.3206 0.96873 0.0
H2486 H 0.16748 0.33376 0.94134 0.0
S2487 S 0.07673 0.26708 0.83814 0.0
N2488 N 0.06515 0.27078 0.87367 0.0
N2489 N 0.11286 0.28463 0.84437 0.0
C2490 C 0.11706 0.29407 0.87672 0.0
C2491 C 0.09112 0.28672 0.89265 0.0
C2492 C 0.55861 0.74717 0.90347 0.0
C2493 C 0.56767 0.77669 0.92108 0.0
C2494 C 0.55191 0.72167 0.91907 0.0
C2495 C 0.55413 0.72461 0.95288 0.0
H2496 H 0.5552 0.74377 0.87732 0.0
H2497 H 0.54266 0.69969 0.90443 0.0
S2498 S 0.58016 0.79614 0.01053 0.0
N2499 N 0.58132 0.80689 0.97468 0.0
N2500 N 0.56846 0.75886 1.00366 0.0
C2501 C 0.56535 0.75363 0.97091 0.0
C2502 C 0.57214 0.77969 0.9551 0.0
C2503 C 0.16233 0.77623 0.77659 0.0
C2504 C 0.14684 0.78262 0.74771 0.0
C2505 C 0.19491 0.7805 0.78319 0.0
C2506 C 0.21471 0.79195 0.7617 0.0
H2507 H 0.14918 0.76785 0.79453 0.0
H2508 H 0.20473 0.77532 0.80591 0.0
S2509 S 0.18708 0.81041 0.68158 0.0
N2510 N 0.15561 0.79968 0.69664 0.0
N2511 N 0.21499 0.80802 0.70924 0.0
C2512 C 0.19953 0.79808 0.73276 0.0
C2513 C 0.16652 0.79337 0.72581 0.0
C2514 C 0.04934 0.45115 0.42338 0.0
C2515 C 0.07275 0.43622 0.43201 0.0
C2516 C 0.04424 0.47633 0.44391 0.0
C2517 C 0.06254 0.48858 0.47416 0.0
H2518 H 0.03416 0.44277 0.40081 0.0
H2519 H 0.02529 0.48582 0.43612 0.0
S2520 S 0.12829 0.45996 0.50777 0.0
N2521 N 0.11503 0.43695 0.47325 0.0
N2522 N 0.10604 0.48411 0.51067 0.0
C2523 C 0.08623 0.47419 0.48283 0.0
C2524 C 0.09118 0.44829 0.4622 0.0
C2525 C 0.42851 0.26344 0.23437 0.0
C2526 C 0.45717 0.27756 0.2536 0.0
C2527 C 0.39964 0.26754 0.24284 0.0
C2528 C 0.39648 0.28645 0.27126 0.0
H2529 H 0.42823 0.24879 0.21207 0.0
H2530 H 0.37936 0.25575 0.22642 0.0
S2531 S 0.46356 0.32863 0.33131 0.0
N2532 N 0.47919 0.31156 0.30336 0.0
N2533 N 0.42665 0.31883 0.31908 0.0
C2534 C 0.425 0.30067 0.29069 0.0
C2535 C 0.45439 0.29641 0.28207 0.0
C2536 C 0.59355 0.57739 0.40817 0.0
C2537 C 0.62185 0.57186 0.40244 0.0
C2538 C 0.58287 0.57417 0.43807 0.0
C2539 C 0.59951 0.5646 0.46396 0.0
H2540 H 0.57956 0.58473 0.38949 0.0
H2541 H 0.56129 0.57957 0.4409 0.0
S2542 S 0.67497 0.54657 0.46181 0.0
N2543 N 0.66648 0.55642 0.42606 0.0
N2544 N 0.64596 0.54907 0.48086 0.0
C2545 C 0.62763 0.55846 0.4583 0.0
C2546 C 0.63883 0.5624 0.42813 0.0
C2547 C 0.3147 0.89092 0.09082 0.0
C2548 C 0.32305 0.9224 0.09123 0.0
C2549 C 0.32458 0.8781 0.11733 0.0
C2550 C 0.34252 0.89657 0.14474 0.0
H2551 H 0.30309 0.87593 0.06897 0.0
H2552 H 0.32027 0.85365 0.11542 0.0
S2553 S 0.36372 0.9802 0.1609 0.0
N2554 N 0.34521 0.97192 0.12364 0.0
N2555 N 0.36354 0.94738 0.17356 0.0
C2556 C 0.34752 0.92804 0.14713 0.0
C2557 C 0.33767 0.94115 0.12022 0.0
C2558 C 0.97757 0.51727 0.93415 0.0
C2559 C 0.96149 0.54003 0.93106 0.0
C2560 C 0.99899 0.51948 0.9612 0.0
C2561 C 1.00508 0.5447 0.98556 0.0
H2562 H 0.97413 0.4981 0.91511 0.0
H2563 H 1.0114 0.50175 0.9627 0.0
S2564 S 0.96794 0.60978 0.98877 0.0
N2565 N 0.95164 0.58766 0.95451 0.0
N2566 N 0.99273 0.59243 1.00554 0.0
C2567 C 0.98828 0.56711 0.98328 0.0
C2568 C 0.96612 0.56457 0.95587 0.0
C2569 C 0.27086 0.25412 0.65005 0.0
C2570 C 0.29636 0.25338 0.63445 0.0
C2571 C 0.27355 0.26244 0.68392 0.0
C2572 C 0.30168 0.27004 0.70436 0.0
H2573 H 0.24841 0.24801 0.636 0.0
H2574 H 0.25326 0.26216 0.69422 0.0
S2575 S 0.37582 0.27198 0.67656 0.0
N2576 N 0.3512 0.26135 0.6429 0.0
N2577 N 0.35584 0.27649 0.70607 0.0
C2578 C 0.32738 0.26923 0.68923 0.0
C2579 C 0.32481 0.26111 0.6546 0.0
C2580 C 0.63756 0.57129 0.18786 0.0
C2581 C 0.61847 0.57456 0.2114 0.0
C2582 C 0.62718 0.56852 0.15434 0.0
C2583 C 0.59711 0.56914 0.14221 0.0
H2584 H 0.66094 0.57073 0.19535 0.0
H2585 H 0.64309 0.56603 0.13776 0.0
S2586 S 0.53723 0.57588 0.19292 0.0
N2587 N 0.56744 0.57737 0.21949 0.0
N2588 N 0.54809 0.57226 0.15704 0.0
C2589 C 0.57772 0.57228 0.16541 0.0
C2590 C 0.58828 0.57491 0.19964 0.0
C2591 C 0.35072 0.88535 0.91478 0.0
C2592 C 0.32853 0.90198 0.91848 0.0
C2593 C 0.34844 0.86506 0.88688 0.0
C2594 C 0.32395 0.86097 0.86205 0.0
H2595 H 0.36959 0.88753 0.93384 0.0
H2596 H 0.36548 0.85186 0.88513 0.0
S2597 S 0.26062 0.90037 0.85989 0.0
N2598 N 0.28211 0.91444 0.89507 0.0
N2599 N 0.27755 0.8757 0.84219 0.0
C2600 C 0.30217 0.87837 0.8649 0.0
C2601 C 0.30459 0.89918 0.89334 0.0
C2602 C 0.92966 0.54048 0.73044 0.0
C2603 C 0.94878 0.55139 0.76008 0.0
C2604 C 0.94162 0.53228 0.70278 0.0
C2605 C 0.97271 0.53405 0.70446 0.0
H2606 H 0.90527 0.53581 0.72907 0.0
H2607 H 0.92627 0.52219 0.68088 0.0
S2608 S 0.03259 0.57178 0.77278 0.0
N2609 N 1.00058 0.57199 0.78707 0.0
N2610 N 0.02286 0.55511 0.7348 0.0
C2611 C 0.99224 0.54945 0.73233 0.0
C2612 C 0.98021 0.55849 0.76041 0.0
C2613 C 0.27894 0.27398 0.4343 0.0
C2614 C 0.29525 0.25317 0.44557 0.0
C2615 C 0.28257 0.28497 0.4045 0.0
C2616 C 0.30263 0.27569 0.38433 0.0
H2617 H 0.26287 0.28152 0.44834 0.0
H2618 H 0.26909 0.30049 0.39693 0.0
S2619 S 0.3543 0.226 0.40509 0.0
N2620 N 0.33461 0.22658 0.43522 0.0
N2621 N 0.34117 0.2469 0.38005 0.0
C2622 C 0.31965 0.25578 0.39589 0.0
C2623 C 0.31604 0.24468 0.42611 0.0
C2624 C 0.37238 0.63978 0.5659 0.0
C2625 C 0.36266 0.62666 0.59222 0.0
C2626 C 0.38845 0.62546 0.54562 0.0
C2627 C 0.39545 0.59807 0.55164 0.0
H2628 H 0.36475 0.65936 0.55892 0.0
H2629 H 0.3938 0.63479 0.5241 0.0
S2630 S 0.38137 0.55925 0.6222 0.0
N2631 N 0.36483 0.58812 0.62648 0.0
N2632 N 0.3969 0.56149 0.58898 0.0
C2633 C 0.38925 0.5869 0.58024 0.0
C2634 C 0.37218 0.60117 0.60046 0.0
C2635 C 0.95489 0.96913 0.58624 0.0
C2636 C 0.92928 0.96366 0.56221 0.0
C2637 C 0.98225 0.98917 0.58348 0.0
C2638 C 0.98512 1.00461 0.55663 0.0
H2639 H 0.95366 0.95821 0.60754 0.0
H2640 H 1.00125 0.99279 0.60269 0.0
S2641 S 0.92643 0.99424 0.4846 0.0
N2642 N 0.90978 0.97299 0.50909 0.0
N2643 N 0.96077 1.01019 0.50397 0.0
C2644 C 0.95996 0.99851 0.53202 0.0
C2645 C 0.93223 0.97819 0.53479 0.0
C2646 C 0.89054 0.09293 0.28648 0.0
C2647 C 0.92174 0.09817 0.28487 0.0
C2648 C 0.87654 0.1171 0.29318 0.0
C2649 C 0.89321 0.14722 0.29819 0.0
H2650 H 0.8772 0.07005 0.2846 0.0
H2651 H 0.8532 0.11215 0.29724 0.0
S2652 S 0.97389 0.17337 0.29076 0.0
N2653 N 0.96781 0.13603 0.28438 0.0
N2654 N 0.94127 0.18126 0.29719 0.0
C2655 C 0.9236 0.15284 0.29366 0.0
C2656 C 0.93796 0.12833 0.28699 0.0
C2657 C 0.67735 0.1208 0.08665 0.0
C2658 C 0.69775 0.10943 0.06893 0.0
C2659 C 0.64642 0.11083 0.07691 0.0
C2660 C 0.63513 0.08937 0.04925 0.0
H2661 H 0.68519 0.13706 0.10858 0.0
H2662 H 0.63128 0.11872 0.09198 0.0
S2663 S 0.67821 0.05535 0.99226 0.0
N2664 N 0.70428 0.07763 0.02063 0.0
N2665 N 0.64529 0.05866 1.00273 0.0
C2666 C 0.65483 0.07877 0.03045 0.0
C2667 C 0.6865 0.08892 0.04022 0.0
C2668 C 0.22782 0.48343 0.25687 0.0
C2669 C 0.24821 0.50799 0.24882 0.0
C2670 C 0.23803 0.46511 0.27757 0.0
C2671 C 0.26882 0.47025 0.28942 0.0
H2672 H 0.20358 0.48051 0.25053 0.0
H2673 H 0.22171 0.4481 0.28588 0.0
S2674 S 0.3318 0.52453 0.26648 0.0
N2675 N 0.30079 0.53195 0.24794 0.0
N2676 N 0.32025 0.49603 0.28589 0.0
C2677 C 0.2898 0.49125 0.27729 0.0
C2678 C 0.27937 0.51043 0.25681 0.0
C2679 C 0.24287 0.42961 0.06015 0.0
C2680 C 0.2726 0.44712 0.06362 0.0
C2681 C 0.2179 0.44203 0.05224 0.0
C2682 C 0.22171 0.47238 0.04744 0.0
H2683 H 0.23881 0.40566 0.06183 0.0
H2684 H 0.19552 0.42719 0.04738 0.0
S2685 S 0.29436 0.52901 0.05768 0.0
N2686 N 0.30424 0.4974 0.06509 0.0
N2687 N 0.257 0.52057 0.04979 0.0
C2688 C 0.25105 0.49087 0.05344 0.0
C2689 C 0.27662 0.47825 0.06164 0.0
C2690 C 0.88207 0.92525 0.25937 0.0
C2691 C 0.90571 0.94145 0.28391 0.0
C2692 C 0.86282 0.89788 0.26369 0.0
C2693 C 0.86573 0.88631 0.29311 0.0
H2694 H 0.87893 0.93334 0.23642 0.0
H2695 H 0.8456 0.88563 0.24385 0.0
S2696 S 0.9195 0.92397 0.36711 0.0
N2697 N 0.92879 0.94544 0.3396 0.0
N2698 N 0.89078 0.89639 0.34876 0.0
C2699 C 0.88773 0.90365 0.31851 0.0
C2700 C 0.90816 0.93056 0.31363 0.0
C2701 C 0.73922 0.19386 0.77913 0.0
C2702 C 0.758 0.17316 0.78169 0.0
C2703 C 0.75078 0.22463 0.78921 0.0
C2704 C 0.78147 0.23542 0.80176 0.0
H2705 H 0.7156 0.18646 0.76846 0.0
H2706 H 0.73608 0.24004 0.78503 0.0
S2707 S 0.83899 0.19057 0.81727 0.0
N2708 N 0.80785 0.16527 0.8006 0.0
N2709 N 0.82973 0.22375 0.81952 0.0
C2710 C 0.79998 0.21499 0.8065 0.0
C2711 C 0.78821 0.18359 0.79632 0.0
loop_
_geom_bond_atom_site_label_1
_geom_bond_atom_site_label_2
_geom_bond_distance
_geom_bond_site_symmetry_2
_ccdc_geom_bond_type
In0 O1 2.294 . S
In0 O2 2.326 . S
In0 O6 2.266 . S
In0 O7 2.326 . S
In0 O8 2.266 . S
In0 O9 2.326 . S
In0 O11 2.294 . S
In0 O12 2.326 . S
O1 In0 2.294 . S
O1 C10 1.240 . S
O2 In0 2.326 . S
O2 C10 1.252 . S
C3 O6 1.252 1_655 S
C3 O7 1.260 1_655 S
C4 O11 1.240 . S
C4 O12 1.252 . S
C5 O8 1.252 . S
C5 O9 1.260 . S
O6 In0 2.266 . S
O6 C3 1.252 1_455 S
O7 In0 2.326 . S
O7 C3 1.260 1_455 S
O8 In0 2.266 . S
O8 C5 1.252 . S
O9 In0 2.326 . S
O9 C5 1.260 . S
C10 O1 1.240 . S
C10 O2 1.252 . S
O11 In0 2.294 . S
O11 C4 1.240 . S
O12 In0 2.326 . S
O12 C4 1.252 . S
In13 O14 2.294 . S
In13 O15 2.326 . S
In13 O19 2.266 . S
In13 O20 2.326 . S
In13 O21 2.272 . S
In13 O22 2.326 1_455 S
In13 O24 2.294 . S
In13 O25 2.326 . S
O14 In13 2.294 . S
O14 C23 1.240 . S
O15 In13 2.326 . S
O15 C23 1.252 . S
C16 O19 1.252 . S
C16 O20 1.260 . S
C17 O24 1.240 . S
C17 O25 1.252 . S
C18 O21 1.246 1_655 S
C18 O22 1.260 . S
O19 In13 2.266 . S
O19 C16 1.252 . S
O20 In13 2.326 . S
O20 C16 1.260 . S
O21 In13 2.272 . S
O21 C18 1.246 1_455 S
O22 In13 2.326 1_655 S
O22 C18 1.260 . S
C23 O14 1.240 . S
C23 O15 1.252 . S
O24 In13 2.294 . S
O24 C17 1.240 . S
O25 In13 2.326 . S
O25 C17 1.252 . S
In26 O27 2.294 . S
In26 O28 2.326 . S
In26 O32 2.266 . S
In26 O33 2.326 . S
In26 O34 2.266 . S
In26 O35 2.326 . S
In26 O37 2.294 . S
In26 O38 2.326 . S
O27 In26 2.294 . S
O27 C36 1.240 . S
O28 In26 2.326 . S
O28 C36 1.252 . S
C29 O32 1.252 . S
C29 O33 1.260 . S
C30 O37 1.240 . S
C30 O38 1.252 . S
C31 O34 1.252 . S
C31 O35 1.260 . S
O32 In26 2.266 . S
O32 C29 1.252 . S
O33 In26 2.326 . S
O33 C29 1.260 . S
O34 In26 2.266 . S
O34 C31 1.252 . S
O35 In26 2.326 . S
O35 C31 1.260 . S
C36 O27 1.240 . S
C36 O28 1.252 . S
O37 In26 2.294 . S
O37 C30 1.240 . S
O38 In26 2.326 . S
O38 C30 1.252 . S
In39 O40 2.294 . S
In39 O41 2.326 . S
In39 O45 2.266 . S
In39 O46 2.326 . S
In39 O47 2.266 . S
In39 O48 2.326 . S
In39 O50 2.294 . S
In39 O51 2.326 . S
O40 In39 2.294 . S
O40 C49 1.240 . S
O41 In39 2.326 . S
O41 C49 1.252 . S
C42 O45 1.252 . S
C42 O46 1.260 . S
C43 O50 1.240 . S
C43 O51 1.252 . S
C44 O47 1.252 . S
C44 O48 1.260 . S
O45 In39 2.266 . S
O45 C42 1.252 . S
O46 In39 2.326 . S
O46 C42 1.260 . S
O47 In39 2.266 . S
O47 C44 1.252 . S
O48 In39 2.326 . S
O48 C44 1.260 . S
C49 O40 1.240 . S
C49 O41 1.252 . S
O50 In39 2.294 . S
O50 C43 1.240 . S
O51 In39 2.326 . S
O51 C43 1.252 . S
In52 O53 2.294 . S
In52 O54 2.326 . S
In52 O58 2.266 . S
In52 O59 2.326 . S
In52 O60 2.266 . S
In52 O61 2.326 . S
In52 O63 2.294 . S
In52 O64 2.326 . S
O53 In52 2.294 . S
O53 C62 1.240 . S
O54 In52 2.326 . S
O54 C62 1.252 . S
C55 O58 1.252 . S
C55 O59 1.260 . S
C56 O63 1.240 . S
C56 O64 1.252 . S
C57 O60 1.252 . S
C57 O61 1.260 . S
O58 In52 2.266 . S
O58 C55 1.252 . S
O59 In52 2.326 . S
O59 C55 1.260 . S
O60 In52 2.266 . S
O60 C57 1.252 . S
O61 In52 2.326 . S
O61 C57 1.260 . S
C62 O53 1.240 . S
C62 O54 1.252 . S
O63 In52 2.294 . S
O63 C56 1.240 . S
O64 In52 2.326 . S
O64 C56 1.252 . S
In65 O66 2.294 . S
In65 O67 2.326 . S
In65 O71 2.266 . S
In65 O72 2.326 . S
In65 O73 2.266 . S
In65 O74 2.326 . S
In65 O76 2.294 . S
In65 O77 2.326 . S
O66 In65 2.294 . S
O66 C75 1.240 . S
O67 In65 2.326 . S
O67 C75 1.252 . S
C68 O71 1.252 . S
C68 O72 1.260 . S
C69 O76 1.240 . S
C69 O77 1.252 . S
C70 O73 1.252 . S
C70 O74 1.260 . S
O71 In65 2.266 . S
O71 C68 1.252 . S
O72 In65 2.326 . S
O72 C68 1.260 . S
O73 In65 2.266 . S
O73 C70 1.252 . S
O74 In65 2.326 . S
O74 C70 1.260 . S
C75 O66 1.240 . S
C75 O67 1.252 . S
O76 In65 2.294 . S
O76 C69 1.240 . S
O77 In65 2.326 . S
O77 C69 1.252 . S
In78 O79 2.294 . S
In78 O80 2.326 . S
In78 O84 2.266 . S
In78 O85 2.326 . S
In78 O86 2.266 . S
In78 O87 2.326 . S
In78 O89 2.294 . S
In78 O90 2.326 . S
O79 In78 2.294 . S
O79 C88 1.240 . S
O80 In78 2.326 . S
O80 C88 1.252 . S
C81 O84 1.252 . S
C81 O85 1.260 . S
C82 O89 1.240 . S
C82 O90 1.252 . S
C83 O86 1.252 . S
C83 O87 1.260 . S
O84 In78 2.266 . S
O84 C81 1.252 . S
O85 In78 2.326 . S
O85 C81 1.260 . S
O86 In78 2.266 . S
O86 C83 1.252 . S
O87 In78 2.326 . S
O87 C83 1.260 . S
C88 O79 1.240 . S
C88 O80 1.252 . S
O89 In78 2.294 . S
O89 C82 1.240 . S
O90 In78 2.326 . S
O90 C82 1.252 . S
In91 O92 2.294 1_556 S
In91 O93 2.326 1_455 S
In91 O97 2.266 1_556 S
In91 O98 2.326 . S
In91 O99 2.266 1_455 S
In91 O100 2.326 1_455 S
In91 O102 2.294 . S
In91 O103 2.326 . S
O92 In91 2.294 1_554 S
O92 C101 1.240 1_554 S
O93 In91 2.326 1_655 S
O93 C101 1.252 1_655 S
C94 O97 1.252 1_556 S
C94 O98 1.260 . S
C95 O102 1.240 . S
C95 O103 1.252 . S
C96 O99 1.252 . S
C96 O100 1.260 . S
O97 In91 2.266 1_554 S
O97 C94 1.252 1_554 S
O98 In91 2.326 . S
O98 C94 1.260 . S
O99 In91 2.266 1_655 S
O99 C96 1.252 . S
O100 In91 2.326 1_655 S
O100 C96 1.260 . S
C101 O92 1.240 1_556 S
C101 O93 1.252 1_455 S
O102 In91 2.294 . S
O102 C95 1.240 . S
O103 In91 2.326 . S
O103 C95 1.252 . S
In104 O105 2.294 . S
In104 O106 2.326 . S
In104 O110 2.266 . S
In104 O111 2.326 . S
In104 O112 2.266 1_545 S
In104 O113 2.326 1_545 S
In104 O115 2.294 . S
In104 O116 2.326 . S
O105 In104 2.294 . S
O105 C114 1.240 . S
O106 In104 2.326 . S
O106 C114 1.252 . S
C107 O110 1.252 . S
C107 O111 1.260 . S
C108 O115 1.240 . S
C108 O116 1.252 . S
C109 O112 1.252 . S
C109 O113 1.260 . S
O110 In104 2.266 . S
O110 C107 1.252 . S
O111 In104 2.326 . S
O111 C107 1.260 . S
O112 In104 2.266 1_565 S
O112 C109 1.252 . S
O113 In104 2.326 1_565 S
O113 C109 1.260 . S
C114 O105 1.240 . S
C114 O106 1.252 . S
O115 In104 2.294 . S
O115 C108 1.240 . S
O116 In104 2.326 . S
O116 C108 1.252 . S
In117 O118 2.294 . S
In117 O119 2.326 . S
In117 O123 2.266 . S
In117 O124 2.326 . S
In117 O125 2.266 . S
In117 O126 2.326 . S
In117 O128 2.294 . S
In117 O129 2.326 . S
O118 In117 2.294 . S
O118 C127 1.240 . S
O119 In117 2.326 . S
O119 C127 1.252 . S
C120 O123 1.252 . S
C120 O124 1.260 . S
C121 O128 1.240 . S
C121 O129 1.252 . S
C122 O125 1.252 . S
C122 O126 1.260 . S
O123 In117 2.266 . S
O123 C120 1.252 . S
O124 In117 2.326 . S
O124 C120 1.260 . S
O125 In117 2.266 . S
O125 C122 1.252 . S
O126 In117 2.326 . S
O126 C122 1.260 . S
C127 O118 1.240 . S
C127 O119 1.252 . S
O128 In117 2.294 . S
O128 C121 1.240 . S
O129 In117 2.326 . S
O129 C121 1.252 . S
In130 O131 2.294 . S
In130 O132 2.326 . S
In130 O136 2.266 . S
In130 O137 2.326 . S
In130 O138 2.266 . S
In130 O139 2.326 . S
In130 O141 2.294 . S
In130 O142 2.326 . S
O131 In130 2.294 . S
O131 C140 1.240 . S
O132 In130 2.326 . S
O132 C140 1.252 . S
C133 O136 1.252 . S
C133 O137 1.260 . S
C134 O141 1.240 . S
C134 O142 1.252 . S
C135 O138 1.252 . S
C135 O139 1.260 . S
O136 In130 2.266 . S
O136 C133 1.252 . S
O137 In130 2.326 . S
O137 C133 1.260 . S
O138 In130 2.266 . S
O138 C135 1.252 . S
O139 In130 2.326 . S
O139 C135 1.260 . S
C140 O131 1.240 . S
C140 O132 1.252 . S
O141 In130 2.294 . S
O141 C134 1.240 . S
O142 In130 2.326 . S
O142 C134 1.252 . S
In143 O144 2.296 . S
In143 O145 2.329 . S
In143 O149 2.264 1_554 S
In143 O150 2.322 1_554 S
In143 O151 2.262 1_554 S
In143 O152 2.325 . S
In143 O154 2.294 . S
In143 O155 2.324 . S
O144 In143 2.296 . S
O144 C153 1.240 . S
O145 In143 2.329 . S
O145 C153 1.252 . S
C146 O149 1.252 . S
C146 O150 1.260 . S
C147 O154 1.240 . S
C147 O155 1.253 . S
C148 O151 1.252 1_554 S
C148 O152 1.260 . S
O149 In143 2.264 1_556 S
O149 C146 1.252 . S
O150 In143 2.322 1_556 S
O150 C146 1.260 . S
O151 In143 2.262 1_556 S
O151 C148 1.252 1_556 S
O152 In143 2.325 . S
O152 C148 1.260 . S
C153 O144 1.240 . S
C153 O145 1.252 . S
O154 In143 2.294 . S
O154 C147 1.240 . S
O155 In143 2.324 . S
O155 C147 1.253 . S
In156 O157 2.294 . S
In156 O158 2.326 . S
In156 O162 2.266 . S
In156 O163 2.326 . S
In156 O164 2.266 . S
In156 O165 2.326 . S
In156 O167 2.294 . S
In156 O168 2.326 . S
O157 In156 2.294 . S
O157 C166 1.240 . S
O158 In156 2.326 . S
O158 C166 1.252 . S
C159 O162 1.252 1_556 S
C159 O163 1.260 1_556 S
C160 O167 1.240 . S
C160 O168 1.252 . S
C161 O164 1.252 . S
C161 O165 1.260 . S
O162 In156 2.266 . S
O162 C159 1.252 1_554 S
O163 In156 2.326 . S
O163 C159 1.260 1_554 S
O164 In156 2.266 . S
O164 C161 1.252 . S
O165 In156 2.326 . S
O165 C161 1.260 . S
C166 O157 1.240 . S
C166 O158 1.252 . S
O167 In156 2.294 . S
O167 C160 1.240 . S
O168 In156 2.326 . S
O168 C160 1.252 . S
In169 O170 2.294 . S
In169 O171 2.326 . S
In169 O175 2.266 . S
In169 O176 2.326 . S
In169 O177 2.266 . S
In169 O178 2.326 . S
In169 O180 2.294 . S
In169 O181 2.326 . S
O170 In169 2.294 . S
O170 C179 1.240 . S
O171 In169 2.326 . S
O171 C179 1.252 . S
C172 O175 1.252 . S
C172 O176 1.260 . S
C173 O180 1.240 . S
C173 O181 1.252 . S
C174 O177 1.252 . S
C174 O178 1.260 . S
O175 In169 2.266 . S
O175 C172 1.252 . S
O176 In169 2.326 . S
O176 C172 1.260 . S
O177 In169 2.266 . S
O177 C174 1.252 . S
O178 In169 2.326 . S
O178 C174 1.260 . S
C179 O170 1.240 . S
C179 O171 1.252 . S
O180 In169 2.294 . S
O180 C173 1.240 . S
O181 In169 2.326 . S
O181 C173 1.252 . S
In182 O183 2.294 . S
In182 O184 2.326 . S
In182 O188 2.266 . S
In182 O189 2.326 . S
In182 O190 2.266 . S
In182 O191 2.326 . S
In182 O193 2.294 . S
In182 O194 2.326 . S
O183 In182 2.294 . S
O183 C192 1.240 . S
O184 In182 2.326 . S
O184 C192 1.252 . S
C185 O188 1.252 . S
C185 O189 1.260 . S
C186 O193 1.240 . S
C186 O194 1.252 . S
C187 O190 1.252 . S
C187 O191 1.260 . S
O188 In182 2.266 . S
O188 C185 1.252 . S
O189 In182 2.326 . S
O189 C185 1.260 . S
O190 In182 2.266 . S
O190 C187 1.252 . S
O191 In182 2.326 . S
O191 C187 1.260 . S
C192 O183 1.240 . S
C192 O184 1.252 . S
O193 In182 2.294 . S
O193 C186 1.240 . S
O194 In182 2.326 . S
O194 C186 1.252 . S
In195 O196 2.294 . S
In195 O197 2.326 . S
In195 O201 2.266 . S
In195 O202 2.326 . S
In195 O203 2.266 . S
In195 O204 2.326 . S
In195 O206 2.294 . S
In195 O207 2.326 . S
O196 In195 2.294 . S
O196 C205 1.240 . S
O197 In195 2.326 . S
O197 C205 1.252 . S
C198 O201 1.252 . S
C198 O202 1.260 . S
C199 O206 1.240 . S
C199 O207 1.252 . S
C200 O203 1.252 . S
C200 O204 1.260 . S
O201 In195 2.266 . S
O201 C198 1.252 . S
O202 In195 2.326 . S
O202 C198 1.260 . S
O203 In195 2.266 . S
O203 C200 1.252 . S
O204 In195 2.326 . S
O204 C200 1.260 . S
C205 O196 1.240 . S
C205 O197 1.252 . S
O206 In195 2.294 . S
O206 C199 1.240 . S
O207 In195 2.326 . S
O207 C199 1.252 . S
In208 O209 2.294 . S
In208 O210 2.326 . S
In208 O214 2.266 . S
In208 O215 2.326 . S
In208 O216 2.266 1_545 S
In208 O217 2.326 1_545 S
In208 O219 2.294 . S
In208 O220 2.326 . S
O209 In208 2.294 . S
O209 C218 1.240 . S
O210 In208 2.326 . S
O210 C218 1.252 . S
C211 O214 1.252 . S
C211 O215 1.260 . S
C212 O219 1.240 . S
C212 O220 1.252 . S
C213 O216 1.252 . S
C213 O217 1.260 . S
O214 In208 2.266 . S
O214 C211 1.252 . S
O215 In208 2.326 . S
O215 C211 1.260 . S
O216 In208 2.266 1_565 S
O216 C213 1.252 . S
O217 In208 2.326 1_565 S
O217 C213 1.260 . S
C218 O209 1.240 . S
C218 O210 1.252 . S
O219 In208 2.294 . S
O219 C212 1.240 . S
O220 In208 2.326 . S
O220 C212 1.252 . S
In221 O222 2.294 . S
In221 O223 2.326 . S
In221 O227 2.266 . S
In221 O228 2.326 . S
In221 O229 2.266 . S
In221 O230 2.326 . S
In221 O232 2.294 . S
In221 O233 2.326 . S
O222 In221 2.294 . S
O222 C231 1.240 . S
O223 In221 2.326 . S
O223 C231 1.252 . S
C224 O227 1.252 . S
C224 O228 1.260 . S
C225 O232 1.240 . S
C225 O233 1.252 . S
C226 O229 1.252 . S
C226 O230 1.260 . S
O227 In221 2.266 . S
O227 C224 1.252 . S
O228 In221 2.326 . S
O228 C224 1.260 . S
O229 In221 2.266 . S
O229 C226 1.252 . S
O230 In221 2.326 . S
O230 C226 1.260 . S
C231 O222 1.240 . S
C231 O223 1.252 . S
O232 In221 2.294 . S
O232 C225 1.240 . S
O233 In221 2.326 . S
O233 C225 1.252 . S
In234 O235 2.294 . S
In234 O236 2.326 . S
In234 O240 2.266 . S
In234 O241 2.326 . S
In234 O242 2.266 . S
In234 O243 2.326 . S
In234 O245 2.294 . S
In234 O246 2.326 . S
O235 In234 2.294 . S
O235 C244 1.240 . S
O236 In234 2.326 . S
O236 C244 1.252 . S
C237 O240 1.252 . S
C237 O241 1.260 . S
C238 O245 1.240 . S
C238 O246 1.252 . S
C239 O242 1.252 . S
C239 O243 1.260 . S
O240 In234 2.266 . S
O240 C237 1.252 . S
O241 In234 2.326 . S
O241 C237 1.260 . S
O242 In234 2.266 . S
O242 C239 1.252 . S
O243 In234 2.326 . S
O243 C239 1.260 . S
C244 O235 1.240 . S
C244 O236 1.252 . S
O245 In234 2.294 . S
O245 C238 1.240 . S
O246 In234 2.326 . S
O246 C238 1.252 . S
In247 O248 2.294 . S
In247 O249 2.326 . S
In247 O253 2.266 . S
In247 O254 2.326 . S
In247 O255 2.266 . S
In247 O256 2.326 . S
In247 O258 2.294 . S
In247 O259 2.326 . S
O248 In247 2.294 . S
O248 C257 1.240 . S
O249 In247 2.326 . S
O249 C257 1.252 . S
C250 O253 1.252 . S
C250 O254 1.260 . S
C251 O258 1.240 . S
C251 O259 1.252 . S
C252 O255 1.252 . S
C252 O256 1.260 . S
O253 In247 2.266 . S
O253 C250 1.252 . S
O254 In247 2.326 . S
O254 C250 1.260 . S
O255 In247 2.266 . S
O255 C252 1.252 . S
O256 In247 2.326 . S
O256 C252 1.260 . S
C257 O248 1.240 . S
C257 O249 1.252 . S
O258 In247 2.294 . S
O258 C251 1.240 . S
O259 In247 2.326 . S
O259 C251 1.252 . S
In260 O261 2.294 . S
In260 O262 2.326 . S
In260 O266 2.266 . S
In260 O267 2.326 . S
In260 O268 2.266 1_554 S
In260 O269 2.326 1_554 S
In260 O271 2.294 . S
In260 O272 2.326 . S
O261 In260 2.294 . S
O261 C270 1.240 . S
O262 In260 2.326 . S
O262 C270 1.252 . S
C263 O266 1.252 . S
C263 O267 1.260 . S
C264 O271 1.240 . S
C264 O272 1.252 . S
C265 O268 1.252 . S
C265 O269 1.260 . S
O266 In260 2.266 . S
O266 C263 1.252 . S
O267 In260 2.326 . S
O267 C263 1.260 . S
O268 In260 2.266 1_556 S
O268 C265 1.252 . S
O269 In260 2.326 1_556 S
O269 C265 1.260 . S
C270 O261 1.240 . S
C270 O262 1.252 . S
O271 In260 2.294 . S
O271 C264 1.240 . S
O272 In260 2.326 . S
O272 C264 1.252 . S
In273 O274 2.294 . S
In273 O275 2.326 . S
In273 O279 2.266 . S
In273 O280 2.326 . S
In273 O281 2.266 . S
In273 O282 2.326 . S
In273 O284 2.294 . S
In273 O285 2.326 . S
O274 In273 2.294 . S
O274 C283 1.240 . S
O275 In273 2.326 . S
O275 C283 1.252 . S
C276 O279 1.252 . S
C276 O280 1.260 . S
C277 O284 1.240 . S
C277 O285 1.252 . S
C278 O281 1.252 . S
C278 O282 1.260 . S
O279 In273 2.266 . S
O279 C276 1.252 . S
O280 In273 2.326 . S
O280 C276 1.260 . S
O281 In273 2.266 . S
O281 C278 1.252 . S
O282 In273 2.326 . S
O282 C278 1.260 . S
C283 O274 1.240 . S
C283 O275 1.252 . S
O284 In273 2.294 . S
O284 C277 1.240 . S
O285 In273 2.326 . S
O285 C277 1.252 . S
In286 O287 2.294 . S
In286 O288 2.326 . S
In286 O292 2.266 . S
In286 O293 2.326 . S
In286 O294 2.266 . S
In286 O295 2.326 . S
In286 O297 2.294 . S
In286 O298 2.326 . S
O287 In286 2.294 . S
O287 C296 1.240 . S
O288 In286 2.326 . S
O288 C296 1.252 . S
C289 O292 1.252 . S
C289 O293 1.260 . S
C290 O297 1.240 . S
C290 O298 1.252 . S
C291 O294 1.252 . S
C291 O295 1.260 . S
O292 In286 2.266 . S
O292 C289 1.252 . S
O293 In286 2.326 . S
O293 C289 1.260 . S
O294 In286 2.266 . S
O294 C291 1.252 . S
O295 In286 2.326 . S
O295 C291 1.260 . S
C296 O287 1.240 . S
C296 O288 1.252 . S
O297 In286 2.294 . S
O297 C290 1.240 . S
O298 In286 2.326 . S
O298 C290 1.252 . S
In299 O300 2.294 . S
In299 O301 2.326 . S
In299 O305 2.266 . S
In299 O306 2.326 . S
In299 O307 2.266 . S
In299 O308 2.326 . S
In299 O310 2.294 . S
In299 O311 2.326 . S
O300 In299 2.294 . S
O300 C309 1.240 . S
O301 In299 2.326 . S
O301 C309 1.252 . S
C302 O305 1.252 . S
C302 O306 1.260 . S
C303 O310 1.240 . S
C303 O311 1.252 . S
C304 O307 1.252 . S
C304 O308 1.260 . S
O305 In299 2.266 . S
O305 C302 1.252 . S
O306 In299 2.326 . S
O306 C302 1.260 . S
O307 In299 2.266 . S
O307 C304 1.252 . S
O308 In299 2.326 . S
O308 C304 1.260 . S
C309 O300 1.240 . S
C309 O301 1.252 . S
O310 In299 2.294 . S
O310 C303 1.240 . S
O311 In299 2.326 . S
O311 C303 1.252 . S
C312 C314 1.422 1_556 S
C312 C316 1.415 . S
C312 N318 1.369 . S
C313 C314 1.421 . S
C313 C315 1.417 . S
C313 C325 1.422 . S
C314 C312 1.422 1_554 S
C314 C313 1.421 . S
C314 N324 1.359 . S
C315 C313 1.417 . S
C315 C317 1.329 1_554 S
C315 H334 0.930 . S
C316 C312 1.415 . S
C316 C317 1.437 . S
C316 C320 1.413 . S
C317 C315 1.329 1_556 S
C317 C316 1.437 . S
C317 H339 0.929 . S
N318 C312 1.369 . S
N318 C319 1.338 . S
N318 Gd323 2.622 1_666 S
C319 N318 1.338 . S
C319 C321 1.378 . S
C319 H331 0.929 1_565 S
C320 C316 1.413 . S
C320 C321 1.348 . S
C320 H336 0.931 . S
C321 C319 1.378 . S
C321 C320 1.348 . S
C321 H337 0.930 . S
Gd322 N342 2.622 . S
Gd322 N349 2.570 . S
Gd322 O356 2.353 . S
Gd322 O357 2.468 . S
Gd322 O358 2.427 . S
Gd322 O360 2.388 . S
Gd322 O361 2.386 . S
Gd322 O365 2.307 . S
Gd322 C375 2.805 . S
Gd323 N318 2.622 1_444 S
Gd323 N324 2.570 1_445 S
Gd323 O355 2.386 1_545 S
Gd323 O359 2.307 . S
Gd323 O362 2.353 . S
Gd323 O363 2.468 1_455 S
Gd323 O364 2.426 1_455 S
Gd323 O366 2.388 1_554 S
Gd323 C387 2.805 1_455 S
N324 C314 1.359 . S
N324 Gd323 2.570 1_665 S
N324 C326 1.343 . S
C325 C313 1.422 . S
C325 C327 1.321 . S
C325 H333 0.931 . S
C326 N324 1.343 . S
C326 C327 1.390 . S
C326 H328 0.931 1_565 S
C327 C325 1.321 . S
C327 C326 1.390 . S
C327 H329 0.930 . S
H328 C326 0.931 1_545 S
H329 C327 0.930 . S
H330 C353 0.931 . S
H331 C319 0.929 1_545 S
H332 C354 0.930 . S
H333 C325 0.931 . S
H334 C315 0.930 . S
H335 C344 0.929 . S
H336 C320 0.931 . S
H337 C321 0.930 . S
H338 C376 0.930 . S
H339 C317 0.929 . S
H340 C345 0.931 . S
H341 C346 0.930 . S
N342 Gd322 2.622 . S
N342 C343 1.369 . S
N342 C344 1.338 . S
C343 N342 1.369 . S
C343 C347 1.415 . S
C343 C350 1.422 . S
C344 H335 0.929 . S
C344 N342 1.338 . S
C344 C346 1.378 . S
C345 H340 0.931 . S
C345 C346 1.348 . S
C345 C347 1.413 . S
C346 H341 0.930 . S
C346 C344 1.378 . S
C346 C345 1.348 . S
C347 C343 1.415 . S
C347 C345 1.413 . S
C347 C377 1.437 . S
H348 C377 0.929 . S
N349 Gd322 2.570 . S
N349 C350 1.359 . S
N349 C353 1.343 . S
C350 C343 1.422 . S
C350 N349 1.359 . S
C350 C352 1.421 . S
C351 C352 1.422 . S
C351 C354 1.321 . S
C351 H378 0.931 . S
C352 C350 1.421 . S
C352 C351 1.422 . S
C352 C376 1.417 . S
C353 H330 0.931 . S
C353 N349 1.343 . S
C353 C354 1.390 . S
C354 H332 0.930 . S
C354 C351 1.321 . S
C354 C353 1.390 . S
O355 Gd323 2.386 1_565 S
O355 C367 1.265 . S
O356 Gd322 2.353 . S
O356 C367 1.242 1_545 S
O357 Gd322 2.468 . S
O357 C375 1.263 . S
O358 Gd322 2.427 . S
O358 C375 1.252 . S
O359 Gd323 2.307 . S
O359 C368 1.261 . S
O360 Gd322 2.388 . S
O360 C368 1.252 . S
O361 Gd322 2.386 . S
O361 C379 1.265 . S
O362 Gd323 2.353 . S
O362 C379 1.242 . S
O363 Gd323 2.468 1_655 S
O363 C387 1.263 . S
O364 Gd323 2.426 1_655 S
O364 C387 1.251 . S
O365 Gd322 2.307 . S
O365 C380 1.261 1_554 S
O366 Gd323 2.388 1_556 S
O366 C380 1.252 . S
C367 O355 1.265 . S
C367 O356 1.242 1_565 S
C368 O359 1.261 . S
C368 O360 1.252 . S
C369 C372 1.394 . S
C369 C374 1.370 . S
C369 C375 1.500 . S
C370 C373 1.383 . S
C370 C374 1.395 . S
C371 C372 1.396 . S
C371 C373 1.365 . S
C371 H388 0.929 . S
C372 C369 1.394 . S
C372 C371 1.396 . S
C372 H389 0.930 . S
C373 C370 1.383 . S
C373 C371 1.365 . S
C373 H390 0.931 . S
C374 C369 1.370 . S
C374 C370 1.395 . S
C374 H391 0.930 . S
C375 Gd322 2.805 . S
C375 O357 1.263 . S
C375 O358 1.252 . S
C375 C369 1.500 . S
C376 H338 0.930 . S
C376 C352 1.417 . S
C376 C377 1.329 . S
C377 C347 1.437 . S
C377 H348 0.929 . S
C377 C376 1.329 . S
H378 C351 0.931 . S
C379 O361 1.265 . S
C379 O362 1.242 . S
C380 O365 1.261 1_556 S
C380 O366 1.252 . S
C381 C384 1.394 1_554 S
C381 C386 1.370 . S
C381 C387 1.500 . S
C382 C385 1.383 . S
C382 C386 1.395 . S
C383 C384 1.396 . S
C383 C385 1.365 1_556 S
C383 H392 0.929 . S
C384 C381 1.394 1_556 S
C384 C383 1.396 . S
C384 H393 0.930 . S
C385 C382 1.383 . S
C385 C383 1.365 1_554 S
C385 H394 0.931 . S
C386 C381 1.370 . S
C386 C382 1.395 . S
C386 H395 0.930 . S
C387 Gd323 2.805 1_655 S
C387 O363 1.263 . S
C387 O364 1.251 . S
C387 C381 1.500 . S
H388 C371 0.929 . S
H389 C372 0.930 . S
H390 C373 0.931 . S
H391 C374 0.930 . S
H392 C383 0.929 . S
H393 C384 0.930 . S
H394 C385 0.931 . S
H395 C386 0.930 . S
C396 C398 1.422 . S
C396 C400 1.415 . S
C396 N402 1.369 . S
C397 C398 1.421 . S
C397 C399 1.417 . S
C397 C409 1.422 . S
C398 C396 1.422 . S
C398 C397 1.421 . S
C398 N408 1.359 . S
C399 C397 1.417 . S
C399 C401 1.329 . S
C399 H418 0.930 . S
C400 C396 1.415 . S
C400 C401 1.437 . S
C400 C404 1.413 . S
C401 C399 1.329 . S
C401 C400 1.437 . S
C401 H423 0.929 . S
N402 C396 1.369 . S
N402 C403 1.338 . S
N402 Gd407 2.622 . S
C403 N402 1.338 . S
C403 C405 1.378 . S
C403 H415 0.929 . S
C404 C400 1.413 . S
C404 C405 1.348 . S
C404 H420 0.931 . S
C405 C403 1.378 . S
C405 C404 1.348 . S
C405 H421 0.930 . S
Gd406 N426 2.622 . S
Gd406 N433 2.570 . S
Gd406 O440 2.353 . S
Gd406 O441 2.468 . S
Gd406 O442 2.427 . S
Gd406 O444 2.388 . S
Gd406 O445 2.386 . S
Gd406 O449 2.307 . S
Gd406 C459 2.805 . S
Gd407 N402 2.622 . S
Gd407 N408 2.570 . S
Gd407 O439 2.386 . S
Gd407 O443 2.307 . S
Gd407 O446 2.353 . S
Gd407 O447 2.468 . S
Gd407 O448 2.427 . S
Gd407 O450 2.388 . S
Gd407 C471 2.805 . S
N408 C398 1.359 . S
N408 Gd407 2.570 . S
N408 C410 1.343 . S
C409 C397 1.422 . S
C409 C411 1.321 . S
C409 H417 0.931 . S
C410 N408 1.343 . S
C410 C411 1.390 . S
C410 H412 0.931 . S
C411 C409 1.321 . S
C411 C410 1.390 . S
C411 H413 0.930 . S
H412 C410 0.931 . S
H413 C411 0.930 . S
H414 C437 0.931 . S
H415 C403 0.929 . S
H416 C438 0.930 . S
H417 C409 0.931 . S
H418 C399 0.930 . S
H419 C428 0.929 . S
H420 C404 0.931 . S
H421 C405 0.930 . S
H422 C460 0.930 . S
H423 C401 0.929 . S
H424 C429 0.931 . S
H425 C430 0.930 . S
N426 Gd406 2.622 . S
N426 C427 1.369 . S
N426 C428 1.338 . S
C427 N426 1.369 . S
C427 C431 1.415 . S
C427 C434 1.422 . S
C428 H419 0.929 . S
C428 N426 1.338 . S
C428 C430 1.378 . S
C429 H424 0.931 . S
C429 C430 1.348 . S
C429 C431 1.413 . S
C430 H425 0.930 . S
C430 C428 1.378 . S
C430 C429 1.348 . S
C431 C427 1.415 . S
C431 C429 1.413 . S
C431 C461 1.437 . S
H432 C461 0.929 . S
N433 Gd406 2.570 . S
N433 C434 1.359 . S
N433 C437 1.343 . S
C434 C427 1.422 . S
C434 N433 1.359 . S
C434 C436 1.421 . S
C435 C436 1.422 . S
C435 C438 1.321 . S
C435 H462 0.931 . S
C436 C434 1.421 . S
C436 C435 1.422 . S
C436 C460 1.417 . S
C437 H414 0.931 . S
C437 N433 1.343 . S
C437 C438 1.390 . S
C438 H416 0.930 . S
C438 C435 1.321 . S
C438 C437 1.390 . S
O439 Gd407 2.386 . S
O439 C451 1.265 . S
O440 Gd406 2.353 . S
O440 C451 1.242 . S
O441 Gd406 2.468 . S
O441 C459 1.263 . S
O442 Gd406 2.427 . S
O442 C459 1.252 . S
O443 Gd407 2.307 . S
O443 C452 1.261 . S
O444 Gd406 2.388 . S
O444 C452 1.252 . S
O445 Gd406 2.386 . S
O445 C463 1.265 . S
O446 Gd407 2.353 . S
O446 C463 1.242 . S
O447 Gd407 2.468 . S
O447 C471 1.263 . S
O448 Gd407 2.427 . S
O448 C471 1.252 . S
O449 Gd406 2.307 . S
O449 C464 1.261 . S
O450 Gd407 2.388 . S
O450 C464 1.252 . S
C451 O439 1.265 . S
C451 O440 1.242 . S
C452 O443 1.261 . S
C452 O444 1.252 . S
C453 C456 1.394 . S
C453 C458 1.370 . S
C453 C459 1.500 . S
C454 C457 1.383 . S
C454 C458 1.395 . S
C455 C456 1.396 . S
C455 C457 1.365 . S
C455 H472 0.929 . S
C456 C453 1.394 . S
C456 C455 1.396 . S
C456 H473 0.930 . S
C457 C454 1.383 . S
C457 C455 1.365 . S
C457 H474 0.931 . S
C458 C453 1.370 . S
C458 C454 1.395 . S
C458 H475 0.930 . S
C459 Gd406 2.805 . S
C459 O441 1.263 . S
C459 O442 1.252 . S
C459 C453 1.500 . S
C460 H422 0.930 . S
C460 C436 1.417 . S
C460 C461 1.329 . S
C461 C431 1.437 . S
C461 H432 0.929 . S
C461 C460 1.329 . S
H462 C435 0.931 . S
C463 O445 1.265 . S
C463 O446 1.242 . S
C464 O449 1.261 . S
C464 O450 1.252 . S
C465 C468 1.394 . S
C465 C470 1.370 . S
C465 C471 1.500 . S
C466 C469 1.383 . S
C466 C470 1.395 . S
C467 C468 1.396 . S
C467 C469 1.365 . S
C467 H476 0.929 . S
C468 C465 1.394 . S
C468 C467 1.396 . S
C468 H477 0.930 . S
C469 C466 1.383 . S
C469 C467 1.365 . S
C469 H478 0.931 . S
C470 C465 1.370 . S
C470 C466 1.395 . S
C470 H479 0.930 . S
C471 Gd407 2.805 . S
C471 O447 1.263 . S
C471 O448 1.252 . S
C471 C465 1.500 . S
H472 C455 0.929 . S
H473 C456 0.930 . S
H474 C457 0.931 . S
H475 C458 0.930 . S
H476 C467 0.929 . S
H477 C468 0.930 . S
H478 C469 0.931 . S
H479 C470 0.930 . S
C480 C482 1.422 . S
C480 C484 1.415 . S
C480 N486 1.369 . S
C481 C482 1.421 . S
C481 C483 1.417 . S
C481 C493 1.422 . S
C482 C480 1.422 . S
C482 C481 1.421 . S
C482 N492 1.359 . S
C483 C481 1.417 . S
C483 C485 1.329 . S
C483 H502 0.930 . S
C484 C480 1.415 . S
C484 C485 1.437 . S
C484 C488 1.413 . S
C485 C483 1.329 . S
C485 C484 1.437 . S
C485 H507 0.929 . S
N486 C480 1.369 . S
N486 C487 1.338 . S
N486 Gd491 2.622 . S
C487 N486 1.338 . S
C487 C489 1.378 . S
C487 H499 0.929 . S
C488 C484 1.413 . S
C488 C489 1.348 . S
C488 H504 0.931 . S
C489 C487 1.378 . S
C489 C488 1.348 . S
C489 H505 0.930 . S
Gd490 N510 2.615 1_545 S
Gd490 N517 2.570 1_545 S
Gd490 O524 2.353 . S
Gd490 O525 2.468 . S
Gd490 O526 2.427 . S
Gd490 O528 2.388 . S
Gd490 O529 2.386 1_545 S
Gd490 O533 2.307 . S
Gd490 C543 2.805 . S
Gd491 N486 2.622 . S
Gd491 N492 2.570 . S
Gd491 O523 2.386 . S
Gd491 O527 2.307 . S
Gd491 O530 2.353 1_545 S
Gd491 O531 2.468 . S
Gd491 O532 2.427 . S
Gd491 O534 2.388 . S
Gd491 C555 2.805 . S
N492 C482 1.359 . S
N492 Gd491 2.570 . S
N492 C494 1.343 . S
C493 C481 1.422 . S
C493 C495 1.321 . S
C493 H501 0.931 . S
C494 N492 1.343 . S
C494 C495 1.390 . S
C494 H496 0.931 . S
C495 C493 1.321 . S
C495 C494 1.390 . S
C495 H497 0.930 . S
H496 C494 0.931 . S
H497 C495 0.930 . S
H498 C521 0.931 . S
H499 C487 0.929 . S
H500 C522 0.930 . S
H501 C493 0.931 . S
H502 C483 0.930 . S
H503 C512 0.929 . S
H504 C488 0.931 . S
H505 C489 0.930 . S
H506 C544 0.930 . S
H507 C485 0.929 . S
H508 C513 0.931 . S
H509 C514 0.930 . S
N510 Gd490 2.615 1_565 S
N510 C511 1.377 . S
N510 C512 1.338 1_565 S
C511 N510 1.377 . S
C511 C515 1.415 . S
C511 C518 1.422 . S
C512 H503 0.929 . S
C512 N510 1.338 1_545 S
C512 C514 1.378 1_545 S
C513 H508 0.931 . S
C513 C514 1.348 . S
C513 C515 1.413 . S
C514 H509 0.930 . S
C514 C512 1.378 1_565 S
C514 C513 1.348 . S
C515 C511 1.415 . S
C515 C513 1.413 . S
C515 C545 1.437 . S
H516 C545 0.929 . S
N517 Gd490 2.570 1_565 S
N517 C518 1.359 . S
N517 C521 1.343 . S
C518 C511 1.422 . S
C518 N517 1.359 . S
C518 C520 1.421 . S
C519 C520 1.422 . S
C519 C522 1.321 . S
C519 H546 0.931 . S
C520 C518 1.421 . S
C520 C519 1.422 . S
C520 C544 1.417 . S
C521 H498 0.931 . S
C521 N517 1.343 . S
C521 C522 1.390 . S
C522 H500 0.930 . S
C522 C519 1.321 . S
C522 C521 1.390 . S
O523 Gd491 2.386 . S
O523 C535 1.265 . S
O524 Gd490 2.353 . S
O524 C535 1.242 . S
O525 Gd490 2.468 . S
O525 C543 1.263 . S
O526 Gd490 2.427 . S
O526 C543 1.252 . S
O527 Gd491 2.307 . S
O527 C536 1.261 . S
O528 Gd490 2.388 . S
O528 C536 1.252 . S
O529 Gd490 2.386 1_565 S
O529 C547 1.265 . S
O530 Gd491 2.353 1_565 S
O530 C547 1.242 . S
O531 Gd491 2.468 . S
O531 C555 1.263 . S
O532 Gd491 2.427 . S
O532 C555 1.252 . S
O533 Gd490 2.307 . S
O533 C548 1.261 . S
O534 Gd491 2.388 . S
O534 C548 1.252 . S
C535 O523 1.265 . S
C535 O524 1.242 . S
C536 O527 1.261 . S
C536 O528 1.252 . S
C537 C540 1.394 . S
C537 C542 1.370 . S
C537 C543 1.500 . S
C538 C541 1.383 . S
C538 C542 1.395 . S
C539 C540 1.396 . S
C539 C541 1.365 . S
C539 H556 0.929 . S
C540 C537 1.394 . S
C540 C539 1.396 . S
C540 H557 0.930 . S
C541 C538 1.383 . S
C541 C539 1.365 . S
C541 H558 0.931 . S
C542 C537 1.370 . S
C542 C538 1.395 . S
C542 H559 0.930 . S
C543 Gd490 2.805 . S
C543 O525 1.263 . S
C543 O526 1.252 . S
C543 C537 1.500 . S
C544 H506 0.930 . S
C544 C520 1.417 . S
C544 C545 1.329 . S
C545 C515 1.437 . S
C545 H516 0.929 . S
C545 C544 1.329 . S
H546 C519 0.931 . S
C547 O529 1.265 . S
C547 O530 1.242 . S
C548 O533 1.261 . S
C548 O534 1.252 . S
C549 C552 1.394 . S
C549 C554 1.370 . S
C549 C555 1.500 1_565 S
C550 C553 1.383 . S
C550 C554 1.395 . S
C551 C552 1.396 . S
C551 C553 1.365 . S
C551 H560 0.929 . S
C552 C549 1.394 . S
C552 C551 1.396 . S
C552 H561 0.930 . S
C553 C550 1.383 . S
C553 C551 1.365 . S
C553 H562 0.931 . S
C554 C549 1.370 . S
C554 C550 1.395 . S
C554 H563 0.930 . S
C555 Gd491 2.805 . S
C555 O531 1.263 . S
C555 O532 1.252 . S
C555 C549 1.500 1_545 S
H556 C539 0.929 . S
H557 C540 0.930 . S
H558 C541 0.931 . S
H559 C542 0.930 . S
H560 C551 0.929 . S
H561 C552 0.930 . S
H562 C553 0.931 . S
H563 C554 0.930 . S
C564 C566 1.422 . S
C564 C568 1.415 . S
C564 N570 1.369 . S
C565 C566 1.421 . S
C565 C567 1.417 . S
C565 C577 1.422 . S
C566 C564 1.422 . S
C566 C565 1.421 . S
C566 N576 1.359 . S
C567 C565 1.417 . S
C567 C569 1.329 . S
C567 H586 0.930 . S
C568 C564 1.415 . S
C568 C569 1.437 . S
C568 C572 1.413 . S
C569 C567 1.329 . S
C569 C568 1.437 . S
C569 H591 0.929 . S
N570 C564 1.369 . S
N570 C571 1.338 . S
N570 Gd575 2.622 . S
C571 N570 1.338 . S
C571 C573 1.378 . S
C571 H583 0.929 . S
C572 C568 1.413 . S
C572 C573 1.348 . S
C572 H588 0.931 . S
C573 C571 1.378 . S
C573 C572 1.348 . S
C573 H589 0.930 . S
Gd574 N594 2.622 . S
Gd574 N601 2.570 . S
Gd574 O608 2.353 . S
Gd574 O609 2.468 . S
Gd574 O610 2.427 . S
Gd574 O612 2.388 . S
Gd574 O613 2.386 . S
Gd574 O617 2.307 . S
Gd574 C627 2.805 . S
Gd575 N570 2.622 . S
Gd575 N576 2.570 . S
Gd575 O607 2.386 . S
Gd575 O611 2.307 . S
Gd575 O614 2.353 . S
Gd575 O615 2.468 . S
Gd575 O616 2.427 . S
Gd575 O618 2.388 . S
Gd575 C639 2.805 . S
N576 C566 1.359 . S
N576 Gd575 2.570 . S
N576 C578 1.343 . S
C577 C565 1.422 . S
C577 C579 1.321 . S
C577 H585 0.931 . S
C578 N576 1.343 . S
C578 C579 1.390 . S
C578 H580 0.931 . S
C579 C577 1.321 . S
C579 C578 1.390 . S
C579 H581 0.930 . S
H580 C578 0.931 . S
H581 C579 0.930 . S
H582 C605 0.931 . S
H583 C571 0.929 . S
H584 C606 0.930 . S
H585 C577 0.931 . S
H586 C567 0.930 . S
H587 C596 0.929 . S
H588 C572 0.931 . S
H589 C573 0.930 . S
H590 C628 0.930 . S
H591 C569 0.929 . S
H592 C597 0.931 . S
H593 C598 0.930 . S
N594 Gd574 2.622 . S
N594 C595 1.369 . S
N594 C596 1.338 . S
C595 N594 1.369 . S
C595 C599 1.415 . S
C595 C602 1.422 . S
C596 H587 0.929 . S
C596 N594 1.338 . S
C596 C598 1.378 . S
C597 H592 0.931 . S
C597 C598 1.348 . S
C597 C599 1.413 . S
C598 H593 0.930 . S
C598 C596 1.378 . S
C598 C597 1.348 . S
C599 C595 1.415 . S
C599 C597 1.413 . S
C599 C629 1.437 . S
H600 C629 0.929 . S
N601 Gd574 2.570 . S
N601 C602 1.359 . S
N601 C605 1.343 . S
C602 C595 1.422 . S
C602 N601 1.359 . S
C602 C604 1.421 . S
C603 C604 1.422 . S
C603 C606 1.321 . S
C603 H630 0.931 . S
C604 C602 1.421 . S
C604 C603 1.422 . S
C604 C628 1.417 . S
C605 H582 0.931 . S
C605 N601 1.343 . S
C605 C606 1.390 . S
C606 H584 0.930 . S
C606 C603 1.321 . S
C606 C605 1.390 . S
O607 Gd575 2.386 . S
O607 C619 1.265 . S
O608 Gd574 2.353 . S
O608 C619 1.242 . S
O609 Gd574 2.468 . S
O609 C627 1.263 . S
O610 Gd574 2.427 . S
O610 C627 1.252 . S
O611 Gd575 2.307 . S
O611 C620 1.261 . S
O612 Gd574 2.388 . S
O612 C620 1.252 . S
O613 Gd574 2.386 . S
O613 C631 1.265 . S
O614 Gd575 2.353 . S
O614 C631 1.242 . S
O615 Gd575 2.468 . S
O615 C639 1.263 . S
O616 Gd575 2.427 . S
O616 C639 1.252 . S
O617 Gd574 2.307 . S
O617 C632 1.261 . S
O618 Gd575 2.388 . S
O618 C632 1.252 . S
C619 O607 1.265 . S
C619 O608 1.242 . S
C620 O611 1.261 . S
C620 O612 1.252 . S
C621 C624 1.394 . S
C621 C626 1.370 . S
C621 C627 1.500 . S
C622 C625 1.383 . S
C622 C626 1.395 . S
C623 C624 1.396 . S
C623 C625 1.365 . S
C623 H640 0.929 . S
C624 C621 1.394 . S
C624 C623 1.396 . S
C624 H641 0.930 . S
C625 C622 1.383 . S
C625 C623 1.365 . S
C625 H642 0.931 . S
C626 C621 1.370 . S
C626 C622 1.395 . S
C626 H643 0.930 . S
C627 Gd574 2.805 . S
C627 O609 1.263 . S
C627 O610 1.252 . S
C627 C621 1.500 . S
C628 H590 0.930 . S
C628 C604 1.417 . S
C628 C629 1.329 . S
C629 C599 1.437 . S
C629 H600 0.929 . S
C629 C628 1.329 . S
H630 C603 0.931 . S
C631 O613 1.265 . S
C631 O614 1.242 . S
C632 O617 1.261 . S
C632 O618 1.252 . S
C633 C636 1.394 . S
C633 C638 1.370 . S
C633 C639 1.500 . S
C634 C637 1.383 . S
C634 C638 1.395 . S
C635 C636 1.396 . S
C635 C637 1.365 . S
C635 H644 0.929 . S
C636 C633 1.394 . S
C636 C635 1.396 . S
C636 H645 0.930 . S
C637 C634 1.383 . S
C637 C635 1.365 . S
C637 H646 0.931 . S
C638 C633 1.370 . S
C638 C634 1.395 . S
C638 H647 0.930 . S
C639 Gd575 2.805 . S
C639 O615 1.263 . S
C639 O616 1.252 . S
C639 C633 1.500 . S
H640 C623 0.929 . S
H641 C624 0.930 . S
H642 C625 0.931 . S
H643 C626 0.930 . S
H644 C635 0.929 . S
H645 C636 0.930 . S
H646 C637 0.931 . S
H647 C638 0.930 . S
C648 C650 1.422 . S
C648 C652 1.389 1_455 S
C648 N654 1.369 . S
C649 C650 1.421 . S
C649 C651 1.417 . S
C649 C661 1.422 . S
C650 C648 1.422 . S
C650 C649 1.421 . S
C650 N660 1.359 . S
C651 C649 1.417 . S
C651 C653 1.329 . S
C651 H670 0.930 . S
C652 C648 1.389 1_655 S
C652 C653 1.428 1_655 S
C652 C656 1.447 . S
C653 C651 1.329 . S
C653 C652 1.428 1_455 S
C653 H675 0.929 . S
N654 C648 1.369 . S
N654 C655 1.340 1_455 S
N654 Gd659 2.620 . S
C655 N654 1.340 1_655 S
C655 C657 1.378 . S
C655 H667 0.929 . S
C656 C652 1.447 . S
C656 C657 1.348 . S
C656 H672 0.931 . S
C657 C655 1.378 . S
C657 C656 1.348 . S
C657 H673 0.930 . S
Gd658 N678 2.622 . S
Gd658 N685 2.570 . S
Gd658 O692 2.353 1_565 S
Gd658 O693 2.468 . S
Gd658 O694 2.427 . S
Gd658 O696 2.388 1_565 S
Gd658 O697 2.386 1_565 S
Gd658 O701 2.306 1_565 S
Gd658 C711 2.805 . S
Gd659 N654 2.620 . S
Gd659 N660 2.570 . S
Gd659 O691 2.386 . S
Gd659 O695 2.307 . S
Gd659 O698 2.353 . S
Gd659 O699 2.468 . S
Gd659 O700 2.435 . S
Gd659 O702 2.388 1_455 S
Gd659 C723 2.805 . S
N660 C650 1.359 . S
N660 Gd659 2.570 . S
N660 C662 1.343 . S
C661 C649 1.422 . S
C661 C663 1.321 . S
C661 H669 0.931 . S
C662 N660 1.343 . S
C662 C663 1.390 . S
C662 H664 0.931 . S
C663 C661 1.321 . S
C663 C662 1.390 . S
C663 H665 0.930 . S
H664 C662 0.931 . S
H665 C663 0.930 . S
H666 C689 0.920 1_655 S
H667 C655 0.929 . S
H668 C690 0.930 . S
H669 C661 0.931 . S
H670 C651 0.930 . S
H671 C680 0.929 1_545 S
H672 C656 0.931 . S
H673 C657 0.930 . S
H674 C712 0.930 . S
H675 C653 0.929 . S
H676 C681 0.931 . S
H677 C682 0.930 . S
N678 Gd658 2.622 . S
N678 C679 1.369 . S
N678 C680 1.338 . S
C679 N678 1.369 . S
C679 C683 1.415 . S
C679 C686 1.422 . S
C680 H671 0.929 1_565 S
C680 N678 1.338 . S
C680 C682 1.378 . S
C681 H676 0.931 . S
C681 C682 1.348 . S
C681 C683 1.413 . S
C682 H677 0.930 . S
C682 C680 1.378 . S
C682 C681 1.348 . S
C683 C679 1.415 . S
C683 C681 1.413 . S
C683 C713 1.437 . S
H684 C713 0.929 . S
N685 Gd658 2.570 . S
N685 C686 1.359 . S
N685 C689 1.343 . S
C686 C679 1.422 . S
C686 N685 1.359 . S
C686 C688 1.421 . S
C687 C688 1.422 . S
C687 C690 1.321 1_455 S
C687 H714 0.931 1_455 S
C688 C686 1.421 . S
C688 C687 1.422 . S
C688 C712 1.417 . S
C689 H666 0.920 1_455 S
C689 N685 1.343 . S
C689 C690 1.390 1_455 S
C690 H668 0.930 . S
C690 C687 1.321 1_655 S
C690 C689 1.390 1_655 S
O691 Gd659 2.386 . S
O691 C703 1.265 . S
O692 Gd658 2.353 1_545 S
O692 C703 1.242 . S
O693 Gd658 2.468 . S
O693 C711 1.263 . S
O694 Gd658 2.427 . S
O694 C711 1.252 . S
O695 Gd659 2.307 . S
O695 C704 1.261 . S
O696 Gd658 2.388 1_545 S
O696 C704 1.252 . S
O697 Gd658 2.386 1_545 S
O697 C715 1.265 . S
O698 Gd659 2.353 . S
O698 C715 1.242 . S
O699 Gd659 2.468 . S
O699 C723 1.263 . S
O700 Gd659 2.435 . S
O700 C723 1.261 . S
O701 Gd658 2.306 1_545 S
O701 C716 1.263 1_455 S
O702 Gd659 2.388 1_655 S
O702 C716 1.252 . S
C703 O691 1.265 . S
C703 O692 1.242 . S
C704 O695 1.261 . S
C704 O696 1.252 . S
C705 C708 1.394 . S
C705 C710 1.370 . S
C705 C711 1.500 . S
C706 C709 1.383 . S
C706 C710 1.395 . S
C707 C708 1.396 . S
C707 C709 1.365 . S
C707 H724 0.929 . S
C708 C705 1.394 . S
C708 C707 1.396 . S
C708 H725 0.930 . S
C709 C706 1.383 . S
C709 C707 1.365 . S
C709 H726 0.931 . S
C710 C705 1.370 . S
C710 C706 1.395 . S
C710 H727 0.930 . S
C711 Gd658 2.805 . S
C711 O693 1.263 . S
C711 O694 1.252 . S
C711 C705 1.500 . S
C712 H674 0.930 . S
C712 C688 1.417 . S
C712 C713 1.329 . S
C713 C683 1.437 . S
C713 H684 0.929 . S
C713 C712 1.329 . S
H714 C687 0.931 1_655 S
C715 O697 1.265 . S
C715 O698 1.242 . S
C716 O701 1.263 1_655 S
C716 O702 1.252 . S
C717 C720 1.394 1_455 S
C717 C722 1.370 . S
C717 C723 1.500 . S
C718 C721 1.383 . S
C718 C722 1.395 . S
C719 C720 1.396 . S
C719 C721 1.365 1_655 S
C719 H728 0.929 . S
C720 C717 1.394 1_655 S
C720 C719 1.396 . S
C720 H729 0.930 . S
C721 C718 1.383 . S
C721 C719 1.365 1_455 S
C721 H730 0.930 1_455 S
C722 C717 1.370 . S
C722 C718 1.395 . S
C722 H731 0.930 . S
C723 Gd659 2.805 . S
C723 O699 1.263 . S
C723 O700 1.261 . S
C723 C717 1.500 . S
H724 C707 0.929 . S
H725 C708 0.930 . S
H726 C709 0.931 . S
H727 C710 0.930 . S
H728 C719 0.929 . S
H729 C720 0.930 . S
H730 C721 0.930 1_655 S
H731 C722 0.930 . S
C732 C734 1.422 . S
C732 C736 1.415 . S
C732 N738 1.369 . S
C733 C734 1.421 . S
C733 C735 1.417 . S
C733 C745 1.422 . S
C734 C732 1.422 . S
C734 C733 1.421 . S
C734 N744 1.359 . S
C735 C733 1.417 . S
C735 C737 1.329 . S
C735 H754 0.930 . S
C736 C732 1.415 . S
C736 C737 1.437 . S
C736 C740 1.413 . S
C737 C735 1.329 . S
C737 C736 1.437 . S
C737 H759 0.929 . S
N738 C732 1.369 . S
N738 C739 1.338 . S
N738 Gd743 2.622 . S
C739 N738 1.338 . S
C739 C741 1.378 . S
C739 H751 0.929 . S
C740 C736 1.413 . S
C740 C741 1.348 . S
C740 H756 0.931 . S
C741 C739 1.378 . S
C741 C740 1.348 . S
C741 H757 0.930 . S
Gd742 N762 2.622 . S
Gd742 N769 2.570 . S
Gd742 O776 2.353 . S
Gd742 O777 2.468 . S
Gd742 O778 2.427 . S
Gd742 O780 2.388 . S
Gd742 O781 2.386 . S
Gd742 O785 2.307 . S
Gd742 C795 2.805 . S
Gd743 N738 2.622 . S
Gd743 N744 2.570 . S
Gd743 O775 2.386 . S
Gd743 O779 2.307 . S
Gd743 O782 2.353 . S
Gd743 O783 2.468 . S
Gd743 O784 2.427 . S
Gd743 O786 2.388 . S
Gd743 C807 2.805 . S
N744 C734 1.359 . S
N744 Gd743 2.570 . S
N744 C746 1.343 . S
C745 C733 1.422 . S
C745 C747 1.321 . S
C745 H753 0.931 . S
C746 N744 1.343 . S
C746 C747 1.390 . S
C746 H748 0.931 . S
C747 C745 1.321 . S
C747 C746 1.390 . S
C747 H749 0.930 . S
H748 C746 0.931 . S
H749 C747 0.930 . S
H750 C773 0.931 . S
H751 C739 0.929 . S
H752 C774 0.930 . S
H753 C745 0.931 . S
H754 C735 0.930 . S
H755 C764 0.929 . S
H756 C740 0.931 . S
H757 C741 0.930 . S
H758 C796 0.930 . S
H759 C737 0.929 . S
H760 C765 0.931 . S
H761 C766 0.930 . S
N762 Gd742 2.622 . S
N762 C763 1.369 . S
N762 C764 1.338 . S
C763 N762 1.369 . S
C763 C767 1.415 . S
C763 C770 1.422 . S
C764 H755 0.929 . S
C764 N762 1.338 . S
C764 C766 1.378 . S
C765 H760 0.931 . S
C765 C766 1.348 . S
C765 C767 1.413 . S
C766 H761 0.930 . S
C766 C764 1.378 . S
C766 C765 1.348 . S
C767 C763 1.415 . S
C767 C765 1.413 . S
C767 C797 1.437 . S
H768 C797 0.929 . S
N769 Gd742 2.570 . S
N769 C770 1.359 . S
N769 C773 1.343 . S
C770 C763 1.422 . S
C770 N769 1.359 . S
C770 C772 1.421 . S
C771 C772 1.422 . S
C771 C774 1.321 . S
C771 H798 0.931 . S
C772 C770 1.421 . S
C772 C771 1.422 . S
C772 C796 1.417 . S
C773 H750 0.931 . S
C773 N769 1.343 . S
C773 C774 1.390 . S
C774 H752 0.930 . S
C774 C771 1.321 . S
C774 C773 1.390 . S
O775 Gd743 2.386 . S
O775 C787 1.265 . S
O776 Gd742 2.353 . S
O776 C787 1.242 . S
O777 Gd742 2.468 . S
O777 C795 1.263 . S
O778 Gd742 2.427 . S
O778 C795 1.252 . S
O779 Gd743 2.307 . S
O779 C788 1.261 . S
O780 Gd742 2.388 . S
O780 C788 1.252 . S
O781 Gd742 2.386 . S
O781 C799 1.265 . S
O782 Gd743 2.353 . S
O782 C799 1.242 . S
O783 Gd743 2.468 . S
O783 C807 1.263 . S
O784 Gd743 2.427 . S
O784 C807 1.252 . S
O785 Gd742 2.307 . S
O785 C800 1.261 . S
O786 Gd743 2.388 . S
O786 C800 1.252 . S
C787 O775 1.265 . S
C787 O776 1.242 . S
C788 O779 1.261 . S
C788 O780 1.252 . S
C789 C792 1.394 . S
C789 C794 1.370 . S
C789 C795 1.500 . S
C790 C793 1.383 . S
C790 C794 1.395 . S
C791 C792 1.396 . S
C791 C793 1.365 . S
C791 H808 0.929 . S
C792 C789 1.394 . S
C792 C791 1.396 . S
C792 H809 0.930 . S
C793 C790 1.383 . S
C793 C791 1.365 . S
C793 H810 0.931 . S
C794 C789 1.370 . S
C794 C790 1.395 . S
C794 H811 0.930 . S
C795 Gd742 2.805 . S
C795 O777 1.263 . S
C795 O778 1.252 . S
C795 C789 1.500 . S
C796 H758 0.930 . S
C796 C772 1.417 . S
C796 C797 1.329 . S
C797 C767 1.437 . S
C797 H768 0.929 . S
C797 C796 1.329 . S
H798 C771 0.931 . S
C799 O781 1.265 . S
C799 O782 1.242 . S
C800 O785 1.261 . S
C800 O786 1.252 . S
C801 C804 1.394 . S
C801 C806 1.370 . S
C801 C807 1.500 . S
C802 C805 1.383 . S
C802 C806 1.395 . S
C803 C804 1.396 . S
C803 C805 1.365 . S
C803 H812 0.929 . S
C804 C801 1.394 . S
C804 C803 1.396 . S
C804 H813 0.930 . S
C805 C802 1.383 . S
C805 C803 1.365 . S
C805 H814 0.931 . S
C806 C801 1.370 . S
C806 C802 1.395 . S
C806 H815 0.930 . S
C807 Gd743 2.805 . S
C807 O783 1.263 . S
C807 O784 1.252 . S
C807 C801 1.500 . S
H808 C791 0.929 . S
H809 C792 0.930 . S
H810 C793 0.931 . S
H811 C794 0.930 . S
H812 C803 0.929 . S
H813 C804 0.930 . S
H814 C805 0.931 . S
H815 C806 0.930 . S
C816 C818 1.422 . S
C816 C820 1.415 1_545 S
C816 N822 1.369 1_545 S
C817 C818 1.421 . S
C817 C819 1.417 . S
C817 C829 1.422 . S
C818 C816 1.422 . S
C818 C817 1.421 . S
C818 N828 1.359 . S
C819 C817 1.417 . S
C819 C821 1.329 . S
C819 H838 0.930 . S
C820 C816 1.415 1_565 S
C820 C821 1.437 1_565 S
C820 C824 1.413 . S
C821 C819 1.329 . S
C821 C820 1.437 1_545 S
C821 H843 0.941 . S
N822 C816 1.369 1_565 S
N822 C823 1.338 . S
N822 Gd827 2.622 1_565 S
C823 N822 1.338 . S
C823 C825 1.378 . S
C823 H835 0.929 . S
C824 C820 1.413 . S
C824 C825 1.348 . S
C824 H840 0.931 . S
C825 C823 1.378 . S
C825 C824 1.348 . S
C825 H841 0.930 . S
Gd826 N846 2.622 . S
Gd826 N853 2.570 . S
Gd826 O860 2.353 1_556 S
Gd826 O861 2.468 . S
Gd826 O862 2.427 . S
Gd826 O864 2.388 1_556 S
Gd826 O865 2.386 1_556 S
Gd826 O869 2.307 . S
Gd826 C879 2.805 . S
Gd827 N822 2.622 1_545 S
Gd827 N828 2.570 . S
Gd827 O859 2.386 . S
Gd827 O863 2.307 . S
Gd827 O866 2.353 . S
Gd827 O867 2.468 . S
Gd827 O868 2.427 1_545 S
Gd827 O870 2.388 1_545 S
Gd827 C891 2.805 . S
N828 C818 1.359 . S
N828 Gd827 2.570 . S
N828 C830 1.343 . S
C829 C817 1.422 . S
C829 C831 1.321 . S
C829 H837 0.931 . S
C830 N828 1.343 . S
C830 C831 1.390 . S
C830 H832 0.931 . S
C831 C829 1.321 . S
C831 C830 1.390 . S
C831 H833 0.930 . S
H832 C830 0.931 . S
H833 C831 0.930 . S
H834 C857 0.931 . S
H835 C823 0.929 . S
H836 C858 0.930 1_565 S
H837 C829 0.931 . S
H838 C819 0.930 . S
H839 C848 0.929 1_554 S
H840 C824 0.931 . S
H841 C825 0.930 . S
H842 C880 0.930 . S
H843 C821 0.941 . S
H844 C849 0.931 . S
H845 C850 0.930 . S
N846 Gd826 2.622 . S
N846 C847 1.369 . S
N846 C848 1.338 . S
C847 N846 1.369 . S
C847 C851 1.415 . S
C847 C854 1.422 . S
C848 H839 0.929 1_556 S
C848 N846 1.338 . S
C848 C850 1.378 . S
C849 H844 0.931 . S
C849 C850 1.348 . S
C849 C851 1.413 . S
C850 H845 0.930 . S
C850 C848 1.378 . S
C850 C849 1.348 . S
C851 C847 1.415 . S
C851 C849 1.413 . S
C851 C881 1.437 . S
H852 C881 0.929 . S
N853 Gd826 2.570 . S
N853 C854 1.359 . S
N853 C857 1.343 . S
C854 C847 1.422 . S
C854 N853 1.359 . S
C854 C856 1.421 . S
C855 C856 1.422 . S
C855 C858 1.321 . S
C855 H882 0.931 . S
C856 C854 1.421 . S
C856 C855 1.422 . S
C856 C880 1.417 . S
C857 H834 0.931 . S
C857 N853 1.343 . S
C857 C858 1.390 . S
C858 H836 0.930 1_545 S
C858 C855 1.321 . S
C858 C857 1.390 . S
O859 Gd827 2.386 . S
O859 C871 1.265 . S
O860 Gd826 2.353 1_554 S
O860 C871 1.242 . S
O861 Gd826 2.468 . S
O861 C879 1.263 . S
O862 Gd826 2.427 . S
O862 C879 1.252 . S
O863 Gd827 2.307 . S
O863 C872 1.261 . S
O864 Gd826 2.388 1_554 S
O864 C872 1.252 . S
O865 Gd826 2.386 1_554 S
O865 C883 1.265 . S
O866 Gd827 2.353 . S
O866 C883 1.242 . S
O867 Gd827 2.468 . S
O867 C891 1.263 . S
O868 Gd827 2.427 1_565 S
O868 C891 1.252 1_565 S
O869 Gd826 2.307 . S
O869 C884 1.261 . S
O870 Gd827 2.388 1_565 S
O870 C884 1.252 1_564 S
C871 O859 1.265 . S
C871 O860 1.242 . S
C872 O863 1.261 . S
C872 O864 1.252 . S
C873 C876 1.394 . S
C873 C878 1.370 . S
C873 C879 1.500 . S
C874 C877 1.383 . S
C874 C878 1.395 . S
C875 C876 1.396 . S
C875 C877 1.365 . S
C875 H892 0.929 . S
C876 C873 1.394 . S
C876 C875 1.396 . S
C876 H893 0.930 . S
C877 C874 1.383 . S
C877 C875 1.365 . S
C877 H894 0.931 . S
C878 C873 1.370 . S
C878 C874 1.395 . S
C878 H895 0.930 . S
C879 Gd826 2.805 . S
C879 O861 1.263 . S
C879 O862 1.252 . S
C879 C873 1.500 . S
C880 H842 0.930 . S
C880 C856 1.417 . S
C880 C881 1.329 . S
C881 C851 1.437 . S
C881 H852 0.929 . S
C881 C880 1.329 . S
H882 C855 0.931 . S
C883 O865 1.265 . S
C883 O866 1.242 . S
C884 O869 1.261 . S
C884 O870 1.252 1_546 S
C885 C888 1.394 1_545 S
C885 C890 1.370 . S
C885 C891 1.500 . S
C886 C889 1.383 1_545 S
C886 C890 1.395 . S
C887 C888 1.396 . S
C887 C889 1.365 . S
C887 H896 0.929 . S
C888 C885 1.394 1_565 S
C888 C887 1.396 . S
C888 H897 0.930 . S
C889 C886 1.383 1_565 S
C889 C887 1.365 . S
C889 H898 0.931 . S
C890 C885 1.370 . S
C890 C886 1.395 . S
C890 H899 0.930 . S
C891 Gd827 2.805 . S
C891 O867 1.263 . S
C891 O868 1.252 1_545 S
C891 C885 1.500 . S
H892 C875 0.929 . S
H893 C876 0.930 . S
H894 C877 0.931 . S
H895 C878 0.930 . S
H896 C887 0.929 . S
H897 C888 0.930 . S
H898 C889 0.931 . S
H899 C890 0.930 . S
C900 C902 1.422 . S
C900 C904 1.415 . S
C900 N906 1.369 . S
C901 C902 1.421 . S
C901 C903 1.417 . S
C901 C913 1.422 . S
C902 C900 1.422 . S
C902 C901 1.421 . S
C902 N912 1.359 . S
C903 C901 1.417 . S
C903 C905 1.329 . S
C903 H922 0.930 . S
C904 C900 1.415 . S
C904 C905 1.437 . S
C904 C908 1.413 . S
C905 C903 1.329 . S
C905 C904 1.437 . S
C905 H927 0.929 . S
N906 C900 1.369 . S
N906 C907 1.338 . S
N906 Gd911 2.622 . S
C907 N906 1.338 . S
C907 C909 1.378 . S
C907 H919 0.929 . S
C908 C904 1.413 . S
C908 C909 1.348 . S
C908 H924 0.931 . S
C909 C907 1.378 . S
C909 C908 1.348 . S
C909 H925 0.930 . S
Gd910 N930 2.622 . S
Gd910 N937 2.570 . S
Gd910 O944 2.353 . S
Gd910 O945 2.468 . S
Gd910 O946 2.427 . S
Gd910 O948 2.388 . S
Gd910 O949 2.386 . S
Gd910 O953 2.307 . S
Gd910 C963 2.805 . S
Gd911 N906 2.622 . S
Gd911 N912 2.570 . S
Gd911 O943 2.386 . S
Gd911 O947 2.307 . S
Gd911 O950 2.353 . S
Gd911 O951 2.468 . S
Gd911 O952 2.427 . S
Gd911 O954 2.388 . S
Gd911 C975 2.805 . S
N912 C902 1.359 . S
N912 Gd911 2.570 . S
N912 C914 1.343 . S
C913 C901 1.422 . S
C913 C915 1.321 . S
C913 H921 0.931 . S
C914 N912 1.343 . S
C914 C915 1.390 . S
C914 H916 0.931 . S
C915 C913 1.321 . S
C915 C914 1.390 . S
C915 H917 0.930 . S
H916 C914 0.931 . S
H917 C915 0.930 . S
H918 C941 0.931 . S
H919 C907 0.929 . S
H920 C942 0.930 . S
H921 C913 0.931 . S
H922 C903 0.930 . S
H923 C932 0.929 . S
H924 C908 0.931 . S
H925 C909 0.930 . S
H926 C964 0.930 . S
H927 C905 0.929 . S
H928 C933 0.931 . S
H929 C934 0.930 . S
N930 Gd910 2.622 . S
N930 C931 1.369 . S
N930 C932 1.338 . S
C931 N930 1.369 . S
C931 C935 1.415 . S
C931 C938 1.422 . S
C932 H923 0.929 . S
C932 N930 1.338 . S
C932 C934 1.378 . S
C933 H928 0.931 . S
C933 C934 1.348 . S
C933 C935 1.413 . S
C934 H929 0.930 . S
C934 C932 1.378 . S
C934 C933 1.348 . S
C935 C931 1.415 . S
C935 C933 1.413 . S
C935 C965 1.437 . S
H936 C965 0.929 . S
N937 Gd910 2.570 . S
N937 C938 1.359 . S
N937 C941 1.343 . S
C938 C931 1.422 . S
C938 N937 1.359 . S
C938 C940 1.421 . S
C939 C940 1.422 . S
C939 C942 1.321 . S
C939 H966 0.931 . S
C940 C938 1.421 . S
C940 C939 1.422 . S
C940 C964 1.417 . S
C941 H918 0.931 . S
C941 N937 1.343 . S
C941 C942 1.390 . S
C942 H920 0.930 . S
C942 C939 1.321 . S
C942 C941 1.390 . S
O943 Gd911 2.386 . S
O943 C955 1.265 . S
O944 Gd910 2.353 . S
O944 C955 1.242 . S
O945 Gd910 2.468 . S
O945 C963 1.263 . S
O946 Gd910 2.427 . S
O946 C963 1.252 . S
O947 Gd911 2.307 . S
O947 C956 1.261 . S
O948 Gd910 2.388 . S
O948 C956 1.252 . S
O949 Gd910 2.386 . S
O949 C967 1.265 . S
O950 Gd911 2.353 . S
O950 C967 1.242 . S
O951 Gd911 2.468 . S
O951 C975 1.263 . S
O952 Gd911 2.427 . S
O952 C975 1.252 . S
O953 Gd910 2.307 . S
O953 C968 1.261 . S
O954 Gd911 2.388 . S
O954 C968 1.252 . S
C955 O943 1.265 . S
C955 O944 1.242 . S
C956 O947 1.261 . S
C956 O948 1.252 . S
C957 C960 1.394 . S
C957 C962 1.370 . S
C957 C963 1.500 . S
C958 C961 1.383 . S
C958 C962 1.395 . S
C959 C960 1.396 . S
C959 C961 1.365 . S
C959 H976 0.929 . S
C960 C957 1.394 . S
C960 C959 1.396 . S
C960 H977 0.930 . S
C961 C958 1.383 . S
C961 C959 1.365 . S
C961 H978 0.931 . S
C962 C957 1.370 . S
C962 C958 1.395 . S
C962 H979 0.930 . S
C963 Gd910 2.805 . S
C963 O945 1.263 . S
C963 O946 1.252 . S
C963 C957 1.500 . S
C964 H926 0.930 . S
C964 C940 1.417 . S
C964 C965 1.329 . S
C965 C935 1.437 . S
C965 H936 0.929 . S
C965 C964 1.329 . S
H966 C939 0.931 . S
C967 O949 1.265 . S
C967 O950 1.242 . S
C968 O953 1.261 . S
C968 O954 1.252 . S
C969 C972 1.394 . S
C969 C974 1.370 . S
C969 C975 1.500 . S
C970 C973 1.383 . S
C970 C974 1.395 . S
C971 C972 1.396 . S
C971 C973 1.365 . S
C971 H980 0.929 . S
C972 C969 1.394 . S
C972 C971 1.396 . S
C972 H981 0.930 . S
C973 C970 1.383 . S
C973 C971 1.365 . S
C973 H982 0.931 . S
C974 C969 1.370 . S
C974 C970 1.395 . S
C974 H983 0.930 . S
C975 Gd911 2.805 . S
C975 O951 1.263 . S
C975 O952 1.252 . S
C975 C969 1.500 . S
H976 C959 0.929 . S
H977 C960 0.930 . S
H978 C961 0.931 . S
H979 C962 0.930 . S
H980 C971 0.929 . S
H981 C972 0.930 . S
H982 C973 0.931 . S
H983 C974 0.930 . S
C984 C986 1.422 . S
C984 C988 1.415 . S
C984 N990 1.369 . S
C985 C986 1.421 . S
C985 C987 1.417 . S
C985 C997 1.422 . S
C986 C984 1.422 . S
C986 C985 1.421 . S
C986 N996 1.359 . S
C987 C985 1.417 . S
C987 C989 1.329 . S
C987 H1006 0.930 . S
C988 C984 1.415 . S
C988 C989 1.437 . S
C988 C992 1.413 . S
C989 C987 1.329 . S
C989 C988 1.437 . S
C989 H1011 0.929 . S
N990 C984 1.369 . S
N990 C991 1.338 . S
N990 Gd995 2.622 . S
C991 N990 1.338 . S
C991 C993 1.378 . S
C991 H1003 0.929 . S
C992 C988 1.413 . S
C992 C993 1.348 . S
C992 H1008 0.931 . S
C993 C991 1.378 . S
C993 C992 1.348 . S
C993 H1009 0.930 . S
Gd994 N1014 2.622 1_554 S
Gd994 N1021 2.570 1_554 S
Gd994 O1028 2.353 . S
Gd994 O1029 2.468 . S
Gd994 O1030 2.427 . S
Gd994 O1032 2.388 . S
Gd994 O1033 2.386 1_554 S
Gd994 O1037 2.307 . S
Gd994 C1047 2.805 . S
Gd995 N990 2.622 . S
Gd995 N996 2.570 . S
Gd995 O1027 2.386 . S
Gd995 O1031 2.307 . S
Gd995 O1034 2.353 1_554 S
Gd995 O1035 2.468 . S
Gd995 O1036 2.427 . S
Gd995 O1038 2.388 . S
Gd995 C1059 2.805 . S
N996 C986 1.359 . S
N996 Gd995 2.570 . S
N996 C998 1.343 . S
C997 C985 1.422 . S
C997 C999 1.321 . S
C997 H1005 0.931 . S
C998 N996 1.343 . S
C998 C999 1.390 . S
C998 H1000 0.931 . S
C999 C997 1.321 . S
C999 C998 1.390 . S
C999 H1001 0.930 . S
H1000 C998 0.931 . S
H1001 C999 0.930 . S
H1002 C1025 0.931 . S
H1003 C991 0.929 . S
H1004 C1026 0.930 . S
H1005 C997 0.931 . S
H1006 C987 0.930 . S
H1007 C1016 0.929 1_554 S
H1008 C992 0.931 . S
H1009 C993 0.930 . S
H1010 C1048 0.930 . S
H1011 C989 0.929 . S
H1012 C1017 0.931 . S
H1013 C1018 0.930 . S
N1014 Gd994 2.622 1_556 S
N1014 C1015 1.369 . S
N1014 C1016 1.338 . S
C1015 N1014 1.369 . S
C1015 C1019 1.415 . S
C1015 C1022 1.422 . S
C1016 H1007 0.929 1_556 S
C1016 N1014 1.338 . S
C1016 C1018 1.378 . S
C1017 H1012 0.931 . S
C1017 C1018 1.348 . S
C1017 C1019 1.413 . S
C1018 H1013 0.930 . S
C1018 C1016 1.378 . S
C1018 C1017 1.348 . S
C1019 C1015 1.415 . S
C1019 C1017 1.413 . S
C1019 C1049 1.437 . S
H1020 C1049 0.929 . S
N1021 Gd994 2.570 1_556 S
N1021 C1022 1.359 . S
N1021 C1025 1.343 . S
C1022 C1015 1.422 . S
C1022 N1021 1.359 . S
C1022 C1024 1.421 . S
C1023 C1024 1.422 . S
C1023 C1026 1.321 . S
C1023 H1050 0.931 . S
C1024 C1022 1.421 . S
C1024 C1023 1.422 . S
C1024 C1048 1.417 . S
C1025 H1002 0.931 . S
C1025 N1021 1.343 . S
C1025 C1026 1.390 . S
C1026 H1004 0.930 . S
C1026 C1023 1.321 . S
C1026 C1025 1.390 . S
O1027 Gd995 2.386 . S
O1027 C1039 1.265 . S
O1028 Gd994 2.353 . S
O1028 C1039 1.242 . S
O1029 Gd994 2.468 . S
O1029 C1047 1.263 . S
O1030 Gd994 2.427 . S
O1030 C1047 1.252 . S
O1031 Gd995 2.307 . S
O1031 C1040 1.261 . S
O1032 Gd994 2.388 . S
O1032 C1040 1.252 . S
O1033 Gd994 2.386 1_556 S
O1033 C1051 1.265 . S
O1034 Gd995 2.353 1_556 S
O1034 C1051 1.242 . S
O1035 Gd995 2.468 . S
O1035 C1059 1.263 . S
O1036 Gd995 2.427 . S
O1036 C1059 1.252 . S
O1037 Gd994 2.307 . S
O1037 C1052 1.261 . S
O1038 Gd995 2.388 . S
O1038 C1052 1.252 . S
C1039 O1027 1.265 . S
C1039 O1028 1.242 . S
C1040 O1031 1.261 . S
C1040 O1032 1.252 . S
C1041 C1044 1.394 . S
C1041 C1046 1.370 . S
C1041 C1047 1.500 . S
C1042 C1045 1.383 . S
C1042 C1046 1.395 . S
C1043 C1044 1.396 . S
C1043 C1045 1.365 . S
C1043 H1060 0.929 . S
C1044 C1041 1.394 . S
C1044 C1043 1.396 . S
C1044 H1061 0.930 . S
C1045 C1042 1.383 . S
C1045 C1043 1.365 . S
C1045 H1062 0.931 . S
C1046 C1041 1.370 . S
C1046 C1042 1.395 . S
C1046 H1063 0.930 . S
C1047 Gd994 2.805 . S
C1047 O1029 1.263 . S
C1047 O1030 1.252 . S
C1047 C1041 1.500 . S
C1048 H1010 0.930 . S
C1048 C1024 1.417 . S
C1048 C1049 1.329 . S
C1049 C1019 1.437 . S
C1049 H1020 0.929 . S
C1049 C1048 1.329 . S
H1050 C1023 0.931 . S
C1051 O1033 1.265 . S
C1051 O1034 1.242 . S
C1052 O1037 1.261 . S
C1052 O1038 1.252 . S
C1053 C1056 1.394 . S
C1053 C1058 1.370 . S
C1053 C1059 1.500 1_556 S
C1054 C1057 1.383 . S
C1054 C1058 1.395 . S
C1055 C1056 1.396 . S
C1055 C1057 1.365 . S
C1055 H1064 0.929 . S
C1056 C1053 1.394 . S
C1056 C1055 1.396 . S
C1056 H1065 0.930 . S
C1057 C1054 1.383 . S
C1057 C1055 1.365 . S
C1057 H1066 0.931 . S
C1058 C1053 1.370 . S
C1058 C1054 1.395 . S
C1058 H1067 0.930 . S
C1059 Gd995 2.805 . S
C1059 O1035 1.263 . S
C1059 O1036 1.252 . S
C1059 C1053 1.500 1_554 S
H1060 C1043 0.929 . S
H1061 C1044 0.930 . S
H1062 C1045 0.931 . S
H1063 C1046 0.930 . S
H1064 C1055 0.929 . S
H1065 C1056 0.930 . S
H1066 C1057 0.931 . S
H1067 C1058 0.930 . S
C1068 C1070 1.422 . S
C1068 C1072 1.415 . S
C1068 N1074 1.369 . S
C1069 C1070 1.421 . S
C1069 C1071 1.417 . S
C1069 C1081 1.422 . S
C1070 C1068 1.422 . S
C1070 C1069 1.421 . S
C1070 N1080 1.359 . S
C1071 C1069 1.417 . S
C1071 C1073 1.329 . S
C1071 H1090 0.930 . S
C1072 C1068 1.415 . S
C1072 C1073 1.437 . S
C1072 C1076 1.413 . S
C1073 C1071 1.329 . S
C1073 C1072 1.437 . S
C1073 H1095 0.929 . S
N1074 C1068 1.369 . S
N1074 C1075 1.338 . S
N1074 Gd1079 2.622 . S
C1075 N1074 1.338 . S
C1075 C1077 1.378 . S
C1075 H1087 0.929 . S
C1076 C1072 1.413 . S
C1076 C1077 1.348 . S
C1076 H1092 0.931 . S
C1077 C1075 1.378 . S
C1077 C1076 1.348 . S
C1077 H1093 0.930 . S
Gd1078 N1098 2.622 . S
Gd1078 N1105 2.570 . S
Gd1078 O1112 2.353 . S
Gd1078 O1113 2.468 . S
Gd1078 O1114 2.427 . S
Gd1078 O1116 2.388 . S
Gd1078 O1117 2.386 . S
Gd1078 O1121 2.307 . S
Gd1078 C1131 2.805 . S
Gd1079 N1074 2.622 . S
Gd1079 N1080 2.570 . S
Gd1079 O1111 2.386 . S
Gd1079 O1115 2.307 . S
Gd1079 O1118 2.353 . S
Gd1079 O1119 2.468 . S
Gd1079 O1120 2.427 . S
Gd1079 O1122 2.388 . S
Gd1079 C1143 2.805 . S
N1080 C1070 1.359 . S
N1080 Gd1079 2.570 . S
N1080 C1082 1.343 . S
C1081 C1069 1.422 . S
C1081 C1083 1.321 . S
C1081 H1089 0.931 . S
C1082 N1080 1.343 . S
C1082 C1083 1.390 . S
C1082 H1084 0.931 . S
C1083 C1081 1.321 . S
C1083 C1082 1.390 . S
C1083 H1085 0.930 . S
H1084 C1082 0.931 . S
H1085 C1083 0.930 . S
H1086 C1109 0.931 . S
H1087 C1075 0.929 . S
H1088 C1110 0.930 . S
H1089 C1081 0.931 . S
H1090 C1071 0.930 . S
H1091 C1100 0.929 . S
H1092 C1076 0.931 . S
H1093 C1077 0.930 . S
H1094 C1132 0.930 . S
H1095 C1073 0.929 . S
H1096 C1101 0.931 . S
H1097 C1102 0.930 . S
N1098 Gd1078 2.622 . S
N1098 C1099 1.369 . S
N1098 C1100 1.338 . S
C1099 N1098 1.369 . S
C1099 C1103 1.415 . S
C1099 C1106 1.422 . S
C1100 H1091 0.929 . S
C1100 N1098 1.338 . S
C1100 C1102 1.378 . S
C1101 H1096 0.931 . S
C1101 C1102 1.348 . S
C1101 C1103 1.413 . S
C1102 H1097 0.930 . S
C1102 C1100 1.378 . S
C1102 C1101 1.348 . S
C1103 C1099 1.415 . S
C1103 C1101 1.413 . S
C1103 C1133 1.437 . S
H1104 C1133 0.929 . S
N1105 Gd1078 2.570 . S
N1105 C1106 1.359 . S
N1105 C1109 1.343 . S
C1106 C1099 1.422 . S
C1106 N1105 1.359 . S
C1106 C1108 1.421 . S
C1107 C1108 1.422 . S
C1107 C1110 1.321 . S
C1107 H1134 0.931 . S
C1108 C1106 1.421 . S
C1108 C1107 1.422 . S
C1108 C1132 1.417 . S
C1109 H1086 0.931 . S
C1109 N1105 1.343 . S
C1109 C1110 1.390 . S
C1110 H1088 0.930 . S
C1110 C1107 1.321 . S
C1110 C1109 1.390 . S
O1111 Gd1079 2.386 . S
O1111 C1123 1.265 . S
O1112 Gd1078 2.353 . S
O1112 C1123 1.242 . S
O1113 Gd1078 2.468 . S
O1113 C1131 1.263 . S
O1114 Gd1078 2.427 . S
O1114 C1131 1.252 . S
O1115 Gd1079 2.307 . S
O1115 C1124 1.261 . S
O1116 Gd1078 2.388 . S
O1116 C1124 1.252 . S
O1117 Gd1078 2.386 . S
O1117 C1135 1.265 . S
O1118 Gd1079 2.353 . S
O1118 C1135 1.242 . S
O1119 Gd1079 2.468 . S
O1119 C1143 1.263 . S
O1120 Gd1079 2.427 . S
O1120 C1143 1.252 . S
O1121 Gd1078 2.307 . S
O1121 C1136 1.261 . S
O1122 Gd1079 2.388 . S
O1122 C1136 1.252 . S
C1123 O1111 1.265 . S
C1123 O1112 1.242 . S
C1124 O1115 1.261 . S
C1124 O1116 1.252 . S
C1125 C1128 1.394 . S
C1125 C1130 1.370 . S
C1125 C1131 1.500 . S
C1126 C1129 1.383 . S
C1126 C1130 1.395 . S
C1127 C1128 1.396 . S
C1127 C1129 1.365 . S
C1127 H1144 0.929 . S
C1128 C1125 1.394 . S
C1128 C1127 1.396 . S
C1128 H1145 0.930 . S
C1129 C1126 1.383 . S
C1129 C1127 1.365 . S
C1129 H1146 0.931 . S
C1130 C1125 1.370 . S
C1130 C1126 1.395 . S
C1130 H1147 0.930 . S
C1131 Gd1078 2.805 . S
C1131 O1113 1.263 . S
C1131 O1114 1.252 . S
C1131 C1125 1.500 . S
C1132 H1094 0.930 . S
C1132 C1108 1.417 . S
C1132 C1133 1.329 . S
C1133 C1103 1.437 . S
C1133 H1104 0.929 . S
C1133 C1132 1.329 . S
H1134 C1107 0.931 . S
C1135 O1117 1.265 . S
C1135 O1118 1.242 . S
C1136 O1121 1.261 . S
C1136 O1122 1.252 . S
C1137 C1140 1.394 . S
C1137 C1142 1.370 . S
C1137 C1143 1.500 . S
C1138 C1141 1.383 . S
C1138 C1142 1.395 . S
C1139 C1140 1.396 . S
C1139 C1141 1.365 . S
C1139 H1148 0.929 . S
C1140 C1137 1.394 . S
C1140 C1139 1.396 . S
C1140 H1149 0.930 . S
C1141 C1138 1.383 . S
C1141 C1139 1.365 . S
C1141 H1150 0.931 . S
C1142 C1137 1.370 . S
C1142 C1138 1.395 . S
C1142 H1151 0.930 . S
C1143 Gd1079 2.805 . S
C1143 O1119 1.263 . S
C1143 O1120 1.252 . S
C1143 C1137 1.500 . S
H1144 C1127 0.929 . S
H1145 C1128 0.930 . S
H1146 C1129 0.931 . S
H1147 C1130 0.930 . S
H1148 C1139 0.929 . S
H1149 C1140 0.930 . S
H1150 C1141 0.931 . S
H1151 C1142 0.930 . S
C1152 C1154 1.422 . S
C1152 C1156 1.415 . S
C1152 N1158 1.369 . S
C1153 C1154 1.421 . S
C1153 C1155 1.417 . S
C1153 C1165 1.422 . S
C1154 C1152 1.422 . S
C1154 C1153 1.421 . S
C1154 N1164 1.359 . S
C1155 C1153 1.417 . S
C1155 C1157 1.329 . S
C1155 H1174 0.930 . S
C1156 C1152 1.415 . S
C1156 C1157 1.437 . S
C1156 C1160 1.413 . S
C1157 C1155 1.329 . S
C1157 C1156 1.437 . S
C1157 H1179 0.929 . S
N1158 C1152 1.369 . S
N1158 C1159 1.338 . S
N1158 Gd1163 2.622 . S
C1159 N1158 1.338 . S
C1159 C1161 1.378 . S
C1159 H1171 0.929 . S
C1160 C1156 1.413 . S
C1160 C1161 1.348 . S
C1160 H1176 0.931 . S
C1161 C1159 1.378 . S
C1161 C1160 1.348 . S
C1161 H1177 0.930 . S
Gd1162 N1182 2.622 1_455 S
Gd1162 N1189 2.570 1_455 S
Gd1162 O1196 2.353 . S
Gd1162 O1197 2.468 . S
Gd1162 O1198 2.427 . S
Gd1162 O1200 2.388 . S
Gd1162 O1201 2.386 1_455 S
Gd1162 O1205 2.307 . S
Gd1162 C1215 2.805 . S
Gd1163 N1158 2.622 . S
Gd1163 N1164 2.570 . S
Gd1163 O1195 2.386 . S
Gd1163 O1199 2.307 . S
Gd1163 O1202 2.353 1_455 S
Gd1163 O1203 2.468 . S
Gd1163 O1204 2.427 . S
Gd1163 O1206 2.388 . S
Gd1163 C1227 2.805 1_455 S
N1164 C1154 1.359 . S
N1164 Gd1163 2.570 . S
N1164 C1166 1.343 . S
C1165 C1153 1.422 . S
C1165 C1167 1.321 . S
C1165 H1173 0.931 . S
C1166 N1164 1.343 . S
C1166 C1167 1.390 . S
C1166 H1168 0.931 . S
C1167 C1165 1.321 . S
C1167 C1166 1.390 . S
C1167 H1169 0.930 . S
H1168 C1166 0.931 . S
H1169 C1167 0.930 . S
H1170 C1193 0.931 . S
H1171 C1159 0.929 . S
H1172 C1194 0.930 . S
H1173 C1165 0.931 . S
H1174 C1155 0.930 . S
H1175 C1184 0.929 1_455 S
H1176 C1160 0.931 . S
H1177 C1161 0.930 . S
H1178 C1216 0.930 . S
H1179 C1157 0.929 . S
H1180 C1185 0.931 . S
H1181 C1186 0.930 . S
N1182 Gd1162 2.622 1_655 S
N1182 C1183 1.369 . S
N1182 C1184 1.338 . S
C1183 N1182 1.369 . S
C1183 C1187 1.415 . S
C1183 C1190 1.422 . S
C1184 H1175 0.929 1_655 S
C1184 N1182 1.338 . S
C1184 C1186 1.378 . S
C1185 H1180 0.931 . S
C1185 C1186 1.348 . S
C1185 C1187 1.413 . S
C1186 H1181 0.930 . S
C1186 C1184 1.378 . S
C1186 C1185 1.348 . S
C1187 C1183 1.415 . S
C1187 C1185 1.413 . S
C1187 C1217 1.437 . S
H1188 C1217 0.929 . S
N1189 Gd1162 2.570 1_655 S
N1189 C1190 1.359 . S
N1189 C1193 1.343 . S
C1190 C1183 1.422 . S
C1190 N1189 1.359 . S
C1190 C1192 1.421 . S
C1191 C1192 1.422 . S
C1191 C1194 1.321 . S
C1191 H1218 0.931 . S
C1192 C1190 1.421 . S
C1192 C1191 1.422 . S
C1192 C1216 1.417 . S
C1193 H1170 0.931 . S
C1193 N1189 1.343 . S
C1193 C1194 1.390 . S
C1194 H1172 0.930 . S
C1194 C1191 1.321 . S
C1194 C1193 1.390 . S
O1195 Gd1163 2.386 . S
O1195 C1207 1.265 . S
O1196 Gd1162 2.353 . S
O1196 C1207 1.242 . S
O1197 Gd1162 2.468 . S
O1197 C1215 1.263 . S
O1198 Gd1162 2.427 . S
O1198 C1215 1.252 . S
O1199 Gd1163 2.307 . S
O1199 C1208 1.261 . S
O1200 Gd1162 2.388 . S
O1200 C1208 1.252 . S
O1201 Gd1162 2.386 1_655 S
O1201 C1219 1.265 . S
O1202 Gd1163 2.353 1_655 S
O1202 C1219 1.242 . S
O1203 Gd1163 2.468 . S
O1203 C1227 1.263 1_455 S
O1204 Gd1163 2.427 . S
O1204 C1227 1.252 1_455 S
O1205 Gd1162 2.307 . S
O1205 C1220 1.261 . S
O1206 Gd1163 2.388 . S
O1206 C1220 1.252 . S
C1207 O1195 1.265 . S
C1207 O1196 1.242 . S
C1208 O1199 1.261 . S
C1208 O1200 1.252 . S
C1209 C1212 1.394 . S
C1209 C1214 1.370 . S
C1209 C1215 1.500 . S
C1210 C1213 1.383 . S
C1210 C1214 1.395 . S
C1211 C1212 1.396 . S
C1211 C1213 1.365 . S
C1211 H1228 0.929 . S
C1212 C1209 1.394 . S
C1212 C1211 1.396 . S
C1212 H1229 0.930 . S
C1213 C1210 1.383 . S
C1213 C1211 1.365 . S
C1213 H1230 0.931 . S
C1214 C1209 1.370 . S
C1214 C1210 1.395 . S
C1214 H1231 0.930 . S
C1215 Gd1162 2.805 . S
C1215 O1197 1.263 . S
C1215 O1198 1.252 . S
C1215 C1209 1.500 . S
C1216 H1178 0.930 . S
C1216 C1192 1.417 . S
C1216 C1217 1.329 . S
C1217 C1187 1.437 . S
C1217 H1188 0.929 . S
C1217 C1216 1.329 . S
H1218 C1191 0.931 . S
C1219 O1201 1.265 . S
C1219 O1202 1.242 . S
C1220 O1205 1.261 . S
C1220 O1206 1.252 . S
C1221 C1224 1.394 . S
C1221 C1226 1.370 . S
C1221 C1227 1.500 . S
C1222 C1225 1.383 . S
C1222 C1226 1.395 . S
C1223 C1224 1.396 . S
C1223 C1225 1.365 . S
C1223 H1232 0.929 . S
C1224 C1221 1.394 . S
C1224 C1223 1.396 . S
C1224 H1233 0.930 . S
C1225 C1222 1.383 . S
C1225 C1223 1.365 . S
C1225 H1234 0.931 . S
C1226 C1221 1.370 . S
C1226 C1222 1.395 . S
C1226 H1235 0.930 . S
C1227 Gd1163 2.805 1_655 S
C1227 O1203 1.263 1_655 S
C1227 O1204 1.252 1_655 S
C1227 C1221 1.500 . S
H1228 C1211 0.929 . S
H1229 C1212 0.930 . S
H1230 C1213 0.931 . S
H1231 C1214 0.930 . S
H1232 C1223 0.929 . S
H1233 C1224 0.930 . S
H1234 C1225 0.931 . S
H1235 C1226 0.930 . S
C1236 C1238 1.422 . S
C1236 C1240 1.415 . S
C1236 N1242 1.369 . S
C1237 C1238 1.421 . S
C1237 C1239 1.417 . S
C1237 C1249 1.422 . S
C1238 C1236 1.422 . S
C1238 C1237 1.421 . S
C1238 N1248 1.359 . S
C1239 C1237 1.417 . S
C1239 C1241 1.329 . S
C1239 H1258 0.930 . S
C1240 C1236 1.415 . S
C1240 C1241 1.437 . S
C1240 C1244 1.413 . S
C1241 C1239 1.329 . S
C1241 C1240 1.437 . S
C1241 H1263 0.929 . S
N1242 C1236 1.369 . S
N1242 C1243 1.338 . S
N1242 Gd1247 2.622 . S
C1243 N1242 1.338 . S
C1243 C1245 1.378 . S
C1243 H1255 0.929 . S
C1244 C1240 1.413 . S
C1244 C1245 1.348 . S
C1244 H1260 0.931 . S
C1245 C1243 1.378 . S
C1245 C1244 1.348 . S
C1245 H1261 0.930 . S
Gd1246 N1266 2.622 . S
Gd1246 N1273 2.570 . S
Gd1246 O1280 2.353 . S
Gd1246 O1281 2.468 . S
Gd1246 O1282 2.427 . S
Gd1246 O1284 2.388 . S
Gd1246 O1285 2.386 . S
Gd1246 O1289 2.307 . S
Gd1246 C1299 2.805 . S
Gd1247 N1242 2.622 . S
Gd1247 N1248 2.570 . S
Gd1247 O1279 2.386 . S
Gd1247 O1283 2.307 . S
Gd1247 O1286 2.353 . S
Gd1247 O1287 2.468 . S
Gd1247 O1288 2.427 . S
Gd1247 O1290 2.388 . S
Gd1247 C1311 2.805 . S
N1248 C1238 1.359 . S
N1248 Gd1247 2.570 . S
N1248 C1250 1.343 . S
C1249 C1237 1.422 . S
C1249 C1251 1.321 . S
C1249 H1257 0.931 . S
C1250 N1248 1.343 . S
C1250 C1251 1.390 . S
C1250 H1252 0.931 . S
C1251 C1249 1.321 . S
C1251 C1250 1.390 . S
C1251 H1253 0.930 . S
H1252 C1250 0.931 . S
H1253 C1251 0.930 . S
H1254 C1277 0.931 . S
H1255 C1243 0.929 . S
H1256 C1278 0.930 . S
H1257 C1249 0.931 . S
H1258 C1239 0.930 . S
H1259 C1268 0.929 . S
H1260 C1244 0.931 . S
H1261 C1245 0.930 . S
H1262 C1300 0.930 . S
H1263 C1241 0.929 . S
H1264 C1269 0.931 . S
H1265 C1270 0.930 . S
N1266 Gd1246 2.622 . S
N1266 C1267 1.369 . S
N1266 C1268 1.338 . S
C1267 N1266 1.369 . S
C1267 C1271 1.415 . S
C1267 C1274 1.422 . S
C1268 H1259 0.929 . S
C1268 N1266 1.338 . S
C1268 C1270 1.378 . S
C1269 H1264 0.931 . S
C1269 C1270 1.348 . S
C1269 C1271 1.413 . S
C1270 H1265 0.930 . S
C1270 C1268 1.378 . S
C1270 C1269 1.348 . S
C1271 C1267 1.415 . S
C1271 C1269 1.413 . S
C1271 C1301 1.437 . S
H1272 C1301 0.929 . S
N1273 Gd1246 2.570 . S
N1273 C1274 1.359 . S
N1273 C1277 1.343 . S
C1274 C1267 1.422 . S
C1274 N1273 1.359 . S
C1274 C1276 1.421 . S
C1275 C1276 1.422 . S
C1275 C1278 1.321 . S
C1275 H1302 0.931 . S
C1276 C1274 1.421 . S
C1276 C1275 1.422 . S
C1276 C1300 1.417 . S
C1277 H1254 0.931 . S
C1277 N1273 1.343 . S
C1277 C1278 1.390 . S
C1278 H1256 0.930 . S
C1278 C1275 1.321 . S
C1278 C1277 1.390 . S
O1279 Gd1247 2.386 . S
O1279 C1291 1.265 . S
O1280 Gd1246 2.353 . S
O1280 C1291 1.242 . S
O1281 Gd1246 2.468 . S
O1281 C1299 1.263 . S
O1282 Gd1246 2.427 . S
O1282 C1299 1.252 . S
O1283 Gd1247 2.307 . S
O1283 C1292 1.261 . S
O1284 Gd1246 2.388 . S
O1284 C1292 1.252 . S
O1285 Gd1246 2.386 . S
O1285 C1303 1.265 . S
O1286 Gd1247 2.353 . S
O1286 C1303 1.242 . S
O1287 Gd1247 2.468 . S
O1287 C1311 1.263 . S
O1288 Gd1247 2.427 . S
O1288 C1311 1.252 . S
O1289 Gd1246 2.307 . S
O1289 C1304 1.261 . S
O1290 Gd1247 2.388 . S
O1290 C1304 1.252 . S
C1291 O1279 1.265 . S
C1291 O1280 1.242 . S
C1292 O1283 1.261 . S
C1292 O1284 1.252 . S
C1293 C1296 1.394 . S
C1293 C1298 1.370 . S
C1293 C1299 1.500 . S
C1294 C1297 1.383 . S
C1294 C1298 1.395 . S
C1295 C1296 1.396 . S
C1295 C1297 1.365 . S
C1295 H1312 0.929 . S
C1296 C1293 1.394 . S
C1296 C1295 1.396 . S
C1296 H1313 0.930 . S
C1297 C1294 1.383 . S
C1297 C1295 1.365 . S
C1297 H1314 0.931 . S
C1298 C1293 1.370 . S
C1298 C1294 1.395 . S
C1298 H1315 0.930 . S
C1299 Gd1246 2.805 . S
C1299 O1281 1.263 . S
C1299 O1282 1.252 . S
C1299 C1293 1.500 . S
C1300 H1262 0.930 . S
C1300 C1276 1.417 . S
C1300 C1301 1.329 . S
C1301 C1271 1.437 . S
C1301 H1272 0.929 . S
C1301 C1300 1.329 . S
H1302 C1275 0.931 . S
C1303 O1285 1.265 . S
C1303 O1286 1.242 . S
C1304 O1289 1.261 . S
C1304 O1290 1.252 . S
C1305 C1308 1.394 . S
C1305 C1310 1.370 . S
C1305 C1311 1.500 . S
C1306 C1309 1.383 . S
C1306 C1310 1.395 . S
C1307 C1308 1.396 . S
C1307 C1309 1.365 . S
C1307 H1316 0.929 . S
C1308 C1305 1.394 . S
C1308 C1307 1.396 . S
C1308 H1317 0.930 . S
C1309 C1306 1.383 . S
C1309 C1307 1.365 . S
C1309 H1318 0.931 . S
C1310 C1305 1.370 . S
C1310 C1306 1.395 . S
C1310 H1319 0.930 . S
C1311 Gd1247 2.805 . S
C1311 O1287 1.263 . S
C1311 O1288 1.252 . S
C1311 C1305 1.500 . S
H1312 C1295 0.929 . S
H1313 C1296 0.930 . S
H1314 C1297 0.931 . S
H1315 C1298 0.930 . S
H1316 C1307 0.929 . S
H1317 C1308 0.930 . S
H1318 C1309 0.931 . S
H1319 C1310 0.930 . S
C1320 C1322 1.422 . S
C1320 C1324 1.415 . S
C1320 N1326 1.369 . S
C1321 C1322 1.421 . S
C1321 C1323 1.417 . S
C1321 C1333 1.422 . S
C1322 C1320 1.422 . S
C1322 C1321 1.421 . S
C1322 N1332 1.359 . S
C1323 C1321 1.417 . S
C1323 C1325 1.329 . S
C1323 H1342 0.930 . S
C1324 C1320 1.415 . S
C1324 C1325 1.437 . S
C1324 C1328 1.413 . S
C1325 C1323 1.329 . S
C1325 C1324 1.437 . S
C1325 H1347 0.929 . S
N1326 C1320 1.369 . S
N1326 C1327 1.338 . S
N1326 Gd1331 2.622 . S
C1327 N1326 1.338 . S
C1327 C1329 1.378 . S
C1327 H1339 0.929 . S
C1328 C1324 1.413 . S
C1328 C1329 1.348 . S
C1328 H1344 0.931 . S
C1329 C1327 1.378 . S
C1329 C1328 1.348 . S
C1329 H1345 0.930 . S
Gd1330 N1350 2.622 . S
Gd1330 N1357 2.570 . S
Gd1330 O1364 2.353 . S
Gd1330 O1365 2.468 . S
Gd1330 O1366 2.427 . S
Gd1330 O1368 2.388 . S
Gd1330 O1369 2.386 . S
Gd1330 O1373 2.307 . S
Gd1330 C1383 2.805 . S
Gd1331 N1326 2.622 . S
Gd1331 N1332 2.570 . S
Gd1331 O1363 2.386 . S
Gd1331 O1367 2.307 . S
Gd1331 O1370 2.353 . S
Gd1331 O1371 2.468 . S
Gd1331 O1372 2.427 . S
Gd1331 O1374 2.388 . S
Gd1331 C1395 2.805 . S
N1332 C1322 1.359 . S
N1332 Gd1331 2.570 . S
N1332 C1334 1.343 . S
C1333 C1321 1.422 . S
C1333 C1335 1.321 . S
C1333 H1341 0.931 . S
C1334 N1332 1.343 . S
C1334 C1335 1.390 . S
C1334 H1336 0.931 . S
C1335 C1333 1.321 . S
C1335 C1334 1.390 . S
C1335 H1337 0.930 . S
H1336 C1334 0.931 . S
H1337 C1335 0.930 . S
H1338 C1361 0.931 . S
H1339 C1327 0.929 . S
H1340 C1362 0.930 . S
H1341 C1333 0.931 . S
H1342 C1323 0.930 . S
H1343 C1352 0.929 . S
H1344 C1328 0.931 . S
H1345 C1329 0.930 . S
H1346 C1384 0.930 . S
H1347 C1325 0.929 . S
H1348 C1353 0.931 . S
H1349 C1354 0.930 . S
N1350 Gd1330 2.622 . S
N1350 C1351 1.369 . S
N1350 C1352 1.338 . S
C1351 N1350 1.369 . S
C1351 C1355 1.415 . S
C1351 C1358 1.422 . S
C1352 H1343 0.929 . S
C1352 N1350 1.338 . S
C1352 C1354 1.378 . S
C1353 H1348 0.931 . S
C1353 C1354 1.348 . S
C1353 C1355 1.413 . S
C1354 H1349 0.930 . S
C1354 C1352 1.378 . S
C1354 C1353 1.348 . S
C1355 C1351 1.415 . S
C1355 C1353 1.413 . S
C1355 C1385 1.437 . S
H1356 C1385 0.929 . S
N1357 Gd1330 2.570 . S
N1357 C1358 1.359 . S
N1357 C1361 1.343 . S
C1358 C1351 1.422 . S
C1358 N1357 1.359 . S
C1358 C1360 1.421 . S
C1359 C1360 1.422 . S
C1359 C1362 1.321 . S
C1359 H1386 0.931 . S
C1360 C1358 1.421 . S
C1360 C1359 1.422 . S
C1360 C1384 1.417 . S
C1361 H1338 0.931 . S
C1361 N1357 1.343 . S
C1361 C1362 1.390 . S
C1362 H1340 0.930 . S
C1362 C1359 1.321 . S
C1362 C1361 1.390 . S
O1363 Gd1331 2.386 . S
O1363 C1375 1.265 . S
O1364 Gd1330 2.353 . S
O1364 C1375 1.242 . S
O1365 Gd1330 2.468 . S
O1365 C1383 1.263 . S
O1366 Gd1330 2.427 . S
O1366 C1383 1.252 . S
O1367 Gd1331 2.307 . S
O1367 C1376 1.261 . S
O1368 Gd1330 2.388 . S
O1368 C1376 1.252 . S
O1369 Gd1330 2.386 . S
O1369 C1387 1.265 . S
O1370 Gd1331 2.353 . S
O1370 C1387 1.242 . S
O1371 Gd1331 2.468 . S
O1371 C1395 1.263 . S
O1372 Gd1331 2.427 . S
O1372 C1395 1.252 . S
O1373 Gd1330 2.307 . S
O1373 C1388 1.261 . S
O1374 Gd1331 2.388 . S
O1374 C1388 1.252 . S
C1375 O1363 1.265 . S
C1375 O1364 1.242 . S
C1376 O1367 1.261 . S
C1376 O1368 1.252 . S
C1377 C1380 1.394 . S
C1377 C1382 1.370 . S
C1377 C1383 1.500 . S
C1378 C1381 1.383 . S
C1378 C1382 1.395 . S
C1379 C1380 1.396 . S
C1379 C1381 1.365 . S
C1379 H1396 0.929 . S
C1380 C1377 1.394 . S
C1380 C1379 1.396 . S
C1380 H1397 0.930 . S
C1381 C1378 1.383 . S
C1381 C1379 1.365 . S
C1381 H1398 0.931 . S
C1382 C1377 1.370 . S
C1382 C1378 1.395 . S
C1382 H1399 0.930 . S
C1383 Gd1330 2.805 . S
C1383 O1365 1.263 . S
C1383 O1366 1.252 . S
C1383 C1377 1.500 . S
C1384 H1346 0.930 . S
C1384 C1360 1.417 . S
C1384 C1385 1.329 . S
C1385 C1355 1.437 . S
C1385 H1356 0.929 . S
C1385 C1384 1.329 . S
H1386 C1359 0.931 . S
C1387 O1369 1.265 . S
C1387 O1370 1.242 . S
C1388 O1373 1.261 . S
C1388 O1374 1.252 . S
C1389 C1392 1.394 . S
C1389 C1394 1.370 . S
C1389 C1395 1.500 . S
C1390 C1393 1.383 . S
C1390 C1394 1.395 . S
C1391 C1392 1.396 . S
C1391 C1393 1.365 . S
C1391 H1400 0.929 . S
C1392 C1389 1.394 . S
C1392 C1391 1.396 . S
C1392 H1401 0.930 . S
C1393 C1390 1.383 . S
C1393 C1391 1.365 . S
C1393 H1402 0.931 . S
C1394 C1389 1.370 . S
C1394 C1390 1.395 . S
C1394 H1403 0.930 . S
C1395 Gd1331 2.805 . S
C1395 O1371 1.263 . S
C1395 O1372 1.252 . S
C1395 C1389 1.500 . S
H1396 C1379 0.929 . S
H1397 C1380 0.930 . S
H1398 C1381 0.931 . S
H1399 C1382 0.930 . S
H1400 C1391 0.929 . S
H1401 C1392 0.930 . S
H1402 C1393 0.931 . S
H1403 C1394 0.930 . S
C1404 C1406 1.422 . S
C1404 C1408 1.415 . S
C1404 N1410 1.369 . S
C1405 C1406 1.421 . S
C1405 C1407 1.417 . S
C1405 C1417 1.422 . S
C1406 C1404 1.422 . S
C1406 C1405 1.421 . S
C1406 N1416 1.359 . S
C1407 C1405 1.417 . S
C1407 C1409 1.329 . S
C1407 H1426 0.930 . S
C1408 C1404 1.415 . S
C1408 C1409 1.437 . S
C1408 C1412 1.413 . S
C1409 C1407 1.329 . S
C1409 C1408 1.437 . S
C1409 H1431 0.929 . S
N1410 C1404 1.369 . S
N1410 C1411 1.338 . S
N1410 Gd1415 2.622 . S
C1411 N1410 1.338 . S
C1411 C1413 1.378 . S
C1411 H1423 0.929 . S
C1412 C1408 1.413 . S
C1412 C1413 1.348 . S
C1412 H1428 0.931 . S
C1413 C1411 1.378 . S
C1413 C1412 1.348 . S
C1413 H1429 0.930 . S
Gd1414 N1434 2.622 . S
Gd1414 N1441 2.570 . S
Gd1414 O1448 2.353 . S
Gd1414 O1449 2.468 . S
Gd1414 O1450 2.427 . S
Gd1414 O1452 2.388 . S
Gd1414 O1453 2.386 . S
Gd1414 O1457 2.307 . S
Gd1414 C1467 2.805 . S
Gd1415 N1410 2.622 . S
Gd1415 N1416 2.570 . S
Gd1415 O1447 2.386 . S
Gd1415 O1451 2.307 . S
Gd1415 O1454 2.353 . S
Gd1415 O1455 2.468 . S
Gd1415 O1456 2.427 . S
Gd1415 O1458 2.388 . S
Gd1415 C1479 2.805 . S
N1416 C1406 1.359 . S
N1416 Gd1415 2.570 . S
N1416 C1418 1.343 . S
C1417 C1405 1.422 . S
C1417 C1419 1.321 . S
C1417 H1425 0.931 . S
C1418 N1416 1.343 . S
C1418 C1419 1.390 . S
C1418 H1420 0.931 . S
C1419 C1417 1.321 . S
C1419 C1418 1.390 . S
C1419 H1421 0.930 . S
H1420 C1418 0.931 . S
H1421 C1419 0.930 . S
H1422 C1445 0.931 . S
H1423 C1411 0.929 . S
H1424 C1446 0.930 . S
H1425 C1417 0.931 . S
H1426 C1407 0.930 . S
H1427 C1436 0.929 . S
H1428 C1412 0.931 . S
H1429 C1413 0.930 . S
H1430 C1468 0.930 . S
H1431 C1409 0.929 . S
H1432 C1437 0.931 . S
H1433 C1438 0.930 . S
N1434 Gd1414 2.622 . S
N1434 C1435 1.369 . S
N1434 C1436 1.338 . S
C1435 N1434 1.369 . S
C1435 C1439 1.415 . S
C1435 C1442 1.422 . S
C1436 H1427 0.929 . S
C1436 N1434 1.338 . S
C1436 C1438 1.378 . S
C1437 H1432 0.931 . S
C1437 C1438 1.348 . S
C1437 C1439 1.413 . S
C1438 H1433 0.930 . S
C1438 C1436 1.378 . S
C1438 C1437 1.348 . S
C1439 C1435 1.415 . S
C1439 C1437 1.413 . S
C1439 C1469 1.437 . S
H1440 C1469 0.929 . S
N1441 Gd1414 2.570 . S
N1441 C1442 1.359 . S
N1441 C1445 1.343 . S
C1442 C1435 1.422 . S
C1442 N1441 1.359 . S
C1442 C1444 1.421 . S
C1443 C1444 1.422 . S
C1443 C1446 1.321 . S
C1443 H1470 0.931 . S
C1444 C1442 1.421 . S
C1444 C1443 1.422 . S
C1444 C1468 1.417 . S
C1445 H1422 0.931 . S
C1445 N1441 1.343 . S
C1445 C1446 1.390 . S
C1446 H1424 0.930 . S
C1446 C1443 1.321 . S
C1446 C1445 1.390 . S
O1447 Gd1415 2.386 . S
O1447 C1459 1.265 . S
O1448 Gd1414 2.353 . S
O1448 C1459 1.242 . S
O1449 Gd1414 2.468 . S
O1449 C1467 1.263 . S
O1450 Gd1414 2.427 . S
O1450 C1467 1.252 . S
O1451 Gd1415 2.307 . S
O1451 C1460 1.261 . S
O1452 Gd1414 2.388 . S
O1452 C1460 1.252 . S
O1453 Gd1414 2.386 . S
O1453 C1471 1.265 . S
O1454 Gd1415 2.353 . S
O1454 C1471 1.242 . S
O1455 Gd1415 2.468 . S
O1455 C1479 1.263 . S
O1456 Gd1415 2.427 . S
O1456 C1479 1.252 . S
O1457 Gd1414 2.307 . S
O1457 C1472 1.261 . S
O1458 Gd1415 2.388 . S
O1458 C1472 1.252 . S
C1459 O1447 1.265 . S
C1459 O1448 1.242 . S
C1460 O1451 1.261 . S
C1460 O1452 1.252 . S
C1461 C1464 1.394 . S
C1461 C1466 1.370 . S
C1461 C1467 1.500 . S
C1462 C1465 1.383 . S
C1462 C1466 1.395 . S
C1463 C1464 1.396 . S
C1463 C1465 1.365 . S
C1463 H1480 0.929 . S
C1464 C1461 1.394 . S
C1464 C1463 1.396 . S
C1464 H1481 0.930 . S
C1465 C1462 1.383 . S
C1465 C1463 1.365 . S
C1465 H1482 0.931 . S
C1466 C1461 1.370 . S
C1466 C1462 1.395 . S
C1466 H1483 0.930 . S
C1467 Gd1414 2.805 . S
C1467 O1449 1.263 . S
C1467 O1450 1.252 . S
C1467 C1461 1.500 . S
C1468 H1430 0.930 . S
C1468 C1444 1.417 . S
C1468 C1469 1.329 . S
C1469 C1439 1.437 . S
C1469 H1440 0.929 . S
C1469 C1468 1.329 . S
H1470 C1443 0.931 . S
C1471 O1453 1.265 . S
C1471 O1454 1.242 . S
C1472 O1457 1.261 . S
C1472 O1458 1.252 . S
C1473 C1476 1.394 . S
C1473 C1478 1.370 . S
C1473 C1479 1.500 . S
C1474 C1477 1.383 . S
C1474 C1478 1.395 . S
C1475 C1476 1.396 . S
C1475 C1477 1.365 . S
C1475 H1484 0.929 . S
C1476 C1473 1.394 . S
C1476 C1475 1.396 . S
C1476 H1485 0.930 . S
C1477 C1474 1.383 . S
C1477 C1475 1.365 . S
C1477 H1486 0.931 . S
C1478 C1473 1.370 . S
C1478 C1474 1.395 . S
C1478 H1487 0.930 . S
C1479 Gd1415 2.805 . S
C1479 O1455 1.263 . S
C1479 O1456 1.252 . S
C1479 C1473 1.500 . S
H1480 C1463 0.929 . S
H1481 C1464 0.930 . S
H1482 C1465 0.931 . S
H1483 C1466 0.930 . S
H1484 C1475 0.929 . S
H1485 C1476 0.930 . S
H1486 C1477 0.931 . S
H1487 C1478 0.930 . S
C1488 C1490 1.422 . S
C1488 C1492 1.415 . S
C1488 N1494 1.369 . S
C1489 C1490 1.421 . S
C1489 C1491 1.417 . S
C1489 C1501 1.422 . S
C1490 C1488 1.422 . S
C1490 C1489 1.421 . S
C1490 N1500 1.359 . S
C1491 C1489 1.417 . S
C1491 C1493 1.329 . S
C1491 H1510 0.930 . S
C1492 C1488 1.415 . S
C1492 C1493 1.437 . S
C1492 C1496 1.413 . S
C1493 C1491 1.329 . S
C1493 C1492 1.437 . S
C1493 H1515 0.929 . S
N1494 C1488 1.369 . S
N1494 C1495 1.338 . S
N1494 Gd1499 2.622 . S
C1495 N1494 1.338 . S
C1495 C1497 1.378 . S
C1495 H1507 0.929 . S
C1496 C1492 1.413 . S
C1496 C1497 1.348 . S
C1496 H1512 0.931 . S
C1497 C1495 1.378 . S
C1497 C1496 1.348 . S
C1497 H1513 0.930 . S
Gd1498 N1518 2.622 . S
Gd1498 N1525 2.570 . S
Gd1498 O1532 2.353 . S
Gd1498 O1533 2.468 . S
Gd1498 O1534 2.427 . S
Gd1498 O1536 2.388 . S
Gd1498 O1537 2.386 . S
Gd1498 O1541 2.307 . S
Gd1498 C1551 2.805 . S
Gd1499 N1494 2.622 . S
Gd1499 N1500 2.570 . S
Gd1499 O1531 2.386 . S
Gd1499 O1535 2.307 . S
Gd1499 O1538 2.353 . S
Gd1499 O1539 2.468 . S
Gd1499 O1540 2.427 . S
Gd1499 O1542 2.388 . S
Gd1499 C1563 2.805 . S
N1500 C1490 1.359 . S
N1500 Gd1499 2.570 . S
N1500 C1502 1.343 . S
C1501 C1489 1.422 . S
C1501 C1503 1.321 . S
C1501 H1509 0.931 . S
C1502 N1500 1.343 . S
C1502 C1503 1.390 . S
C1502 H1504 0.931 . S
C1503 C1501 1.321 . S
C1503 C1502 1.390 . S
C1503 H1505 0.930 . S
H1504 C1502 0.931 . S
H1505 C1503 0.930 . S
H1506 C1529 0.931 . S
H1507 C1495 0.929 . S
H1508 C1530 0.930 . S
H1509 C1501 0.931 . S
H1510 C1491 0.930 . S
H1511 C1520 0.929 . S
H1512 C1496 0.931 . S
H1513 C1497 0.930 . S
H1514 C1552 0.930 . S
H1515 C1493 0.929 . S
H1516 C1521 0.931 . S
H1517 C1522 0.930 . S
N1518 Gd1498 2.622 . S
N1518 C1519 1.369 . S
N1518 C1520 1.338 . S
C1519 N1518 1.369 . S
C1519 C1523 1.415 . S
C1519 C1526 1.422 . S
C1520 H1511 0.929 . S
C1520 N1518 1.338 . S
C1520 C1522 1.378 . S
C1521 H1516 0.931 . S
C1521 C1522 1.348 . S
C1521 C1523 1.413 . S
C1522 H1517 0.930 . S
C1522 C1520 1.378 . S
C1522 C1521 1.348 . S
C1523 C1519 1.415 . S
C1523 C1521 1.413 . S
C1523 C1553 1.437 . S
H1524 C1553 0.929 . S
N1525 Gd1498 2.570 . S
N1525 C1526 1.359 . S
N1525 C1529 1.343 . S
C1526 C1519 1.422 . S
C1526 N1525 1.359 . S
C1526 C1528 1.421 . S
C1527 C1528 1.422 . S
C1527 C1530 1.321 . S
C1527 H1554 0.931 . S
C1528 C1526 1.421 . S
C1528 C1527 1.422 . S
C1528 C1552 1.417 . S
C1529 H1506 0.931 . S
C1529 N1525 1.343 . S
C1529 C1530 1.390 . S
C1530 H1508 0.930 . S
C1530 C1527 1.321 . S
C1530 C1529 1.390 . S
O1531 Gd1499 2.386 . S
O1531 C1543 1.265 . S
O1532 Gd1498 2.353 . S
O1532 C1543 1.242 . S
O1533 Gd1498 2.468 . S
O1533 C1551 1.263 . S
O1534 Gd1498 2.427 . S
O1534 C1551 1.252 . S
O1535 Gd1499 2.307 . S
O1535 C1544 1.261 . S
O1536 Gd1498 2.388 . S
O1536 C1544 1.252 . S
O1537 Gd1498 2.386 . S
O1537 C1555 1.265 . S
O1538 Gd1499 2.353 . S
O1538 C1555 1.242 . S
O1539 Gd1499 2.468 . S
O1539 C1563 1.263 . S
O1540 Gd1499 2.427 . S
O1540 C1563 1.252 . S
O1541 Gd1498 2.307 . S
O1541 C1556 1.261 . S
O1542 Gd1499 2.388 . S
O1542 C1556 1.252 . S
C1543 O1531 1.265 . S
C1543 O1532 1.242 . S
C1544 O1535 1.261 . S
C1544 O1536 1.252 . S
C1545 C1548 1.394 . S
C1545 C1550 1.370 . S
C1545 C1551 1.500 . S
C1546 C1549 1.383 . S
C1546 C1550 1.395 . S
C1547 C1548 1.396 . S
C1547 C1549 1.365 . S
C1547 H1564 0.929 . S
C1548 C1545 1.394 . S
C1548 C1547 1.396 . S
C1548 H1565 0.930 . S
C1549 C1546 1.383 . S
C1549 C1547 1.365 . S
C1549 H1566 0.931 . S
C1550 C1545 1.370 . S
C1550 C1546 1.395 . S
C1550 H1567 0.930 . S
C1551 Gd1498 2.805 . S
C1551 O1533 1.263 . S
C1551 O1534 1.252 . S
C1551 C1545 1.500 . S
C1552 H1514 0.930 . S
C1552 C1528 1.417 . S
C1552 C1553 1.329 . S
C1553 C1523 1.437 . S
C1553 H1524 0.929 . S
C1553 C1552 1.329 . S
H1554 C1527 0.931 . S
C1555 O1537 1.265 . S
C1555 O1538 1.242 . S
C1556 O1541 1.261 . S
C1556 O1542 1.252 . S
C1557 C1560 1.394 . S
C1557 C1562 1.370 . S
C1557 C1563 1.500 . S
C1558 C1561 1.383 . S
C1558 C1562 1.395 . S
C1559 C1560 1.396 . S
C1559 C1561 1.365 . S
C1559 H1568 0.929 . S
C1560 C1557 1.394 . S
C1560 C1559 1.396 . S
C1560 H1569 0.930 . S
C1561 C1558 1.383 . S
C1561 C1559 1.365 . S
C1561 H1570 0.931 . S
C1562 C1557 1.370 . S
C1562 C1558 1.395 . S
C1562 H1571 0.930 . S
C1563 Gd1499 2.805 . S
C1563 O1539 1.263 . S
C1563 O1540 1.252 . S
C1563 C1557 1.500 . S
H1564 C1547 0.929 . S
H1565 C1548 0.930 . S
H1566 C1549 0.931 . S
H1567 C1550 0.930 . S
H1568 C1559 0.929 . S
H1569 C1560 0.930 . S
H1570 C1561 0.931 . S
H1571 C1562 0.930 . S
C1572 C1574 1.422 1_556 S
C1572 C1576 1.415 . S
C1572 N1578 1.369 . S
C1573 C1574 1.421 . S
C1573 C1575 1.417 . S
C1573 C1585 1.422 . S
C1574 C1572 1.422 1_554 S
C1574 C1573 1.421 . S
C1574 N1584 1.359 . S
C1575 C1573 1.417 . S
C1575 C1577 1.329 1_554 S
C1575 H1594 0.930 . S
C1576 C1572 1.415 . S
C1576 C1577 1.437 . S
C1576 C1580 1.413 . S
C1577 C1575 1.329 1_556 S
C1577 C1576 1.437 . S
C1577 H1599 0.929 . S
N1578 C1572 1.369 . S
N1578 C1579 1.338 . S
N1578 Gd1583 2.622 1_556 S
C1579 N1578 1.338 . S
C1579 C1581 1.378 . S
C1579 H1591 0.929 . S
C1580 C1576 1.413 . S
C1580 C1581 1.348 . S
C1580 H1596 0.931 . S
C1581 C1579 1.378 . S
C1581 C1580 1.348 . S
C1581 H1597 0.930 . S
Gd1582 N1602 2.622 . S
Gd1582 N1609 2.570 . S
Gd1582 O1616 2.353 1_655 S
Gd1582 O1617 2.468 . S
Gd1582 O1618 2.427 . S
Gd1582 O1620 2.388 1_655 S
Gd1582 O1621 2.386 1_655 S
Gd1582 O1625 2.307 . S
Gd1582 C1635 2.805 . S
Gd1583 N1578 2.622 1_554 S
Gd1583 N1584 2.570 . S
Gd1583 O1615 2.386 . S
Gd1583 O1619 2.307 . S
Gd1583 O1622 2.353 . S
Gd1583 O1623 2.468 . S
Gd1583 O1624 2.427 1_554 S
Gd1583 O1626 2.388 1_554 S
Gd1583 C1647 2.805 . S
N1584 C1574 1.359 . S
N1584 Gd1583 2.570 . S
N1584 C1586 1.343 . S
C1585 C1573 1.422 . S
C1585 C1587 1.321 . S
C1585 H1593 0.931 . S
C1586 N1584 1.343 . S
C1586 C1587 1.390 . S
C1586 H1588 0.931 . S
C1587 C1585 1.321 . S
C1587 C1586 1.390 . S
C1587 H1589 0.930 . S
H1588 C1586 0.931 . S
H1589 C1587 0.930 . S
H1590 C1613 0.931 . S
H1591 C1579 0.929 . S
H1592 C1614 0.930 . S
H1593 C1585 0.931 . S
H1594 C1575 0.930 . S
H1595 C1604 0.929 1_455 S
H1596 C1580 0.931 . S
H1597 C1581 0.930 . S
H1598 C1636 0.930 . S
H1599 C1577 0.929 . S
H1600 C1605 0.931 . S
H1601 C1606 0.930 1_455 S
N1602 Gd1582 2.622 . S
N1602 C1603 1.369 . S
N1602 C1604 1.338 . S
C1603 N1602 1.369 . S
C1603 C1607 1.415 . S
C1603 C1610 1.422 . S
C1604 H1595 0.929 1_655 S
C1604 N1602 1.338 . S
C1604 C1606 1.378 . S
C1605 H1600 0.931 . S
C1605 C1606 1.348 . S
C1605 C1607 1.413 . S
C1606 H1601 0.930 1_655 S
C1606 C1604 1.378 . S
C1606 C1605 1.348 . S
C1607 C1603 1.415 . S
C1607 C1605 1.413 . S
C1607 C1637 1.437 . S
H1608 C1637 0.929 . S
N1609 Gd1582 2.570 . S
N1609 C1610 1.359 . S
N1609 C1613 1.343 . S
C1610 C1603 1.422 . S
C1610 N1609 1.359 . S
C1610 C1612 1.421 . S
C1611 C1612 1.422 . S
C1611 C1614 1.321 . S
C1611 H1638 0.931 . S
C1612 C1610 1.421 . S
C1612 C1611 1.422 . S
C1612 C1636 1.417 . S
C1613 H1590 0.931 . S
C1613 N1609 1.343 . S
C1613 C1614 1.390 . S
C1614 H1592 0.930 . S
C1614 C1611 1.321 . S
C1614 C1613 1.390 . S
O1615 Gd1583 2.386 . S
O1615 C1627 1.265 . S
O1616 Gd1582 2.353 1_455 S
O1616 C1627 1.242 . S
O1617 Gd1582 2.468 . S
O1617 C1635 1.263 . S
O1618 Gd1582 2.427 . S
O1618 C1635 1.252 . S
O1619 Gd1583 2.307 . S
O1619 C1628 1.261 . S
O1620 Gd1582 2.388 1_455 S
O1620 C1628 1.252 . S
O1621 Gd1582 2.386 1_455 S
O1621 C1639 1.265 . S
O1622 Gd1583 2.353 . S
O1622 C1639 1.242 . S
O1623 Gd1583 2.468 . S
O1623 C1647 1.263 . S
O1624 Gd1583 2.427 1_556 S
O1624 C1647 1.252 1_556 S
O1625 Gd1582 2.307 . S
O1625 C1640 1.237 1_654 S
O1626 Gd1583 2.388 1_556 S
O1626 C1640 1.261 . S
C1627 O1615 1.265 . S
C1627 O1616 1.242 . S
C1628 O1619 1.261 . S
C1628 O1620 1.252 . S
C1629 C1632 1.394 . S
C1629 C1634 1.370 . S
C1629 C1635 1.500 . S
C1630 C1633 1.383 . S
C1630 C1634 1.395 . S
C1631 C1632 1.396 . S
C1631 C1633 1.365 . S
C1631 H1648 0.929 . S
C1632 C1629 1.394 . S
C1632 C1631 1.396 . S
C1632 H1649 0.930 . S
C1633 C1630 1.383 . S
C1633 C1631 1.365 . S
C1633 H1650 0.931 . S
C1634 C1629 1.370 . S
C1634 C1630 1.395 . S
C1634 H1651 0.930 . S
C1635 Gd1582 2.805 . S
C1635 O1617 1.263 . S
C1635 O1618 1.252 . S
C1635 C1629 1.500 . S
C1636 H1598 0.930 . S
C1636 C1612 1.417 . S
C1636 C1637 1.329 . S
C1637 C1607 1.437 . S
C1637 H1608 0.929 . S
C1637 C1636 1.329 . S
H1638 C1611 0.931 . S
C1639 O1621 1.265 . S
C1639 O1622 1.242 . S
C1640 O1625 1.237 1_456 S
C1640 O1626 1.261 . S
C1641 C1644 1.394 1_554 S
C1641 C1646 1.370 . S
C1641 C1647 1.500 . S
C1642 C1645 1.383 1_554 S
C1642 C1646 1.395 . S
C1643 C1644 1.396 . S
C1643 C1645 1.365 . S
C1643 H1652 0.929 . S
C1644 C1641 1.394 1_556 S
C1644 C1643 1.396 . S
C1644 H1653 0.930 . S
C1645 C1642 1.383 1_556 S
C1645 C1643 1.365 . S
C1645 H1654 0.931 . S
C1646 C1641 1.370 . S
C1646 C1642 1.395 . S
C1646 H1655 0.930 . S
C1647 Gd1583 2.805 . S
C1647 O1623 1.263 . S
C1647 O1624 1.252 1_554 S
C1647 C1641 1.500 . S
H1648 C1631 0.929 . S
H1649 C1632 0.930 . S
H1650 C1633 0.931 . S
H1651 C1634 0.930 . S
H1652 C1643 0.929 . S
H1653 C1644 0.930 . S
H1654 C1645 0.931 . S
H1655 C1646 0.930 . S
C1656 C1657 1.369 1_655 S
C1656 C1658 1.419 1_655 S
C1656 H1660 0.930 . S
C1657 C1656 1.369 1_455 S
C1657 C1666 1.429 . S
C1658 C1656 1.419 1_455 S
C1658 C1659 1.363 . S
C1658 H1661 0.929 1_455 S
C1659 C1658 1.363 . S
C1659 C1665 1.428 . S
H1660 C1656 0.930 . S
H1661 C1658 0.929 1_655 S
S1662 N1663 1.613 1_554 S
S1662 N1664 1.610 . S
N1663 S1662 1.613 1_556 S
N1663 C1666 1.350 1_556 S
N1664 S1662 1.610 . S
N1664 C1665 1.351 . S
C1665 C1659 1.428 . S
C1665 N1664 1.351 . S
C1665 C1666 1.434 . S
C1666 C1657 1.429 . S
C1666 N1663 1.350 1_554 S
C1666 C1665 1.434 . S
C1667 C1668 1.369 . S
C1667 C1669 1.419 . S
C1667 H1671 0.930 . S
C1668 C1667 1.369 . S
C1668 C1677 1.429 . S
C1669 C1667 1.419 . S
C1669 C1670 1.363 . S
C1669 H1672 0.929 . S
C1670 C1669 1.363 . S
C1670 C1676 1.428 . S
H1671 C1667 0.930 . S
H1672 C1669 0.929 . S
S1673 N1674 1.613 . S
S1673 N1675 1.610 . S
N1674 S1673 1.613 . S
N1674 C1677 1.350 . S
N1675 S1673 1.610 . S
N1675 C1676 1.351 . S
C1676 C1670 1.428 . S
C1676 N1675 1.351 . S
C1676 C1677 1.434 . S
C1677 C1668 1.429 . S
C1677 N1674 1.350 . S
C1677 C1676 1.434 . S
C1678 C1679 1.369 . S
C1678 C1680 1.419 . S
C1678 H1682 0.930 . S
C1679 C1678 1.369 . S
C1679 C1688 1.429 . S
C1680 C1678 1.419 . S
C1680 C1681 1.363 . S
C1680 H1683 0.929 . S
C1681 C1680 1.363 . S
C1681 C1687 1.428 . S
H1682 C1678 0.930 . S
H1683 C1680 0.929 . S
S1684 N1685 1.613 . S
S1684 N1686 1.610 . S
N1685 S1684 1.613 . S
N1685 C1688 1.350 . S
N1686 S1684 1.610 . S
N1686 C1687 1.351 . S
C1687 C1681 1.428 . S
C1687 N1686 1.351 . S
C1687 C1688 1.434 . S
C1688 C1679 1.429 . S
C1688 N1685 1.350 . S
C1688 C1687 1.434 . S
C1689 C1690 1.369 . S
C1689 C1691 1.419 . S
C1689 H1693 0.930 . S
C1690 C1689 1.369 . S
C1690 C1699 1.429 . S
C1691 C1689 1.419 . S
C1691 C1692 1.363 . S
C1691 H1694 0.929 . S
C1692 C1691 1.363 . S
C1692 C1698 1.428 . S
H1693 C1689 0.930 . S
H1694 C1691 0.929 . S
S1695 N1696 1.613 . S
S1695 N1697 1.610 . S
N1696 S1695 1.613 . S
N1696 C1699 1.350 . S
N1697 S1695 1.610 . S
N1697 C1698 1.351 . S
C1698 C1692 1.428 . S
C1698 N1697 1.351 . S
C1698 C1699 1.434 . S
C1699 C1690 1.429 . S
C1699 N1696 1.350 . S
C1699 C1698 1.434 . S
C1700 C1701 1.369 . S
C1700 C1702 1.419 . S
C1700 H1704 0.930 . S
C1701 C1700 1.369 . S
C1701 C1710 1.429 . S
C1702 C1700 1.419 . S
C1702 C1703 1.363 . S
C1702 H1705 0.929 . S
C1703 C1702 1.363 . S
C1703 C1709 1.428 . S
H1704 C1700 0.930 . S
H1705 C1702 0.929 . S
S1706 N1707 1.613 . S
S1706 N1708 1.610 . S
N1707 S1706 1.613 . S
N1707 C1710 1.350 1_655 S
N1708 S1706 1.610 . S
N1708 C1709 1.351 1_655 S
C1709 C1703 1.428 . S
C1709 N1708 1.351 1_455 S
C1709 C1710 1.434 . S
C1710 C1701 1.429 . S
C1710 N1707 1.350 1_455 S
C1710 C1709 1.434 . S
C1711 C1712 1.369 . S
C1711 C1713 1.419 . S
C1711 H1715 0.930 . S
C1712 C1711 1.369 . S
C1712 C1721 1.429 . S
C1713 C1711 1.419 . S
C1713 C1714 1.363 . S
C1713 H1716 0.929 . S
C1714 C1713 1.363 . S
C1714 C1720 1.428 . S
H1715 C1711 0.930 . S
H1716 C1713 0.929 . S
S1717 N1718 1.613 . S
S1717 N1719 1.610 . S
N1718 S1717 1.613 . S
N1718 C1721 1.350 . S
N1719 S1717 1.610 . S
N1719 C1720 1.351 . S
C1720 C1714 1.428 . S
C1720 N1719 1.351 . S
C1720 C1721 1.434 . S
C1721 C1712 1.429 . S
C1721 N1718 1.350 . S
C1721 C1720 1.434 . S
C1722 C1723 1.369 . S
C1722 C1724 1.419 . S
C1722 H1726 0.930 . S
C1723 C1722 1.369 . S
C1723 C1732 1.429 . S
C1724 C1722 1.419 . S
C1724 C1725 1.363 . S
C1724 H1727 0.929 . S
C1725 C1724 1.363 . S
C1725 C1731 1.428 . S
H1726 C1722 0.930 . S
H1727 C1724 0.929 . S
S1728 N1729 1.613 . S
S1728 N1730 1.610 . S
N1729 S1728 1.613 . S
N1729 C1732 1.350 . S
N1730 S1728 1.610 . S
N1730 C1731 1.351 . S
C1731 C1725 1.428 . S
C1731 N1730 1.351 . S
C1731 C1732 1.434 . S
C1732 C1723 1.429 . S
C1732 N1729 1.350 . S
C1732 C1731 1.434 . S
C1733 C1734 1.369 . S
C1733 C1735 1.419 . S
C1733 H1737 0.930 . S
C1734 C1733 1.369 . S
C1734 C1743 1.429 . S
C1735 C1733 1.419 . S
C1735 C1736 1.363 . S
C1735 H1738 0.929 . S
C1736 C1735 1.363 . S
C1736 C1742 1.428 . S
H1737 C1733 0.930 . S
H1738 C1735 0.929 . S
S1739 N1740 1.613 . S
S1739 N1741 1.610 . S
N1740 S1739 1.613 . S
N1740 C1743 1.350 . S
N1741 S1739 1.610 . S
N1741 C1742 1.351 . S
C1742 C1736 1.428 . S
C1742 N1741 1.351 . S
C1742 C1743 1.434 . S
C1743 C1734 1.429 . S
C1743 N1740 1.350 . S
C1743 C1742 1.434 . S
C1744 C1745 1.369 1_455 S
C1744 C1746 1.419 . S
C1744 H1748 0.930 . S
C1745 C1744 1.369 1_655 S
C1745 C1754 1.429 . S
C1746 C1744 1.419 . S
C1746 C1747 1.363 . S
C1746 H1749 0.929 . S
C1747 C1746 1.363 . S
C1747 C1753 1.428 1_455 S
H1748 C1744 0.930 . S
H1749 C1746 0.929 . S
S1750 N1751 1.613 . S
S1750 N1752 1.610 . S
N1751 S1750 1.613 . S
N1751 C1754 1.350 . S
N1752 S1750 1.610 . S
N1752 C1753 1.351 . S
C1753 C1747 1.428 1_655 S
C1753 N1752 1.351 . S
C1753 C1754 1.434 . S
C1754 C1745 1.429 . S
C1754 N1751 1.350 . S
C1754 C1753 1.434 . S
C1755 C1756 1.369 . S
C1755 C1757 1.419 . S
C1755 H1759 0.930 . S
C1756 C1755 1.369 . S
C1756 C1765 1.429 . S
C1757 C1755 1.419 . S
C1757 C1758 1.363 . S
C1757 H1760 0.929 . S
C1758 C1757 1.363 . S
C1758 C1764 1.428 . S
H1759 C1755 0.930 . S
H1760 C1757 0.929 . S
S1761 N1762 1.613 . S
S1761 N1763 1.610 . S
N1762 S1761 1.613 . S
N1762 C1765 1.350 . S
N1763 S1761 1.610 . S
N1763 C1764 1.351 . S
C1764 C1758 1.428 . S
C1764 N1763 1.351 . S
C1764 C1765 1.434 . S
C1765 C1756 1.429 . S
C1765 N1762 1.350 . S
C1765 C1764 1.434 . S
C1766 C1767 1.369 . S
C1766 C1768 1.419 . S
C1766 H1770 0.930 . S
C1767 C1766 1.369 . S
C1767 C1776 1.429 . S
C1768 C1766 1.419 . S
C1768 C1769 1.363 . S
C1768 H1771 0.929 . S
C1769 C1768 1.363 . S
C1769 C1775 1.428 . S
H1770 C1766 0.930 . S
H1771 C1768 0.929 . S
S1772 N1773 1.613 1_565 S
S1772 N1774 1.610 . S
N1773 S1772 1.613 1_545 S
N1773 C1776 1.350 . S
N1774 S1772 1.610 . S
N1774 C1775 1.351 1_565 S
C1775 C1769 1.428 . S
C1775 N1774 1.351 1_545 S
C1775 C1776 1.434 . S
C1776 C1767 1.429 . S
C1776 N1773 1.350 . S
C1776 C1775 1.434 . S
C1777 C1778 1.369 . S
C1777 C1779 1.419 . S
C1777 H1781 0.930 . S
C1778 C1777 1.369 . S
C1778 C1787 1.429 . S
C1779 C1777 1.419 . S
C1779 C1780 1.363 . S
C1779 H1782 0.929 . S
C1780 C1779 1.363 . S
C1780 C1786 1.428 . S
H1781 C1777 0.930 . S
H1782 C1779 0.929 . S
S1783 N1784 1.613 . S
S1783 N1785 1.610 . S
N1784 S1783 1.613 . S
N1784 C1787 1.350 . S
N1785 S1783 1.610 . S
N1785 C1786 1.351 . S
C1786 C1780 1.428 . S
C1786 N1785 1.351 . S
C1786 C1787 1.434 . S
C1787 C1778 1.429 . S
C1787 N1784 1.350 . S
C1787 C1786 1.434 . S
C1788 C1789 1.369 1_565 S
C1788 C1790 1.437 . S
C1788 H1792 0.930 . S
C1789 C1788 1.369 1_545 S
C1789 C1798 1.429 . S
C1790 C1788 1.437 . S
C1790 C1791 1.354 1_665 S
C1790 H1793 0.918 1_655 S
C1791 C1790 1.354 1_445 S
C1791 C1797 1.428 . S
H1792 C1788 0.930 . S
H1793 C1790 0.918 1_455 S
S1794 N1795 1.613 1_455 S
S1794 N1796 1.610 . S
N1795 S1794 1.613 1_655 S
N1795 C1798 1.350 . S
N1796 S1794 1.610 . S
N1796 C1797 1.351 . S
C1797 C1791 1.428 . S
C1797 N1796 1.351 . S
C1797 C1798 1.434 1_455 S
C1798 C1789 1.429 . S
C1798 N1795 1.350 . S
C1798 C1797 1.434 1_655 S
C1799 C1800 1.369 . S
C1799 C1801 1.419 . S
C1799 H1803 0.930 . S
C1800 C1799 1.369 . S
C1800 C1809 1.429 . S
C1801 C1799 1.419 . S
C1801 C1802 1.363 . S
C1801 H1804 0.929 . S
C1802 C1801 1.363 . S
C1802 C1808 1.428 . S
H1803 C1799 0.930 . S
H1804 C1801 0.929 . S
S1805 N1806 1.613 . S
S1805 N1807 1.610 . S
N1806 S1805 1.613 . S
N1806 C1809 1.350 . S
N1807 S1805 1.610 . S
N1807 C1808 1.351 . S
C1808 C1802 1.428 . S
C1808 N1807 1.351 . S
C1808 C1809 1.434 . S
C1809 C1800 1.429 . S
C1809 N1806 1.350 . S
C1809 C1808 1.434 . S
C1810 C1811 1.369 . S
C1810 C1812 1.419 . S
C1810 H1814 0.930 . S
C1811 C1810 1.369 . S
C1811 C1820 1.429 . S
C1812 C1810 1.419 . S
C1812 C1813 1.363 . S
C1812 H1815 0.929 . S
C1813 C1812 1.363 . S
C1813 C1819 1.428 . S
H1814 C1810 0.930 . S
H1815 C1812 0.929 . S
S1816 N1817 1.613 . S
S1816 N1818 1.610 . S
N1817 S1816 1.613 . S
N1817 C1820 1.350 . S
N1818 S1816 1.610 . S
N1818 C1819 1.351 . S
C1819 C1813 1.428 . S
C1819 N1818 1.351 . S
C1819 C1820 1.434 . S
C1820 C1811 1.429 . S
C1820 N1817 1.350 . S
C1820 C1819 1.434 . S
C1821 C1822 1.369 . S
C1821 C1823 1.419 . S
C1821 H1825 0.930 . S
C1822 C1821 1.369 . S
C1822 C1831 1.429 . S
C1823 C1821 1.419 . S
C1823 C1824 1.363 . S
C1823 H1826 0.929 . S
C1824 C1823 1.363 . S
C1824 C1830 1.428 . S
H1825 C1821 0.930 . S
H1826 C1823 0.929 . S
S1827 N1828 1.613 . S
S1827 N1829 1.610 . S
N1828 S1827 1.613 . S
N1828 C1831 1.350 . S
N1829 S1827 1.610 . S
N1829 C1830 1.351 . S
C1830 C1824 1.428 . S
C1830 N1829 1.351 . S
C1830 C1831 1.434 . S
C1831 C1822 1.429 . S
C1831 N1828 1.350 . S
C1831 C1830 1.434 . S
C1832 C1833 1.369 1_545 S
C1832 C1834 1.419 . S
C1832 H1836 0.930 . S
C1833 C1832 1.369 1_565 S
C1833 C1842 1.429 . S
C1834 C1832 1.419 . S
C1834 C1835 1.363 . S
C1834 H1837 0.929 . S
C1835 C1834 1.363 . S
C1835 C1841 1.428 1_545 S
H1836 C1832 0.930 . S
H1837 C1834 0.929 . S
S1838 N1839 1.613 . S
S1838 N1840 1.610 . S
N1839 S1838 1.613 . S
N1839 C1842 1.350 . S
N1840 S1838 1.610 . S
N1840 C1841 1.351 . S
C1841 C1835 1.428 1_565 S
C1841 N1840 1.351 . S
C1841 C1842 1.434 . S
C1842 C1833 1.429 . S
C1842 N1839 1.350 . S
C1842 C1841 1.434 . S
C1843 C1844 1.369 . S
C1843 C1845 1.419 . S
C1843 H1847 0.930 . S
C1844 C1843 1.369 . S
C1844 C1853 1.429 1_554 S
C1845 C1843 1.419 . S
C1845 C1846 1.363 . S
C1845 H1848 0.929 . S
C1846 C1845 1.363 . S
C1846 C1852 1.428 1_554 S
H1847 C1843 0.930 . S
H1848 C1845 0.929 . S
S1849 N1850 1.613 . S
S1849 N1851 1.610 . S
N1850 S1849 1.613 . S
N1850 C1853 1.350 . S
N1851 S1849 1.610 . S
N1851 C1852 1.351 . S
C1852 C1846 1.428 1_556 S
C1852 N1851 1.351 . S
C1852 C1853 1.434 . S
C1853 C1844 1.429 1_556 S
C1853 N1850 1.350 . S
C1853 C1852 1.434 . S
C1854 C1855 1.369 . S
C1854 C1856 1.419 . S
C1854 H1858 0.930 . S
C1855 C1854 1.369 . S
C1855 C1864 1.429 . S
C1856 C1854 1.419 . S
C1856 C1857 1.363 . S
C1856 H1859 0.929 . S
C1857 C1856 1.363 . S
C1857 C1863 1.428 . S
H1858 C1854 0.930 . S
H1859 C1856 0.929 . S
S1860 N1861 1.613 . S
S1860 N1862 1.610 . S
N1861 S1860 1.613 . S
N1861 C1864 1.350 . S
N1862 S1860 1.610 . S
N1862 C1863 1.351 . S
C1863 C1857 1.428 . S
C1863 N1862 1.351 . S
C1863 C1864 1.434 . S
C1864 C1855 1.429 . S
C1864 N1861 1.350 . S
C1864 C1863 1.434 . S
C1865 C1866 1.369 . S
C1865 C1867 1.419 . S
C1865 H1869 0.930 . S
C1866 C1865 1.369 . S
C1866 C1875 1.429 . S
C1867 C1865 1.419 . S
C1867 C1868 1.363 . S
C1867 H1870 0.929 . S
C1868 C1867 1.363 . S
C1868 C1874 1.428 . S
H1869 C1865 0.930 . S
H1870 C1867 0.929 . S
S1871 N1872 1.613 . S
S1871 N1873 1.610 . S
N1872 S1871 1.613 . S
N1872 C1875 1.350 . S
N1873 S1871 1.610 . S
N1873 C1874 1.351 . S
C1874 C1868 1.428 . S
C1874 N1873 1.351 . S
C1874 C1875 1.434 . S
C1875 C1866 1.429 . S
C1875 N1872 1.350 . S
C1875 C1874 1.434 . S
C1876 C1877 1.369 . S
C1876 C1878 1.419 . S
C1876 H1880 0.930 . S
C1877 C1876 1.369 . S
C1877 C1886 1.429 . S
C1878 C1876 1.419 . S
C1878 C1879 1.363 . S
C1878 H1881 0.929 . S
C1879 C1878 1.363 . S
C1879 C1885 1.428 . S
H1880 C1876 0.930 . S
H1881 C1878 0.929 . S
S1882 N1883 1.613 . S
S1882 N1884 1.610 . S
N1883 S1882 1.613 . S
N1883 C1886 1.350 . S
N1884 S1882 1.610 . S
N1884 C1885 1.351 . S
C1885 C1879 1.428 . S
C1885 N1884 1.351 . S
C1885 C1886 1.434 . S
C1886 C1877 1.429 . S
C1886 N1883 1.350 . S
C1886 C1885 1.434 . S
C1887 C1888 1.369 . S
C1887 C1889 1.419 . S
C1887 H1891 0.930 . S
C1888 C1887 1.369 . S
C1888 C1897 1.429 . S
C1889 C1887 1.419 . S
C1889 C1890 1.363 . S
C1889 H1892 0.929 . S
C1890 C1889 1.363 . S
C1890 C1896 1.428 . S
H1891 C1887 0.930 . S
H1892 C1889 0.929 . S
S1893 N1894 1.613 . S
S1893 N1895 1.610 . S
N1894 S1893 1.613 . S
N1894 C1897 1.350 . S
N1895 S1893 1.610 . S
N1895 C1896 1.351 . S
C1896 C1890 1.428 . S
C1896 N1895 1.351 . S
C1896 C1897 1.434 . S
C1897 C1888 1.429 . S
C1897 N1894 1.350 . S
C1897 C1896 1.434 . S
C1898 C1899 1.369 . S
C1898 C1900 1.419 . S
C1898 H1902 0.930 . S
C1899 C1898 1.369 . S
C1899 C1908 1.429 . S
C1900 C1898 1.419 . S
C1900 C1901 1.363 . S
C1900 H1903 0.929 . S
C1901 C1900 1.363 . S
C1901 C1907 1.428 . S
H1902 C1898 0.930 . S
H1903 C1900 0.929 . S
S1904 N1905 1.613 . S
S1904 N1906 1.610 . S
N1905 S1904 1.613 . S
N1905 C1908 1.350 . S
N1906 S1904 1.610 . S
N1906 C1907 1.351 . S
C1907 C1901 1.428 . S
C1907 N1906 1.351 . S
C1907 C1908 1.434 . S
C1908 C1899 1.429 . S
C1908 N1905 1.350 . S
C1908 C1907 1.434 . S
C1909 C1910 1.369 . S
C1909 C1911 1.419 . S
C1909 H1913 0.930 . S
C1910 C1909 1.369 . S
C1910 C1919 1.429 . S
C1911 C1909 1.419 . S
C1911 C1912 1.363 . S
C1911 H1914 0.929 . S
C1912 C1911 1.363 . S
C1912 C1918 1.428 . S
H1913 C1909 0.930 . S
H1914 C1911 0.929 . S
S1915 N1916 1.613 . S
S1915 N1917 1.610 . S
N1916 S1915 1.613 . S
N1916 C1919 1.350 . S
N1917 S1915 1.610 . S
N1917 C1918 1.351 . S
C1918 C1912 1.428 . S
C1918 N1917 1.351 . S
C1918 C1919 1.434 . S
C1919 C1910 1.429 . S
C1919 N1916 1.350 . S
C1919 C1918 1.434 . S
C1920 C1921 1.369 . S
C1920 C1922 1.419 . S
C1920 H1924 0.930 . S
C1921 C1920 1.369 . S
C1921 C1930 1.429 . S
C1922 C1920 1.419 . S
C1922 C1923 1.363 . S
C1922 H1925 0.929 . S
C1923 C1922 1.363 . S
C1923 C1929 1.428 . S
H1924 C1920 0.930 . S
H1925 C1922 0.929 . S
S1926 N1927 1.613 . S
S1926 N1928 1.610 . S
N1927 S1926 1.613 . S
N1927 C1930 1.350 . S
N1928 S1926 1.610 . S
N1928 C1929 1.351 . S
C1929 C1923 1.428 . S
C1929 N1928 1.351 . S
C1929 C1930 1.434 . S
C1930 C1921 1.429 . S
C1930 N1927 1.350 . S
C1930 C1929 1.434 . S
C1931 C1932 1.369 . S
C1931 C1933 1.419 . S
C1931 H1935 0.930 . S
C1932 C1931 1.369 . S
C1932 C1941 1.429 . S
C1933 C1931 1.419 . S
C1933 C1934 1.363 . S
C1933 H1936 0.929 . S
C1934 C1933 1.363 . S
C1934 C1940 1.428 . S
H1935 C1931 0.930 . S
H1936 C1933 0.929 . S
S1937 N1938 1.613 . S
S1937 N1939 1.610 . S
N1938 S1937 1.613 . S
N1938 C1941 1.350 . S
N1939 S1937 1.610 . S
N1939 C1940 1.351 . S
C1940 C1934 1.428 . S
C1940 N1939 1.351 . S
C1940 C1941 1.434 . S
C1941 C1932 1.429 . S
C1941 N1938 1.350 . S
C1941 C1940 1.434 . S
C1942 C1943 1.369 . S
C1942 C1944 1.419 . S
C1942 H1946 0.930 . S
C1943 C1942 1.369 . S
C1943 C1952 1.429 . S
C1944 C1942 1.419 . S
C1944 C1945 1.363 . S
C1944 H1947 0.929 . S
C1945 C1944 1.363 . S
C1945 C1951 1.428 . S
H1946 C1942 0.930 . S
H1947 C1944 0.929 . S
S1948 N1949 1.613 . S
S1948 N1950 1.610 . S
N1949 S1948 1.613 . S
N1949 C1952 1.350 . S
N1950 S1948 1.610 . S
N1950 C1951 1.351 . S
C1951 C1945 1.428 . S
C1951 N1950 1.351 . S
C1951 C1952 1.434 . S
C1952 C1943 1.429 . S
C1952 N1949 1.350 . S
C1952 C1951 1.434 . S
C1953 C1954 1.369 . S
C1953 C1955 1.419 . S
C1953 H1957 0.930 . S
C1954 C1953 1.369 . S
C1954 C1963 1.429 . S
C1955 C1953 1.419 . S
C1955 C1956 1.363 . S
C1955 H1958 0.929 . S
C1956 C1955 1.363 . S
C1956 C1962 1.428 . S
H1957 C1953 0.930 . S
H1958 C1955 0.929 . S
S1959 N1960 1.613 . S
S1959 N1961 1.610 . S
N1960 S1959 1.613 . S
N1960 C1963 1.350 . S
N1961 S1959 1.610 . S
N1961 C1962 1.351 . S
C1962 C1956 1.428 . S
C1962 N1961 1.351 . S
C1962 C1963 1.434 . S
C1963 C1954 1.429 . S
C1963 N1960 1.350 . S
C1963 C1962 1.434 . S
C1964 C1965 1.369 . S
C1964 C1966 1.419 . S
C1964 H1968 0.930 . S
C1965 C1964 1.369 . S
C1965 C1974 1.429 . S
C1966 C1964 1.419 . S
C1966 C1967 1.363 . S
C1966 H1969 0.929 . S
C1967 C1966 1.363 . S
C1967 C1973 1.428 . S
H1968 C1964 0.930 . S
H1969 C1966 0.929 . S
S1970 N1971 1.613 1_655 S
S1970 N1972 1.603 1_655 S
N1971 S1970 1.613 1_455 S
N1971 C1974 1.350 . S
N1972 S1970 1.603 1_455 S
N1972 C1973 1.361 . S
C1973 C1967 1.428 . S
C1973 N1972 1.361 . S
C1973 C1974 1.434 . S
C1974 C1965 1.429 . S
C1974 N1971 1.350 . S
C1974 C1973 1.434 . S
C1975 C1976 1.369 . S
C1975 C1977 1.419 . S
C1975 H1979 0.930 . S
C1976 C1975 1.369 . S
C1976 C1985 1.429 . S
C1977 C1975 1.419 . S
C1977 C1978 1.363 . S
C1977 H1980 0.929 . S
C1978 C1977 1.363 . S
C1978 C1984 1.428 . S
H1979 C1975 0.930 . S
H1980 C1977 0.929 . S
S1981 N1982 1.613 . S
S1981 N1983 1.610 . S
N1982 S1981 1.613 . S
N1982 C1985 1.350 . S
N1983 S1981 1.610 . S
N1983 C1984 1.351 . S
C1984 C1978 1.428 . S
C1984 N1983 1.351 . S
C1984 C1985 1.434 . S
C1985 C1976 1.429 . S
C1985 N1982 1.350 . S
C1985 C1984 1.434 . S
C1986 C1987 1.369 . S
C1986 C1988 1.419 . S
C1986 H1990 0.930 . S
C1987 C1986 1.369 . S
C1987 C1996 1.429 . S
C1988 C1986 1.419 . S
C1988 C1989 1.363 . S
C1988 H1991 0.929 . S
C1989 C1988 1.363 . S
C1989 C1995 1.428 . S
H1990 C1986 0.930 . S
H1991 C1988 0.929 . S
S1992 N1993 1.613 . S
S1992 N1994 1.610 . S
N1993 S1992 1.613 . S
N1993 C1996 1.350 . S
N1994 S1992 1.610 . S
N1994 C1995 1.351 . S
C1995 C1989 1.428 . S
C1995 N1994 1.351 . S
C1995 C1996 1.434 . S
C1996 C1987 1.429 . S
C1996 N1993 1.350 . S
C1996 C1995 1.434 . S
C1997 C1998 1.369 . S
C1997 C1999 1.419 . S
C1997 H2001 0.930 . S
C1998 C1997 1.369 . S
C1998 C2007 1.429 . S
C1999 C1997 1.419 . S
C1999 C2000 1.363 . S
C1999 H2002 0.929 . S
C2000 C1999 1.363 . S
C2000 C2006 1.428 . S
H2001 C1997 0.930 . S
H2002 C1999 0.929 . S
S2003 N2004 1.613 . S
S2003 N2005 1.610 . S
N2004 S2003 1.613 . S
N2004 C2007 1.350 . S
N2005 S2003 1.610 . S
N2005 C2006 1.351 . S
C2006 C2000 1.428 . S
C2006 N2005 1.351 . S
C2006 C2007 1.434 . S
C2007 C1998 1.429 . S
C2007 N2004 1.350 . S
C2007 C2006 1.434 . S
C2008 C2009 1.369 . S
C2008 C2010 1.419 . S
C2008 H2012 0.930 . S
C2009 C2008 1.369 . S
C2009 C2018 1.429 . S
C2010 C2008 1.419 . S
C2010 C2011 1.363 . S
C2010 H2013 0.929 . S
C2011 C2010 1.363 . S
C2011 C2017 1.428 . S
H2012 C2008 0.930 . S
H2013 C2010 0.929 . S
S2014 N2015 1.613 . S
S2014 N2016 1.610 . S
N2015 S2014 1.613 . S
N2015 C2018 1.350 . S
N2016 S2014 1.610 . S
N2016 C2017 1.351 . S
C2017 C2011 1.428 . S
C2017 N2016 1.351 . S
C2017 C2018 1.434 . S
C2018 C2009 1.429 . S
C2018 N2015 1.350 . S
C2018 C2017 1.434 . S
C2019 C2020 1.369 . S
C2019 C2021 1.419 . S
C2019 H2023 0.930 . S
C2020 C2019 1.369 . S
C2020 C2029 1.429 . S
C2021 C2019 1.419 . S
C2021 C2022 1.363 . S
C2021 H2024 0.929 . S
C2022 C2021 1.363 . S
C2022 C2028 1.428 . S
H2023 C2019 0.930 . S
H2024 C2021 0.929 . S
S2025 N2026 1.613 . S
S2025 N2027 1.610 . S
N2026 S2025 1.613 . S
N2026 C2029 1.350 . S
N2027 S2025 1.610 . S
N2027 C2028 1.351 . S
C2028 C2022 1.428 . S
C2028 N2027 1.351 . S
C2028 C2029 1.434 . S
C2029 C2020 1.429 . S
C2029 N2026 1.350 . S
C2029 C2028 1.434 . S
C2030 C2031 1.369 . S
C2030 C2032 1.419 . S
C2030 H2034 0.930 1_545 S
C2031 C2030 1.369 . S
C2031 C2040 1.429 . S
C2032 C2030 1.419 . S
C2032 C2033 1.363 . S
C2032 H2035 0.929 . S
C2033 C2032 1.363 . S
C2033 C2039 1.428 . S
H2034 C2030 0.930 1_565 S
H2035 C2032 0.929 . S
S2036 N2037 1.613 . S
S2036 N2038 1.610 . S
N2037 S2036 1.613 . S
N2037 C2040 1.350 . S
N2038 S2036 1.610 . S
N2038 C2039 1.351 . S
C2039 C2033 1.428 . S
C2039 N2038 1.351 . S
C2039 C2040 1.434 . S
C2040 C2031 1.429 . S
C2040 N2037 1.350 . S
C2040 C2039 1.434 . S
C2041 C2042 1.369 . S
C2041 C2043 1.419 . S
C2041 H2045 0.930 . S
C2042 C2041 1.369 . S
C2042 C2051 1.429 . S
C2043 C2041 1.419 . S
C2043 C2044 1.363 . S
C2043 H2046 0.929 . S
C2044 C2043 1.363 . S
C2044 C2050 1.428 . S
H2045 C2041 0.930 . S
H2046 C2043 0.929 . S
S2047 N2048 1.613 . S
S2047 N2049 1.610 . S
N2048 S2047 1.613 . S
N2048 C2051 1.350 . S
N2049 S2047 1.610 . S
N2049 C2050 1.351 . S
C2050 C2044 1.428 . S
C2050 N2049 1.351 . S
C2050 C2051 1.434 . S
C2051 C2042 1.429 . S
C2051 N2048 1.350 . S
C2051 C2050 1.434 . S
C2052 C2053 1.369 . S
C2052 C2054 1.419 . S
C2052 H2056 0.930 . S
C2053 C2052 1.369 . S
C2053 C2062 1.429 . S
C2054 C2052 1.419 . S
C2054 C2055 1.363 . S
C2054 H2057 0.929 . S
C2055 C2054 1.363 . S
C2055 C2061 1.428 . S
H2056 C2052 0.930 . S
H2057 C2054 0.929 . S
S2058 N2059 1.613 . S
S2058 N2060 1.610 . S
N2059 S2058 1.613 . S
N2059 C2062 1.350 . S
N2060 S2058 1.610 . S
N2060 C2061 1.351 . S
C2061 C2055 1.428 . S
C2061 N2060 1.351 . S
C2061 C2062 1.434 . S
C2062 C2053 1.429 . S
C2062 N2059 1.350 . S
C2062 C2061 1.434 . S
C2063 C2064 1.369 . S
C2063 C2065 1.419 . S
C2063 H2067 0.930 . S
C2064 C2063 1.369 . S
C2064 C2073 1.429 . S
C2065 C2063 1.419 . S
C2065 C2066 1.363 . S
C2065 H2068 0.929 . S
C2066 C2065 1.363 . S
C2066 C2072 1.428 . S
H2067 C2063 0.930 . S
H2068 C2065 0.929 . S
S2069 N2070 1.613 . S
S2069 N2071 1.610 . S
N2070 S2069 1.613 . S
N2070 C2073 1.350 . S
N2071 S2069 1.610 . S
N2071 C2072 1.351 . S
C2072 C2066 1.428 . S
C2072 N2071 1.351 . S
C2072 C2073 1.434 . S
C2073 C2064 1.429 . S
C2073 N2070 1.350 . S
C2073 C2072 1.434 . S
C2074 C2075 1.369 . S
C2074 C2076 1.419 . S
C2074 H2078 0.930 1_545 S
C2075 C2074 1.369 . S
C2075 C2084 1.429 . S
C2076 C2074 1.419 . S
C2076 C2077 1.363 . S
C2076 H2079 0.929 . S
C2077 C2076 1.363 . S
C2077 C2083 1.428 . S
H2078 C2074 0.930 1_565 S
H2079 C2076 0.929 . S
S2080 N2081 1.613 . S
S2080 N2082 1.610 . S
N2081 S2080 1.613 . S
N2081 C2084 1.350 . S
N2082 S2080 1.610 . S
N2082 C2083 1.351 . S
C2083 C2077 1.428 . S
C2083 N2082 1.351 . S
C2083 C2084 1.434 . S
C2084 C2075 1.429 . S
C2084 N2081 1.350 . S
C2084 C2083 1.434 . S
C2085 C2086 1.369 . S
C2085 C2087 1.419 . S
C2085 H2089 0.930 . S
C2086 C2085 1.369 . S
C2086 C2095 1.429 . S
C2087 C2085 1.419 . S
C2087 C2088 1.363 . S
C2087 H2090 0.929 . S
C2088 C2087 1.363 . S
C2088 C2094 1.428 . S
H2089 C2085 0.930 . S
H2090 C2087 0.929 . S
S2091 N2092 1.613 . S
S2091 N2093 1.610 . S
N2092 S2091 1.613 . S
N2092 C2095 1.350 . S
N2093 S2091 1.610 . S
N2093 C2094 1.351 . S
C2094 C2088 1.428 . S
C2094 N2093 1.351 . S
C2094 C2095 1.434 . S
C2095 C2086 1.429 . S
C2095 N2092 1.350 . S
C2095 C2094 1.434 . S
C2096 C2097 1.369 . S
C2096 C2098 1.419 . S
C2096 H2100 0.930 . S
C2097 C2096 1.369 . S
C2097 C2106 1.429 . S
C2098 C2096 1.419 . S
C2098 C2099 1.363 . S
C2098 H2101 0.929 . S
C2099 C2098 1.363 . S
C2099 C2105 1.428 . S
H2100 C2096 0.930 . S
H2101 C2098 0.929 . S
S2102 N2103 1.613 . S
S2102 N2104 1.610 . S
N2103 S2102 1.613 . S
N2103 C2106 1.350 . S
N2104 S2102 1.610 . S
N2104 C2105 1.351 . S
C2105 C2099 1.428 . S
C2105 N2104 1.351 . S
C2105 C2106 1.434 . S
C2106 C2097 1.429 . S
C2106 N2103 1.350 . S
C2106 C2105 1.434 . S
C2107 C2108 1.369 . S
C2107 C2109 1.419 . S
C2107 H2111 0.930 . S
C2108 C2107 1.369 . S
C2108 C2117 1.429 . S
C2109 C2107 1.419 . S
C2109 C2110 1.363 . S
C2109 H2112 0.929 . S
C2110 C2109 1.363 . S
C2110 C2116 1.428 . S
H2111 C2107 0.930 . S
H2112 C2109 0.929 . S
S2113 N2114 1.613 . S
S2113 N2115 1.610 . S
N2114 S2113 1.613 . S
N2114 C2117 1.350 . S
N2115 S2113 1.610 . S
N2115 C2116 1.351 . S
C2116 C2110 1.428 . S
C2116 N2115 1.351 . S
C2116 C2117 1.434 . S
C2117 C2108 1.429 . S
C2117 N2114 1.350 . S
C2117 C2116 1.434 . S
C2118 C2119 1.369 . S
C2118 C2120 1.419 . S
C2118 H2122 0.930 . S
C2119 C2118 1.369 . S
C2119 C2128 1.429 . S
C2120 C2118 1.419 . S
C2120 C2121 1.363 . S
C2120 H2123 0.929 . S
C2121 C2120 1.363 . S
C2121 C2127 1.428 . S
H2122 C2118 0.930 . S
H2123 C2120 0.929 . S
S2124 N2125 1.613 . S
S2124 N2126 1.610 . S
N2125 S2124 1.613 . S
N2125 C2128 1.350 . S
N2126 S2124 1.610 . S
N2126 C2127 1.351 . S
C2127 C2121 1.428 . S
C2127 N2126 1.351 . S
C2127 C2128 1.434 . S
C2128 C2119 1.429 . S
C2128 N2125 1.350 . S
C2128 C2127 1.434 . S
C2129 C2130 1.369 . S
C2129 C2131 1.419 . S
C2129 H2133 0.930 . S
C2130 C2129 1.369 . S
C2130 C2139 1.429 . S
C2131 C2129 1.419 . S
C2131 C2132 1.363 . S
C2131 H2134 0.929 . S
C2132 C2131 1.363 . S
C2132 C2138 1.428 . S
H2133 C2129 0.930 . S
H2134 C2131 0.929 . S
S2135 N2136 1.613 . S
S2135 N2137 1.610 . S
N2136 S2135 1.613 . S
N2136 C2139 1.350 . S
N2137 S2135 1.610 . S
N2137 C2138 1.351 . S
C2138 C2132 1.428 . S
C2138 N2137 1.351 . S
C2138 C2139 1.434 . S
C2139 C2130 1.429 . S
C2139 N2136 1.350 . S
C2139 C2138 1.434 . S
C2140 C2141 1.369 1_565 S
C2140 C2142 1.419 . S
C2140 H2144 0.930 . S
C2141 C2140 1.369 1_545 S
C2141 C2150 1.429 . S
C2142 C2140 1.419 . S
C2142 C2143 1.363 . S
C2142 H2145 0.929 . S
C2143 C2142 1.363 . S
C2143 C2149 1.428 . S
H2144 C2140 0.930 . S
H2145 C2142 0.929 . S
S2146 N2147 1.613 . S
S2146 N2148 1.610 1_545 S
N2147 S2146 1.613 . S
N2147 C2150 1.350 . S
N2148 S2146 1.610 1_565 S
N2148 C2149 1.351 . S
C2149 C2143 1.428 . S
C2149 N2148 1.351 . S
C2149 C2150 1.434 1_565 S
C2150 C2141 1.429 . S
C2150 N2147 1.350 . S
C2150 C2149 1.434 1_545 S
C2151 C2152 1.369 . S
C2151 C2153 1.419 . S
C2151 H2155 0.930 . S
C2152 C2151 1.369 . S
C2152 C2161 1.429 . S
C2153 C2151 1.419 . S
C2153 C2154 1.363 . S
C2153 H2156 0.929 . S
C2154 C2153 1.363 . S
C2154 C2160 1.428 . S
H2155 C2151 0.930 . S
H2156 C2153 0.929 . S
S2157 N2158 1.613 . S
S2157 N2159 1.610 . S
N2158 S2157 1.613 . S
N2158 C2161 1.350 . S
N2159 S2157 1.610 . S
N2159 C2160 1.351 . S
C2160 C2154 1.428 . S
C2160 N2159 1.351 . S
C2160 C2161 1.434 . S
C2161 C2152 1.429 . S
C2161 N2158 1.350 . S
C2161 C2160 1.434 . S
C2162 C2163 1.369 . S
C2162 C2164 1.419 . S
C2162 H2166 0.930 . S
C2163 C2162 1.369 . S
C2163 C2172 1.429 . S
C2164 C2162 1.419 . S
C2164 C2165 1.363 . S
C2164 H2167 0.929 . S
C2165 C2164 1.363 . S
C2165 C2171 1.428 . S
H2166 C2162 0.930 . S
H2167 C2164 0.929 . S
S2168 N2169 1.613 . S
S2168 N2170 1.610 . S
N2169 S2168 1.613 . S
N2169 C2172 1.350 . S
N2170 S2168 1.610 . S
N2170 C2171 1.351 . S
C2171 C2165 1.428 . S
C2171 N2170 1.351 . S
C2171 C2172 1.434 . S
C2172 C2163 1.429 . S
C2172 N2169 1.350 . S
C2172 C2171 1.434 . S
C2173 C2174 1.369 . S
C2173 C2175 1.419 . S
C2173 H2177 0.930 . S
C2174 C2173 1.369 . S
C2174 C2183 1.429 . S
C2175 C2173 1.419 . S
C2175 C2176 1.363 . S
C2175 H2178 0.929 . S
C2176 C2175 1.363 . S
C2176 C2182 1.428 . S
H2177 C2173 0.930 . S
H2178 C2175 0.929 . S
S2179 N2180 1.613 . S
S2179 N2181 1.610 . S
N2180 S2179 1.613 . S
N2180 C2183 1.350 . S
N2181 S2179 1.610 . S
N2181 C2182 1.351 . S
C2182 C2176 1.428 . S
C2182 N2181 1.351 . S
C2182 C2183 1.434 . S
C2183 C2174 1.429 . S
C2183 N2180 1.350 . S
C2183 C2182 1.434 . S
C2184 C2185 1.369 . S
C2184 C2186 1.419 . S
C2184 H2188 0.930 . S
C2185 C2184 1.369 . S
C2185 C2194 1.429 . S
C2186 C2184 1.419 . S
C2186 C2187 1.363 . S
C2186 H2189 0.929 . S
C2187 C2186 1.363 . S
C2187 C2193 1.428 . S
H2188 C2184 0.930 . S
H2189 C2186 0.929 . S
S2190 N2191 1.613 . S
S2190 N2192 1.610 . S
N2191 S2190 1.613 . S
N2191 C2194 1.350 . S
N2192 S2190 1.610 . S
N2192 C2193 1.351 . S
C2193 C2187 1.428 . S
C2193 N2192 1.351 . S
C2193 C2194 1.434 . S
C2194 C2185 1.429 . S
C2194 N2191 1.350 . S
C2194 C2193 1.434 . S
C2195 C2196 1.369 . S
C2195 C2197 1.419 . S
C2195 H2199 0.930 . S
C2196 C2195 1.369 . S
C2196 C2205 1.429 . S
C2197 C2195 1.419 . S
C2197 C2198 1.363 . S
C2197 H2200 0.929 . S
C2198 C2197 1.363 . S
C2198 C2204 1.428 . S
H2199 C2195 0.930 . S
H2200 C2197 0.929 . S
S2201 N2202 1.613 . S
S2201 N2203 1.610 . S
N2202 S2201 1.613 . S
N2202 C2205 1.350 . S
N2203 S2201 1.610 . S
N2203 C2204 1.351 . S
C2204 C2198 1.428 . S
C2204 N2203 1.351 . S
C2204 C2205 1.434 . S
C2205 C2196 1.429 . S
C2205 N2202 1.350 . S
C2205 C2204 1.434 . S
C2206 C2207 1.369 . S
C2206 C2208 1.419 . S
C2206 H2210 0.930 1_554 S
C2207 C2206 1.369 . S
C2207 C2216 1.429 1_455 S
C2208 C2206 1.419 . S
C2208 C2209 1.363 . S
C2208 H2211 0.929 . S
C2209 C2208 1.363 . S
C2209 C2215 1.428 1_455 S
H2210 C2206 0.930 1_556 S
H2211 C2208 0.929 . S
S2212 N2213 1.613 . S
S2212 N2214 1.610 . S
N2213 S2212 1.613 . S
N2213 C2216 1.350 . S
N2214 S2212 1.610 . S
N2214 C2215 1.351 . S
C2215 C2209 1.428 1_655 S
C2215 N2214 1.351 . S
C2215 C2216 1.434 . S
C2216 C2207 1.429 1_655 S
C2216 N2213 1.350 . S
C2216 C2215 1.434 . S
C2217 C2218 1.388 . S
C2217 C2219 1.419 . S
C2217 H2221 0.930 . S
C2218 C2217 1.388 . S
C2218 C2227 1.423 1_655 S
C2219 C2217 1.419 . S
C2219 C2220 1.363 . S
C2219 H2222 0.929 . S
C2220 C2219 1.363 . S
C2220 C2226 1.428 . S
H2221 C2217 0.930 . S
H2222 C2219 0.929 . S
S2223 N2224 1.613 . S
S2223 N2225 1.610 . S
N2224 S2223 1.613 . S
N2224 C2227 1.350 . S
N2225 S2223 1.610 . S
N2225 C2226 1.351 1_455 S
C2226 C2220 1.428 . S
C2226 N2225 1.351 1_655 S
C2226 C2227 1.434 1_655 S
C2227 C2218 1.423 1_455 S
C2227 N2224 1.350 . S
C2227 C2226 1.434 1_455 S
C2228 C2229 1.369 . S
C2228 C2230 1.419 . S
C2228 H2232 0.930 . S
C2229 C2228 1.369 . S
C2229 C2238 1.429 . S
C2230 C2228 1.419 . S
C2230 C2231 1.363 . S
C2230 H2233 0.929 . S
C2231 C2230 1.363 . S
C2231 C2237 1.428 . S
H2232 C2228 0.930 . S
H2233 C2230 0.929 . S
S2234 N2235 1.613 . S
S2234 N2236 1.610 . S
N2235 S2234 1.613 . S
N2235 C2238 1.350 . S
N2236 S2234 1.610 . S
N2236 C2237 1.351 . S
C2237 C2231 1.428 . S
C2237 N2236 1.351 . S
C2237 C2238 1.434 . S
C2238 C2229 1.429 . S
C2238 N2235 1.350 . S
C2238 C2237 1.434 . S
C2239 C2240 1.369 . S
C2239 C2241 1.419 . S
C2239 H2243 0.930 . S
C2240 C2239 1.369 . S
C2240 C2249 1.429 . S
C2241 C2239 1.419 . S
C2241 C2242 1.363 . S
C2241 H2244 0.929 . S
C2242 C2241 1.363 . S
C2242 C2248 1.428 . S
H2243 C2239 0.930 . S
H2244 C2241 0.929 . S
S2245 N2246 1.613 . S
S2245 N2247 1.610 . S
N2246 S2245 1.613 . S
N2246 C2249 1.350 . S
N2247 S2245 1.610 . S
N2247 C2248 1.351 . S
C2248 C2242 1.428 . S
C2248 N2247 1.351 . S
C2248 C2249 1.434 . S
C2249 C2240 1.429 . S
C2249 N2246 1.350 . S
C2249 C2248 1.434 . S
C2250 C2251 1.369 . S
C2250 C2252 1.419 . S
C2250 H2254 0.930 . S
C2251 C2250 1.369 . S
C2251 C2260 1.429 . S
C2252 C2250 1.419 . S
C2252 C2253 1.363 . S
C2252 H2255 0.929 . S
C2253 C2252 1.363 . S
C2253 C2259 1.428 . S
H2254 C2250 0.930 . S
H2255 C2252 0.929 . S
S2256 N2257 1.613 . S
S2256 N2258 1.610 . S
N2257 S2256 1.613 . S
N2257 C2260 1.350 1_655 S
N2258 S2256 1.610 . S
N2258 C2259 1.351 1_655 S
C2259 C2253 1.428 . S
C2259 N2258 1.351 1_455 S
C2259 C2260 1.434 . S
C2260 C2251 1.429 . S
C2260 N2257 1.350 1_455 S
C2260 C2259 1.434 . S
C2261 C2262 1.369 . S
C2261 C2263 1.419 . S
C2261 H2265 0.930 . S
C2262 C2261 1.369 . S
C2262 C2271 1.429 . S
C2263 C2261 1.419 . S
C2263 C2264 1.363 . S
C2263 H2266 0.929 . S
C2264 C2263 1.363 . S
C2264 C2270 1.428 . S
H2265 C2261 0.930 . S
H2266 C2263 0.929 . S
S2267 N2268 1.613 . S
S2267 N2269 1.610 . S
N2268 S2267 1.613 . S
N2268 C2271 1.350 . S
N2269 S2267 1.610 . S
N2269 C2270 1.351 . S
C2270 C2264 1.428 . S
C2270 N2269 1.351 . S
C2270 C2271 1.434 . S
C2271 C2262 1.429 . S
C2271 N2268 1.350 . S
C2271 C2270 1.434 . S
C2272 C2273 1.369 . S
C2272 C2274 1.419 . S
C2272 H2276 0.930 . S
C2273 C2272 1.369 . S
C2273 C2282 1.429 . S
C2274 C2272 1.419 . S
C2274 C2275 1.363 . S
C2274 H2277 0.929 . S
C2275 C2274 1.363 . S
C2275 C2281 1.428 . S
H2276 C2272 0.930 . S
H2277 C2274 0.929 . S
S2278 N2279 1.613 . S
S2278 N2280 1.610 . S
N2279 S2278 1.613 . S
N2279 C2282 1.350 . S
N2280 S2278 1.610 . S
N2280 C2281 1.351 . S
C2281 C2275 1.428 . S
C2281 N2280 1.351 . S
C2281 C2282 1.434 . S
C2282 C2273 1.429 . S
C2282 N2279 1.350 . S
C2282 C2281 1.434 . S
C2283 C2284 1.369 1_556 S
C2283 C2285 1.419 . S
C2283 H2287 0.930 . S
C2284 C2283 1.369 1_554 S
C2284 C2293 1.429 . S
C2285 C2283 1.419 . S
C2285 C2286 1.363 . S
C2285 H2288 0.929 . S
C2286 C2285 1.363 . S
C2286 C2292 1.428 1_556 S
H2287 C2283 0.930 . S
H2288 C2285 0.929 . S
S2289 N2290 1.613 . S
S2289 N2291 1.610 . S
N2290 S2289 1.613 . S
N2290 C2293 1.350 . S
N2291 S2289 1.610 . S
N2291 C2292 1.351 . S
C2292 C2286 1.428 1_554 S
C2292 N2291 1.351 . S
C2292 C2293 1.434 . S
C2293 C2284 1.429 . S
C2293 N2290 1.350 . S
C2293 C2292 1.434 . S
C2294 C2295 1.369 . S
C2294 C2296 1.419 . S
C2294 H2298 0.930 . S
C2295 C2294 1.369 . S
C2295 C2304 1.429 . S
C2296 C2294 1.419 . S
C2296 C2297 1.363 . S
C2296 H2299 0.929 . S
C2297 C2296 1.363 . S
C2297 C2303 1.428 . S
H2298 C2294 0.930 . S
H2299 C2296 0.929 . S
S2300 N2301 1.613 . S
S2300 N2302 1.610 . S
N2301 S2300 1.613 . S
N2301 C2304 1.350 . S
N2302 S2300 1.610 . S
N2302 C2303 1.351 . S
C2303 C2297 1.428 . S
C2303 N2302 1.351 . S
C2303 C2304 1.434 . S
C2304 C2295 1.429 . S
C2304 N2301 1.350 . S
C2304 C2303 1.434 . S
C2305 C2306 1.369 . S
C2305 C2307 1.419 . S
C2305 H2309 0.930 . S
C2306 C2305 1.369 . S
C2306 C2315 1.429 . S
C2307 C2305 1.419 . S
C2307 C2308 1.363 . S
C2307 H2310 0.929 . S
C2308 C2307 1.363 . S
C2308 C2314 1.428 . S
H2309 C2305 0.930 . S
H2310 C2307 0.929 . S
S2311 N2312 1.613 . S
S2311 N2313 1.610 . S
N2312 S2311 1.613 . S
N2312 C2315 1.350 . S
N2313 S2311 1.610 . S
N2313 C2314 1.351 . S
C2314 C2308 1.428 . S
C2314 N2313 1.351 . S
C2314 C2315 1.434 . S
C2315 C2306 1.429 . S
C2315 N2312 1.350 . S
C2315 C2314 1.434 . S
C2316 C2317 1.369 . S
C2316 C2318 1.419 . S
C2316 H2320 0.930 . S
C2317 C2316 1.369 . S
C2317 C2326 1.429 . S
C2318 C2316 1.419 . S
C2318 C2319 1.363 . S
C2318 H2321 0.929 . S
C2319 C2318 1.363 . S
C2319 C2325 1.428 . S
H2320 C2316 0.930 . S
H2321 C2318 0.929 . S
S2322 N2323 1.613 . S
S2322 N2324 1.610 . S
N2323 S2322 1.613 . S
N2323 C2326 1.350 . S
N2324 S2322 1.610 . S
N2324 C2325 1.351 . S
C2325 C2319 1.428 . S
C2325 N2324 1.351 . S
C2325 C2326 1.434 . S
C2326 C2317 1.429 . S
C2326 N2323 1.350 . S
C2326 C2325 1.434 . S
C2327 C2328 1.369 . S
C2327 C2329 1.419 . S
C2327 H2331 0.930 . S
C2328 C2327 1.369 . S
C2328 C2337 1.429 . S
C2329 C2327 1.419 . S
C2329 C2330 1.363 . S
C2329 H2332 0.929 . S
C2330 C2329 1.363 . S
C2330 C2336 1.428 . S
H2331 C2327 0.930 . S
H2332 C2329 0.929 . S
S2333 N2334 1.613 . S
S2333 N2335 1.610 . S
N2334 S2333 1.613 . S
N2334 C2337 1.350 . S
N2335 S2333 1.610 . S
N2335 C2336 1.351 . S
C2336 C2330 1.428 . S
C2336 N2335 1.351 . S
C2336 C2337 1.434 . S
C2337 C2328 1.429 . S
C2337 N2334 1.350 . S
C2337 C2336 1.434 . S
C2338 C2339 1.369 . S
C2338 C2340 1.419 . S
C2338 H2342 0.930 . S
C2339 C2338 1.369 . S
C2339 C2348 1.429 . S
C2340 C2338 1.419 . S
C2340 C2341 1.363 . S
C2340 H2343 0.929 . S
C2341 C2340 1.363 . S
C2341 C2347 1.428 . S
H2342 C2338 0.930 . S
H2343 C2340 0.929 . S
S2344 N2345 1.613 . S
S2344 N2346 1.610 . S
N2345 S2344 1.613 . S
N2345 C2348 1.350 . S
N2346 S2344 1.610 . S
N2346 C2347 1.351 . S
C2347 C2341 1.428 . S
C2347 N2346 1.351 . S
C2347 C2348 1.434 . S
C2348 C2339 1.429 . S
C2348 N2345 1.350 . S
C2348 C2347 1.434 . S
C2349 C2350 1.369 . S
C2349 C2351 1.419 . S
C2349 H2353 0.930 . S
C2350 C2349 1.369 . S
C2350 C2359 1.429 . S
C2351 C2349 1.419 . S
C2351 C2352 1.363 . S
C2351 H2354 0.929 . S
C2352 C2351 1.363 . S
C2352 C2358 1.428 . S
H2353 C2349 0.930 . S
H2354 C2351 0.929 . S
S2355 N2356 1.613 . S
S2355 N2357 1.610 . S
N2356 S2355 1.613 . S
N2356 C2359 1.350 . S
N2357 S2355 1.610 . S
N2357 C2358 1.351 . S
C2358 C2352 1.428 . S
C2358 N2357 1.351 . S
C2358 C2359 1.434 . S
C2359 C2350 1.429 . S
C2359 N2356 1.350 . S
C2359 C2358 1.434 . S
C2360 C2361 1.369 . S
C2360 C2362 1.419 . S
C2360 H2364 0.930 . S
C2361 C2360 1.369 . S
C2361 C2370 1.429 . S
C2362 C2360 1.419 . S
C2362 C2363 1.363 . S
C2362 H2365 0.929 . S
C2363 C2362 1.363 . S
C2363 C2369 1.428 . S
H2364 C2360 0.930 . S
H2365 C2362 0.929 . S
S2366 N2367 1.613 . S
S2366 N2368 1.610 . S
N2367 S2366 1.613 . S
N2367 C2370 1.350 . S
N2368 S2366 1.610 . S
N2368 C2369 1.351 . S
C2369 C2363 1.428 . S
C2369 N2368 1.351 . S
C2369 C2370 1.434 . S
C2370 C2361 1.429 . S
C2370 N2367 1.350 . S
C2370 C2369 1.434 . S
C2371 C2372 1.369 . S
C2371 C2373 1.419 . S
C2371 H2375 0.930 . S
C2372 C2371 1.369 . S
C2372 C2381 1.429 . S
C2373 C2371 1.419 . S
C2373 C2374 1.363 . S
C2373 H2376 0.929 . S
C2374 C2373 1.363 . S
C2374 C2380 1.428 . S
H2375 C2371 0.930 . S
H2376 C2373 0.929 . S
S2377 N2378 1.613 . S
S2377 N2379 1.610 . S
N2378 S2377 1.613 . S
N2378 C2381 1.350 . S
N2379 S2377 1.610 . S
N2379 C2380 1.351 . S
C2380 C2374 1.428 . S
C2380 N2379 1.351 . S
C2380 C2381 1.434 . S
C2381 C2372 1.429 . S
C2381 N2378 1.350 . S
C2381 C2380 1.434 . S
C2382 C2383 1.369 1_545 S
C2382 C2384 1.419 1_545 S
C2382 H2386 0.930 . S
C2383 C2382 1.369 1_565 S
C2383 C2392 1.429 . S
C2384 C2382 1.419 1_565 S
C2384 C2385 1.363 . S
C2384 H2387 0.929 1_565 S
C2385 C2384 1.363 . S
C2385 C2391 1.428 . S
H2386 C2382 0.930 . S
H2387 C2384 0.929 1_545 S
S2388 N2389 1.613 . S
S2388 N2390 1.610 . S
N2389 S2388 1.613 . S
N2389 C2392 1.350 . S
N2390 S2388 1.610 . S
N2390 C2391 1.351 . S
C2391 C2385 1.428 . S
C2391 N2390 1.351 . S
C2391 C2392 1.434 . S
C2392 C2383 1.429 . S
C2392 N2389 1.350 . S
C2392 C2391 1.434 . S
C2393 C2394 1.377 . S
C2393 C2395 1.419 1_565 S
C2393 H2397 0.930 . S
C2394 C2393 1.377 . S
C2394 C2403 1.420 1_564 S
C2395 C2393 1.419 1_545 S
C2395 C2396 1.363 . S
C2395 H2398 0.930 . S
C2396 C2395 1.363 . S
C2396 C2402 1.428 1_554 S
H2397 C2393 0.930 . S
H2398 C2395 0.930 . S
S2399 N2400 1.613 . S
S2399 N2401 1.610 . S
N2400 S2399 1.613 . S
N2400 C2403 1.350 . S
N2401 S2399 1.610 . S
N2401 C2402 1.351 . S
C2402 C2396 1.428 1_556 S
C2402 N2401 1.351 . S
C2402 C2403 1.434 . S
C2403 C2394 1.420 1_546 S
C2403 N2400 1.350 . S
C2403 C2402 1.434 . S
C2404 C2405 1.369 . S
C2404 C2406 1.419 . S
C2404 H2408 0.930 . S
C2405 C2404 1.369 . S
C2405 C2414 1.429 . S
C2406 C2404 1.419 . S
C2406 C2407 1.363 . S
C2406 H2409 0.929 . S
C2407 C2406 1.363 . S
C2407 C2413 1.428 . S
H2408 C2404 0.930 . S
H2409 C2406 0.929 . S
S2410 N2411 1.613 . S
S2410 N2412 1.610 . S
N2411 S2410 1.613 . S
N2411 C2414 1.350 . S
N2412 S2410 1.610 . S
N2412 C2413 1.351 . S
C2413 C2407 1.428 . S
C2413 N2412 1.351 . S
C2413 C2414 1.434 . S
C2414 C2405 1.429 . S
C2414 N2411 1.350 . S
C2414 C2413 1.434 . S
C2415 C2416 1.369 . S
C2415 C2417 1.419 . S
C2415 H2419 0.930 . S
C2416 C2415 1.369 . S
C2416 C2425 1.429 . S
C2417 C2415 1.419 . S
C2417 C2418 1.363 . S
C2417 H2420 0.929 . S
C2418 C2417 1.363 . S
C2418 C2424 1.428 . S
H2419 C2415 0.930 . S
H2420 C2417 0.929 . S
S2421 N2422 1.613 . S
S2421 N2423 1.610 . S
N2422 S2421 1.613 . S
N2422 C2425 1.350 . S
N2423 S2421 1.610 . S
N2423 C2424 1.351 . S
C2424 C2418 1.428 . S
C2424 N2423 1.351 . S
C2424 C2425 1.434 . S
C2425 C2416 1.429 . S
C2425 N2422 1.350 . S
C2425 C2424 1.434 . S
C2426 C2427 1.369 . S
C2426 C2428 1.419 . S
C2426 H2430 0.930 . S
C2427 C2426 1.369 . S
C2427 C2436 1.429 . S
C2428 C2426 1.419 . S
C2428 C2429 1.363 . S
C2428 H2431 0.929 . S
C2429 C2428 1.363 . S
C2429 C2435 1.428 . S
H2430 C2426 0.930 . S
H2431 C2428 0.929 . S
S2432 N2433 1.613 . S
S2432 N2434 1.610 . S
N2433 S2432 1.613 . S
N2433 C2436 1.350 . S
N2434 S2432 1.610 . S
N2434 C2435 1.351 . S
C2435 C2429 1.428 . S
C2435 N2434 1.351 . S
C2435 C2436 1.434 . S
C2436 C2427 1.429 . S
C2436 N2433 1.350 . S
C2436 C2435 1.434 . S
C2437 C2438 1.369 . S
C2437 C2439 1.419 . S
C2437 H2441 0.930 . S
C2438 C2437 1.369 . S
C2438 C2447 1.429 . S
C2439 C2437 1.419 . S
C2439 C2440 1.363 . S
C2439 H2442 0.929 . S
C2440 C2439 1.363 . S
C2440 C2446 1.428 . S
H2441 C2437 0.930 . S
H2442 C2439 0.929 . S
S2443 N2444 1.613 . S
S2443 N2445 1.610 . S
N2444 S2443 1.613 . S
N2444 C2447 1.350 . S
N2445 S2443 1.610 . S
N2445 C2446 1.351 . S
C2446 C2440 1.428 . S
C2446 N2445 1.351 . S
C2446 C2447 1.434 . S
C2447 C2438 1.429 . S
C2447 N2444 1.350 . S
C2447 C2446 1.434 . S
C2448 C2449 1.369 . S
C2448 C2450 1.419 . S
C2448 H2452 0.930 . S
C2449 C2448 1.369 . S
C2449 C2458 1.429 . S
C2450 C2448 1.419 . S
C2450 C2451 1.363 . S
C2450 H2453 0.929 . S
C2451 C2450 1.363 . S
C2451 C2457 1.428 . S
H2452 C2448 0.930 . S
H2453 C2450 0.929 . S
S2454 N2455 1.613 . S
S2454 N2456 1.610 . S
N2455 S2454 1.613 . S
N2455 C2458 1.350 . S
N2456 S2454 1.610 . S
N2456 C2457 1.351 . S
C2457 C2451 1.428 . S
C2457 N2456 1.351 . S
C2457 C2458 1.434 . S
C2458 C2449 1.429 . S
C2458 N2455 1.350 . S
C2458 C2457 1.434 . S
C2459 C2460 1.369 . S
C2459 C2461 1.419 . S
C2459 H2463 0.930 . S
C2460 C2459 1.369 . S
C2460 C2469 1.429 . S
C2461 C2459 1.419 . S
C2461 C2462 1.363 . S
C2461 H2464 0.929 . S
C2462 C2461 1.363 . S
C2462 C2468 1.428 . S
H2463 C2459 0.930 . S
H2464 C2461 0.929 . S
S2465 N2466 1.613 . S
S2465 N2467 1.610 . S
N2466 S2465 1.613 . S
N2466 C2469 1.350 . S
N2467 S2465 1.610 . S
N2467 C2468 1.351 . S
C2468 C2462 1.428 . S
C2468 N2467 1.351 . S
C2468 C2469 1.434 . S
C2469 C2460 1.429 . S
C2469 N2466 1.350 . S
C2469 C2468 1.434 . S
C2470 C2471 1.369 . S
C2470 C2472 1.419 . S
C2470 H2474 0.930 . S
C2471 C2470 1.369 . S
C2471 C2480 1.429 . S
C2472 C2470 1.419 . S
C2472 C2473 1.363 . S
C2472 H2475 0.929 . S
C2473 C2472 1.363 . S
C2473 C2479 1.428 . S
H2474 C2470 0.930 . S
H2475 C2472 0.929 . S
S2476 N2477 1.613 . S
S2476 N2478 1.610 . S
N2477 S2476 1.613 . S
N2477 C2480 1.350 . S
N2478 S2476 1.610 . S
N2478 C2479 1.351 . S
C2479 C2473 1.428 . S
C2479 N2478 1.351 . S
C2479 C2480 1.434 . S
C2480 C2471 1.429 . S
C2480 N2477 1.350 . S
C2480 C2479 1.434 . S
C2481 C2482 1.369 . S
C2481 C2483 1.419 . S
C2481 H2485 0.930 . S
C2482 C2481 1.369 . S
C2482 C2491 1.429 . S
C2483 C2481 1.419 . S
C2483 C2484 1.363 . S
C2483 H2486 0.929 . S
C2484 C2483 1.363 . S
C2484 C2490 1.428 . S
H2485 C2481 0.930 . S
H2486 C2483 0.929 . S
S2487 N2488 1.613 . S
S2487 N2489 1.610 . S
N2488 S2487 1.613 . S
N2488 C2491 1.350 . S
N2489 S2487 1.610 . S
N2489 C2490 1.351 . S
C2490 C2484 1.428 . S
C2490 N2489 1.351 . S
C2490 C2491 1.434 . S
C2491 C2482 1.429 . S
C2491 N2488 1.350 . S
C2491 C2490 1.434 . S
C2492 C2493 1.369 . S
C2492 C2494 1.419 . S
C2492 H2496 0.930 . S
C2493 C2492 1.369 . S
C2493 C2502 1.429 . S
C2494 C2492 1.419 . S
C2494 C2495 1.363 . S
C2494 H2497 0.929 . S
C2495 C2494 1.363 . S
C2495 C2501 1.428 . S
H2496 C2492 0.930 . S
H2497 C2494 0.929 . S
S2498 N2499 1.613 . S
S2498 N2500 1.610 . S
N2499 S2498 1.613 . S
N2499 C2502 1.350 . S
N2500 S2498 1.610 . S
N2500 C2501 1.351 . S
C2501 C2495 1.428 . S
C2501 N2500 1.351 . S
C2501 C2502 1.434 . S
C2502 C2493 1.429 . S
C2502 N2499 1.350 . S
C2502 C2501 1.434 . S
C2503 C2504 1.369 . S
C2503 C2505 1.419 . S
C2503 H2507 0.930 . S
C2504 C2503 1.369 . S
C2504 C2513 1.429 . S
C2505 C2503 1.419 . S
C2505 C2506 1.363 . S
C2505 H2508 0.929 . S
C2506 C2505 1.363 . S
C2506 C2512 1.428 . S
H2507 C2503 0.930 . S
H2508 C2505 0.929 . S
S2509 N2510 1.613 . S
S2509 N2511 1.610 . S
N2510 S2509 1.613 . S
N2510 C2513 1.350 . S
N2511 S2509 1.610 . S
N2511 C2512 1.351 . S
C2512 C2506 1.428 . S
C2512 N2511 1.351 . S
C2512 C2513 1.434 . S
C2513 C2504 1.429 . S
C2513 N2510 1.350 . S
C2513 C2512 1.434 . S
C2514 C2515 1.369 . S
C2514 C2516 1.419 . S
C2514 H2518 0.930 . S
C2515 C2514 1.369 . S
C2515 C2524 1.429 . S
C2516 C2514 1.419 . S
C2516 C2517 1.363 . S
C2516 H2519 0.929 . S
C2517 C2516 1.363 . S
C2517 C2523 1.428 . S
H2518 C2514 0.930 . S
H2519 C2516 0.929 . S
S2520 N2521 1.613 . S
S2520 N2522 1.610 . S
N2521 S2520 1.613 . S
N2521 C2524 1.350 . S
N2522 S2520 1.610 . S
N2522 C2523 1.351 . S
C2523 C2517 1.428 . S
C2523 N2522 1.351 . S
C2523 C2524 1.434 . S
C2524 C2515 1.429 . S
C2524 N2521 1.350 . S
C2524 C2523 1.434 . S
C2525 C2526 1.369 . S
C2525 C2527 1.419 . S
C2525 H2529 0.930 . S
C2526 C2525 1.369 . S
C2526 C2535 1.429 . S
C2527 C2525 1.419 . S
C2527 C2528 1.363 . S
C2527 H2530 0.929 . S
C2528 C2527 1.363 . S
C2528 C2534 1.428 . S
H2529 C2525 0.930 . S
H2530 C2527 0.929 . S
S2531 N2532 1.613 . S
S2531 N2533 1.610 . S
N2532 S2531 1.613 . S
N2532 C2535 1.350 . S
N2533 S2531 1.610 . S
N2533 C2534 1.351 . S
C2534 C2528 1.428 . S
C2534 N2533 1.351 . S
C2534 C2535 1.434 . S
C2535 C2526 1.429 . S
C2535 N2532 1.350 . S
C2535 C2534 1.434 . S
C2536 C2537 1.369 . S
C2536 C2538 1.419 . S
C2536 H2540 0.930 . S
C2537 C2536 1.369 . S
C2537 C2546 1.429 . S
C2538 C2536 1.419 . S
C2538 C2539 1.363 . S
C2538 H2541 0.929 . S
C2539 C2538 1.363 . S
C2539 C2545 1.428 . S
H2540 C2536 0.930 . S
H2541 C2538 0.929 . S
S2542 N2543 1.613 . S
S2542 N2544 1.610 . S
N2543 S2542 1.613 . S
N2543 C2546 1.350 . S
N2544 S2542 1.610 . S
N2544 C2545 1.351 . S
C2545 C2539 1.428 . S
C2545 N2544 1.351 . S
C2545 C2546 1.434 . S
C2546 C2537 1.429 . S
C2546 N2543 1.350 . S
C2546 C2545 1.434 . S
C2547 C2548 1.369 . S
C2547 C2549 1.419 . S
C2547 H2551 0.930 . S
C2548 C2547 1.369 . S
C2548 C2557 1.429 . S
C2549 C2547 1.419 . S
C2549 C2550 1.363 . S
C2549 H2552 0.929 . S
C2550 C2549 1.363 . S
C2550 C2556 1.428 . S
H2551 C2547 0.930 . S
H2552 C2549 0.929 . S
S2553 N2554 1.613 . S
S2553 N2555 1.610 . S
N2554 S2553 1.613 . S
N2554 C2557 1.350 . S
N2555 S2553 1.610 . S
N2555 C2556 1.351 . S
C2556 C2550 1.428 . S
C2556 N2555 1.351 . S
C2556 C2557 1.434 . S
C2557 C2548 1.429 . S
C2557 N2554 1.350 . S
C2557 C2556 1.434 . S
C2558 C2559 1.369 . S
C2558 C2560 1.419 . S
C2558 H2562 0.930 . S
C2559 C2558 1.369 . S
C2559 C2568 1.429 . S
C2560 C2558 1.419 . S
C2560 C2561 1.363 . S
C2560 H2563 0.929 . S
C2561 C2560 1.363 . S
C2561 C2567 1.428 . S
H2562 C2558 0.930 . S
H2563 C2560 0.929 . S
S2564 N2565 1.613 . S
S2564 N2566 1.610 . S
N2565 S2564 1.613 . S
N2565 C2568 1.350 . S
N2566 S2564 1.610 . S
N2566 C2567 1.351 . S
C2567 C2561 1.428 . S
C2567 N2566 1.351 . S
C2567 C2568 1.434 . S
C2568 C2559 1.429 . S
C2568 N2565 1.350 . S
C2568 C2567 1.434 . S
C2569 C2570 1.369 . S
C2569 C2571 1.419 . S
C2569 H2573 0.930 . S
C2570 C2569 1.369 . S
C2570 C2579 1.429 . S
C2571 C2569 1.419 . S
C2571 C2572 1.363 . S
C2571 H2574 0.929 . S
C2572 C2571 1.363 . S
C2572 C2578 1.428 . S
H2573 C2569 0.930 . S
H2574 C2571 0.929 . S
S2575 N2576 1.613 . S
S2575 N2577 1.610 . S
N2576 S2575 1.613 . S
N2576 C2579 1.350 . S
N2577 S2575 1.610 . S
N2577 C2578 1.351 . S
C2578 C2572 1.428 . S
C2578 N2577 1.351 . S
C2578 C2579 1.434 . S
C2579 C2570 1.429 . S
C2579 N2576 1.350 . S
C2579 C2578 1.434 . S
C2580 C2581 1.369 . S
C2580 C2582 1.419 . S
C2580 H2584 0.930 . S
C2581 C2580 1.369 . S
C2581 C2590 1.429 . S
C2582 C2580 1.419 . S
C2582 C2583 1.363 . S
C2582 H2585 0.929 . S
C2583 C2582 1.363 . S
C2583 C2589 1.428 . S
H2584 C2580 0.930 . S
H2585 C2582 0.929 . S
S2586 N2587 1.613 . S
S2586 N2588 1.610 . S
N2587 S2586 1.613 . S
N2587 C2590 1.350 . S
N2588 S2586 1.610 . S
N2588 C2589 1.351 . S
C2589 C2583 1.428 . S
C2589 N2588 1.351 . S
C2589 C2590 1.434 . S
C2590 C2581 1.429 . S
C2590 N2587 1.350 . S
C2590 C2589 1.434 . S
C2591 C2592 1.369 . S
C2591 C2593 1.419 . S
C2591 H2595 0.930 . S
C2592 C2591 1.369 . S
C2592 C2601 1.429 . S
C2593 C2591 1.419 . S
C2593 C2594 1.363 . S
C2593 H2596 0.929 . S
C2594 C2593 1.363 . S
C2594 C2600 1.428 . S
H2595 C2591 0.930 . S
H2596 C2593 0.929 . S
S2597 N2598 1.613 . S
S2597 N2599 1.610 . S
N2598 S2597 1.613 . S
N2598 C2601 1.350 . S
N2599 S2597 1.610 . S
N2599 C2600 1.351 . S
C2600 C2594 1.428 . S
C2600 N2599 1.351 . S
C2600 C2601 1.434 . S
C2601 C2592 1.429 . S
C2601 N2598 1.350 . S
C2601 C2600 1.434 . S
C2602 C2603 1.369 . S
C2602 C2604 1.419 . S
C2602 H2606 0.930 . S
C2603 C2602 1.369 . S
C2603 C2612 1.429 . S
C2604 C2602 1.419 . S
C2604 C2605 1.363 . S
C2604 H2607 0.929 . S
C2605 C2604 1.363 . S
C2605 C2611 1.428 . S
H2606 C2602 0.930 . S
H2607 C2604 0.929 . S
S2608 N2609 1.613 . S
S2608 N2610 1.610 . S
N2609 S2608 1.613 . S
N2609 C2612 1.350 . S
N2610 S2608 1.610 . S
N2610 C2611 1.351 . S
C2611 C2605 1.428 . S
C2611 N2610 1.351 . S
C2611 C2612 1.434 . S
C2612 C2603 1.429 . S
C2612 N2609 1.350 . S
C2612 C2611 1.434 . S
C2613 C2614 1.369 . S
C2613 C2615 1.419 . S
C2613 H2617 0.930 . S
C2614 C2613 1.369 . S
C2614 C2623 1.429 . S
C2615 C2613 1.419 . S
C2615 C2616 1.363 . S
C2615 H2618 0.929 . S
C2616 C2615 1.363 . S
C2616 C2622 1.428 . S
H2617 C2613 0.930 . S
H2618 C2615 0.929 . S
S2619 N2620 1.613 . S
S2619 N2621 1.610 . S
N2620 S2619 1.613 . S
N2620 C2623 1.350 . S
N2621 S2619 1.610 . S
N2621 C2622 1.351 . S
C2622 C2616 1.428 . S
C2622 N2621 1.351 . S
C2622 C2623 1.434 . S
C2623 C2614 1.429 . S
C2623 N2620 1.350 . S
C2623 C2622 1.434 . S
C2624 C2625 1.369 . S
C2624 C2626 1.419 . S
C2624 H2628 0.930 . S
C2625 C2624 1.369 . S
C2625 C2634 1.429 . S
C2626 C2624 1.419 . S
C2626 C2627 1.363 . S
C2626 H2629 0.929 . S
C2627 C2626 1.363 . S
C2627 C2633 1.428 . S
H2628 C2624 0.930 . S
H2629 C2626 0.929 . S
S2630 N2631 1.613 . S
S2630 N2632 1.610 . S
N2631 S2630 1.613 . S
N2631 C2634 1.350 . S
N2632 S2630 1.610 . S
N2632 C2633 1.351 . S
C2633 C2627 1.428 . S
C2633 N2632 1.351 . S
C2633 C2634 1.434 . S
C2634 C2625 1.429 . S
C2634 N2631 1.350 . S
C2634 C2633 1.434 . S
C2635 C2636 1.369 . S
C2635 C2637 1.419 . S
C2635 H2639 0.930 . S
C2636 C2635 1.369 . S
C2636 C2645 1.429 . S
C2637 C2635 1.419 . S
C2637 C2638 1.363 . S
C2637 H2640 0.929 . S
C2638 C2637 1.363 . S
C2638 C2644 1.428 . S
H2639 C2635 0.930 . S
H2640 C2637 0.929 . S
S2641 N2642 1.613 . S
S2641 N2643 1.610 . S
N2642 S2641 1.613 . S
N2642 C2645 1.350 . S
N2643 S2641 1.610 . S
N2643 C2644 1.351 . S
C2644 C2638 1.428 . S
C2644 N2643 1.351 . S
C2644 C2645 1.434 . S
C2645 C2636 1.429 . S
C2645 N2642 1.350 . S
C2645 C2644 1.434 . S
C2646 C2647 1.369 . S
C2646 C2648 1.419 . S
C2646 H2650 0.930 . S
C2647 C2646 1.369 . S
C2647 C2656 1.429 . S
C2648 C2646 1.419 . S
C2648 C2649 1.363 . S
C2648 H2651 0.929 . S
C2649 C2648 1.363 . S
C2649 C2655 1.428 . S
H2650 C2646 0.930 . S
H2651 C2648 0.929 . S
S2652 N2653 1.613 . S
S2652 N2654 1.610 . S
N2653 S2652 1.613 . S
N2653 C2656 1.350 . S
N2654 S2652 1.610 . S
N2654 C2655 1.351 . S
C2655 C2649 1.428 . S
C2655 N2654 1.351 . S
C2655 C2656 1.434 . S
C2656 C2647 1.429 . S
C2656 N2653 1.350 . S
C2656 C2655 1.434 . S
C2657 C2658 1.369 . S
C2657 C2659 1.419 . S
C2657 H2661 0.930 . S
C2658 C2657 1.369 . S
C2658 C2667 1.429 . S
C2659 C2657 1.419 . S
C2659 C2660 1.363 . S
C2659 H2662 0.929 . S
C2660 C2659 1.363 . S
C2660 C2666 1.428 . S
H2661 C2657 0.930 . S
H2662 C2659 0.929 . S
S2663 N2664 1.613 1_556 S
S2663 N2665 1.610 . S
N2664 S2663 1.613 1_554 S
N2664 C2667 1.350 . S
N2665 S2663 1.610 . S
N2665 C2666 1.351 1_556 S
C2666 C2660 1.428 . S
C2666 N2665 1.351 1_554 S
C2666 C2667 1.434 . S
C2667 C2658 1.429 . S
C2667 N2664 1.350 . S
C2667 C2666 1.434 . S
C2668 C2669 1.369 . S
C2668 C2670 1.419 . S
C2668 H2672 0.930 . S
C2669 C2668 1.369 . S
C2669 C2678 1.429 . S
C2670 C2668 1.419 . S
C2670 C2671 1.363 . S
C2670 H2673 0.929 . S
C2671 C2670 1.363 . S
C2671 C2677 1.428 . S
H2672 C2668 0.930 . S
H2673 C2670 0.929 . S
S2674 N2675 1.613 . S
S2674 N2676 1.610 . S
N2675 S2674 1.613 . S
N2675 C2678 1.350 . S
N2676 S2674 1.610 . S
N2676 C2677 1.351 . S
C2677 C2671 1.428 . S
C2677 N2676 1.351 . S
C2677 C2678 1.434 . S
C2678 C2669 1.429 . S
C2678 N2675 1.350 . S
C2678 C2677 1.434 . S
C2679 C2680 1.369 . S
C2679 C2681 1.419 . S
C2679 H2683 0.930 . S
C2680 C2679 1.369 . S
C2680 C2689 1.429 . S
C2681 C2679 1.419 . S
C2681 C2682 1.363 . S
C2681 H2684 0.929 . S
C2682 C2681 1.363 . S
C2682 C2688 1.428 . S
H2683 C2679 0.930 . S
H2684 C2681 0.929 . S
S2685 N2686 1.613 . S
S2685 N2687 1.610 . S
N2686 S2685 1.613 . S
N2686 C2689 1.350 . S
N2687 S2685 1.610 . S
N2687 C2688 1.351 . S
C2688 C2682 1.428 . S
C2688 N2687 1.351 . S
C2688 C2689 1.434 . S
C2689 C2680 1.429 . S
C2689 N2686 1.350 . S
C2689 C2688 1.434 . S
C2690 C2691 1.369 . S
C2690 C2692 1.419 . S
C2690 H2694 0.930 . S
C2691 C2690 1.369 . S
C2691 C2700 1.429 . S
C2692 C2690 1.419 . S
C2692 C2693 1.363 . S
C2692 H2695 0.929 . S
C2693 C2692 1.363 . S
C2693 C2699 1.428 . S
H2694 C2690 0.930 . S
H2695 C2692 0.929 . S
S2696 N2697 1.613 . S
S2696 N2698 1.610 . S
N2697 S2696 1.613 . S
N2697 C2700 1.350 . S
N2698 S2696 1.610 . S
N2698 C2699 1.351 . S
C2699 C2693 1.428 . S
C2699 N2698 1.351 . S
C2699 C2700 1.434 . S
C2700 C2691 1.429 . S
C2700 N2697 1.350 . S
C2700 C2699 1.434 . S
C2701 C2702 1.369 . S
C2701 C2703 1.419 . S
C2701 H2705 0.930 . S
C2702 C2701 1.369 . S
C2702 C2711 1.429 . S
C2703 C2701 1.419 . S
C2703 C2704 1.363 . S
C2703 H2706 0.929 . S
C2704 C2703 1.363 . S
C2704 C2710 1.428 . S
H2705 C2701 0.930 . S
H2706 C2703 0.929 . S
S2707 N2708 1.613 . S
S2707 N2709 1.610 . S
N2708 S2707 1.613 . S
N2708 C2711 1.350 . S
N2709 S2707 1.610 . S
N2709 C2710 1.351 . S
C2710 C2704 1.428 . S
C2710 N2709 1.351 . S
C2710 C2711 1.434 . S
C2711 C2702 1.429 . S
C2711 N2708 1.350 . S
C2711 C2710 1.434 . S
C1657 C101 2.210 1_554 S
C1659 C379 2.211 . S
C1668 C57 1.874 . S
C1670 C452 1.953 . S
C1679 C70 1.814 . S
C1681 C547 1.812 . S
C1692 C622 1.387 . S
C1690 C82 1.440 . S
C1701 C23 1.435 . S
C1703 C706 1.392 . S
C1714 C799 1.813 . S
C1712 C29 1.814 . S
C1725 C872 1.943 . S
C1723 C49 1.869 . S
C1734 C10 2.209 . S
C1736 C967 2.212 . S
C1747 C368 1.789 . S
C1745 C218 1.831 . S
C1756 C226 1.039 . S
C1758 C454 1.018 . S
C1769 C536 1.347 . S
C1767 C251 1.293 . S
C1780 C631 1.596 . S
C1778 C159 1.599 . S
C1789 C211 1.599 . S
C1791 C715 1.595 . S
C1802 C788 1.348 . S
C1800 C225 1.290 . S
C1813 C874 1.009 . S
C1811 C252 1.033 . S
C1824 C956 1.791 . S
C1822 C166 1.828 . S
C1835 C370 1.316 . S
C1833 C147 1.280 . S
C1844 C263 1.667 . S
C1846 C1040 1.714 . S
C1857 C1126 1.501 . S
C1855 C309 1.504 . S
C1868 C1219 0.816 . S
C1866 C291 0.823 . S
C1877 C108 1.279 . S
C1879 C958 1.317 . S
C1888 C121 1.508 . S
C1890 C538 1.500 . S
C1899 C302 1.666 . S
C1901 C1292 1.713 . S
C1912 C1387 0.817 . S
C1910 C276 0.823 . S
C1923 C367 2.374 . S
C1921 C55 2.343 . S
C1934 C1388 2.133 . S
C1932 C96 2.112 . S
C1943 C88 2.071 . S
C1945 C535 2.083 . S
C1954 C75 1.547 . S
C1956 C1306 1.454 . S
C1967 C718 1.454 . S
C1965 C4 1.548 . S
C1976 C44 2.071 . S
C1978 C1123 2.092 . S
C1989 C884 2.133 1_565 S
C1987 C31 2.113 . S
C2000 C1459 2.376 . S
C1998 C18 2.341 . S
C2011 C380 1.994 . S
C2009 C133 2.035 . S
C2022 C1390 1.036 . S
C2020 C296 1.127 . S
C2031 C107 1.410 . S
C2033 C548 1.418 . S
C2042 C264 1.828 . S
C2044 C1291 1.824 . S
C2053 C140 1.827 . S
C2055 C703 1.826 . S
C2066 C1136 1.419 . S
C2064 C289 1.416 . S
C2075 C114 1.125 . S
C2077 C886 1.048 . S
C2086 C265 2.036 . S
C2088 C1472 1.993 . S
C2097 C179 1.224 . S
C2099 C382 1.228 . S
C2108 C161 1.833 . S
C2110 C1052 1.833 . S
C2119 C244 1.494 . S
C2121 C802 1.435 . S
C2130 C224 1.066 . S
C2132 C1207 1.063 . S
C2143 C1474 1.227 . S
C2141 C257 1.223 . S
C2152 C199 1.492 . S
C2154 C550 1.429 . S
C2165 C632 1.835 . S
C2163 C237 1.835 . S
C2176 C451 1.065 . S
C2174 C185 1.061 . S
C2185 C69 2.210 . S
C2187 C1555 2.212 . S
C2198 C1376 1.951 . S
C2196 C83 1.878 . S
C2207 C94 1.816 1_554 S
C2209 C1639 1.814 . S
C2218 C56 1.416 1_655 S
C2220 C1294 1.386 . S
C2229 C42 1.450 . S
C2231 C1042 1.393 . S
C2242 C1135 1.814 . S
C2240 C3 1.816 . S
C2253 C1208 1.952 . S
C2251 C16 1.881 . S
C2264 C1471 2.211 . S
C2262 C36 2.211 . S
C2275 C1544 1.790 . S
C2273 C238 1.831 . S
C2284 C174 1.032 . S
C2286 C1378 1.010 . S
C2297 C1628 1.342 . S
C2295 C186 1.290 . S
C2308 C1303 1.596 . S
C2306 C198 1.598 . S
C2319 C1051 1.597 . S
C2317 C239 1.600 . S
C2328 C173 1.286 . S
C2330 C1124 1.348 . S
C2341 C1210 1.010 . S
C2339 C187 1.034 . S
C2350 C205 1.827 . S
C2352 C1460 1.790 . S
C2363 C1546 1.314 . S
C2361 C290 1.268 . S
C2372 C122 1.666 . S
C2374 C704 1.713 . S
C2385 C790 1.497 . S
C2383 C134 1.511 1_565 S
C2396 C883 0.820 . S
C2394 C148 0.822 . S
C2407 C1462 1.318 . S
C2405 C283 1.275 . S
C2416 C270 1.500 . S
C2418 C1630 1.494 . S
C2429 C620 1.715 . S
C2427 C135 1.664 . S
C2440 C463 0.814 . S
C2438 C109 0.819 . S
C2449 C81 2.339 . S
C2451 C1543 2.375 . S
C2462 C464 2.132 . S
C2460 C68 2.111 . S
C2471 C62 2.070 . S
C2473 C1627 2.084 . S
C2482 C95 1.546 . S
C2484 C634 1.461 . S
C2493 C30 1.546 . S
C2495 C1054 1.459 . S
C2506 C787 2.084 . S
C2504 C17 2.067 . S
C2515 C5 2.113 . S
C2517 C1220 2.134 . S
C2526 C43 2.343 . S
C2528 C955 2.367 . S
C2539 C1556 1.993 . S
C2537 C304 2.035 . S
C2548 C153 1.127 . S
C2550 C466 1.035 . S
C2561 C1640 1.437 1_655 S
C2559 C278 1.412 . S
C2570 C127 1.827 . S
C2572 C619 1.824 . S
C2581 C303 1.825 . S
C2583 C1039 1.822 . S
C2594 C800 1.420 . S
C2592 C146 1.413 . S
C2603 C277 1.124 . S
C2605 C1222 1.047 . S
C2616 C968 1.993 . S
C2614 C120 2.034 . S
C2627 C1558 1.228 . S
C2625 C231 1.225 . S
C2638 C716 1.833 1_565 S
C2636 C200 1.833 . S
C2647 C212 1.493 . S
C2649 C1138 1.429 . S
C2660 C871 1.063 . S
C2658 C172 1.062 . S
C2669 C192 1.222 . S
C2671 C970 1.226 . S
C2680 C160 1.489 . S
C2682 C1642 1.433 . S
C2693 C1304 1.835 . S
C2691 C213 1.836 . S
C2704 C1375 1.064 . S
C2702 C250 1.065 . S
