# Generated by pormake.
# Topology hwx, (6,3)-cn, num edge types: 1
# Building blocks:
#     Node 0, Type 0, BuildingBlock: OJICUG_clean_sbu_0, # of connection points: 6
#     Node 1, Type 0, BuildingBlock: OJICUG_clean_sbu_0, # of connection points: 6
#     Node 2, Type 0, BuildingBlock: OJICUG_clean_sbu_0, # of connection points: 6
#     Node 3, Type 0, BuildingBlock: OJICUG_clean_sbu_0, # of connection points: 6
#     Node 4, Type 1, BuildingBlock: OLANEW_clean_sbu_2, # of connection points: 3
#     Node 5, Type 1, BuildingBlock: OLANEW_clean_sbu_2, # of connection points: 3
#     Node 6, Type 1, BuildingBlock: OLANEW_clean_sbu_2, # of connection points: 3
#     Node 7, Type 1, BuildingBlock: OLANEW_clean_sbu_2, # of connection points: 3
#     Node 8, Type 1, BuildingBlock: OLANEW_clean_sbu_2, # of connection points: 3
#     Node 9, Type 1, BuildingBlock: OLANEW_clean_sbu_2, # of connection points: 3
#     Node 10, Type 1, BuildingBlock: OLANEW_clean_sbu_2, # of connection points: 3
#     Node 11, Type 1, BuildingBlock: OLANEW_clean_sbu_2, # of connection points: 3
#     Edge 12, Type (0, 1), BuildingBlock: EZIPEK_clean_linker_0, # of connection points: 2
#     Edge 13, Type (0, 1), BuildingBlock: EZIPEK_clean_linker_0, # of connection points: 2
#     Edge 14, Type (0, 1), BuildingBlock: EZIPEK_clean_linker_0, # of connection points: 2
#     Edge 15, Type (0, 1), BuildingBlock: EZIPEK_clean_linker_0, # of connection points: 2
#     Edge 16, Type (0, 1), BuildingBlock: EZIPEK_clean_linker_0, # of connection points: 2
#     Edge 17, Type (0, 1), BuildingBlock: EZIPEK_clean_linker_0, # of connection points: 2
#     Edge 18, Type (0, 1), BuildingBlock: EZIPEK_clean_linker_0, # of connection points: 2
#     Edge 19, Type (0, 1), BuildingBlock: EZIPEK_clean_linker_0, # of connection points: 2
#     Edge 20, Type (0, 1), BuildingBlock: EZIPEK_clean_linker_0, # of connection points: 2
#     Edge 21, Type (0, 1), BuildingBlock: EZIPEK_clean_linker_0, # of connection points: 2
#     Edge 22, Type (0, 1), BuildingBlock: EZIPEK_clean_linker_0, # of connection points: 2
#     Edge 23, Type (0, 1), BuildingBlock: EZIPEK_clean_linker_0, # of connection points: 2
#     Edge 24, Type (0, 1), BuildingBlock: EZIPEK_clean_linker_0, # of connection points: 2
#     Edge 25, Type (0, 1), BuildingBlock: EZIPEK_clean_linker_0, # of connection points: 2
#     Edge 26, Type (0, 1), BuildingBlock: EZIPEK_clean_linker_0, # of connection points: 2
#     Edge 27, Type (0, 1), BuildingBlock: EZIPEK_clean_linker_0, # of connection points: 2
#     Edge 28, Type (0, 1), BuildingBlock: EZIPEK_clean_linker_0, # of connection points: 2
#     Edge 29, Type (0, 1), BuildingBlock: EZIPEK_clean_linker_0, # of connection points: 2
#     Edge 30, Type (0, 1), BuildingBlock: EZIPEK_clean_linker_0, # of connection points: 2
#     Edge 31, Type (0, 1), BuildingBlock: EZIPEK_clean_linker_0, # of connection points: 2
#     Edge 32, Type (0, 1), BuildingBlock: EZIPEK_clean_linker_0, # of connection points: 2
#     Edge 33, Type (0, 1), BuildingBlock: EZIPEK_clean_linker_0, # of connection points: 2
#     Edge 34, Type (0, 1), BuildingBlock: EZIPEK_clean_linker_0, # of connection points: 2
#     Edge 35, Type (0, 1), BuildingBlock: EZIPEK_clean_linker_0, # of connection points: 2
# Relax obj value: 0.021
# Max RMSD: 0.061
# Mean RMSD: 0.059
data_MOF--net-hwx--node1-OJICUG_clean_sbu_0--node2-OLANEW_clean_sbu_2--edge1-EZIPEK_clean_linker_0
_symmetry_space_group_name_H-M    P1
_symmetry_Int_Tables_number       1
_symmetry_cell_setting            triclinic
loop_
_symmetry_equiv_pos_as_xyz
'x, y, z'
_cell_length_a     42.049514
_cell_length_b     42.027932
_cell_length_c     16.24387
_cell_angle_alpha  84.691425
_cell_angle_beta   95.346178
_cell_angle_gamma 90.011349
loop_
_atom_site_label
_atom_site_type_symbol
_atom_site_fract_x
_atom_site_fract_y
_atom_site_fract_z
_atom_type_partial_charge
Sc0 Sc 0.23068 0.22908 0.09986 0.0
Sc1 Sc 0.18272 0.1764 0.98609 0.0
Sc2 Sc 0.23434 0.23031 0.88413 0.0
O3 O 0.21596 0.21185 0.99005 0.0
C4 C 0.22641 0.29309 0.97558 0.0
C5 C 0.1558 0.22086 0.11241 0.0
C6 C 0.16049 0.22175 0.82333 0.0
C7 C 0.22465 0.15407 0.15456 0.0
C8 C 0.29593 0.2264 0.01604 0.0
C9 C 0.23169 0.15586 0.86065 0.0
O10 O 0.22838 0.27851 0.04813 0.0
O11 O 0.1523 0.19899 0.06345 0.0
O12 O 0.18789 0.23369 0.81458 0.0
O13 O 0.23518 0.18191 0.1654 0.0
O14 O 0.28291 0.22971 0.9418 0.0
O15 O 0.20941 0.14973 0.90744 0.0
O16 O 0.28016 0.22524 0.07925 0.0
O17 O 0.20591 0.14809 0.09203 0.0
O18 O 0.24328 0.18355 0.84666 0.0
O19 O 0.18229 0.23434 0.13036 0.0
O20 O 0.2274 0.27887 0.91022 0.0
O21 O 0.15495 0.20104 0.88199 0.0
Sc22 Sc 0.27985 0.74357 0.43596 0.0
Sc23 Sc 0.33448 0.6946 0.56882 0.0
Sc24 Sc 0.27227 0.73414 0.65093 0.0
O25 O 0.29559 0.72423 0.55197 0.0
C26 C 0.26855 0.80165 0.54449 0.0
C27 C 0.35458 0.74821 0.42969 0.0
C28 C 0.34615 0.73705 0.72029 0.0
C29 C 0.29929 0.67208 0.40416 0.0
C30 C 0.21482 0.72446 0.51162 0.0
C31 C 0.28832 0.66018 0.69493 0.0
O32 O 0.27077 0.79013 0.47557 0.0
O33 O 0.36078 0.72411 0.48226 0.0
O34 O 0.31663 0.74264 0.72517 0.0
O35 O 0.28663 0.69936 0.38126 0.0
O36 O 0.22572 0.72658 0.58673 0.0
O37 O 0.31314 0.66071 0.6557 0.0
O38 O 0.23155 0.7292 0.45054 0.0
O39 O 0.31577 0.66578 0.47328 0.0
O40 O 0.27097 0.68468 0.6978 0.0
O41 O 0.32664 0.75955 0.41015 0.0
O42 O 0.27004 0.78464 0.61361 0.0
O43 O 0.35645 0.72083 0.66599 0.0
Sc44 Sc 0.75797 0.77337 0.91245 0.0
Sc45 Sc 0.82135 0.81381 0.01386 0.0
Sc46 Sc 0.77721 0.75624 0.12746 0.0
O47 O 0.78554 0.7811 0.01801 0.0
C48 C 0.70644 0.77102 0.04584 0.0
C49 C 0.76697 0.84853 0.88506 0.0
C50 C 0.79232 0.82633 0.18209 0.0
C51 C 0.82797 0.77978 0.85008 0.0
C52 C 0.76501 0.70258 0.0004 0.0
C53 C 0.85341 0.75831 0.1439 0.0
O54 O 0.71417 0.77284 0.9718 0.0
O55 O 0.79385 0.84804 0.9281 0.0
O56 O 0.78268 0.79783 0.19486 0.0
O57 O 0.79853 0.77274 0.84035 0.0
O58 O 0.76934 0.71148 0.07334 0.0
O59 O 0.8544 0.78395 0.09628 0.0
O60 O 0.7628 0.72214 0.93544 0.0
O61 O 0.84052 0.79341 0.91174 0.0
O62 O 0.82743 0.74385 0.1572 0.0
O63 O 0.74989 0.82375 0.87879 0.0
O64 O 0.72651 0.76656 0.10949 0.0
O65 O 0.80532 0.83684 0.11719 0.0
Sc66 Sc 0.75151 0.26579 0.59401 0.0
Sc67 Sc 0.69222 0.31963 0.49826 0.0
Sc68 Sc 0.73221 0.26927 0.37789 0.0
O69 O 0.72538 0.28504 0.48994 0.0
C70 C 0.80336 0.26914 0.46145 0.0
C71 C 0.75 0.33854 0.6273 0.0
C72 C 0.72379 0.34491 0.33434 0.0
C73 C 0.68307 0.27408 0.66034 0.0
C74 C 0.73373 0.2046 0.49891 0.0
C75 C 0.65656 0.27709 0.36501 0.0
O76 O 0.79519 0.26497 0.53496 0.0
O77 O 0.72339 0.34422 0.58439 0.0
O78 O 0.73182 0.31728 0.31703 0.0
O79 O 0.71165 0.26382 0.6677 0.0
O80 O 0.73318 0.21935 0.42666 0.0
O81 O 0.65669 0.29848 0.41548 0.0
O82 O 0.73941 0.21827 0.56518 0.0
O83 O 0.67136 0.29306 0.59965 0.0
O84 O 0.68174 0.26377 0.34677 0.0
O85 O 0.76469 0.31189 0.63287 0.0
O86 O 0.78339 0.27281 0.39759 0.0
O87 O 0.71 0.34987 0.3984 0.0
O88 O 0.21231 0.53074 0.79199 0.0
Cd89 Cd 0.17767 0.48964 0.8522 0.0
O90 O 0.24027 0.53126 0.91249 0.0
Cd91 Cd 0.27399 0.55297 0.0003 0.0
O92 O 0.2886 0.58318 0.09853 0.0
C93 C 0.27297 0.58075 0.16203 0.0
O94 O 0.25014 0.5595 0.16721 0.0
C95 C 0.23422 0.54307 0.83778 0.0
C96 C 0.20154 0.42824 0.89965 0.0
O97 O 0.18844 0.43574 0.82596 0.0
O98 O 0.20487 0.45004 0.94993 0.0
O99 O 0.98828 0.68391 0.2806 0.0
Cd100 Cd 0.0306 0.65189 0.36432 0.0
O101 O 0.97407 0.70162 0.39459 0.0
Cd102 Cd 0.9426 0.72844 0.46308 0.0
O103 O 0.91578 0.7514 0.55029 0.0
C104 C 0.90042 0.73357 0.59989 0.0
O105 O 0.90089 0.70249 0.59614 0.0
C106 C 0.96911 0.70003 0.31674 0.0
C107 C 0.08765 0.68121 0.41483 0.0
O108 O 0.084 0.66907 0.3451 0.0
O109 O 0.06409 0.68068 0.45962 0.0
O110 O 0.73099 0.46689 0.05535 0.0
Cd111 Cd 0.7367 0.50384 0.93185 0.0
O112 O 0.78107 0.4504 0.07253 0.0
Cd113 Cd 0.79259 0.47983 0.96191 0.0
O114 O 0.78477 0.45929 0.84402 0.0
C115 C 0.79725 0.43168 0.8468 0.0
O116 O 0.81564 0.42086 0.91335 0.0
C117 C 0.75281 0.44887 0.09432 0.0
C118 C 0.7462 0.56766 0.95993 0.0
O119 O 0.71809 0.55576 0.95512 0.0
O120 O 0.76994 0.54923 0.95337 0.0
O121 O 0.0394 0.25085 0.54327 0.0
Cd122 Cd 0.00454 0.26231 0.41454 0.0
O123 O 0.0642 0.29705 0.53674 0.0
Cd124 Cd 0.03719 0.31159 0.41829 0.0
O125 O 0.04768 0.29244 0.30368 0.0
C126 C 0.07441 0.27787 0.31496 0.0
O127 O 0.09056 0.27666 0.38841 0.0
C128 C 0.06083 0.2692 0.57248 0.0
C129 C 0.93955 0.26604 0.43242 0.0
O130 O 0.95354 0.23897 0.43193 0.0
O131 O 0.95642 0.29141 0.42618 0.0
O132 O 0.6968 0.98155 0.75031 0.0
Cd133 Cd 0.66418 0.0274 0.68955 0.0
O134 O 0.71804 0.97646 0.63394 0.0
Cd135 Cd 0.74629 0.9528 0.55052 0.0
O136 O 0.76314 0.93104 0.44511 0.0
C137 C 0.7667 0.90089 0.45032 0.0
O138 O 0.76181 0.8839 0.51987 0.0
C139 C 0.7149 0.96635 0.70897 0.0
C140 C 0.69449 0.07893 0.61095 0.0
O141 O 0.69246 0.0768 0.68948 0.0
O142 O 0.6835 0.05611 0.56971 0.0
O143 O 0.51824 0.20741 0.29406 0.0
Cd144 Cd 0.47946 0.17111 0.2333 0.0
O145 O 0.53645 0.20959 0.17208 0.0
Cd146 Cd 0.5696 0.22461 0.08083 0.0
O147 O 0.5957 0.24639 0.97322 0.0
C148 C 0.61401 0.22858 0.93856 0.0
O149 O 0.59562 0.24799 0.9715 0.0
C150 C 0.53944 0.21676 0.24673 0.0
C151 C 0.4248 0.19821 0.14559 0.0
O152 O 0.42493 0.18778 0.22231 0.0
O153 O 0.45095 0.19735 0.11111 0.0
O154 O 0.23322 0.04047 0.45238 0.0
Cd155 Cd 0.23507 0.00149 0.5752 0.0
O156 O 0.28476 0.04289 0.43707 0.0
Cd157 Cd 0.29382 0.01602 0.55825 0.0
O158 O 0.28045 0.03358 0.6724 0.0
C159 C 0.28485 0.06346 0.6724 0.0
O160 O 0.29865 0.07866 0.6112 0.0
C161 C 0.25614 0.05127 0.41242 0.0
C162 C 0.246 0.93741 0.55331 0.0
O163 O 0.21799 0.94983 0.53788 0.0
O164 O 0.26908 0.95545 0.57631 0.0
O165 O 0.46684 0.77507 0.97748 0.0
Cd166 Cd 0.50573 0.79659 0.0808 0.0
O167 O 0.43912 0.82012 0.95678 0.0
Cd168 Cd 0.46522 0.83951 0.06315 0.0
O169 O 0.45594 0.82455 0.19078 0.0
C170 C 0.42971 0.80954 0.19029 0.0
O171 O 0.41335 0.80606 0.11884 0.0
C172 C 0.44349 0.79156 0.94002 0.0
C173 C 0.57068 0.78608 0.06807 0.0
O174 O 0.55571 0.80968 0.02588 0.0
O175 O 0.55485 0.76685 0.11442 0.0
C176 C 0.11842 0.21403 0.22382 0.0
C177 C 0.12775 0.23135 0.15122 0.0
C178 C 0.09485 0.27702 0.17414 0.0
C179 C 0.08707 0.26053 0.24976 0.0
N180 N 0.08181 0.2103 0.33121 0.0
N181 N 0.11562 0.27292 0.04105 0.0
C182 C 0.09576 0.22792 0.26957 0.0
C183 C 0.11283 0.26081 0.12093 0.0
N184 N 0.13198 0.1849 0.25031 0.0
N185 N 0.08708 0.3086 0.15565 0.0
H186 H 0.12842 0.26103 0.00094 0.0
H187 H 0.10283 0.29283 0.0126 0.0
H188 H 0.07387 0.32142 0.19276 0.0
H189 H 0.09548 0.3226 0.10608 0.0
H190 H 0.12928 0.17291 0.30823 0.0
H191 H 0.14709 0.17326 0.21518 0.0
H192 H 0.08528 0.18579 0.34495 0.0
H193 H 0.06406 0.21978 0.3629 0.0
C194 C 0.26937 0.62706 0.81758 0.0
C195 C 0.27759 0.62918 0.73452 0.0
C196 C 0.26362 0.57279 0.7271 0.0
C197 C 0.25085 0.57219 0.80506 0.0
N198 N 0.23508 0.60202 0.91546 0.0
N199 N 0.27507 0.60559 0.60357 0.0
C200 C 0.25207 0.60016 0.84829 0.0
C201 C 0.27287 0.60242 0.68736 0.0
N202 N 0.27853 0.65041 0.86779 0.0
N203 N 0.2675 0.54502 0.69146 0.0
H204 H 0.27976 0.62723 0.57046 0.0
H205 H 0.26866 0.58752 0.56555 0.0
H206 H 0.26192 0.52268 0.71979 0.0
H207 H 0.27944 0.54391 0.63834 0.0
H208 H 0.27571 0.64845 0.93113 0.0
H209 H 0.29197 0.67007 0.84813 0.0
H210 H 0.23281 0.62305 0.94385 0.0
H211 H 0.22064 0.58364 0.9378 0.0
C212 C 0.90537 0.76256 0.23468 0.0
C213 C 0.88424 0.74434 0.18419 0.0
C214 C 0.91833 0.69703 0.22292 0.0
C215 C 0.94044 0.71558 0.26923 0.0
N216 N 0.9586 0.76755 0.30364 0.0
N217 N 0.87664 0.6975 0.10995 0.0
C218 C 0.93498 0.74882 0.27075 0.0
C219 C 0.89246 0.71248 0.17246 0.0
N220 N 0.89695 0.79267 0.25028 0.0
N221 N 0.92107 0.66446 0.22962 0.0
H222 H 0.8589 0.70892 0.0686 0.0
H223 H 0.88366 0.67539 0.09327 0.0
H224 H 0.93903 0.65189 0.26777 0.0
H225 H 0.90361 0.64978 0.20372 0.0
H226 H 0.90933 0.80524 0.29528 0.0
H227 H 0.8764 0.80443 0.22243 0.0
H228 H 0.95737 0.79241 0.29855 0.0
H229 H 0.98079 0.75846 0.32918 0.0
C230 C 0.75691 0.35859 0.76738 0.0
C231 C 0.76231 0.36275 0.68214 0.0
C232 C 0.79138 0.4123 0.70434 0.0
C233 C 0.78438 0.40894 0.7884 0.0
N234 N 0.75418 0.38343 0.8951 0.0
N235 N 0.78048 0.39513 0.56579 0.0
C236 C 0.76541 0.38332 0.81867 0.0
C237 C 0.77823 0.39018 0.64937 0.0
N238 N 0.74391 0.33087 0.79969 0.0
N239 N 0.81141 0.43595 0.67799 0.0
H240 H 0.77191 0.37885 0.5246 0.0
H241 H 0.78885 0.41616 0.53655 0.0
H242 H 0.82101 0.45276 0.71652 0.0
H243 H 0.82023 0.43773 0.61997 0.0
H244 H 0.74294 0.32494 0.86309 0.0
H245 H 0.7361 0.31255 0.76391 0.0
H246 H 0.73731 0.36736 0.91666 0.0
H247 H 0.7592 0.40152 0.93409 0.0
C248 C 0.61232 0.23865 0.38752 0.0
C249 C 0.62551 0.26342 0.3363 0.0
C250 C 0.57901 0.26167 0.23437 0.0
C251 C 0.56823 0.23381 0.27954 0.0
N252 N 0.57915 0.19178 0.39124 0.0
N253 N 0.62434 0.29485 0.20425 0.0
C254 C 0.58594 0.22129 0.35446 0.0
C255 C 0.60973 0.2739 0.25763 0.0
N256 N 0.62513 0.23147 0.46758 0.0
N257 N 0.55949 0.27721 0.17143 0.0
H258 H 0.64704 0.3038 0.21916 0.0
H259 H 0.61526 0.30083 0.14286 0.0
H260 H 0.53632 0.26969 0.15484 0.0
H261 H 0.56511 0.29921 0.14146 0.0
H262 H 0.61433 0.21601 0.51033 0.0
H263 H 0.6452 0.24285 0.4933 0.0
H264 H 0.59323 0.18047 0.44162 0.0
H265 H 0.56166 0.17691 0.36647 0.0
C266 C 0.22778 0.12205 0.74141 0.0
C267 C 0.24403 0.1297 0.81732 0.0
C268 C 0.28609 0.0906 0.80363 0.0
C269 C 0.26907 0.08226 0.72944 0.0
N270 N 0.22009 0.08351 0.63955 0.0
N271 N 0.28549 0.1179 0.92864 0.0
C272 C 0.23865 0.09585 0.70231 0.0
C273 C 0.2722 0.11281 0.8511 0.0
N274 N 0.20303 0.14087 0.7044 0.0
N275 N 0.31592 0.07811 0.82698 0.0
H276 H 0.27678 0.13518 0.96299 0.0
H277 H 0.30384 0.10387 0.9608 0.0
H278 H 0.32607 0.06076 0.7953 0.0
H279 H 0.3312 0.08604 0.8749 0.0
H280 H 0.19233 0.13843 0.64488 0.0
H281 H 0.19528 0.16101 0.72995 0.0
H282 H 0.19649 0.09055 0.62204 0.0
H283 H 0.22729 0.064 0.61036 0.0
C284 C 0.38998 0.79396 0.39055 0.0
C285 C 0.38037 0.76201 0.38192 0.0
C286 C 0.41449 0.75947 0.26879 0.0
C287 C 0.41868 0.79292 0.26646 0.0
N288 N 0.41062 0.84278 0.32426 0.0
N289 N 0.38115 0.71484 0.30767 0.0
C290 C 0.40703 0.81038 0.32811 0.0
C291 C 0.39245 0.74462 0.32062 0.0
N292 N 0.3829 0.80836 0.45863 0.0
N293 N 0.43159 0.74201 0.221 0.0
H294 H 0.3642 0.70352 0.34265 0.0
H295 H 0.38645 0.70256 0.25774 0.0
H296 H 0.44841 0.75242 0.18366 0.0
H297 H 0.43158 0.71713 0.2251 0.0
H298 H 0.39148 0.83068 0.47247 0.0
H299 H 0.37078 0.79649 0.50538 0.0
H300 H 0.39934 0.8573 0.36146 0.0
H301 H 0.42358 0.85541 0.28047 0.0
C302 C 0.74205 0.87921 0.75377 0.0
C303 C 0.75545 0.87915 0.83764 0.0
C304 C 0.74904 0.93749 0.82698 0.0
C305 C 0.73113 0.93669 0.74884 0.0
N306 N 0.70551 0.90533 0.64447 0.0
N307 N 0.76586 0.90845 0.9589 0.0
C308 C 0.72629 0.90717 0.71372 0.0
C309 C 0.75754 0.90838 0.87557 0.0
N310 N 0.74529 0.85304 0.71105 0.0
N311 N 0.75859 0.9661 0.85422 0.0
H312 H 0.77106 0.88779 0.99817 0.0
H313 H 0.76429 0.92875 0.99064 0.0
H314 H 0.75356 0.98792 0.81929 0.0
H315 H 0.77436 0.9679 0.90699 0.0
H316 H 0.73792 0.85271 0.64815 0.0
H317 H 0.75835 0.83275 0.7356 0.0
H318 H 0.6985 0.88373 0.62194 0.0
H319 H 0.69286 0.92497 0.6139 0.0
C320 C 0.84366 0.78416 0.70452 0.0
C321 C 0.84872 0.77026 0.78764 0.0
C322 C 0.89163 0.73676 0.7493 0.0
C323 C 0.88349 0.74738 0.66443 0.0
N324 N 0.84865 0.77803 0.55958 0.0
N325 N 0.87456 0.73029 0.88805 0.0
C326 C 0.85879 0.77042 0.64145 0.0
C327 C 0.87203 0.74582 0.80994 0.0
N328 N 0.82506 0.81101 0.68635 0.0
N329 N 0.91872 0.71891 0.77237 0.0
H330 H 0.8607 0.73626 0.93437 0.0
H331 H 0.8885 0.70982 0.90492 0.0
H332 H 0.93419 0.71246 0.73002 0.0
H333 H 0.92756 0.71325 0.83405 0.0
H334 H 0.8229 0.82404 0.62833 0.0
H335 H 0.81438 0.82209 0.73175 0.0
H336 H 0.82839 0.79192 0.53978 0.0
H337 H 0.85871 0.76814 0.51137 0.0
C338 C 0.75882 0.39044 0.2894 0.0
C339 C 0.73045 0.37268 0.27593 0.0
C340 C 0.71812 0.4031 0.14122 0.0
C341 C 0.7445 0.42346 0.15855 0.0
N342 N 0.7861 0.44022 0.25774 0.0
N343 N 0.67936 0.36702 0.19876 0.0
C344 C 0.76381 0.41821 0.23523 0.0
C345 C 0.70887 0.38064 0.20497 0.0
N346 N 0.78138 0.38031 0.35237 0.0
N347 N 0.70315 0.40349 0.06269 0.0
H348 H 0.67164 0.35106 0.24562 0.0
H349 H 0.66157 0.37417 0.15165 0.0
H350 H 0.71033 0.41779 0.01201 0.0
H351 H 0.68595 0.38684 0.04582 0.0
H352 H 0.80391 0.39053 0.36008 0.0
H353 H 0.77858 0.35988 0.3926 0.0
H354 H 0.79872 0.43901 0.31628 0.0
H355 H 0.78961 0.46143 0.22115 0.0
C356 C 0.12109 0.21329 0.70244 0.0
C357 C 0.1334 0.23317 0.76329 0.0
C358 C 0.09372 0.27444 0.70862 0.0
C359 C 0.08485 0.25643 0.64042 0.0
N360 N 0.09694 0.2121 0.56254 0.0
N361 N 0.13354 0.28401 0.82146 0.0
C362 C 0.10023 0.22666 0.6347 0.0
C363 C 0.12042 0.26425 0.76541 0.0
N364 N 0.12919 0.18162 0.70896 0.0
N365 N 0.07592 0.30047 0.72105 0.0
H366 H 0.15214 0.27691 0.86647 0.0
H367 H 0.12738 0.30808 0.81994 0.0
H368 H 0.05559 0.30793 0.68235 0.0
H369 H 0.07938 0.31272 0.77399 0.0
H370 H 0.11842 0.16557 0.66998 0.0
H371 H 0.14401 0.17071 0.75848 0.0
H372 H 0.11029 0.19208 0.55315 0.0
H373 H 0.084 0.22201 0.50852 0.0
C374 C 0.26075 0.64041 0.31868 0.0
C375 C 0.29279 0.64611 0.34898 0.0
C376 C 0.31091 0.6041 0.26841 0.0
C377 C 0.27961 0.60246 0.2282 0.0
N378 N 0.22556 0.62319 0.20552 0.0
N379 N 0.34923 0.63493 0.3473 0.0
C380 C 0.25466 0.62161 0.25094 0.0
C381 C 0.31816 0.62823 0.32291 0.0
N382 N 0.23604 0.65197 0.35662 0.0
N383 N 0.33343 0.58186 0.25702 0.0
H384 H 0.35594 0.65147 0.38934 0.0
H385 H 0.36852 0.62561 0.32126 0.0
H386 H 0.32884 0.5634 0.21895 0.0
H387 H 0.3556 0.57976 0.29156 0.0
H388 H 0.21227 0.64596 0.34192 0.0
H389 H 0.23953 0.66449 0.40922 0.0
H390 H 0.20773 0.63939 0.21453 0.0
H391 H 0.22028 0.61072 0.15342 0.0
C392 C 0.38458 0.7806 0.75228 0.0
C393 C 0.37014 0.75133 0.77812 0.0
C394 C 0.40238 0.74929 0.91213 0.0
C395 C 0.41934 0.77676 0.88288 0.0
N396 N 0.43012 0.81549 0.77003 0.0
N397 N 0.36786 0.70528 0.87727 0.0
C398 C 0.41136 0.79163 0.8015 0.0
C399 C 0.37985 0.73488 0.85646 0.0
N400 N 0.37218 0.79823 0.68163 0.0
N401 N 0.40636 0.73799 0.99416 0.0
H402 H 0.35052 0.69447 0.83916 0.0
H403 H 0.37677 0.6905 0.92932 0.0
H404 H 0.42184 0.74823 0.03789 0.0
H405 H 0.39209 0.72033 0.02066 0.0
H406 H 0.37957 0.8213 0.66388 0.0
H407 H 0.35244 0.79092 0.64447 0.0
H408 H 0.42744 0.82504 0.70827 0.0
H409 H 0.45036 0.82368 0.80357 0.0
C410 C 0.76221 0.87048 0.23529 0.0
C411 C 0.78776 0.84798 0.24715 0.0
C412 C 0.80255 0.86466 0.38632 0.0
C413 C 0.77505 0.88463 0.37795 0.0
N414 N 0.72593 0.90329 0.29933 0.0
N415 N 0.82913 0.81972 0.33831 0.0
C416 C 0.7543 0.88704 0.3033 0.0
C417 C 0.80712 0.844 0.32389 0.0
N418 N 0.74499 0.87541 0.15955 0.0
N419 N 0.8247 0.86601 0.45311 0.0
H420 H 0.83276 0.80369 0.29485 0.0
H421 H 0.84194 0.81374 0.39557 0.0
H422 H 0.82235 0.88123 0.49946 0.0
H423 H 0.84679 0.85443 0.45876 0.0
H424 H 0.72869 0.89411 0.14364 0.0
H425 H 0.74841 0.86187 0.11048 0.0
H426 H 0.70813 0.90285 0.25044 0.0
H427 H 0.71877 0.91518 0.34812 0.0
C428 C 0.65202 0.23146 0.7346 0.0
C429 C 0.66301 0.26343 0.72733 0.0
C430 C 0.6466 0.27117 0.86467 0.0
C431 C 0.63197 0.24062 0.86773 0.0
N432 N 0.61825 0.19248 0.80257 0.0
N433 N 0.66628 0.31555 0.77852 0.0
C434 C 0.63411 0.22092 0.80192 0.0
C435 C 0.6586 0.28395 0.78988 0.0
N436 N 0.65923 0.21102 0.67806 0.0
N437 N 0.65155 0.2868 0.93487 0.0
H438 H 0.67591 0.3257 0.72539 0.0
H439 H 0.66055 0.3322 0.81862 0.0
H440 H 0.64628 0.2768 0.99311 0.0
H441 H 0.6647 0.30774 0.93763 0.0
H442 H 0.65524 0.18651 0.68525 0.0
H443 H 0.67118 0.21819 0.62608 0.0
H444 H 0.61572 0.17887 0.75199 0.0
H445 H 0.60562 0.18341 0.85176 0.0
C446 C 0.247 0.09866 0.19953 0.0
C447 C 0.23345 0.12762 0.22013 0.0
C448 C 0.2395 0.10763 0.36731 0.0
C449 C 0.24967 0.07756 0.34578 0.0
N450 N 0.2597 0.04277 0.24129 0.0
N451 N 0.21076 0.15685 0.32248 0.0
C452 C 0.25255 0.07259 0.2618 0.0
C453 C 0.2281 0.13138 0.30377 0.0
N454 N 0.25573 0.09647 0.12134 0.0
N455 N 0.24172 0.11394 0.4487 0.0
H456 H 0.2013 0.17466 0.27813 0.0
H457 H 0.20301 0.15869 0.38094 0.0
H458 H 0.2506 0.09739 0.49704 0.0
H459 H 0.23789 0.13655 0.46758 0.0
H460 H 0.26885 0.07743 0.10486 0.0
H461 H 0.25221 0.11503 0.0744 0.0
H462 H 0.25858 0.0367 0.18038 0.0
H463 H 0.26447 0.02335 0.28561 0.0
C464 C 0.24434 0.34751 0.92257 0.0
C465 C 0.22223 0.32838 0.96565 0.0
C466 C 0.19063 0.37633 0.98025 0.0
C467 C 0.21031 0.39456 0.92752 0.0
N468 N 0.25487 0.39778 0.8441 0.0
N469 N 0.17233 0.32384 0.02816 0.0
C470 C 0.23692 0.38022 0.89747 0.0
C471 C 0.19505 0.34263 0.99362 0.0
N472 N 0.27297 0.33461 0.90845 0.0
N473 N 0.16741 0.39114 0.01689 0.0
H474 H 0.17434 0.29908 0.03851 0.0
H475 H 0.15023 0.33242 0.04055 0.0
H476 H 0.16206 0.41544 0.00515 0.0
H477 H 0.155 0.37986 0.06377 0.0
H478 H 0.29145 0.34796 0.88464 0.0
H479 H 0.27952 0.31098 0.92802 0.0
H480 H 0.27215 0.38784 0.81206 0.0
H481 H 0.25123 0.4222 0.82806 0.0
C482 C 0.15903 0.73607 0.44734 0.0
C483 C 0.1813 0.71447 0.49389 0.0
C484 C 0.1403 0.67301 0.49949 0.0
C485 C 0.11917 0.69346 0.44541 0.0
N486 N 0.10852 0.7434 0.36203 0.0
N487 N 0.19495 0.66114 0.55534 0.0
C488 C 0.12854 0.72476 0.41778 0.0
C489 C 0.17237 0.68265 0.5183 0.0
N490 N 0.1668 0.7676 0.43353 0.0
N491 N 0.12967 0.64437 0.5331 0.0
H492 H 0.21873 0.66714 0.57008 0.0
H493 H 0.19085 0.63673 0.56559 0.0
H494 H 0.10668 0.63595 0.51866 0.0
H495 H 0.14273 0.63005 0.58012 0.0
H496 H 0.15063 0.78528 0.40736 0.0
H497 H 0.18888 0.77664 0.4547 0.0
H498 H 0.11525 0.76497 0.33203 0.0
H499 H 0.08554 0.73632 0.34174 0.0
C500 C 0.73418 0.65794 0.93745 0.0
C501 C 0.76033 0.6679 0.99072 0.0
C502 C 0.77423 0.6116 0.03284 0.0
C503 C 0.75104 0.60209 0.97093 0.0
N504 N 0.71405 0.6174 0.85067 0.0
N505 N 0.80892 0.65363 0.07805 0.0
C506 C 0.73243 0.62558 0.91932 0.0
C507 C 0.78141 0.64456 0.03541 0.0
N508 N 0.71006 0.67883 0.90715 0.0
N509 N 0.78843 0.58942 0.09168 0.0
H510 H 0.81535 0.67741 0.08068 0.0
H511 H 0.82675 0.63752 0.1039 0.0
H512 H 0.78292 0.56518 0.09437 0.0
H513 H 0.80309 0.59553 0.14305 0.0
H514 H 0.68902 0.67169 0.87512 0.0
H515 H 0.70923 0.7024 0.92189 0.0
H516 H 0.70256 0.6343 0.80685 0.0
H517 H 0.71315 0.59427 0.83236 0.0
C518 C 0.85084 0.24817 0.3993 0.0
C519 C 0.83794 0.26956 0.45038 0.0
C520 C 0.89193 0.28677 0.49536 0.0
C521 C 0.90454 0.26788 0.43772 0.0
N522 N 0.89448 0.23732 0.31901 0.0
N523 N 0.84565 0.31489 0.53101 0.0
C524 C 0.88357 0.2505 0.38501 0.0
C525 C 0.85832 0.2906 0.49367 0.0
N526 N 0.83235 0.22468 0.3673 0.0
N527 N 0.9118 0.29976 0.55454 0.0
H528 H 0.82113 0.31919 0.52871 0.0
H529 H 0.85951 0.33275 0.55648 0.0
H530 H 0.93649 0.29637 0.56076 0.0
H531 H 0.90347 0.31104 0.60296 0.0
H532 H 0.84163 0.2065 0.33688 0.0
H533 H 0.80849 0.22133 0.37835 0.0
H534 H 0.87941 0.22708 0.27431 0.0
H535 H 0.91792 0.2398 0.30346 0.0
C536 C 0.7486 0.14836 0.55431 0.0
C537 C 0.7261 0.17001 0.50853 0.0
C538 C 0.68394 0.12997 0.52039 0.0
C539 C 0.70618 0.10869 0.56814 0.0
N540 N 0.76051 0.09421 0.61627 0.0
N541 N 0.67464 0.1787 0.42975 0.0
C542 C 0.73886 0.11685 0.58057 0.0
C543 C 0.6946 0.15982 0.48501 0.0
N544 N 0.77913 0.15829 0.57368 0.0
N545 N 0.65214 0.12265 0.51369 0.0
H546 H 0.68062 0.20136 0.40501 0.0
H547 H 0.65299 0.17085 0.4026 0.0
H548 H 0.64315 0.101 0.53787 0.0
H549 H 0.63422 0.1389 0.48962 0.0
H550 H 0.79579 0.14543 0.61518 0.0
H551 H 0.78764 0.18021 0.54947 0.0
H552 H 0.78511 0.09747 0.62113 0.0
H553 H 0.75391 0.07097 0.63566 0.0
C554 C 0.34745 0.24482 0.08402 0.0
C555 C 0.33123 0.22373 0.0315 0.0
C556 C 0.38046 0.19209 0.03376 0.0
C557 C 0.39461 0.20976 0.09792 0.0
N558 N 0.39283 0.25379 0.18251 0.0
N559 N 0.33201 0.17736 0.95415 0.0
C560 C 0.37853 0.23658 0.12209 0.0
C561 C 0.34786 0.19783 0.00402 0.0
N562 N 0.33324 0.27314 0.09554 0.0
N563 N 0.39789 0.16931 0.00247 0.0
H564 H 0.30857 0.18102 0.92851 0.0
H565 H 0.34143 0.15569 0.94118 0.0
H566 H 0.42097 0.16249 0.02629 0.0
H567 H 0.39043 0.15859 0.94879 0.0
H568 H 0.34466 0.291 0.12713 0.0
H569 H 0.31083 0.28011 0.06633 0.0
H570 H 0.38099 0.271 0.21066 0.0
H571 H 0.41647 0.24995 0.20715 0.0
C572 C 0.2353 0.84713 0.57979 0.0
C573 C 0.26247 0.83646 0.54413 0.0
C574 C 0.27604 0.89212 0.50336 0.0
C575 C 0.25133 0.90269 0.54856 0.0
N576 N 0.21205 0.88951 0.64582 0.0
N577 N 0.31199 0.84892 0.48454 0.0
C578 C 0.23214 0.88001 0.59109 0.0
C579 C 0.28377 0.85899 0.50919 0.0
N580 N 0.21186 0.8261 0.60028 0.0
N581 N 0.2913 0.91349 0.45229 0.0
H582 H 0.31877 0.82492 0.48915 0.0
H583 H 0.32993 0.8645 0.46689 0.0
H584 H 0.28563 0.9378 0.44412 0.0
H585 H 0.30725 0.90664 0.41169 0.0
H586 H 0.19006 0.83332 0.61842 0.0
H587 H 0.2127 0.80192 0.5908 0.0
H588 H 0.20007 0.87344 0.68456 0.0
H589 H 0.20996 0.91314 0.65939 0.0
C590 C 0.65187 0.7476 0.05158 0.0
C591 C 0.67217 0.77436 0.05769 0.0
C592 C 0.62666 0.80748 0.08212 0.0
C593 C 0.60569 0.7818 0.06548 0.0
N594 N 0.598 0.72883 0.02099 0.0
N595 N 0.67884 0.83083 0.06808 0.0
C596 C 0.6182 0.75212 0.04706 0.0
C597 C 0.65955 0.80464 0.06993 0.0
N598 N 0.66483 0.71778 0.05143 0.0
N599 N 0.61551 0.834 0.11341 0.0
H600 H 0.7032 0.82949 0.06103 0.0
H601 H 0.67029 0.85413 0.06713 0.0
H602 H 0.59187 0.83661 0.12635 0.0
H603 H 0.63031 0.85199 0.13453 0.0
H604 H 0.65148 0.69692 0.05548 0.0
H605 H 0.68942 0.71368 0.05514 0.0
H606 H 0.60581 0.70806 -0.00152 0.0
H607 H 0.57322 0.73151 0.01411 0.0
loop_
_geom_bond_atom_site_label_1
_geom_bond_atom_site_label_2
_geom_bond_distance
_geom_bond_site_symmetry_2
_ccdc_geom_bond_type
Sc0 O3 2.025 . S
Sc0 O10 2.105 . S
Sc0 O13 2.105 . S
Sc0 O16 2.105 . S
Sc0 O19 2.105 . S
Sc1 O3 2.025 . S
Sc1 O11 2.105 . S
Sc1 O15 2.105 1_554 S
Sc1 O17 2.105 . S
Sc1 O21 2.105 1_554 S
Sc2 O3 2.025 1_556 S
Sc2 O12 2.105 . S
Sc2 O14 2.105 . S
Sc2 O18 2.105 . S
Sc2 O20 2.105 . S
O3 Sc0 2.025 . S
O3 Sc1 2.025 . S
O3 Sc2 2.025 1_554 S
C4 O10 1.268 . S
C4 O20 1.268 1_554 S
C5 O11 1.268 . S
C5 O19 1.268 . S
C6 O12 1.268 . S
C6 O21 1.268 . S
C7 O13 1.268 . S
C7 O17 1.268 . S
C8 O14 1.268 1_554 S
C8 O16 1.268 . S
C9 O15 1.268 . S
C9 O18 1.268 . S
O10 Sc0 2.105 . S
O10 C4 1.268 . S
O11 Sc1 2.105 . S
O11 C5 1.268 . S
O12 Sc2 2.105 . S
O12 C6 1.268 . S
O13 Sc0 2.105 . S
O13 C7 1.268 . S
O14 Sc2 2.105 . S
O14 C8 1.268 1_556 S
O15 Sc1 2.105 1_556 S
O15 C9 1.268 . S
O16 Sc0 2.105 . S
O16 C8 1.268 . S
O17 Sc1 2.105 . S
O17 C7 1.268 . S
O18 Sc2 2.105 . S
O18 C9 1.268 . S
O19 Sc0 2.105 . S
O19 C5 1.268 . S
O20 Sc2 2.105 . S
O20 C4 1.268 1_556 S
O21 Sc1 2.105 1_556 S
O21 C6 1.268 . S
Sc22 O25 2.025 . S
Sc22 O32 2.105 . S
Sc22 O35 2.105 . S
Sc22 O38 2.105 . S
Sc22 O41 2.105 . S
Sc23 O25 2.025 . S
Sc23 O33 2.105 . S
Sc23 O37 2.105 . S
Sc23 O39 2.105 . S
Sc23 O43 2.105 . S
Sc24 O25 2.025 . S
Sc24 O34 2.105 . S
Sc24 O36 2.105 . S
Sc24 O40 2.105 . S
Sc24 O42 2.105 . S
O25 Sc22 2.025 . S
O25 Sc23 2.025 . S
O25 Sc24 2.025 . S
C26 O32 1.268 . S
C26 O42 1.268 . S
C27 O33 1.268 . S
C27 O41 1.268 . S
C28 O34 1.268 . S
C28 O43 1.268 . S
C29 O35 1.268 . S
C29 O39 1.268 . S
C30 O36 1.268 . S
C30 O38 1.268 . S
C31 O37 1.268 . S
C31 O40 1.268 . S
O32 Sc22 2.105 . S
O32 C26 1.268 . S
O33 Sc23 2.105 . S
O33 C27 1.268 . S
O34 Sc24 2.105 . S
O34 C28 1.268 . S
O35 Sc22 2.105 . S
O35 C29 1.268 . S
O36 Sc24 2.105 . S
O36 C30 1.268 . S
O37 Sc23 2.105 . S
O37 C31 1.268 . S
O38 Sc22 2.105 . S
O38 C30 1.268 . S
O39 Sc23 2.105 . S
O39 C29 1.268 . S
O40 Sc24 2.105 . S
O40 C31 1.268 . S
O41 Sc22 2.105 . S
O41 C27 1.268 . S
O42 Sc24 2.105 . S
O42 C26 1.268 . S
O43 Sc23 2.105 . S
O43 C28 1.268 . S
Sc44 O47 2.025 1_556 S
Sc44 O54 2.105 . S
Sc44 O57 2.105 . S
Sc44 O60 2.105 . S
Sc44 O63 2.105 . S
Sc45 O47 2.025 . S
Sc45 O55 2.105 1_554 S
Sc45 O59 2.105 . S
Sc45 O61 2.105 1_554 S
Sc45 O65 2.105 . S
Sc46 O47 2.025 . S
Sc46 O56 2.105 . S
Sc46 O58 2.105 . S
Sc46 O62 2.105 . S
Sc46 O64 2.105 . S
O47 Sc44 2.025 1_554 S
O47 Sc45 2.025 . S
O47 Sc46 2.025 . S
C48 O54 1.268 1_554 S
C48 O64 1.268 . S
C49 O55 1.268 . S
C49 O63 1.268 . S
C50 O56 1.268 . S
C50 O65 1.268 . S
C51 O57 1.268 . S
C51 O61 1.268 . S
C52 O58 1.268 . S
C52 O60 1.268 1_554 S
C53 O59 1.268 . S
C53 O62 1.268 . S
O54 Sc44 2.105 . S
O54 C48 1.268 1_556 S
O55 Sc45 2.105 1_556 S
O55 C49 1.268 . S
O56 Sc46 2.105 . S
O56 C50 1.268 . S
O57 Sc44 2.105 . S
O57 C51 1.268 . S
O58 Sc46 2.105 . S
O58 C52 1.268 . S
O59 Sc45 2.105 . S
O59 C53 1.268 . S
O60 Sc44 2.105 . S
O60 C52 1.268 1_556 S
O61 Sc45 2.105 1_556 S
O61 C51 1.268 . S
O62 Sc46 2.105 . S
O62 C53 1.268 . S
O63 Sc44 2.105 . S
O63 C49 1.268 . S
O64 Sc46 2.105 . S
O64 C48 1.268 . S
O65 Sc45 2.105 . S
O65 C50 1.268 . S
Sc66 O69 2.025 . S
Sc66 O76 2.105 . S
Sc66 O79 2.105 . S
Sc66 O82 2.105 . S
Sc66 O85 2.105 . S
Sc67 O69 2.025 . S
Sc67 O77 2.105 . S
Sc67 O81 2.105 . S
Sc67 O83 2.105 . S
Sc67 O87 2.105 . S
Sc68 O69 2.025 . S
Sc68 O78 2.105 . S
Sc68 O80 2.105 . S
Sc68 O84 2.105 . S
Sc68 O86 2.105 . S
O69 Sc66 2.025 . S
O69 Sc67 2.025 . S
O69 Sc68 2.025 . S
C70 O76 1.268 . S
C70 O86 1.268 . S
C71 O77 1.268 . S
C71 O85 1.268 . S
C72 O78 1.268 . S
C72 O87 1.268 . S
C73 O79 1.268 . S
C73 O83 1.268 . S
C74 O80 1.268 . S
C74 O82 1.268 . S
C75 O81 1.268 . S
C75 O84 1.268 . S
O76 Sc66 2.105 . S
O76 C70 1.268 . S
O77 Sc67 2.105 . S
O77 C71 1.268 . S
O78 Sc68 2.105 . S
O78 C72 1.268 . S
O79 Sc66 2.105 . S
O79 C73 1.268 . S
O80 Sc68 2.105 . S
O80 C74 1.268 . S
O81 Sc67 2.105 . S
O81 C75 1.268 . S
O82 Sc66 2.105 . S
O82 C74 1.268 . S
O83 Sc67 2.105 . S
O83 C73 1.268 . S
O84 Sc68 2.105 . S
O84 C75 1.268 . S
O85 Sc66 2.105 . S
O85 C71 1.268 . S
O86 Sc68 2.105 . S
O86 C70 1.268 . S
O87 Sc67 2.105 . S
O87 C72 1.268 . S
O88 Cd89 2.300 . S
O88 C95 1.275 . S
Cd89 O88 2.300 . S
Cd89 O97 2.381 . S
Cd89 O98 2.378 1_556 S
O90 Cd91 2.385 1_556 S
O90 C95 1.255 . S
Cd91 O90 2.385 1_554 S
Cd91 O92 2.317 . S
O92 Cd91 2.317 . S
O92 C93 1.232 . S
C93 O92 1.232 . S
C93 O94 1.218 . S
O94 C93 1.218 . S
C95 O88 1.275 . S
C95 O90 1.255 . S
C96 O97 1.266 . S
C96 O98 1.246 1_556 S
O97 Cd89 2.381 . S
O97 C96 1.266 . S
O98 Cd89 2.378 1_554 S
O98 C96 1.246 1_554 S
O99 Cd100 2.300 1_655 S
O99 C106 1.275 . S
Cd100 O99 2.300 1_455 S
Cd100 O108 2.381 . S
Cd100 O109 2.378 . S
O101 Cd102 2.385 . S
O101 C106 1.255 . S
Cd102 O101 2.385 . S
Cd102 O103 2.317 . S
O103 Cd102 2.317 . S
O103 C104 1.232 . S
C104 O103 1.232 . S
C104 O105 1.218 . S
O105 C104 1.218 . S
C106 O99 1.275 . S
C106 O101 1.255 . S
C107 O108 1.258 . S
C107 O109 1.256 . S
O108 Cd100 2.381 . S
O108 C107 1.258 . S
O109 Cd100 2.378 . S
O109 C107 1.256 . S
O110 Cd111 2.300 . S
O110 C117 1.275 . S
Cd111 O110 2.300 . S
Cd111 O119 2.381 . S
Cd111 O120 2.378 1_554 S
O112 Cd113 2.385 1_554 S
O112 C117 1.255 . S
Cd113 O112 2.385 1_556 S
Cd113 O114 2.317 . S
O114 Cd113 2.317 . S
O114 C115 1.232 . S
C115 O114 1.232 . S
C115 O116 1.218 . S
O116 C115 1.218 . S
C117 O110 1.275 . S
C117 O112 1.255 . S
C118 O119 1.258 . S
C118 O120 1.256 1_554 S
O119 Cd111 2.381 . S
O119 C118 1.258 . S
O120 Cd111 2.378 1_556 S
O120 C118 1.256 1_556 S
O121 Cd122 2.300 1_455 S
O121 C128 1.275 . S
Cd122 O121 2.300 1_655 S
Cd122 O130 2.381 . S
Cd122 O131 2.378 . S
O123 Cd124 2.385 . S
O123 C128 1.255 . S
Cd124 O123 2.385 . S
Cd124 O125 2.317 . S
O125 Cd124 2.317 . S
O125 C126 1.232 . S
C126 O125 1.232 . S
C126 O127 1.218 . S
O127 C126 1.218 . S
C128 O121 1.275 . S
C128 O123 1.255 . S
C129 O130 1.258 . S
C129 O131 1.256 . S
O130 Cd122 2.381 . S
O130 C129 1.258 . S
O131 Cd122 2.378 . S
O131 C129 1.256 . S
O132 Cd133 2.300 1_565 S
O132 C139 1.275 . S
Cd133 O132 2.300 1_545 S
Cd133 O141 2.381 . S
Cd133 O142 2.378 . S
O134 Cd135 2.385 . S
O134 C139 1.255 . S
Cd135 O134 2.385 . S
Cd135 O136 2.317 . S
O136 Cd135 2.317 . S
O136 C137 1.232 . S
C137 O136 1.232 . S
C137 O138 1.218 . S
O138 C137 1.218 . S
C139 O132 1.275 . S
C139 O134 1.255 . S
C140 O141 1.258 . S
C140 O142 1.256 . S
O141 Cd133 2.381 . S
O141 C140 1.258 . S
O142 Cd133 2.378 . S
O142 C140 1.256 . S
O143 Cd144 2.300 . S
O143 C150 1.275 . S
Cd144 O143 2.300 . S
Cd144 O152 2.381 . S
Cd144 O153 2.378 1_554 S
O145 Cd146 2.385 1_554 S
O145 C150 1.255 . S
Cd146 O145 2.385 1_556 S
Cd146 O147 2.317 . S
O147 Cd146 2.317 . S
O147 C148 1.232 . S
C148 O147 1.232 . S
C148 O149 1.218 . S
O149 C148 1.218 . S
C150 O143 1.275 . S
C150 O145 1.255 . S
C151 O152 1.258 . S
C151 O153 1.256 1_554 S
O152 Cd144 2.381 . S
O152 C151 1.258 . S
O153 Cd144 2.378 1_556 S
O153 C151 1.256 1_556 S
O154 Cd155 2.300 1_545 S
O154 C161 1.275 . S
Cd155 O154 2.300 1_565 S
Cd155 O163 2.381 . S
Cd155 O164 2.378 . S
O156 Cd157 2.385 . S
O156 C161 1.255 . S
Cd157 O156 2.385 . S
Cd157 O158 2.317 . S
O158 Cd157 2.317 . S
O158 C159 1.232 . S
C159 O158 1.232 . S
C159 O160 1.218 . S
O160 C159 1.218 . S
C161 O154 1.275 . S
C161 O156 1.255 . S
C162 O163 1.258 . S
C162 O164 1.256 . S
O163 Cd155 2.381 . S
O163 C162 1.258 . S
O164 Cd155 2.378 . S
O164 C162 1.256 . S
O165 Cd166 2.300 . S
O165 C172 1.275 . S
Cd166 O165 2.300 . S
Cd166 O174 2.381 . S
Cd166 O175 2.378 1_556 S
O167 Cd168 2.385 1_556 S
O167 C172 1.255 . S
Cd168 O167 2.385 1_554 S
Cd168 O169 2.317 . S
O169 Cd168 2.317 . S
O169 C170 1.232 . S
C170 O169 1.232 . S
C170 O171 1.218 . S
O171 C170 1.218 . S
C172 O165 1.275 . S
C172 O167 1.255 . S
C173 O174 1.258 . S
C173 O175 1.256 1_556 S
O174 Cd166 2.381 . S
O174 C173 1.258 . S
O175 Cd166 2.378 1_554 S
O175 C173 1.256 1_554 S
C176 C177 1.363 . S
C176 C182 1.379 . S
C176 N184 1.356 . S
C177 C176 1.363 . S
C177 C183 1.363 . S
C178 C179 1.363 . S
C178 C183 1.379 . S
C178 N185 1.356 . S
C179 C178 1.363 . S
C179 C182 1.363 . S
N180 C182 1.356 . S
N180 H192 0.984 . S
N180 H193 0.985 . S
N181 C183 1.356 . S
N181 H186 0.984 . S
N181 H187 0.985 . S
C182 C176 1.379 . S
C182 C179 1.363 . S
C182 N180 1.356 . S
C183 C177 1.363 . S
C183 C178 1.379 . S
C183 N181 1.356 . S
N184 C176 1.356 . S
N184 H190 0.984 . S
N184 H191 0.984 . S
N185 C178 1.356 . S
N185 H188 0.984 . S
N185 H189 0.985 . S
H186 N181 0.984 . S
H187 N181 0.985 . S
H188 N185 0.984 . S
H189 N185 0.985 . S
H190 N184 0.984 . S
H191 N184 0.984 . S
H192 N180 0.984 . S
H193 N180 0.985 . S
C194 C195 1.363 . S
C194 C200 1.379 . S
C194 N202 1.356 . S
C195 C194 1.363 . S
C195 C201 1.363 . S
C196 C197 1.363 . S
C196 C201 1.379 . S
C196 N203 1.356 . S
C197 C196 1.363 . S
C197 C200 1.363 . S
N198 C200 1.356 . S
N198 H210 0.984 . S
N198 H211 0.985 . S
N199 C201 1.356 . S
N199 H204 0.984 . S
N199 H205 0.985 . S
C200 C194 1.379 . S
C200 C197 1.363 . S
C200 N198 1.356 . S
C201 C195 1.363 . S
C201 C196 1.379 . S
C201 N199 1.356 . S
N202 C194 1.356 . S
N202 H208 0.984 . S
N202 H209 0.984 . S
N203 C196 1.356 . S
N203 H206 0.984 . S
N203 H207 0.985 . S
H204 N199 0.984 . S
H205 N199 0.985 . S
H206 N203 0.984 . S
H207 N203 0.985 . S
H208 N202 0.984 . S
H209 N202 0.984 . S
H210 N198 0.984 . S
H211 N198 0.985 . S
C212 C213 1.363 . S
C212 C218 1.379 . S
C212 N220 1.356 . S
C213 C212 1.363 . S
C213 C219 1.363 . S
C214 C215 1.363 . S
C214 C219 1.379 . S
C214 N221 1.356 . S
C215 C214 1.363 . S
C215 C218 1.363 . S
N216 C218 1.356 . S
N216 H228 0.984 . S
N216 H229 0.985 . S
N217 C219 1.356 . S
N217 H222 0.984 . S
N217 H223 0.985 . S
C218 C212 1.379 . S
C218 C215 1.363 . S
C218 N216 1.356 . S
C219 C213 1.363 . S
C219 C214 1.379 . S
C219 N217 1.356 . S
N220 C212 1.356 . S
N220 H226 0.984 . S
N220 H227 0.984 . S
N221 C214 1.356 . S
N221 H224 0.984 . S
N221 H225 0.985 . S
H222 N217 0.984 . S
H223 N217 0.985 . S
H224 N221 0.984 . S
H225 N221 0.985 . S
H226 N220 0.984 . S
H227 N220 0.984 . S
H228 N216 0.984 . S
H229 N216 0.985 . S
C230 C231 1.363 . S
C230 C236 1.379 . S
C230 N238 1.356 . S
C231 C230 1.363 . S
C231 C237 1.363 . S
C232 C233 1.363 . S
C232 C237 1.379 . S
C232 N239 1.356 . S
C233 C232 1.363 . S
C233 C236 1.363 . S
N234 C236 1.356 . S
N234 H246 0.984 . S
N234 H247 0.985 . S
N235 C237 1.356 . S
N235 H240 0.984 . S
N235 H241 0.985 . S
C236 C230 1.379 . S
C236 C233 1.363 . S
C236 N234 1.356 . S
C237 C231 1.363 . S
C237 C232 1.379 . S
C237 N235 1.356 . S
N238 C230 1.356 . S
N238 H244 0.984 . S
N238 H245 0.984 . S
N239 C232 1.356 . S
N239 H242 0.984 . S
N239 H243 0.985 . S
H240 N235 0.984 . S
H241 N235 0.985 . S
H242 N239 0.984 . S
H243 N239 0.985 . S
H244 N238 0.984 . S
H245 N238 0.984 . S
H246 N234 0.984 . S
H247 N234 0.985 . S
C248 C249 1.363 . S
C248 C254 1.379 . S
C248 N256 1.356 . S
C249 C248 1.363 . S
C249 C255 1.363 . S
C250 C251 1.363 . S
C250 C255 1.379 . S
C250 N257 1.356 . S
C251 C250 1.363 . S
C251 C254 1.363 . S
N252 C254 1.356 . S
N252 H264 0.984 . S
N252 H265 0.985 . S
N253 C255 1.356 . S
N253 H258 0.984 . S
N253 H259 0.985 . S
C254 C248 1.379 . S
C254 C251 1.363 . S
C254 N252 1.356 . S
C255 C249 1.363 . S
C255 C250 1.379 . S
C255 N253 1.356 . S
N256 C248 1.356 . S
N256 H262 0.984 . S
N256 H263 0.984 . S
N257 C250 1.356 . S
N257 H260 0.984 . S
N257 H261 0.985 . S
H258 N253 0.984 . S
H259 N253 0.985 . S
H260 N257 0.984 . S
H261 N257 0.985 . S
H262 N256 0.984 . S
H263 N256 0.984 . S
H264 N252 0.984 . S
H265 N252 0.985 . S
C266 C267 1.363 . S
C266 C272 1.379 . S
C266 N274 1.356 . S
C267 C266 1.363 . S
C267 C273 1.363 . S
C268 C269 1.363 . S
C268 C273 1.379 . S
C268 N275 1.356 . S
C269 C268 1.363 . S
C269 C272 1.363 . S
N270 C272 1.356 . S
N270 H282 0.984 . S
N270 H283 0.985 . S
N271 C273 1.356 . S
N271 H276 0.984 . S
N271 H277 0.985 . S
C272 C266 1.379 . S
C272 C269 1.363 . S
C272 N270 1.356 . S
C273 C267 1.363 . S
C273 C268 1.379 . S
C273 N271 1.356 . S
N274 C266 1.356 . S
N274 H280 0.984 . S
N274 H281 0.984 . S
N275 C268 1.356 . S
N275 H278 0.984 . S
N275 H279 0.985 . S
H276 N271 0.984 . S
H277 N271 0.985 . S
H278 N275 0.984 . S
H279 N275 0.985 . S
H280 N274 0.984 . S
H281 N274 0.984 . S
H282 N270 0.984 . S
H283 N270 0.985 . S
C284 C285 1.363 . S
C284 C290 1.379 . S
C284 N292 1.356 . S
C285 C284 1.363 . S
C285 C291 1.363 . S
C286 C287 1.363 . S
C286 C291 1.379 . S
C286 N293 1.356 . S
C287 C286 1.363 . S
C287 C290 1.363 . S
N288 C290 1.356 . S
N288 H300 0.984 . S
N288 H301 0.985 . S
N289 C291 1.356 . S
N289 H294 0.984 . S
N289 H295 0.985 . S
C290 C284 1.379 . S
C290 C287 1.363 . S
C290 N288 1.356 . S
C291 C285 1.363 . S
C291 C286 1.379 . S
C291 N289 1.356 . S
N292 C284 1.356 . S
N292 H298 0.984 . S
N292 H299 0.984 . S
N293 C286 1.356 . S
N293 H296 0.984 . S
N293 H297 0.985 . S
H294 N289 0.984 . S
H295 N289 0.985 . S
H296 N293 0.984 . S
H297 N293 0.985 . S
H298 N292 0.984 . S
H299 N292 0.984 . S
H300 N288 0.984 . S
H301 N288 0.985 . S
C302 C303 1.363 . S
C302 C308 1.379 . S
C302 N310 1.356 . S
C303 C302 1.363 . S
C303 C309 1.363 . S
C304 C305 1.363 . S
C304 C309 1.379 . S
C304 N311 1.356 . S
C305 C304 1.363 . S
C305 C308 1.363 . S
N306 C308 1.356 . S
N306 H318 0.984 . S
N306 H319 0.985 . S
N307 C309 1.356 . S
N307 H312 0.984 . S
N307 H313 0.985 . S
C308 C302 1.379 . S
C308 C305 1.363 . S
C308 N306 1.356 . S
C309 C303 1.363 . S
C309 C304 1.379 . S
C309 N307 1.356 . S
N310 C302 1.356 . S
N310 H316 0.984 . S
N310 H317 0.984 . S
N311 C304 1.356 . S
N311 H314 0.984 . S
N311 H315 0.985 . S
H312 N307 0.984 . S
H313 N307 0.985 . S
H314 N311 0.984 . S
H315 N311 0.985 . S
H316 N310 0.984 . S
H317 N310 0.984 . S
H318 N306 0.984 . S
H319 N306 0.985 . S
C320 C321 1.363 . S
C320 C326 1.379 . S
C320 N328 1.356 . S
C321 C320 1.363 . S
C321 C327 1.363 . S
C322 C323 1.363 . S
C322 C327 1.379 . S
C322 N329 1.356 . S
C323 C322 1.363 . S
C323 C326 1.363 . S
N324 C326 1.356 . S
N324 H336 0.984 . S
N324 H337 0.985 . S
N325 C327 1.356 . S
N325 H330 0.984 . S
N325 H331 0.985 . S
C326 C320 1.379 . S
C326 C323 1.363 . S
C326 N324 1.356 . S
C327 C321 1.363 . S
C327 C322 1.379 . S
C327 N325 1.356 . S
N328 C320 1.356 . S
N328 H334 0.984 . S
N328 H335 0.984 . S
N329 C322 1.356 . S
N329 H332 0.984 . S
N329 H333 0.985 . S
H330 N325 0.984 . S
H331 N325 0.985 . S
H332 N329 0.984 . S
H333 N329 0.985 . S
H334 N328 0.984 . S
H335 N328 0.984 . S
H336 N324 0.984 . S
H337 N324 0.985 . S
C338 C339 1.363 . S
C338 C344 1.379 . S
C338 N346 1.356 . S
C339 C338 1.363 . S
C339 C345 1.363 . S
C340 C341 1.363 . S
C340 C345 1.379 . S
C340 N347 1.356 . S
C341 C340 1.363 . S
C341 C344 1.363 . S
N342 C344 1.356 . S
N342 H354 0.984 . S
N342 H355 0.985 . S
N343 C345 1.356 . S
N343 H348 0.984 . S
N343 H349 0.985 . S
C344 C338 1.379 . S
C344 C341 1.363 . S
C344 N342 1.356 . S
C345 C339 1.363 . S
C345 C340 1.379 . S
C345 N343 1.356 . S
N346 C338 1.356 . S
N346 H352 0.984 . S
N346 H353 0.984 . S
N347 C340 1.356 . S
N347 H350 0.984 . S
N347 H351 0.985 . S
H348 N343 0.984 . S
H349 N343 0.985 . S
H350 N347 0.984 . S
H351 N347 0.985 . S
H352 N346 0.984 . S
H353 N346 0.984 . S
H354 N342 0.984 . S
H355 N342 0.985 . S
C356 C357 1.363 . S
C356 C362 1.379 . S
C356 N364 1.356 . S
C357 C356 1.363 . S
C357 C363 1.363 . S
C358 C359 1.363 . S
C358 C363 1.379 . S
C358 N365 1.356 . S
C359 C358 1.363 . S
C359 C362 1.363 . S
N360 C362 1.356 . S
N360 H372 0.984 . S
N360 H373 0.985 . S
N361 C363 1.356 . S
N361 H366 0.984 . S
N361 H367 0.985 . S
C362 C356 1.379 . S
C362 C359 1.363 . S
C362 N360 1.356 . S
C363 C357 1.363 . S
C363 C358 1.379 . S
C363 N361 1.356 . S
N364 C356 1.356 . S
N364 H370 0.984 . S
N364 H371 0.984 . S
N365 C358 1.356 . S
N365 H368 0.984 . S
N365 H369 0.985 . S
H366 N361 0.984 . S
H367 N361 0.985 . S
H368 N365 0.984 . S
H369 N365 0.985 . S
H370 N364 0.984 . S
H371 N364 0.984 . S
H372 N360 0.984 . S
H373 N360 0.985 . S
C374 C375 1.363 . S
C374 C380 1.379 . S
C374 N382 1.356 . S
C375 C374 1.363 . S
C375 C381 1.363 . S
C376 C377 1.363 . S
C376 C381 1.379 . S
C376 N383 1.356 . S
C377 C376 1.363 . S
C377 C380 1.363 . S
N378 C380 1.356 . S
N378 H390 0.984 . S
N378 H391 0.985 . S
N379 C381 1.356 . S
N379 H384 0.984 . S
N379 H385 0.985 . S
C380 C374 1.379 . S
C380 C377 1.363 . S
C380 N378 1.356 . S
C381 C375 1.363 . S
C381 C376 1.379 . S
C381 N379 1.356 . S
N382 C374 1.356 . S
N382 H388 0.984 . S
N382 H389 0.984 . S
N383 C376 1.356 . S
N383 H386 0.984 . S
N383 H387 0.985 . S
H384 N379 0.984 . S
H385 N379 0.985 . S
H386 N383 0.984 . S
H387 N383 0.985 . S
H388 N382 0.984 . S
H389 N382 0.984 . S
H390 N378 0.984 . S
H391 N378 0.985 . S
C392 C393 1.363 . S
C392 C398 1.379 . S
C392 N400 1.356 . S
C393 C392 1.363 . S
C393 C399 1.363 . S
C394 C395 1.363 . S
C394 C399 1.379 . S
C394 N401 1.356 . S
C395 C394 1.363 . S
C395 C398 1.363 . S
N396 C398 1.356 . S
N396 H408 0.984 . S
N396 H409 0.985 . S
N397 C399 1.356 . S
N397 H402 0.984 . S
N397 H403 0.985 . S
C398 C392 1.379 . S
C398 C395 1.363 . S
C398 N396 1.356 . S
C399 C393 1.363 . S
C399 C394 1.379 . S
C399 N397 1.356 . S
N400 C392 1.356 . S
N400 H406 0.984 . S
N400 H407 0.984 . S
N401 C394 1.356 . S
N401 H404 0.984 . S
N401 H405 0.985 . S
H402 N397 0.984 . S
H403 N397 0.985 . S
H404 N401 0.984 . S
H405 N401 0.985 . S
H406 N400 0.984 . S
H407 N400 0.984 . S
H408 N396 0.984 . S
H409 N396 0.985 . S
C410 C411 1.363 . S
C410 C416 1.379 . S
C410 N418 1.356 . S
C411 C410 1.363 . S
C411 C417 1.363 . S
C412 C413 1.363 . S
C412 C417 1.379 . S
C412 N419 1.356 . S
C413 C412 1.363 . S
C413 C416 1.363 . S
N414 C416 1.356 . S
N414 H426 0.984 . S
N414 H427 0.985 . S
N415 C417 1.356 . S
N415 H420 0.984 . S
N415 H421 0.985 . S
C416 C410 1.379 . S
C416 C413 1.363 . S
C416 N414 1.356 . S
C417 C411 1.363 . S
C417 C412 1.379 . S
C417 N415 1.356 . S
N418 C410 1.356 . S
N418 H424 0.984 . S
N418 H425 0.984 . S
N419 C412 1.356 . S
N419 H422 0.984 . S
N419 H423 0.985 . S
H420 N415 0.984 . S
H421 N415 0.985 . S
H422 N419 0.984 . S
H423 N419 0.985 . S
H424 N418 0.984 . S
H425 N418 0.984 . S
H426 N414 0.984 . S
H427 N414 0.985 . S
C428 C429 1.363 . S
C428 C434 1.379 . S
C428 N436 1.356 . S
C429 C428 1.363 . S
C429 C435 1.363 . S
C430 C431 1.363 . S
C430 C435 1.379 . S
C430 N437 1.356 . S
C431 C430 1.363 . S
C431 C434 1.363 . S
N432 C434 1.356 . S
N432 H444 0.984 . S
N432 H445 0.985 . S
N433 C435 1.356 . S
N433 H438 0.984 . S
N433 H439 0.985 . S
C434 C428 1.379 . S
C434 C431 1.363 . S
C434 N432 1.356 . S
C435 C429 1.363 . S
C435 C430 1.379 . S
C435 N433 1.356 . S
N436 C428 1.356 . S
N436 H442 0.984 . S
N436 H443 0.984 . S
N437 C430 1.356 . S
N437 H440 0.984 . S
N437 H441 0.985 . S
H438 N433 0.984 . S
H439 N433 0.985 . S
H440 N437 0.984 . S
H441 N437 0.985 . S
H442 N436 0.984 . S
H443 N436 0.984 . S
H444 N432 0.984 . S
H445 N432 0.985 . S
C446 C447 1.363 . S
C446 C452 1.379 . S
C446 N454 1.356 . S
C447 C446 1.363 . S
C447 C453 1.363 . S
C448 C449 1.363 . S
C448 C453 1.379 . S
C448 N455 1.356 . S
C449 C448 1.363 . S
C449 C452 1.363 . S
N450 C452 1.356 . S
N450 H462 0.984 . S
N450 H463 0.985 . S
N451 C453 1.356 . S
N451 H456 0.984 . S
N451 H457 0.985 . S
C452 C446 1.379 . S
C452 C449 1.363 . S
C452 N450 1.356 . S
C453 C447 1.363 . S
C453 C448 1.379 . S
C453 N451 1.356 . S
N454 C446 1.356 . S
N454 H460 0.984 . S
N454 H461 0.984 . S
N455 C448 1.356 . S
N455 H458 0.984 . S
N455 H459 0.985 . S
H456 N451 0.984 . S
H457 N451 0.985 . S
H458 N455 0.984 . S
H459 N455 0.985 . S
H460 N454 0.984 . S
H461 N454 0.984 . S
H462 N450 0.984 . S
H463 N450 0.985 . S
C464 C465 1.363 1_556 S
C464 C470 1.379 . S
C464 N472 1.356 . S
C465 C464 1.363 1_554 S
C465 C471 1.363 . S
C466 C467 1.353 1_554 S
C466 C471 1.379 . S
C466 N473 1.356 . S
C467 C466 1.353 1_556 S
C467 C470 1.374 . S
N468 C470 1.356 . S
N468 H480 0.984 . S
N468 H481 0.985 . S
N469 C471 1.356 . S
N469 H474 0.984 . S
N469 H475 0.985 . S
C470 C464 1.379 . S
C470 C467 1.374 . S
C470 N468 1.356 . S
C471 C465 1.363 . S
C471 C466 1.379 . S
C471 N469 1.356 . S
N472 C464 1.356 . S
N472 H478 0.984 . S
N472 H479 0.984 . S
N473 C466 1.356 . S
N473 H476 0.984 . S
N473 H477 0.985 . S
H474 N469 0.984 . S
H475 N469 0.985 . S
H476 N473 0.984 . S
H477 N473 0.985 . S
H478 N472 0.984 . S
H479 N472 0.984 . S
H480 N468 0.984 . S
H481 N468 0.985 . S
C482 C483 1.363 . S
C482 C488 1.379 . S
C482 N490 1.356 . S
C483 C482 1.363 . S
C483 C489 1.363 . S
C484 C485 1.363 . S
C484 C489 1.379 . S
C484 N491 1.356 . S
C485 C484 1.363 . S
C485 C488 1.363 . S
N486 C488 1.356 . S
N486 H498 0.984 . S
N486 H499 0.985 . S
N487 C489 1.356 . S
N487 H492 0.984 . S
N487 H493 0.985 . S
C488 C482 1.379 . S
C488 C485 1.363 . S
C488 N486 1.356 . S
C489 C483 1.363 . S
C489 C484 1.379 . S
C489 N487 1.356 . S
N490 C482 1.356 . S
N490 H496 0.984 . S
N490 H497 0.984 . S
N491 C484 1.356 . S
N491 H494 0.984 . S
N491 H495 0.985 . S
H492 N487 0.984 . S
H493 N487 0.985 . S
H494 N491 0.984 . S
H495 N491 0.985 . S
H496 N490 0.984 . S
H497 N490 0.984 . S
H498 N486 0.984 . S
H499 N486 0.985 . S
C500 C501 1.363 1_556 S
C500 C506 1.379 . S
C500 N508 1.356 . S
C501 C500 1.363 1_554 S
C501 C507 1.363 . S
C502 C503 1.363 . S
C502 C507 1.379 . S
C502 N509 1.356 . S
C503 C502 1.363 . S
C503 C506 1.363 1_554 S
N504 C506 1.356 . S
N504 H516 0.984 . S
N504 H517 0.985 . S
N505 C507 1.356 . S
N505 H510 0.984 . S
N505 H511 0.985 . S
C506 C500 1.379 . S
C506 C503 1.363 1_556 S
C506 N504 1.356 . S
C507 C501 1.363 . S
C507 C502 1.379 . S
C507 N505 1.356 . S
N508 C500 1.356 . S
N508 H514 0.984 . S
N508 H515 0.984 . S
N509 C502 1.356 . S
N509 H512 0.984 . S
N509 H513 0.985 . S
H510 N505 0.984 . S
H511 N505 0.985 . S
H512 N509 0.984 . S
H513 N509 0.985 . S
H514 N508 0.984 . S
H515 N508 0.984 . S
H516 N504 0.984 . S
H517 N504 0.985 . S
C518 C519 1.363 . S
C518 C524 1.379 . S
C518 N526 1.356 . S
C519 C518 1.363 . S
C519 C525 1.363 . S
C520 C521 1.363 . S
C520 C525 1.379 . S
C520 N527 1.356 . S
C521 C520 1.363 . S
C521 C524 1.363 . S
N522 C524 1.356 . S
N522 H534 0.984 . S
N522 H535 0.985 . S
N523 C525 1.356 . S
N523 H528 0.984 . S
N523 H529 0.985 . S
C524 C518 1.379 . S
C524 C521 1.363 . S
C524 N522 1.356 . S
C525 C519 1.363 . S
C525 C520 1.379 . S
C525 N523 1.356 . S
N526 C518 1.356 . S
N526 H532 0.984 . S
N526 H533 0.984 . S
N527 C520 1.356 . S
N527 H530 0.984 . S
N527 H531 0.985 . S
H528 N523 0.984 . S
H529 N523 0.985 . S
H530 N527 0.984 . S
H531 N527 0.985 . S
H532 N526 0.984 . S
H533 N526 0.984 . S
H534 N522 0.984 . S
H535 N522 0.985 . S
C536 C537 1.363 . S
C536 C542 1.379 . S
C536 N544 1.356 . S
C537 C536 1.363 . S
C537 C543 1.363 . S
C538 C539 1.363 . S
C538 C543 1.379 . S
C538 N545 1.356 . S
C539 C538 1.363 . S
C539 C542 1.363 . S
N540 C542 1.356 . S
N540 H552 0.984 . S
N540 H553 0.985 . S
N541 C543 1.356 . S
N541 H546 0.984 . S
N541 H547 0.985 . S
C542 C536 1.379 . S
C542 C539 1.363 . S
C542 N540 1.356 . S
C543 C537 1.363 . S
C543 C538 1.379 . S
C543 N541 1.356 . S
N544 C536 1.356 . S
N544 H550 0.984 . S
N544 H551 0.984 . S
N545 C538 1.356 . S
N545 H548 0.984 . S
N545 H549 0.985 . S
H546 N541 0.984 . S
H547 N541 0.985 . S
H548 N545 0.984 . S
H549 N545 0.985 . S
H550 N544 0.984 . S
H551 N544 0.984 . S
H552 N540 0.984 . S
H553 N540 0.985 . S
C554 C555 1.363 . S
C554 C560 1.379 . S
C554 N562 1.356 . S
C555 C554 1.363 . S
C555 C561 1.363 1_554 S
C556 C557 1.363 1_556 S
C556 C561 1.379 . S
C556 N563 1.356 . S
C557 C556 1.363 1_554 S
C557 C560 1.363 . S
N558 C560 1.356 . S
N558 H570 0.984 . S
N558 H571 0.985 . S
N559 C561 1.356 . S
N559 H564 0.984 . S
N559 H565 0.985 . S
C560 C554 1.379 . S
C560 C557 1.363 . S
C560 N558 1.356 . S
C561 C555 1.363 1_556 S
C561 C556 1.379 . S
C561 N559 1.356 . S
N562 C554 1.356 . S
N562 H568 0.984 . S
N562 H569 0.984 . S
N563 C556 1.356 . S
N563 H566 0.984 . S
N563 H567 0.985 . S
H564 N559 0.984 . S
H565 N559 0.985 . S
H566 N563 0.984 . S
H567 N563 0.985 . S
H568 N562 0.984 . S
H569 N562 0.984 . S
H570 N558 0.984 . S
H571 N558 0.985 . S
C572 C573 1.363 . S
C572 C578 1.379 . S
C572 N580 1.356 . S
C573 C572 1.363 . S
C573 C579 1.363 . S
C574 C575 1.363 . S
C574 C579 1.379 . S
C574 N581 1.356 . S
C575 C574 1.363 . S
C575 C578 1.363 . S
N576 C578 1.356 . S
N576 H588 0.984 . S
N576 H589 0.985 . S
N577 C579 1.356 . S
N577 H582 0.984 . S
N577 H583 0.985 . S
C578 C572 1.379 . S
C578 C575 1.363 . S
C578 N576 1.356 . S
C579 C573 1.363 . S
C579 C574 1.379 . S
C579 N577 1.356 . S
N580 C572 1.356 . S
N580 H586 0.984 . S
N580 H587 0.984 . S
N581 C574 1.356 . S
N581 H584 0.984 . S
N581 H585 0.985 . S
H582 N577 0.984 . S
H583 N577 0.985 . S
H584 N581 0.984 . S
H585 N581 0.985 . S
H586 N580 0.984 . S
H587 N580 0.984 . S
H588 N576 0.984 . S
H589 N576 0.985 . S
C590 C591 1.363 . S
C590 C596 1.379 . S
C590 N598 1.356 . S
C591 C590 1.363 . S
C591 C597 1.363 1_554 S
C592 C593 1.366 . S
C592 C597 1.379 . S
C592 N599 1.356 . S
C593 C592 1.366 . S
C593 C596 1.361 1_556 S
N594 C596 1.356 . S
N594 H606 0.984 . S
N594 H607 0.985 . S
N595 C597 1.356 . S
N595 H600 0.984 . S
N595 H601 0.985 . S
C596 C590 1.379 . S
C596 C593 1.361 1_554 S
C596 N594 1.356 . S
C597 C591 1.363 1_556 S
C597 C592 1.379 . S
C597 N595 1.356 . S
N598 C590 1.356 . S
N598 H604 0.984 . S
N598 H605 0.984 . S
N599 C592 1.356 . S
N599 H602 0.984 . S
N599 H603 0.985 . S
H600 N595 0.984 . S
H601 N595 0.985 . S
H602 N599 0.984 . S
H603 N599 0.985 . S
H604 N598 0.984 . S
H605 N598 0.984 . S
H606 N594 0.984 . S
H607 N594 0.985 . S
C177 C5 1.467 . S
C179 C126 1.350 . S
C195 C31 1.542 . S
C197 C95 1.489 . S
C215 C106 1.456 . S
C213 C53 1.488 . S
C231 C71 1.417 . S
C233 C115 1.298 . S
C251 C150 1.489 . S
C249 C75 1.542 . S
C269 C159 1.350 . S
C267 C9 1.467 . S
C287 C170 1.298 . S
C285 C27 1.417 . S
C305 C139 1.456 . S
C303 C49 1.488 . S
C321 C51 1.467 . S
C323 C104 1.196 . S
C339 C72 1.541 . S
C341 C117 1.546 . S
C357 C6 1.488 . S
C359 C128 1.498 . S
C377 C93 1.185 . S
C375 C29 1.417 . S
C393 C28 1.542 . S
C395 C172 1.546 . S
C413 C137 1.196 . S
C411 C50 1.467 . S
C431 C148 1.185 . S
C429 C73 1.417 . S
C447 C7 1.488 . S
C449 C161 1.498 . S
C467 C96 1.498 . S
C465 C4 1.520 . S
C485 C107 1.500 . S
C483 C30 1.525 . S
C501 C52 1.520 . S
C503 C118 1.530 . S
C519 C70 1.525 . S
C521 C129 1.533 . S
C539 C140 1.500 . S
C537 C74 1.525 . S
C555 C8 1.520 . S
C557 C151 1.498 . S
C573 C26 1.524 . S
C575 C162 1.532 . S
C591 C48 1.520 . S
C593 C173 1.528 . S
