# Generated by pormake.
# Topology gar, (4,6)-cn, num edge types: 1
# Building blocks:
#     Node 0, Type 0, BuildingBlock: GALJAG_clean_sbu_0, # of connection points: 4
#     Node 1, Type 0, BuildingBlock: GALJAG_clean_sbu_0, # of connection points: 4
#     Node 2, Type 0, BuildingBlock: GALJAG_clean_sbu_0, # of connection points: 4
#     Node 3, Type 0, BuildingBlock: GALJAG_clean_sbu_0, # of connection points: 4
#     Node 4, Type 0, BuildingBlock: GALJAG_clean_sbu_0, # of connection points: 4
#     Node 5, Type 0, BuildingBlock: GALJAG_clean_sbu_0, # of connection points: 4
#     Node 6, Type 0, BuildingBlock: GALJAG_clean_sbu_0, # of connection points: 4
#     Node 7, Type 0, BuildingBlock: GALJAG_clean_sbu_0, # of connection points: 4
#     Node 8, Type 0, BuildingBlock: GALJAG_clean_sbu_0, # of connection points: 4
#     Node 9, Type 0, BuildingBlock: GALJAG_clean_sbu_0, # of connection points: 4
#     Node 10, Type 0, BuildingBlock: GALJAG_clean_sbu_0, # of connection points: 4
#     Node 11, Type 0, BuildingBlock: GALJAG_clean_sbu_0, # of connection points: 4
#     Node 12, Type 0, BuildingBlock: GALJAG_clean_sbu_0, # of connection points: 4
#     Node 13, Type 0, BuildingBlock: GALJAG_clean_sbu_0, # of connection points: 4
#     Node 14, Type 0, BuildingBlock: GALJAG_clean_sbu_0, # of connection points: 4
#     Node 15, Type 0, BuildingBlock: GALJAG_clean_sbu_0, # of connection points: 4
#     Node 16, Type 0, BuildingBlock: GALJAG_clean_sbu_0, # of connection points: 4
#     Node 17, Type 0, BuildingBlock: GALJAG_clean_sbu_0, # of connection points: 4
#     Node 18, Type 0, BuildingBlock: GALJAG_clean_sbu_0, # of connection points: 4
#     Node 19, Type 0, BuildingBlock: GALJAG_clean_sbu_0, # of connection points: 4
#     Node 20, Type 0, BuildingBlock: GALJAG_clean_sbu_0, # of connection points: 4
#     Node 21, Type 0, BuildingBlock: GALJAG_clean_sbu_0, # of connection points: 4
#     Node 22, Type 0, BuildingBlock: GALJAG_clean_sbu_0, # of connection points: 4
#     Node 23, Type 0, BuildingBlock: GALJAG_clean_sbu_0, # of connection points: 4
#     Node 24, Type 1, BuildingBlock: CUKXOW_clean_sbu_0, # of connection points: 6
#     Node 25, Type 1, BuildingBlock: CUKXOW_clean_sbu_0, # of connection points: 6
#     Node 26, Type 1, BuildingBlock: CUKXOW_clean_sbu_0, # of connection points: 6
#     Node 27, Type 1, BuildingBlock: CUKXOW_clean_sbu_0, # of connection points: 6
#     Node 28, Type 1, BuildingBlock: CUKXOW_clean_sbu_0, # of connection points: 6
#     Node 29, Type 1, BuildingBlock: CUKXOW_clean_sbu_0, # of connection points: 6
#     Node 30, Type 1, BuildingBlock: CUKXOW_clean_sbu_0, # of connection points: 6
#     Node 31, Type 1, BuildingBlock: CUKXOW_clean_sbu_0, # of connection points: 6
#     Node 32, Type 1, BuildingBlock: CUKXOW_clean_sbu_0, # of connection points: 6
#     Node 33, Type 1, BuildingBlock: CUKXOW_clean_sbu_0, # of connection points: 6
#     Node 34, Type 1, BuildingBlock: CUKXOW_clean_sbu_0, # of connection points: 6
#     Node 35, Type 1, BuildingBlock: CUKXOW_clean_sbu_0, # of connection points: 6
#     Node 36, Type 1, BuildingBlock: CUKXOW_clean_sbu_0, # of connection points: 6
#     Node 37, Type 1, BuildingBlock: CUKXOW_clean_sbu_0, # of connection points: 6
#     Node 38, Type 1, BuildingBlock: CUKXOW_clean_sbu_0, # of connection points: 6
#     Node 39, Type 1, BuildingBlock: CUKXOW_clean_sbu_0, # of connection points: 6
#     Edge 40, Type (0, 1), BuildingBlock: OJICUG_clean_linker_0, # of connection points: 2
#     Edge 41, Type (0, 1), BuildingBlock: OJICUG_clean_linker_0, # of connection points: 2
#     Edge 42, Type (0, 1), BuildingBlock: OJICUG_clean_linker_0, # of connection points: 2
#     Edge 43, Type (0, 1), BuildingBlock: OJICUG_clean_linker_0, # of connection points: 2
#     Edge 44, Type (0, 1), BuildingBlock: OJICUG_clean_linker_0, # of connection points: 2
#     Edge 45, Type (0, 1), BuildingBlock: OJICUG_clean_linker_0, # of connection points: 2
#     Edge 46, Type (0, 1), BuildingBlock: OJICUG_clean_linker_0, # of connection points: 2
#     Edge 47, Type (0, 1), BuildingBlock: OJICUG_clean_linker_0, # of connection points: 2
#     Edge 48, Type (0, 1), BuildingBlock: OJICUG_clean_linker_0, # of connection points: 2
#     Edge 49, Type (0, 1), BuildingBlock: OJICUG_clean_linker_0, # of connection points: 2
#     Edge 50, Type (0, 1), BuildingBlock: OJICUG_clean_linker_0, # of connection points: 2
#     Edge 51, Type (0, 1), BuildingBlock: OJICUG_clean_linker_0, # of connection points: 2
#     Edge 52, Type (0, 1), BuildingBlock: OJICUG_clean_linker_0, # of connection points: 2
#     Edge 53, Type (0, 1), BuildingBlock: OJICUG_clean_linker_0, # of connection points: 2
#     Edge 54, Type (0, 1), BuildingBlock: OJICUG_clean_linker_0, # of connection points: 2
#     Edge 55, Type (0, 1), BuildingBlock: OJICUG_clean_linker_0, # of connection points: 2
#     Edge 56, Type (0, 1), BuildingBlock: OJICUG_clean_linker_0, # of connection points: 2
#     Edge 57, Type (0, 1), BuildingBlock: OJICUG_clean_linker_0, # of connection points: 2
#     Edge 58, Type (0, 1), BuildingBlock: OJICUG_clean_linker_0, # of connection points: 2
#     Edge 59, Type (0, 1), BuildingBlock: OJICUG_clean_linker_0, # of connection points: 2
#     Edge 60, Type (0, 1), BuildingBlock: OJICUG_clean_linker_0, # of connection points: 2
#     Edge 61, Type (0, 1), BuildingBlock: OJICUG_clean_linker_0, # of connection points: 2
#     Edge 62, Type (0, 1), BuildingBlock: OJICUG_clean_linker_0, # of connection points: 2
#     Edge 63, Type (0, 1), BuildingBlock: OJICUG_clean_linker_0, # of connection points: 2
#     Edge 64, Type (0, 1), BuildingBlock: OJICUG_clean_linker_0, # of connection points: 2
#     Edge 65, Type (0, 1), BuildingBlock: OJICUG_clean_linker_0, # of connection points: 2
#     Edge 66, Type (0, 1), BuildingBlock: OJICUG_clean_linker_0, # of connection points: 2
#     Edge 67, Type (0, 1), BuildingBlock: OJICUG_clean_linker_0, # of connection points: 2
#     Edge 68, Type (0, 1), BuildingBlock: OJICUG_clean_linker_0, # of connection points: 2
#     Edge 69, Type (0, 1), BuildingBlock: OJICUG_clean_linker_0, # of connection points: 2
#     Edge 70, Type (0, 1), BuildingBlock: OJICUG_clean_linker_0, # of connection points: 2
#     Edge 71, Type (0, 1), BuildingBlock: OJICUG_clean_linker_0, # of connection points: 2
#     Edge 72, Type (0, 1), BuildingBlock: OJICUG_clean_linker_0, # of connection points: 2
#     Edge 73, Type (0, 1), BuildingBlock: OJICUG_clean_linker_0, # of connection points: 2
#     Edge 74, Type (0, 1), BuildingBlock: OJICUG_clean_linker_0, # of connection points: 2
#     Edge 75, Type (0, 1), BuildingBlock: OJICUG_clean_linker_0, # of connection points: 2
#     Edge 76, Type (0, 1), BuildingBlock: OJICUG_clean_linker_0, # of connection points: 2
#     Edge 77, Type (0, 1), BuildingBlock: OJICUG_clean_linker_0, # of connection points: 2
#     Edge 78, Type (0, 1), BuildingBlock: OJICUG_clean_linker_0, # of connection points: 2
#     Edge 79, Type (0, 1), BuildingBlock: OJICUG_clean_linker_0, # of connection points: 2
#     Edge 80, Type (0, 1), BuildingBlock: OJICUG_clean_linker_0, # of connection points: 2
#     Edge 81, Type (0, 1), BuildingBlock: OJICUG_clean_linker_0, # of connection points: 2
#     Edge 82, Type (0, 1), BuildingBlock: OJICUG_clean_linker_0, # of connection points: 2
#     Edge 83, Type (0, 1), BuildingBlock: OJICUG_clean_linker_0, # of connection points: 2
#     Edge 84, Type (0, 1), BuildingBlock: OJICUG_clean_linker_0, # of connection points: 2
#     Edge 85, Type (0, 1), BuildingBlock: OJICUG_clean_linker_0, # of connection points: 2
#     Edge 86, Type (0, 1), BuildingBlock: OJICUG_clean_linker_0, # of connection points: 2
#     Edge 87, Type (0, 1), BuildingBlock: OJICUG_clean_linker_0, # of connection points: 2
#     Edge 88, Type (0, 1), BuildingBlock: OJICUG_clean_linker_0, # of connection points: 2
#     Edge 89, Type (0, 1), BuildingBlock: OJICUG_clean_linker_0, # of connection points: 2
#     Edge 90, Type (0, 1), BuildingBlock: OJICUG_clean_linker_0, # of connection points: 2
#     Edge 91, Type (0, 1), BuildingBlock: OJICUG_clean_linker_0, # of connection points: 2
#     Edge 92, Type (0, 1), BuildingBlock: OJICUG_clean_linker_0, # of connection points: 2
#     Edge 93, Type (0, 1), BuildingBlock: OJICUG_clean_linker_0, # of connection points: 2
#     Edge 94, Type (0, 1), BuildingBlock: OJICUG_clean_linker_0, # of connection points: 2
#     Edge 95, Type (0, 1), BuildingBlock: OJICUG_clean_linker_0, # of connection points: 2
#     Edge 96, Type (0, 1), BuildingBlock: OJICUG_clean_linker_0, # of connection points: 2
#     Edge 97, Type (0, 1), BuildingBlock: OJICUG_clean_linker_0, # of connection points: 2
#     Edge 98, Type (0, 1), BuildingBlock: OJICUG_clean_linker_0, # of connection points: 2
#     Edge 99, Type (0, 1), BuildingBlock: OJICUG_clean_linker_0, # of connection points: 2
#     Edge 100, Type (0, 1), BuildingBlock: OJICUG_clean_linker_0, # of connection points: 2
#     Edge 101, Type (0, 1), BuildingBlock: OJICUG_clean_linker_0, # of connection points: 2
#     Edge 102, Type (0, 1), BuildingBlock: OJICUG_clean_linker_0, # of connection points: 2
#     Edge 103, Type (0, 1), BuildingBlock: OJICUG_clean_linker_0, # of connection points: 2
#     Edge 104, Type (0, 1), BuildingBlock: OJICUG_clean_linker_0, # of connection points: 2
#     Edge 105, Type (0, 1), BuildingBlock: OJICUG_clean_linker_0, # of connection points: 2
#     Edge 106, Type (0, 1), BuildingBlock: OJICUG_clean_linker_0, # of connection points: 2
#     Edge 107, Type (0, 1), BuildingBlock: OJICUG_clean_linker_0, # of connection points: 2
#     Edge 108, Type (0, 1), BuildingBlock: OJICUG_clean_linker_0, # of connection points: 2
#     Edge 109, Type (0, 1), BuildingBlock: OJICUG_clean_linker_0, # of connection points: 2
#     Edge 110, Type (0, 1), BuildingBlock: OJICUG_clean_linker_0, # of connection points: 2
#     Edge 111, Type (0, 1), BuildingBlock: OJICUG_clean_linker_0, # of connection points: 2
#     Edge 112, Type (0, 1), BuildingBlock: OJICUG_clean_linker_0, # of connection points: 2
#     Edge 113, Type (0, 1), BuildingBlock: OJICUG_clean_linker_0, # of connection points: 2
#     Edge 114, Type (0, 1), BuildingBlock: OJICUG_clean_linker_0, # of connection points: 2
#     Edge 115, Type (0, 1), BuildingBlock: OJICUG_clean_linker_0, # of connection points: 2
#     Edge 116, Type (0, 1), BuildingBlock: OJICUG_clean_linker_0, # of connection points: 2
#     Edge 117, Type (0, 1), BuildingBlock: OJICUG_clean_linker_0, # of connection points: 2
#     Edge 118, Type (0, 1), BuildingBlock: OJICUG_clean_linker_0, # of connection points: 2
#     Edge 119, Type (0, 1), BuildingBlock: OJICUG_clean_linker_0, # of connection points: 2
#     Edge 120, Type (0, 1), BuildingBlock: OJICUG_clean_linker_0, # of connection points: 2
#     Edge 121, Type (0, 1), BuildingBlock: OJICUG_clean_linker_0, # of connection points: 2
#     Edge 122, Type (0, 1), BuildingBlock: OJICUG_clean_linker_0, # of connection points: 2
#     Edge 123, Type (0, 1), BuildingBlock: OJICUG_clean_linker_0, # of connection points: 2
#     Edge 124, Type (0, 1), BuildingBlock: OJICUG_clean_linker_0, # of connection points: 2
#     Edge 125, Type (0, 1), BuildingBlock: OJICUG_clean_linker_0, # of connection points: 2
#     Edge 126, Type (0, 1), BuildingBlock: OJICUG_clean_linker_0, # of connection points: 2
#     Edge 127, Type (0, 1), BuildingBlock: OJICUG_clean_linker_0, # of connection points: 2
#     Edge 128, Type (0, 1), BuildingBlock: OJICUG_clean_linker_0, # of connection points: 2
#     Edge 129, Type (0, 1), BuildingBlock: OJICUG_clean_linker_0, # of connection points: 2
#     Edge 130, Type (0, 1), BuildingBlock: OJICUG_clean_linker_0, # of connection points: 2
#     Edge 131, Type (0, 1), BuildingBlock: OJICUG_clean_linker_0, # of connection points: 2
#     Edge 132, Type (0, 1), BuildingBlock: OJICUG_clean_linker_0, # of connection points: 2
#     Edge 133, Type (0, 1), BuildingBlock: OJICUG_clean_linker_0, # of connection points: 2
#     Edge 134, Type (0, 1), BuildingBlock: OJICUG_clean_linker_0, # of connection points: 2
#     Edge 135, Type (0, 1), BuildingBlock: OJICUG_clean_linker_0, # of connection points: 2
# Relax obj value: 0.139
# Max RMSD: 0.233
# Mean RMSD: 0.146
data_MOF--net-gar--node1-GALJAG_clean_sbu_0--node2-CUKXOW_clean_sbu_0--edge1-OJICUG_clean_linker_0
_symmetry_space_group_name_H-M    P1
_symmetry_Int_Tables_number       1
_symmetry_cell_setting            triclinic
loop_
_symmetry_equiv_pos_as_xyz
'x, y, z'
_cell_length_a     40.850761
_cell_length_b     39.429418
_cell_length_c     39.322475
_cell_angle_alpha  93.961987
_cell_angle_beta   94.851109
_cell_angle_gamma 97.958151
loop_
_atom_site_label
_atom_site_type_symbol
_atom_site_fract_x
_atom_site_fract_y
_atom_site_fract_z
_atom_type_partial_charge
In0 In 0.04495 0.27301 0.44281 0.0
O1 O 0.07107 0.2878 0.39609 0.0
O2 O 0.08494 0.24516 0.42085 0.0
C3 C 0.98808 0.27123 0.4027 0.0
C4 C 0.0446 0.2187 0.47968 0.0
C5 C 0.05101 0.33003 0.48602 0.0
O6 O 0.01396 0.29156 0.3992 0.0
O7 O 0.99058 0.25227 0.42706 0.0
O8 O 0.07477 0.32245 0.46985 0.0
O9 O 0.02491 0.30856 0.48086 0.0
C10 C 0.08788 0.26337 0.39591 0.0
O11 O 0.06259 0.24696 0.48971 0.0
O12 O 0.02727 0.2183 0.45145 0.0
In13 In 1.00371 0.78912 0.60919 0.0
O14 O 0.02223 0.82531 0.57025 0.0
O15 O 0.97637 0.83134 0.59009 0.0
C16 C 0.99592 0.73309 0.56462 0.0
C17 C 0.0586 0.79043 0.65164 0.0
C18 C 0.96314 0.79183 0.65874 0.0
O19 O 0.97183 0.74287 0.57872 0.0
O20 O 0.02338 0.75198 0.57245 0.0
O21 O 0.98568 0.81631 0.65527 0.0
O22 O 0.96061 0.76652 0.63661 0.0
C23 C 0.99828 0.84218 0.57121 0.0
O24 O 0.05438 0.81441 0.6329 0.0
O25 O 0.03558 0.76531 0.64817 0.0
In26 In 0.54466 0.77188 0.95005 0.0
O27 O 0.55666 0.76384 0.89502 0.0
O28 O 0.5933 0.75613 0.93405 0.0
C29 C 0.48808 0.77477 0.91179 0.0
C30 C 0.54272 0.71725 0.98693 0.0
C31 C 0.55397 0.83127 0.99039 0.0
O32 O 0.51373 0.79656 0.91097 0.0
O33 O 0.49088 0.75199 0.93251 0.0
O34 O 0.53148 0.80682 0.99364 0.0
O35 O 0.57264 0.82543 0.96739 0.0
C36 C 0.58473 0.75534 0.90243 0.0
O37 O 0.51835 0.72281 0.96728 0.0
O38 O 0.56812 0.73973 0.98852 0.0
In39 In 0.49691 0.28893 0.11424 0.0
O40 O 0.46635 0.23968 0.08702 0.0
O41 O 0.5155 0.25385 0.07442 0.0
C42 C 0.49915 0.34173 0.07532 0.0
C43 C 0.45609 0.30165 0.16245 0.0
C44 C 0.55223 0.2909 0.15663 0.0
O45 O 0.5241 0.33519 0.09356 0.0
O46 O 0.47273 0.32087 0.076 0.0
O47 O 0.54793 0.31426 0.13712 0.0
O48 O 0.52881 0.26619 0.15439 0.0
C49 C 0.48945 0.23236 0.06976 0.0
O50 O 0.46115 0.32083 0.13858 0.0
O51 O 0.47007 0.27515 0.16089 0.0
In52 In 1.00595 0.76211 0.1797 0.0
O53 O 0.98476 0.71154 0.14644 0.0
O54 O 0.03676 0.72648 0.15294 0.0
C55 C 0.0076 0.81421 0.13848 0.0
C56 C 0.94876 0.76099 0.21218 0.0
C57 C 0.06346 0.77559 0.2226 0.0
O58 O 0.99971 0.78327 0.1267 0.0
O59 O 0.01434 0.8185 0.17055 0.0
O60 O 0.04337 0.74804 0.22211 0.0
O61 O 0.05364 0.7969 0.20302 0.0
C62 C 0.01289 0.70472 0.13969 0.0
O63 O 0.97351 0.74819 0.22421 0.0
O64 O 0.95295 0.77403 0.18433 0.0
In65 In 0.53618 0.79775 0.37843 0.0
O66 O 0.56345 0.79128 0.32976 0.0
O67 O 0.59311 0.80637 0.37633 0.0
C68 C 0.47519 0.78844 0.34159 0.0
C69 C 0.54127 0.74452 0.417 0.0
C70 C 0.53001 0.85375 0.42012 0.0
O71 O 0.49593 0.81535 0.34139 0.0
O72 O 0.48558 0.76603 0.35935 0.0
O73 O 0.51891 0.82348 0.42586 0.0
O74 O 0.54443 0.85615 0.393 0.0
C75 C 0.59242 0.79842 0.3447 0.0
O76 O 0.55021 0.77527 0.42885 0.0
O77 O 0.53049 0.74078 0.38571 0.0
In78 In 0.50786 0.26051 0.68191 0.0
O79 O 0.49274 0.20357 0.66098 0.0
O80 O 0.53159 0.23362 0.63948 0.0
C81 C 0.50444 0.31425 0.64365 0.0
C82 C 0.45051 0.25844 0.71382 0.0
C83 C 0.56733 0.2721 0.72178 0.0
O84 O 0.49778 0.28355 0.63084 0.0
O85 O 0.51248 0.31762 0.67559 0.0
O86 O 0.54808 0.24389 0.71968 0.0
O87 O 0.55596 0.29477 0.70517 0.0
C88 C 0.51393 0.20479 0.63934 0.0
O89 O 0.47755 0.25293 0.72897 0.0
O90 O 0.45235 0.26421 0.68294 0.0
In91 In 0.03834 0.29705 0.87971 0.0
O92 O 0.0173 0.26824 0.92373 0.0
O93 O 0.06024 0.25311 0.90383 0.0
C94 C 0.03665 0.35894 0.91451 0.0
C95 C 0.09378 0.29598 0.845 0.0
C96 C 0.97888 0.28267 0.83996 0.0
O97 O 0.04938 0.33515 0.92795 0.0
O98 O 0.02609 0.35204 0.88344 0.0
O99 O 0.99985 0.30889 0.83757 0.0
O100 O 0.98854 0.26261 0.8611 0.0
C101 C 0.03926 0.24869 0.92546 0.0
O102 O 0.06566 0.27967 0.83394 0.0
O103 O 0.0938 0.3138 0.87289 0.0
In104 In 0.41539 0.08002 0.26082 0.0
O105 O 0.45671 0.10012 0.2266 0.0
O106 O 0.42672 0.05269 0.21055 0.0
C107 C 0.44678 0.08223 0.32585 0.0
C108 C 0.37872 0.13199 0.25066 0.0
C109 C 0.37592 0.01967 0.26386 0.0
O110 O 0.46217 0.08032 0.29939 0.0
O111 O 0.41651 0.08443 0.31946 0.0
O112 O 0.36551 0.04816 0.26808 0.0
O113 O 0.40597 0.02168 0.2579 0.0
C114 C 0.45045 0.07468 0.2044 0.0
O115 O 0.37135 0.10239 0.23536 0.0
O116 O 0.40567 0.13611 0.26978 0.0
In117 In 0.26408 0.14146 0.49676 0.0
O118 O 0.24164 0.17699 0.53254 0.0
O119 O 0.29444 0.18032 0.53558 0.0
C120 C 0.27184 0.18484 0.44809 0.0
C121 C 0.30777 0.09913 0.51073 0.0
C122 C 0.20882 0.09616 0.49465 0.0
O123 O 0.29411 0.16703 0.4568 0.0
O124 O 0.24517 0.17844 0.46185 0.0
O125 O 0.21942 0.10712 0.46759 0.0
O126 O 0.22591 0.10825 0.52202 0.0
C127 C 0.26948 0.19132 0.54666 0.0
O128 O 0.29442 0.09986 0.48057 0.0
O129 O 0.29962 0.12023 0.53284 0.0
In130 In 0.17256 0.00982 0.81452 0.0
O131 O 0.12148 0.00976 0.78668 0.0
O132 O 0.15868 0.99268 0.75799 0.0
C133 C 0.13372 0.01104 0.86713 0.0
C134 C 0.20892 0.95748 0.81492 0.0
C135 C 0.20934 0.07161 0.80833 0.0
O136 O 0.13705 0.03416 0.84664 0.0
O137 O 0.15133 0.98754 0.8623 0.0
O138 O 0.20604 0.05968 0.83706 0.0
O139 O 0.19539 0.05187 0.78319 0.0
C140 C 0.12917 0.99865 0.75809 0.0
O141 O 0.22131 0.9878 0.82605 0.0
O142 O 0.1783 0.95365 0.80538 0.0
In143 In 0.22605 0.89416 0.04419 0.0
O144 O 0.21953 0.84342 0.07169 0.0
O145 O 0.23751 0.8894 0.1024 0.0
C146 C 0.22698 0.85314 0.98437 0.0
C147 C 0.17695 0.93645 0.04608 0.0
C148 C 0.28557 0.93456 0.04302 0.0
O149 O 0.20203 0.86731 0.99103 0.0
O150 O 0.24985 0.85777 1.00851 0.0
O151 O 0.2638 0.92928 0.01785 0.0
O152 O 0.27696 0.92052 0.06937 0.0
C153 C 0.23038 0.85711 0.10131 0.0
O154 O 0.17281 0.90622 0.05542 0.0
O155 O 0.20511 0.94486 0.03591 0.0
In156 In 0.27518 0.43054 0.06133 0.0
O157 O 0.2449 0.40503 0.10149 0.0
O158 O 0.29216 0.39053 0.09327 0.0
C159 C 0.28485 0.38593 0.01075 0.0
C160 C 0.2263 0.46428 0.0397 0.0
C161 C 0.32794 0.47926 0.07442 0.0
O162 O 0.30706 0.41034 0.02259 0.0
O163 O 0.25775 0.38463 0.02405 0.0
O164 O 0.3104 0.47436 0.04614 0.0
O165 O 0.31812 0.46018 0.09714 0.0
C166 C 0.26605 0.38521 0.1081 0.0
O167 O 0.24102 0.47071 0.06956 0.0
O168 O 0.2352 0.44 0.02197 0.0
In169 In 0.81704 0.17075 0.01867 0.0
O170 O 0.83789 0.11999 0.02639 0.0
O171 O 0.87103 0.15963 0.00945 0.0
C172 C 0.75733 0.13016 0.01736 0.0
C173 C 0.81492 0.21115 0.07867 0.0
C174 C 0.81341 0.20764 0.96154 0.0
O175 O 0.76684 0.14486 0.99171 0.0
O176 O 0.77835 0.13486 0.04321 0.0
O177 O 0.82321 0.22156 0.99132 0.0
O178 O 0.80719 0.1753 0.96037 0.0
C179 C 0.86658 0.12902 0.01774 0.0
O180 O 0.84013 0.19738 0.0722 0.0
O181 O 0.79224 0.20637 0.05433 0.0
In182 In 0.12246 0.48415 0.29113 0.0
O183 O 0.13219 0.42794 0.28262 0.0
O184 O 0.16722 0.46239 0.31559 0.0
C185 C 0.16159 0.54491 0.28955 0.0
C186 C 0.09035 0.48262 0.2265 0.0
C187 C 0.08844 0.4886 0.34816 0.0
O188 O 0.13171 0.54247 0.29613 0.0
O189 O 0.17188 0.51661 0.28337 0.0
O190 O 0.08125 0.46378 0.32533 0.0
O191 O 0.11248 0.51029 0.34225 0.0
C192 C 0.15959 0.43252 0.30102 0.0
O193 O 0.07556 0.48582 0.25322 0.0
O194 O 0.12032 0.47889 0.23248 0.0
In195 In 0.77285 0.92665 0.56233 0.0
O196 O 0.78504 0.88502 0.5949 0.0
O197 O 0.7417 0.90707 0.60476 0.0
C198 C 0.78492 0.88211 0.51253 0.0
C199 C 0.72329 0.95776 0.53797 0.0
C200 C 0.82396 0.97766 0.57388 0.0
O201 O 0.75715 0.88092 0.52444 0.0
O202 O 0.80694 0.90613 0.52573 0.0
O203 O 0.81632 0.95767 0.59667 0.0
O204 O 0.80559 0.97191 0.54615 0.0
C205 C 0.75958 0.8841 0.61093 0.0
O206 O 0.73922 0.96758 0.56673 0.0
O207 O 0.73133 0.93147 0.52273 0.0
In208 In 0.86683 0.05599 0.24904 0.0
O209 O 0.89077 0.08085 0.20373 0.0
O210 O 0.90644 0.03507 0.22011 0.0
C211 C 0.90661 0.06511 0.30767 0.0
C212 C 0.8319 0.10916 0.2498 0.0
C213 C 0.82888 0.99404 0.25302 0.0
O214 O 0.91653 0.05541 0.27959 0.0
O215 O 0.8769 0.07065 0.30596 0.0
O216 O 0.8414 0.01385 0.27858 0.0
O217 O 0.83417 0.0059 0.22464 0.0
C218 C 0.91006 0.05869 0.20017 0.0
O219 O 0.82211 0.08192 0.23056 0.0
O220 O 0.85953 0.10985 0.26679 0.0
In221 In 0.31741 0.6715 0.52057 0.0
O222 O 0.33567 0.61844 0.51682 0.0
O223 O 0.37294 0.66127 0.51865 0.0
C224 C 0.25759 0.63134 0.52054 0.0
C225 C 0.31547 0.71012 0.58206 0.0
C226 C 0.31361 0.70965 0.46381 0.0
O227 O 0.26604 0.64756 0.49542 0.0
O228 O 0.27962 0.63454 0.5455 0.0
O229 O 0.3235 0.72302 0.49374 0.0
O230 O 0.30772 0.67732 0.46224 0.0
C231 C 0.36626 0.62882 0.51682 0.0
O232 O 0.34005 0.69531 0.5755 0.0
O233 O 0.29322 0.70688 0.55735 0.0
In234 In 0.36993 0.55768 0.75012 0.0
O235 O 0.36404 0.61396 0.75816 0.0
O236 O 0.32003 0.57882 0.74474 0.0
C237 C 0.33551 0.49441 0.75538 0.0
C238 C 0.40572 0.56533 0.69545 0.0
C239 C 0.41323 0.55943 0.8055 0.0
O240 O 0.34179 0.51713 0.78013 0.0
O241 O 0.34565 0.50389 0.7276 0.0
O242 O 0.41367 0.53924 0.77922 0.0
O243 O 0.39087 0.57849 0.80378 0.0
C244 C 0.33291 0.60957 0.75286 0.0
O245 O 0.41714 0.57644 0.72547 0.0
O246 O 0.37594 0.55085 0.69275 0.0
In247 In 0.62268 0.98234 0.78911 0.0
O248 O 0.67013 0.96328 0.81018 0.0
O249 O 0.6331 0.92561 0.78379 0.0
C250 C 0.6623 0.04274 0.78698 0.0
C251 C 0.58929 0.98189 0.72487 0.0
C252 C 0.58942 0.98712 0.84701 0.0
O253 O 0.63355 0.04066 0.79682 0.0
O254 O 0.67105 0.01437 0.77779 0.0
O255 O 0.58239 0.96186 0.8246 0.0
O256 O 0.61315 0.00888 0.84044 0.0
C257 C 0.66226 0.93237 0.79861 0.0
O258 O 0.6185 0.97547 0.73014 0.0
O259 O 0.57569 0.9868 0.75208 0.0
In260 In 0.77099 0.63924 0.99719 0.0
O261 O 0.80791 0.62268 0.03552 0.0
O262 O 0.80228 0.59702 0.98529 0.0
C263 C 0.71604 0.59299 0.99085 0.0
C264 C 0.77182 0.68788 0.0474 0.0
C265 C 0.77963 0.68347 0.9493 0.0
O266 O 0.72696 0.60654 0.96509 0.0
O267 O 0.73285 0.60275 0.01898 0.0
O268 O 0.80078 0.66374 0.95615 0.0
O269 O 0.7537 0.67858 0.96448 0.0
C270 C 0.81602 0.59953 0.01565 0.0
O271 O 0.74503 0.67075 0.03354 0.0
O272 O 0.798 0.68021 0.03597 0.0
In273 In 0.91633 0.57924 0.76208 0.0
O274 O 0.87048 0.59983 0.7382 0.0
O275 O 0.90591 0.63533 0.7696 0.0
C276 C 0.87825 0.51804 0.76516 0.0
C277 C 0.95049 0.57485 0.70509 0.0
C278 C 0.94941 0.58155 0.82639 0.0
O279 O 0.86774 0.54616 0.77157 0.0
O280 O 0.90776 0.52086 0.75738 0.0
O281 O 0.96358 0.57748 0.7994 0.0
O282 O 0.91957 0.58593 0.82086 0.0
C283 C 0.87804 0.63002 0.75203 0.0
O284 O 0.95739 0.59981 0.72779 0.0
O285 O 0.92643 0.55312 0.71092 0.0
In286 In 0.72605 0.39196 0.54283 0.0
O287 O 0.71938 0.34051 0.56952 0.0
O288 O 0.73651 0.38604 0.60095 0.0
C289 C 0.72764 0.35335 0.48148 0.0
C290 C 0.67702 0.43411 0.54749 0.0
C291 C 0.78564 0.43207 0.54136 0.0
O292 O 0.70358 0.36912 0.48773 0.0
O293 O 0.74949 0.3556 0.50647 0.0
O294 O 0.76297 0.42898 0.51703 0.0
O295 O 0.77793 0.41581 0.5667 0.0
C296 C 0.72989 0.35375 0.59935 0.0
O297 O 0.67045 0.40164 0.54472 0.0
O298 O 0.7076 0.44476 0.54801 0.0
In299 In 0.67393 0.50736 0.31536 0.0
O300 O 0.72428 0.48681 0.32132 0.0
O301 O 0.68051 0.45135 0.30774 0.0
C302 C 0.70677 0.57142 0.31002 0.0
C303 C 0.63132 0.50379 0.25909 0.0
C304 C 0.63756 0.49871 0.3695 0.0
O305 O 0.69554 0.56225 0.33743 0.0
O306 O 0.70252 0.54803 0.28589 0.0
O307 O 0.62607 0.48932 0.33909 0.0
O308 O 0.6677 0.51212 0.37286 0.0
C309 C 0.71163 0.45597 0.3132 0.0
O310 O 0.62996 0.52411 0.28503 0.0
O311 O 0.65426 0.48547 0.26157 0.0
Tb312 Tb 0.03454 0.07208 0.02978 0.0
C313 C 0.04326 0.01698 0.972 0.0
Tb314 Tb 0.01064 0.99555 0.03803 0.0
O315 O 0.08692 0.06386 0.03416 0.0
O316 O 0.0523 0.03196 0.05659 0.0
O317 O 0.03383 0.04752 0.97838 0.0
C318 C 0.01164 0.934 0.06187 0.0
O319 O 0.03892 0.99246 0.9934 0.0
C320 C 0.96321 0.03181 0.01868 0.0
C321 C 1.00035 0.05187 0.0962 0.0
O322 O 0.99599 0.93898 0.03266 0.0
O323 O 0.02619 0.96317 0.07639 0.0
O324 O 0.95825 1.00331 0.03356 0.0
O325 O 0.99293 0.0356 0.01092 0.0
O326 O 1.00171 0.01912 0.0872 0.0
O327 O 0.0113 0.07737 0.07773 0.0
C328 C 0.04026 0.13726 0.01273 0.0
O329 O 0.06395 0.11861 0.01495 0.0
O330 O 0.0136 0.11964 0.02158 0.0
C331 C 0.08205 0.03552 0.04908 0.0
Tb332 Tb 0.27658 0.82447 0.29186 0.0
C333 C 0.33625 0.77931 0.29088 0.0
Tb334 Tb 0.26174 0.74223 0.27443 0.0
O335 O 0.28513 0.82252 0.34854 0.0
O336 O 0.27254 0.779 0.31654 0.0
O337 O 0.32601 0.80974 0.28818 0.0
C338 C 0.23851 0.67802 0.28532 0.0
O339 O 0.31557 0.74969 0.28896 0.0
C340 C 0.25836 0.7778 0.21872 0.0
C341 C 0.20191 0.78715 0.27578 0.0
O342 O 0.26104 0.68656 0.26459 0.0
O343 O 0.23003 0.7055 0.30006 0.0
O344 O 0.25412 0.74432 0.21768 0.0
O345 O 0.26563 0.78771 0.24988 0.0
O346 O 0.21224 0.75673 0.27828 0.0
O347 O 0.22256 0.81684 0.27775 0.0
C348 C 0.30052 0.8878 0.2786 0.0
O349 O 0.27786 0.88051 0.29956 0.0
O350 O 0.3088 0.85965 0.26517 0.0
C351 C 0.28075 0.78901 0.34759 0.0
Tb352 Tb 0.55391 0.03578 0.51524 0.0
C353 C 0.53611 0.01034 0.58874 0.0
Tb354 Tb 0.48056 0.0231 0.53282 0.0
O355 O 0.56779 0.08861 0.53942 0.0
O356 O 0.5214 0.06141 0.54143 0.0
O357 O 0.55743 0.01284 0.56481 0.0
C358 C 0.41742 0.02869 0.53892 0.0
O359 O 0.50495 0.01648 0.58309 0.0
C360 C 0.50462 0.96999 0.50652 0.0
C361 C 0.49944 0.05571 0.4623 0.0
O362 O 0.42808 0.00871 0.51614 0.0
O363 O 0.44242 0.04492 0.55897 0.0
O364 O 0.48217 0.96765 0.52816 0.0
O365 O 0.51054 1.00068 0.49929 0.0
O366 O 0.47799 0.05132 0.48607 0.0
O367 O 0.53038 0.04877 0.46703 0.0
C368 C 0.61005 0.01668 0.49811 0.0
O369 O 0.60449 0.04837 0.50129 0.0
O370 O 0.58408 0.9962 0.50447 0.0
C371 C 0.53905 0.08963 0.55112 0.0
Tb372 Tb 0.28561 0.28942 0.81941 0.0
C373 C 0.28698 0.35197 0.7723 0.0
Tb374 Tb 0.26495 0.2752 0.74224 0.0
O375 O 0.32895 0.26311 0.81419 0.0
O376 O 0.31022 0.2886 0.77399 0.0
O377 O 0.28549 0.34181 0.8038 0.0
C378 C 0.27136 0.26033 0.67718 0.0
O379 O 0.28279 0.32997 0.74463 0.0
C380 C 0.21197 0.28251 0.77507 0.0
C381 C 0.25859 0.21358 0.79048 0.0
O382 O 0.25145 0.2806 0.68834 0.0
O383 O 0.28689 0.24784 0.70247 0.0
O384 O 0.21088 0.27535 0.74219 0.0
O385 O 0.24193 0.28451 0.78671 0.0
O386 O 0.26131 0.22306 0.7589 0.0
O387 O 0.26356 0.23588 0.81789 0.0
C388 C 0.29144 0.30892 0.88535 0.0
O389 O 0.31417 0.31633 0.86486 0.0
O390 O 0.26536 0.29085 0.86866 0.0
C391 C 0.33143 0.26952 0.7825 0.0
Tb392 Tb 1.00132 0.03445 0.49662 0.0
C393 C 0.95442 0.03549 0.55751 0.0
Tb394 Tb 0.03154 0.03416 0.57389 0.0
O395 O 1.00519 0.97982 0.48642 0.0
O396 O 1.00123 1.00037 0.53561 0.0
O397 O 0.95819 0.04012 0.52468 0.0
C398 C 0.05374 0.01217 0.6323 0.0
O399 O 0.97879 0.02962 0.58002 0.0
C400 C 0.03716 0.09606 0.55085 0.0
C401 C 0.07775 0.03831 0.51408 0.0
O402 O 0.03542 0.03649 0.62954 0.0
O403 O 0.05958 1.00021 0.6021 0.0
O404 O 0.04851 0.09106 0.58175 0.0
O405 O 0.02455 0.0674 0.5372 0.0
O406 O 0.07246 0.02546 0.54383 0.0
O407 O 0.05413 0.04957 0.49448 0.0
C408 C 0.97542 0.05132 0.43714 0.0
O409 O 0.99953 0.03336 0.44105 0.0
O410 O 0.96553 0.05953 0.4667 0.0
C411 C 1.00706 0.97424 0.5186 0.0
Tb412 Tb 0.30868 0.78779 0.79833 0.0
C413 C 0.25298 0.79857 0.84844 0.0
Tb414 Tb 0.23565 0.78042 0.76797 0.0
O415 O 0.31155 0.8429 0.81297 0.0
O416 O 0.27747 0.819 0.77357 0.0
O417 O 0.28319 0.79032 0.84527 0.0
C418 C 0.17713 0.79037 0.73952 0.0
O419 O 0.23109 0.79893 0.82138 0.0
C420 C 0.2582 0.72186 0.7744 0.0
C421 C 0.29092 0.76798 0.71784 0.0
O422 O 0.18148 0.77044 0.76398 0.0
O423 O 0.20556 0.80482 0.73144 0.0
O424 O 0.23234 0.72515 0.75412 0.0
O425 O 0.26667 0.74955 0.79309 0.0
O426 O 0.26077 0.77642 0.72091 0.0
O427 O 0.313 0.76837 0.74494 0.0
C428 C 0.36727 0.77829 0.82749 0.0
O429 O 0.36297 0.79799 0.80278 0.0
O430 O 0.33877 0.7637 0.83522 0.0
C431 C 0.28567 0.8464 0.79283 0.0
Tb432 Tb 0.48451 0.01584 0.02184 0.0
C433 C 0.53879 0.96864 0.03265 0.0
Tb434 Tb 0.55686 0.04919 0.0304 0.0
O435 O 0.49133 0.98685 0.97394 0.0
O436 O 0.52037 0.03421 0.98822 0.0
O437 O 0.50774 0.97247 0.03744 0.0
C438 C 0.62132 0.06979 0.02474 0.0
O439 O 0.56112 0.99452 0.02603 0.0
C440 C 0.5246 0.05627 0.08541 0.0
C441 C 0.50282 0.0966 0.01987 0.0
O442 O 0.6092 0.0569 0.0513 0.0
O443 O 0.59715 0.07111 1.0015 0.0
O444 O 0.54952 0.07796 0.07835 0.0
O445 O 0.52115 0.03045 0.06376 0.0
O446 O 0.53381 0.09265 0.01491 0.0
O447 O 0.48036 0.07065 0.02614 0.0
C448 C 0.42049 0.99493 0.02952 0.0
O449 O 0.43168 0.00745 1.00234 0.0
O450 O 0.44531 0.99415 0.0521 0.0
C451 C 0.51653 0.00812 0.96676 0.0
Tb452 Tb 0.23488 0.26187 0.27437 0.0
C453 C 0.28015 0.27753 0.34449 0.0
Tb454 Tb 0.30383 0.30307 0.27785 0.0
O455 O 0.25054 0.21808 0.24529 0.0
O456 O 0.28407 0.2508 0.27966 0.0
O457 O 0.24989 0.27565 0.32876 0.0
C458 C 0.3656 0.32174 0.26197 0.0
O459 O 0.30704 0.28518 0.32846 0.0
C460 C 0.25708 0.33896 0.295 0.0
C461 C 0.25774 0.28855 0.20794 0.0
O462 O 0.34055 0.33777 0.25474 0.0
O463 O 0.35601 0.29647 0.27986 0.0
O464 O 0.28823 0.34711 0.30669 0.0
O465 O 0.25476 0.31412 0.27265 0.0
O466 O 0.2882 0.29025 0.22329 0.0
O467 O 0.23105 0.28042 0.22415 0.0
C468 C 0.17394 0.2422 0.29195 0.0
O469 O 0.19951 0.22677 0.29854 0.0
O470 O 0.18244 0.26726 0.27337 0.0
C471 C 0.28164 0.22604 0.25716 0.0
Tb472 Tb 0.50686 0.53229 0.99531 0.0
C473 C 0.46067 0.52541 0.05417 0.0
Tb474 Tb 0.53832 0.5274 0.06798 0.0
O475 O 0.4813 0.47956 0.99384 0.0
O476 O 0.52719 0.49466 0.02245 0.0
O477 O 0.46464 0.53755 0.02391 0.0
C478 C 0.55756 0.51191 0.13053 0.0
O479 O 0.48526 0.51519 0.07331 0.0
C480 C 0.5409 0.58924 0.04778 0.0
C481 C 0.58482 0.53595 0.00971 0.0
O482 O 0.5446 0.53902 0.12329 0.0
O483 O 0.5596 0.49326 0.10247 0.0
O484 O 0.56339 0.58053 0.06945 0.0
O485 O 0.51778 0.5647 0.04089 0.0
O486 O 0.58092 0.52335 0.03976 0.0
O487 O 0.55992 0.54523 0.99024 0.0
C488 C 0.48756 0.54818 0.93293 0.0
O489 O 0.50015 0.52078 0.93993 0.0
O490 O 0.48592 0.56679 0.96108 0.0
C491 C 0.50362 0.47048 0.01543 0.0
Tb492 Tb 0.80637 0.28358 0.2949 0.0
C493 C 0.75223 0.29676 0.34553 0.0
Tb494 Tb 0.73406 0.27931 0.26467 0.0
O495 O 0.81085 0.33862 0.31052 0.0
O496 O 0.77697 0.31643 0.27005 0.0
O497 O 0.78187 0.2871 0.34232 0.0
C498 C 0.6746 0.28939 0.23829 0.0
O499 O 0.73057 0.29799 0.31844 0.0
C500 C 0.75484 0.21972 0.26973 0.0
C501 C 0.7887 0.26648 0.21434 0.0
O502 O 0.6799 0.26931 0.26238 0.0
O503 O 0.70265 0.30395 0.22937 0.0
O504 O 0.73058 0.22477 0.24818 0.0
O505 O 0.76321 0.2465 0.28981 0.0
O506 O 0.7592 0.2765 0.21753 0.0
O507 O 0.81002 0.26456 0.24147 0.0
C508 C 0.86572 0.27205 0.32029 0.0
O509 O 0.86057 0.29397 0.29795 0.0
O510 O 0.83756 0.25648 0.32786 0.0
C511 C 0.78593 0.34346 0.28969 0.0
Tb512 Tb 0.98464 0.51521 0.52336 0.0
C513 C 0.03784 0.46645 0.53382 0.0
Tb514 Tb 0.05781 0.54684 0.53242 0.0
O515 O 0.99106 0.48629 0.4753 0.0
O516 O 0.02108 0.53295 0.49032 0.0
O517 O 1.00693 0.47108 0.53846 0.0
C518 C 0.12244 0.56735 0.52723 0.0
O519 O 0.0609 0.49193 0.52782 0.0
C520 C 0.02507 0.55506 0.58689 0.0
C521 C 1.00505 0.5954 0.51985 0.0
O522 O 0.11008 0.55482 0.55386 0.0
O523 O 0.09844 0.56811 0.50366 0.0
O524 O 0.05048 0.5762 0.58002 0.0
O525 O 0.0213 0.52913 0.56537 0.0
O526 O 0.03584 0.59031 0.51539 0.0
O527 O 0.98189 0.57038 0.52677 0.0
C528 C 0.92031 0.49503 0.53034 0.0
O529 O 0.93195 0.50733 0.50328 0.0
O530 O 0.94485 0.49427 0.55329 0.0
C531 C 0.01676 0.50714 0.46859 0.0
Tb532 Tb 0.78355 0.78944 0.31835 0.0
C533 C 0.78273 0.85141 0.27042 0.0
Tb534 Tb 0.76235 0.77441 0.24134 0.0
O535 O 0.82693 0.76313 0.31269 0.0
O536 O 0.80778 0.78848 0.2727 0.0
O537 O 0.7817 0.84141 0.30206 0.0
C538 C 0.7691 0.75833 0.17661 0.0
O539 O 0.77907 0.82928 0.24291 0.0
C540 C 0.70971 0.78266 0.27423 0.0
C541 C 0.75521 0.71351 0.29034 0.0
O542 O 0.74791 0.77739 0.18718 0.0
O543 O 0.7858 0.74777 0.20231 0.0
O544 O 0.70849 0.77541 0.24134 0.0
O545 O 0.73963 0.78424 0.28594 0.0
O546 O 0.75814 0.72244 0.25861 0.0
O547 O 0.76057 0.73621 0.31744 0.0
C548 C 0.79077 0.80938 0.3844 0.0
O549 O 0.76517 0.78978 0.36856 0.0
O550 O 0.81226 0.81817 0.36298 0.0
C551 C 0.82919 0.76956 0.28098 0.0
Tb552 Tb 0.78125 0.32052 0.78771 0.0
C553 C 0.84042 0.27437 0.78766 0.0
Tb554 Tb 0.76566 0.23821 0.77081 0.0
O555 O 0.78894 0.31907 0.84442 0.0
O556 O 0.77661 0.27529 0.81264 0.0
O557 O 0.83064 0.30506 0.7848 0.0
C558 C 0.74171 0.17434 0.78201 0.0
O559 O 0.81939 0.24499 0.78554 0.0
C560 C 0.76182 0.27367 0.71499 0.0
C561 C 0.7064 0.28353 0.77245 0.0
O562 O 0.76396 0.18243 0.76085 0.0
O563 O 0.73395 0.20205 0.79699 0.0
O564 O 0.75697 0.2402 0.71408 0.0
O565 O 0.77016 0.28355 0.74599 0.0
O566 O 0.71659 0.25315 0.77549 0.0
O567 O 0.7272 0.31306 0.77363 0.0
C568 C 0.80449 0.38438 0.77554 0.0
O569 O 0.78179 0.3763 0.79622 0.0
O570 O 0.81325 0.35664 0.76165 0.0
C571 C 0.78425 0.2856 0.84369 0.0
Tb572 Tb 0.73422 0.75918 0.78043 0.0
C573 C 0.78557 0.77685 0.84637 0.0
Tb574 Tb 0.80623 0.79935 0.77698 0.0
O575 O 0.74831 0.71468 0.75057 0.0
O576 O 0.78341 0.74853 0.78165 0.0
O577 O 0.75442 0.77639 0.83311 0.0
C578 C 0.86314 0.79778 0.75043 0.0
O579 O 0.81132 0.78259 0.82806 0.0
C580 C 0.76244 0.84148 0.78932 0.0
C581 C 0.75033 0.7928 0.71393 0.0
O582 O 0.8591 0.81963 0.7758 0.0
O583 O 0.83551 0.7781 0.74044 0.0
O584 O 0.7941 0.85218 0.78814 0.0
O585 O 0.75883 0.80935 0.78424 0.0
O586 O 0.78229 0.79609 0.72503 0.0
O587 O 0.72593 0.782 0.73249 0.0
C588 C 0.67709 0.73699 0.80475 0.0
O589 O 0.70519 0.72642 0.8126 0.0
O590 O 0.6809 0.75916 0.78194 0.0
C591 C 0.7799 0.72299 0.76009 0.0
Tb592 Tb 0.53563 0.5698 0.52849 0.0
C593 C 0.55055 0.51033 0.47546 0.0
Tb594 Tb 0.50705 0.4919 0.5363 0.0
O595 O 0.58789 0.5625 0.54109 0.0
O596 O 0.5495 0.52758 0.5536 0.0
O597 O 0.54929 0.54349 0.48254 0.0
C598 C 0.50493 0.43317 0.56598 0.0
O599 O 0.53674 0.48542 0.49311 0.0
C600 C 0.46215 0.53017 0.5137 0.0
C601 C 0.49238 0.55143 0.58944 0.0
O602 O 0.49309 0.43562 0.53442 0.0
O603 O 0.51789 0.46331 0.57982 0.0
O604 O 0.45474 0.49947 0.52389 0.0
O605 O 0.49318 0.53413 0.51133 0.0
O606 O 0.49377 0.51826 0.58242 0.0
O607 O 0.50607 0.57636 0.57173 0.0
C608 C 0.53794 0.62789 0.49789 0.0
O609 O 0.55008 0.62592 0.52944 0.0
O610 O 0.52443 0.59771 0.48465 0.0
C611 C 0.58054 0.53179 0.55125 0.0
Tb612 Tb 0.05561 0.53551 0.01846 0.0
C613 C 0.03852 0.50749 0.08918 0.0
Tb614 Tb 0.98537 0.52577 0.03249 0.0
O615 O 0.0684 0.57722 0.05823 0.0
O616 O 0.02129 0.56967 0.03117 0.0
O617 O 0.05986 0.50913 0.06545 0.0
C618 C 0.92442 0.52971 0.05023 0.0
O619 O 0.00791 0.51479 0.08269 0.0
C620 C 1.00352 0.47485 0.99557 0.0
C621 C 1.00247 0.55537 0.9628 0.0
O622 O 0.9326 0.50611 0.02944 0.0
O623 O 0.95111 0.55008 0.06239 0.0
O624 O 0.97443 0.48423 0.99161 0.0
O625 O 0.02002 0.49205 0.02103 0.0
O626 O 0.98176 0.55458 0.9871 0.0
O627 O 0.03257 0.54653 0.96849 0.0
C628 C 0.11535 0.52832 0.99929 0.0
O629 O 0.10802 0.55474 0.01691 0.0
O630 O 0.08844 0.50678 0.991 0.0
C631 C 0.03921 0.58661 0.05618 0.0
C632 C 0.01264 0.21203 0.96822 0.0
C633 C 0.0403 0.22237 0.95044 0.0
H634 H 0.99092 0.17675 1.00213 0.0
C635 C 0.06889 0.20662 0.956 0.0
H636 H 0.99029 0.22378 0.96448 0.0
C637 C 0.06946 0.18029 0.97797 0.0
C638 C 0.04131 0.16884 0.99449 0.0
H639 H 0.09069 0.21427 0.94291 0.0
H640 H 0.09153 0.16797 0.98092 0.0
C641 C 0.01305 0.18528 0.98988 0.0
C642 C 0.11953 0.81131 0.23907 0.0
C643 C 0.09753 0.78076 0.24095 0.0
H644 H 0.16952 0.83761 0.24889 0.0
C645 C 0.10953 0.75395 0.25763 0.0
H646 H 0.11116 0.8325 0.22636 0.0
C647 C 0.14299 0.75683 0.27044 0.0
C648 C 0.16546 0.78672 0.26713 0.0
H649 H 0.09338 0.73007 0.25956 0.0
H650 H 0.15146 0.73505 0.28198 0.0
C651 C 0.15305 0.8143 0.2521 0.0
C652 C 0.50946 0.87876 0.47309 0.0
C653 C 0.52552 0.88373 0.44318 0.0
H654 H 0.49057 0.90219 0.51673 0.0
C655 C 0.53626 0.91742 0.43525 0.0
H656 H 0.50099 0.8531 0.47999 0.0
C657 C 0.53023 0.94554 0.45635 0.0
C658 C 0.5135 0.94047 0.48584 0.0
H659 H 0.54873 0.92207 0.41242 0.0
H660 H 0.53799 0.97123 0.44913 0.0
C661 C 0.50351 0.90684 0.49419 0.0
C662 C 0.41621 0.24764 0.7634 0.0
C663 C 0.41944 0.25962 0.73084 0.0
H664 H 0.38562 0.24072 0.80486 0.0
C665 C 0.39288 0.27376 0.71485 0.0
H666 H 0.43615 0.23657 0.77638 0.0
C667 C 0.36416 0.27666 0.73138 0.0
C668 C 0.361 0.26484 0.764 0.0
H669 H 0.39458 0.28339 0.68983 0.0
H670 H 0.34468 0.28867 0.71881 0.0
C671 C 0.38722 0.24997 0.77967 0.0
C672 C 0.01618 0.88157 0.5273 0.0
C673 C 0.99849 0.87486 0.55576 0.0
H674 H 0.0323 0.91885 0.49269 0.0
C675 C 0.98345 0.90085 0.5716 0.0
H676 H 0.02814 0.86184 0.51493 0.0
C677 C 0.98684 0.93345 0.55976 0.0
C678 C 1.00447 0.94017 0.53131 0.0
H679 H 0.97008 0.89633 0.5939 0.0
H680 H 0.97543 0.95329 0.5727 0.0
C681 C 0.0187 0.914 0.51477 0.0
C682 C 0.4291 0.75174 0.89288 0.0
C683 C 0.45756 0.77508 0.8893 0.0
H684 H 0.37811 0.7344 0.87564 0.0
C685 C 0.45669 0.79832 0.86382 0.0
H686 H 0.42917 0.73341 0.91217 0.0
C687 C 0.42754 0.79861 0.84265 0.0
C688 C 0.39892 0.77585 0.84692 0.0
H689 H 0.47843 0.81639 0.86038 0.0
H690 H 0.42717 0.81716 0.82359 0.0
C691 C 0.39997 0.75221 0.87192 0.0
C692 C 0.46315 0.17177 0.05269 0.0
C693 C 0.48839 0.19913 0.04974 0.0
H694 H 0.44766 0.1175 0.04499 0.0
C695 C 0.51526 0.19319 0.03123 0.0
H696 H 0.44207 0.17567 0.06669 0.0
C697 C 0.51849 0.15997 0.01874 0.0
C698 C 0.49493 0.13201 0.0246 0.0
H699 H 0.5349 0.21391 0.02817 0.0
H700 H 0.54056 0.15602 1.00644 0.0
C701 C 0.46638 0.13843 0.0402 0.0
C702 C 0.10684 0.27443 0.33864 0.0
C703 C 0.10761 0.25547 0.36756 0.0
H704 H 0.12658 0.28405 0.29101 0.0
C705 C 0.12667 0.22848 0.36869 0.0
H706 H 0.09186 0.29498 0.33682 0.0
C707 C 0.14624 0.22194 0.34222 0.0
C708 C 0.14693 0.24227 0.31428 0.0
H709 H 0.12727 0.21311 0.39047 0.0
H710 H 0.1622 0.20229 0.3446 0.0
C711 C 0.12629 0.26782 0.31216 0.0
C712 C 0.93819 0.08498 0.15145 0.0
C713 C 0.93558 0.06011 0.17548 0.0
H714 H 0.96153 0.10235 0.1075 0.0
C715 C 0.95763 0.03577 0.17573 0.0
H716 H 0.92167 0.10422 0.15083 0.0
C717 C 0.98052 0.035 0.15145 0.0
C718 C 0.98207 0.0586 0.12626 0.0
H719 H 0.95665 0.01657 0.19418 0.0
H720 H 0.99615 0.01492 0.15154 0.0
C721 C 0.96131 0.08423 0.12699 0.0
C722 C 0.30829 0.76594 0.4376 0.0
C723 C 0.30661 0.72996 0.43359 0.0
H724 H 0.30116 0.81231 0.41407 0.0
C725 C 0.29631 0.71344 0.40063 0.0
H726 H 0.31589 0.77967 0.46244 0.0
C727 C 0.28787 0.73227 0.37271 0.0
C728 C 0.28907 0.76818 0.37694 0.0
H729 H 0.29463 0.68579 0.39639 0.0
H730 H 0.28055 0.71869 0.34781 0.0
C731 C 0.29962 0.78468 0.40978 0.0
C732 C 0.5422 0.99621 0.68451 0.0
C733 C 0.574 0.98644 0.68984 0.0
H734 H 0.50517 0.01127 0.64871 0.0
C735 C 0.59237 0.98323 0.66138 0.0
H736 H 0.52739 0.99909 0.70583 0.0
C737 C 0.57981 0.9904 0.62877 0.0
C738 C 0.54833 1.00091 0.6234 0.0
H739 H 0.61696 0.97583 0.66439 0.0
H740 H 0.59512 0.98806 0.60778 0.0
C741 C 0.52948 1.00325 0.6517 0.0
C742 C 0.26304 0.33626 0.96928 0.0
C743 C 0.28912 0.36225 0.98182 0.0
H744 H 0.24365 0.29841 0.92847 0.0
C745 C 0.31805 0.36709 0.96485 0.0
H746 H 0.24064 0.33178 0.98223 0.0
C747 C 0.31977 0.34791 0.93418 0.0
C748 C 0.2926 0.32383 0.92038 0.0
H749 H 0.33861 0.38678 0.97433 0.0
H750 H 0.34156 0.35323 0.92043 0.0
C751 C 0.26477 0.31713 0.93866 0.0
C752 C 0.91466 0.07807 0.37082 0.0
C753 C 0.92677 0.06624 0.34048 0.0
H754 H 0.92101 0.08276 0.4256 0.0
C755 C 0.95671 0.05251 0.34214 0.0
H756 H 0.8917 0.08896 0.37015 0.0
C757 C 0.97327 0.04876 0.37381 0.0
C758 C 0.96018 0.05893 0.4041 0.0
H759 H 0.96657 0.04327 0.31908 0.0
H760 H 0.99569 0.03691 0.37457 0.0
C761 C 0.93135 0.07452 0.40247 0.0
C762 C 0.33429 0.72737 0.64523 0.0
C763 C 0.31122 0.72744 0.61646 0.0
H764 H 0.34631 0.73999 0.69946 0.0
C765 C 0.28247 0.74254 0.62127 0.0
H766 H 0.35662 0.71586 0.6427 0.0
C767 C 0.27653 0.75636 0.65373 0.0
C768 C 0.29911 0.75568 0.68277 0.0
H769 H 0.26402 0.7431 0.59992 0.0
H770 H 0.25373 0.76709 0.65608 0.0
C771 C 0.32833 0.74128 0.67789 0.0
C772 C 0.5774 0.02333 0.89875 0.0
C773 C 0.57106 0.99203 0.878 0.0
H774 H 0.56481 0.05337 0.94218 0.0
C775 C 0.54679 0.96617 0.887 0.0
H776 H 0.59575 0.04398 0.89256 0.0
C777 C 0.52944 0.97147 0.9159 0.0
C778 C 0.53565 1.00285 0.93647 0.0
H779 H 0.5412 0.94179 0.87172 0.0
H780 H 0.51099 0.95091 0.92208 0.0
C781 C 0.5598 0.02873 0.92742 0.0
C782 C 0.28476 0.33462 0.13355 0.0
C783 C 0.26072 0.35672 0.13005 0.0
H784 H 0.30182 0.29417 0.16033 0.0
C785 C 0.23216 0.35112 0.1475 0.0
H786 H 0.30668 0.33778 0.11971 0.0
C787 C 0.22912 0.32558 0.17041 0.0
C788 C 0.25473 0.30561 0.17614 0.0
H789 H 0.21298 0.36741 0.14465 0.0
H790 H 0.20813 0.3235 0.18562 0.0
C791 C 0.28178 0.30927 0.15638 0.0
C792 C 0.15363 0.98824 0.02581 0.0
C793 C 0.1515 0.96057 0.04669 0.0
H794 H 0.1334 0.03257 0.00984 0.0
C795 C 0.12593 0.9575 0.06871 0.0
H796 H 0.17291 0.99157 1.00853 0.0
C797 C 0.10356 0.98183 0.07012 0.0
C798 C 0.10544 0.00917 0.04875 0.0
H799 H 0.12386 0.93695 0.08565 0.0
H800 H 0.08563 0.97983 0.08876 0.0
C801 C 0.13092 0.01192 0.02667 0.0
C802 C 0.65768 0.57526 0.9658 0.0
C803 C 0.68393 0.57111 0.98979 0.0
H804 H 0.60505 0.56719 0.95333 0.0
C805 C 0.67789 0.55022 0.01665 0.0
H806 H 0.66189 0.59132 0.94487 0.0
C807 C 0.64562 0.53631 0.02146 0.0
C808 C 0.61882 0.54348 0.99969 0.0
H809 H 0.69792 0.54637 0.03523 0.0
H810 H 0.64165 0.5219 0.04359 0.0
C811 C 0.62519 0.56161 0.9708 0.0
C812 C 0.76583 0.43217 0.31548 0.0
C813 C 0.7312 0.42754 0.30781 0.0
H814 H 0.81037 0.40881 0.31565 0.0
C815 C 0.71498 0.39532 0.29361 0.0
H816 H 0.77901 0.45674 0.32645 0.0
C817 C 0.73291 0.36842 0.28699 0.0
C818 C 0.76738 0.3728 0.29446 0.0
H819 H 0.68828 0.39078 0.28755 0.0
H820 H 0.71952 0.34387 0.27735 0.0
C821 C 0.78374 0.40486 0.30915 0.0
C822 C 0.82799 0.46567 0.50922 0.0
C823 C 0.81933 0.45096 0.5394 0.0
H824 H 0.86687 0.49128 0.48268 0.0
C825 C 0.84378 0.45264 0.56709 0.0
H826 H 0.80971 0.46474 0.48743 0.0
C827 C 0.87639 0.46779 0.56434 0.0
C828 C 0.88526 0.48154 0.53384 0.0
H829 H 0.8379 0.44159 0.59069 0.0
H830 H 0.89482 0.46809 0.5859 0.0
C831 C 0.86069 0.48082 0.50647 0.0
C832 C 0.36179 0.18803 0.27187 0.0
C833 C 0.35564 0.15808 0.24938 0.0
H834 H 0.34302 0.23241 0.29245 0.0
C835 C 0.32568 0.15178 0.22793 0.0
H836 H 0.38443 0.19356 0.28895 0.0
C837 C 0.30203 0.17436 0.22966 0.0
C838 C 0.30773 0.20366 0.253 0.0
H839 H 0.32009 0.12889 0.21038 0.0
H840 H 0.27893 0.16842 0.21333 0.0
C841 C 0.33805 0.21042 0.27378 0.0
C842 C 0.35019 0.08181 0.55228 0.0
C843 C 0.33227 0.07665 0.51978 0.0
H844 H 0.39144 0.06986 0.5841 0.0
C845 C 0.33919 0.05119 0.49589 0.0
H846 H 0.34504 0.10104 0.57135 0.0
C847 C 0.36529 0.03283 0.50356 0.0
C848 C 0.38496 0.04019 0.53497 0.0
H849 H 0.32536 0.04646 0.47086 0.0
H850 H 0.3715 0.01471 0.484 0.0
C851 C 0.37652 0.06382 0.55975 0.0
C852 C 0.72589 0.63257 0.3332 0.0
C853 C 0.7214 0.60727 0.30559 0.0
H854 H 0.74016 0.68572 0.35017 0.0
C855 C 0.72929 0.61694 0.27316 0.0
H856 H 0.72 0.62597 0.35849 0.0
C857 C 0.74067 0.65127 0.26827 0.0
C858 C 0.74459 0.67676 0.29574 0.0
H859 H 0.72603 0.59808 0.25132 0.0
H860 H 0.74602 0.65783 0.24282 0.0
C861 C 0.73744 0.66687 0.32836 0.0
C862 C 0.86805 0.4548 0.75135 0.0
C863 C 0.85789 0.48434 0.76657 0.0
H864 H 0.85861 0.40024 0.74179 0.0
C865 C 0.82877 0.4811 0.78352 0.0
H866 H 0.89024 0.45655 0.73793 0.0
C867 C 0.81072 0.4486 0.78609 0.0
C868 C 0.82133 0.4191 0.77126 0.0
H869 H 0.82042 0.50355 0.79545 0.0
H870 H 0.78883 0.4465 0.79998 0.0
C871 C 0.84983 0.42258 0.75345 0.0
C872 C 0.99345 0.84097 0.08352 0.0
C873 C 0.00948 0.84355 0.11697 0.0
H874 H 0.98113 0.86797 0.03936 0.0
C875 C 0.02717 0.87518 0.13071 0.0
H876 H 0.97966 0.81676 0.07235 0.0
C877 C 0.02838 0.90382 0.11194 0.0
C878 C 0.01155 0.90186 0.07903 0.0
H879 H 0.04005 0.87794 0.15621 0.0
H880 H 0.0421 0.92784 0.12371 0.0
C881 C 0.99428 0.87011 0.06469 0.0
C882 C 0.92151 0.24873 0.82611 0.0
C883 C 0.94447 0.27809 0.82253 0.0
H884 H 0.87083 0.22417 0.81752 0.0
C885 C 0.93337 0.30462 0.80457 0.0
H886 H 0.92918 0.22784 0.83986 0.0
C887 C 0.89995 0.30265 0.79201 0.0
C888 C 0.87664 0.27392 0.7967 0.0
H889 H 0.95027 0.32763 0.80133 0.0
H890 H 0.89221 0.32418 0.77938 0.0
C891 C 0.88804 0.24658 0.81318 0.0
C892 C 0.54466 0.17864 0.59466 0.0
C893 C 0.51862 0.17512 0.61589 0.0
H894 H 0.57119 0.15439 0.55768 0.0
C895 C 0.49802 0.14324 0.61462 0.0
H896 H 0.56097 0.2028 0.59492 0.0
C897 C 0.5038 0.11534 0.59283 0.0
C898 C 0.53033 0.11894 0.5722 0.0
H899 H 0.47777 0.13976 0.63071 0.0
H900 H 0.48826 0.09082 0.59292 0.0
C901 C 0.55052 0.15088 0.57326 0.0
C902 C 0.62028 0.78604 0.29167 0.0
C903 C 0.6229 0.79578 0.32693 0.0
H904 H 0.64552 0.77428 0.24778 0.0
C905 C 0.65473 0.80164 0.34505 0.0
H906 H 0.59625 0.78124 0.2769 0.0
C907 C 0.68319 0.79752 0.32825 0.0
C908 C 0.68037 0.78743 0.29303 0.0
H909 H 0.65764 0.80914 0.37228 0.0
H910 H 0.70728 0.80226 0.34277 0.0
C911 C 0.6486 0.78197 0.27498 0.0
C912 C 0.05702 0.18945 0.53305 0.0
C913 C 0.04394 0.18786 0.49863 0.0
H914 H 0.06479 0.16111 0.57718 0.0
C915 C 0.02953 0.15614 0.48187 0.0
H916 H 0.06831 0.21371 0.54646 0.0
C917 C 0.02789 0.12657 0.49912 0.0
C918 C 0.04014 0.12799 0.53361 0.0
H919 H 0.01961 0.15404 0.45524 0.0
H920 H 0.01706 0.10251 0.4853 0.0
C921 C 0.05497 0.15955 0.55057 0.0
C922 C 0.61 0.3172 0.17698 0.0
C923 C 0.58262 0.29212 0.17967 0.0
H924 H 0.66084 0.33594 0.19383 0.0
C925 C 0.58487 0.26778 0.20389 0.0
H926 H 0.60883 0.33637 0.15863 0.0
C927 C 0.6145 0.26786 0.22435 0.0
C928 C 0.64226 0.292 0.22048 0.0
H929 H 0.56395 0.24836 0.20662 0.0
H930 H 0.61605 0.24829 0.24222 0.0
C931 C 0.63968 0.31701 0.19712 0.0
C932 C 0.52908 0.87206 0.0281 0.0
C933 C 0.55476 0.86559 1.00806 0.0
H934 H 0.50402 0.91005 0.05204 0.0
C935 C 0.57838 0.89307 1.00132 0.0
H936 H 0.51064 0.85131 0.03392 0.0
C937 C 0.57472 0.92676 0.01192 0.0
C938 C 0.5472 0.93345 0.02915 0.0
H939 H 0.59855 0.88876 0.98611 0.0
H940 H 0.59216 0.94755 1.00445 0.0
C941 C 0.52525 0.90573 0.03844 0.0
C942 C 0.91828 0.76351 0.68995 0.0
C943 C 0.9408 0.79281 0.68602 0.0
H944 H 0.87654 0.74226 0.71444 0.0
C945 C 0.94067 0.82301 0.70732 0.0
H946 H 0.91818 0.73975 0.67434 0.0
C947 C 0.91672 0.82442 0.73065 0.0
C948 C 0.89288 0.79564 0.73266 0.0
H949 H 0.95809 0.84587 0.70492 0.0
H950 H 0.91565 0.84836 0.74549 0.0
C951 C 0.89458 0.76493 0.71305 0.0
C952 C 0.08911 0.03683 0.89461 0.0
C953 C 0.10958 0.01102 0.89319 0.0
H954 H 0.0516 0.05841 0.91982 0.0
C955 C 0.10605 0.98529 0.91618 0.0
H956 H 0.09092 0.05684 0.87702 0.0
C957 C 0.08314 0.98604 0.94077 0.0
C958 C 0.06336 0.01253 0.94276 0.0
H959 H 0.12133 0.96493 0.91552 0.0
H960 H 0.08184 0.96659 0.95896 0.0
C961 C 0.06632 0.03758 0.91903 0.0
C962 C 0.73463 0.29726 0.62519 0.0
C963 C 0.73665 0.33325 0.6294 0.0
H964 H 0.74132 0.25066 0.64848 0.0
C965 C 0.74701 0.3496 0.66239 0.0
H966 H 0.72695 0.28368 0.60028 0.0
C967 C 0.75519 0.33055 0.69019 0.0
C968 C 0.75371 0.29464 0.68576 0.0
H969 H 0.7489 0.37726 0.66677 0.0
H970 H 0.76249 0.34397 0.71516 0.0
C971 C 0.74308 0.2783 0.65289 0.0
C972 C 0.44206 0.07969 0.38899 0.0
C973 C 0.46173 0.07909 0.36128 0.0
H974 H 0.43833 0.07314 0.44221 0.0
C975 C 0.49476 0.07312 0.36764 0.0
H976 H 0.41651 0.08422 0.38512 0.0
C977 C 0.50741 0.06677 0.40062 0.0
C978 C 0.48732 0.06615 0.42811 0.0
H979 H 0.5106 0.07242 0.34693 0.0
H980 H 0.53269 0.06137 0.40429 0.0
C981 C 0.45463 0.0733 0.42187 0.0
C982 C 0.80169 0.71874 0.10015 0.0
C983 C 0.77275 0.71187 0.07747 0.0
H984 H 0.82288 0.73902 0.15022 0.0
C985 C 0.74392 0.72493 0.08573 0.0
H986 H 0.82424 0.70896 0.09419 0.0
C987 C 0.74343 0.74277 0.11745 0.0
C988 C 0.7715 0.74679 0.1412 0.0
H989 H 0.72145 0.72008 0.06834 0.0
H990 H 0.72053 0.75123 0.12424 0.0
C991 C 0.80093 0.73577 0.1321 0.0
C992 C 0.07813 0.01287 0.72657 0.0
C993 C 0.10675 0.99683 0.72658 0.0
H994 H 0.03878 0.03036 0.69623 0.0
C995 C 0.11537 0.98214 0.69564 0.0
H996 H 0.07089 0.02432 0.75011 0.0
C997 C 0.09674 0.98523 0.66489 0.0
C998 C 0.06958 1.00346 0.66473 0.0
H999 H 0.13722 0.96943 0.69505 0.0
H1000 H 0.10463 0.97499 0.64115 0.0
C1001 C 0.05981 0.01638 0.69581 0.0
C1002 C 0.70928 0.33745 0.41818 0.0
C1003 C 0.73186 0.33623 0.44707 0.0
H1004 H 0.6977 0.32606 0.36381 0.0
C1005 C 0.76015 0.3203 0.44235 0.0
H1006 H 0.68733 0.34963 0.42067 0.0
C1007 C 0.76614 0.30679 0.40979 0.0
C1008 C 0.74406 0.30867 0.38066 0.0
H1009 H 0.7782 0.31887 0.46383 0.0
H1010 H 0.78858 0.2954 0.40744 0.0
C1011 C 0.71528 0.32387 0.38547 0.0
C1012 C 0.49262 0.09696 0.16465 0.0
C1013 C 0.46938 0.07022 0.17384 0.0
H1014 H 0.52781 0.11359 0.12943 0.0
C1015 C 0.46444 0.03869 0.15353 0.0
H1016 H 0.49709 0.12155 0.17961 0.0
C1017 C 0.48237 0.03398 0.12501 0.0
C1018 C 0.50534 0.0608 0.11564 0.0
H1019 H 0.44694 0.01739 0.15993 0.0
H1020 H 0.47857 0.00914 0.11062 0.0
C1021 C 0.51025 0.09235 0.13586 0.0
C1022 C 0.7613 0.73413 0.92365 0.0
C1023 C 0.78474 0.71133 0.92656 0.0
H1024 H 0.74415 0.77436 0.89664 0.0
C1025 C 0.8124 0.71549 0.90762 0.0
H1026 H 0.74014 0.7321 0.93863 0.0
C1027 C 0.81495 0.7402 0.8838 0.0
C1028 C 0.78975 0.76081 0.87869 0.0
H1029 H 0.83114 0.69863 0.90997 0.0
H1030 H 0.83509 0.74108 0.8675 0.0
C1031 C 0.76383 0.75871 0.89999 0.0
C1032 C 0.8884 0.07602 0.03661 0.0
C1033 C 0.89231 0.10519 0.01782 0.0
H1034 H 0.90756 0.03093 0.0519 0.0
C1035 C 0.92012 0.11019 0.99879 0.0
H1036 H 0.86743 0.07119 0.0516 0.0
C1037 C 0.94303 0.08634 0.99833 0.0
C1038 C 0.93922 0.05747 0.01765 0.0
H1039 H 0.92378 0.1321 0.98367 0.0
H1040 H 0.96341 0.09024 0.98249 0.0
C1041 C 0.91149 0.05276 0.03669 0.0
C1042 C 0.3868 0.49065 0.09893 0.0
C1043 C 0.36098 0.49966 0.0771 0.0
H1044 H 0.43925 0.49171 0.10857 0.0
C1045 C 0.36841 0.52263 0.05223 0.0
H1046 H 0.38161 0.47294 0.11831 0.0
C1047 C 0.40123 0.53319 0.04649 0.0
C1048 C 0.42708 0.52085 0.06552 0.0
H1049 H 0.34882 0.53021 0.03534 0.0
H1050 H 0.40612 0.54915 0.02561 0.0
C1051 C 0.41976 0.50115 0.09311 0.0
C1052 C 0.27883 0.63318 0.75069 0.0
C1053 C 0.31348 0.63808 0.75806 0.0
H1054 H 0.23419 0.6562 0.75032 0.0
C1055 C 0.32969 0.67057 0.7716 0.0
H1056 H 0.26567 0.6084 0.74026 0.0
C1057 C 0.31165 0.69753 0.77776 0.0
C1058 C 0.27713 0.69279 0.77048 0.0
H1059 H 0.3564 0.67525 0.77741 0.0
H1060 H 0.32497 0.72234 0.78688 0.0
C1061 C 0.26085 0.66043 0.7566 0.0
C1062 C 0.21428 0.59732 0.55124 0.0
C1063 C 0.2238 0.61227 0.52146 0.0
H1064 H 0.17462 0.57124 0.57641 0.0
C1065 C 0.20009 0.61057 0.49309 0.0
H1066 H 0.23197 0.59825 0.57353 0.0
C1067 C 0.16737 0.59516 0.49477 0.0
C1068 C 0.15764 0.58114 0.52485 0.0
H1069 H 0.20663 0.6218 0.46976 0.0
H1070 H 0.14952 0.59485 0.4727 0.0
C1071 C 0.18148 0.58189 0.55291 0.0
C1072 C 0.72065 0.91977 0.80938 0.0
C1073 C 0.68693 0.90772 0.7991 0.0
H1074 H 0.77065 0.90848 0.81404 0.0
C1075 C 0.678 0.87293 0.78707 0.0
H1076 H 0.72856 0.94642 0.81859 0.0
C1077 C 0.70231 0.851 0.78488 0.0
C1078 C 0.73609 0.86348 0.79419 0.0
H1079 H 0.65234 0.86281 0.77873 0.0
H1080 H 0.69479 0.82463 0.77478 0.0
C1081 C 0.74488 0.89805 0.80669 0.0
C1082 C 0.69548 0.00967 0.53369 0.0
C1083 C 0.697 0.97528 0.5231 0.0
H1084 H 0.66651 0.05088 0.53204 0.0
C1085 C 0.67262 0.95723 0.4987 0.0
H1086 H 0.71445 0.02416 0.55206 0.0
C1087 C 0.64531 0.97234 0.48752 0.0
C1088 C 0.64264 0.00587 0.49996 0.0
H1089 H 0.67357 0.93075 0.48992 0.0
H1090 H 0.62524 0.95709 0.47099 0.0
C1091 C 0.66853 0.02511 0.52178 0.0
C1092 C 0.31318 0.43447 0.7309 0.0
C1093 C 0.31996 0.45878 0.75932 0.0
H1094 H 0.29716 0.382 0.71257 0.0
C1095 C 0.31371 0.44817 0.79188 0.0
H1096 H 0.31767 0.44183 0.70548 0.0
C1097 C 0.30206 0.41372 0.79607 0.0
C1098 C 0.29627 0.38911 0.76776 0.0
H1099 H 0.31871 0.4663 0.81432 0.0
H1100 H 0.29835 0.40628 0.82163 0.0
C1101 C 0.30139 0.4001 0.73504 0.0
C1102 C 0.17302 0.60766 0.30587 0.0
C1103 C 0.18272 0.57838 0.28965 0.0
H1104 H 0.18363 0.66189 0.31778 0.0
C1105 C 0.21224 0.58163 0.27337 0.0
H1106 H 0.15056 0.60586 0.31885 0.0
C1107 C 0.23112 0.614 0.27237 0.0
C1108 C 0.22097 0.64329 0.28821 0.0
H1109 H 0.22024 0.55934 0.26071 0.0
H1110 H 0.25328 0.61619 0.2589 0.0
C1111 C 0.19209 0.63971 0.3054 0.0
C1112 C 0.55438 0.7196 0.47296 0.0
C1113 C 0.54165 0.71515 0.43825 0.0
H1114 H 0.56333 0.69519 0.51952 0.0
C1115 C 0.52806 0.68219 0.42389 0.0
H1116 H 0.56494 0.74484 0.48468 0.0
C1117 C 0.52693 0.65425 0.44369 0.0
C1118 C 0.53952 0.65849 0.47831 0.0
H1119 H 0.51795 0.67791 0.39732 0.0
H1120 H 0.51611 0.62919 0.43169 0.0
C1121 C 0.55342 0.69135 0.49289 0.0
C1122 C 0.61417 0.24998 0.7549 0.0
C1123 C 0.60178 0.27705 0.73909 0.0
H1124 H 0.65641 0.23098 0.77827 0.0
C1125 C 0.62351 0.30785 0.73748 0.0
H1126 H 0.59819 0.22596 0.75668 0.0
C1127 C 0.65718 0.31084 0.74993 0.0
C1128 C 0.66993 0.28306 0.76421 0.0
H1129 H 0.61479 0.32925 0.72544 0.0
H1130 H 0.67346 0.33435 0.74696 0.0
C1131 C 0.64771 0.25292 0.76727 0.0
C1132 C 0.04776 0.40081 0.9669 0.0
C1133 C 0.031 0.39062 0.93428 0.0
H1134 H 0.05268 0.4362 0.01183 0.0
C1135 C 1.0067 0.40962 0.92147 0.0
H1136 H 0.06662 0.38665 0.97739 0.0
C1137 C 0.99826 0.43725 0.94139 0.0
C1138 C 0.01442 0.44699 0.97424 0.0
H1139 H 0.99327 0.40236 0.8965 0.0
H1140 H 0.97878 0.45082 0.93118 0.0
C1141 C 0.03981 0.42909 0.98658 0.0
C1142 C 0.89177 0.77784 0.21459 0.0
C1143 C 0.91755 0.76157 0.22919 0.0
H1144 H 0.84388 0.79322 0.21939 0.0
C1145 C 0.91326 0.74661 0.26025 0.0
H1146 H 0.89416 0.78959 0.19066 0.0
C1147 C 0.88418 0.74844 0.27658 0.0
C1148 C 0.85877 0.76537 0.2623 0.0
H1149 H 0.93252 0.73381 0.27215 0.0
H1150 H 0.88185 0.73708 0.30072 0.0
C1151 C 0.86282 0.7798 0.23098 0.0
C1152 C 0.47194 0.38174 0.03935 0.0
C1153 C 0.5005 0.3732 0.05725 0.0
H1154 H 0.4506 0.41977 0.01187 0.0
C1155 C 0.53026 0.39619 0.05983 0.0
H1156 H 0.44869 0.36445 0.03707 0.0
C1157 C 0.53126 0.42764 0.04569 0.0
C1158 C 0.50256 0.43661 0.02869 0.0
H1159 H 0.55269 0.39025 0.07342 0.0
H1160 H 0.55447 0.44502 0.04829 0.0
C1161 C 0.47301 0.4133 0.02504 0.0
C1162 C 0.9559 0.29194 0.35358 0.0
C1163 C 0.95737 0.2698 0.38 0.0
H1164 H 0.92545 0.30968 0.31345 0.0
C1165 C 0.92918 0.24655 0.38474 0.0
H1166 H 0.97739 0.30993 0.34923 0.0
C1167 C 0.89962 0.24632 0.36418 0.0
C1168 C 0.89786 0.26931 0.33862 0.0
H1169 H 0.92976 0.229 0.40472 0.0
H1170 H 0.87792 0.22879 0.36891 0.0
C1171 C 0.92631 0.29168 0.33301 0.0
C1172 C 0.96727 0.67342 0.5479 0.0
C1173 C 0.99374 0.69955 0.54505 0.0
H1174 H 0.94991 0.61942 0.54174 0.0
C1175 C 0.02077 0.69185 0.52772 0.0
H1176 H 0.94606 0.67876 0.56104 0.0
C1177 C 0.02293 0.65802 0.51649 0.0
C1178 C 0.99821 0.63124 0.52268 0.0
H1179 H 0.0413 0.71165 0.52477 0.0
H1180 H 0.04512 0.6527 0.50513 0.0
C1181 C 0.96952 0.63943 0.53684 0.0
C1182 C 0.59917 0.75428 0.84221 0.0
C1183 C 0.60598 0.74609 0.87605 0.0
H1184 H 0.61666 0.75738 0.79252 0.0
C1185 C 0.63378 0.73007 0.8846 0.0
H1186 H 0.57767 0.76639 0.83495 0.0
C1187 C 0.65552 0.7241 0.86011 0.0
C1188 C 0.65002 0.73468 0.82698 0.0
H1189 H 0.63925 0.72309 0.91042 0.0
H1190 H 0.67773 0.7133 0.86781 0.0
C1191 C 0.62124 0.74888 0.81788 0.0
C1192 C 0.45853 0.58545 0.66965 0.0
C1193 C 0.42665 0.56589 0.66658 0.0
H1194 H 0.50462 0.59682 0.64697 0.0
C1195 C 0.41596 0.54442 0.63666 0.0
H1196 H 0.46733 0.60232 0.69247 0.0
C1197 C 0.43735 0.54092 0.61128 0.0
C1198 C 0.46962 0.5593 0.61493 0.0
H1199 H 0.3916 0.52909 0.6335 0.0
H1200 H 0.4289 0.52314 0.58901 0.0
C1201 C 0.47982 0.58244 0.64374 0.0
C1202 C 0.79773 0.2106 0.89802 0.0
C1203 C 0.80716 0.2275 0.93094 0.0
H1204 H 0.78366 0.21536 0.84473 0.0
C1205 C 0.80892 0.26347 0.93453 0.0
H1206 H 0.79609 0.18293 0.89415 0.0
C1207 C 0.80115 0.28191 0.90627 0.0
C1208 C 0.7915 0.26506 0.87344 0.0
H1209 H 0.8159 0.27744 0.95936 0.0
H1210 H 0.80271 0.30957 0.91019 0.0
C1211 C 0.79023 0.22915 0.86964 0.0
C1212 C 0.04303 0.49437 0.18499 0.0
C1213 C 0.07521 0.48574 0.19113 0.0
H1214 H 1.00603 0.50785 0.14812 0.0
C1215 C 0.09409 0.48228 0.16313 0.0
H1216 H 0.02784 0.49734 0.20596 0.0
C1217 C 0.0817 0.4883 0.13012 0.0
C1218 C 0.04996 0.49798 0.12396 0.0
H1219 H 0.11893 0.47564 0.16679 0.0
H1220 H 0.09746 0.48603 0.10952 0.0
C1221 C 0.03054 0.50039 0.15178 0.0
C1222 C 0.81775 0.86641 0.46492 0.0
C1223 C 0.78977 0.85934 0.48303 0.0
H1224 H 0.84004 0.8556 0.41878 0.0
C1225 C 0.76452 0.83243 0.47064 0.0
H1226 H 0.83762 0.88695 0.47416 0.0
C1227 C 0.76595 0.81459 0.43922 0.0
C1228 C 0.79261 0.82351 0.41985 0.0
H1229 H 0.74287 0.82624 0.4844 0.0
H1230 H 0.74537 0.79507 0.42933 0.0
C1231 C 0.81913 0.84857 0.43335 0.0
C1232 C 0.43519 0.58345 0.86455 0.0
C1233 C 0.43564 0.55925 0.83671 0.0
H1234 H 0.45197 0.59916 0.91706 0.0
C1235 C 0.45613 0.53363 0.83975 0.0
H1236 H 0.41981 0.60365 0.86274 0.0
C1237 C 0.4744 0.53104 0.87081 0.0
C1238 C 0.47257 0.55415 0.89911 0.0
H1239 H 0.45705 0.51478 0.81859 0.0
H1240 H 0.48898 0.5102 0.87301 0.0
C1241 C 0.45364 0.58098 0.89554 0.0
C1242 C 0.78113 0.24272 0.11761 0.0
C1243 C 0.8103 0.22836 0.11287 0.0
H1244 H 0.7516 0.26598 0.15254 0.0
C1245 C 0.83327 0.22833 0.14168 0.0
H1246 H 0.76274 0.24316 0.09619 0.0
C1247 C 0.82679 0.24143 0.17437 0.0
C1248 C 0.79716 0.25503 0.17921 0.0
H1249 H 0.85589 0.21731 0.13917 0.0
H1250 H 0.84473 0.24016 0.19597 0.0
C1251 C 0.77468 0.25584 0.15015 0.0
C1252 C 0.07682 0.52377 0.40049 0.0
C1253 C 0.07016 0.49291 0.37914 0.0
H1254 H 0.06473 0.55285 0.44472 0.0
C1255 C 0.04591 0.46681 0.38768 0.0
H1256 H 0.09519 0.54456 0.39463 0.0
C1257 C 0.02886 0.47145 0.41686 0.0
C1258 C 0.03545 0.50238 0.43807 0.0
H1259 H 0.04016 0.44275 0.37188 0.0
H1260 H 0.0104 0.45077 0.42278 0.0
C1261 C 0.05954 0.52851 0.42943 0.0
C1262 C 0.72778 0.85932 0.65749 0.0
C1263 C 0.75119 0.85681 0.63362 0.0
H1264 H 0.7082 0.8392 0.70214 0.0
C1265 C 0.76787 0.828 0.63193 0.0
H1266 H 0.71425 0.88106 0.65884 0.0
C1267 C 0.76387 0.80392 0.65592 0.0
C1268 C 0.74321 0.8083 0.68202 0.0
H1269 H 0.78537 0.82491 0.61312 0.0
H1270 H 0.77914 0.78352 0.65588 0.0
C1271 C 0.72383 0.83507 0.68174 0.0
C1272 C 0.61727 0.44658 0.54868 0.0
C1273 C 0.65159 0.45829 0.54958 0.0
H1274 H 0.56798 0.45999 0.548 0.0
C1275 C 0.66179 0.49407 0.55203 0.0
H1276 H 0.60831 0.41928 0.54653 0.0
C1277 C 0.63864 0.5173 0.55326 0.0
C1278 C 0.60435 0.5058 0.55228 0.0
H1279 H 0.68786 0.50431 0.55271 0.0
H1280 H 0.64773 0.54456 0.55469 0.0
C1281 C 0.59401 0.47002 0.54996 0.0
C1282 C 0.17072 0.05705 0.52481 0.0
C1283 C 0.17701 0.07411 0.49538 0.0
H1284 H 0.13422 0.03148 0.55353 0.0
C1285 C 0.15134 0.07389 0.46935 0.0
H1286 H 0.19035 0.05653 0.54503 0.0
C1287 C 0.119 0.05982 0.47433 0.0
C1288 C 0.11216 0.04559 0.50525 0.0
H1289 H 0.15575 0.08681 0.44638 0.0
H1290 H 0.09918 0.06198 0.45484 0.0
C1291 C 0.13856 0.04268 0.52963 0.0
C1292 C 0.26326 0.93403 0.81917 0.0
C1293 C 0.22874 0.92903 0.81056 0.0
H1294 H 0.30832 0.91162 0.81998 0.0
C1295 C 0.21319 0.89668 0.79593 0.0
H1296 H 0.27598 0.95868 0.83045 0.0
C1297 C 0.23173 0.8701 0.78967 0.0
C1298 C 0.26617 0.87506 0.7977 0.0
H1299 H 0.18659 0.8918 0.78923 0.0
H1300 H 0.21883 0.84542 0.77971 0.0
C1301 C 0.28176 0.90719 0.81298 0.0
C1302 C 0.32795 0.96661 0.00997 0.0
C1303 C 0.31938 0.95295 0.04067 0.0
H1304 H 0.36673 0.99074 0.98239 0.0
C1305 C 0.34403 0.95491 0.0682 0.0
H1306 H 0.30952 0.96546 0.98827 0.0
C1307 C 0.37676 0.96925 0.06474 0.0
C1308 C 0.38548 0.98197 0.03372 0.0
H1309 H 0.33822 0.94458 0.09216 0.0
H1310 H 0.39539 0.9698 0.08617 0.0
C1311 C 0.36069 0.98103 1.00654 0.0
C1312 C 0.82317 0.64771 0.7317 0.0
C1313 C 0.85437 0.6556 0.7509 0.0
H1314 H 0.77526 0.66284 0.71928 0.0
C1315 C 0.86143 0.68686 0.77137 0.0
H1316 H 0.81685 0.6238 0.71573 0.0
C1317 C 0.8375 0.70899 0.77361 0.0
C1318 C 0.80598 0.70067 0.75515 0.0
H1319 H 0.88508 0.69372 0.78662 0.0
H1320 H 0.84345 0.73229 0.79055 0.0
C1321 C 0.79927 0.67002 0.73376 0.0
C1322 C 0.86047 0.58768 0.05829 0.0
C1323 C 0.84032 0.57782 0.02747 0.0
H1324 H 0.90314 0.57925 0.09025 0.0
C1325 C 0.84428 0.54781 1.00799 0.0
H1326 H 0.85757 0.61053 0.07404 0.0
C1327 C 0.86971 0.52931 0.01792 0.0
C1328 C 0.89183 0.54115 0.04698 0.0
H1329 H 0.82858 0.53937 0.9845 0.0
H1330 H 0.87367 0.50747 1.00129 0.0
C1331 C 0.88624 0.5696 0.06786 0.0
C1332 C 0.22823 0.11815 0.77123 0.0
C1333 C 0.22524 0.10703 0.80419 0.0
H1334 H 0.24114 0.1602 0.741 0.0
C1335 C 0.23508 0.1308 0.83272 0.0
H1336 H 0.22085 0.10046 0.7487 0.0
C1337 C 0.24657 0.16524 0.82831 0.0
C1338 C 0.24858 0.17663 0.79526 0.0
H1339 H 0.23299 0.12304 0.85843 0.0
H1340 H 0.25327 0.18302 0.85086 0.0
C1341 C 0.23982 0.15249 0.76681 0.0
C1342 C 0.365 0.95619 0.25245 0.0
C1343 C 0.35502 0.98645 0.26616 0.0
H1344 H 0.35511 0.90152 0.24518 0.0
C1345 C 0.32573 0.98438 0.28284 0.0
H1346 H 0.38734 0.95703 0.23932 0.0
C1347 C 0.30735 0.95231 0.28668 0.0
C1348 C 0.31778 0.9221 0.27331 0.0
H1349 H 0.31755 0.00742 0.29368 0.0
H1350 H 0.28534 0.95113 0.30033 0.0
C1351 C 0.34645 0.92441 0.25574 0.0
C1352 C 0.49212 0.34024 0.58806 0.0
C1353 C 0.50379 0.34413 0.62306 0.0
H1354 H 0.48304 0.36564 0.54213 0.0
C1355 C 0.51547 0.37715 0.63857 0.0
H1356 H 0.48297 0.315 0.57546 0.0
C1357 C 0.51571 0.40568 0.61963 0.0
C1358 C 0.50407 0.40202 0.58474 0.0
H1359 H 0.52471 0.38102 0.66541 0.0
H1360 H 0.52505 0.43076 0.63251 0.0
C1361 C 0.49213 0.36908 0.569 0.0
C1362 C 0.4184 0.75401 0.32648 0.0
C1363 C 0.44059 0.78446 0.32487 0.0
H1364 H 0.36826 0.7282 0.31672 0.0
C1365 C 0.42869 0.81187 0.30917 0.0
H1366 H 0.42674 0.73236 0.33839 0.0
C1367 C 0.39518 0.8095 0.29679 0.0
C1368 C 0.3726 0.77958 0.29959 0.0
H1369 H 0.44504 0.83565 0.30743 0.0
H1370 H 0.38681 0.83163 0.28582 0.0
C1371 C 0.38484 0.75155 0.3139 0.0
C1372 C 0.04979 0.66346 0.12083 0.0
C1373 C 0.01825 0.67385 0.11842 0.0
H1374 H 0.08069 0.62773 0.10353 0.0
C1375 C 0.99297 0.65512 0.0952 0.0
H1376 H 0.06977 0.67725 0.13851 0.0
C1377 C 0.99948 0.62681 0.07439 0.0
C1378 C 0.03112 0.61645 0.07714 0.0
H1379 H 0.96846 0.66275 0.09267 0.0
H1380 H 0.97991 0.61322 0.05616 0.0
C1381 C 0.05604 0.63501 0.10071 0.0
C1382 C 0.12198 0.27733 0.79404 0.0
C1383 C 0.12439 0.29317 0.82744 0.0
H1384 H 0.14763 0.26184 0.75163 0.0
C1385 C 0.15627 0.30529 0.84401 0.0
H1386 H 0.09793 0.26764 0.78052 0.0
C1387 C 0.18501 0.30145 0.82754 0.0
C1388 C 0.18239 0.28581 0.79402 0.0
H1389 H 0.15903 0.31749 0.86983 0.0
H1390 H 0.20914 0.3112 0.84077 0.0
C1391 C 0.15054 0.27396 0.7775 0.0
C1392 C 0.51269 0.66216 1.00227 0.0
C1393 C 0.54201 0.68574 1.00482 0.0
H1394 H 0.48939 0.61326 0.01458 0.0
C1395 C 0.57081 0.67806 0.02303 0.0
H1396 H 0.49009 0.66751 0.98854 0.0
C1397 C 0.57044 0.64675 0.03768 0.0
C1398 C 0.54131 0.62289 0.03419 0.0
H1399 H 0.59374 0.69586 0.02532 0.0
H1400 H 0.59303 0.64092 0.05103 0.0
C1401 C 0.51233 0.63104 0.01693 0.0
C1402 C 0.08932 0.76722 0.70005 0.0
C1403 C 0.08804 0.79179 0.67594 0.0
H1404 H 0.11881 0.74803 0.73999 0.0
C1405 C 0.11521 0.81757 0.67505 0.0
H1406 H 0.06846 0.74731 0.70143 0.0
C1407 C 0.14387 0.81786 0.69692 0.0
C1408 C 0.14553 0.79264 0.72019 0.0
H1409 H 0.11469 0.83696 0.65687 0.0
H1410 H 0.165 0.83732 0.69506 0.0
C1411 C 0.11789 0.76778 0.72224 0.0
C1412 C 0.0775 0.39041 0.50347 0.0
C1413 C 0.05164 0.36343 0.50551 0.0
H1414 H 0.09365 0.44453 0.51139 0.0
C1415 C 0.02402 0.36986 0.52259 0.0
H1416 H 0.09916 0.38609 0.49061 0.0
C1417 C 0.02083 0.40325 0.53454 0.0
C1418 C 0.04517 0.43083 0.52955 0.0
H1419 H 1.00389 0.34942 0.52493 0.0
H1420 H 0.99828 0.4076 0.54573 0.0
C1421 C 0.0743 0.42389 0.51542 0.0
C1422 C 0.41787 0.33759 0.1892 0.0
C1423 C 0.43604 0.30988 0.19042 0.0
H1424 H 0.38152 0.36375 0.21189 0.0
C1425 C 0.43474 0.28983 0.21853 0.0
H1426 H 0.41883 0.35374 0.168 0.0
C1427 C 0.41395 0.29597 0.24391 0.0
C1428 C 0.39395 0.32207 0.24139 0.0
H1429 H 0.44897 0.26869 0.22041 0.0
H1430 H 0.41202 0.2789 0.26432 0.0
C1431 C 0.39688 0.3436 0.21451 0.0
C1432 C 0.58387 0.47914 0.39392 0.0
C1433 C 0.61641 0.49725 0.39823 0.0
H1434 H 0.5372 0.46841 0.41565 0.0
C1435 C 0.62765 0.51645 0.42938 0.0
H1436 H 0.57461 0.46402 0.37014 0.0
C1437 C 0.60621 0.51928 0.45485 0.0
C1438 C 0.57334 0.50244 0.45003 0.0
H1439 H 0.65252 0.53064 0.43349 0.0
H1440 H 0.61507 0.53552 0.47808 0.0
C1441 C 0.5625 0.48148 0.41985 0.0
C1442 C 0.23453 0.80095 0.12792 0.0
C1443 C 0.23647 0.83695 0.13178 0.0
H1444 H 0.24033 0.75453 0.15189 0.0
C1445 C 0.24569 0.85351 0.16488 0.0
H1446 H 0.22768 0.78722 0.10297 0.0
C1447 C 0.25275 0.83461 0.19315 0.0
C1448 C 0.25139 0.79868 0.18908 0.0
H1449 H 0.2474 0.88116 0.169 0.0
H1450 H 0.25904 0.84815 0.21819 0.0
C1451 C 0.24198 0.78218 0.15606 0.0
C1452 C 0.94682 0.58257 0.89001 0.0
C1453 C 0.96499 0.57835 0.86156 0.0
H1454 H 0.94427 0.57903 0.94378 0.0
C1455 C 0.99681 0.56867 0.86706 0.0
H1456 H 0.92226 0.59001 0.88684 0.0
C1457 C 0.00959 0.56229 0.90004 0.0
C1458 C 0.99084 0.56541 0.9283 0.0
H1459 H 0.01145 0.56507 0.84574 0.0
H1460 H 0.03377 0.55397 0.90317 0.0
C1461 C 0.95951 0.57621 0.92281 0.0
C1462 C 0.24517 0.23129 0.58541 0.0
C1463 C 0.27243 0.21547 0.57692 0.0
H1464 H 0.22389 0.25914 0.62452 0.0
C1465 C 0.30123 0.21937 0.59976 0.0
H1466 H 0.22284 0.22878 0.56792 0.0
C1467 C 0.30153 0.23599 0.63211 0.0
C1468 C 0.27337 0.24952 0.64148 0.0
H1469 H 0.32261 0.20748 0.59363 0.0
H1470 H 0.32314 0.23684 0.65032 0.0
C1471 C 0.24579 0.24866 0.61756 0.0
C1472 C 0.61088 0.47895 0.19983 0.0
C1473 C 0.6092 0.50299 0.22749 0.0
H1474 H 0.59515 0.46263 0.14718 0.0
C1475 C 0.58765 0.52758 0.22396 0.0
H1476 H 0.62711 0.45952 0.20202 0.0
C1477 C 0.56951 0.52937 0.19264 0.0
C1478 C 0.57252 0.50647 0.16454 0.0
H1479 H 0.58576 0.54629 0.24495 0.0
H1480 H 0.55408 0.54947 0.19011 0.0
C1481 C 0.59255 0.48061 0.16856 0.0
C1482 C 0.26033 0.82137 0.94523 0.0
C1483 C 0.23127 0.83587 0.9501 0.0
H1484 H 0.28978 0.79827 0.91017 0.0
C1485 C 0.20828 0.83615 0.92134 0.0
H1486 H 0.27872 0.82072 0.96661 0.0
C1487 C 0.21471 0.8232 0.88855 0.0
C1488 C 0.24433 0.8096 0.88359 0.0
H1489 H 0.18575 0.84729 0.92395 0.0
H1490 H 0.19683 0.82472 0.86695 0.0
C1491 C 0.26674 0.80848 0.91263 0.0
C1492 C 0.96405 0.53875 0.65424 0.0
C1493 C 0.96938 0.57026 0.67457 0.0
H1494 H 0.97809 0.50881 0.6116 0.0
C1495 C 0.99314 0.59665 0.66564 0.0
H1496 H 0.94618 0.5177 0.6605 0.0
C1497 C 0.01093 0.59168 0.63704 0.0
C1498 C 1.00564 0.56011 0.61684 0.0
H1499 H 0.99793 0.62118 0.68069 0.0
H1500 H 0.02893 0.61261 0.63078 0.0
C1501 C 0.98214 0.53367 0.62595 0.0
C1502 C 0.30596 0.21854 0.4087 0.0
C1503 C 0.27674 0.21243 0.42505 0.0
H1504 H 0.33059 0.24552 0.37054 0.0
C1505 C 0.25184 0.23319 0.41948 0.0
H1506 H 0.3258 0.20332 0.41318 0.0
C1507 C 0.25482 0.25768 0.39575 0.0
C1508 C 0.28265 0.26169 0.37705 0.0
H1509 H 0.2294 0.22964 0.43246 0.0
H1510 H 0.23425 0.27176 0.39032 0.0
C1511 C 0.30895 0.24314 0.38482 0.0
C1512 C 0.42591 0.61579 0.51583 0.0
C1513 C 0.39154 0.60436 0.51508 0.0
H1514 H 0.47505 0.60201 0.51666 0.0
C1515 C 0.38116 0.56861 0.51308 0.0
H1516 H 0.43503 0.64304 0.51767 0.0
C1517 C 0.40415 0.54517 0.51203 0.0
C1518 C 0.43848 0.55638 0.51276 0.0
H1519 H 0.35505 0.55857 0.51255 0.0
H1520 H 0.39489 0.51796 0.51087 0.0
C1521 C 0.449 0.59214 0.51477 0.0
C1522 C 0.8615 0.02244 0.54943 0.0
C1523 C 0.85521 1.00143 0.57625 0.0
H1524 H 0.89829 0.05045 0.52268 0.0
C1525 C 0.88101 0.99861 0.60127 0.0
H1526 H 0.84183 0.02556 0.53012 0.0
C1527 C 0.91345 0.01295 0.59703 0.0
C1528 C 0.92032 0.0301 0.56765 0.0
H1529 H 0.87669 0.98279 0.62237 0.0
H1530 H 0.9333 0.00787 0.61518 0.0
C1531 C 0.89385 0.03665 0.54512 0.0
C1532 C 0.7867 0.14212 0.22968 0.0
C1533 C 0.81187 0.13721 0.25458 0.0
H1534 H 0.74921 0.17263 0.2149 0.0
C1535 C 0.81743 0.15891 0.28508 0.0
H1536 H 0.78182 0.12565 0.20606 0.0
C1537 C 0.79822 0.18509 0.29055 0.0
C1538 C 0.77383 0.19077 0.26526 0.0
H1539 H 0.83623 0.15521 0.30507 0.0
H1540 H 0.8021 0.20051 0.31472 0.0
C1541 C 0.76801 0.16888 0.23486 0.0
C1542 C 0.69963 0.11046 0.98978 0.0
C1543 C 0.72329 0.11172 0.01813 0.0
H1544 H 0.64874 0.09615 0.96973 0.0
C1545 C 0.71347 0.09733 0.04806 0.0
H1546 H 0.70642 0.12136 0.96638 0.0
C1547 C 0.68044 0.08291 0.04995 0.0
C1548 C 0.65662 0.0827 0.02199 0.0
H1549 H 0.73112 0.09793 0.07034 0.0
H1550 H 0.67341 0.07264 0.07356 0.0
C1551 C 0.6666 0.09612 0.99172 0.0
C1552 C 0.21297 0.41335 0.32348 0.0
C1553 C 0.18279 0.40657 0.30239 0.0
H1554 H 0.25996 0.39719 0.33792 0.0
C1555 C 0.17652 0.37625 0.28044 0.0
H1556 H 0.21864 0.43652 0.34064 0.0
C1557 C 0.20036 0.35395 0.27867 0.0
C1558 C 0.23089 0.36122 0.29906 0.0
H1559 H 0.1537 0.37035 0.26366 0.0
H1560 H 0.19528 0.33161 0.26043 0.0
C1561 C 0.23671 0.39088 0.32189 0.0
C1562 C 0.1973 0.51576 0.04166 0.0
C1563 C 0.20072 0.48359 0.02601 0.0
H1564 H 0.16791 0.5565 0.04384 0.0
C1565 C 0.17926 0.46967 0.99712 0.0
H1566 H 0.21404 0.52728 0.06352 0.0
C1567 C 0.15289 0.48626 0.9859 0.0
C1568 C 0.14804 0.51721 1.00312 0.0
H1569 H 0.18176 0.44506 0.98431 0.0
H1570 H 0.13508 0.47379 0.96528 0.0
C1571 C 0.17129 0.5327 0.03 0.0
C1572 C 0.80865 0.94754 0.2896 0.0
C1573 C 0.8128 0.95856 0.25674 0.0
H1574 H 0.79579 0.90539 0.31975 0.0
C1575 C 0.80432 0.93457 0.22821 0.0
H1576 H 0.81489 0.96541 0.31215 0.0
C1577 C 0.79339 0.9 0.23259 0.0
C1578 C 0.79068 0.88865 0.2656 0.0
H1579 H 0.80728 0.94224 0.2026 0.0
H1580 H 0.78804 0.88201 0.21006 0.0
C1581 C 0.7977 0.91304 0.29398 0.0
C1582 C 0.71239 0.07858 0.76867 0.0
C1583 C 0.68401 0.07582 0.78678 0.0
H1584 H 0.75321 0.11236 0.75273 0.0
C1585 C 0.67616 0.10515 0.8047 0.0
H1586 H 0.71899 0.05625 0.7547 0.0
C1587 C 0.69591 0.1368 0.80406 0.0
C1588 C 0.72365 0.1399 0.78509 0.0
H1589 H 0.65462 0.10371 0.81911 0.0
H1590 H 0.68887 0.15906 0.81775 0.0
C1591 C 0.73198 0.11053 0.76761 0.0
loop_
_geom_bond_atom_site_label_1
_geom_bond_atom_site_label_2
_geom_bond_distance
_geom_bond_site_symmetry_2
_ccdc_geom_bond_type
In0 O1 2.294 . S
In0 O2 2.326 . S
In0 O6 2.266 1_455 S
In0 O7 2.326 1_455 S
In0 O8 2.266 . S
In0 O9 2.326 . S
In0 O11 2.294 . S
In0 O12 2.326 . S
O1 In0 2.294 . S
O1 C10 1.240 . S
O2 In0 2.326 . S
O2 C10 1.252 . S
C3 O6 1.252 . S
C3 O7 1.260 . S
C4 O11 1.240 . S
C4 O12 1.252 . S
C5 O8 1.252 . S
C5 O9 1.260 . S
O6 In0 2.266 1_655 S
O6 C3 1.252 . S
O7 In0 2.326 1_655 S
O7 C3 1.260 . S
O8 In0 2.266 . S
O8 C5 1.252 . S
O9 In0 2.326 . S
O9 C5 1.260 . S
C10 O1 1.240 . S
C10 O2 1.252 . S
O11 In0 2.294 . S
O11 C4 1.240 . S
O12 In0 2.326 . S
O12 C4 1.252 . S
In13 O14 2.294 . S
In13 O15 2.326 . S
In13 O19 2.266 1_455 S
In13 O20 2.326 1_455 S
In13 O21 2.266 1_455 S
In13 O22 2.326 1_455 S
In13 O24 2.294 . S
In13 O25 2.326 . S
O14 In13 2.294 . S
O14 C23 1.240 . S
O15 In13 2.326 . S
O15 C23 1.252 . S
C16 O19 1.252 . S
C16 O20 1.260 . S
C17 O24 1.240 . S
C17 O25 1.252 . S
C18 O21 1.252 . S
C18 O22 1.260 . S
O19 In13 2.266 1_655 S
O19 C16 1.252 . S
O20 In13 2.326 1_655 S
O20 C16 1.260 . S
O21 In13 2.266 1_655 S
O21 C18 1.252 . S
O22 In13 2.326 1_655 S
O22 C18 1.260 . S
C23 O14 1.240 . S
C23 O15 1.252 . S
O24 In13 2.294 . S
O24 C17 1.240 . S
O25 In13 2.326 . S
O25 C17 1.252 . S
In26 O27 2.294 . S
In26 O28 2.326 . S
In26 O32 2.266 . S
In26 O33 2.326 . S
In26 O34 2.266 . S
In26 O35 2.326 . S
In26 O37 2.294 . S
In26 O38 2.326 . S
O27 In26 2.294 . S
O27 C36 1.240 . S
O28 In26 2.326 . S
O28 C36 1.252 . S
C29 O32 1.252 . S
C29 O33 1.260 . S
C30 O37 1.240 . S
C30 O38 1.252 . S
C31 O34 1.252 . S
C31 O35 1.260 . S
O32 In26 2.266 . S
O32 C29 1.252 . S
O33 In26 2.326 . S
O33 C29 1.260 . S
O34 In26 2.266 . S
O34 C31 1.252 . S
O35 In26 2.326 . S
O35 C31 1.260 . S
C36 O27 1.240 . S
C36 O28 1.252 . S
O37 In26 2.294 . S
O37 C30 1.240 . S
O38 In26 2.326 . S
O38 C30 1.252 . S
In39 O40 2.294 . S
In39 O41 2.326 . S
In39 O45 2.266 . S
In39 O46 2.326 . S
In39 O47 2.266 . S
In39 O48 2.326 . S
In39 O50 2.294 . S
In39 O51 2.326 . S
O40 In39 2.294 . S
O40 C49 1.240 . S
O41 In39 2.326 . S
O41 C49 1.252 . S
C42 O45 1.252 . S
C42 O46 1.260 . S
C43 O50 1.240 . S
C43 O51 1.252 . S
C44 O47 1.252 . S
C44 O48 1.260 . S
O45 In39 2.266 . S
O45 C42 1.252 . S
O46 In39 2.326 . S
O46 C42 1.260 . S
O47 In39 2.266 . S
O47 C44 1.252 . S
O48 In39 2.326 . S
O48 C44 1.260 . S
C49 O40 1.240 . S
C49 O41 1.252 . S
O50 In39 2.294 . S
O50 C43 1.240 . S
O51 In39 2.326 . S
O51 C43 1.252 . S
In52 O53 2.293 1_455 S
In52 O54 2.326 . S
In52 O58 2.266 . S
In52 O59 2.326 . S
In52 O60 2.266 . S
In52 O61 2.326 . S
In52 O63 2.294 1_455 S
In52 O64 2.326 1_455 S
O53 In52 2.293 1_655 S
O53 C62 1.239 . S
O54 In52 2.326 . S
O54 C62 1.252 1_455 S
C55 O58 1.252 . S
C55 O59 1.260 . S
C56 O63 1.240 . S
C56 O64 1.252 . S
C57 O60 1.252 . S
C57 O61 1.260 . S
O58 In52 2.266 . S
O58 C55 1.252 . S
O59 In52 2.326 . S
O59 C55 1.260 . S
O60 In52 2.266 . S
O60 C57 1.252 . S
O61 In52 2.326 . S
O61 C57 1.260 . S
C62 O53 1.239 . S
C62 O54 1.252 1_655 S
O63 In52 2.294 1_655 S
O63 C56 1.240 . S
O64 In52 2.326 1_655 S
O64 C56 1.252 . S
In65 O66 2.294 . S
In65 O67 2.326 . S
In65 O71 2.266 . S
In65 O72 2.326 . S
In65 O73 2.266 . S
In65 O74 2.326 . S
In65 O76 2.294 . S
In65 O77 2.326 . S
O66 In65 2.294 . S
O66 C75 1.240 . S
O67 In65 2.326 . S
O67 C75 1.252 . S
C68 O71 1.252 . S
C68 O72 1.260 . S
C69 O76 1.240 . S
C69 O77 1.252 . S
C70 O73 1.252 . S
C70 O74 1.260 . S
O71 In65 2.266 . S
O71 C68 1.252 . S
O72 In65 2.326 . S
O72 C68 1.260 . S
O73 In65 2.266 . S
O73 C70 1.252 . S
O74 In65 2.326 . S
O74 C70 1.260 . S
C75 O66 1.240 . S
C75 O67 1.252 . S
O76 In65 2.294 . S
O76 C69 1.240 . S
O77 In65 2.326 . S
O77 C69 1.252 . S
In78 O79 2.294 . S
In78 O80 2.326 . S
In78 O84 2.266 . S
In78 O85 2.326 . S
In78 O86 2.266 . S
In78 O87 2.326 . S
In78 O89 2.294 . S
In78 O90 2.326 . S
O79 In78 2.294 . S
O79 C88 1.240 . S
O80 In78 2.326 . S
O80 C88 1.252 . S
C81 O84 1.252 . S
C81 O85 1.260 . S
C82 O89 1.240 . S
C82 O90 1.252 . S
C83 O86 1.252 . S
C83 O87 1.260 . S
O84 In78 2.266 . S
O84 C81 1.252 . S
O85 In78 2.326 . S
O85 C81 1.260 . S
O86 In78 2.266 . S
O86 C83 1.252 . S
O87 In78 2.326 . S
O87 C83 1.260 . S
C88 O79 1.240 . S
C88 O80 1.252 . S
O89 In78 2.294 . S
O89 C82 1.240 . S
O90 In78 2.326 . S
O90 C82 1.252 . S
In91 O92 2.294 . S
In91 O93 2.326 . S
In91 O97 2.266 . S
In91 O98 2.326 . S
In91 O99 2.266 1_455 S
In91 O100 2.326 1_455 S
In91 O102 2.294 . S
In91 O103 2.326 . S
O92 In91 2.294 . S
O92 C101 1.240 . S
O93 In91 2.326 . S
O93 C101 1.252 . S
C94 O97 1.252 . S
C94 O98 1.260 . S
C95 O102 1.240 . S
C95 O103 1.252 . S
C96 O99 1.252 . S
C96 O100 1.260 . S
O97 In91 2.266 . S
O97 C94 1.252 . S
O98 In91 2.326 . S
O98 C94 1.260 . S
O99 In91 2.266 1_655 S
O99 C96 1.252 . S
O100 In91 2.326 1_655 S
O100 C96 1.260 . S
C101 O92 1.240 . S
C101 O93 1.252 . S
O102 In91 2.294 . S
O102 C95 1.240 . S
O103 In91 2.326 . S
O103 C95 1.252 . S
In104 O105 2.294 . S
In104 O106 2.326 . S
In104 O110 2.266 . S
In104 O111 2.326 . S
In104 O112 2.266 . S
In104 O113 2.326 1_545 S
In104 O115 2.294 . S
In104 O116 2.326 . S
O105 In104 2.294 . S
O105 C114 1.240 . S
O106 In104 2.326 . S
O106 C114 1.252 . S
C107 O110 1.252 . S
C107 O111 1.260 . S
C108 O115 1.240 . S
C108 O116 1.252 . S
C109 O112 1.252 1_565 S
C109 O113 1.260 . S
O110 In104 2.266 . S
O110 C107 1.252 . S
O111 In104 2.326 . S
O111 C107 1.260 . S
O112 In104 2.266 . S
O112 C109 1.252 1_545 S
O113 In104 2.326 1_565 S
O113 C109 1.260 . S
C114 O105 1.240 . S
C114 O106 1.252 . S
O115 In104 2.294 . S
O115 C108 1.240 . S
O116 In104 2.326 . S
O116 C108 1.252 . S
In117 O118 2.294 . S
In117 O119 2.326 . S
In117 O123 2.266 . S
In117 O124 2.326 . S
In117 O125 2.266 . S
In117 O126 2.326 . S
In117 O128 2.294 . S
In117 O129 2.326 . S
O118 In117 2.294 . S
O118 C127 1.240 . S
O119 In117 2.326 . S
O119 C127 1.252 . S
C120 O123 1.252 . S
C120 O124 1.260 . S
C121 O128 1.240 . S
C121 O129 1.252 . S
C122 O125 1.252 . S
C122 O126 1.260 . S
O123 In117 2.266 . S
O123 C120 1.252 . S
O124 In117 2.326 . S
O124 C120 1.260 . S
O125 In117 2.266 . S
O125 C122 1.252 . S
O126 In117 2.326 . S
O126 C122 1.260 . S
C127 O118 1.240 . S
C127 O119 1.252 . S
O128 In117 2.294 . S
O128 C121 1.240 . S
O129 In117 2.326 . S
O129 C121 1.252 . S
In130 O131 2.294 1_545 S
In130 O132 2.326 1_545 S
In130 O136 2.266 . S
In130 O137 2.325 . S
In130 O138 2.264 . S
In130 O139 2.322 . S
In130 O141 2.296 1_545 S
In130 O142 2.330 1_545 S
O131 In130 2.294 1_565 S
O131 C140 1.240 . S
O132 In130 2.326 1_565 S
O132 C140 1.252 . S
C133 O136 1.252 . S
C133 O137 1.260 . S
C134 O141 1.240 . S
C134 O142 1.252 . S
C135 O138 1.252 . S
C135 O139 1.260 . S
O136 In130 2.266 . S
O136 C133 1.252 . S
O137 In130 2.325 . S
O137 C133 1.260 . S
O138 In130 2.264 . S
O138 C135 1.252 . S
O139 In130 2.322 . S
O139 C135 1.260 . S
C140 O131 1.240 . S
C140 O132 1.252 . S
O141 In130 2.296 1_565 S
O141 C134 1.240 . S
O142 In130 2.330 1_565 S
O142 C134 1.252 . S
In143 O144 2.294 . S
In143 O145 2.326 . S
In143 O149 2.266 1_554 S
In143 O150 2.326 1_554 S
In143 O151 2.266 . S
In143 O152 2.326 . S
In143 O154 2.294 . S
In143 O155 2.326 . S
O144 In143 2.294 . S
O144 C153 1.240 . S
O145 In143 2.326 . S
O145 C153 1.252 . S
C146 O149 1.252 . S
C146 O150 1.260 . S
C147 O154 1.240 . S
C147 O155 1.252 . S
C148 O151 1.252 . S
C148 O152 1.260 . S
O149 In143 2.266 1_556 S
O149 C146 1.252 . S
O150 In143 2.326 1_556 S
O150 C146 1.260 . S
O151 In143 2.266 . S
O151 C148 1.252 . S
O152 In143 2.326 . S
O152 C148 1.260 . S
C153 O144 1.240 . S
C153 O145 1.252 . S
O154 In143 2.294 . S
O154 C147 1.240 . S
O155 In143 2.326 . S
O155 C147 1.252 . S
In156 O157 2.294 . S
In156 O158 2.326 . S
In156 O162 2.266 1_554 S
In156 O163 2.326 1_554 S
In156 O164 2.266 . S
In156 O165 2.326 . S
In156 O167 2.294 . S
In156 O168 2.326 . S
O157 In156 2.294 . S
O157 C166 1.240 . S
O158 In156 2.326 . S
O158 C166 1.252 . S
C159 O162 1.252 . S
C159 O163 1.260 . S
C160 O167 1.240 . S
C160 O168 1.252 . S
C161 O164 1.252 . S
C161 O165 1.260 . S
O162 In156 2.266 1_556 S
O162 C159 1.252 . S
O163 In156 2.326 1_556 S
O163 C159 1.260 . S
O164 In156 2.266 . S
O164 C161 1.252 . S
O165 In156 2.326 . S
O165 C161 1.260 . S
C166 O157 1.240 . S
C166 O158 1.252 . S
O167 In156 2.294 . S
O167 C160 1.240 . S
O168 In156 2.326 . S
O168 C160 1.252 . S
In169 O170 2.294 . S
In169 O171 2.326 . S
In169 O175 2.266 1_554 S
In169 O176 2.326 . S
In169 O177 2.266 1_554 S
In169 O178 2.326 1_554 S
In169 O180 2.294 . S
In169 O181 2.326 . S
O170 In169 2.294 . S
O170 C179 1.240 . S
O171 In169 2.326 . S
O171 C179 1.252 . S
C172 O175 1.252 . S
C172 O176 1.260 1_556 S
C173 O180 1.240 . S
C173 O181 1.252 . S
C174 O177 1.252 . S
C174 O178 1.260 . S
O175 In169 2.266 1_556 S
O175 C172 1.252 . S
O176 In169 2.326 . S
O176 C172 1.260 1_554 S
O177 In169 2.266 1_556 S
O177 C174 1.252 . S
O178 In169 2.326 1_556 S
O178 C174 1.260 . S
C179 O170 1.240 . S
C179 O171 1.252 . S
O180 In169 2.294 . S
O180 C173 1.240 . S
O181 In169 2.326 . S
O181 C173 1.252 . S
In182 O183 2.294 . S
In182 O184 2.326 . S
In182 O188 2.266 . S
In182 O189 2.326 . S
In182 O190 2.266 . S
In182 O191 2.326 . S
In182 O193 2.294 . S
In182 O194 2.326 . S
O183 In182 2.294 . S
O183 C192 1.240 . S
O184 In182 2.326 . S
O184 C192 1.252 . S
C185 O188 1.252 . S
C185 O189 1.260 . S
C186 O193 1.240 . S
C186 O194 1.252 . S
C187 O190 1.252 . S
C187 O191 1.260 . S
O188 In182 2.266 . S
O188 C185 1.252 . S
O189 In182 2.326 . S
O189 C185 1.260 . S
O190 In182 2.266 . S
O190 C187 1.252 . S
O191 In182 2.326 . S
O191 C187 1.260 . S
C192 O183 1.240 . S
C192 O184 1.252 . S
O193 In182 2.294 . S
O193 C186 1.240 . S
O194 In182 2.326 . S
O194 C186 1.252 . S
In195 O196 2.294 . S
In195 O197 2.326 . S
In195 O201 2.266 . S
In195 O202 2.326 . S
In195 O203 2.266 . S
In195 O204 2.326 . S
In195 O206 2.294 . S
In195 O207 2.326 . S
O196 In195 2.294 . S
O196 C205 1.240 . S
O197 In195 2.326 . S
O197 C205 1.252 . S
C198 O201 1.252 . S
C198 O202 1.260 . S
C199 O206 1.240 . S
C199 O207 1.252 . S
C200 O203 1.252 . S
C200 O204 1.260 . S
O201 In195 2.266 . S
O201 C198 1.252 . S
O202 In195 2.326 . S
O202 C198 1.260 . S
O203 In195 2.266 . S
O203 C200 1.252 . S
O204 In195 2.326 . S
O204 C200 1.260 . S
C205 O196 1.240 . S
C205 O197 1.252 . S
O206 In195 2.294 . S
O206 C199 1.240 . S
O207 In195 2.326 . S
O207 C199 1.252 . S
In208 O209 2.294 . S
In208 O210 2.326 . S
In208 O214 2.266 . S
In208 O215 2.326 . S
In208 O216 2.266 . S
In208 O217 2.329 1_545 S
In208 O219 2.294 . S
In208 O220 2.326 . S
O209 In208 2.294 . S
O209 C218 1.240 . S
O210 In208 2.326 . S
O210 C218 1.252 . S
C211 O214 1.252 . S
C211 O215 1.260 . S
C212 O219 1.240 . S
C212 O220 1.252 . S
C213 O216 1.252 1_565 S
C213 O217 1.260 . S
O214 In208 2.266 . S
O214 C211 1.252 . S
O215 In208 2.326 . S
O215 C211 1.260 . S
O216 In208 2.266 . S
O216 C213 1.252 1_545 S
O217 In208 2.329 1_565 S
O217 C213 1.260 . S
C218 O209 1.240 . S
C218 O210 1.252 . S
O219 In208 2.294 . S
O219 C212 1.240 . S
O220 In208 2.326 . S
O220 C212 1.252 . S
In221 O222 2.294 . S
In221 O223 2.326 . S
In221 O227 2.266 . S
In221 O228 2.326 . S
In221 O229 2.266 . S
In221 O230 2.326 . S
In221 O232 2.294 . S
In221 O233 2.326 . S
O222 In221 2.294 . S
O222 C231 1.240 . S
O223 In221 2.326 . S
O223 C231 1.252 . S
C224 O227 1.252 . S
C224 O228 1.260 . S
C225 O232 1.240 . S
C225 O233 1.252 . S
C226 O229 1.252 . S
C226 O230 1.260 . S
O227 In221 2.266 . S
O227 C224 1.252 . S
O228 In221 2.326 . S
O228 C224 1.260 . S
O229 In221 2.266 . S
O229 C226 1.252 . S
O230 In221 2.326 . S
O230 C226 1.260 . S
C231 O222 1.240 . S
C231 O223 1.252 . S
O232 In221 2.294 . S
O232 C225 1.240 . S
O233 In221 2.326 . S
O233 C225 1.252 . S
In234 O235 2.294 . S
In234 O236 2.326 . S
In234 O240 2.266 . S
In234 O241 2.326 . S
In234 O242 2.266 . S
In234 O243 2.326 . S
In234 O245 2.294 . S
In234 O246 2.326 . S
O235 In234 2.294 . S
O235 C244 1.240 . S
O236 In234 2.326 . S
O236 C244 1.252 . S
C237 O240 1.252 . S
C237 O241 1.260 . S
C238 O245 1.240 . S
C238 O246 1.252 . S
C239 O242 1.252 . S
C239 O243 1.260 . S
O240 In234 2.266 . S
O240 C237 1.252 . S
O241 In234 2.326 . S
O241 C237 1.260 . S
O242 In234 2.266 . S
O242 C239 1.252 . S
O243 In234 2.326 . S
O243 C239 1.260 . S
C244 O235 1.240 . S
C244 O236 1.252 . S
O245 In234 2.294 . S
O245 C238 1.240 . S
O246 In234 2.326 . S
O246 C238 1.252 . S
In247 O248 2.294 1_545 S
In247 O249 2.326 1_545 S
In247 O253 2.266 . S
In247 O254 2.326 . S
In247 O255 2.266 . S
In247 O256 2.326 . S
In247 O258 2.294 1_545 S
In247 O259 2.326 1_545 S
O248 In247 2.294 1_565 S
O248 C257 1.240 . S
O249 In247 2.326 1_565 S
O249 C257 1.252 . S
C250 O253 1.252 . S
C250 O254 1.260 . S
C251 O258 1.240 . S
C251 O259 1.252 . S
C252 O255 1.252 . S
C252 O256 1.260 . S
O253 In247 2.266 . S
O253 C250 1.252 . S
O254 In247 2.326 . S
O254 C250 1.260 . S
O255 In247 2.266 . S
O255 C252 1.252 . S
O256 In247 2.326 . S
O256 C252 1.260 . S
C257 O248 1.240 . S
C257 O249 1.252 . S
O258 In247 2.294 1_565 S
O258 C251 1.240 . S
O259 In247 2.326 1_565 S
O259 C251 1.252 . S
In260 O261 2.298 . S
In260 O262 2.328 . S
In260 O266 2.264 1_554 S
In260 O267 2.325 1_554 S
In260 O268 2.244 1_554 S
In260 O269 2.293 1_554 S
In260 O271 2.314 . S
In260 O272 2.359 . S
O261 In260 2.298 . S
O261 C270 1.240 . S
O262 In260 2.328 . S
O262 C270 1.252 . S
C263 O266 1.252 . S
C263 O267 1.260 . S
C264 O271 1.240 . S
C264 O272 1.252 . S
C265 O268 1.252 . S
C265 O269 1.260 . S
O266 In260 2.264 1_556 S
O266 C263 1.252 . S
O267 In260 2.325 1_556 S
O267 C263 1.260 . S
O268 In260 2.244 1_556 S
O268 C265 1.252 . S
O269 In260 2.293 1_556 S
O269 C265 1.260 . S
C270 O261 1.240 . S
C270 O262 1.252 . S
O271 In260 2.314 . S
O271 C264 1.240 . S
O272 In260 2.359 . S
O272 C264 1.252 . S
In273 O274 2.294 . S
In273 O275 2.326 . S
In273 O279 2.266 . S
In273 O280 2.326 . S
In273 O281 2.266 . S
In273 O282 2.326 . S
In273 O284 2.294 . S
In273 O285 2.326 . S
O274 In273 2.294 . S
O274 C283 1.240 . S
O275 In273 2.326 . S
O275 C283 1.252 . S
C276 O279 1.252 . S
C276 O280 1.260 . S
C277 O284 1.240 . S
C277 O285 1.252 . S
C278 O281 1.252 . S
C278 O282 1.260 . S
O279 In273 2.266 . S
O279 C276 1.252 . S
O280 In273 2.326 . S
O280 C276 1.260 . S
O281 In273 2.266 . S
O281 C278 1.252 . S
O282 In273 2.326 . S
O282 C278 1.260 . S
C283 O274 1.240 . S
C283 O275 1.252 . S
O284 In273 2.294 . S
O284 C277 1.240 . S
O285 In273 2.326 . S
O285 C277 1.252 . S
In286 O287 2.294 . S
In286 O288 2.326 . S
In286 O292 2.266 . S
In286 O293 2.326 . S
In286 O294 2.266 . S
In286 O295 2.326 . S
In286 O297 2.294 . S
In286 O298 2.326 . S
O287 In286 2.294 . S
O287 C296 1.240 . S
O288 In286 2.326 . S
O288 C296 1.252 . S
C289 O292 1.252 . S
C289 O293 1.260 . S
C290 O297 1.240 . S
C290 O298 1.252 . S
C291 O294 1.252 . S
C291 O295 1.260 . S
O292 In286 2.266 . S
O292 C289 1.252 . S
O293 In286 2.326 . S
O293 C289 1.260 . S
O294 In286 2.266 . S
O294 C291 1.252 . S
O295 In286 2.326 . S
O295 C291 1.260 . S
C296 O287 1.240 . S
C296 O288 1.252 . S
O297 In286 2.294 . S
O297 C290 1.240 . S
O298 In286 2.326 . S
O298 C290 1.252 . S
In299 O300 2.294 . S
In299 O301 2.326 . S
In299 O305 2.266 . S
In299 O306 2.326 . S
In299 O307 2.266 . S
In299 O308 2.326 . S
In299 O310 2.294 . S
In299 O311 2.326 . S
O300 In299 2.294 . S
O300 C309 1.240 . S
O301 In299 2.326 . S
O301 C309 1.252 . S
C302 O305 1.252 . S
C302 O306 1.260 . S
C303 O310 1.240 . S
C303 O311 1.252 . S
C304 O307 1.252 . S
C304 O308 1.260 . S
O305 In299 2.266 . S
O305 C302 1.252 . S
O306 In299 2.326 . S
O306 C302 1.260 . S
O307 In299 2.266 . S
O307 C304 1.252 . S
O308 In299 2.326 . S
O308 C304 1.260 . S
C309 O300 1.240 . S
C309 O301 1.252 . S
O310 In299 2.294 . S
O310 C303 1.240 . S
O311 In299 2.326 . S
O311 C303 1.252 . S
Tb312 O315 2.453 . S
Tb312 O316 2.596 . S
Tb312 O317 2.374 1_554 S
Tb312 O325 2.343 . S
Tb312 O327 2.353 . S
Tb312 O329 2.427 . S
Tb312 O330 2.513 1_554 S
C313 O317 1.251 . S
C313 O319 1.263 . S
Tb314 O316 2.345 . S
Tb314 O319 2.354 1_554 S
Tb314 O322 2.419 1_545 S
Tb314 O323 2.507 1_545 S
Tb314 O324 2.458 1_455 S
Tb314 O325 2.603 . S
Tb314 O326 2.378 . S
O315 Tb312 2.453 . S
O315 C331 1.245 . S
O316 Tb312 2.596 . S
O316 Tb314 2.345 . S
O316 C331 1.259 . S
O317 Tb312 2.374 1_556 S
O317 C313 1.251 . S
C318 O322 1.275 . S
C318 O323 1.246 . S
O319 C313 1.263 . S
O319 Tb314 2.354 1_556 S
C320 O324 1.245 . S
C320 O325 1.259 1_655 S
C321 O326 1.250 . S
C321 O327 1.263 . S
O322 Tb314 2.419 1_565 S
O322 C318 1.275 . S
O323 Tb314 2.507 1_565 S
O323 C318 1.246 . S
O324 Tb314 2.458 1_655 S
O324 C320 1.245 . S
O325 Tb312 2.343 . S
O325 Tb314 2.603 . S
O325 C320 1.259 1_455 S
O326 Tb314 2.378 . S
O326 C321 1.250 . S
O327 Tb312 2.353 . S
O327 C321 1.263 . S
C328 O329 1.275 . S
C328 O330 1.246 1_554 S
O329 Tb312 2.427 . S
O329 C328 1.275 . S
O330 Tb312 2.513 1_556 S
O330 C328 1.246 1_556 S
C331 O315 1.245 . S
C331 O316 1.259 . S
Tb332 O335 2.453 . S
Tb332 O336 2.596 . S
Tb332 O337 2.374 . S
Tb332 O345 2.343 . S
Tb332 O347 2.353 . S
Tb332 O349 2.427 . S
Tb332 O350 2.513 . S
C333 O337 1.251 . S
C333 O339 1.263 . S
Tb334 O336 2.343 . S
Tb334 O339 2.353 . S
Tb334 O342 2.427 . S
Tb334 O343 2.513 . S
Tb334 O344 2.453 . S
Tb334 O345 2.596 . S
Tb334 O346 2.374 . S
O335 Tb332 2.453 . S
O335 C351 1.245 . S
O336 Tb332 2.596 . S
O336 Tb334 2.343 . S
O336 C351 1.259 . S
O337 Tb332 2.374 . S
O337 C333 1.251 . S
C338 O342 1.275 . S
C338 O343 1.246 . S
O339 C333 1.263 . S
O339 Tb334 2.353 . S
C340 O344 1.245 . S
C340 O345 1.259 . S
C341 O346 1.250 . S
C341 O347 1.263 . S
O342 Tb334 2.427 . S
O342 C338 1.275 . S
O343 Tb334 2.513 . S
O343 C338 1.246 . S
O344 Tb334 2.453 . S
O344 C340 1.245 . S
O345 Tb332 2.343 . S
O345 Tb334 2.596 . S
O345 C340 1.259 . S
O346 Tb334 2.374 . S
O346 C341 1.250 . S
O347 Tb332 2.353 . S
O347 C341 1.263 . S
C348 O349 1.275 . S
C348 O350 1.246 . S
O349 Tb332 2.427 . S
O349 C348 1.275 . S
O350 Tb332 2.513 . S
O350 C348 1.246 . S
C351 O335 1.245 . S
C351 O336 1.259 . S
Tb352 O355 2.453 . S
Tb352 O356 2.596 . S
Tb352 O357 2.374 . S
Tb352 O365 2.343 1_545 S
Tb352 O367 2.353 . S
Tb352 O369 2.427 1_545 S
Tb352 O370 2.513 1_545 S
C353 O357 1.251 . S
C353 O359 1.263 1_545 S
Tb354 O356 2.343 . S
Tb354 O359 2.353 1_545 S
Tb354 O362 2.427 . S
Tb354 O363 2.513 . S
Tb354 O364 2.453 1_545 S
Tb354 O365 2.596 1_545 S
Tb354 O366 2.374 . S
O355 Tb352 2.453 . S
O355 C371 1.245 . S
O356 Tb352 2.596 . S
O356 Tb354 2.343 . S
O356 C371 1.259 . S
O357 Tb352 2.374 . S
O357 C353 1.251 . S
C358 O362 1.275 . S
C358 O363 1.246 . S
O359 C353 1.263 1_565 S
O359 Tb354 2.353 1_565 S
C360 O364 1.245 . S
C360 O365 1.259 . S
C361 O366 1.250 . S
C361 O367 1.263 . S
O362 Tb354 2.427 . S
O362 C358 1.275 . S
O363 Tb354 2.513 . S
O363 C358 1.246 . S
O364 Tb354 2.453 1_565 S
O364 C360 1.245 . S
O365 Tb352 2.343 1_565 S
O365 Tb354 2.596 1_565 S
O365 C360 1.259 . S
O366 Tb354 2.374 . S
O366 C361 1.250 . S
O367 Tb352 2.353 . S
O367 C361 1.263 . S
C368 O369 1.275 . S
C368 O370 1.246 . S
O369 Tb352 2.427 1_565 S
O369 C368 1.275 . S
O370 Tb352 2.513 1_565 S
O370 C368 1.246 . S
C371 O355 1.245 . S
C371 O356 1.259 . S
Tb372 O375 2.453 . S
Tb372 O376 2.596 . S
Tb372 O377 2.374 . S
Tb372 O385 2.343 . S
Tb372 O387 2.353 . S
Tb372 O389 2.427 . S
Tb372 O390 2.513 . S
C373 O377 1.251 . S
C373 O379 1.263 . S
Tb374 O376 2.343 . S
Tb374 O379 2.353 . S
Tb374 O382 2.427 . S
Tb374 O383 2.513 . S
Tb374 O384 2.453 . S
Tb374 O385 2.596 . S
Tb374 O386 2.374 . S
O375 Tb372 2.453 . S
O375 C391 1.245 . S
O376 Tb372 2.596 . S
O376 Tb374 2.343 . S
O376 C391 1.259 . S
O377 Tb372 2.374 . S
O377 C373 1.251 . S
C378 O382 1.275 . S
C378 O383 1.246 . S
O379 C373 1.263 . S
O379 Tb374 2.353 . S
C380 O384 1.245 . S
C380 O385 1.259 . S
C381 O386 1.250 . S
C381 O387 1.263 . S
O382 Tb374 2.427 . S
O382 C378 1.275 . S
O383 Tb374 2.513 . S
O383 C378 1.246 . S
O384 Tb374 2.453 . S
O384 C380 1.245 . S
O385 Tb372 2.343 . S
O385 Tb374 2.596 . S
O385 C380 1.259 . S
O386 Tb374 2.374 . S
O386 C381 1.250 . S
O387 Tb372 2.353 . S
O387 C381 1.263 . S
C388 O389 1.275 . S
C388 O390 1.246 . S
O389 Tb372 2.427 . S
O389 C388 1.275 . S
O390 Tb372 2.513 . S
O390 C388 1.246 . S
C391 O375 1.245 . S
C391 O376 1.259 . S
Tb392 O395 2.453 . S
Tb392 O396 2.596 . S
Tb392 O397 2.374 1_455 S
Tb392 O405 2.343 1_565 S
Tb392 O407 2.353 1_565 S
Tb392 O409 2.427 1_565 S
Tb392 O410 2.513 1_465 S
C393 O397 1.251 . S
C393 O399 1.263 1_565 S
Tb394 O396 2.343 1_545 S
Tb394 O399 2.353 1_455 S
Tb394 O402 2.427 . S
Tb394 O403 2.513 . S
Tb394 O404 2.453 . S
Tb394 O405 2.596 . S
Tb394 O406 2.374 . S
O395 Tb392 2.453 . S
O395 C411 1.245 . S
O396 Tb392 2.596 . S
O396 Tb394 2.343 1_565 S
O396 C411 1.259 . S
O397 Tb392 2.374 1_655 S
O397 C393 1.251 . S
C398 O402 1.275 . S
C398 O403 1.246 . S
O399 C393 1.263 1_545 S
O399 Tb394 2.353 1_655 S
C400 O404 1.245 . S
C400 O405 1.259 . S
C401 O406 1.250 . S
C401 O407 1.263 . S
O402 Tb394 2.427 . S
O402 C398 1.275 . S
O403 Tb394 2.513 . S
O403 C398 1.246 . S
O404 Tb394 2.453 . S
O404 C400 1.245 . S
O405 Tb392 2.343 1_545 S
O405 Tb394 2.596 . S
O405 C400 1.259 . S
O406 Tb394 2.374 . S
O406 C401 1.250 . S
O407 Tb392 2.353 1_545 S
O407 C401 1.263 . S
C408 O409 1.275 1_655 S
C408 O410 1.246 . S
O409 Tb392 2.427 1_545 S
O409 C408 1.275 1_455 S
O410 Tb392 2.513 1_645 S
O410 C408 1.246 . S
C411 O395 1.245 . S
C411 O396 1.259 . S
Tb412 O415 2.453 . S
Tb412 O416 2.596 . S
Tb412 O417 2.374 . S
Tb412 O425 2.343 . S
Tb412 O427 2.353 . S
Tb412 O429 2.427 . S
Tb412 O430 2.513 . S
C413 O417 1.251 . S
C413 O419 1.263 . S
Tb414 O416 2.343 . S
Tb414 O419 2.353 . S
Tb414 O422 2.427 . S
Tb414 O423 2.513 . S
Tb414 O424 2.453 . S
Tb414 O425 2.596 . S
Tb414 O426 2.374 . S
O415 Tb412 2.453 . S
O415 C431 1.245 . S
O416 Tb412 2.596 . S
O416 Tb414 2.343 . S
O416 C431 1.259 . S
O417 Tb412 2.374 . S
O417 C413 1.251 . S
C418 O422 1.275 . S
C418 O423 1.246 . S
O419 C413 1.263 . S
O419 Tb414 2.353 . S
C420 O424 1.245 . S
C420 O425 1.259 . S
C421 O426 1.250 . S
C421 O427 1.263 . S
O422 Tb414 2.427 . S
O422 C418 1.275 . S
O423 Tb414 2.513 . S
O423 C418 1.246 . S
O424 Tb414 2.453 . S
O424 C420 1.245 . S
O425 Tb412 2.343 . S
O425 Tb414 2.596 . S
O425 C420 1.259 . S
O426 Tb414 2.374 . S
O426 C421 1.250 . S
O427 Tb412 2.353 . S
O427 C421 1.263 . S
C428 O429 1.275 . S
C428 O430 1.246 . S
O429 Tb412 2.427 . S
O429 C428 1.275 . S
O430 Tb412 2.513 . S
O430 C428 1.246 . S
C431 O415 1.245 . S
C431 O416 1.259 . S
Tb432 O435 2.453 . S
Tb432 O436 2.596 . S
Tb432 O437 2.374 1_545 S
Tb432 O445 2.343 1_556 S
Tb432 O447 2.353 1_556 S
Tb432 O449 2.427 1_556 S
Tb432 O450 2.513 1_546 S
C433 O437 1.251 . S
C433 O439 1.263 1_556 S
Tb434 O436 2.343 1_554 S
Tb434 O439 2.353 1_545 S
Tb434 O442 2.427 . S
Tb434 O443 2.513 . S
Tb434 O444 2.453 . S
Tb434 O445 2.596 . S
Tb434 O446 2.374 . S
O435 Tb432 2.453 . S
O435 C451 1.245 . S
O436 Tb432 2.596 . S
O436 Tb434 2.343 1_556 S
O436 C451 1.259 . S
O437 Tb432 2.374 1_565 S
O437 C433 1.251 . S
C438 O442 1.275 . S
C438 O443 1.246 . S
O439 C433 1.263 1_554 S
O439 Tb434 2.353 1_565 S
C440 O444 1.245 . S
C440 O445 1.259 . S
C441 O446 1.250 . S
C441 O447 1.263 . S
O442 Tb434 2.427 . S
O442 C438 1.275 . S
O443 Tb434 2.513 . S
O443 C438 1.246 . S
O444 Tb434 2.453 . S
O444 C440 1.245 . S
O445 Tb432 2.343 1_554 S
O445 Tb434 2.596 . S
O445 C440 1.259 . S
O446 Tb434 2.374 . S
O446 C441 1.250 . S
O447 Tb432 2.353 1_554 S
O447 C441 1.263 . S
C448 O449 1.275 . S
C448 O450 1.246 1_545 S
O449 Tb432 2.427 1_554 S
O449 C448 1.275 . S
O450 Tb432 2.513 1_564 S
O450 C448 1.246 1_565 S
C451 O435 1.245 . S
C451 O436 1.259 . S
Tb452 O455 2.453 . S
Tb452 O456 2.596 . S
Tb452 O457 2.374 . S
Tb452 O465 2.343 . S
Tb452 O467 2.353 . S
Tb452 O469 2.427 . S
Tb452 O470 2.513 . S
C453 O457 1.251 . S
C453 O459 1.263 . S
Tb454 O456 2.343 . S
Tb454 O459 2.353 . S
Tb454 O462 2.427 . S
Tb454 O463 2.513 . S
Tb454 O464 2.453 . S
Tb454 O465 2.596 . S
Tb454 O466 2.374 . S
O455 Tb452 2.453 . S
O455 C471 1.245 . S
O456 Tb452 2.596 . S
O456 Tb454 2.343 . S
O456 C471 1.259 . S
O457 Tb452 2.374 . S
O457 C453 1.251 . S
C458 O462 1.275 . S
C458 O463 1.246 . S
O459 C453 1.263 . S
O459 Tb454 2.353 . S
C460 O464 1.245 . S
C460 O465 1.259 . S
C461 O466 1.250 . S
C461 O467 1.263 . S
O462 Tb454 2.427 . S
O462 C458 1.275 . S
O463 Tb454 2.513 . S
O463 C458 1.246 . S
O464 Tb454 2.453 . S
O464 C460 1.245 . S
O465 Tb452 2.343 . S
O465 Tb454 2.596 . S
O465 C460 1.259 . S
O466 Tb454 2.374 . S
O466 C461 1.250 . S
O467 Tb452 2.353 . S
O467 C461 1.263 . S
C468 O469 1.275 . S
C468 O470 1.246 . S
O469 Tb452 2.427 . S
O469 C468 1.275 . S
O470 Tb452 2.513 . S
O470 C468 1.246 . S
C471 O455 1.245 . S
C471 O456 1.259 . S
Tb472 O475 2.453 . S
Tb472 O476 2.596 1_556 S
Tb472 O477 2.374 . S
Tb472 O485 2.343 . S
Tb472 O487 2.353 . S
Tb472 O489 2.427 . S
Tb472 O490 2.513 . S
C473 O477 1.251 1_554 S
C473 O479 1.263 . S
Tb474 O476 2.343 . S
Tb474 O479 2.353 . S
Tb474 O482 2.427 . S
Tb474 O483 2.513 . S
Tb474 O484 2.453 . S
Tb474 O485 2.596 1_554 S
Tb474 O486 2.374 . S
O475 Tb472 2.453 . S
O475 C491 1.245 1_556 S
O476 Tb472 2.596 1_554 S
O476 Tb474 2.343 . S
O476 C491 1.259 . S
O477 Tb472 2.374 . S
O477 C473 1.251 1_556 S
C478 O482 1.275 . S
C478 O483 1.246 . S
O479 C473 1.263 . S
O479 Tb474 2.353 . S
C480 O484 1.245 1_556 S
C480 O485 1.259 . S
C481 O486 1.256 . S
C481 O487 1.259 1_554 S
O482 Tb474 2.427 . S
O482 C478 1.275 . S
O483 Tb474 2.513 . S
O483 C478 1.246 . S
O484 Tb474 2.453 . S
O484 C480 1.245 1_554 S
O485 Tb472 2.343 . S
O485 Tb474 2.596 1_556 S
O485 C480 1.259 . S
O486 Tb474 2.374 . S
O486 C481 1.256 . S
O487 Tb472 2.353 . S
O487 C481 1.259 1_556 S
C488 O489 1.275 . S
C488 O490 1.246 . S
O489 Tb472 2.427 . S
O489 C488 1.275 . S
O490 Tb472 2.513 . S
O490 C488 1.246 . S
C491 O475 1.245 1_554 S
C491 O476 1.259 . S
Tb492 O495 2.453 . S
Tb492 O496 2.596 . S
Tb492 O497 2.374 . S
Tb492 O505 2.343 . S
Tb492 O507 2.353 . S
Tb492 O509 2.427 . S
Tb492 O510 2.513 . S
C493 O497 1.251 . S
C493 O499 1.263 . S
Tb494 O496 2.343 . S
Tb494 O499 2.353 . S
Tb494 O502 2.427 . S
Tb494 O503 2.513 . S
Tb494 O504 2.453 . S
Tb494 O505 2.596 . S
Tb494 O506 2.374 . S
O495 Tb492 2.453 . S
O495 C511 1.245 . S
O496 Tb492 2.596 . S
O496 Tb494 2.343 . S
O496 C511 1.259 . S
O497 Tb492 2.374 . S
O497 C493 1.251 . S
C498 O502 1.275 . S
C498 O503 1.246 . S
O499 C493 1.263 . S
O499 Tb494 2.353 . S
C500 O504 1.245 . S
C500 O505 1.259 . S
C501 O506 1.250 . S
C501 O507 1.263 . S
O502 Tb494 2.427 . S
O502 C498 1.275 . S
O503 Tb494 2.513 . S
O503 C498 1.246 . S
O504 Tb494 2.453 . S
O504 C500 1.245 . S
O505 Tb492 2.343 . S
O505 Tb494 2.596 . S
O505 C500 1.259 . S
O506 Tb494 2.374 . S
O506 C501 1.250 . S
O507 Tb492 2.353 . S
O507 C501 1.263 . S
C508 O509 1.275 . S
C508 O510 1.246 . S
O509 Tb492 2.427 . S
O509 C508 1.275 . S
O510 Tb492 2.513 . S
O510 C508 1.246 . S
C511 O495 1.245 . S
C511 O496 1.259 . S
Tb512 O515 2.453 . S
Tb512 O516 2.596 1_655 S
Tb512 O517 2.374 . S
Tb512 O525 2.343 . S
Tb512 O527 2.353 . S
Tb512 O529 2.427 . S
Tb512 O530 2.513 . S
C513 O517 1.251 1_455 S
C513 O519 1.263 . S
Tb514 O516 2.343 . S
Tb514 O519 2.353 . S
Tb514 O522 2.427 . S
Tb514 O523 2.513 . S
Tb514 O524 2.453 . S
Tb514 O525 2.596 1_455 S
Tb514 O526 2.374 . S
O515 Tb512 2.453 . S
O515 C531 1.245 1_655 S
O516 Tb512 2.596 1_455 S
O516 Tb514 2.343 . S
O516 C531 1.259 . S
O517 Tb512 2.374 . S
O517 C513 1.251 1_655 S
C518 O522 1.275 . S
C518 O523 1.246 . S
O519 C513 1.263 . S
O519 Tb514 2.353 . S
C520 O524 1.245 1_655 S
C520 O525 1.259 . S
C521 O526 1.250 1_655 S
C521 O527 1.263 . S
O522 Tb514 2.427 . S
O522 C518 1.275 . S
O523 Tb514 2.513 . S
O523 C518 1.246 . S
O524 Tb514 2.453 . S
O524 C520 1.245 1_455 S
O525 Tb512 2.343 . S
O525 Tb514 2.596 1_655 S
O525 C520 1.259 . S
O526 Tb514 2.374 . S
O526 C521 1.250 1_455 S
O527 Tb512 2.353 . S
O527 C521 1.263 . S
C528 O529 1.275 . S
C528 O530 1.246 . S
O529 Tb512 2.427 . S
O529 C528 1.275 . S
O530 Tb512 2.513 . S
O530 C528 1.246 . S
C531 O515 1.245 1_455 S
C531 O516 1.259 . S
Tb532 O535 2.453 . S
Tb532 O536 2.596 . S
Tb532 O537 2.374 . S
Tb532 O545 2.343 . S
Tb532 O547 2.353 . S
Tb532 O549 2.427 . S
Tb532 O550 2.513 . S
C533 O537 1.251 . S
C533 O539 1.263 . S
Tb534 O536 2.343 . S
Tb534 O539 2.353 . S
Tb534 O542 2.427 . S
Tb534 O543 2.513 . S
Tb534 O544 2.453 . S
Tb534 O545 2.596 . S
Tb534 O546 2.374 . S
O535 Tb532 2.453 . S
O535 C551 1.245 . S
O536 Tb532 2.596 . S
O536 Tb534 2.343 . S
O536 C551 1.259 . S
O537 Tb532 2.374 . S
O537 C533 1.251 . S
C538 O542 1.275 . S
C538 O543 1.246 . S
O539 C533 1.263 . S
O539 Tb534 2.353 . S
C540 O544 1.245 . S
C540 O545 1.259 . S
C541 O546 1.250 . S
C541 O547 1.263 . S
O542 Tb534 2.427 . S
O542 C538 1.275 . S
O543 Tb534 2.513 . S
O543 C538 1.246 . S
O544 Tb534 2.453 . S
O544 C540 1.245 . S
O545 Tb532 2.343 . S
O545 Tb534 2.596 . S
O545 C540 1.259 . S
O546 Tb534 2.374 . S
O546 C541 1.250 . S
O547 Tb532 2.353 . S
O547 C541 1.263 . S
C548 O549 1.275 . S
C548 O550 1.246 . S
O549 Tb532 2.427 . S
O549 C548 1.275 . S
O550 Tb532 2.513 . S
O550 C548 1.246 . S
C551 O535 1.245 . S
C551 O536 1.259 . S
Tb552 O555 2.453 . S
Tb552 O556 2.596 . S
Tb552 O557 2.374 . S
Tb552 O565 2.343 . S
Tb552 O567 2.353 . S
Tb552 O569 2.427 . S
Tb552 O570 2.513 . S
C553 O557 1.251 . S
C553 O559 1.263 . S
Tb554 O556 2.343 . S
Tb554 O559 2.353 . S
Tb554 O562 2.427 . S
Tb554 O563 2.513 . S
Tb554 O564 2.453 . S
Tb554 O565 2.596 . S
Tb554 O566 2.374 . S
O555 Tb552 2.453 . S
O555 C571 1.245 . S
O556 Tb552 2.596 . S
O556 Tb554 2.343 . S
O556 C571 1.259 . S
O557 Tb552 2.374 . S
O557 C553 1.251 . S
C558 O562 1.275 . S
C558 O563 1.246 . S
O559 C553 1.263 . S
O559 Tb554 2.353 . S
C560 O564 1.245 . S
C560 O565 1.259 . S
C561 O566 1.250 . S
C561 O567 1.263 . S
O562 Tb554 2.427 . S
O562 C558 1.275 . S
O563 Tb554 2.513 . S
O563 C558 1.246 . S
O564 Tb554 2.453 . S
O564 C560 1.245 . S
O565 Tb552 2.343 . S
O565 Tb554 2.596 . S
O565 C560 1.259 . S
O566 Tb554 2.374 . S
O566 C561 1.250 . S
O567 Tb552 2.353 . S
O567 C561 1.263 . S
C568 O569 1.275 . S
C568 O570 1.246 . S
O569 Tb552 2.427 . S
O569 C568 1.275 . S
O570 Tb552 2.513 . S
O570 C568 1.246 . S
C571 O555 1.245 . S
C571 O556 1.259 . S
Tb572 O575 2.453 . S
Tb572 O576 2.596 . S
Tb572 O577 2.374 . S
Tb572 O585 2.343 . S
Tb572 O587 2.353 . S
Tb572 O589 2.427 . S
Tb572 O590 2.513 . S
C573 O577 1.251 . S
C573 O579 1.263 . S
Tb574 O576 2.343 . S
Tb574 O579 2.353 . S
Tb574 O582 2.427 . S
Tb574 O583 2.513 . S
Tb574 O584 2.453 . S
Tb574 O585 2.596 . S
Tb574 O586 2.374 . S
O575 Tb572 2.453 . S
O575 C591 1.245 . S
O576 Tb572 2.596 . S
O576 Tb574 2.343 . S
O576 C591 1.259 . S
O577 Tb572 2.374 . S
O577 C573 1.251 . S
C578 O582 1.275 . S
C578 O583 1.246 . S
O579 C573 1.263 . S
O579 Tb574 2.353 . S
C580 O584 1.245 . S
C580 O585 1.259 . S
C581 O586 1.250 . S
C581 O587 1.263 . S
O582 Tb574 2.427 . S
O582 C578 1.275 . S
O583 Tb574 2.513 . S
O583 C578 1.246 . S
O584 Tb574 2.453 . S
O584 C580 1.245 . S
O585 Tb572 2.343 . S
O585 Tb574 2.596 . S
O585 C580 1.259 . S
O586 Tb574 2.374 . S
O586 C581 1.250 . S
O587 Tb572 2.353 . S
O587 C581 1.263 . S
C588 O589 1.275 . S
C588 O590 1.246 . S
O589 Tb572 2.427 . S
O589 C588 1.275 . S
O590 Tb572 2.513 . S
O590 C588 1.246 . S
C591 O575 1.245 . S
C591 O576 1.259 . S
Tb592 O595 2.453 . S
Tb592 O596 2.596 . S
Tb592 O597 2.374 . S
Tb592 O605 2.343 . S
Tb592 O607 2.353 . S
Tb592 O609 2.427 . S
Tb592 O610 2.513 . S
C593 O597 1.251 . S
C593 O599 1.263 . S
Tb594 O596 2.343 . S
Tb594 O599 2.353 . S
Tb594 O602 2.427 . S
Tb594 O603 2.513 . S
Tb594 O604 2.453 . S
Tb594 O605 2.596 . S
Tb594 O606 2.374 . S
O595 Tb592 2.453 . S
O595 C611 1.245 . S
O596 Tb592 2.596 . S
O596 Tb594 2.343 . S
O596 C611 1.259 . S
O597 Tb592 2.374 . S
O597 C593 1.251 . S
C598 O602 1.275 . S
C598 O603 1.246 . S
O599 C593 1.263 . S
O599 Tb594 2.353 . S
C600 O604 1.245 . S
C600 O605 1.259 . S
C601 O606 1.250 . S
C601 O607 1.263 . S
O602 Tb594 2.427 . S
O602 C598 1.275 . S
O603 Tb594 2.513 . S
O603 C598 1.246 . S
O604 Tb594 2.453 . S
O604 C600 1.245 . S
O605 Tb592 2.343 . S
O605 Tb594 2.596 . S
O605 C600 1.259 . S
O606 Tb594 2.374 . S
O606 C601 1.250 . S
O607 Tb592 2.353 . S
O607 C601 1.263 . S
C608 O609 1.275 . S
C608 O610 1.246 . S
O609 Tb592 2.427 . S
O609 C608 1.275 . S
O610 Tb592 2.513 . S
O610 C608 1.246 . S
C611 O595 1.245 . S
C611 O596 1.259 . S
Tb612 O615 2.453 . S
Tb612 O616 2.596 1_455 S
Tb612 O617 2.374 . S
Tb612 O625 2.343 . S
Tb612 O627 2.353 1_554 S
Tb612 O629 2.427 1_554 S
Tb612 O630 2.513 . S
C613 O617 1.251 . S
C613 O619 1.263 1_455 S
Tb614 O616 2.343 . S
Tb614 O619 2.353 . S
Tb614 O622 2.427 . S
Tb614 O623 2.513 . S
Tb614 O624 2.453 . S
Tb614 O625 2.596 1_655 S
Tb614 O626 2.374 1_554 S
O615 Tb612 2.453 . S
O615 C631 1.245 . S
O616 Tb612 2.596 1_655 S
O616 Tb614 2.343 . S
O616 C631 1.259 1_655 S
O617 Tb612 2.374 . S
O617 C613 1.251 . S
C618 O622 1.275 . S
C618 O623 1.246 . S
O619 C613 1.263 1_655 S
O619 Tb614 2.353 . S
C620 O624 1.245 . S
C620 O625 1.259 1_655 S
C621 O626 1.250 . S
C621 O627 1.263 1_655 S
O622 Tb614 2.427 . S
O622 C618 1.275 . S
O623 Tb614 2.513 . S
O623 C618 1.246 . S
O624 Tb614 2.453 . S
O624 C620 1.245 . S
O625 Tb612 2.343 . S
O625 Tb614 2.596 1_455 S
O625 C620 1.259 1_455 S
O626 Tb614 2.374 1_556 S
O626 C621 1.250 . S
O627 Tb612 2.353 1_556 S
O627 C621 1.263 1_455 S
C628 O629 1.275 1_554 S
C628 O630 1.246 . S
O629 Tb612 2.427 1_556 S
O629 C628 1.275 1_556 S
O630 Tb612 2.513 . S
O630 C628 1.246 . S
C631 O615 1.245 . S
C631 O616 1.259 1_455 S
C632 C633 1.387 1_655 S
C632 H636 0.950 . S
C632 C641 1.391 . S
C633 C632 1.387 1_455 S
C633 C635 1.387 . S
H634 C641 0.973 . S
C635 C633 1.387 . S
C635 C637 1.390 . S
C635 H639 0.950 . S
H636 C632 0.950 . S
C637 C635 1.390 . S
C637 C638 1.387 . S
C637 H640 0.950 . S
C638 C637 1.387 . S
C638 C641 1.372 1_455 S
H639 C635 0.950 . S
H640 C637 0.950 . S
C641 C632 1.391 . S
C641 H634 0.973 . S
C641 C638 1.372 1_655 S
C642 C643 1.387 . S
C642 H646 0.950 . S
C642 C651 1.390 . S
C643 C642 1.387 . S
C643 C645 1.387 . S
H644 C651 0.950 . S
C645 C643 1.387 . S
C645 C647 1.390 . S
C645 H649 0.950 . S
H646 C642 0.950 . S
C647 C645 1.390 . S
C647 C648 1.387 . S
C647 H650 0.950 . S
C648 C647 1.387 . S
C648 C651 1.387 . S
H649 C645 0.950 . S
H650 C647 0.950 . S
C651 C642 1.390 . S
C651 H644 0.950 . S
C651 C648 1.387 . S
C652 C653 1.387 . S
C652 H656 0.950 . S
C652 C661 1.390 . S
C653 C652 1.387 . S
C653 C655 1.387 . S
H654 C661 0.950 . S
C655 C653 1.387 . S
C655 C657 1.390 . S
C655 H659 0.950 . S
H656 C652 0.950 . S
C657 C655 1.390 . S
C657 C658 1.387 . S
C657 H660 0.950 . S
C658 C657 1.387 . S
C658 C661 1.387 . S
H659 C655 0.950 . S
H660 C657 0.950 . S
C661 C652 1.390 . S
C661 H654 0.950 . S
C661 C658 1.387 . S
C662 C663 1.387 . S
C662 H666 0.950 . S
C662 C671 1.390 . S
C663 C662 1.387 . S
C663 C665 1.387 . S
H664 C671 0.950 . S
C665 C663 1.387 . S
C665 C667 1.390 . S
C665 H669 0.950 . S
H666 C662 0.950 . S
C667 C665 1.390 . S
C667 C668 1.387 . S
C667 H670 0.950 . S
C668 C667 1.387 . S
C668 C671 1.387 . S
H669 C665 0.950 . S
H670 C667 0.950 . S
C671 C662 1.390 . S
C671 H664 0.950 . S
C671 C668 1.387 . S
C672 C673 1.387 . S
C672 H676 0.950 . S
C672 C681 1.390 . S
C673 C672 1.387 . S
C673 C675 1.387 1_455 S
H674 C681 0.950 . S
C675 C673 1.387 1_655 S
C675 C677 1.390 . S
C675 H679 0.950 . S
H676 C672 0.950 . S
C677 C675 1.390 . S
C677 C678 1.387 1_655 S
C677 H680 0.950 . S
C678 C677 1.387 1_455 S
C678 C681 1.387 . S
H679 C675 0.950 . S
H680 C677 0.950 . S
C681 C672 1.390 . S
C681 H674 0.950 . S
C681 C678 1.387 . S
C682 C683 1.387 . S
C682 H686 0.950 . S
C682 C691 1.390 . S
C683 C682 1.387 . S
C683 C685 1.387 . S
H684 C691 0.950 . S
C685 C683 1.387 . S
C685 C687 1.390 . S
C685 H689 0.950 . S
H686 C682 0.950 . S
C687 C685 1.390 . S
C687 C688 1.387 . S
C687 H690 0.950 . S
C688 C687 1.387 . S
C688 C691 1.387 . S
H689 C685 0.950 . S
H690 C687 0.950 . S
C691 C682 1.390 . S
C691 H684 0.950 . S
C691 C688 1.387 . S
C692 C693 1.387 . S
C692 H696 0.950 . S
C692 C701 1.390 . S
C693 C692 1.387 . S
C693 C695 1.387 . S
H694 C701 0.950 . S
C695 C693 1.387 . S
C695 C697 1.390 . S
C695 H699 0.950 . S
H696 C692 0.950 . S
C697 C695 1.390 . S
C697 C698 1.387 . S
C697 H700 0.950 . S
C698 C697 1.387 . S
C698 C701 1.387 . S
H699 C695 0.950 . S
H700 C697 0.950 . S
C701 C692 1.390 . S
C701 H694 0.950 . S
C701 C698 1.387 . S
C702 C703 1.387 . S
C702 H706 0.950 . S
C702 C711 1.390 . S
C703 C702 1.387 . S
C703 C705 1.387 . S
H704 C711 0.950 . S
C705 C703 1.387 . S
C705 C707 1.390 . S
C705 H709 0.950 . S
H706 C702 0.950 . S
C707 C705 1.390 . S
C707 C708 1.387 . S
C707 H710 0.950 . S
C708 C707 1.387 . S
C708 C711 1.387 . S
H709 C705 0.950 . S
H710 C707 0.950 . S
C711 C702 1.390 . S
C711 H704 0.950 . S
C711 C708 1.387 . S
C712 C713 1.387 . S
C712 H716 0.950 . S
C712 C721 1.390 . S
C713 C712 1.387 . S
C713 C715 1.387 . S
H714 C721 0.950 . S
C715 C713 1.387 . S
C715 C717 1.390 . S
C715 H719 0.950 . S
H716 C712 0.950 . S
C717 C715 1.390 . S
C717 C718 1.387 . S
C717 H720 0.950 . S
C718 C717 1.387 . S
C718 C721 1.387 . S
H719 C715 0.950 . S
H720 C717 0.950 . S
C721 C712 1.390 . S
C721 H714 0.950 . S
C721 C718 1.387 . S
C722 C723 1.387 . S
C722 H726 0.950 . S
C722 C731 1.390 . S
C723 C722 1.387 . S
C723 C725 1.387 . S
H724 C731 0.950 . S
C725 C723 1.387 . S
C725 C727 1.390 . S
C725 H729 0.950 . S
H726 C722 0.950 . S
C727 C725 1.390 . S
C727 C728 1.387 . S
C727 H730 0.950 . S
C728 C727 1.387 . S
C728 C731 1.387 . S
H729 C725 0.950 . S
H730 C727 0.950 . S
C731 C722 1.390 . S
C731 H724 0.950 . S
C731 C728 1.387 . S
C732 C733 1.387 1_545 S
C732 H736 0.950 . S
C732 C741 1.390 . S
C733 C732 1.387 1_565 S
C733 C735 1.387 . S
H734 C741 0.950 . S
C735 C733 1.387 . S
C735 C737 1.390 . S
C735 H739 0.950 . S
H736 C732 0.950 . S
C737 C735 1.390 . S
C737 C738 1.387 1_565 S
C737 H740 0.950 . S
C738 C737 1.387 1_545 S
C738 C741 1.387 . S
H739 C735 0.950 . S
H740 C737 0.950 . S
C741 C732 1.390 . S
C741 H734 0.950 . S
C741 C738 1.387 . S
C742 C743 1.387 . S
C742 H746 0.950 . S
C742 C751 1.390 . S
C743 C742 1.387 . S
C743 C745 1.387 . S
H744 C751 0.950 . S
C745 C743 1.387 . S
C745 C747 1.390 . S
C745 H749 0.950 . S
H746 C742 0.950 . S
C747 C745 1.390 . S
C747 C748 1.387 . S
C747 H750 0.950 . S
C748 C747 1.387 . S
C748 C751 1.387 . S
H749 C745 0.950 . S
H750 C747 0.950 . S
C751 C742 1.390 . S
C751 H744 0.950 . S
C751 C748 1.387 . S
C752 C753 1.387 . S
C752 H756 0.950 . S
C752 C761 1.390 . S
C753 C752 1.387 . S
C753 C755 1.387 . S
H754 C761 0.950 . S
C755 C753 1.387 . S
C755 C757 1.390 . S
C755 H759 0.950 . S
H756 C752 0.950 . S
C757 C755 1.390 . S
C757 C758 1.387 . S
C757 H760 0.950 1_545 S
C758 C757 1.387 . S
C758 C761 1.387 . S
H759 C755 0.950 . S
H760 C757 0.950 1_565 S
C761 C752 1.390 . S
C761 H754 0.950 . S
C761 C758 1.387 . S
C762 C763 1.387 . S
C762 H766 0.950 . S
C762 C771 1.390 . S
C763 C762 1.387 . S
C763 C765 1.387 . S
H764 C771 0.950 . S
C765 C763 1.387 . S
C765 C767 1.390 . S
C765 H769 0.950 . S
H766 C762 0.950 . S
C767 C765 1.390 . S
C767 C768 1.387 . S
C767 H770 0.950 . S
C768 C767 1.387 . S
C768 C771 1.387 . S
H769 C765 0.950 . S
H770 C767 0.950 . S
C771 C762 1.390 . S
C771 H764 0.950 . S
C771 C768 1.387 . S
C772 C773 1.387 1_565 S
C772 H776 0.950 . S
C772 C781 1.390 1_565 S
C773 C772 1.387 1_545 S
C773 C775 1.387 . S
H774 C781 0.950 1_565 S
C775 C773 1.387 . S
C775 C777 1.390 . S
C775 H779 0.950 . S
H776 C772 0.950 . S
C777 C775 1.390 . S
C777 C778 1.387 . S
C777 H780 0.950 . S
C778 C777 1.387 . S
C778 C781 1.387 . S
H779 C775 0.950 . S
H780 C777 0.950 . S
C781 C772 1.390 1_545 S
C781 H774 0.950 1_545 S
C781 C778 1.387 . S
C782 C783 1.387 . S
C782 H786 0.950 . S
C782 C791 1.390 . S
C783 C782 1.387 . S
C783 C785 1.387 . S
H784 C791 0.950 . S
C785 C783 1.387 . S
C785 C787 1.390 . S
C785 H789 0.950 . S
H786 C782 0.950 . S
C787 C785 1.390 . S
C787 C788 1.387 . S
C787 H790 0.950 . S
C788 C787 1.387 . S
C788 C791 1.387 . S
H789 C785 0.950 . S
H790 C787 0.950 . S
C791 C782 1.390 . S
C791 H784 0.950 . S
C791 C788 1.387 . S
C792 C793 1.387 . S
C792 H796 0.950 1_554 S
C792 C801 1.390 . S
C793 C792 1.387 . S
C793 C795 1.387 . S
H794 C801 0.950 . S
C795 C793 1.387 . S
C795 C797 1.390 . S
C795 H799 0.950 . S
H796 C792 0.950 1_556 S
C797 C795 1.390 . S
C797 C798 1.387 . S
C797 H800 0.950 . S
C798 C797 1.387 . S
C798 C801 1.387 . S
H799 C795 0.950 . S
H800 C797 0.950 . S
C801 C792 1.390 . S
C801 H794 0.950 . S
C801 C798 1.387 . S
C802 C803 1.387 . S
C802 H806 0.950 . S
C802 C811 1.390 . S
C803 C802 1.387 . S
C803 C805 1.387 1_556 S
H804 C811 0.950 . S
C805 C803 1.387 1_554 S
C805 C807 1.390 . S
C805 H809 0.950 . S
H806 C802 0.950 . S
C807 C805 1.390 . S
C807 C808 1.387 1_554 S
C807 H810 0.950 . S
C808 C807 1.387 1_556 S
C808 C811 1.387 . S
H809 C805 0.950 . S
H810 C807 0.950 . S
C811 C802 1.390 . S
C811 H804 0.950 . S
C811 C808 1.387 . S
C812 C813 1.387 . S
C812 H816 0.950 . S
C812 C821 1.390 . S
C813 C812 1.387 . S
C813 C815 1.387 . S
H814 C821 0.950 . S
C815 C813 1.387 . S
C815 C817 1.390 . S
C815 H819 0.950 . S
H816 C812 0.950 . S
C817 C815 1.390 . S
C817 C818 1.387 . S
C817 H820 0.950 . S
C818 C817 1.387 . S
C818 C821 1.387 . S
H819 C815 0.950 . S
H820 C817 0.950 . S
C821 C812 1.390 . S
C821 H814 0.950 . S
C821 C818 1.387 . S
C822 C823 1.387 . S
C822 H826 0.950 . S
C822 C831 1.390 . S
C823 C822 1.387 . S
C823 C825 1.387 . S
H824 C831 0.950 . S
C825 C823 1.387 . S
C825 C827 1.390 . S
C825 H829 0.950 . S
H826 C822 0.950 . S
C827 C825 1.390 . S
C827 C828 1.387 . S
C827 H830 0.950 . S
C828 C827 1.387 . S
C828 C831 1.387 . S
H829 C825 0.950 . S
H830 C827 0.950 . S
C831 C822 1.390 . S
C831 H824 0.950 . S
C831 C828 1.387 . S
C832 C833 1.387 . S
C832 H836 0.950 . S
C832 C841 1.390 . S
C833 C832 1.387 . S
C833 C835 1.387 . S
H834 C841 0.950 . S
C835 C833 1.387 . S
C835 C837 1.390 . S
C835 H839 0.950 . S
H836 C832 0.950 . S
C837 C835 1.390 . S
C837 C838 1.387 . S
C837 H840 0.950 . S
C838 C837 1.387 . S
C838 C841 1.387 . S
H839 C835 0.950 . S
H840 C837 0.950 . S
C841 C832 1.390 . S
C841 H834 0.950 . S
C841 C838 1.387 . S
C842 C843 1.387 . S
C842 H846 0.950 . S
C842 C851 1.390 . S
C843 C842 1.387 . S
C843 C845 1.387 . S
H844 C851 0.950 . S
C845 C843 1.387 . S
C845 C847 1.390 . S
C845 H849 0.950 . S
H846 C842 0.950 . S
C847 C845 1.390 . S
C847 C848 1.387 . S
C847 H850 0.950 . S
C848 C847 1.387 . S
C848 C851 1.387 . S
H849 C845 0.950 . S
H850 C847 0.950 . S
C851 C842 1.390 . S
C851 H844 0.950 . S
C851 C848 1.387 . S
C852 C853 1.387 . S
C852 H856 0.950 . S
C852 C861 1.390 . S
C853 C852 1.387 . S
C853 C855 1.387 . S
H854 C861 0.950 . S
C855 C853 1.387 . S
C855 C857 1.390 . S
C855 H859 0.950 . S
H856 C852 0.950 . S
C857 C855 1.390 . S
C857 C858 1.387 . S
C857 H860 0.950 . S
C858 C857 1.387 . S
C858 C861 1.387 . S
H859 C855 0.950 . S
H860 C857 0.950 . S
C861 C852 1.390 . S
C861 H854 0.950 . S
C861 C858 1.387 . S
C862 C863 1.387 . S
C862 H866 0.950 . S
C862 C871 1.390 . S
C863 C862 1.387 . S
C863 C865 1.387 . S
H864 C871 0.950 . S
C865 C863 1.387 . S
C865 C867 1.390 . S
C865 H869 0.950 . S
H866 C862 0.950 . S
C867 C865 1.390 . S
C867 C868 1.387 . S
C867 H870 0.950 . S
C868 C867 1.387 . S
C868 C871 1.387 . S
H869 C865 0.950 . S
H870 C867 0.950 . S
C871 C862 1.390 . S
C871 H864 0.950 . S
C871 C868 1.387 . S
C872 C873 1.359 1_655 S
C872 H876 0.979 . S
C872 C881 1.390 1_655 S
C873 C872 1.359 1_455 S
C873 C875 1.387 . S
H874 C881 0.950 1_655 S
C875 C873 1.387 . S
C875 C877 1.390 . S
C875 H879 0.950 . S
H876 C872 0.979 . S
C877 C875 1.390 . S
C877 C878 1.387 . S
C877 H880 0.950 . S
C878 C877 1.387 . S
C878 C881 1.387 . S
H879 C875 0.950 . S
H880 C877 0.950 . S
C881 C872 1.390 1_455 S
C881 H874 0.950 1_455 S
C881 C878 1.387 . S
C882 C883 1.387 . S
C882 H886 0.950 . S
C882 C891 1.390 . S
C883 C882 1.387 . S
C883 C885 1.387 . S
H884 C891 0.950 . S
C885 C883 1.387 . S
C885 C887 1.390 . S
C885 H889 0.950 . S
H886 C882 0.950 . S
C887 C885 1.390 . S
C887 C888 1.387 . S
C887 H890 0.950 . S
C888 C887 1.387 . S
C888 C891 1.387 . S
H889 C885 0.950 . S
H890 C887 0.950 . S
C891 C882 1.390 . S
C891 H884 0.950 . S
C891 C888 1.387 . S
C892 C893 1.387 . S
C892 H896 0.950 . S
C892 C901 1.390 . S
C893 C892 1.387 . S
C893 C895 1.387 . S
H894 C901 0.950 . S
C895 C893 1.387 . S
C895 C897 1.390 . S
C895 H899 0.950 . S
H896 C892 0.950 . S
C897 C895 1.390 . S
C897 C898 1.387 . S
C897 H900 0.950 . S
C898 C897 1.387 . S
C898 C901 1.387 . S
H899 C895 0.950 . S
H900 C897 0.950 . S
C901 C892 1.390 . S
C901 H894 0.950 . S
C901 C898 1.387 . S
C902 C903 1.387 . S
C902 H906 0.950 . S
C902 C911 1.390 . S
C903 C902 1.387 . S
C903 C905 1.387 . S
H904 C911 0.950 . S
C905 C903 1.387 . S
C905 C907 1.390 . S
C905 H909 0.950 . S
H906 C902 0.950 . S
C907 C905 1.390 . S
C907 C908 1.387 . S
C907 H910 0.950 . S
C908 C907 1.387 . S
C908 C911 1.387 . S
H909 C905 0.950 . S
H910 C907 0.950 . S
C911 C902 1.390 . S
C911 H904 0.950 . S
C911 C908 1.387 . S
C912 C913 1.387 . S
C912 H916 0.950 . S
C912 C921 1.390 . S
C913 C912 1.387 . S
C913 C915 1.387 . S
H914 C921 0.950 . S
C915 C913 1.387 . S
C915 C917 1.390 . S
C915 H919 0.950 . S
H916 C912 0.950 . S
C917 C915 1.390 . S
C917 C918 1.387 . S
C917 H920 0.950 . S
C918 C917 1.387 . S
C918 C921 1.387 . S
H919 C915 0.950 . S
H920 C917 0.950 . S
C921 C912 1.390 . S
C921 H914 0.950 . S
C921 C918 1.387 . S
C922 C923 1.387 . S
C922 H926 0.950 . S
C922 C931 1.390 . S
C923 C922 1.387 . S
C923 C925 1.387 . S
H924 C931 0.950 . S
C925 C923 1.387 . S
C925 C927 1.390 . S
C925 H929 0.950 . S
H926 C922 0.950 . S
C927 C925 1.390 . S
C927 C928 1.387 . S
C927 H930 0.950 . S
C928 C927 1.387 . S
C928 C931 1.387 . S
H929 C925 0.950 . S
H930 C927 0.950 . S
C931 C922 1.390 . S
C931 H924 0.950 . S
C931 C928 1.387 . S
C932 C933 1.387 . S
C932 H936 0.950 . S
C932 C941 1.390 . S
C933 C932 1.387 . S
C933 C935 1.387 . S
H934 C941 0.950 . S
C935 C933 1.387 . S
C935 C937 1.390 . S
C935 H939 0.950 . S
H936 C932 0.950 . S
C937 C935 1.390 . S
C937 C938 1.387 . S
C937 H940 0.950 1_556 S
C938 C937 1.387 . S
C938 C941 1.387 . S
H939 C935 0.950 . S
H940 C937 0.950 1_554 S
C941 C932 1.390 . S
C941 H934 0.950 . S
C941 C938 1.387 . S
C942 C943 1.387 . S
C942 H946 0.950 . S
C942 C951 1.390 . S
C943 C942 1.387 . S
C943 C945 1.387 . S
H944 C951 0.950 . S
C945 C943 1.387 . S
C945 C947 1.390 . S
C945 H949 0.950 . S
H946 C942 0.950 . S
C947 C945 1.390 . S
C947 C948 1.387 . S
C947 H950 0.950 . S
C948 C947 1.387 . S
C948 C951 1.387 . S
H949 C945 0.950 . S
H950 C947 0.950 . S
C951 C942 1.390 . S
C951 H944 0.950 . S
C951 C948 1.387 . S
C952 C953 1.387 . S
C952 H956 0.950 . S
C952 C961 1.390 . S
C953 C952 1.387 . S
C953 C955 1.387 1_545 S
H954 C961 0.950 . S
C955 C953 1.387 1_565 S
C955 C957 1.390 . S
C955 H959 0.950 . S
H956 C952 0.950 . S
C957 C955 1.390 . S
C957 C958 1.387 1_565 S
C957 H960 0.950 . S
C958 C957 1.387 1_545 S
C958 C961 1.387 . S
H959 C955 0.950 . S
H960 C957 0.950 . S
C961 C952 1.390 . S
C961 H954 0.950 . S
C961 C958 1.387 . S
C962 C963 1.387 . S
C962 H966 0.950 . S
C962 C971 1.390 . S
C963 C962 1.387 . S
C963 C965 1.387 . S
H964 C971 0.950 . S
C965 C963 1.387 . S
C965 C967 1.390 . S
C965 H969 0.950 . S
H966 C962 0.950 . S
C967 C965 1.390 . S
C967 C968 1.387 . S
C967 H970 0.950 . S
C968 C967 1.387 . S
C968 C971 1.387 . S
H969 C965 0.950 . S
H970 C967 0.950 . S
C971 C962 1.390 . S
C971 H964 0.950 . S
C971 C968 1.387 . S
C972 C973 1.387 . S
C972 H976 0.950 . S
C972 C981 1.390 . S
C973 C972 1.387 . S
C973 C975 1.387 . S
H974 C981 0.950 . S
C975 C973 1.387 . S
C975 C977 1.390 . S
C975 H979 0.950 . S
H976 C972 0.950 . S
C977 C975 1.390 . S
C977 C978 1.387 . S
C977 H980 0.950 1_545 S
C978 C977 1.387 . S
C978 C981 1.387 . S
H979 C975 0.950 . S
H980 C977 0.950 1_565 S
C981 C972 1.390 . S
C981 H974 0.950 . S
C981 C978 1.387 . S
C982 C983 1.387 . S
C982 H986 0.950 . S
C982 C991 1.390 . S
C983 C982 1.387 . S
C983 C985 1.387 . S
H984 C991 0.950 . S
C985 C983 1.387 . S
C985 C987 1.390 . S
C985 H989 0.950 . S
H986 C982 0.950 . S
C987 C985 1.390 . S
C987 C988 1.387 . S
C987 H990 0.950 . S
C988 C987 1.387 . S
C988 C991 1.387 . S
H989 C985 0.950 . S
H990 C987 0.950 . S
C991 C982 1.390 . S
C991 H984 0.950 . S
C991 C988 1.387 . S
C992 C993 1.387 . S
C992 H996 0.950 . S
C992 C1001 1.390 . S
C993 C992 1.387 . S
C993 C995 1.382 1_565 S
H994 C1001 0.950 . S
C995 C993 1.382 1_545 S
C995 C997 1.395 . S
C995 H999 0.950 . S
H996 C992 0.950 . S
C997 C995 1.395 . S
C997 C998 1.388 . S
C997 H1000 0.950 . S
C998 C997 1.388 . S
C998 C1001 1.380 1_545 S
H999 C995 0.950 . S
H1000 C997 0.950 . S
C1001 C992 1.390 . S
C1001 H994 0.950 . S
C1001 C998 1.380 1_565 S
C1002 C1003 1.387 . S
C1002 H1006 0.950 . S
C1002 C1011 1.390 . S
C1003 C1002 1.387 . S
C1003 C1005 1.387 . S
H1004 C1011 0.950 . S
C1005 C1003 1.387 . S
C1005 C1007 1.390 . S
C1005 H1009 0.950 . S
H1006 C1002 0.950 . S
C1007 C1005 1.390 . S
C1007 C1008 1.387 . S
C1007 H1010 0.950 . S
C1008 C1007 1.387 . S
C1008 C1011 1.387 . S
H1009 C1005 0.950 . S
H1010 C1007 0.950 . S
C1011 C1002 1.390 . S
C1011 H1004 0.950 . S
C1011 C1008 1.387 . S
C1012 C1013 1.387 . S
C1012 H1016 0.950 . S
C1012 C1021 1.390 . S
C1013 C1012 1.387 . S
C1013 C1015 1.387 . S
H1014 C1021 0.950 . S
C1015 C1013 1.387 . S
C1015 C1017 1.390 . S
C1015 H1019 0.950 1_545 S
H1016 C1012 0.950 . S
C1017 C1015 1.390 . S
C1017 C1018 1.387 . S
C1017 H1020 0.950 1_545 S
C1018 C1017 1.387 . S
C1018 C1021 1.387 . S
H1019 C1015 0.950 1_565 S
H1020 C1017 0.950 1_565 S
C1021 C1012 1.390 . S
C1021 H1014 0.950 . S
C1021 C1018 1.387 . S
C1022 C1023 1.387 . S
C1022 H1026 0.950 . S
C1022 C1031 1.390 . S
C1023 C1022 1.387 . S
C1023 C1025 1.387 . S
H1024 C1031 0.950 . S
C1025 C1023 1.387 . S
C1025 C1027 1.390 . S
C1025 H1029 0.950 . S
H1026 C1022 0.950 . S
C1027 C1025 1.390 . S
C1027 C1028 1.387 . S
C1027 H1030 0.950 . S
C1028 C1027 1.387 . S
C1028 C1031 1.387 . S
H1029 C1025 0.950 . S
H1030 C1027 0.950 . S
C1031 C1022 1.390 . S
C1031 H1024 0.950 . S
C1031 C1028 1.387 . S
C1032 C1033 1.387 . S
C1032 H1036 0.950 . S
C1032 C1041 1.390 . S
C1033 C1032 1.387 . S
C1033 C1035 1.387 1_554 S
H1034 C1041 0.950 . S
C1035 C1033 1.387 1_556 S
C1035 C1037 1.390 . S
C1035 H1039 0.950 . S
H1036 C1032 0.950 . S
C1037 C1035 1.390 . S
C1037 C1038 1.387 1_556 S
C1037 H1040 0.950 . S
C1038 C1037 1.387 1_554 S
C1038 C1041 1.387 . S
H1039 C1035 0.950 . S
H1040 C1037 0.950 . S
C1041 C1032 1.390 . S
C1041 H1034 0.950 . S
C1041 C1038 1.387 . S
C1042 C1043 1.387 . S
C1042 H1046 0.950 . S
C1042 C1051 1.390 . S
C1043 C1042 1.387 . S
C1043 C1045 1.387 . S
H1044 C1051 0.950 . S
C1045 C1043 1.387 . S
C1045 C1047 1.390 . S
C1045 H1049 0.950 1_554 S
H1046 C1042 0.950 . S
C1047 C1045 1.390 . S
C1047 C1048 1.387 . S
C1047 H1050 0.950 1_554 S
C1048 C1047 1.387 . S
C1048 C1051 1.387 . S
H1049 C1045 0.950 1_556 S
H1050 C1047 0.950 1_556 S
C1051 C1042 1.390 . S
C1051 H1044 0.950 . S
C1051 C1048 1.387 . S
C1052 C1053 1.387 . S
C1052 H1056 0.950 . S
C1052 C1061 1.390 . S
C1053 C1052 1.387 . S
C1053 C1055 1.387 . S
H1054 C1061 0.950 . S
C1055 C1053 1.387 . S
C1055 C1057 1.390 . S
C1055 H1059 0.950 . S
H1056 C1052 0.950 . S
C1057 C1055 1.390 . S
C1057 C1058 1.387 . S
C1057 H1060 0.950 . S
C1058 C1057 1.387 . S
C1058 C1061 1.387 . S
H1059 C1055 0.950 . S
H1060 C1057 0.950 . S
C1061 C1052 1.390 . S
C1061 H1054 0.950 . S
C1061 C1058 1.387 . S
C1062 C1063 1.387 . S
C1062 H1066 0.950 . S
C1062 C1071 1.390 . S
C1063 C1062 1.387 . S
C1063 C1065 1.387 . S
H1064 C1071 0.950 . S
C1065 C1063 1.387 . S
C1065 C1067 1.390 . S
C1065 H1069 0.950 . S
H1066 C1062 0.950 . S
C1067 C1065 1.390 . S
C1067 C1068 1.387 . S
C1067 H1070 0.950 . S
C1068 C1067 1.387 . S
C1068 C1071 1.387 . S
H1069 C1065 0.950 . S
H1070 C1067 0.950 . S
C1071 C1062 1.390 . S
C1071 H1064 0.950 . S
C1071 C1068 1.387 . S
C1072 C1073 1.387 . S
C1072 H1076 0.950 . S
C1072 C1081 1.390 . S
C1073 C1072 1.387 . S
C1073 C1075 1.387 . S
H1074 C1081 0.950 . S
C1075 C1073 1.387 . S
C1075 C1077 1.390 . S
C1075 H1079 0.950 . S
H1076 C1072 0.950 . S
C1077 C1075 1.390 . S
C1077 C1078 1.387 . S
C1077 H1080 0.950 . S
C1078 C1077 1.387 . S
C1078 C1081 1.387 . S
H1079 C1075 0.950 . S
H1080 C1077 0.950 . S
C1081 C1072 1.390 . S
C1081 H1074 0.950 . S
C1081 C1078 1.387 . S
C1082 C1083 1.387 . S
C1082 H1086 0.950 . S
C1082 C1091 1.390 . S
C1083 C1082 1.387 . S
C1083 C1085 1.387 . S
H1084 C1091 0.950 . S
C1085 C1083 1.387 . S
C1085 C1087 1.390 . S
C1085 H1089 0.950 . S
H1086 C1082 0.950 . S
C1087 C1085 1.390 . S
C1087 C1088 1.387 . S
C1087 H1090 0.950 . S
C1088 C1087 1.387 . S
C1088 C1091 1.387 . S
H1089 C1085 0.950 . S
H1090 C1087 0.950 . S
C1091 C1082 1.390 . S
C1091 H1084 0.950 . S
C1091 C1088 1.387 . S
C1092 C1093 1.387 . S
C1092 H1096 0.950 . S
C1092 C1101 1.390 . S
C1093 C1092 1.387 . S
C1093 C1095 1.387 . S
H1094 C1101 0.950 . S
C1095 C1093 1.387 . S
C1095 C1097 1.390 . S
C1095 H1099 0.950 . S
H1096 C1092 0.950 . S
C1097 C1095 1.390 . S
C1097 C1098 1.387 . S
C1097 H1100 0.950 . S
C1098 C1097 1.387 . S
C1098 C1101 1.387 . S
H1099 C1095 0.950 . S
H1100 C1097 0.950 . S
C1101 C1092 1.390 . S
C1101 H1094 0.950 . S
C1101 C1098 1.387 . S
C1102 C1103 1.387 . S
C1102 H1106 0.950 . S
C1102 C1111 1.390 . S
C1103 C1102 1.387 . S
C1103 C1105 1.387 . S
H1104 C1111 0.950 . S
C1105 C1103 1.387 . S
C1105 C1107 1.390 . S
C1105 H1109 0.950 . S
H1106 C1102 0.950 . S
C1107 C1105 1.390 . S
C1107 C1108 1.387 . S
C1107 H1110 0.950 . S
C1108 C1107 1.387 . S
C1108 C1111 1.387 . S
H1109 C1105 0.950 . S
H1110 C1107 0.950 . S
C1111 C1102 1.390 . S
C1111 H1104 0.950 . S
C1111 C1108 1.387 . S
C1112 C1113 1.387 . S
C1112 H1116 0.950 . S
C1112 C1121 1.390 . S
C1113 C1112 1.387 . S
C1113 C1115 1.387 . S
H1114 C1121 0.950 . S
C1115 C1113 1.387 . S
C1115 C1117 1.390 . S
C1115 H1119 0.950 . S
H1116 C1112 0.950 . S
C1117 C1115 1.390 . S
C1117 C1118 1.387 . S
C1117 H1120 0.950 . S
C1118 C1117 1.387 . S
C1118 C1121 1.387 . S
H1119 C1115 0.950 . S
H1120 C1117 0.950 . S
C1121 C1112 1.390 . S
C1121 H1114 0.950 . S
C1121 C1118 1.387 . S
C1122 C1123 1.387 . S
C1122 H1126 0.950 . S
C1122 C1131 1.390 . S
C1123 C1122 1.387 . S
C1123 C1125 1.387 . S
H1124 C1131 0.950 . S
C1125 C1123 1.387 . S
C1125 C1127 1.390 . S
C1125 H1129 0.950 . S
H1126 C1122 0.950 . S
C1127 C1125 1.390 . S
C1127 C1128 1.387 . S
C1127 H1130 0.950 . S
C1128 C1127 1.387 . S
C1128 C1131 1.387 . S
H1129 C1125 0.950 . S
H1130 C1127 0.950 . S
C1131 C1122 1.390 . S
C1131 H1124 0.950 . S
C1131 C1128 1.387 . S
C1132 C1133 1.387 . S
C1132 H1136 0.950 . S
C1132 C1141 1.390 . S
C1133 C1132 1.387 . S
C1133 C1135 1.387 1_455 S
H1134 C1141 0.950 1_554 S
C1135 C1133 1.387 1_655 S
C1135 C1137 1.390 . S
C1135 H1139 0.950 . S
H1136 C1132 0.950 . S
C1137 C1135 1.390 . S
C1137 C1138 1.387 1_655 S
C1137 H1140 0.950 . S
C1138 C1137 1.387 1_455 S
C1138 C1141 1.387 . S
H1139 C1135 0.950 . S
H1140 C1137 0.950 . S
C1141 C1132 1.390 . S
C1141 H1134 0.950 1_556 S
C1141 C1138 1.387 . S
C1142 C1143 1.387 . S
C1142 H1146 0.950 . S
C1142 C1151 1.390 . S
C1143 C1142 1.387 . S
C1143 C1145 1.387 . S
H1144 C1151 0.950 . S
C1145 C1143 1.387 . S
C1145 C1147 1.390 . S
C1145 H1149 0.950 . S
H1146 C1142 0.950 . S
C1147 C1145 1.390 . S
C1147 C1148 1.387 . S
C1147 H1150 0.950 . S
C1148 C1147 1.387 . S
C1148 C1151 1.387 . S
H1149 C1145 0.950 . S
H1150 C1147 0.950 . S
C1151 C1142 1.390 . S
C1151 H1144 0.950 . S
C1151 C1148 1.387 . S
C1152 C1153 1.387 . S
C1152 H1156 0.950 . S
C1152 C1161 1.390 . S
C1153 C1152 1.387 . S
C1153 C1155 1.387 . S
H1154 C1161 0.950 . S
C1155 C1153 1.387 . S
C1155 C1157 1.390 . S
C1155 H1159 0.950 . S
H1156 C1152 0.950 . S
C1157 C1155 1.390 . S
C1157 C1158 1.387 . S
C1157 H1160 0.950 . S
C1158 C1157 1.387 . S
C1158 C1161 1.387 . S
H1159 C1155 0.950 . S
H1160 C1157 0.950 . S
C1161 C1152 1.390 . S
C1161 H1154 0.950 . S
C1161 C1158 1.387 . S
C1162 C1163 1.387 . S
C1162 H1166 0.950 . S
C1162 C1171 1.390 . S
C1163 C1162 1.387 . S
C1163 C1165 1.387 . S
H1164 C1171 0.950 . S
C1165 C1163 1.387 . S
C1165 C1167 1.390 . S
C1165 H1169 0.950 . S
H1166 C1162 0.950 . S
C1167 C1165 1.390 . S
C1167 C1168 1.387 . S
C1167 H1170 0.950 . S
C1168 C1167 1.387 . S
C1168 C1171 1.387 . S
H1169 C1165 0.950 . S
H1170 C1167 0.950 . S
C1171 C1162 1.390 . S
C1171 H1164 0.950 . S
C1171 C1168 1.387 . S
C1172 C1173 1.387 . S
C1172 H1176 0.950 . S
C1172 C1181 1.390 . S
C1173 C1172 1.387 . S
C1173 C1175 1.387 1_655 S
H1174 C1181 0.950 . S
C1175 C1173 1.387 1_455 S
C1175 C1177 1.390 . S
C1175 H1179 0.950 . S
H1176 C1172 0.950 . S
C1177 C1175 1.390 . S
C1177 C1178 1.387 1_455 S
C1177 H1180 0.950 . S
C1178 C1177 1.387 1_655 S
C1178 C1181 1.387 . S
H1179 C1175 0.950 . S
H1180 C1177 0.950 . S
C1181 C1172 1.390 . S
C1181 H1174 0.950 . S
C1181 C1178 1.387 . S
C1182 C1183 1.387 . S
C1182 H1186 0.950 . S
C1182 C1191 1.390 . S
C1183 C1182 1.387 . S
C1183 C1185 1.387 . S
H1184 C1191 0.950 . S
C1185 C1183 1.387 . S
C1185 C1187 1.390 . S
C1185 H1189 0.950 . S
H1186 C1182 0.950 . S
C1187 C1185 1.390 . S
C1187 C1188 1.387 . S
C1187 H1190 0.950 . S
C1188 C1187 1.387 . S
C1188 C1191 1.387 . S
H1189 C1185 0.950 . S
H1190 C1187 0.950 . S
C1191 C1182 1.390 . S
C1191 H1184 0.950 . S
C1191 C1188 1.387 . S
C1192 C1193 1.387 . S
C1192 H1196 0.950 . S
C1192 C1201 1.390 . S
C1193 C1192 1.387 . S
C1193 C1195 1.387 . S
H1194 C1201 0.950 . S
C1195 C1193 1.387 . S
C1195 C1197 1.390 . S
C1195 H1199 0.950 . S
H1196 C1192 0.950 . S
C1197 C1195 1.390 . S
C1197 C1198 1.387 . S
C1197 H1200 0.950 . S
C1198 C1197 1.387 . S
C1198 C1201 1.387 . S
H1199 C1195 0.950 . S
H1200 C1197 0.950 . S
C1201 C1192 1.390 . S
C1201 H1194 0.950 . S
C1201 C1198 1.387 . S
C1202 C1203 1.387 . S
C1202 H1206 0.950 . S
C1202 C1211 1.390 . S
C1203 C1202 1.387 . S
C1203 C1205 1.387 . S
H1204 C1211 0.950 . S
C1205 C1203 1.387 . S
C1205 C1207 1.390 . S
C1205 H1209 0.950 . S
H1206 C1202 0.950 . S
C1207 C1205 1.390 . S
C1207 C1208 1.387 . S
C1207 H1210 0.950 . S
C1208 C1207 1.387 . S
C1208 C1211 1.387 . S
H1209 C1205 0.950 . S
H1210 C1207 0.950 . S
C1211 C1202 1.390 . S
C1211 H1204 0.950 . S
C1211 C1208 1.387 . S
C1212 C1213 1.387 . S
C1212 H1216 0.950 . S
C1212 C1221 1.390 . S
C1213 C1212 1.387 . S
C1213 C1215 1.387 . S
H1214 C1221 0.950 . S
C1215 C1213 1.387 . S
C1215 C1217 1.390 . S
C1215 H1219 0.950 . S
H1216 C1212 0.950 . S
C1217 C1215 1.390 . S
C1217 C1218 1.387 . S
C1217 H1220 0.950 . S
C1218 C1217 1.387 . S
C1218 C1221 1.387 . S
H1219 C1215 0.950 . S
H1220 C1217 0.950 . S
C1221 C1212 1.390 . S
C1221 H1214 0.950 . S
C1221 C1218 1.387 . S
C1222 C1223 1.387 . S
C1222 H1226 0.950 . S
C1222 C1231 1.390 . S
C1223 C1222 1.387 . S
C1223 C1225 1.387 . S
H1224 C1231 0.950 . S
C1225 C1223 1.387 . S
C1225 C1227 1.390 . S
C1225 H1229 0.950 . S
H1226 C1222 0.950 . S
C1227 C1225 1.390 . S
C1227 C1228 1.387 . S
C1227 H1230 0.950 . S
C1228 C1227 1.387 . S
C1228 C1231 1.387 . S
H1229 C1225 0.950 . S
H1230 C1227 0.950 . S
C1231 C1222 1.390 . S
C1231 H1224 0.950 . S
C1231 C1228 1.387 . S
C1232 C1233 1.387 . S
C1232 H1236 0.950 . S
C1232 C1241 1.390 . S
C1233 C1232 1.387 . S
C1233 C1235 1.387 . S
H1234 C1241 0.950 . S
C1235 C1233 1.387 . S
C1235 C1237 1.390 . S
C1235 H1239 0.950 . S
H1236 C1232 0.950 . S
C1237 C1235 1.390 . S
C1237 C1238 1.387 . S
C1237 H1240 0.950 . S
C1238 C1237 1.387 . S
C1238 C1241 1.387 . S
H1239 C1235 0.950 . S
H1240 C1237 0.950 . S
C1241 C1232 1.390 . S
C1241 H1234 0.950 . S
C1241 C1238 1.387 . S
C1242 C1243 1.387 . S
C1242 H1246 0.950 . S
C1242 C1251 1.390 . S
C1243 C1242 1.387 . S
C1243 C1245 1.387 . S
H1244 C1251 0.950 . S
C1245 C1243 1.387 . S
C1245 C1247 1.390 . S
C1245 H1249 0.950 . S
H1246 C1242 0.950 . S
C1247 C1245 1.390 . S
C1247 C1248 1.387 . S
C1247 H1250 0.950 . S
C1248 C1247 1.387 . S
C1248 C1251 1.387 . S
H1249 C1245 0.950 . S
H1250 C1247 0.950 . S
C1251 C1242 1.390 . S
C1251 H1244 0.950 . S
C1251 C1248 1.387 . S
C1252 C1253 1.387 . S
C1252 H1256 0.950 . S
C1252 C1261 1.390 . S
C1253 C1252 1.387 . S
C1253 C1255 1.387 . S
H1254 C1261 0.950 . S
C1255 C1253 1.387 . S
C1255 C1257 1.390 . S
C1255 H1259 0.950 . S
H1256 C1252 0.950 . S
C1257 C1255 1.390 . S
C1257 C1258 1.387 . S
C1257 H1260 0.950 . S
C1258 C1257 1.387 . S
C1258 C1261 1.387 . S
H1259 C1255 0.950 . S
H1260 C1257 0.950 . S
C1261 C1252 1.390 . S
C1261 H1254 0.950 . S
C1261 C1258 1.387 . S
C1262 C1263 1.387 . S
C1262 H1266 0.950 . S
C1262 C1271 1.390 . S
C1263 C1262 1.387 . S
C1263 C1265 1.387 . S
H1264 C1271 0.950 . S
C1265 C1263 1.387 . S
C1265 C1267 1.390 . S
C1265 H1269 0.950 . S
H1266 C1262 0.950 . S
C1267 C1265 1.390 . S
C1267 C1268 1.387 . S
C1267 H1270 0.950 . S
C1268 C1267 1.387 . S
C1268 C1271 1.387 . S
H1269 C1265 0.950 . S
H1270 C1267 0.950 . S
C1271 C1262 1.390 . S
C1271 H1264 0.950 . S
C1271 C1268 1.387 . S
C1272 C1273 1.387 . S
C1272 H1276 0.950 . S
C1272 C1281 1.390 . S
C1273 C1272 1.387 . S
C1273 C1275 1.387 . S
H1274 C1281 0.950 . S
C1275 C1273 1.387 . S
C1275 C1277 1.390 . S
C1275 H1279 0.950 . S
H1276 C1272 0.950 . S
C1277 C1275 1.390 . S
C1277 C1278 1.387 . S
C1277 H1280 0.950 . S
C1278 C1277 1.387 . S
C1278 C1281 1.387 . S
H1279 C1275 0.950 . S
H1280 C1277 0.950 . S
C1281 C1272 1.390 . S
C1281 H1274 0.950 . S
C1281 C1278 1.387 . S
C1282 C1283 1.387 . S
C1282 H1286 0.950 . S
C1282 C1291 1.390 . S
C1283 C1282 1.387 . S
C1283 C1285 1.387 . S
H1284 C1291 0.950 . S
C1285 C1283 1.387 . S
C1285 C1287 1.390 . S
C1285 H1289 0.950 . S
H1286 C1282 0.950 . S
C1287 C1285 1.390 . S
C1287 C1288 1.387 . S
C1287 H1290 0.950 . S
C1288 C1287 1.387 . S
C1288 C1291 1.387 . S
H1289 C1285 0.950 . S
H1290 C1287 0.950 . S
C1291 C1282 1.390 . S
C1291 H1284 0.950 . S
C1291 C1288 1.387 . S
C1292 C1293 1.387 . S
C1292 H1296 0.950 . S
C1292 C1301 1.390 . S
C1293 C1292 1.387 . S
C1293 C1295 1.387 . S
H1294 C1301 0.950 . S
C1295 C1293 1.387 . S
C1295 C1297 1.390 . S
C1295 H1299 0.950 . S
H1296 C1292 0.950 . S
C1297 C1295 1.390 . S
C1297 C1298 1.387 . S
C1297 H1300 0.950 . S
C1298 C1297 1.387 . S
C1298 C1301 1.387 . S
H1299 C1295 0.950 . S
H1300 C1297 0.950 . S
C1301 C1292 1.390 . S
C1301 H1294 0.950 . S
C1301 C1298 1.387 . S
C1302 C1303 1.387 . S
C1302 H1306 0.950 . S
C1302 C1311 1.390 1_565 S
C1303 C1302 1.387 . S
C1303 C1305 1.387 . S
H1304 C1311 0.950 . S
C1305 C1303 1.387 . S
C1305 C1307 1.390 . S
C1305 H1309 0.950 . S
H1306 C1302 0.950 . S
C1307 C1305 1.390 . S
C1307 C1308 1.387 . S
C1307 H1310 0.950 1_554 S
C1308 C1307 1.387 . S
C1308 C1311 1.387 1_565 S
H1309 C1305 0.950 . S
H1310 C1307 0.950 1_556 S
C1311 C1302 1.390 1_545 S
C1311 H1304 0.950 . S
C1311 C1308 1.387 1_545 S
C1312 C1313 1.387 . S
C1312 H1316 0.950 . S
C1312 C1321 1.390 . S
C1313 C1312 1.387 . S
C1313 C1315 1.387 . S
H1314 C1321 0.950 . S
C1315 C1313 1.387 . S
C1315 C1317 1.390 . S
C1315 H1319 0.950 . S
H1316 C1312 0.950 . S
C1317 C1315 1.390 . S
C1317 C1318 1.387 . S
C1317 H1320 0.950 . S
C1318 C1317 1.387 . S
C1318 C1321 1.387 . S
H1319 C1315 0.950 . S
H1320 C1317 0.950 . S
C1321 C1312 1.390 . S
C1321 H1314 0.950 . S
C1321 C1318 1.387 . S
C1322 C1323 1.387 . S
C1322 H1326 0.950 . S
C1322 C1331 1.390 . S
C1323 C1322 1.387 . S
C1323 C1325 1.387 1_554 S
H1324 C1331 0.950 . S
C1325 C1323 1.387 1_556 S
C1325 C1327 1.390 1_556 S
C1325 H1329 0.950 . S
H1326 C1322 0.950 . S
C1327 C1325 1.390 1_554 S
C1327 C1328 1.387 . S
C1327 H1330 0.950 1_554 S
C1328 C1327 1.387 . S
C1328 C1331 1.387 . S
H1329 C1325 0.950 . S
H1330 C1327 0.950 1_556 S
C1331 C1322 1.390 . S
C1331 H1324 0.950 . S
C1331 C1328 1.387 . S
C1332 C1333 1.387 . S
C1332 H1336 0.950 . S
C1332 C1341 1.390 . S
C1333 C1332 1.387 . S
C1333 C1335 1.387 . S
H1334 C1341 0.950 . S
C1335 C1333 1.387 . S
C1335 C1337 1.390 . S
C1335 H1339 0.950 . S
H1336 C1332 0.950 . S
C1337 C1335 1.390 . S
C1337 C1338 1.387 . S
C1337 H1340 0.950 . S
C1338 C1337 1.387 . S
C1338 C1341 1.387 . S
H1339 C1335 0.950 . S
H1340 C1337 0.950 . S
C1341 C1332 1.390 . S
C1341 H1334 0.950 . S
C1341 C1338 1.387 . S
C1342 C1343 1.387 . S
C1342 H1346 0.950 . S
C1342 C1351 1.390 . S
C1343 C1342 1.387 . S
C1343 C1345 1.387 . S
H1344 C1351 0.950 . S
C1345 C1343 1.387 . S
C1345 C1347 1.390 . S
C1345 H1349 0.950 . S
H1346 C1342 0.950 . S
C1347 C1345 1.390 . S
C1347 C1348 1.387 . S
C1347 H1350 0.950 . S
C1348 C1347 1.387 . S
C1348 C1351 1.387 . S
H1349 C1345 0.950 . S
H1350 C1347 0.950 . S
C1351 C1342 1.390 . S
C1351 H1344 0.950 . S
C1351 C1348 1.387 . S
C1352 C1353 1.387 . S
C1352 H1356 0.950 . S
C1352 C1361 1.390 . S
C1353 C1352 1.387 . S
C1353 C1355 1.387 . S
H1354 C1361 0.950 . S
C1355 C1353 1.387 . S
C1355 C1357 1.390 . S
C1355 H1359 0.950 . S
H1356 C1352 0.950 . S
C1357 C1355 1.390 . S
C1357 C1358 1.387 . S
C1357 H1360 0.950 . S
C1358 C1357 1.387 . S
C1358 C1361 1.387 . S
H1359 C1355 0.950 . S
H1360 C1357 0.950 . S
C1361 C1352 1.390 . S
C1361 H1354 0.950 . S
C1361 C1358 1.387 . S
C1362 C1363 1.387 . S
C1362 H1366 0.950 . S
C1362 C1371 1.390 . S
C1363 C1362 1.387 . S
C1363 C1365 1.387 . S
H1364 C1371 0.950 . S
C1365 C1363 1.387 . S
C1365 C1367 1.390 . S
C1365 H1369 0.950 . S
H1366 C1362 0.950 . S
C1367 C1365 1.390 . S
C1367 C1368 1.387 . S
C1367 H1370 0.950 . S
C1368 C1367 1.387 . S
C1368 C1371 1.387 . S
H1369 C1365 0.950 . S
H1370 C1367 0.950 . S
C1371 C1362 1.390 . S
C1371 H1364 0.950 . S
C1371 C1368 1.387 . S
C1372 C1373 1.387 1_455 S
C1372 H1376 0.950 . S
C1372 C1381 1.390 . S
C1373 C1372 1.387 1_655 S
C1373 C1375 1.387 . S
H1374 C1381 0.950 . S
C1375 C1373 1.387 . S
C1375 C1377 1.390 . S
C1375 H1379 0.950 . S
H1376 C1372 0.950 . S
C1377 C1375 1.390 . S
C1377 C1378 1.387 1_655 S
C1377 H1380 0.950 . S
C1378 C1377 1.387 1_455 S
C1378 C1381 1.387 . S
H1379 C1375 0.950 . S
H1380 C1377 0.950 . S
C1381 C1372 1.390 . S
C1381 H1374 0.950 . S
C1381 C1378 1.387 . S
C1382 C1383 1.387 . S
C1382 H1386 0.950 . S
C1382 C1391 1.390 . S
C1383 C1382 1.387 . S
C1383 C1385 1.387 . S
H1384 C1391 0.950 . S
C1385 C1383 1.387 . S
C1385 C1387 1.390 . S
C1385 H1389 0.950 . S
H1386 C1382 0.950 . S
C1387 C1385 1.390 . S
C1387 C1388 1.387 . S
C1387 H1390 0.950 . S
C1388 C1387 1.387 . S
C1388 C1391 1.387 . S
H1389 C1385 0.950 . S
H1390 C1387 0.950 . S
C1391 C1382 1.390 . S
C1391 H1384 0.950 . S
C1391 C1388 1.387 . S
C1392 C1393 1.387 . S
C1392 H1396 0.950 . S
C1392 C1401 1.390 . S
C1393 C1392 1.387 . S
C1393 C1395 1.387 . S
H1394 C1401 0.950 . S
C1395 C1393 1.387 . S
C1395 C1397 1.390 . S
C1395 H1399 0.950 . S
H1396 C1392 0.950 . S
C1397 C1395 1.390 . S
C1397 C1398 1.387 . S
C1397 H1400 0.950 . S
C1398 C1397 1.387 . S
C1398 C1401 1.387 . S
H1399 C1395 0.950 . S
H1400 C1397 0.950 . S
C1401 C1392 1.390 . S
C1401 H1394 0.950 . S
C1401 C1398 1.387 . S
C1402 C1403 1.387 . S
C1402 H1406 0.950 . S
C1402 C1411 1.390 . S
C1403 C1402 1.387 . S
C1403 C1405 1.387 . S
H1404 C1411 0.950 . S
C1405 C1403 1.387 . S
C1405 C1407 1.390 . S
C1405 H1409 0.950 . S
H1406 C1402 0.950 . S
C1407 C1405 1.390 . S
C1407 C1408 1.387 . S
C1407 H1410 0.950 . S
C1408 C1407 1.387 . S
C1408 C1411 1.387 . S
H1409 C1405 0.950 . S
H1410 C1407 0.950 . S
C1411 C1402 1.390 . S
C1411 H1404 0.950 . S
C1411 C1408 1.387 . S
C1412 C1413 1.387 . S
C1412 H1416 0.950 . S
C1412 C1421 1.390 . S
C1413 C1412 1.387 . S
C1413 C1415 1.410 . S
H1414 C1421 0.950 . S
C1415 C1413 1.410 . S
C1415 C1417 1.382 1_455 S
C1415 H1419 0.936 1_455 S
H1416 C1412 0.950 . S
C1417 C1415 1.382 1_655 S
C1417 C1418 1.387 1_655 S
C1417 H1420 0.950 . S
C1418 C1417 1.387 1_455 S
C1418 C1421 1.387 . S
H1419 C1415 0.936 1_655 S
H1420 C1417 0.950 . S
C1421 C1412 1.390 . S
C1421 H1414 0.950 . S
C1421 C1418 1.387 . S
C1422 C1423 1.387 . S
C1422 H1426 0.950 . S
C1422 C1431 1.390 . S
C1423 C1422 1.387 . S
C1423 C1425 1.387 . S
H1424 C1431 0.950 . S
C1425 C1423 1.387 . S
C1425 C1427 1.390 . S
C1425 H1429 0.950 . S
H1426 C1422 0.950 . S
C1427 C1425 1.390 . S
C1427 C1428 1.387 . S
C1427 H1430 0.950 . S
C1428 C1427 1.387 . S
C1428 C1431 1.387 . S
H1429 C1425 0.950 . S
H1430 C1427 0.950 . S
C1431 C1422 1.390 . S
C1431 H1424 0.950 . S
C1431 C1428 1.387 . S
C1432 C1433 1.387 . S
C1432 H1436 0.950 . S
C1432 C1441 1.390 . S
C1433 C1432 1.387 . S
C1433 C1435 1.387 . S
H1434 C1441 0.950 . S
C1435 C1433 1.387 . S
C1435 C1437 1.390 . S
C1435 H1439 0.950 . S
H1436 C1432 0.950 . S
C1437 C1435 1.390 . S
C1437 C1438 1.387 . S
C1437 H1440 0.950 . S
C1438 C1437 1.387 . S
C1438 C1441 1.387 . S
H1439 C1435 0.950 . S
H1440 C1437 0.950 . S
C1441 C1432 1.390 . S
C1441 H1434 0.950 . S
C1441 C1438 1.387 . S
C1442 C1443 1.387 . S
C1442 H1446 0.950 . S
C1442 C1451 1.390 . S
C1443 C1442 1.387 . S
C1443 C1445 1.387 . S
H1444 C1451 0.950 . S
C1445 C1443 1.387 . S
C1445 C1447 1.390 . S
C1445 H1449 0.950 . S
H1446 C1442 0.950 . S
C1447 C1445 1.390 . S
C1447 C1448 1.387 . S
C1447 H1450 0.950 . S
C1448 C1447 1.387 . S
C1448 C1451 1.387 . S
H1449 C1445 0.950 . S
H1450 C1447 0.950 . S
C1451 C1442 1.390 . S
C1451 H1444 0.950 . S
C1451 C1448 1.387 . S
C1452 C1453 1.387 . S
C1452 H1456 0.950 . S
C1452 C1461 1.390 . S
C1453 C1452 1.387 . S
C1453 C1455 1.387 . S
H1454 C1461 0.950 . S
C1455 C1453 1.387 . S
C1455 C1457 1.390 . S
C1455 H1459 0.950 . S
H1456 C1452 0.950 . S
C1457 C1455 1.390 . S
C1457 C1458 1.387 . S
C1457 H1460 0.942 1_655 S
C1458 C1457 1.387 . S
C1458 C1461 1.387 . S
H1459 C1455 0.950 . S
H1460 C1457 0.942 1_455 S
C1461 C1452 1.390 . S
C1461 H1454 0.950 . S
C1461 C1458 1.387 . S
C1462 C1463 1.387 . S
C1462 H1466 0.950 . S
C1462 C1471 1.390 . S
C1463 C1462 1.387 . S
C1463 C1465 1.387 . S
H1464 C1471 0.950 . S
C1465 C1463 1.387 . S
C1465 C1467 1.390 . S
C1465 H1469 0.950 . S
H1466 C1462 0.950 . S
C1467 C1465 1.390 . S
C1467 C1468 1.387 . S
C1467 H1470 0.950 . S
C1468 C1467 1.387 . S
C1468 C1471 1.387 . S
H1469 C1465 0.950 . S
H1470 C1467 0.950 . S
C1471 C1462 1.390 . S
C1471 H1464 0.950 . S
C1471 C1468 1.387 . S
C1472 C1473 1.387 . S
C1472 H1476 0.950 . S
C1472 C1481 1.390 . S
C1473 C1472 1.387 . S
C1473 C1475 1.387 . S
H1474 C1481 0.950 . S
C1475 C1473 1.387 . S
C1475 C1477 1.390 . S
C1475 H1479 0.950 . S
H1476 C1472 0.950 . S
C1477 C1475 1.390 . S
C1477 C1478 1.387 . S
C1477 H1480 0.950 . S
C1478 C1477 1.387 . S
C1478 C1481 1.387 . S
H1479 C1475 0.950 . S
H1480 C1477 0.950 . S
C1481 C1472 1.390 . S
C1481 H1474 0.950 . S
C1481 C1478 1.387 . S
C1482 C1483 1.387 . S
C1482 H1486 0.950 . S
C1482 C1491 1.390 . S
C1483 C1482 1.387 . S
C1483 C1485 1.387 . S
H1484 C1491 0.950 . S
C1485 C1483 1.387 . S
C1485 C1487 1.390 . S
C1485 H1489 0.950 . S
H1486 C1482 0.950 . S
C1487 C1485 1.390 . S
C1487 C1488 1.387 . S
C1487 H1490 0.950 . S
C1488 C1487 1.387 . S
C1488 C1491 1.387 . S
H1489 C1485 0.950 . S
H1490 C1487 0.950 . S
C1491 C1482 1.390 . S
C1491 H1484 0.950 . S
C1491 C1488 1.387 . S
C1492 C1493 1.387 . S
C1492 H1496 0.950 . S
C1492 C1501 1.390 . S
C1493 C1492 1.387 . S
C1493 C1495 1.387 . S
H1494 C1501 0.950 . S
C1495 C1493 1.387 . S
C1495 C1497 1.390 . S
C1495 H1499 0.950 . S
H1496 C1492 0.950 . S
C1497 C1495 1.390 . S
C1497 C1498 1.387 . S
C1497 H1500 0.950 . S
C1498 C1497 1.387 . S
C1498 C1501 1.387 . S
H1499 C1495 0.950 . S
H1500 C1497 0.950 . S
C1501 C1492 1.390 . S
C1501 H1494 0.950 . S
C1501 C1498 1.387 . S
C1502 C1503 1.387 . S
C1502 H1506 0.950 . S
C1502 C1511 1.390 . S
C1503 C1502 1.387 . S
C1503 C1505 1.387 . S
H1504 C1511 0.950 . S
C1505 C1503 1.387 . S
C1505 C1507 1.390 . S
C1505 H1509 0.950 . S
H1506 C1502 0.950 . S
C1507 C1505 1.390 . S
C1507 C1508 1.387 . S
C1507 H1510 0.950 . S
C1508 C1507 1.387 . S
C1508 C1511 1.387 . S
H1509 C1505 0.950 . S
H1510 C1507 0.950 . S
C1511 C1502 1.390 . S
C1511 H1504 0.950 . S
C1511 C1508 1.387 . S
C1512 C1513 1.387 . S
C1512 H1516 0.950 . S
C1512 C1521 1.390 . S
C1513 C1512 1.387 . S
C1513 C1515 1.387 . S
H1514 C1521 0.950 . S
C1515 C1513 1.387 . S
C1515 C1517 1.390 . S
C1515 H1519 0.950 . S
H1516 C1512 0.950 . S
C1517 C1515 1.390 . S
C1517 C1518 1.387 . S
C1517 H1520 0.950 . S
C1518 C1517 1.387 . S
C1518 C1521 1.387 . S
H1519 C1515 0.950 . S
H1520 C1517 0.950 . S
C1521 C1512 1.390 . S
C1521 H1514 0.950 . S
C1521 C1518 1.387 . S
C1522 C1523 1.387 . S
C1522 H1526 0.950 . S
C1522 C1531 1.390 . S
C1523 C1522 1.387 . S
C1523 C1525 1.387 . S
H1524 C1531 0.950 . S
C1525 C1523 1.387 . S
C1525 C1527 1.390 . S
C1525 H1529 0.950 . S
H1526 C1522 0.950 . S
C1527 C1525 1.390 . S
C1527 C1528 1.387 . S
C1527 H1530 0.950 . S
C1528 C1527 1.387 . S
C1528 C1531 1.387 . S
H1529 C1525 0.950 . S
H1530 C1527 0.950 . S
C1531 C1522 1.390 . S
C1531 H1524 0.950 . S
C1531 C1528 1.387 . S
C1532 C1533 1.387 . S
C1532 H1536 0.950 . S
C1532 C1541 1.390 . S
C1533 C1532 1.387 . S
C1533 C1535 1.387 . S
H1534 C1541 0.950 . S
C1535 C1533 1.387 . S
C1535 C1537 1.390 . S
C1535 H1539 0.950 . S
H1536 C1532 0.950 . S
C1537 C1535 1.390 . S
C1537 C1538 1.387 . S
C1537 H1540 0.950 . S
C1538 C1537 1.387 . S
C1538 C1541 1.387 . S
H1539 C1535 0.950 . S
H1540 C1537 0.950 . S
C1541 C1532 1.390 . S
C1541 H1534 0.950 . S
C1541 C1538 1.387 . S
C1542 C1543 1.387 . S
C1542 H1546 0.950 . S
C1542 C1551 1.390 . S
C1543 C1542 1.387 . S
C1543 C1545 1.387 1_556 S
H1544 C1551 0.950 . S
C1545 C1543 1.387 1_554 S
C1545 C1547 1.390 . S
C1545 H1549 0.950 . S
H1546 C1542 0.950 . S
C1547 C1545 1.390 . S
C1547 C1548 1.387 1_554 S
C1547 H1550 0.950 . S
C1548 C1547 1.387 1_556 S
C1548 C1551 1.387 . S
H1549 C1545 0.950 . S
H1550 C1547 0.950 . S
C1551 C1542 1.390 . S
C1551 H1544 0.950 . S
C1551 C1548 1.387 . S
C1552 C1553 1.387 . S
C1552 H1556 0.950 . S
C1552 C1561 1.390 . S
C1553 C1552 1.387 . S
C1553 C1555 1.387 . S
H1554 C1561 0.950 . S
C1555 C1553 1.387 . S
C1555 C1557 1.390 . S
C1555 H1559 0.950 . S
H1556 C1552 0.950 . S
C1557 C1555 1.390 . S
C1557 C1558 1.387 . S
C1557 H1560 0.950 . S
C1558 C1557 1.387 . S
C1558 C1561 1.387 . S
H1559 C1555 0.950 . S
H1560 C1557 0.950 . S
C1561 C1552 1.390 . S
C1561 H1554 0.950 . S
C1561 C1558 1.387 . S
C1562 C1563 1.387 . S
C1562 H1566 0.950 . S
C1562 C1571 1.390 . S
C1563 C1562 1.387 . S
C1563 C1565 1.387 . S
H1564 C1571 0.950 . S
C1565 C1563 1.387 . S
C1565 C1567 1.390 1_554 S
C1565 H1569 0.950 1_554 S
H1566 C1562 0.950 . S
C1567 C1565 1.390 1_556 S
C1567 C1568 1.387 1_556 S
C1567 H1570 0.950 . S
C1568 C1567 1.387 1_554 S
C1568 C1571 1.387 . S
H1569 C1565 0.950 1_556 S
H1570 C1567 0.950 . S
C1571 C1562 1.390 . S
C1571 H1564 0.950 . S
C1571 C1568 1.387 . S
C1572 C1573 1.387 . S
C1572 H1576 0.950 . S
C1572 C1581 1.390 . S
C1573 C1572 1.387 . S
C1573 C1575 1.387 . S
H1574 C1581 0.950 . S
C1575 C1573 1.387 . S
C1575 C1577 1.390 . S
C1575 H1579 0.950 . S
H1576 C1572 0.950 . S
C1577 C1575 1.390 . S
C1577 C1578 1.387 . S
C1577 H1580 0.950 . S
C1578 C1577 1.387 . S
C1578 C1581 1.387 . S
H1579 C1575 0.950 . S
H1580 C1577 0.950 . S
C1581 C1572 1.390 . S
C1581 H1574 0.950 . S
C1581 C1578 1.387 . S
C1582 C1583 1.387 . S
C1582 H1586 0.950 . S
C1582 C1591 1.390 . S
C1583 C1582 1.387 . S
C1583 C1585 1.387 . S
H1584 C1591 0.950 . S
C1585 C1583 1.387 . S
C1585 C1587 1.390 . S
C1585 H1589 0.950 . S
H1586 C1582 0.950 . S
C1587 C1585 1.390 . S
C1587 C1588 1.387 . S
C1587 H1590 0.950 . S
C1588 C1587 1.387 . S
C1588 C1591 1.387 . S
H1589 C1585 0.950 . S
H1590 C1587 0.950 . S
C1591 C1582 1.390 . S
C1591 H1584 0.950 . S
C1591 C1588 1.387 . S
C633 C101 1.402 . S
C638 C328 1.352 1_556 S
C643 C57 1.457 . S
C648 C341 1.428 . S
C653 C70 1.382 . S
C658 C360 1.399 . S
C668 C391 1.843 . S
C663 C82 1.863 . S
C673 C23 1.681 . S
C678 C411 1.690 . S
C688 C428 1.025 . S
C683 C29 1.040 . S
C698 C441 1.517 . S
C693 C49 1.510 . S
C703 C10 1.289 . S
C708 C468 1.233 . S
C718 C321 1.386 1_655 S
C713 C218 1.387 . S
C723 C226 1.552 . S
C728 C351 1.561 . S
C738 C353 1.651 . S
C733 C251 1.733 . S
C748 C388 0.933 . S
C743 C159 0.944 . S
C753 C211 1.224 . S
C758 C408 1.213 . S
C768 C421 1.786 . S
C763 C225 1.773 . S
C778 C451 1.412 . S
C773 C252 1.410 . S
C788 C461 1.285 . S
C783 C166 1.318 . S
C798 C331 1.692 1_565 S
C793 C147 1.660 . S
C803 C263 1.703 . S
C808 C481 1.705 1_556 S
C818 C511 1.704 . S
C813 C309 1.658 . S
C828 C528 1.237 . S
C823 C291 1.268 . S
C833 C108 1.905 . S
C838 C471 1.960 . S
C843 C121 1.409 . S
C848 C358 1.369 . S
C853 C302 1.773 . S
C858 C541 1.780 . S
C868 C568 1.172 . S
C863 C276 1.214 . S
C878 C318 1.391 . S
C873 C55 1.449 . S
C888 C553 1.508 . S
C883 C96 1.538 . S
C893 C88 1.569 . S
C898 C371 1.555 . S
C903 C75 2.039 . S
C908 C540 1.972 . S
C918 C400 1.778 . S
C913 C4 1.820 . S
C923 C44 1.162 . S
C928 C498 1.146 . S
C938 C433 1.559 . S
C933 C31 1.564 . S
C948 C578 1.230 . S
C943 C18 1.282 . S
C958 C313 1.436 . S
C953 C133 1.452 . S
C968 C560 1.695 . S
C963 C296 1.726 . S
C973 C107 1.851 . S
C978 C361 1.788 . S
C983 C264 1.158 . S
C988 C538 1.152 . S
C993 C140 1.391 . S
C998 C398 1.396 . S
C1008 C493 1.846 . S
C1003 C289 1.840 . S
C1013 C114 1.590 . S
C1018 C440 1.551 . S
C1023 C265 1.402 . S
C1028 C573 1.361 . S
C1033 C179 1.804 . S
C1038 C320 1.763 . S
C1043 C161 1.807 . S
C1048 C473 1.791 . S
C1053 C244 1.818 . S
C1058 C420 1.806 . S
C1063 C224 1.444 . S
C1068 C518 1.412 . S
C1078 C580 1.974 . S
C1073 C257 1.999 . S
C1083 C199 1.475 . S
C1088 C368 1.404 . S
C1098 C373 1.879 . S
C1093 C237 1.894 . S
C1108 C338 1.277 . S
C1103 C185 1.318 . S
C1113 C69 1.406 . S
C1118 C608 1.356 . S
C1128 C561 1.427 . S
C1123 C83 1.455 . S
C1133 C94 1.382 . S
C1138 C620 1.400 1_456 S
C1143 C56 1.862 . S
C1148 C551 1.845 . S
C1153 C42 1.689 . S
C1158 C491 1.698 . S
C1168 C508 1.022 . S
C1163 C3 1.037 . S
C1178 C521 1.527 . S
C1173 C16 1.518 . S
C1188 C588 1.236 . S
C1183 C36 1.291 . S
C1198 C601 1.385 . S
C1193 C238 1.386 . S
C1203 C174 1.552 . S
C1208 C571 1.562 . S
C1218 C613 1.654 . S
C1213 C186 1.734 . S
C1228 C548 0.934 . S
C1223 C198 0.945 . S
C1238 C488 1.214 . S
C1233 C239 1.224 . S
C1243 C173 1.772 . S
C1248 C501 1.787 . S
C1258 C531 1.413 . S
C1253 C187 1.411 . S
C1263 C205 1.320 . S
C1268 C581 1.286 . S
C1278 C611 1.690 . S
C1273 C290 1.661 . S
C1283 C122 1.702 . S
C1288 C401 1.707 . S
C1298 C431 1.707 . S
C1293 C134 1.665 . S
C1308 C448 1.236 1_565 S
C1303 C148 1.265 . S
C1318 C591 1.956 . S
C1313 C283 1.904 . S
C1323 C270 1.407 . S
C1328 C618 1.368 . S
C1338 C381 1.779 . S
C1333 C135 1.768 . S
C1348 C348 1.172 . S
C1343 C109 1.213 . S
C1353 C81 1.449 . S
C1358 C598 1.391 . S
C1368 C333 1.507 . S
C1363 C68 1.537 . S
C1373 C62 1.569 . S
C1378 C631 1.556 . S
C1383 C95 2.039 . S
C1388 C380 1.971 . S
C1393 C30 1.819 . S
C1398 C480 1.779 . S
C1408 C418 1.137 . S
C1403 C17 1.155 . S
C1413 C5 1.564 . S
C1418 C513 1.561 . S
C1423 C43 1.271 . S
C1428 C458 1.221 . S
C1438 C593 1.436 . S
C1433 C304 1.451 . S
C1443 C153 1.725 . S
C1448 C340 1.695 . S
C1458 C621 1.789 . S
C1453 C278 1.851 . S
C1463 C127 1.159 . S
C1468 C378 1.148 . S
C1473 C303 1.386 . S
C1478 C478 1.384 . S
C1488 C413 1.844 . S
C1483 C146 1.840 . S
C1493 C277 1.585 . S
C1498 C520 1.550 . S
C1508 C453 1.362 . S
C1503 C120 1.401 . S
C1518 C600 1.765 . S
C1513 C231 1.803 . S
C1528 C393 1.789 . S
C1523 C200 1.806 . S
C1533 C212 1.820 . S
C1538 C500 1.805 . S
C1548 C438 1.413 1_556 S
C1543 C172 1.444 . S
C1553 C192 1.996 . S
C1558 C460 1.975 . S
C1563 C160 1.475 . S
C1568 C628 1.404 . S
C1578 C533 1.879 . S
C1573 C213 1.895 . S
C1588 C558 1.275 . S
C1583 C250 1.317 . S
