# Generated by pormake.
# Topology gar, (4,6)-cn, num edge types: 1
# Building blocks:
#     Node 0, Type 0, BuildingBlock: QUQFOY_clean_sbu_1, # of connection points: 4
#     Node 1, Type 0, BuildingBlock: QUQFOY_clean_sbu_1, # of connection points: 4
#     Node 2, Type 0, BuildingBlock: QUQFOY_clean_sbu_1, # of connection points: 4
#     Node 3, Type 0, BuildingBlock: QUQFOY_clean_sbu_1, # of connection points: 4
#     Node 4, Type 0, BuildingBlock: QUQFOY_clean_sbu_1, # of connection points: 4
#     Node 5, Type 0, BuildingBlock: QUQFOY_clean_sbu_1, # of connection points: 4
#     Node 6, Type 0, BuildingBlock: QUQFOY_clean_sbu_1, # of connection points: 4
#     Node 7, Type 0, BuildingBlock: QUQFOY_clean_sbu_1, # of connection points: 4
#     Node 8, Type 0, BuildingBlock: QUQFOY_clean_sbu_1, # of connection points: 4
#     Node 9, Type 0, BuildingBlock: QUQFOY_clean_sbu_1, # of connection points: 4
#     Node 10, Type 0, BuildingBlock: QUQFOY_clean_sbu_1, # of connection points: 4
#     Node 11, Type 0, BuildingBlock: QUQFOY_clean_sbu_1, # of connection points: 4
#     Node 12, Type 0, BuildingBlock: QUQFOY_clean_sbu_1, # of connection points: 4
#     Node 13, Type 0, BuildingBlock: QUQFOY_clean_sbu_1, # of connection points: 4
#     Node 14, Type 0, BuildingBlock: QUQFOY_clean_sbu_1, # of connection points: 4
#     Node 15, Type 0, BuildingBlock: QUQFOY_clean_sbu_1, # of connection points: 4
#     Node 16, Type 0, BuildingBlock: QUQFOY_clean_sbu_1, # of connection points: 4
#     Node 17, Type 0, BuildingBlock: QUQFOY_clean_sbu_1, # of connection points: 4
#     Node 18, Type 0, BuildingBlock: QUQFOY_clean_sbu_1, # of connection points: 4
#     Node 19, Type 0, BuildingBlock: QUQFOY_clean_sbu_1, # of connection points: 4
#     Node 20, Type 0, BuildingBlock: QUQFOY_clean_sbu_1, # of connection points: 4
#     Node 21, Type 0, BuildingBlock: QUQFOY_clean_sbu_1, # of connection points: 4
#     Node 22, Type 0, BuildingBlock: QUQFOY_clean_sbu_1, # of connection points: 4
#     Node 23, Type 0, BuildingBlock: QUQFOY_clean_sbu_1, # of connection points: 4
#     Node 24, Type 1, BuildingBlock: BETFEN_clean_sbu_0, # of connection points: 6
#     Node 25, Type 1, BuildingBlock: BETFEN_clean_sbu_0, # of connection points: 6
#     Node 26, Type 1, BuildingBlock: BETFEN_clean_sbu_0, # of connection points: 6
#     Node 27, Type 1, BuildingBlock: BETFEN_clean_sbu_0, # of connection points: 6
#     Node 28, Type 1, BuildingBlock: BETFEN_clean_sbu_0, # of connection points: 6
#     Node 29, Type 1, BuildingBlock: BETFEN_clean_sbu_0, # of connection points: 6
#     Node 30, Type 1, BuildingBlock: BETFEN_clean_sbu_0, # of connection points: 6
#     Node 31, Type 1, BuildingBlock: BETFEN_clean_sbu_0, # of connection points: 6
#     Node 32, Type 1, BuildingBlock: BETFEN_clean_sbu_0, # of connection points: 6
#     Node 33, Type 1, BuildingBlock: BETFEN_clean_sbu_0, # of connection points: 6
#     Node 34, Type 1, BuildingBlock: BETFEN_clean_sbu_0, # of connection points: 6
#     Node 35, Type 1, BuildingBlock: BETFEN_clean_sbu_0, # of connection points: 6
#     Node 36, Type 1, BuildingBlock: BETFEN_clean_sbu_0, # of connection points: 6
#     Node 37, Type 1, BuildingBlock: BETFEN_clean_sbu_0, # of connection points: 6
#     Node 38, Type 1, BuildingBlock: BETFEN_clean_sbu_0, # of connection points: 6
#     Node 39, Type 1, BuildingBlock: BETFEN_clean_sbu_0, # of connection points: 6
#     Edge 40, Type (0, 1), BuildingBlock: OJICUG_clean_linker_0, # of connection points: 2
#     Edge 41, Type (0, 1), BuildingBlock: OJICUG_clean_linker_0, # of connection points: 2
#     Edge 42, Type (0, 1), BuildingBlock: OJICUG_clean_linker_0, # of connection points: 2
#     Edge 43, Type (0, 1), BuildingBlock: OJICUG_clean_linker_0, # of connection points: 2
#     Edge 44, Type (0, 1), BuildingBlock: OJICUG_clean_linker_0, # of connection points: 2
#     Edge 45, Type (0, 1), BuildingBlock: OJICUG_clean_linker_0, # of connection points: 2
#     Edge 46, Type (0, 1), BuildingBlock: OJICUG_clean_linker_0, # of connection points: 2
#     Edge 47, Type (0, 1), BuildingBlock: OJICUG_clean_linker_0, # of connection points: 2
#     Edge 48, Type (0, 1), BuildingBlock: OJICUG_clean_linker_0, # of connection points: 2
#     Edge 49, Type (0, 1), BuildingBlock: OJICUG_clean_linker_0, # of connection points: 2
#     Edge 50, Type (0, 1), BuildingBlock: OJICUG_clean_linker_0, # of connection points: 2
#     Edge 51, Type (0, 1), BuildingBlock: OJICUG_clean_linker_0, # of connection points: 2
#     Edge 52, Type (0, 1), BuildingBlock: OJICUG_clean_linker_0, # of connection points: 2
#     Edge 53, Type (0, 1), BuildingBlock: OJICUG_clean_linker_0, # of connection points: 2
#     Edge 54, Type (0, 1), BuildingBlock: OJICUG_clean_linker_0, # of connection points: 2
#     Edge 55, Type (0, 1), BuildingBlock: OJICUG_clean_linker_0, # of connection points: 2
#     Edge 56, Type (0, 1), BuildingBlock: OJICUG_clean_linker_0, # of connection points: 2
#     Edge 57, Type (0, 1), BuildingBlock: OJICUG_clean_linker_0, # of connection points: 2
#     Edge 58, Type (0, 1), BuildingBlock: OJICUG_clean_linker_0, # of connection points: 2
#     Edge 59, Type (0, 1), BuildingBlock: OJICUG_clean_linker_0, # of connection points: 2
#     Edge 60, Type (0, 1), BuildingBlock: OJICUG_clean_linker_0, # of connection points: 2
#     Edge 61, Type (0, 1), BuildingBlock: OJICUG_clean_linker_0, # of connection points: 2
#     Edge 62, Type (0, 1), BuildingBlock: OJICUG_clean_linker_0, # of connection points: 2
#     Edge 63, Type (0, 1), BuildingBlock: OJICUG_clean_linker_0, # of connection points: 2
#     Edge 64, Type (0, 1), BuildingBlock: OJICUG_clean_linker_0, # of connection points: 2
#     Edge 65, Type (0, 1), BuildingBlock: OJICUG_clean_linker_0, # of connection points: 2
#     Edge 66, Type (0, 1), BuildingBlock: OJICUG_clean_linker_0, # of connection points: 2
#     Edge 67, Type (0, 1), BuildingBlock: OJICUG_clean_linker_0, # of connection points: 2
#     Edge 68, Type (0, 1), BuildingBlock: OJICUG_clean_linker_0, # of connection points: 2
#     Edge 69, Type (0, 1), BuildingBlock: OJICUG_clean_linker_0, # of connection points: 2
#     Edge 70, Type (0, 1), BuildingBlock: OJICUG_clean_linker_0, # of connection points: 2
#     Edge 71, Type (0, 1), BuildingBlock: OJICUG_clean_linker_0, # of connection points: 2
#     Edge 72, Type (0, 1), BuildingBlock: OJICUG_clean_linker_0, # of connection points: 2
#     Edge 73, Type (0, 1), BuildingBlock: OJICUG_clean_linker_0, # of connection points: 2
#     Edge 74, Type (0, 1), BuildingBlock: OJICUG_clean_linker_0, # of connection points: 2
#     Edge 75, Type (0, 1), BuildingBlock: OJICUG_clean_linker_0, # of connection points: 2
#     Edge 76, Type (0, 1), BuildingBlock: OJICUG_clean_linker_0, # of connection points: 2
#     Edge 77, Type (0, 1), BuildingBlock: OJICUG_clean_linker_0, # of connection points: 2
#     Edge 78, Type (0, 1), BuildingBlock: OJICUG_clean_linker_0, # of connection points: 2
#     Edge 79, Type (0, 1), BuildingBlock: OJICUG_clean_linker_0, # of connection points: 2
#     Edge 80, Type (0, 1), BuildingBlock: OJICUG_clean_linker_0, # of connection points: 2
#     Edge 81, Type (0, 1), BuildingBlock: OJICUG_clean_linker_0, # of connection points: 2
#     Edge 82, Type (0, 1), BuildingBlock: OJICUG_clean_linker_0, # of connection points: 2
#     Edge 83, Type (0, 1), BuildingBlock: OJICUG_clean_linker_0, # of connection points: 2
#     Edge 84, Type (0, 1), BuildingBlock: OJICUG_clean_linker_0, # of connection points: 2
#     Edge 85, Type (0, 1), BuildingBlock: OJICUG_clean_linker_0, # of connection points: 2
#     Edge 86, Type (0, 1), BuildingBlock: OJICUG_clean_linker_0, # of connection points: 2
#     Edge 87, Type (0, 1), BuildingBlock: OJICUG_clean_linker_0, # of connection points: 2
#     Edge 88, Type (0, 1), BuildingBlock: OJICUG_clean_linker_0, # of connection points: 2
#     Edge 89, Type (0, 1), BuildingBlock: OJICUG_clean_linker_0, # of connection points: 2
#     Edge 90, Type (0, 1), BuildingBlock: OJICUG_clean_linker_0, # of connection points: 2
#     Edge 91, Type (0, 1), BuildingBlock: OJICUG_clean_linker_0, # of connection points: 2
#     Edge 92, Type (0, 1), BuildingBlock: OJICUG_clean_linker_0, # of connection points: 2
#     Edge 93, Type (0, 1), BuildingBlock: OJICUG_clean_linker_0, # of connection points: 2
#     Edge 94, Type (0, 1), BuildingBlock: OJICUG_clean_linker_0, # of connection points: 2
#     Edge 95, Type (0, 1), BuildingBlock: OJICUG_clean_linker_0, # of connection points: 2
#     Edge 96, Type (0, 1), BuildingBlock: OJICUG_clean_linker_0, # of connection points: 2
#     Edge 97, Type (0, 1), BuildingBlock: OJICUG_clean_linker_0, # of connection points: 2
#     Edge 98, Type (0, 1), BuildingBlock: OJICUG_clean_linker_0, # of connection points: 2
#     Edge 99, Type (0, 1), BuildingBlock: OJICUG_clean_linker_0, # of connection points: 2
#     Edge 100, Type (0, 1), BuildingBlock: OJICUG_clean_linker_0, # of connection points: 2
#     Edge 101, Type (0, 1), BuildingBlock: OJICUG_clean_linker_0, # of connection points: 2
#     Edge 102, Type (0, 1), BuildingBlock: OJICUG_clean_linker_0, # of connection points: 2
#     Edge 103, Type (0, 1), BuildingBlock: OJICUG_clean_linker_0, # of connection points: 2
#     Edge 104, Type (0, 1), BuildingBlock: OJICUG_clean_linker_0, # of connection points: 2
#     Edge 105, Type (0, 1), BuildingBlock: OJICUG_clean_linker_0, # of connection points: 2
#     Edge 106, Type (0, 1), BuildingBlock: OJICUG_clean_linker_0, # of connection points: 2
#     Edge 107, Type (0, 1), BuildingBlock: OJICUG_clean_linker_0, # of connection points: 2
#     Edge 108, Type (0, 1), BuildingBlock: OJICUG_clean_linker_0, # of connection points: 2
#     Edge 109, Type (0, 1), BuildingBlock: OJICUG_clean_linker_0, # of connection points: 2
#     Edge 110, Type (0, 1), BuildingBlock: OJICUG_clean_linker_0, # of connection points: 2
#     Edge 111, Type (0, 1), BuildingBlock: OJICUG_clean_linker_0, # of connection points: 2
#     Edge 112, Type (0, 1), BuildingBlock: OJICUG_clean_linker_0, # of connection points: 2
#     Edge 113, Type (0, 1), BuildingBlock: OJICUG_clean_linker_0, # of connection points: 2
#     Edge 114, Type (0, 1), BuildingBlock: OJICUG_clean_linker_0, # of connection points: 2
#     Edge 115, Type (0, 1), BuildingBlock: OJICUG_clean_linker_0, # of connection points: 2
#     Edge 116, Type (0, 1), BuildingBlock: OJICUG_clean_linker_0, # of connection points: 2
#     Edge 117, Type (0, 1), BuildingBlock: OJICUG_clean_linker_0, # of connection points: 2
#     Edge 118, Type (0, 1), BuildingBlock: OJICUG_clean_linker_0, # of connection points: 2
#     Edge 119, Type (0, 1), BuildingBlock: OJICUG_clean_linker_0, # of connection points: 2
#     Edge 120, Type (0, 1), BuildingBlock: OJICUG_clean_linker_0, # of connection points: 2
#     Edge 121, Type (0, 1), BuildingBlock: OJICUG_clean_linker_0, # of connection points: 2
#     Edge 122, Type (0, 1), BuildingBlock: OJICUG_clean_linker_0, # of connection points: 2
#     Edge 123, Type (0, 1), BuildingBlock: OJICUG_clean_linker_0, # of connection points: 2
#     Edge 124, Type (0, 1), BuildingBlock: OJICUG_clean_linker_0, # of connection points: 2
#     Edge 125, Type (0, 1), BuildingBlock: OJICUG_clean_linker_0, # of connection points: 2
#     Edge 126, Type (0, 1), BuildingBlock: OJICUG_clean_linker_0, # of connection points: 2
#     Edge 127, Type (0, 1), BuildingBlock: OJICUG_clean_linker_0, # of connection points: 2
#     Edge 128, Type (0, 1), BuildingBlock: OJICUG_clean_linker_0, # of connection points: 2
#     Edge 129, Type (0, 1), BuildingBlock: OJICUG_clean_linker_0, # of connection points: 2
#     Edge 130, Type (0, 1), BuildingBlock: OJICUG_clean_linker_0, # of connection points: 2
#     Edge 131, Type (0, 1), BuildingBlock: OJICUG_clean_linker_0, # of connection points: 2
#     Edge 132, Type (0, 1), BuildingBlock: OJICUG_clean_linker_0, # of connection points: 2
#     Edge 133, Type (0, 1), BuildingBlock: OJICUG_clean_linker_0, # of connection points: 2
#     Edge 134, Type (0, 1), BuildingBlock: OJICUG_clean_linker_0, # of connection points: 2
#     Edge 135, Type (0, 1), BuildingBlock: OJICUG_clean_linker_0, # of connection points: 2
# Relax obj value: 0.258
# Max RMSD: 0.360
# Mean RMSD: 0.201
data_MOF--net-gar--node1-QUQFOY_clean_sbu_1--node2-BETFEN_clean_sbu_0--edge1-OJICUG_clean_linker_0
_symmetry_space_group_name_H-M    P1
_symmetry_Int_Tables_number       1
_symmetry_cell_setting            triclinic
loop_
_symmetry_equiv_pos_as_xyz
'x, y, z'
_cell_length_a     50.186891
_cell_length_b     42.731792
_cell_length_c     42.635294
_cell_angle_alpha  93.61826
_cell_angle_beta   100.41185
_cell_angle_gamma 105.68488
loop_
_atom_site_label
_atom_site_type_symbol
_atom_site_fract_x
_atom_site_fract_y
_atom_site_fract_z
_atom_type_partial_charge
O0 O 0.05023 0.29358 0.43862 0.0
Cd1 Cd 0.05114 0.3264 0.40532 0.0
Cd2 Cd 0.04166 0.36462 0.46429 0.0
O3 O 0.04884 0.32099 0.48395 0.0
O4 O 0.062 0.30317 0.3695 0.0
O5 O 0.08909 0.35041 0.39572 0.0
C6 C 0.08542 0.32622 0.37409 0.0
C7 C 0.059 0.42 0.49137 0.0
C8 C 0.05035 0.29481 0.46851 0.0
C9 C 0.99805 0.34807 0.39803 0.0
O10 O 1.0057 0.35976 0.42765 0.0
O11 O 1.01343 0.33453 0.38459 0.0
O12 O 0.03756 0.39874 0.49776 0.0
O13 O 0.07215 0.40946 0.4715 0.0
O14 O 0.08276 0.81588 0.65163 0.0
Cd15 Cd 0.09661 0.85638 0.68606 0.0
Cd16 Cd 0.12227 0.88823 0.6398 0.0
O17 O 0.10539 0.83952 0.61542 0.0
O18 O 0.0721 0.84798 0.71907 0.0
O19 O 0.07354 0.88835 0.68904 0.0
C20 C 0.06317 0.87254 0.71101 0.0
C21 C 0.11428 0.93732 0.61965 0.0
C22 C 0.09037 0.81393 0.62485 0.0
C23 C 0.16107 0.88028 0.70028 0.0
O24 O 0.15929 0.89306 0.67398 0.0
O25 O 0.13871 0.86526 0.70951 0.0
O26 O 0.13004 0.92213 0.60806 0.0
O27 O 0.10222 0.92429 0.64193 0.0
O28 O 0.60019 0.84706 0.93076 0.0
Cd29 Cd 0.57541 0.84672 0.96484 0.0
Cd30 Cd 0.54484 0.87285 0.9079 0.0
O31 O 0.57581 0.86013 0.88741 0.0
O32 O 0.59219 0.82205 0.99881 0.0
O33 O 0.55027 0.80047 0.96773 0.0
C34 C 0.57054 0.79675 0.98926 0.0
C35 C 0.49943 0.86506 0.87535 0.0
C36 C 0.5969 0.85132 0.90117 0.0
C37 C 0.56832 0.91693 0.973 0.0
O38 O 0.55721 0.91284 0.94316 0.0
O39 O 0.57535 0.89346 0.98651 0.0
O40 O 0.52111 0.88812 0.87234 0.0
O41 O 0.50349 0.84544 0.89636 0.0
O42 O 0.59066 0.30677 0.15581 0.0
Cd43 Cd 0.60345 0.34824 0.18891 0.0
Cd44 Cd 0.62942 0.37913 0.14258 0.0
O45 O 0.61255 0.33005 0.11888 0.0
O46 O 0.5782 0.34079 0.2212 0.0
O47 O 0.57931 0.37934 0.18899 0.0
C48 C 0.56869 0.36439 0.21126 0.0
C49 C 0.62035 0.42756 0.12216 0.0
C50 C 0.59796 0.30455 0.12889 0.0
C51 C 0.66794 0.37365 0.20426 0.0
O52 O 0.66643 0.38515 0.17728 0.0
O53 O 0.64545 0.35891 0.2134 0.0
O54 O 0.63625 0.41273 0.11036 0.0
O55 O 0.60879 0.41452 0.14475 0.0
O56 O 0.11006 0.83305 0.14624 0.0
Cd57 Cd 0.11517 0.87501 0.1753 0.0
Cd58 Cd 0.14112 0.90169 0.12913 0.0
O59 O 0.13048 0.85287 0.1071 0.0
O60 O 0.09004 0.85613 0.20459 0.0
O61 O 0.08348 0.89567 0.17586 0.0
C62 C 0.07507 0.87531 0.19558 0.0
C63 C 0.12524 0.94555 0.10695 0.0
C64 C 0.11821 0.8285 0.12033 0.0
C65 C 0.17734 0.90413 0.1954 0.0
O66 O 0.17667 0.91077 0.16653 0.0
O67 O 0.15449 0.89206 0.2048 0.0
O68 O 0.14633 0.93732 0.09905 0.0
O69 O 0.11269 0.92857 0.12693 0.0
O70 O 0.5905 0.8552 0.44642 0.0
Cd71 Cd 0.5677 0.85201 0.48225 0.0
Cd72 Cd 0.52873 0.87017 0.42375 0.0
O73 O 0.56164 0.86325 0.40345 0.0
O74 O 0.58997 0.83329 0.51684 0.0
O75 O 0.54673 0.80666 0.49132 0.0
C76 C 0.56914 0.80691 0.51191 0.0
C77 C 0.48424 0.86263 0.38916 0.0
C78 C 0.58496 0.85885 0.41684 0.0
C79 C 0.55311 0.91645 0.48808 0.0
O80 O 0.53883 0.90895 0.45942 0.0
O81 O 0.56526 0.89688 0.50199 0.0
O82 O 0.50553 0.88741 0.38911 0.0
O83 O 0.48817 0.84125 0.4082 0.0
O84 O 0.61979 0.33087 0.65497 0.0
Cd85 Cd 0.62692 0.37226 0.68564 0.0
Cd86 Cd 0.65106 0.39953 0.63822 0.0
O87 O 0.63709 0.3516 0.61425 0.0
O88 O 0.60164 0.35372 0.71508 0.0
O89 O 0.59582 0.39375 0.68668 0.0
C90 C 0.58683 0.37305 0.70588 0.0
C91 C 0.63441 0.44412 0.61889 0.0
C92 C 0.6255 0.32698 0.62751 0.0
C93 C 0.68973 0.39845 0.70227 0.0
O94 O 0.68809 0.40506 0.67327 0.0
O95 O 0.66743 0.38797 0.7133 0.0
O96 O 0.65365 0.43483 0.60759 0.0
O97 O 0.62466 0.42832 0.64124 0.0
O98 O 0.04955 0.29936 0.96271 0.0
Cd99 Cd 0.04621 0.33283 0.9297 0.0
Cd100 Cd 0.02509 0.35761 0.979 0.0
O101 O 0.03438 0.31883 1.00306 0.0
O102 O 0.0643 0.31685 0.89696 0.0
O103 O 0.08305 0.36505 0.92617 0.0
C104 C 0.08487 0.34335 0.90479 0.0
C105 C 0.04374 0.41297 1.00056 0.0
C106 C 0.04467 0.29782 0.99091 0.0
C107 C 0.98796 0.34349 0.91223 0.0
O108 O 0.98959 0.34993 0.9422 0.0
O109 O 1.0084 0.33661 0.90238 0.0
O110 O 1.0225 0.39381 1.0095 0.0
O111 O 0.05573 0.40025 0.98078 0.0
O112 O 0.50247 0.23425 0.28574 0.0
Cd113 Cd 0.478 0.22718 0.31974 0.0
Cd114 Cd 0.54016 0.19513 0.35002 0.0
O115 O 0.53438 0.23409 0.32736 0.0
O116 O 0.46456 0.26293 0.33347 0.0
O117 O 0.43722 0.21687 0.30282 0.0
C118 C 0.44003 0.2456 0.31708 0.0
C119 C 0.5624 0.19835 0.40236 0.0
C120 C 0.52606 0.22959 0.29704 0.0
C121 C 0.48376 0.16833 0.34145 0.0
O122 O 0.50416 0.15717 0.33774 0.0
O123 O 0.48918 0.19809 0.35245 0.0
O124 O 0.57432 0.1913 0.37951 0.0
O125 O 0.53932 0.20632 0.39535 0.0
O126 O 0.31212 0.26775 0.58778 0.0
Cd127 Cd 0.30755 0.23702 0.54702 0.0
Cd128 Cd 0.28787 0.28506 0.51843 0.0
O129 O 0.30228 0.30993 0.56595 0.0
O130 O 0.32925 0.20707 0.56523 0.0
O131 O 0.3409 0.23634 0.52636 0.0
C132 C 0.34646 0.2164 0.54638 0.0
C133 C 0.30167 0.30581 0.47058 0.0
C134 C 0.3094 0.29635 0.59078 0.0
C135 C 0.24521 0.21927 0.52069 0.0
O136 O 0.24918 0.2489 0.51458 0.0
O137 O 0.26622 0.20852 0.53049 0.0
O138 O 0.28536 0.3174 0.48522 0.0
O139 O 0.31084 0.28301 0.48325 0.0
O140 O 0.22445 0.17025 0.8528 0.0
Cd141 Cd 0.25497 0.16683 0.89008 0.0
Cd142 Cd 0.21839 0.17831 0.91638 0.0
O143 O 0.19085 0.14939 0.87788 0.0
O144 O 0.2787 0.15329 0.86376 0.0
O145 O 0.25799 0.12208 0.89734 0.0
C146 C 0.27237 0.12557 0.87489 0.0
C147 C 0.19857 0.16945 0.95974 0.0
C148 C 0.19877 0.15594 0.85209 0.0
C149 C 0.26837 0.23127 0.90938 0.0
O150 O 0.24175 0.22341 0.90653 0.0
O151 O 0.28069 0.20946 0.91503 0.0
O152 O 0.19271 0.18994 0.94065 0.0
O153 O 0.21858 0.15662 0.95637 0.0
O154 O 0.34654 0.97677 0.10383 0.0
Cd155 Cd 0.34951 1.01106 0.07239 0.0
Cd156 Cd 0.35818 0.95201 0.03575 0.0
O157 O 0.34889 0.93101 0.07857 0.0
O158 O 0.33902 0.04579 0.0975 0.0
O159 O 0.31404 0.02156 0.05009 0.0
C160 C 0.31701 0.04182 0.07513 0.0
C161 C 0.34356 0.92631 0.98088 0.0
C162 C 0.34642 0.94703 0.1039 0.0
C163 C 0.40599 1.01799 0.0543 0.0
O164 O 0.39679 0.98797 0.04251 0.0
O165 O 0.39026 0.03241 0.06612 0.0
O166 O 0.36141 0.9179 1.00201 0.0
O167 O 0.33208 0.94751 0.99125 0.0
O168 O 0.36453 0.45633 0.12341 0.0
Cd169 Cd 0.36795 0.48828 0.08865 0.0
Cd170 Cd 0.37986 0.43656 0.05707 0.0
O171 O 0.36523 0.41153 0.09535 0.0
O172 O 0.35188 0.52224 0.10533 0.0
O173 O 0.3318 0.49026 0.05974 0.0
C174 C 0.33119 0.51299 0.08084 0.0
C175 C 0.36355 0.41822 1.00141 0.0
C176 C 0.36197 0.42578 0.12113 0.0
C177 C 0.42592 0.50167 0.07307 0.0
O178 O 0.41987 0.47086 0.06558 0.0
O179 O 0.40744 0.51399 0.08129 0.0
O180 O 0.38076 0.40599 0.01947 0.0
O181 O 0.35361 0.43903 1.01534 0.0
O182 O 0.8295 0.26583 0.10043 0.0
Cd183 Cd 0.81819 0.23245 0.05975 0.0
Cd184 Cd 0.79476 0.27853 0.03257 0.0
O185 O 0.81205 0.30413 0.07982 0.0
O186 O 0.84068 0.2009 0.07021 0.0
O187 O 0.84454 0.22939 0.02914 0.0
C188 C 0.85229 0.20812 0.04602 0.0
C189 C 0.80392 0.29872 0.98326 0.0
C190 C 0.82434 0.29324 0.10405 0.0
C191 C 0.75488 0.21278 0.0399 0.0
O192 O 0.75755 0.24058 0.02955 0.0
O193 O 0.77656 0.20438 0.05217 0.0
O194 O 0.78598 0.30714 0.99771 0.0
O195 O 0.8176 0.28005 0.99723 0.0
O196 O 0.16484 0.50041 0.18997 0.0
Cd197 Cd 0.18594 0.49514 0.23521 0.0
Cd198 Cd 0.14024 0.5102 0.24328 0.0
O199 O 0.12448 0.47873 0.2026 0.0
O200 O 0.22134 0.48689 0.22946 0.0
O201 O 0.19029 0.45492 0.25349 0.0
C202 C 0.21514 0.46319 0.24658 0.0
C203 C 0.11601 0.5205 0.28114 0.0
C204 C 0.13801 0.49181 0.18214 0.0
C205 C 0.19296 0.55978 0.25697 0.0
O206 O 0.16864 0.55306 0.23924 0.0
O207 O 0.20231 0.53681 0.26668 0.0
O208 O 0.1098 0.52759 0.25231 0.0
O209 O 0.1337 0.50352 0.28741 0.0
O210 O 0.86646 0.96266 0.63202 0.0
Cd211 Cd 0.86873 0.99052 0.59409 0.0
Cd212 Cd 0.88175 0.93942 0.56598 0.0
O213 O 0.86728 0.91686 0.60585 0.0
O214 O 0.85146 0.02538 0.6048 0.0
O215 O 0.83199 0.98697 0.56347 0.0
C216 C 0.83105 1.01253 0.58059 0.0
C217 C 0.86417 0.91949 0.51074 0.0
C218 C 0.86401 0.93219 0.63108 0.0
C219 C 0.92636 1.00519 0.57801 0.0
O220 O 0.92146 0.9743 0.57241 0.0
O221 O 0.90731 1.01682 0.58551 0.0
O222 O 0.88169 0.9076 0.52876 0.0
O223 O 0.85464 0.94075 0.52458 0.0
O224 O 0.95332 0.0857 0.16339 0.0
Cd225 Cd 0.91899 0.07002 0.18588 0.0
Cd226 Cd 0.95086 0.02296 0.18676 0.0
O227 O 0.95876 0.03894 0.14552 0.0
O228 O 0.89457 0.09943 0.18003 0.0
O229 O 0.92528 0.10066 0.22525 0.0
C230 C 0.9059 0.1115 0.20947 0.0
C231 C 0.98015 0.04765 0.2342 0.0
C232 C 0.96455 0.06973 0.14622 0.0
C233 C 0.89676 0.9952 0.19699 0.0
O234 O 0.917 0.98675 0.18882 0.0
O235 O 0.89591 0.02471 0.19685 0.0
O236 O 0.98423 0.02249 0.21945 0.0
O237 O 0.95981 0.05876 0.22162 0.0
O238 O 0.32576 0.76232 0.59251 0.0
Cd239 Cd 0.31611 0.72851 0.55217 0.0
Cd240 Cd 0.29362 0.77674 0.52298 0.0
O241 O 0.31176 0.80201 0.56984 0.0
O242 O 0.33792 0.69644 0.56509 0.0
O243 O 0.34476 0.72469 0.52445 0.0
C244 C 0.35149 0.70358 0.54236 0.0
C245 C 0.30201 0.80037 0.47459 0.0
C246 C 0.32208 0.79063 0.59484 0.0
C247 C 0.25242 0.7115 0.53074 0.0
O248 O 0.2557 0.73967 0.52095 0.0
O249 O 0.2737 0.70199 0.54249 0.0
O250 O 0.28578 0.80902 0.49158 0.0
O251 O 0.31402 0.77883 0.48527 0.0
O252 O 0.45756 0.5905 0.67145 0.0
Cd253 Cd 0.42022 0.57223 0.68847 0.0
Cd254 Cd 0.45208 0.52634 0.68847 0.0
O255 O 0.4578 0.54414 0.64726 0.0
O256 O 0.39589 0.6015 0.6797 0.0
O257 O 0.42185 0.60084 0.72775 0.0
C258 C 0.40412 0.61245 0.70982 0.0
C259 C 0.48156 0.54933 0.73667 0.0
C260 C 0.46704 0.57495 0.65189 0.0
C261 C 0.3981 0.49584 0.69491 0.0
O262 O 0.41945 0.48865 0.68858 0.0
O263 O 0.39668 0.52522 0.69596 0.0
O264 O 0.48673 0.52655 0.71935 0.0
O265 O 0.45979 0.55906 0.72615 0.0
O266 O 0.67021 1.00736 0.68406 0.0
Cd267 Cd 0.68695 1.00055 0.73023 0.0
Cd268 Cd 0.63709 1.01225 0.73259 0.0
O269 O 0.62897 0.98123 0.69174 0.0
O270 O 0.72612 0.99934 0.7322 0.0
O271 O 0.69221 0.95908 0.74414 0.0
C272 C 0.71864 0.9719 0.7438 0.0
C273 C 0.6132 1.01092 0.77278 0.0
C274 C 0.64375 0.99635 0.67328 0.0
C275 C 0.68538 0.06193 0.75884 0.0
O276 O 0.6643 0.05803 0.7361 0.0
O277 O 0.69354 0.03737 0.76618 0.0
O278 O 0.60331 0.0189 0.74522 0.0
O279 O 0.63456 0.99899 0.77563 0.0
O280 O 0.80966 0.77137 0.09611 0.0
Cd281 Cd 0.80934 0.74143 0.05632 0.0
Cd282 Cd 0.78733 0.78772 0.02652 0.0
O283 O 0.79906 0.81309 0.07399 0.0
O284 O 0.83263 0.71393 0.07664 0.0
O285 O 0.84418 0.74298 0.03765 0.0
C286 C 0.85011 0.7237 0.05821 0.0
C287 C 0.80218 0.8101 0.97946 0.0
C288 C 0.80549 0.7993 0.09897 0.0
C289 C 0.74805 0.71822 0.02766 0.0
O290 O 0.75056 0.7477 0.02157 0.0
O291 O 0.7699 0.70938 0.03837 0.0
O292 O 0.78167 0.81664 0.99046 0.0
O293 O 0.81473 0.79147 0.99535 0.0
O294 O 1.00376 0.72574 0.80646 0.0
Cd295 Cd 0.97982 0.73995 0.83659 0.0
Cd296 Cd 0.024 0.72266 0.87511 0.0
O297 O 0.04476 0.73946 0.8404 0.0
O298 O 0.94406 0.73465 0.80585 0.0
O299 O 0.97003 0.78159 0.83461 0.0
C300 C 0.94693 0.76473 0.81528 0.0
C301 C 0.04838 0.7117 0.922 0.0
C302 C 0.0304 0.73065 0.81205 0.0
C303 C 0.9664 0.68349 0.86562 0.0
O304 O 0.99026 0.68253 0.86102 0.0
O305 O 0.96107 0.71055 0.86694 0.0
O306 O 0.04799 0.69699 0.89471 0.0
O307 O 0.03739 0.73568 0.92282 0.0
O308 O 0.85458 0.47026 0.61557 0.0
Cd309 Cd 0.85307 0.50412 0.58377 0.0
Cd310 Cd 0.86505 0.44785 0.54543 0.0
O311 O 0.85939 0.4264 0.58903 0.0
O312 O 0.84294 0.53953 0.60824 0.0
O313 O 0.81461 0.50944 0.56478 0.0
C314 C 0.81919 0.5323 0.58806 0.0
C315 C 0.84893 0.42175 0.49105 0.0
C316 C 0.85668 0.44123 0.61495 0.0
C317 C 0.90785 0.5176 0.56052 0.0
O318 O 0.9008 0.4875 0.54932 0.0
O319 O 0.89139 0.52936 0.57384 0.0
O320 O 0.87041 0.41718 0.50987 0.0
O321 O 0.83502 0.43891 0.50355 0.0
O322 O 0.72751 0.66006 0.35645 0.0
Cd323 Cd 0.75723 0.66357 0.39712 0.0
Cd324 Cd 0.71773 0.67923 0.41863 0.0
O325 O 0.69199 0.64833 0.38075 0.0
O326 O 0.78522 0.65477 0.37411 0.0
O327 O 0.76496 0.62121 0.40615 0.0
C328 C 0.78073 0.62695 0.38514 0.0
C329 C 0.70026 0.66859 0.46303 0.0
C330 C 0.70149 0.64728 0.35544 0.0
C331 C 0.76825 0.73007 0.41322 0.0
O332 O 0.74158 0.72343 0.40846 0.0
O333 O 0.77944 0.70794 0.42167 0.0
O334 O 0.69217 0.68841 0.44443 0.0
O335 O 0.721 0.65757 0.45833 0.0
Pr336 Pr 0.05329 0.10594 0.03544 0.0
Pr337 Pr 0.11495 0.14524 0.08005 0.0
C338 C 0.99733 0.09183 1.01237 0.0
C339 C 0.97726 0.11139 1.01495 0.0
C340 C 0.95495 0.11 0.98917 0.0
C341 C 0.93555 0.12782 0.9922 0.0
C342 C 0.93801 0.14704 0.0212 0.0
C343 C 0.9609 0.14923 0.04652 0.0
C344 C 0.9804 0.13184 0.04337 0.0
C345 C 0.09885 0.12245 1.00621 0.0
C346 C 0.07436 0.18961 0.05098 0.0
C347 C 0.17143 0.16149 0.10099 0.0
C348 C 0.19219 0.14306 0.09833 0.0
C349 C 0.2188 0.15227 0.11903 0.0
C350 C 0.23872 0.13536 0.11567 0.0
C351 C 0.23239 0.10863 0.09161 0.0
C352 C 0.20537 0.0992 0.07132 0.0
C353 C 0.18565 0.11633 0.0745 0.0
C354 C 0.06947 0.12753 0.10961 0.0
C355 C 0.09355 0.06092 0.06392 0.0
O356 O 1.00808 0.08225 0.03915 0.0
O357 O 1.01597 0.10203 0.99459 0.0
O358 O 0.09349 0.13941 0.02781 0.0
O359 O 0.07872 0.09507 0.99624 0.0
O360 O 0.10106 0.1903 0.06182 0.0
O361 O 0.05345 0.16179 0.04578 0.0
O362 O 0.15937 0.16921 0.0739 0.0
O363 O 0.15361 0.15123 0.11972 0.0
O364 O 0.07508 0.11156 0.08749 0.0
O365 O 0.08945 0.15499 0.12009 0.0
O366 O 0.06687 0.06011 0.05252 0.0
O367 O 0.11432 0.089 0.07048 0.0
H368 H 0.95226 0.09473 0.96691 0.0
H369 H 0.91805 0.12564 0.97235 0.0
H370 H 0.96349 0.16412 0.069 0.0
H371 H 0.9977 0.13397 0.06345 0.0
H372 H 0.22434 0.17285 0.13753 0.0
H373 H 0.25931 0.14379 0.13154 0.0
H374 H 0.19928 0.07847 0.05295 0.0
H375 H 0.16532 0.10881 0.05807 0.0
Pr376 Pr 0.33508 0.91019 0.30686 0.0
Pr377 Pr 0.32015 0.84524 0.27577 0.0
C378 C 0.3575 0.97376 0.32863 0.0
C379 C 0.36355 1.00464 0.31446 0.0
C380 C 0.35102 0.02877 0.32264 0.0
C381 C 0.36091 0.06042 0.31468 0.0
C382 C 0.38408 0.06844 0.2994 0.0
C383 C 0.39368 0.04295 0.28735 0.0
C384 C 0.38348 1.01133 0.29479 0.0
C385 C 0.2788 0.89012 0.2755 0.0
C386 C 0.34247 0.8992 0.2294 0.0
C387 C 0.2854 0.78759 0.2489 0.0
C388 C 0.27811 0.75533 0.26017 0.0
C389 C 0.29377 0.73326 0.2557 0.0
C390 C 0.28498 0.70165 0.26393 0.0
C391 C 0.2606 0.69211 0.27663 0.0
C392 C 0.24644 0.71484 0.28371 0.0
C393 C 0.255 0.74624 0.27531 0.0
C394 C 0.37447 0.85251 0.31047 0.0
C395 C 0.31748 0.85357 0.3535 0.0
O396 O 0.37279 0.95422 0.3238 0.0
O397 O 0.33092 0.95849 0.32702 0.0
O398 O 0.29937 0.88633 0.26403 0.0
O399 O 0.28673 0.90135 0.30576 0.0
O400 O 0.33431 0.86759 0.23102 0.0
O401 O 0.3448 0.92018 0.25481 0.0
O402 O 0.27683 0.8099 0.26343 0.0
O403 O 0.31089 0.79845 0.24307 0.0
O404 O 0.36224 0.87486 0.31115 0.0
O405 O 0.35948 0.82669 0.2911 0.0
O406 O 0.3305 0.88476 0.35366 0.0
O407 O 0.30878 0.83393 0.32628 0.0
H408 H 0.33492 0.02375 0.33698 0.0
H409 H 0.35227 0.0792 0.32323 0.0
H410 H 0.41132 0.04773 0.27527 0.0
H411 H 0.39285 0.99286 0.28718 0.0
H412 H 0.31188 0.7398 0.24442 0.0
H413 H 0.29567 0.68394 0.25779 0.0
H414 H 0.22719 0.70738 0.29292 0.0
H415 H 0.24265 0.7628 0.27927 0.0
Pr416 Pr 0.62558 0.12526 0.56842 0.0
Pr417 Pr 0.56174 0.11526 0.56596 0.0
C418 C 0.67898 0.12417 0.56873 0.0
C419 C 0.69849 0.10434 0.56675 0.0
C420 C 0.7208 0.11597 0.55103 0.0
C421 C 0.74067 0.09891 0.54952 0.0
C422 C 0.73855 0.06979 0.56365 0.0
C423 C 0.71544 0.05727 0.57818 0.0
C424 C 0.69549 0.07452 0.57979 0.0
C425 C 0.60026 0.15509 0.52095 0.0
C426 C 0.57863 0.05336 0.53626 0.0
C427 C 0.50769 0.11594 0.56194 0.0
C428 C 0.48736 0.1353 0.56129 0.0
C429 C 0.46697 0.12734 0.58025 0.0
C430 C 0.44582 0.14305 0.57862 0.0
C431 C 0.44459 0.16741 0.55809 0.0
C432 C 0.46563 0.17602 0.5397 0.0
C433 C 0.4868 0.16005 0.54123 0.0
C434 C 0.58717 0.083 0.61189 0.0
C435 C 0.60767 0.18878 0.59431 0.0
O436 O 0.66945 0.12674 0.59518 0.0
O437 O 0.66046 0.12299 0.54255 0.0
O438 O 0.58872 0.1268 0.52766 0.0
O439 O 0.62559 0.16768 0.53768 0.0
O440 O 0.55842 0.06804 0.53308 0.0
O441 O 0.60479 0.06886 0.55144 0.0
O442 O 0.51871 0.113 0.53666 0.0
O443 O 0.5251 0.11748 0.58922 0.0
O444 O 0.59851 0.11166 0.60586 0.0
O445 O 0.56116 0.07206 0.59649 0.0
O446 O 0.62889 0.17552 0.59716 0.0
O447 O 0.58146 0.17151 0.58138 0.0
H448 H 0.72317 0.13868 0.54039 0.0
H449 H 0.75809 0.10887 0.53788 0.0
H450 H 0.71345 0.03491 0.58937 0.0
H451 H 0.67812 0.06495 0.59161 0.0
H452 H 0.46695 0.10824 0.59582 0.0
H453 H 0.42988 0.1352 0.59278 0.0
H454 H 0.46571 0.19498 0.52401 0.0
H455 H 0.50244 0.16674 0.52647 0.0
Pr456 Pr 0.29904 0.35698 0.79067 0.0
Pr457 Pr 0.36185 0.36011 0.79992 0.0
C458 C 0.24474 0.35127 0.7927 0.0
C459 C 0.22549 0.35334 0.81453 0.0
C460 C 0.2123 0.37849 0.81286 0.0
C461 C 0.19183 0.37935 0.83086 0.0
C462 C 0.18397 0.35482 0.85054 0.0
C463 C 0.19804 0.33046 0.8533 0.0
C464 C 0.21868 0.32973 0.83547 0.0
C465 C 0.33003 0.40738 0.76328 0.0
C466 C 0.34292 0.38973 0.862 0.0
C467 C 0.41575 0.36174 0.79982 0.0
C468 C 0.43736 0.36068 0.78102 0.0
C469 C 0.45582 0.34211 0.79074 0.0
C470 C 0.47811 0.34229 0.77539 0.0
C471 C 0.48237 0.36097 0.74975 0.0
C472 C 0.46303 0.37854 0.73916 0.0
C473 C 0.4407 0.37846 0.75473 0.0
C474 C 0.33016 0.31235 0.83033 0.0
C475 C 0.32031 0.33361 0.72693 0.0
O476 O 0.25488 0.32601 0.79201 0.0
O477 O 0.26289 0.37878 0.78981 0.0
O478 O 0.33885 0.39927 0.79043 0.0
O479 O 0.30424 0.39071 0.7506 0.0
O480 O 0.36468 0.39154 0.84799 0.0
O481 O 0.31655 0.37606 0.84614 0.0
O482 O 0.40751 0.3883 0.80204 0.0
O483 O 0.39557 0.33459 0.79846 0.0
O484 O 0.32187 0.31831 0.80209 0.0
O485 O 0.3559 0.32948 0.84235 0.0
O486 O 0.29799 0.32906 0.74054 0.0
O487 O 0.34612 0.3473 0.74396 0.0
H488 H 0.21716 0.39693 0.79679 0.0
H489 H 0.18115 0.39821 0.82809 0.0
H490 H 0.1925 0.31145 0.8686 0.0
H491 H 0.22866 0.3102 0.83744 0.0
H492 H 0.45347 0.32811 0.81092 0.0
H493 H 0.49264 0.32877 0.78458 0.0
H494 H 0.46533 0.39266 0.7191 0.0
H495 H 0.4264 0.39263 0.7466 0.0
Pr496 Pr 0.07751 0.10207 0.51865 0.0
Pr497 Pr 0.08887 0.13388 0.57678 0.0
C498 C 0.05398 0.07552 0.45833 0.0
C499 C 0.0477 0.08782 0.42738 0.0
C500 C 0.06765 0.0932 0.4076 0.0
C501 C 0.05968 0.09837 0.37587 0.0
C502 C 0.03175 0.09794 0.36374 0.0
C503 C 1.01281 0.09658 0.38435 0.0
C504 C 1.02074 0.09144 0.41612 0.0
C505 C 0.13445 0.13853 0.53212 0.0
C506 C 0.06854 0.17763 0.52424 0.0
C507 C 0.11026 0.16013 0.63741 0.0
C508 C 0.11444 0.14591 0.66751 0.0
C509 C 0.09851 0.15013 0.69045 0.0
C510 C 0.10509 0.14081 0.72088 0.0
C511 C 0.12773 0.12756 0.72843 0.0
C512 C 0.14142 0.11978 0.70449 0.0
C513 C 0.13486 0.12899 0.67409 0.0
C514 C 0.03238 0.09487 0.56278 0.0
C515 C 0.09787 0.05856 0.57228 0.0
O516 O 0.03912 0.08045 0.47936 0.0
O517 O 0.08059 0.07942 0.47084 0.0
O518 O 0.11434 0.14944 0.53723 0.0
O519 O 0.12562 0.10752 0.52206 0.0
O520 O 0.08237 0.18017 0.55383 0.0
O521 O 0.06173 0.14909 0.50629 0.0
O522 O 0.12612 0.15582 0.61727 0.0
O523 O 0.08403 0.15676 0.62371 0.0
O524 O 0.05331 0.08556 0.55829 0.0
O525 O 0.04 0.12594 0.57261 0.0
O526 O 0.08506 0.05635 0.5422 0.0
O527 O 0.10391 0.08674 0.59063 0.0
H528 H 0.08871 0.09097 0.41578 0.0
H529 H 0.07432 0.09897 0.35993 0.0
H530 H 0.99103 0.09576 0.37503 0.0
H531 H 1.00507 0.08782 0.43104 0.0
H532 H 0.08228 0.16253 0.68555 0.0
H533 H 0.09471 0.14734 0.73943 0.0
H534 H 0.15934 0.11009 0.71033 0.0
H535 H 0.14707 0.12475 0.65659 0.0
Pr536 Pr 0.3164 0.8296 0.78969 0.0
Pr537 Pr 0.34264 0.90247 0.77786 0.0
C538 C 0.30038 0.76396 0.78272 0.0
C539 C 0.31386 0.73936 0.77272 0.0
C540 C 0.32849 0.72485 0.79608 0.0
C541 C 0.34447 0.70491 0.78736 0.0
C542 C 0.34588 0.69878 0.75503 0.0
C543 C 0.33022 0.71217 0.73154 0.0
C544 C 0.31437 0.73221 0.74028 0.0
C545 C 0.31976 0.86946 0.84653 0.0
C546 C 0.38698 0.86229 0.80828 0.0
C547 C 0.35932 0.96765 0.78445 0.0
C548 C 0.34596 0.98964 0.79837 0.0
C549 C 0.35188 0.02216 0.79206 0.0
C550 C 0.33699 0.04211 0.8033 0.0
C551 C 0.31591 0.02952 0.82067 0.0
C552 C 0.30993 0.99672 0.82662 0.0
C553 C 0.32487 0.97688 0.8155 0.0
C554 C 0.34076 0.86284 0.72179 0.0
C555 C 0.27199 0.87152 0.76186 0.0
O556 O 0.29143 0.78095 0.7607 0.0
O557 O 0.31302 0.78174 0.81017 0.0
O558 O 0.3272 0.87949 0.8211 0.0
O559 O 0.3091 0.83796 0.8421 0.0
O560 O 0.38356 0.89108 0.80263 0.0
O561 O 0.3655 0.83522 0.80236 0.0
O562 O 0.37067 0.95069 0.80468 0.0
O563 O 0.34387 0.95017 0.75785 0.0
O564 O 0.33263 0.85268 0.74684 0.0
O565 O 0.35152 0.89429 0.72634 0.0
O566 O 0.27474 0.84226 0.76717 0.0
O567 O 0.294 0.8979 0.76701 0.0
H568 H 0.3283 0.72974 0.82128 0.0
H569 H 0.3563 0.69506 0.80607 0.0
H570 H 0.33018 0.70717 0.70631 0.0
H571 H 0.30296 0.74254 0.72162 0.0
H572 H 0.36775 0.03197 0.7783 0.0
H573 H 0.34221 0.06748 0.79871 0.0
H574 H 0.29353 0.98634 0.83953 0.0
H575 H 0.31969 0.95141 0.8198 0.0
Pr576 Pr 0.59253 0.10178 0.08647 0.0
Pr577 Pr 0.57336 0.11931 0.02003 0.0
C578 C 0.60323 0.10227 0.15045 0.0
C579 C 0.59284 0.1192 0.17423 0.0
C580 C 0.5958 0.11208 0.20607 0.0
C581 C 0.58397 0.12733 0.22771 0.0
C582 C 0.56888 0.14945 0.21742 0.0
C583 C 0.5661 0.15637 0.18544 0.0
C584 C 0.57793 0.14133 0.16405 0.0
C585 C 0.58957 0.0464 0.04499 0.0
C586 C 0.52363 0.08221 0.05484 0.0
C587 C 0.56245 0.12196 0.95661 0.0
C588 C 0.57036 0.10554 0.93039 0.0
C589 C 0.5667 0.11582 0.89986 0.0
C590 C 0.57449 0.09997 0.87493 0.0
C591 C 0.58585 0.07358 0.88034 0.0
C592 C 0.59037 0.06423 0.9114 0.0
C593 C 0.58279 0.08024 0.9363 0.0
C594 C 0.5756 0.17376 0.06244 0.0
C595 C 0.64206 0.13755 0.04875 0.0
O596 O 0.62057 0.12131 0.13539 0.0
O597 O 0.58348 0.07915 0.13119 0.0
O598 O 0.58362 0.0719 0.03547 0.0
O599 O 0.59911 0.05059 0.07563 0.0
O600 O 0.53052 0.08628 0.02682 0.0
O601 O 0.54298 0.09134 0.08174 0.0
O602 O 0.54459 0.10304 0.97119 0.0
O603 O 0.58373 0.14282 0.97629 0.0
O604 O 0.58163 0.14819 0.07103 0.0
O605 O 0.56558 0.17011 0.03198 0.0
O606 O 0.63644 0.1318 0.07723 0.0
O607 O 0.62188 0.12996 0.02279 0.0
H608 H 0.60695 0.09462 0.21403 0.0
H609 H 0.58627 0.12155 0.25225 0.0
H610 H 0.55501 0.17373 0.17699 0.0
H611 H 0.57524 0.1468 0.13938 0.0
H612 H 0.5578 0.13594 0.89532 0.0
H613 H 0.57152 0.10827 0.8514 0.0
H614 H 0.59908 0.04404 0.91631 0.0
H615 H 0.58639 0.07275 0.96013 0.0
Pr616 Pr 0.29786 0.32949 0.2763 0.0
Pr617 Pr 0.35696 0.38463 0.30192 0.0
C618 C 0.2424 0.29726 0.26617 0.0
C619 C 0.21928 0.30106 0.28171 0.0
C620 C 0.19115 0.28968 0.26486 0.0
C621 C 0.16924 0.29479 0.27885 0.0
C622 C 0.17504 0.31148 0.31002 0.0
C623 C 0.20338 0.32299 0.32672 0.0
C624 C 0.22525 0.31788 0.31269 0.0
C625 C 0.3258 0.35743 0.22824 0.0
C626 C 0.30076 0.40584 0.3 0.0
C627 C 0.41081 0.41895 0.30238 0.0
C628 C 0.4342 0.4129 0.28811 0.0
C629 C 0.45933 0.41211 0.30846 0.0
C630 C 0.48111 0.40463 0.2959 0.0
C631 C 0.47848 0.39797 0.26255 0.0
C632 C 0.45345 0.39918 0.2421 0.0
C633 C 0.4315 0.40638 0.25471 0.0
C634 C 0.33669 0.35747 0.35543 0.0
C635 C 0.35316 0.30771 0.28673 0.0
O636 O 0.26203 0.2868 0.28322 0.0
O637 O 0.25264 0.32131 0.25024 0.0
O638 O 0.32412 0.37229 0.25409 0.0
O639 O 0.31191 0.32656 0.226 0.0
O640 O 0.32732 0.41775 0.29736 0.0
O641 O 0.28981 0.37463 0.30277 0.0
O642 O 0.38901 0.42357 0.2832 0.0
O643 O 0.4036 0.40093 0.32483 0.0
O644 O 0.32526 0.34962 0.32599 0.0
O645 O 0.35876 0.38262 0.35802 0.0
O646 O 0.32688 0.2967 0.29018 0.0
O647 O 0.36295 0.33713 0.27856 0.0
H648 H 0.18615 0.27711 0.24073 0.0
H649 H 0.14778 0.28604 0.26502 0.0
H650 H 0.2087 0.33557 0.35085 0.0
H651 H 0.24688 0.32721 0.326 0.0
H652 H 0.46202 0.41697 0.33426 0.0
H653 H 0.50016 0.40428 0.31235 0.0
H654 H 0.45057 0.39384 0.21633 0.0
H655 H 0.41231 0.40641 0.23832 0.0
Pr656 Pr 0.58266 0.59413 0.02372 0.0
Pr657 Pr 0.59377 0.62352 0.08362 0.0
C658 C 0.55944 0.56902 0.96276 0.0
C659 C 0.55382 0.58063 0.93131 0.0
C660 C 0.57379 0.58427 0.91161 0.0
C661 C 0.56637 0.58923 0.87968 0.0
C662 C 0.53883 0.59018 0.86702 0.0
C663 C 0.51988 0.59002 0.88755 0.0
C664 C 0.5273 0.58513 0.91949 0.0
C665 C 0.63981 0.63077 0.03887 0.0
C666 C 0.5777 0.67087 0.03247 0.0
C667 C 0.61213 0.64779 0.14529 0.0
C668 C 0.61516 0.63264 0.17482 0.0
C669 C 0.60776 0.64574 0.20169 0.0
C670 C 0.61454 0.63473 0.23123 0.0
C671 C 0.62905 0.61082 0.23398 0.0
C672 C 0.63336 0.59505 0.20633 0.0
C673 C 0.62647 0.60597 0.1768 0.0
C674 C 0.53659 0.58705 0.0662 0.0
C675 C 0.60236 0.54863 0.07605 0.0
O676 O 0.54467 0.5752 0.98341 0.0
O677 O 0.58578 0.57187 0.9757 0.0
O678 O 0.61955 0.64081 0.04482 0.0
O679 O 0.63105 0.60026 0.02683 0.0
O680 O 0.5924 0.67146 0.0613 0.0
O681 O 0.56804 0.64262 1.01372 0.0
O682 O 0.62919 0.64432 0.12633 0.0
O683 O 0.5862 0.64396 0.13027 0.0
O684 O 0.5572 0.57679 0.06219 0.0
O685 O 0.54505 0.61789 0.07706 0.0
O686 O 0.58905 0.54728 0.04629 0.0
O687 O 0.60932 0.57647 0.09502 0.0
H688 H 0.59455 0.58135 0.92022 0.0
H689 H 0.58142 0.5898 0.86427 0.0
H690 H 0.49846 0.59063 0.87832 0.0
H691 H 0.51159 0.58276 0.93428 0.0
H692 H 0.59843 0.66584 0.20025 0.0
H693 H 0.61117 0.64739 0.25234 0.0
H694 H 0.64446 0.57651 0.20804 0.0
H695 H 0.63175 0.59499 0.15607 0.0
Pr696 Pr 0.82138 0.32538 0.30071 0.0
Pr697 Pr 0.84919 0.39911 0.29107 0.0
C698 C 0.80514 0.25984 0.29311 0.0
C699 C 0.81795 0.23574 0.28085 0.0
C700 C 0.82754 0.21513 0.30166 0.0
C701 C 0.84354 0.19562 0.29205 0.0
C702 C 0.85011 0.19636 0.26139 0.0
C703 C 0.83977 0.21629 0.24025 0.0
C704 C 0.82379 0.23574 0.24987 0.0
C705 C 0.823 0.36485 0.35714 0.0
C706 C 0.89156 0.35764 0.32398 0.0
C707 C 0.86631 0.46447 0.29812 0.0
C708 C 0.85292 0.48749 0.31015 0.0
C709 C 0.86326 0.52083 0.30783 0.0
C710 C 0.8495 0.54244 0.3184 0.0
C711 C 0.82516 0.53075 0.33116 0.0
C712 C 0.81458 0.4971 0.33276 0.0
C713 C 0.82845 0.4756 0.3224 0.0
C714 C 0.84764 0.3603 0.23448 0.0
C715 C 0.77836 0.36787 0.27098 0.0
O716 O 0.79478 0.2771 0.27234 0.0
O717 O 0.81956 0.27724 0.32021 0.0
O718 O 0.83151 0.37472 0.33226 0.0
O719 O 0.81098 0.33358 0.35198 0.0
O720 O 0.8885 0.38697 0.32021 0.0
O721 O 0.87041 0.33062 0.3139 0.0
O722 O 0.87592 0.44724 0.31939 0.0
O723 O 0.85198 0.44706 0.27106 0.0
O724 O 0.83903 0.34977 0.25915 0.0
O725 O 0.85925 0.39159 0.23994 0.0
O726 O 0.78096 0.33841 0.27544 0.0
O727 O 0.8003 0.39448 0.27827 0.0
H728 H 0.82343 0.21491 0.32575 0.0
H729 H 0.85131 0.18058 0.30888 0.0
H730 H 0.84393 0.21679 0.2162 0.0
H731 H 0.81649 0.25121 0.23323 0.0
H732 H 0.88193 0.5301 0.29797 0.0
H733 H 0.85824 0.56834 0.31719 0.0
H734 H 0.79561 0.48741 0.34196 0.0
H735 H 0.82006 0.44966 0.3238 0.0
Pr736 Pr 0.08927 0.61419 0.58326 0.0
Pr737 Pr 0.0718 0.62747 0.52332 0.0
C738 C 0.09664 0.60968 0.64688 0.0
C739 C 0.086 0.62474 0.67198 0.0
C740 C 0.1015 0.63173 0.70359 0.0
C741 C 0.09297 0.64932 0.7267 0.0
C742 C 0.06866 0.66005 0.71853 0.0
C743 C 0.05281 0.6521 0.6869 0.0
C744 C 0.06155 0.6349 0.66382 0.0
C745 C 0.08685 0.55947 0.54018 0.0
C746 C 1.02106 0.59301 0.55421 0.0
C747 C 0.06352 0.63695 0.46102 0.0
C748 C 0.07226 0.62184 0.43459 0.0
C749 C 0.06092 0.62454 0.40282 0.0
C750 C 0.06815 0.60813 0.37778 0.0
C751 C 0.08703 0.58908 0.38433 0.0
C752 C 0.09879 0.58719 0.41638 0.0
C753 C 0.0912 0.60313 0.44127 0.0
C754 C 0.07217 0.67984 0.56776 0.0
C755 C 0.13989 0.64271 0.54739 0.0
O756 O 0.11479 0.63005 0.63409 0.0
O757 O 0.0777 0.58791 0.62554 0.0
O758 O 0.06862 0.57514 0.5382 0.0
O759 O 0.10783 0.57309 0.56395 0.0
O760 O 0.02899 0.59211 0.52673 0.0
O761 O 0.04018 0.60772 0.58007 0.0
O762 O 0.04457 0.61708 0.47327 0.0
O763 O 0.08416 0.65597 0.48279 0.0
O764 O 0.09161 0.66611 0.56852 0.0
O765 O 0.05094 0.66512 0.54478 0.0
O766 O 0.134 0.64344 0.57612 0.0
O767 O 0.11914 0.63015 0.52255 0.0
H768 H 0.1206 0.62437 0.7102 0.0
H769 H 0.10591 0.65528 0.75071 0.0
H770 H 0.03366 0.65923 0.67982 0.0
H771 H 0.04939 0.63005 0.63947 0.0
H772 H 0.0461 0.63874 0.39741 0.0
H773 H 0.05841 0.60977 0.35336 0.0
H774 H 0.1138 0.57334 0.42232 0.0
H775 H 0.09987 0.60047 0.46576 0.0
Pr776 Pr 0.79662 0.86508 0.2992 0.0
Pr777 Pr 0.85904 0.86491 0.30593 0.0
C778 C 0.74258 0.86226 0.30046 0.0
C779 C 0.72114 0.86215 0.31998 0.0
C780 C 0.70951 0.88856 0.32017 0.0
C781 C 0.68765 0.8884 0.33627 0.0
C782 C 0.67676 0.86164 0.35231 0.0
C783 C 0.68866 0.83535 0.35254 0.0
C784 C 0.71072 0.8356 0.33653 0.0
C785 C 0.82922 0.91595 0.27322 0.0
C786 C 0.84117 0.8912 0.37097 0.0
C787 C 0.91234 0.86516 0.30411 0.0
C788 C 0.93352 0.86563 0.28441 0.0
C789 C 0.95202 0.84663 0.29195 0.0
C790 C 0.97315 0.84703 0.2747 0.0
C791 C 0.97611 0.86636 0.24932 0.0
C792 C 0.95697 0.88479 0.24127 0.0
C793 C 0.93582 0.88442 0.25871 0.0
C794 C 0.82736 0.81627 0.33489 0.0
C795 C 0.81557 0.84094 0.23403 0.0
O796 O 0.75092 0.83601 0.29635 0.0
O797 O 0.76268 0.88963 0.30264 0.0
O798 O 0.83784 0.90573 0.29924 0.0
O799 O 0.80291 0.90132 0.26104 0.0
O800 O 0.86261 0.89315 0.35631 0.0
O801 O 0.81457 0.87938 0.35518 0.0
O802 O 0.90531 0.89205 0.30999 0.0
O803 O 0.89128 0.8384 0.29999 0.0
O804 O 0.8179 0.8244 0.30792 0.0
O805 O 0.85384 0.83107 0.34559 0.0
O806 O 0.79395 0.83661 0.24874 0.0
O807 O 0.84181 0.85426 0.24994 0.0
H808 H 0.71696 0.90915 0.30725 0.0
H809 H 0.67874 0.90884 0.33541 0.0
H810 H 0.68088 0.81459 0.36508 0.0
H811 H 0.71929 0.81489 0.33676 0.0
H812 H 0.95042 0.83181 0.31163 0.0
H813 H 0.98767 0.83289 0.28198 0.0
H814 H 0.95835 0.89952 0.22154 0.0
H815 H 0.92147 0.8989 0.25228 0.0
Pr816 Pr 0.84658 0.39738 0.81447 0.0
Pr817 Pr 0.83401 0.3358 0.7864 0.0
C818 C 0.87102 0.45999 0.83732 0.0
C819 C 0.87437 0.49197 0.82553 0.0
C820 C 0.85777 0.51168 0.83373 0.0
C821 C 0.86601 0.54502 0.831 0.0
C822 C 0.89099 0.55857 0.82047 0.0
C823 C 0.90478 0.53813 0.80726 0.0
C824 C 0.89665 0.50487 0.81002 0.0
C825 C 0.79018 0.3806 0.78207 0.0
C826 C 0.85473 0.38801 0.73821 0.0
C827 C 0.81308 0.27234 0.76374 0.0
C828 C 0.79741 0.24361 0.77602 0.0
C829 C 0.80301 0.21378 0.76992 0.0
C830 C 0.78598 0.18545 0.77831 0.0
C831 C 0.76313 0.18687 0.79257 0.0
C832 C 0.75894 0.21714 0.80088 0.0
C833 C 0.7762 0.24551 0.79287 0.0
C834 C 0.89015 0.35586 0.82165 0.0
C835 C 0.82348 0.34427 0.86045 0.0
O836 O 0.88481 0.44121 0.82628 0.0
O837 O 0.84572 0.44423 0.84087 0.0
O838 O 0.80987 0.37364 0.77076 0.0
O839 O 0.79909 0.39416 0.81156 0.0
O840 O 0.84297 0.3568 0.73885 0.0
O841 O 0.86066 0.40829 0.76486 0.0
O842 O 0.7996 0.29397 0.75661 0.0
O843 O 0.83924 0.28515 0.7787 0.0
O844 O 0.86879 0.35941 0.83128 0.0
O845 O 0.88341 0.34439 0.79144 0.0
O846 O 0.84194 0.37281 0.86135 0.0
O847 O 0.81247 0.32643 0.83225 0.0
H848 H 0.84011 0.50207 0.84511 0.0
H849 H 0.85516 0.56063 0.84116 0.0
H850 H 0.92413 0.54847 0.79895 0.0
H851 H 0.90948 0.4901 0.80284 0.0
H852 H 0.81963 0.21219 0.75737 0.0
H853 H 0.78931 0.16218 0.77139 0.0
H854 H 0.74138 0.21855 0.81188 0.0
H855 H 0.77206 0.26862 0.79841 0.0
Pr856 Pr 0.79842 0.83994 0.7878 0.0
Pr857 Pr 0.85803 0.89619 0.81308 0.0
C858 C 0.74309 0.80816 0.78097 0.0
C859 C 0.72102 0.81278 0.79822 0.0
C860 C 0.69371 0.8104 0.78117 0.0
C861 C 0.67329 0.81679 0.79721 0.0
C862 C 0.67979 0.82584 0.8307 0.0
C863 C 0.70733 0.82843 0.84754 0.0
C864 C 0.72759 0.82192 0.83152 0.0
C865 C 0.82478 0.86802 0.73888 0.0
C866 C 0.80175 0.91647 0.80973 0.0
C867 C 0.91208 0.92963 0.81356 0.0
C868 C 0.93455 0.9233 0.79775 0.0
C869 C 0.95993 0.92143 0.81679 0.0
C870 C 0.98071 0.91328 0.80273 0.0
C871 C 0.97682 0.90718 0.76917 0.0
C872 C 0.95154 0.90936 0.75003 0.0
C873 C 0.93054 0.91707 0.76414 0.0
C874 C 0.83852 0.86602 0.86607 0.0
C875 C 0.85529 0.82107 0.79223 0.0
O876 O 0.76327 0.79758 0.79683 0.0
O877 O 0.75249 0.83153 0.76388 0.0
O878 O 0.82426 0.88296 0.76535 0.0
O879 O 0.81007 0.83741 0.7364 0.0
O880 O 0.82844 0.92938 0.80818 0.0
O881 O 0.79257 0.8859 0.81569 0.0
O882 O 0.89043 0.93608 0.79582 0.0
O883 O 0.90479 0.91042 0.83511 0.0
O884 O 0.827 0.85964 0.83663 0.0
O885 O 0.8612 0.89043 0.86917 0.0
O886 O 0.82968 0.80829 0.79753 0.0
O887 O 0.86316 0.85102 0.78492 0.0
H888 H 0.68821 0.80378 0.75539 0.0
H889 H 0.65232 0.81425 0.7834 0.0
H890 H 0.71346 0.83598 0.87317 0.0
H891 H 0.74855 0.82436 0.84517 0.0
H892 H 0.96354 0.92587 0.84273 0.0
H893 H 0.99998 0.91201 0.81814 0.0
H894 H 0.94775 0.90441 0.72413 0.0
H895 H 0.91106 0.91774 0.74874 0.0
Pr896 Pr 0.56041 0.60394 0.5476 0.0
Pr897 Pr 0.62228 0.64169 0.59355 0.0
C898 C 0.50429 0.59181 0.52492 0.0
C899 C 0.48363 0.61114 0.52604 0.0
C900 C 0.46431 0.61256 0.49816 0.0
C901 C 0.44386 0.62933 0.49953 0.0
C902 C 0.44204 0.64479 0.52894 0.0
C903 C 0.46201 0.64421 0.55658 0.0
C904 C 0.48256 0.62782 0.55514 0.0
C905 C 0.60664 0.61887 0.51933 0.0
C906 C 0.5843 0.68815 0.56336 0.0
C907 C 0.67836 0.65626 0.61551 0.0
C908 C 0.69851 0.63708 0.61264 0.0
C909 C 0.72288 0.6418 0.63658 0.0
C910 C 0.74218 0.62399 0.63344 0.0
C911 C 0.73721 0.60085 0.60648 0.0
C912 C 0.71248 0.59564 0.5829 0.0
C913 C 0.69338 0.61366 0.58587 0.0
C914 C 0.57604 0.62611 0.62197 0.0
C915 C 0.59957 0.55768 0.57655 0.0
O916 O 0.51499 0.58309 0.55219 0.0
O917 O 0.52295 0.6007 0.50685 0.0
O918 O 0.60162 0.63609 0.54105 0.0
O919 O 0.58562 0.59243 0.50841 0.0
O920 O 0.61023 0.68811 0.57699 0.0
O921 O 0.56305 0.66067 0.55534 0.0
O922 O 0.66711 0.66529 0.58868 0.0
O923 O 0.66009 0.64588 0.63371 0.0
O924 O 0.58139 0.60951 0.60005 0.0
O925 O 0.59673 0.6528 0.63292 0.0
O926 O 0.5731 0.55744 0.56465 0.0
O927 O 0.62074 0.5853 0.58389 0.0
H928 H 0.4647 0.60017 0.47536 0.0
H929 H 0.42883 0.62923 0.47779 0.0
H930 H 0.46161 0.65631 0.57953 0.0
H931 H 0.49738 0.62782 0.57702 0.0
H932 H 0.72708 0.65944 0.65757 0.0
H933 H 0.76098 0.62822 0.65209 0.0
H934 H 0.70825 0.57816 0.56179 0.0
H935 H 0.67468 0.60945 0.56707 0.0
Pr936 Pr 0.12323 0.62494 0.07248 0.0
Pr937 Pr 0.05978 0.61453 0.07343 0.0
C938 C 0.17661 0.62324 0.07307 0.0
C939 C 0.19576 0.6023 0.07301 0.0
C940 C 0.20807 0.59975 0.0462 0.0
C941 C 0.22832 0.58279 0.04641 0.0
C942 C 0.23692 0.56824 0.0736 0.0
C943 C 0.22396 0.56994 0.10009 0.0
C944 C 0.2036 0.58683 0.09983 0.0
C945 C 0.09513 0.65298 0.02568 0.0
C946 C 0.07535 0.55294 0.04049 0.0
C947 C 1.00624 0.61586 0.07221 0.0
C948 C 0.98685 0.63638 0.07191 0.0
C949 C 0.96585 0.62863 0.09009 0.0
C950 C 0.94579 0.64588 0.08898 0.0
C951 C 0.94632 0.67157 0.06975 0.0
C952 C 0.96797 0.67991 0.05216 0.0
C953 C 0.98808 0.66245 0.05322 0.0
C954 C 0.08631 0.58172 0.11762 0.0
C955 C 0.10516 0.68961 0.09661 0.0
O956 O 0.16763 0.62882 0.09936 0.0
O957 O 0.15778 0.62063 0.04673 0.0
O958 O 0.08487 0.62494 0.03356 0.0
O959 O 0.12109 0.66638 0.04035 0.0
O960 O 0.05501 0.56721 0.04012 0.0
O961 O 0.10208 0.56862 0.05368 0.0
O962 O 1.01584 0.61132 0.04616 0.0
O963 O 0.0247 0.61825 0.09886 0.0
O964 O 0.09793 0.61043 0.11166 0.0
O965 O 0.05993 0.57143 0.1035 0.0
O966 O 0.1268 0.67706 0.09846 0.0
O967 O 0.07889 0.67111 0.08646 0.0
H968 H 0.20261 0.61172 0.02532 0.0
H969 H 0.23808 0.58227 0.02578 0.0
H970 H 0.2299 0.55862 0.12125 0.0
H971 H 0.19453 0.58837 0.12087 0.0
H972 H 0.96453 0.6086 0.10467 0.0
H973 H 0.9293 0.63824 0.10247 0.0
H974 H 0.96936 0.69983 0.03749 0.0
H975 H 1.00431 0.66905 0.03919 0.0
C976 C 0.07918 0.26651 1.00926 0.0
C977 C 0.05291 0.27228 1.00971 0.0
H978 H 0.10685 0.23697 0.02285 0.0
C979 C 0.03447 0.25204 0.02624 0.0
H980 H 0.09386 0.28157 0.99669 0.0
C981 C 0.04161 0.22566 0.04052 0.0
C982 C 0.06783 0.21975 0.03971 0.0
H983 H 1.01401 0.25566 0.02684 0.0
H984 H 0.02643 0.20957 0.05178 0.0
C985 C 0.08672 0.24103 0.02447 0.0
C986 C 0.2066 0.90364 0.24979 0.0
C987 C 0.20454 0.90465 0.21651 0.0
H988 H 0.23165 0.89823 0.2945 0.0
C989 C 0.2273 0.9012 0.20298 0.0
H990 H 0.18936 0.90595 0.26094 0.0
C991 C 0.25112 0.89582 0.22204 0.0
C992 C 0.25298 0.89435 0.2552 0.0
H993 H 0.22626 0.90129 0.17739 0.0
H994 H 0.26811 0.89287 0.21076 0.0
C995 C 0.23068 0.89887 0.26896 0.0
C996 C 0.53949 0.96861 0.49254 0.0
C997 C 0.55806 0.95027 0.50346 0.0
H998 H 0.53132 1.01532 0.49426 0.0
C999 C 0.58298 0.96591 0.52614 0.0
H1000 H 0.52011 0.95731 0.47504 0.0
C1001 C 0.58969 0.99939 0.53664 0.0
C1002 C 0.57145 1.01789 0.52503 0.0
H1003 H 0.59786 0.95261 0.5348 0.0
H1004 H 0.60926 1.01079 0.55379 0.0
C1005 C 0.54598 1.00193 0.5034 0.0
C1006 C 0.54448 0.33987 0.72373 0.0
C1007 C 0.55963 0.37 0.71574 0.0
H1008 H 0.50758 0.31285 0.73898 0.0
C1009 C 0.54829 0.39657 0.71672 0.0
H1010 H 0.55241 0.31872 0.72241 0.0
C1011 C 0.5228 0.39344 0.72693 0.0
C1012 C 0.5079 0.36348 0.73575 0.0
H1013 H 0.55951 0.42001 0.7105 0.0
H1014 H 0.51531 0.41484 0.72891 0.0
C1015 C 0.51878 0.33654 0.73326 0.0
C1016 C 0.11444 0.97631 0.57712 0.0
C1017 C 0.11056 0.96879 0.60799 0.0
H1018 H 0.11311 1.00984 0.54167 0.0
C1019 C 0.10351 0.99195 0.62759 0.0
H1020 H 0.11994 0.95929 0.56131 0.0
C1021 C 0.10056 0.02165 0.61666 0.0
C1022 C 0.10367 0.02863 0.58543 0.0
H1023 H 0.10052 0.98725 0.65157 0.0
H1024 H 0.09499 0.03872 0.63235 0.0
C1025 C 0.11058 1.00542 0.56585 0.0
C1026 C 0.46639 0.88902 0.8401 0.0
C1027 C 0.4708 0.86267 0.85637 0.0
H1028 H 0.43686 0.90954 0.81236 0.0
C1029 C 0.44753 0.83508 0.85513 0.0
H1030 H 0.48374 0.91072 0.84056 0.0
C1031 C 0.4204 0.83421 0.83847 0.0
C1032 C 0.41592 0.86113 0.82312 0.0
H1033 H 0.45022 0.81431 0.86731 0.0
H1034 H 0.40283 0.81289 0.83845 0.0
C1035 C 0.43937 0.88835 0.82391 0.0
C1036 C 0.6144 0.25788 0.10836 0.0
C1037 C 0.59205 0.27118 0.11133 0.0
H1038 H 0.62668 0.21608 0.09201 0.0
C1039 C 0.56417 0.251 0.10043 0.0
H1040 H 0.6361 0.27256 0.11713 0.0
C1041 C 0.55881 0.21884 0.08563 0.0
C1042 C 0.58115 0.20548 0.08281 0.0
H1043 H 0.54651 0.26031 0.10283 0.0
H1044 H 0.53713 0.20444 0.07613 0.0
C1045 C 0.60901 0.22533 0.09457 0.0
C1046 C 0.13326 0.34891 0.36048 0.0
C1047 C 0.10778 0.32371 0.35628 0.0
H1048 H 0.17421 0.3652 0.34879 0.0
C1049 C 0.10427 0.29502 0.33594 0.0
H1050 H 0.13663 0.37135 0.3759 0.0
C1051 C 0.12588 0.29129 0.32075 0.0
C1052 C 0.15161 0.31621 0.3253 0.0
H1053 H 0.085 0.275 0.33227 0.0
H1054 H 0.12264 0.26842 0.30609 0.0
C1055 C 0.1549 0.34524 0.34512 0.0
C1056 C 1.00373 0.1203 0.14394 0.0
C1057 C 0.9895 0.08684 0.13407 0.0
H1058 H 0.04105 0.16005 0.14428 0.0
C1059 C 1.00188 0.06804 0.11654 0.0
H1060 H 0.99477 0.13527 0.15796 0.0
C1061 C 0.02826 0.08166 0.11018 0.0
C1062 C 0.04272 0.11484 0.11996 0.0
H1063 H 0.9917 0.04225 0.1087 0.0
H1064 H 0.03731 0.0658 0.0974 0.0
C1065 C 0.03032 0.13434 0.13678 0.0
C1066 C 0.31978 0.80069 0.42244 0.0
C1067 C 0.30622 0.81428 0.44366 0.0
H1068 H 0.33344 0.80201 0.37732 0.0
C1069 C 0.29633 0.84103 0.43467 0.0
H1070 H 0.32771 0.78016 0.42836 0.0
C1071 C 0.30022 0.854 0.40568 0.0
C1072 C 0.31339 0.84005 0.38439 0.0
H1073 H 0.28567 0.85213 0.45017 0.0
H1074 H 0.29249 0.87465 0.39963 0.0
C1075 C 0.32298 0.81313 0.39306 0.0
C1076 C 0.64588 0.04764 0.64726 0.0
C1077 C 0.63037 1.01594 0.6516 0.0
H1078 H 0.64419 0.09446 0.63329 0.0
C1079 C 0.60086 1.00631 0.6413 0.0
H1080 H 0.66865 0.0561 0.65529 0.0
C1081 C 0.58706 0.02831 0.62851 0.0
C1082 C 0.60242 0.0605 0.62587 0.0
H1083 H 0.58829 0.98226 0.64463 0.0
H1084 H 0.5642 0.02027 0.6214 0.0
C1085 C 0.63195 0.06984 0.63494 0.0
C1086 C 0.33342 0.41517 0.94601 0.0
C1087 C 0.35755 0.41068 0.96567 0.0
H1088 H 0.30958 0.41166 0.89788 0.0
C1089 C 0.37701 0.4003 0.95072 0.0
H1090 H 0.31807 0.42329 0.95669 0.0
C1091 C 0.37268 0.39482 0.91717 0.0
C1092 C 0.34838 0.39873 0.89747 0.0
H1093 H 0.39595 0.39685 0.965 0.0
H1094 H 0.38809 0.38663 0.90666 0.0
C1095 C 0.32864 0.40869 0.91232 0.0
C1096 C 1.00338 0.09538 0.27558 0.0
C1097 C 0.99621 0.06151 0.26623 0.0
H1098 H 1.02107 0.13408 0.31473 0.0
C1099 C 1.00134 0.04036 0.28875 0.0
H1100 H 0.99918 0.11189 0.2583 0.0
C1101 C 1.01307 0.05283 0.32053 0.0
C1102 C 1.02021 0.08657 0.32994 0.0
H1103 H 0.99511 1.01411 0.28209 0.0
H1104 H 1.01618 0.0361 0.33801 0.0
C1105 C 1.01563 0.108 0.3075 0.0
C1106 C 0.32467 0.7922 0.65479 0.0
C1107 C 0.32779 0.80906 0.62756 0.0
H1108 H 0.32576 0.79564 0.70576 0.0
C1109 C 0.33538 0.84337 0.63197 0.0
H1110 H 0.31852 0.76569 0.65226 0.0
C1111 C 0.34 0.86034 0.66266 0.0
C1112 C 0.33646 0.84358 0.68981 0.0
H1113 H 0.33797 0.85715 0.6117 0.0
H1114 H 0.34598 0.88684 0.665 0.0
C1115 C 0.32865 0.80924 0.68547 0.0
C1116 C 0.57901 0.03103 0.79778 0.0
C1117 C 0.60391 0.02145 0.80137 0.0
H1118 H 0.55372 0.05478 0.82007 0.0
C1119 C 0.62235 0.02781 0.83154 0.0
H1120 H 0.56458 0.02672 0.77471 0.0
C1121 C 0.61648 0.04463 0.85735 0.0
C1122 C 0.59197 0.05509 0.85344 0.0
H1123 H 0.64208 0.02146 0.8348 0.0
H1124 H 0.63161 0.05042 0.88 0.0
C1125 C 0.57305 0.04758 0.8236 0.0
C1126 C 0.34598 0.37298 0.14656 0.0
C1127 C 0.3543 0.40745 0.14884 0.0
H1128 H 0.33043 0.33014 0.16956 0.0
C1129 C 0.35415 0.42491 0.17804 0.0
H1130 H 0.34572 0.35859 0.12461 0.0
C1131 C 0.34559 0.40866 0.20375 0.0
C1132 C 0.33663 0.3743 0.20126 0.0
H1133 H 0.36041 0.45142 0.18105 0.0
H1134 H 0.34547 0.42317 0.22546 0.0
C1135 C 0.33716 0.35664 0.17237 0.0
C1136 C 0.2942 0.07184 0.10974 0.0
C1137 C 0.29545 0.05896 0.07902 0.0
H1138 H 0.27304 0.09628 0.13801 0.0
C1139 C 0.27557 0.06201 0.05251 0.0
H1140 H 0.30889 0.06942 0.13078 0.0
C1141 C 0.25526 0.07811 0.05655 0.0
C1142 C 0.25394 0.0911 0.08732 0.0
H1143 H 0.27594 0.05236 0.02853 0.0
H1144 H 0.24089 0.08079 0.03536 0.0
C1145 C 0.27363 0.08743 0.11386 0.0
C1146 C 0.6963 0.70732 0.02884 0.0
C1147 C 0.71956 0.69528 0.02714 0.0
H1148 H 0.65327 0.69671 0.03474 0.0
C1149 C 0.71612 0.66165 0.02903 0.0
H1150 H 0.6982 0.73309 0.02793 0.0
C1151 C 0.69025 0.64075 0.03272 0.0
C1152 C 0.66732 0.65302 0.03532 0.0
H1153 H 0.73358 0.65151 0.02812 0.0
H1154 H 0.68834 0.61504 0.03412 0.0
C1155 C 0.67061 0.68653 0.03319 0.0
C1156 C 0.79914 0.60457 0.34151 0.0
C1157 C 0.79131 0.60164 0.37144 0.0
H1158 H 0.81494 0.58364 0.30469 0.0
C1159 C 0.79249 0.57395 0.3869 0.0
H1160 H 0.79751 0.62519 0.32852 0.0
C1161 C 0.80279 0.55028 0.37334 0.0
C1162 C 0.81166 0.55389 0.34397 0.0
H1163 H 0.78606 0.57096 0.40972 0.0
H1164 H 0.80465 0.52974 0.38633 0.0
C1165 C 0.80905 0.58079 0.3278 0.0
C1166 C 0.95201 0.5636 0.58331 0.0
C1167 C 0.93605 0.53877 0.55845 0.0
H1168 H 0.99187 0.59997 0.60197 0.0
C1169 C 0.9479 0.53296 0.53208 0.0
H1170 H 0.94343 0.56839 0.60407 0.0
C1171 C 0.97514 0.55132 0.53057 0.0
C1172 C 0.99156 0.57549 0.55577 0.0
H1173 H 0.93609 0.51405 0.51256 0.0
H1174 H 0.98362 0.54589 0.50991 0.0
C1175 C 0.97972 0.58154 0.5822 0.0
C1176 C 0.38857 0.24082 0.29948 0.0
C1177 C 0.41653 0.25997 0.31224 0.0
H1178 H 0.34571 0.24116 0.28153 0.0
C1179 C 0.42267 0.29399 0.31807 0.0
H1180 H 0.38344 0.21443 0.29492 0.0
C1181 C 0.40163 0.3089 0.30996 0.0
C1182 C 0.37388 0.29013 0.29625 0.0
H1183 H 0.444 0.30938 0.32776 0.0
H1184 H 0.40728 0.33537 0.3142 0.0
C1185 C 0.36712 0.25593 0.29184 0.0
C1186 C 0.38478 0.20236 0.52258 0.0
C1187 C 0.37236 0.2056 0.54913 0.0
H1188 H 0.41681 0.18695 0.50424 0.0
C1189 C 0.38488 0.19834 0.57892 0.0
H1190 H 0.37557 0.20787 0.49935 0.0
C1191 C 0.40894 0.1874 0.58205 0.0
C1192 C 0.42078 0.18257 0.55526 0.0
H1193 H 0.37613 0.20132 0.6 0.0
H1194 H 0.41812 0.1825 0.60556 0.0
C1195 C 0.40858 0.19064 0.52552 0.0
C1196 C 0.76983 0.77416 0.37691 0.0
C1197 C 0.78403 0.75608 0.39683 0.0
H1198 H 0.77228 0.80693 0.34069 0.0
C1199 C 0.81231 0.75836 0.39591 0.0
H1200 H 0.74798 0.77283 0.37695 0.0
C1201 C 0.82573 0.77718 0.3748 0.0
C1202 C 0.81128 0.7942 0.35414 0.0
H1203 H 0.82383 0.74457 0.4106 0.0
H1204 H 0.84748 0.77816 0.37442 0.0
C1205 C 0.78338 0.793 0.35557 0.0
C1206 C 0.94953 0.62534 0.87104 0.0
C1207 C 0.94364 0.65316 0.85964 0.0
H1208 H 0.9369 0.57328 0.86699 0.0
C1209 C 0.9186 0.65029 0.83717 0.0
H1210 H 0.96878 0.62727 0.88833 0.0
C1211 C 0.9006 0.61931 0.82441 0.0
C1212 C 0.90782 0.59154 0.83424 0.0
H1213 H 0.91405 0.6717 0.82784 0.0
H1214 H 0.88195 0.617 0.80606 0.0
C1215 C 0.93163 0.59469 0.85852 0.0
C1216 C 0.13534 0.99892 0.08225 0.0
C1217 C 0.11637 0.97412 0.09422 0.0
H1218 H 0.14324 0.04548 0.06368 0.0
C1219 C 0.08923 0.9775 0.09457 0.0
H1220 H 0.15644 0.99741 0.08167 0.0
C1221 C 0.08137 1.0048 0.08338 0.0
C1222 C 0.10066 0.03003 0.07229 0.0
H1223 H 0.07401 0.95902 0.10358 0.0
H1224 H 0.06047 1.00672 0.0845 0.0
C1225 C 0.12775 0.0266 0.0719 0.0
C1226 C 0.94036 0.35414 0.89945 0.0
C1227 C 0.96283 0.34606 0.88865 0.0
H1228 H 0.90039 0.36396 0.88701 0.0
C1229 C 0.96151 0.34207 0.85523 0.0
H1230 H 0.94056 0.35761 0.92489 0.0
C1231 C 0.93826 0.34577 0.83333 0.0
C1232 C 0.91583 0.35372 0.8443 0.0
H1233 H 0.9785 0.33619 0.84594 0.0
H1234 H 0.93779 0.34228 0.80783 0.0
C1235 C 0.9173 0.35798 0.87764 0.0
C1236 C 0.64334 0.28098 0.60928 0.0
C1237 C 0.62053 0.29291 0.61344 0.0
H1238 H 0.65752 0.2385 0.60093 0.0
C1239 C 0.5939 0.27052 0.61133 0.0
H1240 H 0.66431 0.29774 0.61184 0.0
C1241 C 0.59004 0.23691 0.6054 0.0
C1242 C 0.61288 0.22464 0.60215 0.0
H1243 H 0.57615 0.27905 0.61524 0.0
H1244 H 0.5691 0.22047 0.60398 0.0
C1245 C 0.63959 0.24708 0.60383 0.0
C1246 C 0.62996 0.88844 0.40245 0.0
C1247 C 0.60713 0.86006 0.39846 0.0
H1248 H 0.67003 0.91115 0.391 0.0
C1249 C 0.60697 0.83226 0.3791 0.0
H1250 H 0.63049 0.91 0.41765 0.0
C1251 C 0.62967 0.8327 0.36416 0.0
C1252 C 0.65272 0.86106 0.36822 0.0
H1253 H 0.58959 0.81006 0.37609 0.0
H1254 H 0.62915 0.81094 0.3493 0.0
C1255 C 0.6525 0.88904 0.38728 0.0
C1256 C 0.06187 0.26506 0.51754 0.0
C1257 C 0.05286 0.26464 0.48421 0.0
H1258 H 0.07405 0.23838 0.55625 0.0
C1259 C 0.04775 0.23471 0.4647 0.0
H1260 H 0.06612 0.2874 0.53343 0.0
C1261 C 0.05208 0.20661 0.4777 0.0
C1262 C 0.06198 0.20721 0.51079 0.0
H1263 H 0.04064 0.23295 0.43894 0.0
H1264 H 0.04827 0.18453 0.46155 0.0
C1265 C 0.06652 0.23683 0.53059 0.0
C1266 C 0.72062 0.39954 0.22385 0.0
C1267 C 0.69601 0.37402 0.22359 0.0
H1268 H 0.76573 0.41816 0.23976 0.0
C1269 C 0.69865 0.3473 0.24033 0.0
H1270 H 0.71933 0.42043 0.21117 0.0
C1271 C 0.72523 0.34556 0.256 0.0
C1272 C 0.74993 0.3709 0.2561 0.0
H1273 H 0.68021 0.32702 0.24031 0.0
H1274 H 0.72643 0.32413 0.26781 0.0
C1275 C 0.7472 0.39823 0.24031 0.0
C1276 C 0.58978 0.95822 0.02296 0.0
C1277 C 0.57369 0.95017 0.99143 0.0
H1278 H 0.60765 0.99454 0.06387 0.0
C1279 C 0.56341 0.97481 0.97712 0.0
H1280 H 0.5983 0.94031 0.03486 0.0
C1281 C 0.56885 1.00624 0.99383 0.0
C1282 C 0.5849 1.01412 0.02536 0.0
H1283 H 0.55087 0.96978 0.95289 0.0
H1284 H 0.56005 0.02411 0.98227 0.0
C1285 C 0.59528 0.98958 0.03956 0.0
C1286 C 0.03231 0.86627 0.7521 0.0
C1287 C 0.04138 0.88181 0.72615 0.0
H1288 H 1.00496 0.86203 0.78592 0.0
C1289 C 0.02903 0.90584 0.71454 0.0
H1290 H 0.04126 0.84759 0.76165 0.0
C1291 C 1.00798 0.91387 0.72828 0.0
C1292 C 0.99902 0.89841 0.75429 0.0
H1293 H 0.03546 0.91832 0.69462 0.0
H1294 H 0.99894 0.93251 0.71881 0.0
C1295 C 1.01154 0.8746 0.7661 0.0
C1296 C 0.16635 0.17818 0.99355 0.0
C1297 C 0.17837 0.15645 0.97952 0.0
H1298 H 0.13109 0.18415 1.01165 0.0
C1299 C 0.16498 0.12257 0.97586 0.0
H1300 H 0.17609 0.2044 0.99592 0.0
C1301 C 0.13866 0.11081 0.98421 0.0
C1302 C 0.12602 0.13297 0.99656 0.0
H1303 H 0.1737 0.10553 0.96419 0.0
H1304 H 0.12807 0.08477 0.98054 0.0
C1305 C 0.14038 0.16656 1.0019 0.0
C1306 C 0.85488 0.44515 0.67357 0.0
C1307 C 0.85668 0.42625 0.64602 0.0
H1308 H 0.85343 0.44838 0.72346 0.0
C1309 C 0.85887 0.39439 0.64944 0.0
H1310 H 0.85301 0.46972 0.67237 0.0
C1311 C 0.8588 0.38188 0.67941 0.0
C1312 C 0.85716 0.40118 0.70678 0.0
H1313 H 0.86043 0.37909 0.62901 0.0
H1314 H 0.86004 0.35712 0.68119 0.0
C1315 C 0.85535 0.43299 0.70329 0.0
C1316 C 0.55205 0.17204 0.45021 0.0
C1317 C 0.57186 0.19162 0.43482 0.0
H1318 H 0.54579 0.1441 0.48966 0.0
C1319 C 0.60061 0.20099 0.44896 0.0
H1320 H 0.52971 0.16436 0.43928 0.0
C1321 C 0.60961 0.19016 0.47798 0.0
C1322 C 0.59002 0.16884 0.49237 0.0
H1323 H 0.61605 0.21606 0.43726 0.0
H1324 H 0.63204 0.19728 0.48837 0.0
C1325 C 0.56115 0.16025 0.47869 0.0
C1326 C 0.78841 0.79343 0.15045 0.0
C1327 C 0.80537 0.81306 0.13195 0.0
H1328 H 0.77773 0.78707 0.19675 0.0
C1329 C 0.82447 0.84293 0.14691 0.0
H1330 H 0.77372 0.77004 0.13965 0.0
C1331 C 0.82739 0.85216 0.17997 0.0
C1332 C 0.81078 0.83212 0.19858 0.0
H1333 H 0.83808 0.85833 0.13348 0.0
H1334 H 0.84295 0.87484 0.19112 0.0
C1335 C 0.79071 0.80309 0.18318 0.0
C1336 C 0.18304 0.17094 0.79902 0.0
C1337 C 0.1786 0.14896 0.82177 0.0
H1338 H 0.16953 0.18088 0.7514 0.0
C1339 C 0.15599 0.12007 0.81456 0.0
H1340 H 0.20018 0.19353 0.8044 0.0
C1341 C 0.13861 0.11262 0.78396 0.0
C1342 C 0.14381 0.13441 0.76115 0.0
H1343 H 0.15249 0.10288 0.83205 0.0
H1344 H 0.1217 0.0899 0.77792 0.0
C1345 C 0.16563 0.16378 0.76894 0.0
C1346 C 0.86262 0.41527 0.43724 0.0
C1347 C 0.84167 0.40931 0.45596 0.0
H1348 H 0.87292 0.40744 0.39092 0.0
C1349 C 0.81399 0.39127 0.44079 0.0
H1350 H 0.88413 0.42927 0.44814 0.0
C1351 C 0.80778 0.37807 0.40827 0.0
C1352 C 0.82873 0.38381 0.38958 0.0
H1353 H 0.79738 0.38621 0.45442 0.0
H1354 H 0.78659 0.36276 0.39781 0.0
C1355 C 0.85614 0.40316 0.40434 0.0
C1356 C 0.51951 0.1904 0.24833 0.0
C1357 C 0.53631 0.20726 0.27771 0.0
H1358 H 0.51637 0.15789 0.20678 0.0
C1359 C 0.5628 0.20222 0.28864 0.0
H1360 H 0.49869 0.19309 0.23956 0.0
C1361 C 0.57289 0.18193 0.2698 0.0
C1362 C 0.55664 0.16646 0.23973 0.0
H1363 H 0.57606 0.21466 0.31135 0.0
H1364 H 0.59389 0.17955 0.27808 0.0
C1365 C 0.52954 0.17012 0.22961 0.0
C1366 C 0.79271 0.83525 0.92726 0.0
C1367 C 0.81096 0.82348 0.94968 0.0
H1368 H 0.78686 0.85754 0.8834 0.0
C1369 C 0.83786 0.82491 0.94337 0.0
H1370 H 0.77185 0.8347 0.93112 0.0
C1371 C 0.84645 0.83832 0.91613 0.0
C1372 C 0.82816 0.84978 0.89366 0.0
H1373 H 0.85262 0.81629 0.95991 0.0
H1374 H 0.86757 0.83971 0.9126 0.0
C1375 C 0.80111 0.84795 0.89956 0.0
C1376 C 0.88192 0.17012 0.05845 0.0
C1377 C 0.87392 0.19245 0.03855 0.0
H1378 H 0.90825 0.13854 0.06843 0.0
C1379 C 0.88692 0.19947 1.01214 0.0
H1380 H 0.87232 0.16392 0.07888 0.0
C1381 C 0.90751 0.18448 1.00597 0.0
C1382 C 0.91571 0.1626 0.02637 0.0
H1383 H 0.88129 0.21659 0.99635 0.0
H1384 H 0.91739 0.19042 0.98568 0.0
C1385 C 0.90259 0.15557 0.05254 0.0
C1386 C 0.46086 0.55768 0.07825 0.0
C1387 C 0.45434 0.52347 0.07124 0.0
H1388 H 0.49164 0.60443 0.08187 0.0
C1389 C 0.47504 0.51049 0.06176 0.0
H1390 H 0.4455 0.56868 0.08545 0.0
C1391 C 0.50154 0.53111 0.05962 0.0
C1392 C 0.50804 0.56524 0.06687 0.0
H1393 H 0.47083 0.48433 0.05601 0.0
H1394 H 0.51704 0.52026 0.05252 0.0
C1395 C 0.48733 0.57826 0.07608 0.0
C1396 C 0.39174 0.6647 0.70922 0.0
C1397 C 0.39221 0.63631 0.72366 0.0
H1398 H 0.37789 0.70774 0.70897 0.0
C1399 C 0.37933 0.62958 0.74997 0.0
H1400 H 0.40196 0.67037 0.68912 0.0
C1401 C 0.36468 0.6502 0.76066 0.0
C1402 C 0.36329 0.67823 0.74557 0.0
H1403 H 0.37939 0.60753 0.7612 0.0
H1404 H 0.35357 0.64347 0.77987 0.0
C1405 C 0.37777 0.6858 0.72042 0.0
C1406 C 0.21875 0.68681 0.56492 0.0
C1407 C 0.22392 0.69206 0.53407 0.0
H1408 H 0.18835 0.66758 0.59341 0.0
C1409 C 0.20157 0.6798 0.50743 0.0
H1410 H 0.23558 0.69639 0.5859 0.0
C1411 C 0.17453 0.66259 0.51164 0.0
C1412 C 0.16914 0.65803 0.54265 0.0
H1413 H 0.20501 0.68352 0.48341 0.0
H1414 H 0.15768 0.65358 0.49061 0.0
C1415 C 0.19168 0.6703 0.5692 0.0
C1416 C 0.73219 0.92566 0.76782 0.0
C1417 C 0.74017 0.95768 0.75993 0.0
H1418 H 0.74516 0.88801 0.79082 0.0
C1419 C 0.76834 0.97712 0.77051 0.0
H1420 H 0.71061 0.91024 0.76009 0.0
C1421 C 0.78833 0.96445 0.78837 0.0
C1422 C 0.78037 0.93224 0.79598 0.0
H1423 H 0.77489 1.00224 0.76537 0.0
H1424 H 0.81002 0.97965 0.79573 0.0
C1425 C 0.75203 0.91312 0.7858 0.0
C1426 C 0.77964 1.00723 0.56044 0.0
C1427 C 0.80734 0.02685 0.57347 0.0
H1428 H 0.73571 1.00541 0.54765 0.0
C1429 C 0.81221 0.06048 0.58186 0.0
H1430 H 0.77538 0.98116 0.55397 0.0
C1431 C 0.78983 0.07427 0.57784 0.0
C1432 C 0.76199 0.05465 0.56588 0.0
H1433 H 0.83337 0.07616 0.59184 0.0
H1434 H 0.79423 0.10025 0.58498 0.0
C1435 C 0.75702 0.02099 0.55705 0.0
C1436 C 0.35122 0.45972 0.69913 0.0
C1437 C 0.38016 0.47295 0.71143 0.0
H1438 H 0.31248 0.42772 0.7062 0.0
C1439 C 0.39255 0.46535 0.7411 0.0
H1440 H 0.34149 0.4656 0.67631 0.0
C1441 C 0.37613 0.44452 0.75849 0.0
C1442 C 0.34721 0.43073 0.7461 0.0
H1443 H 0.41495 0.47593 0.75101 0.0
H1444 H 0.38606 0.43903 0.78139 0.0
C1445 C 0.33482 0.43832 0.71628 0.0
C1446 C 0.23396 0.6038 0.28911 0.0
C1447 C 0.21111 0.59331 0.26267 0.0
H1448 H 0.2681 0.64459 0.31469 0.0
C1449 C 0.2057 0.61504 0.24083 0.0
H1450 H 0.23843 0.58715 0.3061 0.0
C1451 C 0.22253 0.64703 0.24554 0.0
C1452 C 0.2448 0.6578 0.27226 0.0
H1453 H 0.18857 0.6073 0.21993 0.0
H1454 H 0.21804 0.6636 0.22843 0.0
C1455 C 0.25082 0.63625 0.294 0.0
C1456 C 0.55024 0.74743 0.51968 0.0
C1457 C 0.57175 0.77731 0.52776 0.0
H1458 H 0.53709 0.69626 0.52467 0.0
C1459 C 0.59667 0.77803 0.54959 0.0
H1460 H 0.53083 0.7458 0.50284 0.0
C1461 C 0.60036 0.74949 0.56212 0.0
C1462 C 0.57918 0.71937 0.55332 0.0
H1463 H 0.61373 0.80055 0.55643 0.0
H1464 H 0.62015 0.75092 0.57815 0.0
C1465 C 0.55386 0.71892 0.53232 0.0
C1466 C 0.73046 0.37454 0.71044 0.0
C1467 C 0.71695 0.39665 0.72152 0.0
H1468 H 0.76374 0.35152 0.72105 0.0
C1469 C 0.72756 0.41324 0.75265 0.0
H1470 H 0.72215 0.36062 0.6869 0.0
C1471 C 0.75126 0.40794 0.77224 0.0
C1472 C 0.76464 0.38551 0.76135 0.0
H1473 H 0.71739 0.43015 0.76189 0.0
H1474 H 0.75913 0.42152 0.79595 0.0
C1475 C 0.75404 0.36902 0.73011 0.0
C1476 C 0.08011 0.4685 1.01192 0.0
C1477 C 0.05245 0.44879 1.01088 0.0
H1478 H 0.10927 0.51688 0.02257 0.0
C1479 C 0.03244 0.46379 1.01876 0.0
H1480 H 0.09598 0.45766 1.00591 0.0
C1481 C 0.03976 0.49763 0.02732 0.0
C1482 C 0.06749 0.51739 0.02897 0.0
H1483 H 1.01087 0.44939 1.01785 0.0
H1484 H 1.02372 0.50819 0.03333 0.0
C1485 C 0.08767 0.5024 0.02136 0.0
C1486 C 0.03351 0.84289 0.21501 0.0
C1487 C 0.04873 0.87296 0.20702 0.0
H1488 H 0.99789 0.8168 0.23301 0.0
C1489 C 0.03882 0.90039 0.21067 0.0
H1490 H 0.04043 0.82119 0.2118 0.0
C1491 C 1.01476 0.89812 0.22362 0.0
C1492 C 0.99992 0.8682 0.23256 0.0
H1493 H 0.05025 0.92383 0.20465 0.0
H1494 H 1.00844 0.92008 0.2277 0.0
C1495 C 1.00919 0.84043 0.22727 0.0
C1496 C 0.61112 0.48278 0.13123 0.0
C1497 C 0.616 0.45876 0.11055 0.0
H1498 H 0.60398 0.53015 0.13708 0.0
C1499 C 0.61714 0.46516 0.07873 0.0
H1500 H 0.61031 0.47892 0.15594 0.0
C1501 C 0.61274 0.49416 0.06768 0.0
C1502 C 0.60808 0.51831 0.08838 0.0
H1503 H 0.62089 0.44739 0.0621 0.0
H1504 H 0.6132 0.49781 0.04285 0.0
C1505 C 0.60768 0.51233 0.12046 0.0
C1506 C 0.95494 0.32622 0.35336 0.0
C1507 C 0.9709 0.3505 0.37876 0.0
H1508 H 0.91709 0.30897 0.31655 0.0
C1509 C 0.96073 0.37726 0.38542 0.0
H1510 H 0.96215 0.30525 0.34765 0.0
C1511 C 0.93543 0.37987 0.36699 0.0
C1512 C 0.91917 0.35531 0.34202 0.0
H1513 H 0.97255 0.39645 0.40467 0.0
H1514 H 0.92825 0.40084 0.37282 0.0
C1515 C 0.92912 0.32831 0.33556 0.0
C1516 C 0.05828 0.75719 0.60286 0.0
C1517 C 0.08492 0.7806 0.60728 0.0
H1518 H 0.03326 0.70743 0.58628 0.0
C1519 C 0.10736 0.77041 0.59876 0.0
H1520 H 0.04067 0.76404 0.60966 0.0
C1521 C 0.10343 0.73762 0.58679 0.0
C1522 C 0.07673 0.71431 0.58204 0.0
H1523 H 0.12829 0.78755 0.60254 0.0
H1524 H 0.12128 0.73059 0.58089 0.0
C1525 C 0.05411 0.72469 0.58974 0.0
C1526 C 0.6376 0.82912 0.89612 0.0
C1527 C 0.6178 0.84494 0.88265 0.0
H1528 H 0.67177 0.80994 0.89026 0.0
C1529 C 0.61822 0.8541 0.85157 0.0
H1530 H 0.63778 0.8213 0.91981 0.0
C1531 C 0.63817 0.84791 0.83461 0.0
C1532 C 0.65809 0.8322 0.84824 0.0
H1533 H 0.60334 0.86638 0.84045 0.0
H1534 H 0.63826 0.85593 0.81103 0.0
C1535 C 0.6573 0.82272 0.87915 0.0
C1536 C 0.50927 0.62345 0.6528 0.0
C1537 C 0.49394 0.59039 0.64255 0.0
H1538 H 0.54814 0.66138 0.65448 0.0
C1539 C 0.50634 0.57016 0.62675 0.0
H1540 H 0.5003 0.63947 0.6655 0.0
C1541 C 0.53353 0.58207 0.6221 0.0
C1542 C 0.54883 0.61499 0.63164 0.0
H1543 H 0.49544 0.54457 0.61872 0.0
H1544 H 0.54241 0.56523 0.6104 0.0
C1545 C 0.53669 0.63583 0.64713 0.0
C1546 C 0.83481 0.33082 0.94906 0.0
C1547 C 0.80858 0.31002 0.95166 0.0
H1548 H 0.85969 0.35834 0.9187 0.0
C1549 C 0.78699 0.30004 0.92377 0.0
H1550 H 0.85183 0.33893 0.97003 0.0
C1551 C 0.79174 0.31032 0.89388 0.0
C1552 C 0.81789 0.33177 0.89146 0.0
H1553 H 0.76655 0.2839 0.92501 0.0
H1554 H 0.77482 0.30203 0.87284 0.0
C1555 C 0.83924 0.34195 0.91956 0.0
C1556 C 0.14155 0.53978 0.15006 0.0
C1557 C 0.12478 0.51208 0.16092 0.0
H1558 H 0.14275 0.58434 0.12896 0.0
C1559 C 0.09558 0.50781 0.15689 0.0
H1560 H 0.16419 0.54412 0.15306 0.0
C1561 C 0.08361 0.53101 0.14346 0.0
C1562 C 0.10043 0.55917 0.1337 0.0
H1563 H 0.08205 0.48713 0.16528 0.0
H1564 H 0.06105 0.52704 0.14112 0.0
C1565 C 0.12947 0.56322 0.13679 0.0
C1566 C 0.87705 0.90201 0.45941 0.0
C1567 C 0.85744 0.91127 0.47503 0.0
H1568 H 0.88774 0.88944 0.41471 0.0
C1569 C 0.83248 0.91438 0.456 0.0
H1570 H 0.89663 0.89969 0.47322 0.0
C1571 C 0.82712 0.90791 0.42228 0.0
C1572 C 0.84704 0.89928 0.40667 0.0
H1573 H 0.81696 0.92156 0.46719 0.0
H1574 H 0.80749 0.91001 0.40839 0.0
C1575 C 0.87209 0.8965 0.42576 0.0
C1576 C 0.51856 0.54741 0.78312 0.0
C1577 C 0.49909 0.56287 0.76851 0.0
H1578 H 0.54645 0.54421 0.82604 0.0
C1579 C 0.49505 0.58997 0.78546 0.0
H1580 H 0.52182 0.52627 0.77073 0.0
C1581 C 0.50942 0.6005 0.81713 0.0
C1582 C 0.52797 0.58407 0.83215 0.0
H1583 H 0.48017 0.60239 0.77463 0.0
H1584 H 0.50528 0.62065 0.83023 0.0
C1585 C 0.53285 0.5579 0.8147 0.0
C1586 C 0.82986 0.34314 0.14306 0.0
C1587 C 0.83084 0.31075 0.13749 0.0
H1588 H 0.83457 0.38384 0.17784 0.0
C1589 C 0.83706 0.29441 0.16458 0.0
H1590 H 0.82505 0.35653 0.12308 0.0
C1591 C 0.84194 0.3099 0.19612 0.0
C1592 C 0.84117 0.3423 0.2015 0.0
H1593 H 0.83793 0.26938 0.16146 0.0
H1594 H 0.84706 0.29687 0.21625 0.0
C1595 C 0.83529 0.35875 0.17455 0.0
C1596 C 0.10474 0.52273 0.33581 0.0
C1597 C 0.1068 0.5363 0.307 0.0
H1598 H 0.09578 0.52827 0.38262 0.0
C1599 C 0.10275 0.56729 0.30385 0.0
H1600 H 0.10819 0.49906 0.33885 0.0
C1601 C 0.09679 0.58456 0.32911 0.0
C1602 C 0.09408 0.57088 0.35783 0.0
H1603 H 0.1052 0.57879 0.2822 0.0
H1604 H 0.09478 0.60887 0.32625 0.0
C1605 C 0.09804 0.5397 0.36092 0.0
C1606 C 0.84622 0.88071 0.65754 0.0
C1607 C 0.856 0.91506 0.65933 0.0
H1608 H 0.82864 0.83902 0.68095 0.0
C1609 C 0.85657 0.93351 0.68828 0.0
H1610 H 0.84533 0.86558 0.6358 0.0
C1611 C 0.84716 0.9183 0.71419 0.0
C1612 C 0.83661 0.88408 0.71205 0.0
H1613 H 0.86399 0.96 0.69087 0.0
H1614 H 0.84759 0.93348 0.73572 0.0
C1615 C 0.83655 0.86547 0.68347 0.0
C1616 C 0.76969 0.5321 0.59081 0.0
C1617 C 0.79798 0.5496 0.59204 0.0
H1618 H 0.72832 0.53467 0.5953 0.0
C1619 C 0.80626 0.58386 0.59862 0.0
H1620 H 0.76298 0.50561 0.58652 0.0
C1621 C 0.78653 0.60042 0.60351 0.0
C1622 C 0.7582 0.58302 0.60225 0.0
H1623 H 0.82796 0.59785 0.59957 0.0
H1624 H 0.79332 0.62691 0.60782 0.0
C1625 C 0.74996 0.54867 0.59597 0.0
C1626 C 0.21094 0.16445 0.52257 0.0
C1627 C 0.21611 0.19828 0.52071 0.0
H1628 H 0.18126 0.11929 0.52763 0.0
C1629 C 0.19396 0.2123 0.52253 0.0
H1630 H 0.22749 0.15281 0.52152 0.0
C1631 C 0.16759 0.19313 0.52681 0.0
C1632 C 0.16259 0.15939 0.52883 0.0
H1633 H 0.19724 0.23831 0.52163 0.0
H1634 H 0.15109 0.20472 0.52838 0.0
C1635 C 0.18447 0.14525 0.52629 0.0
C1636 C 0.28624 0.07401 0.87862 0.0
C1637 C 0.2803 0.09844 0.86057 0.0
H1638 H 0.30292 0.03297 0.88007 0.0
C1639 C 0.28277 0.09766 0.8283 0.0
H1640 H 0.28408 0.07407 0.90345 0.0
C1641 C 0.29285 0.07399 0.81476 0.0
C1642 C 0.30103 0.05106 0.83346 0.0
H1643 H 0.27737 0.11576 0.81364 0.0
H1644 H 0.29503 0.07422 0.78994 0.0
C1645 C 0.2968 0.0505 0.86518 0.0
C1646 C 0.45287 0.0577 0.08111 0.0
C1647 C 0.43575 0.03586 0.05445 0.0
H1648 H 0.49452 0.08893 0.1027 0.0
C1649 C 0.44774 0.0296 0.02831 0.0
H1650 H 0.44419 0.06264 0.10175 0.0
C1651 C 0.47613 0.04501 0.02857 0.0
C1652 C 0.49352 0.0664 0.05536 0.0
H1653 H 0.43506 1.01284 1.0075 0.0
H1654 H 0.4846 0.03967 1.00787 0.0
C1655 C 0.48166 0.0725 0.08177 0.0
C1656 C 0.89541 0.7579 0.79591 0.0
C1657 C 0.92325 0.77844 0.80696 0.0
H1658 H 0.85126 0.75526 0.78303 0.0
C1659 C 0.92806 0.81214 0.81318 0.0
H1660 H 0.89124 0.73161 0.79144 0.0
C1661 C 0.90554 0.82525 0.80858 0.0
C1662 C 0.87767 0.80501 0.79771 0.0
H1663 H 0.94919 0.82845 0.82198 0.0
H1664 H 0.9101 0.85149 0.81395 0.0
C1665 C 0.87257 0.77117 0.79152 0.0
C1666 C 0.88803 0.70495 0.09092 0.0
C1667 C 0.87617 0.7132 0.0613 0.0
H1668 H 0.92014 0.68711 0.11727 0.0
C1669 C 0.88892 0.71028 0.03495 0.0
H1670 H 0.879 0.70757 0.11183 0.0
C1671 C 0.91223 0.69769 0.03782 0.0
C1672 C 0.92355 0.6883 0.06727 0.0
H1673 H 0.8802 0.71649 1.01184 0.0
H1674 H 0.92064 0.69416 1.01664 0.0
C1675 C 0.91158 0.69305 0.09397 0.0
C1676 C 0.27131 0.25132 0.85676 0.0
C1677 C 0.28104 0.25627 0.89032 0.0
H1678 H 0.27955 0.26509 0.8111 0.0
C1679 C 0.30563 0.28119 0.90396 0.0
H1680 H 0.25266 0.23157 0.84574 0.0
C1681 C 0.32089 0.30027 0.88419 0.0
C1682 C 0.31201 0.29422 0.85051 0.0
H1683 H 0.31352 0.2851 0.92971 0.0
H1684 H 0.34014 0.31916 0.89528 0.0
C1685 C 0.28671 0.27022 0.83693 0.0
C1686 C 0.43423 0.14486 0.34537 0.0
C1687 C 0.45482 0.14997 0.32663 0.0
H1688 H 0.39468 0.11469 0.35112 0.0
C1689 C 0.44808 0.13512 0.29493 0.0
H1690 H 0.43906 0.15687 0.36973 0.0
C1691 C 0.42193 0.11205 0.28339 0.0
C1692 C 0.40316 0.10234 0.30419 0.0
H1693 H 0.46356 0.13997 0.27979 0.0
H1694 H 0.41783 0.09928 0.25948 0.0
C1695 C 0.40854 0.12097 0.33433 0.0
C1696 C 0.6066 0.48552 0.62267 0.0
C1697 C 0.6241 0.47212 0.60684 0.0
H1698 H 0.585 0.52261 0.62531 0.0
C1699 C 0.63199 0.48623 0.57961 0.0
H1700 H 0.60021 0.47569 0.64384 0.0
C1701 C 0.62329 0.51326 0.56908 0.0
C1702 C 0.60603 0.52668 0.58511 0.0
H1703 H 0.64524 0.47662 0.56656 0.0
H1704 H 0.63031 0.52393 0.54855 0.0
C1705 C 0.59769 0.51235 0.61194 0.0
C1706 C 0.44888 0.88805 0.36012 0.0
C1707 C 0.45617 0.85974 0.36878 0.0
H1708 H 0.41709 0.90801 0.33554 0.0
C1709 C 0.43639 0.82904 0.358 0.0
H1710 H 0.46363 0.91209 0.3682 0.0
C1711 C 0.41003 0.82671 0.33857 0.0
C1712 C 0.40261 0.85507 0.33037 0.0
H1713 H 0.44143 0.80682 0.36422 0.0
H1714 H 0.39525 0.80271 0.3304 0.0
C1715 C 0.42222 0.88577 0.34152 0.0
C1716 C 0.13873 0.78271 0.10755 0.0
C1717 C 0.11496 0.79407 0.10829 0.0
H1718 H 0.15467 0.7408 0.10415 0.0
C1719 C 0.0885 0.77102 0.10514 0.0
H1720 H 0.15957 0.79997 0.11105 0.0
C1721 C 0.08572 0.73749 0.10168 0.0
C1722 C 0.10944 0.72575 0.10183 0.0
H1723 H 0.06994 0.77902 0.10642 0.0
H1724 H 0.06479 0.72074 0.09943 0.0
C1725 C 0.13601 0.74884 0.10439 0.0
C1726 C 0.13146 0.37739 0.89509 0.0
C1727 C 0.11026 0.34732 0.89077 0.0
H1728 H 0.1717 0.40345 0.88558 0.0
C1729 C 0.11376 0.32009 0.87356 0.0
H1730 H 0.12931 0.39877 0.90828 0.0
C1731 C 0.13795 0.32264 0.86114 0.0
C1732 C 0.15914 0.35255 0.86533 0.0
H1733 H 0.09789 0.29654 0.86986 0.0
H1734 H 0.13985 0.30123 0.84772 0.0
C1735 C 0.15565 0.38005 0.88218 0.0
C1736 C 0.5895 0.76271 0.02898 0.0
C1737 C 0.57029 0.76423 1.00108 0.0
H1738 H 0.60661 0.73282 0.06058 0.0
C1739 C 0.55277 0.73434 0.98357 0.0
H1740 H 0.60346 0.785 0.04306 0.0
C1741 C 0.55493 0.70392 0.99339 0.0
C1742 C 0.57432 0.70259 0.02131 0.0
H1743 H 0.53792 0.73443 0.96174 0.0
H1744 H 0.54148 0.68151 0.97908 0.0
C1745 C 0.5913 0.73255 0.03903 0.0
C1746 C 0.19188 0.85317 0.73557 0.0
C1747 C 0.18927 0.87976 0.71853 0.0
H1748 H 0.21977 0.82934 0.76203 0.0
C1749 C 0.21405 0.90425 0.71714 0.0
H1750 H 0.17327 0.83364 0.73682 0.0
C1751 C 0.24072 0.9021 0.73217 0.0
C1752 C 0.24341 0.87493 0.74826 0.0
H1753 H 0.21284 0.925 0.70419 0.0
H1754 H 0.25933 0.92131 0.73029 0.0
C1755 C 0.21859 0.85058 0.74989 0.0
C1756 C 0.04534 0.47007 0.50944 0.0
C1757 C 0.06663 0.45565 0.50439 0.0
H1758 H 0.03476 0.51376 0.5234 0.0
C1759 C 0.09473 0.47603 0.51073 0.0
H1760 H 1.02344 0.45539 0.50457 0.0
C1761 C 0.10135 0.50954 0.52245 0.0
C1762 C 0.07996 0.524 0.52696 0.0
H1763 H 0.1117 0.46593 0.5071 0.0
H1764 H 0.12325 0.52427 0.52767 0.0
C1765 C 0.05183 0.50373 0.52002 0.0
C1766 C 0.53219 0.39518 0.21012 0.0
C1767 C 0.54592 0.37346 0.22458 0.0
H1768 H 0.5002 0.41983 0.21056 0.0
C1769 C 0.53725 0.35989 0.25159 0.0
H1770 H 0.53825 0.40601 0.18923 0.0
C1771 C 0.51554 0.36792 0.26389 0.0
C1772 C 0.50166 0.38949 0.24933 0.0
H1773 H 0.54726 0.34301 0.26331 0.0
H1774 H 0.50931 0.35681 0.28458 0.0
C1775 C 0.51024 0.40293 0.22221 0.0
C1776 C 0.67208 0.67561 0.50249 0.0
C1777 C 0.68215 0.65457 0.48461 0.0
H1778 H 0.6399 0.68051 0.52691 0.0
C1779 C 0.66861 0.6207 0.48006 0.0
H1780 H 0.6819 0.70183 0.50555 0.0
C1781 C 0.64384 0.60835 0.49148 0.0
C1782 C 0.63298 0.62987 0.50788 0.0
H1783 H 0.6758 0.60426 0.46546 0.0
H1784 H 0.63288 0.58241 0.48682 0.0
C1785 C 0.6478 0.66335 0.51419 0.0
C1786 C 0.34226 0.95295 0.16172 0.0
C1787 C 0.34496 0.93308 0.13534 0.0
H1788 H 0.34002 0.95843 0.21132 0.0
C1789 C 0.34764 0.90176 0.14055 0.0
H1790 H 0.34002 0.97721 0.15911 0.0
C1791 C 0.34745 0.89082 0.17118 0.0
C1792 C 0.34504 0.91111 0.19744 0.0
H1793 H 0.34996 0.88579 0.12111 0.0
H1794 H 0.34919 0.86644 0.1743 0.0
C1795 C 0.34251 0.9423 0.1921 0.0
C1796 C 0.04829 0.66393 0.95107 0.0
C1797 C 0.05782 0.69798 0.95089 0.0
H1798 H 0.0523 0.62288 0.97579 0.0
C1799 C 0.07737 0.71756 0.97709 0.0
H1800 H 0.03282 0.64857 0.93107 0.0
C1801 C 0.08894 0.70278 1.00225 0.0
C1802 C 0.08038 0.66852 1.00159 0.0
H1803 H 0.08472 0.74387 0.97727 0.0
H1804 H 0.10504 0.71799 0.0218 0.0
C1805 C 0.05924 0.64928 0.97654 0.0
C1806 C 0.33757 0.32818 0.64327 0.0
C1807 C 0.31127 0.31114 0.62387 0.0
H1808 H 0.36102 0.34863 0.69062 0.0
C1809 C 0.28768 0.302 0.63839 0.0
H1810 H 0.35624 0.33469 0.63293 0.0
C1811 C 0.29034 0.30946 0.67165 0.0
C1812 C 0.31681 0.32588 0.69133 0.0
H1813 H 0.26731 0.2879 0.62413 0.0
H1814 H 0.2718 0.30163 0.68201 0.0
C1815 C 0.34028 0.33564 0.67649 0.0
C1816 C 0.65325 0.62059 0.32284 0.0
C1817 C 0.6826 0.63178 0.32498 0.0
H1818 H 0.61256 0.60374 0.29133 0.0
C1819 C 0.69383 0.62903 0.29748 0.0
H1820 H 0.64415 0.62183 0.3439 0.0
C1821 C 0.67587 0.61813 0.26778 0.0
C1822 C 0.64647 0.6101 0.2652 0.0
H1823 H 0.71643 0.63688 0.29858 0.0
H1824 H 0.68507 0.61897 0.24661 0.0
C1825 C 0.63522 0.60987 0.29298 0.0
C1826 C 0.35008 0.88914 0.93613 0.0
C1827 C 0.33778 0.91311 0.94586 0.0
H1828 H 0.3543 0.85733 0.89745 0.0
C1829 C 0.321 0.92478 0.92163 0.0
H1830 H 0.36331 0.87962 0.95371 0.0
C1831 C 0.31632 0.91232 0.88887 0.0
C1832 C 0.3282 0.88778 0.87958 0.0
H1833 H 0.31128 0.94336 0.92799 0.0
H1834 H 0.30261 0.92098 0.87103 0.0
C1835 C 0.34515 0.87653 0.90369 0.0
C1836 C 0.03838 0.72196 0.75655 0.0
C1837 C 0.04259 0.71566 0.78859 0.0
H1838 H 0.04456 0.71039 0.70941 0.0
C1839 C 0.05556 0.69147 0.7977 0.0
H1840 H 0.02802 0.74026 0.7491 0.0
C1841 C 0.06388 0.67337 0.77498 0.0
C1842 C 0.05999 0.67963 0.74276 0.0
H1843 H 0.05809 0.6855 0.8222 0.0
H1844 H 0.07266 0.65391 0.78259 0.0
C1845 C 0.04746 0.70447 0.73388 0.0
C1846 C 0.32039 0.35249 0.43952 0.0
C1847 C 0.30974 0.31864 0.44052 0.0
H1848 H 0.3377 0.39096 0.41239 0.0
C1849 C 0.30671 0.29749 0.41248 0.0
H1850 H 0.32302 0.36949 0.46056 0.0
C1851 C 0.314 0.30995 0.38421 0.0
C1852 C 0.32554 0.34381 0.38367 0.0
H1853 H 0.29841 0.27129 0.41231 0.0
H1854 H 0.31154 0.29304 0.36316 0.0
C1855 C 0.32872 0.3648 0.41181 0.0
C1856 C 0.38896 0.69481 0.51261 0.0
C1857 C 0.37434 0.68838 0.53787 0.0
H1858 H 0.4217 0.68614 0.4898 0.0
C1859 C 0.38206 0.66735 0.5596 0.0
H1860 H 0.38366 0.71093 0.49544 0.0
C1861 C 0.40387 0.65346 0.55653 0.0
C1862 C 0.41863 0.65987 0.53147 0.0
H1863 H 0.37132 0.66166 0.57929 0.0
H1864 H 0.40902 0.63731 0.57374 0.0
C1865 C 0.41072 0.68054 0.50932 0.0
C1866 C 0.97454 1.01616 0.56362 0.0
C1867 C 0.95377 0.02798 0.57442 0.0
H1868 H 1.01542 0.02793 0.55118 0.0
C1869 C 0.95901 0.06212 0.5807 0.0
H1870 H 0.97124 0.9901 0.55832 0.0
C1871 C 0.98427 0.08378 0.57643 0.0
C1872 C 1.00501 0.07194 0.56577 0.0
H1873 H 0.94355 0.07225 0.58892 0.0
H1874 H 0.98762 0.10985 0.58172 0.0
C1875 C 0.99983 0.03787 0.55935 0.0
C1876 C 0.87564 0.1227 0.24545 0.0
C1877 C 0.89461 0.13439 0.22564 0.0
H1878 H 0.84614 0.13313 0.27189 0.0
C1879 C 0.90075 0.16705 0.21949 0.0
H1880 H 0.87066 0.09735 0.25013 0.0
C1881 C 0.88717 0.18774 0.23234 0.0
C1882 C 0.86696 0.17571 0.25093 0.0
H1883 H 0.91556 0.1763 0.20433 0.0
H1884 H 0.89204 0.21292 0.22718 0.0
C1885 C 0.86177 0.14318 0.25793 0.0
C1886 C 0.72199 0.17453 0.06757 0.0
C1887 C 0.72636 0.19146 0.04081 0.0
H1888 H 0.69196 0.14474 0.09147 0.0
C1889 C 0.70301 0.18945 1.01624 0.0
H1890 H 0.73958 0.17602 0.0871 0.0
C1891 C 0.67586 0.17092 1.0184 0.0
C1892 C 0.6713 0.15477 0.04563 0.0
H1893 H 0.70574 0.20229 0.99541 0.0
H1894 H 0.65829 0.1701 0.9991 0.0
C1895 C 0.69472 0.15674 0.07016 0.0
C1896 C 0.23143 0.4248 0.28176 0.0
C1897 C 0.23729 0.44905 0.26128 0.0
H1898 H 0.24758 0.39308 0.31158 0.0
C1899 C 0.26523 0.4621 0.2574 0.0
H1900 H 0.21022 0.41484 0.28579 0.0
C1901 C 0.28674 0.45013 0.27267 0.0
C1902 C 0.2806 0.42473 0.29185 0.0
H1903 H 0.27052 0.48137 0.2423 0.0
H1904 H 0.30777 0.45949 0.26792 0.0
C1905 C 0.25292 0.41277 0.29695 0.0
C1906 C 0.28569 0.52019 0.05032 0.0
C1907 C 0.3071 0.5272 0.07821 0.0
H1908 H 0.24656 0.52752 0.02697 0.0
C1909 C 0.30501 0.54743 0.10442 0.0
H1910 H 0.28666 0.50464 0.02974 0.0
C1911 C 0.28206 0.56022 0.10296 0.0
C1912 C 0.26065 0.55335 0.07515 0.0
H1913 H 0.32106 0.55329 0.12633 0.0
H1914 H 0.28135 0.57601 0.1235 0.0
C1915 C 0.26277 0.53331 0.04873 0.0
C1916 C 0.88737 0.94872 0.22949 0.0
C1917 C 0.878 0.97304 0.21396 0.0
H1918 H 0.87965 0.91257 0.2618 0.0
C1919 C 0.85285 0.97902 0.21899 0.0
H1920 H 0.90694 0.94395 0.2265 0.0
C1921 C 0.83725 0.96074 0.23899 0.0
C1922 C 0.84711 0.93716 0.25506 0.0
H1923 H 0.84541 0.99797 0.20773 0.0
H1924 H 0.8176 0.96522 0.24217 0.0
C1925 C 0.87221 0.93127 0.25025 0.0
C1926 C 0.72865 0.0984 0.79473 0.0
C1927 C 0.70257 0.0946 0.77385 0.0
H1928 H 0.76868 0.1316 0.81763 0.0
C1929 C 0.69464 0.12232 0.76491 0.0
H1930 H 0.73513 0.07739 0.80235 0.0
C1931 C 0.71369 0.15325 0.77417 0.0
C1932 C 0.74084 0.15662 0.79221 0.0
H1933 H 0.67453 0.12002 0.74913 0.0
H1934 H 0.7081 0.17414 0.76481 0.0
C1935 C 0.74779 0.12929 0.80368 0.0
loop_
_geom_bond_atom_site_label_1
_geom_bond_atom_site_label_2
_geom_bond_distance
_geom_bond_site_symmetry_2
_ccdc_geom_bond_type
O0 Cd1 2.223 1_655 S
O0 C8 1.315 1_655 S
Cd1 O0 2.223 1_455 S
Cd1 O4 2.297 . S
Cd1 O5 2.439 . S
Cd1 O11 2.240 1_455 S
Cd2 O3 2.240 . S
Cd2 O10 2.223 1_455 S
Cd2 O12 2.297 1_455 S
Cd2 O13 2.439 . S
O3 Cd2 2.240 . S
O3 C8 1.279 . S
O4 Cd1 2.297 . S
O4 C6 1.247 . S
O5 Cd1 2.439 . S
O5 C6 1.208 . S
C6 O4 1.247 . S
C6 O5 1.208 . S
C7 O12 1.247 1_455 S
C7 O13 1.208 . S
C8 O0 1.315 1_455 S
C8 O3 1.279 . S
C9 O10 1.315 . S
C9 O11 1.279 . S
O10 Cd2 2.223 1_655 S
O10 C9 1.315 . S
O11 Cd1 2.240 1_655 S
O11 C9 1.279 . S
O12 Cd2 2.297 1_655 S
O12 C7 1.247 1_655 S
O13 Cd2 2.439 . S
O13 C7 1.208 . S
O14 Cd15 2.223 . S
O14 C22 1.315 . S
Cd15 O14 2.223 . S
Cd15 O18 2.297 . S
Cd15 O19 2.439 . S
Cd15 O25 2.240 . S
Cd16 O17 2.240 . S
Cd16 O24 2.223 . S
Cd16 O26 2.297 . S
Cd16 O27 2.439 . S
O17 Cd16 2.240 . S
O17 C22 1.279 . S
O18 Cd15 2.297 . S
O18 C20 1.247 . S
O19 Cd15 2.439 . S
O19 C20 1.208 . S
C20 O18 1.247 . S
C20 O19 1.208 . S
C21 O26 1.247 . S
C21 O27 1.208 . S
C22 O14 1.315 . S
C22 O17 1.279 . S
C23 O24 1.315 . S
C23 O25 1.279 . S
O24 Cd16 2.223 . S
O24 C23 1.315 . S
O25 Cd15 2.240 . S
O25 C23 1.279 . S
O26 Cd16 2.297 . S
O26 C21 1.247 . S
O27 Cd16 2.439 . S
O27 C21 1.208 . S
O28 Cd29 2.223 . S
O28 C36 1.315 . S
Cd29 O28 2.223 . S
Cd29 O32 2.297 . S
Cd29 O33 2.439 . S
Cd29 O39 2.240 . S
Cd30 O31 2.240 . S
Cd30 O38 2.223 . S
Cd30 O40 2.297 . S
Cd30 O41 2.439 . S
O31 Cd30 2.240 . S
O31 C36 1.279 . S
O32 Cd29 2.297 . S
O32 C34 1.247 . S
O33 Cd29 2.439 . S
O33 C34 1.208 . S
C34 O32 1.247 . S
C34 O33 1.208 . S
C35 O40 1.247 . S
C35 O41 1.208 . S
C36 O28 1.315 . S
C36 O31 1.279 . S
C37 O38 1.315 . S
C37 O39 1.279 . S
O38 Cd30 2.223 . S
O38 C37 1.315 . S
O39 Cd29 2.240 . S
O39 C37 1.279 . S
O40 Cd30 2.297 . S
O40 C35 1.247 . S
O41 Cd30 2.439 . S
O41 C35 1.208 . S
O42 Cd43 2.223 . S
O42 C50 1.315 . S
Cd43 O42 2.223 . S
Cd43 O46 2.297 . S
Cd43 O47 2.439 . S
Cd43 O53 2.240 . S
Cd44 O45 2.240 . S
Cd44 O52 2.223 . S
Cd44 O54 2.297 . S
Cd44 O55 2.439 . S
O45 Cd44 2.240 . S
O45 C50 1.279 . S
O46 Cd43 2.297 . S
O46 C48 1.247 . S
O47 Cd43 2.439 . S
O47 C48 1.208 . S
C48 O46 1.247 . S
C48 O47 1.208 . S
C49 O54 1.247 . S
C49 O55 1.208 . S
C50 O42 1.315 . S
C50 O45 1.279 . S
C51 O52 1.315 . S
C51 O53 1.279 . S
O52 Cd44 2.223 . S
O52 C51 1.315 . S
O53 Cd43 2.240 . S
O53 C51 1.279 . S
O54 Cd44 2.297 . S
O54 C49 1.247 . S
O55 Cd44 2.439 . S
O55 C49 1.208 . S
O56 Cd57 2.223 . S
O56 C64 1.315 . S
Cd57 O56 2.223 . S
Cd57 O60 2.297 . S
Cd57 O61 2.439 . S
Cd57 O67 2.240 . S
Cd58 O59 2.240 . S
Cd58 O66 2.223 . S
Cd58 O68 2.297 . S
Cd58 O69 2.439 . S
O59 Cd58 2.240 . S
O59 C64 1.279 . S
O60 Cd57 2.297 . S
O60 C62 1.247 . S
O61 Cd57 2.439 . S
O61 C62 1.208 . S
C62 O60 1.247 . S
C62 O61 1.208 . S
C63 O68 1.247 . S
C63 O69 1.208 . S
C64 O56 1.315 . S
C64 O59 1.279 . S
C65 O66 1.315 . S
C65 O67 1.279 . S
O66 Cd58 2.223 . S
O66 C65 1.315 . S
O67 Cd57 2.240 . S
O67 C65 1.279 . S
O68 Cd58 2.297 . S
O68 C63 1.247 . S
O69 Cd58 2.439 . S
O69 C63 1.208 . S
O70 Cd71 2.223 . S
O70 C78 1.315 . S
Cd71 O70 2.223 . S
Cd71 O74 2.297 . S
Cd71 O75 2.439 . S
Cd71 O81 2.240 . S
Cd72 O73 2.240 . S
Cd72 O80 2.223 . S
Cd72 O82 2.297 . S
Cd72 O83 2.439 . S
O73 Cd72 2.240 . S
O73 C78 1.279 . S
O74 Cd71 2.297 . S
O74 C76 1.247 . S
O75 Cd71 2.439 . S
O75 C76 1.208 . S
C76 O74 1.247 . S
C76 O75 1.208 . S
C77 O82 1.247 . S
C77 O83 1.208 . S
C78 O70 1.315 . S
C78 O73 1.279 . S
C79 O80 1.315 . S
C79 O81 1.279 . S
O80 Cd72 2.223 . S
O80 C79 1.315 . S
O81 Cd71 2.240 . S
O81 C79 1.279 . S
O82 Cd72 2.297 . S
O82 C77 1.247 . S
O83 Cd72 2.439 . S
O83 C77 1.208 . S
O84 Cd85 2.223 . S
O84 C92 1.315 . S
Cd85 O84 2.223 . S
Cd85 O88 2.297 . S
Cd85 O89 2.439 . S
Cd85 O95 2.240 . S
Cd86 O87 2.240 . S
Cd86 O94 2.223 . S
Cd86 O96 2.297 . S
Cd86 O97 2.439 . S
O87 Cd86 2.240 . S
O87 C92 1.279 . S
O88 Cd85 2.297 . S
O88 C90 1.247 . S
O89 Cd85 2.439 . S
O89 C90 1.208 . S
C90 O88 1.247 . S
C90 O89 1.208 . S
C91 O96 1.247 . S
C91 O97 1.208 . S
C92 O84 1.315 . S
C92 O87 1.279 . S
C93 O94 1.315 . S
C93 O95 1.279 . S
O94 Cd86 2.223 . S
O94 C93 1.315 . S
O95 Cd85 2.240 . S
O95 C93 1.279 . S
O96 Cd86 2.297 . S
O96 C91 1.247 . S
O97 Cd86 2.439 . S
O97 C91 1.208 . S
O98 Cd99 2.223 . S
O98 C106 1.315 . S
Cd99 O98 2.223 . S
Cd99 O102 2.297 . S
Cd99 O103 2.439 . S
Cd99 O109 2.240 1_455 S
Cd100 O101 2.240 . S
Cd100 O108 2.223 1_455 S
Cd100 O110 2.297 . S
Cd100 O111 2.439 . S
O101 Cd100 2.240 . S
O101 C106 1.279 . S
O102 Cd99 2.297 . S
O102 C104 1.247 . S
O103 Cd99 2.439 . S
O103 C104 1.208 . S
C104 O102 1.247 . S
C104 O103 1.208 . S
C105 O110 1.247 . S
C105 O111 1.208 . S
C106 O98 1.315 . S
C106 O101 1.279 . S
C107 O108 1.315 . S
C107 O109 1.279 . S
O108 Cd100 2.223 1_655 S
O108 C107 1.315 . S
O109 Cd99 2.240 1_655 S
O109 C107 1.279 . S
O110 Cd100 2.297 . S
O110 C105 1.247 . S
O111 Cd100 2.439 . S
O111 C105 1.208 . S
O112 Cd113 2.223 . S
O112 C120 1.315 . S
Cd113 O112 2.223 . S
Cd113 O116 2.297 . S
Cd113 O117 2.439 . S
Cd113 O123 2.240 . S
Cd114 O115 2.240 . S
Cd114 O122 2.223 . S
Cd114 O124 2.297 . S
Cd114 O125 2.439 . S
O115 Cd114 2.240 . S
O115 C120 1.279 . S
O116 Cd113 2.297 . S
O116 C118 1.247 . S
O117 Cd113 2.439 . S
O117 C118 1.208 . S
C118 O116 1.247 . S
C118 O117 1.208 . S
C119 O124 1.247 . S
C119 O125 1.208 . S
C120 O112 1.315 . S
C120 O115 1.279 . S
C121 O122 1.315 . S
C121 O123 1.279 . S
O122 Cd114 2.223 . S
O122 C121 1.315 . S
O123 Cd113 2.240 . S
O123 C121 1.279 . S
O124 Cd114 2.297 . S
O124 C119 1.247 . S
O125 Cd114 2.439 . S
O125 C119 1.208 . S
O126 Cd127 2.223 . S
O126 C134 1.315 . S
Cd127 O126 2.223 . S
Cd127 O130 2.297 . S
Cd127 O131 2.439 . S
Cd127 O137 2.240 . S
Cd128 O129 2.240 . S
Cd128 O136 2.223 . S
Cd128 O138 2.297 . S
Cd128 O139 2.439 . S
O129 Cd128 2.240 . S
O129 C134 1.279 . S
O130 Cd127 2.297 . S
O130 C132 1.247 . S
O131 Cd127 2.439 . S
O131 C132 1.208 . S
C132 O130 1.247 . S
C132 O131 1.208 . S
C133 O138 1.247 . S
C133 O139 1.208 . S
C134 O126 1.315 . S
C134 O129 1.279 . S
C135 O136 1.315 . S
C135 O137 1.279 . S
O136 Cd128 2.223 . S
O136 C135 1.315 . S
O137 Cd127 2.240 . S
O137 C135 1.279 . S
O138 Cd128 2.297 . S
O138 C133 1.247 . S
O139 Cd128 2.439 . S
O139 C133 1.208 . S
O140 Cd141 2.223 . S
O140 C148 1.315 . S
Cd141 O140 2.223 . S
Cd141 O144 2.297 . S
Cd141 O145 2.439 . S
Cd141 O151 2.240 . S
Cd142 O143 2.240 . S
Cd142 O150 2.223 . S
Cd142 O152 2.297 . S
Cd142 O153 2.439 . S
O143 Cd142 2.240 . S
O143 C148 1.279 . S
O144 Cd141 2.297 . S
O144 C146 1.247 . S
O145 Cd141 2.439 . S
O145 C146 1.208 . S
C146 O144 1.247 . S
C146 O145 1.208 . S
C147 O152 1.247 . S
C147 O153 1.208 . S
C148 O140 1.315 . S
C148 O143 1.279 . S
C149 O150 1.315 . S
C149 O151 1.279 . S
O150 Cd142 2.223 . S
O150 C149 1.315 . S
O151 Cd141 2.240 . S
O151 C149 1.279 . S
O152 Cd142 2.297 . S
O152 C147 1.247 . S
O153 Cd142 2.439 . S
O153 C147 1.208 . S
O154 Cd155 2.223 . S
O154 C162 1.315 . S
Cd155 O154 2.223 . S
Cd155 O158 2.297 1_565 S
Cd155 O159 2.439 . S
Cd155 O165 2.240 . S
Cd156 O157 2.240 . S
Cd156 O164 2.223 . S
Cd156 O166 2.297 1_554 S
Cd156 O167 2.439 1_554 S
O157 Cd156 2.240 . S
O157 C162 1.279 . S
O158 Cd155 2.297 1_545 S
O158 C160 1.247 1_545 S
O159 Cd155 2.439 . S
O159 C160 1.208 . S
C160 O158 1.247 1_565 S
C160 O159 1.208 . S
C161 O166 1.247 . S
C161 O167 1.208 . S
C162 O154 1.315 . S
C162 O157 1.279 . S
C163 O164 1.315 . S
C163 O165 1.279 . S
O164 Cd156 2.223 . S
O164 C163 1.315 . S
O165 Cd155 2.240 . S
O165 C163 1.279 . S
O166 Cd156 2.297 1_556 S
O166 C161 1.247 . S
O167 Cd156 2.439 1_556 S
O167 C161 1.208 . S
O168 Cd169 2.223 . S
O168 C176 1.315 . S
Cd169 O168 2.223 . S
Cd169 O172 2.297 . S
Cd169 O173 2.439 . S
Cd169 O179 2.240 . S
Cd170 O171 2.240 . S
Cd170 O178 2.223 . S
Cd170 O180 2.297 1_554 S
Cd170 O181 2.439 1_554 S
O171 Cd170 2.240 . S
O171 C176 1.279 . S
O172 Cd169 2.297 . S
O172 C174 1.247 . S
O173 Cd169 2.439 . S
O173 C174 1.208 . S
C174 O172 1.247 . S
C174 O173 1.208 . S
C175 O180 1.247 . S
C175 O181 1.208 . S
C176 O168 1.315 . S
C176 O171 1.279 . S
C177 O178 1.315 . S
C177 O179 1.279 . S
O178 Cd170 2.223 . S
O178 C177 1.315 . S
O179 Cd169 2.240 . S
O179 C177 1.279 . S
O180 Cd170 2.297 1_556 S
O180 C175 1.247 . S
O181 Cd170 2.439 1_556 S
O181 C175 1.208 . S
O182 Cd183 2.223 . S
O182 C190 1.315 . S
Cd183 O182 2.223 . S
Cd183 O186 2.297 . S
Cd183 O187 2.439 1_554 S
Cd183 O193 2.240 1_554 S
Cd184 O185 2.240 1_556 S
Cd184 O192 2.219 1_556 S
Cd184 O194 2.297 . S
Cd184 O195 2.439 . S
O185 Cd184 2.240 1_554 S
O185 C190 1.279 . S
O186 Cd183 2.297 . S
O186 C188 1.247 . S
O187 Cd183 2.439 1_556 S
O187 C188 1.208 1_556 S
C188 O186 1.247 . S
C188 O187 1.208 1_554 S
C189 O194 1.247 . S
C189 O195 1.208 . S
C190 O182 1.315 . S
C190 O185 1.279 . S
C191 O192 1.314 1_556 S
C191 O193 1.279 . S
O192 Cd184 2.219 1_554 S
O192 C191 1.314 1_554 S
O193 Cd183 2.240 1_556 S
O193 C191 1.279 . S
O194 Cd184 2.297 . S
O194 C189 1.247 . S
O195 Cd184 2.439 . S
O195 C189 1.208 . S
O196 Cd197 2.223 . S
O196 C204 1.315 . S
Cd197 O196 2.223 . S
Cd197 O200 2.297 . S
Cd197 O201 2.439 . S
Cd197 O207 2.240 . S
Cd198 O199 2.240 . S
Cd198 O206 2.223 . S
Cd198 O208 2.297 . S
Cd198 O209 2.439 . S
O199 Cd198 2.240 . S
O199 C204 1.279 . S
O200 Cd197 2.297 . S
O200 C202 1.247 . S
O201 Cd197 2.439 . S
O201 C202 1.208 . S
C202 O200 1.247 . S
C202 O201 1.208 . S
C203 O208 1.247 . S
C203 O209 1.208 . S
C204 O196 1.315 . S
C204 O199 1.279 . S
C205 O206 1.315 . S
C205 O207 1.279 . S
O206 Cd198 2.223 . S
O206 C205 1.315 . S
O207 Cd197 2.240 . S
O207 C205 1.279 . S
O208 Cd198 2.297 . S
O208 C203 1.247 . S
O209 Cd198 2.439 . S
O209 C203 1.208 . S
O210 Cd211 2.223 . S
O210 C218 1.315 . S
Cd211 O210 2.223 . S
Cd211 O214 2.297 1_565 S
Cd211 O215 2.439 . S
Cd211 O221 2.240 . S
Cd212 O213 2.240 . S
Cd212 O220 2.223 . S
Cd212 O222 2.297 . S
Cd212 O223 2.439 . S
O213 Cd212 2.240 . S
O213 C218 1.279 . S
O214 Cd211 2.297 1_545 S
O214 C216 1.247 1_545 S
O215 Cd211 2.439 . S
O215 C216 1.208 . S
C216 O214 1.247 1_565 S
C216 O215 1.208 . S
C217 O222 1.247 . S
C217 O223 1.208 . S
C218 O210 1.315 . S
C218 O213 1.279 . S
C219 O220 1.315 . S
C219 O221 1.279 . S
O220 Cd212 2.223 . S
O220 C219 1.315 . S
O221 Cd211 2.240 . S
O221 C219 1.279 . S
O222 Cd212 2.297 . S
O222 C217 1.247 . S
O223 Cd212 2.439 . S
O223 C217 1.208 . S
O224 Cd225 2.223 . S
O224 C232 1.315 . S
Cd225 O224 2.223 . S
Cd225 O228 2.297 . S
Cd225 O229 2.439 . S
Cd225 O235 2.221 1_545 S
Cd226 O227 2.240 . S
Cd226 O234 2.223 1_545 S
Cd226 O236 2.297 . S
Cd226 O237 2.439 . S
O227 Cd226 2.240 . S
O227 C232 1.279 . S
O228 Cd225 2.297 . S
O228 C230 1.247 . S
O229 Cd225 2.439 . S
O229 C230 1.208 . S
C230 O228 1.247 . S
C230 O229 1.208 . S
C231 O236 1.247 . S
C231 O237 1.208 . S
C232 O224 1.315 . S
C232 O227 1.279 . S
C233 O234 1.315 . S
C233 O235 1.299 . S
O234 Cd226 2.223 1_565 S
O234 C233 1.315 . S
O235 Cd225 2.221 1_565 S
O235 C233 1.299 . S
O236 Cd226 2.297 . S
O236 C231 1.247 . S
O237 Cd226 2.439 . S
O237 C231 1.208 . S
O238 Cd239 2.223 . S
O238 C246 1.315 . S
Cd239 O238 2.223 . S
Cd239 O242 2.297 . S
Cd239 O243 2.439 . S
Cd239 O249 2.240 . S
Cd240 O241 2.240 . S
Cd240 O248 2.223 . S
Cd240 O250 2.297 . S
Cd240 O251 2.439 . S
O241 Cd240 2.240 . S
O241 C246 1.279 . S
O242 Cd239 2.297 . S
O242 C244 1.247 . S
O243 Cd239 2.439 . S
O243 C244 1.208 . S
C244 O242 1.247 . S
C244 O243 1.208 . S
C245 O250 1.247 . S
C245 O251 1.208 . S
C246 O238 1.315 . S
C246 O241 1.279 . S
C247 O248 1.315 . S
C247 O249 1.279 . S
O248 Cd240 2.223 . S
O248 C247 1.315 . S
O249 Cd239 2.240 . S
O249 C247 1.279 . S
O250 Cd240 2.297 . S
O250 C245 1.247 . S
O251 Cd240 2.439 . S
O251 C245 1.208 . S
O252 Cd253 2.223 . S
O252 C260 1.315 . S
Cd253 O252 2.223 . S
Cd253 O256 2.297 . S
Cd253 O257 2.439 . S
Cd253 O263 2.240 . S
Cd254 O255 2.240 . S
Cd254 O262 2.223 . S
Cd254 O264 2.297 . S
Cd254 O265 2.439 . S
O255 Cd254 2.240 . S
O255 C260 1.279 . S
O256 Cd253 2.297 . S
O256 C258 1.247 . S
O257 Cd253 2.439 . S
O257 C258 1.208 . S
C258 O256 1.247 . S
C258 O257 1.208 . S
C259 O264 1.247 . S
C259 O265 1.208 . S
C260 O252 1.315 . S
C260 O255 1.279 . S
C261 O262 1.315 . S
C261 O263 1.279 . S
O262 Cd254 2.223 . S
O262 C261 1.315 . S
O263 Cd253 2.240 . S
O263 C261 1.279 . S
O264 Cd254 2.297 . S
O264 C259 1.247 . S
O265 Cd254 2.439 . S
O265 C259 1.208 . S
O266 Cd267 2.223 1_545 S
O266 C274 1.315 1_545 S
Cd267 O266 2.223 1_565 S
Cd267 O270 2.297 . S
Cd267 O271 2.439 . S
Cd267 O277 2.240 1_565 S
Cd268 O269 2.240 1_545 S
Cd268 O276 2.223 . S
Cd268 O278 2.297 . S
Cd268 O279 2.439 1_545 S
O269 Cd268 2.240 1_565 S
O269 C274 1.279 . S
O270 Cd267 2.297 . S
O270 C272 1.247 . S
O271 Cd267 2.439 . S
O271 C272 1.208 . S
C272 O270 1.247 . S
C272 O271 1.208 . S
C273 O278 1.247 . S
C273 O279 1.208 1_545 S
C274 O266 1.315 1_565 S
C274 O269 1.279 . S
C275 O276 1.315 . S
C275 O277 1.279 . S
O276 Cd268 2.223 . S
O276 C275 1.315 . S
O277 Cd267 2.240 1_545 S
O277 C275 1.279 . S
O278 Cd268 2.297 . S
O278 C273 1.247 . S
O279 Cd268 2.439 1_565 S
O279 C273 1.208 1_565 S
O280 Cd281 2.223 . S
O280 C288 1.315 . S
Cd281 O280 2.223 . S
Cd281 O284 2.297 . S
Cd281 O285 2.439 . S
Cd281 O291 2.240 . S
Cd282 O283 2.240 . S
Cd282 O290 2.223 . S
Cd282 O292 2.297 1_554 S
Cd282 O293 2.439 1_554 S
O283 Cd282 2.240 . S
O283 C288 1.279 . S
O284 Cd281 2.297 . S
O284 C286 1.247 . S
O285 Cd281 2.439 . S
O285 C286 1.208 . S
C286 O284 1.247 . S
C286 O285 1.208 . S
C287 O292 1.247 . S
C287 O293 1.208 . S
C288 O280 1.315 . S
C288 O283 1.279 . S
C289 O290 1.315 . S
C289 O291 1.279 . S
O290 Cd282 2.223 . S
O290 C289 1.315 . S
O291 Cd281 2.240 . S
O291 C289 1.279 . S
O292 Cd282 2.297 1_556 S
O292 C287 1.247 . S
O293 Cd282 2.439 1_556 S
O293 C287 1.208 . S
O294 Cd295 2.223 . S
O294 C302 1.315 . S
Cd295 O294 2.223 . S
Cd295 O298 2.297 . S
Cd295 O299 2.439 . S
Cd295 O305 2.240 . S
Cd296 O297 2.228 1_455 S
Cd296 O304 2.223 1_455 S
Cd296 O306 2.297 . S
Cd296 O307 2.439 . S
O297 Cd296 2.228 1_655 S
O297 C302 1.286 . S
O298 Cd295 2.297 . S
O298 C300 1.247 . S
O299 Cd295 2.439 . S
O299 C300 1.208 . S
C300 O298 1.247 . S
C300 O299 1.208 . S
C301 O306 1.247 . S
C301 O307 1.208 . S
C302 O294 1.315 . S
C302 O297 1.286 . S
C303 O304 1.315 . S
C303 O305 1.279 . S
O304 Cd296 2.223 1_655 S
O304 C303 1.315 . S
O305 Cd295 2.240 . S
O305 C303 1.279 . S
O306 Cd296 2.297 . S
O306 C301 1.247 . S
O307 Cd296 2.439 . S
O307 C301 1.208 . S
O308 Cd309 2.223 . S
O308 C316 1.315 . S
Cd309 O308 2.223 . S
Cd309 O312 2.297 . S
Cd309 O313 2.439 . S
Cd309 O319 2.240 . S
Cd310 O311 2.240 . S
Cd310 O318 2.223 . S
Cd310 O320 2.297 . S
Cd310 O321 2.439 . S
O311 Cd310 2.240 . S
O311 C316 1.279 . S
O312 Cd309 2.297 . S
O312 C314 1.247 . S
O313 Cd309 2.439 . S
O313 C314 1.208 . S
C314 O312 1.247 . S
C314 O313 1.208 . S
C315 O320 1.247 . S
C315 O321 1.208 . S
C316 O308 1.315 . S
C316 O311 1.279 . S
C317 O318 1.315 . S
C317 O319 1.279 . S
O318 Cd310 2.223 . S
O318 C317 1.315 . S
O319 Cd309 2.240 . S
O319 C317 1.279 . S
O320 Cd310 2.297 . S
O320 C315 1.247 . S
O321 Cd310 2.439 . S
O321 C315 1.208 . S
O322 Cd323 2.223 . S
O322 C330 1.315 . S
Cd323 O322 2.223 . S
Cd323 O326 2.297 . S
Cd323 O327 2.439 . S
Cd323 O333 2.240 . S
Cd324 O325 2.240 . S
Cd324 O332 2.223 . S
Cd324 O334 2.297 . S
Cd324 O335 2.439 . S
O325 Cd324 2.240 . S
O325 C330 1.279 . S
O326 Cd323 2.297 . S
O326 C328 1.247 . S
O327 Cd323 2.439 . S
O327 C328 1.208 . S
C328 O326 1.247 . S
C328 O327 1.208 . S
C329 O334 1.247 . S
C329 O335 1.208 . S
C330 O322 1.315 . S
C330 O325 1.279 . S
C331 O332 1.315 . S
C331 O333 1.279 . S
O332 Cd324 2.223 . S
O332 C331 1.315 . S
O333 Cd323 2.240 . S
O333 C331 1.279 . S
O334 Cd324 2.297 . S
O334 C329 1.247 . S
O335 Cd324 2.439 . S
O335 C329 1.208 . S
Pr336 C338 2.880 1_454 S
Pr336 O356 2.562 1_455 S
Pr336 O357 2.490 1_454 S
Pr336 O358 2.695 . S
Pr336 O359 2.512 1_554 S
Pr336 O361 2.437 . S
Pr336 O364 2.436 . S
Pr336 O366 2.438 . S
Pr337 C347 2.880 . S
Pr337 O358 2.436 . S
Pr337 O360 2.438 . S
Pr337 O362 2.562 . S
Pr337 O363 2.490 . S
Pr337 O364 2.695 . S
Pr337 O365 2.512 . S
Pr337 O367 2.437 . S
C338 Pr336 2.880 1_656 S
C338 C339 1.491 . S
C338 O356 1.254 1_556 S
C338 O357 1.225 . S
C339 C338 1.491 . S
C339 C340 1.392 . S
C339 C344 1.371 . S
C340 C339 1.392 . S
C340 C341 1.368 . S
C340 H368 0.929 . S
C341 C340 1.368 . S
C341 C342 1.386 . S
C341 H369 0.929 . S
C342 C341 1.386 . S
C342 C343 1.373 . S
C343 C342 1.373 . S
C343 C344 1.415 . S
C343 H370 0.919 1_556 S
C344 C339 1.371 . S
C344 C343 1.415 . S
C344 H371 0.908 1_556 S
C345 O358 1.270 1_556 S
C345 O359 1.248 . S
C346 O360 1.267 . S
C346 O361 1.278 . S
C347 Pr337 2.880 . S
C347 C348 1.491 . S
C347 O362 1.254 . S
C347 O363 1.225 . S
C348 C347 1.491 . S
C348 C349 1.392 . S
C348 C353 1.356 . S
C349 C348 1.392 . S
C349 C350 1.368 . S
C349 H372 0.929 . S
C350 C349 1.368 . S
C350 C351 1.386 . S
C350 H373 0.929 . S
C351 C350 1.386 . S
C351 C352 1.373 . S
C352 C351 1.373 . S
C352 C353 1.409 . S
C352 H374 0.931 . S
C353 C348 1.356 . S
C353 C352 1.409 . S
C353 H375 0.930 . S
C354 O364 1.270 . S
C354 O365 1.248 . S
C355 O366 1.267 . S
C355 O367 1.278 . S
O356 Pr336 2.562 1_655 S
O356 C338 1.254 1_554 S
O357 Pr336 2.490 1_656 S
O357 C338 1.225 . S
O358 Pr336 2.695 . S
O358 Pr337 2.436 . S
O358 C345 1.270 1_554 S
O359 Pr336 2.512 1_556 S
O359 C345 1.248 . S
O360 Pr337 2.438 . S
O360 C346 1.267 . S
O361 Pr336 2.437 . S
O361 C346 1.278 . S
O362 Pr337 2.562 . S
O362 C347 1.254 . S
O363 Pr337 2.490 . S
O363 C347 1.225 . S
O364 Pr336 2.436 . S
O364 Pr337 2.695 . S
O364 C354 1.270 . S
O365 Pr337 2.512 . S
O365 C354 1.248 . S
O366 Pr336 2.438 . S
O366 C355 1.267 . S
O367 Pr337 2.437 . S
O367 C355 1.278 . S
H368 C340 0.929 . S
H369 C341 0.929 . S
H370 C343 0.919 1_554 S
H371 C344 0.908 1_554 S
H372 C349 0.929 . S
H373 C350 0.929 . S
H374 C352 0.931 . S
H375 C353 0.930 . S
Pr376 C378 2.880 . S
Pr376 O396 2.562 . S
Pr376 O397 2.490 . S
Pr376 O398 2.695 . S
Pr376 O399 2.512 . S
Pr376 O401 2.437 . S
Pr376 O404 2.436 . S
Pr376 O406 2.438 . S
Pr377 C387 2.880 . S
Pr377 O398 2.436 . S
Pr377 O400 2.438 . S
Pr377 O402 2.562 . S
Pr377 O403 2.490 . S
Pr377 O404 2.695 . S
Pr377 O405 2.512 . S
Pr377 O407 2.437 . S
C378 Pr376 2.880 . S
C378 C379 1.491 . S
C378 O396 1.254 . S
C378 O397 1.225 . S
C379 C378 1.491 . S
C379 C380 1.392 1_565 S
C379 C384 1.356 1_565 S
C380 C379 1.392 1_545 S
C380 C381 1.368 . S
C380 H408 0.929 . S
C381 C380 1.368 . S
C381 C382 1.386 . S
C381 H409 0.929 . S
C382 C381 1.386 . S
C382 C383 1.373 . S
C383 C382 1.373 . S
C383 C384 1.409 . S
C383 H410 0.931 . S
C384 C379 1.356 1_545 S
C384 C383 1.409 . S
C384 H411 0.930 1_545 S
C385 O398 1.270 . S
C385 O399 1.248 . S
C386 O400 1.267 . S
C386 O401 1.278 . S
C387 Pr377 2.880 . S
C387 C388 1.491 . S
C387 O402 1.254 . S
C387 O403 1.225 . S
C388 C387 1.491 . S
C388 C389 1.392 . S
C388 C393 1.356 . S
C389 C388 1.392 . S
C389 C390 1.368 . S
C389 H412 0.929 . S
C390 C389 1.368 . S
C390 C391 1.386 . S
C390 H413 0.929 . S
C391 C390 1.386 . S
C391 C392 1.373 . S
C392 C391 1.373 . S
C392 C393 1.409 . S
C392 H414 0.931 . S
C393 C388 1.356 . S
C393 C392 1.409 . S
C393 H415 0.930 . S
C394 O404 1.270 . S
C394 O405 1.248 . S
C395 O406 1.267 . S
C395 O407 1.278 . S
O396 Pr376 2.562 . S
O396 C378 1.254 . S
O397 Pr376 2.490 . S
O397 C378 1.225 . S
O398 Pr376 2.695 . S
O398 Pr377 2.436 . S
O398 C385 1.270 . S
O399 Pr376 2.512 . S
O399 C385 1.248 . S
O400 Pr377 2.438 . S
O400 C386 1.267 . S
O401 Pr376 2.437 . S
O401 C386 1.278 . S
O402 Pr377 2.562 . S
O402 C387 1.254 . S
O403 Pr377 2.490 . S
O403 C387 1.225 . S
O404 Pr376 2.436 . S
O404 Pr377 2.695 . S
O404 C394 1.270 . S
O405 Pr377 2.512 . S
O405 C394 1.248 . S
O406 Pr376 2.438 . S
O406 C395 1.267 . S
O407 Pr377 2.437 . S
O407 C395 1.278 . S
H408 C380 0.929 . S
H409 C381 0.929 . S
H410 C383 0.931 . S
H411 C384 0.930 1_565 S
H412 C389 0.929 . S
H413 C390 0.929 . S
H414 C392 0.931 . S
H415 C393 0.930 . S
Pr416 C418 2.880 . S
Pr416 O436 2.562 . S
Pr416 O437 2.490 . S
Pr416 O438 2.695 . S
Pr416 O439 2.512 . S
Pr416 O441 2.437 . S
Pr416 O444 2.436 . S
Pr416 O446 2.438 . S
Pr417 C427 2.880 . S
Pr417 O438 2.436 . S
Pr417 O440 2.438 . S
Pr417 O442 2.562 . S
Pr417 O443 2.490 . S
Pr417 O444 2.695 . S
Pr417 O445 2.512 . S
Pr417 O447 2.437 . S
C418 Pr416 2.880 . S
C418 C419 1.491 . S
C418 O436 1.254 . S
C418 O437 1.225 . S
C419 C418 1.491 . S
C419 C420 1.392 . S
C419 C424 1.356 . S
C420 C419 1.392 . S
C420 C421 1.368 . S
C420 H448 0.929 . S
C421 C420 1.368 . S
C421 C422 1.386 . S
C421 H449 0.929 . S
C422 C421 1.386 . S
C422 C423 1.373 . S
C423 C422 1.373 . S
C423 C424 1.409 . S
C423 H450 0.931 . S
C424 C419 1.356 . S
C424 C423 1.409 . S
C424 H451 0.930 . S
C425 O438 1.270 . S
C425 O439 1.248 . S
C426 O440 1.267 . S
C426 O441 1.278 . S
C427 Pr417 2.880 . S
C427 C428 1.491 . S
C427 O442 1.254 . S
C427 O443 1.225 . S
C428 C427 1.491 . S
C428 C429 1.392 . S
C428 C433 1.356 . S
C429 C428 1.392 . S
C429 C430 1.368 . S
C429 H452 0.929 . S
C430 C429 1.368 . S
C430 C431 1.386 . S
C430 H453 0.929 . S
C431 C430 1.386 . S
C431 C432 1.373 . S
C432 C431 1.373 . S
C432 C433 1.409 . S
C432 H454 0.931 . S
C433 C428 1.356 . S
C433 C432 1.409 . S
C433 H455 0.930 . S
C434 O444 1.270 . S
C434 O445 1.248 . S
C435 O446 1.267 . S
C435 O447 1.278 . S
O436 Pr416 2.562 . S
O436 C418 1.254 . S
O437 Pr416 2.490 . S
O437 C418 1.225 . S
O438 Pr416 2.695 . S
O438 Pr417 2.436 . S
O438 C425 1.270 . S
O439 Pr416 2.512 . S
O439 C425 1.248 . S
O440 Pr417 2.438 . S
O440 C426 1.267 . S
O441 Pr416 2.437 . S
O441 C426 1.278 . S
O442 Pr417 2.562 . S
O442 C427 1.254 . S
O443 Pr417 2.490 . S
O443 C427 1.225 . S
O444 Pr416 2.436 . S
O444 Pr417 2.695 . S
O444 C434 1.270 . S
O445 Pr417 2.512 . S
O445 C434 1.248 . S
O446 Pr416 2.438 . S
O446 C435 1.267 . S
O447 Pr417 2.437 . S
O447 C435 1.278 . S
H448 C420 0.929 . S
H449 C421 0.929 . S
H450 C423 0.931 . S
H451 C424 0.930 . S
H452 C429 0.929 . S
H453 C430 0.929 . S
H454 C432 0.931 . S
H455 C433 0.930 . S
Pr456 C458 2.880 . S
Pr456 O476 2.562 . S
Pr456 O477 2.490 . S
Pr456 O478 2.695 . S
Pr456 O479 2.512 . S
Pr456 O481 2.437 . S
Pr456 O484 2.436 . S
Pr456 O486 2.438 . S
Pr457 C467 2.880 . S
Pr457 O478 2.436 . S
Pr457 O480 2.438 . S
Pr457 O482 2.562 . S
Pr457 O483 2.490 . S
Pr457 O484 2.695 . S
Pr457 O485 2.512 . S
Pr457 O487 2.437 . S
C458 Pr456 2.880 . S
C458 C459 1.491 . S
C458 O476 1.254 . S
C458 O477 1.225 . S
C459 C458 1.491 . S
C459 C460 1.392 . S
C459 C464 1.356 . S
C460 C459 1.392 . S
C460 C461 1.368 . S
C460 H488 0.929 . S
C461 C460 1.368 . S
C461 C462 1.386 . S
C461 H489 0.929 . S
C462 C461 1.386 . S
C462 C463 1.373 . S
C463 C462 1.373 . S
C463 C464 1.409 . S
C463 H490 0.931 . S
C464 C459 1.356 . S
C464 C463 1.409 . S
C464 H491 0.930 . S
C465 O478 1.270 . S
C465 O479 1.248 . S
C466 O480 1.267 . S
C466 O481 1.278 . S
C467 Pr457 2.880 . S
C467 C468 1.491 . S
C467 O482 1.254 . S
C467 O483 1.225 . S
C468 C467 1.491 . S
C468 C469 1.392 . S
C468 C473 1.356 . S
C469 C468 1.392 . S
C469 C470 1.368 . S
C469 H492 0.929 . S
C470 C469 1.368 . S
C470 C471 1.386 . S
C470 H493 0.929 . S
C471 C470 1.386 . S
C471 C472 1.373 . S
C472 C471 1.373 . S
C472 C473 1.409 . S
C472 H494 0.931 . S
C473 C468 1.356 . S
C473 C472 1.409 . S
C473 H495 0.930 . S
C474 O484 1.270 . S
C474 O485 1.248 . S
C475 O486 1.267 . S
C475 O487 1.278 . S
O476 Pr456 2.562 . S
O476 C458 1.254 . S
O477 Pr456 2.490 . S
O477 C458 1.225 . S
O478 Pr456 2.695 . S
O478 Pr457 2.436 . S
O478 C465 1.270 . S
O479 Pr456 2.512 . S
O479 C465 1.248 . S
O480 Pr457 2.438 . S
O480 C466 1.267 . S
O481 Pr456 2.437 . S
O481 C466 1.278 . S
O482 Pr457 2.562 . S
O482 C467 1.254 . S
O483 Pr457 2.490 . S
O483 C467 1.225 . S
O484 Pr456 2.436 . S
O484 Pr457 2.695 . S
O484 C474 1.270 . S
O485 Pr457 2.512 . S
O485 C474 1.248 . S
O486 Pr456 2.438 . S
O486 C475 1.267 . S
O487 Pr457 2.437 . S
O487 C475 1.278 . S
H488 C460 0.929 . S
H489 C461 0.929 . S
H490 C463 0.931 . S
H491 C464 0.930 . S
H492 C469 0.929 . S
H493 C470 0.929 . S
H494 C472 0.931 . S
H495 C473 0.930 . S
Pr496 C498 2.880 . S
Pr496 O516 2.562 . S
Pr496 O517 2.490 . S
Pr496 O518 2.695 . S
Pr496 O519 2.512 . S
Pr496 O521 2.437 . S
Pr496 O524 2.436 . S
Pr496 O526 2.438 . S
Pr497 C507 2.880 . S
Pr497 O518 2.436 . S
Pr497 O520 2.438 . S
Pr497 O522 2.562 . S
Pr497 O523 2.490 . S
Pr497 O524 2.695 . S
Pr497 O525 2.512 . S
Pr497 O527 2.437 . S
C498 Pr496 2.880 . S
C498 C499 1.491 . S
C498 O516 1.254 . S
C498 O517 1.225 . S
C499 C498 1.491 . S
C499 C500 1.392 . S
C499 C504 1.356 1_455 S
C500 C499 1.392 . S
C500 C501 1.368 . S
C500 H528 0.929 . S
C501 C500 1.368 . S
C501 C502 1.386 1_455 S
C501 H529 0.929 . S
C502 C501 1.386 1_655 S
C502 C503 1.373 . S
C503 C502 1.373 . S
C503 C504 1.409 . S
C503 H530 0.931 . S
C504 C499 1.356 1_655 S
C504 C503 1.409 . S
C504 H531 0.930 . S
C505 O518 1.270 . S
C505 O519 1.248 . S
C506 O520 1.267 . S
C506 O521 1.278 . S
C507 Pr497 2.880 . S
C507 C508 1.491 . S
C507 O522 1.254 . S
C507 O523 1.225 . S
C508 C507 1.491 . S
C508 C509 1.392 . S
C508 C513 1.356 . S
C509 C508 1.392 . S
C509 C510 1.368 . S
C509 H532 0.929 . S
C510 C509 1.368 . S
C510 C511 1.386 . S
C510 H533 0.929 . S
C511 C510 1.386 . S
C511 C512 1.373 . S
C512 C511 1.373 . S
C512 C513 1.409 . S
C512 H534 0.931 . S
C513 C508 1.356 . S
C513 C512 1.409 . S
C513 H535 0.930 . S
C514 O524 1.270 . S
C514 O525 1.248 . S
C515 O526 1.267 . S
C515 O527 1.278 . S
O516 Pr496 2.562 . S
O516 C498 1.254 . S
O517 Pr496 2.490 . S
O517 C498 1.225 . S
O518 Pr496 2.695 . S
O518 Pr497 2.436 . S
O518 C505 1.270 . S
O519 Pr496 2.512 . S
O519 C505 1.248 . S
O520 Pr497 2.438 . S
O520 C506 1.267 . S
O521 Pr496 2.437 . S
O521 C506 1.278 . S
O522 Pr497 2.562 . S
O522 C507 1.254 . S
O523 Pr497 2.490 . S
O523 C507 1.225 . S
O524 Pr496 2.436 . S
O524 Pr497 2.695 . S
O524 C514 1.270 . S
O525 Pr497 2.512 . S
O525 C514 1.248 . S
O526 Pr496 2.438 . S
O526 C515 1.267 . S
O527 Pr497 2.437 . S
O527 C515 1.278 . S
H528 C500 0.929 . S
H529 C501 0.929 . S
H530 C503 0.931 . S
H531 C504 0.930 . S
H532 C509 0.929 . S
H533 C510 0.929 . S
H534 C512 0.931 . S
H535 C513 0.930 . S
Pr536 C538 2.880 . S
Pr536 O556 2.562 . S
Pr536 O557 2.490 . S
Pr536 O558 2.695 . S
Pr536 O559 2.512 . S
Pr536 O561 2.437 . S
Pr536 O564 2.436 . S
Pr536 O566 2.438 . S
Pr537 C547 2.880 . S
Pr537 O558 2.436 . S
Pr537 O560 2.438 . S
Pr537 O562 2.562 . S
Pr537 O563 2.490 . S
Pr537 O564 2.695 . S
Pr537 O565 2.512 . S
Pr537 O567 2.437 . S
C538 Pr536 2.880 . S
C538 C539 1.491 . S
C538 O556 1.254 . S
C538 O557 1.225 . S
C539 C538 1.491 . S
C539 C540 1.392 . S
C539 C544 1.356 . S
C540 C539 1.392 . S
C540 C541 1.368 . S
C540 H568 0.929 . S
C541 C540 1.368 . S
C541 C542 1.386 . S
C541 H569 0.929 . S
C542 C541 1.386 . S
C542 C543 1.373 . S
C543 C542 1.373 . S
C543 C544 1.409 . S
C543 H570 0.931 . S
C544 C539 1.356 . S
C544 C543 1.409 . S
C544 H571 0.930 . S
C545 O558 1.270 . S
C545 O559 1.248 . S
C546 O560 1.267 . S
C546 O561 1.278 . S
C547 Pr537 2.880 . S
C547 C548 1.491 . S
C547 O562 1.254 . S
C547 O563 1.225 . S
C548 C547 1.491 . S
C548 C549 1.392 . S
C548 C553 1.356 . S
C549 C548 1.392 . S
C549 C550 1.368 1_565 S
C549 H572 0.929 . S
C550 C549 1.368 1_545 S
C550 C551 1.386 . S
C550 H573 0.929 . S
C551 C550 1.386 . S
C551 C552 1.373 . S
C552 C551 1.373 . S
C552 C553 1.409 1_545 S
C552 H574 0.931 . S
C553 C548 1.356 . S
C553 C552 1.409 1_565 S
C553 H575 0.930 . S
C554 O564 1.270 . S
C554 O565 1.248 . S
C555 O566 1.267 . S
C555 O567 1.278 . S
O556 Pr536 2.562 . S
O556 C538 1.254 . S
O557 Pr536 2.490 . S
O557 C538 1.225 . S
O558 Pr536 2.695 . S
O558 Pr537 2.436 . S
O558 C545 1.270 . S
O559 Pr536 2.512 . S
O559 C545 1.248 . S
O560 Pr537 2.438 . S
O560 C546 1.267 . S
O561 Pr536 2.437 . S
O561 C546 1.278 . S
O562 Pr537 2.562 . S
O562 C547 1.254 . S
O563 Pr537 2.490 . S
O563 C547 1.225 . S
O564 Pr536 2.436 . S
O564 Pr537 2.695 . S
O564 C554 1.270 . S
O565 Pr537 2.512 . S
O565 C554 1.248 . S
O566 Pr536 2.438 . S
O566 C555 1.267 . S
O567 Pr537 2.437 . S
O567 C555 1.278 . S
H568 C540 0.929 . S
H569 C541 0.929 . S
H570 C543 0.931 . S
H571 C544 0.930 . S
H572 C549 0.929 . S
H573 C550 0.929 . S
H574 C552 0.931 . S
H575 C553 0.930 . S
Pr576 C578 2.880 . S
Pr576 O596 2.562 . S
Pr576 O597 2.490 . S
Pr576 O598 2.695 . S
Pr576 O599 2.512 . S
Pr576 O601 2.437 . S
Pr576 O604 2.436 . S
Pr576 O606 2.438 . S
Pr577 C587 2.880 . S
Pr577 O598 2.436 1_556 S
Pr577 O600 2.438 1_556 S
Pr577 O602 2.562 . S
Pr577 O603 2.490 . S
Pr577 O604 2.695 1_556 S
Pr577 O605 2.512 1_556 S
Pr577 O607 2.437 1_556 S
C578 Pr576 2.880 . S
C578 C579 1.491 . S
C578 O596 1.254 . S
C578 O597 1.225 . S
C579 C578 1.491 . S
C579 C580 1.392 . S
C579 C584 1.356 . S
C580 C579 1.392 . S
C580 C581 1.368 . S
C580 H608 0.929 . S
C581 C580 1.368 . S
C581 C582 1.386 . S
C581 H609 0.929 . S
C582 C581 1.386 . S
C582 C583 1.373 . S
C583 C582 1.373 . S
C583 C584 1.409 . S
C583 H610 0.931 . S
C584 C579 1.356 . S
C584 C583 1.409 . S
C584 H611 0.930 . S
C585 O598 1.270 . S
C585 O599 1.248 . S
C586 O600 1.267 . S
C586 O601 1.278 . S
C587 Pr577 2.880 . S
C587 C588 1.491 . S
C587 O602 1.254 . S
C587 O603 1.225 . S
C588 C587 1.491 . S
C588 C589 1.392 . S
C588 C593 1.356 . S
C589 C588 1.392 . S
C589 C590 1.368 . S
C589 H612 0.929 . S
C590 C589 1.368 . S
C590 C591 1.386 . S
C590 H613 0.929 . S
C591 C590 1.386 . S
C591 C592 1.373 . S
C592 C591 1.373 . S
C592 C593 1.409 . S
C592 H614 0.931 . S
C593 C588 1.356 . S
C593 C592 1.409 . S
C593 H615 0.930 . S
C594 O604 1.270 . S
C594 O605 1.248 . S
C595 O606 1.267 . S
C595 O607 1.278 . S
O596 Pr576 2.562 . S
O596 C578 1.254 . S
O597 Pr576 2.490 . S
O597 C578 1.225 . S
O598 Pr576 2.695 . S
O598 Pr577 2.436 1_554 S
O598 C585 1.270 . S
O599 Pr576 2.512 . S
O599 C585 1.248 . S
O600 Pr577 2.438 1_554 S
O600 C586 1.267 . S
O601 Pr576 2.437 . S
O601 C586 1.278 . S
O602 Pr577 2.562 . S
O602 C587 1.254 . S
O603 Pr577 2.490 . S
O603 C587 1.225 . S
O604 Pr576 2.436 . S
O604 Pr577 2.695 1_554 S
O604 C594 1.270 . S
O605 Pr577 2.512 1_554 S
O605 C594 1.248 . S
O606 Pr576 2.438 . S
O606 C595 1.267 . S
O607 Pr577 2.437 1_554 S
O607 C595 1.278 . S
H608 C580 0.929 . S
H609 C581 0.929 . S
H610 C583 0.931 . S
H611 C584 0.930 . S
H612 C589 0.929 . S
H613 C590 0.929 . S
H614 C592 0.931 . S
H615 C593 0.930 . S
Pr616 C618 2.880 . S
Pr616 O636 2.562 . S
Pr616 O637 2.490 . S
Pr616 O638 2.695 . S
Pr616 O639 2.512 . S
Pr616 O641 2.437 . S
Pr616 O644 2.436 . S
Pr616 O646 2.438 . S
Pr617 C627 2.880 . S
Pr617 O638 2.436 . S
Pr617 O640 2.438 . S
Pr617 O642 2.562 . S
Pr617 O643 2.490 . S
Pr617 O644 2.695 . S
Pr617 O645 2.512 . S
Pr617 O647 2.437 . S
C618 Pr616 2.880 . S
C618 C619 1.491 . S
C618 O636 1.254 . S
C618 O637 1.225 . S
C619 C618 1.491 . S
C619 C620 1.392 . S
C619 C624 1.356 . S
C620 C619 1.392 . S
C620 C621 1.368 . S
C620 H648 0.929 . S
C621 C620 1.368 . S
C621 C622 1.386 . S
C621 H649 0.929 . S
C622 C621 1.386 . S
C622 C623 1.373 . S
C623 C622 1.373 . S
C623 C624 1.409 . S
C623 H650 0.931 . S
C624 C619 1.356 . S
C624 C623 1.409 . S
C624 H651 0.930 . S
C625 O638 1.270 . S
C625 O639 1.248 . S
C626 O640 1.267 . S
C626 O641 1.278 . S
C627 Pr617 2.880 . S
C627 C628 1.491 . S
C627 O642 1.254 . S
C627 O643 1.225 . S
C628 C627 1.491 . S
C628 C629 1.392 . S
C628 C633 1.356 . S
C629 C628 1.392 . S
C629 C630 1.368 . S
C629 H652 0.929 . S
C630 C629 1.368 . S
C630 C631 1.386 . S
C630 H653 0.929 . S
C631 C630 1.386 . S
C631 C632 1.373 . S
C632 C631 1.373 . S
C632 C633 1.409 . S
C632 H654 0.931 . S
C633 C628 1.356 . S
C633 C632 1.409 . S
C633 H655 0.930 . S
C634 O644 1.270 . S
C634 O645 1.248 . S
C635 O646 1.267 . S
C635 O647 1.278 . S
O636 Pr616 2.562 . S
O636 C618 1.254 . S
O637 Pr616 2.490 . S
O637 C618 1.225 . S
O638 Pr616 2.695 . S
O638 Pr617 2.436 . S
O638 C625 1.270 . S
O639 Pr616 2.512 . S
O639 C625 1.248 . S
O640 Pr617 2.438 . S
O640 C626 1.267 . S
O641 Pr616 2.437 . S
O641 C626 1.278 . S
O642 Pr617 2.562 . S
O642 C627 1.254 . S
O643 Pr617 2.490 . S
O643 C627 1.225 . S
O644 Pr616 2.436 . S
O644 Pr617 2.695 . S
O644 C634 1.270 . S
O645 Pr617 2.512 . S
O645 C634 1.248 . S
O646 Pr616 2.438 . S
O646 C635 1.267 . S
O647 Pr617 2.437 . S
O647 C635 1.278 . S
H648 C620 0.929 . S
H649 C621 0.929 . S
H650 C623 0.931 . S
H651 C624 0.930 . S
H652 C629 0.929 . S
H653 C630 0.929 . S
H654 C632 0.931 . S
H655 C633 0.930 . S
Pr656 C658 2.880 . S
Pr656 O676 2.562 . S
Pr656 O677 2.490 . S
Pr656 O678 2.695 1_556 S
Pr656 O679 2.512 . S
Pr656 O681 2.437 . S
Pr656 O684 2.436 1_556 S
Pr656 O686 2.438 1_556 S
Pr657 C667 2.880 . S
Pr657 O678 2.436 . S
Pr657 O680 2.438 . S
Pr657 O682 2.562 . S
Pr657 O683 2.490 . S
Pr657 O684 2.695 . S
Pr657 O685 2.512 . S
Pr657 O687 2.437 . S
C658 Pr656 2.880 . S
C658 C659 1.491 . S
C658 O676 1.254 . S
C658 O677 1.225 . S
C659 C658 1.491 . S
C659 C660 1.392 . S
C659 C664 1.356 . S
C660 C659 1.392 . S
C660 C661 1.368 . S
C660 H688 0.929 . S
C661 C660 1.368 . S
C661 C662 1.386 . S
C661 H689 0.929 . S
C662 C661 1.386 . S
C662 C663 1.373 . S
C663 C662 1.373 . S
C663 C664 1.409 . S
C663 H690 0.931 . S
C664 C659 1.356 . S
C664 C663 1.409 . S
C664 H691 0.930 . S
C665 O678 1.270 . S
C665 O679 1.248 1_554 S
C666 O680 1.267 . S
C666 O681 1.278 1_554 S
C667 Pr657 2.880 . S
C667 C668 1.491 . S
C667 O682 1.254 . S
C667 O683 1.225 . S
C668 C667 1.491 . S
C668 C669 1.392 . S
C668 C673 1.356 . S
C669 C668 1.392 . S
C669 C670 1.368 . S
C669 H692 0.929 . S
C670 C669 1.368 . S
C670 C671 1.386 . S
C670 H693 0.929 . S
C671 C670 1.386 . S
C671 C672 1.373 . S
C672 C671 1.373 . S
C672 C673 1.409 . S
C672 H694 0.931 . S
C673 C668 1.356 . S
C673 C672 1.409 . S
C673 H695 0.930 . S
C674 O684 1.270 . S
C674 O685 1.248 . S
C675 O686 1.267 . S
C675 O687 1.278 . S
O676 Pr656 2.562 . S
O676 C658 1.254 . S
O677 Pr656 2.490 . S
O677 C658 1.225 . S
O678 Pr656 2.695 1_554 S
O678 Pr657 2.436 . S
O678 C665 1.270 . S
O679 Pr656 2.512 . S
O679 C665 1.248 1_556 S
O680 Pr657 2.438 . S
O680 C666 1.267 . S
O681 Pr656 2.437 . S
O681 C666 1.278 1_556 S
O682 Pr657 2.562 . S
O682 C667 1.254 . S
O683 Pr657 2.490 . S
O683 C667 1.225 . S
O684 Pr656 2.436 1_554 S
O684 Pr657 2.695 . S
O684 C674 1.270 . S
O685 Pr657 2.512 . S
O685 C674 1.248 . S
O686 Pr656 2.438 1_554 S
O686 C675 1.267 . S
O687 Pr657 2.437 . S
O687 C675 1.278 . S
H688 C660 0.929 . S
H689 C661 0.929 . S
H690 C663 0.931 . S
H691 C664 0.930 . S
H692 C669 0.929 . S
H693 C670 0.929 . S
H694 C672 0.931 . S
H695 C673 0.930 . S
Pr696 C698 2.880 . S
Pr696 O716 2.562 . S
Pr696 O717 2.490 . S
Pr696 O718 2.695 . S
Pr696 O719 2.512 . S
Pr696 O721 2.437 . S
Pr696 O724 2.436 . S
Pr696 O726 2.438 . S
Pr697 C707 2.880 . S
Pr697 O718 2.436 . S
Pr697 O720 2.438 . S
Pr697 O722 2.562 . S
Pr697 O723 2.490 . S
Pr697 O724 2.695 . S
Pr697 O725 2.512 . S
Pr697 O727 2.437 . S
C698 Pr696 2.880 . S
C698 C699 1.491 . S
C698 O716 1.254 . S
C698 O717 1.225 . S
C699 C698 1.491 . S
C699 C700 1.392 . S
C699 C704 1.356 . S
C700 C699 1.392 . S
C700 C701 1.368 . S
C700 H728 0.929 . S
C701 C700 1.368 . S
C701 C702 1.386 . S
C701 H729 0.929 . S
C702 C701 1.386 . S
C702 C703 1.373 . S
C703 C702 1.373 . S
C703 C704 1.409 . S
C703 H730 0.931 . S
C704 C699 1.356 . S
C704 C703 1.409 . S
C704 H731 0.930 . S
C705 O718 1.270 . S
C705 O719 1.248 . S
C706 O720 1.267 . S
C706 O721 1.278 . S
C707 Pr697 2.880 . S
C707 C708 1.491 . S
C707 O722 1.254 . S
C707 O723 1.225 . S
C708 C707 1.491 . S
C708 C709 1.392 . S
C708 C713 1.356 . S
C709 C708 1.392 . S
C709 C710 1.368 . S
C709 H732 0.929 . S
C710 C709 1.368 . S
C710 C711 1.386 . S
C710 H733 0.929 . S
C711 C710 1.386 . S
C711 C712 1.373 . S
C712 C711 1.373 . S
C712 C713 1.409 . S
C712 H734 0.931 . S
C713 C708 1.356 . S
C713 C712 1.409 . S
C713 H735 0.930 . S
C714 O724 1.270 . S
C714 O725 1.248 . S
C715 O726 1.267 . S
C715 O727 1.278 . S
O716 Pr696 2.562 . S
O716 C698 1.254 . S
O717 Pr696 2.490 . S
O717 C698 1.225 . S
O718 Pr696 2.695 . S
O718 Pr697 2.436 . S
O718 C705 1.270 . S
O719 Pr696 2.512 . S
O719 C705 1.248 . S
O720 Pr697 2.438 . S
O720 C706 1.267 . S
O721 Pr696 2.437 . S
O721 C706 1.278 . S
O722 Pr697 2.562 . S
O722 C707 1.254 . S
O723 Pr697 2.490 . S
O723 C707 1.225 . S
O724 Pr696 2.436 . S
O724 Pr697 2.695 . S
O724 C714 1.270 . S
O725 Pr697 2.512 . S
O725 C714 1.248 . S
O726 Pr696 2.438 . S
O726 C715 1.267 . S
O727 Pr697 2.437 . S
O727 C715 1.278 . S
H728 C700 0.929 . S
H729 C701 0.929 . S
H730 C703 0.931 . S
H731 C704 0.930 . S
H732 C709 0.929 . S
H733 C710 0.929 . S
H734 C712 0.931 . S
H735 C713 0.930 . S
Pr736 C738 2.880 . S
Pr736 O756 2.562 . S
Pr736 O757 2.490 . S
Pr736 O758 2.695 . S
Pr736 O759 2.512 . S
Pr736 O761 2.437 . S
Pr736 O764 2.436 . S
Pr736 O766 2.438 . S
Pr737 C747 2.880 . S
Pr737 O758 2.436 . S
Pr737 O760 2.427 1_455 S
Pr737 O762 2.562 . S
Pr737 O763 2.490 . S
Pr737 O764 2.695 . S
Pr737 O765 2.512 . S
Pr737 O767 2.437 . S
C738 Pr736 2.880 . S
C738 C739 1.491 . S
C738 O756 1.254 . S
C738 O757 1.225 . S
C739 C738 1.491 . S
C739 C740 1.392 . S
C739 C744 1.356 . S
C740 C739 1.392 . S
C740 C741 1.368 . S
C740 H768 0.929 . S
C741 C740 1.368 . S
C741 C742 1.386 . S
C741 H769 0.929 . S
C742 C741 1.386 . S
C742 C743 1.373 . S
C743 C742 1.373 . S
C743 C744 1.409 . S
C743 H770 0.931 1_455 S
C744 C739 1.356 . S
C744 C743 1.409 . S
C744 H771 0.930 . S
C745 O758 1.270 . S
C745 O759 1.248 . S
C746 O760 1.270 . S
C746 O761 1.278 1_655 S
C747 Pr737 2.880 . S
C747 C748 1.491 . S
C747 O762 1.254 . S
C747 O763 1.225 . S
C748 C747 1.491 . S
C748 C749 1.392 . S
C748 C753 1.356 . S
C749 C748 1.392 . S
C749 C750 1.368 . S
C749 H772 0.929 . S
C750 C749 1.368 . S
C750 C751 1.386 . S
C750 H773 0.929 . S
C751 C750 1.386 . S
C751 C752 1.373 . S
C752 C751 1.373 . S
C752 C753 1.409 . S
C752 H774 0.931 . S
C753 C748 1.356 . S
C753 C752 1.409 . S
C753 H775 0.930 . S
C754 O764 1.270 . S
C754 O765 1.248 . S
C755 O766 1.267 . S
C755 O767 1.278 . S
O756 Pr736 2.562 . S
O756 C738 1.254 . S
O757 Pr736 2.490 . S
O757 C738 1.225 . S
O758 Pr736 2.695 . S
O758 Pr737 2.436 . S
O758 C745 1.270 . S
O759 Pr736 2.512 . S
O759 C745 1.248 . S
O760 Pr737 2.427 1_655 S
O760 C746 1.270 . S
O761 Pr736 2.437 . S
O761 C746 1.278 1_455 S
O762 Pr737 2.562 . S
O762 C747 1.254 . S
O763 Pr737 2.490 . S
O763 C747 1.225 . S
O764 Pr736 2.436 . S
O764 Pr737 2.695 . S
O764 C754 1.270 . S
O765 Pr737 2.512 . S
O765 C754 1.248 . S
O766 Pr736 2.438 . S
O766 C755 1.267 . S
O767 Pr737 2.437 . S
O767 C755 1.278 . S
H768 C740 0.929 . S
H769 C741 0.929 . S
H770 C743 0.931 1_655 S
H771 C744 0.930 . S
H772 C749 0.929 . S
H773 C750 0.929 . S
H774 C752 0.931 . S
H775 C753 0.930 . S
Pr776 C778 2.880 . S
Pr776 O796 2.562 . S
Pr776 O797 2.490 . S
Pr776 O798 2.695 . S
Pr776 O799 2.512 . S
Pr776 O801 2.437 . S
Pr776 O804 2.436 . S
Pr776 O806 2.438 . S
Pr777 C787 2.880 . S
Pr777 O798 2.436 . S
Pr777 O800 2.438 . S
Pr777 O802 2.562 . S
Pr777 O803 2.490 . S
Pr777 O804 2.695 . S
Pr777 O805 2.512 . S
Pr777 O807 2.437 . S
C778 Pr776 2.880 . S
C778 C779 1.491 . S
C778 O796 1.254 . S
C778 O797 1.225 . S
C779 C778 1.491 . S
C779 C780 1.392 . S
C779 C784 1.356 . S
C780 C779 1.392 . S
C780 C781 1.368 . S
C780 H808 0.929 . S
C781 C780 1.368 . S
C781 C782 1.386 . S
C781 H809 0.929 . S
C782 C781 1.386 . S
C782 C783 1.373 . S
C783 C782 1.373 . S
C783 C784 1.409 . S
C783 H810 0.931 . S
C784 C779 1.356 . S
C784 C783 1.409 . S
C784 H811 0.930 . S
C785 O798 1.270 . S
C785 O799 1.248 . S
C786 O800 1.267 . S
C786 O801 1.278 . S
C787 Pr777 2.880 . S
C787 C788 1.491 . S
C787 O802 1.254 . S
C787 O803 1.225 . S
C788 C787 1.491 . S
C788 C789 1.392 . S
C788 C793 1.356 . S
C789 C788 1.392 . S
C789 C790 1.368 . S
C789 H812 0.929 . S
C790 C789 1.368 . S
C790 C791 1.386 . S
C790 H813 0.929 . S
C791 C790 1.386 . S
C791 C792 1.373 . S
C792 C791 1.373 . S
C792 C793 1.409 . S
C792 H814 0.931 . S
C793 C788 1.356 . S
C793 C792 1.409 . S
C793 H815 0.930 . S
C794 O804 1.270 . S
C794 O805 1.248 . S
C795 O806 1.267 . S
C795 O807 1.278 . S
O796 Pr776 2.562 . S
O796 C778 1.254 . S
O797 Pr776 2.490 . S
O797 C778 1.225 . S
O798 Pr776 2.695 . S
O798 Pr777 2.436 . S
O798 C785 1.270 . S
O799 Pr776 2.512 . S
O799 C785 1.248 . S
O800 Pr777 2.438 . S
O800 C786 1.267 . S
O801 Pr776 2.437 . S
O801 C786 1.278 . S
O802 Pr777 2.562 . S
O802 C787 1.254 . S
O803 Pr777 2.490 . S
O803 C787 1.225 . S
O804 Pr776 2.436 . S
O804 Pr777 2.695 . S
O804 C794 1.270 . S
O805 Pr777 2.512 . S
O805 C794 1.248 . S
O806 Pr776 2.438 . S
O806 C795 1.267 . S
O807 Pr777 2.437 . S
O807 C795 1.278 . S
H808 C780 0.929 . S
H809 C781 0.929 . S
H810 C783 0.931 . S
H811 C784 0.930 . S
H812 C789 0.929 . S
H813 C790 0.929 . S
H814 C792 0.931 . S
H815 C793 0.930 . S
Pr816 C818 2.880 . S
Pr816 O836 2.562 . S
Pr816 O837 2.490 . S
Pr816 O838 2.695 . S
Pr816 O839 2.512 . S
Pr816 O841 2.437 . S
Pr816 O844 2.436 . S
Pr816 O846 2.438 . S
Pr817 C827 2.880 . S
Pr817 O838 2.436 . S
Pr817 O840 2.438 . S
Pr817 O842 2.562 . S
Pr817 O843 2.490 . S
Pr817 O844 2.695 . S
Pr817 O845 2.512 . S
Pr817 O847 2.437 . S
C818 Pr816 2.880 . S
C818 C819 1.491 . S
C818 O836 1.254 . S
C818 O837 1.225 . S
C819 C818 1.491 . S
C819 C820 1.392 . S
C819 C824 1.356 . S
C820 C819 1.392 . S
C820 C821 1.368 . S
C820 H848 0.929 . S
C821 C820 1.368 . S
C821 C822 1.386 . S
C821 H849 0.929 . S
C822 C821 1.386 . S
C822 C823 1.373 . S
C823 C822 1.373 . S
C823 C824 1.409 . S
C823 H850 0.931 . S
C824 C819 1.356 . S
C824 C823 1.409 . S
C824 H851 0.930 . S
C825 O838 1.270 . S
C825 O839 1.248 . S
C826 O840 1.267 . S
C826 O841 1.278 . S
C827 Pr817 2.880 . S
C827 C828 1.491 . S
C827 O842 1.254 . S
C827 O843 1.225 . S
C828 C827 1.491 . S
C828 C829 1.392 . S
C828 C833 1.356 . S
C829 C828 1.392 . S
C829 C830 1.368 . S
C829 H852 0.929 . S
C830 C829 1.368 . S
C830 C831 1.386 . S
C830 H853 0.929 . S
C831 C830 1.386 . S
C831 C832 1.373 . S
C832 C831 1.373 . S
C832 C833 1.409 . S
C832 H854 0.931 . S
C833 C828 1.356 . S
C833 C832 1.409 . S
C833 H855 0.930 . S
C834 O844 1.270 . S
C834 O845 1.248 . S
C835 O846 1.267 . S
C835 O847 1.278 . S
O836 Pr816 2.562 . S
O836 C818 1.254 . S
O837 Pr816 2.490 . S
O837 C818 1.225 . S
O838 Pr816 2.695 . S
O838 Pr817 2.436 . S
O838 C825 1.270 . S
O839 Pr816 2.512 . S
O839 C825 1.248 . S
O840 Pr817 2.438 . S
O840 C826 1.267 . S
O841 Pr816 2.437 . S
O841 C826 1.278 . S
O842 Pr817 2.562 . S
O842 C827 1.254 . S
O843 Pr817 2.490 . S
O843 C827 1.225 . S
O844 Pr816 2.436 . S
O844 Pr817 2.695 . S
O844 C834 1.270 . S
O845 Pr817 2.512 . S
O845 C834 1.248 . S
O846 Pr816 2.438 . S
O846 C835 1.267 . S
O847 Pr817 2.437 . S
O847 C835 1.278 . S
H848 C820 0.929 . S
H849 C821 0.929 . S
H850 C823 0.931 . S
H851 C824 0.930 . S
H852 C829 0.929 . S
H853 C830 0.929 . S
H854 C832 0.931 . S
H855 C833 0.930 . S
Pr856 C858 2.880 . S
Pr856 O876 2.562 . S
Pr856 O877 2.490 . S
Pr856 O878 2.695 . S
Pr856 O879 2.512 . S
Pr856 O881 2.437 . S
Pr856 O884 2.436 . S
Pr856 O886 2.438 . S
Pr857 C867 2.880 . S
Pr857 O878 2.436 . S
Pr857 O880 2.438 . S
Pr857 O882 2.562 . S
Pr857 O883 2.490 . S
Pr857 O884 2.695 . S
Pr857 O885 2.512 . S
Pr857 O887 2.437 . S
C858 Pr856 2.880 . S
C858 C859 1.491 . S
C858 O876 1.254 . S
C858 O877 1.225 . S
C859 C858 1.491 . S
C859 C860 1.392 . S
C859 C864 1.356 . S
C860 C859 1.392 . S
C860 C861 1.368 . S
C860 H888 0.929 . S
C861 C860 1.368 . S
C861 C862 1.386 . S
C861 H889 0.929 . S
C862 C861 1.386 . S
C862 C863 1.373 . S
C863 C862 1.373 . S
C863 C864 1.409 . S
C863 H890 0.931 . S
C864 C859 1.356 . S
C864 C863 1.409 . S
C864 H891 0.930 . S
C865 O878 1.270 . S
C865 O879 1.248 . S
C866 O880 1.267 . S
C866 O881 1.278 . S
C867 Pr857 2.880 . S
C867 C868 1.491 . S
C867 O882 1.254 . S
C867 O883 1.225 . S
C868 C867 1.491 . S
C868 C869 1.392 . S
C868 C873 1.356 . S
C869 C868 1.392 . S
C869 C870 1.368 . S
C869 H892 0.929 . S
C870 C869 1.368 . S
C870 C871 1.386 . S
C870 H893 0.929 . S
C871 C870 1.386 . S
C871 C872 1.373 . S
C872 C871 1.373 . S
C872 C873 1.409 . S
C872 H894 0.931 . S
C873 C868 1.356 . S
C873 C872 1.409 . S
C873 H895 0.930 . S
C874 O884 1.270 . S
C874 O885 1.248 . S
C875 O886 1.267 . S
C875 O887 1.278 . S
O876 Pr856 2.562 . S
O876 C858 1.254 . S
O877 Pr856 2.490 . S
O877 C858 1.225 . S
O878 Pr856 2.695 . S
O878 Pr857 2.436 . S
O878 C865 1.270 . S
O879 Pr856 2.512 . S
O879 C865 1.248 . S
O880 Pr857 2.438 . S
O880 C866 1.267 . S
O881 Pr856 2.437 . S
O881 C866 1.278 . S
O882 Pr857 2.562 . S
O882 C867 1.254 . S
O883 Pr857 2.490 . S
O883 C867 1.225 . S
O884 Pr856 2.436 . S
O884 Pr857 2.695 . S
O884 C874 1.270 . S
O885 Pr857 2.512 . S
O885 C874 1.248 . S
O886 Pr856 2.438 . S
O886 C875 1.267 . S
O887 Pr857 2.437 . S
O887 C875 1.278 . S
H888 C860 0.929 . S
H889 C861 0.929 . S
H890 C863 0.931 . S
H891 C864 0.930 . S
H892 C869 0.929 . S
H893 C870 0.929 . S
H894 C872 0.931 . S
H895 C873 0.930 . S
Pr896 C898 2.880 . S
Pr896 O916 2.562 . S
Pr896 O917 2.490 . S
Pr896 O918 2.695 . S
Pr896 O919 2.512 . S
Pr896 O921 2.437 . S
Pr896 O924 2.436 . S
Pr896 O926 2.438 . S
Pr897 C907 2.880 . S
Pr897 O918 2.436 . S
Pr897 O920 2.438 . S
Pr897 O922 2.562 . S
Pr897 O923 2.490 . S
Pr897 O924 2.695 . S
Pr897 O925 2.512 . S
Pr897 O927 2.437 . S
C898 Pr896 2.880 . S
C898 C899 1.491 . S
C898 O916 1.254 . S
C898 O917 1.225 . S
C899 C898 1.491 . S
C899 C900 1.392 . S
C899 C904 1.356 . S
C900 C899 1.392 . S
C900 C901 1.368 . S
C900 H928 0.929 . S
C901 C900 1.368 . S
C901 C902 1.386 . S
C901 H929 0.929 . S
C902 C901 1.386 . S
C902 C903 1.373 . S
C903 C902 1.373 . S
C903 C904 1.409 . S
C903 H930 0.931 . S
C904 C899 1.356 . S
C904 C903 1.409 . S
C904 H931 0.930 . S
C905 O918 1.270 . S
C905 O919 1.248 . S
C906 O920 1.267 . S
C906 O921 1.278 . S
C907 Pr897 2.880 . S
C907 C908 1.491 . S
C907 O922 1.254 . S
C907 O923 1.225 . S
C908 C907 1.491 . S
C908 C909 1.392 . S
C908 C913 1.356 . S
C909 C908 1.392 . S
C909 C910 1.368 . S
C909 H932 0.929 . S
C910 C909 1.368 . S
C910 C911 1.386 . S
C910 H933 0.929 . S
C911 C910 1.386 . S
C911 C912 1.373 . S
C912 C911 1.373 . S
C912 C913 1.409 . S
C912 H934 0.931 . S
C913 C908 1.356 . S
C913 C912 1.409 . S
C913 H935 0.930 . S
C914 O924 1.270 . S
C914 O925 1.248 . S
C915 O926 1.267 . S
C915 O927 1.278 . S
O916 Pr896 2.562 . S
O916 C898 1.254 . S
O917 Pr896 2.490 . S
O917 C898 1.225 . S
O918 Pr896 2.695 . S
O918 Pr897 2.436 . S
O918 C905 1.270 . S
O919 Pr896 2.512 . S
O919 C905 1.248 . S
O920 Pr897 2.438 . S
O920 C906 1.267 . S
O921 Pr896 2.437 . S
O921 C906 1.278 . S
O922 Pr897 2.562 . S
O922 C907 1.254 . S
O923 Pr897 2.490 . S
O923 C907 1.225 . S
O924 Pr896 2.436 . S
O924 Pr897 2.695 . S
O924 C914 1.270 . S
O925 Pr897 2.512 . S
O925 C914 1.248 . S
O926 Pr896 2.438 . S
O926 C915 1.267 . S
O927 Pr897 2.437 . S
O927 C915 1.278 . S
H928 C900 0.929 . S
H929 C901 0.929 . S
H930 C903 0.931 . S
H931 C904 0.930 . S
H932 C909 0.929 . S
H933 C910 0.929 . S
H934 C912 0.931 . S
H935 C913 0.930 . S
Pr936 C938 2.880 . S
Pr936 O956 2.562 . S
Pr936 O957 2.490 . S
Pr936 O958 2.695 . S
Pr936 O959 2.512 . S
Pr936 O961 2.437 . S
Pr936 O964 2.436 . S
Pr936 O966 2.438 . S
Pr937 C947 2.880 1_455 S
Pr937 O958 2.436 . S
Pr937 O960 2.438 . S
Pr937 O962 2.542 1_455 S
Pr937 O963 2.490 1_455 S
Pr937 O964 2.695 . S
Pr937 O965 2.512 . S
Pr937 O967 2.437 . S
C938 Pr936 2.880 . S
C938 C939 1.491 . S
C938 O956 1.254 . S
C938 O957 1.225 . S
C939 C938 1.491 . S
C939 C940 1.392 . S
C939 C944 1.356 . S
C940 C939 1.392 . S
C940 C941 1.381 . S
C940 H968 0.929 1_554 S
C941 C940 1.381 . S
C941 C942 1.407 . S
C941 H969 0.897 1_554 S
C942 C941 1.407 . S
C942 C943 1.373 . S
C943 C942 1.373 . S
C943 C944 1.409 . S
C943 H970 0.931 . S
C944 C939 1.356 . S
C944 C943 1.409 . S
C944 H971 0.930 . S
C945 O958 1.270 . S
C945 O959 1.248 . S
C946 O960 1.267 . S
C946 O961 1.278 . S
C947 Pr937 2.880 1_655 S
C947 C948 1.491 . S
C947 O962 1.269 . S
C947 O963 1.225 . S
C948 C947 1.491 . S
C948 C949 1.392 . S
C948 C953 1.356 . S
C949 C948 1.392 . S
C949 C950 1.368 . S
C949 H972 0.929 . S
C950 C949 1.368 . S
C950 C951 1.386 . S
C950 H973 0.929 . S
C951 C950 1.386 . S
C951 C952 1.373 . S
C952 C951 1.373 . S
C952 C953 1.409 . S
C952 H974 0.931 . S
C953 C948 1.356 . S
C953 C952 1.409 . S
C953 H975 0.930 . S
C954 O964 1.270 . S
C954 O965 1.248 . S
C955 O966 1.267 . S
C955 O967 1.278 . S
O956 Pr936 2.562 . S
O956 C938 1.254 . S
O957 Pr936 2.490 . S
O957 C938 1.225 . S
O958 Pr936 2.695 . S
O958 Pr937 2.436 . S
O958 C945 1.270 . S
O959 Pr936 2.512 . S
O959 C945 1.248 . S
O960 Pr937 2.438 . S
O960 C946 1.267 . S
O961 Pr936 2.437 . S
O961 C946 1.278 . S
O962 Pr937 2.542 1_655 S
O962 C947 1.269 . S
O963 Pr937 2.490 1_655 S
O963 C947 1.225 . S
O964 Pr936 2.436 . S
O964 Pr937 2.695 . S
O964 C954 1.270 . S
O965 Pr937 2.512 . S
O965 C954 1.248 . S
O966 Pr936 2.438 . S
O966 C955 1.267 . S
O967 Pr937 2.437 . S
O967 C955 1.278 . S
H968 C940 0.929 1_556 S
H969 C941 0.897 1_556 S
H970 C943 0.931 . S
H971 C944 0.930 . S
H972 C949 0.929 . S
H973 C950 0.929 . S
H974 C952 0.931 . S
H975 C953 0.930 . S
C976 C977 1.387 . S
C976 H980 0.950 . S
C976 C985 1.390 . S
C977 C976 1.387 . S
C977 C979 1.387 . S
H978 C985 0.950 . S
C979 C977 1.387 . S
C979 C981 1.390 1_556 S
C979 H983 0.950 1_455 S
H980 C976 0.950 . S
C981 C979 1.390 1_554 S
C981 C982 1.387 . S
C981 H984 0.950 . S
C982 C981 1.387 . S
C982 C985 1.387 1_554 S
H983 C979 0.950 1_655 S
H984 C981 0.950 . S
C985 C976 1.390 . S
C985 H978 0.950 . S
C985 C982 1.387 1_556 S
C986 C987 1.387 . S
C986 H990 0.950 . S
C986 C995 1.390 . S
C987 C986 1.387 . S
C987 C989 1.387 . S
H988 C995 0.950 . S
C989 C987 1.387 . S
C989 C991 1.390 . S
C989 H993 0.950 . S
H990 C986 0.950 . S
C991 C989 1.390 . S
C991 C992 1.387 . S
C991 H994 0.950 . S
C992 C991 1.387 . S
C992 C995 1.387 . S
H993 C989 0.950 . S
H994 C991 0.950 . S
C995 C986 1.390 . S
C995 H988 0.950 . S
C995 C992 1.387 . S
C996 C997 1.387 . S
C996 H1000 0.950 . S
C996 C1005 1.390 . S
C997 C996 1.387 . S
C997 C999 1.387 . S
H998 C1005 0.950 . S
C999 C997 1.387 . S
C999 C1001 1.390 . S
C999 H1003 0.950 . S
H1000 C996 0.950 . S
C1001 C999 1.390 . S
C1001 C1002 1.381 1_565 S
C1001 H1004 0.950 1_565 S
C1002 C1001 1.381 1_545 S
C1002 C1005 1.383 1_545 S
H1003 C999 0.950 . S
H1004 C1001 0.950 1_545 S
C1005 C996 1.390 . S
C1005 H998 0.950 . S
C1005 C1002 1.383 1_565 S
C1006 C1007 1.387 . S
C1006 H1010 0.950 . S
C1006 C1015 1.390 . S
C1007 C1006 1.387 . S
C1007 C1009 1.387 . S
H1008 C1015 0.950 . S
C1009 C1007 1.387 . S
C1009 C1011 1.390 . S
C1009 H1013 0.950 . S
H1010 C1006 0.950 . S
C1011 C1009 1.390 . S
C1011 C1012 1.387 . S
C1011 H1014 0.950 . S
C1012 C1011 1.387 . S
C1012 C1015 1.387 . S
H1013 C1009 0.950 . S
H1014 C1011 0.950 . S
C1015 C1006 1.390 . S
C1015 H1008 0.950 . S
C1015 C1012 1.387 . S
C1016 C1017 1.387 . S
C1016 H1020 0.950 . S
C1016 C1025 1.390 1_565 S
C1017 C1016 1.387 . S
C1017 C1019 1.387 . S
H1018 C1025 0.950 . S
C1019 C1017 1.387 . S
C1019 C1021 1.390 1_565 S
C1019 H1023 0.950 . S
H1020 C1016 0.950 . S
C1021 C1019 1.390 1_545 S
C1021 C1022 1.387 . S
C1021 H1024 0.950 . S
C1022 C1021 1.387 . S
C1022 C1025 1.387 . S
H1023 C1019 0.950 . S
H1024 C1021 0.950 . S
C1025 C1016 1.390 1_545 S
C1025 H1018 0.950 . S
C1025 C1022 1.387 . S
C1026 C1027 1.387 . S
C1026 H1030 0.950 . S
C1026 C1035 1.390 . S
C1027 C1026 1.387 . S
C1027 C1029 1.387 . S
H1028 C1035 0.950 . S
C1029 C1027 1.387 . S
C1029 C1031 1.390 . S
C1029 H1033 0.950 . S
H1030 C1026 0.950 . S
C1031 C1029 1.390 . S
C1031 C1032 1.387 . S
C1031 H1034 0.950 . S
C1032 C1031 1.387 . S
C1032 C1035 1.387 . S
H1033 C1029 0.950 . S
H1034 C1031 0.950 . S
C1035 C1026 1.390 . S
C1035 H1028 0.950 . S
C1035 C1032 1.387 . S
C1036 C1037 1.387 . S
C1036 H1040 0.950 . S
C1036 C1045 1.390 . S
C1037 C1036 1.387 . S
C1037 C1039 1.387 . S
H1038 C1045 0.950 . S
C1039 C1037 1.387 . S
C1039 C1041 1.390 . S
C1039 H1043 0.950 . S
H1040 C1036 0.950 . S
C1041 C1039 1.390 . S
C1041 C1042 1.387 . S
C1041 H1044 0.950 . S
C1042 C1041 1.387 . S
C1042 C1045 1.387 . S
H1043 C1039 0.950 . S
H1044 C1041 0.950 . S
C1045 C1036 1.390 . S
C1045 H1038 0.950 . S
C1045 C1042 1.387 . S
C1046 C1047 1.387 . S
C1046 H1050 0.950 . S
C1046 C1055 1.390 . S
C1047 C1046 1.387 . S
C1047 C1049 1.387 . S
H1048 C1055 0.950 . S
C1049 C1047 1.387 . S
C1049 C1051 1.390 . S
C1049 H1053 0.950 . S
H1050 C1046 0.950 . S
C1051 C1049 1.390 . S
C1051 C1052 1.387 . S
C1051 H1054 0.950 . S
C1052 C1051 1.387 . S
C1052 C1055 1.387 . S
H1053 C1049 0.950 . S
H1054 C1051 0.950 . S
C1055 C1046 1.390 . S
C1055 H1048 0.950 . S
C1055 C1052 1.387 . S
C1056 C1057 1.387 . S
C1056 H1060 0.950 . S
C1056 C1065 1.390 1_655 S
C1057 C1056 1.387 . S
C1057 C1059 1.387 . S
H1058 C1065 0.950 . S
C1059 C1057 1.387 . S
C1059 C1061 1.390 . S
C1059 H1063 0.950 . S
H1060 C1056 0.950 . S
C1061 C1059 1.390 . S
C1061 C1062 1.387 1_655 S
C1061 H1064 0.950 . S
C1062 C1061 1.387 1_455 S
C1062 C1065 1.387 . S
H1063 C1059 0.950 . S
H1064 C1061 0.950 . S
C1065 C1056 1.390 1_455 S
C1065 H1058 0.950 . S
C1065 C1062 1.387 . S
C1066 C1067 1.387 . S
C1066 H1070 0.950 . S
C1066 C1075 1.390 . S
C1067 C1066 1.387 . S
C1067 C1069 1.387 . S
H1068 C1075 0.950 . S
C1069 C1067 1.387 . S
C1069 C1071 1.390 . S
C1069 H1073 0.950 . S
H1070 C1066 0.950 . S
C1071 C1069 1.390 . S
C1071 C1072 1.387 . S
C1071 H1074 0.950 . S
C1072 C1071 1.387 . S
C1072 C1075 1.387 . S
H1073 C1069 0.950 . S
H1074 C1071 0.950 . S
C1075 C1066 1.390 . S
C1075 H1068 0.950 . S
C1075 C1072 1.387 . S
C1076 C1077 1.387 . S
C1076 H1080 0.950 . S
C1076 C1085 1.390 . S
C1077 C1076 1.387 . S
C1077 C1079 1.387 . S
H1078 C1085 0.950 . S
C1079 C1077 1.387 . S
C1079 C1081 1.390 . S
C1079 H1083 0.950 . S
H1080 C1076 0.950 . S
C1081 C1079 1.390 . S
C1081 C1082 1.387 . S
C1081 H1084 0.950 . S
C1082 C1081 1.387 . S
C1082 C1085 1.387 . S
H1083 C1079 0.950 . S
H1084 C1081 0.950 . S
C1085 C1076 1.390 . S
C1085 H1078 0.950 . S
C1085 C1082 1.387 . S
C1086 C1087 1.387 . S
C1086 H1090 0.950 . S
C1086 C1095 1.390 . S
C1087 C1086 1.387 . S
C1087 C1089 1.387 . S
H1088 C1095 0.950 . S
C1089 C1087 1.387 . S
C1089 C1091 1.390 . S
C1089 H1093 0.950 . S
H1090 C1086 0.950 . S
C1091 C1089 1.390 . S
C1091 C1092 1.387 . S
C1091 H1094 0.950 . S
C1092 C1091 1.387 . S
C1092 C1095 1.387 . S
H1093 C1089 0.950 . S
H1094 C1091 0.950 . S
C1095 C1086 1.390 . S
C1095 H1088 0.950 . S
C1095 C1092 1.387 . S
C1096 C1097 1.387 . S
C1096 H1100 0.950 . S
C1096 C1105 1.390 . S
C1097 C1096 1.387 . S
C1097 C1099 1.387 . S
H1098 C1105 0.950 . S
C1099 C1097 1.387 . S
C1099 C1101 1.390 . S
C1099 H1103 0.950 . S
H1100 C1096 0.950 . S
C1101 C1099 1.390 . S
C1101 C1102 1.387 . S
C1101 H1104 0.950 . S
C1102 C1101 1.387 . S
C1102 C1105 1.387 . S
H1103 C1099 0.950 . S
H1104 C1101 0.950 . S
C1105 C1096 1.390 . S
C1105 H1098 0.950 . S
C1105 C1102 1.387 . S
C1106 C1107 1.387 . S
C1106 H1110 0.950 . S
C1106 C1115 1.390 . S
C1107 C1106 1.387 . S
C1107 C1109 1.387 . S
H1108 C1115 0.950 . S
C1109 C1107 1.387 . S
C1109 C1111 1.390 . S
C1109 H1113 0.950 . S
H1110 C1106 0.950 . S
C1111 C1109 1.390 . S
C1111 C1112 1.387 . S
C1111 H1114 0.950 . S
C1112 C1111 1.387 . S
C1112 C1115 1.387 . S
H1113 C1109 0.950 . S
H1114 C1111 0.950 . S
C1115 C1106 1.390 . S
C1115 H1108 0.950 . S
C1115 C1112 1.387 . S
C1116 C1117 1.387 . S
C1116 H1120 0.950 . S
C1116 C1125 1.390 . S
C1117 C1116 1.387 . S
C1117 C1119 1.387 . S
H1118 C1125 0.950 . S
C1119 C1117 1.387 . S
C1119 C1121 1.390 . S
C1119 H1123 0.950 . S
H1120 C1116 0.950 . S
C1121 C1119 1.390 . S
C1121 C1122 1.387 . S
C1121 H1124 0.950 . S
C1122 C1121 1.387 . S
C1122 C1125 1.387 . S
H1123 C1119 0.950 . S
H1124 C1121 0.950 . S
C1125 C1116 1.390 . S
C1125 H1118 0.950 . S
C1125 C1122 1.387 . S
C1126 C1127 1.387 . S
C1126 H1130 0.950 . S
C1126 C1135 1.390 . S
C1127 C1126 1.387 . S
C1127 C1129 1.387 . S
H1128 C1135 0.950 . S
C1129 C1127 1.387 . S
C1129 C1131 1.390 . S
C1129 H1133 0.950 . S
H1130 C1126 0.950 . S
C1131 C1129 1.390 . S
C1131 C1132 1.387 . S
C1131 H1134 0.950 . S
C1132 C1131 1.387 . S
C1132 C1135 1.387 . S
H1133 C1129 0.950 . S
H1134 C1131 0.950 . S
C1135 C1126 1.390 . S
C1135 H1128 0.950 . S
C1135 C1132 1.387 . S
C1136 C1137 1.387 . S
C1136 H1140 0.950 1_545 S
C1136 C1145 1.390 . S
C1137 C1136 1.387 . S
C1137 C1139 1.387 . S
H1138 C1145 0.950 . S
C1139 C1137 1.387 . S
C1139 C1141 1.390 . S
C1139 H1143 0.950 . S
H1140 C1136 0.950 1_565 S
C1141 C1139 1.390 . S
C1141 C1142 1.387 . S
C1141 H1144 0.950 . S
C1142 C1141 1.387 . S
C1142 C1145 1.387 . S
H1143 C1139 0.950 . S
H1144 C1141 0.950 . S
C1145 C1136 1.390 . S
C1145 H1138 0.950 . S
C1145 C1142 1.387 . S
C1146 C1147 1.387 . S
C1146 H1150 0.950 1_554 S
C1146 C1155 1.390 . S
C1147 C1146 1.387 . S
C1147 C1149 1.387 . S
H1148 C1155 0.950 1_556 S
C1149 C1147 1.387 . S
C1149 C1151 1.390 . S
C1149 H1153 0.950 . S
H1150 C1146 0.950 1_556 S
C1151 C1149 1.390 . S
C1151 C1152 1.387 . S
C1151 H1154 0.950 . S
C1152 C1151 1.387 . S
C1152 C1155 1.387 . S
H1153 C1149 0.950 . S
H1154 C1151 0.950 . S
C1155 C1146 1.390 . S
C1155 H1148 0.950 1_554 S
C1155 C1152 1.387 . S
C1156 C1157 1.387 . S
C1156 H1160 0.950 . S
C1156 C1165 1.390 . S
C1157 C1156 1.387 . S
C1157 C1159 1.387 . S
H1158 C1165 0.950 . S
C1159 C1157 1.387 . S
C1159 C1161 1.390 . S
C1159 H1163 0.950 . S
H1160 C1156 0.950 . S
C1161 C1159 1.390 . S
C1161 C1162 1.387 . S
C1161 H1164 0.950 . S
C1162 C1161 1.387 . S
C1162 C1165 1.387 . S
H1163 C1159 0.950 . S
H1164 C1161 0.950 . S
C1165 C1156 1.390 . S
C1165 H1158 0.950 . S
C1165 C1162 1.387 . S
C1166 C1167 1.387 . S
C1166 H1170 0.950 . S
C1166 C1175 1.390 . S
C1167 C1166 1.387 . S
C1167 C1169 1.387 . S
H1168 C1175 0.950 . S
C1169 C1167 1.387 . S
C1169 C1171 1.390 . S
C1169 H1173 0.950 . S
H1170 C1166 0.950 . S
C1171 C1169 1.390 . S
C1171 C1172 1.387 . S
C1171 H1174 0.950 . S
C1172 C1171 1.387 . S
C1172 C1175 1.387 . S
H1173 C1169 0.950 . S
H1174 C1171 0.950 . S
C1175 C1166 1.390 . S
C1175 H1168 0.950 . S
C1175 C1172 1.387 . S
C1176 C1177 1.387 . S
C1176 H1180 0.950 . S
C1176 C1185 1.390 . S
C1177 C1176 1.387 . S
C1177 C1179 1.387 . S
H1178 C1185 0.950 . S
C1179 C1177 1.387 . S
C1179 C1181 1.390 . S
C1179 H1183 0.950 . S
H1180 C1176 0.950 . S
C1181 C1179 1.390 . S
C1181 C1182 1.387 . S
C1181 H1184 0.950 . S
C1182 C1181 1.387 . S
C1182 C1185 1.387 . S
H1183 C1179 0.950 . S
H1184 C1181 0.950 . S
C1185 C1176 1.390 . S
C1185 H1178 0.950 . S
C1185 C1182 1.387 . S
C1186 C1187 1.387 . S
C1186 H1190 0.950 . S
C1186 C1195 1.390 . S
C1187 C1186 1.387 . S
C1187 C1189 1.387 . S
H1188 C1195 0.950 . S
C1189 C1187 1.387 . S
C1189 C1191 1.390 . S
C1189 H1193 0.950 . S
H1190 C1186 0.950 . S
C1191 C1189 1.390 . S
C1191 C1192 1.387 . S
C1191 H1194 0.950 . S
C1192 C1191 1.387 . S
C1192 C1195 1.387 . S
H1193 C1189 0.950 . S
H1194 C1191 0.950 . S
C1195 C1186 1.390 . S
C1195 H1188 0.950 . S
C1195 C1192 1.387 . S
C1196 C1197 1.387 . S
C1196 H1200 0.950 . S
C1196 C1205 1.390 . S
C1197 C1196 1.387 . S
C1197 C1199 1.387 . S
H1198 C1205 0.950 . S
C1199 C1197 1.387 . S
C1199 C1201 1.390 . S
C1199 H1203 0.950 . S
H1200 C1196 0.950 . S
C1201 C1199 1.390 . S
C1201 C1202 1.387 . S
C1201 H1204 0.950 . S
C1202 C1201 1.387 . S
C1202 C1205 1.387 . S
H1203 C1199 0.950 . S
H1204 C1201 0.950 . S
C1205 C1196 1.390 . S
C1205 H1198 0.950 . S
C1205 C1202 1.387 . S
C1206 C1207 1.387 . S
C1206 H1210 0.950 . S
C1206 C1215 1.390 . S
C1207 C1206 1.387 . S
C1207 C1209 1.387 . S
H1208 C1215 0.950 . S
C1209 C1207 1.387 . S
C1209 C1211 1.390 . S
C1209 H1213 0.950 . S
H1210 C1206 0.950 . S
C1211 C1209 1.390 . S
C1211 C1212 1.387 . S
C1211 H1214 0.950 . S
C1212 C1211 1.387 . S
C1212 C1215 1.387 . S
H1213 C1209 0.950 . S
H1214 C1211 0.950 . S
C1215 C1206 1.390 . S
C1215 H1208 0.950 . S
C1215 C1212 1.387 . S
C1216 C1217 1.387 . S
C1216 H1220 0.950 . S
C1216 C1225 1.390 1_565 S
C1217 C1216 1.387 . S
C1217 C1219 1.387 . S
H1218 C1225 0.950 . S
C1219 C1217 1.387 . S
C1219 C1221 1.390 . S
C1219 H1223 0.950 . S
H1220 C1216 0.950 . S
C1221 C1219 1.390 . S
C1221 C1222 1.387 1_565 S
C1221 H1224 0.949 1_565 S
C1222 C1221 1.387 1_545 S
C1222 C1225 1.387 . S
H1223 C1219 0.950 . S
H1224 C1221 0.949 1_545 S
C1225 C1216 1.390 1_545 S
C1225 H1218 0.950 . S
C1225 C1222 1.387 . S
C1226 C1227 1.387 . S
C1226 H1230 0.950 . S
C1226 C1235 1.390 . S
C1227 C1226 1.387 . S
C1227 C1229 1.387 . S
H1228 C1235 0.950 . S
C1229 C1227 1.387 . S
C1229 C1231 1.390 . S
C1229 H1233 0.950 . S
H1230 C1226 0.950 . S
C1231 C1229 1.390 . S
C1231 C1232 1.387 . S
C1231 H1234 0.950 . S
C1232 C1231 1.387 . S
C1232 C1235 1.387 . S
H1233 C1229 0.950 . S
H1234 C1231 0.950 . S
C1235 C1226 1.390 . S
C1235 H1228 0.950 . S
C1235 C1232 1.387 . S
C1236 C1237 1.387 . S
C1236 H1240 0.950 . S
C1236 C1245 1.390 . S
C1237 C1236 1.387 . S
C1237 C1239 1.387 . S
H1238 C1245 0.950 . S
C1239 C1237 1.387 . S
C1239 C1241 1.390 . S
C1239 H1243 0.950 . S
H1240 C1236 0.950 . S
C1241 C1239 1.390 . S
C1241 C1242 1.387 . S
C1241 H1244 0.950 . S
C1242 C1241 1.387 . S
C1242 C1245 1.387 . S
H1243 C1239 0.950 . S
H1244 C1241 0.950 . S
C1245 C1236 1.390 . S
C1245 H1238 0.950 . S
C1245 C1242 1.387 . S
C1246 C1247 1.387 . S
C1246 H1250 0.950 . S
C1246 C1255 1.390 . S
C1247 C1246 1.387 . S
C1247 C1249 1.387 . S
H1248 C1255 0.950 . S
C1249 C1247 1.387 . S
C1249 C1251 1.390 . S
C1249 H1253 0.950 . S
H1250 C1246 0.950 . S
C1251 C1249 1.390 . S
C1251 C1252 1.387 . S
C1251 H1254 0.950 . S
C1252 C1251 1.387 . S
C1252 C1255 1.387 . S
H1253 C1249 0.950 . S
H1254 C1251 0.950 . S
C1255 C1246 1.390 . S
C1255 H1248 0.950 . S
C1255 C1252 1.387 . S
C1256 C1257 1.387 . S
C1256 H1260 0.950 . S
C1256 C1265 1.390 . S
C1257 C1256 1.387 . S
C1257 C1259 1.387 . S
H1258 C1265 0.950 . S
C1259 C1257 1.387 . S
C1259 C1261 1.390 . S
C1259 H1263 0.950 . S
H1260 C1256 0.950 . S
C1261 C1259 1.390 . S
C1261 C1262 1.387 . S
C1261 H1264 0.950 . S
C1262 C1261 1.387 . S
C1262 C1265 1.387 . S
H1263 C1259 0.950 . S
H1264 C1261 0.950 . S
C1265 C1256 1.390 . S
C1265 H1258 0.950 . S
C1265 C1262 1.387 . S
C1266 C1267 1.387 . S
C1266 H1270 0.950 . S
C1266 C1275 1.390 . S
C1267 C1266 1.387 . S
C1267 C1269 1.387 . S
H1268 C1275 0.950 . S
C1269 C1267 1.387 . S
C1269 C1271 1.390 . S
C1269 H1273 0.950 . S
H1270 C1266 0.950 . S
C1271 C1269 1.390 . S
C1271 C1272 1.387 . S
C1271 H1274 0.950 . S
C1272 C1271 1.387 . S
C1272 C1275 1.387 . S
H1273 C1269 0.950 . S
H1274 C1271 0.950 . S
C1275 C1266 1.390 . S
C1275 H1268 0.950 . S
C1275 C1272 1.387 . S
C1276 C1277 1.387 . S
C1276 H1280 0.950 . S
C1276 C1285 1.390 . S
C1277 C1276 1.387 . S
C1277 C1279 1.387 . S
H1278 C1285 0.950 . S
C1279 C1277 1.387 . S
C1279 C1281 1.390 . S
C1279 H1283 0.950 . S
H1280 C1276 0.950 . S
C1281 C1279 1.390 . S
C1281 C1282 1.389 1_556 S
C1281 H1284 0.950 1_556 S
C1282 C1281 1.389 1_554 S
C1282 C1285 1.369 1_554 S
H1283 C1279 0.950 . S
H1284 C1281 0.950 1_554 S
C1285 C1276 1.390 . S
C1285 H1278 0.950 . S
C1285 C1282 1.369 1_556 S
C1286 C1287 1.387 . S
C1286 H1290 0.950 . S
C1286 C1295 1.368 1_455 S
C1287 C1286 1.387 . S
C1287 C1289 1.387 . S
H1288 C1295 0.967 . S
C1289 C1287 1.387 . S
C1289 C1291 1.390 . S
C1289 H1293 0.950 . S
H1290 C1286 0.950 . S
C1291 C1289 1.390 . S
C1291 C1292 1.387 . S
C1291 H1294 0.950 . S
C1292 C1291 1.387 . S
C1292 C1295 1.394 1_455 S
H1293 C1289 0.950 . S
H1294 C1291 0.950 . S
C1295 C1286 1.368 1_655 S
C1295 H1288 0.967 . S
C1295 C1292 1.394 1_655 S
C1296 C1297 1.387 . S
C1296 H1300 0.950 . S
C1296 C1305 1.390 . S
C1297 C1296 1.387 . S
C1297 C1299 1.387 . S
H1298 C1305 0.950 1_554 S
C1299 C1297 1.387 . S
C1299 C1301 1.390 . S
C1299 H1303 0.950 . S
H1300 C1296 0.950 . S
C1301 C1299 1.390 . S
C1301 C1302 1.387 . S
C1301 H1304 0.950 . S
C1302 C1301 1.387 . S
C1302 C1305 1.387 . S
H1303 C1299 0.950 . S
H1304 C1301 0.950 . S
C1305 C1296 1.390 . S
C1305 H1298 0.950 1_556 S
C1305 C1302 1.387 . S
C1306 C1307 1.387 . S
C1306 H1310 0.950 . S
C1306 C1315 1.390 . S
C1307 C1306 1.387 . S
C1307 C1309 1.387 . S
H1308 C1315 0.950 . S
C1309 C1307 1.387 . S
C1309 C1311 1.390 . S
C1309 H1313 0.950 . S
H1310 C1306 0.950 . S
C1311 C1309 1.390 . S
C1311 C1312 1.387 . S
C1311 H1314 0.950 . S
C1312 C1311 1.387 . S
C1312 C1315 1.387 . S
H1313 C1309 0.950 . S
H1314 C1311 0.950 . S
C1315 C1306 1.390 . S
C1315 H1308 0.950 . S
C1315 C1312 1.387 . S
C1316 C1317 1.387 . S
C1316 H1320 0.950 . S
C1316 C1325 1.390 . S
C1317 C1316 1.387 . S
C1317 C1319 1.387 . S
H1318 C1325 0.950 . S
C1319 C1317 1.387 . S
C1319 C1321 1.390 . S
C1319 H1323 0.950 . S
H1320 C1316 0.950 . S
C1321 C1319 1.390 . S
C1321 C1322 1.387 . S
C1321 H1324 0.950 . S
C1322 C1321 1.387 . S
C1322 C1325 1.387 . S
H1323 C1319 0.950 . S
H1324 C1321 0.950 . S
C1325 C1316 1.390 . S
C1325 H1318 0.950 . S
C1325 C1322 1.387 . S
C1326 C1327 1.387 . S
C1326 H1330 0.950 . S
C1326 C1335 1.390 . S
C1327 C1326 1.387 . S
C1327 C1329 1.387 . S
H1328 C1335 0.950 . S
C1329 C1327 1.387 . S
C1329 C1331 1.390 . S
C1329 H1333 0.950 . S
H1330 C1326 0.950 . S
C1331 C1329 1.390 . S
C1331 C1332 1.387 . S
C1331 H1334 0.950 . S
C1332 C1331 1.387 . S
C1332 C1335 1.387 . S
H1333 C1329 0.950 . S
H1334 C1331 0.950 . S
C1335 C1326 1.390 . S
C1335 H1328 0.950 . S
C1335 C1332 1.387 . S
C1336 C1337 1.387 . S
C1336 H1340 0.950 . S
C1336 C1345 1.390 . S
C1337 C1336 1.387 . S
C1337 C1339 1.387 . S
H1338 C1345 0.950 . S
C1339 C1337 1.387 . S
C1339 C1341 1.390 . S
C1339 H1343 0.950 . S
H1340 C1336 0.950 . S
C1341 C1339 1.390 . S
C1341 C1342 1.387 . S
C1341 H1344 0.950 . S
C1342 C1341 1.387 . S
C1342 C1345 1.387 . S
H1343 C1339 0.950 . S
H1344 C1341 0.950 . S
C1345 C1336 1.390 . S
C1345 H1338 0.950 . S
C1345 C1342 1.387 . S
C1346 C1347 1.387 . S
C1346 H1350 0.950 . S
C1346 C1355 1.390 . S
C1347 C1346 1.387 . S
C1347 C1349 1.387 . S
H1348 C1355 0.950 . S
C1349 C1347 1.387 . S
C1349 C1351 1.390 . S
C1349 H1353 0.950 . S
H1350 C1346 0.950 . S
C1351 C1349 1.390 . S
C1351 C1352 1.387 . S
C1351 H1354 0.950 . S
C1352 C1351 1.387 . S
C1352 C1355 1.387 . S
H1353 C1349 0.950 . S
H1354 C1351 0.950 . S
C1355 C1346 1.390 . S
C1355 H1348 0.950 . S
C1355 C1352 1.387 . S
C1356 C1357 1.387 . S
C1356 H1360 0.950 . S
C1356 C1365 1.390 . S
C1357 C1356 1.387 . S
C1357 C1359 1.387 . S
H1358 C1365 0.950 . S
C1359 C1357 1.387 . S
C1359 C1361 1.390 . S
C1359 H1363 0.950 . S
H1360 C1356 0.950 . S
C1361 C1359 1.390 . S
C1361 C1362 1.387 . S
C1361 H1364 0.950 . S
C1362 C1361 1.387 . S
C1362 C1365 1.387 . S
H1363 C1359 0.950 . S
H1364 C1361 0.950 . S
C1365 C1356 1.390 . S
C1365 H1358 0.950 . S
C1365 C1362 1.387 . S
C1366 C1367 1.387 . S
C1366 H1370 0.950 . S
C1366 C1375 1.390 . S
C1367 C1366 1.387 . S
C1367 C1369 1.387 . S
H1368 C1375 0.950 . S
C1369 C1367 1.387 . S
C1369 C1371 1.390 . S
C1369 H1373 0.950 . S
H1370 C1366 0.950 . S
C1371 C1369 1.390 . S
C1371 C1372 1.387 . S
C1371 H1374 0.950 . S
C1372 C1371 1.387 . S
C1372 C1375 1.387 . S
H1373 C1369 0.950 . S
H1374 C1371 0.950 . S
C1375 C1366 1.390 . S
C1375 H1368 0.950 . S
C1375 C1372 1.387 . S
C1376 C1377 1.391 . S
C1376 H1380 0.950 . S
C1376 C1385 1.390 1_554 S
C1377 C1376 1.391 . S
C1377 C1379 1.373 1_554 S
H1378 C1385 0.950 . S
C1379 C1377 1.373 1_556 S
C1379 C1381 1.390 . S
C1379 H1383 0.950 . S
H1380 C1376 0.950 . S
C1381 C1379 1.390 . S
C1381 C1382 1.387 . S
C1381 H1384 0.950 . S
C1382 C1381 1.387 . S
C1382 C1385 1.387 . S
H1383 C1379 0.950 . S
H1384 C1381 0.950 . S
C1385 C1376 1.390 1_556 S
C1385 H1378 0.950 . S
C1385 C1382 1.387 . S
C1386 C1387 1.387 . S
C1386 H1390 0.950 . S
C1386 C1395 1.390 . S
C1387 C1386 1.387 . S
C1387 C1389 1.387 . S
H1388 C1395 0.950 . S
C1389 C1387 1.387 . S
C1389 C1391 1.390 . S
C1389 H1393 0.950 . S
H1390 C1386 0.950 . S
C1391 C1389 1.390 . S
C1391 C1392 1.387 . S
C1391 H1394 0.950 . S
C1392 C1391 1.387 . S
C1392 C1395 1.387 . S
H1393 C1389 0.950 . S
H1394 C1391 0.950 . S
C1395 C1386 1.390 . S
C1395 H1388 0.950 . S
C1395 C1392 1.387 . S
C1396 C1397 1.387 . S
C1396 H1400 0.950 . S
C1396 C1405 1.390 . S
C1397 C1396 1.387 . S
C1397 C1399 1.387 . S
H1398 C1405 0.950 . S
C1399 C1397 1.387 . S
C1399 C1401 1.390 . S
C1399 H1403 0.950 . S
H1400 C1396 0.950 . S
C1401 C1399 1.390 . S
C1401 C1402 1.387 . S
C1401 H1404 0.950 . S
C1402 C1401 1.387 . S
C1402 C1405 1.387 . S
H1403 C1399 0.950 . S
H1404 C1401 0.950 . S
C1405 C1396 1.390 . S
C1405 H1398 0.950 . S
C1405 C1402 1.387 . S
C1406 C1407 1.387 . S
C1406 H1410 0.950 . S
C1406 C1415 1.390 . S
C1407 C1406 1.387 . S
C1407 C1409 1.387 . S
H1408 C1415 0.950 . S
C1409 C1407 1.387 . S
C1409 C1411 1.390 . S
C1409 H1413 0.950 . S
H1410 C1406 0.950 . S
C1411 C1409 1.390 . S
C1411 C1412 1.387 . S
C1411 H1414 0.950 . S
C1412 C1411 1.387 . S
C1412 C1415 1.387 . S
H1413 C1409 0.950 . S
H1414 C1411 0.950 . S
C1415 C1406 1.390 . S
C1415 H1408 0.950 . S
C1415 C1412 1.387 . S
C1416 C1417 1.387 . S
C1416 H1420 0.950 . S
C1416 C1425 1.390 . S
C1417 C1416 1.387 . S
C1417 C1419 1.387 . S
H1418 C1425 0.950 . S
C1419 C1417 1.387 . S
C1419 C1421 1.390 . S
C1419 H1423 0.950 . S
H1420 C1416 0.950 . S
C1421 C1419 1.390 . S
C1421 C1422 1.387 . S
C1421 H1424 0.950 . S
C1422 C1421 1.387 . S
C1422 C1425 1.387 . S
H1423 C1419 0.950 . S
H1424 C1421 0.950 . S
C1425 C1416 1.390 . S
C1425 H1418 0.950 . S
C1425 C1422 1.387 . S
C1426 C1427 1.387 . S
C1426 H1430 0.950 . S
C1426 C1435 1.390 . S
C1427 C1426 1.387 . S
C1427 C1429 1.387 1_565 S
H1428 C1435 0.950 . S
C1429 C1427 1.387 1_545 S
C1429 C1431 1.390 . S
C1429 H1433 0.950 . S
H1430 C1426 0.950 . S
C1431 C1429 1.390 . S
C1431 C1432 1.387 . S
C1431 H1434 0.950 . S
C1432 C1431 1.387 . S
C1432 C1435 1.387 1_545 S
H1433 C1429 0.950 . S
H1434 C1431 0.950 . S
C1435 C1426 1.390 . S
C1435 H1428 0.950 . S
C1435 C1432 1.387 1_565 S
C1436 C1437 1.387 . S
C1436 H1440 0.950 . S
C1436 C1445 1.390 . S
C1437 C1436 1.387 . S
C1437 C1439 1.387 . S
H1438 C1445 0.950 . S
C1439 C1437 1.387 . S
C1439 C1441 1.390 . S
C1439 H1443 0.950 . S
H1440 C1436 0.950 . S
C1441 C1439 1.390 . S
C1441 C1442 1.387 . S
C1441 H1444 0.950 . S
C1442 C1441 1.387 . S
C1442 C1445 1.387 . S
H1443 C1439 0.950 . S
H1444 C1441 0.950 . S
C1445 C1436 1.390 . S
C1445 H1438 0.950 . S
C1445 C1442 1.387 . S
C1446 C1447 1.387 . S
C1446 H1450 0.950 . S
C1446 C1455 1.390 . S
C1447 C1446 1.387 . S
C1447 C1449 1.387 . S
H1448 C1455 0.950 . S
C1449 C1447 1.387 . S
C1449 C1451 1.390 . S
C1449 H1453 0.950 . S
H1450 C1446 0.950 . S
C1451 C1449 1.390 . S
C1451 C1452 1.387 . S
C1451 H1454 0.950 . S
C1452 C1451 1.387 . S
C1452 C1455 1.387 . S
H1453 C1449 0.950 . S
H1454 C1451 0.950 . S
C1455 C1446 1.390 . S
C1455 H1448 0.950 . S
C1455 C1452 1.387 . S
C1456 C1457 1.387 . S
C1456 H1460 0.950 . S
C1456 C1465 1.390 . S
C1457 C1456 1.387 . S
C1457 C1459 1.387 . S
H1458 C1465 0.950 . S
C1459 C1457 1.387 . S
C1459 C1461 1.390 . S
C1459 H1463 0.950 . S
H1460 C1456 0.950 . S
C1461 C1459 1.390 . S
C1461 C1462 1.387 . S
C1461 H1464 0.950 . S
C1462 C1461 1.387 . S
C1462 C1465 1.387 . S
H1463 C1459 0.950 . S
H1464 C1461 0.950 . S
C1465 C1456 1.390 . S
C1465 H1458 0.950 . S
C1465 C1462 1.387 . S
C1466 C1467 1.387 . S
C1466 H1470 0.950 . S
C1466 C1475 1.390 . S
C1467 C1466 1.387 . S
C1467 C1469 1.387 . S
H1468 C1475 0.950 . S
C1469 C1467 1.387 . S
C1469 C1471 1.390 . S
C1469 H1473 0.950 . S
H1470 C1466 0.950 . S
C1471 C1469 1.390 . S
C1471 C1472 1.387 . S
C1471 H1474 0.950 . S
C1472 C1471 1.387 . S
C1472 C1475 1.387 . S
H1473 C1469 0.950 . S
H1474 C1471 0.950 . S
C1475 C1466 1.390 . S
C1475 H1468 0.950 . S
C1475 C1472 1.387 . S
C1476 C1477 1.384 1_554 S
C1476 H1480 0.951 . S
C1476 C1485 1.393 . S
C1477 C1476 1.384 1_556 S
C1477 C1479 1.387 . S
H1478 C1485 0.950 . S
C1479 C1477 1.387 . S
C1479 C1481 1.390 . S
C1479 H1483 0.950 . S
H1480 C1476 0.951 . S
C1481 C1479 1.390 . S
C1481 C1482 1.387 1_556 S
C1481 H1484 0.950 . S
C1482 C1481 1.387 1_554 S
C1482 C1485 1.387 . S
H1483 C1479 0.950 . S
H1484 C1481 0.950 . S
C1485 C1476 1.393 . S
C1485 H1478 0.950 . S
C1485 C1482 1.387 . S
C1486 C1487 1.387 1_655 S
C1486 H1490 0.950 1_655 S
C1486 C1495 1.390 . S
C1487 C1486 1.387 1_455 S
C1487 C1489 1.387 . S
H1488 C1495 0.950 . S
C1489 C1487 1.387 . S
C1489 C1491 1.390 1_455 S
C1489 H1493 0.950 . S
H1490 C1486 0.950 1_455 S
C1491 C1489 1.390 1_655 S
C1491 C1492 1.387 . S
C1491 H1494 0.950 . S
C1492 C1491 1.387 . S
C1492 C1495 1.387 . S
H1493 C1489 0.950 . S
H1494 C1491 0.950 . S
C1495 C1486 1.390 . S
C1495 H1488 0.950 . S
C1495 C1492 1.387 . S
C1496 C1497 1.387 . S
C1496 H1500 0.950 . S
C1496 C1505 1.390 . S
C1497 C1496 1.387 . S
C1497 C1499 1.387 . S
H1498 C1505 0.950 . S
C1499 C1497 1.387 . S
C1499 C1501 1.390 . S
C1499 H1503 0.950 . S
H1500 C1496 0.950 . S
C1501 C1499 1.390 . S
C1501 C1502 1.387 . S
C1501 H1504 0.950 . S
C1502 C1501 1.387 . S
C1502 C1505 1.387 . S
H1503 C1499 0.950 . S
H1504 C1501 0.950 . S
C1505 C1496 1.390 . S
C1505 H1498 0.950 . S
C1505 C1502 1.387 . S
C1506 C1507 1.387 . S
C1506 H1510 0.950 . S
C1506 C1515 1.390 . S
C1507 C1506 1.387 . S
C1507 C1509 1.387 . S
H1508 C1515 0.950 . S
C1509 C1507 1.387 . S
C1509 C1511 1.390 . S
C1509 H1513 0.950 . S
H1510 C1506 0.950 . S
C1511 C1509 1.390 . S
C1511 C1512 1.387 . S
C1511 H1514 0.950 . S
C1512 C1511 1.387 . S
C1512 C1515 1.387 . S
H1513 C1509 0.950 . S
H1514 C1511 0.950 . S
C1515 C1506 1.390 . S
C1515 H1508 0.950 . S
C1515 C1512 1.387 . S
C1516 C1517 1.387 . S
C1516 H1520 0.950 . S
C1516 C1525 1.390 . S
C1517 C1516 1.387 . S
C1517 C1519 1.387 . S
H1518 C1525 0.950 . S
C1519 C1517 1.387 . S
C1519 C1521 1.390 . S
C1519 H1523 0.950 . S
H1520 C1516 0.950 . S
C1521 C1519 1.390 . S
C1521 C1522 1.387 . S
C1521 H1524 0.950 . S
C1522 C1521 1.387 . S
C1522 C1525 1.387 . S
H1523 C1519 0.950 . S
H1524 C1521 0.950 . S
C1525 C1516 1.390 . S
C1525 H1518 0.950 . S
C1525 C1522 1.387 . S
C1526 C1527 1.387 . S
C1526 H1530 0.950 . S
C1526 C1535 1.390 . S
C1527 C1526 1.387 . S
C1527 C1529 1.387 . S
H1528 C1535 0.950 . S
C1529 C1527 1.387 . S
C1529 C1531 1.390 . S
C1529 H1533 0.950 . S
H1530 C1526 0.950 . S
C1531 C1529 1.390 . S
C1531 C1532 1.387 . S
C1531 H1534 0.950 . S
C1532 C1531 1.387 . S
C1532 C1535 1.387 . S
H1533 C1529 0.950 . S
H1534 C1531 0.950 . S
C1535 C1526 1.390 . S
C1535 H1528 0.950 . S
C1535 C1532 1.387 . S
C1536 C1537 1.387 . S
C1536 H1540 0.950 . S
C1536 C1545 1.390 . S
C1537 C1536 1.387 . S
C1537 C1539 1.387 . S
H1538 C1545 0.950 . S
C1539 C1537 1.387 . S
C1539 C1541 1.390 . S
C1539 H1543 0.950 . S
H1540 C1536 0.950 . S
C1541 C1539 1.390 . S
C1541 C1542 1.387 . S
C1541 H1544 0.950 . S
C1542 C1541 1.387 . S
C1542 C1545 1.387 . S
H1543 C1539 0.950 . S
H1544 C1541 0.950 . S
C1545 C1536 1.390 . S
C1545 H1538 0.950 . S
C1545 C1542 1.387 . S
C1546 C1547 1.387 . S
C1546 H1550 0.950 . S
C1546 C1555 1.390 . S
C1547 C1546 1.387 . S
C1547 C1549 1.387 . S
H1548 C1555 0.950 . S
C1549 C1547 1.387 . S
C1549 C1551 1.390 . S
C1549 H1553 0.950 . S
H1550 C1546 0.950 . S
C1551 C1549 1.390 . S
C1551 C1552 1.387 . S
C1551 H1554 0.950 . S
C1552 C1551 1.387 . S
C1552 C1555 1.387 . S
H1553 C1549 0.950 . S
H1554 C1551 0.950 . S
C1555 C1546 1.390 . S
C1555 H1548 0.950 . S
C1555 C1552 1.387 . S
C1556 C1557 1.387 . S
C1556 H1560 0.950 . S
C1556 C1565 1.390 . S
C1557 C1556 1.387 . S
C1557 C1559 1.387 . S
H1558 C1565 0.950 . S
C1559 C1557 1.387 . S
C1559 C1561 1.390 . S
C1559 H1563 0.950 . S
H1560 C1556 0.950 . S
C1561 C1559 1.390 . S
C1561 C1562 1.387 . S
C1561 H1564 0.950 . S
C1562 C1561 1.387 . S
C1562 C1565 1.387 . S
H1563 C1559 0.950 . S
H1564 C1561 0.950 . S
C1565 C1556 1.390 . S
C1565 H1558 0.950 . S
C1565 C1562 1.387 . S
C1566 C1567 1.387 . S
C1566 H1570 0.950 . S
C1566 C1575 1.390 . S
C1567 C1566 1.387 . S
C1567 C1569 1.387 . S
H1568 C1575 0.950 . S
C1569 C1567 1.387 . S
C1569 C1571 1.390 . S
C1569 H1573 0.950 . S
H1570 C1566 0.950 . S
C1571 C1569 1.390 . S
C1571 C1572 1.387 . S
C1571 H1574 0.950 . S
C1572 C1571 1.387 . S
C1572 C1575 1.387 . S
H1573 C1569 0.950 . S
H1574 C1571 0.950 . S
C1575 C1566 1.390 . S
C1575 H1568 0.950 . S
C1575 C1572 1.387 . S
C1576 C1577 1.387 . S
C1576 H1580 0.950 . S
C1576 C1585 1.390 . S
C1577 C1576 1.387 . S
C1577 C1579 1.387 . S
H1578 C1585 0.950 . S
C1579 C1577 1.387 . S
C1579 C1581 1.390 . S
C1579 H1583 0.950 . S
H1580 C1576 0.950 . S
C1581 C1579 1.390 . S
C1581 C1582 1.387 . S
C1581 H1584 0.950 . S
C1582 C1581 1.387 . S
C1582 C1585 1.387 . S
H1583 C1579 0.950 . S
H1584 C1581 0.950 . S
C1585 C1576 1.390 . S
C1585 H1578 0.950 . S
C1585 C1582 1.387 . S
C1586 C1587 1.387 . S
C1586 H1590 0.950 . S
C1586 C1595 1.390 . S
C1587 C1586 1.387 . S
C1587 C1589 1.387 . S
H1588 C1595 0.950 . S
C1589 C1587 1.387 . S
C1589 C1591 1.390 . S
C1589 H1593 0.950 . S
H1590 C1586 0.950 . S
C1591 C1589 1.390 . S
C1591 C1592 1.387 . S
C1591 H1594 0.950 . S
C1592 C1591 1.387 . S
C1592 C1595 1.387 . S
H1593 C1589 0.950 . S
H1594 C1591 0.950 . S
C1595 C1586 1.390 . S
C1595 H1588 0.950 . S
C1595 C1592 1.387 . S
C1596 C1597 1.387 . S
C1596 H1600 0.950 . S
C1596 C1605 1.390 . S
C1597 C1596 1.387 . S
C1597 C1599 1.387 . S
H1598 C1605 0.950 . S
C1599 C1597 1.387 . S
C1599 C1601 1.390 . S
C1599 H1603 0.950 . S
H1600 C1596 0.950 . S
C1601 C1599 1.390 . S
C1601 C1602 1.387 . S
C1601 H1604 0.950 . S
C1602 C1601 1.387 . S
C1602 C1605 1.387 . S
H1603 C1599 0.950 . S
H1604 C1601 0.950 . S
C1605 C1596 1.390 . S
C1605 H1598 0.950 . S
C1605 C1602 1.387 . S
C1606 C1607 1.387 . S
C1606 H1610 0.950 . S
C1606 C1615 1.390 . S
C1607 C1606 1.387 . S
C1607 C1609 1.387 . S
H1608 C1615 0.950 . S
C1609 C1607 1.387 . S
C1609 C1611 1.390 . S
C1609 H1613 0.950 . S
H1610 C1606 0.950 . S
C1611 C1609 1.390 . S
C1611 C1612 1.387 . S
C1611 H1614 0.950 . S
C1612 C1611 1.387 . S
C1612 C1615 1.387 . S
H1613 C1609 0.950 . S
H1614 C1611 0.950 . S
C1615 C1606 1.390 . S
C1615 H1608 0.950 . S
C1615 C1612 1.387 . S
C1616 C1617 1.387 . S
C1616 H1620 0.950 . S
C1616 C1625 1.390 . S
C1617 C1616 1.387 . S
C1617 C1619 1.387 . S
H1618 C1625 0.950 . S
C1619 C1617 1.387 . S
C1619 C1621 1.390 . S
C1619 H1623 0.950 . S
H1620 C1616 0.950 . S
C1621 C1619 1.390 . S
C1621 C1622 1.387 . S
C1621 H1624 0.950 . S
C1622 C1621 1.387 . S
C1622 C1625 1.387 . S
H1623 C1619 0.950 . S
H1624 C1621 0.950 . S
C1625 C1616 1.390 . S
C1625 H1618 0.950 . S
C1625 C1622 1.387 . S
C1626 C1627 1.387 . S
C1626 H1630 0.950 . S
C1626 C1635 1.390 . S
C1627 C1626 1.387 . S
C1627 C1629 1.387 . S
H1628 C1635 0.950 . S
C1629 C1627 1.387 . S
C1629 C1631 1.390 . S
C1629 H1633 0.950 . S
H1630 C1626 0.950 . S
C1631 C1629 1.390 . S
C1631 C1632 1.387 . S
C1631 H1634 0.950 . S
C1632 C1631 1.387 . S
C1632 C1635 1.387 . S
H1633 C1629 0.950 . S
H1634 C1631 0.950 . S
C1635 C1626 1.390 . S
C1635 H1628 0.950 . S
C1635 C1632 1.387 . S
C1636 C1637 1.387 . S
C1636 H1640 0.950 . S
C1636 C1645 1.390 . S
C1637 C1636 1.387 . S
C1637 C1639 1.387 . S
H1638 C1645 0.950 . S
C1639 C1637 1.387 . S
C1639 C1641 1.390 . S
C1639 H1643 0.950 . S
H1640 C1636 0.950 . S
C1641 C1639 1.390 . S
C1641 C1642 1.387 . S
C1641 H1644 0.950 . S
C1642 C1641 1.387 . S
C1642 C1645 1.387 . S
H1643 C1639 0.950 . S
H1644 C1641 0.950 . S
C1645 C1636 1.390 . S
C1645 H1638 0.950 . S
C1645 C1642 1.387 . S
C1646 C1647 1.387 . S
C1646 H1650 0.950 . S
C1646 C1655 1.390 . S
C1647 C1646 1.387 . S
C1647 C1649 1.387 . S
H1648 C1655 0.950 . S
C1649 C1647 1.387 . S
C1649 C1651 1.390 . S
C1649 H1653 0.950 1_545 S
H1650 C1646 0.950 . S
C1651 C1649 1.390 . S
C1651 C1652 1.387 . S
C1651 H1654 0.950 . S
C1652 C1651 1.387 . S
C1652 C1655 1.387 . S
H1653 C1649 0.950 1_565 S
H1654 C1651 0.950 . S
C1655 C1646 1.390 . S
C1655 H1648 0.950 . S
C1655 C1652 1.387 . S
C1656 C1657 1.387 . S
C1656 H1660 0.950 . S
C1656 C1665 1.390 . S
C1657 C1656 1.387 . S
C1657 C1659 1.387 . S
H1658 C1665 0.950 . S
C1659 C1657 1.387 . S
C1659 C1661 1.390 . S
C1659 H1663 0.950 . S
H1660 C1656 0.950 . S
C1661 C1659 1.390 . S
C1661 C1662 1.387 . S
C1661 H1664 0.950 . S
C1662 C1661 1.387 . S
C1662 C1665 1.387 . S
H1663 C1659 0.950 . S
H1664 C1661 0.950 . S
C1665 C1656 1.390 . S
C1665 H1658 0.950 . S
C1665 C1662 1.387 . S
C1666 C1667 1.387 . S
C1666 H1670 0.950 . S
C1666 C1675 1.390 . S
C1667 C1666 1.387 . S
C1667 C1669 1.387 . S
H1668 C1675 0.950 . S
C1669 C1667 1.387 . S
C1669 C1671 1.390 . S
C1669 H1673 0.950 . S
H1670 C1666 0.950 . S
C1671 C1669 1.390 . S
C1671 C1672 1.387 . S
C1671 H1674 0.950 . S
C1672 C1671 1.387 . S
C1672 C1675 1.387 . S
H1673 C1669 0.950 . S
H1674 C1671 0.950 . S
C1675 C1666 1.390 . S
C1675 H1668 0.950 . S
C1675 C1672 1.387 . S
C1676 C1677 1.387 . S
C1676 H1680 0.950 . S
C1676 C1685 1.390 . S
C1677 C1676 1.387 . S
C1677 C1679 1.387 . S
H1678 C1685 0.950 . S
C1679 C1677 1.387 . S
C1679 C1681 1.390 . S
C1679 H1683 0.950 . S
H1680 C1676 0.950 . S
C1681 C1679 1.390 . S
C1681 C1682 1.387 . S
C1681 H1684 0.950 . S
C1682 C1681 1.387 . S
C1682 C1685 1.387 . S
H1683 C1679 0.950 . S
H1684 C1681 0.950 . S
C1685 C1676 1.390 . S
C1685 H1678 0.950 . S
C1685 C1682 1.387 . S
C1686 C1687 1.387 . S
C1686 H1690 0.950 . S
C1686 C1695 1.390 . S
C1687 C1686 1.387 . S
C1687 C1689 1.387 . S
H1688 C1695 0.950 . S
C1689 C1687 1.387 . S
C1689 C1691 1.390 . S
C1689 H1693 0.950 . S
H1690 C1686 0.950 . S
C1691 C1689 1.390 . S
C1691 C1692 1.387 . S
C1691 H1694 0.950 . S
C1692 C1691 1.387 . S
C1692 C1695 1.387 . S
H1693 C1689 0.950 . S
H1694 C1691 0.950 . S
C1695 C1686 1.390 . S
C1695 H1688 0.950 . S
C1695 C1692 1.387 . S
C1696 C1697 1.387 . S
C1696 H1700 0.950 . S
C1696 C1705 1.390 . S
C1697 C1696 1.387 . S
C1697 C1699 1.387 . S
H1698 C1705 0.950 . S
C1699 C1697 1.387 . S
C1699 C1701 1.390 . S
C1699 H1703 0.950 . S
H1700 C1696 0.950 . S
C1701 C1699 1.390 . S
C1701 C1702 1.387 . S
C1701 H1704 0.950 . S
C1702 C1701 1.387 . S
C1702 C1705 1.387 . S
H1703 C1699 0.950 . S
H1704 C1701 0.950 . S
C1705 C1696 1.390 . S
C1705 H1698 0.950 . S
C1705 C1702 1.387 . S
C1706 C1707 1.387 . S
C1706 H1710 0.950 . S
C1706 C1715 1.390 . S
C1707 C1706 1.387 . S
C1707 C1709 1.387 . S
H1708 C1715 0.950 . S
C1709 C1707 1.387 . S
C1709 C1711 1.390 . S
C1709 H1713 0.950 . S
H1710 C1706 0.950 . S
C1711 C1709 1.390 . S
C1711 C1712 1.387 . S
C1711 H1714 0.950 . S
C1712 C1711 1.387 . S
C1712 C1715 1.387 . S
H1713 C1709 0.950 . S
H1714 C1711 0.950 . S
C1715 C1706 1.390 . S
C1715 H1708 0.950 . S
C1715 C1712 1.387 . S
C1716 C1717 1.387 . S
C1716 H1720 0.950 . S
C1716 C1725 1.390 . S
C1717 C1716 1.387 . S
C1717 C1719 1.387 . S
H1718 C1725 0.950 . S
C1719 C1717 1.387 . S
C1719 C1721 1.390 . S
C1719 H1723 0.950 . S
H1720 C1716 0.950 . S
C1721 C1719 1.390 . S
C1721 C1722 1.387 . S
C1721 H1724 0.950 . S
C1722 C1721 1.387 . S
C1722 C1725 1.387 . S
H1723 C1719 0.950 . S
H1724 C1721 0.950 . S
C1725 C1716 1.390 . S
C1725 H1718 0.950 . S
C1725 C1722 1.387 . S
C1726 C1727 1.387 . S
C1726 H1730 0.950 . S
C1726 C1735 1.390 . S
C1727 C1726 1.387 . S
C1727 C1729 1.387 . S
H1728 C1735 0.950 . S
C1729 C1727 1.387 . S
C1729 C1731 1.390 . S
C1729 H1733 0.950 . S
H1730 C1726 0.950 . S
C1731 C1729 1.390 . S
C1731 C1732 1.387 . S
C1731 H1734 0.950 . S
C1732 C1731 1.387 . S
C1732 C1735 1.387 . S
H1733 C1729 0.950 . S
H1734 C1731 0.950 . S
C1735 C1726 1.390 . S
C1735 H1728 0.950 . S
C1735 C1732 1.387 . S
C1736 C1737 1.387 . S
C1736 H1740 0.950 . S
C1736 C1745 1.390 . S
C1737 C1736 1.387 . S
C1737 C1739 1.387 . S
H1738 C1745 0.950 1_554 S
C1739 C1737 1.387 . S
C1739 C1741 1.390 . S
C1739 H1743 0.950 . S
H1740 C1736 0.950 . S
C1741 C1739 1.390 . S
C1741 C1742 1.387 . S
C1741 H1744 0.950 . S
C1742 C1741 1.387 . S
C1742 C1745 1.387 . S
H1743 C1739 0.950 . S
H1744 C1741 0.950 . S
C1745 C1736 1.390 . S
C1745 H1738 0.950 1_556 S
C1745 C1742 1.387 . S
C1746 C1747 1.387 . S
C1746 H1750 0.950 . S
C1746 C1755 1.390 . S
C1747 C1746 1.387 . S
C1747 C1749 1.387 . S
H1748 C1755 0.950 . S
C1749 C1747 1.387 . S
C1749 C1751 1.390 . S
C1749 H1753 0.950 . S
H1750 C1746 0.950 . S
C1751 C1749 1.390 . S
C1751 C1752 1.387 . S
C1751 H1754 0.950 . S
C1752 C1751 1.387 . S
C1752 C1755 1.387 . S
H1753 C1749 0.950 . S
H1754 C1751 0.950 . S
C1755 C1746 1.390 . S
C1755 H1748 0.950 . S
C1755 C1752 1.387 . S
C1756 C1757 1.387 . S
C1756 H1760 0.950 1_455 S
C1756 C1765 1.390 . S
C1757 C1756 1.387 . S
C1757 C1759 1.387 . S
H1758 C1765 0.950 . S
C1759 C1757 1.387 . S
C1759 C1761 1.390 . S
C1759 H1763 0.950 . S
H1760 C1756 0.950 1_655 S
C1761 C1759 1.390 . S
C1761 C1762 1.387 . S
C1761 H1764 0.950 . S
C1762 C1761 1.387 . S
C1762 C1765 1.387 . S
H1763 C1759 0.950 . S
H1764 C1761 0.950 . S
C1765 C1756 1.390 . S
C1765 H1758 0.950 . S
C1765 C1762 1.387 . S
C1766 C1767 1.387 . S
C1766 H1770 0.950 . S
C1766 C1775 1.390 . S
C1767 C1766 1.387 . S
C1767 C1769 1.387 . S
H1768 C1775 0.950 . S
C1769 C1767 1.387 . S
C1769 C1771 1.390 . S
C1769 H1773 0.950 . S
H1770 C1766 0.950 . S
C1771 C1769 1.390 . S
C1771 C1772 1.387 . S
C1771 H1774 0.950 . S
C1772 C1771 1.387 . S
C1772 C1775 1.387 . S
H1773 C1769 0.950 . S
H1774 C1771 0.950 . S
C1775 C1766 1.390 . S
C1775 H1768 0.950 . S
C1775 C1772 1.387 . S
C1776 C1777 1.387 . S
C1776 H1780 0.950 . S
C1776 C1785 1.390 . S
C1777 C1776 1.387 . S
C1777 C1779 1.387 . S
H1778 C1785 0.950 . S
C1779 C1777 1.387 . S
C1779 C1781 1.390 . S
C1779 H1783 0.950 . S
H1780 C1776 0.950 . S
C1781 C1779 1.390 . S
C1781 C1782 1.387 . S
C1781 H1784 0.950 . S
C1782 C1781 1.387 . S
C1782 C1785 1.387 . S
H1783 C1779 0.950 . S
H1784 C1781 0.950 . S
C1785 C1776 1.390 . S
C1785 H1778 0.950 . S
C1785 C1782 1.387 . S
C1786 C1787 1.387 . S
C1786 H1790 0.950 . S
C1786 C1795 1.390 . S
C1787 C1786 1.387 . S
C1787 C1789 1.387 . S
H1788 C1795 0.950 . S
C1789 C1787 1.387 . S
C1789 C1791 1.390 . S
C1789 H1793 0.950 . S
H1790 C1786 0.950 . S
C1791 C1789 1.390 . S
C1791 C1792 1.387 . S
C1791 H1794 0.950 . S
C1792 C1791 1.387 . S
C1792 C1795 1.387 . S
H1793 C1789 0.950 . S
H1794 C1791 0.950 . S
C1795 C1786 1.390 . S
C1795 H1788 0.950 . S
C1795 C1792 1.387 . S
C1796 C1797 1.387 . S
C1796 H1800 0.950 . S
C1796 C1805 1.390 . S
C1797 C1796 1.387 . S
C1797 C1799 1.387 . S
H1798 C1805 0.950 . S
C1799 C1797 1.387 . S
C1799 C1801 1.390 . S
C1799 H1803 0.950 . S
H1800 C1796 0.950 . S
C1801 C1799 1.390 . S
C1801 C1802 1.387 . S
C1801 H1804 0.950 1_556 S
C1802 C1801 1.387 . S
C1802 C1805 1.387 . S
H1803 C1799 0.950 . S
H1804 C1801 0.950 1_554 S
C1805 C1796 1.390 . S
C1805 H1798 0.950 . S
C1805 C1802 1.387 . S
C1806 C1807 1.387 . S
C1806 H1810 0.950 . S
C1806 C1815 1.390 . S
C1807 C1806 1.387 . S
C1807 C1809 1.387 . S
H1808 C1815 0.950 . S
C1809 C1807 1.387 . S
C1809 C1811 1.390 . S
C1809 H1813 0.950 . S
H1810 C1806 0.950 . S
C1811 C1809 1.390 . S
C1811 C1812 1.387 . S
C1811 H1814 0.950 . S
C1812 C1811 1.387 . S
C1812 C1815 1.387 . S
H1813 C1809 0.950 . S
H1814 C1811 0.950 . S
C1815 C1806 1.390 . S
C1815 H1808 0.950 . S
C1815 C1812 1.387 . S
C1816 C1817 1.387 . S
C1816 H1820 0.950 . S
C1816 C1825 1.390 . S
C1817 C1816 1.387 . S
C1817 C1819 1.387 . S
H1818 C1825 0.950 . S
C1819 C1817 1.387 . S
C1819 C1821 1.390 . S
C1819 H1823 0.950 . S
H1820 C1816 0.950 . S
C1821 C1819 1.390 . S
C1821 C1822 1.387 . S
C1821 H1824 0.950 . S
C1822 C1821 1.387 . S
C1822 C1825 1.387 . S
H1823 C1819 0.950 . S
H1824 C1821 0.950 . S
C1825 C1816 1.390 . S
C1825 H1818 0.950 . S
C1825 C1822 1.387 . S
C1826 C1827 1.387 . S
C1826 H1830 0.950 . S
C1826 C1835 1.390 . S
C1827 C1826 1.387 . S
C1827 C1829 1.387 . S
H1828 C1835 0.950 . S
C1829 C1827 1.387 . S
C1829 C1831 1.390 . S
C1829 H1833 0.950 . S
H1830 C1826 0.950 . S
C1831 C1829 1.390 . S
C1831 C1832 1.387 . S
C1831 H1834 0.950 . S
C1832 C1831 1.387 . S
C1832 C1835 1.387 . S
H1833 C1829 0.950 . S
H1834 C1831 0.950 . S
C1835 C1826 1.390 . S
C1835 H1828 0.950 . S
C1835 C1832 1.387 . S
C1836 C1837 1.400 . S
C1836 H1840 0.953 . S
C1836 C1845 1.375 1_655 S
C1837 C1836 1.400 . S
C1837 C1839 1.387 . S
H1838 C1845 0.950 . S
C1839 C1837 1.387 . S
C1839 C1841 1.390 . S
C1839 H1843 0.950 . S
H1840 C1836 0.953 . S
C1841 C1839 1.390 . S
C1841 C1842 1.385 1_655 S
C1841 H1844 0.950 . S
C1842 C1841 1.385 1_455 S
C1842 C1845 1.387 . S
H1843 C1839 0.950 . S
H1844 C1841 0.950 . S
C1845 C1836 1.375 1_455 S
C1845 H1838 0.950 . S
C1845 C1842 1.387 . S
C1846 C1847 1.387 . S
C1846 H1850 0.950 . S
C1846 C1855 1.390 . S
C1847 C1846 1.387 . S
C1847 C1849 1.387 . S
H1848 C1855 0.950 . S
C1849 C1847 1.387 . S
C1849 C1851 1.390 . S
C1849 H1853 0.950 . S
H1850 C1846 0.950 . S
C1851 C1849 1.390 . S
C1851 C1852 1.387 . S
C1851 H1854 0.950 . S
C1852 C1851 1.387 . S
C1852 C1855 1.387 . S
H1853 C1849 0.950 . S
H1854 C1851 0.950 . S
C1855 C1846 1.390 . S
C1855 H1848 0.950 . S
C1855 C1852 1.387 . S
C1856 C1857 1.387 . S
C1856 H1860 0.950 . S
C1856 C1865 1.390 . S
C1857 C1856 1.387 . S
C1857 C1859 1.387 . S
H1858 C1865 0.950 . S
C1859 C1857 1.387 . S
C1859 C1861 1.390 . S
C1859 H1863 0.950 . S
H1860 C1856 0.950 . S
C1861 C1859 1.390 . S
C1861 C1862 1.387 . S
C1861 H1864 0.950 . S
C1862 C1861 1.387 . S
C1862 C1865 1.387 . S
H1863 C1859 0.950 . S
H1864 C1861 0.950 . S
C1865 C1856 1.390 . S
C1865 H1858 0.950 . S
C1865 C1862 1.387 . S
C1866 C1867 1.387 1_565 S
C1866 H1870 0.950 . S
C1866 C1875 1.390 1_565 S
C1867 C1866 1.387 1_545 S
C1867 C1869 1.387 . S
H1868 C1875 0.950 . S
C1869 C1867 1.387 . S
C1869 C1871 1.390 . S
C1869 H1873 0.950 . S
H1870 C1866 0.950 . S
C1871 C1869 1.390 . S
C1871 C1872 1.387 . S
C1871 H1874 0.950 . S
C1872 C1871 1.387 . S
C1872 C1875 1.387 . S
H1873 C1869 0.950 . S
H1874 C1871 0.950 . S
C1875 C1866 1.390 1_545 S
C1875 H1868 0.950 . S
C1875 C1872 1.387 . S
C1876 C1877 1.387 . S
C1876 H1880 0.950 . S
C1876 C1885 1.390 . S
C1877 C1876 1.387 . S
C1877 C1879 1.387 . S
H1878 C1885 0.950 . S
C1879 C1877 1.387 . S
C1879 C1881 1.390 . S
C1879 H1883 0.950 . S
H1880 C1876 0.950 . S
C1881 C1879 1.390 . S
C1881 C1882 1.387 . S
C1881 H1884 0.950 . S
C1882 C1881 1.387 . S
C1882 C1885 1.387 . S
H1883 C1879 0.950 . S
H1884 C1881 0.950 . S
C1885 C1876 1.390 . S
C1885 H1878 0.950 . S
C1885 C1882 1.387 . S
C1886 C1887 1.387 . S
C1886 H1890 0.950 . S
C1886 C1895 1.390 . S
C1887 C1886 1.387 . S
C1887 C1889 1.387 1_554 S
H1888 C1895 0.950 . S
C1889 C1887 1.387 1_556 S
C1889 C1891 1.390 . S
C1889 H1893 0.950 . S
H1890 C1886 0.950 . S
C1891 C1889 1.390 . S
C1891 C1892 1.387 1_556 S
C1891 H1894 0.950 . S
C1892 C1891 1.387 1_554 S
C1892 C1895 1.387 . S
H1893 C1889 0.950 . S
H1894 C1891 0.950 . S
C1895 C1886 1.390 . S
C1895 H1888 0.950 . S
C1895 C1892 1.387 . S
C1896 C1897 1.387 . S
C1896 H1900 0.950 . S
C1896 C1905 1.390 . S
C1897 C1896 1.387 . S
C1897 C1899 1.387 . S
H1898 C1905 0.950 . S
C1899 C1897 1.387 . S
C1899 C1901 1.390 . S
C1899 H1903 0.950 . S
H1900 C1896 0.950 . S
C1901 C1899 1.390 . S
C1901 C1902 1.387 . S
C1901 H1904 0.950 . S
C1902 C1901 1.387 . S
C1902 C1905 1.387 . S
H1903 C1899 0.950 . S
H1904 C1901 0.950 . S
C1905 C1896 1.390 . S
C1905 H1898 0.950 . S
C1905 C1902 1.387 . S
C1906 C1907 1.387 . S
C1906 H1910 0.969 . S
C1906 C1915 1.401 . S
C1907 C1906 1.387 . S
C1907 C1909 1.387 . S
H1908 C1915 0.922 1_556 S
C1909 C1907 1.387 . S
C1909 C1911 1.390 . S
C1909 H1913 0.950 . S
H1910 C1906 0.969 . S
C1911 C1909 1.390 . S
C1911 C1912 1.387 . S
C1911 H1914 0.950 . S
C1912 C1911 1.387 . S
C1912 C1915 1.405 . S
H1913 C1909 0.950 . S
H1914 C1911 0.950 . S
C1915 C1906 1.401 . S
C1915 H1908 0.922 1_554 S
C1915 C1912 1.405 . S
C1916 C1917 1.387 . S
C1916 H1920 0.950 . S
C1916 C1925 1.390 . S
C1917 C1916 1.387 . S
C1917 C1919 1.387 . S
H1918 C1925 0.950 . S
C1919 C1917 1.387 . S
C1919 C1921 1.390 . S
C1919 H1923 0.950 . S
H1920 C1916 0.950 . S
C1921 C1919 1.390 . S
C1921 C1922 1.387 . S
C1921 H1924 0.950 . S
C1922 C1921 1.387 . S
C1922 C1925 1.387 . S
H1923 C1919 0.950 . S
H1924 C1921 0.950 . S
C1925 C1916 1.390 . S
C1925 H1918 0.950 . S
C1925 C1922 1.387 . S
C1926 C1927 1.387 . S
C1926 H1930 0.950 . S
C1926 C1935 1.390 . S
C1927 C1926 1.387 . S
C1927 C1929 1.387 . S
H1928 C1935 0.950 . S
C1929 C1927 1.387 . S
C1929 C1931 1.390 . S
C1929 H1933 0.950 . S
H1930 C1926 0.950 . S
C1931 C1929 1.390 . S
C1931 C1932 1.387 . S
C1931 H1934 0.950 . S
C1932 C1931 1.387 . S
C1932 C1935 1.387 . S
H1933 C1929 0.950 . S
H1934 C1931 0.950 . S
C1935 C1926 1.390 . S
C1935 H1928 0.950 . S
C1935 C1932 1.387 . S
C977 C106 2.602 . S
C982 C346 2.527 . S
C987 C65 1.864 . S
C992 C385 1.796 . S
C997 C79 1.923 . S
C1002 C426 1.923 . S
C1012 C471 1.365 . S
C1007 C90 1.408 . S
C1017 C21 1.927 . S
C1022 C515 1.961 . S
C1032 C546 1.673 . S
C1027 C35 1.650 . S
C1042 C594 2.094 . S
C1037 C50 2.075 . S
C1047 C6 2.106 . S
C1052 C622 2.111 . S
C1062 C354 2.380 . S
C1057 C232 2.249 . S
C1067 C245 1.677 . S
C1072 C395 1.686 . S
C1082 C434 1.745 . S
C1077 C274 1.698 1_545 S
C1092 C466 1.633 . S
C1087 C175 1.621 . S
C1097 C231 0.628 . S
C1102 C502 0.609 . S
C1112 C554 2.146 . S
C1107 C246 2.128 . S
C1122 C591 1.336 . S
C1117 C273 1.294 . S
C1132 C625 2.338 . S
C1127 C176 2.295 . S
C1142 C351 2.229 . S
C1137 C160 2.289 1_545 S
C1147 C289 1.977 . S
C1152 C665 1.919 . S
C1162 C711 1.711 . S
C1157 C328 1.629 . S
C1172 C746 1.765 . S
C1167 C317 1.854 . S
C1177 C118 2.144 . S
C1182 C635 2.330 . S
C1187 C132 1.493 . S
C1192 C431 1.474 . S
C1197 C331 1.586 . S
C1202 C794 1.612 . S
C1212 C822 0.891 . S
C1207 C303 0.919 . S
C1222 C355 2.143 . S
C1217 C63 2.147 . S
C1232 C834 2.266 . S
C1227 C107 2.284 . S
C1237 C92 1.650 . S
C1242 C435 1.680 . S
C1247 C78 1.630 . S
C1252 C782 1.593 . S
C1262 C506 2.570 . S
C1257 C8 2.481 . S
C1267 C51 1.728 . S
C1272 C715 1.630 . S
C1282 C585 2.306 1_565 S
C1277 C37 2.276 . S
C1292 C871 1.974 1_455 S
C1287 C20 2.024 . S
C1302 C345 1.891 . S
C1297 C147 1.688 . S
C1312 C826 1.761 . S
C1307 C316 1.784 . S
C1317 C119 1.548 . S
C1322 C425 1.762 . S
C1327 C288 1.742 . S
C1332 C795 1.770 . S
C1337 C148 0.640 . S
C1342 C511 0.631 . S
C1352 C705 2.105 . S
C1347 C315 2.093 . S
C1357 C120 1.894 . S
C1362 C582 1.759 . S
C1367 C287 2.007 . S
C1372 C874 2.063 . S
C1377 C188 2.079 . S
C1382 C342 1.957 . S
C1387 C177 2.223 . S
C1392 C674 2.212 . S
C1397 C258 1.686 . S
C1402 C542 1.682 . S
C1407 C247 2.045 . S
C1412 C755 1.947 . S
C1422 C866 2.185 . S
C1417 C272 2.109 . S
C1427 C216 1.443 . S
C1432 C422 1.405 . S
C1442 C465 1.931 . S
C1437 C261 1.747 . S
C1452 C391 0.739 . S
C1447 C205 0.737 . S
C1457 C76 2.163 . S
C1462 C906 2.158 . S
C1472 C825 1.873 . S
C1467 C93 1.943 . S
C1477 C105 1.567 . S
C1482 C946 1.580 . S
C1487 C62 1.399 . S
C1492 C791 1.365 . S
C1497 C49 1.908 . S
C1502 C675 1.944 . S
C1512 C706 2.071 . S
C1507 C9 2.144 . S
C1522 C754 2.044 . S
C1517 C22 2.029 . S
C1532 C862 2.309 . S
C1527 C36 2.468 . S
C1542 C914 2.288 . S
C1537 C260 2.165 . S
C1547 C189 1.608 . S
C1552 C835 1.623 . S
C1562 C954 1.726 . S
C1557 C204 1.682 . S
C1572 C786 1.497 . S
C1567 C217 1.503 . S
C1582 C662 0.620 . S
C1577 C259 0.653 . S
C1587 C190 2.218 . S
C1592 C714 2.236 . S
C1602 C751 1.491 . S
C1597 C203 1.431 . S
C1607 C218 2.306 . S
C1612 C865 2.362 . S
C1622 C911 2.230 . S
C1617 C314 2.287 . S
C1627 C135 1.999 . S
C1632 C505 1.946 . S
C1642 C551 1.698 . S
C1637 C146 1.612 . S
C1652 C586 1.828 . S
C1647 C163 1.892 1_545 S
C1662 C875 2.302 . S
C1657 C300 2.135 . S
C1667 C286 1.500 . S
C1672 C951 1.483 . S
C1682 C474 1.594 . S
C1677 C149 1.562 . S
C1692 C382 0.922 . S
C1687 C121 0.962 . S
C1697 C91 2.133 . S
C1702 C915 2.144 . S
C1712 C394 1.854 . S
C1707 C77 1.802 . S
C1717 C64 1.637 . S
C1722 C955 1.674 . S
C1727 C104 1.430 . S
C1732 C462 1.407 . S
C1737 C34 2.084 . S
C1742 C666 2.152 1_556 S
C1752 C555 1.597 . S
C1747 C23 1.682 . S
C1757 C7 1.854 . S
C1762 C745 1.909 . S
C1767 C48 1.873 . S
C1772 C631 1.844 . S
C1782 C905 1.805 . S
C1777 C329 1.617 . S
C1787 C162 1.780 . S
C1792 C386 1.772 . S
C1802 C945 1.729 1_556 S
C1797 C301 1.537 . S
C1807 C134 1.728 . S
C1812 C475 1.766 . S
C1817 C330 0.671 . S
C1822 C671 0.668 . S
C1832 C545 2.081 . S
C1827 C161 2.075 . S
C1837 C302 1.794 . S
C1842 C742 1.685 . S
C1852 C634 2.017 . S
C1847 C133 1.972 . S
C1862 C902 2.037 . S
C1857 C244 2.143 . S
C1872 C514 2.212 1_655 S
C1867 C219 2.223 1_545 S
C1877 C230 1.660 . S
C1882 C702 1.649 . S
C1892 C595 1.888 . S
C1887 C191 2.017 1_554 S
C1897 C202 2.212 . S
C1902 C626 2.296 . S
C1907 C174 1.498 . S
C1912 C942 1.481 . S
C1922 C785 1.972 . S
C1917 C233 1.771 . S
C1932 C831 0.827 . S
C1927 C275 0.825 . S
