# Generated by pormake.
# Topology iac, (4,6)-cn, num edge types: 1
# Building blocks:
#     Node 0, Type 0, BuildingBlock: TATPOV_clean_sbu_0, # of connection points: 4
#     Node 1, Type 0, BuildingBlock: TATPOV_clean_sbu_0, # of connection points: 4
#     Node 2, Type 0, BuildingBlock: TATPOV_clean_sbu_0, # of connection points: 4
#     Node 3, Type 0, BuildingBlock: TATPOV_clean_sbu_0, # of connection points: 4
#     Node 4, Type 0, BuildingBlock: TATPOV_clean_sbu_0, # of connection points: 4
#     Node 5, Type 0, BuildingBlock: TATPOV_clean_sbu_0, # of connection points: 4
#     Node 6, Type 0, BuildingBlock: TATPOV_clean_sbu_0, # of connection points: 4
#     Node 7, Type 0, BuildingBlock: TATPOV_clean_sbu_0, # of connection points: 4
#     Node 8, Type 0, BuildingBlock: TATPOV_clean_sbu_0, # of connection points: 4
#     Node 9, Type 0, BuildingBlock: TATPOV_clean_sbu_0, # of connection points: 4
#     Node 10, Type 0, BuildingBlock: TATPOV_clean_sbu_0, # of connection points: 4
#     Node 11, Type 0, BuildingBlock: TATPOV_clean_sbu_0, # of connection points: 4
#     Node 12, Type 0, BuildingBlock: TATPOV_clean_sbu_0, # of connection points: 4
#     Node 13, Type 0, BuildingBlock: TATPOV_clean_sbu_0, # of connection points: 4
#     Node 14, Type 0, BuildingBlock: TATPOV_clean_sbu_0, # of connection points: 4
#     Node 15, Type 0, BuildingBlock: TATPOV_clean_sbu_0, # of connection points: 4
#     Node 16, Type 0, BuildingBlock: TATPOV_clean_sbu_0, # of connection points: 4
#     Node 17, Type 0, BuildingBlock: TATPOV_clean_sbu_0, # of connection points: 4
#     Node 18, Type 0, BuildingBlock: TATPOV_clean_sbu_0, # of connection points: 4
#     Node 19, Type 0, BuildingBlock: TATPOV_clean_sbu_0, # of connection points: 4
#     Node 20, Type 0, BuildingBlock: TATPOV_clean_sbu_0, # of connection points: 4
#     Node 21, Type 0, BuildingBlock: TATPOV_clean_sbu_0, # of connection points: 4
#     Node 22, Type 0, BuildingBlock: TATPOV_clean_sbu_0, # of connection points: 4
#     Node 23, Type 0, BuildingBlock: TATPOV_clean_sbu_0, # of connection points: 4
#     Node 24, Type 1, BuildingBlock: CIFDUS_clean_sbu_1, # of connection points: 6
#     Node 25, Type 1, BuildingBlock: CIFDUS_clean_sbu_1, # of connection points: 6
#     Node 26, Type 1, BuildingBlock: CIFDUS_clean_sbu_1, # of connection points: 6
#     Node 27, Type 1, BuildingBlock: CIFDUS_clean_sbu_1, # of connection points: 6
#     Node 28, Type 1, BuildingBlock: CIFDUS_clean_sbu_1, # of connection points: 6
#     Node 29, Type 1, BuildingBlock: CIFDUS_clean_sbu_1, # of connection points: 6
#     Node 30, Type 1, BuildingBlock: CIFDUS_clean_sbu_1, # of connection points: 6
#     Node 31, Type 1, BuildingBlock: CIFDUS_clean_sbu_1, # of connection points: 6
#     Node 32, Type 1, BuildingBlock: CIFDUS_clean_sbu_1, # of connection points: 6
#     Node 33, Type 1, BuildingBlock: CIFDUS_clean_sbu_1, # of connection points: 6
#     Node 34, Type 1, BuildingBlock: CIFDUS_clean_sbu_1, # of connection points: 6
#     Node 35, Type 1, BuildingBlock: CIFDUS_clean_sbu_1, # of connection points: 6
#     Node 36, Type 1, BuildingBlock: CIFDUS_clean_sbu_1, # of connection points: 6
#     Node 37, Type 1, BuildingBlock: CIFDUS_clean_sbu_1, # of connection points: 6
#     Node 38, Type 1, BuildingBlock: CIFDUS_clean_sbu_1, # of connection points: 6
#     Node 39, Type 1, BuildingBlock: CIFDUS_clean_sbu_1, # of connection points: 6
#     Edge 40, Type (0, 1), BuildingBlock: MIFKUJ_clean_linker_0, # of connection points: 2
#     Edge 41, Type (0, 1), BuildingBlock: MIFKUJ_clean_linker_0, # of connection points: 2
#     Edge 42, Type (0, 1), BuildingBlock: MIFKUJ_clean_linker_0, # of connection points: 2
#     Edge 43, Type (0, 1), BuildingBlock: MIFKUJ_clean_linker_0, # of connection points: 2
#     Edge 44, Type (0, 1), BuildingBlock: MIFKUJ_clean_linker_0, # of connection points: 2
#     Edge 45, Type (0, 1), BuildingBlock: MIFKUJ_clean_linker_0, # of connection points: 2
#     Edge 46, Type (0, 1), BuildingBlock: MIFKUJ_clean_linker_0, # of connection points: 2
#     Edge 47, Type (0, 1), BuildingBlock: MIFKUJ_clean_linker_0, # of connection points: 2
#     Edge 48, Type (0, 1), BuildingBlock: MIFKUJ_clean_linker_0, # of connection points: 2
#     Edge 49, Type (0, 1), BuildingBlock: MIFKUJ_clean_linker_0, # of connection points: 2
#     Edge 50, Type (0, 1), BuildingBlock: MIFKUJ_clean_linker_0, # of connection points: 2
#     Edge 51, Type (0, 1), BuildingBlock: MIFKUJ_clean_linker_0, # of connection points: 2
#     Edge 52, Type (0, 1), BuildingBlock: MIFKUJ_clean_linker_0, # of connection points: 2
#     Edge 53, Type (0, 1), BuildingBlock: MIFKUJ_clean_linker_0, # of connection points: 2
#     Edge 54, Type (0, 1), BuildingBlock: MIFKUJ_clean_linker_0, # of connection points: 2
#     Edge 55, Type (0, 1), BuildingBlock: MIFKUJ_clean_linker_0, # of connection points: 2
#     Edge 56, Type (0, 1), BuildingBlock: MIFKUJ_clean_linker_0, # of connection points: 2
#     Edge 57, Type (0, 1), BuildingBlock: MIFKUJ_clean_linker_0, # of connection points: 2
#     Edge 58, Type (0, 1), BuildingBlock: MIFKUJ_clean_linker_0, # of connection points: 2
#     Edge 59, Type (0, 1), BuildingBlock: MIFKUJ_clean_linker_0, # of connection points: 2
#     Edge 60, Type (0, 1), BuildingBlock: MIFKUJ_clean_linker_0, # of connection points: 2
#     Edge 61, Type (0, 1), BuildingBlock: MIFKUJ_clean_linker_0, # of connection points: 2
#     Edge 62, Type (0, 1), BuildingBlock: MIFKUJ_clean_linker_0, # of connection points: 2
#     Edge 63, Type (0, 1), BuildingBlock: MIFKUJ_clean_linker_0, # of connection points: 2
#     Edge 64, Type (0, 1), BuildingBlock: MIFKUJ_clean_linker_0, # of connection points: 2
#     Edge 65, Type (0, 1), BuildingBlock: MIFKUJ_clean_linker_0, # of connection points: 2
#     Edge 66, Type (0, 1), BuildingBlock: MIFKUJ_clean_linker_0, # of connection points: 2
#     Edge 67, Type (0, 1), BuildingBlock: MIFKUJ_clean_linker_0, # of connection points: 2
#     Edge 68, Type (0, 1), BuildingBlock: MIFKUJ_clean_linker_0, # of connection points: 2
#     Edge 69, Type (0, 1), BuildingBlock: MIFKUJ_clean_linker_0, # of connection points: 2
#     Edge 70, Type (0, 1), BuildingBlock: MIFKUJ_clean_linker_0, # of connection points: 2
#     Edge 71, Type (0, 1), BuildingBlock: MIFKUJ_clean_linker_0, # of connection points: 2
#     Edge 72, Type (0, 1), BuildingBlock: MIFKUJ_clean_linker_0, # of connection points: 2
#     Edge 73, Type (0, 1), BuildingBlock: MIFKUJ_clean_linker_0, # of connection points: 2
#     Edge 74, Type (0, 1), BuildingBlock: MIFKUJ_clean_linker_0, # of connection points: 2
#     Edge 75, Type (0, 1), BuildingBlock: MIFKUJ_clean_linker_0, # of connection points: 2
#     Edge 76, Type (0, 1), BuildingBlock: MIFKUJ_clean_linker_0, # of connection points: 2
#     Edge 77, Type (0, 1), BuildingBlock: MIFKUJ_clean_linker_0, # of connection points: 2
#     Edge 78, Type (0, 1), BuildingBlock: MIFKUJ_clean_linker_0, # of connection points: 2
#     Edge 79, Type (0, 1), BuildingBlock: MIFKUJ_clean_linker_0, # of connection points: 2
#     Edge 80, Type (0, 1), BuildingBlock: MIFKUJ_clean_linker_0, # of connection points: 2
#     Edge 81, Type (0, 1), BuildingBlock: MIFKUJ_clean_linker_0, # of connection points: 2
#     Edge 82, Type (0, 1), BuildingBlock: MIFKUJ_clean_linker_0, # of connection points: 2
#     Edge 83, Type (0, 1), BuildingBlock: MIFKUJ_clean_linker_0, # of connection points: 2
#     Edge 84, Type (0, 1), BuildingBlock: MIFKUJ_clean_linker_0, # of connection points: 2
#     Edge 85, Type (0, 1), BuildingBlock: MIFKUJ_clean_linker_0, # of connection points: 2
#     Edge 86, Type (0, 1), BuildingBlock: MIFKUJ_clean_linker_0, # of connection points: 2
#     Edge 87, Type (0, 1), BuildingBlock: MIFKUJ_clean_linker_0, # of connection points: 2
#     Edge 88, Type (0, 1), BuildingBlock: MIFKUJ_clean_linker_0, # of connection points: 2
#     Edge 89, Type (0, 1), BuildingBlock: MIFKUJ_clean_linker_0, # of connection points: 2
#     Edge 90, Type (0, 1), BuildingBlock: MIFKUJ_clean_linker_0, # of connection points: 2
#     Edge 91, Type (0, 1), BuildingBlock: MIFKUJ_clean_linker_0, # of connection points: 2
#     Edge 92, Type (0, 1), BuildingBlock: MIFKUJ_clean_linker_0, # of connection points: 2
#     Edge 93, Type (0, 1), BuildingBlock: MIFKUJ_clean_linker_0, # of connection points: 2
#     Edge 94, Type (0, 1), BuildingBlock: MIFKUJ_clean_linker_0, # of connection points: 2
#     Edge 95, Type (0, 1), BuildingBlock: MIFKUJ_clean_linker_0, # of connection points: 2
#     Edge 96, Type (0, 1), BuildingBlock: MIFKUJ_clean_linker_0, # of connection points: 2
#     Edge 97, Type (0, 1), BuildingBlock: MIFKUJ_clean_linker_0, # of connection points: 2
#     Edge 98, Type (0, 1), BuildingBlock: MIFKUJ_clean_linker_0, # of connection points: 2
#     Edge 99, Type (0, 1), BuildingBlock: MIFKUJ_clean_linker_0, # of connection points: 2
#     Edge 100, Type (0, 1), BuildingBlock: MIFKUJ_clean_linker_0, # of connection points: 2
#     Edge 101, Type (0, 1), BuildingBlock: MIFKUJ_clean_linker_0, # of connection points: 2
#     Edge 102, Type (0, 1), BuildingBlock: MIFKUJ_clean_linker_0, # of connection points: 2
#     Edge 103, Type (0, 1), BuildingBlock: MIFKUJ_clean_linker_0, # of connection points: 2
#     Edge 104, Type (0, 1), BuildingBlock: MIFKUJ_clean_linker_0, # of connection points: 2
#     Edge 105, Type (0, 1), BuildingBlock: MIFKUJ_clean_linker_0, # of connection points: 2
#     Edge 106, Type (0, 1), BuildingBlock: MIFKUJ_clean_linker_0, # of connection points: 2
#     Edge 107, Type (0, 1), BuildingBlock: MIFKUJ_clean_linker_0, # of connection points: 2
#     Edge 108, Type (0, 1), BuildingBlock: MIFKUJ_clean_linker_0, # of connection points: 2
#     Edge 109, Type (0, 1), BuildingBlock: MIFKUJ_clean_linker_0, # of connection points: 2
#     Edge 110, Type (0, 1), BuildingBlock: MIFKUJ_clean_linker_0, # of connection points: 2
#     Edge 111, Type (0, 1), BuildingBlock: MIFKUJ_clean_linker_0, # of connection points: 2
#     Edge 112, Type (0, 1), BuildingBlock: MIFKUJ_clean_linker_0, # of connection points: 2
#     Edge 113, Type (0, 1), BuildingBlock: MIFKUJ_clean_linker_0, # of connection points: 2
#     Edge 114, Type (0, 1), BuildingBlock: MIFKUJ_clean_linker_0, # of connection points: 2
#     Edge 115, Type (0, 1), BuildingBlock: MIFKUJ_clean_linker_0, # of connection points: 2
#     Edge 116, Type (0, 1), BuildingBlock: MIFKUJ_clean_linker_0, # of connection points: 2
#     Edge 117, Type (0, 1), BuildingBlock: MIFKUJ_clean_linker_0, # of connection points: 2
#     Edge 118, Type (0, 1), BuildingBlock: MIFKUJ_clean_linker_0, # of connection points: 2
#     Edge 119, Type (0, 1), BuildingBlock: MIFKUJ_clean_linker_0, # of connection points: 2
#     Edge 120, Type (0, 1), BuildingBlock: MIFKUJ_clean_linker_0, # of connection points: 2
#     Edge 121, Type (0, 1), BuildingBlock: MIFKUJ_clean_linker_0, # of connection points: 2
#     Edge 122, Type (0, 1), BuildingBlock: MIFKUJ_clean_linker_0, # of connection points: 2
#     Edge 123, Type (0, 1), BuildingBlock: MIFKUJ_clean_linker_0, # of connection points: 2
#     Edge 124, Type (0, 1), BuildingBlock: MIFKUJ_clean_linker_0, # of connection points: 2
#     Edge 125, Type (0, 1), BuildingBlock: MIFKUJ_clean_linker_0, # of connection points: 2
#     Edge 126, Type (0, 1), BuildingBlock: MIFKUJ_clean_linker_0, # of connection points: 2
#     Edge 127, Type (0, 1), BuildingBlock: MIFKUJ_clean_linker_0, # of connection points: 2
#     Edge 128, Type (0, 1), BuildingBlock: MIFKUJ_clean_linker_0, # of connection points: 2
#     Edge 129, Type (0, 1), BuildingBlock: MIFKUJ_clean_linker_0, # of connection points: 2
#     Edge 130, Type (0, 1), BuildingBlock: MIFKUJ_clean_linker_0, # of connection points: 2
#     Edge 131, Type (0, 1), BuildingBlock: MIFKUJ_clean_linker_0, # of connection points: 2
#     Edge 132, Type (0, 1), BuildingBlock: MIFKUJ_clean_linker_0, # of connection points: 2
#     Edge 133, Type (0, 1), BuildingBlock: MIFKUJ_clean_linker_0, # of connection points: 2
#     Edge 134, Type (0, 1), BuildingBlock: MIFKUJ_clean_linker_0, # of connection points: 2
#     Edge 135, Type (0, 1), BuildingBlock: MIFKUJ_clean_linker_0, # of connection points: 2
# Relax obj value: 0.110
# Max RMSD: 0.176
# Mean RMSD: 0.129
data_MOF--net-iac--node1-TATPOV_clean_sbu_0--node2-CIFDUS_clean_sbu_1--edge1-MIFKUJ_clean_linker_0
_symmetry_space_group_name_H-M    P1
_symmetry_Int_Tables_number       1
_symmetry_cell_setting            triclinic
loop_
_symmetry_equiv_pos_as_xyz
'x, y, z'
_cell_length_a     69.23614
_cell_length_b     69.19072
_cell_length_c     69.835532
_cell_angle_alpha  90.326723
_cell_angle_beta   90.592209
_cell_angle_gamma 91.884397
loop_
_atom_site_label
_atom_site_type_symbol
_atom_site_fract_x
_atom_site_fract_y
_atom_site_fract_z
_atom_type_partial_charge
Zn0 Zn 0.02916 0.27109 0.11583 0.0
Zn1 Zn 0.99812 0.26196 0.1355 0.0
O2 O 0.99358 0.289 0.12386 0.0
O3 O 0.01762 0.29478 0.10424 0.0
O4 O 0.97254 0.25764 0.1487 0.0
O5 O 0.02774 0.245 0.10279 0.0
O6 O 8e-05 0.23839 0.11706 0.0
C7 C 0.00189 0.29982 0.11152 0.0
C8 C 0.03692 0.26671 0.15622 0.0
O9 O 0.01917 0.26118 0.15674 0.0
O10 O 0.0441 0.27297 0.14074 0.0
C11 C 0.96774 0.26899 0.16211 0.0
O12 O 0.98032 0.28228 0.16832 0.0
C13 C 0.01344 0.23355 0.10569 0.0
Zn14 Zn 0.9786 0.7583 0.41974 0.0
Zn15 Zn 0.99712 0.75149 0.38653 0.0
O16 O 0.00159 0.78079 0.3905 0.0
O17 O 0.9879 0.78615 0.41829 0.0
O18 O 0.01462 0.74503 0.36453 0.0
O19 O 0.99373 0.73912 0.43453 0.0
O20 O 0.00727 0.73284 0.40695 0.0
C21 C 0.99716 0.79233 0.40391 0.0
C22 C 0.95374 0.74455 0.38793 0.0
O23 O 0.96923 0.74493 0.37818 0.0
O24 O 0.95416 0.74921 0.40552 0.0
C25 C 0.02006 0.75647 0.35129 0.0
O26 O 0.0127 0.7737 0.35029 0.0
C27 C 0.00522 0.72937 0.42473 0.0
Zn28 Zn 0.48674 0.73155 0.6611 0.0
Zn29 Zn 0.49275 0.757 0.63322 0.0
O30 O 0.46515 0.76208 0.64342 0.0
O31 O 0.46161 0.74296 0.66828 0.0
O32 O 0.49678 0.77978 0.61527 0.0
O33 O 0.51112 0.73981 0.67503 0.0
O34 O 0.5162 0.76061 0.65177 0.0
C35 C 0.45517 0.75595 0.65752 0.0
C36 C 0.49253 0.71412 0.6234 0.0
O37 O 0.4951 0.73154 0.61772 0.0
O38 O 0.48808 0.71074 0.64066 0.0
C39 C 0.48435 0.78488 0.60289 0.0
O40 O 0.46868 0.77396 0.60006 0.0
C41 C 0.52164 0.75283 0.66737 0.0
Zn42 Zn 0.48284 0.26325 0.92005 0.0
Zn43 Zn 0.50231 0.25732 0.88735 0.0
O44 O 0.51411 0.28243 0.89859 0.0
O45 O 0.4998 0.28687 0.92614 0.0
O46 O 0.52008 0.25315 0.86518 0.0
O47 O 0.48935 0.2368 0.92972 0.0
O48 O 0.50445 0.23203 0.90262 0.0
C49 C 0.51195 0.29241 0.91373 0.0
C50 C 0.45963 0.2651 0.88476 0.0
O51 O 0.47533 0.26145 0.87627 0.0
O52 O 0.45926 0.26634 0.90289 0.0
C53 C 0.5236 0.26616 0.85279 0.0
O54 O 0.51391 0.28217 0.8533 0.0
C55 C 0.49876 0.22591 0.91887 0.0
Zn56 Zn 0.09846 0.0177 0.26119 0.0
Zn57 Zn 0.12525 0.99195 0.25567 0.0
O58 O 0.11582 0.98722 0.28358 0.0
O59 O 0.09267 0.00786 0.28743 0.0
O60 O 0.14209 0.96872 0.2515 0.0
O61 O 0.08214 0.00862 0.23905 0.0
O62 O 0.10527 0.98843 0.23325 0.0
C63 C 0.10271 0.99438 0.29391 0.0
C64 C 0.13669 0.03475 0.25298 0.0
O65 O 0.1421 0.01725 0.25241 0.0
O66 O 0.11925 0.03829 0.25661 0.0
C67 C 0.15473 0.96302 0.26338 0.0
O68 O 0.15877 0.97355 0.2787 0.0
C69 C 0.08917 0.9957 0.22861 0.0
Zn70 Zn 0.27413 0.83756 0.4897 0.0
Zn71 Zn 0.25333 0.86791 0.4962 0.0
O72 O 0.25011 0.86324 0.46694 0.0
O73 O 0.26961 0.8394 0.46148 0.0
O74 O 0.23356 0.8882 0.50158 0.0
O75 O 0.25827 0.81963 0.50604 0.0
O76 O 0.24413 0.84623 0.5147 0.0
C77 C 0.25817 0.85186 0.45529 0.0
C78 C 0.29614 0.87033 0.50564 0.0
O79 O 0.28045 0.87935 0.50359 0.0
O80 O 0.2966 0.85249 0.50157 0.0
C81 C 0.22912 0.90166 0.49016 0.0
O82 O 0.23897 0.90404 0.47432 0.0
C83 C 0.24663 0.82817 0.51675 0.0
Zn84 Zn 0.40222 0.96935 0.74632 0.0
Zn85 Zn 0.376 0.99602 0.74663 0.0
O86 O 0.38497 0.99588 0.77499 0.0
O87 O 0.40412 0.97108 0.77496 0.0
O88 O 0.35765 0.01807 0.74527 0.0
O89 O 0.42008 0.9844 0.72907 0.0
O90 O 0.39589 0.00395 0.72591 0.0
C91 C 0.3955 0.9841 0.78398 0.0
C92 C 0.36476 0.95491 0.73421 0.0
O93 O 0.35959 0.97167 0.73935 0.0
O94 O 0.38244 0.95076 0.73465 0.0
C95 C 0.34565 0.02243 0.75815 0.0
O96 O 0.34425 0.01173 0.77358 0.0
C97 C 0.41259 -0.00135 0.72092 0.0
Zn98 Zn 0.25174 0.16038 0.98932 0.0
Zn99 Zn 0.26804 0.12604 0.99097 0.0
O100 O 0.2769 0.13969 0.96599 0.0
O101 O 0.26712 0.16959 0.9666 0.0
O102 O 0.28595 0.10328 0.99165 0.0
O103 O 0.26042 0.16742 0.01609 0.0
O104 O 0.27316 0.13876 0.01772 0.0
C105 C 0.27629 0.1564 0.95849 0.0
C106 C 0.2249 0.12615 0.98593 0.0
O107 O 0.2398 0.11605 0.9886 0.0
O108 O 0.22659 0.14446 0.9852 0.0
C109 C 0.29245 0.09567 0.97646 0.0
O110 O 0.28554 0.10097 0.95978 0.0
C111 C 0.26931 0.15488 0.02555 0.0
Zn112 Zn 0.77693 0.33767 0.99109 0.0
Zn113 Zn 0.75247 0.36593 -0.00372 0.0
O114 O 0.74941 0.35897 0.96748 0.0
O115 O 0.76962 0.33546 0.96339 0.0
O116 O 0.7308 0.3845 0.00031 0.0
O117 O 0.76464 0.32058 0.01089 0.0
O118 O 0.74585 0.34494 0.01649 0.0
C119 C 0.7574 0.34682 0.95656 0.0
C120 C 0.79545 0.37434 0.00246 0.0
O121 O 0.77834 0.3807 0.0021 0.0
O122 O 0.79825 0.35672 -0.00127 0.0
C123 C 0.72803 0.39978 0.99076 0.0
O124 O 0.74065 0.40521 0.97776 0.0
C125 C 0.75142 0.32803 0.02055 0.0
Zn126 Zn 0.90481 0.46416 0.25814 0.0
Zn127 Zn 0.88268 0.49459 0.2515 0.0
O128 O 0.88678 0.49513 0.28064 0.0
O129 O 0.90316 0.46908 0.28654 0.0
O130 O 0.86876 0.51947 0.24717 0.0
O131 O 0.92662 0.47529 0.24268 0.0
O132 O 0.90695 0.49836 0.23481 0.0
C133 C 0.89467 0.48385 0.29251 0.0
C134 C 0.8681 0.45443 0.23972 0.0
O135 O 0.86448 0.47218 0.24241 0.0
O136 O 0.88431 0.44789 0.24447 0.0
C137 C 0.85173 0.52145 0.24065 0.0
O138 O 0.84124 0.50606 0.23563 0.0
C139 C 0.92308 0.49017 0.23299 0.0
Zn140 Zn 0.74348 0.67087 0.4974 0.0
Zn141 Zn 0.76573 0.64038 0.49391 0.0
O142 O 0.77319 0.65861 0.4714 0.0
O143 O 0.75669 0.68485 0.47569 0.0
O144 O 0.78733 0.62132 0.49283 0.0
O145 O 0.75165 0.67604 0.52476 0.0
O146 O 0.769 0.65007 0.522 0.0
C147 C 0.76886 0.67559 0.4662 0.0
C148 C 0.72257 0.63372 0.48914 0.0
O149 O 0.7392 0.62621 0.48955 0.0
O150 O 0.72112 0.65178 0.49177 0.0
C151 C 0.79153 0.60973 0.47941 0.0
O152 O 0.77999 0.60783 0.46442 0.0
C153 C 0.76289 0.664 0.53203 0.0
Zn154 Zn 0.60099 0.53368 0.75832 0.0
Zn155 Zn 0.62396 0.50522 0.75176 0.0
O156 O 0.61444 0.50154 0.7799 0.0
O157 O 0.59209 0.5231 0.7833 0.0
O158 O 0.63885 0.48052 0.74783 0.0
O159 O 0.58542 0.52865 0.73452 0.0
O160 O 0.60323 0.50333 0.72986 0.0
C161 C 0.60138 0.50917 0.78995 0.0
C162 C 0.64027 0.54681 0.75155 0.0
O163 O 0.64303 0.52898 0.74788 0.0
O164 O 0.62398 0.55206 0.75733 0.0
C165 C 0.65127 0.47462 0.75986 0.0
O166 O 0.65599 0.48559 0.77471 0.0
C167 C 0.58939 0.51396 0.72465 0.0
Zn168 Zn 0.97781 0.74543 0.91639 0.0
Zn169 Zn 0.00649 0.75219 0.89147 0.0
O170 O 0.00458 0.77811 0.90615 0.0
O171 O 0.9819 0.77237 0.92748 0.0
O172 O 0.03095 0.75479 0.87608 0.0
O173 O 0.99051 0.72235 0.92822 0.0
O174 O 0.01234 0.72713 0.90601 0.0
C175 C 0.99409 0.78391 0.91983 0.0
C176 C 0.96642 0.7449 0.87547 0.0
O177 O 0.98413 0.74916 0.87226 0.0
O178 O 0.96071 0.74209 0.89248 0.0
C179 C 0.03626 0.73984 0.8671 0.0
O180 O 0.02472 0.72438 0.86667 0.0
C181 C 0.00561 0.71716 0.91982 0.0
Zn182 Zn 0.01901 0.24669 0.58572 0.0
Zn183 Zn 0.99679 0.24983 0.61676 0.0
O184 O 0.9912 0.27412 0.60062 0.0
O185 O 0.00881 0.271 0.57479 0.0
O186 O 0.97717 0.25056 0.63789 0.0
O187 O 0.00699 0.22055 0.57914 0.0
O188 O 0.99012 0.22292 0.60548 0.0
C189 C 0.99707 0.28054 0.58453 0.0
C190 C 0.04034 0.25035 0.6218 0.0
O191 O 0.02369 0.25082 0.62942 0.0
O192 O 0.04196 0.24882 0.6038 0.0
C193 C 0.9709 0.26561 0.64596 0.0
O194 O 0.97849 0.28264 0.64156 0.0
C195 C 0.99498 0.21328 0.59083 0.0
Zn196 Zn 0.47095 0.247 0.39938 0.0
Zn197 Zn 0.50169 0.2511 0.37723 0.0
O198 O 0.50094 0.27773 0.39103 0.0
O199 O 0.47573 0.27413 0.40978 0.0
O200 O 0.52692 0.25172 0.363 0.0
O201 O 0.48112 0.22364 0.41291 0.0
O202 O 0.50568 0.22639 0.3934 0.0
C203 C 0.48948 0.28465 0.40332 0.0
C204 C 0.46203 0.24606 0.35848 0.0
O205 O 0.48018 0.24909 0.35662 0.0
O206 O 0.45489 0.24387 0.37502 0.0
C207 C 0.5304 0.2383 0.3511 0.0
O208 O 0.51675 0.22528 0.34695 0.0
C209 C 0.4969 0.2174 0.40678 0.0
Zn210 Zn 0.51348 0.72955 0.17436 0.0
Zn211 Zn 0.5062 0.74866 0.14212 0.0
O212 O 0.48266 0.75393 0.15922 0.0
O213 O 0.48839 0.73781 0.18564 0.0
O214 O 0.50394 0.76713 0.12 0.0
O215 O 0.53871 0.74401 0.1796 0.0
O216 O 0.53387 0.75626 0.15109 0.0
C217 C 0.47747 0.74835 0.17584 0.0
C218 C 0.50929 0.70557 0.13957 0.0
O219 O 0.50504 0.72119 0.13114 0.0
O220 O 0.51374 0.70569 0.15724 0.0
C221 C 0.48884 0.77287 0.11154 0.0
O222 O 0.47185 0.76555 0.11636 0.0
C223 C 0.54475 0.75405 0.16567 0.0
Zn224 Zn 0.91182 0.98754 0.73699 0.0
Zn225 Zn 0.88598 0.01506 0.73882 0.0
O226 O 0.90338 0.02056 0.76274 0.0
O227 O 0.92388 0.99693 0.76173 0.0
O228 O 0.86838 0.03807 0.73786 0.0
O229 O 0.92254 0.99705 0.71214 0.0
O230 O 0.89911 0.01775 0.71217 0.0
C231 C 0.91759 0.01174 0.77002 0.0
C232 C 0.87266 0.97244 0.74098 0.0
O233 O 0.86854 0.99025 0.74254 0.0
O234 O 0.88978 0.96767 0.73751 0.0
C235 C 0.85687 0.04329 0.75083 0.0
O236 O 0.85514 0.03285 0.76642 0.0
C237 C 0.91351 0.01033 0.70396 0.0
Zn238 Zn 0.74213 0.17146 0.50571 0.0
Zn239 Zn 0.7618 0.13952 0.50005 0.0
O240 O 0.77005 0.15939 0.47902 0.0
O241 O 0.75503 0.18627 0.48479 0.0
O242 O 0.78068 0.11786 0.49644 0.0
O243 O 0.75173 0.17399 0.53281 0.0
O244 O 0.76616 0.14643 0.52871 0.0
C245 C 0.76653 0.17684 0.47469 0.0
C246 C 0.71831 0.13694 0.49577 0.0
O247 O 0.73423 0.12815 0.49555 0.0
O248 O 0.71818 0.15491 0.49945 0.0
C249 C 0.78876 0.11466 0.4805 0.0
O250 O 0.78344 0.12439 0.46535 0.0
C251 C 0.76157 0.16045 0.53948 0.0
Zn252 Zn 0.57917 0.00202 0.23818 0.0
Zn253 Zn 0.61027 0.98043 0.24319 0.0
O254 O 0.59113 0.97377 0.26482 0.0
O255 O 0.56429 0.98899 0.25927 0.0
O256 O 0.62953 0.95944 0.24626 0.0
O257 O 0.57633 0.99336 0.21058 0.0
O258 O 0.60276 0.97709 0.21487 0.0
C259 C 0.57393 0.97767 0.2695 0.0
C260 C 0.61579 0.02313 0.24819 0.0
O261 O 0.62366 0.00674 0.24754 0.0
O262 O 0.59777 0.0245 0.24523 0.0
C263 C 0.64627 0.95952 0.2539 0.0
O264 O 0.6538 0.97563 0.26121 0.0
C265 C 0.58932 0.98283 0.20395 0.0
Zn266 Zn 0.76802 0.8351 0.00796 0.0
Zn267 Zn 0.74634 0.86627 0.01066 0.0
O268 O 0.7409 0.85592 0.98311 0.0
O269 O 0.75699 0.82906 0.98166 0.0
O270 O 0.72593 0.88628 0.01446 0.0
O271 O 0.7569 0.82283 0.03177 0.0
O272 O 0.73977 0.84888 0.03382 0.0
C273 C 0.74603 0.84106 0.9738 0.0
C274 C 0.79003 0.87196 0.01221 0.0
O275 O 0.77349 0.87962 0.01291 0.0
O276 O 0.79117 0.8538 0.01024 0.0
C277 C 0.71908 0.89705 0.00155 0.0
O278 O 0.72675 0.89703 0.98442 0.0
C279 C 0.74466 0.83266 0.04056 0.0
Zn280 Zn 0.24197 0.67509 0.00706 0.0
Zn281 Zn 0.26467 0.64666 -0.00234 0.0
O282 O 0.26643 0.66657 0.97536 0.0
O283 O 0.24753 0.69017 0.98336 0.0
O284 O 0.28519 0.62765 0.99086 0.0
O285 O 0.25631 0.68044 0.03177 0.0
O286 O 0.27241 0.65434 0.02546 0.0
C287 C 0.25876 0.68265 0.97148 0.0
C288 C 0.22205 0.63748 0.00177 0.0
O289 O 0.23871 0.63151 -0.0025 0.0
O290 O 0.21999 0.65503 0.00644 0.0
C291 C 0.28896 0.6134 0.00156 0.0
O292 O 0.27848 0.61027 0.01688 0.0
C293 C 0.2683 0.66801 0.03686 0.0
Zn294 Zn 0.07242 0.50157 0.74593 0.0
Zn295 Zn 0.10497 0.483 0.75431 0.0
O296 O 0.08683 0.47761 0.77722 0.0
O297 O 0.05971 0.49169 0.76972 0.0
O298 O 0.12787 0.46626 0.75954 0.0
O299 O 0.06888 0.48691 0.72123 0.0
O300 O 0.09652 0.47333 0.72744 0.0
C301 C 0.0695 0.4818 0.78122 0.0
C302 C 0.10704 0.52666 0.7504 0.0
O303 O 0.11557 0.51098 0.75384 0.0
O304 O 0.08905 0.52632 0.74671 0.0
C305 C 0.14046 0.46395 0.74665 0.0
O306 O 0.1391 0.47369 0.73062 0.0
C307 C 0.08213 0.47579 0.71632 0.0
Zn308 Zn 0.26755 0.34149 0.51109 0.0
Zn309 Zn 0.24369 0.37055 0.50855 0.0
O310 O 0.24154 0.35676 0.48205 0.0
O311 O 0.26173 0.33297 0.48396 0.0
O312 O 0.22203 0.38938 0.50623 0.0
O313 O 0.25322 0.32978 0.53348 0.0
O314 O 0.23535 0.35543 0.53288 0.0
C315 C 0.24977 0.34249 0.47433 0.0
C316 C 0.28666 0.3797 0.51455 0.0
O317 O 0.26974 0.38607 0.51177 0.0
O318 O 0.28906 0.36163 0.51543 0.0
C319 C 0.2149 0.39832 0.52033 0.0
O320 O 0.22319 0.39718 0.53728 0.0
C321 C 0.23998 0.3396 0.54068 0.0
Zn322 Zn 0.40215 0.47348 0.23705 0.0
Zn323 Zn 0.37906 0.50159 0.23992 0.0
O324 O 0.39928 0.50653 0.26219 0.0
O325 O 0.42036 0.48408 0.25681 0.0
O326 O 0.36319 0.52614 0.23944 0.0
O327 O 0.40784 0.47714 0.20952 0.0
O328 O 0.39034 0.50288 0.21219 0.0
C329 C 0.41505 0.49837 0.26655 0.0
C330 C 0.36462 0.45986 0.24814 0.0
O331 O 0.36027 0.47755 0.24569 0.0
O332 O 0.38174 0.45472 0.24551 0.0
C333 C 0.35047 0.53154 0.25118 0.0
O334 O 0.34594 0.52033 0.26569 0.0
C335 C 0.40107 0.49217 0.20219 0.0
O336 O 0.02442 0.0308 0.99467 0.0
Mn337 Mn -0.00027 0.01324 0.00054 0.0
O338 O 0.04764 0.01124 0.98487 0.0
Mn339 Mn 0.03639 0.98958 -0.00411 0.0
O340 O 0.97473 0.99604 0.00655 0.0
O341 O 0.98785 0.03692 0.0114 0.0
Mn342 Mn 0.96365 0.0383 0.0038 0.0
O343 O 0.98875 0.01934 0.9733 0.0
O344 O 0.95122 0.01659 0.01351 0.0
O345 O 0.01094 0.00696 0.02766 0.0
O346 O 0.03694 0.98894 0.02245 0.0
O347 O 0.96886 0.06015 0.01849 0.0
O348 O 0.96434 0.03963 0.97729 0.0
C349 C 0.01428 0.97315 0.98115 0.0
C350 C 0.04112 0.028 0.98743 0.0
C351 C 0.95745 -0.00049 0.01214 0.0
C352 C 0.98599 0.05335 0.01988 0.0
C353 C 0.97549 0.03009 0.96659 0.0
C354 C 0.0253 0.99722 0.0337 0.0
O355 O 0.01172 0.98954 0.98955 0.0
O356 O 0.03182 0.96728 0.9819 0.0
O357 O 0.27095 0.7487 0.24151 0.0
Mn358 Mn 0.24348 0.7425 0.25211 0.0
O359 O 0.2664 0.75761 0.21074 0.0
Mn360 Mn 0.23956 0.7542 0.20951 0.0
O361 O 0.21578 0.73658 0.26242 0.0
O362 O 0.25477 0.72454 0.27161 0.0
Mn363 Mn 0.2464 0.73066 0.29456 0.0
O364 O 0.24597 0.76637 0.27066 0.0
O365 O 0.21956 0.72756 0.29317 0.0
O366 O 0.24152 0.7186 0.23361 0.0
O367 O 0.2308 0.72896 0.20521 0.0
O368 O 0.26133 0.70934 0.29778 0.0
O369 O 0.25558 0.7556 0.29936 0.0
C370 C 0.22303 0.77454 0.22531 0.0
C371 C 0.27738 0.75435 0.22516 0.0
C372 C 0.20892 0.73109 0.27861 0.0
C373 C 0.26302 0.70993 0.27934 0.0
C374 C 0.25205 0.7693 0.2879 0.0
C375 C 0.23545 0.71541 0.21644 0.0
O376 O 0.23205 0.76027 0.23266 0.0
O377 O 0.22384 0.77521 0.20683 0.0
O378 O 0.48531 0.97936 0.49819 0.0
Mn379 Mn 0.5068 0.00148 0.49949 0.0
O380 O 0.45953 0.99113 0.48337 0.0
Mn381 Mn 0.46584 0.01567 0.49212 0.0
O382 O 0.52848 0.02354 0.50103 0.0
O383 O 0.52353 0.98244 0.51305 0.0
Mn384 Mn 0.54757 0.98507 0.50522 0.0
O385 O 0.51732 0.99247 0.47331 0.0
O386 O 0.55556 0.00997 0.5118 0.0
O387 O 0.49576 0.01022 0.52558 0.0
O388 O 0.46537 0.01902 0.51864 0.0
O389 O 0.54727 0.96525 0.52286 0.0
O390 O 0.54632 0.97966 0.47902 0.0
C391 C 0.48405 0.03547 0.47675 0.0
C392 C 0.46861 0.97706 0.49016 0.0
C393 C 0.54607 0.02471 0.50721 0.0
C394 C 0.52894 0.96818 0.52349 0.0
C395 C 0.53254 0.98406 0.46767 0.0
C396 C 0.47916 0.01626 0.53058 0.0
O397 O 0.49005 0.02052 0.48585 0.0
O398 O 0.46545 0.03688 0.47652 0.0
O399 O 0.27866 0.25628 0.76467 0.0
Mn400 Mn 0.25273 0.2492 0.74986 0.0
O401 O 0.30187 0.26034 0.74257 0.0
Mn402 Mn 0.2882 0.24789 0.72297 0.0
O403 O 0.22696 0.24266 0.73502 0.0
O404 O 0.24055 0.24119 0.77442 0.0
Mn405 Mn 0.21775 0.25089 0.7776 0.0
O406 O 0.24412 0.27782 0.75368 0.0
O407 O 0.20312 0.24196 0.75679 0.0
O408 O 0.26125 0.2207 0.74649 0.0
O409 O 0.2857 0.22122 0.72547 0.0
O410 O 0.22197 0.23457 0.79819 0.0
O411 O 0.22288 0.27737 0.77796 0.0
C412 C 0.26566 0.26191 0.70735 0.0
C413 C 0.29611 0.26105 0.75986 0.0
C414 C 0.20915 0.24007 0.73969 0.0
C415 C 0.23809 0.2313 0.78977 0.0
C416 C 0.2333 0.28648 0.76573 0.0
C417 C 0.27395 0.21217 0.73648 0.0
O418 O 0.26467 0.25641 0.72489 0.0
O419 O 0.28228 0.25914 0.6997 0.0
O420 O 0.00298 0.98636 0.46939 0.0
Mn421 Mn 0.00687 0.00432 0.49337 0.0
O422 O 0.99169 0.95735 0.47984 0.0
Mn423 Mn -0.00031 0.96102 0.50509 0.0
O424 O 0.0101 0.02225 0.51732 0.0
O425 O 0.02076 0.02368 0.47724 0.0
Mn426 Mn 0.0134 0.0474 0.4807 0.0
O427 O 0.9805 0.01707 0.48734 0.0
O428 O 0.01791 0.05219 0.50658 0.0
O429 O 0.03321 0.99165 0.49902 0.0
O430 O 0.02648 0.9611 0.50865 0.0
O431 O 0.03375 0.04835 0.46331 0.0
O432 O 0.98731 0.04601 0.47373 0.0
C433 C 0.98357 0.97918 0.52421 0.0
C434 C 0.99593 0.96917 0.46643 0.0
C435 C 0.01465 0.0402 0.52011 0.0
C436 C 0.03383 0.02985 0.46572 0.0
C437 C 0.97529 0.03271 0.47908 0.0
C438 C 0.03846 0.97496 0.50473 0.0
O439 O 0.99338 0.98491 0.50975 0.0
O440 O 0.98331 0.96063 0.52625 0.0
O441 O 0.24645 0.77047 0.73626 0.0
Mn442 Mn 0.23459 0.74243 0.73677 0.0
O443 O 0.22144 0.79067 0.73542 0.0
Mn444 Mn 0.20185 0.7719 0.73238 0.0
O445 O 0.22203 0.71458 0.73681 0.0
O446 O 0.25967 0.73263 0.72748 0.0
Mn447 Mn 0.26548 0.71095 0.73889 0.0
O448 O 0.24368 0.73922 0.76518 0.0
O449 O 0.24559 0.69342 0.73273 0.0
O450 O 0.22587 0.74529 0.7083 0.0
O451 O 0.19877 0.76229 0.70766 0.0
O452 O 0.28564 0.717 0.72245 0.0
O453 O 0.2673 0.71751 0.76468 0.0
C454 C 0.19476 0.75418 0.7567 0.0
C455 C 0.23951 0.7875 0.73599 0.0
C456 C 0.22778 0.69731 0.73414 0.0
C457 C 0.27589 0.73217 0.71869 0.0
C458 C 0.25663 0.72925 0.7736 0.0
C459 C 0.21148 0.75239 0.69931 0.0
O460 O 0.2096 0.75229 0.74605 0.0
O461 O 0.18363 0.76782 0.75133 0.0
O462 O 0.48016 0.98532 0.97874 0.0
Mn463 Mn 0.50367 0.99243 -0.00315 0.0
O464 O 0.49199 0.97351 0.95146 0.0
Mn465 Mn 0.51571 0.98605 0.9549 0.0
O466 O 0.527 -2e-05 0.01508 0.0
O467 O 0.48487 0.00407 0.0145 0.0
Mn468 Mn 0.49001 -0.00018 0.03862 0.0
O469 O 0.50034 0.96586 0.01084 0.0
O470 O 0.51437 0.01113 0.04239 0.0
O471 O 0.50665 0.01896 0.98335 0.0
O472 O 0.51551 0.01295 0.95303 0.0
O473 O 0.46771 0.01424 0.03774 0.0
O474 O 0.4887 0.97292 0.04012 0.0
C475 C 0.53816 0.97378 0.97193 0.0
C476 C 0.47791 0.97702 0.96235 0.0
C477 C 0.52878 0.00813 0.03164 0.0
C478 C 0.46979 0.01309 0.01941 0.0
C479 C 0.49402 0.96079 0.02745 0.0
C480 C 0.51107 0.02462 0.96643 0.0
O481 O 0.5227 0.98112 0.97868 0.0
O482 O 0.53874 0.97354 0.95341 0.0
O483 O 0.28248 0.25204 0.24888 0.0
Mn484 Mn 0.25231 0.24698 0.24956 0.0
O485 O 0.29524 0.23093 0.26956 0.0
Mn486 Mn 0.27253 0.22386 0.28157 0.0
O487 O 0.22219 0.24169 0.25052 0.0
O488 O 0.24907 0.27263 0.23606 0.0
Mn489 Mn 0.23185 0.26841 0.21742 0.0
O490 O 0.25421 0.23193 0.22356 0.0
O491 O 0.20895 0.26169 0.22918 0.0
O492 O 0.25071 0.26165 0.27579 0.0
O493 O 0.26311 0.24215 0.29824 0.0
O494 O 0.23892 0.294 0.21575 0.0
O495 O 0.24114 0.25019 0.20069 0.0
C496 C 0.25385 0.20341 0.26662 0.0
C497 C 0.29697 0.24373 0.2566 0.0
C498 C 0.2075 0.24938 0.24258 0.0
C499 C 0.24962 0.29058 0.2306 0.0
C500 C 0.24968 0.23508 0.206 0.0
C501 C 0.25509 0.25774 0.29327 0.0
O502 O 0.25544 0.22163 0.2629 0.0
O503 O 0.26426 0.19817 0.28105 0.0
O504 O 0.50411 0.48559 0.97284 0.0
Mn505 Mn 0.50633 0.50367 -0.00308 0.0
O506 O 0.49176 0.4569 0.98215 0.0
Mn507 Mn 0.4996 0.46084 0.00722 0.0
O508 O 0.50909 0.52208 0.02073 0.0
O509 O 0.52012 0.52309 0.98059 0.0
Mn510 Mn 0.51191 0.54659 0.98373 0.0
O511 O 0.47975 0.51561 0.99038 0.0
O512 O 0.51627 0.552 0.00946 0.0
O513 O 0.5329 0.4916 0.00314 0.0
O514 O 0.52624 0.46065 0.01124 0.0
O515 O 0.53163 0.54803 0.96576 0.0
O516 O 0.48582 0.54471 0.97697 0.0
C517 C 0.48154 0.47607 0.02645 0.0
C518 C 0.4974 0.46844 0.96913 0.0
C519 C 0.51327 0.54018 0.02316 0.0
C520 C 0.53229 0.52957 0.96825 0.0
C521 C 0.47412 0.53116 0.98231 0.0
C522 C 0.53823 0.47469 0.00811 0.0
O523 O 0.49234 0.48417 0.01356 0.0
O524 O 0.48245 0.4574 0.02686 0.0
O525 O 0.76128 0.26513 0.2437 0.0
Mn526 Mn 0.74508 0.239 0.24314 0.0
O527 O 0.74106 0.28874 0.25122 0.0
Mn528 Mn 0.71895 0.27448 0.24477 0.0
O529 O 0.72875 0.21292 0.24224 0.0
O530 O 0.76798 0.22653 0.23183 0.0
Mn531 Mn 0.771 0.20318 0.24083 0.0
O532 O 0.75504 0.23242 0.27052 0.0
O533 O 0.74875 0.18947 0.2337 0.0
O534 O 0.73543 0.24557 0.21564 0.0
O535 O 0.71527 0.27028 0.21868 0.0
O536 O 0.79122 0.20804 0.22415 0.0
O537 O 0.7744 0.20701 0.26709 0.0
C538 C 0.70664 0.25397 0.2643 0.0
C539 C 0.75792 0.2828 0.24792 0.0
C540 C 0.73192 0.1954 0.23718 0.0
C541 C 0.78373 0.22483 0.22247 0.0
C542 C 0.7664 0.21977 0.27742 0.0
C543 C 0.72393 0.25791 0.20849 0.0
O544 O 0.72209 0.25145 0.25458 0.0
O545 O 0.699 0.27058 0.26175 0.0
O546 O 0.98457 0.50877 0.47876 0.0
Mn547 Mn 0.00413 0.50761 0.50174 0.0
O548 O 0.00048 0.50121 0.45195 0.0
Mn549 Mn 0.02483 0.50482 0.46273 0.0
O550 O 0.02343 0.50611 0.52476 0.0
O551 O 0.98469 0.52105 0.51758 0.0
Mn552 Mn 0.9842 0.51258 0.54119 0.0
O553 O 0.99217 0.48106 0.50987 0.0
O554 O 0.00889 0.51765 0.55086 0.0
O555 O 0.01635 0.53429 0.49451 0.0
O556 O 0.03301 0.53032 0.46735 0.0
O557 O 0.9653 0.53097 0.53919 0.0
O558 O 0.97772 0.48631 0.53827 0.0
C559 C 0.0374 0.48316 0.48029 0.0
C560 C 0.98503 0.50496 0.46076 0.0
C561 C 0.02372 0.51146 0.54241 0.0
C562 C 0.97027 0.53165 0.52141 0.0
C563 C 0.98254 0.47517 0.52451 0.0
C564 C 0.02768 0.54072 0.4814 0.0
O565 O 0.02369 0.49417 0.48561 0.0
O566 O 0.04254 0.48547 0.46268 0.0
O567 O 0.77278 0.74724 0.2702 0.0
Mn568 Mn 0.75433 0.74348 0.24653 0.0
O569 O 0.80055 0.76136 0.26035 0.0
Mn570 Mn 0.79589 0.75545 0.23486 0.0
O571 O 0.73552 0.73874 0.22293 0.0
O572 O 0.73755 0.72693 0.26284 0.0
Mn573 Mn 0.71283 0.72901 0.25844 0.0
O574 O 0.73893 0.76722 0.2547 0.0
O575 O 0.71063 0.7201 0.23346 0.0
O576 O 0.76933 0.71923 0.23863 0.0
O577 O 0.79876 0.72943 0.22877 0.0
O578 O 0.71576 0.71369 0.28028 0.0
O579 O 0.70884 0.75555 0.2614 0.0
C580 C 0.7776 0.77368 0.21821 0.0
C581 C 0.7896 0.75493 0.27354 0.0
C582 C 0.72012 0.72808 0.21988 0.0
C583 C 0.73399 0.71744 0.27813 0.0
C584 C 0.72131 0.76953 0.25961 0.0
C585 C 0.78619 0.71597 0.23212 0.0
O586 O 0.77145 0.76078 0.23026 0.0
O587 O 0.79624 0.77467 0.21671 0.0
O588 O 0.77114 0.25758 0.73134 0.0
Mn589 Mn 0.74394 0.255 0.74409 0.0
O590 O 0.76607 0.26976 0.70188 0.0
Mn591 Mn 0.73919 0.26891 0.70225 0.0
O592 O 0.71682 0.25284 0.75662 0.0
O593 O 0.7542 0.23481 0.76227 0.0
Mn594 Mn 0.74865 0.2423 0.78574 0.0
O595 O 0.75111 0.27814 0.76269 0.0
O596 O 0.72187 0.24318 0.78694 0.0
O597 O 0.73648 0.23204 0.7255 0.0
O598 O 0.72766 0.24488 0.69741 0.0
O599 O 0.76058 0.21929 0.78858 0.0
O600 O 0.7617 0.26554 0.79016 0.0
C601 C 0.72474 0.28959 0.71945 0.0
C602 C 0.77731 0.26383 0.71509 0.0
C603 C 0.71069 0.24835 0.77337 0.0
C604 C 0.76121 0.21948 0.77005 0.0
C605 C 0.75881 0.27996 0.77945 0.0
C606 C 0.72953 0.23041 0.70841 0.0
O607 O 0.73336 0.27467 0.72597 0.0
O608 O 0.72513 0.29115 0.70102 0.0
O609 O 0.78296 0.75782 0.76388 0.0
Mn610 Mn 0.75564 0.75851 0.75096 0.0
O611 O 0.77802 0.74311 0.7922 0.0
Mn612 Mn 0.75155 0.73842 0.78981 0.0
O613 O 0.7283 0.75908 0.73824 0.0
O614 O 0.76403 0.78239 0.73657 0.0
Mn615 Mn 0.75858 0.77915 0.71205 0.0
O616 O 0.76496 0.74003 0.72907 0.0
O617 O 0.73194 0.77513 0.71049 0.0
O618 O 0.74618 0.77718 0.77271 0.0
O619 O 0.73613 0.75835 0.79686 0.0
O620 O 0.76899 0.80389 0.71451 0.0
O621 O 0.77303 0.75874 0.70404 0.0
C622 C 0.74165 0.71702 0.76952 0.0
C623 C 0.78914 0.75127 0.77996 0.0
C624 C 0.72143 0.76615 0.72271 0.0
C625 C 0.76998 0.79978 0.73254 0.0
C626 C 0.77236 0.74243 0.71238 0.0
C627 C 0.73748 0.77473 0.78875 0.0
O628 O 0.74724 0.73447 0.76521 0.0
O629 O 0.74194 0.71344 0.7877 0.0
O630 O 0.53021 0.52244 0.49076 0.0
Mn631 Mn 0.50234 0.50985 0.49456 0.0
O632 O 0.55098 0.49812 0.49208 0.0
Mn633 Mn 0.53329 0.4792 0.49973 0.0
O634 O 0.47457 0.49713 0.49841 0.0
O635 O 0.4929 0.53605 0.50185 0.0
Mn636 Mn 0.47107 0.54023 0.48964 0.0
O637 O 0.4962 0.51453 0.46543 0.0
O638 O 0.45355 0.52121 0.49746 0.0
O639 O 0.5085 0.50532 0.5237 0.0
O640 O 0.52729 0.47951 0.52543 0.0
O641 O 0.476 0.56192 0.50446 0.0
O642 O 0.47679 0.5399 0.46394 0.0
C643 C 0.51325 0.46673 0.47944 0.0
C644 C 0.54743 0.51593 0.48971 0.0
C645 C 0.4573 0.50344 0.49968 0.0
C646 C 0.49116 0.55282 0.50978 0.0
C647 C 0.4868 0.5271 0.45588 0.0
C648 C 0.51754 0.49258 0.53335 0.0
O649 O 0.51167 0.48358 0.48725 0.0
O650 O 0.5283 0.45753 0.4849 0.0
O651 O 0.98192 0.49245 0.01415 0.0
Mn652 Mn 0.01032 0.50391 0.01397 0.0
O653 O 0.96198 0.51748 0.01536 0.0
Mn654 Mn 0.98099 0.53603 0.02118 0.0
O655 O 0.03848 0.51538 0.01349 0.0
O656 O 0.01995 0.47811 0.02141 0.0
Mn657 Mn 0.03921 0.4711 0.00704 0.0
O658 O 0.01191 0.49695 0.98479 0.0
O659 O 0.0583 0.49045 0.01009 0.0
O660 O 0.00891 0.5104 0.043 0.0
O661 O 0.98985 0.53586 0.04632 0.0
O662 O 0.03561 0.45203 0.02539 0.0
O663 O 0.02814 0.46924 0.98283 0.0
C664 C 0.00045 0.54711 -0.00012 0.0
C665 C 0.96489 0.49941 0.01409 0.0
C666 C 0.05543 0.50849 0.01207 0.0
C667 C 0.0219 0.46271 0.03137 0.0
C668 C 0.01807 0.48239 0.97533 0.0
C669 C 0.00104 0.52334 0.05328 0.0
O670 O 0.00095 0.53008 0.00715 0.0
O671 O 0.98636 0.55724 0.00596 0.0
H672 H 0.04458 0.2116 0.10062 0.0
H673 H 0.04554 0.17878 0.08802 0.0
H674 H 0.98381 0.17844 0.07832 0.0
H675 H 0.9827 0.21094 0.0925 0.0
H676 H 0.99129 0.14565 0.08945 0.0
H677 H 0.0205 0.18379 0.03952 0.0
H678 H 0.04319 0.20793 0.0255 0.0
H679 H 0.09126 0.17585 0.04585 0.0
H680 H 0.06879 0.15169 0.06021 0.0
H681 H 0.00457 0.08277 0.0025 0.0
H682 H 0.01637 0.11188 0.01918 0.0
H683 H 0.01356 0.08151 0.07297 0.0
H684 H 0.0007 0.05256 0.05616 0.0
H685 H 0.04046 0.12871 0.04154 0.0
H686 H 0.99301 0.10905 0.10626 0.0
H687 H 0.96601 0.08653 0.11457 0.0
H688 H 0.9469 0.08525 0.05586 0.0
H689 H 0.97362 0.10794 0.04728 0.0
C690 C 0.03121 0.20454 0.09572 0.0
C691 C 0.01358 0.21388 0.09732 0.0
C692 C 0.03179 0.18577 0.08836 0.0
C693 C 0.01486 0.17615 0.08163 0.0
C694 C 0.99715 0.18547 0.08333 0.0
C695 C 0.99648 0.20408 0.09134 0.0
C696 C 0.01561 0.15631 0.07311 0.0
C697 C 0.00208 0.14204 0.07898 0.0
C698 C 0.02951 0.15137 0.05928 0.0
C699 C 0.04301 0.16599 0.05093 0.0
C700 C 0.03591 0.18197 0.04107 0.0
C701 C 0.04872 0.19564 0.03307 0.0
C702 C 0.06866 0.19343 0.03479 0.0
C703 C 0.07582 0.17755 0.04453 0.0
C704 C 0.06306 0.16386 0.05258 0.0
C705 C 0.00745 0.08203 0.01776 0.0
C706 C 0.00174 0.06552 0.02809 0.0
C707 C 0.01407 0.09876 0.02736 0.0
C708 C 0.01513 0.09918 0.04746 0.0
C709 C 0.01227 0.08174 0.0575 0.0
C710 C 0.00528 0.06506 0.04788 0.0
C711 C 0.01596 0.11825 0.05761 0.0
C712 C 0.02982 0.13235 0.05214 0.0
C713 C 0.00172 0.12333 0.07105 0.0
C714 C 0.98542 0.10997 0.07612 0.0
C715 C 0.98299 0.10399 0.09516 0.0
C716 C 0.96775 0.09121 0.09991 0.0
C717 C 0.95479 0.08441 0.08574 0.0
C718 C 0.95698 0.09047 0.06681 0.0
C719 C 0.97215 0.1033 0.062 0.0
H720 H 0.94303 0.07448 0.08944 0.0
H721 H 0.07855 0.20401 0.02857 0.0
H722 H 0.04146 0.72401 0.35307 0.0
H723 H 0.07155 0.71795 0.33652 0.0
H724 H 0.06668 0.77133 0.30559 0.0
H725 H 0.03646 0.77764 0.32218 0.0
H726 H 0.08112 0.73923 0.28318 0.0
H727 H 0.09341 0.77348 0.34269 0.0
H728 H 0.09033 0.77891 0.37744 0.0
H729 H 0.11506 0.72393 0.38857 0.0
H730 H 0.11802 0.71805 0.35385 0.0
H731 H 0.18172 0.75245 0.26049 0.0
H732 H 0.14765 0.75477 0.26896 0.0
H733 H 0.15425 0.71001 0.31111 0.0
H734 H 0.18841 0.70824 0.30324 0.0
H735 H 0.13807 0.7385 0.32684 0.0
H736 H 0.1268 0.70396 0.26779 0.0
H737 H 0.12957 0.69772 0.23314 0.0
H738 H 0.10302 0.75156 0.22094 0.0
H739 H 0.10032 0.75825 0.25553 0.0
C740 C 0.04655 0.73435 0.34252 0.0
C741 C 0.03663 0.75145 0.33912 0.0
C742 C 0.06378 0.73084 0.33308 0.0
C743 C 0.07142 0.74429 0.32 0.0
C744 C 0.061 0.76078 0.31565 0.0
C745 C 0.04377 0.76438 0.3252 0.0
C746 C 0.09113 0.74195 0.31237 0.0
C747 C 0.09365 0.73925 0.29263 0.0
C748 C 0.10737 0.74167 0.32479 0.0
C749 C 0.10575 0.74525 0.34567 0.0
C750 C 0.09804 0.76248 0.35254 0.0
C751 C 0.09635 0.76565 0.37223 0.0
C752 C 0.10245 0.75175 0.3852 0.0
C753 C 0.11031 0.73467 0.3785 0.0
C754 C 0.11202 0.73142 0.35882 0.0
C755 C 0.17577 0.74282 0.27127 0.0
C756 C 0.18773 0.7302 0.28126 0.0
C757 C 0.15626 0.74413 0.27609 0.0
C758 C 0.14827 0.73252 0.29067 0.0
C759 C 0.16005 0.71922 0.29991 0.0
C760 C 0.17957 0.71816 0.29536 0.0
C761 C 0.12825 0.73531 0.29754 0.0
C762 C 0.12563 0.7383 0.31725 0.0
C763 C 0.11198 0.73571 0.28506 0.0
C764 C 0.11352 0.73169 0.26426 0.0
C765 C 0.12168 0.71454 0.25772 0.0
C766 C 0.12322 0.71091 0.23809 0.0
C767 C 0.11652 0.72426 0.22485 0.0
C768 C 0.10822 0.74124 0.23121 0.0
C769 C 0.10667 0.74495 0.25083 0.0
H770 H 0.11773 0.72142 0.20966 0.0
H771 H 0.10112 0.75423 0.40044 0.0
H772 H 0.50918 0.81503 0.61254 0.0
H773 H 0.51085 0.84739 0.59864 0.0
H774 H 0.46598 0.83065 0.55802 0.0
H775 H 0.46399 0.79822 0.57205 0.0
H776 H 0.49852 0.85146 0.54193 0.0
H777 H 0.4533 0.8574 0.59287 0.0
H778 H 0.44166 0.85394 0.62596 0.0
H779 H 0.48883 0.89054 0.6464 0.0
H780 H 0.50094 0.89398 0.61346 0.0
H781 H 0.4991 0.94662 0.50785 0.0
H782 H 0.48442 0.91708 0.52132 0.0
H783 H 0.51811 0.92629 0.57312 0.0
H784 H 0.53176 0.95636 0.56004 0.0
H785 H 0.48576 0.90892 0.58215 0.0
H786 H 0.53379 0.89931 0.53349 0.0
H787 H 0.54751 0.90231 0.50114 0.0
H788 H 0.49769 0.872 0.47727 0.0
H789 H 0.48354 0.86909 0.5095 0.0
C790 C 0.49974 0.81814 0.60056 0.0
C791 C 0.48643 0.80401 0.59343 0.0
C792 C 0.50064 0.8367 0.59271 0.0
C793 C 0.48839 0.84149 0.57743 0.0
C794 C 0.47549 0.82728 0.56986 0.0
C795 C 0.47439 0.80876 0.5779 0.0
C796 C 0.48917 0.86137 0.56946 0.0
C797 C 0.49536 0.86402 0.55058 0.0
C798 C 0.4854 0.87776 0.58087 0.0
C799 C 0.47811 0.87581 0.6007 0.0
C800 C 0.46128 0.86458 0.60444 0.0
C801 C 0.45458 0.86265 0.62317 0.0
C802 C 0.46452 0.87198 0.63828 0.0
C803 C 0.48116 0.8833 0.63468 0.0
C804 C 0.48793 0.88527 0.61598 0.0
C805 C 0.50239 0.94297 0.52254 0.0
C806 C 0.51602 0.95411 0.53317 0.0
C807 C 0.49438 0.92579 0.53009 0.0
C808 C 0.50046 0.91915 0.54812 0.0
C809 C 0.51313 0.93102 0.55921 0.0
C810 C 0.52089 0.94826 0.55176 0.0
C811 C 0.49553 0.89911 0.55468 0.0
C812 C 0.4886 0.89638 0.57334 0.0
C813 C 0.49893 0.88262 0.54315 0.0
C814 C 0.50749 0.88423 0.52383 0.0
C815 C 0.5257 0.89341 0.52132 0.0
C816 C 0.53355 0.8951 0.50302 0.0
C817 C 0.52343 0.88743 0.48715 0.0
C818 C 0.50547 0.87801 0.48957 0.0
C819 C 0.49752 0.87634 0.50784 0.0
H820 H 0.52954 0.88874 0.473 0.0
H821 H 0.45931 0.87047 0.65277 0.0
H822 H 0.4555 0.26852 0.84585 0.0
H823 H 0.42556 0.27297 0.82769 0.0
H824 H 0.39339 0.27305 0.88025 0.0
H825 H 0.42315 0.2686 0.89851 0.0
H826 H 0.37811 0.24796 0.85348 0.0
H827 H 0.39908 0.31419 0.8564 0.0
H828 H 0.42207 0.34191 0.85312 0.0
H829 H 0.42589 0.33086 0.79274 0.0
H830 H 0.40314 0.30288 0.79569 0.0
H831 H 0.29132 0.26604 0.79891 0.0
H832 H 0.31693 0.26963 0.82336 0.0
H833 H 0.35985 0.2717 0.77905 0.0
H834 H 0.33477 0.26738 0.75479 0.0
H835 H 0.367 0.29931 0.80579 0.0
H836 H 0.35223 0.231 0.80307 0.0
H837 H 0.33675 0.19864 0.80666 0.0
H838 H 0.32507 0.21094 0.86564 0.0
H839 H 0.34011 0.24355 0.86233 0.0
C840 C 0.44207 0.26957 0.85355 0.0
C841 C 0.4417 0.26811 0.87362 0.0
C842 C 0.42502 0.27229 0.84318 0.0
C843 C 0.40732 0.27356 0.85268 0.0
C844 C 0.40693 0.27223 0.87268 0.0
C845 C 0.42396 0.26965 0.88307 0.0
C846 C 0.38905 0.27468 0.84162 0.0
C847 C 0.37536 0.25947 0.84341 0.0
C848 C 0.38587 0.28945 0.82817 0.0
C849 C 0.39948 0.30634 0.8263 0.0
C850 C 0.40493 0.31757 0.84244 0.0
C851 C 0.4179 0.33336 0.84063 0.0
C852 C 0.42546 0.33812 0.82274 0.0
C853 C 0.42003 0.32714 0.80659 0.0
C854 C 0.40707 0.31133 0.80832 0.0
C855 C 0.30621 0.26701 0.79439 0.0
C856 C 0.31092 0.26586 0.77485 0.0
C857 C 0.32082 0.26918 0.80838 0.0
C858 C 0.3403 0.27069 0.803 0.0
C859 C 0.34492 0.2705 0.78353 0.0
C860 C 0.33046 0.26805 0.76965 0.0
C861 C 0.35615 0.27232 0.8174 0.0
C862 C 0.36941 0.28809 0.81625 0.0
C863 C 0.35909 0.25789 0.83131 0.0
C864 C 0.34705 0.23983 0.83236 0.0
C865 C 0.34584 0.22704 0.81664 0.0
C866 C 0.33731 0.20859 0.81869 0.0
C867 C 0.33006 0.20274 0.83641 0.0
C868 C 0.3307 0.21553 0.85194 0.0
C869 C 0.33915 0.23401 0.84997 0.0
H870 H 0.32413 0.18824 0.83818 0.0
H871 H 0.4355 0.35035 0.82137 0.0
H872 H 0.00454 0.81791 0.43269 0.0
H873 H 0.0039 0.85305 0.43091 0.0
H874 H 0.99646 0.84948 0.36957 0.0
H875 H 0.99779 0.81403 0.37123 0.0
H876 H 0.01755 0.88272 0.38083 0.0
H877 H 0.9572 0.85336 0.39347 0.0
H878 H 0.93396 0.83022 0.4081 0.0
H879 H 0.94625 0.85503 0.46356 0.0
H880 H 0.96981 0.87812 0.44932 0.0
H881 H 0.96448 0.96205 0.44359 0.0
H882 H 0.96283 0.93875 0.41706 0.0
H883 H 0.02465 0.933 0.42093 0.0
H884 H 0.02631 0.95706 0.44651 0.0
H885 H 0.96787 0.90556 0.42548 0.0
H886 H 0.04361 0.90515 0.38431 0.0
H887 H 0.06313 0.92748 0.36455 0.0
H888 H 0.0152 0.96488 0.35906 0.0
H889 H 0.99493 0.9423 0.37785 0.0
C890 C 0.00328 0.82462 0.41877 0.0
C891 C 0.00096 0.81331 0.40214 0.0
C892 C 0.00287 0.84468 0.41776 0.0
C893 C -0.0004 0.8538 0.40017 0.0
C894 C -0.00114 0.84268 0.38329 0.0
C895 C -0.00037 0.82249 0.38426 0.0
C896 C 0.99489 0.87453 0.40018 0.0
C897 C 0.00676 0.88799 0.39052 0.0
C898 C 0.97971 0.88111 0.41161 0.0
C899 C 0.96531 0.86747 0.4203 0.0
C900 C 0.95501 0.85383 0.4088 0.0
C901 C 0.94178 0.84072 0.41702 0.0
C902 C 0.93863 0.84115 0.43675 0.0
C903 C 0.94869 0.85473 0.44828 0.0
C904 C 0.96196 0.86786 0.44013 0.0
C905 C 0.97777 0.95656 0.43795 0.0
C906 C 0.9955 0.96122 0.44694 0.0
C907 C 0.97686 0.94317 0.42288 0.0
C908 C 0.99358 0.93371 0.41715 0.0
C909 C 0.01156 0.9401 0.4248 0.0
C910 C 0.01251 0.95383 0.43954 0.0
C911 C 0.99187 0.91439 0.40761 0.0
C912 C 0.97858 0.90087 0.41539 0.0
C913 C 0.00531 0.90804 0.39386 0.0
C914 C 0.01766 0.92194 0.38275 0.0
C915 C 0.03704 0.91796 0.37871 0.0
C916 C 0.04825 0.93065 0.36755 0.0
C917 C 0.04044 0.94761 0.36062 0.0
C918 C 0.02129 0.95179 0.36456 0.0
C919 C 0.00989 0.93899 0.37542 0.0
H920 H 0.04921 0.9575 0.35215 0.0
H921 H 0.92839 0.83098 0.44309 0.0
H922 H 0.43768 0.75903 0.69182 0.0
H923 H 0.40377 0.76506 0.69776 0.0
H924 H 0.39416 0.77409 0.63739 0.0
H925 H 0.42856 0.7687 0.63141 0.0
H926 H 0.37028 0.79702 0.66051 0.0
H927 H 0.38568 0.73067 0.65334 0.0
H928 H 0.4042 0.70136 0.65894 0.0
H929 H 0.39007 0.70312 0.71864 0.0
H930 H 0.37171 0.73264 0.71345 0.0
H931 H 0.27748 0.73606 0.68014 0.0
H932 H 0.30449 0.75226 0.6637 0.0
H933 H 0.32353 0.77846 0.71702 0.0
H934 H 0.29665 0.76225 0.73343 0.0
H935 H 0.34078 0.73935 0.69209 0.0
H936 H 0.32657 0.80886 0.69715 0.0
H937 H 0.30879 0.83814 0.68889 0.0
H938 H 0.31836 0.82763 0.62918 0.0
H939 H 0.3366 0.79864 0.63714 0.0
C940 C 0.42846 0.76273 0.67985 0.0
C941 C 0.43564 0.76308 0.66112 0.0
C942 C 0.40909 0.76621 0.68326 0.0
C943 C 0.39635 0.76959 0.66797 0.0
C944 C 0.40375 0.77145 0.64938 0.0
C945 C 0.42335 0.7683 0.64598 0.0
C946 C 0.37521 0.76849 0.67137 0.0
C947 C 0.36374 0.78437 0.66725 0.0
C948 C 0.3666 0.75185 0.67986 0.0
C949 C 0.37744 0.73395 0.68302 0.0
C950 C 0.38663 0.72488 0.66769 0.0
C951 C 0.39709 0.70822 0.67078 0.0
C952 C 0.39834 0.7004 0.68914 0.0
C953 C 0.3891 0.7092 0.70443 0.0
C954 C 0.37865 0.72588 0.70141 0.0
C955 C 0.28664 0.74637 0.68804 0.0
C956 C 0.28487 0.74819 0.70796 0.0
C957 C 0.30208 0.75565 0.67863 0.0
C958 C 0.3159 0.7668 0.68907 0.0
C959 C 0.31278 0.77039 0.70857 0.0
C960 C 0.29743 0.76105 0.71797 0.0
C961 C 0.33597 0.76816 0.68202 0.0
C962 C 0.34724 0.75203 0.68529 0.0
C963 C 0.34412 0.78439 0.67248 0.0
C964 C 0.33265 0.80144 0.66775 0.0
C965 C 0.32469 0.8127 0.68229 0.0
C966 C 0.31464 0.82929 0.67767 0.0
C967 C 0.31226 0.83459 0.65854 0.0
C968 C 0.32015 0.82348 0.644 0.0
C969 C 0.33046 0.80705 0.64857 0.0
H970 H 0.30439 0.84737 0.65499 0.0
H971 H 0.40645 0.6875 0.69151 0.0
H972 H 0.51531 0.19729 0.89797 0.0
H973 H 0.51812 0.1633 0.90667 0.0
H974 H 0.49202 0.17462 0.96123 0.0
H975 H 0.48932 0.20862 0.95278 0.0
H976 H 0.52212 0.15115 0.96513 0.0
H977 H 0.46538 0.15395 0.92543 0.0
H978 H 0.4464 0.16202 0.89667 0.0
H979 H 0.48252 0.12691 0.8621 0.0
H980 H 0.50189 0.11884 0.89064 0.0
H981 H 0.49725 0.05359 0.98891 0.0
H982 H 0.49574 0.08792 0.98128 0.0
H983 H 0.52189 0.07741 0.92657 0.0
H984 H 0.52326 0.04304 0.93391 0.0
H985 H 0.49158 0.10053 0.9231 0.0
H986 H 0.54819 0.09762 0.96349 0.0
H987 H 0.56634 0.08927 0.99269 0.0
H988 H 0.5295 0.12438 0.02647 0.0
H989 H 0.51096 0.13274 -0.00252 0.0
C990 C 0.51032 0.1926 0.91189 0.0
C991 C 0.50199 0.20568 0.92463 0.0
C992 C 0.51184 0.17314 0.91679 0.0
C993 C 0.50501 0.16638 0.93448 0.0
C994 C 0.49732 0.17951 0.94748 0.0
C995 C 0.49576 0.19895 0.9426 0.0
C996 C 0.50553 0.14555 0.93931 0.0
C997 C 0.51525 0.14009 0.95606 0.0
C998 C 0.4968 0.13111 0.92733 0.0
C999 C 0.48521 0.13597 0.91014 0.0
C1000 C 0.46938 0.14809 0.91167 0.0
C1001 C 0.45853 0.15264 0.89541 0.0
C1002 C 0.46329 0.14503 0.87756 0.0
C1003 C 0.47887 0.13282 0.87594 0.0
C1004 C 0.48978 0.12824 0.89215 0.0
C1005 C 0.50282 0.05857 0.97529 0.0
C1006 C 0.51054 0.04554 0.96208 0.0
C1007 C 0.50194 0.07822 0.97097 0.0
C1008 C 0.50892 0.08525 0.95345 0.0
C1009 C 0.51646 0.07228 0.94019 0.0
C1010 C 0.51728 0.05264 0.94445 0.0
C1011 C 0.50828 0.10611 0.94884 0.0
C1012 C 0.49847 0.11158 0.93215 0.0
C1013 C 0.51685 0.12055 0.96092 0.0
C1014 C 0.52807 0.11566 0.97834 0.0
C1015 C 0.54387 0.10345 0.97716 0.0
C1016 C 0.55425 0.09873 0.99367 0.0
C1017 C 0.54905 0.10625 0.01143 0.0
C1018 C 0.5335 0.11855 0.01271 0.0
C1019 C 0.52306 0.12329 -0.00376 0.0
H1020 H 0.55709 0.10258 0.0242 0.0
H1021 H 0.45487 0.14856 0.86499 0.0
H1022 H 0.03177 0.24264 0.18719 0.0
H1023 H 0.05675 0.23348 0.21044 0.0
H1024 H 0.09686 0.27474 0.18524 0.0
H1025 H 0.07227 0.28388 0.16219 0.0
H1026 H 0.11071 0.23795 0.18628 0.0
H1027 H 0.07879 0.28306 0.22825 0.0
H1028 H 0.05105 0.29485 0.2463 0.0
H1029 H 0.0474 0.24152 0.27742 0.0
H1030 H 0.07498 0.22933 0.25935 0.0
H1031 H 0.18053 0.27258 0.25645 0.0
H1032 H 0.14586 0.2675 0.25153 0.0
H1033 H 0.15479 0.20844 0.23456 0.0
H1034 H 0.18968 0.21384 0.2387 0.0
H1035 H 0.11297 0.24556 0.25696 0.0
H1036 H 0.13377 0.20187 0.1923 0.0
H1037 H 0.16287 0.193 0.17449 0.0
H1038 H 0.1898 0.24826 0.18808 0.0
H1039 H 0.16076 0.2575 0.20575 0.0
C1040 C 0.04577 0.25007 0.18695 0.0
C1041 C 0.05012 0.26383 0.17272 0.0
C1042 C 0.06004 0.24476 0.20017 0.0
C1043 C 0.07873 0.25323 0.19934 0.0
C1044 C 0.08261 0.26783 0.18595 0.0
C1045 C 0.06849 0.27309 0.17282 0.0
C1046 C 0.09489 0.24625 0.21127 0.0
C1047 C 0.11104 0.23928 0.20177 0.0
C1048 C 0.09531 0.24785 0.23147 0.0
C1049 C 0.07875 0.25519 0.24228 0.0
C1050 C 0.07194 0.27378 0.23881 0.0
C1051 C 0.05628 0.28055 0.24907 0.0
C1052 C 0.04742 0.26891 0.26295 0.0
C1053 C 0.05424 0.2505 0.26663 0.0
C1054 C 0.06989 0.24366 0.25639 0.0
C1055 C 0.17498 0.25822 0.25266 0.0
C1056 C 0.18771 0.24359 0.24798 0.0
C1057 C 0.15512 0.25529 0.24989 0.0
C1058 C 0.14776 0.23774 0.24222 0.0
C1059 C 0.1602 0.22218 0.2403 0.0
C1060 C 0.18016 0.22518 0.24291 0.0
C1061 C 0.1289 0.23776 0.23188 0.0
C1062 C 0.1123 0.24345 0.24156 0.0
C1063 C 0.12806 0.23531 0.21173 0.0
C1064 C 0.14521 0.23027 0.20044 0.0
C1065 C 0.14587 0.21215 0.19135 0.0
C1066 C 0.16234 0.20706 0.18132 0.0
C1067 C 0.17819 0.22005 0.18019 0.0
C1068 C 0.17752 0.23822 0.18897 0.0
C1069 C 0.16106 0.24339 0.19897 0.0
H1070 H 0.19096 0.21604 0.1725 0.0
H1071 H 0.03531 0.27418 0.27089 0.0
H1072 H 0.05322 0.00559 0.21657 0.0
H1073 H 0.03977 0.00295 0.18425 0.0
H1074 H 0.08995 0.97274 0.16597 0.0
H1075 H 0.1037 0.97552 0.19837 0.0
H1076 H 0.083 0.00343 0.14361 0.0
H1077 H 0.04571 0.9497 0.16817 0.0
H1078 H 0.0238 0.9327 0.19054 0.0
H1079 H 0.97923 0.97247 0.17764 0.0
H1080 H 0.00097 0.9899 0.15538 0.0
H1081 H 0.05378 0.97722 0.05109 0.0
H1082 H 0.06147 0.97543 0.08499 0.0
H1083 H 0.01349 0.01124 0.09803 0.0
H1084 H 0.0055 0.01323 0.06373 0.0
H1085 H 0.01792 0.97851 0.12322 0.0
H1086 H 0.05503 0.03227 0.09893 0.0
H1087 H 0.0767 0.04924 0.07632 0.0
H1088 H 0.12148 0.00963 0.08902 0.0
H1089 H 0.09996 0.99221 0.11149 0.0
C1090 C 0.06127 -0.00196 0.20579 0.0
C1091 C 0.07963 0.99089 0.21002 0.0
C1092 C 0.05349 0.99647 0.18731 0.0
C1093 C 0.06384 0.98765 0.17269 0.0
C1094 C 0.08174 0.97964 0.17706 0.0
C1095 C 0.08953 0.98115 0.1956 0.0
C1096 C 0.05687 0.98848 0.15256 0.0
C1097 C 0.06889 0.99769 0.13912 0.0
C1098 C 0.03815 0.98167 0.14686 0.0
C1099 C 0.02504 0.97122 0.16024 0.0
C1100 C 0.0313 0.95493 0.17023 0.0
C1101 C 0.01889 0.9452 0.18286 0.0
C1102 C 0.00015 0.95153 0.18555 0.0
C1103 C 0.99376 0.9676 0.17556 0.0
C1104 C 0.00611 0.9774 0.16292 0.0
C1105 C 0.04471 0.98472 0.06105 0.0
C1106 C 0.02907 0.99554 0.05458 0.0
C1107 C 0.04917 0.98363 0.08047 0.0
C1108 C 0.03817 0.99335 0.09396 0.0
C1109 C 0.02215 0.00366 0.08778 0.0
C1110 C 0.01767 0.00483 0.06819 0.0
C1111 C 0.04419 0.99319 0.11436 0.0
C1112 C 0.032 0.98423 0.12781 0.0
C1113 C 0.06275 0.00029 0.12016 0.0
C1114 C 0.07581 0.01083 0.10677 0.0
C1115 C 0.06945 0.02707 0.09679 0.0
C1116 C 0.08171 0.03679 0.08402 0.0
C1117 C 0.10044 0.03049 0.0812 0.0
C1118 C 0.10696 0.01449 0.0912 0.0
C1119 C 0.09474 0.00469 0.10397 0.0
H1120 H 0.10992 0.03804 0.0713 0.0
H1121 H 0.99057 0.94397 0.19533 0.0
H1122 H 0.22756 0.86757 0.43597 0.0
H1123 H 0.22178 0.86708 0.40109 0.0
H1124 H 0.27598 0.83924 0.39305 0.0
H1125 H 0.28169 0.83951 0.42741 0.0
H1126 H 0.2689 0.86722 0.36506 0.0
H1127 H 0.2349 0.81231 0.39784 0.0
H1128 H 0.21026 0.79955 0.42017 0.0
H1129 H 0.16639 0.82999 0.38997 0.0
H1130 H 0.19087 0.84307 0.36759 0.0
H1131 H 0.28058 0.78764 0.30845 0.0
H1132 H 0.27707 0.81562 0.32937 0.0
H1133 H 0.21887 0.82217 0.30815 0.0
H1134 H 0.22228 0.79367 0.28764 0.0
H1135 H 0.21876 0.81816 0.3451 0.0
H1136 H 0.25214 0.86074 0.30474 0.0
H1137 H 0.27671 0.87265 0.28204 0.0
H1138 H 0.32107 0.86667 0.32476 0.0
H1139 H 0.29685 0.85452 0.34773 0.0
C1140 C 0.2383 0.86159 0.42667 0.0
C1141 C 0.25492 0.8533 0.43441 0.0
C1142 C 0.23503 0.86139 0.40681 0.0
C1143 C 0.24849 0.85314 0.39452 0.0
C1144 C 0.26549 0.8458 0.40224 0.0
C1145 C 0.26861 0.84576 0.42194 0.0
C1146 C 0.24435 0.84974 0.37392 0.0
C1147 C 0.2578 0.85671 0.3605 0.0
C1148 C 0.22933 0.83673 0.36785 0.0
C1149 C 0.2147 0.82885 0.38125 0.0
C1150 C 0.22002 0.81637 0.39607 0.0
C1151 C 0.20609 0.80907 0.40871 0.0
C1152 C 0.18678 0.81402 0.40654 0.0
C1153 C 0.18136 0.82622 0.39168 0.0
C1154 C 0.19524 0.83358 0.37902 0.0
C1155 C 0.26736 0.79557 0.30771 0.0
C1156 C 0.25187 0.78886 0.29616 0.0
C1157 C 0.26535 0.81164 0.31958 0.0
C1158 C 0.24774 0.8212 0.32021 0.0
C1159 C 0.23264 0.8152 0.30774 0.0
C1160 C 0.23468 0.79908 0.29585 0.0
C1161 C 0.24422 0.83456 0.33642 0.0
C1162 C 0.22931 0.82945 0.3491 0.0
C1163 C 0.25784 0.84937 0.3417 0.0
C1164 C 0.27261 0.85672 0.328 0.0
C1165 C 0.26714 0.86186 0.3093 0.0
C1166 C 0.28102 0.86867 0.29636 0.0
C1167 C 0.30043 0.8704 0.30193 0.0
C1168 C 0.30602 0.86536 0.32048 0.0
C1169 C 0.2922 0.85857 0.33349 0.0
H1170 H 0.31115 0.87565 0.29188 0.0
H1171 H 0.17602 0.80835 0.41633 0.0
H1172 H 0.44968 0.99407 0.70913 0.0
H1173 H 0.46309 0.00245 0.67794 0.0
H1174 H 0.41026 0.03012 0.66255 0.0
H1175 H 0.39671 0.02183 0.69377 0.0
H1176 H 0.42049 0.00173 0.63687 0.0
H1177 H 0.4507 0.05693 0.6681 0.0
H1178 H 0.47036 0.07407 0.69289 0.0
H1179 H 0.51979 0.0419 0.67707 0.0
H1180 H 0.50035 0.02436 0.65236 0.0
H1181 H 0.44798 0.03335 0.54617 0.0
H1182 H 0.43914 0.03466 0.57978 0.0
H1183 H 0.49192 0.00709 0.59545 0.0
H1184 H 0.50105 0.00573 0.56166 0.0
H1185 H 0.48214 0.03638 0.62112 0.0
H1186 H 0.45285 0.98025 0.5915 0.0
H1187 H 0.43399 0.96175 0.56705 0.0
H1188 H 0.38361 0.99351 0.58055 0.0
H1189 H 0.40228 0.01251 0.60485 0.0
C1190 C 0.44106 0.00234 0.6993 0.0
C1191 C 0.42206 0.00714 0.70387 0.0
C1192 C 0.44878 0.00717 0.68149 0.0
C1193 C 0.43764 0.01684 0.66793 0.0
C1194 C 0.41907 0.02261 0.67283 0.0
C1195 C 0.41139 0.01794 0.69072 0.0
C1196 C 0.44454 0.01902 0.64802 0.0
C1197 C 0.43377 0.00964 0.63337 0.0
C1198 C 0.46227 0.02866 0.64364 0.0
C1199 C 0.474 0.0392 0.65849 0.0
C1200 C 0.46571 0.05338 0.67002 0.0
C1201 C 0.47683 0.0632 0.68403 0.0
C1202 C 0.4963 0.05905 0.68659 0.0
C1203 C 0.5047 0.04509 0.67509 0.0
C1204 C 0.49364 0.03522 0.66106 0.0
C1205 C 0.45788 0.02772 0.55672 0.0
C1206 C 0.47514 0.0192 0.55117 0.0
C1207 C 0.45276 0.0285 0.57594 0.0
C1208 C 0.46472 0.0207 0.59003 0.0
C1209 C 0.48248 0.01315 0.58474 0.0
C1210 C 0.48766 0.01236 0.56543 0.0
C1211 C 0.45794 0.01931 0.61001 0.0
C1212 C 0.46878 0.02865 0.62464 0.0
C1213 C 0.44036 0.0094 0.61447 0.0
C1214 C 0.42904 -0.00202 0.59987 0.0
C1215 C 0.4378 0.98344 0.58914 0.0
C1216 C 0.42714 0.97284 0.57532 0.0
C1217 C 0.40763 0.97649 0.57222 0.0
C1218 C 0.39874 0.99073 0.58295 0.0
C1219 C 0.40936 0.00143 0.59675 0.0
H1220 H 0.3994 0.96824 0.56154 0.0
H1221 H 0.50488 0.06666 0.69744 0.0
H1222 H 0.30099 0.18495 0.94572 0.0
H1223 H 0.30717 0.1934 0.91223 0.0
H1224 H 0.27086 0.14467 0.89382 0.0
H1225 H 0.26644 0.13523 0.92715 0.0
H1226 H 0.29421 0.15038 0.8676 0.0
H1227 H 0.25455 0.19434 0.90303 0.0
H1228 H 0.24736 0.21769 0.92862 0.0
H1229 H 0.29413 0.25513 0.91009 0.0
H1230 H 0.3017 0.2319 0.88451 0.0
H1231 H 0.22916 0.19562 0.80304 0.0
H1232 H 0.24851 0.17742 0.82568 0.0
H1233 H 0.29597 0.21864 0.81871 0.0
H1234 H 0.27688 0.23611 0.79524 0.0
H1235 H 0.27655 0.21801 0.8551 0.0
H1236 H 0.30552 0.17535 0.81158 0.0
H1237 H 0.30942 0.15079 0.78652 0.0
H1238 H 0.27549 0.10978 0.81886 0.0
H1239 H 0.27138 0.13407 0.84428 0.0
C1240 C 0.29493 0.17575 0.93442 0.0
C1241 C 0.28319 0.15953 0.93887 0.0
C1242 C 0.29826 0.18067 0.9153 0.0
C1243 C 0.28886 0.17016 0.90037 0.0
C1244 C 0.27823 0.15315 0.90493 0.0
C1245 C 0.27563 0.14776 0.924 0.0
C1246 C 0.28805 0.17786 0.88045 0.0
C1247 C 0.29022 0.16514 0.86486 0.0
C1248 C 0.28337 0.1973 0.8767 0.0
C1249 C 0.27889 0.21125 0.89209 0.0
C1250 C 0.26338 0.2075 0.90451 0.0
C1251 C 0.25922 0.22071 0.91899 0.0
C1252 C 0.27034 0.23784 0.92103 0.0
C1253 C 0.28559 0.24182 0.90854 0.0
C1254 C 0.28982 0.22864 0.89406 0.0
C1255 C 0.2441 0.20017 0.8056 0.0
C1256 C 0.25159 0.21737 0.79762 0.0
C1257 C 0.25517 0.18972 0.81847 0.0
C1258 C 0.27367 0.19668 0.82391 0.0
C1259 C 0.28184 0.21284 0.81452 0.0
C1260 C 0.27093 0.22291 0.80115 0.0
C1261 C 0.2818 0.1903 0.8424 0.0
C1262 C 0.28092 0.20333 0.85777 0.0
C1263 C 0.28674 0.17097 0.84586 0.0
C1264 C 0.28826 0.15662 0.83003 0.0
C1265 C 0.29878 0.16117 0.81341 0.0
C1266 C 0.30109 0.14724 0.79912 0.0
C1267 C 0.2928 0.12871 0.80116 0.0
C1268 C 0.282 0.12412 0.81737 0.0
C1269 C 0.27975 0.13796 0.83177 0.0
H1270 H 0.29481 0.11786 0.79024 0.0
H1271 H 0.2671 0.24806 0.93225 0.0
H1272 H 0.06987 0.99687 0.31436 0.0
H1273 H 0.06632 0.9933 0.34881 0.0
H1274 H 0.12492 0.97457 0.35354 0.0
H1275 H 0.12861 0.97798 0.31867 0.0
H1276 H 0.09114 0.95736 0.3821 0.0
H1277 H 0.12797 0.01459 0.36225 0.0
H1278 H 0.13483 0.04162 0.34019 0.0
H1279 H 0.07828 0.0632 0.34986 0.0
H1280 H 0.07099 0.0361 0.37174 0.0
H1281 H 0.07237 0.03646 0.46313 0.0
H1282 H 0.09418 0.02118 0.44064 0.0
H1283 H 0.04772 0.98193 0.42247 0.0
H1284 H 0.02615 0.9972 0.44483 0.0
H1285 H 0.08747 0.02528 0.40472 0.0
H1286 H 0.06166 0.94418 0.4016 0.0
H1287 H 0.05663 0.91693 0.42385 0.0
H1288 H 0.09641 0.94413 0.46396 0.0
H1289 H 0.10192 0.97128 0.44174 0.0
C1290 C 0.08188 0.99148 0.3226 0.0
C1291 C 0.09965 0.98806 0.31388 0.0
C1292 C 0.07975 0.98927 0.34227 0.0
C1293 C 0.09537 0.98375 0.35368 0.0
C1294 C 0.11266 0.97868 0.34491 0.0
C1295 C 0.11477 0.98075 0.32504 0.0
C1296 C 0.09447 0.98742 0.37454 0.0
C1297 C 0.09069 0.97215 0.38726 0.0
C1298 C 0.09446 0.0067 0.38132 0.0
C1299 C 0.09892 0.02328 0.36854 0.0
C1300 C 0.11697 0.02504 0.35958 0.0
C1301 C 0.12093 0.04037 0.34712 0.0
C1302 C 0.10699 0.0541 0.34361 0.0
C1303 C 0.08907 0.05256 0.3526 0.0
C1304 C 0.08502 0.03723 0.36505 0.0
C1305 C 0.06711 0.02406 0.45482 0.0
C1306 C 0.04769 0.01772 0.4559 0.0
C1307 C 0.07956 0.01532 0.44204 0.0
C1308 C 0.07267 0.00032 0.4299 0.0
C1309 C 0.05359 0.99309 0.43202 0.0
C1310 C 0.0412 0.00176 0.44492 0.0
C1311 C 0.08353 0.99527 0.41246 0.0
C1312 C 0.08883 0.01039 0.4001 0.0
C1313 C 0.08558 0.97591 0.40639 0.0
C1314 C 0.0823 0.95962 0.41984 0.0
C1315 C 0.06951 0.94416 0.41501 0.0
C1316 C 0.0665 0.92882 0.4277 0.0
C1317 C 0.07615 0.92884 0.44536 0.0
C1318 C 0.08887 0.94419 0.45034 0.0
C1319 C 0.09194 0.95955 0.43768 0.0
H1320 H 0.0738 0.91698 0.45519 0.0
H1321 H 0.11008 0.06596 0.33395 0.0
H1322 H 0.24346 0.78906 0.52177 0.0
H1323 H 0.23394 0.77193 0.55092 0.0
H1324 H 0.22147 0.82621 0.57801 0.0
H1325 H 0.23074 0.84347 0.54886 0.0
H1326 H 0.24748 0.80297 0.59886 0.0
H1327 H 0.18533 0.79776 0.56695 0.0
H1328 H 0.1631 0.78915 0.54022 0.0
H1329 H 0.17835 0.72967 0.54456 0.0
H1330 H 0.2009 0.73798 0.57117 0.0
H1331 H 0.18288 0.76421 0.67519 0.0
H1332 H 0.18609 0.77128 0.64121 0.0
H1333 H 0.24232 0.74626 0.64125 0.0
H1334 H 0.23943 0.73937 0.67538 0.0
H1335 H 0.19448 0.75354 0.60625 0.0
H1336 H 0.2723 0.7784 0.62019 0.0
H1337 H 0.29397 0.78566 0.64772 0.0
H1338 H 0.24634 0.80678 0.67968 0.0
H1339 H 0.22437 0.79975 0.65224 0.0
C1340 C 0.23834 0.79733 0.53381 0.0
C1341 C 0.23793 0.81763 0.53305 0.0
C1342 C 0.23292 0.78751 0.55043 0.0
C1343 C 0.22714 0.79785 0.56659 0.0
C1344 C 0.22598 0.81802 0.56566 0.0
C1345 C 0.23115 0.82784 0.54896 0.0
C1346 C 0.22354 0.78776 0.58488 0.0
C1347 C 0.2359 0.79216 0.60045 0.0
C1348 C 0.20854 0.77355 0.58687 0.0
C1349 C 0.19495 0.76853 0.57092 0.0
C1350 C 0.18408 0.78288 0.5621 0.0
C1351 C 0.17139 0.77804 0.54699 0.0
C1352 C 0.16935 0.75888 0.54066 0.0
C1353 C 0.17996 0.74451 0.54946 0.0
C1354 C 0.19268 0.74927 0.56457 0.0
C1355 C 0.19574 0.75973 0.66791 0.0
C1356 C 0.21112 0.75169 0.67813 0.0
C1357 C 0.19748 0.76368 0.64843 0.0
C1358 C 0.2146 0.75967 0.63888 0.0
C1359 C 0.22909 0.74969 0.6485 0.0
C1360 C 0.22739 0.74576 0.66801 0.0
C1361 C 0.21844 0.76875 0.62013 0.0
C1362 C 0.20616 0.76421 0.60453 0.0
C1363 C 0.23348 0.78291 0.61808 0.0
C1364 C 0.24671 0.78845 0.6342 0.0
C1365 C 0.2665 0.78479 0.63302 0.0
C1366 C 0.27882 0.78883 0.64862 0.0
C1367 C 0.27155 0.79668 0.66545 0.0
C1368 C 0.25195 0.80068 0.66664 0.0
C1369 C 0.23956 0.79667 0.65107 0.0
H1370 H 0.28108 0.79961 0.67758 0.0
H1371 H 0.15952 0.75517 0.52896 0.0
H1372 H 0.39572 0.01563 0.80825 0.0
H1373 H 0.40249 0.01552 0.84299 0.0
H1374 H 0.40417 0.95325 0.84159 0.0
H1375 H 0.39832 0.95335 0.80717 0.0
H1376 H 0.38756 -0.00126 0.87644 0.0
H1377 H 0.44308 0.9388 0.86397 0.0
H1378 H 0.46445 0.92768 0.83838 0.0
H1379 H 0.46607 0.98454 0.81401 0.0
H1380 H 0.44496 0.99606 0.8396 0.0
H1381 H 0.45912 0.94561 0.94679 0.0
H1382 H 0.43539 0.94697 0.92069 0.0
H1383 H 0.43244 0.00865 0.92877 0.0
H1384 H 0.45529 0.00711 0.95548 0.0
H1385 H 0.44856 0.96587 0.89101 0.0
H1386 H 0.39538 0.02682 0.90259 0.0
H1387 H 0.37532 0.04029 0.92811 0.0
H1388 H 0.37167 0.98484 0.95533 0.0
H1389 H 0.39151 0.97097 0.92988 0.0
C1390 C 0.39735 0.00197 0.81549 0.0
C1391 C 0.39702 0.98454 0.80504 0.0
C1392 C 0.40107 0.00191 0.83529 0.0
C1393 C 0.4042 0.98439 0.84476 0.0
C1394 C 0.40221 0.96695 0.8345 0.0
C1395 C 0.39895 0.96704 0.81482 0.0
C1396 C 0.41176 0.98406 0.86469 0.0
C1397 C 0.40097 0.99172 0.8797 0.0
C1398 C 0.42928 0.97495 0.86889 0.0
C1399 C 0.44229 0.96823 0.85361 0.0
C1400 C 0.44808 0.94894 0.8532 0.0
C1401 C 0.46013 0.94257 0.83869 0.0
C1402 C 0.46656 0.95538 0.82454 0.0
C1403 C 0.46102 0.97462 0.82493 0.0
C1404 C 0.449 0.98107 0.83943 0.0
C1405 C 0.45241 0.9592 0.94376 0.0
C1406 C 0.45877 0.97619 0.9532 0.0
C1407 C 0.43899 0.96004 0.92876 0.0
C1408 C 0.43222 0.97796 0.92267 0.0
C1409 C 0.43709 0.99464 0.93342 0.0
C1410 C 0.45015 0.99372 0.94874 0.0
C1411 C 0.42398 0.97971 0.90308 0.0
C1412 C 0.43495 0.97264 0.88795 0.0
C1413 C 0.40694 0.98973 0.89893 0.0
C1414 C 0.39496 -0.00213 0.91432 0.0
C1415 C 0.39021 0.01748 0.91396 0.0
C1416 C 0.37891 0.02518 0.92843 0.0
C1417 C 0.37218 0.01339 0.94325 0.0
C1418 C 0.37689 0.99393 0.9438 0.0
C1419 C 0.3882 0.98615 0.92938 0.0
H1420 H 0.3632 0.01928 0.95425 0.0
H1421 H 0.47587 0.95041 0.81331 0.0
H1422 H 0.27205 0.18973 0.04377 0.0
H1423 H 0.27451 0.19593 0.07812 0.0
H1424 H 0.27782 0.13475 0.08858 0.0
H1425 H 0.27546 0.12839 0.05395 0.0
H1426 H 0.25024 0.15216 0.11091 0.0
H1427 H 0.31677 0.16183 0.09806 0.0
H1428 H 0.34554 0.17396 0.08079 0.0
H1429 H 0.33063 0.23244 0.0931 0.0
H1430 H 0.30161 0.2207 0.11021 0.0
H1431 H 0.27978 0.21017 0.20519 0.0
H1432 H 0.28827 0.18855 0.17864 0.0
H1433 H 0.23788 0.20583 0.1471 0.0
H1434 H 0.2296 0.22755 0.17315 0.0
H1435 H 0.29561 0.20101 0.14046 0.0
H1436 H 0.21924 0.16594 0.12359 0.0
H1437 H 0.19108 0.15358 0.14168 0.0
H1438 H 0.22748 0.14367 0.19054 0.0
H1439 H 0.25592 0.15562 0.17267 0.0
C1440 C 0.27363 0.17758 0.05332 0.0
C1441 C 0.27355 0.15856 0.04612 0.0
C1442 C 0.2751 0.18115 0.07297 0.0
C1443 C 0.27643 0.16581 0.08593 0.0
C1444 C 0.27685 0.1468 0.07882 0.0
C1445 C 0.27563 0.14321 0.05905 0.0
C1446 C 0.27601 0.16991 0.10684 0.0
C1447 C 0.26031 0.16261 0.11749 0.0
C1448 C 0.28945 0.18316 0.11558 0.0
C1449 C 0.30696 0.19036 0.10539 0.0
C1450 C 0.31956 0.17729 0.09699 0.0
C1451 C 0.33592 0.18409 0.08724 0.0
C1452 C 0.33991 0.20396 0.08584 0.0
C1453 C 0.32754 0.21706 0.09421 0.0
C1454 C 0.31114 0.21033 0.10398 0.0
C1455 C 0.27045 0.20914 0.19266 0.0
C1456 C 0.25415 0.22066 0.19112 0.0
C1457 C 0.27532 0.19684 0.17754 0.0
C1458 C 0.26364 0.19554 0.16098 0.0
C1459 C 0.24699 0.20649 0.15981 0.0
C1460 C 0.24235 0.219 0.17466 0.0
C1461 C 0.2693 0.18406 0.14407 0.0
C1462 C 0.28589 0.19009 0.13411 0.0
C1463 C 0.2568 0.16949 0.13608 0.0
C1464 C 0.23975 0.16178 0.14676 0.0
C1465 C 0.22129 0.16097 0.13813 0.0
C1466 C 0.20525 0.15406 0.14837 0.0
C1467 C 0.20748 0.14786 0.16725 0.0
C1468 C 0.22576 0.14851 0.17592 0.0
C1469 C 0.24184 0.15537 0.16575 0.0
H1470 H 0.19505 0.14253 0.17515 0.0
H1471 H 0.35258 0.2092 0.07828 0.0
H1472 H 0.21281 0.08976 -0.00285 0.0
H1473 H 0.17988 0.07572 -0.00424 0.0
H1474 H 0.16003 0.12746 0.96866 0.0
H1475 H 0.19262 0.14178 0.97072 0.0
H1476 H 0.13526 0.1174 0.99365 0.0
H1477 H 0.16657 0.08355 0.94352 0.0
H1478 H 0.19159 0.0639 0.92878 0.0
H1479 H 0.17778 0.0173 0.96715 0.0
H1480 H 0.15283 0.03677 0.98228 0.0
H1481 H 0.06027 0.03644 0.95482 0.0
H1482 H 0.08935 0.0572 0.95201 0.0
H1483 H 0.08375 0.07467 0.01113 0.0
H1484 H 0.05391 0.05491 0.0134 0.0
H1485 H 0.12083 0.05152 0.96799 0.0
H1486 H 0.11082 0.11408 0.02221 0.0
H1487 H 0.08532 0.13522 0.03337 0.0
H1488 H 0.0549 0.12744 0.97984 0.0
H1489 H 0.0804 0.10633 0.96826 0.0
C1490 C 0.20143 0.09807 0.99079 0.0
C1491 C 0.20535 0.11687 0.98405 0.0
C1492 C 0.1826 0.09002 0.98995 0.0
C1493 C 0.1674 0.10044 0.98193 0.0
C1494 C 0.1714 0.11913 0.975 0.0
C1495 C 0.19011 0.12728 0.97612 0.0
C1496 C 0.14728 0.09207 0.98094 0.0
C1497 C 0.13209 0.10301 0.98797 0.0
C1498 C 0.14298 0.07345 0.97321 0.0
C1499 C 0.15796 0.06169 0.96414 0.0
C1500 C 0.16896 0.06916 0.9489 0.0
C1501 C 0.18311 0.05805 0.94046 0.0
C1502 C 0.1863 0.03938 0.94706 0.0
C1503 C 0.17531 0.03177 0.96207 0.0
C1504 C 0.16115 0.04283 0.97057 0.0
C1505 C 0.06483 0.04544 0.9669 0.0
C1506 C 0.0548 0.04434 0.98423 0.0
C1507 C 0.08158 0.05711 0.9654 0.0
C1508 C 0.08896 0.06751 0.98136 0.0
C1509 C 0.07829 0.06718 -0.00156 0.0
C1510 C 0.06118 0.0559 -0.00024 0.0
C1511 C 0.10869 0.07684 0.98068 0.0
C1512 C 0.12388 0.066 0.97349 0.0
C1513 C 0.11286 0.09578 0.9877 0.0
C1514 C 0.09748 0.10853 0.99443 0.0
C1515 C 0.09874 0.11695 0.01278 0.0
C1516 C 0.08425 0.12892 0.01919 0.0
C1517 C 0.06847 0.13271 0.00732 0.0
C1518 C 0.06712 0.12447 0.98903 0.0
C1519 C 0.08157 0.11247 0.98254 0.0
H1520 H 0.05731 0.14207 0.01228 0.0
H1521 H 0.19726 0.0308 0.94051 0.0
H1522 H 0.69629 0.38851 0.01131 0.0
H1523 H 0.66538 0.40431 0.01324 0.0
H1524 H 0.68718 0.45046 0.97742 0.0
H1525 H 0.71831 0.43461 0.97525 0.0
H1526 H 0.66553 0.46332 0.00956 0.0
H1527 H 0.65767 0.41997 0.95624 0.0
H1528 H 0.65998 0.38891 0.93905 0.0
H1529 H 0.62364 0.36111 0.98078 0.0
H1530 H 0.62089 0.39207 -0.00189 0.0
H1531 H 0.56842 0.49609 0.99278 0.0
H1532 H 0.60191 0.48632 0.98923 0.0
H1533 H 0.58864 0.43374 0.01998 0.0
H1534 H 0.55529 0.44323 0.02344 0.0
H1535 H 0.60688 0.42648 0.98689 0.0
H1536 H 0.61547 0.47053 0.04053 0.0
H1537 H 0.61337 0.50192 0.05715 0.0
H1538 H 0.6489 0.52897 0.01426 0.0
H1539 H 0.651 0.49776 -0.00277 0.0
C1540 C 0.69464 0.40209 0.00393 0.0
C1541 C 0.70979 0.41024 0.99305 0.0
C1542 C 0.6769 0.41107 0.005 0.0
C1543 C 0.67392 0.42846 -0.00468 0.0
C1544 C 0.68918 0.43702 0.98496 0.0
C1545 C 0.70693 0.42792 0.98371 0.0
C1546 C 0.65463 0.43723 -0.00427 0.0
C1547 C 0.65272 0.45545 0.00431 0.0
C1548 C 0.63792 0.42689 0.98903 0.0
C1549 C 0.6392 0.4083 0.97853 0.0
C1550 C 0.65019 0.40722 0.96176 0.0
C1551 C 0.65149 0.38965 0.95195 0.0
C1552 C 0.64188 0.37306 0.95878 0.0
C1553 C 0.6309 0.37401 0.97541 0.0
C1554 C 0.62941 0.39158 0.9852 0.0
C1555 C 0.57272 0.48264 -0.00088 0.0
C1556 C 0.55912 0.47047 0.00842 0.0
C1557 C 0.59187 0.47704 -0.00297 0.0
C1558 C 0.59779 0.45927 0.00433 0.0
C1559 C 0.58439 0.44745 0.01413 0.0
C1560 C 0.56532 0.45297 0.01618 0.0
C1561 C 0.61764 0.45241 0.0012 0.0
C1562 C 0.61967 0.4345 0.99201 0.0
C1563 C 0.6344 0.46313 0.00724 0.0
C1564 C 0.63321 0.48187 0.0175 0.0
C1565 C 0.6227 0.48321 0.03455 0.0
C1566 C 0.62154 0.50096 0.04407 0.0
C1567 C 0.63095 0.51744 0.03673 0.0
C1568 C 0.64159 0.51619 0.0199 0.0
C1569 C 0.64278 0.49848 0.01032 0.0
H1570 H 0.63003 0.53117 0.04412 0.0
H1571 H 0.64296 0.35945 0.95121 0.0
H1572 H 0.87036 0.4302 0.20941 0.0
H1573 H 0.84954 0.4016 0.20296 0.0
H1574 H 0.81319 0.41749 0.25008 0.0
H1575 H 0.83318 0.44675 0.25541 0.0
H1576 H 0.84727 0.37335 0.22383 0.0
H1577 H 0.77091 0.39511 0.25125 0.0
H1578 H 0.74877 0.42204 0.24751 0.0
H1579 H 0.77627 0.43828 0.19491 0.0
H1580 H 0.79841 0.41128 0.19816 0.0
H1581 H 0.76593 0.31283 0.27195 0.0
H1582 H 0.78518 0.34207 0.2646 0.0
H1583 H 0.80208 0.31669 0.21099 0.0
H1584 H 0.78262 0.28746 0.21826 0.0
H1585 H 0.77665 0.36426 0.23255 0.0
H1586 H 0.84728 0.3418 0.19943 0.0
H1587 H 0.87049 0.31553 0.19971 0.0
H1588 H 0.85388 0.30068 0.25696 0.0
H1589 H 0.83083 0.32714 0.2572 0.0
C1590 C 0.85737 0.42794 0.21774 0.0
C1591 C 0.85315 0.44061 0.23275 0.0
C1592 C 0.84559 0.41153 0.2142 0.0
C1593 C 0.82974 0.40723 0.22602 0.0
C1594 C 0.82496 0.42059 0.24037 0.0
C1595 C 0.83642 0.43732 0.2435 0.0
C1596 C 0.82007 0.38771 0.22534 0.0
C1597 C 0.83174 0.37143 0.22522 0.0
C1598 C 0.79982 0.38499 0.22714 0.0
C1599 C 0.78642 0.4012 0.22502 0.0
C1600 C 0.77217 0.40434 0.23882 0.0
C1601 C 0.75963 0.41964 0.2368 0.0
C1602 C 0.76114 0.43188 0.221 0.0
C1603 C 0.77516 0.42882 0.20717 0.0
C1604 C 0.78773 0.41354 0.20911 0.0
C1605 C 0.7743 0.31327 0.25892 0.0
C1606 C 0.77325 0.29778 0.24589 0.0
C1607 C 0.78512 0.32999 0.25465 0.0
C1608 C 0.79498 0.33153 0.23724 0.0
C1609 C 0.79477 0.31568 0.2246 0.0
C1610 C 0.78391 0.29889 0.2289 0.0
C1611 C 0.80399 0.35035 0.23189 0.0
C1612 C 0.79212 0.36637 0.23074 0.0
C1613 C 0.82394 0.35276 0.22826 0.0
C1614 C 0.83718 0.33634 0.22824 0.0
C1615 C 0.84855 0.3329 0.21207 0.0
C1616 C 0.8617 0.31801 0.21215 0.0
C1617 C 0.86365 0.30648 0.22834 0.0
C1618 C 0.85232 0.30966 0.24443 0.0
C1619 C 0.83918 0.32458 0.24445 0.0
H1620 H 0.87408 0.2952 0.22846 0.0
H1621 H 0.75142 0.44373 0.21947 0.0
H1622 H 0.80307 0.57871 0.45808 0.0
H1623 H 0.83503 0.5642 0.45831 0.0
H1624 H 0.85484 0.6054 0.5013 0.0
H1625 H 0.82304 0.61963 0.50151 0.0
H1626 H 0.88043 0.60059 0.46806 0.0
H1627 H 0.84423 0.56357 0.51607 0.0
H1628 H 0.81691 0.5426 0.52659 0.0
H1629 H 0.83105 0.5 0.48448 0.0
H1630 H 0.85831 0.52087 0.47354 0.0
H1631 H 0.96113 0.56922 0.51913 0.0
H1632 H 0.93241 0.58168 0.50356 0.0
H1633 H 0.92027 0.5257 0.47777 0.0
H1634 H 0.94887 0.5132 0.4938 0.0
H1635 H 0.89039 0.53558 0.49527 0.0
H1636 H 0.92652 0.56887 0.44756 0.0
H1637 H 0.95251 0.58902 0.43319 0.0
H1638 H 0.93886 0.63636 0.47007 0.0
H1639 H 0.91243 0.61664 0.48438 0.0
C1640 C 0.81422 0.5846 0.46764 0.0
C1641 C 0.81047 0.60026 0.47984 0.0
C1642 C 0.83245 0.57633 0.46772 0.0
C1643 C 0.8473 0.58382 0.47975 0.0
C1644 C 0.84361 0.59949 0.49183 0.0
C1645 C 0.82536 0.6075 0.49203 0.0
C1646 C 0.86666 0.57522 0.4802 0.0
C1647 C 0.88268 0.58639 0.47404 0.0
C1648 C 0.86947 0.5564 0.48721 0.0
C1649 C 0.85313 0.54388 0.49383 0.0
C1650 C 0.84139 0.54982 0.50893 0.0
C1651 C 0.82595 0.53793 0.515 0.0
C1652 C 0.8222 0.52001 0.50616 0.0
C1653 C 0.83394 0.51391 0.49128 0.0
C1654 C 0.84939 0.52575 0.48515 0.0
C1655 C 0.95282 0.55988 0.50938 0.0
C1656 C 0.95751 0.54044 0.50717 0.0
C1657 C 0.93636 0.56699 0.50044 0.0
C1658 C 0.92412 0.55473 0.48924 0.0
C1659 C 0.92946 0.53552 0.4862 0.0
C1660 C 0.946 0.52844 0.49512 0.0
C1661 C 0.9045 0.56111 0.48353 0.0
C1662 C 0.88831 0.54959 0.48881 0.0
C1663 C 0.9015 0.57942 0.47527 0.0
C1664 C 0.91763 0.59123 0.46714 0.0
C1665 C 0.92914 0.58354 0.45268 0.0
C1666 C 0.94384 0.59493 0.44446 0.0
C1667 C 0.94743 0.6139 0.45079 0.0
C1668 C 0.93611 0.62164 0.46521 0.0
C1669 C 0.92115 0.61042 0.47327 0.0
H1670 H 0.95895 0.62262 0.4445 0.0
H1671 H 0.81024 0.51082 0.51088 0.0
H1672 H 0.12745 0.072 0.24607 0.0
H1673 H 0.149 0.09988 0.24108 0.0
H1674 H 0.19826 0.06357 0.24574 0.0
H1675 H 0.17655 0.03526 0.25086 0.0
H1676 H 0.20245 0.09494 0.26818 0.0
H1677 H 0.18609 0.08374 0.20298 0.0
H1678 H 0.16564 0.07777 0.17433 0.0
H1679 H 0.139 0.13231 0.18261 0.0
H1680 H 0.15903 0.13848 0.21153 0.0
H1681 H 0.26743 0.171 0.25131 0.0
H1682 H 0.24842 0.14222 0.24139 0.0
H1683 H 0.19598 0.17342 0.24814 0.0
H1684 H 0.21522 0.20237 0.25825 0.0
H1685 H 0.19571 0.14359 0.21674 0.0
H1686 H 0.20942 0.15177 0.28467 0.0
H1687 H 0.23114 0.15805 0.31236 0.0
H1688 H 0.2637 0.10846 0.29757 0.0
H1689 H 0.24234 0.10209 0.26956 0.0
C1690 C 0.14286 0.0698 0.24593 0.0
C1691 C 0.15026 0.05133 0.24903 0.0
C1692 C 0.15519 0.08581 0.24285 0.0
C1693 C 0.17527 0.08386 0.24278 0.0
C1694 C 0.18278 0.06541 0.24561 0.0
C1695 C 0.17038 0.04925 0.24855 0.0
C1696 C 0.18821 0.10142 0.24151 0.0
C1697 C 0.20121 0.10533 0.25669 0.0
C1698 C 0.18635 0.1153 0.22675 0.0
C1699 C 0.17395 0.11148 0.20958 0.0
C1700 C 0.17571 0.09437 0.19885 0.0
C1701 C 0.16422 0.09097 0.18252 0.0
C1702 C 0.15099 0.10463 0.17668 0.0
C1703 C 0.14923 0.12173 0.18717 0.0
C1704 C 0.16065 0.12518 0.20353 0.0
C1705 C 0.25188 0.17193 0.24992 0.0
C1706 C 0.2427 0.18887 0.2553 0.0
C1707 C 0.24105 0.15548 0.2443 0.0
C1708 C 0.22081 0.15562 0.24426 0.0
C1709 C 0.21161 0.17306 0.24798 0.0
C1710 C 0.22255 0.18963 0.25358 0.0
C1711 C 0.20956 0.137 0.24348 0.0
C1712 C 0.19695 0.13299 0.22804 0.0
C1713 C 0.21175 0.12295 0.25794 0.0
C1714 C 0.22442 0.12659 0.27492 0.0
C1715 C 0.22131 0.1423 0.28723 0.0
C1716 C 0.23354 0.14587 0.303 0.0
C1717 C 0.24883 0.13369 0.30669 0.0
C1718 C 0.25188 0.11789 0.29466 0.0
C1719 C 0.23971 0.1143 0.27885 0.0
H1720 H 0.25829 0.13647 0.31891 0.0
H1721 H 0.14214 0.10198 0.16402 0.0
H1722 H 0.3284 0.85408 0.51974 0.0
H1723 H 0.36054 0.86907 0.5233 0.0
H1724 H 0.33807 0.92423 0.50748 0.0
H1725 H 0.30558 0.90924 0.50396 0.0
H1726 H 0.37952 0.8839 0.49381 0.0
H1727 H 0.36939 0.96043 0.52728 0.0
H1728 H 0.35002 0.97591 0.55212 0.0
H1729 H 0.34073 0.92112 0.57966 0.0
H1730 H 0.36037 0.90536 0.55523 0.0
H1731 H 0.44514 0.95796 0.46456 0.0
H1732 H 0.419 0.9348 0.47238 0.0
H1733 H 0.43879 0.93414 0.53117 0.0
H1734 H 0.46463 0.95764 0.52343 0.0
H1735 H 0.40168 0.94337 0.52859 0.0
H1736 H 0.43998 0.89331 0.50445 0.0
H1737 H 0.46108 0.87709 0.48162 0.0
H1738 H 0.416 0.87677 0.43897 0.0
H1739 H 0.39466 0.89325 0.46142 0.0
C1740 C 0.33017 0.86949 0.51735 0.0
C1741 C 0.31449 0.88045 0.51129 0.0
C1742 C 0.34858 0.87802 0.51941 0.0
C1743 C 0.35174 0.8977 0.51551 0.0
C1744 C 0.33591 0.90901 0.51069 0.0
C1745 C 0.31737 0.90045 0.50866 0.0
C1746 C 0.37181 0.90571 0.5143 0.0
C1747 C 0.3844 0.89685 0.50152 0.0
C1748 C 0.37829 0.92236 0.52463 0.0
C1749 C 0.36617 0.93166 0.53924 0.0
C1750 C 0.36323 0.95167 0.53864 0.0
C1751 C 0.35222 0.9605 0.55267 0.0
C1752 C 0.34407 0.94949 0.56741 0.0
C1753 C 0.34696 0.92962 0.56818 0.0
C1754 C 0.35801 0.92072 0.55422 0.0
C1755 C 0.44435 0.95221 0.47895 0.0
C1756 C 0.45715 0.95915 0.49329 0.0
C1757 C 0.42942 0.93904 0.48343 0.0
C1758 C 0.42699 0.93271 0.50236 0.0
C1759 C 0.44048 0.93875 0.51647 0.0
C1760 C 0.45546 0.95189 0.51196 0.0
C1761 C 0.40906 0.92189 0.50769 0.0
C1762 C 0.39685 0.93027 0.52112 0.0
C1763 C 0.40299 0.90465 0.49816 0.0
C1764 C 0.41574 0.89462 0.48461 0.0
C1765 C 0.43459 0.88991 0.49016 0.0
C1766 C 0.4466 0.88064 0.47729 0.0
C1767 C 0.43991 0.87592 0.45886 0.0
C1768 C 0.42116 0.88043 0.45326 0.0
C1769 C 0.40909 0.88971 0.46606 0.0
H1770 H 0.44924 0.86875 0.44892 0.0
H1771 H 0.33557 0.95636 0.57827 0.0
H1772 H 0.81634 0.53147 0.22647 0.0
H1773 H 0.8035 0.56394 0.22417 0.0
H1774 H 0.85636 0.58818 0.2488 0.0
H1775 H 0.86922 0.55588 0.25132 0.0
H1776 H 0.82512 0.60372 0.26488 0.0
H1777 H 0.84737 0.59095 0.20101 0.0
H1778 H 0.84923 0.57254 0.17078 0.0
H1779 H 0.78833 0.57846 0.16136 0.0
H1780 H 0.78607 0.59669 0.19169 0.0
H1781 H 0.82228 0.70204 0.23609 0.0
H1782 H 0.83129 0.66813 0.23706 0.0
H1783 H 0.77222 0.65007 0.22496 0.0
H1784 H 0.76292 0.68402 0.22463 0.0
H1785 H 0.80385 0.63084 0.20279 0.0
H1786 H 0.7821 0.6459 0.26535 0.0
H1787 H 0.78015 0.66437 0.29538 0.0
H1788 H 0.83956 0.65351 0.30805 0.0
H1789 H 0.84217 0.63558 0.27759 0.0
C1790 C 0.82524 0.54371 0.23139 0.0
C1791 C 0.84384 0.54105 0.23904 0.0
C1792 C 0.8179 0.56227 0.23001 0.0
C1793 C 0.82903 0.57851 0.23619 0.0
C1794 C 0.84751 0.57587 0.24397 0.0
C1795 C 0.85487 0.55737 0.24532 0.0
C1796 C 0.82151 0.59831 0.23462 0.0
C1797 C 0.82067 0.60972 0.25127 0.0
C1798 C 0.81518 0.60594 0.21695 0.0
C1799 C 0.81651 0.59498 0.19872 0.0
C1800 C 0.83435 0.58818 0.19258 0.0
C1801 C 0.83548 0.57781 0.17541 0.0
C1802 C 0.8189 0.57428 0.16419 0.0
C1803 C 0.80116 0.58117 0.17009 0.0
C1804 C 0.79994 0.59153 0.18726 0.0
C1805 C 0.81125 0.69086 0.23337 0.0
C1806 C 0.7919 0.69566 0.23024 0.0
C1807 C 0.81641 0.67153 0.23404 0.0
C1808 C 0.80239 0.65668 0.23118 0.0
C1809 C 0.78321 0.66138 0.22721 0.0
C1810 C 0.77794 0.68073 0.22703 0.0
C1811 C 0.80779 0.63625 0.23297 0.0
C1812 C 0.80823 0.62477 0.21639 0.0
C1813 C 0.81376 0.62857 0.25072 0.0
C1814 C 0.81243 0.63969 0.26892 0.0
C1815 C 0.7949 0.64779 0.27429 0.0
C1816 C 0.79367 0.65817 0.29143 0.0
C1817 C 0.80978 0.66034 0.30354 0.0
C1818 C 0.82713 0.65198 0.29857 0.0
C1819 C 0.82852 0.64176 0.28131 0.0
H1820 H 0.80877 0.66837 0.31683 0.0
H1821 H 0.81981 0.56626 0.15089 0.0
H1822 H 0.68213 0.45989 0.77905 0.0
H1823 H 0.69437 0.42713 0.77697 0.0
H1824 H 0.65024 0.41182 0.73509 0.0
H1825 H 0.63804 0.44463 0.73689 0.0
H1826 H 0.65502 0.38356 0.76518 0.0
H1827 H 0.69321 0.42085 0.71961 0.0
H1828 H 0.71481 0.44806 0.71 0.0
H1829 H 0.75716 0.43114 0.75146 0.0
H1830 H 0.73567 0.40396 0.7615 0.0
H1831 H 0.68786 0.30072 0.71749 0.0
H1832 H 0.67522 0.33085 0.72977 0.0
H1833 H 0.72966 0.3436 0.75859 0.0
H1834 H 0.74252 0.31372 0.7454 0.0
H1835 H 0.72054 0.37317 0.73982 0.0
H1836 H 0.68519 0.33313 0.7827 0.0
H1837 H 0.66416 0.30574 0.79296 0.0
H1838 H 0.6172 0.32721 0.7596 0.0
H1839 H 0.63804 0.35444 0.74863 0.0
C1840 C 0.67505 0.44959 0.76934 0.0
C1841 C 0.65916 0.45495 0.75805 0.0
C1842 C 0.68205 0.43085 0.76821 0.0
C1843 C 0.67319 0.417 0.75591 0.0
C1844 C 0.65723 0.42224 0.74475 0.0
C1845 C 0.65039 0.44106 0.74568 0.0
C1846 C 0.68094 0.39724 0.75421 0.0
C1847 C 0.66928 0.38119 0.75952 0.0
C1848 C 0.69982 0.39424 0.74753 0.0
C1849 C 0.71275 0.41053 0.74146 0.0
C1850 C 0.70706 0.42304 0.7268 0.0
C1851 C 0.71929 0.43843 0.72125 0.0
C1852 C 0.73732 0.44137 0.73016 0.0
C1853 C 0.74318 0.42887 0.7446 0.0
C1854 C 0.73098 0.41347 0.75022 0.0
C1855 C 0.69684 0.30965 0.72703 0.0
C1856 C 0.71591 0.30463 0.73112 0.0
C1857 C 0.68962 0.3269 0.73409 0.0
C1858 C 0.70132 0.33951 0.74543 0.0
C1859 C 0.72024 0.33412 0.75002 0.0
C1860 C 0.7275 0.31689 0.74278 0.0
C1861 C 0.69454 0.35916 0.75051 0.0
C1862 C 0.70637 0.37532 0.74581 0.0
C1863 C 0.67591 0.36219 0.75803 0.0
C1864 C 0.66325 0.34585 0.76475 0.0
C1865 C 0.67042 0.33198 0.77742 0.0
C1866 C 0.65852 0.31649 0.78341 0.0
C1867 C 0.63935 0.31481 0.77704 0.0
C1868 C 0.63205 0.32857 0.76458 0.0
C1869 C 0.6439 0.34404 0.75846 0.0
H1870 H 0.63015 0.30284 0.78172 0.0
H1871 H 0.74678 0.45329 0.72584 0.0
H1872 H 0.006 0.81499 0.89857 0.0
H1873 H 0.00294 0.84919 0.90637 0.0
H1874 H 0.97996 0.83388 0.96167 0.0
H1875 H 0.98209 0.7996 0.9535 0.0
H1876 H 0.96021 0.86172 0.94838 0.0
H1877 H 0.02819 0.85165 0.95464 0.0
H1878 H 0.06035 0.84142 0.94457 0.0
H1879 H 0.05932 0.88134 0.89775 0.0
H1880 H 0.02704 0.89165 0.90742 0.0
H1881 H 0.99236 0.94706 0.00016 0.0
H1882 H 0.98068 0.91632 0.98625 0.0
H1883 H 0.99337 0.93788 0.92978 0.0
H1884 H 0.00485 0.96874 0.94378 0.0
H1885 H 0.01576 0.90796 0.94077 0.0
H1886 H 0.94887 0.9221 0.94074 0.0
H1887 H 0.91798 0.93226 0.95407 0.0
H1888 H 0.91784 0.88449 0.99297 0.0
H1889 H 0.94913 0.87447 0.98051 0.0
C1890 C 0.00053 0.81891 0.91249 0.0
C1891 C 0.99447 0.80459 0.92549 0.0
C1892 C -0.00125 0.83851 0.91694 0.0
C1893 C 0.99141 0.84423 0.93473 0.0
C1894 C 0.98559 0.82991 0.94783 0.0
C1895 C 0.98699 0.8103 0.94322 0.0
C1896 C 0.98994 0.86511 0.93975 0.0
C1897 C 0.97241 0.87182 0.9469 0.0
C1898 C 0.0057 0.87843 0.93747 0.0
C1899 C 0.02511 0.87226 0.93162 0.0
C1900 C 0.03476 0.85814 0.94211 0.0
C1901 C 0.05302 0.85235 0.93649 0.0
C1902 C 0.06184 0.86068 0.92049 0.0
C1903 C 0.05245 0.87487 0.91012 0.0
C1904 C 0.03418 0.88071 0.91567 0.0
C1905 C 0.99132 0.9457 0.98471 0.0
C1906 C -0.00093 0.96034 0.97298 0.0
C1907 C 0.98484 0.92803 0.97676 0.0
C1908 C 0.9863 0.92474 0.95698 0.0
C1909 C 0.99207 0.94014 0.94508 0.0
C1910 C -0.00159 0.95784 0.95305 0.0
C1911 C 0.98609 0.9046 0.9495 0.0
C1912 C 0.00343 0.89797 0.942 0.0
C1913 C 0.9703 0.89138 0.95198 0.0
C1914 C 0.95153 0.8976 0.95975 0.0
C1915 C 0.94245 0.91391 0.95235 0.0
C1916 C 0.92483 0.91966 0.95977 0.0
C1917 C 0.91598 0.90908 0.97443 0.0
C1918 C 0.92477 0.89277 0.98174 0.0
C1919 C 0.94247 0.88705 0.9745 0.0
H1920 H 0.90231 0.9135 0.9801 0.0
H1921 H 0.07598 0.85617 0.91617 0.0
H1922 H 0.95264 0.29455 0.66497 0.0
H1923 H 0.92133 0.29218 0.68099 0.0
H1924 H 0.91806 0.23082 0.66977 0.0
H1925 H 0.94926 0.23297 0.65389 0.0
H1926 H 0.88634 0.24963 0.6565 0.0
H1927 H 0.92366 0.24593 0.71442 0.0
H1928 H 0.94861 0.2565 0.73801 0.0
H1929 H 0.91965 0.30973 0.74671 0.0
H1930 H 0.89467 0.29959 0.72295 0.0
H1931 H 0.80628 0.24634 0.73534 0.0
H1932 H 0.84032 0.24427 0.72638 0.0
H1933 H 0.82984 0.27944 0.67679 0.0
H1934 H 0.79599 0.28104 0.68518 0.0
H1935 H 0.86904 0.27027 0.7221 0.0
H1936 H 0.85365 0.27076 0.64259 0.0
H1937 H 0.83007 0.25866 0.61823 0.0
H1938 H 0.81745 0.20863 0.65244 0.0
H1939 H 0.84049 0.22081 0.6774 0.0
C1940 C 0.94543 0.28049 0.66622 0.0
C1941 C 0.9534 0.26398 0.65799 0.0
C1942 C 0.92757 0.27916 0.67544 0.0
C1943 C 0.91738 0.26132 0.67653 0.0
C1944 C 0.92568 0.24472 0.66905 0.0
C1945 C 0.94355 0.246 0.65999 0.0
C1946 C 0.89728 0.26023 0.6837 0.0
C1947 C 0.8826 0.25404 0.6709 0.0
C1948 C 0.89239 0.26593 0.70247 0.0
C1949 C 0.90738 0.27207 0.71677 0.0
C1950 C 0.9227 0.25996 0.72123 0.0
C1951 C 0.93683 0.26586 0.73467 0.0
C1952 C 0.93574 0.28379 0.74382 0.0
C1953 C 0.92049 0.29585 0.73959 0.0
C1954 C 0.90633 0.29002 0.72616 0.0
C1955 C 0.81125 0.25364 0.72254 0.0
C1956 C 0.7983 0.26366 0.71088 0.0
C1957 C 0.83071 0.25242 0.71742 0.0
C1958 C 0.83756 0.26126 0.70061 0.0
C1959 C 0.82481 0.2719 0.68944 0.0
C1960 C 0.80542 0.27296 0.6944 0.0
C1961 C 0.85808 0.2598 0.69482 0.0
C1962 C 0.87283 0.26565 0.7078 0.0
C1963 C 0.86314 0.25372 0.6762 0.0
C1964 C 0.84856 0.24678 0.66189 0.0
C1965 C 0.84567 0.25728 0.64499 0.0
C1966 C 0.83234 0.25046 0.63116 0.0
C1967 C 0.8221 0.23299 0.63393 0.0
C1968 C 0.82513 0.22233 0.65056 0.0
C1969 C 0.83819 0.22925 0.66462 0.0
H1970 H 0.81191 0.22763 0.62314 0.0
H1971 H 0.9467 0.28833 0.75422 0.0
H1972 H 0.52751 0.19657 0.39399 0.0
H1973 H 0.5382 0.16531 0.40592 0.0
H1974 H 0.49414 0.16594 0.44912 0.0
H1975 H 0.48357 0.19699 0.4375 0.0
H1976 H 0.52775 0.15276 0.46359 0.0
H1977 H 0.4875 0.1419 0.40543 0.0
H1978 H 0.48107 0.14551 0.37082 0.0
H1979 H 0.53527 0.12011 0.35809 0.0
H1980 H 0.54207 0.11652 0.39265 0.0
H1981 H 0.47702 0.0717 0.4862 0.0
H1982 H 0.49187 0.10114 0.47402 0.0
H1983 H 0.53299 0.06798 0.44273 0.0
H1984 H 0.51733 0.03774 0.45477 0.0
H1985 H 0.5166 0.09606 0.42058 0.0
H1986 H 0.54821 0.09596 0.48036 0.0
H1987 H 0.54976 0.0895 0.51505 0.0
H1988 H 0.51079 0.13524 0.52553 0.0
H1989 H 0.50841 0.14148 0.49093 0.0
C1990 C 0.52026 0.19014 0.40618 0.0
C1991 C 0.50458 0.19925 0.4147 0.0
C1992 C 0.52638 0.17225 0.41295 0.0
C1993 C 0.51692 0.16319 0.42836 0.0
C1994 C 0.50175 0.17264 0.43727 0.0
C1995 C 0.49562 0.1904 0.43051 0.0
C1996 C 0.52156 0.14334 0.43469 0.0
C1997 C 0.52555 0.14034 0.45419 0.0
C1998 C 0.51957 0.12712 0.42226 0.0
C1999 C 0.5154 0.12919 0.40156 0.0
C2000 C 0.49809 0.13721 0.39523 0.0
C2001 C 0.49437 0.13923 0.37564 0.0
C2002 C 0.50779 0.13311 0.36227 0.0
C2003 C 0.52492 0.12489 0.36846 0.0
C2004 C 0.52871 0.12286 0.38804 0.0
C2005 C 0.48946 0.07059 0.47699 0.0
C2006 C 0.49613 0.05249 0.47152 0.0
C2007 C 0.49804 0.0875 0.47011 0.0
C2008 C 0.51384 0.0869 0.45776 0.0
C2009 C 0.52094 0.06879 0.45244 0.0
C2010 C 0.51217 0.05159 0.45942 0.0
C2011 C 0.5214 0.10551 0.44973 0.0
C2012 C 0.51978 0.10838 0.42991 0.0
C2013 C 0.52554 0.12163 0.46191 0.0
C2014 C 0.52815 0.11915 0.48295 0.0
C2015 C 0.53994 0.10459 0.49007 0.0
C2016 C 0.54082 0.10085 0.5097 0.0
C2017 C 0.53025 0.11184 0.52245 0.0
C2018 C 0.51892 0.1267 0.51562 0.0
C2019 C 0.51781 0.13034 0.49597 0.0
H2020 H 0.531 0.10897 0.53766 0.0
H2021 H 0.50489 0.13469 0.34711 0.0
H2022 H 0.57056 0.75681 0.19545 0.0
H2023 H 0.60566 0.75972 0.19327 0.0
H2024 H 0.60099 0.76744 0.13217 0.0
H2025 H 0.56574 0.76466 0.13425 0.0
H2026 H 0.62344 0.73754 0.14125 0.0
H2027 H 0.6214 0.80326 0.15826 0.0
H2028 H 0.61197 0.83247 0.17573 0.0
H2029 H 0.63731 0.81091 0.22741 0.0
H2030 H 0.64655 0.78139 0.2104 0.0
H2031 H 0.72745 0.75236 0.18961 0.0
H2032 H 0.7024 0.76269 0.16715 0.0
H2033 H 0.66579 0.71434 0.18377 0.0
H2034 H 0.68993 0.70483 0.20708 0.0
H2035 H 0.66922 0.77366 0.18442 0.0
H2036 H 0.63313 0.70416 0.14851 0.0
H2037 H 0.64358 0.67577 0.13038 0.0
H2038 H 0.6959 0.70648 0.1148 0.0
H2039 H 0.68565 0.73521 0.13256 0.0
C2040 C 0.57695 0.75969 0.18163 0.0
C2041 C 0.56537 0.76033 0.16502 0.0
C2042 C 0.59704 0.76145 0.18039 0.0
C2043 C 0.60595 0.7638 0.16254 0.0
C2044 C 0.5944 0.76567 0.14608 0.0
C2045 C 0.57425 0.76415 0.14733 0.0
C2046 C 0.62708 0.76142 0.16106 0.0
C2047 C 0.63356 0.7456 0.15046 0.0
C2048 C 0.64038 0.77238 0.17254 0.0
C2049 C 0.63464 0.79003 0.183 0.0
C2050 C 0.62482 0.80465 0.17339 0.0
C2051 C 0.61952 0.82128 0.18322 0.0
C2052 C 0.62402 0.82354 0.20267 0.0
C2053 C 0.63383 0.80915 0.21234 0.0
C2054 C 0.63913 0.79246 0.2026 0.0
C2055 C 0.71423 0.74377 0.18822 0.0
C2056 C 0.71015 0.72861 0.20099 0.0
C2057 C 0.7001 0.74953 0.17516 0.0
C2058 C 0.68221 0.7395 0.17402 0.0
C2059 C 0.67949 0.72238 0.18444 0.0
C2060 C 0.69334 0.71697 0.19785 0.0
C2061 C 0.66508 0.74886 0.16587 0.0
C2062 C 0.6593 0.76598 0.1747 0.0
C2063 C 0.65246 0.73914 0.15275 0.0
C2064 C 0.65861 0.72188 0.14192 0.0
C2065 C 0.64679 0.70495 0.1411 0.0
C2066 C 0.6527 0.68877 0.1309 0.0
C2067 C 0.67039 0.68932 0.12144 0.0
C2068 C 0.68221 0.70607 0.12215 0.0
C2069 C 0.67637 0.7223 0.1323 0.0
H2070 H 0.67494 0.67677 0.11357 0.0
H2071 H 0.61993 0.83644 0.21024 0.0
H2072 H 0.97932 0.18917 0.61798 0.0
H2073 H 0.97451 0.15396 0.61552 0.0
H2074 H 0.99159 0.15608 0.55632 0.0
H2075 H 0.99643 0.19105 0.55864 0.0
H2076 H 0.96216 0.12894 0.56241 0.0
H2077 H 0.02506 0.14988 0.59131 0.0
H2078 H 0.04479 0.16586 0.61683 0.0
H2079 H 0.01751 0.12938 0.65889 0.0
H2080 H 0.99746 0.1134 0.63357 0.0
H2081 H 0.03846 0.06641 0.53836 0.0
H2082 H 0.02814 0.08932 0.56256 0.0
H2083 H 0.97399 0.05723 0.56785 0.0
H2084 H 0.9843 0.03447 0.54348 0.0
H2085 H 0.01275 0.09446 0.59821 0.0
H2086 H 0.93909 0.09014 0.5637 0.0
H2087 H 0.92164 0.07521 0.53604 0.0
H2088 H 0.97326 0.07963 0.50255 0.0
H2089 H 0.99088 0.0949 0.52992 0.0
C2090 C 0.98157 0.18217 0.60431 0.0
C2091 C 0.98848 0.19283 0.58854 0.0
C2092 C 0.97885 0.16207 0.60296 0.0
C2093 C 0.98286 0.15243 0.5858 0.0
C2094 C 0.98837 0.16324 0.56969 0.0
C2095 C 0.99124 0.18323 0.57106 0.0
C2096 C 0.98374 0.1311 0.5848 0.0
C2097 C 0.97282 0.12123 0.5706 0.0
C2098 C 0.99758 0.12102 0.59556 0.0
C2099 C 0.00965 0.13062 0.61065 0.0
C2100 C 0.0232 0.14538 0.60603 0.0
C2101 C 0.03445 0.15443 0.62044 0.0
C2102 C 0.03237 0.14868 0.63948 0.0
C2103 C 0.01908 0.13385 0.64414 0.0
C2104 C 0.00778 0.1248 0.62978 0.0
C2105 C 0.02483 0.06366 0.54549 0.0
C2106 C 0.01222 0.04862 0.53924 0.0
C2107 C 0.01891 0.07673 0.55935 0.0
C2108 C 0.00019 0.07509 0.56685 0.0
C2109 C 0.98854 0.05867 0.56237 0.0
C2110 C 0.99452 0.04553 0.54856 0.0
C2111 C 0.99177 0.09259 0.57523 0.0
C2112 C 0.00128 0.10179 0.59078 0.0
C2113 C 0.97678 0.10217 0.56555 0.0
C2114 C 0.96629 0.09345 0.54887 0.0
C2115 C 0.94666 0.08799 0.5504 0.0
C2116 C 0.93675 0.07948 0.53478 0.0
C2117 C 0.94636 0.07645 0.51757 0.0
C2118 C 0.96586 0.08199 0.5159 0.0
C2119 C 0.97579 0.0906 0.53143 0.0
H2120 H 0.93868 0.0699 0.50551 0.0
H2121 H 0.04109 0.1557 0.65062 0.0
H2122 H 0.54124 0.21749 0.31982 0.0
H2123 H 0.57395 0.21352 0.30783 0.0
H2124 H 0.59686 0.24938 0.35407 0.0
H2125 H 0.56416 0.25414 0.36548 0.0
H2126 H 0.61328 0.25984 0.32376 0.0
H2127 H 0.60054 0.19755 0.35117 0.0
H2128 H 0.58277 0.1666 0.35642 0.0
H2129 H 0.58998 0.15111 0.29735 0.0
H2130 H 0.60751 0.18211 0.29166 0.0
H2131 H 0.70827 0.24982 0.30266 0.0
H2132 H 0.68049 0.23871 0.32151 0.0
H2133 H 0.65252 0.21633 0.27018 0.0
H2134 H 0.68031 0.22744 0.25139 0.0
H2135 H 0.64018 0.1969 0.30517 0.0
H2136 H 0.64733 0.2615 0.27763 0.0
H2137 H 0.66509 0.29245 0.27217 0.0
H2138 H 0.66854 0.30271 0.33283 0.0
H2139 H 0.65087 0.27174 0.33863 0.0
C2140 C 0.55328 0.22456 0.32738 0.0
C2141 C 0.55012 0.23623 0.34352 0.0
C2142 C 0.57201 0.22209 0.32065 0.0
C2143 C 0.58802 0.23083 0.33023 0.0
C2144 C 0.58482 0.24244 0.3464 0.0
C2145 C 0.56609 0.24522 0.3529 0.0
C2146 C 0.60798 0.22895 0.32281 0.0
C2147 C 0.61919 0.24597 0.32015 0.0
C2148 C 0.61573 0.21093 0.31755 0.0
C2149 C 0.60518 0.19227 0.32094 0.0
C2150 C 0.5982 0.18762 0.33925 0.0
C2151 C 0.58818 0.17005 0.34232 0.0
C2152 C 0.5852 0.15692 0.32722 0.0
C2153 C 0.59226 0.16131 0.30903 0.0
C2154 C 0.60225 0.17888 0.30588 0.0
C2155 C 0.69676 0.24137 0.29565 0.0
C2156 C 0.69643 0.23926 0.27567 0.0
C2157 C 0.68081 0.23518 0.30638 0.0
C2158 C 0.6643 0.22708 0.29716 0.0
C2159 C 0.66509 0.22256 0.27758 0.0
C2160 C 0.68104 0.2288 0.26685 0.0
C2161 C 0.64523 0.22769 0.30658 0.0
C2162 C 0.6342 0.21059 0.30928 0.0
C2163 C 0.63755 0.24559 0.31202 0.0
C2164 C 0.64799 0.26426 0.30856 0.0
C2165 C 0.65198 0.27032 0.28979 0.0
C2166 C 0.662 0.28786 0.28664 0.0
C2167 C 0.66802 0.2995 0.30215 0.0
C2168 C 0.66392 0.29366 0.32084 0.0
C2169 C 0.65387 0.27614 0.32407 0.0
H2170 H 0.6758 0.31306 0.29968 0.0
H2171 H 0.57745 0.14333 0.32962 0.0
H2172 H 0.45999 0.78972 0.09077 0.0
H2173 H 0.46256 0.81964 0.07215 0.0
H2174 H 0.5238 0.82368 0.08398 0.0
H2175 H 0.52147 0.79388 0.10237 0.0
H2176 H 0.5043 0.85643 0.09451 0.0
H2177 H 0.50984 0.81451 0.04008 0.0
H2178 H 0.4999 0.78773 0.01831 0.0
H2179 H 0.4471 0.81595 0.00519 0.0
H2180 H 0.4566 0.84278 0.02711 0.0
H2181 H 0.51146 0.93019 0.00981 0.0
H2182 H 0.51252 0.89673 0.02123 0.0
H2183 H 0.47548 0.91104 0.06817 0.0
H2184 H 0.47491 0.94429 0.0574 0.0
H2185 H 0.48614 0.86835 0.02679 0.0
H2186 H 0.48275 0.88999 0.10468 0.0
H2187 H 0.49386 0.91553 0.12746 0.0
H2188 H 0.54505 0.92567 0.09445 0.0
H2189 H 0.53393 0.90053 0.07107 0.0
C2190 C 0.47406 0.7968 0.08913 0.0
C2191 C 0.49049 0.78947 0.09822 0.0
C2192 C 0.47551 0.81385 0.07842 0.0
C2193 C 0.49337 0.82387 0.07672 0.0
C2194 C 0.50988 0.81617 0.08514 0.0
C2195 C 0.50849 0.7991 0.09566 0.0
C2196 C 0.49462 0.84332 0.06792 0.0
C2197 C 0.50041 0.85899 0.07967 0.0
C2198 C 0.48961 0.84667 0.04856 0.0
C2199 C 0.48386 0.83057 0.03538 0.0
C2200 C 0.49603 0.81492 0.03269 0.0
C2201 C 0.49049 0.79975 0.02029 0.0
C2202 C 0.47286 0.80012 0.01041 0.0
C2203 C 0.46075 0.81568 0.01287 0.0
C2204 C 0.46621 0.83088 0.02527 0.0
C2205 C 0.50348 0.92616 0.02252 0.0
C2206 C 0.49334 0.94004 0.03283 0.0
C2207 C 0.50413 0.90704 0.02905 0.0
C2208 C 0.49454 0.90147 0.04591 0.0
C2209 C 0.48361 0.91509 0.05557 0.0
C2210 C 0.48317 0.93414 0.04925 0.0
C2211 C 0.49567 0.88147 0.05347 0.0
C2212 C 0.49021 0.86573 0.04157 0.0
C2213 C 0.50102 0.87794 0.07273 0.0
C2214 C 0.50742 0.89362 0.08607 0.0
C2215 C 0.49629 0.89782 0.10219 0.0
C2216 C 0.50254 0.91226 0.11513 0.0
C2217 C 0.52006 0.92236 0.11223 0.0
C2218 C 0.53133 0.91806 0.09639 0.0
C2219 C 0.52501 0.90383 0.08323 0.0
H2220 H 0.52497 0.93343 0.12233 0.0
H2221 H 0.4686 0.78836 0.00082 0.0
H2222 H 0.93041 0.72805 0.87571 0.0
H2223 H 0.90527 0.72979 0.8512 0.0
H2224 H 0.94412 0.76274 0.81506 0.0
H2225 H 0.96963 0.76098 0.8397 0.0
H2226 H 0.90743 0.77917 0.8191 0.0
H2227 H 0.9325 0.7192 0.80046 0.0
H2228 H 0.9453 0.68666 0.80478 0.0
H2229 H 0.89131 0.66687 0.82862 0.0
H2230 H 0.87827 0.69936 0.82472 0.0
H2231 H 0.81904 0.76861 0.75954 0.0
H2232 H 0.85376 0.76867 0.76763 0.0
H2233 H 0.84102 0.73616 0.81873 0.0
H2234 H 0.80686 0.73618 0.81111 0.0
H2235 H 0.87051 0.72069 0.79628 0.0
H2236 H 0.84853 0.78269 0.82036 0.0
H2237 H 0.83573 0.8152 0.81593 0.0
H2238 H 0.88476 0.83145 0.78181 0.0
H2239 H 0.89746 0.79874 0.7853 0.0
C2240 C 0.93374 0.73548 0.86247 0.0
C2241 C 0.95202 0.74437 0.85965 0.0
C2242 C 0.91936 0.73642 0.84844 0.0
C2243 C 0.92287 0.7463 0.83126 0.0
C2244 C 0.94117 0.755 0.8282 0.0
C2245 C 0.95572 0.75387 0.84223 0.0
C2246 C 0.90686 0.74805 0.81719 0.0
C2247 C 0.89962 0.76643 0.8136 0.0
C2248 C 0.89673 0.73143 0.81003 0.0
C2249 C 0.90442 0.71177 0.81232 0.0
C2250 C 0.92339 0.70794 0.80672 0.0
C2251 C 0.93068 0.6895 0.80909 0.0
C2252 C 0.91913 0.67471 0.81698 0.0
C2253 C 0.90024 0.67834 0.82249 0.0
C2254 C 0.89288 0.69676 0.82017 0.0
C2255 C 0.82368 0.76155 0.77253 0.0
C2256 C 0.8101 0.75233 0.78462 0.0
C2257 C 0.84348 0.76157 0.77708 0.0
C2258 C 0.8499 0.75224 0.79367 0.0
C2259 C 0.83637 0.74324 0.80574 0.0
C2260 C 0.81677 0.74337 0.80136 0.0
C2261 C 0.87058 0.75168 0.79913 0.0
C2262 C 0.87869 0.73348 0.80112 0.0
C2263 C 0.88145 0.76846 0.80478 0.0
C2264 C 0.87377 0.78813 0.80279 0.0
C2265 C 0.85643 0.79307 0.81165 0.0
C2266 C 0.84919 0.81155 0.80932 0.0
C2267 C 0.85936 0.82535 0.79852 0.0
C2268 C 0.87682 0.82071 0.79006 0.0
C2269 C 0.884 0.80217 0.79213 0.0
H2270 H 0.85375 0.83966 0.7968 0.0
H2271 H 0.9248 0.66044 0.8188 0.0
H2272 H 0.94818 0.99614 0.78851 0.0
H2273 H 0.9598 0.0029 0.82093 0.0
H2274 H 0.91831 0.04769 0.82667 0.0
H2275 H 0.90618 0.04067 0.79419 0.0
H2276 H 0.97564 0.0327 0.83998 0.0
H2277 H 0.90104 0.04692 0.87221 0.0
H2278 H 0.86655 0.03899 0.86576 0.0
H2279 H 0.88176 0.98694 0.83659 0.0
H2280 H 0.91629 0.99443 0.84309 0.0
H2281 H 0.952 0.05437 0.94724 0.0
H2282 H 0.94465 0.05468 0.9131 0.0
H2283 H 0.98376 0.00833 0.90398 0.0
H2284 H 0.99143 0.008 0.9383 0.0
H2285 H 0.92787 0.02629 0.8922 0.0
H2286 H 0.00202 0.01226 0.85844 0.0
H2287 H 0.03664 0.0189 0.86531 0.0
H2288 H 0.02268 0.06902 0.89827 0.0
H2289 H 0.98802 0.06284 0.89138 0.0
C2290 C 0.94158 0.00757 0.79655 0.0
C2291 C 0.92606 0.01771 0.78881 0.0
C2292 C 0.94834 0.01147 0.8151 0.0
C2293 C 0.93976 0.02558 0.82635 0.0
C2294 C 0.92494 0.03649 0.81834 0.0
C2295 C 0.91808 0.03253 0.79975 0.0
C2296 C 0.94559 0.02789 0.84679 0.0
C2297 C 0.96522 0.0312 0.85142 0.0
C2298 C 0.93197 0.02616 0.86171 0.0
C2299 C 0.91124 0.02137 0.85793 0.0
C2300 C 0.897 0.03376 0.86447 0.0
C2301 C 0.87745 0.02934 0.8608 0.0
C2302 C 0.87197 0.01251 0.85071 0.0
C2303 C 0.88603 1e-05 0.84434 0.0
C2304 C 0.90559 0.00434 0.84799 0.0
C2305 C 0.95921 0.0443 0.93802 0.0
C2306 C 0.97228 0.03109 0.94558 0.0
C2307 C 0.95495 0.04451 0.91847 0.0
C2308 C 0.96367 0.03159 0.90597 0.0
C2309 C 0.97704 0.01862 0.91334 0.0
C2310 C 0.98137 0.01841 0.93297 0.0
C2311 C 0.95793 0.0311 0.88543 0.0
C2312 C 0.93829 0.02803 0.88079 0.0
C2313 C 0.97157 0.03291 0.87055 0.0
C2314 C 0.99241 0.03696 0.87453 0.0
C2315 C 0.00635 0.02474 0.86708 0.0
C2316 C 0.02598 0.02842 0.87099 0.0
C2317 C 0.03185 0.04434 0.88227 0.0
C2318 C 0.01811 0.05666 0.8896 0.0
C2319 C -0.00154 0.05306 0.88571 0.0
H2320 H 0.04705 0.04715 0.8853 0.0
H2321 H 0.85684 0.00913 0.84787 0.0
H2322 H 0.76384 0.12878 0.56258 0.0
H2323 H 0.76204 0.12871 0.59769 0.0
H2324 H 0.76562 0.19108 0.59819 0.0
H2325 H 0.76714 0.19122 0.56332 0.0
H2326 H 0.78464 0.17474 0.62971 0.0
H2327 H 0.72256 0.16927 0.59417 0.0
H2328 H 0.69993 0.15226 0.57178 0.0
H2329 H 0.70113 0.10141 0.60671 0.0
H2330 H 0.72399 0.11809 0.62916 0.0
H2331 H 0.70675 0.22006 0.67782 0.0
H2332 H 0.71357 0.19426 0.65539 0.0
H2333 H 0.75477 0.17161 0.69531 0.0
H2334 H 0.74794 0.19738 0.71799 0.0
H2335 H 0.71758 0.15643 0.64861 0.0
H2336 H 0.79466 0.16364 0.67212 0.0
H2337 H 0.81522 0.18281 0.6948 0.0
H2338 H 0.78227 0.23304 0.68326 0.0
H2339 H 0.76182 0.21424 0.66023 0.0
C2340 C 0.7649 0.14243 0.57026 0.0
C2341 C 0.76543 0.16003 0.56028 0.0
C2342 C 0.76382 0.14236 0.59029 0.0
C2343 C 0.76353 0.15989 0.60049 0.0
C2344 C 0.76587 0.17739 0.59059 0.0
C2345 C 0.76664 0.17747 0.57066 0.0
C2346 C 0.75782 0.16059 0.62086 0.0
C2347 C 0.77018 0.17024 0.63404 0.0
C2348 C 0.73896 0.15472 0.62653 0.0
C2349 C 0.72512 0.14481 0.61317 0.0
C2350 C 0.71808 0.15442 0.59698 0.0
C2351 C 0.70522 0.14485 0.5843 0.0
C2352 C 0.69915 0.12574 0.58779 0.0
C2353 C 0.70589 0.11619 0.604 0.0
C2354 C 0.7188 0.12569 0.6167 0.0
C2355 C 0.7166 0.20904 0.68223 0.0
C2356 C 0.7273 0.2111 0.69938 0.0
C2357 C 0.72045 0.1942 0.66939 0.0
C2358 C 0.73508 0.18124 0.6735 0.0
C2359 C 0.74351 0.18146 0.69188 0.0
C2360 C 0.7396 0.19629 0.70482 0.0
C2361 C 0.74418 0.17115 0.65727 0.0
C2362 C 0.73243 0.1599 0.64474 0.0
C2363 C 0.76356 0.1757 0.65211 0.0
C2364 C 0.77669 0.18753 0.66463 0.0
C2365 C 0.79196 0.17883 0.67431 0.0
C2366 C 0.80352 0.1896 0.68727 0.0
C2367 C 0.79988 0.20906 0.69067 0.0
C2368 C 0.78496 0.21793 0.68077 0.0
C2369 C 0.77347 0.20727 0.66766 0.0
H2370 H 0.80876 0.21729 0.70083 0.0
H2371 H 0.68918 0.11835 0.57796 0.0
H2372 H 0.59347 0.96053 0.29871 0.0
H2373 H 0.58294 0.95691 0.33174 0.0
H2374 H 0.52677 0.97742 0.31613 0.0
H2375 H 0.53735 0.98155 0.28311 0.0
H2376 H 0.5415 0.99748 0.34534 0.0
H2377 H 0.53346 0.92986 0.33049 0.0
H2378 H 0.54355 0.89848 0.31779 0.0
H2379 H 0.59046 0.89826 0.35847 0.0
H2380 H 0.58078 0.92976 0.37129 0.0
H2381 H 0.50565 0.98853 0.43911 0.0
H2382 H 0.50943 0.98257 0.40489 0.0
H2383 H 0.56736 0.96365 0.41512 0.0
H2384 H 0.56363 0.96918 0.44941 0.0
H2385 H 0.54905 0.94129 0.38827 0.0
H2386 H 0.55956 0.00922 0.40109 0.0
H2387 H 0.55089 0.04098 0.41405 0.0
H2388 H 0.50106 0.04117 0.37695 0.0
H2389 H 0.50924 0.00922 0.36402 0.0
C2390 C 0.57871 0.96382 0.30217 0.0
C2391 C 0.5663 0.9715 0.2883 0.0
C2392 C 0.57269 0.9617 0.3211 0.0
C2393 C 0.55405 0.96689 0.32643 0.0
C2394 C 0.54125 0.97341 0.31235 0.0
C2395 C 0.5473 0.97568 0.29346 0.0
C2396 C 0.54863 0.96742 0.34693 0.0
C2397 C 0.54273 0.98505 0.35462 0.0
C2398 C 0.55084 0.95139 0.35918 0.0
C2399 C 0.55645 0.93224 0.35177 0.0
C2400 C 0.54598 0.92317 0.33667 0.0
C2401 C 0.55162 0.90535 0.32946 0.0
C2402 C 0.56766 0.8964 0.33729 0.0
C2403 C 0.57804 0.90521 0.35242 0.0
C2404 C 0.57245 0.92303 0.35969 0.0
C2405 C 0.51915 0.98298 0.43414 0.0
C2406 C 0.5344 0.97954 0.44702 0.0
C2407 C 0.52129 0.97957 0.41456 0.0
C2408 C 0.53877 0.97289 0.40745 0.0
C2409 C 0.55375 0.96879 0.42031 0.0
C2410 C 0.5516 0.97208 0.43991 0.0
C2411 C 0.5419 0.9713 0.38656 0.0
C2412 C 0.5475 0.95357 0.37886 0.0
C2413 C 0.5396 0.98729 0.37429 0.0
C2414 C 0.5349 0.00672 0.38173 0.0
C2415 C 0.54669 0.01598 0.39578 0.0
C2416 C 0.54186 0.03401 0.40312 0.0
C2417 C 0.52541 0.04306 0.39637 0.0
C2418 C 0.51378 0.03412 0.3822 0.0
C2419 C 0.51851 0.01605 0.37485 0.0
H2420 H 0.52168 0.05701 0.4021 0.0
H2421 H 0.57203 0.88263 0.33166 0.0
H2422 H 0.75534 0.80102 0.06082 0.0
H2423 H 0.74815 0.79354 0.09399 0.0
H2424 H 0.71081 0.84219 0.09689 0.0
H2425 H 0.71845 0.85013 0.06366 0.0
H2426 H 0.73373 0.84436 0.12539 0.0
H2427 H 0.69256 0.79397 0.10303 0.0
H2428 H 0.68048 0.76608 0.08375 0.0
H2429 H 0.72628 0.73184 0.10558 0.0
H2430 H 0.73878 0.75955 0.12485 0.0
H2431 H 0.73757 0.77508 0.21605 0.0
H2432 H 0.71886 0.78993 0.19015 0.0
H2433 H 0.77147 0.81544 0.16761 0.0
H2434 H 0.78999 0.80042 0.19271 0.0
H2435 H 0.72733 0.77845 0.15238 0.0
H2436 H 0.76685 0.85132 0.14954 0.0
H2437 H 0.77362 0.88064 0.16915 0.0
H2438 H 0.7198 0.87154 0.19829 0.0
H2439 H 0.71311 0.84175 0.17935 0.0
C2440 C 0.74527 0.80993 0.06834 0.0
C2441 C 0.73763 0.82629 0.05959 0.0
C2442 C 0.74101 0.80552 0.08735 0.0
C2443 C 0.72876 0.81718 0.09802 0.0
C2444 C 0.72029 0.83295 0.089 0.0
C2445 C 0.72466 0.83746 0.06997 0.0
C2446 C 0.72707 0.81426 0.11906 0.0
C2447 C 0.73167 0.82998 0.1313 0.0
C2448 C 0.72388 0.79568 0.12708 0.0
C2449 C 0.71667 0.77893 0.11533 0.0
C2450 C 0.70016 0.78055 0.10361 0.0
C2451 C 0.69322 0.76475 0.09271 0.0
C2452 C 0.70265 0.74722 0.09339 0.0
C2453 C 0.71901 0.74544 0.10504 0.0
C2454 C 0.72599 0.76118 0.11601 0.0
C2455 C 0.74505 0.78398 0.20566 0.0
C2456 C 0.76532 0.78574 0.20587 0.0
C2457 C 0.73435 0.79264 0.191 0.0
C2458 C 0.74379 0.80368 0.17684 0.0
C2459 C 0.76379 0.80713 0.1784 0.0
C2460 C 0.77442 0.79828 0.19272 0.0
C2461 C 0.7341 0.80838 0.15849 0.0
C2462 C 0.72789 0.79294 0.14662 0.0
C2463 C 0.73494 0.82726 0.15094 0.0
C2464 C 0.73957 0.84432 0.16316 0.0
C2465 C 0.75658 0.8555 0.16028 0.0
C2466 C 0.76043 0.87214 0.17132 0.0
C2467 C 0.74717 0.87791 0.185 0.0
C2468 C 0.73009 0.86699 0.18774 0.0
C2469 C 0.72639 0.8501 0.17705 0.0
H2470 H 0.75011 0.89084 0.19347 0.0
H2471 H 0.69723 0.735 0.08496 0.0
H2472 H 0.94919 0.00813 0.68852 0.0
H2473 H 0.95848 0.01408 0.65545 0.0
H2474 H 0.90073 0.03179 0.64217 0.0
H2475 H 0.89136 0.02609 0.67559 0.0
H2476 H 0.91297 0.00251 0.61878 0.0
H2477 H 0.93627 0.06429 0.63793 0.0
H2478 H 0.95335 0.08946 0.65733 0.0
H2479 H 0.00758 0.06373 0.64561 0.0
H2480 H 0.99085 0.03816 0.62645 0.0
H2481 H 0.94902 0.99662 0.52495 0.0
H2482 H 0.9348 0.01309 0.55241 0.0
H2483 H 0.98671 0.00384 0.58546 0.0
H2484 H 0.00119 0.98857 0.55761 0.0
H2485 H 0.97211 0.03705 0.5958 0.0
H2486 H 0.94691 0.97122 0.58524 0.0
H2487 H 0.93026 0.94529 0.56638 0.0
H2488 H 0.87959 0.97926 0.56227 0.0
H2489 H 0.89605 0.00548 0.58096 0.0
C2490 C 0.93854 0.01364 0.67867 0.0
C2491 C 0.9195 0.0165 0.6846 0.0
C2492 C 0.94392 0.0172 0.65979 0.0
C2493 C 0.93034 0.02351 0.64636 0.0
C2494 C 0.91147 0.02706 0.65236 0.0
C2495 C 0.90614 0.02381 0.67142 0.0
C2496 C 0.93544 0.02372 0.62577 0.0
C2497 C 0.92552 0.01059 0.61353 0.0
C2498 C 0.95202 0.03399 0.61904 0.0
C2499 C 0.96223 0.04916 0.63084 0.0
C2500 C 0.95182 0.06384 0.63965 0.0
C2501 C 0.96145 0.07821 0.65059 0.0
C2502 C 0.98152 0.07814 0.65277 0.0
C2503 C 0.99202 0.06374 0.64395 0.0
C2504 C 0.98246 0.0493 0.63303 0.0
C2505 C 0.95762 -0.00095 0.53779 0.0
C2506 C 0.97629 0.99192 0.53914 0.0
C2507 C 0.94943 0.00811 0.55358 0.0
C2508 C 0.95958 0.00948 0.57113 0.0
C2509 C 0.9786 0.00305 0.57211 0.0
C2510 C 0.98686 0.9943 0.55625 0.0
C2511 C 0.94993 0.0155 0.58902 0.0
C2512 C 0.95909 0.02964 0.60077 0.0
C2513 C 0.93268 0.00614 0.59538 0.0
C2514 C 0.92276 0.99037 0.58427 0.0
C2515 C 0.93225 0.97318 0.58021 0.0
C2516 C 0.92285 0.95844 0.56957 0.0
C2517 C 0.9039 0.96065 0.56308 0.0
C2518 C 0.89428 0.97759 0.56727 0.0
C2519 C 0.90363 0.99239 0.57789 0.0
H2520 H 0.89664 0.94922 0.55484 0.0
H2521 H 0.98895 0.08928 0.66125 0.0
H2522 H 0.76153 0.21349 0.46173 0.0
H2523 H 0.76655 0.22527 0.42928 0.0
H2524 H 0.79197 0.17143 0.4137 0.0
H2525 H 0.78702 0.15942 0.44625 0.0
H2526 H 0.80933 0.20527 0.39564 0.0
H2527 H 0.74652 0.17433 0.40621 0.0
H2528 H 0.71566 0.16967 0.42317 0.0
H2529 H 0.70136 0.22832 0.41117 0.0
H2530 H 0.73231 0.23342 0.39439 0.0
H2531 H 0.78843 0.1945 0.29729 0.0
H2532 H 0.79273 0.19218 0.33174 0.0
H2533 H 0.75743 0.24175 0.33983 0.0
H2534 H 0.75254 0.2439 0.30516 0.0
H2535 H 0.74633 0.21389 0.36271 0.0
H2536 H 0.80718 0.24387 0.34837 0.0
H2537 H 0.83793 0.24873 0.3313 0.0
H2538 H 0.85623 0.19319 0.35006 0.0
H2539 H 0.82546 0.18784 0.367 0.0
C2540 C 0.7686 0.20426 0.45157 0.0
C2541 C 0.77354 0.18534 0.45651 0.0
C2542 C 0.77147 0.21106 0.43302 0.0
C2543 C 0.77932 0.19909 0.41905 0.0
C2544 C 0.78583 0.18085 0.4243 0.0
C2545 C 0.78293 0.17399 0.44291 0.0
C2546 C 0.77843 0.20462 0.39863 0.0
C2547 C 0.7956 0.20706 0.38834 0.0
C2548 C 0.76049 0.20743 0.38933 0.0
C2549 C 0.74181 0.20432 0.39925 0.0
C2550 C 0.73687 0.18628 0.40733 0.0
C2551 C 0.71935 0.18355 0.41689 0.0
C2552 C 0.70659 0.19871 0.41829 0.0
C2553 C 0.71128 0.21661 0.4101 0.0
C2554 C 0.7288 0.21943 0.40056 0.0
C2555 C 0.78168 0.20508 0.3063 0.0
C2556 C 0.77007 0.21939 0.29838 0.0
C2557 C 0.78432 0.2038 0.32607 0.0
C2558 C 0.77567 0.21696 0.3384 0.0
C2559 C 0.76433 0.23149 0.33057 0.0
C2560 C 0.76157 0.23272 0.31074 0.0
C2561 C 0.77727 0.21448 0.35946 0.0
C2562 C 0.76016 0.21247 0.36994 0.0
C2563 C 0.79529 0.21218 0.36889 0.0
C2564 C 0.81392 0.2154 0.35886 0.0
C2565 C 0.8177 0.23263 0.34876 0.0
C2566 C 0.83514 0.23548 0.33911 0.0
C2567 C 0.84901 0.22126 0.33957 0.0
C2568 C 0.84548 0.20418 0.34971 0.0
C2569 C 0.82804 0.20125 0.35936 0.0
H2570 H 0.8625 0.22349 0.33208 0.0
H2571 H 0.69303 0.19656 0.42569 0.0
H2572 H 0.62134 0.97664 0.18255 0.0
H2573 H 0.6235 0.97756 0.14751 0.0
H2574 H 0.56168 0.9826 0.14339 0.0
H2575 H 0.55946 0.98214 0.17829 0.0
H2576 H 0.57832 0.95792 0.11459 0.0
H2577 H 0.58717 0.02225 0.14546 0.0
H2578 H 0.60494 0.04502 0.16712 0.0
H2579 H 0.6571 0.03655 0.13584 0.0
H2580 H 0.63964 0.01352 0.11415 0.0
H2581 H 0.53917 0.03255 0.0609 0.0
H2582 H 0.56479 0.02678 0.08391 0.0
H2583 H 0.58798 0.98391 0.04621 0.0
H2584 H 0.56221 0.98988 0.02293 0.0
H2585 H 0.60317 0.02173 0.09169 0.0
H2586 H 0.59119 0.94335 0.07438 0.0
H2587 H 0.57127 0.92146 0.05361 0.0
H2588 H 0.52349 0.95909 0.05851 0.0
H2589 H 0.5429 0.98084 0.0798 0.0
C2590 C 0.60816 0.97743 0.17413 0.0
C2591 C 0.59022 0.97944 0.1831 0.0
C2592 C 0.60945 0.978 0.15416 0.0
C2593 C 0.59277 0.98021 0.14295 0.0
C2594 C 0.57471 0.9808 0.15184 0.0
C2595 C 0.57346 0.98062 0.17176 0.0
C2596 C 0.59393 0.98429 0.12223 0.0
C2597 C 0.58428 0.9716 0.10942 0.0
C2598 C 0.60181 0.00207 0.11548 0.0
C2599 C 0.6122 0.01602 0.12838 0.0
C2600 C 0.60246 0.02515 0.14331 0.0
C2601 C 0.61246 0.03811 0.15557 0.0
C2602 C 0.63215 0.04218 0.1529 0.0
C2603 C 0.64186 0.03334 0.13792 0.0
C2604 C 0.63193 0.02034 0.12565 0.0
C2605 C 0.5502 0.02251 0.05708 0.0
C2606 C 0.54815 0.01091 0.04056 0.0
C2607 C 0.56498 0.01929 0.07024 0.0
C2608 C 0.57787 0.00439 0.0671 0.0
C2609 C 0.57792 0.9952 0.0491 0.0
C2610 C 0.56312 -0.00144 0.03581 0.0
C2611 C 0.58696 0.99563 0.08415 0.0
C2612 C 0.59836 0.00749 0.09645 0.0
C2613 C 0.58063 0.97708 0.09049 0.0
C2614 C 0.56857 0.96381 0.07835 0.0
C2615 C 0.57641 0.94688 0.07104 0.0
C2616 C 0.56523 0.93452 0.05919 0.0
C2617 C 0.54626 0.93906 0.05443 0.0
C2618 C 0.53825 0.95571 0.06195 0.0
C2619 C 0.54929 0.96799 0.07403 0.0
H2620 H 0.53776 0.92952 0.04513 0.0
H2621 H 0.63988 0.05222 0.1624 0.0
H2622 H 0.73157 0.86781 0.94892 0.0
H2623 H 0.72729 0.86434 0.91413 0.0
H2624 H 0.74458 0.80511 0.91756 0.0
H2625 H 0.74926 0.80858 0.95202 0.0
H2626 H 0.76359 0.82274 0.8902 0.0
H2627 H 0.6968 0.81793 0.91012 0.0
H2628 H 0.66748 0.8294 0.92576 0.0
H2629 H 0.66804 0.87926 0.88941 0.0
H2630 H 0.69751 0.86818 0.8737 0.0
H2631 H 0.707 0.7762 0.81256 0.0
H2632 H 0.70498 0.79733 0.84037 0.0
H2633 H 0.7534 0.8319 0.81988 0.0
H2634 H 0.75567 0.8104 0.79199 0.0
H2635 H 0.703 0.83359 0.85386 0.0
H2636 H 0.7854 0.83662 0.85761 0.0
H2637 H 0.81325 0.82147 0.84253 0.0
H2638 H 0.77926 0.76917 0.8331 0.0
H2639 H 0.75136 0.78389 0.84857 0.0
C2640 C 0.73419 0.85398 0.94227 0.0
C2641 C 0.74083 0.83849 0.95325 0.0
C2642 C 0.73176 0.85202 0.92237 0.0
C2643 C 0.73572 0.83448 0.91317 0.0
C2644 C 0.74166 0.81886 0.92426 0.0
C2645 C 0.74422 0.82083 0.94402 0.0
C2646 C 0.73432 0.83225 0.89198 0.0
C2647 C 0.75039 0.82536 0.88225 0.0
C2648 C 0.71717 0.83571 0.88149 0.0
C2649 C 0.69948 0.84236 0.89091 0.0
C2650 C 0.69075 0.83142 0.90558 0.0
C2651 C 0.6741 0.83783 0.91443 0.0
C2652 C 0.66594 0.85509 0.90863 0.0
C2653 C 0.6744 0.86593 0.89392 0.0
C2654 C 0.69107 0.85958 0.88503 0.0
C2655 C 0.7167 0.78879 0.81355 0.0
C2656 C 0.73174 0.79144 0.80036 0.0
C2657 C 0.7155 0.80093 0.82946 0.0
C2658 C 0.72938 0.81588 0.83251 0.0
C2659 C 0.74272 0.82024 0.81795 0.0
C2660 C 0.74393 0.80803 0.80193 0.0
C2661 C 0.73212 0.82371 0.85226 0.0
C2662 C 0.71637 0.8316 0.86173 0.0
C2663 C 0.74942 0.82072 0.8627 0.0
C2664 C 0.76626 0.81146 0.85399 0.0
C2665 C 0.78392 0.82186 0.85239 0.0
C2666 C 0.79971 0.81335 0.84378 0.0
C2667 C 0.798 0.7944 0.83674 0.0
C2668 C 0.78055 0.78386 0.8385 0.0
C2669 C 0.76477 0.79227 0.84723 0.0
H2670 H 0.81021 0.78787 0.82998 0.0
H2671 H 0.65304 0.86003 0.9155 0.0
H2672 H 0.7945 0.91109 0.01912 0.0
H2673 H 0.82473 0.93051 0.01998 0.0
H2674 H 0.85682 0.87953 0.00789 0.0
H2675 H 0.82689 0.86003 0.00751 0.0
H2676 H 0.87568 0.90023 0.0337 0.0
H2677 H 0.8475 0.9131 0.97274 0.0
H2678 H 0.82205 0.92225 0.94988 0.0
H2679 H 0.82012 0.97841 0.97614 0.0
H2680 H 0.84539 0.9695 -0.00067 0.0
H2681 H 0.95947 0.96084 0.00245 0.0
H2682 H 0.93307 0.93621 0.00365 0.0
H2683 H 0.89633 0.97775 0.02977 0.0
H2684 H 0.92248 0.00198 0.02921 0.0
H2685 H 0.88178 0.9596 0.99449 0.0
H2686 H 0.91119 0.94518 0.05573 0.0
H2687 H 0.9378 0.93513 0.07673 0.0
H2688 H 0.93866 0.88035 0.04761 0.0
H2689 H 0.91216 0.89016 0.02631 0.0
C2690 C 0.80799 0.90402 0.0167 0.0
C2691 C 0.8082 0.88401 0.01317 0.0
C2692 C 0.82528 0.91514 0.01711 0.0
C2693 C 0.84308 0.90653 0.01373 0.0
C2694 C 0.84332 0.88652 0.01054 0.0
C2695 C 0.82611 0.8754 0.01027 0.0
C2696 C 0.86143 0.91838 0.0133 0.0
C2697 C 0.87709 0.91307 0.02492 0.0
C2698 C 0.86338 0.93512 0.00182 0.0
C2699 C 0.84821 0.94056 0.98788 0.0
C2700 C 0.84155 0.92735 0.97373 0.0
C2701 C 0.82717 0.9325 0.9607 0.0
C2702 C 0.81944 0.95088 0.96159 0.0
C2703 C 0.82611 0.96417 0.97548 0.0
C2704 C 0.84047 0.95908 0.98856 0.0
C2705 C 0.94595 0.96453 0.00888 0.0
C2706 C 0.94313 0.98345 0.01555 0.0
C2707 C 0.93084 0.9505 0.00944 0.0
C2708 C 0.91269 0.9553 0.01656 0.0
C2709 C 0.91017 0.97384 0.02404 0.0
C2710 C 0.92521 0.98767 0.02371 0.0
C2711 C 0.89572 0.94172 0.01522 0.0
C2712 C 0.88037 0.94667 0.00315 0.0
C2713 C 0.89422 0.92456 0.02606 0.0
C2714 C 0.91 0.9186 0.03907 0.0
C2715 C 0.91723 0.9311 0.0536 0.0
C2716 C 0.93224 0.92541 0.06563 0.0
C2717 C 0.94002 0.90717 0.06342 0.0
C2718 C 0.93271 0.89452 0.04924 0.0
C2719 C 0.9177 0.90015 0.03718 0.0
H2720 H 0.95164 0.90278 0.07275 0.0
H2721 H 0.80831 0.95484 0.95148 0.0
H2722 H 0.31623 0.61875 0.97379 0.0
H2723 H 0.34554 0.60072 0.96911 0.0
H2724 H 0.32962 0.56304 0.01577 0.0
H2725 H 0.30045 0.58132 0.02084 0.0
H2726 H 0.36603 0.57401 0.01932 0.0
H2727 H 0.32712 0.54762 0.96818 0.0
H2728 H 0.30586 0.54812 0.93966 0.0
H2729 H 0.35058 0.57778 0.90807 0.0
H2730 H 0.37203 0.57769 0.93648 0.0
H2731 H 0.44461 0.51289 0.00178 0.0
H2732 H 0.41095 0.52254 0.00343 0.0
H2733 H 0.42258 0.56728 0.96198 0.0
H2734 H 0.45613 0.55772 0.96016 0.0
H2735 H 0.38691 0.54939 0.95624 0.0
H2736 H 0.42553 0.57591 0.00882 0.0
H2737 H 0.44633 0.57409 0.03758 0.0
H2738 H 0.40086 0.54353 0.06724 0.0
H2739 H 0.38014 0.54433 0.03846 0.0
C2740 C 0.31884 0.60651 0.98294 0.0
C2741 C 0.30596 0.6015 -0.0023 0.0
C2742 C 0.3356 0.59614 0.98019 0.0
C2743 C 0.33974 0.58035 0.99195 0.0
C2744 C 0.32676 0.57514 0.0065 0.0
C2745 C 0.31004 0.58558 0.00934 0.0
C2746 C 0.35807 0.56992 0.98963 0.0
C2747 C 0.37041 0.56829 0.00559 0.0
C2748 C 0.36398 0.56272 0.97166 0.0
C2749 C 0.35113 0.56278 0.95452 0.0
C2750 C 0.33238 0.55438 0.95519 0.0
C2751 C 0.3203 0.55456 0.93904 0.0
C2752 C 0.32685 0.56301 0.92207 0.0
C2753 C 0.34551 0.57125 0.92122 0.0
C2754 C 0.35765 0.57112 0.93734 0.0
C2755 C 0.43991 0.5245 0.99269 0.0
C2756 C 0.45312 0.53464 0.98094 0.0
C2757 C 0.42068 0.53007 0.99374 0.0
C2758 C 0.41434 0.54583 0.98304 0.0
C2759 C 0.42718 0.55514 0.97041 0.0
C2760 C 0.44639 0.54968 0.96944 0.0
C2761 C 0.39484 0.55361 0.98588 0.0
C2762 C 0.38235 0.55486 0.97 0.0
C2763 C 0.38875 0.56035 0.00397 0.0
C2764 C 0.40136 0.55988 0.02131 0.0
C2765 C 0.42007 0.5685 0.02137 0.0
C2766 C 0.43188 0.56762 0.03769 0.0
C2767 C 0.42502 0.5585 0.05419 0.0
C2768 C 0.4063 0.55034 0.05442 0.0
C2769 C 0.39453 0.55095 0.03807 0.0
H2770 H 0.43417 0.55781 0.0668 0.0
H2771 H 0.31747 0.56314 0.90958 0.0
H2772 H 0.09349 0.56216 0.74148 0.0
H2773 H 0.1118 0.59277 0.73933 0.0
H2774 H 0.16376 0.5644 0.75629 0.0
H2775 H 0.14551 0.53358 0.75856 0.0
H2776 H 0.15986 0.60006 0.77436 0.0
H2777 H 0.15607 0.57329 0.71041 0.0
H2778 H 0.13935 0.55968 0.68178 0.0
H2779 H 0.10794 0.6118 0.67553 0.0
H2780 H 0.12429 0.62562 0.7043 0.0
H2781 H 0.23484 0.65908 0.73835 0.0
H2782 H 0.21135 0.63233 0.74131 0.0
H2783 H 0.16477 0.67137 0.73308 0.0
H2784 H 0.18829 0.69857 0.73034 0.0
H2785 H 0.16305 0.63296 0.71138 0.0
H2786 H 0.16884 0.66085 0.77397 0.0
H2787 H 0.18735 0.67501 0.80121 0.0
H2788 H 0.21529 0.62118 0.80976 0.0
H2789 H 0.1973 0.60684 0.78218 0.0
C2790 C 0.10879 0.56238 0.74487 0.0
C2791 C 0.11807 0.54536 0.75008 0.0
C2792 C 0.11923 0.57991 0.7436 0.0
C2793 C 0.13914 0.58079 0.74747 0.0
C2794 C 0.14838 0.56399 0.75323 0.0
C2795 C 0.13795 0.54639 0.75445 0.0
C2796 C 0.15045 0.5991 0.74484 0.0
C2797 C 0.16063 0.60719 0.76058 0.0
C2798 C 0.15104 0.60865 0.72696 0.0
C2799 C 0.14124 0.60039 0.70963 0.0
C2800 C 0.14547 0.58178 0.70303 0.0
C2801 C 0.13609 0.57404 0.68676 0.0
C2802 C 0.12255 0.58485 0.67688 0.0
C2803 C 0.1184 0.60344 0.68322 0.0
C2804 C 0.12773 0.61123 0.6995 0.0
C2805 C 0.21963 0.66205 0.73694 0.0
C2806 C 0.21343 0.681 0.73418 0.0
C2807 C 0.20624 0.64672 0.73869 0.0
C2808 C 0.18641 0.64997 0.73752 0.0
C2809 C 0.18007 0.66868 0.73402 0.0
C2810 C 0.1935 0.68415 0.73253 0.0
C2811 C 0.17254 0.63372 0.74081 0.0
C2812 C 0.16197 0.62598 0.72522 0.0
C2813 C 0.17154 0.62452 0.75882 0.0
C2814 C 0.18186 0.63282 0.77587 0.0
C2815 C 0.17904 0.65206 0.78155 0.0
C2816 C 0.18944 0.66013 0.79705 0.0
C2817 C 0.20254 0.64901 0.80718 0.0
C2818 C 0.20516 0.62978 0.80188 0.0
C2819 C 0.19487 0.62167 0.7863 0.0
H2820 H 0.21063 0.65529 0.81914 0.0
H2821 H 0.1153 0.57884 0.66428 0.0
H2822 H 0.18878 0.39382 0.49098 0.0
H2823 H 0.15667 0.40702 0.48851 0.0
H2824 H 0.16608 0.43743 0.54209 0.0
H2825 H 0.19806 0.42351 0.54506 0.0
H2826 H 0.13108 0.42217 0.54134 0.0
H2827 H 0.16809 0.46062 0.49681 0.0
H2828 H 0.1899 0.46639 0.46958 0.0
H2829 H 0.1496 0.43626 0.43197 0.0
H2830 H 0.12765 0.4301 0.45902 0.0
H2831 H 0.0599 0.49565 0.51006 0.0
H2832 H 0.0878 0.47882 0.52305 0.0
H2833 H 0.07156 0.42849 0.48922 0.0
H2834 H 0.04335 0.44503 0.47683 0.0
H2835 H 0.10943 0.45425 0.48196 0.0
H2836 H 0.07112 0.41824 0.52682 0.0
H2837 H 0.05025 0.41156 0.55442 0.0
H2838 H 0.09364 0.43638 0.59232 0.0
H2839 H 0.11425 0.44451 0.56481 0.0
C2840 C 0.18413 0.40347 0.50216 0.0
C2841 C 0.19607 0.40774 0.51815 0.0
C2842 C 0.16573 0.41106 0.50072 0.0
C2843 C 0.15898 0.42352 0.51495 0.0
C2844 C 0.17092 0.42789 0.5309 0.0
C2845 C 0.18925 0.42002 0.53252 0.0
C2846 C 0.13941 0.43175 0.51323 0.0
C2847 C 0.12643 0.42952 0.5285 0.0
C2848 C 0.13318 0.44094 0.4963 0.0
C2849 C 0.1463 0.44478 0.47998 0.0
C2850 C 0.16393 0.45513 0.48276 0.0
C2851 C 0.17631 0.45848 0.46735 0.0
C2852 C 0.17116 0.45166 0.44907 0.0
C2853 C 0.15358 0.44152 0.44614 0.0
C2854 C 0.14115 0.43812 0.4615 0.0
C2855 C 0.06161 0.48056 0.50643 0.0
C2856 C 0.04913 0.47135 0.49303 0.0
C2857 C 0.07764 0.47103 0.5137 0.0
C2858 C 0.08159 0.45233 0.50728 0.0
C2859 C 0.06852 0.44276 0.49468 0.0
C2860 C 0.05238 0.45217 0.48768 0.0
C2861 C 0.10113 0.44465 0.51004 0.0
C2862 C 0.11412 0.44708 0.49491 0.0
C2863 C 0.1073 0.43581 0.52716 0.0
C2864 C 0.09416 0.43235 0.54359 0.0
C2865 C 0.07601 0.42289 0.54092 0.0
C2866 C 0.06422 0.41875 0.55661 0.0
C2867 C 0.07059 0.42353 0.57512 0.0
C2868 C 0.08865 0.43276 0.57797 0.0
C2869 C 0.10032 0.43729 0.5623 0.0
H2870 H 0.06155 0.42003 0.58726 0.0
H2871 H 0.18077 0.45426 0.43717 0.0
H2872 H 0.8612 0.94423 0.71609 0.0
H2873 H 0.8417 0.91505 0.72292 0.0
H2874 H 0.8343 0.9349 0.78107 0.0
H2875 H 0.85276 0.96477 0.77367 0.0
H2876 H 0.84879 0.88733 0.74398 0.0
H2877 H 0.79576 0.91145 0.80183 0.0
H2878 H 0.77823 0.94035 0.81157 0.0
H2879 H 0.77928 0.96093 0.75368 0.0
H2880 H 0.79662 0.93207 0.74358 0.0
H2881 H 0.79896 0.80009 0.75987 0.0
H2882 H 0.81522 0.82975 0.77251 0.0
H2883 H 0.77059 0.86372 0.74703 0.0
H2884 H 0.75432 0.83439 0.73517 0.0
H2885 H 0.78479 0.88329 0.77514 0.0
H2886 H 0.81122 0.84765 0.72171 0.0
H2887 H 0.82556 0.81913 0.70683 0.0
H2888 H 0.87329 0.82347 0.74652 0.0
H2889 H 0.85907 0.85193 0.7618 0.0
C2890 C 0.85484 0.94258 0.73012 0.0
C2891 C 0.85809 0.95684 0.74423 0.0
C2892 C 0.84392 0.92579 0.73415 0.0
C2893 C 0.83645 0.92257 0.75257 0.0
C2894 C 0.83947 0.93706 0.76664 0.0
C2895 C 0.84999 0.95417 0.76242 0.0
C2896 C 0.82632 0.9037 0.75695 0.0
C2897 C 0.83483 0.88655 0.75091 0.0
C2898 C 0.80817 0.90238 0.76615 0.0
C2899 C 0.79771 0.91975 0.77203 0.0
C2900 C 0.79223 0.92215 0.79119 0.0
C2901 C 0.78233 0.93851 0.79677 0.0
C2902 C 0.77772 0.95251 0.78327 0.0
C2903 C 0.78293 0.95013 0.76414 0.0
C2904 C 0.79282 0.93379 0.75849 0.0
C2905 C 0.79218 0.81384 0.75794 0.0
C2906 C 0.77554 0.81508 0.74643 0.0
C2907 C 0.80157 0.83082 0.76495 0.0
C2908 C 0.7945 0.8491 0.76017 0.0
C2909 C 0.77651 0.84993 0.75083 0.0
C2910 C 0.76717 0.83311 0.74401 0.0
C2911 C 0.80688 0.86716 0.76137 0.0
C2912 C 0.79894 0.88414 0.76861 0.0
C2913 C 0.82519 0.86848 0.75248 0.0
C2914 C 0.83392 0.85164 0.74312 0.0
C2915 C 0.82471 0.84244 0.72733 0.0
C2916 C 0.83281 0.8263 0.71884 0.0
C2917 C 0.85026 0.81942 0.72582 0.0
C2918 C 0.85971 0.82874 0.74124 0.0
C2919 C 0.85163 0.84485 0.74983 0.0
H2920 H 0.85651 0.80691 0.71923 0.0
H2921 H 0.77006 0.96517 0.78762 0.0
H2922 H 0.7097 0.09832 0.50087 0.0
H2923 H 0.6776 0.08232 0.49962 0.0
H2924 H 0.65272 0.13585 0.48199 0.0
H2925 H 0.68452 0.15197 0.48388 0.0
H2926 H 0.63246 0.1219 0.50912 0.0
H2927 H 0.65643 0.09573 0.45112 0.0
H2928 H 0.67917 0.07921 0.43014 0.0
H2929 H 0.67245 0.0275 0.46346 0.0
H2930 H 0.64986 0.0438 0.48481 0.0
H2931 H 0.55002 0.04832 0.47656 0.0
H2932 H 0.57635 0.07234 0.47171 0.0
H2933 H 0.59508 0.06504 0.5302 0.0
H2934 H 0.56894 0.04098 0.53499 0.0
H2935 H 0.61585 0.05849 0.47876 0.0
H2936 H 0.60273 0.09764 0.54302 0.0
H2937 H 0.58037 0.11779 0.56114 0.0
H2938 H 0.56522 0.14742 0.50951 0.0
H2939 H 0.58713 0.12706 0.49108 0.0
C2940 C 0.69741 0.10656 0.49644 0.0
C2941 C 0.6996 0.12641 0.4926 0.0
C2942 C 0.67906 0.0974 0.49567 0.0
C2943 C 0.66268 0.10786 0.49065 0.0
C2944 C 0.66506 0.12749 0.48603 0.0
C2945 C 0.68328 0.13668 0.48708 0.0
C2946 C 0.64292 0.0988 0.4915 0.0
C2947 C 0.62889 0.1081 0.50231 0.0
C2948 C 0.63798 0.08092 0.48246 0.0
C2949 C 0.65156 0.07105 0.46966 0.0
C2950 C 0.65991 0.08088 0.45406 0.0
C2951 C 0.67276 0.07155 0.44209 0.0
C2952 C 0.67729 0.05233 0.44549 0.0
C2953 C 0.66894 0.0424 0.46085 0.0
C2954 C 0.65609 0.05167 0.47288 0.0
C2955 C 0.55912 0.05266 0.48863 0.0
C2956 C 0.55726 0.04314 0.50625 0.0
C2957 C 0.57429 0.06618 0.4858 0.0
C2958 C 0.58747 0.07071 0.50069 0.0
C2959 C 0.58476 0.0622 0.51868 0.0
C2960 C 0.56984 0.04845 0.52142 0.0
C2961 C 0.60583 0.08142 0.4967 0.0
C2962 C 0.61955 0.07239 0.48534 0.0
C2963 C 0.61045 0.09966 0.5049 0.0
C2964 C 0.59621 0.11065 0.51568 0.0
C2965 C 0.59434 0.10821 0.53552 0.0
C2966 C 0.58183 0.11972 0.54585 0.0
C2967 C 0.57142 0.13391 0.53649 0.0
C2968 C 0.57334 0.13649 0.51676 0.0
C2969 C 0.58566 0.12486 0.50635 0.0
H2970 H 0.5618 0.14285 0.54452 0.0
H2971 H 0.68724 0.04513 0.43621 0.0
H2972 H 0.14658 0.44033 0.77732 0.0
H2973 H 0.16869 0.41363 0.77942 0.0
H2974 H 0.18968 0.42671 0.72286 0.0
H2975 H 0.16743 0.45335 0.72055 0.0
H2976 H 0.18086 0.38899 0.72625 0.0
H2977 H 0.2184 0.43558 0.7622 0.0
H2978 H 0.22488 0.46061 0.78692 0.0
H2979 H 0.21044 0.4197 0.83093 0.0
H2980 H 0.20361 0.39449 0.80646 0.0
H2981 H 0.2474 0.312 0.73843 0.0
H2982 H 0.23754 0.34535 0.73348 0.0
H2983 H 0.20525 0.3428 0.78593 0.0
H2984 H 0.21426 0.30952 0.79055 0.0
H2985 H 0.22497 0.37782 0.7812 0.0
H2986 H 0.18532 0.3319 0.74492 0.0
H2987 H 0.17762 0.30731 0.72017 0.0
H2988 H 0.19353 0.34758 0.67623 0.0
H2989 H 0.20292 0.37207 0.70073 0.0
C2990 C 0.15606 0.43771 0.76541 0.0
C2991 C 0.15519 0.44898 0.74876 0.0
C2992 C 0.16877 0.42246 0.76666 0.0
C2993 C 0.18098 0.41824 0.75135 0.0
C2994 C 0.18042 0.42971 0.73486 0.0
C2995 C 0.16772 0.44498 0.7336 0.0
C2996 C 0.19338 0.40111 0.75217 0.0
C2997 C 0.1909 0.38673 0.73799 0.0
C2998 C 0.20623 0.39806 0.76767 0.0
C2999 C 0.21037 0.41317 0.78247 0.0
C3000 C 0.21647 0.43195 0.77714 0.0
C3001 C 0.22023 0.44617 0.79111 0.0
C3002 C 0.21804 0.44175 0.81048 0.0
C3003 C 0.21213 0.4231 0.81592 0.0
C3004 C 0.20834 0.40883 0.80201 0.0
C3005 C 0.23817 0.3185 0.74886 0.0
C3006 C 0.23103 0.30774 0.76448 0.0
C3007 C 0.23268 0.33762 0.74609 0.0
C3008 C 0.22038 0.34641 0.75918 0.0
C3009 C 0.21464 0.33626 0.77558 0.0
C3010 C 0.21979 0.31714 0.77815 0.0
C3011 C 0.21217 0.36557 0.75546 0.0
C3012 C 0.21536 0.3803 0.76915 0.0
C3013 C 0.19995 0.3689 0.73948 0.0
C3014 C 0.19525 0.35377 0.72477 0.0
C3015 C 0.18774 0.33542 0.73003 0.0
C3016 C 0.18304 0.32148 0.71603 0.0
C3017 C 0.18513 0.32587 0.69666 0.0
C3018 C 0.19216 0.34415 0.69126 0.0
C3019 C 0.19735 0.35801 0.7052 0.0
H3020 H 0.18131 0.31511 0.68585 0.0
H3021 H 0.22096 0.45278 0.82128 0.0
H3022 H 0.35826 0.55959 0.22427 0.0
H3023 H 0.34339 0.59109 0.22092 0.0
H3024 H 0.30698 0.57817 0.26921 0.0
H3025 H 0.32162 0.5467 0.27257 0.0
H3026 H 0.28665 0.594 0.23986 0.0
H3027 H 0.34851 0.60822 0.27307 0.0
H3028 H 0.38412 0.60902 0.27543 0.0
H3029 H 0.38773 0.64188 0.22352 0.0
H3030 H 0.35215 0.64096 0.2207 0.0
H3031 H 0.26097 0.67323 0.29108 0.0
H3032 H 0.27538 0.64506 0.27724 0.0
H3033 H 0.29743 0.6796 0.23059 0.0
H3034 H 0.28275 0.70851 0.24476 0.0
H3035 H 0.32546 0.65504 0.24851 0.0
H3036 H 0.26433 0.64832 0.21959 0.0
H3037 H 0.2289 0.64844 0.21635 0.0
H3038 H 0.2234 0.60232 0.25695 0.0
H3039 H 0.25882 0.602 0.26068 0.0
C3040 C 0.34705 0.56342 0.23416 0.0
C3041 C 0.3412 0.55056 0.24875 0.0
C3042 C 0.3386 0.5815 0.23225 0.0
C3043 C 0.32414 0.58713 0.2449 0.0
C3044 C 0.31808 0.57419 0.25925 0.0
C3045 C 0.32654 0.55618 0.2612 0.0
C3046 C 0.31531 0.60651 0.24357 0.0
C3047 C 0.29513 0.60734 0.24177 0.0
C3048 C 0.3264 0.62407 0.24497 0.0
C3049 C 0.34773 0.6244 0.2466 0.0
C3050 C 0.35692 0.61548 0.26209 0.0
C3051 C 0.37709 0.61596 0.26351 0.0
C3052 C 0.38818 0.62546 0.24961 0.0
C3053 C 0.37913 0.6345 0.23426 0.0
C3054 C 0.35897 0.634 0.23274 0.0
C3055 C 0.26875 0.67495 0.27778 0.0
C3056 C 0.27072 0.69312 0.26901 0.0
C3057 C 0.27693 0.65873 0.26982 0.0
C3058 C 0.28742 0.66011 0.25282 0.0
C3059 C 0.28937 0.6782 0.24373 0.0
C3060 C 0.28087 0.69464 0.25171 0.0
C3061 C 0.29675 0.64241 0.24564 0.0
C3062 C 0.31699 0.64179 0.24597 0.0
C3063 C 0.28573 0.62505 0.24255 0.0
C3064 C 0.26433 0.62513 0.24042 0.0
C3065 C 0.25561 0.63825 0.22792 0.0
C3066 C 0.23551 0.63835 0.22598 0.0
C3067 C 0.22391 0.62541 0.23643 0.0
C3068 C 0.23241 0.61232 0.24884 0.0
C3069 C 0.25252 0.61213 0.25083 0.0
H3070 H 0.20835 0.62553 0.2349 0.0
H3071 H 0.40379 0.62584 0.25075 0.0
H3072 H 0.51485 0.71317 0.59107 0.0
H3073 H 0.52358 0.68445 0.57272 0.0
H3074 H 0.48699 0.64876 0.60872 0.0
H3075 H 0.4788 0.67714 0.62736 0.0
H3076 H 0.51935 0.63155 0.60384 0.0
H3077 H 0.47404 0.66285 0.56173 0.0
H3078 H 0.46196 0.68972 0.5424 0.0
H3079 H 0.51378 0.69032 0.50911 0.0
H3080 H 0.52626 0.66358 0.52842 0.0
H3081 H 0.48548 0.5526 0.54768 0.0
H3082 H 0.49562 0.57913 0.56889 0.0
H3083 H 0.53447 0.60108 0.52558 0.0
H3084 H 0.52367 0.57469 0.5041 0.0
H3085 H 0.50933 0.62665 0.5336 0.0
H3086 H 0.54953 0.58795 0.57229 0.0
H3087 H 0.55811 0.55937 0.59109 0.0
H3088 H 0.51333 0.57115 0.63116 0.0
H3089 H 0.50402 0.59933 0.61232 0.0
C3090 C 0.5085 0.69922 0.59488 0.0
C3091 C 0.49608 0.69745 0.61063 0.0
C3092 C 0.51355 0.68278 0.58443 0.0
C3093 C 0.50596 0.66435 0.5893 0.0
C3094 C 0.49323 0.66272 0.60477 0.0
C3095 C 0.48842 0.67902 0.61533 0.0
C3096 C 0.5109 0.64665 0.57835 0.0
C3097 C 0.51711 0.63041 0.58847 0.0
C3098 C 0.50864 0.64532 0.55823 0.0
C3099 C 0.50118 0.66141 0.54667 0.0
C3100 C 0.48292 0.66882 0.55039 0.0
C3101 C 0.47599 0.684 0.53942 0.0
C3102 C 0.48713 0.69177 0.52458 0.0
C3103 C 0.50519 0.68433 0.52064 0.0
C3104 C 0.5122 0.66916 0.53159 0.0
C3105 C 0.49707 0.5624 0.54317 0.0
C3106 C 0.50406 0.56147 0.52444 0.0
C3107 C 0.50283 0.5777 0.55529 0.0
C3108 C 0.5158 0.59227 0.54886 0.0
C3109 C 0.52444 0.59006 0.53088 0.0
C3110 C 0.51854 0.57479 0.5187 0.0
C3111 C 0.51715 0.61121 0.55914 0.0
C3112 C 0.51211 0.62778 0.54889 0.0
C3113 C 0.52018 0.61267 0.57919 0.0
C3114 C 0.52602 0.59581 0.59079 0.0
C3115 C 0.5414 0.58437 0.58502 0.0
C3116 C 0.54638 0.56818 0.59569 0.0
C3117 C 0.53624 0.56338 0.61228 0.0
C3118 C 0.52114 0.57479 0.61827 0.0
C3119 C 0.516 0.59089 0.6076 0.0
H3120 H 0.5401 0.55083 0.6205 0.0
H3121 H 0.48174 0.70352 0.5161 0.0
H3122 H 0.55097 0.2387 0.85362 0.0
H3123 H 0.58121 0.23862 0.83602 0.0
H3124 H 0.56509 0.2898 0.80567 0.0
H3125 H 0.53471 0.29023 0.82349 0.0
H3126 H 0.584 0.25842 0.78276 0.0
H3127 H 0.59314 0.29943 0.83774 0.0
H3128 H 0.59057 0.30833 0.87183 0.0
H3129 H 0.62465 0.26004 0.88755 0.0
H3130 H 0.62713 0.25065 0.85355 0.0
H3131 H 0.68411 0.27005 0.75451 0.0
H3132 H 0.65084 0.27567 0.76409 0.0
H3133 H 0.65742 0.23679 0.81167 0.0
H3134 H 0.69062 0.23144 0.80244 0.0
H3135 H 0.64253 0.26856 0.82366 0.0
H3136 H 0.62971 0.22521 0.76918 0.0
H3137 H 0.63195 0.21582 0.73515 0.0
H3138 H 0.60525 0.26839 0.71853 0.0
H3139 H 0.60305 0.27817 0.75248 0.0
C3140 C 0.55364 0.2498 0.843 0.0
C3141 C 0.54048 0.26458 0.84008 0.0
C3142 C 0.57096 0.24973 0.83298 0.0
C3143 C 0.5754 0.26429 0.8197 0.0
C3144 C 0.56187 0.27845 0.81589 0.0
C3145 C 0.54458 0.27868 0.82611 0.0
C3146 C 0.59482 0.2653 0.81107 0.0
C3147 C 0.59684 0.26094 0.79157 0.0
C3148 C 0.61149 0.26856 0.82263 0.0
C3149 C 0.61016 0.27423 0.8431 0.0
C3150 C 0.59993 0.2906 0.84847 0.0
C3151 C 0.59852 0.29575 0.86778 0.0
C3152 C 0.6074 0.28473 0.88185 0.0
C3153 C 0.61776 0.26856 0.87663 0.0
C3154 C 0.61918 0.26332 0.85734 0.0
C3155 C 0.67834 0.26248 0.76685 0.0
C3156 C 0.68998 0.25027 0.77771 0.0
C3157 C 0.65932 0.26575 0.77234 0.0
C3158 C 0.65159 0.25669 0.78865 0.0
C3159 C 0.66308 0.24408 0.79913 0.0
C3160 C 0.68206 0.24097 0.79379 0.0
C3161 C 0.63185 0.26065 0.79549 0.0
C3162 C 0.62976 0.26619 0.81471 0.0
C3163 C 0.61518 0.25843 0.78365 0.0
C3164 C 0.61634 0.25247 0.76331 0.0
C3165 C 0.62441 0.23479 0.75825 0.0
C3166 C 0.62566 0.2294 0.73899 0.0
C3167 C 0.61878 0.24152 0.72469 0.0
C3168 C 0.61058 0.25903 0.72962 0.0
C3169 C 0.6093 0.26449 0.74886 0.0
H3170 H 0.61977 0.23732 0.70979 0.0
H3171 H 0.6063 0.28875 0.89679 0.0
H3172 H 0.97527 0.32079 0.13102 0.0
H3173 H 0.96465 0.3535 0.1236 0.0
H3174 H -0.00011 0.35406 0.07301 0.0
H3175 H 0.01058 0.32174 0.08035 0.0
H3176 H 0.9869 0.38668 0.12133 0.0
H3177 H 0.97871 0.3771 0.0377 0.0
H3178 H 0.96416 0.35318 0.01511 0.0
H3179 H 0.92742 0.33074 0.05945 0.0
H3180 H 0.94144 0.35476 0.08224 0.0
H3181 H 0.03537 0.44876 0.06446 0.0
H3182 H 0.01748 0.42824 0.08648 0.0
H3183 H 0.96416 0.44172 0.0576 0.0
H3184 H 0.98247 0.4622 0.03521 0.0
H3185 H 0.96805 0.40563 0.05554 0.0
H3186 H 0.96732 0.44473 0.10958 0.0
H3187 H 0.97731 0.46889 0.13414 0.0
H3188 H 0.0248 0.4342 0.15078 0.0
H3189 H 0.01499 0.40963 0.12657 0.0
C3190 C 0.98051 0.32781 0.11817 0.0
C3191 C 0.99383 0.3187 0.10629 0.0
C3192 C 0.97446 0.3465 0.11399 0.0
C3193 C 0.98132 0.35617 0.09766 0.0
C3194 C 0.99415 0.3468 0.08554 0.0
C3195 C 0.00036 0.32833 0.08981 0.0
C3196 C 0.97665 0.37659 0.09371 0.0
C3197 C 0.98248 0.39092 0.10706 0.0
C3198 C 0.96976 0.38218 0.0755 0.0
C3199 C 0.9612 0.36776 0.06173 0.0
C3200 C 0.96742 0.36719 0.04262 0.0
C3201 C 0.95928 0.35358 0.02977 0.0
C3202 C 0.94489 0.34044 0.03584 0.0
C3203 C 0.93861 0.34088 0.05478 0.0
C3204 C 0.94666 0.3545 0.06767 0.0
C3205 C 0.01973 0.44807 0.06337 0.0
C3206 C 0.01029 0.45691 0.04806 0.0
C3207 C 0.0094 0.43641 0.07612 0.0
C3208 C 0.98936 0.43323 0.07377 0.0
C3209 C 0.9796 0.44388 0.05975 0.0
C3210 C 0.99004 0.45573 0.047 0.0
C3211 C 0.98023 0.41563 0.08251 0.0
C3212 C 0.97177 0.40165 0.07007 0.0
C3213 C 0.98409 0.4105 0.10175 0.0
C3214 C 0.99038 0.4253 0.11621 0.0
C3215 C 0.97996 0.44228 0.1184 0.0
C3216 C 0.98557 0.45604 0.13228 0.0
C3217 C 0.00174 0.45316 0.1439 0.0
C3218 C 0.01227 0.43641 0.14177 0.0
C3219 C 0.0066 0.42248 0.12806 0.0
H3220 H 0.00605 0.46387 0.15459 0.0
H3221 H 0.93861 0.32991 0.02587 0.0
H3222 H 0.94465 0.74638 0.34989 0.0
H3223 H 0.91254 0.74324 0.33524 0.0
H3224 H 0.88815 0.72852 0.39011 0.0
H3225 H 0.92019 0.73246 0.405 0.0
H3226 H 0.88577 0.7172 0.33007 0.0
H3227 H 0.8425 0.74868 0.39288 0.0
H3228 H 0.84805 0.76917 0.42155 0.0
H3229 H 0.89719 0.79686 0.39495 0.0
H3230 H 0.89182 0.77663 0.36607 0.0
H3231 H 0.79211 0.7215 0.29278 0.0
H3232 H 0.81538 0.71479 0.31822 0.0
H3233 H 0.83222 0.77535 0.32087 0.0
H3234 H 0.80904 0.78202 0.29523 0.0
H3235 H 0.83519 0.75907 0.35581 0.0
H3236 H 0.85212 0.7458 0.29083 0.0
H3237 H 0.8498 0.7303 0.25901 0.0
H3238 H 0.85909 0.67499 0.28431 0.0
H3239 H 0.8602 0.68995 0.31652 0.0
C3240 C 0.9325 0.74223 0.35879 0.0
C3241 C 0.93488 0.73993 0.37861 0.0
C3242 C 0.91414 0.74039 0.3504 0.0
C3243 C 0.89786 0.73597 0.36163 0.0
C3244 C 0.90042 0.73237 0.38124 0.0
C3245 C 0.91874 0.73457 0.3897 0.0
C3246 C 0.87825 0.7365 0.3529 0.0
C3247 C 0.87461 0.72613 0.33585 0.0
C3248 C 0.86375 0.74837 0.36032 0.0
C3249 C 0.86702 0.76079 0.37751 0.0
C3250 C 0.85454 0.75906 0.39319 0.0
C3251 C 0.85763 0.77067 0.40946 0.0
C3252 C 0.87305 0.78422 0.41013 0.0
C3253 C 0.88533 0.78627 0.39447 0.0
C3254 C 0.88229 0.77472 0.37816 0.0
C3255 C 0.80006 0.7335 0.29952 0.0
C3256 C 0.79864 0.75233 0.29237 0.0
C3257 C 0.81342 0.72963 0.31398 0.0
C3258 C 0.82555 0.74455 0.3214 0.0
C3259 C 0.8229 0.76365 0.31543 0.0
C3260 C 0.80969 0.76748 0.30081 0.0
C3261 C 0.84296 0.74012 0.33281 0.0
C3262 C 0.84614 0.74966 0.35038 0.0
C3263 C 0.8574 0.72816 0.32543 0.0
C3264 C 0.85582 0.71896 0.30617 0.0
C3265 C 0.85316 0.73025 0.2897 0.0
C3266 C 0.85202 0.72155 0.2716 0.0
C3267 C 0.85404 0.70162 0.26969 0.0
C3268 C 0.85714 0.69035 0.28589 0.0
C3269 C 0.85791 0.69892 0.30409 0.0
H3270 H 0.85342 0.69493 0.25565 0.0
H3271 H 0.87542 0.79318 0.42274 0.0
H3272 H 0.53209 0.31261 0.88634 0.0
H3273 H 0.54092 0.34715 0.88703 0.0
H3274 H 0.52099 0.35081 0.94525 0.0
H3275 H 0.51241 0.31648 0.94476 0.0
H3276 H 0.51549 0.37435 0.89003 0.0
H3277 H 0.54121 0.38567 0.96971 0.0
H3278 H 0.56314 0.37034 0.99263 0.0
H3279 H 0.59481 0.34634 0.94615 0.0
H3280 H 0.5732 0.36172 0.92288 0.0
H3281 H 0.4747 0.44483 0.94624 0.0
H3282 H 0.48716 0.41996 0.92512 0.0
H3283 H 0.54458 0.44532 0.93179 0.0
H3284 H 0.53243 0.46897 0.9537 0.0
H3285 H 0.54384 0.41125 0.94509 0.0
H3286 H 0.52563 0.43664 0.88616 0.0
H3287 H 0.50546 0.45264 0.86209 0.0
H3288 H 0.46356 0.40558 0.86431 0.0
H3289 H 0.4833 0.38941 0.88861 0.0
C3290 C 0.53015 0.32066 0.89949 0.0
C3291 C 0.52134 0.31186 0.91545 0.0
C3292 C 0.53516 0.34042 0.89982 0.0
C3293 C 0.53167 0.35158 0.91618 0.0
C3294 C 0.52414 0.34248 0.93255 0.0
C3295 C 0.5191 0.32282 0.93222 0.0
C3296 C 0.53309 0.373 0.91562 0.0
C3297 C 0.522 0.38255 0.90184 0.0
C3298 C 0.5422 0.38381 0.93058 0.0
C3299 C 0.55549 0.37479 0.94452 0.0
C3300 C 0.55294 0.37726 0.96434 0.0
C3301 C 0.56528 0.36852 0.9774 0.0
C3302 C 0.58028 0.35729 0.97084 0.0
C3303 C 0.58309 0.35494 0.9512 0.0
C3304 C 0.57078 0.36364 0.93806 0.0
C3305 C 0.48977 0.44569 0.94222 0.0
C3306 C 0.5025 0.45932 0.95096 0.0
C3307 C 0.49693 0.4315 0.93011 0.0
C3308 C 0.51689 0.43077 0.92673 0.0
C3309 C 0.52918 0.44568 0.93386 0.0
C3310 C 0.52209 0.45963 0.94609 0.0
C3311 C 0.52513 0.41237 0.92026 0.0
C3312 C 0.53794 0.40332 0.9328 0.0
C3313 C 0.518 0.40223 0.90392 0.0
C3314 C 0.50597 0.41181 0.88926 0.0
C3315 C 0.51205 0.42974 0.88161 0.0
C3316 C 0.5007 0.43884 0.86791 0.0
C3317 C 0.48324 0.43013 0.86168 0.0
C3318 C 0.47711 0.41229 0.86913 0.0
C3319 C 0.4884 0.40313 0.88284 0.0
H3320 H 0.47447 0.43721 0.85107 0.0
H3321 H 0.58968 0.35038 0.981 0.0
H3322 H 0.93579 0.25131 0.14565 0.0
H3323 H 0.90233 0.25237 0.15638 0.0
H3324 H 0.92062 0.28683 0.20532 0.0
H3325 H 0.9542 0.28611 0.19452 0.0
H3326 H 0.89506 0.25464 0.21372 0.0
H3327 H 0.8986 0.30938 0.17264 0.0
H3328 H 0.9063 0.32724 0.1431 0.0
H3329 H 0.86704 0.28981 0.1111 0.0
H3330 H 0.85932 0.27151 0.14041 0.0
H3331 H 0.79951 0.25616 0.24075 0.0
H3332 H 0.82866 0.27392 0.2303 0.0
H3333 H 0.82437 0.24507 0.17543 0.0
H3334 H 0.79507 0.22765 0.18577 0.0
H3335 H 0.84319 0.28099 0.1728 0.0
H3336 H 0.84485 0.22298 0.21183 0.0
H3337 H 0.83674 0.20415 0.24069 0.0
H3338 H 0.86661 0.2468 0.27591 0.0
H3339 H 0.87469 0.26598 0.24727 0.0
C3340 C 0.93274 0.25905 0.15875 0.0
C3341 C 0.94766 0.2686 0.16926 0.0
C3342 C 0.91359 0.25976 0.16477 0.0
C3343 C 0.90901 0.26987 0.18151 0.0
C3344 C 0.92388 0.27906 0.19229 0.0
C3345 C 0.94303 0.27861 0.18611 0.0
C3346 C 0.88868 0.27022 0.18794 0.0
C3347 C 0.88377 0.2608 0.205 0.0
C3348 C 0.87395 0.278 0.17639 0.0
C3349 C 0.8785 0.28897 0.15871 0.0
C3350 C 0.89173 0.30485 0.15928 0.0
C3351 C 0.89607 0.31507 0.14258 0.0
C3352 C 0.88719 0.30964 0.12522 0.0
C3353 C 0.87391 0.29399 0.12455 0.0
C3354 C 0.86954 0.2837 0.14121 0.0
C3355 C 0.8041 0.25459 0.22605 0.0
C3356 C 0.79498 0.2408 0.21392 0.0
C3357 C 0.8209 0.26456 0.22017 0.0
C3358 C 0.82891 0.26047 0.20224 0.0
C3359 C 0.81846 0.24844 0.18932 0.0
C3360 C 0.80168 0.23852 0.1952 0.0
C3361 C 0.84956 0.26516 0.1984 0.0
C3362 C 0.85455 0.2753 0.18175 0.0
C3363 C 0.8644 0.25788 0.21023 0.0
C3364 C 0.86009 0.24608 0.22743 0.0
C3365 C 0.84959 0.22839 0.22574 0.0
C3366 C 0.84501 0.21765 0.24206 0.0
C3367 C 0.85108 0.22432 0.26014 0.0
C3368 C 0.86184 0.24169 0.2619 0.0
C3369 C 0.86642 0.25251 0.24562 0.0
H3370 H 0.8475 0.21599 0.27276 0.0
H3371 H 0.89057 0.31758 0.11231 0.0
H3372 H 0.00717 0.72001 0.46267 0.0
H3373 H 0.01787 0.68967 0.47637 0.0
H3374 H 0.03437 0.67018 0.42029 0.0
H3375 H 0.02382 0.70048 0.40644 0.0
H3376 H 0.00875 0.64469 0.43904 0.0
H3377 H 0.06844 0.68041 0.45196 0.0
H3378 H 0.08865 0.70752 0.46494 0.0
H3379 H 0.06938 0.69429 0.52177 0.0
H3380 H 0.04883 0.66726 0.50909 0.0
H3381 H 0.05175 0.5598 0.45657 0.0
H3382 H 0.0562 0.59466 0.45332 0.0
H3383 H 0.02247 0.60346 0.50394 0.0
H3384 H 0.01778 0.56849 0.5074 0.0
H3385 H 0.05787 0.63466 0.49015 0.0
H3386 H 0.99306 0.60439 0.47619 0.0
H3387 H 0.97683 0.57369 0.466 0.0
H3388 H 0.00715 0.57599 0.41268 0.0
H3389 H 0.02393 0.60646 0.42283 0.0
C3390 C 0.01342 0.70942 0.4533 0.0
C3391 C 0.01451 0.71257 0.43344 0.0
C3392 C 0.01956 0.69213 0.46116 0.0
C3393 C 0.02682 0.67772 0.44931 0.0
C3394 C 0.02875 0.68116 0.42964 0.0
C3395 C 0.02278 0.69851 0.42178 0.0
C3396 C 0.03077 0.65844 0.45711 0.0
C3397 C 0.01959 0.64259 0.45011 0.0
C3398 C 0.04456 0.65571 0.47189 0.0
C3399 C 0.05694 0.67193 0.47954 0.0
C3400 C 0.06837 0.68339 0.4672 0.0
C3401 C 0.07992 0.69872 0.47451 0.0
C3402 C 0.08026 0.70266 0.49416 0.0
C3403 C 0.06908 0.69124 0.50655 0.0
C3404 C 0.05749 0.6759 0.49931 0.0
C3405 C 0.04573 0.56905 0.46738 0.0
C3406 C 0.03388 0.56137 0.48189 0.0
C3407 C 0.04858 0.58898 0.46566 0.0
C3408 C 0.03963 0.60152 0.47838 0.0
C3409 C 0.02965 0.59394 0.49413 0.0
C3410 C 0.02674 0.57395 0.49588 0.0
C3411 C 0.03594 0.6213 0.47197 0.0
C3412 C 0.047 0.63704 0.47919 0.0
C3413 C 0.02185 0.62413 0.4576 0.0
C3414 C 0.00967 0.60767 0.45022 0.0
C3415 C 0.99609 0.59842 0.46221 0.0
C3416 C 0.98696 0.58098 0.45654 0.0
C3417 C 0.99096 0.57288 0.4387 0.0
C3418 C 0.004 0.58231 0.42646 0.0
C3419 C 0.01333 0.59967 0.43216 0.0
H3420 H 0.98394 0.55932 0.43439 0.0
H3421 H 0.08922 0.71452 0.49979 0.0
H3422 H 0.53575 0.74258 0.7024 0.0
H3423 H 0.56921 0.74535 0.71377 0.0
H3424 H 0.58535 0.77518 0.66199 0.0
H3425 H 0.55186 0.77246 0.65045 0.0
H3426 H 0.60817 0.74392 0.66994 0.0
H3427 H 0.58461 0.79942 0.70342 0.0
H3428 H 0.56278 0.81656 0.72488 0.0
H3429 H 0.57842 0.77959 0.77132 0.0
H3430 H 0.60016 0.76205 0.75006 0.0
H3431 H 0.70218 0.77801 0.69082 0.0
H3432 H 0.66778 0.77501 0.68381 0.0
H3433 H 0.65827 0.74654 0.73782 0.0
H3434 H 0.69299 0.74948 0.74513 0.0
H3435 H 0.63172 0.7747 0.73054 0.0
H3436 H 0.65677 0.72067 0.69864 0.0
H3437 H 0.67845 0.70259 0.67791 0.0
H3438 H 0.65991 0.73505 0.62922 0.0
H3439 H 0.63825 0.75351 0.64974 0.0
C3440 C 0.54634 0.75003 0.69355 0.0
C3441 C 0.54114 0.75724 0.67547 0.0
C3442 C 0.56546 0.75161 0.7001 0.0
C3443 C 0.57975 0.76043 0.6887 0.0
C3444 C 0.57451 0.76827 0.67097 0.0
C3445 C 0.55535 0.76682 0.66446 0.0
C3446 C 0.60033 0.76041 0.69476 0.0
C3447 C 0.61339 0.75089 0.68305 0.0
C3448 C 0.6069 0.76875 0.71229 0.0
C3449 C 0.59385 0.77929 0.72509 0.0
C3450 C 0.58326 0.79483 0.71816 0.0
C3451 C 0.57094 0.80464 0.7303 0.0
C3452 C 0.56917 0.79913 0.74944 0.0
C3453 C 0.57978 0.78383 0.75649 0.0
C3454 C 0.59212 0.77396 0.7444 0.0
C3455 C 0.69288 0.77105 0.70128 0.0
C3456 C 0.70042 0.76398 0.71857 0.0
C3457 C 0.67318 0.7693 0.69718 0.0
C3458 C 0.66052 0.76038 0.7102 0.0
C3459 C 0.66785 0.75342 0.72757 0.0
C3460 C 0.68768 0.75509 0.73168 0.0
C3461 C 0.63963 0.75861 0.70548 0.0
C3462 C 0.62649 0.76767 0.71746 0.0
C3463 C 0.63293 0.74967 0.68827 0.0
C3464 C 0.64593 0.73857 0.6758 0.0
C3465 C 0.65737 0.72404 0.68355 0.0
C3466 C 0.66966 0.7137 0.67182 0.0
C3467 C 0.67059 0.71769 0.65225 0.0
C3468 C 0.65918 0.73199 0.64438 0.0
C3469 C 0.64687 0.74237 0.65606 0.0
H3470 H 0.68012 0.70968 0.64318 0.0
H3471 H 0.55962 0.80675 0.75881 0.0
H3472 H 0.58931 0.48142 0.70187 0.0
H3473 H 0.5731 0.47663 0.67077 0.0
H3474 H 0.54992 0.53363 0.6749 0.0
H3475 H 0.5653 0.53816 0.70615 0.0
H3476 H 0.52391 0.511 0.65949 0.0
H3477 H 0.59124 0.52389 0.64812 0.0
H3478 H 0.62627 0.51919 0.65141 0.0
H3479 H 0.61896 0.46164 0.62855 0.0
H3480 H 0.58383 0.46592 0.62534 0.0
H3481 H 0.51163 0.52411 0.55653 0.0
H3482 H 0.51973 0.52709 0.59078 0.0
H3483 H 0.53439 0.467 0.5919 0.0
H3484 H 0.52632 0.46389 0.558 0.0
H3485 H 0.56401 0.49173 0.6046 0.0
H3486 H 0.4954 0.48171 0.61365 0.0
H3487 H 0.46112 0.48931 0.60921 0.0
H3488 H 0.47171 0.54502 0.63537 0.0
H3489 H 0.5061 0.53776 0.63985 0.0
C3490 C 0.5806 0.49283 0.69621 0.0
C3491 C 0.57872 0.5102 0.70644 0.0
C3492 C 0.57141 0.49013 0.6784 0.0
C3493 C 0.56056 0.50493 0.67029 0.0
C3494 C 0.55818 0.522 0.68079 0.0
C3495 C 0.56708 0.52458 0.69868 0.0
C3496 C 0.55233 0.50306 0.65058 0.0
C3497 C 0.53273 0.50694 0.64746 0.0
C3498 C 0.56377 0.49775 0.63484 0.0
C3499 C 0.58489 0.49515 0.63668 0.0
C3500 C 0.59709 0.51019 0.64392 0.0
C3501 C 0.61696 0.5076 0.64575 0.0
C3502 C 0.62483 0.49011 0.64024 0.0
C3503 C 0.61284 0.47517 0.63284 0.0
C3504 C 0.59295 0.47767 0.631 0.0
C3505 C 0.51607 0.51143 0.56422 0.0
C3506 C 0.51852 0.49382 0.55451 0.0
C3507 C 0.52076 0.51317 0.58376 0.0
C3508 C 0.52783 0.49728 0.5938 0.0
C3509 C 0.52912 0.47945 0.58437 0.0
C3510 C 0.52447 0.47772 0.56498 0.0
C3511 C 0.53559 0.49939 0.61358 0.0
C3512 C 0.55518 0.49569 0.61666 0.0
C3513 C 0.52421 0.50522 0.62914 0.0
C3514 C 0.50343 0.50936 0.62674 0.0
C3515 C 0.49048 0.49566 0.61827 0.0
C3516 C 0.471 0.49987 0.61581 0.0
C3517 C 0.46426 0.51768 0.6219 0.0
C3518 C 0.47696 0.53126 0.63058 0.0
C3519 C 0.49644 0.5271 0.63309 0.0
H3520 H 0.44918 0.52092 0.61997 0.0
H3521 H 0.64022 0.48814 0.64167 0.0
H3522 H 0.77825 0.32886 0.92949 0.0
H3523 H 0.77435 0.33005 0.89494 0.0
H3524 H 0.72497 0.36587 0.90106 0.0
H3525 H 0.72899 0.36509 0.93617 0.0
H3526 H 0.72142 0.33099 0.8747 0.0
H3527 H 0.75878 0.38884 0.88404 0.0
H3528 H 0.78454 0.40984 0.89843 0.0
H3529 H 0.82762 0.37337 0.87524 0.0
H3530 H 0.80213 0.35196 0.86097 0.0
H3531 H 0.73131 0.30673 0.7796 0.0
H3532 H 0.728 0.33243 0.80321 0.0
H3533 H 0.78349 0.3188 0.82745 0.0
H3534 H 0.78752 0.2944 0.80262 0.0
H3535 H 0.7763 0.35511 0.83531 0.0
H3536 H 0.73909 0.29279 0.83702 0.0
H3537 H 0.71427 0.26969 0.82404 0.0
H3538 H 0.67149 0.31303 0.82816 0.0
H3539 H 0.69618 0.33652 0.84063 0.0
C3540 C 0.76648 0.33697 0.92363 0.0
C3541 C 0.7539 0.34686 0.93562 0.0
C3542 C 0.76437 0.33774 0.90383 0.0
C3543 C 0.74956 0.34826 0.89551 0.0
C3544 C 0.7366 0.35782 0.9073 0.0
C3545 C 0.73889 0.35731 0.92729 0.0
C3546 C 0.74777 0.34833 0.87441 0.0
C3547 C 0.73301 0.33683 0.86589 0.0
C3548 C 0.76302 0.35585 0.86307 0.0
C3549 C 0.7785 0.36878 0.87143 0.0
C3550 C 0.77374 0.38523 0.88209 0.0
C3551 C 0.7883 0.39722 0.89022 0.0
C3552 C 0.8077 0.39294 0.88775 0.0
C3553 C 0.81258 0.37668 0.87712 0.0
C3554 C 0.79808 0.36463 0.86897 0.0
C3555 C 0.74351 0.31042 0.78883 0.0
C3556 C 0.75992 0.29901 0.78889 0.0
C3557 C 0.74138 0.32477 0.80274 0.0
C3558 C 0.75523 0.32718 0.81746 0.0
C3559 C 0.77254 0.31719 0.8163 0.0
C3560 C 0.77486 0.3032 0.80212 0.0
C3561 C 0.75054 0.33683 0.83579 0.0
C3562 C 0.76415 0.35007 0.84384 0.0
C3563 C 0.73433 0.33071 0.84678 0.0
C3564 C 0.71951 0.31647 0.83949 0.0
C3565 C 0.72441 0.2974 0.83503 0.0
C3566 C 0.71038 0.28426 0.82772 0.0
C3567 C 0.69134 0.28992 0.82518 0.0
C3568 C 0.68627 0.3087 0.83 0.0
C3569 C 0.70028 0.32195 0.83713 0.0
H3570 H 0.68049 0.27974 0.81954 0.0
H3571 H 0.81895 0.40223 0.89407 0.0
H3572 H 0.95682 0.47357 0.2229 0.0
H3573 H 0.97651 0.48089 0.19495 0.0
H3574 H 0.94022 0.5285 0.18119 0.0
H3575 H 0.92016 0.52104 0.20893 0.0
H3576 H 0.9436 0.50485 0.15139 0.0
H3577 H 0.98706 0.53554 0.19712 0.0
H3578 H 0.00751 0.53766 0.22621 0.0
H3579 H 0.04236 0.49229 0.20478 0.0
H3580 H 0.02198 0.48973 0.17565 0.0
H3581 H 0.99157 0.55088 0.07921 0.0
H3582 H 0.98621 0.54603 0.11325 0.0
H3583 H 0.00929 0.48906 0.10933 0.0
H3584 H 0.01457 0.49362 0.075 0.0
H3585 H 0.01478 0.51534 0.14798 0.0
H3586 H 0.96976 0.48369 0.10293 0.0
H3587 H 0.95012 0.483 0.07335 0.0
H3588 H 0.91841 0.53116 0.09372 0.0
H3589 H 0.93818 0.53236 0.12335 0.0
C3590 C 0.95321 0.48583 0.21415 0.0
C3591 C 0.93679 0.49662 0.21805 0.0
C3592 C 0.96455 0.49004 0.19821 0.0
C3593 C 0.95983 0.50523 0.18601 0.0
C3594 C 0.94405 0.51665 0.19041 0.0
C3595 C 0.93264 0.5124 0.2063 0.0
C3596 C 0.97014 0.50811 0.16773 0.0
C3597 C 0.95914 0.50734 0.15075 0.0
C3598 C 0.99051 0.51071 0.16681 0.0
C3599 C 0.00282 0.51226 0.1843 0.0
C3600 C -0.00103 0.52588 0.19868 0.0
C3601 C 0.01058 0.52719 0.21517 0.0
C3602 C 0.02618 0.51507 0.21738 0.0
C3603 C 0.03024 0.50164 0.20307 0.0
C3604 C 0.01867 0.50026 0.18656 0.0
C3605 C 0.99606 0.53752 0.08563 0.0
C3606 C 0.003 0.52244 0.07432 0.0
C3607 C 0.99314 0.53486 0.10512 0.0
C3608 C 0.99718 0.51715 0.1136 0.0
C3609 C 0.0062 0.50286 0.10293 0.0
C3610 C 0.00908 0.50547 0.08331 0.0
C3611 C 0.98813 0.51237 0.13201 0.0
C3612 C -0.00071 0.51271 0.14884 0.0
C3613 C 0.96788 0.5093 0.1329 0.0
C3614 C 0.95559 0.50823 0.11532 0.0
C3615 C 0.9587 0.49422 0.10109 0.0
C3616 C 0.94754 0.49373 0.0843 0.0
C3617 C 0.93305 0.50706 0.08163 0.0
C3618 C 0.92966 0.52086 0.0958 0.0
C3619 C 0.94084 0.52144 0.11261 0.0
H3620 H 0.92443 0.50668 0.0686 0.0
H3621 H 0.03515 0.51611 0.23015 0.0
H3622 H 0.78619 0.65666 0.4366 0.0
H3623 H 0.79061 0.66863 0.40395 0.0
H3624 H 0.77209 0.72482 0.42171 0.0
H3625 H 0.76742 0.71295 0.45418 0.0
H3626 H 0.74915 0.71028 0.39505 0.0
H3627 H 0.81607 0.71968 0.40293 0.0
H3628 H 0.85052 0.71473 0.40973 0.0
H3629 H 0.85141 0.67066 0.36628 0.0
H3630 H 0.81684 0.67497 0.35949 0.0
H3631 H 0.746 0.74636 0.3017 0.0
H3632 H 0.76133 0.74302 0.33327 0.0
H3633 H 0.76616 0.68183 0.32332 0.0
H3634 H 0.75049 0.68514 0.29176 0.0
H3635 H 0.79913 0.70248 0.34553 0.0
H3636 H 0.72888 0.69175 0.34337 0.0
H3637 H 0.69603 0.70153 0.3346 0.0
H3638 H 0.70437 0.75385 0.36746 0.0
H3639 H 0.73742 0.74449 0.37616 0.0
C3640 C 0.78363 0.67173 0.43368 0.0
C3641 C 0.77604 0.68374 0.44789 0.0
C3642 C 0.78628 0.67859 0.41501 0.0
C3643 C 0.78153 0.69759 0.41031 0.0
C3644 C 0.77574 0.71007 0.42495 0.0
C3645 C 0.773 0.70322 0.44352 0.0
C3646 C 0.77882 0.70321 0.38997 0.0
C3647 C 0.76034 0.70897 0.38438 0.0
C3648 C 0.79323 0.70123 0.37585 0.0
C3649 C 0.81367 0.69746 0.3809 0.0
C3650 C 0.82345 0.70862 0.3951 0.0
C3651 C 0.84306 0.706 0.39889 0.0
C3652 C 0.85313 0.69236 0.38849 0.0
C3653 C 0.84358 0.6812 0.37436 0.0
C3654 C 0.82396 0.6837 0.37056 0.0
C3655 C 0.75104 0.73235 0.30599 0.0
C3656 C 0.74751 0.71604 0.29431 0.0
C3657 C 0.7597 0.73045 0.324 0.0
C3658 C 0.76493 0.71218 0.33053 0.0
C3659 C 0.76252 0.69606 0.31834 0.0
C3660 C 0.75359 0.69794 0.30041 0.0
C3661 C 0.7697 0.70941 0.351 0.0
C3662 C 0.78831 0.70404 0.35645 0.0
C3663 C 0.75563 0.71208 0.36516 0.0
C3664 C 0.73566 0.71753 0.36023 0.0
C3665 C 0.72375 0.70541 0.34859 0.0
C3666 C 0.7051 0.71086 0.34365 0.0
C3667 C 0.69813 0.72833 0.35042 0.0
C3668 C 0.7098 0.74034 0.3622 0.0
C3669 C 0.72848 0.73497 0.36714 0.0
H3670 H 0.68369 0.73253 0.34658 0.0
H3671 H 0.86835 0.69048 0.39134 0.0
H3672 H 0.5685 0.51369 0.80989 0.0
H3673 H 0.56374 0.50924 0.84408 0.0
H3674 H 0.62086 0.48678 0.84969 0.0
H3675 H 0.62571 0.49099 0.81504 0.0
H3676 H 0.59157 0.4687 0.87471 0.0
H3677 H 0.61939 0.53041 0.86002 0.0
H3678 H 0.62328 0.56064 0.84173 0.0
H3679 H 0.56584 0.57625 0.85673 0.0
H3680 H 0.56149 0.54595 0.87485 0.0
H3681 H 0.57133 0.53153 0.96736 0.0
H3682 H 0.5916 0.51901 0.94179 0.0
H3683 H 0.54163 0.48993 0.91626 0.0
H3684 H 0.52131 0.50293 0.94152 0.0
H3685 H 0.57862 0.53198 0.90489 0.0
H3686 H 0.56891 0.44709 0.88964 0.0
H3687 H 0.57062 0.41665 0.90746 0.0
H3688 H 0.59668 0.44699 0.95542 0.0
H3689 H 0.59639 0.47742 0.93751 0.0
C3690 C 0.57995 0.50744 0.81827 0.0
C3691 C 0.5976 0.50297 0.80984 0.0
C3692 C 0.57718 0.50487 0.83781 0.0
C3693 C 0.59206 0.498 0.84943 0.0
C3694 C 0.60922 0.49213 0.84093 0.0
C3695 C 0.61197 0.49457 0.82118 0.0
C3696 C 0.59011 0.49932 0.87051 0.0
C3697 C 0.58869 0.48242 0.8815 0.0
C3698 C 0.58747 0.51744 0.87936 0.0
C3699 C 0.59009 0.53586 0.86873 0.0
C3700 C 0.60755 0.54024 0.85933 0.0
C3701 C 0.60984 0.55739 0.84899 0.0
C3702 C 0.59481 0.57035 0.84805 0.0
C3703 C 0.57747 0.5662 0.85748 0.0
C3704 C 0.5751 0.54905 0.8678 0.0
C3705 C 0.56489 0.52175 0.95674 0.0
C3706 C 0.54491 0.51768 0.95661 0.0
C3707 C 0.57647 0.51456 0.94221 0.0
C3708 C 0.56819 0.50322 0.92734 0.0
C3709 C 0.54841 0.49817 0.92789 0.0
C3710 C 0.53681 0.50556 0.94233 0.0
C3711 C 0.57861 0.50116 0.90906 0.0
C3712 C 0.58163 0.5181 0.89844 0.0
C3713 C 0.58301 0.48304 0.90087 0.0
C3714 C 0.58234 0.46481 0.91219 0.0
C3715 C 0.57517 0.44735 0.90392 0.0
C3716 C 0.57605 0.42999 0.91401 0.0
C3717 C 0.5837 0.42987 0.93259 0.0
C3718 C 0.59065 0.4471 0.94106 0.0
C3719 C 0.59017 0.46444 0.9309 0.0
H3720 H 0.58422 0.41644 0.94043 0.0
H3721 H 0.59661 0.58362 0.84004 0.0
H3722 H 0.75785 0.29086 0.03126 0.0
H3723 H 0.74955 0.27552 0.06159 0.0
H3724 H 0.72024 0.32663 0.07916 0.0
H3725 H 0.72857 0.34219 0.04882 0.0
H3726 H 0.74648 0.31517 0.10586 0.0
H3727 H 0.69478 0.28556 0.06854 0.0
H3728 H 0.68023 0.26723 0.04135 0.0
H3729 H 0.71301 0.21784 0.05642 0.0
H3730 H 0.72796 0.23597 0.08357 0.0
H3731 H 0.70129 0.28235 0.18838 0.0
H3732 H 0.70317 0.28987 0.15446 0.0
H3733 H 0.74414 0.24504 0.14651 0.0
H3734 H 0.74273 0.2375 0.18075 0.0
H3735 H 0.7124 0.25165 0.11489 0.0
H3736 H 0.76544 0.28145 0.15079 0.0
H3737 H 0.77954 0.29908 0.17864 0.0
H3738 H 0.74461 0.34765 0.16606 0.0
H3739 H 0.73001 0.33012 0.13833 0.0
C3740 C 0.74937 0.29875 0.04143 0.0
C3741 C 0.74396 0.3178 0.03766 0.0
C3742 C 0.74458 0.28992 0.05875 0.0
C3743 C 0.73427 0.29993 0.07262 0.0
C3744 C 0.72824 0.31867 0.06863 0.0
C3745 C 0.73293 0.3275 0.05126 0.0
C3746 C 0.73108 0.2914 0.09179 0.0
C3747 C 0.73881 0.30141 0.1078 0.0
C3748 C 0.72163 0.27313 0.09428 0.0
C3749 C 0.71264 0.26219 0.07798 0.0
C3750 C 0.69902 0.27084 0.06596 0.0
C3751 C 0.69067 0.26048 0.05058 0.0
C3752 C 0.69573 0.2414 0.04713 0.0
C3753 C 0.70912 0.23263 0.05909 0.0
C3754 C 0.71752 0.24293 0.0745 0.0
C3755 C 0.71045 0.27375 0.17945 0.0
C3756 C 0.72211 0.25951 0.18741 0.0
C3757 C 0.71142 0.27807 0.16003 0.0
C3758 C 0.7239 0.26811 0.14813 0.0
C3759 C 0.7344 0.25283 0.15556 0.0
C3760 C 0.7336 0.24859 0.17513 0.0
C3761 C 0.72766 0.27553 0.12872 0.0
C3762 C 0.7201 0.26537 0.11279 0.0
C3763 C 0.73742 0.29359 0.12621 0.0
C3764 C 0.74647 0.30438 0.14261 0.0
C3765 C 0.76063 0.29582 0.15406 0.0
C3766 C 0.76874 0.3058 0.16982 0.0
C3767 C 0.76294 0.32446 0.17416 0.0
C3768 C 0.74907 0.33319 0.1627 0.0
C3769 C 0.74088 0.32323 0.14696 0.0
H3770 H 0.76922 0.33217 0.18636 0.0
H3771 H 0.68925 0.2334 0.03521 0.0
H3772 H 0.90758 0.46124 0.3214 0.0
H3773 H 0.91007 0.46915 0.35524 0.0
H3774 H 0.8835 0.52374 0.34494 0.0
H3775 H 0.8812 0.51599 0.31067 0.0
H3776 H 0.91578 0.52905 0.36432 0.0
H3777 H 0.86054 0.48983 0.37389 0.0
H3778 H 0.83768 0.46199 0.37002 0.0
H3779 H 0.87963 0.42438 0.39388 0.0
H3780 H 0.90288 0.4519 0.39763 0.0
H3781 H 0.95979 0.53417 0.45714 0.0
H3782 H 0.93194 0.53516 0.43503 0.0
H3783 H 0.94387 0.4775 0.41543 0.0
H3784 H 0.97096 0.4763 0.43795 0.0
H3785 H 0.9057 0.48208 0.41692 0.0
H3786 H 0.96277 0.52071 0.39329 0.0
H3787 H 0.98589 0.54866 0.39398 0.0
H3788 H 0.93883 0.58751 0.39588 0.0
H3789 H 0.91547 0.55977 0.39532 0.0
C3790 C 0.902 0.47483 0.32629 0.0
C3791 C 0.89438 0.48807 0.31329 0.0
C3792 C 0.9032 0.47924 0.34575 0.0
C3793 C 0.89667 0.49692 0.35273 0.0
C3794 C 0.88845 0.50994 0.33989 0.0
C3795 C 0.88722 0.50551 0.32032 0.0
C3796 C 0.90116 0.50255 0.37284 0.0
C3797 C 0.913 0.51911 0.37601 0.0
C3798 C 0.89741 0.48972 0.38816 0.0
C3799 C 0.88348 0.47301 0.38607 0.0
C3800 C 0.86494 0.47562 0.37824 0.0
C3801 C 0.8519 0.45988 0.37606 0.0
C3802 C 0.85719 0.44144 0.38171 0.0
C3803 C 0.87553 0.43869 0.38955 0.0
C3804 C 0.88864 0.45437 0.39175 0.0
C3805 C 0.95587 0.52149 0.44861 0.0
C3806 C 0.96711 0.50499 0.44942 0.0
C3807 C 0.94018 0.52215 0.43584 0.0
C3808 C 0.93585 0.50643 0.42353 0.0
C3809 C 0.94678 0.48973 0.42491 0.0
C3810 C 0.96231 0.48907 0.43766 0.0
C3811 C 0.92152 0.5076 0.40771 0.0
C3812 C 0.9077 0.49242 0.40544 0.0
C3813 C 0.92337 0.52172 0.3932 0.0
C3814 C 0.93744 0.53823 0.3945 0.0
C3815 C 0.9574 0.53522 0.39405 0.0
C3816 C 0.97053 0.55102 0.39434 0.0
C3817 C 0.96382 0.56985 0.39496 0.0
C3818 C 0.94399 0.57292 0.39538 0.0
C3819 C 0.93081 0.55719 0.39511 0.0
H3820 H 0.97398 0.58207 0.39509 0.0
H3821 H 0.84707 0.42927 0.38 0.0
H3822 H 0.74564 0.64384 0.56051 0.0
H3823 H 0.74993 0.6491 0.59516 0.0
H3824 H 0.79427 0.69281 0.58423 0.0
H3825 H 0.78972 0.68773 0.54958 0.0
H3826 H 0.80307 0.66837 0.61559 0.0
H3827 H 0.7509 0.70626 0.59135 0.0
H3828 H 0.71971 0.71201 0.57541 0.0
H3829 H 0.6905 0.67566 0.61629 0.0
H3830 H 0.72162 0.66935 0.63225 0.0
H3831 H 0.801 0.7407 0.68631 0.0
H3832 H 0.80263 0.71762 0.65995 0.0
H3833 H 0.75589 0.68354 0.68444 0.0
H3834 H 0.7543 0.70673 0.71102 0.0
H3835 H 0.74723 0.6958 0.64898 0.0
H3836 H 0.79904 0.66305 0.67688 0.0
H3837 H 0.83018 0.659 0.69354 0.0
H3838 H 0.86005 0.68661 0.64701 0.0
H3839 H 0.82907 0.69111 0.63018 0.0
C3840 C 0.75653 0.65429 0.56561 0.0
C3841 C 0.76746 0.66533 0.55258 0.0
C3842 C 0.75894 0.65731 0.58533 0.0
C3843 C 0.77238 0.67138 0.59225 0.0
C3844 C 0.7839 0.68182 0.57918 0.0
C3845 C 0.7813 0.67896 0.55946 0.0
C3846 C 0.77339 0.67637 0.61294 0.0
C3847 C 0.7909 0.67439 0.62294 0.0
C3848 C 0.7573 0.68365 0.62265 0.0
C3849 C 0.73864 0.68704 0.61277 0.0
C3850 C 0.73788 0.69924 0.59676 0.0
C3851 C 0.7202 0.70265 0.58776 0.0
C3852 C 0.70314 0.69412 0.59477 0.0
C3853 C 0.70373 0.68218 0.61082 0.0
C3854 C 0.72139 0.67866 0.61983 0.0
C3855 C 0.79161 0.72786 0.68649 0.0
C3856 C 0.77744 0.72556 0.70064 0.0
C3857 C 0.79257 0.71462 0.67142 0.0
C3858 C 0.77933 0.69886 0.67014 0.0
C3859 C 0.76627 0.69559 0.68516 0.0
C3860 C 0.76546 0.70876 0.70042 0.0
C3861 C 0.77706 0.6882 0.65167 0.0
C3862 C 0.75929 0.68923 0.64193 0.0
C3863 C 0.79293 0.68012 0.64225 0.0
C3864 C 0.81167 0.6775 0.65229 0.0
C3865 C 0.81222 0.6684 0.67025 0.0
C3866 C 0.82986 0.666 0.67972 0.0
C3867 C 0.84708 0.67257 0.67135 0.0
C3868 C 0.8467 0.68153 0.65348 0.0
C3869 C 0.8291 0.68398 0.64395 0.0
H3870 H 0.86072 0.67069 0.6787 0.0
H3871 H 0.68946 0.69683 0.58782 0.0
H3872 H 0.68601 0.64635 0.48397 0.0
H3873 H 0.65596 0.62726 0.48138 0.0
H3874 H 0.68765 0.57478 0.48533 0.0
H3875 H 0.71812 0.59393 0.48772 0.0
H3876 H 0.65852 0.57197 0.45829 0.0
H3877 H 0.66481 0.59233 0.52412 0.0
H3878 H 0.66966 0.61597 0.55042 0.0
H3879 H 0.6189 0.64525 0.53245 0.0
H3880 H 0.6139 0.62193 0.50585 0.0
H3881 H 0.5851 0.50633 0.48609 0.0
H3882 H 0.61338 0.52754 0.48316 0.0
H3883 H 0.57731 0.5772 0.48284 0.0
H3884 H 0.5485 0.55581 0.48626 0.0
H3885 H 0.60764 0.58306 0.5063 0.0
H3886 H 0.60002 0.56158 0.44164 0.0
H3887 H 0.59501 0.53792 0.41538 0.0
H3888 H 0.64788 0.51092 0.43077 0.0
H3889 H 0.65308 0.53425 0.4573 0.0
C3890 C 0.68672 0.63074 0.48422 0.0
C3891 C 0.70456 0.62169 0.48625 0.0
C3892 C 0.66944 0.61984 0.48279 0.0
C3893 C 0.66948 0.59959 0.48351 0.0
C3894 C 0.68727 0.59041 0.48484 0.0
C3895 C 0.70467 0.60136 0.48623 0.0
C3896 C 0.65087 0.58816 0.48332 0.0
C3897 C 0.64748 0.57422 0.46891 0.0
C3898 C 0.63618 0.59154 0.49681 0.0
C3899 C 0.6391 0.6055 0.51288 0.0
C3900 C 0.65477 0.6039 0.52568 0.0
C3901 C 0.65753 0.61722 0.54066 0.0
C3902 C 0.64463 0.63213 0.54307 0.0
C3903 C 0.6289 0.63371 0.53054 0.0
C3904 C 0.62609 0.62043 0.51552 0.0
C3905 C 0.58297 0.52174 0.48526 0.0
C3906 C 0.56436 0.52931 0.48644 0.0
C3907 C 0.59929 0.53389 0.48344 0.0
C3908 C 0.59755 0.55399 0.48245 0.0
C3909 C 0.57902 0.56171 0.48346 0.0
C3910 C 0.56255 0.54947 0.48537 0.0
C3911 C 0.6153 0.56671 0.48134 0.0
C3912 C 0.61857 0.5809 0.49555 0.0
C3913 C 0.62985 0.56358 0.46762 0.0
C3914 C 0.62687 0.54961 0.45155 0.0
C3915 C 0.61052 0.55053 0.43951 0.0
C3916 C 0.60765 0.53718 0.42456 0.0
C3917 C 0.6211 0.52291 0.42143 0.0
C3918 C 0.63747 0.52198 0.43321 0.0
C3919 C 0.6404 0.53528 0.44819 0.0
H3920 H 0.61885 0.51258 0.40985 0.0
H3921 H 0.64679 0.64244 0.55468 0.0
H3922 H 0.20224 0.89607 0.5182 0.0
H3923 H 0.17124 0.91155 0.5213 0.0
H3924 H 0.18453 0.94759 0.47273 0.0
H3925 H 0.21567 0.93208 0.46941 0.0
H3926 H 0.16622 0.96749 0.50312 0.0
H3927 H 0.15673 0.91022 0.46478 0.0
H3928 H 0.15923 0.87561 0.45691 0.0
H3929 H 0.12683 0.86044 0.50703 0.0
H3930 H 0.12438 0.89498 0.51536 0.0
H3931 H 0.06791 0.99287 0.48499 0.0
H3932 H 0.10154 0.9833 0.4833 0.0
H3933 H 0.08989 0.9384 0.52465 0.0
H3934 H 0.05616 0.94746 0.52585 0.0
H3935 H 0.1081 0.92403 0.49623 0.0
H3936 H 0.11791 0.9815 0.53497 0.0
H3937 H 0.11533 0.01615 0.54266 0.0
H3938 H 0.14673 0.03113 0.49185 0.0
H3939 H 0.14929 0.99655 0.48375 0.0
C3940 C 0.19875 0.90746 0.5083 0.0
C3941 C 0.21142 0.91272 0.49345 0.0
C3942 C 0.18097 0.91626 0.51008 0.0
C3943 C 0.17549 0.93056 0.49711 0.0
C3944 C 0.18847 0.93656 0.48286 0.0
C3945 C 0.20624 0.92764 0.48096 0.0
C3946 C 0.15575 0.9383 0.49782 0.0
C3947 C 0.15348 0.95807 0.50141 0.0
C3948 C 0.13915 0.92596 0.49579 0.0
C3949 C 0.14055 0.90518 0.4908 0.0
C3950 C 0.15028 0.8995 0.47422 0.0
C3951 C 0.15166 0.8799 0.46965 0.0
C3952 C 0.14324 0.86583 0.48149 0.0
C3953 C 0.13337 0.87135 0.49789 0.0
C3954 C 0.13197 0.89094 0.50254 0.0
C3955 C 0.07261 0.9812 0.49397 0.0
C3956 C 0.05936 0.97095 0.50557 0.0
C3957 C 0.09189 0.97576 0.49305 0.0
C3958 C 0.09838 0.9602 0.50399 0.0
C3959 C 0.08526 0.95039 0.51602 0.0
C3960 C 0.06598 0.95563 0.51674 0.0
C3961 C 0.11842 0.95323 0.50208 0.0
C3962 C 0.12078 0.93353 0.49807 0.0
C3963 C 0.13503 0.96568 0.50374 0.0
C3964 C 0.13365 0.98645 0.50868 0.0
C3965 C 0.12416 0.99219 0.52538 0.0
C3966 C 0.12272 0.01181 0.52982 0.0
C3967 C 0.13082 0.02583 0.51773 0.0
C3968 C 0.14044 0.02026 0.5012 0.0
C3969 C 0.14191 0.00065 0.49669 0.0
H3970 H 0.12968 0.04102 0.52119 0.0
H3971 H 0.14432 0.85067 0.47793 0.0
H3972 H 0.37029 0.92265 0.71285 0.0
H3973 H 0.34816 0.89473 0.70873 0.0
H3974 H 0.30496 0.92388 0.7412 0.0
H3975 H 0.32686 0.95216 0.74477 0.0
H3976 H 0.33605 0.87232 0.73551 0.0
H3977 H 0.26025 0.90618 0.73088 0.0
H3978 H 0.2451 0.93457 0.71662 0.0
H3979 H 0.28957 0.93821 0.67426 0.0
H3980 H 0.30484 0.9097 0.6881 0.0
H3981 H 0.23518 0.82301 0.75203 0.0
H3982 H 0.2565 0.85169 0.74853 0.0
H3983 H 0.29457 0.81878 0.71334 0.0
H3984 H 0.27308 0.79037 0.71655 0.0
H3985 H 0.26661 0.87146 0.71733 0.0
H3986 H 0.34111 0.83738 0.71893 0.0
H3987 H 0.35622 0.80791 0.73081 0.0
H3988 H 0.31533 0.80424 0.77656 0.0
H3989 H 0.30008 0.83378 0.76504 0.0
C3990 C 0.35591 0.92326 0.71877 0.0
C3991 C 0.3503 0.93953 0.72922 0.0
C3992 C 0.34331 0.90727 0.71644 0.0
C3993 C 0.32491 0.90716 0.72467 0.0
C3994 C 0.31897 0.92373 0.73444 0.0
C3995 C 0.3315 0.93988 0.73653 0.0
C3996 C 0.31272 0.88912 0.72454 0.0
C3997 C 0.32094 0.87209 0.7312 0.0
C3998 C 0.29295 0.88883 0.71919 0.0
C3999 C 0.28378 0.9059 0.71065 0.0
C4000 C 0.26675 0.91299 0.71847 0.0
C4001 C 0.25816 0.92911 0.71047 0.0
C4002 C 0.26641 0.93822 0.69458 0.0
C4003 C 0.28324 0.93119 0.68662 0.0
C4004 C 0.29189 0.91507 0.69456 0.0
C4005 C 0.24821 0.82194 0.74368 0.0
C4006 C 0.2529 0.80437 0.73502 0.0
C4007 C 0.2603 0.83831 0.74161 0.0
C4008 C 0.27721 0.83738 0.73077 0.0
C4009 C 0.28179 0.81984 0.72198 0.0
C4010 C 0.26971 0.80349 0.72409 0.0
C4011 C 0.28988 0.85487 0.72861 0.0
C4012 C 0.28175 0.87175 0.7215 0.0
C4013 C 0.3098 0.85497 0.73333 0.0
C4014 C 0.3193 0.83765 0.74095 0.0
C4015 C 0.33542 0.83035 0.73159 0.0
C4016 C 0.34399 0.81362 0.73825 0.0
C4017 C 0.3367 0.80417 0.75439 0.0
C4018 C 0.3209 0.81152 0.764 0.0
C4019 C 0.31227 0.82824 0.75739 0.0
H4020 H 0.34331 0.79117 0.75947 0.0
H4021 H 0.25973 0.95071 0.68842 0.0
H4022 H 0.31182 0.07967 0.94658 0.0
H4023 H 0.34193 0.06214 0.94794 0.0
H4024 H 0.3424 0.06677 0.00956 0.0
H4025 H 0.31222 0.08404 0.00836 0.0
H4026 H 0.37693 0.07372 0.96038 0.0
H4027 H 0.36293 0.02815 0.0291 0.0
H4028 H 0.33567 0.01126 0.04506 0.0
H4029 H 0.30522 0.00588 0.99132 0.0
H4030 H 0.33238 0.0225 0.975 0.0
H4031 H 0.45952 0.04999 0.01456 0.0
H4032 H 0.4295 0.06075 -0.00013 0.0
H4033 H 0.41541 0.00221 0.98169 0.0
H4034 H 0.44557 0.99148 -0.00352 0.0
H4035 H 0.38683 0.01747 0.00269 0.0
H4036 H 0.42249 0.03541 0.94827 0.0
H4037 H 0.45031 0.04962 0.93091 0.0
H4038 H 0.43698 0.10603 0.95193 0.0
H4039 H 0.40926 0.09206 0.96966 0.0
C4040 C 0.31817 0.07673 0.96046 0.0
C4041 C 0.30954 0.08326 0.97738 0.0
C4042 C 0.33547 0.06681 0.96118 0.0
C4043 C 0.34443 0.06309 0.97883 0.0
C4044 C 0.33565 0.06924 -0.00424 0.0
C4045 C 0.31837 0.07915 0.99506 0.0
C4046 C 0.36328 0.05335 0.97965 0.0
C4047 C 0.37906 0.06138 0.96956 0.0
C4048 C 0.36601 0.03687 0.99117 0.0
C4049 C 0.34965 0.02672 0.00086 0.0
C4050 C 0.35046 0.02328 0.02067 0.0
C4051 C 0.33501 0.01378 0.02979 0.0
C4052 C 0.3187 0.00755 0.01922 0.0
C4053 C 0.31783 0.01077 -0.0005 0.0
C4054 C 0.33324 0.02026 0.99032 0.0
C4055 C 0.45035 0.03961 0.00676 0.0
C4056 C 0.45495 0.02004 0.00622 0.0
C4057 C 0.43319 0.04572 -0.00158 0.0
C4058 C 0.42021 0.03228 0.98966 0.0
C4059 C 0.42525 0.01282 0.98834 0.0
C4060 C 0.44256 0.00674 -0.00346 0.0
C4061 C 0.40056 0.03834 0.98407 0.0
C4062 C 0.38463 0.02967 0.99333 0.0
C4063 C 0.39765 0.05396 0.97151 0.0
C4064 C 0.41386 0.06265 0.96037 0.0
C4065 C 0.42555 0.05083 0.94923 0.0
C4066 C 0.4413 0.05884 0.93934 0.0
C4067 C 0.44544 0.07872 0.94035 0.0
C4068 C 0.43375 0.09063 0.95117 0.0
C4069 C 0.41799 0.08267 0.96112 0.0
H4070 H 0.45767 0.08491 0.93273 0.0
H4071 H 0.30675 0.00019 0.0263 0.0
H4072 H 0.66598 0.55027 0.72183 0.0
H4073 H 0.68576 0.57929 0.7138 0.0
H4074 H 0.66765 0.60679 0.76597 0.0
H4075 H 0.64756 0.57839 0.77352 0.0
H4076 H 0.66357 0.63069 0.73805 0.0
H4077 H 0.71445 0.58787 0.75862 0.0
H4078 H 0.73361 0.55849 0.75657 0.0
H4079 H 0.74882 0.57247 0.6987 0.0
H4080 H 0.72957 0.60183 0.70037 0.0
H4081 H 0.75307 0.68079 0.773 0.0
H4082 H 0.739 0.65221 0.75769 0.0
H4083 H 0.70632 0.68796 0.71951 0.0
H4084 H 0.72 0.71709 0.73585 0.0
H4085 H 0.73424 0.63304 0.72735 0.0
H4086 H 0.66194 0.66507 0.71209 0.0
H4087 H 0.64311 0.69403 0.71869 0.0
H4088 H 0.67177 0.70121 0.77321 0.0
H4089 H 0.69041 0.67202 0.76711 0.0
C4090 C 0.66663 0.5624 0.73172 0.0
C4091 C 0.65529 0.5621 0.74831 0.0
C4092 C 0.67782 0.57902 0.72708 0.0
C4093 C 0.67808 0.5954 0.73917 0.0
C4094 C 0.66748 0.59456 0.75621 0.0
C4095 C 0.65615 0.57821 0.76064 0.0
C4096 C 0.68886 0.61374 0.73437 0.0
C4097 C 0.67901 0.63116 0.7355 0.0
C4098 C 0.7089 0.61451 0.73055 0.0
C4099 C 0.72037 0.59686 0.72953 0.0
C4100 C 0.72176 0.58457 0.74541 0.0
C4101 C 0.73265 0.56795 0.74433 0.0
C4102 C 0.74236 0.56357 0.72749 0.0
C4103 C 0.74125 0.57585 0.71171 0.0
C4104 C 0.73035 0.59247 0.71272 0.0
C4105 C 0.74323 0.68263 0.76102 0.0
C4106 C 0.73731 0.7011 0.75586 0.0
C4107 C 0.73526 0.66619 0.75211 0.0
C4108 C 0.72113 0.66773 0.73771 0.0
C4109 C 0.71683 0.68631 0.73092 0.0
C4110 C 0.72476 0.70298 0.74011 0.0
C4111 C 0.70922 0.64998 0.73267 0.0
C4112 C 0.7187 0.63259 0.72931 0.0
C4113 C 0.68891 0.64917 0.73508 0.0
C4114 C 0.67773 0.66659 0.73902 0.0
C4115 C 0.66418 0.67285 0.72549 0.0
C4116 C 0.65355 0.68928 0.72914 0.0
C4117 C 0.65636 0.69955 0.74628 0.0
C4118 C 0.66967 0.6933 0.7599 0.0
C4119 C 0.68022 0.67678 0.75639 0.0
H4120 H 0.64814 0.71228 0.74906 0.0
H4121 H 0.7508 0.55071 0.72668 0.0
H4122 H 0.83333 0.36507 0.00155 0.0
H4123 H 0.86162 0.38638 0.00564 0.0
H4124 H 0.82499 0.43441 0.0165 0.0
H4125 H 0.79628 0.41309 0.01185 0.0
H4126 H 0.85187 0.44419 0.99171 0.0
H4127 H 0.85233 0.41284 0.05259 0.0
H4128 H 0.85182 0.38561 0.07522 0.0
H4129 H 0.90422 0.36507 0.05122 0.0
H4130 H 0.90493 0.392 0.02826 0.0
H4131 H 0.92766 0.50822 0.02158 0.0
H4132 H 0.89916 0.48675 0.02094 0.0
H4133 H 0.93416 0.43901 0.00476 0.0
H4134 H 0.96303 0.46053 0.00529 0.0
H4135 H 0.90808 0.42952 0.03319 0.0
H4136 H 0.90686 0.45987 0.97164 0.0
H4137 H 0.90786 0.48733 0.94929 0.0
H4138 H 0.85707 0.50973 0.97495 0.0
H4139 H 0.85592 0.48253 -0.00234 0.0
C4140 C 0.83118 0.38012 0.00499 0.0
C4141 C 0.81247 0.38737 0.00637 0.0
C4142 C 0.84745 0.39229 0.00746 0.0
C4143 C 0.84549 0.41194 0.01168 0.0
C4144 C 0.82685 0.41924 0.01333 0.0
C4145 C 0.81046 0.40706 0.01071 0.0
C4146 C 0.86292 0.42498 0.01308 0.0
C4147 C 0.864 0.44116 0.00107 0.0
C4148 C 0.87903 0.42069 0.02483 0.0
C4149 C 0.87856 0.40436 0.03856 0.0
C4150 C 0.86365 0.40242 0.05201 0.0
C4151 C 0.86335 0.38705 0.06493 0.0
C4152 C 0.87796 0.37359 0.06463 0.0
C4153 C 0.89292 0.37549 0.05143 0.0
C4154 C 0.89328 0.39081 0.03847 0.0
C4155 C 0.92939 0.49319 0.01773 0.0
C4156 C 0.94768 0.48613 0.01338 0.0
C4157 C 0.91302 0.48094 0.0174 0.0
C4158 C 0.91451 0.46137 0.01258 0.0
C4159 C 0.93273 0.45411 0.00848 0.0
C4160 C 0.9492 0.46642 0.00879 0.0
C4161 C 0.89693 0.4486 0.01185 0.0
C4162 C 0.89587 0.43251 0.02394 0.0
C4163 C 0.88083 0.45294 0.00018 0.0
C4164 C 0.88141 0.46925 0.98647 0.0
C4165 C 0.89599 0.47073 0.97262 0.0
C4166 C 0.89657 0.48623 0.95987 0.0
C4167 C 0.88256 0.50029 0.96073 0.0
C4168 C 0.86792 0.49884 0.97432 0.0
C4169 C 0.86729 0.48337 0.98712 0.0
H4170 H 0.88303 0.51228 0.95084 0.0
H4171 H 0.87771 0.36171 0.07466 0.0
H4172 H 0.34528 0.04734 0.72799 0.0
H4173 H 0.32921 0.07809 0.72585 0.0
H4174 H 0.3048 0.06903 0.78177 0.0
H4175 H 0.32077 0.03798 0.78402 0.0
H4176 H 0.27868 0.08536 0.75603 0.0
H4177 H 0.343 0.09771 0.77914 0.0
H4178 H 0.37847 0.09537 0.77969 0.0
H4179 H 0.38171 0.12168 0.72423 0.0
H4180 H 0.34622 0.12392 0.72322 0.0
H4181 H 0.26149 0.18842 0.76567 0.0
H4182 H 0.26957 0.15454 0.7706 0.0
H4183 H 0.29961 0.15454 0.71678 0.0
H4184 H 0.29176 0.18816 0.71183 0.0
H4185 H 0.32213 0.14271 0.7456 0.0
H4186 H 0.25615 0.12922 0.7232 0.0
H4187 H 0.2208 0.13227 0.72478 0.0
H4188 H 0.22093 0.10946 0.78183 0.0
H4189 H 0.25632 0.10646 0.78066 0.0
C4190 C 0.33637 0.05174 0.7398 0.0
C4191 C 0.33449 0.04027 0.75627 0.0
C4192 C 0.32719 0.06935 0.73854 0.0
C4193 C 0.31603 0.07595 0.75376 0.0
C4194 C 0.31339 0.06419 0.76989 0.0
C4195 C 0.32259 0.0465 0.77116 0.0
C4196 C 0.30821 0.09564 0.7531 0.0
C4197 C 0.28816 0.09795 0.75394 0.0
C4198 C 0.32058 0.11207 0.75048 0.0
C4199 C 0.34194 0.11081 0.75104 0.0
C4200 C 0.35127 0.10285 0.767 0.0
C4201 C 0.37138 0.10157 0.7674 0.0
C4202 C 0.38233 0.10833 0.75198 0.0
C4203 C 0.3732 0.11643 0.73615 0.0
C4204 C 0.35309 0.11772 0.73566 0.0
C4205 C 0.26949 0.18106 0.75473 0.0
C4206 C 0.27614 0.19105 0.73844 0.0
C4207 C 0.27412 0.16171 0.75758 0.0
C4208 C 0.28532 0.15205 0.7441 0.0
C4209 C 0.2911 0.16175 0.72744 0.0
C4210 C 0.28658 0.18099 0.72463 0.0
C4211 C 0.29253 0.13243 0.74777 0.0
C4212 C 0.31258 0.13015 0.74764 0.0
C4213 C 0.28014 0.1162 0.7513 0.0
C4214 C 0.25888 0.11777 0.75189 0.0
C4215 C 0.24864 0.12496 0.73612 0.0
C4216 C 0.2286 0.12666 0.73693 0.0
C4217 C 0.21863 0.1211 0.75341 0.0
C4218 C 0.22868 0.11377 0.76909 0.0
C4219 C 0.24872 0.11205 0.76834 0.0
H4220 H 0.20312 0.12244 0.75402 0.0
H4221 H 0.3979 0.10733 0.75233 0.0
H4222 H 0.14246 0.93358 0.23941 0.0
H4223 H 0.15467 0.90086 0.23746 0.0
H4224 H 0.19822 0.91568 0.28008 0.0
H4225 H 0.18589 0.94845 0.28236 0.0
H4226 H 0.21201 0.89475 0.24744 0.0
H4227 H 0.16203 0.88998 0.29436 0.0
H4228 H 0.12933 0.89426 0.30704 0.0
H4229 H 0.10509 0.85869 0.26168 0.0
H4230 H 0.13763 0.85444 0.24854 0.0
H4231 H 0.24105 0.79814 0.25172 0.0
H4232 H 0.22986 0.82928 0.26335 0.0
H4233 H 0.17637 0.81987 0.23188 0.0
H4234 H 0.18728 0.7884 0.22106 0.0
H4235 H 0.16891 0.83845 0.2631 0.0
H4236 H 0.21668 0.84613 0.2138 0.0
H4237 H 0.24852 0.84228 0.199 0.0
H4238 H 0.27599 0.87283 0.24609 0.0
H4239 H 0.24429 0.87655 0.26138 0.0
C4240 C 0.15473 0.92997 0.24828 0.0
C4241 C 0.16318 0.94366 0.26107 0.0
C4242 C 0.16163 0.91121 0.24722 0.0
C4243 C 0.17724 0.90577 0.25876 0.0
C4244 C 0.18612 0.91955 0.2711 0.0
C4245 C 0.17904 0.93827 0.27238 0.0
C4246 C 0.1841 0.88563 0.25796 0.0
C4247 C 0.20274 0.88244 0.2512 0.0
C4248 C 0.17185 0.86955 0.26248 0.0
C4249 C 0.15226 0.87204 0.27037 0.0
C4250 C 0.14971 0.88321 0.28699 0.0
C4251 C 0.13121 0.8856 0.29428 0.0
C4252 C 0.11514 0.87679 0.28515 0.0
C4253 C 0.11755 0.86553 0.26873 0.0
C4254 C 0.13602 0.8631 0.26136 0.0
C4255 C 0.22652 0.80228 0.24817 0.0
C4256 C 0.21473 0.79058 0.23609 0.0
C4257 C 0.22028 0.82031 0.25443 0.0
C4258 C 0.20235 0.82716 0.24827 0.0
C4259 C 0.19022 0.81498 0.23693 0.0
C4260 C 0.19641 0.79695 0.2308 0.0
C4261 C 0.19677 0.84746 0.25222 0.0
C4262 C 0.17833 0.85072 0.25957 0.0
C4263 C 0.20911 0.86361 0.24796 0.0
C4264 C 0.22816 0.86142 0.23883 0.0
C4265 C 0.22953 0.85189 0.22107 0.0
C4266 C 0.24754 0.84973 0.21261 0.0
C4267 C 0.26427 0.85723 0.22166 0.0
C4268 C 0.26301 0.86696 0.23917 0.0
C4269 C 0.24504 0.86909 0.24774 0.0
H4270 H 0.2782 0.85557 0.21507 0.0
H4271 H 0.10083 0.87865 0.29082 0.0
H4272 H 0.46967 0.30281 0.43148 0.0
H4273 H 0.4694 0.3373 0.43868 0.0
H4274 H 0.51128 0.34843 0.39445 0.0
H4275 H 0.51194 0.31373 0.38739 0.0
H4276 H 0.52033 0.36918 0.42475 0.0
H4277 H 0.46265 0.35886 0.38825 0.0
H4278 H 0.43148 0.34322 0.37876 0.0
H4279 H 0.4075 0.35827 0.43309 0.0
H4280 H 0.43863 0.37376 0.44303 0.0
H4281 H 0.51653 0.46688 0.44101 0.0
H4282 H 0.50675 0.43906 0.42097 0.0
H4283 H 0.47226 0.4161 0.46712 0.0
H4284 H 0.48192 0.444 0.48704 0.0
H4285 H 0.45868 0.40338 0.43033 0.0
H4286 H 0.51864 0.40721 0.46811 0.0
H4287 H 0.54994 0.42263 0.47765 0.0
H4288 H 0.56919 0.41987 0.41947 0.0
H4289 H 0.53793 0.4045 0.40959 0.0
C4290 C 0.47894 0.31254 0.42332 0.0
C4291 C 0.49082 0.30544 0.40881 0.0
C4292 C 0.4786 0.33234 0.42733 0.0
C4293 C 0.48993 0.34559 0.41679 0.0
C4294 C 0.50225 0.33853 0.40266 0.0
C4295 C 0.50268 0.31866 0.3987 0.0
C4296 C 0.48941 0.3667 0.42109 0.0
C4297 C 0.50685 0.3767 0.4255 0.0
C4298 C 0.47183 0.37661 0.42235 0.0
C4299 C 0.45304 0.36735 0.41644 0.0
C4300 C 0.45078 0.35871 0.39824 0.0
C4301 C 0.43311 0.34989 0.39277 0.0
C4302 C 0.41753 0.34972 0.40533 0.0
C4303 C 0.41959 0.35841 0.42338 0.0
C4304 C 0.43724 0.36723 0.42893 0.0
C4305 C 0.5058 0.45657 0.44637 0.0
C4306 C 0.49981 0.45762 0.46548 0.0
C4307 C 0.50044 0.44052 0.43501 0.0
C4308 C 0.48923 0.42525 0.44276 0.0
C4309 C 0.48099 0.42766 0.46087 0.0
C4310 C 0.48634 0.44375 0.47221 0.0
C4311 C 0.48953 0.40558 0.43411 0.0
C4312 C 0.47211 0.39586 0.42906 0.0
C4313 C 0.50712 0.39587 0.43214 0.0
C4314 C 0.52593 0.40492 0.43809 0.0
C4315 C 0.52953 0.40999 0.45735 0.0
C4316 C 0.54725 0.4187 0.46282 0.0
C4317 C 0.56151 0.42231 0.44916 0.0
C4318 C 0.55811 0.41711 0.43002 0.0
C4319 C 0.54042 0.40838 0.42448 0.0
H4320 H 0.57522 0.42908 0.45342 0.0
H4321 H 0.40386 0.34289 0.40107 0.0
H4322 H 0.44875 0.76821 0.15797 0.0
H4323 H 0.4154 0.77137 0.16855 0.0
H4324 H 0.42848 0.74051 0.22033 0.0
H4325 H 0.46173 0.73722 0.2099 0.0
H4326 H 0.39588 0.72588 0.20272 0.0
H4327 H 0.4217 0.78841 0.22196 0.0
H4328 H 0.43887 0.81982 0.21744 0.0
H4329 H 0.39742 0.83503 0.17439 0.0
H4330 H 0.38014 0.80359 0.17848 0.0
H4331 H 0.30633 0.74103 0.24824 0.0
H4332 H 0.34107 0.74214 0.24193 0.0
H4333 H 0.33097 0.77303 0.18949 0.0
H4334 H 0.29637 0.77215 0.19569 0.0
H4335 H 0.36238 0.78789 0.20883 0.0
H4336 H 0.33749 0.72565 0.18792 0.0
H4337 H 0.31988 0.69431 0.1914 0.0
H4338 H 0.35911 0.67846 0.23621 0.0
H4339 H 0.37683 0.70982 0.23316 0.0
C4340 C 0.44462 0.76235 0.17174 0.0
C4341 C 0.45794 0.75244 0.18306 0.0
C4342 C 0.42554 0.76417 0.17777 0.0
C4343 C 0.41946 0.75617 0.19524 0.0
C4344 C 0.43284 0.74672 0.20677 0.0
C4345 C 0.45189 0.74494 0.2008 0.0
C4346 C 0.39898 0.75694 0.20117 0.0
C4347 C 0.38864 0.73946 0.20437 0.0
C4348 C 0.38941 0.77462 0.20284 0.0
C4349 C 0.39973 0.79357 0.2004 0.0
C4350 C 0.41633 0.79839 0.21142 0.0
C4351 C 0.42607 0.81621 0.20896 0.0
C4352 C 0.41927 0.82939 0.1956 0.0
C4353 C 0.40268 0.8248 0.18472 0.0
C4354 C 0.3929 0.80699 0.18712 0.0
C4355 C 0.31152 0.74826 0.23549 0.0
C4356 C 0.29854 0.75639 0.22242 0.0
C4357 C 0.33136 0.7488 0.23186 0.0
C4358 C 0.33855 0.75748 0.21513 0.0
C4359 C 0.32572 0.76623 0.20246 0.0
C4360 C 0.30592 0.76563 0.20601 0.0
C4361 C 0.35934 0.75686 0.21039 0.0
C4362 C 0.36969 0.77434 0.20734 0.0
C4363 C 0.36888 0.73916 0.2087 0.0
C4364 C 0.35838 0.72018 0.21044 0.0
C4365 C 0.34229 0.71555 0.19861 0.0
C4366 C 0.3323 0.69777 0.20048 0.0
C4367 C 0.33837 0.68442 0.21402 0.0
C4368 C 0.35444 0.68881 0.22571 0.0
C4369 C 0.36447 0.70658 0.22391 0.0
H4370 H 0.33063 0.67068 0.21542 0.0
H4371 H 0.42683 0.84318 0.19372 0.0
H4372 H 0.00407 0.69858 0.95416 0.0
H4373 H 0.01545 0.66627 0.96148 0.0
H4374 H 0.03739 0.66114 0.90421 0.0
H4375 H 0.02669 0.69381 0.89696 0.0
H4376 H 0.00388 0.63187 0.92457 0.0
H4377 H 0.0697 0.65675 0.92378 0.0
H4378 H 0.09613 0.68005 0.93235 0.0
H4379 H 0.08778 0.66793 0.99198 0.0
H4380 H 0.06106 0.64479 0.98377 0.0
H4381 H 0.00848 0.54059 0.96223 0.0
H4382 H 0.02291 0.56517 0.94103 0.0
H4383 H 0.03782 0.60067 0.99043 0.0
H4384 H 0.02479 0.57566 0.01129 0.0
H4385 H 0.0597 0.61212 0.96411 0.0
H4386 H 0.98996 0.59684 0.96708 0.0
H4387 H 0.96066 0.57615 0.96171 0.0
H4388 H 0.97298 0.5732 0.90163 0.0
H4389 H 0.00264 0.59339 0.90677 0.0
C4390 C 0.01168 0.69075 0.94326 0.0
C4391 C 0.01446 0.6987 0.92499 0.0
C4392 C 0.01825 0.67236 0.94748 0.0
C4393 C 0.02739 0.66147 0.93342 0.0
C4394 C 0.03061 0.66948 0.9153 0.0
C4395 C 0.02447 0.68811 0.91121 0.0
C4396 C 0.03114 0.64092 0.93721 0.0
C4397 C 0.01636 0.62733 0.93272 0.0
C4398 C 0.04723 0.63526 0.94814 0.0
C4399 C 0.06325 0.64918 0.95315 0.0
C4400 C 0.07334 0.65922 0.93872 0.0
C4401 C 0.08842 0.67236 0.94352 0.0
C4402 C 0.0936 0.67551 0.9627 0.0
C4403 C 0.08374 0.66549 0.97713 0.0
C4404 C 0.06864 0.65235 0.97241 0.0
C4405 C 0.01609 0.55305 0.96847 0.0
C4406 C 0.01563 0.55632 0.98829 0.0
C4407 C 0.02401 0.56729 0.95638 0.0
C4408 C 0.0307 0.58521 0.96405 0.0
C4409 C 0.03258 0.58717 0.98402 0.0
C4410 C 0.02512 0.57282 -0.00399 0.0
C4411 C 0.03198 0.60306 0.95217 0.0
C4412 C 0.04759 0.6163 0.95525 0.0
C4413 C 0.01632 0.60864 0.94036 0.0
C4414 C -0.00136 0.59631 0.93735 0.0
C4415 C 0.98649 0.5916 0.95277 0.0
C4416 C 0.96986 0.57993 0.94977 0.0
C4417 C 0.96505 0.5732 0.93136 0.0
C4418 C 0.97683 0.5782 0.91592 0.0
C4419 C 0.99358 0.58971 0.91887 0.0
H4420 H 0.95213 0.56421 0.92905 0.0
H4421 H 0.10528 0.68568 0.96638 0.0
H4422 H 0.07643 0.26242 0.61131 0.0
H4423 H 0.10631 0.26092 0.62998 0.0
H4424 H 0.07435 0.23698 0.67753 0.0
H4425 H 0.04422 0.23931 0.65914 0.0
H4426 H 0.1005 0.26125 0.69036 0.0
H4427 H 0.10108 0.20832 0.64534 0.0
H4428 H 0.09919 0.19326 0.61325 0.0
H4429 H 0.14842 0.22775 0.59559 0.0
H4430 H 0.15053 0.24319 0.62754 0.0
H4431 H 0.17422 0.22154 0.74333 0.0
H4432 H 0.14689 0.22252 0.7211 0.0
H4433 H 0.18263 0.25299 0.68014 0.0
H4434 H 0.21028 0.25158 0.70224 0.0
H4435 H 0.15593 0.22715 0.66298 0.0
H4436 H 0.15607 0.27794 0.71045 0.0
H4437 H 0.15732 0.29114 0.74341 0.0
H4438 H 0.10548 0.2587 0.7571 0.0
H4439 H 0.10411 0.24496 0.72444 0.0
C4440 C 0.07576 0.25697 0.62581 0.0
C4441 C 0.05804 0.25084 0.63375 0.0
C4442 C 0.09287 0.25599 0.63642 0.0
C4443 C 0.09267 0.24835 0.65498 0.0
C4444 C 0.07488 0.24282 0.66318 0.0
C4445 C 0.05767 0.24416 0.65269 0.0
C4446 C 0.11098 0.24597 0.66582 0.0
C4447 C 0.11251 0.25359 0.68443 0.0
C4448 C 0.12689 0.2364 0.65792 0.0
C4449 C 0.12585 0.22702 0.63877 0.0
C4450 C 0.11145 0.21276 0.63458 0.0
C4451 C 0.11035 0.20415 0.61643 0.0
C4452 C 0.12366 0.20959 0.60239 0.0
C4453 C 0.13814 0.22359 0.60649 0.0
C4454 C 0.13931 0.23225 0.62462 0.0
C4455 C 0.17639 0.22805 0.72941 0.0
C4456 C 0.1943 0.23676 0.72462 0.0
C4457 C 0.16075 0.22867 0.71677 0.0
C4458 C 0.16262 0.23832 0.69925 0.0
C4459 C 0.18087 0.24563 0.6937 0.0
C4460 C 0.19666 0.24479 0.70631 0.0
C4461 C 0.14518 0.24205 0.6876 0.0
C4462 C 0.1439 0.23483 0.66883 0.0
C4463 C 0.12938 0.2518 0.69543 0.0
C4464 C 0.13008 0.26031 0.71502 0.0
C4465 C 0.14501 0.27353 0.72053 0.0
C4466 C 0.14574 0.28111 0.73914 0.0
C4467 C 0.13151 0.27577 0.7523 0.0
C4468 C 0.1165 0.26283 0.74689 0.0
C4469 C 0.11574 0.25513 0.72833 0.0
H4470 H 0.1321 0.28166 0.76669 0.0
H4471 H 0.12278 0.20292 0.58833 0.0
H4472 H 0.53008 0.67411 0.14813 0.0
H4473 H 0.53023 0.6432 0.131 0.0
H4474 H 0.4887 0.664 0.09026 0.0
H4475 H 0.48886 0.69535 0.10706 0.0
H4476 H 0.48231 0.62351 0.11151 0.0
H4477 H 0.52569 0.66283 0.07183 0.0
H4478 H 0.55383 0.68503 0.06724 0.0
H4479 H 0.59104 0.6436 0.0926 0.0
H4480 H 0.56304 0.62126 0.0976 0.0
H4481 H 0.48108 0.55498 0.03688 0.0
H4482 H 0.47951 0.57957 0.06168 0.0
H4483 H 0.53926 0.57053 0.07669 0.0
H4484 H 0.54105 0.54681 0.0506 0.0
H4485 H 0.53709 0.60496 0.07088 0.0
H4486 H 0.49744 0.56732 0.11428 0.0
H4487 H 0.47099 0.54627 0.12639 0.0
H4488 H 0.42924 0.58189 0.09921 0.0
H4489 H 0.45552 0.6037 0.08767 0.0
C4490 C 0.521 0.67214 0.1355 0.0
C4491 C 0.50943 0.68711 0.12891 0.0
C4492 C 0.52113 0.65451 0.12575 0.0
C4493 C 0.50947 0.65143 0.10946 0.0
C4494 C 0.49778 0.66623 0.10286 0.0
C4495 C 0.49795 0.68408 0.11238 0.0
C4496 C 0.50953 0.63262 0.09947 0.0
C4497 C 0.49411 0.61942 0.10238 0.0
C4498 C 0.52541 0.62713 0.08845 0.0
C4499 C 0.54224 0.64048 0.08529 0.0
C4500 C 0.53984 0.65854 0.07661 0.0
C4501 C 0.55577 0.67113 0.07389 0.0
C4502 C 0.57421 0.66576 0.07968 0.0
C4503 C 0.57675 0.64775 0.08815 0.0
C4504 C 0.56086 0.63512 0.09091 0.0
C4505 C 0.49361 0.55769 0.04607 0.0
C4506 C 0.51112 0.54897 0.04209 0.0
C4507 C 0.4927 0.57173 0.0604 0.0
C4508 C 0.50925 0.57706 0.07129 0.0
C4509 C 0.52631 0.56688 0.06844 0.0
C4510 C 0.52733 0.55316 0.0537 0.0
C4511 C 0.5097 0.59532 0.08277 0.0
C4512 C 0.52524 0.60865 0.08011 0.0
C4513 C 0.49414 0.60074 0.09447 0.0
C4514 C 0.47842 0.58695 0.09995 0.0
C4515 C 0.48263 0.57053 0.11072 0.0
C4516 C 0.46765 0.55855 0.1176 0.0
C4517 C 0.44842 0.5626 0.11339 0.0
C4518 C 0.44413 0.57875 0.10242 0.0
C4519 C 0.45905 0.59102 0.09586 0.0
H4520 H 0.43683 0.55337 0.11877 0.0
H4521 H 0.58652 0.67552 0.07756 0.0
H4522 H 0.06583 0.76703 0.86995 0.0
H4523 H 0.09839 0.76515 0.85702 0.0
H4524 H 0.08361 0.70913 0.83258 0.0
H4525 H 0.05116 0.7107 0.84583 0.0
H4526 H 0.11992 0.7097 0.84764 0.0
H4527 H 0.08321 0.74951 0.80516 0.0
H4528 H 0.06263 0.77666 0.79666 0.0
H4529 H 0.10625 0.81711 0.81782 0.0
H4530 H 0.127 0.79016 0.82667 0.0
H4531 H 0.17681 0.71895 0.76034 0.0
H4532 H 0.15607 0.71061 0.78751 0.0
H4533 H 0.181 0.75892 0.81945 0.0
H4534 H 0.2017 0.76714 0.79241 0.0
H4535 H 0.14181 0.76199 0.80392 0.0
H4536 H 0.18059 0.72173 0.84212 0.0
H4537 H 0.20077 0.69437 0.85078 0.0
H4538 H 0.15391 0.65444 0.83697 0.0
H4539 H 0.13352 0.6815 0.82776 0.0
C4540 C 0.06948 0.75433 0.8618 0.0
C4541 C 0.05581 0.73912 0.85874 0.0
C4542 C 0.08813 0.75324 0.85447 0.0
C4543 C 0.09341 0.73705 0.8437 0.0
C4544 C 0.0799 0.72172 0.8409 0.0
C4545 C 0.06128 0.72274 0.84834 0.0
C4546 C 0.11261 0.73661 0.83444 0.0
C4547 C 0.1247 0.72102 0.83794 0.0
C4548 C 0.11899 0.75161 0.82212 0.0
C4549 C 0.10655 0.76782 0.81677 0.0
C4550 C 0.08834 0.76419 0.80813 0.0
C4551 C 0.07666 0.77954 0.80323 0.0
C4552 C 0.0831 0.79859 0.80675 0.0
C4553 C 0.10126 0.80234 0.81514 0.0
C4554 C 0.11299 0.78704 0.82009 0.0
C4555 C 0.17879 0.72691 0.77366 0.0
C4556 C 0.19082 0.74362 0.77442 0.0
C4557 C 0.16688 0.7222 0.78916 0.0
C4558 C 0.16687 0.7343 0.80538 0.0
C4559 C 0.18086 0.74936 0.80709 0.0
C4560 C 0.19275 0.754 0.79167 0.0
C4561 C 0.14921 0.73509 0.81707 0.0
C4562 C 0.13724 0.75074 0.81382 0.0
C4563 C 0.14302 0.72008 0.82942 0.0
C4564 C 0.15553 0.70369 0.83408 0.0
C4565 C 0.17464 0.70711 0.84063 0.0
C4566 C 0.1861 0.69166 0.84575 0.0
C4567 C 0.17858 0.67271 0.84457 0.0
C4568 C 0.15967 0.66914 0.838 0.0
C4569 C 0.14816 0.68454 0.83279 0.0
H4570 H 0.18743 0.66079 0.84868 0.0
H4571 H 0.07403 0.81046 0.80295 0.0
H4572 H 0.01282 0.30072 0.55494 0.0
H4573 H 0.00657 0.33367 0.54532 0.0
H4574 H 0.96322 0.33761 0.58892 0.0
H4575 H 0.96963 0.3044 0.59903 0.0
H4576 H 0.9526 0.35249 0.55115 0.0
H4577 H 0.0012 0.36017 0.59918 0.0
H4578 H 0.03152 0.35538 0.61708 0.0
H4579 H 0.06437 0.37212 0.56771 0.0
H4580 H 0.03423 0.37662 0.54938 0.0
H4581 H 0.95551 0.45734 0.54723 0.0
H4582 H 0.9537 0.42315 0.55595 0.0
H4583 H -0.0005 0.41152 0.51655 0.0
H4584 H 0.00137 0.44563 0.50763 0.0
H4585 H 0.00683 0.40113 0.55491 0.0
H4586 H 0.95637 0.3933 0.50713 0.0
H4587 H 0.92539 0.40068 0.49154 0.0
H4588 H 0.89518 0.38633 0.5432 0.0
H4589 H 0.92603 0.37912 0.5592 0.0
C4590 C 0.00182 0.30844 0.56245 0.0
C4591 C 0.99174 0.29992 0.5778 0.0
C4592 C -0.00166 0.32733 0.55697 0.0
C4593 C 0.9846 0.33807 0.56655 0.0
C4594 C 0.97394 0.32949 0.58143 0.0
C4595 C 0.97762 0.31057 0.58716 0.0
C4596 C 0.98183 0.35835 0.56094 0.0
C4597 C 0.96431 0.36326 0.55225 0.0
C4598 C 0.99723 0.37224 0.56221 0.0
C4599 C 0.01542 0.36852 0.57283 0.0
C4600 C 0.01488 0.36252 0.59203 0.0
C4601 C 0.03204 0.35993 0.60229 0.0
C4602 C 0.04986 0.36341 0.59353 0.0
C4603 C 0.05056 0.36939 0.57447 0.0
C4604 C 0.03344 0.37194 0.56414 0.0
C4605 C 0.96488 0.44742 0.54007 0.0
C4606 C 0.97868 0.4542 0.52683 0.0
C4607 C 0.96377 0.4279 0.54503 0.0
C4608 C 0.9765 0.4149 0.53692 0.0
C4609 C 0.98954 0.4214 0.52293 0.0
C4610 C 0.99052 0.44087 0.51779 0.0
C4611 C 0.97782 0.39514 0.54463 0.0
C4612 C 0.99509 0.39037 0.55382 0.0
C4613 C 0.9621 0.38157 0.54404 0.0
C4614 C 0.94354 0.38587 0.53443 0.0
C4615 C 0.94315 0.3919 0.51523 0.0
C4616 C 0.9256 0.39601 0.50631 0.0
C4617 C 0.90833 0.39403 0.51639 0.0
C4618 C 0.90857 0.38788 0.53542 0.0
C4619 C 0.92608 0.38377 0.54441 0.0
H4620 H 0.89476 0.39722 0.50946 0.0
H4621 H 0.06313 0.36152 0.60154 0.0
H4622 H 0.42494 0.2321 0.35623 0.0
H4623 H 0.40137 0.23712 0.33081 0.0
H4624 H 0.44482 0.2676 0.29773 0.0
H4625 H 0.46879 0.26222 0.32317 0.0
H4626 H 0.38828 0.27036 0.31923 0.0
H4627 H 0.43012 0.2635 0.24932 0.0
H4628 H 0.45865 0.24748 0.23655 0.0
H4629 H 0.45114 0.20182 0.27747 0.0
H4630 H 0.42245 0.21745 0.2903 0.0
H4631 H 0.31289 0.28049 0.25629 0.0
H4632 H 0.34684 0.28804 0.26396 0.0
H4633 H 0.35997 0.22802 0.25632 0.0
H4634 H 0.32627 0.22054 0.24846 0.0
H4635 H 0.39179 0.24848 0.25163 0.0
H4636 H 0.33974 0.24677 0.29988 0.0
H4637 H 0.30944 0.25922 0.31269 0.0
H4638 H 0.33575 0.3162 0.31706 0.0
H4639 H 0.36608 0.30408 0.30404 0.0
C4640 C 0.42961 0.23965 0.34346 0.0
C4641 C 0.44873 0.24683 0.34177 0.0
C4642 C 0.41607 0.24261 0.32895 0.0
C4643 C 0.42123 0.25292 0.31242 0.0
C4644 C 0.4405 0.25954 0.31031 0.0
C4645 C 0.45419 0.25641 0.32484 0.0
C4646 C 0.40601 0.2571 0.29799 0.0
C4647 C 0.38919 0.26579 0.30439 0.0
C4648 C 0.4072 0.25139 0.27855 0.0
C4649 C 0.42434 0.24179 0.27093 0.0
C4650 C 0.43457 0.25003 0.25557 0.0
C4651 C 0.45075 0.24102 0.24832 0.0
C4652 C 0.45676 0.22369 0.25625 0.0
C4653 C 0.44654 0.21529 0.2714 0.0
C4654 C 0.43033 0.22424 0.27868 0.0
C4655 C 0.32322 0.26917 0.25509 0.0
C4656 C 0.31697 0.24988 0.25214 0.0
C4657 C 0.34267 0.27348 0.25957 0.0
C4658 C 0.35589 0.25854 0.26128 0.0
C4659 C 0.3501 0.23982 0.25531 0.0
C4660 C 0.33078 0.23553 0.25081 0.0
C4661 C 0.37382 0.26098 0.27312 0.0
C4662 C 0.39117 0.25364 0.26631 0.0
C4663 C 0.37303 0.26747 0.29238 0.0
C4664 C 0.35508 0.27457 0.30092 0.0
C4665 C 0.33903 0.26194 0.30364 0.0
C4666 C 0.32183 0.26895 0.31088 0.0
C4667 C 0.32062 0.28851 0.31568 0.0
C4668 C 0.33665 0.30107 0.31332 0.0
C4669 C 0.35385 0.29414 0.30602 0.0
H4670 H 0.30729 0.29393 0.32124 0.0
H4671 H 0.46929 0.21674 0.25062 0.0
H4672 H 0.40787 0.5267 0.29327 0.0
H4673 H 0.42547 0.53292 0.32352 0.0
H4674 H 0.46539 0.48865 0.30931 0.0
H4675 H 0.44822 0.48247 0.27924 0.0
H4676 H 0.44986 0.48422 0.34555 0.0
H4677 H 0.48089 0.53369 0.30774 0.0
H4678 H 0.48211 0.56184 0.28625 0.0
H4679 H 0.45345 0.59572 0.32838 0.0
H4680 H 0.45181 0.56767 0.35003 0.0
H4681 H 0.50346 0.50089 0.43159 0.0
H4682 H 0.49762 0.49729 0.39702 0.0
H4683 H 0.46122 0.54675 0.3981 0.0
H4684 H 0.46764 0.55097 0.43196 0.0
H4685 H 0.47929 0.54726 0.36652 0.0
H4686 H 0.44389 0.49781 0.40224 0.0
H4687 H 0.44151 0.47022 0.4244 0.0
H4688 H 0.47617 0.4367 0.38689 0.0
H4689 H 0.47911 0.46427 0.36466 0.0
C4690 C 0.42056 0.51852 0.29647 0.0
C4691 C 0.42655 0.50405 0.28384 0.0
C4692 C 0.43059 0.52207 0.31374 0.0
C4693 C 0.44669 0.51117 0.31864 0.0
C4694 C 0.45296 0.49713 0.30584 0.0
C4695 C 0.44311 0.49369 0.2886 0.0
C4696 C 0.45652 0.51369 0.33749 0.0
C4697 C 0.45656 0.49792 0.35006 0.0
C4698 C 0.46503 0.53161 0.3434 0.0
C4699 C 0.46608 0.54852 0.33044 0.0
C4700 C 0.47471 0.54709 0.31237 0.0
C4701 C 0.4755 0.56304 0.30017 0.0
C4702 C 0.46783 0.58055 0.30593 0.0
C4703 C 0.45938 0.58215 0.32393 0.0
C4704 C 0.45853 0.56623 0.33618 0.0
C4705 C 0.49453 0.51119 0.42436 0.0
C4706 C 0.48581 0.52603 0.43467 0.0
C4707 C 0.49111 0.50906 0.40462 0.0
C4708 C 0.47861 0.5215 0.395 0.0
C4709 C 0.47086 0.53692 0.40512 0.0
C4710 C 0.47448 0.53923 0.42463 0.0
C4711 C 0.4722 0.51793 0.37487 0.0
C4712 C 0.4728 0.53348 0.36198 0.0
C4713 C 0.464 0.49987 0.36877 0.0
C4714 C 0.46187 0.48315 0.38188 0.0
C4715 C 0.45106 0.48458 0.39875 0.0
C4716 C 0.44961 0.46895 0.41132 0.0
C4717 C 0.45863 0.45171 0.40703 0.0
C4718 C 0.46917 0.45007 0.39017 0.0
C4719 C 0.47075 0.46569 0.37759 0.0
H4720 H 0.45743 0.43962 0.41675 0.0
H4721 H 0.46846 0.59288 0.29646 0.0
H4722 H 0.27571 0.63625 0.05847 0.0
H4723 H 0.27447 0.63479 0.09351 0.0
H4724 H 0.27282 0.69698 0.0962 0.0
H4725 H 0.27341 0.6985 0.0613 0.0
H4726 H 0.29133 0.65073 0.12807 0.0
H4727 H 0.23293 0.70804 0.11865 0.0
H4728 H 0.21076 0.7191 0.09338 0.0
H4729 H 0.21055 0.66293 0.0669 0.0
H4730 H 0.23242 0.65145 0.09219 0.0
H4731 H 0.2709 0.70296 0.21027 0.0
H4732 H 0.27978 0.68315 0.18341 0.0
H4733 H 0.21965 0.66666 0.17386 0.0
H4734 H 0.21073 0.68848 0.19976 0.0
H4735 H 0.22965 0.68085 0.14476 0.0
H4736 H 0.26173 0.63095 0.17759 0.0
H4737 H 0.28273 0.61521 0.20112 0.0
H4738 H 0.33156 0.64931 0.18178 0.0
H4739 H 0.31095 0.66489 0.15774 0.0
C4740 C 0.27587 0.64965 0.06658 0.0
C4741 C 0.2743 0.66749 0.0572 0.0
C4742 C 0.27517 0.64877 0.08661 0.0
C4743 C 0.2731 0.66574 0.09737 0.0
C4744 C 0.27412 0.6837 0.0881 0.0
C4745 C 0.27447 0.68456 0.06816 0.0
C4746 C 0.2662 0.66481 0.11739 0.0
C4747 C 0.27782 0.65718 0.13188 0.0
C4748 C 0.24812 0.67232 0.12215 0.0
C4749 C 0.23442 0.67894 0.10724 0.0
C4750 C 0.22803 0.69802 0.10751 0.0
C4751 C 0.21554 0.70436 0.09318 0.0
C4752 C 0.20929 0.69173 0.07852 0.0
C4753 C 0.21543 0.6727 0.07823 0.0
C4754 C 0.22787 0.66627 0.09256 0.0
C4755 C 0.25967 0.69427 0.20309 0.0
C4756 C 0.24015 0.69716 0.20705 0.0
C4757 C 0.26478 0.68276 0.18761 0.0
C4758 C 0.25045 0.67336 0.17619 0.0
C4759 C 0.23105 0.67403 0.18209 0.0
C4760 C 0.22588 0.6863 0.19706 0.0
C4761 C 0.25504 0.66735 0.15619 0.0
C4762 C 0.24297 0.67383 0.14138 0.0
C4763 C 0.27234 0.65812 0.15125 0.0
C4764 C 0.28477 0.64909 0.16588 0.0
C4765 C 0.27693 0.63513 0.17839 0.0
C4766 C 0.28879 0.6262 0.19178 0.0
C4767 C 0.30844 0.63135 0.19304 0.0
C4768 C 0.31633 0.64533 0.18078 0.0
C4769 C 0.30461 0.65409 0.16716 0.0
H4770 H 0.3176 0.62442 0.2034 0.0
H4771 H 0.19966 0.69669 0.06741 0.0
H4772 H 0.08868 0.47544 0.81482 0.0
H4773 H 0.07461 0.47218 0.84662 0.0
H4774 H 0.01733 0.4732 0.82165 0.0
H4775 H 0.0314 0.4774 0.78995 0.0
H4776 H 0.0181 0.49584 0.85002 0.0
H4777 H 0.03672 0.43107 0.84201 0.0
H4778 H 0.05798 0.40426 0.83434 0.0
H4779 H 0.09659 0.42196 0.88014 0.0
H4780 H 0.0757 0.44905 0.88792 0.0
H4781 H 0.00841 0.45063 0.95401 0.0
H4782 H 0.01033 0.44741 0.91919 0.0
H4783 H 0.02547 0.5083 0.9151 0.0
H4784 H 0.02271 0.51159 0.9498 0.0
H4785 H 0.04049 0.45064 0.89975 0.0
H4786 H 0.01718 0.5261 0.87218 0.0
H4787 H 0.99222 0.54971 0.87913 0.0
H4788 H 0.9558 0.50464 0.90277 0.0
H4789 H 0.98042 0.48072 0.89575 0.0
C4790 C 0.07309 0.4746 0.8161 0.0
C4791 C 0.06113 0.4767 0.79994 0.0
C4792 C 0.06503 0.47269 0.83428 0.0
C4793 C 0.04486 0.4723 0.83658 0.0
C4794 C 0.03292 0.47358 0.8203 0.0
C4795 C 0.04097 0.47587 0.80218 0.0
C4796 C 0.0363 0.47184 0.85601 0.0
C4797 C 0.02288 0.48584 0.86085 0.0
C4798 C 0.04206 0.45848 0.87006 0.0
C4799 C 0.05469 0.44218 0.86546 0.0
C4800 C 0.04981 0.42933 0.85036 0.0
C4801 C 0.06179 0.41407 0.84601 0.0
C4802 C 0.07864 0.41143 0.85672 0.0
C4803 C 0.08353 0.42403 0.87184 0.0
C4804 C 0.07161 0.43932 0.87625 0.0
C4805 C 0.01152 0.46341 0.94554 0.0
C4806 C 0.01523 0.4814 0.95446 0.0
C4807 C 0.01274 0.46155 0.92569 0.0
C4808 C 0.01805 0.47759 0.91444 0.0
C4809 C 0.02093 0.49577 0.92333 0.0
C4810 C 0.01931 0.4977 0.94318 0.0
C4811 C 0.02264 0.47493 0.89388 0.0
C4812 C 0.03542 0.46042 0.88885 0.0
C4813 C 0.0157 0.48733 0.87951 0.0
C4814 C 0.00072 0.50164 0.88353 0.0
C4815 C 0.0038 0.52121 0.87876 0.0
C4816 C 0.98972 0.53465 0.88275 0.0
C4817 C 0.97245 0.52868 0.89142 0.0
C4818 C 0.96921 0.50925 0.89611 0.0
C4819 C 0.98323 0.49575 0.89215 0.0
H4820 H 0.96153 0.53907 0.89446 0.0
H4821 H 0.08789 0.3996 0.85333 0.0
H4822 H 0.23922 0.30339 0.55574 0.0
H4823 H 0.22866 0.29357 0.58749 0.0
H4824 H 0.21036 0.35145 0.59902 0.0
H4825 H 0.22085 0.36141 0.56695 0.0
H4826 H 0.23477 0.3387 0.62656 0.0
H4827 H 0.17619 0.3152 0.59891 0.0
H4828 H 0.1542 0.29863 0.57566 0.0
H4829 H 0.18054 0.24462 0.58755 0.0
H4830 H 0.20275 0.26083 0.61075 0.0
H4831 H 0.23966 0.28989 0.71546 0.0
H4832 H 0.22007 0.30668 0.69153 0.0
H4833 H 0.23573 0.26477 0.64889 0.0
H4834 H 0.25565 0.24877 0.67243 0.0
H4835 H 0.19925 0.27751 0.64232 0.0
H4836 H 0.26415 0.3045 0.66025 0.0
H4837 H 0.28645 0.32007 0.68387 0.0
H4838 H 0.24842 0.36754 0.68946 0.0
H4839 H 0.22599 0.35224 0.66577 0.0
C4840 C 0.2326 0.31397 0.56485 0.0
C4841 C 0.23099 0.33321 0.55886 0.0
C4842 C 0.2264 0.30829 0.58299 0.0
C4843 C 0.21853 0.32172 0.59562 0.0
C4844 C 0.21624 0.34081 0.58946 0.0
C4845 C 0.22223 0.34646 0.57113 0.0
C4846 C 0.21528 0.31611 0.61589 0.0
C4847 C 0.22645 0.32568 0.63016 0.0
C4848 C 0.2044 0.29916 0.62068 0.0
C4849 C 0.19117 0.28928 0.60659 0.0
C4850 C 0.17737 0.29981 0.59649 0.0
C4851 C 0.16482 0.29046 0.58335 0.0
C4852 C 0.16593 0.27057 0.58016 0.0
C4853 C 0.17961 0.26 0.5901 0.0
C4854 C 0.19215 0.26926 0.60329 0.0
C4855 C 0.23837 0.28409 0.70113 0.0
C4856 C 0.24941 0.26842 0.6956 0.0
C4857 C 0.2271 0.29356 0.68749 0.0
C4858 C 0.22659 0.28711 0.66832 0.0
C4859 C 0.23588 0.27006 0.66353 0.0
C4860 C 0.24736 0.26096 0.67697 0.0
C4861 C 0.21978 0.29935 0.65238 0.0
C4862 C 0.20676 0.29105 0.63892 0.0
C4863 C 0.22908 0.31737 0.64825 0.0
C4864 C 0.24308 0.32695 0.66173 0.0
C4865 C 0.26049 0.31819 0.66661 0.0
C4866 C 0.27319 0.32699 0.67996 0.0
C4867 C 0.26877 0.3447 0.6883 0.0
C4868 C 0.25176 0.35375 0.68311 0.0
C4869 C 0.23904 0.345 0.66975 0.0
H4870 H 0.27859 0.35147 0.69868 0.0
H4871 H 0.1562 0.26336 0.56999 0.0
H4872 H 0.39448 0.52591 0.18246 0.0
H4873 H 0.40645 0.53463 0.15043 0.0
H4874 H 0.432 0.47883 0.14549 0.0
H4875 H 0.42036 0.47012 0.177 0.0
H4876 H 0.4576 0.50879 0.13717 0.0
H4877 H 0.38989 0.48814 0.12097 0.0
H4878 H 0.35466 0.492 0.12332 0.0
H4879 H 0.36131 0.55102 0.10515 0.0
H4880 H 0.39661 0.54754 0.10296 0.0
H4881 H 0.46153 0.45946 0.05508 0.0
H4882 H 0.44591 0.47483 0.08165 0.0
H4883 H 0.45915 0.53098 0.05783 0.0
H4884 H 0.47472 0.51544 0.03035 0.0
H4885 H 0.41604 0.51581 0.07958 0.0
H4886 H 0.48376 0.53275 0.08696 0.0
H4887 H 0.51859 0.52711 0.08418 0.0
H4888 H 0.51249 0.47672 0.11939 0.0
H4889 H 0.47757 0.48189 0.12228 0.0
C4890 C 0.40251 0.51548 0.17442 0.0
C4891 C 0.40658 0.49737 0.18236 0.0
C4892 C 0.40934 0.52049 0.15618 0.0
C4893 C 0.42027 0.50743 0.14569 0.0
C4894 C 0.42381 0.48922 0.15343 0.0
C4895 C 0.41706 0.48425 0.17148 0.0
C4896 C 0.42855 0.51225 0.12675 0.0
C4897 C 0.44857 0.51082 0.12459 0.0
C4898 C 0.4169 0.51557 0.11044 0.0
C4899 C 0.39579 0.51761 0.11186 0.0
C4900 C 0.38381 0.50195 0.11757 0.0
C4901 C 0.36385 0.50407 0.11887 0.0
C4902 C 0.35575 0.52175 0.1144 0.0
C4903 C 0.3676 0.53734 0.10861 0.0
C4904 C 0.38756 0.5353 0.10732 0.0
C4905 C 0.46101 0.47509 0.05517 0.0
C4906 C 0.47005 0.48626 0.04088 0.0
C4907 C 0.45194 0.48383 0.07039 0.0
C4908 C 0.45162 0.50397 0.07177 0.0
C4909 C 0.45942 0.51536 0.05698 0.0
C4910 C 0.46856 0.5065 0.04149 0.0
C4911 C 0.44501 0.51218 0.09002 0.0
C4912 C 0.42526 0.51539 0.09219 0.0
C4913 C 0.45697 0.51086 0.10643 0.0
C4914 C 0.47801 0.5077 0.10481 0.0
C4915 C 0.4898 0.52039 0.09402 0.0
C4916 C 0.50957 0.5173 0.09244 0.0
C4917 C 0.51773 0.50158 0.10156 0.0
C4918 C 0.50615 0.48892 0.11234 0.0
C4919 C 0.48637 0.49195 0.11401 0.0
H4920 H 0.53305 0.49921 0.10029 0.0
H4921 H 0.3403 0.52336 0.1154 0.0
H4922 H 0.2397 0.71336 0.9571 0.0
H4923 H 0.24044 0.72576 0.92449 0.0
H4924 H 0.28351 0.68478 0.9097 0.0
H4925 H 0.28275 0.67202 0.94239 0.0
H4926 H 0.29083 0.72277 0.89526 0.0
H4927 H 0.23895 0.67444 0.89771 0.0
H4928 H 0.20864 0.65891 0.90903 0.0
H4929 H 0.17801 0.71023 0.8959 0.0
H4930 H 0.20822 0.72618 0.8848 0.0
H4931 H 0.28405 0.71241 0.79565 0.0
H4932 H 0.28553 0.71035 0.83026 0.0
H4933 H 0.23591 0.74621 0.83456 0.0
H4934 H 0.23404 0.74802 0.79955 0.0
H4935 H 0.23115 0.71527 0.8556 0.0
H4936 H 0.28171 0.76254 0.84974 0.0
H4937 H 0.31145 0.77793 0.83696 0.0
H4938 H 0.34416 0.7298 0.8558 0.0
H4939 H 0.31456 0.71396 0.86844 0.0
C4940 C 0.24953 0.70708 0.94703 0.0
C4941 C 0.26112 0.6916 0.95237 0.0
C4942 C 0.24985 0.71416 0.92836 0.0
C4943 C 0.26185 0.70604 0.91466 0.0
C4944 C 0.2741 0.69119 0.92009 0.0
C4945 C 0.27365 0.68392 0.93876 0.0
C4946 C 0.26113 0.71261 0.89452 0.0
C4947 C 0.27785 0.72101 0.88649 0.0
C4948 C 0.24395 0.71095 0.88338 0.0
C4949 C 0.22592 0.70162 0.89072 0.0
C4950 C 0.22582 0.68252 0.89751 0.0
C4951 C 0.20864 0.67361 0.90382 0.0
C4952 C 0.19143 0.68361 0.90327 0.0
C4953 C 0.19137 0.70254 0.89642 0.0
C4954 C 0.20852 0.71153 0.89014 0.0
C4955 C 0.27355 0.72012 0.80386 0.0
C4956 C 0.2588 0.73028 0.79474 0.0
C4957 C 0.27454 0.71905 0.82376 0.0
C4958 C 0.261 0.72831 0.83509 0.0
C4959 C 0.24659 0.73901 0.8261 0.0
C4960 C 0.24555 0.74006 0.80609 0.0
C4961 C 0.26096 0.72517 0.8561 0.0
C4962 C 0.24408 0.71737 0.86437 0.0
C4963 C 0.27796 0.72752 0.86747 0.0
C4964 C 0.29586 0.73701 0.85994 0.0
C4965 C 0.29521 0.75517 0.85104 0.0
C4966 C 0.31206 0.76398 0.84384 0.0
C4967 C 0.32968 0.75484 0.84554 0.0
C4968 C 0.3305 0.73687 0.85449 0.0
C4969 C 0.31369 0.72798 0.8617 0.0
H4970 H 0.3427 0.76169 0.83996 0.0
H4971 H 0.17813 0.67666 0.90808 0.0
H4972 H 0.05095 0.46889 0.69308 0.0
H4973 H 0.05124 0.46503 0.65846 0.0
H4974 H 0.11344 0.4624 0.65988 0.0
H4975 H 0.11319 0.4662 0.69479 0.0
H4976 H 0.10276 0.49097 0.63818 0.0
H4977 H 0.08763 0.42532 0.63823 0.0
H4978 H 0.07306 0.39339 0.64602 0.0
H4979 H 0.01746 0.41216 0.62751 0.0
H4980 H 0.03157 0.44433 0.61995 0.0
H4981 H 0.04394 0.47893 0.5401 0.0
H4982 H 0.06642 0.46659 0.56366 0.0
H4983 H 0.06007 0.51812 0.59788 0.0
H4984 H 0.03878 0.53115 0.57336 0.0
H4985 H 0.05435 0.45695 0.59626 0.0
H4986 H 0.09481 0.52493 0.63007 0.0
H4987 H 0.11274 0.55403 0.61894 0.0
H4988 H 0.12421 0.52576 0.56555 0.0
H4989 H 0.10663 0.49635 0.57646 0.0
C4990 C 0.06464 0.46681 0.68611 0.0
C4991 C 0.08205 0.46813 0.69657 0.0
C4992 C 0.0648 0.46445 0.66629 0.0
C4993 C 0.08238 0.46347 0.65654 0.0
C4994 C 0.09972 0.4631 0.66713 0.0
C4995 C 0.09954 0.46523 0.68707 0.0
C4996 C 0.08247 0.46675 0.6356 0.0
C4997 C 0.09253 0.48327 0.62881 0.0
C4998 C 0.06964 0.45634 0.62318 0.0
C4999 C 0.0607 0.43734 0.62861 0.0
C5000 C 0.07225 0.42275 0.63606 0.0
C5001 C 0.06407 0.40457 0.64038 0.0
C5002 C 0.04434 0.40076 0.63729 0.0
C5003 C 0.03274 0.41514 0.62991 0.0
C5004 C 0.04083 0.43336 0.62559 0.0
C5005 C 0.04853 0.48825 0.55188 0.0
C5006 C 0.04025 0.50631 0.55452 0.0
C5007 C 0.06104 0.48098 0.56562 0.0
C5008 C 0.06507 0.49142 0.58254 0.0
C5009 C 0.05759 0.50995 0.58476 0.0
C5010 C 0.0453 0.51735 0.57082 0.0
C5011 C 0.07384 0.48173 0.59922 0.0
C5012 C 0.06521 0.4642 0.60528 0.0
C5013 C 0.08851 0.4908 0.61063 0.0
C5014 C 0.09933 0.50841 0.60409 0.0
C5015 C 0.10128 0.52484 0.61602 0.0
C5016 C 0.11136 0.54142 0.60973 0.0
C5017 C 0.11959 0.54175 0.59154 0.0
C5018 C 0.11779 0.5255 0.57962 0.0
C5019 C 0.10775 0.50887 0.58584 0.0
H5020 H 0.12737 0.55461 0.5867 0.0
H5021 H 0.03805 0.38666 0.64059 0.0
H5022 H 0.22102 0.35466 0.45004 0.0
H5023 H 0.21723 0.34744 0.41562 0.0
H5024 H 0.26816 0.31328 0.41772 0.0
H5025 H 0.27185 0.32002 0.45185 0.0
H5026 H 0.26694 0.34049 0.38641 0.0
H5027 H 0.22664 0.2908 0.41857 0.0
H5028 H 0.1994 0.28038 0.43897 0.0
H5029 H 0.15993 0.30944 0.40203 0.0
H5030 H 0.18701 0.32024 0.38154 0.0
H5031 H 0.27564 0.26291 0.32611 0.0
H5032 H 0.26987 0.28518 0.3523 0.0
H5033 H 0.22073 0.30707 0.32192 0.0
H5034 H 0.22677 0.28482 0.29503 0.0
H5035 H 0.21462 0.29557 0.36256 0.0
H5036 H 0.25327 0.33739 0.32564 0.0
H5037 H 0.2799 0.34721 0.30428 0.0
H5038 H 0.32123 0.335 0.34847 0.0
H5039 H 0.29488 0.32468 0.36998 0.0
C5040 C 0.23134 0.34555 0.44315 0.0
C5041 C 0.24668 0.33783 0.45373 0.0
C5042 C 0.22919 0.34151 0.4235 0.0
C5043 C 0.24251 0.32995 0.41413 0.0
C5044 C 0.25782 0.32236 0.42465 0.0
C5045 C 0.2598 0.32611 0.44423 0.0
C5046 C 0.2405 0.325 0.3935 0.0
C5047 C 0.25543 0.33082 0.38111 0.0
C5048 C 0.22505 0.31305 0.38639 0.0
C5049 C 0.20885 0.30655 0.3987 0.0
C5050 C 0.21217 0.29512 0.41491 0.0
C5051 C 0.19676 0.28911 0.42646 0.0
C5052 C 0.17795 0.29431 0.42184 0.0
C5053 C 0.17451 0.30548 0.40562 0.0
C5054 C 0.18988 0.31154 0.39404 0.0
C5055 C 0.26364 0.27249 0.32487 0.0
C5056 C 0.25159 0.27204 0.30855 0.0
C5057 C 0.26041 0.28528 0.33984 0.0
C5058 C 0.24491 0.29778 0.33901 0.0
C5059 C 0.23279 0.29752 0.32275 0.0
C5060 C 0.23628 0.28489 0.30745 0.0
C5061 C 0.2415 0.31038 0.35577 0.0
C5062 C 0.22569 0.30593 0.36753 0.0
C5063 C 0.25599 0.32384 0.3622 0.0
C5064 C 0.27204 0.33022 0.34946 0.0
C5065 C 0.26804 0.33667 0.33079 0.0
C5066 C 0.28309 0.34234 0.31864 0.0
C5067 C 0.30224 0.34177 0.32503 0.0
C5068 C 0.30638 0.33549 0.34357 0.0
C5069 C 0.29138 0.32974 0.35576 0.0
H5070 H 0.31386 0.3462 0.3156 0.0
H5071 H 0.16604 0.28964 0.4308 0.0
H5072 H 0.32405 0.36995 0.52072 0.0
H5073 H 0.353 0.39072 0.51987 0.0
H5074 H 0.31811 0.4403 0.51011 0.0
H5075 H 0.28879 0.41936 0.5105 0.0
H5076 H 0.34759 0.4402 0.48602 0.0
H5077 H 0.34123 0.4326 0.55377 0.0
H5078 H 0.33714 0.41475 0.58399 0.0
H5079 H 0.38999 0.38568 0.57411 0.0
H5080 H 0.39428 0.40316 0.54368 0.0
H5081 H 0.41932 0.51226 0.50232 0.0
H5082 H 0.39148 0.49047 0.50605 0.0
H5083 H 0.42874 0.44183 0.50851 0.0
H5084 H 0.45714 0.46377 0.50476 0.0
H5085 H 0.39884 0.44083 0.53627 0.0
H5086 H 0.40494 0.44841 0.46844 0.0
H5087 H 0.40897 0.46646 0.43833 0.0
H5088 H 0.3565 0.49597 0.44885 0.0
H5089 H 0.35221 0.47818 0.47912 0.0
C5090 C 0.3224 0.3853 0.51856 0.0
C5091 C 0.30399 0.39296 0.51568 0.0
C5092 C 0.33906 0.39721 0.51819 0.0
C5093 C 0.3378 0.41714 0.51515 0.0
C5094 C 0.31945 0.42495 0.51253 0.0
C5095 C 0.30269 0.41299 0.51284 0.0
C5096 C 0.35573 0.42955 0.51378 0.0
C5097 C 0.35863 0.44055 0.49717 0.0
C5098 C 0.37049 0.42957 0.52803 0.0
C5099 C 0.36798 0.41907 0.54635 0.0
C5100 C 0.35191 0.42229 0.55796 0.0
C5101 C 0.34957 0.41226 0.57515 0.0
C5102 C 0.36327 0.39906 0.58094 0.0
C5103 C 0.37938 0.39589 0.56959 0.0
C5104 C 0.38178 0.40588 0.55238 0.0
C5105 C 0.42179 0.49695 0.5037 0.0
C5106 C 0.44061 0.4898 0.50308 0.0
C5107 C 0.40574 0.48449 0.50579 0.0
C5108 C 0.40798 0.46452 0.50729 0.0
C5109 C 0.42671 0.45723 0.50728 0.0
C5110 C 0.44291 0.46977 0.5051 0.0
C5111 C 0.39054 0.45149 0.50861 0.0
C5112 C 0.38777 0.4404 0.52516 0.0
C5113 C 0.37585 0.45139 0.49434 0.0
C5114 C 0.37835 0.46208 0.47612 0.0
C5115 C 0.39433 0.45885 0.4644 0.0
C5116 C 0.39665 0.46902 0.4473 0.0
C5117 C 0.38305 0.48241 0.44172 0.0
C5118 C 0.36704 0.48561 0.4532 0.0
C5119 C 0.36464 0.47546 0.47031 0.0
H5120 H 0.38488 0.49027 0.42847 0.0
H5121 H 0.36143 0.3913 0.59425 0.0
H5122 H 0.80149 0.08912 0.50743 0.0
H5123 H 0.83105 0.07069 0.50667 0.0
H5124 H 0.84437 0.0942 0.45106 0.0
H5125 H 0.81455 0.11195 0.4514 0.0
H5126 H 0.85409 0.05894 0.45113 0.0
H5127 H 0.8649 0.11212 0.49473 0.0
H5128 H 0.85938 0.1329 0.52282 0.0
H5129 H 0.86763 0.08475 0.5602 0.0
H5130 H 0.87291 0.06359 0.53231 0.0
H5131 H 0.95793 0.05778 0.45463 0.0
H5132 H 0.92398 0.06662 0.45406 0.0
H5133 H 0.91155 0.02569 0.49893 0.0
H5134 H 0.94538 0.01639 0.49917 0.0
H5135 H 0.90051 0.06618 0.50545 0.0
H5136 H 0.89315 0.01425 0.45987 0.0
H5137 H 0.90124 0.99588 0.43085 0.0
H5138 H 0.88927 0.0451 0.39604 0.0
H5139 H 0.88139 0.06388 0.42489 0.0
C5140 C 0.81062 0.09017 0.49495 0.0
C5141 C 0.80569 0.10209 0.47952 0.0
C5142 C 0.8276 0.07973 0.49459 0.0
C5143 C 0.84023 0.08132 0.47898 0.0
C5144 C 0.83495 0.0927 0.4633 0.0
C5145 C 0.81786 0.1029 0.46352 0.0
C5146 C 0.85918 0.07166 0.47907 0.0
C5147 C 0.86425 0.06068 0.46298 0.0
C5148 C 0.87246 0.07357 0.49464 0.0
C5149 C 0.86899 0.0862 0.51141 0.0
C5150 C 0.86532 0.10591 0.50893 0.0
C5151 C 0.86228 0.11777 0.52482 0.0
C5152 C 0.86307 0.11013 0.54328 0.0
C5153 C 0.86695 0.09063 0.54589 0.0
C5154 C 0.86996 0.07869 0.53005 0.0
C5155 C 0.94792 0.0504 0.46415 0.0
C5156 C 0.95438 0.03638 0.47702 0.0
C5157 C 0.92853 0.05545 0.46377 0.0
C5158 C 0.9153 0.04679 0.47644 0.0
C5159 C 0.92155 0.03248 0.48899 0.0
C5160 C 0.94087 0.02715 0.48909 0.0
C5161 C 0.89534 0.05379 0.4775 0.0
C5162 C 0.89017 0.06431 0.49376 0.0
C5163 C 0.88219 0.0518 0.46197 0.0
C5164 C 0.88684 0.04053 0.44457 0.0
C5165 C 0.89241 0.02122 0.44605 0.0
C5166 C 0.89693 0.01072 0.42962 0.0
C5167 C 0.89581 0.01933 0.41162 0.0
C5168 C 0.89014 0.03846 0.41 0.0
C5169 C 0.88563 0.04903 0.42638 0.0
H5170 H 0.89931 0.01118 0.39891 0.0
H5171 H 0.86074 0.11935 0.55556 0.0
H5172 H 0.65252 0.03077 0.23632 0.0
H5173 H 0.67039 0.06174 0.23791 0.0
H5174 H 0.62374 0.08644 0.26946 0.0
H5175 H 0.60531 0.05577 0.26664 0.0
H5176 H 0.63369 0.11078 0.24534 0.0
H5177 H 0.67019 0.0764 0.29023 0.0
H5178 H 0.68834 0.04965 0.30401 0.0
H5179 H 0.73082 0.056 0.25994 0.0
H5180 H 0.71279 0.08261 0.24572 0.0
H5181 H 0.69973 0.19474 0.25955 0.0
H5182 H 0.67726 0.16712 0.26454 0.0
H5183 H 0.70693 0.13465 0.22161 0.0
H5184 H 0.72913 0.16218 0.2164 0.0
H5185 H 0.7043 0.1165 0.25765 0.0
H5186 H 0.6625 0.15063 0.21247 0.0
H5187 H 0.64425 0.17918 0.20309 0.0
H5188 H 0.61162 0.17513 0.25495 0.0
H5189 H 0.62982 0.14668 0.26473 0.0
C5190 C 0.64625 0.04275 0.24383 0.0
C5191 C 0.62761 0.04094 0.25138 0.0
C5192 C 0.6565 0.06045 0.24485 0.0
C5193 C 0.64859 0.07646 0.2541 0.0
C5194 C 0.63017 0.07439 0.26221 0.0
C5195 C 0.61969 0.05686 0.26069 0.0
C5196 C 0.65905 0.09558 0.25416 0.0
C5197 C 0.64906 0.11201 0.24842 0.0
C5198 C 0.67909 0.09745 0.25834 0.0
C5199 C 0.69005 0.08144 0.26683 0.0
C5200 C 0.68333 0.07201 0.28339 0.0
C5201 C 0.69361 0.05688 0.2913 0.0
C5202 C 0.71071 0.05111 0.28284 0.0
C5203 C 0.71758 0.06049 0.26648 0.0
C5204 C 0.70735 0.07562 0.2585 0.0
C5205 C 0.70095 0.18199 0.25069 0.0
C5206 C 0.71608 0.18064 0.23753 0.0
C5207 C 0.68827 0.16616 0.2537 0.0
C5208 C 0.6906 0.14884 0.24354 0.0
C5209 C 0.70503 0.14787 0.22968 0.0
C5210 C 0.71764 0.16362 0.22668 0.0
C5211 C 0.67906 0.13115 0.24808 0.0
C5212 C 0.68887 0.11511 0.25485 0.0
C5213 C 0.65882 0.12983 0.24552 0.0
C5214 C 0.64761 0.14664 0.23938 0.0
C5215 C 0.6515 0.15589 0.22191 0.0
C5216 C 0.64115 0.17205 0.21652 0.0
C5217 C 0.62682 0.17899 0.22845 0.0
C5218 C 0.62274 0.16975 0.24575 0.0
C5219 C 0.63304 0.1536 0.2512 0.0
H5220 H 0.61885 0.19152 0.22426 0.0
H5221 H 0.71864 0.03939 0.28898 0.0
H5222 H 0.70287 0.92473 0.97928 0.0
H5223 H 0.67176 0.9398 0.98369 0.0
H5224 H 0.66305 0.90786 0.03589 0.0
H5225 H 0.69427 0.8928 0.03169 0.0
H5226 H 0.63113 0.90531 0.01125 0.0
H5227 H 0.67102 0.95457 0.04003 0.0
H5228 H 0.69891 0.97749 0.04316 0.0
H5229 H 0.68077 0.00681 0.99236 0.0
H5230 H 0.65291 0.98389 0.98876 0.0
H5231 H 0.54097 0.95426 0.00634 0.0
H5232 H 0.57114 0.94328 0.02127 0.0
H5233 H 0.60415 0.97171 0.97695 0.0
H5234 H 0.57457 0.98267 0.96235 0.0
H5235 H 0.62279 0.97619 0.00907 0.0
H5236 H 0.58812 0.92134 0.97665 0.0
H5237 H 0.55982 0.89885 0.97357 0.0
H5238 H 0.5682 0.88036 0.03158 0.0
H5239 H 0.59653 0.90279 0.03497 0.0
C5240 C 0.69448 0.92108 0.99184 0.0
C5241 C 0.7011 0.90758 0.00513 0.0
C5242 C 0.6767 0.92975 0.99437 0.0
C5243 C 0.66511 0.92502 0.01018 0.0
C5244 C 0.67177 0.91174 0.02362 0.0
C5245 C 0.68967 0.90323 0.02122 0.0
C5246 C 0.64567 0.93333 0.01193 0.0
C5247 C 0.62928 0.92082 0.01119 0.0
C5248 C 0.64321 0.95354 0.01197 0.0
C5249 C 0.65991 0.96743 0.01408 0.0
C5250 C 0.67304 0.96582 0.02945 0.0
C5251 C 0.68884 0.97883 0.03132 0.0
C5252 C 0.69162 0.99358 0.01795 0.0
C5253 C 0.67859 0.99538 0.00271 0.0
C5254 C 0.66277 0.9824 0.00076 0.0
C5255 C 0.55474 0.9584 0.00011 0.0
C5256 C 0.55552 0.96921 0.98318 0.0
C5257 C 0.57193 0.95211 0.0086 0.0
C5258 C 0.58996 0.95655 0.00022 0.0
C5259 C 0.59054 0.96813 0.98383 0.0
C5260 C 0.57357 0.9743 0.9754 0.0
C5261 C 0.60833 0.94818 0.00709 0.0
C5262 C 0.62459 0.96068 0.0096 0.0
C5263 C 0.61067 0.92797 0.00856 0.0
C5264 C 0.59422 0.91391 0.00616 0.0
C5265 C 0.58389 0.91248 0.98874 0.0
C5266 C 0.56786 0.89975 0.98694 0.0
C5267 C 0.56216 0.88824 0.0024 0.0
C5268 C 0.5726 0.8893 0.01963 0.0
C5269 C 0.58866 0.90199 0.02149 0.0
H5270 H 0.54969 0.87846 0.00102 0.0
H5271 H 0.70386 0.00364 0.01942 0.0
H5272 H 0.32567 0.45559 0.2391 0.0
H5273 H 0.30494 0.42658 0.24463 0.0
H5274 H 0.3512 0.40093 0.27643 0.0
H5275 H 0.3718 0.42943 0.27072 0.0
H5276 H 0.33896 0.37729 0.24934 0.0
H5277 H 0.30913 0.41359 0.29845 0.0
H5278 H 0.29291 0.44134 0.31271 0.0
H5279 H 0.24548 0.4331 0.27309 0.0
H5280 H 0.26153 0.40546 0.25841 0.0
H5281 H 0.2795 0.29001 0.25766 0.0
H5282 H 0.29882 0.31834 0.26964 0.0
H5283 H 0.26223 0.35601 0.23753 0.0
H5284 H 0.24348 0.32836 0.22562 0.0
H5285 H 0.27131 0.37184 0.27165 0.0
H5286 H 0.30331 0.3385 0.2201 0.0
H5287 H 0.32029 0.31193 0.20466 0.0
H5288 H 0.3649 0.31615 0.24777 0.0
H5289 H 0.34768 0.3421 0.26403 0.0
C5290 C 0.33116 0.44395 0.24766 0.0
C5291 C 0.3504 0.44469 0.25428 0.0
C5292 C 0.31934 0.42736 0.25084 0.0
C5293 C 0.32655 0.41145 0.26089 0.0
C5294 C 0.34534 0.41285 0.26851 0.0
C5295 C 0.3571 0.42921 0.26523 0.0
C5296 C 0.31551 0.3926 0.26176 0.0
C5297 C 0.3243 0.37604 0.25464 0.0
C5298 C 0.29632 0.39092 0.26845 0.0
C5299 C 0.28662 0.40754 0.27723 0.0
C5300 C 0.29531 0.41779 0.29267 0.0
C5301 C 0.28614 0.43348 0.30086 0.0
C5302 C 0.2682 0.439 0.29379 0.0
C5303 C 0.25938 0.42881 0.27855 0.0
C5304 C 0.2685 0.41312 0.2703 0.0
C5305 C 0.27563 0.30436 0.25333 0.0
C5306 C 0.26032 0.30687 0.24029 0.0
C5307 C 0.28658 0.32053 0.2602 0.0
C5308 C 0.28208 0.33935 0.25431 0.0
C5309 C 0.26603 0.34174 0.24231 0.0
C5310 C 0.25539 0.32578 0.23536 0.0
C5311 C 0.29465 0.35669 0.25882 0.0
C5312 C 0.28615 0.37302 0.26686 0.0
C5313 C 0.31412 0.3582 0.25289 0.0
C5314 C 0.32397 0.34198 0.24353 0.0
C5315 C 0.31651 0.33348 0.22654 0.0
C5316 C 0.32619 0.31853 0.21763 0.0
C5317 C 0.34359 0.31226 0.2253 0.0
C5318 C 0.35135 0.32093 0.24191 0.0
C5319 C 0.34155 0.33564 0.25108 0.0
H5320 H 0.35112 0.30073 0.21834 0.0
H5321 H 0.26112 0.45115 0.30015 0.0
H5322 H 0.22079 0.59804 -0.0032 0.0
H5323 H 0.19227 0.5762 -0.00183 0.0
H5324 H 0.15619 0.62491 0.00778 0.0
H5325 H 0.18448 0.6467 0.0068 0.0
H5326 H 0.14726 0.59699 0.03193 0.0
H5327 H 0.1569 0.60174 0.96428 0.0
H5328 H 0.17505 0.60015 0.93414 0.0
H5329 H 0.1842 0.53979 0.9432 0.0
H5330 H 0.16632 0.54108 0.97354 0.0
H5331 H 0.05614 0.54815 0.01463 0.0
H5332 H 0.08435 0.57024 0.01261 0.0
H5333 H 0.12139 0.52165 0.00696 0.0
H5334 H 0.0934 0.4995 0.00879 0.0
H5335 H 0.12951 0.54965 0.98058 0.0
H5336 H 0.11961 0.54558 0.0487 0.0
H5337 H 0.1007 0.54769 0.07833 0.0
H5338 H 0.09117 0.60769 0.06758 0.0
H5339 H 0.10981 0.60586 0.03773 0.0
C5340 C 0.20677 0.60409 -0.0009 0.0
C5341 C 0.20493 0.6241 0.0017 0.0
C5342 C 0.19048 0.59161 -0.00017 0.0
C5343 C 0.17208 0.59895 0.00296 0.0
C5344 C 0.17023 0.61892 0.00541 0.0
C5345 C 0.18646 0.63136 0.00479 0.0
C5346 C 0.15474 0.58588 0.00416 0.0
C5347 C 0.14325 0.58681 0.02058 0.0
C5348 C 0.14968 0.57238 0.98951 0.0
C5349 C 0.16045 0.57156 0.97128 0.0
C5350 C 0.16292 0.58816 0.95993 0.0
C5351 C 0.17314 0.58731 0.94279 0.0
C5352 C 0.18082 0.56989 0.93679 0.0
C5353 C 0.17827 0.55328 0.94788 0.0
C5354 C 0.16808 0.55406 0.96504 0.0
C5355 C 0.07028 0.54215 0.01307 0.0
C5356 C 0.07246 0.52202 0.0119 0.0
C5357 C 0.08639 0.55479 0.01194 0.0
C5358 C 0.10495 0.54755 0.00971 0.0
C5359 C 0.10718 0.52752 0.00862 0.0
C5360 C 0.09113 0.51488 0.00977 0.0
C5361 C 0.12212 0.56077 0.00833 0.0
C5362 C 0.13355 0.55986 0.9919 0.0
C5363 C 0.12705 0.57438 0.0229 0.0
C5364 C 0.11594 0.57553 0.04089 0.0
C5365 C 0.11335 0.55919 0.05258 0.0
C5366 C 0.10271 0.56034 0.06943 0.0
C5367 C 0.09469 0.5778 0.07481 0.0
C5368 C 0.09736 0.59417 0.06338 0.0
C5369 C 0.10798 0.59309 0.04651 0.0
H5370 H 0.08645 0.57867 0.08785 0.0
H5371 H 0.18872 0.56926 0.92352 0.0
H5372 H 0.63336 0.9239 0.24163 0.0
H5373 H 0.6489 0.89312 0.24546 0.0
H5374 H 0.69779 0.92203 0.2732 0.0
H5375 H 0.68225 0.95323 0.2694 0.0
H5376 H 0.70794 0.893 0.24625 0.0
H5377 H 0.66716 0.89966 0.30063 0.0
H5378 H 0.63693 0.90645 0.31739 0.0
H5379 H 0.60781 0.85943 0.28742 0.0
H5380 H 0.6378 0.85254 0.27025 0.0
H5381 H 0.74268 0.80093 0.27257 0.0
H5382 H 0.73221 0.83429 0.2756 0.0
H5383 H 0.67532 0.81643 0.25506 0.0
H5384 H 0.68542 0.78303 0.25303 0.0
H5385 H 0.67214 0.84185 0.28223 0.0
H5386 H 0.71348 0.83548 0.22732 0.0
H5387 H 0.74428 0.82805 0.21208 0.0
H5388 H 0.77277 0.87509 0.24243 0.0
H5389 H 0.74236 0.88225 0.2587 0.0
C5390 C 0.64746 0.92384 0.24848 0.0
C5391 C 0.65649 0.94107 0.25536 0.0
C5392 C 0.65631 0.90618 0.25067 0.0
C5393 C 0.67437 0.90527 0.25983 0.0
C5394 C 0.68381 0.92245 0.26615 0.0
C5395 C 0.67488 0.94023 0.26402 0.0
C5396 C 0.68286 0.88618 0.2632 0.0
C5397 C 0.70034 0.88187 0.25439 0.0
C5398 C 0.67277 0.87167 0.27364 0.0
C5399 C 0.65471 0.87567 0.28405 0.0
C5400 C 0.65428 0.89086 0.29751 0.0
C5401 C 0.63718 0.89471 0.3071 0.0
C5402 C 0.62045 0.8834 0.30345 0.0
C5403 C 0.62078 0.86818 0.29023 0.0
C5404 C 0.63783 0.86428 0.28057 0.0
C5405 C 0.72789 0.80415 0.2689 0.0
C5406 C 0.71487 0.78944 0.2625 0.0
C5407 C 0.72194 0.8232 0.27059 0.0
C5408 C 0.70307 0.82796 0.26521 0.0
C5409 C 0.68994 0.81315 0.25931 0.0
C5410 C 0.69573 0.79406 0.2581 0.0
C5411 C 0.69703 0.84838 0.26487 0.0
C5412 C 0.67994 0.85297 0.27426 0.0
C5413 C 0.70753 0.86309 0.25492 0.0
C5414 C 0.72564 0.85921 0.24451 0.0
C5415 C 0.72634 0.84409 0.23099 0.0
C5416 C 0.74378 0.83983 0.22225 0.0
C5417 C 0.76049 0.851 0.22634 0.0
C5418 C 0.75982 0.8664 0.2393 0.0
C5419 C 0.74251 0.87049 0.2484 0.0
H5420 H 0.7739 0.84778 0.21936 0.0
H5421 H 0.60723 0.88641 0.31089 0.0
H5422 H 0.8609 0.07091 0.72295 0.0
H5423 H 0.84366 0.10111 0.71996 0.0
H5424 H 0.81126 0.08701 0.77068 0.0
H5425 H 0.82842 0.05683 0.77381 0.0
H5426 H 0.78819 0.09998 0.74127 0.0
H5427 H 0.84881 0.11939 0.77242 0.0
H5428 H 0.88433 0.1227 0.77489 0.0
H5429 H 0.88582 0.15532 0.72277 0.0
H5430 H 0.85031 0.15196 0.71985 0.0
H5431 H 0.75204 0.18323 0.7801 0.0
H5432 H 0.76677 0.15381 0.7698 0.0
H5433 H 0.79913 0.18571 0.72725 0.0
H5434 H 0.78438 0.21584 0.73805 0.0
H5435 H 0.82238 0.16406 0.74505 0.0
H5436 H 0.76311 0.14688 0.714 0.0
H5437 H 0.7276 0.14405 0.70971 0.0
H5438 H 0.72378 0.10681 0.75861 0.0
H5439 H 0.75916 0.10979 0.76323 0.0
C5440 C 0.85007 0.07419 0.73346 0.0
C5441 C 0.84607 0.06141 0.74866 0.0
C5442 C 0.84028 0.09152 0.73176 0.0
C5443 C 0.82625 0.09642 0.74517 0.0
C5444 C 0.82203 0.08355 0.76016 0.0
C5445 C 0.8319 0.06631 0.76196 0.0
C5446 C 0.81587 0.11488 0.7437 0.0
C5447 C 0.79565 0.114 0.7422 0.0
C5448 C 0.82562 0.13321 0.74401 0.0
C5449 C 0.84694 0.1352 0.74578 0.0
C5450 C 0.85673 0.1271 0.76139 0.0
C5451 C 0.87686 0.12902 0.76289 0.0
C5452 C 0.88733 0.13915 0.74896 0.0
C5453 C 0.8777 0.14743 0.73353 0.0
C5454 C 0.85758 0.14553 0.73194 0.0
C5455 C 0.76187 0.18397 0.76813 0.0
C5456 C 0.767 0.20184 0.75985 0.0
C5457 C 0.77021 0.16699 0.76209 0.0
C5458 C 0.78382 0.16723 0.74734 0.0
C5459 C 0.78843 0.18502 0.7384 0.0
C5460 C 0.77996 0.20223 0.74451 0.0
C5461 C 0.79453 0.14925 0.74318 0.0
C5462 C 0.81485 0.15012 0.74367 0.0
C5463 C 0.7849 0.13086 0.74167 0.0
C5464 C 0.76365 0.12884 0.73905 0.0
C5465 C 0.75456 0.13836 0.72392 0.0
C5466 C 0.73452 0.13666 0.72141 0.0
C5467 C 0.72343 0.12533 0.73395 0.0
C5468 C 0.73238 0.11562 0.74894 0.0
C5469 C 0.75243 0.11728 0.75147 0.0
H5470 H 0.70791 0.12402 0.732 0.0
H5471 H 0.90291 0.14063 0.75016 0.0
loop_
_geom_bond_atom_site_label_1
_geom_bond_atom_site_label_2
_geom_bond_distance
_geom_bond_site_symmetry_2
_ccdc_geom_bond_type
Zn0 O3 2.031 . S
Zn0 O5 2.049 . S
Zn0 O10 2.067 . S
Zn1 O2 1.962 . S
Zn1 O4 1.986 . S
Zn1 O6 2.003 . S
Zn1 O9 1.943 1_655 S
O2 Zn1 1.962 . S
O2 C7 1.254 1_655 S
O3 Zn0 2.031 . S
O3 C7 1.269 . S
O4 Zn1 1.986 . S
O4 C11 1.262 . S
O5 Zn0 2.049 . S
O5 C13 1.260 . S
O6 Zn1 2.003 . S
O6 C13 1.244 1_655 S
C7 O2 1.254 1_455 S
C7 O3 1.269 . S
C8 O9 1.249 . S
C8 O10 1.270 . S
O9 Zn1 1.943 1_455 S
O9 C8 1.249 . S
O10 Zn0 2.067 . S
O10 C8 1.270 . S
C11 O4 1.262 . S
C11 O12 1.232 . S
O12 C11 1.232 . S
C13 O5 1.260 . S
C13 O6 1.244 1_455 S
Zn14 O17 2.031 . S
Zn14 O19 2.049 . S
Zn14 O24 2.067 . S
Zn15 O16 1.962 . S
Zn15 O18 1.986 . S
Zn15 O20 1.996 . S
Zn15 O23 1.943 1_455 S
O16 Zn15 1.962 . S
O16 C21 1.254 . S
O17 Zn14 2.031 . S
O17 C21 1.269 1_655 S
O18 Zn15 1.986 . S
O18 C25 1.262 . S
O19 Zn14 2.049 . S
O19 C27 1.286 . S
O20 Zn15 1.996 . S
O20 C27 1.244 1_455 S
C21 O16 1.254 . S
C21 O17 1.269 1_455 S
C22 O23 1.249 . S
C22 O24 1.270 . S
O23 Zn15 1.943 1_655 S
O23 C22 1.249 . S
O24 Zn14 2.067 . S
O24 C22 1.270 . S
C25 O18 1.262 . S
C25 O26 1.232 . S
O26 C25 1.232 . S
C27 O19 1.286 . S
C27 O20 1.244 1_655 S
Zn28 O31 2.031 . S
Zn28 O33 2.049 . S
Zn28 O38 2.067 . S
Zn29 O30 1.962 . S
Zn29 O32 1.986 . S
Zn29 O34 1.996 . S
Zn29 O37 1.943 . S
O30 Zn29 1.962 . S
O30 C35 1.254 . S
O31 Zn28 2.031 . S
O31 C35 1.269 . S
O32 Zn29 1.986 . S
O32 C39 1.262 . S
O33 Zn28 2.049 . S
O33 C41 1.260 . S
O34 Zn29 1.996 . S
O34 C41 1.257 . S
C35 O30 1.254 . S
C35 O31 1.269 . S
C36 O37 1.249 . S
C36 O38 1.270 . S
O37 Zn29 1.943 . S
O37 C36 1.249 . S
O38 Zn28 2.067 . S
O38 C36 1.270 . S
C39 O32 1.262 . S
C39 O40 1.232 . S
O40 C39 1.232 . S
C41 O33 1.260 . S
C41 O34 1.257 . S
Zn42 O45 2.031 . S
Zn42 O47 2.049 . S
Zn42 O52 2.067 . S
Zn43 O44 1.962 . S
Zn43 O46 1.986 . S
Zn43 O48 1.996 . S
Zn43 O51 1.943 . S
O44 Zn43 1.962 . S
O44 C49 1.254 . S
O45 Zn42 2.031 . S
O45 C49 1.269 . S
O46 Zn43 1.986 . S
O46 C53 1.262 . S
O47 Zn42 2.049 . S
O47 C55 1.260 . S
O48 Zn43 1.996 . S
O48 C55 1.257 . S
C49 O44 1.254 . S
C49 O45 1.269 . S
C50 O51 1.249 . S
C50 O52 1.270 . S
O51 Zn43 1.943 . S
O51 C50 1.249 . S
O52 Zn42 2.067 . S
O52 C50 1.270 . S
C53 O46 1.262 . S
C53 O54 1.232 . S
O54 C53 1.232 . S
C55 O47 1.260 . S
C55 O48 1.257 . S
Zn56 O59 2.031 . S
Zn56 O61 2.049 . S
Zn56 O66 2.067 . S
Zn57 O58 1.962 . S
Zn57 O60 1.986 . S
Zn57 O62 1.996 . S
Zn57 O65 1.943 1_565 S
O58 Zn57 1.962 . S
O58 C63 1.254 1_565 S
O59 Zn56 2.031 . S
O59 C63 1.269 . S
O60 Zn57 1.986 . S
O60 C67 1.262 . S
O61 Zn56 2.049 . S
O61 C69 1.260 . S
O62 Zn57 1.996 . S
O62 C69 1.257 1_565 S
C63 O58 1.254 1_545 S
C63 O59 1.269 . S
C64 O65 1.249 . S
C64 O66 1.270 . S
O65 Zn57 1.943 1_545 S
O65 C64 1.249 . S
O66 Zn56 2.067 . S
O66 C64 1.270 . S
C67 O60 1.262 . S
C67 O68 1.232 . S
O68 C67 1.232 . S
C69 O61 1.260 . S
C69 O62 1.257 1_545 S
Zn70 O73 2.031 . S
Zn70 O75 2.049 . S
Zn70 O80 2.067 . S
Zn71 O72 1.962 . S
Zn71 O74 1.986 . S
Zn71 O76 1.996 . S
Zn71 O79 1.943 . S
O72 Zn71 1.962 . S
O72 C77 1.254 . S
O73 Zn70 2.031 . S
O73 C77 1.269 . S
O74 Zn71 1.986 . S
O74 C81 1.262 . S
O75 Zn70 2.049 . S
O75 C83 1.260 . S
O76 Zn71 1.996 . S
O76 C83 1.257 . S
C77 O72 1.254 . S
C77 O73 1.269 . S
C78 O79 1.249 . S
C78 O80 1.270 . S
O79 Zn71 1.943 . S
O79 C78 1.249 . S
O80 Zn70 2.067 . S
O80 C78 1.270 . S
C81 O74 1.262 . S
C81 O82 1.232 . S
O82 C81 1.232 . S
C83 O75 1.260 . S
C83 O76 1.257 . S
Zn84 O87 2.031 . S
Zn84 O89 2.049 . S
Zn84 O94 2.067 . S
Zn85 O86 1.962 . S
Zn85 O88 1.986 . S
Zn85 O90 1.996 . S
Zn85 O93 1.943 1_545 S
O86 Zn85 1.962 . S
O86 C91 1.254 . S
O87 Zn84 2.031 . S
O87 C91 1.269 1_565 S
O88 Zn85 1.986 . S
O88 C95 1.262 . S
O89 Zn84 2.049 . S
O89 C97 1.214 1_565 S
O90 Zn85 1.996 . S
O90 C97 1.281 . S
C91 O86 1.254 . S
C91 O87 1.269 1_545 S
C92 O93 1.249 . S
C92 O94 1.270 . S
O93 Zn85 1.943 1_565 S
O93 C92 1.249 . S
O94 Zn84 2.067 . S
O94 C92 1.270 . S
C95 O88 1.262 . S
C95 O96 1.232 . S
O96 C95 1.232 . S
C97 O89 1.214 1_545 S
C97 O90 1.281 . S
Zn98 O101 2.031 1_554 S
Zn98 O103 2.049 . S
Zn98 O108 2.067 . S
Zn99 O100 1.962 1_554 S
Zn99 O102 1.986 . S
Zn99 O104 1.996 . S
Zn99 O107 1.943 . S
O100 Zn99 1.962 1_556 S
O100 C105 1.254 . S
O101 Zn98 2.031 1_556 S
O101 C105 1.269 . S
O102 Zn99 1.986 . S
O102 C109 1.262 . S
O103 Zn98 2.049 . S
O103 C111 1.260 . S
O104 Zn99 1.996 . S
O104 C111 1.257 . S
C105 O100 1.254 . S
C105 O101 1.269 . S
C106 O107 1.249 . S
C106 O108 1.270 . S
O107 Zn99 1.943 . S
O107 C106 1.249 . S
O108 Zn98 2.067 . S
O108 C106 1.270 . S
C109 O102 1.262 . S
C109 O110 1.232 1_554 S
O110 C109 1.232 1_556 S
C111 O103 1.260 . S
C111 O104 1.257 . S
Zn112 O115 2.031 1_554 S
Zn112 O117 2.049 . S
Zn112 O122 2.067 . S
Zn113 O114 1.962 1_554 S
Zn113 O116 1.986 . S
Zn113 O118 1.996 . S
Zn113 O121 1.943 . S
O114 Zn113 1.962 1_556 S
O114 C119 1.254 . S
O115 Zn112 2.031 1_556 S
O115 C119 1.269 . S
O116 Zn113 1.986 . S
O116 C123 1.262 . S
O117 Zn112 2.049 . S
O117 C125 1.260 . S
O118 Zn113 1.996 . S
O118 C125 1.257 . S
C119 O114 1.254 . S
C119 O115 1.269 . S
C120 O121 1.249 . S
C120 O122 1.270 . S
O121 Zn113 1.943 . S
O121 C120 1.249 . S
O122 Zn112 2.067 . S
O122 C120 1.270 . S
C123 O116 1.262 . S
C123 O124 1.232 1_554 S
O124 C123 1.232 1_556 S
C125 O117 1.260 . S
C125 O118 1.257 . S
Zn126 O129 2.031 . S
Zn126 O131 2.049 . S
Zn126 O136 2.067 . S
Zn127 O128 1.962 . S
Zn127 O130 1.986 . S
Zn127 O132 1.996 . S
Zn127 O135 1.943 . S
O128 Zn127 1.962 . S
O128 C133 1.254 . S
O129 Zn126 2.031 . S
O129 C133 1.269 . S
O130 Zn127 1.986 . S
O130 C137 1.262 . S
O131 Zn126 2.049 . S
O131 C139 1.260 . S
O132 Zn127 1.996 . S
O132 C139 1.257 . S
C133 O128 1.254 . S
C133 O129 1.269 . S
C134 O135 1.249 . S
C134 O136 1.270 . S
O135 Zn127 1.943 . S
O135 C134 1.249 . S
O136 Zn126 2.067 . S
O136 C134 1.270 . S
C137 O130 1.262 . S
C137 O138 1.232 . S
O138 C137 1.232 . S
C139 O131 1.260 . S
C139 O132 1.257 . S
Zn140 O143 2.031 . S
Zn140 O145 2.049 . S
Zn140 O150 2.067 . S
Zn141 O142 1.962 . S
Zn141 O144 1.986 . S
Zn141 O146 1.996 . S
Zn141 O149 1.943 . S
O142 Zn141 1.962 . S
O142 C147 1.254 . S
O143 Zn140 2.031 . S
O143 C147 1.269 . S
O144 Zn141 1.986 . S
O144 C151 1.262 . S
O145 Zn140 2.049 . S
O145 C153 1.260 . S
O146 Zn141 1.996 . S
O146 C153 1.257 . S
C147 O142 1.254 . S
C147 O143 1.269 . S
C148 O149 1.249 . S
C148 O150 1.270 . S
O149 Zn141 1.943 . S
O149 C148 1.249 . S
O150 Zn140 2.067 . S
O150 C148 1.270 . S
C151 O144 1.262 . S
C151 O152 1.232 . S
O152 C151 1.232 . S
C153 O145 1.260 . S
C153 O146 1.257 . S
Zn154 O157 2.031 . S
Zn154 O159 2.049 . S
Zn154 O164 2.067 . S
Zn155 O156 1.962 . S
Zn155 O158 1.986 . S
Zn155 O160 1.996 . S
Zn155 O163 1.943 . S
O156 Zn155 1.962 . S
O156 C161 1.254 . S
O157 Zn154 2.031 . S
O157 C161 1.269 . S
O158 Zn155 1.986 . S
O158 C165 1.262 . S
O159 Zn154 2.049 . S
O159 C167 1.260 . S
O160 Zn155 1.996 . S
O160 C167 1.257 . S
C161 O156 1.254 . S
C161 O157 1.269 . S
C162 O163 1.249 . S
C162 O164 1.270 . S
O163 Zn155 1.943 . S
O163 C162 1.249 . S
O164 Zn154 2.067 . S
O164 C162 1.270 . S
C165 O158 1.262 . S
C165 O166 1.232 . S
O166 C165 1.232 . S
C167 O159 1.260 . S
C167 O160 1.257 . S
Zn168 O171 2.031 . S
Zn168 O173 2.049 . S
Zn168 O178 2.067 . S
Zn169 O170 1.962 . S
Zn169 O172 1.986 . S
Zn169 O174 1.996 . S
Zn169 O177 1.943 1_455 S
O170 Zn169 1.962 . S
O170 C175 1.254 . S
O171 Zn168 2.031 . S
O171 C175 1.269 1_655 S
O172 Zn169 1.986 . S
O172 C179 1.262 . S
O173 Zn168 2.049 . S
O173 C181 1.260 1_655 S
O174 Zn169 1.996 . S
O174 C181 1.257 . S
C175 O170 1.254 . S
C175 O171 1.269 1_455 S
C176 O177 1.249 . S
C176 O178 1.270 . S
O177 Zn169 1.943 1_655 S
O177 C176 1.249 . S
O178 Zn168 2.067 . S
O178 C176 1.270 . S
C179 O172 1.262 . S
C179 O180 1.232 . S
O180 C179 1.232 . S
C181 O173 1.260 1_455 S
C181 O174 1.257 . S
Zn182 O185 2.031 . S
Zn182 O187 2.049 . S
Zn182 O192 2.067 . S
Zn183 O184 1.962 . S
Zn183 O186 1.986 . S
Zn183 O188 1.992 1_655 S
Zn183 O191 1.943 1_655 S
O184 Zn183 1.962 . S
O184 C189 1.254 1_655 S
O185 Zn182 2.031 . S
O185 C189 1.269 . S
O186 Zn183 1.986 . S
O186 C193 1.262 . S
O187 Zn182 2.049 . S
O187 C195 1.260 . S
O188 Zn183 1.992 1_455 S
O188 C195 1.266 . S
C189 O184 1.254 1_455 S
C189 O185 1.269 . S
C190 O191 1.249 . S
C190 O192 1.270 . S
O191 Zn183 1.943 1_455 S
O191 C190 1.249 . S
O192 Zn182 2.067 . S
O192 C190 1.270 . S
C193 O186 1.262 . S
C193 O194 1.232 . S
O194 C193 1.232 . S
C195 O187 1.260 . S
C195 O188 1.266 . S
Zn196 O199 2.031 . S
Zn196 O201 2.049 . S
Zn196 O206 2.067 . S
Zn197 O198 1.962 . S
Zn197 O200 1.986 . S
Zn197 O202 1.996 . S
Zn197 O205 1.943 . S
O198 Zn197 1.962 . S
O198 C203 1.254 . S
O199 Zn196 2.031 . S
O199 C203 1.269 . S
O200 Zn197 1.986 . S
O200 C207 1.262 . S
O201 Zn196 2.049 . S
O201 C209 1.260 . S
O202 Zn197 1.996 . S
O202 C209 1.257 . S
C203 O198 1.254 . S
C203 O199 1.269 . S
C204 O205 1.249 . S
C204 O206 1.270 . S
O205 Zn197 1.943 . S
O205 C204 1.249 . S
O206 Zn196 2.067 . S
O206 C204 1.270 . S
C207 O200 1.262 . S
C207 O208 1.232 . S
O208 C207 1.232 . S
C209 O201 1.260 . S
C209 O202 1.257 . S
Zn210 O213 2.031 . S
Zn210 O215 2.049 . S
Zn210 O220 2.067 . S
Zn211 O212 1.962 . S
Zn211 O214 1.986 . S
Zn211 O216 1.996 . S
Zn211 O219 1.943 . S
O212 Zn211 1.962 . S
O212 C217 1.254 . S
O213 Zn210 2.031 . S
O213 C217 1.269 . S
O214 Zn211 1.986 . S
O214 C221 1.262 . S
O215 Zn210 2.049 . S
O215 C223 1.260 . S
O216 Zn211 1.996 . S
O216 C223 1.257 . S
C217 O212 1.254 . S
C217 O213 1.269 . S
C218 O219 1.249 . S
C218 O220 1.270 . S
O219 Zn211 1.943 . S
O219 C218 1.249 . S
O220 Zn210 2.067 . S
O220 C218 1.270 . S
C221 O214 1.262 . S
C221 O222 1.232 . S
O222 C221 1.232 . S
C223 O215 1.260 . S
C223 O216 1.257 . S
Zn224 O227 2.031 . S
Zn224 O229 2.049 . S
Zn224 O234 2.067 . S
Zn225 O226 1.962 . S
Zn225 O228 1.986 . S
Zn225 O230 1.996 . S
Zn225 O233 1.943 1_545 S
O226 Zn225 1.962 . S
O226 C231 1.254 1_545 S
O227 Zn224 2.031 . S
O227 C231 1.269 . S
O228 Zn225 1.986 . S
O228 C235 1.262 . S
O229 Zn224 2.049 . S
O229 C237 1.260 . S
O230 Zn225 1.996 . S
O230 C237 1.257 1_545 S
C231 O226 1.254 1_565 S
C231 O227 1.269 . S
C232 O233 1.249 . S
C232 O234 1.270 . S
O233 Zn225 1.943 1_565 S
O233 C232 1.249 . S
O234 Zn224 2.067 . S
O234 C232 1.270 . S
C235 O228 1.262 . S
C235 O236 1.232 . S
O236 C235 1.232 . S
C237 O229 1.260 . S
C237 O230 1.257 1_565 S
Zn238 O241 2.031 . S
Zn238 O243 2.049 . S
Zn238 O248 2.067 . S
Zn239 O240 1.962 . S
Zn239 O242 1.986 . S
Zn239 O244 1.996 . S
Zn239 O247 1.943 . S
O240 Zn239 1.962 . S
O240 C245 1.254 . S
O241 Zn238 2.031 . S
O241 C245 1.269 . S
O242 Zn239 1.986 . S
O242 C249 1.262 . S
O243 Zn238 2.049 . S
O243 C251 1.260 . S
O244 Zn239 1.996 . S
O244 C251 1.257 . S
C245 O240 1.254 . S
C245 O241 1.269 . S
C246 O247 1.249 . S
C246 O248 1.270 . S
O247 Zn239 1.943 . S
O247 C246 1.249 . S
O248 Zn238 2.067 . S
O248 C246 1.270 . S
C249 O242 1.262 . S
C249 O250 1.232 . S
O250 C249 1.232 . S
C251 O243 1.260 . S
C251 O244 1.257 . S
Zn252 O255 2.031 . S
Zn252 O257 2.049 . S
Zn252 O262 2.067 . S
Zn253 O254 1.962 . S
Zn253 O256 1.986 . S
Zn253 O258 1.996 . S
Zn253 O261 1.943 1_565 S
O254 Zn253 1.962 . S
O254 C259 1.254 1_565 S
O255 Zn252 2.031 . S
O255 C259 1.269 . S
O256 Zn253 1.986 . S
O256 C263 1.262 . S
O257 Zn252 2.049 . S
O257 C265 1.260 . S
O258 Zn253 1.996 . S
O258 C265 1.258 1_565 S
C259 O254 1.254 1_545 S
C259 O255 1.269 . S
C260 O261 1.249 . S
C260 O262 1.270 . S
O261 Zn253 1.943 1_545 S
O261 C260 1.249 . S
O262 Zn252 2.067 . S
O262 C260 1.270 . S
C263 O256 1.262 . S
C263 O264 1.232 . S
O264 C263 1.232 . S
C265 O257 1.260 . S
C265 O258 1.258 1_545 S
Zn266 O269 2.031 1_554 S
Zn266 O271 2.049 . S
Zn266 O276 2.067 . S
Zn267 O268 1.962 1_554 S
Zn267 O270 1.986 . S
Zn267 O272 1.996 . S
Zn267 O275 1.943 . S
O268 Zn267 1.962 1_556 S
O268 C273 1.254 . S
O269 Zn266 2.031 1_556 S
O269 C273 1.269 . S
O270 Zn267 1.986 . S
O270 C277 1.262 . S
O271 Zn266 2.049 . S
O271 C279 1.260 . S
O272 Zn267 1.996 . S
O272 C279 1.257 . S
C273 O268 1.254 . S
C273 O269 1.269 . S
C274 O275 1.249 . S
C274 O276 1.270 . S
O275 Zn267 1.943 . S
O275 C274 1.249 . S
O276 Zn266 2.067 . S
O276 C274 1.270 . S
C277 O270 1.262 . S
C277 O278 1.232 1_554 S
O278 C277 1.232 1_556 S
C279 O271 1.260 . S
C279 O272 1.257 . S
Zn280 O283 2.031 1_554 S
Zn280 O285 2.049 . S
Zn280 O290 2.067 . S
Zn281 O282 1.913 1_554 S
Zn281 O284 2.013 . S
Zn281 O286 2.037 . S
Zn281 O289 1.947 . S
O282 Zn281 1.913 1_556 S
O282 C287 1.254 . S
O283 Zn280 2.031 1_556 S
O283 C287 1.269 . S
O284 Zn281 2.013 . S
O284 C291 1.262 . S
O285 Zn280 2.049 . S
O285 C293 1.260 . S
O286 Zn281 2.037 . S
O286 C293 1.257 . S
C287 O282 1.254 . S
C287 O283 1.269 . S
C288 O289 1.249 . S
C288 O290 1.270 . S
O289 Zn281 1.947 . S
O289 C288 1.249 . S
O290 Zn280 2.067 . S
O290 C288 1.270 . S
C291 O284 1.262 . S
C291 O292 1.232 1_554 S
O292 C291 1.232 1_556 S
C293 O285 1.260 . S
C293 O286 1.257 . S
Zn294 O297 2.031 . S
Zn294 O299 2.049 . S
Zn294 O304 2.067 . S
Zn295 O296 1.962 . S
Zn295 O298 1.986 . S
Zn295 O300 1.996 . S
Zn295 O303 1.943 . S
O296 Zn295 1.962 . S
O296 C301 1.254 . S
O297 Zn294 2.031 . S
O297 C301 1.269 . S
O298 Zn295 1.986 . S
O298 C305 1.262 . S
O299 Zn294 2.049 . S
O299 C307 1.260 . S
O300 Zn295 1.996 . S
O300 C307 1.257 . S
C301 O296 1.254 . S
C301 O297 1.269 . S
C302 O303 1.249 . S
C302 O304 1.270 . S
O303 Zn295 1.943 . S
O303 C302 1.249 . S
O304 Zn294 2.067 . S
O304 C302 1.270 . S
C305 O298 1.262 . S
C305 O306 1.232 . S
O306 C305 1.232 . S
C307 O299 1.260 . S
C307 O300 1.257 . S
Zn308 O311 2.031 . S
Zn308 O313 2.049 . S
Zn308 O318 2.067 . S
Zn309 O310 1.962 . S
Zn309 O312 1.986 . S
Zn309 O314 1.996 . S
Zn309 O317 1.943 . S
O310 Zn309 1.962 . S
O310 C315 1.254 . S
O311 Zn308 2.031 . S
O311 C315 1.269 . S
O312 Zn309 1.986 . S
O312 C319 1.262 . S
O313 Zn308 2.049 . S
O313 C321 1.260 . S
O314 Zn309 1.996 . S
O314 C321 1.257 . S
C315 O310 1.254 . S
C315 O311 1.269 . S
C316 O317 1.249 . S
C316 O318 1.270 . S
O317 Zn309 1.943 . S
O317 C316 1.249 . S
O318 Zn308 2.067 . S
O318 C316 1.270 . S
C319 O312 1.262 . S
C319 O320 1.232 . S
O320 C319 1.232 . S
C321 O313 1.260 . S
C321 O314 1.257 . S
Zn322 O325 2.031 . S
Zn322 O327 2.049 . S
Zn322 O332 2.067 . S
Zn323 O324 1.962 . S
Zn323 O326 1.986 . S
Zn323 O328 1.996 . S
Zn323 O331 1.943 . S
O324 Zn323 1.962 . S
O324 C329 1.254 . S
O325 Zn322 2.031 . S
O325 C329 1.269 . S
O326 Zn323 1.986 . S
O326 C333 1.262 . S
O327 Zn322 2.049 . S
O327 C335 1.260 . S
O328 Zn323 1.996 . S
O328 C335 1.257 . S
C329 O324 1.254 . S
C329 O325 1.269 . S
C330 O331 1.249 . S
C330 O332 1.270 . S
O331 Zn323 1.943 . S
O331 C330 1.249 . S
O332 Zn322 2.067 . S
O332 C330 1.270 . S
C333 O326 1.262 . S
C333 O334 1.232 . S
O334 C333 1.232 . S
C335 O327 1.260 . S
C335 O328 1.257 . S
O336 Mn337 2.212 . S
O336 C350 1.243 1_554 S
Mn337 O336 2.212 . S
Mn337 O340 2.114 1_445 S
Mn337 O341 2.241 1_455 S
Mn337 O343 2.156 1_454 S
Mn337 O345 2.163 1_545 S
Mn337 O355 2.200 1_544 S
O338 Mn339 2.087 1_556 S
O338 C350 1.256 1_565 S
Mn339 O338 2.087 1_554 S
Mn339 O346 2.089 . S
Mn339 O355 2.290 1_554 S
Mn339 O356 2.251 1_554 S
O340 Mn337 2.114 1_665 S
O340 C351 1.239 . S
O341 Mn337 2.241 1_655 S
O341 Mn342 2.290 1_554 S
O341 C352 1.278 . S
Mn342 O341 2.290 1_556 S
Mn342 O344 2.085 1_556 S
Mn342 O347 2.251 1_556 S
Mn342 O348 2.087 . S
O343 Mn337 2.156 1_656 S
O343 C353 1.244 . S
O344 Mn342 2.085 1_554 S
O344 C351 1.270 1_545 S
O345 Mn337 2.163 1_565 S
O345 C354 1.239 . S
O346 Mn339 2.089 . S
O346 C354 1.256 . S
O347 Mn342 2.251 1_554 S
O347 C352 1.241 . S
O348 Mn342 2.087 . S
O348 C353 1.256 . S
C349 O355 1.278 . S
C349 O356 1.241 . S
C350 O336 1.243 1_556 S
C350 O338 1.256 1_545 S
C351 O340 1.239 . S
C351 O344 1.270 1_565 S
C352 O341 1.278 . S
C352 O347 1.241 . S
C353 O343 1.244 . S
C353 O348 1.256 . S
C354 O345 1.239 . S
C354 O346 1.256 . S
O355 Mn337 2.200 1_566 S
O355 Mn339 2.290 1_556 S
O355 C349 1.278 . S
O356 Mn339 2.251 1_556 S
O356 C349 1.241 . S
O357 Mn358 2.163 . S
O357 C371 1.244 . S
Mn358 O357 2.163 . S
Mn358 O361 2.160 . S
Mn358 O362 2.221 . S
Mn358 O364 2.163 . S
Mn358 O366 2.160 . S
Mn358 O376 2.221 . S
O359 Mn360 2.087 . S
O359 C371 1.256 . S
Mn360 O359 2.087 . S
Mn360 O367 2.089 . S
Mn360 O376 2.290 . S
Mn360 O377 2.251 . S
O361 Mn358 2.160 . S
O361 C372 1.239 . S
O362 Mn358 2.221 . S
O362 Mn363 2.290 . S
O362 C373 1.278 . S
Mn363 O362 2.290 . S
Mn363 O365 2.089 . S
Mn363 O368 2.251 . S
Mn363 O369 2.087 . S
O364 Mn358 2.163 . S
O364 C374 1.244 . S
O365 Mn363 2.089 . S
O365 C372 1.256 . S
O366 Mn358 2.160 . S
O366 C375 1.239 . S
O367 Mn360 2.089 . S
O367 C375 1.256 . S
O368 Mn363 2.251 . S
O368 C373 1.241 . S
O369 Mn363 2.087 . S
O369 C374 1.256 . S
C370 O376 1.278 . S
C370 O377 1.241 . S
C371 O357 1.244 . S
C371 O359 1.256 . S
C372 O361 1.239 . S
C372 O365 1.256 . S
C373 O362 1.278 . S
C373 O368 1.241 . S
C374 O364 1.244 . S
C374 O369 1.256 . S
C375 O366 1.239 . S
C375 O367 1.256 . S
O376 Mn358 2.221 . S
O376 Mn360 2.290 . S
O376 C370 1.278 . S
O377 Mn360 2.251 . S
O377 C370 1.241 . S
O378 Mn379 2.163 1_565 S
O378 C392 1.244 . S
Mn379 O378 2.163 1_545 S
Mn379 O382 2.160 . S
Mn379 O383 2.221 1_545 S
Mn379 O385 2.163 . S
Mn379 O387 2.160 . S
Mn379 O397 2.221 . S
O380 Mn381 2.087 . S
O380 C392 1.256 1_545 S
Mn381 O380 2.087 . S
Mn381 O388 2.089 . S
Mn381 O397 2.290 . S
Mn381 O398 2.251 . S
O382 Mn379 2.160 . S
O382 C393 1.239 . S
O383 Mn379 2.221 1_565 S
O383 Mn384 2.290 . S
O383 C394 1.278 . S
Mn384 O383 2.290 . S
Mn384 O386 2.089 1_565 S
Mn384 O389 2.251 . S
Mn384 O390 2.087 . S
O385 Mn379 2.163 . S
O385 C395 1.217 1_545 S
O386 Mn384 2.089 1_545 S
O386 C393 1.256 . S
O387 Mn379 2.160 . S
O387 C396 1.239 . S
O388 Mn381 2.089 . S
O388 C396 1.256 . S
O389 Mn384 2.251 . S
O389 C394 1.241 . S
O390 Mn384 2.087 . S
O390 C395 1.297 . S
C391 O397 1.278 . S
C391 O398 1.241 . S
C392 O378 1.244 . S
C392 O380 1.256 1_565 S
C393 O382 1.239 . S
C393 O386 1.256 . S
C394 O383 1.278 . S
C394 O389 1.241 . S
C395 O385 1.217 1_565 S
C395 O390 1.297 . S
C396 O387 1.239 . S
C396 O388 1.256 . S
O397 Mn379 2.221 . S
O397 Mn381 2.290 . S
O397 C391 1.278 . S
O398 Mn381 2.251 . S
O398 C391 1.241 . S
O399 Mn400 2.163 . S
O399 C413 1.244 . S
Mn400 O399 2.163 . S
Mn400 O403 2.160 . S
Mn400 O404 2.221 . S
Mn400 O406 2.163 . S
Mn400 O408 2.160 . S
Mn400 O418 2.221 . S
O401 Mn402 2.087 . S
O401 C413 1.256 . S
Mn402 O401 2.087 . S
Mn402 O409 2.089 . S
Mn402 O418 2.290 . S
Mn402 O419 2.251 . S
O403 Mn400 2.160 . S
O403 C414 1.239 . S
O404 Mn400 2.221 . S
O404 Mn405 2.290 . S
O404 C415 1.278 . S
Mn405 O404 2.290 . S
Mn405 O407 2.089 . S
Mn405 O410 2.251 . S
Mn405 O411 2.087 . S
O406 Mn400 2.163 . S
O406 C416 1.244 . S
O407 Mn405 2.089 . S
O407 C414 1.256 . S
O408 Mn400 2.160 . S
O408 C417 1.239 . S
O409 Mn402 2.089 . S
O409 C417 1.256 . S
O410 Mn405 2.251 . S
O410 C415 1.241 . S
O411 Mn405 2.087 . S
O411 C416 1.256 . S
C412 O418 1.278 . S
C412 O419 1.241 . S
C413 O399 1.244 . S
C413 O401 1.256 . S
C414 O403 1.239 . S
C414 O407 1.256 . S
C415 O404 1.278 . S
C415 O410 1.241 . S
C416 O406 1.244 . S
C416 O411 1.256 . S
C417 O408 1.239 . S
C417 O409 1.256 . S
O418 Mn400 2.221 . S
O418 Mn402 2.290 . S
O418 C412 1.278 . S
O419 Mn402 2.251 . S
O419 C412 1.241 . S
O420 Mn421 2.164 1_565 S
O420 C434 1.243 1_455 S
Mn421 O420 2.164 1_545 S
Mn421 O424 2.160 . S
Mn421 O425 2.221 . S
Mn421 O427 2.163 1_455 S
Mn421 O429 2.160 1_545 S
Mn421 O439 2.210 1_445 S
O422 Mn423 2.087 1_655 S
O422 C434 1.256 . S
Mn423 O422 2.087 1_455 S
Mn423 O430 2.089 . S
Mn423 O439 2.270 1_455 S
Mn423 O440 2.251 1_455 S
O424 Mn421 2.160 . S
O424 C435 1.239 . S
O425 Mn421 2.221 . S
O425 Mn426 2.290 1_455 S
O425 C436 1.278 . S
Mn426 O425 2.290 1_655 S
Mn426 O428 2.089 1_655 S
Mn426 O431 2.251 1_655 S
Mn426 O432 2.087 . S
O427 Mn421 2.163 1_655 S
O427 C437 1.244 . S
O428 Mn426 2.089 1_455 S
O428 C435 1.256 . S
O429 Mn421 2.160 1_565 S
O429 C438 1.239 . S
O430 Mn423 2.089 . S
O430 C438 1.256 . S
O431 Mn426 2.251 1_455 S
O431 C436 1.241 . S
O432 Mn426 2.087 . S
O432 C437 1.256 . S
C433 O439 1.321 . S
C433 O440 1.241 . S
C434 O420 1.243 1_655 S
C434 O422 1.256 . S
C435 O424 1.239 . S
C435 O428 1.256 . S
C436 O425 1.278 . S
C436 O431 1.241 . S
C437 O427 1.244 . S
C437 O432 1.256 . S
C438 O429 1.239 . S
C438 O430 1.256 . S
O439 Mn421 2.210 1_665 S
O439 Mn423 2.270 1_655 S
O439 C433 1.321 . S
O440 Mn423 2.251 1_655 S
O440 C433 1.241 . S
O441 Mn442 2.163 . S
O441 C455 1.244 . S
Mn442 O441 2.163 . S
Mn442 O445 2.160 . S
Mn442 O446 2.221 . S
Mn442 O448 2.163 . S
Mn442 O450 2.160 . S
Mn442 O460 2.221 . S
O443 Mn444 2.087 . S
O443 C455 1.256 . S
Mn444 O443 2.087 . S
Mn444 O451 2.089 . S
Mn444 O460 2.290 . S
Mn444 O461 2.251 . S
O445 Mn442 2.160 . S
O445 C456 1.239 . S
O446 Mn442 2.221 . S
O446 Mn447 2.290 . S
O446 C457 1.278 . S
Mn447 O446 2.290 . S
Mn447 O449 2.089 . S
Mn447 O452 2.251 . S
Mn447 O453 2.087 . S
O448 Mn442 2.163 . S
O448 C458 1.244 . S
O449 Mn447 2.089 . S
O449 C456 1.256 . S
O450 Mn442 2.160 . S
O450 C459 1.239 . S
O451 Mn444 2.089 . S
O451 C459 1.256 . S
O452 Mn447 2.251 . S
O452 C457 1.241 . S
O453 Mn447 2.087 . S
O453 C458 1.256 . S
C454 O460 1.278 . S
C454 O461 1.241 . S
C455 O441 1.244 . S
C455 O443 1.256 . S
C456 O445 1.239 . S
C456 O449 1.256 . S
C457 O446 1.278 . S
C457 O452 1.241 . S
C458 O448 1.244 . S
C458 O453 1.256 . S
C459 O450 1.239 . S
C459 O451 1.256 . S
O460 Mn442 2.221 . S
O460 Mn444 2.290 . S
O460 C454 1.278 . S
O461 Mn444 2.251 . S
O461 C454 1.241 . S
O462 Mn463 2.159 1_566 S
O462 C476 1.248 . S
Mn463 O462 2.159 1_544 S
Mn463 O466 2.160 . S
Mn463 O467 2.221 . S
Mn463 O469 2.163 1_545 S
Mn463 O471 2.160 1_554 S
Mn463 O481 2.210 1_544 S
O464 Mn465 2.087 1_565 S
O464 C476 1.256 . S
Mn465 O464 2.087 1_545 S
Mn465 O472 2.089 . S
Mn465 O481 2.271 1_545 S
Mn465 O482 2.251 1_545 S
O466 Mn463 2.160 . S
O466 C477 1.239 . S
O467 Mn463 2.221 . S
O467 Mn468 2.290 1_545 S
O467 C478 1.278 . S
Mn468 O467 2.290 1_565 S
Mn468 O470 2.085 1_565 S
Mn468 O473 2.251 1_565 S
Mn468 O474 2.087 . S
O469 Mn463 2.163 1_565 S
O469 C479 1.244 . S
O470 Mn468 2.085 1_545 S
O470 C477 1.274 . S
O471 Mn463 2.160 1_556 S
O471 C480 1.239 . S
O472 Mn465 2.089 . S
O472 C480 1.256 . S
O473 Mn468 2.251 1_545 S
O473 C478 1.241 . S
O474 Mn468 2.087 . S
O474 C479 1.256 . S
C475 O481 1.321 . S
C475 O482 1.241 . S
C476 O462 1.248 . S
C476 O464 1.256 . S
C477 O466 1.239 . S
C477 O470 1.274 . S
C478 O467 1.278 . S
C478 O473 1.241 . S
C479 O469 1.244 . S
C479 O474 1.256 . S
C480 O471 1.239 . S
C480 O472 1.256 . S
O481 Mn463 2.210 1_566 S
O481 Mn465 2.271 1_565 S
O481 C475 1.321 . S
O482 Mn465 2.251 1_565 S
O482 C475 1.241 . S
O483 Mn484 2.163 . S
O483 C497 1.244 . S
Mn484 O483 2.163 . S
Mn484 O487 2.160 . S
Mn484 O488 2.221 . S
Mn484 O490 2.163 . S
Mn484 O492 2.160 . S
Mn484 O502 2.221 . S
O485 Mn486 2.087 . S
O485 C497 1.256 . S
Mn486 O485 2.087 . S
Mn486 O493 2.089 . S
Mn486 O502 2.290 . S
Mn486 O503 2.251 . S
O487 Mn484 2.160 . S
O487 C498 1.239 . S
O488 Mn484 2.221 . S
O488 Mn489 2.290 . S
O488 C499 1.278 . S
Mn489 O488 2.290 . S
Mn489 O491 2.089 . S
Mn489 O494 2.251 . S
Mn489 O495 2.087 . S
O490 Mn484 2.163 . S
O490 C500 1.244 . S
O491 Mn489 2.089 . S
O491 C498 1.256 . S
O492 Mn484 2.160 . S
O492 C501 1.239 . S
O493 Mn486 2.089 . S
O493 C501 1.256 . S
O494 Mn489 2.251 . S
O494 C499 1.241 . S
O495 Mn489 2.087 . S
O495 C500 1.256 . S
C496 O502 1.278 . S
C496 O503 1.241 . S
C497 O483 1.244 . S
C497 O485 1.256 . S
C498 O487 1.239 . S
C498 O491 1.256 . S
C499 O488 1.278 . S
C499 O494 1.241 . S
C500 O490 1.244 . S
C500 O495 1.256 . S
C501 O492 1.239 . S
C501 O493 1.256 . S
O502 Mn484 2.221 . S
O502 Mn486 2.290 . S
O502 C496 1.278 . S
O503 Mn486 2.251 . S
O503 C496 1.241 . S
O504 Mn505 2.163 1_556 S
O504 C518 1.244 . S
Mn505 O504 2.163 1_554 S
Mn505 O508 2.160 . S
Mn505 O509 2.221 1_554 S
Mn505 O511 2.163 . S
Mn505 O513 2.160 . S
Mn505 O523 2.221 . S
O506 Mn507 2.087 . S
O506 C518 1.256 1_554 S
Mn507 O506 2.087 . S
Mn507 O514 2.089 . S
Mn507 O523 2.290 . S
Mn507 O524 2.251 . S
O508 Mn505 2.160 . S
O508 C519 1.239 . S
O509 Mn505 2.221 1_556 S
O509 Mn510 2.290 . S
O509 C520 1.278 . S
Mn510 O509 2.290 . S
Mn510 O512 2.089 1_556 S
Mn510 O515 2.251 . S
Mn510 O516 2.087 . S
O511 Mn505 2.163 . S
O511 C521 1.244 1_554 S
O512 Mn510 2.089 1_554 S
O512 C519 1.256 . S
O513 Mn505 2.160 . S
O513 C522 1.239 . S
O514 Mn507 2.089 . S
O514 C522 1.256 . S
O515 Mn510 2.251 . S
O515 C520 1.241 . S
O516 Mn510 2.087 . S
O516 C521 1.256 . S
C517 O523 1.278 . S
C517 O524 1.241 . S
C518 O504 1.244 . S
C518 O506 1.256 1_556 S
C519 O508 1.239 . S
C519 O512 1.256 . S
C520 O509 1.278 . S
C520 O515 1.241 . S
C521 O511 1.244 1_556 S
C521 O516 1.256 . S
C522 O513 1.239 . S
C522 O514 1.256 . S
O523 Mn505 2.221 . S
O523 Mn507 2.290 . S
O523 C517 1.278 . S
O524 Mn507 2.251 . S
O524 C517 1.241 . S
O525 Mn526 2.163 . S
O525 C539 1.244 . S
Mn526 O525 2.163 . S
Mn526 O529 2.160 . S
Mn526 O530 2.221 . S
Mn526 O532 2.163 . S
Mn526 O534 2.160 . S
Mn526 O544 2.221 . S
O527 Mn528 2.087 . S
O527 C539 1.256 . S
Mn528 O527 2.087 . S
Mn528 O535 2.089 . S
Mn528 O544 2.290 . S
Mn528 O545 2.251 . S
O529 Mn526 2.160 . S
O529 C540 1.239 . S
O530 Mn526 2.221 . S
O530 Mn531 2.290 . S
O530 C541 1.278 . S
Mn531 O530 2.290 . S
Mn531 O533 2.089 . S
Mn531 O536 2.251 . S
Mn531 O537 2.087 . S
O532 Mn526 2.163 . S
O532 C542 1.244 . S
O533 Mn531 2.089 . S
O533 C540 1.256 . S
O534 Mn526 2.160 . S
O534 C543 1.239 . S
O535 Mn528 2.089 . S
O535 C543 1.256 . S
O536 Mn531 2.251 . S
O536 C541 1.241 . S
O537 Mn531 2.087 . S
O537 C542 1.256 . S
C538 O544 1.278 . S
C538 O545 1.241 . S
C539 O525 1.244 . S
C539 O527 1.256 . S
C540 O529 1.239 . S
C540 O533 1.256 . S
C541 O530 1.278 . S
C541 O536 1.241 . S
C542 O532 1.244 . S
C542 O537 1.256 . S
C543 O534 1.239 . S
C543 O535 1.256 . S
O544 Mn526 2.221 . S
O544 Mn528 2.290 . S
O544 C538 1.278 . S
O545 Mn528 2.251 . S
O545 C538 1.241 . S
O546 Mn547 2.163 1_655 S
O546 C560 1.244 . S
Mn547 O546 2.163 1_455 S
Mn547 O550 2.160 . S
Mn547 O551 2.221 1_455 S
Mn547 O553 2.163 . S
Mn547 O555 2.160 . S
Mn547 O565 2.221 . S
O548 Mn549 2.087 . S
O548 C560 1.256 1_455 S
Mn549 O548 2.087 . S
Mn549 O556 2.089 . S
Mn549 O565 2.290 . S
Mn549 O566 2.251 . S
O550 Mn547 2.160 . S
O550 C561 1.239 . S
O551 Mn547 2.221 1_655 S
O551 Mn552 2.290 . S
O551 C562 1.278 . S
Mn552 O551 2.290 . S
Mn552 O554 2.089 1_655 S
Mn552 O557 2.251 . S
Mn552 O558 2.087 . S
O553 Mn547 2.163 . S
O553 C563 1.244 1_455 S
O554 Mn552 2.089 1_455 S
O554 C561 1.256 . S
O555 Mn547 2.160 . S
O555 C564 1.239 . S
O556 Mn549 2.089 . S
O556 C564 1.256 . S
O557 Mn552 2.251 . S
O557 C562 1.241 . S
O558 Mn552 2.087 . S
O558 C563 1.256 . S
C559 O565 1.278 . S
C559 O566 1.241 . S
C560 O546 1.244 . S
C560 O548 1.256 1_655 S
C561 O550 1.239 . S
C561 O554 1.256 . S
C562 O551 1.278 . S
C562 O557 1.241 . S
C563 O553 1.244 1_655 S
C563 O558 1.256 . S
C564 O555 1.239 . S
C564 O556 1.256 . S
O565 Mn547 2.221 . S
O565 Mn549 2.290 . S
O565 C559 1.278 . S
O566 Mn549 2.251 . S
O566 C559 1.241 . S
O567 Mn568 2.163 . S
O567 C581 1.244 . S
Mn568 O567 2.163 . S
Mn568 O571 2.160 . S
Mn568 O572 2.221 . S
Mn568 O574 2.163 . S
Mn568 O576 2.160 . S
Mn568 O586 2.221 . S
O569 Mn570 2.087 . S
O569 C581 1.256 . S
Mn570 O569 2.087 . S
Mn570 O577 2.089 . S
Mn570 O586 2.290 . S
Mn570 O587 2.251 . S
O571 Mn568 2.160 . S
O571 C582 1.239 . S
O572 Mn568 2.221 . S
O572 Mn573 2.290 . S
O572 C583 1.278 . S
Mn573 O572 2.290 . S
Mn573 O575 2.089 . S
Mn573 O578 2.251 . S
Mn573 O579 2.087 . S
O574 Mn568 2.163 . S
O574 C584 1.244 . S
O575 Mn573 2.089 . S
O575 C582 1.256 . S
O576 Mn568 2.160 . S
O576 C585 1.239 . S
O577 Mn570 2.089 . S
O577 C585 1.256 . S
O578 Mn573 2.251 . S
O578 C583 1.241 . S
O579 Mn573 2.087 . S
O579 C584 1.256 . S
C580 O586 1.278 . S
C580 O587 1.241 . S
C581 O567 1.244 . S
C581 O569 1.256 . S
C582 O571 1.239 . S
C582 O575 1.256 . S
C583 O572 1.278 . S
C583 O578 1.241 . S
C584 O574 1.244 . S
C584 O579 1.256 . S
C585 O576 1.239 . S
C585 O577 1.256 . S
O586 Mn568 2.221 . S
O586 Mn570 2.290 . S
O586 C580 1.278 . S
O587 Mn570 2.251 . S
O587 C580 1.241 . S
O588 Mn589 2.163 . S
O588 C602 1.244 . S
Mn589 O588 2.163 . S
Mn589 O592 2.160 . S
Mn589 O593 2.221 . S
Mn589 O595 2.163 . S
Mn589 O597 2.160 . S
Mn589 O607 2.221 . S
O590 Mn591 2.087 . S
O590 C602 1.256 . S
Mn591 O590 2.087 . S
Mn591 O598 2.089 . S
Mn591 O607 2.290 . S
Mn591 O608 2.251 . S
O592 Mn589 2.160 . S
O592 C603 1.239 . S
O593 Mn589 2.221 . S
O593 Mn594 2.290 . S
O593 C604 1.278 . S
Mn594 O593 2.290 . S
Mn594 O596 2.089 . S
Mn594 O599 2.251 . S
Mn594 O600 2.087 . S
O595 Mn589 2.163 . S
O595 C605 1.244 . S
O596 Mn594 2.089 . S
O596 C603 1.256 . S
O597 Mn589 2.160 . S
O597 C606 1.239 . S
O598 Mn591 2.089 . S
O598 C606 1.256 . S
O599 Mn594 2.251 . S
O599 C604 1.241 . S
O600 Mn594 2.087 . S
O600 C605 1.256 . S
C601 O607 1.278 . S
C601 O608 1.241 . S
C602 O588 1.244 . S
C602 O590 1.256 . S
C603 O592 1.239 . S
C603 O596 1.256 . S
C604 O593 1.278 . S
C604 O599 1.241 . S
C605 O595 1.244 . S
C605 O600 1.256 . S
C606 O597 1.239 . S
C606 O598 1.256 . S
O607 Mn589 2.221 . S
O607 Mn591 2.290 . S
O607 C601 1.278 . S
O608 Mn591 2.251 . S
O608 C601 1.241 . S
O609 Mn610 2.163 . S
O609 C623 1.244 . S
Mn610 O609 2.163 . S
Mn610 O613 2.160 . S
Mn610 O614 2.221 . S
Mn610 O616 2.163 . S
Mn610 O618 2.160 . S
Mn610 O628 2.221 . S
O611 Mn612 2.087 . S
O611 C623 1.256 . S
Mn612 O611 2.087 . S
Mn612 O619 2.089 . S
Mn612 O628 2.290 . S
Mn612 O629 2.251 . S
O613 Mn610 2.160 . S
O613 C624 1.239 . S
O614 Mn610 2.221 . S
O614 Mn615 2.290 . S
O614 C625 1.278 . S
Mn615 O614 2.290 . S
Mn615 O617 2.089 . S
Mn615 O620 2.251 . S
Mn615 O621 2.087 . S
O616 Mn610 2.163 . S
O616 C626 1.244 . S
O617 Mn615 2.089 . S
O617 C624 1.256 . S
O618 Mn610 2.160 . S
O618 C627 1.239 . S
O619 Mn612 2.089 . S
O619 C627 1.256 . S
O620 Mn615 2.251 . S
O620 C625 1.241 . S
O621 Mn615 2.087 . S
O621 C626 1.256 . S
C622 O628 1.278 . S
C622 O629 1.241 . S
C623 O609 1.244 . S
C623 O611 1.256 . S
C624 O613 1.239 . S
C624 O617 1.256 . S
C625 O614 1.278 . S
C625 O620 1.241 . S
C626 O616 1.244 . S
C626 O621 1.256 . S
C627 O618 1.239 . S
C627 O619 1.256 . S
O628 Mn610 2.221 . S
O628 Mn612 2.290 . S
O628 C622 1.278 . S
O629 Mn612 2.251 . S
O629 C622 1.241 . S
O630 Mn631 2.163 . S
O630 C644 1.244 . S
Mn631 O630 2.163 . S
Mn631 O634 2.160 . S
Mn631 O635 2.221 . S
Mn631 O637 2.163 . S
Mn631 O639 2.160 . S
Mn631 O649 2.221 . S
O632 Mn633 2.087 . S
O632 C644 1.256 . S
Mn633 O632 2.087 . S
Mn633 O640 2.089 . S
Mn633 O649 2.290 . S
Mn633 O650 2.251 . S
O634 Mn631 2.160 . S
O634 C645 1.239 . S
O635 Mn631 2.221 . S
O635 Mn636 2.290 . S
O635 C646 1.278 . S
Mn636 O635 2.290 . S
Mn636 O638 2.089 . S
Mn636 O641 2.251 . S
Mn636 O642 2.087 . S
O637 Mn631 2.163 . S
O637 C647 1.244 . S
O638 Mn636 2.089 . S
O638 C645 1.256 . S
O639 Mn631 2.160 . S
O639 C648 1.239 . S
O640 Mn633 2.089 . S
O640 C648 1.256 . S
O641 Mn636 2.251 . S
O641 C646 1.241 . S
O642 Mn636 2.087 . S
O642 C647 1.256 . S
C643 O649 1.278 . S
C643 O650 1.241 . S
C644 O630 1.244 . S
C644 O632 1.256 . S
C645 O634 1.239 . S
C645 O638 1.256 . S
C646 O635 1.278 . S
C646 O641 1.241 . S
C647 O637 1.244 . S
C647 O642 1.256 . S
C648 O639 1.239 . S
C648 O640 1.256 . S
O649 Mn631 2.221 . S
O649 Mn633 2.290 . S
O649 C643 1.278 . S
O650 Mn633 2.251 . S
O650 C643 1.241 . S
O651 Mn652 2.163 1_656 S
O651 C665 1.244 . S
Mn652 O651 2.163 1_454 S
Mn652 O655 2.160 . S
Mn652 O656 2.221 . S
Mn652 O658 2.163 1_554 S
Mn652 O660 2.162 . S
Mn652 O670 2.221 1_454 S
O653 Mn654 2.087 1_556 S
O653 C665 1.256 . S
Mn654 O653 2.087 1_554 S
Mn654 O661 2.089 . S
Mn654 O670 2.290 1_554 S
Mn654 O671 2.251 1_554 S
O655 Mn652 2.160 . S
O655 C666 1.239 . S
O656 Mn652 2.221 . S
O656 Mn657 2.290 1_554 S
O656 C667 1.278 . S
Mn657 O656 2.290 1_556 S
Mn657 O659 2.084 1_556 S
Mn657 O662 2.251 1_556 S
Mn657 O663 2.087 . S
O658 Mn652 2.163 1_556 S
O658 C668 1.244 . S
O659 Mn657 2.084 1_554 S
O659 C666 1.274 . S
O660 Mn652 2.162 . S
O660 C669 1.233 1_455 S
O661 Mn654 2.089 . S
O661 C669 1.256 . S
O662 Mn657 2.251 1_554 S
O662 C667 1.241 . S
O663 Mn657 2.087 . S
O663 C668 1.256 . S
C664 O670 1.278 . S
C664 O671 1.241 . S
C665 O651 1.244 . S
C665 O653 1.256 . S
C666 O655 1.239 . S
C666 O659 1.274 . S
C667 O656 1.278 . S
C667 O662 1.241 . S
C668 O658 1.244 . S
C668 O663 1.256 . S
C669 O660 1.233 1_655 S
C669 O661 1.256 . S
O670 Mn652 2.221 1_656 S
O670 Mn654 2.290 1_556 S
O670 C664 1.278 . S
O671 Mn654 2.251 1_556 S
O671 C664 1.241 . S
H672 C690 0.951 . S
H673 C692 0.951 . S
H674 C694 0.950 . S
H675 C695 0.950 . S
H676 C697 0.950 . S
H677 C700 0.950 . S
H678 C701 0.950 . S
H679 C703 0.950 . S
H680 C704 0.950 . S
H681 C705 0.951 . S
H682 C707 0.951 . S
H683 C709 0.950 . S
H684 C710 0.950 . S
H685 C712 0.950 . S
H686 C715 0.950 . S
H687 C716 0.950 . S
H688 C718 0.950 . S
H689 C719 0.950 . S
C690 H672 0.951 . S
C690 C691 1.366 . S
C690 C692 1.388 . S
C691 C690 1.366 . S
C691 C695 1.385 1_455 S
C692 H673 0.951 . S
C692 C690 1.388 . S
C692 C693 1.366 . S
C693 C692 1.366 . S
C693 C694 1.414 1_455 S
C693 C696 1.500 . S
C694 H674 0.950 . S
C694 C693 1.414 1_655 S
C694 C695 1.374 . S
C695 H675 0.950 . S
C695 C691 1.385 1_655 S
C695 C694 1.374 . S
C696 C693 1.500 . S
C696 C697 1.337 1_455 S
C696 C698 1.425 . S
C697 H676 0.950 . S
C697 C696 1.337 1_655 S
C697 C713 1.377 . S
C698 C696 1.425 . S
C698 C699 1.524 . S
C698 C712 1.377 . S
C699 C698 1.524 . S
C699 C700 1.397 . S
C699 C704 1.363 . S
C700 H677 0.950 . S
C700 C699 1.397 . S
C700 C701 1.334 . S
C701 H678 0.950 . S
C701 C700 1.334 . S
C701 C702 1.287 . S
C702 C701 1.287 . S
C702 C703 1.524 . S
C702 H721 0.913 . S
C703 H679 0.950 . S
C703 C702 1.524 . S
C703 C704 1.415 . S
C704 H680 0.950 . S
C704 C699 1.363 . S
C704 C703 1.415 . S
C705 H681 0.951 . S
C705 C706 1.366 . S
C705 C707 1.388 . S
C706 C705 1.366 . S
C706 C710 1.385 1_655 S
C707 H682 0.951 . S
C707 C705 1.388 . S
C707 C708 1.366 . S
C708 C707 1.366 . S
C708 C709 1.414 1_655 S
C708 C711 1.499 . S
C709 H683 0.950 . S
C709 C708 1.414 1_455 S
C709 C710 1.374 . S
C710 H684 0.950 . S
C710 C706 1.385 1_455 S
C710 C709 1.374 . S
C711 C708 1.499 . S
C711 C712 1.373 1_655 S
C711 C713 1.389 . S
C712 H685 0.950 . S
C712 C698 1.377 . S
C712 C711 1.373 1_455 S
C713 C697 1.377 . S
C713 C711 1.389 . S
C713 C714 1.524 . S
C714 C713 1.524 . S
C714 C715 1.397 . S
C714 C719 1.363 . S
C715 H686 0.950 . S
C715 C714 1.397 . S
C715 C716 1.334 . S
C716 H687 0.950 . S
C716 C715 1.334 . S
C716 C717 1.287 . S
C717 C716 1.287 . S
C717 C718 1.524 . S
C717 H720 0.999 . S
C718 H688 0.950 . S
C718 C717 1.524 . S
C718 C719 1.415 . S
C719 H689 0.950 . S
C719 C714 1.363 . S
C719 C718 1.415 . S
H720 C717 0.999 . S
H721 C702 0.913 . S
H722 C740 0.951 . S
H723 C742 0.951 . S
H724 C744 0.950 . S
H725 C745 0.950 . S
H726 C747 0.950 . S
H727 C750 0.950 . S
H728 C751 0.950 . S
H729 C753 0.950 . S
H730 C754 0.950 . S
H731 C755 0.951 . S
H732 C757 0.951 . S
H733 C759 0.950 . S
H734 C760 0.950 . S
H735 C762 0.950 . S
H736 C765 0.950 . S
H737 C766 0.950 . S
H738 C768 0.950 . S
H739 C769 0.950 . S
C740 H722 0.951 . S
C740 C741 1.366 . S
C740 C742 1.388 . S
C741 C740 1.366 . S
C741 C745 1.385 . S
C742 H723 0.951 . S
C742 C740 1.388 . S
C742 C743 1.366 . S
C743 C742 1.366 . S
C743 C744 1.414 . S
C743 C746 1.499 . S
C744 H724 0.950 . S
C744 C743 1.414 . S
C744 C745 1.374 . S
C745 H725 0.950 . S
C745 C741 1.385 . S
C745 C744 1.374 . S
C746 C743 1.499 . S
C746 C747 1.373 . S
C746 C748 1.389 . S
C747 H726 0.950 . S
C747 C746 1.373 . S
C747 C763 1.377 . S
C748 C746 1.389 . S
C748 C749 1.524 . S
C748 C762 1.377 . S
C749 C748 1.524 . S
C749 C750 1.397 . S
C749 C754 1.363 . S
C750 H727 0.950 . S
C750 C749 1.397 . S
C750 C751 1.334 . S
C751 H728 0.950 . S
C751 C750 1.334 . S
C751 C752 1.287 . S
C752 C751 1.287 . S
C752 C753 1.524 . S
C752 H771 0.913 . S
C753 H729 0.950 . S
C753 C752 1.524 . S
C753 C754 1.415 . S
C754 H730 0.950 . S
C754 C749 1.363 . S
C754 C753 1.415 . S
C755 H731 0.951 . S
C755 C756 1.366 . S
C755 C757 1.388 . S
C756 C755 1.366 . S
C756 C760 1.385 . S
C757 H732 0.951 . S
C757 C755 1.388 . S
C757 C758 1.366 . S
C758 C757 1.366 . S
C758 C759 1.414 . S
C758 C761 1.499 . S
C759 H733 0.950 . S
C759 C758 1.414 . S
C759 C760 1.374 . S
C760 H734 0.950 . S
C760 C756 1.385 . S
C760 C759 1.374 . S
C761 C758 1.499 . S
C761 C762 1.373 . S
C761 C763 1.389 . S
C762 H735 0.950 . S
C762 C748 1.377 . S
C762 C761 1.373 . S
C763 C747 1.377 . S
C763 C761 1.389 . S
C763 C764 1.524 . S
C764 C763 1.524 . S
C764 C765 1.397 . S
C764 C769 1.363 . S
C765 H736 0.950 . S
C765 C764 1.397 . S
C765 C766 1.334 . S
C766 H737 0.950 . S
C766 C765 1.334 . S
C766 C767 1.287 . S
C767 C766 1.287 . S
C767 C768 1.524 . S
C767 H770 0.999 . S
C768 H738 0.950 . S
C768 C767 1.524 . S
C768 C769 1.415 . S
C769 H739 0.950 . S
C769 C764 1.363 . S
C769 C768 1.415 . S
H770 C767 0.999 . S
H771 C752 0.913 . S
H772 C790 0.951 . S
H773 C792 0.951 . S
H774 C794 0.950 . S
H775 C795 0.950 . S
H776 C797 0.950 . S
H777 C800 0.950 . S
H778 C801 0.950 . S
H779 C803 0.950 . S
H780 C804 0.950 . S
H781 C805 0.951 . S
H782 C807 0.951 . S
H783 C809 0.950 . S
H784 C810 0.950 . S
H785 C812 0.950 . S
H786 C815 0.950 . S
H787 C816 0.950 . S
H788 C818 0.950 . S
H789 C819 0.950 . S
C790 H772 0.951 . S
C790 C791 1.366 . S
C790 C792 1.388 . S
C791 C790 1.366 . S
C791 C795 1.385 . S
C792 H773 0.951 . S
C792 C790 1.388 . S
C792 C793 1.366 . S
C793 C792 1.366 . S
C793 C794 1.414 . S
C793 C796 1.499 . S
C794 H774 0.950 . S
C794 C793 1.414 . S
C794 C795 1.374 . S
C795 H775 0.950 . S
C795 C791 1.385 . S
C795 C794 1.374 . S
C796 C793 1.499 . S
C796 C797 1.373 . S
C796 C798 1.389 . S
C797 H776 0.950 . S
C797 C796 1.373 . S
C797 C813 1.377 . S
C798 C796 1.389 . S
C798 C799 1.524 . S
C798 C812 1.377 . S
C799 C798 1.524 . S
C799 C800 1.397 . S
C799 C804 1.363 . S
C800 H777 0.950 . S
C800 C799 1.397 . S
C800 C801 1.334 . S
C801 H778 0.950 . S
C801 C800 1.334 . S
C801 C802 1.287 . S
C802 C801 1.287 . S
C802 C803 1.524 . S
C802 H821 0.913 . S
C803 H779 0.950 . S
C803 C802 1.524 . S
C803 C804 1.415 . S
C804 H780 0.950 . S
C804 C799 1.363 . S
C804 C803 1.415 . S
C805 H781 0.951 . S
C805 C806 1.366 . S
C805 C807 1.388 . S
C806 C805 1.366 . S
C806 C810 1.385 . S
C807 H782 0.951 . S
C807 C805 1.388 . S
C807 C808 1.366 . S
C808 C807 1.366 . S
C808 C809 1.414 . S
C808 C811 1.499 . S
C809 H783 0.950 . S
C809 C808 1.414 . S
C809 C810 1.374 . S
C810 H784 0.950 . S
C810 C806 1.385 . S
C810 C809 1.374 . S
C811 C808 1.499 . S
C811 C812 1.373 . S
C811 C813 1.389 . S
C812 H785 0.950 . S
C812 C798 1.377 . S
C812 C811 1.373 . S
C813 C797 1.377 . S
C813 C811 1.389 . S
C813 C814 1.524 . S
C814 C813 1.524 . S
C814 C815 1.397 . S
C814 C819 1.363 . S
C815 H786 0.950 . S
C815 C814 1.397 . S
C815 C816 1.334 . S
C816 H787 0.950 . S
C816 C815 1.334 . S
C816 C817 1.287 . S
C817 C816 1.287 . S
C817 C818 1.524 . S
C817 H820 0.999 . S
C818 H788 0.950 . S
C818 C817 1.524 . S
C818 C819 1.415 . S
C819 H789 0.950 . S
C819 C814 1.363 . S
C819 C818 1.415 . S
H820 C817 0.999 . S
H821 C802 0.913 . S
H822 C840 0.951 . S
H823 C842 0.951 . S
H824 C844 0.950 . S
H825 C845 0.950 . S
H826 C847 0.950 . S
H827 C850 0.950 . S
H828 C851 0.950 . S
H829 C853 0.950 . S
H830 C854 0.950 . S
H831 C855 0.951 . S
H832 C857 0.951 . S
H833 C859 0.950 . S
H834 C860 0.950 . S
H835 C862 0.950 . S
H836 C865 0.950 . S
H837 C866 0.950 . S
H838 C868 0.950 . S
H839 C869 0.950 . S
C840 H822 0.951 . S
C840 C841 1.366 . S
C840 C842 1.388 . S
C841 C840 1.366 . S
C841 C845 1.385 . S
C842 H823 0.951 . S
C842 C840 1.388 . S
C842 C843 1.366 . S
C843 C842 1.366 . S
C843 C844 1.414 . S
C843 C846 1.499 . S
C844 H824 0.950 . S
C844 C843 1.414 . S
C844 C845 1.374 . S
C845 H825 0.950 . S
C845 C841 1.385 . S
C845 C844 1.374 . S
C846 C843 1.499 . S
C846 C847 1.373 . S
C846 C848 1.389 . S
C847 H826 0.950 . S
C847 C846 1.373 . S
C847 C863 1.377 . S
C848 C846 1.389 . S
C848 C849 1.524 . S
C848 C862 1.377 . S
C849 C848 1.524 . S
C849 C850 1.397 . S
C849 C854 1.363 . S
C850 H827 0.950 . S
C850 C849 1.397 . S
C850 C851 1.334 . S
C851 H828 0.950 . S
C851 C850 1.334 . S
C851 C852 1.287 . S
C852 C851 1.287 . S
C852 C853 1.524 . S
C852 H871 0.913 . S
C853 H829 0.950 . S
C853 C852 1.524 . S
C853 C854 1.415 . S
C854 H830 0.950 . S
C854 C849 1.363 . S
C854 C853 1.415 . S
C855 H831 0.951 . S
C855 C856 1.366 . S
C855 C857 1.388 . S
C856 C855 1.366 . S
C856 C860 1.385 . S
C857 H832 0.951 . S
C857 C855 1.388 . S
C857 C858 1.366 . S
C858 C857 1.366 . S
C858 C859 1.414 . S
C858 C861 1.499 . S
C859 H833 0.950 . S
C859 C858 1.414 . S
C859 C860 1.374 . S
C860 H834 0.950 . S
C860 C856 1.385 . S
C860 C859 1.374 . S
C861 C858 1.499 . S
C861 C862 1.373 . S
C861 C863 1.389 . S
C862 H835 0.950 . S
C862 C848 1.377 . S
C862 C861 1.373 . S
C863 C847 1.377 . S
C863 C861 1.389 . S
C863 C864 1.524 . S
C864 C863 1.524 . S
C864 C865 1.397 . S
C864 C869 1.363 . S
C865 H836 0.950 . S
C865 C864 1.397 . S
C865 C866 1.334 . S
C866 H837 0.950 . S
C866 C865 1.334 . S
C866 C867 1.287 . S
C867 C866 1.287 . S
C867 C868 1.524 . S
C867 H870 0.999 . S
C868 H838 0.950 . S
C868 C867 1.524 . S
C868 C869 1.415 . S
C869 H839 0.950 . S
C869 C864 1.363 . S
C869 C868 1.415 . S
H870 C867 0.999 . S
H871 C852 0.913 . S
H872 C890 0.951 . S
H873 C892 0.951 . S
H874 C894 0.950 . S
H875 C895 0.950 . S
H876 C897 0.950 . S
H877 C900 0.950 . S
H878 C901 0.950 . S
H879 C903 0.950 1_455 S
H880 C904 0.950 . S
H881 C905 0.951 . S
H882 C907 0.951 . S
H883 C909 0.950 . S
H884 C910 0.950 . S
H885 C912 0.950 . S
H886 C915 0.950 . S
H887 C916 0.950 . S
H888 C918 0.950 1_655 S
H889 C919 0.950 . S
C890 H872 0.951 . S
C890 C891 1.366 . S
C890 C892 1.388 . S
C891 C890 1.366 . S
C891 C895 1.385 1_455 S
C892 H873 0.951 . S
C892 C890 1.388 . S
C892 C893 1.394 . S
C893 C892 1.394 . S
C893 C894 1.391 1_455 S
C893 C896 1.493 1_455 S
C894 H874 0.950 . S
C894 C893 1.391 1_655 S
C894 C895 1.374 . S
C895 H875 0.950 . S
C895 C891 1.385 1_655 S
C895 C894 1.374 . S
C896 C893 1.493 1_655 S
C896 C897 1.370 1_655 S
C896 C898 1.393 . S
C897 H876 0.950 . S
C897 C896 1.370 1_455 S
C897 C913 1.377 . S
C898 C896 1.393 . S
C898 C899 1.524 . S
C898 C912 1.377 . S
C899 C898 1.524 . S
C899 C900 1.397 . S
C899 C904 1.363 1_655 S
C900 H877 0.950 . S
C900 C899 1.397 . S
C900 C901 1.334 . S
C901 H878 0.950 . S
C901 C900 1.334 . S
C901 C902 1.287 . S
C902 C901 1.287 . S
C902 C903 1.524 . S
C902 H921 0.913 . S
C903 H879 0.950 1_655 S
C903 C902 1.524 . S
C903 C904 1.415 1_655 S
C904 H880 0.950 . S
C904 C899 1.363 1_455 S
C904 C903 1.415 1_455 S
C905 H881 0.951 . S
C905 C906 1.366 . S
C905 C907 1.388 . S
C906 C905 1.366 . S
C906 C910 1.385 1_655 S
C907 H882 0.951 . S
C907 C905 1.388 . S
C907 C908 1.389 . S
C908 C907 1.389 . S
C908 C909 1.396 1_655 S
C908 C911 1.493 1_655 S
C909 H883 0.950 . S
C909 C908 1.396 1_455 S
C909 C910 1.374 . S
C910 H884 0.950 . S
C910 C906 1.385 1_455 S
C910 C909 1.374 . S
C911 C908 1.493 1_455 S
C911 C912 1.369 1_455 S
C911 C913 1.395 . S
C912 H885 0.950 . S
C912 C898 1.377 . S
C912 C911 1.369 1_655 S
C913 C897 1.377 . S
C913 C911 1.395 . S
C913 C914 1.524 . S
C914 C913 1.524 . S
C914 C915 1.397 . S
C914 C919 1.363 1_455 S
C915 H886 0.950 . S
C915 C914 1.397 . S
C915 C916 1.334 . S
C916 H887 0.950 . S
C916 C915 1.334 . S
C916 C917 1.287 . S
C917 C916 1.287 . S
C917 C918 1.524 . S
C917 H920 0.999 . S
C918 H888 0.950 1_455 S
C918 C917 1.524 . S
C918 C919 1.415 1_455 S
C919 H889 0.950 . S
C919 C914 1.363 1_655 S
C919 C918 1.415 1_655 S
H920 C917 0.999 . S
H921 C902 0.913 . S
H922 C940 0.951 . S
H923 C942 0.951 . S
H924 C944 0.950 . S
H925 C945 0.950 . S
H926 C947 0.950 . S
H927 C950 0.950 . S
H928 C951 0.950 . S
H929 C953 0.950 . S
H930 C954 0.950 . S
H931 C955 0.951 . S
H932 C957 0.951 . S
H933 C959 0.950 . S
H934 C960 0.950 . S
H935 C962 0.950 . S
H936 C965 0.950 . S
H937 C966 0.950 . S
H938 C968 0.950 . S
H939 C969 0.950 . S
C940 H922 0.951 . S
C940 C941 1.366 . S
C940 C942 1.388 . S
C941 C940 1.366 . S
C941 C945 1.385 . S
C942 H923 0.951 . S
C942 C940 1.388 . S
C942 C943 1.366 . S
C943 C942 1.366 . S
C943 C944 1.414 . S
C943 C946 1.499 . S
C944 H924 0.950 . S
C944 C943 1.414 . S
C944 C945 1.374 . S
C945 H925 0.950 . S
C945 C941 1.385 . S
C945 C944 1.374 . S
C946 C943 1.499 . S
C946 C947 1.373 . S
C946 C948 1.389 . S
C947 H926 0.950 . S
C947 C946 1.373 . S
C947 C963 1.377 . S
C948 C946 1.389 . S
C948 C949 1.524 . S
C948 C962 1.377 . S
C949 C948 1.524 . S
C949 C950 1.397 . S
C949 C954 1.363 . S
C950 H927 0.950 . S
C950 C949 1.397 . S
C950 C951 1.334 . S
C951 H928 0.950 . S
C951 C950 1.334 . S
C951 C952 1.287 . S
C952 C951 1.287 . S
C952 C953 1.524 . S
C952 H971 0.913 . S
C953 H929 0.950 . S
C953 C952 1.524 . S
C953 C954 1.415 . S
C954 H930 0.950 . S
C954 C949 1.363 . S
C954 C953 1.415 . S
C955 H931 0.951 . S
C955 C956 1.366 . S
C955 C957 1.388 . S
C956 C955 1.366 . S
C956 C960 1.385 . S
C957 H932 0.951 . S
C957 C955 1.388 . S
C957 C958 1.366 . S
C958 C957 1.366 . S
C958 C959 1.414 . S
C958 C961 1.499 . S
C959 H933 0.950 . S
C959 C958 1.414 . S
C959 C960 1.374 . S
C960 H934 0.950 . S
C960 C956 1.385 . S
C960 C959 1.374 . S
C961 C958 1.499 . S
C961 C962 1.373 . S
C961 C963 1.389 . S
C962 H935 0.950 . S
C962 C948 1.377 . S
C962 C961 1.373 . S
C963 C947 1.377 . S
C963 C961 1.389 . S
C963 C964 1.524 . S
C964 C963 1.524 . S
C964 C965 1.397 . S
C964 C969 1.363 . S
C965 H936 0.950 . S
C965 C964 1.397 . S
C965 C966 1.334 . S
C966 H937 0.950 . S
C966 C965 1.334 . S
C966 C967 1.287 . S
C967 C966 1.287 . S
C967 C968 1.524 . S
C967 H970 0.999 . S
C968 H938 0.950 . S
C968 C967 1.524 . S
C968 C969 1.415 . S
C969 H939 0.950 . S
C969 C964 1.363 . S
C969 C968 1.415 . S
H970 C967 0.999 . S
H971 C952 0.913 . S
H972 C990 0.951 . S
H973 C992 0.951 . S
H974 C994 0.950 . S
H975 C995 0.950 . S
H976 C997 0.950 . S
H977 C1000 0.950 . S
H978 C1001 0.950 . S
H979 C1003 0.950 . S
H980 C1004 0.950 . S
H981 C1005 0.951 1_554 S
H982 C1007 0.951 . S
H983 C1009 0.950 . S
H984 C1010 0.950 . S
H985 C1012 0.950 . S
H986 C1015 0.950 . S
H987 C1016 0.950 . S
H988 C1018 0.950 . S
H989 C1019 0.950 . S
C990 H972 0.951 . S
C990 C991 1.366 . S
C990 C992 1.388 . S
C991 C990 1.366 . S
C991 C995 1.385 . S
C992 H973 0.951 . S
C992 C990 1.388 . S
C992 C993 1.366 . S
C993 C992 1.366 . S
C993 C994 1.414 . S
C993 C996 1.499 . S
C994 H974 0.950 . S
C994 C993 1.414 . S
C994 C995 1.374 . S
C995 H975 0.950 . S
C995 C991 1.385 . S
C995 C994 1.374 . S
C996 C993 1.499 . S
C996 C997 1.373 . S
C996 C998 1.389 . S
C997 H976 0.950 . S
C997 C996 1.373 . S
C997 C1013 1.377 . S
C998 C996 1.389 . S
C998 C999 1.524 . S
C998 C1012 1.377 . S
C999 C998 1.524 . S
C999 C1000 1.397 . S
C999 C1004 1.363 . S
C1000 H977 0.950 . S
C1000 C999 1.397 . S
C1000 C1001 1.334 . S
C1001 H978 0.950 . S
C1001 C1000 1.334 . S
C1001 C1002 1.287 . S
C1002 C1001 1.287 . S
C1002 C1003 1.524 . S
C1002 H1021 0.913 . S
C1003 H979 0.950 . S
C1003 C1002 1.524 . S
C1003 C1004 1.415 . S
C1004 H980 0.950 . S
C1004 C999 1.363 . S
C1004 C1003 1.415 . S
C1005 H981 0.951 1_556 S
C1005 C1006 1.366 . S
C1005 C1007 1.388 . S
C1006 C1005 1.366 . S
C1006 C1010 1.385 . S
C1007 H982 0.951 . S
C1007 C1005 1.388 . S
C1007 C1008 1.366 . S
C1008 C1007 1.366 . S
C1008 C1009 1.414 . S
C1008 C1011 1.499 . S
C1009 H983 0.950 . S
C1009 C1008 1.414 . S
C1009 C1010 1.374 . S
C1010 H984 0.950 . S
C1010 C1006 1.385 . S
C1010 C1009 1.374 . S
C1011 C1008 1.499 . S
C1011 C1012 1.373 . S
C1011 C1013 1.389 . S
C1012 H985 0.950 . S
C1012 C998 1.377 . S
C1012 C1011 1.373 . S
C1013 C997 1.377 . S
C1013 C1011 1.389 . S
C1013 C1014 1.524 . S
C1014 C1013 1.524 . S
C1014 C1015 1.397 . S
C1014 C1019 1.363 . S
C1015 H986 0.950 . S
C1015 C1014 1.397 . S
C1015 C1016 1.334 . S
C1016 H987 0.950 . S
C1016 C1015 1.334 . S
C1016 C1017 1.287 1_556 S
C1017 C1016 1.287 1_554 S
C1017 C1018 1.524 . S
C1017 H1020 0.999 . S
C1018 H988 0.950 . S
C1018 C1017 1.524 . S
C1018 C1019 1.415 1_554 S
C1019 H989 0.950 . S
C1019 C1014 1.363 . S
C1019 C1018 1.415 1_556 S
H1020 C1017 0.999 . S
H1021 C1002 0.913 . S
H1022 C1040 0.951 . S
H1023 C1042 0.951 . S
H1024 C1044 0.950 . S
H1025 C1045 0.950 . S
H1026 C1047 0.950 . S
H1027 C1050 0.950 . S
H1028 C1051 0.950 . S
H1029 C1053 0.950 . S
H1030 C1054 0.950 . S
H1031 C1055 0.951 . S
H1032 C1057 0.951 . S
H1033 C1059 0.950 . S
H1034 C1060 0.950 . S
H1035 C1062 0.950 . S
H1036 C1065 0.950 . S
H1037 C1066 0.950 . S
H1038 C1068 0.950 . S
H1039 C1069 0.950 . S
C1040 H1022 0.951 . S
C1040 C1041 1.366 . S
C1040 C1042 1.388 . S
C1041 C1040 1.366 . S
C1041 C1045 1.385 . S
C1042 H1023 0.951 . S
C1042 C1040 1.388 . S
C1042 C1043 1.366 . S
C1043 C1042 1.366 . S
C1043 C1044 1.414 . S
C1043 C1046 1.499 . S
C1044 H1024 0.950 . S
C1044 C1043 1.414 . S
C1044 C1045 1.374 . S
C1045 H1025 0.950 . S
C1045 C1041 1.385 . S
C1045 C1044 1.374 . S
C1046 C1043 1.499 . S
C1046 C1047 1.373 . S
C1046 C1048 1.389 . S
C1047 H1026 0.950 . S
C1047 C1046 1.373 . S
C1047 C1063 1.377 . S
C1048 C1046 1.389 . S
C1048 C1049 1.524 . S
C1048 C1062 1.377 . S
C1049 C1048 1.524 . S
C1049 C1050 1.397 . S
C1049 C1054 1.363 . S
C1050 H1027 0.950 . S
C1050 C1049 1.397 . S
C1050 C1051 1.334 . S
C1051 H1028 0.950 . S
C1051 C1050 1.334 . S
C1051 C1052 1.287 . S
C1052 C1051 1.287 . S
C1052 C1053 1.524 . S
C1052 H1071 0.913 . S
C1053 H1029 0.950 . S
C1053 C1052 1.524 . S
C1053 C1054 1.415 . S
C1054 H1030 0.950 . S
C1054 C1049 1.363 . S
C1054 C1053 1.415 . S
C1055 H1031 0.951 . S
C1055 C1056 1.366 . S
C1055 C1057 1.388 . S
C1056 C1055 1.366 . S
C1056 C1060 1.385 . S
C1057 H1032 0.951 . S
C1057 C1055 1.388 . S
C1057 C1058 1.366 . S
C1058 C1057 1.366 . S
C1058 C1059 1.414 . S
C1058 C1061 1.499 . S
C1059 H1033 0.950 . S
C1059 C1058 1.414 . S
C1059 C1060 1.374 . S
C1060 H1034 0.950 . S
C1060 C1056 1.385 . S
C1060 C1059 1.374 . S
C1061 C1058 1.499 . S
C1061 C1062 1.373 . S
C1061 C1063 1.389 . S
C1062 H1035 0.950 . S
C1062 C1048 1.377 . S
C1062 C1061 1.373 . S
C1063 C1047 1.377 . S
C1063 C1061 1.389 . S
C1063 C1064 1.524 . S
C1064 C1063 1.524 . S
C1064 C1065 1.397 . S
C1064 C1069 1.363 . S
C1065 H1036 0.950 . S
C1065 C1064 1.397 . S
C1065 C1066 1.334 . S
C1066 H1037 0.950 . S
C1066 C1065 1.334 . S
C1066 C1067 1.287 . S
C1067 C1066 1.287 . S
C1067 C1068 1.524 . S
C1067 H1070 0.999 . S
C1068 H1038 0.950 . S
C1068 C1067 1.524 . S
C1068 C1069 1.415 . S
C1069 H1039 0.950 . S
C1069 C1064 1.363 . S
C1069 C1068 1.415 . S
H1070 C1067 0.999 . S
H1071 C1052 0.913 . S
H1072 C1090 0.950 . S
H1073 C1092 0.952 . S
H1074 C1094 0.950 1_545 S
H1075 C1095 0.950 . S
H1076 C1097 0.950 . S
H1077 C1100 0.950 . S
H1078 C1101 0.950 . S
H1079 C1103 0.950 . S
H1080 C1104 0.950 . S
H1081 C1105 0.951 . S
H1082 C1107 0.951 . S
H1083 C1109 0.950 . S
H1084 C1110 0.950 . S
H1085 C1112 0.950 . S
H1086 C1115 0.950 . S
H1087 C1116 0.950 . S
H1088 C1118 0.950 . S
H1089 C1119 0.950 . S
C1090 H1072 0.950 . S
C1090 C1091 1.366 . S
C1090 C1092 1.387 1_545 S
C1091 C1090 1.366 . S
C1091 C1095 1.385 . S
C1092 H1073 0.952 . S
C1092 C1090 1.387 1_565 S
C1092 C1093 1.369 . S
C1093 C1092 1.369 . S
C1093 C1094 1.414 . S
C1093 C1096 1.499 . S
C1094 H1074 0.950 1_565 S
C1094 C1093 1.414 . S
C1094 C1095 1.374 1_565 S
C1095 H1075 0.950 . S
C1095 C1091 1.385 . S
C1095 C1094 1.374 1_545 S
C1096 C1093 1.499 . S
C1096 C1097 1.373 1_565 S
C1096 C1098 1.389 . S
C1097 H1076 0.950 . S
C1097 C1096 1.373 1_545 S
C1097 C1113 1.377 . S
C1098 C1096 1.389 . S
C1098 C1099 1.524 . S
C1098 C1112 1.377 . S
C1099 C1098 1.524 . S
C1099 C1100 1.397 . S
C1099 C1104 1.363 . S
C1100 H1077 0.950 . S
C1100 C1099 1.397 . S
C1100 C1101 1.334 . S
C1101 H1078 0.950 . S
C1101 C1100 1.334 . S
C1101 C1102 1.287 . S
C1102 C1101 1.287 . S
C1102 C1103 1.524 . S
C1102 H1121 0.913 . S
C1103 H1079 0.950 . S
C1103 C1102 1.524 . S
C1103 C1104 1.415 . S
C1104 H1080 0.950 . S
C1104 C1099 1.363 . S
C1104 C1103 1.415 . S
C1105 H1081 0.951 . S
C1105 C1106 1.366 . S
C1105 C1107 1.388 . S
C1106 C1105 1.366 . S
C1106 C1110 1.385 . S
C1107 H1082 0.951 . S
C1107 C1105 1.388 . S
C1107 C1108 1.366 . S
C1108 C1107 1.366 . S
C1108 C1109 1.414 . S
C1108 C1111 1.499 . S
C1109 H1083 0.950 . S
C1109 C1108 1.414 . S
C1109 C1110 1.374 . S
C1110 H1084 0.950 . S
C1110 C1106 1.385 . S
C1110 C1109 1.374 . S
C1111 C1108 1.499 . S
C1111 C1112 1.373 . S
C1111 C1113 1.389 1_565 S
C1112 H1085 0.950 . S
C1112 C1098 1.377 . S
C1112 C1111 1.373 . S
C1113 C1097 1.377 . S
C1113 C1111 1.389 1_545 S
C1113 C1114 1.524 . S
C1114 C1113 1.524 . S
C1114 C1115 1.397 . S
C1114 C1119 1.363 . S
C1115 H1086 0.950 . S
C1115 C1114 1.397 . S
C1115 C1116 1.334 . S
C1116 H1087 0.950 . S
C1116 C1115 1.334 . S
C1116 C1117 1.287 . S
C1117 C1116 1.287 . S
C1117 C1118 1.524 . S
C1117 H1120 0.999 . S
C1118 H1088 0.950 . S
C1118 C1117 1.524 . S
C1118 C1119 1.415 . S
C1119 H1089 0.950 . S
C1119 C1114 1.363 . S
C1119 C1118 1.415 . S
H1120 C1117 0.999 . S
H1121 C1102 0.913 . S
H1122 C1140 0.951 . S
H1123 C1142 0.951 . S
H1124 C1144 0.950 . S
H1125 C1145 0.950 . S
H1126 C1147 0.950 . S
H1127 C1150 0.950 . S
H1128 C1151 0.950 . S
H1129 C1153 0.950 . S
H1130 C1154 0.950 . S
H1131 C1155 0.951 . S
H1132 C1157 0.951 . S
H1133 C1159 0.950 . S
H1134 C1160 0.950 . S
H1135 C1162 0.950 . S
H1136 C1165 0.950 . S
H1137 C1166 0.950 . S
H1138 C1168 0.950 . S
H1139 C1169 0.950 . S
C1140 H1122 0.951 . S
C1140 C1141 1.366 . S
C1140 C1142 1.388 . S
C1141 C1140 1.366 . S
C1141 C1145 1.385 . S
C1142 H1123 0.951 . S
C1142 C1140 1.388 . S
C1142 C1143 1.366 . S
C1143 C1142 1.366 . S
C1143 C1144 1.414 . S
C1143 C1146 1.499 . S
C1144 H1124 0.950 . S
C1144 C1143 1.414 . S
C1144 C1145 1.374 . S
C1145 H1125 0.950 . S
C1145 C1141 1.385 . S
C1145 C1144 1.374 . S
C1146 C1143 1.499 . S
C1146 C1147 1.373 . S
C1146 C1148 1.389 . S
C1147 H1126 0.950 . S
C1147 C1146 1.373 . S
C1147 C1163 1.377 . S
C1148 C1146 1.389 . S
C1148 C1149 1.524 . S
C1148 C1162 1.377 . S
C1149 C1148 1.524 . S
C1149 C1150 1.397 . S
C1149 C1154 1.363 . S
C1150 H1127 0.950 . S
C1150 C1149 1.397 . S
C1150 C1151 1.334 . S
C1151 H1128 0.950 . S
C1151 C1150 1.334 . S
C1151 C1152 1.287 . S
C1152 C1151 1.287 . S
C1152 C1153 1.524 . S
C1152 H1171 0.913 . S
C1153 H1129 0.950 . S
C1153 C1152 1.524 . S
C1153 C1154 1.415 . S
C1154 H1130 0.950 . S
C1154 C1149 1.363 . S
C1154 C1153 1.415 . S
C1155 H1131 0.951 . S
C1155 C1156 1.366 . S
C1155 C1157 1.388 . S
C1156 C1155 1.366 . S
C1156 C1160 1.385 . S
C1157 H1132 0.951 . S
C1157 C1155 1.388 . S
C1157 C1158 1.366 . S
C1158 C1157 1.366 . S
C1158 C1159 1.414 . S
C1158 C1161 1.499 . S
C1159 H1133 0.950 . S
C1159 C1158 1.414 . S
C1159 C1160 1.374 . S
C1160 H1134 0.950 . S
C1160 C1156 1.385 . S
C1160 C1159 1.374 . S
C1161 C1158 1.499 . S
C1161 C1162 1.373 . S
C1161 C1163 1.389 . S
C1162 H1135 0.950 . S
C1162 C1148 1.377 . S
C1162 C1161 1.373 . S
C1163 C1147 1.377 . S
C1163 C1161 1.389 . S
C1163 C1164 1.524 . S
C1164 C1163 1.524 . S
C1164 C1165 1.397 . S
C1164 C1169 1.363 . S
C1165 H1136 0.950 . S
C1165 C1164 1.397 . S
C1165 C1166 1.334 . S
C1166 H1137 0.950 . S
C1166 C1165 1.334 . S
C1166 C1167 1.287 . S
C1167 C1166 1.287 . S
C1167 C1168 1.524 . S
C1167 H1170 0.999 . S
C1168 H1138 0.950 . S
C1168 C1167 1.524 . S
C1168 C1169 1.415 . S
C1169 H1139 0.950 . S
C1169 C1164 1.363 . S
C1169 C1168 1.415 . S
H1170 C1167 0.999 . S
H1171 C1152 0.913 . S
H1172 C1190 0.951 . S
H1173 C1192 0.951 . S
H1174 C1194 0.950 . S
H1175 C1195 0.950 . S
H1176 C1197 0.950 . S
H1177 C1200 0.950 . S
H1178 C1201 0.950 . S
H1179 C1203 0.950 . S
H1180 C1204 0.950 1_565 S
H1181 C1205 0.951 . S
H1182 C1207 0.951 . S
H1183 C1209 0.950 1_565 S
H1184 C1210 0.950 1_565 S
H1185 C1212 0.950 . S
H1186 C1215 0.950 . S
H1187 C1216 0.950 . S
H1188 C1218 0.950 . S
H1189 C1219 0.950 . S
C1190 H1172 0.951 . S
C1190 C1191 1.366 1_565 S
C1190 C1192 1.388 . S
C1191 C1190 1.366 1_545 S
C1191 C1195 1.385 . S
C1192 H1173 0.951 . S
C1192 C1190 1.388 . S
C1192 C1193 1.366 1_565 S
C1193 C1192 1.366 1_545 S
C1193 C1194 1.414 . S
C1193 C1196 1.499 . S
C1194 H1174 0.950 . S
C1194 C1193 1.414 . S
C1194 C1195 1.374 . S
C1195 H1175 0.950 . S
C1195 C1191 1.385 . S
C1195 C1194 1.374 . S
C1196 C1193 1.499 . S
C1196 C1197 1.373 . S
C1196 C1198 1.389 . S
C1197 H1176 0.950 . S
C1197 C1196 1.373 . S
C1197 C1213 1.377 . S
C1198 C1196 1.389 . S
C1198 C1199 1.524 . S
C1198 C1212 1.377 . S
C1199 C1198 1.524 . S
C1199 C1200 1.397 . S
C1199 C1204 1.363 . S
C1200 H1177 0.950 . S
C1200 C1199 1.397 . S
C1200 C1201 1.334 . S
C1201 H1178 0.950 . S
C1201 C1200 1.334 . S
C1201 C1202 1.287 . S
C1202 C1201 1.287 . S
C1202 C1203 1.524 . S
C1202 H1221 0.913 . S
C1203 H1179 0.950 . S
C1203 C1202 1.524 . S
C1203 C1204 1.415 . S
C1204 H1180 0.950 1_545 S
C1204 C1199 1.363 . S
C1204 C1203 1.415 . S
C1205 H1181 0.951 . S
C1205 C1206 1.366 . S
C1205 C1207 1.388 . S
C1206 C1205 1.366 . S
C1206 C1210 1.385 . S
C1207 H1182 0.951 . S
C1207 C1205 1.388 . S
C1207 C1208 1.366 . S
C1208 C1207 1.366 . S
C1208 C1209 1.414 . S
C1208 C1211 1.499 . S
C1209 H1183 0.950 1_545 S
C1209 C1208 1.414 . S
C1209 C1210 1.374 . S
C1210 H1184 0.950 1_545 S
C1210 C1206 1.385 . S
C1210 C1209 1.374 . S
C1211 C1208 1.499 . S
C1211 C1212 1.373 . S
C1211 C1213 1.389 . S
C1212 H1185 0.950 . S
C1212 C1198 1.377 . S
C1212 C1211 1.373 . S
C1213 C1197 1.377 . S
C1213 C1211 1.389 . S
C1213 C1214 1.524 . S
C1214 C1213 1.524 . S
C1214 C1215 1.397 1_545 S
C1214 C1219 1.363 . S
C1215 H1186 0.950 . S
C1215 C1214 1.397 1_565 S
C1215 C1216 1.334 . S
C1216 H1187 0.950 . S
C1216 C1215 1.334 . S
C1216 C1217 1.287 . S
C1217 C1216 1.287 . S
C1217 C1218 1.524 1_565 S
C1217 H1220 0.999 . S
C1218 H1188 0.950 . S
C1218 C1217 1.524 1_545 S
C1218 C1219 1.415 . S
C1219 H1189 0.950 . S
C1219 C1214 1.363 . S
C1219 C1218 1.415 . S
H1220 C1217 0.999 . S
H1221 C1202 0.913 . S
H1222 C1240 0.951 . S
H1223 C1242 0.951 . S
H1224 C1244 0.950 . S
H1225 C1245 0.950 . S
H1226 C1247 0.950 . S
H1227 C1250 0.950 . S
H1228 C1251 0.950 . S
H1229 C1253 0.950 . S
H1230 C1254 0.950 . S
H1231 C1255 0.951 . S
H1232 C1257 0.951 . S
H1233 C1259 0.950 . S
H1234 C1260 0.950 . S
H1235 C1262 0.950 . S
H1236 C1265 0.950 . S
H1237 C1266 0.950 . S
H1238 C1268 0.950 . S
H1239 C1269 0.950 . S
C1240 H1222 0.951 . S
C1240 C1241 1.366 . S
C1240 C1242 1.388 . S
C1241 C1240 1.366 . S
C1241 C1245 1.385 . S
C1242 H1223 0.951 . S
C1242 C1240 1.388 . S
C1242 C1243 1.366 . S
C1243 C1242 1.366 . S
C1243 C1244 1.414 . S
C1243 C1246 1.499 . S
C1244 H1224 0.950 . S
C1244 C1243 1.414 . S
C1244 C1245 1.374 . S
C1245 H1225 0.950 . S
C1245 C1241 1.385 . S
C1245 C1244 1.374 . S
C1246 C1243 1.499 . S
C1246 C1247 1.373 . S
C1246 C1248 1.389 . S
C1247 H1226 0.950 . S
C1247 C1246 1.373 . S
C1247 C1263 1.377 . S
C1248 C1246 1.389 . S
C1248 C1249 1.524 . S
C1248 C1262 1.377 . S
C1249 C1248 1.524 . S
C1249 C1250 1.397 . S
C1249 C1254 1.363 . S
C1250 H1227 0.950 . S
C1250 C1249 1.397 . S
C1250 C1251 1.334 . S
C1251 H1228 0.950 . S
C1251 C1250 1.334 . S
C1251 C1252 1.287 . S
C1252 C1251 1.287 . S
C1252 C1253 1.524 . S
C1252 H1271 0.913 . S
C1253 H1229 0.950 . S
C1253 C1252 1.524 . S
C1253 C1254 1.415 . S
C1254 H1230 0.950 . S
C1254 C1249 1.363 . S
C1254 C1253 1.415 . S
C1255 H1231 0.951 . S
C1255 C1256 1.366 . S
C1255 C1257 1.388 . S
C1256 C1255 1.366 . S
C1256 C1260 1.385 . S
C1257 H1232 0.951 . S
C1257 C1255 1.388 . S
C1257 C1258 1.366 . S
C1258 C1257 1.366 . S
C1258 C1259 1.414 . S
C1258 C1261 1.499 . S
C1259 H1233 0.950 . S
C1259 C1258 1.414 . S
C1259 C1260 1.374 . S
C1260 H1234 0.950 . S
C1260 C1256 1.385 . S
C1260 C1259 1.374 . S
C1261 C1258 1.499 . S
C1261 C1262 1.373 . S
C1261 C1263 1.389 . S
C1262 H1235 0.950 . S
C1262 C1248 1.377 . S
C1262 C1261 1.373 . S
C1263 C1247 1.377 . S
C1263 C1261 1.389 . S
C1263 C1264 1.524 . S
C1264 C1263 1.524 . S
C1264 C1265 1.397 . S
C1264 C1269 1.363 . S
C1265 H1236 0.950 . S
C1265 C1264 1.397 . S
C1265 C1266 1.334 . S
C1266 H1237 0.950 . S
C1266 C1265 1.334 . S
C1266 C1267 1.287 . S
C1267 C1266 1.287 . S
C1267 C1268 1.524 . S
C1267 H1270 0.999 . S
C1268 H1238 0.950 . S
C1268 C1267 1.524 . S
C1268 C1269 1.415 . S
C1269 H1239 0.950 . S
C1269 C1264 1.363 . S
C1269 C1268 1.415 . S
H1270 C1267 0.999 . S
H1271 C1252 0.913 . S
H1272 C1290 0.951 . S
H1273 C1292 0.951 . S
H1274 C1294 0.950 . S
H1275 C1295 0.950 . S
H1276 C1297 0.950 . S
H1277 C1300 0.950 . S
H1278 C1301 0.950 . S
H1279 C1303 0.950 . S
H1280 C1304 0.950 . S
H1281 C1305 0.951 . S
H1282 C1307 0.951 . S
H1283 C1309 0.950 . S
H1284 C1310 0.950 . S
H1285 C1312 0.950 . S
H1286 C1315 0.950 . S
H1287 C1316 0.950 . S
H1288 C1318 0.950 . S
H1289 C1319 0.950 . S
C1290 H1272 0.951 . S
C1290 C1291 1.366 . S
C1290 C1292 1.388 . S
C1291 C1290 1.366 . S
C1291 C1295 1.385 1_545 S
C1292 H1273 0.951 . S
C1292 C1290 1.388 . S
C1292 C1293 1.366 . S
C1293 C1292 1.366 . S
C1293 C1294 1.414 1_545 S
C1293 C1296 1.499 . S
C1294 H1274 0.950 . S
C1294 C1293 1.414 1_565 S
C1294 C1295 1.374 . S
C1295 H1275 0.950 . S
C1295 C1291 1.385 1_565 S
C1295 C1294 1.374 . S
C1296 C1293 1.499 . S
C1296 C1297 1.373 1_545 S
C1296 C1298 1.389 . S
C1297 H1276 0.950 . S
C1297 C1296 1.373 1_565 S
C1297 C1313 1.377 . S
C1298 C1296 1.389 . S
C1298 C1299 1.524 . S
C1298 C1312 1.377 . S
C1299 C1298 1.524 . S
C1299 C1300 1.397 . S
C1299 C1304 1.363 . S
C1300 H1277 0.950 . S
C1300 C1299 1.397 . S
C1300 C1301 1.334 . S
C1301 H1278 0.950 . S
C1301 C1300 1.334 . S
C1301 C1302 1.287 . S
C1302 C1301 1.287 . S
C1302 C1303 1.524 . S
C1302 H1321 0.913 . S
C1303 H1279 0.950 . S
C1303 C1302 1.524 . S
C1303 C1304 1.415 . S
C1304 H1280 0.950 . S
C1304 C1299 1.363 . S
C1304 C1303 1.415 . S
C1305 H1281 0.951 . S
C1305 C1306 1.366 1_565 S
C1305 C1307 1.388 . S
C1306 C1305 1.366 1_545 S
C1306 C1310 1.385 . S
C1307 H1282 0.951 . S
C1307 C1305 1.388 . S
C1307 C1308 1.366 1_565 S
C1308 C1307 1.366 1_545 S
C1308 C1309 1.414 . S
C1308 C1311 1.499 . S
C1309 H1283 0.950 . S
C1309 C1308 1.414 . S
C1309 C1310 1.374 . S
C1310 H1284 0.950 . S
C1310 C1306 1.385 . S
C1310 C1309 1.374 . S
C1311 C1308 1.499 . S
C1311 C1312 1.373 . S
C1311 C1313 1.389 1_545 S
C1312 H1285 0.950 . S
C1312 C1298 1.377 . S
C1312 C1311 1.373 . S
C1313 C1297 1.377 . S
C1313 C1311 1.389 1_565 S
C1313 C1314 1.524 . S
C1314 C1313 1.524 . S
C1314 C1315 1.397 . S
C1314 C1319 1.363 . S
C1315 H1286 0.950 . S
C1315 C1314 1.397 . S
C1315 C1316 1.334 . S
C1316 H1287 0.950 . S
C1316 C1315 1.334 . S
C1316 C1317 1.287 . S
C1317 C1316 1.287 . S
C1317 C1318 1.524 . S
C1317 H1320 0.999 . S
C1318 H1288 0.950 . S
C1318 C1317 1.524 . S
C1318 C1319 1.415 . S
C1319 H1289 0.950 . S
C1319 C1314 1.363 . S
C1319 C1318 1.415 . S
H1320 C1317 0.999 . S
H1321 C1302 0.913 . S
H1322 C1340 0.951 . S
H1323 C1342 0.951 . S
H1324 C1344 0.950 . S
H1325 C1345 0.950 . S
H1326 C1347 0.950 . S
H1327 C1350 0.950 . S
H1328 C1351 0.950 . S
H1329 C1353 0.950 . S
H1330 C1354 0.950 . S
H1331 C1355 0.951 . S
H1332 C1357 0.951 . S
H1333 C1359 0.950 . S
H1334 C1360 0.950 . S
H1335 C1362 0.950 . S
H1336 C1365 0.950 . S
H1337 C1366 0.950 . S
H1338 C1368 0.950 . S
H1339 C1369 0.950 . S
C1340 H1322 0.951 . S
C1340 C1341 1.366 . S
C1340 C1342 1.388 . S
C1341 C1340 1.366 . S
C1341 C1345 1.385 . S
C1342 H1323 0.951 . S
C1342 C1340 1.388 . S
C1342 C1343 1.366 . S
C1343 C1342 1.366 . S
C1343 C1344 1.414 . S
C1343 C1346 1.499 . S
C1344 H1324 0.950 . S
C1344 C1343 1.414 . S
C1344 C1345 1.374 . S
C1345 H1325 0.950 . S
C1345 C1341 1.385 . S
C1345 C1344 1.374 . S
C1346 C1343 1.499 . S
C1346 C1347 1.373 . S
C1346 C1348 1.389 . S
C1347 H1326 0.950 . S
C1347 C1346 1.373 . S
C1347 C1363 1.377 . S
C1348 C1346 1.389 . S
C1348 C1349 1.524 . S
C1348 C1362 1.377 . S
C1349 C1348 1.524 . S
C1349 C1350 1.397 . S
C1349 C1354 1.363 . S
C1350 H1327 0.950 . S
C1350 C1349 1.397 . S
C1350 C1351 1.334 . S
C1351 H1328 0.950 . S
C1351 C1350 1.334 . S
C1351 C1352 1.287 . S
C1352 C1351 1.287 . S
C1352 C1353 1.524 . S
C1352 H1371 0.913 . S
C1353 H1329 0.950 . S
C1353 C1352 1.524 . S
C1353 C1354 1.415 . S
C1354 H1330 0.950 . S
C1354 C1349 1.363 . S
C1354 C1353 1.415 . S
C1355 H1331 0.951 . S
C1355 C1356 1.366 . S
C1355 C1357 1.388 . S
C1356 C1355 1.366 . S
C1356 C1360 1.385 . S
C1357 H1332 0.951 . S
C1357 C1355 1.388 . S
C1357 C1358 1.366 . S
C1358 C1357 1.366 . S
C1358 C1359 1.414 . S
C1358 C1361 1.499 . S
C1359 H1333 0.950 . S
C1359 C1358 1.414 . S
C1359 C1360 1.374 . S
C1360 H1334 0.950 . S
C1360 C1356 1.385 . S
C1360 C1359 1.374 . S
C1361 C1358 1.499 . S
C1361 C1362 1.373 . S
C1361 C1363 1.389 . S
C1362 H1335 0.950 . S
C1362 C1348 1.377 . S
C1362 C1361 1.373 . S
C1363 C1347 1.377 . S
C1363 C1361 1.389 . S
C1363 C1364 1.524 . S
C1364 C1363 1.524 . S
C1364 C1365 1.397 . S
C1364 C1369 1.363 . S
C1365 H1336 0.950 . S
C1365 C1364 1.397 . S
C1365 C1366 1.334 . S
C1366 H1337 0.950 . S
C1366 C1365 1.334 . S
C1366 C1367 1.287 . S
C1367 C1366 1.287 . S
C1367 C1368 1.524 . S
C1367 H1370 0.999 . S
C1368 H1338 0.950 . S
C1368 C1367 1.524 . S
C1368 C1369 1.415 . S
C1369 H1339 0.950 . S
C1369 C1364 1.363 . S
C1369 C1368 1.415 . S
H1370 C1367 0.999 . S
H1371 C1352 0.913 . S
H1372 C1390 0.951 . S
H1373 C1392 0.951 . S
H1374 C1394 0.950 . S
H1375 C1395 0.950 . S
H1376 C1397 0.950 . S
H1377 C1400 0.950 . S
H1378 C1401 0.950 . S
H1379 C1403 0.950 . S
H1380 C1404 0.993 . S
H1381 C1405 0.951 . S
H1382 C1407 0.951 . S
H1383 C1409 0.950 . S
H1384 C1410 0.950 . S
H1385 C1412 0.950 . S
H1386 C1415 0.950 . S
H1387 C1416 0.950 . S
H1388 C1418 0.950 . S
H1389 C1419 0.947 1_565 S
C1390 H1372 0.951 . S
C1390 C1391 1.366 . S
C1390 C1392 1.388 . S
C1391 C1390 1.366 . S
C1391 C1395 1.385 1_545 S
C1392 H1373 0.951 . S
C1392 C1390 1.388 . S
C1392 C1393 1.366 1_545 S
C1393 C1392 1.366 1_565 S
C1393 C1394 1.414 . S
C1393 C1396 1.499 . S
C1394 H1374 0.950 . S
C1394 C1393 1.414 . S
C1394 C1395 1.374 . S
C1395 H1375 0.950 . S
C1395 C1391 1.385 1_565 S
C1395 C1394 1.374 . S
C1396 C1393 1.499 . S
C1396 C1397 1.373 1_565 S
C1396 C1398 1.389 . S
C1397 H1376 0.950 . S
C1397 C1396 1.373 1_545 S
C1397 C1413 1.377 . S
C1398 C1396 1.389 . S
C1398 C1399 1.524 . S
C1398 C1412 1.377 . S
C1399 C1398 1.524 . S
C1399 C1400 1.397 . S
C1399 C1404 1.363 . S
C1400 H1377 0.950 . S
C1400 C1399 1.397 . S
C1400 C1401 1.334 . S
C1401 H1378 0.950 . S
C1401 C1400 1.334 . S
C1401 C1402 1.287 . S
C1402 C1401 1.287 . S
C1402 C1403 1.524 . S
C1402 H1421 0.913 . S
C1403 H1379 0.950 . S
C1403 C1402 1.524 . S
C1403 C1404 1.415 . S
C1404 H1380 0.993 . S
C1404 C1399 1.363 . S
C1404 C1403 1.415 . S
C1405 H1381 0.951 . S
C1405 C1406 1.366 . S
C1405 C1407 1.388 . S
C1406 C1405 1.366 . S
C1406 C1410 1.385 1_565 S
C1407 H1382 0.951 . S
C1407 C1405 1.388 . S
C1407 C1408 1.366 . S
C1408 C1407 1.366 . S
C1408 C1409 1.414 1_565 S
C1408 C1411 1.499 1_565 S
C1409 H1383 0.950 . S
C1409 C1408 1.414 1_545 S
C1409 C1410 1.374 . S
C1410 H1384 0.950 . S
C1410 C1406 1.385 1_545 S
C1410 C1409 1.374 . S
C1411 C1408 1.499 1_545 S
C1411 C1412 1.374 1_545 S
C1411 C1413 1.388 . S
C1412 H1385 0.950 . S
C1412 C1398 1.377 . S
C1412 C1411 1.374 1_565 S
C1413 C1397 1.377 . S
C1413 C1411 1.388 . S
C1413 C1414 1.524 . S
C1414 C1413 1.524 . S
C1414 C1415 1.397 . S
C1414 C1419 1.363 . S
C1415 H1386 0.950 . S
C1415 C1414 1.397 . S
C1415 C1416 1.334 . S
C1416 H1387 0.950 . S
C1416 C1415 1.334 . S
C1416 C1417 1.287 . S
C1417 C1416 1.287 . S
C1417 C1418 1.524 . S
C1417 H1420 0.999 . S
C1418 H1388 0.950 . S
C1418 C1417 1.524 . S
C1418 C1419 1.415 . S
C1419 H1389 0.947 1_545 S
C1419 C1414 1.363 . S
C1419 C1418 1.415 . S
H1420 C1417 0.999 . S
H1421 C1402 0.913 . S
H1422 C1440 0.951 . S
H1423 C1442 0.951 . S
H1424 C1444 0.950 . S
H1425 C1445 0.950 . S
H1426 C1447 0.950 . S
H1427 C1450 0.950 . S
H1428 C1451 0.950 . S
H1429 C1453 0.950 . S
H1430 C1454 0.950 . S
H1431 C1455 0.951 . S
H1432 C1457 0.951 . S
H1433 C1459 0.950 . S
H1434 C1460 0.950 . S
H1435 C1462 0.950 . S
H1436 C1465 0.950 . S
H1437 C1466 0.950 . S
H1438 C1468 0.950 . S
H1439 C1469 0.950 . S
C1440 H1422 0.951 . S
C1440 C1441 1.366 . S
C1440 C1442 1.388 . S
C1441 C1440 1.366 . S
C1441 C1445 1.385 . S
C1442 H1423 0.951 . S
C1442 C1440 1.388 . S
C1442 C1443 1.366 . S
C1443 C1442 1.366 . S
C1443 C1444 1.414 . S
C1443 C1446 1.499 . S
C1444 H1424 0.950 . S
C1444 C1443 1.414 . S
C1444 C1445 1.374 . S
C1445 H1425 0.950 . S
C1445 C1441 1.385 . S
C1445 C1444 1.374 . S
C1446 C1443 1.499 . S
C1446 C1447 1.373 . S
C1446 C1448 1.389 . S
C1447 H1426 0.950 . S
C1447 C1446 1.373 . S
C1447 C1463 1.377 . S
C1448 C1446 1.389 . S
C1448 C1449 1.524 . S
C1448 C1462 1.377 . S
C1449 C1448 1.524 . S
C1449 C1450 1.397 . S
C1449 C1454 1.363 . S
C1450 H1427 0.950 . S
C1450 C1449 1.397 . S
C1450 C1451 1.334 . S
C1451 H1428 0.950 . S
C1451 C1450 1.334 . S
C1451 C1452 1.287 . S
C1452 C1451 1.287 . S
C1452 C1453 1.524 . S
C1452 H1471 0.913 . S
C1453 H1429 0.950 . S
C1453 C1452 1.524 . S
C1453 C1454 1.415 . S
C1454 H1430 0.950 . S
C1454 C1449 1.363 . S
C1454 C1453 1.415 . S
C1455 H1431 0.951 . S
C1455 C1456 1.366 . S
C1455 C1457 1.388 . S
C1456 C1455 1.366 . S
C1456 C1460 1.385 . S
C1457 H1432 0.951 . S
C1457 C1455 1.388 . S
C1457 C1458 1.366 . S
C1458 C1457 1.366 . S
C1458 C1459 1.414 . S
C1458 C1461 1.499 . S
C1459 H1433 0.950 . S
C1459 C1458 1.414 . S
C1459 C1460 1.374 . S
C1460 H1434 0.950 . S
C1460 C1456 1.385 . S
C1460 C1459 1.374 . S
C1461 C1458 1.499 . S
C1461 C1462 1.373 . S
C1461 C1463 1.389 . S
C1462 H1435 0.950 . S
C1462 C1448 1.377 . S
C1462 C1461 1.373 . S
C1463 C1447 1.377 . S
C1463 C1461 1.389 . S
C1463 C1464 1.524 . S
C1464 C1463 1.524 . S
C1464 C1465 1.397 . S
C1464 C1469 1.363 . S
C1465 H1436 0.950 . S
C1465 C1464 1.397 . S
C1465 C1466 1.334 . S
C1466 H1437 0.950 . S
C1466 C1465 1.334 . S
C1466 C1467 1.287 . S
C1467 C1466 1.287 . S
C1467 C1468 1.524 . S
C1467 H1470 0.999 . S
C1468 H1438 0.950 . S
C1468 C1467 1.524 . S
C1468 C1469 1.415 . S
C1469 H1439 0.950 . S
C1469 C1464 1.363 . S
C1469 C1468 1.415 . S
H1470 C1467 0.999 . S
H1471 C1452 0.913 . S
H1472 C1490 0.951 . S
H1473 C1492 0.951 . S
H1474 C1494 0.950 . S
H1475 C1495 0.950 . S
H1476 C1497 0.950 . S
H1477 C1500 0.950 . S
H1478 C1501 0.950 . S
H1479 C1503 0.950 . S
H1480 C1504 0.950 . S
H1481 C1505 0.951 . S
H1482 C1507 0.951 . S
H1483 C1509 0.950 . S
H1484 C1510 0.950 . S
H1485 C1512 0.950 . S
H1486 C1515 0.950 . S
H1487 C1516 0.950 . S
H1488 C1518 0.950 . S
H1489 C1519 0.950 . S
C1490 H1472 0.951 . S
C1490 C1491 1.366 . S
C1490 C1492 1.388 . S
C1491 C1490 1.366 . S
C1491 C1495 1.385 1_554 S
C1492 H1473 0.951 . S
C1492 C1490 1.388 . S
C1492 C1493 1.366 . S
C1493 C1492 1.366 . S
C1493 C1494 1.414 1_554 S
C1493 C1496 1.499 . S
C1494 H1474 0.950 . S
C1494 C1493 1.414 1_556 S
C1494 C1495 1.374 . S
C1495 H1475 0.950 . S
C1495 C1491 1.385 1_556 S
C1495 C1494 1.374 . S
C1496 C1493 1.499 . S
C1496 C1497 1.377 . S
C1496 C1498 1.386 1_554 S
C1497 H1476 0.950 . S
C1497 C1496 1.377 . S
C1497 C1513 1.377 . S
C1498 C1496 1.386 1_556 S
C1498 C1499 1.524 . S
C1498 C1512 1.377 . S
C1499 C1498 1.524 . S
C1499 C1500 1.397 . S
C1499 C1504 1.363 . S
C1500 H1477 0.950 . S
C1500 C1499 1.397 . S
C1500 C1501 1.334 . S
C1501 H1478 0.950 . S
C1501 C1500 1.334 . S
C1501 C1502 1.287 . S
C1502 C1501 1.287 . S
C1502 C1503 1.524 . S
C1502 H1521 0.913 . S
C1503 H1479 0.950 . S
C1503 C1502 1.524 . S
C1503 C1504 1.415 . S
C1504 H1480 0.950 . S
C1504 C1499 1.363 . S
C1504 C1503 1.415 . S
C1505 H1481 0.951 . S
C1505 C1506 1.366 . S
C1505 C1507 1.388 . S
C1506 C1505 1.366 . S
C1506 C1510 1.385 1_556 S
C1507 H1482 0.951 . S
C1507 C1505 1.388 . S
C1507 C1508 1.364 1_556 S
C1508 C1507 1.364 1_554 S
C1508 C1509 1.415 . S
C1508 C1511 1.499 . S
C1509 H1483 0.950 . S
C1509 C1508 1.415 . S
C1509 C1510 1.374 . S
C1510 H1484 0.950 . S
C1510 C1506 1.385 1_554 S
C1510 C1509 1.374 . S
C1511 C1508 1.499 . S
C1511 C1512 1.373 1_554 S
C1511 C1513 1.389 . S
C1512 H1485 0.950 . S
C1512 C1498 1.377 . S
C1512 C1511 1.373 1_556 S
C1513 C1497 1.377 . S
C1513 C1511 1.389 . S
C1513 C1514 1.524 . S
C1514 C1513 1.524 . S
C1514 C1515 1.397 . S
C1514 C1519 1.363 . S
C1515 H1486 0.950 . S
C1515 C1514 1.397 . S
C1515 C1516 1.334 . S
C1516 H1487 0.950 . S
C1516 C1515 1.334 . S
C1516 C1517 1.287 . S
C1517 C1516 1.287 . S
C1517 C1518 1.524 . S
C1517 H1520 0.999 . S
C1518 H1488 0.950 . S
C1518 C1517 1.524 . S
C1518 C1519 1.415 . S
C1519 H1489 0.950 . S
C1519 C1514 1.363 . S
C1519 C1518 1.415 . S
H1520 C1517 0.999 . S
H1521 C1502 0.913 . S
H1522 C1540 0.951 1_556 S
H1523 C1542 0.948 1_556 S
H1524 C1544 0.950 . S
H1525 C1545 0.950 . S
H1526 C1547 0.950 . S
H1527 C1550 0.950 . S
H1528 C1551 0.950 . S
H1529 C1553 0.950 . S
H1530 C1554 0.950 . S
H1531 C1555 0.951 . S
H1532 C1557 0.951 . S
H1533 C1559 0.950 . S
H1534 C1560 0.950 . S
H1535 C1562 0.950 . S
H1536 C1565 0.950 . S
H1537 C1566 0.950 . S
H1538 C1568 0.950 . S
H1539 C1569 0.950 . S
C1540 H1522 0.951 1_554 S
C1540 C1541 1.366 . S
C1540 C1542 1.388 . S
C1541 C1540 1.366 . S
C1541 C1545 1.385 . S
C1542 H1523 0.948 1_554 S
C1542 C1540 1.388 . S
C1542 C1543 1.366 . S
C1543 C1542 1.366 . S
C1543 C1544 1.414 . S
C1543 C1546 1.499 . S
C1544 H1524 0.950 . S
C1544 C1543 1.414 . S
C1544 C1545 1.374 . S
C1545 H1525 0.950 . S
C1545 C1541 1.385 . S
C1545 C1544 1.374 . S
C1546 C1543 1.499 . S
C1546 C1547 1.373 . S
C1546 C1548 1.389 1_554 S
C1547 H1526 0.950 . S
C1547 C1546 1.373 . S
C1547 C1563 1.377 . S
C1548 C1546 1.389 1_556 S
C1548 C1549 1.524 . S
C1548 C1562 1.377 . S
C1549 C1548 1.524 . S
C1549 C1550 1.397 . S
C1549 C1554 1.363 . S
C1550 H1527 0.950 . S
C1550 C1549 1.397 . S
C1550 C1551 1.334 . S
C1551 H1528 0.950 . S
C1551 C1550 1.334 . S
C1551 C1552 1.287 . S
C1552 C1551 1.287 . S
C1552 C1553 1.524 . S
C1552 H1571 0.913 . S
C1553 H1529 0.950 . S
C1553 C1552 1.524 . S
C1553 C1554 1.415 . S
C1554 H1530 0.950 . S
C1554 C1549 1.363 . S
C1554 C1553 1.415 . S
C1555 H1531 0.951 . S
C1555 C1556 1.366 . S
C1555 C1557 1.388 . S
C1556 C1555 1.366 . S
C1556 C1560 1.385 . S
C1557 H1532 0.951 . S
C1557 C1555 1.388 . S
C1557 C1558 1.366 . S
C1558 C1557 1.366 . S
C1558 C1559 1.414 . S
C1558 C1561 1.499 . S
C1559 H1533 0.950 . S
C1559 C1558 1.414 . S
C1559 C1560 1.374 . S
C1560 H1534 0.950 . S
C1560 C1556 1.385 . S
C1560 C1559 1.374 . S
C1561 C1558 1.499 . S
C1561 C1562 1.373 1_554 S
C1561 C1563 1.389 . S
C1562 H1535 0.950 . S
C1562 C1548 1.377 . S
C1562 C1561 1.373 1_556 S
C1563 C1547 1.377 . S
C1563 C1561 1.389 . S
C1563 C1564 1.524 . S
C1564 C1563 1.524 . S
C1564 C1565 1.397 . S
C1564 C1569 1.363 . S
C1565 H1536 0.950 . S
C1565 C1564 1.397 . S
C1565 C1566 1.334 . S
C1566 H1537 0.950 . S
C1566 C1565 1.334 . S
C1566 C1567 1.287 . S
C1567 C1566 1.287 . S
C1567 C1568 1.524 . S
C1567 H1570 0.999 . S
C1568 H1538 0.950 . S
C1568 C1567 1.524 . S
C1568 C1569 1.415 . S
C1569 H1539 0.950 . S
C1569 C1564 1.363 . S
C1569 C1568 1.415 . S
H1570 C1567 0.999 . S
H1571 C1552 0.913 . S
H1572 C1590 0.951 . S
H1573 C1592 0.951 . S
H1574 C1594 0.950 . S
H1575 C1595 0.950 . S
H1576 C1597 0.950 . S
H1577 C1600 0.950 . S
H1578 C1601 0.950 . S
H1579 C1603 0.950 . S
H1580 C1604 0.950 . S
H1581 C1605 0.951 . S
H1582 C1607 0.951 . S
H1583 C1609 0.950 . S
H1584 C1610 0.950 . S
H1585 C1612 0.950 . S
H1586 C1615 0.950 . S
H1587 C1616 0.950 . S
H1588 C1618 0.950 . S
H1589 C1619 0.950 . S
C1590 H1572 0.951 . S
C1590 C1591 1.366 . S
C1590 C1592 1.388 . S
C1591 C1590 1.366 . S
C1591 C1595 1.385 . S
C1592 H1573 0.951 . S
C1592 C1590 1.388 . S
C1592 C1593 1.366 . S
C1593 C1592 1.366 . S
C1593 C1594 1.414 . S
C1593 C1596 1.499 . S
C1594 H1574 0.950 . S
C1594 C1593 1.414 . S
C1594 C1595 1.374 . S
C1595 H1575 0.950 . S
C1595 C1591 1.385 . S
C1595 C1594 1.374 . S
C1596 C1593 1.499 . S
C1596 C1597 1.373 . S
C1596 C1598 1.389 . S
C1597 H1576 0.950 . S
C1597 C1596 1.373 . S
C1597 C1613 1.377 . S
C1598 C1596 1.389 . S
C1598 C1599 1.524 . S
C1598 C1612 1.377 . S
C1599 C1598 1.524 . S
C1599 C1600 1.397 . S
C1599 C1604 1.363 . S
C1600 H1577 0.950 . S
C1600 C1599 1.397 . S
C1600 C1601 1.334 . S
C1601 H1578 0.950 . S
C1601 C1600 1.334 . S
C1601 C1602 1.287 . S
C1602 C1601 1.287 . S
C1602 C1603 1.524 . S
C1602 H1621 0.913 . S
C1603 H1579 0.950 . S
C1603 C1602 1.524 . S
C1603 C1604 1.415 . S
C1604 H1580 0.950 . S
C1604 C1599 1.363 . S
C1604 C1603 1.415 . S
C1605 H1581 0.951 . S
C1605 C1606 1.366 . S
C1605 C1607 1.388 . S
C1606 C1605 1.366 . S
C1606 C1610 1.385 . S
C1607 H1582 0.951 . S
C1607 C1605 1.388 . S
C1607 C1608 1.366 . S
C1608 C1607 1.366 . S
C1608 C1609 1.414 . S
C1608 C1611 1.499 . S
C1609 H1583 0.950 . S
C1609 C1608 1.414 . S
C1609 C1610 1.374 . S
C1610 H1584 0.950 . S
C1610 C1606 1.385 . S
C1610 C1609 1.374 . S
C1611 C1608 1.499 . S
C1611 C1612 1.373 . S
C1611 C1613 1.389 . S
C1612 H1585 0.950 . S
C1612 C1598 1.377 . S
C1612 C1611 1.373 . S
C1613 C1597 1.377 . S
C1613 C1611 1.389 . S
C1613 C1614 1.524 . S
C1614 C1613 1.524 . S
C1614 C1615 1.397 . S
C1614 C1619 1.363 . S
C1615 H1586 0.950 . S
C1615 C1614 1.397 . S
C1615 C1616 1.334 . S
C1616 H1587 0.950 . S
C1616 C1615 1.334 . S
C1616 C1617 1.287 . S
C1617 C1616 1.287 . S
C1617 C1618 1.524 . S
C1617 H1620 0.999 . S
C1618 H1588 0.950 . S
C1618 C1617 1.524 . S
C1618 C1619 1.415 . S
C1619 H1589 0.950 . S
C1619 C1614 1.363 . S
C1619 C1618 1.415 . S
H1620 C1617 0.999 . S
H1621 C1602 0.913 . S
H1622 C1640 0.951 . S
H1623 C1642 0.951 . S
H1624 C1644 0.950 . S
H1625 C1645 0.950 . S
H1626 C1647 0.950 . S
H1627 C1650 0.950 . S
H1628 C1651 0.950 . S
H1629 C1653 0.950 . S
H1630 C1654 0.950 . S
H1631 C1655 0.951 . S
H1632 C1657 0.951 . S
H1633 C1659 0.950 . S
H1634 C1660 0.950 . S
H1635 C1662 0.950 . S
H1636 C1665 0.950 . S
H1637 C1666 0.950 . S
H1638 C1668 0.950 . S
H1639 C1669 0.950 . S
C1640 H1622 0.951 . S
C1640 C1641 1.366 . S
C1640 C1642 1.388 . S
C1641 C1640 1.366 . S
C1641 C1645 1.385 . S
C1642 H1623 0.951 . S
C1642 C1640 1.388 . S
C1642 C1643 1.366 . S
C1643 C1642 1.366 . S
C1643 C1644 1.414 . S
C1643 C1646 1.499 . S
C1644 H1624 0.950 . S
C1644 C1643 1.414 . S
C1644 C1645 1.374 . S
C1645 H1625 0.950 . S
C1645 C1641 1.385 . S
C1645 C1644 1.374 . S
C1646 C1643 1.499 . S
C1646 C1647 1.373 . S
C1646 C1648 1.389 . S
C1647 H1626 0.950 . S
C1647 C1646 1.373 . S
C1647 C1663 1.377 . S
C1648 C1646 1.389 . S
C1648 C1649 1.524 . S
C1648 C1662 1.377 . S
C1649 C1648 1.524 . S
C1649 C1650 1.397 . S
C1649 C1654 1.363 . S
C1650 H1627 0.950 . S
C1650 C1649 1.397 . S
C1650 C1651 1.334 . S
C1651 H1628 0.950 . S
C1651 C1650 1.334 . S
C1651 C1652 1.287 . S
C1652 C1651 1.287 . S
C1652 C1653 1.524 . S
C1652 H1671 0.913 . S
C1653 H1629 0.950 . S
C1653 C1652 1.524 . S
C1653 C1654 1.415 . S
C1654 H1630 0.950 . S
C1654 C1649 1.363 . S
C1654 C1653 1.415 . S
C1655 H1631 0.951 . S
C1655 C1656 1.366 . S
C1655 C1657 1.388 . S
C1656 C1655 1.366 . S
C1656 C1660 1.385 . S
C1657 H1632 0.951 . S
C1657 C1655 1.388 . S
C1657 C1658 1.366 . S
C1658 C1657 1.366 . S
C1658 C1659 1.414 . S
C1658 C1661 1.499 . S
C1659 H1633 0.950 . S
C1659 C1658 1.414 . S
C1659 C1660 1.374 . S
C1660 H1634 0.950 . S
C1660 C1656 1.385 . S
C1660 C1659 1.374 . S
C1661 C1658 1.499 . S
C1661 C1662 1.373 . S
C1661 C1663 1.389 . S
C1662 H1635 0.950 . S
C1662 C1648 1.377 . S
C1662 C1661 1.373 . S
C1663 C1647 1.377 . S
C1663 C1661 1.389 . S
C1663 C1664 1.524 . S
C1664 C1663 1.524 . S
C1664 C1665 1.397 . S
C1664 C1669 1.363 . S
C1665 H1636 0.950 . S
C1665 C1664 1.397 . S
C1665 C1666 1.334 . S
C1666 H1637 0.950 . S
C1666 C1665 1.334 . S
C1666 C1667 1.287 . S
C1667 C1666 1.287 . S
C1667 C1668 1.524 . S
C1667 H1670 0.999 . S
C1668 H1638 0.950 . S
C1668 C1667 1.524 . S
C1668 C1669 1.415 . S
C1669 H1639 0.950 . S
C1669 C1664 1.363 . S
C1669 C1668 1.415 . S
H1670 C1667 0.999 . S
H1671 C1652 0.913 . S
H1672 C1690 0.951 . S
H1673 C1692 0.951 . S
H1674 C1694 0.950 . S
H1675 C1695 0.950 . S
H1676 C1697 0.950 . S
H1677 C1700 0.950 . S
H1678 C1701 0.950 . S
H1679 C1703 0.950 . S
H1680 C1704 0.950 . S
H1681 C1705 0.951 . S
H1682 C1707 0.951 . S
H1683 C1709 0.950 . S
H1684 C1710 0.950 . S
H1685 C1712 0.950 . S
H1686 C1715 0.950 . S
H1687 C1716 0.950 . S
H1688 C1718 0.950 . S
H1689 C1719 0.950 . S
C1690 H1672 0.951 . S
C1690 C1691 1.366 . S
C1690 C1692 1.388 . S
C1691 C1690 1.366 . S
C1691 C1695 1.385 . S
C1692 H1673 0.951 . S
C1692 C1690 1.388 . S
C1692 C1693 1.366 . S
C1693 C1692 1.366 . S
C1693 C1694 1.414 . S
C1693 C1696 1.499 . S
C1694 H1674 0.950 . S
C1694 C1693 1.414 . S
C1694 C1695 1.374 . S
C1695 H1675 0.950 . S
C1695 C1691 1.385 . S
C1695 C1694 1.374 . S
C1696 C1693 1.499 . S
C1696 C1697 1.373 . S
C1696 C1698 1.389 . S
C1697 H1676 0.950 . S
C1697 C1696 1.373 . S
C1697 C1713 1.377 . S
C1698 C1696 1.389 . S
C1698 C1699 1.524 . S
C1698 C1712 1.377 . S
C1699 C1698 1.524 . S
C1699 C1700 1.397 . S
C1699 C1704 1.363 . S
C1700 H1677 0.950 . S
C1700 C1699 1.397 . S
C1700 C1701 1.334 . S
C1701 H1678 0.950 . S
C1701 C1700 1.334 . S
C1701 C1702 1.287 . S
C1702 C1701 1.287 . S
C1702 C1703 1.524 . S
C1702 H1721 0.913 . S
C1703 H1679 0.950 . S
C1703 C1702 1.524 . S
C1703 C1704 1.415 . S
C1704 H1680 0.950 . S
C1704 C1699 1.363 . S
C1704 C1703 1.415 . S
C1705 H1681 0.951 . S
C1705 C1706 1.366 . S
C1705 C1707 1.388 . S
C1706 C1705 1.366 . S
C1706 C1710 1.385 . S
C1707 H1682 0.951 . S
C1707 C1705 1.388 . S
C1707 C1708 1.366 . S
C1708 C1707 1.366 . S
C1708 C1709 1.414 . S
C1708 C1711 1.499 . S
C1709 H1683 0.950 . S
C1709 C1708 1.414 . S
C1709 C1710 1.374 . S
C1710 H1684 0.950 . S
C1710 C1706 1.385 . S
C1710 C1709 1.374 . S
C1711 C1708 1.499 . S
C1711 C1712 1.373 . S
C1711 C1713 1.389 . S
C1712 H1685 0.950 . S
C1712 C1698 1.377 . S
C1712 C1711 1.373 . S
C1713 C1697 1.377 . S
C1713 C1711 1.389 . S
C1713 C1714 1.524 . S
C1714 C1713 1.524 . S
C1714 C1715 1.397 . S
C1714 C1719 1.363 . S
C1715 H1686 0.950 . S
C1715 C1714 1.397 . S
C1715 C1716 1.334 . S
C1716 H1687 0.950 . S
C1716 C1715 1.334 . S
C1716 C1717 1.287 . S
C1717 C1716 1.287 . S
C1717 C1718 1.524 . S
C1717 H1720 0.999 . S
C1718 H1688 0.950 . S
C1718 C1717 1.524 . S
C1718 C1719 1.415 . S
C1719 H1689 0.950 . S
C1719 C1714 1.363 . S
C1719 C1718 1.415 . S
H1720 C1717 0.999 . S
H1721 C1702 0.913 . S
H1722 C1740 0.951 . S
H1723 C1742 0.951 . S
H1724 C1744 0.950 . S
H1725 C1745 0.950 . S
H1726 C1747 0.950 . S
H1727 C1750 0.950 . S
H1728 C1751 0.950 . S
H1729 C1753 0.950 . S
H1730 C1754 0.950 . S
H1731 C1755 0.951 . S
H1732 C1757 0.951 . S
H1733 C1759 0.950 . S
H1734 C1760 0.950 . S
H1735 C1762 0.950 . S
H1736 C1765 0.950 . S
H1737 C1766 0.950 . S
H1738 C1768 0.950 . S
H1739 C1769 0.950 . S
C1740 H1722 0.951 . S
C1740 C1741 1.366 . S
C1740 C1742 1.388 . S
C1741 C1740 1.366 . S
C1741 C1745 1.385 . S
C1742 H1723 0.951 . S
C1742 C1740 1.388 . S
C1742 C1743 1.366 . S
C1743 C1742 1.366 . S
C1743 C1744 1.414 . S
C1743 C1746 1.499 . S
C1744 H1724 0.950 . S
C1744 C1743 1.414 . S
C1744 C1745 1.374 . S
C1745 H1725 0.950 . S
C1745 C1741 1.385 . S
C1745 C1744 1.374 . S
C1746 C1743 1.499 . S
C1746 C1747 1.373 . S
C1746 C1748 1.389 . S
C1747 H1726 0.950 . S
C1747 C1746 1.373 . S
C1747 C1763 1.377 . S
C1748 C1746 1.389 . S
C1748 C1749 1.524 . S
C1748 C1762 1.377 . S
C1749 C1748 1.524 . S
C1749 C1750 1.397 . S
C1749 C1754 1.363 . S
C1750 H1727 0.950 . S
C1750 C1749 1.397 . S
C1750 C1751 1.334 . S
C1751 H1728 0.950 . S
C1751 C1750 1.334 . S
C1751 C1752 1.287 . S
C1752 C1751 1.287 . S
C1752 C1753 1.524 . S
C1752 H1771 0.913 . S
C1753 H1729 0.950 . S
C1753 C1752 1.524 . S
C1753 C1754 1.415 . S
C1754 H1730 0.950 . S
C1754 C1749 1.363 . S
C1754 C1753 1.415 . S
C1755 H1731 0.951 . S
C1755 C1756 1.366 . S
C1755 C1757 1.388 . S
C1756 C1755 1.366 . S
C1756 C1760 1.385 . S
C1757 H1732 0.951 . S
C1757 C1755 1.388 . S
C1757 C1758 1.366 . S
C1758 C1757 1.366 . S
C1758 C1759 1.414 . S
C1758 C1761 1.499 . S
C1759 H1733 0.950 . S
C1759 C1758 1.414 . S
C1759 C1760 1.374 . S
C1760 H1734 0.950 . S
C1760 C1756 1.385 . S
C1760 C1759 1.374 . S
C1761 C1758 1.499 . S
C1761 C1762 1.373 . S
C1761 C1763 1.389 . S
C1762 H1735 0.950 . S
C1762 C1748 1.377 . S
C1762 C1761 1.373 . S
C1763 C1747 1.377 . S
C1763 C1761 1.389 . S
C1763 C1764 1.524 . S
C1764 C1763 1.524 . S
C1764 C1765 1.397 . S
C1764 C1769 1.363 . S
C1765 H1736 0.950 . S
C1765 C1764 1.397 . S
C1765 C1766 1.334 . S
C1766 H1737 0.950 . S
C1766 C1765 1.334 . S
C1766 C1767 1.287 . S
C1767 C1766 1.287 . S
C1767 C1768 1.524 . S
C1767 H1770 0.999 . S
C1768 H1738 0.950 . S
C1768 C1767 1.524 . S
C1768 C1769 1.415 . S
C1769 H1739 0.950 . S
C1769 C1764 1.363 . S
C1769 C1768 1.415 . S
H1770 C1767 0.999 . S
H1771 C1752 0.913 . S
H1772 C1790 0.951 . S
H1773 C1792 0.951 . S
H1774 C1794 0.950 . S
H1775 C1795 0.950 . S
H1776 C1797 0.950 . S
H1777 C1800 0.950 . S
H1778 C1801 0.950 . S
H1779 C1803 0.950 . S
H1780 C1804 0.950 . S
H1781 C1805 0.951 . S
H1782 C1807 0.951 . S
H1783 C1809 0.950 . S
H1784 C1810 0.950 . S
H1785 C1812 0.950 . S
H1786 C1815 0.950 . S
H1787 C1816 0.950 . S
H1788 C1818 0.950 . S
H1789 C1819 0.950 . S
C1790 H1772 0.951 . S
C1790 C1791 1.366 . S
C1790 C1792 1.388 . S
C1791 C1790 1.366 . S
C1791 C1795 1.385 . S
C1792 H1773 0.951 . S
C1792 C1790 1.388 . S
C1792 C1793 1.366 . S
C1793 C1792 1.366 . S
C1793 C1794 1.414 . S
C1793 C1796 1.499 . S
C1794 H1774 0.950 . S
C1794 C1793 1.414 . S
C1794 C1795 1.374 . S
C1795 H1775 0.950 . S
C1795 C1791 1.385 . S
C1795 C1794 1.374 . S
C1796 C1793 1.499 . S
C1796 C1797 1.373 . S
C1796 C1798 1.389 . S
C1797 H1776 0.950 . S
C1797 C1796 1.373 . S
C1797 C1813 1.377 . S
C1798 C1796 1.389 . S
C1798 C1799 1.524 . S
C1798 C1812 1.377 . S
C1799 C1798 1.524 . S
C1799 C1800 1.397 . S
C1799 C1804 1.363 . S
C1800 H1777 0.950 . S
C1800 C1799 1.397 . S
C1800 C1801 1.334 . S
C1801 H1778 0.950 . S
C1801 C1800 1.334 . S
C1801 C1802 1.287 . S
C1802 C1801 1.287 . S
C1802 C1803 1.524 . S
C1802 H1821 0.913 . S
C1803 H1779 0.950 . S
C1803 C1802 1.524 . S
C1803 C1804 1.415 . S
C1804 H1780 0.950 . S
C1804 C1799 1.363 . S
C1804 C1803 1.415 . S
C1805 H1781 0.951 . S
C1805 C1806 1.366 . S
C1805 C1807 1.388 . S
C1806 C1805 1.366 . S
C1806 C1810 1.385 . S
C1807 H1782 0.951 . S
C1807 C1805 1.388 . S
C1807 C1808 1.366 . S
C1808 C1807 1.366 . S
C1808 C1809 1.414 . S
C1808 C1811 1.499 . S
C1809 H1783 0.950 . S
C1809 C1808 1.414 . S
C1809 C1810 1.374 . S
C1810 H1784 0.950 . S
C1810 C1806 1.385 . S
C1810 C1809 1.374 . S
C1811 C1808 1.499 . S
C1811 C1812 1.373 . S
C1811 C1813 1.389 . S
C1812 H1785 0.950 . S
C1812 C1798 1.377 . S
C1812 C1811 1.373 . S
C1813 C1797 1.377 . S
C1813 C1811 1.389 . S
C1813 C1814 1.524 . S
C1814 C1813 1.524 . S
C1814 C1815 1.397 . S
C1814 C1819 1.363 . S
C1815 H1786 0.950 . S
C1815 C1814 1.397 . S
C1815 C1816 1.334 . S
C1816 H1787 0.950 . S
C1816 C1815 1.334 . S
C1816 C1817 1.287 . S
C1817 C1816 1.287 . S
C1817 C1818 1.524 . S
C1817 H1820 0.999 . S
C1818 H1788 0.950 . S
C1818 C1817 1.524 . S
C1818 C1819 1.415 . S
C1819 H1789 0.950 . S
C1819 C1814 1.363 . S
C1819 C1818 1.415 . S
H1820 C1817 0.999 . S
H1821 C1802 0.913 . S
H1822 C1840 0.951 . S
H1823 C1842 0.951 . S
H1824 C1844 0.950 . S
H1825 C1845 0.950 . S
H1826 C1847 0.950 . S
H1827 C1850 0.950 . S
H1828 C1851 0.950 . S
H1829 C1853 0.950 . S
H1830 C1854 0.950 . S
H1831 C1855 0.951 . S
H1832 C1857 0.951 . S
H1833 C1859 0.950 . S
H1834 C1860 0.950 . S
H1835 C1862 0.950 . S
H1836 C1865 0.950 . S
H1837 C1866 0.950 . S
H1838 C1868 0.950 . S
H1839 C1869 0.950 . S
C1840 H1822 0.951 . S
C1840 C1841 1.366 . S
C1840 C1842 1.388 . S
C1841 C1840 1.366 . S
C1841 C1845 1.385 . S
C1842 H1823 0.951 . S
C1842 C1840 1.388 . S
C1842 C1843 1.366 . S
C1843 C1842 1.366 . S
C1843 C1844 1.414 . S
C1843 C1846 1.499 . S
C1844 H1824 0.950 . S
C1844 C1843 1.414 . S
C1844 C1845 1.374 . S
C1845 H1825 0.950 . S
C1845 C1841 1.385 . S
C1845 C1844 1.374 . S
C1846 C1843 1.499 . S
C1846 C1847 1.373 . S
C1846 C1848 1.389 . S
C1847 H1826 0.950 . S
C1847 C1846 1.373 . S
C1847 C1863 1.377 . S
C1848 C1846 1.389 . S
C1848 C1849 1.524 . S
C1848 C1862 1.377 . S
C1849 C1848 1.524 . S
C1849 C1850 1.397 . S
C1849 C1854 1.363 . S
C1850 H1827 0.950 . S
C1850 C1849 1.397 . S
C1850 C1851 1.334 . S
C1851 H1828 0.950 . S
C1851 C1850 1.334 . S
C1851 C1852 1.287 . S
C1852 C1851 1.287 . S
C1852 C1853 1.524 . S
C1852 H1871 0.913 . S
C1853 H1829 0.950 . S
C1853 C1852 1.524 . S
C1853 C1854 1.415 . S
C1854 H1830 0.950 . S
C1854 C1849 1.363 . S
C1854 C1853 1.415 . S
C1855 H1831 0.951 . S
C1855 C1856 1.366 . S
C1855 C1857 1.388 . S
C1856 C1855 1.366 . S
C1856 C1860 1.385 . S
C1857 H1832 0.951 . S
C1857 C1855 1.388 . S
C1857 C1858 1.366 . S
C1858 C1857 1.366 . S
C1858 C1859 1.414 . S
C1858 C1861 1.499 . S
C1859 H1833 0.950 . S
C1859 C1858 1.414 . S
C1859 C1860 1.374 . S
C1860 H1834 0.950 . S
C1860 C1856 1.385 . S
C1860 C1859 1.374 . S
C1861 C1858 1.499 . S
C1861 C1862 1.373 . S
C1861 C1863 1.389 . S
C1862 H1835 0.950 . S
C1862 C1848 1.377 . S
C1862 C1861 1.373 . S
C1863 C1847 1.377 . S
C1863 C1861 1.389 . S
C1863 C1864 1.524 . S
C1864 C1863 1.524 . S
C1864 C1865 1.397 . S
C1864 C1869 1.363 . S
C1865 H1836 0.950 . S
C1865 C1864 1.397 . S
C1865 C1866 1.334 . S
C1866 H1837 0.950 . S
C1866 C1865 1.334 . S
C1866 C1867 1.287 . S
C1867 C1866 1.287 . S
C1867 C1868 1.524 . S
C1867 H1870 0.999 . S
C1868 H1838 0.950 . S
C1868 C1867 1.524 . S
C1868 C1869 1.415 . S
C1869 H1839 0.950 . S
C1869 C1864 1.363 . S
C1869 C1868 1.415 . S
H1870 C1867 0.999 . S
H1871 C1852 0.913 . S
H1872 C1890 0.951 . S
H1873 C1892 0.951 . S
H1874 C1894 0.950 . S
H1875 C1895 0.955 . S
H1876 C1897 0.950 . S
H1877 C1900 0.950 . S
H1878 C1901 0.950 . S
H1879 C1903 0.950 . S
H1880 C1904 0.950 . S
H1881 C1905 0.913 1_554 S
H1882 C1907 0.951 . S
H1883 C1909 0.950 . S
H1884 C1910 0.950 . S
H1885 C1912 0.950 . S
H1886 C1915 0.950 . S
H1887 C1916 0.950 . S
H1888 C1918 0.926 1_554 S
H1889 C1919 0.950 . S
C1890 H1872 0.951 . S
C1890 C1891 1.366 . S
C1890 C1892 1.388 . S
C1891 C1890 1.366 . S
C1891 C1895 1.385 . S
C1892 H1873 0.951 . S
C1892 C1890 1.388 . S
C1892 C1893 1.366 . S
C1893 C1892 1.366 . S
C1893 C1894 1.414 . S
C1893 C1896 1.499 . S
C1894 H1874 0.950 . S
C1894 C1893 1.414 . S
C1894 C1895 1.374 . S
C1895 H1875 0.955 . S
C1895 C1891 1.385 . S
C1895 C1894 1.374 . S
C1896 C1893 1.499 . S
C1896 C1897 1.373 1_455 S
C1896 C1898 1.389 . S
C1897 H1876 0.950 . S
C1897 C1896 1.373 1_655 S
C1897 C1913 1.377 . S
C1898 C1896 1.389 . S
C1898 C1899 1.524 . S
C1898 C1912 1.377 . S
C1899 C1898 1.524 . S
C1899 C1900 1.397 . S
C1899 C1904 1.363 . S
C1900 H1877 0.950 . S
C1900 C1899 1.397 . S
C1900 C1901 1.334 . S
C1901 H1878 0.950 . S
C1901 C1900 1.334 . S
C1901 C1902 1.287 . S
C1902 C1901 1.287 . S
C1902 C1903 1.524 . S
C1902 H1921 0.913 . S
C1903 H1879 0.950 . S
C1903 C1902 1.524 . S
C1903 C1904 1.415 . S
C1904 H1880 0.950 . S
C1904 C1899 1.363 . S
C1904 C1903 1.415 . S
C1905 H1881 0.913 1_556 S
C1905 C1906 1.366 . S
C1905 C1907 1.388 . S
C1906 C1905 1.366 . S
C1906 C1910 1.385 . S
C1907 H1882 0.951 . S
C1907 C1905 1.388 . S
C1907 C1908 1.366 . S
C1908 C1907 1.366 . S
C1908 C1909 1.414 . S
C1908 C1911 1.499 . S
C1909 H1883 0.950 . S
C1909 C1908 1.414 . S
C1909 C1910 1.374 . S
C1910 H1884 0.950 . S
C1910 C1906 1.385 . S
C1910 C1909 1.374 . S
C1911 C1908 1.499 . S
C1911 C1912 1.373 . S
C1911 C1913 1.389 1_455 S
C1912 H1885 0.950 . S
C1912 C1898 1.377 . S
C1912 C1911 1.373 . S
C1913 C1897 1.377 . S
C1913 C1911 1.389 1_655 S
C1913 C1914 1.524 . S
C1914 C1913 1.524 . S
C1914 C1915 1.397 . S
C1914 C1919 1.363 . S
C1915 H1886 0.950 . S
C1915 C1914 1.397 . S
C1915 C1916 1.334 . S
C1916 H1887 0.950 . S
C1916 C1915 1.334 . S
C1916 C1917 1.287 . S
C1917 C1916 1.287 . S
C1917 C1918 1.524 . S
C1917 H1920 0.999 . S
C1918 H1888 0.926 1_556 S
C1918 C1917 1.524 . S
C1918 C1919 1.415 . S
C1919 H1889 0.950 . S
C1919 C1914 1.363 . S
C1919 C1918 1.415 . S
H1920 C1917 0.999 . S
H1921 C1902 0.913 . S
H1922 C1940 0.951 . S
H1923 C1942 0.951 . S
H1924 C1944 0.950 . S
H1925 C1945 0.950 . S
H1926 C1947 0.950 . S
H1927 C1950 0.950 . S
H1928 C1951 0.950 . S
H1929 C1953 0.950 . S
H1930 C1954 0.950 . S
H1931 C1955 0.951 . S
H1932 C1957 0.951 . S
H1933 C1959 0.950 . S
H1934 C1960 0.950 . S
H1935 C1962 0.950 . S
H1936 C1965 0.950 . S
H1937 C1966 0.950 . S
H1938 C1968 0.950 . S
H1939 C1969 0.950 . S
C1940 H1922 0.951 . S
C1940 C1941 1.366 . S
C1940 C1942 1.388 . S
C1941 C1940 1.366 . S
C1941 C1945 1.385 . S
C1942 H1923 0.951 . S
C1942 C1940 1.388 . S
C1942 C1943 1.366 . S
C1943 C1942 1.366 . S
C1943 C1944 1.414 . S
C1943 C1946 1.499 . S
C1944 H1924 0.950 . S
C1944 C1943 1.414 . S
C1944 C1945 1.374 . S
C1945 H1925 0.950 . S
C1945 C1941 1.385 . S
C1945 C1944 1.374 . S
C1946 C1943 1.499 . S
C1946 C1947 1.373 . S
C1946 C1948 1.389 . S
C1947 H1926 0.950 . S
C1947 C1946 1.373 . S
C1947 C1963 1.377 . S
C1948 C1946 1.389 . S
C1948 C1949 1.524 . S
C1948 C1962 1.377 . S
C1949 C1948 1.524 . S
C1949 C1950 1.397 . S
C1949 C1954 1.363 . S
C1950 H1927 0.950 . S
C1950 C1949 1.397 . S
C1950 C1951 1.334 . S
C1951 H1928 0.950 . S
C1951 C1950 1.334 . S
C1951 C1952 1.287 . S
C1952 C1951 1.287 . S
C1952 C1953 1.524 . S
C1952 H1971 0.913 . S
C1953 H1929 0.950 . S
C1953 C1952 1.524 . S
C1953 C1954 1.415 . S
C1954 H1930 0.950 . S
C1954 C1949 1.363 . S
C1954 C1953 1.415 . S
C1955 H1931 0.951 . S
C1955 C1956 1.366 . S
C1955 C1957 1.388 . S
C1956 C1955 1.366 . S
C1956 C1960 1.385 . S
C1957 H1932 0.951 . S
C1957 C1955 1.388 . S
C1957 C1958 1.366 . S
C1958 C1957 1.366 . S
C1958 C1959 1.414 . S
C1958 C1961 1.499 . S
C1959 H1933 0.950 . S
C1959 C1958 1.414 . S
C1959 C1960 1.374 . S
C1960 H1934 0.950 . S
C1960 C1956 1.385 . S
C1960 C1959 1.374 . S
C1961 C1958 1.499 . S
C1961 C1962 1.373 . S
C1961 C1963 1.389 . S
C1962 H1935 0.950 . S
C1962 C1948 1.377 . S
C1962 C1961 1.373 . S
C1963 C1947 1.377 . S
C1963 C1961 1.389 . S
C1963 C1964 1.524 . S
C1964 C1963 1.524 . S
C1964 C1965 1.397 . S
C1964 C1969 1.363 . S
C1965 H1936 0.950 . S
C1965 C1964 1.397 . S
C1965 C1966 1.334 . S
C1966 H1937 0.950 . S
C1966 C1965 1.334 . S
C1966 C1967 1.287 . S
C1967 C1966 1.287 . S
C1967 C1968 1.524 . S
C1967 H1970 0.999 . S
C1968 H1938 0.950 . S
C1968 C1967 1.524 . S
C1968 C1969 1.415 . S
C1969 H1939 0.950 . S
C1969 C1964 1.363 . S
C1969 C1968 1.415 . S
H1970 C1967 0.999 . S
H1971 C1952 0.913 . S
H1972 C1990 0.951 . S
H1973 C1992 0.951 . S
H1974 C1994 0.950 . S
H1975 C1995 0.950 . S
H1976 C1997 0.950 . S
H1977 C2000 0.950 . S
H1978 C2001 0.950 . S
H1979 C2003 0.950 . S
H1980 C2004 0.950 . S
H1981 C2005 0.951 . S
H1982 C2007 0.951 . S
H1983 C2009 0.950 . S
H1984 C2010 0.950 . S
H1985 C2012 0.950 . S
H1986 C2015 0.950 . S
H1987 C2016 0.950 . S
H1988 C2018 0.950 . S
H1989 C2019 0.950 . S
C1990 H1972 0.951 . S
C1990 C1991 1.366 . S
C1990 C1992 1.388 . S
C1991 C1990 1.366 . S
C1991 C1995 1.385 . S
C1992 H1973 0.951 . S
C1992 C1990 1.388 . S
C1992 C1993 1.366 . S
C1993 C1992 1.366 . S
C1993 C1994 1.414 . S
C1993 C1996 1.499 . S
C1994 H1974 0.950 . S
C1994 C1993 1.414 . S
C1994 C1995 1.374 . S
C1995 H1975 0.950 . S
C1995 C1991 1.385 . S
C1995 C1994 1.374 . S
C1996 C1993 1.499 . S
C1996 C1997 1.373 . S
C1996 C1998 1.389 . S
C1997 H1976 0.950 . S
C1997 C1996 1.373 . S
C1997 C2013 1.377 . S
C1998 C1996 1.389 . S
C1998 C1999 1.524 . S
C1998 C2012 1.377 . S
C1999 C1998 1.524 . S
C1999 C2000 1.397 . S
C1999 C2004 1.363 . S
C2000 H1977 0.950 . S
C2000 C1999 1.397 . S
C2000 C2001 1.334 . S
C2001 H1978 0.950 . S
C2001 C2000 1.334 . S
C2001 C2002 1.287 . S
C2002 C2001 1.287 . S
C2002 C2003 1.524 . S
C2002 H2021 0.913 . S
C2003 H1979 0.950 . S
C2003 C2002 1.524 . S
C2003 C2004 1.415 . S
C2004 H1980 0.950 . S
C2004 C1999 1.363 . S
C2004 C2003 1.415 . S
C2005 H1981 0.951 . S
C2005 C2006 1.366 . S
C2005 C2007 1.388 . S
C2006 C2005 1.366 . S
C2006 C2010 1.385 . S
C2007 H1982 0.951 . S
C2007 C2005 1.388 . S
C2007 C2008 1.366 . S
C2008 C2007 1.366 . S
C2008 C2009 1.414 . S
C2008 C2011 1.499 . S
C2009 H1983 0.950 . S
C2009 C2008 1.414 . S
C2009 C2010 1.374 . S
C2010 H1984 0.950 . S
C2010 C2006 1.385 . S
C2010 C2009 1.374 . S
C2011 C2008 1.499 . S
C2011 C2012 1.373 . S
C2011 C2013 1.389 . S
C2012 H1985 0.950 . S
C2012 C1998 1.377 . S
C2012 C2011 1.373 . S
C2013 C1997 1.377 . S
C2013 C2011 1.389 . S
C2013 C2014 1.524 . S
C2014 C2013 1.524 . S
C2014 C2015 1.397 . S
C2014 C2019 1.363 . S
C2015 H1986 0.950 . S
C2015 C2014 1.397 . S
C2015 C2016 1.334 . S
C2016 H1987 0.950 . S
C2016 C2015 1.334 . S
C2016 C2017 1.287 . S
C2017 C2016 1.287 . S
C2017 C2018 1.524 . S
C2017 H2020 0.999 . S
C2018 H1988 0.950 . S
C2018 C2017 1.524 . S
C2018 C2019 1.415 . S
C2019 H1989 0.950 . S
C2019 C2014 1.363 . S
C2019 C2018 1.415 . S
H2020 C2017 0.999 . S
H2021 C2002 0.913 . S
H2022 C2040 0.951 . S
H2023 C2042 0.951 . S
H2024 C2044 0.950 . S
H2025 C2045 0.950 . S
H2026 C2047 0.950 . S
H2027 C2050 0.950 . S
H2028 C2051 0.950 . S
H2029 C2053 0.950 . S
H2030 C2054 0.950 . S
H2031 C2055 0.951 . S
H2032 C2057 0.951 . S
H2033 C2059 0.950 . S
H2034 C2060 0.950 . S
H2035 C2062 0.950 . S
H2036 C2065 0.950 . S
H2037 C2066 0.950 . S
H2038 C2068 0.950 . S
H2039 C2069 0.950 . S
C2040 H2022 0.951 . S
C2040 C2041 1.366 . S
C2040 C2042 1.388 . S
C2041 C2040 1.366 . S
C2041 C2045 1.385 . S
C2042 H2023 0.951 . S
C2042 C2040 1.388 . S
C2042 C2043 1.366 . S
C2043 C2042 1.366 . S
C2043 C2044 1.414 . S
C2043 C2046 1.499 . S
C2044 H2024 0.950 . S
C2044 C2043 1.414 . S
C2044 C2045 1.374 . S
C2045 H2025 0.950 . S
C2045 C2041 1.385 . S
C2045 C2044 1.374 . S
C2046 C2043 1.499 . S
C2046 C2047 1.373 . S
C2046 C2048 1.389 . S
C2047 H2026 0.950 . S
C2047 C2046 1.373 . S
C2047 C2063 1.377 . S
C2048 C2046 1.389 . S
C2048 C2049 1.524 . S
C2048 C2062 1.377 . S
C2049 C2048 1.524 . S
C2049 C2050 1.397 . S
C2049 C2054 1.363 . S
C2050 H2027 0.950 . S
C2050 C2049 1.397 . S
C2050 C2051 1.334 . S
C2051 H2028 0.950 . S
C2051 C2050 1.334 . S
C2051 C2052 1.287 . S
C2052 C2051 1.287 . S
C2052 C2053 1.524 . S
C2052 H2071 0.913 . S
C2053 H2029 0.950 . S
C2053 C2052 1.524 . S
C2053 C2054 1.415 . S
C2054 H2030 0.950 . S
C2054 C2049 1.363 . S
C2054 C2053 1.415 . S
C2055 H2031 0.951 . S
C2055 C2056 1.366 . S
C2055 C2057 1.388 . S
C2056 C2055 1.366 . S
C2056 C2060 1.385 . S
C2057 H2032 0.951 . S
C2057 C2055 1.388 . S
C2057 C2058 1.366 . S
C2058 C2057 1.366 . S
C2058 C2059 1.414 . S
C2058 C2061 1.499 . S
C2059 H2033 0.950 . S
C2059 C2058 1.414 . S
C2059 C2060 1.374 . S
C2060 H2034 0.950 . S
C2060 C2056 1.385 . S
C2060 C2059 1.374 . S
C2061 C2058 1.499 . S
C2061 C2062 1.373 . S
C2061 C2063 1.389 . S
C2062 H2035 0.950 . S
C2062 C2048 1.377 . S
C2062 C2061 1.373 . S
C2063 C2047 1.377 . S
C2063 C2061 1.389 . S
C2063 C2064 1.524 . S
C2064 C2063 1.524 . S
C2064 C2065 1.397 . S
C2064 C2069 1.363 . S
C2065 H2036 0.950 . S
C2065 C2064 1.397 . S
C2065 C2066 1.334 . S
C2066 H2037 0.950 . S
C2066 C2065 1.334 . S
C2066 C2067 1.287 . S
C2067 C2066 1.287 . S
C2067 C2068 1.524 . S
C2067 H2070 0.999 . S
C2068 H2038 0.950 . S
C2068 C2067 1.524 . S
C2068 C2069 1.415 . S
C2069 H2039 0.950 . S
C2069 C2064 1.363 . S
C2069 C2068 1.415 . S
H2070 C2067 0.999 . S
H2071 C2052 0.913 . S
H2072 C2090 0.951 . S
H2073 C2092 0.951 . S
H2074 C2094 0.950 . S
H2075 C2095 0.950 . S
H2076 C2097 0.950 1_655 S
H2077 C2100 0.950 . S
H2078 C2101 0.950 . S
H2079 C2103 0.950 . S
H2080 C2104 0.950 . S
H2081 C2105 0.951 . S
H2082 C2107 0.951 . S
H2083 C2109 0.950 1_655 S
H2084 C2110 0.950 1_655 S
H2085 C2112 0.950 . S
H2086 C2115 0.950 . S
H2087 C2116 0.950 . S
H2088 C2118 0.950 . S
H2089 C2119 0.950 1_455 S
C2090 H2072 0.951 . S
C2090 C2091 1.366 1_655 S
C2090 C2092 1.388 . S
C2091 C2090 1.366 1_455 S
C2091 C2095 1.385 . S
C2092 H2073 0.951 . S
C2092 C2090 1.388 . S
C2092 C2093 1.366 1_655 S
C2093 C2092 1.366 1_455 S
C2093 C2094 1.414 . S
C2093 C2096 1.499 . S
C2094 H2074 0.950 . S
C2094 C2093 1.414 . S
C2094 C2095 1.374 . S
C2095 H2075 0.950 . S
C2095 C2091 1.385 . S
C2095 C2094 1.374 . S
C2096 C2093 1.499 . S
C2096 C2097 1.373 . S
C2096 C2098 1.389 . S
C2097 H2076 0.950 1_455 S
C2097 C2096 1.373 . S
C2097 C2113 1.377 . S
C2098 C2096 1.389 . S
C2098 C2099 1.524 . S
C2098 C2112 1.377 . S
C2099 C2098 1.524 . S
C2099 C2100 1.397 . S
C2099 C2104 1.363 . S
C2100 H2077 0.950 . S
C2100 C2099 1.397 . S
C2100 C2101 1.334 . S
C2101 H2078 0.950 . S
C2101 C2100 1.334 . S
C2101 C2102 1.287 . S
C2102 C2101 1.287 . S
C2102 C2103 1.524 . S
C2102 H2121 0.913 . S
C2103 H2079 0.950 . S
C2103 C2102 1.524 . S
C2103 C2104 1.415 . S
C2104 H2080 0.950 . S
C2104 C2099 1.363 . S
C2104 C2103 1.415 . S
C2105 H2081 0.951 . S
C2105 C2106 1.366 . S
C2105 C2107 1.388 . S
C2106 C2105 1.366 . S
C2106 C2110 1.385 . S
C2107 H2082 0.951 . S
C2107 C2105 1.388 . S
C2107 C2108 1.366 . S
C2108 C2107 1.366 . S
C2108 C2109 1.414 . S
C2108 C2111 1.499 . S
C2109 H2083 0.950 1_455 S
C2109 C2108 1.414 . S
C2109 C2110 1.374 . S
C2110 H2084 0.950 1_455 S
C2110 C2106 1.385 . S
C2110 C2109 1.374 . S
C2111 C2108 1.499 . S
C2111 C2112 1.373 . S
C2111 C2113 1.389 . S
C2112 H2085 0.950 . S
C2112 C2098 1.377 . S
C2112 C2111 1.373 . S
C2113 C2097 1.377 . S
C2113 C2111 1.389 . S
C2113 C2114 1.524 1_455 S
C2114 C2113 1.524 1_655 S
C2114 C2115 1.397 . S
C2114 C2119 1.363 . S
C2115 H2086 0.950 . S
C2115 C2114 1.397 . S
C2115 C2116 1.334 . S
C2116 H2087 0.950 . S
C2116 C2115 1.334 . S
C2116 C2117 1.287 . S
C2117 C2116 1.287 . S
C2117 C2118 1.524 . S
C2117 H2120 0.999 . S
C2118 H2088 0.950 . S
C2118 C2117 1.524 . S
C2118 C2119 1.415 . S
C2119 H2089 0.950 1_655 S
C2119 C2114 1.363 . S
C2119 C2118 1.415 . S
H2120 C2117 0.999 . S
H2121 C2102 0.913 . S
H2122 C2140 0.951 . S
H2123 C2142 0.951 . S
H2124 C2144 0.950 . S
H2125 C2145 0.950 . S
H2126 C2147 0.950 . S
H2127 C2150 0.950 . S
H2128 C2151 0.950 . S
H2129 C2153 0.950 . S
H2130 C2154 0.950 . S
H2131 C2155 0.951 . S
H2132 C2157 0.951 . S
H2133 C2159 0.950 . S
H2134 C2160 0.950 . S
H2135 C2162 0.950 . S
H2136 C2165 0.950 . S
H2137 C2166 0.950 . S
H2138 C2168 0.950 . S
H2139 C2169 0.950 . S
C2140 H2122 0.951 . S
C2140 C2141 1.366 . S
C2140 C2142 1.388 . S
C2141 C2140 1.366 . S
C2141 C2145 1.385 . S
C2142 H2123 0.951 . S
C2142 C2140 1.388 . S
C2142 C2143 1.366 . S
C2143 C2142 1.366 . S
C2143 C2144 1.414 . S
C2143 C2146 1.499 . S
C2144 H2124 0.950 . S
C2144 C2143 1.414 . S
C2144 C2145 1.374 . S
C2145 H2125 0.950 . S
C2145 C2141 1.385 . S
C2145 C2144 1.374 . S
C2146 C2143 1.499 . S
C2146 C2147 1.373 . S
C2146 C2148 1.389 . S
C2147 H2126 0.950 . S
C2147 C2146 1.373 . S
C2147 C2163 1.377 . S
C2148 C2146 1.389 . S
C2148 C2149 1.524 . S
C2148 C2162 1.377 . S
C2149 C2148 1.524 . S
C2149 C2150 1.397 . S
C2149 C2154 1.363 . S
C2150 H2127 0.950 . S
C2150 C2149 1.397 . S
C2150 C2151 1.334 . S
C2151 H2128 0.950 . S
C2151 C2150 1.334 . S
C2151 C2152 1.287 . S
C2152 C2151 1.287 . S
C2152 C2153 1.524 . S
C2152 H2171 0.913 . S
C2153 H2129 0.950 . S
C2153 C2152 1.524 . S
C2153 C2154 1.415 . S
C2154 H2130 0.950 . S
C2154 C2149 1.363 . S
C2154 C2153 1.415 . S
C2155 H2131 0.951 . S
C2155 C2156 1.366 . S
C2155 C2157 1.388 . S
C2156 C2155 1.366 . S
C2156 C2160 1.385 . S
C2157 H2132 0.951 . S
C2157 C2155 1.388 . S
C2157 C2158 1.366 . S
C2158 C2157 1.366 . S
C2158 C2159 1.414 . S
C2158 C2161 1.499 . S
C2159 H2133 0.950 . S
C2159 C2158 1.414 . S
C2159 C2160 1.374 . S
C2160 H2134 0.950 . S
C2160 C2156 1.385 . S
C2160 C2159 1.374 . S
C2161 C2158 1.499 . S
C2161 C2162 1.373 . S
C2161 C2163 1.389 . S
C2162 H2135 0.950 . S
C2162 C2148 1.377 . S
C2162 C2161 1.373 . S
C2163 C2147 1.377 . S
C2163 C2161 1.389 . S
C2163 C2164 1.524 . S
C2164 C2163 1.524 . S
C2164 C2165 1.397 . S
C2164 C2169 1.363 . S
C2165 H2136 0.950 . S
C2165 C2164 1.397 . S
C2165 C2166 1.334 . S
C2166 H2137 0.950 . S
C2166 C2165 1.334 . S
C2166 C2167 1.287 . S
C2167 C2166 1.287 . S
C2167 C2168 1.524 . S
C2167 H2170 0.999 . S
C2168 H2138 0.950 . S
C2168 C2167 1.524 . S
C2168 C2169 1.415 . S
C2169 H2139 0.950 . S
C2169 C2164 1.363 . S
C2169 C2168 1.415 . S
H2170 C2167 0.999 . S
H2171 C2152 0.913 . S
H2172 C2190 0.951 . S
H2173 C2192 0.951 . S
H2174 C2194 0.950 . S
H2175 C2195 0.950 . S
H2176 C2197 0.950 . S
H2177 C2200 0.950 . S
H2178 C2201 0.950 . S
H2179 C2203 0.950 1_556 S
H2180 C2204 0.950 . S
H2181 C2205 0.951 . S
H2182 C2207 0.951 . S
H2183 C2209 0.950 . S
H2184 C2210 0.950 . S
H2185 C2212 0.950 . S
H2186 C2215 0.950 . S
H2187 C2216 0.950 . S
H2188 C2218 0.950 . S
H2189 C2219 0.950 . S
C2190 H2172 0.951 . S
C2190 C2191 1.366 . S
C2190 C2192 1.388 . S
C2191 C2190 1.366 . S
C2191 C2195 1.385 . S
C2192 H2173 0.951 . S
C2192 C2190 1.388 . S
C2192 C2193 1.366 . S
C2193 C2192 1.366 . S
C2193 C2194 1.414 . S
C2193 C2196 1.499 . S
C2194 H2174 0.950 . S
C2194 C2193 1.414 . S
C2194 C2195 1.374 . S
C2195 H2175 0.950 . S
C2195 C2191 1.385 . S
C2195 C2194 1.374 . S
C2196 C2193 1.499 . S
C2196 C2197 1.373 . S
C2196 C2198 1.389 . S
C2197 H2176 0.950 . S
C2197 C2196 1.373 . S
C2197 C2213 1.377 . S
C2198 C2196 1.389 . S
C2198 C2199 1.524 . S
C2198 C2212 1.377 . S
C2199 C2198 1.524 . S
C2199 C2200 1.397 . S
C2199 C2204 1.363 . S
C2200 H2177 0.950 . S
C2200 C2199 1.397 . S
C2200 C2201 1.334 . S
C2201 H2178 0.950 . S
C2201 C2200 1.334 . S
C2201 C2202 1.287 . S
C2202 C2201 1.287 . S
C2202 C2203 1.524 . S
C2202 H2221 0.913 . S
C2203 H2179 0.950 1_554 S
C2203 C2202 1.524 . S
C2203 C2204 1.415 . S
C2204 H2180 0.950 . S
C2204 C2199 1.363 . S
C2204 C2203 1.415 . S
C2205 H2181 0.951 . S
C2205 C2206 1.366 . S
C2205 C2207 1.388 . S
C2206 C2205 1.366 . S
C2206 C2210 1.385 . S
C2207 H2182 0.951 . S
C2207 C2205 1.388 . S
C2207 C2208 1.366 . S
C2208 C2207 1.366 . S
C2208 C2209 1.414 . S
C2208 C2211 1.499 . S
C2209 H2183 0.950 . S
C2209 C2208 1.414 . S
C2209 C2210 1.374 . S
C2210 H2184 0.950 . S
C2210 C2206 1.385 . S
C2210 C2209 1.374 . S
C2211 C2208 1.499 . S
C2211 C2212 1.373 . S
C2211 C2213 1.389 . S
C2212 H2185 0.950 . S
C2212 C2198 1.377 . S
C2212 C2211 1.373 . S
C2213 C2197 1.377 . S
C2213 C2211 1.389 . S
C2213 C2214 1.524 . S
C2214 C2213 1.524 . S
C2214 C2215 1.397 . S
C2214 C2219 1.363 . S
C2215 H2186 0.950 . S
C2215 C2214 1.397 . S
C2215 C2216 1.334 . S
C2216 H2187 0.950 . S
C2216 C2215 1.334 . S
C2216 C2217 1.287 . S
C2217 C2216 1.287 . S
C2217 C2218 1.524 . S
C2217 H2220 0.999 . S
C2218 H2188 0.950 . S
C2218 C2217 1.524 . S
C2218 C2219 1.415 . S
C2219 H2189 0.950 . S
C2219 C2214 1.363 . S
C2219 C2218 1.415 . S
H2220 C2217 0.999 . S
H2221 C2202 0.913 . S
H2222 C2240 0.951 . S
H2223 C2242 0.951 . S
H2224 C2244 0.950 . S
H2225 C2245 0.950 . S
H2226 C2247 0.950 . S
H2227 C2250 0.950 . S
H2228 C2251 0.950 . S
H2229 C2253 0.950 . S
H2230 C2254 0.950 . S
H2231 C2255 0.951 . S
H2232 C2257 0.951 . S
H2233 C2259 0.950 . S
H2234 C2260 0.950 . S
H2235 C2262 0.950 . S
H2236 C2265 0.950 . S
H2237 C2266 0.950 . S
H2238 C2268 0.950 . S
H2239 C2269 0.950 . S
C2240 H2222 0.951 . S
C2240 C2241 1.366 . S
C2240 C2242 1.388 . S
C2241 C2240 1.366 . S
C2241 C2245 1.385 . S
C2242 H2223 0.951 . S
C2242 C2240 1.388 . S
C2242 C2243 1.366 . S
C2243 C2242 1.366 . S
C2243 C2244 1.414 . S
C2243 C2246 1.499 . S
C2244 H2224 0.950 . S
C2244 C2243 1.414 . S
C2244 C2245 1.374 . S
C2245 H2225 0.950 . S
C2245 C2241 1.385 . S
C2245 C2244 1.374 . S
C2246 C2243 1.499 . S
C2246 C2247 1.373 . S
C2246 C2248 1.389 . S
C2247 H2226 0.950 . S
C2247 C2246 1.373 . S
C2247 C2263 1.377 . S
C2248 C2246 1.389 . S
C2248 C2249 1.524 . S
C2248 C2262 1.377 . S
C2249 C2248 1.524 . S
C2249 C2250 1.397 . S
C2249 C2254 1.363 . S
C2250 H2227 0.950 . S
C2250 C2249 1.397 . S
C2250 C2251 1.334 . S
C2251 H2228 0.950 . S
C2251 C2250 1.334 . S
C2251 C2252 1.287 . S
C2252 C2251 1.287 . S
C2252 C2253 1.524 . S
C2252 H2271 0.913 . S
C2253 H2229 0.950 . S
C2253 C2252 1.524 . S
C2253 C2254 1.415 . S
C2254 H2230 0.950 . S
C2254 C2249 1.363 . S
C2254 C2253 1.415 . S
C2255 H2231 0.951 . S
C2255 C2256 1.366 . S
C2255 C2257 1.388 . S
C2256 C2255 1.366 . S
C2256 C2260 1.385 . S
C2257 H2232 0.951 . S
C2257 C2255 1.388 . S
C2257 C2258 1.366 . S
C2258 C2257 1.366 . S
C2258 C2259 1.414 . S
C2258 C2261 1.499 . S
C2259 H2233 0.950 . S
C2259 C2258 1.414 . S
C2259 C2260 1.374 . S
C2260 H2234 0.950 . S
C2260 C2256 1.385 . S
C2260 C2259 1.374 . S
C2261 C2258 1.499 . S
C2261 C2262 1.373 . S
C2261 C2263 1.389 . S
C2262 H2235 0.950 . S
C2262 C2248 1.377 . S
C2262 C2261 1.373 . S
C2263 C2247 1.377 . S
C2263 C2261 1.389 . S
C2263 C2264 1.524 . S
C2264 C2263 1.524 . S
C2264 C2265 1.397 . S
C2264 C2269 1.363 . S
C2265 H2236 0.950 . S
C2265 C2264 1.397 . S
C2265 C2266 1.334 . S
C2266 H2237 0.950 . S
C2266 C2265 1.334 . S
C2266 C2267 1.287 . S
C2267 C2266 1.287 . S
C2267 C2268 1.524 . S
C2267 H2270 0.999 . S
C2268 H2238 0.950 . S
C2268 C2267 1.524 . S
C2268 C2269 1.415 . S
C2269 H2239 0.950 . S
C2269 C2264 1.363 . S
C2269 C2268 1.415 . S
H2270 C2267 0.999 . S
H2271 C2252 0.913 . S
H2272 C2290 0.951 . S
H2273 C2292 0.951 . S
H2274 C2294 0.950 . S
H2275 C2295 0.950 . S
H2276 C2297 0.950 . S
H2277 C2300 0.950 . S
H2278 C2301 0.950 . S
H2279 C2303 0.950 . S
H2280 C2304 0.950 . S
H2281 C2305 0.951 . S
H2282 C2307 0.951 . S
H2283 C2309 0.950 . S
H2284 C2310 0.950 . S
H2285 C2312 0.950 . S
H2286 C2315 0.950 . S
H2287 C2316 0.950 . S
H2288 C2318 0.950 . S
H2289 C2319 0.950 . S
C2290 H2272 0.951 . S
C2290 C2291 1.366 . S
C2290 C2292 1.388 . S
C2291 C2290 1.366 . S
C2291 C2295 1.385 1_565 S
C2292 H2273 0.951 . S
C2292 C2290 1.388 . S
C2292 C2293 1.366 1_565 S
C2293 C2292 1.366 1_545 S
C2293 C2294 1.414 . S
C2293 C2296 1.499 . S
C2294 H2274 0.950 . S
C2294 C2293 1.414 . S
C2294 C2295 1.374 . S
C2295 H2275 0.950 . S
C2295 C2291 1.385 1_545 S
C2295 C2294 1.374 . S
C2296 C2293 1.499 . S
C2296 C2297 1.373 . S
C2296 C2298 1.389 . S
C2297 H2276 0.950 . S
C2297 C2296 1.373 . S
C2297 C2313 1.377 . S
C2298 C2296 1.389 . S
C2298 C2299 1.524 . S
C2298 C2312 1.377 . S
C2299 C2298 1.524 . S
C2299 C2300 1.397 . S
C2299 C2304 1.363 1_545 S
C2300 H2277 0.950 . S
C2300 C2299 1.397 . S
C2300 C2301 1.334 . S
C2301 H2278 0.950 . S
C2301 C2300 1.334 . S
C2301 C2302 1.287 . S
C2302 C2301 1.287 . S
C2302 C2303 1.524 1_545 S
C2302 H2321 0.913 . S
C2303 H2279 0.950 . S
C2303 C2302 1.524 1_565 S
C2303 C2304 1.415 . S
C2304 H2280 0.950 . S
C2304 C2299 1.363 1_565 S
C2304 C2303 1.415 . S
C2305 H2281 0.951 . S
C2305 C2306 1.366 . S
C2305 C2307 1.388 . S
C2306 C2305 1.366 . S
C2306 C2310 1.385 1_545 S
C2307 H2282 0.951 . S
C2307 C2305 1.388 . S
C2307 C2308 1.366 . S
C2308 C2307 1.366 . S
C2308 C2309 1.414 1_545 S
C2308 C2311 1.499 . S
C2309 H2283 0.950 . S
C2309 C2308 1.414 1_565 S
C2309 C2310 1.374 . S
C2310 H2284 0.950 . S
C2310 C2306 1.385 1_565 S
C2310 C2309 1.374 . S
C2311 C2308 1.499 . S
C2311 C2312 1.373 . S
C2311 C2313 1.389 . S
C2312 H2285 0.950 . S
C2312 C2298 1.377 . S
C2312 C2311 1.373 . S
C2313 C2297 1.377 . S
C2313 C2311 1.389 . S
C2313 C2314 1.527 . S
C2314 C2313 1.527 . S
C2314 C2315 1.384 1_545 S
C2314 C2319 1.372 . S
C2315 H2286 0.950 . S
C2315 C2314 1.384 1_565 S
C2315 C2316 1.334 1_655 S
C2316 H2287 0.950 . S
C2316 C2315 1.334 1_455 S
C2316 C2317 1.287 . S
C2317 C2316 1.287 . S
C2317 C2318 1.524 1_565 S
C2317 H2320 0.999 . S
C2318 H2288 0.950 . S
C2318 C2317 1.524 1_545 S
C2318 C2319 1.415 1_455 S
C2319 H2289 0.950 . S
C2319 C2314 1.372 . S
C2319 C2318 1.415 1_655 S
H2320 C2317 0.999 . S
H2321 C2302 0.913 . S
H2322 C2340 0.951 . S
H2323 C2342 0.951 . S
H2324 C2344 0.950 . S
H2325 C2345 0.950 . S
H2326 C2347 0.950 . S
H2327 C2350 0.950 . S
H2328 C2351 0.950 . S
H2329 C2353 0.950 . S
H2330 C2354 0.950 . S
H2331 C2355 0.951 . S
H2332 C2357 0.951 . S
H2333 C2359 0.950 . S
H2334 C2360 0.950 . S
H2335 C2362 0.950 . S
H2336 C2365 0.950 . S
H2337 C2366 0.950 . S
H2338 C2368 0.950 . S
H2339 C2369 0.950 . S
C2340 H2322 0.951 . S
C2340 C2341 1.366 . S
C2340 C2342 1.388 . S
C2341 C2340 1.366 . S
C2341 C2345 1.385 . S
C2342 H2323 0.951 . S
C2342 C2340 1.388 . S
C2342 C2343 1.366 . S
C2343 C2342 1.366 . S
C2343 C2344 1.414 . S
C2343 C2346 1.499 . S
C2344 H2324 0.950 . S
C2344 C2343 1.414 . S
C2344 C2345 1.374 . S
C2345 H2325 0.950 . S
C2345 C2341 1.385 . S
C2345 C2344 1.374 . S
C2346 C2343 1.499 . S
C2346 C2347 1.373 . S
C2346 C2348 1.389 . S
C2347 H2326 0.950 . S
C2347 C2346 1.373 . S
C2347 C2363 1.377 . S
C2348 C2346 1.389 . S
C2348 C2349 1.524 . S
C2348 C2362 1.377 . S
C2349 C2348 1.524 . S
C2349 C2350 1.397 . S
C2349 C2354 1.363 . S
C2350 H2327 0.950 . S
C2350 C2349 1.397 . S
C2350 C2351 1.334 . S
C2351 H2328 0.950 . S
C2351 C2350 1.334 . S
C2351 C2352 1.287 . S
C2352 C2351 1.287 . S
C2352 C2353 1.524 . S
C2352 H2371 0.913 . S
C2353 H2329 0.950 . S
C2353 C2352 1.524 . S
C2353 C2354 1.415 . S
C2354 H2330 0.950 . S
C2354 C2349 1.363 . S
C2354 C2353 1.415 . S
C2355 H2331 0.951 . S
C2355 C2356 1.366 . S
C2355 C2357 1.388 . S
C2356 C2355 1.366 . S
C2356 C2360 1.385 . S
C2357 H2332 0.951 . S
C2357 C2355 1.388 . S
C2357 C2358 1.366 . S
C2358 C2357 1.366 . S
C2358 C2359 1.414 . S
C2358 C2361 1.499 . S
C2359 H2333 0.950 . S
C2359 C2358 1.414 . S
C2359 C2360 1.374 . S
C2360 H2334 0.950 . S
C2360 C2356 1.385 . S
C2360 C2359 1.374 . S
C2361 C2358 1.499 . S
C2361 C2362 1.373 . S
C2361 C2363 1.389 . S
C2362 H2335 0.950 . S
C2362 C2348 1.377 . S
C2362 C2361 1.373 . S
C2363 C2347 1.377 . S
C2363 C2361 1.389 . S
C2363 C2364 1.524 . S
C2364 C2363 1.524 . S
C2364 C2365 1.397 . S
C2364 C2369 1.363 . S
C2365 H2336 0.950 . S
C2365 C2364 1.397 . S
C2365 C2366 1.334 . S
C2366 H2337 0.950 . S
C2366 C2365 1.334 . S
C2366 C2367 1.287 . S
C2367 C2366 1.287 . S
C2367 C2368 1.524 . S
C2367 H2370 0.999 . S
C2368 H2338 0.950 . S
C2368 C2367 1.524 . S
C2368 C2369 1.415 . S
C2369 H2339 0.950 . S
C2369 C2364 1.363 . S
C2369 C2368 1.415 . S
H2370 C2367 0.999 . S
H2371 C2352 0.913 . S
H2372 C2390 0.951 . S
H2373 C2392 0.951 . S
H2374 C2394 0.950 . S
H2375 C2395 0.950 . S
H2376 C2397 0.950 . S
H2377 C2400 0.950 . S
H2378 C2401 0.950 . S
H2379 C2403 0.950 . S
H2380 C2404 0.950 . S
H2381 C2405 0.951 . S
H2382 C2407 0.951 . S
H2383 C2409 0.947 1_565 S
H2384 C2410 0.954 . S
H2385 C2412 0.950 . S
H2386 C2415 0.950 . S
H2387 C2416 0.950 . S
H2388 C2418 0.950 . S
H2389 C2419 0.950 . S
C2390 H2372 0.951 . S
C2390 C2391 1.366 . S
C2390 C2392 1.388 . S
C2391 C2390 1.366 . S
C2391 C2395 1.385 . S
C2392 H2373 0.951 . S
C2392 C2390 1.388 . S
C2392 C2393 1.366 . S
C2393 C2392 1.366 . S
C2393 C2394 1.414 . S
C2393 C2396 1.499 . S
C2394 H2374 0.950 . S
C2394 C2393 1.414 . S
C2394 C2395 1.374 . S
C2395 H2375 0.950 . S
C2395 C2391 1.385 . S
C2395 C2394 1.374 . S
C2396 C2393 1.499 . S
C2396 C2397 1.373 . S
C2396 C2398 1.389 1_545 S
C2397 H2376 0.950 . S
C2397 C2396 1.373 . S
C2397 C2413 1.377 . S
C2398 C2396 1.389 1_565 S
C2398 C2399 1.524 . S
C2398 C2412 1.377 . S
C2399 C2398 1.524 . S
C2399 C2400 1.397 . S
C2399 C2404 1.363 . S
C2400 H2377 0.950 . S
C2400 C2399 1.397 . S
C2400 C2401 1.334 . S
C2401 H2378 0.950 . S
C2401 C2400 1.334 . S
C2401 C2402 1.287 . S
C2402 C2401 1.287 . S
C2402 C2403 1.524 . S
C2402 H2421 0.913 . S
C2403 H2379 0.950 . S
C2403 C2402 1.524 . S
C2403 C2404 1.415 . S
C2404 H2380 0.950 . S
C2404 C2399 1.363 . S
C2404 C2403 1.415 . S
C2405 H2381 0.951 . S
C2405 C2406 1.366 . S
C2405 C2407 1.388 . S
C2406 C2405 1.366 . S
C2406 C2410 1.381 1_545 S
C2407 H2382 0.951 . S
C2407 C2405 1.388 . S
C2407 C2408 1.366 . S
C2408 C2407 1.366 . S
C2408 C2409 1.419 . S
C2408 C2411 1.499 . S
C2409 H2383 0.947 1_545 S
C2409 C2408 1.419 . S
C2409 C2410 1.373 1_545 S
C2410 H2384 0.954 . S
C2410 C2406 1.381 1_565 S
C2410 C2409 1.373 1_565 S
C2411 C2408 1.499 . S
C2411 C2412 1.373 1_545 S
C2411 C2413 1.389 . S
C2412 H2385 0.950 . S
C2412 C2398 1.377 . S
C2412 C2411 1.373 1_565 S
C2413 C2397 1.377 . S
C2413 C2411 1.389 . S
C2413 C2414 1.524 . S
C2414 C2413 1.524 . S
C2414 C2415 1.397 . S
C2414 C2419 1.363 . S
C2415 H2386 0.950 . S
C2415 C2414 1.397 . S
C2415 C2416 1.334 . S
C2416 H2387 0.950 . S
C2416 C2415 1.334 . S
C2416 C2417 1.287 . S
C2417 C2416 1.287 . S
C2417 C2418 1.524 . S
C2417 H2420 0.999 . S
C2418 H2388 0.950 . S
C2418 C2417 1.524 . S
C2418 C2419 1.415 . S
C2419 H2389 0.950 . S
C2419 C2414 1.363 . S
C2419 C2418 1.415 . S
H2420 C2417 0.999 . S
H2421 C2402 0.913 . S
H2422 C2440 0.951 . S
H2423 C2442 0.951 . S
H2424 C2444 0.950 . S
H2425 C2445 0.950 . S
H2426 C2447 0.950 . S
H2427 C2450 0.950 . S
H2428 C2451 0.950 . S
H2429 C2453 0.950 . S
H2430 C2454 0.950 . S
H2431 C2455 0.951 . S
H2432 C2457 0.951 . S
H2433 C2459 0.950 . S
H2434 C2460 0.950 . S
H2435 C2462 0.950 . S
H2436 C2465 0.950 . S
H2437 C2466 0.950 . S
H2438 C2468 0.950 . S
H2439 C2469 0.950 . S
C2440 H2422 0.951 . S
C2440 C2441 1.366 . S
C2440 C2442 1.388 . S
C2441 C2440 1.366 . S
C2441 C2445 1.385 . S
C2442 H2423 0.951 . S
C2442 C2440 1.388 . S
C2442 C2443 1.366 . S
C2443 C2442 1.366 . S
C2443 C2444 1.414 . S
C2443 C2446 1.499 . S
C2444 H2424 0.950 . S
C2444 C2443 1.414 . S
C2444 C2445 1.374 . S
C2445 H2425 0.950 . S
C2445 C2441 1.385 . S
C2445 C2444 1.374 . S
C2446 C2443 1.499 . S
C2446 C2447 1.373 . S
C2446 C2448 1.389 . S
C2447 H2426 0.950 . S
C2447 C2446 1.373 . S
C2447 C2463 1.377 . S
C2448 C2446 1.389 . S
C2448 C2449 1.524 . S
C2448 C2462 1.377 . S
C2449 C2448 1.524 . S
C2449 C2450 1.397 . S
C2449 C2454 1.363 . S
C2450 H2427 0.950 . S
C2450 C2449 1.397 . S
C2450 C2451 1.334 . S
C2451 H2428 0.950 . S
C2451 C2450 1.334 . S
C2451 C2452 1.287 . S
C2452 C2451 1.287 . S
C2452 C2453 1.524 . S
C2452 H2471 0.913 . S
C2453 H2429 0.950 . S
C2453 C2452 1.524 . S
C2453 C2454 1.415 . S
C2454 H2430 0.950 . S
C2454 C2449 1.363 . S
C2454 C2453 1.415 . S
C2455 H2431 0.951 . S
C2455 C2456 1.366 . S
C2455 C2457 1.388 . S
C2456 C2455 1.366 . S
C2456 C2460 1.385 . S
C2457 H2432 0.951 . S
C2457 C2455 1.388 . S
C2457 C2458 1.366 . S
C2458 C2457 1.366 . S
C2458 C2459 1.414 . S
C2458 C2461 1.499 . S
C2459 H2433 0.950 . S
C2459 C2458 1.414 . S
C2459 C2460 1.374 . S
C2460 H2434 0.950 . S
C2460 C2456 1.385 . S
C2460 C2459 1.374 . S
C2461 C2458 1.499 . S
C2461 C2462 1.373 . S
C2461 C2463 1.389 . S
C2462 H2435 0.950 . S
C2462 C2448 1.377 . S
C2462 C2461 1.373 . S
C2463 C2447 1.377 . S
C2463 C2461 1.389 . S
C2463 C2464 1.524 . S
C2464 C2463 1.524 . S
C2464 C2465 1.397 . S
C2464 C2469 1.363 . S
C2465 H2436 0.950 . S
C2465 C2464 1.397 . S
C2465 C2466 1.334 . S
C2466 H2437 0.950 . S
C2466 C2465 1.334 . S
C2466 C2467 1.287 . S
C2467 C2466 1.287 . S
C2467 C2468 1.524 . S
C2467 H2470 0.999 . S
C2468 H2438 0.950 . S
C2468 C2467 1.524 . S
C2468 C2469 1.415 . S
C2469 H2439 0.950 . S
C2469 C2464 1.363 . S
C2469 C2468 1.415 . S
H2470 C2467 0.999 . S
H2471 C2452 0.913 . S
H2472 C2490 0.951 . S
H2473 C2492 0.951 . S
H2474 C2494 0.950 . S
H2475 C2495 0.950 . S
H2476 C2497 0.950 . S
H2477 C2500 0.950 . S
H2478 C2501 0.950 . S
H2479 C2503 0.950 . S
H2480 C2504 0.950 . S
H2481 C2505 0.951 . S
H2482 C2507 0.951 . S
H2483 C2509 0.950 . S
H2484 C2510 0.973 . S
H2485 C2512 0.950 . S
H2486 C2515 0.950 . S
H2487 C2516 0.950 . S
H2488 C2518 0.950 . S
H2489 C2519 0.950 . S
C2490 H2472 0.951 . S
C2490 C2491 1.365 . S
C2490 C2492 1.388 . S
C2491 C2490 1.365 . S
C2491 C2495 1.385 1_545 S
C2492 H2473 0.951 . S
C2492 C2490 1.388 . S
C2492 C2493 1.351 1_545 S
C2493 C2492 1.351 1_565 S
C2493 C2494 1.429 . S
C2493 C2496 1.502 . S
C2494 H2474 0.950 . S
C2494 C2493 1.429 . S
C2494 C2495 1.374 . S
C2495 H2475 0.950 . S
C2495 C2491 1.385 1_565 S
C2495 C2494 1.374 . S
C2496 C2493 1.502 . S
C2496 C2497 1.373 . S
C2496 C2498 1.389 1_565 S
C2497 H2476 0.950 . S
C2497 C2496 1.373 . S
C2497 C2513 1.377 . S
C2498 C2496 1.389 1_545 S
C2498 C2499 1.524 . S
C2498 C2512 1.377 . S
C2499 C2498 1.524 . S
C2499 C2500 1.397 . S
C2499 C2504 1.363 . S
C2500 H2477 0.950 . S
C2500 C2499 1.397 . S
C2500 C2501 1.334 . S
C2501 H2478 0.950 . S
C2501 C2500 1.334 . S
C2501 C2502 1.287 . S
C2502 C2501 1.287 . S
C2502 C2503 1.524 . S
C2502 H2521 0.913 . S
C2503 H2479 0.950 . S
C2503 C2502 1.524 . S
C2503 C2504 1.415 . S
C2504 H2480 0.950 . S
C2504 C2499 1.363 . S
C2504 C2503 1.415 . S
C2505 H2481 0.951 . S
C2505 C2506 1.366 . S
C2505 C2507 1.388 . S
C2506 C2505 1.366 . S
C2506 C2510 1.377 1_565 S
C2507 H2482 0.951 . S
C2507 C2505 1.388 . S
C2507 C2508 1.366 . S
C2508 C2507 1.366 . S
C2508 C2509 1.414 1_565 S
C2508 C2511 1.499 . S
C2509 H2483 0.950 . S
C2509 C2508 1.414 1_545 S
C2509 C2510 1.375 . S
C2510 H2484 0.973 . S
C2510 C2506 1.377 1_545 S
C2510 C2509 1.375 . S
C2511 C2508 1.499 . S
C2511 C2512 1.373 1_565 S
C2511 C2513 1.389 . S
C2512 H2485 0.950 . S
C2512 C2498 1.377 . S
C2512 C2511 1.373 1_545 S
C2513 C2497 1.377 . S
C2513 C2511 1.389 . S
C2513 C2514 1.524 . S
C2514 C2513 1.524 . S
C2514 C2515 1.397 . S
C2514 C2519 1.363 . S
C2515 H2486 0.950 . S
C2515 C2514 1.397 . S
C2515 C2516 1.334 . S
C2516 H2487 0.950 . S
C2516 C2515 1.334 . S
C2516 C2517 1.287 . S
C2517 C2516 1.287 . S
C2517 C2518 1.524 . S
C2517 H2520 0.999 . S
C2518 H2488 0.950 . S
C2518 C2517 1.524 . S
C2518 C2519 1.415 . S
C2519 H2489 0.950 . S
C2519 C2514 1.363 . S
C2519 C2518 1.415 . S
H2520 C2517 0.999 . S
H2521 C2502 0.913 . S
H2522 C2540 0.951 . S
H2523 C2542 0.951 . S
H2524 C2544 0.950 . S
H2525 C2545 0.950 . S
H2526 C2547 0.950 . S
H2527 C2550 0.950 . S
H2528 C2551 0.950 . S
H2529 C2553 0.950 . S
H2530 C2554 0.950 . S
H2531 C2555 0.951 . S
H2532 C2557 0.951 . S
H2533 C2559 0.950 . S
H2534 C2560 0.950 . S
H2535 C2562 0.950 . S
H2536 C2565 0.950 . S
H2537 C2566 0.950 . S
H2538 C2568 0.950 . S
H2539 C2569 0.950 . S
C2540 H2522 0.951 . S
C2540 C2541 1.366 . S
C2540 C2542 1.388 . S
C2541 C2540 1.366 . S
C2541 C2545 1.385 . S
C2542 H2523 0.951 . S
C2542 C2540 1.388 . S
C2542 C2543 1.366 . S
C2543 C2542 1.366 . S
C2543 C2544 1.414 . S
C2543 C2546 1.499 . S
C2544 H2524 0.950 . S
C2544 C2543 1.414 . S
C2544 C2545 1.374 . S
C2545 H2525 0.950 . S
C2545 C2541 1.385 . S
C2545 C2544 1.374 . S
C2546 C2543 1.499 . S
C2546 C2547 1.373 . S
C2546 C2548 1.389 . S
C2547 H2526 0.950 . S
C2547 C2546 1.373 . S
C2547 C2563 1.377 . S
C2548 C2546 1.389 . S
C2548 C2549 1.524 . S
C2548 C2562 1.377 . S
C2549 C2548 1.524 . S
C2549 C2550 1.397 . S
C2549 C2554 1.363 . S
C2550 H2527 0.950 . S
C2550 C2549 1.397 . S
C2550 C2551 1.334 . S
C2551 H2528 0.950 . S
C2551 C2550 1.334 . S
C2551 C2552 1.287 . S
C2552 C2551 1.287 . S
C2552 C2553 1.524 . S
C2552 H2571 0.913 . S
C2553 H2529 0.950 . S
C2553 C2552 1.524 . S
C2553 C2554 1.415 . S
C2554 H2530 0.950 . S
C2554 C2549 1.363 . S
C2554 C2553 1.415 . S
C2555 H2531 0.951 . S
C2555 C2556 1.366 . S
C2555 C2557 1.388 . S
C2556 C2555 1.366 . S
C2556 C2560 1.385 . S
C2557 H2532 0.951 . S
C2557 C2555 1.388 . S
C2557 C2558 1.366 . S
C2558 C2557 1.366 . S
C2558 C2559 1.414 . S
C2558 C2561 1.499 . S
C2559 H2533 0.950 . S
C2559 C2558 1.414 . S
C2559 C2560 1.374 . S
C2560 H2534 0.950 . S
C2560 C2556 1.385 . S
C2560 C2559 1.374 . S
C2561 C2558 1.499 . S
C2561 C2562 1.373 . S
C2561 C2563 1.389 . S
C2562 H2535 0.950 . S
C2562 C2548 1.377 . S
C2562 C2561 1.373 . S
C2563 C2547 1.377 . S
C2563 C2561 1.389 . S
C2563 C2564 1.524 . S
C2564 C2563 1.524 . S
C2564 C2565 1.397 . S
C2564 C2569 1.363 . S
C2565 H2536 0.950 . S
C2565 C2564 1.397 . S
C2565 C2566 1.334 . S
C2566 H2537 0.950 . S
C2566 C2565 1.334 . S
C2566 C2567 1.287 . S
C2567 C2566 1.287 . S
C2567 C2568 1.524 . S
C2567 H2570 0.999 . S
C2568 H2538 0.950 . S
C2568 C2567 1.524 . S
C2568 C2569 1.415 . S
C2569 H2539 0.950 . S
C2569 C2564 1.363 . S
C2569 C2568 1.415 . S
H2570 C2567 0.999 . S
H2571 C2552 0.913 . S
H2572 C2590 0.951 . S
H2573 C2592 0.951 . S
H2574 C2594 0.949 1_565 S
H2575 C2595 0.950 . S
H2576 C2597 0.950 . S
H2577 C2600 0.950 . S
H2578 C2601 0.950 . S
H2579 C2603 0.950 . S
H2580 C2604 0.950 . S
H2581 C2605 0.951 . S
H2582 C2607 0.964 . S
H2583 C2609 0.950 . S
H2584 C2610 0.950 . S
H2585 C2612 0.950 . S
H2586 C2615 0.950 . S
H2587 C2616 0.950 . S
H2588 C2618 0.950 . S
H2589 C2619 0.950 . S
C2590 H2572 0.951 . S
C2590 C2591 1.366 . S
C2590 C2592 1.388 . S
C2591 C2590 1.366 . S
C2591 C2595 1.385 1_545 S
C2592 H2573 0.951 . S
C2592 C2590 1.388 . S
C2592 C2593 1.366 . S
C2593 C2592 1.366 . S
C2593 C2594 1.416 . S
C2593 C2596 1.499 . S
C2594 H2574 0.949 1_545 S
C2594 C2593 1.416 . S
C2594 C2595 1.373 1_545 S
C2595 H2575 0.950 . S
C2595 C2591 1.385 1_565 S
C2595 C2594 1.373 1_565 S
C2596 C2593 1.499 . S
C2596 C2597 1.373 1_545 S
C2596 C2598 1.389 . S
C2597 H2576 0.950 . S
C2597 C2596 1.373 1_565 S
C2597 C2613 1.377 . S
C2598 C2596 1.389 . S
C2598 C2599 1.524 . S
C2598 C2612 1.377 . S
C2599 C2598 1.524 . S
C2599 C2600 1.397 . S
C2599 C2604 1.363 . S
C2600 H2577 0.950 . S
C2600 C2599 1.397 . S
C2600 C2601 1.334 . S
C2601 H2578 0.950 . S
C2601 C2600 1.334 . S
C2601 C2602 1.287 . S
C2602 C2601 1.287 . S
C2602 C2603 1.524 . S
C2602 H2621 0.913 . S
C2603 H2579 0.950 . S
C2603 C2602 1.524 . S
C2603 C2604 1.415 . S
C2604 H2580 0.950 . S
C2604 C2599 1.363 . S
C2604 C2603 1.415 . S
C2605 H2581 0.951 . S
C2605 C2606 1.366 . S
C2605 C2607 1.388 . S
C2606 C2605 1.366 . S
C2606 C2610 1.385 . S
C2607 H2582 0.964 . S
C2607 C2605 1.388 . S
C2607 C2608 1.366 . S
C2608 C2607 1.366 . S
C2608 C2609 1.414 . S
C2608 C2611 1.499 . S
C2609 H2583 0.950 . S
C2609 C2608 1.414 . S
C2609 C2610 1.374 . S
C2610 H2584 0.950 . S
C2610 C2606 1.385 . S
C2610 C2609 1.374 . S
C2611 C2608 1.499 . S
C2611 C2612 1.373 . S
C2611 C2613 1.389 1_545 S
C2612 H2585 0.950 . S
C2612 C2598 1.377 . S
C2612 C2611 1.373 . S
C2613 C2597 1.377 . S
C2613 C2611 1.389 1_565 S
C2613 C2614 1.524 . S
C2614 C2613 1.524 . S
C2614 C2615 1.397 . S
C2614 C2619 1.363 . S
C2615 H2586 0.950 . S
C2615 C2614 1.397 . S
C2615 C2616 1.334 . S
C2616 H2587 0.950 . S
C2616 C2615 1.334 . S
C2616 C2617 1.287 . S
C2617 C2616 1.287 . S
C2617 C2618 1.524 . S
C2617 H2620 0.999 . S
C2618 H2588 0.950 . S
C2618 C2617 1.524 . S
C2618 C2619 1.415 . S
C2619 H2589 0.950 . S
C2619 C2614 1.363 . S
C2619 C2618 1.415 . S
H2620 C2617 0.999 . S
H2621 C2602 0.913 . S
H2622 C2640 0.951 . S
H2623 C2642 0.951 . S
H2624 C2644 0.950 . S
H2625 C2645 0.950 . S
H2626 C2647 0.950 . S
H2627 C2650 0.950 . S
H2628 C2651 0.950 . S
H2629 C2653 0.950 . S
H2630 C2654 0.950 . S
H2631 C2655 0.951 . S
H2632 C2657 0.951 . S
H2633 C2659 0.950 . S
H2634 C2660 0.950 . S
H2635 C2662 0.950 . S
H2636 C2665 0.950 . S
H2637 C2666 0.950 . S
H2638 C2668 0.950 . S
H2639 C2669 0.950 . S
C2640 H2622 0.951 . S
C2640 C2641 1.366 . S
C2640 C2642 1.388 . S
C2641 C2640 1.366 . S
C2641 C2645 1.385 . S
C2642 H2623 0.951 . S
C2642 C2640 1.388 . S
C2642 C2643 1.366 . S
C2643 C2642 1.366 . S
C2643 C2644 1.414 . S
C2643 C2646 1.499 . S
C2644 H2624 0.950 . S
C2644 C2643 1.414 . S
C2644 C2645 1.374 . S
C2645 H2625 0.950 . S
C2645 C2641 1.385 . S
C2645 C2644 1.374 . S
C2646 C2643 1.499 . S
C2646 C2647 1.373 . S
C2646 C2648 1.389 . S
C2647 H2626 0.950 . S
C2647 C2646 1.373 . S
C2647 C2663 1.377 . S
C2648 C2646 1.389 . S
C2648 C2649 1.524 . S
C2648 C2662 1.377 . S
C2649 C2648 1.524 . S
C2649 C2650 1.397 . S
C2649 C2654 1.363 . S
C2650 H2627 0.950 . S
C2650 C2649 1.397 . S
C2650 C2651 1.334 . S
C2651 H2628 0.950 . S
C2651 C2650 1.334 . S
C2651 C2652 1.287 . S
C2652 C2651 1.287 . S
C2652 C2653 1.524 . S
C2652 H2671 0.913 . S
C2653 H2629 0.950 . S
C2653 C2652 1.524 . S
C2653 C2654 1.415 . S
C2654 H2630 0.950 . S
C2654 C2649 1.363 . S
C2654 C2653 1.415 . S
C2655 H2631 0.951 . S
C2655 C2656 1.366 . S
C2655 C2657 1.388 . S
C2656 C2655 1.366 . S
C2656 C2660 1.385 . S
C2657 H2632 0.951 . S
C2657 C2655 1.388 . S
C2657 C2658 1.366 . S
C2658 C2657 1.366 . S
C2658 C2659 1.414 . S
C2658 C2661 1.499 . S
C2659 H2633 0.950 . S
C2659 C2658 1.414 . S
C2659 C2660 1.374 . S
C2660 H2634 0.950 . S
C2660 C2656 1.385 . S
C2660 C2659 1.374 . S
C2661 C2658 1.499 . S
C2661 C2662 1.373 . S
C2661 C2663 1.389 . S
C2662 H2635 0.950 . S
C2662 C2648 1.377 . S
C2662 C2661 1.373 . S
C2663 C2647 1.377 . S
C2663 C2661 1.389 . S
C2663 C2664 1.524 . S
C2664 C2663 1.524 . S
C2664 C2665 1.397 . S
C2664 C2669 1.363 . S
C2665 H2636 0.950 . S
C2665 C2664 1.397 . S
C2665 C2666 1.334 . S
C2666 H2637 0.950 . S
C2666 C2665 1.334 . S
C2666 C2667 1.287 . S
C2667 C2666 1.287 . S
C2667 C2668 1.524 . S
C2667 H2670 0.999 . S
C2668 H2638 0.950 . S
C2668 C2667 1.524 . S
C2668 C2669 1.415 . S
C2669 H2639 0.950 . S
C2669 C2664 1.363 . S
C2669 C2668 1.415 . S
H2670 C2667 0.999 . S
H2671 C2652 0.913 . S
H2672 C2690 0.951 . S
H2673 C2692 0.951 . S
H2674 C2694 0.950 . S
H2675 C2695 0.950 . S
H2676 C2697 0.950 . S
H2677 C2700 0.950 . S
H2678 C2701 0.950 . S
H2679 C2703 0.950 . S
H2680 C2704 0.950 . S
H2681 C2705 0.951 . S
H2682 C2707 0.951 . S
H2683 C2709 0.950 . S
H2684 C2710 0.950 1_545 S
H2685 C2712 0.985 . S
H2686 C2715 0.950 . S
H2687 C2716 0.950 . S
H2688 C2718 0.950 . S
H2689 C2719 0.950 . S
C2690 H2672 0.951 . S
C2690 C2691 1.366 . S
C2690 C2692 1.388 . S
C2691 C2690 1.366 . S
C2691 C2695 1.385 . S
C2692 H2673 0.951 . S
C2692 C2690 1.388 . S
C2692 C2693 1.366 . S
C2693 C2692 1.366 . S
C2693 C2694 1.414 . S
C2693 C2696 1.499 . S
C2694 H2674 0.950 . S
C2694 C2693 1.414 . S
C2694 C2695 1.374 . S
C2695 H2675 0.950 . S
C2695 C2691 1.385 . S
C2695 C2694 1.374 . S
C2696 C2693 1.499 . S
C2696 C2697 1.373 . S
C2696 C2698 1.389 1_554 S
C2697 H2676 0.950 . S
C2697 C2696 1.373 . S
C2697 C2713 1.377 . S
C2698 C2696 1.389 1_556 S
C2698 C2699 1.524 . S
C2698 C2712 1.382 . S
C2699 C2698 1.524 . S
C2699 C2700 1.397 . S
C2699 C2704 1.363 . S
C2700 H2677 0.950 . S
C2700 C2699 1.397 . S
C2700 C2701 1.334 . S
C2701 H2678 0.950 . S
C2701 C2700 1.334 . S
C2701 C2702 1.287 . S
C2702 C2701 1.287 . S
C2702 C2703 1.524 . S
C2702 H2721 0.913 . S
C2703 H2679 0.950 . S
C2703 C2702 1.524 . S
C2703 C2704 1.415 . S
C2704 H2680 0.950 . S
C2704 C2699 1.363 . S
C2704 C2703 1.415 . S
C2705 H2681 0.951 . S
C2705 C2706 1.366 . S
C2705 C2707 1.388 . S
C2706 C2705 1.366 . S
C2706 C2710 1.385 . S
C2707 H2682 0.951 . S
C2707 C2705 1.388 . S
C2707 C2708 1.366 . S
C2708 C2707 1.366 . S
C2708 C2709 1.414 . S
C2708 C2711 1.499 . S
C2709 H2683 0.950 . S
C2709 C2708 1.414 . S
C2709 C2710 1.374 . S
C2710 H2684 0.950 1_565 S
C2710 C2706 1.385 . S
C2710 C2709 1.374 . S
C2711 C2708 1.499 . S
C2711 C2712 1.337 1_554 S
C2711 C2713 1.389 . S
C2712 H2685 0.985 . S
C2712 C2698 1.382 . S
C2712 C2711 1.337 1_556 S
C2713 C2697 1.377 . S
C2713 C2711 1.389 . S
C2713 C2714 1.524 . S
C2714 C2713 1.524 . S
C2714 C2715 1.397 . S
C2714 C2719 1.363 . S
C2715 H2686 0.950 . S
C2715 C2714 1.397 . S
C2715 C2716 1.334 . S
C2716 H2687 0.950 . S
C2716 C2715 1.334 . S
C2716 C2717 1.287 . S
C2717 C2716 1.287 . S
C2717 C2718 1.524 . S
C2717 H2720 0.999 . S
C2718 H2688 0.950 . S
C2718 C2717 1.524 . S
C2718 C2719 1.415 . S
C2719 H2689 0.950 . S
C2719 C2714 1.363 . S
C2719 C2718 1.415 . S
H2720 C2717 0.999 . S
H2721 C2702 0.913 . S
H2722 C2740 0.951 . S
H2723 C2742 0.951 . S
H2724 C2744 0.950 . S
H2725 C2745 0.950 . S
H2726 C2747 0.950 . S
H2727 C2750 0.950 . S
H2728 C2751 0.950 . S
H2729 C2753 0.950 . S
H2730 C2754 0.950 . S
H2731 C2755 0.951 . S
H2732 C2757 0.951 . S
H2733 C2759 0.950 . S
H2734 C2760 0.950 . S
H2735 C2762 0.950 . S
H2736 C2765 0.950 . S
H2737 C2766 0.950 . S
H2738 C2768 0.950 . S
H2739 C2769 0.950 . S
C2740 H2722 0.951 . S
C2740 C2741 1.366 1_556 S
C2740 C2742 1.388 . S
C2741 C2740 1.366 1_554 S
C2741 C2745 1.385 . S
C2742 H2723 0.951 . S
C2742 C2740 1.388 . S
C2742 C2743 1.366 1_556 S
C2743 C2742 1.366 1_554 S
C2743 C2744 1.414 . S
C2743 C2746 1.501 . S
C2744 H2724 0.950 . S
C2744 C2743 1.414 . S
C2744 C2745 1.374 . S
C2745 H2725 0.950 . S
C2745 C2741 1.385 . S
C2745 C2744 1.374 . S
C2746 C2743 1.501 . S
C2746 C2747 1.422 . S
C2746 C2748 1.341 1_554 S
C2747 H2726 0.950 . S
C2747 C2746 1.422 . S
C2747 C2763 1.377 . S
C2748 C2746 1.341 1_556 S
C2748 C2749 1.524 . S
C2748 C2762 1.377 . S
C2749 C2748 1.524 . S
C2749 C2750 1.397 . S
C2749 C2754 1.363 . S
C2750 H2727 0.950 . S
C2750 C2749 1.397 . S
C2750 C2751 1.334 . S
C2751 H2728 0.950 . S
C2751 C2750 1.334 . S
C2751 C2752 1.287 . S
C2752 C2751 1.287 . S
C2752 C2753 1.524 . S
C2752 H2771 0.913 . S
C2753 H2729 0.950 . S
C2753 C2752 1.524 . S
C2753 C2754 1.415 . S
C2754 H2730 0.950 . S
C2754 C2749 1.363 . S
C2754 C2753 1.415 . S
C2755 H2731 0.951 . S
C2755 C2756 1.366 1_554 S
C2755 C2757 1.388 . S
C2756 C2755 1.366 1_556 S
C2756 C2760 1.385 . S
C2757 H2732 0.951 . S
C2757 C2755 1.388 . S
C2757 C2758 1.365 . S
C2758 C2757 1.365 . S
C2758 C2759 1.415 1_554 S
C2758 C2761 1.498 . S
C2759 H2733 0.950 . S
C2759 C2758 1.415 1_556 S
C2759 C2760 1.374 . S
C2760 H2734 0.950 . S
C2760 C2756 1.385 . S
C2760 C2759 1.374 . S
C2761 C2758 1.498 . S
C2761 C2762 1.362 1_554 S
C2761 C2763 1.401 . S
C2762 H2735 0.950 . S
C2762 C2748 1.377 . S
C2762 C2761 1.362 1_556 S
C2763 C2747 1.377 . S
C2763 C2761 1.401 . S
C2763 C2764 1.524 . S
C2764 C2763 1.524 . S
C2764 C2765 1.397 . S
C2764 C2769 1.363 . S
C2765 H2736 0.950 . S
C2765 C2764 1.397 . S
C2765 C2766 1.334 . S
C2766 H2737 0.950 . S
C2766 C2765 1.334 . S
C2766 C2767 1.287 . S
C2767 C2766 1.287 . S
C2767 C2768 1.524 . S
C2767 H2770 0.999 . S
C2768 H2738 0.950 . S
C2768 C2767 1.524 . S
C2768 C2769 1.415 . S
C2769 H2739 0.950 . S
C2769 C2764 1.363 . S
C2769 C2768 1.415 . S
H2770 C2767 0.999 . S
H2771 C2752 0.913 . S
H2772 C2790 0.951 . S
H2773 C2792 0.951 . S
H2774 C2794 0.950 . S
H2775 C2795 0.950 . S
H2776 C2797 0.950 . S
H2777 C2800 0.950 . S
H2778 C2801 0.950 . S
H2779 C2803 0.950 . S
H2780 C2804 0.950 . S
H2781 C2805 0.951 . S
H2782 C2807 0.951 . S
H2783 C2809 0.950 . S
H2784 C2810 0.950 . S
H2785 C2812 0.950 . S
H2786 C2815 0.950 . S
H2787 C2816 0.950 . S
H2788 C2818 0.950 . S
H2789 C2819 0.950 . S
C2790 H2772 0.951 . S
C2790 C2791 1.366 . S
C2790 C2792 1.388 . S
C2791 C2790 1.366 . S
C2791 C2795 1.385 . S
C2792 H2773 0.951 . S
C2792 C2790 1.388 . S
C2792 C2793 1.366 . S
C2793 C2792 1.366 . S
C2793 C2794 1.414 . S
C2793 C2796 1.499 . S
C2794 H2774 0.950 . S
C2794 C2793 1.414 . S
C2794 C2795 1.374 . S
C2795 H2775 0.950 . S
C2795 C2791 1.385 . S
C2795 C2794 1.374 . S
C2796 C2793 1.499 . S
C2796 C2797 1.373 . S
C2796 C2798 1.389 . S
C2797 H2776 0.950 . S
C2797 C2796 1.373 . S
C2797 C2813 1.377 . S
C2798 C2796 1.389 . S
C2798 C2799 1.524 . S
C2798 C2812 1.377 . S
C2799 C2798 1.524 . S
C2799 C2800 1.397 . S
C2799 C2804 1.363 . S
C2800 H2777 0.950 . S
C2800 C2799 1.397 . S
C2800 C2801 1.334 . S
C2801 H2778 0.950 . S
C2801 C2800 1.334 . S
C2801 C2802 1.287 . S
C2802 C2801 1.287 . S
C2802 C2803 1.524 . S
C2802 H2821 0.913 . S
C2803 H2779 0.950 . S
C2803 C2802 1.524 . S
C2803 C2804 1.415 . S
C2804 H2780 0.950 . S
C2804 C2799 1.363 . S
C2804 C2803 1.415 . S
C2805 H2781 0.951 . S
C2805 C2806 1.366 . S
C2805 C2807 1.388 . S
C2806 C2805 1.366 . S
C2806 C2810 1.385 . S
C2807 H2782 0.951 . S
C2807 C2805 1.388 . S
C2807 C2808 1.366 . S
C2808 C2807 1.366 . S
C2808 C2809 1.414 . S
C2808 C2811 1.499 . S
C2809 H2783 0.950 . S
C2809 C2808 1.414 . S
C2809 C2810 1.374 . S
C2810 H2784 0.950 . S
C2810 C2806 1.385 . S
C2810 C2809 1.374 . S
C2811 C2808 1.499 . S
C2811 C2812 1.373 . S
C2811 C2813 1.389 . S
C2812 H2785 0.950 . S
C2812 C2798 1.377 . S
C2812 C2811 1.373 . S
C2813 C2797 1.377 . S
C2813 C2811 1.389 . S
C2813 C2814 1.524 . S
C2814 C2813 1.524 . S
C2814 C2815 1.397 . S
C2814 C2819 1.363 . S
C2815 H2786 0.950 . S
C2815 C2814 1.397 . S
C2815 C2816 1.334 . S
C2816 H2787 0.950 . S
C2816 C2815 1.334 . S
C2816 C2817 1.287 . S
C2817 C2816 1.287 . S
C2817 C2818 1.524 . S
C2817 H2820 0.999 . S
C2818 H2788 0.950 . S
C2818 C2817 1.524 . S
C2818 C2819 1.415 . S
C2819 H2789 0.950 . S
C2819 C2814 1.363 . S
C2819 C2818 1.415 . S
H2820 C2817 0.999 . S
H2821 C2802 0.913 . S
H2822 C2840 0.951 . S
H2823 C2842 0.951 . S
H2824 C2844 0.950 . S
H2825 C2845 0.950 . S
H2826 C2847 0.950 . S
H2827 C2850 0.950 . S
H2828 C2851 0.950 . S
H2829 C2853 0.950 . S
H2830 C2854 0.950 . S
H2831 C2855 0.951 . S
H2832 C2857 0.951 . S
H2833 C2859 0.950 . S
H2834 C2860 0.950 . S
H2835 C2862 0.950 . S
H2836 C2865 0.950 . S
H2837 C2866 0.950 . S
H2838 C2868 0.950 . S
H2839 C2869 0.950 . S
C2840 H2822 0.951 . S
C2840 C2841 1.366 . S
C2840 C2842 1.388 . S
C2841 C2840 1.366 . S
C2841 C2845 1.385 . S
C2842 H2823 0.951 . S
C2842 C2840 1.388 . S
C2842 C2843 1.366 . S
C2843 C2842 1.366 . S
C2843 C2844 1.414 . S
C2843 C2846 1.499 . S
C2844 H2824 0.950 . S
C2844 C2843 1.414 . S
C2844 C2845 1.374 . S
C2845 H2825 0.950 . S
C2845 C2841 1.385 . S
C2845 C2844 1.374 . S
C2846 C2843 1.499 . S
C2846 C2847 1.373 . S
C2846 C2848 1.389 . S
C2847 H2826 0.950 . S
C2847 C2846 1.373 . S
C2847 C2863 1.377 . S
C2848 C2846 1.389 . S
C2848 C2849 1.524 . S
C2848 C2862 1.377 . S
C2849 C2848 1.524 . S
C2849 C2850 1.397 . S
C2849 C2854 1.363 . S
C2850 H2827 0.950 . S
C2850 C2849 1.397 . S
C2850 C2851 1.334 . S
C2851 H2828 0.950 . S
C2851 C2850 1.334 . S
C2851 C2852 1.287 . S
C2852 C2851 1.287 . S
C2852 C2853 1.524 . S
C2852 H2871 0.913 . S
C2853 H2829 0.950 . S
C2853 C2852 1.524 . S
C2853 C2854 1.415 . S
C2854 H2830 0.950 . S
C2854 C2849 1.363 . S
C2854 C2853 1.415 . S
C2855 H2831 0.951 . S
C2855 C2856 1.366 . S
C2855 C2857 1.388 . S
C2856 C2855 1.366 . S
C2856 C2860 1.385 . S
C2857 H2832 0.951 . S
C2857 C2855 1.388 . S
C2857 C2858 1.366 . S
C2858 C2857 1.366 . S
C2858 C2859 1.414 . S
C2858 C2861 1.499 . S
C2859 H2833 0.950 . S
C2859 C2858 1.414 . S
C2859 C2860 1.374 . S
C2860 H2834 0.950 . S
C2860 C2856 1.385 . S
C2860 C2859 1.374 . S
C2861 C2858 1.499 . S
C2861 C2862 1.373 . S
C2861 C2863 1.389 . S
C2862 H2835 0.950 . S
C2862 C2848 1.377 . S
C2862 C2861 1.373 . S
C2863 C2847 1.377 . S
C2863 C2861 1.389 . S
C2863 C2864 1.524 . S
C2864 C2863 1.524 . S
C2864 C2865 1.397 . S
C2864 C2869 1.363 . S
C2865 H2836 0.950 . S
C2865 C2864 1.397 . S
C2865 C2866 1.334 . S
C2866 H2837 0.950 . S
C2866 C2865 1.334 . S
C2866 C2867 1.287 . S
C2867 C2866 1.287 . S
C2867 C2868 1.524 . S
C2867 H2870 0.999 . S
C2868 H2838 0.950 . S
C2868 C2867 1.524 . S
C2868 C2869 1.415 . S
C2869 H2839 0.950 . S
C2869 C2864 1.363 . S
C2869 C2868 1.415 . S
H2870 C2867 0.999 . S
H2871 C2852 0.913 . S
H2872 C2890 0.951 . S
H2873 C2892 0.951 . S
H2874 C2894 0.950 . S
H2875 C2895 0.950 . S
H2876 C2897 0.950 . S
H2877 C2900 0.950 . S
H2878 C2901 0.950 . S
H2879 C2903 0.950 . S
H2880 C2904 0.950 . S
H2881 C2905 0.951 . S
H2882 C2907 0.951 . S
H2883 C2909 0.950 . S
H2884 C2910 0.950 . S
H2885 C2912 0.950 . S
H2886 C2915 0.950 . S
H2887 C2916 0.950 . S
H2888 C2918 0.950 . S
H2889 C2919 0.950 . S
C2890 H2872 0.951 . S
C2890 C2891 1.366 . S
C2890 C2892 1.388 . S
C2891 C2890 1.366 . S
C2891 C2895 1.385 . S
C2892 H2873 0.951 . S
C2892 C2890 1.388 . S
C2892 C2893 1.366 . S
C2893 C2892 1.366 . S
C2893 C2894 1.414 . S
C2893 C2896 1.499 . S
C2894 H2874 0.950 . S
C2894 C2893 1.414 . S
C2894 C2895 1.374 . S
C2895 H2875 0.950 . S
C2895 C2891 1.385 . S
C2895 C2894 1.374 . S
C2896 C2893 1.499 . S
C2896 C2897 1.373 . S
C2896 C2898 1.389 . S
C2897 H2876 0.950 . S
C2897 C2896 1.373 . S
C2897 C2913 1.377 . S
C2898 C2896 1.389 . S
C2898 C2899 1.524 . S
C2898 C2912 1.377 . S
C2899 C2898 1.524 . S
C2899 C2900 1.397 . S
C2899 C2904 1.363 . S
C2900 H2877 0.950 . S
C2900 C2899 1.397 . S
C2900 C2901 1.334 . S
C2901 H2878 0.950 . S
C2901 C2900 1.334 . S
C2901 C2902 1.287 . S
C2902 C2901 1.287 . S
C2902 C2903 1.524 . S
C2902 H2921 0.913 . S
C2903 H2879 0.950 . S
C2903 C2902 1.524 . S
C2903 C2904 1.415 . S
C2904 H2880 0.950 . S
C2904 C2899 1.363 . S
C2904 C2903 1.415 . S
C2905 H2881 0.951 . S
C2905 C2906 1.366 . S
C2905 C2907 1.388 . S
C2906 C2905 1.366 . S
C2906 C2910 1.385 . S
C2907 H2882 0.951 . S
C2907 C2905 1.388 . S
C2907 C2908 1.366 . S
C2908 C2907 1.366 . S
C2908 C2909 1.414 . S
C2908 C2911 1.499 . S
C2909 H2883 0.950 . S
C2909 C2908 1.414 . S
C2909 C2910 1.374 . S
C2910 H2884 0.950 . S
C2910 C2906 1.385 . S
C2910 C2909 1.374 . S
C2911 C2908 1.499 . S
C2911 C2912 1.373 . S
C2911 C2913 1.389 . S
C2912 H2885 0.950 . S
C2912 C2898 1.377 . S
C2912 C2911 1.373 . S
C2913 C2897 1.377 . S
C2913 C2911 1.389 . S
C2913 C2914 1.524 . S
C2914 C2913 1.524 . S
C2914 C2915 1.397 . S
C2914 C2919 1.363 . S
C2915 H2886 0.950 . S
C2915 C2914 1.397 . S
C2915 C2916 1.334 . S
C2916 H2887 0.950 . S
C2916 C2915 1.334 . S
C2916 C2917 1.287 . S
C2917 C2916 1.287 . S
C2917 C2918 1.524 . S
C2917 H2920 0.999 . S
C2918 H2888 0.950 . S
C2918 C2917 1.524 . S
C2918 C2919 1.415 . S
C2919 H2889 0.950 . S
C2919 C2914 1.363 . S
C2919 C2918 1.415 . S
H2920 C2917 0.999 . S
H2921 C2902 0.913 . S
H2922 C2940 0.951 . S
H2923 C2942 0.951 . S
H2924 C2944 0.950 . S
H2925 C2945 0.950 . S
H2926 C2947 0.950 . S
H2927 C2950 0.950 . S
H2928 C2951 0.950 . S
H2929 C2953 0.950 . S
H2930 C2954 0.950 . S
H2931 C2955 0.951 . S
H2932 C2957 0.951 . S
H2933 C2959 0.950 . S
H2934 C2960 0.950 . S
H2935 C2962 0.950 . S
H2936 C2965 0.950 . S
H2937 C2966 0.950 . S
H2938 C2968 0.950 . S
H2939 C2969 0.950 . S
C2940 H2922 0.951 . S
C2940 C2941 1.366 . S
C2940 C2942 1.388 . S
C2941 C2940 1.366 . S
C2941 C2945 1.385 . S
C2942 H2923 0.951 . S
C2942 C2940 1.388 . S
C2942 C2943 1.366 . S
C2943 C2942 1.366 . S
C2943 C2944 1.414 . S
C2943 C2946 1.499 . S
C2944 H2924 0.950 . S
C2944 C2943 1.414 . S
C2944 C2945 1.374 . S
C2945 H2925 0.950 . S
C2945 C2941 1.385 . S
C2945 C2944 1.374 . S
C2946 C2943 1.499 . S
C2946 C2947 1.373 . S
C2946 C2948 1.389 . S
C2947 H2926 0.950 . S
C2947 C2946 1.373 . S
C2947 C2963 1.377 . S
C2948 C2946 1.389 . S
C2948 C2949 1.524 . S
C2948 C2962 1.377 . S
C2949 C2948 1.524 . S
C2949 C2950 1.397 . S
C2949 C2954 1.363 . S
C2950 H2927 0.950 . S
C2950 C2949 1.397 . S
C2950 C2951 1.334 . S
C2951 H2928 0.950 . S
C2951 C2950 1.334 . S
C2951 C2952 1.287 . S
C2952 C2951 1.287 . S
C2952 C2953 1.524 . S
C2952 H2971 0.913 . S
C2953 H2929 0.950 . S
C2953 C2952 1.524 . S
C2953 C2954 1.415 . S
C2954 H2930 0.950 . S
C2954 C2949 1.363 . S
C2954 C2953 1.415 . S
C2955 H2931 0.951 . S
C2955 C2956 1.366 . S
C2955 C2957 1.388 . S
C2956 C2955 1.366 . S
C2956 C2960 1.385 . S
C2957 H2932 0.951 . S
C2957 C2955 1.388 . S
C2957 C2958 1.366 . S
C2958 C2957 1.366 . S
C2958 C2959 1.414 . S
C2958 C2961 1.499 . S
C2959 H2933 0.950 . S
C2959 C2958 1.414 . S
C2959 C2960 1.374 . S
C2960 H2934 0.950 . S
C2960 C2956 1.385 . S
C2960 C2959 1.374 . S
C2961 C2958 1.499 . S
C2961 C2962 1.373 . S
C2961 C2963 1.389 . S
C2962 H2935 0.950 . S
C2962 C2948 1.377 . S
C2962 C2961 1.373 . S
C2963 C2947 1.377 . S
C2963 C2961 1.389 . S
C2963 C2964 1.524 . S
C2964 C2963 1.524 . S
C2964 C2965 1.397 . S
C2964 C2969 1.363 . S
C2965 H2936 0.950 . S
C2965 C2964 1.397 . S
C2965 C2966 1.334 . S
C2966 H2937 0.950 . S
C2966 C2965 1.334 . S
C2966 C2967 1.287 . S
C2967 C2966 1.287 . S
C2967 C2968 1.524 . S
C2967 H2970 0.999 . S
C2968 H2938 0.950 . S
C2968 C2967 1.524 . S
C2968 C2969 1.415 . S
C2969 H2939 0.950 . S
C2969 C2964 1.363 . S
C2969 C2968 1.415 . S
H2970 C2967 0.999 . S
H2971 C2952 0.913 . S
H2972 C2990 0.951 . S
H2973 C2992 0.951 . S
H2974 C2994 0.950 . S
H2975 C2995 0.950 . S
H2976 C2997 0.950 . S
H2977 C3000 0.950 . S
H2978 C3001 0.950 . S
H2979 C3003 0.950 . S
H2980 C3004 0.950 . S
H2981 C3005 0.951 . S
H2982 C3007 0.951 . S
H2983 C3009 0.950 . S
H2984 C3010 0.950 . S
H2985 C3012 0.950 . S
H2986 C3015 0.950 . S
H2987 C3016 0.950 . S
H2988 C3018 0.950 . S
H2989 C3019 0.950 . S
C2990 H2972 0.951 . S
C2990 C2991 1.366 . S
C2990 C2992 1.388 . S
C2991 C2990 1.366 . S
C2991 C2995 1.385 . S
C2992 H2973 0.951 . S
C2992 C2990 1.388 . S
C2992 C2993 1.366 . S
C2993 C2992 1.366 . S
C2993 C2994 1.414 . S
C2993 C2996 1.499 . S
C2994 H2974 0.950 . S
C2994 C2993 1.414 . S
C2994 C2995 1.374 . S
C2995 H2975 0.950 . S
C2995 C2991 1.385 . S
C2995 C2994 1.374 . S
C2996 C2993 1.499 . S
C2996 C2997 1.373 . S
C2996 C2998 1.389 . S
C2997 H2976 0.950 . S
C2997 C2996 1.373 . S
C2997 C3013 1.377 . S
C2998 C2996 1.389 . S
C2998 C2999 1.524 . S
C2998 C3012 1.377 . S
C2999 C2998 1.524 . S
C2999 C3000 1.397 . S
C2999 C3004 1.363 . S
C3000 H2977 0.950 . S
C3000 C2999 1.397 . S
C3000 C3001 1.334 . S
C3001 H2978 0.950 . S
C3001 C3000 1.334 . S
C3001 C3002 1.287 . S
C3002 C3001 1.287 . S
C3002 C3003 1.524 . S
C3002 H3021 0.913 . S
C3003 H2979 0.950 . S
C3003 C3002 1.524 . S
C3003 C3004 1.415 . S
C3004 H2980 0.950 . S
C3004 C2999 1.363 . S
C3004 C3003 1.415 . S
C3005 H2981 0.951 . S
C3005 C3006 1.366 . S
C3005 C3007 1.388 . S
C3006 C3005 1.366 . S
C3006 C3010 1.385 . S
C3007 H2982 0.951 . S
C3007 C3005 1.388 . S
C3007 C3008 1.366 . S
C3008 C3007 1.366 . S
C3008 C3009 1.414 . S
C3008 C3011 1.499 . S
C3009 H2983 0.950 . S
C3009 C3008 1.414 . S
C3009 C3010 1.374 . S
C3010 H2984 0.950 . S
C3010 C3006 1.385 . S
C3010 C3009 1.374 . S
C3011 C3008 1.499 . S
C3011 C3012 1.373 . S
C3011 C3013 1.389 . S
C3012 H2985 0.950 . S
C3012 C2998 1.377 . S
C3012 C3011 1.373 . S
C3013 C2997 1.377 . S
C3013 C3011 1.389 . S
C3013 C3014 1.524 . S
C3014 C3013 1.524 . S
C3014 C3015 1.397 . S
C3014 C3019 1.363 . S
C3015 H2986 0.950 . S
C3015 C3014 1.397 . S
C3015 C3016 1.334 . S
C3016 H2987 0.950 . S
C3016 C3015 1.334 . S
C3016 C3017 1.287 . S
C3017 C3016 1.287 . S
C3017 C3018 1.524 . S
C3017 H3020 0.999 . S
C3018 H2988 0.950 . S
C3018 C3017 1.524 . S
C3018 C3019 1.415 . S
C3019 H2989 0.950 . S
C3019 C3014 1.363 . S
C3019 C3018 1.415 . S
H3020 C3017 0.999 . S
H3021 C3002 0.913 . S
H3022 C3040 0.951 . S
H3023 C3042 0.951 . S
H3024 C3044 0.950 . S
H3025 C3045 0.950 . S
H3026 C3047 0.950 . S
H3027 C3050 0.950 . S
H3028 C3051 0.950 . S
H3029 C3053 0.950 . S
H3030 C3054 0.950 . S
H3031 C3055 0.951 . S
H3032 C3057 0.951 . S
H3033 C3059 0.950 . S
H3034 C3060 0.950 . S
H3035 C3062 0.950 . S
H3036 C3065 0.950 . S
H3037 C3066 0.950 . S
H3038 C3068 0.950 . S
H3039 C3069 0.950 . S
C3040 H3022 0.951 . S
C3040 C3041 1.366 . S
C3040 C3042 1.388 . S
C3041 C3040 1.366 . S
C3041 C3045 1.385 . S
C3042 H3023 0.951 . S
C3042 C3040 1.388 . S
C3042 C3043 1.366 . S
C3043 C3042 1.366 . S
C3043 C3044 1.414 . S
C3043 C3046 1.499 . S
C3044 H3024 0.950 . S
C3044 C3043 1.414 . S
C3044 C3045 1.374 . S
C3045 H3025 0.950 . S
C3045 C3041 1.385 . S
C3045 C3044 1.374 . S
C3046 C3043 1.499 . S
C3046 C3047 1.373 . S
C3046 C3048 1.389 . S
C3047 H3026 0.950 . S
C3047 C3046 1.373 . S
C3047 C3063 1.377 . S
C3048 C3046 1.389 . S
C3048 C3049 1.524 . S
C3048 C3062 1.377 . S
C3049 C3048 1.524 . S
C3049 C3050 1.397 . S
C3049 C3054 1.363 . S
C3050 H3027 0.950 . S
C3050 C3049 1.397 . S
C3050 C3051 1.334 . S
C3051 H3028 0.950 . S
C3051 C3050 1.334 . S
C3051 C3052 1.287 . S
C3052 C3051 1.287 . S
C3052 C3053 1.524 . S
C3052 H3071 0.913 . S
C3053 H3029 0.950 . S
C3053 C3052 1.524 . S
C3053 C3054 1.415 . S
C3054 H3030 0.950 . S
C3054 C3049 1.363 . S
C3054 C3053 1.415 . S
C3055 H3031 0.951 . S
C3055 C3056 1.366 . S
C3055 C3057 1.388 . S
C3056 C3055 1.366 . S
C3056 C3060 1.385 . S
C3057 H3032 0.951 . S
C3057 C3055 1.388 . S
C3057 C3058 1.366 . S
C3058 C3057 1.366 . S
C3058 C3059 1.414 . S
C3058 C3061 1.499 . S
C3059 H3033 0.950 . S
C3059 C3058 1.414 . S
C3059 C3060 1.374 . S
C3060 H3034 0.950 . S
C3060 C3056 1.385 . S
C3060 C3059 1.374 . S
C3061 C3058 1.499 . S
C3061 C3062 1.373 . S
C3061 C3063 1.389 . S
C3062 H3035 0.950 . S
C3062 C3048 1.377 . S
C3062 C3061 1.373 . S
C3063 C3047 1.377 . S
C3063 C3061 1.389 . S
C3063 C3064 1.524 . S
C3064 C3063 1.524 . S
C3064 C3065 1.397 . S
C3064 C3069 1.363 . S
C3065 H3036 0.950 . S
C3065 C3064 1.397 . S
C3065 C3066 1.334 . S
C3066 H3037 0.950 . S
C3066 C3065 1.334 . S
C3066 C3067 1.287 . S
C3067 C3066 1.287 . S
C3067 C3068 1.524 . S
C3067 H3070 0.999 . S
C3068 H3038 0.950 . S
C3068 C3067 1.524 . S
C3068 C3069 1.415 . S
C3069 H3039 0.950 . S
C3069 C3064 1.363 . S
C3069 C3068 1.415 . S
H3070 C3067 0.999 . S
H3071 C3052 0.913 . S
H3072 C3090 0.951 . S
H3073 C3092 0.951 . S
H3074 C3094 0.950 . S
H3075 C3095 0.950 . S
H3076 C3097 0.950 . S
H3077 C3100 0.950 . S
H3078 C3101 0.950 . S
H3079 C3103 0.950 . S
H3080 C3104 0.950 . S
H3081 C3105 0.951 . S
H3082 C3107 0.951 . S
H3083 C3109 0.950 . S
H3084 C3110 0.950 . S
H3085 C3112 0.950 . S
H3086 C3115 0.950 . S
H3087 C3116 0.950 . S
H3088 C3118 0.950 . S
H3089 C3119 0.950 . S
C3090 H3072 0.951 . S
C3090 C3091 1.366 . S
C3090 C3092 1.388 . S
C3091 C3090 1.366 . S
C3091 C3095 1.385 . S
C3092 H3073 0.951 . S
C3092 C3090 1.388 . S
C3092 C3093 1.366 . S
C3093 C3092 1.366 . S
C3093 C3094 1.414 . S
C3093 C3096 1.499 . S
C3094 H3074 0.950 . S
C3094 C3093 1.414 . S
C3094 C3095 1.374 . S
C3095 H3075 0.950 . S
C3095 C3091 1.385 . S
C3095 C3094 1.374 . S
C3096 C3093 1.499 . S
C3096 C3097 1.373 . S
C3096 C3098 1.389 . S
C3097 H3076 0.950 . S
C3097 C3096 1.373 . S
C3097 C3113 1.377 . S
C3098 C3096 1.389 . S
C3098 C3099 1.524 . S
C3098 C3112 1.377 . S
C3099 C3098 1.524 . S
C3099 C3100 1.397 . S
C3099 C3104 1.363 . S
C3100 H3077 0.950 . S
C3100 C3099 1.397 . S
C3100 C3101 1.334 . S
C3101 H3078 0.950 . S
C3101 C3100 1.334 . S
C3101 C3102 1.287 . S
C3102 C3101 1.287 . S
C3102 C3103 1.524 . S
C3102 H3121 0.913 . S
C3103 H3079 0.950 . S
C3103 C3102 1.524 . S
C3103 C3104 1.415 . S
C3104 H3080 0.950 . S
C3104 C3099 1.363 . S
C3104 C3103 1.415 . S
C3105 H3081 0.951 . S
C3105 C3106 1.366 . S
C3105 C3107 1.388 . S
C3106 C3105 1.366 . S
C3106 C3110 1.385 . S
C3107 H3082 0.951 . S
C3107 C3105 1.388 . S
C3107 C3108 1.366 . S
C3108 C3107 1.366 . S
C3108 C3109 1.414 . S
C3108 C3111 1.499 . S
C3109 H3083 0.950 . S
C3109 C3108 1.414 . S
C3109 C3110 1.374 . S
C3110 H3084 0.950 . S
C3110 C3106 1.385 . S
C3110 C3109 1.374 . S
C3111 C3108 1.499 . S
C3111 C3112 1.373 . S
C3111 C3113 1.389 . S
C3112 H3085 0.950 . S
C3112 C3098 1.377 . S
C3112 C3111 1.373 . S
C3113 C3097 1.377 . S
C3113 C3111 1.389 . S
C3113 C3114 1.524 . S
C3114 C3113 1.524 . S
C3114 C3115 1.397 . S
C3114 C3119 1.363 . S
C3115 H3086 0.950 . S
C3115 C3114 1.397 . S
C3115 C3116 1.334 . S
C3116 H3087 0.950 . S
C3116 C3115 1.334 . S
C3116 C3117 1.287 . S
C3117 C3116 1.287 . S
C3117 C3118 1.524 . S
C3117 H3120 0.999 . S
C3118 H3088 0.950 . S
C3118 C3117 1.524 . S
C3118 C3119 1.415 . S
C3119 H3089 0.950 . S
C3119 C3114 1.363 . S
C3119 C3118 1.415 . S
H3120 C3117 0.999 . S
H3121 C3102 0.913 . S
H3122 C3140 0.951 . S
H3123 C3142 0.951 . S
H3124 C3144 0.950 . S
H3125 C3145 0.950 . S
H3126 C3147 0.950 . S
H3127 C3150 0.950 . S
H3128 C3151 0.950 . S
H3129 C3153 0.950 . S
H3130 C3154 0.950 . S
H3131 C3155 0.951 . S
H3132 C3157 0.951 . S
H3133 C3159 0.950 . S
H3134 C3160 0.950 . S
H3135 C3162 0.950 . S
H3136 C3165 0.950 . S
H3137 C3166 0.950 . S
H3138 C3168 0.950 . S
H3139 C3169 0.950 . S
C3140 H3122 0.951 . S
C3140 C3141 1.366 . S
C3140 C3142 1.388 . S
C3141 C3140 1.366 . S
C3141 C3145 1.385 . S
C3142 H3123 0.951 . S
C3142 C3140 1.388 . S
C3142 C3143 1.366 . S
C3143 C3142 1.366 . S
C3143 C3144 1.414 . S
C3143 C3146 1.499 . S
C3144 H3124 0.950 . S
C3144 C3143 1.414 . S
C3144 C3145 1.374 . S
C3145 H3125 0.950 . S
C3145 C3141 1.385 . S
C3145 C3144 1.374 . S
C3146 C3143 1.499 . S
C3146 C3147 1.373 . S
C3146 C3148 1.389 . S
C3147 H3126 0.950 . S
C3147 C3146 1.373 . S
C3147 C3163 1.377 . S
C3148 C3146 1.389 . S
C3148 C3149 1.524 . S
C3148 C3162 1.377 . S
C3149 C3148 1.524 . S
C3149 C3150 1.397 . S
C3149 C3154 1.363 . S
C3150 H3127 0.950 . S
C3150 C3149 1.397 . S
C3150 C3151 1.334 . S
C3151 H3128 0.950 . S
C3151 C3150 1.334 . S
C3151 C3152 1.287 . S
C3152 C3151 1.287 . S
C3152 C3153 1.524 . S
C3152 H3171 0.913 . S
C3153 H3129 0.950 . S
C3153 C3152 1.524 . S
C3153 C3154 1.415 . S
C3154 H3130 0.950 . S
C3154 C3149 1.363 . S
C3154 C3153 1.415 . S
C3155 H3131 0.951 . S
C3155 C3156 1.366 . S
C3155 C3157 1.388 . S
C3156 C3155 1.366 . S
C3156 C3160 1.385 . S
C3157 H3132 0.951 . S
C3157 C3155 1.388 . S
C3157 C3158 1.366 . S
C3158 C3157 1.366 . S
C3158 C3159 1.414 . S
C3158 C3161 1.499 . S
C3159 H3133 0.950 . S
C3159 C3158 1.414 . S
C3159 C3160 1.374 . S
C3160 H3134 0.950 . S
C3160 C3156 1.385 . S
C3160 C3159 1.374 . S
C3161 C3158 1.499 . S
C3161 C3162 1.373 . S
C3161 C3163 1.389 . S
C3162 H3135 0.950 . S
C3162 C3148 1.377 . S
C3162 C3161 1.373 . S
C3163 C3147 1.377 . S
C3163 C3161 1.389 . S
C3163 C3164 1.524 . S
C3164 C3163 1.524 . S
C3164 C3165 1.397 . S
C3164 C3169 1.363 . S
C3165 H3136 0.950 . S
C3165 C3164 1.397 . S
C3165 C3166 1.334 . S
C3166 H3137 0.950 . S
C3166 C3165 1.334 . S
C3166 C3167 1.287 . S
C3167 C3166 1.287 . S
C3167 C3168 1.524 . S
C3167 H3170 0.999 . S
C3168 H3138 0.950 . S
C3168 C3167 1.524 . S
C3168 C3169 1.415 . S
C3169 H3139 0.950 . S
C3169 C3164 1.363 . S
C3169 C3168 1.415 . S
H3170 C3167 0.999 . S
H3171 C3152 0.913 . S
H3172 C3190 0.951 . S
H3173 C3192 0.951 . S
H3174 C3194 0.950 . S
H3175 C3195 0.950 . S
H3176 C3197 0.950 . S
H3177 C3200 0.950 . S
H3178 C3201 0.984 . S
H3179 C3203 0.950 . S
H3180 C3204 0.950 . S
H3181 C3205 0.951 . S
H3182 C3207 0.951 . S
H3183 C3209 0.950 . S
H3184 C3210 0.950 . S
H3185 C3212 0.934 1_655 S
H3186 C3215 0.929 1_655 S
H3187 C3216 0.950 . S
H3188 C3218 0.950 . S
H3189 C3219 0.950 . S
C3190 H3172 0.951 . S
C3190 C3191 1.366 1_655 S
C3190 C3192 1.388 . S
C3191 C3190 1.366 1_455 S
C3191 C3195 1.385 . S
C3192 H3173 0.951 . S
C3192 C3190 1.388 . S
C3192 C3193 1.366 1_655 S
C3193 C3192 1.366 1_455 S
C3193 C3194 1.414 . S
C3193 C3196 1.499 . S
C3194 H3174 0.950 . S
C3194 C3193 1.414 . S
C3194 C3195 1.374 . S
C3195 H3175 0.950 . S
C3195 C3191 1.385 . S
C3195 C3194 1.374 . S
C3196 C3193 1.499 . S
C3196 C3197 1.373 . S
C3196 C3198 1.389 . S
C3197 H3176 0.950 . S
C3197 C3196 1.373 . S
C3197 C3213 1.377 . S
C3198 C3196 1.389 . S
C3198 C3199 1.524 1_455 S
C3198 C3212 1.379 . S
C3199 C3198 1.524 1_655 S
C3199 C3200 1.397 1_655 S
C3199 C3204 1.363 . S
C3200 H3177 0.950 . S
C3200 C3199 1.397 1_455 S
C3200 C3201 1.347 . S
C3201 H3178 0.984 . S
C3201 C3200 1.347 . S
C3201 C3202 1.241 1_455 S
C3202 C3201 1.241 1_655 S
C3202 C3203 1.524 . S
C3202 H3221 0.913 . S
C3203 H3179 0.950 . S
C3203 C3202 1.524 . S
C3203 C3204 1.415 . S
C3204 H3180 0.950 . S
C3204 C3199 1.363 . S
C3204 C3203 1.415 . S
C3205 H3181 0.951 . S
C3205 C3206 1.366 . S
C3205 C3207 1.388 . S
C3206 C3205 1.366 . S
C3206 C3210 1.385 1_455 S
C3207 H3182 0.951 . S
C3207 C3205 1.388 . S
C3207 C3208 1.366 . S
C3208 C3207 1.366 . S
C3208 C3209 1.414 1_455 S
C3208 C3211 1.499 . S
C3209 H3183 0.950 . S
C3209 C3208 1.414 1_655 S
C3209 C3210 1.374 . S
C3210 H3184 0.950 . S
C3210 C3206 1.385 1_655 S
C3210 C3209 1.374 . S
C3211 C3208 1.499 . S
C3211 C3212 1.388 . S
C3211 C3213 1.389 . S
C3212 H3185 0.934 1_455 S
C3212 C3198 1.379 . S
C3212 C3211 1.388 . S
C3213 C3197 1.377 . S
C3213 C3211 1.389 . S
C3213 C3214 1.524 . S
C3214 C3213 1.524 . S
C3214 C3215 1.397 . S
C3214 C3219 1.363 . S
C3215 H3186 0.929 1_455 S
C3215 C3214 1.397 . S
C3215 C3216 1.334 . S
C3216 H3187 0.950 . S
C3216 C3215 1.334 . S
C3216 C3217 1.287 . S
C3217 C3216 1.287 . S
C3217 C3218 1.524 . S
C3217 H3220 0.999 . S
C3218 H3188 0.950 . S
C3218 C3217 1.524 . S
C3218 C3219 1.415 . S
C3219 H3189 0.950 . S
C3219 C3214 1.363 . S
C3219 C3218 1.415 . S
H3220 C3217 0.999 . S
H3221 C3202 0.913 . S
H3222 C3240 0.951 . S
H3223 C3242 0.951 . S
H3224 C3244 0.950 . S
H3225 C3245 0.950 . S
H3226 C3247 0.950 . S
H3227 C3250 0.950 . S
H3228 C3251 0.950 . S
H3229 C3253 0.950 . S
H3230 C3254 0.950 . S
H3231 C3255 0.951 . S
H3232 C3257 0.951 . S
H3233 C3259 0.950 . S
H3234 C3260 0.950 . S
H3235 C3262 0.950 . S
H3236 C3265 0.950 . S
H3237 C3266 0.950 . S
H3238 C3268 0.950 . S
H3239 C3269 0.950 . S
C3240 H3222 0.951 . S
C3240 C3241 1.366 . S
C3240 C3242 1.388 . S
C3241 C3240 1.366 . S
C3241 C3245 1.385 . S
C3242 H3223 0.951 . S
C3242 C3240 1.388 . S
C3242 C3243 1.366 . S
C3243 C3242 1.366 . S
C3243 C3244 1.414 . S
C3243 C3246 1.499 . S
C3244 H3224 0.950 . S
C3244 C3243 1.414 . S
C3244 C3245 1.374 . S
C3245 H3225 0.950 . S
C3245 C3241 1.385 . S
C3245 C3244 1.374 . S
C3246 C3243 1.499 . S
C3246 C3247 1.373 . S
C3246 C3248 1.389 . S
C3247 H3226 0.950 . S
C3247 C3246 1.373 . S
C3247 C3263 1.377 . S
C3248 C3246 1.389 . S
C3248 C3249 1.524 . S
C3248 C3262 1.377 . S
C3249 C3248 1.524 . S
C3249 C3250 1.397 . S
C3249 C3254 1.363 . S
C3250 H3227 0.950 . S
C3250 C3249 1.397 . S
C3250 C3251 1.334 . S
C3251 H3228 0.950 . S
C3251 C3250 1.334 . S
C3251 C3252 1.287 . S
C3252 C3251 1.287 . S
C3252 C3253 1.524 . S
C3252 H3271 0.913 . S
C3253 H3229 0.950 . S
C3253 C3252 1.524 . S
C3253 C3254 1.415 . S
C3254 H3230 0.950 . S
C3254 C3249 1.363 . S
C3254 C3253 1.415 . S
C3255 H3231 0.951 . S
C3255 C3256 1.366 . S
C3255 C3257 1.388 . S
C3256 C3255 1.366 . S
C3256 C3260 1.385 . S
C3257 H3232 0.951 . S
C3257 C3255 1.388 . S
C3257 C3258 1.366 . S
C3258 C3257 1.366 . S
C3258 C3259 1.414 . S
C3258 C3261 1.499 . S
C3259 H3233 0.950 . S
C3259 C3258 1.414 . S
C3259 C3260 1.374 . S
C3260 H3234 0.950 . S
C3260 C3256 1.385 . S
C3260 C3259 1.374 . S
C3261 C3258 1.499 . S
C3261 C3262 1.373 . S
C3261 C3263 1.389 . S
C3262 H3235 0.950 . S
C3262 C3248 1.377 . S
C3262 C3261 1.373 . S
C3263 C3247 1.377 . S
C3263 C3261 1.389 . S
C3263 C3264 1.524 . S
C3264 C3263 1.524 . S
C3264 C3265 1.397 . S
C3264 C3269 1.363 . S
C3265 H3236 0.950 . S
C3265 C3264 1.397 . S
C3265 C3266 1.334 . S
C3266 H3237 0.950 . S
C3266 C3265 1.334 . S
C3266 C3267 1.287 . S
C3267 C3266 1.287 . S
C3267 C3268 1.524 . S
C3267 H3270 0.999 . S
C3268 H3238 0.950 . S
C3268 C3267 1.524 . S
C3268 C3269 1.415 . S
C3269 H3239 0.950 . S
C3269 C3264 1.363 . S
C3269 C3268 1.415 . S
H3270 C3267 0.999 . S
H3271 C3252 0.913 . S
H3272 C3290 0.951 . S
H3273 C3292 0.951 . S
H3274 C3294 0.950 . S
H3275 C3295 0.950 . S
H3276 C3297 0.950 . S
H3277 C3300 0.950 . S
H3278 C3301 0.950 . S
H3279 C3303 0.950 . S
H3280 C3304 0.950 . S
H3281 C3305 0.951 . S
H3282 C3307 0.951 . S
H3283 C3309 0.950 . S
H3284 C3310 0.950 . S
H3285 C3312 0.950 . S
H3286 C3315 0.950 . S
H3287 C3316 0.950 . S
H3288 C3318 0.950 . S
H3289 C3319 0.950 . S
C3290 H3272 0.951 . S
C3290 C3291 1.366 . S
C3290 C3292 1.388 . S
C3291 C3290 1.366 . S
C3291 C3295 1.385 . S
C3292 H3273 0.951 . S
C3292 C3290 1.388 . S
C3292 C3293 1.366 . S
C3293 C3292 1.366 . S
C3293 C3294 1.414 . S
C3293 C3296 1.499 . S
C3294 H3274 0.950 . S
C3294 C3293 1.414 . S
C3294 C3295 1.374 . S
C3295 H3275 0.950 . S
C3295 C3291 1.385 . S
C3295 C3294 1.374 . S
C3296 C3293 1.499 . S
C3296 C3297 1.373 . S
C3296 C3298 1.389 . S
C3297 H3276 0.950 . S
C3297 C3296 1.373 . S
C3297 C3313 1.377 . S
C3298 C3296 1.389 . S
C3298 C3299 1.524 . S
C3298 C3312 1.377 . S
C3299 C3298 1.524 . S
C3299 C3300 1.397 . S
C3299 C3304 1.363 . S
C3300 H3277 0.950 . S
C3300 C3299 1.397 . S
C3300 C3301 1.334 . S
C3301 H3278 0.950 . S
C3301 C3300 1.334 . S
C3301 C3302 1.287 . S
C3302 C3301 1.287 . S
C3302 C3303 1.524 . S
C3302 H3321 0.913 . S
C3303 H3279 0.950 . S
C3303 C3302 1.524 . S
C3303 C3304 1.415 . S
C3304 H3280 0.950 . S
C3304 C3299 1.363 . S
C3304 C3303 1.415 . S
C3305 H3281 0.951 . S
C3305 C3306 1.366 . S
C3305 C3307 1.388 . S
C3306 C3305 1.366 . S
C3306 C3310 1.385 . S
C3307 H3282 0.951 . S
C3307 C3305 1.388 . S
C3307 C3308 1.366 . S
C3308 C3307 1.366 . S
C3308 C3309 1.414 . S
C3308 C3311 1.499 . S
C3309 H3283 0.950 . S
C3309 C3308 1.414 . S
C3309 C3310 1.374 . S
C3310 H3284 0.950 . S
C3310 C3306 1.385 . S
C3310 C3309 1.374 . S
C3311 C3308 1.499 . S
C3311 C3312 1.373 . S
C3311 C3313 1.389 . S
C3312 H3285 0.950 . S
C3312 C3298 1.377 . S
C3312 C3311 1.373 . S
C3313 C3297 1.377 . S
C3313 C3311 1.389 . S
C3313 C3314 1.524 . S
C3314 C3313 1.524 . S
C3314 C3315 1.397 . S
C3314 C3319 1.363 . S
C3315 H3286 0.950 . S
C3315 C3314 1.397 . S
C3315 C3316 1.334 . S
C3316 H3287 0.950 . S
C3316 C3315 1.334 . S
C3316 C3317 1.287 . S
C3317 C3316 1.287 . S
C3317 C3318 1.524 . S
C3317 H3320 0.999 . S
C3318 H3288 0.950 . S
C3318 C3317 1.524 . S
C3318 C3319 1.415 . S
C3319 H3289 0.950 . S
C3319 C3314 1.363 . S
C3319 C3318 1.415 . S
H3320 C3317 0.999 . S
H3321 C3302 0.913 . S
H3322 C3340 0.951 . S
H3323 C3342 0.951 . S
H3324 C3344 0.950 . S
H3325 C3345 0.950 . S
H3326 C3347 0.950 . S
H3327 C3350 0.950 . S
H3328 C3351 0.950 . S
H3329 C3353 0.950 . S
H3330 C3354 0.950 . S
H3331 C3355 0.951 . S
H3332 C3357 0.951 . S
H3333 C3359 0.950 . S
H3334 C3360 0.950 . S
H3335 C3362 0.950 . S
H3336 C3365 0.950 . S
H3337 C3366 0.950 . S
H3338 C3368 0.950 . S
H3339 C3369 0.950 . S
C3340 H3322 0.951 . S
C3340 C3341 1.366 . S
C3340 C3342 1.388 . S
C3341 C3340 1.366 . S
C3341 C3345 1.385 . S
C3342 H3323 0.951 . S
C3342 C3340 1.388 . S
C3342 C3343 1.366 . S
C3343 C3342 1.366 . S
C3343 C3344 1.414 . S
C3343 C3346 1.499 . S
C3344 H3324 0.950 . S
C3344 C3343 1.414 . S
C3344 C3345 1.374 . S
C3345 H3325 0.950 . S
C3345 C3341 1.385 . S
C3345 C3344 1.374 . S
C3346 C3343 1.499 . S
C3346 C3347 1.373 . S
C3346 C3348 1.389 . S
C3347 H3326 0.950 . S
C3347 C3346 1.373 . S
C3347 C3363 1.377 . S
C3348 C3346 1.389 . S
C3348 C3349 1.524 . S
C3348 C3362 1.377 . S
C3349 C3348 1.524 . S
C3349 C3350 1.397 . S
C3349 C3354 1.363 . S
C3350 H3327 0.950 . S
C3350 C3349 1.397 . S
C3350 C3351 1.334 . S
C3351 H3328 0.950 . S
C3351 C3350 1.334 . S
C3351 C3352 1.287 . S
C3352 C3351 1.287 . S
C3352 C3353 1.524 . S
C3352 H3371 0.913 . S
C3353 H3329 0.950 . S
C3353 C3352 1.524 . S
C3353 C3354 1.415 . S
C3354 H3330 0.950 . S
C3354 C3349 1.363 . S
C3354 C3353 1.415 . S
C3355 H3331 0.951 . S
C3355 C3356 1.366 . S
C3355 C3357 1.388 . S
C3356 C3355 1.366 . S
C3356 C3360 1.385 . S
C3357 H3332 0.951 . S
C3357 C3355 1.388 . S
C3357 C3358 1.366 . S
C3358 C3357 1.366 . S
C3358 C3359 1.414 . S
C3358 C3361 1.499 . S
C3359 H3333 0.950 . S
C3359 C3358 1.414 . S
C3359 C3360 1.374 . S
C3360 H3334 0.950 . S
C3360 C3356 1.385 . S
C3360 C3359 1.374 . S
C3361 C3358 1.499 . S
C3361 C3362 1.373 . S
C3361 C3363 1.389 . S
C3362 H3335 0.950 . S
C3362 C3348 1.377 . S
C3362 C3361 1.373 . S
C3363 C3347 1.377 . S
C3363 C3361 1.389 . S
C3363 C3364 1.524 . S
C3364 C3363 1.524 . S
C3364 C3365 1.397 . S
C3364 C3369 1.363 . S
C3365 H3336 0.950 . S
C3365 C3364 1.397 . S
C3365 C3366 1.334 . S
C3366 H3337 0.950 . S
C3366 C3365 1.334 . S
C3366 C3367 1.287 . S
C3367 C3366 1.287 . S
C3367 C3368 1.524 . S
C3367 H3370 0.999 . S
C3368 H3338 0.950 . S
C3368 C3367 1.524 . S
C3368 C3369 1.415 . S
C3369 H3339 0.950 . S
C3369 C3364 1.363 . S
C3369 C3368 1.415 . S
H3370 C3367 0.999 . S
H3371 C3352 0.913 . S
H3372 C3390 0.951 . S
H3373 C3392 0.951 . S
H3374 C3394 0.950 . S
H3375 C3395 0.950 . S
H3376 C3397 0.950 . S
H3377 C3400 0.950 . S
H3378 C3401 0.950 . S
H3379 C3403 0.950 . S
H3380 C3404 0.950 . S
H3381 C3405 0.951 . S
H3382 C3407 0.951 . S
H3383 C3409 0.950 . S
H3384 C3410 0.950 . S
H3385 C3412 0.950 . S
H3386 C3415 0.950 . S
H3387 C3416 0.950 . S
H3388 C3418 0.950 . S
H3389 C3419 0.950 . S
C3390 H3372 0.951 . S
C3390 C3391 1.366 . S
C3390 C3392 1.388 . S
C3391 C3390 1.366 . S
C3391 C3395 1.385 . S
C3392 H3373 0.951 . S
C3392 C3390 1.388 . S
C3392 C3393 1.366 . S
C3393 C3392 1.366 . S
C3393 C3394 1.414 . S
C3393 C3396 1.499 . S
C3394 H3374 0.950 . S
C3394 C3393 1.414 . S
C3394 C3395 1.374 . S
C3395 H3375 0.950 . S
C3395 C3391 1.385 . S
C3395 C3394 1.374 . S
C3396 C3393 1.499 . S
C3396 C3397 1.373 1_455 S
C3396 C3398 1.389 . S
C3397 H3376 0.950 . S
C3397 C3396 1.373 1_655 S
C3397 C3413 1.377 . S
C3398 C3396 1.389 . S
C3398 C3399 1.524 . S
C3398 C3412 1.377 . S
C3399 C3398 1.524 . S
C3399 C3400 1.397 . S
C3399 C3404 1.363 . S
C3400 H3377 0.950 . S
C3400 C3399 1.397 . S
C3400 C3401 1.334 . S
C3401 H3378 0.950 . S
C3401 C3400 1.334 . S
C3401 C3402 1.287 . S
C3402 C3401 1.287 . S
C3402 C3403 1.524 . S
C3402 H3421 0.913 . S
C3403 H3379 0.950 . S
C3403 C3402 1.524 . S
C3403 C3404 1.415 . S
C3404 H3380 0.950 . S
C3404 C3399 1.363 . S
C3404 C3403 1.415 . S
C3405 H3381 0.951 . S
C3405 C3406 1.366 . S
C3405 C3407 1.388 . S
C3406 C3405 1.366 . S
C3406 C3410 1.385 . S
C3407 H3382 0.951 . S
C3407 C3405 1.388 . S
C3407 C3408 1.366 . S
C3408 C3407 1.366 . S
C3408 C3409 1.414 . S
C3408 C3411 1.499 . S
C3409 H3383 0.950 . S
C3409 C3408 1.414 . S
C3409 C3410 1.374 . S
C3410 H3384 0.950 . S
C3410 C3406 1.385 . S
C3410 C3409 1.374 . S
C3411 C3408 1.499 . S
C3411 C3412 1.373 . S
C3411 C3413 1.389 1_455 S
C3412 H3385 0.950 . S
C3412 C3398 1.377 . S
C3412 C3411 1.373 . S
C3413 C3397 1.377 . S
C3413 C3411 1.389 1_655 S
C3413 C3414 1.524 . S
C3414 C3413 1.524 . S
C3414 C3415 1.397 . S
C3414 C3419 1.363 . S
C3415 H3386 0.950 . S
C3415 C3414 1.397 . S
C3415 C3416 1.334 . S
C3416 H3387 0.950 . S
C3416 C3415 1.334 . S
C3416 C3417 1.287 . S
C3417 C3416 1.287 . S
C3417 C3418 1.524 . S
C3417 H3420 0.999 . S
C3418 H3388 0.950 . S
C3418 C3417 1.524 . S
C3418 C3419 1.415 . S
C3419 H3389 0.950 . S
C3419 C3414 1.363 . S
C3419 C3418 1.415 . S
H3420 C3417 0.999 . S
H3421 C3402 0.913 . S
H3422 C3440 0.951 . S
H3423 C3442 0.951 . S
H3424 C3444 0.950 . S
H3425 C3445 0.950 . S
H3426 C3447 0.950 . S
H3427 C3450 0.950 . S
H3428 C3451 0.950 . S
H3429 C3453 0.950 . S
H3430 C3454 0.950 . S
H3431 C3455 0.951 . S
H3432 C3457 0.951 . S
H3433 C3459 0.950 . S
H3434 C3460 0.950 . S
H3435 C3462 0.950 . S
H3436 C3465 0.950 . S
H3437 C3466 0.950 . S
H3438 C3468 0.950 . S
H3439 C3469 0.950 . S
C3440 H3422 0.951 . S
C3440 C3441 1.366 . S
C3440 C3442 1.388 . S
C3441 C3440 1.366 . S
C3441 C3445 1.385 . S
C3442 H3423 0.951 . S
C3442 C3440 1.388 . S
C3442 C3443 1.366 . S
C3443 C3442 1.366 . S
C3443 C3444 1.414 . S
C3443 C3446 1.499 . S
C3444 H3424 0.950 . S
C3444 C3443 1.414 . S
C3444 C3445 1.374 . S
C3445 H3425 0.950 . S
C3445 C3441 1.385 . S
C3445 C3444 1.374 . S
C3446 C3443 1.499 . S
C3446 C3447 1.373 . S
C3446 C3448 1.389 . S
C3447 H3426 0.950 . S
C3447 C3446 1.373 . S
C3447 C3463 1.377 . S
C3448 C3446 1.389 . S
C3448 C3449 1.524 . S
C3448 C3462 1.377 . S
C3449 C3448 1.524 . S
C3449 C3450 1.397 . S
C3449 C3454 1.363 . S
C3450 H3427 0.950 . S
C3450 C3449 1.397 . S
C3450 C3451 1.334 . S
C3451 H3428 0.950 . S
C3451 C3450 1.334 . S
C3451 C3452 1.287 . S
C3452 C3451 1.287 . S
C3452 C3453 1.524 . S
C3452 H3471 0.913 . S
C3453 H3429 0.950 . S
C3453 C3452 1.524 . S
C3453 C3454 1.415 . S
C3454 H3430 0.950 . S
C3454 C3449 1.363 . S
C3454 C3453 1.415 . S
C3455 H3431 0.951 . S
C3455 C3456 1.366 . S
C3455 C3457 1.388 . S
C3456 C3455 1.366 . S
C3456 C3460 1.385 . S
C3457 H3432 0.951 . S
C3457 C3455 1.388 . S
C3457 C3458 1.366 . S
C3458 C3457 1.366 . S
C3458 C3459 1.414 . S
C3458 C3461 1.499 . S
C3459 H3433 0.950 . S
C3459 C3458 1.414 . S
C3459 C3460 1.374 . S
C3460 H3434 0.950 . S
C3460 C3456 1.385 . S
C3460 C3459 1.374 . S
C3461 C3458 1.499 . S
C3461 C3462 1.373 . S
C3461 C3463 1.389 . S
C3462 H3435 0.950 . S
C3462 C3448 1.377 . S
C3462 C3461 1.373 . S
C3463 C3447 1.377 . S
C3463 C3461 1.389 . S
C3463 C3464 1.524 . S
C3464 C3463 1.524 . S
C3464 C3465 1.397 . S
C3464 C3469 1.363 . S
C3465 H3436 0.950 . S
C3465 C3464 1.397 . S
C3465 C3466 1.334 . S
C3466 H3437 0.950 . S
C3466 C3465 1.334 . S
C3466 C3467 1.287 . S
C3467 C3466 1.287 . S
C3467 C3468 1.524 . S
C3467 H3470 0.999 . S
C3468 H3438 0.950 . S
C3468 C3467 1.524 . S
C3468 C3469 1.415 . S
C3469 H3439 0.950 . S
C3469 C3464 1.363 . S
C3469 C3468 1.415 . S
H3470 C3467 0.999 . S
H3471 C3452 0.913 . S
H3472 C3490 0.951 . S
H3473 C3492 0.951 . S
H3474 C3494 0.950 . S
H3475 C3495 0.950 . S
H3476 C3497 0.950 . S
H3477 C3500 0.950 . S
H3478 C3501 0.950 . S
H3479 C3503 0.950 . S
H3480 C3504 0.950 . S
H3481 C3505 0.951 . S
H3482 C3507 0.951 . S
H3483 C3509 0.950 . S
H3484 C3510 0.950 . S
H3485 C3512 0.950 . S
H3486 C3515 0.950 . S
H3487 C3516 0.950 . S
H3488 C3518 0.950 . S
H3489 C3519 0.950 . S
C3490 H3472 0.951 . S
C3490 C3491 1.366 . S
C3490 C3492 1.388 . S
C3491 C3490 1.366 . S
C3491 C3495 1.385 . S
C3492 H3473 0.951 . S
C3492 C3490 1.388 . S
C3492 C3493 1.366 . S
C3493 C3492 1.366 . S
C3493 C3494 1.414 . S
C3493 C3496 1.499 . S
C3494 H3474 0.950 . S
C3494 C3493 1.414 . S
C3494 C3495 1.374 . S
C3495 H3475 0.950 . S
C3495 C3491 1.385 . S
C3495 C3494 1.374 . S
C3496 C3493 1.499 . S
C3496 C3497 1.373 . S
C3496 C3498 1.389 . S
C3497 H3476 0.950 . S
C3497 C3496 1.373 . S
C3497 C3513 1.377 . S
C3498 C3496 1.389 . S
C3498 C3499 1.524 . S
C3498 C3512 1.377 . S
C3499 C3498 1.524 . S
C3499 C3500 1.397 . S
C3499 C3504 1.363 . S
C3500 H3477 0.950 . S
C3500 C3499 1.397 . S
C3500 C3501 1.334 . S
C3501 H3478 0.950 . S
C3501 C3500 1.334 . S
C3501 C3502 1.287 . S
C3502 C3501 1.287 . S
C3502 C3503 1.524 . S
C3502 H3521 0.913 . S
C3503 H3479 0.950 . S
C3503 C3502 1.524 . S
C3503 C3504 1.415 . S
C3504 H3480 0.950 . S
C3504 C3499 1.363 . S
C3504 C3503 1.415 . S
C3505 H3481 0.951 . S
C3505 C3506 1.366 . S
C3505 C3507 1.388 . S
C3506 C3505 1.366 . S
C3506 C3510 1.385 . S
C3507 H3482 0.951 . S
C3507 C3505 1.388 . S
C3507 C3508 1.366 . S
C3508 C3507 1.366 . S
C3508 C3509 1.414 . S
C3508 C3511 1.499 . S
C3509 H3483 0.950 . S
C3509 C3508 1.414 . S
C3509 C3510 1.374 . S
C3510 H3484 0.950 . S
C3510 C3506 1.385 . S
C3510 C3509 1.374 . S
C3511 C3508 1.499 . S
C3511 C3512 1.373 . S
C3511 C3513 1.389 . S
C3512 H3485 0.950 . S
C3512 C3498 1.377 . S
C3512 C3511 1.373 . S
C3513 C3497 1.377 . S
C3513 C3511 1.389 . S
C3513 C3514 1.524 . S
C3514 C3513 1.524 . S
C3514 C3515 1.397 . S
C3514 C3519 1.363 . S
C3515 H3486 0.950 . S
C3515 C3514 1.397 . S
C3515 C3516 1.334 . S
C3516 H3487 0.950 . S
C3516 C3515 1.334 . S
C3516 C3517 1.287 . S
C3517 C3516 1.287 . S
C3517 C3518 1.524 . S
C3517 H3520 0.999 . S
C3518 H3488 0.950 . S
C3518 C3517 1.524 . S
C3518 C3519 1.415 . S
C3519 H3489 0.950 . S
C3519 C3514 1.363 . S
C3519 C3518 1.415 . S
H3520 C3517 0.999 . S
H3521 C3502 0.913 . S
H3522 C3540 0.951 . S
H3523 C3542 0.951 . S
H3524 C3544 0.950 . S
H3525 C3545 0.950 . S
H3526 C3547 0.950 . S
H3527 C3550 0.950 . S
H3528 C3551 0.950 . S
H3529 C3553 0.950 . S
H3530 C3554 0.950 . S
H3531 C3555 0.951 . S
H3532 C3557 0.951 . S
H3533 C3559 0.950 . S
H3534 C3560 0.950 . S
H3535 C3562 0.950 . S
H3536 C3565 0.950 . S
H3537 C3566 0.950 . S
H3538 C3568 0.950 . S
H3539 C3569 0.950 . S
C3540 H3522 0.951 . S
C3540 C3541 1.366 . S
C3540 C3542 1.388 . S
C3541 C3540 1.366 . S
C3541 C3545 1.385 . S
C3542 H3523 0.951 . S
C3542 C3540 1.388 . S
C3542 C3543 1.366 . S
C3543 C3542 1.366 . S
C3543 C3544 1.414 . S
C3543 C3546 1.499 . S
C3544 H3524 0.950 . S
C3544 C3543 1.414 . S
C3544 C3545 1.374 . S
C3545 H3525 0.950 . S
C3545 C3541 1.385 . S
C3545 C3544 1.374 . S
C3546 C3543 1.499 . S
C3546 C3547 1.373 . S
C3546 C3548 1.389 . S
C3547 H3526 0.950 . S
C3547 C3546 1.373 . S
C3547 C3563 1.377 . S
C3548 C3546 1.389 . S
C3548 C3549 1.524 . S
C3548 C3562 1.377 . S
C3549 C3548 1.524 . S
C3549 C3550 1.397 . S
C3549 C3554 1.363 . S
C3550 H3527 0.950 . S
C3550 C3549 1.397 . S
C3550 C3551 1.334 . S
C3551 H3528 0.950 . S
C3551 C3550 1.334 . S
C3551 C3552 1.287 . S
C3552 C3551 1.287 . S
C3552 C3553 1.524 . S
C3552 H3571 0.913 . S
C3553 H3529 0.950 . S
C3553 C3552 1.524 . S
C3553 C3554 1.415 . S
C3554 H3530 0.950 . S
C3554 C3549 1.363 . S
C3554 C3553 1.415 . S
C3555 H3531 0.951 . S
C3555 C3556 1.366 . S
C3555 C3557 1.388 . S
C3556 C3555 1.366 . S
C3556 C3560 1.385 . S
C3557 H3532 0.951 . S
C3557 C3555 1.388 . S
C3557 C3558 1.366 . S
C3558 C3557 1.366 . S
C3558 C3559 1.414 . S
C3558 C3561 1.499 . S
C3559 H3533 0.950 . S
C3559 C3558 1.414 . S
C3559 C3560 1.374 . S
C3560 H3534 0.950 . S
C3560 C3556 1.385 . S
C3560 C3559 1.374 . S
C3561 C3558 1.499 . S
C3561 C3562 1.373 . S
C3561 C3563 1.389 . S
C3562 H3535 0.950 . S
C3562 C3548 1.377 . S
C3562 C3561 1.373 . S
C3563 C3547 1.377 . S
C3563 C3561 1.389 . S
C3563 C3564 1.524 . S
C3564 C3563 1.524 . S
C3564 C3565 1.397 . S
C3564 C3569 1.363 . S
C3565 H3536 0.950 . S
C3565 C3564 1.397 . S
C3565 C3566 1.334 . S
C3566 H3537 0.950 . S
C3566 C3565 1.334 . S
C3566 C3567 1.287 . S
C3567 C3566 1.287 . S
C3567 C3568 1.524 . S
C3567 H3570 0.999 . S
C3568 H3538 0.950 . S
C3568 C3567 1.524 . S
C3568 C3569 1.415 . S
C3569 H3539 0.950 . S
C3569 C3564 1.363 . S
C3569 C3568 1.415 . S
H3570 C3567 0.999 . S
H3571 C3552 0.913 . S
H3572 C3590 0.951 . S
H3573 C3592 0.951 . S
H3574 C3594 0.950 . S
H3575 C3595 0.950 . S
H3576 C3597 0.950 . S
H3577 C3600 0.950 . S
H3578 C3601 0.950 . S
H3579 C3603 0.950 . S
H3580 C3604 0.950 . S
H3581 C3605 0.951 . S
H3582 C3607 0.951 . S
H3583 C3609 0.950 . S
H3584 C3610 0.950 . S
H3585 C3612 0.950 . S
H3586 C3615 0.950 . S
H3587 C3616 0.950 . S
H3588 C3618 0.950 . S
H3589 C3619 0.950 . S
C3590 H3572 0.951 . S
C3590 C3591 1.366 . S
C3590 C3592 1.388 . S
C3591 C3590 1.366 . S
C3591 C3595 1.385 . S
C3592 H3573 0.951 . S
C3592 C3590 1.388 . S
C3592 C3593 1.366 . S
C3593 C3592 1.366 . S
C3593 C3594 1.414 . S
C3593 C3596 1.499 . S
C3594 H3574 0.950 . S
C3594 C3593 1.414 . S
C3594 C3595 1.374 . S
C3595 H3575 0.950 . S
C3595 C3591 1.385 . S
C3595 C3594 1.374 . S
C3596 C3593 1.499 . S
C3596 C3597 1.373 . S
C3596 C3598 1.389 . S
C3597 H3576 0.950 . S
C3597 C3596 1.373 . S
C3597 C3613 1.377 . S
C3598 C3596 1.389 . S
C3598 C3599 1.524 . S
C3598 C3612 1.377 . S
C3599 C3598 1.524 . S
C3599 C3600 1.397 . S
C3599 C3604 1.363 . S
C3600 H3577 0.950 . S
C3600 C3599 1.397 . S
C3600 C3601 1.334 . S
C3601 H3578 0.950 . S
C3601 C3600 1.334 . S
C3601 C3602 1.287 . S
C3602 C3601 1.287 . S
C3602 C3603 1.524 . S
C3602 H3621 0.913 . S
C3603 H3579 0.950 . S
C3603 C3602 1.524 . S
C3603 C3604 1.415 . S
C3604 H3580 0.950 . S
C3604 C3599 1.363 . S
C3604 C3603 1.415 . S
C3605 H3581 0.951 . S
C3605 C3606 1.366 . S
C3605 C3607 1.388 . S
C3606 C3605 1.366 . S
C3606 C3610 1.385 . S
C3607 H3582 0.951 . S
C3607 C3605 1.388 . S
C3607 C3608 1.366 . S
C3608 C3607 1.366 . S
C3608 C3609 1.414 . S
C3608 C3611 1.499 . S
C3609 H3583 0.950 . S
C3609 C3608 1.414 . S
C3609 C3610 1.374 . S
C3610 H3584 0.950 . S
C3610 C3606 1.385 . S
C3610 C3609 1.374 . S
C3611 C3608 1.499 . S
C3611 C3612 1.373 . S
C3611 C3613 1.389 . S
C3612 H3585 0.950 . S
C3612 C3598 1.377 . S
C3612 C3611 1.373 . S
C3613 C3597 1.377 . S
C3613 C3611 1.389 . S
C3613 C3614 1.524 . S
C3614 C3613 1.524 . S
C3614 C3615 1.397 . S
C3614 C3619 1.363 . S
C3615 H3586 0.950 . S
C3615 C3614 1.397 . S
C3615 C3616 1.334 . S
C3616 H3587 0.950 . S
C3616 C3615 1.334 . S
C3616 C3617 1.287 . S
C3617 C3616 1.287 . S
C3617 C3618 1.524 . S
C3617 H3620 0.999 . S
C3618 H3588 0.950 . S
C3618 C3617 1.524 . S
C3618 C3619 1.415 . S
C3619 H3589 0.950 . S
C3619 C3614 1.363 . S
C3619 C3618 1.415 . S
H3620 C3617 0.999 . S
H3621 C3602 0.913 . S
H3622 C3640 0.951 . S
H3623 C3642 0.951 . S
H3624 C3644 0.950 . S
H3625 C3645 0.950 . S
H3626 C3647 0.950 . S
H3627 C3650 0.950 . S
H3628 C3651 0.950 . S
H3629 C3653 0.950 . S
H3630 C3654 0.950 . S
H3631 C3655 0.951 . S
H3632 C3657 0.951 . S
H3633 C3659 0.950 . S
H3634 C3660 0.950 . S
H3635 C3662 0.950 . S
H3636 C3665 0.950 . S
H3637 C3666 0.950 . S
H3638 C3668 0.950 . S
H3639 C3669 0.950 . S
C3640 H3622 0.951 . S
C3640 C3641 1.366 . S
C3640 C3642 1.388 . S
C3641 C3640 1.366 . S
C3641 C3645 1.385 . S
C3642 H3623 0.951 . S
C3642 C3640 1.388 . S
C3642 C3643 1.366 . S
C3643 C3642 1.366 . S
C3643 C3644 1.414 . S
C3643 C3646 1.499 . S
C3644 H3624 0.950 . S
C3644 C3643 1.414 . S
C3644 C3645 1.374 . S
C3645 H3625 0.950 . S
C3645 C3641 1.385 . S
C3645 C3644 1.374 . S
C3646 C3643 1.499 . S
C3646 C3647 1.373 . S
C3646 C3648 1.389 . S
C3647 H3626 0.950 . S
C3647 C3646 1.373 . S
C3647 C3663 1.377 . S
C3648 C3646 1.389 . S
C3648 C3649 1.524 . S
C3648 C3662 1.377 . S
C3649 C3648 1.524 . S
C3649 C3650 1.397 . S
C3649 C3654 1.363 . S
C3650 H3627 0.950 . S
C3650 C3649 1.397 . S
C3650 C3651 1.334 . S
C3651 H3628 0.950 . S
C3651 C3650 1.334 . S
C3651 C3652 1.287 . S
C3652 C3651 1.287 . S
C3652 C3653 1.524 . S
C3652 H3671 0.913 . S
C3653 H3629 0.950 . S
C3653 C3652 1.524 . S
C3653 C3654 1.415 . S
C3654 H3630 0.950 . S
C3654 C3649 1.363 . S
C3654 C3653 1.415 . S
C3655 H3631 0.951 . S
C3655 C3656 1.366 . S
C3655 C3657 1.388 . S
C3656 C3655 1.366 . S
C3656 C3660 1.385 . S
C3657 H3632 0.951 . S
C3657 C3655 1.388 . S
C3657 C3658 1.366 . S
C3658 C3657 1.366 . S
C3658 C3659 1.414 . S
C3658 C3661 1.499 . S
C3659 H3633 0.950 . S
C3659 C3658 1.414 . S
C3659 C3660 1.374 . S
C3660 H3634 0.950 . S
C3660 C3656 1.385 . S
C3660 C3659 1.374 . S
C3661 C3658 1.499 . S
C3661 C3662 1.373 . S
C3661 C3663 1.389 . S
C3662 H3635 0.950 . S
C3662 C3648 1.377 . S
C3662 C3661 1.373 . S
C3663 C3647 1.377 . S
C3663 C3661 1.389 . S
C3663 C3664 1.524 . S
C3664 C3663 1.524 . S
C3664 C3665 1.397 . S
C3664 C3669 1.363 . S
C3665 H3636 0.950 . S
C3665 C3664 1.397 . S
C3665 C3666 1.334 . S
C3666 H3637 0.950 . S
C3666 C3665 1.334 . S
C3666 C3667 1.287 . S
C3667 C3666 1.287 . S
C3667 C3668 1.524 . S
C3667 H3670 0.999 . S
C3668 H3638 0.950 . S
C3668 C3667 1.524 . S
C3668 C3669 1.415 . S
C3669 H3639 0.950 . S
C3669 C3664 1.363 . S
C3669 C3668 1.415 . S
H3670 C3667 0.999 . S
H3671 C3652 0.913 . S
H3672 C3690 0.951 . S
H3673 C3692 0.951 . S
H3674 C3694 0.950 . S
H3675 C3695 0.950 . S
H3676 C3697 0.950 . S
H3677 C3700 0.950 . S
H3678 C3701 0.950 . S
H3679 C3703 0.950 . S
H3680 C3704 0.950 . S
H3681 C3705 0.951 . S
H3682 C3707 0.951 . S
H3683 C3709 0.950 . S
H3684 C3710 0.950 . S
H3685 C3712 0.950 . S
H3686 C3715 0.950 . S
H3687 C3716 0.950 . S
H3688 C3718 0.950 . S
H3689 C3719 0.950 . S
C3690 H3672 0.951 . S
C3690 C3691 1.366 . S
C3690 C3692 1.388 . S
C3691 C3690 1.366 . S
C3691 C3695 1.385 . S
C3692 H3673 0.951 . S
C3692 C3690 1.388 . S
C3692 C3693 1.366 . S
C3693 C3692 1.366 . S
C3693 C3694 1.414 . S
C3693 C3696 1.499 . S
C3694 H3674 0.950 . S
C3694 C3693 1.414 . S
C3694 C3695 1.374 . S
C3695 H3675 0.950 . S
C3695 C3691 1.385 . S
C3695 C3694 1.374 . S
C3696 C3693 1.499 . S
C3696 C3697 1.373 . S
C3696 C3698 1.389 . S
C3697 H3676 0.950 . S
C3697 C3696 1.373 . S
C3697 C3713 1.377 . S
C3698 C3696 1.389 . S
C3698 C3699 1.524 . S
C3698 C3712 1.377 . S
C3699 C3698 1.524 . S
C3699 C3700 1.397 . S
C3699 C3704 1.363 . S
C3700 H3677 0.950 . S
C3700 C3699 1.397 . S
C3700 C3701 1.334 . S
C3701 H3678 0.950 . S
C3701 C3700 1.334 . S
C3701 C3702 1.287 . S
C3702 C3701 1.287 . S
C3702 C3703 1.524 . S
C3702 H3721 0.913 . S
C3703 H3679 0.950 . S
C3703 C3702 1.524 . S
C3703 C3704 1.415 . S
C3704 H3680 0.950 . S
C3704 C3699 1.363 . S
C3704 C3703 1.415 . S
C3705 H3681 0.951 . S
C3705 C3706 1.366 . S
C3705 C3707 1.388 . S
C3706 C3705 1.366 . S
C3706 C3710 1.385 . S
C3707 H3682 0.951 . S
C3707 C3705 1.388 . S
C3707 C3708 1.366 . S
C3708 C3707 1.366 . S
C3708 C3709 1.414 . S
C3708 C3711 1.499 . S
C3709 H3683 0.950 . S
C3709 C3708 1.414 . S
C3709 C3710 1.374 . S
C3710 H3684 0.950 . S
C3710 C3706 1.385 . S
C3710 C3709 1.374 . S
C3711 C3708 1.499 . S
C3711 C3712 1.373 . S
C3711 C3713 1.389 . S
C3712 H3685 0.950 . S
C3712 C3698 1.377 . S
C3712 C3711 1.373 . S
C3713 C3697 1.377 . S
C3713 C3711 1.389 . S
C3713 C3714 1.524 . S
C3714 C3713 1.524 . S
C3714 C3715 1.397 . S
C3714 C3719 1.363 . S
C3715 H3686 0.950 . S
C3715 C3714 1.397 . S
C3715 C3716 1.334 . S
C3716 H3687 0.950 . S
C3716 C3715 1.334 . S
C3716 C3717 1.287 . S
C3717 C3716 1.287 . S
C3717 C3718 1.524 . S
C3717 H3720 0.999 . S
C3718 H3688 0.950 . S
C3718 C3717 1.524 . S
C3718 C3719 1.415 . S
C3719 H3689 0.950 . S
C3719 C3714 1.363 . S
C3719 C3718 1.415 . S
H3720 C3717 0.999 . S
H3721 C3702 0.913 . S
H3722 C3740 0.951 . S
H3723 C3742 0.951 . S
H3724 C3744 0.950 . S
H3725 C3745 0.950 . S
H3726 C3747 0.950 . S
H3727 C3750 0.950 . S
H3728 C3751 0.950 . S
H3729 C3753 0.950 . S
H3730 C3754 0.950 . S
H3731 C3755 0.951 . S
H3732 C3757 0.951 . S
H3733 C3759 0.950 . S
H3734 C3760 0.950 . S
H3735 C3762 0.950 . S
H3736 C3765 0.950 . S
H3737 C3766 0.950 . S
H3738 C3768 0.950 . S
H3739 C3769 0.950 . S
C3740 H3722 0.951 . S
C3740 C3741 1.366 . S
C3740 C3742 1.388 . S
C3741 C3740 1.366 . S
C3741 C3745 1.385 . S
C3742 H3723 0.951 . S
C3742 C3740 1.388 . S
C3742 C3743 1.366 . S
C3743 C3742 1.366 . S
C3743 C3744 1.414 . S
C3743 C3746 1.499 . S
C3744 H3724 0.950 . S
C3744 C3743 1.414 . S
C3744 C3745 1.374 . S
C3745 H3725 0.950 . S
C3745 C3741 1.385 . S
C3745 C3744 1.374 . S
C3746 C3743 1.499 . S
C3746 C3747 1.373 . S
C3746 C3748 1.389 . S
C3747 H3726 0.950 . S
C3747 C3746 1.373 . S
C3747 C3763 1.377 . S
C3748 C3746 1.389 . S
C3748 C3749 1.524 . S
C3748 C3762 1.377 . S
C3749 C3748 1.524 . S
C3749 C3750 1.397 . S
C3749 C3754 1.363 . S
C3750 H3727 0.950 . S
C3750 C3749 1.397 . S
C3750 C3751 1.334 . S
C3751 H3728 0.950 . S
C3751 C3750 1.334 . S
C3751 C3752 1.287 . S
C3752 C3751 1.287 . S
C3752 C3753 1.524 . S
C3752 H3771 0.913 . S
C3753 H3729 0.950 . S
C3753 C3752 1.524 . S
C3753 C3754 1.415 . S
C3754 H3730 0.950 . S
C3754 C3749 1.363 . S
C3754 C3753 1.415 . S
C3755 H3731 0.951 . S
C3755 C3756 1.366 . S
C3755 C3757 1.388 . S
C3756 C3755 1.366 . S
C3756 C3760 1.385 . S
C3757 H3732 0.951 . S
C3757 C3755 1.388 . S
C3757 C3758 1.366 . S
C3758 C3757 1.366 . S
C3758 C3759 1.414 . S
C3758 C3761 1.499 . S
C3759 H3733 0.950 . S
C3759 C3758 1.414 . S
C3759 C3760 1.374 . S
C3760 H3734 0.950 . S
C3760 C3756 1.385 . S
C3760 C3759 1.374 . S
C3761 C3758 1.499 . S
C3761 C3762 1.373 . S
C3761 C3763 1.389 . S
C3762 H3735 0.950 . S
C3762 C3748 1.377 . S
C3762 C3761 1.373 . S
C3763 C3747 1.377 . S
C3763 C3761 1.389 . S
C3763 C3764 1.524 . S
C3764 C3763 1.524 . S
C3764 C3765 1.397 . S
C3764 C3769 1.363 . S
C3765 H3736 0.950 . S
C3765 C3764 1.397 . S
C3765 C3766 1.334 . S
C3766 H3737 0.950 . S
C3766 C3765 1.334 . S
C3766 C3767 1.287 . S
C3767 C3766 1.287 . S
C3767 C3768 1.524 . S
C3767 H3770 0.999 . S
C3768 H3738 0.950 . S
C3768 C3767 1.524 . S
C3768 C3769 1.415 . S
C3769 H3739 0.950 . S
C3769 C3764 1.363 . S
C3769 C3768 1.415 . S
H3770 C3767 0.999 . S
H3771 C3752 0.913 . S
H3772 C3790 0.951 . S
H3773 C3792 0.951 . S
H3774 C3794 0.950 . S
H3775 C3795 0.950 . S
H3776 C3797 0.950 . S
H3777 C3800 0.950 . S
H3778 C3801 0.950 . S
H3779 C3803 0.950 . S
H3780 C3804 0.950 . S
H3781 C3805 0.951 . S
H3782 C3807 0.951 . S
H3783 C3809 0.950 . S
H3784 C3810 0.937 1_455 S
H3785 C3812 0.950 . S
H3786 C3815 0.950 . S
H3787 C3816 0.950 . S
H3788 C3818 0.950 . S
H3789 C3819 0.950 . S
C3790 H3772 0.951 . S
C3790 C3791 1.366 . S
C3790 C3792 1.388 . S
C3791 C3790 1.366 . S
C3791 C3795 1.385 . S
C3792 H3773 0.951 . S
C3792 C3790 1.388 . S
C3792 C3793 1.366 . S
C3793 C3792 1.366 . S
C3793 C3794 1.414 . S
C3793 C3796 1.499 . S
C3794 H3774 0.950 . S
C3794 C3793 1.414 . S
C3794 C3795 1.374 . S
C3795 H3775 0.950 . S
C3795 C3791 1.385 . S
C3795 C3794 1.374 . S
C3796 C3793 1.499 . S
C3796 C3797 1.373 . S
C3796 C3798 1.389 . S
C3797 H3776 0.950 . S
C3797 C3796 1.373 . S
C3797 C3813 1.377 . S
C3798 C3796 1.389 . S
C3798 C3799 1.524 . S
C3798 C3812 1.377 . S
C3799 C3798 1.524 . S
C3799 C3800 1.397 . S
C3799 C3804 1.363 . S
C3800 H3777 0.950 . S
C3800 C3799 1.397 . S
C3800 C3801 1.334 . S
C3801 H3778 0.950 . S
C3801 C3800 1.334 . S
C3801 C3802 1.287 . S
C3802 C3801 1.287 . S
C3802 C3803 1.524 . S
C3802 H3821 0.913 . S
C3803 H3779 0.950 . S
C3803 C3802 1.524 . S
C3803 C3804 1.415 . S
C3804 H3780 0.950 . S
C3804 C3799 1.363 . S
C3804 C3803 1.415 . S
C3805 H3781 0.951 . S
C3805 C3806 1.366 . S
C3805 C3807 1.388 . S
C3806 C3805 1.366 . S
C3806 C3810 1.385 . S
C3807 H3782 0.951 . S
C3807 C3805 1.388 . S
C3807 C3808 1.366 . S
C3808 C3807 1.366 . S
C3808 C3809 1.414 . S
C3808 C3811 1.499 . S
C3809 H3783 0.950 . S
C3809 C3808 1.414 . S
C3809 C3810 1.374 . S
C3810 H3784 0.937 1_655 S
C3810 C3806 1.385 . S
C3810 C3809 1.374 . S
C3811 C3808 1.499 . S
C3811 C3812 1.373 . S
C3811 C3813 1.389 . S
C3812 H3785 0.950 . S
C3812 C3798 1.377 . S
C3812 C3811 1.373 . S
C3813 C3797 1.377 . S
C3813 C3811 1.389 . S
C3813 C3814 1.524 . S
C3814 C3813 1.524 . S
C3814 C3815 1.397 . S
C3814 C3819 1.363 . S
C3815 H3786 0.950 . S
C3815 C3814 1.397 . S
C3815 C3816 1.334 . S
C3816 H3787 0.950 . S
C3816 C3815 1.334 . S
C3816 C3817 1.287 . S
C3817 C3816 1.287 . S
C3817 C3818 1.524 . S
C3817 H3820 0.999 . S
C3818 H3788 0.950 . S
C3818 C3817 1.524 . S
C3818 C3819 1.415 . S
C3819 H3789 0.950 . S
C3819 C3814 1.363 . S
C3819 C3818 1.415 . S
H3820 C3817 0.999 . S
H3821 C3802 0.913 . S
H3822 C3840 0.951 . S
H3823 C3842 0.951 . S
H3824 C3844 0.950 . S
H3825 C3845 0.950 . S
H3826 C3847 0.950 . S
H3827 C3850 0.950 . S
H3828 C3851 0.950 . S
H3829 C3853 0.950 . S
H3830 C3854 0.950 . S
H3831 C3855 0.951 . S
H3832 C3857 0.951 . S
H3833 C3859 0.950 . S
H3834 C3860 0.950 . S
H3835 C3862 0.950 . S
H3836 C3865 0.950 . S
H3837 C3866 0.950 . S
H3838 C3868 0.950 . S
H3839 C3869 0.950 . S
C3840 H3822 0.951 . S
C3840 C3841 1.366 . S
C3840 C3842 1.388 . S
C3841 C3840 1.366 . S
C3841 C3845 1.385 . S
C3842 H3823 0.951 . S
C3842 C3840 1.388 . S
C3842 C3843 1.366 . S
C3843 C3842 1.366 . S
C3843 C3844 1.414 . S
C3843 C3846 1.499 . S
C3844 H3824 0.950 . S
C3844 C3843 1.414 . S
C3844 C3845 1.374 . S
C3845 H3825 0.950 . S
C3845 C3841 1.385 . S
C3845 C3844 1.374 . S
C3846 C3843 1.499 . S
C3846 C3847 1.373 . S
C3846 C3848 1.389 . S
C3847 H3826 0.950 . S
C3847 C3846 1.373 . S
C3847 C3863 1.377 . S
C3848 C3846 1.389 . S
C3848 C3849 1.524 . S
C3848 C3862 1.377 . S
C3849 C3848 1.524 . S
C3849 C3850 1.397 . S
C3849 C3854 1.363 . S
C3850 H3827 0.950 . S
C3850 C3849 1.397 . S
C3850 C3851 1.334 . S
C3851 H3828 0.950 . S
C3851 C3850 1.334 . S
C3851 C3852 1.287 . S
C3852 C3851 1.287 . S
C3852 C3853 1.524 . S
C3852 H3871 0.913 . S
C3853 H3829 0.950 . S
C3853 C3852 1.524 . S
C3853 C3854 1.415 . S
C3854 H3830 0.950 . S
C3854 C3849 1.363 . S
C3854 C3853 1.415 . S
C3855 H3831 0.951 . S
C3855 C3856 1.366 . S
C3855 C3857 1.388 . S
C3856 C3855 1.366 . S
C3856 C3860 1.385 . S
C3857 H3832 0.951 . S
C3857 C3855 1.388 . S
C3857 C3858 1.366 . S
C3858 C3857 1.366 . S
C3858 C3859 1.414 . S
C3858 C3861 1.499 . S
C3859 H3833 0.950 . S
C3859 C3858 1.414 . S
C3859 C3860 1.374 . S
C3860 H3834 0.950 . S
C3860 C3856 1.385 . S
C3860 C3859 1.374 . S
C3861 C3858 1.499 . S
C3861 C3862 1.373 . S
C3861 C3863 1.389 . S
C3862 H3835 0.950 . S
C3862 C3848 1.377 . S
C3862 C3861 1.373 . S
C3863 C3847 1.377 . S
C3863 C3861 1.389 . S
C3863 C3864 1.524 . S
C3864 C3863 1.524 . S
C3864 C3865 1.397 . S
C3864 C3869 1.363 . S
C3865 H3836 0.950 . S
C3865 C3864 1.397 . S
C3865 C3866 1.334 . S
C3866 H3837 0.950 . S
C3866 C3865 1.334 . S
C3866 C3867 1.287 . S
C3867 C3866 1.287 . S
C3867 C3868 1.524 . S
C3867 H3870 0.999 . S
C3868 H3838 0.950 . S
C3868 C3867 1.524 . S
C3868 C3869 1.415 . S
C3869 H3839 0.950 . S
C3869 C3864 1.363 . S
C3869 C3868 1.415 . S
H3870 C3867 0.999 . S
H3871 C3852 0.913 . S
H3872 C3890 0.951 . S
H3873 C3892 0.951 . S
H3874 C3894 0.950 . S
H3875 C3895 0.950 . S
H3876 C3897 0.950 . S
H3877 C3900 0.950 . S
H3878 C3901 0.950 . S
H3879 C3903 0.950 . S
H3880 C3904 0.950 . S
H3881 C3905 0.951 . S
H3882 C3907 0.951 . S
H3883 C3909 0.950 . S
H3884 C3910 0.950 . S
H3885 C3912 0.950 . S
H3886 C3915 0.950 . S
H3887 C3916 0.950 . S
H3888 C3918 0.950 . S
H3889 C3919 0.950 . S
C3890 H3872 0.951 . S
C3890 C3891 1.366 . S
C3890 C3892 1.388 . S
C3891 C3890 1.366 . S
C3891 C3895 1.385 . S
C3892 H3873 0.951 . S
C3892 C3890 1.388 . S
C3892 C3893 1.366 . S
C3893 C3892 1.366 . S
C3893 C3894 1.414 . S
C3893 C3896 1.499 . S
C3894 H3874 0.950 . S
C3894 C3893 1.414 . S
C3894 C3895 1.374 . S
C3895 H3875 0.950 . S
C3895 C3891 1.385 . S
C3895 C3894 1.374 . S
C3896 C3893 1.499 . S
C3896 C3897 1.373 . S
C3896 C3898 1.389 . S
C3897 H3876 0.950 . S
C3897 C3896 1.373 . S
C3897 C3913 1.377 . S
C3898 C3896 1.389 . S
C3898 C3899 1.524 . S
C3898 C3912 1.377 . S
C3899 C3898 1.524 . S
C3899 C3900 1.397 . S
C3899 C3904 1.363 . S
C3900 H3877 0.950 . S
C3900 C3899 1.397 . S
C3900 C3901 1.334 . S
C3901 H3878 0.950 . S
C3901 C3900 1.334 . S
C3901 C3902 1.287 . S
C3902 C3901 1.287 . S
C3902 C3903 1.524 . S
C3902 H3921 0.913 . S
C3903 H3879 0.950 . S
C3903 C3902 1.524 . S
C3903 C3904 1.415 . S
C3904 H3880 0.950 . S
C3904 C3899 1.363 . S
C3904 C3903 1.415 . S
C3905 H3881 0.951 . S
C3905 C3906 1.366 . S
C3905 C3907 1.388 . S
C3906 C3905 1.366 . S
C3906 C3910 1.385 . S
C3907 H3882 0.951 . S
C3907 C3905 1.388 . S
C3907 C3908 1.366 . S
C3908 C3907 1.366 . S
C3908 C3909 1.414 . S
C3908 C3911 1.499 . S
C3909 H3883 0.950 . S
C3909 C3908 1.414 . S
C3909 C3910 1.374 . S
C3910 H3884 0.950 . S
C3910 C3906 1.385 . S
C3910 C3909 1.374 . S
C3911 C3908 1.499 . S
C3911 C3912 1.373 . S
C3911 C3913 1.389 . S
C3912 H3885 0.950 . S
C3912 C3898 1.377 . S
C3912 C3911 1.373 . S
C3913 C3897 1.377 . S
C3913 C3911 1.389 . S
C3913 C3914 1.524 . S
C3914 C3913 1.524 . S
C3914 C3915 1.397 . S
C3914 C3919 1.363 . S
C3915 H3886 0.950 . S
C3915 C3914 1.397 . S
C3915 C3916 1.334 . S
C3916 H3887 0.950 . S
C3916 C3915 1.334 . S
C3916 C3917 1.287 . S
C3917 C3916 1.287 . S
C3917 C3918 1.524 . S
C3917 H3920 0.999 . S
C3918 H3888 0.950 . S
C3918 C3917 1.524 . S
C3918 C3919 1.415 . S
C3919 H3889 0.950 . S
C3919 C3914 1.363 . S
C3919 C3918 1.415 . S
H3920 C3917 0.999 . S
H3921 C3902 0.913 . S
H3922 C3940 0.951 . S
H3923 C3942 0.951 . S
H3924 C3944 0.950 . S
H3925 C3945 0.950 . S
H3926 C3947 0.950 . S
H3927 C3950 0.950 . S
H3928 C3951 0.950 . S
H3929 C3953 0.950 . S
H3930 C3954 0.950 . S
H3931 C3955 0.931 1_545 S
H3932 C3957 0.951 . S
H3933 C3959 0.950 . S
H3934 C3960 0.950 . S
H3935 C3962 0.950 . S
H3936 C3965 0.950 . S
H3937 C3966 0.950 . S
H3938 C3968 0.950 . S
H3939 C3969 0.950 . S
C3940 H3922 0.951 . S
C3940 C3941 1.366 . S
C3940 C3942 1.388 . S
C3941 C3940 1.366 . S
C3941 C3945 1.385 . S
C3942 H3923 0.951 . S
C3942 C3940 1.388 . S
C3942 C3943 1.366 . S
C3943 C3942 1.366 . S
C3943 C3944 1.414 . S
C3943 C3946 1.499 . S
C3944 H3924 0.950 . S
C3944 C3943 1.414 . S
C3944 C3945 1.374 . S
C3945 H3925 0.950 . S
C3945 C3941 1.385 . S
C3945 C3944 1.374 . S
C3946 C3943 1.499 . S
C3946 C3947 1.373 . S
C3946 C3948 1.389 . S
C3947 H3926 0.950 . S
C3947 C3946 1.373 . S
C3947 C3963 1.377 . S
C3948 C3946 1.389 . S
C3948 C3949 1.524 . S
C3948 C3962 1.377 . S
C3949 C3948 1.524 . S
C3949 C3950 1.397 . S
C3949 C3954 1.363 . S
C3950 H3927 0.950 . S
C3950 C3949 1.397 . S
C3950 C3951 1.334 . S
C3951 H3928 0.950 . S
C3951 C3950 1.334 . S
C3951 C3952 1.287 . S
C3952 C3951 1.287 . S
C3952 C3953 1.524 . S
C3952 H3971 0.913 . S
C3953 H3929 0.950 . S
C3953 C3952 1.524 . S
C3953 C3954 1.415 . S
C3954 H3930 0.950 . S
C3954 C3949 1.363 . S
C3954 C3953 1.415 . S
C3955 H3931 0.931 1_565 S
C3955 C3956 1.366 . S
C3955 C3957 1.388 . S
C3956 C3955 1.366 . S
C3956 C3960 1.385 . S
C3957 H3932 0.951 . S
C3957 C3955 1.388 . S
C3957 C3958 1.366 . S
C3958 C3957 1.366 . S
C3958 C3959 1.414 . S
C3958 C3961 1.499 . S
C3959 H3933 0.950 . S
C3959 C3958 1.414 . S
C3959 C3960 1.374 . S
C3960 H3934 0.950 . S
C3960 C3956 1.385 . S
C3960 C3959 1.374 . S
C3961 C3958 1.499 . S
C3961 C3962 1.373 . S
C3961 C3963 1.389 . S
C3962 H3935 0.950 . S
C3962 C3948 1.377 . S
C3962 C3961 1.373 . S
C3963 C3947 1.377 . S
C3963 C3961 1.389 . S
C3963 C3964 1.524 . S
C3964 C3963 1.524 . S
C3964 C3965 1.397 . S
C3964 C3969 1.363 . S
C3965 H3936 0.950 . S
C3965 C3964 1.397 . S
C3965 C3966 1.334 1_565 S
C3966 H3937 0.950 . S
C3966 C3965 1.334 1_545 S
C3966 C3967 1.287 . S
C3967 C3966 1.287 . S
C3967 C3968 1.524 . S
C3967 H3970 0.999 . S
C3968 H3938 0.950 . S
C3968 C3967 1.524 . S
C3968 C3969 1.415 1_545 S
C3969 H3939 0.950 . S
C3969 C3964 1.363 . S
C3969 C3968 1.415 1_565 S
H3970 C3967 0.999 . S
H3971 C3952 0.913 . S
H3972 C3990 0.951 . S
H3973 C3992 0.951 . S
H3974 C3994 0.950 . S
H3975 C3995 0.950 . S
H3976 C3997 0.950 . S
H3977 C4000 0.950 . S
H3978 C4001 0.950 . S
H3979 C4003 0.950 . S
H3980 C4004 0.950 . S
H3981 C4005 0.951 . S
H3982 C4007 0.951 . S
H3983 C4009 0.950 . S
H3984 C4010 0.950 . S
H3985 C4012 0.950 . S
H3986 C4015 0.950 . S
H3987 C4016 0.950 . S
H3988 C4018 0.950 . S
H3989 C4019 0.950 . S
C3990 H3972 0.951 . S
C3990 C3991 1.366 . S
C3990 C3992 1.388 . S
C3991 C3990 1.366 . S
C3991 C3995 1.385 . S
C3992 H3973 0.951 . S
C3992 C3990 1.388 . S
C3992 C3993 1.366 . S
C3993 C3992 1.366 . S
C3993 C3994 1.414 . S
C3993 C3996 1.499 . S
C3994 H3974 0.950 . S
C3994 C3993 1.414 . S
C3994 C3995 1.374 . S
C3995 H3975 0.950 . S
C3995 C3991 1.385 . S
C3995 C3994 1.374 . S
C3996 C3993 1.499 . S
C3996 C3997 1.373 . S
C3996 C3998 1.389 . S
C3997 H3976 0.950 . S
C3997 C3996 1.373 . S
C3997 C4013 1.377 . S
C3998 C3996 1.389 . S
C3998 C3999 1.524 . S
C3998 C4012 1.377 . S
C3999 C3998 1.524 . S
C3999 C4000 1.397 . S
C3999 C4004 1.363 . S
C4000 H3977 0.950 . S
C4000 C3999 1.397 . S
C4000 C4001 1.334 . S
C4001 H3978 0.950 . S
C4001 C4000 1.334 . S
C4001 C4002 1.287 . S
C4002 C4001 1.287 . S
C4002 C4003 1.524 . S
C4002 H4021 0.913 . S
C4003 H3979 0.950 . S
C4003 C4002 1.524 . S
C4003 C4004 1.415 . S
C4004 H3980 0.950 . S
C4004 C3999 1.363 . S
C4004 C4003 1.415 . S
C4005 H3981 0.951 . S
C4005 C4006 1.366 . S
C4005 C4007 1.388 . S
C4006 C4005 1.366 . S
C4006 C4010 1.385 . S
C4007 H3982 0.951 . S
C4007 C4005 1.388 . S
C4007 C4008 1.366 . S
C4008 C4007 1.366 . S
C4008 C4009 1.414 . S
C4008 C4011 1.499 . S
C4009 H3983 0.950 . S
C4009 C4008 1.414 . S
C4009 C4010 1.374 . S
C4010 H3984 0.950 . S
C4010 C4006 1.385 . S
C4010 C4009 1.374 . S
C4011 C4008 1.499 . S
C4011 C4012 1.373 . S
C4011 C4013 1.389 . S
C4012 H3985 0.950 . S
C4012 C3998 1.377 . S
C4012 C4011 1.373 . S
C4013 C3997 1.377 . S
C4013 C4011 1.389 . S
C4013 C4014 1.524 . S
C4014 C4013 1.524 . S
C4014 C4015 1.397 . S
C4014 C4019 1.363 . S
C4015 H3986 0.950 . S
C4015 C4014 1.397 . S
C4015 C4016 1.334 . S
C4016 H3987 0.950 . S
C4016 C4015 1.334 . S
C4016 C4017 1.287 . S
C4017 C4016 1.287 . S
C4017 C4018 1.524 . S
C4017 H4020 0.999 . S
C4018 H3988 0.950 . S
C4018 C4017 1.524 . S
C4018 C4019 1.415 . S
C4019 H3989 0.950 . S
C4019 C4014 1.363 . S
C4019 C4018 1.415 . S
H4020 C4017 0.999 . S
H4021 C4002 0.913 . S
H4022 C4040 0.951 . S
H4023 C4042 0.951 . S
H4024 C4044 0.950 . S
H4025 C4045 0.950 . S
H4026 C4047 0.950 . S
H4027 C4050 0.950 . S
H4028 C4051 0.950 . S
H4029 C4053 0.950 1_565 S
H4030 C4054 0.950 . S
H4031 C4055 0.951 . S
H4032 C4057 0.951 . S
H4033 C4059 0.950 . S
H4034 C4060 0.950 . S
H4035 C4062 0.950 . S
H4036 C4065 0.950 . S
H4037 C4066 0.950 . S
H4038 C4068 0.950 . S
H4039 C4069 0.950 . S
C4040 H4022 0.951 . S
C4040 C4041 1.366 1_556 S
C4040 C4042 1.388 . S
C4041 C4040 1.366 1_554 S
C4041 C4045 1.385 . S
C4042 H4023 0.951 . S
C4042 C4040 1.388 . S
C4042 C4043 1.366 1_556 S
C4043 C4042 1.366 1_554 S
C4043 C4044 1.414 . S
C4043 C4046 1.499 . S
C4044 H4024 0.950 . S
C4044 C4043 1.414 . S
C4044 C4045 1.374 . S
C4045 H4025 0.950 . S
C4045 C4041 1.385 . S
C4045 C4044 1.374 . S
C4046 C4043 1.499 . S
C4046 C4047 1.373 . S
C4046 C4048 1.389 . S
C4047 H4026 0.950 . S
C4047 C4046 1.373 . S
C4047 C4063 1.377 . S
C4048 C4046 1.389 . S
C4048 C4049 1.524 . S
C4048 C4062 1.377 . S
C4049 C4048 1.524 . S
C4049 C4050 1.397 . S
C4049 C4054 1.363 1_554 S
C4050 H4027 0.950 . S
C4050 C4049 1.397 . S
C4050 C4051 1.334 . S
C4051 H4028 0.950 . S
C4051 C4050 1.334 . S
C4051 C4052 1.287 . S
C4052 C4051 1.287 . S
C4052 C4053 1.524 1_554 S
C4052 H4071 0.913 . S
C4053 H4029 0.950 1_545 S
C4053 C4052 1.524 1_556 S
C4053 C4054 1.415 . S
C4054 H4030 0.950 . S
C4054 C4049 1.363 1_556 S
C4054 C4053 1.415 . S
C4055 H4031 0.951 . S
C4055 C4056 1.366 . S
C4055 C4057 1.388 . S
C4056 C4055 1.366 . S
C4056 C4060 1.385 1_554 S
C4057 H4032 0.951 . S
C4057 C4055 1.388 . S
C4057 C4058 1.366 . S
C4058 C4057 1.366 . S
C4058 C4059 1.414 1_554 S
C4058 C4061 1.499 . S
C4059 H4033 0.950 . S
C4059 C4058 1.414 1_556 S
C4059 C4060 1.374 . S
C4060 H4034 0.950 . S
C4060 C4056 1.385 1_556 S
C4060 C4059 1.374 . S
C4061 C4058 1.499 . S
C4061 C4062 1.373 . S
C4061 C4063 1.389 . S
C4062 H4035 0.950 . S
C4062 C4048 1.377 . S
C4062 C4061 1.373 . S
C4063 C4047 1.377 . S
C4063 C4061 1.389 . S
C4063 C4064 1.524 . S
C4064 C4063 1.524 . S
C4064 C4065 1.397 1_554 S
C4064 C4069 1.363 . S
C4065 H4036 0.950 . S
C4065 C4064 1.397 1_556 S
C4065 C4066 1.334 . S
C4066 H4037 0.950 . S
C4066 C4065 1.334 . S
C4066 C4067 1.295 . S
C4067 C4066 1.295 . S
C4067 C4068 1.513 1_556 S
C4067 H4070 1.001 . S
C4068 H4038 0.950 . S
C4068 C4067 1.513 1_554 S
C4068 C4069 1.415 . S
C4069 H4039 0.950 . S
C4069 C4064 1.363 . S
C4069 C4068 1.415 . S
H4070 C4067 1.001 . S
H4071 C4052 0.913 . S
H4072 C4090 0.951 . S
H4073 C4092 0.951 . S
H4074 C4094 0.950 . S
H4075 C4095 0.950 . S
H4076 C4097 0.950 . S
H4077 C4100 0.950 . S
H4078 C4101 0.950 . S
H4079 C4103 0.950 . S
H4080 C4104 0.950 . S
H4081 C4105 0.951 . S
H4082 C4107 0.951 . S
H4083 C4109 0.950 . S
H4084 C4110 0.950 . S
H4085 C4112 0.950 . S
H4086 C4115 0.950 . S
H4087 C4116 0.950 . S
H4088 C4118 0.950 . S
H4089 C4119 0.950 . S
C4090 H4072 0.951 . S
C4090 C4091 1.366 . S
C4090 C4092 1.388 . S
C4091 C4090 1.366 . S
C4091 C4095 1.385 . S
C4092 H4073 0.951 . S
C4092 C4090 1.388 . S
C4092 C4093 1.366 . S
C4093 C4092 1.366 . S
C4093 C4094 1.414 . S
C4093 C4096 1.499 . S
C4094 H4074 0.950 . S
C4094 C4093 1.414 . S
C4094 C4095 1.374 . S
C4095 H4075 0.950 . S
C4095 C4091 1.385 . S
C4095 C4094 1.374 . S
C4096 C4093 1.499 . S
C4096 C4097 1.373 . S
C4096 C4098 1.389 . S
C4097 H4076 0.950 . S
C4097 C4096 1.373 . S
C4097 C4113 1.377 . S
C4098 C4096 1.389 . S
C4098 C4099 1.524 . S
C4098 C4112 1.377 . S
C4099 C4098 1.524 . S
C4099 C4100 1.397 . S
C4099 C4104 1.363 . S
C4100 H4077 0.950 . S
C4100 C4099 1.397 . S
C4100 C4101 1.334 . S
C4101 H4078 0.950 . S
C4101 C4100 1.334 . S
C4101 C4102 1.287 . S
C4102 C4101 1.287 . S
C4102 C4103 1.524 . S
C4102 H4121 0.913 . S
C4103 H4079 0.950 . S
C4103 C4102 1.524 . S
C4103 C4104 1.415 . S
C4104 H4080 0.950 . S
C4104 C4099 1.363 . S
C4104 C4103 1.415 . S
C4105 H4081 0.951 . S
C4105 C4106 1.366 . S
C4105 C4107 1.388 . S
C4106 C4105 1.366 . S
C4106 C4110 1.385 . S
C4107 H4082 0.951 . S
C4107 C4105 1.388 . S
C4107 C4108 1.366 . S
C4108 C4107 1.366 . S
C4108 C4109 1.414 . S
C4108 C4111 1.499 . S
C4109 H4083 0.950 . S
C4109 C4108 1.414 . S
C4109 C4110 1.374 . S
C4110 H4084 0.950 . S
C4110 C4106 1.385 . S
C4110 C4109 1.374 . S
C4111 C4108 1.499 . S
C4111 C4112 1.373 . S
C4111 C4113 1.389 . S
C4112 H4085 0.950 . S
C4112 C4098 1.377 . S
C4112 C4111 1.373 . S
C4113 C4097 1.377 . S
C4113 C4111 1.389 . S
C4113 C4114 1.524 . S
C4114 C4113 1.524 . S
C4114 C4115 1.397 . S
C4114 C4119 1.363 . S
C4115 H4086 0.950 . S
C4115 C4114 1.397 . S
C4115 C4116 1.334 . S
C4116 H4087 0.950 . S
C4116 C4115 1.334 . S
C4116 C4117 1.287 . S
C4117 C4116 1.287 . S
C4117 C4118 1.524 . S
C4117 H4120 0.999 . S
C4118 H4088 0.950 . S
C4118 C4117 1.524 . S
C4118 C4119 1.415 . S
C4119 H4089 0.950 . S
C4119 C4114 1.363 . S
C4119 C4118 1.415 . S
H4120 C4117 0.999 . S
H4121 C4102 0.913 . S
H4122 C4140 0.951 . S
H4123 C4142 0.951 . S
H4124 C4144 0.950 . S
H4125 C4145 0.950 . S
H4126 C4147 0.950 . S
H4127 C4150 0.950 . S
H4128 C4151 0.950 . S
H4129 C4153 0.950 . S
H4130 C4154 0.950 . S
H4131 C4155 0.951 . S
H4132 C4157 0.951 . S
H4133 C4159 0.950 . S
H4134 C4160 0.950 . S
H4135 C4162 0.950 . S
H4136 C4165 0.950 . S
H4137 C4166 0.950 . S
H4138 C4168 0.950 . S
H4139 C4169 0.950 . S
C4140 H4122 0.951 . S
C4140 C4141 1.366 1_556 S
C4140 C4142 1.388 . S
C4141 C4140 1.366 1_554 S
C4141 C4145 1.385 . S
C4142 H4123 0.951 . S
C4142 C4140 1.388 . S
C4142 C4143 1.366 1_556 S
C4143 C4142 1.366 1_554 S
C4143 C4144 1.414 . S
C4143 C4146 1.499 . S
C4144 H4124 0.950 . S
C4144 C4143 1.414 . S
C4144 C4145 1.374 . S
C4145 H4125 0.950 . S
C4145 C4141 1.385 . S
C4145 C4144 1.374 . S
C4146 C4143 1.499 . S
C4146 C4147 1.373 1_554 S
C4146 C4148 1.389 . S
C4147 H4126 0.950 . S
C4147 C4146 1.373 1_556 S
C4147 C4163 1.377 . S
C4148 C4146 1.389 . S
C4148 C4149 1.524 . S
C4148 C4162 1.377 . S
C4149 C4148 1.524 . S
C4149 C4150 1.397 . S
C4149 C4154 1.363 . S
C4150 H4127 0.950 . S
C4150 C4149 1.397 . S
C4150 C4151 1.334 . S
C4151 H4128 0.950 . S
C4151 C4150 1.334 . S
C4151 C4152 1.287 . S
C4152 C4151 1.287 . S
C4152 C4153 1.524 . S
C4152 H4171 0.913 . S
C4153 H4129 0.950 . S
C4153 C4152 1.524 . S
C4153 C4154 1.415 . S
C4154 H4130 0.950 . S
C4154 C4149 1.363 . S
C4154 C4153 1.415 . S
C4155 H4131 0.951 . S
C4155 C4156 1.366 1_554 S
C4155 C4157 1.388 . S
C4156 C4155 1.366 1_556 S
C4156 C4160 1.385 . S
C4157 H4132 0.951 . S
C4157 C4155 1.388 . S
C4157 C4158 1.366 1_554 S
C4158 C4157 1.366 1_556 S
C4158 C4159 1.414 . S
C4158 C4161 1.499 . S
C4159 H4133 0.950 . S
C4159 C4158 1.414 . S
C4159 C4160 1.374 . S
C4160 H4134 0.950 . S
C4160 C4156 1.385 . S
C4160 C4159 1.374 . S
C4161 C4158 1.499 . S
C4161 C4162 1.373 1_556 S
C4161 C4163 1.389 . S
C4162 H4135 0.950 . S
C4162 C4148 1.377 . S
C4162 C4161 1.373 1_554 S
C4163 C4147 1.377 . S
C4163 C4161 1.389 . S
C4163 C4164 1.524 . S
C4164 C4163 1.524 . S
C4164 C4165 1.397 . S
C4164 C4169 1.363 . S
C4165 H4136 0.950 . S
C4165 C4164 1.397 . S
C4165 C4166 1.334 . S
C4166 H4137 0.950 . S
C4166 C4165 1.334 . S
C4166 C4167 1.287 . S
C4167 C4166 1.287 . S
C4167 C4168 1.524 . S
C4167 H4170 0.999 . S
C4168 H4138 0.950 . S
C4168 C4167 1.524 . S
C4168 C4169 1.415 . S
C4169 H4139 0.950 . S
C4169 C4164 1.363 . S
C4169 C4168 1.415 . S
H4170 C4167 0.999 . S
H4171 C4152 0.913 . S
H4172 C4190 0.951 . S
H4173 C4192 0.951 . S
H4174 C4194 0.950 . S
H4175 C4195 0.950 . S
H4176 C4197 0.950 . S
H4177 C4200 0.950 . S
H4178 C4201 0.950 . S
H4179 C4203 0.950 . S
H4180 C4204 0.950 . S
H4181 C4205 0.951 . S
H4182 C4207 0.951 . S
H4183 C4209 0.950 . S
H4184 C4210 0.950 . S
H4185 C4212 0.950 . S
H4186 C4215 0.950 . S
H4187 C4216 0.950 . S
H4188 C4218 0.950 . S
H4189 C4219 0.950 . S
C4190 H4172 0.951 . S
C4190 C4191 1.366 . S
C4190 C4192 1.388 . S
C4191 C4190 1.366 . S
C4191 C4195 1.385 . S
C4192 H4173 0.951 . S
C4192 C4190 1.388 . S
C4192 C4193 1.366 . S
C4193 C4192 1.366 . S
C4193 C4194 1.414 . S
C4193 C4196 1.499 . S
C4194 H4174 0.950 . S
C4194 C4193 1.414 . S
C4194 C4195 1.374 . S
C4195 H4175 0.950 . S
C4195 C4191 1.385 . S
C4195 C4194 1.374 . S
C4196 C4193 1.499 . S
C4196 C4197 1.373 . S
C4196 C4198 1.389 . S
C4197 H4176 0.950 . S
C4197 C4196 1.373 . S
C4197 C4213 1.377 . S
C4198 C4196 1.389 . S
C4198 C4199 1.524 . S
C4198 C4212 1.377 . S
C4199 C4198 1.524 . S
C4199 C4200 1.397 . S
C4199 C4204 1.363 . S
C4200 H4177 0.950 . S
C4200 C4199 1.397 . S
C4200 C4201 1.334 . S
C4201 H4178 0.950 . S
C4201 C4200 1.334 . S
C4201 C4202 1.287 . S
C4202 C4201 1.287 . S
C4202 C4203 1.524 . S
C4202 H4221 0.913 . S
C4203 H4179 0.950 . S
C4203 C4202 1.524 . S
C4203 C4204 1.415 . S
C4204 H4180 0.950 . S
C4204 C4199 1.363 . S
C4204 C4203 1.415 . S
C4205 H4181 0.951 . S
C4205 C4206 1.366 . S
C4205 C4207 1.388 . S
C4206 C4205 1.366 . S
C4206 C4210 1.385 . S
C4207 H4182 0.951 . S
C4207 C4205 1.388 . S
C4207 C4208 1.366 . S
C4208 C4207 1.366 . S
C4208 C4209 1.414 . S
C4208 C4211 1.499 . S
C4209 H4183 0.950 . S
C4209 C4208 1.414 . S
C4209 C4210 1.374 . S
C4210 H4184 0.950 . S
C4210 C4206 1.385 . S
C4210 C4209 1.374 . S
C4211 C4208 1.499 . S
C4211 C4212 1.373 . S
C4211 C4213 1.389 . S
C4212 H4185 0.950 . S
C4212 C4198 1.377 . S
C4212 C4211 1.373 . S
C4213 C4197 1.377 . S
C4213 C4211 1.389 . S
C4213 C4214 1.524 . S
C4214 C4213 1.524 . S
C4214 C4215 1.397 . S
C4214 C4219 1.363 . S
C4215 H4186 0.950 . S
C4215 C4214 1.397 . S
C4215 C4216 1.334 . S
C4216 H4187 0.950 . S
C4216 C4215 1.334 . S
C4216 C4217 1.287 . S
C4217 C4216 1.287 . S
C4217 C4218 1.524 . S
C4217 H4220 0.999 . S
C4218 H4188 0.950 . S
C4218 C4217 1.524 . S
C4218 C4219 1.415 . S
C4219 H4189 0.950 . S
C4219 C4214 1.363 . S
C4219 C4218 1.415 . S
H4220 C4217 0.999 . S
H4221 C4202 0.913 . S
H4222 C4240 0.951 . S
H4223 C4242 0.951 . S
H4224 C4244 0.950 . S
H4225 C4245 0.950 . S
H4226 C4247 0.950 . S
H4227 C4250 0.950 . S
H4228 C4251 0.950 . S
H4229 C4253 0.950 . S
H4230 C4254 0.950 . S
H4231 C4255 0.951 . S
H4232 C4257 0.951 . S
H4233 C4259 0.950 . S
H4234 C4260 0.950 . S
H4235 C4262 0.950 . S
H4236 C4265 0.950 . S
H4237 C4266 0.950 . S
H4238 C4268 0.950 . S
H4239 C4269 0.950 . S
C4240 H4222 0.951 . S
C4240 C4241 1.366 . S
C4240 C4242 1.388 . S
C4241 C4240 1.366 . S
C4241 C4245 1.385 . S
C4242 H4223 0.951 . S
C4242 C4240 1.388 . S
C4242 C4243 1.366 . S
C4243 C4242 1.366 . S
C4243 C4244 1.414 . S
C4243 C4246 1.499 . S
C4244 H4224 0.950 . S
C4244 C4243 1.414 . S
C4244 C4245 1.374 . S
C4245 H4225 0.950 . S
C4245 C4241 1.385 . S
C4245 C4244 1.374 . S
C4246 C4243 1.499 . S
C4246 C4247 1.373 . S
C4246 C4248 1.389 . S
C4247 H4226 0.950 . S
C4247 C4246 1.373 . S
C4247 C4263 1.377 . S
C4248 C4246 1.389 . S
C4248 C4249 1.524 . S
C4248 C4262 1.377 . S
C4249 C4248 1.524 . S
C4249 C4250 1.397 . S
C4249 C4254 1.363 . S
C4250 H4227 0.950 . S
C4250 C4249 1.397 . S
C4250 C4251 1.334 . S
C4251 H4228 0.950 . S
C4251 C4250 1.334 . S
C4251 C4252 1.287 . S
C4252 C4251 1.287 . S
C4252 C4253 1.524 . S
C4252 H4271 0.913 . S
C4253 H4229 0.950 . S
C4253 C4252 1.524 . S
C4253 C4254 1.415 . S
C4254 H4230 0.950 . S
C4254 C4249 1.363 . S
C4254 C4253 1.415 . S
C4255 H4231 0.951 . S
C4255 C4256 1.366 . S
C4255 C4257 1.388 . S
C4256 C4255 1.366 . S
C4256 C4260 1.385 . S
C4257 H4232 0.951 . S
C4257 C4255 1.388 . S
C4257 C4258 1.366 . S
C4258 C4257 1.366 . S
C4258 C4259 1.414 . S
C4258 C4261 1.499 . S
C4259 H4233 0.950 . S
C4259 C4258 1.414 . S
C4259 C4260 1.374 . S
C4260 H4234 0.950 . S
C4260 C4256 1.385 . S
C4260 C4259 1.374 . S
C4261 C4258 1.499 . S
C4261 C4262 1.373 . S
C4261 C4263 1.389 . S
C4262 H4235 0.950 . S
C4262 C4248 1.377 . S
C4262 C4261 1.373 . S
C4263 C4247 1.377 . S
C4263 C4261 1.389 . S
C4263 C4264 1.524 . S
C4264 C4263 1.524 . S
C4264 C4265 1.397 . S
C4264 C4269 1.363 . S
C4265 H4236 0.950 . S
C4265 C4264 1.397 . S
C4265 C4266 1.334 . S
C4266 H4237 0.950 . S
C4266 C4265 1.334 . S
C4266 C4267 1.287 . S
C4267 C4266 1.287 . S
C4267 C4268 1.524 . S
C4267 H4270 0.999 . S
C4268 H4238 0.950 . S
C4268 C4267 1.524 . S
C4268 C4269 1.415 . S
C4269 H4239 0.950 . S
C4269 C4264 1.363 . S
C4269 C4268 1.415 . S
H4270 C4267 0.999 . S
H4271 C4252 0.913 . S
H4272 C4290 0.951 . S
H4273 C4292 0.951 . S
H4274 C4294 0.950 . S
H4275 C4295 0.950 . S
H4276 C4297 0.950 . S
H4277 C4300 0.950 . S
H4278 C4301 0.950 . S
H4279 C4303 0.950 . S
H4280 C4304 0.950 . S
H4281 C4305 0.951 . S
H4282 C4307 0.951 . S
H4283 C4309 0.950 . S
H4284 C4310 0.950 . S
H4285 C4312 0.950 . S
H4286 C4315 0.950 . S
H4287 C4316 0.950 . S
H4288 C4318 0.950 . S
H4289 C4319 0.950 . S
C4290 H4272 0.951 . S
C4290 C4291 1.366 . S
C4290 C4292 1.388 . S
C4291 C4290 1.366 . S
C4291 C4295 1.385 . S
C4292 H4273 0.951 . S
C4292 C4290 1.388 . S
C4292 C4293 1.366 . S
C4293 C4292 1.366 . S
C4293 C4294 1.414 . S
C4293 C4296 1.499 . S
C4294 H4274 0.950 . S
C4294 C4293 1.414 . S
C4294 C4295 1.374 . S
C4295 H4275 0.950 . S
C4295 C4291 1.385 . S
C4295 C4294 1.374 . S
C4296 C4293 1.499 . S
C4296 C4297 1.373 . S
C4296 C4298 1.389 . S
C4297 H4276 0.950 . S
C4297 C4296 1.373 . S
C4297 C4313 1.377 . S
C4298 C4296 1.389 . S
C4298 C4299 1.524 . S
C4298 C4312 1.377 . S
C4299 C4298 1.524 . S
C4299 C4300 1.397 . S
C4299 C4304 1.363 . S
C4300 H4277 0.950 . S
C4300 C4299 1.397 . S
C4300 C4301 1.334 . S
C4301 H4278 0.950 . S
C4301 C4300 1.334 . S
C4301 C4302 1.287 . S
C4302 C4301 1.287 . S
C4302 C4303 1.524 . S
C4302 H4321 0.913 . S
C4303 H4279 0.950 . S
C4303 C4302 1.524 . S
C4303 C4304 1.415 . S
C4304 H4280 0.950 . S
C4304 C4299 1.363 . S
C4304 C4303 1.415 . S
C4305 H4281 0.951 . S
C4305 C4306 1.366 . S
C4305 C4307 1.388 . S
C4306 C4305 1.366 . S
C4306 C4310 1.385 . S
C4307 H4282 0.951 . S
C4307 C4305 1.388 . S
C4307 C4308 1.366 . S
C4308 C4307 1.366 . S
C4308 C4309 1.414 . S
C4308 C4311 1.499 . S
C4309 H4283 0.950 . S
C4309 C4308 1.414 . S
C4309 C4310 1.374 . S
C4310 H4284 0.950 . S
C4310 C4306 1.385 . S
C4310 C4309 1.374 . S
C4311 C4308 1.499 . S
C4311 C4312 1.373 . S
C4311 C4313 1.389 . S
C4312 H4285 0.950 . S
C4312 C4298 1.377 . S
C4312 C4311 1.373 . S
C4313 C4297 1.377 . S
C4313 C4311 1.389 . S
C4313 C4314 1.524 . S
C4314 C4313 1.524 . S
C4314 C4315 1.397 . S
C4314 C4319 1.363 . S
C4315 H4286 0.950 . S
C4315 C4314 1.397 . S
C4315 C4316 1.334 . S
C4316 H4287 0.950 . S
C4316 C4315 1.334 . S
C4316 C4317 1.287 . S
C4317 C4316 1.287 . S
C4317 C4318 1.524 . S
C4317 H4320 0.999 . S
C4318 H4288 0.950 . S
C4318 C4317 1.524 . S
C4318 C4319 1.415 . S
C4319 H4289 0.950 . S
C4319 C4314 1.363 . S
C4319 C4318 1.415 . S
H4320 C4317 0.999 . S
H4321 C4302 0.913 . S
H4322 C4340 0.951 . S
H4323 C4342 0.951 . S
H4324 C4344 0.950 . S
H4325 C4345 0.950 . S
H4326 C4347 0.950 . S
H4327 C4350 0.950 . S
H4328 C4351 0.950 . S
H4329 C4353 0.950 . S
H4330 C4354 0.950 . S
H4331 C4355 0.951 . S
H4332 C4357 0.951 . S
H4333 C4359 0.950 . S
H4334 C4360 0.950 . S
H4335 C4362 0.950 . S
H4336 C4365 0.950 . S
H4337 C4366 0.950 . S
H4338 C4368 0.950 . S
H4339 C4369 0.950 . S
C4340 H4322 0.951 . S
C4340 C4341 1.366 . S
C4340 C4342 1.388 . S
C4341 C4340 1.366 . S
C4341 C4345 1.385 . S
C4342 H4323 0.951 . S
C4342 C4340 1.388 . S
C4342 C4343 1.366 . S
C4343 C4342 1.366 . S
C4343 C4344 1.414 . S
C4343 C4346 1.499 . S
C4344 H4324 0.950 . S
C4344 C4343 1.414 . S
C4344 C4345 1.374 . S
C4345 H4325 0.950 . S
C4345 C4341 1.385 . S
C4345 C4344 1.374 . S
C4346 C4343 1.499 . S
C4346 C4347 1.373 . S
C4346 C4348 1.389 . S
C4347 H4326 0.950 . S
C4347 C4346 1.373 . S
C4347 C4363 1.377 . S
C4348 C4346 1.389 . S
C4348 C4349 1.524 . S
C4348 C4362 1.377 . S
C4349 C4348 1.524 . S
C4349 C4350 1.397 . S
C4349 C4354 1.363 . S
C4350 H4327 0.950 . S
C4350 C4349 1.397 . S
C4350 C4351 1.334 . S
C4351 H4328 0.950 . S
C4351 C4350 1.334 . S
C4351 C4352 1.287 . S
C4352 C4351 1.287 . S
C4352 C4353 1.524 . S
C4352 H4371 0.913 . S
C4353 H4329 0.950 . S
C4353 C4352 1.524 . S
C4353 C4354 1.415 . S
C4354 H4330 0.950 . S
C4354 C4349 1.363 . S
C4354 C4353 1.415 . S
C4355 H4331 0.951 . S
C4355 C4356 1.366 . S
C4355 C4357 1.388 . S
C4356 C4355 1.366 . S
C4356 C4360 1.385 . S
C4357 H4332 0.951 . S
C4357 C4355 1.388 . S
C4357 C4358 1.366 . S
C4358 C4357 1.366 . S
C4358 C4359 1.414 . S
C4358 C4361 1.499 . S
C4359 H4333 0.950 . S
C4359 C4358 1.414 . S
C4359 C4360 1.374 . S
C4360 H4334 0.950 . S
C4360 C4356 1.385 . S
C4360 C4359 1.374 . S
C4361 C4358 1.499 . S
C4361 C4362 1.373 . S
C4361 C4363 1.389 . S
C4362 H4335 0.950 . S
C4362 C4348 1.377 . S
C4362 C4361 1.373 . S
C4363 C4347 1.377 . S
C4363 C4361 1.389 . S
C4363 C4364 1.524 . S
C4364 C4363 1.524 . S
C4364 C4365 1.397 . S
C4364 C4369 1.363 . S
C4365 H4336 0.950 . S
C4365 C4364 1.397 . S
C4365 C4366 1.334 . S
C4366 H4337 0.950 . S
C4366 C4365 1.334 . S
C4366 C4367 1.287 . S
C4367 C4366 1.287 . S
C4367 C4368 1.524 . S
C4367 H4370 0.999 . S
C4368 H4338 0.950 . S
C4368 C4367 1.524 . S
C4368 C4369 1.415 . S
C4369 H4339 0.950 . S
C4369 C4364 1.363 . S
C4369 C4368 1.415 . S
H4370 C4367 0.999 . S
H4371 C4352 0.913 . S
H4372 C4390 0.951 . S
H4373 C4392 0.951 . S
H4374 C4394 0.950 . S
H4375 C4395 0.950 . S
H4376 C4397 0.950 . S
H4377 C4400 0.950 . S
H4378 C4401 0.950 . S
H4379 C4403 0.950 . S
H4380 C4404 0.950 . S
H4381 C4405 0.951 . S
H4382 C4407 0.951 . S
H4383 C4409 0.950 . S
H4384 C4410 0.950 . S
H4385 C4412 0.950 . S
H4386 C4415 0.950 . S
H4387 C4416 0.950 . S
H4388 C4418 0.950 . S
H4389 C4419 0.950 . S
C4390 H4372 0.951 . S
C4390 C4391 1.366 . S
C4390 C4392 1.388 . S
C4391 C4390 1.366 . S
C4391 C4395 1.385 1_455 S
C4392 H4373 0.951 . S
C4392 C4390 1.388 . S
C4392 C4393 1.366 . S
C4393 C4392 1.366 . S
C4393 C4394 1.414 1_455 S
C4393 C4396 1.499 . S
C4394 H4374 0.950 . S
C4394 C4393 1.414 1_655 S
C4394 C4395 1.374 . S
C4395 H4375 0.950 . S
C4395 C4391 1.385 1_655 S
C4395 C4394 1.374 . S
C4396 C4393 1.499 . S
C4396 C4397 1.373 1_455 S
C4396 C4398 1.389 . S
C4397 H4376 0.950 . S
C4397 C4396 1.373 1_655 S
C4397 C4413 1.377 . S
C4398 C4396 1.389 . S
C4398 C4399 1.524 . S
C4398 C4412 1.377 . S
C4399 C4398 1.524 . S
C4399 C4400 1.397 . S
C4399 C4404 1.363 . S
C4400 H4377 0.950 . S
C4400 C4399 1.397 . S
C4400 C4401 1.334 . S
C4401 H4378 0.950 . S
C4401 C4400 1.334 . S
C4401 C4402 1.287 . S
C4402 C4401 1.287 . S
C4402 C4403 1.524 . S
C4402 H4421 0.913 . S
C4403 H4379 0.950 . S
C4403 C4402 1.524 . S
C4403 C4404 1.415 . S
C4404 H4380 0.950 . S
C4404 C4399 1.363 . S
C4404 C4403 1.415 . S
C4405 H4381 0.951 . S
C4405 C4406 1.366 . S
C4405 C4407 1.388 . S
C4406 C4405 1.366 . S
C4406 C4410 1.385 1_655 S
C4407 H4382 0.951 . S
C4407 C4405 1.388 . S
C4407 C4408 1.384 . S
C4408 C4407 1.384 . S
C4408 C4409 1.396 1_655 S
C4408 C4411 1.498 1_655 S
C4409 H4383 0.950 . S
C4409 C4408 1.396 1_455 S
C4409 C4410 1.374 . S
C4410 H4384 0.950 . S
C4410 C4406 1.385 1_455 S
C4410 C4409 1.374 . S
C4411 C4408 1.498 1_455 S
C4411 C4412 1.402 . S
C4411 C4413 1.363 1_455 S
C4412 H4385 0.950 . S
C4412 C4398 1.377 . S
C4412 C4411 1.402 . S
C4413 C4397 1.377 . S
C4413 C4411 1.363 1_655 S
C4413 C4414 1.524 . S
C4414 C4413 1.524 . S
C4414 C4415 1.397 . S
C4414 C4419 1.363 . S
C4415 H4386 0.950 . S
C4415 C4414 1.397 . S
C4415 C4416 1.334 . S
C4416 H4387 0.950 . S
C4416 C4415 1.334 . S
C4416 C4417 1.287 . S
C4417 C4416 1.287 . S
C4417 C4418 1.524 . S
C4417 H4420 0.999 . S
C4418 H4388 0.950 . S
C4418 C4417 1.524 . S
C4418 C4419 1.415 . S
C4419 H4389 0.950 . S
C4419 C4414 1.363 . S
C4419 C4418 1.415 . S
H4420 C4417 0.999 . S
H4421 C4402 0.913 . S
H4422 C4440 0.951 . S
H4423 C4442 0.951 . S
H4424 C4444 0.950 . S
H4425 C4445 0.950 . S
H4426 C4447 0.950 . S
H4427 C4450 0.950 . S
H4428 C4451 0.950 . S
H4429 C4453 0.950 . S
H4430 C4454 0.950 . S
H4431 C4455 0.951 . S
H4432 C4457 0.951 . S
H4433 C4459 0.950 . S
H4434 C4460 0.950 . S
H4435 C4462 0.950 . S
H4436 C4465 0.950 . S
H4437 C4466 0.950 . S
H4438 C4468 0.950 . S
H4439 C4469 0.950 . S
C4440 H4422 0.951 . S
C4440 C4441 1.366 . S
C4440 C4442 1.388 . S
C4441 C4440 1.366 . S
C4441 C4445 1.385 . S
C4442 H4423 0.951 . S
C4442 C4440 1.388 . S
C4442 C4443 1.366 . S
C4443 C4442 1.366 . S
C4443 C4444 1.414 . S
C4443 C4446 1.499 . S
C4444 H4424 0.950 . S
C4444 C4443 1.414 . S
C4444 C4445 1.374 . S
C4445 H4425 0.950 . S
C4445 C4441 1.385 . S
C4445 C4444 1.374 . S
C4446 C4443 1.499 . S
C4446 C4447 1.373 . S
C4446 C4448 1.389 . S
C4447 H4426 0.950 . S
C4447 C4446 1.373 . S
C4447 C4463 1.377 . S
C4448 C4446 1.389 . S
C4448 C4449 1.524 . S
C4448 C4462 1.377 . S
C4449 C4448 1.524 . S
C4449 C4450 1.397 . S
C4449 C4454 1.363 . S
C4450 H4427 0.950 . S
C4450 C4449 1.397 . S
C4450 C4451 1.334 . S
C4451 H4428 0.950 . S
C4451 C4450 1.334 . S
C4451 C4452 1.287 . S
C4452 C4451 1.287 . S
C4452 C4453 1.524 . S
C4452 H4471 0.913 . S
C4453 H4429 0.950 . S
C4453 C4452 1.524 . S
C4453 C4454 1.415 . S
C4454 H4430 0.950 . S
C4454 C4449 1.363 . S
C4454 C4453 1.415 . S
C4455 H4431 0.951 . S
C4455 C4456 1.366 . S
C4455 C4457 1.388 . S
C4456 C4455 1.366 . S
C4456 C4460 1.385 . S
C4457 H4432 0.951 . S
C4457 C4455 1.388 . S
C4457 C4458 1.366 . S
C4458 C4457 1.366 . S
C4458 C4459 1.414 . S
C4458 C4461 1.499 . S
C4459 H4433 0.950 . S
C4459 C4458 1.414 . S
C4459 C4460 1.374 . S
C4460 H4434 0.950 . S
C4460 C4456 1.385 . S
C4460 C4459 1.374 . S
C4461 C4458 1.499 . S
C4461 C4462 1.373 . S
C4461 C4463 1.389 . S
C4462 H4435 0.950 . S
C4462 C4448 1.377 . S
C4462 C4461 1.373 . S
C4463 C4447 1.377 . S
C4463 C4461 1.389 . S
C4463 C4464 1.524 . S
C4464 C4463 1.524 . S
C4464 C4465 1.397 . S
C4464 C4469 1.363 . S
C4465 H4436 0.950 . S
C4465 C4464 1.397 . S
C4465 C4466 1.334 . S
C4466 H4437 0.950 . S
C4466 C4465 1.334 . S
C4466 C4467 1.287 . S
C4467 C4466 1.287 . S
C4467 C4468 1.524 . S
C4467 H4470 0.999 . S
C4468 H4438 0.950 . S
C4468 C4467 1.524 . S
C4468 C4469 1.415 . S
C4469 H4439 0.950 . S
C4469 C4464 1.363 . S
C4469 C4468 1.415 . S
H4470 C4467 0.999 . S
H4471 C4452 0.913 . S
H4472 C4490 0.951 . S
H4473 C4492 0.951 . S
H4474 C4494 0.950 . S
H4475 C4495 0.950 . S
H4476 C4497 0.950 . S
H4477 C4500 0.950 . S
H4478 C4501 0.950 . S
H4479 C4503 0.950 . S
H4480 C4504 0.950 . S
H4481 C4505 0.951 . S
H4482 C4507 0.951 . S
H4483 C4509 0.950 . S
H4484 C4510 0.950 . S
H4485 C4512 0.950 . S
H4486 C4515 0.950 . S
H4487 C4516 0.950 . S
H4488 C4518 0.950 . S
H4489 C4519 0.950 . S
C4490 H4472 0.951 . S
C4490 C4491 1.366 . S
C4490 C4492 1.388 . S
C4491 C4490 1.366 . S
C4491 C4495 1.385 . S
C4492 H4473 0.951 . S
C4492 C4490 1.388 . S
C4492 C4493 1.366 . S
C4493 C4492 1.366 . S
C4493 C4494 1.414 . S
C4493 C4496 1.499 . S
C4494 H4474 0.950 . S
C4494 C4493 1.414 . S
C4494 C4495 1.374 . S
C4495 H4475 0.950 . S
C4495 C4491 1.385 . S
C4495 C4494 1.374 . S
C4496 C4493 1.499 . S
C4496 C4497 1.373 . S
C4496 C4498 1.389 . S
C4497 H4476 0.950 . S
C4497 C4496 1.373 . S
C4497 C4513 1.377 . S
C4498 C4496 1.389 . S
C4498 C4499 1.524 . S
C4498 C4512 1.377 . S
C4499 C4498 1.524 . S
C4499 C4500 1.397 . S
C4499 C4504 1.363 . S
C4500 H4477 0.950 . S
C4500 C4499 1.397 . S
C4500 C4501 1.334 . S
C4501 H4478 0.950 . S
C4501 C4500 1.334 . S
C4501 C4502 1.287 . S
C4502 C4501 1.287 . S
C4502 C4503 1.524 . S
C4502 H4521 0.913 . S
C4503 H4479 0.950 . S
C4503 C4502 1.524 . S
C4503 C4504 1.415 . S
C4504 H4480 0.950 . S
C4504 C4499 1.363 . S
C4504 C4503 1.415 . S
C4505 H4481 0.951 . S
C4505 C4506 1.366 . S
C4505 C4507 1.388 . S
C4506 C4505 1.366 . S
C4506 C4510 1.385 . S
C4507 H4482 0.951 . S
C4507 C4505 1.388 . S
C4507 C4508 1.366 . S
C4508 C4507 1.366 . S
C4508 C4509 1.414 . S
C4508 C4511 1.499 . S
C4509 H4483 0.950 . S
C4509 C4508 1.414 . S
C4509 C4510 1.374 . S
C4510 H4484 0.950 . S
C4510 C4506 1.385 . S
C4510 C4509 1.374 . S
C4511 C4508 1.499 . S
C4511 C4512 1.373 . S
C4511 C4513 1.389 . S
C4512 H4485 0.950 . S
C4512 C4498 1.377 . S
C4512 C4511 1.373 . S
C4513 C4497 1.377 . S
C4513 C4511 1.389 . S
C4513 C4514 1.524 . S
C4514 C4513 1.524 . S
C4514 C4515 1.397 . S
C4514 C4519 1.363 . S
C4515 H4486 0.950 . S
C4515 C4514 1.397 . S
C4515 C4516 1.334 . S
C4516 H4487 0.950 . S
C4516 C4515 1.334 . S
C4516 C4517 1.287 . S
C4517 C4516 1.287 . S
C4517 C4518 1.524 . S
C4517 H4520 0.999 . S
C4518 H4488 0.950 . S
C4518 C4517 1.524 . S
C4518 C4519 1.415 . S
C4519 H4489 0.950 . S
C4519 C4514 1.363 . S
C4519 C4518 1.415 . S
H4520 C4517 0.999 . S
H4521 C4502 0.913 . S
H4522 C4540 0.951 . S
H4523 C4542 0.951 . S
H4524 C4544 0.950 . S
H4525 C4545 0.950 . S
H4526 C4547 0.950 . S
H4527 C4550 0.950 . S
H4528 C4551 0.950 . S
H4529 C4553 0.950 . S
H4530 C4554 0.950 . S
H4531 C4555 0.951 . S
H4532 C4557 0.951 . S
H4533 C4559 0.950 . S
H4534 C4560 0.950 . S
H4535 C4562 0.950 . S
H4536 C4565 0.950 . S
H4537 C4566 0.950 . S
H4538 C4568 0.950 . S
H4539 C4569 0.950 . S
C4540 H4522 0.951 . S
C4540 C4541 1.366 . S
C4540 C4542 1.388 . S
C4541 C4540 1.366 . S
C4541 C4545 1.385 . S
C4542 H4523 0.951 . S
C4542 C4540 1.388 . S
C4542 C4543 1.366 . S
C4543 C4542 1.366 . S
C4543 C4544 1.414 . S
C4543 C4546 1.499 . S
C4544 H4524 0.950 . S
C4544 C4543 1.414 . S
C4544 C4545 1.374 . S
C4545 H4525 0.950 . S
C4545 C4541 1.385 . S
C4545 C4544 1.374 . S
C4546 C4543 1.499 . S
C4546 C4547 1.373 . S
C4546 C4548 1.389 . S
C4547 H4526 0.950 . S
C4547 C4546 1.373 . S
C4547 C4563 1.377 . S
C4548 C4546 1.389 . S
C4548 C4549 1.524 . S
C4548 C4562 1.377 . S
C4549 C4548 1.524 . S
C4549 C4550 1.397 . S
C4549 C4554 1.363 . S
C4550 H4527 0.950 . S
C4550 C4549 1.397 . S
C4550 C4551 1.334 . S
C4551 H4528 0.950 . S
C4551 C4550 1.334 . S
C4551 C4552 1.287 . S
C4552 C4551 1.287 . S
C4552 C4553 1.524 . S
C4552 H4571 0.913 . S
C4553 H4529 0.950 . S
C4553 C4552 1.524 . S
C4553 C4554 1.415 . S
C4554 H4530 0.950 . S
C4554 C4549 1.363 . S
C4554 C4553 1.415 . S
C4555 H4531 0.951 . S
C4555 C4556 1.366 . S
C4555 C4557 1.388 . S
C4556 C4555 1.366 . S
C4556 C4560 1.385 . S
C4557 H4532 0.951 . S
C4557 C4555 1.388 . S
C4557 C4558 1.366 . S
C4558 C4557 1.366 . S
C4558 C4559 1.414 . S
C4558 C4561 1.499 . S
C4559 H4533 0.950 . S
C4559 C4558 1.414 . S
C4559 C4560 1.374 . S
C4560 H4534 0.950 . S
C4560 C4556 1.385 . S
C4560 C4559 1.374 . S
C4561 C4558 1.499 . S
C4561 C4562 1.373 . S
C4561 C4563 1.389 . S
C4562 H4535 0.950 . S
C4562 C4548 1.377 . S
C4562 C4561 1.373 . S
C4563 C4547 1.377 . S
C4563 C4561 1.389 . S
C4563 C4564 1.524 . S
C4564 C4563 1.524 . S
C4564 C4565 1.397 . S
C4564 C4569 1.363 . S
C4565 H4536 0.950 . S
C4565 C4564 1.397 . S
C4565 C4566 1.334 . S
C4566 H4537 0.950 . S
C4566 C4565 1.334 . S
C4566 C4567 1.287 . S
C4567 C4566 1.287 . S
C4567 C4568 1.524 . S
C4567 H4570 0.999 . S
C4568 H4538 0.950 . S
C4568 C4567 1.524 . S
C4568 C4569 1.415 . S
C4569 H4539 0.950 . S
C4569 C4564 1.363 . S
C4569 C4568 1.415 . S
H4570 C4567 0.999 . S
H4571 C4552 0.913 . S
H4572 C4590 0.951 . S
H4573 C4592 0.951 . S
H4574 C4594 0.950 . S
H4575 C4595 0.950 . S
H4576 C4597 0.950 . S
H4577 C4600 0.950 . S
H4578 C4601 0.950 . S
H4579 C4603 0.950 . S
H4580 C4604 0.950 . S
H4581 C4605 0.951 . S
H4582 C4607 0.951 . S
H4583 C4609 0.950 . S
H4584 C4610 0.950 . S
H4585 C4612 0.950 . S
H4586 C4615 0.950 . S
H4587 C4616 0.950 . S
H4588 C4618 0.950 . S
H4589 C4619 0.950 . S
C4590 H4572 0.951 . S
C4590 C4591 1.366 . S
C4590 C4592 1.388 . S
C4591 C4590 1.366 . S
C4591 C4595 1.385 1_455 S
C4592 H4573 0.951 . S
C4592 C4590 1.388 . S
C4592 C4593 1.366 . S
C4593 C4592 1.366 . S
C4593 C4594 1.414 1_455 S
C4593 C4596 1.499 . S
C4594 H4574 0.950 . S
C4594 C4593 1.414 1_655 S
C4594 C4595 1.374 . S
C4595 H4575 0.950 . S
C4595 C4591 1.385 1_655 S
C4595 C4594 1.374 . S
C4596 C4593 1.499 . S
C4596 C4597 1.373 1_455 S
C4596 C4598 1.389 . S
C4597 H4576 0.950 . S
C4597 C4596 1.373 1_655 S
C4597 C4613 1.377 . S
C4598 C4596 1.389 . S
C4598 C4599 1.524 . S
C4598 C4612 1.377 . S
C4599 C4598 1.524 . S
C4599 C4600 1.397 1_455 S
C4599 C4604 1.363 . S
C4600 H4577 0.950 . S
C4600 C4599 1.397 1_655 S
C4600 C4601 1.334 . S
C4601 H4578 0.950 . S
C4601 C4600 1.334 . S
C4601 C4602 1.287 1_655 S
C4602 C4601 1.287 1_455 S
C4602 C4603 1.524 . S
C4602 H4621 0.913 . S
C4603 H4579 0.950 . S
C4603 C4602 1.524 . S
C4603 C4604 1.415 . S
C4604 H4580 0.950 . S
C4604 C4599 1.363 . S
C4604 C4603 1.415 . S
C4605 H4581 0.951 . S
C4605 C4606 1.366 . S
C4605 C4607 1.388 . S
C4606 C4605 1.366 . S
C4606 C4610 1.385 1_655 S
C4607 H4582 0.951 . S
C4607 C4605 1.388 . S
C4607 C4608 1.366 . S
C4608 C4607 1.366 . S
C4608 C4609 1.414 1_655 S
C4608 C4611 1.494 1_655 S
C4609 H4583 0.950 . S
C4609 C4608 1.414 1_455 S
C4609 C4610 1.374 . S
C4610 H4584 0.950 . S
C4610 C4606 1.385 1_455 S
C4610 C4609 1.374 . S
C4611 C4608 1.494 1_455 S
C4611 C4612 1.380 . S
C4611 C4613 1.386 1_455 S
C4612 H4585 0.950 . S
C4612 C4598 1.377 . S
C4612 C4611 1.380 . S
C4613 C4597 1.377 . S
C4613 C4611 1.386 1_655 S
C4613 C4614 1.524 . S
C4614 C4613 1.524 . S
C4614 C4615 1.397 1_655 S
C4614 C4619 1.363 . S
C4615 H4586 0.950 . S
C4615 C4614 1.397 1_455 S
C4615 C4616 1.334 . S
C4616 H4587 0.950 . S
C4616 C4615 1.334 . S
C4616 C4617 1.287 1_455 S
C4617 C4616 1.287 1_655 S
C4617 C4618 1.524 . S
C4617 H4620 0.999 . S
C4618 H4588 0.950 . S
C4618 C4617 1.524 . S
C4618 C4619 1.415 . S
C4619 H4589 0.950 . S
C4619 C4614 1.363 . S
C4619 C4618 1.415 . S
H4620 C4617 0.999 . S
H4621 C4602 0.913 . S
H4622 C4640 0.951 . S
H4623 C4642 0.951 . S
H4624 C4644 0.950 . S
H4625 C4645 0.950 . S
H4626 C4647 0.950 . S
H4627 C4650 0.950 . S
H4628 C4651 0.950 . S
H4629 C4653 0.950 . S
H4630 C4654 0.950 . S
H4631 C4655 0.951 . S
H4632 C4657 0.951 . S
H4633 C4659 0.950 . S
H4634 C4660 0.950 . S
H4635 C4662 0.950 . S
H4636 C4665 0.950 . S
H4637 C4666 0.950 . S
H4638 C4668 0.950 . S
H4639 C4669 0.950 . S
C4640 H4622 0.951 . S
C4640 C4641 1.366 . S
C4640 C4642 1.388 . S
C4641 C4640 1.366 . S
C4641 C4645 1.385 . S
C4642 H4623 0.951 . S
C4642 C4640 1.388 . S
C4642 C4643 1.366 . S
C4643 C4642 1.366 . S
C4643 C4644 1.414 . S
C4643 C4646 1.499 . S
C4644 H4624 0.950 . S
C4644 C4643 1.414 . S
C4644 C4645 1.374 . S
C4645 H4625 0.950 . S
C4645 C4641 1.385 . S
C4645 C4644 1.374 . S
C4646 C4643 1.499 . S
C4646 C4647 1.373 . S
C4646 C4648 1.389 . S
C4647 H4626 0.950 . S
C4647 C4646 1.373 . S
C4647 C4663 1.377 . S
C4648 C4646 1.389 . S
C4648 C4649 1.524 . S
C4648 C4662 1.377 . S
C4649 C4648 1.524 . S
C4649 C4650 1.397 . S
C4649 C4654 1.363 . S
C4650 H4627 0.950 . S
C4650 C4649 1.397 . S
C4650 C4651 1.334 . S
C4651 H4628 0.950 . S
C4651 C4650 1.334 . S
C4651 C4652 1.287 . S
C4652 C4651 1.287 . S
C4652 C4653 1.524 . S
C4652 H4671 0.913 . S
C4653 H4629 0.950 . S
C4653 C4652 1.524 . S
C4653 C4654 1.415 . S
C4654 H4630 0.950 . S
C4654 C4649 1.363 . S
C4654 C4653 1.415 . S
C4655 H4631 0.951 . S
C4655 C4656 1.366 . S
C4655 C4657 1.388 . S
C4656 C4655 1.366 . S
C4656 C4660 1.385 . S
C4657 H4632 0.951 . S
C4657 C4655 1.388 . S
C4657 C4658 1.366 . S
C4658 C4657 1.366 . S
C4658 C4659 1.414 . S
C4658 C4661 1.499 . S
C4659 H4633 0.950 . S
C4659 C4658 1.414 . S
C4659 C4660 1.374 . S
C4660 H4634 0.950 . S
C4660 C4656 1.385 . S
C4660 C4659 1.374 . S
C4661 C4658 1.499 . S
C4661 C4662 1.373 . S
C4661 C4663 1.389 . S
C4662 H4635 0.950 . S
C4662 C4648 1.377 . S
C4662 C4661 1.373 . S
C4663 C4647 1.377 . S
C4663 C4661 1.389 . S
C4663 C4664 1.524 . S
C4664 C4663 1.524 . S
C4664 C4665 1.397 . S
C4664 C4669 1.363 . S
C4665 H4636 0.950 . S
C4665 C4664 1.397 . S
C4665 C4666 1.334 . S
C4666 H4637 0.950 . S
C4666 C4665 1.334 . S
C4666 C4667 1.287 . S
C4667 C4666 1.287 . S
C4667 C4668 1.524 . S
C4667 H4670 0.999 . S
C4668 H4638 0.950 . S
C4668 C4667 1.524 . S
C4668 C4669 1.415 . S
C4669 H4639 0.950 . S
C4669 C4664 1.363 . S
C4669 C4668 1.415 . S
H4670 C4667 0.999 . S
H4671 C4652 0.913 . S
H4672 C4690 0.951 . S
H4673 C4692 0.951 . S
H4674 C4694 0.950 . S
H4675 C4695 0.950 . S
H4676 C4697 0.950 . S
H4677 C4700 0.950 . S
H4678 C4701 0.950 . S
H4679 C4703 0.950 . S
H4680 C4704 0.950 . S
H4681 C4705 0.951 . S
H4682 C4707 0.951 . S
H4683 C4709 0.950 . S
H4684 C4710 0.950 . S
H4685 C4712 0.950 . S
H4686 C4715 0.950 . S
H4687 C4716 0.950 . S
H4688 C4718 0.950 . S
H4689 C4719 0.950 . S
C4690 H4672 0.951 . S
C4690 C4691 1.366 . S
C4690 C4692 1.388 . S
C4691 C4690 1.366 . S
C4691 C4695 1.385 . S
C4692 H4673 0.951 . S
C4692 C4690 1.388 . S
C4692 C4693 1.366 . S
C4693 C4692 1.366 . S
C4693 C4694 1.414 . S
C4693 C4696 1.499 . S
C4694 H4674 0.950 . S
C4694 C4693 1.414 . S
C4694 C4695 1.374 . S
C4695 H4675 0.950 . S
C4695 C4691 1.385 . S
C4695 C4694 1.374 . S
C4696 C4693 1.499 . S
C4696 C4697 1.373 . S
C4696 C4698 1.389 . S
C4697 H4676 0.950 . S
C4697 C4696 1.373 . S
C4697 C4713 1.377 . S
C4698 C4696 1.389 . S
C4698 C4699 1.524 . S
C4698 C4712 1.377 . S
C4699 C4698 1.524 . S
C4699 C4700 1.397 . S
C4699 C4704 1.363 . S
C4700 H4677 0.950 . S
C4700 C4699 1.397 . S
C4700 C4701 1.334 . S
C4701 H4678 0.950 . S
C4701 C4700 1.334 . S
C4701 C4702 1.287 . S
C4702 C4701 1.287 . S
C4702 C4703 1.524 . S
C4702 H4721 0.913 . S
C4703 H4679 0.950 . S
C4703 C4702 1.524 . S
C4703 C4704 1.415 . S
C4704 H4680 0.950 . S
C4704 C4699 1.363 . S
C4704 C4703 1.415 . S
C4705 H4681 0.951 . S
C4705 C4706 1.366 . S
C4705 C4707 1.388 . S
C4706 C4705 1.366 . S
C4706 C4710 1.385 . S
C4707 H4682 0.951 . S
C4707 C4705 1.388 . S
C4707 C4708 1.366 . S
C4708 C4707 1.366 . S
C4708 C4709 1.414 . S
C4708 C4711 1.499 . S
C4709 H4683 0.950 . S
C4709 C4708 1.414 . S
C4709 C4710 1.374 . S
C4710 H4684 0.950 . S
C4710 C4706 1.385 . S
C4710 C4709 1.374 . S
C4711 C4708 1.499 . S
C4711 C4712 1.373 . S
C4711 C4713 1.389 . S
C4712 H4685 0.950 . S
C4712 C4698 1.377 . S
C4712 C4711 1.373 . S
C4713 C4697 1.377 . S
C4713 C4711 1.389 . S
C4713 C4714 1.524 . S
C4714 C4713 1.524 . S
C4714 C4715 1.397 . S
C4714 C4719 1.363 . S
C4715 H4686 0.950 . S
C4715 C4714 1.397 . S
C4715 C4716 1.334 . S
C4716 H4687 0.950 . S
C4716 C4715 1.334 . S
C4716 C4717 1.287 . S
C4717 C4716 1.287 . S
C4717 C4718 1.524 . S
C4717 H4720 0.999 . S
C4718 H4688 0.950 . S
C4718 C4717 1.524 . S
C4718 C4719 1.415 . S
C4719 H4689 0.950 . S
C4719 C4714 1.363 . S
C4719 C4718 1.415 . S
H4720 C4717 0.999 . S
H4721 C4702 0.913 . S
H4722 C4740 0.951 . S
H4723 C4742 0.951 . S
H4724 C4744 0.950 . S
H4725 C4745 0.950 . S
H4726 C4747 0.950 . S
H4727 C4750 0.950 . S
H4728 C4751 0.950 . S
H4729 C4753 0.950 . S
H4730 C4754 0.950 . S
H4731 C4755 0.951 . S
H4732 C4757 0.951 . S
H4733 C4759 0.950 . S
H4734 C4760 0.950 . S
H4735 C4762 0.950 . S
H4736 C4765 0.950 . S
H4737 C4766 0.950 . S
H4738 C4768 0.950 . S
H4739 C4769 0.950 . S
C4740 H4722 0.951 . S
C4740 C4741 1.366 . S
C4740 C4742 1.388 . S
C4741 C4740 1.366 . S
C4741 C4745 1.385 . S
C4742 H4723 0.951 . S
C4742 C4740 1.388 . S
C4742 C4743 1.366 . S
C4743 C4742 1.366 . S
C4743 C4744 1.414 . S
C4743 C4746 1.499 . S
C4744 H4724 0.950 . S
C4744 C4743 1.414 . S
C4744 C4745 1.374 . S
C4745 H4725 0.950 . S
C4745 C4741 1.385 . S
C4745 C4744 1.374 . S
C4746 C4743 1.499 . S
C4746 C4747 1.373 . S
C4746 C4748 1.389 . S
C4747 H4726 0.950 . S
C4747 C4746 1.373 . S
C4747 C4763 1.377 . S
C4748 C4746 1.389 . S
C4748 C4749 1.524 . S
C4748 C4762 1.377 . S
C4749 C4748 1.524 . S
C4749 C4750 1.397 . S
C4749 C4754 1.363 . S
C4750 H4727 0.950 . S
C4750 C4749 1.397 . S
C4750 C4751 1.334 . S
C4751 H4728 0.950 . S
C4751 C4750 1.334 . S
C4751 C4752 1.287 . S
C4752 C4751 1.287 . S
C4752 C4753 1.524 . S
C4752 H4771 0.913 . S
C4753 H4729 0.950 . S
C4753 C4752 1.524 . S
C4753 C4754 1.415 . S
C4754 H4730 0.950 . S
C4754 C4749 1.363 . S
C4754 C4753 1.415 . S
C4755 H4731 0.951 . S
C4755 C4756 1.366 . S
C4755 C4757 1.388 . S
C4756 C4755 1.366 . S
C4756 C4760 1.385 . S
C4757 H4732 0.951 . S
C4757 C4755 1.388 . S
C4757 C4758 1.366 . S
C4758 C4757 1.366 . S
C4758 C4759 1.414 . S
C4758 C4761 1.499 . S
C4759 H4733 0.950 . S
C4759 C4758 1.414 . S
C4759 C4760 1.374 . S
C4760 H4734 0.950 . S
C4760 C4756 1.385 . S
C4760 C4759 1.374 . S
C4761 C4758 1.499 . S
C4761 C4762 1.373 . S
C4761 C4763 1.389 . S
C4762 H4735 0.950 . S
C4762 C4748 1.377 . S
C4762 C4761 1.373 . S
C4763 C4747 1.377 . S
C4763 C4761 1.389 . S
C4763 C4764 1.524 . S
C4764 C4763 1.524 . S
C4764 C4765 1.397 . S
C4764 C4769 1.363 . S
C4765 H4736 0.950 . S
C4765 C4764 1.397 . S
C4765 C4766 1.334 . S
C4766 H4737 0.950 . S
C4766 C4765 1.334 . S
C4766 C4767 1.287 . S
C4767 C4766 1.287 . S
C4767 C4768 1.524 . S
C4767 H4770 0.999 . S
C4768 H4738 0.950 . S
C4768 C4767 1.524 . S
C4768 C4769 1.415 . S
C4769 H4739 0.950 . S
C4769 C4764 1.363 . S
C4769 C4768 1.415 . S
H4770 C4767 0.999 . S
H4771 C4752 0.913 . S
H4772 C4790 0.951 . S
H4773 C4792 0.951 . S
H4774 C4794 0.950 . S
H4775 C4795 0.950 . S
H4776 C4797 0.950 . S
H4777 C4800 0.950 . S
H4778 C4801 0.950 . S
H4779 C4803 0.950 . S
H4780 C4804 0.950 . S
H4781 C4805 0.951 . S
H4782 C4807 0.951 . S
H4783 C4809 0.950 . S
H4784 C4810 0.950 . S
H4785 C4812 0.950 . S
H4786 C4815 0.950 . S
H4787 C4816 0.950 . S
H4788 C4818 0.950 . S
H4789 C4819 0.950 . S
C4790 H4772 0.951 . S
C4790 C4791 1.366 . S
C4790 C4792 1.388 . S
C4791 C4790 1.366 . S
C4791 C4795 1.385 . S
C4792 H4773 0.951 . S
C4792 C4790 1.388 . S
C4792 C4793 1.366 . S
C4793 C4792 1.366 . S
C4793 C4794 1.414 . S
C4793 C4796 1.499 . S
C4794 H4774 0.950 . S
C4794 C4793 1.414 . S
C4794 C4795 1.374 . S
C4795 H4775 0.950 . S
C4795 C4791 1.385 . S
C4795 C4794 1.374 . S
C4796 C4793 1.499 . S
C4796 C4797 1.373 . S
C4796 C4798 1.389 . S
C4797 H4776 0.950 . S
C4797 C4796 1.373 . S
C4797 C4813 1.377 . S
C4798 C4796 1.389 . S
C4798 C4799 1.524 . S
C4798 C4812 1.377 . S
C4799 C4798 1.524 . S
C4799 C4800 1.397 . S
C4799 C4804 1.363 . S
C4800 H4777 0.950 . S
C4800 C4799 1.397 . S
C4800 C4801 1.334 . S
C4801 H4778 0.950 . S
C4801 C4800 1.334 . S
C4801 C4802 1.287 . S
C4802 C4801 1.287 . S
C4802 C4803 1.524 . S
C4802 H4821 0.913 . S
C4803 H4779 0.950 . S
C4803 C4802 1.524 . S
C4803 C4804 1.415 . S
C4804 H4780 0.950 . S
C4804 C4799 1.363 . S
C4804 C4803 1.415 . S
C4805 H4781 0.951 . S
C4805 C4806 1.366 . S
C4805 C4807 1.388 . S
C4806 C4805 1.366 . S
C4806 C4810 1.385 . S
C4807 H4782 0.951 . S
C4807 C4805 1.388 . S
C4807 C4808 1.366 . S
C4808 C4807 1.366 . S
C4808 C4809 1.414 . S
C4808 C4811 1.499 . S
C4809 H4783 0.950 . S
C4809 C4808 1.414 . S
C4809 C4810 1.374 . S
C4810 H4784 0.950 . S
C4810 C4806 1.385 . S
C4810 C4809 1.374 . S
C4811 C4808 1.499 . S
C4811 C4812 1.373 . S
C4811 C4813 1.389 . S
C4812 H4785 0.950 . S
C4812 C4798 1.377 . S
C4812 C4811 1.373 . S
C4813 C4797 1.377 . S
C4813 C4811 1.389 . S
C4813 C4814 1.524 . S
C4814 C4813 1.524 . S
C4814 C4815 1.397 . S
C4814 C4819 1.363 . S
C4815 H4786 0.950 . S
C4815 C4814 1.397 . S
C4815 C4816 1.334 1_455 S
C4816 H4787 0.950 . S
C4816 C4815 1.334 1_655 S
C4816 C4817 1.287 . S
C4817 C4816 1.287 . S
C4817 C4818 1.524 . S
C4817 H4820 0.999 . S
C4818 H4788 0.950 . S
C4818 C4817 1.524 . S
C4818 C4819 1.415 1_655 S
C4819 H4789 0.950 . S
C4819 C4814 1.363 . S
C4819 C4818 1.415 1_455 S
H4820 C4817 0.999 . S
H4821 C4802 0.913 . S
H4822 C4840 0.951 . S
H4823 C4842 0.951 . S
H4824 C4844 0.950 . S
H4825 C4845 0.950 . S
H4826 C4847 0.950 . S
H4827 C4850 0.950 . S
H4828 C4851 0.950 . S
H4829 C4853 0.950 . S
H4830 C4854 0.950 . S
H4831 C4855 0.951 . S
H4832 C4857 0.951 . S
H4833 C4859 0.950 . S
H4834 C4860 0.950 . S
H4835 C4862 0.950 . S
H4836 C4865 0.950 . S
H4837 C4866 0.950 . S
H4838 C4868 0.950 . S
H4839 C4869 0.950 . S
C4840 H4822 0.951 . S
C4840 C4841 1.366 . S
C4840 C4842 1.388 . S
C4841 C4840 1.366 . S
C4841 C4845 1.385 . S
C4842 H4823 0.951 . S
C4842 C4840 1.388 . S
C4842 C4843 1.366 . S
C4843 C4842 1.366 . S
C4843 C4844 1.414 . S
C4843 C4846 1.499 . S
C4844 H4824 0.950 . S
C4844 C4843 1.414 . S
C4844 C4845 1.374 . S
C4845 H4825 0.950 . S
C4845 C4841 1.385 . S
C4845 C4844 1.374 . S
C4846 C4843 1.499 . S
C4846 C4847 1.373 . S
C4846 C4848 1.389 . S
C4847 H4826 0.950 . S
C4847 C4846 1.373 . S
C4847 C4863 1.377 . S
C4848 C4846 1.389 . S
C4848 C4849 1.524 . S
C4848 C4862 1.377 . S
C4849 C4848 1.524 . S
C4849 C4850 1.397 . S
C4849 C4854 1.363 . S
C4850 H4827 0.950 . S
C4850 C4849 1.397 . S
C4850 C4851 1.334 . S
C4851 H4828 0.950 . S
C4851 C4850 1.334 . S
C4851 C4852 1.287 . S
C4852 C4851 1.287 . S
C4852 C4853 1.524 . S
C4852 H4871 0.913 . S
C4853 H4829 0.950 . S
C4853 C4852 1.524 . S
C4853 C4854 1.415 . S
C4854 H4830 0.950 . S
C4854 C4849 1.363 . S
C4854 C4853 1.415 . S
C4855 H4831 0.951 . S
C4855 C4856 1.366 . S
C4855 C4857 1.388 . S
C4856 C4855 1.366 . S
C4856 C4860 1.385 . S
C4857 H4832 0.951 . S
C4857 C4855 1.388 . S
C4857 C4858 1.366 . S
C4858 C4857 1.366 . S
C4858 C4859 1.414 . S
C4858 C4861 1.499 . S
C4859 H4833 0.950 . S
C4859 C4858 1.414 . S
C4859 C4860 1.374 . S
C4860 H4834 0.950 . S
C4860 C4856 1.385 . S
C4860 C4859 1.374 . S
C4861 C4858 1.499 . S
C4861 C4862 1.373 . S
C4861 C4863 1.389 . S
C4862 H4835 0.950 . S
C4862 C4848 1.377 . S
C4862 C4861 1.373 . S
C4863 C4847 1.377 . S
C4863 C4861 1.389 . S
C4863 C4864 1.524 . S
C4864 C4863 1.524 . S
C4864 C4865 1.397 . S
C4864 C4869 1.363 . S
C4865 H4836 0.950 . S
C4865 C4864 1.397 . S
C4865 C4866 1.334 . S
C4866 H4837 0.950 . S
C4866 C4865 1.334 . S
C4866 C4867 1.287 . S
C4867 C4866 1.287 . S
C4867 C4868 1.524 . S
C4867 H4870 0.999 . S
C4868 H4838 0.950 . S
C4868 C4867 1.524 . S
C4868 C4869 1.415 . S
C4869 H4839 0.950 . S
C4869 C4864 1.363 . S
C4869 C4868 1.415 . S
H4870 C4867 0.999 . S
H4871 C4852 0.913 . S
H4872 C4890 0.951 . S
H4873 C4892 0.951 . S
H4874 C4894 0.950 . S
H4875 C4895 0.950 . S
H4876 C4897 0.950 . S
H4877 C4900 0.950 . S
H4878 C4901 0.950 . S
H4879 C4903 0.950 . S
H4880 C4904 0.950 . S
H4881 C4905 0.951 . S
H4882 C4907 0.951 . S
H4883 C4909 0.950 . S
H4884 C4910 0.950 . S
H4885 C4912 0.950 . S
H4886 C4915 0.950 . S
H4887 C4916 0.950 . S
H4888 C4918 0.950 . S
H4889 C4919 0.950 . S
C4890 H4872 0.951 . S
C4890 C4891 1.366 . S
C4890 C4892 1.388 . S
C4891 C4890 1.366 . S
C4891 C4895 1.385 . S
C4892 H4873 0.951 . S
C4892 C4890 1.388 . S
C4892 C4893 1.366 . S
C4893 C4892 1.366 . S
C4893 C4894 1.414 . S
C4893 C4896 1.499 . S
C4894 H4874 0.950 . S
C4894 C4893 1.414 . S
C4894 C4895 1.374 . S
C4895 H4875 0.950 . S
C4895 C4891 1.385 . S
C4895 C4894 1.374 . S
C4896 C4893 1.499 . S
C4896 C4897 1.373 . S
C4896 C4898 1.389 . S
C4897 H4876 0.950 . S
C4897 C4896 1.373 . S
C4897 C4913 1.377 . S
C4898 C4896 1.389 . S
C4898 C4899 1.524 . S
C4898 C4912 1.377 . S
C4899 C4898 1.524 . S
C4899 C4900 1.397 . S
C4899 C4904 1.363 . S
C4900 H4877 0.950 . S
C4900 C4899 1.397 . S
C4900 C4901 1.334 . S
C4901 H4878 0.950 . S
C4901 C4900 1.334 . S
C4901 C4902 1.287 . S
C4902 C4901 1.287 . S
C4902 C4903 1.524 . S
C4902 H4921 0.913 . S
C4903 H4879 0.950 . S
C4903 C4902 1.524 . S
C4903 C4904 1.415 . S
C4904 H4880 0.950 . S
C4904 C4899 1.363 . S
C4904 C4903 1.415 . S
C4905 H4881 0.951 . S
C4905 C4906 1.366 . S
C4905 C4907 1.388 . S
C4906 C4905 1.366 . S
C4906 C4910 1.385 . S
C4907 H4882 0.951 . S
C4907 C4905 1.388 . S
C4907 C4908 1.366 . S
C4908 C4907 1.366 . S
C4908 C4909 1.414 . S
C4908 C4911 1.499 . S
C4909 H4883 0.950 . S
C4909 C4908 1.414 . S
C4909 C4910 1.374 . S
C4910 H4884 0.950 . S
C4910 C4906 1.385 . S
C4910 C4909 1.374 . S
C4911 C4908 1.499 . S
C4911 C4912 1.373 . S
C4911 C4913 1.389 . S
C4912 H4885 0.950 . S
C4912 C4898 1.377 . S
C4912 C4911 1.373 . S
C4913 C4897 1.377 . S
C4913 C4911 1.389 . S
C4913 C4914 1.524 . S
C4914 C4913 1.524 . S
C4914 C4915 1.397 . S
C4914 C4919 1.363 . S
C4915 H4886 0.950 . S
C4915 C4914 1.397 . S
C4915 C4916 1.334 . S
C4916 H4887 0.950 . S
C4916 C4915 1.334 . S
C4916 C4917 1.287 . S
C4917 C4916 1.287 . S
C4917 C4918 1.524 . S
C4917 H4920 0.999 . S
C4918 H4888 0.950 . S
C4918 C4917 1.524 . S
C4918 C4919 1.415 . S
C4919 H4889 0.950 . S
C4919 C4914 1.363 . S
C4919 C4918 1.415 . S
H4920 C4917 0.999 . S
H4921 C4902 0.913 . S
H4922 C4940 0.951 . S
H4923 C4942 0.951 . S
H4924 C4944 0.950 . S
H4925 C4945 0.950 . S
H4926 C4947 0.950 . S
H4927 C4950 0.950 . S
H4928 C4951 0.950 . S
H4929 C4953 0.950 . S
H4930 C4954 0.950 . S
H4931 C4955 0.951 . S
H4932 C4957 0.951 . S
H4933 C4959 0.950 . S
H4934 C4960 0.950 . S
H4935 C4962 0.950 . S
H4936 C4965 0.950 . S
H4937 C4966 0.950 . S
H4938 C4968 0.950 . S
H4939 C4969 0.950 . S
C4940 H4922 0.951 . S
C4940 C4941 1.366 . S
C4940 C4942 1.388 . S
C4941 C4940 1.366 . S
C4941 C4945 1.385 . S
C4942 H4923 0.951 . S
C4942 C4940 1.388 . S
C4942 C4943 1.366 . S
C4943 C4942 1.366 . S
C4943 C4944 1.414 . S
C4943 C4946 1.499 . S
C4944 H4924 0.950 . S
C4944 C4943 1.414 . S
C4944 C4945 1.374 . S
C4945 H4925 0.950 . S
C4945 C4941 1.385 . S
C4945 C4944 1.374 . S
C4946 C4943 1.499 . S
C4946 C4947 1.373 . S
C4946 C4948 1.389 . S
C4947 H4926 0.950 . S
C4947 C4946 1.373 . S
C4947 C4963 1.377 . S
C4948 C4946 1.389 . S
C4948 C4949 1.524 . S
C4948 C4962 1.377 . S
C4949 C4948 1.524 . S
C4949 C4950 1.397 . S
C4949 C4954 1.363 . S
C4950 H4927 0.950 . S
C4950 C4949 1.397 . S
C4950 C4951 1.334 . S
C4951 H4928 0.950 . S
C4951 C4950 1.334 . S
C4951 C4952 1.287 . S
C4952 C4951 1.287 . S
C4952 C4953 1.524 . S
C4952 H4971 0.913 . S
C4953 H4929 0.950 . S
C4953 C4952 1.524 . S
C4953 C4954 1.415 . S
C4954 H4930 0.950 . S
C4954 C4949 1.363 . S
C4954 C4953 1.415 . S
C4955 H4931 0.951 . S
C4955 C4956 1.366 . S
C4955 C4957 1.388 . S
C4956 C4955 1.366 . S
C4956 C4960 1.385 . S
C4957 H4932 0.951 . S
C4957 C4955 1.388 . S
C4957 C4958 1.366 . S
C4958 C4957 1.366 . S
C4958 C4959 1.414 . S
C4958 C4961 1.499 . S
C4959 H4933 0.950 . S
C4959 C4958 1.414 . S
C4959 C4960 1.374 . S
C4960 H4934 0.950 . S
C4960 C4956 1.385 . S
C4960 C4959 1.374 . S
C4961 C4958 1.499 . S
C4961 C4962 1.373 . S
C4961 C4963 1.389 . S
C4962 H4935 0.950 . S
C4962 C4948 1.377 . S
C4962 C4961 1.373 . S
C4963 C4947 1.377 . S
C4963 C4961 1.389 . S
C4963 C4964 1.524 . S
C4964 C4963 1.524 . S
C4964 C4965 1.397 . S
C4964 C4969 1.363 . S
C4965 H4936 0.950 . S
C4965 C4964 1.397 . S
C4965 C4966 1.334 . S
C4966 H4937 0.950 . S
C4966 C4965 1.334 . S
C4966 C4967 1.287 . S
C4967 C4966 1.287 . S
C4967 C4968 1.524 . S
C4967 H4970 0.999 . S
C4968 H4938 0.950 . S
C4968 C4967 1.524 . S
C4968 C4969 1.415 . S
C4969 H4939 0.950 . S
C4969 C4964 1.363 . S
C4969 C4968 1.415 . S
H4970 C4967 0.999 . S
H4971 C4952 0.913 . S
H4972 C4990 0.951 . S
H4973 C4992 0.951 . S
H4974 C4994 0.950 . S
H4975 C4995 0.950 . S
H4976 C4997 0.950 . S
H4977 C5000 0.950 . S
H4978 C5001 0.950 . S
H4979 C5003 0.950 . S
H4980 C5004 0.950 . S
H4981 C5005 0.951 . S
H4982 C5007 0.951 . S
H4983 C5009 0.950 . S
H4984 C5010 0.950 . S
H4985 C5012 0.950 . S
H4986 C5015 0.950 . S
H4987 C5016 0.950 . S
H4988 C5018 0.950 . S
H4989 C5019 0.950 . S
C4990 H4972 0.951 . S
C4990 C4991 1.366 . S
C4990 C4992 1.388 . S
C4991 C4990 1.366 . S
C4991 C4995 1.385 . S
C4992 H4973 0.951 . S
C4992 C4990 1.388 . S
C4992 C4993 1.366 . S
C4993 C4992 1.366 . S
C4993 C4994 1.414 . S
C4993 C4996 1.499 . S
C4994 H4974 0.950 . S
C4994 C4993 1.414 . S
C4994 C4995 1.374 . S
C4995 H4975 0.950 . S
C4995 C4991 1.385 . S
C4995 C4994 1.374 . S
C4996 C4993 1.499 . S
C4996 C4997 1.373 . S
C4996 C4998 1.389 . S
C4997 H4976 0.950 . S
C4997 C4996 1.373 . S
C4997 C5013 1.377 . S
C4998 C4996 1.389 . S
C4998 C4999 1.524 . S
C4998 C5012 1.377 . S
C4999 C4998 1.524 . S
C4999 C5000 1.397 . S
C4999 C5004 1.363 . S
C5000 H4977 0.950 . S
C5000 C4999 1.397 . S
C5000 C5001 1.334 . S
C5001 H4978 0.950 . S
C5001 C5000 1.334 . S
C5001 C5002 1.287 . S
C5002 C5001 1.287 . S
C5002 C5003 1.524 . S
C5002 H5021 0.913 . S
C5003 H4979 0.950 . S
C5003 C5002 1.524 . S
C5003 C5004 1.415 . S
C5004 H4980 0.950 . S
C5004 C4999 1.363 . S
C5004 C5003 1.415 . S
C5005 H4981 0.951 . S
C5005 C5006 1.366 . S
C5005 C5007 1.388 . S
C5006 C5005 1.366 . S
C5006 C5010 1.385 . S
C5007 H4982 0.951 . S
C5007 C5005 1.388 . S
C5007 C5008 1.366 . S
C5008 C5007 1.366 . S
C5008 C5009 1.414 . S
C5008 C5011 1.499 . S
C5009 H4983 0.950 . S
C5009 C5008 1.414 . S
C5009 C5010 1.374 . S
C5010 H4984 0.950 . S
C5010 C5006 1.385 . S
C5010 C5009 1.374 . S
C5011 C5008 1.499 . S
C5011 C5012 1.373 . S
C5011 C5013 1.389 . S
C5012 H4985 0.950 . S
C5012 C4998 1.377 . S
C5012 C5011 1.373 . S
C5013 C4997 1.377 . S
C5013 C5011 1.389 . S
C5013 C5014 1.524 . S
C5014 C5013 1.524 . S
C5014 C5015 1.397 . S
C5014 C5019 1.363 . S
C5015 H4986 0.950 . S
C5015 C5014 1.397 . S
C5015 C5016 1.334 . S
C5016 H4987 0.950 . S
C5016 C5015 1.334 . S
C5016 C5017 1.287 . S
C5017 C5016 1.287 . S
C5017 C5018 1.524 . S
C5017 H5020 0.999 . S
C5018 H4988 0.950 . S
C5018 C5017 1.524 . S
C5018 C5019 1.415 . S
C5019 H4989 0.950 . S
C5019 C5014 1.363 . S
C5019 C5018 1.415 . S
H5020 C5017 0.999 . S
H5021 C5002 0.913 . S
H5022 C5040 0.951 . S
H5023 C5042 0.951 . S
H5024 C5044 0.950 . S
H5025 C5045 0.950 . S
H5026 C5047 0.950 . S
H5027 C5050 0.950 . S
H5028 C5051 0.950 . S
H5029 C5053 0.950 . S
H5030 C5054 0.950 . S
H5031 C5055 0.951 . S
H5032 C5057 0.951 . S
H5033 C5059 0.950 . S
H5034 C5060 0.950 . S
H5035 C5062 0.950 . S
H5036 C5065 0.950 . S
H5037 C5066 0.950 . S
H5038 C5068 0.950 . S
H5039 C5069 0.950 . S
C5040 H5022 0.951 . S
C5040 C5041 1.366 . S
C5040 C5042 1.388 . S
C5041 C5040 1.366 . S
C5041 C5045 1.385 . S
C5042 H5023 0.951 . S
C5042 C5040 1.388 . S
C5042 C5043 1.366 . S
C5043 C5042 1.366 . S
C5043 C5044 1.414 . S
C5043 C5046 1.499 . S
C5044 H5024 0.950 . S
C5044 C5043 1.414 . S
C5044 C5045 1.374 . S
C5045 H5025 0.950 . S
C5045 C5041 1.385 . S
C5045 C5044 1.374 . S
C5046 C5043 1.499 . S
C5046 C5047 1.373 . S
C5046 C5048 1.389 . S
C5047 H5026 0.950 . S
C5047 C5046 1.373 . S
C5047 C5063 1.377 . S
C5048 C5046 1.389 . S
C5048 C5049 1.524 . S
C5048 C5062 1.377 . S
C5049 C5048 1.524 . S
C5049 C5050 1.397 . S
C5049 C5054 1.363 . S
C5050 H5027 0.950 . S
C5050 C5049 1.397 . S
C5050 C5051 1.334 . S
C5051 H5028 0.950 . S
C5051 C5050 1.334 . S
C5051 C5052 1.287 . S
C5052 C5051 1.287 . S
C5052 C5053 1.524 . S
C5052 H5071 0.913 . S
C5053 H5029 0.950 . S
C5053 C5052 1.524 . S
C5053 C5054 1.415 . S
C5054 H5030 0.950 . S
C5054 C5049 1.363 . S
C5054 C5053 1.415 . S
C5055 H5031 0.951 . S
C5055 C5056 1.366 . S
C5055 C5057 1.388 . S
C5056 C5055 1.366 . S
C5056 C5060 1.385 . S
C5057 H5032 0.951 . S
C5057 C5055 1.388 . S
C5057 C5058 1.366 . S
C5058 C5057 1.366 . S
C5058 C5059 1.414 . S
C5058 C5061 1.499 . S
C5059 H5033 0.950 . S
C5059 C5058 1.414 . S
C5059 C5060 1.374 . S
C5060 H5034 0.950 . S
C5060 C5056 1.385 . S
C5060 C5059 1.374 . S
C5061 C5058 1.499 . S
C5061 C5062 1.373 . S
C5061 C5063 1.389 . S
C5062 H5035 0.950 . S
C5062 C5048 1.377 . S
C5062 C5061 1.373 . S
C5063 C5047 1.377 . S
C5063 C5061 1.389 . S
C5063 C5064 1.524 . S
C5064 C5063 1.524 . S
C5064 C5065 1.397 . S
C5064 C5069 1.363 . S
C5065 H5036 0.950 . S
C5065 C5064 1.397 . S
C5065 C5066 1.334 . S
C5066 H5037 0.950 . S
C5066 C5065 1.334 . S
C5066 C5067 1.287 . S
C5067 C5066 1.287 . S
C5067 C5068 1.524 . S
C5067 H5070 0.999 . S
C5068 H5038 0.950 . S
C5068 C5067 1.524 . S
C5068 C5069 1.415 . S
C5069 H5039 0.950 . S
C5069 C5064 1.363 . S
C5069 C5068 1.415 . S
H5070 C5067 0.999 . S
H5071 C5052 0.913 . S
H5072 C5090 0.951 . S
H5073 C5092 0.951 . S
H5074 C5094 0.950 . S
H5075 C5095 0.950 . S
H5076 C5097 0.950 . S
H5077 C5100 0.950 . S
H5078 C5101 0.950 . S
H5079 C5103 0.950 . S
H5080 C5104 0.950 . S
H5081 C5105 0.951 . S
H5082 C5107 0.951 . S
H5083 C5109 0.950 . S
H5084 C5110 0.950 . S
H5085 C5112 0.950 . S
H5086 C5115 0.950 . S
H5087 C5116 0.950 . S
H5088 C5118 0.950 . S
H5089 C5119 0.950 . S
C5090 H5072 0.951 . S
C5090 C5091 1.366 . S
C5090 C5092 1.388 . S
C5091 C5090 1.366 . S
C5091 C5095 1.385 . S
C5092 H5073 0.951 . S
C5092 C5090 1.388 . S
C5092 C5093 1.366 . S
C5093 C5092 1.366 . S
C5093 C5094 1.414 . S
C5093 C5096 1.499 . S
C5094 H5074 0.950 . S
C5094 C5093 1.414 . S
C5094 C5095 1.374 . S
C5095 H5075 0.950 . S
C5095 C5091 1.385 . S
C5095 C5094 1.374 . S
C5096 C5093 1.499 . S
C5096 C5097 1.373 . S
C5096 C5098 1.389 . S
C5097 H5076 0.950 . S
C5097 C5096 1.373 . S
C5097 C5113 1.377 . S
C5098 C5096 1.389 . S
C5098 C5099 1.524 . S
C5098 C5112 1.377 . S
C5099 C5098 1.524 . S
C5099 C5100 1.397 . S
C5099 C5104 1.363 . S
C5100 H5077 0.950 . S
C5100 C5099 1.397 . S
C5100 C5101 1.334 . S
C5101 H5078 0.950 . S
C5101 C5100 1.334 . S
C5101 C5102 1.287 . S
C5102 C5101 1.287 . S
C5102 C5103 1.524 . S
C5102 H5121 0.913 . S
C5103 H5079 0.950 . S
C5103 C5102 1.524 . S
C5103 C5104 1.415 . S
C5104 H5080 0.950 . S
C5104 C5099 1.363 . S
C5104 C5103 1.415 . S
C5105 H5081 0.951 . S
C5105 C5106 1.366 . S
C5105 C5107 1.388 . S
C5106 C5105 1.366 . S
C5106 C5110 1.385 . S
C5107 H5082 0.951 . S
C5107 C5105 1.388 . S
C5107 C5108 1.366 . S
C5108 C5107 1.366 . S
C5108 C5109 1.414 . S
C5108 C5111 1.499 . S
C5109 H5083 0.950 . S
C5109 C5108 1.414 . S
C5109 C5110 1.374 . S
C5110 H5084 0.950 . S
C5110 C5106 1.385 . S
C5110 C5109 1.374 . S
C5111 C5108 1.499 . S
C5111 C5112 1.373 . S
C5111 C5113 1.389 . S
C5112 H5085 0.950 . S
C5112 C5098 1.377 . S
C5112 C5111 1.373 . S
C5113 C5097 1.377 . S
C5113 C5111 1.389 . S
C5113 C5114 1.524 . S
C5114 C5113 1.524 . S
C5114 C5115 1.397 . S
C5114 C5119 1.363 . S
C5115 H5086 0.950 . S
C5115 C5114 1.397 . S
C5115 C5116 1.334 . S
C5116 H5087 0.950 . S
C5116 C5115 1.334 . S
C5116 C5117 1.287 . S
C5117 C5116 1.287 . S
C5117 C5118 1.524 . S
C5117 H5120 0.999 . S
C5118 H5088 0.950 . S
C5118 C5117 1.524 . S
C5118 C5119 1.415 . S
C5119 H5089 0.950 . S
C5119 C5114 1.363 . S
C5119 C5118 1.415 . S
H5120 C5117 0.999 . S
H5121 C5102 0.913 . S
H5122 C5140 0.951 . S
H5123 C5142 0.951 . S
H5124 C5144 0.950 . S
H5125 C5145 0.950 . S
H5126 C5147 0.950 . S
H5127 C5150 0.950 . S
H5128 C5151 0.950 . S
H5129 C5153 0.950 . S
H5130 C5154 0.950 . S
H5131 C5155 0.951 . S
H5132 C5157 0.951 . S
H5133 C5159 0.950 . S
H5134 C5160 0.950 . S
H5135 C5162 0.950 . S
H5136 C5165 0.950 . S
H5137 C5166 0.950 . S
H5138 C5168 0.950 . S
H5139 C5169 0.950 . S
C5140 H5122 0.951 . S
C5140 C5141 1.366 . S
C5140 C5142 1.388 . S
C5141 C5140 1.366 . S
C5141 C5145 1.385 . S
C5142 H5123 0.951 . S
C5142 C5140 1.388 . S
C5142 C5143 1.366 . S
C5143 C5142 1.366 . S
C5143 C5144 1.414 . S
C5143 C5146 1.499 . S
C5144 H5124 0.950 . S
C5144 C5143 1.414 . S
C5144 C5145 1.374 . S
C5145 H5125 0.950 . S
C5145 C5141 1.385 . S
C5145 C5144 1.374 . S
C5146 C5143 1.499 . S
C5146 C5147 1.373 . S
C5146 C5148 1.389 . S
C5147 H5126 0.950 . S
C5147 C5146 1.373 . S
C5147 C5163 1.377 . S
C5148 C5146 1.389 . S
C5148 C5149 1.524 . S
C5148 C5162 1.377 . S
C5149 C5148 1.524 . S
C5149 C5150 1.397 . S
C5149 C5154 1.363 . S
C5150 H5127 0.950 . S
C5150 C5149 1.397 . S
C5150 C5151 1.334 . S
C5151 H5128 0.950 . S
C5151 C5150 1.334 . S
C5151 C5152 1.287 . S
C5152 C5151 1.287 . S
C5152 C5153 1.524 . S
C5152 H5171 0.913 . S
C5153 H5129 0.950 . S
C5153 C5152 1.524 . S
C5153 C5154 1.415 . S
C5154 H5130 0.950 . S
C5154 C5149 1.363 . S
C5154 C5153 1.415 . S
C5155 H5131 0.951 . S
C5155 C5156 1.366 . S
C5155 C5157 1.388 . S
C5156 C5155 1.366 . S
C5156 C5160 1.385 . S
C5157 H5132 0.951 . S
C5157 C5155 1.388 . S
C5157 C5158 1.366 . S
C5158 C5157 1.366 . S
C5158 C5159 1.414 . S
C5158 C5161 1.499 . S
C5159 H5133 0.950 . S
C5159 C5158 1.414 . S
C5159 C5160 1.374 . S
C5160 H5134 0.950 . S
C5160 C5156 1.385 . S
C5160 C5159 1.374 . S
C5161 C5158 1.499 . S
C5161 C5162 1.373 . S
C5161 C5163 1.389 . S
C5162 H5135 0.950 . S
C5162 C5148 1.377 . S
C5162 C5161 1.373 . S
C5163 C5147 1.377 . S
C5163 C5161 1.389 . S
C5163 C5164 1.524 . S
C5164 C5163 1.524 . S
C5164 C5165 1.397 . S
C5164 C5169 1.363 . S
C5165 H5136 0.950 . S
C5165 C5164 1.397 . S
C5165 C5166 1.334 1_545 S
C5166 H5137 0.950 . S
C5166 C5165 1.334 1_565 S
C5166 C5167 1.287 . S
C5167 C5166 1.287 . S
C5167 C5168 1.524 1_565 S
C5167 H5170 0.999 . S
C5168 H5138 0.950 . S
C5168 C5167 1.524 1_545 S
C5168 C5169 1.415 . S
C5169 H5139 0.950 . S
C5169 C5164 1.363 . S
C5169 C5168 1.415 . S
H5170 C5167 0.999 . S
H5171 C5152 0.913 . S
H5172 C5190 0.951 . S
H5173 C5192 0.951 . S
H5174 C5194 0.950 . S
H5175 C5195 0.950 . S
H5176 C5197 0.950 . S
H5177 C5200 0.950 . S
H5178 C5201 0.950 . S
H5179 C5203 0.950 . S
H5180 C5204 0.950 . S
H5181 C5205 0.951 . S
H5182 C5207 0.951 . S
H5183 C5209 0.950 . S
H5184 C5210 0.950 . S
H5185 C5212 0.950 . S
H5186 C5215 0.950 . S
H5187 C5216 0.950 . S
H5188 C5218 0.950 . S
H5189 C5219 0.950 . S
C5190 H5172 0.951 . S
C5190 C5191 1.366 . S
C5190 C5192 1.388 . S
C5191 C5190 1.366 . S
C5191 C5195 1.385 . S
C5192 H5173 0.951 . S
C5192 C5190 1.388 . S
C5192 C5193 1.366 . S
C5193 C5192 1.366 . S
C5193 C5194 1.414 . S
C5193 C5196 1.499 . S
C5194 H5174 0.950 . S
C5194 C5193 1.414 . S
C5194 C5195 1.374 . S
C5195 H5175 0.950 . S
C5195 C5191 1.385 . S
C5195 C5194 1.374 . S
C5196 C5193 1.499 . S
C5196 C5197 1.373 . S
C5196 C5198 1.389 . S
C5197 H5176 0.950 . S
C5197 C5196 1.373 . S
C5197 C5213 1.377 . S
C5198 C5196 1.389 . S
C5198 C5199 1.524 . S
C5198 C5212 1.377 . S
C5199 C5198 1.524 . S
C5199 C5200 1.397 . S
C5199 C5204 1.363 . S
C5200 H5177 0.950 . S
C5200 C5199 1.397 . S
C5200 C5201 1.334 . S
C5201 H5178 0.950 . S
C5201 C5200 1.334 . S
C5201 C5202 1.287 . S
C5202 C5201 1.287 . S
C5202 C5203 1.524 . S
C5202 H5221 0.913 . S
C5203 H5179 0.950 . S
C5203 C5202 1.524 . S
C5203 C5204 1.415 . S
C5204 H5180 0.950 . S
C5204 C5199 1.363 . S
C5204 C5203 1.415 . S
C5205 H5181 0.951 . S
C5205 C5206 1.366 . S
C5205 C5207 1.388 . S
C5206 C5205 1.366 . S
C5206 C5210 1.385 . S
C5207 H5182 0.951 . S
C5207 C5205 1.388 . S
C5207 C5208 1.366 . S
C5208 C5207 1.366 . S
C5208 C5209 1.414 . S
C5208 C5211 1.499 . S
C5209 H5183 0.950 . S
C5209 C5208 1.414 . S
C5209 C5210 1.374 . S
C5210 H5184 0.950 . S
C5210 C5206 1.385 . S
C5210 C5209 1.374 . S
C5211 C5208 1.499 . S
C5211 C5212 1.373 . S
C5211 C5213 1.389 . S
C5212 H5185 0.950 . S
C5212 C5198 1.377 . S
C5212 C5211 1.373 . S
C5213 C5197 1.377 . S
C5213 C5211 1.389 . S
C5213 C5214 1.524 . S
C5214 C5213 1.524 . S
C5214 C5215 1.397 . S
C5214 C5219 1.363 . S
C5215 H5186 0.950 . S
C5215 C5214 1.397 . S
C5215 C5216 1.334 . S
C5216 H5187 0.950 . S
C5216 C5215 1.334 . S
C5216 C5217 1.287 . S
C5217 C5216 1.287 . S
C5217 C5218 1.524 . S
C5217 H5220 0.999 . S
C5218 H5188 0.950 . S
C5218 C5217 1.524 . S
C5218 C5219 1.415 . S
C5219 H5189 0.950 . S
C5219 C5214 1.363 . S
C5219 C5218 1.415 . S
H5220 C5217 0.999 . S
H5221 C5202 0.913 . S
H5222 C5240 0.951 . S
H5223 C5242 0.951 . S
H5224 C5244 0.950 . S
H5225 C5245 0.950 . S
H5226 C5247 0.950 . S
H5227 C5250 0.950 . S
H5228 C5251 0.950 . S
H5229 C5253 0.950 1_545 S
H5230 C5254 0.950 . S
H5231 C5255 0.951 . S
H5232 C5257 0.951 . S
H5233 C5259 0.950 . S
H5234 C5260 0.950 . S
H5235 C5262 0.950 . S
H5236 C5265 0.950 . S
H5237 C5266 0.950 . S
H5238 C5268 0.950 . S
H5239 C5269 0.950 . S
C5240 H5222 0.951 . S
C5240 C5241 1.366 1_556 S
C5240 C5242 1.388 . S
C5241 C5240 1.366 1_554 S
C5241 C5245 1.385 . S
C5242 H5223 0.951 . S
C5242 C5240 1.388 . S
C5242 C5243 1.366 1_556 S
C5243 C5242 1.366 1_554 S
C5243 C5244 1.414 . S
C5243 C5246 1.499 . S
C5244 H5224 0.950 . S
C5244 C5243 1.414 . S
C5244 C5245 1.374 . S
C5245 H5225 0.950 . S
C5245 C5241 1.385 . S
C5245 C5244 1.374 . S
C5246 C5243 1.499 . S
C5246 C5247 1.373 . S
C5246 C5248 1.389 . S
C5247 H5226 0.950 . S
C5247 C5246 1.373 . S
C5247 C5263 1.377 . S
C5248 C5246 1.389 . S
C5248 C5249 1.524 . S
C5248 C5262 1.377 1_554 S
C5249 C5248 1.524 . S
C5249 C5250 1.397 . S
C5249 C5254 1.363 1_554 S
C5250 H5227 0.950 . S
C5250 C5249 1.397 . S
C5250 C5251 1.334 . S
C5251 H5228 0.950 . S
C5251 C5250 1.334 . S
C5251 C5252 1.287 . S
C5252 C5251 1.287 . S
C5252 C5253 1.524 1_554 S
C5252 H5271 0.913 1_565 S
C5253 H5229 0.950 1_565 S
C5253 C5252 1.524 1_556 S
C5253 C5254 1.415 . S
C5254 H5230 0.950 . S
C5254 C5249 1.363 1_556 S
C5254 C5253 1.415 . S
C5255 H5231 0.951 . S
C5255 C5256 1.366 1_554 S
C5255 C5257 1.388 . S
C5256 C5255 1.366 1_556 S
C5256 C5260 1.385 . S
C5257 H5232 0.951 . S
C5257 C5255 1.388 . S
C5257 C5258 1.366 1_554 S
C5258 C5257 1.366 1_556 S
C5258 C5259 1.414 . S
C5258 C5261 1.501 . S
C5259 H5233 0.950 . S
C5259 C5258 1.414 . S
C5259 C5260 1.374 . S
C5260 H5234 0.950 . S
C5260 C5256 1.385 . S
C5260 C5259 1.374 . S
C5261 C5258 1.501 . S
C5261 C5262 1.376 . S
C5261 C5263 1.384 1_556 S
C5262 H5235 0.950 . S
C5262 C5248 1.377 1_556 S
C5262 C5261 1.376 . S
C5263 C5247 1.377 . S
C5263 C5261 1.384 1_554 S
C5263 C5264 1.524 . S
C5264 C5263 1.524 . S
C5264 C5265 1.397 1_554 S
C5264 C5269 1.363 . S
C5265 H5236 0.950 . S
C5265 C5264 1.397 1_556 S
C5265 C5266 1.334 . S
C5266 H5237 0.950 . S
C5266 C5265 1.334 . S
C5266 C5267 1.287 . S
C5267 C5266 1.287 . S
C5267 C5268 1.524 1_556 S
C5267 H5270 0.999 . S
C5268 H5238 0.950 . S
C5268 C5267 1.524 1_554 S
C5268 C5269 1.415 . S
C5269 H5239 0.950 . S
C5269 C5264 1.363 . S
C5269 C5268 1.415 . S
H5270 C5267 0.999 . S
H5271 C5252 0.913 1_545 S
H5272 C5290 0.951 . S
H5273 C5292 0.951 . S
H5274 C5294 0.950 . S
H5275 C5295 0.950 . S
H5276 C5297 0.950 . S
H5277 C5300 0.950 . S
H5278 C5301 0.950 . S
H5279 C5303 0.950 . S
H5280 C5304 0.950 . S
H5281 C5305 0.951 . S
H5282 C5307 0.951 . S
H5283 C5309 0.950 . S
H5284 C5310 0.950 . S
H5285 C5312 0.950 . S
H5286 C5315 0.950 . S
H5287 C5316 0.950 . S
H5288 C5318 0.950 . S
H5289 C5319 0.950 . S
C5290 H5272 0.951 . S
C5290 C5291 1.366 . S
C5290 C5292 1.388 . S
C5291 C5290 1.366 . S
C5291 C5295 1.385 . S
C5292 H5273 0.951 . S
C5292 C5290 1.388 . S
C5292 C5293 1.366 . S
C5293 C5292 1.366 . S
C5293 C5294 1.414 . S
C5293 C5296 1.499 . S
C5294 H5274 0.950 . S
C5294 C5293 1.414 . S
C5294 C5295 1.374 . S
C5295 H5275 0.950 . S
C5295 C5291 1.385 . S
C5295 C5294 1.374 . S
C5296 C5293 1.499 . S
C5296 C5297 1.373 . S
C5296 C5298 1.389 . S
C5297 H5276 0.950 . S
C5297 C5296 1.373 . S
C5297 C5313 1.377 . S
C5298 C5296 1.389 . S
C5298 C5299 1.524 . S
C5298 C5312 1.377 . S
C5299 C5298 1.524 . S
C5299 C5300 1.397 . S
C5299 C5304 1.363 . S
C5300 H5277 0.950 . S
C5300 C5299 1.397 . S
C5300 C5301 1.334 . S
C5301 H5278 0.950 . S
C5301 C5300 1.334 . S
C5301 C5302 1.287 . S
C5302 C5301 1.287 . S
C5302 C5303 1.524 . S
C5302 H5321 0.913 . S
C5303 H5279 0.950 . S
C5303 C5302 1.524 . S
C5303 C5304 1.415 . S
C5304 H5280 0.950 . S
C5304 C5299 1.363 . S
C5304 C5303 1.415 . S
C5305 H5281 0.951 . S
C5305 C5306 1.366 . S
C5305 C5307 1.388 . S
C5306 C5305 1.366 . S
C5306 C5310 1.385 . S
C5307 H5282 0.951 . S
C5307 C5305 1.388 . S
C5307 C5308 1.366 . S
C5308 C5307 1.366 . S
C5308 C5309 1.414 . S
C5308 C5311 1.499 . S
C5309 H5283 0.950 . S
C5309 C5308 1.414 . S
C5309 C5310 1.374 . S
C5310 H5284 0.950 . S
C5310 C5306 1.385 . S
C5310 C5309 1.374 . S
C5311 C5308 1.499 . S
C5311 C5312 1.373 . S
C5311 C5313 1.389 . S
C5312 H5285 0.950 . S
C5312 C5298 1.377 . S
C5312 C5311 1.373 . S
C5313 C5297 1.377 . S
C5313 C5311 1.389 . S
C5313 C5314 1.524 . S
C5314 C5313 1.524 . S
C5314 C5315 1.397 . S
C5314 C5319 1.363 . S
C5315 H5286 0.950 . S
C5315 C5314 1.397 . S
C5315 C5316 1.334 . S
C5316 H5287 0.950 . S
C5316 C5315 1.334 . S
C5316 C5317 1.287 . S
C5317 C5316 1.287 . S
C5317 C5318 1.524 . S
C5317 H5320 0.999 . S
C5318 H5288 0.950 . S
C5318 C5317 1.524 . S
C5318 C5319 1.415 . S
C5319 H5289 0.950 . S
C5319 C5314 1.363 . S
C5319 C5318 1.415 . S
H5320 C5317 0.999 . S
H5321 C5302 0.913 . S
H5322 C5340 0.951 . S
H5323 C5342 0.951 . S
H5324 C5344 0.950 . S
H5325 C5345 0.950 . S
H5326 C5347 0.950 . S
H5327 C5350 0.950 . S
H5328 C5351 0.950 . S
H5329 C5353 0.950 . S
H5330 C5354 0.950 . S
H5331 C5355 0.951 . S
H5332 C5357 0.951 . S
H5333 C5359 0.950 . S
H5334 C5360 0.950 . S
H5335 C5362 0.950 . S
H5336 C5365 0.950 . S
H5337 C5366 0.950 . S
H5338 C5368 0.950 . S
H5339 C5369 0.950 . S
C5340 H5322 0.951 . S
C5340 C5341 1.366 . S
C5340 C5342 1.388 . S
C5341 C5340 1.366 . S
C5341 C5345 1.384 1_556 S
C5342 H5323 0.951 . S
C5342 C5340 1.388 . S
C5342 C5343 1.366 1_556 S
C5343 C5342 1.366 1_554 S
C5343 C5344 1.414 . S
C5343 C5346 1.499 . S
C5344 H5324 0.950 . S
C5344 C5343 1.414 . S
C5344 C5345 1.374 . S
C5345 H5325 0.950 . S
C5345 C5341 1.384 1_554 S
C5345 C5344 1.374 . S
C5346 C5343 1.499 . S
C5346 C5347 1.373 . S
C5346 C5348 1.389 1_554 S
C5347 H5326 0.950 . S
C5347 C5346 1.373 . S
C5347 C5363 1.377 . S
C5348 C5346 1.389 1_556 S
C5348 C5349 1.524 . S
C5348 C5362 1.377 . S
C5349 C5348 1.524 . S
C5349 C5350 1.397 . S
C5349 C5354 1.363 . S
C5350 H5327 0.950 . S
C5350 C5349 1.397 . S
C5350 C5351 1.334 . S
C5351 H5328 0.950 . S
C5351 C5350 1.334 . S
C5351 C5352 1.287 . S
C5352 C5351 1.287 . S
C5352 C5353 1.524 . S
C5352 H5371 0.913 . S
C5353 H5329 0.950 . S
C5353 C5352 1.524 . S
C5353 C5354 1.415 . S
C5354 H5330 0.950 . S
C5354 C5349 1.363 . S
C5354 C5353 1.415 . S
C5355 H5331 0.951 . S
C5355 C5356 1.366 . S
C5355 C5357 1.388 . S
C5356 C5355 1.366 . S
C5356 C5360 1.385 1_554 S
C5357 H5332 0.951 . S
C5357 C5355 1.388 . S
C5357 C5358 1.366 . S
C5358 C5357 1.366 . S
C5358 C5359 1.414 1_554 S
C5358 C5361 1.499 . S
C5359 H5333 0.950 . S
C5359 C5358 1.414 1_556 S
C5359 C5360 1.374 . S
C5360 H5334 0.950 . S
C5360 C5356 1.385 1_556 S
C5360 C5359 1.374 . S
C5361 C5358 1.499 . S
C5361 C5362 1.373 1_554 S
C5361 C5363 1.389 . S
C5362 H5335 0.950 . S
C5362 C5348 1.377 . S
C5362 C5361 1.373 1_556 S
C5363 C5347 1.377 . S
C5363 C5361 1.389 . S
C5363 C5364 1.524 . S
C5364 C5363 1.524 . S
C5364 C5365 1.397 . S
C5364 C5369 1.363 . S
C5365 H5336 0.950 . S
C5365 C5364 1.397 . S
C5365 C5366 1.334 . S
C5366 H5337 0.950 . S
C5366 C5365 1.334 . S
C5366 C5367 1.287 . S
C5367 C5366 1.287 . S
C5367 C5368 1.524 . S
C5367 H5370 0.999 . S
C5368 H5338 0.950 . S
C5368 C5367 1.524 . S
C5368 C5369 1.415 . S
C5369 H5339 0.950 . S
C5369 C5364 1.363 . S
C5369 C5368 1.415 . S
H5370 C5367 0.999 . S
H5371 C5352 0.913 . S
H5372 C5390 0.951 . S
H5373 C5392 0.951 . S
H5374 C5394 0.950 . S
H5375 C5395 0.950 . S
H5376 C5397 0.950 . S
H5377 C5400 0.950 . S
H5378 C5401 0.950 . S
H5379 C5403 0.950 . S
H5380 C5404 0.950 . S
H5381 C5405 0.951 . S
H5382 C5407 0.951 . S
H5383 C5409 0.950 . S
H5384 C5410 0.950 . S
H5385 C5412 0.950 . S
H5386 C5415 0.950 . S
H5387 C5416 0.950 . S
H5388 C5418 0.950 . S
H5389 C5419 0.950 . S
C5390 H5372 0.951 . S
C5390 C5391 1.366 . S
C5390 C5392 1.388 . S
C5391 C5390 1.366 . S
C5391 C5395 1.385 . S
C5392 H5373 0.951 . S
C5392 C5390 1.388 . S
C5392 C5393 1.366 . S
C5393 C5392 1.366 . S
C5393 C5394 1.414 . S
C5393 C5396 1.499 . S
C5394 H5374 0.950 . S
C5394 C5393 1.414 . S
C5394 C5395 1.374 . S
C5395 H5375 0.950 . S
C5395 C5391 1.385 . S
C5395 C5394 1.374 . S
C5396 C5393 1.499 . S
C5396 C5397 1.373 . S
C5396 C5398 1.389 . S
C5397 H5376 0.950 . S
C5397 C5396 1.373 . S
C5397 C5413 1.377 . S
C5398 C5396 1.389 . S
C5398 C5399 1.524 . S
C5398 C5412 1.377 . S
C5399 C5398 1.524 . S
C5399 C5400 1.397 . S
C5399 C5404 1.363 . S
C5400 H5377 0.950 . S
C5400 C5399 1.397 . S
C5400 C5401 1.334 . S
C5401 H5378 0.950 . S
C5401 C5400 1.334 . S
C5401 C5402 1.287 . S
C5402 C5401 1.287 . S
C5402 C5403 1.524 . S
C5402 H5421 0.913 . S
C5403 H5379 0.950 . S
C5403 C5402 1.524 . S
C5403 C5404 1.415 . S
C5404 H5380 0.950 . S
C5404 C5399 1.363 . S
C5404 C5403 1.415 . S
C5405 H5381 0.951 . S
C5405 C5406 1.366 . S
C5405 C5407 1.388 . S
C5406 C5405 1.366 . S
C5406 C5410 1.385 . S
C5407 H5382 0.951 . S
C5407 C5405 1.388 . S
C5407 C5408 1.366 . S
C5408 C5407 1.366 . S
C5408 C5409 1.414 . S
C5408 C5411 1.499 . S
C5409 H5383 0.950 . S
C5409 C5408 1.414 . S
C5409 C5410 1.374 . S
C5410 H5384 0.950 . S
C5410 C5406 1.385 . S
C5410 C5409 1.374 . S
C5411 C5408 1.499 . S
C5411 C5412 1.373 . S
C5411 C5413 1.389 . S
C5412 H5385 0.950 . S
C5412 C5398 1.377 . S
C5412 C5411 1.373 . S
C5413 C5397 1.377 . S
C5413 C5411 1.389 . S
C5413 C5414 1.524 . S
C5414 C5413 1.524 . S
C5414 C5415 1.397 . S
C5414 C5419 1.363 . S
C5415 H5386 0.950 . S
C5415 C5414 1.397 . S
C5415 C5416 1.334 . S
C5416 H5387 0.950 . S
C5416 C5415 1.334 . S
C5416 C5417 1.287 . S
C5417 C5416 1.287 . S
C5417 C5418 1.524 . S
C5417 H5420 0.999 . S
C5418 H5388 0.950 . S
C5418 C5417 1.524 . S
C5418 C5419 1.415 . S
C5419 H5389 0.950 . S
C5419 C5414 1.363 . S
C5419 C5418 1.415 . S
H5420 C5417 0.999 . S
H5421 C5402 0.913 . S
H5422 C5440 0.951 . S
H5423 C5442 0.951 . S
H5424 C5444 0.950 . S
H5425 C5445 0.950 . S
H5426 C5447 0.950 . S
H5427 C5450 0.950 . S
H5428 C5451 0.950 . S
H5429 C5453 0.950 . S
H5430 C5454 0.950 . S
H5431 C5455 0.951 . S
H5432 C5457 0.951 . S
H5433 C5459 0.950 . S
H5434 C5460 0.950 . S
H5435 C5462 0.950 . S
H5436 C5465 0.950 . S
H5437 C5466 0.950 . S
H5438 C5468 0.950 . S
H5439 C5469 0.950 . S
C5440 H5422 0.951 . S
C5440 C5441 1.366 . S
C5440 C5442 1.388 . S
C5441 C5440 1.366 . S
C5441 C5445 1.385 . S
C5442 H5423 0.951 . S
C5442 C5440 1.388 . S
C5442 C5443 1.366 . S
C5443 C5442 1.366 . S
C5443 C5444 1.414 . S
C5443 C5446 1.499 . S
C5444 H5424 0.950 . S
C5444 C5443 1.414 . S
C5444 C5445 1.374 . S
C5445 H5425 0.950 . S
C5445 C5441 1.385 . S
C5445 C5444 1.374 . S
C5446 C5443 1.499 . S
C5446 C5447 1.373 . S
C5446 C5448 1.389 . S
C5447 H5426 0.950 . S
C5447 C5446 1.373 . S
C5447 C5463 1.377 . S
C5448 C5446 1.389 . S
C5448 C5449 1.524 . S
C5448 C5462 1.377 . S
C5449 C5448 1.524 . S
C5449 C5450 1.397 . S
C5449 C5454 1.363 . S
C5450 H5427 0.950 . S
C5450 C5449 1.397 . S
C5450 C5451 1.334 . S
C5451 H5428 0.950 . S
C5451 C5450 1.334 . S
C5451 C5452 1.287 . S
C5452 C5451 1.287 . S
C5452 C5453 1.524 . S
C5452 H5471 0.913 . S
C5453 H5429 0.950 . S
C5453 C5452 1.524 . S
C5453 C5454 1.415 . S
C5454 H5430 0.950 . S
C5454 C5449 1.363 . S
C5454 C5453 1.415 . S
C5455 H5431 0.951 . S
C5455 C5456 1.366 . S
C5455 C5457 1.388 . S
C5456 C5455 1.366 . S
C5456 C5460 1.385 . S
C5457 H5432 0.951 . S
C5457 C5455 1.388 . S
C5457 C5458 1.366 . S
C5458 C5457 1.366 . S
C5458 C5459 1.414 . S
C5458 C5461 1.499 . S
C5459 H5433 0.950 . S
C5459 C5458 1.414 . S
C5459 C5460 1.374 . S
C5460 H5434 0.950 . S
C5460 C5456 1.385 . S
C5460 C5459 1.374 . S
C5461 C5458 1.499 . S
C5461 C5462 1.373 . S
C5461 C5463 1.389 . S
C5462 H5435 0.950 . S
C5462 C5448 1.377 . S
C5462 C5461 1.373 . S
C5463 C5447 1.377 . S
C5463 C5461 1.389 . S
C5463 C5464 1.524 . S
C5464 C5463 1.524 . S
C5464 C5465 1.397 . S
C5464 C5469 1.363 . S
C5465 H5436 0.950 . S
C5465 C5464 1.397 . S
C5465 C5466 1.334 . S
C5466 H5437 0.950 . S
C5466 C5465 1.334 . S
C5466 C5467 1.287 . S
C5467 C5466 1.287 . S
C5467 C5468 1.524 . S
C5467 H5470 0.999 . S
C5468 H5438 0.950 . S
C5468 C5467 1.524 . S
C5468 C5469 1.415 . S
C5469 H5439 0.950 . S
C5469 C5464 1.363 . S
C5469 C5468 1.415 . S
H5470 C5467 0.999 . S
H5471 C5452 0.913 . S
C706 C352 1.125 . S
C691 C13 1.172 . S
C741 C25 1.027 . S
C756 C372 1.008 . S
C791 C39 1.161 . S
C806 C394 1.072 . S
C856 C413 1.373 . S
C841 C50 1.366 . S
C891 C21 1.250 . S
C906 C434 1.220 . S
C956 C457 1.183 . S
C941 C35 1.290 . S
C1006 C480 1.036 . S
C991 C55 1.024 . S
C1041 C8 1.298 . S
C1056 C498 1.295 . S
C1091 C69 1.127 . S
C1106 C354 1.147 . S
C1141 C77 1.303 . S
C1156 C374 1.273 . S
C1206 C396 1.087 . S
C1191 C97 1.089 . S
C1256 C415 1.208 . S
C1241 C105 1.322 . S
C1291 C63 1.359 . S
C1306 C436 1.250 . S
C1356 C459 1.045 . S
C1341 C83 1.030 . S
C1406 C476 1.245 . S
C1391 C91 1.279 . S
C1456 C500 1.186 . S
C1441 C111 1.159 . S
C1506 C350 1.245 . S
C1491 C106 1.238 . S
C1556 C522 1.022 . S
C1541 C123 1.041 . S
C1591 C134 1.281 . S
C1606 C539 1.286 . S
C1656 C562 1.142 . S
C1641 C151 1.239 . S
C1691 C64 1.296 . S
C1706 C496 1.223 . S
C1756 C392 1.303 . S
C1741 C78 1.296 . S
C1791 C137 1.000 . S
C1806 C585 0.982 . S
C1856 C601 1.085 . S
C1841 C165 1.169 . S
C1891 C175 1.131 . S
C1906 C349 1.039 . S
C1956 C602 1.002 . S
C1941 C193 1.006 . S
C1991 C209 1.115 . S
C2006 C391 1.071 . S
C2041 C223 0.958 . S
C2056 C582 0.979 . S
C2106 C435 0.990 . S
C2091 C195 0.969 . S
C2156 C538 1.000 . S
C2141 C207 1.075 . S
C2206 C479 1.026 . S
C2191 C221 1.029 . S
C2256 C623 1.260 . S
C2241 C176 1.235 . S
C2306 C353 1.145 . S
C2291 C231 1.165 . S
C2341 C251 1.000 . S
C2356 C606 1.020 . S
C2406 C395 1.107 1_545 S
C2391 C259 1.139 . S
C2441 C279 1.133 . S
C2456 C580 1.105 . S
C2491 C237 1.175 1_545 S
C2506 C433 1.136 . S
C2541 C245 1.162 . S
C2556 C542 1.140 . S
C2606 C477 1.016 . S
C2591 C265 0.994 . S
C2641 C273 1.073 . S
C2656 C627 1.045 . S
C2691 C274 1.136 . S
C2706 C351 1.139 . S
C2741 C291 1.019 . S
C2756 C521 1.011 . S
C2791 C302 1.065 . S
C2806 C456 1.071 . S
C2841 C319 1.029 . S
C2856 C559 0.971 . S
C2906 C625 1.100 . S
C2891 C232 1.162 . S
C2956 C393 1.115 . S
C2941 C246 1.110 . S
C3006 C416 1.022 . S
C2991 C305 1.029 . S
C3056 C373 1.023 . S
C3041 C333 1.092 . S
C3091 C36 1.286 . S
C3106 C646 1.211 . S
C3156 C603 0.982 . S
C3141 C53 0.998 . S
C3206 C667 1.140 . S
C3191 C7 1.248 . S
C3241 C22 1.327 . S
C3256 C581 1.330 . S
C3291 C49 1.293 . S
C3306 C518 1.263 . S
C3356 C541 1.110 . S
C3341 C11 1.201 . S
C3406 C564 1.062 . S
C3391 C27 1.039 1_455 S
C3456 C624 1.196 . S
C3441 C41 1.173 . S
C3506 C648 1.163 . S
C3491 C167 1.144 . S
C3541 C119 1.313 . S
C3556 C605 1.285 . S
C3591 C139 1.080 . S
C3606 C669 1.096 . S
C3656 C583 1.217 . S
C3641 C147 1.332 . S
C3706 C520 1.242 . S
C3691 C161 1.349 . S
C3741 C125 1.018 . S
C3756 C543 1.033 . S
C3806 C560 1.234 . S
C3791 C133 1.269 . S
C3841 C153 1.147 . S
C3856 C626 1.167 . S
C3906 C644 1.288 . S
C3891 C148 1.281 . S
C3956 C438 0.990 . S
C3941 C81 1.009 . S
C4006 C455 1.327 . S
C3991 C92 1.322 . S
C4041 C109 1.215 . S
C4056 C478 1.120 . S
C4106 C622 1.184 . S
C4091 C162 1.253 . S
C4141 C120 1.336 . S
C4156 C665 1.344 . S
C4206 C417 1.011 . S
C4191 C95 1.031 . S
C4256 C370 1.110 . S
C4241 C67 1.195 . S
C4291 C203 1.145 . S
C4306 C643 1.052 . S
C4356 C371 1.142 . S
C4341 C217 1.162 . S
C4406 C664 1.072 . S
C4391 C181 1.112 . S
C4441 C190 1.129 . S
C4456 C414 1.136 . S
C4491 C218 1.138 . S
C4506 C519 1.144 . S
C4541 C179 1.076 . S
C4556 C454 0.998 . S
C4591 C189 1.187 . S
C4606 C563 1.168 . S
C4641 C204 1.245 . S
C4656 C497 1.271 . S
C4706 C647 1.181 . S
C4691 C329 1.199 . S
C4741 C293 0.946 . S
C4756 C375 0.960 . S
C4806 C668 1.143 . S
C4791 C301 1.165 . S
C4841 C321 1.080 . S
C4856 C412 1.054 . S
C4891 C335 1.122 . S
C4906 C517 1.081 . S
C4956 C458 1.169 . S
C4941 C287 1.190 . S
C4991 C307 0.939 . S
C5006 C561 0.957 . S
C5056 C501 1.069 . S
C5041 C315 1.101 . S
C5106 C645 1.111 . S
C5091 C316 1.106 . S
C5156 C437 1.105 . S
C5141 C249 1.115 . S
C5191 C260 1.099 . S
C5206 C540 1.103 . S
C5256 C475 1.062 . S
C5241 C277 1.128 . S
C5306 C499 1.073 . S
C5291 C330 1.126 . S
C5341 C288 1.073 1_556 S
C5356 C666 1.079 . S
C5406 C584 1.116 . S
C5391 C263 1.125 . S
C5456 C604 1.114 . S
C5441 C235 1.190 . S
