# Generated by pormake.
# Topology cml, (3,6)-cn, num edge types: 1
# Building blocks:
#     Node 0, Type 0, BuildingBlock: WUSLED_clean_sbu_0, # of connection points: 3
#     Node 1, Type 0, BuildingBlock: WUSLED_clean_sbu_0, # of connection points: 3
#     Node 2, Type 0, BuildingBlock: WUSLED_clean_sbu_0, # of connection points: 3
#     Node 3, Type 0, BuildingBlock: WUSLED_clean_sbu_0, # of connection points: 3
#     Node 4, Type 0, BuildingBlock: WUSLED_clean_sbu_0, # of connection points: 3
#     Node 5, Type 0, BuildingBlock: WUSLED_clean_sbu_0, # of connection points: 3
#     Node 6, Type 0, BuildingBlock: WUSLED_clean_sbu_0, # of connection points: 3
#     Node 7, Type 0, BuildingBlock: WUSLED_clean_sbu_0, # of connection points: 3
#     Node 8, Type 1, BuildingBlock: IZENUY_clean_sbu_0, # of connection points: 6
#     Node 9, Type 1, BuildingBlock: IZENUY_clean_sbu_0, # of connection points: 6
#     Node 10, Type 1, BuildingBlock: IZENUY_clean_sbu_0, # of connection points: 6
#     Node 11, Type 1, BuildingBlock: IZENUY_clean_sbu_0, # of connection points: 6
#     Edge 12, Type (0, 1), BuildingBlock: EZIPEK_clean_linker_0, # of connection points: 2
#     Edge 13, Type (0, 1), BuildingBlock: EZIPEK_clean_linker_0, # of connection points: 2
#     Edge 14, Type (0, 1), BuildingBlock: EZIPEK_clean_linker_0, # of connection points: 2
#     Edge 15, Type (0, 1), BuildingBlock: EZIPEK_clean_linker_0, # of connection points: 2
#     Edge 16, Type (0, 1), BuildingBlock: EZIPEK_clean_linker_0, # of connection points: 2
#     Edge 17, Type (0, 1), BuildingBlock: EZIPEK_clean_linker_0, # of connection points: 2
#     Edge 18, Type (0, 1), BuildingBlock: EZIPEK_clean_linker_0, # of connection points: 2
#     Edge 19, Type (0, 1), BuildingBlock: EZIPEK_clean_linker_0, # of connection points: 2
#     Edge 20, Type (0, 1), BuildingBlock: EZIPEK_clean_linker_0, # of connection points: 2
#     Edge 21, Type (0, 1), BuildingBlock: EZIPEK_clean_linker_0, # of connection points: 2
#     Edge 22, Type (0, 1), BuildingBlock: EZIPEK_clean_linker_0, # of connection points: 2
#     Edge 23, Type (0, 1), BuildingBlock: EZIPEK_clean_linker_0, # of connection points: 2
#     Edge 24, Type (0, 1), BuildingBlock: EZIPEK_clean_linker_0, # of connection points: 2
#     Edge 25, Type (0, 1), BuildingBlock: EZIPEK_clean_linker_0, # of connection points: 2
#     Edge 26, Type (0, 1), BuildingBlock: EZIPEK_clean_linker_0, # of connection points: 2
#     Edge 27, Type (0, 1), BuildingBlock: EZIPEK_clean_linker_0, # of connection points: 2
#     Edge 28, Type (0, 1), BuildingBlock: EZIPEK_clean_linker_0, # of connection points: 2
#     Edge 29, Type (0, 1), BuildingBlock: EZIPEK_clean_linker_0, # of connection points: 2
#     Edge 30, Type (0, 1), BuildingBlock: EZIPEK_clean_linker_0, # of connection points: 2
#     Edge 31, Type (0, 1), BuildingBlock: EZIPEK_clean_linker_0, # of connection points: 2
#     Edge 32, Type (0, 1), BuildingBlock: EZIPEK_clean_linker_0, # of connection points: 2
#     Edge 33, Type (0, 1), BuildingBlock: EZIPEK_clean_linker_0, # of connection points: 2
#     Edge 34, Type (0, 1), BuildingBlock: EZIPEK_clean_linker_0, # of connection points: 2
#     Edge 35, Type (0, 1), BuildingBlock: EZIPEK_clean_linker_0, # of connection points: 2
# Relax obj value: 0.051
# Max RMSD: 0.068
# Mean RMSD: 0.065
data_MOF--net-cml--node1-WUSLED_clean_sbu_0--node2-IZENUY_clean_sbu_0--edge1-EZIPEK_clean_linker_0
_symmetry_space_group_name_H-M    P1
_symmetry_Int_Tables_number       1
_symmetry_cell_setting            triclinic
loop_
_symmetry_equiv_pos_as_xyz
'x, y, z'
_cell_length_a     36.61481
_cell_length_b     42.48843
_cell_length_c     39.006984
_cell_angle_alpha  90.39964
_cell_angle_beta   89.994218
_cell_angle_gamma 90.189299
loop_
_atom_site_label
_atom_site_type_symbol
_atom_site_fract_x
_atom_site_fract_y
_atom_site_fract_z
_atom_type_partial_charge
C0 C 0.31624 0.47401 0.96367 0.0
C1 C 0.34931 0.48068 0.98068 0.0
C2 C 0.36128 0.52369 0.9411 0.0
C3 C 0.37177 0.50542 0.96935 0.0
C4 C 0.3276 0.51781 0.92525 0.0
C5 C 0.30535 0.49317 0.93643 0.0
U6 U 0.28171 0.4037 0.01899 0.0
O7 O 0.22557 0.38464 0.02197 0.0
O8 O 0.27002 0.35513 1.00185 0.0
C9 C 0.23508 0.35715 1.00914 0.0
C10 C 0.29378 0.44594 0.97128 0.0
C11 C 0.20894 0.34001 0.98665 0.0
C12 C 0.16726 0.33458 0.938 0.0
C13 C 0.19319 0.35238 0.95684 0.0
C14 C 0.17496 0.2916 0.97694 0.0
C15 C 0.15468 0.30471 0.94961 0.0
C16 C 0.20034 0.30918 0.99568 0.0
C17 C 0.32883 0.39597 0.11069 0.0
C18 C 0.35501 0.3551 0.14663 0.0
C19 C 0.3534 0.40905 0.16705 0.0
C20 C 0.33585 0.41802 0.13686 0.0
C21 C 0.36409 0.37773 0.1717 0.0
C22 C 0.33752 0.36415 0.11621 0.0
C23 C 0.31902 0.40825 0.07648 0.0
O24 O 0.31103 0.41891 0.97278 0.0
O25 O 0.26826 0.44902 0.99475 0.0
O26 O 0.28693 0.42147 0.07229 0.0
O27 O 0.33053 0.39271 0.04933 0.0
H28 H 0.35824 0.46625 1.00186 0.0
H29 H 0.39773 0.50973 0.98189 0.0
H30 H 0.31919 0.53154 0.90334 0.0
H31 H 0.28005 0.48836 0.92294 0.0
H32 H 0.15837 0.34444 0.91407 0.0
H33 H 0.20111 0.37551 0.94795 0.0
H34 H 0.17193 0.26731 0.98434 0.0
H35 H 0.21358 0.29837 0.01747 0.0
H36 H 0.36331 0.33084 0.14977 0.0
H37 H 0.36055 0.42687 0.18591 0.0
H38 H 0.32987 0.44271 0.13303 0.0
H39 H 0.33265 0.34667 0.09639 0.0
C40 C 0.69949 0.64902 0.61262 0.0
C41 C 0.66174 0.64311 0.60944 0.0
C42 C 0.65387 0.64929 0.67128 0.0
C43 C 0.63913 0.64336 0.63855 0.0
C44 C 0.69172 0.65371 0.67454 0.0
C45 C 0.71422 0.65369 0.64551 0.0
U46 U 0.73682 0.62642 0.52255 0.0
O47 O 0.75149 0.65714 0.47939 0.0
O48 O 0.79344 0.6272 0.50269 0.0
C49 C 0.78586 0.64824 0.47919 0.0
C50 C 0.72368 0.65317 0.58236 0.0
C51 C 0.81422 0.67197 0.47047 0.0
C52 C 0.83639 0.72607 0.46604 0.0
C53 C 0.81155 0.70401 0.47955 0.0
C54 C 0.86742 0.68434 0.43529 0.0
C55 C 0.86405 0.71648 0.44314 0.0
C56 C 0.8428 0.66242 0.4488 0.0
C57 C 0.68518 0.54969 0.48651 0.0
C58 C 0.68015 0.52046 0.43283 0.0
C59 C 0.64319 0.50552 0.4817 0.0
C60 C 0.65927 0.52947 0.50108 0.0
C61 C 0.65298 0.50113 0.44736 0.0
C62 C 0.69607 0.5449 0.4523 0.0
C63 C 0.69766 0.57626 0.50795 0.0
O64 O 0.74935 0.632 0.57769 0.0
O65 O 0.70812 0.66197 0.55362 0.0
O66 O 0.68776 0.60487 0.4995 0.0
O67 O 0.72973 0.57476 0.52293 0.0
H68 H 0.64956 0.63914 0.58447 0.0
H69 H 0.61002 0.63958 0.63549 0.0
H70 H 0.70372 0.65805 0.69952 0.0
H71 H 0.74316 0.65824 0.64867 0.0
H72 H 0.83341 0.75074 0.47263 0.0
H73 H 0.78975 0.71208 0.49616 0.0
H74 H 0.88852 0.67632 0.41786 0.0
H75 H 0.84528 0.63794 0.44121 0.0
H76 H 0.68774 0.51745 0.40616 0.0
H77 H 0.6222 0.49101 0.49323 0.0
H78 H 0.65051 0.53286 0.52738 0.0
H79 H 0.71596 0.56036 0.44055 0.0
C80 C 0.70177 0.47157 0.95733 0.0
C81 C 0.67927 0.48612 0.98201 0.0
C82 C 0.65664 0.52256 0.93878 0.0
C83 C 0.65693 0.51158 0.97277 0.0
C84 C 0.67945 0.50816 0.91447 0.0
C85 C 0.7018 0.48301 0.92371 0.0
U86 U 0.73457 0.4012 1.01265 0.0
O87 O 0.74711 0.35271 0.99609 0.0
O88 O 0.7905 0.3824 0.01821 0.0
C89 C 0.7817 0.35491 1.00477 0.0
C90 C 0.72494 0.44403 0.96504 0.0
C91 C 0.80865 0.3382 0.98278 0.0
C92 C 0.85934 0.33578 0.94202 0.0
C93 C 0.83299 0.35339 0.96027 0.0
C94 C 0.83707 0.28801 0.96837 0.0
C95 C 0.86156 0.30288 0.94607 0.0
C96 C 0.811 0.30543 0.9864 0.0
C97 C 0.67822 0.39445 0.10049 0.0
C98 C 0.67933 0.36316 0.15261 0.0
C99 C 0.63212 0.40169 0.14441 0.0
C100 C 0.64664 0.4091 0.11246 0.0
C101 C 0.64971 0.38053 0.16685 0.0
C102 C 0.69392 0.37061 0.12018 0.0
C103 C 0.69265 0.40509 0.06719 0.0
O104 O 0.74875 0.44711 0.99008 0.0
O105 O 0.70848 0.41652 0.96474 0.0
O106 O 0.68334 0.38939 0.03941 0.0
O107 O 0.72548 0.41768 0.0658 0.0
H108 H 0.67866 0.47761 1.00812 0.0
H109 H 0.63931 0.52228 0.99186 0.0
H110 H 0.67949 0.51608 0.88814 0.0
H111 H 0.71888 0.47212 0.90433 0.0
H112 H 0.87811 0.34775 0.92502 0.0
H113 H 0.83193 0.37867 0.95708 0.0
H114 H 0.8384 0.2628 0.9721 0.0
H115 H 0.79283 0.29322 1.00379 0.0
H116 H 0.6918 0.34363 0.16518 0.0
H117 H 0.60703 0.41339 0.15162 0.0
H118 H 0.6331 0.4267 0.09705 0.0
H119 H 0.71734 0.35776 0.11058 0.0
C120 C 0.31744 0.64306 0.61278 0.0
C121 C 0.35343 0.63144 0.6114 0.0
C122 C 0.36309 0.64654 0.67131 0.0
C123 C 0.3761 0.6332 0.64052 0.0
C124 C 0.32671 0.65661 0.67301 0.0
C125 C 0.30421 0.65494 0.64405 0.0
U126 U 0.27951 0.61989 0.52205 0.0
O127 O 0.22267 0.62255 0.50282 0.0
O128 O 0.26572 0.65149 0.47943 0.0
C129 C 0.23098 0.64352 0.47942 0.0
C130 C 0.29403 0.64628 0.58189 0.0
C131 C 0.20356 0.66794 0.47065 0.0
C132 C 0.18284 0.72246 0.46711 0.0
C133 C 0.20692 0.69978 0.48046 0.0
C134 C 0.15136 0.68176 0.43489 0.0
C135 C 0.15532 0.71366 0.44363 0.0
C136 C 0.17516 0.65924 0.44827 0.0
C137 C 0.32732 0.54204 0.48422 0.0
C138 C 0.34192 0.51811 0.42893 0.0
C139 C 0.36276 0.49386 0.48143 0.0
C140 C 0.34559 0.51737 0.50051 0.0
C141 C 0.36191 0.49443 0.44553 0.0
C142 C 0.32473 0.54196 0.44822 0.0
C143 C 0.31608 0.56878 0.50609 0.0
O144 O 0.31029 0.65425 0.55317 0.0
O145 O 0.26788 0.62538 0.57741 0.0
O146 O 0.28436 0.56795 0.52183 0.0
O147 O 0.32708 0.59724 0.49794 0.0
H148 H 0.36429 0.6219 0.58769 0.0
H149 H 0.40397 0.62485 0.63886 0.0
H150 H 0.31606 0.6667 0.69654 0.0
H151 H 0.27665 0.66401 0.64578 0.0
H152 H 0.18618 0.74694 0.47443 0.0
H153 H 0.22859 0.70722 0.49761 0.0
H154 H 0.13033 0.67438 0.417 0.0
H155 H 0.17214 0.63494 0.4401 0.0
H156 H 0.34125 0.51899 0.40119 0.0
H157 H 0.37843 0.47609 0.49468 0.0
H158 H 0.34827 0.51719 0.52818 0.0
H159 H 0.31088 0.56087 0.43511 0.0
C160 C 0.81443 0.97405 0.9626 0.0
C161 C 0.84253 0.98533 0.98409 0.0
C162 C 0.86049 0.02332 0.94044 0.0
C163 C 0.86548 1.0099 0.97301 0.0
C164 C 0.83185 0.01254 0.91963 0.0
C165 C 0.80908 0.98818 0.93063 0.0
U166 U 0.77893 0.9041 0.01864 0.0
O167 O 0.722 0.88684 0.02361 0.0
O168 O 0.76395 0.85656 1.00057 0.0
C169 C 0.72933 0.85967 1.00884 0.0
C170 C 0.79123 0.94664 0.97118 0.0
C171 C 0.70156 0.84561 0.98532 0.0
C172 C 0.68291 0.82402 0.92967 0.0
C173 C 0.70703 0.84242 0.9497 0.0
C174 C 0.6467 0.81306 0.9801 0.0
C175 C 0.65305 0.80853 0.94492 0.0
C176 C 0.67068 0.83133 1.0 0.0
C177 C 0.8294 0.89559 0.10941 0.0
C178 C 0.86088 0.85735 0.14517 0.0
C179 C 0.85225 0.91065 0.16589 0.0
C180 C 0.83368 0.91806 0.13571 0.0
C181 C 0.86695 0.88053 0.17046 0.0
C182 C 0.84227 0.86482 0.11479 0.0
C183 C 0.81811 0.90699 0.07515 0.0
O184 O 0.80742 0.91911 0.97182 0.0
O185 O 0.76694 0.95029 0.99568 0.0
O186 O 0.82789 0.89084 0.0478 0.0
O187 O 0.78655 0.92135 0.07187 0.0
H188 H 0.8472 0.97475 1.00889 0.0
H189 H 0.88764 0.01786 0.98933 0.0
H190 H 0.82778 0.02237 0.89437 0.0
H191 H 0.7877 0.97977 0.91366 0.0
H192 H 0.68825 0.82096 0.90255 0.0
H193 H 0.73058 0.85312 0.93761 0.0
H194 H 0.62398 0.80132 0.99245 0.0
H195 H 0.66595 0.83315 0.02736 0.0
H196 H 0.87211 0.83398 0.14824 0.0
H197 H 0.85685 0.92892 0.18494 0.0
H198 H 0.82458 0.94205 0.13203 0.0
H199 H 0.83965 0.84704 0.09491 0.0
C200 C 0.1996 0.14871 0.6108 0.0
C201 C 0.16181 0.143 0.60768 0.0
C202 C 0.15428 0.14849 0.6696 0.0
C203 C 0.13934 0.14303 0.63686 0.0
C204 C 0.19217 0.15267 0.67278 0.0
C205 C 0.21453 0.15291 0.64367 0.0
U206 U 0.23571 0.12721 0.52013 0.0
O207 O 0.24953 0.1585 0.47714 0.0
O208 O 0.29199 0.12854 0.49965 0.0
C209 C 0.28384 0.1495 0.47624 0.0
C210 C 0.22363 0.15314 0.58051 0.0
C211 C 0.31187 0.1731 0.46668 0.0
C212 C 0.34653 0.22174 0.47493 0.0
C213 C 0.32074 0.19964 0.48685 0.0
C214 C 0.35458 0.19099 0.42299 0.0
C215 C 0.36334 0.21766 0.44267 0.0
C216 C 0.32931 0.16895 0.43495 0.0
C217 C 0.18243 0.05197 0.48253 0.0
C218 C 0.18382 0.01866 0.43148 0.0
C219 C 0.13618 0.01159 0.47391 0.0
C220 C 0.15131 0.03572 0.49367 0.0
C221 C 0.15201 1.00299 0.44259 0.0
C222 C 0.19891 0.04329 0.45131 0.0
C223 C 0.19563 0.07772 0.50481 0.0
O224 O 0.24894 0.13176 0.57523 0.0
O225 O 0.20792 0.16259 0.5521 0.0
O226 O 0.18573 0.10664 0.4977 0.0
O227 O 0.22812 0.07562 0.51891 0.0
H228 H 0.1495 0.13938 0.5827 0.0
H229 H 0.11019 0.13944 0.63387 0.0
H230 H 0.2043 0.15667 0.69777 0.0
H231 H 0.24351 0.1573 0.64677 0.0
H232 H 0.35296 0.24223 0.4905 0.0
H233 H 0.30759 0.20341 0.5114 0.0
H234 H 0.36721 0.18732 0.39817 0.0
H235 H 0.3229 0.14869 0.41901 0.0
H236 H 0.19637 0.01223 0.40728 0.0
H237 H 0.11182 0.99972 0.48298 0.0
H238 H 0.13837 0.04198 0.51775 0.0
H239 H 0.22299 0.05555 0.44226 0.0
C240 C 0.20037 0.97239 0.96207 0.0
C241 C 0.16219 0.97148 0.96648 0.0
C242 C 0.15656 0.02354 0.94103 0.0
C243 C 0.1405 0.99679 0.95589 0.0
C244 C 0.19475 0.02505 0.9382 0.0
C245 C 0.21637 0.99966 0.94842 0.0
U246 U 0.23469 0.90162 0.01562 0.0
O247 O 0.2472 0.85319 0.99877 0.0
O248 O 0.29065 0.8829 0.02082 0.0
C249 C 0.28176 0.85534 1.00761 0.0
C250 C 0.22381 0.94453 0.96838 0.0
C251 C 0.30887 0.83841 0.98614 0.0
C252 C 0.35329 0.83409 0.93959 0.0
C253 C 0.32729 0.85185 0.95808 0.0
C254 C 0.34247 0.7897 0.97686 0.0
C255 C 0.36095 0.80276 0.94887 0.0
C256 C 0.31684 0.8073 0.9952 0.0
C257 C 0.1803 0.89551 0.1046 0.0
C258 C 0.17838 0.86056 0.15386 0.0
C259 C 0.13465 0.903 0.14915 0.0
C260 C 0.15069 0.91216 0.11838 0.0
C261 C 0.14808 0.87704 0.16706 0.0
C262 C 0.19435 0.86963 0.12255 0.0
C263 C 0.19407 0.90602 0.07101 0.0
O264 O 0.24886 0.94737 0.99237 0.0
O265 O 0.20764 0.91686 0.96825 0.0
O266 O 0.18415 0.8901 0.04355 0.0
O267 O 0.22688 0.91852 0.06887 0.0
H268 H 0.14901 0.95091 0.97718 0.0
H269 H 0.11109 0.99526 0.95861 0.0
H270 H 0.20773 0.04552 0.92706 0.0
H271 H 0.24566 1.00097 0.94474 0.0
H272 H 0.3674 0.84467 0.91813 0.0
H273 H 0.32172 0.87586 0.95061 0.0
H274 H 0.34803 0.76576 0.98465 0.0
H275 H 0.3032 0.79653 0.01683 0.0
H276 H 0.18913 0.84047 0.16745 0.0
H277 H 0.1115 0.9161 0.15895 0.0
H278 H 0.13953 0.9322 0.10495 0.0
H279 H 0.21717 0.85641 0.11233 0.0
C280 C 0.82222 0.13611 0.61356 0.0
C281 C 0.85267 0.11653 0.61796 0.0
C282 C 0.86561 0.14215 0.67287 0.0
C283 C 0.87429 0.11954 0.64761 0.0
C284 C 0.83463 0.16094 0.6687 0.0
C285 C 0.81317 0.15792 0.63932 0.0
U286 U 0.77856 0.11807 0.521 0.0
O287 O 0.72076 0.12949 0.5107 0.0
O288 O 0.7652 0.15683 0.48568 0.0
C289 C 0.72997 0.15236 0.48988 0.0
C290 C 0.8005 0.13683 0.58183 0.0
C291 C 0.70256 0.1717 0.47234 0.0
C292 C 0.65176 0.20835 0.47487 0.0
C293 C 0.67613 0.18811 0.49135 0.0
C294 C 0.67915 0.19507 0.42009 0.0
C295 C 0.65346 0.21227 0.43915 0.0
C296 C 0.70367 0.17502 0.4366 0.0
C297 C 0.82331 0.04066 0.47737 0.0
C298 C 0.83329 1.00106 0.43313 0.0
C299 C 0.87593 1.00625 0.48043 0.0
C300 C 0.85498 0.03078 0.49432 0.0
C301 C 0.86548 0.99165 0.44944 0.0
C302 C 0.81232 0.02533 0.4471 0.0
C303 C 0.80298 0.06876 0.48802 0.0
O304 O 0.81668 0.14532 0.55326 0.0
O305 O 0.77371 0.1165 0.57748 0.0
O306 O 0.77544 0.06694 0.50958 0.0
O307 O 0.81898 0.09645 0.48661 0.0
H308 H 0.86012 0.09961 0.5983 0.0
H309 H 0.8982 0.10486 0.6505 0.0
H310 H 0.82767 0.17859 0.68777 0.0
H311 H 0.78993 0.17338 0.63623 0.0
H312 H 0.63226 0.2216 0.49002 0.0
H313 H 0.67508 0.18599 0.519 0.0
H314 H 0.68076 0.19775 0.39254 0.0
H315 H 0.72376 0.16239 0.42151 0.0
H316 H 0.82512 0.99039 0.40901 0.0
H317 H 0.90094 0.99938 0.49314 0.0
H318 H 0.86401 0.04258 0.51754 0.0
H319 H 0.78816 0.033 0.43349 0.0
Fe320 Fe 1.00988 0.82152 0.32551 0.0
Fe321 Fe 0.01538 0.85595 0.39456 0.0
O322 O 0.01275 0.85725 0.34916 0.0
Fe323 Fe 0.0126 0.89383 0.32775 0.0
O324 O 0.96948 0.88565 0.30668 0.0
O325 O 0.98245 0.83763 0.28988 0.0
O326 O 0.96698 0.81144 0.3469 0.0
C327 C 0.96423 0.80715 0.37877 0.0
C328 C 0.05826 0.85505 0.28614 0.0
O329 O 0.98806 0.81943 0.39832 0.0
C330 C 0.06156 0.90792 0.37816 0.0
O331 O 0.03732 0.79828 0.35652 0.0
O332 O 0.05775 0.83391 0.39283 0.0
O333 O 0.03937 0.87953 0.29116 0.0
O334 O 0.05218 0.82993 0.30249 0.0
C335 C 0.96706 0.90437 0.38603 0.0
O336 O 0.04293 0.89219 0.39943 0.0
O337 O 0.0557 0.90543 0.34657 0.0
C338 C 0.05971 0.80671 0.37983 0.0
O339 O 0.97333 0.87797 0.39946 0.0
O340 O 0.9859 0.91419 0.36097 0.0
C341 C 0.96386 0.86257 0.28704 0.0
Fe342 Fe 1.00851 0.16571 0.89609 0.0
Fe343 Fe 0.01055 0.12609 0.82958 0.0
O344 O 1.00975 0.16342 0.85059 0.0
Fe345 Fe 0.01063 0.19878 0.82623 0.0
O346 O 0.05336 0.21172 0.84642 0.0
O347 O 0.03572 0.20211 0.89897 0.0
O348 O 0.05098 0.14394 0.90011 0.0
C349 C 0.05746 0.11736 0.88684 0.0
C350 C 0.96233 0.21417 0.88157 0.0
O351 O 0.03867 0.10693 0.86206 0.0
C352 C 0.9629 0.16253 0.78814 0.0
O353 O 0.98123 0.1298 0.90208 0.0
O354 O 0.9685 0.1132 0.8499 0.0
O355 O 0.9832 0.22209 0.85711 0.0
O356 O 0.96585 0.18764 0.89556 0.0
C357 C 0.05737 0.15821 0.78774 0.0
O358 O 0.98264 0.13864 0.79323 0.0
O359 O 0.9683 0.1882 0.80411 0.0
C360 C 0.96251 0.11306 0.8817 0.0
O361 O 0.05269 0.13525 0.80743 0.0
O362 O 0.03797 0.18264 0.79067 0.0
C363 C 0.05705 0.21593 0.87834 0.0
Fe364 Fe 0.51048 0.32183 0.32487 0.0
Fe365 Fe 0.51335 0.35717 0.39532 0.0
O366 O 0.51074 0.35765 0.34954 0.0
Fe367 Fe 0.50905 0.39449 0.3281 0.0
O368 O 0.48153 0.38091 0.292 0.0
O369 O 0.46815 0.33168 0.30258 0.0
O370 O 0.48259 0.29972 0.35601 0.0
C371 C 0.46579 0.30742 0.38324 0.0
C372 C 0.55728 0.36284 0.28666 0.0
O373 O 0.47264 0.33282 0.39894 0.0
C374 C 0.55709 0.40913 0.38277 0.0
O375 O 0.55272 0.30772 0.34425 0.0
O376 O 0.5428 0.3225 0.39769 0.0
O377 O 0.5514 0.38606 0.30609 0.0
O378 O 0.53828 0.33789 0.28928 0.0
C379 C 0.46294 0.40669 0.38195 0.0
O380 O 0.55459 0.38221 0.39648 0.0
O381 O 0.53629 0.41624 0.35864 0.0
C382 C 0.55916 0.30543 0.37596 0.0
O383 O 0.48357 0.39115 0.4015 0.0
O384 O 0.46696 0.4059 0.34971 0.0
C385 C 0.46257 0.3567 0.2861 0.0
Fe386 Fe 0.50958 0.6663 0.89726 0.0
Fe387 Fe 0.50967 0.62728 0.83044 0.0
O388 O 0.50919 0.66449 0.85166 0.0
Fe389 Fe 0.50794 0.69949 0.82685 0.0
O390 O 0.55015 0.71463 0.84609 0.0
O391 O 0.53782 0.70208 0.89968 0.0
O392 O 0.55173 0.64362 0.90005 0.0
C393 C 0.55619 0.61661 0.88715 0.0
C394 C 0.46205 0.71483 0.88387 0.0
O395 O 0.53592 0.60682 0.86325 0.0
C396 C 0.46148 0.66225 0.78845 0.0
O397 O 0.48119 0.63085 0.90288 0.0
O398 O 0.46699 0.61587 0.85039 0.0
O399 O 0.48036 0.72237 0.85763 0.0
O400 O 0.46761 0.68908 0.89886 0.0
C401 C 0.55657 0.65928 0.7893 0.0
O402 O 0.4833 0.63969 0.79283 0.0
O403 O 0.46516 0.68728 0.80594 0.0
C404 C 0.46146 0.61502 0.88228 0.0
O405 O 0.55256 0.63641 0.80943 0.0
O406 O 0.53579 0.68314 0.79133 0.0
C407 C 0.55589 0.71778 0.87798 0.0
C408 C 0.11203 0.25667 0.94723 0.0
C409 C 0.12385 0.28534 0.93248 0.0
C410 C 0.08835 0.27053 0.88061 0.0
C411 C 0.08395 0.23924 0.89339 0.0
N412 N 0.1016 0.20182 0.93679 0.0
N413 N 0.09742 0.32506 0.89669 0.0
C414 C 0.09893 0.23217 0.92598 0.0
C415 C 0.10555 0.29415 0.90175 0.0
N416 N 0.10759 0.25444 0.98184 0.0
N417 N 0.07579 0.27836 0.84885 0.0
H418 H 0.10016 0.34159 0.91642 0.0
H419 H 0.0817 0.33314 0.87634 0.0
H420 H 0.0607 0.26343 0.83311 0.0
H421 H 0.08284 0.29942 0.83696 0.0
H422 H 0.09605 0.23468 0.99338 0.0
H423 H 0.11075 0.27396 0.99801 0.0
H424 H 0.114 0.19594 0.95997 0.0
H425 H 0.09606 0.18279 0.92064 0.0
C426 C 0.8872 0.74455 0.39021 0.0
C427 C 0.88861 0.74004 0.42619 0.0
C428 C 0.93091 0.78443 0.43039 0.0
C429 C 0.93582 0.78499 0.39395 0.0
N430 N 0.92137 0.75797 0.33972 0.0
N431 N 0.9199 0.75109 0.47927 0.0
C432 C 0.91468 0.76305 0.37381 0.0
C433 C 0.91317 0.75839 0.44585 0.0
N434 N 0.85933 0.73156 0.37154 0.0
N435 N 0.94034 0.80964 0.45046 0.0
H436 H 0.90776 0.7319 0.4914 0.0
H437 H 0.94034 0.76227 0.49352 0.0
H438 H 0.94671 0.83163 0.44043 0.0
H439 H 0.93567 0.81023 0.47683 0.0
H440 H 0.85478 0.737 0.34587 0.0
H441 H 0.83857 0.71814 0.38256 0.0
H442 H 0.90815 0.74035 0.32568 0.0
H443 H 0.94281 0.76759 0.32597 0.0
C444 C 0.91944 0.27108 0.94718 0.0
C445 C 0.88984 0.28337 0.92806 0.0
C446 C 0.91025 0.25329 0.87729 0.0
C447 C 0.93754 0.23833 0.89744 0.0
N448 N 0.96806 0.23289 0.95218 0.0
N449 N 0.8553 0.28529 0.87566 0.0
C450 C 0.94206 0.24719 0.93257 0.0
C451 C 0.88508 0.27455 0.89317 0.0
N452 N 0.92675 0.28327 0.97902 0.0
N453 N 0.90808 0.24701 0.84293 0.0
H454 H 0.83679 0.30129 0.88611 0.0
H455 H 0.84749 0.27707 0.85156 0.0
H456 H 0.92315 0.22943 0.83084 0.0
H457 H 0.89264 0.26023 0.82591 0.0
H458 H 0.95009 0.27815 0.99312 0.0
H459 H 0.91096 0.3009 0.99034 0.0
H460 H 0.96902 0.23451 0.97879 0.0
H461 H 0.98814 0.21819 0.94228 0.0
C462 C 0.10169 0.75093 0.44634 0.0
C463 C 0.13098 0.73771 0.42738 0.0
C464 C 0.11153 0.76735 0.37633 0.0
C465 C 0.08419 0.78277 0.39614 0.0
N466 N 0.05479 0.79069 0.45121 0.0
N467 N 0.16638 0.73524 0.3754 0.0
C468 C 0.07986 0.77507 0.43152 0.0
C469 C 0.13643 0.74631 0.39257 0.0
N470 N 0.09355 0.73923 0.47803 0.0
N471 N 0.11379 0.77283 0.34189 0.0
H472 H 0.18512 0.71983 0.38631 0.0
H473 H 0.17439 0.74302 0.3513 0.0
H474 H 0.09838 0.78986 0.3295 0.0
H475 H 0.12948 0.75935 0.32511 0.0
H476 H 0.06988 0.74477 0.49154 0.0
H477 H 0.10898 0.72179 0.48983 0.0
H478 H 0.05407 0.78954 0.47785 0.0
H479 H 0.03568 0.80625 0.44145 0.0
C480 C 0.63585 0.75273 0.92905 0.0
C481 C 0.62995 0.78555 0.92496 0.0
C482 C 0.57751 0.77417 0.8869 0.0
C483 C 0.58313 0.7413 0.89144 0.0
N484 N 0.62065 0.69915 0.91219 0.0
N485 N 0.5934 0.82796 0.90341 0.0
C486 C 0.61305 0.73061 0.91144 0.0
C487 C 0.60055 0.79639 0.9044 0.0
N488 N 0.66272 0.74271 0.95075 0.0
N489 N 0.55008 0.78416 0.86584 0.0
H490 H 0.60986 0.84474 0.91553 0.0
H491 H 0.57026 0.83773 0.89238 0.0
H492 H 0.53125 0.76897 0.8544 0.0
H493 H 0.54675 0.80732 0.85806 0.0
H494 H 0.66547 0.71961 0.95899 0.0
H495 H 0.68163 0.7579 0.96218 0.0
H496 H 0.64383 0.68946 0.92326 0.0
H497 H 0.60502 0.68256 0.89907 0.0
C498 C 0.3763 0.26889 0.41242 0.0
C499 C 0.38964 0.24137 0.42867 0.0
C500 C 0.45275 0.25833 0.41719 0.0
C501 C 0.43945 0.28476 0.39893 0.0
N502 N 0.38896 0.31443 0.37688 0.0
N503 N 0.44014 0.20755 0.44275 0.0
C504 C 0.40128 0.28985 0.39603 0.0
C505 C 0.42777 0.2354 0.42986 0.0
N506 N 0.33968 0.27513 0.413 0.0
N507 N 0.48924 0.25596 0.42396 0.0
H508 H 0.42303 0.19099 0.45417 0.0
H509 H 0.46699 0.19988 0.4402 0.0
H510 H 0.50811 0.27268 0.41596 0.0
H511 H 0.50053 0.23915 0.44005 0.0
H512 H 0.32832 0.29629 0.40513 0.0
H513 H 0.32043 0.2597 0.42326 0.0
H514 H 0.36184 0.31751 0.36976 0.0
H515 H 0.40654 0.33112 0.36646 0.0
C516 C 0.38031 0.76998 0.89748 0.0
C517 C 0.38858 0.78309 0.93018 0.0
C518 C 0.44436 0.75098 0.93294 0.0
C519 C 0.43676 0.73849 0.89967 0.0
N520 N 0.40047 0.73973 0.84802 0.0
N521 N 0.43179 0.79119 0.97588 0.0
C522 C 0.40579 0.74933 0.88117 0.0
C523 C 0.42158 0.77498 0.94699 0.0
N524 N 0.34716 0.7759 0.88278 0.0
N525 N 0.47335 0.73995 0.95133 0.0
H526 H 0.41601 0.80913 0.98662 0.0
H527 H 0.45725 0.78907 0.98748 0.0
H528 H 0.49274 0.7246 0.94138 0.0
H529 H 0.47727 0.74465 0.9773 0.0
H530 H 0.33748 0.76423 0.86105 0.0
H531 H 0.32793 0.791 0.89367 0.0
H532 H 0.38157 0.75001 0.83164 0.0
H533 H 0.41637 0.72261 0.83607 0.0
C534 C 0.639 0.26833 0.42446 0.0
C535 C 0.62995 0.23591 0.42179 0.0
C536 C 0.57702 0.24851 0.38554 0.0
C537 C 0.5852 0.28118 0.38915 0.0
N538 N 0.62543 0.32221 0.40891 0.0
N539 N 0.58803 0.19501 0.40471 0.0
C540 C 0.61651 0.29102 0.40802 0.0
C541 C 0.5985 0.22593 0.40339 0.0
N542 N 0.66874 0.27736 0.44347 0.0
N543 N 0.5488 0.23899 0.36494 0.0
H544 H 0.60316 0.17786 0.41733 0.0
H545 H 0.5631 0.18655 0.39569 0.0
H546 H 0.53115 0.25452 0.35289 0.0
H547 H 0.54399 0.21567 0.35794 0.0
H548 H 0.67504 0.30048 0.4501 0.0
H549 H 0.68713 0.26143 0.454 0.0
H550 H 0.64932 0.33154 0.41918 0.0
H551 H 0.60916 0.33905 0.39745 0.0
C552 C 0.38601 0.57903 0.9375 0.0
C553 C 0.38668 0.54729 0.92603 0.0
C554 C 0.43704 0.55953 0.8868 0.0
C555 C 0.43478 0.59188 0.89637 0.0
N556 N 0.40276 0.6333 0.92635 0.0
N557 N 0.4076 0.50845 0.8852 0.0
C558 C 0.40813 0.60187 0.92064 0.0
C559 C 0.41054 0.53795 0.89922 0.0
N560 N 0.36422 0.58728 0.96455 0.0
N561 N 0.46575 0.54882 0.8676 0.0
H562 H 0.38975 0.49134 0.89448 0.0
H563 H 0.42078 0.50176 0.86264 0.0
H564 H 0.4867 0.56318 0.85869 0.0
H565 H 0.47098 0.52503 0.8634 0.0
H566 H 0.36531 0.60914 0.9767 0.0
H567 H 0.34659 0.57142 0.97647 0.0
H568 H 0.38183 0.64237 0.94146 0.0
H569 H 0.41705 0.65066 0.91321 0.0
C570 C 0.60065 0.48905 0.40818 0.0
C571 C 0.6316 0.47834 0.42634 0.0
C572 C 0.6187 0.42472 0.40674 0.0
C573 C 0.58354 0.43389 0.39536 0.0
N574 N 0.54117 0.47757 0.38527 0.0
N575 N 0.66924 0.43532 0.44507 0.0
C576 C 0.57464 0.46686 0.39555 0.0
C577 C 0.64024 0.44593 0.42649 0.0
N578 N 0.59604 0.52058 0.40285 0.0
N579 N 0.63326 0.39715 0.39533 0.0
H580 H 0.68674 0.45039 0.45853 0.0
H581 H 0.67429 0.41144 0.44869 0.0
H582 H 0.62093 0.38448 0.37545 0.0
H583 H 0.65975 0.39001 0.40109 0.0
H584 H 0.57714 0.52963 0.38559 0.0
H585 H 0.61329 0.53776 0.41314 0.0
H586 H 0.53211 0.50036 0.39023 0.0
H587 H 0.52043 0.46413 0.37455 0.0
C588 C 0.59287 0.54138 0.92638 0.0
C589 C 0.63091 0.54774 0.92767 0.0
C590 C 0.62034 0.59885 0.90023 0.0
C591 C 0.58212 0.59398 0.90279 0.0
N592 N 0.53195 0.5629 0.92447 0.0
N593 N 0.68052 0.58468 0.92081 0.0
C594 C 0.56838 0.56589 0.91769 0.0
C595 C 0.64455 0.57721 0.91616 0.0
N596 N 0.58012 0.51155 0.93186 0.0
N597 N 0.63359 0.62301 0.88086 0.0
H598 H 0.69897 0.56948 0.93249 0.0
H599 H 0.69124 0.60695 0.91594 0.0
H600 H 0.61664 0.63811 0.86723 0.0
H601 H 0.66123 0.62607 0.87545 0.0
H602 H 0.55316 0.50484 0.92724 0.0
H603 H 0.59708 0.49269 0.93777 0.0
H604 H 0.52082 0.54418 0.93811 0.0
H605 H 0.51333 0.58075 0.91974 0.0
C606 C 0.37317 0.44551 0.40949 0.0
C607 C 0.38664 0.47293 0.42623 0.0
C608 C 0.4491 0.45412 0.41888 0.0
C609 C 0.43634 0.42892 0.39778 0.0
N610 N 0.38574 0.40164 0.37104 0.0
N611 N 0.43773 0.50691 0.43929 0.0
C612 C 0.39816 0.42506 0.39225 0.0
C613 C 0.42469 0.47834 0.42843 0.0
N614 N 0.33682 0.4384 0.41124 0.0
N615 N 0.48395 0.45463 0.43137 0.0
H616 H 0.42071 0.52552 0.44631 0.0
H617 H 0.46527 0.5131 0.43779 0.0
H618 H 0.50339 0.43757 0.42602 0.0
H619 H 0.49278 0.47088 0.44975 0.0
H620 H 0.32588 0.41697 0.40308 0.0
H621 H 0.31792 0.45312 0.42325 0.0
H622 H 0.35855 0.3994 0.36358 0.0
H623 H 0.40304 0.38557 0.35905 0.0
C624 C 0.87827 0.07926 0.92631 0.0
C625 C 0.88697 0.04668 0.92638 0.0
C626 C 0.94539 0.05779 0.89798 0.0
C627 C 0.93594 0.09014 0.89612 0.0
N628 N 0.89232 0.13168 0.90499 0.0
N629 N 0.92549 1.00409 0.90729 0.0
C630 C 0.90206 0.10091 0.90941 0.0
C631 C 0.91964 0.03574 0.91087 0.0
N632 N 0.84744 0.08938 0.94275 0.0
N633 N 0.97957 0.04818 0.88861 0.0
H634 H 0.90785 0.98706 0.91709 0.0
H635 H 0.94631 0.99457 0.89234 0.0
H636 H 0.9989 0.06319 0.87803 0.0
H637 H 0.98982 0.02586 0.89362 0.0
H638 H 0.84075 0.11292 0.94644 0.0
H639 H 0.82927 0.07403 0.95476 0.0
H640 H 0.86691 0.14085 0.9114 0.0
H641 H 0.90899 0.14794 0.89254 0.0
C642 C 0.13706 0.94601 0.43143 0.0
C643 C 0.13389 0.97799 0.42164 0.0
C644 C 0.08516 0.96402 0.38101 0.0
C645 C 0.08833 0.93183 0.3908 0.0
N646 N 0.12341 0.89133 0.41832 0.0
N647 N 0.1104 0.0169 0.38287 0.0
C648 C 0.11607 0.92259 0.41404 0.0
C649 C 0.10986 0.98672 0.39487 0.0
N650 N 0.15974 0.93812 0.45782 0.0
N651 N 0.05719 0.97344 0.36022 0.0
H652 H 0.12656 0.03465 0.39356 0.0
H653 H 0.09713 0.02388 0.3606 0.0
H654 H 0.03823 0.95819 0.34919 0.0
H655 H 0.0505 0.9969 0.3561 0.0
H656 H 0.15983 0.91606 0.46927 0.0
H657 H 0.17738 0.95425 0.46954 0.0
H658 H 0.14538 0.88293 0.43245 0.0
H659 H 0.10976 0.87366 0.40476 0.0
C660 C 0.13263 0.05625 0.89199 0.0
C661 C 0.13327 0.04956 0.92763 0.0
C662 C 0.08408 0.08779 0.93703 0.0
C663 C 0.08561 0.09634 0.90191 0.0
N664 N 0.11864 0.09465 0.84844 0.0
N665 N 0.11641 0.06521 0.98502 0.0
C666 C 0.11212 0.08233 0.88011 0.0
C667 C 0.1111 0.0673 0.95046 0.0
N668 N 0.15037 0.03706 0.86923 0.0
N669 N 0.05578 0.09758 0.95726 0.0
H670 H 0.13644 0.05094 0.99579 0.0
H671 H 0.10356 0.08005 1.00262 0.0
H672 H 0.0346 0.11169 0.94847 0.0
H673 H 0.05147 0.08913 0.98195 0.0
H674 H 0.14764 0.03909 0.84275 0.0
H675 H 0.16498 0.01722 0.87665 0.0
H676 H 0.13972 0.08704 0.8325 0.0
H677 H 0.10594 0.11507 0.84001 0.0
C678 C 0.88151 0.93636 0.43063 0.0
C679 C 0.89023 0.96892 0.43218 0.0
C680 C 0.95017 0.95823 0.40775 0.0
C681 C 0.94038 0.92615 0.40251 0.0
N682 N 0.89322 0.88613 0.40291 0.0
N683 N 0.92857 0.01164 0.41305 0.0
C684 C 0.90502 0.91551 0.41231 0.0
C685 C 0.92313 0.98012 0.41768 0.0
N686 N 0.85123 0.92529 0.44715 0.0
N687 N 0.98583 0.9675 0.406 0.0
H688 H 0.9092 0.02855 0.41981 0.0
H689 H 0.95067 0.02058 0.39931 0.0
H690 H 1.00707 0.95141 0.40385 0.0
H691 H 0.99454 0.99031 0.41176 0.0
H692 H 0.84564 0.9014 0.45001 0.0
H693 H 0.83323 0.93996 0.46038 0.0
H694 H 0.86656 0.87829 0.40674 0.0
H695 H 0.90885 0.87065 0.38821 0.0
C696 C 0.37534 0.35727 0.2314 0.0
C697 C 0.38926 0.36976 0.20038 0.0
C698 C 0.45137 0.36936 0.22397 0.0
C699 C 0.43759 0.35737 0.25556 0.0
N700 N 0.38744 0.33517 0.2875 0.0
N701 N 0.4402 0.38522 0.16514 0.0
C702 C 0.39986 0.34973 0.25864 0.0
C703 C 0.42721 0.37528 0.19621 0.0
N704 N 0.33841 0.35388 0.23521 0.0
N705 N 0.488 0.37451 0.22037 0.0
H706 H 0.42339 0.39012 0.14429 0.0
H707 H 0.46768 0.38733 0.15889 0.0
H708 H 0.50702 0.36442 0.23663 0.0
H709 H 0.49978 0.38831 0.2014 0.0
H710 H 0.32564 0.34832 0.25821 0.0
H711 H 0.31992 0.35851 0.21555 0.0
H712 H 0.36132 0.32582 0.29015 0.0
H713 H 0.40407 0.33032 0.30832 0.0
C714 C 0.62603 0.6807 0.72001 0.0
C715 C 0.62966 0.65163 0.7021 0.0
C716 C 0.58292 0.62843 0.73928 0.0
C717 C 0.58242 0.65632 0.75978 0.0
N718 N 0.61031 0.70644 0.77352 0.0
N719 N 0.61791 0.59576 0.70035 0.0
C720 C 0.60592 0.68178 0.75123 0.0
C721 C 0.61006 0.62485 0.71349 0.0
N722 N 0.64072 0.70758 0.7067 0.0
N723 N 0.55629 0.60605 0.74274 0.0
H724 H 0.63799 0.59208 0.68179 0.0
H725 H 0.60711 0.57506 0.71043 0.0
H726 H 0.5343 0.6083 0.75946 0.0
H727 H 0.55369 0.5869 0.72607 0.0
H728 H 0.63564 0.72988 0.71687 0.0
H729 H 0.65502 0.70799 0.68358 0.0
H730 H 0.62971 0.72413 0.77004 0.0
H731 H 0.59755 0.70742 0.79736 0.0
C732 C 0.61447 0.40267 0.21764 0.0
C733 C 0.63466 0.37736 0.20342 0.0
C734 C 0.60951 0.34322 0.2487 0.0
C735 C 0.58376 0.36706 0.25766 0.0
N736 N 0.55827 0.41835 0.24411 0.0
N737 N 0.66888 0.33334 0.22433 0.0
C738 C 0.58548 0.39658 0.24058 0.0
C739 C 0.63691 0.34959 0.22346 0.0
N740 N 0.62492 0.43292 0.21117 0.0
N741 N 0.60906 0.3149 0.26504 0.0
H742 H 0.69327 0.34441 0.2177 0.0
H743 H 0.67301 0.31317 0.23879 0.0
H744 H 0.59369 0.31043 0.2869 0.0
H745 H 0.62319 0.29531 0.25592 0.0
H746 H 0.61313 0.45231 0.22335 0.0
H747 H 0.6484 0.43804 0.19704 0.0
H748 H 0.55728 0.43874 0.22941 0.0
H749 H 0.53443 0.41454 0.25803 0.0
C750 C 0.3924 0.62574 0.72512 0.0
C751 C 0.38756 0.65079 0.70175 0.0
C752 C 0.43015 0.68386 0.7352 0.0
C753 C 0.43384 0.65952 0.75989 0.0
N754 N 0.41459 0.60864 0.78056 0.0
N755 N 0.3954 0.70563 0.68815 0.0
C756 C 0.4139 0.63074 0.75531 0.0
C757 C 0.40433 0.68045 0.70805 0.0
N758 N 0.37522 0.59759 0.7189 0.0
N759 N 0.45325 0.70923 0.73576 0.0
H760 H 0.37834 0.7039 0.6668 0.0
H761 H 0.40258 0.72871 0.6944 0.0
H762 H 0.47427 0.71217 0.75344 0.0
H763 H 0.45432 0.72587 0.71631 0.0
H764 H 0.37809 0.57751 0.73368 0.0
H765 H 0.35822 0.59374 0.69782 0.0
H766 H 0.40277 0.58642 0.77912 0.0
H767 H 0.42468 0.61359 0.80483 0.0
C768 C 0.92723 0.88859 0.19995 0.0
C769 C 0.892 0.8746 0.19993 0.0
C770 C 0.90532 0.84997 0.25545 0.0
C771 C 0.93903 0.86658 0.25706 0.0
N772 N 0.97966 0.90564 0.23275 0.0
N773 N 0.84524 0.84541 0.22936 0.0
C774 C 0.94925 0.88706 0.22989 0.0
C775 C 0.88047 0.85607 0.22809 0.0
N776 N 0.94023 0.90249 0.17082 0.0
N777 N 0.89699 0.8284 0.2801 0.0
H778 H 0.82644 0.84935 0.20977 0.0
H779 H 0.8338 0.83481 0.25082 0.0
H780 H 0.91347 0.82455 0.30143 0.0
H781 H 0.87498 0.8129 0.27833 0.0
H782 H 0.96721 0.90981 0.16783 0.0
H783 H 0.92507 0.90405 0.14826 0.0
H784 H 0.98591 0.92368 0.21578 0.0
H785 H 0.99718 0.90512 0.25362 0.0
C786 C 0.11007 0.12405 0.71142 0.0
C787 C 0.13021 0.1507 0.70049 0.0
C788 C 0.10728 0.18042 0.75021 0.0
C789 C 0.08319 0.15524 0.75826 0.0
N790 N 0.05579 0.10578 0.74021 0.0
N791 N 0.14228 0.20645 0.70602 0.0
C792 C 0.083 0.12769 0.73723 0.0
C793 C 0.1272 0.17956 0.71891 0.0
N794 N 0.11732 0.09503 0.6978 0.0
N795 N 0.11242 0.20458 0.77302 0.0
H796 H 0.15638 0.20706 0.68281 0.0
H797 H 0.13764 0.22865 0.71665 0.0
H798 H 0.09994 0.20528 0.797 0.0
H799 H 0.13219 0.22199 0.76978 0.0
H800 H 0.10603 0.07437 0.7075 0.0
H801 H 0.13739 0.0913 0.67924 0.0
H802 H 0.05278 0.08693 0.7232 0.0
H803 H 0.03377 0.10824 0.75688 0.0
C804 C 0.10266 0.84317 0.19838 0.0
C805 C 0.12941 0.86745 0.19938 0.0
C806 C 0.11501 0.87751 0.26 0.0
C807 C 0.08544 0.85588 0.2578 0.0
N808 N 0.0481 0.82075 0.22373 0.0
N809 N 0.15966 0.90952 0.23004 0.0
C810 C 0.07873 0.83906 0.22683 0.0
C811 C 0.13528 0.88507 0.22997 0.0
N812 N 0.09986 0.82421 0.17005 0.0
N813 N 0.12424 0.89019 0.29113 0.0
H814 H 0.17661 0.9145 0.20925 0.0
H815 H 0.1618 0.92592 0.24989 0.0
H816 H 0.11099 0.88387 0.31373 0.0
H817 H 0.1471 0.90433 0.29526 0.0
H818 H 0.08396 0.80385 0.16924 0.0
H819 H 0.11563 0.82737 0.14808 0.0
H820 H 0.03897 0.81136 0.20053 0.0
H821 H 0.03015 0.81661 0.24391 0.0
C822 C 0.91903 0.17001 0.69984 0.0
C823 C 0.89005 0.14793 0.70279 0.0
C824 C 0.90467 0.14066 0.76373 0.0
C825 C 0.93569 0.16051 0.7599 0.0
N826 N 0.97527 0.19105 0.72338 0.0
N827 N 0.8559 0.11065 0.73629 0.0
C828 C 0.9435 0.17457 0.72777 0.0
C829 C 0.883 0.13282 0.73446 0.0
N830 N 0.92268 0.18721 0.67052 0.0
N831 N 0.89556 0.13001 0.79562 0.0
H832 H 0.83899 0.10504 0.71559 0.0
H833 H 0.85144 0.09638 0.75745 0.0
H834 H 0.91037 0.13608 0.81754 0.0
H835 H 0.87187 0.11743 0.80107 0.0
H836 H 0.94027 0.2064 0.66833 0.0
H837 H 0.90619 0.18386 0.64899 0.0
H838 H 0.98505 0.19802 0.69954 0.0
H839 H 0.99322 0.19613 0.74335 0.0
loop_
_geom_bond_atom_site_label_1
_geom_bond_atom_site_label_2
_geom_bond_distance
_geom_bond_site_symmetry_2
_ccdc_geom_bond_type
C0 C1 1.264 . S
C0 C5 1.479 . S
C0 C10 1.465 . S
C1 C0 1.264 . S
C1 C3 1.339 . S
C1 H28 0.931 . S
C2 C3 1.395 . S
C2 C4 1.320 . S
C3 C1 1.339 . S
C3 C2 1.395 . S
C3 H29 0.929 . S
C4 C2 1.320 . S
C4 C5 1.405 . S
C4 H30 0.930 . S
C5 C0 1.479 . S
C5 C4 1.405 . S
C5 H31 0.931 . S
U6 O7 2.454 1_554 S
U6 O8 2.458 . S
U6 C9 2.984 1_554 S
U6 C10 2.847 1_554 S
U6 C23 2.882 . S
U6 O24 2.441 1_554 S
U6 O25 2.420 . S
U6 O26 2.455 . S
U6 O27 2.449 . S
O7 U6 2.454 1_556 S
O7 C9 1.353 . S
O8 U6 2.458 . S
O8 C9 1.286 1_554 S
C9 U6 2.984 1_556 S
C9 O7 1.353 . S
C9 O8 1.286 1_556 S
C9 C11 1.363 . S
C10 C0 1.465 . S
C10 U6 2.847 1_556 S
C10 O24 1.249 . S
C10 O25 1.202 1_556 S
C11 C9 1.363 . S
C11 C13 1.408 . S
C11 C16 1.342 . S
C12 C13 1.310 . S
C12 C15 1.461 . S
C12 H32 0.932 . S
C13 C11 1.408 . S
C13 C12 1.310 . S
C13 H33 0.930 . S
C14 C15 1.474 . S
C14 C16 1.285 . S
C14 H34 0.929 . S
C15 C12 1.461 . S
C15 C14 1.474 . S
C16 C11 1.342 . S
C16 C14 1.285 . S
C16 H35 0.930 1_556 S
C17 C20 1.424 . S
C17 C22 1.245 . S
C17 C23 1.428 . S
C18 C21 1.260 . S
C18 C22 1.477 . S
C18 H36 0.932 . S
C19 C20 1.384 . S
C19 C21 1.479 . S
C19 H37 0.929 . S
C20 C17 1.424 . S
C20 C19 1.384 . S
C20 H38 0.928 . S
C21 C18 1.260 . S
C21 C19 1.479 . S
C22 C17 1.245 . S
C22 C18 1.477 . S
C22 H39 0.932 . S
C23 U6 2.882 . S
C23 C17 1.428 . S
C23 O26 1.301 . S
C23 O27 1.282 . S
O24 U6 2.441 1_556 S
O24 C10 1.249 . S
O25 U6 2.420 . S
O25 C10 1.202 1_554 S
O26 U6 2.455 . S
O26 C23 1.301 . S
O27 U6 2.449 . S
O27 C23 1.282 . S
H28 C1 0.931 . S
H29 C3 0.929 . S
H30 C4 0.930 . S
H31 C5 0.931 . S
H32 C12 0.932 . S
H33 C13 0.930 . S
H34 C14 0.929 . S
H35 C16 0.930 1_554 S
H36 C18 0.932 . S
H37 C19 0.929 . S
H38 C20 0.928 . S
H39 C22 0.932 . S
C40 C41 1.264 . S
C40 C45 1.479 . S
C40 C50 1.465 . S
C41 C40 1.264 . S
C41 C43 1.339 . S
C41 H68 0.931 . S
C42 C43 1.395 . S
C42 C44 1.320 . S
C43 C41 1.339 . S
C43 C42 1.395 . S
C43 H69 0.929 . S
C44 C42 1.320 . S
C44 C45 1.405 . S
C44 H70 0.930 . S
C45 C40 1.479 . S
C45 C44 1.405 . S
C45 H71 0.931 . S
U46 O47 2.454 . S
U46 O48 2.458 . S
U46 C49 2.984 . S
U46 C50 2.847 . S
U46 C63 2.882 . S
U46 O64 2.441 . S
U46 O65 2.420 . S
U46 O66 2.455 . S
U46 O67 2.449 . S
O47 U46 2.454 . S
O47 C49 1.353 . S
O48 U46 2.458 . S
O48 C49 1.286 . S
C49 U46 2.984 . S
C49 O47 1.353 . S
C49 O48 1.286 . S
C49 C51 1.363 . S
C50 C40 1.465 . S
C50 U46 2.847 . S
C50 O64 1.249 . S
C50 O65 1.202 . S
C51 C49 1.363 . S
C51 C53 1.408 . S
C51 C56 1.342 . S
C52 C53 1.310 . S
C52 C55 1.461 . S
C52 H72 0.932 . S
C53 C51 1.408 . S
C53 C52 1.310 . S
C53 H73 0.930 . S
C54 C55 1.474 . S
C54 C56 1.285 . S
C54 H74 0.929 . S
C55 C52 1.461 . S
C55 C54 1.474 . S
C56 C51 1.342 . S
C56 C54 1.285 . S
C56 H75 0.930 . S
C57 C60 1.424 . S
C57 C62 1.245 . S
C57 C63 1.428 . S
C58 C61 1.260 . S
C58 C62 1.477 . S
C58 H76 0.932 . S
C59 C60 1.384 . S
C59 C61 1.479 . S
C59 H77 0.929 . S
C60 C57 1.424 . S
C60 C59 1.384 . S
C60 H78 0.928 . S
C61 C58 1.260 . S
C61 C59 1.479 . S
C62 C57 1.245 . S
C62 C58 1.477 . S
C62 H79 0.932 . S
C63 U46 2.882 . S
C63 C57 1.428 . S
C63 O66 1.301 . S
C63 O67 1.282 . S
O64 U46 2.441 . S
O64 C50 1.249 . S
O65 U46 2.420 . S
O65 C50 1.202 . S
O66 U46 2.455 . S
O66 C63 1.301 . S
O67 U46 2.449 . S
O67 C63 1.282 . S
H68 C41 0.931 . S
H69 C43 0.929 . S
H70 C44 0.930 . S
H71 C45 0.931 . S
H72 C52 0.932 . S
H73 C53 0.930 . S
H74 C54 0.929 . S
H75 C56 0.930 . S
H76 C58 0.932 . S
H77 C59 0.929 . S
H78 C60 0.928 . S
H79 C62 0.932 . S
C80 C81 1.264 . S
C80 C85 1.479 . S
C80 C90 1.465 . S
C81 C80 1.264 . S
C81 C83 1.339 . S
C81 H108 0.931 . S
C82 C83 1.395 . S
C82 C84 1.320 . S
C83 C81 1.339 . S
C83 C82 1.395 . S
C83 H109 0.929 . S
C84 C82 1.320 . S
C84 C85 1.405 . S
C84 H110 0.930 . S
C85 C80 1.479 . S
C85 C84 1.405 . S
C85 H111 0.931 . S
U86 O87 2.454 . S
U86 O88 2.458 1_556 S
U86 C89 2.984 . S
U86 C90 2.847 . S
U86 C103 2.882 1_556 S
U86 O104 2.441 . S
U86 O105 2.420 . S
U86 O106 2.455 1_556 S
U86 O107 2.449 1_556 S
O87 U86 2.454 . S
O87 C89 1.353 . S
O88 U86 2.458 1_554 S
O88 C89 1.286 1_554 S
C89 U86 2.984 . S
C89 O87 1.353 . S
C89 O88 1.286 1_556 S
C89 C91 1.363 . S
C90 C80 1.465 . S
C90 U86 2.847 . S
C90 O104 1.249 . S
C90 O105 1.202 . S
C91 C89 1.363 . S
C91 C93 1.408 . S
C91 C96 1.342 . S
C92 C93 1.310 . S
C92 C95 1.461 . S
C92 H112 0.932 . S
C93 C91 1.408 . S
C93 C92 1.310 . S
C93 H113 0.930 . S
C94 C95 1.474 . S
C94 C96 1.285 . S
C94 H114 0.929 . S
C95 C92 1.461 . S
C95 C94 1.474 . S
C96 C91 1.342 . S
C96 C94 1.285 . S
C96 H115 0.930 1_556 S
C97 C100 1.424 . S
C97 C102 1.245 . S
C97 C103 1.428 . S
C98 C101 1.260 . S
C98 C102 1.477 . S
C98 H116 0.932 . S
C99 C100 1.384 . S
C99 C101 1.479 . S
C99 H117 0.929 . S
C100 C97 1.424 . S
C100 C99 1.384 . S
C100 H118 0.928 . S
C101 C98 1.260 . S
C101 C99 1.479 . S
C102 C97 1.245 . S
C102 C98 1.477 . S
C102 H119 0.932 . S
C103 U86 2.882 1_554 S
C103 C97 1.428 . S
C103 O106 1.301 . S
C103 O107 1.282 . S
O104 U86 2.441 . S
O104 C90 1.249 . S
O105 U86 2.420 . S
O105 C90 1.202 . S
O106 U86 2.455 1_554 S
O106 C103 1.301 . S
O107 U86 2.449 1_554 S
O107 C103 1.282 . S
H108 C81 0.931 . S
H109 C83 0.929 . S
H110 C84 0.930 . S
H111 C85 0.931 . S
H112 C92 0.932 . S
H113 C93 0.930 . S
H114 C94 0.929 . S
H115 C96 0.930 1_554 S
H116 C98 0.932 . S
H117 C99 0.929 . S
H118 C100 0.928 . S
H119 C102 0.932 . S
C120 C121 1.264 . S
C120 C125 1.479 . S
C120 C130 1.465 . S
C121 C120 1.264 . S
C121 C123 1.339 . S
C121 H148 0.931 . S
C122 C123 1.395 . S
C122 C124 1.320 . S
C123 C121 1.339 . S
C123 C122 1.395 . S
C123 H149 0.929 . S
C124 C122 1.320 . S
C124 C125 1.405 . S
C124 H150 0.930 . S
C125 C120 1.479 . S
C125 C124 1.405 . S
C125 H151 0.931 . S
U126 O127 2.454 . S
U126 O128 2.458 . S
U126 C129 2.984 . S
U126 C130 2.847 . S
U126 C143 2.882 . S
U126 O144 2.441 . S
U126 O145 2.420 . S
U126 O146 2.455 . S
U126 O147 2.449 . S
O127 U126 2.454 . S
O127 C129 1.353 . S
O128 U126 2.458 . S
O128 C129 1.286 . S
C129 U126 2.984 . S
C129 O127 1.353 . S
C129 O128 1.286 . S
C129 C131 1.363 . S
C130 C120 1.465 . S
C130 U126 2.847 . S
C130 O144 1.249 . S
C130 O145 1.202 . S
C131 C129 1.363 . S
C131 C133 1.408 . S
C131 C136 1.342 . S
C132 C133 1.310 . S
C132 C135 1.461 . S
C132 H152 0.932 . S
C133 C131 1.408 . S
C133 C132 1.310 . S
C133 H153 0.930 . S
C134 C135 1.474 . S
C134 C136 1.285 . S
C134 H154 0.929 . S
C135 C132 1.461 . S
C135 C134 1.474 . S
C136 C131 1.342 . S
C136 C134 1.285 . S
C136 H155 0.930 . S
C137 C140 1.424 . S
C137 C142 1.245 . S
C137 C143 1.428 . S
C138 C141 1.260 . S
C138 C142 1.477 . S
C138 H156 0.932 . S
C139 C140 1.384 . S
C139 C141 1.479 . S
C139 H157 0.929 . S
C140 C137 1.424 . S
C140 C139 1.384 . S
C140 H158 0.928 . S
C141 C138 1.260 . S
C141 C139 1.479 . S
C142 C137 1.245 . S
C142 C138 1.477 . S
C142 H159 0.932 . S
C143 U126 2.882 . S
C143 C137 1.428 . S
C143 O146 1.301 . S
C143 O147 1.282 . S
O144 U126 2.441 . S
O144 C130 1.249 . S
O145 U126 2.420 . S
O145 C130 1.202 . S
O146 U126 2.455 . S
O146 C143 1.301 . S
O147 U126 2.449 . S
O147 C143 1.282 . S
H148 C121 0.931 . S
H149 C123 0.929 . S
H150 C124 0.930 . S
H151 C125 0.931 . S
H152 C132 0.932 . S
H153 C133 0.930 . S
H154 C134 0.929 . S
H155 C136 0.930 . S
H156 C138 0.932 . S
H157 C139 0.929 . S
H158 C140 0.928 . S
H159 C142 0.932 . S
C160 C161 1.263 1_565 S
C160 C165 1.479 . S
C160 C170 1.465 . S
C161 C160 1.263 1_545 S
C161 C163 1.339 . S
C161 H188 0.931 1_545 S
C162 C163 1.395 . S
C162 C164 1.320 . S
C163 C161 1.339 . S
C163 C162 1.395 . S
C163 H189 0.929 . S
C164 C162 1.320 . S
C164 C165 1.405 1_545 S
C164 H190 0.930 . S
C165 C160 1.479 . S
C165 C164 1.405 1_565 S
C165 H191 0.931 . S
U166 O167 2.454 1_554 S
U166 O168 2.458 . S
U166 C169 2.984 1_554 S
U166 C170 2.847 1_554 S
U166 C183 2.882 . S
U166 O184 2.441 1_554 S
U166 O185 2.420 . S
U166 O186 2.455 . S
U166 O187 2.449 . S
O167 U166 2.454 1_556 S
O167 C169 1.353 . S
O168 U166 2.458 . S
O168 C169 1.286 1_554 S
C169 U166 2.984 1_556 S
C169 O167 1.353 . S
C169 O168 1.286 1_556 S
C169 C171 1.363 . S
C170 C160 1.465 . S
C170 U166 2.847 1_556 S
C170 O184 1.249 . S
C170 O185 1.202 1_556 S
C171 C169 1.363 . S
C171 C173 1.408 . S
C171 C176 1.342 . S
C172 C173 1.310 . S
C172 C175 1.461 . S
C172 H192 0.932 . S
C173 C171 1.408 . S
C173 C172 1.310 . S
C173 H193 0.930 . S
C174 C175 1.474 . S
C174 C176 1.285 . S
C174 H194 0.929 . S
C175 C172 1.461 . S
C175 C174 1.474 . S
C176 C171 1.342 . S
C176 C174 1.285 . S
C176 H195 0.930 1_556 S
C177 C180 1.424 . S
C177 C182 1.245 . S
C177 C183 1.428 . S
C178 C181 1.260 . S
C178 C182 1.477 . S
C178 H196 0.932 . S
C179 C180 1.384 . S
C179 C181 1.479 . S
C179 H197 0.929 . S
C180 C177 1.424 . S
C180 C179 1.384 . S
C180 H198 0.928 . S
C181 C178 1.260 . S
C181 C179 1.479 . S
C182 C177 1.245 . S
C182 C178 1.477 . S
C182 H199 0.932 . S
C183 U166 2.882 . S
C183 C177 1.428 . S
C183 O186 1.301 . S
C183 O187 1.282 . S
O184 U166 2.441 1_556 S
O184 C170 1.249 . S
O185 U166 2.420 . S
O185 C170 1.202 1_554 S
O186 U166 2.455 . S
O186 C183 1.301 . S
O187 U166 2.449 . S
O187 C183 1.282 . S
H188 C161 0.931 1_565 S
H189 C163 0.929 . S
H190 C164 0.930 . S
H191 C165 0.931 . S
H192 C172 0.932 . S
H193 C173 0.930 . S
H194 C174 0.929 . S
H195 C176 0.930 1_554 S
H196 C178 0.932 . S
H197 C179 0.929 . S
H198 C180 0.928 . S
H199 C182 0.932 . S
C200 C201 1.264 . S
C200 C205 1.479 . S
C200 C210 1.465 . S
C201 C200 1.264 . S
C201 C203 1.339 . S
C201 H228 0.931 . S
C202 C203 1.395 . S
C202 C204 1.320 . S
C203 C201 1.339 . S
C203 C202 1.395 . S
C203 H229 0.929 . S
C204 C202 1.320 . S
C204 C205 1.405 . S
C204 H230 0.930 . S
C205 C200 1.479 . S
C205 C204 1.405 . S
C205 H231 0.931 . S
U206 O207 2.454 . S
U206 O208 2.458 . S
U206 C209 2.984 . S
U206 C210 2.847 . S
U206 C223 2.882 . S
U206 O224 2.441 . S
U206 O225 2.420 . S
U206 O226 2.455 . S
U206 O227 2.449 . S
O207 U206 2.454 . S
O207 C209 1.353 . S
O208 U206 2.458 . S
O208 C209 1.286 . S
C209 U206 2.984 . S
C209 O207 1.353 . S
C209 O208 1.286 . S
C209 C211 1.363 . S
C210 C200 1.465 . S
C210 U206 2.847 . S
C210 O224 1.249 . S
C210 O225 1.202 . S
C211 C209 1.363 . S
C211 C213 1.408 . S
C211 C216 1.342 . S
C212 C213 1.310 . S
C212 C215 1.461 . S
C212 H232 0.932 . S
C213 C211 1.408 . S
C213 C212 1.310 . S
C213 H233 0.930 . S
C214 C215 1.474 . S
C214 C216 1.285 . S
C214 H234 0.929 . S
C215 C212 1.461 . S
C215 C214 1.474 . S
C216 C211 1.342 . S
C216 C214 1.285 . S
C216 H235 0.930 . S
C217 C220 1.424 . S
C217 C222 1.245 . S
C217 C223 1.428 . S
C218 C221 1.260 1_545 S
C218 C222 1.477 . S
C218 H236 0.932 1_545 S
C219 C220 1.384 1_565 S
C219 C221 1.479 . S
C219 H237 0.929 . S
C220 C217 1.424 . S
C220 C219 1.384 1_545 S
C220 H238 0.928 . S
C221 C218 1.260 1_565 S
C221 C219 1.479 . S
C222 C217 1.245 . S
C222 C218 1.477 . S
C222 H239 0.932 . S
C223 U206 2.882 . S
C223 C217 1.428 . S
C223 O226 1.301 . S
C223 O227 1.282 . S
O224 U206 2.441 . S
O224 C210 1.249 . S
O225 U206 2.420 . S
O225 C210 1.202 . S
O226 U206 2.455 . S
O226 C223 1.301 . S
O227 U206 2.449 . S
O227 C223 1.282 . S
H228 C201 0.931 . S
H229 C203 0.929 . S
H230 C204 0.930 . S
H231 C205 0.931 . S
H232 C212 0.932 . S
H233 C213 0.930 . S
H234 C214 0.929 . S
H235 C216 0.930 . S
H236 C218 0.932 1_565 S
H237 C219 0.929 . S
H238 C220 0.928 . S
H239 C222 0.932 . S
C240 C241 1.264 . S
C240 C245 1.479 . S
C240 C250 1.465 . S
C241 C240 1.264 . S
C241 C243 1.339 1_565 S
C241 H268 0.931 . S
C242 C243 1.395 . S
C242 C244 1.320 . S
C243 C241 1.339 1_545 S
C243 C242 1.395 . S
C243 H269 0.929 . S
C244 C242 1.320 . S
C244 C245 1.405 1_545 S
C244 H270 0.930 . S
C245 C240 1.479 . S
C245 C244 1.405 1_565 S
C245 H271 0.931 . S
U246 O247 2.454 . S
U246 O248 2.458 1_556 S
U246 C249 2.984 . S
U246 C250 2.847 . S
U246 C263 2.882 1_556 S
U246 O264 2.441 . S
U246 O265 2.420 . S
U246 O266 2.455 1_556 S
U246 O267 2.449 1_556 S
O247 U246 2.454 . S
O247 C249 1.353 . S
O248 U246 2.458 1_554 S
O248 C249 1.286 1_554 S
C249 U246 2.984 . S
C249 O247 1.353 . S
C249 O248 1.286 1_556 S
C249 C251 1.363 . S
C250 C240 1.465 . S
C250 U246 2.847 . S
C250 O264 1.249 . S
C250 O265 1.202 . S
C251 C249 1.363 . S
C251 C253 1.408 . S
C251 C256 1.342 . S
C252 C253 1.310 . S
C252 C255 1.461 . S
C252 H272 0.932 . S
C253 C251 1.408 . S
C253 C252 1.310 . S
C253 H273 0.930 . S
C254 C255 1.474 . S
C254 C256 1.285 . S
C254 H274 0.929 . S
C255 C252 1.461 . S
C255 C254 1.474 . S
C256 C251 1.342 . S
C256 C254 1.285 . S
C256 H275 0.930 1_556 S
C257 C260 1.424 . S
C257 C262 1.245 . S
C257 C263 1.428 . S
C258 C261 1.260 . S
C258 C262 1.477 . S
C258 H276 0.932 . S
C259 C260 1.384 . S
C259 C261 1.479 . S
C259 H277 0.929 . S
C260 C257 1.424 . S
C260 C259 1.384 . S
C260 H278 0.928 . S
C261 C258 1.260 . S
C261 C259 1.479 . S
C262 C257 1.245 . S
C262 C258 1.477 . S
C262 H279 0.932 . S
C263 U246 2.882 1_554 S
C263 C257 1.428 . S
C263 O266 1.301 . S
C263 O267 1.282 . S
O264 U246 2.441 . S
O264 C250 1.249 . S
O265 U246 2.420 . S
O265 C250 1.202 . S
O266 U246 2.455 1_554 S
O266 C263 1.301 . S
O267 U246 2.449 1_554 S
O267 C263 1.282 . S
H268 C241 0.931 . S
H269 C243 0.929 . S
H270 C244 0.930 . S
H271 C245 0.931 . S
H272 C252 0.932 . S
H273 C253 0.930 . S
H274 C254 0.929 . S
H275 C256 0.930 1_554 S
H276 C258 0.932 . S
H277 C259 0.929 . S
H278 C260 0.928 . S
H279 C262 0.932 . S
C280 C281 1.264 . S
C280 C285 1.479 . S
C280 C290 1.465 . S
C281 C280 1.264 . S
C281 C283 1.339 . S
C281 H308 0.931 . S
C282 C283 1.395 . S
C282 C284 1.320 . S
C283 C281 1.339 . S
C283 C282 1.395 . S
C283 H309 0.929 . S
C284 C282 1.320 . S
C284 C285 1.405 . S
C284 H310 0.930 . S
C285 C280 1.479 . S
C285 C284 1.405 . S
C285 H311 0.931 . S
U286 O287 2.454 . S
U286 O288 2.458 . S
U286 C289 2.984 . S
U286 C290 2.847 . S
U286 C303 2.882 . S
U286 O304 2.441 . S
U286 O305 2.420 . S
U286 O306 2.455 . S
U286 O307 2.449 . S
O287 U286 2.454 . S
O287 C289 1.353 . S
O288 U286 2.458 . S
O288 C289 1.286 . S
C289 U286 2.984 . S
C289 O287 1.353 . S
C289 O288 1.286 . S
C289 C291 1.363 . S
C290 C280 1.465 . S
C290 U286 2.847 . S
C290 O304 1.249 . S
C290 O305 1.202 . S
C291 C289 1.363 . S
C291 C293 1.408 . S
C291 C296 1.342 . S
C292 C293 1.310 . S
C292 C295 1.461 . S
C292 H312 0.932 . S
C293 C291 1.408 . S
C293 C292 1.310 . S
C293 H313 0.930 . S
C294 C295 1.474 . S
C294 C296 1.285 . S
C294 H314 0.929 . S
C295 C292 1.461 . S
C295 C294 1.474 . S
C296 C291 1.342 . S
C296 C294 1.285 . S
C296 H315 0.930 . S
C297 C300 1.424 . S
C297 C302 1.245 . S
C297 C303 1.428 . S
C298 C301 1.260 . S
C298 C302 1.477 1_565 S
C298 H316 0.932 . S
C299 C300 1.384 1_565 S
C299 C301 1.479 . S
C299 H317 0.929 . S
C300 C297 1.424 . S
C300 C299 1.384 1_545 S
C300 H318 0.928 . S
C301 C298 1.260 . S
C301 C299 1.479 . S
C302 C297 1.245 . S
C302 C298 1.477 1_545 S
C302 H319 0.932 . S
C303 U286 2.882 . S
C303 C297 1.428 . S
C303 O306 1.301 . S
C303 O307 1.282 . S
O304 U286 2.441 . S
O304 C290 1.249 . S
O305 U286 2.420 . S
O305 C290 1.202 . S
O306 U286 2.455 . S
O306 C303 1.301 . S
O307 U286 2.449 . S
O307 C303 1.282 . S
H308 C281 0.931 . S
H309 C283 0.929 . S
H310 C284 0.930 . S
H311 C285 0.931 . S
H312 C292 0.932 . S
H313 C293 0.930 . S
H314 C294 0.929 . S
H315 C296 0.930 . S
H316 C298 0.932 . S
H317 C299 0.929 . S
H318 C300 0.928 . S
H319 C302 0.932 . S
Fe320 O322 1.918 . S
Fe320 O325 1.997 1_455 S
Fe320 O326 2.002 1_455 S
Fe320 O331 1.976 . S
Fe320 O334 1.996 . S
Fe321 O322 1.918 . S
Fe321 O329 1.997 1_455 S
Fe321 O332 1.996 . S
Fe321 O336 1.976 . S
Fe321 O339 2.002 1_455 S
O322 Fe320 1.918 . S
O322 Fe321 1.918 . S
O322 Fe323 1.918 . S
Fe323 O322 1.918 . S
Fe323 O324 2.002 1_455 S
Fe323 O333 1.976 . S
Fe323 O337 1.996 . S
Fe323 O340 1.997 1_455 S
O324 Fe323 2.002 1_655 S
O324 C341 1.295 . S
O325 Fe320 1.997 1_655 S
O325 C341 1.235 . S
O326 Fe320 2.002 1_655 S
O326 C327 1.295 . S
C327 O326 1.295 . S
C327 O329 1.235 . S
C328 O333 1.287 . S
C328 O334 1.255 . S
O329 Fe321 1.997 1_655 S
O329 C327 1.235 . S
C330 O336 1.287 . S
C330 O337 1.255 . S
O331 Fe320 1.976 . S
O331 C338 1.287 . S
O332 Fe321 1.996 . S
O332 C338 1.255 . S
O333 Fe323 1.976 . S
O333 C328 1.287 . S
O334 Fe320 1.996 . S
O334 C328 1.255 . S
C335 O339 1.295 . S
C335 O340 1.235 . S
O336 Fe321 1.976 . S
O336 C330 1.287 . S
O337 Fe323 1.996 . S
O337 C330 1.255 . S
C338 O331 1.287 . S
C338 O332 1.255 . S
O339 Fe321 2.002 1_655 S
O339 C335 1.295 . S
O340 Fe323 1.997 1_655 S
O340 C335 1.235 . S
C341 O324 1.295 . S
C341 O325 1.235 . S
Fe342 O344 1.919 . S
Fe342 O347 1.976 1_655 S
Fe342 O348 1.981 1_655 S
Fe342 O353 1.996 . S
Fe342 O356 2.016 . S
Fe343 O344 1.919 . S
Fe343 O351 1.976 1_655 S
Fe343 O354 2.016 . S
Fe343 O358 1.996 . S
Fe343 O361 1.982 1_655 S
O344 Fe342 1.919 . S
O344 Fe343 1.919 . S
O344 Fe345 1.919 . S
Fe345 O344 1.919 . S
Fe345 O346 1.982 1_655 S
Fe345 O355 1.996 . S
Fe345 O359 2.015 . S
Fe345 O362 1.977 1_655 S
O346 Fe345 1.982 1_455 S
O346 C363 1.295 . S
O347 Fe342 1.976 1_455 S
O347 C363 1.235 . S
O348 Fe342 1.981 1_455 S
O348 C349 1.295 . S
C349 O348 1.295 . S
C349 O351 1.235 . S
C350 O355 1.287 . S
C350 O356 1.255 . S
O351 Fe343 1.976 1_455 S
O351 C349 1.235 . S
C352 O358 1.287 . S
C352 O359 1.255 . S
O353 Fe342 1.996 . S
O353 C360 1.287 . S
O354 Fe343 2.016 . S
O354 C360 1.255 . S
O355 Fe345 1.996 . S
O355 C350 1.287 . S
O356 Fe342 2.016 . S
O356 C350 1.255 . S
C357 O361 1.295 . S
C357 O362 1.235 . S
O358 Fe343 1.996 . S
O358 C352 1.287 . S
O359 Fe345 2.015 . S
O359 C352 1.255 . S
C360 O353 1.287 . S
C360 O354 1.255 . S
O361 Fe343 1.982 1_455 S
O361 C357 1.295 . S
O362 Fe345 1.977 1_455 S
O362 C357 1.235 . S
C363 O346 1.295 . S
C363 O347 1.235 . S
Fe364 O366 1.918 . S
Fe364 O369 1.997 . S
Fe364 O370 2.002 . S
Fe364 O375 1.976 . S
Fe364 O378 1.996 . S
Fe365 O366 1.918 . S
Fe365 O373 1.997 . S
Fe365 O376 1.996 . S
Fe365 O380 1.976 . S
Fe365 O383 2.002 . S
O366 Fe364 1.918 . S
O366 Fe365 1.918 . S
O366 Fe367 1.918 . S
Fe367 O366 1.918 . S
Fe367 O368 2.002 . S
Fe367 O377 1.976 . S
Fe367 O381 1.996 . S
Fe367 O384 1.997 . S
O368 Fe367 2.002 . S
O368 C385 1.295 . S
O369 Fe364 1.997 . S
O369 C385 1.235 . S
O370 Fe364 2.002 . S
O370 C371 1.295 . S
C371 O370 1.295 . S
C371 O373 1.235 . S
C372 O377 1.287 . S
C372 O378 1.255 . S
O373 Fe365 1.997 . S
O373 C371 1.235 . S
C374 O380 1.287 . S
C374 O381 1.255 . S
O375 Fe364 1.976 . S
O375 C382 1.287 . S
O376 Fe365 1.996 . S
O376 C382 1.255 . S
O377 Fe367 1.976 . S
O377 C372 1.287 . S
O378 Fe364 1.996 . S
O378 C372 1.255 . S
C379 O383 1.295 . S
C379 O384 1.235 . S
O380 Fe365 1.976 . S
O380 C374 1.287 . S
O381 Fe367 1.996 . S
O381 C374 1.255 . S
C382 O375 1.287 . S
C382 O376 1.255 . S
O383 Fe365 2.002 . S
O383 C379 1.295 . S
O384 Fe367 1.997 . S
O384 C379 1.235 . S
C385 O368 1.295 . S
C385 O369 1.235 . S
Fe386 O388 1.918 . S
Fe386 O391 1.997 . S
Fe386 O392 2.002 . S
Fe386 O397 1.976 . S
Fe386 O400 1.996 . S
Fe387 O388 1.918 . S
Fe387 O395 1.997 . S
Fe387 O398 1.996 . S
Fe387 O402 1.976 . S
Fe387 O405 2.002 . S
O388 Fe386 1.918 . S
O388 Fe387 1.918 . S
O388 Fe389 1.918 . S
Fe389 O388 1.918 . S
Fe389 O390 2.002 . S
Fe389 O399 1.976 . S
Fe389 O403 1.996 . S
Fe389 O406 1.997 . S
O390 Fe389 2.002 . S
O390 C407 1.295 . S
O391 Fe386 1.997 . S
O391 C407 1.235 . S
O392 Fe386 2.002 . S
O392 C393 1.295 . S
C393 O392 1.295 . S
C393 O395 1.235 . S
C394 O399 1.287 . S
C394 O400 1.255 . S
O395 Fe387 1.997 . S
O395 C393 1.235 . S
C396 O402 1.287 . S
C396 O403 1.255 . S
O397 Fe386 1.976 . S
O397 C404 1.287 . S
O398 Fe387 1.996 . S
O398 C404 1.255 . S
O399 Fe389 1.976 . S
O399 C394 1.287 . S
O400 Fe386 1.996 . S
O400 C394 1.255 . S
C401 O405 1.295 . S
C401 O406 1.235 . S
O402 Fe387 1.976 . S
O402 C396 1.287 . S
O403 Fe389 1.996 . S
O403 C396 1.255 . S
C404 O397 1.287 . S
C404 O398 1.255 . S
O405 Fe387 2.002 . S
O405 C401 1.295 . S
O406 Fe389 1.997 . S
O406 C401 1.235 . S
C407 O390 1.295 . S
C407 O391 1.235 . S
C408 C409 1.363 . S
C408 C414 1.379 . S
C408 N416 1.356 . S
C409 C408 1.363 . S
C409 C415 1.363 . S
C410 C411 1.363 . S
C410 C415 1.379 . S
C410 N417 1.356 . S
C411 C410 1.363 . S
C411 C414 1.363 . S
N412 C414 1.356 . S
N412 H424 0.984 . S
N412 H425 0.985 . S
N413 C415 1.356 . S
N413 H418 0.984 . S
N413 H419 0.985 . S
C414 C408 1.379 . S
C414 C411 1.363 . S
C414 N412 1.356 . S
C415 C409 1.363 . S
C415 C410 1.379 . S
C415 N413 1.356 . S
N416 C408 1.356 . S
N416 H422 0.984 . S
N416 H423 0.984 . S
N417 C410 1.356 . S
N417 H420 0.984 . S
N417 H421 0.985 . S
H418 N413 0.984 . S
H419 N413 0.985 . S
H420 N417 0.984 . S
H421 N417 0.985 . S
H422 N416 0.984 . S
H423 N416 0.984 . S
H424 N412 0.984 . S
H425 N412 0.985 . S
C426 C427 1.363 . S
C426 C432 1.379 . S
C426 N434 1.356 . S
C427 C426 1.363 . S
C427 C433 1.363 . S
C428 C429 1.363 . S
C428 C433 1.379 . S
C428 N435 1.356 . S
C429 C428 1.363 . S
C429 C432 1.363 . S
N430 C432 1.356 . S
N430 H442 0.984 . S
N430 H443 0.985 . S
N431 C433 1.356 . S
N431 H436 0.984 . S
N431 H437 0.985 . S
C432 C426 1.379 . S
C432 C429 1.363 . S
C432 N430 1.356 . S
C433 C427 1.363 . S
C433 C428 1.379 . S
C433 N431 1.356 . S
N434 C426 1.356 . S
N434 H440 0.984 . S
N434 H441 0.984 . S
N435 C428 1.356 . S
N435 H438 0.984 . S
N435 H439 0.985 . S
H436 N431 0.984 . S
H437 N431 0.985 . S
H438 N435 0.984 . S
H439 N435 0.985 . S
H440 N434 0.984 . S
H441 N434 0.984 . S
H442 N430 0.984 . S
H443 N430 0.985 . S
C444 C445 1.363 . S
C444 C450 1.379 . S
C444 N452 1.356 . S
C445 C444 1.363 . S
C445 C451 1.363 . S
C446 C447 1.363 . S
C446 C451 1.379 . S
C446 N453 1.356 . S
C447 C446 1.363 . S
C447 C450 1.363 . S
N448 C450 1.356 . S
N448 H460 0.984 . S
N448 H461 0.985 . S
N449 C451 1.356 . S
N449 H454 0.984 . S
N449 H455 0.985 . S
C450 C444 1.379 . S
C450 C447 1.363 . S
C450 N448 1.356 . S
C451 C445 1.363 . S
C451 C446 1.379 . S
C451 N449 1.356 . S
N452 C444 1.356 . S
N452 H458 0.984 . S
N452 H459 0.984 . S
N453 C446 1.356 . S
N453 H456 0.984 . S
N453 H457 0.985 . S
H454 N449 0.984 . S
H455 N449 0.985 . S
H456 N453 0.984 . S
H457 N453 0.985 . S
H458 N452 0.984 . S
H459 N452 0.984 . S
H460 N448 0.984 . S
H461 N448 0.985 . S
C462 C463 1.363 . S
C462 C468 1.379 . S
C462 N470 1.356 . S
C463 C462 1.363 . S
C463 C469 1.363 . S
C464 C465 1.363 . S
C464 C469 1.379 . S
C464 N471 1.356 . S
C465 C464 1.363 . S
C465 C468 1.363 . S
N466 C468 1.356 . S
N466 H478 0.984 . S
N466 H479 0.985 . S
N467 C469 1.356 . S
N467 H472 0.984 . S
N467 H473 0.985 . S
C468 C462 1.379 . S
C468 C465 1.363 . S
C468 N466 1.356 . S
C469 C463 1.363 . S
C469 C464 1.379 . S
C469 N467 1.356 . S
N470 C462 1.356 . S
N470 H476 0.984 . S
N470 H477 0.984 . S
N471 C464 1.356 . S
N471 H474 0.984 . S
N471 H475 0.985 . S
H472 N467 0.984 . S
H473 N467 0.985 . S
H474 N471 0.984 . S
H475 N471 0.985 . S
H476 N470 0.984 . S
H477 N470 0.984 . S
H478 N466 0.984 . S
H479 N466 0.985 . S
C480 C481 1.363 . S
C480 C486 1.379 . S
C480 N488 1.356 . S
C481 C480 1.363 . S
C481 C487 1.363 . S
C482 C483 1.363 . S
C482 C487 1.379 . S
C482 N489 1.356 . S
C483 C482 1.363 . S
C483 C486 1.363 . S
N484 C486 1.356 . S
N484 H496 0.984 . S
N484 H497 0.985 . S
N485 C487 1.356 . S
N485 H490 0.984 . S
N485 H491 0.985 . S
C486 C480 1.379 . S
C486 C483 1.363 . S
C486 N484 1.356 . S
C487 C481 1.363 . S
C487 C482 1.379 . S
C487 N485 1.356 . S
N488 C480 1.356 . S
N488 H494 0.984 . S
N488 H495 0.984 . S
N489 C482 1.356 . S
N489 H492 0.984 . S
N489 H493 0.985 . S
H490 N485 0.984 . S
H491 N485 0.985 . S
H492 N489 0.984 . S
H493 N489 0.985 . S
H494 N488 0.984 . S
H495 N488 0.984 . S
H496 N484 0.984 . S
H497 N484 0.985 . S
C498 C499 1.363 . S
C498 C504 1.379 . S
C498 N506 1.356 . S
C499 C498 1.363 . S
C499 C505 1.363 . S
C500 C501 1.363 . S
C500 C505 1.379 . S
C500 N507 1.356 . S
C501 C500 1.363 . S
C501 C504 1.363 . S
N502 C504 1.356 . S
N502 H514 0.984 . S
N502 H515 0.985 . S
N503 C505 1.356 . S
N503 H508 0.984 . S
N503 H509 0.985 . S
C504 C498 1.379 . S
C504 C501 1.363 . S
C504 N502 1.356 . S
C505 C499 1.363 . S
C505 C500 1.379 . S
C505 N503 1.356 . S
N506 C498 1.356 . S
N506 H512 0.984 . S
N506 H513 0.984 . S
N507 C500 1.356 . S
N507 H510 0.984 . S
N507 H511 0.985 . S
H508 N503 0.984 . S
H509 N503 0.985 . S
H510 N507 0.984 . S
H511 N507 0.985 . S
H512 N506 0.984 . S
H513 N506 0.984 . S
H514 N502 0.984 . S
H515 N502 0.985 . S
C516 C517 1.363 . S
C516 C522 1.379 . S
C516 N524 1.356 . S
C517 C516 1.363 . S
C517 C523 1.363 . S
C518 C519 1.363 . S
C518 C523 1.379 . S
C518 N525 1.356 . S
C519 C518 1.363 . S
C519 C522 1.363 . S
N520 C522 1.356 . S
N520 H532 0.984 . S
N520 H533 0.985 . S
N521 C523 1.356 . S
N521 H526 0.984 . S
N521 H527 0.985 . S
C522 C516 1.379 . S
C522 C519 1.363 . S
C522 N520 1.356 . S
C523 C517 1.363 . S
C523 C518 1.379 . S
C523 N521 1.356 . S
N524 C516 1.356 . S
N524 H530 0.984 . S
N524 H531 0.984 . S
N525 C518 1.356 . S
N525 H528 0.984 . S
N525 H529 0.985 . S
H526 N521 0.984 . S
H527 N521 0.985 . S
H528 N525 0.984 . S
H529 N525 0.985 . S
H530 N524 0.984 . S
H531 N524 0.984 . S
H532 N520 0.984 . S
H533 N520 0.985 . S
C534 C535 1.363 . S
C534 C540 1.379 . S
C534 N542 1.356 . S
C535 C534 1.363 . S
C535 C541 1.363 . S
C536 C537 1.363 . S
C536 C541 1.379 . S
C536 N543 1.356 . S
C537 C536 1.363 . S
C537 C540 1.363 . S
N538 C540 1.356 . S
N538 H550 0.984 . S
N538 H551 0.985 . S
N539 C541 1.356 . S
N539 H544 0.984 . S
N539 H545 0.985 . S
C540 C534 1.379 . S
C540 C537 1.363 . S
C540 N538 1.356 . S
C541 C535 1.363 . S
C541 C536 1.379 . S
C541 N539 1.356 . S
N542 C534 1.356 . S
N542 H548 0.984 . S
N542 H549 0.984 . S
N543 C536 1.356 . S
N543 H546 0.984 . S
N543 H547 0.985 . S
H544 N539 0.984 . S
H545 N539 0.985 . S
H546 N543 0.984 . S
H547 N543 0.985 . S
H548 N542 0.984 . S
H549 N542 0.984 . S
H550 N538 0.984 . S
H551 N538 0.985 . S
C552 C553 1.363 . S
C552 C558 1.379 . S
C552 N560 1.356 . S
C553 C552 1.363 . S
C553 C559 1.363 . S
C554 C555 1.363 . S
C554 C559 1.379 . S
C554 N561 1.356 . S
C555 C554 1.363 . S
C555 C558 1.363 . S
N556 C558 1.356 . S
N556 H568 0.984 . S
N556 H569 0.985 . S
N557 C559 1.356 . S
N557 H562 0.984 . S
N557 H563 0.985 . S
C558 C552 1.379 . S
C558 C555 1.363 . S
C558 N556 1.356 . S
C559 C553 1.363 . S
C559 C554 1.379 . S
C559 N557 1.356 . S
N560 C552 1.356 . S
N560 H566 0.984 . S
N560 H567 0.984 . S
N561 C554 1.356 . S
N561 H564 0.984 . S
N561 H565 0.985 . S
H562 N557 0.984 . S
H563 N557 0.985 . S
H564 N561 0.984 . S
H565 N561 0.985 . S
H566 N560 0.984 . S
H567 N560 0.984 . S
H568 N556 0.984 . S
H569 N556 0.985 . S
C570 C571 1.363 . S
C570 C576 1.379 . S
C570 N578 1.356 . S
C571 C570 1.363 . S
C571 C577 1.363 . S
C572 C573 1.363 . S
C572 C577 1.379 . S
C572 N579 1.356 . S
C573 C572 1.363 . S
C573 C576 1.363 . S
N574 C576 1.356 . S
N574 H586 0.984 . S
N574 H587 0.985 . S
N575 C577 1.356 . S
N575 H580 0.984 . S
N575 H581 0.985 . S
C576 C570 1.379 . S
C576 C573 1.363 . S
C576 N574 1.356 . S
C577 C571 1.363 . S
C577 C572 1.379 . S
C577 N575 1.356 . S
N578 C570 1.356 . S
N578 H584 0.984 . S
N578 H585 0.984 . S
N579 C572 1.356 . S
N579 H582 0.984 . S
N579 H583 0.985 . S
H580 N575 0.984 . S
H581 N575 0.985 . S
H582 N579 0.984 . S
H583 N579 0.985 . S
H584 N578 0.984 . S
H585 N578 0.984 . S
H586 N574 0.984 . S
H587 N574 0.985 . S
C588 C589 1.363 . S
C588 C594 1.379 . S
C588 N596 1.356 . S
C589 C588 1.363 . S
C589 C595 1.363 . S
C590 C591 1.363 . S
C590 C595 1.379 . S
C590 N597 1.356 . S
C591 C590 1.363 . S
C591 C594 1.363 . S
N592 C594 1.356 . S
N592 H604 0.984 . S
N592 H605 0.985 . S
N593 C595 1.356 . S
N593 H598 0.984 . S
N593 H599 0.985 . S
C594 C588 1.379 . S
C594 C591 1.363 . S
C594 N592 1.356 . S
C595 C589 1.363 . S
C595 C590 1.379 . S
C595 N593 1.356 . S
N596 C588 1.356 . S
N596 H602 0.984 . S
N596 H603 0.984 . S
N597 C590 1.356 . S
N597 H600 0.984 . S
N597 H601 0.985 . S
H598 N593 0.984 . S
H599 N593 0.985 . S
H600 N597 0.984 . S
H601 N597 0.985 . S
H602 N596 0.984 . S
H603 N596 0.984 . S
H604 N592 0.984 . S
H605 N592 0.985 . S
C606 C607 1.363 . S
C606 C612 1.379 . S
C606 N614 1.356 . S
C607 C606 1.363 . S
C607 C613 1.363 . S
C608 C609 1.363 . S
C608 C613 1.379 . S
C608 N615 1.356 . S
C609 C608 1.363 . S
C609 C612 1.363 . S
N610 C612 1.356 . S
N610 H622 0.984 . S
N610 H623 0.985 . S
N611 C613 1.356 . S
N611 H616 0.984 . S
N611 H617 0.985 . S
C612 C606 1.379 . S
C612 C609 1.363 . S
C612 N610 1.356 . S
C613 C607 1.363 . S
C613 C608 1.379 . S
C613 N611 1.356 . S
N614 C606 1.356 . S
N614 H620 0.984 . S
N614 H621 0.984 . S
N615 C608 1.356 . S
N615 H618 0.984 . S
N615 H619 0.985 . S
H616 N611 0.984 . S
H617 N611 0.985 . S
H618 N615 0.984 . S
H619 N615 0.985 . S
H620 N614 0.984 . S
H621 N614 0.984 . S
H622 N610 0.984 . S
H623 N610 0.985 . S
C624 C625 1.363 . S
C624 C630 1.379 . S
C624 N632 1.356 . S
C625 C624 1.363 . S
C625 C631 1.363 . S
C626 C627 1.363 . S
C626 C631 1.379 . S
C626 N633 1.356 . S
C627 C626 1.363 . S
C627 C630 1.363 . S
N628 C630 1.356 . S
N628 H640 0.984 . S
N628 H641 0.985 . S
N629 C631 1.356 . S
N629 H634 0.984 1_545 S
N629 H635 0.985 1_545 S
C630 C624 1.379 . S
C630 C627 1.363 . S
C630 N628 1.356 . S
C631 C625 1.363 . S
C631 C626 1.379 . S
C631 N629 1.356 . S
N632 C624 1.356 . S
N632 H638 0.984 . S
N632 H639 0.984 . S
N633 C626 1.356 . S
N633 H636 0.984 . S
N633 H637 0.985 . S
H634 N629 0.984 1_565 S
H635 N629 0.985 1_565 S
H636 N633 0.984 . S
H637 N633 0.985 . S
H638 N632 0.984 . S
H639 N632 0.984 . S
H640 N628 0.984 . S
H641 N628 0.985 . S
C642 C643 1.363 . S
C642 C648 1.379 . S
C642 N650 1.356 . S
C643 C642 1.363 . S
C643 C649 1.363 . S
C644 C645 1.363 . S
C644 C649 1.379 . S
C644 N651 1.356 . S
C645 C644 1.363 . S
C645 C648 1.363 . S
N646 C648 1.356 . S
N646 H658 0.984 . S
N646 H659 0.985 . S
N647 C649 1.356 . S
N647 H652 0.984 1_565 S
N647 H653 0.985 1_565 S
C648 C642 1.379 . S
C648 C645 1.363 . S
C648 N646 1.356 . S
C649 C643 1.363 . S
C649 C644 1.379 . S
C649 N647 1.356 . S
N650 C642 1.356 . S
N650 H656 0.984 . S
N650 H657 0.984 . S
N651 C644 1.356 . S
N651 H654 0.984 . S
N651 H655 0.985 . S
H652 N647 0.984 1_545 S
H653 N647 0.985 1_545 S
H654 N651 0.984 . S
H655 N651 0.985 . S
H656 N650 0.984 . S
H657 N650 0.984 . S
H658 N646 0.984 . S
H659 N646 0.985 . S
C660 C661 1.363 . S
C660 C666 1.379 . S
C660 N668 1.356 . S
C661 C660 1.363 . S
C661 C667 1.363 . S
C662 C663 1.363 . S
C662 C667 1.379 . S
C662 N669 1.356 . S
C663 C662 1.363 . S
C663 C666 1.363 . S
N664 C666 1.356 . S
N664 H676 0.984 . S
N664 H677 0.985 . S
N665 C667 1.356 . S
N665 H670 0.984 . S
N665 H671 0.985 . S
C666 C660 1.379 . S
C666 C663 1.363 . S
C666 N664 1.356 . S
C667 C661 1.363 . S
C667 C662 1.379 . S
C667 N665 1.356 . S
N668 C660 1.356 . S
N668 H674 0.984 . S
N668 H675 0.984 . S
N669 C662 1.356 . S
N669 H672 0.984 . S
N669 H673 0.985 . S
H670 N665 0.984 . S
H671 N665 0.985 . S
H672 N669 0.984 . S
H673 N669 0.985 . S
H674 N668 0.984 . S
H675 N668 0.984 . S
H676 N664 0.984 . S
H677 N664 0.985 . S
C678 C679 1.363 . S
C678 C684 1.379 . S
C678 N686 1.356 . S
C679 C678 1.363 . S
C679 C685 1.363 . S
C680 C681 1.363 . S
C680 C685 1.379 . S
C680 N687 1.356 . S
C681 C680 1.363 . S
C681 C684 1.363 . S
N682 C684 1.356 . S
N682 H694 0.984 . S
N682 H695 0.985 . S
N683 C685 1.356 . S
N683 H688 0.981 1_565 S
N683 H689 0.985 1_565 S
C684 C678 1.379 . S
C684 C681 1.363 . S
C684 N682 1.356 . S
C685 C679 1.363 . S
C685 C680 1.379 . S
C685 N683 1.356 . S
N686 C678 1.356 . S
N686 H692 0.984 . S
N686 H693 0.984 . S
N687 C680 1.356 . S
N687 H690 0.984 . S
N687 H691 0.985 . S
H688 N683 0.981 1_545 S
H689 N683 0.985 1_545 S
H690 N687 0.984 . S
H691 N687 0.985 . S
H692 N686 0.984 . S
H693 N686 0.984 . S
H694 N682 0.984 . S
H695 N682 0.985 . S
C696 C697 1.363 . S
C696 C702 1.379 . S
C696 N704 1.356 . S
C697 C696 1.363 . S
C697 C703 1.363 . S
C698 C699 1.363 . S
C698 C703 1.379 . S
C698 N705 1.356 . S
C699 C698 1.363 . S
C699 C702 1.363 . S
N700 C702 1.356 . S
N700 H712 0.984 . S
N700 H713 0.985 . S
N701 C703 1.356 . S
N701 H706 0.984 . S
N701 H707 0.985 . S
C702 C696 1.379 . S
C702 C699 1.363 . S
C702 N700 1.356 . S
C703 C697 1.363 . S
C703 C698 1.379 . S
C703 N701 1.356 . S
N704 C696 1.356 . S
N704 H710 0.984 . S
N704 H711 0.984 . S
N705 C698 1.356 . S
N705 H708 0.984 . S
N705 H709 0.985 . S
H706 N701 0.984 . S
H707 N701 0.985 . S
H708 N705 0.984 . S
H709 N705 0.985 . S
H710 N704 0.984 . S
H711 N704 0.984 . S
H712 N700 0.984 . S
H713 N700 0.985 . S
C714 C715 1.363 . S
C714 C720 1.379 . S
C714 N722 1.356 . S
C715 C714 1.363 . S
C715 C721 1.363 . S
C716 C717 1.363 . S
C716 C721 1.379 . S
C716 N723 1.356 . S
C717 C716 1.363 . S
C717 C720 1.363 . S
N718 C720 1.356 . S
N718 H730 0.984 . S
N718 H731 0.985 . S
N719 C721 1.356 . S
N719 H724 0.984 . S
N719 H725 0.985 . S
C720 C714 1.379 . S
C720 C717 1.363 . S
C720 N718 1.356 . S
C721 C715 1.363 . S
C721 C716 1.379 . S
C721 N719 1.356 . S
N722 C714 1.356 . S
N722 H728 0.984 . S
N722 H729 0.984 . S
N723 C716 1.356 . S
N723 H726 0.984 . S
N723 H727 0.985 . S
H724 N719 0.984 . S
H725 N719 0.985 . S
H726 N723 0.984 . S
H727 N723 0.985 . S
H728 N722 0.984 . S
H729 N722 0.984 . S
H730 N718 0.984 . S
H731 N718 0.985 . S
C732 C733 1.363 . S
C732 C738 1.379 . S
C732 N740 1.356 . S
C733 C732 1.363 . S
C733 C739 1.363 . S
C734 C735 1.363 . S
C734 C739 1.379 . S
C734 N741 1.356 . S
C735 C734 1.363 . S
C735 C738 1.363 . S
N736 C738 1.356 . S
N736 H748 0.984 . S
N736 H749 0.985 . S
N737 C739 1.356 . S
N737 H742 0.984 . S
N737 H743 0.985 . S
C738 C732 1.379 . S
C738 C735 1.363 . S
C738 N736 1.356 . S
C739 C733 1.363 . S
C739 C734 1.379 . S
C739 N737 1.356 . S
N740 C732 1.356 . S
N740 H746 0.984 . S
N740 H747 0.984 . S
N741 C734 1.356 . S
N741 H744 0.984 . S
N741 H745 0.985 . S
H742 N737 0.984 . S
H743 N737 0.985 . S
H744 N741 0.984 . S
H745 N741 0.985 . S
H746 N740 0.984 . S
H747 N740 0.984 . S
H748 N736 0.984 . S
H749 N736 0.985 . S
C750 C751 1.363 . S
C750 C756 1.379 . S
C750 N758 1.356 . S
C751 C750 1.363 . S
C751 C757 1.363 . S
C752 C753 1.363 . S
C752 C757 1.379 . S
C752 N759 1.356 . S
C753 C752 1.363 . S
C753 C756 1.363 . S
N754 C756 1.356 . S
N754 H766 0.984 . S
N754 H767 0.985 . S
N755 C757 1.356 . S
N755 H760 0.984 . S
N755 H761 0.985 . S
C756 C750 1.379 . S
C756 C753 1.363 . S
C756 N754 1.356 . S
C757 C751 1.363 . S
C757 C752 1.379 . S
C757 N755 1.356 . S
N758 C750 1.356 . S
N758 H764 0.984 . S
N758 H765 0.984 . S
N759 C752 1.356 . S
N759 H762 0.984 . S
N759 H763 0.985 . S
H760 N755 0.984 . S
H761 N755 0.985 . S
H762 N759 0.984 . S
H763 N759 0.985 . S
H764 N758 0.984 . S
H765 N758 0.984 . S
H766 N754 0.984 . S
H767 N754 0.985 . S
C768 C769 1.363 . S
C768 C774 1.379 . S
C768 N776 1.356 . S
C769 C768 1.363 . S
C769 C775 1.363 . S
C770 C771 1.363 . S
C770 C775 1.379 . S
C770 N777 1.356 . S
C771 C770 1.363 . S
C771 C774 1.363 . S
N772 C774 1.356 . S
N772 H784 0.984 . S
N772 H785 0.985 . S
N773 C775 1.356 . S
N773 H778 0.984 . S
N773 H779 0.985 . S
C774 C768 1.379 . S
C774 C771 1.363 . S
C774 N772 1.356 . S
C775 C769 1.363 . S
C775 C770 1.379 . S
C775 N773 1.356 . S
N776 C768 1.356 . S
N776 H782 0.984 . S
N776 H783 0.984 . S
N777 C770 1.356 . S
N777 H780 0.984 . S
N777 H781 0.985 . S
H778 N773 0.984 . S
H779 N773 0.985 . S
H780 N777 0.984 . S
H781 N777 0.985 . S
H782 N776 0.984 . S
H783 N776 0.984 . S
H784 N772 0.984 . S
H785 N772 0.985 . S
C786 C787 1.363 . S
C786 C792 1.379 . S
C786 N794 1.356 . S
C787 C786 1.363 . S
C787 C793 1.363 . S
C788 C789 1.363 . S
C788 C793 1.379 . S
C788 N795 1.356 . S
C789 C788 1.363 . S
C789 C792 1.363 . S
N790 C792 1.356 . S
N790 H802 0.984 . S
N790 H803 0.985 . S
N791 C793 1.356 . S
N791 H796 0.984 . S
N791 H797 0.985 . S
C792 C786 1.379 . S
C792 C789 1.363 . S
C792 N790 1.356 . S
C793 C787 1.363 . S
C793 C788 1.379 . S
C793 N791 1.356 . S
N794 C786 1.356 . S
N794 H800 0.984 . S
N794 H801 0.984 . S
N795 C788 1.356 . S
N795 H798 0.984 . S
N795 H799 0.985 . S
H796 N791 0.984 . S
H797 N791 0.985 . S
H798 N795 0.984 . S
H799 N795 0.985 . S
H800 N794 0.984 . S
H801 N794 0.984 . S
H802 N790 0.984 . S
H803 N790 0.985 . S
C804 C805 1.363 . S
C804 C810 1.379 . S
C804 N812 1.356 . S
C805 C804 1.363 . S
C805 C811 1.363 . S
C806 C807 1.363 . S
C806 C811 1.379 . S
C806 N813 1.356 . S
C807 C806 1.363 . S
C807 C810 1.363 . S
N808 C810 1.356 . S
N808 H820 0.984 . S
N808 H821 0.985 . S
N809 C811 1.356 . S
N809 H814 0.984 . S
N809 H815 0.985 . S
C810 C804 1.379 . S
C810 C807 1.363 . S
C810 N808 1.356 . S
C811 C805 1.363 . S
C811 C806 1.379 . S
C811 N809 1.356 . S
N812 C804 1.356 . S
N812 H818 0.984 . S
N812 H819 0.984 . S
N813 C806 1.356 . S
N813 H816 0.984 . S
N813 H817 0.985 . S
H814 N809 0.984 . S
H815 N809 0.985 . S
H816 N813 0.984 . S
H817 N813 0.985 . S
H818 N812 0.984 . S
H819 N812 0.984 . S
H820 N808 0.984 . S
H821 N808 0.985 . S
C822 C823 1.363 . S
C822 C828 1.379 . S
C822 N830 1.356 . S
C823 C822 1.363 . S
C823 C829 1.363 . S
C824 C825 1.363 . S
C824 C829 1.379 . S
C824 N831 1.356 . S
C825 C824 1.363 . S
C825 C828 1.363 . S
N826 C828 1.356 . S
N826 H838 0.984 . S
N826 H839 0.985 . S
N827 C829 1.356 . S
N827 H832 0.984 . S
N827 H833 0.985 . S
C828 C822 1.379 . S
C828 C825 1.363 . S
C828 N826 1.356 . S
C829 C823 1.363 . S
C829 C824 1.379 . S
C829 N827 1.356 . S
N830 C822 1.356 . S
N830 H836 0.984 . S
N830 H837 0.984 . S
N831 C824 1.356 . S
N831 H834 0.984 . S
N831 H835 0.985 . S
H832 N827 0.984 . S
H833 N827 0.985 . S
H834 N831 0.984 . S
H835 N831 0.985 . S
H836 N830 0.984 . S
H837 N830 0.984 . S
H838 N826 0.984 . S
H839 N826 0.985 . S
C409 C15 1.581 . S
C411 C363 1.558 . S
C429 C327 1.594 . S
C427 C55 1.613 . S
C447 C350 1.559 . S
C445 C95 1.555 . S
C465 C338 1.598 . S
C463 C135 1.601 . S
C483 C407 1.558 . S
C481 C175 1.581 . S
C501 C371 1.594 . S
C499 C215 1.613 . S
C517 C255 1.555 . S
C519 C394 1.559 . S
C537 C382 1.598 . S
C535 C295 1.601 . S
C553 C2 1.575 . S
C555 C404 1.584 . S
C573 C374 1.653 . S
C571 C61 1.553 . S
C589 C82 1.543 . S
C591 C393 1.622 . S
C607 C141 1.653 . S
C609 C379 1.691 . S
C627 C360 1.584 . S
C625 C162 1.575 . S
C643 C221 1.552 . S
C645 C330 1.653 . S
C663 C349 1.622 . S
C661 C242 1.543 . S
C681 C335 1.691 . S
C679 C301 1.653 . S
C699 C385 1.638 . S
C697 C21 1.613 . S
C717 C401 1.628 . S
C715 C42 1.550 . S
C733 C101 1.505 . S
C735 C372 1.613 . S
C753 C396 1.603 . S
C751 C122 1.597 . S
C771 C341 1.638 . S
C769 C181 1.613 . S
C787 C202 1.550 . S
C789 C357 1.628 . S
C805 C261 1.505 . S
C807 C328 1.613 . S
C823 C282 1.598 . S
C825 C352 1.603 . S
