# Generated by pormake.
# Topology ocu, (6,8)-cn, num edge types: 1
# Building blocks:
#     Node 0, Type 0, BuildingBlock: KUMJIN_clean_sbu_1, # of connection points: 6
#     Node 1, Type 0, BuildingBlock: KUMJIN_clean_sbu_1, # of connection points: 6
#     Node 2, Type 0, BuildingBlock: KUMJIN_clean_sbu_1, # of connection points: 6
#     Node 3, Type 0, BuildingBlock: KUMJIN_clean_sbu_1, # of connection points: 6
#     Node 4, Type 0, BuildingBlock: KUMJIN_clean_sbu_1, # of connection points: 6
#     Node 5, Type 0, BuildingBlock: KUMJIN_clean_sbu_1, # of connection points: 6
#     Node 6, Type 0, BuildingBlock: KUMJIN_clean_sbu_1, # of connection points: 6
#     Node 7, Type 0, BuildingBlock: KUMJIN_clean_sbu_1, # of connection points: 6
#     Node 8, Type 1, BuildingBlock: TAGTUT_clean_sbu_1, # of connection points: 8
#     Node 9, Type 1, BuildingBlock: TAGTUT_clean_sbu_1, # of connection points: 8
#     Node 10, Type 1, BuildingBlock: TAGTUT_clean_sbu_1, # of connection points: 8
#     Node 11, Type 1, BuildingBlock: TAGTUT_clean_sbu_1, # of connection points: 8
#     Node 12, Type 1, BuildingBlock: TAGTUT_clean_sbu_1, # of connection points: 8
#     Node 13, Type 1, BuildingBlock: TAGTUT_clean_sbu_1, # of connection points: 8
#     Edge 14, Type (0, 1), BuildingBlock: OJICUG_clean_linker_0, # of connection points: 2
#     Edge 15, Type (0, 1), BuildingBlock: OJICUG_clean_linker_0, # of connection points: 2
#     Edge 16, Type (0, 1), BuildingBlock: OJICUG_clean_linker_0, # of connection points: 2
#     Edge 17, Type (0, 1), BuildingBlock: OJICUG_clean_linker_0, # of connection points: 2
#     Edge 18, Type (0, 1), BuildingBlock: OJICUG_clean_linker_0, # of connection points: 2
#     Edge 19, Type (0, 1), BuildingBlock: OJICUG_clean_linker_0, # of connection points: 2
#     Edge 20, Type (0, 1), BuildingBlock: OJICUG_clean_linker_0, # of connection points: 2
#     Edge 21, Type (0, 1), BuildingBlock: OJICUG_clean_linker_0, # of connection points: 2
#     Edge 22, Type (0, 1), BuildingBlock: OJICUG_clean_linker_0, # of connection points: 2
#     Edge 23, Type (0, 1), BuildingBlock: OJICUG_clean_linker_0, # of connection points: 2
#     Edge 24, Type (0, 1), BuildingBlock: OJICUG_clean_linker_0, # of connection points: 2
#     Edge 25, Type (0, 1), BuildingBlock: OJICUG_clean_linker_0, # of connection points: 2
#     Edge 26, Type (0, 1), BuildingBlock: OJICUG_clean_linker_0, # of connection points: 2
#     Edge 27, Type (0, 1), BuildingBlock: OJICUG_clean_linker_0, # of connection points: 2
#     Edge 28, Type (0, 1), BuildingBlock: OJICUG_clean_linker_0, # of connection points: 2
#     Edge 29, Type (0, 1), BuildingBlock: OJICUG_clean_linker_0, # of connection points: 2
#     Edge 30, Type (0, 1), BuildingBlock: OJICUG_clean_linker_0, # of connection points: 2
#     Edge 31, Type (0, 1), BuildingBlock: OJICUG_clean_linker_0, # of connection points: 2
#     Edge 32, Type (0, 1), BuildingBlock: OJICUG_clean_linker_0, # of connection points: 2
#     Edge 33, Type (0, 1), BuildingBlock: OJICUG_clean_linker_0, # of connection points: 2
#     Edge 34, Type (0, 1), BuildingBlock: OJICUG_clean_linker_0, # of connection points: 2
#     Edge 35, Type (0, 1), BuildingBlock: OJICUG_clean_linker_0, # of connection points: 2
#     Edge 36, Type (0, 1), BuildingBlock: OJICUG_clean_linker_0, # of connection points: 2
#     Edge 37, Type (0, 1), BuildingBlock: OJICUG_clean_linker_0, # of connection points: 2
#     Edge 38, Type (0, 1), BuildingBlock: OJICUG_clean_linker_0, # of connection points: 2
#     Edge 39, Type (0, 1), BuildingBlock: OJICUG_clean_linker_0, # of connection points: 2
#     Edge 40, Type (0, 1), BuildingBlock: OJICUG_clean_linker_0, # of connection points: 2
#     Edge 41, Type (0, 1), BuildingBlock: OJICUG_clean_linker_0, # of connection points: 2
#     Edge 42, Type (0, 1), BuildingBlock: OJICUG_clean_linker_0, # of connection points: 2
#     Edge 43, Type (0, 1), BuildingBlock: OJICUG_clean_linker_0, # of connection points: 2
#     Edge 44, Type (0, 1), BuildingBlock: OJICUG_clean_linker_0, # of connection points: 2
#     Edge 45, Type (0, 1), BuildingBlock: OJICUG_clean_linker_0, # of connection points: 2
#     Edge 46, Type (0, 1), BuildingBlock: OJICUG_clean_linker_0, # of connection points: 2
#     Edge 47, Type (0, 1), BuildingBlock: OJICUG_clean_linker_0, # of connection points: 2
#     Edge 48, Type (0, 1), BuildingBlock: OJICUG_clean_linker_0, # of connection points: 2
#     Edge 49, Type (0, 1), BuildingBlock: OJICUG_clean_linker_0, # of connection points: 2
#     Edge 50, Type (0, 1), BuildingBlock: OJICUG_clean_linker_0, # of connection points: 2
#     Edge 51, Type (0, 1), BuildingBlock: OJICUG_clean_linker_0, # of connection points: 2
#     Edge 52, Type (0, 1), BuildingBlock: OJICUG_clean_linker_0, # of connection points: 2
#     Edge 53, Type (0, 1), BuildingBlock: OJICUG_clean_linker_0, # of connection points: 2
#     Edge 54, Type (0, 1), BuildingBlock: OJICUG_clean_linker_0, # of connection points: 2
#     Edge 55, Type (0, 1), BuildingBlock: OJICUG_clean_linker_0, # of connection points: 2
#     Edge 56, Type (0, 1), BuildingBlock: OJICUG_clean_linker_0, # of connection points: 2
#     Edge 57, Type (0, 1), BuildingBlock: OJICUG_clean_linker_0, # of connection points: 2
#     Edge 58, Type (0, 1), BuildingBlock: OJICUG_clean_linker_0, # of connection points: 2
#     Edge 59, Type (0, 1), BuildingBlock: OJICUG_clean_linker_0, # of connection points: 2
#     Edge 60, Type (0, 1), BuildingBlock: OJICUG_clean_linker_0, # of connection points: 2
#     Edge 61, Type (0, 1), BuildingBlock: OJICUG_clean_linker_0, # of connection points: 2
# Relax obj value: 0.099
# Max RMSD: 0.177
# Mean RMSD: 0.101
data_MOF--net-ocu--node1-KUMJIN_clean_sbu_1--node2-TAGTUT_clean_sbu_1--edge1-OJICUG_clean_linker_0
_symmetry_space_group_name_H-M    P1
_symmetry_Int_Tables_number       1
_symmetry_cell_setting            triclinic
loop_
_symmetry_equiv_pos_as_xyz
'x, y, z'
_cell_length_a     31.502785
_cell_length_b     30.216661
_cell_length_c     32.731634
_cell_angle_alpha  102.71592
_cell_angle_beta   79.72167
_cell_angle_gamma 118.92354
loop_
_atom_site_label
_atom_site_type_symbol
_atom_site_fract_x
_atom_site_fract_y
_atom_site_fract_z
_atom_type_partial_charge
Eu0 Eu 0.21764 0.22355 0.22895 0.0
C1 C 0.36907 0.40445 0.35451 0.0
N2 N 0.37861 0.37961 0.31691 0.0
C3 C 0.44934 0.45679 0.30166 0.0
C4 C 0.39928 0.45704 0.36688 0.0
C5 C 0.41853 0.40458 0.29084 0.0
C6 C 0.43949 0.48317 0.33978 0.0
C7 C 0.31965 0.40149 0.42094 0.0
C8 C 0.32961 0.37701 0.38124 0.0
C9 C 0.34932 0.45404 0.43304 0.0
C10 C 0.38897 0.48175 0.40607 0.0
Eu11 Eu 0.32528 0.29136 0.30234 0.0
N12 N 0.30081 0.32639 0.36836 0.0
C13 C 0.2803 0.37234 0.4474 0.0
C14 C 0.26379 0.29738 0.39474 0.0
C15 C 0.25251 0.31996 0.43436 0.0
H16 H 0.42758 0.38382 0.26244 0.0
H17 H 0.22265 0.29687 0.45494 0.0
H18 H 0.13334 0.11883 0.27103 0.0
H19 H 0.31222 0.23713 0.07162 0.0
H20 H 0.24301 0.25689 0.38544 0.0
H21 H 0.27149 0.38973 0.47814 0.0
H22 H 0.28851 0.26956 0.14295 0.0
H23 H 0.48101 0.47636 0.2809 0.0
H24 H 0.34209 0.47353 0.46333 0.0
H25 H 0.41178 0.52219 0.41599 0.0
H26 H 0.09797 0.02545 0.25336 0.0
H27 H 0.46352 0.52342 0.34857 0.0
H28 H 0.27752 0.14379 0.04748 0.0
N29 N 0.17847 0.13311 0.21397 0.0
C30 C 0.1894 0.11233 0.17484 0.0
C31 C 0.12373 0.04933 0.23096 0.0
C32 C 0.16805 0.05877 0.16248 0.0
C33 C 0.14489 0.10252 0.24142 0.0
C34 C 0.1354 0.02727 0.19133 0.0
N35 N 0.24397 0.19618 0.16042 0.0
C36 C 0.27469 0.22913 0.13351 0.0
C37 C 0.23439 0.12426 0.10628 0.0
C38 C 0.22254 0.14473 0.14713 0.0
C39 C 0.26755 0.15799 0.07912 0.0
C40 C 0.28746 0.21068 0.09271 0.0
H41 H 0.1186 0.98596 0.18316 0.0
H42 H 0.16392 0.99729 0.11192 0.0
H43 H 0.22173 0.0546 0.06265 0.0
O44 O 0.19358 0.26014 0.19294 0.0
O45 O 0.27011 0.18848 0.22071 0.0
O46 O 0.34426 0.25597 0.23741 0.0
O47 O 0.1416 0.1894 0.21752 0.0
O48 O 0.27576 0.30538 0.22056 0.0
O49 O 0.34805 0.31514 0.23749 0.0
O50 O 0.33441 0.24687 0.34097 0.0
O51 O 0.27527 0.32916 0.31137 0.0
O52 O 0.20086 0.26358 0.2924 0.0
O53 O 0.39748 0.31194 0.31857 0.0
O54 O 0.26647 0.20924 0.30759 0.0
O55 O 0.195 0.20362 0.29507 0.0
C56 C 0.31808 0.21044 0.21641 0.0
C57 C 0.10798 0.22287 0.17862 0.0
C58 C 0.07644 0.25478 0.13525 0.0
C59 C 0.02968 0.21422 0.14245 0.0
C60 C 0.06078 0.18313 0.18553 0.0
C61 C 1.02196 0.17904 0.16764 0.0
C62 C 0.11563 0.25927 0.15386 0.0
C63 C 0.32375 0.32621 0.21599 0.0
C64 C 0.14862 0.2244 0.19634 0.0
C65 C 0.18002 0.03833 0.12193 0.0
C66 C 0.21296 0.07097 0.09387 0.0
C67 C 0.22755 0.30933 0.31279 0.0
C68 C 0.40729 0.24161 0.32583 0.0
C69 C 0.43503 0.18744 0.34586 0.0
C70 C 0.45173 0.17797 0.30353 0.0
C71 C 0.42458 0.23221 0.284 0.0
C72 C 0.41234 0.21912 0.35652 0.0
C73 C 0.44656 0.20033 0.27294 0.0
C74 C 0.21922 0.19175 0.31576 0.0
C75 C 0.38173 0.27266 0.33773 0.0
H76 H 0.99876 0.20965 0.12872 0.0
H77 H 0.0538 0.15475 0.20453 0.0
H78 H 0.98577 0.1482 0.17302 0.0
H79 H 0.15187 0.29 0.1482 0.0
H80 H 0.46941 0.15389 0.2939 0.0
H81 H 0.42085 0.24929 0.25999 0.0
H82 H 0.39786 0.22585 0.38858 0.0
H83 H 0.45973 0.193 0.24057 0.0
Eu84 Eu 0.74341 0.30845 0.2768 0.0
C85 C 0.88115 0.22697 0.17037 0.0
N86 N 0.83351 0.19678 0.18134 0.0
C87 C 0.82142 0.15297 0.11068 0.0
C88 C 0.89984 0.22357 0.1281 0.0
C89 C 0.80389 0.15913 0.15275 0.0
C90 C 0.86945 0.18593 0.09813 0.0
C91 C 0.9592 0.2971 0.19024 0.0
C92 C 0.9103 0.26397 0.20116 0.0
C93 C 0.97678 0.29579 0.14787 0.0
C94 C 0.94739 0.25912 0.11686 0.0
Eu95 Eu 0.80585 0.21519 0.25115 0.0
N96 N 0.89012 0.26945 0.24115 0.0
C97 C 0.98814 0.33263 0.22195 0.0
C98 C 0.91843 0.30233 0.27258 0.0
C99 C 0.96783 0.33455 0.26344 0.0
H100 H 0.7668 0.13382 0.16251 0.0
H101 H 0.99008 0.3611 0.28835 0.0
H102 H 0.78606 0.39797 0.36076 0.0
H103 H 0.56335 0.1453 0.25382 0.0
H104 H 0.90361 0.30344 0.30482 0.0
H105 H 0.02607 0.35863 0.2147 0.0
H106 H 0.64567 0.20728 0.23086 0.0
H107 H 0.79774 0.12337 0.08792 0.0
H108 H 1.01256 0.32408 0.13895 0.0
H109 H 0.96127 0.2587 0.08421 0.0
H110 H 0.75661 0.41857 0.4341 0.0
H111 H 0.8827 0.18204 0.06531 0.0
H112 H 0.5313 0.15654 0.32776 0.0
N113 N 0.71853 0.33351 0.34588 0.0
C114 C 0.67127 0.30435 0.35884 0.0
C115 C 0.73234 0.38618 0.41338 0.0
C116 C 0.6534 0.31374 0.40075 0.0
C117 C 0.74902 0.37429 0.37203 0.0
C118 C 0.68439 0.35552 0.42794 0.0
N119 N 0.66067 0.25229 0.2914 0.0
C120 C 0.63239 0.21258 0.26315 0.0
C121 C 0.59471 0.228 0.34528 0.0
C122 C 0.64173 0.26233 0.33103 0.0
C123 C 0.56691 0.18473 0.31748 0.0
C124 C 0.58526 0.17776 0.2759 0.0
H125 H 0.67188 0.36398 0.46033 0.0
H126 H 0.59216 0.28513 0.44712 0.0
H127 H 0.54336 0.20877 0.3988 0.0
O128 O 0.70966 0.33122 0.23714 0.0
O129 O 0.7229 0.25126 0.3221 0.0
O130 O 0.72739 0.1834 0.27814 0.0
O131 O 0.75409 0.38665 0.28731 0.0
O132 O 0.73558 0.25903 0.21242 0.0
O133 O 0.73478 0.18582 0.22333 0.0
O134 O 0.83419 0.18704 0.29082 0.0
O135 O 0.82667 0.2732 0.20701 0.0
O136 O 0.82175 0.34235 0.24903 0.0
O137 O 0.79417 0.13626 0.23677 0.0
O138 O 0.81404 0.26526 0.31521 0.0
O139 O 0.81497 0.33852 0.30401 0.0
C140 C 0.71239 0.20259 0.31414 0.0
C141 C 0.72072 0.4189 0.24719 0.0
C142 C 0.67254 0.4476 0.21952 0.0
C143 C 0.7102 0.49826 0.22703 0.0
C144 C 0.75722 0.4697 0.25479 0.0
C145 C 0.75202 0.50903 0.2445 0.0
C146 C 0.6784 0.4079 0.22961 0.0
C147 C 0.72754 0.21128 0.19988 0.0
C148 C 0.72752 0.37787 0.2575 0.0
C149 C 0.60625 0.27963 0.41474 0.0
C150 C 0.57777 0.23649 0.38723 0.0
C151 C 0.83852 0.3221 0.21469 0.0
C152 C 0.82292 0.09941 0.27718 0.0
C153 C 0.8676 0.06859 0.30725 0.0
C154 C 0.83041 0.01815 0.29712 0.0
C155 C 0.78691 0.0489 0.26693 0.0
C156 C 0.86332 0.10914 0.29701 0.0
C157 C 0.79063 0.00856 0.27706 0.0
C158 C 0.82306 0.3134 0.32715 0.0
C159 C 0.81744 0.14178 0.26804 0.0
H160 H 0.70817 0.52973 0.21839 0.0
H161 H 0.79013 0.47898 0.26824 0.0
H162 H 0.78068 0.54806 0.24987 0.0
H163 H 0.65008 0.36866 0.22421 0.0
H164 H 0.8311 0.98587 0.30563 0.0
H165 H 0.75546 0.04065 0.25171 0.0
H166 H 0.89134 0.14824 0.30418 0.0
H167 H 0.76229 0.9697 0.26972 0.0
Eu168 Eu 0.74635 0.70178 0.29295 0.0
C169 C 0.91838 0.87173 0.1892 0.0
N170 N 0.89275 0.87833 0.22608 0.0
C171 C 0.96519 0.94923 0.25328 0.0
C172 C 0.96887 0.9037 0.18321 0.0
C173 C 0.91515 0.91683 0.25777 0.0
C174 C 0.99211 0.94254 0.21589 0.0
C175 C 0.9195 0.82648 0.11807 0.0
C176 C 0.89399 0.83352 0.15691 0.0
C177 C 0.9699 0.85786 0.1123 0.0
C178 C 0.99452 0.89636 0.14477 0.0
Eu179 Eu 0.80847 0.82209 0.22947 0.0
N180 N 0.84532 0.80305 0.16351 0.0
C181 C 0.89347 0.78836 0.08602 0.0
C182 C 0.81943 0.76756 0.13184 0.0
C183 C 0.84313 0.7591 0.09283 0.0
H184 H 0.8945 0.92332 0.28633 0.0
H185 H 0.82252 0.73031 0.06797 0.0
H186 H 0.65928 0.60151 0.23534 0.0
H187 H 0.73161 0.78952 0.45569 0.0
H188 H 0.78062 0.7459 0.13665 0.0
H189 H 0.91175 0.78179 0.05573 0.0
H190 H 0.77391 0.77273 0.38755 0.0
H191 H 0.98294 0.97965 0.27845 0.0
H192 H 0.99013 0.85292 0.08272 0.0
H193 H 0.03336 0.92056 0.13973 0.0
H194 H 0.56958 0.5553 0.23891 0.0
H195 H 0.03064 0.9679 0.21227 0.0
H196 H 0.64163 0.74364 0.46549 0.0
N197 N 0.66139 0.64779 0.29512 0.0
C198 C 0.6353 0.65601 0.33118 0.0
C199 C 0.58782 0.58344 0.26495 0.0
C200 C 0.58406 0.62855 0.33508 0.0
C201 C 0.6386 0.6105 0.26287 0.0
C202 C 0.56047 0.59307 0.30088 0.0
N203 N 0.70903 0.72 0.35897 0.0
C204 C 0.7349 0.75335 0.39146 0.0
C205 C 0.63394 0.70038 0.4026 0.0
C206 C 0.65983 0.69207 0.3644 0.0
C207 C 0.66017 0.73626 0.4356 0.0
C208 C 0.71093 0.76244 0.43013 0.0
H209 H 0.52123 0.57277 0.30182 0.0
H210 H 0.51865 0.61681 0.37624 0.0
H211 H 0.56237 0.67908 0.43557 0.0
O212 O 0.79263 0.69103 0.32844 0.0
O213 O 0.71461 0.75894 0.30892 0.0
O214 O 0.77303 0.83889 0.29337 0.0
O215 O 0.72676 0.62504 0.30401 0.0
O216 O 0.82344 0.76588 0.30044 0.0
O217 O 0.8279 0.84216 0.29666 0.0
O218 O 0.76198 0.83216 0.19355 0.0
O219 O 0.84106 0.76544 0.21389 0.0
O220 O 0.78175 0.68552 0.22888 0.0
O221 O 0.82718 0.89856 0.21866 0.0
O222 O 0.73111 0.75867 0.22281 0.0
O223 O 0.72724 0.68241 0.22562 0.0
C224 C 0.73135 0.80897 0.31233 0.0
C225 C 0.77514 0.60749 0.34262 0.0
C226 C 0.83139 0.58954 0.37055 0.0
C227 C 0.79448 0.53893 0.37173 0.0
C228 C 0.73897 0.55689 0.34454 0.0
C229 C 0.74865 0.52295 0.35906 0.0
C230 C 0.82128 0.62405 0.35643 0.0
C231 C 0.83547 0.81365 0.31647 0.0
C232 C 0.7648 0.64171 0.32464 0.0
C233 C 0.55803 0.63747 0.37277 0.0
C234 C 0.58293 0.67296 0.40656 0.0
C235 C 0.82369 0.71518 0.21005 0.0
C236 C 0.77888 0.91582 0.17995 0.0
C237 C 0.72206 0.93471 0.15406 0.0
C238 C 0.75942 0.98492 0.15189 0.0
C239 C 0.81546 0.96606 0.17717 0.0
C240 C 0.73223 0.89989 0.1676 0.0
C241 C 0.80574 1.00025 0.16311 0.0
C242 C 0.71871 0.71093 0.20661 0.0
C243 C 0.78926 0.88161 0.19784 0.0
H244 H 0.80089 0.51173 0.38304 0.0
H245 H 0.70326 0.54327 0.33427 0.0
H246 H 0.72062 0.48391 0.36017 0.0
H247 H 0.84952 0.66303 0.35519 0.0
H248 H 0.75296 0.01232 0.14096 0.0
H249 H 0.85153 0.97922 0.18644 0.0
H250 H 0.70365 0.86124 0.16967 0.0
H251 H 0.83409 0.039 0.16131 0.0
Eu252 Eu 0.22535 0.78116 0.26211 0.0
C253 C 0.35323 0.70656 0.33396 0.0
N254 N 0.37005 0.74855 0.31518 0.0
C255 C 0.43261 0.79651 0.36261 0.0
C256 C 0.37522 0.70826 0.36858 0.0
C257 C 0.4094 0.79305 0.32852 0.0
C258 C 0.41528 0.75404 0.3829 0.0
C259 C 0.29477 0.61767 0.33779 0.0
C260 C 0.31354 0.66176 0.31874 0.0
C261 C 0.31644 0.61927 0.37242 0.0
C262 C 0.35654 0.66442 0.38776 0.0
Eu263 Eu 0.32736 0.73962 0.25934 0.0
N264 N 0.2923 0.66187 0.2861 0.0
C265 C 0.25451 0.57343 0.32163 0.0
C266 C 0.25413 0.61855 0.26927 0.0
C267 C 0.23432 0.57381 0.28705 0.0
H268 H 0.42275 0.82598 0.31294 0.0
H269 H 0.20346 0.5397 0.27415 0.0
H270 H 0.14212 0.70396 0.19381 0.0
H271 H 0.3563 0.98439 0.26946 0.0
H272 H 0.2385 0.61879 0.24261 0.0
H273 H 0.23889 0.5388 0.33548 0.0
H274 H 0.31235 0.90103 0.29445 0.0
H275 H 0.46367 0.83196 0.37333 0.0
H276 H 0.30242 0.58582 0.38759 0.0
H277 H 0.37286 0.66504 0.41449 0.0
H278 H 0.11471 0.70871 0.12941 0.0
H279 H 0.43317 0.75695 0.40946 0.0
H280 H 0.33539 0.99495 0.20409 0.0
N281 N 0.1968 0.7815 0.20067 0.0
C282 C 0.21826 0.82699 0.18607 0.0
C283 C 0.14417 0.74207 0.14479 0.0
C284 C 0.20424 0.83121 0.14912 0.0
C285 C 0.15978 0.73947 0.18117 0.0
C286 C 0.16676 0.78797 0.12845 0.0
N287 N 0.26845 0.86393 0.24298 0.0
C288 C 0.30342 0.90474 0.26562 0.0
C289 C 0.27893 0.91653 0.19254 0.0
C290 C 0.25505 0.86934 0.20776 0.0
C291 C 0.31608 0.95811 0.21485 0.0
C292 C 0.3281 0.95225 0.25169 0.0
H293 H 0.15479 0.78971 0.10006 0.0
H294 H 0.2178 0.88212 0.10553 0.0
H295 H 0.28332 0.95663 0.14334 0.0
O296 O 0.19629 0.82811 0.30426 0.0
O297 O 0.28168 0.79335 0.2057 0.0
O298 O 0.34831 0.81419 0.23808 0.0
O299 O 0.14659 0.75328 0.27445 0.0
O300 O 0.26964 0.81203 0.3199 0.0
O301 O 0.34458 0.81988 0.29157 0.0
O302 O 0.34758 0.68969 0.21127 0.0
O303 O 0.26921 0.72028 0.31454 0.0
O304 O 0.20094 0.70869 0.28874 0.0
O305 O 0.40381 0.76385 0.23556 0.0
O306 O 0.27869 0.70465 0.20439 0.0
O307 O 0.20451 0.69916 0.23272 0.0
C308 C 0.32909 0.81598 0.20673 0.0
C309 C 0.13412 0.77351 0.34787 0.0
C310 C 0.14592 0.7882 0.42271 0.0
C311 C 0.10418 0.7405 0.42638 0.0
C312 C 0.09173 0.72772 0.35287 0.0
C313 C 0.07774 0.71073 0.3917 0.0
C314 C 0.16201 0.8017 0.38228 0.0
C315 C 0.31644 0.8296 0.3229 0.0
C316 C 0.15264 0.78974 0.30622 0.0
C317 C 0.22798 0.87822 0.13397 0.0
C318 C 0.26527 0.92069 0.15553 0.0
C319 C 0.22183 0.70323 0.31708 0.0
C320 C 0.40274 0.73882 0.16134 0.0
C321 C 0.37993 0.71213 0.08852 0.0
C322 C 0.40749 0.7637 0.08232 0.0
C323 C 0.4324 0.78909 0.15333 0.0
C324 C 0.37776 0.70086 0.12871 0.0
C325 C 0.43466 0.80125 0.11397 0.0
C326 C 0.23142 0.68526 0.20292 0.0
C327 C 0.39153 0.72594 0.20434 0.0
H328 H 0.08999 0.72669 0.45613 0.0
H329 H 0.07034 0.70438 0.32656 0.0
H330 H 0.04571 0.6747 0.39512 0.0
H331 H 0.19572 0.83566 0.37761 0.0
H332 H 0.41006 0.77506 0.05251 0.0
H333 H 0.45252 0.81926 0.17775 0.0
H334 H 0.35727 0.662 0.13518 0.0
H335 H 0.45752 0.84008 0.1079 0.0
Eu336 Eu 0.24275 0.80666 0.78204 0.0
C337 C 0.37352 0.72967 0.65821 0.0
N338 N 0.3289 0.69748 0.67455 0.0
C339 C 0.30969 0.64539 0.60722 0.0
C340 C 0.38685 0.72208 0.61478 0.0
C341 C 0.29733 0.65532 0.65018 0.0
C342 C 0.35449 0.67916 0.58934 0.0
C343 C 0.44887 0.80889 0.66749 0.0
C344 C 0.40466 0.77241 0.68454 0.0
C345 C 0.4607 0.80258 0.62402 0.0
C346 C 0.4307 0.75884 0.59783 0.0
Eu347 Eu 0.31111 0.7192 0.74645 0.0
N348 N 0.38993 0.78043 0.72605 0.0
C349 C 0.47889 0.85181 0.69439 0.0
C350 C 0.42032 0.82031 0.7529 0.0
C351 C 0.4651 0.85688 0.73742 0.0
H352 H 0.26291 0.62896 0.66407 0.0
H353 H 0.48877 0.88915 0.75862 0.0
H354 H 0.30563 0.91511 0.84628 0.0
H355 H 0.06067 0.65061 0.80488 0.0
H356 H 0.41051 0.82413 0.78619 0.0
H357 H 0.5129 0.88103 0.68236 0.0
H358 H 0.13699 0.70177 0.76382 0.0
H359 H 0.28451 0.61199 0.58789 0.0
H360 H 0.49194 0.83238 0.61022 0.0
H361 H 0.44087 0.7548 0.56432 0.0
H362 H 0.29922 0.95176 0.92136 0.0
H363 H 0.36355 0.67204 0.55584 0.0
H364 H 0.04984 0.67983 0.88065 0.0
N365 N 0.23789 0.84846 0.85097 0.0
C366 C 0.19648 0.82343 0.87519 0.0
C367 C 0.2701 0.91564 0.90875 0.0
C368 C 0.19084 0.84319 0.91783 0.0
C369 C 0.27397 0.89459 0.86656 0.0
C370 C 0.22844 0.88971 0.93457 0.0
N371 N 0.16686 0.75861 0.81636 0.0
C372 C 0.13129 0.71511 0.79674 0.0
C373 C 0.1169 0.75009 0.88169 0.0
C374 C 0.15962 0.77764 0.85727 0.0
C375 C 0.08173 0.70338 0.86258 0.0
C376 C 0.08828 0.68633 0.8198 0.0
H377 H 0.22558 0.90604 0.96728 0.0
H378 H 0.14355 0.82972 0.97546 0.0
H379 H 0.07996 0.74775 0.94428 0.0
O380 O 0.2054 0.81545 0.73648 0.0
O381 O 0.22508 0.74574 0.82266 0.0
O382 O 0.2382 0.67931 0.78279 0.0
O383 O 0.23624 0.87668 0.78779 0.0
O384 O 0.22372 0.74917 0.72198 0.0
O385 O 0.23452 0.68 0.72684 0.0
O386 O 0.35632 0.70395 0.77916 0.0
O387 O 0.31617 0.77266 0.70377 0.0
O388 O 0.31819 0.84311 0.74868 0.0
O389 O 0.31359 0.64663 0.7301 0.0
O390 O 0.32122 0.76789 0.81111 0.0
O391 O 0.31869 0.83931 0.80098 0.0
C392 C 0.21912 0.6985 0.81643 0.0
C393 C 0.16358 0.86386 0.76446 0.0
C394 C 0.10543 0.88204 0.7403 0.0
C395 C 0.07448 0.86718 0.77674 0.0
C396 C 0.13273 0.85059 0.80119 0.0
C397 C 0.08829 0.85179 0.80709 0.0
C398 C 0.14989 0.87991 0.73422 0.0
C399 C 0.21749 0.70212 0.7086 0.0
C400 C 0.20902 0.85932 0.75659 0.0
C401 C 0.1483 0.8156 0.94243 0.0
C402 C 0.11172 0.769 0.92451 0.0
C403 C 0.33009 0.82206 0.71199 0.0
C404 C 0.33239 0.61759 0.78243 0.0
C405 C 0.36327 0.57879 0.81939 0.0
C406 C 0.3156 0.53891 0.82478 0.0
C407 C 0.28505 0.57785 0.78836 0.0
C408 C 0.37122 0.61805 0.79814 0.0
C409 C 0.27685 0.5386 0.80939 0.0
C410 C 0.32833 0.81522 0.82388 0.0
C411 C 0.34293 0.65785 0.75838 0.0
H412 H 0.04008 0.86838 0.78208 0.0
H413 H 0.14284 0.83935 0.82534 0.0
H414 H 0.06456 0.84091 0.83535 0.0
H415 H 0.17352 0.89003 0.7057 0.0
H416 H 0.30806 0.50844 0.84162 0.0
H417 H 0.25464 0.57683 0.77638 0.0
H418 H 0.40779 0.64863 0.7932 0.0
H419 H 0.24035 0.50787 0.81383 0.0
Eu420 Eu 0.24693 0.19961 0.79322 0.0
C421 C 0.41362 0.37605 0.6912 0.0
N422 N 0.38787 0.3803 0.72856 0.0
C423 C 0.45816 0.45466 0.75544 0.0
C424 C 0.46319 0.41099 0.68476 0.0
C425 C 0.40914 0.41906 0.76047 0.0
C426 C 0.48517 0.45056 0.71741 0.0
C427 C 0.41562 0.33289 0.61942 0.0
C428 C 0.39004 0.33759 0.65878 0.0
C429 C 0.46534 0.36694 0.61328 0.0
C430 C 0.48903 0.40599 0.64583 0.0
Eu431 Eu 0.30491 0.32008 0.73275 0.0
N432 N 0.34197 0.30496 0.66563 0.0
C433 C 0.39026 0.29452 0.5872 0.0
C434 C 0.31658 0.26922 0.63382 0.0
C435 C 0.3404 0.26286 0.59434 0.0
H436 H 0.38811 0.42336 0.78949 0.0
H437 H 0.32024 0.23382 0.56938 0.0
H438 H 0.16288 0.09386 0.73894 0.0
H439 H 0.23338 0.29457 0.95377 0.0
H440 H 0.27811 0.24553 0.63896 0.0
H441 H 0.40862 0.28964 0.55653 0.0
H442 H 0.275 0.27914 0.8849 0.0
H443 H 0.47495 0.48559 0.78062 0.0
H444 H 0.48564 0.36383 0.58331 0.0
H445 H 0.52725 0.43243 0.64046 0.0
H446 H 0.07562 0.03355 0.74888 0.0
H447 H 0.52264 0.47866 0.71318 0.0
H448 H 0.14488 0.24009 0.96756 0.0
N449 N 0.16375 0.14052 0.79827 0.0
C450 C 0.13841 0.147 0.83536 0.0
C451 C 0.09276 0.06565 0.77319 0.0
C452 C 0.08865 0.11305 0.84247 0.0
C453 C 0.14201 0.10028 0.76747 0.0
C454 C 0.06606 0.0722 0.81082 0.0
N455 N 0.21071 0.2188 0.85946 0.0
C456 C 0.23647 0.25596 0.89041 0.0
C457 C 0.13724 0.19378 0.9059 0.0
C458 C 0.16251 0.18686 0.86689 0.0
C459 C 0.16301 0.23353 0.93718 0.0
C460 C 0.21294 0.26445 0.9295 0.0
H461 H 0.02833 0.04501 0.8156 0.0
H462 H 0.02485 0.09458 0.88695 0.0
H463 H 0.06734 0.1654 0.94239 0.0
O464 O 0.2934 0.18968 0.82934 0.0
O465 O 0.21105 0.25327 0.80809 0.0
O466 O 0.27261 0.33345 0.79872 0.0
O467 O 0.23026 0.123 0.80133 0.0
O468 O 0.32487 0.26179 0.7999 0.0
O469 O 0.32689 0.33773 0.79918 0.0
O470 O 0.2539 0.33027 0.7022 0.0
O471 O 0.33952 0.26524 0.71346 0.0
O472 O 0.28178 0.18488 0.72853 0.0
O473 O 0.32052 0.39641 0.72485 0.0
O474 O 0.22854 0.25514 0.72279 0.0
O475 O 0.22564 0.17932 0.72664 0.0
C476 C 0.22886 0.30363 0.81427 0.0
C477 C 0.27828 0.10531 0.83955 0.0
C478 C 0.33522 0.08753 0.8662 0.0
C479 C 0.29978 0.0359 0.86429 0.0
C480 C 0.2436 0.05357 0.83806 0.0
C481 C 0.25432 0.01918 0.85054 0.0
C482 C 0.32395 0.12243 0.85432 0.0
C483 C 0.33837 0.30972 0.81603 0.0
C484 C 0.26753 0.13997 0.82291 0.0
C485 C 0.06319 0.12028 0.88107 0.0
C486 C 0.08739 0.16059 0.91266 0.0
C487 C 0.32303 0.21508 0.70927 0.0
C488 C 0.26794 0.41506 0.69311 0.0
C489 C 0.21065 0.43244 0.66604 0.0
C490 C 0.24387 0.48498 0.67226 0.0
C491 C 0.30008 0.46779 0.69909 0.0
C492 C 0.22326 0.39736 0.67604 0.0
C493 C 0.28815 0.50234 0.68851 0.0
C494 C 0.21624 0.20707 0.70748 0.0
C495 C 0.28052 0.37986 0.7072 0.0
H496 H 0.30711 0.00845 0.87392 0.0
H497 H 0.20826 0.03949 0.82684 0.0
H498 H 0.22744 0.97933 0.84928 0.0
H499 H 0.35108 0.16221 0.85532 0.0
H500 H 0.23591 0.51284 0.66398 0.0
H501 H 0.33444 0.48257 0.71234 0.0
H502 H 0.198 0.35682 0.67152 0.0
H503 H 0.31329 0.54285 0.69308 0.0
Eu504 Eu 0.7208 0.28295 0.7599 0.0
C505 C 0.83649 0.20048 0.83809 0.0
N506 N 0.85629 0.24488 0.82205 0.0
C507 C 0.91386 0.2868 0.874 0.0
C508 C 0.85371 0.19822 0.87409 0.0
C509 C 0.89447 0.28776 0.8392 0.0
C510 C 0.89296 0.24214 0.89197 0.0
C511 C 0.77624 0.11107 0.83544 0.0
C512 C 0.79854 0.15718 0.81865 0.0
C513 C 0.79283 0.10895 0.8717 0.0
C514 C 0.83157 0.15232 0.89085 0.0
Eu515 Eu 0.82325 0.24206 0.76214 0.0
N516 N 0.78245 0.16068 0.78411 0.0
C517 C 0.73773 0.06851 0.8154 0.0
C518 C 0.74609 0.11882 0.76362 0.0
C519 C 0.72285 0.07234 0.77918 0.0
H520 H 0.91035 0.32253 0.82563 0.0
H521 H 0.69352 0.03944 0.76316 0.0
H522 H 0.65494 0.21524 0.67818 0.0
H523 H 0.84059 0.4901 0.79518 0.0
H524 H 0.73469 0.12091 0.73539 0.0
H525 H 0.71952 0.03245 0.82742 0.0
H526 H 0.79224 0.40297 0.81142 0.0
H527 H 0.9451 0.32038 0.88671 0.0
H528 H 0.77604 0.07388 0.88509 0.0
H529 H 0.84417 0.14995 0.91863 0.0
H530 H 0.64255 0.2292 0.61042 0.0
H531 H 0.90774 0.2418 0.9193 0.0
H532 H 0.83777 0.50904 0.72631 0.0
N533 N 0.7068 0.29264 0.69507 0.0
C534 C 0.73057 0.34088 0.68534 0.0
C535 C 0.66771 0.26077 0.63102 0.0
C536 C 0.72507 0.35041 0.64682 0.0
C537 C 0.6749 0.25295 0.66923 0.0
C538 C 0.69326 0.30957 0.61955 0.0
N539 N 0.7662 0.37032 0.75063 0.0
C540 C 0.79252 0.40938 0.78039 0.0
C541 C 0.78751 0.43068 0.70352 0.0
C542 C 0.76154 0.38059 0.71355 0.0
C543 C 0.81723 0.4701 0.73285 0.0
C544 C 0.81916 0.4595 0.77166 0.0
H545 H 0.6879 0.31538 0.58974 0.0
H546 H 0.74791 0.40808 0.60711 0.0
H547 H 0.80255 0.47828 0.65664 0.0
O548 O 0.67942 0.32109 0.796 0.0
O549 O 0.77729 0.2928 0.70399 0.0
O550 O 0.84256 0.31515 0.73884 0.0
O551 O 0.64129 0.24668 0.76008 0.0
O552 O 0.76228 0.31451 0.81977 0.0
O553 O 0.83768 0.32223 0.79252 0.0
O554 O 0.85355 0.19718 0.7187 0.0
O555 O 0.76561 0.22625 0.81734 0.0
O556 O 0.6974 0.21226 0.78949 0.0
O557 O 0.90219 0.27317 0.74712 0.0
O558 O 0.77869 0.20631 0.70466 0.0
O559 O 0.70427 0.20165 0.73122 0.0
C560 C 0.82449 0.31559 0.70612 0.0
C561 C 0.61421 0.25813 0.83132 0.0
C562 C 0.62849 0.26156 0.90333 0.0
C563 C 0.59261 0.21018 0.90211 0.0
C564 C 0.57818 0.20711 0.83079 0.0
C565 C 0.56671 0.18379 0.86646 0.0
C566 C 0.63629 0.28543 0.86852 0.0
C567 C 0.80914 0.33206 0.8234 0.0
C568 C 0.63811 0.27941 0.79207 0.0
C569 C 0.75147 0.40011 0.63667 0.0
C570 C 0.78266 0.44008 0.66487 0.0
C571 C 0.71817 0.20685 0.81807 0.0
C572 C 0.91262 0.25155 0.67333 0.0
C573 C 0.89615 0.23183 0.59902 0.0
C574 C 0.92991 0.28315 0.59492 0.0
C575 C 0.94805 0.30121 0.66754 0.0
C576 C 0.88753 0.21745 0.63903 0.0
C577 C 0.95643 0.31678 0.62852 0.0
C578 C 0.73196 0.18872 0.70156 0.0
C579 C 0.89647 0.23646 0.71561 0.0
H580 H 0.58458 0.19019 0.92833 0.0
H581 H 0.56074 0.18466 0.80234 0.0
H582 H 0.53969 0.14414 0.86554 0.0
H583 H 0.66106 0.32579 0.86953 0.0
H584 H 0.93766 0.29731 0.5655 0.0
H585 H 0.96796 0.32849 0.69343 0.0
H586 H 0.8618 0.17888 0.64394 0.0
H587 H 0.98337 0.35538 0.62438 0.0
Eu588 Eu 0.72084 0.72623 0.72972 0.0
C589 C 0.86551 0.90859 0.85334 0.0
N590 N 0.87633 0.8844 0.81593 0.0
C591 C 0.93762 0.9647 0.79653 0.0
C592 C 0.89042 0.96233 0.86365 0.0
C593 C 0.91328 0.91135 0.7885 0.0
C594 C 0.92603 0.99042 0.83424 0.0
C595 C 0.8182 0.90329 0.92098 0.0
C596 C 0.82939 0.87948 0.88147 0.0
C597 C 0.8432 0.95681 0.93147 0.0
C598 C 0.87898 0.98627 0.90278 0.0
Eu599 Eu 0.82934 0.79467 0.8031 0.0
N600 N 0.8043 0.82795 0.8697 0.0
C601 C 0.78198 0.87258 0.94864 0.0
C602 C 0.7703 0.79769 0.89706 0.0
C603 C 0.75823 0.81951 0.93674 0.0
H604 H 0.92466 0.89173 0.76081 0.0
H605 H 0.73082 0.79536 0.9582 0.0
H606 H 0.62554 0.62937 0.77283 0.0
H607 H 0.8199 0.72425 0.57502 0.0
H608 H 0.75283 0.7568 0.88858 0.0
H609 H 0.77239 0.88938 0.97933 0.0
H610 H 0.79819 0.76326 0.64457 0.0
H611 H 0.96564 0.98576 0.77375 0.0
H612 H 0.83497 0.9758 0.96162 0.0
H613 H 0.89781 0.02753 0.91125 0.0
H614 H 0.58416 0.53531 0.75982 0.0
H615 H 0.94523 0.03184 0.84064 0.0
H616 H 0.7775 0.63024 0.554 0.0
N617 N 0.67337 0.6365 0.71724 0.0
C618 C 0.68409 0.61208 0.6799 0.0
C619 C 0.61218 0.55633 0.737 0.0
C620 C 0.65913 0.55831 0.6698 0.0
C621 C 0.63658 0.60971 0.74489 0.0
C622 C 0.62369 0.53043 0.69937 0.0
N623 N 0.74583 0.69239 0.66338 0.0
C624 C 0.78023 0.72238 0.63605 0.0
C625 C 0.73147 0.61683 0.61228 0.0
C626 C 0.72037 0.6409 0.6517 0.0
C627 C 0.76796 0.64726 0.58461 0.0
C628 C 0.79218 0.70031 0.59645 0.0
H629 H 0.60454 0.489 0.69315 0.0
H630 H 0.65151 0.49284 0.62245 0.0
H631 H 0.71441 0.54412 0.57188 0.0
O632 O 0.70784 0.76629 0.68933 0.0
O633 O 0.77326 0.69095 0.72085 0.0
O634 O 0.84773 0.75722 0.739 0.0
O635 O 0.64708 0.70189 0.71453 0.0
O636 O 0.77899 0.80855 0.72451 0.0
O637 O 0.85142 0.81609 0.73724 0.0
O638 O 0.84437 0.75369 0.84117 0.0
O639 O 0.77689 0.82993 0.81233 0.0
O640 O 0.70238 0.76399 0.79362 0.0
O641 O 0.90329 0.82154 0.81892 0.0
O642 O 0.77072 0.7127 0.80993 0.0
O643 O 0.69856 0.70494 0.79568 0.0
C644 C 0.82119 0.71171 0.71817 0.0
C645 C 0.6332 0.7686 0.70313 0.0
C646 C 0.60407 0.82012 0.68018 0.0
C647 C 0.58571 0.82969 0.72176 0.0
C648 C 0.61461 0.77861 0.74438 0.0
C649 C 0.59089 0.80892 0.75356 0.0
C650 C 0.62766 0.78921 0.67108 0.0
C651 C 0.82636 0.82684 0.71637 0.0
C652 C 0.66069 0.73915 0.69338 0.0
C653 C 0.67043 0.53412 0.63075 0.0
C654 C 0.70624 0.56332 0.60195 0.0
C655 C 0.72899 0.80942 0.81458 0.0
C656 C 0.92141 0.75666 0.82699 0.0
C657 C 0.95341 0.70616 0.84715 0.0
C658 C 0.97469 0.70148 0.80591 0.0
C659 C 0.94315 0.7519 0.78603 0.0
C660 C 0.92699 0.73413 0.85752 0.0
C661 C 0.96977 0.72453 0.77565 0.0
C662 C 0.72311 0.69392 0.81694 0.0
C663 C 0.89124 0.78314 0.83812 0.0
H664 H 0.56695 0.85287 0.72962 0.0
H665 H 0.61867 0.76323 0.76947 0.0
H666 H 0.57663 0.81649 0.78547 0.0
H667 H 0.64269 0.78213 0.6393 0.0
H668 H 0.99552 0.68046 0.79723 0.0
H669 H 0.93937 0.76912 0.7621 0.0
H670 H 0.90992 0.73748 0.88911 0.0
H671 H 0.98648 0.72099 0.74402 0.0
C672 C 0.96178 0.12377 0.54111 0.0
C673 C 0.9797 0.07696 0.42737 0.0
C674 C 0.93502 0.90508 0.46859 0.0
Mg675 Mg 0.03742 0.1186 0.50862 0.0
O676 O 0.98736 0.05356 0.52909 0.0
Mg677 Mg 0.9184 1.00049 0.50324 0.0
Mg678 Mg 1.02101 1.00842 0.51512 0.0
O679 O 0.05446 0.96301 0.50109 0.0
Mg680 Mg 1.00325 0.89903 0.52264 0.0
Mg681 Mg 0.12319 0.01572 0.52759 0.0
C682 C 0.10749 0.11179 0.56055 0.0
C683 C 0.11778 0.06404 0.44811 0.0
O684 O 0.96086 0.08027 0.5395 0.0
O685 O 1.00337 0.16289 0.54222 0.0
O686 O 0.94463 0.04106 0.44546 0.0
O687 O 1.0195 0.10908 0.44426 0.0
O688 O 0.10039 0.13942 0.54071 0.0
O689 O 0.08211 0.06296 0.55547 0.0
C690 C 0.92451 0.95291 0.58265 0.0
O691 O 0.96993 0.96668 0.57132 0.0
O692 O 0.89885 0.96179 0.56231 0.0
O693 O 0.07987 0.93572 0.49239 0.0
O694 O 0.03761 0.85351 0.49354 0.0
O695 O 0.0966 0.97492 0.58569 0.0
C696 C 0.07905 0.89275 0.49305 0.0
O697 O 1.01963 0.91093 0.58736 0.0
O698 O 0.94157 0.87712 0.48846 0.0
C699 C 0.06017 0.94018 0.60402 0.0
O700 O 0.95998 0.95394 0.47465 0.0
O701 O 0.07234 0.05055 0.45919 0.0
O702 O 0.14296 0.05443 0.4684 0.0
C703 C 0.42232 0.11376 0.09497 0.0
C704 C 0.47045 0.1022 0.96233 0.0
C705 C 0.43847 0.91214 0.96624 0.0
Mg706 Mg 0.52024 0.12537 0.04235 0.0
O707 O 0.49172 0.05476 0.04427 0.0
Mg708 Mg 0.425 0.01133 0.02438 0.0
Mg709 Mg 0.52507 0.01249 0.01386 0.0
O710 O 0.55826 0.97 0.9837 0.0
Mg711 Mg 0.52946 0.89956 0.98665 0.0
Mg712 Mg 0.6252 0.01354 1.00307 0.0
C713 C 0.61186 0.11293 0.06127 0.0
C714 C 0.60986 0.0762 0.94366 0.0
O715 O 0.40016 0.06775 0.07478 0.0
O716 O 0.46849 0.14142 0.08849 0.0
O717 O 0.44055 0.05975 0.97468 0.0
O718 O 0.50737 0.13512 0.98226 0.0
O719 O 0.59134 0.14059 0.05974 0.0
O720 O 0.592 0.06429 0.04864 0.0
C721 C 0.43976 0.94833 0.08342 0.0
O722 O 0.48381 0.96136 0.06725 0.0
O723 O 0.41265 0.96333 0.07223 0.0
O724 O 0.64934 0.95648 0.95285 0.0
O725 O 0.5806 0.88285 0.94034 0.0
O726 O 0.61082 0.96562 0.05299 0.0
C727 C 0.62673 0.9102 0.93328 0.0
O728 O 0.54384 0.89034 0.04662 0.0
O729 O 0.4584 0.88417 0.96855 0.0
C730 C 0.5814 0.92331 0.06583 0.0
O731 O 0.45844 0.96075 0.97898 0.0
O732 O 0.566 0.0635 0.96023 0.0
O733 O 0.63695 0.06111 0.95478 0.0
C734 C 0.92985 0.6161 0.09747 0.0
C735 C 0.98293 0.61472 0.96974 0.0
C736 C 0.93299 0.41699 0.95548 0.0
Mg737 Mg 0.02758 0.62199 0.04958 0.0
O738 O 0.99254 0.55052 0.04566 0.0
Mg739 Mg 0.92674 0.51498 0.02277 0.0
Mg740 Mg 1.02219 0.50626 0.01217 0.0
O741 O 0.05207 0.46247 0.97816 0.0
Mg742 Mg 1.01848 0.39128 0.96795 0.0
Mg743 Mg 0.1181 0.49681 0.9998 0.0
C744 C 0.11166 0.59571 0.06683 0.0
C745 C 0.11153 0.57168 0.94564 0.0
O746 O 0.90639 0.57207 0.07493 0.0
O747 O 0.97658 0.64064 0.09444 0.0
O748 O 0.94887 0.57107 0.97704 0.0
O749 O 1.01967 0.64042 0.9917 0.0
O750 O 0.09529 0.62788 0.06808 0.0
O751 O 0.08881 0.54827 0.05029 0.0
C752 C 0.93202 0.44084 0.07849 0.0
O753 O 0.97552 0.45118 0.0619 0.0
O754 O 0.90782 0.46009 0.0682 0.0
O755 O 0.13945 0.44215 0.94605 0.0
O756 O 0.07047 0.37574 0.92192 0.0
O757 O 0.09707 0.43575 0.04214 0.0
C758 C 0.11711 0.39987 0.92116 0.0
O759 O 0.02701 0.36805 0.02217 0.0
O760 O 0.94989 0.38482 0.95154 0.0
C761 C 0.06351 0.38994 0.04444 0.0
O762 O 0.95564 0.46346 0.97401 0.0
O763 O 0.06852 0.5619 0.96302 0.0
O764 O 0.13608 0.55235 0.95502 0.0
C765 C 0.4519 0.61136 0.03841 0.0
C766 C 0.47979 0.57036 0.92517 0.0
C767 C 0.45024 0.4006 0.96195 0.0
Mg768 Mg 0.53291 0.61667 1.00928 0.0
O769 O 0.48625 0.5488 0.02746 0.0
Mg770 Mg 0.42018 0.4908 0.99894 0.0
Mg771 Mg 0.52426 0.50859 0.01507 0.0
O772 O 0.56099 0.46815 1.0013 0.0
Mg773 Mg 0.52486 0.40296 0.01677 0.0
Mg774 Mg 0.62079 0.51755 0.031 0.0
C775 C 0.60749 0.61728 0.06128 0.0
C776 C 0.62113 0.56585 0.94956 0.0
O777 O 0.45592 0.57053 0.03683 0.0
O778 O 0.49097 0.6535 0.04139 0.0
O779 O 0.44667 0.53241 0.94231 0.0
O780 O 0.51735 0.6057 0.94371 0.0
O781 O 0.59733 0.64363 0.04258 0.0
O782 O 0.58349 0.56847 0.0564 0.0
C783 C 0.42685 0.44806 0.08042 0.0
O784 O 0.4731 0.4649 0.07107 0.0
O785 O 0.40074 0.4534 0.05789 0.0
O786 O 0.6508 0.45819 1.00728 0.0
O787 O 0.5816 0.38317 1.00002 0.0
O788 O 0.59206 0.47884 0.08941 0.0
C789 C 0.62785 0.40891 1.00093 0.0
O790 O 0.5221 0.40634 0.08359 0.0
O791 O 0.46563 0.37473 0.97594 0.0
C792 C 0.55735 0.44054 0.10482 0.0
O793 O 0.46714 0.4492 0.97361 0.0
O794 O 0.57547 0.55207 0.95989 0.0
O795 O 0.64574 0.55609 0.97055 0.0
C796 C 0.92303 0.61295 0.59622 0.0
C797 C 0.96907 0.60209 0.46343 0.0
C798 C 0.93767 0.41177 0.46631 0.0
Mg799 Mg 1.02042 0.62418 0.54268 0.0
O800 O 0.99129 0.55352 0.54462 0.0
Mg801 Mg 0.92448 0.51061 0.52481 0.0
Mg802 Mg 0.0246 0.51128 0.51417 0.0
O803 O 0.05769 0.46877 0.48391 0.0
Mg804 Mg 0.02826 0.39811 0.48612 0.0
Mg805 Mg 0.12409 0.51114 0.5046 0.0
C806 C 0.11027 0.60978 0.564 0.0
C807 C 0.11155 0.57685 0.4459 0.0
O808 O 0.90033 0.56702 0.57604 0.0
O809 O 0.96917 0.64031 0.58928 0.0
O810 O 0.93944 0.55962 0.47583 0.0
O811 O 1.00663 0.63464 0.48283 0.0
O812 O 0.09064 0.63803 0.56159 0.0
O813 O 0.09056 0.56138 0.55043 0.0
C814 C 0.93849 0.44574 0.58251 0.0
O815 O 0.98253 0.45881 0.56642 0.0
O816 O 0.91172 0.46152 0.57187 0.0
O817 O 0.14835 0.45466 0.45375 0.0
O818 O 0.0794 0.38175 0.43974 0.0
O819 O 0.10839 0.46161 0.55379 0.0
C820 C 0.12564 0.40892 0.43328 0.0
O821 O 0.04106 0.38684 0.5458 0.0
O822 O 0.95754 0.38369 0.46843 0.0
C823 C 0.07832 0.41891 0.56567 0.0
O824 O 0.95801 0.46048 0.47863 0.0
O825 O 0.06731 0.56411 0.4615 0.0
O826 O 0.13737 0.56037 0.45728 0.0
C827 C 0.43057 0.11665 0.59774 0.0
C828 C 0.47884 0.10935 0.46944 0.0
C829 C 0.43546 0.91392 0.45957 0.0
Mg830 Mg 0.52798 0.12357 0.54857 0.0
O831 O 0.49483 0.05211 0.54597 0.0
Mg832 Mg 0.42791 0.01339 0.5256 0.0
Mg833 Mg 0.525 1.00843 0.51226 0.0
O834 O 0.55548 0.96487 0.47867 0.0
Mg835 Mg 0.52363 0.8934 0.47469 0.0
Mg836 Mg 0.62257 1.0037 0.49866 0.0
C837 C 0.61491 0.10177 0.56454 0.0
C838 C 0.61005 0.07258 0.44227 0.0
O839 O 0.40744 0.0715 0.57662 0.0
O840 O 0.47719 0.14221 0.59366 0.0
O841 O 0.44622 0.06587 0.47834 0.0
O842 O 0.51627 0.13762 0.49028 0.0
O843 O 0.5974 0.13317 0.56677 0.0
O844 O 0.59274 0.05461 0.54763 0.0
C845 C 0.43995 0.94546 0.58239 0.0
O846 O 0.48248 0.95527 0.5637 0.0
O847 O 0.41367 0.96291 0.57325 0.0
O848 O 0.64407 0.9477 0.44685 0.0
O849 O 0.57484 0.87722 0.42837 0.0
O850 O 0.60527 0.94981 0.54564 0.0
C851 C 0.62142 0.90334 0.42459 0.0
O852 O 0.53612 0.87765 0.53191 0.0
O853 O 0.45375 0.8832 0.45737 0.0
C854 C 0.57324 0.90535 0.55324 0.0
O855 O 0.45695 0.96121 0.47683 0.0
O856 O 0.56752 0.06244 0.4611 0.0
O857 O 0.63621 0.05479 0.45119 0.0
C858 C 0.21795 0.1438 0.37074 0.0
C859 C 0.19265 0.15694 0.34817 0.0
H860 H 0.21482 0.10516 0.41966 0.0
C861 C 0.14202 0.13752 0.35785 0.0
H862 H 0.25688 0.15783 0.36444 0.0
C863 C 0.1175 0.1056 0.38869 0.0
C864 C 0.14299 0.09399 0.41234 0.0
H865 H 0.12106 0.14712 0.34182 0.0
H866 H 0.07853 0.0902 0.39401 0.0
C867 C 0.19362 0.11323 0.4025 0.0
C868 C 0.92803 0.12196 0.36191 0.0
C869 C 0.90846 0.07842 0.33101 0.0
H870 H 0.96969 0.15711 0.41555 0.0
C871 C 0.92448 0.04132 0.32632 0.0
H872 H 0.91686 0.15156 0.3668 0.0
C873 C 0.95324 0.04367 0.35543 0.0
C874 C 0.96877 0.08468 0.38853 0.0
H875 H 0.9121 0.00869 0.30173 0.0
H876 H 0.96022 0.01155 0.35397 0.0
C877 C 0.95853 0.12533 0.39001 0.0
C878 C 0.87474 0.80941 0.37471 0.0
C879 C 0.85992 0.83676 0.35602 0.0
H880 H 0.9084 0.80881 0.42557 0.0
C881 C 0.8666 0.88549 0.37654 0.0
H882 H 0.87022 0.77185 0.35982 0.0
C883 C 0.8887 0.90684 0.41439 0.0
C884 C 0.90424 0.87984 0.43273 0.0
H885 H 0.85488 0.90731 0.36338 0.0
H886 H 0.89408 0.94468 0.42898 0.0
C887 C 0.8962 0.83048 0.41277 0.0
C888 C 0.13799 0.81849 0.49952 0.0
C889 C 0.16491 0.82869 0.46053 0.0
H890 H 0.08435 0.83294 0.54181 0.0
C891 C 0.18768 0.88061 0.45456 0.0
H892 H 0.12635 0.78263 0.51028 0.0
C893 C 0.16369 0.90987 0.47209 0.0
C894 C 0.12174 0.88856 0.49901 0.0
H895 H 0.21648 0.89496 0.43007 0.0
H896 H 0.17278 0.94385 0.45927 0.0
C897 C 0.11423 0.84765 0.51805 0.0
C898 C 0.04485 0.87177 0.69387 0.0
C899 C 0.09149 0.89974 0.70858 0.0
H900 H 0.99803 0.86266 0.64923 0.0
C901 C 0.12543 0.94419 0.69201 0.0
H902 H 1.01797 0.83735 0.70624 0.0
C903 C 0.11386 0.95915 0.65995 0.0
C904 C 0.06825 0.92956 0.64328 0.0
H905 H 0.16128 0.967 0.70341 0.0
H906 H 0.14158 0.99288 0.64714 0.0
C907 C 0.03339 0.88642 0.66136 0.0
C908 C 0.18031 0.13296 0.64989 0.0
C909 C 0.18965 0.18292 0.66906 0.0
H910 H 0.14827 0.07173 0.59988 0.0
C911 C 0.17536 0.21046 0.65003 0.0
H912 H 0.19168 0.11097 0.6632 0.0
C913 C 0.1515 0.18828 0.61319 0.0
C914 C 0.14057 0.13767 0.59479 0.0
H915 H 0.18212 0.24906 0.66371 0.0
H916 H 0.13978 0.21021 0.60019 0.0
C917 C 0.15581 0.11053 0.61329 0.0
C918 C 0.90938 0.19991 0.5239 0.0
C919 C 0.8785 0.19104 0.56117 0.0
H920 H 0.96523 0.18368 0.48841 0.0
C921 C 0.85273 0.13934 0.56772 0.0
H922 H 0.92436 0.23569 0.51203 0.0
C923 C 0.87668 0.10913 0.55516 0.0
C924 C 0.92118 0.1289 0.53088 0.0
H925 H 0.8216 0.12697 0.59068 0.0
H926 H 0.86486 0.07565 0.56973 0.0
C927 C 0.93267 0.16954 0.50969 0.0
C928 C 0.82561 0.87206 0.66015 0.0
C929 C 0.85204 0.86151 0.68376 0.0
H930 H 0.82708 0.90785 0.60981 0.0
C931 C 0.90289 0.8833 0.67481 0.0
H932 H 0.78645 0.85614 0.66582 0.0
C933 C 0.92651 0.91517 0.64389 0.0
C934 C 0.89998 0.92364 0.61887 0.0
H935 H 0.92474 0.87549 0.69128 0.0
H936 H 0.96566 0.93313 0.63969 0.0
C937 C 0.84909 0.90208 0.62794 0.0
C938 C 0.39385 0.21205 0.17379 0.0
C939 C 0.34389 0.1844 0.18571 0.0
H940 H 0.45713 0.21205 0.13706 0.0
C941 C 0.31958 0.1324 0.16761 0.0
H942 H 0.41406 0.25216 0.18647 0.0
C943 C 0.34442 0.10915 0.13819 0.0
C944 C 0.39453 0.13706 0.12641 0.0
H945 H 0.28134 0.10944 0.17632 0.0
H946 H 0.32436 0.06926 0.12486 0.0
C947 C 0.41869 0.18883 0.14501 0.0
C948 C 0.83541 0.35903 0.15524 0.0
C949 C 0.86314 0.35252 0.18016 0.0
H950 H 0.8353 0.39123 0.10336 0.0
C951 C 0.9138 0.37407 0.17103 0.0
H952 H 0.79629 0.34296 0.16184 0.0
C953 C 0.93644 0.40093 0.13686 0.0
C954 C 0.90873 0.40791 0.11197 0.0
H955 H 0.93596 0.37131 0.19093 0.0
H956 H 0.97566 0.41767 0.13086 0.0
C957 C 0.8579 0.38652 0.12166 0.0
C958 C 0.65253 0.953 0.15513 0.0
C959 C 0.67346 0.91988 0.141 0.0
H960 H 0.60402 0.97834 0.14274 0.0
C961 C 0.6521 0.87817 0.10916 0.0
H962 H 0.66783 0.98507 0.18 0.0
C963 C 0.61467 0.8738 0.08822 0.0
C964 C 0.59838 0.91111 0.09893 0.0
H965 H 0.66754 0.8521 0.09762 0.0
H966 H 0.60294 0.84513 0.0605 0.0
C967 C 0.61545 0.94871 0.13424 0.0
C968 C 0.16786 0.60785 0.1633 0.0
C969 C 0.20899 0.65589 0.16328 0.0
H970 H 0.10613 0.54965 0.13099 0.0
C971 C 0.22262 0.67981 0.12744 0.0
H972 H 0.15635 0.58904 0.1908 0.0
C973 C 0.19283 0.65833 0.09391 0.0
C974 C 0.15021 0.61146 0.0949 0.0
H975 H 0.25378 0.71727 0.12703 0.0
H976 H 0.20153 0.67973 0.06843 0.0
C977 C 0.13929 0.58531 0.12901 0.0
C978 C 0.37693 0.89518 0.87213 0.0
C979 C 0.34962 0.84169 0.86433 0.0
H980 H 0.42479 0.96011 0.91242 0.0
C981 C 0.34476 0.81288 0.8948 0.0
H982 H 0.38183 0.91828 0.84897 0.0
C983 C 0.36986 0.8367 0.93085 0.0
C984 C 0.39988 0.88981 0.93728 0.0
H985 H 0.32321 0.7716 0.88992 0.0
H986 H 0.36827 0.81322 0.95236 0.0
C987 C 0.40129 0.91916 0.90866 0.0
C988 C 0.22263 0.38117 0.85678 0.0
C989 C 0.20022 0.32815 0.84172 0.0
H990 H 0.21444 0.44534 0.89346 0.0
C991 C 0.15023 0.29933 0.85261 0.0
H992 H 0.26111 0.40473 0.84919 0.0
C993 C 0.12333 0.32288 0.87754 0.0
C994 C 0.14573 0.37584 0.8928 0.0
H995 H 0.13167 0.25856 0.84158 0.0
H996 H 0.08495 0.29925 0.88543 0.0
C997 C 0.19586 0.4046 0.88223 0.0
C998 C 0.70828 0.18119 0.88771 0.0
C999 C 0.68784 0.17483 0.85082 0.0
H1000 H 0.69883 0.15604 0.94614 0.0
C1001 C 0.63949 0.13679 0.84542 0.0
H1002 H 0.74558 0.20913 0.89265 0.0
C1003 C 0.61217 0.10596 0.87664 0.0
C1004 C 0.63329 0.11251 0.91324 0.0
H1005 H 0.62308 0.13035 0.81688 0.0
H1006 H 0.57548 0.07603 0.87151 0.0
C1007 C 0.68139 0.15065 0.91846 0.0
C1008 C 0.97529 0.71076 0.91842 0.0
C1009 C 0.95899 0.68203 0.87925 0.0
H1010 H 0.99603 0.71171 0.97772 0.0
C1011 C 0.94922 0.63044 0.87055 0.0
H1012 H 0.98284 0.7505 0.92597 0.0
C1013 C 0.9569 0.6084 0.90007 0.0
C1014 C 0.97568 0.63799 0.93827 0.0
H1015 H 0.93581 0.60726 0.84088 0.0
H1016 H 0.94921 0.56861 0.89268 0.0
C1017 C 0.98348 0.68885 0.9477 0.0
C1018 C 0.10587 0.34477 0.12184 0.0
C1019 C 0.08281 0.29149 0.10823 0.0
H1020 H 0.11691 0.41828 0.1128 0.0
C1021 C 0.05931 0.27256 0.07097 0.0
H1022 H 0.12471 0.36048 0.15026 0.0
C1023 C 0.0539 0.30504 0.05045 0.0
C1024 C 0.07209 0.35744 0.06644 0.0
H1025 H 0.04258 0.23195 0.05895 0.0
H1026 H 0.03404 0.28858 0.02258 0.0
C1027 C 0.10075 0.37768 0.10085 0.0
C1028 C 0.17666 0.68691 0.88929 0.0
C1029 C 0.18889 0.6655 0.84899 0.0
H1030 H 0.14037 0.67367 0.95097 0.0
C1031 C 0.17292 0.61241 0.84062 0.0
H1032 H 0.19017 0.72782 0.89763 0.0
C1033 C 0.14607 0.58184 0.8718 0.0
C1034 C 0.13346 0.60332 0.9117 0.0
H1035 H 0.18179 0.59449 0.8102 0.0
H1036 H 0.13572 0.54133 0.86494 0.0
C1037 C 0.14839 0.65602 0.92005 0.0
C1038 C 0.40579 0.07237 0.86889 0.0
C1039 C 0.38287 0.10374 0.88186 0.0
H1040 H 0.4542 0.04882 0.88434 0.0
C1041 C 0.40128 0.14501 0.91469 0.0
H1042 H 0.39304 0.04092 0.84313 0.0
C1043 C 0.43748 0.15032 0.9377 0.0
C1044 C 0.45526 0.11428 0.92814 0.0
H1045 H 0.38438 0.16986 0.92531 0.0
H1046 H 0.44692 0.17846 0.96596 0.0
C1047 C 0.44136 0.07734 0.89203 0.0
C1048 C 0.81978 0.3342 0.8976 0.0
C1049 C 0.83081 0.36038 0.86358 0.0
H1050 H 0.84439 0.33133 0.95371 0.0
C1051 C 0.87062 0.40955 0.86474 0.0
H1052 H 0.78972 0.2961 0.89713 0.0
C1053 C 0.90062 0.43082 0.89805 0.0
C1054 C 0.89256 0.40232 0.92983 0.0
H1055 H 0.88035 0.43016 0.83853 0.0
H1056 H 0.93287 0.46738 0.89667 0.0
C1057 C 0.851 0.35445 0.93001 0.0
C1058 C 0.72872 0.88852 0.86226 0.0
C1059 C 0.70357 0.83663 0.84416 0.0
H1060 H 0.72504 0.95251 0.9045 0.0
C1061 C 0.65327 0.81021 0.85519 0.0
H1062 H 0.7673 0.91055 0.85416 0.0
C1063 C 0.62892 0.83444 0.88333 0.0
C1064 C 0.65393 0.88604 0.9021 0.0
H1065 H 0.63244 0.77022 0.84249 0.0
H1066 H 0.5902 0.8121 0.89074 0.0
C1067 C 0.70434 0.9128 0.89101 0.0
C1068 C 0.90016 0.71827 0.16773 0.0
C1069 C 0.85081 0.68993 0.18105 0.0
H1070 H 0.9636 0.71745 0.13157 0.0
C1071 C 0.82757 0.63675 0.16671 0.0
H1072 H 0.91941 0.75909 0.17828 0.0
C1073 C 0.85291 0.61271 0.13965 0.0
C1074 C 0.90243 0.64101 0.12664 0.0
H1075 H 0.78953 0.61354 0.17614 0.0
H1076 H 0.83374 0.57184 0.12918 0.0
C1077 C 0.92564 0.69415 0.14113 0.0
C1078 C 0.40757 0.88768 0.1816 0.0
C1079 C 0.36004 0.84835 0.17454 0.0
H1080 H 0.47135 0.95023 0.15744 0.0
C1081 C 0.34139 0.84051 0.13633 0.0
H1082 H 0.42273 0.89472 0.21097 0.0
C1083 C 0.36902 0.87168 0.10613 0.0
C1084 C 0.41605 0.9115 0.11324 0.0
H1085 H 0.30505 0.81067 0.12988 0.0
H1086 H 0.35304 0.86541 0.07735 0.0
C1087 C 0.43553 0.91911 0.15101 0.0
C1088 C 0.68033 0.13116 0.15104 0.0
C1089 C 0.70542 0.18484 0.15972 0.0
H1090 H 0.63228 0.06569 0.11126 0.0
C1091 C 0.70707 0.21359 0.13055 0.0
H1092 H 0.67852 0.10796 0.17289 0.0
C1093 C 0.68057 0.18944 0.09534 0.0
C1094 C 0.65213 0.13607 0.08854 0.0
H1095 H 0.72695 0.25499 0.1359 0.0
H1096 H 0.67968 0.21279 0.075 0.0
C1097 C 0.65425 0.1069 0.11546 0.0
C1098 C 0.7216 0.64503 0.87156 0.0
C1099 C 0.69651 0.65896 0.84939 0.0
H1100 H 0.71822 0.60563 0.92017 0.0
C1101 C 0.64607 0.64042 0.85972 0.0
H1102 H 0.76044 0.65852 0.86487 0.0
C1103 C 0.62156 0.6087 0.89072 0.0
C1104 C 0.64674 0.59601 0.91381 0.0
H1105 H 0.6253 0.65091 0.84437 0.0
H1106 H 0.58277 0.59449 0.89675 0.0
C1107 C 0.69722 0.61441 0.9034 0.0
C1108 C 0.40645 0.53458 0.8356 0.0
C1109 C 0.40398 0.58007 0.83737 0.0
H1110 H 0.43539 0.49644 0.86103 0.0
C1111 C 0.43764 0.62552 0.86004 0.0
H1112 H 0.38181 0.49937 0.81757 0.0
C1113 C 0.46911 0.62409 0.88445 0.0
C1114 C 0.46687 0.57715 0.88674 0.0
H1115 H 0.4368 0.66131 0.86186 0.0
H1116 H 0.49092 0.6585 0.90506 0.0
C1117 C 0.43768 0.53313 0.85994 0.0
C1118 C 0.38443 0.30552 0.86916 0.0
C1119 C 0.36593 0.33232 0.85403 0.0
H1120 H 0.42457 0.30541 0.9154 0.0
C1121 C 0.37191 0.3799 0.87676 0.0
H1122 H 0.38026 0.26862 0.85261 0.0
C1123 C 0.39691 0.40076 0.9131 0.0
C1124 C 0.4169 0.3749 0.92759 0.0
H1125 H 0.35716 0.4011 0.8666 0.0
H1126 H 0.40104 0.4375 0.92943 0.0
C1127 C 0.40954 0.3265 0.9055 0.0
C1128 C 0.62527 0.2867 0.98086 0.0
C1129 C 0.65302 0.29364 0.94206 0.0
H1130 H 0.59872 0.32358 0.0343 0.0
C1131 C 0.69355 0.34231 0.93898 0.0
H1132 H 0.59631 0.24959 0.98675 0.0
C1133 C 0.69175 0.38539 0.96403 0.0
C1134 C 0.65323 0.37787 0.99504 0.0
H1135 H 0.7197 0.3481 0.91168 0.0
H1136 H 0.71493 0.42274 0.95477 0.0
C1137 C 0.62647 0.32955 1.00819 0.0
C1138 C 0.60932 0.39345 0.16743 0.0
C1139 C 0.62947 0.43677 0.19839 0.0
H1140 H 0.56714 0.35939 0.11402 0.0
C1141 C 0.61256 0.4734 0.20484 0.0
H1142 H 0.62129 0.36435 0.16134 0.0
C1143 C 0.58245 0.471 0.17699 0.0
C1144 C 0.56682 0.43077 0.14338 0.0
H1145 H 0.62574 0.50617 0.22937 0.0
H1146 H 0.57535 0.50306 0.179 0.0
C1147 C 0.57777 0.39026 0.14042 0.0
C1148 C 0.67661 0.71543 0.15053 0.0
C1149 C 0.69216 0.68783 0.16816 0.0
H1150 H 0.63909 0.71546 0.10215 0.0
C1151 C 0.68368 0.63856 0.14781 0.0
H1152 H 0.68253 0.75348 0.1653 0.0
C1153 C 0.65862 0.61668 0.11156 0.0
C1154 C 0.6418 0.64367 0.09458 0.0
H1155 H 0.69601 0.61658 0.16003 0.0
H1156 H 0.65157 0.57817 0.09743 0.0
C1157 C 0.65204 0.69376 0.11399 0.0
C1158 C 0.39366 0.67733 0.01457 0.0
C1159 C 0.36303 0.66931 0.05207 0.0
H1160 H 0.45042 0.66199 0.97978 0.0
C1161 C 0.33936 0.6186 0.06085 0.0
H1162 H 0.40755 0.71221 1.00155 0.0
C1163 C 0.36525 0.59027 0.04995 0.0
C1164 C 0.40945 0.61048 0.02527 0.0
H1165 H 0.30927 0.60703 0.08486 0.0
H1166 H 0.3555 0.55883 0.06646 0.0
C1167 C 0.41836 0.64821 1.00169 0.0
C1168 C 0.32635 0.37353 0.16001 0.0
C1169 C 0.35112 0.36119 0.18382 0.0
H1170 H 0.33008 0.40907 0.10881 0.0
C1171 C 0.40185 0.38052 0.17487 0.0
H1172 H 0.2874 0.35974 0.16584 0.0
C1173 C 0.42679 0.41064 0.14289 0.0
C1174 C 0.40165 0.42036 0.11743 0.0
H1175 H 0.42248 0.37169 0.19192 0.0
H1176 H 0.46571 0.42584 0.13801 0.0
C1177 C 0.35105 0.402 0.12706 0.0
C1178 C 0.82158 0.63316 0.66959 0.0
C1179 C 0.84663 0.68496 0.68794 0.0
H1180 H 0.82514 0.56977 0.62628 0.0
C1181 C 0.89678 0.7118 0.67639 0.0
H1182 H 0.78318 0.61077 0.67816 0.0
C1183 C 0.92098 0.6881 0.64733 0.0
C1184 C 0.89599 0.63662 0.62821 0.0
H1185 H 0.91756 0.75171 0.68933 0.0
H1186 H 0.95956 0.71075 0.6395 0.0
C1187 C 0.84579 0.60942 0.63993 0.0
C1188 C 0.38855 0.90732 0.68942 0.0
C1189 C 0.361 0.854 0.67921 0.0
H1190 H 0.43632 0.9782 0.66624 0.0
C1191 C 0.36337 0.83101 0.63704 0.0
H1192 H 0.38746 0.92623 0.72151 0.0
C1193 C 0.39259 0.86052 0.60583 0.0
C1194 C 0.41935 0.91371 0.61602 0.0
H1195 H 0.3417 0.79023 0.62788 0.0
H1196 H 0.39245 0.84205 0.57344 0.0
C1197 C 0.41714 0.93693 0.658 0.0
C1198 C 0.13833 0.44425 0.66149 0.0
C1199 C 0.16413 0.41574 0.64781 0.0
H1200 H 0.08851 0.46608 0.64605 0.0
C1201 C 0.14969 0.37739 0.61241 0.0
H1202 H 0.14799 0.47345 0.68907 0.0
C1203 C 0.11447 0.37233 0.58828 0.0
C1204 C 0.09342 0.40558 0.59927 0.0
H1205 H 0.16888 0.35485 0.60105 0.0
H1206 H 0.10808 0.34673 0.55853 0.0
C1207 C 0.10362 0.43948 0.63729 0.0
C1208 C 0.66709 0.11277 0.66263 0.0
C1209 C 0.71035 0.15883 0.66182 0.0
H1210 H 0.6042 0.05717 0.63072 0.0
C1211 C 0.72669 0.18116 0.62496 0.0
H1212 H 0.65365 0.09513 0.69084 0.0
C1213 C 0.6972 0.16086 0.59126 0.0
C1214 C 0.65239 0.11645 0.59323 0.0
H1215 H 0.75976 0.21697 0.62387 0.0
H1216 H 0.70802 0.18137 0.56485 0.0
C1217 C 0.63888 0.09116 0.62825 0.0
C1218 C 0.86986 0.39362 0.37606 0.0
C1219 C 0.84475 0.33994 0.36744 0.0
H1220 H 0.91784 0.45912 0.41588 0.0
C1221 C 0.84267 0.31124 0.39686 0.0
H1222 H 0.87198 0.41676 0.35402 0.0
C1223 C 0.8689 0.33543 0.43221 0.0
C1224 C 0.89756 0.38878 0.43887 0.0
H1225 H 0.82264 0.26983 0.3916 0.0
H1226 H 0.86947 0.3121 0.45275 0.0
C1227 C 0.89575 0.41792 0.41175 0.0
C1228 C 0.65369 0.80423 0.35264 0.0
C1229 C 0.70335 0.83337 0.34085 0.0
H1230 H 0.58913 0.80315 0.38775 0.0
C1231 C 0.72588 0.88624 0.3563 0.0
H1232 H 0.63492 0.76367 0.34092 0.0
C1233 C 0.69951 0.90915 0.38325 0.0
C1234 C 0.64975 0.87991 0.39505 0.0
H1235 H 0.76412 0.90996 0.34793 0.0
H1236 H 0.71812 0.94981 0.39474 0.0
C1237 C 0.62726 0.82714 0.37924 0.0
C1238 C 0.14036 0.64452 0.35144 0.0
C1239 C 0.19146 0.67347 0.35133 0.0
H1240 H 0.074 0.59153 0.38214 0.0
C1241 C 0.21416 0.67329 0.38437 0.0
H1242 H 0.1217 0.64385 0.32638 0.0
C1243 C 0.18721 0.64378 0.41574 0.0
C1244 C 0.13652 0.61327 0.4153 0.0
H1245 H 0.25316 0.69521 0.38579 0.0
H1246 H 0.20658 0.64399 0.44009 0.0
C1247 C 0.11297 0.61478 0.38339 0.0
C1248 C 0.44086 0.1171 0.36971 0.0
C1249 C 0.44258 0.16566 0.37886 0.0
H1250 H 0.45261 0.06197 0.39101 0.0
C1251 C 0.45392 0.19424 0.41926 0.0
H1252 H 0.43033 0.09313 0.33966 0.0
C1253 C 0.46643 0.1761 0.44862 0.0
C1254 C 0.46825 0.12946 0.43792 0.0
H1255 H 0.45565 0.23175 0.42761 0.0
H1256 H 0.4757 0.199 0.47928 0.0
C1257 C 0.45367 0.09924 0.39895 0.0
C1258 C 0.6086 0.89422 0.65358 0.0
C1259 C 0.59861 0.8426 0.64661 0.0
H1260 H 0.60827 0.95453 0.62937 0.0
C1261 C 0.58224 0.81242 0.60785 0.0
H1262 H 0.62202 0.9186 0.68287 0.0
C1263 C 0.57438 0.83298 0.57731 0.0
C1264 C 0.58251 0.88402 0.58509 0.0
H1265 H 0.57429 0.77256 0.60158 0.0
H1266 H 0.56108 0.80878 0.54791 0.0
C1267 C 0.60093 0.91483 0.62299 0.0
C1268 C 0.66331 0.18647 0.38448 0.0
C1269 C 0.68256 0.16843 0.3461 0.0
H1270 H 0.62312 0.16962 0.44441 0.0
C1271 C 0.67455 0.11744 0.33909 0.0
H1272 H 0.67001 0.22578 0.39168 0.0
C1273 C 0.64931 0.08601 0.36993 0.0
C1274 C 0.63018 0.10413 0.40812 0.0
H1275 H 0.68905 0.1021 0.31024 0.0
H1276 H 0.64542 0.04756 0.3642 0.0
C1277 C 0.63653 0.15436 0.41484 0.0
C1278 C 0.90148 0.57295 0.37173 0.0
C1279 C 0.87941 0.60507 0.38526 0.0
H1280 H 0.95005 0.5486 0.38566 0.0
C1281 C 0.89886 0.64622 0.41799 0.0
H1282 H 0.88766 0.54135 0.34624 0.0
C1283 C 0.93543 0.65086 0.44025 0.0
C1284 C 0.95278 0.61441 0.42995 0.0
H1285 H 0.88253 0.67153 0.42909 0.0
H1286 H 0.9457 0.67899 0.46845 0.0
C1287 C 0.93772 0.57752 0.39391 0.0
C1288 C 0.32962 0.82508 0.39431 0.0
C1289 C 0.33732 0.85491 0.36376 0.0
H1290 H 0.35511 0.82044 0.44907 0.0
C1291 C 0.37185 0.90678 0.36945 0.0
H1292 H 0.30378 0.78485 0.39021 0.0
C1293 C 0.40003 0.92777 0.40403 0.0
C1294 C 0.39544 0.89669 0.43257 0.0
H1295 H 0.37892 0.93033 0.34596 0.0
H1296 H 0.42849 0.96706 0.40617 0.0
C1297 C 0.35892 0.84551 0.42805 0.0
C1298 C 0.15141 0.3112 0.35127 0.0
C1299 C 0.20221 0.33658 0.34241 0.0
H1300 H 0.08811 0.31347 0.38597 0.0
C1301 C 0.22792 0.38724 0.36298 0.0
H1302 H 0.13003 0.27233 0.33627 0.0
C1303 C 0.20363 0.41116 0.39226 0.0
C1304 C 0.15278 0.38526 0.4015 0.0
H1305 H 0.26692 0.40853 0.35653 0.0
H1306 H 0.22474 0.44984 0.40772 0.0
C1307 C 0.12722 0.33503 0.38015 0.0
C1308 C 0.32781 0.13697 0.66634 0.0
C1309 C 0.35041 0.19036 0.67988 0.0
H1310 H 0.33478 0.07198 0.63003 0.0
C1311 C 0.39944 0.21909 0.66588 0.0
H1312 H 0.28999 0.11344 0.6762 0.0
C1313 C 0.42532 0.19506 0.63973 0.0
C1314 C 0.40279 0.14162 0.62633 0.0
H1315 H 0.41815 0.26012 0.67564 0.0
H1316 H 0.46307 0.21861 0.62974 0.0
C1317 C 0.3535 0.11303 0.63975 0.0
C1318 C 0.90425 0.38529 0.68077 0.0
C1319 C 0.85669 0.34635 0.67335 0.0
H1320 H 0.96881 0.44729 0.6569 0.0
C1321 C 0.83915 0.33787 0.63446 0.0
H1322 H 0.91868 0.39272 0.71059 0.0
C1323 C 0.86769 0.3685 0.60411 0.0
C1324 C 0.91453 0.40834 0.6118 0.0
H1325 H 0.80281 0.30834 0.62771 0.0
H1326 H 0.85238 0.36216 0.57495 0.0
C1327 C 0.9331 0.41617 0.65008 0.0
C1328 C 0.19978 0.70721 0.63928 0.0
C1329 C 0.19633 0.67687 0.66792 0.0
H1330 H 0.1767 0.70934 0.58252 0.0
C1331 C 0.17223 0.62337 0.6573 0.0
H1332 H 0.21952 0.7486 0.6459 0.0
C1333 C 0.14844 0.60077 0.62026 0.0
C1334 C 0.14819 0.63149 0.59365 0.0
H1335 H 0.16966 0.59913 0.67854 0.0
H1336 H 0.127 0.55951 0.61439 0.0
C1337 C 0.17598 0.68477 0.60256 0.0
loop_
_geom_bond_atom_site_label_1
_geom_bond_atom_site_label_2
_geom_bond_distance
_geom_bond_site_symmetry_2
_ccdc_geom_bond_type
Eu0 N29 2.600 . S
Eu0 N35 2.562 . S
Eu0 O44 2.462 . S
Eu0 O45 2.373 . S
Eu0 O47 2.432 . S
Eu0 O48 2.291 . S
Eu0 O52 2.335 . S
Eu0 O55 2.372 . S
Eu0 C64 2.787 . S
C1 N2 1.365 . S
C1 C4 1.405 . S
C1 C8 1.448 . S
N2 C1 1.365 . S
N2 C5 1.319 . S
N2 Eu11 2.600 . S
C3 C5 1.397 . S
C3 C6 1.367 . S
C3 H23 0.931 . S
C4 C1 1.405 . S
C4 C6 1.403 . S
C4 C10 1.439 . S
C5 N2 1.319 . S
C5 C3 1.397 . S
C5 H16 0.930 . S
C6 C3 1.367 . S
C6 C4 1.403 . S
C6 H27 0.929 . S
C7 C8 1.430 . S
C7 C9 1.387 . S
C7 C13 1.404 . S
C8 C1 1.448 . S
C8 C7 1.430 . S
C8 N12 1.351 . S
C9 C7 1.387 . S
C9 C10 1.374 . S
C9 H24 0.931 . S
C10 C4 1.439 . S
C10 C9 1.374 . S
C10 H25 0.931 . S
Eu11 N2 2.600 . S
Eu11 N12 2.562 . S
Eu11 O46 2.335 . S
Eu11 O49 2.372 . S
Eu11 O50 2.462 . S
Eu11 O51 2.373 . S
Eu11 O53 2.432 . S
Eu11 O54 2.291 . S
Eu11 C75 2.787 . S
N12 C8 1.351 . S
N12 Eu11 2.562 . S
N12 C14 1.325 . S
C13 C7 1.404 . S
C13 C15 1.366 . S
C13 H21 0.930 . S
C14 N12 1.325 . S
C14 C15 1.416 . S
C14 H20 0.929 . S
C15 C13 1.366 . S
C15 C14 1.416 . S
C15 H17 0.930 . S
H16 C5 0.930 . S
H17 C15 0.930 . S
H18 C33 0.930 . S
H19 C40 0.930 . S
H20 C14 0.929 . S
H21 C13 0.930 . S
H22 C36 0.929 . S
H23 C3 0.931 . S
H24 C9 0.931 . S
H25 C10 0.931 . S
H26 C31 0.931 . S
H27 C6 0.929 . S
H28 C39 0.930 . S
N29 Eu0 2.600 . S
N29 C30 1.365 . S
N29 C33 1.319 . S
C30 N29 1.365 . S
C30 C32 1.405 . S
C30 C38 1.448 . S
C31 H26 0.931 . S
C31 C33 1.397 . S
C31 C34 1.367 . S
C32 C30 1.405 . S
C32 C34 1.403 . S
C32 C65 1.439 . S
C33 H18 0.930 . S
C33 N29 1.319 . S
C33 C31 1.397 . S
C34 C31 1.367 . S
C34 C32 1.403 . S
C34 H41 0.929 1_545 S
N35 Eu0 2.562 . S
N35 C36 1.325 . S
N35 C38 1.351 . S
C36 H22 0.929 . S
C36 N35 1.325 . S
C36 C40 1.416 . S
C37 C38 1.430 . S
C37 C39 1.404 . S
C37 C66 1.387 . S
C38 C30 1.448 . S
C38 N35 1.351 . S
C38 C37 1.430 . S
C39 H28 0.930 . S
C39 C37 1.404 . S
C39 C40 1.366 . S
C40 H19 0.930 . S
C40 C36 1.416 . S
C40 C39 1.366 . S
H41 C34 0.929 1_565 S
H42 C65 0.931 . S
H43 C66 0.931 . S
O44 Eu0 2.462 . S
O44 C64 1.252 . S
O45 Eu0 2.373 . S
O45 C56 1.249 . S
O46 Eu11 2.335 . S
O46 C56 1.264 . S
O47 Eu0 2.432 . S
O47 C64 1.268 . S
O48 Eu0 2.291 . S
O48 C63 1.255 . S
O49 Eu11 2.372 . S
O49 C63 1.257 . S
O50 Eu11 2.462 . S
O50 C75 1.252 . S
O51 Eu11 2.373 . S
O51 C67 1.249 . S
O52 Eu0 2.335 . S
O52 C67 1.264 . S
O53 Eu11 2.432 . S
O53 C75 1.268 . S
O54 Eu11 2.291 . S
O54 C74 1.255 . S
O55 Eu0 2.372 . S
O55 C74 1.257 . S
C56 O45 1.249 . S
C56 O46 1.264 . S
C57 C60 1.382 . S
C57 C62 1.390 . S
C57 C64 1.506 . S
C58 C59 1.398 . S
C58 C62 1.392 . S
C59 C58 1.398 . S
C59 C61 1.372 . S
C59 H76 0.931 . S
C60 C57 1.382 . S
C60 C61 1.390 . S
C60 H77 0.931 . S
C61 C59 1.372 . S
C61 C60 1.390 . S
C61 H78 0.929 1_455 S
C62 C57 1.390 . S
C62 C58 1.392 . S
C62 H79 0.930 . S
C63 O48 1.255 . S
C63 O49 1.257 . S
C64 Eu0 2.787 . S
C64 O44 1.252 . S
C64 O47 1.268 . S
C64 C57 1.506 . S
C65 C32 1.439 . S
C65 H42 0.931 . S
C65 C66 1.374 . S
C66 C37 1.387 . S
C66 H43 0.931 . S
C66 C65 1.374 . S
C67 O51 1.249 . S
C67 O52 1.264 . S
C68 C71 1.382 . S
C68 C72 1.390 . S
C68 C75 1.506 . S
C69 C70 1.398 . S
C69 C72 1.392 . S
C70 C69 1.398 . S
C70 C73 1.372 . S
C70 H80 0.931 . S
C71 C68 1.382 . S
C71 C73 1.390 . S
C71 H81 0.931 . S
C72 C68 1.390 . S
C72 C69 1.392 . S
C72 H82 0.930 . S
C73 C70 1.372 . S
C73 C71 1.390 . S
C73 H83 0.929 . S
C74 O54 1.255 . S
C74 O55 1.257 . S
C75 Eu11 2.787 . S
C75 O50 1.252 . S
C75 O53 1.268 . S
C75 C68 1.506 . S
H76 C59 0.931 . S
H77 C60 0.931 . S
H78 C61 0.929 1_655 S
H79 C62 0.930 . S
H80 C70 0.931 . S
H81 C71 0.931 . S
H82 C72 0.930 . S
H83 C73 0.929 . S
Eu84 N113 2.600 . S
Eu84 N119 2.562 . S
Eu84 O128 2.462 . S
Eu84 O129 2.373 . S
Eu84 O131 2.432 . S
Eu84 O132 2.291 . S
Eu84 O136 2.335 . S
Eu84 O139 2.372 . S
Eu84 C148 2.787 . S
C85 N86 1.365 . S
C85 C88 1.405 . S
C85 C92 1.448 . S
N86 C85 1.365 . S
N86 C89 1.319 . S
N86 Eu95 2.600 . S
C87 C89 1.397 . S
C87 C90 1.367 . S
C87 H107 0.931 . S
C88 C85 1.405 . S
C88 C90 1.403 . S
C88 C94 1.439 . S
C89 N86 1.319 . S
C89 C87 1.397 . S
C89 H100 0.930 . S
C90 C87 1.367 . S
C90 C88 1.403 . S
C90 H111 0.929 . S
C91 C92 1.430 . S
C91 C93 1.387 . S
C91 C97 1.404 . S
C92 C85 1.448 . S
C92 C91 1.430 . S
C92 N96 1.351 . S
C93 C91 1.387 . S
C93 C94 1.374 . S
C93 H108 0.931 . S
C94 C88 1.439 . S
C94 C93 1.374 . S
C94 H109 0.931 . S
Eu95 N86 2.600 . S
Eu95 N96 2.562 . S
Eu95 O130 2.335 . S
Eu95 O133 2.372 . S
Eu95 O134 2.462 . S
Eu95 O135 2.373 . S
Eu95 O137 2.432 . S
Eu95 O138 2.291 . S
Eu95 C159 2.787 . S
N96 C92 1.351 . S
N96 Eu95 2.562 . S
N96 C98 1.325 . S
C97 C91 1.404 . S
C97 C99 1.366 . S
C97 H105 0.930 1_655 S
C98 N96 1.325 . S
C98 C99 1.416 . S
C98 H104 0.929 . S
C99 C97 1.366 . S
C99 C98 1.416 . S
C99 H101 0.930 . S
H100 C89 0.930 . S
H101 C99 0.930 . S
H102 C117 0.930 . S
H103 C124 0.930 . S
H104 C98 0.929 . S
H105 C97 0.930 1_455 S
H106 C120 0.929 . S
H107 C87 0.931 . S
H108 C93 0.931 . S
H109 C94 0.931 . S
H110 C115 0.931 . S
H111 C90 0.929 . S
H112 C123 0.930 . S
N113 Eu84 2.600 . S
N113 C114 1.365 . S
N113 C117 1.319 . S
C114 N113 1.365 . S
C114 C116 1.405 . S
C114 C122 1.448 . S
C115 H110 0.931 . S
C115 C117 1.397 . S
C115 C118 1.367 . S
C116 C114 1.405 . S
C116 C118 1.403 . S
C116 C149 1.439 . S
C117 H102 0.930 . S
C117 N113 1.319 . S
C117 C115 1.397 . S
C118 C115 1.367 . S
C118 C116 1.403 . S
C118 H125 0.929 . S
N119 Eu84 2.562 . S
N119 C120 1.325 . S
N119 C122 1.351 . S
C120 H106 0.929 . S
C120 N119 1.325 . S
C120 C124 1.416 . S
C121 C122 1.430 . S
C121 C123 1.404 . S
C121 C150 1.387 . S
C122 C114 1.448 . S
C122 N119 1.351 . S
C122 C121 1.430 . S
C123 H112 0.930 . S
C123 C121 1.404 . S
C123 C124 1.366 . S
C124 H103 0.930 . S
C124 C120 1.416 . S
C124 C123 1.366 . S
H125 C118 0.929 . S
H126 C149 0.931 . S
H127 C150 0.931 . S
O128 Eu84 2.462 . S
O128 C148 1.252 . S
O129 Eu84 2.373 . S
O129 C140 1.249 . S
O130 Eu95 2.335 . S
O130 C140 1.264 . S
O131 Eu84 2.432 . S
O131 C148 1.268 . S
O132 Eu84 2.291 . S
O132 C147 1.255 . S
O133 Eu95 2.372 . S
O133 C147 1.257 . S
O134 Eu95 2.462 . S
O134 C159 1.252 . S
O135 Eu95 2.373 . S
O135 C151 1.249 . S
O136 Eu84 2.335 . S
O136 C151 1.264 . S
O137 Eu95 2.432 . S
O137 C159 1.268 . S
O138 Eu95 2.291 . S
O138 C158 1.255 . S
O139 Eu84 2.372 . S
O139 C158 1.257 . S
C140 O129 1.249 . S
C140 O130 1.264 . S
C141 C144 1.382 . S
C141 C146 1.390 . S
C141 C148 1.506 . S
C142 C143 1.398 . S
C142 C146 1.392 . S
C143 C142 1.398 . S
C143 C145 1.372 . S
C143 H160 0.931 . S
C144 C141 1.382 . S
C144 C145 1.390 . S
C144 H161 0.931 . S
C145 C143 1.372 . S
C145 C144 1.390 . S
C145 H162 0.929 . S
C146 C141 1.390 . S
C146 C142 1.392 . S
C146 H163 0.930 . S
C147 O132 1.255 . S
C147 O133 1.257 . S
C148 Eu84 2.787 . S
C148 O128 1.252 . S
C148 O131 1.268 . S
C148 C141 1.506 . S
C149 C116 1.439 . S
C149 H126 0.931 . S
C149 C150 1.374 . S
C150 C121 1.387 . S
C150 H127 0.931 . S
C150 C149 1.374 . S
C151 O135 1.249 . S
C151 O136 1.264 . S
C152 C155 1.382 . S
C152 C156 1.390 . S
C152 C159 1.506 . S
C153 C154 1.398 . S
C153 C156 1.392 . S
C154 C153 1.398 . S
C154 C157 1.372 . S
C154 H164 0.931 . S
C155 C152 1.382 . S
C155 C157 1.390 . S
C155 H165 0.931 . S
C156 C152 1.390 . S
C156 C153 1.392 . S
C156 H166 0.930 . S
C157 C154 1.372 . S
C157 C155 1.390 . S
C157 H167 0.929 . S
C158 O138 1.255 . S
C158 O139 1.257 . S
C159 Eu95 2.787 . S
C159 O134 1.252 . S
C159 O137 1.268 . S
C159 C152 1.506 . S
H160 C143 0.931 . S
H161 C144 0.931 . S
H162 C145 0.929 . S
H163 C146 0.930 . S
H164 C154 0.931 . S
H165 C155 0.931 . S
H166 C156 0.930 . S
H167 C157 0.929 . S
Eu168 N197 2.600 . S
Eu168 N203 2.562 . S
Eu168 O212 2.462 . S
Eu168 O213 2.373 . S
Eu168 O215 2.432 . S
Eu168 O216 2.291 . S
Eu168 O220 2.335 . S
Eu168 O223 2.372 . S
Eu168 C232 2.787 . S
C169 N170 1.365 . S
C169 C172 1.405 . S
C169 C176 1.448 . S
N170 C169 1.365 . S
N170 C173 1.319 . S
N170 Eu179 2.600 . S
C171 C173 1.397 . S
C171 C174 1.367 . S
C171 H191 0.931 . S
C172 C169 1.405 . S
C172 C174 1.403 . S
C172 C178 1.439 . S
C173 N170 1.319 . S
C173 C171 1.397 . S
C173 H184 0.930 . S
C174 C171 1.367 . S
C174 C172 1.403 . S
C174 H195 0.929 . S
C175 C176 1.430 . S
C175 C177 1.387 . S
C175 C181 1.404 . S
C176 C169 1.448 . S
C176 C175 1.430 . S
C176 N180 1.351 . S
C177 C175 1.387 . S
C177 C178 1.374 . S
C177 H192 0.931 . S
C178 C172 1.439 . S
C178 C177 1.374 . S
C178 H193 0.931 . S
Eu179 N170 2.600 . S
Eu179 N180 2.562 . S
Eu179 O214 2.335 . S
Eu179 O217 2.372 . S
Eu179 O218 2.462 . S
Eu179 O219 2.373 . S
Eu179 O221 2.432 . S
Eu179 O222 2.291 . S
Eu179 C243 2.787 . S
N180 C176 1.351 . S
N180 Eu179 2.562 . S
N180 C182 1.325 . S
C181 C175 1.404 . S
C181 C183 1.366 . S
C181 H189 0.930 . S
C182 N180 1.325 . S
C182 C183 1.416 . S
C182 H188 0.929 . S
C183 C181 1.366 . S
C183 C182 1.416 . S
C183 H185 0.930 . S
H184 C173 0.930 . S
H185 C183 0.930 . S
H186 C201 0.930 . S
H187 C208 0.930 . S
H188 C182 0.929 . S
H189 C181 0.930 . S
H190 C204 0.929 . S
H191 C171 0.931 . S
H192 C177 0.931 . S
H193 C178 0.931 . S
H194 C199 0.931 . S
H195 C174 0.929 . S
H196 C207 0.930 . S
N197 Eu168 2.600 . S
N197 C198 1.365 . S
N197 C201 1.319 . S
C198 N197 1.365 . S
C198 C200 1.405 . S
C198 C206 1.448 . S
C199 H194 0.931 . S
C199 C201 1.397 . S
C199 C202 1.367 . S
C200 C198 1.405 . S
C200 C202 1.403 . S
C200 C233 1.439 . S
C201 H186 0.930 . S
C201 N197 1.319 . S
C201 C199 1.397 . S
C202 C199 1.367 . S
C202 C200 1.403 . S
C202 H209 0.929 . S
N203 Eu168 2.562 . S
N203 C204 1.325 . S
N203 C206 1.351 . S
C204 H190 0.929 . S
C204 N203 1.325 . S
C204 C208 1.416 . S
C205 C206 1.430 . S
C205 C207 1.404 . S
C205 C234 1.387 . S
C206 C198 1.448 . S
C206 N203 1.351 . S
C206 C205 1.430 . S
C207 H196 0.930 . S
C207 C205 1.404 . S
C207 C208 1.366 . S
C208 H187 0.930 . S
C208 C204 1.416 . S
C208 C207 1.366 . S
H209 C202 0.929 . S
H210 C233 0.931 . S
H211 C234 0.931 . S
O212 Eu168 2.462 . S
O212 C232 1.252 . S
O213 Eu168 2.373 . S
O213 C224 1.249 . S
O214 Eu179 2.335 . S
O214 C224 1.264 . S
O215 Eu168 2.432 . S
O215 C232 1.268 . S
O216 Eu168 2.291 . S
O216 C231 1.255 . S
O217 Eu179 2.372 . S
O217 C231 1.257 . S
O218 Eu179 2.462 . S
O218 C243 1.252 . S
O219 Eu179 2.373 . S
O219 C235 1.249 . S
O220 Eu168 2.335 . S
O220 C235 1.264 . S
O221 Eu179 2.432 . S
O221 C243 1.268 . S
O222 Eu179 2.291 . S
O222 C242 1.255 . S
O223 Eu168 2.372 . S
O223 C242 1.257 . S
C224 O213 1.249 . S
C224 O214 1.264 . S
C225 C228 1.382 . S
C225 C230 1.390 . S
C225 C232 1.506 . S
C226 C227 1.398 . S
C226 C230 1.392 . S
C227 C226 1.398 . S
C227 C229 1.372 . S
C227 H244 0.931 . S
C228 C225 1.382 . S
C228 C229 1.390 . S
C228 H245 0.931 . S
C229 C227 1.372 . S
C229 C228 1.390 . S
C229 H246 0.929 . S
C230 C225 1.390 . S
C230 C226 1.392 . S
C230 H247 0.930 . S
C231 O216 1.255 . S
C231 O217 1.257 . S
C232 Eu168 2.787 . S
C232 O212 1.252 . S
C232 O215 1.268 . S
C232 C225 1.506 . S
C233 C200 1.439 . S
C233 H210 0.931 . S
C233 C234 1.374 . S
C234 C205 1.387 . S
C234 H211 0.931 . S
C234 C233 1.374 . S
C235 O219 1.249 . S
C235 O220 1.264 . S
C236 C239 1.382 . S
C236 C240 1.390 . S
C236 C243 1.506 . S
C237 C238 1.398 . S
C237 C240 1.392 . S
C238 C237 1.398 . S
C238 C241 1.372 . S
C238 H248 0.931 . S
C239 C236 1.382 . S
C239 C241 1.390 . S
C239 H249 0.931 . S
C240 C236 1.390 . S
C240 C237 1.392 . S
C240 H250 0.930 . S
C241 C238 1.372 . S
C241 C239 1.390 . S
C241 H251 0.929 1_565 S
C242 O222 1.255 . S
C242 O223 1.257 . S
C243 Eu179 2.787 . S
C243 O218 1.252 . S
C243 O221 1.268 . S
C243 C236 1.506 . S
H244 C227 0.931 . S
H245 C228 0.931 . S
H246 C229 0.929 . S
H247 C230 0.930 . S
H248 C238 0.931 . S
H249 C239 0.931 . S
H250 C240 0.930 . S
H251 C241 0.929 1_545 S
Eu252 N281 2.600 . S
Eu252 N287 2.562 . S
Eu252 O296 2.462 . S
Eu252 O297 2.373 . S
Eu252 O299 2.432 . S
Eu252 O300 2.291 . S
Eu252 O304 2.335 . S
Eu252 O307 2.372 . S
Eu252 C316 2.787 . S
C253 N254 1.365 . S
C253 C256 1.405 . S
C253 C260 1.448 . S
N254 C253 1.365 . S
N254 C257 1.319 . S
N254 Eu263 2.600 . S
C255 C257 1.397 . S
C255 C258 1.367 . S
C255 H275 0.931 . S
C256 C253 1.405 . S
C256 C258 1.403 . S
C256 C262 1.439 . S
C257 N254 1.319 . S
C257 C255 1.397 . S
C257 H268 0.930 . S
C258 C255 1.367 . S
C258 C256 1.403 . S
C258 H279 0.929 . S
C259 C260 1.430 . S
C259 C261 1.387 . S
C259 C265 1.404 . S
C260 C253 1.448 . S
C260 C259 1.430 . S
C260 N264 1.351 . S
C261 C259 1.387 . S
C261 C262 1.374 . S
C261 H276 0.931 . S
C262 C256 1.439 . S
C262 C261 1.374 . S
C262 H277 0.931 . S
Eu263 N254 2.600 . S
Eu263 N264 2.562 . S
Eu263 O298 2.335 . S
Eu263 O301 2.372 . S
Eu263 O302 2.462 . S
Eu263 O303 2.373 . S
Eu263 O305 2.432 . S
Eu263 O306 2.291 . S
Eu263 C327 2.787 . S
N264 C260 1.351 . S
N264 Eu263 2.562 . S
N264 C266 1.325 . S
C265 C259 1.404 . S
C265 C267 1.366 . S
C265 H273 0.930 . S
C266 N264 1.325 . S
C266 C267 1.416 . S
C266 H272 0.929 . S
C267 C265 1.366 . S
C267 C266 1.416 . S
C267 H269 0.930 . S
H268 C257 0.930 . S
H269 C267 0.930 . S
H270 C285 0.930 . S
H271 C292 0.930 . S
H272 C266 0.929 . S
H273 C265 0.930 . S
H274 C288 0.929 . S
H275 C255 0.931 . S
H276 C261 0.931 . S
H277 C262 0.931 . S
H278 C283 0.931 . S
H279 C258 0.929 . S
H280 C291 0.930 1_545 S
N281 Eu252 2.600 . S
N281 C282 1.365 . S
N281 C285 1.319 . S
C282 N281 1.365 . S
C282 C284 1.405 . S
C282 C290 1.448 . S
C283 H278 0.931 . S
C283 C285 1.397 . S
C283 C286 1.367 . S
C284 C282 1.405 . S
C284 C286 1.403 . S
C284 C317 1.439 . S
C285 H270 0.930 . S
C285 N281 1.319 . S
C285 C283 1.397 . S
C286 C283 1.367 . S
C286 C284 1.403 . S
C286 H293 0.929 . S
N287 Eu252 2.562 . S
N287 C288 1.325 . S
N287 C290 1.351 . S
C288 H274 0.929 . S
C288 N287 1.325 . S
C288 C292 1.416 . S
C289 C290 1.430 . S
C289 C291 1.404 . S
C289 C318 1.387 . S
C290 C282 1.448 . S
C290 N287 1.351 . S
C290 C289 1.430 . S
C291 H280 0.930 1_565 S
C291 C289 1.404 . S
C291 C292 1.366 . S
C292 H271 0.930 . S
C292 C288 1.416 . S
C292 C291 1.366 . S
H293 C286 0.929 . S
H294 C317 0.931 . S
H295 C318 0.931 . S
O296 Eu252 2.462 . S
O296 C316 1.252 . S
O297 Eu252 2.373 . S
O297 C308 1.249 . S
O298 Eu263 2.335 . S
O298 C308 1.264 . S
O299 Eu252 2.432 . S
O299 C316 1.268 . S
O300 Eu252 2.291 . S
O300 C315 1.255 . S
O301 Eu263 2.372 . S
O301 C315 1.257 . S
O302 Eu263 2.462 . S
O302 C327 1.252 . S
O303 Eu263 2.373 . S
O303 C319 1.249 . S
O304 Eu252 2.335 . S
O304 C319 1.264 . S
O305 Eu263 2.432 . S
O305 C327 1.268 . S
O306 Eu263 2.291 . S
O306 C326 1.255 . S
O307 Eu252 2.372 . S
O307 C326 1.257 . S
C308 O297 1.249 . S
C308 O298 1.264 . S
C309 C312 1.382 . S
C309 C314 1.390 . S
C309 C316 1.506 . S
C310 C311 1.398 . S
C310 C314 1.392 . S
C311 C310 1.398 . S
C311 C313 1.372 . S
C311 H328 0.931 . S
C312 C309 1.382 . S
C312 C313 1.390 . S
C312 H329 0.931 . S
C313 C311 1.372 . S
C313 C312 1.390 . S
C313 H330 0.929 . S
C314 C309 1.390 . S
C314 C310 1.392 . S
C314 H331 0.930 . S
C315 O300 1.255 . S
C315 O301 1.257 . S
C316 Eu252 2.787 . S
C316 O296 1.252 . S
C316 O299 1.268 . S
C316 C309 1.506 . S
C317 C284 1.439 . S
C317 H294 0.931 . S
C317 C318 1.374 . S
C318 C289 1.387 . S
C318 H295 0.931 . S
C318 C317 1.374 . S
C319 O303 1.249 . S
C319 O304 1.264 . S
C320 C323 1.382 . S
C320 C324 1.390 . S
C320 C327 1.506 . S
C321 C322 1.398 . S
C321 C324 1.392 . S
C322 C321 1.398 . S
C322 C325 1.372 . S
C322 H332 0.931 . S
C323 C320 1.382 . S
C323 C325 1.390 . S
C323 H333 0.931 . S
C324 C320 1.390 . S
C324 C321 1.392 . S
C324 H334 0.930 . S
C325 C322 1.372 . S
C325 C323 1.390 . S
C325 H335 0.929 . S
C326 O306 1.255 . S
C326 O307 1.257 . S
C327 Eu263 2.787 . S
C327 O302 1.252 . S
C327 O305 1.268 . S
C327 C320 1.506 . S
H328 C311 0.931 . S
H329 C312 0.931 . S
H330 C313 0.929 . S
H331 C314 0.930 . S
H332 C322 0.931 . S
H333 C323 0.931 . S
H334 C324 0.930 . S
H335 C325 0.929 . S
Eu336 N365 2.600 . S
Eu336 N371 2.562 . S
Eu336 O380 2.462 . S
Eu336 O381 2.373 . S
Eu336 O383 2.432 . S
Eu336 O384 2.291 . S
Eu336 O388 2.335 . S
Eu336 O391 2.372 . S
Eu336 C400 2.787 . S
C337 N338 1.365 . S
C337 C340 1.405 . S
C337 C344 1.448 . S
N338 C337 1.365 . S
N338 C341 1.319 . S
N338 Eu347 2.600 . S
C339 C341 1.397 . S
C339 C342 1.367 . S
C339 H359 0.931 . S
C340 C337 1.405 . S
C340 C342 1.403 . S
C340 C346 1.439 . S
C341 N338 1.319 . S
C341 C339 1.397 . S
C341 H352 0.930 . S
C342 C339 1.367 . S
C342 C340 1.403 . S
C342 H363 0.929 . S
C343 C344 1.430 . S
C343 C345 1.387 . S
C343 C349 1.404 . S
C344 C337 1.448 . S
C344 C343 1.430 . S
C344 N348 1.351 . S
C345 C343 1.387 . S
C345 C346 1.374 . S
C345 H360 0.931 . S
C346 C340 1.439 . S
C346 C345 1.374 . S
C346 H361 0.931 . S
Eu347 N338 2.600 . S
Eu347 N348 2.562 . S
Eu347 O382 2.335 . S
Eu347 O385 2.372 . S
Eu347 O386 2.462 . S
Eu347 O387 2.373 . S
Eu347 O389 2.432 . S
Eu347 O390 2.291 . S
Eu347 C411 2.787 . S
N348 C344 1.351 . S
N348 Eu347 2.562 . S
N348 C350 1.325 . S
C349 C343 1.404 . S
C349 C351 1.366 . S
C349 H357 0.930 . S
C350 N348 1.325 . S
C350 C351 1.416 . S
C350 H356 0.929 . S
C351 C349 1.366 . S
C351 C350 1.416 . S
C351 H353 0.930 . S
H352 C341 0.930 . S
H353 C351 0.930 . S
H354 C369 0.930 . S
H355 C376 0.930 . S
H356 C350 0.929 . S
H357 C349 0.930 . S
H358 C372 0.929 . S
H359 C339 0.931 . S
H360 C345 0.931 . S
H361 C346 0.931 . S
H362 C367 0.931 . S
H363 C342 0.929 . S
H364 C375 0.930 1_655 S
N365 Eu336 2.600 . S
N365 C366 1.365 . S
N365 C369 1.319 . S
C366 N365 1.365 . S
C366 C368 1.405 . S
C366 C374 1.448 . S
C367 H362 0.931 . S
C367 C369 1.397 . S
C367 C370 1.367 . S
C368 C366 1.405 . S
C368 C370 1.403 . S
C368 C401 1.439 . S
C369 H354 0.930 . S
C369 N365 1.319 . S
C369 C367 1.397 . S
C370 C367 1.367 . S
C370 C368 1.403 . S
C370 H377 0.929 . S
N371 Eu336 2.562 . S
N371 C372 1.325 . S
N371 C374 1.351 . S
C372 H358 0.929 . S
C372 N371 1.325 . S
C372 C376 1.416 . S
C373 C374 1.430 . S
C373 C375 1.404 . S
C373 C402 1.387 . S
C374 C366 1.448 . S
C374 N371 1.351 . S
C374 C373 1.430 . S
C375 H364 0.930 1_455 S
C375 C373 1.404 . S
C375 C376 1.366 . S
C376 H355 0.930 . S
C376 C372 1.416 . S
C376 C375 1.366 . S
H377 C370 0.929 . S
H378 C401 0.931 . S
H379 C402 0.931 . S
O380 Eu336 2.462 . S
O380 C400 1.252 . S
O381 Eu336 2.373 . S
O381 C392 1.249 . S
O382 Eu347 2.335 . S
O382 C392 1.264 . S
O383 Eu336 2.432 . S
O383 C400 1.268 . S
O384 Eu336 2.291 . S
O384 C399 1.255 . S
O385 Eu347 2.372 . S
O385 C399 1.257 . S
O386 Eu347 2.462 . S
O386 C411 1.252 . S
O387 Eu347 2.373 . S
O387 C403 1.249 . S
O388 Eu336 2.335 . S
O388 C403 1.264 . S
O389 Eu347 2.432 . S
O389 C411 1.268 . S
O390 Eu347 2.291 . S
O390 C410 1.255 . S
O391 Eu336 2.372 . S
O391 C410 1.257 . S
C392 O381 1.249 . S
C392 O382 1.264 . S
C393 C396 1.382 . S
C393 C398 1.390 . S
C393 C400 1.506 . S
C394 C395 1.398 . S
C394 C398 1.392 . S
C395 C394 1.398 . S
C395 C397 1.372 . S
C395 H412 0.931 . S
C396 C393 1.382 . S
C396 C397 1.390 . S
C396 H413 0.931 . S
C397 C395 1.372 . S
C397 C396 1.390 . S
C397 H414 0.929 . S
C398 C393 1.390 . S
C398 C394 1.392 . S
C398 H415 0.930 . S
C399 O384 1.255 . S
C399 O385 1.257 . S
C400 Eu336 2.787 . S
C400 O380 1.252 . S
C400 O383 1.268 . S
C400 C393 1.506 . S
C401 C368 1.439 . S
C401 H378 0.931 . S
C401 C402 1.374 . S
C402 C373 1.387 . S
C402 H379 0.931 . S
C402 C401 1.374 . S
C403 O387 1.249 . S
C403 O388 1.264 . S
C404 C407 1.382 . S
C404 C408 1.390 . S
C404 C411 1.506 . S
C405 C406 1.398 . S
C405 C408 1.392 . S
C406 C405 1.398 . S
C406 C409 1.372 . S
C406 H416 0.931 . S
C407 C404 1.382 . S
C407 C409 1.390 . S
C407 H417 0.931 . S
C408 C404 1.390 . S
C408 C405 1.392 . S
C408 H418 0.930 . S
C409 C406 1.372 . S
C409 C407 1.390 . S
C409 H419 0.929 . S
C410 O390 1.255 . S
C410 O391 1.257 . S
C411 Eu347 2.787 . S
C411 O386 1.252 . S
C411 O389 1.268 . S
C411 C404 1.506 . S
H412 C395 0.931 . S
H413 C396 0.931 . S
H414 C397 0.929 . S
H415 C398 0.930 . S
H416 C406 0.931 . S
H417 C407 0.931 . S
H418 C408 0.930 . S
H419 C409 0.929 . S
Eu420 N449 2.600 . S
Eu420 N455 2.562 . S
Eu420 O464 2.462 . S
Eu420 O465 2.373 . S
Eu420 O467 2.432 . S
Eu420 O468 2.291 . S
Eu420 O472 2.335 . S
Eu420 O475 2.372 . S
Eu420 C484 2.787 . S
C421 N422 1.365 . S
C421 C424 1.405 . S
C421 C428 1.448 . S
N422 C421 1.365 . S
N422 C425 1.319 . S
N422 Eu431 2.600 . S
C423 C425 1.397 . S
C423 C426 1.367 . S
C423 H443 0.931 . S
C424 C421 1.405 . S
C424 C426 1.403 . S
C424 C430 1.439 . S
C425 N422 1.319 . S
C425 C423 1.397 . S
C425 H436 0.930 . S
C426 C423 1.367 . S
C426 C424 1.403 . S
C426 H447 0.929 . S
C427 C428 1.430 . S
C427 C429 1.387 . S
C427 C433 1.404 . S
C428 C421 1.448 . S
C428 C427 1.430 . S
C428 N432 1.351 . S
C429 C427 1.387 . S
C429 C430 1.374 . S
C429 H444 0.931 . S
C430 C424 1.439 . S
C430 C429 1.374 . S
C430 H445 0.931 . S
Eu431 N422 2.600 . S
Eu431 N432 2.562 . S
Eu431 O466 2.335 . S
Eu431 O469 2.372 . S
Eu431 O470 2.462 . S
Eu431 O471 2.373 . S
Eu431 O473 2.432 . S
Eu431 O474 2.291 . S
Eu431 C495 2.787 . S
N432 C428 1.351 . S
N432 Eu431 2.562 . S
N432 C434 1.325 . S
C433 C427 1.404 . S
C433 C435 1.366 . S
C433 H441 0.930 . S
C434 N432 1.325 . S
C434 C435 1.416 . S
C434 H440 0.929 . S
C435 C433 1.366 . S
C435 C434 1.416 . S
C435 H437 0.930 . S
H436 C425 0.930 . S
H437 C435 0.930 . S
H438 C453 0.930 . S
H439 C460 0.930 . S
H440 C434 0.929 . S
H441 C433 0.930 . S
H442 C456 0.929 . S
H443 C423 0.931 . S
H444 C429 0.931 . S
H445 C430 0.931 . S
H446 C451 0.931 . S
H447 C426 0.929 . S
H448 C459 0.930 . S
N449 Eu420 2.600 . S
N449 C450 1.365 . S
N449 C453 1.319 . S
C450 N449 1.365 . S
C450 C452 1.405 . S
C450 C458 1.448 . S
C451 H446 0.931 . S
C451 C453 1.397 . S
C451 C454 1.367 . S
C452 C450 1.405 . S
C452 C454 1.403 . S
C452 C485 1.439 . S
C453 H438 0.930 . S
C453 N449 1.319 . S
C453 C451 1.397 . S
C454 C451 1.367 . S
C454 C452 1.403 . S
C454 H461 0.929 . S
N455 Eu420 2.562 . S
N455 C456 1.325 . S
N455 C458 1.351 . S
C456 H442 0.929 . S
C456 N455 1.325 . S
C456 C460 1.416 . S
C457 C458 1.430 . S
C457 C459 1.404 . S
C457 C486 1.387 . S
C458 C450 1.448 . S
C458 N455 1.351 . S
C458 C457 1.430 . S
C459 H448 0.930 . S
C459 C457 1.404 . S
C459 C460 1.366 . S
C460 H439 0.930 . S
C460 C456 1.416 . S
C460 C459 1.366 . S
H461 C454 0.929 . S
H462 C485 0.931 . S
H463 C486 0.931 . S
O464 Eu420 2.462 . S
O464 C484 1.252 . S
O465 Eu420 2.373 . S
O465 C476 1.249 . S
O466 Eu431 2.335 . S
O466 C476 1.264 . S
O467 Eu420 2.432 . S
O467 C484 1.268 . S
O468 Eu420 2.291 . S
O468 C483 1.255 . S
O469 Eu431 2.372 . S
O469 C483 1.257 . S
O470 Eu431 2.462 . S
O470 C495 1.252 . S
O471 Eu431 2.373 . S
O471 C487 1.249 . S
O472 Eu420 2.335 . S
O472 C487 1.264 . S
O473 Eu431 2.432 . S
O473 C495 1.268 . S
O474 Eu431 2.291 . S
O474 C494 1.255 . S
O475 Eu420 2.372 . S
O475 C494 1.257 . S
C476 O465 1.249 . S
C476 O466 1.264 . S
C477 C480 1.382 . S
C477 C482 1.390 . S
C477 C484 1.506 . S
C478 C479 1.398 . S
C478 C482 1.392 . S
C479 C478 1.398 . S
C479 C481 1.372 . S
C479 H496 0.931 . S
C480 C477 1.382 . S
C480 C481 1.390 . S
C480 H497 0.931 . S
C481 C479 1.372 . S
C481 C480 1.390 . S
C481 H498 0.929 1_545 S
C482 C477 1.390 . S
C482 C478 1.392 . S
C482 H499 0.930 . S
C483 O468 1.255 . S
C483 O469 1.257 . S
C484 Eu420 2.787 . S
C484 O464 1.252 . S
C484 O467 1.268 . S
C484 C477 1.506 . S
C485 C452 1.439 . S
C485 H462 0.931 . S
C485 C486 1.374 . S
C486 C457 1.387 . S
C486 H463 0.931 . S
C486 C485 1.374 . S
C487 O471 1.249 . S
C487 O472 1.264 . S
C488 C491 1.382 . S
C488 C492 1.390 . S
C488 C495 1.506 . S
C489 C490 1.398 . S
C489 C492 1.392 . S
C490 C489 1.398 . S
C490 C493 1.372 . S
C490 H500 0.931 . S
C491 C488 1.382 . S
C491 C493 1.390 . S
C491 H501 0.931 . S
C492 C488 1.390 . S
C492 C489 1.392 . S
C492 H502 0.930 . S
C493 C490 1.372 . S
C493 C491 1.390 . S
C493 H503 0.929 . S
C494 O474 1.255 . S
C494 O475 1.257 . S
C495 Eu431 2.787 . S
C495 O470 1.252 . S
C495 O473 1.268 . S
C495 C488 1.506 . S
H496 C479 0.931 . S
H497 C480 0.931 . S
H498 C481 0.929 1_565 S
H499 C482 0.930 . S
H500 C490 0.931 . S
H501 C491 0.931 . S
H502 C492 0.930 . S
H503 C493 0.929 . S
Eu504 N533 2.600 . S
Eu504 N539 2.562 . S
Eu504 O548 2.462 . S
Eu504 O549 2.373 . S
Eu504 O551 2.432 . S
Eu504 O552 2.291 . S
Eu504 O556 2.335 . S
Eu504 O559 2.372 . S
Eu504 C568 2.787 . S
C505 N506 1.365 . S
C505 C508 1.405 . S
C505 C512 1.448 . S
N506 C505 1.365 . S
N506 C509 1.319 . S
N506 Eu515 2.600 . S
C507 C509 1.397 . S
C507 C510 1.367 . S
C507 H527 0.931 . S
C508 C505 1.405 . S
C508 C510 1.403 . S
C508 C514 1.439 . S
C509 N506 1.319 . S
C509 C507 1.397 . S
C509 H520 0.930 . S
C510 C507 1.367 . S
C510 C508 1.403 . S
C510 H531 0.929 . S
C511 C512 1.430 . S
C511 C513 1.387 . S
C511 C517 1.404 . S
C512 C505 1.448 . S
C512 C511 1.430 . S
C512 N516 1.351 . S
C513 C511 1.387 . S
C513 C514 1.374 . S
C513 H528 0.931 . S
C514 C508 1.439 . S
C514 C513 1.374 . S
C514 H529 0.931 . S
Eu515 N506 2.600 . S
Eu515 N516 2.562 . S
Eu515 O550 2.335 . S
Eu515 O553 2.372 . S
Eu515 O554 2.462 . S
Eu515 O555 2.373 . S
Eu515 O557 2.432 . S
Eu515 O558 2.291 . S
Eu515 C579 2.787 . S
N516 C512 1.351 . S
N516 Eu515 2.562 . S
N516 C518 1.325 . S
C517 C511 1.404 . S
C517 C519 1.366 . S
C517 H525 0.930 1_545 S
C518 N516 1.325 . S
C518 C519 1.416 . S
C518 H524 0.929 . S
C519 C517 1.366 . S
C519 C518 1.416 . S
C519 H521 0.930 . S
H520 C509 0.930 . S
H521 C519 0.930 . S
H522 C537 0.930 . S
H523 C544 0.930 . S
H524 C518 0.929 . S
H525 C517 0.930 1_565 S
H526 C540 0.929 . S
H527 C507 0.931 . S
H528 C513 0.931 . S
H529 C514 0.931 . S
H530 C535 0.931 . S
H531 C510 0.929 . S
H532 C543 0.930 . S
N533 Eu504 2.600 . S
N533 C534 1.365 . S
N533 C537 1.319 . S
C534 N533 1.365 . S
C534 C536 1.405 . S
C534 C542 1.448 . S
C535 H530 0.931 . S
C535 C537 1.397 . S
C535 C538 1.367 . S
C536 C534 1.405 . S
C536 C538 1.403 . S
C536 C569 1.439 . S
C537 H522 0.930 . S
C537 N533 1.319 . S
C537 C535 1.397 . S
C538 C535 1.367 . S
C538 C536 1.403 . S
C538 H545 0.929 . S
N539 Eu504 2.562 . S
N539 C540 1.325 . S
N539 C542 1.351 . S
C540 H526 0.929 . S
C540 N539 1.325 . S
C540 C544 1.416 . S
C541 C542 1.430 . S
C541 C543 1.404 . S
C541 C570 1.387 . S
C542 C534 1.448 . S
C542 N539 1.351 . S
C542 C541 1.430 . S
C543 H532 0.930 . S
C543 C541 1.404 . S
C543 C544 1.366 . S
C544 H523 0.930 . S
C544 C540 1.416 . S
C544 C543 1.366 . S
H545 C538 0.929 . S
H546 C569 0.931 . S
H547 C570 0.931 . S
O548 Eu504 2.462 . S
O548 C568 1.252 . S
O549 Eu504 2.373 . S
O549 C560 1.249 . S
O550 Eu515 2.335 . S
O550 C560 1.264 . S
O551 Eu504 2.432 . S
O551 C568 1.268 . S
O552 Eu504 2.291 . S
O552 C567 1.255 . S
O553 Eu515 2.372 . S
O553 C567 1.257 . S
O554 Eu515 2.462 . S
O554 C579 1.252 . S
O555 Eu515 2.373 . S
O555 C571 1.249 . S
O556 Eu504 2.335 . S
O556 C571 1.264 . S
O557 Eu515 2.432 . S
O557 C579 1.268 . S
O558 Eu515 2.291 . S
O558 C578 1.255 . S
O559 Eu504 2.372 . S
O559 C578 1.257 . S
C560 O549 1.249 . S
C560 O550 1.264 . S
C561 C564 1.382 . S
C561 C566 1.390 . S
C561 C568 1.506 . S
C562 C563 1.398 . S
C562 C566 1.392 . S
C563 C562 1.398 . S
C563 C565 1.372 . S
C563 H580 0.931 . S
C564 C561 1.382 . S
C564 C565 1.390 . S
C564 H581 0.931 . S
C565 C563 1.372 . S
C565 C564 1.390 . S
C565 H582 0.929 . S
C566 C561 1.390 . S
C566 C562 1.392 . S
C566 H583 0.930 . S
C567 O552 1.255 . S
C567 O553 1.257 . S
C568 Eu504 2.787 . S
C568 O548 1.252 . S
C568 O551 1.268 . S
C568 C561 1.506 . S
C569 C536 1.439 . S
C569 H546 0.931 . S
C569 C570 1.374 . S
C570 C541 1.387 . S
C570 H547 0.931 . S
C570 C569 1.374 . S
C571 O555 1.249 . S
C571 O556 1.264 . S
C572 C575 1.382 . S
C572 C576 1.390 . S
C572 C579 1.506 . S
C573 C574 1.398 . S
C573 C576 1.392 . S
C574 C573 1.398 . S
C574 C577 1.372 . S
C574 H584 0.931 . S
C575 C572 1.382 . S
C575 C577 1.390 . S
C575 H585 0.931 . S
C576 C572 1.390 . S
C576 C573 1.392 . S
C576 H586 0.930 . S
C577 C574 1.372 . S
C577 C575 1.390 . S
C577 H587 0.929 . S
C578 O558 1.255 . S
C578 O559 1.257 . S
C579 Eu515 2.787 . S
C579 O554 1.252 . S
C579 O557 1.268 . S
C579 C572 1.506 . S
H580 C563 0.931 . S
H581 C564 0.931 . S
H582 C565 0.929 . S
H583 C566 0.930 . S
H584 C574 0.931 . S
H585 C575 0.931 . S
H586 C576 0.930 . S
H587 C577 0.929 . S
Eu588 N617 2.600 . S
Eu588 N623 2.562 . S
Eu588 O632 2.462 . S
Eu588 O633 2.373 . S
Eu588 O635 2.432 . S
Eu588 O636 2.291 . S
Eu588 O640 2.335 . S
Eu588 O643 2.372 . S
Eu588 C652 2.787 . S
C589 N590 1.365 . S
C589 C592 1.405 . S
C589 C596 1.448 . S
N590 C589 1.365 . S
N590 C593 1.319 . S
N590 Eu599 2.600 . S
C591 C593 1.397 . S
C591 C594 1.367 . S
C591 H611 0.931 . S
C592 C589 1.405 . S
C592 C594 1.403 . S
C592 C598 1.439 . S
C593 N590 1.319 . S
C593 C591 1.397 . S
C593 H604 0.930 . S
C594 C591 1.367 . S
C594 C592 1.403 . S
C594 H615 0.929 1_565 S
C595 C596 1.430 . S
C595 C597 1.387 . S
C595 C601 1.404 . S
C596 C589 1.448 . S
C596 C595 1.430 . S
C596 N600 1.351 . S
C597 C595 1.387 . S
C597 C598 1.374 . S
C597 H612 0.931 . S
C598 C592 1.439 . S
C598 C597 1.374 . S
C598 H613 0.931 . S
Eu599 N590 2.600 . S
Eu599 N600 2.562 . S
Eu599 O634 2.335 . S
Eu599 O637 2.372 . S
Eu599 O638 2.462 . S
Eu599 O639 2.373 . S
Eu599 O641 2.432 . S
Eu599 O642 2.291 . S
Eu599 C663 2.787 . S
N600 C596 1.351 . S
N600 Eu599 2.562 . S
N600 C602 1.325 . S
C601 C595 1.404 . S
C601 C603 1.366 . S
C601 H609 0.930 . S
C602 N600 1.325 . S
C602 C603 1.416 . S
C602 H608 0.929 . S
C603 C601 1.366 . S
C603 C602 1.416 . S
C603 H605 0.930 . S
H604 C593 0.930 . S
H605 C603 0.930 . S
H606 C621 0.930 . S
H607 C628 0.930 . S
H608 C602 0.929 . S
H609 C601 0.930 . S
H610 C624 0.929 . S
H611 C591 0.931 . S
H612 C597 0.931 . S
H613 C598 0.931 . S
H614 C619 0.931 . S
H615 C594 0.929 1_545 S
H616 C627 0.930 . S
N617 Eu588 2.600 . S
N617 C618 1.365 . S
N617 C621 1.319 . S
C618 N617 1.365 . S
C618 C620 1.405 . S
C618 C626 1.448 . S
C619 H614 0.931 . S
C619 C621 1.397 . S
C619 C622 1.367 . S
C620 C618 1.405 . S
C620 C622 1.403 . S
C620 C653 1.439 . S
C621 H606 0.930 . S
C621 N617 1.319 . S
C621 C619 1.397 . S
C622 C619 1.367 . S
C622 C620 1.403 . S
C622 H629 0.929 . S
N623 Eu588 2.562 . S
N623 C624 1.325 . S
N623 C626 1.351 . S
C624 H610 0.929 . S
C624 N623 1.325 . S
C624 C628 1.416 . S
C625 C626 1.430 . S
C625 C627 1.404 . S
C625 C654 1.387 . S
C626 C618 1.448 . S
C626 N623 1.351 . S
C626 C625 1.430 . S
C627 H616 0.930 . S
C627 C625 1.404 . S
C627 C628 1.366 . S
C628 H607 0.930 . S
C628 C624 1.416 . S
C628 C627 1.366 . S
H629 C622 0.929 . S
H630 C653 0.931 . S
H631 C654 0.931 . S
O632 Eu588 2.462 . S
O632 C652 1.252 . S
O633 Eu588 2.373 . S
O633 C644 1.249 . S
O634 Eu599 2.335 . S
O634 C644 1.264 . S
O635 Eu588 2.432 . S
O635 C652 1.268 . S
O636 Eu588 2.291 . S
O636 C651 1.255 . S
O637 Eu599 2.372 . S
O637 C651 1.257 . S
O638 Eu599 2.462 . S
O638 C663 1.252 . S
O639 Eu599 2.373 . S
O639 C655 1.249 . S
O640 Eu588 2.335 . S
O640 C655 1.264 . S
O641 Eu599 2.432 . S
O641 C663 1.268 . S
O642 Eu599 2.291 . S
O642 C662 1.255 . S
O643 Eu588 2.372 . S
O643 C662 1.257 . S
C644 O633 1.249 . S
C644 O634 1.264 . S
C645 C648 1.382 . S
C645 C650 1.390 . S
C645 C652 1.506 . S
C646 C647 1.398 . S
C646 C650 1.392 . S
C647 C646 1.398 . S
C647 C649 1.372 . S
C647 H664 0.931 . S
C648 C645 1.382 . S
C648 C649 1.390 . S
C648 H665 0.931 . S
C649 C647 1.372 . S
C649 C648 1.390 . S
C649 H666 0.929 . S
C650 C645 1.390 . S
C650 C646 1.392 . S
C650 H667 0.930 . S
C651 O636 1.255 . S
C651 O637 1.257 . S
C652 Eu588 2.787 . S
C652 O632 1.252 . S
C652 O635 1.268 . S
C652 C645 1.506 . S
C653 C620 1.439 . S
C653 H630 0.931 . S
C653 C654 1.374 . S
C654 C625 1.387 . S
C654 H631 0.931 . S
C654 C653 1.374 . S
C655 O639 1.249 . S
C655 O640 1.264 . S
C656 C659 1.382 . S
C656 C660 1.390 . S
C656 C663 1.506 . S
C657 C658 1.398 . S
C657 C660 1.392 . S
C658 C657 1.398 . S
C658 C661 1.372 . S
C658 H668 0.931 . S
C659 C656 1.382 . S
C659 C661 1.390 . S
C659 H669 0.931 . S
C660 C656 1.390 . S
C660 C657 1.392 . S
C660 H670 0.930 . S
C661 C658 1.372 . S
C661 C659 1.390 . S
C661 H671 0.929 1_655 S
C662 O642 1.255 . S
C662 O643 1.257 . S
C663 Eu599 2.787 . S
C663 O638 1.252 . S
C663 O641 1.268 . S
C663 C656 1.506 . S
H664 C647 0.931 . S
H665 C648 0.931 . S
H666 C649 0.929 . S
H667 C650 0.930 . S
H668 C658 0.931 . S
H669 C659 0.931 . S
H670 C660 0.930 . S
H671 C661 0.929 1_455 S
C672 O684 1.241 . S
C672 O685 1.280 . S
C673 O686 1.277 . S
C673 O687 1.245 . S
C674 O698 1.247 . S
C674 O700 1.289 . S
Mg675 O676 1.926 1_455 S
Mg675 O685 1.984 1_455 S
Mg675 O687 1.988 1_455 S
Mg675 O688 2.061 . S
O676 Mg675 1.926 1_655 S
O676 Mg677 1.986 1_545 S
O676 Mg678 1.927 1_655 S
Mg677 O676 1.986 1_565 S
Mg677 O684 2.042 1_565 S
Mg677 O686 2.041 1_565 S
Mg677 O692 2.038 . S
Mg677 O700 2.238 . S
Mg678 O676 1.927 1_455 S
Mg678 O679 1.907 1_545 S
Mg678 O689 2.107 . S
Mg678 O691 2.073 1_445 S
Mg678 O700 2.106 1_445 S
Mg678 O701 2.085 . S
O679 Mg678 1.907 1_565 S
O679 Mg680 1.925 . S
O679 Mg681 1.986 1_565 S
Mg680 O679 1.925 . S
Mg680 O694 1.994 . S
Mg680 O697 1.994 . S
Mg680 O698 2.049 1_455 S
Mg681 O679 1.986 1_545 S
Mg681 O689 2.238 . S
Mg681 O693 2.042 1_545 S
Mg681 O695 2.041 1_545 S
Mg681 O702 2.038 . S
C682 O688 1.247 . S
C682 O689 1.289 . S
C683 O701 1.245 . S
C683 O702 1.274 . S
O684 C672 1.241 . S
O684 Mg677 2.042 1_545 S
O685 C672 1.280 . S
O685 Mg675 1.984 1_655 S
O686 C673 1.277 . S
O686 Mg677 2.041 1_545 S
O687 C673 1.245 . S
O687 Mg675 1.988 1_655 S
O688 Mg675 2.061 . S
O688 C682 1.247 . S
O689 Mg678 2.107 . S
O689 Mg681 2.238 . S
O689 C682 1.289 . S
C690 O691 1.245 . S
C690 O692 1.274 . S
O691 Mg678 2.073 1_665 S
O691 C690 1.245 . S
O692 Mg677 2.038 . S
O692 C690 1.274 . S
O693 Mg681 2.042 1_565 S
O693 C696 1.241 . S
O694 Mg680 1.994 . S
O694 C696 1.280 . S
O695 Mg681 2.041 1_565 S
O695 C699 1.277 . S
C696 O693 1.241 . S
C696 O694 1.280 . S
O697 Mg680 1.994 . S
O697 C699 1.245 . S
O698 C674 1.247 . S
O698 Mg680 2.049 1_655 S
C699 O695 1.277 . S
C699 O697 1.245 . S
O700 C674 1.289 . S
O700 Mg677 2.238 . S
O700 Mg678 2.106 1_665 S
O701 Mg678 2.085 . S
O701 C683 1.245 . S
O702 Mg681 2.038 . S
O702 C683 1.274 . S
C703 O715 1.241 . S
C703 O716 1.280 . S
C704 O717 1.277 . S
C704 O718 1.245 . S
C705 O729 1.247 . S
C705 O731 1.289 . S
Mg706 O707 1.926 . S
Mg706 O716 1.984 . S
Mg706 O718 1.988 1_554 S
Mg706 O719 2.061 . S
O707 Mg706 1.926 . S
O707 Mg708 1.986 1_545 S
O707 Mg709 1.931 . S
Mg708 O707 1.986 1_565 S
Mg708 O715 2.042 1_565 S
Mg708 O717 2.041 1_564 S
Mg708 O723 2.038 . S
Mg708 O731 2.238 1_554 S
Mg709 O707 1.931 . S
Mg709 O710 1.903 1_544 S
Mg709 O720 2.121 . S
Mg709 O722 2.093 1_545 S
Mg709 O731 2.092 1_544 S
Mg709 O732 2.064 1_554 S
O710 Mg709 1.903 1_566 S
O710 Mg711 1.926 . S
O710 Mg712 1.986 1_565 S
Mg711 O710 1.926 . S
Mg711 O725 1.984 . S
Mg711 O728 1.988 1_556 S
Mg711 O729 2.061 . S
Mg712 O710 1.986 1_545 S
Mg712 O720 2.238 1_556 S
Mg712 O724 2.042 1_545 S
Mg712 O726 2.041 1_546 S
Mg712 O733 2.038 . S
C713 O719 1.247 . S
C713 O720 1.289 . S
C714 O732 1.245 . S
C714 O733 1.274 . S
O715 C703 1.241 . S
O715 Mg708 2.042 1_545 S
O716 C703 1.280 . S
O716 Mg706 1.984 . S
O717 C704 1.277 . S
O717 Mg708 2.041 1_546 S
O718 C704 1.245 . S
O718 Mg706 1.988 1_556 S
O719 Mg706 2.061 . S
O719 C713 1.247 . S
O720 Mg709 2.121 . S
O720 Mg712 2.238 1_554 S
O720 C713 1.289 . S
C721 O722 1.245 . S
C721 O723 1.274 . S
O722 Mg709 2.093 1_565 S
O722 C721 1.245 . S
O723 Mg708 2.038 . S
O723 C721 1.274 . S
O724 Mg712 2.042 1_565 S
O724 C727 1.241 . S
O725 Mg711 1.984 . S
O725 C727 1.280 . S
O726 Mg712 2.041 1_564 S
O726 C730 1.277 . S
C727 O724 1.241 . S
C727 O725 1.280 . S
O728 Mg711 1.988 1_554 S
O728 C730 1.245 . S
O729 C705 1.247 . S
O729 Mg711 2.061 . S
C730 O726 1.277 . S
C730 O728 1.245 . S
O731 C705 1.289 . S
O731 Mg708 2.238 1_556 S
O731 Mg709 2.092 1_566 S
O732 Mg709 2.064 1_556 S
O732 C714 1.245 . S
O733 Mg712 2.038 . S
O733 C714 1.274 . S
C734 O746 1.241 . S
C734 O747 1.280 . S
C735 O748 1.277 . S
C735 O749 1.245 . S
C736 O760 1.247 . S
C736 O762 1.289 . S
Mg737 O738 1.926 1_455 S
Mg737 O747 1.984 1_455 S
Mg737 O749 1.988 1_454 S
Mg737 O750 2.061 . S
O738 Mg737 1.926 1_655 S
O738 Mg739 1.986 . S
O738 Mg740 1.922 1_655 S
Mg739 O738 1.986 . S
Mg739 O746 2.042 . S
Mg739 O748 2.041 1_554 S
Mg739 O754 2.038 . S
Mg739 O762 2.238 1_554 S
Mg740 O738 1.922 1_455 S
Mg740 O741 1.912 1_554 S
Mg740 O751 2.120 . S
Mg740 O753 2.099 1_455 S
Mg740 O762 2.093 1_454 S
Mg740 O763 2.058 1_554 S
O741 Mg740 1.912 1_556 S
O741 Mg742 1.925 . S
O741 Mg743 1.986 . S
Mg742 O741 1.925 . S
Mg742 O756 1.994 . S
Mg742 O759 1.994 1_556 S
Mg742 O760 2.049 1_455 S
Mg743 O741 1.986 . S
Mg743 O751 2.238 1_556 S
Mg743 O755 2.042 . S
Mg743 O757 2.041 1_556 S
Mg743 O764 2.038 . S
C744 O750 1.247 . S
C744 O751 1.289 . S
C745 O763 1.245 . S
C745 O764 1.274 . S
O746 C734 1.241 . S
O746 Mg739 2.042 . S
O747 C734 1.280 . S
O747 Mg737 1.984 1_655 S
O748 C735 1.277 . S
O748 Mg739 2.041 1_556 S
O749 C735 1.245 . S
O749 Mg737 1.988 1_656 S
O750 Mg737 2.061 . S
O750 C744 1.247 . S
O751 Mg740 2.120 . S
O751 Mg743 2.238 1_554 S
O751 C744 1.289 . S
C752 O753 1.245 . S
C752 O754 1.274 . S
O753 Mg740 2.099 1_655 S
O753 C752 1.245 . S
O754 Mg739 2.038 . S
O754 C752 1.274 . S
O755 Mg743 2.042 . S
O755 C758 1.241 . S
O756 Mg742 1.994 . S
O756 C758 1.280 . S
O757 Mg743 2.041 1_554 S
O757 C761 1.277 . S
C758 O755 1.241 . S
C758 O756 1.280 . S
O759 Mg742 1.994 1_554 S
O759 C761 1.245 . S
O760 C736 1.247 . S
O760 Mg742 2.049 1_655 S
C761 O757 1.277 . S
C761 O759 1.245 . S
O762 C736 1.289 . S
O762 Mg739 2.238 1_556 S
O762 Mg740 2.093 1_656 S
O763 Mg740 2.058 1_556 S
O763 C745 1.245 . S
O764 Mg743 2.038 . S
O764 C745 1.274 . S
C765 O777 1.241 . S
C765 O778 1.280 . S
C766 O779 1.277 . S
C766 O780 1.245 . S
C767 O791 1.247 . S
C767 O793 1.289 . S
Mg768 O769 1.926 . S
Mg768 O778 1.984 . S
Mg768 O780 1.988 1_554 S
Mg768 O781 2.061 . S
O769 Mg768 1.926 . S
O769 Mg770 1.986 . S
O769 Mg771 1.922 . S
Mg770 O769 1.986 . S
Mg770 O777 2.042 . S
Mg770 O779 2.041 1_554 S
Mg770 O785 2.038 . S
Mg770 O793 2.238 1_554 S
Mg771 O769 1.922 . S
Mg771 O772 1.913 1_554 S
Mg771 O782 2.120 . S
Mg771 O784 2.099 . S
Mg771 O793 2.093 1_554 S
Mg771 O794 2.059 1_554 S
O772 Mg771 1.913 1_556 S
O772 Mg773 1.926 . S
O772 Mg774 1.986 . S
Mg773 O772 1.926 . S
Mg773 O787 1.984 . S
Mg773 O790 1.988 1_556 S
Mg773 O791 2.061 . S
Mg774 O772 1.986 . S
Mg774 O782 2.238 1_556 S
Mg774 O786 2.042 . S
Mg774 O788 2.041 1_556 S
Mg774 O795 2.038 . S
C775 O781 1.247 . S
C775 O782 1.289 . S
C776 O794 1.245 . S
C776 O795 1.274 . S
O777 C765 1.241 . S
O777 Mg770 2.042 . S
O778 C765 1.280 . S
O778 Mg768 1.984 . S
O779 C766 1.277 . S
O779 Mg770 2.041 1_556 S
O780 C766 1.245 . S
O780 Mg768 1.988 1_556 S
O781 Mg768 2.061 . S
O781 C775 1.247 . S
O782 Mg771 2.120 . S
O782 Mg774 2.238 1_554 S
O782 C775 1.289 . S
C783 O784 1.245 . S
C783 O785 1.274 . S
O784 Mg771 2.099 . S
O784 C783 1.245 . S
O785 Mg770 2.038 . S
O785 C783 1.274 . S
O786 Mg774 2.042 . S
O786 C789 1.241 . S
O787 Mg773 1.984 . S
O787 C789 1.280 . S
O788 Mg774 2.041 1_554 S
O788 C792 1.277 . S
C789 O786 1.241 . S
C789 O787 1.280 . S
O790 Mg773 1.988 1_554 S
O790 C792 1.245 . S
O791 C767 1.247 . S
O791 Mg773 2.061 . S
C792 O788 1.277 . S
C792 O790 1.245 . S
O793 C767 1.289 . S
O793 Mg770 2.238 1_556 S
O793 Mg771 2.093 1_556 S
O794 Mg771 2.059 1_556 S
O794 C776 1.245 . S
O795 Mg774 2.038 . S
O795 C776 1.274 . S
C796 O808 1.241 . S
C796 O809 1.280 . S
C797 O810 1.277 . S
C797 O811 1.245 . S
C798 O822 1.247 . S
C798 O824 1.289 . S
Mg799 O800 1.926 1_455 S
Mg799 O809 1.984 1_455 S
Mg799 O811 1.988 1_455 S
Mg799 O812 2.061 . S
O800 Mg799 1.926 1_655 S
O800 Mg801 1.986 . S
O800 Mg802 1.917 1_655 S
Mg801 O800 1.986 . S
Mg801 O808 2.042 . S
Mg801 O810 2.041 . S
Mg801 O816 2.038 . S
Mg801 O824 2.238 . S
Mg802 O800 1.917 1_455 S
Mg802 O803 1.917 . S
Mg802 O813 2.106 . S
Mg802 O815 2.079 1_455 S
Mg802 O824 2.106 1_455 S
Mg802 O825 2.079 . S
O803 Mg802 1.917 . S
O803 Mg804 1.925 . S
O803 Mg805 1.986 . S
Mg804 O803 1.925 . S
Mg804 O818 1.994 . S
Mg804 O821 1.993 . S
Mg804 O822 2.050 1_455 S
Mg805 O803 1.986 . S
Mg805 O813 2.238 . S
Mg805 O817 2.042 . S
Mg805 O819 2.041 . S
Mg805 O826 2.038 . S
C806 O812 1.247 . S
C806 O813 1.289 . S
C807 O825 1.245 . S
C807 O826 1.274 . S
O808 C796 1.241 . S
O808 Mg801 2.042 . S
O809 C796 1.280 . S
O809 Mg799 1.984 1_655 S
O810 C797 1.277 . S
O810 Mg801 2.041 . S
O811 C797 1.245 . S
O811 Mg799 1.988 1_655 S
O812 Mg799 2.061 . S
O812 C806 1.247 . S
O813 Mg802 2.106 . S
O813 Mg805 2.238 . S
O813 C806 1.289 . S
C814 O815 1.245 . S
C814 O816 1.274 . S
O815 Mg802 2.079 1_655 S
O815 C814 1.245 . S
O816 Mg801 2.038 . S
O816 C814 1.274 . S
O817 Mg805 2.042 . S
O817 C820 1.241 . S
O818 Mg804 1.994 . S
O818 C820 1.280 . S
O819 Mg805 2.041 . S
O819 C823 1.277 . S
C820 O817 1.241 . S
C820 O818 1.280 . S
O821 Mg804 1.993 . S
O821 C823 1.245 . S
O822 C798 1.247 . S
O822 Mg804 2.050 1_655 S
C823 O819 1.277 . S
C823 O821 1.245 . S
O824 C798 1.289 . S
O824 Mg801 2.238 . S
O824 Mg802 2.106 1_655 S
O825 Mg802 2.079 . S
O825 C807 1.245 . S
O826 Mg805 2.038 . S
O826 C807 1.274 . S
C827 O839 1.241 . S
C827 O840 1.280 . S
C828 O841 1.277 . S
C828 O842 1.245 . S
C829 O853 1.247 . S
C829 O855 1.289 . S
Mg830 O831 1.926 . S
Mg830 O840 1.984 . S
Mg830 O842 1.988 . S
Mg830 O843 2.061 . S
O831 Mg830 1.926 . S
O831 Mg832 1.986 1_545 S
O831 Mg833 1.927 . S
Mg832 O831 1.986 1_565 S
Mg832 O839 2.042 1_565 S
Mg832 O841 2.041 1_565 S
Mg832 O847 2.038 . S
Mg832 O855 2.238 . S
Mg833 O831 1.927 . S
Mg833 O834 1.907 1_545 S
Mg833 O844 2.107 . S
Mg833 O846 2.073 1_545 S
Mg833 O855 2.106 1_545 S
Mg833 O856 2.085 . S
O834 Mg833 1.907 1_565 S
O834 Mg835 1.926 . S
O834 Mg836 1.986 1_565 S
Mg835 O834 1.926 . S
Mg835 O849 1.984 . S
Mg835 O852 1.988 . S
Mg835 O853 2.061 . S
Mg836 O834 1.986 1_545 S
Mg836 O844 2.238 . S
Mg836 O848 2.042 1_545 S
Mg836 O850 2.041 1_545 S
Mg836 O857 2.038 . S
C837 O843 1.247 . S
C837 O844 1.289 . S
C838 O856 1.245 . S
C838 O857 1.274 . S
O839 C827 1.241 . S
O839 Mg832 2.042 1_545 S
O840 C827 1.280 . S
O840 Mg830 1.984 . S
O841 C828 1.277 . S
O841 Mg832 2.041 1_545 S
O842 C828 1.245 . S
O842 Mg830 1.988 . S
O843 Mg830 2.061 . S
O843 C837 1.247 . S
O844 Mg833 2.107 . S
O844 Mg836 2.238 . S
O844 C837 1.289 . S
C845 O846 1.245 . S
C845 O847 1.274 . S
O846 Mg833 2.073 1_565 S
O846 C845 1.245 . S
O847 Mg832 2.038 . S
O847 C845 1.274 . S
O848 Mg836 2.042 1_565 S
O848 C851 1.241 . S
O849 Mg835 1.984 . S
O849 C851 1.280 . S
O850 Mg836 2.041 1_565 S
O850 C854 1.277 . S
C851 O848 1.241 . S
C851 O849 1.280 . S
O852 Mg835 1.988 . S
O852 C854 1.245 . S
O853 C829 1.247 . S
O853 Mg835 2.061 . S
C854 O850 1.277 . S
C854 O852 1.245 . S
O855 C829 1.289 . S
O855 Mg832 2.238 . S
O855 Mg833 2.106 1_565 S
O856 Mg833 2.085 . S
O856 C838 1.245 . S
O857 Mg836 2.038 . S
O857 C838 1.274 . S
C858 C859 1.387 . S
C858 H862 0.950 . S
C858 C867 1.390 . S
C859 C858 1.387 . S
C859 C861 1.387 . S
H860 C867 0.950 . S
C861 C859 1.387 . S
C861 C863 1.390 . S
C861 H865 0.950 . S
H862 C858 0.950 . S
C863 C861 1.390 . S
C863 C864 1.387 . S
C863 H866 0.950 . S
C864 C863 1.387 . S
C864 C867 1.387 . S
H865 C861 0.950 . S
H866 C863 0.950 . S
C867 C858 1.390 . S
C867 H860 0.950 . S
C867 C864 1.387 . S
C868 C869 1.387 . S
C868 H872 0.950 . S
C868 C877 1.390 . S
C869 C868 1.387 . S
C869 C871 1.387 . S
H870 C877 0.950 . S
C871 C869 1.387 . S
C871 C873 1.390 . S
C871 H875 0.950 . S
H872 C868 0.950 . S
C873 C871 1.390 . S
C873 C874 1.387 . S
C873 H876 0.950 . S
C874 C873 1.387 . S
C874 C877 1.387 . S
H875 C871 0.950 . S
H876 C873 0.950 . S
C877 C868 1.390 . S
C877 H870 0.950 . S
C877 C874 1.387 . S
C878 C879 1.387 . S
C878 H882 0.950 . S
C878 C887 1.390 . S
C879 C878 1.387 . S
C879 C881 1.387 . S
H880 C887 0.950 . S
C881 C879 1.387 . S
C881 C883 1.390 . S
C881 H885 0.950 . S
H882 C878 0.950 . S
C883 C881 1.390 . S
C883 C884 1.387 . S
C883 H886 0.950 . S
C884 C883 1.387 . S
C884 C887 1.387 . S
H885 C881 0.950 . S
H886 C883 0.950 . S
C887 C878 1.390 . S
C887 H880 0.950 . S
C887 C884 1.387 . S
C888 C889 1.387 . S
C888 H892 0.950 . S
C888 C897 1.390 . S
C889 C888 1.387 . S
C889 C891 1.387 . S
H890 C897 0.950 . S
C891 C889 1.387 . S
C891 C893 1.390 . S
C891 H895 0.950 . S
H892 C888 0.950 . S
C893 C891 1.390 . S
C893 C894 1.387 . S
C893 H896 0.950 . S
C894 C893 1.387 . S
C894 C897 1.387 . S
H895 C891 0.950 . S
H896 C893 0.950 . S
C897 C888 1.390 . S
C897 H890 0.950 . S
C897 C894 1.387 . S
C898 C899 1.387 . S
C898 H902 0.950 . S
C898 C907 1.390 . S
C899 C898 1.387 . S
C899 C901 1.387 . S
H900 C907 0.950 . S
C901 C899 1.387 . S
C901 C903 1.390 . S
C901 H905 0.950 . S
H902 C898 0.950 . S
C903 C901 1.390 . S
C903 C904 1.387 . S
C903 H906 0.950 . S
C904 C903 1.387 . S
C904 C907 1.387 . S
H905 C901 0.950 . S
H906 C903 0.950 . S
C907 C898 1.390 . S
C907 H900 0.950 . S
C907 C904 1.387 . S
C908 C909 1.387 . S
C908 H912 0.950 . S
C908 C917 1.390 . S
C909 C908 1.387 . S
C909 C911 1.387 . S
H910 C917 0.950 . S
C911 C909 1.387 . S
C911 C913 1.390 . S
C911 H915 0.950 . S
H912 C908 0.950 . S
C913 C911 1.390 . S
C913 C914 1.387 . S
C913 H916 0.950 . S
C914 C913 1.387 . S
C914 C917 1.387 . S
H915 C911 0.950 . S
H916 C913 0.950 . S
C917 C908 1.390 . S
C917 H910 0.950 . S
C917 C914 1.387 . S
C918 C919 1.387 . S
C918 H922 0.950 . S
C918 C927 1.390 . S
C919 C918 1.387 . S
C919 C921 1.387 . S
H920 C927 0.950 . S
C921 C919 1.387 . S
C921 C923 1.390 . S
C921 H925 0.950 . S
H922 C918 0.950 . S
C923 C921 1.390 . S
C923 C924 1.387 . S
C923 H926 0.950 . S
C924 C923 1.387 . S
C924 C927 1.387 . S
H925 C921 0.950 . S
H926 C923 0.950 . S
C927 C918 1.390 . S
C927 H920 0.950 . S
C927 C924 1.387 . S
C928 C929 1.387 . S
C928 H932 0.950 . S
C928 C937 1.390 . S
C929 C928 1.387 . S
C929 C931 1.387 . S
H930 C937 0.950 . S
C931 C929 1.387 . S
C931 C933 1.390 . S
C931 H935 0.950 . S
H932 C928 0.950 . S
C933 C931 1.390 . S
C933 C934 1.387 . S
C933 H936 0.950 . S
C934 C933 1.387 . S
C934 C937 1.387 . S
H935 C931 0.950 . S
H936 C933 0.950 . S
C937 C928 1.390 . S
C937 H930 0.950 . S
C937 C934 1.387 . S
C938 C939 1.387 . S
C938 H942 0.950 . S
C938 C947 1.390 . S
C939 C938 1.387 . S
C939 C941 1.387 . S
H940 C947 0.950 . S
C941 C939 1.387 . S
C941 C943 1.390 . S
C941 H945 0.950 . S
H942 C938 0.950 . S
C943 C941 1.390 . S
C943 C944 1.387 . S
C943 H946 0.950 . S
C944 C943 1.387 . S
C944 C947 1.387 . S
H945 C941 0.950 . S
H946 C943 0.950 . S
C947 C938 1.390 . S
C947 H940 0.950 . S
C947 C944 1.387 . S
C948 C949 1.387 . S
C948 H952 0.950 . S
C948 C957 1.390 . S
C949 C948 1.387 . S
C949 C951 1.387 . S
H950 C957 0.950 . S
C951 C949 1.387 . S
C951 C953 1.390 . S
C951 H955 0.950 . S
H952 C948 0.950 . S
C953 C951 1.390 . S
C953 C954 1.387 . S
C953 H956 0.950 . S
C954 C953 1.387 . S
C954 C957 1.387 . S
H955 C951 0.950 . S
H956 C953 0.950 . S
C957 C948 1.390 . S
C957 H950 0.950 . S
C957 C954 1.387 . S
C958 C959 1.387 . S
C958 H962 0.950 . S
C958 C967 1.390 . S
C959 C958 1.387 . S
C959 C961 1.387 . S
H960 C967 0.950 . S
C961 C959 1.387 . S
C961 C963 1.390 . S
C961 H965 0.950 . S
H962 C958 0.950 . S
C963 C961 1.390 . S
C963 C964 1.387 . S
C963 H966 0.950 . S
C964 C963 1.387 . S
C964 C967 1.387 . S
H965 C961 0.950 . S
H966 C963 0.950 . S
C967 C958 1.390 . S
C967 H960 0.950 . S
C967 C964 1.387 . S
C968 C969 1.387 . S
C968 H972 0.950 . S
C968 C977 1.390 . S
C969 C968 1.387 . S
C969 C971 1.387 . S
H970 C977 0.950 . S
C971 C969 1.387 . S
C971 C973 1.390 . S
C971 H975 0.950 . S
H972 C968 0.950 . S
C973 C971 1.390 . S
C973 C974 1.387 . S
C973 H976 0.950 . S
C974 C973 1.387 . S
C974 C977 1.387 . S
H975 C971 0.950 . S
H976 C973 0.950 . S
C977 C968 1.390 . S
C977 H970 0.950 . S
C977 C974 1.387 . S
C978 C979 1.387 . S
C978 H982 0.950 . S
C978 C987 1.390 . S
C979 C978 1.387 . S
C979 C981 1.387 . S
H980 C987 0.950 . S
C981 C979 1.387 . S
C981 C983 1.390 . S
C981 H985 0.950 . S
H982 C978 0.950 . S
C983 C981 1.390 . S
C983 C984 1.387 . S
C983 H986 0.950 . S
C984 C983 1.387 . S
C984 C987 1.387 . S
H985 C981 0.950 . S
H986 C983 0.950 . S
C987 C978 1.390 . S
C987 H980 0.950 . S
C987 C984 1.387 . S
C988 C989 1.387 . S
C988 H992 0.950 . S
C988 C997 1.390 . S
C989 C988 1.387 . S
C989 C991 1.387 . S
H990 C997 0.950 . S
C991 C989 1.387 . S
C991 C993 1.390 . S
C991 H995 0.950 . S
H992 C988 0.950 . S
C993 C991 1.390 . S
C993 C994 1.387 . S
C993 H996 0.950 . S
C994 C993 1.387 . S
C994 C997 1.387 . S
H995 C991 0.950 . S
H996 C993 0.950 . S
C997 C988 1.390 . S
C997 H990 0.950 . S
C997 C994 1.387 . S
C998 C999 1.387 . S
C998 H1002 0.950 . S
C998 C1007 1.390 . S
C999 C998 1.387 . S
C999 C1001 1.387 . S
H1000 C1007 0.950 . S
C1001 C999 1.387 . S
C1001 C1003 1.390 . S
C1001 H1005 0.950 . S
H1002 C998 0.950 . S
C1003 C1001 1.390 . S
C1003 C1004 1.387 . S
C1003 H1006 0.950 . S
C1004 C1003 1.387 . S
C1004 C1007 1.387 . S
H1005 C1001 0.950 . S
H1006 C1003 0.950 . S
C1007 C998 1.390 . S
C1007 H1000 0.950 . S
C1007 C1004 1.387 . S
C1008 C1009 1.387 . S
C1008 H1012 0.950 . S
C1008 C1017 1.390 . S
C1009 C1008 1.387 . S
C1009 C1011 1.387 . S
H1010 C1017 0.950 . S
C1011 C1009 1.387 . S
C1011 C1013 1.390 . S
C1011 H1015 0.950 . S
H1012 C1008 0.950 . S
C1013 C1011 1.390 . S
C1013 C1014 1.387 . S
C1013 H1016 0.950 . S
C1014 C1013 1.387 . S
C1014 C1017 1.387 . S
H1015 C1011 0.950 . S
H1016 C1013 0.950 . S
C1017 C1008 1.390 . S
C1017 H1010 0.950 . S
C1017 C1014 1.387 . S
C1018 C1019 1.387 . S
C1018 H1022 0.950 . S
C1018 C1027 1.390 . S
C1019 C1018 1.387 . S
C1019 C1021 1.387 . S
H1020 C1027 0.950 . S
C1021 C1019 1.387 . S
C1021 C1023 1.390 . S
C1021 H1025 0.950 . S
H1022 C1018 0.950 . S
C1023 C1021 1.390 . S
C1023 C1024 1.387 . S
C1023 H1026 0.950 . S
C1024 C1023 1.387 . S
C1024 C1027 1.387 . S
H1025 C1021 0.950 . S
H1026 C1023 0.950 . S
C1027 C1018 1.390 . S
C1027 H1020 0.950 . S
C1027 C1024 1.387 . S
C1028 C1029 1.387 . S
C1028 H1032 0.950 . S
C1028 C1037 1.390 . S
C1029 C1028 1.387 . S
C1029 C1031 1.387 . S
H1030 C1037 0.950 . S
C1031 C1029 1.387 . S
C1031 C1033 1.390 . S
C1031 H1035 0.950 . S
H1032 C1028 0.950 . S
C1033 C1031 1.390 . S
C1033 C1034 1.387 . S
C1033 H1036 0.950 . S
C1034 C1033 1.387 . S
C1034 C1037 1.387 . S
H1035 C1031 0.950 . S
H1036 C1033 0.950 . S
C1037 C1028 1.390 . S
C1037 H1030 0.950 . S
C1037 C1034 1.387 . S
C1038 C1039 1.387 . S
C1038 H1042 0.950 . S
C1038 C1047 1.390 . S
C1039 C1038 1.387 . S
C1039 C1041 1.387 . S
H1040 C1047 0.950 . S
C1041 C1039 1.387 . S
C1041 C1043 1.390 . S
C1041 H1045 0.950 . S
H1042 C1038 0.950 . S
C1043 C1041 1.390 . S
C1043 C1044 1.387 . S
C1043 H1046 0.950 . S
C1044 C1043 1.387 . S
C1044 C1047 1.387 . S
H1045 C1041 0.950 . S
H1046 C1043 0.950 . S
C1047 C1038 1.390 . S
C1047 H1040 0.950 . S
C1047 C1044 1.387 . S
C1048 C1049 1.387 . S
C1048 H1052 0.950 . S
C1048 C1057 1.390 . S
C1049 C1048 1.387 . S
C1049 C1051 1.387 . S
H1050 C1057 0.950 . S
C1051 C1049 1.387 . S
C1051 C1053 1.390 . S
C1051 H1055 0.950 . S
H1052 C1048 0.950 . S
C1053 C1051 1.390 . S
C1053 C1054 1.387 . S
C1053 H1056 0.950 . S
C1054 C1053 1.387 . S
C1054 C1057 1.387 . S
H1055 C1051 0.950 . S
H1056 C1053 0.950 . S
C1057 C1048 1.390 . S
C1057 H1050 0.950 . S
C1057 C1054 1.387 . S
C1058 C1059 1.387 . S
C1058 H1062 0.950 . S
C1058 C1067 1.390 . S
C1059 C1058 1.387 . S
C1059 C1061 1.387 . S
H1060 C1067 0.950 . S
C1061 C1059 1.387 . S
C1061 C1063 1.390 . S
C1061 H1065 0.950 . S
H1062 C1058 0.950 . S
C1063 C1061 1.390 . S
C1063 C1064 1.387 . S
C1063 H1066 0.950 . S
C1064 C1063 1.387 . S
C1064 C1067 1.387 . S
H1065 C1061 0.950 . S
H1066 C1063 0.950 . S
C1067 C1058 1.390 . S
C1067 H1060 0.950 . S
C1067 C1064 1.387 . S
C1068 C1069 1.387 . S
C1068 H1072 0.950 . S
C1068 C1077 1.390 . S
C1069 C1068 1.387 . S
C1069 C1071 1.387 . S
H1070 C1077 0.950 . S
C1071 C1069 1.387 . S
C1071 C1073 1.390 . S
C1071 H1075 0.950 . S
H1072 C1068 0.950 . S
C1073 C1071 1.390 . S
C1073 C1074 1.387 . S
C1073 H1076 0.950 . S
C1074 C1073 1.387 . S
C1074 C1077 1.387 . S
H1075 C1071 0.950 . S
H1076 C1073 0.950 . S
C1077 C1068 1.390 . S
C1077 H1070 0.950 . S
C1077 C1074 1.387 . S
C1078 C1079 1.387 . S
C1078 H1082 0.950 . S
C1078 C1087 1.390 . S
C1079 C1078 1.387 . S
C1079 C1081 1.387 . S
H1080 C1087 0.950 . S
C1081 C1079 1.387 . S
C1081 C1083 1.390 . S
C1081 H1085 0.950 . S
H1082 C1078 0.950 . S
C1083 C1081 1.390 . S
C1083 C1084 1.387 . S
C1083 H1086 0.950 . S
C1084 C1083 1.387 . S
C1084 C1087 1.387 . S
H1085 C1081 0.950 . S
H1086 C1083 0.950 . S
C1087 C1078 1.390 . S
C1087 H1080 0.950 . S
C1087 C1084 1.387 . S
C1088 C1089 1.387 . S
C1088 H1092 0.950 . S
C1088 C1097 1.390 . S
C1089 C1088 1.387 . S
C1089 C1091 1.387 . S
H1090 C1097 0.950 . S
C1091 C1089 1.387 . S
C1091 C1093 1.390 . S
C1091 H1095 0.950 . S
H1092 C1088 0.950 . S
C1093 C1091 1.390 . S
C1093 C1094 1.387 . S
C1093 H1096 0.950 . S
C1094 C1093 1.387 . S
C1094 C1097 1.387 . S
H1095 C1091 0.950 . S
H1096 C1093 0.950 . S
C1097 C1088 1.390 . S
C1097 H1090 0.950 . S
C1097 C1094 1.387 . S
C1098 C1099 1.387 . S
C1098 H1102 0.950 . S
C1098 C1107 1.390 . S
C1099 C1098 1.387 . S
C1099 C1101 1.387 . S
H1100 C1107 0.950 . S
C1101 C1099 1.387 . S
C1101 C1103 1.390 . S
C1101 H1105 0.950 . S
H1102 C1098 0.950 . S
C1103 C1101 1.390 . S
C1103 C1104 1.387 . S
C1103 H1106 0.950 . S
C1104 C1103 1.387 . S
C1104 C1107 1.387 . S
H1105 C1101 0.950 . S
H1106 C1103 0.950 . S
C1107 C1098 1.390 . S
C1107 H1100 0.950 . S
C1107 C1104 1.387 . S
C1108 C1109 1.387 . S
C1108 H1112 0.950 . S
C1108 C1117 1.390 . S
C1109 C1108 1.387 . S
C1109 C1111 1.387 . S
H1110 C1117 0.950 . S
C1111 C1109 1.387 . S
C1111 C1113 1.390 . S
C1111 H1115 0.950 . S
H1112 C1108 0.950 . S
C1113 C1111 1.390 . S
C1113 C1114 1.387 . S
C1113 H1116 0.950 . S
C1114 C1113 1.387 . S
C1114 C1117 1.387 . S
H1115 C1111 0.950 . S
H1116 C1113 0.950 . S
C1117 C1108 1.390 . S
C1117 H1110 0.950 . S
C1117 C1114 1.387 . S
C1118 C1119 1.387 . S
C1118 H1122 0.950 . S
C1118 C1127 1.390 . S
C1119 C1118 1.387 . S
C1119 C1121 1.387 . S
H1120 C1127 0.950 . S
C1121 C1119 1.387 . S
C1121 C1123 1.390 . S
C1121 H1125 0.950 . S
H1122 C1118 0.950 . S
C1123 C1121 1.390 . S
C1123 C1124 1.387 . S
C1123 H1126 0.950 . S
C1124 C1123 1.387 . S
C1124 C1127 1.387 . S
H1125 C1121 0.950 . S
H1126 C1123 0.950 . S
C1127 C1118 1.390 . S
C1127 H1120 0.950 . S
C1127 C1124 1.387 . S
C1128 C1129 1.387 . S
C1128 H1132 0.950 . S
C1128 C1137 1.390 . S
C1129 C1128 1.387 . S
C1129 C1131 1.387 . S
H1130 C1137 0.950 . S
C1131 C1129 1.387 . S
C1131 C1133 1.390 . S
C1131 H1135 0.950 . S
H1132 C1128 0.950 . S
C1133 C1131 1.390 . S
C1133 C1134 1.387 . S
C1133 H1136 0.950 . S
C1134 C1133 1.387 . S
C1134 C1137 1.387 . S
H1135 C1131 0.950 . S
H1136 C1133 0.950 . S
C1137 C1128 1.390 . S
C1137 H1130 0.950 . S
C1137 C1134 1.387 . S
C1138 C1139 1.387 . S
C1138 H1142 0.950 . S
C1138 C1147 1.390 . S
C1139 C1138 1.387 . S
C1139 C1141 1.387 . S
H1140 C1147 0.950 . S
C1141 C1139 1.387 . S
C1141 C1143 1.390 . S
C1141 H1145 0.950 . S
H1142 C1138 0.950 . S
C1143 C1141 1.390 . S
C1143 C1144 1.387 . S
C1143 H1146 0.950 . S
C1144 C1143 1.387 . S
C1144 C1147 1.387 . S
H1145 C1141 0.950 . S
H1146 C1143 0.950 . S
C1147 C1138 1.390 . S
C1147 H1140 0.950 . S
C1147 C1144 1.387 . S
C1148 C1149 1.387 . S
C1148 H1152 0.950 . S
C1148 C1157 1.390 . S
C1149 C1148 1.387 . S
C1149 C1151 1.387 . S
H1150 C1157 0.950 . S
C1151 C1149 1.387 . S
C1151 C1153 1.390 . S
C1151 H1155 0.950 . S
H1152 C1148 0.950 . S
C1153 C1151 1.390 . S
C1153 C1154 1.387 . S
C1153 H1156 0.950 . S
C1154 C1153 1.387 . S
C1154 C1157 1.387 . S
H1155 C1151 0.950 . S
H1156 C1153 0.950 . S
C1157 C1148 1.390 . S
C1157 H1150 0.950 . S
C1157 C1154 1.387 . S
C1158 C1159 1.387 . S
C1158 H1162 0.950 . S
C1158 C1167 1.390 . S
C1159 C1158 1.387 . S
C1159 C1161 1.387 . S
H1160 C1167 0.950 . S
C1161 C1159 1.387 . S
C1161 C1163 1.390 . S
C1161 H1165 0.950 . S
H1162 C1158 0.950 . S
C1163 C1161 1.390 . S
C1163 C1164 1.387 . S
C1163 H1166 0.950 . S
C1164 C1163 1.387 . S
C1164 C1167 1.387 . S
H1165 C1161 0.950 . S
H1166 C1163 0.950 . S
C1167 C1158 1.390 . S
C1167 H1160 0.950 . S
C1167 C1164 1.387 . S
C1168 C1169 1.387 . S
C1168 H1172 0.950 . S
C1168 C1177 1.390 . S
C1169 C1168 1.387 . S
C1169 C1171 1.387 . S
H1170 C1177 0.950 . S
C1171 C1169 1.387 . S
C1171 C1173 1.390 . S
C1171 H1175 0.950 . S
H1172 C1168 0.950 . S
C1173 C1171 1.390 . S
C1173 C1174 1.387 . S
C1173 H1176 0.950 . S
C1174 C1173 1.387 . S
C1174 C1177 1.387 . S
H1175 C1171 0.950 . S
H1176 C1173 0.950 . S
C1177 C1168 1.390 . S
C1177 H1170 0.950 . S
C1177 C1174 1.387 . S
C1178 C1179 1.387 . S
C1178 H1182 0.950 . S
C1178 C1187 1.390 . S
C1179 C1178 1.387 . S
C1179 C1181 1.387 . S
H1180 C1187 0.950 . S
C1181 C1179 1.387 . S
C1181 C1183 1.390 . S
C1181 H1185 0.950 . S
H1182 C1178 0.950 . S
C1183 C1181 1.390 . S
C1183 C1184 1.387 . S
C1183 H1186 0.950 . S
C1184 C1183 1.387 . S
C1184 C1187 1.387 . S
H1185 C1181 0.950 . S
H1186 C1183 0.950 . S
C1187 C1178 1.390 . S
C1187 H1180 0.950 . S
C1187 C1184 1.387 . S
C1188 C1189 1.387 . S
C1188 H1192 0.950 . S
C1188 C1197 1.390 . S
C1189 C1188 1.387 . S
C1189 C1191 1.387 . S
H1190 C1197 0.950 . S
C1191 C1189 1.387 . S
C1191 C1193 1.390 . S
C1191 H1195 0.950 . S
H1192 C1188 0.950 . S
C1193 C1191 1.390 . S
C1193 C1194 1.387 . S
C1193 H1196 0.950 . S
C1194 C1193 1.387 . S
C1194 C1197 1.387 . S
H1195 C1191 0.950 . S
H1196 C1193 0.950 . S
C1197 C1188 1.390 . S
C1197 H1190 0.950 . S
C1197 C1194 1.387 . S
C1198 C1199 1.387 . S
C1198 H1202 0.950 . S
C1198 C1207 1.390 . S
C1199 C1198 1.387 . S
C1199 C1201 1.387 . S
H1200 C1207 0.950 . S
C1201 C1199 1.387 . S
C1201 C1203 1.390 . S
C1201 H1205 0.950 . S
H1202 C1198 0.950 . S
C1203 C1201 1.390 . S
C1203 C1204 1.387 . S
C1203 H1206 0.950 . S
C1204 C1203 1.387 . S
C1204 C1207 1.387 . S
H1205 C1201 0.950 . S
H1206 C1203 0.950 . S
C1207 C1198 1.390 . S
C1207 H1200 0.950 . S
C1207 C1204 1.387 . S
C1208 C1209 1.387 . S
C1208 H1212 0.950 . S
C1208 C1217 1.390 . S
C1209 C1208 1.387 . S
C1209 C1211 1.387 . S
H1210 C1217 0.950 . S
C1211 C1209 1.387 . S
C1211 C1213 1.390 . S
C1211 H1215 0.950 . S
H1212 C1208 0.950 . S
C1213 C1211 1.390 . S
C1213 C1214 1.387 . S
C1213 H1216 0.950 . S
C1214 C1213 1.387 . S
C1214 C1217 1.387 . S
H1215 C1211 0.950 . S
H1216 C1213 0.950 . S
C1217 C1208 1.390 . S
C1217 H1210 0.950 . S
C1217 C1214 1.387 . S
C1218 C1219 1.387 . S
C1218 H1222 0.950 . S
C1218 C1227 1.390 . S
C1219 C1218 1.387 . S
C1219 C1221 1.387 . S
H1220 C1227 0.950 . S
C1221 C1219 1.387 . S
C1221 C1223 1.390 . S
C1221 H1225 0.950 . S
H1222 C1218 0.950 . S
C1223 C1221 1.390 . S
C1223 C1224 1.387 . S
C1223 H1226 0.950 . S
C1224 C1223 1.387 . S
C1224 C1227 1.387 . S
H1225 C1221 0.950 . S
H1226 C1223 0.950 . S
C1227 C1218 1.390 . S
C1227 H1220 0.950 . S
C1227 C1224 1.387 . S
C1228 C1229 1.387 . S
C1228 H1232 0.950 . S
C1228 C1237 1.390 . S
C1229 C1228 1.387 . S
C1229 C1231 1.387 . S
H1230 C1237 0.950 . S
C1231 C1229 1.387 . S
C1231 C1233 1.390 . S
C1231 H1235 0.950 . S
H1232 C1228 0.950 . S
C1233 C1231 1.390 . S
C1233 C1234 1.387 . S
C1233 H1236 0.950 . S
C1234 C1233 1.387 . S
C1234 C1237 1.387 . S
H1235 C1231 0.950 . S
H1236 C1233 0.950 . S
C1237 C1228 1.390 . S
C1237 H1230 0.950 . S
C1237 C1234 1.387 . S
C1238 C1239 1.387 . S
C1238 H1242 0.950 . S
C1238 C1247 1.390 . S
C1239 C1238 1.387 . S
C1239 C1241 1.387 . S
H1240 C1247 0.950 . S
C1241 C1239 1.387 . S
C1241 C1243 1.390 . S
C1241 H1245 0.950 . S
H1242 C1238 0.950 . S
C1243 C1241 1.390 . S
C1243 C1244 1.387 . S
C1243 H1246 0.950 . S
C1244 C1243 1.387 . S
C1244 C1247 1.387 . S
H1245 C1241 0.950 . S
H1246 C1243 0.950 . S
C1247 C1238 1.390 . S
C1247 H1240 0.950 . S
C1247 C1244 1.387 . S
C1248 C1249 1.387 . S
C1248 H1252 0.950 . S
C1248 C1257 1.390 . S
C1249 C1248 1.387 . S
C1249 C1251 1.387 . S
H1250 C1257 0.950 . S
C1251 C1249 1.387 . S
C1251 C1253 1.390 . S
C1251 H1255 0.950 . S
H1252 C1248 0.950 . S
C1253 C1251 1.390 . S
C1253 C1254 1.387 . S
C1253 H1256 0.950 . S
C1254 C1253 1.387 . S
C1254 C1257 1.387 . S
H1255 C1251 0.950 . S
H1256 C1253 0.950 . S
C1257 C1248 1.390 . S
C1257 H1250 0.950 . S
C1257 C1254 1.387 . S
C1258 C1259 1.387 . S
C1258 H1262 0.950 . S
C1258 C1267 1.390 . S
C1259 C1258 1.387 . S
C1259 C1261 1.387 . S
H1260 C1267 0.950 . S
C1261 C1259 1.387 . S
C1261 C1263 1.390 . S
C1261 H1265 0.950 . S
H1262 C1258 0.950 . S
C1263 C1261 1.390 . S
C1263 C1264 1.387 . S
C1263 H1266 0.950 . S
C1264 C1263 1.387 . S
C1264 C1267 1.387 . S
H1265 C1261 0.950 . S
H1266 C1263 0.950 . S
C1267 C1258 1.390 . S
C1267 H1260 0.950 . S
C1267 C1264 1.387 . S
C1268 C1269 1.387 . S
C1268 H1272 0.950 . S
C1268 C1277 1.390 . S
C1269 C1268 1.387 . S
C1269 C1271 1.387 . S
H1270 C1277 0.950 . S
C1271 C1269 1.387 . S
C1271 C1273 1.390 . S
C1271 H1275 0.950 . S
H1272 C1268 0.950 . S
C1273 C1271 1.390 . S
C1273 C1274 1.387 . S
C1273 H1276 0.950 . S
C1274 C1273 1.387 . S
C1274 C1277 1.387 . S
H1275 C1271 0.950 . S
H1276 C1273 0.950 . S
C1277 C1268 1.390 . S
C1277 H1270 0.950 . S
C1277 C1274 1.387 . S
C1278 C1279 1.387 . S
C1278 H1282 0.950 . S
C1278 C1287 1.390 . S
C1279 C1278 1.387 . S
C1279 C1281 1.387 . S
H1280 C1287 0.950 . S
C1281 C1279 1.387 . S
C1281 C1283 1.390 . S
C1281 H1285 0.950 . S
H1282 C1278 0.950 . S
C1283 C1281 1.390 . S
C1283 C1284 1.387 . S
C1283 H1286 0.950 . S
C1284 C1283 1.387 . S
C1284 C1287 1.387 . S
H1285 C1281 0.950 . S
H1286 C1283 0.950 . S
C1287 C1278 1.390 . S
C1287 H1280 0.950 . S
C1287 C1284 1.387 . S
C1288 C1289 1.387 . S
C1288 H1292 0.950 . S
C1288 C1297 1.390 . S
C1289 C1288 1.387 . S
C1289 C1291 1.387 . S
H1290 C1297 0.950 . S
C1291 C1289 1.387 . S
C1291 C1293 1.390 . S
C1291 H1295 0.950 . S
H1292 C1288 0.950 . S
C1293 C1291 1.390 . S
C1293 C1294 1.387 . S
C1293 H1296 0.950 . S
C1294 C1293 1.387 . S
C1294 C1297 1.387 . S
H1295 C1291 0.950 . S
H1296 C1293 0.950 . S
C1297 C1288 1.390 . S
C1297 H1290 0.950 . S
C1297 C1294 1.387 . S
C1298 C1299 1.387 . S
C1298 H1302 0.950 . S
C1298 C1307 1.390 . S
C1299 C1298 1.387 . S
C1299 C1301 1.387 . S
H1300 C1307 0.950 . S
C1301 C1299 1.387 . S
C1301 C1303 1.390 . S
C1301 H1305 0.950 . S
H1302 C1298 0.950 . S
C1303 C1301 1.390 . S
C1303 C1304 1.387 . S
C1303 H1306 0.950 . S
C1304 C1303 1.387 . S
C1304 C1307 1.387 . S
H1305 C1301 0.950 . S
H1306 C1303 0.950 . S
C1307 C1298 1.390 . S
C1307 H1300 0.950 . S
C1307 C1304 1.387 . S
C1308 C1309 1.387 . S
C1308 H1312 0.950 . S
C1308 C1317 1.390 . S
C1309 C1308 1.387 . S
C1309 C1311 1.387 . S
H1310 C1317 0.950 . S
C1311 C1309 1.387 . S
C1311 C1313 1.390 . S
C1311 H1315 0.950 . S
H1312 C1308 0.950 . S
C1313 C1311 1.390 . S
C1313 C1314 1.387 . S
C1313 H1316 0.950 . S
C1314 C1313 1.387 . S
C1314 C1317 1.387 . S
H1315 C1311 0.950 . S
H1316 C1313 0.950 . S
C1317 C1308 1.390 . S
C1317 H1310 0.950 . S
C1317 C1314 1.387 . S
C1318 C1319 1.387 . S
C1318 H1322 0.950 . S
C1318 C1327 1.390 . S
C1319 C1318 1.387 . S
C1319 C1321 1.387 . S
H1320 C1327 0.950 . S
C1321 C1319 1.387 . S
C1321 C1323 1.390 . S
C1321 H1325 0.950 . S
H1322 C1318 0.950 . S
C1323 C1321 1.390 . S
C1323 C1324 1.387 . S
C1323 H1326 0.950 . S
C1324 C1323 1.387 . S
C1324 C1327 1.387 . S
H1325 C1321 0.950 . S
H1326 C1323 0.950 . S
C1327 C1318 1.390 . S
C1327 H1320 0.950 . S
C1327 C1324 1.387 . S
C1328 C1329 1.387 . S
C1328 H1332 0.950 . S
C1328 C1337 1.390 . S
C1329 C1328 1.387 . S
C1329 C1331 1.387 . S
H1330 C1337 0.950 . S
C1331 C1329 1.387 . S
C1331 C1333 1.390 . S
C1331 H1335 0.950 . S
H1332 C1328 0.950 . S
C1333 C1331 1.390 . S
C1333 C1334 1.387 . S
C1333 H1336 0.950 . S
C1334 C1333 1.387 . S
C1334 C1337 1.387 . S
H1335 C1331 0.950 . S
H1336 C1333 0.950 . S
C1337 C1328 1.390 . S
C1337 H1330 0.950 . S
C1337 C1334 1.387 . S
C864 C683 1.747 . S
C859 C74 1.726 . S
C874 C673 1.302 . S
C869 C153 1.257 . S
C884 C674 1.438 . S
C879 C231 1.421 . S
C889 C310 0.916 . S
C894 C696 0.869 . S
C899 C394 1.258 . S
C904 C699 1.303 . S
C914 C682 1.438 . S
C909 C494 1.421 . S
C919 C573 0.920 . S
C924 C672 0.866 . S
C929 C651 1.727 . S
C934 C690 1.748 . S
C944 C703 2.422 . S
C939 C56 2.520 . S
C949 C151 1.682 . S
C954 C752 1.657 . S
C964 C730 1.359 . S
C959 C237 1.382 . S
C974 C744 1.427 . S
C969 C326 1.405 . S
C979 C410 1.418 . S
C984 C705 1.406 . S
C994 C758 2.423 . S
C989 C476 2.542 . S
C999 C571 1.690 . S
C1004 C714 1.679 . S
C1009 C657 1.276 . S
C1014 C735 1.311 . S
C1019 C58 1.276 . S
C1024 C761 1.312 . S
C1029 C392 1.683 . S
C1034 C745 1.656 . S
C1044 C704 1.363 . S
C1039 C478 1.381 . S
C1054 C736 1.427 . S
C1049 C567 1.405 . S
C1059 C655 2.520 . S
C1064 C727 2.422 . S
C1069 C235 2.542 . S
C1074 C734 2.425 . S
C1084 C721 1.680 . S
C1079 C308 1.690 . S
C1089 C147 1.417 . S
C1094 C713 1.405 . S
C1099 C662 1.726 . S
C1104 C776 1.747 . S
C1109 C405 1.255 . S
C1114 C766 1.303 . S
C1124 C767 1.439 . S
C1119 C483 1.423 . S
C1134 C789 0.861 . S
C1129 C562 0.914 . S
C1139 C142 1.257 . S
C1144 C792 1.304 . S
C1154 C775 1.439 . S
C1149 C242 1.424 . S
C1159 C321 0.917 . S
C1164 C765 0.863 . S
C1169 C63 1.726 . S
C1174 C783 1.748 . S
C1179 C644 2.520 . S
C1184 C796 2.421 . S
C1194 C845 1.657 . S
C1189 C403 1.682 . S
C1199 C489 1.382 . S
C1204 C823 1.359 . S
C1209 C578 1.403 . S
C1214 C837 1.426 . S
C1224 C798 1.406 . S
C1219 C158 1.417 . S
C1229 C224 2.542 . S
C1234 C851 2.423 . S
C1244 C807 1.678 . S
C1239 C319 1.691 . S
C1254 C828 1.312 . S
C1249 C69 1.281 . S
C1264 C854 1.312 . S
C1259 C646 1.276 . S
C1269 C140 1.683 . S
C1274 C838 1.656 . S
C1279 C226 1.381 . S
C1284 C797 1.363 . S
C1294 C829 1.426 . S
C1289 C315 1.405 . S
C1299 C67 2.520 . S
C1304 C820 2.421 . S
C1309 C487 2.542 . S
C1314 C827 2.424 . S
C1324 C814 1.679 . S
C1319 C560 1.690 . S
C1334 C806 1.406 . S
C1329 C399 1.417 . S
