# Generated by pormake.
# Topology ocu, (6,8)-cn, num edge types: 1
# Building blocks:
#     Node 0, Type 0, BuildingBlock: CUWYAW_clean_sbu_0, # of connection points: 6
#     Node 1, Type 0, BuildingBlock: CUWYAW_clean_sbu_0, # of connection points: 6
#     Node 2, Type 0, BuildingBlock: CUWYAW_clean_sbu_0, # of connection points: 6
#     Node 3, Type 0, BuildingBlock: CUWYAW_clean_sbu_0, # of connection points: 6
#     Node 4, Type 0, BuildingBlock: CUWYAW_clean_sbu_0, # of connection points: 6
#     Node 5, Type 0, BuildingBlock: CUWYAW_clean_sbu_0, # of connection points: 6
#     Node 6, Type 0, BuildingBlock: CUWYAW_clean_sbu_0, # of connection points: 6
#     Node 7, Type 0, BuildingBlock: CUWYAW_clean_sbu_0, # of connection points: 6
#     Node 8, Type 1, BuildingBlock: VETTIZ_charged_sbu_0, # of connection points: 8
#     Node 9, Type 1, BuildingBlock: VETTIZ_charged_sbu_0, # of connection points: 8
#     Node 10, Type 1, BuildingBlock: VETTIZ_charged_sbu_0, # of connection points: 8
#     Node 11, Type 1, BuildingBlock: VETTIZ_charged_sbu_0, # of connection points: 8
#     Node 12, Type 1, BuildingBlock: VETTIZ_charged_sbu_0, # of connection points: 8
#     Node 13, Type 1, BuildingBlock: VETTIZ_charged_sbu_0, # of connection points: 8
#     Edge 14, Type (0, 1), BuildingBlock: CIFDUS_clean_linker_0, # of connection points: 2
#     Edge 15, Type (0, 1), BuildingBlock: CIFDUS_clean_linker_0, # of connection points: 2
#     Edge 16, Type (0, 1), BuildingBlock: CIFDUS_clean_linker_0, # of connection points: 2
#     Edge 17, Type (0, 1), BuildingBlock: CIFDUS_clean_linker_0, # of connection points: 2
#     Edge 18, Type (0, 1), BuildingBlock: CIFDUS_clean_linker_0, # of connection points: 2
#     Edge 19, Type (0, 1), BuildingBlock: CIFDUS_clean_linker_0, # of connection points: 2
#     Edge 20, Type (0, 1), BuildingBlock: CIFDUS_clean_linker_0, # of connection points: 2
#     Edge 21, Type (0, 1), BuildingBlock: CIFDUS_clean_linker_0, # of connection points: 2
#     Edge 22, Type (0, 1), BuildingBlock: CIFDUS_clean_linker_0, # of connection points: 2
#     Edge 23, Type (0, 1), BuildingBlock: CIFDUS_clean_linker_0, # of connection points: 2
#     Edge 24, Type (0, 1), BuildingBlock: CIFDUS_clean_linker_0, # of connection points: 2
#     Edge 25, Type (0, 1), BuildingBlock: CIFDUS_clean_linker_0, # of connection points: 2
#     Edge 26, Type (0, 1), BuildingBlock: CIFDUS_clean_linker_0, # of connection points: 2
#     Edge 27, Type (0, 1), BuildingBlock: CIFDUS_clean_linker_0, # of connection points: 2
#     Edge 28, Type (0, 1), BuildingBlock: CIFDUS_clean_linker_0, # of connection points: 2
#     Edge 29, Type (0, 1), BuildingBlock: CIFDUS_clean_linker_0, # of connection points: 2
#     Edge 30, Type (0, 1), BuildingBlock: CIFDUS_clean_linker_0, # of connection points: 2
#     Edge 31, Type (0, 1), BuildingBlock: CIFDUS_clean_linker_0, # of connection points: 2
#     Edge 32, Type (0, 1), BuildingBlock: CIFDUS_clean_linker_0, # of connection points: 2
#     Edge 33, Type (0, 1), BuildingBlock: CIFDUS_clean_linker_0, # of connection points: 2
#     Edge 34, Type (0, 1), BuildingBlock: CIFDUS_clean_linker_0, # of connection points: 2
#     Edge 35, Type (0, 1), BuildingBlock: CIFDUS_clean_linker_0, # of connection points: 2
#     Edge 36, Type (0, 1), BuildingBlock: CIFDUS_clean_linker_0, # of connection points: 2
#     Edge 37, Type (0, 1), BuildingBlock: CIFDUS_clean_linker_0, # of connection points: 2
#     Edge 38, Type (0, 1), BuildingBlock: CIFDUS_clean_linker_0, # of connection points: 2
#     Edge 39, Type (0, 1), BuildingBlock: CIFDUS_clean_linker_0, # of connection points: 2
#     Edge 40, Type (0, 1), BuildingBlock: CIFDUS_clean_linker_0, # of connection points: 2
#     Edge 41, Type (0, 1), BuildingBlock: CIFDUS_clean_linker_0, # of connection points: 2
#     Edge 42, Type (0, 1), BuildingBlock: CIFDUS_clean_linker_0, # of connection points: 2
#     Edge 43, Type (0, 1), BuildingBlock: CIFDUS_clean_linker_0, # of connection points: 2
#     Edge 44, Type (0, 1), BuildingBlock: CIFDUS_clean_linker_0, # of connection points: 2
#     Edge 45, Type (0, 1), BuildingBlock: CIFDUS_clean_linker_0, # of connection points: 2
#     Edge 46, Type (0, 1), BuildingBlock: CIFDUS_clean_linker_0, # of connection points: 2
#     Edge 47, Type (0, 1), BuildingBlock: CIFDUS_clean_linker_0, # of connection points: 2
#     Edge 48, Type (0, 1), BuildingBlock: CIFDUS_clean_linker_0, # of connection points: 2
#     Edge 49, Type (0, 1), BuildingBlock: CIFDUS_clean_linker_0, # of connection points: 2
#     Edge 50, Type (0, 1), BuildingBlock: CIFDUS_clean_linker_0, # of connection points: 2
#     Edge 51, Type (0, 1), BuildingBlock: CIFDUS_clean_linker_0, # of connection points: 2
#     Edge 52, Type (0, 1), BuildingBlock: CIFDUS_clean_linker_0, # of connection points: 2
#     Edge 53, Type (0, 1), BuildingBlock: CIFDUS_clean_linker_0, # of connection points: 2
#     Edge 54, Type (0, 1), BuildingBlock: CIFDUS_clean_linker_0, # of connection points: 2
#     Edge 55, Type (0, 1), BuildingBlock: CIFDUS_clean_linker_0, # of connection points: 2
#     Edge 56, Type (0, 1), BuildingBlock: CIFDUS_clean_linker_0, # of connection points: 2
#     Edge 57, Type (0, 1), BuildingBlock: CIFDUS_clean_linker_0, # of connection points: 2
#     Edge 58, Type (0, 1), BuildingBlock: CIFDUS_clean_linker_0, # of connection points: 2
#     Edge 59, Type (0, 1), BuildingBlock: CIFDUS_clean_linker_0, # of connection points: 2
#     Edge 60, Type (0, 1), BuildingBlock: CIFDUS_clean_linker_0, # of connection points: 2
#     Edge 61, Type (0, 1), BuildingBlock: CIFDUS_clean_linker_0, # of connection points: 2
# Relax obj value: 0.171
# Max RMSD: 0.200
# Mean RMSD: 0.127
data_MOF--net-ocu--node1-CUWYAW_clean_sbu_0--node2-VETTIZ_charged_sbu_0--edge1-CIFDUS_clean_linker_0
_symmetry_space_group_name_H-M    P1
_symmetry_Int_Tables_number       1
_symmetry_cell_setting            triclinic
loop_
_symmetry_equiv_pos_as_xyz
'x, y, z'
_cell_length_a     36.905692
_cell_length_b     36.378052
_cell_length_c     34.82053
_cell_angle_alpha  83.441177
_cell_angle_beta   101.68007
_cell_angle_gamma 101.20844
loop_
_atom_site_label
_atom_site_type_symbol
_atom_site_fract_x
_atom_site_fract_y
_atom_site_fract_z
_atom_type_partial_charge
C0 C 0.32519 0.35307 0.39082 0.0
Eu1 Eu 0.31289 0.31279 0.33042 0.0
C2 C 0.30099 0.35815 0.41762 0.0
C3 C 0.31019 0.38939 0.43994 0.0
C4 C 0.2859 0.39528 0.46374 0.0
C5 C 0.25209 0.36989 0.46559 0.0
C6 C 0.24374 0.33788 0.44411 0.0
C7 C 0.26785 0.33222 0.42011 0.0
C8 C 0.35044 0.33656 0.2684 0.0
C9 C 0.23515 0.33382 0.26941 0.0
C10 C 0.26456 0.2188 0.222 0.0
Eu11 Eu 0.28114 0.26553 0.27726 0.0
C12 C 0.28002 0.18642 0.21542 0.0
C13 C 0.30139 0.16762 0.24684 0.0
C14 C 0.32397 0.14361 0.23936 0.0
C15 C 0.32458 0.13763 0.20052 0.0
C16 C 0.30056 0.15363 0.16938 0.0
C17 C 0.27849 0.17812 0.17681 0.0
C18 C 0.24769 0.24373 0.34365 0.0
C19 C 0.3611 0.24603 0.33307 0.0
O20 O 0.33294 0.31945 0.39288 0.0
O21 O 0.31616 0.36654 0.35458 0.0
O22 O 0.36578 0.33483 0.30523 0.0
O23 O 0.31488 0.32437 0.26523 0.0
O24 O 0.25731 0.33759 0.30472 0.0
O25 O 0.24063 0.30728 0.24933 0.0
O26 O 0.28735 0.25092 0.22027 0.0
O27 O 0.24725 0.215 0.25163 0.0
O28 O 0.22979 0.24727 0.30769 0.0
O29 O 0.28265 0.25418 0.34315 0.0
O30 O 0.33498 0.23748 0.30149 0.0
O31 O 0.35799 0.27513 0.35105 0.0
H32 H 0.33564 0.40968 0.43821 0.0
H33 H 0.29286 0.42056 0.47935 0.0
H34 H 0.21814 0.31764 0.44517 0.0
H35 H 0.26028 0.30796 0.4029 0.0
H36 H 0.30248 0.17328 0.27692 0.0
H37 H 0.34262 0.1316 0.26359 0.0
H38 H 0.30122 0.14963 0.13918 0.0
H39 H 0.26225 0.19249 0.15228 0.0
C40 C 0.85547 0.30242 0.23171 0.0
Eu41 Eu 0.8126 0.30605 0.28125 0.0
C42 C 0.8478 0.29486 0.19018 0.0
C43 C 0.87015 0.27418 0.17637 0.0
C44 C 0.86766 0.2732 0.1359 0.0
C45 C 0.84559 0.29622 0.10958 0.0
C46 C 0.81623 0.30739 0.12352 0.0
C47 C 0.81823 0.30799 0.16384 0.0
C48 C 0.74493 0.26198 0.25895 0.0
C49 C 0.74732 0.35574 0.26586 0.0
C50 C 0.74177 0.28727 0.39829 0.0
Eu51 Eu 0.77659 0.29697 0.34008 0.0
C52 C 0.75889 0.2725 0.4377 0.0
C53 C 0.76628 0.29406 0.47025 0.0
C54 C 0.78316 0.2798 0.50726 0.0
C55 C 0.79179 0.24313 0.51255 0.0
C56 C 0.78995 0.22474 0.47846 0.0
C57 C 0.77272 0.23865 0.44193 0.0
C58 C 0.84435 0.34345 0.3603 0.0
C59 C 0.83961 0.24682 0.35493 0.0
O60 O 0.84862 0.33428 0.24024 0.0
O61 O 0.84383 0.27401 0.25503 0.0
O62 O 0.75938 0.29078 0.23868 0.0
O63 O 0.76621 0.25771 0.29212 0.0
O64 O 0.77941 0.35386 0.25509 0.0
O65 O 0.73841 0.3333 0.29672 0.0
O66 O 0.7334 0.26392 0.37058 0.0
O67 O 0.75834 0.32043 0.38656 0.0
O68 O 0.83127 0.31445 0.38142 0.0
O69 O 0.82242 0.34597 0.32743 0.0
O70 O 0.80578 0.24603 0.36186 0.0
O71 O 0.85105 0.27331 0.32848 0.0
H72 H 0.89135 0.26127 0.19663 0.0
H73 H 0.88808 0.26064 0.12597 0.0
H74 H 0.79569 0.3218 0.10417 0.0
H75 H 0.79861 0.32139 0.17416 0.0
H76 H 0.7579 0.32133 0.46734 0.0
H77 H 0.78558 0.29568 0.53242 0.0
H78 H 0.79767 0.19731 0.48007 0.0
H79 H 0.76912 0.22189 0.41725 0.0
C80 C 0.77725 0.72798 0.37691 0.0
Eu81 Eu 0.78242 0.78357 0.32314 0.0
C82 C 0.7815 0.68865 0.37977 0.0
C83 C 0.78046 0.66727 0.41563 0.0
C84 C 0.79672 0.63506 0.42324 0.0
C85 C 0.81546 0.62522 0.39554 0.0
C86 C 0.81055 0.64291 0.35734 0.0
C87 C 0.79341 0.67459 0.34944 0.0
C88 C 0.73181 0.77699 0.25537 0.0
C89 C 0.836 0.76562 0.26018 0.0
C90 C 0.80801 0.89962 0.22011 0.0
Eu91 Eu 0.80338 0.84179 0.27114 0.0
C92 C 0.80083 0.93713 0.22371 0.0
C93 C 0.8019 0.94805 0.26145 0.0
C94 C 0.7787 0.97245 0.26651 0.0
C95 C 0.7547 0.98604 0.23383 0.0
C96 C 0.75925 0.98086 0.19581 0.0
C97 C 0.78203 0.95605 0.19073 0.0
C98 C 0.85114 0.84863 0.34241 0.0
C99 C 0.74761 0.8593 0.33092 0.0
O100 O 0.80818 0.75237 0.37506 0.0
O101 O 0.74834 0.73703 0.35191 0.0
O102 O 0.72312 0.77563 0.28973 0.0
O103 O 0.76714 0.78615 0.25788 0.0
O104 O 0.8217 0.75405 0.29301 0.0
O105 O 0.83121 0.8 0.24466 0.0
O106 O 0.77809 0.87339 0.21913 0.0
O107 O 0.8373 0.88971 0.24384 0.0
O108 O 0.8619 0.85063 0.30896 0.0
O109 O 0.81581 0.83983 0.33658 0.0
O110 O 0.76052 0.86996 0.29725 0.0
O111 O 0.75551 0.82654 0.34865 0.0
H112 H 0.77061 0.67743 0.43905 0.0
H113 H 0.79963 0.62128 0.45271 0.0
H114 H 0.82436 0.63565 0.33532 0.0
H115 H 0.79308 0.69018 0.32106 0.0
H116 H 0.81654 0.93391 0.28731 0.0
H117 H 0.77584 0.97652 0.29601 0.0
H118 H 0.74077 0.99115 0.17023 0.0
H119 H 0.78091 0.94797 0.16145 0.0
C120 C 0.22226 0.88473 0.31381 0.0
Eu121 Eu 0.26385 0.84005 0.30019 0.0
C122 C 0.18643 0.87769 0.32774 0.0
C123 C 0.15565 0.89225 0.30526 0.0
C124 C 0.1226 0.88869 0.32001 0.0
C125 C 0.12035 0.87134 0.3579 0.0
C126 C 0.14987 0.85336 0.37839 0.0
C127 C 0.18258 0.85646 0.36341 0.0
C128 C 0.23196 0.78502 0.25061 0.0
C129 C 0.25508 0.76399 0.36298 0.0
C130 C 0.34968 0.74155 0.2856 0.0
Eu131 Eu 0.31292 0.79005 0.30228 0.0
C132 C 0.36382 0.73348 0.25143 0.0
C133 C 0.39518 0.75632 0.23865 0.0
C134 C 0.4086 0.74672 0.20702 0.0
C135 C 0.39062 0.71442 0.18761 0.0
C136 C 0.35875 0.69231 0.19987 0.0
C137 C 0.34565 0.70162 0.23155 0.0
C138 C 0.34426 0.84429 0.35344 0.0
C139 C 0.31996 0.86334 0.23869 0.0
O140 O 0.25158 0.87653 0.33921 0.0
O141 O 0.2206 0.87426 0.27876 0.0
O142 O 0.23201 0.82048 0.2411 0.0
O143 O 0.25068 0.78078 0.28483 0.0
O144 O 0.24512 0.79735 0.35134 0.0
O145 O 0.28155 0.75445 0.34758 0.0
O146 O 0.31319 0.73608 0.28179 0.0
O147 O 0.36616 0.77174 0.30345 0.0
O148 O 0.34498 0.80865 0.36149 0.0
O149 O 0.3259 0.84951 0.31904 0.0
O150 O 0.32277 0.82725 0.2452 0.0
O151 O 0.30135 0.87702 0.2608 0.0
H152 H 0.15773 0.90774 0.27707 0.0
H153 H 0.09998 0.90208 0.30315 0.0
H154 H 0.14937 0.83983 0.40768 0.0
H155 H 0.2055 0.84389 0.38086 0.0
H156 H 0.4097 0.78115 0.2534 0.0
H157 H 0.43334 0.7641 0.19816 0.0
H158 H 0.34485 0.66675 0.1861 0.0
H159 H 0.32159 0.68341 0.24098 0.0
C160 C 0.39616 0.81901 0.73889 0.0
Eu161 Eu 0.34015 0.80218 0.77473 0.0
C162 C 0.39347 0.83045 0.69708 0.0
C163 C 0.42202 0.82709 0.67771 0.0
C164 C 0.41904 0.83822 0.63778 0.0
C165 C 0.38722 0.85271 0.61657 0.0
C166 C 0.35771 0.85396 0.63585 0.0
C167 C 0.36088 0.84298 0.67585 0.0
C168 C 0.27709 0.7584 0.73784 0.0
C169 C 0.27305 0.85102 0.74992 0.0
C170 C 0.21408 0.75702 0.84436 0.0
Eu171 Eu 0.2773 0.78354 0.82108 0.0
C172 C 0.19548 0.7628 0.8758 0.0
C173 C 0.21303 0.78832 0.90409 0.0
C174 C 0.19747 0.78907 0.93735 0.0
C175 C 0.16429 0.76414 0.94266 0.0
C176 C 0.14566 0.74054 0.91259 0.0
C177 C 0.16116 0.73995 0.87949 0.0
C178 C 0.33139 0.83917 0.85621 0.0
C179 C 0.34842 0.73868 0.85054 0.0
O180 O 0.3876 0.84288 0.7597 0.0
O181 O 0.38033 0.7842 0.74642 0.0
O182 O 0.29713 0.78608 0.72085 0.0
O183 O 0.29112 0.75462 0.77405 0.0
O184 O 0.30989 0.85286 0.75315 0.0
O185 O 0.25362 0.82253 0.76871 0.0
O186 O 0.24416 0.74171 0.85562 0.0
O187 O 0.21796 0.7848 0.81735 0.0
O188 O 0.30053 0.82573 0.86901 0.0
O189 O 0.33067 0.82314 0.82627 0.0
O190 O 0.31255 0.73906 0.85116 0.0
O191 O 0.36617 0.76289 0.82588 0.0
H192 H 0.44699 0.81685 0.69362 0.0
H193 H 0.44289 0.83765 0.6243 0.0
H194 H 0.33306 0.86505 0.62047 0.0
H195 H 0.33822 0.84519 0.69039 0.0
H196 H 0.23954 0.80636 0.90139 0.0
H197 H 0.21233 0.80772 0.95975 0.0
H198 H 0.12053 0.72031 0.91579 0.0
H199 H 0.14735 0.72012 0.85782 0.0
C200 C 0.33782 0.26119 0.72419 0.0
Eu201 Eu 0.30724 0.29025 0.77371 0.0
C202 C 0.36052 0.23334 0.71571 0.0
C203 C 0.40021 0.24134 0.72055 0.0
C204 C 0.42047 0.21796 0.70636 0.0
C205 C 0.40177 0.18601 0.68623 0.0
C206 C 0.36225 0.17738 0.68288 0.0
C207 C 0.34214 0.20049 0.69721 0.0
C208 C 0.34031 0.34073 0.82739 0.0
C209 C 0.30582 0.23649 0.8574 0.0
C210 C 0.22447 0.3275 0.88443 0.0
Eu211 Eu 0.25653 0.30126 0.8342 0.0
C212 C 0.19864 0.34987 0.89673 0.0
C213 C 0.1705 0.33134 0.91763 0.0
C214 C 0.14918 0.35144 0.93428 0.0
C215 C 0.15489 0.39121 0.93081 0.0
C216 C 0.18283 0.40979 0.90928 0.0
C217 C 0.20436 0.38955 0.89274 0.0
C218 C 0.2241 0.25419 0.77512 0.0
C219 C 0.26073 0.35899 0.75563 0.0
O220 O 0.30351 0.2492 0.73061 0.0
O221 O 0.35455 0.29045 0.74375 0.0
O222 O 0.34753 0.34311 0.79204 0.0
O223 O 0.31827 0.31019 0.83398 0.0
O224 O 0.31155 0.24064 0.82051 0.0
O225 O 0.28933 0.25996 0.8713 0.0
O226 O 0.25537 0.34476 0.87266 0.0
O227 O 0.21112 0.29548 0.86855 0.0
O228 O 0.21543 0.24903 0.80997 0.0
O229 O 0.24669 0.28459 0.77295 0.0
O230 O 0.25597 0.35331 0.79257 0.0
O231 O 0.27508 0.33526 0.73891 0.0
H232 H 0.41566 0.26653 0.73404 0.0
H233 H 0.45068 0.22603 0.70942 0.0
H234 H 0.34649 0.153 0.66809 0.0
H235 H 0.31176 0.19326 0.69232 0.0
H236 H 0.16569 0.30096 0.92227 0.0
H237 H 0.12893 0.33544 0.95108 0.0
H238 H 0.18827 0.44016 0.90514 0.0
H239 H 0.22599 0.40513 0.87738 0.0
C240 C 0.72593 0.35497 0.7881 0.0
Eu241 Eu 0.77698 0.31251 0.79901 0.0
C242 C 0.70958 0.37029 0.8166 0.0
C243 C 0.68552 0.3467 0.83927 0.0
C244 C 0.67532 0.36034 0.87063 0.0
C245 C 0.68922 0.39759 0.87981 0.0
C246 C 0.71182 0.42157 0.85613 0.0
C247 C 0.72171 0.40809 0.82461 0.0
C248 C 0.76685 0.2612 0.74234 0.0
C249 C 0.75129 0.24385 0.86163 0.0
C250 C 0.87898 0.23288 0.83807 0.0
Eu251 Eu 0.82483 0.27187 0.82564 0.0
C252 C 0.90041 0.2212 0.81177 0.0
C253 C 0.93971 0.2318 0.81816 0.0
C254 C 0.96019 0.22323 0.79175 0.0
C255 C 0.94154 0.20353 0.759 0.0
C256 C 0.90229 0.19297 0.75263 0.0
C257 C 0.88184 0.20192 0.77862 0.0
C258 C 0.83296 0.32365 0.88231 0.0
C259 C 0.84929 0.33787 0.76063 0.0
O260 O 0.76139 0.36799 0.78828 0.0
O261 O 0.71803 0.31871 0.78599 0.0
O262 O 0.7708 0.29734 0.73632 0.0
O263 O 0.77259 0.25345 0.7796 0.0
O264 O 0.74747 0.27857 0.84812 0.0
O265 O 0.78003 0.23161 0.85375 0.0
O266 O 0.84353 0.21772 0.83453 0.0
O267 O 0.88451 0.26887 0.84143 0.0
O268 O 0.83018 0.28758 0.88861 0.0
O269 O 0.8284 0.33094 0.84506 0.0
O270 O 0.85193 0.30273 0.77317 0.0
O271 O 0.82269 0.35129 0.77145 0.0
H272 H 0.67557 0.31742 0.83372 0.0
H273 H 0.65754 0.34153 0.88838 0.0
H274 H 0.72205 0.45071 0.86217 0.0
H275 H 0.74003 0.42689 0.8074 0.0
H276 H 0.95448 0.24705 0.84335 0.0
H277 H 0.99051 0.23139 0.79718 0.0
H278 H 0.88742 0.17797 0.72729 0.0
H279 H 0.85151 0.19402 0.77249 0.0
C280 C 0.80131 0.88372 0.87327 0.0
Eu281 Eu 0.80473 0.82855 0.83278 0.0
C282 C 0.78553 0.89029 0.90692 0.0
C283 C 0.80204 0.92145 0.92853 0.0
C284 C 0.78419 0.93163 0.95651 0.0
C285 C 0.74925 0.91098 0.96307 0.0
C286 C 0.73383 0.87857 0.94265 0.0
C287 C 0.75189 0.86823 0.91502 0.0
C288 C 0.85721 0.84482 0.78239 0.0
C289 C 0.7488 0.83557 0.75109 0.0
C290 C 0.80699 0.7194 0.74913 0.0
Eu291 Eu 0.79507 0.77091 0.7896 0.0
C292 C 0.82755 0.71622 0.71784 0.0
C293 C 0.81856 0.68342 0.69783 0.0
C294 C 0.84213 0.67624 0.67381 0.0
C295 C 0.87534 0.70169 0.6695 0.0
C296 C 0.88313 0.73561 0.68786 0.0
C297 C 0.85939 0.74286 0.71175 0.0
C298 C 0.74074 0.75268 0.8376 0.0
C299 C 0.84561 0.76253 0.87582 0.0
O300 O 0.82956 0.86571 0.88034 0.0
O301 O 0.77688 0.87316 0.84215 0.0
O302 O 0.86453 0.84783 0.81993 0.0
O303 O 0.82285 0.83026 0.77341 0.0
O304 O 0.7532 0.84186 0.78831 0.0
O305 O 0.76751 0.81113 0.74244 0.0
O306 O 0.7771 0.73508 0.73989 0.0
O307 O 0.828 0.72987 0.78219 0.0
O308 O 0.73577 0.74538 0.80118 0.0
O309 O 0.77439 0.7698 0.84722 0.0
O310 O 0.84463 0.75747 0.83869 0.0
O311 O 0.8254 0.78653 0.8822 0.0
H312 H 0.82808 0.93875 0.92274 0.0
H313 H 0.7973 0.95626 0.97222 0.0
H314 H 0.70681 0.86215 0.94643 0.0
H315 H 0.73866 0.84398 0.89868 0.0
H316 H 0.79434 0.66237 0.70242 0.0
H317 H 0.83544 0.64967 0.66051 0.0
H318 H 0.90821 0.75598 0.68479 0.0
H319 H 0.86688 0.76841 0.72696 0.0
Fe320 Fe 0.05599 0.13007 0.53254 0.0
O321 O 0.04508 0.07389 0.53315 0.0
Fe322 Fe 0.09263 0.04686 0.56048 0.0
Fe323 Fe 1.00316 0.04114 0.55785 0.0
O324 O 0.05073 0.07511 0.53515 0.0
O325 O 0.051 1.01547 0.58637 0.0
O326 O 0.04542 1.01436 0.58475 0.0
Fe327 Fe 0.04057 0.95965 0.58971 0.0
C328 C 1.01645 0.10846 0.60382 0.0
O329 O 1.005 0.12439 0.49305 0.0
O330 O 0.96539 0.07846 0.52389 0.0
O331 O 0.07019 0.95689 0.54603 0.0
O332 O 0.07712 1.01399 0.51438 0.0
O333 O 0.1292 0.08619 0.52467 0.0
O334 O 0.09152 0.12871 0.49326 0.0
O335 O 0.98828 1.006 0.51138 0.0
O336 O 0.99184 0.9519 0.5479 0.0
C337 C 0.12168 0.11397 0.49761 0.0
O338 O 0.0918 0.96721 0.62807 0.0
O339 O 0.13056 1.0084 0.5923 0.0
O340 O 1.02468 0.13181 0.57538 0.0
O341 O 1.01607 0.07361 0.60396 0.0
C342 C 0.97151 0.10773 0.49799 0.0
C343 C 0.98146 0.97001 0.5153 0.0
C344 C 0.97434 0.97538 0.62178 0.0
O345 O 0.96636 1.00133 0.59271 0.0
O346 O 1.00588 0.96271 0.62899 0.0
C347 C 0.07307 0.97849 0.51486 0.0
O348 O 0.10855 0.08027 0.60771 0.0
O349 O 0.10422 0.13639 0.57585 0.0
C350 C 0.12471 0.98003 0.6192 0.0
C351 C 0.11514 0.11608 0.60677 0.0
Fe352 Fe 0.53278 0.97963 0.06509 0.0
O353 O 0.53488 0.03246 0.0415 0.0
Fe354 Fe 0.48249 0.05474 0.04079 0.0
Fe355 Fe 0.57618 0.07696 0.05543 0.0
O356 O 0.52821 0.03134 0.05612 0.0
O357 O 0.52396 0.09661 0.02691 0.0
O358 O 0.53009 0.1 0.04082 0.0
Fe359 Fe 0.52581 0.15136 0.02797 0.0
C360 C 0.57362 1.02765 0.1334 0.0
O361 O 0.58242 0.98759 0.0432 0.0
O362 O 0.61745 0.04445 0.06074 0.0
O363 O 0.47729 0.13808 0.98652 0.0
O364 O 0.44143 0.08627 1.01306 0.0
O365 O 0.47297 1.02363 0.99105 0.0
O366 O 0.49733 0.96924 1.01109 0.0
O367 O 0.58809 0.10187 0.99868 0.0
O368 O 0.56244 0.15571 0.98821 0.0
C369 C 0.47608 0.98939 0.9865 0.0
O370 O 0.49239 0.14353 0.07035 0.0
O371 O 0.4886 0.08176 0.09172 0.0
O372 O 0.5652 0.99571 0.11811 0.0
O373 O 0.56978 0.05915 0.11351 0.0
C374 C 0.61371 1.01126 0.0489 0.0
C375 C 0.58499 0.13521 0.98071 0.0
C376 C 0.60403 0.15338 0.08666 0.0
O377 O 0.61298 0.12327 0.07837 0.0
O378 O 0.57257 0.16363 0.07154 0.0
C379 C 0.44588 0.11538 0.98811 0.0
O380 O 0.44476 1.01073 0.06547 0.0
O381 O 0.48444 0.97045 0.08976 0.0
C382 C 0.4846 0.11545 0.09516 0.0
C383 C 0.45277 0.98099 0.08711 0.0
Fe384 Fe 1.00924 0.60987 0.1208 0.0
O385 O 0.97699 0.55779 0.10905 0.0
Fe386 Fe 0.09816 0.55611 0.13964 0.0
Fe387 Fe 0.92045 0.54696 0.09556 0.0
O388 O 0.04168 0.56539 0.11665 0.0
O389 O 0.04342 0.54793 0.13405 0.0
O390 O 0.97609 0.55083 0.094 0.0
Fe391 Fe 1.00768 0.50678 0.10661 0.0
C392 C 0.93487 0.61904 0.15095 0.0
O393 O 0.97984 0.62521 0.06316 0.0
O394 O 0.92033 0.5918 0.05272 0.0
O395 O 0.03697 0.51634 0.05874 0.0
O396 O 0.09721 0.52903 0.09009 0.0
O397 O 0.11069 0.6082 0.10977 0.0
O398 O 0.05089 0.6026 0.09187 0.0
O399 O 0.91816 0.50698 0.05309 0.0
O400 O 0.96483 0.47141 0.06923 0.0
C401 C 0.08304 0.62369 0.0937 0.0
O402 O 0.04558 0.46571 0.13123 0.0
O403 O 0.09035 0.50284 0.17092 0.0
O404 O 0.9687 0.63215 0.14494 0.0
O405 O 0.9178 0.58672 0.13782 0.0
C406 C 0.94569 0.61909 0.04336 0.0
C407 C 0.93373 0.47924 0.04703 0.0
C408 C 0.94454 0.48065 0.14847 0.0
O409 O 0.92022 0.50241 0.13872 0.0
O410 O 0.97949 0.49461 0.15318 0.0
C411 C 0.07251 0.51716 0.06057 0.0
O412 O 0.09861 0.58485 0.18734 0.0
O413 O 0.0407 0.60029 0.17799 0.0
C414 C 0.07664 0.47015 0.15819 0.0
C415 C 0.07691 0.6081 0.18906 0.0
Fe416 Fe 0.54202 0.55006 1.00665 0.0
O417 O 0.57842 0.57053 0.05387 0.0
Fe418 Fe 0.45997 0.52044 0.04534 0.0
Fe419 Fe 0.63365 0.5717 0.06126 0.0
O420 O 0.51397 0.52283 0.04875 0.0
O421 O 0.51555 0.51873 0.05467 0.0
O422 O 0.57971 0.56708 0.05937 0.0
Fe423 Fe 0.55196 0.54024 0.10189 0.0
C424 C 0.60334 0.50573 1.01072 0.0
O425 O 0.57954 0.58328 0.96909 0.0
O426 O 0.629 0.61209 1.01341 0.0
O427 O 0.52477 0.58526 0.09545 0.0
O428 O 0.46447 0.5587 0.08555 0.0
O429 O 0.45536 0.56421 1.00023 0.0
O430 O 0.51282 0.5957 0.99745 0.0
O431 O 0.63574 0.60569 0.10475 0.0
O432 O 0.59351 0.57299 0.14301 0.0
C433 C 0.47699 0.59352 0.98869 0.0
O434 O 0.51316 0.50679 0.13862 0.0
O435 O 0.46267 0.48021 0.09342 0.0
O436 O 0.56908 0.50518 1.01176 0.0
O437 O 0.62903 0.53354 1.02079 0.0
C438 C 0.61047 0.6085 0.97766 0.0
C439 C 0.62047 0.60098 0.13585 0.0
C440 C 0.6203 0.49907 0.11984 0.0
O441 O 0.63995 0.52847 0.10574 0.0
O442 O 0.58405 0.4954 0.11397 0.0
C443 C 0.4906 0.58615 0.09511 0.0
O444 O 0.45685 0.48625 1.00156 0.0
O445 O 0.49924 0.52003 0.96425 0.0
C446 C 0.48124 0.48273 0.12933 0.0
C447 C 0.47096 0.49293 0.96968 0.0
Fe448 Fe 0.05439 0.49187 0.56878 0.0
O449 O 0.04687 0.534 0.59678 0.0
Fe450 Fe 0.07408 0.53713 0.47908 0.0
Fe451 Fe 0.05824 0.53402 0.65496 0.0
O452 O 0.08206 0.53401 0.53682 0.0
O453 O 0.08558 0.53867 0.53737 0.0
O454 O 0.05027 0.53808 0.59737 0.0
Fe455 Fe 0.07537 0.58064 0.56392 0.0
C456 C 1.00473 0.45973 0.63516 0.0
O457 O 0.10428 0.48889 0.60545 0.0
O458 O 0.09077 0.49133 0.66433 0.0
O459 O 0.10344 0.62032 0.52294 0.0
O460 O 0.11921 0.58261 0.48236 0.0
O461 O 0.10276 0.49266 0.49167 0.0
O462 O 0.0698 0.45415 0.53597 0.0
O463 O 0.10677 0.5732 0.66005 0.0
O464 O 0.12648 0.58529 0.60246 0.0
C465 C 0.09351 0.46086 0.5117 0.0
O466 O 1.0251 0.57893 0.52742 0.0
O467 O 0.0393 0.57678 0.46861 0.0
O468 O 1.02261 0.45296 0.60812 0.0
O469 O 1.01121 0.49179 0.65047 0.0
C470 C 0.11012 0.48111 0.6422 0.0
C471 C 0.13167 0.58751 0.63959 0.0
C472 C 0.03652 0.61094 0.62244 0.0
O473 O 1.0305 0.57957 0.64415 0.0
O474 O 0.05769 0.61791 0.59562 0.0
C475 C 0.1218 0.61526 0.49572 0.0
O476 O 1.02649 0.49581 0.47411 0.0
O477 O 1.00406 0.49181 0.52947 0.0
C478 C 1.01784 0.58348 0.49032 0.0
C479 C 0.99981 0.48554 0.49331 0.0
Fe480 Fe 0.6099 0.9699 0.50888 0.0
O481 O 0.61219 1.02483 0.5143 0.0
Fe482 Fe 0.58349 0.05301 0.45989 0.0
Fe483 Fe 0.58885 0.04154 0.55671 0.0
O484 O 0.6101 1.0242 0.50704 0.0
O485 O 0.56375 0.07182 0.50412 0.0
O486 O 0.56604 0.07313 0.51048 0.0
Fe487 Fe 0.56508 0.12627 0.51068 0.0
C488 C 0.5403 0.96702 0.53929 0.0
O489 O 0.64759 0.97522 0.56149 0.0
O490 O 0.61625 1.00208 0.59882 0.0
O491 O 0.59915 0.14054 0.47019 0.0
O492 O 0.63073 0.09545 0.46969 0.0
O493 O 0.61352 1.02289 0.4232 0.0
O494 O 0.64664 0.98561 0.47008 0.0
O495 O 0.63583 0.08316 0.57536 0.0
O496 O 0.61019 0.13471 0.55898 0.0
C497 C 0.63783 0.99828 0.43371 0.0
O498 O 0.52264 0.11984 0.46261 0.0
O499 O 0.54651 0.09112 0.41938 0.0
O500 O 0.56989 0.95329 0.543 0.0
O501 O 0.54179 1.00178 0.54172 0.0
C502 C 0.64037 0.98086 0.59515 0.0
C503 C 0.63565 0.1177 0.57997 0.0
C504 C 0.53532 0.08865 0.58482 0.0
O505 O 0.55854 0.06426 0.59362 0.0
O506 O 0.53124 0.10939 0.55206 0.0
C507 C 0.63021 0.12937 0.47533 0.0
O508 O 0.53653 1.00979 0.45127 0.0
O509 O 0.56824 0.96268 0.45921 0.0
C510 C 0.52287 0.11219 0.4273 0.0
C511 C 0.53766 0.97537 0.44807 0.0
H512 H 0.18034 0.192 0.34083 0.0
H513 H 0.27607 0.23999 0.42397 0.0
H514 H 0.24877 0.2033 0.47828 0.0
H515 H 0.19529 0.15841 0.50372 0.0
H516 H 0.10157 0.10911 0.41897 0.0
H517 H 0.13025 0.14411 0.36535 0.0
C518 C 0.19551 0.19453 0.37077 0.0
C519 C 0.23062 0.21972 0.37744 0.0
C520 C 0.17983 0.17225 0.40236 0.0
C521 C 0.24924 0.22148 0.41706 0.0
C522 C 0.23346 0.20018 0.44848 0.0
C523 C 0.18163 0.15427 0.47354 0.0
C524 C 0.1461 0.12952 0.46624 0.0
C525 C 0.19856 0.17533 0.44181 0.0
C526 C 0.12895 0.12661 0.42631 0.0
C527 C 0.14532 0.14721 0.39525 0.0
H528 H 0.82966 0.18938 0.4168 0.0
H529 H 0.91084 0.24481 0.34591 0.0
H530 H 0.9559 0.20652 0.38134 0.0
H531 H 0.97443 0.15862 0.43314 0.0
H532 H 0.89593 0.10157 0.50602 0.0
H533 H 0.84855 0.13828 0.46932 0.0
C534 C 0.85714 0.19309 0.40893 0.0
C535 C 0.86616 0.22083 0.37803 0.0
C536 C 0.88386 0.1703 0.42996 0.0
C537 C 0.90233 0.2244 0.36903 0.0
C538 C 0.92847 0.20223 0.38949 0.0
C539 C 0.94694 0.15364 0.44125 0.0
C540 C 0.93954 0.12655 0.47301 0.0
C541 C 0.91982 0.17523 0.4201 0.0
C542 C 0.90312 0.12143 0.48195 0.0
C543 C 0.87587 0.14286 0.46089 0.0
H544 H 0.91817 0.84597 0.39254 0.0
H545 H 0.82969 0.91141 0.35933 0.0
H546 H 0.86342 0.95739 0.40617 0.0
H547 H 0.91803 0.97855 0.45876 0.0
H548 H 1.00053 0.90692 0.49848 0.0
H549 H 0.97038 0.86494 0.44716 0.0
C550 C 0.90634 0.87028 0.39568 0.0
C551 C 0.87153 0.87524 0.37241 0.0
C552 C 0.92534 0.89605 0.42378 0.0
C553 C 0.85641 0.90682 0.37699 0.0
C554 C 0.87578 0.93326 0.40374 0.0
C555 C 0.9296 0.95406 0.4557 0.0
C556 C 0.96256 0.94683 0.48161 0.0
C557 C 0.91033 0.92823 0.42752 0.0
C558 C 0.97621 0.91405 0.47807 0.0
C559 C 0.95859 0.88961 0.44899 0.0
H560 H 0.09739 0.93783 0.35426 0.0
H561 H 0.08445 0.82621 0.41304 0.0
H562 H 0.06549 0.85002 0.46743 0.0
H563 H 0.06663 0.90456 0.50346 0.0
H564 H 0.07925 1.01581 0.44338 0.0
H565 H 0.08502 0.98978 0.38414 0.0
C566 C 0.08885 0.91816 0.37797 0.0
C567 C 0.09365 0.88054 0.38028 0.0
C568 C 0.07941 0.93221 0.40955 0.0
C569 C 0.08205 0.8556 0.41121 0.0
C570 C 0.0716 0.86924 0.44246 0.0
C571 C 0.07 0.92307 0.47723 0.0
C572 C 0.0734 0.96213 0.47819 0.0
C573 C 0.07273 0.90792 0.443 0.0
C574 C 0.07732 0.98567 0.44378 0.0
C575 C 0.08031 0.97082 0.40973 0.0
H576 H 0.20178 0.84175 0.70446 0.0
H577 H 0.29774 0.92786 0.73668 0.0
H578 H 0.26329 0.97582 0.69868 0.0
H579 H 0.20297 0.99442 0.65759 0.0
H580 H 0.11066 0.90486 0.62215 0.0
H581 H 0.14614 0.85866 0.65877 0.0
C582 C 0.21541 0.87098 0.70318 0.0
C583 C 0.2526 0.88064 0.72429 0.0
C584 C 0.19566 0.89853 0.68009 0.0
C585 C 0.26936 0.91899 0.72116 0.0
C586 C 0.24943 0.94669 0.69925 0.0
C587 C 0.19086 0.96483 0.6571 0.0
C588 C 0.1532 0.954 0.6367 0.0
C589 C 0.21218 0.93707 0.67856 0.0
C590 C 0.1389 0.91493 0.63741 0.0
C591 C 0.15931 0.88802 0.65867 0.0
H592 H 0.18584 0.18081 0.77376 0.0
H593 H 0.22196 0.2778 0.69827 0.0
H594 H 0.19235 0.244 0.6403 0.0
H595 H 0.15519 0.18744 0.61029 0.0
H596 H 0.12146 0.08853 0.68433 0.0
H597 H 0.15115 0.12209 0.74305 0.0
C598 C 0.18716 0.19445 0.7446 0.0
C599 C 0.20596 0.23201 0.74055 0.0
C600 C 0.17055 0.17439 0.71091 0.0
C601 C 0.20775 0.24904 0.70246 0.0
C602 C 0.19075 0.22969 0.66913 0.0
C603 C 0.15444 0.17307 0.63925 0.0
C604 C 0.13593 0.13539 0.64265 0.0
C605 C 0.17197 0.19243 0.67291 0.0
C606 C 0.13565 0.11735 0.68061 0.0
C607 C 0.15248 0.13667 0.71431 0.0
H608 H 0.93915 0.13364 0.74102 0.0
H609 H 0.99069 0.24854 0.71701 0.0
H610 H 1.02018 0.22932 0.66701 0.0
H611 H 1.0276 0.17966 0.62747 0.0
H612 H 0.9757 0.06482 0.65395 0.0
H613 H 0.95007 0.0842 0.70563 0.0
C614 C 0.95705 0.15436 0.72491 0.0
C615 C 0.9626 0.19229 0.73203 0.0
C616 C 0.9736 0.14315 0.69657 0.0
C617 C 0.98619 0.21908 0.71171 0.0
C618 C 1.00279 0.20813 0.6831 0.0
C619 C 1.0108 0.15898 0.6447 0.0
C620 C 1.00337 0.12097 0.63661 0.0
C621 C 0.99612 0.17025 0.6748 0.0
C622 C 0.98196 0.0943 0.65951 0.0
C623 C 0.96713 0.10529 0.68907 0.0
H624 H 0.83845 0.88424 0.70754 0.0
H625 H 0.93331 0.85917 0.79461 0.0
H626 H 0.97627 0.89712 0.75466 0.0
H627 H 0.98836 0.93751 0.69515 0.0
H628 H 0.89542 0.9668 0.60812 0.0
H629 H 0.85124 0.92844 0.64759 0.0
C630 C 0.86852 0.88681 0.7177 0.0
C631 C 0.88217 0.86779 0.75457 0.0
C632 C 0.89383 0.91016 0.69451 0.0
C633 C 0.92148 0.87272 0.76681 0.0
C634 C 0.94631 0.89474 0.7438 0.0
C635 C 0.95844 0.93598 0.68454 0.0
C636 C 0.94595 0.9558 0.64793 0.0
C637 C 0.93302 0.91372 0.70766 0.0
C638 C 0.90663 0.95276 0.63585 0.0
C639 C 0.88113 0.9303 0.65854 0.0
H640 H 0.39418 0.17449 0.20103 0.0
H641 H 0.32259 0.06798 0.17754 0.0
H642 H 0.37075 0.04892 0.14852 0.0
H643 H 0.42844 0.0668 0.12123 0.0
H644 H 0.49545 0.17713 0.13645 0.0
H645 H 0.45434 0.19054 0.17818 0.0
C646 C 0.38985 0.14668 0.19059 0.0
C647 C 0.35552 0.12234 0.19151 0.0
C648 C 0.41666 0.13694 0.17229 0.0
C649 C 0.34923 0.08673 0.1773 0.0
C650 C 0.37659 0.07604 0.16062 0.0
C651 C 0.43457 0.09336 0.13461 0.0
C652 C 0.46475 0.12102 0.12597 0.0
C653 C 0.40977 0.10149 0.15669 0.0
C654 C 0.4722 0.15559 0.14275 0.0
C655 C 0.4487 0.16324 0.16643 0.0
H656 H 0.92134 0.31501 0.10171 0.0
H657 H 0.81483 0.3413 0.04321 0.0
H658 H 0.83608 0.40709 0.05777 0.0
H659 H 0.87781 0.45078 0.10396 0.0
H660 H 0.9852 0.42382 0.16372 0.0
H661 H 0.96875 0.36239 0.13664 0.0
C662 C 0.90261 0.33513 0.09192 0.0
C663 C 0.86375 0.3225 0.07963 0.0
C664 C 0.9142 0.37157 0.10423 0.0
C665 C 0.84333 0.34974 0.05866 0.0
C666 C 0.85485 0.3871 0.06823 0.0
C667 C 0.89762 0.43148 0.11151 0.0
C668 C 0.93262 0.4418 0.13633 0.0
C669 C 0.88882 0.39709 0.09452 0.0
C670 C 0.95806 0.4165 0.14493 0.0
C671 C 0.94897 0.38169 0.12894 0.0
H672 H 0.72736 0.051 0.23105 0.0
H673 H 0.69802 0.93024 0.24255 0.0
H674 H 0.63161 0.93371 0.22601 0.0
H675 H 0.58586 0.96946 0.18753 0.0
H676 H 0.61502 0.08987 0.1693 0.0
H677 H 0.67623 0.08845 0.2113 0.0
C678 C 0.7062 1.02577 0.23173 0.0
C679 C 0.71716 0.99052 0.23813 0.0
C680 C 0.6679 1.02788 0.22015 0.0
C681 C 0.68987 0.9577 0.23845 0.0
C682 C 0.6519 0.95963 0.22851 0.0
C683 C 0.60507 0.99558 0.19396 0.0
C684 C 0.59744 0.02928 0.17292 0.0
C685 C 0.64092 0.99436 0.21618 0.0
C686 C 0.62132 0.06317 0.18338 0.0
C687 C 0.65656 0.06242 0.20708 0.0
H688 H 0.20071 0.72 0.28792 0.0
H689 H 0.1906 0.78554 0.1762 0.0
H690 H 0.13637 0.73932 0.14917 0.0
H691 H 0.09417 0.67823 0.15626 0.0
H692 H 0.10583 0.61187 0.26712 0.0
H693 H 0.15577 0.66113 0.29619 0.0
C694 C 0.18671 0.72414 0.25761 0.0
C695 C 0.2001 0.75598 0.23389 0.0
C696 C 0.15508 0.69776 0.24251 0.0
C697 C 0.18115 0.76114 0.19492 0.0
C698 C 0.14995 0.73484 0.17956 0.0
C699 C 0.10667 0.6753 0.18719 0.0
C700 C 0.09548 0.64195 0.20988 0.0
C701 C 0.13671 0.70297 0.20303 0.0
C702 C 0.11301 0.63781 0.24949 0.0
C703 C 0.14211 0.66566 0.26584 0.0
H704 H 0.32993 0.90635 0.88205 0.0
H705 H 0.40465 0.83157 0.8734 0.0
H706 H 0.45753 0.87273 0.91068 0.0
H707 H 0.48134 0.92792 0.95009 0.0
H708 H 0.40725 1.00561 0.95275 0.0
H709 H 0.35586 0.96618 0.91277 0.0
C710 C 0.35791 0.89938 0.88812 0.0
C711 C 0.36346 0.86585 0.87569 0.0
C712 C 0.38839 0.92387 0.9083 0.0
C713 C 0.39983 0.85725 0.88295 0.0
C714 C 0.43002 0.88075 0.90427 0.0
C715 C 0.45419 0.93663 0.9412 0.0
C716 C 0.44834 0.96969 0.95476 0.0
C717 C 0.42455 0.91391 0.91764 0.0
C718 C 0.41289 0.98055 0.94267 0.0
C719 C 0.3832 0.95776 0.92007 0.0
H720 H 0.17561 0.46178 0.96104 0.0
H721 H 0.08188 0.36976 0.9446 0.0
H722 H 0.04701 0.40098 0.97946 0.0
H723 H 0.04367 0.45336 1.01878 0.0
H724 H 0.1373 0.54531 0.03377 0.0
H725 H 0.17024 0.51601 0.99488 0.0
C726 C 0.14734 0.44855 0.96431 0.0
C727 C 0.13228 0.41259 0.95013 0.0
C728 C 0.12678 0.46706 0.98431 0.0
C729 C 0.09538 0.39661 0.95568 0.0
C730 C 0.07495 0.41477 0.97551 0.0
C731 C 0.07079 0.46754 1.01261 0.0
C732 C 0.0875 0.50208 0.02921 0.0
C733 C 0.0904 0.4499 0.9905 0.0
C734 C 0.12331 0.51908 1.02142 0.0
C735 C 0.14246 0.5021 0.99927 0.0
H736 H 0.67809 0.24977 0.86613 0.0
H737 H 0.76166 0.18009 0.91062 0.0
H738 H 0.71845 0.13907 0.94873 0.0
H739 H 0.65648 0.12332 0.97203 0.0
H740 H 0.57268 0.19235 0.92421 0.0
H741 H 0.61545 0.23179 0.8855 0.0
C742 C 0.68705 0.2257 0.88418 0.0
C743 C 0.72386 0.21882 0.88534 0.0
C744 C 0.66144 0.20135 0.90572 0.0
C745 C 0.73398 0.18675 0.90882 0.0
C746 C 0.70902 0.16299 0.93079 0.0
C747 C 0.64714 0.14643 0.95254 0.0
C748 C 0.61053 0.15411 0.95167 0.0
C749 C 0.67249 0.16986 0.92971 0.0
C750 C 0.60012 0.18504 0.9262 0.0
C751 C 0.62488 0.20808 0.90386 0.0
H752 H 0.9095 0.72817 0.8863 0.0
H753 H 0.81818 0.73804 0.94243 0.0
H754 H 0.83982 0.6948 0.9971 0.0
H755 H 0.88414 0.65313 0.02995 0.0
H756 H 0.97952 0.64685 0.97903 0.0
H757 H 0.95747 0.68926 0.92254 0.0
C758 C 0.89443 0.72095 0.91055 0.0
C759 C 0.86183 0.73669 0.90961 0.0
C760 C 0.90794 0.69646 0.94331 0.0
C761 C 0.84321 0.72691 0.94187 0.0
C762 C 0.85558 0.70189 0.97338 0.0
C763 C 0.90021 0.66102 1.00651 0.0
C764 C 0.93351 0.64633 1.00902 0.0
C765 C 0.88781 0.68635 0.97453 0.0
C766 C 0.95401 0.6576 0.97838 0.0
C767 C 0.9412 0.68185 0.9458 0.0
H768 H 0.17338 0.33116 0.20213 0.0
H769 H 0.22849 0.3994 0.2979 0.0
H770 H 0.18632 0.44443 0.274 0.0
H771 H 0.13403 0.46733 0.22531 0.0
H772 H 0.07553 0.39936 0.13066 0.0
H773 H 0.11731 0.35303 0.15445 0.0
C774 C 0.17635 0.35573 0.21813 0.0
C775 C 0.20566 0.36069 0.25269 0.0
C776 C 0.15062 0.38241 0.20415 0.0
C777 C 0.20734 0.39349 0.27182 0.0
C778 C 0.18277 0.41981 0.25788 0.0
C779 C 0.1297 0.44228 0.20968 0.0
C780 C 0.10014 0.43802 0.1755 0.0
C781 C 0.15424 0.41498 0.22401 0.0
C782 C 0.09672 0.40452 0.15686 0.0
C783 C 0.12126 0.37768 0.17061 0.0
H784 H 0.09319 0.74842 0.95759 0.0
H785 H 0.20944 0.76295 1.01562 0.0
H786 H 0.19156 0.72679 0.07415 0.0
H787 H 0.14603 0.67668 0.10036 0.0
H788 H 0.03329 0.65195 0.03443 0.0
H789 H 0.04602 0.70566 0.98823 0.0
C790 C 0.11452 0.74433 0.9834 0.0
C791 C 0.15262 0.75698 0.98157 0.0
C792 C 0.10452 0.72056 1.01549 0.0
C793 C 0.17984 0.75309 1.01581 0.0
C794 C 0.16971 0.73179 0.0492 0.0
C795 C 0.12407 0.68365 0.07634 0.0
C796 C 0.08857 0.66039 0.07095 0.0
C797 C 0.13262 0.71297 0.04803 0.0
C798 C 0.0603 0.66987 0.04002 0.0
C799 C 0.06788 0.70036 1.01307 0.0
H800 H 0.34821 0.18762 0.84305 0.0
H801 H 0.30071 0.21999 0.93501 0.0
H802 H 0.33534 0.17941 0.98333 0.0
H803 H 0.38602 0.14167 1.00106 0.0
H804 H 0.43594 0.11259 0.90971 0.0
H805 H 0.39308 0.14406 0.85962 0.0
C806 C 0.34489 0.18538 0.87352 0.0
C807 C 0.32229 0.20741 0.88532 0.0
C808 C 0.36543 0.16242 0.90142 0.0
C809 C 0.31823 0.20379 0.925 0.0
C810 C 0.33806 0.18054 0.95279 0.0
C811 C 0.38642 0.14116 0.97005 0.0
C812 C 0.41355 0.12455 0.95881 0.0
C813 C 0.36267 0.16064 0.94157 0.0
C814 C 0.41478 0.12484 0.91875 0.0
C815 C 0.39058 0.14315 0.89021 0.0
H816 H 0.82907 0.39894 0.8946 0.0
H817 H 0.88813 0.30831 0.94407 0.0
H818 H 0.92463 0.34658 0.99666 0.0
H819 H 0.94109 0.4065 0.0305 0.0
H820 H 0.87797 0.49507 0.98494 0.0
H821 H 0.84336 0.45794 0.9307 0.0
C822 C 0.85009 0.38752 0.91662 0.0
C823 C 0.85555 0.35012 0.91403 0.0
C824 C 0.87094 0.4098 0.9484 0.0
C825 C 0.88279 0.33653 0.94418 0.0
C826 C 0.90402 0.35868 0.97471 0.0
C827 C 0.91984 0.41794 1.00882 0.0
C828 C 0.91297 0.45449 1.01295 0.0
C829 C 0.89858 0.39551 0.97744 0.0
C830 C 0.88463 0.46757 0.98372 0.0
C831 C 0.86448 0.44607 0.95216 0.0
H832 H 0.74415 0.98366 0.97086 0.0
H833 H 0.7046 0.86918 1.01222 0.0
H834 H 0.66097 0.89071 0.04492 0.0
H835 H 0.62991 0.9412 0.05637 0.0
H836 H 0.67077 0.05585 1.01742 0.0
H837 H 0.71898 0.03514 0.99021 0.0
C838 C 0.72679 0.96341 0.98786 0.0
C839 C 0.72731 0.92468 0.98834 0.0
C840 C 0.7019 0.976 1.00694 0.0
C841 C 0.70417 0.89901 1.01036 0.0
C842 C 0.67931 0.91131 0.02929 0.0
C843 C 0.64971 0.96169 0.04236 0.0
C844 C 0.64655 0.9999 0.03842 0.0
C845 C 0.6772 0.94959 0.0268 0.0
C846 C 0.6727 1.02628 1.02081 0.0
C847 C 0.70007 1.01441 1.00503 0.0
H848 H 0.83093 0.68418 0.25481 0.0
H849 H 0.89241 0.79071 0.2167 0.0
H850 H 0.92764 0.75827 0.18311 0.0
H851 H 0.9427 0.69892 0.1619 0.0
H852 H 0.87755 0.59252 0.19446 0.0
H853 H 0.84414 0.62459 0.23086 0.0
C854 C 0.85213 0.70076 0.23948 0.0
C855 C 0.85815 0.74143 0.24 0.0
C856 C 0.87257 0.68123 0.21816 0.0
C857 C 0.88602 0.7603 0.21828 0.0
C858 C 0.90669 0.74131 0.19852 0.0
C859 C 0.92136 0.68221 0.17694 0.0
C860 C 0.91415 0.64178 0.17446 0.0
C861 C 0.90055 0.70161 0.19782 0.0
C862 C 0.88513 0.62279 0.19468 0.0
C863 C 0.86552 0.64158 0.21604 0.0
H864 H 0.36544 0.84794 0.1895 0.0
H865 H 0.31989 0.93896 0.21975 0.0
H866 H 0.35344 0.98272 0.1748 0.0
H867 H 0.39901 0.99689 0.12784 0.0
H868 H 0.44447 0.90511 0.09903 0.0
H869 H 0.40814 0.86129 0.14109 0.0
C870 C 0.36249 0.87727 0.18615 0.0
C871 C 0.33964 0.8895 0.20863 0.0
C872 C 0.38228 0.90288 0.15991 0.0
C873 C 0.3369 0.92805 0.20332 0.0
C874 C 0.3563 0.95344 0.17735 0.0
C875 C 0.40051 0.96726 0.13016 0.0
C876 C 0.42496 0.95494 0.10956 0.0
C877 C 0.37947 0.94146 0.15549 0.0
C878 C 0.42638 0.91608 0.1141 0.0
C879 C 0.40548 0.89066 0.13847 0.0
H880 H 0.68315 0.27301 0.20875 0.0
H881 H 0.74877 0.18728 0.25683 0.0
H882 H 0.71341 0.14658 0.20517 0.0
H883 H 0.66391 0.13631 0.14433 0.0
H884 H 0.60086 0.22512 0.09749 0.0
H885 H 0.63498 0.2633 0.15022 0.0
C886 C 0.68869 0.24476 0.20877 0.0
C887 C 0.71769 0.2327 0.23715 0.0
C888 C 0.66881 0.22208 0.1787 0.0
C889 C 0.72556 0.1966 0.23619 0.0
C890 C 0.70558 0.17353 0.20626 0.0
C891 C 0.65771 0.164 0.14568 0.0
C892 C 0.62933 0.17738 0.11686 0.0
C893 C 0.67733 0.18615 0.17692 0.0
C894 C 0.62213 0.21364 0.11912 0.0
C895 C 0.64152 0.23561 0.14952 0.0
H896 H 0.67531 0.69691 0.82589 0.0
H897 H 0.75362 0.75623 0.91747 0.0
H898 H 0.72085 0.71867 0.96701 0.0
H899 H 0.67099 0.66779 0.98581 0.0
H900 H 0.59131 0.60795 0.89557 0.0
H901 H 0.62293 0.64655 0.84513 0.0
C902 C 0.68517 0.70189 0.85666 0.0
C903 C 0.71768 0.72992 0.8673 0.0
C904 C 0.66568 0.67977 0.88574 0.0
C905 C 0.72931 0.73524 0.90772 0.0
C906 C 0.71035 0.71355 0.93636 0.0
C907 C 0.66006 0.66299 0.95515 0.0
C908 C 0.6281 0.6342 0.94535 0.0
C909 C 0.67864 0.68552 0.92595 0.0
C910 C 0.6153 0.62944 0.90487 0.0
C911 C 0.63369 0.65168 0.87573 0.0
H912 H 0.42533 0.73198 0.86914 0.0
H913 H 0.3171 0.67854 0.89534 0.0
H914 H 0.34616 0.63092 0.93915 0.0
H915 H 0.40203 0.60267 0.97058 0.0
H916 H 0.51103 0.65591 0.94676 0.0
H917 H 0.48233 0.70426 0.90269 0.0
C918 C 0.40796 0.70997 0.88434 0.0
C919 C 0.36842 0.70959 0.87805 0.0
C920 C 0.42521 0.68207 0.91052 0.0
C921 C 0.34722 0.68039 0.89886 0.0
C922 C 0.36397 0.65276 0.92423 0.0
C923 C 0.4198 0.62482 0.95596 0.0
C924 C 0.4592 0.62485 0.96266 0.0
C925 C 0.40293 0.65307 0.9304 0.0
C926 C 0.48094 0.65449 0.94292 0.0
C927 C 0.46434 0.68238 0.91734 0.0
H928 H 0.39577 0.40152 0.81936 0.0
H929 H 0.33285 0.33726 0.904 0.0
H930 H 0.36838 0.37817 0.95479 0.0
H931 H 0.4167 0.43126 0.97519 0.0
H932 H 0.48088 0.49685 0.89212 0.0
H933 H 0.44571 0.45577 0.84068 0.0
C934 C 0.38981 0.39655 0.84893 0.0
C935 C 0.36149 0.36635 0.85784 0.0
C936 C 0.41069 0.42017 0.87822 0.0
C937 C 0.35425 0.36026 0.89629 0.0
C938 C 0.37467 0.38361 0.92537 0.0
C939 C 0.42331 0.437 0.94591 0.0
C940 C 0.45159 0.46763 0.93778 0.0
C941 C 0.40291 0.41355 0.91666 0.0
C942 C 0.45945 0.47372 0.89947 0.0
C943 C 0.4392 0.45024 0.86999 0.0
H944 H 0.62012 0.39192 0.89686 0.0
H945 H 0.73726 0.43582 0.93758 0.0
H946 H 0.72078 0.46899 0.98699 0.0
H947 H 0.67288 0.49217 1.01165 0.0
H948 H 0.55533 0.45125 0.9683 0.0
H949 H 0.57218 0.40928 0.92759 0.0
C950 C 0.64197 0.40808 0.91721 0.0
C951 C 0.67967 0.41213 0.91344 0.0
C952 C 0.63223 0.42772 0.94476 0.0
C953 C 0.70795 0.43307 0.93973 0.0
C954 C 0.69857 0.45191 0.9679 0.0
C955 C 0.65092 0.47375 0.99366 0.0
C956 C 0.61301 0.47547 0.99221 0.0
C957 C 0.66074 0.45058 0.96958 0.0
C958 C 0.58482 0.45077 0.96957 0.0
C959 C 0.59439 0.42689 0.94613 0.0
H960 H 0.7466 0.39675 0.19178 0.0
H961 H 0.68357 0.37143 0.28587 0.0
H962 H 0.63791 0.40957 0.25002 0.0
H963 H 0.6153 0.45287 0.19163 0.0
H964 H 0.67891 0.4773 0.0979 0.0
H965 H 0.72302 0.43756 0.13293 0.0
C966 C 0.72301 0.39951 0.20472 0.0
C967 C 0.71957 0.38072 0.2424 0.0
C968 C 0.69596 0.42171 0.18338 0.0
C969 C 0.68792 0.3851 0.25746 0.0
C970 C 0.66135 0.40715 0.23668 0.0
C971 C 0.6383 0.44899 0.17837 0.0
C972 C 0.64275 0.46859 0.14119 0.0
C973 C 0.6648 0.42583 0.19943 0.0
C974 C 0.67388 0.46307 0.12591 0.0
C975 C 0.69962 0.44019 0.14623 0.0
H976 H 0.67278 0.72014 0.26561 0.0
H977 H 0.7417 0.77281 0.1811 0.0
H978 H 0.7126 0.72319 0.13717 0.0
H979 H 0.67145 0.66399 0.12469 0.0
H980 H 0.60267 0.60839 0.20841 0.0
H981 H 0.62837 0.66029 0.25118 0.0
C982 C 0.68092 0.72116 0.23723 0.0
C983 C 0.70934 0.75043 0.22648 0.0
C984 C 0.66471 0.69179 0.2125 0.0
C985 C 0.71984 0.7509 0.18991 0.0
C986 C 0.70339 0.72236 0.16496 0.0
C987 C 0.66176 0.66264 0.15229 0.0
C988 C 0.63525 0.63156 0.16334 0.0
C989 C 0.67646 0.69237 0.17635 0.0
C990 C 0.62322 0.63145 0.19916 0.0
C991 C 0.63785 0.66127 0.22353 0.0
H992 H 0.46338 0.7087 0.19248 0.0
H993 H 0.35444 0.68802 0.11719 0.0
H994 H 0.37776 0.64916 0.07821 0.0
H995 H 0.42579 0.61301 0.07288 0.0
H996 H 0.53453 0.63288 0.14871 0.0
H997 H 0.51484 0.68073 0.17984 0.0
C998 C 0.44515 0.69676 0.16673 0.0
C999 C 0.40714 0.70054 0.15804 0.0
C1000 C 0.45849 0.67378 0.1451 0.0
C1001 C 0.38369 0.68485 0.12471 0.0
C1002 C 0.39693 0.66254 0.10257 0.0
C1003 C 0.44526 0.62819 0.09592 0.0
C1004 C 0.48108 0.61892 0.1093 0.0
C1005 C 0.4337 0.65537 0.11375 0.0
C1006 C 0.50658 0.63935 0.13831 0.0
C1007 C 0.49533 0.66661 0.15616 0.0
H1008 H 0.4224 0.38056 0.27777 0.0
H1009 H 0.32429 0.35117 0.18868 0.0
H1010 H 0.35556 0.39211 0.13954 0.0
H1011 H 0.41052 0.43696 0.121 0.0
H1012 H 0.50843 0.46826 0.2099 0.0
H1013 H 0.47771 0.4265 0.25907 0.0
C1014 C 0.40766 0.38292 0.24759 0.0
C1015 C 0.37037 0.36199 0.23758 0.0
C1016 C 0.42602 0.40726 0.21905 0.0
C1017 C 0.35251 0.36628 0.19795 0.0
C1018 C 0.37061 0.38995 0.16961 0.0
C1019 C 0.4256 0.43487 0.15107 0.0
C1020 C 0.46263 0.4565 0.16083 0.0
C1021 C 0.40737 0.4107 0.17965 0.0
C1022 C 0.48046 0.45263 0.20059 0.0
C1023 C 0.46265 0.42847 0.22899 0.0
H1024 H 0.95127 0.71073 0.69359 0.0
H1025 H 0.86216 0.66738 0.60063 0.0
H1026 H 0.90642 0.64003 0.57397 0.0
H1027 H 0.96846 0.62121 0.58255 0.0
H1028 H 0.05662 0.66222 0.67698 0.0
H1029 H 1.01511 0.69849 0.69719 0.0
C1030 C 0.94169 0.6962 0.66688 0.0
C1031 C 0.9033 0.69082 0.6494 0.0
C1032 C 0.9672 0.68 0.6521 0.0
C1033 C 0.89139 0.67143 0.61506 0.0
C1034 C 0.9167 0.65582 0.59975 0.0
C1035 C 0.97882 0.63921 0.60666 0.0
C1036 C 1.01554 0.63977 0.62795 0.0
C1037 C 0.95439 0.6589 0.61876 0.0
C1038 C 1.02859 0.66209 0.65988 0.0
C1039 C 1.00475 0.68245 0.6716 0.0
H1040 H 0.4129 0.83282 0.55559 0.0
H1041 H 0.36716 0.92129 0.59056 0.0
H1042 H 0.40843 0.96821 0.55662 0.0
H1043 H 0.47223 0.98336 0.54227 0.0
H1044 H 0.52644 0.89357 0.52353 0.0
H1045 H 0.46895 0.84847 0.52648 0.0
C1046 C 0.41102 0.86237 0.55422 0.0
C1047 C 0.38955 0.87386 0.57802 0.0
C1048 C 0.4384 0.88923 0.53955 0.0
C1049 C 0.38493 0.9117 0.57399 0.0
C1050 C 0.40926 0.93875 0.55534 0.0
C1051 C 0.47121 0.95404 0.53814 0.0
C1052 C 0.50387 0.94147 0.53451 0.0
C1053 C 0.43881 0.92785 0.54232 0.0
C1054 C 0.50195 0.90365 0.52797 0.0
C1055 C 0.46899 0.87786 0.52925 0.0
H1056 H 0.21542 0.35867 0.68315 0.0
H1057 H 0.26506 0.428 0.77925 0.0
H1058 H 0.22224 0.47211 0.75363 0.0
H1059 H 0.16615 0.48792 0.70731 0.0
H1060 H 0.11722 0.41922 0.61054 0.0
H1061 H 0.16363 0.37816 0.63286 0.0
C1062 C 0.21774 0.38416 0.69755 0.0
C1063 C 0.24355 0.39019 0.73285 0.0
C1064 C 0.19222 0.40905 0.68318 0.0
C1065 C 0.24559 0.42292 0.75179 0.0
C1066 C 0.22076 0.44793 0.73747 0.0
C1067 C 0.16564 0.46381 0.6914 0.0
C1068 C 0.13795 0.45621 0.6578 0.0
C1069 C 0.19303 0.44062 0.70396 0.0
C1070 C 0.13813 0.42544 0.63676 0.0
C1071 C 0.16476 0.40199 0.64939 0.0
H1072 H 0.76267 0.18481 0.72579 0.0
H1073 H 0.71015 0.28209 0.68686 0.0
H1074 H 0.66711 0.2481 0.63507 0.0
H1075 H 0.64237 0.1909 0.59977 0.0
H1076 H 0.69506 0.09343 0.63396 0.0
H1077 H 0.73876 0.12672 0.68717 0.0
C1078 C 0.7417 0.19856 0.70619 0.0
C1079 C 0.74021 0.23663 0.71141 0.0
C1080 C 0.71656 0.1786 0.67482 0.0
C1081 C 0.71272 0.25331 0.68454 0.0
C1082 C 0.68771 0.2337 0.65447 0.0
C1083 C 0.66353 0.1767 0.61847 0.0
C1084 C 0.66477 0.13912 0.61179 0.0
C1085 C 0.68916 0.19636 0.64911 0.0
C1086 C 0.69282 0.12207 0.63739 0.0
C1087 C 0.71804 0.14129 0.66826 0.0
H1088 H 0.86461 0.35562 0.43778 0.0
H1089 H 0.8869 0.40213 0.32361 0.0
H1090 H 0.9353 0.45189 0.3546 0.0
H1091 H 0.97347 0.47999 0.41461 0.0
H1092 H 0.94898 0.4344 0.52839 0.0
H1093 H 0.8987 0.38695 0.497 0.0
C1094 C 0.88 0.37669 0.41958 0.0
C1095 C 0.8725 0.37486 0.37836 0.0
C1096 C 0.90722 0.4055 0.43759 0.0
C1097 C 0.89224 0.40279 0.35531 0.0
C1098 C 0.9199 0.43121 0.37308 0.0
C1099 C 0.95686 0.45994 0.43257 0.0
C1100 C 0.96533 0.46074 0.47399 0.0
C1101 C 0.92793 0.43259 0.41425 0.0
C1102 C 0.94315 0.43471 0.4966 0.0
C1103 C 0.91454 0.40731 0.47863 0.0
H1104 H 0.7222 0.93269 0.31005 0.0
H1105 H 0.72283 0.84225 0.4012 0.0
H1106 H 0.69092 0.87504 0.43746 0.0
H1107 H 0.6622 0.92902 0.44615 0.0
H1108 H 0.65643 1.02022 0.35591 0.0
H1109 H 0.68898 0.98809 0.31765 0.0
C1110 C 0.71496 0.91966 0.33739 0.0
C1111 C 0.72588 0.88342 0.35136 0.0
C1112 C 0.69499 0.93931 0.35905 0.0
C1113 C 0.71586 0.86904 0.38813 0.0
C1114 C 0.69713 0.88819 0.40946 0.0
C1115 C 0.66766 0.94257 0.41803 0.0
C1116 C 0.65582 0.97842 0.4053 0.0
C1117 C 0.68644 0.92336 0.3956 0.0
C1118 C 0.66401 0.99338 0.36787 0.0
C1119 C 0.6832 0.97459 0.34566 0.0
H1120 H 0.20117 0.76896 0.4098 0.0
H1121 H 0.26001 0.68979 0.37586 0.0
H1122 H 0.22588 0.63906 0.41295 0.0
H1123 H 0.17803 0.6149 0.45396 0.0
H1124 H 0.12007 0.69202 0.49214 0.0
H1125 H 0.15477 0.74444 0.45558 0.0
C1126 C 0.20683 0.74072 0.41071 0.0
C1127 C 0.2339 0.73416 0.38934 0.0
C1128 C 0.18694 0.71059 0.43324 0.0
C1129 C 0.24005 0.69675 0.39156 0.0
C1130 C 0.22024 0.66721 0.41294 0.0
C1131 C 0.17294 0.64314 0.45473 0.0
C1132 C 0.14586 0.64871 0.47633 0.0
C1133 C 0.19345 0.67351 0.43378 0.0
C1134 C 0.14053 0.68613 0.47643 0.0
C1135 C 0.16044 0.71638 0.45513 0.0
H1136 H 0.37933 0.17617 0.31361 0.0
H1137 H 0.42104 0.26552 0.39142 0.0
H1138 H 0.47378 0.23515 0.42191 0.0
H1139 H 0.50854 0.18288 0.43048 0.0
H1140 H 0.46956 0.09011 0.35742 0.0
H1141 H 0.41758 0.12197 0.3216 0.0
C1142 C 0.39993 0.18926 0.33709 0.0
C1143 C 0.39461 0.22421 0.34951 0.0
C1144 C 0.4317 0.17084 0.3557 0.0
C1145 C 0.42275 0.23937 0.38041 0.0
C1146 C 0.45361 0.22176 0.39821 0.0
C1147 C 0.48925 0.16932 0.40628 0.0
C1148 C 0.49477 0.13349 0.39713 0.0
C1149 C 0.45848 0.18746 0.38655 0.0
C1150 C 0.46802 0.11757 0.36546 0.0
C1151 C 0.43747 0.1359 0.34512 0.0
H1152 H 0.71168 0.89449 0.75637 0.0
H1153 H 0.73813 0.8301 0.67217 0.0
H1154 H 0.70831 0.86922 0.61838 0.0
H1155 H 0.67571 0.92172 0.59425 0.0
H1156 H 0.64648 0.98687 0.67576 0.0
H1157 H 0.67623 0.94768 0.73105 0.0
C1158 C 0.71066 0.8888 0.72626 0.0
C1159 C 0.72741 0.85887 0.71881 0.0
C1160 C 0.69312 0.91183 0.69473 0.0
C1161 C 0.72569 0.85247 0.67933 0.0
C1162 C 0.70862 0.87506 0.64829 0.0
C1163 C 0.67583 0.92789 0.624 0.0
C1164 C 0.65891 0.95802 0.63027 0.0
C1165 C 0.69251 0.90493 0.65554 0.0
C1166 C 0.65924 0.96435 0.66953 0.0
C1167 C 0.6763 0.94175 0.70128 0.0
H1168 H 0.7499 0.24939 0.56863 0.0
H1169 H 0.82243 0.17784 0.55126 0.0
H1170 H 0.76883 0.12633 0.53749 0.0
H1171 H 0.70096 0.11269 0.50402 0.0
H1172 H 0.63273 0.19779 0.50029 0.0
H1173 H 0.6836 0.23529 0.54187 0.0
C1174 C 0.75393 0.2223 0.56173 0.0
C1175 C 0.78755 0.21956 0.55029 0.0
C1176 C 0.72238 0.1969 0.54576 0.0
C1177 C 0.79468 0.1825 0.55283 0.0
C1178 C 0.76389 0.15337 0.54337 0.0
C1179 C 0.69727 0.13936 0.51233 0.0
C1180 C 0.66309 0.15244 0.49847 0.0
C1181 C 0.72743 0.16213 0.53486 0.0
C1182 C 0.65881 0.18714 0.50983 0.0
C1183 C 0.68768 0.20849 0.53427 0.0
H1184 H 0.8694 0.64758 0.45516 0.0
H1185 H 0.83923 0.56864 0.3657 0.0
H1186 H 0.90151 0.55007 0.38533 0.0
H1187 H 0.96493 0.55759 0.4283 0.0
H1188 H 0.99276 0.63874 0.51568 0.0
H1189 H 0.93071 0.65574 0.49606 0.0
C1190 C 0.87594 0.62551 0.44057 0.0
C1191 C 0.84952 0.60857 0.40993 0.0
C1192 C 0.9116 0.61622 0.45101 0.0
C1193 C 0.85902 0.58136 0.39003 0.0
C1194 C 0.89463 0.57113 0.40095 0.0
C1195 C 0.95742 0.57952 0.44224 0.0
C1196 C 0.98308 0.59723 0.47306 0.0
C1197 C 0.92133 0.58878 0.43115 0.0
C1198 C 0.97322 0.625 0.49176 0.0
C1199 C 0.9378 0.63451 0.48079 0.0
H1200 H 0.41286 0.83482 0.3953 0.0
H1201 H 0.34568 0.92033 0.35153 0.0
H1202 H 0.39835 0.96898 0.37773 0.0
H1203 H 0.4653 0.98741 0.41187 0.0
H1204 H 0.53219 0.89994 0.44819 0.0
H1205 H 0.47846 0.85273 0.4263 0.0
C1206 C 0.40948 0.86404 0.39184 0.0
C1207 C 0.37506 0.87374 0.37192 0.0
C1208 C 0.44031 0.89191 0.4055 0.0
C1209 C 0.37171 0.91197 0.36705 0.0
C1210 C 0.40196 0.93984 0.38191 0.0
C1211 C 0.46812 0.95807 0.41487 0.0
C1212 C 0.50329 0.9478 0.4321 0.0
C1213 C 0.43673 0.93026 0.40094 0.0
C1214 C 0.50599 0.90934 0.4352 0.0
C1215 C 0.47503 0.88192 0.42275 0.0
H1216 H 0.17675 0.36164 0.44024 0.0
H1217 H 0.26437 0.39933 0.53713 0.0
H1218 H 0.21971 0.42546 0.56447 0.0
H1219 H 0.15871 0.44648 0.55442 0.0
H1220 H 0.0724 0.41099 0.4561 0.0
H1221 H 0.11326 0.37391 0.43614 0.0
C1222 C 0.1859 0.37449 0.46799 0.0
C1223 C 0.22398 0.37906 0.48629 0.0
C1224 C 0.16028 0.3899 0.48312 0.0
C1225 C 0.23537 0.3962 0.52203 0.0
C1226 C 0.20986 0.41104 0.53772 0.0
C1227 C 0.14856 0.42938 0.52956 0.0
C1228 C 0.11282 0.4308 0.50683 0.0
C1229 C 0.17266 0.40937 0.51763 0.0
C1230 C 0.0998 0.40959 0.4741 0.0
C1231 C 0.12326 0.38881 0.46255 0.0
H1232 H 0.47106 0.1606 0.71102 0.0
H1233 H 0.37874 0.16162 0.61263 0.0
H1234 H 0.40928 0.12796 0.57573 0.0
H1235 H 0.4635 0.1014 0.56852 0.0
H1236 H 0.55693 0.09893 0.66488 0.0
H1237 H 0.5247 0.12873 0.70513 0.0
C1238 C 0.45753 0.15336 0.68157 0.0
C1239 C 0.42204 0.16395 0.66512 0.0
C1240 C 0.47546 0.13322 0.65997 0.0
C1241 C 0.4054 0.15377 0.62678 0.0
C1242 C 0.42304 0.13448 0.60535 0.0
C1243 C 0.4766 0.10647 0.59872 0.0
C1244 C 0.5127 0.09717 0.6135 0.0
C1245 C 0.45812 0.12426 0.62138 0.0
C1246 C 0.529 0.10467 0.65268 0.0
C1247 C 0.51067 0.12239 0.67556 0.0
H1248 H 0.90379 0.32081 0.72095 0.0
H1249 H 0.85474 0.4131 0.74307 0.0
H1250 H 0.89572 0.45661 0.70572 0.0
H1251 H 0.94675 0.47053 0.66824 0.0
H1252 H 0.99691 0.38084 0.64262 0.0
H1253 H 0.95449 0.33517 0.67864 0.0
C1254 C 0.90194 0.35041 0.71753 0.0
C1255 C 0.87554 0.36305 0.73562 0.0
C1256 C 0.92598 0.3762 0.69493 0.0
C1257 C 0.87413 0.40181 0.73009 0.0
C1258 C 0.89783 0.42708 0.70849 0.0
C1259 C 0.94851 0.44096 0.67005 0.0
C1260 C 0.97567 0.42976 0.65225 0.0
C1261 C 0.92399 0.41484 0.69094 0.0
C1262 C 0.97653 0.39089 0.6553 0.0
C1263 C 0.95225 0.36462 0.67638 0.0
H1264 H 0.25104 0.68494 0.76125 0.0
H1265 H 0.24304 0.76737 0.66195 0.0
H1266 H 0.20141 0.72058 0.62091 0.0
H1267 H 0.16494 0.65667 0.61354 0.0
H1268 H 0.17119 0.57446 0.71297 0.0
H1269 H 0.21633 0.62002 0.75306 0.0
C1270 C 0.23998 0.69261 0.7307 0.0
C1271 C 0.24995 0.72965 0.71478 0.0
C1272 C 0.21618 0.66532 0.70697 0.0
C1273 C 0.23571 0.73907 0.675 0.0
C1274 C 0.21202 0.71227 0.65138 0.0
C1275 C 0.17706 0.64848 0.64363 0.0
C1276 C 0.16516 0.61211 0.66009 0.0
C1277 C 0.20202 0.67528 0.66697 0.0
C1278 C 0.18027 0.60221 0.69952 0.0
C1279 C 0.20578 0.62837 0.72259 0.0
loop_
_geom_bond_atom_site_label_1
_geom_bond_atom_site_label_2
_geom_bond_distance
_geom_bond_site_symmetry_2
_ccdc_geom_bond_type
C0 Eu1 2.835 . S
C0 C2 1.500 . S
C0 O20 1.257 . S
C0 O21 1.260 . S
Eu1 C0 2.835 . S
Eu1 O20 2.473 . S
Eu1 O21 2.480 . S
Eu1 O22 2.430 . S
Eu1 O23 2.670 . S
Eu1 O24 2.394 . S
Eu1 O29 2.355 . S
Eu1 O31 2.374 . S
C2 C0 1.500 . S
C2 C3 1.377 . S
C2 C7 1.377 . S
C3 C2 1.377 . S
C3 C4 1.395 . S
C3 H32 0.931 . S
C4 C3 1.395 . S
C4 C5 1.383 . S
C4 H33 0.931 . S
C5 C4 1.383 . S
C5 C6 1.394 . S
C6 C5 1.394 . S
C6 C7 1.378 . S
C6 H34 0.931 . S
C7 C2 1.377 . S
C7 C6 1.378 . S
C7 H35 0.931 . S
C8 O22 1.259 . S
C8 O23 1.270 . S
C9 O24 1.251 . S
C9 O25 1.251 . S
C10 Eu11 2.835 . S
C10 C12 1.500 . S
C10 O26 1.257 . S
C10 O27 1.260 . S
Eu11 C10 2.835 . S
Eu11 O23 2.355 . S
Eu11 O25 2.374 . S
Eu11 O26 2.473 . S
Eu11 O27 2.480 . S
Eu11 O28 2.430 . S
Eu11 O29 2.670 . S
Eu11 O30 2.394 . S
C12 C10 1.500 . S
C12 C13 1.377 . S
C12 C17 1.377 . S
C13 C12 1.377 . S
C13 C14 1.395 . S
C13 H36 0.931 . S
C14 C13 1.395 . S
C14 C15 1.383 . S
C14 H37 0.931 . S
C15 C14 1.383 . S
C15 C16 1.394 . S
C16 C15 1.394 . S
C16 C17 1.378 . S
C16 H38 0.931 . S
C17 C12 1.377 . S
C17 C16 1.378 . S
C17 H39 0.931 . S
C18 O28 1.259 . S
C18 O29 1.270 . S
C19 O30 1.251 . S
C19 O31 1.251 . S
O20 C0 1.257 . S
O20 Eu1 2.473 . S
O21 C0 1.260 . S
O21 Eu1 2.480 . S
O22 Eu1 2.430 . S
O22 C8 1.259 . S
O23 Eu1 2.670 . S
O23 C8 1.270 . S
O23 Eu11 2.355 . S
O24 Eu1 2.394 . S
O24 C9 1.251 . S
O25 C9 1.251 . S
O25 Eu11 2.374 . S
O26 C10 1.257 . S
O26 Eu11 2.473 . S
O27 C10 1.260 . S
O27 Eu11 2.480 . S
O28 Eu11 2.430 . S
O28 C18 1.259 . S
O29 Eu1 2.355 . S
O29 Eu11 2.670 . S
O29 C18 1.270 . S
O30 Eu11 2.394 . S
O30 C19 1.251 . S
O31 Eu1 2.374 . S
O31 C19 1.251 . S
H32 C3 0.931 . S
H33 C4 0.931 . S
H34 C6 0.931 . S
H35 C7 0.931 . S
H36 C13 0.931 . S
H37 C14 0.931 . S
H38 C16 0.931 . S
H39 C17 0.931 . S
C40 Eu41 2.835 . S
C40 C42 1.500 . S
C40 O60 1.257 . S
C40 O61 1.260 . S
Eu41 C40 2.835 . S
Eu41 O60 2.473 . S
Eu41 O61 2.480 . S
Eu41 O62 2.430 . S
Eu41 O63 2.670 . S
Eu41 O64 2.394 . S
Eu41 O69 2.355 . S
Eu41 O71 2.374 . S
C42 C40 1.500 . S
C42 C43 1.377 . S
C42 C47 1.377 . S
C43 C42 1.377 . S
C43 C44 1.395 . S
C43 H72 0.931 . S
C44 C43 1.395 . S
C44 C45 1.383 . S
C44 H73 0.931 . S
C45 C44 1.383 . S
C45 C46 1.394 . S
C46 C45 1.394 . S
C46 C47 1.378 . S
C46 H74 0.931 . S
C47 C42 1.377 . S
C47 C46 1.378 . S
C47 H75 0.931 . S
C48 O62 1.259 . S
C48 O63 1.270 . S
C49 O64 1.251 . S
C49 O65 1.251 . S
C50 Eu51 2.835 . S
C50 C52 1.500 . S
C50 O66 1.257 . S
C50 O67 1.260 . S
Eu51 C50 2.835 . S
Eu51 O63 2.355 . S
Eu51 O65 2.374 . S
Eu51 O66 2.473 . S
Eu51 O67 2.480 . S
Eu51 O68 2.430 . S
Eu51 O69 2.670 . S
Eu51 O70 2.394 . S
C52 C50 1.500 . S
C52 C53 1.377 . S
C52 C57 1.377 . S
C53 C52 1.377 . S
C53 C54 1.395 . S
C53 H76 0.931 . S
C54 C53 1.395 . S
C54 C55 1.383 . S
C54 H77 0.931 . S
C55 C54 1.383 . S
C55 C56 1.394 . S
C56 C55 1.394 . S
C56 C57 1.378 . S
C56 H78 0.931 . S
C57 C52 1.377 . S
C57 C56 1.378 . S
C57 H79 0.931 . S
C58 O68 1.259 . S
C58 O69 1.270 . S
C59 O70 1.251 . S
C59 O71 1.251 . S
O60 C40 1.257 . S
O60 Eu41 2.473 . S
O61 C40 1.260 . S
O61 Eu41 2.480 . S
O62 Eu41 2.430 . S
O62 C48 1.259 . S
O63 Eu41 2.670 . S
O63 C48 1.270 . S
O63 Eu51 2.355 . S
O64 Eu41 2.394 . S
O64 C49 1.251 . S
O65 C49 1.251 . S
O65 Eu51 2.374 . S
O66 C50 1.257 . S
O66 Eu51 2.473 . S
O67 C50 1.260 . S
O67 Eu51 2.480 . S
O68 Eu51 2.430 . S
O68 C58 1.259 . S
O69 Eu41 2.355 . S
O69 Eu51 2.670 . S
O69 C58 1.270 . S
O70 Eu51 2.394 . S
O70 C59 1.251 . S
O71 Eu41 2.374 . S
O71 C59 1.251 . S
H72 C43 0.931 . S
H73 C44 0.931 . S
H74 C46 0.931 . S
H75 C47 0.931 . S
H76 C53 0.931 . S
H77 C54 0.931 . S
H78 C56 0.931 . S
H79 C57 0.931 . S
C80 Eu81 2.835 . S
C80 C82 1.500 . S
C80 O100 1.257 . S
C80 O101 1.260 . S
Eu81 C80 2.835 . S
Eu81 O100 2.473 . S
Eu81 O101 2.480 . S
Eu81 O102 2.430 . S
Eu81 O103 2.670 . S
Eu81 O104 2.394 . S
Eu81 O109 2.355 . S
Eu81 O111 2.374 . S
C82 C80 1.500 . S
C82 C83 1.377 . S
C82 C87 1.377 . S
C83 C82 1.377 . S
C83 C84 1.395 . S
C83 H112 0.931 . S
C84 C83 1.395 . S
C84 C85 1.383 . S
C84 H113 0.931 . S
C85 C84 1.383 . S
C85 C86 1.394 . S
C86 C85 1.394 . S
C86 C87 1.378 . S
C86 H114 0.931 . S
C87 C82 1.377 . S
C87 C86 1.378 . S
C87 H115 0.931 . S
C88 O102 1.259 . S
C88 O103 1.270 . S
C89 O104 1.251 . S
C89 O105 1.251 . S
C90 Eu91 2.835 . S
C90 C92 1.500 . S
C90 O106 1.257 . S
C90 O107 1.260 . S
Eu91 C90 2.835 . S
Eu91 O103 2.355 . S
Eu91 O105 2.374 . S
Eu91 O106 2.473 . S
Eu91 O107 2.480 . S
Eu91 O108 2.430 . S
Eu91 O109 2.670 . S
Eu91 O110 2.394 . S
C92 C90 1.500 . S
C92 C93 1.377 . S
C92 C97 1.377 . S
C93 C92 1.377 . S
C93 C94 1.395 . S
C93 H116 0.931 . S
C94 C93 1.395 . S
C94 C95 1.383 . S
C94 H117 0.931 . S
C95 C94 1.383 . S
C95 C96 1.394 . S
C96 C95 1.394 . S
C96 C97 1.378 . S
C96 H118 0.931 . S
C97 C92 1.377 . S
C97 C96 1.378 . S
C97 H119 0.931 . S
C98 O108 1.259 . S
C98 O109 1.270 . S
C99 O110 1.251 . S
C99 O111 1.251 . S
O100 C80 1.257 . S
O100 Eu81 2.473 . S
O101 C80 1.260 . S
O101 Eu81 2.480 . S
O102 Eu81 2.430 . S
O102 C88 1.259 . S
O103 Eu81 2.670 . S
O103 C88 1.270 . S
O103 Eu91 2.355 . S
O104 Eu81 2.394 . S
O104 C89 1.251 . S
O105 C89 1.251 . S
O105 Eu91 2.374 . S
O106 C90 1.257 . S
O106 Eu91 2.473 . S
O107 C90 1.260 . S
O107 Eu91 2.480 . S
O108 Eu91 2.430 . S
O108 C98 1.259 . S
O109 Eu81 2.355 . S
O109 Eu91 2.670 . S
O109 C98 1.270 . S
O110 Eu91 2.394 . S
O110 C99 1.251 . S
O111 Eu81 2.374 . S
O111 C99 1.251 . S
H112 C83 0.931 . S
H113 C84 0.931 . S
H114 C86 0.931 . S
H115 C87 0.931 . S
H116 C93 0.931 . S
H117 C94 0.931 . S
H118 C96 0.931 . S
H119 C97 0.931 . S
C120 Eu121 2.835 . S
C120 C122 1.500 . S
C120 O140 1.257 . S
C120 O141 1.260 . S
Eu121 C120 2.835 . S
Eu121 O140 2.473 . S
Eu121 O141 2.480 . S
Eu121 O142 2.430 . S
Eu121 O143 2.670 . S
Eu121 O144 2.394 . S
Eu121 O149 2.355 . S
Eu121 O151 2.374 . S
C122 C120 1.500 . S
C122 C123 1.377 . S
C122 C127 1.377 . S
C123 C122 1.377 . S
C123 C124 1.395 . S
C123 H152 0.931 . S
C124 C123 1.395 . S
C124 C125 1.383 . S
C124 H153 0.931 . S
C125 C124 1.383 . S
C125 C126 1.394 . S
C126 C125 1.394 . S
C126 C127 1.378 . S
C126 H154 0.931 . S
C127 C122 1.377 . S
C127 C126 1.378 . S
C127 H155 0.931 . S
C128 O142 1.259 . S
C128 O143 1.270 . S
C129 O144 1.251 . S
C129 O145 1.251 . S
C130 Eu131 2.835 . S
C130 C132 1.500 . S
C130 O146 1.257 . S
C130 O147 1.260 . S
Eu131 C130 2.835 . S
Eu131 O143 2.355 . S
Eu131 O145 2.374 . S
Eu131 O146 2.473 . S
Eu131 O147 2.480 . S
Eu131 O148 2.430 . S
Eu131 O149 2.670 . S
Eu131 O150 2.394 . S
C132 C130 1.500 . S
C132 C133 1.377 . S
C132 C137 1.377 . S
C133 C132 1.377 . S
C133 C134 1.395 . S
C133 H156 0.931 . S
C134 C133 1.395 . S
C134 C135 1.383 . S
C134 H157 0.931 . S
C135 C134 1.383 . S
C135 C136 1.394 . S
C136 C135 1.394 . S
C136 C137 1.378 . S
C136 H158 0.931 . S
C137 C132 1.377 . S
C137 C136 1.378 . S
C137 H159 0.931 . S
C138 O148 1.259 . S
C138 O149 1.270 . S
C139 O150 1.251 . S
C139 O151 1.251 . S
O140 C120 1.257 . S
O140 Eu121 2.473 . S
O141 C120 1.260 . S
O141 Eu121 2.480 . S
O142 Eu121 2.430 . S
O142 C128 1.259 . S
O143 Eu121 2.670 . S
O143 C128 1.270 . S
O143 Eu131 2.355 . S
O144 Eu121 2.394 . S
O144 C129 1.251 . S
O145 C129 1.251 . S
O145 Eu131 2.374 . S
O146 C130 1.257 . S
O146 Eu131 2.473 . S
O147 C130 1.260 . S
O147 Eu131 2.480 . S
O148 Eu131 2.430 . S
O148 C138 1.259 . S
O149 Eu121 2.355 . S
O149 Eu131 2.670 . S
O149 C138 1.270 . S
O150 Eu131 2.394 . S
O150 C139 1.251 . S
O151 Eu121 2.374 . S
O151 C139 1.251 . S
H152 C123 0.931 . S
H153 C124 0.931 . S
H154 C126 0.931 . S
H155 C127 0.931 . S
H156 C133 0.931 . S
H157 C134 0.931 . S
H158 C136 0.931 . S
H159 C137 0.931 . S
C160 Eu161 2.835 . S
C160 C162 1.500 . S
C160 O180 1.257 . S
C160 O181 1.260 . S
Eu161 C160 2.835 . S
Eu161 O180 2.473 . S
Eu161 O181 2.480 . S
Eu161 O182 2.430 . S
Eu161 O183 2.670 . S
Eu161 O184 2.394 . S
Eu161 O189 2.355 . S
Eu161 O191 2.374 . S
C162 C160 1.500 . S
C162 C163 1.377 . S
C162 C167 1.377 . S
C163 C162 1.377 . S
C163 C164 1.395 . S
C163 H192 0.931 . S
C164 C163 1.395 . S
C164 C165 1.383 . S
C164 H193 0.931 . S
C165 C164 1.383 . S
C165 C166 1.394 . S
C166 C165 1.394 . S
C166 C167 1.378 . S
C166 H194 0.931 . S
C167 C162 1.377 . S
C167 C166 1.378 . S
C167 H195 0.931 . S
C168 O182 1.259 . S
C168 O183 1.270 . S
C169 O184 1.251 . S
C169 O185 1.251 . S
C170 Eu171 2.835 . S
C170 C172 1.500 . S
C170 O186 1.257 . S
C170 O187 1.260 . S
Eu171 C170 2.835 . S
Eu171 O183 2.355 . S
Eu171 O185 2.374 . S
Eu171 O186 2.473 . S
Eu171 O187 2.480 . S
Eu171 O188 2.430 . S
Eu171 O189 2.670 . S
Eu171 O190 2.394 . S
C172 C170 1.500 . S
C172 C173 1.377 . S
C172 C177 1.377 . S
C173 C172 1.377 . S
C173 C174 1.395 . S
C173 H196 0.931 . S
C174 C173 1.395 . S
C174 C175 1.383 . S
C174 H197 0.931 . S
C175 C174 1.383 . S
C175 C176 1.394 . S
C176 C175 1.394 . S
C176 C177 1.378 . S
C176 H198 0.931 . S
C177 C172 1.377 . S
C177 C176 1.378 . S
C177 H199 0.931 . S
C178 O188 1.259 . S
C178 O189 1.270 . S
C179 O190 1.251 . S
C179 O191 1.251 . S
O180 C160 1.257 . S
O180 Eu161 2.473 . S
O181 C160 1.260 . S
O181 Eu161 2.480 . S
O182 Eu161 2.430 . S
O182 C168 1.259 . S
O183 Eu161 2.670 . S
O183 C168 1.270 . S
O183 Eu171 2.355 . S
O184 Eu161 2.394 . S
O184 C169 1.251 . S
O185 C169 1.251 . S
O185 Eu171 2.374 . S
O186 C170 1.257 . S
O186 Eu171 2.473 . S
O187 C170 1.260 . S
O187 Eu171 2.480 . S
O188 Eu171 2.430 . S
O188 C178 1.259 . S
O189 Eu161 2.355 . S
O189 Eu171 2.670 . S
O189 C178 1.270 . S
O190 Eu171 2.394 . S
O190 C179 1.251 . S
O191 Eu161 2.374 . S
O191 C179 1.251 . S
H192 C163 0.931 . S
H193 C164 0.931 . S
H194 C166 0.931 . S
H195 C167 0.931 . S
H196 C173 0.931 . S
H197 C174 0.931 . S
H198 C176 0.931 . S
H199 C177 0.931 . S
C200 Eu201 2.835 . S
C200 C202 1.500 . S
C200 O220 1.257 . S
C200 O221 1.260 . S
Eu201 C200 2.835 . S
Eu201 O220 2.473 . S
Eu201 O221 2.480 . S
Eu201 O222 2.430 . S
Eu201 O223 2.670 . S
Eu201 O224 2.394 . S
Eu201 O229 2.355 . S
Eu201 O231 2.374 . S
C202 C200 1.500 . S
C202 C203 1.377 . S
C202 C207 1.377 . S
C203 C202 1.377 . S
C203 C204 1.395 . S
C203 H232 0.931 . S
C204 C203 1.395 . S
C204 C205 1.383 . S
C204 H233 0.931 . S
C205 C204 1.383 . S
C205 C206 1.394 . S
C206 C205 1.394 . S
C206 C207 1.378 . S
C206 H234 0.931 . S
C207 C202 1.377 . S
C207 C206 1.378 . S
C207 H235 0.931 . S
C208 O222 1.259 . S
C208 O223 1.270 . S
C209 O224 1.251 . S
C209 O225 1.251 . S
C210 Eu211 2.835 . S
C210 C212 1.500 . S
C210 O226 1.257 . S
C210 O227 1.260 . S
Eu211 C210 2.835 . S
Eu211 O223 2.355 . S
Eu211 O225 2.374 . S
Eu211 O226 2.473 . S
Eu211 O227 2.480 . S
Eu211 O228 2.430 . S
Eu211 O229 2.670 . S
Eu211 O230 2.394 . S
C212 C210 1.500 . S
C212 C213 1.377 . S
C212 C217 1.377 . S
C213 C212 1.377 . S
C213 C214 1.395 . S
C213 H236 0.931 . S
C214 C213 1.395 . S
C214 C215 1.383 . S
C214 H237 0.931 . S
C215 C214 1.383 . S
C215 C216 1.394 . S
C216 C215 1.394 . S
C216 C217 1.378 . S
C216 H238 0.931 . S
C217 C212 1.377 . S
C217 C216 1.378 . S
C217 H239 0.931 . S
C218 O228 1.259 . S
C218 O229 1.270 . S
C219 O230 1.251 . S
C219 O231 1.251 . S
O220 C200 1.257 . S
O220 Eu201 2.473 . S
O221 C200 1.260 . S
O221 Eu201 2.480 . S
O222 Eu201 2.430 . S
O222 C208 1.259 . S
O223 Eu201 2.670 . S
O223 C208 1.270 . S
O223 Eu211 2.355 . S
O224 Eu201 2.394 . S
O224 C209 1.251 . S
O225 C209 1.251 . S
O225 Eu211 2.374 . S
O226 C210 1.257 . S
O226 Eu211 2.473 . S
O227 C210 1.260 . S
O227 Eu211 2.480 . S
O228 Eu211 2.430 . S
O228 C218 1.259 . S
O229 Eu201 2.355 . S
O229 Eu211 2.670 . S
O229 C218 1.270 . S
O230 Eu211 2.394 . S
O230 C219 1.251 . S
O231 Eu201 2.374 . S
O231 C219 1.251 . S
H232 C203 0.931 . S
H233 C204 0.931 . S
H234 C206 0.931 . S
H235 C207 0.931 . S
H236 C213 0.931 . S
H237 C214 0.931 . S
H238 C216 0.931 . S
H239 C217 0.931 . S
C240 Eu241 2.835 . S
C240 C242 1.500 . S
C240 O260 1.257 . S
C240 O261 1.260 . S
Eu241 C240 2.835 . S
Eu241 O260 2.473 . S
Eu241 O261 2.480 . S
Eu241 O262 2.430 . S
Eu241 O263 2.670 . S
Eu241 O264 2.394 . S
Eu241 O269 2.355 . S
Eu241 O271 2.374 . S
C242 C240 1.500 . S
C242 C243 1.377 . S
C242 C247 1.377 . S
C243 C242 1.377 . S
C243 C244 1.395 . S
C243 H272 0.931 . S
C244 C243 1.395 . S
C244 C245 1.383 . S
C244 H273 0.931 . S
C245 C244 1.383 . S
C245 C246 1.394 . S
C246 C245 1.394 . S
C246 C247 1.378 . S
C246 H274 0.931 . S
C247 C242 1.377 . S
C247 C246 1.378 . S
C247 H275 0.931 . S
C248 O262 1.259 . S
C248 O263 1.270 . S
C249 O264 1.251 . S
C249 O265 1.251 . S
C250 Eu251 2.835 . S
C250 C252 1.500 . S
C250 O266 1.257 . S
C250 O267 1.260 . S
Eu251 C250 2.835 . S
Eu251 O263 2.355 . S
Eu251 O265 2.374 . S
Eu251 O266 2.473 . S
Eu251 O267 2.480 . S
Eu251 O268 2.430 . S
Eu251 O269 2.670 . S
Eu251 O270 2.394 . S
C252 C250 1.500 . S
C252 C253 1.377 . S
C252 C257 1.377 . S
C253 C252 1.377 . S
C253 C254 1.395 . S
C253 H276 0.931 . S
C254 C253 1.395 . S
C254 C255 1.383 . S
C254 H277 0.931 . S
C255 C254 1.383 . S
C255 C256 1.394 . S
C256 C255 1.394 . S
C256 C257 1.378 . S
C256 H278 0.931 . S
C257 C252 1.377 . S
C257 C256 1.378 . S
C257 H279 0.931 . S
C258 O268 1.259 . S
C258 O269 1.270 . S
C259 O270 1.251 . S
C259 O271 1.251 . S
O260 C240 1.257 . S
O260 Eu241 2.473 . S
O261 C240 1.260 . S
O261 Eu241 2.480 . S
O262 Eu241 2.430 . S
O262 C248 1.259 . S
O263 Eu241 2.670 . S
O263 C248 1.270 . S
O263 Eu251 2.355 . S
O264 Eu241 2.394 . S
O264 C249 1.251 . S
O265 C249 1.251 . S
O265 Eu251 2.374 . S
O266 C250 1.257 . S
O266 Eu251 2.473 . S
O267 C250 1.260 . S
O267 Eu251 2.480 . S
O268 Eu251 2.430 . S
O268 C258 1.259 . S
O269 Eu241 2.355 . S
O269 Eu251 2.670 . S
O269 C258 1.270 . S
O270 Eu251 2.394 . S
O270 C259 1.251 . S
O271 Eu241 2.374 . S
O271 C259 1.251 . S
H272 C243 0.931 . S
H273 C244 0.931 . S
H274 C246 0.931 . S
H275 C247 0.931 . S
H276 C253 0.931 . S
H277 C254 0.931 . S
H278 C256 0.931 . S
H279 C257 0.931 . S
C280 Eu281 2.835 . S
C280 C282 1.500 . S
C280 O300 1.257 . S
C280 O301 1.260 . S
Eu281 C280 2.835 . S
Eu281 O300 2.473 . S
Eu281 O301 2.480 . S
Eu281 O302 2.430 . S
Eu281 O303 2.670 . S
Eu281 O304 2.394 . S
Eu281 O309 2.355 . S
Eu281 O311 2.374 . S
C282 C280 1.500 . S
C282 C283 1.377 . S
C282 C287 1.377 . S
C283 C282 1.377 . S
C283 C284 1.395 . S
C283 H312 0.931 . S
C284 C283 1.395 . S
C284 C285 1.383 . S
C284 H313 0.931 . S
C285 C284 1.383 . S
C285 C286 1.394 . S
C286 C285 1.394 . S
C286 C287 1.378 . S
C286 H314 0.931 . S
C287 C282 1.377 . S
C287 C286 1.378 . S
C287 H315 0.931 . S
C288 O302 1.259 . S
C288 O303 1.270 . S
C289 O304 1.251 . S
C289 O305 1.251 . S
C290 Eu291 2.835 . S
C290 C292 1.500 . S
C290 O306 1.257 . S
C290 O307 1.260 . S
Eu291 C290 2.835 . S
Eu291 O303 2.355 . S
Eu291 O305 2.374 . S
Eu291 O306 2.473 . S
Eu291 O307 2.480 . S
Eu291 O308 2.430 . S
Eu291 O309 2.670 . S
Eu291 O310 2.394 . S
C292 C290 1.500 . S
C292 C293 1.377 . S
C292 C297 1.377 . S
C293 C292 1.377 . S
C293 C294 1.395 . S
C293 H316 0.931 . S
C294 C293 1.395 . S
C294 C295 1.383 . S
C294 H317 0.931 . S
C295 C294 1.383 . S
C295 C296 1.394 . S
C296 C295 1.394 . S
C296 C297 1.378 . S
C296 H318 0.931 . S
C297 C292 1.377 . S
C297 C296 1.378 . S
C297 H319 0.931 . S
C298 O308 1.259 . S
C298 O309 1.270 . S
C299 O310 1.251 . S
C299 O311 1.251 . S
O300 C280 1.257 . S
O300 Eu281 2.473 . S
O301 C280 1.260 . S
O301 Eu281 2.480 . S
O302 Eu281 2.430 . S
O302 C288 1.259 . S
O303 Eu281 2.670 . S
O303 C288 1.270 . S
O303 Eu291 2.355 . S
O304 Eu281 2.394 . S
O304 C289 1.251 . S
O305 C289 1.251 . S
O305 Eu291 2.374 . S
O306 C290 1.257 . S
O306 Eu291 2.473 . S
O307 C290 1.260 . S
O307 Eu291 2.480 . S
O308 Eu291 2.430 . S
O308 C298 1.259 . S
O309 Eu281 2.355 . S
O309 Eu291 2.670 . S
O309 C298 1.270 . S
O310 Eu291 2.394 . S
O310 C299 1.251 . S
O311 Eu281 2.374 . S
O311 C299 1.251 . S
H312 C283 0.931 . S
H313 C284 0.931 . S
H314 C286 0.931 . S
H315 C287 0.931 . S
H316 C293 0.931 . S
H317 C294 0.931 . S
H318 C296 0.931 . S
H319 C297 0.931 . S
Fe320 O321 1.886 1_455 S
Fe320 O324 1.715 . S
Fe320 O329 2.077 1_455 S
Fe320 O334 1.935 . S
Fe320 O340 2.077 1_455 S
Fe320 O349 1.935 . S
O321 Fe320 1.886 1_655 S
O321 Fe323 1.715 . S
Fe322 O324 1.886 . S
Fe322 O325 1.715 1_545 S
Fe322 O332 1.935 1_545 S
Fe322 O333 2.077 . S
Fe322 O339 1.935 1_545 S
Fe322 O348 2.077 . S
Fe323 O321 1.715 . S
Fe323 O326 1.886 1_545 S
Fe323 O330 1.935 . S
Fe323 O335 2.077 1_545 S
Fe323 O341 1.935 . S
Fe323 O345 2.077 1_545 S
O324 Fe320 1.715 . S
O324 Fe322 1.886 . S
O325 Fe322 1.715 1_565 S
O325 Fe327 1.886 . S
O326 Fe323 1.886 1_565 S
O326 Fe327 1.715 1_655 S
Fe327 O325 1.886 . S
Fe327 O326 1.715 1_455 S
Fe327 O331 2.077 . S
Fe327 O336 1.935 1_455 S
Fe327 O338 2.077 . S
Fe327 O346 1.935 1_455 S
C328 O340 1.381 . S
C328 O341 1.421 . S
O329 Fe320 2.077 1_655 S
O329 C342 1.381 . S
O330 Fe323 1.935 . S
O330 C342 1.421 . S
O331 Fe327 2.077 . S
O331 C347 1.381 . S
O332 Fe322 1.935 1_565 S
O332 C347 1.421 . S
O333 Fe322 2.077 . S
O333 C337 1.381 . S
O334 Fe320 1.935 . S
O334 C337 1.421 . S
O335 Fe323 2.077 1_565 S
O335 C343 1.381 . S
O336 Fe327 1.935 1_655 S
O336 C343 1.421 . S
C337 O333 1.381 . S
C337 O334 1.421 . S
O338 Fe327 2.077 . S
O338 C350 1.381 . S
O339 Fe322 1.935 1_565 S
O339 C350 1.421 . S
O340 Fe320 2.077 1_655 S
O340 C328 1.381 . S
O341 Fe323 1.935 . S
O341 C328 1.421 . S
C342 O329 1.381 . S
C342 O330 1.421 . S
C343 O335 1.381 . S
C343 O336 1.421 . S
C344 O345 1.381 . S
C344 O346 1.421 . S
O345 Fe323 2.077 1_565 S
O345 C344 1.381 . S
O346 Fe327 1.935 1_655 S
O346 C344 1.421 . S
C347 O331 1.381 . S
C347 O332 1.421 . S
O348 Fe322 2.077 . S
O348 C351 1.381 . S
O349 Fe320 1.935 . S
O349 C351 1.421 . S
C350 O338 1.381 . S
C350 O339 1.421 . S
C351 O348 1.381 . S
C351 O349 1.421 . S
Fe352 O353 1.885 1_565 S
Fe352 O356 1.716 1_554 S
Fe352 O361 2.068 1_554 S
Fe352 O366 1.927 1_554 S
Fe352 O372 2.084 . S
Fe352 O381 1.945 . S
O353 Fe352 1.885 1_545 S
O353 Fe355 1.715 . S
Fe354 O356 1.886 1_545 S
Fe354 O357 1.715 . S
Fe354 O364 1.935 . S
Fe354 O365 2.077 1_545 S
Fe354 O371 1.935 1_556 S
Fe354 O380 2.077 1_546 S
Fe355 O353 1.715 . S
Fe355 O358 1.886 . S
Fe355 O362 1.935 1_554 S
Fe355 O367 2.077 1_554 S
Fe355 O373 1.935 . S
Fe355 O377 2.077 . S
O356 Fe352 1.716 1_556 S
O356 Fe354 1.886 1_565 S
O357 Fe354 1.715 . S
O357 Fe359 1.885 . S
O358 Fe355 1.886 . S
O358 Fe359 1.716 1_554 S
Fe359 O357 1.885 . S
Fe359 O358 1.716 1_556 S
Fe359 O363 2.079 . S
Fe359 O368 1.939 . S
Fe359 O370 2.074 1_556 S
Fe359 O378 1.932 1_556 S
C360 O372 1.381 . S
C360 O373 1.421 1_565 S
O361 Fe352 2.068 1_556 S
O361 C374 1.381 . S
O362 Fe355 1.935 1_556 S
O362 C374 1.421 1_545 S
O363 Fe359 2.079 . S
O363 C379 1.381 . S
O364 Fe354 1.935 . S
O364 C379 1.421 . S
O365 Fe354 2.077 1_565 S
O365 C369 1.381 . S
O366 Fe352 1.927 1_556 S
O366 C369 1.421 . S
O367 Fe355 2.077 1_556 S
O367 C375 1.381 . S
O368 Fe359 1.939 . S
O368 C375 1.421 . S
C369 O365 1.381 . S
C369 O366 1.421 . S
O370 Fe359 2.074 1_554 S
O370 C382 1.381 . S
O371 Fe354 1.935 1_554 S
O371 C382 1.421 . S
O372 Fe352 2.084 . S
O372 C360 1.381 . S
O373 Fe355 1.935 . S
O373 C360 1.421 1_545 S
C374 O361 1.381 . S
C374 O362 1.421 1_565 S
C375 O367 1.381 . S
C375 O368 1.421 . S
C376 O377 1.381 . S
C376 O378 1.421 . S
O377 Fe355 2.077 . S
O377 C376 1.381 . S
O378 Fe359 1.932 1_554 S
O378 C376 1.421 . S
C379 O363 1.381 . S
C379 O364 1.421 . S
O380 Fe354 2.077 1_564 S
O380 C383 1.381 . S
O381 Fe352 1.945 . S
O381 C383 1.421 . S
C382 O370 1.381 . S
C382 O371 1.421 . S
C383 O380 1.381 . S
C383 O381 1.421 . S
Fe384 O385 1.886 1_455 S
Fe384 O388 1.715 . S
Fe384 O393 2.077 1_455 S
Fe384 O398 1.935 . S
Fe384 O404 2.077 1_455 S
Fe384 O413 1.935 . S
O385 Fe384 1.886 1_655 S
O385 Fe387 1.715 . S
Fe386 O388 1.886 . S
Fe386 O389 1.715 . S
Fe386 O396 1.935 . S
Fe386 O397 2.077 . S
Fe386 O403 1.935 . S
Fe386 O412 2.077 . S
Fe387 O385 1.715 . S
Fe387 O390 1.886 . S
Fe387 O394 1.935 1_554 S
Fe387 O399 2.077 . S
Fe387 O405 1.935 . S
Fe387 O409 2.077 . S
O388 Fe384 1.715 . S
O388 Fe386 1.886 . S
O389 Fe386 1.715 . S
O389 Fe391 1.886 1_455 S
O390 Fe387 1.886 . S
O390 Fe391 1.715 . S
Fe391 O389 1.886 1_655 S
Fe391 O390 1.715 . S
Fe391 O395 2.077 1_655 S
Fe391 O400 1.935 . S
Fe391 O402 2.077 1_655 S
Fe391 O410 1.935 . S
C392 O404 1.381 . S
C392 O405 1.421 . S
O393 Fe384 2.077 1_655 S
O393 C406 1.381 1_554 S
O394 Fe387 1.935 1_556 S
O394 C406 1.421 . S
O395 Fe391 2.077 1_455 S
O395 C411 1.381 . S
O396 Fe386 1.935 . S
O396 C411 1.421 . S
O397 Fe386 2.077 . S
O397 C401 1.381 . S
O398 Fe384 1.935 . S
O398 C401 1.421 . S
O399 Fe387 2.077 . S
O399 C407 1.381 1_554 S
O400 Fe391 1.935 . S
O400 C407 1.421 1_554 S
C401 O397 1.381 . S
C401 O398 1.421 . S
O402 Fe391 2.077 1_455 S
O402 C414 1.381 . S
O403 Fe386 1.935 . S
O403 C414 1.421 . S
O404 Fe384 2.077 1_655 S
O404 C392 1.381 . S
O405 Fe387 1.935 . S
O405 C392 1.421 . S
C406 O393 1.381 1_556 S
C406 O394 1.421 . S
C407 O399 1.381 1_556 S
C407 O400 1.421 1_556 S
C408 O409 1.381 . S
C408 O410 1.421 . S
O409 Fe387 2.077 . S
O409 C408 1.381 . S
O410 Fe391 1.935 . S
O410 C408 1.421 . S
C411 O395 1.381 . S
C411 O396 1.421 . S
O412 Fe386 2.077 . S
O412 C415 1.381 . S
O413 Fe384 1.935 . S
O413 C415 1.421 . S
C414 O402 1.381 . S
C414 O403 1.421 . S
C415 O412 1.381 . S
C415 O413 1.421 . S
Fe416 O417 1.886 1_556 S
Fe416 O420 1.715 . S
Fe416 O425 2.077 . S
Fe416 O430 1.935 . S
Fe416 O436 2.077 . S
Fe416 O445 1.935 . S
O417 Fe416 1.886 1_554 S
O417 Fe419 1.715 . S
Fe418 O420 1.886 1_554 S
Fe418 O421 1.715 . S
Fe418 O428 1.935 . S
Fe418 O429 2.077 1_554 S
Fe418 O435 1.935 . S
Fe418 O444 2.077 1_554 S
Fe419 O417 1.715 . S
Fe419 O422 1.886 . S
Fe419 O426 1.935 . S
Fe419 O431 2.077 . S
Fe419 O437 1.935 . S
Fe419 O441 2.077 . S
O420 Fe416 1.715 . S
O420 Fe418 1.886 1_556 S
O421 Fe418 1.715 . S
O421 Fe423 1.886 . S
O422 Fe419 1.886 . S
O422 Fe423 1.715 . S
Fe423 O421 1.886 . S
Fe423 O422 1.715 . S
Fe423 O427 2.077 . S
Fe423 O432 1.935 . S
Fe423 O434 2.077 . S
Fe423 O442 1.935 . S
C424 O436 1.381 . S
C424 O437 1.421 1_556 S
O425 Fe416 2.077 . S
O425 C438 1.381 . S
O426 Fe419 1.935 . S
O426 C438 1.421 1_554 S
O427 Fe423 2.077 . S
O427 C443 1.381 . S
O428 Fe418 1.935 . S
O428 C443 1.421 . S
O429 Fe418 2.077 1_556 S
O429 C433 1.381 . S
O430 Fe416 1.935 . S
O430 C433 1.421 . S
O431 Fe419 2.077 . S
O431 C439 1.381 . S
O432 Fe423 1.935 . S
O432 C439 1.421 . S
C433 O429 1.381 . S
C433 O430 1.421 . S
O434 Fe423 2.077 . S
O434 C446 1.381 . S
O435 Fe418 1.935 . S
O435 C446 1.421 . S
O436 Fe416 2.077 . S
O436 C424 1.381 . S
O437 Fe419 1.935 . S
O437 C424 1.421 1_554 S
C438 O425 1.381 . S
C438 O426 1.421 1_556 S
C439 O431 1.381 . S
C439 O432 1.421 . S
C440 O441 1.381 . S
C440 O442 1.421 . S
O441 Fe419 2.077 . S
O441 C440 1.381 . S
O442 Fe423 1.935 . S
O442 C440 1.421 . S
C443 O427 1.381 . S
C443 O428 1.421 . S
O444 Fe418 2.077 1_556 S
O444 C447 1.381 . S
O445 Fe416 1.935 . S
O445 C447 1.421 . S
C446 O434 1.381 . S
C446 O435 1.421 . S
C447 O444 1.381 . S
C447 O445 1.421 . S
Fe448 O449 1.886 . S
Fe448 O452 1.715 . S
Fe448 O457 2.077 . S
Fe448 O462 1.935 . S
Fe448 O468 2.077 1_455 S
Fe448 O477 1.935 1_455 S
O449 Fe448 1.886 . S
O449 Fe451 1.715 . S
Fe450 O452 1.886 . S
Fe450 O453 1.715 . S
Fe450 O460 1.935 . S
Fe450 O461 2.077 . S
Fe450 O467 1.935 1_455 S
Fe450 O476 2.077 1_455 S
Fe451 O449 1.715 . S
Fe451 O454 1.886 . S
Fe451 O458 1.935 . S
Fe451 O463 2.077 . S
Fe451 O469 1.935 . S
Fe451 O473 2.077 . S
O452 Fe448 1.715 . S
O452 Fe450 1.886 . S
O453 Fe450 1.715 . S
O453 Fe455 1.886 . S
O454 Fe451 1.886 . S
O454 Fe455 1.715 . S
Fe455 O453 1.886 . S
Fe455 O454 1.715 . S
Fe455 O459 2.077 . S
Fe455 O464 1.935 . S
Fe455 O466 2.077 . S
Fe455 O474 1.935 . S
C456 O468 1.381 . S
C456 O469 1.421 1_655 S
O457 Fe448 2.077 . S
O457 C470 1.381 . S
O458 Fe451 1.935 . S
O458 C470 1.421 . S
O459 Fe455 2.077 . S
O459 C475 1.381 . S
O460 Fe450 1.935 . S
O460 C475 1.421 . S
O461 Fe450 2.077 . S
O461 C465 1.381 . S
O462 Fe448 1.935 . S
O462 C465 1.421 . S
O463 Fe451 2.077 . S
O463 C471 1.381 . S
O464 Fe455 1.935 . S
O464 C471 1.421 . S
C465 O461 1.381 . S
C465 O462 1.421 . S
O466 Fe455 2.077 . S
O466 C478 1.381 1_455 S
O467 Fe450 1.935 1_655 S
O467 C478 1.421 . S
O468 Fe448 2.077 1_655 S
O468 C456 1.381 . S
O469 Fe451 1.935 . S
O469 C456 1.421 1_455 S
C470 O457 1.381 . S
C470 O458 1.421 . S
C471 O463 1.381 . S
C471 O464 1.421 . S
C472 O473 1.381 . S
C472 O474 1.421 . S
O473 Fe451 2.077 . S
O473 C472 1.381 . S
O474 Fe455 1.935 . S
O474 C472 1.421 . S
C475 O459 1.381 . S
C475 O460 1.421 . S
O476 Fe450 2.077 1_655 S
O476 C479 1.381 . S
O477 Fe448 1.935 1_655 S
O477 C479 1.421 . S
C478 O466 1.381 1_655 S
C478 O467 1.421 . S
C479 O476 1.381 . S
C479 O477 1.421 . S
Fe480 O481 1.886 . S
Fe480 O484 1.715 . S
Fe480 O489 2.077 . S
Fe480 O494 1.935 . S
Fe480 O500 2.077 . S
Fe480 O509 1.935 . S
O481 Fe480 1.886 . S
O481 Fe483 1.715 1_565 S
Fe482 O484 1.884 . S
Fe482 O485 1.717 1_565 S
Fe482 O492 1.936 1_565 S
Fe482 O493 2.076 . S
Fe482 O499 1.936 1_565 S
Fe482 O508 2.076 . S
Fe483 O481 1.715 1_545 S
Fe483 O486 1.886 . S
Fe483 O490 1.935 1_545 S
Fe483 O495 2.077 . S
Fe483 O501 1.935 1_545 S
Fe483 O505 2.077 . S
O484 Fe480 1.715 . S
O484 Fe482 1.884 . S
O485 Fe482 1.717 1_545 S
O485 Fe487 1.886 . S
O486 Fe483 1.886 . S
O486 Fe487 1.715 . S
Fe487 O485 1.886 . S
Fe487 O486 1.715 . S
Fe487 O491 2.077 . S
Fe487 O496 1.935 . S
Fe487 O498 2.077 . S
Fe487 O506 1.935 . S
C488 O500 1.381 . S
C488 O501 1.421 . S
O489 Fe480 2.077 . S
O489 C502 1.381 . S
O490 Fe483 1.935 1_565 S
O490 C502 1.421 . S
O491 Fe487 2.077 . S
O491 C507 1.381 . S
O492 Fe482 1.936 1_545 S
O492 C507 1.421 . S
O493 Fe482 2.076 . S
O493 C497 1.381 . S
O494 Fe480 1.935 . S
O494 C497 1.421 . S
O495 Fe483 2.077 . S
O495 C503 1.381 . S
O496 Fe487 1.935 . S
O496 C503 1.421 . S
C497 O493 1.381 . S
C497 O494 1.421 . S
O498 Fe487 2.077 . S
O498 C510 1.381 . S
O499 Fe482 1.936 1_545 S
O499 C510 1.421 . S
O500 Fe480 2.077 . S
O500 C488 1.381 . S
O501 Fe483 1.935 1_565 S
O501 C488 1.421 . S
C502 O489 1.381 . S
C502 O490 1.421 . S
C503 O495 1.381 . S
C503 O496 1.421 . S
C504 O505 1.381 . S
C504 O506 1.421 . S
O505 Fe483 2.077 . S
O505 C504 1.381 . S
O506 Fe487 1.935 . S
O506 C504 1.421 . S
C507 O491 1.381 . S
C507 O492 1.421 . S
O508 Fe482 2.076 . S
O508 C511 1.381 . S
O509 Fe480 1.935 . S
O509 C511 1.421 . S
C510 O498 1.381 . S
C510 O499 1.421 . S
C511 O508 1.381 . S
C511 O509 1.421 . S
H512 C518 0.930 . S
H513 C521 0.930 . S
H514 C522 0.930 . S
H515 C523 0.930 . S
H516 C526 0.930 . S
H517 C527 0.930 . S
C518 H512 0.930 . S
C518 C519 1.355 . S
C518 C520 1.415 . S
C519 C518 1.355 . S
C519 C521 1.419 . S
C520 C518 1.415 . S
C520 C525 1.425 . S
C520 C527 1.409 . S
C521 H513 0.930 . S
C521 C519 1.419 . S
C521 C522 1.362 . S
C522 H514 0.930 . S
C522 C521 1.362 . S
C522 C525 1.409 . S
C523 H515 0.930 . S
C523 C524 1.355 . S
C523 C525 1.415 . S
C524 C523 1.355 . S
C524 C526 1.419 . S
C525 C520 1.425 . S
C525 C522 1.409 . S
C525 C523 1.415 . S
C526 H516 0.930 . S
C526 C524 1.419 . S
C526 C527 1.362 . S
C527 H517 0.930 . S
C527 C520 1.409 . S
C527 C526 1.362 . S
H528 C534 0.930 . S
H529 C537 0.930 . S
H530 C538 0.930 . S
H531 C539 0.930 . S
H532 C542 0.930 . S
H533 C543 0.930 . S
C534 H528 0.930 . S
C534 C535 1.355 . S
C534 C536 1.415 . S
C535 C534 1.355 . S
C535 C537 1.419 . S
C536 C534 1.415 . S
C536 C541 1.425 . S
C536 C543 1.409 . S
C537 H529 0.930 . S
C537 C535 1.419 . S
C537 C538 1.362 . S
C538 H530 0.930 . S
C538 C537 1.362 . S
C538 C541 1.409 . S
C539 H531 0.930 . S
C539 C540 1.355 . S
C539 C541 1.415 . S
C540 C539 1.355 . S
C540 C542 1.419 . S
C541 C536 1.425 . S
C541 C538 1.409 . S
C541 C539 1.415 . S
C542 H532 0.930 . S
C542 C540 1.419 . S
C542 C543 1.362 . S
C543 H533 0.930 . S
C543 C536 1.409 . S
C543 C542 1.362 . S
H544 C550 0.930 . S
H545 C553 0.930 . S
H546 C554 0.930 . S
H547 C555 0.930 . S
H548 C558 0.930 . S
H549 C559 0.930 . S
C550 H544 0.930 . S
C550 C551 1.355 . S
C550 C552 1.415 . S
C551 C550 1.355 . S
C551 C553 1.419 . S
C552 C550 1.415 . S
C552 C557 1.425 . S
C552 C559 1.409 . S
C553 H545 0.930 . S
C553 C551 1.419 . S
C553 C554 1.362 . S
C554 H546 0.930 . S
C554 C553 1.362 . S
C554 C557 1.409 . S
C555 H547 0.930 . S
C555 C556 1.355 . S
C555 C557 1.415 . S
C556 C555 1.355 . S
C556 C558 1.419 . S
C557 C552 1.425 . S
C557 C554 1.409 . S
C557 C555 1.415 . S
C558 H548 0.930 . S
C558 C556 1.419 . S
C558 C559 1.362 . S
C559 H549 0.930 . S
C559 C552 1.409 . S
C559 C558 1.362 . S
H560 C566 0.930 . S
H561 C569 0.930 . S
H562 C570 0.930 . S
H563 C571 0.930 . S
H564 C574 0.930 . S
H565 C575 0.930 . S
C566 H560 0.930 . S
C566 C567 1.355 . S
C566 C568 1.415 . S
C567 C566 1.355 . S
C567 C569 1.419 . S
C568 C566 1.415 . S
C568 C573 1.425 . S
C568 C575 1.409 . S
C569 H561 0.930 . S
C569 C567 1.419 . S
C569 C570 1.362 . S
C570 H562 0.930 . S
C570 C569 1.362 . S
C570 C573 1.409 . S
C571 H563 0.930 . S
C571 C572 1.355 . S
C571 C573 1.415 . S
C572 C571 1.355 . S
C572 C574 1.419 . S
C573 C568 1.425 . S
C573 C570 1.409 . S
C573 C571 1.415 . S
C574 H564 0.930 . S
C574 C572 1.419 . S
C574 C575 1.362 . S
C575 H565 0.930 . S
C575 C568 1.409 . S
C575 C574 1.362 . S
H576 C582 0.930 . S
H577 C585 0.930 . S
H578 C586 0.930 . S
H579 C587 0.930 . S
H580 C590 0.930 . S
H581 C591 0.930 . S
C582 H576 0.930 . S
C582 C583 1.355 . S
C582 C584 1.415 . S
C583 C582 1.355 . S
C583 C585 1.419 . S
C584 C582 1.415 . S
C584 C589 1.425 . S
C584 C591 1.409 . S
C585 H577 0.930 . S
C585 C583 1.419 . S
C585 C586 1.362 . S
C586 H578 0.930 . S
C586 C585 1.362 . S
C586 C589 1.409 . S
C587 H579 0.930 . S
C587 C588 1.355 . S
C587 C589 1.415 . S
C588 C587 1.355 . S
C588 C590 1.419 . S
C589 C584 1.425 . S
C589 C586 1.409 . S
C589 C587 1.415 . S
C590 H580 0.930 . S
C590 C588 1.419 . S
C590 C591 1.362 . S
C591 H581 0.930 . S
C591 C584 1.409 . S
C591 C590 1.362 . S
H592 C598 0.930 . S
H593 C601 0.930 . S
H594 C602 0.930 . S
H595 C603 0.930 . S
H596 C606 0.930 . S
H597 C607 0.930 . S
C598 H592 0.930 . S
C598 C599 1.355 . S
C598 C600 1.415 . S
C599 C598 1.355 . S
C599 C601 1.419 . S
C600 C598 1.415 . S
C600 C605 1.425 . S
C600 C607 1.409 . S
C601 H593 0.930 . S
C601 C599 1.419 . S
C601 C602 1.362 . S
C602 H594 0.930 . S
C602 C601 1.362 . S
C602 C605 1.409 . S
C603 H595 0.930 . S
C603 C604 1.355 . S
C603 C605 1.415 . S
C604 C603 1.355 . S
C604 C606 1.419 . S
C605 C600 1.425 . S
C605 C602 1.409 . S
C605 C603 1.415 . S
C606 H596 0.930 . S
C606 C604 1.419 . S
C606 C607 1.362 . S
C607 H597 0.930 . S
C607 C600 1.409 . S
C607 C606 1.362 . S
H608 C614 0.930 . S
H609 C617 0.930 . S
H610 C618 0.930 1_455 S
H611 C619 0.949 . S
H612 C622 0.930 . S
H613 C623 0.930 . S
C614 H608 0.930 . S
C614 C615 1.355 . S
C614 C616 1.415 . S
C615 C614 1.355 . S
C615 C617 1.419 . S
C616 C614 1.415 . S
C616 C621 1.425 . S
C616 C623 1.409 . S
C617 H609 0.930 . S
C617 C615 1.419 . S
C617 C618 1.362 . S
C618 H610 0.930 1_655 S
C618 C617 1.362 . S
C618 C621 1.409 . S
C619 H611 0.949 . S
C619 C620 1.355 . S
C619 C621 1.415 . S
C620 C619 1.355 . S
C620 C622 1.419 . S
C621 C616 1.425 . S
C621 C618 1.409 . S
C621 C619 1.415 . S
C622 H612 0.930 . S
C622 C620 1.419 . S
C622 C623 1.362 . S
C623 H613 0.930 . S
C623 C616 1.409 . S
C623 C622 1.362 . S
H624 C630 0.930 . S
H625 C633 0.930 . S
H626 C634 0.930 . S
H627 C635 0.930 . S
H628 C638 0.930 . S
H629 C639 0.930 . S
C630 H624 0.930 . S
C630 C631 1.355 . S
C630 C632 1.415 . S
C631 C630 1.355 . S
C631 C633 1.419 . S
C632 C630 1.415 . S
C632 C637 1.425 . S
C632 C639 1.409 . S
C633 H625 0.930 . S
C633 C631 1.419 . S
C633 C634 1.362 . S
C634 H626 0.930 . S
C634 C633 1.362 . S
C634 C637 1.409 . S
C635 H627 0.930 . S
C635 C636 1.355 . S
C635 C637 1.415 . S
C636 C635 1.355 . S
C636 C638 1.419 . S
C637 C632 1.425 . S
C637 C634 1.409 . S
C637 C635 1.415 . S
C638 H628 0.930 . S
C638 C636 1.419 . S
C638 C639 1.362 . S
C639 H629 0.930 . S
C639 C632 1.409 . S
C639 C638 1.362 . S
H640 C646 0.930 . S
H641 C649 0.930 . S
H642 C650 0.930 . S
H643 C651 0.930 . S
H644 C654 0.930 . S
H645 C655 0.930 . S
C646 H640 0.930 . S
C646 C647 1.355 . S
C646 C648 1.415 . S
C647 C646 1.355 . S
C647 C649 1.419 . S
C648 C646 1.415 . S
C648 C653 1.425 . S
C648 C655 1.409 . S
C649 H641 0.930 . S
C649 C647 1.419 . S
C649 C650 1.362 . S
C650 H642 0.930 . S
C650 C649 1.362 . S
C650 C653 1.409 . S
C651 H643 0.930 . S
C651 C652 1.355 . S
C651 C653 1.415 . S
C652 C651 1.355 . S
C652 C654 1.419 . S
C653 C648 1.425 . S
C653 C650 1.409 . S
C653 C651 1.415 . S
C654 H644 0.930 . S
C654 C652 1.419 . S
C654 C655 1.362 . S
C655 H645 0.930 . S
C655 C648 1.409 . S
C655 C654 1.362 . S
H656 C662 0.930 . S
H657 C665 0.930 . S
H658 C666 0.930 . S
H659 C667 0.930 . S
H660 C670 0.930 . S
H661 C671 0.930 . S
C662 H656 0.930 . S
C662 C663 1.355 . S
C662 C664 1.415 . S
C663 C662 1.355 . S
C663 C665 1.419 . S
C664 C662 1.415 . S
C664 C669 1.425 . S
C664 C671 1.409 . S
C665 H657 0.930 . S
C665 C663 1.419 . S
C665 C666 1.362 . S
C666 H658 0.930 . S
C666 C665 1.362 . S
C666 C669 1.409 . S
C667 H659 0.930 . S
C667 C668 1.355 . S
C667 C669 1.415 . S
C668 C667 1.355 . S
C668 C670 1.419 . S
C669 C664 1.425 . S
C669 C666 1.409 . S
C669 C667 1.415 . S
C670 H660 0.930 . S
C670 C668 1.419 . S
C670 C671 1.362 . S
C671 H661 0.930 . S
C671 C664 1.409 . S
C671 C670 1.362 . S
H672 C678 0.930 . S
H673 C681 0.930 . S
H674 C682 0.930 . S
H675 C683 0.930 . S
H676 C686 0.930 1_545 S
H677 C687 0.930 . S
C678 H672 0.930 . S
C678 C679 1.355 . S
C678 C680 1.415 . S
C679 C678 1.355 . S
C679 C681 1.419 . S
C680 C678 1.415 . S
C680 C685 1.425 . S
C680 C687 1.409 . S
C681 H673 0.930 . S
C681 C679 1.419 . S
C681 C682 1.362 . S
C682 H674 0.930 . S
C682 C681 1.362 . S
C682 C685 1.409 . S
C683 H675 0.930 . S
C683 C684 1.355 . S
C683 C685 1.415 . S
C684 C683 1.355 . S
C684 C686 1.419 . S
C685 C680 1.425 . S
C685 C682 1.409 . S
C685 C683 1.415 . S
C686 H676 0.930 1_565 S
C686 C684 1.419 . S
C686 C687 1.362 . S
C687 H677 0.930 . S
C687 C680 1.409 . S
C687 C686 1.362 . S
H688 C694 0.930 . S
H689 C697 0.930 . S
H690 C698 0.930 . S
H691 C699 0.930 . S
H692 C702 0.930 . S
H693 C703 0.930 . S
C694 H688 0.930 . S
C694 C695 1.355 . S
C694 C696 1.415 . S
C695 C694 1.355 . S
C695 C697 1.419 . S
C696 C694 1.415 . S
C696 C701 1.425 . S
C696 C703 1.409 . S
C697 H689 0.930 . S
C697 C695 1.419 . S
C697 C698 1.362 . S
C698 H690 0.930 . S
C698 C697 1.362 . S
C698 C701 1.409 . S
C699 H691 0.930 . S
C699 C700 1.355 . S
C699 C701 1.415 . S
C700 C699 1.355 . S
C700 C702 1.419 . S
C701 C696 1.425 . S
C701 C698 1.409 . S
C701 C699 1.415 . S
C702 H692 0.930 . S
C702 C700 1.419 . S
C702 C703 1.362 . S
C703 H693 0.930 . S
C703 C696 1.409 . S
C703 C702 1.362 . S
H704 C710 0.930 . S
H705 C713 0.930 . S
H706 C714 0.930 . S
H707 C715 0.930 . S
H708 C718 0.930 . S
H709 C719 0.930 . S
C710 H704 0.930 . S
C710 C711 1.355 . S
C710 C712 1.415 . S
C711 C710 1.355 . S
C711 C713 1.419 . S
C712 C710 1.415 . S
C712 C717 1.425 . S
C712 C719 1.409 . S
C713 H705 0.930 . S
C713 C711 1.419 . S
C713 C714 1.362 . S
C714 H706 0.930 . S
C714 C713 1.362 . S
C714 C717 1.409 . S
C715 H707 0.930 . S
C715 C716 1.355 . S
C715 C717 1.415 . S
C716 C715 1.355 . S
C716 C718 1.419 . S
C717 C712 1.425 . S
C717 C714 1.409 . S
C717 C715 1.415 . S
C718 H708 0.930 . S
C718 C716 1.419 . S
C718 C719 1.362 . S
C719 H709 0.930 . S
C719 C712 1.409 . S
C719 C718 1.362 . S
H720 C726 0.930 . S
H721 C729 0.930 . S
H722 C730 0.930 . S
H723 C731 0.930 . S
H724 C734 0.930 1_554 S
H725 C735 0.930 . S
C726 H720 0.930 . S
C726 C727 1.355 . S
C726 C728 1.415 . S
C727 C726 1.355 . S
C727 C729 1.419 . S
C728 C726 1.415 . S
C728 C733 1.425 . S
C728 C735 1.409 . S
C729 H721 0.930 . S
C729 C727 1.419 . S
C729 C730 1.362 . S
C730 H722 0.930 . S
C730 C729 1.362 . S
C730 C733 1.409 . S
C731 H723 0.930 . S
C731 C732 1.355 . S
C731 C733 1.415 . S
C732 C731 1.355 . S
C732 C734 1.419 . S
C733 C728 1.425 . S
C733 C730 1.409 . S
C733 C731 1.415 . S
C734 H724 0.930 1_556 S
C734 C732 1.419 . S
C734 C735 1.362 . S
C735 H725 0.930 . S
C735 C728 1.409 . S
C735 C734 1.362 . S
H736 C742 0.930 . S
H737 C745 0.930 . S
H738 C746 0.930 . S
H739 C747 0.930 . S
H740 C750 0.930 . S
H741 C751 0.930 . S
C742 H736 0.930 . S
C742 C743 1.355 . S
C742 C744 1.415 . S
C743 C742 1.355 . S
C743 C745 1.419 . S
C744 C742 1.415 . S
C744 C749 1.425 . S
C744 C751 1.409 . S
C745 H737 0.930 . S
C745 C743 1.419 . S
C745 C746 1.362 . S
C746 H738 0.930 . S
C746 C745 1.362 . S
C746 C749 1.409 . S
C747 H739 0.930 . S
C747 C748 1.355 . S
C747 C749 1.415 . S
C748 C747 1.355 . S
C748 C750 1.419 . S
C749 C744 1.425 . S
C749 C746 1.409 . S
C749 C747 1.415 . S
C750 H740 0.930 . S
C750 C748 1.419 . S
C750 C751 1.362 . S
C751 H741 0.930 . S
C751 C744 1.409 . S
C751 C750 1.362 . S
H752 C758 0.930 . S
H753 C761 0.930 . S
H754 C762 0.930 . S
H755 C763 0.930 . S
H756 C766 0.930 . S
H757 C767 0.930 . S
C758 H752 0.930 . S
C758 C759 1.355 . S
C758 C760 1.415 . S
C759 C758 1.355 . S
C759 C761 1.419 . S
C760 C758 1.415 . S
C760 C765 1.425 . S
C760 C767 1.409 . S
C761 H753 0.930 . S
C761 C759 1.419 . S
C761 C762 1.362 . S
C762 H754 0.930 . S
C762 C761 1.362 . S
C762 C765 1.409 . S
C763 H755 0.930 . S
C763 C764 1.355 . S
C763 C765 1.415 . S
C764 C763 1.355 . S
C764 C766 1.419 . S
C765 C760 1.425 . S
C765 C762 1.409 . S
C765 C763 1.415 . S
C766 H756 0.930 . S
C766 C764 1.419 . S
C766 C767 1.362 . S
C767 H757 0.930 . S
C767 C760 1.409 . S
C767 C766 1.362 . S
H768 C774 0.930 . S
H769 C777 0.930 . S
H770 C778 0.930 . S
H771 C779 0.930 . S
H772 C782 0.930 . S
H773 C783 0.930 . S
C774 H768 0.930 . S
C774 C775 1.355 . S
C774 C776 1.415 . S
C775 C774 1.355 . S
C775 C777 1.419 . S
C776 C774 1.415 . S
C776 C781 1.425 . S
C776 C783 1.409 . S
C777 H769 0.930 . S
C777 C775 1.419 . S
C777 C778 1.362 . S
C778 H770 0.930 . S
C778 C777 1.362 . S
C778 C781 1.409 . S
C779 H771 0.930 . S
C779 C780 1.355 . S
C779 C781 1.415 . S
C780 C779 1.355 . S
C780 C782 1.419 . S
C781 C776 1.425 . S
C781 C778 1.409 . S
C781 C779 1.415 . S
C782 H772 0.930 . S
C782 C780 1.419 . S
C782 C783 1.362 . S
C783 H773 0.930 . S
C783 C776 1.409 . S
C783 C782 1.362 . S
H784 C790 0.930 . S
H785 C793 0.930 1_554 S
H786 C794 0.930 . S
H787 C795 0.930 . S
H788 C798 0.930 . S
H789 C799 0.930 . S
C790 H784 0.930 . S
C790 C791 1.355 . S
C790 C792 1.415 . S
C791 C790 1.355 . S
C791 C793 1.419 . S
C792 C790 1.415 . S
C792 C797 1.425 . S
C792 C799 1.409 . S
C793 H785 0.930 1_556 S
C793 C791 1.419 . S
C793 C794 1.362 1_556 S
C794 H786 0.930 . S
C794 C793 1.362 1_554 S
C794 C797 1.409 1_554 S
C795 H787 0.930 . S
C795 C796 1.355 1_554 S
C795 C797 1.415 1_554 S
C796 C795 1.355 1_556 S
C796 C798 1.419 . S
C797 C792 1.425 . S
C797 C794 1.409 1_556 S
C797 C795 1.415 1_556 S
C798 H788 0.930 . S
C798 C796 1.419 . S
C798 C799 1.362 . S
C799 H789 0.930 . S
C799 C792 1.409 . S
C799 C798 1.362 . S
H800 C806 0.930 . S
H801 C809 0.930 . S
H802 C810 0.930 . S
H803 C811 0.930 . S
H804 C814 0.930 . S
H805 C815 0.930 . S
C806 H800 0.930 . S
C806 C807 1.355 . S
C806 C808 1.415 . S
C807 C806 1.355 . S
C807 C809 1.419 . S
C808 C806 1.415 . S
C808 C813 1.425 . S
C808 C815 1.409 . S
C809 H801 0.930 . S
C809 C807 1.419 . S
C809 C810 1.362 . S
C810 H802 0.930 . S
C810 C809 1.362 . S
C810 C813 1.409 . S
C811 H803 0.930 . S
C811 C812 1.355 . S
C811 C813 1.415 . S
C812 C811 1.355 . S
C812 C814 1.419 . S
C813 C808 1.425 . S
C813 C810 1.409 . S
C813 C811 1.415 . S
C814 H804 0.930 . S
C814 C812 1.419 . S
C814 C815 1.362 . S
C815 H805 0.930 . S
C815 C808 1.409 . S
C815 C814 1.362 . S
H816 C822 0.930 . S
H817 C825 0.930 . S
H818 C826 0.930 . S
H819 C827 0.930 . S
H820 C830 0.930 . S
H821 C831 0.930 . S
C822 H816 0.930 . S
C822 C823 1.355 . S
C822 C824 1.415 . S
C823 C822 1.355 . S
C823 C825 1.419 . S
C824 C822 1.415 . S
C824 C829 1.425 . S
C824 C831 1.409 . S
C825 H817 0.930 . S
C825 C823 1.419 . S
C825 C826 1.362 . S
C826 H818 0.930 . S
C826 C825 1.362 . S
C826 C829 1.409 . S
C827 H819 0.930 . S
C827 C828 1.355 . S
C827 C829 1.415 . S
C828 C827 1.355 . S
C828 C830 1.419 . S
C829 C824 1.425 . S
C829 C826 1.409 . S
C829 C827 1.415 . S
C830 H820 0.930 . S
C830 C828 1.419 . S
C830 C831 1.362 . S
C831 H821 0.930 . S
C831 C824 1.409 . S
C831 C830 1.362 . S
H832 C838 0.930 . S
H833 C841 0.930 . S
H834 C842 0.930 . S
H835 C843 0.930 . S
H836 C846 0.930 . S
H837 C847 0.930 . S
C838 H832 0.930 . S
C838 C839 1.355 . S
C838 C840 1.415 . S
C839 C838 1.355 . S
C839 C841 1.419 . S
C840 C838 1.415 . S
C840 C845 1.425 . S
C840 C847 1.409 1_565 S
C841 H833 0.930 . S
C841 C839 1.419 . S
C841 C842 1.362 . S
C842 H834 0.930 . S
C842 C841 1.362 . S
C842 C845 1.409 . S
C843 H835 0.930 . S
C843 C844 1.355 . S
C843 C845 1.415 . S
C844 C843 1.355 . S
C844 C846 1.419 1_565 S
C845 C840 1.425 . S
C845 C842 1.409 . S
C845 C843 1.415 . S
C846 H836 0.930 . S
C846 C844 1.419 1_545 S
C846 C847 1.362 . S
C847 H837 0.930 . S
C847 C840 1.409 1_545 S
C847 C846 1.362 . S
H848 C854 0.930 . S
H849 C857 0.930 . S
H850 C858 0.930 . S
H851 C859 0.930 . S
H852 C862 0.930 . S
H853 C863 0.930 . S
C854 H848 0.930 . S
C854 C855 1.355 . S
C854 C856 1.415 . S
C855 C854 1.355 . S
C855 C857 1.419 . S
C856 C854 1.415 . S
C856 C861 1.425 . S
C856 C863 1.409 . S
C857 H849 0.930 . S
C857 C855 1.419 . S
C857 C858 1.362 . S
C858 H850 0.930 . S
C858 C857 1.362 . S
C858 C861 1.409 . S
C859 H851 0.930 . S
C859 C860 1.355 . S
C859 C861 1.415 . S
C860 C859 1.355 . S
C860 C862 1.419 . S
C861 C856 1.425 . S
C861 C858 1.409 . S
C861 C859 1.415 . S
C862 H852 0.930 . S
C862 C860 1.419 . S
C862 C863 1.362 . S
C863 H853 0.930 . S
C863 C856 1.409 . S
C863 C862 1.362 . S
H864 C870 0.930 . S
H865 C873 0.930 . S
H866 C874 0.930 . S
H867 C875 0.930 . S
H868 C878 0.930 . S
H869 C879 0.930 . S
C870 H864 0.930 . S
C870 C871 1.355 . S
C870 C872 1.415 . S
C871 C870 1.355 . S
C871 C873 1.419 . S
C872 C870 1.415 . S
C872 C877 1.425 . S
C872 C879 1.409 . S
C873 H865 0.930 . S
C873 C871 1.419 . S
C873 C874 1.362 . S
C874 H866 0.930 . S
C874 C873 1.362 . S
C874 C877 1.409 . S
C875 H867 0.930 . S
C875 C876 1.355 . S
C875 C877 1.415 . S
C876 C875 1.355 . S
C876 C878 1.419 . S
C877 C872 1.425 . S
C877 C874 1.409 . S
C877 C875 1.415 . S
C878 H868 0.930 . S
C878 C876 1.419 . S
C878 C879 1.362 . S
C879 H869 0.930 . S
C879 C872 1.409 . S
C879 C878 1.362 . S
H880 C886 0.930 . S
H881 C889 0.930 . S
H882 C890 0.930 . S
H883 C891 0.930 . S
H884 C894 0.930 . S
H885 C895 0.930 . S
C886 H880 0.930 . S
C886 C887 1.355 . S
C886 C888 1.415 . S
C887 C886 1.355 . S
C887 C889 1.419 . S
C888 C886 1.415 . S
C888 C893 1.425 . S
C888 C895 1.409 . S
C889 H881 0.930 . S
C889 C887 1.419 . S
C889 C890 1.362 . S
C890 H882 0.930 . S
C890 C889 1.362 . S
C890 C893 1.409 . S
C891 H883 0.930 . S
C891 C892 1.355 . S
C891 C893 1.415 . S
C892 C891 1.355 . S
C892 C894 1.419 . S
C893 C888 1.425 . S
C893 C890 1.409 . S
C893 C891 1.415 . S
C894 H884 0.930 . S
C894 C892 1.419 . S
C894 C895 1.362 . S
C895 H885 0.930 . S
C895 C888 1.409 . S
C895 C894 1.362 . S
H896 C902 0.930 . S
H897 C905 0.930 . S
H898 C906 0.930 . S
H899 C907 0.930 . S
H900 C910 0.930 . S
H901 C911 0.930 . S
C902 H896 0.930 . S
C902 C903 1.355 . S
C902 C904 1.415 . S
C903 C902 1.355 . S
C903 C905 1.419 . S
C904 C902 1.415 . S
C904 C909 1.425 . S
C904 C911 1.409 . S
C905 H897 0.930 . S
C905 C903 1.419 . S
C905 C906 1.362 . S
C906 H898 0.930 . S
C906 C905 1.362 . S
C906 C909 1.409 . S
C907 H899 0.930 . S
C907 C908 1.355 . S
C907 C909 1.415 . S
C908 C907 1.355 . S
C908 C910 1.419 . S
C909 C904 1.425 . S
C909 C906 1.409 . S
C909 C907 1.415 . S
C910 H900 0.930 . S
C910 C908 1.419 . S
C910 C911 1.362 . S
C911 H901 0.930 . S
C911 C904 1.409 . S
C911 C910 1.362 . S
H912 C918 0.930 . S
H913 C921 0.930 . S
H914 C922 0.930 . S
H915 C923 0.930 . S
H916 C926 0.930 . S
H917 C927 0.930 . S
C918 H912 0.930 . S
C918 C919 1.355 . S
C918 C920 1.415 . S
C919 C918 1.355 . S
C919 C921 1.419 . S
C920 C918 1.415 . S
C920 C925 1.425 . S
C920 C927 1.409 . S
C921 H913 0.930 . S
C921 C919 1.419 . S
C921 C922 1.362 . S
C922 H914 0.930 . S
C922 C921 1.362 . S
C922 C925 1.409 . S
C923 H915 0.930 . S
C923 C924 1.355 . S
C923 C925 1.415 . S
C924 C923 1.355 . S
C924 C926 1.419 . S
C925 C920 1.425 . S
C925 C922 1.409 . S
C925 C923 1.415 . S
C926 H916 0.930 . S
C926 C924 1.419 . S
C926 C927 1.362 . S
C927 H917 0.930 . S
C927 C920 1.409 . S
C927 C926 1.362 . S
H928 C934 0.930 . S
H929 C937 0.930 . S
H930 C938 0.930 . S
H931 C939 0.930 . S
H932 C942 0.930 . S
H933 C943 0.930 . S
C934 H928 0.930 . S
C934 C935 1.355 . S
C934 C936 1.415 . S
C935 C934 1.355 . S
C935 C937 1.419 . S
C936 C934 1.415 . S
C936 C941 1.425 . S
C936 C943 1.409 . S
C937 H929 0.930 . S
C937 C935 1.419 . S
C937 C938 1.362 . S
C938 H930 0.930 . S
C938 C937 1.362 . S
C938 C941 1.409 . S
C939 H931 0.930 . S
C939 C940 1.355 . S
C939 C941 1.415 . S
C940 C939 1.355 . S
C940 C942 1.419 . S
C941 C936 1.425 . S
C941 C938 1.409 . S
C941 C939 1.415 . S
C942 H932 0.930 . S
C942 C940 1.419 . S
C942 C943 1.362 . S
C943 H933 0.930 . S
C943 C936 1.409 . S
C943 C942 1.362 . S
H944 C950 0.930 . S
H945 C953 0.930 . S
H946 C954 0.930 . S
H947 C955 0.930 . S
H948 C958 0.930 . S
H949 C959 0.930 . S
C950 H944 0.930 . S
C950 C951 1.355 . S
C950 C952 1.415 . S
C951 C950 1.355 . S
C951 C953 1.419 . S
C952 C950 1.415 . S
C952 C957 1.425 . S
C952 C959 1.409 . S
C953 H945 0.930 . S
C953 C951 1.419 . S
C953 C954 1.362 . S
C954 H946 0.930 . S
C954 C953 1.362 . S
C954 C957 1.409 . S
C955 H947 0.930 . S
C955 C956 1.355 . S
C955 C957 1.415 . S
C956 C955 1.355 . S
C956 C958 1.419 . S
C957 C952 1.425 . S
C957 C954 1.409 . S
C957 C955 1.415 . S
C958 H948 0.930 . S
C958 C956 1.419 . S
C958 C959 1.362 . S
C959 H949 0.930 . S
C959 C952 1.409 . S
C959 C958 1.362 . S
H960 C966 0.930 . S
H961 C969 0.930 . S
H962 C970 0.930 . S
H963 C971 0.930 . S
H964 C974 0.930 . S
H965 C975 0.930 . S
C966 H960 0.930 . S
C966 C967 1.355 . S
C966 C968 1.415 . S
C967 C966 1.355 . S
C967 C969 1.419 . S
C968 C966 1.415 . S
C968 C973 1.425 . S
C968 C975 1.409 . S
C969 H961 0.930 . S
C969 C967 1.419 . S
C969 C970 1.362 . S
C970 H962 0.930 . S
C970 C969 1.362 . S
C970 C973 1.409 . S
C971 H963 0.930 . S
C971 C972 1.355 . S
C971 C973 1.415 . S
C972 C971 1.355 . S
C972 C974 1.419 . S
C973 C968 1.425 . S
C973 C970 1.409 . S
C973 C971 1.415 . S
C974 H964 0.930 . S
C974 C972 1.419 . S
C974 C975 1.362 . S
C975 H965 0.930 . S
C975 C968 1.409 . S
C975 C974 1.362 . S
H976 C982 0.930 . S
H977 C985 0.930 . S
H978 C986 0.930 . S
H979 C987 0.930 . S
H980 C990 0.930 . S
H981 C991 0.930 . S
C982 H976 0.930 . S
C982 C983 1.355 . S
C982 C984 1.415 . S
C983 C982 1.355 . S
C983 C985 1.419 . S
C984 C982 1.415 . S
C984 C989 1.425 . S
C984 C991 1.409 . S
C985 H977 0.930 . S
C985 C983 1.419 . S
C985 C986 1.362 . S
C986 H978 0.930 . S
C986 C985 1.362 . S
C986 C989 1.409 . S
C987 H979 0.930 . S
C987 C988 1.355 . S
C987 C989 1.415 . S
C988 C987 1.355 . S
C988 C990 1.419 . S
C989 C984 1.425 . S
C989 C986 1.409 . S
C989 C987 1.415 . S
C990 H980 0.930 . S
C990 C988 1.419 . S
C990 C991 1.362 . S
C991 H981 0.930 . S
C991 C984 1.409 . S
C991 C990 1.362 . S
H992 C998 0.930 . S
H993 C1001 0.930 . S
H994 C1002 0.930 . S
H995 C1003 0.930 . S
H996 C1006 0.930 . S
H997 C1007 0.930 . S
C998 H992 0.930 . S
C998 C999 1.355 . S
C998 C1000 1.415 . S
C999 C998 1.355 . S
C999 C1001 1.419 . S
C1000 C998 1.415 . S
C1000 C1005 1.425 . S
C1000 C1007 1.409 . S
C1001 H993 0.930 . S
C1001 C999 1.419 . S
C1001 C1002 1.362 . S
C1002 H994 0.930 . S
C1002 C1001 1.362 . S
C1002 C1005 1.409 . S
C1003 H995 0.930 . S
C1003 C1004 1.355 . S
C1003 C1005 1.415 . S
C1004 C1003 1.355 . S
C1004 C1006 1.419 . S
C1005 C1000 1.425 . S
C1005 C1002 1.409 . S
C1005 C1003 1.415 . S
C1006 H996 0.930 . S
C1006 C1004 1.419 . S
C1006 C1007 1.362 . S
C1007 H997 0.930 . S
C1007 C1000 1.409 . S
C1007 C1006 1.362 . S
H1008 C1014 0.930 . S
H1009 C1017 0.930 . S
H1010 C1018 0.930 . S
H1011 C1019 0.930 . S
H1012 C1022 0.930 . S
H1013 C1023 0.930 . S
C1014 H1008 0.930 . S
C1014 C1015 1.355 . S
C1014 C1016 1.415 . S
C1015 C1014 1.355 . S
C1015 C1017 1.419 . S
C1016 C1014 1.415 . S
C1016 C1021 1.425 . S
C1016 C1023 1.409 . S
C1017 H1009 0.930 . S
C1017 C1015 1.419 . S
C1017 C1018 1.362 . S
C1018 H1010 0.930 . S
C1018 C1017 1.362 . S
C1018 C1021 1.409 . S
C1019 H1011 0.930 . S
C1019 C1020 1.355 . S
C1019 C1021 1.415 . S
C1020 C1019 1.355 . S
C1020 C1022 1.419 . S
C1021 C1016 1.425 . S
C1021 C1018 1.409 . S
C1021 C1019 1.415 . S
C1022 H1012 0.930 . S
C1022 C1020 1.419 . S
C1022 C1023 1.362 . S
C1023 H1013 0.930 . S
C1023 C1016 1.409 . S
C1023 C1022 1.362 . S
H1024 C1030 0.930 . S
H1025 C1033 0.930 . S
H1026 C1034 0.930 . S
H1027 C1035 0.930 . S
H1028 C1038 0.930 1_455 S
H1029 C1039 0.930 . S
C1030 H1024 0.930 . S
C1030 C1031 1.355 . S
C1030 C1032 1.415 . S
C1031 C1030 1.355 . S
C1031 C1033 1.419 . S
C1032 C1030 1.415 . S
C1032 C1037 1.425 . S
C1032 C1039 1.409 . S
C1033 H1025 0.930 . S
C1033 C1031 1.419 . S
C1033 C1034 1.362 . S
C1034 H1026 0.930 . S
C1034 C1033 1.362 . S
C1034 C1037 1.409 . S
C1035 H1027 0.930 . S
C1035 C1036 1.355 . S
C1035 C1037 1.415 . S
C1036 C1035 1.355 . S
C1036 C1038 1.419 . S
C1037 C1032 1.425 . S
C1037 C1034 1.409 . S
C1037 C1035 1.415 . S
C1038 H1028 0.930 1_655 S
C1038 C1036 1.419 . S
C1038 C1039 1.362 . S
C1039 H1029 0.930 . S
C1039 C1032 1.409 . S
C1039 C1038 1.362 . S
H1040 C1046 0.930 . S
H1041 C1049 0.930 . S
H1042 C1050 0.930 . S
H1043 C1051 0.930 . S
H1044 C1054 0.930 . S
H1045 C1055 0.930 . S
C1046 H1040 0.930 . S
C1046 C1047 1.355 . S
C1046 C1048 1.415 . S
C1047 C1046 1.355 . S
C1047 C1049 1.419 . S
C1048 C1046 1.415 . S
C1048 C1053 1.425 . S
C1048 C1055 1.409 . S
C1049 H1041 0.930 . S
C1049 C1047 1.419 . S
C1049 C1050 1.362 . S
C1050 H1042 0.930 . S
C1050 C1049 1.362 . S
C1050 C1053 1.409 . S
C1051 H1043 0.930 . S
C1051 C1052 1.355 . S
C1051 C1053 1.415 . S
C1052 C1051 1.355 . S
C1052 C1054 1.419 . S
C1053 C1048 1.425 . S
C1053 C1050 1.409 . S
C1053 C1051 1.415 . S
C1054 H1044 0.930 . S
C1054 C1052 1.419 . S
C1054 C1055 1.362 . S
C1055 H1045 0.930 . S
C1055 C1048 1.409 . S
C1055 C1054 1.362 . S
H1056 C1062 0.930 . S
H1057 C1065 0.930 . S
H1058 C1066 0.930 . S
H1059 C1067 0.930 . S
H1060 C1070 0.930 . S
H1061 C1071 0.930 . S
C1062 H1056 0.930 . S
C1062 C1063 1.355 . S
C1062 C1064 1.415 . S
C1063 C1062 1.355 . S
C1063 C1065 1.419 . S
C1064 C1062 1.415 . S
C1064 C1069 1.425 . S
C1064 C1071 1.409 . S
C1065 H1057 0.930 . S
C1065 C1063 1.419 . S
C1065 C1066 1.362 . S
C1066 H1058 0.930 . S
C1066 C1065 1.362 . S
C1066 C1069 1.409 . S
C1067 H1059 0.930 . S
C1067 C1068 1.355 . S
C1067 C1069 1.415 . S
C1068 C1067 1.355 . S
C1068 C1070 1.419 . S
C1069 C1064 1.425 . S
C1069 C1066 1.409 . S
C1069 C1067 1.415 . S
C1070 H1060 0.930 . S
C1070 C1068 1.419 . S
C1070 C1071 1.362 . S
C1071 H1061 0.930 . S
C1071 C1064 1.409 . S
C1071 C1070 1.362 . S
H1072 C1078 0.930 . S
H1073 C1081 0.930 . S
H1074 C1082 0.930 . S
H1075 C1083 0.930 . S
H1076 C1086 0.930 . S
H1077 C1087 0.930 . S
C1078 H1072 0.930 . S
C1078 C1079 1.355 . S
C1078 C1080 1.415 . S
C1079 C1078 1.355 . S
C1079 C1081 1.419 . S
C1080 C1078 1.415 . S
C1080 C1085 1.425 . S
C1080 C1087 1.409 . S
C1081 H1073 0.930 . S
C1081 C1079 1.419 . S
C1081 C1082 1.362 . S
C1082 H1074 0.930 . S
C1082 C1081 1.362 . S
C1082 C1085 1.409 . S
C1083 H1075 0.930 . S
C1083 C1084 1.355 . S
C1083 C1085 1.415 . S
C1084 C1083 1.355 . S
C1084 C1086 1.419 . S
C1085 C1080 1.425 . S
C1085 C1082 1.409 . S
C1085 C1083 1.415 . S
C1086 H1076 0.930 . S
C1086 C1084 1.419 . S
C1086 C1087 1.362 . S
C1087 H1077 0.930 . S
C1087 C1080 1.409 . S
C1087 C1086 1.362 . S
H1088 C1094 0.930 . S
H1089 C1097 0.930 . S
H1090 C1098 0.930 . S
H1091 C1099 0.930 . S
H1092 C1102 0.930 . S
H1093 C1103 0.930 . S
C1094 H1088 0.930 . S
C1094 C1095 1.355 . S
C1094 C1096 1.415 . S
C1095 C1094 1.355 . S
C1095 C1097 1.419 . S
C1096 C1094 1.415 . S
C1096 C1101 1.425 . S
C1096 C1103 1.409 . S
C1097 H1089 0.930 . S
C1097 C1095 1.419 . S
C1097 C1098 1.362 . S
C1098 H1090 0.930 . S
C1098 C1097 1.362 . S
C1098 C1101 1.409 . S
C1099 H1091 0.930 . S
C1099 C1100 1.355 . S
C1099 C1101 1.415 . S
C1100 C1099 1.355 . S
C1100 C1102 1.419 . S
C1101 C1096 1.425 . S
C1101 C1098 1.409 . S
C1101 C1099 1.415 . S
C1102 H1092 0.930 . S
C1102 C1100 1.419 . S
C1102 C1103 1.362 . S
C1103 H1093 0.930 . S
C1103 C1096 1.409 . S
C1103 C1102 1.362 . S
H1104 C1110 0.930 . S
H1105 C1113 0.930 . S
H1106 C1114 0.930 . S
H1107 C1115 0.930 . S
H1108 C1118 0.930 . S
H1109 C1119 0.930 . S
C1110 H1104 0.930 . S
C1110 C1111 1.355 . S
C1110 C1112 1.415 . S
C1111 C1110 1.355 . S
C1111 C1113 1.419 . S
C1112 C1110 1.415 . S
C1112 C1117 1.425 . S
C1112 C1119 1.409 . S
C1113 H1105 0.930 . S
C1113 C1111 1.419 . S
C1113 C1114 1.362 . S
C1114 H1106 0.930 . S
C1114 C1113 1.362 . S
C1114 C1117 1.409 . S
C1115 H1107 0.930 . S
C1115 C1116 1.355 . S
C1115 C1117 1.415 . S
C1116 C1115 1.355 . S
C1116 C1118 1.419 . S
C1117 C1112 1.425 . S
C1117 C1114 1.409 . S
C1117 C1115 1.415 . S
C1118 H1108 0.930 . S
C1118 C1116 1.419 . S
C1118 C1119 1.362 . S
C1119 H1109 0.930 . S
C1119 C1112 1.409 . S
C1119 C1118 1.362 . S
H1120 C1126 0.930 . S
H1121 C1129 0.930 . S
H1122 C1130 0.930 . S
H1123 C1131 0.930 . S
H1124 C1134 0.930 . S
H1125 C1135 0.930 . S
C1126 H1120 0.930 . S
C1126 C1127 1.355 . S
C1126 C1128 1.415 . S
C1127 C1126 1.355 . S
C1127 C1129 1.419 . S
C1128 C1126 1.415 . S
C1128 C1133 1.425 . S
C1128 C1135 1.409 . S
C1129 H1121 0.930 . S
C1129 C1127 1.419 . S
C1129 C1130 1.362 . S
C1130 H1122 0.930 . S
C1130 C1129 1.362 . S
C1130 C1133 1.409 . S
C1131 H1123 0.930 . S
C1131 C1132 1.355 . S
C1131 C1133 1.415 . S
C1132 C1131 1.355 . S
C1132 C1134 1.419 . S
C1133 C1128 1.425 . S
C1133 C1130 1.409 . S
C1133 C1131 1.415 . S
C1134 H1124 0.930 . S
C1134 C1132 1.419 . S
C1134 C1135 1.362 . S
C1135 H1125 0.930 . S
C1135 C1128 1.409 . S
C1135 C1134 1.362 . S
H1136 C1142 0.930 . S
H1137 C1145 0.930 . S
H1138 C1146 0.930 . S
H1139 C1147 0.930 . S
H1140 C1150 0.930 . S
H1141 C1151 0.930 . S
C1142 H1136 0.930 . S
C1142 C1143 1.355 . S
C1142 C1144 1.415 . S
C1143 C1142 1.355 . S
C1143 C1145 1.419 . S
C1144 C1142 1.415 . S
C1144 C1149 1.425 . S
C1144 C1151 1.409 . S
C1145 H1137 0.930 . S
C1145 C1143 1.419 . S
C1145 C1146 1.362 . S
C1146 H1138 0.930 . S
C1146 C1145 1.362 . S
C1146 C1149 1.409 . S
C1147 H1139 0.930 . S
C1147 C1148 1.355 . S
C1147 C1149 1.415 . S
C1148 C1147 1.355 . S
C1148 C1150 1.419 . S
C1149 C1144 1.425 . S
C1149 C1146 1.409 . S
C1149 C1147 1.415 . S
C1150 H1140 0.930 . S
C1150 C1148 1.419 . S
C1150 C1151 1.362 . S
C1151 H1141 0.930 . S
C1151 C1144 1.409 . S
C1151 C1150 1.362 . S
H1152 C1158 0.930 . S
H1153 C1161 0.930 . S
H1154 C1162 0.930 . S
H1155 C1163 0.930 . S
H1156 C1166 0.930 . S
H1157 C1167 0.930 . S
C1158 H1152 0.930 . S
C1158 C1159 1.355 . S
C1158 C1160 1.415 . S
C1159 C1158 1.355 . S
C1159 C1161 1.419 . S
C1160 C1158 1.415 . S
C1160 C1165 1.425 . S
C1160 C1167 1.409 . S
C1161 H1153 0.930 . S
C1161 C1159 1.419 . S
C1161 C1162 1.362 . S
C1162 H1154 0.930 . S
C1162 C1161 1.362 . S
C1162 C1165 1.409 . S
C1163 H1155 0.930 . S
C1163 C1164 1.355 . S
C1163 C1165 1.415 . S
C1164 C1163 1.355 . S
C1164 C1166 1.419 . S
C1165 C1160 1.425 . S
C1165 C1162 1.409 . S
C1165 C1163 1.415 . S
C1166 H1156 0.930 . S
C1166 C1164 1.419 . S
C1166 C1167 1.362 . S
C1167 H1157 0.930 . S
C1167 C1160 1.409 . S
C1167 C1166 1.362 . S
H1168 C1174 0.930 . S
H1169 C1177 0.930 . S
H1170 C1178 0.930 . S
H1171 C1179 0.930 . S
H1172 C1182 0.930 . S
H1173 C1183 0.930 . S
C1174 H1168 0.930 . S
C1174 C1175 1.355 . S
C1174 C1176 1.415 . S
C1175 C1174 1.355 . S
C1175 C1177 1.419 . S
C1176 C1174 1.415 . S
C1176 C1181 1.425 . S
C1176 C1183 1.409 . S
C1177 H1169 0.930 . S
C1177 C1175 1.419 . S
C1177 C1178 1.362 . S
C1178 H1170 0.930 . S
C1178 C1177 1.362 . S
C1178 C1181 1.409 . S
C1179 H1171 0.930 . S
C1179 C1180 1.355 . S
C1179 C1181 1.415 . S
C1180 C1179 1.355 . S
C1180 C1182 1.419 . S
C1181 C1176 1.425 . S
C1181 C1178 1.409 . S
C1181 C1179 1.415 . S
C1182 H1172 0.930 . S
C1182 C1180 1.419 . S
C1182 C1183 1.362 . S
C1183 H1173 0.930 . S
C1183 C1176 1.409 . S
C1183 C1182 1.362 . S
H1184 C1190 0.930 . S
H1185 C1193 0.930 . S
H1186 C1194 0.930 . S
H1187 C1195 0.930 . S
H1188 C1198 0.930 1_455 S
H1189 C1199 0.930 . S
C1190 H1184 0.930 . S
C1190 C1191 1.355 . S
C1190 C1192 1.415 . S
C1191 C1190 1.355 . S
C1191 C1193 1.419 . S
C1192 C1190 1.415 . S
C1192 C1197 1.425 . S
C1192 C1199 1.409 . S
C1193 H1185 0.930 . S
C1193 C1191 1.419 . S
C1193 C1194 1.362 . S
C1194 H1186 0.930 . S
C1194 C1193 1.362 . S
C1194 C1197 1.409 . S
C1195 H1187 0.930 . S
C1195 C1196 1.355 . S
C1195 C1197 1.415 . S
C1196 C1195 1.355 . S
C1196 C1198 1.419 . S
C1197 C1192 1.425 . S
C1197 C1194 1.409 . S
C1197 C1195 1.415 . S
C1198 H1188 0.930 1_655 S
C1198 C1196 1.419 . S
C1198 C1199 1.362 . S
C1199 H1189 0.930 . S
C1199 C1192 1.409 . S
C1199 C1198 1.362 . S
H1200 C1206 0.930 . S
H1201 C1209 0.930 . S
H1202 C1210 0.930 . S
H1203 C1211 0.930 . S
H1204 C1214 0.930 . S
H1205 C1215 0.930 . S
C1206 H1200 0.930 . S
C1206 C1207 1.355 . S
C1206 C1208 1.415 . S
C1207 C1206 1.355 . S
C1207 C1209 1.419 . S
C1208 C1206 1.415 . S
C1208 C1213 1.425 . S
C1208 C1215 1.409 . S
C1209 H1201 0.930 . S
C1209 C1207 1.419 . S
C1209 C1210 1.362 . S
C1210 H1202 0.930 . S
C1210 C1209 1.362 . S
C1210 C1213 1.409 . S
C1211 H1203 0.930 . S
C1211 C1212 1.355 . S
C1211 C1213 1.415 . S
C1212 C1211 1.355 . S
C1212 C1214 1.419 . S
C1213 C1208 1.425 . S
C1213 C1210 1.409 . S
C1213 C1211 1.415 . S
C1214 H1204 0.930 . S
C1214 C1212 1.419 . S
C1214 C1215 1.362 . S
C1215 H1205 0.930 . S
C1215 C1208 1.409 . S
C1215 C1214 1.362 . S
H1216 C1222 0.930 . S
H1217 C1225 0.930 . S
H1218 C1226 0.930 . S
H1219 C1227 0.930 . S
H1220 C1230 0.930 . S
H1221 C1231 0.930 . S
C1222 H1216 0.930 . S
C1222 C1223 1.355 . S
C1222 C1224 1.415 . S
C1223 C1222 1.355 . S
C1223 C1225 1.419 . S
C1224 C1222 1.415 . S
C1224 C1229 1.425 . S
C1224 C1231 1.409 . S
C1225 H1217 0.930 . S
C1225 C1223 1.419 . S
C1225 C1226 1.362 . S
C1226 H1218 0.930 . S
C1226 C1225 1.362 . S
C1226 C1229 1.409 . S
C1227 H1219 0.930 . S
C1227 C1228 1.355 . S
C1227 C1229 1.415 . S
C1228 C1227 1.355 . S
C1228 C1230 1.419 . S
C1229 C1224 1.425 . S
C1229 C1226 1.409 . S
C1229 C1227 1.415 . S
C1230 H1220 0.930 . S
C1230 C1228 1.419 . S
C1230 C1231 1.362 . S
C1231 H1221 0.930 . S
C1231 C1224 1.409 . S
C1231 C1230 1.362 . S
H1232 C1238 0.930 . S
H1233 C1241 0.930 . S
H1234 C1242 0.930 . S
H1235 C1243 0.930 . S
H1236 C1246 0.930 . S
H1237 C1247 0.930 . S
C1238 H1232 0.930 . S
C1238 C1239 1.355 . S
C1238 C1240 1.415 . S
C1239 C1238 1.355 . S
C1239 C1241 1.419 . S
C1240 C1238 1.415 . S
C1240 C1245 1.425 . S
C1240 C1247 1.409 . S
C1241 H1233 0.930 . S
C1241 C1239 1.419 . S
C1241 C1242 1.362 . S
C1242 H1234 0.930 . S
C1242 C1241 1.362 . S
C1242 C1245 1.409 . S
C1243 H1235 0.930 . S
C1243 C1244 1.355 . S
C1243 C1245 1.415 . S
C1244 C1243 1.355 . S
C1244 C1246 1.419 . S
C1245 C1240 1.425 . S
C1245 C1242 1.409 . S
C1245 C1243 1.415 . S
C1246 H1236 0.930 . S
C1246 C1244 1.419 . S
C1246 C1247 1.362 . S
C1247 H1237 0.930 . S
C1247 C1240 1.409 . S
C1247 C1246 1.362 . S
H1248 C1254 0.930 . S
H1249 C1257 0.930 . S
H1250 C1258 0.930 . S
H1251 C1259 0.930 . S
H1252 C1262 0.930 . S
H1253 C1263 0.930 . S
C1254 H1248 0.930 . S
C1254 C1255 1.355 . S
C1254 C1256 1.415 . S
C1255 C1254 1.355 . S
C1255 C1257 1.419 . S
C1256 C1254 1.415 . S
C1256 C1261 1.425 . S
C1256 C1263 1.409 . S
C1257 H1249 0.930 . S
C1257 C1255 1.419 . S
C1257 C1258 1.362 . S
C1258 H1250 0.930 . S
C1258 C1257 1.362 . S
C1258 C1261 1.409 . S
C1259 H1251 0.930 . S
C1259 C1260 1.355 . S
C1259 C1261 1.415 . S
C1260 C1259 1.355 . S
C1260 C1262 1.419 . S
C1261 C1256 1.425 . S
C1261 C1258 1.409 . S
C1261 C1259 1.415 . S
C1262 H1252 0.930 . S
C1262 C1260 1.419 . S
C1262 C1263 1.362 . S
C1263 H1253 0.930 . S
C1263 C1256 1.409 . S
C1263 C1262 1.362 . S
H1264 C1270 0.930 . S
H1265 C1273 0.930 . S
H1266 C1274 0.930 . S
H1267 C1275 0.930 . S
H1268 C1278 0.930 . S
H1269 C1279 0.930 . S
C1270 H1264 0.930 . S
C1270 C1271 1.355 . S
C1270 C1272 1.415 . S
C1271 C1270 1.355 . S
C1271 C1273 1.419 . S
C1272 C1270 1.415 . S
C1272 C1277 1.425 . S
C1272 C1279 1.409 . S
C1273 H1265 0.930 . S
C1273 C1271 1.419 . S
C1273 C1274 1.362 . S
C1274 H1266 0.930 . S
C1274 C1273 1.362 . S
C1274 C1277 1.409 . S
C1275 H1267 0.930 . S
C1275 C1276 1.355 . S
C1275 C1277 1.415 . S
C1276 C1275 1.355 . S
C1276 C1278 1.419 . S
C1277 C1272 1.425 . S
C1277 C1274 1.409 . S
C1277 C1275 1.415 . S
C1278 H1268 0.930 . S
C1278 C1276 1.419 . S
C1278 C1279 1.362 . S
C1279 H1269 0.930 . S
C1279 C1272 1.409 . S
C1279 C1278 1.362 . S
C524 C337 2.646 . S
C519 C18 2.661 . S
C540 C342 2.189 . S
C535 C59 2.265 . S
C556 C343 1.395 . S
C551 C98 1.398 . S
C567 C125 0.802 . S
C572 C347 0.861 . S
C583 C169 2.253 . S
C588 C350 2.172 . S
C604 C351 1.432 . S
C599 C218 1.460 . S
C615 C255 1.028 . S
C620 C328 0.977 . S
C631 C288 2.649 . S
C636 C344 2.628 . S
C652 C382 0.947 . S
C647 C15 0.903 . S
C663 C45 0.850 . S
C668 C408 1.025 . S
C684 C360 0.269 . S
C679 C95 0.209 . S
C700 C415 1.126 . S
C695 C128 1.095 . S
C711 C178 1.183 . S
C716 C369 1.081 . S
C732 C411 1.429 1_556 S
C727 C215 1.471 . S
C743 C249 2.309 . S
C748 C375 2.294 . S
C759 C299 1.973 . S
C764 C406 2.029 . S
C775 C9 2.482 . S
C780 C414 2.443 . S
C791 C175 0.533 . S
C796 C401 0.629 1_556 S
C812 C379 1.470 . S
C807 C209 1.492 . S
C828 C407 1.765 . S
C823 C258 1.806 . S
C839 C285 1.161 . S
C844 C374 1.158 . S
C855 C89 3.036 . S
C860 C392 2.997 . S
C876 C383 2.722 . S
C871 C139 2.715 . S
C887 C48 1.724 . S
C892 C376 1.741 . S
C903 C298 2.621 . S
C908 C438 2.558 . S
C919 C179 2.233 . S
C924 C433 2.238 . S
C940 C447 1.371 . S
C935 C208 1.436 . S
C956 C424 0.965 . S
C951 C245 0.916 . S
C967 C49 2.233 . S
C972 C440 2.252 . S
C988 C439 1.367 . S
C983 C88 1.428 . S
C999 C135 0.815 . S
C1004 C443 0.783 . S
C1015 C8 2.625 . S
C1020 C446 2.524 . S
C1031 C295 1.197 . S
C1036 C472 1.219 1_655 S
C1052 C488 0.199 . S
C1047 C165 0.358 . S
C1063 C219 1.527 . S
C1068 C470 1.468 . S
C1079 C248 1.816 . S
C1084 C503 1.741 . S
C1100 C479 1.716 . S
C1095 C58 1.729 . S
C1111 C99 3.065 . S
C1116 C497 3.065 . S
C1132 C475 2.646 . S
C1127 C129 2.721 . S
C1148 C510 2.508 . S
C1143 C19 2.521 . S
C1164 C502 1.995 . S
C1159 C289 2.017 . S
C1175 C55 0.765 . S
C1180 C507 0.471 . S
C1191 C85 0.280 . S
C1196 C478 0.309 . S
C1212 C511 1.074 . S
C1207 C138 1.168 . S
C1223 C5 0.945 . S
C1228 C465 0.893 . S
C1239 C205 1.452 . S
C1244 C504 1.367 . S
C1260 C456 2.318 . S
C1255 C259 2.303 . S
C1276 C471 1.054 . S
C1271 C168 1.115 . S
