# Generated by pormake.
# Topology nia, (6,6)-cn, num edge types: 1
# Building blocks:
#     Node 0, Type 0, BuildingBlock: VOLQOD_clean_sbu_1, # of connection points: 6
#     Node 1, Type 0, BuildingBlock: VOLQOD_clean_sbu_1, # of connection points: 6
#     Node 2, Type 1, BuildingBlock: MIDCAF_clean_sbu_0, # of connection points: 6
#     Node 3, Type 1, BuildingBlock: MIDCAF_clean_sbu_0, # of connection points: 6
#     Edge 4, Type (0, 1), BuildingBlock: MIFKUJ_clean_linker_0, # of connection points: 2
#     Edge 5, Type (0, 1), BuildingBlock: MIFKUJ_clean_linker_0, # of connection points: 2
#     Edge 6, Type (0, 1), BuildingBlock: MIFKUJ_clean_linker_0, # of connection points: 2
#     Edge 7, Type (0, 1), BuildingBlock: MIFKUJ_clean_linker_0, # of connection points: 2
#     Edge 8, Type (0, 1), BuildingBlock: MIFKUJ_clean_linker_0, # of connection points: 2
#     Edge 9, Type (0, 1), BuildingBlock: MIFKUJ_clean_linker_0, # of connection points: 2
#     Edge 10, Type (0, 1), BuildingBlock: MIFKUJ_clean_linker_0, # of connection points: 2
#     Edge 11, Type (0, 1), BuildingBlock: MIFKUJ_clean_linker_0, # of connection points: 2
#     Edge 12, Type (0, 1), BuildingBlock: MIFKUJ_clean_linker_0, # of connection points: 2
#     Edge 13, Type (0, 1), BuildingBlock: MIFKUJ_clean_linker_0, # of connection points: 2
#     Edge 14, Type (0, 1), BuildingBlock: MIFKUJ_clean_linker_0, # of connection points: 2
#     Edge 15, Type (0, 1), BuildingBlock: MIFKUJ_clean_linker_0, # of connection points: 2
# Relax obj value: 0.144
# Max RMSD: 0.235
# Mean RMSD: 0.189
data_MOF--net-nia--node1-VOLQOD_clean_sbu_1--node2-MIDCAF_clean_sbu_0--edge1-MIFKUJ_clean_linker_0
_symmetry_space_group_name_H-M    P1
_symmetry_Int_Tables_number       1
_symmetry_cell_setting            triclinic
loop_
_symmetry_equiv_pos_as_xyz
'x, y, z'
_cell_length_a     29.574786
_cell_length_b     29.551822
_cell_length_c     46.467963
_cell_angle_alpha  90.170787
_cell_angle_beta   90.724536
_cell_angle_gamma 120.88229
loop_
_atom_site_label
_atom_site_type_symbol
_atom_site_fract_x
_atom_site_fract_y
_atom_site_fract_z
_atom_type_partial_charge
O0 O 0.07745 0.04209 0.94767 0.0
Zn1 Zn 0.00394 0.99159 0.95909 0.0
O2 O -0.00511 0.98934 1.00024 0.0
Zn3 Zn 0.96601 0.91648 0.01295 0.0
Zn4 Zn 0.06373 0.03538 0.01813 0.0
Zn5 Zn 0.9468 0.01433 0.00955 0.0
O6 O 0.90135 0.89337 0.0367 0.0
O7 O 0.88785 0.9605 0.03338 0.0
O8 O 0.98499 0.92193 0.94323 0.0
O9 O 0.94821 0.86573 0.9791 0.0
O10 O 0.01754 0.91202 0.03986 0.0
O11 O 0.08336 0.99488 0.04501 0.0
O12 O 0.06187 0.0904 0.0419 0.0
O13 O 0.95662 0.0108 0.93888 0.0
O14 O 0.98254 0.0798 0.03498 0.0
O15 O 0.91581 0.0273 0.97345 0.0
C16 C 0.11989 0.07166 0.96167 0.0
C17 C 0.87518 0.91527 0.04299 0.0
C18 C 0.0614 0.94629 0.05137 0.0
C19 C 0.9612 0.87525 0.95276 0.0
C20 C 0.02834 0.10417 0.04662 0.0
C21 C 0.92368 0.02355 0.94685 0.0
O22 O 0.12108 0.07329 0.98906 0.0
O23 O 0.08239 0.13157 0.48313 0.0
Zn24 Zn 0.05147 0.08307 0.51737 0.0
O25 O 0.00836 0.00894 0.50599 0.0
Zn26 Zn 0.93601 0.97959 0.51905 0.0
Zn27 Zn 0.00741 0.00413 0.46477 0.0
Zn28 Zn 0.03929 0.9691 0.52099 0.0
O29 O 0.91307 0.91289 0.54123 0.0
O30 O 0.98435 0.90572 0.54196 0.0
O31 O 0.00998 0.1047 0.54156 0.0
O32 O 0.93277 0.03071 0.54636 0.0
O33 O 0.88456 0.96358 0.48552 0.0
O34 O 0.93714 0.98219 0.44823 0.0
O35 O 0.02865 0.9546 0.45086 0.0
O36 O 0.10934 0.09315 0.54444 0.0
O37 O 0.06679 0.9428 0.48917 0.0
O38 O 0.09732 0.01305 0.54976 0.0
C39 C 0.08256 0.12016 0.45666 0.0
C40 C 0.93665 0.88867 0.54862 0.0
C41 C 0.89207 0.96734 0.45844 0.0
C42 C 0.9646 0.07905 0.5527 0.0
C43 C 0.05521 0.93651 0.46236 0.0
C44 C 0.12127 0.0619 0.55644 0.0
O45 O 0.05704 0.07289 0.44749 0.0
Zn46 Zn 0.32752 0.66727 0.19607 0.0
Zn47 Zn 0.33561 0.65556 0.30558 0.0
Zn48 Zn 0.33068 0.66338 0.25198 0.0
C49 C 0.43583 0.69395 0.28903 0.0
C50 C 0.26409 0.55655 0.28818 0.0
O51 O 0.29146 0.70785 0.24135 0.0
O52 O 0.27789 0.69339 0.19438 0.0
C53 C 0.43252 0.7242 0.21168 0.0
O54 O 0.4141 0.69893 0.266 0.0
O55 O 0.40782 0.6686 0.31005 0.0
O56 O 0.27651 0.58341 0.31113 0.0
O57 O 0.28356 0.57916 0.26407 0.0
O58 O 0.40332 0.71807 0.19019 0.0
O59 O 0.41216 0.70396 0.23608 0.0
O60 O 0.28437 0.58244 0.23418 0.0
O61 O 0.29933 0.5916 0.1874 0.0
C62 C 0.27881 0.56229 0.20884 0.0
O63 O 0.29801 0.70855 0.27134 0.0
O64 O 0.32423 0.71335 0.31655 0.0
C65 C 0.27162 0.7121 0.21741 0.0
C66 C 0.30289 0.72639 0.29722 0.0
Zn67 Zn 0.69823 0.35162 0.8031 0.0
Zn68 Zn 0.63591 0.29679 0.70196 0.0
Zn69 Zn 0.66684 0.32521 0.75367 0.0
C70 C 0.68306 0.40533 0.70334 0.0
C71 C 0.54654 0.24729 0.73331 0.0
O72 O 0.70489 0.28038 0.76817 0.0
O73 O 0.70846 0.29405 0.815 0.0
C74 C 0.75671 0.44048 0.77411 0.0
O75 O 0.69724 0.39732 0.7282 0.0
O76 O 0.65053 0.36675 0.68784 0.0
O77 O 0.56266 0.24149 0.70939 0.0
O78 O 0.57932 0.28049 0.75205 0.0
O79 O 0.76262 0.41986 0.79642 0.0
O80 O 0.7188 0.41222 0.75622 0.0
O81 O 0.59722 0.3012 0.78005 0.0
O82 O 0.63568 0.35127 0.81845 0.0
C83 C 0.59416 0.31995 0.80452 0.0
O84 O 0.7041 0.28146 0.73852 0.0
O85 O 0.68554 0.27385 0.69188 0.0
C86 C 0.714 0.2705 0.79392 0.0
C87 C 0.70953 0.26821 0.71291 0.0
H88 H 0.02869 0.84615 0.06918 0.0
H89 H 0.06421 0.81961 0.10895 0.0
H90 H 0.18214 0.98238 0.12597 0.0
H91 H 0.14743 0.00938 0.08578 0.0
H92 H 0.22459 0.92246 0.12785 0.0
H93 H 0.07841 0.9174 0.17119 0.0
H94 H 0.98668 0.8965 0.17552 0.0
H95 H 0.93225 0.73098 0.17408 0.0
H96 H 0.02357 0.75081 0.16927 0.0
H97 H 0.30312 0.8111 0.23733 0.0
H98 H 0.26517 0.86479 0.22265 0.0
H99 H 0.13915 0.73011 0.17766 0.0
H100 H 0.17695 0.67699 0.19211 0.0
H101 H 0.1068 0.79642 0.20108 0.0
H102 H 0.25051 0.80636 0.14342 0.0
H103 H 0.34194 0.8265 0.13823 0.0
H104 H 0.40026 0.98523 0.16766 0.0
H105 H 0.30903 0.96569 0.17337 0.0
C106 C 0.06229 0.87639 0.08127 0.0
C107 C 0.08514 0.92991 0.07427 0.0
C108 C 0.08224 0.86118 0.10422 0.0
C109 C 0.12506 0.89914 0.12086 0.0
C110 C 0.14876 0.9525 0.11357 0.0
C111 C 0.12895 0.96779 0.09052 0.0
C112 C 0.14618 0.88235 0.14499 0.0
C113 C 0.19915 0.89613 0.14436 0.0
C114 C 0.11304 0.84795 0.16657 0.0
C115 C 0.05794 0.83565 0.16975 0.0
C116 C 0.04687 0.87653 0.17163 0.0
C117 C -0.00507 0.86487 0.17418 0.0
C118 C 0.95366 0.81245 0.17505 0.0
C119 C 0.96427 0.77157 0.17342 0.0
C120 C 0.01614 0.78301 0.17083 0.0
C121 C 0.26628 0.79276 0.22522 0.0
C122 C 0.24283 0.74025 0.21565 0.0
C123 C 0.24474 0.82334 0.21683 0.0
C124 C 0.19971 0.80146 0.19881 0.0
C125 C 0.17378 0.74767 0.19162 0.0
C126 C 0.19548 0.71744 0.19974 0.0
C127 C 0.18437 0.83514 0.18313 0.0
C128 C 0.13252 0.8244 0.18523 0.0
C129 C 0.21849 0.87255 0.16297 0.0
C130 C 0.27314 0.88444 0.15913 0.0
C131 C 0.28288 0.84545 0.14892 0.0
C132 C 0.33462 0.85675 0.14588 0.0
C133 C 0.37689 0.90707 0.15269 0.0
C134 C 0.36748 0.94624 0.16246 0.0
C135 C 0.31579 0.93509 0.16561 0.0
H136 H 0.41692 0.91576 0.15033 0.0
H137 H 0.91346 0.8035 0.17701 0.0
H138 H 0.15622 0.00765 0.58837 0.0
H139 H 0.21535 0.03963 0.63037 0.0
H140 H 0.23124 0.19251 0.62207 0.0
H141 H 0.1731 0.16132 0.57978 0.0
H142 H 0.32342 0.2028 0.63049 0.0
H143 H 0.15835 0.10897 0.67637 0.0
H144 H 0.06927 0.0343 0.686 0.0
H145 H 0.1344 0.93906 0.7103 0.0
H146 H 0.22387 0.01293 0.70043 0.0
H147 H 0.49065 0.29364 0.74682 0.0
H148 H 0.39921 0.25961 0.73125 0.0
H149 H 0.38333 0.10995 0.70991 0.0
H150 H 0.47465 0.14406 0.72505 0.0
H151 H 0.2829 0.10636 0.72284 0.0
H152 H 0.44114 0.19379 0.6618 0.0
H153 H 0.53083 0.26821 0.65279 0.0
H154 H 0.47499 0.37642 0.65815 0.0
H155 H 0.38505 0.30253 0.66759 0.0
C156 C 0.17248 0.04816 0.59537 0.0
C157 C 0.16001 0.08193 0.58061 0.0
C158 C 0.20577 0.0662 0.61961 0.0
C159 C 0.22683 0.11815 0.62971 0.0
C160 C 0.2151 0.15215 0.61478 0.0
C161 C 0.18202 0.13426 0.5905 0.0
C162 C 0.26373 0.13793 0.65476 0.0
C163 C 0.31385 0.18241 0.6509 0.0
C164 C 0.25161 0.11109 0.68137 0.0
C165 C 0.19787 0.06646 0.68745 0.0
C166 C 0.15368 0.07199 0.68356 0.0
C167 C 0.1031 0.02981 0.6891 0.0
C168 C 0.09617 0.98193 0.6987 0.0
C169 C 0.13983 0.97617 0.70285 0.0
C170 C 0.19051 0.01823 0.69733 0.0
C171 C 0.46658 0.25256 0.74042 0.0
C172 C 0.48939 0.22146 0.73673 0.0
C173 C 0.4144 0.23315 0.73154 0.0
C174 C 0.38503 0.18263 0.71898 0.0
C175 C 0.40537 0.14899 0.71956 0.0
C176 C 0.45758 0.16854 0.7281 0.0
C177 C 0.34199 0.17062 0.69821 0.0
C178 C 0.2913 0.12746 0.7027 0.0
C179 C 0.35315 0.1987 0.67213 0.0
C180 C 0.40668 0.24286 0.66564 0.0
C181 C 0.44812 0.2335 0.66116 0.0
C182 C 0.49894 0.27554 0.65599 0.0
C183 C 0.50863 0.32702 0.65497 0.0
C184 C 0.46744 0.33653 0.659 0.0
C185 C 0.41654 0.29461 0.66425 0.0
H186 H 0.54799 0.35951 0.65098 0.0
H187 H 0.05698 0.94932 0.70298 0.0
H188 H 0.12679 0.18016 0.0633 0.0
H189 H 0.15179 0.24495 0.10177 0.0
H190 H 0.98799 0.1898 0.11711 0.0
H191 H 0.96239 0.12473 0.07786 0.0
H192 H 0.04762 0.29637 0.11974 0.0
H193 H 0.05309 0.15673 0.16425 0.0
H194 H 0.07178 0.0849 0.16941 0.0
H195 H 0.23793 0.19695 0.16714 0.0
H196 H 0.22031 0.26944 0.16148 0.0
H197 H 0.18115 0.49495 0.22959 0.0
H198 H 0.12159 0.40277 0.21431 0.0
H199 H 0.24435 0.41028 0.16166 0.0
H200 H 0.30323 0.50214 0.17643 0.0
H201 H 0.18034 0.31086 0.19156 0.0
H202 H 0.16569 0.44174 0.13169 0.0
H203 H 0.14572 0.51278 0.12636 0.0
H204 H 0.9916 0.41212 0.16058 0.0
H205 H 0.01104 0.34072 0.16644 0.0
C206 C 0.09595 0.18187 0.07469 0.0
C207 C 0.04261 0.14709 0.06769 0.0
C208 C 0.1103 0.21868 0.09685 0.0
C209 C 0.07169 0.22108 0.11287 0.0
C210 C 0.01833 0.18804 0.10522 0.0
C211 C 0.00383 0.15118 0.08274 0.0
C212 C 0.0884 0.25926 0.1371 0.0
C213 C 0.07532 0.2986 0.13603 0.0
C214 C 0.12419 0.26194 0.15856 0.0
C215 C 0.1353 0.21861 0.1624 0.0
C216 C 0.09363 0.16609 0.16472 0.0
C217 C 0.10404 0.12522 0.16773 0.0
C218 C 0.15601 0.13635 0.1686 0.0
C219 C 0.19769 0.1884 0.16651 0.0
C220 C 0.1875 0.22942 0.16346 0.0
C221 C 0.19558 0.47623 0.21536 0.0
C222 C 0.24648 0.50514 0.20408 0.0
C223 C 0.16168 0.42384 0.20667 0.0
C224 C 0.17872 0.40001 0.18686 0.0
C225 C 0.2307 0.42799 0.17711 0.0
C226 C 0.26413 0.48038 0.18539 0.0
C227 C 0.14153 0.34886 0.17303 0.0
C228 C 0.15085 0.30719 0.17606 0.0
C229 C 0.10176 0.34362 0.15369 0.0
C230 C 0.09 0.38625 0.14982 0.0
C231 C 0.1277 0.43495 0.13825 0.0
C232 C 0.11647 0.47523 0.13511 0.0
C233 C 0.06748 0.46703 0.14321 0.0
C234 C 0.02957 0.41846 0.15438 0.0
C235 C 0.04066 0.37809 0.15762 0.0
H236 H 0.05885 0.49826 0.14076 0.0
H237 H 0.16398 0.10465 0.1709 0.0
H238 H 0.02567 0.17849 0.57548 0.0
H239 H 0.00411 0.21841 0.61506 0.0
H240 H 0.85087 0.07755 0.62108 0.0
H241 H 0.87224 0.03705 0.58194 0.0
H242 H 0.9319 0.24326 0.61744 0.0
H243 H 0.80718 0.0553 0.68864 0.0
H244 H 0.81221 0.9789 0.7053 0.0
H245 H 0.9786 0.06254 0.6902 0.0
H246 H 0.97486 0.13987 0.67394 0.0
H247 H 0.70057 0.20323 0.66947 0.0
H248 H 0.76511 0.18019 0.6549 0.0
H249 H 0.86359 0.26511 0.72821 0.0
H250 H 0.79899 0.28927 0.74294 0.0
H251 H 0.84037 0.14695 0.70555 0.0
H252 H 0.92004 0.33178 0.68575 0.0
H253 H 0.91743 0.41061 0.67116 0.0
H254 H 0.85466 0.34022 0.58821 0.0
H255 H 0.85606 0.26059 0.6025 0.0
C256 C 0.98734 0.15597 0.58521 0.0
C257 C 0.95056 0.1046 0.57544 0.0
C258 C 0.97528 0.17876 0.60796 0.0
C259 C 0.92637 0.15057 0.62142 0.0
C260 C 0.88945 0.09951 0.61155 0.0
C261 C 0.90146 0.07666 0.58887 0.0
C262 C 0.91142 0.17579 0.64394 0.0
C263 C 0.91337 0.22296 0.63714 0.0
C264 C 0.88825 0.14998 0.67 0.0
C265 C 0.89062 0.1034 0.67984 0.0
C266 C 0.84493 0.05761 0.68902 0.0
C267 C 0.84755 0.01407 0.69838 0.0
C268 C 0.89566 0.01581 0.69874 0.0
C269 C 0.94131 0.06116 0.68981 0.0
C270 C 0.93894 0.10484 0.68047 0.0
C271 C 0.73553 0.21637 0.68278 0.0
C272 C 0.74494 0.24813 0.70725 0.0
C273 C 0.77218 0.20301 0.67451 0.0
C274 C 0.81885 0.22115 0.6905 0.0
C275 C 0.82743 0.25055 0.71583 0.0
C276 C 0.79062 0.26423 0.72414 0.0
C277 C 0.85979 0.21294 0.67839 0.0
C278 C 0.86172 0.16851 0.68671 0.0
C279 C 0.88806 0.24207 0.65423 0.0
C280 C 0.88792 0.29015 0.64527 0.0
C281 C 0.90532 0.33298 0.66448 0.0
C282 C 0.90412 0.37782 0.65625 0.0
C283 C 0.88583 0.3804 0.62879 0.0
C284 C 0.86883 0.33818 0.60947 0.0
C285 C 0.8699 0.29321 0.61761 0.0
H286 H 0.88488 0.41513 0.62246 0.0
H287 H 0.89757 0.98203 0.70596 0.0
H288 H 0.8034 0.94347 0.05628 0.0
H289 H 0.7407 0.91059 0.09535 0.0
H290 H 0.78912 0.80007 0.11806 0.0
H291 H 0.8517 0.83223 0.07848 0.0
H292 H 0.68425 0.75525 0.12054 0.0
H293 H 0.83123 0.90945 0.15913 0.0
H294 H 0.90422 0.00199 0.15996 0.0
H295 H 0.79342 0.05462 0.15452 0.0
H296 H 0.71974 0.96239 0.15319 0.0
H297 H 0.50187 0.69656 0.23202 0.0
H298 H 0.59248 0.73151 0.2157 0.0
H299 H 0.58084 0.84703 0.1647 0.0
H300 H 0.49086 0.81238 0.18093 0.0
H301 H 0.68273 0.88498 0.18807 0.0
H302 H 0.54161 0.72989 0.13584 0.0
H303 H 0.46863 0.63724 0.13406 0.0
H304 H 0.57217 0.58694 0.16662 0.0
H305 H 0.6456 0.67948 0.16893 0.0
C306 C 0.80053 0.91187 0.06938 0.0
C307 C 0.8328 0.8907 0.06436 0.0
C308 C 0.76497 0.89343 0.0919 0.0
C309 C 0.76136 0.85393 0.1101 0.0
C310 C 0.7918 0.83102 0.10444 0.0
C311 C 0.82731 0.84929 0.08174 0.0
C312 C 0.72492 0.83647 0.13464 0.0
C313 C 0.68481 0.78336 0.13584 0.0
C314 C 0.72576 0.87315 0.15467 0.0
C315 C 0.76989 0.92887 0.15596 0.0
C316 C 0.82239 0.94073 0.15797 0.0
C317 C 0.86391 0.99315 0.15853 0.0
C318 C 0.85347 0.03416 0.15726 0.0
C319 C 0.80146 0.02281 0.15552 0.0
C320 C 0.75977 0.97045 0.15491 0.0
C321 C 0.51955 0.73066 0.2182 0.0
C322 C 0.48972 0.75186 0.20759 0.0
C323 C 0.57107 0.75041 0.20882 0.0
C324 C 0.59301 0.79148 0.1888 0.0
C325 C 0.56466 0.81543 0.18021 0.0
C326 C 0.51323 0.79546 0.18933 0.0
C327 C 0.64124 0.80443 0.17307 0.0
C328 C 0.68349 0.85668 0.17347 0.0
C329 C 0.64268 0.76698 0.15465 0.0
C330 C 0.59881 0.71147 0.15287 0.0
C331 C 0.54867 0.69905 0.14277 0.0
C332 C 0.50726 0.6466 0.14166 0.0
C333 C 0.51572 0.60624 0.15031 0.0
C334 C 0.56565 0.61825 0.16 0.0
C335 C 0.60716 0.67067 0.16121 0.0
H336 H 0.48361 0.56565 0.14944 0.0
H337 H 0.88568 0.07472 0.15765 0.0
H338 H 0.84827 0.85545 0.58072 0.0
H339 H 0.80396 0.77637 0.61049 0.0
H340 H 0.91736 0.73396 0.58528 0.0
H341 H 0.96222 0.81297 0.55583 0.0
H342 H 0.81169 0.65136 0.58023 0.0
H343 H 0.93078 0.78298 0.64826 0.0
H344 H 0.97085 0.86716 0.6752 0.0
H345 H 0.82097 0.82189 0.71173 0.0
H346 H 0.77979 0.73772 0.6846 0.0
H347 H 0.78172 0.48961 0.71326 0.0
H348 H 0.82176 0.57644 0.69095 0.0
H349 H 0.6766 0.52787 0.64429 0.0
H350 H 0.63612 0.44141 0.66705 0.0
H351 H 0.79856 0.65736 0.68644 0.0
H352 H 0.70979 0.56749 0.57525 0.0
H353 H 0.67424 0.48292 0.54899 0.0
H354 H 0.77339 0.44585 0.59948 0.0
H355 H 0.80998 0.53046 0.62575 0.0
C356 C 0.86365 0.82918 0.58147 0.0
C357 C 0.90869 0.84035 0.56592 0.0
C358 C 0.83851 0.78429 0.59858 0.0
C359 C 0.85769 0.7497 0.60012 0.0
C360 C 0.90214 0.76037 0.58436 0.0
C361 C 0.92771 0.80552 0.5676 0.0
C362 C 0.83087 0.70157 0.61762 0.0
C363 C 0.80857 0.65267 0.60343 0.0
C364 C 0.82743 0.70356 0.6479 0.0
C365 C 0.85205 0.7543 0.66409 0.0
C366 C 0.90622 0.7912 0.66177 0.0
C367 C 0.92918 0.83887 0.67714 0.0
C368 C 0.89845 0.84995 0.6951 0.0
C369 C 0.84471 0.81331 0.69776 0.0
C370 C 0.82154 0.76561 0.6824 0.0
C371 C 0.75783 0.49817 0.6991 0.0
C372 C 0.70572 0.45915 0.69215 0.0
C373 C 0.78081 0.54761 0.68622 0.0
C374 C 0.75217 0.55834 0.66589 0.0
C375 C 0.6994 0.52013 0.6598 0.0
C376 C 0.67644 0.47081 0.67271 0.0
C377 C 0.77894 0.60727 0.64895 0.0
C378 C 0.80121 0.65619 0.66321 0.0
C379 C 0.78301 0.6055 0.61872 0.0
C380 C 0.76217 0.55503 0.60264 0.0
C381 C 0.72413 0.54136 0.58065 0.0
C382 C 0.70378 0.49342 0.56578 0.0
C383 C 0.72142 0.45896 0.57263 0.0
C384 C 0.75962 0.47248 0.59427 0.0
C385 C 0.78013 0.5204 0.60917 0.0
H386 H 0.70556 0.42183 0.56113 0.0
H387 H 0.9163 0.88685 0.707 0.0
H388 H 0.01936 0.89575 0.40869 0.0
H389 H 0.05918 0.86373 0.37474 0.0
H390 H 0.17757 0.88925 0.43844 0.0
H391 H 0.13787 0.92145 0.47275 0.0
H392 H 0.2171 0.93494 0.38324 0.0
H393 H 0.08325 0.7682 0.42411 0.0
H394 H 0.99188 0.70185 0.43647 0.0
H395 H 0.94533 0.68695 0.34741 0.0
H396 H 0.03635 0.75372 0.33457 0.0
H397 H 0.33841 0.79893 0.3401 0.0
H398 H 0.29379 0.84076 0.36072 0.0
H399 H 0.1732 0.77029 0.29424 0.0
H400 H 0.21619 0.72491 0.27474 0.0
H401 H 0.12913 0.75295 0.34318 0.0
H402 H 0.26109 0.90812 0.29991 0.0
H403 H 0.35032 0.97559 0.285 0.0
H404 H 0.39808 0.01659 0.37348 0.0
H405 H 0.30936 0.94882 0.38899 0.0
C406 C 0.05357 0.89407 0.41563 0.0
C407 C 0.07568 0.9113 0.44337 0.0
C408 C 0.07616 0.87571 0.39619 0.0
C409 C 0.12128 0.87439 0.40413 0.0
C410 C 0.14277 0.89027 0.43199 0.0
C411 C 0.11987 0.90822 0.4516 0.0
C412 C 0.14705 0.85795 0.38304 0.0
C413 C 0.19827 0.89507 0.3746 0.0
C414 C 0.12101 0.80682 0.37068 0.0
C415 C 0.06646 0.76634 0.37843 0.0
C416 C 0.05344 0.75107 0.4072 0.0
C417 C 0.00174 0.71333 0.41428 0.0
C418 C 0.96279 0.69031 0.39275 0.0
C419 C 0.97552 0.70486 0.36407 0.0
C420 C 0.02716 0.74261 0.35687 0.0
C421 C 0.30292 0.79314 0.32953 0.0
C422 C 0.28106 0.75926 0.30559 0.0
C423 C 0.27768 0.81757 0.34116 0.0
C424 C 0.23053 0.80947 0.32877 0.0
C425 C 0.20979 0.77747 0.304 0.0
C426 C 0.23475 0.75222 0.29259 0.0
C427 C 0.2004 0.82945 0.34397 0.0
C428 C 0.14806 0.79317 0.35129 0.0
C429 C 0.22508 0.88178 0.35481 0.0
C430 C 0.27849 0.92316 0.34562 0.0
C431 C 0.29066 0.93131 0.31622 0.0
C432 C 0.34118 0.96965 0.30765 0.0
C433 C 0.37985 0.00033 0.32828 0.0
C434 C 0.36806 0.99282 0.35753 0.0
C435 C 0.31761 0.95451 0.36622 0.0
H436 H 0.41895 0.02997 0.3216 0.0
H437 H 0.92279 0.66112 0.39828 0.0
H438 H 0.20805 0.16342 0.97913 0.0
H439 H 0.28722 0.21842 0.95107 0.0
H440 H 0.22074 0.10675 0.88041 0.0
H441 H 0.14106 0.05338 0.90767 0.0
H442 H 0.35785 0.20205 0.93192 0.0
H443 H 0.26248 0.16107 0.81658 0.0
H444 H 0.18081 0.14691 0.79323 0.0
H445 H 0.15835 0.22918 0.8627 0.0
H446 H 0.24029 0.24456 0.88626 0.0
H447 H 0.50142 0.22761 0.79559 0.0
H448 H 0.41823 0.19747 0.82015 0.0
H449 H 0.48953 0.34266 0.86929 0.0
H450 H 0.57217 0.37409 0.84377 0.0
H451 H 0.35208 0.24438 0.82913 0.0
H452 H 0.45217 0.30034 0.93979 0.0
H453 H 0.53532 0.31927 0.96355 0.0
H454 H 0.54788 0.21434 0.90448 0.0
H455 H 0.46447 0.19425 0.88069 0.0
C456 C 0.2104 0.15092 0.95754 0.0
C457 C 0.1684 0.1044 0.94548 0.0
C458 C 0.2555 0.18235 0.94152 0.0
C459 C 0.25948 0.16735 0.91338 0.0
C460 C 0.21795 0.12017 0.90166 0.0
C461 C 0.17257 0.08941 0.91738 0.0
C462 C 0.30809 0.19913 0.89671 0.0
C463 C 0.35652 0.21231 0.90965 0.0
C464 C 0.30652 0.21217 0.86751 0.0
C465 C 0.25739 0.20359 0.85331 0.0
C466 C 0.24029 0.1764 0.82681 0.0
C467 C 0.1939 0.1681 0.81355 0.0
C468 C 0.16433 0.187 0.82651 0.0
C469 C 0.18119 0.21439 0.85273 0.0
C470 C 0.22758 0.22285 0.86607 0.0
C471 C 0.49867 0.254 0.81066 0.0
C472 C 0.54281 0.30354 0.81733 0.0
C473 C 0.45136 0.23657 0.82488 0.0
C474 C 0.44805 0.26795 0.84645 0.0
C475 C 0.49157 0.31804 0.85264 0.0
C476 C 0.53865 0.33574 0.83816 0.0
C477 C 0.40079 0.24605 0.86433 0.0
C478 C 0.35295 0.2348 0.85158 0.0
C479 C 0.40288 0.23552 0.8938 0.0
C480 C 0.45249 0.24636 0.90827 0.0
C481 C 0.47264 0.28122 0.93195 0.0
C482 C 0.51979 0.29214 0.94542 0.0
C483 C 0.54697 0.26819 0.93546 0.0
C484 C 0.52691 0.23305 0.9121 0.0
C485 C 0.47974 0.22194 0.89859 0.0
H486 H 0.5835 0.27675 0.94588 0.0
H487 H 0.1284 0.18049 0.81622 0.0
H488 H 0.09434 0.21788 0.45724 0.0
H489 H 0.12279 0.27974 0.41703 0.0
H490 H 0.1577 0.17805 0.36754 0.0
H491 H 0.12801 0.11534 0.4073 0.0
H492 H 0.2365 0.30149 0.36922 0.0
H493 H 0.06039 0.16117 0.34546 0.0
H494 H 0.96762 0.09768 0.35675 0.0
H495 H 0.94329 0.22536 0.37719 0.0
H496 H 0.03625 0.28962 0.36654 0.0
H497 H 0.2774 0.482 0.26136 0.0
H498 H 0.2385 0.39002 0.27643 0.0
H499 H 0.1411 0.41182 0.33664 0.0
H500 H 0.17869 0.50261 0.32114 0.0
H501 H 0.09266 0.31109 0.31874 0.0
H502 H 0.26792 0.44664 0.3548 0.0
H503 H 0.3614 0.51426 0.34799 0.0
H504 H 0.38764 0.39897 0.30759 0.0
H505 H 0.29404 0.33085 0.31385 0.0
C506 C 0.10919 0.20936 0.43805 0.0
C507 C 0.10884 0.16192 0.43523 0.0
C508 C 0.12506 0.24441 0.41511 0.0
C509 C 0.14166 0.23282 0.3894 0.0
C510 C 0.14474 0.18727 0.38724 0.0
C511 C 0.12782 0.15169 0.40991 0.0
C512 C 0.15269 0.26706 0.36434 0.0
C513 C 0.20517 0.3028 0.35756 0.0
C514 C 0.11156 0.26859 0.34947 0.0
C515 C 0.0554 0.23018 0.35544 0.0
C516 C 0.03538 0.1757 0.35261 0.0
C517 C 0.98274 0.13957 0.35885 0.0
C518 C 0.9496 0.15747 0.36774 0.0
C519 C 0.96902 0.21155 0.37032 0.0
C520 C 0.02167 0.24784 0.36416 0.0
C521 C 0.24586 0.46618 0.27678 0.0
C522 C 0.2311 0.49907 0.29032 0.0
C523 C 0.22396 0.41386 0.28551 0.0
C524 C 0.18782 0.39457 0.3081 0.0
C525 C 0.16902 0.42589 0.31925 0.0
C526 C 0.1907 0.47784 0.31051 0.0
C527 C 0.17671 0.34682 0.32407 0.0
C528 C 0.12408 0.30853 0.32943 0.0
C529 C 0.21778 0.34326 0.3379 0.0
C530 C 0.27403 0.38392 0.33447 0.0
C531 C 0.29363 0.43584 0.34435 0.0
C532 C 0.34658 0.47423 0.34058 0.0
C533 C 0.3804 0.46095 0.32729 0.0
C534 C 0.36136 0.40922 0.31781 0.0
C535 C 0.30838 0.37072 0.32145 0.0
H536 H 0.42139 0.49072 0.32439 0.0
H537 H 0.90886 0.12944 0.37256 0.0
H538 H 0.86023 0.065 0.95384 0.0
H539 H 0.81423 0.08428 0.91637 0.0
H540 H 0.87248 0.02258 0.85176 0.0
H541 H 0.91969 0.00435 0.88903 0.0
H542 H 0.88562 0.11136 0.83441 0.0
H543 H 0.74016 0.95622 0.86747 0.0
H544 H 0.67952 0.89013 0.90181 0.0
H545 H 0.63761 -7e-05 0.93388 0.0
H546 H 0.6986 0.06704 0.90005 0.0
H547 H 0.70447 0.18907 0.75968 0.0
H548 H 0.73339 0.12659 0.77215 0.0
H549 H 0.78905 0.20351 0.85483 0.0
H550 H 0.76337 0.26683 0.84224 0.0
H551 H 0.70457 0.07775 0.84652 0.0
H552 H 0.87445 0.23739 0.8176 0.0
H553 H 0.93502 0.29699 0.78097 0.0
H554 H 0.92755 0.16543 0.73685 0.0
H555 H 0.86485 0.10467 0.77249 0.0
C556 C 0.86295 0.05515 0.93171 0.0
C557 C 0.89385 0.03343 0.92446 0.0
C558 C 0.83625 0.06575 0.91029 0.0
C559 C 0.8392 0.05406 0.88125 0.0
C560 C 0.86946 0.03172 0.87399 0.0
C561 C 0.8965 0.02147 0.89537 0.0
C562 C 0.81395 0.06925 0.85855 0.0
C563 C 0.8455 0.10277 0.8366 0.0
C564 C 0.76117 0.05695 0.86075 0.0
C565 C 0.72413 0.01677 0.88119 0.0
C566 C 0.71826 0.96643 0.88195 0.0
C567 C 0.68378 0.92875 0.90132 0.0
C568 C 0.65474 0.94083 0.92002 0.0
C569 C 0.66008 0.99061 0.91935 0.0
C570 C 0.69453 0.02846 0.90003 0.0
C571 C 0.72425 0.19341 0.78011 0.0
C572 C 0.73231 0.23333 0.79977 0.0
C573 C 0.74024 0.15753 0.78728 0.0
C574 C 0.7635 0.16095 0.81432 0.0
C575 C 0.77135 0.20058 0.83382 0.0
C576 C 0.75643 0.2366 0.82656 0.0
C577 C 0.77752 0.12233 0.82407 0.0
C578 C 0.74382 0.08425 0.84364 0.0
C579 C 0.82785 0.12959 0.81927 0.0
C580 C 0.86379 0.16629 0.79732 0.0
C581 C 0.88448 0.22093 0.79968 0.0
C582 C 0.91945 0.25499 0.77915 0.0
C583 C 0.93474 0.23496 0.75642 0.0
C584 C 0.91522 0.18085 0.75426 0.0
C585 C 0.87974 0.14657 0.77452 0.0
H586 H 0.96188 0.26138 0.74057 0.0
H587 H 0.62808 0.9116 0.93501 0.0
H588 H 0.78585 0.90951 0.4687 0.0
H589 H 0.71437 0.87338 0.43254 0.0
H590 H 0.82714 0.95423 0.36571 0.0
H591 H 0.89849 0.99009 0.40141 0.0
H592 H 0.67749 0.91386 0.38984 0.0
H593 H 0.79374 0.8658 0.30992 0.0
H594 H 0.86946 0.85228 0.30968 0.0
H595 H 0.83719 0.79682 0.3966 0.0
H596 H 0.76089 0.80931 0.39718 0.0
H597 H 0.5052 0.7937 0.27163 0.0
H598 H 0.59425 0.85104 0.2916 0.0
H599 H 0.58357 0.71887 0.33702 0.0
H600 H 0.49472 0.66176 0.31735 0.0
H601 H 0.68711 0.7929 0.31902 0.0
H602 H 0.53795 0.78355 0.3689 0.0
H603 H 0.45944 0.79232 0.3704 0.0
H604 H 0.55351 0.95528 0.34725 0.0
H605 H 0.63245 0.94714 0.34514 0.0
C606 C 0.79526 0.92032 0.44638 0.0
C607 C 0.84784 0.9518 0.43786 0.0
C608 C 0.75444 0.89979 0.42577 0.0
C609 C 0.76574 0.91051 0.39646 0.0
C610 C 0.81777 0.94488 0.38818 0.0
C611 C 0.85846 0.9652 0.40866 0.0
C612 C 0.72395 0.88201 0.37436 0.0
C613 C 0.67985 0.88788 0.37417 0.0
C614 C 0.72705 0.84799 0.35397 0.0
C615 C 0.77203 0.83907 0.35367 0.0
C616 C 0.80271 0.85052 0.32892 0.0
C617 C 0.84573 0.84307 0.32874 0.0
C618 C 0.85825 0.82389 0.35315 0.0
C619 C 0.82758 0.81186 0.37774 0.0
C620 C 0.78448 0.81916 0.37802 0.0
C621 C 0.52284 0.77656 0.28488 0.0
C622 C 0.49329 0.72358 0.2932 0.0
C623 C 0.5735 0.80933 0.29636 0.0
C624 C 0.59494 0.78919 0.31608 0.0
C625 C 0.56761 0.73506 0.32185 0.0
C626 C 0.51689 0.70254 0.31069 0.0
C627 C 0.6408 0.82484 0.33449 0.0
C628 C 0.68551 0.82006 0.33416 0.0
C629 C 0.63801 0.85938 0.35461 0.0
C630 C 0.5909 0.8646 0.35655 0.0
C631 C 0.5418 0.82115 0.36396 0.0
C632 C 0.49724 0.826 0.36493 0.0
C633 C 0.50145 0.87429 0.35885 0.0
C634 C 0.55029 0.91788 0.3519 0.0
C635 C 0.59494 0.91317 0.35081 0.0
H636 H 0.4669 0.87797 0.35958 0.0
H637 H 0.89162 0.81824 0.35298 0.0
H638 H 0.00849 0.87958 0.90235 0.0
H639 H 0.97667 0.81258 0.8644 0.0
H640 H 0.84474 0.70749 0.91677 0.0
H641 H 0.87756 0.77407 0.95536 0.0
H642 H 0.87991 0.65485 0.89169 0.0
H643 H 0.8348 0.77987 0.8601 0.0
H644 H 0.84842 0.86693 0.84746 0.0
H645 H 0.95301 0.8812 0.78017 0.0
H646 H 0.94092 0.7947 0.79279 0.0
H647 H 0.7196 0.50658 0.76636 0.0
H648 H 0.76234 0.59545 0.78743 0.0
H649 H 0.90515 0.59212 0.80083 0.0
H650 H 0.8621 0.50297 0.78066 0.0
H651 H 0.85812 0.69934 0.7914 0.0
H652 H 0.9205 0.59322 0.87155 0.0
H653 H 0.89548 0.50218 0.88408 0.0
H654 H 0.73625 0.44636 0.85612 0.0
H655 H 0.76024 0.53707 0.84379 0.0
C656 C 0.97297 0.84194 0.90591 0.0
C657 C 0.94531 0.832 0.93176 0.0
C658 C 0.95456 0.80392 0.88407 0.0
C659 C 0.90757 0.7556 0.8874 0.0
C660 C 0.88092 0.74474 0.91365 0.0
C661 C 0.89979 0.7826 0.93575 0.0
C662 C 0.8868 0.71606 0.86369 0.0
C663 C 0.87519 0.66484 0.86984 0.0
C664 C 0.8797 0.72867 0.83514 0.0
C665 C 0.88737 0.78096 0.82762 0.0
C666 C 0.86114 0.80178 0.8428 0.0
C667 C 0.86854 0.85103 0.83562 0.0
C668 C 0.90168 0.87965 0.81309 0.0
C669 C 0.92745 0.85905 0.79767 0.0
C670 C 0.92035 0.80991 0.80484 0.0
C671 C 0.76103 0.52615 0.77226 0.0
C672 C 0.78752 0.49807 0.77253 0.0
C673 C 0.78541 0.57688 0.7843 0.0
C674 C 0.83628 0.59941 0.79637 0.0
C675 C 0.86559 0.57489 0.79193 0.0
C676 C 0.84106 0.52407 0.78036 0.0
C677 C 0.85293 0.63935 0.81956 0.0
C678 C 0.86334 0.69008 0.81332 0.0
C679 C 0.85739 0.62615 0.84829 0.0
C680 C 0.84231 0.57177 0.8565 0.0
C681 C 0.88013 0.56151 0.86823 0.0
C682 C 0.86613 0.50998 0.87526 0.0
C683 C 0.81435 0.46849 0.87081 0.0
C684 C 0.77637 0.47849 0.85949 0.0
C685 C 0.79016 0.52992 0.85244 0.0
H686 H 0.80364 0.42862 0.87618 0.0
H687 H 0.90729 0.91772 0.80753 0.0
loop_
_geom_bond_atom_site_label_1
_geom_bond_atom_site_label_2
_geom_bond_distance
_geom_bond_site_symmetry_2
_ccdc_geom_bond_type
O0 Zn1 1.953 1_545 S
O0 C16 1.225 . S
Zn1 O0 1.953 1_565 S
Zn1 O2 1.949 1_566 S
Zn1 O8 1.919 1_455 S
Zn1 O13 1.924 1_465 S
O2 Zn1 1.949 1_544 S
O2 Zn3 1.923 1_445 S
O2 Zn4 1.950 . S
O2 Zn5 1.945 1_455 S
Zn3 O2 1.923 1_665 S
Zn3 O6 1.933 . S
Zn3 O9 1.941 1_554 S
Zn3 O10 1.965 1_655 S
Zn4 O2 1.950 . S
Zn4 O11 1.938 . S
Zn4 O12 1.906 . S
Zn4 O22 1.953 1_554 S
Zn5 O2 1.945 1_655 S
Zn5 O7 1.932 1_545 S
Zn5 O14 1.977 1_655 S
Zn5 O15 1.910 1_554 S
O6 Zn3 1.933 . S
O6 C17 1.226 . S
O7 Zn5 1.932 1_565 S
O7 C17 1.307 . S
O8 Zn1 1.919 1_655 S
O8 C19 1.253 . S
O9 Zn3 1.941 1_556 S
O9 C19 1.283 . S
O10 Zn3 1.965 1_455 S
O10 C18 1.303 . S
O11 Zn4 1.938 . S
O11 C18 1.247 1_545 S
O12 Zn4 1.906 . S
O12 C20 1.304 . S
O13 Zn1 1.924 1_645 S
O13 C21 1.311 . S
O14 Zn5 1.977 1_455 S
O14 C20 1.272 . S
O15 Zn5 1.910 1_556 S
O15 C21 1.231 . S
C16 O0 1.225 . S
C16 O22 1.298 . S
C17 O6 1.226 . S
C17 O7 1.307 . S
C18 O10 1.303 . S
C18 O11 1.247 1_565 S
C19 O8 1.253 . S
C19 O9 1.283 . S
C20 O12 1.304 . S
C20 O14 1.272 . S
C21 O13 1.311 . S
C21 O15 1.231 . S
O22 Zn4 1.953 1_556 S
O22 C16 1.298 . S
O23 Zn24 1.953 . S
O23 C39 1.225 . S
Zn24 O23 1.953 . S
Zn24 O25 1.971 . S
Zn24 O31 1.919 1_455 S
Zn24 O36 1.924 . S
O25 Zn24 1.971 . S
O25 Zn26 1.920 1_445 S
O25 Zn27 1.949 . S
O25 Zn28 1.927 1_545 S
Zn26 O25 1.920 1_665 S
Zn26 O29 1.933 . S
Zn26 O32 1.941 . S
Zn26 O33 1.965 . S
Zn27 O25 1.949 . S
Zn27 O34 1.938 1_445 S
Zn27 O35 1.906 1_545 S
Zn27 O45 1.953 . S
Zn28 O25 1.927 1_565 S
Zn28 O30 1.932 . S
Zn28 O37 1.977 . S
Zn28 O38 1.910 1_565 S
O29 Zn26 1.933 . S
O29 C40 1.226 . S
O30 Zn28 1.932 . S
O30 C40 1.309 1_455 S
O31 Zn24 1.919 1_655 S
O31 C42 1.253 . S
O32 Zn26 1.941 . S
O32 C42 1.283 1_565 S
O33 Zn26 1.965 . S
O33 C41 1.303 . S
O34 Zn27 1.938 1_665 S
O34 C41 1.247 . S
O35 Zn27 1.906 1_565 S
O35 C43 1.304 . S
O36 Zn24 1.924 . S
O36 C44 1.311 . S
O37 Zn28 1.977 . S
O37 C43 1.272 . S
O38 Zn28 1.910 1_545 S
O38 C44 1.231 . S
C39 O23 1.225 . S
C39 O45 1.298 . S
C40 O29 1.226 . S
C40 O30 1.309 1_655 S
C41 O33 1.303 . S
C41 O34 1.247 . S
C42 O31 1.253 . S
C42 O32 1.283 1_545 S
C43 O35 1.304 . S
C43 O37 1.272 . S
C44 O36 1.311 . S
C44 O38 1.231 . S
O45 Zn27 1.953 . S
O45 C39 1.298 . S
Zn46 O52 1.920 . S
Zn46 O58 1.898 . S
Zn46 O61 1.905 . S
Zn47 O55 1.905 . S
Zn47 O56 1.898 . S
Zn47 O64 1.920 . S
Zn48 O51 2.080 . S
Zn48 O54 2.114 . S
Zn48 O57 2.120 . S
Zn48 O59 2.120 . S
Zn48 O60 2.114 . S
Zn48 O63 2.080 . S
C49 O54 1.166 . S
C49 O55 1.182 . S
C50 O56 1.167 . S
C50 O57 1.299 . S
O51 Zn48 2.080 . S
O51 C65 1.305 . S
O52 Zn46 1.920 . S
O52 C65 1.234 . S
C53 O58 1.167 . S
C53 O59 1.299 . S
O54 Zn48 2.114 . S
O54 C49 1.166 . S
O55 Zn47 1.905 . S
O55 C49 1.182 . S
O56 Zn47 1.898 . S
O56 C50 1.167 . S
O57 Zn48 2.120 . S
O57 C50 1.299 . S
O58 Zn46 1.898 . S
O58 C53 1.167 . S
O59 Zn48 2.120 . S
O59 C53 1.299 . S
O60 Zn48 2.114 . S
O60 C62 1.166 . S
O61 Zn46 1.905 . S
O61 C62 1.182 . S
C62 O60 1.166 . S
C62 O61 1.182 . S
O63 Zn48 2.080 . S
O63 C66 1.305 . S
O64 Zn47 1.920 . S
O64 C66 1.234 . S
C65 O51 1.305 . S
C65 O52 1.234 . S
C66 O63 1.305 . S
C66 O64 1.234 . S
Zn67 O73 1.920 . S
Zn67 O79 1.898 . S
Zn67 O82 1.905 . S
Zn68 O76 1.905 . S
Zn68 O77 1.898 . S
Zn68 O85 1.920 . S
Zn69 O72 2.080 . S
Zn69 O75 2.114 . S
Zn69 O78 2.120 . S
Zn69 O80 2.120 . S
Zn69 O81 2.114 . S
Zn69 O84 2.080 . S
C70 O75 1.166 . S
C70 O76 1.182 . S
C71 O77 1.167 . S
C71 O78 1.299 . S
O72 Zn69 2.080 . S
O72 C86 1.305 . S
O73 Zn67 1.920 . S
O73 C86 1.234 . S
C74 O79 1.167 . S
C74 O80 1.299 . S
O75 Zn69 2.114 . S
O75 C70 1.166 . S
O76 Zn68 1.905 . S
O76 C70 1.182 . S
O77 Zn68 1.898 . S
O77 C71 1.167 . S
O78 Zn69 2.120 . S
O78 C71 1.299 . S
O79 Zn67 1.898 . S
O79 C74 1.167 . S
O80 Zn69 2.120 . S
O80 C74 1.299 . S
O81 Zn69 2.114 . S
O81 C83 1.166 . S
O82 Zn67 1.905 . S
O82 C83 1.182 . S
C83 O81 1.166 . S
C83 O82 1.182 . S
O84 Zn69 2.080 . S
O84 C87 1.305 . S
O85 Zn68 1.920 . S
O85 C87 1.234 . S
C86 O72 1.305 . S
C86 O73 1.234 . S
C87 O84 1.305 . S
C87 O85 1.234 . S
H88 C106 0.951 . S
H89 C108 0.951 . S
H90 C110 0.950 . S
H91 C111 0.950 . S
H92 C113 0.950 . S
H93 C116 0.950 . S
H94 C117 0.950 . S
H95 C119 0.950 1_655 S
H96 C120 0.950 . S
H97 C121 0.951 . S
H98 C123 0.951 . S
H99 C125 0.950 . S
H100 C126 0.950 . S
H101 C128 0.950 . S
H102 C131 0.950 . S
H103 C132 0.950 . S
H104 C134 0.950 . S
H105 C135 0.950 . S
C106 H88 0.951 . S
C106 C107 1.366 . S
C106 C108 1.388 . S
C107 C106 1.366 . S
C107 C111 1.385 . S
C108 H89 0.951 . S
C108 C106 1.388 . S
C108 C109 1.366 . S
C109 C108 1.366 . S
C109 C110 1.414 . S
C109 C112 1.499 . S
C110 H90 0.950 . S
C110 C109 1.414 . S
C110 C111 1.374 . S
C111 H91 0.950 . S
C111 C107 1.385 . S
C111 C110 1.374 . S
C112 C109 1.499 . S
C112 C113 1.373 . S
C112 C114 1.389 . S
C113 H92 0.950 . S
C113 C112 1.373 . S
C113 C129 1.377 . S
C114 C112 1.389 . S
C114 C115 1.524 . S
C114 C128 1.377 . S
C115 C114 1.524 . S
C115 C116 1.397 . S
C115 C120 1.363 . S
C116 H93 0.950 . S
C116 C115 1.397 . S
C116 C117 1.334 1_455 S
C117 H94 0.950 . S
C117 C116 1.334 1_655 S
C117 C118 1.287 . S
C118 C117 1.287 . S
C118 C119 1.524 1_655 S
C118 H137 0.913 . S
C119 H95 0.950 1_455 S
C119 C118 1.524 1_455 S
C119 C120 1.415 . S
C120 H96 0.950 . S
C120 C115 1.363 . S
C120 C119 1.415 . S
C121 H97 0.951 . S
C121 C122 1.366 . S
C121 C123 1.388 . S
C122 C121 1.366 . S
C122 C126 1.385 . S
C123 H98 0.951 . S
C123 C121 1.388 . S
C123 C124 1.366 . S
C124 C123 1.366 . S
C124 C125 1.414 . S
C124 C127 1.499 . S
C125 H99 0.950 . S
C125 C124 1.414 . S
C125 C126 1.374 . S
C126 H100 0.950 . S
C126 C122 1.385 . S
C126 C125 1.374 . S
C127 C124 1.499 . S
C127 C128 1.373 . S
C127 C129 1.389 . S
C128 H101 0.950 . S
C128 C114 1.377 . S
C128 C127 1.373 . S
C129 C113 1.377 . S
C129 C127 1.389 . S
C129 C130 1.524 . S
C130 C129 1.524 . S
C130 C131 1.397 . S
C130 C135 1.363 . S
C131 H102 0.950 . S
C131 C130 1.397 . S
C131 C132 1.334 . S
C132 H103 0.950 . S
C132 C131 1.334 . S
C132 C133 1.287 . S
C133 C132 1.287 . S
C133 C134 1.524 . S
C133 H136 0.999 . S
C134 H104 0.950 . S
C134 C133 1.524 . S
C134 C135 1.415 . S
C135 H105 0.950 . S
C135 C130 1.363 . S
C135 C134 1.415 . S
H136 C133 0.999 . S
H137 C118 0.913 . S
H138 C156 0.951 . S
H139 C158 0.951 . S
H140 C160 0.950 . S
H141 C161 0.950 . S
H142 C163 0.950 . S
H143 C166 0.950 . S
H144 C167 0.950 . S
H145 C169 0.950 . S
H146 C170 0.950 . S
H147 C171 0.951 . S
H148 C173 0.951 . S
H149 C175 0.950 . S
H150 C176 0.950 . S
H151 C178 0.950 . S
H152 C181 0.950 . S
H153 C182 0.950 . S
H154 C184 0.950 . S
H155 C185 0.950 . S
C156 H138 0.951 . S
C156 C157 1.366 . S
C156 C158 1.388 . S
C157 C156 1.366 . S
C157 C161 1.385 . S
C158 H139 0.951 . S
C158 C156 1.388 . S
C158 C159 1.366 . S
C159 C158 1.366 . S
C159 C160 1.414 . S
C159 C162 1.499 . S
C160 H140 0.950 . S
C160 C159 1.414 . S
C160 C161 1.374 . S
C161 H141 0.950 . S
C161 C157 1.385 . S
C161 C160 1.374 . S
C162 C159 1.499 . S
C162 C163 1.373 . S
C162 C164 1.389 . S
C163 H142 0.950 . S
C163 C162 1.373 . S
C163 C179 1.377 . S
C164 C162 1.389 . S
C164 C165 1.524 . S
C164 C178 1.377 . S
C165 C164 1.524 . S
C165 C166 1.397 . S
C165 C170 1.363 . S
C166 H143 0.950 . S
C166 C165 1.397 . S
C166 C167 1.334 . S
C167 H144 0.950 . S
C167 C166 1.334 . S
C167 C168 1.287 . S
C168 C167 1.287 . S
C168 C169 1.524 . S
C168 H187 0.913 . S
C169 H145 0.950 . S
C169 C168 1.524 . S
C169 C170 1.415 . S
C170 H146 0.950 . S
C170 C165 1.363 . S
C170 C169 1.415 . S
C171 H147 0.951 . S
C171 C172 1.366 . S
C171 C173 1.388 . S
C172 C171 1.366 . S
C172 C176 1.385 . S
C173 H148 0.951 . S
C173 C171 1.388 . S
C173 C174 1.366 . S
C174 C173 1.366 . S
C174 C175 1.414 . S
C174 C177 1.499 . S
C175 H149 0.950 . S
C175 C174 1.414 . S
C175 C176 1.374 . S
C176 H150 0.950 . S
C176 C172 1.385 . S
C176 C175 1.374 . S
C177 C174 1.499 . S
C177 C178 1.373 . S
C177 C179 1.389 . S
C178 H151 0.950 . S
C178 C164 1.377 . S
C178 C177 1.373 . S
C179 C163 1.377 . S
C179 C177 1.389 . S
C179 C180 1.524 . S
C180 C179 1.524 . S
C180 C181 1.397 . S
C180 C185 1.363 . S
C181 H152 0.950 . S
C181 C180 1.397 . S
C181 C182 1.334 . S
C182 H153 0.950 . S
C182 C181 1.334 . S
C182 C183 1.287 . S
C183 C182 1.287 . S
C183 C184 1.524 . S
C183 H186 0.999 . S
C184 H154 0.950 . S
C184 C183 1.524 . S
C184 C185 1.415 . S
C185 H155 0.950 . S
C185 C180 1.363 . S
C185 C184 1.415 . S
H186 C183 0.999 . S
H187 C168 0.913 . S
H188 C206 0.951 . S
H189 C208 0.951 . S
H190 C210 0.950 . S
H191 C211 0.950 . S
H192 C213 0.950 . S
H193 C216 0.950 . S
H194 C217 0.950 . S
H195 C219 0.950 . S
H196 C220 0.950 . S
H197 C221 0.951 . S
H198 C223 0.951 . S
H199 C225 0.950 . S
H200 C226 0.950 . S
H201 C228 0.950 . S
H202 C231 0.950 . S
H203 C232 0.950 . S
H204 C234 0.950 . S
H205 C235 0.950 . S
C206 H188 0.951 . S
C206 C207 1.366 . S
C206 C208 1.388 . S
C207 C206 1.366 . S
C207 C211 1.385 . S
C208 H189 0.951 . S
C208 C206 1.388 . S
C208 C209 1.366 . S
C209 C208 1.366 . S
C209 C210 1.414 . S
C209 C212 1.499 . S
C210 H190 0.950 . S
C210 C209 1.414 . S
C210 C211 1.374 . S
C211 H191 0.950 . S
C211 C207 1.385 . S
C211 C210 1.374 . S
C212 C209 1.499 . S
C212 C213 1.373 . S
C212 C214 1.389 . S
C213 H192 0.950 . S
C213 C212 1.373 . S
C213 C229 1.377 . S
C214 C212 1.389 . S
C214 C215 1.524 . S
C214 C228 1.377 . S
C215 C214 1.524 . S
C215 C216 1.397 . S
C215 C220 1.363 . S
C216 H193 0.950 . S
C216 C215 1.397 . S
C216 C217 1.334 . S
C217 H194 0.950 . S
C217 C216 1.334 . S
C217 C218 1.287 . S
C218 C217 1.287 . S
C218 C219 1.524 . S
C218 H237 0.913 . S
C219 H195 0.950 . S
C219 C218 1.524 . S
C219 C220 1.415 . S
C220 H196 0.950 . S
C220 C215 1.363 . S
C220 C219 1.415 . S
C221 H197 0.951 . S
C221 C222 1.366 . S
C221 C223 1.388 . S
C222 C221 1.366 . S
C222 C226 1.385 . S
C223 H198 0.951 . S
C223 C221 1.388 . S
C223 C224 1.366 . S
C224 C223 1.366 . S
C224 C225 1.414 . S
C224 C227 1.499 . S
C225 H199 0.950 . S
C225 C224 1.414 . S
C225 C226 1.374 . S
C226 H200 0.950 . S
C226 C222 1.385 . S
C226 C225 1.374 . S
C227 C224 1.499 . S
C227 C228 1.373 . S
C227 C229 1.389 . S
C228 H201 0.950 . S
C228 C214 1.377 . S
C228 C227 1.373 . S
C229 C213 1.377 . S
C229 C227 1.389 . S
C229 C230 1.524 . S
C230 C229 1.524 . S
C230 C231 1.397 . S
C230 C235 1.363 . S
C231 H202 0.950 . S
C231 C230 1.397 . S
C231 C232 1.334 . S
C232 H203 0.950 . S
C232 C231 1.334 . S
C232 C233 1.287 . S
C233 C232 1.287 . S
C233 C234 1.524 . S
C233 H236 0.999 . S
C234 H204 0.950 . S
C234 C233 1.524 . S
C234 C235 1.415 . S
C235 H205 0.950 . S
C235 C230 1.363 . S
C235 C234 1.415 . S
H236 C233 0.999 . S
H237 C218 0.913 . S
H238 C256 0.951 . S
H239 C258 0.951 . S
H240 C260 0.950 . S
H241 C261 0.950 . S
H242 C263 0.950 . S
H243 C266 0.950 . S
H244 C267 0.950 . S
H245 C269 0.950 . S
H246 C270 0.950 . S
H247 C271 0.951 . S
H248 C273 0.951 . S
H249 C275 0.950 . S
H250 C276 0.950 . S
H251 C278 0.950 . S
H252 C281 0.950 . S
H253 C282 0.950 . S
H254 C284 0.950 . S
H255 C285 0.950 . S
C256 H238 0.951 . S
C256 C257 1.366 . S
C256 C258 1.388 . S
C257 C256 1.366 . S
C257 C261 1.385 . S
C258 H239 0.951 . S
C258 C256 1.388 . S
C258 C259 1.366 . S
C259 C258 1.366 . S
C259 C260 1.414 . S
C259 C262 1.499 . S
C260 H240 0.950 . S
C260 C259 1.414 . S
C260 C261 1.374 . S
C261 H241 0.950 . S
C261 C257 1.385 . S
C261 C260 1.374 . S
C262 C259 1.499 . S
C262 C263 1.373 . S
C262 C264 1.389 . S
C263 H242 0.950 . S
C263 C262 1.373 . S
C263 C279 1.377 . S
C264 C262 1.389 . S
C264 C265 1.524 . S
C264 C278 1.377 . S
C265 C264 1.524 . S
C265 C266 1.397 . S
C265 C270 1.363 . S
C266 H243 0.950 . S
C266 C265 1.397 . S
C266 C267 1.334 1_545 S
C267 H244 0.950 . S
C267 C266 1.334 1_565 S
C267 C268 1.287 . S
C268 C267 1.287 . S
C268 C269 1.524 1_565 S
C268 H287 0.913 . S
C269 H245 0.950 . S
C269 C268 1.524 1_545 S
C269 C270 1.415 . S
C270 H246 0.950 . S
C270 C265 1.363 . S
C270 C269 1.415 . S
C271 H247 0.951 . S
C271 C272 1.366 . S
C271 C273 1.388 . S
C272 C271 1.366 . S
C272 C276 1.385 . S
C273 H248 0.951 . S
C273 C271 1.388 . S
C273 C274 1.366 . S
C274 C273 1.366 . S
C274 C275 1.414 . S
C274 C277 1.499 . S
C275 H249 0.950 . S
C275 C274 1.414 . S
C275 C276 1.374 . S
C276 H250 0.950 . S
C276 C272 1.385 . S
C276 C275 1.374 . S
C277 C274 1.499 . S
C277 C278 1.373 . S
C277 C279 1.389 . S
C278 H251 0.950 . S
C278 C264 1.377 . S
C278 C277 1.373 . S
C279 C263 1.377 . S
C279 C277 1.389 . S
C279 C280 1.524 . S
C280 C279 1.524 . S
C280 C281 1.397 . S
C280 C285 1.363 . S
C281 H252 0.950 . S
C281 C280 1.397 . S
C281 C282 1.334 . S
C282 H253 0.950 . S
C282 C281 1.334 . S
C282 C283 1.287 . S
C283 C282 1.287 . S
C283 C284 1.524 . S
C283 H286 0.999 . S
C284 H254 0.950 . S
C284 C283 1.524 . S
C284 C285 1.415 . S
C285 H255 0.950 . S
C285 C280 1.363 . S
C285 C284 1.415 . S
H286 C283 0.999 . S
H287 C268 0.913 . S
H288 C306 0.951 . S
H289 C308 0.951 . S
H290 C310 0.950 . S
H291 C311 0.950 . S
H292 C313 0.950 . S
H293 C316 0.950 . S
H294 C317 0.950 . S
H295 C319 0.950 . S
H296 C320 0.950 . S
H297 C321 0.951 . S
H298 C323 0.951 . S
H299 C325 0.950 . S
H300 C326 0.950 . S
H301 C328 0.950 . S
H302 C331 0.950 . S
H303 C332 0.950 . S
H304 C334 0.950 . S
H305 C335 0.950 . S
C306 H288 0.951 . S
C306 C307 1.366 . S
C306 C308 1.388 . S
C307 C306 1.366 . S
C307 C311 1.385 . S
C308 H289 0.951 . S
C308 C306 1.388 . S
C308 C309 1.366 . S
C309 C308 1.366 . S
C309 C310 1.414 . S
C309 C312 1.499 . S
C310 H290 0.950 . S
C310 C309 1.414 . S
C310 C311 1.374 . S
C311 H291 0.950 . S
C311 C307 1.385 . S
C311 C310 1.374 . S
C312 C309 1.499 . S
C312 C313 1.373 . S
C312 C314 1.389 . S
C313 H292 0.950 . S
C313 C312 1.373 . S
C313 C329 1.377 . S
C314 C312 1.389 . S
C314 C315 1.524 . S
C314 C328 1.377 . S
C315 C314 1.524 . S
C315 C316 1.397 . S
C315 C320 1.363 . S
C316 H293 0.950 . S
C316 C315 1.397 . S
C316 C317 1.334 1_565 S
C317 H294 0.950 . S
C317 C316 1.334 1_545 S
C317 C318 1.287 . S
C318 C317 1.287 . S
C318 C319 1.524 . S
C318 H337 0.913 . S
C319 H295 0.950 . S
C319 C318 1.524 . S
C319 C320 1.415 1_545 S
C320 H296 0.950 . S
C320 C315 1.363 . S
C320 C319 1.415 1_565 S
C321 H297 0.951 . S
C321 C322 1.366 . S
C321 C323 1.388 . S
C322 C321 1.366 . S
C322 C326 1.385 . S
C323 H298 0.951 . S
C323 C321 1.388 . S
C323 C324 1.366 . S
C324 C323 1.366 . S
C324 C325 1.414 . S
C324 C327 1.499 . S
C325 H299 0.950 . S
C325 C324 1.414 . S
C325 C326 1.374 . S
C326 H300 0.950 . S
C326 C322 1.385 . S
C326 C325 1.374 . S
C327 C324 1.499 . S
C327 C328 1.373 . S
C327 C329 1.389 . S
C328 H301 0.950 . S
C328 C314 1.377 . S
C328 C327 1.373 . S
C329 C313 1.377 . S
C329 C327 1.389 . S
C329 C330 1.524 . S
C330 C329 1.524 . S
C330 C331 1.397 . S
C330 C335 1.363 . S
C331 H302 0.950 . S
C331 C330 1.397 . S
C331 C332 1.334 . S
C332 H303 0.950 . S
C332 C331 1.334 . S
C332 C333 1.287 . S
C333 C332 1.287 . S
C333 C334 1.524 . S
C333 H336 0.999 . S
C334 H304 0.950 . S
C334 C333 1.524 . S
C334 C335 1.415 . S
C335 H305 0.950 . S
C335 C330 1.363 . S
C335 C334 1.415 . S
H336 C333 0.999 . S
H337 C318 0.913 . S
H338 C356 0.951 . S
H339 C358 0.951 . S
H340 C360 0.950 . S
H341 C361 0.950 . S
H342 C363 0.950 . S
H343 C366 0.950 . S
H344 C367 0.950 1_455 S
H345 C369 0.950 . S
H346 C370 0.950 . S
H347 C371 0.951 . S
H348 C373 0.951 . S
H349 C375 0.950 . S
H350 C376 0.950 . S
H351 C378 0.950 . S
H352 C381 0.950 . S
H353 C382 0.950 . S
H354 C384 0.950 . S
H355 C385 0.950 . S
C356 H338 0.951 . S
C356 C357 1.366 . S
C356 C358 1.388 . S
C357 C356 1.366 . S
C357 C361 1.385 . S
C358 H339 0.951 . S
C358 C356 1.388 . S
C358 C359 1.366 . S
C359 C358 1.366 . S
C359 C360 1.414 . S
C359 C362 1.499 . S
C360 H340 0.950 . S
C360 C359 1.414 . S
C360 C361 1.374 . S
C361 H341 0.950 . S
C361 C357 1.385 . S
C361 C360 1.374 . S
C362 C359 1.499 . S
C362 C363 1.373 . S
C362 C364 1.389 . S
C363 H342 0.950 . S
C363 C362 1.373 . S
C363 C379 1.377 . S
C364 C362 1.389 . S
C364 C365 1.524 . S
C364 C378 1.377 . S
C365 C364 1.524 . S
C365 C366 1.397 . S
C365 C370 1.363 . S
C366 H343 0.950 . S
C366 C365 1.397 . S
C366 C367 1.334 . S
C367 H344 0.950 1_655 S
C367 C366 1.334 . S
C367 C368 1.287 . S
C368 C367 1.287 . S
C368 C369 1.524 . S
C368 H387 0.913 . S
C369 H345 0.950 . S
C369 C368 1.524 . S
C369 C370 1.415 . S
C370 H346 0.950 . S
C370 C365 1.363 . S
C370 C369 1.415 . S
C371 H347 0.951 . S
C371 C372 1.366 . S
C371 C373 1.388 . S
C372 C371 1.366 . S
C372 C376 1.385 . S
C373 H348 0.951 . S
C373 C371 1.388 . S
C373 C374 1.366 . S
C374 C373 1.366 . S
C374 C375 1.414 . S
C374 C377 1.499 . S
C375 H349 0.950 . S
C375 C374 1.414 . S
C375 C376 1.374 . S
C376 H350 0.950 . S
C376 C372 1.385 . S
C376 C375 1.374 . S
C377 C374 1.499 . S
C377 C378 1.373 . S
C377 C379 1.389 . S
C378 H351 0.950 . S
C378 C364 1.377 . S
C378 C377 1.373 . S
C379 C363 1.377 . S
C379 C377 1.389 . S
C379 C380 1.524 . S
C380 C379 1.524 . S
C380 C381 1.397 . S
C380 C385 1.363 . S
C381 H352 0.950 . S
C381 C380 1.397 . S
C381 C382 1.334 . S
C382 H353 0.950 . S
C382 C381 1.334 . S
C382 C383 1.287 . S
C383 C382 1.287 . S
C383 C384 1.524 . S
C383 H386 0.999 . S
C384 H354 0.950 . S
C384 C383 1.524 . S
C384 C385 1.415 . S
C385 H355 0.950 . S
C385 C380 1.363 . S
C385 C384 1.415 . S
H386 C383 0.999 . S
H387 C368 0.913 . S
H388 C406 0.951 . S
H389 C408 0.951 . S
H390 C410 0.950 . S
H391 C411 0.950 . S
H392 C413 0.950 . S
H393 C416 0.950 . S
H394 C417 0.950 . S
H395 C419 0.950 . S
H396 C420 0.950 . S
H397 C421 0.951 . S
H398 C423 0.951 . S
H399 C425 0.950 . S
H400 C426 0.950 . S
H401 C428 0.950 . S
H402 C431 0.950 . S
H403 C432 0.950 . S
H404 C434 0.950 . S
H405 C435 0.950 . S
C406 H388 0.951 . S
C406 C407 1.366 . S
C406 C408 1.388 . S
C407 C406 1.366 . S
C407 C411 1.385 . S
C408 H389 0.951 . S
C408 C406 1.388 . S
C408 C409 1.366 . S
C409 C408 1.366 . S
C409 C410 1.414 . S
C409 C412 1.499 . S
C410 H390 0.950 . S
C410 C409 1.414 . S
C410 C411 1.374 . S
C411 H391 0.950 . S
C411 C407 1.385 . S
C411 C410 1.374 . S
C412 C409 1.499 . S
C412 C413 1.373 . S
C412 C414 1.389 . S
C413 H392 0.950 . S
C413 C412 1.373 . S
C413 C429 1.377 . S
C414 C412 1.389 . S
C414 C415 1.524 . S
C414 C428 1.377 . S
C415 C414 1.524 . S
C415 C416 1.397 . S
C415 C420 1.363 . S
C416 H393 0.950 . S
C416 C415 1.397 . S
C416 C417 1.334 1_455 S
C417 H394 0.950 . S
C417 C416 1.334 1_655 S
C417 C418 1.287 . S
C418 C417 1.287 . S
C418 C419 1.524 1_655 S
C418 H437 0.913 . S
C419 H395 0.950 . S
C419 C418 1.524 1_455 S
C419 C420 1.415 . S
C420 H396 0.950 . S
C420 C415 1.363 . S
C420 C419 1.415 . S
C421 H397 0.951 . S
C421 C422 1.366 . S
C421 C423 1.388 . S
C422 C421 1.366 . S
C422 C426 1.385 . S
C423 H398 0.951 . S
C423 C421 1.388 . S
C423 C424 1.366 . S
C424 C423 1.366 . S
C424 C425 1.414 . S
C424 C427 1.499 . S
C425 H399 0.950 . S
C425 C424 1.414 . S
C425 C426 1.374 . S
C426 H400 0.950 . S
C426 C422 1.385 . S
C426 C425 1.374 . S
C427 C424 1.499 . S
C427 C428 1.373 . S
C427 C429 1.389 . S
C428 H401 0.950 . S
C428 C414 1.377 . S
C428 C427 1.373 . S
C429 C413 1.377 . S
C429 C427 1.389 . S
C429 C430 1.524 . S
C430 C429 1.524 . S
C430 C431 1.397 . S
C430 C435 1.363 . S
C431 H402 0.950 . S
C431 C430 1.397 . S
C431 C432 1.334 . S
C432 H403 0.950 . S
C432 C431 1.334 . S
C432 C433 1.287 . S
C433 C432 1.287 . S
C433 C434 1.524 . S
C433 H436 0.999 . S
C434 H404 0.950 . S
C434 C433 1.524 . S
C434 C435 1.415 . S
C435 H405 0.950 . S
C435 C430 1.363 . S
C435 C434 1.415 . S
H436 C433 0.999 . S
H437 C418 0.913 . S
H438 C456 0.951 . S
H439 C458 0.951 . S
H440 C460 0.950 . S
H441 C461 0.950 . S
H442 C463 0.950 . S
H443 C466 0.950 . S
H444 C467 0.950 . S
H445 C469 0.950 . S
H446 C470 0.950 . S
H447 C471 0.951 . S
H448 C473 0.951 . S
H449 C475 0.950 . S
H450 C476 0.950 . S
H451 C478 0.950 . S
H452 C481 0.950 . S
H453 C482 0.950 . S
H454 C484 0.950 . S
H455 C485 0.950 . S
C456 H438 0.951 . S
C456 C457 1.366 . S
C456 C458 1.388 . S
C457 C456 1.366 . S
C457 C461 1.385 . S
C458 H439 0.951 . S
C458 C456 1.388 . S
C458 C459 1.366 . S
C459 C458 1.366 . S
C459 C460 1.414 . S
C459 C462 1.499 . S
C460 H440 0.950 . S
C460 C459 1.414 . S
C460 C461 1.374 . S
C461 H441 0.950 . S
C461 C457 1.385 . S
C461 C460 1.374 . S
C462 C459 1.499 . S
C462 C463 1.373 . S
C462 C464 1.389 . S
C463 H442 0.950 . S
C463 C462 1.373 . S
C463 C479 1.377 . S
C464 C462 1.389 . S
C464 C465 1.524 . S
C464 C478 1.377 . S
C465 C464 1.524 . S
C465 C466 1.397 . S
C465 C470 1.363 . S
C466 H443 0.950 . S
C466 C465 1.397 . S
C466 C467 1.334 . S
C467 H444 0.950 . S
C467 C466 1.334 . S
C467 C468 1.287 . S
C468 C467 1.287 . S
C468 C469 1.524 . S
C468 H487 0.913 . S
C469 H445 0.950 . S
C469 C468 1.524 . S
C469 C470 1.415 . S
C470 H446 0.950 . S
C470 C465 1.363 . S
C470 C469 1.415 . S
C471 H447 0.951 . S
C471 C472 1.366 . S
C471 C473 1.388 . S
C472 C471 1.366 . S
C472 C476 1.385 . S
C473 H448 0.951 . S
C473 C471 1.388 . S
C473 C474 1.366 . S
C474 C473 1.366 . S
C474 C475 1.414 . S
C474 C477 1.499 . S
C475 H449 0.950 . S
C475 C474 1.414 . S
C475 C476 1.374 . S
C476 H450 0.950 . S
C476 C472 1.385 . S
C476 C475 1.374 . S
C477 C474 1.499 . S
C477 C478 1.373 . S
C477 C479 1.389 . S
C478 H451 0.950 . S
C478 C464 1.377 . S
C478 C477 1.373 . S
C479 C463 1.377 . S
C479 C477 1.389 . S
C479 C480 1.524 . S
C480 C479 1.524 . S
C480 C481 1.397 . S
C480 C485 1.363 . S
C481 H452 0.950 . S
C481 C480 1.397 . S
C481 C482 1.334 . S
C482 H453 0.950 . S
C482 C481 1.334 . S
C482 C483 1.287 . S
C483 C482 1.287 . S
C483 C484 1.524 . S
C483 H486 0.999 . S
C484 H454 0.950 . S
C484 C483 1.524 . S
C484 C485 1.415 . S
C485 H455 0.950 . S
C485 C480 1.363 . S
C485 C484 1.415 . S
H486 C483 0.999 . S
H487 C468 0.913 . S
H488 C506 0.951 . S
H489 C508 0.951 . S
H490 C510 0.950 . S
H491 C511 0.950 . S
H492 C513 0.950 . S
H493 C516 0.950 . S
H494 C517 0.950 . S
H495 C519 0.950 . S
H496 C520 0.950 . S
H497 C521 0.951 . S
H498 C523 0.951 . S
H499 C525 0.950 . S
H500 C526 0.950 . S
H501 C528 0.950 . S
H502 C531 0.950 . S
H503 C532 0.950 . S
H504 C534 0.950 . S
H505 C535 0.950 . S
C506 H488 0.951 . S
C506 C507 1.366 . S
C506 C508 1.388 . S
C507 C506 1.366 . S
C507 C511 1.385 . S
C508 H489 0.951 . S
C508 C506 1.388 . S
C508 C509 1.366 . S
C509 C508 1.366 . S
C509 C510 1.414 . S
C509 C512 1.499 . S
C510 H490 0.950 . S
C510 C509 1.414 . S
C510 C511 1.374 . S
C511 H491 0.950 . S
C511 C507 1.385 . S
C511 C510 1.374 . S
C512 C509 1.499 . S
C512 C513 1.373 . S
C512 C514 1.389 . S
C513 H492 0.950 . S
C513 C512 1.373 . S
C513 C529 1.377 . S
C514 C512 1.389 . S
C514 C515 1.524 . S
C514 C528 1.377 . S
C515 C514 1.524 . S
C515 C516 1.397 . S
C515 C520 1.363 . S
C516 H493 0.950 . S
C516 C515 1.397 . S
C516 C517 1.334 1_455 S
C517 H494 0.950 . S
C517 C516 1.334 1_655 S
C517 C518 1.287 . S
C518 C517 1.287 . S
C518 C519 1.524 . S
C518 H537 0.913 . S
C519 H495 0.950 . S
C519 C518 1.524 . S
C519 C520 1.415 1_655 S
C520 H496 0.950 . S
C520 C515 1.363 . S
C520 C519 1.415 1_455 S
C521 H497 0.951 . S
C521 C522 1.366 . S
C521 C523 1.388 . S
C522 C521 1.366 . S
C522 C526 1.385 . S
C523 H498 0.951 . S
C523 C521 1.388 . S
C523 C524 1.366 . S
C524 C523 1.366 . S
C524 C525 1.414 . S
C524 C527 1.499 . S
C525 H499 0.950 . S
C525 C524 1.414 . S
C525 C526 1.374 . S
C526 H500 0.950 . S
C526 C522 1.385 . S
C526 C525 1.374 . S
C527 C524 1.499 . S
C527 C528 1.373 . S
C527 C529 1.389 . S
C528 H501 0.950 . S
C528 C514 1.377 . S
C528 C527 1.373 . S
C529 C513 1.377 . S
C529 C527 1.389 . S
C529 C530 1.524 . S
C530 C529 1.524 . S
C530 C531 1.397 . S
C530 C535 1.363 . S
C531 H502 0.950 . S
C531 C530 1.397 . S
C531 C532 1.334 . S
C532 H503 0.950 . S
C532 C531 1.334 . S
C532 C533 1.287 . S
C533 C532 1.287 . S
C533 C534 1.524 . S
C533 H536 0.999 . S
C534 H504 0.950 . S
C534 C533 1.524 . S
C534 C535 1.415 . S
C535 H505 0.950 . S
C535 C530 1.363 . S
C535 C534 1.415 . S
H536 C533 0.999 . S
H537 C518 0.913 . S
H538 C556 0.951 . S
H539 C558 0.951 . S
H540 C560 0.950 . S
H541 C561 0.950 . S
H542 C563 0.950 . S
H543 C566 0.950 . S
H544 C567 0.950 . S
H545 C569 0.950 . S
H546 C570 0.950 . S
H547 C571 0.951 . S
H548 C573 0.951 . S
H549 C575 0.950 . S
H550 C576 0.950 . S
H551 C578 0.950 . S
H552 C581 0.950 . S
H553 C582 0.950 . S
H554 C584 0.950 . S
H555 C585 0.950 . S
C556 H538 0.951 . S
C556 C557 1.366 . S
C556 C558 1.388 . S
C557 C556 1.366 . S
C557 C561 1.385 . S
C558 H539 0.951 . S
C558 C556 1.388 . S
C558 C559 1.366 . S
C559 C558 1.366 . S
C559 C560 1.414 . S
C559 C562 1.499 . S
C560 H540 0.950 . S
C560 C559 1.414 . S
C560 C561 1.374 . S
C561 H541 0.950 . S
C561 C557 1.385 . S
C561 C560 1.374 . S
C562 C559 1.499 . S
C562 C563 1.373 . S
C562 C564 1.389 . S
C563 H542 0.950 . S
C563 C562 1.373 . S
C563 C579 1.377 . S
C564 C562 1.389 . S
C564 C565 1.524 . S
C564 C578 1.377 . S
C565 C564 1.524 . S
C565 C566 1.397 . S
C565 C570 1.363 . S
C566 H543 0.950 . S
C566 C565 1.397 . S
C566 C567 1.334 1_545 S
C567 H544 0.950 . S
C567 C566 1.334 1_565 S
C567 C568 1.287 . S
C568 C567 1.287 . S
C568 C569 1.524 1_565 S
C568 H587 0.913 . S
C569 H545 0.950 . S
C569 C568 1.524 1_545 S
C569 C570 1.415 . S
C570 H546 0.950 . S
C570 C565 1.363 . S
C570 C569 1.415 . S
C571 H547 0.951 . S
C571 C572 1.366 . S
C571 C573 1.388 . S
C572 C571 1.366 . S
C572 C576 1.385 . S
C573 H548 0.951 . S
C573 C571 1.388 . S
C573 C574 1.366 . S
C574 C573 1.366 . S
C574 C575 1.414 . S
C574 C577 1.499 . S
C575 H549 0.950 . S
C575 C574 1.414 . S
C575 C576 1.374 . S
C576 H550 0.950 . S
C576 C572 1.385 . S
C576 C575 1.374 . S
C577 C574 1.499 . S
C577 C578 1.373 . S
C577 C579 1.389 . S
C578 H551 0.950 . S
C578 C564 1.377 . S
C578 C577 1.373 . S
C579 C563 1.377 . S
C579 C577 1.389 . S
C579 C580 1.524 . S
C580 C579 1.524 . S
C580 C581 1.397 . S
C580 C585 1.363 . S
C581 H552 0.950 . S
C581 C580 1.397 . S
C581 C582 1.334 . S
C582 H553 0.950 . S
C582 C581 1.334 . S
C582 C583 1.287 . S
C583 C582 1.287 . S
C583 C584 1.524 . S
C583 H586 0.999 . S
C584 H554 0.950 . S
C584 C583 1.524 . S
C584 C585 1.415 . S
C585 H555 0.950 . S
C585 C580 1.363 . S
C585 C584 1.415 . S
H586 C583 0.999 . S
H587 C568 0.913 . S
H588 C606 0.951 . S
H589 C608 0.951 . S
H590 C610 0.950 . S
H591 C611 0.950 1_545 S
H592 C613 0.950 . S
H593 C616 0.950 . S
H594 C617 0.950 . S
H595 C619 0.950 . S
H596 C620 0.950 . S
H597 C621 0.951 . S
H598 C623 0.951 . S
H599 C625 0.950 . S
H600 C626 0.950 . S
H601 C628 0.950 . S
H602 C631 0.950 . S
H603 C632 0.950 . S
H604 C634 0.950 . S
H605 C635 0.950 . S
C606 H588 0.951 . S
C606 C607 1.366 . S
C606 C608 1.388 . S
C607 C606 1.366 . S
C607 C611 1.385 . S
C608 H589 0.951 . S
C608 C606 1.388 . S
C608 C609 1.366 . S
C609 C608 1.366 . S
C609 C610 1.414 . S
C609 C612 1.499 . S
C610 H590 0.950 . S
C610 C609 1.414 . S
C610 C611 1.374 . S
C611 H591 0.950 1_565 S
C611 C607 1.385 . S
C611 C610 1.374 . S
C612 C609 1.499 . S
C612 C613 1.373 . S
C612 C614 1.389 . S
C613 H592 0.950 . S
C613 C612 1.373 . S
C613 C629 1.377 . S
C614 C612 1.389 . S
C614 C615 1.524 . S
C614 C628 1.377 . S
C615 C614 1.524 . S
C615 C616 1.397 . S
C615 C620 1.363 . S
C616 H593 0.950 . S
C616 C615 1.397 . S
C616 C617 1.334 . S
C617 H594 0.950 . S
C617 C616 1.334 . S
C617 C618 1.287 . S
C618 C617 1.287 . S
C618 C619 1.524 . S
C618 H637 0.913 . S
C619 H595 0.950 . S
C619 C618 1.524 . S
C619 C620 1.415 . S
C620 H596 0.950 . S
C620 C615 1.363 . S
C620 C619 1.415 . S
C621 H597 0.951 . S
C621 C622 1.366 . S
C621 C623 1.388 . S
C622 C621 1.366 . S
C622 C626 1.385 . S
C623 H598 0.951 . S
C623 C621 1.388 . S
C623 C624 1.366 . S
C624 C623 1.366 . S
C624 C625 1.414 . S
C624 C627 1.499 . S
C625 H599 0.950 . S
C625 C624 1.414 . S
C625 C626 1.374 . S
C626 H600 0.950 . S
C626 C622 1.385 . S
C626 C625 1.374 . S
C627 C624 1.499 . S
C627 C628 1.373 . S
C627 C629 1.389 . S
C628 H601 0.950 . S
C628 C614 1.377 . S
C628 C627 1.373 . S
C629 C613 1.377 . S
C629 C627 1.389 . S
C629 C630 1.524 . S
C630 C629 1.524 . S
C630 C631 1.397 . S
C630 C635 1.363 . S
C631 H602 0.950 . S
C631 C630 1.397 . S
C631 C632 1.334 . S
C632 H603 0.950 . S
C632 C631 1.334 . S
C632 C633 1.287 . S
C633 C632 1.287 . S
C633 C634 1.524 . S
C633 H636 0.999 . S
C634 H604 0.950 . S
C634 C633 1.524 . S
C634 C635 1.415 . S
C635 H605 0.950 . S
C635 C630 1.363 . S
C635 C634 1.415 . S
H636 C633 0.999 . S
H637 C618 0.913 . S
H638 C656 0.951 . S
H639 C658 0.951 . S
H640 C660 0.950 . S
H641 C661 0.950 . S
H642 C663 0.950 . S
H643 C666 0.950 . S
H644 C667 0.950 . S
H645 C669 0.950 1_455 S
H646 C670 0.950 . S
H647 C671 0.951 . S
H648 C673 0.951 . S
H649 C675 0.950 . S
H650 C676 0.950 . S
H651 C678 0.950 . S
H652 C681 0.950 . S
H653 C682 0.950 . S
H654 C684 0.950 . S
H655 C685 0.950 . S
C656 H638 0.951 . S
C656 C657 1.366 . S
C656 C658 1.388 . S
C657 C656 1.366 . S
C657 C661 1.385 . S
C658 H639 0.951 . S
C658 C656 1.388 . S
C658 C659 1.366 . S
C659 C658 1.366 . S
C659 C660 1.414 . S
C659 C662 1.499 . S
C660 H640 0.950 . S
C660 C659 1.414 . S
C660 C661 1.374 . S
C661 H641 0.950 . S
C661 C657 1.385 . S
C661 C660 1.374 . S
C662 C659 1.499 . S
C662 C663 1.373 . S
C662 C664 1.389 . S
C663 H642 0.950 . S
C663 C662 1.373 . S
C663 C679 1.377 . S
C664 C662 1.389 . S
C664 C665 1.524 . S
C664 C678 1.377 . S
C665 C664 1.524 . S
C665 C666 1.397 . S
C665 C670 1.363 . S
C666 H643 0.950 . S
C666 C665 1.397 . S
C666 C667 1.334 . S
C667 H644 0.950 . S
C667 C666 1.334 . S
C667 C668 1.287 . S
C668 C667 1.287 . S
C668 C669 1.524 . S
C668 H687 0.913 . S
C669 H645 0.950 1_655 S
C669 C668 1.524 . S
C669 C670 1.415 . S
C670 H646 0.950 . S
C670 C665 1.363 . S
C670 C669 1.415 . S
C671 H647 0.951 . S
C671 C672 1.366 . S
C671 C673 1.388 . S
C672 C671 1.366 . S
C672 C676 1.385 . S
C673 H648 0.951 . S
C673 C671 1.388 . S
C673 C674 1.366 . S
C674 C673 1.366 . S
C674 C675 1.414 . S
C674 C677 1.499 . S
C675 H649 0.950 . S
C675 C674 1.414 . S
C675 C676 1.374 . S
C676 H650 0.950 . S
C676 C672 1.385 . S
C676 C675 1.374 . S
C677 C674 1.499 . S
C677 C678 1.373 . S
C677 C679 1.389 . S
C678 H651 0.950 . S
C678 C664 1.377 . S
C678 C677 1.373 . S
C679 C663 1.377 . S
C679 C677 1.389 . S
C679 C680 1.524 . S
C680 C679 1.524 . S
C680 C681 1.397 . S
C680 C685 1.363 . S
C681 H652 0.950 . S
C681 C680 1.397 . S
C681 C682 1.334 . S
C682 H653 0.950 . S
C682 C681 1.334 . S
C682 C683 1.287 . S
C683 C682 1.287 . S
C683 C684 1.524 . S
C683 H686 0.999 . S
C684 H654 0.950 . S
C684 C683 1.524 . S
C684 C685 1.415 . S
C685 H655 0.950 . S
C685 C680 1.363 . S
C685 C684 1.415 . S
H686 C683 0.999 . S
H687 C668 0.913 . S
C107 C18 1.437 . S
C122 C65 1.323 . S
C157 C44 1.405 . S
C172 C71 1.290 . S
C207 C20 1.391 . S
C222 C62 1.306 . S
C257 C42 1.456 . S
C272 C87 1.369 . S
C307 C17 1.431 . S
C322 C53 1.284 . S
C372 C70 1.336 . S
C357 C40 1.474 . S
C407 C43 1.409 . S
C422 C66 1.294 . S
C472 C83 1.342 . S
C457 C16 1.482 . S
C522 C50 1.329 . S
C507 C39 1.482 . S
C572 C86 1.324 . S
C557 C21 1.406 . S
C622 C49 1.371 . S
C607 C41 1.440 . S
C672 C74 1.312 . S
C657 C19 1.417 . S
