# Generated by pormake.
# Topology anh, (6,3)-cn, num edge types: 1
# Building blocks:
#     Node 0, Type 0, BuildingBlock: BETDEL_clean_sbu_0, # of connection points: 6
#     Node 1, Type 0, BuildingBlock: BETDEL_clean_sbu_0, # of connection points: 6
#     Node 2, Type 0, BuildingBlock: BETDEL_clean_sbu_0, # of connection points: 6
#     Node 3, Type 1, BuildingBlock: OLANEW_clean_sbu_2, # of connection points: 3
#     Node 4, Type 1, BuildingBlock: OLANEW_clean_sbu_2, # of connection points: 3
#     Node 5, Type 1, BuildingBlock: OLANEW_clean_sbu_2, # of connection points: 3
#     Node 6, Type 1, BuildingBlock: OLANEW_clean_sbu_2, # of connection points: 3
#     Node 7, Type 1, BuildingBlock: OLANEW_clean_sbu_2, # of connection points: 3
#     Node 8, Type 1, BuildingBlock: OLANEW_clean_sbu_2, # of connection points: 3
#     Edge 9, Type (0, 1), BuildingBlock: ZUJKAS_clean_linker_0, # of connection points: 2
#     Edge 10, Type (0, 1), BuildingBlock: ZUJKAS_clean_linker_0, # of connection points: 2
#     Edge 11, Type (0, 1), BuildingBlock: ZUJKAS_clean_linker_0, # of connection points: 2
#     Edge 12, Type (0, 1), BuildingBlock: ZUJKAS_clean_linker_0, # of connection points: 2
#     Edge 13, Type (0, 1), BuildingBlock: ZUJKAS_clean_linker_0, # of connection points: 2
#     Edge 14, Type (0, 1), BuildingBlock: ZUJKAS_clean_linker_0, # of connection points: 2
#     Edge 15, Type (0, 1), BuildingBlock: ZUJKAS_clean_linker_0, # of connection points: 2
#     Edge 16, Type (0, 1), BuildingBlock: ZUJKAS_clean_linker_0, # of connection points: 2
#     Edge 17, Type (0, 1), BuildingBlock: ZUJKAS_clean_linker_0, # of connection points: 2
#     Edge 18, Type (0, 1), BuildingBlock: ZUJKAS_clean_linker_0, # of connection points: 2
#     Edge 19, Type (0, 1), BuildingBlock: ZUJKAS_clean_linker_0, # of connection points: 2
#     Edge 20, Type (0, 1), BuildingBlock: ZUJKAS_clean_linker_0, # of connection points: 2
#     Edge 21, Type (0, 1), BuildingBlock: ZUJKAS_clean_linker_0, # of connection points: 2
#     Edge 22, Type (0, 1), BuildingBlock: ZUJKAS_clean_linker_0, # of connection points: 2
#     Edge 23, Type (0, 1), BuildingBlock: ZUJKAS_clean_linker_0, # of connection points: 2
#     Edge 24, Type (0, 1), BuildingBlock: ZUJKAS_clean_linker_0, # of connection points: 2
#     Edge 25, Type (0, 1), BuildingBlock: ZUJKAS_clean_linker_0, # of connection points: 2
#     Edge 26, Type (0, 1), BuildingBlock: ZUJKAS_clean_linker_0, # of connection points: 2
# Relax obj value: 0.076
# Max RMSD: 0.104
# Mean RMSD: 0.100
data_MOF--net-anh--node1-BETDEL_clean_sbu_0--node2-OLANEW_clean_sbu_2--edge1-ZUJKAS_clean_linker_0
_symmetry_space_group_name_H-M    P1
_symmetry_Int_Tables_number       1
_symmetry_cell_setting            triclinic
loop_
_symmetry_equiv_pos_as_xyz
'x, y, z'
_cell_length_a     42.14437
_cell_length_b     42.198437
_cell_length_c     65.329761
_cell_angle_alpha  89.432019
_cell_angle_beta   89.541691
_cell_angle_gamma 120.03103
loop_
_atom_site_label
_atom_site_type_symbol
_atom_site_fract_x
_atom_site_fract_y
_atom_site_fract_z
_atom_type_partial_charge
Dy0 Dy 0.03996 0.47664 0.15491 0.0
C1 C 0.9375 0.53098 0.16899 0.0
C2 C 0.08753 0.45619 0.14023 0.0
Dy3 Dy 0.99 0.51364 0.15906 0.0
O4 O 0.06221 0.43819 0.15407 0.0
O5 O 0.08606 0.4848 0.13397 0.0
O6 O 0.0487 0.47283 0.18902 0.0
O7 O 0.01803 0.49502 0.1785 0.0
C8 C 0.02968 0.48795 0.19444 0.0
C9 C 0.01646 0.51357 0.12161 0.0
O10 O 0.04395 0.55877 0.16951 0.0
O11 O 0.07933 0.53744 0.15362 0.0
O12 O 0.96039 0.5448 0.15365 0.0
O13 O 0.94383 0.50821 0.17922 0.0
O14 O 0.00985 0.53883 0.1279 0.0
O15 O 0.00559 0.48822 0.13486 0.0
O16 O 0.98435 0.42713 0.15103 0.0
O17 O 0.94818 0.45378 0.15763 0.0
C18 C 0.07593 0.56378 0.16262 0.0
C19 C 0.952 0.42488 0.15401 0.0
Dy20 Dy 0.46521 0.00639 0.49024 0.0
C21 C 0.61626 0.10563 0.50602 0.0
C22 C 0.39499 0.95397 0.48149 0.0
Dy23 Dy 0.54719 0.05391 0.49483 0.0
O24 O 0.40811 0.96382 0.49965 0.0
O25 O 0.42019 0.97325 0.46783 0.0
O26 O 0.45774 0.02343 0.52149 0.0
O27 O 0.50325 0.01711 0.51531 0.0
C28 C 0.48796 0.02673 0.52851 0.0
C29 C 0.52561 0.034 0.4564 0.0
O30 O 0.54216 -0.00017 0.50211 0.0
O31 O 0.48577 0.96658 0.48667 0.0
O32 O 0.6081 0.08685 0.48935 0.0
O33 O 0.58667 0.09563 0.51683 0.0
O34 O 0.55614 0.03856 0.46365 0.0
O35 O 0.50952 0.04318 0.46942 0.0
O36 O 0.46823 0.06007 0.4845 0.0
O37 O 0.52724 0.09438 0.49696 0.0
C38 C 0.51583 0.96889 0.49448 0.0
C39 C 0.49593 0.09141 0.49082 0.0
Dy40 Dy 0.5664 0.56975 0.82294 0.0
C41 C 0.51152 0.41858 0.8498 0.0
C42 C 0.58362 0.63933 0.81214 0.0
Dy43 Dy 0.52975 0.48363 0.83117 0.0
O44 O 0.58939 0.62917 0.82984 0.0
O45 O 0.56904 0.61148 0.79999 0.0
O46 O 0.59299 0.57795 0.85358 0.0
O47 O 0.54153 0.53156 0.84879 0.0
C48 C 0.5672 0.54719 0.86129 0.0
C49 C 0.53803 0.49907 0.79068 0.0
O50 O 0.48032 0.48991 0.83521 0.0
O51 O 0.50613 0.55087 0.824 0.0
O52 O 0.49277 0.42299 0.83544 0.0
O53 O 0.53967 0.44999 0.85434 0.0
O54 O 0.52338 0.46598 0.79818 0.0
O55 O 0.5469 0.52073 0.80538 0.0
O56 O 0.61305 0.56162 0.81396 0.0
O57 O 0.59063 0.50536 0.83104 0.0
C58 C 0.47756 0.51899 0.82995 0.0
C59 C 0.61749 0.53477 0.82157 0.0
O60 O 0.52711 0.03809 0.2264 0.0
Cd61 Cd 0.5361 0.0377 0.18938 0.0
O62 O 0.49085 0.97848 0.23041 0.0
Cd63 Cd 0.4802 0.96246 0.19845 0.0
O64 O 0.4338 0.91744 0.18317 0.0
C65 C 0.40255 0.91123 0.18947 0.0
O66 O 0.4011 0.93335 0.20299 0.0
C67 C 0.50892 0.01019 0.23799 0.0
C68 C 0.60555 0.09564 0.1782 0.0
O69 O 0.57745 0.09981 0.17869 0.0
O70 O 0.60077 0.06388 0.18269 0.0
O71 O 0.50582 0.50053 0.56405 0.0
Cd72 Cd 0.48657 0.4881 0.52838 0.0
O73 O 0.52326 0.55928 0.56451 0.0
Cd74 Cd 0.51153 0.56736 0.53304 0.0
O75 O 0.50969 0.61099 0.51573 0.0
C76 C 0.5382 0.64242 0.51686 0.0
O77 O 0.56673 0.64536 0.52657 0.0
C78 C 0.51867 0.5305 0.57361 0.0
C79 C 0.48234 0.4225 0.51663 0.0
O80 O 0.51038 0.45345 0.5118 0.0
O81 O 0.45613 0.42253 0.52669 0.0
O82 O 0.06617 0.51596 0.89367 0.0
Cd83 Cd 0.07407 0.52217 0.8565 0.0
O84 O 0.00629 0.49341 0.89542 0.0
Cd85 Cd 0.99573 0.50291 0.86385 0.0
O86 O 0.95769 0.51314 0.84607 0.0
C87 C 0.95604 0.54167 0.85024 0.0
O88 O 0.97895 0.56457 0.86362 0.0
C89 C 0.0365 0.50239 0.90409 0.0
C90 C 0.13695 0.51876 0.84639 0.0
O91 O 0.1386 0.54955 0.84929 0.0
O92 O 0.10544 0.48967 0.84773 0.0
O93 O 0.00852 0.52555 0.41922 0.0
Cd94 Cd 0.0116 0.53559 0.45604 0.0
O95 O 0.9631 0.53657 0.41572 0.0
Cd96 Cd 0.94864 0.52433 0.44814 0.0
O97 O 0.91844 0.48011 0.47049 0.0
C98 C 0.91898 0.45078 0.46705 0.0
O99 O 0.93893 0.45037 0.4516 0.0
C100 C 0.98769 0.53136 0.40772 0.0
C101 C 0.06954 0.6064 0.46203 0.0
O102 O 0.07422 0.5787 0.46346 0.0
O103 O 0.03719 0.60049 0.45844 0.0
O104 O 0.5146 0.01413 0.75554 0.0
Cd105 Cd 0.51672 0.00545 0.79235 0.0
O106 O 0.57054 0.06135 0.75404 0.0
Cd107 Cd 0.57036 0.07019 0.7869 0.0
O108 O 0.56184 0.10419 0.80875 0.0
C109 C 0.56131 0.13096 0.80001 0.0
O110 O 0.56617 0.13485 0.78005 0.0
C111 C 0.54202 0.03756 0.74501 0.0
C112 C 0.53222 0.94901 0.79802 0.0
O113 O 0.49909 0.9424 0.7971 0.0
O114 O 0.55805 0.98248 0.79685 0.0
O115 O 0.52204 0.46324 0.08704 0.0
Cd116 Cd 0.51329 0.45774 0.12424 0.0
O117 O 0.53823 0.52151 0.0869 0.0
Cd118 Cd 0.51358 0.51661 0.11704 0.0
O119 O 0.46057 0.50372 0.13006 0.0
C120 C 0.43317 0.47381 0.12449 0.0
O121 O 0.4389 0.45181 0.11291 0.0
C122 C 0.53458 0.49367 0.07748 0.0
C123 C 0.57978 0.4739 0.14178 0.0
O124 O 0.55592 0.44101 0.13719 0.0
O125 O 0.57176 0.49908 0.13858 0.0
H126 H 0.14646 0.49645 0.11507 0.0
H127 H 0.2017 0.49151 0.11192 0.0
H128 H 0.153 0.39666 0.15211 0.0
H129 H 0.09781 0.40178 0.15553 0.0
H130 H 0.22135 0.44978 0.16437 0.0
H131 H 0.22478 0.42089 0.08209 0.0
H132 H 0.21943 0.45991 0.08643 0.0
H133 H 0.18402 0.41519 0.09482 0.0
C134 C 0.14721 0.47404 0.12284 0.0
C135 C 0.11791 0.44947 0.13552 0.0
C136 C 0.17874 0.47118 0.12098 0.0
C137 C 0.18134 0.44353 0.13165 0.0
C138 C 0.15149 0.41811 0.1437 0.0
H139 H 0.3692 0.41181 0.11544 0.0
H140 H 0.30689 0.40138 0.11892 0.0
C141 C 0.11995 0.42098 0.14557 0.0
C142 C 0.21634 0.44321 0.13168 0.0
H143 H 0.28063 0.44162 0.10031 0.0
C144 C 0.23414 0.44758 0.15039 0.0
C145 C 0.23281 0.44 0.11347 0.0
C146 C 0.21413 0.43337 0.09309 0.0
C147 C 0.26854 0.44999 0.15131 0.0
C148 C 0.28583 0.44859 0.13298 0.0
C149 C 0.26749 0.44302 0.11435 0.0
C150 C 0.3233 0.45372 0.13263 0.0
C151 C 0.28598 0.45394 0.17191 0.0
C152 C 0.35319 0.48647 0.1394 0.0
C153 C 0.38886 0.49246 0.13755 0.0
C154 C 0.39531 0.46593 0.12867 0.0
C155 C 0.36521 0.43281 0.12234 0.0
C156 C 0.32957 0.42681 0.12427 0.0
H157 H 0.26518 0.44365 0.18451 0.0
H158 H 0.30136 0.43894 0.17258 0.0
H159 H 0.30546 0.48333 0.17462 0.0
H160 H 0.34908 0.50793 0.14551 0.0
H161 H 0.41143 0.51836 0.14245 0.0
H162 H 0.63405 0.15549 0.5364 0.0
H163 H 0.69065 0.21492 0.53874 0.0
H164 H 0.73551 0.18866 0.48633 0.0
H165 H 0.67924 0.12934 0.48395 0.0
H166 H 0.78725 0.22752 0.51975 0.0
H167 H 0.70764 0.29278 0.49324 0.0
H168 H 0.69068 0.26328 0.51552 0.0
H169 H 0.69042 0.24428 0.49103 0.0
C170 C 0.65634 0.1621 0.52568 0.0
C171 C 0.65224 0.13806 0.50987 0.0
C172 C 0.68853 0.19605 0.527 0.0
C173 C 0.71697 0.20627 0.51254 0.0
C174 C 0.71383 0.18124 0.49761 0.0
H175 H 0.90812 0.38252 0.45994 0.0
H176 H 0.86178 0.32482 0.47538 0.0
C177 C 0.68167 0.14742 0.49625 0.0
C178 C 0.74835 0.24415 0.51147 0.0
H179 H 0.77103 0.33047 0.49597 0.0
C180 C 0.78377 0.25022 0.51485 0.0
C181 C 0.74362 0.27365 0.50513 0.0
C182 C 0.70613 0.26841 0.50087 0.0
C183 C 0.81478 0.28494 0.51153 0.0
C184 C 0.81016 0.31402 0.50413 0.0
C185 C 0.77459 0.30823 0.50165 0.0
C186 C 0.84146 0.34949 0.49686 0.0
C187 C 0.85213 0.28997 0.5158 0.0
C188 C 0.84538 0.38277 0.5036 0.0
C189 C 0.8716 0.41597 0.49452 0.0
C190 C 0.89429 0.41645 0.47847 0.0
C191 C 0.89122 0.38321 0.47231 0.0
C192 C 0.8649 0.3501 0.48129 0.0
H193 H 0.85057 0.27076 0.52805 0.0
H194 H 0.863 0.28394 0.50176 0.0
H195 H 0.87171 0.3184 0.52046 0.0
H196 H 0.82741 0.38296 0.51549 0.0
H197 H 0.87329 0.4411 0.49964 0.0
H198 H 0.55941 0.66073 0.77894 0.0
H199 H 0.55647 0.71712 0.77528 0.0
H200 H 0.61207 0.75503 0.83267 0.0
H201 H 0.61453 0.69864 0.83653 0.0
H202 H 0.54767 0.75584 0.83136 0.0
H203 H 0.63219 0.82384 0.76188 0.0
H204 H 0.59768 0.77688 0.75832 0.0
H205 H 0.63458 0.78775 0.77562 0.0
C206 C 0.57174 0.68151 0.7905 0.0
C207 C 0.58714 0.67538 0.80802 0.0
C208 C 0.57015 0.71374 0.78838 0.0
C209 C 0.58427 0.74038 0.80365 0.0
C210 C 0.60106 0.73487 0.8207 0.0
H211 H 0.59946 0.95414 0.80044 0.0
H212 H 0.61271 0.90392 0.80225 0.0
C213 C 0.60253 0.70269 0.82286 0.0
C214 C 0.57843 0.77223 0.80296 0.0
H215 H 0.59491 0.84738 0.77447 0.0
C216 C 0.55819 0.77598 0.81898 0.0
C217 C 0.59243 0.79861 0.78689 0.0
C218 C 0.61573 0.79688 0.76978 0.0
C219 C 0.55105 0.80505 0.81922 0.0
C220 C 0.56394 0.83073 0.80279 0.0
C221 C 0.58479 0.82744 0.78695 0.0
C222 C 0.55584 0.86107 0.80177 0.0
C223 C 0.53013 0.80823 0.83718 0.0
C224 C 0.51948 0.85358 0.80078 0.0
C225 C 0.5118 0.88216 0.79986 0.0
C226 C 0.54038 0.91881 0.79974 0.0
C227 C 0.57681 0.92622 0.8006 0.0
C228 C 0.58446 0.89759 0.80156 0.0
H229 H 0.53098 0.7927 0.8508 0.0
H230 H 0.54127 0.83728 0.84144 0.0
H231 H 0.50099 0.79683 0.83298 0.0
H232 H 0.49702 0.82559 0.80054 0.0
H233 H 0.48347 0.87548 0.79903 0.0
H234 H 0.92017 0.57557 0.14748 0.0
H235 H 0.86117 0.57361 0.14748 0.0
H236 H 0.82143 0.49171 0.19577 0.0
H237 H 0.88064 0.49399 0.19605 0.0
H238 H 0.7985 0.51058 0.13763 0.0
H239 H 0.78161 0.55803 0.21367 0.0
H240 H 0.82564 0.56745 0.20367 0.0
H241 H 0.79444 0.52338 0.21486 0.0
C242 C 0.89919 0.5579 0.15848 0.0
C243 C 0.90484 0.53482 0.17172 0.0
C244 C 0.8655 0.55678 0.15845 0.0
C245 C 0.83697 0.53267 0.17169 0.0
C246 C 0.84326 0.51102 0.18569 0.0
H247 H 0.60564 0.42687 0.14828 0.0
H248 H 0.668 0.44242 0.15712 0.0
C249 C 0.87704 0.51221 0.18577 0.0
C250 C 0.79948 0.52666 0.16891 0.0
H251 H 0.72757 0.52657 0.19352 0.0
C252 C 0.78314 0.51441 0.14981 0.0
C253 C 0.77953 0.53174 0.1848 0.0
C254 C 0.79627 0.5462 0.20536 0.0
C255 C 0.74715 0.50635 0.14627 0.0
C256 C 0.72674 0.51018 0.16234 0.0
C257 C 0.74325 0.52329 0.18132 0.0
C258 C 0.68816 0.50049 0.15947 0.0
C259 C 0.73118 0.49382 0.12531 0.0
C260 C 0.67867 0.52792 0.15854 0.0
C261 C 0.64302 0.51916 0.15347 0.0
C262 C 0.6163 0.48277 0.14934 0.0
C263 C 0.62558 0.45517 0.15125 0.0
C264 C 0.66119 0.46399 0.15627 0.0
H265 H 0.75274 0.49984 0.11355 0.0
H266 H 0.71213 0.46379 0.12582 0.0
H267 H 0.71539 0.50718 0.12052 0.0
H268 H 0.69917 0.55626 0.161 0.0
H269 H 0.63673 0.54103 0.1522 0.0
H270 H 0.36293 0.92817 0.44439 0.0
H271 H 0.30353 0.87301 0.43832 0.0
H272 H 0.28645 0.85343 0.50351 0.0
H273 H 0.34475 0.90871 0.50958 0.0
H274 H 0.28339 0.80408 0.44779 0.0
H275 H 0.18853 0.8382 0.48749 0.0
H276 H 0.23547 0.87222 0.48161 0.0
H277 H 0.22431 0.84354 0.50421 0.0
C278 C 0.34607 0.91238 0.45737 0.0
C279 C 0.35825 0.92275 0.47744 0.0
C280 C 0.31224 0.88089 0.45391 0.0
C281 C 0.29016 0.8594 0.47047 0.0
C282 C 0.30236 0.87007 0.49049 0.0
H283 H 0.13882 0.62774 0.47493 0.0
H284 H 0.19129 0.68989 0.4758 0.0
C285 C 0.33588 0.90156 0.49394 0.0
C286 C 0.25583 0.82429 0.46701 0.0
H287 H 0.16632 0.77381 0.48262 0.0
C288 C 0.25765 0.79767 0.45515 0.0
C289 C 0.22203 0.81601 0.47633 0.0
C290 C 0.21736 0.8442 0.48792 0.0
C291 C 0.22709 0.76252 0.45312 0.0
C292 C 0.19411 0.7534 0.46374 0.0
C293 C 0.19179 0.78053 0.47481 0.0
C294 C 0.16191 0.71577 0.46381 0.0
C295 C 0.23053 0.73562 0.43955 0.0
C296 C 0.12749 0.70975 0.45771 0.0
C297 C 0.09724 0.67428 0.45759 0.0
C298 C 0.10089 0.64414 0.46352 0.0
C299 C 0.13519 0.65033 0.47008 0.0
C300 C 0.1653 0.68583 0.4704 0.0
H301 H 0.25229 0.74991 0.42765 0.0
H302 H 0.23818 0.71854 0.449 0.0
H303 H 0.20432 0.7173 0.43185 0.0
H304 H 0.12413 0.73245 0.45273 0.0
H305 H 0.07118 0.67043 0.45245 0.0
H306 H 0.46417 0.3519 0.83435 0.0
H307 H 0.46893 0.29683 0.83718 0.0
H308 H 0.55489 0.34957 0.88134 0.0
H309 H 0.551 0.40536 0.878 0.0
H310 H 0.57781 0.32771 0.85046 0.0
H311 H 0.44384 0.21151 0.8741 0.0
H312 H 0.43781 0.23611 0.85342 0.0
H313 H 0.45511 0.25843 0.87751 0.0
C314 C 0.4832 0.35134 0.8452 0.0
C315 C 0.50747 0.38295 0.8558 0.0
C316 C 0.48572 0.31966 0.84694 0.0
C317 C 0.51211 0.31883 0.85959 0.0
C318 C 0.53426 0.34949 0.87152 0.0
H319 H 0.54498 0.12912 0.84107 0.0
H320 H 0.53473 0.17359 0.85978 0.0
C321 C 0.53198 0.38134 0.86963 0.0
C322 C 0.52096 0.28909 0.85733 0.0
H323 H 0.48139 0.19664 0.85152 0.0
C324 C 0.55686 0.29901 0.85128 0.0
C325 C 0.49392 0.25153 0.85857 0.0
C326 C 0.45564 0.23884 0.86648 0.0
C327 C 0.56568 0.27274 0.84488 0.0
C328 C 0.53778 0.23565 0.84415 0.0
C329 C 0.50261 0.22524 0.85177 0.0
C330 C 0.54371 0.20839 0.83329 0.0
C331 C 0.60454 0.28513 0.83812 0.0
C332 C 0.55157 0.21305 0.81222 0.0
C333 C 0.55732 0.18789 0.80156 0.0
C334 C 0.55523 0.15737 0.81172 0.0
C335 C 0.54698 0.15247 0.83284 0.0
C336 C 0.54105 0.17775 0.84354 0.0
H337 H 0.62433 0.31122 0.84544 0.0
H338 H 0.61218 0.2641 0.84182 0.0
H339 H 0.60705 0.28987 0.82129 0.0
H340 H 0.55311 0.23619 0.80397 0.0
H341 H 0.56343 0.19246 0.78531 0.0
H342 H 0.46466 0.89928 0.48384 0.0
H343 H 0.46998 0.84428 0.48552 0.0
H344 H 0.58039 0.90816 0.50743 0.0
H345 H 0.57513 0.96328 0.5062 0.0
H346 H 0.51811 0.82747 0.46621 0.0
H347 H 0.53254 0.82712 0.55057 0.0
H348 H 0.51802 0.8556 0.53765 0.0
H349 H 0.5658 0.86906 0.53819 0.0
C350 C 0.4901 0.90171 0.48906 0.0
C351 C 0.51938 0.93569 0.49507 0.0
C352 C 0.49308 0.87021 0.48996 0.0
C353 C 0.52534 0.87201 0.4969 0.0
C354 C 0.55494 0.906 0.50246 0.0
H355 H 0.5942 0.7131 0.51832 0.0
H356 H 0.59155 0.76865 0.51129 0.0
C357 C 0.55193 0.93752 0.50167 0.0
C358 C 0.52791 0.83827 0.49839 0.0
H359 H 0.54215 0.78449 0.53211 0.0
C360 C 0.52326 0.81797 0.48062 0.0
C361 C 0.53443 0.82586 0.51723 0.0
C362 C 0.53764 0.84531 0.53704 0.0
C363 C 0.52568 0.78595 0.48114 0.0
C364 C 0.53259 0.77383 0.49994 0.0
C365 C 0.53711 0.79405 0.51769 0.0
C366 C 0.53505 0.74011 0.50176 0.0
C367 C 0.52149 0.76568 0.46155 0.0
C368 C 0.50426 0.70561 0.49842 0.0
C369 C 0.50565 0.67368 0.50243 0.0
C370 C 0.53781 0.67578 0.50998 0.0
C371 C 0.56896 0.71045 0.51257 0.0
C372 C 0.56752 0.74227 0.50858 0.0
H373 H 0.52476 0.78288 0.44782 0.0
H374 H 0.54185 0.75635 0.46058 0.0
H375 H 0.49371 0.74112 0.46126 0.0
H376 H 0.47875 0.70334 0.49346 0.0
H377 H 0.48114 0.64742 0.50034 0.0
H378 H 0.63639 0.48504 0.83501 0.0
H379 H 0.69728 0.49197 0.83611 0.0
H380 H 0.74331 0.59855 0.80731 0.0
H381 H 0.68209 0.59198 0.80605 0.0
H382 H 0.77022 0.5496 0.79194 0.0
H383 H 0.7764 0.56543 0.87634 0.0
H384 H 0.73544 0.52639 0.86733 0.0
H385 H 0.74464 0.57171 0.86081 0.0
C386 C 0.65929 0.50996 0.82876 0.0
C387 C 0.65427 0.53814 0.8206 0.0
C388 C 0.69413 0.51384 0.82945 0.0
C389 C 0.72479 0.54594 0.82205 0.0
C390 C 0.71993 0.57362 0.81317 0.0
H391 H 0.94482 0.59916 0.85684 0.0
H392 H 0.89148 0.60418 0.84752 0.0
C393 C 0.68494 0.56981 0.8125 0.0
C394 C 0.76189 0.55078 0.82441 0.0
H395 H 0.82175 0.55556 0.86075 0.0
C396 C 0.78174 0.55126 0.80694 0.0
C397 C 0.77696 0.55338 0.84399 0.0
C398 C 0.75748 0.55454 0.86321 0.0
C399 C 0.81583 0.55296 0.80863 0.0
C400 C 0.83008 0.55384 0.8283 0.0
C401 C 0.81072 0.55465 0.84568 0.0
C402 C 0.86447 0.55291 0.83144 0.0
C403 C 0.83627 0.55382 0.7894 0.0
C404 C 0.86731 0.52264 0.82523 0.0
C405 C 0.89786 0.51967 0.83053 0.0
C406 C 0.926 0.5468 0.84229 0.0
C407 C 0.92365 0.5777 0.84782 0.0
C408 C 0.89315 0.58065 0.84251 0.0
H409 H 0.82723 0.56342 0.77594 0.0
H410 H 0.86629 0.57191 0.79112 0.0
H411 H 0.83085 0.52576 0.78625 0.0
H412 H 0.8452 0.50054 0.81704 0.0
H413 H 0.89872 0.49545 0.82608 0.0
H414 H 0.14544 0.58572 0.1487 0.0
H415 H 0.20032 0.64566 0.1522 0.0
H416 H 0.1371 0.6845 0.18449 0.0
H417 H 0.08197 0.62449 0.18128 0.0
H418 H 0.21282 0.71489 0.1383 0.0
H419 H 0.22329 0.70898 0.22282 0.0
H420 H 0.19497 0.66892 0.20793 0.0
H421 H 0.17953 0.70051 0.21393 0.0
C422 C 0.14311 0.60689 0.15664 0.0
C423 C 0.10923 0.60016 0.16481 0.0
C424 C 0.17454 0.64118 0.15856 0.0
C425 C 0.17284 0.66934 0.1688 0.0
C426 C 0.13909 0.66291 0.17682 0.0
H427 H 0.3323 0.89143 0.20023 0.0
H428 H 0.27657 0.83362 0.1936 0.0
C429 C 0.10758 0.62862 0.17489 0.0
C430 C 0.20638 0.70553 0.17091 0.0
H431 H 0.26395 0.76528 0.20622 0.0
C432 C 0.22412 0.72593 0.15313 0.0
C433 C 0.22101 0.71974 0.19029 0.0
C434 C 0.20398 0.69834 0.20985 0.0
C435 C 0.25578 0.76058 0.15423 0.0
C436 C 0.27035 0.77482 0.17361 0.0
C437 C 0.25263 0.75434 0.19138 0.0
C438 C 0.30392 0.81095 0.17596 0.0
C439 C 0.27291 0.78195 0.13468 0.0
C440 C 0.33782 0.81755 0.16805 0.0
C441 C 0.36984 0.85071 0.17176 0.0
C442 C 0.36851 0.8777 0.1836 0.0
C443 C 0.33435 0.87126 0.19107 0.0
C444 C 0.30243 0.83819 0.18733 0.0
H445 H 0.25347 0.77161 0.12177 0.0
H446 H 0.28242 0.81147 0.13665 0.0
H447 H 0.29703 0.77927 0.1305 0.0
H448 H 0.33969 0.79663 0.15954 0.0
H449 H 0.39572 0.85472 0.16589 0.0
H450 H 0.52892 0.14754 0.51721 0.0
H451 H 0.52299 0.20197 0.51933 0.0
H452 H 0.4502 0.16538 0.46782 0.0
H453 H 0.45443 0.10952 0.46647 0.0
H454 H 0.54238 0.25589 0.49475 0.0
H455 H 0.39183 0.1902 0.50515 0.0
H456 H 0.41539 0.16449 0.5062 0.0
H457 H 0.4046 0.17702 0.48188 0.0
C458 C 0.51145 0.15097 0.5064 0.0
C459 C 0.49203 0.12426 0.49171 0.0
C460 C 0.50808 0.18215 0.50761 0.0
C461 C 0.48573 0.18774 0.49394 0.0
C462 C 0.46673 0.16131 0.47897 0.0
H463 H 0.5179 0.4101 0.4853 0.0
H464 H 0.51704 0.35301 0.47764 0.0
C465 C 0.46939 0.12952 0.47809 0.0
C466 C 0.48358 0.22187 0.49519 0.0
H467 H 0.42432 0.25456 0.4998 0.0
C468 C 0.51651 0.25552 0.49592 0.0
C469 C 0.44987 0.22153 0.49692 0.0
C470 C 0.41345 0.18636 0.49771 0.0
C471 C 0.51682 0.2886 0.49875 0.0
C472 C 0.48314 0.28842 0.49985 0.0
C473 C 0.45016 0.25484 0.49877 0.0
C474 C 0.48144 0.32242 0.50325 0.0
C475 C 0.55333 0.32301 0.50148 0.0
C476 C 0.46002 0.3238 0.51944 0.0
C477 C 0.45949 0.35604 0.52339 0.0
C478 C 0.48086 0.38776 0.51144 0.0
C479 C 0.5016 0.38619 0.49495 0.0
C480 C 0.50136 0.35364 0.49067 0.0
H481 H 0.57469 0.3167 0.50656 0.0
H482 H 0.56264 0.338 0.48662 0.0
H483 H 0.55133 0.34129 0.51289 0.0
H484 H 0.44425 0.30012 0.52934 0.0
H485 H 0.44325 0.35644 0.53621 0.0
H486 H 0.4623 0.57448 0.82556 0.0
H487 H 0.40272 0.57068 0.82749 0.0
H488 H 0.3504 0.45415 0.83832 0.0
H489 H 0.41018 0.45774 0.83687 0.0
H490 H 0.34267 0.53312 0.80385 0.0
H491 H 0.30853 0.48551 0.88479 0.0
H492 H 0.35388 0.50293 0.87397 0.0
H493 H 0.31839 0.45685 0.869 0.0
C494 C 0.43822 0.54798 0.82845 0.0
C495 C 0.44115 0.51641 0.83118 0.0
C496 C 0.40411 0.54589 0.82952 0.0
C497 C 0.37212 0.51224 0.83334 0.0
C498 C 0.37479 0.48056 0.83582 0.0
H499 H 0.14332 0.45746 0.844 0.0
H500 H 0.19954 0.45451 0.83952 0.0
C501 C 0.40901 0.48264 0.83489 0.0
C502 C 0.33608 0.51057 0.83434 0.0
H503 H 0.26252 0.48858 0.86581 0.0
C504 C 0.32515 0.52337 0.8174 0.0
C505 C 0.31321 0.49783 0.85203 0.0
C506 C 0.32415 0.4853 0.87106 0.0
C507 C 0.29205 0.5238 0.81767 0.0
C508 C 0.26941 0.51138 0.8354 0.0
C509 C 0.27995 0.498 0.85222 0.0
C510 C 0.23525 0.51317 0.8371 0.0
C511 C 0.2814 0.53734 0.79894 0.0
C512 C 0.23677 0.54715 0.83725 0.0
C513 C 0.20475 0.54896 0.83988 0.0
C514 C 0.17059 0.51679 0.84242 0.0
C515 C 0.16915 0.48275 0.842 0.0
C516 C 0.20123 0.48099 0.83949 0.0
H517 H 0.297 0.53756 0.78509 0.0
H518 H 0.25163 0.52006 0.79601 0.0
H519 H 0.28733 0.56574 0.80149 0.0
H520 H 0.26283 0.57233 0.83573 0.0
H521 H 0.20686 0.57561 0.8402 0.0
H522 H 0.94582 0.35684 0.15318 0.0
H523 H 0.88921 0.29712 0.15392 0.0
H524 H 0.82526 0.35104 0.1543 0.0
H525 H 0.8812 0.41049 0.15349 0.0
H526 H 0.83302 0.27176 0.18497 0.0
H527 H 0.77909 0.27544 0.10842 0.0
H528 H 0.82652 0.30489 0.11504 0.0
H529 H 0.79228 0.31587 0.12306 0.0
C530 C 0.91971 0.35599 0.15317 0.0
C531 C 0.91814 0.38854 0.15325 0.0
C532 C 0.88742 0.32185 0.15364 0.0
C533 C 0.85307 0.31969 0.15389 0.0
C534 C 0.85146 0.35208 0.15373 0.0
H535 H 0.62463 0.16673 0.17016 0.0
H536 H 0.68596 0.21875 0.16349 0.0
C537 C 0.88358 0.3861 0.1534 0.0
C538 C 0.81872 0.28383 0.15553 0.0
H539 H 0.73649 0.23121 0.13247 0.0
C540 C 0.81208 0.26252 0.17338 0.0
C541 C 0.79148 0.272 0.14039 0.0
C542 C 0.79774 0.29305 0.12055 0.0
C543 C 0.77819 0.23053 0.17695 0.0
C544 C 0.75053 0.21922 0.16205 0.0
C545 C 0.75766 0.23997 0.14391 0.0
C546 C 0.71336 0.18707 0.16545 0.0
C547 C 0.77173 0.21011 0.19705 0.0
C548 C 0.70828 0.15182 0.16841 0.0
C549 C 0.67321 0.12199 0.17233 0.0
C550 C 0.64253 0.12683 0.17317 0.0
C551 C 0.64764 0.16203 0.16967 0.0
C552 C 0.68269 0.19181 0.16582 0.0
H553 H 0.79239 0.2269 0.20861 0.0
H554 H 0.744 0.20153 0.20337 0.0
H555 H 0.7736 0.18513 0.19454 0.0
H556 H 0.73145 0.14739 0.16776 0.0
H557 H 0.6702 0.0952 0.17483 0.0
H558 H 0.04431 0.56777 0.09289 0.0
H559 H 0.05217 0.56218 0.05625 0.0
H560 H 0.01676 0.44772 0.06512 0.0
H561 H 0.0098 0.45345 0.10206 0.0
H562 H 0.07374 0.48269 0.03593 0.0
H563 H 0.96095 0.5111 0.0211 0.0
H564 H 0.99769 0.54655 0.03523 0.0
H565 H 0.971 0.50145 0.04642 0.0
C566 C 0.03869 0.54153 0.08707 0.0
C567 C 0.0259 0.51089 0.10018 0.0
C568 C 0.04304 0.53834 0.06614 0.0
C569 C 0.0341 0.50433 0.05792 0.0
C570 C 0.02348 0.47414 0.07116 0.0
H571 H 0.97841 0.46118 0.92977 0.0
H572 H 0.97847 0.45733 0.96707 0.0
C573 C 0.01948 0.47742 0.09221 0.0
C574 C 0.03359 0.50001 0.03542 0.0
H575 H 0.99549 0.5114 -0.00787 0.0
C576 C 0.0565 0.48872 0.02631 0.0
C577 C 0.01049 0.50714 0.02297 0.0
C578 C 0.98336 0.51686 0.03192 0.0
C579 C 0.05769 0.48543 0.00495 0.0
C580 C 0.03593 0.49441 -0.00756 0.0
C581 C 0.0124 0.5048 0.00167 0.0
C582 C 0.03698 0.4936 0.96973 0.0
C583 C 0.08183 0.47192 -0.00394 0.0
C584 C 0.06991 0.51497 0.95875 0.0
C585 C 0.07001 0.51689 0.93735 0.0
C586 C 0.03705 0.49805 0.92658 0.0
C587 C 0.00424 0.4762 0.9376 0.0
C588 C 0.00424 0.47392 0.95893 0.0
H589 H 0.08722 0.45556 0.00749 0.0
H590 H 0.06928 0.45489 0.9824 0.0
H591 H 0.10861 0.49577 0.99139 0.0
H592 H 0.09538 0.53118 0.96672 0.0
H593 H 0.09572 0.53416 0.92932 0.0
H594 H 0.47867 0.04851 0.43472 0.0
H595 H 0.47115 0.04583 0.39739 0.0
H596 H 0.54551 0.00393 0.39172 0.0
H597 H 0.55387 0.00759 0.42869 0.0
H598 H 0.56432 0.06149 0.36634 0.0
H599 H 0.416 0.96045 0.35922 0.0
H600 H 0.42624 -0.00125 0.37517 0.0
H601 H 0.44033 0.96667 0.3828 0.0
C602 C 0.49292 0.03826 0.42546 0.0
C603 C 0.51701 0.02846 0.43448 0.0
C604 C 0.48852 0.0366 0.40418 0.0
C605 C 0.50766 0.02452 0.39177 0.0
C606 C 0.5306 0.01348 0.40097 0.0
H607 H 0.48302 0.9561 0.26726 0.0
H608 H 0.48217 0.96248 0.30429 0.0
C609 C 0.5353 0.01551 0.42209 0.0
C610 C 0.50598 0.02535 0.36912 0.0
H611 H 0.44873 0.98904 0.32863 0.0
C612 C 0.53902 0.04574 0.35807 0.0
C613 C 0.47297 0.00466 0.35842 0.0
C614 C 0.43688 0.98112 0.36946 0.0
C615 C 0.54017 0.04532 0.33663 0.0
C616 C 0.50715 0.02477 0.32588 0.0
C617 C 0.47396 0.00497 0.33691 0.0
C618 C 0.50682 0.02144 0.3033 0.0
C619 C 0.57695 0.06564 0.32579 0.0
C620 C 0.52069 0.05248 0.29039 0.0
C621 C 0.52171 0.04899 0.26915 0.0
C622 C 0.50829 0.0143 0.26045 0.0
C623 C 0.49366 0.98324 0.27343 0.0
C624 C 0.49301 0.9868 0.29462 0.0
H625 H 0.59989 0.07212 0.33634 0.0
H626 H 0.57858 0.04945 0.31294 0.0
H627 H 0.58088 0.09187 0.31944 0.0
H628 H 0.53076 0.07941 0.29672 0.0
H629 H 0.53274 0.0734 0.25956 0.0
H630 H 0.56321 0.56623 0.77174 0.0
H631 H 0.56351 0.57827 0.73473 0.0
H632 H 0.52063 0.46356 0.72321 0.0
H633 H 0.51968 0.45145 0.75981 0.0
H634 H 0.59801 0.56258 0.70099 0.0
H635 H 0.44658 0.48633 0.69586 0.0
H636 H 0.46999 0.50113 0.71991 0.0
H637 H 0.46436 0.46033 0.70809 0.0
C638 C 0.55387 0.54374 0.76126 0.0
C639 C 0.54094 0.5079 0.76862 0.0
C640 C 0.55412 0.5506 0.74018 0.0
C641 C 0.54137 0.52163 0.72632 0.0
C642 C 0.5298 0.48614 0.73368 0.0
H643 H 0.50764 0.4736 0.59893 0.0
H644 H 0.51612 0.47496 0.63596 0.0
C645 C 0.52942 0.47932 0.7546 0.0
C646 C 0.53955 0.52775 0.70411 0.0
H647 H 0.48007 0.49855 0.66429 0.0
C648 C 0.57224 0.54908 0.69295 0.0
C649 C 0.50583 0.51013 0.69372 0.0
C650 C 0.46966 0.48849 0.70503 0.0
C651 C 0.57219 0.55177 0.67147 0.0
C652 C 0.53857 0.53289 0.66107 0.0
C653 C 0.50584 0.51262 0.67232 0.0
C654 C 0.53652 0.53308 0.63846 0.0
C655 C 0.60813 0.5736 0.66001 0.0
C656 C 0.54538 0.56537 0.62763 0.0
C657 C 0.54052 0.5647 0.60647 0.0
C658 C 0.52656 0.53166 0.59576 0.0
C659 C 0.51846 0.4995 0.60665 0.0
C660 C 0.52326 0.50021 0.62782 0.0
H661 H 0.63198 0.5805 0.66991 0.0
H662 H 0.60934 0.55826 0.6466 0.0
H663 H 0.61054 0.59956 0.65426 0.0
H664 H 0.55508 0.59089 0.63562 0.0
H665 H 0.54697 0.58998 0.59859 0.0
H666 H 0.54711 0.02817 0.54607 0.0
H667 H 0.56196 0.03384 0.58253 0.0
H668 H 0.46745 0.04454 0.59614 0.0
H669 H 0.45276 0.03941 0.55969 0.0
H670 H 0.53076 0.09377 0.6174 0.0
H671 H 0.50252 0.95045 0.62418 0.0
H672 H 0.53575 0.97813 0.60483 0.0
H673 H 0.48888 0.967 0.60229 0.0
C674 C 0.52967 0.03198 0.55685 0.0
C675 C 0.49857 0.03297 0.55016 0.0
C676 C 0.53808 0.03505 0.57764 0.0
C677 C 0.51541 0.03894 0.59203 0.0
C678 C 0.48516 0.04134 0.58526 0.0
H679 H 0.48461 0.99189 0.72107 0.0
H680 H 0.48071 0.99379 0.68384 0.0
C681 C 0.47677 0.03835 0.56448 0.0
C682 C 0.52241 0.03941 0.61421 0.0
H683 H 0.52385 0.98659 0.65371 0.0
C684 C 0.52945 0.07045 0.62536 0.0
C685 C 0.52021 0.00872 0.62452 0.0
C686 C 0.51112 0.97402 0.61343 0.0
C687 C 0.5342 0.07158 0.64664 0.0
C688 C 0.53236 0.04101 0.65691 0.0
C689 C 0.52552 0.01006 0.64573 0.0
C690 C 0.53554 0.03981 0.67942 0.0
C691 C 0.54 0.10497 0.65802 0.0
C692 C 0.5679 0.06472 0.68922 0.0
C693 C 0.57022 0.06379 0.71053 0.0
C694 C 0.54026 0.03775 0.72239 0.0
C695 C 0.50817 0.01236 0.71243 0.0
C696 C 0.50588 0.01336 0.69115 0.0
H697 H 0.53253 0.12232 0.64866 0.0
H698 H 0.52357 0.09699 0.67247 0.0
H699 H 0.56935 0.12174 0.66201 0.0
H700 H 0.59135 0.08489 0.68039 0.0
H701 H 0.59541 0.08361 0.7177 0.0
H702 H 0.6201 0.57922 0.88989 0.0
H703 H 0.6158 0.5624 0.92617 0.0
H704 H 0.50725 0.4708 0.91709 0.0
H705 H 0.51125 0.48778 0.88077 0.0
H706 H 0.51098 0.51612 0.94848 0.0
H707 H 0.61906 0.47881 0.95678 0.0
H708 H 0.63479 0.52212 0.944 0.0
H709 H 0.60053 0.48083 0.93227 0.0
C710 C 0.59555 0.55519 0.89558 0.0
C711 C 0.56594 0.53487 0.8826 0.0
C712 C 0.59324 0.54544 0.91626 0.0
C713 C 0.56139 0.5151 0.92425 0.0
C714 C 0.53216 0.49417 0.91117 0.0
H715 H 0.52763 0.43927 0.05206 0.0
H716 H 0.53453 0.4424 0.01469 0.0
C717 C 0.53447 0.50388 0.89047 0.0
C718 C 0.55723 0.50762 0.94659 0.0
H719 H 0.59684 0.49148 0.98779 0.0
C720 C 0.52948 0.5103 0.95704 0.0
C721 C 0.58123 0.49978 0.95769 0.0
C722 C 0.61037 0.49485 0.9471 0.0
C723 C 0.52592 0.50668 0.9784 0.0
C724 C 0.55106 0.5007 0.98959 0.0
C725 C 0.57793 0.49656 0.97913 0.0
C726 C 0.55012 0.49953 0.01222 0.0
C727 C 0.49541 0.50956 0.98886 0.0
C728 C 0.55768 0.53092 0.02314 0.0
C729 C 0.55383 0.5293 0.04443 0.0
C730 C 0.54238 0.4962 0.05519 0.0
C731 C 0.53634 0.46514 0.04424 0.0
C732 C 0.54028 0.46685 0.02291 0.0
H733 H 0.4735 0.50532 0.97802 0.0
H734 H 0.48304 0.48919 0.0016 0.0
H735 H 0.50671 0.53727 -0.00462 0.0
H736 H 0.56582 0.55653 0.01514 0.0
H737 H 0.55895 0.55379 0.05237 0.0
H738 H 0.99227 0.52163 0.20766 0.0
H739 H 0.98388 0.53495 0.24321 0.0
H740 H 0.04746 0.48694 0.26417 0.0
H741 H 0.05544 0.47318 0.22887 0.0
H742 H 0.95291 0.48003 0.27781 0.0
H743 H 0.09568 0.59224 0.28956 0.0
H744 H 0.07611 0.57857 0.26445 0.0
H745 H 0.09147 0.55173 0.27815 0.0
C746 C 0.00419 0.51376 0.21989 0.0
C747 C 0.02426 0.49619 0.2156 0.0
C748 C -0.00046 0.5215 0.24012 0.0
C749 C 0.0154 0.51223 0.2562 0.0
C750 C 0.03543 0.49469 0.2519 0.0
H751 H 0.03264 0.51453 0.38586 0.0
H752 H 0.03773 0.51235 0.34872 0.0
C753 C 0.03982 0.48674 0.23177 0.0
C754 C 0.01046 0.51983 0.27765 0.0
H755 H 0.05825 0.56676 0.31943 0.0
C756 C 0.97572 0.49935 0.28691 0.0
C757 C 0.0404 0.54499 0.28935 0.0
C758 C 0.07801 0.56842 0.27989 0.0
C759 C 0.97048 0.50208 0.30793 0.0
C760 C 0.0007 0.52656 0.3198 0.0
C761 C 0.03516 0.54795 0.31032 0.0
C762 C 0.99772 0.52882 0.34228 0.0
C763 C 0.9331 0.47744 0.31741 0.0
C764 C 0.97388 0.53931 0.35098 0.0
C765 C 0.9707 0.54034 0.37226 0.0
C766 C 0.99162 0.53129 0.38519 0.0
C767 C 0.01608 0.52161 0.37637 0.0
C768 C 0.01907 0.52039 0.35514 0.0
H769 H 0.91532 0.45454 0.30722 0.0
H770 H 0.9354 0.4658 0.33227 0.0
H771 H 0.9194 0.49363 0.32029 0.0
H772 H 0.95775 0.54671 0.34133 0.0
H773 H 0.95183 0.54821 0.37856 0.0
loop_
_geom_bond_atom_site_label_1
_geom_bond_atom_site_label_2
_geom_bond_distance
_geom_bond_site_symmetry_2
_ccdc_geom_bond_type
Dy0 O4 2.398 . S
Dy0 O5 2.491 . S
Dy0 O6 2.403 . S
Dy0 O7 2.664 . S
Dy0 O11 2.326 . S
Dy0 O15 2.310 . S
Dy0 O16 2.351 1_455 S
C1 O12 1.185 . S
C1 O13 1.355 . S
C2 O4 1.185 . S
C2 O5 1.355 . S
Dy3 O7 2.310 1_655 S
Dy3 O10 2.351 1_655 S
Dy3 O12 2.398 . S
Dy3 O13 2.491 . S
Dy3 O14 2.403 1_655 S
Dy3 O15 2.664 1_655 S
Dy3 O17 2.326 . S
O4 Dy0 2.398 . S
O4 C2 1.185 . S
O5 Dy0 2.491 . S
O5 C2 1.355 . S
O6 Dy0 2.403 . S
O6 C8 1.254 . S
O7 Dy0 2.664 . S
O7 Dy3 2.310 1_455 S
O7 C8 1.268 . S
C8 O6 1.254 . S
C8 O7 1.268 . S
C9 O14 1.254 . S
C9 O15 1.268 . S
O10 Dy3 2.351 1_455 S
O10 C18 1.249 . S
O11 Dy0 2.326 . S
O11 C18 1.267 . S
O12 C1 1.185 . S
O12 Dy3 2.398 . S
O13 C1 1.355 . S
O13 Dy3 2.491 . S
O14 Dy3 2.403 1_455 S
O14 C9 1.254 . S
O15 Dy0 2.310 . S
O15 Dy3 2.664 1_455 S
O15 C9 1.268 . S
O16 Dy0 2.351 1_655 S
O16 C19 1.249 . S
O17 Dy3 2.326 . S
O17 C19 1.267 . S
C18 O10 1.249 . S
C18 O11 1.267 . S
C19 O16 1.249 . S
C19 O17 1.267 . S
Dy20 O24 2.398 . S
Dy20 O25 2.491 . S
Dy20 O26 2.403 . S
Dy20 O27 2.664 1_565 S
Dy20 O31 2.326 . S
Dy20 O35 2.310 1_565 S
Dy20 O36 2.351 1_565 S
C21 O32 1.185 . S
C21 O33 1.355 . S
C22 O24 1.185 . S
C22 O25 1.355 . S
Dy23 O27 2.310 . S
Dy23 O30 2.351 1_545 S
Dy23 O32 2.398 . S
Dy23 O33 2.491 . S
Dy23 O34 2.403 . S
Dy23 O35 2.664 . S
Dy23 O37 2.326 . S
O24 Dy20 2.398 . S
O24 C22 1.185 . S
O25 Dy20 2.491 . S
O25 C22 1.355 . S
O26 Dy20 2.403 . S
O26 C28 1.254 1_565 S
O27 Dy20 2.664 1_545 S
O27 Dy23 2.310 . S
O27 C28 1.268 . S
C28 O26 1.254 1_545 S
C28 O27 1.268 . S
C29 O34 1.254 . S
C29 O35 1.268 . S
O30 Dy23 2.351 1_565 S
O30 C38 1.249 . S
O31 Dy20 2.326 . S
O31 C38 1.267 . S
O32 C21 1.185 . S
O32 Dy23 2.398 . S
O33 C21 1.355 . S
O33 Dy23 2.491 . S
O34 Dy23 2.403 . S
O34 C29 1.254 . S
O35 Dy20 2.310 1_545 S
O35 Dy23 2.664 . S
O35 C29 1.268 . S
O36 Dy20 2.351 1_545 S
O36 C39 1.249 . S
O37 Dy23 2.326 . S
O37 C39 1.267 . S
C38 O30 1.249 . S
C38 O31 1.267 . S
C39 O36 1.249 . S
C39 O37 1.267 . S
Dy40 O44 2.398 . S
Dy40 O45 2.491 . S
Dy40 O46 2.403 . S
Dy40 O47 2.664 . S
Dy40 O51 2.326 . S
Dy40 O55 2.310 . S
Dy40 O56 2.351 . S
C41 O52 1.185 . S
C41 O53 1.355 . S
C42 O44 1.185 . S
C42 O45 1.355 . S
Dy43 O47 2.310 . S
Dy43 O50 2.351 . S
Dy43 O52 2.398 . S
Dy43 O53 2.491 . S
Dy43 O54 2.403 . S
Dy43 O55 2.664 . S
Dy43 O57 2.326 . S
O44 Dy40 2.398 . S
O44 C42 1.185 . S
O45 Dy40 2.491 . S
O45 C42 1.355 . S
O46 Dy40 2.403 . S
O46 C48 1.254 . S
O47 Dy40 2.664 . S
O47 Dy43 2.310 . S
O47 C48 1.268 . S
C48 O46 1.254 . S
C48 O47 1.268 . S
C49 O54 1.254 . S
C49 O55 1.268 . S
O50 Dy43 2.351 . S
O50 C58 1.249 . S
O51 Dy40 2.326 . S
O51 C58 1.267 . S
O52 C41 1.185 . S
O52 Dy43 2.398 . S
O53 C41 1.355 . S
O53 Dy43 2.491 . S
O54 Dy43 2.403 . S
O54 C49 1.254 . S
O55 Dy40 2.310 . S
O55 Dy43 2.664 . S
O55 C49 1.268 . S
O56 Dy40 2.351 . S
O56 C59 1.249 . S
O57 Dy43 2.326 . S
O57 C59 1.267 . S
C58 O50 1.249 . S
C58 O51 1.267 . S
C59 O56 1.249 . S
C59 O57 1.267 . S
O60 Cd61 2.300 . S
O60 C67 1.275 . S
Cd61 O60 2.300 . S
Cd61 O69 2.381 . S
Cd61 O70 2.378 . S
O62 Cd63 2.385 . S
O62 C67 1.255 1_565 S
Cd63 O62 2.385 . S
Cd63 O64 2.317 . S
O64 Cd63 2.317 . S
O64 C65 1.232 . S
C65 O64 1.232 . S
C65 O66 1.218 . S
O66 C65 1.218 . S
C67 O60 1.275 . S
C67 O62 1.255 1_545 S
C68 O69 1.258 . S
C68 O70 1.256 . S
O69 Cd61 2.381 . S
O69 C68 1.258 . S
O70 Cd61 2.378 . S
O70 C68 1.256 . S
O71 Cd72 2.300 . S
O71 C78 1.275 . S
Cd72 O71 2.300 . S
Cd72 O80 2.381 . S
Cd72 O81 2.378 . S
O73 Cd74 2.385 . S
O73 C78 1.255 . S
Cd74 O73 2.385 . S
Cd74 O75 2.317 . S
O75 Cd74 2.317 . S
O75 C76 1.232 . S
C76 O75 1.232 . S
C76 O77 1.218 . S
O77 C76 1.218 . S
C78 O71 1.275 . S
C78 O73 1.255 . S
C79 O80 1.258 . S
C79 O81 1.256 . S
O80 Cd72 2.381 . S
O80 C79 1.258 . S
O81 Cd72 2.378 . S
O81 C79 1.256 . S
O82 Cd83 2.300 . S
O82 C89 1.275 . S
Cd83 O82 2.300 . S
Cd83 O91 2.381 . S
Cd83 O92 2.378 . S
O84 Cd85 2.385 1_455 S
O84 C89 1.255 . S
Cd85 O84 2.385 1_655 S
Cd85 O86 2.317 . S
O86 Cd85 2.317 . S
O86 C87 1.232 . S
C87 O86 1.232 . S
C87 O88 1.218 . S
O88 C87 1.218 . S
C89 O82 1.275 . S
C89 O84 1.255 . S
C90 O91 1.258 . S
C90 O92 1.256 . S
O91 Cd83 2.381 . S
O91 C90 1.258 . S
O92 Cd83 2.378 . S
O92 C90 1.256 . S
O93 Cd94 2.300 . S
O93 C100 1.275 . S
Cd94 O93 2.300 . S
Cd94 O102 2.381 . S
Cd94 O103 2.378 . S
O95 Cd96 2.385 . S
O95 C100 1.255 1_655 S
Cd96 O95 2.385 . S
Cd96 O97 2.317 . S
O97 Cd96 2.317 . S
O97 C98 1.232 . S
C98 O97 1.232 . S
C98 O99 1.218 . S
O99 C98 1.218 . S
C100 O93 1.275 . S
C100 O95 1.255 1_455 S
C101 O102 1.258 . S
C101 O103 1.256 . S
O102 Cd94 2.381 . S
O102 C101 1.258 . S
O103 Cd94 2.378 . S
O103 C101 1.256 . S
O104 Cd105 2.300 . S
O104 C111 1.275 . S
Cd105 O104 2.300 . S
Cd105 O113 2.381 1_545 S
Cd105 O114 2.378 1_545 S
O106 Cd107 2.385 . S
O106 C111 1.255 . S
Cd107 O106 2.385 . S
Cd107 O108 2.317 . S
O108 Cd107 2.317 . S
O108 C109 1.232 . S
C109 O108 1.232 . S
C109 O110 1.218 . S
O110 C109 1.218 . S
C111 O104 1.275 . S
C111 O106 1.255 . S
C112 O113 1.258 . S
C112 O114 1.256 . S
O113 Cd105 2.381 1_565 S
O113 C112 1.258 . S
O114 Cd105 2.378 1_565 S
O114 C112 1.256 . S
O115 Cd116 2.300 . S
O115 C122 1.275 . S
Cd116 O115 2.300 . S
Cd116 O124 2.381 . S
Cd116 O125 2.378 . S
O117 Cd118 2.385 . S
O117 C122 1.255 . S
Cd118 O117 2.385 . S
Cd118 O119 2.317 . S
O119 Cd118 2.317 . S
O119 C120 1.232 . S
C120 O119 1.232 . S
C120 O121 1.218 . S
O121 C120 1.218 . S
C122 O115 1.275 . S
C122 O117 1.255 . S
C123 O124 1.258 . S
C123 O125 1.256 . S
O124 Cd116 2.381 . S
O124 C123 1.258 . S
O125 Cd116 2.378 . S
O125 C123 1.256 . S
H126 C134 0.929 . S
H127 C136 0.930 . S
H128 C138 0.930 . S
H129 C141 0.929 . S
H130 C144 0.930 . S
H131 C146 0.960 . S
H132 C146 0.960 . S
H133 C146 0.960 . S
C134 H126 0.929 . S
C134 C135 1.377 . S
C134 C136 1.384 . S
C135 C134 1.377 . S
C135 C141 1.390 . S
C136 H127 0.930 . S
C136 C134 1.384 . S
C136 C137 1.372 . S
C137 C136 1.372 . S
C137 C138 1.400 . S
C137 C142 1.490 . S
C138 H128 0.930 . S
C138 C137 1.400 . S
C138 C141 1.386 . S
H139 C155 0.930 . S
H140 C156 0.931 . S
C141 H129 0.929 . S
C141 C135 1.390 . S
C141 C138 1.386 . S
C142 C137 1.490 . S
C142 C144 1.395 . S
C142 C145 1.403 . S
H143 C149 0.930 . S
C144 H130 0.930 . S
C144 C142 1.395 . S
C144 C147 1.403 . S
C145 C142 1.403 . S
C145 C146 1.524 . S
C145 C149 1.400 . S
C146 H131 0.960 . S
C146 H132 0.960 . S
C146 H133 0.960 . S
C146 C145 1.524 . S
C147 C144 1.403 . S
C147 C148 1.392 . S
C147 C151 1.495 . S
C148 C147 1.392 . S
C148 C149 1.385 . S
C148 C150 1.478 . S
C149 H143 0.930 . S
C149 C145 1.400 . S
C149 C148 1.385 . S
C150 C148 1.478 . S
C150 C152 1.381 . S
C150 C156 1.383 . S
C151 C147 1.495 . S
C151 H157 0.959 . S
C151 H158 0.961 . S
C151 H159 0.960 . S
C152 C150 1.381 . S
C152 C153 1.394 . S
C152 H160 0.930 . S
C153 C152 1.394 . S
C153 C154 1.383 . S
C153 H161 0.929 . S
C154 C153 1.383 . S
C154 C155 1.377 . S
C155 H139 0.930 . S
C155 C154 1.377 . S
C155 C156 1.379 . S
C156 H140 0.931 . S
C156 C150 1.383 . S
C156 C155 1.379 . S
H157 C151 0.959 . S
H158 C151 0.961 . S
H159 C151 0.960 . S
H160 C152 0.930 . S
H161 C153 0.929 . S
H162 C170 0.929 . S
H163 C172 0.930 . S
H164 C174 0.930 . S
H165 C177 0.929 . S
H166 C180 0.930 . S
H167 C182 0.960 . S
H168 C182 0.960 . S
H169 C182 0.960 . S
C170 H162 0.929 . S
C170 C171 1.377 . S
C170 C172 1.384 . S
C171 C170 1.377 . S
C171 C177 1.390 . S
C172 H163 0.930 . S
C172 C170 1.384 . S
C172 C173 1.372 . S
C173 C172 1.372 . S
C173 C174 1.400 . S
C173 C178 1.490 . S
C174 H164 0.930 . S
C174 C173 1.400 . S
C174 C177 1.386 . S
H175 C191 0.930 . S
H176 C192 0.931 . S
C177 H165 0.929 . S
C177 C171 1.390 . S
C177 C174 1.386 . S
C178 C173 1.490 . S
C178 C180 1.395 . S
C178 C181 1.403 . S
H179 C185 0.930 . S
C180 H166 0.930 . S
C180 C178 1.395 . S
C180 C183 1.403 . S
C181 C178 1.403 . S
C181 C182 1.524 . S
C181 C185 1.400 . S
C182 H167 0.960 . S
C182 H168 0.960 . S
C182 H169 0.960 . S
C182 C181 1.524 . S
C183 C180 1.403 . S
C183 C184 1.392 . S
C183 C187 1.495 . S
C184 C183 1.392 . S
C184 C185 1.385 . S
C184 C186 1.478 . S
C185 H179 0.930 . S
C185 C181 1.400 . S
C185 C184 1.385 . S
C186 C184 1.478 . S
C186 C188 1.381 . S
C186 C192 1.383 . S
C187 C183 1.495 . S
C187 H193 0.959 . S
C187 H194 0.961 . S
C187 H195 0.960 . S
C188 C186 1.381 . S
C188 C189 1.394 . S
C188 H196 0.930 . S
C189 C188 1.394 . S
C189 C190 1.383 . S
C189 H197 0.929 . S
C190 C189 1.383 . S
C190 C191 1.377 . S
C191 H175 0.930 . S
C191 C190 1.377 . S
C191 C192 1.379 . S
C192 H176 0.931 . S
C192 C186 1.383 . S
C192 C191 1.379 . S
H193 C187 0.959 . S
H194 C187 0.961 . S
H195 C187 0.960 . S
H196 C188 0.930 . S
H197 C189 0.929 . S
H198 C206 0.929 . S
H199 C208 0.930 . S
H200 C210 0.930 . S
H201 C213 0.929 . S
H202 C216 0.930 . S
H203 C218 0.960 . S
H204 C218 0.960 . S
H205 C218 0.960 . S
C206 H198 0.929 . S
C206 C207 1.377 . S
C206 C208 1.384 . S
C207 C206 1.377 . S
C207 C213 1.390 . S
C208 H199 0.930 . S
C208 C206 1.384 . S
C208 C209 1.372 . S
C209 C208 1.372 . S
C209 C210 1.400 . S
C209 C214 1.490 . S
C210 H200 0.930 . S
C210 C209 1.400 . S
C210 C213 1.386 . S
H211 C227 0.930 . S
H212 C228 0.931 . S
C213 H201 0.929 . S
C213 C207 1.390 . S
C213 C210 1.386 . S
C214 C209 1.490 . S
C214 C216 1.395 . S
C214 C217 1.403 . S
H215 C221 0.930 . S
C216 H202 0.930 . S
C216 C214 1.395 . S
C216 C219 1.403 . S
C217 C214 1.403 . S
C217 C218 1.524 . S
C217 C221 1.400 . S
C218 H203 0.960 . S
C218 H204 0.960 . S
C218 H205 0.960 . S
C218 C217 1.524 . S
C219 C216 1.403 . S
C219 C220 1.392 . S
C219 C223 1.495 . S
C220 C219 1.392 . S
C220 C221 1.385 . S
C220 C222 1.478 . S
C221 H215 0.930 . S
C221 C217 1.400 . S
C221 C220 1.385 . S
C222 C220 1.478 . S
C222 C224 1.381 . S
C222 C228 1.383 . S
C223 C219 1.495 . S
C223 H229 0.959 . S
C223 H230 0.961 . S
C223 H231 0.960 . S
C224 C222 1.381 . S
C224 C225 1.394 . S
C224 H232 0.930 . S
C225 C224 1.394 . S
C225 C226 1.383 . S
C225 H233 0.929 . S
C226 C225 1.383 . S
C226 C227 1.377 . S
C227 H211 0.930 . S
C227 C226 1.377 . S
C227 C228 1.379 . S
C228 H212 0.931 . S
C228 C222 1.383 . S
C228 C227 1.379 . S
H229 C223 0.959 . S
H230 C223 0.961 . S
H231 C223 0.960 . S
H232 C224 0.930 . S
H233 C225 0.929 . S
H234 C242 0.929 . S
H235 C244 0.930 . S
H236 C246 0.930 . S
H237 C249 0.929 . S
H238 C252 0.930 . S
H239 C254 0.960 . S
H240 C254 0.960 . S
H241 C254 0.960 . S
C242 H234 0.929 . S
C242 C243 1.377 . S
C242 C244 1.384 . S
C243 C242 1.377 . S
C243 C249 1.390 . S
C244 H235 0.930 . S
C244 C242 1.384 . S
C244 C245 1.372 . S
C245 C244 1.372 . S
C245 C246 1.400 . S
C245 C250 1.490 . S
C246 H236 0.930 . S
C246 C245 1.400 . S
C246 C249 1.386 . S
H247 C263 0.930 . S
H248 C264 0.931 . S
C249 H237 0.929 . S
C249 C243 1.390 . S
C249 C246 1.386 . S
C250 C245 1.490 . S
C250 C252 1.395 . S
C250 C253 1.403 . S
H251 C257 0.930 . S
C252 H238 0.930 . S
C252 C250 1.395 . S
C252 C255 1.403 . S
C253 C250 1.403 . S
C253 C254 1.524 . S
C253 C257 1.400 . S
C254 H239 0.960 . S
C254 H240 0.960 . S
C254 H241 0.960 . S
C254 C253 1.524 . S
C255 C252 1.403 . S
C255 C256 1.392 . S
C255 C259 1.495 . S
C256 C255 1.392 . S
C256 C257 1.385 . S
C256 C258 1.478 . S
C257 H251 0.930 . S
C257 C253 1.400 . S
C257 C256 1.385 . S
C258 C256 1.478 . S
C258 C260 1.381 . S
C258 C264 1.383 . S
C259 C255 1.495 . S
C259 H265 0.959 . S
C259 H266 0.961 . S
C259 H267 0.960 . S
C260 C258 1.381 . S
C260 C261 1.394 . S
C260 H268 0.930 . S
C261 C260 1.394 . S
C261 C262 1.383 . S
C261 H269 0.929 . S
C262 C261 1.383 . S
C262 C263 1.377 . S
C263 H247 0.930 . S
C263 C262 1.377 . S
C263 C264 1.379 . S
C264 H248 0.931 . S
C264 C258 1.383 . S
C264 C263 1.379 . S
H265 C259 0.959 . S
H266 C259 0.961 . S
H267 C259 0.960 . S
H268 C260 0.930 . S
H269 C261 0.929 . S
H270 C278 0.929 . S
H271 C280 0.930 . S
H272 C282 0.930 . S
H273 C285 0.929 . S
H274 C288 0.930 . S
H275 C290 0.960 . S
H276 C290 0.960 . S
H277 C290 0.960 . S
C278 H270 0.929 . S
C278 C279 1.377 . S
C278 C280 1.384 . S
C279 C278 1.377 . S
C279 C285 1.390 . S
C280 H271 0.930 . S
C280 C278 1.384 . S
C280 C281 1.372 . S
C281 C280 1.372 . S
C281 C282 1.400 . S
C281 C286 1.490 . S
C282 H272 0.930 . S
C282 C281 1.400 . S
C282 C285 1.386 . S
H283 C299 0.930 . S
H284 C300 0.931 . S
C285 H273 0.929 . S
C285 C279 1.390 . S
C285 C282 1.386 . S
C286 C281 1.490 . S
C286 C288 1.395 . S
C286 C289 1.403 . S
H287 C293 0.930 . S
C288 H274 0.930 . S
C288 C286 1.395 . S
C288 C291 1.403 . S
C289 C286 1.403 . S
C289 C290 1.524 . S
C289 C293 1.400 . S
C290 H275 0.960 . S
C290 H276 0.960 . S
C290 H277 0.960 . S
C290 C289 1.524 . S
C291 C288 1.403 . S
C291 C292 1.392 . S
C291 C295 1.495 . S
C292 C291 1.392 . S
C292 C293 1.385 . S
C292 C294 1.478 . S
C293 H287 0.930 . S
C293 C289 1.400 . S
C293 C292 1.385 . S
C294 C292 1.478 . S
C294 C296 1.381 . S
C294 C300 1.383 . S
C295 C291 1.495 . S
C295 H301 0.959 . S
C295 H302 0.961 . S
C295 H303 0.960 . S
C296 C294 1.381 . S
C296 C297 1.394 . S
C296 H304 0.930 . S
C297 C296 1.394 . S
C297 C298 1.383 . S
C297 H305 0.929 . S
C298 C297 1.383 . S
C298 C299 1.377 . S
C299 H283 0.930 . S
C299 C298 1.377 . S
C299 C300 1.379 . S
C300 H284 0.931 . S
C300 C294 1.383 . S
C300 C299 1.379 . S
H301 C295 0.959 . S
H302 C295 0.961 . S
H303 C295 0.960 . S
H304 C296 0.930 . S
H305 C297 0.929 . S
H306 C314 0.929 . S
H307 C316 0.930 . S
H308 C318 0.930 . S
H309 C321 0.929 . S
H310 C324 0.930 . S
H311 C326 0.960 . S
H312 C326 0.960 . S
H313 C326 0.960 . S
C314 H306 0.929 . S
C314 C315 1.377 . S
C314 C316 1.384 . S
C315 C314 1.377 . S
C315 C321 1.390 . S
C316 H307 0.930 . S
C316 C314 1.384 . S
C316 C317 1.372 . S
C317 C316 1.372 . S
C317 C318 1.400 . S
C317 C322 1.490 . S
C318 H308 0.930 . S
C318 C317 1.400 . S
C318 C321 1.386 . S
H319 C335 0.930 . S
H320 C336 0.931 . S
C321 H309 0.929 . S
C321 C315 1.390 . S
C321 C318 1.386 . S
C322 C317 1.490 . S
C322 C324 1.395 . S
C322 C325 1.403 . S
H323 C329 0.930 . S
C324 H310 0.930 . S
C324 C322 1.395 . S
C324 C327 1.403 . S
C325 C322 1.403 . S
C325 C326 1.524 . S
C325 C329 1.400 . S
C326 H311 0.960 . S
C326 H312 0.960 . S
C326 H313 0.960 . S
C326 C325 1.524 . S
C327 C324 1.403 . S
C327 C328 1.392 . S
C327 C331 1.495 . S
C328 C327 1.392 . S
C328 C329 1.385 . S
C328 C330 1.478 . S
C329 H323 0.930 . S
C329 C325 1.400 . S
C329 C328 1.385 . S
C330 C328 1.478 . S
C330 C332 1.381 . S
C330 C336 1.383 . S
C331 C327 1.495 . S
C331 H337 0.959 . S
C331 H338 0.961 . S
C331 H339 0.960 . S
C332 C330 1.381 . S
C332 C333 1.394 . S
C332 H340 0.930 . S
C333 C332 1.394 . S
C333 C334 1.383 . S
C333 H341 0.929 . S
C334 C333 1.383 . S
C334 C335 1.377 . S
C335 H319 0.930 . S
C335 C334 1.377 . S
C335 C336 1.379 . S
C336 H320 0.931 . S
C336 C330 1.383 . S
C336 C335 1.379 . S
H337 C331 0.959 . S
H338 C331 0.961 . S
H339 C331 0.960 . S
H340 C332 0.930 . S
H341 C333 0.929 . S
H342 C350 0.929 . S
H343 C352 0.930 . S
H344 C354 0.930 . S
H345 C357 0.929 . S
H346 C360 0.930 . S
H347 C362 0.960 . S
H348 C362 0.960 . S
H349 C362 0.960 . S
C350 H342 0.929 . S
C350 C351 1.377 . S
C350 C352 1.384 . S
C351 C350 1.377 . S
C351 C357 1.390 . S
C352 H343 0.930 . S
C352 C350 1.384 . S
C352 C353 1.372 . S
C353 C352 1.372 . S
C353 C354 1.400 . S
C353 C358 1.490 . S
C354 H344 0.930 . S
C354 C353 1.400 . S
C354 C357 1.386 . S
H355 C371 0.930 . S
H356 C372 0.931 . S
C357 H345 0.929 . S
C357 C351 1.390 . S
C357 C354 1.386 . S
C358 C353 1.490 . S
C358 C360 1.395 . S
C358 C361 1.403 . S
H359 C365 0.930 . S
C360 H346 0.930 . S
C360 C358 1.395 . S
C360 C363 1.403 . S
C361 C358 1.403 . S
C361 C362 1.524 . S
C361 C365 1.400 . S
C362 H347 0.960 . S
C362 H348 0.960 . S
C362 H349 0.960 . S
C362 C361 1.524 . S
C363 C360 1.403 . S
C363 C364 1.392 . S
C363 C367 1.495 . S
C364 C363 1.392 . S
C364 C365 1.385 . S
C364 C366 1.478 . S
C365 H359 0.930 . S
C365 C361 1.400 . S
C365 C364 1.385 . S
C366 C364 1.478 . S
C366 C368 1.381 . S
C366 C372 1.383 . S
C367 C363 1.495 . S
C367 H373 0.959 . S
C367 H374 0.961 . S
C367 H375 0.960 . S
C368 C366 1.381 . S
C368 C369 1.394 . S
C368 H376 0.930 . S
C369 C368 1.394 . S
C369 C370 1.383 . S
C369 H377 0.929 . S
C370 C369 1.383 . S
C370 C371 1.377 . S
C371 H355 0.930 . S
C371 C370 1.377 . S
C371 C372 1.379 . S
C372 H356 0.931 . S
C372 C366 1.383 . S
C372 C371 1.379 . S
H373 C367 0.959 . S
H374 C367 0.961 . S
H375 C367 0.960 . S
H376 C368 0.930 . S
H377 C369 0.929 . S
H378 C386 0.929 . S
H379 C388 0.930 . S
H380 C390 0.930 . S
H381 C393 0.929 . S
H382 C396 0.930 . S
H383 C398 0.960 . S
H384 C398 0.960 . S
H385 C398 0.960 . S
C386 H378 0.929 . S
C386 C387 1.377 . S
C386 C388 1.384 . S
C387 C386 1.377 . S
C387 C393 1.390 . S
C388 H379 0.930 . S
C388 C386 1.384 . S
C388 C389 1.372 . S
C389 C388 1.372 . S
C389 C390 1.400 . S
C389 C394 1.490 . S
C390 H380 0.930 . S
C390 C389 1.400 . S
C390 C393 1.386 . S
H391 C407 0.930 . S
H392 C408 0.931 . S
C393 H381 0.929 . S
C393 C387 1.390 . S
C393 C390 1.386 . S
C394 C389 1.490 . S
C394 C396 1.395 . S
C394 C397 1.403 . S
H395 C401 0.930 . S
C396 H382 0.930 . S
C396 C394 1.395 . S
C396 C399 1.403 . S
C397 C394 1.403 . S
C397 C398 1.524 . S
C397 C401 1.400 . S
C398 H383 0.960 . S
C398 H384 0.960 . S
C398 H385 0.960 . S
C398 C397 1.524 . S
C399 C396 1.403 . S
C399 C400 1.392 . S
C399 C403 1.495 . S
C400 C399 1.392 . S
C400 C401 1.385 . S
C400 C402 1.478 . S
C401 H395 0.930 . S
C401 C397 1.400 . S
C401 C400 1.385 . S
C402 C400 1.478 . S
C402 C404 1.381 . S
C402 C408 1.383 . S
C403 C399 1.495 . S
C403 H409 0.959 . S
C403 H410 0.961 . S
C403 H411 0.960 . S
C404 C402 1.381 . S
C404 C405 1.394 . S
C404 H412 0.930 . S
C405 C404 1.394 . S
C405 C406 1.383 . S
C405 H413 0.929 . S
C406 C405 1.383 . S
C406 C407 1.377 . S
C407 H391 0.930 . S
C407 C406 1.377 . S
C407 C408 1.379 . S
C408 H392 0.931 . S
C408 C402 1.383 . S
C408 C407 1.379 . S
H409 C403 0.959 . S
H410 C403 0.961 . S
H411 C403 0.960 . S
H412 C404 0.930 . S
H413 C405 0.929 . S
H414 C422 0.929 . S
H415 C424 0.930 . S
H416 C426 0.930 . S
H417 C429 0.929 . S
H418 C432 0.930 . S
H419 C434 0.960 . S
H420 C434 0.960 . S
H421 C434 0.960 . S
C422 H414 0.929 . S
C422 C423 1.377 . S
C422 C424 1.384 . S
C423 C422 1.377 . S
C423 C429 1.390 . S
C424 H415 0.930 . S
C424 C422 1.384 . S
C424 C425 1.372 . S
C425 C424 1.372 . S
C425 C426 1.400 . S
C425 C430 1.490 . S
C426 H416 0.930 . S
C426 C425 1.400 . S
C426 C429 1.386 . S
H427 C443 0.930 . S
H428 C444 0.931 . S
C429 H417 0.929 . S
C429 C423 1.390 . S
C429 C426 1.386 . S
C430 C425 1.490 . S
C430 C432 1.395 . S
C430 C433 1.403 . S
H431 C437 0.930 . S
C432 H418 0.930 . S
C432 C430 1.395 . S
C432 C435 1.403 . S
C433 C430 1.403 . S
C433 C434 1.524 . S
C433 C437 1.400 . S
C434 H419 0.960 . S
C434 H420 0.960 . S
C434 H421 0.960 . S
C434 C433 1.524 . S
C435 C432 1.403 . S
C435 C436 1.392 . S
C435 C439 1.495 . S
C436 C435 1.392 . S
C436 C437 1.385 . S
C436 C438 1.478 . S
C437 H431 0.930 . S
C437 C433 1.400 . S
C437 C436 1.385 . S
C438 C436 1.478 . S
C438 C440 1.381 . S
C438 C444 1.383 . S
C439 C435 1.495 . S
C439 H445 0.959 . S
C439 H446 0.961 . S
C439 H447 0.960 . S
C440 C438 1.381 . S
C440 C441 1.394 . S
C440 H448 0.930 . S
C441 C440 1.394 . S
C441 C442 1.383 . S
C441 H449 0.929 . S
C442 C441 1.383 . S
C442 C443 1.377 . S
C443 H427 0.930 . S
C443 C442 1.377 . S
C443 C444 1.379 . S
C444 H428 0.931 . S
C444 C438 1.383 . S
C444 C443 1.379 . S
H445 C439 0.959 . S
H446 C439 0.961 . S
H447 C439 0.960 . S
H448 C440 0.930 . S
H449 C441 0.929 . S
H450 C458 0.929 . S
H451 C460 0.930 . S
H452 C462 0.930 . S
H453 C465 0.929 . S
H454 C468 0.930 . S
H455 C470 0.960 . S
H456 C470 0.960 . S
H457 C470 0.960 . S
C458 H450 0.929 . S
C458 C459 1.377 . S
C458 C460 1.384 . S
C459 C458 1.377 . S
C459 C465 1.390 . S
C460 H451 0.930 . S
C460 C458 1.384 . S
C460 C461 1.372 . S
C461 C460 1.372 . S
C461 C462 1.400 . S
C461 C466 1.490 . S
C462 H452 0.930 . S
C462 C461 1.400 . S
C462 C465 1.386 . S
H463 C479 0.930 . S
H464 C480 0.931 . S
C465 H453 0.929 . S
C465 C459 1.390 . S
C465 C462 1.386 . S
C466 C461 1.490 . S
C466 C468 1.395 . S
C466 C469 1.403 . S
H467 C473 0.930 . S
C468 H454 0.930 . S
C468 C466 1.395 . S
C468 C471 1.403 . S
C469 C466 1.403 . S
C469 C470 1.524 . S
C469 C473 1.400 . S
C470 H455 0.960 . S
C470 H456 0.960 . S
C470 H457 0.960 . S
C470 C469 1.524 . S
C471 C468 1.403 . S
C471 C472 1.392 . S
C471 C475 1.495 . S
C472 C471 1.392 . S
C472 C473 1.385 . S
C472 C474 1.478 . S
C473 H467 0.930 . S
C473 C469 1.400 . S
C473 C472 1.385 . S
C474 C472 1.478 . S
C474 C476 1.381 . S
C474 C480 1.383 . S
C475 C471 1.495 . S
C475 H481 0.959 . S
C475 H482 0.961 . S
C475 H483 0.960 . S
C476 C474 1.381 . S
C476 C477 1.394 . S
C476 H484 0.930 . S
C477 C476 1.394 . S
C477 C478 1.383 . S
C477 H485 0.929 . S
C478 C477 1.383 . S
C478 C479 1.377 . S
C479 H463 0.930 . S
C479 C478 1.377 . S
C479 C480 1.379 . S
C480 H464 0.931 . S
C480 C474 1.383 . S
C480 C479 1.379 . S
H481 C475 0.959 . S
H482 C475 0.961 . S
H483 C475 0.960 . S
H484 C476 0.930 . S
H485 C477 0.929 . S
H486 C494 0.929 . S
H487 C496 0.930 . S
H488 C498 0.930 . S
H489 C501 0.929 . S
H490 C504 0.930 . S
H491 C506 0.960 . S
H492 C506 0.960 . S
H493 C506 0.960 . S
C494 H486 0.929 . S
C494 C495 1.377 . S
C494 C496 1.384 . S
C495 C494 1.377 . S
C495 C501 1.390 . S
C496 H487 0.930 . S
C496 C494 1.384 . S
C496 C497 1.372 . S
C497 C496 1.372 . S
C497 C498 1.400 . S
C497 C502 1.490 . S
C498 H488 0.930 . S
C498 C497 1.400 . S
C498 C501 1.386 . S
H499 C515 0.930 . S
H500 C516 0.931 . S
C501 H489 0.929 . S
C501 C495 1.390 . S
C501 C498 1.386 . S
C502 C497 1.490 . S
C502 C504 1.395 . S
C502 C505 1.403 . S
H503 C509 0.930 . S
C504 H490 0.930 . S
C504 C502 1.395 . S
C504 C507 1.403 . S
C505 C502 1.403 . S
C505 C506 1.524 . S
C505 C509 1.400 . S
C506 H491 0.960 . S
C506 H492 0.960 . S
C506 H493 0.960 . S
C506 C505 1.524 . S
C507 C504 1.403 . S
C507 C508 1.392 . S
C507 C511 1.495 . S
C508 C507 1.392 . S
C508 C509 1.385 . S
C508 C510 1.478 . S
C509 H503 0.930 . S
C509 C505 1.400 . S
C509 C508 1.385 . S
C510 C508 1.478 . S
C510 C512 1.381 . S
C510 C516 1.383 . S
C511 C507 1.495 . S
C511 H517 0.959 . S
C511 H518 0.961 . S
C511 H519 0.960 . S
C512 C510 1.381 . S
C512 C513 1.394 . S
C512 H520 0.930 . S
C513 C512 1.394 . S
C513 C514 1.383 . S
C513 H521 0.929 . S
C514 C513 1.383 . S
C514 C515 1.377 . S
C515 H499 0.930 . S
C515 C514 1.377 . S
C515 C516 1.379 . S
C516 H500 0.931 . S
C516 C510 1.383 . S
C516 C515 1.379 . S
H517 C511 0.959 . S
H518 C511 0.961 . S
H519 C511 0.960 . S
H520 C512 0.930 . S
H521 C513 0.929 . S
H522 C530 0.929 . S
H523 C532 0.930 . S
H524 C534 0.930 . S
H525 C537 0.929 . S
H526 C540 0.930 . S
H527 C542 0.960 . S
H528 C542 0.960 . S
H529 C542 0.960 . S
C530 H522 0.929 . S
C530 C531 1.377 . S
C530 C532 1.384 . S
C531 C530 1.377 . S
C531 C537 1.390 . S
C532 H523 0.930 . S
C532 C530 1.384 . S
C532 C533 1.372 . S
C533 C532 1.372 . S
C533 C534 1.400 . S
C533 C538 1.490 . S
C534 H524 0.930 . S
C534 C533 1.400 . S
C534 C537 1.386 . S
H535 C551 0.930 . S
H536 C552 0.931 . S
C537 H525 0.929 . S
C537 C531 1.390 . S
C537 C534 1.386 . S
C538 C533 1.490 . S
C538 C540 1.395 . S
C538 C541 1.403 . S
H539 C545 0.930 . S
C540 H526 0.930 . S
C540 C538 1.395 . S
C540 C543 1.403 . S
C541 C538 1.403 . S
C541 C542 1.524 . S
C541 C545 1.400 . S
C542 H527 0.960 . S
C542 H528 0.960 . S
C542 H529 0.960 . S
C542 C541 1.524 . S
C543 C540 1.403 . S
C543 C544 1.392 . S
C543 C547 1.495 . S
C544 C543 1.392 . S
C544 C545 1.385 . S
C544 C546 1.478 . S
C545 H539 0.930 . S
C545 C541 1.400 . S
C545 C544 1.385 . S
C546 C544 1.478 . S
C546 C548 1.381 . S
C546 C552 1.383 . S
C547 C543 1.495 . S
C547 H553 0.959 . S
C547 H554 0.961 . S
C547 H555 0.960 . S
C548 C546 1.381 . S
C548 C549 1.394 . S
C548 H556 0.930 . S
C549 C548 1.394 . S
C549 C550 1.383 . S
C549 H557 0.929 . S
C550 C549 1.383 . S
C550 C551 1.377 . S
C551 H535 0.930 . S
C551 C550 1.377 . S
C551 C552 1.379 . S
C552 H536 0.931 . S
C552 C546 1.383 . S
C552 C551 1.379 . S
H553 C547 0.959 . S
H554 C547 0.961 . S
H555 C547 0.960 . S
H556 C548 0.930 . S
H557 C549 0.929 . S
H558 C566 0.929 . S
H559 C568 0.930 . S
H560 C570 0.930 . S
H561 C573 0.929 . S
H562 C576 0.930 . S
H563 C578 0.960 . S
H564 C578 0.960 . S
H565 C578 0.960 . S
C566 H558 0.929 . S
C566 C567 1.377 . S
C566 C568 1.384 . S
C567 C566 1.377 . S
C567 C573 1.390 . S
C568 H559 0.930 . S
C568 C566 1.384 . S
C568 C569 1.372 . S
C569 C568 1.372 . S
C569 C570 1.400 . S
C569 C574 1.490 . S
C570 H560 0.930 . S
C570 C569 1.400 . S
C570 C573 1.386 . S
H571 C587 0.930 . S
H572 C588 0.931 . S
C573 H561 0.929 . S
C573 C567 1.390 . S
C573 C570 1.386 . S
C574 C569 1.490 . S
C574 C576 1.395 . S
C574 C577 1.403 . S
H575 C581 0.930 1_656 S
C576 H562 0.930 . S
C576 C574 1.395 . S
C576 C579 1.403 . S
C577 C574 1.403 . S
C577 C578 1.524 1_455 S
C577 C581 1.400 . S
C578 H563 0.960 . S
C578 H564 0.960 . S
C578 H565 0.960 . S
C578 C577 1.524 1_655 S
C579 C576 1.403 . S
C579 C580 1.392 1_554 S
C579 C583 1.486 1_554 S
C580 C579 1.392 1_556 S
C580 C581 1.385 1_556 S
C580 C582 1.478 . S
C581 H575 0.930 1_454 S
C581 C577 1.400 . S
C581 C580 1.385 1_554 S
C582 C580 1.478 . S
C582 C584 1.381 . S
C582 C588 1.383 . S
C583 C579 1.486 1_556 S
C583 H589 0.940 1_556 S
C583 H590 0.977 . S
C583 H591 0.973 . S
C584 C582 1.381 . S
C584 C585 1.394 . S
C584 H592 0.930 . S
C585 C584 1.394 . S
C585 C586 1.383 . S
C585 H593 0.929 . S
C586 C585 1.383 . S
C586 C587 1.377 . S
C587 H571 0.930 . S
C587 C586 1.377 . S
C587 C588 1.379 . S
C588 H572 0.931 . S
C588 C582 1.383 . S
C588 C587 1.379 . S
H589 C583 0.940 1_554 S
H590 C583 0.977 . S
H591 C583 0.973 . S
H592 C584 0.930 . S
H593 C585 0.929 . S
H594 C602 0.929 . S
H595 C604 0.930 . S
H596 C606 0.930 . S
H597 C609 0.929 . S
H598 C612 0.930 . S
H599 C614 0.960 . S
H600 C614 0.960 . S
H601 C614 0.960 . S
C602 H594 0.929 . S
C602 C603 1.377 . S
C602 C604 1.384 . S
C603 C602 1.377 . S
C603 C609 1.390 . S
C604 H595 0.930 . S
C604 C602 1.384 . S
C604 C605 1.372 . S
C605 C604 1.372 . S
C605 C606 1.400 . S
C605 C610 1.490 . S
C606 H596 0.930 . S
C606 C605 1.400 . S
C606 C609 1.386 . S
H607 C623 0.930 . S
H608 C624 0.931 . S
C609 H597 0.929 . S
C609 C603 1.390 . S
C609 C606 1.386 . S
C610 C605 1.490 . S
C610 C612 1.395 . S
C610 C613 1.403 1_545 S
H611 C617 0.930 . S
C612 H598 0.930 . S
C612 C610 1.395 . S
C612 C615 1.403 . S
C613 C610 1.403 1_565 S
C613 C614 1.524 . S
C613 C617 1.400 . S
C614 H599 0.960 . S
C614 H600 0.960 . S
C614 H601 0.960 . S
C614 C613 1.524 . S
C615 C612 1.403 . S
C615 C616 1.392 . S
C615 C619 1.495 . S
C616 C615 1.392 . S
C616 C617 1.385 1_545 S
C616 C618 1.478 . S
C617 H611 0.930 . S
C617 C613 1.400 . S
C617 C616 1.385 1_565 S
C618 C616 1.478 . S
C618 C620 1.381 . S
C618 C624 1.383 . S
C619 C615 1.495 . S
C619 H625 0.959 . S
C619 H626 0.961 . S
C619 H627 0.960 . S
C620 C618 1.381 . S
C620 C621 1.394 . S
C620 H628 0.930 . S
C621 C620 1.394 . S
C621 C622 1.383 . S
C621 H629 0.929 . S
C622 C621 1.383 . S
C622 C623 1.377 . S
C623 H607 0.930 . S
C623 C622 1.377 . S
C623 C624 1.379 . S
C624 H608 0.931 . S
C624 C618 1.383 . S
C624 C623 1.379 . S
H625 C619 0.959 . S
H626 C619 0.961 . S
H627 C619 0.960 . S
H628 C620 0.930 . S
H629 C621 0.929 . S
H630 C638 0.929 . S
H631 C640 0.930 . S
H632 C642 0.930 . S
H633 C645 0.929 . S
H634 C648 0.930 . S
H635 C650 0.960 . S
H636 C650 0.960 . S
H637 C650 0.960 . S
C638 H630 0.929 . S
C638 C639 1.377 . S
C638 C640 1.384 . S
C639 C638 1.377 . S
C639 C645 1.390 . S
C640 H631 0.930 . S
C640 C638 1.384 . S
C640 C641 1.372 . S
C641 C640 1.372 . S
C641 C642 1.400 . S
C641 C646 1.490 . S
C642 H632 0.930 . S
C642 C641 1.400 . S
C642 C645 1.386 . S
H643 C659 0.930 . S
H644 C660 0.931 . S
C645 H633 0.929 . S
C645 C639 1.390 . S
C645 C642 1.386 . S
C646 C641 1.490 . S
C646 C648 1.395 . S
C646 C649 1.403 . S
H647 C653 0.930 . S
C648 H634 0.930 . S
C648 C646 1.395 . S
C648 C651 1.403 . S
C649 C646 1.403 . S
C649 C650 1.524 . S
C649 C653 1.400 . S
C650 H635 0.960 . S
C650 H636 0.960 . S
C650 H637 0.960 . S
C650 C649 1.524 . S
C651 C648 1.403 . S
C651 C652 1.392 . S
C651 C655 1.495 . S
C652 C651 1.392 . S
C652 C653 1.385 . S
C652 C654 1.478 . S
C653 H647 0.930 . S
C653 C649 1.400 . S
C653 C652 1.385 . S
C654 C652 1.478 . S
C654 C656 1.381 . S
C654 C660 1.383 . S
C655 C651 1.495 . S
C655 H661 0.959 . S
C655 H662 0.961 . S
C655 H663 0.960 . S
C656 C654 1.381 . S
C656 C657 1.394 . S
C656 H664 0.930 . S
C657 C656 1.394 . S
C657 C658 1.383 . S
C657 H665 0.929 . S
C658 C657 1.383 . S
C658 C659 1.377 . S
C659 H643 0.930 . S
C659 C658 1.377 . S
C659 C660 1.379 . S
C660 H644 0.931 . S
C660 C654 1.383 . S
C660 C659 1.379 . S
H661 C655 0.959 . S
H662 C655 0.961 . S
H663 C655 0.960 . S
H664 C656 0.930 . S
H665 C657 0.929 . S
H666 C674 0.929 . S
H667 C676 0.930 . S
H668 C678 0.930 . S
H669 C681 0.929 . S
H670 C684 0.930 . S
H671 C686 0.960 . S
H672 C686 0.960 . S
H673 C686 0.960 . S
C674 H666 0.929 . S
C674 C675 1.377 . S
C674 C676 1.384 . S
C675 C674 1.377 . S
C675 C681 1.390 . S
C676 H667 0.930 . S
C676 C674 1.384 . S
C676 C677 1.372 . S
C677 C676 1.372 . S
C677 C678 1.400 . S
C677 C682 1.490 . S
C678 H668 0.930 . S
C678 C677 1.400 . S
C678 C681 1.386 . S
H679 C695 0.930 . S
H680 C696 0.931 . S
C681 H669 0.929 . S
C681 C675 1.390 . S
C681 C678 1.386 . S
C682 C677 1.490 . S
C682 C684 1.395 . S
C682 C685 1.403 . S
H683 C689 0.930 1_565 S
C684 H670 0.930 . S
C684 C682 1.395 . S
C684 C687 1.403 . S
C685 C682 1.403 . S
C685 C686 1.524 1_545 S
C685 C689 1.400 . S
C686 H671 0.960 . S
C686 H672 0.960 . S
C686 H673 0.960 . S
C686 C685 1.524 1_565 S
C687 C684 1.403 . S
C687 C688 1.392 . S
C687 C691 1.495 . S
C688 C687 1.392 . S
C688 C689 1.385 . S
C688 C690 1.478 . S
C689 H683 0.930 1_545 S
C689 C685 1.400 . S
C689 C688 1.385 . S
C690 C688 1.478 . S
C690 C692 1.381 . S
C690 C696 1.383 . S
C691 C687 1.495 . S
C691 H697 0.959 . S
C691 H698 0.961 . S
C691 H699 0.960 . S
C692 C690 1.381 . S
C692 C693 1.394 . S
C692 H700 0.930 . S
C693 C692 1.394 . S
C693 C694 1.383 . S
C693 H701 0.929 . S
C694 C693 1.383 . S
C694 C695 1.377 . S
C695 H679 0.930 . S
C695 C694 1.377 . S
C695 C696 1.379 . S
C696 H680 0.931 . S
C696 C690 1.383 . S
C696 C695 1.379 . S
H697 C691 0.959 . S
H698 C691 0.961 . S
H699 C691 0.960 . S
H700 C692 0.930 . S
H701 C693 0.929 . S
H702 C710 0.929 . S
H703 C712 0.930 . S
H704 C714 0.930 . S
H705 C717 0.929 . S
H706 C720 0.930 . S
H707 C722 0.960 . S
H708 C722 0.960 . S
H709 C722 0.960 . S
C710 H702 0.929 . S
C710 C711 1.377 . S
C710 C712 1.384 . S
C711 C710 1.377 . S
C711 C717 1.390 . S
C712 H703 0.930 . S
C712 C710 1.384 . S
C712 C713 1.372 . S
C713 C712 1.372 . S
C713 C714 1.400 . S
C713 C718 1.490 . S
C714 H704 0.930 . S
C714 C713 1.400 . S
C714 C717 1.386 . S
H715 C731 0.930 . S
H716 C732 0.931 . S
C717 H705 0.929 . S
C717 C711 1.390 . S
C717 C714 1.386 . S
C718 C713 1.490 . S
C718 C720 1.395 . S
C718 C721 1.403 . S
H719 C725 0.930 1_554 S
C720 H706 0.930 . S
C720 C718 1.395 . S
C720 C723 1.403 . S
C721 C718 1.403 . S
C721 C722 1.524 . S
C721 C725 1.400 . S
C722 H707 0.960 . S
C722 H708 0.960 . S
C722 H709 0.960 . S
C722 C721 1.524 . S
C723 C720 1.403 . S
C723 C724 1.392 1_556 S
C723 C727 1.495 1_556 S
C724 C723 1.392 1_554 S
C724 C725 1.385 1_554 S
C724 C726 1.478 . S
C725 H719 0.930 1_556 S
C725 C721 1.400 . S
C725 C724 1.385 1_556 S
C726 C724 1.478 . S
C726 C728 1.381 . S
C726 C732 1.383 . S
C727 C723 1.495 1_554 S
C727 H733 0.959 1_554 S
C727 H734 0.961 . S
C727 H735 0.960 . S
C728 C726 1.381 . S
C728 C729 1.394 . S
C728 H736 0.930 . S
C729 C728 1.394 . S
C729 C730 1.383 . S
C729 H737 0.929 . S
C730 C729 1.383 . S
C730 C731 1.377 . S
C731 H715 0.930 . S
C731 C730 1.377 . S
C731 C732 1.379 . S
C732 H716 0.931 . S
C732 C726 1.383 . S
C732 C731 1.379 . S
H733 C727 0.959 1_556 S
H734 C727 0.961 . S
H735 C727 0.960 . S
H736 C728 0.930 . S
H737 C729 0.929 . S
H738 C746 0.929 . S
H739 C748 0.930 . S
H740 C750 0.930 . S
H741 C753 0.929 . S
H742 C756 0.930 . S
H743 C758 0.960 . S
H744 C758 0.960 . S
H745 C758 0.960 . S
C746 H738 0.929 . S
C746 C747 1.377 1_655 S
C746 C748 1.384 . S
C747 C746 1.377 1_455 S
C747 C753 1.390 . S
C748 H739 0.930 . S
C748 C746 1.384 . S
C748 C749 1.372 1_655 S
C749 C748 1.372 1_455 S
C749 C750 1.400 . S
C749 C754 1.490 . S
C750 H740 0.930 . S
C750 C749 1.400 . S
C750 C753 1.386 . S
H751 C767 0.930 . S
H752 C768 0.931 . S
C753 H741 0.929 . S
C753 C747 1.390 . S
C753 C750 1.386 . S
C754 C749 1.490 . S
C754 C756 1.395 1_455 S
C754 C757 1.403 . S
H755 C761 0.930 . S
C756 H742 0.930 . S
C756 C754 1.395 1_655 S
C756 C759 1.403 . S
C757 C754 1.403 . S
C757 C758 1.524 . S
C757 C761 1.400 . S
C758 H743 0.960 . S
C758 H744 0.960 . S
C758 H745 0.960 . S
C758 C757 1.524 . S
C759 C756 1.403 . S
C759 C760 1.401 . S
C759 C763 1.495 . S
C760 C759 1.401 . S
C760 C761 1.374 1_655 S
C760 C762 1.479 . S
C761 H755 0.930 . S
C761 C757 1.400 . S
C761 C760 1.374 1_455 S
C762 C760 1.479 . S
C762 C764 1.381 . S
C762 C768 1.383 1_655 S
C763 C759 1.495 . S
C763 H769 0.959 . S
C763 H770 0.961 . S
C763 H771 0.960 . S
C764 C762 1.381 . S
C764 C765 1.394 . S
C764 H772 0.930 . S
C765 C764 1.394 . S
C765 C766 1.383 . S
C765 H773 0.929 . S
C766 C765 1.383 . S
C766 C767 1.377 1_655 S
C767 H751 0.930 . S
C767 C766 1.377 1_455 S
C767 C768 1.379 . S
C768 H752 0.931 . S
C768 C762 1.383 1_455 S
C768 C767 1.379 . S
H769 C763 0.959 . S
H770 C763 0.961 . S
H771 C763 0.960 . S
H772 C764 0.930 . S
H773 C765 0.929 . S
C135 C2 1.231 . S
C154 C120 1.039 . S
C171 C21 1.139 . S
C190 C98 1.048 . S
C207 C42 0.889 . S
C226 C112 0.914 . S
C243 C1 0.792 . S
C262 C123 0.757 . S
C298 C101 0.859 . S
C279 C22 0.879 . S
C334 C109 0.953 . S
C315 C41 1.127 . S
C351 C38 2.016 . S
C370 C76 1.736 . S
C387 C59 2.116 . S
C406 C87 1.836 . S
C423 C18 2.016 . S
C442 C65 1.782 . S
C478 C79 1.701 . S
C459 C39 1.754 . S
C514 C90 1.639 . S
C495 C58 1.660 . S
C531 C19 1.754 . S
C550 C68 1.684 . S
C586 C89 1.498 . S
C567 C9 1.506 . S
C603 C29 1.528 . S
C622 C67 1.505 . S
C639 C49 1.518 . S
C658 C78 1.532 . S
C694 C111 1.405 . S
C675 C28 1.428 . S
C730 C122 1.377 . S
C711 C48 1.429 . S
C747 C8 1.427 . S
C766 C100 1.419 1_655 S
