# Generated by pormake.
# Topology ocu, (6,8)-cn, num edge types: 1
# Building blocks:
#     Node 0, Type 0, BuildingBlock: KUMJIN_clean_sbu_1, # of connection points: 6
#     Node 1, Type 0, BuildingBlock: KUMJIN_clean_sbu_1, # of connection points: 6
#     Node 2, Type 0, BuildingBlock: KUMJIN_clean_sbu_1, # of connection points: 6
#     Node 3, Type 0, BuildingBlock: KUMJIN_clean_sbu_1, # of connection points: 6
#     Node 4, Type 0, BuildingBlock: KUMJIN_clean_sbu_1, # of connection points: 6
#     Node 5, Type 0, BuildingBlock: KUMJIN_clean_sbu_1, # of connection points: 6
#     Node 6, Type 0, BuildingBlock: KUMJIN_clean_sbu_1, # of connection points: 6
#     Node 7, Type 0, BuildingBlock: KUMJIN_clean_sbu_1, # of connection points: 6
#     Node 8, Type 1, BuildingBlock: TAGTUT_clean_sbu_1, # of connection points: 8
#     Node 9, Type 1, BuildingBlock: TAGTUT_clean_sbu_1, # of connection points: 8
#     Node 10, Type 1, BuildingBlock: TAGTUT_clean_sbu_1, # of connection points: 8
#     Node 11, Type 1, BuildingBlock: TAGTUT_clean_sbu_1, # of connection points: 8
#     Node 12, Type 1, BuildingBlock: TAGTUT_clean_sbu_1, # of connection points: 8
#     Node 13, Type 1, BuildingBlock: TAGTUT_clean_sbu_1, # of connection points: 8
#     Edge 14, Type (0, 1), BuildingBlock: XUDNAN_clean_linker_2, # of connection points: 2
#     Edge 15, Type (0, 1), BuildingBlock: XUDNAN_clean_linker_2, # of connection points: 2
#     Edge 16, Type (0, 1), BuildingBlock: XUDNAN_clean_linker_2, # of connection points: 2
#     Edge 17, Type (0, 1), BuildingBlock: XUDNAN_clean_linker_2, # of connection points: 2
#     Edge 18, Type (0, 1), BuildingBlock: XUDNAN_clean_linker_2, # of connection points: 2
#     Edge 19, Type (0, 1), BuildingBlock: XUDNAN_clean_linker_2, # of connection points: 2
#     Edge 20, Type (0, 1), BuildingBlock: XUDNAN_clean_linker_2, # of connection points: 2
#     Edge 21, Type (0, 1), BuildingBlock: XUDNAN_clean_linker_2, # of connection points: 2
#     Edge 22, Type (0, 1), BuildingBlock: XUDNAN_clean_linker_2, # of connection points: 2
#     Edge 23, Type (0, 1), BuildingBlock: XUDNAN_clean_linker_2, # of connection points: 2
#     Edge 24, Type (0, 1), BuildingBlock: XUDNAN_clean_linker_2, # of connection points: 2
#     Edge 25, Type (0, 1), BuildingBlock: XUDNAN_clean_linker_2, # of connection points: 2
#     Edge 26, Type (0, 1), BuildingBlock: XUDNAN_clean_linker_2, # of connection points: 2
#     Edge 27, Type (0, 1), BuildingBlock: XUDNAN_clean_linker_2, # of connection points: 2
#     Edge 28, Type (0, 1), BuildingBlock: XUDNAN_clean_linker_2, # of connection points: 2
#     Edge 29, Type (0, 1), BuildingBlock: XUDNAN_clean_linker_2, # of connection points: 2
#     Edge 30, Type (0, 1), BuildingBlock: XUDNAN_clean_linker_2, # of connection points: 2
#     Edge 31, Type (0, 1), BuildingBlock: XUDNAN_clean_linker_2, # of connection points: 2
#     Edge 32, Type (0, 1), BuildingBlock: XUDNAN_clean_linker_2, # of connection points: 2
#     Edge 33, Type (0, 1), BuildingBlock: XUDNAN_clean_linker_2, # of connection points: 2
#     Edge 34, Type (0, 1), BuildingBlock: XUDNAN_clean_linker_2, # of connection points: 2
#     Edge 35, Type (0, 1), BuildingBlock: XUDNAN_clean_linker_2, # of connection points: 2
#     Edge 36, Type (0, 1), BuildingBlock: XUDNAN_clean_linker_2, # of connection points: 2
#     Edge 37, Type (0, 1), BuildingBlock: XUDNAN_clean_linker_2, # of connection points: 2
#     Edge 38, Type (0, 1), BuildingBlock: XUDNAN_clean_linker_2, # of connection points: 2
#     Edge 39, Type (0, 1), BuildingBlock: XUDNAN_clean_linker_2, # of connection points: 2
#     Edge 40, Type (0, 1), BuildingBlock: XUDNAN_clean_linker_2, # of connection points: 2
#     Edge 41, Type (0, 1), BuildingBlock: XUDNAN_clean_linker_2, # of connection points: 2
#     Edge 42, Type (0, 1), BuildingBlock: XUDNAN_clean_linker_2, # of connection points: 2
#     Edge 43, Type (0, 1), BuildingBlock: XUDNAN_clean_linker_2, # of connection points: 2
#     Edge 44, Type (0, 1), BuildingBlock: XUDNAN_clean_linker_2, # of connection points: 2
#     Edge 45, Type (0, 1), BuildingBlock: XUDNAN_clean_linker_2, # of connection points: 2
#     Edge 46, Type (0, 1), BuildingBlock: XUDNAN_clean_linker_2, # of connection points: 2
#     Edge 47, Type (0, 1), BuildingBlock: XUDNAN_clean_linker_2, # of connection points: 2
#     Edge 48, Type (0, 1), BuildingBlock: XUDNAN_clean_linker_2, # of connection points: 2
#     Edge 49, Type (0, 1), BuildingBlock: XUDNAN_clean_linker_2, # of connection points: 2
#     Edge 50, Type (0, 1), BuildingBlock: XUDNAN_clean_linker_2, # of connection points: 2
#     Edge 51, Type (0, 1), BuildingBlock: XUDNAN_clean_linker_2, # of connection points: 2
#     Edge 52, Type (0, 1), BuildingBlock: XUDNAN_clean_linker_2, # of connection points: 2
#     Edge 53, Type (0, 1), BuildingBlock: XUDNAN_clean_linker_2, # of connection points: 2
#     Edge 54, Type (0, 1), BuildingBlock: XUDNAN_clean_linker_2, # of connection points: 2
#     Edge 55, Type (0, 1), BuildingBlock: XUDNAN_clean_linker_2, # of connection points: 2
#     Edge 56, Type (0, 1), BuildingBlock: XUDNAN_clean_linker_2, # of connection points: 2
#     Edge 57, Type (0, 1), BuildingBlock: XUDNAN_clean_linker_2, # of connection points: 2
#     Edge 58, Type (0, 1), BuildingBlock: XUDNAN_clean_linker_2, # of connection points: 2
#     Edge 59, Type (0, 1), BuildingBlock: XUDNAN_clean_linker_2, # of connection points: 2
#     Edge 60, Type (0, 1), BuildingBlock: XUDNAN_clean_linker_2, # of connection points: 2
#     Edge 61, Type (0, 1), BuildingBlock: XUDNAN_clean_linker_2, # of connection points: 2
# Relax obj value: 0.069
# Max RMSD: 0.174
# Mean RMSD: 0.095
data_MOF--net-ocu--node1-KUMJIN_clean_sbu_1--node2-TAGTUT_clean_sbu_1--edge1-XUDNAN_clean_linker_2
_symmetry_space_group_name_H-M    P1
_symmetry_Int_Tables_number       1
_symmetry_cell_setting            triclinic
loop_
_symmetry_equiv_pos_as_xyz
'x, y, z'
_cell_length_a     40.491623
_cell_length_b     39.020651
_cell_length_c     42.976839
_cell_angle_alpha  100.34
_cell_angle_beta   81.361102
_cell_angle_gamma 113.43325
loop_
_atom_site_label
_atom_site_type_symbol
_atom_site_fract_x
_atom_site_fract_y
_atom_site_fract_z
_atom_type_partial_charge
Eu0 Eu 0.23708 0.24426 0.22291 0.0
C1 C 0.34503 0.34643 0.32593 0.0
N2 N 0.34613 0.33144 0.29479 0.0
C3 C 0.38608 0.39229 0.28077 0.0
C4 C 0.36295 0.38548 0.33529 0.0
C5 C 0.36824 0.3535 0.27267 0.0
C6 C 0.3829 0.4085 0.31211 0.0
C7 C 0.32493 0.33759 0.38119 0.0
C8 C 0.3264 0.32267 0.34874 0.0
C9 C 0.34215 0.37648 0.39034 0.0
C10 C 0.36105 0.40034 0.36746 0.0
Eu11 Eu 0.31422 0.26508 0.28428 0.0
N12 N 0.30841 0.28535 0.33926 0.0
C13 C 0.30542 0.31309 0.40349 0.0
C14 C 0.29055 0.26118 0.36105 0.0
C15 C 0.28841 0.27467 0.39338 0.0
H16 H 0.3738 0.34167 0.24894 0.0
H17 H 0.27398 0.2554 0.41054 0.0
H18 H 0.15488 0.1824 0.24708 0.0
H19 H 0.30249 0.2463 0.10256 0.0
H20 H 0.27903 0.23123 0.35359 0.0
H21 H 0.30357 0.3235 0.42856 0.0
H22 H 0.28835 0.27316 0.15713 0.0
H23 H 0.40296 0.40955 0.2629 0.0
H24 H 0.34098 0.3884 0.41508 0.0
H25 H 0.37443 0.43026 0.37494 0.0
H26 H 0.11452 0.11665 0.23093 0.0
H27 H 0.39701 0.43856 0.31835 0.0
H28 H 0.27033 0.17848 0.0847 0.0
N29 N 0.19542 0.18212 0.20938 0.0
C30 C 0.20353 0.16392 0.181 0.0
C31 C 0.13975 0.12938 0.21693 0.0
C32 C 0.18073 0.12671 0.17036 0.0
C33 C 0.16293 0.16642 0.22626 0.0
C34 C 0.14913 0.10909 0.18928 0.0
N35 N 0.25258 0.22053 0.1709 0.0
C36 C 0.276 0.24332 0.14997 0.0
C37 C 0.23896 0.16732 0.12988 0.0
C38 C 0.23252 0.18387 0.16095 0.0
C39 C 0.26507 0.18995 0.10896 0.0
C40 C 0.28332 0.22826 0.11893 0.0
H41 H 0.1309 0.08057 0.18193 0.0
H42 H 0.17202 0.08036 0.13209 0.0
H43 H 0.22292 0.116 0.09659 0.0
O44 O 0.23231 0.29368 0.20905 0.0
O45 O 0.28118 0.22035 0.2064 0.0
O46 O 0.29097 0.20798 0.25349 0.0
O47 O 0.19083 0.2388 0.19946 0.0
O48 O 0.28837 0.29675 0.22656 0.0
O49 O 0.33309 0.27859 0.23427 0.0
O50 O 0.33787 0.24125 0.31318 0.0
O51 O 0.27982 0.30189 0.29391 0.0
O52 O 0.22366 0.26855 0.27345 0.0
O53 O 0.37047 0.27018 0.27429 0.0
O54 O 0.26054 0.21959 0.29852 0.0
O55 O 0.21522 0.21328 0.26668 0.0
C56 C 0.29345 0.20257 0.2222 0.0
C57 C 0.17283 0.2898 0.20499 0.0
C58 C 0.13415 0.31607 0.18766 0.0
C59 C 0.11472 0.31365 0.21761 0.0
C60 C 0.15193 0.28583 0.2342 0.0
C61 C 0.12342 0.2983 0.24064 0.0
C62 C 0.16356 0.30451 0.1815 0.0
C63 C 0.32041 0.29561 0.21832 0.0
C64 C 0.20129 0.27436 0.19741 0.0
C65 C 0.18895 0.1091 0.14042 0.0
C66 C 0.21792 0.12941 0.12017 0.0
C67 C 0.2447 0.29453 0.29409 0.0
C68 C 0.38723 0.22437 0.29065 0.0
C69 C 0.41684 0.18993 0.31079 0.0
C70 C 0.422 0.17315 0.27965 0.0
C71 C 0.39366 0.20814 0.25965 0.0
C72 C 0.39925 0.21547 0.3161 0.0
C73 C 0.41073 0.18247 0.25428 0.0
C74 C 0.22678 0.20533 0.29078 0.0
C75 C 0.36923 0.25157 0.29707 0.0
H76 H 0.09164 0.32185 0.2226 0.0
H77 H 0.15688 0.27175 0.25141 0.0
H78 H 0.10721 0.29494 0.26313 0.0
H79 H 0.17812 0.30544 0.15813 0.0
H80 H 0.43571 0.15367 0.27484 0.0
H81 H 0.38561 0.21534 0.23959 0.0
H82 H 0.39497 0.2285 0.34005 0.0
H83 H 0.41555 0.17001 0.2303 0.0
Eu84 Eu 0.73754 0.28621 0.26109 0.0
C85 C 0.867 0.2536 0.19523 0.0
N86 N 0.83245 0.22836 0.19903 0.0
C87 C 0.83455 0.20363 0.14394 0.0
C88 C 0.88629 0.25567 0.165 0.0
C89 C 0.81638 0.2028 0.17431 0.0
C90 C 0.86958 0.23032 0.13922 0.0
C91 C 0.918 0.3055 0.21792 0.0
C92 C 0.88259 0.27822 0.22154 0.0
C93 C 0.93717 0.30788 0.18775 0.0
C94 C 0.92142 0.28297 0.16141 0.0
Eu95 Eu 0.80421 0.22802 0.25091 0.0
N96 N 0.86318 0.27571 0.25048 0.0
C97 C 0.93319 0.3296 0.24475 0.0
C98 C 0.87869 0.29788 0.27693 0.0
C99 C 0.91358 0.32552 0.27439 0.0
H100 H 0.78957 0.18182 0.17812 0.0
H101 H 0.9255 0.34338 0.2954 0.0
H102 H 0.7754 0.36619 0.31009 0.0
H103 H 0.59755 0.18632 0.26408 0.0
H104 H 0.86484 0.29404 0.30024 0.0
H105 H 0.96025 0.35099 0.24292 0.0
H106 H 0.6603 0.21679 0.24043 0.0
H107 H 0.82158 0.18364 0.12425 0.0
H108 H 0.96431 0.32878 0.18456 0.0
H109 H 0.93665 0.28506 0.13836 0.0
H110 H 0.76164 0.39592 0.3635 0.0
H111 H 0.88355 0.23101 0.11562 0.0
H112 H 0.57959 0.20966 0.31879 0.0
N113 N 0.72593 0.3184 0.31092 0.0
C114 C 0.69266 0.30257 0.32614 0.0
C115 C 0.7421 0.36948 0.35341 0.0
C116 C 0.68318 0.31906 0.3563 0.0
C117 C 0.75002 0.35229 0.32337 0.0
C118 C 0.70869 0.35255 0.37015 0.0
N119 N 0.67743 0.25555 0.28189 0.0
C120 C 0.65244 0.2269 0.26436 0.0
C121 C 0.6322 0.25409 0.32546 0.0
C122 C 0.66754 0.27041 0.31104 0.0
C123 C 0.60702 0.223 0.30854 0.0
C124 C 0.61705 0.20971 0.27765 0.0
H125 H 0.70251 0.36606 0.39332 0.0
H126 H 0.64077 0.31417 0.39462 0.0
H127 H 0.59607 0.25735 0.36755 0.0
O128 O 0.7217 0.29143 0.21657 0.0
O129 O 0.71518 0.23018 0.28071 0.0
O130 O 0.76248 0.21729 0.29363 0.0
O131 O 0.72244 0.33327 0.25728 0.0
O132 O 0.73388 0.24172 0.21825 0.0
O133 O 0.74973 0.19559 0.23173 0.0
O134 O 0.84035 0.2069 0.26792 0.0
O135 O 0.80348 0.26439 0.21496 0.0
O136 O 0.79676 0.31524 0.24603 0.0
O137 O 0.7953 0.16831 0.24062 0.0
O138 O 0.80066 0.26243 0.29871 0.0
O139 O 0.78987 0.31118 0.28513 0.0
C140 C 0.72893 0.21555 0.29814 0.0
C141 C 0.72805 0.35108 0.20624 0.0
C142 C 0.71093 0.3876 0.17607 0.0
C143 C 0.74591 0.4 0.16053 0.0
C144 C 0.76309 0.36397 0.19099 0.0
C145 C 0.77199 0.38859 0.16833 0.0
C146 C 0.70232 0.36345 0.19913 0.0
C147 C 0.73337 0.20719 0.2141 0.0
C148 C 0.71634 0.32229 0.22755 0.0
C149 C 0.64844 0.30207 0.37134 0.0
C150 C 0.62298 0.26971 0.35593 0.0
C151 C 0.81253 0.30094 0.22134 0.0
C152 C 0.83296 0.14056 0.25722 0.0
C153 C 0.86479 0.11182 0.28159 0.0
C154 C 0.85007 0.07846 0.26068 0.0
C155 C 0.81852 0.10682 0.23681 0.0
C156 C 0.85647 0.14311 0.27944 0.0
C157 C 0.8272 0.07608 0.23848 0.0
C158 C 0.79708 0.29506 0.3061 0.0
C159 C 0.82285 0.17251 0.25528 0.0
H160 H 0.75298 0.41849 0.14249 0.0
H161 H 0.7832 0.35452 0.19619 0.0
H162 H 0.79898 0.39843 0.15648 0.0
H163 H 0.67507 0.35304 0.2106 0.0
H164 H 0.85638 0.05413 0.26142 0.0
H165 H 0.80054 0.10417 0.21944 0.0
H166 H 0.86738 0.16886 0.29558 0.0
H167 H 0.81605 0.05024 0.22257 0.0
Eu168 Eu 0.76116 0.71623 0.28379 0.0
C169 C 0.85579 0.84136 0.19415 0.0
N170 N 0.8374 0.84642 0.22267 0.0
C171 C 0.88677 0.90401 0.23758 0.0
C172 C 0.89091 0.86731 0.18653 0.0
C173 C 0.85188 0.87774 0.24398 0.0
C174 C 0.90651 0.89861 0.20887 0.0
C175 C 0.85659 0.80579 0.14165 0.0
C176 C 0.83894 0.81088 0.17195 0.0
C177 C 0.89194 0.83101 0.13433 0.0
C178 C 0.90906 0.86164 0.15672 0.0
Eu179 Eu 0.77934 0.79939 0.23144 0.0
N180 N 0.80492 0.78649 0.17984 0.0
C181 C 0.83794 0.77581 0.11944 0.0
C182 C 0.78581 0.75875 0.1577 0.0
C183 C 0.80222 0.75252 0.12738 0.0
H184 H 0.83647 0.8828 0.26585 0.0
H185 H 0.78725 0.72992 0.1101 0.0
H186 H 0.69826 0.63385 0.25488 0.0
H187 H 0.76444 0.79966 0.40055 0.0
H188 H 0.75809 0.74135 0.16362 0.0
H189 H 0.85059 0.77095 0.09591 0.0
H190 H 0.7888 0.78213 0.34666 0.0
H191 H 0.89829 0.92859 0.25468 0.0
H192 H 0.90606 0.82739 0.11126 0.0
H193 H 0.93614 0.88118 0.15055 0.0
H194 H 0.63687 0.59085 0.27175 0.0
H195 H 0.93345 0.91917 0.2039 0.0
H196 H 0.70246 0.76076 0.42043 0.0
N197 N 0.70297 0.67264 0.29721 0.0
C198 C 0.68773 0.68063 0.32664 0.0
C199 C 0.65081 0.61611 0.28731 0.0
C200 C 0.65294 0.65653 0.33736 0.0
C201 C 0.68543 0.64071 0.2777 0.0
C202 C 0.63442 0.62412 0.31719 0.0
N203 N 0.74061 0.73576 0.33545 0.0
C204 C 0.76155 0.76582 0.35476 0.0
C205 C 0.69224 0.7213 0.37718 0.0
C206 C 0.70713 0.71281 0.34637 0.0
C207 C 0.71295 0.75329 0.39661 0.0
C208 C 0.7479 0.77542 0.38544 0.0
H209 H 0.60765 0.6049 0.32458 0.0
H210 H 0.61111 0.64712 0.37646 0.0
H211 H 0.6455 0.7037 0.41127 0.0
O212 O 0.80558 0.71689 0.30712 0.0
O213 O 0.72447 0.75017 0.29403 0.0
O214 O 0.75766 0.81068 0.28247 0.0
O215 O 0.76179 0.66373 0.29419 0.0
O216 O 0.81329 0.76583 0.27658 0.0
O217 O 0.80358 0.81921 0.27899 0.0
O218 O 0.73217 0.79913 0.21233 0.0
O219 O 0.81135 0.76057 0.21489 0.0
O220 O 0.78442 0.70232 0.23378 0.0
O221 O 0.77843 0.85122 0.21964 0.0
O222 O 0.72758 0.7465 0.23002 0.0
O223 O 0.73795 0.69475 0.2368 0.0
C224 C 0.73002 0.78636 0.2975 0.0
C225 C 0.79293 0.66883 0.3383 0.0
C226 C 0.8257 0.65114 0.37143 0.0
C227 C 0.79925 0.65078 0.39676 0.0
C228 C 0.76637 0.66774 0.36356 0.0
C229 C 0.76961 0.6588 0.3927 0.0
C230 C 0.82233 0.66014 0.34222 0.0
C231 C 0.81931 0.8004 0.28926 0.0
C232 C 0.79168 0.68063 0.30816 0.0
C233 C 0.63785 0.66529 0.36787 0.0
C234 C 0.65743 0.69754 0.38771 0.0
C235 C 0.80824 0.72535 0.21473 0.0
C236 C 0.74423 0.84282 0.17675 0.0
C237 C 0.7095 0.85458 0.14096 0.0
C238 C 0.73711 0.8559 0.11648 0.0
C239 C 0.7717 0.84498 0.15213 0.0
C240 C 0.71322 0.8478 0.17111 0.0
C241 C 0.768 0.85121 0.12213 0.0
C242 C 0.72437 0.7114 0.22122 0.0
C243 C 0.74709 0.83448 0.20809 0.0
H244 H 0.80122 0.64366 0.41946 0.0
H245 H 0.74332 0.67388 0.36086 0.0
H246 H 0.74911 0.65812 0.41217 0.0
H247 H 0.84292 0.66101 0.3227 0.0
H248 H 0.73526 0.86157 0.09317 0.0
H249 H 0.79608 0.84206 0.15603 0.0
H250 H 0.69197 0.84624 0.19011 0.0
H251 H 0.78932 0.85278 0.10326 0.0
Eu252 Eu 0.23422 0.7801 0.24902 0.0
C253 C 0.29777 0.70381 0.32429 0.0
N254 N 0.31135 0.73766 0.31304 0.0
C255 C 0.33441 0.76863 0.36321 0.0
C256 C 0.29988 0.70161 0.35633 0.0
C257 C 0.33246 0.76907 0.3311 0.0
C258 C 0.31714 0.73487 0.37614 0.0
C259 C 0.27304 0.63542 0.31361 0.0
C260 C 0.28475 0.67098 0.30314 0.0
C261 C 0.2736 0.63327 0.34576 0.0
C262 C 0.28673 0.66626 0.36711 0.0
Eu263 Eu 0.30489 0.7353 0.25874 0.0
N264 N 0.28505 0.67378 0.27204 0.0
C265 C 0.26169 0.60303 0.29132 0.0
C266 C 0.27447 0.64233 0.25011 0.0
C267 C 0.26242 0.60652 0.25945 0.0
H268 H 0.34887 0.79423 0.32063 0.0
H269 H 0.254 0.58166 0.24201 0.0
H270 H 0.22401 0.75111 0.17105 0.0
H271 H 0.26866 0.92252 0.31424 0.0
H272 H 0.27576 0.6447 0.22528 0.0
H273 H 0.25259 0.57522 0.29844 0.0
H274 H 0.24855 0.85383 0.30861 0.0
H275 H 0.35014 0.79406 0.37769 0.0
H276 H 0.26451 0.60619 0.35426 0.0
H277 H 0.28787 0.66409 0.39168 0.0
H278 H 0.23612 0.7792 0.12138 0.0
H279 H 0.31931 0.73438 0.40087 0.0
H280 H 0.28199 0.95481 0.26668 0.0
N281 N 0.24315 0.8037 0.20022 0.0
C282 C 0.25391 0.84173 0.20196 0.0
C283 C 0.24154 0.79698 0.14388 0.0
C284 C 0.25971 0.85884 0.17427 0.0
C285 C 0.23551 0.78118 0.17197 0.0
C286 C 0.254 0.83597 0.14499 0.0
N287 N 0.25173 0.84647 0.25806 0.0
C288 C 0.2548 0.86716 0.28747 0.0
C289 C 0.26945 0.90314 0.2339 0.0
C290 C 0.25855 0.86367 0.23157 0.0
C291 C 0.27352 0.92444 0.26395 0.0
C292 C 0.26603 0.90634 0.29084 0.0
H293 H 0.25832 0.84806 0.12319 0.0
H294 H 0.27497 0.91157 0.15559 0.0
H295 H 0.28382 0.95039 0.20771 0.0
O296 O 0.19023 0.80004 0.25446 0.0
O297 O 0.29155 0.80538 0.22614 0.0
O298 O 0.30702 0.75417 0.21158 0.0
O299 O 0.17784 0.74028 0.24957 0.0
O300 O 0.25845 0.79687 0.29628 0.0
O301 O 0.31482 0.79664 0.28002 0.0
O302 O 0.34333 0.7076 0.24641 0.0
O303 O 0.24597 0.70482 0.27679 0.0
O304 O 0.22888 0.75465 0.29396 0.0
O305 O 0.3626 0.768 0.2491 0.0
O306 O 0.27275 0.70299 0.2165 0.0
O307 O 0.22658 0.72483 0.21668 0.0
C308 C 0.3107 0.78806 0.20792 0.0
C309 C 0.14513 0.76572 0.28984 0.0
C310 C 0.1467 0.7889 0.34634 0.0
C311 C 0.1094 0.76756 0.35083 0.0
C312 C 0.10804 0.74463 0.29432 0.0
C313 C 0.09033 0.74523 0.32494 0.0
C314 C 0.1642 0.78639 0.316 0.0
C315 C 0.29314 0.80979 0.29974 0.0
C316 C 0.16551 0.76702 0.25859 0.0
C317 C 0.27042 0.89804 0.17663 0.0
C318 C 0.27546 0.92014 0.20632 0.0
C319 C 0.22515 0.71995 0.29533 0.0
C320 C 0.38486 0.73598 0.20523 0.0
C321 C 0.37685 0.70757 0.15011 0.0
C322 C 0.41031 0.73506 0.14084 0.0
C323 C 0.41811 0.76323 0.19569 0.0
C324 C 0.3642 0.7087 0.18226 0.0
C325 C 0.43067 0.76281 0.16355 0.0
C326 C 0.24242 0.70061 0.2067 0.0
C327 C 0.36961 0.73801 0.23843 0.0
H328 H 0.09474 0.76904 0.37395 0.0
H329 H 0.09295 0.72798 0.27436 0.0
H330 H 0.06161 0.7291 0.3285 0.0
H331 H 0.19309 0.80139 0.31256 0.0
H332 H 0.42114 0.73462 0.11622 0.0
H333 H 0.43402 0.78506 0.213 0.0
H334 H 0.3379 0.6883 0.1893 0.0
H335 H 0.45634 0.7839 0.15623 0.0
Eu336 Eu 0.23146 0.77666 0.75907 0.0
C337 C 0.36479 0.73636 0.69945 0.0
N338 N 0.32944 0.71351 0.70343 0.0
C339 C 0.33262 0.68169 0.65061 0.0
C340 C 0.38527 0.73367 0.67018 0.0
C341 C 0.31343 0.68561 0.68004 0.0
C342 C 0.36861 0.70612 0.64552 0.0
C343 C 0.4176 0.78534 0.7219 0.0
C344 C 0.38064 0.76181 0.72502 0.0
C345 C 0.43776 0.78401 0.69239 0.0
C346 C 0.42164 0.75817 0.66661 0.0
Eu347 Eu 0.29849 0.72162 0.75336 0.0
N348 N 0.36055 0.76192 0.75337 0.0
C349 C 0.43352 0.80853 0.74882 0.0
C350 C 0.37676 0.78214 0.78011 0.0
C351 C 0.41315 0.80638 0.77817 0.0
H352 H 0.28585 0.66641 0.68411 0.0
H353 H 0.42561 0.82288 0.79942 0.0
H354 H 0.26045 0.8475 0.81981 0.0
H355 H 0.09687 0.66749 0.74814 0.0
H356 H 0.3621 0.779 0.80315 0.0
H357 H 0.46182 0.827 0.74745 0.0
H358 H 0.159 0.70745 0.72921 0.0
H359 H 0.31969 0.65985 0.63193 0.0
H360 H 0.46608 0.80214 0.6895 0.0
H361 H 0.43772 0.75687 0.64419 0.0
H362 H 0.2441 0.86021 0.877 0.0
H363 H 0.38341 0.70311 0.62269 0.0
H364 H 0.07548 0.67582 0.80499 0.0
N365 N 0.21672 0.79459 0.81339 0.0
C366 C 0.18379 0.77232 0.82592 0.0
C367 C 0.22724 0.83492 0.86309 0.0
C368 C 0.17227 0.77947 0.85821 0.0
C369 C 0.23713 0.82703 0.83084 0.0
C370 C 0.19501 0.81058 0.87703 0.0
N371 N 0.17241 0.73686 0.77507 0.0
C372 C 0.14977 0.71091 0.75408 0.0
C373 C 0.12573 0.72097 0.81794 0.0
C374 C 0.16067 0.7433 0.80607 0.0
C375 C 0.1027 0.69327 0.79682 0.0
C376 C 0.11467 0.68844 0.7647 0.0
H377 H 0.18719 0.81699 0.90194 0.0
H378 H 0.12893 0.76096 0.89526 0.0
H379 H 0.0884 0.7098 0.85994 0.0
O380 O 0.21282 0.79006 0.71911 0.0
O381 O 0.21418 0.71951 0.77666 0.0
O382 O 0.26414 0.72699 0.79897 0.0
O383 O 0.20877 0.8197 0.76607 0.0
O384 O 0.22991 0.73522 0.71486 0.0
O385 O 0.24649 0.6898 0.7289 0.0
O386 O 0.32935 0.69474 0.77028 0.0
O387 O 0.30062 0.75252 0.71263 0.0
O388 O 0.28869 0.80459 0.73619 0.0
O389 O 0.27456 0.66101 0.75633 0.0
O390 O 0.30047 0.76669 0.79555 0.0
O391 O 0.28582 0.81159 0.77875 0.0
C392 C 0.22899 0.715 0.79988 0.0
C393 C 0.21462 0.85223 0.72352 0.0
C394 C 0.19569 0.89472 0.70186 0.0
C395 C 0.23003 0.92339 0.70673 0.0
C396 C 0.24875 0.88084 0.72755 0.0
C397 C 0.2564 0.91623 0.719 0.0
C398 C 0.18869 0.85888 0.70998 0.0
C399 C 0.23078 0.70128 0.7104 0.0
C400 C 0.20396 0.81664 0.73635 0.0
C401 C 0.13806 0.75617 0.87044 0.0
C402 C 0.11485 0.72712 0.85032 0.0
C403 C 0.30535 0.78802 0.71364 0.0
C404 C 0.30584 0.62789 0.77553 0.0
C405 C 0.33718 0.6002 0.80171 0.0
C406 C 0.30704 0.56576 0.79874 0.0
C407 C 0.27658 0.59312 0.77234 0.0
C408 C 0.33641 0.63094 0.78931 0.0
C409 C 0.27738 0.56221 0.7837 0.0
C410 C 0.30274 0.80162 0.7972 0.0
C411 C 0.30309 0.66176 0.76748 0.0
H412 H 0.23657 0.95166 0.70172 0.0
H413 H 0.26901 0.87608 0.73807 0.0
H414 H 0.28257 0.93852 0.72264 0.0
H415 H 0.1629 0.83595 0.7063 0.0
H416 H 0.30561 0.54163 0.80874 0.0
H417 H 0.25269 0.59004 0.76183 0.0
H418 H 0.35924 0.65762 0.79094 0.0
H419 H 0.25443 0.53563 0.78169 0.0
Eu420 Eu 0.25607 0.21136 0.78594 0.0
C421 C 0.35107 0.33319 0.69421 0.0
N422 N 0.33259 0.33957 0.72235 0.0
C423 C 0.38213 0.39743 0.73614 0.0
C424 C 0.38632 0.35864 0.68624 0.0
C425 C 0.34715 0.37156 0.74294 0.0
C426 C 0.40192 0.3908 0.7078 0.0
C427 C 0.35224 0.29503 0.643 0.0
C428 C 0.33432 0.30167 0.67282 0.0
C429 C 0.38766 0.31985 0.63534 0.0
C430 C 0.40467 0.35152 0.65691 0.0
Eu431 Eu 0.27457 0.29305 0.73199 0.0
N432 N 0.30025 0.2776 0.68109 0.0
C433 C 0.33379 0.2639 0.62161 0.0
C434 C 0.28134 0.24868 0.65964 0.0
C435 C 0.29802 0.24094 0.62981 0.0
H436 H 0.33172 0.37738 0.76456 0.0
H437 H 0.28323 0.21741 0.61312 0.0
H438 H 0.19298 0.12914 0.75668 0.0
H439 H 0.25802 0.2962 0.90184 0.0
H440 H 0.2536 0.23146 0.66574 0.0
H441 H 0.34665 0.25783 0.59847 0.0
H442 H 0.28283 0.27847 0.84811 0.0
H443 H 0.39372 0.42259 0.75266 0.0
H444 H 0.40198 0.31505 0.61264 0.0
H445 H 0.43184 0.37066 0.65048 0.0
H446 H 0.1315 0.08628 0.77335 0.0
H447 H 0.42896 0.41101 0.70255 0.0
H448 H 0.19623 0.25682 0.92178 0.0
N449 N 0.19759 0.16801 0.79899 0.0
C450 C 0.18234 0.17589 0.82843 0.0
C451 C 0.14541 0.11151 0.78895 0.0
C452 C 0.14746 0.15186 0.83904 0.0
C453 C 0.18007 0.13608 0.77943 0.0
C454 C 0.12895 0.11951 0.81879 0.0
N455 N 0.23503 0.23124 0.83725 0.0
C456 C 0.25569 0.26177 0.85637 0.0
C457 C 0.18657 0.21674 0.87887 0.0
C458 C 0.20171 0.20803 0.84823 0.0
C459 C 0.20695 0.24914 0.89811 0.0
C460 C 0.24178 0.27155 0.8869 0.0
H461 H 0.10212 0.10034 0.8261 0.0
H462 H 0.10543 0.14255 0.87797 0.0
H463 H 0.13959 0.1993 0.91274 0.0
O464 O 0.2993 0.21162 0.81128 0.0
O465 O 0.22069 0.24673 0.79658 0.0
O466 O 0.25352 0.30647 0.78272 0.0
O467 O 0.25472 0.15923 0.79871 0.0
O468 O 0.30893 0.26107 0.78034 0.0
O469 O 0.29857 0.31395 0.77945 0.0
O470 O 0.22782 0.29176 0.7116 0.0
O471 O 0.30714 0.25473 0.71797 0.0
O472 O 0.27878 0.19631 0.73614 0.0
O473 O 0.27391 0.34418 0.71833 0.0
O474 O 0.222 0.24163 0.73333 0.0
O475 O 0.2324 0.18966 0.73868 0.0
C476 C 0.22639 0.28288 0.79886 0.0
C477 C 0.31128 0.15569 0.80122 0.0
C478 C 0.35675 0.13603 0.81545 0.0
C479 C 0.35594 0.1144 0.78548 0.0
C480 C 0.31144 0.13446 0.77116 0.0
C481 C 0.33359 0.11387 0.76347 0.0
C482 C 0.33443 0.15686 0.82313 0.0
C483 C 0.31472 0.29632 0.79087 0.0
C484 C 0.2859 0.17508 0.81065 0.0
C485 C 0.13223 0.16067 0.86948 0.0
C486 C 0.15171 0.19298 0.88931 0.0
C487 C 0.30352 0.2194 0.71779 0.0
C488 C 0.23969 0.33417 0.675 0.0
C489 C 0.2055 0.3465 0.63911 0.0
C490 C 0.23165 0.34452 0.61407 0.0
C491 C 0.26578 0.33301 0.64981 0.0
C492 C 0.20966 0.34107 0.66958 0.0
C493 C 0.26161 0.33791 0.61948 0.0
C494 C 0.21804 0.20651 0.72403 0.0
C495 C 0.24264 0.3269 0.7067 0.0
H496 H 0.3728 0.09807 0.77904 0.0
H497 H 0.29402 0.13329 0.75383 0.0
H498 H 0.33312 0.09703 0.74053 0.0
H499 H 0.33428 0.17305 0.84643 0.0
H500 H 0.22945 0.34905 0.59045 0.0
H501 H 0.28936 0.32842 0.65349 0.0
H502 H 0.18944 0.34195 0.68902 0.0
H503 H 0.28184 0.3369 0.60015 0.0
Eu504 Eu 0.74189 0.2744 0.74252 0.0
C505 C 0.80339 0.17463 0.81262 0.0
N506 N 0.81711 0.21138 0.8077 0.0
C507 C 0.84522 0.22923 0.85655 0.0
C508 C 0.80751 0.1643 0.84123 0.0
C509 C 0.83969 0.2383 0.82825 0.0
C510 C 0.8278 0.19241 0.86372 0.0
C511 C 0.77856 0.10852 0.7908 0.0
C512 C 0.78966 0.147 0.78747 0.0
C513 C 0.77973 0.09824 0.82015 0.0
C514 C 0.79418 0.12609 0.84533 0.0
Eu515 Eu 0.80772 0.22322 0.75832 0.0
N516 N 0.79121 0.1578 0.75879 0.0
C517 C 0.76874 0.08159 0.76403 0.0
C518 C 0.78498 0.13181 0.73215 0.0
C519 C 0.77274 0.09338 0.73445 0.0
H520 H 0.85399 0.26673 0.82255 0.0
H521 H 0.7672 0.07294 0.71328 0.0
H522 H 0.72544 0.26154 0.66725 0.0
H523 H 0.76213 0.40217 0.82871 0.0
H524 H 0.79034 0.14039 0.70883 0.0
H525 H 0.76 0.05182 0.76566 0.0
H526 H 0.7446 0.33394 0.81176 0.0
H527 H 0.86373 0.25031 0.87242 0.0
H528 H 0.77098 0.06885 0.8232 0.0
H529 H 0.79664 0.11774 0.86733 0.0
H530 H 0.73305 0.29951 0.62436 0.0
H531 H 0.83234 0.18552 0.88562 0.0
H532 H 0.78022 0.44601 0.78862 0.0
N533 N 0.74709 0.3091 0.70138 0.0
C534 C 0.75861 0.34702 0.70859 0.0
C535 C 0.74079 0.31329 0.64784 0.0
C536 C 0.76348 0.36995 0.68505 0.0
C537 C 0.73684 0.29186 0.67194 0.0
C538 C 0.75487 0.35259 0.65425 0.0
N539 N 0.75398 0.339 0.76238 0.0
C540 C 0.75216 0.35271 0.79395 0.0
C541 C 0.77209 0.40169 0.74874 0.0
C542 C 0.76241 0.36252 0.74007 0.0
C543 C 0.77271 0.41607 0.78099 0.0
C544 C 0.76226 0.3914 0.80369 0.0
H545 H 0.75798 0.36918 0.63553 0.0
H546 H 0.77957 0.42733 0.67546 0.0
H547 H 0.78745 0.45522 0.73127 0.0
O548 O 0.69198 0.28233 0.74029 0.0
O549 O 0.78386 0.27278 0.70232 0.0
O550 O 0.8241 0.27657 0.73508 0.0
O551 O 0.68936 0.22808 0.74781 0.0
O552 O 0.78706 0.30684 0.77648 0.0
O553 O 0.80017 0.26492 0.8 0.0
O554 O 0.8507 0.20275 0.73989 0.0
O555 O 0.74688 0.19794 0.77073 0.0
O556 O 0.73328 0.25017 0.78837 0.0
O557 O 0.86365 0.26261 0.75169 0.0
O558 O 0.77841 0.19501 0.71353 0.0
O559 O 0.74075 0.22459 0.70566 0.0
C560 C 0.81696 0.27882 0.70691 0.0
C561 C 0.64597 0.24941 0.77611 0.0
C562 C 0.63737 0.27703 0.83051 0.0
C563 C 0.60092 0.25218 0.83193 0.0
C564 C 0.60967 0.22475 0.77738 0.0
C565 C 0.58723 0.22606 0.80541 0.0
C566 C 0.65949 0.27464 0.80272 0.0
C567 C 0.80037 0.29863 0.79931 0.0
C568 C 0.67116 0.24911 0.748 0.0
C569 C 0.77512 0.40917 0.6933 0.0
C570 C 0.77954 0.42503 0.72509 0.0
C571 C 0.72902 0.21553 0.79081 0.0
C572 C 0.89098 0.24244 0.70445 0.0
C573 C 0.88306 0.22855 0.64795 0.0
C574 C 0.91922 0.25287 0.64175 0.0
C575 C 0.92701 0.26629 0.6982 0.0
C576 C 0.869 0.22522 0.67946 0.0
C577 C 0.94089 0.27195 0.66685 0.0
C578 C 0.75384 0.19784 0.69828 0.0
C579 C 0.87471 0.23649 0.73678 0.0
H580 H 0.58294 0.25346 0.85308 0.0
H581 H 0.59885 0.20463 0.75695 0.0
H582 H 0.55913 0.20709 0.8065 0.0
H583 H 0.68784 0.29234 0.80178 0.0
H584 H 0.93127 0.25587 0.61764 0.0
H585 H 0.94412 0.28067 0.71741 0.0
H586 H 0.84086 0.20783 0.68452 0.0
H587 H 0.96873 0.29039 0.66193 0.0
Eu588 Eu 0.72649 0.73822 0.72506 0.0
C589 C 0.83619 0.84454 0.82251 0.0
N590 N 0.84292 0.82873 0.79259 0.0
C591 C 0.88947 0.88758 0.78126 0.0
C592 C 0.85561 0.88294 0.83276 0.0
C593 C 0.86965 0.84934 0.7722 0.0
C594 C 0.8823 0.90452 0.8116 0.0
C595 C 0.80244 0.83756 0.87429 0.0
C596 C 0.80968 0.82213 0.84299 0.0
C597 C 0.82141 0.87592 0.88441 0.0
C598 C 0.84789 0.89854 0.8637 0.0
Eu599 Eu 0.80752 0.76415 0.77944 0.0
N600 N 0.79134 0.78516 0.8324 0.0
C601 C 0.77674 0.8138 0.89465 0.0
C602 C 0.76826 0.76146 0.8528 0.0
C603 C 0.75999 0.77545 0.88399 0.0
H604 H 0.8762 0.83628 0.74909 0.0
H605 H 0.74121 0.75653 0.89993 0.0
H606 H 0.65648 0.66787 0.75626 0.0
H607 H 0.79667 0.74209 0.60616 0.0
H608 H 0.75715 0.73162 0.84553 0.0
H609 H 0.77045 0.82454 0.91889 0.0
H610 H 0.78212 0.76825 0.66066 0.0
H611 H 0.91046 0.90389 0.76492 0.0
H612 H 0.81606 0.88829 0.90832 0.0
H613 H 0.86245 0.92803 0.87194 0.0
H614 H 0.61953 0.60099 0.74032 0.0
H615 H 0.89779 0.93414 0.81856 0.0
H616 H 0.76347 0.67494 0.58687 0.0
N617 N 0.68953 0.67422 0.71258 0.0
C618 C 0.69586 0.65796 0.68274 0.0
C619 C 0.64104 0.61664 0.72398 0.0
C620 C 0.67495 0.61997 0.67248 0.0
C621 C 0.66232 0.65444 0.73307 0.0
C622 C 0.64742 0.59929 0.69359 0.0
N623 N 0.74348 0.71595 0.67297 0.0
C624 C 0.76871 0.73865 0.65302 0.0
C625 C 0.7303 0.66342 0.63116 0.0
C626 C 0.72348 0.67942 0.66235 0.0
C627 C 0.75749 0.68614 0.61103 0.0
C628 C 0.77648 0.72402 0.62191 0.0
H629 H 0.63078 0.57002 0.68659 0.0
H630 H 0.66628 0.57472 0.63327 0.0
H631 H 0.71454 0.61276 0.59711 0.0
O632 O 0.71542 0.77601 0.69983 0.0
O633 O 0.75601 0.69709 0.71904 0.0
O634 O 0.81445 0.73373 0.73008 0.0
O635 O 0.67108 0.73027 0.71953 0.0
O636 O 0.77559 0.79287 0.721 0.0
O637 O 0.82418 0.78032 0.72968 0.0
O638 O 0.82063 0.726 0.80262 0.0
O639 O 0.77776 0.80509 0.78618 0.0
O640 O 0.71931 0.76933 0.77412 0.0
O641 O 0.86349 0.77417 0.7848 0.0
O642 O 0.75673 0.7107 0.78673 0.0
O643 O 0.70939 0.72316 0.77448 0.0
C644 C 0.79084 0.70346 0.71533 0.0
C645 C 0.66108 0.7507 0.67454 0.0
C646 C 0.62671 0.76895 0.64332 0.0
C647 C 0.62337 0.73699 0.62103 0.0
C648 C 0.65718 0.71867 0.65217 0.0
C649 C 0.63854 0.71197 0.6255 0.0
C650 C 0.64571 0.77586 0.67005 0.0
C651 C 0.81005 0.79843 0.71632 0.0
C652 C 0.68048 0.75796 0.70287 0.0
C653 C 0.68206 0.60388 0.64156 0.0
C654 C 0.7096 0.62554 0.62096 0.0
C655 C 0.74297 0.79886 0.78969 0.0
C656 C 0.87404 0.75347 0.82946 0.0
C657 C 0.90428 0.73311 0.86357 0.0
C658 C 0.90947 0.7668 0.88435 0.0
C659 C 0.8801 0.787 0.85032 0.0
C660 C 0.88646 0.72683 0.836 0.0
C661 C 0.89765 0.79353 0.87761 0.0
C662 C 0.7225 0.70681 0.79081 0.0
C663 C 0.85525 0.74599 0.80063 0.0
H664 H 0.60892 0.7314 0.60023 0.0
H665 H 0.66825 0.69873 0.65536 0.0
H666 H 0.63572 0.68723 0.60832 0.0
H667 H 0.64841 0.8006 0.68728 0.0
H668 H 0.92213 0.77239 0.90617 0.0
H669 H 0.87148 0.80822 0.84553 0.0
H670 H 0.88248 0.70143 0.81934 0.0
H671 H 0.90194 0.81937 0.89371 0.0
C672 C 0.90832 0.05333 0.52171 0.0
C673 C 0.97887 0.05761 0.44226 0.0
C674 C 0.97482 0.92222 0.46372 0.0
Mg675 Mg 0.99263 0.07772 0.51322 0.0
O676 O 0.97814 0.02606 0.51576 0.0
Mg677 Mg 0.94033 0.98701 0.48888 0.0
Mg678 Mg 1.01534 0.00369 0.50464 0.0
O679 O 0.05284 0.98131 0.49404 0.0
Mg680 Mg 0.03788 0.93274 0.50548 0.0
Mg681 Mg 0.09173 0.02178 0.5184 0.0
C682 C 0.05714 0.08421 0.55125 0.0
C683 C 0.08062 0.05618 0.45899 0.0
O684 O 0.90315 0.01938 0.50922 0.0
O685 O 0.93965 0.07894 0.52666 0.0
O686 O 0.95812 0.02434 0.44837 0.0
O687 O 0.99886 0.08209 0.46281 0.0
O688 O 0.03795 0.1016 0.54545 0.0
O689 O 0.05125 0.05019 0.53836 0.0
C690 C 0.94842 0.95162 0.54919 0.0
O691 O 0.98294 0.96695 0.544 0.0
O692 O 0.92693 0.95494 0.53185 0.0
O693 O 0.1284 0.98925 0.49782 0.0
O694 O 0.08958 0.92845 0.49245 0.0
O695 O 0.07764 0.98827 0.5607 0.0
C696 C 0.12172 0.95382 0.49154 0.0
O697 O 0.03125 0.93332 0.55627 0.0
O698 O 0.993 0.90755 0.47525 0.0
C699 C 0.05592 0.95863 0.57228 0.0
O700 O 0.98037 0.95745 0.4704 0.0
O701 O 0.04639 0.03994 0.46514 0.0
O702 O 0.10327 0.05367 0.47548 0.0
C703 C 0.43569 0.07678 0.07278 0.0
C704 C 0.47541 0.08179 0.97261 0.0
C705 C 0.45998 0.93854 0.9631 0.0
Mg706 Mg 0.51066 0.08903 0.03378 0.0
O707 O 0.4933 0.03615 0.03004 0.0
Mg708 Mg 0.44445 0.0073 0.0141 0.0
Mg709 Mg 0.5213 0.00649 1.00353 0.0
O710 O 0.54915 0.97657 0.97713 0.0
Mg711 Mg 0.53097 0.92353 0.97328 0.0
Mg712 Mg 0.59696 0.00483 0.99514 0.0
C713 C 0.58235 0.0753 0.04325 0.0
C714 C 0.58161 0.05771 0.95314 0.0
O715 O 0.42205 0.04498 0.05503 0.0
O716 O 0.46942 0.09775 0.06977 0.0
O717 O 0.45349 0.04922 0.97911 0.0
O718 O 0.50171 0.10203 0.98942 0.0
O719 O 0.56483 0.09717 0.04569 0.0
O720 O 0.56944 0.04061 0.03079 0.0
C721 C 0.46203 0.95388 0.05379 0.0
O722 O 0.49415 0.96348 0.03978 0.0
O723 O 0.43936 0.96695 0.04829 0.0
O724 O 0.62003 0.96592 0.9568 0.0
O725 O 0.57385 0.91345 0.93981 0.0
O726 O 0.58483 0.96321 0.03092 0.0
C727 C 0.60781 0.93403 0.93886 0.0
O728 O 0.53754 0.91007 0.01825 0.0
O729 O 0.47736 0.91642 0.96012 0.0
C730 C 0.5623 0.93055 0.03651 0.0
O731 O 0.47265 0.97279 0.97664 0.0
O732 O 0.54929 0.04906 0.96681 0.0
O733 O 0.60369 0.04445 0.95977 0.0
C734 C 0.9505 0.59515 0.06955 0.0
C735 C 0.98499 0.58473 0.97027 0.0
C736 C 0.94777 0.44057 0.96814 0.0
Mg737 Mg 0.02161 0.59054 0.02993 0.0
O738 O 0.99527 0.53884 0.03236 0.0
Mg739 Mg 0.94517 0.51589 0.01755 0.0
Mg740 Mg 1.01656 0.50331 0.00607 0.0
O741 O 0.03801 0.4681 0.97965 0.0
Mg742 Mg 1.01154 0.41631 0.97971 0.0
Mg743 Mg 0.08712 0.48934 0.99629 0.0
C744 C 0.08457 0.56496 0.0438 0.0
C745 C 0.08165 0.55069 0.95648 0.0
O746 O 0.93132 0.56196 0.05627 0.0
O747 O 0.98495 0.61001 0.06338 0.0
O748 O 0.95961 0.55613 0.98066 0.0
O749 O 1.01435 0.60196 0.98389 0.0
O750 O 0.07304 0.59149 0.04385 0.0
O751 O 0.06667 0.53057 0.03278 0.0
C752 C 0.95455 0.45826 0.05873 0.0
O753 O 0.98586 0.46385 0.04394 0.0
O754 O 0.93454 0.47478 0.05345 0.0
O755 O 0.10201 0.44465 0.95699 0.0
O756 O 0.04854 0.39776 0.9466 0.0
O757 O 0.07084 0.44609 0.03196 0.0
C758 C 0.08315 0.41236 0.9421 0.0
O759 O 1.01608 0.40161 0.02442 0.0
O760 O 0.96026 0.41457 0.96651 0.0
C761 C 0.04433 0.41652 0.03962 0.0
O762 O 0.96524 0.47479 0.98012 0.0
O763 O 0.04919 0.54438 0.96909 0.0
O764 O 0.10042 0.53322 0.9626 0.0
C765 C 0.43227 0.55669 0.0417 0.0
C766 C 0.47287 0.5634 0.94967 0.0
C767 C 0.47613 0.42745 0.95947 0.0
Mg768 Mg 0.49909 0.58244 0.01953 0.0
O769 O 0.47754 0.52633 0.01714 0.0
Mg770 Mg 0.43586 0.48466 0.9885 0.0
Mg771 Mg 0.51564 0.50383 0.00553 0.0
O772 O 0.55268 0.48065 0.99383 0.0
Mg773 Mg 0.53604 0.43068 1.00149 0.0
Mg774 Mg 0.59183 0.51682 0.02028 0.0
C775 C 0.56308 0.58135 0.05198 0.0
C776 C 0.58456 0.55884 0.96391 0.0
O777 O 0.44661 0.53339 0.0277 0.0
O778 O 0.45422 0.5902 0.04935 0.0
O779 O 0.45307 0.52881 0.95314 0.0
O780 O 0.49272 0.58677 0.97102 0.0
O781 O 0.54784 0.60153 0.04455 0.0
O782 O 0.55247 0.54595 0.04215 0.0
C783 C 0.44621 0.44258 0.04318 0.0
O784 O 0.48059 0.461 0.03998 0.0
O785 O 0.42439 0.44627 0.02648 0.0
O786 O 0.62684 0.48291 0.99724 0.0
O787 O 0.58579 0.42377 0.987 0.0
O788 O 0.57581 0.48041 0.06104 0.0
C789 C 0.61848 0.44756 0.98792 0.0
O790 O 0.52948 0.42632 0.05112 0.0
O791 O 0.49288 0.41071 0.97025 0.0
C792 C 0.55259 0.44955 0.06958 0.0
O793 O 0.48133 0.46239 0.96867 0.0
O794 O 0.55008 0.54536 0.97024 0.0
O795 O 0.60566 0.55159 0.97888 0.0
C796 C 0.92685 0.56831 0.5666 0.0
C797 C 0.9737 0.57254 0.46865 0.0
C798 C 0.95513 0.42866 0.46398 0.0
Mg799 Mg 1.00415 0.58104 0.53226 0.0
O800 O 0.98754 0.52814 0.52781 0.0
Mg801 Mg 0.93975 0.4983 0.50995 0.0
Mg802 Mg 1.01662 0.49976 0.50125 0.0
O803 O 0.04521 0.47056 0.47515 0.0
Mg804 Mg 0.0281 0.41763 0.47221 0.0
Mg805 Mg 0.09286 0.49982 0.49318 0.0
C806 C 0.0764 0.56927 0.54217 0.0
C807 C 0.07628 0.55173 0.45068 0.0
O808 O 0.91524 0.5362 0.54876 0.0
O809 O 0.96058 0.58968 0.56548 0.0
O810 O 0.95134 0.53989 0.47444 0.0
O811 O 0.99807 0.59363 0.48705 0.0
O812 O 0.05805 0.59045 0.54557 0.0
O813 O 0.06448 0.53514 0.52835 0.0
C814 C 0.95752 0.44597 0.55068 0.0
O815 O 0.99032 0.45786 0.53816 0.0
O816 O 0.93388 0.45719 0.54403 0.0
O817 O 0.11623 0.46013 0.45603 0.0
O818 O 0.07026 0.40785 0.43805 0.0
O819 O 0.08181 0.45939 0.52975 0.0
C820 C 0.10416 0.42832 0.43792 0.0
O821 O 0.03598 0.40504 0.517 0.0
O822 O 0.97294 0.40715 0.4617 0.0
C823 C 0.06024 0.42643 0.53541 0.0
O824 O 0.96835 0.46403 0.47417 0.0
O825 O 0.04395 0.54239 0.46445 0.0
O826 O 0.09888 0.53891 0.45702 0.0
C827 C 0.44964 0.09435 0.57247 0.0
C828 C 0.48833 0.09145 0.47404 0.0
C829 C 0.44739 0.94142 0.46821 0.0
Mg830 Mg 0.52083 0.09045 0.53445 0.0
O831 O 0.49471 0.03854 0.53255 0.0
Mg832 Mg 0.44525 0.01805 0.51664 0.0
Mg833 Mg 0.51601 1.0033 0.50564 0.0
O834 O 0.53726 0.9678 0.47874 0.0
Mg835 Mg 0.51109 0.91615 0.48002 0.0
Mg836 Mg 0.58722 0.98918 0.49382 0.0
C837 C 0.5855 0.06511 0.54308 0.0
C838 C 0.5796 0.04893 0.45402 0.0
O839 O 0.4309 0.06298 0.55631 0.0
O840 O 0.48431 0.10842 0.56881 0.0
O841 O 0.46179 0.06118 0.48036 0.0
O842 O 0.51544 0.10648 0.49066 0.0
O843 O 0.57258 0.09094 0.54556 0.0
O844 O 0.56772 0.03071 0.53155 0.0
C845 C 0.45143 0.95754 0.55685 0.0
O846 O 0.48286 0.9622 0.5423 0.0
O847 O 0.43279 0.9757 0.55179 0.0
O848 O 0.60114 0.94404 0.45464 0.0
O849 O 0.54763 0.89627 0.44664 0.0
O850 O 0.57258 0.94719 0.52974 0.0
C851 C 0.58212 0.91116 0.44086 0.0
O852 O 0.51649 0.90418 0.52597 0.0
O853 O 0.46008 0.9156 0.46683 0.0
C854 C 0.54597 0.91899 0.53944 0.0
O855 O 0.46484 0.97605 0.47935 0.0
O856 O 0.54847 0.04435 0.46904 0.0
O857 O 0.59843 0.03082 0.45867 0.0
H858 H 0.21908 0.2132 0.35588 0.0
H859 H 0.17311 0.13784 0.27295 0.0
H860 H 0.1255 0.09586 0.30737 0.0
H861 H 0.21072 0.13713 0.39715 0.0
H862 H 0.20319 0.16135 0.43573 0.0
H863 H 0.2296 0.18785 0.40419 0.0
H864 H 0.18693 0.22433 0.41213 0.0
H865 H 0.15993 0.19716 0.44318 0.0
H866 H 0.13911 0.19853 0.40943 0.0
H867 H 0.08279 0.06234 0.35149 0.0
H868 H 0.05538 0.03318 0.40057 0.0
H869 H 0.13697 0.12392 0.45407 0.0
C870 C 0.19955 0.18759 0.3449 0.0
C871 C 0.19927 0.17937 0.31157 0.0
C872 C 0.17253 0.14587 0.29828 0.0
C873 C 0.14573 0.12157 0.31774 0.0
C874 C 0.14676 0.13061 0.35055 0.0
C875 C 0.17362 0.16228 0.364 0.0
C876 C 0.17128 0.16332 0.39965 0.0
C877 C 0.20574 0.16234 0.40977 0.0
C878 C 0.16386 0.19789 0.41712 0.0
C879 C 0.13902 0.12709 0.40415 0.0
C880 C 0.12458 0.10926 0.37564 0.0
C881 C 0.0941 0.07581 0.37387 0.0
C882 C 0.07866 0.05954 0.40182 0.0
C883 C 0.09442 0.07614 0.43083 0.0
C884 C 0.1247 0.11055 0.43205 0.0
H885 H 0.85155 0.05856 0.31995 0.0
H886 H 0.93013 0.16717 0.29801 0.0
H887 H 0.97042 0.16484 0.33519 0.0
H888 H 0.86611 0.0723 0.40356 0.0
H889 H 0.85925 0.0236 0.40272 0.0
H890 H 0.83684 0.0364 0.37626 0.0
H891 H 0.86452 1.00245 0.32881 0.0
H892 H 0.88868 0.99123 0.35469 0.0
H893 H 0.91297 0.0169 0.32217 0.0
H894 H 1.00246 0.14861 0.37509 0.0
H895 H 0.02059 0.12239 0.41516 0.0
H896 H 0.92133 0.02315 0.40672 0.0
C897 C 0.87721 0.08195 0.32297 0.0
C898 C 0.88788 0.11287 0.30589 0.0
C899 C 0.92139 0.14323 0.31097 0.0
C900 C 0.94449 0.14202 0.33189 0.0
C901 C 0.93351 0.11037 0.34762 0.0
C902 C 0.90037 0.08119 0.34359 0.0
C903 C 0.89463 0.05004 0.36261 0.0
C904 C 0.86231 0.04533 0.38777 0.0
C905 C 0.88992 0.01297 0.34072 0.0
C906 C 0.92992 0.06572 0.37776 0.0
C907 C 0.95204 0.10069 0.36921 0.0
C908 C 0.98534 0.12113 0.38175 0.0
C909 C 0.99557 0.10591 0.40433 0.0
C910 C 0.97273 0.07042 0.41386 0.0
C911 C 0.93998 0.0499 0.39957 0.0
H912 H 0.82704 0.85976 0.3373 0.0
H913 H 0.87692 0.78209 0.2896 0.0
H914 H 0.92104 0.80507 0.32944 0.0
H915 H 0.91006 0.93745 0.36268 0.0
H916 H 0.88904 0.94939 0.40084 0.0
H917 H 0.86242 0.92855 0.3673 0.0
H918 H 0.81826 0.87578 0.39892 0.0
H919 H 0.84483 0.89582 0.43253 0.0
H920 H 0.83528 0.84747 0.41561 0.0
H921 H 0.95546 0.83068 0.37585 0.0
H922 H 0.98531 0.86473 0.42402 0.0
H923 H 0.91614 0.92876 0.44277 0.0
C924 C 0.84792 0.84846 0.3349 0.0
C925 C 0.84865 0.81919 0.31042 0.0
C926 C 0.87576 0.80437 0.30829 0.0
C927 C 0.90091 0.81716 0.33083 0.0
C928 C 0.8986 0.84478 0.35542 0.0
C929 C 0.87323 0.86071 0.35757 0.0
C930 C 0.87627 0.889 0.38739 0.0
C931 C 0.88503 0.92848 0.37905 0.0
C932 C 0.8416 0.87625 0.40994 0.0
C933 C 0.90776 0.88691 0.40112 0.0
C934 C 0.91952 0.86055 0.38244 0.0
C935 C 0.94685 0.85173 0.39056 0.0
C936 C 0.96339 0.87105 0.4182 0.0
C937 C 0.95305 0.89941 0.43723 0.0
C938 C 0.92467 0.90733 0.42863 0.0
H939 H 0.13955 0.78366 0.41001 0.0
H940 H 0.19817 0.85881 0.34026 0.0
H941 H 0.22454 0.9093 0.38182 0.0
H942 H 0.1021 0.8309 0.44956 0.0
H943 H 0.10453 0.82588 0.49004 0.0
H944 H 0.1091 0.791 0.4587 0.0
H945 H 0.17056 0.8008 0.47686 0.0
H946 H 0.16613 0.83639 0.5085 0.0
H947 H 0.20582 0.84713 0.48079 0.0
H948 H 0.22144 0.95588 0.42389 0.0
H949 H 0.18472 0.98851 0.45632 0.0
H950 H 0.12474 0.88988 0.50321 0.0
C951 C 0.15905 0.81049 0.40383 0.0
C952 C 0.16721 0.81686 0.37187 0.0
C953 C 0.19261 0.85232 0.36436 0.0
C954 C 0.20781 0.88156 0.38814 0.0
C955 C 0.19655 0.87576 0.41966 0.0
C956 C 0.17318 0.84061 0.42769 0.0
C957 C 0.15714 0.84399 0.4617 0.0
C958 C 0.1158 0.82173 0.4651 0.0
C959 C 0.17606 0.83135 0.48322 0.0
C960 C 0.16763 0.88631 0.46823 0.0
C961 C 0.19353 0.90441 0.44524 0.0
C962 C 0.20197 0.94224 0.44244 0.0
C963 C 0.18085 0.96067 0.46084 0.0
C964 C 0.15159 0.94095 0.4814 0.0
C965 C 0.14707 0.90491 0.4872 0.0
H966 H 0.20498 0.94613 0.66134 0.0
H967 H 0.12101 0.86063 0.71271 0.0
H968 H 0.0748 0.87018 0.68822 0.0
H969 H 0.15563 0.0093 0.67212 0.0
H970 H 0.17315 0.02457 0.63372 0.0
H971 H 0.19973 0.0109 0.65539 0.0
H972 H 0.20514 0.96192 0.60743 0.0
H973 H 0.17886 0.9756 0.5856 0.0
H974 H 0.16467 0.92698 0.59129 0.0
H975 H 0.03778 0.88451 0.65262 0.0
H976 H 1.01459 0.90616 0.61269 0.0
H977 H 0.12247 0.98878 0.59325 0.0
C978 C 0.17701 0.92993 0.66835 0.0
C979 C 0.16721 0.90213 0.6888 0.0
C980 C 0.12984 0.88124 0.69633 0.0
C981 C 0.10312 0.88682 0.68289 0.0
C982 C 0.11394 0.91427 0.66274 0.0
C983 C 0.15002 0.93599 0.65609 0.0
C984 C 0.15482 0.96365 0.63369 0.0
C985 C 0.17183 0.00452 0.6497 0.0
C986 C 0.17717 0.95658 0.60268 0.0
C987 C 0.11586 0.95347 0.62816 0.0
C988 C 0.09251 0.9247 0.64478 0.0
C989 C 0.05568 0.90781 0.6402 0.0
C990 C 0.04268 0.92028 0.61758 0.0
C991 C 0.06645 0.94975 0.60041 0.0
C992 C 0.1032 0.96706 0.60666 0.0
H993 H 0.1702 0.224 0.69584 0.0
H994 H 0.21658 0.13987 0.69161 0.0
H995 H 0.18346 0.10403 0.6455 0.0
H996 H 0.08185 0.15849 0.67499 0.0
H997 H 0.07504 0.18813 0.65094 0.0
H998 H 0.10344 0.20904 0.68328 0.0
H999 H 0.15614 0.24536 0.64462 0.0
H1000 H 0.12798 0.22447 0.61208 0.0
H1001 H 0.17078 0.21969 0.60994 0.0
H1002 H 0.14715 0.07718 0.60207 0.0
H1003 H 0.10401 0.05542 0.56369 0.0
H1004 H 0.07628 0.15365 0.59205 0.0
C1005 C 0.1733 0.19803 0.68514 0.0
C1006 C 0.19597 0.18465 0.69744 0.0
C1007 C 0.19921 0.15051 0.68291 0.0
C1008 C 0.18074 0.1301 0.65649 0.0
C1009 C 0.15899 0.14407 0.64484 0.0
C1010 C 0.15467 0.17689 0.6586 0.0
C1011 C 0.12808 0.18401 0.64137 0.0
C1012 C 0.09514 0.18497 0.664 0.0
C1013 C 0.14686 0.22055 0.6261 0.0
C1014 C 0.11776 0.14944 0.61621 0.0
C1015 C 0.13674 0.12762 0.61885 0.0
C1016 C 0.13229 0.09413 0.59957 0.0
C1017 C 0.10727 0.08184 0.57727 0.0
C1018 C 0.08624 0.10225 0.57371 0.0
C1019 C 0.09198 0.1372 0.59351 0.0
H1020 H 0.83993 0.15549 0.65089 0.0
H1021 H 0.88068 0.23992 0.58703 0.0
H1022 H 0.8606 0.19034 0.54206 0.0
H1023 H 0.87674 0.10581 0.62109 0.0
H1024 H 0.84351 0.05866 0.62347 0.0
H1025 H 0.83822 0.09682 0.6503 0.0
H1026 H 0.77526 0.07998 0.63263 0.0
H1027 H 0.77981 0.04086 0.60536 0.0
H1028 H 0.76896 0.07564 0.59128 0.0
H1029 H 0.8633 0.13776 0.50591 0.0
H1030 H 0.89493 0.09508 0.48596 0.0
H1031 H 0.85709 0.04161 0.57101 0.0
C1032 C 0.84245 0.16372 0.62768 0.0
C1033 C 0.86187 0.20157 0.6224 0.0
C1034 C 0.86586 0.21114 0.59159 0.0
C1035 C 0.85404 0.18295 0.56594 0.0
C1036 C 0.83866 0.14523 0.57142 0.0
C1037 C 0.832 0.13561 0.60193 0.0
C1038 C 0.82556 0.09452 0.60159 0.0
C1039 C 0.84742 0.08876 0.62543 0.0
C1040 C 0.78499 0.07138 0.60805 0.0
C1041 C 0.8383 0.08538 0.56732 0.0
C1042 C 0.84182 0.11343 0.54963 0.0
C1043 C 0.85966 0.11526 0.51919 0.0
C1044 C 0.87777 0.09102 0.50802 0.0
C1045 C 0.87795 0.06547 0.52729 0.0
C1046 C 0.85602 0.06055 0.55598 0.0
H1047 H 0.85424 0.79087 0.66285 0.0
H1048 H 0.81852 0.87168 0.72599 0.0
H1049 H 0.85578 0.92119 0.69239 0.0
H1050 H 0.9465 0.85547 0.63905 0.0
H1051 H 0.94489 0.83405 0.59821 0.0
H1052 H 0.91946 0.80613 0.6293 0.0
H1053 H 0.8614 0.78636 0.60143 0.0
H1054 H 0.88591 0.8146 0.57041 0.0
H1055 H 0.84739 0.82191 0.59289 0.0
H1056 H 0.89289 0.96042 0.6509 0.0
H1057 H 0.92513 0.98684 0.60179 0.0
H1058 H 0.93512 0.88061 0.56301 0.0
C1059 C 0.85502 0.81926 0.66978 0.0
C1060 C 0.83403 0.82792 0.69706 0.0
C1061 C 0.8346 0.86483 0.70515 0.0
C1062 C 0.85577 0.89305 0.68633 0.0
C1063 C 0.87569 0.88363 0.65921 0.0
C1064 C 0.87531 0.84759 0.65069 0.0
C1065 C 0.89617 0.84417 0.61855 0.0
C1066 C 0.92869 0.83438 0.62147 0.0
C1067 C 0.87121 0.81505 0.59439 0.0
C1068 C 0.90822 0.88389 0.61037 0.0
C1069 C 0.89638 0.90618 0.63442 0.0
C1070 C 0.90258 0.9434 0.63204 0.0
C1071 C 0.92087 0.95815 0.60415 0.0
C1072 C 0.93272 0.93579 0.57905 0.0
C1073 C 0.92674 0.89832 0.58223 0.0
H1074 H 0.31509 0.19435 0.15782 0.0
H1075 H 0.31489 0.15417 0.24563 0.0
H1076 H 0.34922 0.11622 0.21692 0.0
H1077 H 0.30488 0.10327 0.10711 0.0
H1078 H 0.33269 0.1262 0.07412 0.0
H1079 H 0.30644 0.14834 0.10122 0.0
H1080 H 0.36418 0.20804 0.11176 0.0
H1081 H 0.39076 0.18596 0.08488 0.0
H1082 H 0.40224 0.20363 0.12519 0.0
H1083 H 0.38723 0.08501 0.17859 0.0
H1084 H 0.42261 0.06161 0.13388 0.0
H1085 H 0.39731 0.12092 0.07076 0.0
C1086 C 0.32176 0.17722 0.17102 0.0
C1087 C 0.31223 0.17764 0.20425 0.0
C1088 C 0.32186 0.15471 0.22034 0.0
C1089 C 0.34142 0.13294 0.20416 0.0
C1090 C 0.35104 0.13386 0.17162 0.0
C1091 C 0.34102 0.15499 0.15513 0.0
C1092 C 0.35459 0.15094 0.12018 0.0
C1093 C 0.32276 0.131 0.09942 0.0
C1094 C 0.37943 0.18943 0.10991 0.0
C1095 C 0.37524 0.12575 0.11979 0.0
C1096 C 0.37241 0.1157 0.14964 0.0
C1097 C 0.38921 0.09248 0.15513 0.0
C1098 C 0.40919 0.07921 0.12959 0.0
C1099 C 0.41235 0.08905 0.09882 0.0
C1100 C 0.39507 0.11264 0.09396 0.0
H1101 H 0.82153 0.29286 0.15639 0.0
H1102 H 0.86655 0.36646 0.24066 0.0
H1103 H 0.91335 0.4106 0.20705 0.0
H1104 H 0.90752 0.31246 0.10429 0.0
H1105 H 0.88674 0.31212 0.06995 0.0
H1106 H 0.86051 0.28333 0.10027 0.0
H1107 H 0.81368 0.31471 0.10673 0.0
H1108 H 0.83968 0.34293 0.07609 0.0
H1109 H 0.82904 0.36534 0.11451 0.0
H1110 H 0.95293 0.44824 0.16483 0.0
H1111 H 0.97801 0.48092 0.1172 0.0
H1112 H 0.90399 0.38634 0.06024 0.0
C1113 C 0.8417 0.31802 0.16759 0.0
C1114 C 0.84088 0.32633 0.20098 0.0
C1115 C 0.86693 0.3598 0.21506 0.0
C1116 C 0.89374 0.38478 0.19617 0.0
C1117 C 0.89367 0.37614 0.16326 0.0
C1118 C 0.86807 0.34381 0.14903 0.0
C1119 C 0.87147 0.34346 0.11333 0.0
C1120 C 0.8822 0.3109 0.09594 0.0
C1121 C 0.83638 0.34151 0.10202 0.0
C1122 C 0.90205 0.38128 0.10987 0.0
C1123 C 0.91522 0.39903 0.13888 0.0
C1124 C 0.94299 0.43456 0.14198 0.0
C1125 C 0.95709 0.45287 0.1149 0.0
C1126 C 0.9429 0.43594 0.08536 0.0
C1127 C 0.91537 0.39956 0.08267 0.0
H1128 H 0.66923 0.82629 0.08968 0.0
H1129 H 0.67969 0.90123 0.1785 0.0
H1130 H 0.63311 0.92093 0.16524 0.0
H1131 H 0.66409 0.88669 0.0437 0.0
H1132 H 0.63187 0.85151 0.01824 0.0
H1133 H 0.66095 0.83858 0.03732 0.0
H1134 H 0.60501 0.78742 0.06241 0.0
H1135 H 0.57566 0.80036 0.04341 0.0
H1136 H 0.56992 0.80044 0.08583 0.0
H1137 H 0.59547 0.94177 0.13765 0.0
H1138 H 0.56769 0.95964 0.09887 0.0
H1139 H 0.5781 0.86851 0.02952 0.0
C1140 C 0.66105 0.84618 0.10666 0.0
C1141 C 0.67794 0.86215 0.13517 0.0
C1142 C 0.66671 0.88823 0.15675 0.0
C1143 C 0.6403 0.89961 0.14938 0.0
C1144 C 0.62493 0.88414 0.12061 0.0
C1145 C 0.63455 0.85757 0.09978 0.0
C1146 C 0.61665 0.84793 0.06913 0.0
C1147 C 0.64508 0.85672 0.04043 0.0
C1148 C 0.59023 0.80657 0.06496 0.0
C1149 C 0.59672 0.87445 0.07535 0.0
C1150 C 0.60161 0.89495 0.10529 0.0
C1151 C 0.59027 0.92498 0.11465 0.0
C1152 C 0.57444 0.9349 0.09259 0.0
C1153 C 0.56959 0.91444 0.06184 0.0
C1154 C 0.5799 0.88325 0.05349 0.0
H1155 H 0.2432 0.70678 0.14426 0.0
H1156 H 0.20472 0.62633 0.21177 0.0
H1157 H 0.16882 0.57741 0.17122 0.0
H1158 H 0.16233 0.68516 0.1168 0.0
H1159 H 0.17843 0.69096 0.07582 0.0
H1160 H 0.20814 0.71575 0.10646 0.0
H1161 H 0.2544 0.68725 0.07887 0.0
H1162 H 0.22477 0.66197 0.04786 0.0
H1163 H 0.2403 0.63683 0.06982 0.0
H1164 H 0.13055 0.54035 0.12608 0.0
H1165 H 0.08888 0.5209 0.08404 0.0
H1166 H 0.14713 0.62811 0.04844 0.0
C1167 C 0.2274 0.67877 0.15034 0.0
C1168 C 0.22623 0.67023 0.18111 0.0
C1169 C 0.20608 0.63314 0.18813 0.0
C1170 C 0.18573 0.60525 0.16522 0.0
C1171 C 0.18605 0.61498 0.13539 0.0
C1172 C 0.20648 0.65092 0.12792 0.0
C1173 C 0.19842 0.65581 0.09603 0.0
C1174 C 0.18602 0.68884 0.09898 0.0
C1175 C 0.23143 0.66076 0.0717 0.0
C1176 C 0.16804 0.61826 0.08797 0.0
C1177 C 0.16259 0.59437 0.11012 0.0
C1178 C 0.13493 0.55871 0.10846 0.0
C1179 C 0.11144 0.54784 0.08439 0.0
C1180 C 0.11491 0.57305 0.06299 0.0
C1181 C 0.14416 0.60825 0.06434 0.0
H1182 H 0.3215 0.78677 0.8501 0.0
H1183 H 0.32698 0.87902 0.80349 0.0
H1184 H 0.35842 0.9245 0.8479 0.0
H1185 H 0.31397 0.82843 0.93285 0.0
H1186 H 0.34393 0.80998 0.94455 0.0
H1187 H 0.31624 0.78479 0.91226 0.0
H1188 H 0.37324 0.78586 0.87499 0.0
H1189 H 0.40097 0.81052 0.90716 0.0
H1190 H 0.41014 0.83029 0.87048 0.0
H1191 H 0.39274 0.95971 0.89571 0.0
H1192 H 0.43611 0.982 0.93657 0.0
H1193 H 0.41275 0.86633 0.94835 0.0
C1194 C 0.32901 0.81652 0.84922 0.0
C1195 C 0.32143 0.82935 0.82349 0.0
C1196 C 0.33206 0.86855 0.82323 0.0
C1197 C 0.34973 0.89453 0.84841 0.0
C1198 C 0.35696 0.88079 0.87335 0.0
C1199 C 0.34747 0.84268 0.87355 0.0
C1200 C 0.36277 0.83513 0.90038 0.0
C1201 C 0.33241 0.8133 0.92391 0.0
C1202 C 0.3883 0.81425 0.88748 0.0
C1203 C 0.38315 0.87505 0.91496 0.0
C1204 C 0.37855 0.90099 0.89969 0.0
C1205 C 0.3963 0.93966 0.90798 0.0
C1206 C 0.42067 0.95207 0.93141 0.0
C1207 C 0.42762 0.92582 0.94564 0.0
C1208 C 0.40767 0.88695 0.93804 0.0
H1209 H 0.23495 0.35691 0.82301 0.0
H1210 H 0.15957 0.2408 0.82405 0.0
H1211 H 0.11709 0.26209 0.861 0.0
H1212 H 0.21665 0.38954 0.90577 0.0
H1213 H 0.21933 0.43475 0.8986 0.0
H1214 H 0.24484 0.41091 0.87227 0.0
H1215 H 0.21514 0.41471 0.82443 0.0
H1216 H 0.18952 0.43857 0.85057 0.0
H1217 H 0.16657 0.39595 0.82511 0.0
H1218 H 0.08176 0.29445 0.896 0.0
H1219 H 0.0551 0.33638 0.92925 0.0
H1220 H 0.15169 0.43359 0.90795 0.0
C1221 C 0.20947 0.33602 0.831 0.0
C1222 C 0.20095 0.29697 0.82079 0.0
C1223 C 0.16724 0.27069 0.83183 0.0
C1224 C 0.1427 0.28254 0.85275 0.0
C1225 C 0.15189 0.32096 0.86242 0.0
C1226 C 0.18436 0.34747 0.85204 0.0
C1227 C 0.18688 0.3871 0.86628 0.0
C1228 C 0.21882 0.40673 0.88697 0.0
C1229 C 0.1897 0.41046 0.84003 0.0
C1230 C 0.15079 0.3785 0.88635 0.0
C1231 C 0.13119 0.34006 0.88336 0.0
C1232 C 0.09683 0.3246 0.89859 0.0
C1233 C 0.08184 0.34887 0.91739 0.0
C1234 C 0.10106 0.38851 0.9213 0.0
C1235 C 0.13629 0.4035 0.90563 0.0
H1236 H 0.70987 0.14284 0.80368 0.0
H1237 H 0.69019 0.24526 0.83716 0.0
H1238 H 0.64404 0.21332 0.87782 0.0
H1239 H 0.61822 0.07465 0.81966 0.0
H1240 H 0.63345 0.04323 0.834 0.0
H1241 H 0.66152 0.07257 0.80463 0.0
H1242 H 0.71366 0.10029 0.84078 0.0
H1243 H 0.68643 0.07114 0.87038 0.0
H1244 H 0.70698 0.12156 0.88078 0.0
H1245 H 0.60019 0.17 0.91598 0.0
H1246 H 0.57012 0.12253 0.95326 0.0
H1247 H 0.6234 0.05136 0.89859 0.0
C1248 C 0.69552 0.15841 0.81927 0.0
C1249 C 0.70253 0.19616 0.81615 0.0
C1250 C 0.68402 0.21582 0.83789 0.0
C1251 C 0.65787 0.19796 0.86131 0.0
C1252 C 0.65108 0.16054 0.86338 0.0
C1253 C 0.66991 0.14124 0.84335 0.0
C1254 C 0.66033 0.10262 0.85275 0.0
C1255 C 0.6423 0.07143 0.82617 0.0
C1256 C 0.69384 0.09868 0.86179 0.0
C1257 C 0.63373 0.10348 0.8814 0.0
C1258 C 0.62797 0.13671 0.88673 0.0
C1259 C 0.60455 0.14387 0.91206 0.0
C1260 C 0.58744 0.11677 0.933 0.0
C1261 C 0.59464 0.08353 0.92879 0.0
C1262 C 0.61757 0.07667 0.90236 0.0
H1263 H 0.96433 0.74468 0.89387 0.0
H1264 H 0.87122 0.6559 0.85179 0.0
H1265 H 0.88919 0.60837 0.8669 0.0
H1266 H 0.02565 0.69331 0.87585 0.0
H1267 H 0.04536 0.71145 0.9133 0.0
H1268 H 0.02916 0.73944 0.89522 0.0
H1269 H 0.98708 0.74542 0.94574 0.0
H1270 H 1.00364 0.71849 0.9645 0.0
H1271 H 0.95581 0.70339 0.96165 0.0
H1272 H 0.91293 0.57061 0.89089 0.0
H1273 H 0.9372 0.54523 0.92629 0.0
H1274 H 1.01344 0.6578 0.95591 0.0
C1275 C 0.94771 0.71528 0.88762 0.0
C1276 C 0.91644 0.70431 0.87121 0.0
C1277 C 0.8958 0.66534 0.86348 0.0
C1278 C 0.90573 0.638 0.8721 0.0
C1279 C 0.93636 0.64987 0.88854 0.0
C1280 C 0.95693 0.68757 0.89645 0.0
C1281 C 0.98647 0.69277 0.91693 0.0
C1282 C 0.02391 0.71032 0.8993 0.0
C1283 C 0.98301 0.7164 0.94911 0.0
C1284 C 0.97812 0.65214 0.92064 0.0
C1285 C 0.94972 0.6279 0.90327 0.0
C1286 C 0.93545 0.58925 0.90427 0.0
C1287 C 0.94951 0.5751 0.92449 0.0
C1288 C 0.97738 0.59948 0.94383 0.0
C1289 C 0.9927 0.63839 0.94099 0.0
H1290 H 0.14365 0.38588 0.17406 0.0
H1291 H 0.09117 0.26606 0.14445 0.0
H1292 H 0.0595 0.27895 0.10569 0.0
H1293 H 0.06956 0.41147 0.16779 0.0
H1294 H 0.0967 0.45487 0.15193 0.0
H1295 H 0.11571 0.43673 0.17732 0.0
H1296 H 0.16785 0.43754 0.13395 0.0
H1297 H 0.14931 0.4564 0.10878 0.0
H1298 H 0.1573 0.41376 0.09453 0.0
H1299 H 0.03028 0.30436 0.07335 0.0
H1300 H 1.0135 0.34085 0.04173 0.0
H1301 H 0.088 0.44485 0.08907 0.0
C1302 C 0.1259 0.36256 0.15898 0.0
C1303 C 0.11978 0.32498 0.16189 0.0
C1304 C 0.09624 0.29497 0.14217 0.0
C1305 C 0.07799 0.30204 0.12036 0.0
C1306 C 0.08388 0.33932 0.11843 0.0
C1307 C 0.10787 0.36918 0.13662 0.0
C1308 C 0.10998 0.40656 0.129 0.0
C1309 C 0.09722 0.42871 0.15826 0.0
C1310 C 0.14839 0.42993 0.11576 0.0
C1311 C 0.08348 0.39297 0.10373 0.0
C1312 C 0.0682 0.35407 0.09854 0.0
C1313 C 0.04227 0.33484 0.07698 0.0
C1314 C 0.03264 0.35585 0.05936 0.0
C1315 C 0.04941 0.39569 0.06292 0.0
C1316 C 0.07472 0.41442 0.08583 0.0
H1317 H 0.16301 0.65558 0.80253 0.0
H1318 H 0.24535 0.73754 0.86094 0.0
H1319 H 0.21125 0.70874 0.9085 0.0
H1320 H 0.08357 0.64508 0.86297 0.0
H1321 H 0.0628 0.59499 0.85166 0.0
H1322 H 0.09012 0.62486 0.82244 0.0
H1323 H 0.13034 0.58604 0.80883 0.0
H1324 H 0.10304 0.55559 0.83762 0.0
H1325 H 0.15114 0.57893 0.8401 0.0
H1326 H 0.17278 0.66786 0.94841 0.0
H1327 H 0.13304 0.61564 0.97828 0.0
H1328 H 0.07513 0.55812 0.8951 0.0
C1329 C 0.17328 0.66784 0.82551 0.0
C1330 C 0.20668 0.69887 0.82822 0.0
C1331 C 0.21986 0.71373 0.85843 0.0
C1332 C 0.20052 0.69776 0.88559 0.0
C1333 C 0.16807 0.66673 0.88217 0.0
C1334 C 0.15443 0.6518 0.85294 0.0
C1335 C 0.12099 0.61581 0.85554 0.0
C1336 C 0.08739 0.62053 0.84768 0.0
C1337 C 0.12674 0.5821 0.83427 0.0
C1338 C 0.11869 0.61231 0.89052 0.0
C1339 C 0.14583 0.64244 0.90545 0.0
C1340 C 0.15104 0.64451 0.93714 0.0
C1341 C 0.12839 0.61479 0.95391 0.0
C1342 C 0.10084 0.5834 0.93906 0.0
C1343 C 0.09549 0.58234 0.90711 0.0
H1344 H 0.35934 0.07482 0.83588 0.0
H1345 H 0.40662 0.19688 0.84784 0.0
H1346 H 0.44661 0.19636 0.88605 0.0
H1347 H 0.35694 0.06584 0.91737 0.0
H1348 H 0.36666 0.02369 0.90906 0.0
H1349 H 0.34398 0.03414 0.88128 0.0
H1350 H 0.3935 0.02952 0.83683 0.0
H1351 H 0.41659 0.0196 0.86467 0.0
H1352 H 0.44023 0.05857 0.84224 0.0
H1353 H 0.48117 0.18197 0.92341 0.0
H1354 H 0.50202 0.15561 0.96127 0.0
H1355 H 0.42987 0.0431 0.92601 0.0
C1356 C 0.37839 0.1014 0.84634 0.0
C1357 C 0.38024 0.13592 0.83879 0.0
C1358 C 0.40489 0.17018 0.8534 0.0
C1359 C 0.42781 0.17011 0.87491 0.0
C1360 C 0.42546 0.13553 0.88175 0.0
C1361 C 0.401 0.10181 0.86818 0.0
C1362 C 0.40197 0.0686 0.88109 0.0
C1363 C 0.36521 0.0468 0.89822 0.0
C1364 C 0.41379 0.04255 0.85462 0.0
C1365 C 0.4306 0.08885 0.90422 0.0
C1366 C 0.44428 0.12738 0.90394 0.0
C1367 C 0.47062 0.15183 0.9238 0.0
C1368 C 0.48244 0.13658 0.94514 0.0
C1369 C 0.46753 0.0973 0.94676 0.0
C1370 C 0.44185 0.07325 0.92545 0.0
H1371 H 0.80301 0.29056 0.86098 0.0
H1372 H 0.8334 0.37458 0.79716 0.0
H1373 H 0.86431 0.42401 0.83956 0.0
H1374 H 0.7934 0.35799 0.93617 0.0
H1375 H 0.80994 0.33519 0.95956 0.0
H1376 H 0.7837 0.30825 0.92674 0.0
H1377 H 0.83406 0.28553 0.90427 0.0
H1378 H 0.86262 0.31333 0.93494 0.0
H1379 H 0.87909 0.31872 0.89397 0.0
H1380 H 0.89984 0.46246 0.88596 0.0
H1381 H 0.94015 0.48438 0.92936 0.0
H1382 H 0.88775 0.37546 0.9627 0.0
C1383 C 0.8156 0.31949 0.85615 0.0
C1384 C 0.81582 0.32872 0.82573 0.0
C1385 C 0.83256 0.36689 0.82035 0.0
C1386 C 0.85006 0.39521 0.84437 0.0
C1387 C 0.85004 0.3851 0.87394 0.0
C1388 C 0.8328 0.34816 0.88003 0.0
C1389 C 0.83945 0.34416 0.91277 0.0
C1390 C 0.80455 0.33592 0.93513 0.0
C1391 C 0.85487 0.3137 0.91132 0.0
C1392 C 0.8667 0.38336 0.92241 0.0
C1393 C 0.87091 0.40717 0.90056 0.0
C1394 C 0.89619 0.44422 0.90348 0.0
C1395 C 0.91883 0.4566 0.92841 0.0
C1396 C 0.91674 0.43173 0.94955 0.0
C1397 C 0.88946 0.39515 0.94711 0.0
H1398 H 0.67273 0.78698 0.81444 0.0
H1399 H 0.78194 0.87111 0.8165 0.0
H1400 H 0.75976 0.91395 0.85506 0.0
H1401 H 0.62867 0.85191 0.8181 0.0
H1402 H 0.58981 0.82602 0.84288 0.0
H1403 H 0.61452 0.8016 0.8162 0.0
H1404 H 0.62384 0.77406 0.86318 0.0
H1405 H 0.59905 0.79829 0.89001 0.0
H1406 H 0.64419 0.80551 0.89732 0.0
H1407 H 0.72496 0.94839 0.89339 0.0
H1408 H 0.68136 0.97109 0.92795 0.0
H1409 H 0.59409 0.86524 0.90029 0.0
C1410 C 0.69207 0.81443 0.82292 0.0
C1411 C 0.72941 0.82525 0.8126 0.0
C1412 C 0.75349 0.86158 0.82443 0.0
C1413 C 0.74101 0.88632 0.84623 0.0
C1414 C 0.70413 0.87468 0.85597 0.0
C1415 C 0.68 0.83957 0.84463 0.0
C1416 C 0.64166 0.83399 0.85865 0.0
C1417 C 0.61723 0.82803 0.83239 0.0
C1418 C 0.62629 0.80101 0.87847 0.0
C1419 C 0.64789 0.87149 0.87958 0.0
C1420 C 0.68415 0.89454 0.87771 0.0
C1421 C 0.69653 0.9305 0.89495 0.0
C1422 C 0.67141 0.94321 0.91458 0.0
C1423 C 0.63399 0.92023 0.91704 0.0
C1424 C 0.62233 0.8838 0.89905 0.0
H1425 H 0.79928 0.65143 0.18956 0.0
H1426 H 0.8746 0.76747 0.18878 0.0
H1427 H 0.91717 0.74622 0.15166 0.0
H1428 H 0.86661 0.6114 0.18685 0.0
H1429 H 0.84367 0.56922 0.16093 0.0
H1430 H 0.81809 0.59309 0.18712 0.0
H1431 H 0.78924 0.59816 0.13923 0.0
H1432 H 0.81463 0.57419 0.11289 0.0
H1433 H 0.81799 0.61977 0.10606 0.0
H1434 H 0.95295 0.71343 0.11685 0.0
H1435 H 0.97934 0.67131 0.08341 0.0
H1436 H 0.88193 0.57454 0.10386 0.0
C1437 C 0.82474 0.67232 0.18151 0.0
C1438 C 0.83326 0.71136 0.19191 0.0
C1439 C 0.8669 0.73764 0.18075 0.0
C1440 C 0.89151 0.72576 0.1598 0.0
C1441 C 0.88236 0.68732 0.15002 0.0
C1442 C 0.84978 0.66086 0.16027 0.0
C1443 C 0.84706 0.62124 0.1457 0.0
C1444 C 0.84366 0.59733 0.1717 0.0
C1445 C 0.81535 0.60222 0.12472 0.0
C1446 C 0.88329 0.62969 0.12583 0.0
C1447 C 0.9031 0.6681 0.12905 0.0
C1448 C 0.93764 0.68333 0.11402 0.0
C1449 C 0.95249 0.65892 0.09509 0.0
C1450 C 0.93297 0.6193 0.09079 0.0
C1451 C 0.89763 0.60457 0.10641 0.0
H1452 H 0.33993 0.86372 0.20291 0.0
H1453 H 0.34007 0.75603 0.15529 0.0
H1454 H 0.38593 0.78817 0.11411 0.0
H1455 H 0.34328 0.90157 0.13521 0.0
H1456 H 0.37304 0.94916 0.14804 0.0
H1457 H 0.34493 0.91955 0.17695 0.0
H1458 H 0.39894 0.92848 0.20593 0.0
H1459 H 0.4284 0.9596 0.17827 0.0
H1460 H 0.43686 0.9193 0.18411 0.0
H1461 H 0.43097 0.83241 0.07722 0.0
H1462 H 0.46362 0.88345 0.04365 0.0
H1463 H 0.4304 0.96103 0.11351 0.0
C1464 C 0.34988 0.84692 0.184 0.0
C1465 C 0.3373 0.8074 0.18279 0.0
C1466 C 0.35046 0.78642 0.15731 0.0
C1467 C 0.3764 0.80445 0.13377 0.0
C1468 C 0.38886 0.84356 0.136 0.0
C1469 C 0.37569 0.86449 0.16029 0.0
C1470 C 0.39132 0.90576 0.1559 0.0
C1471 C 0.36133 0.91979 0.15381 0.0
C1472 C 0.41531 0.92969 0.18264 0.0
C1473 C 0.41377 0.90448 0.12453 0.0
C1474 C 0.41312 0.86863 0.11396 0.0
C1475 C 0.43174 0.86061 0.08533 0.0
C1476 C 0.45042 0.88972 0.06654 0.0
C1477 C 0.4495 0.92594 0.07622 0.0
C1478 C 0.43157 0.93351 0.1058 0.0
H1479 H 0.70797 0.22446 0.1661 0.0
H1480 H 0.71962 0.13148 0.19943 0.0
H1481 H 0.69103 0.08898 0.15266 0.0
H1482 H 0.62242 0.17504 0.14133 0.0
H1483 H 0.63019 0.19908 0.1072 0.0
H1484 H 0.65562 0.22241 0.14097 0.0
H1485 H 0.71516 0.23403 0.1045 0.0
H1486 H 0.68978 0.21007 0.07058 0.0
H1487 H 0.72297 0.19467 0.08039 0.0
H1488 H 0.65634 0.05573 0.105 0.0
H1489 H 0.61281 0.03334 0.06436 0.0
H1490 H 0.62441 0.14841 0.0625 0.0
C1491 C 0.70488 0.19525 0.16353 0.0
C1492 C 0.71613 0.18133 0.18641 0.0
C1493 C 0.71134 0.14284 0.18212 0.0
C1494 C 0.69541 0.11856 0.15551 0.0
C1495 C 0.68477 0.13332 0.13334 0.0
C1496 C 0.68919 0.17077 0.1372 0.0
C1497 C 0.67263 0.17909 0.11165 0.0
C1498 C 0.64348 0.19479 0.12616 0.0
C1499 C 0.70189 0.20606 0.09053 0.0
C1500 C 0.65645 0.14 0.09371 0.0
C1501 C 0.66459 0.11415 0.106 0.0
C1502 C 0.65028 0.07579 0.09484 0.0
C1503 C 0.6257 0.06334 0.07157 0.0
C1504 C 0.61527 0.08916 0.06023 0.0
C1505 C 0.63209 0.12807 0.07053 0.0
H1506 H 0.72695 0.65199 0.8216 0.0
H1507 H 0.66199 0.7171 0.81909 0.0
H1508 H 0.62027 0.6862 0.86232 0.0
H1509 H 0.65056 0.56568 0.8384 0.0
H1510 H 0.67388 0.55343 0.8645 0.0
H1511 H 0.69899 0.58016 0.83263 0.0
H1512 H 0.73877 0.63241 0.87293 0.0
H1513 H 0.71379 0.60591 0.90493 0.0
H1514 H 0.71755 0.65375 0.90622 0.0
H1515 H 0.58481 0.64849 0.90519 0.0
H1516 H 0.55888 0.60698 0.947 0.0
H1517 H 0.64621 0.5665 0.92395 0.0
C1518 C 0.70388 0.65957 0.83014 0.0
C1519 C 0.69771 0.6868 0.81666 0.0
C1520 C 0.6672 0.69602 0.82859 0.0
C1521 C 0.64328 0.67871 0.85331 0.0
C1522 C 0.64995 0.65199 0.86598 0.0
C1523 C 0.67941 0.64234 0.85494 0.0
C1524 C 0.67997 0.61261 0.87309 0.0
C1525 C 0.67559 0.57579 0.85083 0.0
C1526 C 0.71458 0.62705 0.89032 0.0
C1527 C 0.64676 0.60787 0.89639 0.0
C1528 C 0.62965 0.63055 0.89148 0.0
C1529 C 0.59795 0.63059 0.90933 0.0
C1530 C 0.58328 0.60678 0.93292 0.0
C1531 C 0.60044 0.58356 0.93872 0.0
C1532 C 0.6327 0.58427 0.92024 0.0
H1533 H 0.36212 0.54561 0.80826 0.0
H1534 H 0.3819 0.66434 0.83697 0.0
H1535 H 0.42918 0.66981 0.86928 0.0
H1536 H 0.36064 0.53247 0.88445 0.0
H1537 H 0.37942 0.49691 0.87665 0.0
H1538 H 0.35479 0.50155 0.84729 0.0
H1539 H 0.4082 0.51114 0.80453 0.0
H1540 H 0.43331 0.50368 0.83214 0.0
H1541 H 0.45227 0.54584 0.81314 0.0
H1542 H 0.46946 0.66107 0.90365 0.0
H1543 H 0.49183 0.6374 0.94215 0.0
H1544 H 0.43981 0.52309 0.89615 0.0
C1545 C 0.37649 0.57303 0.82089 0.0
C1546 C 0.3682 0.60458 0.81925 0.0
C1547 C 0.38817 0.63977 0.83653 0.0
C1548 C 0.4152 0.64324 0.85522 0.0
C1549 C 0.42182 0.61125 0.85688 0.0
C1550 C 0.40265 0.57673 0.84045 0.0
C1551 C 0.40934 0.54531 0.85102 0.0
C1552 C 0.37393 0.51741 0.86567 0.0
C1553 C 0.42683 0.52532 0.82356 0.0
C1554 C 0.43538 0.56746 0.87593 0.0
C1555 C 0.44288 0.60558 0.87851 0.0
C1556 C 0.46414 0.63132 0.90156 0.0
C1557 C 0.47686 0.61757 0.92328 0.0
C1558 C 0.4676 0.57832 0.92223 0.0
C1559 C 0.44767 0.55325 0.89747 0.0
H1560 H 0.31952 0.35318 0.84022 0.0
H1561 H 0.37755 0.28622 0.78599 0.0
H1562 H 0.42585 0.31538 0.82223 0.0
H1563 H 0.3989 0.43864 0.86309 0.0
H1564 H 0.37891 0.44655 0.90277 0.0
H1565 H 0.3505 0.42388 0.87053 0.0
H1566 H 0.31454 0.36753 0.90171 0.0
H1567 H 0.343 0.38981 0.93387 0.0
H1568 H 0.33815 0.34305 0.91514 0.0
H1569 H 0.4644 0.34617 0.86546 0.0
H1570 H 0.49456 0.38035 0.91345 0.0
H1571 H 0.41303 0.42875 0.94198 0.0
C1572 C 0.34296 0.34559 0.83564 0.0
C1573 C 0.34516 0.31777 0.8103 0.0
C1574 C 0.37552 0.30752 0.80533 0.0
C1575 C 0.40305 0.32392 0.82574 0.0
C1576 C 0.39962 0.35028 0.85114 0.0
C1577 C 0.37055 0.36126 0.85627 0.0
C1578 C 0.3726 0.38812 0.88693 0.0
C1579 C 0.3754 0.42658 0.8804 0.0
C1580 C 0.34015 0.3711 0.91082 0.0
C1581 C 0.40752 0.39067 0.89794 0.0
C1582 C 0.42229 0.3683 0.87683 0.0
C1583 C 0.45337 0.36408 0.88207 0.0
C1584 C 0.47011 0.38344 0.90957 0.0
C1585 C 0.45606 0.4071 0.9315 0.0
C1586 C 0.42444 0.41106 0.92551 0.0
H1587 H 0.62446 0.27317 0.89465 0.0
H1588 H 0.68349 0.34924 0.82549 0.0
H1589 H 0.70778 0.40023 0.86795 0.0
H1590 H 0.58847 0.32742 0.93652 0.0
H1591 H 0.58951 0.31743 0.9757 0.0
H1592 H 0.59073 0.28365 0.942 0.0
H1593 H 0.64995 0.28444 0.95868 0.0
H1594 H 0.64915 0.31939 0.99226 0.0
H1595 H 0.68839 0.32825 0.96405 0.0
H1596 H 0.71071 0.44603 0.91292 0.0
H1597 H 0.68057 0.48124 0.95149 0.0
H1598 H 0.61769 0.38036 0.99481 0.0
C1599 C 0.6434 0.30036 0.8887 0.0
C1600 C 0.65295 0.30687 0.85681 0.0
C1601 C 0.67709 0.34299 0.84972 0.0
C1602 C 0.69127 0.37225 0.87381 0.0
C1603 C 0.68062 0.36551 0.90516 0.0
C1604 C 0.65695 0.33035 0.91273 0.0
C1605 C 0.64197 0.33282 0.9471 0.0
C1606 C 0.60024 0.31434 0.95046 0.0
C1607 C 0.65836 0.31519 0.96667 0.0
C1608 C 0.65607 0.37528 0.95579 0.0
C1609 C 0.68082 0.39348 0.93225 0.0
C1610 C 0.69217 0.4323 0.93192 0.0
C1611 C 0.67499 0.45225 0.95395 0.0
C1612 C 0.64667 0.43297 0.97545 0.0
C1613 C 0.63957 0.39524 0.97834 0.0
H1614 H 0.68409 0.37092 0.11852 0.0
H1615 H 0.67369 0.42652 0.21407 0.0
H1616 H 0.62522 0.44279 0.19935 0.0
H1617 H 0.67069 0.43519 0.07813 0.0
H1618 H 0.64534 0.39952 0.0484 0.0
H1619 H 0.67815 0.39184 0.06714 0.0
H1620 H 0.62883 0.32975 0.08389 0.0
H1621 H 0.59579 0.33759 0.06541 0.0
H1622 H 0.58792 0.33069 0.10667 0.0
H1623 H 0.58342 0.4595 0.17167 0.0
H1624 H 0.55025 0.4725 0.13392 0.0
H1625 H 0.58263 0.39883 0.0592 0.0
C1626 C 0.67151 0.38651 0.13625 0.0
C1627 C 0.68263 0.39797 0.16724 0.0
C1628 C 0.66546 0.41784 0.19012 0.0
C1629 C 0.6379 0.42698 0.18201 0.0
C1630 C 0.62737 0.41518 0.15117 0.0
C1631 C 0.64345 0.39503 0.12876 0.0
C1632 C 0.62784 0.38624 0.09714 0.0
C1633 C 0.65725 0.40429 0.0712 0.0
C1634 C 0.60896 0.34352 0.08775 0.0
C1635 C 0.60086 0.40508 0.10505 0.0
C1636 C 0.6011 0.42197 0.13623 0.0
C1637 C 0.58198 0.44532 0.14755 0.0
C1638 C 0.56301 0.45235 0.12617 0.0
C1639 C 0.56258 0.43511 0.09432 0.0
C1640 C 0.58094 0.41053 0.08398 0.0
H1641 H 0.67967 0.72816 0.18869 0.0
H1642 H 0.7232 0.64347 0.19205 0.0
H1643 H 0.69093 0.60509 0.14627 0.0
H1644 H 0.59227 0.66425 0.16874 0.0
H1645 H 0.58701 0.69195 0.14189 0.0
H1646 H 0.61537 0.71479 0.17403 0.0
H1647 H 0.66906 0.74626 0.13401 0.0
H1648 H 0.64091 0.72339 0.10166 0.0
H1649 H 0.68282 0.71731 0.1014 0.0
H1650 H 0.6516 0.57353 0.10467 0.0
H1651 H 0.60568 0.54872 0.06775 0.0
H1652 H 0.58741 0.65304 0.08628 0.0
C1653 C 0.68242 0.7016 0.17967 0.0
C1654 C 0.70373 0.68869 0.19416 0.0
C1655 C 0.70672 0.6538 0.18169 0.0
C1656 C 0.68877 0.63189 0.15546 0.0
C1657 C 0.66807 0.64527 0.14177 0.0
C1658 C 0.66462 0.67917 0.15321 0.0
C1659 C 0.6391 0.68558 0.13441 0.0
C1660 C 0.6065 0.68935 0.15606 0.0
C1661 C 0.65917 0.72019 0.11682 0.0
C1662 C 0.62801 0.64928 0.11137 0.0
C1663 C 0.64557 0.62696 0.11613 0.0
C1664 C 0.63831 0.59106 0.10002 0.0
C1665 C 0.61201 0.57713 0.07863 0.0
C1666 C 0.5933 0.59889 0.07282 0.0
C1667 C 0.6018 0.63586 0.08935 0.0
H1668 H 0.34545 0.63449 0.15903 0.0
H1669 H 0.36469 0.70862 0.08903 0.0
H1670 H 0.34789 0.65405 0.04751 0.0
H1671 H 0.38835 0.59127 0.13174 0.0
H1672 H 0.36102 0.54286 0.13725 0.0
H1673 H 0.35089 0.57971 0.16197 0.0
H1674 H 0.28586 0.55054 0.14563 0.0
H1675 H 0.29593 0.51295 0.12054 0.0
H1676 H 0.27754 0.5404 0.10432 0.0
H1677 H 0.35861 0.60351 0.01404 0.0
H1678 H 0.40333 0.57481 0.99763 0.0
H1679 H 0.37904 0.52854 0.08575 0.0
C1680 C 0.34383 0.63872 0.13521 0.0
C1681 C 0.35679 0.67551 0.12703 0.0
C1682 C 0.35536 0.68056 0.09567 0.0
C1683 C 0.34519 0.64948 0.07202 0.0
C1684 C 0.33656 0.61348 0.08005 0.0
C1685 C 0.3346 0.60783 0.11138 0.0
C1686 C 0.33485 0.56953 0.11325 0.0
C1687 C 0.36041 0.57109 0.13737 0.0
C1688 C 0.29625 0.54172 0.12139 0.0
C1689 C 0.34749 0.55969 0.07904 0.0
C1690 C 0.34384 0.58277 0.05963 0.0
C1691 C 0.36071 0.58483 0.02877 0.0
C1692 C 0.3861 0.56819 0.01939 0.0
C1693 C 0.39426 0.55001 0.0409 0.0
C1694 C 0.37207 0.54192 0.06916 0.0
H1695 H 0.31779 0.35399 0.19251 0.0
H1696 H 0.37401 0.27777 0.18249 0.0
H1697 H 0.41157 0.30649 0.13607 0.0
H1698 H 0.31621 0.35399 0.10892 0.0
H1699 H 0.32368 0.40324 0.11274 0.0
H1700 H 0.30102 0.37668 0.14525 0.0
H1701 H 0.3481 0.42483 0.18249 0.0
H1702 H 0.37086 0.45162 0.15015 0.0
H1703 H 0.39551 0.43519 0.17155 0.0
H1704 H 0.44211 0.34228 0.0903 0.0
H1705 H 0.46524 0.3848 0.04895 0.0
H1706 H 0.39132 0.4396 0.08944 0.0
C1707 C 0.33807 0.34347 0.18053 0.0
C1708 C 0.34316 0.3138 0.19108 0.0
C1709 C 0.36996 0.30075 0.17493 0.0
C1710 C 0.39128 0.31672 0.14846 0.0
C1711 C 0.3856 0.34588 0.13859 0.0
C1712 C 0.3598 0.35929 0.15414 0.0
C1713 C 0.35954 0.39122 0.13876 0.0
C1714 C 0.32294 0.38064 0.12564 0.0
C1715 C 0.36908 0.42788 0.16213 0.0
C1716 C 0.38929 0.39369 0.11221 0.0
C1717 C 0.40384 0.36716 0.11251 0.0
C1718 C 0.4314 0.36361 0.09015 0.0
C1719 C 0.44482 0.38822 0.06711 0.0
C1720 C 0.43106 0.41624 0.06694 0.0
C1721 C 0.40252 0.41858 0.0894 0.0
H1722 H 0.86162 0.71337 0.69351 0.0
H1723 H 0.75156 0.63238 0.68615 0.0
H1724 H 0.77382 0.58985 0.64732 0.0
H1725 H 0.89499 0.69861 0.61221 0.0
H1726 H 0.93853 0.70268 0.62134 0.0
H1727 H 0.91375 0.72697 0.64808 0.0
H1728 H 0.91738 0.69434 0.69415 0.0
H1729 H 0.94217 0.66992 0.66756 0.0
H1730 H 0.90111 0.64365 0.68982 0.0
H1731 H 0.80881 0.55556 0.60859 0.0
H1732 H 0.85266 0.53278 0.5744 0.0
H1733 H 0.94048 0.63494 0.6082 0.0
C1734 C 0.84208 0.68667 0.68383 0.0
C1735 C 0.80449 0.67683 0.69264 0.0
C1736 C 0.78024 0.64133 0.67937 0.0
C1737 C 0.79275 0.61671 0.65738 0.0
C1738 C 0.82986 0.62744 0.64908 0.0
C1739 C 0.85419 0.66152 0.66211 0.0
C1740 C 0.89276 0.66609 0.64968 0.0
C1741 C 0.91108 0.70063 0.63176 0.0
C1742 C 0.91464 0.66865 0.67692 0.0
C1743 C 0.88639 0.62953 0.62726 0.0
C1744 C 0.84991 0.60755 0.62734 0.0
C1745 C 0.83742 0.57259 0.60849 0.0
C1746 C 0.86267 0.5598 0.58909 0.0
C1747 C 0.90033 0.58177 0.58838 0.0
C1748 C 0.91205 0.61717 0.608 0.0
H1749 H 0.33089 0.86456 0.70872 0.0
H1750 H 0.32977 0.75781 0.6573 0.0
H1751 H 0.37164 0.79045 0.61491 0.0
H1752 H 0.3276 0.90126 0.63849 0.0
H1753 H 0.35576 0.94916 0.65217 0.0
H1754 H 0.32855 0.91781 0.68041 0.0
H1755 H 0.38565 0.93092 0.70817 0.0
H1756 H 0.41318 0.96203 0.67981 0.0
H1757 H 0.42366 0.92286 0.68534 0.0
H1758 H 0.41403 0.83415 0.57798 0.0
H1759 H 0.44718 0.88533 0.54502 0.0
H1760 H 0.41633 0.96358 0.61625 0.0
C1761 C 0.3396 0.84812 0.68861 0.0
C1762 C 0.32835 0.8086 0.68724 0.0
C1763 C 0.33955 0.78816 0.65995 0.0
C1764 C 0.3631 0.80647 0.63545 0.0
C1765 C 0.37446 0.84538 0.63787 0.0
C1766 C 0.36249 0.86598 0.66331 0.0
C1767 C 0.37662 0.90719 0.65852 0.0
C1768 C 0.34527 0.91958 0.65731 0.0
C1769 C 0.40124 0.93223 0.68451 0.0
C1770 C 0.3981 0.9063 0.62638 0.0
C1771 C 0.39706 0.87043 0.61529 0.0
C1772 C 0.41505 0.86239 0.58637 0.0
C1773 C 0.43412 0.89165 0.56795 0.0
C1774 C 0.43467 0.92834 0.5783 0.0
C1775 C 0.41645 0.93574 0.60792 0.0
H1776 H 0.16264 0.31772 0.58949 0.0
H1777 H 0.18065 0.39787 0.67542 0.0
H1778 H 0.13554 0.41986 0.66252 0.0
H1779 H 0.15861 0.37665 0.5412 0.0
H1780 H 0.124 0.34145 0.51792 0.0
H1781 H 0.15278 0.32779 0.53672 0.0
H1782 H 0.09645 0.28065 0.56527 0.0
H1783 H 0.06744 0.29437 0.54657 0.0
H1784 H 0.06383 0.29718 0.58919 0.0
H1785 H 0.09829 0.44141 0.63527 0.0
H1786 H 0.07001 0.45889 0.59666 0.0
H1787 H 0.07267 0.36244 0.53007 0.0
C1788 C 0.15646 0.33932 0.60593 0.0
C1789 C 0.17501 0.35601 0.63352 0.0
C1790 C 0.16635 0.38431 0.65441 0.0
C1791 C 0.1408 0.39699 0.64724 0.0
C1792 C 0.12366 0.38064 0.61939 0.0
C1793 C 0.1308 0.35205 0.59926 0.0
C1794 C 0.11131 0.3416 0.56942 0.0
C1795 C 0.13828 0.34723 0.53958 0.0
C1796 C 0.08307 0.30103 0.56752 0.0
C1797 C 0.09341 0.36994 0.57521 0.0
C1798 C 0.10062 0.39204 0.60431 0.0
C1799 C 0.09134 0.4235 0.61296 0.0
C1800 C 0.07525 0.43321 0.59099 0.0
C1801 C 0.06813 0.41118 0.56102 0.0
C1802 C 0.07631 0.37858 0.55348 0.0
H1803 H 0.74095 0.21263 0.64283 0.0
H1804 H 0.73319 0.12076 0.69055 0.0
H1805 H 0.69946 0.07505 0.64757 0.0
H1806 H 0.65365 0.17625 0.62737 0.0
H1807 H 0.66027 0.19275 0.58945 0.0
H1808 H 0.69248 0.21758 0.61822 0.0
H1809 H 0.74405 0.21012 0.57773 0.0
H1810 H 0.7121 0.18538 0.54841 0.0
H1811 H 0.74044 0.1639 0.55849 0.0
H1812 H 0.65678 0.03966 0.60448 0.0
H1813 H 0.60781 0.01916 0.56887 0.0
H1814 H 0.63944 0.13472 0.55216 0.0
C1815 C 0.73286 0.1829 0.64385 0.0
C1816 C 0.7403 0.17036 0.66985 0.0
C1817 C 0.72921 0.13117 0.67034 0.0
C1818 C 0.70961 0.10494 0.64608 0.0
C1819 C 0.70124 0.11833 0.62148 0.0
C1820 C 0.71275 0.15656 0.62022 0.0
C1821 C 0.69586 0.16418 0.5944 0.0
C1822 C 0.67428 0.18912 0.6082 0.0
C1823 C 0.72484 0.18194 0.5682 0.0
C1824 C 0.67129 0.12444 0.58253 0.0
C1825 C 0.67559 0.0982 0.59762 0.0
C1826 C 0.6537 0.05994 0.59216 0.0
C1827 C 0.62598 0.04848 0.57175 0.0
C1828 C 0.61983 0.0753 0.55762 0.0
C1829 C 0.64366 0.1135 0.56237 0.0
H1830 H 0.83976 0.36927 0.32081 0.0
H1831 H 0.77816 0.26593 0.36142 0.0
H1832 H 0.80276 0.29629 0.41293 0.0
H1833 H 0.91627 0.38829 0.35205 0.0
H1834 H 0.9307 0.43884 0.36004 0.0
H1835 H 0.90102 0.4131 0.3295 0.0
H1836 H 0.85462 0.44205 0.35665 0.0
H1837 H 0.88439 0.46807 0.38741 0.0
H1838 H 0.8385 0.43751 0.39773 0.0
H1839 H 0.84403 0.3306 0.45404 0.0
H1840 H 0.89873 0.36741 0.48238 0.0
H1841 H 0.9329 0.45063 0.41758 0.0
C1842 C 0.83031 0.35383 0.34107 0.0
C1843 C 0.80691 0.3156 0.33757 0.0
C1844 C 0.79602 0.29541 0.36395 0.0
C1845 C 0.8096 0.31251 0.3933 0.0
C1846 C 0.83389 0.34988 0.39586 0.0
C1847 C 0.84389 0.37055 0.37056 0.0
C1848 C 0.8747 0.40799 0.378 0.0
C1849 C 0.90759 0.41226 0.35346 0.0
C1850 C 0.8623 0.44086 0.38008 0.0
C1851 C 0.88219 0.40388 0.41035 0.0
C1852 C 0.85775 0.3705 0.42053 0.0
C1853 C 0.86252 0.35746 0.44705 0.0
C1854 C 0.89362 0.37838 0.46294 0.0
C1855 C 0.91916 0.41203 0.45242 0.0
C1856 C 0.91278 0.42567 0.42665 0.0
H1857 H 0.7369 0.85971 0.32281 0.0
H1858 H 0.6628 0.74284 0.32126 0.0
H1859 H 0.61884 0.76262 0.35755 0.0
H1860 H 0.71594 0.88997 0.40552 0.0
H1861 H 0.71841 0.9353 0.3989 0.0
H1862 H 0.74486 0.91239 0.37276 0.0
H1863 H 0.71633 0.91699 0.32447 0.0
H1864 H 0.68973 0.93988 0.35043 0.0
H1865 H 0.66785 0.89768 0.32411 0.0
H1866 H 0.58177 0.794 0.39236 0.0
H1867 H 0.55412 0.83503 0.42595 0.0
H1868 H 0.65086 0.93321 0.40733 0.0
C1869 C 0.71139 0.83831 0.33008 0.0
C1870 C 0.70368 0.79951 0.31925 0.0
C1871 C 0.66988 0.77258 0.32944 0.0
C1872 C 0.64448 0.78358 0.34999 0.0
C1873 C 0.65288 0.8218 0.36023 0.0
C1874 C 0.68546 0.84888 0.35076 0.0
C1875 C 0.6872 0.88811 0.3655 0.0
C1876 C 0.71846 0.90759 0.38695 0.0
C1877 C 0.69047 0.91208 0.33958 0.0
C1878 C 0.65062 0.87868 0.38485 0.0
C1879 C 0.63134 0.84018 0.38104 0.0
C1880 C 0.59662 0.82418 0.39559 0.0
C1881 C 0.58106 0.84793 0.4146 0.0
C1882 C 0.60007 0.88759 0.41945 0.0
C1883 C 0.63555 0.90309 0.40432 0.0
H1884 H 0.20013 0.64392 0.30144 0.0
H1885 H 0.19257 0.74935 0.3472 0.0
H1886 H 0.14709 0.71607 0.38768 0.0
H1887 H 0.10468 0.58326 0.31913 0.0
H1888 H 0.11542 0.54512 0.32682 0.0
H1889 H 0.14441 0.57636 0.29905 0.0
H1890 H 0.19809 0.58996 0.33044 0.0
H1891 H 0.1702 0.56025 0.35926 0.0
H1892 H 0.19733 0.60883 0.37201 0.0
H1893 H 0.10313 0.67138 0.42449 0.0
H1894 H 0.0715 0.62068 0.45852 0.0
H1895 H 0.1115 0.54557 0.39204 0.0
C1896 C 0.18874 0.65995 0.31986 0.0
C1897 C 0.19903 0.69922 0.32036 0.0
C1898 C 0.18393 0.71912 0.34533 0.0
C1899 C 0.15821 0.70044 0.36867 0.0
C1900 C 0.14808 0.6617 0.36718 0.0
C1901 C 0.16327 0.64172 0.34371 0.0
C1902 C 0.14953 0.60072 0.349 0.0
C1903 C 0.12718 0.57484 0.32189 0.0
C1904 C 0.18069 0.58934 0.35298 0.0
C1905 C 0.12577 0.60127 0.37976 0.0
C1906 C 0.12428 0.63639 0.38932 0.0
C1907 C 0.10412 0.64375 0.41719 0.0
C1908 C 0.08607 0.6148 0.43629 0.0
C1909 C 0.08914 0.57939 0.4278 0.0
C1910 C 0.10873 0.57245 0.39894 0.0
H1911 H 0.40718 0.12096 0.32641 0.0
H1912 H 0.45939 0.24118 0.35493 0.0
H1913 H 0.48633 0.22876 0.39755 0.0
H1914 H 0.3844 0.09533 0.40552 0.0
H1915 H 0.39215 0.05213 0.39481 0.0
H1916 H 0.37836 0.07063 0.36579 0.0
H1917 H 0.43453 0.06995 0.3281 0.0
H1918 H 0.44852 0.05174 0.35724 0.0
H1919 H 0.47891 0.09453 0.34197 0.0
H1920 H 0.50941 0.20338 0.43564 0.0
H1921 H 0.52006 0.1671 0.47179 0.0
H1922 H 0.44936 0.06302 0.42137 0.0
C1923 C 0.42436 0.14461 0.34162 0.0
C1924 C 0.43138 0.18208 0.33733 0.0
C1925 C 0.45358 0.21231 0.35793 0.0
C1926 C 0.4692 0.20552 0.38202 0.0
C1927 C 0.46204 0.16829 0.38544 0.0
C1928 C 0.43968 0.1383 0.36617 0.0
C1929 C 0.43495 0.101 0.37597 0.0
C1930 C 0.3951 0.07846 0.38614 0.0
C1931 C 0.45014 0.07795 0.34922 0.0
C1932 C 0.45782 0.11474 0.40398 0.0
C1933 C 0.47385 0.15364 0.40852 0.0
C1934 C 0.49684 0.17293 0.43242 0.0
C1935 C 0.50291 0.15202 0.45272 0.0
C1936 C 0.48548 0.11221 0.44949 0.0
C1937 C 0.46296 0.09341 0.42451 0.0
H1938 H 0.65696 0.82739 0.60878 0.0
H1939 H 0.55919 0.76677 0.66441 0.0
H1940 H 0.52849 0.804 0.64858 0.0
H1941 H 0.64739 0.92036 0.62299 0.0
H1942 H 0.66493 0.92961 0.58294 0.0
H1943 H 0.68009 0.90178 0.60223 0.0
H1944 H 0.66122 0.84764 0.5556 0.0
H1945 H 0.64583 0.87513 0.53632 0.0
H1946 H 0.6154 0.82881 0.54479 0.0
H1947 H 0.50627 0.84097 0.61969 0.0
H1948 H 0.49585 0.87754 0.5832 0.0
H1949 H 0.60931 0.91609 0.54908 0.0
C1950 C 0.62946 0.82295 0.61835 0.0
C1951 C 0.61038 0.79487 0.63809 0.0
C1952 C 0.57416 0.78872 0.64959 0.0
C1953 C 0.55662 0.80966 0.6407 0.0
C1954 C 0.5759 0.83672 0.62051 0.0
C1955 C 0.61172 0.84376 0.60985 0.0
C1956 C 0.62564 0.87216 0.58649 0.0
C1957 C 0.65632 0.90811 0.59945 0.0
C1958 C 0.63771 0.85489 0.55388 0.0
C1959 C 0.59192 0.87946 0.58511 0.0
C1960 C 0.56341 0.85876 0.60478 0.0
C1961 C 0.52862 0.85802 0.60479 0.0
C1962 C 0.52287 0.87872 0.58397 0.0
C1963 C 0.55186 0.90018 0.56382 0.0
C1964 C 0.58682 0.9009 0.56493 0.0
H1965 H 0.70761 0.14128 0.30585 0.0
H1966 H 0.6989 0.24633 0.35011 0.0
H1967 H 0.65421 0.21367 0.3916 0.0
H1968 H 0.61421 0.07937 0.32387 0.0
H1969 H 0.62583 0.0423 0.3327 0.0
H1970 H 0.65466 0.07329 0.30471 0.0
H1971 H 0.70928 0.09086 0.33742 0.0
H1972 H 0.68072 0.05962 0.36525 0.0
H1973 H 0.70593 0.10842 0.37906 0.0
H1974 H 0.61082 0.16959 0.42834 0.0
H1975 H 0.57825 0.1192 0.46214 0.0
H1976 H 0.61861 0.04333 0.39697 0.0
C1977 C 0.69611 0.15718 0.32431 0.0
C1978 C 0.70509 0.19596 0.32414 0.0
C1979 C 0.69041 0.21623 0.3489 0.0
C1980 C 0.66543 0.19796 0.37275 0.0
C1981 C 0.65611 0.15941 0.37184 0.0
C1982 C 0.67149 0.13934 0.34865 0.0
C1983 C 0.65864 0.0987 0.35449 0.0
C1984 C 0.63705 0.07183 0.32733 0.0
C1985 C 0.69054 0.08884 0.35936 0.0
C1986 C 0.63434 0.09934 0.38491 0.0
C1987 C 0.63259 0.13442 0.39407 0.0
C1988 C 0.61188 0.14196 0.42138 0.0
C1989 C 0.59313 0.11309 0.44026 0.0
C1990 C 0.59559 0.0774 0.43194 0.0
C1991 C 0.61623 0.07041 0.40378 0.0
H1992 H 0.87227 0.68172 0.41775 0.0
H1993 H 0.84729 0.59806 0.33444 0.0
H1994 H 0.89411 0.57666 0.34456 0.0
H1995 H 0.97277 0.70139 0.41054 0.0
H1996 H 0.97309 0.70709 0.45307 0.0
H1997 H 0.94264 0.72034 0.43586 0.0
H1998 H 0.8883 0.67653 0.46898 0.0
H1999 H 0.91853 0.6635 0.48634 0.0
H2000 H 0.88142 0.62754 0.46626 0.0
H2001 H 0.9325 0.55555 0.37018 0.0
H2002 H 0.96123 0.53808 0.40831 0.0
H2003 H 0.96619 0.63877 0.47244 0.0
C2004 C 0.87743 0.65956 0.40127 0.0
C2005 C 0.85642 0.64145 0.37537 0.0
C2006 C 0.86349 0.61241 0.35426 0.0
C2007 C 0.89007 0.60022 0.35977 0.0
C2008 C 0.90987 0.61807 0.386 0.0
C2009 C 0.9043 0.64757 0.40612 0.0
C2010 C 0.92653 0.6595 0.43432 0.0
C2011 C 0.95548 0.69945 0.43337 0.0
C2012 C 0.90224 0.65655 0.46581 0.0
C2013 C 0.94349 0.63038 0.42817 0.0
C2014 C 0.93399 0.60707 0.39988 0.0
C2015 C 0.9414 0.57443 0.39168 0.0
C2016 C 0.95772 0.56471 0.41339 0.0
C2017 C 0.96682 0.58783 0.44265 0.0
C2018 C 0.96098 0.62174 0.44951 0.0
H2019 H 0.36027 0.86546 0.30604 0.0
H2020 H 0.25754 0.81207 0.35889 0.0
H2021 H 0.28364 0.84801 0.40889 0.0
H2022 H 0.41445 0.86218 0.35781 0.0
H2023 H 0.45016 0.90739 0.35325 0.0
H2024 H 0.42178 0.88239 0.32158 0.0
H2025 H 0.40491 0.93997 0.32181 0.0
H2026 H 0.43347 0.9654 0.3535 0.0
H2027 H 0.38661 0.95947 0.35822 0.0
H2028 H 0.32462 0.88091 0.45379 0.0
H2029 H 0.37537 0.91079 0.48838 0.0
H2030 H 0.44994 0.94556 0.40616 0.0
C2031 C 0.34307 0.86221 0.32808 0.0
C2032 C 0.30702 0.83593 0.32867 0.0
C2033 C 0.28525 0.83219 0.35791 0.0
C2034 C 0.29988 0.85246 0.38645 0.0
C2035 C 0.33607 0.87711 0.38526 0.0
C2036 C 0.35713 0.88262 0.35667 0.0
C2037 C 0.39582 0.90863 0.36183 0.0
C2038 C 0.42208 0.88896 0.3478 0.0
C2039 C 0.40578 0.94555 0.34802 0.0
C2040 C 0.39383 0.91537 0.39777 0.0
C2041 C 0.35908 0.89733 0.41099 0.0
C2042 C 0.35164 0.89619 0.44373 0.0
C2043 C 0.38049 0.91334 0.46325 0.0
C2044 C 0.41611 0.93161 0.44995 0.0
C2045 C 0.42261 0.93314 0.41696 0.0
H2046 H 0.18065 0.30658 0.29487 0.0
H2047 H 0.27007 0.33421 0.35046 0.0
H2048 H 0.24512 0.37117 0.39174 0.0
H2049 H 0.17295 0.39925 0.31588 0.0
H2050 H 0.12442 0.37886 0.3161 0.0
H2051 H 0.15145 0.3559 0.29091 0.0
H2052 H 0.11393 0.29438 0.31792 0.0
H2053 H 0.08807 0.31918 0.34237 0.0
H2054 H 0.1112 0.2978 0.36048 0.0
H2055 H 0.21146 0.40742 0.42673 0.0
H2056 H 0.16918 0.43639 0.45477 0.0
H2057 H 0.09849 0.38447 0.37865 0.0
C2058 C 0.19498 0.32027 0.31561 0.0
C2059 C 0.2281 0.31718 0.31888 0.0
C2060 C 0.2455 0.33607 0.34676 0.0
C2061 C 0.23123 0.3573 0.37058 0.0
C2062 C 0.19905 0.36008 0.36639 0.0
C2063 C 0.18095 0.34204 0.33965 0.0
C2064 C 0.14667 0.34991 0.34129 0.0
C2065 C 0.14897 0.37227 0.31445 0.0
C2066 C 0.11296 0.31314 0.34045 0.0
C2067 C 0.14796 0.37416 0.37348 0.0
C2068 C 0.1789 0.38023 0.38717 0.0
C2069 C 0.18709 0.40279 0.41626 0.0
C2070 C 0.16298 0.41937 0.43195 0.0
C2071 C 0.13051 0.4129 0.419 0.0
C2072 C 0.12299 0.38987 0.38927 0.0
H2073 H 0.2941 0.14626 0.68948 0.0
H2074 H 0.37187 0.26187 0.69687 0.0
H2075 H 0.41587 0.24175 0.66083 0.0
H2076 H 0.35884 0.10143 0.68563 0.0
H2077 H 0.33579 0.0624 0.65703 0.0
H2078 H 0.31065 0.08593 0.68424 0.0
H2079 H 0.28641 0.09753 0.63611 0.0
H2080 H 0.31244 0.07482 0.60912 0.0
H2081 H 0.31804 0.12222 0.60564 0.0
H2082 H 0.45255 0.2102 0.62642 0.0
H2083 H 0.47955 0.16943 0.59175 0.0
H2084 H 0.37894 0.07266 0.60257 0.0
C2085 C 0.32046 0.16722 0.68354 0.0
C2086 C 0.3294 0.20583 0.69598 0.0
C2087 C 0.36409 0.23235 0.68742 0.0
C2088 C 0.38944 0.22113 0.66707 0.0
C2089 C 0.37988 0.18315 0.65514 0.0
C2090 C 0.34623 0.15648 0.66274 0.0
C2091 C 0.34316 0.11761 0.64565 0.0
C2092 C 0.3367 0.09022 0.66959 0.0
C2093 C 0.31323 0.10214 0.62277 0.0
C2094 C 0.38048 0.12673 0.62764 0.0
C2095 C 0.40106 0.16477 0.63388 0.0
C2096 C 0.43667 0.18039 0.62121 0.0
C2097 C 0.45184 0.15675 0.60157 0.0
C2098 C 0.4316 0.11757 0.59423 0.0
C2099 C 0.39518 0.10242 0.60746 0.0
H2100 H 0.8117 0.28769 0.64629 0.0
H2101 H 0.88799 0.32137 0.71758 0.0
H2102 H 0.93524 0.36145 0.68174 0.0
H2103 H 0.87919 0.29396 0.57301 0.0
H2104 H 0.8533 0.31097 0.55386 0.0
H2105 H 0.83098 0.27876 0.58273 0.0
H2106 H 0.80519 0.32868 0.61016 0.0
H2107 H 0.8318 0.36291 0.5843 0.0
H2108 H 0.83526 0.37467 0.62656 0.0
H2109 H 0.97342 0.40164 0.63913 0.0
H2110 H 0.99618 0.44309 0.59669 0.0
H2111 H 0.89303 0.38746 0.55635 0.0
C2112 C 0.83855 0.30286 0.65414 0.0
C2113 C 0.84624 0.30075 0.6846 0.0
C2114 C 0.88155 0.32176 0.69415 0.0
C2115 C 0.90864 0.34466 0.6739 0.0
C2116 C 0.90003 0.34648 0.6442 0.0
C2117 C 0.86574 0.32618 0.63439 0.0
C2118 C 0.86207 0.33658 0.60313 0.0
C2119 C 0.85598 0.30302 0.57665 0.0
C2120 C 0.83183 0.35172 0.6063 0.0
C2121 C 0.89894 0.36711 0.59771 0.0
C2122 C 0.921 0.37152 0.62095 0.0
C2123 C 0.95635 0.39831 0.62079 0.0
C2124 C 0.96909 0.42165 0.59663 0.0
C2125 C 0.94613 0.41861 0.57363 0.0
C2126 C 0.91093 0.39056 0.57394 0.0
H2127 H 0.20479 0.71842 0.66292 0.0
H2128 H 0.21839 0.62575 0.69489 0.0
H2129 H 0.18918 0.5833 0.64829 0.0
H2130 H 0.11863 0.66826 0.64089 0.0
H2131 H 0.12432 0.6923 0.60716 0.0
H2132 H 0.15115 0.71587 0.64006 0.0
H2133 H 0.20946 0.72834 0.60174 0.0
H2134 H 0.1827 0.70432 0.56866 0.0
H2135 H 0.21699 0.68935 0.57668 0.0
H2136 H 0.15299 0.54996 0.60133 0.0
H2137 H 0.10791 0.52752 0.56204 0.0
H2138 H 0.11792 0.64234 0.56178 0.0
C2139 C 0.20218 0.68933 0.66003 0.0
C2140 C 0.21414 0.67548 0.68246 0.0
C2141 C 0.20975 0.6371 0.67784 0.0
C2142 C 0.1934 0.61284 0.65135 0.0
C2143 C 0.18183 0.62753 0.62973 0.0
C2144 C 0.18594 0.6649 0.63394 0.0
C2145 C 0.1679 0.67307 0.60945 0.0
C2146 C 0.13877 0.68823 0.62534 0.0
C2147 C 0.19594 0.70039 0.58785 0.0
C2148 C 0.1515 0.63405 0.59156 0.0
C2149 C 0.16059 0.6083 0.60301 0.0
C2150 C 0.14622 0.56997 0.5918 0.0
C2151 C 0.12075 0.55749 0.5693 0.0
C2152 C 0.10955 0.58323 0.55876 0.0
C2153 C 0.12623 0.62208 0.56918 0.0
loop_
_geom_bond_atom_site_label_1
_geom_bond_atom_site_label_2
_geom_bond_distance
_geom_bond_site_symmetry_2
_ccdc_geom_bond_type
Eu0 N29 2.600 . S
Eu0 N35 2.562 . S
Eu0 O44 2.462 . S
Eu0 O45 2.373 . S
Eu0 O47 2.432 . S
Eu0 O48 2.291 . S
Eu0 O52 2.335 . S
Eu0 O55 2.372 . S
Eu0 C64 2.787 . S
C1 N2 1.365 . S
C1 C4 1.405 . S
C1 C8 1.448 . S
N2 C1 1.365 . S
N2 C5 1.319 . S
N2 Eu11 2.600 . S
C3 C5 1.397 . S
C3 C6 1.367 . S
C3 H23 0.931 . S
C4 C1 1.405 . S
C4 C6 1.403 . S
C4 C10 1.439 . S
C5 N2 1.319 . S
C5 C3 1.397 . S
C5 H16 0.930 . S
C6 C3 1.367 . S
C6 C4 1.403 . S
C6 H27 0.929 . S
C7 C8 1.430 . S
C7 C9 1.387 . S
C7 C13 1.404 . S
C8 C1 1.448 . S
C8 C7 1.430 . S
C8 N12 1.351 . S
C9 C7 1.387 . S
C9 C10 1.374 . S
C9 H24 0.931 . S
C10 C4 1.439 . S
C10 C9 1.374 . S
C10 H25 0.931 . S
Eu11 N2 2.600 . S
Eu11 N12 2.562 . S
Eu11 O46 2.335 . S
Eu11 O49 2.372 . S
Eu11 O50 2.462 . S
Eu11 O51 2.373 . S
Eu11 O53 2.432 . S
Eu11 O54 2.291 . S
Eu11 C75 2.787 . S
N12 C8 1.351 . S
N12 Eu11 2.562 . S
N12 C14 1.325 . S
C13 C7 1.404 . S
C13 C15 1.366 . S
C13 H21 0.930 . S
C14 N12 1.325 . S
C14 C15 1.416 . S
C14 H20 0.929 . S
C15 C13 1.366 . S
C15 C14 1.416 . S
C15 H17 0.930 . S
H16 C5 0.930 . S
H17 C15 0.930 . S
H18 C33 0.930 . S
H19 C40 0.930 . S
H20 C14 0.929 . S
H21 C13 0.930 . S
H22 C36 0.929 . S
H23 C3 0.931 . S
H24 C9 0.931 . S
H25 C10 0.931 . S
H26 C31 0.931 . S
H27 C6 0.929 . S
H28 C39 0.930 . S
N29 Eu0 2.600 . S
N29 C30 1.365 . S
N29 C33 1.319 . S
C30 N29 1.365 . S
C30 C32 1.405 . S
C30 C38 1.448 . S
C31 H26 0.931 . S
C31 C33 1.397 . S
C31 C34 1.367 . S
C32 C30 1.405 . S
C32 C34 1.403 . S
C32 C65 1.439 . S
C33 H18 0.930 . S
C33 N29 1.319 . S
C33 C31 1.397 . S
C34 C31 1.367 . S
C34 C32 1.403 . S
C34 H41 0.929 . S
N35 Eu0 2.562 . S
N35 C36 1.325 . S
N35 C38 1.351 . S
C36 H22 0.929 . S
C36 N35 1.325 . S
C36 C40 1.416 . S
C37 C38 1.430 . S
C37 C39 1.404 . S
C37 C66 1.387 . S
C38 C30 1.448 . S
C38 N35 1.351 . S
C38 C37 1.430 . S
C39 H28 0.930 . S
C39 C37 1.404 . S
C39 C40 1.366 . S
C40 H19 0.930 . S
C40 C36 1.416 . S
C40 C39 1.366 . S
H41 C34 0.929 . S
H42 C65 0.931 . S
H43 C66 0.931 . S
O44 Eu0 2.462 . S
O44 C64 1.252 . S
O45 Eu0 2.373 . S
O45 C56 1.249 . S
O46 Eu11 2.335 . S
O46 C56 1.264 . S
O47 Eu0 2.432 . S
O47 C64 1.268 . S
O48 Eu0 2.291 . S
O48 C63 1.255 . S
O49 Eu11 2.372 . S
O49 C63 1.257 . S
O50 Eu11 2.462 . S
O50 C75 1.252 . S
O51 Eu11 2.373 . S
O51 C67 1.249 . S
O52 Eu0 2.335 . S
O52 C67 1.264 . S
O53 Eu11 2.432 . S
O53 C75 1.268 . S
O54 Eu11 2.291 . S
O54 C74 1.255 . S
O55 Eu0 2.372 . S
O55 C74 1.257 . S
C56 O45 1.249 . S
C56 O46 1.264 . S
C57 C60 1.382 . S
C57 C62 1.390 . S
C57 C64 1.506 . S
C58 C59 1.398 . S
C58 C62 1.392 . S
C59 C58 1.398 . S
C59 C61 1.372 . S
C59 H76 0.931 . S
C60 C57 1.382 . S
C60 C61 1.390 . S
C60 H77 0.931 . S
C61 C59 1.372 . S
C61 C60 1.390 . S
C61 H78 0.929 . S
C62 C57 1.390 . S
C62 C58 1.392 . S
C62 H79 0.930 . S
C63 O48 1.255 . S
C63 O49 1.257 . S
C64 Eu0 2.787 . S
C64 O44 1.252 . S
C64 O47 1.268 . S
C64 C57 1.506 . S
C65 C32 1.439 . S
C65 H42 0.931 . S
C65 C66 1.374 . S
C66 C37 1.387 . S
C66 H43 0.931 . S
C66 C65 1.374 . S
C67 O51 1.249 . S
C67 O52 1.264 . S
C68 C71 1.382 . S
C68 C72 1.390 . S
C68 C75 1.506 . S
C69 C70 1.398 . S
C69 C72 1.392 . S
C70 C69 1.398 . S
C70 C73 1.372 . S
C70 H80 0.931 . S
C71 C68 1.382 . S
C71 C73 1.390 . S
C71 H81 0.931 . S
C72 C68 1.390 . S
C72 C69 1.392 . S
C72 H82 0.930 . S
C73 C70 1.372 . S
C73 C71 1.390 . S
C73 H83 0.929 . S
C74 O54 1.255 . S
C74 O55 1.257 . S
C75 Eu11 2.787 . S
C75 O50 1.252 . S
C75 O53 1.268 . S
C75 C68 1.506 . S
H76 C59 0.931 . S
H77 C60 0.931 . S
H78 C61 0.929 . S
H79 C62 0.930 . S
H80 C70 0.931 . S
H81 C71 0.931 . S
H82 C72 0.930 . S
H83 C73 0.929 . S
Eu84 N113 2.600 . S
Eu84 N119 2.562 . S
Eu84 O128 2.462 . S
Eu84 O129 2.373 . S
Eu84 O131 2.432 . S
Eu84 O132 2.291 . S
Eu84 O136 2.335 . S
Eu84 O139 2.372 . S
Eu84 C148 2.787 . S
C85 N86 1.365 . S
C85 C88 1.405 . S
C85 C92 1.448 . S
N86 C85 1.365 . S
N86 C89 1.319 . S
N86 Eu95 2.600 . S
C87 C89 1.397 . S
C87 C90 1.367 . S
C87 H107 0.931 . S
C88 C85 1.405 . S
C88 C90 1.403 . S
C88 C94 1.439 . S
C89 N86 1.319 . S
C89 C87 1.397 . S
C89 H100 0.930 . S
C90 C87 1.367 . S
C90 C88 1.403 . S
C90 H111 0.929 . S
C91 C92 1.430 . S
C91 C93 1.387 . S
C91 C97 1.404 . S
C92 C85 1.448 . S
C92 C91 1.430 . S
C92 N96 1.351 . S
C93 C91 1.387 . S
C93 C94 1.374 . S
C93 H108 0.931 . S
C94 C88 1.439 . S
C94 C93 1.374 . S
C94 H109 0.931 . S
Eu95 N86 2.600 . S
Eu95 N96 2.562 . S
Eu95 O130 2.335 . S
Eu95 O133 2.372 . S
Eu95 O134 2.462 . S
Eu95 O135 2.373 . S
Eu95 O137 2.432 . S
Eu95 O138 2.291 . S
Eu95 C159 2.787 . S
N96 C92 1.351 . S
N96 Eu95 2.562 . S
N96 C98 1.325 . S
C97 C91 1.404 . S
C97 C99 1.366 . S
C97 H105 0.930 . S
C98 N96 1.325 . S
C98 C99 1.416 . S
C98 H104 0.929 . S
C99 C97 1.366 . S
C99 C98 1.416 . S
C99 H101 0.930 . S
H100 C89 0.930 . S
H101 C99 0.930 . S
H102 C117 0.930 . S
H103 C124 0.930 . S
H104 C98 0.929 . S
H105 C97 0.930 . S
H106 C120 0.929 . S
H107 C87 0.931 . S
H108 C93 0.931 . S
H109 C94 0.931 . S
H110 C115 0.931 . S
H111 C90 0.929 . S
H112 C123 0.930 . S
N113 Eu84 2.600 . S
N113 C114 1.365 . S
N113 C117 1.319 . S
C114 N113 1.365 . S
C114 C116 1.405 . S
C114 C122 1.448 . S
C115 H110 0.931 . S
C115 C117 1.397 . S
C115 C118 1.367 . S
C116 C114 1.405 . S
C116 C118 1.403 . S
C116 C149 1.439 . S
C117 H102 0.930 . S
C117 N113 1.319 . S
C117 C115 1.397 . S
C118 C115 1.367 . S
C118 C116 1.403 . S
C118 H125 0.929 . S
N119 Eu84 2.562 . S
N119 C120 1.325 . S
N119 C122 1.351 . S
C120 H106 0.929 . S
C120 N119 1.325 . S
C120 C124 1.416 . S
C121 C122 1.430 . S
C121 C123 1.404 . S
C121 C150 1.387 . S
C122 C114 1.448 . S
C122 N119 1.351 . S
C122 C121 1.430 . S
C123 H112 0.930 . S
C123 C121 1.404 . S
C123 C124 1.366 . S
C124 H103 0.930 . S
C124 C120 1.416 . S
C124 C123 1.366 . S
H125 C118 0.929 . S
H126 C149 0.931 . S
H127 C150 0.931 . S
O128 Eu84 2.462 . S
O128 C148 1.252 . S
O129 Eu84 2.373 . S
O129 C140 1.249 . S
O130 Eu95 2.335 . S
O130 C140 1.264 . S
O131 Eu84 2.432 . S
O131 C148 1.268 . S
O132 Eu84 2.291 . S
O132 C147 1.255 . S
O133 Eu95 2.372 . S
O133 C147 1.257 . S
O134 Eu95 2.462 . S
O134 C159 1.252 . S
O135 Eu95 2.373 . S
O135 C151 1.249 . S
O136 Eu84 2.335 . S
O136 C151 1.264 . S
O137 Eu95 2.432 . S
O137 C159 1.268 . S
O138 Eu95 2.291 . S
O138 C158 1.255 . S
O139 Eu84 2.372 . S
O139 C158 1.257 . S
C140 O129 1.249 . S
C140 O130 1.264 . S
C141 C144 1.382 . S
C141 C146 1.390 . S
C141 C148 1.506 . S
C142 C143 1.398 . S
C142 C146 1.392 . S
C143 C142 1.398 . S
C143 C145 1.372 . S
C143 H160 0.931 . S
C144 C141 1.382 . S
C144 C145 1.390 . S
C144 H161 0.931 . S
C145 C143 1.372 . S
C145 C144 1.390 . S
C145 H162 0.929 . S
C146 C141 1.390 . S
C146 C142 1.392 . S
C146 H163 0.930 . S
C147 O132 1.255 . S
C147 O133 1.257 . S
C148 Eu84 2.787 . S
C148 O128 1.252 . S
C148 O131 1.268 . S
C148 C141 1.506 . S
C149 C116 1.439 . S
C149 H126 0.931 . S
C149 C150 1.374 . S
C150 C121 1.387 . S
C150 H127 0.931 . S
C150 C149 1.374 . S
C151 O135 1.249 . S
C151 O136 1.264 . S
C152 C155 1.382 . S
C152 C156 1.390 . S
C152 C159 1.506 . S
C153 C154 1.398 . S
C153 C156 1.392 . S
C154 C153 1.398 . S
C154 C157 1.372 . S
C154 H164 0.931 . S
C155 C152 1.382 . S
C155 C157 1.390 . S
C155 H165 0.931 . S
C156 C152 1.390 . S
C156 C153 1.392 . S
C156 H166 0.930 . S
C157 C154 1.372 . S
C157 C155 1.390 . S
C157 H167 0.929 . S
C158 O138 1.255 . S
C158 O139 1.257 . S
C159 Eu95 2.787 . S
C159 O134 1.252 . S
C159 O137 1.268 . S
C159 C152 1.506 . S
H160 C143 0.931 . S
H161 C144 0.931 . S
H162 C145 0.929 . S
H163 C146 0.930 . S
H164 C154 0.931 . S
H165 C155 0.931 . S
H166 C156 0.930 . S
H167 C157 0.929 . S
Eu168 N197 2.600 . S
Eu168 N203 2.562 . S
Eu168 O212 2.462 . S
Eu168 O213 2.373 . S
Eu168 O215 2.432 . S
Eu168 O216 2.291 . S
Eu168 O220 2.335 . S
Eu168 O223 2.372 . S
Eu168 C232 2.787 . S
C169 N170 1.365 . S
C169 C172 1.405 . S
C169 C176 1.448 . S
N170 C169 1.365 . S
N170 C173 1.319 . S
N170 Eu179 2.600 . S
C171 C173 1.397 . S
C171 C174 1.367 . S
C171 H191 0.931 . S
C172 C169 1.405 . S
C172 C174 1.403 . S
C172 C178 1.439 . S
C173 N170 1.319 . S
C173 C171 1.397 . S
C173 H184 0.930 . S
C174 C171 1.367 . S
C174 C172 1.403 . S
C174 H195 0.929 . S
C175 C176 1.430 . S
C175 C177 1.387 . S
C175 C181 1.404 . S
C176 C169 1.448 . S
C176 C175 1.430 . S
C176 N180 1.351 . S
C177 C175 1.387 . S
C177 C178 1.374 . S
C177 H192 0.931 . S
C178 C172 1.439 . S
C178 C177 1.374 . S
C178 H193 0.931 . S
Eu179 N170 2.600 . S
Eu179 N180 2.562 . S
Eu179 O214 2.335 . S
Eu179 O217 2.372 . S
Eu179 O218 2.462 . S
Eu179 O219 2.373 . S
Eu179 O221 2.432 . S
Eu179 O222 2.291 . S
Eu179 C243 2.787 . S
N180 C176 1.351 . S
N180 Eu179 2.562 . S
N180 C182 1.325 . S
C181 C175 1.404 . S
C181 C183 1.366 . S
C181 H189 0.930 . S
C182 N180 1.325 . S
C182 C183 1.416 . S
C182 H188 0.929 . S
C183 C181 1.366 . S
C183 C182 1.416 . S
C183 H185 0.930 . S
H184 C173 0.930 . S
H185 C183 0.930 . S
H186 C201 0.930 . S
H187 C208 0.930 . S
H188 C182 0.929 . S
H189 C181 0.930 . S
H190 C204 0.929 . S
H191 C171 0.931 . S
H192 C177 0.931 . S
H193 C178 0.931 . S
H194 C199 0.931 . S
H195 C174 0.929 . S
H196 C207 0.930 . S
N197 Eu168 2.600 . S
N197 C198 1.365 . S
N197 C201 1.319 . S
C198 N197 1.365 . S
C198 C200 1.405 . S
C198 C206 1.448 . S
C199 H194 0.931 . S
C199 C201 1.397 . S
C199 C202 1.367 . S
C200 C198 1.405 . S
C200 C202 1.403 . S
C200 C233 1.439 . S
C201 H186 0.930 . S
C201 N197 1.319 . S
C201 C199 1.397 . S
C202 C199 1.367 . S
C202 C200 1.403 . S
C202 H209 0.929 . S
N203 Eu168 2.562 . S
N203 C204 1.325 . S
N203 C206 1.351 . S
C204 H190 0.929 . S
C204 N203 1.325 . S
C204 C208 1.416 . S
C205 C206 1.430 . S
C205 C207 1.404 . S
C205 C234 1.387 . S
C206 C198 1.448 . S
C206 N203 1.351 . S
C206 C205 1.430 . S
C207 H196 0.930 . S
C207 C205 1.404 . S
C207 C208 1.366 . S
C208 H187 0.930 . S
C208 C204 1.416 . S
C208 C207 1.366 . S
H209 C202 0.929 . S
H210 C233 0.931 . S
H211 C234 0.931 . S
O212 Eu168 2.462 . S
O212 C232 1.252 . S
O213 Eu168 2.373 . S
O213 C224 1.249 . S
O214 Eu179 2.335 . S
O214 C224 1.264 . S
O215 Eu168 2.432 . S
O215 C232 1.268 . S
O216 Eu168 2.291 . S
O216 C231 1.255 . S
O217 Eu179 2.372 . S
O217 C231 1.257 . S
O218 Eu179 2.462 . S
O218 C243 1.252 . S
O219 Eu179 2.373 . S
O219 C235 1.249 . S
O220 Eu168 2.335 . S
O220 C235 1.264 . S
O221 Eu179 2.432 . S
O221 C243 1.268 . S
O222 Eu179 2.291 . S
O222 C242 1.255 . S
O223 Eu168 2.372 . S
O223 C242 1.257 . S
C224 O213 1.249 . S
C224 O214 1.264 . S
C225 C228 1.382 . S
C225 C230 1.390 . S
C225 C232 1.506 . S
C226 C227 1.398 . S
C226 C230 1.392 . S
C227 C226 1.398 . S
C227 C229 1.372 . S
C227 H244 0.931 . S
C228 C225 1.382 . S
C228 C229 1.390 . S
C228 H245 0.931 . S
C229 C227 1.372 . S
C229 C228 1.390 . S
C229 H246 0.929 . S
C230 C225 1.390 . S
C230 C226 1.392 . S
C230 H247 0.930 . S
C231 O216 1.255 . S
C231 O217 1.257 . S
C232 Eu168 2.787 . S
C232 O212 1.252 . S
C232 O215 1.268 . S
C232 C225 1.506 . S
C233 C200 1.439 . S
C233 H210 0.931 . S
C233 C234 1.374 . S
C234 C205 1.387 . S
C234 H211 0.931 . S
C234 C233 1.374 . S
C235 O219 1.249 . S
C235 O220 1.264 . S
C236 C239 1.382 . S
C236 C240 1.390 . S
C236 C243 1.506 . S
C237 C238 1.398 . S
C237 C240 1.392 . S
C238 C237 1.398 . S
C238 C241 1.372 . S
C238 H248 0.931 . S
C239 C236 1.382 . S
C239 C241 1.390 . S
C239 H249 0.931 . S
C240 C236 1.390 . S
C240 C237 1.392 . S
C240 H250 0.930 . S
C241 C238 1.372 . S
C241 C239 1.390 . S
C241 H251 0.929 . S
C242 O222 1.255 . S
C242 O223 1.257 . S
C243 Eu179 2.787 . S
C243 O218 1.252 . S
C243 O221 1.268 . S
C243 C236 1.506 . S
H244 C227 0.931 . S
H245 C228 0.931 . S
H246 C229 0.929 . S
H247 C230 0.930 . S
H248 C238 0.931 . S
H249 C239 0.931 . S
H250 C240 0.930 . S
H251 C241 0.929 . S
Eu252 N281 2.600 . S
Eu252 N287 2.562 . S
Eu252 O296 2.462 . S
Eu252 O297 2.373 . S
Eu252 O299 2.432 . S
Eu252 O300 2.291 . S
Eu252 O304 2.335 . S
Eu252 O307 2.372 . S
Eu252 C316 2.787 . S
C253 N254 1.365 . S
C253 C256 1.405 . S
C253 C260 1.448 . S
N254 C253 1.365 . S
N254 C257 1.319 . S
N254 Eu263 2.600 . S
C255 C257 1.397 . S
C255 C258 1.367 . S
C255 H275 0.931 . S
C256 C253 1.405 . S
C256 C258 1.403 . S
C256 C262 1.439 . S
C257 N254 1.319 . S
C257 C255 1.397 . S
C257 H268 0.930 . S
C258 C255 1.367 . S
C258 C256 1.403 . S
C258 H279 0.929 . S
C259 C260 1.430 . S
C259 C261 1.387 . S
C259 C265 1.404 . S
C260 C253 1.448 . S
C260 C259 1.430 . S
C260 N264 1.351 . S
C261 C259 1.387 . S
C261 C262 1.374 . S
C261 H276 0.931 . S
C262 C256 1.439 . S
C262 C261 1.374 . S
C262 H277 0.931 . S
Eu263 N254 2.600 . S
Eu263 N264 2.562 . S
Eu263 O298 2.335 . S
Eu263 O301 2.372 . S
Eu263 O302 2.462 . S
Eu263 O303 2.373 . S
Eu263 O305 2.432 . S
Eu263 O306 2.291 . S
Eu263 C327 2.787 . S
N264 C260 1.351 . S
N264 Eu263 2.562 . S
N264 C266 1.325 . S
C265 C259 1.404 . S
C265 C267 1.366 . S
C265 H273 0.930 . S
C266 N264 1.325 . S
C266 C267 1.416 . S
C266 H272 0.929 . S
C267 C265 1.366 . S
C267 C266 1.416 . S
C267 H269 0.930 . S
H268 C257 0.930 . S
H269 C267 0.930 . S
H270 C285 0.930 . S
H271 C292 0.930 . S
H272 C266 0.929 . S
H273 C265 0.930 . S
H274 C288 0.929 . S
H275 C255 0.931 . S
H276 C261 0.931 . S
H277 C262 0.931 . S
H278 C283 0.931 . S
H279 C258 0.929 . S
H280 C291 0.930 . S
N281 Eu252 2.600 . S
N281 C282 1.365 . S
N281 C285 1.319 . S
C282 N281 1.365 . S
C282 C284 1.405 . S
C282 C290 1.448 . S
C283 H278 0.931 . S
C283 C285 1.397 . S
C283 C286 1.367 . S
C284 C282 1.405 . S
C284 C286 1.403 . S
C284 C317 1.439 . S
C285 H270 0.930 . S
C285 N281 1.319 . S
C285 C283 1.397 . S
C286 C283 1.367 . S
C286 C284 1.403 . S
C286 H293 0.929 . S
N287 Eu252 2.562 . S
N287 C288 1.325 . S
N287 C290 1.351 . S
C288 H274 0.929 . S
C288 N287 1.325 . S
C288 C292 1.416 . S
C289 C290 1.430 . S
C289 C291 1.404 . S
C289 C318 1.387 . S
C290 C282 1.448 . S
C290 N287 1.351 . S
C290 C289 1.430 . S
C291 H280 0.930 . S
C291 C289 1.404 . S
C291 C292 1.366 . S
C292 H271 0.930 . S
C292 C288 1.416 . S
C292 C291 1.366 . S
H293 C286 0.929 . S
H294 C317 0.931 . S
H295 C318 0.931 . S
O296 Eu252 2.462 . S
O296 C316 1.252 . S
O297 Eu252 2.373 . S
O297 C308 1.249 . S
O298 Eu263 2.335 . S
O298 C308 1.264 . S
O299 Eu252 2.432 . S
O299 C316 1.268 . S
O300 Eu252 2.291 . S
O300 C315 1.255 . S
O301 Eu263 2.372 . S
O301 C315 1.257 . S
O302 Eu263 2.462 . S
O302 C327 1.252 . S
O303 Eu263 2.373 . S
O303 C319 1.249 . S
O304 Eu252 2.335 . S
O304 C319 1.264 . S
O305 Eu263 2.432 . S
O305 C327 1.268 . S
O306 Eu263 2.291 . S
O306 C326 1.255 . S
O307 Eu252 2.372 . S
O307 C326 1.257 . S
C308 O297 1.249 . S
C308 O298 1.264 . S
C309 C312 1.382 . S
C309 C314 1.390 . S
C309 C316 1.506 . S
C310 C311 1.398 . S
C310 C314 1.392 . S
C311 C310 1.398 . S
C311 C313 1.372 . S
C311 H328 0.931 . S
C312 C309 1.382 . S
C312 C313 1.390 . S
C312 H329 0.931 . S
C313 C311 1.372 . S
C313 C312 1.390 . S
C313 H330 0.929 . S
C314 C309 1.390 . S
C314 C310 1.392 . S
C314 H331 0.930 . S
C315 O300 1.255 . S
C315 O301 1.257 . S
C316 Eu252 2.787 . S
C316 O296 1.252 . S
C316 O299 1.268 . S
C316 C309 1.506 . S
C317 C284 1.439 . S
C317 H294 0.931 . S
C317 C318 1.374 . S
C318 C289 1.387 . S
C318 H295 0.931 . S
C318 C317 1.374 . S
C319 O303 1.249 . S
C319 O304 1.264 . S
C320 C323 1.382 . S
C320 C324 1.390 . S
C320 C327 1.506 . S
C321 C322 1.398 . S
C321 C324 1.392 . S
C322 C321 1.398 . S
C322 C325 1.372 . S
C322 H332 0.931 . S
C323 C320 1.382 . S
C323 C325 1.390 . S
C323 H333 0.931 . S
C324 C320 1.390 . S
C324 C321 1.392 . S
C324 H334 0.930 . S
C325 C322 1.372 . S
C325 C323 1.390 . S
C325 H335 0.929 . S
C326 O306 1.255 . S
C326 O307 1.257 . S
C327 Eu263 2.787 . S
C327 O302 1.252 . S
C327 O305 1.268 . S
C327 C320 1.506 . S
H328 C311 0.931 . S
H329 C312 0.931 . S
H330 C313 0.929 . S
H331 C314 0.930 . S
H332 C322 0.931 . S
H333 C323 0.931 . S
H334 C324 0.930 . S
H335 C325 0.929 . S
Eu336 N365 2.600 . S
Eu336 N371 2.562 . S
Eu336 O380 2.462 . S
Eu336 O381 2.373 . S
Eu336 O383 2.432 . S
Eu336 O384 2.291 . S
Eu336 O388 2.335 . S
Eu336 O391 2.372 . S
Eu336 C400 2.787 . S
C337 N338 1.365 . S
C337 C340 1.405 . S
C337 C344 1.448 . S
N338 C337 1.365 . S
N338 C341 1.319 . S
N338 Eu347 2.600 . S
C339 C341 1.397 . S
C339 C342 1.367 . S
C339 H359 0.931 . S
C340 C337 1.405 . S
C340 C342 1.403 . S
C340 C346 1.439 . S
C341 N338 1.319 . S
C341 C339 1.397 . S
C341 H352 0.930 . S
C342 C339 1.367 . S
C342 C340 1.403 . S
C342 H363 0.929 . S
C343 C344 1.430 . S
C343 C345 1.387 . S
C343 C349 1.404 . S
C344 C337 1.448 . S
C344 C343 1.430 . S
C344 N348 1.351 . S
C345 C343 1.387 . S
C345 C346 1.374 . S
C345 H360 0.931 . S
C346 C340 1.439 . S
C346 C345 1.374 . S
C346 H361 0.931 . S
Eu347 N338 2.600 . S
Eu347 N348 2.562 . S
Eu347 O382 2.335 . S
Eu347 O385 2.372 . S
Eu347 O386 2.462 . S
Eu347 O387 2.373 . S
Eu347 O389 2.432 . S
Eu347 O390 2.291 . S
Eu347 C411 2.787 . S
N348 C344 1.351 . S
N348 Eu347 2.562 . S
N348 C350 1.325 . S
C349 C343 1.404 . S
C349 C351 1.366 . S
C349 H357 0.930 . S
C350 N348 1.325 . S
C350 C351 1.416 . S
C350 H356 0.929 . S
C351 C349 1.366 . S
C351 C350 1.416 . S
C351 H353 0.930 . S
H352 C341 0.930 . S
H353 C351 0.930 . S
H354 C369 0.930 . S
H355 C376 0.930 . S
H356 C350 0.929 . S
H357 C349 0.930 . S
H358 C372 0.929 . S
H359 C339 0.931 . S
H360 C345 0.931 . S
H361 C346 0.931 . S
H362 C367 0.931 . S
H363 C342 0.929 . S
H364 C375 0.930 . S
N365 Eu336 2.600 . S
N365 C366 1.365 . S
N365 C369 1.319 . S
C366 N365 1.365 . S
C366 C368 1.405 . S
C366 C374 1.448 . S
C367 H362 0.931 . S
C367 C369 1.397 . S
C367 C370 1.367 . S
C368 C366 1.405 . S
C368 C370 1.403 . S
C368 C401 1.439 . S
C369 H354 0.930 . S
C369 N365 1.319 . S
C369 C367 1.397 . S
C370 C367 1.367 . S
C370 C368 1.403 . S
C370 H377 0.929 . S
N371 Eu336 2.562 . S
N371 C372 1.325 . S
N371 C374 1.351 . S
C372 H358 0.929 . S
C372 N371 1.325 . S
C372 C376 1.416 . S
C373 C374 1.430 . S
C373 C375 1.404 . S
C373 C402 1.387 . S
C374 C366 1.448 . S
C374 N371 1.351 . S
C374 C373 1.430 . S
C375 H364 0.930 . S
C375 C373 1.404 . S
C375 C376 1.366 . S
C376 H355 0.930 . S
C376 C372 1.416 . S
C376 C375 1.366 . S
H377 C370 0.929 . S
H378 C401 0.931 . S
H379 C402 0.931 . S
O380 Eu336 2.462 . S
O380 C400 1.252 . S
O381 Eu336 2.373 . S
O381 C392 1.249 . S
O382 Eu347 2.335 . S
O382 C392 1.264 . S
O383 Eu336 2.432 . S
O383 C400 1.268 . S
O384 Eu336 2.291 . S
O384 C399 1.255 . S
O385 Eu347 2.372 . S
O385 C399 1.257 . S
O386 Eu347 2.462 . S
O386 C411 1.252 . S
O387 Eu347 2.373 . S
O387 C403 1.249 . S
O388 Eu336 2.335 . S
O388 C403 1.264 . S
O389 Eu347 2.432 . S
O389 C411 1.268 . S
O390 Eu347 2.291 . S
O390 C410 1.255 . S
O391 Eu336 2.372 . S
O391 C410 1.257 . S
C392 O381 1.249 . S
C392 O382 1.264 . S
C393 C396 1.382 . S
C393 C398 1.390 . S
C393 C400 1.506 . S
C394 C395 1.398 . S
C394 C398 1.392 . S
C395 C394 1.398 . S
C395 C397 1.372 . S
C395 H412 0.931 . S
C396 C393 1.382 . S
C396 C397 1.390 . S
C396 H413 0.931 . S
C397 C395 1.372 . S
C397 C396 1.390 . S
C397 H414 0.929 . S
C398 C393 1.390 . S
C398 C394 1.392 . S
C398 H415 0.930 . S
C399 O384 1.255 . S
C399 O385 1.257 . S
C400 Eu336 2.787 . S
C400 O380 1.252 . S
C400 O383 1.268 . S
C400 C393 1.506 . S
C401 C368 1.439 . S
C401 H378 0.931 . S
C401 C402 1.374 . S
C402 C373 1.387 . S
C402 H379 0.931 . S
C402 C401 1.374 . S
C403 O387 1.249 . S
C403 O388 1.264 . S
C404 C407 1.382 . S
C404 C408 1.390 . S
C404 C411 1.506 . S
C405 C406 1.398 . S
C405 C408 1.392 . S
C406 C405 1.398 . S
C406 C409 1.372 . S
C406 H416 0.931 . S
C407 C404 1.382 . S
C407 C409 1.390 . S
C407 H417 0.931 . S
C408 C404 1.390 . S
C408 C405 1.392 . S
C408 H418 0.930 . S
C409 C406 1.372 . S
C409 C407 1.390 . S
C409 H419 0.929 . S
C410 O390 1.255 . S
C410 O391 1.257 . S
C411 Eu347 2.787 . S
C411 O386 1.252 . S
C411 O389 1.268 . S
C411 C404 1.506 . S
H412 C395 0.931 . S
H413 C396 0.931 . S
H414 C397 0.929 . S
H415 C398 0.930 . S
H416 C406 0.931 . S
H417 C407 0.931 . S
H418 C408 0.930 . S
H419 C409 0.929 . S
Eu420 N449 2.600 . S
Eu420 N455 2.562 . S
Eu420 O464 2.462 . S
Eu420 O465 2.373 . S
Eu420 O467 2.432 . S
Eu420 O468 2.291 . S
Eu420 O472 2.335 . S
Eu420 O475 2.372 . S
Eu420 C484 2.787 . S
C421 N422 1.365 . S
C421 C424 1.405 . S
C421 C428 1.448 . S
N422 C421 1.365 . S
N422 C425 1.319 . S
N422 Eu431 2.600 . S
C423 C425 1.397 . S
C423 C426 1.367 . S
C423 H443 0.931 . S
C424 C421 1.405 . S
C424 C426 1.403 . S
C424 C430 1.439 . S
C425 N422 1.319 . S
C425 C423 1.397 . S
C425 H436 0.930 . S
C426 C423 1.367 . S
C426 C424 1.403 . S
C426 H447 0.929 . S
C427 C428 1.430 . S
C427 C429 1.387 . S
C427 C433 1.404 . S
C428 C421 1.448 . S
C428 C427 1.430 . S
C428 N432 1.351 . S
C429 C427 1.387 . S
C429 C430 1.374 . S
C429 H444 0.931 . S
C430 C424 1.439 . S
C430 C429 1.374 . S
C430 H445 0.931 . S
Eu431 N422 2.600 . S
Eu431 N432 2.562 . S
Eu431 O466 2.335 . S
Eu431 O469 2.372 . S
Eu431 O470 2.462 . S
Eu431 O471 2.373 . S
Eu431 O473 2.432 . S
Eu431 O474 2.291 . S
Eu431 C495 2.787 . S
N432 C428 1.351 . S
N432 Eu431 2.562 . S
N432 C434 1.325 . S
C433 C427 1.404 . S
C433 C435 1.366 . S
C433 H441 0.930 . S
C434 N432 1.325 . S
C434 C435 1.416 . S
C434 H440 0.929 . S
C435 C433 1.366 . S
C435 C434 1.416 . S
C435 H437 0.930 . S
H436 C425 0.930 . S
H437 C435 0.930 . S
H438 C453 0.930 . S
H439 C460 0.930 . S
H440 C434 0.929 . S
H441 C433 0.930 . S
H442 C456 0.929 . S
H443 C423 0.931 . S
H444 C429 0.931 . S
H445 C430 0.931 . S
H446 C451 0.931 . S
H447 C426 0.929 . S
H448 C459 0.930 . S
N449 Eu420 2.600 . S
N449 C450 1.365 . S
N449 C453 1.319 . S
C450 N449 1.365 . S
C450 C452 1.405 . S
C450 C458 1.448 . S
C451 H446 0.931 . S
C451 C453 1.397 . S
C451 C454 1.367 . S
C452 C450 1.405 . S
C452 C454 1.403 . S
C452 C485 1.439 . S
C453 H438 0.930 . S
C453 N449 1.319 . S
C453 C451 1.397 . S
C454 C451 1.367 . S
C454 C452 1.403 . S
C454 H461 0.929 . S
N455 Eu420 2.562 . S
N455 C456 1.325 . S
N455 C458 1.351 . S
C456 H442 0.929 . S
C456 N455 1.325 . S
C456 C460 1.416 . S
C457 C458 1.430 . S
C457 C459 1.404 . S
C457 C486 1.387 . S
C458 C450 1.448 . S
C458 N455 1.351 . S
C458 C457 1.430 . S
C459 H448 0.930 . S
C459 C457 1.404 . S
C459 C460 1.366 . S
C460 H439 0.930 . S
C460 C456 1.416 . S
C460 C459 1.366 . S
H461 C454 0.929 . S
H462 C485 0.931 . S
H463 C486 0.931 . S
O464 Eu420 2.462 . S
O464 C484 1.252 . S
O465 Eu420 2.373 . S
O465 C476 1.249 . S
O466 Eu431 2.335 . S
O466 C476 1.264 . S
O467 Eu420 2.432 . S
O467 C484 1.268 . S
O468 Eu420 2.291 . S
O468 C483 1.255 . S
O469 Eu431 2.372 . S
O469 C483 1.257 . S
O470 Eu431 2.462 . S
O470 C495 1.252 . S
O471 Eu431 2.373 . S
O471 C487 1.249 . S
O472 Eu420 2.335 . S
O472 C487 1.264 . S
O473 Eu431 2.432 . S
O473 C495 1.268 . S
O474 Eu431 2.291 . S
O474 C494 1.255 . S
O475 Eu420 2.372 . S
O475 C494 1.257 . S
C476 O465 1.249 . S
C476 O466 1.264 . S
C477 C480 1.382 . S
C477 C482 1.390 . S
C477 C484 1.506 . S
C478 C479 1.398 . S
C478 C482 1.392 . S
C479 C478 1.398 . S
C479 C481 1.372 . S
C479 H496 0.931 . S
C480 C477 1.382 . S
C480 C481 1.390 . S
C480 H497 0.931 . S
C481 C479 1.372 . S
C481 C480 1.390 . S
C481 H498 0.929 . S
C482 C477 1.390 . S
C482 C478 1.392 . S
C482 H499 0.930 . S
C483 O468 1.255 . S
C483 O469 1.257 . S
C484 Eu420 2.787 . S
C484 O464 1.252 . S
C484 O467 1.268 . S
C484 C477 1.506 . S
C485 C452 1.439 . S
C485 H462 0.931 . S
C485 C486 1.374 . S
C486 C457 1.387 . S
C486 H463 0.931 . S
C486 C485 1.374 . S
C487 O471 1.249 . S
C487 O472 1.264 . S
C488 C491 1.382 . S
C488 C492 1.390 . S
C488 C495 1.506 . S
C489 C490 1.398 . S
C489 C492 1.392 . S
C490 C489 1.398 . S
C490 C493 1.372 . S
C490 H500 0.931 . S
C491 C488 1.382 . S
C491 C493 1.390 . S
C491 H501 0.931 . S
C492 C488 1.390 . S
C492 C489 1.392 . S
C492 H502 0.930 . S
C493 C490 1.372 . S
C493 C491 1.390 . S
C493 H503 0.929 . S
C494 O474 1.255 . S
C494 O475 1.257 . S
C495 Eu431 2.787 . S
C495 O470 1.252 . S
C495 O473 1.268 . S
C495 C488 1.506 . S
H496 C479 0.931 . S
H497 C480 0.931 . S
H498 C481 0.929 . S
H499 C482 0.930 . S
H500 C490 0.931 . S
H501 C491 0.931 . S
H502 C492 0.930 . S
H503 C493 0.929 . S
Eu504 N533 2.600 . S
Eu504 N539 2.562 . S
Eu504 O548 2.462 . S
Eu504 O549 2.373 . S
Eu504 O551 2.432 . S
Eu504 O552 2.291 . S
Eu504 O556 2.335 . S
Eu504 O559 2.372 . S
Eu504 C568 2.787 . S
C505 N506 1.365 . S
C505 C508 1.405 . S
C505 C512 1.448 . S
N506 C505 1.365 . S
N506 C509 1.319 . S
N506 Eu515 2.600 . S
C507 C509 1.397 . S
C507 C510 1.367 . S
C507 H527 0.931 . S
C508 C505 1.405 . S
C508 C510 1.403 . S
C508 C514 1.439 . S
C509 N506 1.319 . S
C509 C507 1.397 . S
C509 H520 0.930 . S
C510 C507 1.367 . S
C510 C508 1.403 . S
C510 H531 0.929 . S
C511 C512 1.430 . S
C511 C513 1.387 . S
C511 C517 1.404 . S
C512 C505 1.448 . S
C512 C511 1.430 . S
C512 N516 1.351 . S
C513 C511 1.387 . S
C513 C514 1.374 . S
C513 H528 0.931 . S
C514 C508 1.439 . S
C514 C513 1.374 . S
C514 H529 0.931 . S
Eu515 N506 2.600 . S
Eu515 N516 2.562 . S
Eu515 O550 2.335 . S
Eu515 O553 2.372 . S
Eu515 O554 2.462 . S
Eu515 O555 2.373 . S
Eu515 O557 2.432 . S
Eu515 O558 2.291 . S
Eu515 C579 2.787 . S
N516 C512 1.351 . S
N516 Eu515 2.562 . S
N516 C518 1.325 . S
C517 C511 1.404 . S
C517 C519 1.366 . S
C517 H525 0.930 . S
C518 N516 1.325 . S
C518 C519 1.416 . S
C518 H524 0.929 . S
C519 C517 1.366 . S
C519 C518 1.416 . S
C519 H521 0.930 . S
H520 C509 0.930 . S
H521 C519 0.930 . S
H522 C537 0.930 . S
H523 C544 0.930 . S
H524 C518 0.929 . S
H525 C517 0.930 . S
H526 C540 0.929 . S
H527 C507 0.931 . S
H528 C513 0.931 . S
H529 C514 0.931 . S
H530 C535 0.931 . S
H531 C510 0.929 . S
H532 C543 0.930 . S
N533 Eu504 2.600 . S
N533 C534 1.365 . S
N533 C537 1.319 . S
C534 N533 1.365 . S
C534 C536 1.405 . S
C534 C542 1.448 . S
C535 H530 0.931 . S
C535 C537 1.397 . S
C535 C538 1.367 . S
C536 C534 1.405 . S
C536 C538 1.403 . S
C536 C569 1.439 . S
C537 H522 0.930 . S
C537 N533 1.319 . S
C537 C535 1.397 . S
C538 C535 1.367 . S
C538 C536 1.403 . S
C538 H545 0.929 . S
N539 Eu504 2.562 . S
N539 C540 1.325 . S
N539 C542 1.351 . S
C540 H526 0.929 . S
C540 N539 1.325 . S
C540 C544 1.416 . S
C541 C542 1.430 . S
C541 C543 1.404 . S
C541 C570 1.387 . S
C542 C534 1.448 . S
C542 N539 1.351 . S
C542 C541 1.430 . S
C543 H532 0.930 . S
C543 C541 1.404 . S
C543 C544 1.366 . S
C544 H523 0.930 . S
C544 C540 1.416 . S
C544 C543 1.366 . S
H545 C538 0.929 . S
H546 C569 0.931 . S
H547 C570 0.931 . S
O548 Eu504 2.462 . S
O548 C568 1.252 . S
O549 Eu504 2.373 . S
O549 C560 1.249 . S
O550 Eu515 2.335 . S
O550 C560 1.264 . S
O551 Eu504 2.432 . S
O551 C568 1.268 . S
O552 Eu504 2.291 . S
O552 C567 1.255 . S
O553 Eu515 2.372 . S
O553 C567 1.257 . S
O554 Eu515 2.462 . S
O554 C579 1.252 . S
O555 Eu515 2.373 . S
O555 C571 1.249 . S
O556 Eu504 2.335 . S
O556 C571 1.264 . S
O557 Eu515 2.432 . S
O557 C579 1.268 . S
O558 Eu515 2.291 . S
O558 C578 1.255 . S
O559 Eu504 2.372 . S
O559 C578 1.257 . S
C560 O549 1.249 . S
C560 O550 1.264 . S
C561 C564 1.382 . S
C561 C566 1.390 . S
C561 C568 1.506 . S
C562 C563 1.398 . S
C562 C566 1.392 . S
C563 C562 1.398 . S
C563 C565 1.372 . S
C563 H580 0.931 . S
C564 C561 1.382 . S
C564 C565 1.390 . S
C564 H581 0.931 . S
C565 C563 1.372 . S
C565 C564 1.390 . S
C565 H582 0.929 . S
C566 C561 1.390 . S
C566 C562 1.392 . S
C566 H583 0.930 . S
C567 O552 1.255 . S
C567 O553 1.257 . S
C568 Eu504 2.787 . S
C568 O548 1.252 . S
C568 O551 1.268 . S
C568 C561 1.506 . S
C569 C536 1.439 . S
C569 H546 0.931 . S
C569 C570 1.374 . S
C570 C541 1.387 . S
C570 H547 0.931 . S
C570 C569 1.374 . S
C571 O555 1.249 . S
C571 O556 1.264 . S
C572 C575 1.382 . S
C572 C576 1.390 . S
C572 C579 1.506 . S
C573 C574 1.398 . S
C573 C576 1.392 . S
C574 C573 1.398 . S
C574 C577 1.372 . S
C574 H584 0.931 . S
C575 C572 1.382 . S
C575 C577 1.390 . S
C575 H585 0.931 . S
C576 C572 1.390 . S
C576 C573 1.392 . S
C576 H586 0.930 . S
C577 C574 1.372 . S
C577 C575 1.390 . S
C577 H587 0.929 . S
C578 O558 1.255 . S
C578 O559 1.257 . S
C579 Eu515 2.787 . S
C579 O554 1.252 . S
C579 O557 1.268 . S
C579 C572 1.506 . S
H580 C563 0.931 . S
H581 C564 0.931 . S
H582 C565 0.929 . S
H583 C566 0.930 . S
H584 C574 0.931 . S
H585 C575 0.931 . S
H586 C576 0.930 . S
H587 C577 0.929 . S
Eu588 N617 2.600 . S
Eu588 N623 2.562 . S
Eu588 O632 2.462 . S
Eu588 O633 2.373 . S
Eu588 O635 2.432 . S
Eu588 O636 2.291 . S
Eu588 O640 2.335 . S
Eu588 O643 2.372 . S
Eu588 C652 2.787 . S
C589 N590 1.365 . S
C589 C592 1.405 . S
C589 C596 1.448 . S
N590 C589 1.365 . S
N590 C593 1.319 . S
N590 Eu599 2.600 . S
C591 C593 1.397 . S
C591 C594 1.367 . S
C591 H611 0.931 . S
C592 C589 1.405 . S
C592 C594 1.403 . S
C592 C598 1.439 . S
C593 N590 1.319 . S
C593 C591 1.397 . S
C593 H604 0.930 . S
C594 C591 1.367 . S
C594 C592 1.403 . S
C594 H615 0.929 . S
C595 C596 1.430 . S
C595 C597 1.387 . S
C595 C601 1.404 . S
C596 C589 1.448 . S
C596 C595 1.430 . S
C596 N600 1.351 . S
C597 C595 1.387 . S
C597 C598 1.374 . S
C597 H612 0.931 . S
C598 C592 1.439 . S
C598 C597 1.374 . S
C598 H613 0.931 . S
Eu599 N590 2.600 . S
Eu599 N600 2.562 . S
Eu599 O634 2.335 . S
Eu599 O637 2.372 . S
Eu599 O638 2.462 . S
Eu599 O639 2.373 . S
Eu599 O641 2.432 . S
Eu599 O642 2.291 . S
Eu599 C663 2.787 . S
N600 C596 1.351 . S
N600 Eu599 2.562 . S
N600 C602 1.325 . S
C601 C595 1.404 . S
C601 C603 1.366 . S
C601 H609 0.930 . S
C602 N600 1.325 . S
C602 C603 1.416 . S
C602 H608 0.929 . S
C603 C601 1.366 . S
C603 C602 1.416 . S
C603 H605 0.930 . S
H604 C593 0.930 . S
H605 C603 0.930 . S
H606 C621 0.930 . S
H607 C628 0.930 . S
H608 C602 0.929 . S
H609 C601 0.930 . S
H610 C624 0.929 . S
H611 C591 0.931 . S
H612 C597 0.931 . S
H613 C598 0.931 . S
H614 C619 0.931 . S
H615 C594 0.929 . S
H616 C627 0.930 . S
N617 Eu588 2.600 . S
N617 C618 1.365 . S
N617 C621 1.319 . S
C618 N617 1.365 . S
C618 C620 1.405 . S
C618 C626 1.448 . S
C619 H614 0.931 . S
C619 C621 1.397 . S
C619 C622 1.367 . S
C620 C618 1.405 . S
C620 C622 1.403 . S
C620 C653 1.439 . S
C621 H606 0.930 . S
C621 N617 1.319 . S
C621 C619 1.397 . S
C622 C619 1.367 . S
C622 C620 1.403 . S
C622 H629 0.929 . S
N623 Eu588 2.562 . S
N623 C624 1.325 . S
N623 C626 1.351 . S
C624 H610 0.929 . S
C624 N623 1.325 . S
C624 C628 1.416 . S
C625 C626 1.430 . S
C625 C627 1.404 . S
C625 C654 1.387 . S
C626 C618 1.448 . S
C626 N623 1.351 . S
C626 C625 1.430 . S
C627 H616 0.930 . S
C627 C625 1.404 . S
C627 C628 1.366 . S
C628 H607 0.930 . S
C628 C624 1.416 . S
C628 C627 1.366 . S
H629 C622 0.929 . S
H630 C653 0.931 . S
H631 C654 0.931 . S
O632 Eu588 2.462 . S
O632 C652 1.252 . S
O633 Eu588 2.373 . S
O633 C644 1.249 . S
O634 Eu599 2.335 . S
O634 C644 1.264 . S
O635 Eu588 2.432 . S
O635 C652 1.268 . S
O636 Eu588 2.291 . S
O636 C651 1.255 . S
O637 Eu599 2.372 . S
O637 C651 1.257 . S
O638 Eu599 2.462 . S
O638 C663 1.252 . S
O639 Eu599 2.373 . S
O639 C655 1.249 . S
O640 Eu588 2.335 . S
O640 C655 1.264 . S
O641 Eu599 2.432 . S
O641 C663 1.268 . S
O642 Eu599 2.291 . S
O642 C662 1.255 . S
O643 Eu588 2.372 . S
O643 C662 1.257 . S
C644 O633 1.249 . S
C644 O634 1.264 . S
C645 C648 1.382 . S
C645 C650 1.390 . S
C645 C652 1.506 . S
C646 C647 1.398 . S
C646 C650 1.392 . S
C647 C646 1.398 . S
C647 C649 1.372 . S
C647 H664 0.931 . S
C648 C645 1.382 . S
C648 C649 1.390 . S
C648 H665 0.931 . S
C649 C647 1.372 . S
C649 C648 1.390 . S
C649 H666 0.929 . S
C650 C645 1.390 . S
C650 C646 1.392 . S
C650 H667 0.930 . S
C651 O636 1.255 . S
C651 O637 1.257 . S
C652 Eu588 2.787 . S
C652 O632 1.252 . S
C652 O635 1.268 . S
C652 C645 1.506 . S
C653 C620 1.439 . S
C653 H630 0.931 . S
C653 C654 1.374 . S
C654 C625 1.387 . S
C654 H631 0.931 . S
C654 C653 1.374 . S
C655 O639 1.249 . S
C655 O640 1.264 . S
C656 C659 1.382 . S
C656 C660 1.390 . S
C656 C663 1.506 . S
C657 C658 1.398 . S
C657 C660 1.392 . S
C658 C657 1.398 . S
C658 C661 1.372 . S
C658 H668 0.931 . S
C659 C656 1.382 . S
C659 C661 1.390 . S
C659 H669 0.931 . S
C660 C656 1.390 . S
C660 C657 1.392 . S
C660 H670 0.930 . S
C661 C658 1.372 . S
C661 C659 1.390 . S
C661 H671 0.929 . S
C662 O642 1.255 . S
C662 O643 1.257 . S
C663 Eu599 2.787 . S
C663 O638 1.252 . S
C663 O641 1.268 . S
C663 C656 1.506 . S
H664 C647 0.931 . S
H665 C648 0.931 . S
H666 C649 0.929 . S
H667 C650 0.930 . S
H668 C658 0.931 . S
H669 C659 0.931 . S
H670 C660 0.930 . S
H671 C661 0.929 . S
C672 O684 1.241 . S
C672 O685 1.280 . S
C673 O686 1.277 . S
C673 O687 1.245 . S
C674 O698 1.247 . S
C674 O700 1.289 . S
Mg675 O676 1.926 . S
Mg675 O685 1.984 . S
Mg675 O687 1.988 . S
Mg675 O688 2.061 1_655 S
O676 Mg675 1.926 . S
O676 Mg677 1.986 1_545 S
O676 Mg678 1.908 1_655 S
Mg677 O676 1.986 1_565 S
Mg677 O684 2.042 1_565 S
Mg677 O686 2.041 1_565 S
Mg677 O692 2.038 . S
Mg677 O700 2.238 . S
Mg678 O676 1.908 1_455 S
Mg678 O679 1.925 1_545 S
Mg678 O689 2.115 . S
Mg678 O691 2.076 1_445 S
Mg678 O700 2.098 1_445 S
Mg678 O701 2.081 . S
O679 Mg678 1.925 1_565 S
O679 Mg680 1.926 . S
O679 Mg681 1.986 1_565 S
Mg680 O679 1.926 . S
Mg680 O694 1.984 . S
Mg680 O697 1.988 . S
Mg680 O698 2.061 1_455 S
Mg681 O679 1.986 1_545 S
Mg681 O689 2.238 . S
Mg681 O693 2.042 1_545 S
Mg681 O695 2.041 1_545 S
Mg681 O702 2.038 . S
C682 O688 1.247 . S
C682 O689 1.289 . S
C683 O701 1.245 . S
C683 O702 1.274 . S
O684 C672 1.241 . S
O684 Mg677 2.042 1_545 S
O685 C672 1.280 . S
O685 Mg675 1.984 . S
O686 C673 1.277 . S
O686 Mg677 2.041 1_545 S
O687 C673 1.245 . S
O687 Mg675 1.988 . S
O688 Mg675 2.061 1_455 S
O688 C682 1.247 . S
O689 Mg678 2.115 . S
O689 Mg681 2.238 . S
O689 C682 1.289 . S
C690 O691 1.245 . S
C690 O692 1.274 . S
O691 Mg678 2.076 1_665 S
O691 C690 1.245 . S
O692 Mg677 2.038 . S
O692 C690 1.274 . S
O693 Mg681 2.042 1_565 S
O693 C696 1.241 . S
O694 Mg680 1.984 . S
O694 C696 1.280 . S
O695 Mg681 2.041 1_565 S
O695 C699 1.277 . S
C696 O693 1.241 . S
C696 O694 1.280 . S
O697 Mg680 1.988 . S
O697 C699 1.245 . S
O698 C674 1.247 . S
O698 Mg680 2.061 1_655 S
C699 O695 1.277 . S
C699 O697 1.245 . S
O700 C674 1.289 . S
O700 Mg677 2.238 . S
O700 Mg678 2.098 1_665 S
O701 Mg678 2.081 . S
O701 C683 1.245 . S
O702 Mg681 2.038 . S
O702 C683 1.274 . S
C703 O715 1.241 . S
C703 O716 1.280 . S
C704 O717 1.277 . S
C704 O718 1.245 . S
C705 O729 1.247 . S
C705 O731 1.289 . S
Mg706 O707 1.926 . S
Mg706 O716 1.984 . S
Mg706 O718 1.988 1_554 S
Mg706 O719 2.061 . S
O707 Mg706 1.926 . S
O707 Mg708 1.986 1_545 S
O707 Mg709 1.920 . S
Mg708 O707 1.986 1_565 S
Mg708 O715 2.042 1_565 S
Mg708 O717 2.041 1_564 S
Mg708 O723 2.038 . S
Mg708 O731 2.238 1_554 S
Mg709 O707 1.920 . S
Mg709 O710 1.914 1_544 S
Mg709 O720 2.110 . S
Mg709 O722 2.083 1_545 S
Mg709 O731 2.103 1_544 S
Mg709 O732 2.074 1_554 S
O710 Mg709 1.914 1_566 S
O710 Mg711 1.926 . S
O710 Mg712 1.986 1_565 S
Mg711 O710 1.926 . S
Mg711 O725 1.984 . S
Mg711 O728 1.988 1_556 S
Mg711 O729 2.061 . S
Mg712 O710 1.986 1_545 S
Mg712 O720 2.238 1_556 S
Mg712 O724 2.042 1_545 S
Mg712 O726 2.041 1_546 S
Mg712 O733 2.038 . S
C713 O719 1.247 . S
C713 O720 1.289 . S
C714 O732 1.245 . S
C714 O733 1.274 . S
O715 C703 1.241 . S
O715 Mg708 2.042 1_545 S
O716 C703 1.280 . S
O716 Mg706 1.984 . S
O717 C704 1.277 . S
O717 Mg708 2.041 1_546 S
O718 C704 1.245 . S
O718 Mg706 1.988 1_556 S
O719 Mg706 2.061 . S
O719 C713 1.247 . S
O720 Mg709 2.110 . S
O720 Mg712 2.238 1_554 S
O720 C713 1.289 . S
C721 O722 1.245 . S
C721 O723 1.274 . S
O722 Mg709 2.083 1_565 S
O722 C721 1.245 . S
O723 Mg708 2.038 . S
O723 C721 1.274 . S
O724 Mg712 2.042 1_565 S
O724 C727 1.241 . S
O725 Mg711 1.984 . S
O725 C727 1.280 . S
O726 Mg712 2.041 1_564 S
O726 C730 1.277 . S
C727 O724 1.241 . S
C727 O725 1.280 . S
O728 Mg711 1.988 1_554 S
O728 C730 1.245 . S
O729 C705 1.247 . S
O729 Mg711 2.061 . S
C730 O726 1.277 . S
C730 O728 1.245 . S
O731 C705 1.289 . S
O731 Mg708 2.238 1_556 S
O731 Mg709 2.103 1_566 S
O732 Mg709 2.074 1_556 S
O732 C714 1.245 . S
O733 Mg712 2.038 . S
O733 C714 1.274 . S
C734 O746 1.241 . S
C734 O747 1.280 . S
C735 O748 1.277 . S
C735 O749 1.245 . S
C736 O760 1.247 . S
C736 O762 1.289 . S
Mg737 O738 1.926 . S
Mg737 O747 1.984 . S
Mg737 O749 1.988 1_554 S
Mg737 O750 2.061 1_655 S
O738 Mg737 1.926 . S
O738 Mg739 1.986 . S
O738 Mg740 1.908 1_655 S
Mg739 O738 1.986 . S
Mg739 O746 2.042 . S
Mg739 O748 2.041 1_554 S
Mg739 O754 2.038 . S
Mg739 O762 2.238 1_554 S
Mg740 O738 1.908 1_455 S
Mg740 O741 1.926 1_554 S
Mg740 O751 2.119 . S
Mg740 O753 2.082 1_455 S
Mg740 O762 2.094 1_454 S
Mg740 O763 2.075 1_554 S
O741 Mg740 1.926 1_556 S
O741 Mg742 1.926 . S
O741 Mg743 1.986 . S
Mg742 O741 1.926 . S
Mg742 O756 1.984 . S
Mg742 O759 1.988 1_556 S
Mg742 O760 2.061 1_455 S
Mg743 O741 1.986 . S
Mg743 O751 2.238 1_556 S
Mg743 O755 2.042 . S
Mg743 O757 2.041 1_556 S
Mg743 O764 2.038 . S
C744 O750 1.247 . S
C744 O751 1.289 . S
C745 O763 1.245 . S
C745 O764 1.274 . S
O746 C734 1.241 . S
O746 Mg739 2.042 . S
O747 C734 1.280 . S
O747 Mg737 1.984 . S
O748 C735 1.277 . S
O748 Mg739 2.041 1_556 S
O749 C735 1.245 . S
O749 Mg737 1.988 1_556 S
O750 Mg737 2.061 1_455 S
O750 C744 1.247 . S
O751 Mg740 2.119 . S
O751 Mg743 2.238 1_554 S
O751 C744 1.289 . S
C752 O753 1.245 . S
C752 O754 1.274 . S
O753 Mg740 2.082 1_655 S
O753 C752 1.245 . S
O754 Mg739 2.038 . S
O754 C752 1.274 . S
O755 Mg743 2.042 . S
O755 C758 1.241 . S
O756 Mg742 1.984 . S
O756 C758 1.280 . S
O757 Mg743 2.041 1_554 S
O757 C761 1.277 . S
C758 O755 1.241 . S
C758 O756 1.280 . S
O759 Mg742 1.988 1_554 S
O759 C761 1.245 . S
O760 C736 1.247 . S
O760 Mg742 2.061 1_655 S
C761 O757 1.277 . S
C761 O759 1.245 . S
O762 C736 1.289 . S
O762 Mg739 2.238 1_556 S
O762 Mg740 2.094 1_656 S
O763 Mg740 2.075 1_556 S
O763 C745 1.245 . S
O764 Mg743 2.038 . S
O764 C745 1.274 . S
C765 O777 1.241 . S
C765 O778 1.280 . S
C766 O779 1.277 . S
C766 O780 1.245 . S
C767 O791 1.247 . S
C767 O793 1.289 . S
Mg768 O769 1.926 . S
Mg768 O778 1.984 . S
Mg768 O780 1.988 1_554 S
Mg768 O781 2.061 . S
O769 Mg768 1.926 . S
O769 Mg770 1.986 . S
O769 Mg771 1.918 . S
Mg770 O769 1.986 . S
Mg770 O777 2.042 . S
Mg770 O779 2.041 1_554 S
Mg770 O785 2.038 . S
Mg770 O793 2.238 1_554 S
Mg771 O769 1.918 . S
Mg771 O772 1.916 1_554 S
Mg771 O782 2.110 . S
Mg771 O784 2.084 . S
Mg771 O793 2.103 1_554 S
Mg771 O794 2.074 1_554 S
O772 Mg771 1.916 1_556 S
O772 Mg773 1.926 . S
O772 Mg774 1.986 . S
Mg773 O772 1.926 . S
Mg773 O787 1.984 . S
Mg773 O790 1.988 1_556 S
Mg773 O791 2.061 . S
Mg774 O772 1.986 . S
Mg774 O782 2.238 1_556 S
Mg774 O786 2.042 . S
Mg774 O788 2.041 1_556 S
Mg774 O795 2.038 . S
C775 O781 1.247 . S
C775 O782 1.289 . S
C776 O794 1.245 . S
C776 O795 1.274 . S
O777 C765 1.241 . S
O777 Mg770 2.042 . S
O778 C765 1.280 . S
O778 Mg768 1.984 . S
O779 C766 1.277 . S
O779 Mg770 2.041 1_556 S
O780 C766 1.245 . S
O780 Mg768 1.988 1_556 S
O781 Mg768 2.061 . S
O781 C775 1.247 . S
O782 Mg771 2.110 . S
O782 Mg774 2.238 1_554 S
O782 C775 1.289 . S
C783 O784 1.245 . S
C783 O785 1.274 . S
O784 Mg771 2.084 . S
O784 C783 1.245 . S
O785 Mg770 2.038 . S
O785 C783 1.274 . S
O786 Mg774 2.042 . S
O786 C789 1.241 . S
O787 Mg773 1.984 . S
O787 C789 1.280 . S
O788 Mg774 2.041 1_554 S
O788 C792 1.277 . S
C789 O786 1.241 . S
C789 O787 1.280 . S
O790 Mg773 1.988 1_554 S
O790 C792 1.245 . S
O791 C767 1.247 . S
O791 Mg773 2.061 . S
C792 O788 1.277 . S
C792 O790 1.245 . S
O793 C767 1.289 . S
O793 Mg770 2.238 1_556 S
O793 Mg771 2.103 1_556 S
O794 Mg771 2.074 1_556 S
O794 C776 1.245 . S
O795 Mg774 2.038 . S
O795 C776 1.274 . S
C796 O808 1.241 . S
C796 O809 1.280 . S
C797 O810 1.277 . S
C797 O811 1.245 . S
C798 O822 1.247 . S
C798 O824 1.289 . S
Mg799 O800 1.926 . S
Mg799 O809 1.984 . S
Mg799 O811 1.988 . S
Mg799 O812 2.061 1_655 S
O800 Mg799 1.926 . S
O800 Mg801 1.986 . S
O800 Mg802 1.907 1_655 S
Mg801 O800 1.986 . S
Mg801 O808 2.042 . S
Mg801 O810 2.041 . S
Mg801 O816 2.038 . S
Mg801 O824 2.238 . S
Mg802 O800 1.907 1_455 S
Mg802 O803 1.927 . S
Mg802 O813 2.115 . S
Mg802 O815 2.077 1_455 S
Mg802 O824 2.098 1_455 S
Mg802 O825 2.080 . S
O803 Mg802 1.927 . S
O803 Mg804 1.926 . S
O803 Mg805 1.986 . S
Mg804 O803 1.926 . S
Mg804 O818 1.984 . S
Mg804 O821 1.988 . S
Mg804 O822 2.061 1_455 S
Mg805 O803 1.986 . S
Mg805 O813 2.238 . S
Mg805 O817 2.042 . S
Mg805 O819 2.041 . S
Mg805 O826 2.038 . S
C806 O812 1.247 . S
C806 O813 1.289 . S
C807 O825 1.245 . S
C807 O826 1.274 . S
O808 C796 1.241 . S
O808 Mg801 2.042 . S
O809 C796 1.280 . S
O809 Mg799 1.984 . S
O810 C797 1.277 . S
O810 Mg801 2.041 . S
O811 C797 1.245 . S
O811 Mg799 1.988 . S
O812 Mg799 2.061 1_455 S
O812 C806 1.247 . S
O813 Mg802 2.115 . S
O813 Mg805 2.238 . S
O813 C806 1.289 . S
C814 O815 1.245 . S
C814 O816 1.274 . S
O815 Mg802 2.077 1_655 S
O815 C814 1.245 . S
O816 Mg801 2.038 . S
O816 C814 1.274 . S
O817 Mg805 2.042 . S
O817 C820 1.241 . S
O818 Mg804 1.984 . S
O818 C820 1.280 . S
O819 Mg805 2.041 . S
O819 C823 1.277 . S
C820 O817 1.241 . S
C820 O818 1.280 . S
O821 Mg804 1.988 . S
O821 C823 1.245 . S
O822 C798 1.247 . S
O822 Mg804 2.061 1_655 S
C823 O819 1.277 . S
C823 O821 1.245 . S
O824 C798 1.289 . S
O824 Mg801 2.238 . S
O824 Mg802 2.098 1_655 S
O825 Mg802 2.080 . S
O825 C807 1.245 . S
O826 Mg805 2.038 . S
O826 C807 1.274 . S
C827 O839 1.241 . S
C827 O840 1.280 . S
C828 O841 1.277 . S
C828 O842 1.245 . S
C829 O853 1.247 . S
C829 O855 1.289 . S
Mg830 O831 1.926 . S
Mg830 O840 1.984 . S
Mg830 O842 1.988 . S
Mg830 O843 2.061 . S
O831 Mg830 1.926 . S
O831 Mg832 1.986 1_545 S
O831 Mg833 1.919 . S
Mg832 O831 1.986 1_565 S
Mg832 O839 2.042 1_565 S
Mg832 O841 2.041 1_565 S
Mg832 O847 2.038 . S
Mg832 O855 2.238 . S
Mg833 O831 1.919 . S
Mg833 O834 1.915 1_545 S
Mg833 O844 2.107 . S
Mg833 O846 2.078 1_545 S
Mg833 O855 2.106 1_545 S
Mg833 O856 2.080 . S
O834 Mg833 1.915 1_565 S
O834 Mg835 1.926 . S
O834 Mg836 1.986 1_565 S
Mg835 O834 1.926 . S
Mg835 O849 1.984 . S
Mg835 O852 1.988 . S
Mg835 O853 2.061 . S
Mg836 O834 1.986 1_545 S
Mg836 O844 2.238 . S
Mg836 O848 2.042 1_545 S
Mg836 O850 2.041 1_545 S
Mg836 O857 2.038 . S
C837 O843 1.247 . S
C837 O844 1.289 . S
C838 O856 1.245 . S
C838 O857 1.274 . S
O839 C827 1.241 . S
O839 Mg832 2.042 1_545 S
O840 C827 1.280 . S
O840 Mg830 1.984 . S
O841 C828 1.277 . S
O841 Mg832 2.041 1_545 S
O842 C828 1.245 . S
O842 Mg830 1.988 . S
O843 Mg830 2.061 . S
O843 C837 1.247 . S
O844 Mg833 2.107 . S
O844 Mg836 2.238 . S
O844 C837 1.289 . S
C845 O846 1.245 . S
C845 O847 1.274 . S
O846 Mg833 2.078 1_565 S
O846 C845 1.245 . S
O847 Mg832 2.038 . S
O847 C845 1.274 . S
O848 Mg836 2.042 1_565 S
O848 C851 1.241 . S
O849 Mg835 1.984 . S
O849 C851 1.280 . S
O850 Mg836 2.041 1_565 S
O850 C854 1.277 . S
C851 O848 1.241 . S
C851 O849 1.280 . S
O852 Mg835 1.988 . S
O852 C854 1.245 . S
O853 C829 1.247 . S
O853 Mg835 2.061 . S
C854 O850 1.277 . S
C854 O852 1.245 . S
O855 C829 1.289 . S
O855 Mg832 2.238 . S
O855 Mg833 2.106 1_565 S
O856 Mg833 2.080 . S
O856 C838 1.245 . S
O857 Mg836 2.038 . S
O857 C838 1.274 . S
H858 C870 0.930 . S
H859 C872 0.930 . S
H860 C873 0.930 . S
H861 C877 0.959 . S
H862 C877 0.959 . S
H863 C877 0.961 . S
H864 C878 0.960 . S
H865 C878 0.961 . S
H866 C878 0.959 . S
H867 C881 0.929 . S
H868 C882 0.931 . S
H869 C884 0.930 . S
C870 H858 0.930 . S
C870 C871 1.399 . S
C870 C875 1.399 . S
C871 C870 1.399 . S
C871 C872 1.376 . S
C872 H859 0.930 . S
C872 C871 1.376 . S
C872 C873 1.388 . S
C873 H860 0.930 . S
C873 C872 1.388 . S
C873 C874 1.390 . S
C874 C873 1.390 . S
C874 C875 1.394 . S
C874 C880 1.465 . S
C875 C870 1.399 . S
C875 C874 1.394 . S
C875 C876 1.516 . S
C876 C875 1.516 . S
C876 C877 1.502 . S
C876 C878 1.561 . S
C876 C879 1.526 . S
C877 H861 0.959 . S
C877 H862 0.959 . S
C877 H863 0.961 . S
C877 C876 1.502 . S
C878 H864 0.960 . S
C878 H865 0.961 . S
C878 H866 0.959 . S
C878 C876 1.561 . S
C879 C876 1.526 . S
C879 C880 1.396 . S
C879 C884 1.390 . S
C880 C874 1.465 . S
C880 C879 1.396 . S
C880 C881 1.399 . S
C881 H867 0.929 . S
C881 C880 1.399 . S
C881 C882 1.385 . S
C882 H868 0.931 . S
C882 C881 1.385 . S
C882 C883 1.389 . S
C883 C882 1.389 . S
C883 C884 1.387 . S
C884 H869 0.930 . S
C884 C879 1.390 . S
C884 C883 1.387 . S
H885 C897 0.930 . S
H886 C899 0.930 . S
H887 C900 0.930 . S
H888 C904 0.959 . S
H889 C904 0.959 . S
H890 C904 0.961 . S
H891 C905 0.960 . S
H892 C905 0.961 . S
H893 C905 0.959 . S
H894 C908 0.929 . S
H895 C909 0.931 . S
H896 C911 0.930 . S
C897 H885 0.930 . S
C897 C898 1.399 . S
C897 C902 1.399 . S
C898 C897 1.399 . S
C898 C899 1.376 . S
C899 H886 0.930 . S
C899 C898 1.376 . S
C899 C900 1.388 . S
C900 H887 0.930 . S
C900 C899 1.388 . S
C900 C901 1.390 . S
C901 C900 1.390 . S
C901 C902 1.394 . S
C901 C907 1.465 . S
C902 C897 1.399 . S
C902 C901 1.394 . S
C902 C903 1.516 . S
C903 C902 1.516 . S
C903 C904 1.502 . S
C903 C905 1.561 . S
C903 C906 1.526 . S
C904 H888 0.959 . S
C904 H889 0.959 . S
C904 H890 0.961 . S
C904 C903 1.502 . S
C905 H891 0.960 . S
C905 H892 0.961 . S
C905 H893 0.959 . S
C905 C903 1.561 . S
C906 C903 1.526 . S
C906 C907 1.396 . S
C906 C911 1.390 . S
C907 C901 1.465 . S
C907 C906 1.396 . S
C907 C908 1.399 . S
C908 H894 0.929 . S
C908 C907 1.399 . S
C908 C909 1.385 . S
C909 H895 0.931 . S
C909 C908 1.385 . S
C909 C910 1.389 . S
C910 C909 1.389 . S
C910 C911 1.387 . S
C911 H896 0.930 . S
C911 C906 1.390 . S
C911 C910 1.387 . S
H912 C924 0.930 . S
H913 C926 0.930 . S
H914 C927 0.930 . S
H915 C931 0.959 . S
H916 C931 0.959 . S
H917 C931 0.961 . S
H918 C932 0.960 . S
H919 C932 0.961 . S
H920 C932 0.959 . S
H921 C935 0.929 . S
H922 C936 0.931 . S
H923 C938 0.930 . S
C924 H912 0.930 . S
C924 C925 1.399 . S
C924 C929 1.399 . S
C925 C924 1.399 . S
C925 C926 1.376 . S
C926 H913 0.930 . S
C926 C925 1.376 . S
C926 C927 1.388 . S
C927 H914 0.930 . S
C927 C926 1.388 . S
C927 C928 1.390 . S
C928 C927 1.390 . S
C928 C929 1.394 . S
C928 C934 1.465 . S
C929 C924 1.399 . S
C929 C928 1.394 . S
C929 C930 1.516 . S
C930 C929 1.516 . S
C930 C931 1.502 . S
C930 C932 1.561 . S
C930 C933 1.526 . S
C931 H915 0.959 . S
C931 H916 0.959 . S
C931 H917 0.961 . S
C931 C930 1.502 . S
C932 H918 0.960 . S
C932 H919 0.961 . S
C932 H920 0.959 . S
C932 C930 1.561 . S
C933 C930 1.526 . S
C933 C934 1.396 . S
C933 C938 1.390 . S
C934 C928 1.465 . S
C934 C933 1.396 . S
C934 C935 1.399 . S
C935 H921 0.929 . S
C935 C934 1.399 . S
C935 C936 1.385 . S
C936 H922 0.931 . S
C936 C935 1.385 . S
C936 C937 1.389 . S
C937 C936 1.389 . S
C937 C938 1.387 . S
C938 H923 0.930 . S
C938 C933 1.390 . S
C938 C937 1.387 . S
H939 C951 0.930 . S
H940 C953 0.930 . S
H941 C954 0.930 . S
H942 C958 0.959 . S
H943 C958 0.959 . S
H944 C958 0.961 . S
H945 C959 0.960 . S
H946 C959 0.961 . S
H947 C959 0.959 . S
H948 C962 0.929 . S
H949 C963 0.931 . S
H950 C965 0.930 . S
C951 H939 0.930 . S
C951 C952 1.399 . S
C951 C956 1.399 . S
C952 C951 1.399 . S
C952 C953 1.376 . S
C953 H940 0.930 . S
C953 C952 1.376 . S
C953 C954 1.388 . S
C954 H941 0.930 . S
C954 C953 1.388 . S
C954 C955 1.390 . S
C955 C954 1.390 . S
C955 C956 1.394 . S
C955 C961 1.465 . S
C956 C951 1.399 . S
C956 C955 1.394 . S
C956 C957 1.516 . S
C957 C956 1.516 . S
C957 C958 1.502 . S
C957 C959 1.561 . S
C957 C960 1.526 . S
C958 H942 0.959 . S
C958 H943 0.959 . S
C958 H944 0.961 . S
C958 C957 1.502 . S
C959 H945 0.960 . S
C959 H946 0.961 . S
C959 H947 0.959 . S
C959 C957 1.561 . S
C960 C957 1.526 . S
C960 C961 1.396 . S
C960 C965 1.390 . S
C961 C955 1.465 . S
C961 C960 1.396 . S
C961 C962 1.399 . S
C962 H948 0.929 . S
C962 C961 1.399 . S
C962 C963 1.385 . S
C963 H949 0.931 . S
C963 C962 1.385 . S
C963 C964 1.389 . S
C964 C963 1.389 . S
C964 C965 1.387 . S
C965 H950 0.930 . S
C965 C960 1.390 . S
C965 C964 1.387 . S
H966 C978 0.930 . S
H967 C980 0.930 . S
H968 C981 0.930 . S
H969 C985 0.959 . S
H970 C985 0.959 . S
H971 C985 0.961 . S
H972 C986 0.960 . S
H973 C986 0.961 . S
H974 C986 0.959 . S
H975 C989 0.929 . S
H976 C990 0.931 . S
H977 C992 0.930 . S
C978 H966 0.930 . S
C978 C979 1.399 . S
C978 C983 1.399 . S
C979 C978 1.399 . S
C979 C980 1.376 . S
C980 H967 0.930 . S
C980 C979 1.376 . S
C980 C981 1.388 . S
C981 H968 0.930 . S
C981 C980 1.388 . S
C981 C982 1.390 . S
C982 C981 1.390 . S
C982 C983 1.394 . S
C982 C988 1.465 . S
C983 C978 1.399 . S
C983 C982 1.394 . S
C983 C984 1.516 . S
C984 C983 1.516 . S
C984 C985 1.502 . S
C984 C986 1.561 . S
C984 C987 1.526 . S
C985 H969 0.959 . S
C985 H970 0.959 . S
C985 H971 0.961 . S
C985 C984 1.502 . S
C986 H972 0.960 . S
C986 H973 0.961 . S
C986 H974 0.959 . S
C986 C984 1.561 . S
C987 C984 1.526 . S
C987 C988 1.396 . S
C987 C992 1.390 . S
C988 C982 1.465 . S
C988 C987 1.396 . S
C988 C989 1.399 . S
C989 H975 0.929 . S
C989 C988 1.399 . S
C989 C990 1.385 . S
C990 H976 0.931 . S
C990 C989 1.385 . S
C990 C991 1.389 . S
C991 C990 1.389 . S
C991 C992 1.387 . S
C992 H977 0.930 . S
C992 C987 1.390 . S
C992 C991 1.387 . S
H993 C1005 0.930 . S
H994 C1007 0.930 . S
H995 C1008 0.930 . S
H996 C1012 0.959 . S
H997 C1012 0.959 . S
H998 C1012 0.961 . S
H999 C1013 0.960 . S
H1000 C1013 0.961 . S
H1001 C1013 0.959 . S
H1002 C1016 0.929 . S
H1003 C1017 0.931 . S
H1004 C1019 0.930 . S
C1005 H993 0.930 . S
C1005 C1006 1.399 . S
C1005 C1010 1.399 . S
C1006 C1005 1.399 . S
C1006 C1007 1.376 . S
C1007 H994 0.930 . S
C1007 C1006 1.376 . S
C1007 C1008 1.388 . S
C1008 H995 0.930 . S
C1008 C1007 1.388 . S
C1008 C1009 1.390 . S
C1009 C1008 1.390 . S
C1009 C1010 1.394 . S
C1009 C1015 1.465 . S
C1010 C1005 1.399 . S
C1010 C1009 1.394 . S
C1010 C1011 1.516 . S
C1011 C1010 1.516 . S
C1011 C1012 1.502 . S
C1011 C1013 1.561 . S
C1011 C1014 1.526 . S
C1012 H996 0.959 . S
C1012 H997 0.959 . S
C1012 H998 0.961 . S
C1012 C1011 1.502 . S
C1013 H999 0.960 . S
C1013 H1000 0.961 . S
C1013 H1001 0.959 . S
C1013 C1011 1.561 . S
C1014 C1011 1.526 . S
C1014 C1015 1.396 . S
C1014 C1019 1.390 . S
C1015 C1009 1.465 . S
C1015 C1014 1.396 . S
C1015 C1016 1.399 . S
C1016 H1002 0.929 . S
C1016 C1015 1.399 . S
C1016 C1017 1.385 . S
C1017 H1003 0.931 . S
C1017 C1016 1.385 . S
C1017 C1018 1.389 . S
C1018 C1017 1.389 . S
C1018 C1019 1.387 . S
C1019 H1004 0.930 . S
C1019 C1014 1.390 . S
C1019 C1018 1.387 . S
H1020 C1032 0.930 . S
H1021 C1034 0.930 . S
H1022 C1035 0.930 . S
H1023 C1039 0.959 . S
H1024 C1039 0.959 . S
H1025 C1039 0.961 . S
H1026 C1040 0.960 . S
H1027 C1040 0.961 . S
H1028 C1040 0.959 . S
H1029 C1043 0.929 . S
H1030 C1044 0.931 . S
H1031 C1046 0.930 . S
C1032 H1020 0.930 . S
C1032 C1033 1.399 . S
C1032 C1037 1.399 . S
C1033 C1032 1.399 . S
C1033 C1034 1.376 . S
C1034 H1021 0.930 . S
C1034 C1033 1.376 . S
C1034 C1035 1.388 . S
C1035 H1022 0.930 . S
C1035 C1034 1.388 . S
C1035 C1036 1.390 . S
C1036 C1035 1.390 . S
C1036 C1037 1.394 . S
C1036 C1042 1.465 . S
C1037 C1032 1.399 . S
C1037 C1036 1.394 . S
C1037 C1038 1.516 . S
C1038 C1037 1.516 . S
C1038 C1039 1.502 . S
C1038 C1040 1.561 . S
C1038 C1041 1.526 . S
C1039 H1023 0.959 . S
C1039 H1024 0.959 . S
C1039 H1025 0.961 . S
C1039 C1038 1.502 . S
C1040 H1026 0.960 . S
C1040 H1027 0.961 . S
C1040 H1028 0.959 . S
C1040 C1038 1.561 . S
C1041 C1038 1.526 . S
C1041 C1042 1.396 . S
C1041 C1046 1.390 . S
C1042 C1036 1.465 . S
C1042 C1041 1.396 . S
C1042 C1043 1.399 . S
C1043 H1029 0.929 . S
C1043 C1042 1.399 . S
C1043 C1044 1.385 . S
C1044 H1030 0.931 . S
C1044 C1043 1.385 . S
C1044 C1045 1.389 . S
C1045 C1044 1.389 . S
C1045 C1046 1.387 . S
C1046 H1031 0.930 . S
C1046 C1041 1.390 . S
C1046 C1045 1.387 . S
H1047 C1059 0.930 . S
H1048 C1061 0.930 . S
H1049 C1062 0.930 . S
H1050 C1066 0.959 . S
H1051 C1066 0.959 . S
H1052 C1066 0.961 . S
H1053 C1067 0.960 . S
H1054 C1067 0.961 . S
H1055 C1067 0.959 . S
H1056 C1070 0.929 . S
H1057 C1071 0.931 . S
H1058 C1073 0.930 . S
C1059 H1047 0.930 . S
C1059 C1060 1.399 . S
C1059 C1064 1.399 . S
C1060 C1059 1.399 . S
C1060 C1061 1.376 . S
C1061 H1048 0.930 . S
C1061 C1060 1.376 . S
C1061 C1062 1.388 . S
C1062 H1049 0.930 . S
C1062 C1061 1.388 . S
C1062 C1063 1.390 . S
C1063 C1062 1.390 . S
C1063 C1064 1.394 . S
C1063 C1069 1.465 . S
C1064 C1059 1.399 . S
C1064 C1063 1.394 . S
C1064 C1065 1.516 . S
C1065 C1064 1.516 . S
C1065 C1066 1.502 . S
C1065 C1067 1.561 . S
C1065 C1068 1.526 . S
C1066 H1050 0.959 . S
C1066 H1051 0.959 . S
C1066 H1052 0.961 . S
C1066 C1065 1.502 . S
C1067 H1053 0.960 . S
C1067 H1054 0.961 . S
C1067 H1055 0.959 . S
C1067 C1065 1.561 . S
C1068 C1065 1.526 . S
C1068 C1069 1.396 . S
C1068 C1073 1.390 . S
C1069 C1063 1.465 . S
C1069 C1068 1.396 . S
C1069 C1070 1.399 . S
C1070 H1056 0.929 . S
C1070 C1069 1.399 . S
C1070 C1071 1.385 . S
C1071 H1057 0.931 . S
C1071 C1070 1.385 . S
C1071 C1072 1.389 . S
C1072 C1071 1.389 . S
C1072 C1073 1.387 . S
C1073 H1058 0.930 . S
C1073 C1068 1.390 . S
C1073 C1072 1.387 . S
H1074 C1086 0.930 . S
H1075 C1088 0.930 . S
H1076 C1089 0.930 . S
H1077 C1093 0.959 . S
H1078 C1093 0.959 . S
H1079 C1093 0.961 . S
H1080 C1094 0.960 . S
H1081 C1094 0.961 . S
H1082 C1094 0.959 . S
H1083 C1097 0.929 . S
H1084 C1098 0.931 . S
H1085 C1100 0.930 . S
C1086 H1074 0.930 . S
C1086 C1087 1.399 . S
C1086 C1091 1.399 . S
C1087 C1086 1.399 . S
C1087 C1088 1.376 . S
C1088 H1075 0.930 . S
C1088 C1087 1.376 . S
C1088 C1089 1.388 . S
C1089 H1076 0.930 . S
C1089 C1088 1.388 . S
C1089 C1090 1.390 . S
C1090 C1089 1.390 . S
C1090 C1091 1.394 . S
C1090 C1096 1.465 . S
C1091 C1086 1.399 . S
C1091 C1090 1.394 . S
C1091 C1092 1.516 . S
C1092 C1091 1.516 . S
C1092 C1093 1.502 . S
C1092 C1094 1.561 . S
C1092 C1095 1.526 . S
C1093 H1077 0.959 . S
C1093 H1078 0.959 . S
C1093 H1079 0.961 . S
C1093 C1092 1.502 . S
C1094 H1080 0.960 . S
C1094 H1081 0.961 . S
C1094 H1082 0.959 . S
C1094 C1092 1.561 . S
C1095 C1092 1.526 . S
C1095 C1096 1.396 . S
C1095 C1100 1.390 . S
C1096 C1090 1.465 . S
C1096 C1095 1.396 . S
C1096 C1097 1.399 . S
C1097 H1083 0.929 . S
C1097 C1096 1.399 . S
C1097 C1098 1.385 . S
C1098 H1084 0.931 . S
C1098 C1097 1.385 . S
C1098 C1099 1.389 . S
C1099 C1098 1.389 . S
C1099 C1100 1.387 . S
C1100 H1085 0.930 . S
C1100 C1095 1.390 . S
C1100 C1099 1.387 . S
H1101 C1113 0.930 . S
H1102 C1115 0.930 . S
H1103 C1116 0.930 . S
H1104 C1120 0.959 . S
H1105 C1120 0.959 . S
H1106 C1120 0.961 . S
H1107 C1121 0.960 . S
H1108 C1121 0.961 . S
H1109 C1121 0.959 . S
H1110 C1124 0.929 . S
H1111 C1125 0.931 . S
H1112 C1127 0.930 . S
C1113 H1101 0.930 . S
C1113 C1114 1.399 . S
C1113 C1118 1.399 . S
C1114 C1113 1.399 . S
C1114 C1115 1.376 . S
C1115 H1102 0.930 . S
C1115 C1114 1.376 . S
C1115 C1116 1.388 . S
C1116 H1103 0.930 . S
C1116 C1115 1.388 . S
C1116 C1117 1.390 . S
C1117 C1116 1.390 . S
C1117 C1118 1.394 . S
C1117 C1123 1.465 . S
C1118 C1113 1.399 . S
C1118 C1117 1.394 . S
C1118 C1119 1.516 . S
C1119 C1118 1.516 . S
C1119 C1120 1.502 . S
C1119 C1121 1.561 . S
C1119 C1122 1.526 . S
C1120 H1104 0.959 . S
C1120 H1105 0.959 . S
C1120 H1106 0.961 . S
C1120 C1119 1.502 . S
C1121 H1107 0.960 . S
C1121 H1108 0.961 . S
C1121 H1109 0.959 . S
C1121 C1119 1.561 . S
C1122 C1119 1.526 . S
C1122 C1123 1.396 . S
C1122 C1127 1.390 . S
C1123 C1117 1.465 . S
C1123 C1122 1.396 . S
C1123 C1124 1.399 . S
C1124 H1110 0.929 . S
C1124 C1123 1.399 . S
C1124 C1125 1.385 . S
C1125 H1111 0.931 . S
C1125 C1124 1.385 . S
C1125 C1126 1.389 . S
C1126 C1125 1.389 . S
C1126 C1127 1.387 . S
C1127 H1112 0.930 . S
C1127 C1122 1.390 . S
C1127 C1126 1.387 . S
H1128 C1140 0.930 . S
H1129 C1142 0.930 . S
H1130 C1143 0.930 . S
H1131 C1147 0.959 . S
H1132 C1147 0.959 . S
H1133 C1147 0.961 . S
H1134 C1148 0.960 . S
H1135 C1148 0.961 . S
H1136 C1148 0.959 . S
H1137 C1151 0.929 . S
H1138 C1152 0.931 . S
H1139 C1154 0.930 . S
C1140 H1128 0.930 . S
C1140 C1141 1.399 . S
C1140 C1145 1.399 . S
C1141 C1140 1.399 . S
C1141 C1142 1.376 . S
C1142 H1129 0.930 . S
C1142 C1141 1.376 . S
C1142 C1143 1.388 . S
C1143 H1130 0.930 . S
C1143 C1142 1.388 . S
C1143 C1144 1.390 . S
C1144 C1143 1.390 . S
C1144 C1145 1.394 . S
C1144 C1150 1.465 . S
C1145 C1140 1.399 . S
C1145 C1144 1.394 . S
C1145 C1146 1.516 . S
C1146 C1145 1.516 . S
C1146 C1147 1.502 . S
C1146 C1148 1.561 . S
C1146 C1149 1.526 . S
C1147 H1131 0.959 . S
C1147 H1132 0.959 . S
C1147 H1133 0.961 . S
C1147 C1146 1.502 . S
C1148 H1134 0.960 . S
C1148 H1135 0.961 . S
C1148 H1136 0.959 . S
C1148 C1146 1.561 . S
C1149 C1146 1.526 . S
C1149 C1150 1.396 . S
C1149 C1154 1.390 . S
C1150 C1144 1.465 . S
C1150 C1149 1.396 . S
C1150 C1151 1.399 . S
C1151 H1137 0.929 . S
C1151 C1150 1.399 . S
C1151 C1152 1.385 . S
C1152 H1138 0.931 . S
C1152 C1151 1.385 . S
C1152 C1153 1.389 . S
C1153 C1152 1.389 . S
C1153 C1154 1.387 . S
C1154 H1139 0.930 . S
C1154 C1149 1.390 . S
C1154 C1153 1.387 . S
H1155 C1167 0.930 . S
H1156 C1169 0.930 . S
H1157 C1170 0.930 . S
H1158 C1174 0.959 . S
H1159 C1174 0.959 . S
H1160 C1174 0.961 . S
H1161 C1175 0.960 . S
H1162 C1175 0.961 . S
H1163 C1175 0.959 . S
H1164 C1178 0.929 . S
H1165 C1179 0.931 . S
H1166 C1181 0.930 . S
C1167 H1155 0.930 . S
C1167 C1168 1.399 . S
C1167 C1172 1.399 . S
C1168 C1167 1.399 . S
C1168 C1169 1.376 . S
C1169 H1156 0.930 . S
C1169 C1168 1.376 . S
C1169 C1170 1.388 . S
C1170 H1157 0.930 . S
C1170 C1169 1.388 . S
C1170 C1171 1.390 . S
C1171 C1170 1.390 . S
C1171 C1172 1.394 . S
C1171 C1177 1.465 . S
C1172 C1167 1.399 . S
C1172 C1171 1.394 . S
C1172 C1173 1.516 . S
C1173 C1172 1.516 . S
C1173 C1174 1.502 . S
C1173 C1175 1.561 . S
C1173 C1176 1.526 . S
C1174 H1158 0.959 . S
C1174 H1159 0.959 . S
C1174 H1160 0.961 . S
C1174 C1173 1.502 . S
C1175 H1161 0.960 . S
C1175 H1162 0.961 . S
C1175 H1163 0.959 . S
C1175 C1173 1.561 . S
C1176 C1173 1.526 . S
C1176 C1177 1.396 . S
C1176 C1181 1.390 . S
C1177 C1171 1.465 . S
C1177 C1176 1.396 . S
C1177 C1178 1.399 . S
C1178 H1164 0.929 . S
C1178 C1177 1.399 . S
C1178 C1179 1.385 . S
C1179 H1165 0.931 . S
C1179 C1178 1.385 . S
C1179 C1180 1.389 . S
C1180 C1179 1.389 . S
C1180 C1181 1.387 . S
C1181 H1166 0.930 . S
C1181 C1176 1.390 . S
C1181 C1180 1.387 . S
H1182 C1194 0.930 . S
H1183 C1196 0.930 . S
H1184 C1197 0.930 . S
H1185 C1201 0.959 . S
H1186 C1201 0.959 . S
H1187 C1201 0.961 . S
H1188 C1202 0.960 . S
H1189 C1202 0.961 . S
H1190 C1202 0.959 . S
H1191 C1205 0.929 . S
H1192 C1206 0.931 . S
H1193 C1208 0.930 . S
C1194 H1182 0.930 . S
C1194 C1195 1.399 . S
C1194 C1199 1.399 . S
C1195 C1194 1.399 . S
C1195 C1196 1.376 . S
C1196 H1183 0.930 . S
C1196 C1195 1.376 . S
C1196 C1197 1.388 . S
C1197 H1184 0.930 . S
C1197 C1196 1.388 . S
C1197 C1198 1.390 . S
C1198 C1197 1.390 . S
C1198 C1199 1.394 . S
C1198 C1204 1.465 . S
C1199 C1194 1.399 . S
C1199 C1198 1.394 . S
C1199 C1200 1.516 . S
C1200 C1199 1.516 . S
C1200 C1201 1.502 . S
C1200 C1202 1.561 . S
C1200 C1203 1.526 . S
C1201 H1185 0.959 . S
C1201 H1186 0.959 . S
C1201 H1187 0.961 . S
C1201 C1200 1.502 . S
C1202 H1188 0.960 . S
C1202 H1189 0.961 . S
C1202 H1190 0.959 . S
C1202 C1200 1.561 . S
C1203 C1200 1.526 . S
C1203 C1204 1.396 . S
C1203 C1208 1.390 . S
C1204 C1198 1.465 . S
C1204 C1203 1.396 . S
C1204 C1205 1.399 . S
C1205 H1191 0.929 . S
C1205 C1204 1.399 . S
C1205 C1206 1.385 . S
C1206 H1192 0.931 . S
C1206 C1205 1.385 . S
C1206 C1207 1.389 . S
C1207 C1206 1.389 . S
C1207 C1208 1.387 . S
C1208 H1193 0.930 . S
C1208 C1203 1.390 . S
C1208 C1207 1.387 . S
H1209 C1221 0.930 . S
H1210 C1223 0.930 . S
H1211 C1224 0.930 . S
H1212 C1228 0.959 . S
H1213 C1228 0.959 . S
H1214 C1228 0.961 . S
H1215 C1229 0.960 . S
H1216 C1229 0.961 . S
H1217 C1229 0.959 . S
H1218 C1232 0.929 . S
H1219 C1233 0.931 . S
H1220 C1235 0.930 . S
C1221 H1209 0.930 . S
C1221 C1222 1.399 . S
C1221 C1226 1.399 . S
C1222 C1221 1.399 . S
C1222 C1223 1.376 . S
C1223 H1210 0.930 . S
C1223 C1222 1.376 . S
C1223 C1224 1.388 . S
C1224 H1211 0.930 . S
C1224 C1223 1.388 . S
C1224 C1225 1.390 . S
C1225 C1224 1.390 . S
C1225 C1226 1.394 . S
C1225 C1231 1.465 . S
C1226 C1221 1.399 . S
C1226 C1225 1.394 . S
C1226 C1227 1.516 . S
C1227 C1226 1.516 . S
C1227 C1228 1.502 . S
C1227 C1229 1.561 . S
C1227 C1230 1.526 . S
C1228 H1212 0.959 . S
C1228 H1213 0.959 . S
C1228 H1214 0.961 . S
C1228 C1227 1.502 . S
C1229 H1215 0.960 . S
C1229 H1216 0.961 . S
C1229 H1217 0.959 . S
C1229 C1227 1.561 . S
C1230 C1227 1.526 . S
C1230 C1231 1.396 . S
C1230 C1235 1.390 . S
C1231 C1225 1.465 . S
C1231 C1230 1.396 . S
C1231 C1232 1.399 . S
C1232 H1218 0.929 . S
C1232 C1231 1.399 . S
C1232 C1233 1.385 . S
C1233 H1219 0.931 . S
C1233 C1232 1.385 . S
C1233 C1234 1.389 . S
C1234 C1233 1.389 . S
C1234 C1235 1.387 . S
C1235 H1220 0.930 . S
C1235 C1230 1.390 . S
C1235 C1234 1.387 . S
H1236 C1248 0.930 . S
H1237 C1250 0.930 . S
H1238 C1251 0.930 . S
H1239 C1255 0.959 . S
H1240 C1255 0.959 . S
H1241 C1255 0.961 . S
H1242 C1256 0.960 . S
H1243 C1256 0.961 . S
H1244 C1256 0.959 . S
H1245 C1259 0.929 . S
H1246 C1260 0.931 . S
H1247 C1262 0.930 . S
C1248 H1236 0.930 . S
C1248 C1249 1.399 . S
C1248 C1253 1.399 . S
C1249 C1248 1.399 . S
C1249 C1250 1.376 . S
C1250 H1237 0.930 . S
C1250 C1249 1.376 . S
C1250 C1251 1.388 . S
C1251 H1238 0.930 . S
C1251 C1250 1.388 . S
C1251 C1252 1.390 . S
C1252 C1251 1.390 . S
C1252 C1253 1.394 . S
C1252 C1258 1.465 . S
C1253 C1248 1.399 . S
C1253 C1252 1.394 . S
C1253 C1254 1.516 . S
C1254 C1253 1.516 . S
C1254 C1255 1.502 . S
C1254 C1256 1.561 . S
C1254 C1257 1.526 . S
C1255 H1239 0.959 . S
C1255 H1240 0.959 . S
C1255 H1241 0.961 . S
C1255 C1254 1.502 . S
C1256 H1242 0.960 . S
C1256 H1243 0.961 . S
C1256 H1244 0.959 . S
C1256 C1254 1.561 . S
C1257 C1254 1.526 . S
C1257 C1258 1.396 . S
C1257 C1262 1.390 . S
C1258 C1252 1.465 . S
C1258 C1257 1.396 . S
C1258 C1259 1.399 . S
C1259 H1245 0.929 . S
C1259 C1258 1.399 . S
C1259 C1260 1.385 . S
C1260 H1246 0.931 . S
C1260 C1259 1.385 . S
C1260 C1261 1.389 . S
C1261 C1260 1.389 . S
C1261 C1262 1.387 . S
C1262 H1247 0.930 . S
C1262 C1257 1.390 . S
C1262 C1261 1.387 . S
H1263 C1275 0.930 . S
H1264 C1277 0.930 . S
H1265 C1278 0.930 . S
H1266 C1282 0.959 . S
H1267 C1282 0.959 . S
H1268 C1282 0.961 . S
H1269 C1283 0.960 . S
H1270 C1283 0.961 . S
H1271 C1283 0.959 . S
H1272 C1286 0.929 . S
H1273 C1287 0.931 . S
H1274 C1289 0.930 . S
C1275 H1263 0.930 . S
C1275 C1276 1.399 . S
C1275 C1280 1.399 . S
C1276 C1275 1.399 . S
C1276 C1277 1.376 . S
C1277 H1264 0.930 . S
C1277 C1276 1.376 . S
C1277 C1278 1.388 . S
C1278 H1265 0.930 . S
C1278 C1277 1.388 . S
C1278 C1279 1.390 . S
C1279 C1278 1.390 . S
C1279 C1280 1.394 . S
C1279 C1285 1.465 . S
C1280 C1275 1.399 . S
C1280 C1279 1.394 . S
C1280 C1281 1.516 . S
C1281 C1280 1.516 . S
C1281 C1282 1.502 . S
C1281 C1283 1.561 . S
C1281 C1284 1.526 . S
C1282 H1266 0.959 . S
C1282 H1267 0.959 . S
C1282 H1268 0.961 . S
C1282 C1281 1.502 . S
C1283 H1269 0.960 . S
C1283 H1270 0.961 . S
C1283 H1271 0.959 . S
C1283 C1281 1.561 . S
C1284 C1281 1.526 . S
C1284 C1285 1.396 . S
C1284 C1289 1.390 . S
C1285 C1279 1.465 . S
C1285 C1284 1.396 . S
C1285 C1286 1.399 . S
C1286 H1272 0.929 . S
C1286 C1285 1.399 . S
C1286 C1287 1.385 . S
C1287 H1273 0.931 . S
C1287 C1286 1.385 . S
C1287 C1288 1.389 . S
C1288 C1287 1.389 . S
C1288 C1289 1.387 . S
C1289 H1274 0.930 . S
C1289 C1284 1.390 . S
C1289 C1288 1.387 . S
H1290 C1302 0.930 . S
H1291 C1304 0.930 . S
H1292 C1305 0.930 . S
H1293 C1309 0.959 . S
H1294 C1309 0.959 . S
H1295 C1309 0.961 . S
H1296 C1310 0.960 . S
H1297 C1310 0.961 . S
H1298 C1310 0.959 . S
H1299 C1313 0.929 . S
H1300 C1314 0.931 . S
H1301 C1316 0.930 . S
C1302 H1290 0.930 . S
C1302 C1303 1.399 . S
C1302 C1307 1.399 . S
C1303 C1302 1.399 . S
C1303 C1304 1.376 . S
C1304 H1291 0.930 . S
C1304 C1303 1.376 . S
C1304 C1305 1.388 . S
C1305 H1292 0.930 . S
C1305 C1304 1.388 . S
C1305 C1306 1.390 . S
C1306 C1305 1.390 . S
C1306 C1307 1.394 . S
C1306 C1312 1.465 . S
C1307 C1302 1.399 . S
C1307 C1306 1.394 . S
C1307 C1308 1.516 . S
C1308 C1307 1.516 . S
C1308 C1309 1.502 . S
C1308 C1310 1.561 . S
C1308 C1311 1.526 . S
C1309 H1293 0.959 . S
C1309 H1294 0.959 . S
C1309 H1295 0.961 . S
C1309 C1308 1.502 . S
C1310 H1296 0.960 . S
C1310 H1297 0.961 . S
C1310 H1298 0.959 . S
C1310 C1308 1.561 . S
C1311 C1308 1.526 . S
C1311 C1312 1.396 . S
C1311 C1316 1.390 . S
C1312 C1306 1.465 . S
C1312 C1311 1.396 . S
C1312 C1313 1.399 . S
C1313 H1299 0.929 . S
C1313 C1312 1.399 . S
C1313 C1314 1.385 . S
C1314 H1300 0.931 . S
C1314 C1313 1.385 . S
C1314 C1315 1.389 . S
C1315 C1314 1.389 . S
C1315 C1316 1.387 . S
C1316 H1301 0.930 . S
C1316 C1311 1.390 . S
C1316 C1315 1.387 . S
H1317 C1329 0.930 . S
H1318 C1331 0.930 . S
H1319 C1332 0.930 . S
H1320 C1336 0.959 . S
H1321 C1336 0.959 . S
H1322 C1336 0.961 . S
H1323 C1337 0.960 . S
H1324 C1337 0.961 . S
H1325 C1337 0.959 . S
H1326 C1340 0.929 . S
H1327 C1341 0.931 . S
H1328 C1343 0.930 . S
C1329 H1317 0.930 . S
C1329 C1330 1.399 . S
C1329 C1334 1.399 . S
C1330 C1329 1.399 . S
C1330 C1331 1.376 . S
C1331 H1318 0.930 . S
C1331 C1330 1.376 . S
C1331 C1332 1.388 . S
C1332 H1319 0.930 . S
C1332 C1331 1.388 . S
C1332 C1333 1.390 . S
C1333 C1332 1.390 . S
C1333 C1334 1.394 . S
C1333 C1339 1.465 . S
C1334 C1329 1.399 . S
C1334 C1333 1.394 . S
C1334 C1335 1.516 . S
C1335 C1334 1.516 . S
C1335 C1336 1.502 . S
C1335 C1337 1.561 . S
C1335 C1338 1.526 . S
C1336 H1320 0.959 . S
C1336 H1321 0.959 . S
C1336 H1322 0.961 . S
C1336 C1335 1.502 . S
C1337 H1323 0.960 . S
C1337 H1324 0.961 . S
C1337 H1325 0.959 . S
C1337 C1335 1.561 . S
C1338 C1335 1.526 . S
C1338 C1339 1.396 . S
C1338 C1343 1.390 . S
C1339 C1333 1.465 . S
C1339 C1338 1.396 . S
C1339 C1340 1.399 . S
C1340 H1326 0.929 . S
C1340 C1339 1.399 . S
C1340 C1341 1.385 . S
C1341 H1327 0.931 . S
C1341 C1340 1.385 . S
C1341 C1342 1.389 . S
C1342 C1341 1.389 . S
C1342 C1343 1.387 . S
C1343 H1328 0.930 . S
C1343 C1338 1.390 . S
C1343 C1342 1.387 . S
H1344 C1356 0.930 . S
H1345 C1358 0.930 . S
H1346 C1359 0.930 . S
H1347 C1363 0.959 . S
H1348 C1363 0.959 . S
H1349 C1363 0.961 . S
H1350 C1364 0.960 . S
H1351 C1364 0.961 . S
H1352 C1364 0.959 . S
H1353 C1367 0.929 . S
H1354 C1368 0.931 . S
H1355 C1370 0.930 . S
C1356 H1344 0.930 . S
C1356 C1357 1.399 . S
C1356 C1361 1.399 . S
C1357 C1356 1.399 . S
C1357 C1358 1.376 . S
C1358 H1345 0.930 . S
C1358 C1357 1.376 . S
C1358 C1359 1.388 . S
C1359 H1346 0.930 . S
C1359 C1358 1.388 . S
C1359 C1360 1.390 . S
C1360 C1359 1.390 . S
C1360 C1361 1.394 . S
C1360 C1366 1.465 . S
C1361 C1356 1.399 . S
C1361 C1360 1.394 . S
C1361 C1362 1.516 . S
C1362 C1361 1.516 . S
C1362 C1363 1.502 . S
C1362 C1364 1.561 . S
C1362 C1365 1.526 . S
C1363 H1347 0.959 . S
C1363 H1348 0.959 . S
C1363 H1349 0.961 . S
C1363 C1362 1.502 . S
C1364 H1350 0.960 . S
C1364 H1351 0.961 . S
C1364 H1352 0.959 . S
C1364 C1362 1.561 . S
C1365 C1362 1.526 . S
C1365 C1366 1.396 . S
C1365 C1370 1.390 . S
C1366 C1360 1.465 . S
C1366 C1365 1.396 . S
C1366 C1367 1.399 . S
C1367 H1353 0.929 . S
C1367 C1366 1.399 . S
C1367 C1368 1.385 . S
C1368 H1354 0.931 . S
C1368 C1367 1.385 . S
C1368 C1369 1.389 . S
C1369 C1368 1.389 . S
C1369 C1370 1.387 . S
C1370 H1355 0.930 . S
C1370 C1365 1.390 . S
C1370 C1369 1.387 . S
H1371 C1383 0.930 . S
H1372 C1385 0.930 . S
H1373 C1386 0.930 . S
H1374 C1390 0.959 . S
H1375 C1390 0.959 . S
H1376 C1390 0.961 . S
H1377 C1391 0.960 . S
H1378 C1391 0.961 . S
H1379 C1391 0.959 . S
H1380 C1394 0.929 . S
H1381 C1395 0.931 . S
H1382 C1397 0.930 . S
C1383 H1371 0.930 . S
C1383 C1384 1.399 . S
C1383 C1388 1.399 . S
C1384 C1383 1.399 . S
C1384 C1385 1.376 . S
C1385 H1372 0.930 . S
C1385 C1384 1.376 . S
C1385 C1386 1.388 . S
C1386 H1373 0.930 . S
C1386 C1385 1.388 . S
C1386 C1387 1.390 . S
C1387 C1386 1.390 . S
C1387 C1388 1.394 . S
C1387 C1393 1.465 . S
C1388 C1383 1.399 . S
C1388 C1387 1.394 . S
C1388 C1389 1.516 . S
C1389 C1388 1.516 . S
C1389 C1390 1.502 . S
C1389 C1391 1.561 . S
C1389 C1392 1.526 . S
C1390 H1374 0.959 . S
C1390 H1375 0.959 . S
C1390 H1376 0.961 . S
C1390 C1389 1.502 . S
C1391 H1377 0.960 . S
C1391 H1378 0.961 . S
C1391 H1379 0.959 . S
C1391 C1389 1.561 . S
C1392 C1389 1.526 . S
C1392 C1393 1.396 . S
C1392 C1397 1.390 . S
C1393 C1387 1.465 . S
C1393 C1392 1.396 . S
C1393 C1394 1.399 . S
C1394 H1380 0.929 . S
C1394 C1393 1.399 . S
C1394 C1395 1.385 . S
C1395 H1381 0.931 . S
C1395 C1394 1.385 . S
C1395 C1396 1.389 . S
C1396 C1395 1.389 . S
C1396 C1397 1.387 . S
C1397 H1382 0.930 . S
C1397 C1392 1.390 . S
C1397 C1396 1.387 . S
H1398 C1410 0.930 . S
H1399 C1412 0.930 . S
H1400 C1413 0.930 . S
H1401 C1417 0.959 . S
H1402 C1417 0.959 . S
H1403 C1417 0.961 . S
H1404 C1418 0.960 . S
H1405 C1418 0.961 . S
H1406 C1418 0.959 . S
H1407 C1421 0.929 . S
H1408 C1422 0.931 . S
H1409 C1424 0.930 . S
C1410 H1398 0.930 . S
C1410 C1411 1.399 . S
C1410 C1415 1.399 . S
C1411 C1410 1.399 . S
C1411 C1412 1.376 . S
C1412 H1399 0.930 . S
C1412 C1411 1.376 . S
C1412 C1413 1.388 . S
C1413 H1400 0.930 . S
C1413 C1412 1.388 . S
C1413 C1414 1.390 . S
C1414 C1413 1.390 . S
C1414 C1415 1.394 . S
C1414 C1420 1.465 . S
C1415 C1410 1.399 . S
C1415 C1414 1.394 . S
C1415 C1416 1.516 . S
C1416 C1415 1.516 . S
C1416 C1417 1.502 . S
C1416 C1418 1.561 . S
C1416 C1419 1.526 . S
C1417 H1401 0.959 . S
C1417 H1402 0.959 . S
C1417 H1403 0.961 . S
C1417 C1416 1.502 . S
C1418 H1404 0.960 . S
C1418 H1405 0.961 . S
C1418 H1406 0.959 . S
C1418 C1416 1.561 . S
C1419 C1416 1.526 . S
C1419 C1420 1.396 . S
C1419 C1424 1.390 . S
C1420 C1414 1.465 . S
C1420 C1419 1.396 . S
C1420 C1421 1.399 . S
C1421 H1407 0.929 . S
C1421 C1420 1.399 . S
C1421 C1422 1.385 . S
C1422 H1408 0.931 . S
C1422 C1421 1.385 . S
C1422 C1423 1.389 . S
C1423 C1422 1.389 . S
C1423 C1424 1.387 . S
C1424 H1409 0.930 . S
C1424 C1419 1.390 . S
C1424 C1423 1.387 . S
H1425 C1437 0.930 . S
H1426 C1439 0.930 . S
H1427 C1440 0.930 . S
H1428 C1444 0.959 . S
H1429 C1444 0.959 . S
H1430 C1444 0.961 . S
H1431 C1445 0.960 . S
H1432 C1445 0.961 . S
H1433 C1445 0.959 . S
H1434 C1448 0.929 . S
H1435 C1449 0.931 . S
H1436 C1451 0.930 . S
C1437 H1425 0.930 . S
C1437 C1438 1.399 . S
C1437 C1442 1.399 . S
C1438 C1437 1.399 . S
C1438 C1439 1.376 . S
C1439 H1426 0.930 . S
C1439 C1438 1.376 . S
C1439 C1440 1.388 . S
C1440 H1427 0.930 . S
C1440 C1439 1.388 . S
C1440 C1441 1.390 . S
C1441 C1440 1.390 . S
C1441 C1442 1.394 . S
C1441 C1447 1.465 . S
C1442 C1437 1.399 . S
C1442 C1441 1.394 . S
C1442 C1443 1.516 . S
C1443 C1442 1.516 . S
C1443 C1444 1.502 . S
C1443 C1445 1.561 . S
C1443 C1446 1.526 . S
C1444 H1428 0.959 . S
C1444 H1429 0.959 . S
C1444 H1430 0.961 . S
C1444 C1443 1.502 . S
C1445 H1431 0.960 . S
C1445 H1432 0.961 . S
C1445 H1433 0.959 . S
C1445 C1443 1.561 . S
C1446 C1443 1.526 . S
C1446 C1447 1.396 . S
C1446 C1451 1.390 . S
C1447 C1441 1.465 . S
C1447 C1446 1.396 . S
C1447 C1448 1.399 . S
C1448 H1434 0.929 . S
C1448 C1447 1.399 . S
C1448 C1449 1.385 . S
C1449 H1435 0.931 . S
C1449 C1448 1.385 . S
C1449 C1450 1.389 . S
C1450 C1449 1.389 . S
C1450 C1451 1.387 . S
C1451 H1436 0.930 . S
C1451 C1446 1.390 . S
C1451 C1450 1.387 . S
H1452 C1464 0.930 . S
H1453 C1466 0.930 . S
H1454 C1467 0.930 . S
H1455 C1471 0.959 . S
H1456 C1471 0.959 . S
H1457 C1471 0.961 . S
H1458 C1472 0.960 . S
H1459 C1472 0.961 . S
H1460 C1472 0.959 . S
H1461 C1475 0.929 . S
H1462 C1476 0.931 . S
H1463 C1478 0.930 . S
C1464 H1452 0.930 . S
C1464 C1465 1.399 . S
C1464 C1469 1.399 . S
C1465 C1464 1.399 . S
C1465 C1466 1.376 . S
C1466 H1453 0.930 . S
C1466 C1465 1.376 . S
C1466 C1467 1.388 . S
C1467 H1454 0.930 . S
C1467 C1466 1.388 . S
C1467 C1468 1.390 . S
C1468 C1467 1.390 . S
C1468 C1469 1.394 . S
C1468 C1474 1.465 . S
C1469 C1464 1.399 . S
C1469 C1468 1.394 . S
C1469 C1470 1.516 . S
C1470 C1469 1.516 . S
C1470 C1471 1.502 . S
C1470 C1472 1.561 . S
C1470 C1473 1.526 . S
C1471 H1455 0.959 . S
C1471 H1456 0.959 . S
C1471 H1457 0.961 . S
C1471 C1470 1.502 . S
C1472 H1458 0.960 . S
C1472 H1459 0.961 . S
C1472 H1460 0.959 . S
C1472 C1470 1.561 . S
C1473 C1470 1.526 . S
C1473 C1474 1.396 . S
C1473 C1478 1.390 . S
C1474 C1468 1.465 . S
C1474 C1473 1.396 . S
C1474 C1475 1.399 . S
C1475 H1461 0.929 . S
C1475 C1474 1.399 . S
C1475 C1476 1.385 . S
C1476 H1462 0.931 . S
C1476 C1475 1.385 . S
C1476 C1477 1.389 . S
C1477 C1476 1.389 . S
C1477 C1478 1.387 . S
C1478 H1463 0.930 . S
C1478 C1473 1.390 . S
C1478 C1477 1.387 . S
H1479 C1491 0.930 . S
H1480 C1493 0.930 . S
H1481 C1494 0.930 . S
H1482 C1498 0.959 . S
H1483 C1498 0.959 . S
H1484 C1498 0.961 . S
H1485 C1499 0.960 . S
H1486 C1499 0.961 . S
H1487 C1499 0.959 . S
H1488 C1502 0.929 . S
H1489 C1503 0.931 . S
H1490 C1505 0.930 . S
C1491 H1479 0.930 . S
C1491 C1492 1.399 . S
C1491 C1496 1.399 . S
C1492 C1491 1.399 . S
C1492 C1493 1.376 . S
C1493 H1480 0.930 . S
C1493 C1492 1.376 . S
C1493 C1494 1.388 . S
C1494 H1481 0.930 . S
C1494 C1493 1.388 . S
C1494 C1495 1.390 . S
C1495 C1494 1.390 . S
C1495 C1496 1.394 . S
C1495 C1501 1.465 . S
C1496 C1491 1.399 . S
C1496 C1495 1.394 . S
C1496 C1497 1.516 . S
C1497 C1496 1.516 . S
C1497 C1498 1.502 . S
C1497 C1499 1.561 . S
C1497 C1500 1.526 . S
C1498 H1482 0.959 . S
C1498 H1483 0.959 . S
C1498 H1484 0.961 . S
C1498 C1497 1.502 . S
C1499 H1485 0.960 . S
C1499 H1486 0.961 . S
C1499 H1487 0.959 . S
C1499 C1497 1.561 . S
C1500 C1497 1.526 . S
C1500 C1501 1.396 . S
C1500 C1505 1.390 . S
C1501 C1495 1.465 . S
C1501 C1500 1.396 . S
C1501 C1502 1.399 . S
C1502 H1488 0.929 . S
C1502 C1501 1.399 . S
C1502 C1503 1.385 . S
C1503 H1489 0.931 . S
C1503 C1502 1.385 . S
C1503 C1504 1.389 . S
C1504 C1503 1.389 . S
C1504 C1505 1.387 . S
C1505 H1490 0.930 . S
C1505 C1500 1.390 . S
C1505 C1504 1.387 . S
H1506 C1518 0.930 . S
H1507 C1520 0.930 . S
H1508 C1521 0.930 . S
H1509 C1525 0.959 . S
H1510 C1525 0.959 . S
H1511 C1525 0.961 . S
H1512 C1526 0.960 . S
H1513 C1526 0.961 . S
H1514 C1526 0.959 . S
H1515 C1529 0.929 . S
H1516 C1530 0.931 . S
H1517 C1532 0.930 . S
C1518 H1506 0.930 . S
C1518 C1519 1.399 . S
C1518 C1523 1.399 . S
C1519 C1518 1.399 . S
C1519 C1520 1.376 . S
C1520 H1507 0.930 . S
C1520 C1519 1.376 . S
C1520 C1521 1.388 . S
C1521 H1508 0.930 . S
C1521 C1520 1.388 . S
C1521 C1522 1.390 . S
C1522 C1521 1.390 . S
C1522 C1523 1.394 . S
C1522 C1528 1.465 . S
C1523 C1518 1.399 . S
C1523 C1522 1.394 . S
C1523 C1524 1.516 . S
C1524 C1523 1.516 . S
C1524 C1525 1.502 . S
C1524 C1526 1.561 . S
C1524 C1527 1.526 . S
C1525 H1509 0.959 . S
C1525 H1510 0.959 . S
C1525 H1511 0.961 . S
C1525 C1524 1.502 . S
C1526 H1512 0.960 . S
C1526 H1513 0.961 . S
C1526 H1514 0.959 . S
C1526 C1524 1.561 . S
C1527 C1524 1.526 . S
C1527 C1528 1.396 . S
C1527 C1532 1.390 . S
C1528 C1522 1.465 . S
C1528 C1527 1.396 . S
C1528 C1529 1.399 . S
C1529 H1515 0.929 . S
C1529 C1528 1.399 . S
C1529 C1530 1.385 . S
C1530 H1516 0.931 . S
C1530 C1529 1.385 . S
C1530 C1531 1.389 . S
C1531 C1530 1.389 . S
C1531 C1532 1.387 . S
C1532 H1517 0.930 . S
C1532 C1527 1.390 . S
C1532 C1531 1.387 . S
H1533 C1545 0.930 . S
H1534 C1547 0.930 . S
H1535 C1548 0.930 . S
H1536 C1552 0.959 . S
H1537 C1552 0.959 . S
H1538 C1552 0.961 . S
H1539 C1553 0.960 . S
H1540 C1553 0.961 . S
H1541 C1553 0.959 . S
H1542 C1556 0.929 . S
H1543 C1557 0.931 . S
H1544 C1559 0.930 . S
C1545 H1533 0.930 . S
C1545 C1546 1.399 . S
C1545 C1550 1.399 . S
C1546 C1545 1.399 . S
C1546 C1547 1.376 . S
C1547 H1534 0.930 . S
C1547 C1546 1.376 . S
C1547 C1548 1.388 . S
C1548 H1535 0.930 . S
C1548 C1547 1.388 . S
C1548 C1549 1.390 . S
C1549 C1548 1.390 . S
C1549 C1550 1.394 . S
C1549 C1555 1.465 . S
C1550 C1545 1.399 . S
C1550 C1549 1.394 . S
C1550 C1551 1.516 . S
C1551 C1550 1.516 . S
C1551 C1552 1.502 . S
C1551 C1553 1.561 . S
C1551 C1554 1.526 . S
C1552 H1536 0.959 . S
C1552 H1537 0.959 . S
C1552 H1538 0.961 . S
C1552 C1551 1.502 . S
C1553 H1539 0.960 . S
C1553 H1540 0.961 . S
C1553 H1541 0.959 . S
C1553 C1551 1.561 . S
C1554 C1551 1.526 . S
C1554 C1555 1.396 . S
C1554 C1559 1.390 . S
C1555 C1549 1.465 . S
C1555 C1554 1.396 . S
C1555 C1556 1.399 . S
C1556 H1542 0.929 . S
C1556 C1555 1.399 . S
C1556 C1557 1.385 . S
C1557 H1543 0.931 . S
C1557 C1556 1.385 . S
C1557 C1558 1.389 . S
C1558 C1557 1.389 . S
C1558 C1559 1.387 . S
C1559 H1544 0.930 . S
C1559 C1554 1.390 . S
C1559 C1558 1.387 . S
H1560 C1572 0.930 . S
H1561 C1574 0.930 . S
H1562 C1575 0.930 . S
H1563 C1579 0.959 . S
H1564 C1579 0.959 . S
H1565 C1579 0.961 . S
H1566 C1580 0.960 . S
H1567 C1580 0.961 . S
H1568 C1580 0.959 . S
H1569 C1583 0.929 . S
H1570 C1584 0.931 . S
H1571 C1586 0.930 . S
C1572 H1560 0.930 . S
C1572 C1573 1.399 . S
C1572 C1577 1.399 . S
C1573 C1572 1.399 . S
C1573 C1574 1.376 . S
C1574 H1561 0.930 . S
C1574 C1573 1.376 . S
C1574 C1575 1.388 . S
C1575 H1562 0.930 . S
C1575 C1574 1.388 . S
C1575 C1576 1.390 . S
C1576 C1575 1.390 . S
C1576 C1577 1.394 . S
C1576 C1582 1.465 . S
C1577 C1572 1.399 . S
C1577 C1576 1.394 . S
C1577 C1578 1.516 . S
C1578 C1577 1.516 . S
C1578 C1579 1.502 . S
C1578 C1580 1.561 . S
C1578 C1581 1.526 . S
C1579 H1563 0.959 . S
C1579 H1564 0.959 . S
C1579 H1565 0.961 . S
C1579 C1578 1.502 . S
C1580 H1566 0.960 . S
C1580 H1567 0.961 . S
C1580 H1568 0.959 . S
C1580 C1578 1.561 . S
C1581 C1578 1.526 . S
C1581 C1582 1.396 . S
C1581 C1586 1.390 . S
C1582 C1576 1.465 . S
C1582 C1581 1.396 . S
C1582 C1583 1.399 . S
C1583 H1569 0.929 . S
C1583 C1582 1.399 . S
C1583 C1584 1.385 . S
C1584 H1570 0.931 . S
C1584 C1583 1.385 . S
C1584 C1585 1.389 . S
C1585 C1584 1.389 . S
C1585 C1586 1.387 . S
C1586 H1571 0.930 . S
C1586 C1581 1.390 . S
C1586 C1585 1.387 . S
H1587 C1599 0.930 . S
H1588 C1601 0.930 . S
H1589 C1602 0.930 . S
H1590 C1606 0.959 . S
H1591 C1606 0.959 . S
H1592 C1606 0.961 . S
H1593 C1607 0.960 . S
H1594 C1607 0.961 . S
H1595 C1607 0.959 . S
H1596 C1610 0.929 . S
H1597 C1611 0.931 . S
H1598 C1613 0.930 . S
C1599 H1587 0.930 . S
C1599 C1600 1.399 . S
C1599 C1604 1.399 . S
C1600 C1599 1.399 . S
C1600 C1601 1.376 . S
C1601 H1588 0.930 . S
C1601 C1600 1.376 . S
C1601 C1602 1.388 . S
C1602 H1589 0.930 . S
C1602 C1601 1.388 . S
C1602 C1603 1.390 . S
C1603 C1602 1.390 . S
C1603 C1604 1.394 . S
C1603 C1609 1.465 . S
C1604 C1599 1.399 . S
C1604 C1603 1.394 . S
C1604 C1605 1.516 . S
C1605 C1604 1.516 . S
C1605 C1606 1.502 . S
C1605 C1607 1.561 . S
C1605 C1608 1.526 . S
C1606 H1590 0.959 . S
C1606 H1591 0.959 . S
C1606 H1592 0.961 . S
C1606 C1605 1.502 . S
C1607 H1593 0.960 . S
C1607 H1594 0.961 . S
C1607 H1595 0.959 . S
C1607 C1605 1.561 . S
C1608 C1605 1.526 . S
C1608 C1609 1.396 . S
C1608 C1613 1.390 . S
C1609 C1603 1.465 . S
C1609 C1608 1.396 . S
C1609 C1610 1.399 . S
C1610 H1596 0.929 . S
C1610 C1609 1.399 . S
C1610 C1611 1.385 . S
C1611 H1597 0.931 . S
C1611 C1610 1.385 . S
C1611 C1612 1.389 . S
C1612 C1611 1.389 . S
C1612 C1613 1.387 . S
C1613 H1598 0.930 . S
C1613 C1608 1.390 . S
C1613 C1612 1.387 . S
H1614 C1626 0.930 . S
H1615 C1628 0.930 . S
H1616 C1629 0.930 . S
H1617 C1633 0.959 . S
H1618 C1633 0.959 . S
H1619 C1633 0.961 . S
H1620 C1634 0.960 . S
H1621 C1634 0.961 . S
H1622 C1634 0.959 . S
H1623 C1637 0.929 . S
H1624 C1638 0.931 . S
H1625 C1640 0.930 . S
C1626 H1614 0.930 . S
C1626 C1627 1.399 . S
C1626 C1631 1.399 . S
C1627 C1626 1.399 . S
C1627 C1628 1.376 . S
C1628 H1615 0.930 . S
C1628 C1627 1.376 . S
C1628 C1629 1.388 . S
C1629 H1616 0.930 . S
C1629 C1628 1.388 . S
C1629 C1630 1.390 . S
C1630 C1629 1.390 . S
C1630 C1631 1.394 . S
C1630 C1636 1.465 . S
C1631 C1626 1.399 . S
C1631 C1630 1.394 . S
C1631 C1632 1.516 . S
C1632 C1631 1.516 . S
C1632 C1633 1.502 . S
C1632 C1634 1.561 . S
C1632 C1635 1.526 . S
C1633 H1617 0.959 . S
C1633 H1618 0.959 . S
C1633 H1619 0.961 . S
C1633 C1632 1.502 . S
C1634 H1620 0.960 . S
C1634 H1621 0.961 . S
C1634 H1622 0.959 . S
C1634 C1632 1.561 . S
C1635 C1632 1.526 . S
C1635 C1636 1.396 . S
C1635 C1640 1.390 . S
C1636 C1630 1.465 . S
C1636 C1635 1.396 . S
C1636 C1637 1.399 . S
C1637 H1623 0.929 . S
C1637 C1636 1.399 . S
C1637 C1638 1.385 . S
C1638 H1624 0.931 . S
C1638 C1637 1.385 . S
C1638 C1639 1.389 . S
C1639 C1638 1.389 . S
C1639 C1640 1.387 . S
C1640 H1625 0.930 . S
C1640 C1635 1.390 . S
C1640 C1639 1.387 . S
H1641 C1653 0.930 . S
H1642 C1655 0.930 . S
H1643 C1656 0.930 . S
H1644 C1660 0.959 . S
H1645 C1660 0.959 . S
H1646 C1660 0.961 . S
H1647 C1661 0.960 . S
H1648 C1661 0.961 . S
H1649 C1661 0.959 . S
H1650 C1664 0.929 . S
H1651 C1665 0.931 . S
H1652 C1667 0.930 . S
C1653 H1641 0.930 . S
C1653 C1654 1.399 . S
C1653 C1658 1.399 . S
C1654 C1653 1.399 . S
C1654 C1655 1.376 . S
C1655 H1642 0.930 . S
C1655 C1654 1.376 . S
C1655 C1656 1.388 . S
C1656 H1643 0.930 . S
C1656 C1655 1.388 . S
C1656 C1657 1.390 . S
C1657 C1656 1.390 . S
C1657 C1658 1.394 . S
C1657 C1663 1.465 . S
C1658 C1653 1.399 . S
C1658 C1657 1.394 . S
C1658 C1659 1.516 . S
C1659 C1658 1.516 . S
C1659 C1660 1.502 . S
C1659 C1661 1.561 . S
C1659 C1662 1.526 . S
C1660 H1644 0.959 . S
C1660 H1645 0.959 . S
C1660 H1646 0.961 . S
C1660 C1659 1.502 . S
C1661 H1647 0.960 . S
C1661 H1648 0.961 . S
C1661 H1649 0.959 . S
C1661 C1659 1.561 . S
C1662 C1659 1.526 . S
C1662 C1663 1.396 . S
C1662 C1667 1.390 . S
C1663 C1657 1.465 . S
C1663 C1662 1.396 . S
C1663 C1664 1.399 . S
C1664 H1650 0.929 . S
C1664 C1663 1.399 . S
C1664 C1665 1.385 . S
C1665 H1651 0.931 . S
C1665 C1664 1.385 . S
C1665 C1666 1.389 . S
C1666 C1665 1.389 . S
C1666 C1667 1.387 . S
C1667 H1652 0.930 . S
C1667 C1662 1.390 . S
C1667 C1666 1.387 . S
H1668 C1680 0.930 . S
H1669 C1682 0.930 . S
H1670 C1683 0.930 . S
H1671 C1687 0.959 . S
H1672 C1687 0.959 . S
H1673 C1687 0.961 . S
H1674 C1688 0.960 . S
H1675 C1688 0.961 . S
H1676 C1688 0.959 . S
H1677 C1691 0.929 . S
H1678 C1692 0.931 . S
H1679 C1694 0.930 . S
C1680 H1668 0.930 . S
C1680 C1681 1.399 . S
C1680 C1685 1.399 . S
C1681 C1680 1.399 . S
C1681 C1682 1.376 . S
C1682 H1669 0.930 . S
C1682 C1681 1.376 . S
C1682 C1683 1.388 . S
C1683 H1670 0.930 . S
C1683 C1682 1.388 . S
C1683 C1684 1.390 . S
C1684 C1683 1.390 . S
C1684 C1685 1.394 . S
C1684 C1690 1.465 . S
C1685 C1680 1.399 . S
C1685 C1684 1.394 . S
C1685 C1686 1.516 . S
C1686 C1685 1.516 . S
C1686 C1687 1.502 . S
C1686 C1688 1.561 . S
C1686 C1689 1.526 . S
C1687 H1671 0.959 . S
C1687 H1672 0.959 . S
C1687 H1673 0.961 . S
C1687 C1686 1.502 . S
C1688 H1674 0.960 . S
C1688 H1675 0.961 . S
C1688 H1676 0.959 . S
C1688 C1686 1.561 . S
C1689 C1686 1.526 . S
C1689 C1690 1.396 . S
C1689 C1694 1.390 . S
C1690 C1684 1.465 . S
C1690 C1689 1.396 . S
C1690 C1691 1.399 . S
C1691 H1677 0.929 . S
C1691 C1690 1.399 . S
C1691 C1692 1.385 . S
C1692 H1678 0.931 . S
C1692 C1691 1.385 . S
C1692 C1693 1.389 . S
C1693 C1692 1.389 . S
C1693 C1694 1.387 . S
C1694 H1679 0.930 . S
C1694 C1689 1.390 . S
C1694 C1693 1.387 . S
H1695 C1707 0.930 . S
H1696 C1709 0.930 . S
H1697 C1710 0.930 . S
H1698 C1714 0.959 . S
H1699 C1714 0.959 . S
H1700 C1714 0.961 . S
H1701 C1715 0.960 . S
H1702 C1715 0.961 . S
H1703 C1715 0.959 . S
H1704 C1718 0.929 . S
H1705 C1719 0.931 . S
H1706 C1721 0.930 . S
C1707 H1695 0.930 . S
C1707 C1708 1.399 . S
C1707 C1712 1.399 . S
C1708 C1707 1.399 . S
C1708 C1709 1.376 . S
C1709 H1696 0.930 . S
C1709 C1708 1.376 . S
C1709 C1710 1.388 . S
C1710 H1697 0.930 . S
C1710 C1709 1.388 . S
C1710 C1711 1.390 . S
C1711 C1710 1.390 . S
C1711 C1712 1.394 . S
C1711 C1717 1.465 . S
C1712 C1707 1.399 . S
C1712 C1711 1.394 . S
C1712 C1713 1.516 . S
C1713 C1712 1.516 . S
C1713 C1714 1.502 . S
C1713 C1715 1.561 . S
C1713 C1716 1.526 . S
C1714 H1698 0.959 . S
C1714 H1699 0.959 . S
C1714 H1700 0.961 . S
C1714 C1713 1.502 . S
C1715 H1701 0.960 . S
C1715 H1702 0.961 . S
C1715 H1703 0.959 . S
C1715 C1713 1.561 . S
C1716 C1713 1.526 . S
C1716 C1717 1.396 . S
C1716 C1721 1.390 . S
C1717 C1711 1.465 . S
C1717 C1716 1.396 . S
C1717 C1718 1.399 . S
C1718 H1704 0.929 . S
C1718 C1717 1.399 . S
C1718 C1719 1.385 . S
C1719 H1705 0.931 . S
C1719 C1718 1.385 . S
C1719 C1720 1.389 . S
C1720 C1719 1.389 . S
C1720 C1721 1.387 . S
C1721 H1706 0.930 . S
C1721 C1716 1.390 . S
C1721 C1720 1.387 . S
H1722 C1734 0.930 . S
H1723 C1736 0.930 . S
H1724 C1737 0.930 . S
H1725 C1741 0.959 . S
H1726 C1741 0.959 . S
H1727 C1741 0.961 . S
H1728 C1742 0.960 . S
H1729 C1742 0.961 . S
H1730 C1742 0.959 . S
H1731 C1745 0.929 . S
H1732 C1746 0.931 . S
H1733 C1748 0.930 . S
C1734 H1722 0.930 . S
C1734 C1735 1.399 . S
C1734 C1739 1.399 . S
C1735 C1734 1.399 . S
C1735 C1736 1.376 . S
C1736 H1723 0.930 . S
C1736 C1735 1.376 . S
C1736 C1737 1.388 . S
C1737 H1724 0.930 . S
C1737 C1736 1.388 . S
C1737 C1738 1.390 . S
C1738 C1737 1.390 . S
C1738 C1739 1.394 . S
C1738 C1744 1.465 . S
C1739 C1734 1.399 . S
C1739 C1738 1.394 . S
C1739 C1740 1.516 . S
C1740 C1739 1.516 . S
C1740 C1741 1.502 . S
C1740 C1742 1.561 . S
C1740 C1743 1.526 . S
C1741 H1725 0.959 . S
C1741 H1726 0.959 . S
C1741 H1727 0.961 . S
C1741 C1740 1.502 . S
C1742 H1728 0.960 . S
C1742 H1729 0.961 . S
C1742 H1730 0.959 . S
C1742 C1740 1.561 . S
C1743 C1740 1.526 . S
C1743 C1744 1.396 . S
C1743 C1748 1.390 . S
C1744 C1738 1.465 . S
C1744 C1743 1.396 . S
C1744 C1745 1.399 . S
C1745 H1731 0.929 . S
C1745 C1744 1.399 . S
C1745 C1746 1.385 . S
C1746 H1732 0.931 . S
C1746 C1745 1.385 . S
C1746 C1747 1.389 . S
C1747 C1746 1.389 . S
C1747 C1748 1.387 . S
C1748 H1733 0.930 . S
C1748 C1743 1.390 . S
C1748 C1747 1.387 . S
H1749 C1761 0.930 . S
H1750 C1763 0.930 . S
H1751 C1764 0.930 . S
H1752 C1768 0.959 . S
H1753 C1768 0.959 . S
H1754 C1768 0.961 . S
H1755 C1769 0.960 . S
H1756 C1769 0.961 . S
H1757 C1769 0.959 . S
H1758 C1772 0.929 . S
H1759 C1773 0.931 . S
H1760 C1775 0.930 . S
C1761 H1749 0.930 . S
C1761 C1762 1.399 . S
C1761 C1766 1.399 . S
C1762 C1761 1.399 . S
C1762 C1763 1.376 . S
C1763 H1750 0.930 . S
C1763 C1762 1.376 . S
C1763 C1764 1.388 . S
C1764 H1751 0.930 . S
C1764 C1763 1.388 . S
C1764 C1765 1.390 . S
C1765 C1764 1.390 . S
C1765 C1766 1.394 . S
C1765 C1771 1.465 . S
C1766 C1761 1.399 . S
C1766 C1765 1.394 . S
C1766 C1767 1.516 . S
C1767 C1766 1.516 . S
C1767 C1768 1.502 . S
C1767 C1769 1.561 . S
C1767 C1770 1.526 . S
C1768 H1752 0.959 . S
C1768 H1753 0.959 . S
C1768 H1754 0.961 . S
C1768 C1767 1.502 . S
C1769 H1755 0.960 . S
C1769 H1756 0.961 . S
C1769 H1757 0.959 . S
C1769 C1767 1.561 . S
C1770 C1767 1.526 . S
C1770 C1771 1.396 . S
C1770 C1775 1.390 . S
C1771 C1765 1.465 . S
C1771 C1770 1.396 . S
C1771 C1772 1.399 . S
C1772 H1758 0.929 . S
C1772 C1771 1.399 . S
C1772 C1773 1.385 . S
C1773 H1759 0.931 . S
C1773 C1772 1.385 . S
C1773 C1774 1.389 . S
C1774 C1773 1.389 . S
C1774 C1775 1.387 . S
C1775 H1760 0.930 . S
C1775 C1770 1.390 . S
C1775 C1774 1.387 . S
H1776 C1788 0.930 . S
H1777 C1790 0.930 . S
H1778 C1791 0.930 . S
H1779 C1795 0.959 . S
H1780 C1795 0.959 . S
H1781 C1795 0.961 . S
H1782 C1796 0.960 . S
H1783 C1796 0.961 . S
H1784 C1796 0.959 . S
H1785 C1799 0.929 . S
H1786 C1800 0.931 . S
H1787 C1802 0.930 . S
C1788 H1776 0.930 . S
C1788 C1789 1.399 . S
C1788 C1793 1.399 . S
C1789 C1788 1.399 . S
C1789 C1790 1.376 . S
C1790 H1777 0.930 . S
C1790 C1789 1.376 . S
C1790 C1791 1.388 . S
C1791 H1778 0.930 . S
C1791 C1790 1.388 . S
C1791 C1792 1.390 . S
C1792 C1791 1.390 . S
C1792 C1793 1.394 . S
C1792 C1798 1.465 . S
C1793 C1788 1.399 . S
C1793 C1792 1.394 . S
C1793 C1794 1.516 . S
C1794 C1793 1.516 . S
C1794 C1795 1.502 . S
C1794 C1796 1.561 . S
C1794 C1797 1.526 . S
C1795 H1779 0.959 . S
C1795 H1780 0.959 . S
C1795 H1781 0.961 . S
C1795 C1794 1.502 . S
C1796 H1782 0.960 . S
C1796 H1783 0.961 . S
C1796 H1784 0.959 . S
C1796 C1794 1.561 . S
C1797 C1794 1.526 . S
C1797 C1798 1.396 . S
C1797 C1802 1.390 . S
C1798 C1792 1.465 . S
C1798 C1797 1.396 . S
C1798 C1799 1.399 . S
C1799 H1785 0.929 . S
C1799 C1798 1.399 . S
C1799 C1800 1.385 . S
C1800 H1786 0.931 . S
C1800 C1799 1.385 . S
C1800 C1801 1.389 . S
C1801 C1800 1.389 . S
C1801 C1802 1.387 . S
C1802 H1787 0.930 . S
C1802 C1797 1.390 . S
C1802 C1801 1.387 . S
H1803 C1815 0.930 . S
H1804 C1817 0.930 . S
H1805 C1818 0.930 . S
H1806 C1822 0.959 . S
H1807 C1822 0.959 . S
H1808 C1822 0.961 . S
H1809 C1823 0.960 . S
H1810 C1823 0.961 . S
H1811 C1823 0.959 . S
H1812 C1826 0.929 . S
H1813 C1827 0.931 . S
H1814 C1829 0.930 . S
C1815 H1803 0.930 . S
C1815 C1816 1.399 . S
C1815 C1820 1.399 . S
C1816 C1815 1.399 . S
C1816 C1817 1.376 . S
C1817 H1804 0.930 . S
C1817 C1816 1.376 . S
C1817 C1818 1.388 . S
C1818 H1805 0.930 . S
C1818 C1817 1.388 . S
C1818 C1819 1.390 . S
C1819 C1818 1.390 . S
C1819 C1820 1.394 . S
C1819 C1825 1.465 . S
C1820 C1815 1.399 . S
C1820 C1819 1.394 . S
C1820 C1821 1.516 . S
C1821 C1820 1.516 . S
C1821 C1822 1.502 . S
C1821 C1823 1.561 . S
C1821 C1824 1.526 . S
C1822 H1806 0.959 . S
C1822 H1807 0.959 . S
C1822 H1808 0.961 . S
C1822 C1821 1.502 . S
C1823 H1809 0.960 . S
C1823 H1810 0.961 . S
C1823 H1811 0.959 . S
C1823 C1821 1.561 . S
C1824 C1821 1.526 . S
C1824 C1825 1.396 . S
C1824 C1829 1.390 . S
C1825 C1819 1.465 . S
C1825 C1824 1.396 . S
C1825 C1826 1.399 . S
C1826 H1812 0.929 . S
C1826 C1825 1.399 . S
C1826 C1827 1.385 . S
C1827 H1813 0.931 . S
C1827 C1826 1.385 . S
C1827 C1828 1.389 . S
C1828 C1827 1.389 . S
C1828 C1829 1.387 . S
C1829 H1814 0.930 . S
C1829 C1824 1.390 . S
C1829 C1828 1.387 . S
H1830 C1842 0.930 . S
H1831 C1844 0.930 . S
H1832 C1845 0.930 . S
H1833 C1849 0.959 . S
H1834 C1849 0.959 . S
H1835 C1849 0.961 . S
H1836 C1850 0.960 . S
H1837 C1850 0.961 . S
H1838 C1850 0.959 . S
H1839 C1853 0.929 . S
H1840 C1854 0.931 . S
H1841 C1856 0.930 . S
C1842 H1830 0.930 . S
C1842 C1843 1.399 . S
C1842 C1847 1.399 . S
C1843 C1842 1.399 . S
C1843 C1844 1.376 . S
C1844 H1831 0.930 . S
C1844 C1843 1.376 . S
C1844 C1845 1.388 . S
C1845 H1832 0.930 . S
C1845 C1844 1.388 . S
C1845 C1846 1.390 . S
C1846 C1845 1.390 . S
C1846 C1847 1.394 . S
C1846 C1852 1.465 . S
C1847 C1842 1.399 . S
C1847 C1846 1.394 . S
C1847 C1848 1.516 . S
C1848 C1847 1.516 . S
C1848 C1849 1.502 . S
C1848 C1850 1.561 . S
C1848 C1851 1.526 . S
C1849 H1833 0.959 . S
C1849 H1834 0.959 . S
C1849 H1835 0.961 . S
C1849 C1848 1.502 . S
C1850 H1836 0.960 . S
C1850 H1837 0.961 . S
C1850 H1838 0.959 . S
C1850 C1848 1.561 . S
C1851 C1848 1.526 . S
C1851 C1852 1.396 . S
C1851 C1856 1.390 . S
C1852 C1846 1.465 . S
C1852 C1851 1.396 . S
C1852 C1853 1.399 . S
C1853 H1839 0.929 . S
C1853 C1852 1.399 . S
C1853 C1854 1.385 . S
C1854 H1840 0.931 . S
C1854 C1853 1.385 . S
C1854 C1855 1.389 . S
C1855 C1854 1.389 . S
C1855 C1856 1.387 . S
C1856 H1841 0.930 . S
C1856 C1851 1.390 . S
C1856 C1855 1.387 . S
H1857 C1869 0.930 . S
H1858 C1871 0.930 . S
H1859 C1872 0.930 . S
H1860 C1876 0.959 . S
H1861 C1876 0.959 . S
H1862 C1876 0.961 . S
H1863 C1877 0.960 . S
H1864 C1877 0.961 . S
H1865 C1877 0.959 . S
H1866 C1880 0.929 . S
H1867 C1881 0.931 . S
H1868 C1883 0.930 . S
C1869 H1857 0.930 . S
C1869 C1870 1.399 . S
C1869 C1874 1.399 . S
C1870 C1869 1.399 . S
C1870 C1871 1.376 . S
C1871 H1858 0.930 . S
C1871 C1870 1.376 . S
C1871 C1872 1.388 . S
C1872 H1859 0.930 . S
C1872 C1871 1.388 . S
C1872 C1873 1.390 . S
C1873 C1872 1.390 . S
C1873 C1874 1.394 . S
C1873 C1879 1.465 . S
C1874 C1869 1.399 . S
C1874 C1873 1.394 . S
C1874 C1875 1.516 . S
C1875 C1874 1.516 . S
C1875 C1876 1.502 . S
C1875 C1877 1.561 . S
C1875 C1878 1.526 . S
C1876 H1860 0.959 . S
C1876 H1861 0.959 . S
C1876 H1862 0.961 . S
C1876 C1875 1.502 . S
C1877 H1863 0.960 . S
C1877 H1864 0.961 . S
C1877 H1865 0.959 . S
C1877 C1875 1.561 . S
C1878 C1875 1.526 . S
C1878 C1879 1.396 . S
C1878 C1883 1.390 . S
C1879 C1873 1.465 . S
C1879 C1878 1.396 . S
C1879 C1880 1.399 . S
C1880 H1866 0.929 . S
C1880 C1879 1.399 . S
C1880 C1881 1.385 . S
C1881 H1867 0.931 . S
C1881 C1880 1.385 . S
C1881 C1882 1.389 . S
C1882 C1881 1.389 . S
C1882 C1883 1.387 . S
C1883 H1868 0.930 . S
C1883 C1878 1.390 . S
C1883 C1882 1.387 . S
H1884 C1896 0.930 . S
H1885 C1898 0.930 . S
H1886 C1899 0.930 . S
H1887 C1903 0.959 . S
H1888 C1903 0.959 . S
H1889 C1903 0.961 . S
H1890 C1904 0.960 . S
H1891 C1904 0.961 . S
H1892 C1904 0.959 . S
H1893 C1907 0.929 . S
H1894 C1908 0.931 . S
H1895 C1910 0.930 . S
C1896 H1884 0.930 . S
C1896 C1897 1.399 . S
C1896 C1901 1.399 . S
C1897 C1896 1.399 . S
C1897 C1898 1.376 . S
C1898 H1885 0.930 . S
C1898 C1897 1.376 . S
C1898 C1899 1.388 . S
C1899 H1886 0.930 . S
C1899 C1898 1.388 . S
C1899 C1900 1.390 . S
C1900 C1899 1.390 . S
C1900 C1901 1.394 . S
C1900 C1906 1.465 . S
C1901 C1896 1.399 . S
C1901 C1900 1.394 . S
C1901 C1902 1.516 . S
C1902 C1901 1.516 . S
C1902 C1903 1.502 . S
C1902 C1904 1.561 . S
C1902 C1905 1.526 . S
C1903 H1887 0.959 . S
C1903 H1888 0.959 . S
C1903 H1889 0.961 . S
C1903 C1902 1.502 . S
C1904 H1890 0.960 . S
C1904 H1891 0.961 . S
C1904 H1892 0.959 . S
C1904 C1902 1.561 . S
C1905 C1902 1.526 . S
C1905 C1906 1.396 . S
C1905 C1910 1.390 . S
C1906 C1900 1.465 . S
C1906 C1905 1.396 . S
C1906 C1907 1.399 . S
C1907 H1893 0.929 . S
C1907 C1906 1.399 . S
C1907 C1908 1.385 . S
C1908 H1894 0.931 . S
C1908 C1907 1.385 . S
C1908 C1909 1.389 . S
C1909 C1908 1.389 . S
C1909 C1910 1.387 . S
C1910 H1895 0.930 . S
C1910 C1905 1.390 . S
C1910 C1909 1.387 . S
H1911 C1923 0.930 . S
H1912 C1925 0.930 . S
H1913 C1926 0.930 . S
H1914 C1930 0.959 . S
H1915 C1930 0.959 . S
H1916 C1930 0.961 . S
H1917 C1931 0.960 . S
H1918 C1931 0.961 . S
H1919 C1931 0.959 . S
H1920 C1934 0.929 . S
H1921 C1935 0.931 . S
H1922 C1937 0.930 . S
C1923 H1911 0.930 . S
C1923 C1924 1.399 . S
C1923 C1928 1.399 . S
C1924 C1923 1.399 . S
C1924 C1925 1.376 . S
C1925 H1912 0.930 . S
C1925 C1924 1.376 . S
C1925 C1926 1.388 . S
C1926 H1913 0.930 . S
C1926 C1925 1.388 . S
C1926 C1927 1.390 . S
C1927 C1926 1.390 . S
C1927 C1928 1.394 . S
C1927 C1933 1.465 . S
C1928 C1923 1.399 . S
C1928 C1927 1.394 . S
C1928 C1929 1.516 . S
C1929 C1928 1.516 . S
C1929 C1930 1.502 . S
C1929 C1931 1.561 . S
C1929 C1932 1.526 . S
C1930 H1914 0.959 . S
C1930 H1915 0.959 . S
C1930 H1916 0.961 . S
C1930 C1929 1.502 . S
C1931 H1917 0.960 . S
C1931 H1918 0.961 . S
C1931 H1919 0.959 . S
C1931 C1929 1.561 . S
C1932 C1929 1.526 . S
C1932 C1933 1.396 . S
C1932 C1937 1.390 . S
C1933 C1927 1.465 . S
C1933 C1932 1.396 . S
C1933 C1934 1.399 . S
C1934 H1920 0.929 . S
C1934 C1933 1.399 . S
C1934 C1935 1.385 . S
C1935 H1921 0.931 . S
C1935 C1934 1.385 . S
C1935 C1936 1.389 . S
C1936 C1935 1.389 . S
C1936 C1937 1.387 . S
C1937 H1922 0.930 . S
C1937 C1932 1.390 . S
C1937 C1936 1.387 . S
H1938 C1950 0.930 . S
H1939 C1952 0.930 . S
H1940 C1953 0.930 . S
H1941 C1957 0.959 . S
H1942 C1957 0.959 . S
H1943 C1957 0.961 . S
H1944 C1958 0.960 . S
H1945 C1958 0.961 . S
H1946 C1958 0.959 . S
H1947 C1961 0.929 . S
H1948 C1962 0.931 . S
H1949 C1964 0.930 . S
C1950 H1938 0.930 . S
C1950 C1951 1.399 . S
C1950 C1955 1.399 . S
C1951 C1950 1.399 . S
C1951 C1952 1.376 . S
C1952 H1939 0.930 . S
C1952 C1951 1.376 . S
C1952 C1953 1.388 . S
C1953 H1940 0.930 . S
C1953 C1952 1.388 . S
C1953 C1954 1.390 . S
C1954 C1953 1.390 . S
C1954 C1955 1.394 . S
C1954 C1960 1.465 . S
C1955 C1950 1.399 . S
C1955 C1954 1.394 . S
C1955 C1956 1.516 . S
C1956 C1955 1.516 . S
C1956 C1957 1.502 . S
C1956 C1958 1.561 . S
C1956 C1959 1.526 . S
C1957 H1941 0.959 . S
C1957 H1942 0.959 . S
C1957 H1943 0.961 . S
C1957 C1956 1.502 . S
C1958 H1944 0.960 . S
C1958 H1945 0.961 . S
C1958 H1946 0.959 . S
C1958 C1956 1.561 . S
C1959 C1956 1.526 . S
C1959 C1960 1.396 . S
C1959 C1964 1.390 . S
C1960 C1954 1.465 . S
C1960 C1959 1.396 . S
C1960 C1961 1.399 . S
C1961 H1947 0.929 . S
C1961 C1960 1.399 . S
C1961 C1962 1.385 . S
C1962 H1948 0.931 . S
C1962 C1961 1.385 . S
C1962 C1963 1.389 . S
C1963 C1962 1.389 . S
C1963 C1964 1.387 . S
C1964 H1949 0.930 . S
C1964 C1959 1.390 . S
C1964 C1963 1.387 . S
H1965 C1977 0.930 . S
H1966 C1979 0.930 . S
H1967 C1980 0.930 . S
H1968 C1984 0.959 . S
H1969 C1984 0.959 . S
H1970 C1984 0.961 . S
H1971 C1985 0.960 . S
H1972 C1985 0.961 . S
H1973 C1985 0.959 . S
H1974 C1988 0.929 . S
H1975 C1989 0.931 . S
H1976 C1991 0.930 . S
C1977 H1965 0.930 . S
C1977 C1978 1.399 . S
C1977 C1982 1.399 . S
C1978 C1977 1.399 . S
C1978 C1979 1.376 . S
C1979 H1966 0.930 . S
C1979 C1978 1.376 . S
C1979 C1980 1.388 . S
C1980 H1967 0.930 . S
C1980 C1979 1.388 . S
C1980 C1981 1.390 . S
C1981 C1980 1.390 . S
C1981 C1982 1.394 . S
C1981 C1987 1.465 . S
C1982 C1977 1.399 . S
C1982 C1981 1.394 . S
C1982 C1983 1.516 . S
C1983 C1982 1.516 . S
C1983 C1984 1.502 . S
C1983 C1985 1.561 . S
C1983 C1986 1.526 . S
C1984 H1968 0.959 . S
C1984 H1969 0.959 . S
C1984 H1970 0.961 . S
C1984 C1983 1.502 . S
C1985 H1971 0.960 . S
C1985 H1972 0.961 . S
C1985 H1973 0.959 . S
C1985 C1983 1.561 . S
C1986 C1983 1.526 . S
C1986 C1987 1.396 . S
C1986 C1991 1.390 . S
C1987 C1981 1.465 . S
C1987 C1986 1.396 . S
C1987 C1988 1.399 . S
C1988 H1974 0.929 . S
C1988 C1987 1.399 . S
C1988 C1989 1.385 . S
C1989 H1975 0.931 . S
C1989 C1988 1.385 . S
C1989 C1990 1.389 . S
C1990 C1989 1.389 . S
C1990 C1991 1.387 . S
C1991 H1976 0.930 . S
C1991 C1986 1.390 . S
C1991 C1990 1.387 . S
H1992 C2004 0.930 . S
H1993 C2006 0.930 . S
H1994 C2007 0.930 . S
H1995 C2011 0.959 . S
H1996 C2011 0.959 . S
H1997 C2011 0.961 . S
H1998 C2012 0.960 . S
H1999 C2012 0.961 . S
H2000 C2012 0.959 . S
H2001 C2015 0.929 . S
H2002 C2016 0.931 . S
H2003 C2018 0.930 . S
C2004 H1992 0.930 . S
C2004 C2005 1.399 . S
C2004 C2009 1.399 . S
C2005 C2004 1.399 . S
C2005 C2006 1.376 . S
C2006 H1993 0.930 . S
C2006 C2005 1.376 . S
C2006 C2007 1.388 . S
C2007 H1994 0.930 . S
C2007 C2006 1.388 . S
C2007 C2008 1.390 . S
C2008 C2007 1.390 . S
C2008 C2009 1.394 . S
C2008 C2014 1.465 . S
C2009 C2004 1.399 . S
C2009 C2008 1.394 . S
C2009 C2010 1.516 . S
C2010 C2009 1.516 . S
C2010 C2011 1.502 . S
C2010 C2012 1.561 . S
C2010 C2013 1.526 . S
C2011 H1995 0.959 . S
C2011 H1996 0.959 . S
C2011 H1997 0.961 . S
C2011 C2010 1.502 . S
C2012 H1998 0.960 . S
C2012 H1999 0.961 . S
C2012 H2000 0.959 . S
C2012 C2010 1.561 . S
C2013 C2010 1.526 . S
C2013 C2014 1.396 . S
C2013 C2018 1.390 . S
C2014 C2008 1.465 . S
C2014 C2013 1.396 . S
C2014 C2015 1.399 . S
C2015 H2001 0.929 . S
C2015 C2014 1.399 . S
C2015 C2016 1.385 . S
C2016 H2002 0.931 . S
C2016 C2015 1.385 . S
C2016 C2017 1.389 . S
C2017 C2016 1.389 . S
C2017 C2018 1.387 . S
C2018 H2003 0.930 . S
C2018 C2013 1.390 . S
C2018 C2017 1.387 . S
H2019 C2031 0.930 . S
H2020 C2033 0.930 . S
H2021 C2034 0.930 . S
H2022 C2038 0.959 . S
H2023 C2038 0.959 . S
H2024 C2038 0.961 . S
H2025 C2039 0.960 . S
H2026 C2039 0.961 . S
H2027 C2039 0.959 . S
H2028 C2042 0.929 . S
H2029 C2043 0.931 . S
H2030 C2045 0.930 . S
C2031 H2019 0.930 . S
C2031 C2032 1.399 . S
C2031 C2036 1.399 . S
C2032 C2031 1.399 . S
C2032 C2033 1.376 . S
C2033 H2020 0.930 . S
C2033 C2032 1.376 . S
C2033 C2034 1.388 . S
C2034 H2021 0.930 . S
C2034 C2033 1.388 . S
C2034 C2035 1.390 . S
C2035 C2034 1.390 . S
C2035 C2036 1.394 . S
C2035 C2041 1.465 . S
C2036 C2031 1.399 . S
C2036 C2035 1.394 . S
C2036 C2037 1.516 . S
C2037 C2036 1.516 . S
C2037 C2038 1.502 . S
C2037 C2039 1.561 . S
C2037 C2040 1.526 . S
C2038 H2022 0.959 . S
C2038 H2023 0.959 . S
C2038 H2024 0.961 . S
C2038 C2037 1.502 . S
C2039 H2025 0.960 . S
C2039 H2026 0.961 . S
C2039 H2027 0.959 . S
C2039 C2037 1.561 . S
C2040 C2037 1.526 . S
C2040 C2041 1.396 . S
C2040 C2045 1.390 . S
C2041 C2035 1.465 . S
C2041 C2040 1.396 . S
C2041 C2042 1.399 . S
C2042 H2028 0.929 . S
C2042 C2041 1.399 . S
C2042 C2043 1.385 . S
C2043 H2029 0.931 . S
C2043 C2042 1.385 . S
C2043 C2044 1.389 . S
C2044 C2043 1.389 . S
C2044 C2045 1.387 . S
C2045 H2030 0.930 . S
C2045 C2040 1.390 . S
C2045 C2044 1.387 . S
H2046 C2058 0.930 . S
H2047 C2060 0.930 . S
H2048 C2061 0.930 . S
H2049 C2065 0.959 . S
H2050 C2065 0.959 . S
H2051 C2065 0.961 . S
H2052 C2066 0.960 . S
H2053 C2066 0.961 . S
H2054 C2066 0.959 . S
H2055 C2069 0.929 . S
H2056 C2070 0.931 . S
H2057 C2072 0.930 . S
C2058 H2046 0.930 . S
C2058 C2059 1.399 . S
C2058 C2063 1.399 . S
C2059 C2058 1.399 . S
C2059 C2060 1.376 . S
C2060 H2047 0.930 . S
C2060 C2059 1.376 . S
C2060 C2061 1.388 . S
C2061 H2048 0.930 . S
C2061 C2060 1.388 . S
C2061 C2062 1.390 . S
C2062 C2061 1.390 . S
C2062 C2063 1.394 . S
C2062 C2068 1.465 . S
C2063 C2058 1.399 . S
C2063 C2062 1.394 . S
C2063 C2064 1.516 . S
C2064 C2063 1.516 . S
C2064 C2065 1.502 . S
C2064 C2066 1.561 . S
C2064 C2067 1.526 . S
C2065 H2049 0.959 . S
C2065 H2050 0.959 . S
C2065 H2051 0.961 . S
C2065 C2064 1.502 . S
C2066 H2052 0.960 . S
C2066 H2053 0.961 . S
C2066 H2054 0.959 . S
C2066 C2064 1.561 . S
C2067 C2064 1.526 . S
C2067 C2068 1.396 . S
C2067 C2072 1.390 . S
C2068 C2062 1.465 . S
C2068 C2067 1.396 . S
C2068 C2069 1.399 . S
C2069 H2055 0.929 . S
C2069 C2068 1.399 . S
C2069 C2070 1.385 . S
C2070 H2056 0.931 . S
C2070 C2069 1.385 . S
C2070 C2071 1.389 . S
C2071 C2070 1.389 . S
C2071 C2072 1.387 . S
C2072 H2057 0.930 . S
C2072 C2067 1.390 . S
C2072 C2071 1.387 . S
H2073 C2085 0.930 . S
H2074 C2087 0.930 . S
H2075 C2088 0.930 . S
H2076 C2092 0.959 . S
H2077 C2092 0.959 . S
H2078 C2092 0.961 . S
H2079 C2093 0.960 . S
H2080 C2093 0.961 . S
H2081 C2093 0.959 . S
H2082 C2096 0.929 . S
H2083 C2097 0.931 . S
H2084 C2099 0.930 . S
C2085 H2073 0.930 . S
C2085 C2086 1.399 . S
C2085 C2090 1.399 . S
C2086 C2085 1.399 . S
C2086 C2087 1.376 . S
C2087 H2074 0.930 . S
C2087 C2086 1.376 . S
C2087 C2088 1.388 . S
C2088 H2075 0.930 . S
C2088 C2087 1.388 . S
C2088 C2089 1.390 . S
C2089 C2088 1.390 . S
C2089 C2090 1.394 . S
C2089 C2095 1.465 . S
C2090 C2085 1.399 . S
C2090 C2089 1.394 . S
C2090 C2091 1.516 . S
C2091 C2090 1.516 . S
C2091 C2092 1.502 . S
C2091 C2093 1.561 . S
C2091 C2094 1.526 . S
C2092 H2076 0.959 . S
C2092 H2077 0.959 . S
C2092 H2078 0.961 . S
C2092 C2091 1.502 . S
C2093 H2079 0.960 . S
C2093 H2080 0.961 . S
C2093 H2081 0.959 . S
C2093 C2091 1.561 . S
C2094 C2091 1.526 . S
C2094 C2095 1.396 . S
C2094 C2099 1.390 . S
C2095 C2089 1.465 . S
C2095 C2094 1.396 . S
C2095 C2096 1.399 . S
C2096 H2082 0.929 . S
C2096 C2095 1.399 . S
C2096 C2097 1.385 . S
C2097 H2083 0.931 . S
C2097 C2096 1.385 . S
C2097 C2098 1.389 . S
C2098 C2097 1.389 . S
C2098 C2099 1.387 . S
C2099 H2084 0.930 . S
C2099 C2094 1.390 . S
C2099 C2098 1.387 . S
H2100 C2112 0.930 . S
H2101 C2114 0.930 . S
H2102 C2115 0.930 . S
H2103 C2119 0.959 . S
H2104 C2119 0.959 . S
H2105 C2119 0.961 . S
H2106 C2120 0.960 . S
H2107 C2120 0.961 . S
H2108 C2120 0.959 . S
H2109 C2123 0.929 . S
H2110 C2124 0.931 . S
H2111 C2126 0.930 . S
C2112 H2100 0.930 . S
C2112 C2113 1.399 . S
C2112 C2117 1.399 . S
C2113 C2112 1.399 . S
C2113 C2114 1.376 . S
C2114 H2101 0.930 . S
C2114 C2113 1.376 . S
C2114 C2115 1.388 . S
C2115 H2102 0.930 . S
C2115 C2114 1.388 . S
C2115 C2116 1.390 . S
C2116 C2115 1.390 . S
C2116 C2117 1.394 . S
C2116 C2122 1.465 . S
C2117 C2112 1.399 . S
C2117 C2116 1.394 . S
C2117 C2118 1.516 . S
C2118 C2117 1.516 . S
C2118 C2119 1.502 . S
C2118 C2120 1.561 . S
C2118 C2121 1.526 . S
C2119 H2103 0.959 . S
C2119 H2104 0.959 . S
C2119 H2105 0.961 . S
C2119 C2118 1.502 . S
C2120 H2106 0.960 . S
C2120 H2107 0.961 . S
C2120 H2108 0.959 . S
C2120 C2118 1.561 . S
C2121 C2118 1.526 . S
C2121 C2122 1.396 . S
C2121 C2126 1.390 . S
C2122 C2116 1.465 . S
C2122 C2121 1.396 . S
C2122 C2123 1.399 . S
C2123 H2109 0.929 . S
C2123 C2122 1.399 . S
C2123 C2124 1.385 . S
C2124 H2110 0.931 . S
C2124 C2123 1.385 . S
C2124 C2125 1.389 . S
C2125 C2124 1.389 . S
C2125 C2126 1.387 . S
C2126 H2111 0.930 . S
C2126 C2121 1.390 . S
C2126 C2125 1.387 . S
H2127 C2139 0.930 . S
H2128 C2141 0.930 . S
H2129 C2142 0.930 . S
H2130 C2146 0.959 . S
H2131 C2146 0.959 . S
H2132 C2146 0.961 . S
H2133 C2147 0.960 . S
H2134 C2147 0.961 . S
H2135 C2147 0.959 . S
H2136 C2150 0.929 . S
H2137 C2151 0.931 . S
H2138 C2153 0.930 . S
C2139 H2127 0.930 . S
C2139 C2140 1.399 . S
C2139 C2144 1.399 . S
C2140 C2139 1.399 . S
C2140 C2141 1.376 . S
C2141 H2128 0.930 . S
C2141 C2140 1.376 . S
C2141 C2142 1.388 . S
C2142 H2129 0.930 . S
C2142 C2141 1.388 . S
C2142 C2143 1.390 . S
C2143 C2142 1.390 . S
C2143 C2144 1.394 . S
C2143 C2149 1.465 . S
C2144 C2139 1.399 . S
C2144 C2143 1.394 . S
C2144 C2145 1.516 . S
C2145 C2144 1.516 . S
C2145 C2146 1.502 . S
C2145 C2147 1.561 . S
C2145 C2148 1.526 . S
C2146 H2130 0.959 . S
C2146 H2131 0.959 . S
C2146 H2132 0.961 . S
C2146 C2145 1.502 . S
C2147 H2133 0.960 . S
C2147 H2134 0.961 . S
C2147 H2135 0.959 . S
C2147 C2145 1.561 . S
C2148 C2145 1.526 . S
C2148 C2149 1.396 . S
C2148 C2153 1.390 . S
C2149 C2143 1.465 . S
C2149 C2148 1.396 . S
C2149 C2150 1.399 . S
C2150 H2136 0.929 . S
C2150 C2149 1.399 . S
C2150 C2151 1.385 . S
C2151 H2137 0.931 . S
C2151 C2150 1.385 . S
C2151 C2152 1.389 . S
C2152 C2151 1.389 . S
C2152 C2153 1.387 . S
C2153 H2138 0.930 . S
C2153 C2148 1.390 . S
C2153 C2152 1.387 . S
C883 C683 1.671 . S
C871 C74 1.638 . S
C910 C673 1.392 . S
C898 C153 1.337 . S
C937 C674 1.224 . S
C925 C231 1.282 . S
C952 C310 0.793 . S
C964 C696 0.707 . S
C979 C394 1.371 . S
C991 C699 1.375 . S
C1018 C682 1.285 . S
C1006 C494 1.211 . S
C1033 C573 0.859 . S
C1045 C672 0.465 . S
C1060 C651 1.669 . S
C1072 C690 1.658 . S
C1099 C703 2.459 . S
C1087 C56 2.525 . S
C1114 C151 1.604 . S
C1126 C752 1.558 . S
C1153 C730 1.441 . S
C1141 C237 1.361 . S
C1180 C744 1.266 . S
C1168 C326 1.233 . S
C1195 C410 1.210 . S
C1207 C705 1.258 . S
C1234 C758 2.415 . S
C1222 C476 2.543 . S
C1249 C571 1.604 . S
C1261 C714 1.572 . S
C1276 C657 1.375 . S
C1288 C735 1.365 . S
C1303 C58 1.324 . S
C1315 C761 1.359 . S
C1330 C392 1.601 . S
C1342 C745 1.536 . S
C1369 C704 1.416 . S
C1357 C478 1.416 . S
C1396 C736 1.269 . S
C1384 C567 1.219 . S
C1411 C655 2.532 . S
C1423 C727 2.454 . S
C1438 C235 2.542 . S
C1450 C734 2.416 . S
C1477 C721 1.565 . S
C1465 C308 1.608 . S
C1492 C147 1.210 . S
C1504 C713 1.254 . S
C1519 C662 1.649 . S
C1531 C776 1.630 . S
C1546 C405 1.366 . S
C1558 C766 1.367 . S
C1585 C767 1.224 . S
C1573 C483 1.282 . S
C1612 C789 0.598 . S
C1600 C562 0.902 . S
C1627 C142 1.276 . S
C1639 C792 1.415 . S
C1666 C775 1.285 . S
C1654 C242 1.213 . S
C1681 C321 0.897 . S
C1693 C765 0.456 . S
C1708 C63 1.611 . S
C1720 C783 1.657 . S
C1735 C644 2.531 . S
C1747 C796 2.429 . S
C1774 C845 1.566 . S
C1762 C403 1.603 . S
C1789 C489 1.347 . S
C1801 C823 1.435 . S
C1816 C578 1.259 . S
C1828 C837 1.265 . S
C1855 C798 1.192 . S
C1843 C158 1.254 . S
C1870 C224 2.543 . S
C1882 C851 2.415 . S
C1909 C807 1.556 . S
C1897 C319 1.598 . S
C1936 C828 1.359 . S
C1924 C69 1.289 . S
C1963 C854 1.418 . S
C1951 C646 1.265 . S
C1978 C140 1.596 . S
C1990 C838 1.536 . S
C2005 C226 1.323 . S
C2017 C797 1.410 . S
C2044 C829 1.204 . S
C2032 C315 1.255 . S
C2059 C67 2.528 . S
C2071 C820 2.420 . S
C2086 C487 2.543 . S
C2098 C827 2.429 . S
C2125 C814 1.602 . S
C2113 C560 1.617 . S
C2152 C806 1.256 . S
C2140 C399 1.218 . S
