# Generated by pormake.
# Topology the, (3,8)-cn, num edge types: 1
# Building blocks:
#     Node 0, Type 0, BuildingBlock: WUSLED_clean_sbu_0, # of connection points: 3
#     Node 1, Type 0, BuildingBlock: WUSLED_clean_sbu_0, # of connection points: 3
#     Node 2, Type 0, BuildingBlock: WUSLED_clean_sbu_0, # of connection points: 3
#     Node 3, Type 0, BuildingBlock: WUSLED_clean_sbu_0, # of connection points: 3
#     Node 4, Type 0, BuildingBlock: WUSLED_clean_sbu_0, # of connection points: 3
#     Node 5, Type 0, BuildingBlock: WUSLED_clean_sbu_0, # of connection points: 3
#     Node 6, Type 0, BuildingBlock: WUSLED_clean_sbu_0, # of connection points: 3
#     Node 7, Type 0, BuildingBlock: WUSLED_clean_sbu_0, # of connection points: 3
#     Node 8, Type 1, BuildingBlock: GIZVER_clean_sbu_0, # of connection points: 8
#     Node 9, Type 1, BuildingBlock: GIZVER_clean_sbu_0, # of connection points: 8
#     Node 10, Type 1, BuildingBlock: GIZVER_clean_sbu_0, # of connection points: 8
#     Edge 11, Type (0, 1), BuildingBlock: KIFKEQ_clean_linker_1, # of connection points: 2
#     Edge 12, Type (0, 1), BuildingBlock: KIFKEQ_clean_linker_1, # of connection points: 2
#     Edge 13, Type (0, 1), BuildingBlock: KIFKEQ_clean_linker_1, # of connection points: 2
#     Edge 14, Type (0, 1), BuildingBlock: KIFKEQ_clean_linker_1, # of connection points: 2
#     Edge 15, Type (0, 1), BuildingBlock: KIFKEQ_clean_linker_1, # of connection points: 2
#     Edge 16, Type (0, 1), BuildingBlock: KIFKEQ_clean_linker_1, # of connection points: 2
#     Edge 17, Type (0, 1), BuildingBlock: KIFKEQ_clean_linker_1, # of connection points: 2
#     Edge 18, Type (0, 1), BuildingBlock: KIFKEQ_clean_linker_1, # of connection points: 2
#     Edge 19, Type (0, 1), BuildingBlock: KIFKEQ_clean_linker_1, # of connection points: 2
#     Edge 20, Type (0, 1), BuildingBlock: KIFKEQ_clean_linker_1, # of connection points: 2
#     Edge 21, Type (0, 1), BuildingBlock: KIFKEQ_clean_linker_1, # of connection points: 2
#     Edge 22, Type (0, 1), BuildingBlock: KIFKEQ_clean_linker_1, # of connection points: 2
#     Edge 23, Type (0, 1), BuildingBlock: KIFKEQ_clean_linker_1, # of connection points: 2
#     Edge 24, Type (0, 1), BuildingBlock: KIFKEQ_clean_linker_1, # of connection points: 2
#     Edge 25, Type (0, 1), BuildingBlock: KIFKEQ_clean_linker_1, # of connection points: 2
#     Edge 26, Type (0, 1), BuildingBlock: KIFKEQ_clean_linker_1, # of connection points: 2
#     Edge 27, Type (0, 1), BuildingBlock: KIFKEQ_clean_linker_1, # of connection points: 2
#     Edge 28, Type (0, 1), BuildingBlock: KIFKEQ_clean_linker_1, # of connection points: 2
#     Edge 29, Type (0, 1), BuildingBlock: KIFKEQ_clean_linker_1, # of connection points: 2
#     Edge 30, Type (0, 1), BuildingBlock: KIFKEQ_clean_linker_1, # of connection points: 2
#     Edge 31, Type (0, 1), BuildingBlock: KIFKEQ_clean_linker_1, # of connection points: 2
#     Edge 32, Type (0, 1), BuildingBlock: KIFKEQ_clean_linker_1, # of connection points: 2
#     Edge 33, Type (0, 1), BuildingBlock: KIFKEQ_clean_linker_1, # of connection points: 2
#     Edge 34, Type (0, 1), BuildingBlock: KIFKEQ_clean_linker_1, # of connection points: 2
# Relax obj value: 0.043
# Max RMSD: 0.139
# Mean RMSD: 0.062
data_MOF--net-the--node1-WUSLED_clean_sbu_0--node2-GIZVER_clean_sbu_0--edge1-KIFKEQ_clean_linker_1
_symmetry_space_group_name_H-M    P1
_symmetry_Int_Tables_number       1
_symmetry_cell_setting            triclinic
loop_
_symmetry_equiv_pos_as_xyz
'x, y, z'
_cell_length_a     52.761553
_cell_length_b     49.985961
_cell_length_c     46.367648
_cell_angle_alpha  86.715115
_cell_angle_beta   94.067696
_cell_angle_gamma 101.36908
loop_
_atom_site_label
_atom_site_type_symbol
_atom_site_fract_x
_atom_site_fract_y
_atom_site_fract_z
_atom_type_partial_charge
C0 C 0.35212 0.29149 0.46019 0.0
C1 C 0.3697 0.2854 0.44145 0.0
C2 C 0.3785 0.24832 0.47454 0.0
C3 C 0.38271 0.26397 0.4485 0.0
C4 C 0.36087 0.25458 0.49331 0.0
C5 C 0.34778 0.27605 0.48616 0.0
U6 U 0.34311 0.35134 0.4102 0.0
O7 O 0.30818 0.36433 0.39063 0.0
O8 O 0.33524 0.39164 0.41924 0.0
C9 C 0.31235 0.38673 0.40524 0.0
C10 C 0.33845 0.31396 0.45252 0.0
C11 C 0.29056 0.39122 0.4213 0.0
C12 C 0.24922 0.3744 0.44242 0.0
C13 C 0.27033 0.36952 0.42844 0.0
C14 C 0.26875 0.42249 0.44358 0.0
C15 C 0.24812 0.40096 0.44987 0.0
C16 C 0.28974 0.41765 0.42928 0.0
C17 C 0.38552 0.36852 0.34609 0.0
C18 C 0.38344 0.40788 0.31337 0.0
C19 C 0.407 0.37352 0.30104 0.0
C20 C 0.40063 0.35889 0.32693 0.0
C21 C 0.39835 0.39809 0.29388 0.0
C22 C 0.37696 0.39312 0.33925 0.0
C23 C 0.37801 0.35213 0.37247 0.0
O24 O 0.3527 0.33852 0.45517 0.0
O25 O 0.32408 0.31137 0.42812 0.0
O26 O 0.35489 0.33646 0.37051 0.0
O27 O 0.38292 0.36502 0.39679 0.0
H28 H 0.37323 0.29716 0.42126 0.0
H29 H 0.39579 0.25941 0.43332 0.0
H30 H 0.3574 0.24308 0.51364 0.0
H31 H 0.33431 0.28061 0.50088 0.0
H32 H 0.23364 0.35744 0.44724 0.0
H33 H 0.27062 0.34883 0.42288 0.0
H34 H 0.26824 0.44321 0.44885 0.0
H35 H 0.30517 0.43464 0.42405 0.0
H36 H 0.37634 0.42662 0.30833 0.0
H37 H 0.41882 0.36565 0.28667 0.0
H38 H 0.40733 0.3399 0.33189 0.0
H39 H 0.36505 0.40071 0.35376 0.0
C40 C 0.66998 0.35777 0.26737 0.0
C41 C 0.65946 0.38111 0.27077 0.0
C42 C 0.64741 0.38399 0.21899 0.0
C43 C 0.64839 0.39408 0.24687 0.0
C44 C 0.65863 0.36115 0.21554 0.0
C45 C 0.66966 0.34817 0.23942 0.0
U46 U 0.7166 0.34169 0.33258 0.0
O47 O 0.7062 0.32378 0.3757 0.0
O48 O 0.72588 0.30192 0.34733 0.0
C49 C 0.71389 0.30093 0.37141 0.0
C50 C 0.67839 0.34142 0.29279 0.0
C51 C 0.69564 0.27519 0.37879 0.0
C52 C 0.67498 0.22817 0.36913 0.0
C53 C 0.6911 0.25277 0.36081 0.0
C54 C 0.66735 0.24794 0.41336 0.0
C55 C 0.66302 0.22534 0.39563 0.0
C56 C 0.68353 0.27247 0.4051 0.0
C57 C 0.78131 0.39039 0.35122 0.0
C58 C 0.81442 0.38016 0.38716 0.0
C59 C 0.81855 0.42554 0.36449 0.0
C60 C 0.79523 0.41723 0.34821 0.0
C61 C 0.82853 0.40714 0.38419 0.0
C62 C 0.79102 0.37187 0.37083 0.0
C63 C 0.75683 0.3823 0.33362 0.0
O64 O 0.69818 0.3296 0.28988 0.0
O65 O 0.67856 0.35129 0.31851 0.0
O66 O 0.73549 0.38267 0.34647 0.0
O67 O 0.75511 0.36075 0.31809 0.0
H68 H 0.65901 0.3889 0.292 0.0
H69 H 0.63968 0.41139 0.25047 0.0
H70 H 0.65858 0.35301 0.19438 0.0
H71 H 0.67732 0.33008 0.23608 0.0
H72 H 0.67238 0.21116 0.35506 0.0
H73 H 0.70025 0.25403 0.34047 0.0
H74 H 0.65818 0.24676 0.43368 0.0
H75 H 0.68676 0.28931 0.41949 0.0
H76 H 0.82156 0.36536 0.4019 0.0
H77 H 0.82851 0.44658 0.36198 0.0
H78 H 0.788 0.43186 0.33329 0.0
H79 H 0.78054 0.35103 0.37347 0.0
C80 C 0.66951 0.70712 0.28468 0.0
C81 C 0.68518 0.6937 0.26963 0.0
C82 C 0.64797 0.67446 0.2378 0.0
C83 C 0.67452 0.67761 0.24629 0.0
C84 C 0.63251 0.68823 0.25283 0.0
C85 C 0.64319 0.70438 0.27597 0.0
U86 U 0.7195 0.72723 0.34809 0.0
O87 O 0.73596 0.76794 0.36454 0.0
O88 O 0.71336 0.73659 0.39252 0.0
C89 C 0.72513 0.76224 0.38939 0.0
C90 C 0.67991 0.72366 0.30976 0.0
C91 C 0.71121 0.78273 0.39888 0.0
C92 C 0.67166 0.80019 0.40209 0.0
C93 C 0.68457 0.78086 0.39221 0.0
C94 C 0.7119 0.8237 0.42507 0.0
C95 C 0.68514 0.82189 0.41869 0.0
C96 C 0.72476 0.80431 0.41528 0.0
C97 C 0.77698 0.6897 0.36126 0.0
C98 C 0.8013 0.68028 0.40609 0.0
C99 C 0.81853 0.67585 0.35995 0.0
C100 C 0.79685 0.68387 0.3456 0.0
C101 C 0.82078 0.67334 0.39037 0.0
C102 C 0.77959 0.68839 0.39167 0.0
C103 C 0.75323 0.69534 0.34529 0.0
O104 O 0.67876 0.71041 0.33509 0.0
O105 O 0.70197 0.74088 0.30672 0.0
O106 O 0.7552 0.71917 0.33121 0.0
O107 O 0.73154 0.688 0.35855 0.0
H108 H 0.70556 0.69545 0.27611 0.0
H109 H 0.68689 0.66707 0.23538 0.0
H110 H 0.61209 0.68655 0.24666 0.0
H111 H 0.63079 0.71461 0.28725 0.0
H112 H 0.65101 0.79787 0.39705 0.0
H113 H 0.67373 0.76435 0.37957 0.0
H114 H 0.72301 0.84029 0.43739 0.0
H115 H 0.74535 0.80615 0.42057 0.0
H116 H 0.8023 0.6784 0.42951 0.0
H117 H 0.83335 0.67116 0.34716 0.0
H118 H 0.7953 0.68487 0.32215 0.0
H119 H 0.76455 0.6929 0.40428 0.0
C120 C 0.26559 0.65666 0.35672 0.0
C121 C 0.25913 0.66909 0.38085 0.0
C122 C 0.21677 0.6385 0.38027 0.0
C123 C 0.23493 0.66005 0.39256 0.0
C124 C 0.2234 0.62642 0.3559 0.0
C125 C 0.24752 0.63542 0.34429 0.0
U126 U 0.33191 0.70479 0.34768 0.0
O127 O 0.36999 0.69366 0.34437 0.0
O128 O 0.35307 0.71584 0.30814 0.0
C129 C 0.3716 0.70266 0.31722 0.0
C130 C 0.29118 0.66483 0.3445 0.0
C131 C 0.3788 0.68388 0.2969 0.0
C132 C 0.37192 0.65995 0.25171 0.0
C133 C 0.36391 0.67671 0.27109 0.0
C134 C 0.40957 0.65681 0.28373 0.0
C135 C 0.39491 0.64983 0.25775 0.0
C136 C 0.40166 0.67368 0.30297 0.0
C137 C 0.34907 0.77133 0.39047 0.0
C138 C 0.39115 0.80173 0.39599 0.0
C139 C 0.3538 0.81331 0.41614 0.0
C140 C 0.33832 0.78944 0.40559 0.0
C141 C 0.38049 0.81966 0.41181 0.0
C142 C 0.37557 0.77773 0.38546 0.0
C143 C 0.33225 0.74565 0.38121 0.0
O144 O 0.29421 0.68642 0.32661 0.0
O145 O 0.31137 0.66428 0.36268 0.0
O146 O 0.33978 0.7229 0.39033 0.0
O147 O 0.32305 0.74528 0.35411 0.0
H148 H 0.27283 0.68559 0.39073 0.0
H149 H 0.23042 0.67001 0.41115 0.0
H150 H 0.21019 0.60951 0.34613 0.0
H151 H 0.2522 0.6255 0.32574 0.0
H152 H 0.36004 0.65479 0.23205 0.0
H153 H 0.34615 0.68416 0.26574 0.0
H154 H 0.42756 0.64975 0.28892 0.0
H155 H 0.41362 0.67905 0.32255 0.0
H156 H 0.41165 0.80585 0.39246 0.0
H157 H 0.34483 0.82678 0.42779 0.0
H158 H 0.31789 0.78493 0.40959 0.0
H159 H 0.38425 0.76399 0.37384 0.0
C160 C 0.28158 0.66076 0.71357 0.0
C161 C 0.28108 0.66066 0.68323 0.0
C162 C 0.23424 0.64386 0.68066 0.0
C163 C 0.25771 0.65223 0.66699 0.0
C164 C 0.23481 0.64456 0.71103 0.0
C165 C 0.2582 0.65283 0.72725 0.0
U166 U 0.34723 0.70759 0.73262 0.0
O167 O 0.36592 0.7195 0.77525 0.0
O168 O 0.38497 0.69722 0.74661 0.0
C169 C 0.38539 0.70719 0.77232 0.0
C170 C 0.30616 0.66804 0.73146 0.0
C171 C 0.39352 0.69064 0.79772 0.0
C172 C 0.41523 0.6544 0.81815 0.0
C173 C 0.40439 0.66755 0.79424 0.0
C174 C 0.40408 0.68665 0.84968 0.0
C175 C 0.41564 0.66407 0.84615 0.0
C176 C 0.39326 0.69981 0.82579 0.0
C177 C 0.36876 0.77381 0.68588 0.0
C178 C 0.38826 0.82149 0.69384 0.0
C179 C 0.39766 0.80018 0.65134 0.0
C180 C 0.38168 0.77573 0.66016 0.0
C181 C 0.40097 0.8235 0.6679 0.0
C182 C 0.37232 0.79697 0.70272 0.0
C183 C 0.3504 0.74825 0.69362 0.0
O184 O 0.32761 0.6668 0.7192 0.0
O185 O 0.30839 0.68952 0.74722 0.0
O186 O 0.33863 0.74762 0.7178 0.0
O187 O 0.35775 0.72519 0.68941 0.0
H188 H 0.29878 0.66669 0.67201 0.0
H189 H 0.25821 0.65163 0.64374 0.0
H190 H 0.21717 0.63873 0.72235 0.0
H191 H 0.25806 0.65279 0.75061 0.0
H192 H 0.42424 0.63731 0.81449 0.0
H193 H 0.4053 0.66011 0.77293 0.0
H194 H 0.40371 0.69446 0.87093 0.0
H195 H 0.38534 0.71771 0.82921 0.0
H196 H 0.39006 0.83906 0.70698 0.0
H197 H 0.40744 0.80078 0.63149 0.0
H198 H 0.37918 0.75834 0.6466 0.0
H199 H 0.36248 0.79637 0.72252 0.0
C200 C 0.28649 0.3366 0.65959 0.0
C201 C 0.27219 0.34743 0.67886 0.0
C202 C 0.24607 0.36348 0.63837 0.0
C203 C 0.2521 0.36067 0.66835 0.0
C204 C 0.26056 0.35265 0.61923 0.0
C205 C 0.28052 0.33934 0.62976 0.0
U206 U 0.34248 0.32371 0.71341 0.0
O207 O 0.35334 0.28461 0.72845 0.0
O208 O 0.38041 0.31529 0.70427 0.0
C209 C 0.37532 0.29024 0.71562 0.0
C210 C 0.30754 0.32221 0.66987 0.0
C211 C 0.38068 0.26867 0.69782 0.0
C212 C 0.38061 0.24833 0.65132 0.0
C213 C 0.37415 0.26832 0.66793 0.0
C214 C 0.39951 0.22839 0.69442 0.0
C215 C 0.39356 0.22821 0.66435 0.0
C216 C 0.39316 0.24842 0.71094 0.0
C217 C 0.36071 0.36751 0.78055 0.0
C218 C 0.40179 0.37415 0.80911 0.0
C219 C 0.36585 0.39164 0.82536 0.0
C220 C 0.35048 0.38119 0.80116 0.0
C221 C 0.39186 0.38869 0.82942 0.0
C222 C 0.38636 0.36363 0.78493 0.0
C223 C 0.34475 0.35897 0.75398 0.0
O224 O 0.33116 0.33667 0.66891 0.0
O225 O 0.30393 0.30669 0.69368 0.0
O226 O 0.3301 0.33445 0.75503 0.0
O227 O 0.35631 0.36484 0.72956 0.0
H228 H 0.27658 0.34571 0.702 0.0
H229 H 0.24156 0.36908 0.68366 0.0
H230 H 0.25628 0.35417 0.59607 0.0
H231 H 0.29128 0.33107 0.61454 0.0
H232 H 0.37548 0.24864 0.62829 0.0
H233 H 0.36433 0.28367 0.65738 0.0
H234 H 0.40979 0.2135 0.70514 0.0
H235 H 0.39839 0.24834 0.73396 0.0
H236 H 0.42162 0.37115 0.81173 0.0
H237 H 0.35761 0.40297 0.84028 0.0
H238 H 0.33074 0.38445 0.79814 0.0
H239 H 0.39461 0.35299 0.76936 0.0
C240 C 0.68083 0.27834 0.69672 0.0
C241 C 0.67698 0.27913 0.66638 0.0
C242 C 0.66069 0.22981 0.66704 0.0
C243 C 0.667 0.25518 0.65175 0.0
C244 C 0.66504 0.22906 0.69737 0.0
C245 C 0.67488 0.25303 0.71199 0.0
U246 U 0.73016 0.34383 0.71588 0.0
O247 O 0.72387 0.38485 0.7241 0.0
O248 O 0.74195 0.36151 0.75845 0.0
C249 C 0.73243 0.38356 0.75139 0.0
C250 C 0.68969 0.30361 0.71296 0.0
C251 C 0.7166 0.39227 0.77292 0.0
C252 C 0.67606 0.40228 0.78733 0.0
C253 C 0.69003 0.39202 0.76734 0.0
C254 C 0.71481 0.41257 0.81907 0.0
C255 C 0.68831 0.41294 0.81339 0.0
C256 C 0.72876 0.40242 0.79904 0.0
C257 C 0.79407 0.3609 0.67702 0.0
C258 C 0.82844 0.40022 0.68639 0.0
C259 C 0.8328 0.36898 0.64983 0.0
C260 C 0.80855 0.35331 0.65577 0.0
C261 C 0.84313 0.39263 0.66508 0.0
C262 C 0.80413 0.38447 0.69233 0.0
C263 C 0.76866 0.34383 0.68278 0.0
O264 O 0.70946 0.30359 0.73188 0.0
O265 O 0.6908 0.32704 0.69819 0.0
O266 O 0.74834 0.35448 0.67437 0.0
O267 O 0.76681 0.33133 0.70848 0.0
H268 H 0.68125 0.29828 0.65389 0.0
H269 H 0.66359 0.25675 0.62847 0.0
H270 H 0.66081 0.20994 0.70991 0.0
H271 H 0.67759 0.25182 0.73538 0.0
H272 H 0.65578 0.40248 0.78199 0.0
H273 H 0.68013 0.38434 0.74734 0.0
H274 H 0.72484 0.42012 0.83905 0.0
H275 H 0.74923 0.40282 0.80383 0.0
H276 H 0.83587 0.41816 0.69872 0.0
H277 H 0.84327 0.36275 0.63295 0.0
H278 H 0.80105 0.33524 0.64365 0.0
H279 H 0.79322 0.39062 0.70888 0.0
C280 C 0.71192 0.75978 0.60469 0.0
C281 C 0.6939 0.76632 0.62256 0.0
C282 C 0.68557 0.80251 0.58795 0.0
C283 C 0.68091 0.78754 0.61433 0.0
C284 C 0.70368 0.79584 0.57009 0.0
C285 C 0.71676 0.77458 0.57842 0.0
U286 U 0.71964 0.69988 0.6556 0.0
O287 O 0.72786 0.65965 0.64699 0.0
O288 O 0.7542 0.68691 0.67629 0.0
C289 C 0.75041 0.66453 0.66169 0.0
C290 C 0.72544 0.73738 0.6134 0.0
C291 C 0.77261 0.65994 0.64639 0.0
C292 C 0.81467 0.67641 0.62679 0.0
C293 C 0.79343 0.6814 0.64047 0.0
C294 C 0.7942 0.62871 0.62373 0.0
C295 C 0.81532 0.65 0.61847 0.0
C296 C 0.77308 0.63364 0.63772 0.0
C297 C 0.67532 0.68098 0.7175 0.0
C298 C 0.6812 0.64441 0.75262 0.0
C299 C 0.64697 0.66964 0.75715 0.0
C300 C 0.65445 0.68552 0.73228 0.0
C301 C 0.66028 0.64892 0.76765 0.0
C302 C 0.68864 0.66031 0.72771 0.0
C303 C 0.68336 0.69823 0.69183 0.0
O304 O 0.73889 0.74006 0.6384 0.0
O305 O 0.71142 0.71278 0.61031 0.0
O306 O 0.67931 0.68586 0.66718 0.0
O307 O 0.70633 0.71408 0.6948 0.0
H308 H 0.68997 0.75504 0.64294 0.0
H309 H 0.66744 0.79245 0.62884 0.0
H310 H 0.70752 0.80681 0.54954 0.0
H311 H 0.73057 0.76965 0.56435 0.0
H312 H 0.83064 0.6932 0.62276 0.0
H313 H 0.79346 0.70199 0.6466 0.0
H314 H 0.79435 0.6081 0.61778 0.0
H315 H 0.7572 0.61684 0.64203 0.0
H316 H 0.69167 0.62846 0.75998 0.0
H317 H 0.63104 0.67392 0.76845 0.0
H318 H 0.64407 0.7015 0.72473 0.0
H319 H 0.70483 0.65656 0.71646 0.0
Co320 Co 0.08494 0.49716 0.54939 0.0
Co321 Co 0.05699 0.48486 0.50044 0.0
Co322 Co 0.03134 0.52499 0.53295 0.0
O323 O 0.04858 0.49263 0.53742 0.0
H324 H 0.03805 0.47686 0.54663 0.0
O325 O 1.01419 0.55747 0.52839 0.0
Co326 Co 0.97819 0.55277 0.51511 0.0
Co327 Co 1.00451 0.56533 0.56458 0.0
H328 H 1.02489 0.57325 0.51945 0.0
O329 O 0.06689 0.452 0.49282 0.0
O330 O 0.09233 0.48987 0.50984 0.0
O331 O 0.05392 0.51174 0.46932 0.0
O332 O 0.05376 0.54342 0.50081 0.0
O333 O 1.00502 0.50465 0.50417 0.0
O334 O 0.94577 0.55124 0.50173 0.0
O335 O 0.97839 0.58784 0.50183 0.0
O336 O 0.97311 0.51548 0.52601 0.0
O337 O 1.00899 0.50654 0.56512 0.0
O338 O 1.00591 0.53817 0.59572 0.0
O339 O 0.96946 0.56123 0.5537 0.0
O340 O 0.99524 0.59865 0.57136 0.0
C341 C 0.10951 0.47229 0.56667 0.0
C342 C 0.08174 0.54932 0.55753 0.0
C343 C 0.05906 0.53653 0.4761 0.0
C344 C 0.0898 0.46554 0.50024 0.0
C345 C 0.95424 0.57689 0.495 0.0
C346 C 0.98089 0.50068 0.50853 0.0
C347 C 1.00223 0.51333 0.58923 0.0
C348 C 0.97232 0.58567 0.5631 0.0
O349 O 0.11779 0.49823 0.5612 0.0
O350 O 0.08502 0.46179 0.56113 0.0
O351 O 0.0576 0.54518 0.56176 0.0
O352 O 0.08982 0.53487 0.53989 0.0
Co353 Co 0.5585 0.97165 0.51364 0.0
Co354 Co 0.57103 0.9922 0.56497 0.0
Co355 Co 0.53099 0.02448 0.53023 0.0
O356 O 0.56198 1.00725 0.52868 0.0
H357 H 0.57667 0.01995 0.52148 0.0
O358 O 0.5001 0.04194 0.53185 0.0
Co359 Co 0.50432 0.07816 0.546 0.0
Co360 Co 0.49112 0.05651 0.49517 0.0
H361 H 0.48543 0.02951 0.53946 0.0
O362 O 0.60376 0.98337 0.57387 0.0
O363 O 0.56896 0.9573 0.55218 0.0
O364 O 0.54575 0.98787 0.59363 0.0
O365 O 0.51493 0.99843 0.56223 0.0
O366 O 0.55148 0.05024 0.55917 0.0
O367 O 0.50548 0.11066 0.55992 0.0
O368 O 0.47164 0.07536 0.55785 0.0
O369 O 0.53919 0.08588 0.53656 0.0
O370 O 0.54708 0.05044 0.49819 0.0
O371 O 0.51631 0.0603 0.46636 0.0
O372 O 0.49372 0.09174 0.50721 0.0
O373 O 0.45855 0.06571 0.48616 0.0
C374 C 0.582 0.95068 0.49418 0.0
C375 C 0.50715 0.97281 0.50628 0.0
C376 C 0.52204 0.98726 0.58622 0.0
C377 C 0.59266 0.9603 0.56306 0.0
C378 C 0.48153 0.10037 0.56505 0.0
C379 C 0.5549 0.07606 0.55412 0.0
C380 C 0.54004 0.06127 0.474 0.0
C381 C 0.47 0.0889 0.49645 0.0
O382 O 0.55806 0.93973 0.49864 0.0
O383 O 0.5914 0.97547 0.50236 0.0
O384 O 0.51036 0.99865 0.50134 0.0
O385 O 0.52355 0.96288 0.52274 0.0
Co386 Co 0.50295 0.53445 0.09343 0.0
Co387 Co 0.48908 0.48686 0.07052 0.0
Co388 Co 0.53168 0.52413 0.03264 0.0
O389 O 0.49981 0.52197 0.05458 0.0
H390 H 0.48584 0.52784 0.04289 0.0
O391 O 0.56363 0.52646 1.01081 0.0
Co392 Co 0.56098 0.51288 0.9726 0.0
Co393 Co 0.57439 0.56125 0.99391 0.0
H394 H 0.57767 0.52104 0.02279 0.0
O395 O 0.45568 0.47452 0.08272 0.0
O396 O 0.4902 0.49683 0.10865 0.0
O397 O 0.51297 0.4622 0.0706 0.0
O398 O 0.54575 0.4951 0.058 0.0
O399 O 0.51116 0.49562 1.0064 0.0
O400 O 0.56119 0.49928 0.93807 0.0
O401 O 0.5934 0.50552 0.97297 0.0
O402 O 0.52667 0.51806 0.96733 0.0
O403 O 0.51762 0.55309 1.00716 0.0
O404 O 0.55027 0.58564 0.99328 0.0
O405 O 0.57293 0.55013 0.95614 0.0
O406 O 0.60762 0.57372 0.98057 0.0
C407 C 0.48019 0.55017 0.11988 0.0
C408 C 0.55369 0.54759 0.08639 0.0
C409 C 0.53708 0.47135 0.06927 0.0
C410 C 0.46637 0.48355 0.10727 0.0
C411 C 0.58453 0.49691 0.9474 0.0
C412 C 0.50957 0.5001 0.97899 0.0
C413 C 0.5262 0.57661 0.99526 0.0
C414 C 0.59656 0.56384 0.95654 0.0
O415 O 0.50341 0.54689 0.12856 0.0
O416 O 0.47083 0.54261 0.09408 0.0
O417 O 0.55202 0.55255 0.05904 0.0
O418 O 0.53711 0.5287 0.09759 0.0
H419 H 0.198 0.38373 0.43084 0.0
H420 H 0.24565 0.43107 0.49667 0.0
H421 H 0.1597 0.39678 0.44754 0.0
H422 H 0.2071 0.44353 0.51424 0.0
H423 H 0.14029 0.49158 0.50455 0.0
H424 H 0.17839 0.47298 0.49718 0.0
H425 H 0.13003 0.39352 0.48443 0.0
H426 H 0.09171 0.41246 0.49093 0.0
C427 C 0.20015 0.39642 0.44937 0.0
C428 C 0.22476 0.40656 0.46235 0.0
C429 C 0.17818 0.40382 0.45907 0.0
C430 C 0.18029 0.42133 0.48217 0.0
C431 C 0.20485 0.43045 0.49603 0.0
C432 C 0.22689 0.42328 0.48607 0.0
C433 C 0.13778 0.47009 0.50034 0.0
C434 C 0.11296 0.45358 0.49782 0.0
C435 C 0.15969 0.45934 0.49639 0.0
C436 C 0.1573 0.43177 0.48998 0.0
C437 C 0.13252 0.41497 0.48876 0.0
C438 C 0.11056 0.4258 0.49251 0.0
H439 H 0.65999 0.20114 0.45022 0.0
H440 H 0.62836 0.1894 0.36232 0.0
H441 H 0.63173 0.15918 0.46602 0.0
H442 H 0.60094 0.14658 0.37794 0.0
H443 H 0.53242 0.09327 0.42525 0.0
H444 H 0.56331 0.13094 0.40477 0.0
H445 H 0.62369 0.11049 0.46489 0.0
H446 H 0.59262 0.07322 0.48598 0.0
C447 C 0.64705 0.1896 0.4342 0.0
C448 C 0.64638 0.19891 0.40499 0.0
C449 C 0.63109 0.16521 0.44322 0.0
C450 C 0.61404 0.1493 0.42328 0.0
C451 C 0.61364 0.15837 0.39397 0.0
C452 C 0.62959 0.18284 0.38495 0.0
C453 C 0.5524 0.0964 0.4338 0.0
C454 C 0.55989 0.08023 0.45751 0.0
C455 C 0.57018 0.11808 0.42194 0.0
C456 C 0.59599 0.12412 0.43341 0.0
C457 C 0.60385 0.10687 0.45592 0.0
C458 C 0.58606 0.08523 0.46783 0.0
H459 H 0.84081 0.63057 0.37418 0.0
H460 H 0.84943 0.68932 0.44074 0.0
H461 H 0.87452 0.6097 0.39928 0.0
H462 H 0.88299 0.66775 0.4664 0.0
H463 H 0.96 0.6329 0.48673 0.0
H464 H 0.92887 0.65831 0.46154 0.0
H465 H 0.87601 0.58226 0.44545 0.0
H466 H 0.90666 0.55716 0.47013 0.0
C467 C 0.85011 0.63929 0.39401 0.0
C468 C 0.84238 0.66169 0.40539 0.0
C469 C 0.86928 0.62711 0.40856 0.0
C470 C 0.8813 0.63695 0.43493 0.0
C471 C 0.87416 0.6598 0.44605 0.0
C472 C 0.85478 0.67196 0.4315 0.0
C473 C 0.94175 0.62171 0.47769 0.0
C474 C 0.93594 0.59301 0.4802 0.0
C475 C 0.92389 0.63623 0.46347 0.0
C476 C 0.90011 0.62225 0.45123 0.0
C477 C 0.89431 0.59363 0.45418 0.0
C478 C 0.9119 0.57924 0.46851 0.0
H479 H 0.37865 0.83867 0.46563 0.0
H480 H 0.42013 0.85646 0.38762 0.0
H481 H 0.40616 0.87811 0.48767 0.0
H482 H 0.44815 0.89578 0.41007 0.0
H483 H 0.48087 0.97791 0.45331 0.0
H484 H 0.44845 0.94244 0.42943 0.0
H485 H 0.45198 0.88861 0.50523 0.0
H486 H 0.48403 0.92366 0.52877 0.0
C487 C 0.39348 0.85115 0.45303 0.0
C488 C 0.39713 0.8443 0.4248 0.0
C489 C 0.4094 0.87368 0.46579 0.0
C490 C 0.4294 0.89012 0.45068 0.0
C491 C 0.43277 0.8837 0.42221 0.0
C492 C 0.41691 0.86097 0.40948 0.0
C493 C 0.47431 0.95865 0.46495 0.0
C494 C 0.48502 0.95354 0.49286 0.0
C495 C 0.45597 0.93826 0.4512 0.0
C496 C 0.44769 0.91263 0.46538 0.0
C497 C 0.45772 0.90812 0.49374 0.0
C498 C 0.4762 0.92821 0.5072 0.0
H499 H 0.2178 0.66248 0.6269 0.0
H500 H 0.19437 0.60191 0.69512 0.0
H501 H 0.179 0.64352 0.59738 0.0
H502 H 0.15535 0.58346 0.66578 0.0
H503 H 0.07818 0.56712 0.61194 0.0
H504 H 0.11332 0.59326 0.6425 0.0
H505 H 0.16452 0.59998 0.57268 0.0
H506 H 0.12973 0.57408 0.54246 0.0
C507 C 0.20443 0.64517 0.63568 0.0
C508 C 0.20949 0.63365 0.66341 0.0
C509 C 0.18208 0.63439 0.61878 0.0
C510 C 0.16407 0.61194 0.62919 0.0
C511 C 0.16862 0.601 0.65726 0.0
C512 C 0.19107 0.61164 0.67409 0.0
C513 C 0.09682 0.57467 0.60303 0.0
C514 C 0.10123 0.56844 0.57486 0.0
C515 C 0.11699 0.58942 0.62057 0.0
C516 C 0.14177 0.59861 0.61007 0.0
C517 C 0.14567 0.59345 0.58141 0.0
C518 C 0.12573 0.57846 0.56411 0.0
H519 H 0.39193 0.17357 0.67721 0.0
H520 H 0.41453 0.23685 0.61141 0.0
H521 H 0.41033 0.14177 0.65081 0.0
H522 H 0.43221 0.20484 0.58465 0.0
H523 H 0.49519 0.15483 0.57338 0.0
H524 H 0.47068 0.18427 0.5943 0.0
H525 H 0.40731 0.11599 0.60547 0.0
H526 H 0.43212 0.08608 0.5843 0.0
C527 C 0.40059 0.18064 0.65698 0.0
C528 C 0.402 0.2079 0.64664 0.0
C529 C 0.41087 0.1623 0.64168 0.0
C530 C 0.42294 0.17082 0.61574 0.0
C531 C 0.42334 0.19772 0.60477 0.0
C532 C 0.41298 0.21602 0.61999 0.0
C533 C 0.47602 0.14593 0.58023 0.0
C534 C 0.46574 0.11795 0.57741 0.0
C535 C 0.46183 0.16297 0.59198 0.0
C536 C 0.43699 0.15255 0.60151 0.0
C537 C 0.42648 0.1246 0.59849 0.0
C538 C 0.44066 0.10749 0.58635 0.0
H539 H 0.85753 0.4485 0.66128 0.0
H540 H 0.88717 0.37481 0.65335 0.0
H541 H 0.89873 0.4758 0.64732 0.0
H542 H 0.92842 0.40214 0.63938 0.0
H543 H 0.98181 0.46015 0.57681 0.0
H544 H 0.94523 0.43032 0.59833 0.0
H545 H 0.94423 0.49018 0.66161 0.0
H546 H 0.98057 0.52035 0.63974 0.0
C547 C 0.87296 0.43811 0.65702 0.0
C548 C 0.8689 0.40941 0.6583 0.0
C549 C 0.89667 0.45379 0.64904 0.0
C550 C 0.91698 0.44121 0.64216 0.0
C551 C 0.91312 0.41253 0.6441 0.0
C552 C 0.88941 0.39685 0.65207 0.0
C553 C 0.97425 0.46676 0.59574 0.0
C554 C 0.98413 0.49284 0.60634 0.0
C555 C 0.95318 0.44958 0.60812 0.0
C556 C 0.94147 0.45797 0.63149 0.0
C557 C 0.9524 0.48329 0.64325 0.0
C558 C 0.97346 0.5005 0.63087 0.0
H559 H 0.70498 0.85271 0.56274 0.0
H560 H 0.63467 0.80347 0.59401 0.0
H561 H 0.68261 0.89086 0.55217 0.0
H562 H 0.61279 0.84182 0.58479 0.0
H563 H 0.57347 0.9082 0.54679 0.0
H564 H 0.59623 0.87033 0.5474 0.0
H565 H 0.66619 0.92244 0.58083 0.0
H566 H 0.64366 0.96072 0.5791 0.0
C567 C 0.68472 0.84994 0.56712 0.0
C568 C 0.67168 0.82514 0.57951 0.0
C569 C 0.672 0.87189 0.56136 0.0
C570 C 0.64599 0.86946 0.56785 0.0
C571 C 0.63275 0.84435 0.57929 0.0
C572 C 0.64541 0.82245 0.58496 0.0
C573 C 0.59377 0.9117 0.55401 0.0
C574 C 0.60672 0.93746 0.56306 0.0
C575 C 0.60679 0.88993 0.55448 0.0
C576 C 0.63297 0.8933 0.56437 0.0
C577 C 0.64609 0.91923 0.5728 0.0
C578 C 0.6331 0.94109 0.57213 0.0
H579 H 0.42907 0.24713 0.46664 0.0
H580 H 0.35915 0.19762 0.49852 0.0
H581 H 0.45073 0.20845 0.47408 0.0
H582 H 0.38131 0.15915 0.50736 0.0
H583 H 0.41906 0.08901 0.48056 0.0
H584 H 0.39704 0.12769 0.47848 0.0
H585 H 0.46781 0.17955 0.51028 0.0
H586 H 0.49007 0.1413 0.51109 0.0
C587 C 0.41836 0.22801 0.47543 0.0
C588 C 0.39229 0.22538 0.48166 0.0
C589 C 0.4309 0.20592 0.48007 0.0
C590 C 0.41773 0.18066 0.49123 0.0
C591 C 0.39188 0.17823 0.49835 0.0
C592 C 0.37929 0.20036 0.49361 0.0
C593 C 0.42992 0.10869 0.48705 0.0
C594 C 0.45633 0.11209 0.49587 0.0
C595 C 0.41723 0.13079 0.48617 0.0
C596 C 0.43068 0.15674 0.49416 0.0
C597 C 0.45698 0.15996 0.50353 0.0
C598 C 0.4697 0.13795 0.50417 0.0
H599 H 0.87291 0.44172 0.36765 0.0
H600 H 0.8401 0.39373 0.44124 0.0
H601 H 0.91131 0.46034 0.39792 0.0
H602 H 0.87896 0.41144 0.47117 0.0
H603 H 0.9313 0.4805 0.52163 0.0
H604 H 0.89656 0.45475 0.49157 0.0
H605 H 0.95018 0.45179 0.42614 0.0
H606 H 0.98527 0.4783 0.45642 0.0
C607 C 0.87393 0.43495 0.39023 0.0
C608 C 0.85315 0.41644 0.40201 0.0
C609 C 0.89617 0.44536 0.40752 0.0
C610 C 0.89826 0.43756 0.43709 0.0
C611 C 0.87792 0.41822 0.44859 0.0
C612 C 0.85568 0.40782 0.43131 0.0
C613 C 0.93585 0.47413 0.50097 0.0
C614 C 0.96107 0.48165 0.49136 0.0
C615 C 0.91587 0.45912 0.48377 0.0
C616 C 0.92044 0.45117 0.45632 0.0
C617 C 0.94591 0.45782 0.44704 0.0
C618 C 0.96607 0.4728 0.46447 0.0
H619 H 0.64666 0.84449 0.39004 0.0
H620 H 0.69237 0.84616 0.47127 0.0
H621 H 0.62308 0.87689 0.40766 0.0
H622 H 0.66892 0.87902 0.48869 0.0
H623 H 0.63517 0.9575 0.49774 0.0
H624 H 0.66138 0.92739 0.47942 0.0
H625 H 0.59169 0.87551 0.4452 0.0
H626 H 0.56575 0.90532 0.4633 0.0
C627 C 0.65163 0.85163 0.4117 0.0
C628 C 0.67135 0.84247 0.42925 0.0
C629 C 0.63816 0.87032 0.42177 0.0
C630 C 0.64409 0.88049 0.4496 0.0
C631 C 0.66412 0.87183 0.46701 0.0
C632 C 0.67755 0.85298 0.45698 0.0
C633 C 0.62556 0.93985 0.48595 0.0
C634 C 0.59842 0.93395 0.48169 0.0
C635 C 0.64051 0.92248 0.47574 0.0
C636 C 0.62861 0.89916 0.46068 0.0
C637 C 0.6015 0.8935 0.45631 0.0
C638 C 0.58662 0.91057 0.46679 0.0
H639 H 0.20667 0.63088 0.43777 0.0
H640 H 0.16917 0.62191 0.35204 0.0
H641 H 0.16593 0.61016 0.45871 0.0
H642 H 0.12843 0.60103 0.37301 0.0
H643 H 0.07471 0.53011 0.4222 0.0
H644 H 0.11104 0.55795 0.39817 0.0
H645 H 0.12181 0.6154 0.46616 0.0
H646 H 0.08566 0.58737 0.49049 0.0
C647 C 0.18966 0.62496 0.42337 0.0
C648 C 0.19135 0.62793 0.39317 0.0
C649 C 0.16623 0.61306 0.4354 0.0
C650 C 0.14385 0.60379 0.41756 0.0
C651 C 0.14535 0.60753 0.38739 0.0
C652 C 0.16876 0.61947 0.37537 0.0
C653 C 0.08443 0.54897 0.43175 0.0
C654 C 0.07724 0.55633 0.45841 0.0
C655 C 0.1053 0.56501 0.41791 0.0
C656 C 0.1196 0.58879 0.43038 0.0
C657 C 0.1115 0.59698 0.45619 0.0
C658 C 0.09054 0.58102 0.46997 0.0
H659 H 0.43413 0.86138 0.70045 0.0
H660 H 0.40466 0.84559 0.61248 0.0
H661 H 0.4609 0.9042 0.68374 0.0
H662 H 0.43229 0.8876 0.59565 0.0
H663 H 0.46967 0.97368 0.57308 0.0
H664 H 0.43896 0.93645 0.59482 0.0
H665 H 0.499 0.91954 0.65749 0.0
H666 H 0.5295 0.95715 0.63634 0.0
C667 C 0.43325 0.86705 0.67757 0.0
C668 C 0.41726 0.84987 0.65784 0.0
C669 C 0.44882 0.89152 0.66793 0.0
C670 C 0.44882 0.89946 0.63832 0.0
C671 C 0.43258 0.88243 0.61866 0.0
C672 C 0.41699 0.85803 0.62829 0.0
C673 C 0.47622 0.96247 0.59195 0.0
C674 C 0.50221 0.96842 0.60281 0.0
C675 C 0.45862 0.94087 0.6042 0.0
C676 C 0.46654 0.92463 0.62764 0.0
C677 C 0.4921 0.93164 0.63958 0.0
C678 C 0.5097 0.95325 0.62737 0.0
H679 H 0.24662 0.39991 0.59194 0.0
H680 H 0.1979 0.3599 0.65895 0.0
H681 H 0.21262 0.42416 0.57352 0.0
H682 H 0.16406 0.38483 0.64094 0.0
H683 H 0.1005 0.41727 0.58209 0.0
H684 H 0.13276 0.38953 0.59843 0.0
H685 H 0.1936 0.46084 0.59067 0.0
H686 H 0.16179 0.48828 0.5744 0.0
C687 C 0.22859 0.39615 0.60266 0.0
C688 C 0.22505 0.378 0.627 0.0
C689 C 0.20918 0.41025 0.59225 0.0
C690 C 0.18566 0.40655 0.60586 0.0
C691 C 0.18187 0.38801 0.62985 0.0
C692 C 0.20138 0.37397 0.64038 0.0
C693 C 0.12076 0.42698 0.58399 0.0
C694 C 0.12849 0.45504 0.57713 0.0
C695 C 0.13922 0.41112 0.59339 0.0
C696 C 0.16577 0.42297 0.59578 0.0
C697 C 0.17339 0.45097 0.58874 0.0
C698 C 0.15503 0.46677 0.57962 0.0
H699 H 0.62255 0.18738 0.68473 0.0
H700 H 0.67173 0.21465 0.61391 0.0
H701 H 0.60117 0.14774 0.65796 0.0
H702 H 0.64989 0.17526 0.58697 0.0
H703 H 0.57724 0.12722 0.53605 0.0
H704 H 0.60578 0.16201 0.56394 0.0
H705 H 0.60685 0.10419 0.63667 0.0
H706 H 0.57802 0.06904 0.60845 0.0
C707 C 0.62916 0.18475 0.66369 0.0
C708 C 0.64882 0.20449 0.65148 0.0
C709 C 0.61685 0.16195 0.64833 0.0
C710 C 0.62373 0.15836 0.62027 0.0
C711 C 0.64389 0.1776 0.60839 0.0
C712 C 0.65632 0.20029 0.62381 0.0
C713 C 0.58385 0.12175 0.55786 0.0
C714 C 0.57527 0.09541 0.57011 0.0
C715 C 0.60035 0.1417 0.57381 0.0
C716 C 0.60853 0.13596 0.6026 0.0
C717 C 0.6007 0.1093 0.6146 0.0
C718 C 0.58439 0.08912 0.5984 0.0
H719 H 0.81726 0.62129 0.57054 0.0
H720 H 0.86558 0.66565 0.63796 0.0
H721 H 0.85541 0.60903 0.55191 0.0
H722 H 0.90355 0.65274 0.62019 0.0
H723 H 0.97103 0.63836 0.57496 0.0
H724 H 0.93304 0.65722 0.58319 0.0
H725 H 0.88388 0.57897 0.56634 0.0
H726 H 0.92162 0.56057 0.55705 0.0
C727 C 0.83609 0.62843 0.5813 0.0
C728 C 0.83852 0.6443 0.60572 0.0
C729 C 0.85792 0.62137 0.57073 0.0
C730 C 0.88258 0.62973 0.58464 0.0
C731 C 0.88499 0.64631 0.60858 0.0
C732 C 0.86322 0.65363 0.6189 0.0
C733 C 0.95206 0.62531 0.57273 0.0
C734 C 0.94934 0.59789 0.56577 0.0
C735 C 0.93029 0.63608 0.57756 0.0
C736 C 0.90539 0.61955 0.57579 0.0
C737 C 0.90267 0.59243 0.5676 0.0
C738 C 0.92438 0.58177 0.56251 0.0
H739 H 0.41497 0.45317 0.28419 0.0
H740 H 0.3962 0.37703 0.24064 0.0
H741 H 0.42782 0.47738 0.23855 0.0
H742 H 0.40965 0.40097 0.19541 0.0
H743 H 0.41834 0.45173 0.11319 0.0
H744 H 0.39855 0.43398 0.15808 0.0
H745 H 0.46395 0.47954 0.20721 0.0
H746 H 0.48358 0.49761 0.16241 0.0
C747 C 0.41336 0.44166 0.26483 0.0
C748 C 0.40478 0.41317 0.26602 0.0
C749 C 0.42089 0.45548 0.23877 0.0
C750 C 0.41978 0.44109 0.21338 0.0
C751 C 0.41046 0.41272 0.21448 0.0
C752 C 0.40307 0.39894 0.24048 0.0
C753 C 0.42833 0.45829 0.13355 0.0
C754 C 0.45273 0.47576 0.13421 0.0
C755 C 0.41704 0.44801 0.15927 0.0
C756 C 0.42985 0.45505 0.1862 0.0
C757 C 0.45351 0.47381 0.18683 0.0
C758 C 0.46485 0.48404 0.16111 0.0
H759 H 0.41629 0.60974 0.8587 0.0
H760 H 0.4463 0.69017 0.89035 0.0
H761 H 0.44122 0.58992 0.8977 0.0
H762 H 0.4704 0.67026 0.92992 0.0
H763 H 0.53645 0.62786 0.96915 0.0
H764 H 0.508 0.64914 0.93558 0.0
H765 H 0.44543 0.58063 0.94982 0.0
H766 H 0.47406 0.55902 0.98312 0.0
C767 C 0.42805 0.6232 0.87407 0.0
C768 C 0.4293 0.6516 0.87122 0.0
C769 C 0.44212 0.61178 0.89668 0.0
C770 C 0.45788 0.62847 0.91702 0.0
C771 C 0.45868 0.6568 0.91453 0.0
C772 C 0.44459 0.6682 0.89197 0.0
C773 C 0.51652 0.61748 0.96554 0.0
C774 C 0.50766 0.59162 0.97885 0.0
C775 C 0.50013 0.62976 0.9463 0.0
C776 C 0.47443 0.61653 0.93974 0.0
C777 C 0.46522 0.59122 0.954 0.0
C778 C 0.4816 0.57896 0.97337 0.0
H779 H 0.44205 0.41596 0.8276 0.0
H780 H 0.38035 0.39273 0.88592 0.0
H781 H 0.46909 0.44118 0.86553 0.0
H782 H 0.40734 0.41887 0.92384 0.0
H783 H 0.47697 0.45074 0.99123 0.0
H784 H 0.44799 0.42189 0.95654 0.0
H785 H 0.46829 0.48359 0.8886 0.0
H786 H 0.49701 0.51191 0.92265 0.0
C787 C 0.43432 0.41593 0.84862 0.0
C788 C 0.40893 0.40233 0.85358 0.0
C789 C 0.44975 0.43072 0.87032 0.0
C790 C 0.44027 0.43239 0.89765 0.0
C791 C 0.41524 0.41799 0.90306 0.0
C792 C 0.3997 0.40322 0.88123 0.0
C793 C 0.47496 0.45818 0.96895 0.0
C794 C 0.48957 0.48348 0.95969 0.0
C795 C 0.4584 0.44167 0.94908 0.0
C796 C 0.45623 0.4502 0.91964 0.0
C797 C 0.47 0.47602 0.91088 0.0
C798 C 0.4864 0.49237 0.93054 0.0
H799 H 0.70518 0.45822 0.84573 0.0
H800 H 0.63817 0.39476 0.82849 0.0
H801 H 0.681 0.47818 0.87893 0.0
H802 H 0.61397 0.41495 0.86139 0.0
H803 H 0.5703 0.47624 0.89426 0.0
H804 H 0.59576 0.45605 0.86302 0.0
H805 H 0.66076 0.46996 0.92601 0.0
H806 H 0.63519 0.49061 0.95743 0.0
C807 C 0.6854 0.4483 0.84922 0.0
C808 C 0.67367 0.42484 0.83426 0.0
C809 C 0.67152 0.45981 0.86828 0.0
C810 C 0.64549 0.44827 0.87277 0.0
C811 C 0.63385 0.42466 0.85809 0.0
C812 C 0.64774 0.41309 0.83914 0.0
C813 C 0.59002 0.47504 0.90158 0.0
C814 C 0.60063 0.48497 0.9285 0.0
C815 C 0.60458 0.46326 0.88367 0.0
C816 C 0.63025 0.46113 0.89205 0.0
C817 C 0.64107 0.4714 0.91881 0.0
C818 C 0.62639 0.48312 0.93688 0.0
H819 H 0.61124 0.6276 0.78342 0.0
H820 H 0.69167 0.63304 0.81239 0.0
H821 H 0.5982 0.60366 0.82872 0.0
H822 H 0.67858 0.60803 0.85745 0.0
H823 H 0.6419 0.59985 0.94732 0.0
H824 H 0.6589 0.61704 0.90085 0.0
H825 H 0.59707 0.56141 0.85683 0.0
H826 H 0.57964 0.54487 0.9031 0.0
C827 C 0.62615 0.62351 0.79941 0.0
C828 C 0.65248 0.63244 0.79439 0.0
C829 C 0.61868 0.60944 0.82525 0.0
C830 C 0.63736 0.60388 0.84674 0.0
C831 C 0.66372 0.6122 0.84145 0.0
C832 C 0.67121 0.62629 0.81552 0.0
C833 C 0.63215 0.59101 0.92775 0.0
C834 C 0.60921 0.57126 0.92892 0.0
C835 C 0.64197 0.60077 0.9011 0.0
C836 C 0.62913 0.59087 0.87508 0.0
C837 C 0.6071 0.5699 0.87642 0.0
C838 C 0.59721 0.56028 0.90301 0.0
H839 H 0.66666 0.66942 0.18476 0.0
H840 H 0.60224 0.63782 0.23749 0.0
H841 H 0.64662 0.63871 0.14648 0.0
H842 H 0.58216 0.6078 0.19936 0.0
H843 H 0.56637 0.53642 0.14284 0.0
H844 H 0.59105 0.56702 0.17792 0.0
H845 H 0.60698 0.6305 0.11084 0.0
H846 H 0.58213 0.59944 0.07518 0.0
C847 C 0.64828 0.65593 0.1882 0.0
C848 C 0.63605 0.6561 0.2142 0.0
C849 C 0.63672 0.63853 0.16619 0.0
C850 C 0.61287 0.62069 0.16992 0.0
C851 C 0.6007 0.62101 0.19589 0.0
C852 C 0.61209 0.63845 0.21767 0.0
C853 C 0.57528 0.55681 0.13536 0.0
C854 C 0.57194 0.56559 0.10621 0.0
C855 C 0.58936 0.57442 0.15558 0.0
C856 C 0.60056 0.60138 0.14733 0.0
C857 C 0.59855 0.60983 0.11787 0.0
C858 C 0.58432 0.59207 0.09746 0.0
H859 H 0.41562 0.60401 0.26974 0.0
H860 H 0.39477 0.6565 0.19849 0.0
H861 H 0.43331 0.57768 0.23628 0.0
H862 H 0.41275 0.6303 0.16494 0.0
H863 H 0.43266 0.56518 0.10894 0.0
H864 H 0.40931 0.58694 0.14186 0.0
H865 H 0.47055 0.58449 0.20836 0.0
H866 H 0.49334 0.56249 0.17605 0.0
C867 C 0.41486 0.60998 0.24692 0.0
C868 C 0.40398 0.63257 0.2369 0.0
C869 C 0.42502 0.59487 0.22768 0.0
C870 C 0.42475 0.60198 0.19785 0.0
C871 C 0.41309 0.62402 0.18768 0.0
C872 C 0.4028 0.6391 0.20695 0.0
C873 C 0.44097 0.56912 0.13068 0.0
C874 C 0.46494 0.56216 0.13975 0.0
C875 C 0.42768 0.58174 0.14951 0.0
C876 C 0.43799 0.5875 0.17787 0.0
C877 C 0.46173 0.58004 0.18693 0.0
C878 C 0.47497 0.56757 0.1682 0.0
H879 H 0.64716 0.43832 0.20584 0.0
H880 H 0.616 0.35764 0.17544 0.0
H881 H 0.62217 0.45802 0.16682 0.0
H882 H 0.59186 0.37742 0.13581 0.0
H883 H 0.5264 0.42032 0.09593 0.0
H884 H 0.55465 0.39901 0.12974 0.0
H885 H 0.61773 0.4668 0.11477 0.0
H886 H 0.58931 0.48845 0.08126 0.0
C887 C 0.63513 0.42477 0.19075 0.0
C888 C 0.6336 0.39634 0.19395 0.0
C889 C 0.62102 0.43611 0.16812 0.0
C890 C 0.60494 0.41933 0.14809 0.0
C891 C 0.60382 0.39096 0.15096 0.0
C892 C 0.61794 0.37963 0.17354 0.0
C893 C 0.5464 0.43054 0.09943 0.0
C894 C 0.55546 0.45622 0.08586 0.0
C895 C 0.56267 0.41823 0.11882 0.0
C896 C 0.58846 0.43127 0.12525 0.0
C897 C 0.59787 0.45638 0.11072 0.0
C898 C 0.58161 0.46867 0.09123 0.0
loop_
_geom_bond_atom_site_label_1
_geom_bond_atom_site_label_2
_geom_bond_distance
_geom_bond_site_symmetry_2
_ccdc_geom_bond_type
C0 C1 1.264 . S
C0 C5 1.479 . S
C0 C10 1.465 . S
C1 C0 1.264 . S
C1 C3 1.339 . S
C1 H28 0.931 . S
C2 C3 1.395 . S
C2 C4 1.320 . S
C3 C1 1.339 . S
C3 C2 1.395 . S
C3 H29 0.929 . S
C4 C2 1.320 . S
C4 C5 1.405 . S
C4 H30 0.930 . S
C5 C0 1.479 . S
C5 C4 1.405 . S
C5 H31 0.931 . S
U6 O7 2.454 . S
U6 O8 2.458 . S
U6 C9 2.984 . S
U6 C10 2.847 . S
U6 C23 2.882 . S
U6 O24 2.441 . S
U6 O25 2.420 . S
U6 O26 2.455 . S
U6 O27 2.449 . S
O7 U6 2.454 . S
O7 C9 1.353 . S
O8 U6 2.458 . S
O8 C9 1.286 . S
C9 U6 2.984 . S
C9 O7 1.353 . S
C9 O8 1.286 . S
C9 C11 1.363 . S
C10 C0 1.465 . S
C10 U6 2.847 . S
C10 O24 1.249 . S
C10 O25 1.202 . S
C11 C9 1.363 . S
C11 C13 1.408 . S
C11 C16 1.342 . S
C12 C13 1.310 . S
C12 C15 1.461 . S
C12 H32 0.932 . S
C13 C11 1.408 . S
C13 C12 1.310 . S
C13 H33 0.930 . S
C14 C15 1.474 . S
C14 C16 1.285 . S
C14 H34 0.929 . S
C15 C12 1.461 . S
C15 C14 1.474 . S
C16 C11 1.342 . S
C16 C14 1.285 . S
C16 H35 0.930 . S
C17 C20 1.424 . S
C17 C22 1.245 . S
C17 C23 1.428 . S
C18 C21 1.260 . S
C18 C22 1.477 . S
C18 H36 0.932 . S
C19 C20 1.384 . S
C19 C21 1.479 . S
C19 H37 0.929 . S
C20 C17 1.424 . S
C20 C19 1.384 . S
C20 H38 0.928 . S
C21 C18 1.260 . S
C21 C19 1.479 . S
C22 C17 1.245 . S
C22 C18 1.477 . S
C22 H39 0.932 . S
C23 U6 2.882 . S
C23 C17 1.428 . S
C23 O26 1.301 . S
C23 O27 1.282 . S
O24 U6 2.441 . S
O24 C10 1.249 . S
O25 U6 2.420 . S
O25 C10 1.202 . S
O26 U6 2.455 . S
O26 C23 1.301 . S
O27 U6 2.449 . S
O27 C23 1.282 . S
H28 C1 0.931 . S
H29 C3 0.929 . S
H30 C4 0.930 . S
H31 C5 0.931 . S
H32 C12 0.932 . S
H33 C13 0.930 . S
H34 C14 0.929 . S
H35 C16 0.930 . S
H36 C18 0.932 . S
H37 C19 0.929 . S
H38 C20 0.928 . S
H39 C22 0.932 . S
C40 C41 1.264 . S
C40 C45 1.479 . S
C40 C50 1.465 . S
C41 C40 1.264 . S
C41 C43 1.339 . S
C41 H68 0.931 . S
C42 C43 1.395 . S
C42 C44 1.320 . S
C43 C41 1.339 . S
C43 C42 1.395 . S
C43 H69 0.929 . S
C44 C42 1.320 . S
C44 C45 1.405 . S
C44 H70 0.930 . S
C45 C40 1.479 . S
C45 C44 1.405 . S
C45 H71 0.931 . S
U46 O47 2.454 . S
U46 O48 2.458 . S
U46 C49 2.984 . S
U46 C50 2.847 . S
U46 C63 2.882 . S
U46 O64 2.441 . S
U46 O65 2.420 . S
U46 O66 2.455 . S
U46 O67 2.449 . S
O47 U46 2.454 . S
O47 C49 1.353 . S
O48 U46 2.458 . S
O48 C49 1.286 . S
C49 U46 2.984 . S
C49 O47 1.353 . S
C49 O48 1.286 . S
C49 C51 1.363 . S
C50 C40 1.465 . S
C50 U46 2.847 . S
C50 O64 1.249 . S
C50 O65 1.202 . S
C51 C49 1.363 . S
C51 C53 1.408 . S
C51 C56 1.342 . S
C52 C53 1.310 . S
C52 C55 1.461 . S
C52 H72 0.932 . S
C53 C51 1.408 . S
C53 C52 1.310 . S
C53 H73 0.930 . S
C54 C55 1.474 . S
C54 C56 1.285 . S
C54 H74 0.929 . S
C55 C52 1.461 . S
C55 C54 1.474 . S
C56 C51 1.342 . S
C56 C54 1.285 . S
C56 H75 0.930 . S
C57 C60 1.424 . S
C57 C62 1.245 . S
C57 C63 1.428 . S
C58 C61 1.260 . S
C58 C62 1.477 . S
C58 H76 0.932 . S
C59 C60 1.384 . S
C59 C61 1.479 . S
C59 H77 0.929 . S
C60 C57 1.424 . S
C60 C59 1.384 . S
C60 H78 0.928 . S
C61 C58 1.260 . S
C61 C59 1.479 . S
C62 C57 1.245 . S
C62 C58 1.477 . S
C62 H79 0.932 . S
C63 U46 2.882 . S
C63 C57 1.428 . S
C63 O66 1.301 . S
C63 O67 1.282 . S
O64 U46 2.441 . S
O64 C50 1.249 . S
O65 U46 2.420 . S
O65 C50 1.202 . S
O66 U46 2.455 . S
O66 C63 1.301 . S
O67 U46 2.449 . S
O67 C63 1.282 . S
H68 C41 0.931 . S
H69 C43 0.929 . S
H70 C44 0.930 . S
H71 C45 0.931 . S
H72 C52 0.932 . S
H73 C53 0.930 . S
H74 C54 0.929 . S
H75 C56 0.930 . S
H76 C58 0.932 . S
H77 C59 0.929 . S
H78 C60 0.928 . S
H79 C62 0.932 . S
C80 C81 1.264 . S
C80 C85 1.479 . S
C80 C90 1.465 . S
C81 C80 1.264 . S
C81 C83 1.339 . S
C81 H108 0.931 . S
C82 C83 1.395 . S
C82 C84 1.320 . S
C83 C81 1.339 . S
C83 C82 1.395 . S
C83 H109 0.929 . S
C84 C82 1.320 . S
C84 C85 1.405 . S
C84 H110 0.930 . S
C85 C80 1.479 . S
C85 C84 1.405 . S
C85 H111 0.931 . S
U86 O87 2.454 . S
U86 O88 2.458 . S
U86 C89 2.984 . S
U86 C90 2.847 . S
U86 C103 2.882 . S
U86 O104 2.441 . S
U86 O105 2.420 . S
U86 O106 2.455 . S
U86 O107 2.449 . S
O87 U86 2.454 . S
O87 C89 1.353 . S
O88 U86 2.458 . S
O88 C89 1.286 . S
C89 U86 2.984 . S
C89 O87 1.353 . S
C89 O88 1.286 . S
C89 C91 1.363 . S
C90 C80 1.465 . S
C90 U86 2.847 . S
C90 O104 1.249 . S
C90 O105 1.202 . S
C91 C89 1.363 . S
C91 C93 1.408 . S
C91 C96 1.342 . S
C92 C93 1.310 . S
C92 C95 1.461 . S
C92 H112 0.932 . S
C93 C91 1.408 . S
C93 C92 1.310 . S
C93 H113 0.930 . S
C94 C95 1.474 . S
C94 C96 1.285 . S
C94 H114 0.929 . S
C95 C92 1.461 . S
C95 C94 1.474 . S
C96 C91 1.342 . S
C96 C94 1.285 . S
C96 H115 0.930 . S
C97 C100 1.424 . S
C97 C102 1.245 . S
C97 C103 1.428 . S
C98 C101 1.260 . S
C98 C102 1.477 . S
C98 H116 0.932 . S
C99 C100 1.384 . S
C99 C101 1.479 . S
C99 H117 0.929 . S
C100 C97 1.424 . S
C100 C99 1.384 . S
C100 H118 0.928 . S
C101 C98 1.260 . S
C101 C99 1.479 . S
C102 C97 1.245 . S
C102 C98 1.477 . S
C102 H119 0.932 . S
C103 U86 2.882 . S
C103 C97 1.428 . S
C103 O106 1.301 . S
C103 O107 1.282 . S
O104 U86 2.441 . S
O104 C90 1.249 . S
O105 U86 2.420 . S
O105 C90 1.202 . S
O106 U86 2.455 . S
O106 C103 1.301 . S
O107 U86 2.449 . S
O107 C103 1.282 . S
H108 C81 0.931 . S
H109 C83 0.929 . S
H110 C84 0.930 . S
H111 C85 0.931 . S
H112 C92 0.932 . S
H113 C93 0.930 . S
H114 C94 0.929 . S
H115 C96 0.930 . S
H116 C98 0.932 . S
H117 C99 0.929 . S
H118 C100 0.928 . S
H119 C102 0.932 . S
C120 C121 1.264 . S
C120 C125 1.479 . S
C120 C130 1.465 . S
C121 C120 1.264 . S
C121 C123 1.339 . S
C121 H148 0.931 . S
C122 C123 1.395 . S
C122 C124 1.320 . S
C123 C121 1.339 . S
C123 C122 1.395 . S
C123 H149 0.929 . S
C124 C122 1.320 . S
C124 C125 1.405 . S
C124 H150 0.930 . S
C125 C120 1.479 . S
C125 C124 1.405 . S
C125 H151 0.931 . S
U126 O127 2.454 . S
U126 O128 2.458 . S
U126 C129 2.984 . S
U126 C130 2.847 . S
U126 C143 2.882 . S
U126 O144 2.441 . S
U126 O145 2.420 . S
U126 O146 2.455 . S
U126 O147 2.449 . S
O127 U126 2.454 . S
O127 C129 1.353 . S
O128 U126 2.458 . S
O128 C129 1.286 . S
C129 U126 2.984 . S
C129 O127 1.353 . S
C129 O128 1.286 . S
C129 C131 1.363 . S
C130 C120 1.465 . S
C130 U126 2.847 . S
C130 O144 1.249 . S
C130 O145 1.202 . S
C131 C129 1.363 . S
C131 C133 1.408 . S
C131 C136 1.342 . S
C132 C133 1.310 . S
C132 C135 1.461 . S
C132 H152 0.932 . S
C133 C131 1.408 . S
C133 C132 1.310 . S
C133 H153 0.930 . S
C134 C135 1.474 . S
C134 C136 1.285 . S
C134 H154 0.929 . S
C135 C132 1.461 . S
C135 C134 1.474 . S
C136 C131 1.342 . S
C136 C134 1.285 . S
C136 H155 0.930 . S
C137 C140 1.424 . S
C137 C142 1.245 . S
C137 C143 1.428 . S
C138 C141 1.260 . S
C138 C142 1.477 . S
C138 H156 0.932 . S
C139 C140 1.384 . S
C139 C141 1.479 . S
C139 H157 0.929 . S
C140 C137 1.424 . S
C140 C139 1.384 . S
C140 H158 0.928 . S
C141 C138 1.260 . S
C141 C139 1.479 . S
C142 C137 1.245 . S
C142 C138 1.477 . S
C142 H159 0.932 . S
C143 U126 2.882 . S
C143 C137 1.428 . S
C143 O146 1.301 . S
C143 O147 1.282 . S
O144 U126 2.441 . S
O144 C130 1.249 . S
O145 U126 2.420 . S
O145 C130 1.202 . S
O146 U126 2.455 . S
O146 C143 1.301 . S
O147 U126 2.449 . S
O147 C143 1.282 . S
H148 C121 0.931 . S
H149 C123 0.929 . S
H150 C124 0.930 . S
H151 C125 0.931 . S
H152 C132 0.932 . S
H153 C133 0.930 . S
H154 C134 0.929 . S
H155 C136 0.930 . S
H156 C138 0.932 . S
H157 C139 0.929 . S
H158 C140 0.928 . S
H159 C142 0.932 . S
C160 C161 1.264 . S
C160 C165 1.479 . S
C160 C170 1.465 . S
C161 C160 1.264 . S
C161 C163 1.339 . S
C161 H188 0.931 . S
C162 C163 1.395 . S
C162 C164 1.320 . S
C163 C161 1.339 . S
C163 C162 1.395 . S
C163 H189 0.929 . S
C164 C162 1.320 . S
C164 C165 1.405 . S
C164 H190 0.930 . S
C165 C160 1.479 . S
C165 C164 1.405 . S
C165 H191 0.931 . S
U166 O167 2.454 . S
U166 O168 2.458 . S
U166 C169 2.984 . S
U166 C170 2.847 . S
U166 C183 2.882 . S
U166 O184 2.441 . S
U166 O185 2.420 . S
U166 O186 2.455 . S
U166 O187 2.449 . S
O167 U166 2.454 . S
O167 C169 1.353 . S
O168 U166 2.458 . S
O168 C169 1.286 . S
C169 U166 2.984 . S
C169 O167 1.353 . S
C169 O168 1.286 . S
C169 C171 1.363 . S
C170 C160 1.465 . S
C170 U166 2.847 . S
C170 O184 1.249 . S
C170 O185 1.202 . S
C171 C169 1.363 . S
C171 C173 1.408 . S
C171 C176 1.342 . S
C172 C173 1.310 . S
C172 C175 1.461 . S
C172 H192 0.932 . S
C173 C171 1.408 . S
C173 C172 1.310 . S
C173 H193 0.930 . S
C174 C175 1.474 . S
C174 C176 1.285 . S
C174 H194 0.929 . S
C175 C172 1.461 . S
C175 C174 1.474 . S
C176 C171 1.342 . S
C176 C174 1.285 . S
C176 H195 0.930 . S
C177 C180 1.424 . S
C177 C182 1.245 . S
C177 C183 1.428 . S
C178 C181 1.260 . S
C178 C182 1.477 . S
C178 H196 0.932 . S
C179 C180 1.384 . S
C179 C181 1.479 . S
C179 H197 0.929 . S
C180 C177 1.424 . S
C180 C179 1.384 . S
C180 H198 0.928 . S
C181 C178 1.260 . S
C181 C179 1.479 . S
C182 C177 1.245 . S
C182 C178 1.477 . S
C182 H199 0.932 . S
C183 U166 2.882 . S
C183 C177 1.428 . S
C183 O186 1.301 . S
C183 O187 1.282 . S
O184 U166 2.441 . S
O184 C170 1.249 . S
O185 U166 2.420 . S
O185 C170 1.202 . S
O186 U166 2.455 . S
O186 C183 1.301 . S
O187 U166 2.449 . S
O187 C183 1.282 . S
H188 C161 0.931 . S
H189 C163 0.929 . S
H190 C164 0.930 . S
H191 C165 0.931 . S
H192 C172 0.932 . S
H193 C173 0.930 . S
H194 C174 0.929 . S
H195 C176 0.930 . S
H196 C178 0.932 . S
H197 C179 0.929 . S
H198 C180 0.928 . S
H199 C182 0.932 . S
C200 C201 1.264 . S
C200 C205 1.479 . S
C200 C210 1.465 . S
C201 C200 1.264 . S
C201 C203 1.339 . S
C201 H228 0.931 . S
C202 C203 1.395 . S
C202 C204 1.320 . S
C203 C201 1.339 . S
C203 C202 1.395 . S
C203 H229 0.929 . S
C204 C202 1.320 . S
C204 C205 1.405 . S
C204 H230 0.930 . S
C205 C200 1.479 . S
C205 C204 1.405 . S
C205 H231 0.931 . S
U206 O207 2.454 . S
U206 O208 2.458 . S
U206 C209 2.984 . S
U206 C210 2.847 . S
U206 C223 2.882 . S
U206 O224 2.441 . S
U206 O225 2.420 . S
U206 O226 2.455 . S
U206 O227 2.449 . S
O207 U206 2.454 . S
O207 C209 1.353 . S
O208 U206 2.458 . S
O208 C209 1.286 . S
C209 U206 2.984 . S
C209 O207 1.353 . S
C209 O208 1.286 . S
C209 C211 1.363 . S
C210 C200 1.465 . S
C210 U206 2.847 . S
C210 O224 1.249 . S
C210 O225 1.202 . S
C211 C209 1.363 . S
C211 C213 1.408 . S
C211 C216 1.342 . S
C212 C213 1.310 . S
C212 C215 1.461 . S
C212 H232 0.932 . S
C213 C211 1.408 . S
C213 C212 1.310 . S
C213 H233 0.930 . S
C214 C215 1.474 . S
C214 C216 1.285 . S
C214 H234 0.929 . S
C215 C212 1.461 . S
C215 C214 1.474 . S
C216 C211 1.342 . S
C216 C214 1.285 . S
C216 H235 0.930 . S
C217 C220 1.424 . S
C217 C222 1.245 . S
C217 C223 1.428 . S
C218 C221 1.260 . S
C218 C222 1.477 . S
C218 H236 0.932 . S
C219 C220 1.384 . S
C219 C221 1.479 . S
C219 H237 0.929 . S
C220 C217 1.424 . S
C220 C219 1.384 . S
C220 H238 0.928 . S
C221 C218 1.260 . S
C221 C219 1.479 . S
C222 C217 1.245 . S
C222 C218 1.477 . S
C222 H239 0.932 . S
C223 U206 2.882 . S
C223 C217 1.428 . S
C223 O226 1.301 . S
C223 O227 1.282 . S
O224 U206 2.441 . S
O224 C210 1.249 . S
O225 U206 2.420 . S
O225 C210 1.202 . S
O226 U206 2.455 . S
O226 C223 1.301 . S
O227 U206 2.449 . S
O227 C223 1.282 . S
H228 C201 0.931 . S
H229 C203 0.929 . S
H230 C204 0.930 . S
H231 C205 0.931 . S
H232 C212 0.932 . S
H233 C213 0.930 . S
H234 C214 0.929 . S
H235 C216 0.930 . S
H236 C218 0.932 . S
H237 C219 0.929 . S
H238 C220 0.928 . S
H239 C222 0.932 . S
C240 C241 1.264 . S
C240 C245 1.479 . S
C240 C250 1.465 . S
C241 C240 1.264 . S
C241 C243 1.339 . S
C241 H268 0.931 . S
C242 C243 1.395 . S
C242 C244 1.320 . S
C243 C241 1.339 . S
C243 C242 1.395 . S
C243 H269 0.929 . S
C244 C242 1.320 . S
C244 C245 1.405 . S
C244 H270 0.930 . S
C245 C240 1.479 . S
C245 C244 1.405 . S
C245 H271 0.931 . S
U246 O247 2.454 . S
U246 O248 2.458 . S
U246 C249 2.984 . S
U246 C250 2.847 . S
U246 C263 2.882 . S
U246 O264 2.441 . S
U246 O265 2.420 . S
U246 O266 2.455 . S
U246 O267 2.449 . S
O247 U246 2.454 . S
O247 C249 1.353 . S
O248 U246 2.458 . S
O248 C249 1.286 . S
C249 U246 2.984 . S
C249 O247 1.353 . S
C249 O248 1.286 . S
C249 C251 1.363 . S
C250 C240 1.465 . S
C250 U246 2.847 . S
C250 O264 1.249 . S
C250 O265 1.202 . S
C251 C249 1.363 . S
C251 C253 1.408 . S
C251 C256 1.342 . S
C252 C253 1.310 . S
C252 C255 1.461 . S
C252 H272 0.932 . S
C253 C251 1.408 . S
C253 C252 1.310 . S
C253 H273 0.930 . S
C254 C255 1.474 . S
C254 C256 1.285 . S
C254 H274 0.929 . S
C255 C252 1.461 . S
C255 C254 1.474 . S
C256 C251 1.342 . S
C256 C254 1.285 . S
C256 H275 0.930 . S
C257 C260 1.424 . S
C257 C262 1.245 . S
C257 C263 1.428 . S
C258 C261 1.260 . S
C258 C262 1.477 . S
C258 H276 0.932 . S
C259 C260 1.384 . S
C259 C261 1.479 . S
C259 H277 0.929 . S
C260 C257 1.424 . S
C260 C259 1.384 . S
C260 H278 0.928 . S
C261 C258 1.260 . S
C261 C259 1.479 . S
C262 C257 1.245 . S
C262 C258 1.477 . S
C262 H279 0.932 . S
C263 U246 2.882 . S
C263 C257 1.428 . S
C263 O266 1.301 . S
C263 O267 1.282 . S
O264 U246 2.441 . S
O264 C250 1.249 . S
O265 U246 2.420 . S
O265 C250 1.202 . S
O266 U246 2.455 . S
O266 C263 1.301 . S
O267 U246 2.449 . S
O267 C263 1.282 . S
H268 C241 0.931 . S
H269 C243 0.929 . S
H270 C244 0.930 . S
H271 C245 0.931 . S
H272 C252 0.932 . S
H273 C253 0.930 . S
H274 C254 0.929 . S
H275 C256 0.930 . S
H276 C258 0.932 . S
H277 C259 0.929 . S
H278 C260 0.928 . S
H279 C262 0.932 . S
C280 C281 1.264 . S
C280 C285 1.479 . S
C280 C290 1.465 . S
C281 C280 1.264 . S
C281 C283 1.339 . S
C281 H308 0.931 . S
C282 C283 1.395 . S
C282 C284 1.320 . S
C283 C281 1.339 . S
C283 C282 1.395 . S
C283 H309 0.929 . S
C284 C282 1.320 . S
C284 C285 1.405 . S
C284 H310 0.930 . S
C285 C280 1.479 . S
C285 C284 1.405 . S
C285 H311 0.931 . S
U286 O287 2.454 . S
U286 O288 2.458 . S
U286 C289 2.984 . S
U286 C290 2.847 . S
U286 C303 2.882 . S
U286 O304 2.441 . S
U286 O305 2.420 . S
U286 O306 2.455 . S
U286 O307 2.449 . S
O287 U286 2.454 . S
O287 C289 1.353 . S
O288 U286 2.458 . S
O288 C289 1.286 . S
C289 U286 2.984 . S
C289 O287 1.353 . S
C289 O288 1.286 . S
C289 C291 1.363 . S
C290 C280 1.465 . S
C290 U286 2.847 . S
C290 O304 1.249 . S
C290 O305 1.202 . S
C291 C289 1.363 . S
C291 C293 1.408 . S
C291 C296 1.342 . S
C292 C293 1.310 . S
C292 C295 1.461 . S
C292 H312 0.932 . S
C293 C291 1.408 . S
C293 C292 1.310 . S
C293 H313 0.930 . S
C294 C295 1.474 . S
C294 C296 1.285 . S
C294 H314 0.929 . S
C295 C292 1.461 . S
C295 C294 1.474 . S
C296 C291 1.342 . S
C296 C294 1.285 . S
C296 H315 0.930 . S
C297 C300 1.424 . S
C297 C302 1.245 . S
C297 C303 1.428 . S
C298 C301 1.260 . S
C298 C302 1.477 . S
C298 H316 0.932 . S
C299 C300 1.384 . S
C299 C301 1.479 . S
C299 H317 0.929 . S
C300 C297 1.424 . S
C300 C299 1.384 . S
C300 H318 0.928 . S
C301 C298 1.260 . S
C301 C299 1.479 . S
C302 C297 1.245 . S
C302 C298 1.477 . S
C302 H319 0.932 . S
C303 U286 2.882 . S
C303 C297 1.428 . S
C303 O306 1.301 . S
C303 O307 1.282 . S
O304 U286 2.441 . S
O304 C290 1.249 . S
O305 U286 2.420 . S
O305 C290 1.202 . S
O306 U286 2.455 . S
O306 C303 1.301 . S
O307 U286 2.449 . S
O307 C303 1.282 . S
H308 C281 0.931 . S
H309 C283 0.929 . S
H310 C284 0.930 . S
H311 C285 0.931 . S
H312 C292 0.932 . S
H313 C293 0.930 . S
H314 C294 0.929 . S
H315 C296 0.930 . S
H316 C298 0.932 . S
H317 C299 0.929 . S
H318 C300 0.928 . S
H319 C302 0.932 . S
Co320 O323 2.042 . S
Co320 O330 2.264 . S
Co320 O349 2.286 . S
Co320 O350 2.069 . S
Co320 O352 2.015 . S
Co321 O323 2.122 . S
Co321 O329 2.073 . S
Co321 O330 2.327 . S
Co321 O331 1.976 . S
Co322 O323 2.087 . S
Co322 O325 2.087 1_455 S
Co322 O332 2.111 . S
Co322 O333 2.143 1_455 S
Co322 O337 2.111 1_455 S
Co322 O351 2.143 . S
O323 Co320 2.042 . S
O323 Co321 2.122 . S
O323 Co322 2.087 . S
O323 H324 0.980 . S
H324 O323 0.980 . S
O325 Co322 2.087 1_655 S
O325 Co326 2.042 . S
O325 Co327 2.122 . S
O325 H328 0.980 . S
Co326 O325 2.042 . S
Co326 O334 2.286 . S
Co326 O335 2.069 . S
Co326 O336 2.015 . S
Co326 O339 2.264 . S
Co327 O325 2.122 . S
Co327 O338 1.976 . S
Co327 O339 2.327 . S
Co327 O340 2.073 . S
H328 O325 0.980 . S
O329 Co321 2.073 . S
O329 C344 1.245 . S
O330 Co320 2.264 . S
O330 Co321 2.327 . S
O330 C344 1.257 . S
O331 Co321 1.976 . S
O331 C343 1.251 . S
O332 Co322 2.111 . S
O332 C343 1.274 . S
O333 Co322 2.143 1_655 S
O333 C346 1.246 . S
O334 Co326 2.286 . S
O334 C345 1.259 . S
O335 Co326 2.069 . S
O335 C345 1.289 . S
O336 Co326 2.015 . S
O336 C346 1.257 . S
O337 Co322 2.111 1_655 S
O337 C347 1.274 . S
O338 Co327 1.976 . S
O338 C347 1.251 . S
O339 Co326 2.264 . S
O339 Co327 2.327 . S
O339 C348 1.257 . S
O340 Co327 2.073 . S
O340 C348 1.245 . S
C341 O349 1.259 . S
C341 O350 1.289 . S
C342 O351 1.246 . S
C342 O352 1.257 . S
C343 O331 1.251 . S
C343 O332 1.274 . S
C344 O329 1.245 . S
C344 O330 1.257 . S
C345 O334 1.259 . S
C345 O335 1.289 . S
C346 O333 1.246 . S
C346 O336 1.257 . S
C347 O337 1.274 . S
C347 O338 1.251 . S
C348 O339 1.257 . S
C348 O340 1.245 . S
O349 Co320 2.286 . S
O349 C341 1.259 . S
O350 Co320 2.069 . S
O350 C341 1.289 . S
O351 Co322 2.143 . S
O351 C342 1.246 . S
O352 Co320 2.015 . S
O352 C342 1.257 . S
Co353 O356 2.042 . S
Co353 O363 2.264 . S
Co353 O382 2.286 . S
Co353 O383 2.069 . S
Co353 O385 2.015 . S
Co354 O356 2.122 . S
Co354 O362 2.073 . S
Co354 O363 2.327 . S
Co354 O364 1.976 . S
Co355 O356 2.087 1_545 S
Co355 O358 2.087 . S
Co355 O365 2.111 1_545 S
Co355 O366 2.143 . S
Co355 O370 2.111 . S
Co355 O384 2.143 1_545 S
O356 Co353 2.042 . S
O356 Co354 2.122 . S
O356 Co355 2.087 1_565 S
O356 H357 0.980 . S
H357 O356 0.980 . S
O358 Co355 2.087 . S
O358 Co359 2.042 . S
O358 Co360 2.122 . S
O358 H361 0.980 . S
Co359 O358 2.042 . S
Co359 O367 2.286 . S
Co359 O368 2.069 . S
Co359 O369 2.015 . S
Co359 O372 2.264 . S
Co360 O358 2.122 . S
Co360 O371 1.976 . S
Co360 O372 2.327 . S
Co360 O373 2.073 . S
H361 O358 0.980 . S
O362 Co354 2.073 . S
O362 C377 1.245 . S
O363 Co353 2.264 . S
O363 Co354 2.327 . S
O363 C377 1.257 . S
O364 Co354 1.976 . S
O364 C376 1.251 . S
O365 Co355 2.111 1_565 S
O365 C376 1.274 . S
O366 Co355 2.143 . S
O366 C379 1.246 . S
O367 Co359 2.286 . S
O367 C378 1.259 . S
O368 Co359 2.069 . S
O368 C378 1.289 . S
O369 Co359 2.015 . S
O369 C379 1.257 . S
O370 Co355 2.111 . S
O370 C380 1.274 . S
O371 Co360 1.976 . S
O371 C380 1.251 . S
O372 Co359 2.264 . S
O372 Co360 2.327 . S
O372 C381 1.257 . S
O373 Co360 2.073 . S
O373 C381 1.245 . S
C374 O382 1.259 . S
C374 O383 1.289 . S
C375 O384 1.246 . S
C375 O385 1.257 . S
C376 O364 1.251 . S
C376 O365 1.274 . S
C377 O362 1.245 . S
C377 O363 1.257 . S
C378 O367 1.259 . S
C378 O368 1.289 . S
C379 O366 1.246 . S
C379 O369 1.257 . S
C380 O370 1.274 . S
C380 O371 1.251 . S
C381 O372 1.257 . S
C381 O373 1.245 . S
O382 Co353 2.286 . S
O382 C374 1.259 . S
O383 Co353 2.069 . S
O383 C374 1.289 . S
O384 Co355 2.143 1_565 S
O384 C375 1.246 . S
O385 Co353 2.015 . S
O385 C375 1.257 . S
Co386 O389 2.042 . S
Co386 O396 2.264 . S
Co386 O415 2.286 . S
Co386 O416 2.069 . S
Co386 O418 2.015 . S
Co387 O389 2.122 . S
Co387 O395 2.073 . S
Co387 O396 2.327 . S
Co387 O397 1.976 . S
Co388 O389 2.087 . S
Co388 O391 2.087 1_554 S
Co388 O398 2.111 . S
Co388 O399 2.143 1_554 S
Co388 O403 2.111 1_554 S
Co388 O417 2.143 . S
O389 Co386 2.042 . S
O389 Co387 2.122 . S
O389 Co388 2.087 . S
O389 H390 0.980 . S
H390 O389 0.980 . S
O391 Co388 2.087 1_556 S
O391 Co392 2.042 . S
O391 Co393 2.122 . S
O391 H394 0.980 . S
Co392 O391 2.042 . S
Co392 O400 2.286 . S
Co392 O401 2.069 . S
Co392 O402 2.015 . S
Co392 O405 2.264 . S
Co393 O391 2.122 . S
Co393 O404 1.976 . S
Co393 O405 2.327 . S
Co393 O406 2.073 . S
H394 O391 0.980 . S
O395 Co387 2.073 . S
O395 C410 1.245 . S
O396 Co386 2.264 . S
O396 Co387 2.327 . S
O396 C410 1.257 . S
O397 Co387 1.976 . S
O397 C409 1.251 . S
O398 Co388 2.111 . S
O398 C409 1.274 . S
O399 Co388 2.143 1_556 S
O399 C412 1.246 . S
O400 Co392 2.286 . S
O400 C411 1.259 . S
O401 Co392 2.069 . S
O401 C411 1.289 . S
O402 Co392 2.015 . S
O402 C412 1.257 . S
O403 Co388 2.111 1_556 S
O403 C413 1.274 . S
O404 Co393 1.976 . S
O404 C413 1.251 . S
O405 Co392 2.264 . S
O405 Co393 2.327 . S
O405 C414 1.257 . S
O406 Co393 2.073 . S
O406 C414 1.245 . S
C407 O415 1.259 . S
C407 O416 1.289 . S
C408 O417 1.246 . S
C408 O418 1.257 . S
C409 O397 1.251 . S
C409 O398 1.274 . S
C410 O395 1.245 . S
C410 O396 1.257 . S
C411 O400 1.259 . S
C411 O401 1.289 . S
C412 O399 1.246 . S
C412 O402 1.257 . S
C413 O403 1.274 . S
C413 O404 1.251 . S
C414 O405 1.257 . S
C414 O406 1.245 . S
O415 Co386 2.286 . S
O415 C407 1.259 . S
O416 Co386 2.069 . S
O416 C407 1.289 . S
O417 Co388 2.143 . S
O417 C408 1.246 . S
O418 Co386 2.015 . S
O418 C408 1.257 . S
H419 C427 0.950 . S
H420 C432 0.950 . S
H421 C429 0.950 . S
H422 C431 0.950 . S
H423 C433 0.950 . S
H424 C435 0.950 . S
H425 C437 0.950 . S
H426 C438 0.950 . S
C427 H419 0.950 . S
C427 C428 1.386 . S
C427 C429 1.391 . S
C428 C427 1.386 . S
C428 C432 1.393 . S
C429 H421 0.950 . S
C429 C427 1.391 . S
C429 C430 1.400 . S
C430 C429 1.400 . S
C430 C431 1.398 . S
C430 C436 1.491 . S
C431 H422 0.950 . S
C431 C430 1.398 . S
C431 C432 1.391 . S
C432 H420 0.950 . S
C432 C428 1.393 . S
C432 C431 1.391 . S
C433 H423 0.950 . S
C433 C434 1.386 . S
C433 C435 1.391 . S
C434 C433 1.386 . S
C434 C438 1.393 . S
C435 H424 0.950 . S
C435 C433 1.391 . S
C435 C436 1.400 . S
C436 C430 1.491 . S
C436 C435 1.400 . S
C436 C437 1.398 . S
C437 H425 0.950 . S
C437 C436 1.398 . S
C437 C438 1.391 . S
C438 H426 0.950 . S
C438 C434 1.393 . S
C438 C437 1.391 . S
H439 C447 0.950 . S
H440 C452 0.950 . S
H441 C449 0.950 . S
H442 C451 0.950 . S
H443 C453 0.950 . S
H444 C455 0.950 . S
H445 C457 0.950 . S
H446 C458 0.950 . S
C447 H439 0.950 . S
C447 C448 1.386 . S
C447 C449 1.391 . S
C448 C447 1.386 . S
C448 C452 1.393 . S
C449 H441 0.950 . S
C449 C447 1.391 . S
C449 C450 1.400 . S
C450 C449 1.400 . S
C450 C451 1.398 . S
C450 C456 1.491 . S
C451 H442 0.950 . S
C451 C450 1.398 . S
C451 C452 1.391 . S
C452 H440 0.950 . S
C452 C448 1.393 . S
C452 C451 1.391 . S
C453 H443 0.950 . S
C453 C454 1.386 . S
C453 C455 1.391 . S
C454 C453 1.386 . S
C454 C458 1.393 . S
C455 H444 0.950 . S
C455 C453 1.391 . S
C455 C456 1.400 . S
C456 C450 1.491 . S
C456 C455 1.400 . S
C456 C457 1.398 . S
C457 H445 0.950 . S
C457 C456 1.398 . S
C457 C458 1.391 . S
C458 H446 0.950 . S
C458 C454 1.393 . S
C458 C457 1.391 . S
H459 C467 0.950 . S
H460 C472 0.950 . S
H461 C469 0.950 . S
H462 C471 0.950 . S
H463 C473 0.950 . S
H464 C475 0.950 . S
H465 C477 0.950 . S
H466 C478 0.950 . S
C467 H459 0.950 . S
C467 C468 1.386 . S
C467 C469 1.391 . S
C468 C467 1.386 . S
C468 C472 1.393 . S
C469 H461 0.950 . S
C469 C467 1.391 . S
C469 C470 1.400 . S
C470 C469 1.400 . S
C470 C471 1.398 . S
C470 C476 1.491 . S
C471 H462 0.950 . S
C471 C470 1.398 . S
C471 C472 1.391 . S
C472 H460 0.950 . S
C472 C468 1.393 . S
C472 C471 1.391 . S
C473 H463 0.950 . S
C473 C474 1.386 . S
C473 C475 1.391 . S
C474 C473 1.386 . S
C474 C478 1.393 . S
C475 H464 0.950 . S
C475 C473 1.391 . S
C475 C476 1.400 . S
C476 C470 1.491 . S
C476 C475 1.400 . S
C476 C477 1.398 . S
C477 H465 0.950 . S
C477 C476 1.398 . S
C477 C478 1.391 . S
C478 H466 0.950 . S
C478 C474 1.393 . S
C478 C477 1.391 . S
H479 C487 0.950 . S
H480 C492 0.950 . S
H481 C489 0.950 . S
H482 C491 0.950 . S
H483 C493 0.950 . S
H484 C495 0.950 . S
H485 C497 0.950 . S
H486 C498 0.950 . S
C487 H479 0.950 . S
C487 C488 1.386 . S
C487 C489 1.391 . S
C488 C487 1.386 . S
C488 C492 1.393 . S
C489 H481 0.950 . S
C489 C487 1.391 . S
C489 C490 1.400 . S
C490 C489 1.400 . S
C490 C491 1.398 . S
C490 C496 1.491 . S
C491 H482 0.950 . S
C491 C490 1.398 . S
C491 C492 1.391 . S
C492 H480 0.950 . S
C492 C488 1.393 . S
C492 C491 1.391 . S
C493 H483 0.950 . S
C493 C494 1.386 . S
C493 C495 1.391 . S
C494 C493 1.386 . S
C494 C498 1.393 . S
C495 H484 0.950 . S
C495 C493 1.391 . S
C495 C496 1.400 . S
C496 C490 1.491 . S
C496 C495 1.400 . S
C496 C497 1.398 . S
C497 H485 0.950 . S
C497 C496 1.398 . S
C497 C498 1.391 . S
C498 H486 0.950 . S
C498 C494 1.393 . S
C498 C497 1.391 . S
H499 C507 0.950 . S
H500 C512 0.950 . S
H501 C509 0.950 . S
H502 C511 0.950 . S
H503 C513 0.950 . S
H504 C515 0.950 . S
H505 C517 0.950 . S
H506 C518 0.950 . S
C507 H499 0.950 . S
C507 C508 1.386 . S
C507 C509 1.391 . S
C508 C507 1.386 . S
C508 C512 1.393 . S
C509 H501 0.950 . S
C509 C507 1.391 . S
C509 C510 1.400 . S
C510 C509 1.400 . S
C510 C511 1.398 . S
C510 C516 1.491 . S
C511 H502 0.950 . S
C511 C510 1.398 . S
C511 C512 1.391 . S
C512 H500 0.950 . S
C512 C508 1.393 . S
C512 C511 1.391 . S
C513 H503 0.950 . S
C513 C514 1.386 . S
C513 C515 1.391 . S
C514 C513 1.386 . S
C514 C518 1.393 . S
C515 H504 0.950 . S
C515 C513 1.391 . S
C515 C516 1.400 . S
C516 C510 1.491 . S
C516 C515 1.400 . S
C516 C517 1.398 . S
C517 H505 0.950 . S
C517 C516 1.398 . S
C517 C518 1.391 . S
C518 H506 0.950 . S
C518 C514 1.393 . S
C518 C517 1.391 . S
H519 C527 0.950 . S
H520 C532 0.950 . S
H521 C529 0.950 . S
H522 C531 0.950 . S
H523 C533 0.950 . S
H524 C535 0.950 . S
H525 C537 0.950 . S
H526 C538 0.950 . S
C527 H519 0.950 . S
C527 C528 1.386 . S
C527 C529 1.391 . S
C528 C527 1.386 . S
C528 C532 1.393 . S
C529 H521 0.950 . S
C529 C527 1.391 . S
C529 C530 1.400 . S
C530 C529 1.400 . S
C530 C531 1.398 . S
C530 C536 1.491 . S
C531 H522 0.950 . S
C531 C530 1.398 . S
C531 C532 1.391 . S
C532 H520 0.950 . S
C532 C528 1.393 . S
C532 C531 1.391 . S
C533 H523 0.950 . S
C533 C534 1.386 . S
C533 C535 1.391 . S
C534 C533 1.386 . S
C534 C538 1.393 . S
C535 H524 0.950 . S
C535 C533 1.391 . S
C535 C536 1.400 . S
C536 C530 1.491 . S
C536 C535 1.400 . S
C536 C537 1.398 . S
C537 H525 0.950 . S
C537 C536 1.398 . S
C537 C538 1.391 . S
C538 H526 0.950 . S
C538 C534 1.393 . S
C538 C537 1.391 . S
H539 C547 0.950 . S
H540 C552 0.950 . S
H541 C549 0.950 . S
H542 C551 0.950 . S
H543 C553 0.950 . S
H544 C555 0.950 . S
H545 C557 0.950 . S
H546 C558 0.950 . S
C547 H539 0.950 . S
C547 C548 1.386 . S
C547 C549 1.391 . S
C548 C547 1.386 . S
C548 C552 1.393 . S
C549 H541 0.950 . S
C549 C547 1.391 . S
C549 C550 1.400 . S
C550 C549 1.400 . S
C550 C551 1.398 . S
C550 C556 1.491 . S
C551 H542 0.950 . S
C551 C550 1.398 . S
C551 C552 1.391 . S
C552 H540 0.950 . S
C552 C548 1.393 . S
C552 C551 1.391 . S
C553 H543 0.950 . S
C553 C554 1.386 . S
C553 C555 1.391 . S
C554 C553 1.386 . S
C554 C558 1.393 . S
C555 H544 0.950 . S
C555 C553 1.391 . S
C555 C556 1.400 . S
C556 C550 1.491 . S
C556 C555 1.400 . S
C556 C557 1.398 . S
C557 H545 0.950 . S
C557 C556 1.398 . S
C557 C558 1.391 . S
C558 H546 0.950 . S
C558 C554 1.393 . S
C558 C557 1.391 . S
H559 C567 0.950 . S
H560 C572 0.950 . S
H561 C569 0.950 . S
H562 C571 0.950 . S
H563 C573 0.950 . S
H564 C575 0.950 . S
H565 C577 0.950 . S
H566 C578 0.950 . S
C567 H559 0.950 . S
C567 C568 1.386 . S
C567 C569 1.391 . S
C568 C567 1.386 . S
C568 C572 1.393 . S
C569 H561 0.950 . S
C569 C567 1.391 . S
C569 C570 1.400 . S
C570 C569 1.400 . S
C570 C571 1.398 . S
C570 C576 1.491 . S
C571 H562 0.950 . S
C571 C570 1.398 . S
C571 C572 1.391 . S
C572 H560 0.950 . S
C572 C568 1.393 . S
C572 C571 1.391 . S
C573 H563 0.950 . S
C573 C574 1.386 . S
C573 C575 1.391 . S
C574 C573 1.386 . S
C574 C578 1.393 . S
C575 H564 0.950 . S
C575 C573 1.391 . S
C575 C576 1.400 . S
C576 C570 1.491 . S
C576 C575 1.400 . S
C576 C577 1.398 . S
C577 H565 0.950 . S
C577 C576 1.398 . S
C577 C578 1.391 . S
C578 H566 0.950 . S
C578 C574 1.393 . S
C578 C577 1.391 . S
H579 C587 0.950 . S
H580 C592 0.950 . S
H581 C589 0.950 . S
H582 C591 0.950 . S
H583 C593 0.950 . S
H584 C595 0.950 . S
H585 C597 0.950 . S
H586 C598 0.950 . S
C587 H579 0.950 . S
C587 C588 1.386 . S
C587 C589 1.391 . S
C588 C587 1.386 . S
C588 C592 1.393 . S
C589 H581 0.950 . S
C589 C587 1.391 . S
C589 C590 1.400 . S
C590 C589 1.400 . S
C590 C591 1.398 . S
C590 C596 1.491 . S
C591 H582 0.950 . S
C591 C590 1.398 . S
C591 C592 1.391 . S
C592 H580 0.950 . S
C592 C588 1.393 . S
C592 C591 1.391 . S
C593 H583 0.950 . S
C593 C594 1.386 . S
C593 C595 1.391 . S
C594 C593 1.386 . S
C594 C598 1.393 . S
C595 H584 0.950 . S
C595 C593 1.391 . S
C595 C596 1.400 . S
C596 C590 1.491 . S
C596 C595 1.400 . S
C596 C597 1.398 . S
C597 H585 0.950 . S
C597 C596 1.398 . S
C597 C598 1.391 . S
C598 H586 0.950 . S
C598 C594 1.393 . S
C598 C597 1.391 . S
H599 C607 0.950 . S
H600 C612 0.950 . S
H601 C609 0.950 . S
H602 C611 0.950 . S
H603 C613 0.950 . S
H604 C615 0.950 . S
H605 C617 0.950 . S
H606 C618 0.950 . S
C607 H599 0.950 . S
C607 C608 1.386 . S
C607 C609 1.391 . S
C608 C607 1.386 . S
C608 C612 1.393 . S
C609 H601 0.950 . S
C609 C607 1.391 . S
C609 C610 1.400 . S
C610 C609 1.400 . S
C610 C611 1.398 . S
C610 C616 1.491 . S
C611 H602 0.950 . S
C611 C610 1.398 . S
C611 C612 1.391 . S
C612 H600 0.950 . S
C612 C608 1.393 . S
C612 C611 1.391 . S
C613 H603 0.950 . S
C613 C614 1.386 . S
C613 C615 1.391 . S
C614 C613 1.386 . S
C614 C618 1.393 . S
C615 H604 0.950 . S
C615 C613 1.391 . S
C615 C616 1.400 . S
C616 C610 1.491 . S
C616 C615 1.400 . S
C616 C617 1.398 . S
C617 H605 0.950 . S
C617 C616 1.398 . S
C617 C618 1.391 . S
C618 H606 0.950 . S
C618 C614 1.393 . S
C618 C617 1.391 . S
H619 C627 0.950 . S
H620 C632 0.950 . S
H621 C629 0.950 . S
H622 C631 0.950 . S
H623 C633 0.950 . S
H624 C635 0.950 . S
H625 C637 0.950 . S
H626 C638 0.950 . S
C627 H619 0.950 . S
C627 C628 1.386 . S
C627 C629 1.391 . S
C628 C627 1.386 . S
C628 C632 1.393 . S
C629 H621 0.950 . S
C629 C627 1.391 . S
C629 C630 1.400 . S
C630 C629 1.400 . S
C630 C631 1.398 . S
C630 C636 1.491 . S
C631 H622 0.950 . S
C631 C630 1.398 . S
C631 C632 1.391 . S
C632 H620 0.950 . S
C632 C628 1.393 . S
C632 C631 1.391 . S
C633 H623 0.950 . S
C633 C634 1.386 . S
C633 C635 1.391 . S
C634 C633 1.386 . S
C634 C638 1.393 . S
C635 H624 0.950 . S
C635 C633 1.391 . S
C635 C636 1.400 . S
C636 C630 1.491 . S
C636 C635 1.400 . S
C636 C637 1.398 . S
C637 H625 0.950 . S
C637 C636 1.398 . S
C637 C638 1.391 . S
C638 H626 0.950 . S
C638 C634 1.393 . S
C638 C637 1.391 . S
H639 C647 0.950 . S
H640 C652 0.950 . S
H641 C649 0.950 . S
H642 C651 0.950 . S
H643 C653 0.950 . S
H644 C655 0.950 . S
H645 C657 0.950 . S
H646 C658 0.950 . S
C647 H639 0.950 . S
C647 C648 1.386 . S
C647 C649 1.391 . S
C648 C647 1.386 . S
C648 C652 1.393 . S
C649 H641 0.950 . S
C649 C647 1.391 . S
C649 C650 1.400 . S
C650 C649 1.400 . S
C650 C651 1.398 . S
C650 C656 1.491 . S
C651 H642 0.950 . S
C651 C650 1.398 . S
C651 C652 1.391 . S
C652 H640 0.950 . S
C652 C648 1.393 . S
C652 C651 1.391 . S
C653 H643 0.950 . S
C653 C654 1.386 . S
C653 C655 1.391 . S
C654 C653 1.386 . S
C654 C658 1.393 . S
C655 H644 0.950 . S
C655 C653 1.391 . S
C655 C656 1.400 . S
C656 C650 1.491 . S
C656 C655 1.400 . S
C656 C657 1.398 . S
C657 H645 0.950 . S
C657 C656 1.398 . S
C657 C658 1.391 . S
C658 H646 0.950 . S
C658 C654 1.393 . S
C658 C657 1.391 . S
H659 C667 0.950 . S
H660 C672 0.950 . S
H661 C669 0.950 . S
H662 C671 0.950 . S
H663 C673 0.950 . S
H664 C675 0.950 . S
H665 C677 0.950 . S
H666 C678 0.950 . S
C667 H659 0.950 . S
C667 C668 1.386 . S
C667 C669 1.391 . S
C668 C667 1.386 . S
C668 C672 1.393 . S
C669 H661 0.950 . S
C669 C667 1.391 . S
C669 C670 1.400 . S
C670 C669 1.400 . S
C670 C671 1.398 . S
C670 C676 1.491 . S
C671 H662 0.950 . S
C671 C670 1.398 . S
C671 C672 1.391 . S
C672 H660 0.950 . S
C672 C668 1.393 . S
C672 C671 1.391 . S
C673 H663 0.950 . S
C673 C674 1.386 . S
C673 C675 1.391 . S
C674 C673 1.386 . S
C674 C678 1.393 . S
C675 H664 0.950 . S
C675 C673 1.391 . S
C675 C676 1.400 . S
C676 C670 1.491 . S
C676 C675 1.400 . S
C676 C677 1.398 . S
C677 H665 0.950 . S
C677 C676 1.398 . S
C677 C678 1.391 . S
C678 H666 0.950 . S
C678 C674 1.393 . S
C678 C677 1.391 . S
H679 C687 0.950 . S
H680 C692 0.950 . S
H681 C689 0.950 . S
H682 C691 0.950 . S
H683 C693 0.950 . S
H684 C695 0.950 . S
H685 C697 0.950 . S
H686 C698 0.950 . S
C687 H679 0.950 . S
C687 C688 1.386 . S
C687 C689 1.391 . S
C688 C687 1.386 . S
C688 C692 1.393 . S
C689 H681 0.950 . S
C689 C687 1.391 . S
C689 C690 1.400 . S
C690 C689 1.400 . S
C690 C691 1.398 . S
C690 C696 1.491 . S
C691 H682 0.950 . S
C691 C690 1.398 . S
C691 C692 1.391 . S
C692 H680 0.950 . S
C692 C688 1.393 . S
C692 C691 1.391 . S
C693 H683 0.950 . S
C693 C694 1.386 . S
C693 C695 1.391 . S
C694 C693 1.386 . S
C694 C698 1.393 . S
C695 H684 0.950 . S
C695 C693 1.391 . S
C695 C696 1.400 . S
C696 C690 1.491 . S
C696 C695 1.400 . S
C696 C697 1.398 . S
C697 H685 0.950 . S
C697 C696 1.398 . S
C697 C698 1.391 . S
C698 H686 0.950 . S
C698 C694 1.393 . S
C698 C697 1.391 . S
H699 C707 0.950 . S
H700 C712 0.950 . S
H701 C709 0.950 . S
H702 C711 0.950 . S
H703 C713 0.950 . S
H704 C715 0.950 . S
H705 C717 0.950 . S
H706 C718 0.950 . S
C707 H699 0.950 . S
C707 C708 1.386 . S
C707 C709 1.391 . S
C708 C707 1.386 . S
C708 C712 1.393 . S
C709 H701 0.950 . S
C709 C707 1.391 . S
C709 C710 1.400 . S
C710 C709 1.400 . S
C710 C711 1.398 . S
C710 C716 1.491 . S
C711 H702 0.950 . S
C711 C710 1.398 . S
C711 C712 1.391 . S
C712 H700 0.950 . S
C712 C708 1.393 . S
C712 C711 1.391 . S
C713 H703 0.950 . S
C713 C714 1.386 . S
C713 C715 1.391 . S
C714 C713 1.386 . S
C714 C718 1.393 . S
C715 H704 0.950 . S
C715 C713 1.391 . S
C715 C716 1.400 . S
C716 C710 1.491 . S
C716 C715 1.400 . S
C716 C717 1.398 . S
C717 H705 0.950 . S
C717 C716 1.398 . S
C717 C718 1.391 . S
C718 H706 0.950 . S
C718 C714 1.393 . S
C718 C717 1.391 . S
H719 C727 0.950 . S
H720 C732 0.950 . S
H721 C729 0.950 . S
H722 C731 0.950 . S
H723 C733 0.950 . S
H724 C735 0.950 . S
H725 C737 0.950 . S
H726 C738 0.950 . S
C727 H719 0.950 . S
C727 C728 1.386 . S
C727 C729 1.391 . S
C728 C727 1.386 . S
C728 C732 1.393 . S
C729 H721 0.950 . S
C729 C727 1.391 . S
C729 C730 1.400 . S
C730 C729 1.400 . S
C730 C731 1.398 . S
C730 C736 1.491 . S
C731 H722 0.950 . S
C731 C730 1.398 . S
C731 C732 1.391 . S
C732 H720 0.950 . S
C732 C728 1.393 . S
C732 C731 1.391 . S
C733 H723 0.950 . S
C733 C734 1.386 . S
C733 C735 1.391 . S
C734 C733 1.386 . S
C734 C738 1.393 . S
C735 H724 0.950 . S
C735 C733 1.391 . S
C735 C736 1.400 . S
C736 C730 1.491 . S
C736 C735 1.400 . S
C736 C737 1.398 . S
C737 H725 0.950 . S
C737 C736 1.398 . S
C737 C738 1.391 . S
C738 H726 0.950 . S
C738 C734 1.393 . S
C738 C737 1.391 . S
H739 C747 0.950 . S
H740 C752 0.950 . S
H741 C749 0.950 . S
H742 C751 0.950 . S
H743 C753 0.950 . S
H744 C755 0.950 . S
H745 C757 0.950 . S
H746 C758 0.950 . S
C747 H739 0.950 . S
C747 C748 1.386 . S
C747 C749 1.391 . S
C748 C747 1.386 . S
C748 C752 1.393 . S
C749 H741 0.950 . S
C749 C747 1.391 . S
C749 C750 1.400 . S
C750 C749 1.400 . S
C750 C751 1.398 . S
C750 C756 1.491 . S
C751 H742 0.950 . S
C751 C750 1.398 . S
C751 C752 1.391 . S
C752 H740 0.950 . S
C752 C748 1.393 . S
C752 C751 1.391 . S
C753 H743 0.950 . S
C753 C754 1.386 . S
C753 C755 1.391 . S
C754 C753 1.386 . S
C754 C758 1.393 . S
C755 H744 0.950 . S
C755 C753 1.391 . S
C755 C756 1.400 . S
C756 C750 1.491 . S
C756 C755 1.400 . S
C756 C757 1.398 . S
C757 H745 0.950 . S
C757 C756 1.398 . S
C757 C758 1.391 . S
C758 H746 0.950 . S
C758 C754 1.393 . S
C758 C757 1.391 . S
H759 C767 0.950 . S
H760 C772 0.950 . S
H761 C769 0.950 . S
H762 C771 0.950 . S
H763 C773 0.950 . S
H764 C775 0.950 . S
H765 C777 0.950 . S
H766 C778 0.950 . S
C767 H759 0.950 . S
C767 C768 1.386 . S
C767 C769 1.391 . S
C768 C767 1.386 . S
C768 C772 1.393 . S
C769 H761 0.950 . S
C769 C767 1.391 . S
C769 C770 1.400 . S
C770 C769 1.400 . S
C770 C771 1.398 . S
C770 C776 1.491 . S
C771 H762 0.950 . S
C771 C770 1.398 . S
C771 C772 1.391 . S
C772 H760 0.950 . S
C772 C768 1.393 . S
C772 C771 1.391 . S
C773 H763 0.950 . S
C773 C774 1.386 . S
C773 C775 1.391 . S
C774 C773 1.386 . S
C774 C778 1.393 . S
C775 H764 0.950 . S
C775 C773 1.391 . S
C775 C776 1.400 . S
C776 C770 1.491 . S
C776 C775 1.400 . S
C776 C777 1.398 . S
C777 H765 0.950 . S
C777 C776 1.398 . S
C777 C778 1.391 . S
C778 H766 0.950 . S
C778 C774 1.393 . S
C778 C777 1.391 . S
H779 C787 0.950 . S
H780 C792 0.950 . S
H781 C789 0.950 . S
H782 C791 0.950 . S
H783 C793 0.950 . S
H784 C795 0.950 . S
H785 C797 0.950 . S
H786 C798 0.950 . S
C787 H779 0.950 . S
C787 C788 1.386 . S
C787 C789 1.391 . S
C788 C787 1.386 . S
C788 C792 1.393 . S
C789 H781 0.950 . S
C789 C787 1.391 . S
C789 C790 1.400 . S
C790 C789 1.400 . S
C790 C791 1.398 . S
C790 C796 1.491 . S
C791 H782 0.950 . S
C791 C790 1.398 . S
C791 C792 1.391 . S
C792 H780 0.950 . S
C792 C788 1.393 . S
C792 C791 1.391 . S
C793 H783 0.950 . S
C793 C794 1.386 . S
C793 C795 1.391 . S
C794 C793 1.386 . S
C794 C798 1.393 . S
C795 H784 0.950 . S
C795 C793 1.391 . S
C795 C796 1.400 . S
C796 C790 1.491 . S
C796 C795 1.400 . S
C796 C797 1.398 . S
C797 H785 0.950 . S
C797 C796 1.398 . S
C797 C798 1.391 . S
C798 H786 0.950 . S
C798 C794 1.393 . S
C798 C797 1.391 . S
H799 C807 0.950 . S
H800 C812 0.950 . S
H801 C809 0.950 . S
H802 C811 0.950 . S
H803 C813 0.950 . S
H804 C815 0.950 . S
H805 C817 0.950 . S
H806 C818 0.950 . S
C807 H799 0.950 . S
C807 C808 1.386 . S
C807 C809 1.391 . S
C808 C807 1.386 . S
C808 C812 1.393 . S
C809 H801 0.950 . S
C809 C807 1.391 . S
C809 C810 1.400 . S
C810 C809 1.400 . S
C810 C811 1.398 . S
C810 C816 1.491 . S
C811 H802 0.950 . S
C811 C810 1.398 . S
C811 C812 1.391 . S
C812 H800 0.950 . S
C812 C808 1.393 . S
C812 C811 1.391 . S
C813 H803 0.950 . S
C813 C814 1.386 . S
C813 C815 1.391 . S
C814 C813 1.386 . S
C814 C818 1.393 . S
C815 H804 0.950 . S
C815 C813 1.391 . S
C815 C816 1.400 . S
C816 C810 1.491 . S
C816 C815 1.400 . S
C816 C817 1.398 . S
C817 H805 0.950 . S
C817 C816 1.398 . S
C817 C818 1.391 . S
C818 H806 0.950 . S
C818 C814 1.393 . S
C818 C817 1.391 . S
H819 C827 0.950 . S
H820 C832 0.950 . S
H821 C829 0.950 . S
H822 C831 0.950 . S
H823 C833 0.950 . S
H824 C835 0.950 . S
H825 C837 0.950 . S
H826 C838 0.950 . S
C827 H819 0.950 . S
C827 C828 1.386 . S
C827 C829 1.391 . S
C828 C827 1.386 . S
C828 C832 1.393 . S
C829 H821 0.950 . S
C829 C827 1.391 . S
C829 C830 1.400 . S
C830 C829 1.400 . S
C830 C831 1.398 . S
C830 C836 1.491 . S
C831 H822 0.950 . S
C831 C830 1.398 . S
C831 C832 1.391 . S
C832 H820 0.950 . S
C832 C828 1.393 . S
C832 C831 1.391 . S
C833 H823 0.950 . S
C833 C834 1.386 . S
C833 C835 1.391 . S
C834 C833 1.386 . S
C834 C838 1.393 . S
C835 H824 0.950 . S
C835 C833 1.391 . S
C835 C836 1.400 . S
C836 C830 1.491 . S
C836 C835 1.400 . S
C836 C837 1.398 . S
C837 H825 0.950 . S
C837 C836 1.398 . S
C837 C838 1.391 . S
C838 H826 0.950 . S
C838 C834 1.393 . S
C838 C837 1.391 . S
H839 C847 0.950 . S
H840 C852 0.950 . S
H841 C849 0.950 . S
H842 C851 0.950 . S
H843 C853 0.950 . S
H844 C855 0.950 . S
H845 C857 0.950 . S
H846 C858 0.950 . S
C847 H839 0.950 . S
C847 C848 1.386 . S
C847 C849 1.391 . S
C848 C847 1.386 . S
C848 C852 1.393 . S
C849 H841 0.950 . S
C849 C847 1.391 . S
C849 C850 1.400 . S
C850 C849 1.400 . S
C850 C851 1.398 . S
C850 C856 1.491 . S
C851 H842 0.950 . S
C851 C850 1.398 . S
C851 C852 1.391 . S
C852 H840 0.950 . S
C852 C848 1.393 . S
C852 C851 1.391 . S
C853 H843 0.950 . S
C853 C854 1.386 . S
C853 C855 1.391 . S
C854 C853 1.386 . S
C854 C858 1.393 . S
C855 H844 0.950 . S
C855 C853 1.391 . S
C855 C856 1.400 . S
C856 C850 1.491 . S
C856 C855 1.400 . S
C856 C857 1.398 . S
C857 H845 0.950 . S
C857 C856 1.398 . S
C857 C858 1.391 . S
C858 H846 0.950 . S
C858 C854 1.393 . S
C858 C857 1.391 . S
H859 C867 0.950 . S
H860 C872 0.950 . S
H861 C869 0.950 . S
H862 C871 0.950 . S
H863 C873 0.950 . S
H864 C875 0.950 . S
H865 C877 0.950 . S
H866 C878 0.950 . S
C867 H859 0.950 . S
C867 C868 1.386 . S
C867 C869 1.391 . S
C868 C867 1.386 . S
C868 C872 1.393 . S
C869 H861 0.950 . S
C869 C867 1.391 . S
C869 C870 1.400 . S
C870 C869 1.400 . S
C870 C871 1.398 . S
C870 C876 1.491 . S
C871 H862 0.950 . S
C871 C870 1.398 . S
C871 C872 1.391 . S
C872 H860 0.950 . S
C872 C868 1.393 . S
C872 C871 1.391 . S
C873 H863 0.950 . S
C873 C874 1.386 . S
C873 C875 1.391 . S
C874 C873 1.386 . S
C874 C878 1.393 . S
C875 H864 0.950 . S
C875 C873 1.391 . S
C875 C876 1.400 . S
C876 C870 1.491 . S
C876 C875 1.400 . S
C876 C877 1.398 . S
C877 H865 0.950 . S
C877 C876 1.398 . S
C877 C878 1.391 . S
C878 H866 0.950 . S
C878 C874 1.393 . S
C878 C877 1.391 . S
H879 C887 0.950 . S
H880 C892 0.950 . S
H881 C889 0.950 . S
H882 C891 0.950 . S
H883 C893 0.950 . S
H884 C895 0.950 . S
H885 C897 0.950 . S
H886 C898 0.950 . S
C887 H879 0.950 . S
C887 C888 1.386 . S
C887 C889 1.391 . S
C888 C887 1.386 . S
C888 C892 1.393 . S
C889 H881 0.950 . S
C889 C887 1.391 . S
C889 C890 1.400 . S
C890 C889 1.400 . S
C890 C891 1.398 . S
C890 C896 1.491 . S
C891 H882 0.950 . S
C891 C890 1.398 . S
C891 C892 1.391 . S
C892 H880 0.950 . S
C892 C888 1.393 . S
C892 C891 1.391 . S
C893 H883 0.950 . S
C893 C894 1.386 . S
C893 C895 1.391 . S
C894 C893 1.386 . S
C894 C898 1.393 . S
C895 H884 0.950 . S
C895 C893 1.391 . S
C895 C896 1.400 . S
C896 C890 1.491 . S
C896 C895 1.400 . S
C896 C897 1.398 . S
C897 H885 0.950 . S
C897 C896 1.398 . S
C897 C898 1.391 . S
C898 H886 0.950 . S
C898 C894 1.393 . S
C898 C897 1.391 . S
C434 C344 1.071 . S
C428 C15 1.123 . S
C454 C380 1.614 . S
C448 C55 1.699 . S
C474 C345 1.470 . S
C468 C101 1.479 . S
C494 C375 1.608 . S
C488 C141 1.576 . S
C514 C342 1.462 . S
C508 C162 1.518 . S
C528 C215 1.754 . S
C534 C378 1.760 . S
C548 C261 1.205 . S
C554 C347 1.129 . S
C574 C377 1.447 . S
C568 C282 1.461 . S
C594 C381 1.490 . S
C588 C2 1.537 . S
C614 C346 1.508 . S
C608 C61 1.489 . S
C634 C374 1.764 . S
C628 C95 1.736 . S
C654 C343 1.064 . S
C648 C122 1.155 . S
C674 C376 1.658 . S
C668 C181 1.779 . S
C688 C202 1.484 . S
C694 C341 1.466 . S
C708 C242 1.537 . S
C714 C379 1.570 . S
C734 C348 1.013 . S
C728 C295 1.061 . S
C754 C410 1.764 . S
C748 C21 1.862 . S
C768 C175 1.972 . S
C774 C413 1.856 . S
C794 C412 1.806 . S
C788 C221 1.884 . S
C808 C255 2.105 . S
C814 C411 2.114 . S
C834 C414 1.701 . S
C828 C301 1.790 . S
C848 C82 1.780 . S
C854 C408 1.715 . S
C874 C407 2.126 . S
C868 C135 2.131 . S
C888 C42 1.959 . S
C894 C409 1.910 . S
