# Generated by pormake.
# Topology rtl, (3,6)-cn, num edge types: 1
# Building blocks:
#     Node 0, Type 0, BuildingBlock: WUSLED_clean_sbu_0, # of connection points: 3
#     Node 1, Type 0, BuildingBlock: WUSLED_clean_sbu_0, # of connection points: 3
#     Node 2, Type 0, BuildingBlock: WUSLED_clean_sbu_0, # of connection points: 3
#     Node 3, Type 0, BuildingBlock: WUSLED_clean_sbu_0, # of connection points: 3
#     Node 4, Type 1, BuildingBlock: VOLQOD_clean_sbu_1, # of connection points: 6
#     Node 5, Type 1, BuildingBlock: VOLQOD_clean_sbu_1, # of connection points: 6
#     Edge 6, Type (0, 1), BuildingBlock: OJICUG_clean_linker_0, # of connection points: 2
#     Edge 7, Type (0, 1), BuildingBlock: OJICUG_clean_linker_0, # of connection points: 2
#     Edge 8, Type (0, 1), BuildingBlock: OJICUG_clean_linker_0, # of connection points: 2
#     Edge 9, Type (0, 1), BuildingBlock: OJICUG_clean_linker_0, # of connection points: 2
#     Edge 10, Type (0, 1), BuildingBlock: OJICUG_clean_linker_0, # of connection points: 2
#     Edge 11, Type (0, 1), BuildingBlock: OJICUG_clean_linker_0, # of connection points: 2
#     Edge 12, Type (0, 1), BuildingBlock: OJICUG_clean_linker_0, # of connection points: 2
#     Edge 13, Type (0, 1), BuildingBlock: OJICUG_clean_linker_0, # of connection points: 2
#     Edge 14, Type (0, 1), BuildingBlock: OJICUG_clean_linker_0, # of connection points: 2
#     Edge 15, Type (0, 1), BuildingBlock: OJICUG_clean_linker_0, # of connection points: 2
#     Edge 16, Type (0, 1), BuildingBlock: OJICUG_clean_linker_0, # of connection points: 2
#     Edge 17, Type (0, 1), BuildingBlock: OJICUG_clean_linker_0, # of connection points: 2
# Relax obj value: 0.076
# Max RMSD: 0.155
# Mean RMSD: 0.087
data_MOF--net-rtl--node1-WUSLED_clean_sbu_0--node2-VOLQOD_clean_sbu_1--edge1-OJICUG_clean_linker_0
_symmetry_space_group_name_H-M    P1
_symmetry_Int_Tables_number       1
_symmetry_cell_setting            triclinic
loop_
_symmetry_equiv_pos_as_xyz
'x, y, z'
_cell_length_a     38.416004
_cell_length_b     33.433079
_cell_length_c     24.653774
_cell_angle_alpha  90.461177
_cell_angle_beta   90.781466
_cell_angle_gamma 90.057746
loop_
_atom_site_label
_atom_site_type_symbol
_atom_site_fract_x
_atom_site_fract_y
_atom_site_fract_z
_atom_type_partial_charge
C0 C 0.15009 0.79459 0.17719 0.0
C1 C 0.11461 0.78837 0.18793 0.0
C2 C 0.11664 0.83946 0.25884 0.0
C3 C 0.09811 0.81047 0.22857 0.0
C4 C 0.15225 0.84495 0.24896 0.0
C5 C 0.16883 0.82257 0.20879 0.0
U6 U 0.15875 0.7748 0.02615 0.0
O7 O 0.20489 0.77401 0.97463 0.0
O8 O 0.17192 0.72049 0.97957 0.0
C9 C 0.20111 0.73597 0.96199 0.0
C10 C 0.16758 0.77399 0.13173 0.0
C11 C 0.23236 0.71126 0.96967 0.0
C12 C 0.28282 0.69134 0.02343 0.0
C13 C 0.2523 0.71378 0.0177 0.0
C14 C 0.27324 0.66288 0.93374 0.0
C15 C 0.29382 0.66583 0.98131 0.0
C16 C 0.24284 0.68547 0.92799 0.0
C17 C 0.09572 0.83057 0.93176 0.0
C18 C 0.09957 0.82865 0.83341 0.0
C19 C 0.0629 0.87778 0.87744 0.0
C20 C 0.07215 0.86232 0.92797 0.0
C21 C 0.07707 0.86169 0.82975 0.0
C22 C 0.10905 0.81331 0.88425 0.0
C23 C 0.10821 0.81856 0.98569 0.0
O24 O 0.14945 0.74659 0.10505 0.0
O25 O 0.18526 0.79754 0.09972 0.0
O26 O 0.13885 0.83304 0.99969 0.0
O27 O 0.10426 0.7807 0.99832 0.0
H28 H 0.09936 0.76708 0.1643 0.0
H29 H 0.07059 0.80578 0.23515 0.0
H30 H 0.16727 0.86672 0.27217 0.0
H31 H 0.19622 0.82777 0.2016 0.0
H32 H 0.29816 0.69467 0.06036 0.0
H33 H 0.24451 0.73351 0.05043 0.0
H34 H 0.28054 0.643 0.90094 0.0
H35 H 0.22762 0.68301 0.89078 0.0
H36 H 0.11095 0.81586 0.79725 0.0
H37 H 0.04519 0.90295 0.8757 0.0
H38 H 0.06169 0.876 0.96426 0.0
H39 H 0.12752 0.7889 0.88663 0.0
C40 C 0.65823 0.7115 0.67356 0.0
C41 C 0.63184 0.68404 0.66001 0.0
C42 C 0.62059 0.67322 0.75572 0.0
C43 C 0.61324 0.66504 0.70066 0.0
C44 C 0.64696 0.70104 0.76906 0.0
C45 C 0.66564 0.72004 0.72821 0.0
U46 U 0.67167 0.72666 0.52455 0.0
O47 O 0.68474 0.78031 0.47761 0.0
O48 O 0.71884 0.72764 0.47529 0.0
C49 C 0.71473 0.76542 0.46222 0.0
C50 C 0.67807 0.7307 0.63045 0.0
C51 C 0.74524 0.79137 0.47161 0.0
C52 C 0.79692 0.81 0.52397 0.0
C53 C 0.76764 0.78561 0.51636 0.0
C54 C 0.78123 0.84694 0.4431 0.0
C55 C 0.80406 0.84088 0.48735 0.0
C56 C 0.75213 0.8223 0.43524 0.0
C57 C 0.60832 0.66971 0.42959 0.0
C58 C 0.61124 0.6698 0.33123 0.0
C59 C 0.56774 0.6297 0.37597 0.0
C60 C 0.58023 0.64309 0.42634 0.0
C61 C 0.58312 0.64278 0.32775 0.0
C62 C 0.62375 0.68319 0.38184 0.0
C63 C 0.62152 0.68201 0.48329 0.0
O64 O 0.69622 0.70596 0.60032 0.0
O65 O 0.66058 0.75713 0.60186 0.0
O66 O 0.61741 0.71992 0.49616 0.0
O67 O 0.65236 0.668 0.49678 0.0
H68 H 0.62586 0.67705 0.61791 0.0
H69 H 0.59356 0.64332 0.68888 0.0
H70 H 0.65302 0.70832 0.81101 0.0
H71 H 0.68589 0.74128 0.73928 0.0
H72 H 0.8138 0.80496 0.55879 0.0
H73 H 0.76259 0.76216 0.54531 0.0
H74 H 0.78621 0.87029 0.41399 0.0
H75 H 0.7351 0.82724 0.40055 0.0
H76 H 0.62346 0.68071 0.29489 0.0
H77 H 0.5465 0.60838 0.37491 0.0
H78 H 0.56818 0.63223 0.4629 0.0
H79 H 0.64553 0.70379 0.38378 0.0
C80 C 0.85786 0.21078 0.1737 0.0
C81 C 0.8816 0.18113 0.15803 0.0
C82 C 0.8958 0.16788 0.25277 0.0
C83 C 0.9004 0.15984 0.19721 0.0
C84 C 0.87245 0.19828 0.26808 0.0
C85 C 0.85362 0.21949 0.22884 0.0
U86 U 0.83663 0.23052 0.0264 0.0
O87 O 0.78675 0.23528 0.98255 0.0
O88 O 0.82295 0.28622 0.98387 0.0
C89 C 0.79169 0.2731 0.97054 0.0
C90 C 0.83695 0.23193 0.13274 0.0
C91 C 0.76262 0.30034 0.98242 0.0
C92 C 0.71075 0.31758 0.03292 0.0
C93 C 0.73946 0.29268 0.02474 0.0
C94 C 0.72875 0.35897 0.95808 0.0
C95 C 0.70494 0.35079 0.99937 0.0
C96 C 0.75725 0.33387 0.9496 0.0
C97 C 0.89002 0.17396 0.91915 0.0
C98 C 0.88362 0.1292 0.84121 0.0
C99 C 0.92787 0.1808 0.84138 0.0
C100 C 0.91732 0.19351 0.89272 0.0
C101 C 0.91157 0.14802 0.81547 0.0
C102 C 0.87304 0.14192 0.89253 0.0
C103 C 0.88135 0.18479 0.97577 0.0
O104 O 0.85411 0.25791 0.10358 0.0
O105 O 0.81599 0.209 0.10356 0.0
O106 O 0.85137 0.17172 0.99375 0.0
O107 O 0.88848 0.22163 0.99148 0.0
H108 H 0.88515 0.17405 0.11549 0.0
H109 H 0.91782 0.13637 0.18399 0.0
H110 H 0.86868 0.20564 0.31045 0.0
H111 H 0.83551 0.24244 0.24156 0.0
H112 H 0.69305 0.31084 0.06544 0.0
H113 H 0.74326 0.26716 0.05096 0.0
H114 H 0.72477 0.38413 0.93129 0.0
H115 H 0.77483 0.34025 0.91675 0.0
H116 H 0.87086 0.10348 0.82277 0.0
H117 H 0.94927 0.19619 0.8224 0.0
H118 H 0.93116 0.21805 0.91224 0.0
H119 H 0.85221 0.12582 0.91193 0.0
C120 C 0.35738 0.29625 0.33965 0.0
C121 C 0.39374 0.29517 0.33371 0.0
C122 C 0.3895 0.34022 0.25681 0.0
C123 C 0.40962 0.31681 0.29243 0.0
C124 C 0.35313 0.34056 0.26212 0.0
C125 C 0.33725 0.31861 0.30293 0.0
U126 U 0.34489 0.27891 0.4909 0.0
O127 O 0.29686 0.27564 0.53781 0.0
O128 O 0.33241 0.22422 0.53611 0.0
C129 C 0.30192 0.23803 0.5509 0.0
C130 C 0.33992 0.27583 0.38476 0.0
C131 C 0.2721 0.21105 0.54162 0.0
C132 C 0.21995 0.1914 0.49105 0.0
C133 C 0.24948 0.21569 0.49687 0.0
C134 C 0.23614 0.15657 0.5734 0.0
C135 C 0.21263 0.16193 0.52975 0.0
C136 C 0.26549 0.18098 0.57932 0.0
C137 C 0.40101 0.33811 0.59347 0.0
C138 C 0.38625 0.36972 0.67936 0.0
C139 C 0.446 0.35118 0.66181 0.0
C140 C 0.43592 0.33612 0.61082 0.0
C141 C 0.42136 0.36894 0.69603 0.0
C142 C 0.37612 0.35427 0.62873 0.0
C143 C 0.39149 0.32568 0.53752 0.0
O144 O 0.35866 0.2504 0.41329 0.0
O145 O 0.32029 0.29901 0.41488 0.0
O146 O 0.36127 0.33846 0.51902 0.0
O147 O 0.39797 0.28827 0.52422 0.0
H148 H 0.41 0.2783 0.36149 0.0
H149 H 0.43772 0.31627 0.28948 0.0
H150 H 0.33697 0.35802 0.23487 0.0
H151 H 0.30918 0.31974 0.30649 0.0
H152 H 0.20233 0.19654 0.45717 0.0
H153 H 0.25425 0.23863 0.46706 0.0
H154 H 0.23175 0.13363 0.60331 0.0
H155 H 0.28281 0.17675 0.61386 0.0
H156 H 0.36668 0.38285 0.70522 0.0
H157 H 0.47327 0.35043 0.67352 0.0
H158 H 0.45557 0.32386 0.58433 0.0
H159 H 0.34893 0.35592 0.61678 0.0
O160 O 0.92347 0.97836 0.51448 0.0
Zn161 Zn 0.95747 0.02419 0.51972 0.0
O162 O 0.00557 0.00485 0.51857 0.0
Zn163 Zn 0.02993 0.0257 0.58221 0.0
Zn164 Zn 0.00583 0.946 0.52063 0.0
Zn165 Zn 0.02925 0.0243 0.45368 0.0
O166 O 0.07216 0.05727 0.56313 0.0
O167 O 0.07175 0.05808 0.47322 0.0
O168 O 0.94716 0.05627 0.5878 0.0
O169 O 0.99934 0.06082 0.62685 0.0
O170 O 0.04456 0.9815 0.63123 0.0
O171 O 0.02715 0.92524 0.59104 0.0
O172 O 0.03273 0.9237 0.45728 0.0
O173 O 0.94808 0.05928 0.45557 0.0
O174 O 0.04665 0.97745 0.40955 0.0
O175 O 0.99653 0.05797 0.40738 0.0
C176 C 0.92685 0.94048 0.51275 0.0
C177 C 0.08553 0.06808 0.51867 0.0
C178 C 0.0416 0.94362 0.63089 0.0
C179 C 0.96709 0.0693 0.62574 0.0
C180 C 0.04685 0.93966 0.41623 0.0
C181 C 0.96526 0.06965 0.41415 0.0
O182 O 0.9568 0.92414 0.51477 0.0
O183 O 0.58383 0.48642 0.01752 0.0
Zn184 Zn 0.54916 0.53165 0.01834 0.0
O185 O 0.50151 0.51144 0.008 0.0
Zn186 Zn 0.48143 0.53404 0.94184 0.0
Zn187 Zn 0.5022 0.45266 0.00239 0.0
Zn188 Zn 0.47295 0.52801 0.06928 0.0
O189 O 0.43857 0.56658 0.95691 0.0
O190 O 0.43191 0.56169 0.0458 0.0
O191 O 0.56254 0.56895 0.95805 0.0
O192 O 0.51575 0.56955 0.90427 0.0
O193 O 0.46719 0.49045 0.88964 0.0
O194 O 0.48178 0.43368 0.93023 0.0
O195 O 0.47485 0.42747 0.06305 0.0
O196 O 0.55458 0.56106 0.08992 0.0
O197 O 0.45393 0.48005 0.10754 0.0
O198 O 0.50139 0.55956 0.12399 0.0
C199 C 0.58104 0.44857 0.01296 0.0
C200 C 0.42177 0.57462 0.99978 0.0
C201 C 0.46886 0.45242 0.88988 0.0
C202 C 0.54674 0.58081 0.91536 0.0
C203 C 0.45689 0.44236 0.10133 0.0
C204 C 0.53326 0.56999 0.12727 0.0
O205 O 0.5514 0.4318 0.00731 0.0
C206 C 0.16143 0.12933 0.57332 0.0
C207 C 0.18 0.13794 0.5261 0.0
H208 H 0.11736 0.10087 0.608 0.0
C209 C 0.16691 0.12384 0.47587 0.0
H210 H 0.17026 0.1404 0.61255 0.0
C211 C 0.13611 0.10138 0.47312 0.0
C212 C 0.11781 0.09248 0.52057 0.0
H213 H 0.18071 0.12966 0.43875 0.0
H214 H 0.12686 0.09069 0.43392 0.0
C215 C 0.13085 0.10683 0.57062 0.0
C216 C 0.33675 0.62541 0.03611 0.0
C217 C 0.32685 0.64285 0.98651 0.0
H218 H 0.37438 0.59031 0.07932 0.0
C219 C 0.34881 0.63823 0.94173 0.0
H220 H 0.32028 0.62796 0.07126 0.0
C221 C 0.37966 0.61635 0.9462 0.0
C222 C 0.38946 0.5987 0.99566 0.0
H223 H 0.34237 0.65186 0.90319 0.0
H224 H 0.39584 0.61336 0.91076 0.0
C225 C 0.36772 0.60366 0.04066 0.0
C226 C 0.86787 0.84932 0.50754 0.0
C227 C 0.83539 0.86646 0.49494 0.0
H228 H 0.92223 0.85909 0.5227 0.0
C229 C 0.83313 0.90813 0.489 0.0
H230 H 0.87046 0.81724 0.51189 0.0
C231 C 0.86272 0.93216 0.4954 0.0
C232 C 0.89533 0.91502 0.50737 0.0
H233 H 0.80839 0.92221 0.4798 0.0
H234 H 0.86004 0.96418 0.49042 0.0
C235 C 0.89755 0.8733 0.51343 0.0
C236 C 0.67584 0.41789 0.00403 0.0
C237 C 0.67348 0.37599 0.00594 0.0
H238 H 0.64864 0.47369 0.00534 0.0
C239 C 0.64064 0.35819 0.01215 0.0
H240 H 0.70086 0.43242 0.99974 0.0
C241 C 0.61068 0.38175 0.01511 0.0
C242 C 0.61294 0.42367 0.01241 0.0
H243 H 0.63798 0.32595 0.01325 0.0
H244 H 0.58571 0.36704 0.019 0.0
C245 C 0.64593 0.44149 0.00752 0.0
C246 C 0.07605 0.84798 0.33714 0.0
C247 C 0.09868 0.86489 0.29933 0.0
H248 H 0.04214 0.85824 0.40408 0.0
C249 C 0.10389 0.90649 0.29997 0.0
H250 H 0.07169 0.81598 0.33769 0.0
C251 C 0.08681 0.93073 0.33755 0.0
C252 C 0.06441 0.91387 0.3758 0.0
H253 H 0.12088 0.92039 0.27088 0.0
H254 H 0.09143 0.96268 0.33686 0.0
C255 C 0.05927 0.87219 0.37525 0.0
C256 C 0.56537 0.64443 0.7925 0.0
C257 C 0.60122 0.652 0.79871 0.0
H258 H 0.52009 0.61633 0.8243 0.0
C259 C 0.61863 0.63772 0.84521 0.0
H260 H 0.55102 0.65561 0.75769 0.0
C261 C 0.6008 0.61543 0.88378 0.0
C262 C 0.56517 0.60683 0.87665 0.0
H263 H 0.64629 0.64267 0.85102 0.0
H264 H 0.61518 0.60415 0.9185 0.0
C265 C 0.54758 0.62206 0.8309 0.0
C266 C 0.89659 0.13114 0.34107 0.0
C267 C 0.9142 0.14363 0.29458 0.0
H268 H 0.89869 0.09821 0.41484 0.0
C269 C 0.94908 0.13193 0.28792 0.0
H270 H 0.86956 0.139 0.3471 0.0
C271 C 0.96584 0.10813 0.32675 0.0
C272 C 0.94807 0.09547 0.37308 0.0
H273 H 0.96352 0.14139 0.25284 0.0
H274 H 0.99267 0.0996 0.32035 0.0
C275 C 0.91328 0.10744 0.3798 0.0
C276 C 0.42115 0.42822 0.75833 0.0
C277 C 0.43251 0.38915 0.74717 0.0
H278 H 0.42384 0.47878 0.8118 0.0
C279 C 0.45529 0.37041 0.78409 0.0
H280 H 0.40388 0.44356 0.73031 0.0
C281 C 0.46655 0.39049 0.83126 0.0
C282 C 0.45572 0.42995 0.84176 0.0
H283 H 0.46435 0.34023 0.77648 0.0
H284 H 0.48428 0.37546 0.85885 0.0
C285 C 0.43278 0.44848 0.80486 0.0
C286 C 0.53446 0.62142 0.26488 0.0
C287 C 0.57029 0.62719 0.27443 0.0
H288 H 0.4947 0.59915 0.21117 0.0
C289 C 0.59375 0.61611 0.23369 0.0
H290 H 0.51562 0.63031 0.29495 0.0
C291 C 0.58172 0.59849 0.18528 0.0
C292 C 0.54595 0.59145 0.1766 0.0
H293 H 0.62153 0.6198 0.2399 0.0
H294 H 0.60057 0.58944 0.15532 0.0
C295 C 0.52245 0.60371 0.21665 0.0
C296 C 0.90304 0.11688 0.72281 0.0
C297 C 0.92547 0.13138 0.76407 0.0
H298 H 0.89849 0.08622 0.64635 0.0
C299 C 0.96158 0.12758 0.75752 0.0
H300 H 0.87508 0.11976 0.72642 0.0
C301 C 0.97496 0.10857 0.71178 0.0
C302 C 0.95257 0.09282 0.67134 0.0
H303 H 0.97961 0.13791 0.78877 0.0
H304 H 0.00293 0.10536 0.70892 0.0
C305 C 0.91645 0.09786 0.67682 0.0
C306 C 0.43267 0.35055 0.18245 0.0
C307 C 0.40638 0.36577 0.21588 0.0
H308 H 0.46899 0.36264 0.11936 0.0
C309 C 0.39656 0.40602 0.21076 0.0
H310 H 0.44061 0.31955 0.18543 0.0
C311 C 0.41292 0.43071 0.17347 0.0
C312 C 0.43922 0.41561 0.13992 0.0
H313 H 0.37663 0.41867 0.23639 0.0
H314 H 0.40487 0.46169 0.17095 0.0
C315 C 0.44876 0.37515 0.1445 0.0
C316 C 0.07346 0.92316 0.77369 0.0
C317 C 0.07006 0.88149 0.77718 0.0
H318 H 0.06772 0.97513 0.72507 0.0
C319 C 0.0593 0.85965 0.73096 0.0
H320 H 0.08229 0.94066 0.80842 0.0
C321 C 0.05069 0.87951 0.68269 0.0
C322 C 0.05317 0.92146 0.6798 0.0
H323 H 0.05654 0.82744 0.73267 0.0
H324 H 0.04155 0.86212 0.64807 0.0
C325 C 0.06526 0.94286 0.72566 0.0
loop_
_geom_bond_atom_site_label_1
_geom_bond_atom_site_label_2
_geom_bond_distance
_geom_bond_site_symmetry_2
_ccdc_geom_bond_type
C0 C1 1.264 . S
C0 C5 1.479 . S
C0 C10 1.465 . S
C1 C0 1.264 . S
C1 C3 1.339 . S
C1 H28 0.931 . S
C2 C3 1.395 . S
C2 C4 1.320 . S
C3 C1 1.339 . S
C3 C2 1.395 . S
C3 H29 0.929 . S
C4 C2 1.320 . S
C4 C5 1.405 . S
C4 H30 0.930 . S
C5 C0 1.479 . S
C5 C4 1.405 . S
C5 H31 0.931 . S
U6 O7 2.454 . S
U6 O8 2.458 1_554 S
U6 C9 2.984 . S
U6 C10 2.847 . S
U6 C23 2.882 1_554 S
U6 O24 2.441 . S
U6 O25 2.420 . S
U6 O26 2.455 1_554 S
U6 O27 2.449 1_554 S
O7 U6 2.454 . S
O7 C9 1.353 . S
O8 U6 2.458 1_556 S
O8 C9 1.286 1_556 S
C9 U6 2.984 . S
C9 O7 1.353 . S
C9 O8 1.286 1_554 S
C9 C11 1.363 . S
C10 C0 1.465 . S
C10 U6 2.847 . S
C10 O24 1.249 . S
C10 O25 1.202 . S
C11 C9 1.363 . S
C11 C13 1.408 . S
C11 C16 1.342 1_554 S
C12 C13 1.310 . S
C12 C15 1.461 . S
C12 H32 0.932 . S
C13 C11 1.408 . S
C13 C12 1.310 . S
C13 H33 0.930 . S
C14 C15 1.474 1_556 S
C14 C16 1.285 . S
C14 H34 0.929 . S
C15 C12 1.461 . S
C15 C14 1.474 1_554 S
C16 C11 1.342 1_556 S
C16 C14 1.285 . S
C16 H35 0.930 . S
C17 C20 1.424 . S
C17 C22 1.245 . S
C17 C23 1.428 . S
C18 C21 1.260 . S
C18 C22 1.477 . S
C18 H36 0.932 . S
C19 C20 1.384 . S
C19 C21 1.479 . S
C19 H37 0.929 . S
C20 C17 1.424 . S
C20 C19 1.384 . S
C20 H38 0.928 . S
C21 C18 1.260 . S
C21 C19 1.479 . S
C22 C17 1.245 . S
C22 C18 1.477 . S
C22 H39 0.932 . S
C23 U6 2.882 1_556 S
C23 C17 1.428 . S
C23 O26 1.301 . S
C23 O27 1.282 . S
O24 U6 2.441 . S
O24 C10 1.249 . S
O25 U6 2.420 . S
O25 C10 1.202 . S
O26 U6 2.455 1_556 S
O26 C23 1.301 . S
O27 U6 2.449 1_556 S
O27 C23 1.282 . S
H28 C1 0.931 . S
H29 C3 0.929 . S
H30 C4 0.930 . S
H31 C5 0.931 . S
H32 C12 0.932 . S
H33 C13 0.930 . S
H34 C14 0.929 . S
H35 C16 0.930 . S
H36 C18 0.932 . S
H37 C19 0.929 . S
H38 C20 0.928 . S
H39 C22 0.932 . S
C40 C41 1.264 . S
C40 C45 1.479 . S
C40 C50 1.465 . S
C41 C40 1.264 . S
C41 C43 1.339 . S
C41 H68 0.931 . S
C42 C43 1.395 . S
C42 C44 1.320 . S
C43 C41 1.339 . S
C43 C42 1.395 . S
C43 H69 0.929 . S
C44 C42 1.320 . S
C44 C45 1.405 . S
C44 H70 0.930 . S
C45 C40 1.479 . S
C45 C44 1.405 . S
C45 H71 0.931 . S
U46 O47 2.454 . S
U46 O48 2.458 . S
U46 C49 2.984 . S
U46 C50 2.847 . S
U46 C63 2.882 . S
U46 O64 2.441 . S
U46 O65 2.420 . S
U46 O66 2.455 . S
U46 O67 2.449 . S
O47 U46 2.454 . S
O47 C49 1.353 . S
O48 U46 2.458 . S
O48 C49 1.286 . S
C49 U46 2.984 . S
C49 O47 1.353 . S
C49 O48 1.286 . S
C49 C51 1.363 . S
C50 C40 1.465 . S
C50 U46 2.847 . S
C50 O64 1.249 . S
C50 O65 1.202 . S
C51 C49 1.363 . S
C51 C53 1.408 . S
C51 C56 1.342 . S
C52 C53 1.310 . S
C52 C55 1.461 . S
C52 H72 0.932 . S
C53 C51 1.408 . S
C53 C52 1.310 . S
C53 H73 0.930 . S
C54 C55 1.474 . S
C54 C56 1.285 . S
C54 H74 0.929 . S
C55 C52 1.461 . S
C55 C54 1.474 . S
C56 C51 1.342 . S
C56 C54 1.285 . S
C56 H75 0.930 . S
C57 C60 1.424 . S
C57 C62 1.245 . S
C57 C63 1.428 . S
C58 C61 1.260 . S
C58 C62 1.477 . S
C58 H76 0.932 . S
C59 C60 1.384 . S
C59 C61 1.479 . S
C59 H77 0.929 . S
C60 C57 1.424 . S
C60 C59 1.384 . S
C60 H78 0.928 . S
C61 C58 1.260 . S
C61 C59 1.479 . S
C62 C57 1.245 . S
C62 C58 1.477 . S
C62 H79 0.932 . S
C63 U46 2.882 . S
C63 C57 1.428 . S
C63 O66 1.301 . S
C63 O67 1.282 . S
O64 U46 2.441 . S
O64 C50 1.249 . S
O65 U46 2.420 . S
O65 C50 1.202 . S
O66 U46 2.455 . S
O66 C63 1.301 . S
O67 U46 2.449 . S
O67 C63 1.282 . S
H68 C41 0.931 . S
H69 C43 0.929 . S
H70 C44 0.930 . S
H71 C45 0.931 . S
H72 C52 0.932 . S
H73 C53 0.930 . S
H74 C54 0.929 . S
H75 C56 0.930 . S
H76 C58 0.932 . S
H77 C59 0.929 . S
H78 C60 0.928 . S
H79 C62 0.932 . S
C80 C81 1.264 . S
C80 C85 1.479 . S
C80 C90 1.465 . S
C81 C80 1.264 . S
C81 C83 1.339 . S
C81 H108 0.931 . S
C82 C83 1.395 . S
C82 C84 1.320 . S
C83 C81 1.339 . S
C83 C82 1.395 . S
C83 H109 0.929 . S
C84 C82 1.320 . S
C84 C85 1.405 . S
C84 H110 0.930 . S
C85 C80 1.479 . S
C85 C84 1.405 . S
C85 H111 0.931 . S
U86 O87 2.454 . S
U86 O88 2.458 1_554 S
U86 C89 2.984 . S
U86 C90 2.847 . S
U86 C103 2.882 1_554 S
U86 O104 2.441 . S
U86 O105 2.420 . S
U86 O106 2.455 1_554 S
U86 O107 2.449 1_554 S
O87 U86 2.454 . S
O87 C89 1.353 . S
O88 U86 2.458 1_556 S
O88 C89 1.286 1_556 S
C89 U86 2.984 . S
C89 O87 1.353 . S
C89 O88 1.286 1_554 S
C89 C91 1.363 . S
C90 C80 1.465 . S
C90 U86 2.847 . S
C90 O104 1.249 . S
C90 O105 1.202 . S
C91 C89 1.363 . S
C91 C93 1.408 . S
C91 C96 1.342 1_554 S
C92 C93 1.310 . S
C92 C95 1.461 . S
C92 H112 0.932 . S
C93 C91 1.408 . S
C93 C92 1.310 . S
C93 H113 0.930 . S
C94 C95 1.474 1_556 S
C94 C96 1.285 . S
C94 H114 0.929 . S
C95 C92 1.461 . S
C95 C94 1.474 1_554 S
C96 C91 1.342 1_556 S
C96 C94 1.285 . S
C96 H115 0.930 . S
C97 C100 1.424 . S
C97 C102 1.245 . S
C97 C103 1.428 . S
C98 C101 1.260 . S
C98 C102 1.477 . S
C98 H116 0.932 . S
C99 C100 1.384 . S
C99 C101 1.479 . S
C99 H117 0.929 . S
C100 C97 1.424 . S
C100 C99 1.384 . S
C100 H118 0.928 . S
C101 C98 1.260 . S
C101 C99 1.479 . S
C102 C97 1.245 . S
C102 C98 1.477 . S
C102 H119 0.932 . S
C103 U86 2.882 1_556 S
C103 C97 1.428 . S
C103 O106 1.301 . S
C103 O107 1.282 . S
O104 U86 2.441 . S
O104 C90 1.249 . S
O105 U86 2.420 . S
O105 C90 1.202 . S
O106 U86 2.455 1_556 S
O106 C103 1.301 . S
O107 U86 2.449 1_556 S
O107 C103 1.282 . S
H108 C81 0.931 . S
H109 C83 0.929 . S
H110 C84 0.930 . S
H111 C85 0.931 . S
H112 C92 0.932 . S
H113 C93 0.930 . S
H114 C94 0.929 . S
H115 C96 0.930 . S
H116 C98 0.932 . S
H117 C99 0.929 . S
H118 C100 0.928 . S
H119 C102 0.932 . S
C120 C121 1.264 . S
C120 C125 1.479 . S
C120 C130 1.465 . S
C121 C120 1.264 . S
C121 C123 1.339 . S
C121 H148 0.931 . S
C122 C123 1.395 . S
C122 C124 1.320 . S
C123 C121 1.339 . S
C123 C122 1.395 . S
C123 H149 0.929 . S
C124 C122 1.320 . S
C124 C125 1.405 . S
C124 H150 0.930 . S
C125 C120 1.479 . S
C125 C124 1.405 . S
C125 H151 0.931 . S
U126 O127 2.454 . S
U126 O128 2.458 . S
U126 C129 2.984 . S
U126 C130 2.847 . S
U126 C143 2.882 . S
U126 O144 2.441 . S
U126 O145 2.420 . S
U126 O146 2.455 . S
U126 O147 2.449 . S
O127 U126 2.454 . S
O127 C129 1.353 . S
O128 U126 2.458 . S
O128 C129 1.286 . S
C129 U126 2.984 . S
C129 O127 1.353 . S
C129 O128 1.286 . S
C129 C131 1.363 . S
C130 C120 1.465 . S
C130 U126 2.847 . S
C130 O144 1.249 . S
C130 O145 1.202 . S
C131 C129 1.363 . S
C131 C133 1.408 . S
C131 C136 1.342 . S
C132 C133 1.310 . S
C132 C135 1.461 . S
C132 H152 0.932 . S
C133 C131 1.408 . S
C133 C132 1.310 . S
C133 H153 0.930 . S
C134 C135 1.474 . S
C134 C136 1.285 . S
C134 H154 0.929 . S
C135 C132 1.461 . S
C135 C134 1.474 . S
C136 C131 1.342 . S
C136 C134 1.285 . S
C136 H155 0.930 . S
C137 C140 1.424 . S
C137 C142 1.245 . S
C137 C143 1.428 . S
C138 C141 1.260 . S
C138 C142 1.477 . S
C138 H156 0.932 . S
C139 C140 1.384 . S
C139 C141 1.479 . S
C139 H157 0.929 . S
C140 C137 1.424 . S
C140 C139 1.384 . S
C140 H158 0.928 . S
C141 C138 1.260 . S
C141 C139 1.479 . S
C142 C137 1.245 . S
C142 C138 1.477 . S
C142 H159 0.932 . S
C143 U126 2.882 . S
C143 C137 1.428 . S
C143 O146 1.301 . S
C143 O147 1.282 . S
O144 U126 2.441 . S
O144 C130 1.249 . S
O145 U126 2.420 . S
O145 C130 1.202 . S
O146 U126 2.455 . S
O146 C143 1.301 . S
O147 U126 2.449 . S
O147 C143 1.282 . S
H148 C121 0.931 . S
H149 C123 0.929 . S
H150 C124 0.930 . S
H151 C125 0.931 . S
H152 C132 0.932 . S
H153 C133 0.930 . S
H154 C134 0.929 . S
H155 C136 0.930 . S
H156 C138 0.932 . S
H157 C139 0.929 . S
H158 C140 0.928 . S
H159 C142 0.932 . S
O160 Zn161 1.953 1_565 S
O160 C176 1.225 . S
Zn161 O160 1.953 1_545 S
Zn161 O162 1.949 1_655 S
Zn161 O168 1.919 . S
Zn161 O173 1.924 . S
O162 Zn161 1.949 1_455 S
O162 Zn163 1.923 . S
O162 Zn164 1.950 1_445 S
O162 Zn165 1.945 . S
Zn163 O162 1.923 . S
Zn163 O166 1.933 . S
Zn163 O169 1.941 . S
Zn163 O170 1.965 1_545 S
Zn164 O162 1.950 1_665 S
Zn164 O171 1.938 1_655 S
Zn164 O172 1.906 1_655 S
Zn164 O182 1.953 . S
Zn165 O162 1.945 . S
Zn165 O167 1.932 . S
Zn165 O174 1.977 1_545 S
Zn165 O175 1.910 1_455 S
O166 Zn163 1.933 . S
O166 C177 1.226 . S
O167 Zn165 1.932 . S
O167 C177 1.307 . S
O168 Zn161 1.919 . S
O168 C179 1.253 . S
O169 Zn163 1.941 . S
O169 C179 1.283 1_455 S
O170 Zn163 1.965 1_565 S
O170 C178 1.303 . S
O171 Zn164 1.938 1_455 S
O171 C178 1.247 . S
O172 Zn164 1.906 1_455 S
O172 C180 1.304 . S
O173 Zn161 1.924 . S
O173 C181 1.311 . S
O174 Zn165 1.977 1_565 S
O174 C180 1.272 . S
O175 Zn165 1.910 1_655 S
O175 C181 1.231 . S
C176 O160 1.225 . S
C176 O182 1.298 . S
C177 O166 1.226 . S
C177 O167 1.307 . S
C178 O170 1.303 . S
C178 O171 1.247 . S
C179 O168 1.253 . S
C179 O169 1.283 1_655 S
C180 O172 1.304 . S
C180 O174 1.272 . S
C181 O173 1.311 . S
C181 O175 1.231 . S
O182 Zn164 1.953 . S
O182 C176 1.298 . S
O183 Zn184 1.953 1_556 S
O183 C199 1.225 1_556 S
Zn184 O183 1.953 1_554 S
Zn184 O185 1.950 . S
Zn184 O191 1.914 1_554 S
Zn184 O196 1.929 . S
O185 Zn184 1.950 . S
O185 Zn186 1.923 1_554 S
O185 Zn187 1.950 . S
O185 Zn188 1.945 . S
Zn186 O185 1.923 1_556 S
Zn186 O189 1.933 . S
Zn186 O192 1.941 . S
Zn186 O193 1.965 . S
Zn187 O185 1.950 . S
Zn187 O194 1.938 1_554 S
Zn187 O195 1.906 . S
Zn187 O205 1.953 . S
Zn188 O185 1.945 . S
Zn188 O190 1.932 . S
Zn188 O197 1.977 . S
Zn188 O198 1.910 . S
O189 Zn186 1.933 . S
O189 C200 1.226 1_556 S
O190 Zn188 1.932 . S
O190 C200 1.307 . S
O191 Zn184 1.914 1_556 S
O191 C202 1.253 . S
O192 Zn186 1.941 . S
O192 C202 1.283 . S
O193 Zn186 1.965 . S
O193 C201 1.303 . S
O194 Zn187 1.938 1_556 S
O194 C201 1.247 . S
O195 Zn187 1.906 . S
O195 C203 1.304 . S
O196 Zn184 1.929 . S
O196 C204 1.311 . S
O197 Zn188 1.977 . S
O197 C203 1.272 . S
O198 Zn188 1.910 . S
O198 C204 1.231 . S
C199 O183 1.225 1_554 S
C199 O205 1.298 . S
C200 O189 1.226 1_554 S
C200 O190 1.307 . S
C201 O193 1.303 . S
C201 O194 1.247 . S
C202 O191 1.253 . S
C202 O192 1.283 . S
C203 O195 1.304 . S
C203 O197 1.272 . S
C204 O196 1.311 . S
C204 O198 1.231 . S
O205 Zn187 1.953 . S
O205 C199 1.298 . S
C206 C207 1.387 . S
C206 H210 0.950 . S
C206 C215 1.390 . S
C207 C206 1.387 . S
C207 C209 1.387 . S
H208 C215 0.950 . S
C209 C207 1.387 . S
C209 C211 1.390 . S
C209 H213 0.950 . S
H210 C206 0.950 . S
C211 C209 1.390 . S
C211 C212 1.387 . S
C211 H214 0.950 . S
C212 C211 1.387 . S
C212 C215 1.387 . S
H213 C209 0.950 . S
H214 C211 0.950 . S
C215 C206 1.390 . S
C215 H208 0.950 . S
C215 C212 1.387 . S
C216 C217 1.387 . S
C216 H220 0.950 . S
C216 C225 1.390 . S
C217 C216 1.387 . S
C217 C219 1.387 1_554 S
H218 C225 0.950 . S
C219 C217 1.387 1_556 S
C219 C221 1.390 . S
C219 H223 0.950 . S
H220 C216 0.950 . S
C221 C219 1.390 . S
C221 C222 1.387 1_556 S
C221 H224 0.950 . S
C222 C221 1.387 1_554 S
C222 C225 1.387 . S
H223 C219 0.950 . S
H224 C221 0.950 . S
C225 C216 1.390 . S
C225 H218 0.950 . S
C225 C222 1.387 . S
C226 C227 1.387 . S
C226 H230 0.950 . S
C226 C235 1.390 . S
C227 C226 1.387 . S
C227 C229 1.387 . S
H228 C235 0.950 . S
C229 C227 1.387 . S
C229 C231 1.390 . S
C229 H233 0.950 . S
H230 C226 0.950 . S
C231 C229 1.390 . S
C231 C232 1.387 . S
C231 H234 0.950 . S
C232 C231 1.387 . S
C232 C235 1.387 . S
H233 C229 0.950 . S
H234 C231 0.950 . S
C235 C226 1.390 . S
C235 H228 0.950 . S
C235 C232 1.387 . S
C236 C237 1.387 1_556 S
C236 H240 0.950 . S
C236 C245 1.390 . S
C237 C236 1.387 1_554 S
C237 C239 1.387 . S
H238 C245 0.950 . S
C239 C237 1.387 . S
C239 C241 1.390 . S
C239 H243 0.950 . S
H240 C236 0.950 . S
C241 C239 1.390 . S
C241 C242 1.387 . S
C241 H244 0.950 . S
C242 C241 1.387 . S
C242 C245 1.387 1_554 S
H243 C239 0.950 . S
H244 C241 0.950 . S
C245 C236 1.390 . S
C245 H238 0.950 . S
C245 C242 1.387 1_556 S
C246 C247 1.387 . S
C246 H250 0.950 1_455 S
C246 C255 1.390 . S
C247 C246 1.387 . S
C247 C249 1.387 . S
H248 C255 0.950 1_655 S
C249 C247 1.387 . S
C249 C251 1.390 . S
C249 H253 0.950 . S
H250 C246 0.950 1_655 S
C251 C249 1.390 . S
C251 C252 1.387 . S
C251 H254 0.950 . S
C252 C251 1.387 . S
C252 C255 1.387 . S
H253 C249 0.950 . S
H254 C251 0.950 . S
C255 C246 1.390 . S
C255 H248 0.950 1_455 S
C255 C252 1.387 . S
C256 C257 1.387 . S
C256 H260 0.950 . S
C256 C265 1.390 . S
C257 C256 1.387 . S
C257 C259 1.387 . S
H258 C265 0.950 . S
C259 C257 1.387 . S
C259 C261 1.390 . S
C259 H263 0.950 . S
H260 C256 0.950 . S
C261 C259 1.390 . S
C261 C262 1.387 . S
C261 H264 0.950 . S
C262 C261 1.387 . S
C262 C265 1.387 . S
H263 C259 0.950 . S
H264 C261 0.950 . S
C265 C256 1.390 . S
C265 H258 0.950 . S
C265 C262 1.387 . S
C266 C267 1.387 . S
C266 H270 0.950 . S
C266 C275 1.390 . S
C267 C266 1.387 . S
C267 C269 1.387 . S
H268 C275 0.950 . S
C269 C267 1.387 . S
C269 C271 1.390 . S
C269 H273 0.950 1_655 S
H270 C266 0.950 . S
C271 C269 1.390 . S
C271 C272 1.387 . S
C271 H274 0.950 1_655 S
C272 C271 1.387 . S
C272 C275 1.387 . S
H273 C269 0.950 1_455 S
H274 C271 0.950 1_455 S
C275 C266 1.390 . S
C275 H268 0.950 . S
C275 C272 1.387 . S
C276 C277 1.387 . S
C276 H280 0.950 . S
C276 C285 1.390 . S
C277 C276 1.387 . S
C277 C279 1.387 . S
H278 C285 0.950 . S
C279 C277 1.387 . S
C279 C281 1.390 . S
C279 H283 0.950 . S
H280 C276 0.950 . S
C281 C279 1.390 . S
C281 C282 1.387 . S
C281 H284 0.950 . S
C282 C281 1.387 . S
C282 C285 1.387 . S
H283 C279 0.950 . S
H284 C281 0.950 . S
C285 C276 1.390 . S
C285 H278 0.950 . S
C285 C282 1.387 . S
C286 C287 1.387 . S
C286 H290 0.950 . S
C286 C295 1.390 . S
C287 C286 1.387 . S
C287 C289 1.387 . S
H288 C295 0.950 . S
C289 C287 1.387 . S
C289 C291 1.390 . S
C289 H293 0.950 . S
H290 C286 0.950 . S
C291 C289 1.390 . S
C291 C292 1.387 . S
C291 H294 0.950 . S
C292 C291 1.387 . S
C292 C295 1.387 . S
H293 C289 0.950 . S
H294 C291 0.950 . S
C295 C286 1.390 . S
C295 H288 0.950 . S
C295 C292 1.387 . S
C296 C297 1.387 . S
C296 H300 0.950 . S
C296 C305 1.390 . S
C297 C296 1.387 . S
C297 C299 1.387 . S
H298 C305 0.950 . S
C299 C297 1.387 . S
C299 C301 1.390 . S
C299 H303 0.950 . S
H300 C296 0.950 . S
C301 C299 1.390 . S
C301 C302 1.387 . S
C301 H304 0.950 . S
C302 C301 1.387 . S
C302 C305 1.387 . S
H303 C299 0.950 . S
H304 C301 0.950 . S
C305 C296 1.390 . S
C305 H298 0.950 . S
C305 C302 1.387 . S
C306 C307 1.387 . S
C306 H310 0.950 . S
C306 C315 1.390 . S
C307 C306 1.387 . S
C307 C309 1.387 . S
H308 C315 0.950 . S
C309 C307 1.387 . S
C309 C311 1.390 . S
C309 H313 0.950 . S
H310 C306 0.950 . S
C311 C309 1.390 . S
C311 C312 1.387 . S
C311 H314 0.950 . S
C312 C311 1.387 . S
C312 C315 1.387 . S
H313 C309 0.950 . S
H314 C311 0.950 . S
C315 C306 1.390 . S
C315 H308 0.950 . S
C315 C312 1.387 . S
C316 C317 1.387 . S
C316 H320 0.950 . S
C316 C325 1.390 . S
C317 C316 1.387 . S
C317 C319 1.387 . S
H318 C325 0.950 . S
C319 C317 1.387 . S
C319 C321 1.390 . S
C319 H323 0.950 . S
H320 C316 0.950 . S
C321 C319 1.390 . S
C321 C322 1.387 . S
C321 H324 0.950 . S
C322 C321 1.387 . S
C322 C325 1.387 . S
H323 C319 0.950 . S
H324 C321 0.950 . S
C325 C316 1.390 . S
C325 H318 0.950 . S
C325 C322 1.387 . S
C212 C177 1.755 . S
C207 C135 1.708 . S
C217 C15 1.706 . S
C222 C200 1.754 . S
C227 C55 1.726 . S
C232 C176 1.766 . S
C237 C95 1.711 . S
C242 C199 1.762 . S
C252 C180 1.752 . S
C247 C2 1.691 . S
C262 C202 1.738 . S
C257 C42 1.736 . S
C267 C82 1.711 . S
C272 C181 1.730 . S
C277 C141 1.600 . S
C282 C201 1.677 . S
C292 C204 1.756 . S
C287 C61 1.881 . S
C302 C179 1.770 . S
C297 C101 1.650 . S
C312 C203 1.778 . S
C307 C122 1.717 . S
C317 C21 1.631 . S
C322 C178 1.705 . S
