# Generated by pormake.
# Topology gar, (4,6)-cn, num edge types: 1
# Building blocks:
#     Node 0, Type 0, BuildingBlock: KUFVIS_clean_sbu_0, # of connection points: 4
#     Node 1, Type 0, BuildingBlock: KUFVIS_clean_sbu_0, # of connection points: 4
#     Node 2, Type 0, BuildingBlock: KUFVIS_clean_sbu_0, # of connection points: 4
#     Node 3, Type 0, BuildingBlock: KUFVIS_clean_sbu_0, # of connection points: 4
#     Node 4, Type 0, BuildingBlock: KUFVIS_clean_sbu_0, # of connection points: 4
#     Node 5, Type 0, BuildingBlock: KUFVIS_clean_sbu_0, # of connection points: 4
#     Node 6, Type 0, BuildingBlock: KUFVIS_clean_sbu_0, # of connection points: 4
#     Node 7, Type 0, BuildingBlock: KUFVIS_clean_sbu_0, # of connection points: 4
#     Node 8, Type 0, BuildingBlock: KUFVIS_clean_sbu_0, # of connection points: 4
#     Node 9, Type 0, BuildingBlock: KUFVIS_clean_sbu_0, # of connection points: 4
#     Node 10, Type 0, BuildingBlock: KUFVIS_clean_sbu_0, # of connection points: 4
#     Node 11, Type 0, BuildingBlock: KUFVIS_clean_sbu_0, # of connection points: 4
#     Node 12, Type 0, BuildingBlock: KUFVIS_clean_sbu_0, # of connection points: 4
#     Node 13, Type 0, BuildingBlock: KUFVIS_clean_sbu_0, # of connection points: 4
#     Node 14, Type 0, BuildingBlock: KUFVIS_clean_sbu_0, # of connection points: 4
#     Node 15, Type 0, BuildingBlock: KUFVIS_clean_sbu_0, # of connection points: 4
#     Node 16, Type 0, BuildingBlock: KUFVIS_clean_sbu_0, # of connection points: 4
#     Node 17, Type 0, BuildingBlock: KUFVIS_clean_sbu_0, # of connection points: 4
#     Node 18, Type 0, BuildingBlock: KUFVIS_clean_sbu_0, # of connection points: 4
#     Node 19, Type 0, BuildingBlock: KUFVIS_clean_sbu_0, # of connection points: 4
#     Node 20, Type 0, BuildingBlock: KUFVIS_clean_sbu_0, # of connection points: 4
#     Node 21, Type 0, BuildingBlock: KUFVIS_clean_sbu_0, # of connection points: 4
#     Node 22, Type 0, BuildingBlock: KUFVIS_clean_sbu_0, # of connection points: 4
#     Node 23, Type 0, BuildingBlock: KUFVIS_clean_sbu_0, # of connection points: 4
#     Node 24, Type 1, BuildingBlock: GEDQOX_clean_sbu_0, # of connection points: 6
#     Node 25, Type 1, BuildingBlock: GEDQOX_clean_sbu_0, # of connection points: 6
#     Node 26, Type 1, BuildingBlock: GEDQOX_clean_sbu_0, # of connection points: 6
#     Node 27, Type 1, BuildingBlock: GEDQOX_clean_sbu_0, # of connection points: 6
#     Node 28, Type 1, BuildingBlock: GEDQOX_clean_sbu_0, # of connection points: 6
#     Node 29, Type 1, BuildingBlock: GEDQOX_clean_sbu_0, # of connection points: 6
#     Node 30, Type 1, BuildingBlock: GEDQOX_clean_sbu_0, # of connection points: 6
#     Node 31, Type 1, BuildingBlock: GEDQOX_clean_sbu_0, # of connection points: 6
#     Node 32, Type 1, BuildingBlock: GEDQOX_clean_sbu_0, # of connection points: 6
#     Node 33, Type 1, BuildingBlock: GEDQOX_clean_sbu_0, # of connection points: 6
#     Node 34, Type 1, BuildingBlock: GEDQOX_clean_sbu_0, # of connection points: 6
#     Node 35, Type 1, BuildingBlock: GEDQOX_clean_sbu_0, # of connection points: 6
#     Node 36, Type 1, BuildingBlock: GEDQOX_clean_sbu_0, # of connection points: 6
#     Node 37, Type 1, BuildingBlock: GEDQOX_clean_sbu_0, # of connection points: 6
#     Node 38, Type 1, BuildingBlock: GEDQOX_clean_sbu_0, # of connection points: 6
#     Node 39, Type 1, BuildingBlock: GEDQOX_clean_sbu_0, # of connection points: 6
#     Edge 40, Type (0, 1), BuildingBlock: TEMPAE_clean_linker_10, # of connection points: 2
#     Edge 41, Type (0, 1), BuildingBlock: TEMPAE_clean_linker_10, # of connection points: 2
#     Edge 42, Type (0, 1), BuildingBlock: TEMPAE_clean_linker_10, # of connection points: 2
#     Edge 43, Type (0, 1), BuildingBlock: TEMPAE_clean_linker_10, # of connection points: 2
#     Edge 44, Type (0, 1), BuildingBlock: TEMPAE_clean_linker_10, # of connection points: 2
#     Edge 45, Type (0, 1), BuildingBlock: TEMPAE_clean_linker_10, # of connection points: 2
#     Edge 46, Type (0, 1), BuildingBlock: TEMPAE_clean_linker_10, # of connection points: 2
#     Edge 47, Type (0, 1), BuildingBlock: TEMPAE_clean_linker_10, # of connection points: 2
#     Edge 48, Type (0, 1), BuildingBlock: TEMPAE_clean_linker_10, # of connection points: 2
#     Edge 49, Type (0, 1), BuildingBlock: TEMPAE_clean_linker_10, # of connection points: 2
#     Edge 50, Type (0, 1), BuildingBlock: TEMPAE_clean_linker_10, # of connection points: 2
#     Edge 51, Type (0, 1), BuildingBlock: TEMPAE_clean_linker_10, # of connection points: 2
#     Edge 52, Type (0, 1), BuildingBlock: TEMPAE_clean_linker_10, # of connection points: 2
#     Edge 53, Type (0, 1), BuildingBlock: TEMPAE_clean_linker_10, # of connection points: 2
#     Edge 54, Type (0, 1), BuildingBlock: TEMPAE_clean_linker_10, # of connection points: 2
#     Edge 55, Type (0, 1), BuildingBlock: TEMPAE_clean_linker_10, # of connection points: 2
#     Edge 56, Type (0, 1), BuildingBlock: TEMPAE_clean_linker_10, # of connection points: 2
#     Edge 57, Type (0, 1), BuildingBlock: TEMPAE_clean_linker_10, # of connection points: 2
#     Edge 58, Type (0, 1), BuildingBlock: TEMPAE_clean_linker_10, # of connection points: 2
#     Edge 59, Type (0, 1), BuildingBlock: TEMPAE_clean_linker_10, # of connection points: 2
#     Edge 60, Type (0, 1), BuildingBlock: TEMPAE_clean_linker_10, # of connection points: 2
#     Edge 61, Type (0, 1), BuildingBlock: TEMPAE_clean_linker_10, # of connection points: 2
#     Edge 62, Type (0, 1), BuildingBlock: TEMPAE_clean_linker_10, # of connection points: 2
#     Edge 63, Type (0, 1), BuildingBlock: TEMPAE_clean_linker_10, # of connection points: 2
#     Edge 64, Type (0, 1), BuildingBlock: TEMPAE_clean_linker_10, # of connection points: 2
#     Edge 65, Type (0, 1), BuildingBlock: TEMPAE_clean_linker_10, # of connection points: 2
#     Edge 66, Type (0, 1), BuildingBlock: TEMPAE_clean_linker_10, # of connection points: 2
#     Edge 67, Type (0, 1), BuildingBlock: TEMPAE_clean_linker_10, # of connection points: 2
#     Edge 68, Type (0, 1), BuildingBlock: TEMPAE_clean_linker_10, # of connection points: 2
#     Edge 69, Type (0, 1), BuildingBlock: TEMPAE_clean_linker_10, # of connection points: 2
#     Edge 70, Type (0, 1), BuildingBlock: TEMPAE_clean_linker_10, # of connection points: 2
#     Edge 71, Type (0, 1), BuildingBlock: TEMPAE_clean_linker_10, # of connection points: 2
#     Edge 72, Type (0, 1), BuildingBlock: TEMPAE_clean_linker_10, # of connection points: 2
#     Edge 73, Type (0, 1), BuildingBlock: TEMPAE_clean_linker_10, # of connection points: 2
#     Edge 74, Type (0, 1), BuildingBlock: TEMPAE_clean_linker_10, # of connection points: 2
#     Edge 75, Type (0, 1), BuildingBlock: TEMPAE_clean_linker_10, # of connection points: 2
#     Edge 76, Type (0, 1), BuildingBlock: TEMPAE_clean_linker_10, # of connection points: 2
#     Edge 77, Type (0, 1), BuildingBlock: TEMPAE_clean_linker_10, # of connection points: 2
#     Edge 78, Type (0, 1), BuildingBlock: TEMPAE_clean_linker_10, # of connection points: 2
#     Edge 79, Type (0, 1), BuildingBlock: TEMPAE_clean_linker_10, # of connection points: 2
#     Edge 80, Type (0, 1), BuildingBlock: TEMPAE_clean_linker_10, # of connection points: 2
#     Edge 81, Type (0, 1), BuildingBlock: TEMPAE_clean_linker_10, # of connection points: 2
#     Edge 82, Type (0, 1), BuildingBlock: TEMPAE_clean_linker_10, # of connection points: 2
#     Edge 83, Type (0, 1), BuildingBlock: TEMPAE_clean_linker_10, # of connection points: 2
#     Edge 84, Type (0, 1), BuildingBlock: TEMPAE_clean_linker_10, # of connection points: 2
#     Edge 85, Type (0, 1), BuildingBlock: TEMPAE_clean_linker_10, # of connection points: 2
#     Edge 86, Type (0, 1), BuildingBlock: TEMPAE_clean_linker_10, # of connection points: 2
#     Edge 87, Type (0, 1), BuildingBlock: TEMPAE_clean_linker_10, # of connection points: 2
#     Edge 88, Type (0, 1), BuildingBlock: TEMPAE_clean_linker_10, # of connection points: 2
#     Edge 89, Type (0, 1), BuildingBlock: TEMPAE_clean_linker_10, # of connection points: 2
#     Edge 90, Type (0, 1), BuildingBlock: TEMPAE_clean_linker_10, # of connection points: 2
#     Edge 91, Type (0, 1), BuildingBlock: TEMPAE_clean_linker_10, # of connection points: 2
#     Edge 92, Type (0, 1), BuildingBlock: TEMPAE_clean_linker_10, # of connection points: 2
#     Edge 93, Type (0, 1), BuildingBlock: TEMPAE_clean_linker_10, # of connection points: 2
#     Edge 94, Type (0, 1), BuildingBlock: TEMPAE_clean_linker_10, # of connection points: 2
#     Edge 95, Type (0, 1), BuildingBlock: TEMPAE_clean_linker_10, # of connection points: 2
#     Edge 96, Type (0, 1), BuildingBlock: TEMPAE_clean_linker_10, # of connection points: 2
#     Edge 97, Type (0, 1), BuildingBlock: TEMPAE_clean_linker_10, # of connection points: 2
#     Edge 98, Type (0, 1), BuildingBlock: TEMPAE_clean_linker_10, # of connection points: 2
#     Edge 99, Type (0, 1), BuildingBlock: TEMPAE_clean_linker_10, # of connection points: 2
#     Edge 100, Type (0, 1), BuildingBlock: TEMPAE_clean_linker_10, # of connection points: 2
#     Edge 101, Type (0, 1), BuildingBlock: TEMPAE_clean_linker_10, # of connection points: 2
#     Edge 102, Type (0, 1), BuildingBlock: TEMPAE_clean_linker_10, # of connection points: 2
#     Edge 103, Type (0, 1), BuildingBlock: TEMPAE_clean_linker_10, # of connection points: 2
#     Edge 104, Type (0, 1), BuildingBlock: TEMPAE_clean_linker_10, # of connection points: 2
#     Edge 105, Type (0, 1), BuildingBlock: TEMPAE_clean_linker_10, # of connection points: 2
#     Edge 106, Type (0, 1), BuildingBlock: TEMPAE_clean_linker_10, # of connection points: 2
#     Edge 107, Type (0, 1), BuildingBlock: TEMPAE_clean_linker_10, # of connection points: 2
#     Edge 108, Type (0, 1), BuildingBlock: TEMPAE_clean_linker_10, # of connection points: 2
#     Edge 109, Type (0, 1), BuildingBlock: TEMPAE_clean_linker_10, # of connection points: 2
#     Edge 110, Type (0, 1), BuildingBlock: TEMPAE_clean_linker_10, # of connection points: 2
#     Edge 111, Type (0, 1), BuildingBlock: TEMPAE_clean_linker_10, # of connection points: 2
#     Edge 112, Type (0, 1), BuildingBlock: TEMPAE_clean_linker_10, # of connection points: 2
#     Edge 113, Type (0, 1), BuildingBlock: TEMPAE_clean_linker_10, # of connection points: 2
#     Edge 114, Type (0, 1), BuildingBlock: TEMPAE_clean_linker_10, # of connection points: 2
#     Edge 115, Type (0, 1), BuildingBlock: TEMPAE_clean_linker_10, # of connection points: 2
#     Edge 116, Type (0, 1), BuildingBlock: TEMPAE_clean_linker_10, # of connection points: 2
#     Edge 117, Type (0, 1), BuildingBlock: TEMPAE_clean_linker_10, # of connection points: 2
#     Edge 118, Type (0, 1), BuildingBlock: TEMPAE_clean_linker_10, # of connection points: 2
#     Edge 119, Type (0, 1), BuildingBlock: TEMPAE_clean_linker_10, # of connection points: 2
#     Edge 120, Type (0, 1), BuildingBlock: TEMPAE_clean_linker_10, # of connection points: 2
#     Edge 121, Type (0, 1), BuildingBlock: TEMPAE_clean_linker_10, # of connection points: 2
#     Edge 122, Type (0, 1), BuildingBlock: TEMPAE_clean_linker_10, # of connection points: 2
#     Edge 123, Type (0, 1), BuildingBlock: TEMPAE_clean_linker_10, # of connection points: 2
#     Edge 124, Type (0, 1), BuildingBlock: TEMPAE_clean_linker_10, # of connection points: 2
#     Edge 125, Type (0, 1), BuildingBlock: TEMPAE_clean_linker_10, # of connection points: 2
#     Edge 126, Type (0, 1), BuildingBlock: TEMPAE_clean_linker_10, # of connection points: 2
#     Edge 127, Type (0, 1), BuildingBlock: TEMPAE_clean_linker_10, # of connection points: 2
#     Edge 128, Type (0, 1), BuildingBlock: TEMPAE_clean_linker_10, # of connection points: 2
#     Edge 129, Type (0, 1), BuildingBlock: TEMPAE_clean_linker_10, # of connection points: 2
#     Edge 130, Type (0, 1), BuildingBlock: TEMPAE_clean_linker_10, # of connection points: 2
#     Edge 131, Type (0, 1), BuildingBlock: TEMPAE_clean_linker_10, # of connection points: 2
#     Edge 132, Type (0, 1), BuildingBlock: TEMPAE_clean_linker_10, # of connection points: 2
#     Edge 133, Type (0, 1), BuildingBlock: TEMPAE_clean_linker_10, # of connection points: 2
#     Edge 134, Type (0, 1), BuildingBlock: TEMPAE_clean_linker_10, # of connection points: 2
#     Edge 135, Type (0, 1), BuildingBlock: TEMPAE_clean_linker_10, # of connection points: 2
# Relax obj value: 0.268
# Max RMSD: 0.436
# Mean RMSD: 0.171
data_MOF--net-gar--node1-KUFVIS_clean_sbu_0--node2-GEDQOX_clean_sbu_0--edge1-TEMPAE_clean_linker_10
_symmetry_space_group_name_H-M    P1
_symmetry_Int_Tables_number       1
_symmetry_cell_setting            triclinic
loop_
_symmetry_equiv_pos_as_xyz
'x, y, z'
_cell_length_a     60.06809
_cell_length_b     58.102435
_cell_length_c     53.898778
_cell_angle_alpha  97.733037
_cell_angle_beta   96.879205
_cell_angle_gamma 98.879879
loop_
_atom_site_label
_atom_site_type_symbol
_atom_site_fract_x
_atom_site_fract_y
_atom_site_fract_z
_atom_type_partial_charge
Mn0 Mn 0.12083 0.38918 0.49981 0.0
Mn1 Mn 0.14045 0.42931 0.46438 0.0
C2 C 0.09575 0.40656 0.47608 0.0
C3 C 0.10867 0.35106 0.5069 0.0
C4 C 0.14308 0.43968 0.52151 0.0
O5 O 0.15259 0.38302 0.49658 0.0
O6 O 0.16304 0.40783 0.46953 0.0
C7 C 0.14226 0.39949 0.41562 0.0
N8 N 0.13401 0.41717 0.42893 0.0
C9 C 0.11349 0.42535 0.39082 0.0
C10 C 0.12192 0.40739 0.37676 0.0
C11 C 0.13635 0.39442 0.38921 0.0
C12 C 0.12032 0.42997 0.41705 0.0
H13 H 0.15337 0.38942 0.425 0.0
C14 C 0.16575 0.39042 0.48135 0.0
O15 O 0.11731 0.36806 0.52526 0.0
O16 O 0.10757 0.35604 0.48401 0.0
N17 N 0.11903 0.44967 0.45728 0.0
C18 C 0.10993 0.46417 0.47379 0.0
C19 C 0.09355 0.47686 0.46449 0.0
C20 C 0.0868 0.47469 0.43832 0.0
C21 C 0.09615 0.45946 0.4217 0.0
C22 C 0.11221 0.44701 0.43207 0.0
H23 H 0.11473 0.46567 0.49394 0.0
O24 O 0.08995 0.39774 0.49576 0.0
O25 O 0.11613 0.40507 0.47098 0.0
O26 O 0.13289 0.41947 0.52374 0.0
O27 O 0.14781 0.44502 0.5003 0.0
C28 C 0.08942 0.45544 0.39533 0.0
C29 C 0.09818 0.43847 0.37988 0.0
H30 H 0.11724 0.40324 0.35642 0.0
H31 H 0.14286 0.38055 0.3784 0.0
H32 H 0.08605 0.48814 0.47752 0.0
H33 H 0.07394 0.48423 0.43116 0.0
H34 H 0.0772 0.46499 0.38679 0.0
H35 H 0.0926 0.43527 0.35966 0.0
Mn36 Mn 1.00156 0.79564 0.67451 0.0
Mn37 Mn 1.01621 0.8405 0.72339 0.0
C38 C 0.03795 0.80392 0.69682 0.0
C39 C 0.98967 0.75675 0.65556 0.0
C40 C 1.01375 0.84759 0.66901 0.0
O41 O 0.97047 0.80069 0.68318 0.0
O42 O 0.98283 0.8319 0.7141 0.0
C43 C 0.99786 0.81448 0.76231 0.0
N44 N 1.01533 0.82821 0.75449 0.0
C45 C 0.03906 0.83074 0.79435 0.0
C46 C 1.02115 0.81703 0.80302 0.0
C47 C 1.00052 0.80869 0.78683 0.0
C48 C 0.03546 0.83573 0.76964 0.0
H49 H 0.98203 0.80811 0.74998 0.0
C50 C 0.967 0.81715 0.69965 0.0
O51 O 0.98826 0.77405 0.64292 0.0
O52 O 0.9959 0.76217 0.67988 0.0
N53 N 0.04801 0.85075 0.73489 0.0
C54 C 0.06403 0.86242 0.72303 0.0
C55 C 0.08583 0.8715 0.73638 0.0
C56 C 0.0908 0.86883 0.76185 0.0
C57 C 0.07412 0.85654 0.77358 0.0
C58 C 0.0527 0.84791 0.75934 0.0
H59 H 0.06014 0.86498 0.70361 0.0
O60 O 0.03419 0.79337 0.67355 0.0
O61 O 1.02041 0.8097 0.70646 0.0
O62 O 1.00605 0.82615 0.65981 0.0
O63 O 1.01839 0.85505 0.69267 0.0
C64 C 0.07786 0.85254 0.79885 0.0
C65 C 0.06043 0.83943 0.80914 0.0
H66 H 1.02312 0.81261 0.82196 0.0
H67 H 0.98665 0.79793 0.79327 0.0
H68 H 0.09868 0.88084 0.72717 0.0
H69 H 0.10753 0.87621 0.77219 0.0
H70 H 0.0942 0.85917 0.81043 0.0
H71 H 0.06368 0.83603 0.8284 0.0
Mn72 Mn 0.61955 0.88449 0.99771 0.0
Mn73 Mn 0.63735 0.9263 0.96335 0.0
C74 C 0.59358 0.90253 0.97621 0.0
C75 C 0.60818 0.84581 1.00327 0.0
C76 C 0.64175 0.93466 0.02074 0.0
O77 O 0.65109 0.87881 0.99248 0.0
O78 O 0.66012 0.90465 0.96598 0.0
C79 C 0.63737 0.89823 0.91304 0.0
N80 N 0.62967 0.91547 0.9277 0.0
C81 C 0.60795 0.92521 0.89122 0.0
C82 C 0.61584 0.90774 0.87579 0.0
C83 C 0.63058 0.8942 0.88675 0.0
C84 C 0.61564 0.92879 0.91726 0.0
H85 H 0.64872 0.88771 0.92124 0.0
C86 C 0.66324 0.88662 0.97656 0.0
O87 O 0.61728 0.86217 0.0221 0.0
O88 O 0.6061 0.85178 0.98081 0.0
N89 N 0.6156 0.94682 0.95852 0.0
C90 C 0.60691 0.9605 0.97624 0.0
C91 C 0.59029 0.97359 0.96849 0.0
C92 C 0.58277 0.97254 0.94263 0.0
C93 C 0.59164 0.95808 0.92476 0.0
C94 C 0.60802 0.94523 0.9336 0.0
H95 H 0.61223 0.96105 0.99614 0.0
O96 O 0.58856 0.89284 0.99566 0.0
O97 O 0.61368 0.90149 0.97005 0.0
O98 O 0.63203 0.91412 0.02252 0.0
O99 O 0.64586 0.94076 0.99962 0.0
C100 C 0.58413 0.95517 0.89859 0.0
C101 C 0.59236 0.93882 0.88181 0.0
H102 H 0.61047 0.90438 0.85553 0.0
H103 H 0.63666 0.88069 0.87488 0.0
H104 H 0.58319 0.98431 0.98247 0.0
H105 H 0.56966 0.98229 0.93668 0.0
H106 H 0.57171 0.96512 0.89121 0.0
H107 H 0.58614 0.93644 0.86176 0.0
Mn108 Mn 0.49299 0.27161 0.17692 0.0
Mn109 Mn 0.45573 0.27125 0.12609 0.0
C110 C 0.47946 0.2365 0.1504 0.0
C111 C 0.52989 0.27785 0.1976 0.0
C112 C 0.44707 0.28222 0.18021 0.0
O113 O 0.49627 0.3059 0.17059 0.0
O114 O 0.47781 0.30105 0.13055 0.0
C115 C 0.48166 0.26971 0.08278 0.0
N116 N 0.46535 0.25921 0.09513 0.0
C117 C 0.45747 0.22445 0.06356 0.0
C118 C 0.47436 0.23477 0.05064 0.0
C119 C 0.48643 0.25755 0.06024 0.0
C120 C 0.45328 0.23754 0.08576 0.0
H121 H 0.49111 0.28713 0.09023 0.0
C122 C 0.49141 0.31338 0.14958 0.0
O123 O 0.51288 0.28063 0.20974 0.0
O124 O 0.5255 0.27155 0.1732 0.0
N125 N 0.43459 0.24215 0.12107 0.0
C126 C 0.41918 0.23448 0.13605 0.0
C127 C 0.40586 0.21191 0.12923 0.0
C128 C 0.40852 0.19743 0.10711 0.0
C129 C 0.42441 0.20572 0.09191 0.0
C130 C 0.43708 0.22845 0.09957 0.0
H131 H 0.41706 0.24544 0.15311 0.0
O132 O 0.48749 0.23651 0.17393 0.0
O133 O 0.47912 0.25716 0.14398 0.0
O134 O 0.46282 0.27246 0.18937 0.0
O135 O 0.44389 0.2846 0.15694 0.0
C136 C 0.42836 0.19221 0.06964 0.0
C137 C 0.44487 0.20157 0.05546 0.0
H138 H 0.47827 0.22534 0.03341 0.0
H139 H 0.49949 0.26563 0.05038 0.0
H140 H 0.39362 0.20563 0.14105 0.0
H141 H 0.39832 0.17997 0.102 0.0
H142 H 0.41887 0.17454 0.06331 0.0
H143 H 0.44783 0.19097 0.03844 0.0
Mn144 Mn 0.05702 0.8087 0.25921 0.0
Mn145 Mn 1.0134 0.79599 0.21066 0.0
C146 C 0.04405 0.76972 0.23849 0.0
C147 C 0.09739 0.81741 0.27419 0.0
C148 C 1.00531 0.80506 0.26527 0.0
O149 O 0.05641 0.84121 0.24802 0.0
O150 O 1.02562 0.8302 0.21806 0.0
C151 C 0.04063 0.80908 0.17075 0.0
N152 N 1.02607 0.79287 0.17973 0.0
C153 C 1.02077 0.76619 0.14049 0.0
C154 C 0.03571 0.78259 0.13081 0.0
C155 C 0.04586 0.80403 0.14612 0.0
C156 C 1.0169 0.77183 0.16551 0.0
H157 H 0.04803 0.82585 0.18217 0.0
C158 C 0.04154 0.84583 0.23114 0.0
O159 O 0.08239 0.82196 0.28882 0.0
O160 O 0.08902 0.80882 0.25097 0.0
N161 N 0.99959 0.7636 0.20047 0.0
C162 C 0.98455 0.75025 0.21203 0.0
C163 C 0.97292 0.72822 0.19928 0.0
C164 C 0.97624 0.72049 0.1744 0.0
C165 C 0.99113 0.7349 0.1625 0.0
C166 C 1.00272 0.75641 0.17641 0.0
H167 H 0.98147 0.75635 0.23084 0.0
O168 O 0.05466 0.77406 0.26147 0.0
O169 O 0.04097 0.78826 0.22848 0.0
O170 O 1.02652 0.8105 0.27499 0.0
O171 O 0.99878 0.79847 0.24159 0.0
C172 C 0.99422 0.72918 0.13705 0.0
C173 C 1.00913 0.74476 0.12608 0.0
H174 H 0.03938 0.77896 0.11162 0.0
H175 H 0.05736 0.81682 0.13878 0.0
H176 H 0.96119 0.71737 0.20849 0.0
H177 H 0.96697 0.70365 0.16447 0.0
H178 H 0.98529 0.71278 0.12576 0.0
H179 H 1.01153 0.74006 0.10656 0.0
Mn180 Mn 0.56497 0.84564 0.41816 0.0
Mn181 Mn 0.56158 0.87457 0.36795 0.0
C182 C 0.52849 0.84825 0.39726 0.0
C183 C 0.57096 0.81314 0.43832 0.0
C184 C 0.57205 0.89953 0.42245 0.0
O185 O 0.5976 0.84875 0.40868 0.0
O186 O 0.59247 0.86503 0.37341 0.0
C187 C 0.56325 0.83436 0.32848 0.0
N188 N 0.55292 0.8524 0.33745 0.0
C189 C 0.52496 0.84477 0.30013 0.0
C190 C 0.53545 0.82629 0.29032 0.0
C191 C 0.55458 0.82094 0.30465 0.0
C192 C 0.53416 0.85726 0.32413 0.0
H193 H 0.57795 0.83023 0.33945 0.0
C194 C 0.60495 0.85619 0.38937 0.0
O195 O 0.57597 0.83463 0.44989 0.0
O196 O 0.56193 0.81009 0.41464 0.0
N197 N 0.53341 0.885 0.35929 0.0
C198 C 0.52463 0.90259 0.372 0.0
C199 C 0.50592 0.91064 0.36005 0.0
C200 C 0.49648 0.90057 0.33514 0.0
C201 C 0.50519 0.88186 0.32278 0.0
C202 C 0.52412 0.87489 0.33549 0.0
H203 H 0.53202 0.91063 0.39099 0.0
O204 O 0.53139 0.84348 0.42016 0.0
O205 O 0.54709 0.85046 0.38664 0.0
O206 O 0.57027 0.88067 0.43209 0.0
O207 O 0.5699 0.89952 0.39854 0.0
C208 C 0.496 0.87002 0.29828 0.0
C209 C 0.5057 0.85128 0.28708 0.0
H210 H 0.5289 0.81601 0.27188 0.0
H211 H 0.56268 0.8066 0.2973 0.0
H212 H 0.49903 0.92483 0.36985 0.0
H213 H 0.48254 0.90738 0.3257 0.0
H214 H 0.48132 0.87499 0.288 0.0
H215 H 0.49827 0.84205 0.26841 0.0
Mn216 Mn 0.55619 0.30679 0.75929 0.0
Mn217 Mn 0.512 0.29317 0.71145 0.0
C218 C 0.54313 0.26751 0.73948 0.0
C219 C 0.5966 0.3155 0.77357 0.0
C220 C 0.50473 0.30352 0.76621 0.0
O221 O 0.55539 0.33891 0.74724 0.0
O222 O 0.52421 0.32741 0.71789 0.0
C223 C 0.53841 0.30525 0.67055 0.0
N224 N 0.52416 0.28931 0.68025 0.0
C225 C 0.51843 0.26176 0.6416 0.0
C226 C 0.53305 0.27786 0.63119 0.0
C227 C 0.54327 0.29961 0.64584 0.0
C228 C 0.51493 0.26799 0.66666 0.0
H229 H 0.54585 0.32224 0.68147 0.0
C230 C 0.54029 0.34323 0.73042 0.0
O231 O 0.58191 0.32072 0.78835 0.0
O232 O 0.58793 0.30635 0.75059 0.0
N233 N 0.49822 0.26068 0.70225 0.0
C234 C 0.48351 0.24764 0.71447 0.0
C235 C 0.47194 0.22534 0.70245 0.0
C236 C 0.47498 0.21698 0.67763 0.0
C237 C 0.48955 0.23105 0.66506 0.0
C238 C 0.50107 0.25289 0.67824 0.0
H239 H 0.48064 0.25421 0.73324 0.0
O240 O 0.5539 0.27231 0.7624 0.0
O241 O 0.5398 0.28581 0.72912 0.0
O242 O 0.52601 0.30913 0.77553 0.0
O243 O 0.49786 0.29638 0.74268 0.0
C244 C 0.49237 0.22465 0.63963 0.0
C245 C 0.5068 0.24001 0.62789 0.0
H246 H 0.53644 0.27377 0.61194 0.0
H247 H 0.55452 0.31217 0.63794 0.0
H248 H 0.46046 0.21474 0.71218 0.0
H249 H 0.46576 0.19991 0.66827 0.0
H250 H 0.48353 0.20796 0.6289 0.0
H251 H 0.50892 0.23485 0.60836 0.0
Mn252 Mn 0.06414 0.34539 0.91681 0.0
Mn253 Mn 0.06143 0.37721 0.86889 0.0
C254 C 1.02805 0.34977 0.89681 0.0
C255 C 0.06911 0.31199 0.93575 0.0
C256 C 0.0711 0.39979 0.9238 0.0
O257 O 0.09625 0.34707 0.90648 0.0
O258 O 0.09294 0.36934 0.87582 0.0
C259 C 0.06668 0.33908 0.82873 0.0
N260 N 0.05488 0.35586 0.83768 0.0
C261 C 1.02814 0.34777 0.7993 0.0
C262 C 0.04006 0.33047 0.78961 0.0
C263 C 0.05934 0.32601 0.80446 0.0
C264 C 0.03605 0.35993 0.82377 0.0
H265 H 0.0816 0.33571 0.84 0.0
C266 C 0.10461 0.35781 0.88964 0.0
O267 O 0.07491 0.33323 0.94782 0.0
O268 O 0.05973 0.30968 0.91225 0.0
N269 N 0.03296 0.38656 0.85898 0.0
C270 C 1.02312 0.4035 0.8713 0.0
C271 C 1.00426 0.41082 0.8587 0.0
C272 C 0.99581 0.40075 0.83354 0.0
C273 C 1.00573 0.38284 0.82148 0.0
C274 C 1.02475 0.37658 0.83484 0.0
H275 H 0.02979 0.4116 0.89048 0.0
O276 O 0.03093 0.34448 0.91951 0.0
O277 O 0.0465 0.35178 0.88587 0.0
O278 O 0.07096 0.38033 0.93216 0.0
O279 O 0.06755 0.40099 0.90021 0.0
C280 C 0.99771 0.37119 0.79663 0.0
C281 C 1.00875 0.35346 0.78565 0.0
H282 H 0.03456 0.32049 0.77083 0.0
H283 H 0.06861 0.31265 0.79714 0.0
H284 H 0.9965 0.42447 0.86821 0.0
H285 H 0.98179 0.40705 0.82359 0.0
H286 H 0.98294 0.37557 0.78589 0.0
H287 H 1.00227 0.34442 0.76665 0.0
Mn288 Mn 0.46445 0.14514 0.34539 0.0
Mn289 Mn 0.41982 0.14235 0.3783 0.0
C290 C 0.44974 0.10968 0.35701 0.0
C291 C 0.47998 0.14326 0.30727 0.0
C292 C 0.46853 0.1553 0.40378 0.0
O293 O 0.45309 0.17614 0.3409 0.0
O294 O 0.42654 0.17321 0.36658 0.0
C295 C 0.38613 0.14361 0.33366 0.0
N296 N 0.39292 0.13323 0.35383 0.0
C297 C 0.35841 0.10453 0.3455 0.0
C298 C 0.351 0.11499 0.32475 0.0
C299 C 0.36499 0.13454 0.31873 0.0
C300 C 0.37983 0.11409 0.3594 0.0
H301 H 0.39668 0.15871 0.32896 0.0
C302 C 0.4378 0.18442 0.35203 0.0
O303 O 0.49171 0.15439 0.32846 0.0
O304 O 0.45891 0.13446 0.30802 0.0
N305 N 0.40961 0.11427 0.39141 0.0
C306 C 0.41861 0.10709 0.41288 0.0
C307 C 0.40624 0.08843 0.42211 0.0
C308 C 0.38469 0.07738 0.40942 0.0
C309 C 0.37544 0.08549 0.38785 0.0
C310 C 0.38842 0.10441 0.37966 0.0
H311 H 0.43497 0.11574 0.4231 0.0
O312 O 0.4699 0.11337 0.35051 0.0
O313 O 0.43757 0.12638 0.3548 0.0
O314 O 0.47739 0.15668 0.38336 0.0
O315 O 0.44705 0.15067 0.40411 0.0
C316 C 0.35372 0.07575 0.37438 0.0
C317 C 0.34531 0.0851 0.35304 0.0
H318 H 0.33461 0.10818 0.31334 0.0
H319 H 0.35943 0.14271 0.30272 0.0
H320 H 0.41321 0.08279 0.43916 0.0
H321 H 0.37524 0.06288 0.41651 0.0
H322 H 0.34338 0.06101 0.38023 0.0
H323 H 0.32864 0.07739 0.34272 0.0
Mn324 Mn 0.29037 0.15624 0.51688 0.0
Mn325 Mn 0.27099 0.12209 0.46073 0.0
C326 C 0.25204 0.14793 0.50268 0.0
C327 C 0.30132 0.16098 0.56015 0.0
C328 C 0.29345 0.17337 0.46627 0.0
O329 O 0.31678 0.1403 0.50953 0.0
O330 O 0.30199 0.11588 0.47321 0.0
C331 C 0.26622 0.07526 0.47738 0.0
N332 N 0.25667 0.09182 0.46627 0.0
C333 C 0.21935 0.06808 0.46096 0.0
C334 C 0.22882 0.05072 0.47217 0.0
C335 C 0.25236 0.05432 0.48038 0.0
C336 C 0.23405 0.08844 0.45811 0.0
H337 H 0.28425 0.07806 0.48407 0.0
C338 C 0.31804 0.12391 0.49177 0.0
O339 O 0.30879 0.17675 0.54681 0.0
O340 O 0.28813 0.14193 0.54813 0.0
N341 N 0.24104 0.12617 0.4475 0.0
C342 C 0.23433 0.14531 0.43871 0.0
C343 C 0.21116 0.14487 0.43052 0.0
C344 C 0.19512 0.12481 0.43152 0.0
C345 C 0.20242 0.1053 0.44056 0.0
C346 C 0.22578 0.10662 0.44813 0.0
H347 H 0.24651 0.16093 0.43823 0.0
O348 O 0.26055 0.16642 0.51938 0.0
O349 O 0.2664 0.13496 0.49486 0.0
O350 O 0.29625 0.17696 0.49029 0.0
O351 O 0.28477 0.1533 0.45309 0.0
C352 C 0.18736 0.08486 0.44299 0.0
C353 C 0.19581 0.06626 0.45317 0.0
H354 H 0.21815 0.03468 0.47483 0.0
H355 H 0.25978 0.04107 0.48921 0.0
H356 H 0.20564 0.16004 0.42369 0.0
H357 H 0.17722 0.12468 0.42555 0.0
H358 H 0.1692 0.0834 0.43741 0.0
H359 H 0.18403 0.05079 0.45528 0.0
Mn360 Mn 0.19902 0.07029 0.84162 0.0
Mn361 Mn 0.24117 0.08084 0.89077 0.0
C362 C 0.21855 0.11026 0.85646 0.0
C363 C 0.18329 0.0637 0.79739 0.0
C364 C 0.19071 0.0704 0.89844 0.0
O365 O 0.20983 0.03685 0.84103 0.0
O366 O 0.2372 0.04619 0.87485 0.0
C367 C 0.27977 0.07356 0.8628 0.0
N368 N 0.26981 0.08772 0.87873 0.0
C369 C 0.30124 0.11974 0.88232 0.0
C370 C 0.31187 0.10544 0.8661 0.0
C371 C 0.30106 0.08226 0.85627 0.0
C372 C 0.28005 0.11009 0.88824 0.0
H373 H 0.27153 0.05577 0.85502 0.0
C374 C 0.22597 0.03111 0.85597 0.0
O375 O 0.17148 0.05781 0.81485 0.0
O376 O 0.20471 0.07184 0.80526 0.0
N377 N 0.24752 0.113 0.90717 0.0
C378 C 0.23437 0.12509 0.92116 0.0
C379 C 0.24248 0.14878 0.93175 0.0
C380 C 0.26403 0.15978 0.92791 0.0
C381 C 0.27724 0.14701 0.91342 0.0
C382 C 0.2683 0.12343 0.90338 0.0
H383 H 0.21772 0.11684 0.92407 0.0
O384 O 0.19767 0.10555 0.84525 0.0
O385 O 0.227 0.0912 0.85987 0.0
O386 O 0.1833 0.06742 0.87462 0.0
O387 O 0.21218 0.07494 0.90629 0.0
C388 C 0.29879 0.15688 0.90823 0.0
C389 C 0.31073 0.1433 0.89258 0.0
H390 H 0.32825 0.11212 0.86093 0.0
H391 H 0.3091 0.07114 0.84363 0.0
H392 H 0.2321 0.15856 0.94277 0.0
H393 H 0.27017 0.17808 0.936 0.0
H394 H 0.30628 0.17494 0.91604 0.0
H395 H 0.32713 0.15122 0.88842 0.0
Mn396 Mn 0.24983 0.9203 0.07711 0.0
Mn397 Mn 0.24702 0.96115 0.03799 0.0
C398 C 0.28256 0.9388 0.0644 0.0
C399 C 0.25443 0.9087 0.1175 0.0
C400 C 0.23799 0.90861 0.01888 0.0
O401 O 0.21854 0.92973 0.08088 0.0
O402 O 0.21866 0.95539 0.05313 0.0
C403 C 0.24577 1.00202 0.07696 0.0
N404 N 0.25517 0.9921 0.05727 0.0
C405 C 0.27949 0.02885 0.05617 0.0
C406 C 0.27004 0.03948 0.07639 0.0
C407 C 0.25321 0.02595 0.08694 0.0
C408 C 0.27171 1.00483 0.04737 0.0
H409 H 0.23262 0.99181 0.08492 0.0
C410 C 0.20941 0.94464 0.06946 0.0
O411 O 0.24452 0.89401 0.09752 0.0
O412 O 0.26038 0.93042 0.11428 0.0
N413 N 0.27306 0.96959 0.02178 0.0
C414 C 0.28098 0.95652 1.0029 0.0
C415 C 0.2972 0.96756 0.98967 0.0
C416 C 0.30501 0.99195 0.99588 0.0
C417 C 0.29727 1.00492 1.01595 0.0
C418 C 0.28084 0.99301 0.02821 0.0
H419 H 0.27475 0.93787 0.99771 0.0
O420 O 0.28186 0.91854 0.07215 0.0
O421 O 0.26421 0.9481 0.06463 0.0
O422 O 0.23948 0.90193 0.04063 0.0
O423 O 0.23935 0.93023 1.01616 0.0
C424 C 0.30494 0.02925 0.02405 0.0
C425 C 0.29626 0.04115 0.04435 0.0
H426 H 0.27557 0.05799 0.08397 0.0
H427 H 0.24583 0.03402 0.10254 0.0
H428 H 0.30337 0.95738 0.97444 0.0
H429 H 0.31706 1.0005 0.98514 0.0
H430 H 0.31765 0.03895 1.01493 0.0
H431 H 0.30252 0.05978 0.05063 0.0
Mn432 Mn 0.35494 0.50569 0.16664 0.0
Mn433 Mn 0.36692 0.56362 0.16106 0.0
C434 C 0.39249 0.52351 0.17075 0.0
C435 C 0.34274 0.4765 0.1898 0.0
C436 C 0.35558 0.5247 0.11605 0.0
O437 O 0.32439 0.51595 0.16643 0.0
O438 O 0.33461 0.55429 0.16467 0.0
C439 C 0.36062 0.57916 0.21398 0.0
N440 N 0.37396 0.57949 0.19523 0.0
C441 C 0.40501 0.60462 0.22326 0.0
C442 C 0.39158 0.60463 0.24282 0.0
C443 C 0.36932 0.59175 0.23817 0.0
C444 C 0.39564 0.59119 0.19972 0.0
H445 H 0.34351 0.56927 0.21055 0.0
C446 C 0.31983 0.53646 0.1661 0.0
O447 O 0.33951 0.47286 0.16528 0.0
O448 O 0.35362 0.49709 0.20102 0.0
N449 N 0.39723 0.57719 0.15753 0.0
C450 C 0.40545 0.58012 0.13544 0.0
C451 C 0.42659 0.5945 0.13601 0.0
C452 C 0.43849 0.60684 0.15915 0.0
C453 C 0.42899 0.60496 0.18142 0.0
C454 C 0.4078 0.5904 0.17962 0.0
H455 H 0.39584 0.57151 0.11748 0.0
O456 O 0.38697 0.50078 0.16823 0.0
O457 O 0.37595 0.53546 0.17343 0.0
O458 O 0.35332 0.50787 0.12909 0.0
O459 O 0.36042 0.54671 0.12548 0.0
C460 C 0.43898 0.61831 0.205 0.0
C461 C 0.42711 0.61787 0.22602 0.0
H462 H 0.39812 0.61463 0.2614 0.0
H463 H 0.35884 0.59164 0.25317 0.0
H464 H 0.43345 0.5965 0.11859 0.0
H465 H 0.45441 0.61859 0.15948 0.0
H466 H 0.4555 0.62947 0.207 0.0
H467 H 0.43481 0.62844 0.24399 0.0
Mn468 Mn 0.86992 0.23047 0.08161 0.0
Mn469 Mn 0.8549 0.18031 0.03922 0.0
C470 C 0.83269 0.21079 0.07299 0.0
C471 C 0.8781 0.25085 0.12383 0.0
C472 C 0.8605 0.2287 0.02357 0.0
O473 O 0.90098 0.21956 0.07947 0.0
O474 O 0.88841 0.18871 0.04808 0.0
C475 C 0.87094 0.14778 0.07261 0.0
N476 N 0.854 0.15386 0.05696 0.0
C477 C 0.82837 0.11852 0.06005 0.0
C478 C 0.84557 0.11186 0.0761 0.0
C479 C 0.86691 0.12662 0.08251 0.0
C480 C 0.83332 0.13992 0.05094 0.0
H481 H 0.88743 0.15893 0.07747 0.0
C482 C 0.90437 0.20229 0.06359 0.0
O483 O 0.88261 0.26139 0.10476 0.0
O484 O 0.87158 0.22824 0.11857 0.0
N485 N 0.82294 0.1694 0.02902 0.0
C486 C 0.80769 0.17912 1.01475 0.0
C487 C 0.78544 0.16671 1.00696 0.0
C488 C 0.77915 0.14435 1.01372 0.0
C489 C 0.795 0.13486 0.02875 0.0
C490 C 0.81695 0.14803 0.03591 0.0
H491 H 0.81243 0.19629 1.00954 0.0
O492 O 0.83724 0.23321 0.08131 0.0
O493 O 0.84996 0.20043 0.06943 0.0
O494 O 0.86861 0.24032 0.04563 0.0
O495 O 0.85463 0.20631 0.01945 0.0
C496 C 0.78989 0.11288 0.03699 0.0
C497 C 0.80649 0.10483 0.05281 0.0
H498 H 0.84255 0.0955 0.08371 0.0
H499 H 0.88026 0.12163 0.09493 0.0
H500 H 0.77321 0.17428 0.99563 0.0
H501 H 0.76203 0.13472 1.00742 0.0
H502 H 0.77316 0.10213 0.03149 0.0
H503 H 0.80222 0.0881 0.05939 0.0
Mn504 Mn 0.1541 0.52478 0.33857 0.0
Mn505 Mn 0.19816 0.53436 0.38625 0.0
C506 C 0.17627 0.56186 0.35093 0.0
C507 C 0.13906 0.51737 0.29509 0.0
C508 C 0.14897 0.53023 0.39529 0.0
O509 O 0.16057 0.49112 0.34071 0.0
O510 O 0.1897 0.50017 0.37311 0.0
C511 C 0.23374 0.51983 0.35699 0.0
N512 N 0.22619 0.5365 0.37255 0.0
C513 C 0.26099 0.56393 0.37465 0.0
C514 C 0.26918 0.54703 0.35872 0.0
C515 C 0.25546 0.52491 0.3498 0.0
C516 C 0.2392 0.55788 0.38114 0.0
H517 H 0.2233 0.50278 0.35013 0.0
C518 C 0.17594 0.48535 0.35624 0.0
O519 O 0.12617 0.51419 0.31247 0.0
O520 O 0.16076 0.52274 0.30284 0.0
N521 N 0.20823 0.56689 0.4003 0.0
C522 C 0.19726 0.58173 0.41418 0.0
C523 C 0.20838 0.60484 0.42385 0.0
C524 C 0.23071 0.61236 0.4194 0.0
C525 C 0.24167 0.59674 0.40512 0.0
C526 C 0.22972 0.57395 0.3959 0.0
H527 H 0.18013 0.576 0.41777 0.0
O528 O 0.15554 0.55951 0.3397 0.0
O529 O 0.18325 0.5425 0.3551 0.0
O530 O 0.14006 0.52657 0.37201 0.0
O531 O 0.17036 0.53301 0.40245 0.0
C532 C 0.26391 0.60294 0.39952 0.0
C533 C 0.27351 0.58663 0.38414 0.0
H534 H 0.2859 0.5509 0.3531 0.0
H535 H 0.26162 0.5118 0.33744 0.0
H536 H 0.19978 0.6168 0.43479 0.0
H537 H 0.23924 0.63019 0.42691 0.0
H538 H 0.27374 0.62028 0.40682 0.0
H539 H 0.29047 0.59177 0.37959 0.0
Mn540 Mn 0.86197 1.00724 0.66504 0.0
Mn541 Mn 0.87434 0.06506 0.65905 0.0
C542 C 0.89956 0.0243 0.66661 0.0
C543 C 0.8514 0.97809 0.68903 0.0
C544 C 0.86091 0.02623 0.61423 0.0
O545 O 0.83174 1.01813 0.66712 0.0
O546 O 0.84226 0.05606 0.66377 0.0
C547 C 0.86968 0.08045 0.71254 0.0
N548 N 0.8824 0.08076 0.69323 0.0
C549 C 0.91417 0.10557 0.72044 0.0
C550 C 0.90138 0.10562 0.74057 0.0
C551 C 0.87907 0.0929 0.73661 0.0
C552 C 0.90413 0.09227 0.69705 0.0
H553 H 0.85253 0.0707 0.70965 0.0
C554 C 0.82743 0.03872 0.66642 0.0
O555 O 0.84655 0.97448 0.66458 0.0
O556 O 0.86263 0.99871 0.69966 0.0
N557 N 0.90444 0.07841 0.65452 0.0
C558 C 0.91188 0.08154 0.63208 0.0
C559 C 0.93293 0.09587 0.63198 0.0
C560 C 0.94548 0.10802 0.65487 0.0
C561 C 0.93676 0.10599 0.67756 0.0
C562 C 0.91564 0.09147 0.67642 0.0
H563 H 0.90172 0.07316 0.61434 0.0
O564 O 0.89363 1.00164 0.66422 0.0
O565 O 0.88356 0.03669 0.67069 0.0
O566 O 0.8584 1.00948 0.62739 0.0
O567 O 0.86681 0.04821 0.62353 0.0
C568 C 0.94741 0.1192 0.70097 0.0
C569 C 0.93625 0.11871 0.72251 0.0
H570 H 0.90845 0.11552 0.75906 0.0
H571 H 0.86908 0.0928 0.75204 0.0
H572 H 0.93918 0.09801 0.61427 0.0
H573 H 0.9613 0.11976 0.65471 0.0
H574 H 0.9639 0.13031 0.70246 0.0
H575 H 0.94445 0.12919 0.74034 0.0
Mn576 Mn 0.9264 0.08646 0.30952 0.0
Mn577 Mn 0.88299 0.08395 0.34511 0.0
C578 C 0.90556 0.04838 0.31593 0.0
C579 C 0.94618 0.08853 0.27179 0.0
C580 C 0.93269 0.09241 0.36886 0.0
O581 O 0.91765 0.12119 0.3109 0.0
O582 O 0.89098 0.11643 0.33638 0.0
C583 C 0.84815 0.09081 0.30423 0.0
N584 N 0.85506 0.07817 0.32235 0.0
C585 C 0.819 0.05195 0.31445 0.0
C586 C 0.81144 0.06474 0.29579 0.0
C587 C 0.82616 0.08414 0.29051 0.0
C588 C 0.84133 0.05899 0.32695 0.0
H589 H 0.85928 0.1059 0.30028 0.0
C590 C 0.90279 0.12949 0.32363 0.0
O591 O 0.95581 0.09585 0.29479 0.0
O592 O 0.92441 0.08076 0.2701 0.0
N593 N 0.87194 0.05478 0.35586 0.0
C594 C 0.88127 0.04529 0.3756 0.0
C595 C 0.86839 0.02646 0.38415 0.0
C596 C 0.84582 1.01801 0.37288 0.0
C597 C 0.83636 0.02833 0.35296 0.0
C598 C 0.85008 0.04694 0.3451 0.0
H599 H 0.89841 0.05205 0.38482 0.0
O600 O 0.92594 0.05089 0.30974 0.0
O601 O 0.89747 0.06814 0.3177 0.0
O602 O 0.94042 0.09329 0.34778 0.0
O603 O 0.9113 0.08907 0.37012 0.0
C604 C 0.81362 1.02133 0.3411 0.0
C605 C 0.80509 0.03282 0.32153 0.0
H606 H 0.79435 0.05989 0.28549 0.0
H607 H 0.82048 0.0941 0.27612 0.0
H608 H 0.87575 1.01871 0.39967 0.0
H609 H 0.83582 1.00378 0.37989 0.0
H610 H 0.80253 1.00711 0.34689 0.0
H611 H 0.78766 0.02713 0.31241 0.0
Mn612 Mn 0.37368 0.73486 0.58189 0.0
Mn613 Mn 0.35928 0.68997 0.53264 0.0
C614 C 0.33611 0.71734 0.56854 0.0
C615 C 0.38049 0.75086 0.62543 0.0
C616 C 0.37 0.741 0.52564 0.0
O617 O 0.40419 0.72253 0.57976 0.0
O618 O 0.39218 0.6944 0.54543 0.0
C619 C 0.36777 0.65079 0.56049 0.0
N620 N 0.35343 0.66077 0.54535 0.0
C621 C 0.32344 0.62735 0.54184 0.0
C622 C 0.33791 0.61669 0.55731 0.0
C623 C 0.36013 0.62851 0.56675 0.0
C624 C 0.33194 0.64964 0.53636 0.0
H625 H 0.3849 0.65973 0.56771 0.0
C626 C 0.40765 0.70589 0.56307 0.0
O627 O 0.38686 0.76315 0.60831 0.0
O628 O 0.37275 0.72863 0.61756 0.0
N629 N 0.32771 0.6834 0.51869 0.0
C630 C 0.31548 0.69665 0.5052 0.0
C631 C 0.29272 0.6876 0.49495 0.0
C632 C 0.28285 0.66492 0.49838 0.0
C633 C 0.29578 0.65159 0.51228 0.0
C634 C 0.31837 0.66156 0.52211 0.0
H635 H 0.32303 0.71401 0.5023 0.0
O636 O 0.34115 0.73883 0.58034 0.0
O637 O 0.35314 0.7068 0.56442 0.0
O638 O 0.37524 0.74956 0.54912 0.0
O639 O 0.36413 0.71901 0.51745 0.0
C640 C 0.28713 0.62883 0.51682 0.0
C641 C 0.30087 0.61681 0.53178 0.0
H642 H 0.33209 0.59949 0.56215 0.0
H643 H 0.37138 0.62042 0.57876 0.0
H644 H 0.28283 0.69802 0.48431 0.0
H645 H 0.26531 0.65795 0.49033 0.0
H646 H 0.26989 0.62046 0.50899 0.0
H647 H 0.29388 0.59949 0.5355 0.0
Mn648 Mn 0.42652 0.58423 0.81056 0.0
Mn649 Mn 0.38311 0.58109 0.84624 0.0
C650 C 0.40583 0.54583 0.81614 0.0
C651 C 0.44657 0.58703 0.77309 0.0
C652 C 0.43283 0.58875 0.86977 0.0
O653 O 0.4177 0.61894 0.81245 0.0
O654 O 0.39114 0.61377 0.83797 0.0
C655 C 0.34782 0.58882 0.80628 0.0
N656 N 0.35478 0.57607 0.82427 0.0
C657 C 0.31779 0.55172 0.81868 0.0
C658 C 0.31017 0.56465 0.80018 0.0
C659 C 0.32532 0.58316 0.79381 0.0
C660 C 0.34055 0.55783 0.83002 0.0
H661 H 0.35931 0.60325 0.80155 0.0
C662 C 0.40283 0.62703 0.8253 0.0
O663 O 0.45603 0.59405 0.79618 0.0
O664 O 0.4248 0.57918 0.77114 0.0
N665 N 0.37188 0.55186 0.85671 0.0
C666 C 0.38189 0.54117 0.87499 0.0
C667 C 0.36885 0.52291 0.88424 0.0
C668 C 0.34569 0.51569 0.87453 0.0
C669 C 0.33571 0.52696 0.85581 0.0
C670 C 0.34946 0.54537 0.84765 0.0
H671 H 0.39959 0.54676 0.88277 0.0
O672 O 0.42627 0.54879 0.8101 0.0
O673 O 0.39741 0.56546 0.81829 0.0
O674 O 0.44065 0.59031 0.84884 0.0
O675 O 0.41146 0.5855 0.87091 0.0
C676 C 0.31258 0.5209 0.84519 0.0
C677 C 0.30369 0.5331 0.82642 0.0
H678 H 0.29275 0.56053 0.79076 0.0
H679 H 0.31959 0.5932 0.77952 0.0
H680 H 0.37661 0.51461 0.89905 0.0
H681 H 0.33564 0.50165 0.88177 0.0
H682 H 0.30155 0.50672 0.85112 0.0
H683 H 0.28596 0.52808 0.81815 0.0
Mn684 Mn 0.65465 0.02692 0.84058 0.0
Mn685 Mn 0.69942 0.03465 0.88724 0.0
C686 C 0.67773 0.06344 0.85324 0.0
C687 C 0.63905 1.01988 0.79734 0.0
C688 C 0.6506 0.03111 0.89738 0.0
O689 O 0.66017 0.99296 0.84189 0.0
O690 O 0.6903 1.00076 0.87314 0.0
C691 C 0.7343 1.02031 0.85679 0.0
N692 N 0.72718 0.03679 0.87302 0.0
C693 C 0.76233 0.06379 0.87551 0.0
C694 C 0.77007 0.04708 0.85888 0.0
C695 C 0.75595 0.02528 0.84942 0.0
C696 C 0.74058 0.05786 0.88215 0.0
H697 H 0.72355 1.0035 0.84954 0.0
C698 C 0.67575 0.98655 0.85652 0.0
O699 O 0.62634 1.01708 0.81497 0.0
O700 O 0.66081 0.02496 0.80473 0.0
N701 N 0.71004 0.06688 0.90211 0.0
C702 C 0.69943 0.08164 0.91658 0.0
C703 C 0.71092 0.1045 0.92675 0.0
C704 C 0.73325 0.11185 0.92218 0.0
C705 C 0.74383 0.09632 0.9073 0.0
C706 C 0.73152 0.07378 0.89759 0.0
H707 H 0.6823 0.07603 0.92025 0.0
O708 O 0.65697 0.06182 0.84235 0.0
O709 O 0.68421 0.04371 0.85681 0.0
O710 O 0.64127 0.02858 0.87434 0.0
O711 O 0.67199 0.03315 0.90401 0.0
C712 C 0.76605 0.10237 0.90155 0.0
C713 C 0.77524 0.08619 0.88552 0.0
H714 H 0.78675 0.05086 0.85312 0.0
H715 H 0.76178 1.01232 0.83653 0.0
H716 H 0.70261 0.11641 0.93815 0.0
H717 H 0.74206 0.12951 0.93006 0.0
H718 H 0.77615 0.11949 0.90922 0.0
H719 H 0.79218 0.09123 0.88087 0.0
Mn720 Mn 0.78053 0.65522 1.01273 0.0
Mn721 Mn 0.76396 0.61946 0.95696 0.0
C722 C 0.74257 0.64359 0.99789 0.0
C723 C 0.79134 0.66191 0.05612 0.0
C724 C 0.7829 0.67153 0.96164 0.0
O725 O 0.80847 0.64167 1.00635 0.0
O726 O 0.79574 0.61622 0.97017 0.0
C727 C 0.76282 0.57326 0.97464 0.0
N728 N 0.75187 0.58859 0.96295 0.0
C729 C 0.71608 0.562 0.95729 0.0
C730 C 0.72701 0.54587 0.96908 0.0
C731 C 0.75049 0.55151 0.97776 0.0
C732 C 0.72932 0.58324 0.9543 0.0
H733 H 0.7808 0.57764 0.98168 0.0
C734 C 0.81124 0.62576 0.98883 0.0
O735 O 0.79756 0.67752 0.04208 0.0
O736 O 0.77934 0.6419 0.04479 0.0
N737 N 0.73339 0.62081 0.94306 0.0
C738 C 0.7251 0.639 0.93383 0.0
C739 C 0.70172 0.63654 0.92523 0.0
C740 C 0.6871 0.61546 0.92629 0.0
C741 C 0.69602 0.59697 0.93581 0.0
C742 C 0.71953 0.6003 0.94376 0.0
H743 H 0.73618 0.65538 0.93332 0.0
O744 O 0.74956 0.66272 1.01417 0.0
O745 O 0.75818 0.632 0.99078 0.0
O746 O 0.78508 0.67548 0.9856 0.0
O747 O 0.77555 0.65107 0.9487 0.0
C748 C 0.68242 0.57563 0.93838 0.0
C749 C 0.69244 0.55815 0.94908 0.0
H750 H 0.7175 0.52922 0.97187 0.0
H751 H 0.75902 0.53922 0.98706 0.0
H752 H 0.69494 0.65094 0.91804 0.0
H753 H 0.66903 0.61377 0.92001 0.0
H754 H 0.66418 0.57262 0.93254 0.0
H755 H 0.68176 0.54196 0.95129 0.0
Mn756 Mn 0.96385 0.64667 0.84481 0.0
Mn757 Mn 0.91938 0.64487 0.87804 0.0
C758 C 0.94765 0.61127 0.85548 0.0
C759 C 0.97948 0.64434 0.8067 0.0
C760 C 0.96821 0.65638 0.90326 0.0
O761 O 0.95329 0.67819 0.84069 0.0
O762 O 0.92693 0.6757 0.86669 0.0
C763 C 0.8855 0.64767 0.83417 0.0
N764 N 0.89212 0.63688 0.85408 0.0
C765 C 0.85636 0.61015 0.84702 0.0
C766 C 0.84912 0.62105 0.82655 0.0
C767 C 0.86382 0.63979 0.82 0.0
C768 C 0.87833 0.61847 0.86012 0.0
H769 H 0.89658 0.66222 0.82915 0.0
C770 C 0.93832 0.68679 0.85215 0.0
O771 O 0.99135 0.65532 0.82787 0.0
O772 O 0.95829 0.63604 0.80738 0.0
N773 N 0.90854 0.61679 0.89087 0.0
C774 C 0.91777 0.6087 0.91164 0.0
C775 C 0.90488 0.59058 0.92121 0.0
C776 C 0.88258 0.58107 0.90957 0.0
C777 C 0.87326 0.58993 0.88855 0.0
C778 C 0.88681 0.6082 0.87997 0.0
H779 H 0.93471 0.61624 0.9211 0.0
O780 O 0.96806 0.61439 0.84956 0.0
O781 O 0.93635 0.62868 0.85381 0.0
O782 O 0.97707 0.65768 0.88283 0.0
O783 O 0.94675 0.65215 0.90359 0.0
C784 C 0.85093 0.58157 0.87602 0.0
C785 C 0.84257 0.59149 0.85507 0.0
H786 H 0.83231 0.61519 0.81575 0.0
H787 H 0.85839 0.64829 0.8042 0.0
H788 H 0.91206 0.58412 0.93769 0.0
H789 H 0.87262 0.56716 0.91703 0.0
H790 H 0.84012 0.56739 0.88222 0.0
H791 H 0.82546 0.58477 0.84541 0.0
Mn792 Mn 0.75564 0.42267 0.57992 0.0
Mn793 Mn 0.75619 0.46434 0.54149 0.0
C794 C 0.78907 0.43746 0.56614 0.0
C795 C 0.75979 0.41143 0.62058 0.0
C796 C 0.74379 0.41204 0.52153 0.0
O797 O 0.72554 0.43472 0.58418 0.0
O798 O 0.7275 0.46013 0.5563 0.0
C799 C 0.75729 0.50472 0.58194 0.0
N800 N 0.7661 0.49465 0.56185 0.0
C801 C 0.79303 0.53009 0.56271 0.0
C802 C 0.78417 0.54089 0.58331 0.0
C803 C 0.76632 0.52808 0.59307 0.0
C804 C 0.7836 0.50663 0.5527 0.0
H805 H 0.74344 0.49508 0.58939 0.0
C806 C 0.71743 0.45007 0.57255 0.0
O807 O 0.74868 0.39698 0.60094 0.0
O808 O 0.76701 0.43271 0.61686 0.0
N809 N 0.78253 0.47171 0.52537 0.0
C810 C 0.78932 0.45871 0.50557 0.0
C811 C 0.80655 0.46916 0.49318 0.0
C812 C 0.8165 0.49292 0.50109 0.0
C813 C 0.80943 0.50591 0.52161 0.0
C814 C 0.79197 0.49465 0.53303 0.0
H815 H 0.78152 0.44057 0.49911 0.0
O816 O 0.78657 0.41742 0.57441 0.0
O817 O 0.77227 0.44922 0.56718 0.0
O818 O 0.74404 0.40498 0.54316 0.0
O819 O 0.74694 0.43384 0.51914 0.0
C820 C 0.81884 0.52968 0.53098 0.0
C821 C 0.81079 0.5417 0.55168 0.0
H822 H 0.79095 0.55897 0.5918 0.0
H823 H 0.75941 0.53627 0.60899 0.0
H824 H 0.81194 0.459 0.47734 0.0
H825 H 0.82942 0.50109 0.49114 0.0
H826 H 0.83243 0.53882 0.52256 0.0
H827 H 0.81834 0.55989 0.55892 0.0
Mn828 Mn 0.70003 0.57274 0.34438 0.0
Mn829 Mn 0.74277 0.58393 0.39288 0.0
C830 C 0.71941 0.61281 0.35856 0.0
C831 C 0.68347 0.5654 0.30055 0.0
C832 C 0.69257 0.57312 0.4014 0.0
O833 O 0.71115 0.53953 0.34382 0.0
O834 O 0.73898 0.54925 0.37719 0.0
C835 C 0.78103 0.57683 0.36429 0.0
N836 N 0.77114 0.59097 0.38032 0.0
C837 C 0.80227 0.6232 0.38328 0.0
C838 C 0.81282 0.60891 0.36695 0.0
C839 C 0.80213 0.58564 0.35738 0.0
C840 C 0.78126 0.61343 0.38957 0.0
H841 H 0.77288 0.55896 0.35672 0.0
C842 C 0.7276 0.53404 0.3585 0.0
O843 O 0.67215 0.55969 0.31844 0.0
O844 O 0.70492 0.5739 0.30777 0.0
N845 N 0.74898 0.61618 0.409 0.0
C846 C 0.73588 0.62823 0.42313 0.0
C847 C 0.74388 0.65198 0.43348 0.0
C848 C 0.76526 0.66311 0.42927 0.0
C849 C 0.77841 0.65039 0.41464 0.0
C850 C 0.76958 0.62674 0.40483 0.0
H851 H 0.71937 0.61987 0.42634 0.0
O852 O 0.69839 0.60792 0.34775 0.0
O853 O 0.72807 0.59388 0.362 0.0
O854 O 0.68491 0.57 0.37768 0.0
O855 O 0.71409 0.57788 0.40897 0.0
C856 C 0.7998 0.66036 0.40912 0.0
C857 C 0.81166 0.64683 0.39333 0.0
H858 H 0.82906 0.61568 0.36149 0.0
H859 H 0.81011 0.57454 0.34466 0.0
H860 H 0.73355 0.66173 0.44461 0.0
H861 H 0.77132 0.68147 0.43718 0.0
H862 H 0.80724 0.67846 0.41681 0.0
H863 H 0.82793 0.65482 0.3889 0.0
Nd864 Nd 0.07976 0.09799 0.08682 0.0
Nd865 Nd 0.04893 0.0588 0.07639 0.0
C866 C 0.10799 0.13883 0.09751 0.0
C867 C 0.10621 0.15969 0.08455 0.0
C868 C 0.08586 0.16888 0.08238 0.0
C869 C 0.08226 0.18502 0.06587 0.0
C870 C 0.09898 0.19278 0.05122 0.0
C871 C 0.11985 0.18447 0.0544 0.0
C872 C 0.12335 0.16805 0.07075 0.0
C873 C 0.0807 0.0797 0.03604 0.0
C874 C 0.03023 0.10562 0.06413 0.0
C875 C 1.02089 1.01803 0.06701 0.0
C876 C 1.02141 0.99907 0.08315 0.0
C877 C 0.03454 0.9813 0.07832 0.0
C878 C 0.03839 0.96605 0.09588 0.0
C879 C 1.02925 0.96817 0.1188 0.0
C880 C 1.01544 0.98535 0.12319 0.0
C881 C 1.01152 1.00051 0.10562 0.0
C882 C 0.04824 0.07719 0.12715 0.0
C883 C 0.09772 0.05081 0.10002 0.0
O884 O 0.09224 0.13282 0.11131 0.0
O885 O 0.11246 0.12055 0.08349 0.0
O886 O 0.07691 0.10055 0.04408 0.0
O887 O 0.07936 0.06761 0.05413 0.0
O888 O 0.04911 0.11579 0.07871 0.0
O889 O 1.02706 0.08266 0.05636 0.0
O890 O 0.03819 1.02239 0.05482 0.0
O891 O 1.01497 0.03745 0.07708 0.0
O892 O 0.05201 0.05637 0.11915 0.0
O893 O 0.04929 0.08912 0.10895 0.0
O894 O 0.07887 0.04066 0.0855 0.0
O895 O 0.10149 0.07392 0.10684 0.0
H896 H 0.0722 0.16283 0.0926 0.0
H897 H 0.0659 0.19064 0.06386 0.0
H898 H 0.13342 0.19034 0.04398 0.0
H899 H 0.13917 0.16121 0.07188 0.0
H900 H 0.04259 0.97973 0.06138 0.0
H901 H 0.04921 0.95313 0.09188 0.0
H902 H 1.00776 0.98723 0.14037 0.0
H903 H 1.00135 1.01394 0.11014 0.0
Nd904 Nd 0.31823 0.85602 0.34102 0.0
Nd905 Nd 0.30939 0.81135 0.31549 0.0
C906 C 0.32392 0.89827 0.36885 0.0
C907 C 0.34398 0.91604 0.37966 0.0
C908 C 0.36583 0.9119 0.3758 0.0
C909 C 0.38431 0.9305 0.38086 0.0
C910 C 0.38117 0.95341 0.39004 0.0
C911 C 0.35954 0.95703 0.39558 0.0
C912 C 0.34106 0.93848 0.39031 0.0
C913 C 0.35952 0.84322 0.33004 0.0
C914 C 0.30578 0.85208 0.28217 0.0
C915 C 0.30435 0.76915 0.28789 0.0
C916 C 0.29223 0.74597 0.29173 0.0
C917 C 0.30422 0.73033 0.30325 0.0
C918 C 0.29253 0.71002 0.31022 0.0
C919 C 0.26862 0.70484 0.30566 0.0
C920 C 0.2567 0.71987 0.29306 0.0
C921 C 0.26836 0.74019 0.28614 0.0
C922 C 0.26852 0.82341 0.32875 0.0
C923 C 0.31719 0.81425 0.37536 0.0
O924 O 0.32023 0.89457 0.34423 0.0
O925 O 0.32126 0.87873 0.37843 0.0
O926 O 0.35267 0.86249 0.32564 0.0
O927 O 0.34367 0.83033 0.33773 0.0
O928 O 0.3004 0.86235 0.30325 0.0
O929 O 0.3156 0.83341 0.28322 0.0
O930 O 0.32254 0.77838 0.30401 0.0
O931 O 0.29175 0.78478 0.28287 0.0
O932 O 0.27562 0.80394 0.33202 0.0
O933 O 0.28373 0.83665 0.32041 0.0
O934 O 0.31796 0.80054 0.35419 0.0
O935 O 0.31371 0.83602 0.37488 0.0
H936 H 0.36835 0.89461 0.36757 0.0
H937 H 0.40081 0.92718 0.37661 0.0
H938 H 0.35652 0.97453 0.40236 0.0
H939 H 0.32427 0.94197 0.39317 0.0
H940 H 0.32261 0.73417 0.30761 0.0
H941 H 0.30219 0.69852 0.31949 0.0
H942 H 0.23826 0.71642 0.28938 0.0
H943 H 0.25855 0.75176 0.2772 0.0
Nd944 Nd 0.58328 0.09191 0.58799 0.0
Nd945 Nd 0.54198 0.06692 0.59375 0.0
C946 C 0.62277 0.11145 0.57703 0.0
C947 C 0.64575 0.10774 0.58681 0.0
C948 C 0.6577 0.09442 0.57112 0.0
C949 C 0.677 0.0864 0.58139 0.0
C950 C 0.68474 0.09169 0.60752 0.0
C951 C 0.67363 0.10627 0.62292 0.0
C952 C 0.65432 0.11421 0.61269 0.0
C953 C 0.58753 0.07154 0.6318 0.0
C954 C 0.5677 0.03929 0.555 0.0
C955 C 0.50245 0.0474 0.60492 0.0
C956 C 0.48039 0.04093 0.58853 0.0
C957 C 0.46069 0.04574 0.59819 0.0
C958 C 0.44105 0.04635 0.58171 0.0
C959 C 0.44098 0.04234 0.55536 0.0
C960 C 0.46011 0.03551 0.54582 0.0
C961 C 0.47967 0.03478 0.56229 0.0
C962 C 0.53793 0.08818 0.55042 0.0
C963 C 0.55643 0.11955 0.62321 0.0
O964 O 0.60983 0.09325 0.56266 0.0
O965 O 0.61178 0.12211 0.59326 0.0
O966 O 0.59664 0.09266 0.62986 0.0
O967 O 0.57659 0.06113 0.61078 0.0
O968 O 0.57913 0.0606 0.55541 0.0
O969 O 0.55357 0.03576 0.57144 0.0
O970 O 0.51009 0.07002 0.60975 0.0
O971 O 0.51823 0.03529 0.59929 0.0
O972 O 0.52887 0.06687 0.55175 0.0
O973 O 0.54878 0.09798 0.57161 0.0
O974 O 0.54953 0.09793 0.62726 0.0
O975 O 0.56636 0.12238 0.60317 0.0
H976 H 0.65142 0.08914 0.55114 0.0
H977 H 0.68521 0.07515 0.56905 0.0
H978 H 0.67954 0.11109 0.64301 0.0
H979 H 0.64559 0.12452 0.62536 0.0
H980 H 0.46102 0.05081 0.61834 0.0
H981 H 0.42663 0.0519 0.58961 0.0
H982 H 0.46041 0.03215 0.5256 0.0
H983 H 0.49471 0.03106 0.55438 0.0
Nd984 Nd 0.31862 0.33546 0.86263 0.0
Nd985 Nd 0.30062 0.3243 0.81851 0.0
C986 C 0.32867 0.3472 0.91239 0.0
C987 C 0.32875 0.36944 0.92947 0.0
C988 C 0.30839 0.37533 0.93688 0.0
C989 C 0.30847 0.39686 0.95201 0.0
C990 C 0.32887 0.41297 0.96007 0.0
C991 C 0.34919 0.40709 0.95265 0.0
C992 C 0.34914 0.38553 0.93761 0.0
C993 C 0.33138 0.37556 0.83921 0.0
C994 C 0.26592 0.3432 0.85103 0.0
C995 C 0.28992 0.31359 0.76871 0.0
C996 C 0.28675 0.29138 0.75142 0.0
C997 C 0.28307 0.29135 0.72535 0.0
C998 C 0.28173 0.27046 0.70874 0.0
C999 C 0.28404 0.24929 0.71802 0.0
C1000 C 0.28721 0.24933 0.74427 0.0
C1001 C 0.28855 0.27028 0.76088 0.0
C1002 C 0.28858 0.28341 0.84104 0.0
C1003 C 0.3536 0.31843 0.82958 0.0
O1004 O 0.30892 0.33564 0.90113 0.0
O1005 O 0.34399 0.34769 0.89722 0.0
O1006 O 0.34453 0.36623 0.85408 0.0
O1007 O 0.31131 0.36338 0.83627 0.0
O1008 O 0.28086 0.33752 0.86798 0.0
O1009 O 0.27143 0.34361 0.82832 0.0
O1010 O 0.31062 0.32122 0.7801 0.0
O1011 O 0.27489 0.31522 0.78402 0.0
O1012 O 0.27517 0.29318 0.82697 0.0
O1013 O 0.30845 0.29616 0.84453 0.0
O1014 O 0.33868 0.3251 0.81342 0.0
O1015 O 0.34779 0.31619 0.85193 0.0
H1016 H 0.29235 0.36339 0.93091 0.0
H1017 H 0.29254 0.40093 0.9574 0.0
H1018 H 0.36525 0.41892 0.959 0.0
H1019 H 0.36511 0.38149 0.93231 0.0
H1020 H 0.28181 0.30756 0.71784 0.0
H1021 H 0.27973 0.27107 0.68861 0.0
H1022 H 0.28896 0.23328 0.75191 0.0
H1023 H 0.29146 0.27013 0.78109 0.0
Nd1024 Nd 0.06724 0.1055 0.5884 0.0
Nd1025 Nd 0.07794 0.06051 0.56234 0.0
C1026 C 0.04949 0.14214 0.60566 0.0
C1027 C 0.04642 0.16349 0.59457 0.0
C1028 C 0.03423 0.16185 0.5702 0.0
C1029 C 0.03629 0.18122 0.55729 0.0
C1030 C 0.05058 0.20233 0.56859 0.0
C1031 C 0.06135 0.20454 0.59355 0.0
C1032 C 0.05914 0.18531 0.60654 0.0
C1033 C 0.10504 0.11129 0.56431 0.0
C1034 C 0.04286 0.08588 0.52882 0.0
C1035 C 0.09763 0.02622 0.54267 0.0
C1036 C 0.10039 1.00352 0.55062 0.0
C1037 C 0.09113 0.98276 0.53374 0.0
C1038 C 0.08584 0.96153 0.54287 0.0
C1039 C 0.0901 0.96083 0.5689 0.0
C1040 C 0.10196 0.98094 0.5853 0.0
C1041 C 0.10696 1.00225 0.57624 0.0
C1042 C 0.04068 0.05366 0.5871 0.0
C1043 C 0.09933 0.07866 0.62354 0.0
O1044 O 0.03701 0.12215 0.59425 0.0
O1045 O 0.07073 0.14026 0.61226 0.0
O1046 O 0.10369 0.12333 0.58593 0.0
O1047 O 0.08659 0.09774 0.5556 0.0
O1048 O 0.04208 0.09932 0.55052 0.0
O1049 O 0.05756 0.07114 0.52764 0.0
O1050 O 0.10915 0.04537 0.55704 0.0
O1051 O 0.07644 0.02792 0.53556 0.0
O1052 O 0.04283 0.03998 0.56677 0.0
O1053 O 0.05861 0.06825 0.59489 0.0
O1054 O 0.10156 0.06601 0.60174 0.0
O1055 O 0.08432 0.09316 0.62391 0.0
H1056 H 1.02422 0.14529 0.56052 0.0
H1057 H 1.0279 0.17928 0.53799 0.0
H1058 H 0.07242 0.22081 0.60251 0.0
H1059 H 0.06867 0.18701 0.62528 0.0
H1060 H 0.08591 0.98341 0.51393 0.0
H1061 H 0.07678 0.94612 0.52993 0.0
H1062 H 0.1053 0.98079 0.60548 0.0
H1063 H 0.11403 1.01801 0.58969 0.0
Nd1064 Nd 0.33544 0.84307 0.84187 0.0
Nd1065 Nd 0.29533 0.8153 0.81626 0.0
C1066 C 0.3721 0.87594 0.85573 0.0
C1067 C 0.39689 0.88039 0.85796 0.0
C1068 C 0.40908 0.86182 0.85425 0.0
C1069 C 0.43274 0.86611 0.86058 0.0
C1070 C 0.44439 0.88898 0.87082 0.0
C1071 C 0.43213 0.90771 0.87293 0.0
C1072 C 0.40852 0.9034 0.86655 0.0
C1073 C 0.30595 0.83175 0.87589 0.0
C1074 C 0.33832 0.78649 0.8326 0.0
C1075 C 0.25836 0.78324 0.80034 0.0
C1076 C 0.23358 0.78067 0.79739 0.0
C1077 C 0.22256 0.79374 0.81437 0.0
C1078 C 0.19922 0.79361 0.80884 0.0
C1079 C 0.18676 0.78076 0.78607 0.0
C1080 C 0.19779 0.76675 0.76989 0.0
C1081 C 0.22098 0.76666 0.77559 0.0
C1082 C 0.32518 0.82582 0.78238 0.0
C1083 C 0.29214 0.87196 0.82765 0.0
O1084 O 0.3606 0.87188 0.83294 0.0
O1085 O 0.3634 0.86248 0.87095 0.0
O1086 O 0.32761 0.83118 0.87942 0.0
O1087 O 0.30048 0.83765 0.8546 0.0
O1088 O 0.35093 0.80793 0.83812 0.0
O1089 O 0.31596 0.78513 0.82648 0.0
O1090 O 0.26938 0.7863 0.82333 0.0
O1091 O 0.26819 0.79665 0.78579 0.0
O1092 O 0.30398 0.82839 0.77946 0.0
O1093 O 0.33033 0.81989 0.80376 0.0
O1094 O 0.27965 0.85042 0.82267 0.0
O1095 O 0.3146 0.87333 0.83221 0.0
H1096 H 0.40023 0.84394 0.84755 0.0
H1097 H 0.44183 0.85141 0.85845 0.0
H1098 H 0.44055 0.92544 0.88101 0.0
H1099 H 0.39923 0.91788 0.86955 0.0
H1100 H 0.23209 0.80472 0.83131 0.0
H1101 H 0.19113 0.80428 0.82189 0.0
H1102 H 0.18888 0.75695 0.75203 0.0
H1103 H 0.22934 0.75658 0.76225 0.0
Nd1104 Nd 0.54129 0.07796 0.08957 0.0
Nd1105 Nd 0.5899 0.08551 0.119 0.0
C1106 C 0.49937 0.08081 0.07076 0.0
C1107 C 0.47779 0.06469 0.06808 0.0
C1108 C 0.45752 0.0717 0.05898 0.0
C1109 C 0.43688 0.05631 0.05684 0.0
C1110 C 0.43634 0.03375 0.06381 0.0
C1111 C 0.45678 0.0269 0.07302 0.0
C1112 C 0.47737 0.0423 0.07517 0.0
C1113 C 0.55488 0.03706 0.10147 0.0
C1114 C 0.55011 0.09441 0.15086 0.0
C1115 C 0.63198 0.08493 0.13906 0.0
C1116 C 0.65386 0.09906 0.13666 0.0
C1117 C 0.67041 0.08779 0.1263 0.0
C1118 C 0.68943 0.10106 0.11945 0.0
C1119 C 0.69224 0.12578 0.12312 0.0
C1120 C 0.67641 0.1371 0.13488 0.0
C1121 C 0.65726 0.12384 0.14148 0.0
C1122 C 0.57555 0.1256 0.1053 0.0
C1123 C 0.582 0.07131 0.05668 0.0
O1124 O 0.50838 0.08945 0.09406 0.0
O1125 O 0.51416 0.07376 0.05687 0.0
O1126 O 0.53919 0.03774 0.08301 0.0
O1127 O 0.55959 0.05696 0.11521 0.0
O1128 O 0.53929 0.09767 0.12916 0.0
O1129 O 0.56831 0.08419 0.1514 0.0
O1130 O 0.62182 0.07099 0.11842 0.0
O1131 O 0.61799 0.0959 0.15099 0.0
O1132 O 0.5897 0.12566 0.12545 0.0
O1133 O 0.57196 0.10552 0.09232 0.0
O1134 O 0.59496 0.07099 0.07826 0.0
O1135 O 0.56159 0.07729 0.05612 0.0
H1136 H 0.45766 0.08906 0.05367 0.0
H1137 H 0.42131 0.06215 0.05004 0.0
H1138 H 0.45687 1.00957 0.07831 0.0
H1139 H 0.49298 0.03676 0.08239 0.0
H1140 H 0.6681 0.06872 0.12241 0.0
H1141 H 0.70165 0.09201 0.11068 0.0
H1142 H 0.67825 0.15616 0.13779 0.0
H1143 H 0.64468 0.13303 0.14929 0.0
Nd1144 Nd 0.28896 0.31461 0.32278 0.0
Nd1145 Nd 0.32448 0.35147 0.3503 0.0
C1146 C 0.25625 0.28202 0.29686 0.0
C1147 C 0.23367 0.27713 0.30545 0.0
C1148 C 0.21909 0.29379 0.30395 0.0
C1149 C 0.20537 0.29772 0.3227 0.0
C1150 C 0.20585 0.28485 0.34304 0.0
C1151 C 0.21669 0.26501 0.34139 0.0
C1152 C 0.23041 0.26108 0.3226 0.0
C1153 C 0.29712 0.31109 0.37356 0.0
C1154 C 0.27182 0.36002 0.35018 0.0
C1155 C 0.35783 0.38329 0.37632 0.0
C1156 C 0.38096 0.38676 0.36883 0.0
C1157 C 0.39471 0.36944 0.37164 0.0
C1158 C 0.40963 0.36493 0.35429 0.0
C1159 C 0.41092 0.37764 0.33397 0.0
C1160 C 0.40056 0.39775 0.33416 0.0
C1161 C 0.38588 0.40246 0.35169 0.0
C1162 C 0.31786 0.35349 0.29927 0.0
C1163 C 0.3413 0.30563 0.32332 0.0
O1164 O 0.26163 0.30263 0.2898 0.0
O1165 O 0.27305 0.27696 0.31172 0.0
O1166 O 0.27712 0.31028 0.36113 0.0
O1167 O 0.31196 0.31575 0.35959 0.0
O1168 O 0.26645 0.34211 0.33158 0.0
O1169 O 0.29263 0.36523 0.36303 0.0
O1170 O 0.35111 0.36324 0.384 0.0
O1171 O 0.342 0.38866 0.36036 0.0
O1172 O 0.33744 0.35429 0.31257 0.0
O1173 O 0.30224 0.35004 0.31266 0.0
O1174 O 0.34646 0.32327 0.34225 0.0
O1175 O 0.32074 0.30086 0.30991 0.0
H1176 H 0.22054 0.30601 0.29048 0.0
H1177 H 0.19673 0.31273 0.32276 0.0
H1178 H 0.2165 0.25399 0.35607 0.0
H1179 H 0.24083 0.2475 0.32374 0.0
H1180 H 0.39187 0.35738 0.38507 0.0
H1181 H 0.41785 0.34967 0.355 0.0
H1182 H 0.40184 0.40828 0.3191 0.0
H1183 H 0.37606 0.41638 0.34947 0.0
Nd1184 Nd 0.56351 0.59813 0.08967 0.0
Nd1185 Nd 0.57078 0.55108 0.068 0.0
C1186 C 0.54812 0.63751 0.10244 0.0
C1187 C 0.54556 0.65635 0.08735 0.0
C1188 C 0.54796 0.65243 0.06162 0.0
C1189 C 0.54935 0.67098 0.04771 0.0
C1190 C 0.54887 0.69395 0.05942 0.0
C1191 C 0.54535 0.69767 0.08493 0.0
C1192 C 0.54375 0.67894 0.09883 0.0
C1193 C 0.60106 0.59927 0.06512 0.0
C1194 C 0.5385 0.57587 0.03102 0.0
C1195 C 0.58678 0.51221 0.05456 0.0
C1196 C 0.58817 0.49207 0.06814 0.0
C1197 C 0.58225 0.46906 0.05481 0.0
C1198 C 0.57759 0.45 0.0678 0.0
C1199 C 0.57872 0.45374 0.09431 0.0
C1200 C 0.5864 0.47662 0.10768 0.0
C1201 C 0.59094 0.49562 0.0947 0.0
C1202 C 0.53391 0.54943 0.09363 0.0
C1203 C 0.59465 0.57361 0.12741 0.0
O1204 O 0.53466 0.61731 0.09399 0.0
O1205 O 0.56922 0.63513 0.10883 0.0
O1206 O 0.60049 0.61259 0.0862 0.0
O1207 O 0.58205 0.58643 0.05708 0.0
O1208 O 0.53786 0.59013 0.05216 0.0
O1209 O 0.55256 0.56041 0.03108 0.0
O1210 O 0.59999 0.53217 0.06474 0.0
O1211 O 0.56598 0.51485 0.04694 0.0
O1212 O 0.53458 0.53486 0.07348 0.0
O1213 O 0.55266 0.56288 0.10063 0.0
O1214 O 0.59608 0.55953 0.10628 0.0
O1215 O 0.58002 0.58844 0.12691 0.0
H1216 H 0.54993 0.63523 0.05258 0.0
H1217 H 0.55181 0.66753 0.02805 0.0
H1218 H 0.54518 0.71525 0.09452 0.0
H1219 H 0.54221 0.6823 0.11876 0.0
H1220 H 0.5797 0.46601 0.03431 0.0
H1221 H 0.57153 0.4326 0.05696 0.0
H1222 H 0.58771 0.48 0.12811 0.0
H1223 H 0.59515 0.51322 0.10541 0.0
Nd1224 Nd 0.83799 0.34665 0.34084 0.0
Nd1225 Nd 0.79699 0.3191 0.31653 0.0
C1226 C 0.87533 0.37887 0.35343 0.0
C1227 C 0.90013 0.38278 0.35525 0.0
C1228 C 0.91197 0.36384 0.35239 0.0
C1229 C 0.93566 0.36781 0.35854 0.0
C1230 C 0.94773 0.39074 0.36777 0.0
C1231 C 0.93581 0.40976 0.369 0.0
C1232 C 0.91218 0.40578 0.36279 0.0
C1233 C 0.80946 0.33595 0.37601 0.0
C1234 C 0.83986 0.28976 0.33158 0.0
C1235 C 0.75904 0.28805 0.30226 0.0
C1236 C 0.73447 0.28709 0.30024 0.0
C1237 C 0.72536 0.30726 0.3079 0.0
C1238 C 0.70207 0.30715 0.30187 0.0
C1239 C 0.68771 0.2869 0.28803 0.0
C1240 C 0.69687 0.2664 0.28162 0.0
C1241 C 0.7201 0.26654 0.28768 0.0
C1242 C 0.82577 0.32911 0.28139 0.0
C1243 C 0.79464 0.3759 0.32801 0.0
O1244 O 0.86347 0.37462 0.33081 0.0
O1245 O 0.86662 0.36598 0.36913 0.0
O1246 O 0.8311 0.33521 0.37891 0.0
O1247 O 0.80355 0.34177 0.35478 0.0
O1248 O 0.85274 0.31108 0.33676 0.0
O1249 O 0.81747 0.28863 0.32604 0.0
O1250 O 0.7705 0.29131 0.32503 0.0
O1251 O 0.76905 0.30052 0.28701 0.0
O1252 O 0.80457 0.33172 0.27919 0.0
O1253 O 0.8315 0.32325 0.30269 0.0
O1254 O 0.782 0.35447 0.32332 0.0
O1255 O 0.81712 0.37714 0.33198 0.0
H1256 H 0.90283 0.34596 0.34652 0.0
H1257 H 0.94444 0.35285 0.35708 0.0
H1258 H 0.94453 0.42757 0.37629 0.0
H1259 H 0.90319 0.42055 0.36516 0.0
H1260 H 0.73637 0.3233 0.31757 0.0
H1261 H 0.69541 0.3231 0.30729 0.0
H1262 H 0.68634 0.25065 0.27068 0.0
H1263 H 0.72701 0.25092 0.28148 0.0
Nd1264 Nd 0.03928 0.58254 0.58735 0.0
Nd1265 Nd 0.08897 0.59399 0.61426 0.0
C1266 C 0.99575 0.58002 0.57075 0.0
C1267 C 0.97623 0.56053 0.56439 0.0
C1268 C 0.95962 0.55896 0.58058 0.0
C1269 C 0.94228 0.53944 0.57669 0.0
C1270 C 0.941 0.52131 0.5563 0.0
C1271 C 0.95708 0.52316 0.5395 0.0
C1272 C 0.97472 0.54258 0.54362 0.0
C1273 C 0.0568 0.54363 0.59906 0.0
C1274 C 0.04966 0.60104 0.6481 0.0
C1275 C 0.13215 0.59524 0.63148 0.0
C1276 C 0.1534 0.60871 0.62612 0.0
C1277 C 0.1684 0.5968 0.61348 0.0
C1278 C 0.18707 0.60944 0.60527 0.0
C1279 C 0.19113 0.63421 0.60977 0.0
C1280 C 0.17662 0.64612 0.62324 0.0
C1281 C 0.15785 0.6335 0.63128 0.0
C1282 C 0.07185 0.63268 0.60101 0.0
C1283 C 0.07871 0.57752 0.55189 0.0
O1284 O 1.00429 0.58493 0.5947 0.0
O1285 O 1.01138 0.58068 0.55578 0.0
O1286 O 0.04038 0.54295 0.58093 0.0
O1287 O 0.06066 0.56368 0.61252 0.0
O1288 O 0.03791 0.60326 0.62651 0.0
O1289 O 0.06902 0.5928 0.64824 0.0
O1290 O 0.12088 0.57959 0.61269 0.0
O1291 O 0.11892 0.60716 0.64363 0.0
O1292 O 0.08767 0.63377 0.61993 0.0
O1293 O 0.06786 0.61231 0.58837 0.0
O1294 O 0.0932 0.58028 0.57304 0.0
O1295 O 0.05727 0.58032 0.55201 0.0
H1296 H 0.96034 0.57263 0.59661 0.0
H1297 H 0.9297 0.5386 0.58952 0.0
H1298 H 0.95618 0.50943 0.5235 0.0
H1299 H 0.98731 0.54331 0.53082 0.0
H1300 H 0.16531 0.57772 0.60926 0.0
H1301 H 0.19824 0.59987 0.59524 0.0
H1302 H 0.17937 0.66522 0.62685 0.0
H1303 H 0.14652 0.64322 0.64085 0.0
Nd1304 Nd 0.81976 0.83657 0.36197 0.0
Nd1305 Nd 0.80121 0.82724 0.31916 0.0
C1306 C 0.83075 0.84821 0.41175 0.0
C1307 C 0.83275 0.87081 0.4283 0.0
C1308 C 0.83537 0.87171 0.45455 0.0
C1309 C 0.83587 0.89299 0.47027 0.0
C1310 C 0.83368 0.9137 0.45996 0.0
C1311 C 0.83136 0.91275 0.43358 0.0
C1312 C 0.8308 0.89142 0.41786 0.0
C1313 C 0.83248 0.87743 0.33947 0.0
C1314 C 0.76739 0.84375 0.35303 0.0
C1315 C 0.78904 0.81838 0.26947 0.0
C1316 C 0.78595 0.79676 0.2512 0.0
C1317 C 0.78248 0.7978 0.22532 0.0
C1318 C 0.78078 0.77739 0.20783 0.0
C1319 C 0.78249 0.75562 0.21602 0.0
C1320 C 0.78567 0.75464 0.24208 0.0
C1321 C 0.7874 0.7751 0.25957 0.0
C1322 C 0.78914 0.78522 0.34002 0.0
C1323 C 0.85374 0.81906 0.32833 0.0
O1324 O 0.81026 0.8392 0.40063 0.0
O1325 O 0.84572 0.847 0.39631 0.0
O1326 O 0.84608 0.86623 0.35139 0.0
O1327 O 0.81224 0.86606 0.33791 0.0
O1328 O 0.78134 0.83402 0.36728 0.0
O1329 O 0.77406 0.84859 0.33184 0.0
O1330 O 0.80988 0.82636 0.28024 0.0
O1331 O 0.77454 0.81875 0.28555 0.0
O1332 O 0.77563 0.79564 0.3268 0.0
O1333 O 0.80911 0.79767 0.3434 0.0
O1334 O 0.83895 0.82668 0.31282 0.0
O1335 O 0.84806 0.81638 0.35062 0.0
H1336 H 0.83682 0.85593 0.46286 0.0
H1337 H 0.83812 0.89327 0.49056 0.0
H1338 H 0.82955 0.92837 0.42511 0.0
H1339 H 0.82854 0.89091 0.39753 0.0
H1340 H 0.78152 0.81444 0.21865 0.0
H1341 H 0.77879 0.77879 0.18788 0.0
H1342 H 0.78694 0.73812 0.24892 0.0
H1343 H 0.79017 0.77411 0.27961 0.0
Nd1344 Nd 0.81591 0.35205 0.84434 0.0
Nd1345 Nd 0.81093 0.31042 0.81229 0.0
C1346 C 0.81792 0.39188 0.87499 0.0
C1347 C 0.83288 0.41476 0.87645 0.0
C1348 C 0.83442 0.42568 0.85484 0.0
C1349 C 0.85103 0.4454 0.85534 0.0
C1350 C 0.86663 0.45448 0.87734 0.0
C1351 C 0.86477 0.44383 0.89911 0.0
C1352 C 0.84798 0.4242 0.89867 0.0
C1353 C 0.85874 0.34478 0.83227 0.0
C1354 C 0.81171 0.35461 0.78519 0.0
C1355 C 0.80919 0.26714 0.78826 0.0
C1356 C 0.79689 0.24436 0.79281 0.0
C1357 C 0.80875 0.22882 0.80464 0.0
C1358 C 0.79689 0.20889 0.81217 0.0
C1359 C 0.77295 0.20407 0.8079 0.0
C1360 C 0.76117 0.21912 0.79517 0.0
C1361 C 0.77298 0.239 0.78766 0.0
C1362 C 0.76863 0.32439 0.8145 0.0
C1363 C 0.81395 0.30655 0.87235 0.0
O1364 O 0.80261 0.38503 0.85487 0.0
O1365 O 0.82838 0.37496 0.88118 0.0
O1366 O 0.85073 0.36408 0.8311 0.0
O1367 O 0.84343 0.32952 0.83752 0.0
O1368 O 0.80384 0.36238 0.80589 0.0
O1369 O 0.82202 0.33617 0.78526 0.0
O1370 O 0.82595 0.27777 0.80559 0.0
O1371 O 0.79671 0.28179 0.78027 0.0
O1372 O 0.77645 0.31746 0.79407 0.0
O1373 O 0.78331 0.32457 0.83362 0.0
O1374 O 0.81229 0.29475 0.84941 0.0
O1375 O 0.81376 0.32928 0.87577 0.0
H1376 H 0.82319 0.41867 0.83729 0.0
H1377 H 0.85167 0.45352 0.83842 0.0
H1378 H 0.87662 0.45028 0.91631 0.0
H1379 H 0.84732 0.41585 0.91544 0.0
H1380 H 0.82716 0.23247 0.80875 0.0
H1381 H 0.80643 0.19738 0.82159 0.0
H1382 H 0.74273 0.21602 0.79179 0.0
H1383 H 0.76324 0.25056 0.77861 0.0
Nd1384 Nd 0.7889 0.81763 0.81989 0.0
Nd1385 Nd 0.82302 0.85265 0.85319 0.0
C1386 C 0.75726 0.78707 0.78954 0.0
C1387 C 0.73387 0.78168 0.79605 0.0
C1388 C 0.71959 0.79863 0.79465 0.0
C1389 C 0.70449 0.80134 0.81219 0.0
C1390 C 0.70334 0.78705 0.83128 0.0
C1391 C 0.71398 0.76706 0.82904 0.0
C1392 C 0.72908 0.76434 0.81147 0.0
C1393 C 0.79244 0.81036 0.86973 0.0
C1394 C 0.77028 0.86123 0.84876 0.0
C1395 C 0.85444 0.88259 0.88453 0.0
C1396 C 0.87833 0.88706 0.87935 0.0
C1397 C 0.89197 0.86971 0.88257 0.0
C1398 C 0.90692 0.86494 0.86534 0.0
C1399 C 0.90854 0.87772 0.84518 0.0
C1400 C 0.89869 0.89806 0.84526 0.0
C1401 C 0.884 0.90305 0.86268 0.0
C1402 C 0.82222 0.85809 0.80315 0.0
C1403 C 0.84114 0.80791 0.82526 0.0
O1404 O 0.76365 0.80844 0.78478 0.0
O1405 O 0.77302 0.78056 0.80461 0.0
O1406 O 0.7734 0.81032 0.85566 0.0
O1407 O 0.80866 0.81597 0.85789 0.0
O1408 O 0.76628 0.84498 0.82853 0.0
O1409 O 0.79006 0.86523 0.86367 0.0
O1410 O 0.84704 0.86143 0.88924 0.0
O1411 O 0.83968 0.88945 0.86847 0.0
O1412 O 0.84037 0.85874 0.81885 0.0
O1413 O 0.80477 0.85388 0.81382 0.0
O1414 O 0.84503 0.82436 0.84539 0.0
O1415 O 0.82165 0.80422 0.8098 0.0
H1416 H 0.7222 0.81185 0.78242 0.0
H1417 H 0.696 0.81645 0.81253 0.0
H1418 H 0.71251 0.75487 0.84253 0.0
H1419 H 0.73921 0.7505 0.81242 0.0
H1420 H 0.88863 0.85752 0.89576 0.0
H1421 H 0.91474 0.84938 0.8658 0.0
H1422 H 0.8999 0.90824 0.82989 0.0
H1423 H 0.87433 0.91706 0.86022 0.0
Nd1424 Nd 0.58185 0.59928 0.58982 0.0
Nd1425 Nd 0.55112 0.55984 0.57914 0.0
C1426 C 0.60998 0.64022 0.60075 0.0
C1427 C 0.60824 0.66121 0.58799 0.0
C1428 C 0.58775 0.67011 0.58544 0.0
C1429 C 0.58428 0.6864 0.56906 0.0
C1430 C 0.6013 0.69467 0.555 0.0
C1431 C 0.6223 0.68666 0.55863 0.0
C1432 C 0.62565 0.67004 0.57478 0.0
C1433 C 0.58269 0.58127 0.53896 0.0
C1434 C 0.53223 0.60674 0.56726 0.0
C1435 C 0.52309 0.51901 0.56935 0.0
C1436 C 0.52349 0.49963 0.58496 0.0
C1437 C 0.53761 0.48268 0.5807 0.0
C1438 C 0.541 0.46701 0.59791 0.0
C1439 C 0.53042 0.46787 0.61988 0.0
C1440 C 0.51567 0.48423 0.62365 0.0
C1441 C 0.5122 0.49981 0.60642 0.0
C1442 C 0.55039 0.57789 0.62995 0.0
C1443 C 0.60038 0.55208 0.60197 0.0
O1444 O 0.59421 0.63406 0.61447 0.0
O1445 O 0.61447 0.62204 0.58657 0.0
O1446 O 0.57887 0.60207 0.54713 0.0
O1447 O 0.58148 0.5691 0.55697 0.0
O1448 O 0.55107 0.61691 0.58191 0.0
O1449 O 0.52916 0.5838 0.55933 0.0
O1450 O 0.54036 0.52361 0.55717 0.0
O1451 O 0.51729 0.53829 0.57995 0.0
O1452 O 0.55433 0.55716 0.62184 0.0
O1453 O 0.55141 0.58996 0.61186 0.0
O1454 O 0.58145 0.54193 0.58755 0.0
O1455 O 0.60389 0.57513 0.60928 0.0
H1456 H 0.57393 0.66373 0.59527 0.0
H1457 H 0.5678 0.69173 0.5667 0.0
H1458 H 0.63611 0.69291 0.54871 0.0
H1459 H 0.64159 0.66343 0.57623 0.0
H1460 H 0.54674 0.48207 0.56454 0.0
H1461 H 0.55256 0.45475 0.59442 0.0
H1462 H 0.5069 0.48513 0.64008 0.0
H1463 H 0.50121 0.51256 0.61043 0.0
Nd1464 Nd 0.08123 0.59248 0.08734 0.0
Nd1465 Nd 0.04104 0.56716 0.09379 0.0
C1466 C 0.11957 0.61079 0.07306 0.0
C1467 C 0.1404 0.6007 0.07533 0.0
C1468 C 0.16177 0.61533 0.08063 0.0
C1469 C 0.18094 0.60622 0.08938 0.0
C1470 C 0.17869 0.58256 0.09321 0.0
C1471 C 0.15757 0.56767 0.08633 0.0
C1472 C 0.13856 0.57667 0.07745 0.0
C1473 C 0.08676 0.57177 0.13086 0.0
C1474 C 0.06803 0.53829 0.0586 0.0
C1475 C 1.00137 0.54875 0.10502 0.0
C1476 C 0.97952 0.55377 0.09379 0.0
C1477 C 0.96105 0.53541 0.08497 0.0
C1478 C 0.94234 0.53928 0.06892 0.0
C1479 C 0.94211 0.56149 0.06133 0.0
C1480 C 0.96019 0.58003 0.07114 0.0
C1481 C 0.97874 0.57619 0.0871 0.0
C1482 C 0.03572 0.58918 0.05102 0.0
C1483 C 0.05466 0.62055 0.12258 0.0
O1484 O 0.10257 0.59823 0.0571 0.0
O1485 O 0.11353 0.61814 0.09479 0.0
O1486 O 0.09489 0.5933 0.12921 0.0
O1487 O 0.07583 0.56128 0.10986 0.0
O1488 O 0.07762 0.55974 0.05659 0.0
O1489 O 0.05519 0.5354 0.07637 0.0
O1490 O 1.01489 0.56637 0.1197 0.0
O1491 O 1.01196 0.53755 0.08887 0.0
O1492 O 1.02753 0.56754 0.05191 0.0
O1493 O 0.04654 0.5988 0.07224 0.0
O1494 O 0.04732 0.59896 0.12647 0.0
O1495 O 0.06503 0.62332 0.10285 0.0
H1496 H 0.16336 0.63398 0.07953 0.0
H1497 H 0.19718 0.61795 0.09471 0.0
H1498 H 0.15557 0.54934 0.08898 0.0
H1499 H 0.12216 0.56515 0.07393 0.0
H1500 H 0.96161 0.51786 0.08945 0.0
H1501 H 0.92853 0.52473 0.06163 0.0
H1502 H 0.96023 0.59746 0.06607 0.0
H1503 H 0.99299 0.59056 0.09316 0.0
C1504 C 0.09258 0.29588 0.9682 0.0
C1505 C 0.07398 0.29197 0.9488 0.0
C1506 C 0.0968 0.27846 0.98295 0.0
C1507 C 0.08177 0.25656 0.9787 0.0
C1508 C 0.06325 0.2522 0.95866 0.0
C1509 C 0.05971 0.2699 0.94373 0.0
C1510 C 0.11703 0.28381 1.00365 0.0
C1511 C 0.04664 0.22924 0.95371 0.0
C1512 C 0.1031 0.20681 1.0092 0.0
C1513 C 0.0943 0.20887 0.0323 0.0
C1514 C 0.09874 0.22177 0.99132 0.0
C1515 C 0.08491 0.23904 0.9963 0.0
C1516 C 0.07555 0.24086 0.01925 0.0
C1517 C 0.08054 0.22603 0.037 0.0
C1518 C 0.10936 0.21941 0.9673 0.0
C1519 C 0.06059 0.25888 0.02536 0.0
H1520 H 0.10383 0.31283 0.97207 0.0
H1521 H 0.04524 0.26684 0.92888 0.0
H1522 H 0.11106 0.28445 0.02238 0.0
H1523 H 0.12744 0.26963 1.00188 0.0
H1524 H 0.12807 0.30091 1.00321 0.0
H1525 H 0.0341 0.22788 0.93644 0.0
H1526 H 0.05585 0.21411 0.95162 0.0
H1527 H 0.03727 0.22771 0.97012 0.0
H1528 H 0.11333 0.19338 1.00493 0.0
H1529 H 0.07387 0.22822 0.05481 0.0
H1530 H 0.12125 0.2359 0.96674 0.0
H1531 H 0.09603 0.21681 0.95056 0.0
H1532 H 0.11888 0.20445 0.96567 0.0
H1533 H 0.07076 0.27689 0.02796 0.0
H1534 H 0.05292 0.25664 0.04284 0.0
H1535 H 0.04668 0.2576 1.00944 0.0
C1536 C 0.13215 0.83033 0.30838 0.0
C1537 C 0.12265 0.82041 0.28336 0.0
C1538 C 0.15576 0.8322 0.31705 0.0
C1539 C 0.17051 0.82377 0.30051 0.0
C1540 C 0.16098 0.81391 0.27521 0.0
C1541 C 0.13744 0.81245 0.26701 0.0
C1542 C 0.1649 0.84305 0.34406 0.0
C1543 C 0.17565 0.80447 0.25676 0.0
C1544 C 0.23587 0.84376 0.3139 0.0
C1545 C 0.24346 0.82463 0.32372 0.0
C1546 C 0.21237 0.84402 0.30693 0.0
C1547 C 0.19569 0.82464 0.30963 0.0
C1548 C 0.20329 0.8055 0.32001 0.0
C1549 C 0.22686 0.80577 0.32694 0.0
C1550 C 0.20542 0.86491 0.29612 0.0
C1551 C 0.18649 0.78431 0.32317 0.0
H1552 H 0.1211 0.83655 0.32131 0.0
H1553 H 0.13053 0.80466 0.24768 0.0
H1554 H 0.172 0.82984 0.35424 0.0
H1555 H 0.17901 0.85796 0.34453 0.0
H1556 H 0.1516 0.84959 0.35436 0.0
H1557 H 0.16588 0.79759 0.23768 0.0
H1558 H 0.18983 0.81856 0.25494 0.0
H1559 H 0.18337 0.79005 0.26393 0.0
H1560 H 0.24837 0.85843 0.31117 0.0
H1561 H 0.23233 0.7908 0.33437 0.0
H1562 H 0.19284 0.87222 0.30696 0.0
H1563 H 0.19705 0.85922 0.27627 0.0
H1564 H 0.22017 0.87913 0.29641 0.0
H1565 H 0.1736 0.78992 0.3347 0.0
H1566 H 0.19487 0.77125 0.33236 0.0
H1567 H 0.17727 0.77552 0.30439 0.0
C1568 C 0.5676 0.94219 0.43276 0.0
C1569 C 0.57523 0.92219 0.44028 0.0
C1570 C 0.56725 0.96222 0.45062 0.0
C1571 C 0.57534 0.96258 0.47653 0.0
C1572 C 0.58437 0.94302 0.48392 0.0
C1573 C 0.58399 0.92307 0.46584 0.0
C1574 C 0.55721 0.98253 0.44193 0.0
C1575 C 0.59375 0.94279 0.51115 0.0
C1576 C 0.58878 1.02097 0.5221 0.0
C1577 C 0.56978 1.01968 0.53503 0.0
C1578 C 0.59083 1.00262 0.503 0.0
C1579 C 0.57322 0.98268 0.4962 0.0
C1580 C 0.55384 0.9815 0.50895 0.0
C1581 C 0.55247 0.99984 0.52834 0.0
C1582 C 0.61201 1.0044 0.49038 0.0
C1583 C 0.53448 0.96081 0.50209 0.0
H1584 H 0.56093 0.94184 0.41311 0.0
H1585 H 0.59021 0.90787 0.47188 0.0
H1586 H 0.54156 0.98424 0.45057 0.0
H1587 H 0.56933 0.99932 0.44831 0.0
H1588 H 0.55279 0.98017 0.42102 0.0
H1589 H 0.60207 0.92726 0.51343 0.0
H1590 H 0.60633 0.95905 0.51866 0.0
H1591 H 0.57977 0.94248 0.52287 0.0
H1592 H 0.60227 0.03621 0.52718 0.0
H1593 H 0.53761 0.9988 0.53801 0.0
H1594 H 0.60739 1.00324 0.46965 0.0
H1595 H 0.62084 0.9894 0.49355 0.0
H1596 H 0.62407 1.02113 0.49763 0.0
H1597 H 0.52807 0.95836 0.48156 0.0
H1598 H 0.52009 0.96309 0.51283 0.0
H1599 H 0.54062 0.94442 0.50598 0.0
C1600 C 0.48317 0.32686 0.79546 0.0
C1601 C 0.48621 0.30516 0.78251 0.0
C1602 C 0.46273 0.32932 0.80559 0.0
C1603 C 0.44475 0.30965 0.80281 0.0
C1604 C 0.44837 0.28749 0.79093 0.0
C1605 C 0.46883 0.28559 0.78097 0.0
C1606 C 0.45989 0.3533 0.81807 0.0
C1607 C 0.43008 0.26589 0.7875 0.0
C1608 C 0.39401 0.31062 0.84068 0.0
C1609 C 0.37692 0.3157 0.82304 0.0
C1610 C 0.41613 0.30894 0.83462 0.0
C1611 C 0.42157 0.31242 0.81028 0.0
C1612 C 0.40436 0.31758 0.79247 0.0
C1613 C 0.38246 0.31914 0.799 0.0
C1614 C 0.4337 0.30335 0.85429 0.0
C1615 C 0.40901 0.32136 0.76627 0.0
H1616 H 0.4962 0.34222 0.79638 0.0
H1617 H 0.47093 0.26873 0.77116 0.0
H1618 H 0.44696 0.36011 0.80592 0.0
H1619 H 0.45362 0.35208 0.83648 0.0
H1620 H 0.47606 0.36619 0.8213 0.0
H1621 H 0.43614 0.2496 0.77988 0.0
H1622 H 0.42401 0.26351 0.80579 0.0
H1623 H 0.41527 0.2682 0.77424 0.0
H1624 H 0.39015 0.30804 0.85935 0.0
H1625 H 0.36962 0.32315 0.78512 0.0
H1626 H 0.44901 0.31738 0.85778 0.0
H1627 H 0.4392 0.28659 0.84727 0.0
H1628 H 0.42716 0.3017 0.8725 0.0
H1629 H 0.42373 0.33581 0.76756 0.0
H1630 H 0.39413 0.32585 0.75477 0.0
H1631 H 0.41358 0.30518 0.75623 0.0
C1632 C 1.02582 0.88821 0.65957 0.0
C1633 C 1.02069 0.86381 0.65141 0.0
C1634 C 0.03587 0.90338 0.64434 0.0
C1635 C 0.04124 0.8938 0.62067 0.0
C1636 C 0.03528 0.86932 0.61189 0.0
C1637 C 1.02486 0.85463 0.62728 0.0
C1638 C 0.0415 0.92954 0.65398 0.0
C1639 C 0.04097 0.85849 0.58685 0.0
C1640 C 0.05444 0.9355 0.57423 0.0
C1641 C 0.07823 0.94119 0.5796 0.0
C1642 C 0.04214 0.91978 0.5872 0.0
C1643 C 0.05402 0.90928 0.60563 0.0
C1644 C 0.07813 0.91419 0.61035 0.0
C1645 C 0.08999 0.93039 0.59745 0.0
C1646 C 1.01644 0.91532 0.58205 0.0
C1647 C 0.09134 0.90288 0.62957 0.0
H1648 H 1.02254 0.8954 0.67814 0.0
H1649 H 1.02111 0.83576 0.62088 0.0
H1650 H 0.06024 0.93524 0.65763 0.0
H1651 H 0.0347 0.93953 0.63951 0.0
H1652 H 0.03447 0.93434 0.67175 0.0
H1653 H 0.03399 0.83933 0.58214 0.0
H1654 H 0.03421 0.86744 0.57139 0.0
H1655 H 0.05974 0.86097 0.58749 0.0
H1656 H 0.04536 0.94432 0.56078 0.0
H1657 H 0.10838 0.93499 0.60163 0.0
H1658 H 1.00955 0.9222 0.59923 0.0
H1659 H 1.00977 0.89612 0.57759 0.0
H1660 H 1.00988 0.9239 0.56613 0.0
H1661 H 0.08745 0.90885 0.64875 0.0
H1662 H 0.11002 0.90731 0.62969 0.0
H1663 H 0.08616 0.88342 0.62556 0.0
C1664 C 0.55807 0.91857 0.96676 0.0
C1665 C 0.57515 0.9071 0.95819 0.0
C1666 C 0.53838 0.91928 0.95028 0.0
C1667 C 0.53568 0.90775 0.92494 0.0
C1668 C 0.55358 0.89747 0.91588 0.0
C1669 C 0.573 0.89695 0.93277 0.0
C1670 C 0.51981 0.93087 0.96044 0.0
C1671 C 0.55151 0.88545 0.88888 0.0
C1672 C 0.47587 0.87729 0.89798 0.0
C1673 C 0.46857 0.89288 0.88236 0.0
C1674 C 0.49781 0.88186 0.91156 0.0
C1675 C 0.51285 0.90262 0.90956 0.0
C1676 C 0.50583 0.91824 0.89342 0.0
C1677 C 0.48373 0.91312 0.87989 0.0
C1678 C 0.50465 0.86476 0.92865 0.0
C1679 C 0.52156 0.94027 0.89039 0.0
H1680 H 0.55981 0.92626 0.98653 0.0
H1681 H 0.58599 0.88749 0.92639 0.0
H1682 H 0.51335 0.94218 0.94719 0.0
H1683 H 0.50534 0.91709 0.96221 0.0
H1684 H 0.52581 0.94181 0.9793 0.0
H1685 H 0.56787 0.88062 0.88419 0.0
H1686 H 0.53852 0.86915 0.88577 0.0
H1687 H 0.54578 0.8971 0.87563 0.0
H1688 H 0.4641 0.86188 0.90037 0.0
H1689 H 0.47819 0.9251 0.86763 0.0
H1690 H 0.50872 0.8738 0.94854 0.0
H1691 H 0.52021 0.8584 0.9234 0.0
H1692 H 0.49105 0.84923 0.92765 0.0
H1693 H 0.53118 0.94936 0.90887 0.0
H1694 H 0.51216 0.95285 0.88158 0.0
H1695 H 0.5341 0.93533 0.87803 0.0
C1696 C 0.49769 0.22226 0.11419 0.0
C1697 C 0.48304 0.217 0.1318 0.0
C1698 C 0.50839 0.205 0.10239 0.0
C1699 C 0.5051 0.18227 0.10931 0.0
C1700 C 0.48799 0.17601 0.12435 0.0
C1701 C 0.47718 0.19365 0.13566 0.0
C1702 C 0.52554 0.21201 0.08527 0.0
C1703 C 0.48234 0.15122 0.13005 0.0
C1704 C 0.54017 0.13715 0.08512 0.0
C1705 C 0.55889 0.14169 0.10441 0.0
C1706 C 0.52237 0.15018 0.08622 0.0
C1707 C 0.52351 0.16813 0.10704 0.0
C1708 C 0.5428 0.17325 0.12613 0.0
C1709 C 0.56028 0.16002 0.12448 0.0
C1710 C 0.50212 0.14417 0.06561 0.0
C1711 C 0.54497 0.19258 0.14854 0.0
H1712 H 0.50279 0.24038 0.11162 0.0
H1713 H 0.46563 0.1896 0.14907 0.0
H1714 H 0.54293 0.21546 0.09613 0.0
H1715 H 0.52488 0.1976 0.06929 0.0
H1716 H 0.52258 0.22824 0.07755 0.0
H1717 H 0.47181 0.15025 0.1456 0.0
H1718 H 0.47265 0.13972 0.11283 0.0
H1719 H 0.49797 0.14397 0.13515 0.0
H1720 H 0.53908 0.12292 0.06957 0.0
H1721 H 0.57475 0.16356 0.13938 0.0
H1722 H 0.4966 0.16037 0.06011 0.0
H1723 H 0.48769 0.13401 0.07273 0.0
H1724 H 0.50584 0.13327 0.04853 0.0
H1725 H 0.54699 0.21 0.14202 0.0
H1726 H 0.55981 0.19254 0.16297 0.0
H1727 H 0.52937 0.19071 0.15773 0.0
C1728 C 0.19616 0.38094 0.4555 0.0
C1729 C 0.18004 0.37385 0.47103 0.0
C1730 C 0.20335 0.36418 0.43833 0.0
C1731 C 0.19334 0.34014 0.43589 0.0
C1732 C 0.17937 0.33267 0.45356 0.0
C1733 C 0.17324 0.3496 0.4713 0.0
C1734 C 0.22051 0.37216 0.42162 0.0
C1735 C 0.16923 0.30702 0.45223 0.0
C1736 C 0.18203 0.30834 0.36826 0.0
C1737 C 0.19969 0.29518 0.36761 0.0
C1738 C 0.17953 0.32252 0.39061 0.0
C1739 C 0.19499 0.32354 0.41294 0.0
C1740 C 0.21203 0.3093 0.41285 0.0
C1741 C 0.21398 0.29513 0.39027 0.0
C1742 C 0.16092 0.33726 0.39006 0.0
C1743 C 0.22872 0.30917 0.43612 0.0
H1744 H 0.20192 0.39957 0.45552 0.0
H1745 H 0.16109 0.34378 0.48346 0.0
H1746 H 0.23389 0.36093 0.42174 0.0
H1747 H 0.21204 0.37006 0.40181 0.0
H1748 H 0.22879 0.39083 0.42785 0.0
H1749 H 0.16014 0.30386 0.46856 0.0
H1750 H 0.15702 0.30107 0.43453 0.0
H1751 H 0.1828 0.29606 0.4517 0.0
H1752 H 0.17059 0.30818 0.35107 0.0
H1753 H 0.22758 0.28497 0.39017 0.0
H1754 H 0.16872 0.3562 0.39395 0.0
H1755 H 0.15033 0.33381 0.40512 0.0
H1756 H 0.14972 0.33378 0.37153 0.0
H1757 H 0.24626 0.3105 0.43128 0.0
H1758 H 0.22457 0.29212 0.44311 0.0
H1759 H 0.22862 0.32363 0.45176 0.0
C1760 C 0.95093 0.07798 0.22439 0.0
C1761 C 0.96013 0.08832 0.2495 0.0
C1762 C 0.96458 0.07694 0.20428 0.0
C1763 C 0.98837 0.08648 0.20874 0.0
C1764 C 0.99758 0.0972 0.23397 0.0
C1765 C 0.98363 0.09792 0.25365 0.0
C1766 C 0.9535 0.06522 0.17813 0.0
C1767 C 1.02252 0.10775 0.2404 0.0
C1768 C 0.02977 0.06331 0.16431 0.0
C1769 C 0.03378 0.08079 0.14869 0.0
C1770 C 1.01519 0.06486 0.18331 0.0
C1771 C 1.00379 0.08448 0.18761 0.0
C1772 C 1.00781 0.1023 0.17197 0.0
C1773 C 1.0225 0.10026 0.15295 0.0
C1774 C 1.01191 0.04517 0.19884 0.0
C1775 C 0.9964 0.12364 0.17525 0.0
H1776 H 0.93301 0.07032 0.22044 0.0
H1777 H 0.99138 0.10599 0.27264 0.0
H1778 H 0.95643 0.07756 0.16436 0.0
H1779 H 0.96135 0.04967 0.17218 0.0
H1780 H 0.93488 0.05935 0.17718 0.0
H1781 H 1.02716 0.11628 0.26047 0.0
H1782 H 0.03295 0.0938 0.23681 0.0
H1783 H 1.02703 0.12107 0.22807 0.0
H1784 H 0.03794 0.04797 0.16148 0.0
H1785 H 1.02492 0.11389 0.14116 0.0
H1786 H 0.99356 0.03759 0.19698 0.0
H1787 H 1.01778 0.0522 0.21914 0.0
H1788 H 1.02136 0.0308 0.19305 0.0
H1789 H 0.97764 0.11805 0.17255 0.0
H1790 H 1.00077 0.13586 0.16169 0.0
H1791 H 1.00152 0.13334 0.19479 0.0
C1792 C 0.37643 0.75592 0.48516 0.0
C1793 C 0.366 0.75702 0.50708 0.0
C1794 C 0.36922 0.76747 0.46505 0.0
C1795 C 0.35036 0.77939 0.46637 0.0
C1796 C 0.34008 0.78086 0.48874 0.0
C1797 C 0.34827 0.76998 0.50895 0.0
C1798 C 0.38124 0.76615 0.442 0.0
C1799 C 0.31946 0.79255 0.49071 0.0
C1800 C 0.33827 0.82121 0.41934 0.0
C1801 C 0.32339 0.80607 0.39976 0.0
C1802 C 0.34722 0.81282 0.4411 0.0
C1803 C 0.3405 0.7889 0.44378 0.0
C1804 C 0.32467 0.77382 0.42448 0.0
C1805 C 0.31671 0.78246 0.40249 0.0
C1806 C 0.36464 0.8293 0.46067 0.0
C1807 C 0.31639 0.74843 0.42686 0.0
H1808 H 0.38987 0.74555 0.48353 0.0
H1809 H 0.33973 0.77022 0.5256 0.0
H1810 H 0.36995 0.75461 0.42584 0.0
H1811 H 0.38526 0.7839 0.43649 0.0
H1812 H 0.39729 0.759 0.44523 0.0
H1813 H 0.31424 0.7934 0.50985 0.0
H1814 H 0.32285 0.8107 0.48616 0.0
H1815 H 0.305 0.78253 0.4767 0.0
H1816 H 0.34386 0.83936 0.41705 0.0
H1817 H 0.30531 0.77069 0.38732 0.0
H1818 H 0.381 0.82259 0.46196 0.0
H1819 H 0.35905 0.82995 0.47959 0.0
H1820 H 0.36769 0.84751 0.45611 0.0
H1821 H 0.33069 0.73846 0.42647 0.0
H1822 H 0.30258 0.73967 0.41135 0.0
H1823 H 0.31 0.74739 0.44524 0.0
C1824 C 0.60631 1.02253 0.76454 0.0
C1825 C 0.62935 1.02094 0.77075 0.0
C1826 C 0.5979 0.0279 0.7408 0.0
C1827 C 0.61279 0.03156 0.72262 0.0
C1828 C 0.63572 0.02848 0.72822 0.0
C1829 C 0.64371 0.02335 0.75218 0.0
C1830 C 0.5734 0.03115 0.73583 0.0
C1831 C 0.6522 0.03193 0.70942 0.0
C1832 C 0.58901 0.03616 0.65438 0.0
C1833 C 0.5928 0.06067 0.65482 0.0
C1834 C 0.59528 0.02632 0.67626 0.0
C1835 C 0.60525 0.04135 0.69918 0.0
C1836 C 0.60855 0.0661 0.69972 0.0
C1837 C 0.60245 0.07538 0.67761 0.0
C1838 C 0.59168 0.99987 0.67473 0.0
C1839 C 0.6188 0.0829 0.72367 0.0
H1840 H 0.59505 1.02082 0.77872 0.0
H1841 H 0.66152 1.0221 0.75668 0.0
H1842 H 0.57276 0.05011 0.73559 0.0
H1843 H 0.56519 1.02141 0.71703 0.0
H1844 H 0.56338 0.02506 0.75048 0.0
H1845 H 0.66852 0.02606 0.71526 0.0
H1846 H 0.6446 1.02208 0.69046 0.0
H1847 H 0.65595 0.05088 0.70758 0.0
H1848 H 0.5816 0.02469 0.63683 0.0
H1849 H 0.60528 0.09434 0.67818 0.0
H1850 H 0.58124 0.99437 0.68925 0.0
H1851 H 0.60833 0.99411 0.67882 0.0
H1852 H 0.58314 0.9906 0.65582 0.0
H1853 H 0.60879 0.07934 0.73918 0.0
H1854 H 0.61937 0.10166 0.72123 0.0
H1855 H 0.63639 0.08018 0.7297 0.0
C1856 C 0.33748 0.52292 0.07141 0.0
C1857 C 0.35437 0.51735 0.0887 0.0
C1858 C 0.33248 0.5105 0.04654 0.0
C1859 C 0.34472 0.49231 0.03918 0.0
C1860 C 0.36325 0.48841 0.05601 0.0
C1861 C 0.36769 0.50086 0.0806 0.0
C1862 C 0.31292 0.5155 0.02898 0.0
C1863 C 0.377 0.46944 0.04898 0.0
C1864 C 0.31805 0.43423 0.99899 0.0
C1865 C 0.32939 0.435 0.97779 0.0
C1866 C 0.32131 0.45375 0.01819 0.0
C1867 C 0.33623 0.47459 1.01609 0.0
C1868 C 0.34611 0.47619 0.9937 0.0
C1869 C 0.34271 0.45627 0.97485 0.0
C1870 C 0.31038 0.45125 0.04174 0.0
C1871 C 0.36159 0.49828 0.99042 0.0
H1872 H 0.32709 0.53559 0.07783 0.0
H1873 H 0.3807 0.49652 0.09408 0.0
H1874 H 0.31662 0.51399 1.0092 0.0
H1875 H 0.29749 0.50237 0.02934 0.0
H1876 H 0.30904 0.53336 0.0348 0.0
H1877 H 0.3923 0.47048 0.06317 0.0
H1878 H 0.36626 0.45183 0.04758 0.0
H1879 H 0.38259 0.47078 0.03028 0.0
H1880 H 0.30779 0.41785 1.00143 0.0
H1881 H 0.35112 0.45709 0.9582 0.0
H1882 H 0.30236 0.46678 0.04721 0.0
H1883 H 0.32363 0.45038 0.05765 0.0
H1884 H 0.29723 0.43509 0.03918 0.0
H1885 H 0.35506 0.51427 0.99797 0.0
H1886 H 0.3635 0.49873 0.97023 0.0
H1887 H 0.3787 0.49897 1.00113 0.0
C1888 C 0.94139 0.08703 0.41495 0.0
C1889 C 0.94918 0.09366 0.39285 0.0
C1890 C 0.95658 0.08605 0.43688 0.0
C1891 C 0.98045 0.09246 0.43744 0.0
C1892 C 0.98844 0.09988 0.41552 0.0
C1893 C 0.97288 0.10011 0.39357 0.0
C1894 C 0.94701 0.07757 0.45934 0.0
C1895 C 1.01356 0.10747 0.41516 0.0
C1896 C 1.01769 0.10816 0.50306 0.0
C1897 C 1.0272 0.08773 0.50529 0.0
C1898 C 1.00298 0.11013 0.4811 0.0
C1899 C 0.99693 0.09101 0.46075 0.0
C1900 C 1.0064 0.07028 0.46298 0.0
C1901 C 1.02152 0.06902 0.4849 0.0
C1902 C 0.99398 0.13283 0.47966 0.0
C1903 C 1.00025 0.04917 0.44231 0.0
H1904 H 0.92328 0.08203 0.41503 0.0
H1905 H 0.97935 0.10535 0.37688 0.0
H1906 H 0.95413 0.06185 0.46381 0.0
H1907 H 0.95207 0.09142 0.47623 0.0
H1908 H 0.92813 0.07289 0.45595 0.0
H1909 H 1.01708 0.11409 0.39737 0.0
H1910 H 1.02079 0.12158 0.43139 0.0
H1911 H 1.02257 0.09241 0.41725 0.0
H1912 H 1.02204 0.12288 0.51839 0.0
H1913 H 1.02855 0.05307 0.48627 0.0
H1914 H 0.97515 0.12945 0.4782 0.0
H1915 H 0.9983 0.13995 0.46241 0.0
H1916 H 1.00098 0.14645 0.49645 0.0
H1917 H 0.98154 0.04311 0.43911 0.0
H1918 H 1.00869 0.03424 0.4469 0.0
H1919 H 1.00519 0.0541 0.4243 0.0
C1920 C 0.36494 0.74962 0.66673 0.0
C1921 C 0.37769 0.76238 0.65124 0.0
C1922 C 0.35841 0.76091 0.68889 0.0
C1923 C 0.36492 0.78567 0.69617 0.0
C1924 C 0.37882 0.79847 0.68135 0.0
C1925 C 0.38487 0.78675 0.65906 0.0
C1926 C 0.34354 0.74644 0.70387 0.0
C1927 C 0.38658 0.82475 0.68851 0.0
C1928 C 0.32583 0.81674 0.73539 0.0
C1929 C 0.33681 0.81849 0.76026 0.0
C1930 C 0.33504 0.80663 0.71446 0.0
C1931 C 0.35596 0.79822 0.71826 0.0
C1932 C 0.3676 0.80085 0.74327 0.0
C1933 C 0.35787 0.81081 0.76389 0.0
C1934 C 0.32186 0.80413 0.6883 0.0
C1935 C 0.39002 0.79247 0.74836 0.0
H1936 H 0.3591 0.73084 0.66091 0.0
H1937 H 0.39464 0.79688 0.64731 0.0
H1938 H 0.35118 0.74945 0.72406 0.0
H1939 H 0.32665 0.75205 0.70302 0.0
H1940 H 0.34095 0.72726 0.69661 0.0
H1941 H 0.39911 0.83178 0.67664 0.0
H1942 H 0.37168 0.83383 0.68627 0.0
H1943 H 0.39436 0.82916 0.70866 0.0
H1944 H 0.30954 0.8225 0.73228 0.0
H1945 H 0.36652 0.812 0.78298 0.0
H1946 H 0.31674 0.78516 0.68025 0.0
H1947 H 0.33274 0.81244 0.67556 0.0
H1948 H 0.30631 0.81229 0.68833 0.0
H1949 H 0.38736 0.77296 0.74374 0.0
H1950 H 0.39797 0.79772 0.76844 0.0
H1951 H 0.40206 0.79967 0.73609 0.0
C1952 C 0.64111 1.02279 0.93936 0.0
C1953 C 0.63667 0.03376 0.91814 0.0
C1954 C 0.6312 0.02812 0.96129 0.0
C1955 C 0.61689 0.04542 0.96242 0.0
C1956 C 0.61224 0.05645 0.94083 0.0
C1957 C 0.62178 0.05009 0.91878 0.0
C1958 C 0.63732 1.01605 0.98358 0.0
C1959 C 0.59799 0.0757 0.94126 0.0
C1960 C 0.57622 0.05192 1.0115 0.0
C1961 C 0.59077 0.06511 0.03254 0.0
C1962 C 0.58439 0.0452 0.98868 0.0
C1963 C 0.60767 0.05263 0.98645 0.0
C1964 C 0.62223 0.06678 1.00758 0.0
C1965 C 0.61374 0.07221 0.03049 0.0
C1966 C 0.56761 0.03012 0.96742 0.0
C1967 C 0.6468 0.07672 1.00651 0.0
H1968 H 0.65287 1.01038 0.93904 0.0
H1969 H 0.61874 0.05899 0.90258 0.0
H1970 H 0.65226 0.0271 0.99599 0.0
H1971 H 0.62311 1.01341 0.99483 0.0
H1972 H 0.64225 0.99875 0.97747 0.0
H1973 H 0.60035 0.08607 0.9256 0.0
H1974 H 0.57974 0.06772 0.93916 0.0
H1975 H 0.60227 0.08795 0.9595 0.0
H1976 H 0.55843 0.04626 1.01304 0.0
H1977 H 0.62505 0.08261 0.04667 0.0
H1978 H 0.57549 0.02374 0.95086 0.0
H1979 H 0.55449 0.04044 0.96112 0.0
H1980 H 0.55855 1.01467 0.97442 0.0
H1981 H 0.65797 0.06683 0.01727 0.0
H1982 H 0.65094 0.09538 1.01594 0.0
H1983 H 0.65101 0.076 0.98697 0.0
C1984 C 0.32413 0.43534 0.19128 0.0
C1985 C 0.33418 0.45787 0.20412 0.0
C1986 C 0.31723 0.41698 0.20458 0.0
C1987 C 0.32039 0.42131 0.23131 0.0
C1988 C 0.32941 0.44434 0.24433 0.0
C1989 C 0.33626 0.46236 0.23055 0.0
C1990 C 0.30781 0.39265 0.19007 0.0
C1991 C 0.3334 0.44953 0.27288 0.0
C1992 C 0.29691 0.37693 0.27154 0.0
C1993 C 0.31626 0.36707 0.27811 0.0
C1994 C 0.29754 0.39396 0.25528 0.0
C1995 C 0.31802 0.40126 0.24571 0.0
C1996 C 0.33712 0.39038 0.2513 0.0
C1997 C 0.33579 0.3732 0.26712 0.0
C1998 C 0.27678 0.40505 0.24947 0.0
C1999 C 0.3593 0.39728 0.24134 0.0
H2000 H 0.32227 0.43179 0.17081 0.0
H2001 H 0.3438 0.4798 0.24055 0.0
H2002 H 0.32085 0.38118 0.19225 0.0
H2003 H 0.29263 0.38455 0.19769 0.0
H2004 H 0.30307 0.39296 0.16957 0.0
H2005 H 0.33802 0.46874 0.28002 0.0
H2006 H 0.318 0.44234 0.2807 0.0
H2007 H 0.34746 0.44078 0.28015 0.0
H2008 H 0.28172 0.37225 0.28007 0.0
H2009 H 0.35051 0.3654 0.27211 0.0
H2010 H 0.27312 0.40542 0.22887 0.0
H2011 H 0.28004 0.42357 0.25921 0.0
H2012 H 0.26149 0.39548 0.25575 0.0
H2013 H 0.35793 0.38824 0.22159 0.0
H2014 H 0.37382 0.39218 0.25278 0.0
H2015 H 0.36337 0.41653 0.24123 0.0
C2016 C 0.18809 0.96013 0.10362 0.0
C2017 C 0.18924 0.95378 0.07779 0.0
C2018 C 0.17329 0.97537 0.11176 0.0
C2019 C 0.15922 0.98436 0.09365 0.0
C2020 C 0.1593 0.97669 0.06757 0.0
C2021 C 0.1743 0.96166 0.06002 0.0
C2022 C 0.17375 0.98297 0.13972 0.0
C2023 C 0.14437 0.98538 0.04749 0.0
C2024 C 0.10718 1.01155 0.10615 0.0
C2025 C 0.11488 0.03555 0.10553 0.0
C2026 C 0.12181 0.9949 0.10426 0.0
C2027 C 0.14485 1.0023 0.10152 0.0
C2028 C 0.15318 0.0268 0.10295 0.0
C2029 C 0.13809 0.04316 0.10499 0.0
C2030 C 0.11205 0.96916 0.10306 0.0
C2031 C 0.17765 0.03554 0.10038 0.0
H2032 H 0.19994 0.95462 0.1175 0.0
H2033 H 0.17523 0.95703 0.04004 0.0
H2034 H 0.18185 1.00178 0.14493 0.0
H2035 H 0.15619 0.98144 0.14455 0.0
H2036 H 0.18342 0.97237 0.15131 0.0
H2037 H 0.14546 0.97674 0.0281 0.0
H2038 H 0.12635 0.98208 0.05076 0.0
H2039 H 0.14952 1.00471 0.04854 0.0
H2040 H 0.08925 1.0055 0.10664 0.0
H2041 H 0.14413 0.06159 0.10423 0.0
H2042 H 0.12376 0.96037 0.11454 0.0
H2043 H 0.10989 0.96017 0.08319 0.0
H2044 H 0.0952 0.9667 0.10981 0.0
H2045 H 0.18928 0.02739 0.11273 0.0
H2046 H 0.18226 0.05504 0.10526 0.0
H2047 H 0.18047 0.03033 0.08058 0.0
C2048 C 0.71445 0.60989 1.00384 0.0
C2049 C 0.71887 0.63204 0.99624 0.0
C2050 C 0.69293 0.6011 1.00946 0.0
C2051 C 0.67572 0.61517 1.00804 0.0
C2052 C 0.67953 0.63655 0.99806 0.0
C2053 C 0.70127 0.64492 0.99256 0.0
C2054 C 0.68957 0.57811 0.01979 0.0
C2055 C 0.66147 0.65185 0.99581 0.0
C2056 C 0.61752 0.59218 0.02481 0.0
C2057 C 0.62004 0.6024 0.05032 0.0
C2058 C 0.63547 0.59618 1.01054 0.0
C2059 C 0.6563 0.61044 0.02227 0.0
C2060 C 0.65894 0.62042 0.04815 0.0
C2061 C 0.64073 0.61635 0.06179 0.0
C2062 C 0.63214 0.58538 0.98298 0.0
C2063 C 0.68101 0.63553 0.0615 0.0
H2064 H 0.72829 0.60025 1.00733 0.0
H2065 H 0.70488 0.66217 0.9869 0.0
H2066 H 0.69082 0.58187 0.0407 0.0
H2067 H 0.67248 0.56762 1.01235 0.0
H2068 H 0.70266 0.56732 1.01502 0.0
H2069 H 0.66527 0.66496 0.98299 0.0
H2070 H 0.64447 0.64099 0.98868 0.0
H2071 H 0.66064 0.66155 1.01478 0.0
H2072 H 0.60146 0.58139 1.01594 0.0
H2073 H 0.6427 0.62414 0.08155 0.0
H2074 H 0.6444 0.5732 0.97982 0.0
H2075 H 0.63564 0.59934 0.97111 0.0
H2076 H 0.61461 0.57545 0.97646 0.0
H2077 H 0.6952 0.62545 0.06029 0.0
H2078 H 0.68029 0.64165 0.08178 0.0
H2079 H 0.68507 0.65123 0.05215 0.0
C2080 C 0.74821 0.50086 0.37284 0.0
C2081 C 0.73524 0.50955 0.35354 0.0
C2082 C 0.75685 0.47916 0.36865 0.0
C2083 C 0.75345 0.46515 0.34418 0.0
C2084 C 0.74039 0.47379 0.32457 0.0
C2085 C 0.73139 0.4953 0.32944 0.0
C2086 C 0.76982 0.47123 0.39075 0.0
C2087 C 0.7363 0.46049 0.29798 0.0
C2088 C 0.79612 0.4212 0.33009 0.0
C2089 C 0.78375 0.3986 0.33108 0.0
C2090 C 0.78651 0.44239 0.33364 0.0
C2091 C 0.76377 0.44199 0.3392 0.0
C2092 C 0.75128 0.41923 0.34048 0.0
C2093 C 0.76111 0.39823 0.33617 0.0
C2094 C 0.80092 0.46546 0.3314 0.0
C2095 C 0.72744 0.41703 0.34704 0.0
H2096 H 0.75168 0.51114 0.39163 0.0
H2097 H 0.72184 0.50134 0.31397 0.0
H2098 H 0.76222 0.45296 0.3925 0.0
H2099 H 0.78769 0.47104 0.38753 0.0
H2100 H 0.76991 0.48288 0.40889 0.0
H2101 H 0.72611 0.46915 0.28462 0.0
H2102 H 0.75285 0.45907 0.29123 0.0
H2103 H 0.72726 0.44228 0.29767 0.0
H2104 H 0.81354 0.42239 0.32631 0.0
H2105 H 0.75106 0.38137 0.33745 0.0
H2106 H 0.80403 0.47732 0.34986 0.0
H2107 H 0.79176 0.47442 0.31746 0.0
H2108 H 0.8176 0.46308 0.32546 0.0
H2109 H 0.72765 0.42743 0.36595 0.0
H2110 H 0.71969 0.39844 0.34731 0.0
H2111 H 0.71647 0.42441 0.3332 0.0
C2112 C 0.8215 0.47005 0.56844 0.0
C2113 C 0.81116 0.4468 0.55918 0.0
C2114 C 0.84338 0.47866 0.56366 0.0
C2115 C 0.85572 0.46313 0.5507 0.0
C2116 C 0.84544 0.43944 0.54163 0.0
C2117 C 0.82312 0.43159 0.54582 0.0
C2118 C 0.85347 0.50428 0.57302 0.0
C2119 C 0.85823 0.4223 0.52827 0.0
C2120 C 0.90717 0.49628 0.52938 0.0
C2121 C 0.92202 0.50128 0.55219 0.0
C2122 C 0.88606 0.48155 0.52739 0.0
C2123 C 0.87993 0.47164 0.54877 0.0
C2124 C 0.89633 0.47399 0.57053 0.0
C2125 C 0.9171 0.4892 0.57218 0.0
C2126 C 0.87031 0.47818 0.50278 0.0
C2127 C 0.89128 0.46199 0.59289 0.0
H2128 H 0.81257 0.48141 0.57974 0.0
H2129 H 0.81515 0.41339 0.53913 0.0
H2130 H 0.86771 0.50568 0.58856 0.0
H2131 H 0.86044 0.51254 0.55752 0.0
H2132 H 0.84075 0.51445 0.58025 0.0
H2133 H 0.84795 0.4043 0.52297 0.0
H2134 H 0.86325 0.42856 0.51085 0.0
H2135 H 0.87411 0.42132 0.54064 0.0
H2136 H 0.91127 0.50526 0.51368 0.0
H2137 H 0.92901 0.49258 0.58958 0.0
H2138 H 0.85375 0.46684 0.50283 0.0
H2139 H 0.87865 0.47007 0.48734 0.0
H2140 H 0.86746 0.49565 0.49822 0.0
H2141 H 0.88067 0.472 0.60424 0.0
H2142 H 0.90713 0.46108 0.60539 0.0
H2143 H 0.88162 0.44385 0.5865 0.0
C2144 C 0.41841 0.21869 0.36307 0.0
C2145 C 0.42984 0.20635 0.34583 0.0
C2146 C 0.40616 0.23612 0.35612 0.0
C2147 C 0.40509 0.24151 0.33119 0.0
C2148 C 0.41755 0.23 0.31402 0.0
C2149 C 0.42993 0.21268 0.32161 0.0
C2150 C 0.39335 0.24791 0.37521 0.0
C2151 C 0.41746 0.23552 0.28748 0.0
C2152 C 0.35078 0.2652 0.31251 0.0
C2153 C 0.35809 0.28958 0.31952 0.0
C2154 C 0.36625 0.24936 0.31441 0.0
C2155 C 0.38968 0.25807 0.32318 0.0
C2156 C 0.39739 0.28278 0.3279 0.0
C2157 C 0.38149 0.29818 0.32634 0.0
C2158 C 0.35725 0.2232 0.3088 0.0
C2159 C 0.42219 0.29305 0.33637 0.0
H2160 H 0.41828 0.21403 0.38187 0.0
H2161 H 0.43858 0.20319 0.3081 0.0
H2162 H 0.39826 0.26736 0.37738 0.0
H2163 H 0.37479 0.24348 0.36839 0.0
H2164 H 0.39656 0.24241 0.39409 0.0
H2165 H 0.42425 0.22218 0.27513 0.0
H2166 H 0.40001 0.23655 0.2788 0.0
H2167 H 0.42829 0.25293 0.28815 0.0
H2168 H 0.33274 0.25838 0.30724 0.0
H2169 H 0.38731 0.31702 0.33139 0.0
H2170 H 0.35814 0.21576 0.32674 0.0
H2171 H 0.36787 0.21415 0.29653 0.0
H2172 H 0.3393 0.21922 0.29936 0.0
H2173 H 0.42629 0.29301 0.35699 0.0
H2174 H 0.42622 0.3115 0.33276 0.0
H2175 H 0.43332 0.28243 0.32657 0.0
C2176 C 0.33972 0.09174 0.47813 0.0
C2177 C 0.33818 0.11209 0.49468 0.0
C2178 C 0.357 0.07856 0.4834 0.0
C2179 C 0.37274 0.08572 0.50588 0.0
C2180 C 0.37203 0.1069 0.52184 0.0
C2181 C 0.35494 0.11992 0.51592 0.0
C2182 C 0.35796 0.05657 0.46548 0.0
C2183 C 0.38867 0.11531 0.54588 0.0
C2184 C 0.39986 0.04328 0.54182 0.0
C2185 C 0.42266 0.04913 0.5384 0.0
C2186 C 0.38301 0.05379 0.52967 0.0
C2187 C 0.38921 0.0706 0.51385 0.0
C2188 C 0.41198 0.07534 0.509 0.0
C2189 C 0.42841 0.06444 0.52125 0.0
C2190 C 0.35898 0.04848 0.5356 0.0
C2191 C 0.41976 0.09359 0.493 0.0
H2192 H 0.32702 0.08563 0.46154 0.0
H2193 H 0.35421 0.13578 0.5287 0.0
H2194 H 0.3757 0.05623 0.46181 0.0
H2195 H 0.35247 0.0408 0.47421 0.0
H2196 H 0.34678 0.05527 0.44719 0.0
H2197 H 0.38577 0.13222 0.55622 0.0
H2198 H 0.38721 0.10183 0.55863 0.0
H2199 H 0.40635 0.1178 0.54143 0.0
H2200 H 0.39539 0.03134 0.55497 0.0
H2201 H 0.44609 0.06934 0.51879 0.0
H2202 H 0.34659 0.0446 0.51796 0.0
H2203 H 0.35508 0.0642 0.5473 0.0
H2204 H 0.35645 0.03331 0.54611 0.0
H2205 H 0.4056 0.09699 0.47959 0.0
H2206 H 0.43325 0.08807 0.48231 0.0
H2207 H 0.42731 0.11041 0.50557 0.0
C2208 C 0.72409 0.658 0.36902 0.0
C2209 C 0.73303 0.63787 0.36005 0.0
C2210 C 0.73483 0.68149 0.36769 0.0
C2211 C 0.75489 0.68579 0.35605 0.0
C2212 C 0.76417 0.6655 0.34723 0.0
C2213 C 0.75334 0.64218 0.34936 0.0
C2214 C 0.72445 0.70188 0.37866 0.0
C2215 C 0.78534 0.66832 0.33475 0.0
C2216 C 0.76438 0.74426 0.32701 0.0
C2217 C 0.78219 0.75936 0.34385 0.0
C2218 C 0.75615 0.72061 0.33034 0.0
C2219 C 0.76501 0.7111 0.35173 0.0
C2220 C 0.78299 0.72631 0.36893 0.0
C2221 C 0.79154 0.74973 0.3646 0.0
C2222 C 0.73771 0.70569 0.31069 0.0
C2223 C 0.79335 0.71801 0.39223 0.0
H2224 H 0.7084 0.65537 0.37713 0.0
H2225 H 0.76041 0.62714 0.34169 0.0
H2226 H 0.73767 0.715 0.39156 0.0
H2227 H 0.71767 0.71089 0.36326 0.0
H2228 H 0.71039 0.69616 0.38932 0.0
H2229 H 0.79058 0.65115 0.32873 0.0
H2230 H 0.78241 0.6772 0.31794 0.0
H2231 H 0.79954 0.67971 0.34802 0.0
H2232 H 0.75679 0.75096 0.3108 0.0
H2233 H 0.8051 0.76079 0.37804 0.0
H2234 H 0.72193 0.70151 0.31919 0.0
H2235 H 0.74297 0.68871 0.30396 0.0
H2236 H 0.73375 0.71464 0.29415 0.0
H2237 H 0.78029 0.70694 0.40047 0.0
H2238 H 0.80199 0.73304 0.40691 0.0
H2239 H 0.80625 0.70722 0.38697 0.0
C2240 C 0.91615 0.57703 0.85141 0.0
C2241 C 0.93821 0.58819 0.86173 0.0
C2242 C 0.90747 0.55458 0.85646 0.0
C2243 C 0.9218 0.54236 0.87076 0.0
C2244 C 0.94462 0.55307 0.87995 0.0
C2245 C 0.9524 0.57607 0.87574 0.0
C2246 C 0.88291 0.544 0.8465 0.0
C2247 C 0.9609 0.54038 0.89415 0.0
C2248 C 0.88942 0.49332 0.89855 0.0
C2249 C 0.88429 0.47541 0.87756 0.0
C2250 C 0.9038 0.51452 0.8978 0.0
C2251 C 0.9127 0.51817 0.87517 0.0
C2252 C 0.90986 0.49907 0.85512 0.0
C2253 C 0.89546 0.47798 0.85641 0.0
C2254 C 0.90887 0.53254 0.92145 0.0
C2255 C 0.92152 0.5011 0.832 0.0
H2256 H 0.90567 0.58591 0.83939 0.0
H2257 H 0.96977 0.58449 0.88313 0.0
H2258 H 0.88196 0.52825 0.83208 0.0
H2259 H 0.87405 0.5382 0.86211 0.0
H2260 H 0.87364 0.55663 0.83764 0.0
H2261 H 0.97892 0.54827 0.8939 0.0
H2262 H 0.95798 0.54167 0.91419 0.0
H2263 H 0.95823 0.5214 0.88603 0.0
H2264 H 0.88145 0.4913 0.91533 0.0
H2265 H 0.89256 0.46368 0.84061 0.0
H2266 H 0.92049 0.54866 0.91955 0.0
H2267 H 0.91687 0.52468 0.93719 0.0
H2268 H 0.89273 0.53712 0.92707 0.0
H2269 H 0.91216 0.51083 0.81911 0.0
H2270 H 0.92216 0.4835 0.82139 0.0
H2271 H 0.93916 0.51106 0.83742 0.0
C2272 C 0.06357 0.88131 0.21772 0.0
C2273 C 0.04311 0.86959 0.22355 0.0
C2274 C 0.06366 0.89982 0.20318 0.0
C2275 C 0.0428 0.90669 0.19435 0.0
C2276 C 1.02242 0.89611 0.202 0.0
C2277 C 1.02283 0.87774 0.21642 0.0
C2278 C 0.08582 0.91077 0.19572 0.0
C2279 C 0.9998 0.90287 0.19332 0.0
C2280 C 0.0388 0.96199 0.16407 0.0
C2281 C 0.03419 0.9527 0.13815 0.0
C2282 C 0.0426 0.94748 0.18255 0.0
C2283 C 0.04165 0.92299 0.17506 0.0
C2284 C 0.03761 0.91362 0.14891 0.0
C2285 C 0.034 0.92855 0.13084 0.0
C2286 C 0.04707 0.95828 0.21014 0.0
C2287 C 0.0363 0.8876 0.14 0.0
H2288 H 0.07923 0.87486 0.2228 0.0
H2289 H 1.00695 0.86867 0.22081 0.0
H2290 H 0.08627 0.90418 0.17551 0.0
H2291 H 0.08732 0.93023 0.1978 0.0
H2292 H 0.10076 0.90639 0.20722 0.0
H2293 H 0.98594 0.89473 0.20295 0.0
H2294 H 1.00095 0.92229 0.19686 0.0
H2295 H 0.99511 0.89704 0.17262 0.0
H2296 H 0.03943 0.9807 0.16996 0.0
H2297 H 0.03032 0.92112 0.11094 0.0
H2298 H 0.06263 0.95321 0.21959 0.0
H2299 H 0.0327 0.95143 0.21977 0.0
H2300 H 0.04918 0.97783 0.21281 0.0
H2301 H 0.05185 0.88162 0.14818 0.0
H2302 H 0.03438 0.88328 0.11905 0.0
H2303 H 1.02157 0.87744 0.14665 0.0
C2304 C 0.99532 0.33917 0.86001 0.0
C2305 C 1.00429 0.35087 0.88456 0.0
C2306 C 0.97217 0.33821 0.84976 0.0
C2307 C 0.95711 0.34858 0.86454 0.0
C2308 C 0.96618 0.3604 0.88935 0.0
C2309 C 0.98937 0.36128 0.89897 0.0
C2310 C 0.96375 0.32575 0.82315 0.0
C2311 C 0.95124 0.37191 0.906 0.0
C2312 C 0.90013 0.36339 0.83459 0.0
C2313 C 0.88392 0.3446 0.83858 0.0
C2314 C 0.92374 0.36463 0.84233 0.0
C2315 C 0.93185 0.34669 0.85456 0.0
C2316 C 0.91549 0.32745 0.85832 0.0
C2317 C 0.89194 0.32658 0.85023 0.0
C2318 C 0.93998 0.38517 0.83701 0.0
C2319 C 0.92281 0.30799 0.87155 0.0
H2320 H 1.00629 0.33026 0.84896 0.0
H2321 H 0.99586 0.37002 0.91811 0.0
H2322 H 0.95018 0.31052 0.82337 0.0
H2323 H 0.95615 0.33788 0.81174 0.0
H2324 H 0.97757 0.31931 0.81371 0.0
H2325 H 0.96072 0.38055 0.92474 0.0
H2326 H 0.94377 0.38536 0.89656 0.0
H2327 H 0.9369 0.35853 0.90899 0.0
H2328 H 0.89432 0.37739 0.82555 0.0
H2329 H 0.87971 0.31199 0.85367 0.0
H2330 H 0.94886 0.37879 0.82124 0.0
H2331 H 0.9529 0.39253 0.8538 0.0
H2332 H 0.93115 0.3995 0.83136 0.0
H2333 H 0.93543 0.29986 0.8615 0.0
H2334 H 0.90825 0.294 0.87263 0.0
H2335 H 0.93127 0.31542 0.89105 0.0
C2336 C 0.56312 0.24452 0.70996 0.0
C2337 C 0.54478 0.24512 0.72365 0.0
C2338 C 0.56614 0.22353 0.69548 0.0
C2339 C 0.54942 0.2029 0.69303 0.0
C2340 C 0.53081 0.20351 0.70698 0.0
C2341 C 0.52937 0.22433 0.72307 0.0
C2342 C 0.58716 0.22381 0.68264 0.0
C2343 C 0.51218 0.18238 0.70464 0.0
C2344 C 0.54885 0.16054 0.63205 0.0
C2345 C 0.55401 0.14032 0.64117 0.0
C2346 C 0.54689 0.18072 0.64859 0.0
C2347 C 0.55101 0.18115 0.67522 0.0
C2348 C 0.55712 0.16083 0.68448 0.0
C2349 C 0.55787 0.14048 0.66734 0.0
C2350 C 0.54062 0.20133 0.63679 0.0
C2351 C 0.56379 0.16028 0.71228 0.0
H2352 H 0.57551 0.26046 0.71104 0.0
H2353 H 0.51586 0.22448 0.73467 0.0
H2354 H 0.59261 0.20633 0.68051 0.0
H2355 H 0.58352 0.22874 0.66359 0.0
H2356 H 0.60154 0.23712 0.69342 0.0
H2357 H 0.49715 0.18695 0.7131 0.0
H2358 H 0.50663 0.17459 0.68446 0.0
H2359 H 0.51863 0.16874 0.7146 0.0
H2360 H 0.546 0.16052 0.61178 0.0
H2361 H 0.56241 0.12498 0.67448 0.0
H2362 H 0.55465 0.20847 0.62682 0.0
H2363 H 0.53719 0.21573 0.65062 0.0
H2364 H 0.52536 0.19522 0.62223 0.0
H2365 H 0.57988 0.15317 0.71516 0.0
H2366 H 0.55054 0.148 0.71892 0.0
H2367 H 0.5662 0.1778 0.72426 0.0
C2368 C 0.64736 0.86003 0.40447 0.0
C2369 C 0.62894 0.8543 0.38471 0.0
C2370 C 0.67006 0.85924 0.39993 0.0
C2371 C 0.67465 0.85148 0.37517 0.0
C2372 C 0.65597 0.84509 0.3553 0.0
C2373 C 0.63362 0.84712 0.36017 0.0
C2374 C 0.68922 0.8672 0.42164 0.0
C2375 C 0.65949 0.83573 0.32882 0.0
C2376 C 0.73428 0.86609 0.35498 0.0
C2377 C 0.74396 0.84618 0.35917 0.0
C2378 C 0.71223 0.86839 0.36085 0.0
C2379 C 0.6988 0.84985 0.37003 0.0
C2380 C 0.70844 0.8295 0.37378 0.0
C2381 C 0.73092 0.82818 0.36891 0.0
C2382 C 0.70338 0.89086 0.35745 0.0
C2383 C 0.69477 0.80875 0.38236 0.0
H2384 H 0.64409 0.86583 0.42346 0.0
H2385 H 0.61965 0.84255 0.34471 0.0
H2386 H 0.69802 0.85229 0.4252 0.0
H2387 H 0.702 0.88118 0.41674 0.0
H2388 H 0.68314 0.87414 0.43937 0.0
H2389 H 0.64317 0.82998 0.31584 0.0
H2390 H 0.67023 0.84952 0.32104 0.0
H2391 H 0.66864 0.82054 0.32915 0.0
H2392 H 0.74418 0.88017 0.3476 0.0
H2393 H 0.73807 0.81259 0.37197 0.0
H2394 H 0.69758 0.89825 0.37516 0.0
H2395 H 0.68846 0.88711 0.34237 0.0
H2396 H 0.71647 0.9044 0.35231 0.0
H2397 H 0.69018 0.81411 0.40134 0.0
H2398 H 0.70419 0.79379 0.38326 0.0
H2399 H 0.67863 0.80254 0.36919 0.0
C2400 C 0.10035 0.32379 0.53762 0.0
C2401 C 0.09957 0.32749 0.51238 0.0
C2402 C 0.091 0.30208 0.54373 0.0
C2403 C 0.08067 0.28347 0.5241 0.0
C2404 C 0.07996 0.28693 0.49853 0.0
C2405 C 0.08942 0.309 0.49294 0.0
C2406 C 0.09217 0.29909 0.57127 0.0
C2407 C 0.06922 0.26736 0.47717 0.0
C2408 C 0.07853 0.22465 0.54674 0.0
C2409 C 0.05668 0.22109 0.55363 0.0
C2410 C 0.08598 0.24403 0.53516 0.0
C2411 C 0.07128 0.26034 0.5308 0.0
C2412 C 0.04871 0.25605 0.53649 0.0
C2413 C 0.0416 0.23629 0.54781 0.0
C2414 C 0.11009 0.24785 0.5292 0.0
C2415 C 0.03261 0.27313 0.53223 0.0
H2416 H 0.10815 0.33799 0.55278 0.0
H2417 H 0.08875 0.3118 0.4734 0.0
H2418 H 0.07479 0.29377 0.57586 0.0
H2419 H 0.10192 0.28488 0.575 0.0
H2420 H 0.1004 0.31551 0.58423 0.0
H2421 H 0.07001 0.27291 0.45831 0.0
H2422 H 0.07797 0.25195 0.4781 0.0
H2423 H 0.05114 0.26141 0.47908 0.0
H2424 H 0.09003 0.21263 0.55118 0.0
H2425 H 1.0247 0.23333 0.55321 0.0
H2426 H 0.1205 0.26272 0.54287 0.0
H2427 H 0.1105 0.25263 0.50999 0.0
H2428 H 0.11813 0.23196 0.53033 0.0
H2429 H 0.03836 0.28953 0.54611 0.0
H2430 H 1.01489 0.26574 0.53445 0.0
H2431 H 0.03265 0.27807 0.51306 0.0
C2432 C 0.57075 0.27375 0.19921 0.0
C2433 C 0.55315 0.28117 0.21133 0.0
C2434 C 0.59261 0.27566 0.2126 0.0
C2435 C 0.59689 0.28538 0.23861 0.0
C2436 C 0.5793 0.29339 0.25078 0.0
C2437 C 0.55759 0.2911 0.23699 0.0
C2438 C 0.611 0.26685 0.19907 0.0
C2439 C 0.58334 0.30404 0.27843 0.0
C2440 C 0.64664 0.26826 0.27764 0.0
C2441 C 0.66382 0.28766 0.27805 0.0
C2442 C 0.6246 0.26749 0.26527 0.0
C2443 C 0.61966 0.28667 0.25321 0.0
C2444 C 0.63667 0.30671 0.25443 0.0
C2445 C 0.6586 0.30694 0.2668 0.0
C2446 C 0.6068 0.24587 0.26442 0.0
C2447 C 0.63192 0.32753 0.2419 0.0
H2448 H 0.56733 0.266 0.17939 0.0
H2449 H 0.54404 0.29699 0.2464 0.0
H2450 H 0.62583 0.28123 0.20073 0.0
H2451 H 0.61704 0.25241 0.20805 0.0
H2452 H 0.60499 0.26019 0.17869 0.0
H2453 H 0.56804 0.31018 0.2848 0.0
H2454 H 0.58828 0.29083 0.29014 0.0
H2455 H 0.59763 0.3192 0.28203 0.0
H2456 H 0.65056 0.25345 0.28658 0.0
H2457 H 0.6719 0.32183 0.26673 0.0
H2458 H 0.60132 0.23717 0.24453 0.0
H2459 H 0.59152 0.25096 0.27185 0.0
H2460 H 0.61317 0.23287 0.27557 0.0
H2461 H 0.62808 0.32206 0.2211 0.0
H2462 H 0.64656 0.34239 0.24608 0.0
H2463 H 0.61675 0.33393 0.24826 0.0
C2464 C 0.63592 0.94612 0.06539 0.0
C2465 C 0.64291 0.95308 0.04312 0.0
C2466 C 0.62623 0.96116 0.08184 0.0
C2467 C 0.6244 0.98396 0.07638 0.0
C2468 C 0.63572 0.99262 0.05704 0.0
C2469 C 0.64475 0.97696 0.04037 0.0
C2470 C 0.61469 0.95113 0.10238 0.0
C2471 C 0.63539 1.01742 0.05172 0.0
C2472 C 0.5672 1.00329 0.07691 0.0
C2473 C 0.5712 1.02066 0.09838 0.0
C2474 C 0.58419 0.9907 0.07022 0.0
C2475 C 0.60585 0.99565 0.08538 0.0
C2476 C 0.60954 1.01204 0.10805 0.0
C2477 C 0.59194 0.02412 0.11451 0.0
C2478 C 0.57923 0.97298 0.04612 0.0
C2479 C 0.6324 1.01786 0.12458 0.0
H2480 H 0.63528 0.92795 0.06835 0.0
H2481 H 0.65082 0.98284 0.02374 0.0
H2482 H 0.61484 0.96483 0.11886 0.0
H2483 H 0.59665 0.94368 0.0947 0.0
H2484 H 0.62291 0.93672 0.10893 0.0
H2485 H 0.64942 0.02337 0.04115 0.0
H2486 H 0.61895 1.01802 0.0402 0.0
H2487 H 0.63692 0.02998 0.06952 0.0
H2488 H 0.55106 1.00026 0.06455 0.0
H2489 H 0.59477 0.03711 0.1315 0.0
H2490 H 0.58405 0.95592 0.04972 0.0
H2491 H 0.58946 0.97957 0.03189 0.0
H2492 H 0.56097 0.96972 0.0378 0.0
H2493 H 0.6387 1.00156 0.12846 0.0
H2494 H 0.63178 0.02897 0.14287 0.0
H2495 H 0.64498 0.02753 0.11452 0.0
C2496 C 0.93565 0.83792 0.70795 0.0
C2497 C 0.94448 0.81698 0.7073 0.0
C2498 C 0.92445 0.84556 0.72807 0.0
C2499 C 0.92286 0.83219 0.74807 0.0
C2500 C 0.92861 0.80937 0.74534 0.0
C2501 C 0.93861 0.80161 0.72425 0.0
C2502 C 0.9166 0.86906 0.72932 0.0
C2503 C 0.92743 0.79463 0.76631 0.0
C2504 C 0.93475 0.86846 0.81386 0.0
C2505 C 0.91304 0.86584 0.82092 0.0
C2506 C 0.93815 0.85732 0.79015 0.0
C2507 C 0.91929 0.84364 0.77324 0.0
C2508 C 0.89739 0.84091 0.78059 0.0
C2509 C 0.89465 0.85194 0.80444 0.0
C2510 C 0.96189 0.86024 0.78314 0.0
C2511 C 0.87676 0.82696 0.76316 0.0
H2512 H 0.94003 0.84968 0.69459 0.0
H2513 H 0.94545 0.78535 0.72358 0.0
H2514 H 0.89855 0.86679 0.73246 0.0
H2515 H 0.92673 0.88168 0.74549 0.0
H2516 H 0.91812 0.87676 0.71169 0.0
H2517 H 0.94095 0.80273 0.78235 0.0
H2518 H 0.91085 0.79396 0.77352 0.0
H2519 H 0.92998 0.77637 0.75993 0.0
H2520 H 0.94891 0.87918 0.82678 0.0
H2521 H 0.878 0.84973 0.81034 0.0
H2522 H 0.96255 0.8696 0.76654 0.0
H2523 H 0.96644 0.84268 0.7777 0.0
H2524 H 0.97484 0.87026 0.7989 0.0
H2525 H 0.87218 0.83709 0.74783 0.0
H2526 H 0.8618 0.82346 0.77326 0.0
H2527 H 0.88034 0.80989 0.75412 0.0
C2528 C 0.15014 0.06227 0.91142 0.0
C2529 C 0.17392 0.06969 0.91818 0.0
C2530 C 0.13462 0.06235 0.92971 0.0
C2531 C 0.14246 0.07038 0.956 0.0
C2532 C 0.16643 0.07785 0.96292 0.0
C2533 C 0.18157 0.07726 0.94433 0.0
C2534 C 0.10959 0.05385 0.92075 0.0
C2535 C 0.17621 0.08698 0.99018 0.0
C2536 C 0.10102 0.09421 1.0002 0.0
C2537 C 0.09532 0.07602 1.01455 0.0
C2538 C 0.1159 0.09253 0.98147 0.0
C2539 C 0.12576 0.07196 0.97596 0.0
C2540 C 0.11984 0.05333 0.99012 0.0
C2541 C 0.10503 0.05559 1.00905 0.0
C2542 C 0.12145 0.11325 0.96782 0.0
C2543 C 0.12935 0.03087 0.9854 0.0
H2544 H 0.1435 0.05633 0.89162 0.0
H2545 H 0.19963 0.08325 0.95041 0.0
H2546 H 0.10297 0.03978 0.93133 0.0
H2547 H 0.10008 0.06855 0.92464 0.0
H2548 H 0.10602 0.0469 0.90018 0.0
H2549 H 0.19505 0.09192 0.9929 0.0
H2550 H 0.16892 0.10269 0.997 0.0
H2551 H 0.17148 0.07342 1.00216 0.0
H2552 H 0.09409 0.11027 1.00395 0.0
H2553 H 0.10125 0.04132 0.01975 0.0
H2554 H 0.11647 0.10769 0.94713 0.0
H2555 H 0.14009 0.11976 0.97118 0.0
H2556 H 0.11267 0.12805 0.97402 0.0
H2557 H 0.1251 1.02311 0.96509 0.0
H2558 H 0.1227 1.0176 0.99695 0.0
H2559 H 0.14819 0.03476 0.9899 0.0
C2560 C 0.783 0.41796 0.66371 0.0
C2561 C 0.76622 0.40355 0.64533 0.0
C2562 C 0.7909 0.41018 0.68629 0.0
C2563 C 0.78161 0.38751 0.69101 0.0
C2564 C 0.76431 0.37305 0.67277 0.0
C2565 C 0.75699 0.38113 0.65011 0.0
C2566 C 0.80948 0.42616 0.70496 0.0
C2567 C 0.75357 0.34897 0.67718 0.0
C2568 C 0.81517 0.3584 0.7395 0.0
C2569 C 0.80515 0.36385 0.76128 0.0
C2570 C 0.80787 0.36613 0.7166 0.0
C2571 C 0.78973 0.37919 0.71521 0.0
C2572 C 0.77951 0.38459 0.73714 0.0
C2573 C 0.78748 0.37713 0.75985 0.0
C2574 C 0.81954 0.36031 0.69386 0.0
C2575 C 0.75987 0.398 0.73657 0.0
H2576 H 0.79044 0.43522 0.6602 0.0
H2577 H 0.74408 0.36981 0.63607 0.0
H2578 H 0.80336 0.43008 0.72343 0.0
H2579 H 0.82433 0.41716 0.70827 0.0
H2580 H 0.81525 0.44309 0.69833 0.0
H2581 H 0.73996 0.34009 0.66152 0.0
H2582 H 0.76673 0.33762 0.67916 0.0
H2583 H 0.74616 0.3505 0.6951 0.0
H2584 H 0.82876 0.34811 0.74035 0.0
H2585 H 0.77936 0.38125 0.77641 0.0
H2586 H 0.82646 0.37677 0.68704 0.0
H2587 H 0.80706 0.34949 0.6782 0.0
H2588 H 0.83367 0.35051 0.6981 0.0
H2589 H 0.76526 0.4157 0.73154 0.0
H2590 H 0.75333 0.40021 0.75502 0.0
H2591 H 0.74571 0.38861 0.72182 0.0
C2592 C 0.50463 0.14673 0.42668 0.0
C2593 C 0.4834 0.15387 0.42762 0.0
C2594 C 0.51582 0.1386 0.44745 0.0
C2595 C 0.50564 0.13762 0.46979 0.0
C2596 C 0.48512 0.14652 0.47153 0.0
C2597 C 0.47434 0.15459 0.45055 0.0
C2598 C 0.53767 0.12933 0.44472 0.0
C2599 C 0.47369 0.14598 0.49497 0.0
C2600 C 0.5151 0.08878 0.50855 0.0
C2601 C 0.53067 0.10088 0.52946 0.0
C2602 C 0.50711 0.10049 0.48897 0.0
C2603 C 0.51493 0.12498 0.49014 0.0
C2604 C 0.53092 0.13724 0.51104 0.0
C2605 C 0.53858 0.12506 0.53045 0.0
C2606 C 0.48999 0.08666 0.46718 0.0
C2607 C 0.53968 0.16329 0.51306 0.0
H2608 H 0.51176 0.14583 0.4091 0.0
H2609 H 0.458 0.16011 0.45162 0.0
H2610 H 0.55045 0.13601 0.46181 0.0
H2611 H 0.53427 0.1098 0.44276 0.0
H2612 H 0.54507 0.13434 0.42787 0.0
H2613 H 0.45842 0.15463 0.49388 0.0
H2614 H 0.4684 0.12743 0.49766 0.0
H2615 H 0.48581 0.15489 0.51192 0.0
H2616 H 0.50888 0.0701 0.50762 0.0
H2617 H 0.5506 0.13452 0.54655 0.0
H2618 H 0.49663 0.08823 0.44904 0.0
H2619 H 0.47397 0.09401 0.46629 0.0
H2620 H 0.4859 0.06767 0.46885 0.0
H2621 H 0.54721 0.16696 0.49589 0.0
H2622 H 0.55272 0.17009 0.52994 0.0
H2623 H 0.52536 0.17319 0.5142 0.0
C2624 C 0.78257 0.65478 0.09891 0.0
C2625 C 0.79508 0.66824 0.08388 0.0
C2626 C 0.78162 0.66387 0.12418 0.0
C2627 C 0.79324 0.68693 0.13427 0.0
C2628 C 0.80786 0.6994 0.11998 0.0
C2629 C 0.80867 0.68981 0.09496 0.0
C2630 C 0.76657 0.64969 0.13919 0.0
C2631 C 0.8208 0.72395 0.13012 0.0
C2632 C 0.76702 0.73026 0.17463 0.0
C2633 C 0.78223 0.73448 0.19721 0.0
C2634 C 0.76931 0.71327 0.15455 0.0
C2635 C 0.78708 0.69997 0.1573 0.0
C2636 C 0.801 0.70243 0.18092 0.0
C2637 C 0.79853 0.71986 0.20063 0.0
C2638 C 0.75391 0.71105 0.12972 0.0
C2639 C 0.81962 0.68803 0.18485 0.0
H2640 H 0.77227 0.6379 0.09051 0.0
H2641 H 0.81875 0.70005 0.08355 0.0
H2642 H 0.77402 0.65247 0.15944 0.0
H2643 H 0.74975 0.65542 0.13802 0.0
H2644 H 0.76378 0.63054 0.13166 0.0
H2645 H 0.83318 0.73015 0.11768 0.0
H2646 H 0.80862 0.73644 0.13173 0.0
H2647 H 0.83015 0.72454 0.14928 0.0
H2648 H 0.75398 0.74109 0.17222 0.0
H2649 H 0.81029 0.72295 0.21812 0.0
H2650 H 0.74652 0.6923 0.12257 0.0
H2651 H 0.76398 0.71771 0.11538 0.0
H2652 H 0.73977 0.72117 0.1314 0.0
H2653 H 0.81431 0.66977 0.17451 0.0
H2654 H 0.82452 0.68731 0.20523 0.0
H2655 H 0.83491 0.6962 0.17747 0.0
C2656 C 0.18385 0.07534 0.75349 0.0
C2657 C 0.17226 0.06345 0.77053 0.0
C2658 C 0.1729 0.07725 0.72917 0.0
C2659 C 0.14968 0.06681 0.72117 0.0
C2660 C 0.13812 0.05418 0.73804 0.0
C2661 C 0.14939 0.05282 0.76235 0.0
C2662 C 0.18606 0.09111 0.71228 0.0
C2663 C 0.11356 0.04243 0.7306 0.0
C2664 C 0.11314 0.09159 0.67055 0.0
C2665 C 0.11279 0.07574 0.64824 0.0
C2666 C 0.12521 0.08907 0.69402 0.0
C2667 C 0.13721 0.06997 0.6958 0.0
C2668 C 0.13692 0.05387 0.67335 0.0
C2669 C 0.12496 0.05701 0.65 0.0
C2670 C 0.12504 0.10694 0.71703 0.0
C2671 C 0.14907 0.03305 0.67405 0.0
H2672 H 0.20141 0.08384 0.75943 0.0
H2673 H 0.14009 0.04359 0.77514 0.0
H2674 H 0.18548 0.08011 0.69364 0.0
H2675 H 0.17808 0.10659 0.7088 0.0
H2676 H 0.20415 0.09743 0.72065 0.0
H2677 H 0.10732 0.032 0.74497 0.0
H2678 H 0.1027 0.05598 0.72806 0.0
H2679 H 0.11145 0.03057 0.71222 0.0
H2680 H 0.10399 0.10621 0.66971 0.0
H2681 H 0.12487 0.04451 0.63314 0.0
H2682 H 0.14275 0.11503 0.72546 0.0
H2683 H 0.1171 0.09809 0.7316 0.0
H2684 H 0.11557 0.12119 0.71255 0.0
H2685 H 0.16745 0.03925 0.68097 0.0
H2686 H 0.14724 1.02202 0.65517 0.0
H2687 H 0.14221 1.02188 0.68749 0.0
C2688 C 0.74991 0.37241 0.49983 0.0
C2689 C 0.74495 0.39509 0.49826 0.0
C2690 C 0.75748 0.3592 0.47945 0.0
C2691 C 0.76091 0.36912 0.45723 0.0
C2692 C 0.75441 0.39124 0.45489 0.0
C2693 C 0.746 0.40354 0.47503 0.0
C2694 C 0.76307 0.33519 0.48233 0.0
C2695 C 0.75818 0.40298 0.43199 0.0
C2696 C 0.80906 0.3542 0.42088 0.0
C2697 C 0.79714 0.34151 0.39789 0.0
C2698 C 0.79749 0.36278 0.44048 0.0
C2699 C 0.77334 0.35781 0.43754 0.0
C2700 C 0.7613 0.34383 0.41487 0.0
C2701 C 0.77329 0.33636 0.39513 0.0
C2702 C 0.81113 0.37829 0.4638 0.0
C2703 C 0.73569 0.33731 0.41113 0.0
H2704 H 0.74915 0.36548 0.51746 0.0
H2705 H 0.74198 0.42085 0.47321 0.0
H2706 H 0.75687 0.32256 0.4646 0.0
H2707 H 0.7818 0.33641 0.48624 0.0
H2708 H 0.75546 0.32807 0.49813 0.0
H2709 H 0.75122 0.41965 0.43247 0.0
H2710 H 0.77671 0.40705 0.43108 0.0
H2711 H 0.75019 0.39099 0.41436 0.0
H2712 H 0.82747 0.35858 0.42304 0.0
H2713 H 0.76398 0.32663 0.37738 0.0
H2714 H 0.80732 0.37084 0.48102 0.0
H2715 H 0.80626 0.39605 0.46551 0.0
H2716 H 0.82977 0.38032 0.46336 0.0
H2717 H 0.72978 0.33144 0.42837 0.0
H2718 H 0.72929 0.32308 0.39476 0.0
H2719 H 0.72799 0.35295 0.4077 0.0
C2720 C 0.47875 0.12245 0.2631 0.0
C2721 C 0.49066 0.13861 0.28395 0.0
C2722 C 0.4892 0.11599 0.24183 0.0
C2723 C 0.5121 0.12607 0.24112 0.0
C2724 C 0.52403 0.14291 0.26179 0.0
C2725 C 0.51323 0.14885 0.283 0.0
C2726 C 0.47582 0.09798 0.22027 0.0
C2727 C 0.54826 0.15454 0.26154 0.0
C2728 C 0.54471 0.09223 0.19614 0.0
C2729 C 0.54182 0.1032 0.17464 0.0
C2730 C 0.53544 0.09972 0.21807 0.0
C2731 C 0.52343 0.11895 0.21869 0.0
C2732 C 0.52134 0.13068 0.19735 0.0
C2733 C 0.53035 0.12253 0.17557 0.0
C2734 C 0.53793 0.0866 0.2403 0.0
C2735 C 0.50911 0.1515 0.19723 0.0
H2736 H 0.46135 0.11434 0.26364 0.0
H2737 H 0.52258 0.16136 0.29898 0.0
H2738 H 0.47483 0.10569 0.20251 0.0
H2739 H 0.48463 0.0826 0.21725 0.0
H2740 H 0.45823 0.09163 0.22378 0.0
H2741 H 0.55496 0.16782 0.27869 0.0
H2742 H 0.55942 0.14101 0.26034 0.0
H2743 H 0.54931 0.16336 0.24459 0.0
H2744 H 0.55357 0.07731 0.19555 0.0
H2745 H 0.5285 0.1314 0.1592 0.0
H2746 H 0.52086 0.07841 0.24376 0.0
H2747 H 0.54591 0.09903 0.25766 0.0
H2748 H 0.54838 0.07256 0.23721 0.0
H2749 H 0.4905 0.14526 0.19548 0.0
H2750 H 0.51245 0.16115 0.18127 0.0
H2751 H 0.5143 0.16403 0.21518 0.0
C2752 C 0.79512 0.71478 0.96306 0.0
C2753 C 0.78818 0.69219 0.94864 0.0
C2754 C 0.79815 0.73497 0.95152 0.0
C2755 C 0.79439 0.73259 0.92489 0.0
C2756 C 0.78848 0.70987 0.9101 0.0
C2757 C 0.78533 0.68988 0.92218 0.0
C2758 C 0.80438 0.75891 0.9679 0.0
C2759 C 0.7844 0.70677 0.88157 0.0
C2760 C 0.77422 0.78276 0.89571 0.0
C2761 C 0.79394 0.79331 0.88752 0.0
C2762 C 0.77418 0.76305 0.90806 0.0
C2763 C 0.79457 0.75395 0.91264 0.0
C2764 C 0.81491 0.76525 0.90554 0.0
C2765 C 0.81437 0.7849 0.89311 0.0
C2766 C 0.75221 0.75173 0.91576 0.0
C2767 C 0.83695 0.75598 0.91003 0.0
H2768 H 0.79756 0.71687 0.98354 0.0
H2769 H 0.7801 0.67255 0.91088 0.0
H2770 H 0.81916 0.76953 0.96184 0.0
H2771 H 0.78991 0.7686 0.9657 0.0
H2772 H 0.8086 0.75763 0.98826 0.0
H2773 H 0.78192 0.68795 0.87282 0.0
H2774 H 0.76901 0.71405 0.87531 0.0
H2775 H 0.79895 0.71672 0.87442 0.0
H2776 H 0.75864 0.78943 0.89153 0.0
H2777 H 0.82973 0.79297 0.88672 0.0
H2778 H 0.7532 0.7556 0.93663 0.0
H2779 H 0.74932 0.73229 0.91033 0.0
H2780 H 0.73726 0.75831 0.90699 0.0
H2781 H 0.84073 0.7537 0.93012 0.0
H2782 H 0.85158 0.76784 0.90513 0.0
H2783 H 0.83533 0.73838 0.89838 0.0
C2784 C 0.93819 0.18953 0.08645 0.0
C2785 C 0.92694 0.19469 0.06406 0.0
C2786 C 0.95548 0.17556 0.0858 0.0
C2787 C 0.96177 0.16665 0.06225 0.0
C2788 C 0.9514 0.1731 0.03982 0.0
C2789 C 0.93406 0.18681 0.04099 0.0
C2790 C 0.96646 0.16958 0.11024 0.0
C2791 C 0.95798 0.16473 1.01441 0.0
C2792 C 1.01862 0.14488 0.06192 0.0
C2793 C 1.01221 0.1203 0.05973 0.0
C2794 C 1.00253 0.16008 0.06279 0.0
C2795 C 0.97913 0.15057 0.061 0.0
C2796 C 0.97238 0.12567 0.05783 0.0
C2797 C 0.98897 0.11083 0.05721 0.0
C2798 C 1.01082 0.18633 0.06564 0.0
C2799 C 0.94764 0.11474 0.05584 0.0
H2800 H 0.93243 0.19504 0.10426 0.0
H2801 H 0.92523 0.19047 0.02358 0.0
H2802 H 0.96293 0.15022 0.10993 0.0
H2803 H 0.98521 0.175 0.11228 0.0
H2804 H 0.96021 0.17833 0.12702 0.0
H2805 H 0.94887 0.17192 0.99883 0.0
H2806 H 0.97657 0.17008 1.01475 0.0
H2807 H 0.9541 0.14519 1.01027 0.0
H2808 H 0.03647 0.15241 0.06355 0.0
H2809 H 0.98383 0.09193 0.05587 0.0
H2810 H 1.00041 0.19659 0.077 0.0
H2811 H 1.00974 0.19173 0.04662 0.0
H2812 H 1.02881 0.1912 0.0748 0.0
H2813 H 0.94085 0.12101 0.07332 0.0
H2814 H 0.94504 0.09516 0.05302 0.0
H2815 H 0.93754 0.12034 0.03982 0.0
C2816 C 0.41654 0.5326 0.13847 0.0
C2817 C 0.41464 0.53293 0.16406 0.0
C2818 C 0.4377 0.53779 0.13038 0.0
C2819 C 0.45772 0.54088 0.14807 0.0
C2820 C 0.45602 0.5403 0.17401 0.0
C2821 C 0.43436 0.53671 0.18179 0.0
C2822 C 0.43849 0.53955 0.10275 0.0
C2823 C 0.47695 0.54215 0.19316 0.0
C2824 C 0.50388 0.52459 0.11104 0.0
C2825 C 0.51608 0.54683 0.10983 0.0
C2826 C 0.4863 0.52226 0.12593 0.0
C2827 C 0.48004 0.54279 0.1386 0.0
C2828 C 0.49326 0.56517 0.13842 0.0
C2829 C 0.51139 0.56683 0.12433 0.0
C2830 C 0.47393 0.49788 0.12731 0.0
C2831 C 0.48763 0.58777 0.15122 0.0
H2832 H 0.40137 0.52857 0.12468 0.0
H2833 H 0.43282 0.5356 0.20145 0.0
H2834 H 0.4511 0.55505 0.10075 0.0
H2835 H 0.44376 0.52357 0.0932 0.0
H2836 H 0.42164 0.54114 0.09276 0.0
H2837 H 0.47272 0.54144 0.21258 0.0
H2838 H 0.48615 0.52749 0.1878 0.0
H2839 H 0.48876 0.55886 0.19331 0.0
H2840 H 0.50809 0.50903 0.1004 0.0
H2841 H 0.52119 0.58399 0.12366 0.0
H2842 H 0.45766 0.49404 0.1142 0.0
H2843 H 0.46985 0.49666 0.14669 0.0
H2844 H 0.48415 0.4841 0.12189 0.0
H2845 H 0.47863 0.59619 0.13666 0.0
H2846 H 0.50345 0.60026 0.15975 0.0
H2847 H 0.4768 0.58504 0.16617 0.0
C2848 C 0.39825 0.66557 0.80587 0.0
C2849 C 0.39709 0.65232 0.82602 0.0
C2850 C 0.38972 0.6875 0.80616 0.0
C2851 C 0.37978 0.6973 0.82718 0.0
C2852 C 0.37924 0.68427 0.84774 0.0
C2853 C 0.38751 0.66242 0.84681 0.0
C2854 C 0.39076 0.69994 0.78344 0.0
C2855 C 0.36946 0.69327 0.87093 0.0
C2856 C 0.3726 0.76421 0.83908 0.0
C2857 C 0.34914 0.76377 0.83134 0.0
C2858 C 0.38267 0.74324 0.83759 0.0
C2859 C 0.36944 0.7205 0.82771 0.0
C2860 C 0.34583 0.72004 0.81957 0.0
C2861 C 0.33616 0.7412 0.82156 0.0
C2862 C 0.40768 0.74547 0.84696 0.0
C2863 C 0.33053 0.69692 0.80864 0.0
H2864 H 0.40507 0.65841 0.78936 0.0
H2865 H 0.3862 0.65293 0.86271 0.0
H2866 H 0.37323 0.70063 0.77468 0.0
H2867 H 0.39971 0.71841 0.78931 0.0
H2868 H 0.39959 0.69101 0.76897 0.0
H2869 H 0.37127 0.68212 0.886 0.0
H2870 H 0.37805 0.71157 0.87869 0.0
H2871 H 0.35111 0.69375 0.86575 0.0
H2872 H 0.38326 0.78109 0.84659 0.0
H2873 H 0.31815 0.73998 0.81517 0.0
H2874 H 0.41647 0.73798 0.83161 0.0
H2875 H 0.41004 0.73516 0.86269 0.0
H2876 H 0.41596 0.76407 0.85373 0.0
H2877 H 0.33755 0.68798 0.79257 0.0
H2878 H 0.31291 0.69922 0.80191 0.0
H2879 H 0.32983 0.68507 0.82315 0.0
C2880 C 0.29393 0.71373 0.56125 0.0
C2881 C 0.31324 0.70398 0.56799 0.0
C2882 C 0.27226 0.70243 0.56433 0.0
C2883 C 0.27017 0.68125 0.57481 0.0
C2884 C 0.28959 0.67089 0.58056 0.0
C2885 C 0.31096 0.68263 0.5775 0.0
C2886 C 0.25175 0.71351 0.55732 0.0
C2887 C 0.28794 0.64798 0.59108 0.0
C2888 C 0.22501 0.66623 0.61592 0.0
C2889 C 0.21031 0.64756 0.6001 0.0
C2890 C 0.24404 0.6781 0.60741 0.0
C2891 C 0.24832 0.67116 0.58245 0.0
C2892 C 0.23285 0.6531 0.56601 0.0
C2893 C 0.2141 0.64138 0.57512 0.0
C2894 C 0.26011 0.69736 0.6255 0.0
C2895 C 0.23644 0.64505 0.53925 0.0
H2896 H 0.29586 0.7304 0.55412 0.0
H2897 H 0.32604 0.67553 0.58346 0.0
H2898 H 0.23828 0.70029 0.54493 0.0
H2899 H 0.24464 0.7195 0.57466 0.0
H2900 H 0.25597 0.72885 0.54741 0.0
H2901 H 0.30448 0.64159 0.59308 0.0
H2902 H 0.28221 0.65034 0.60994 0.0
H2903 H 0.27513 0.6342 0.57852 0.0
H2904 H 0.22208 0.67099 0.63526 0.0
H2905 H 0.20248 0.62719 0.56271 0.0
H2906 H 0.26328 0.71354 0.6167 0.0
H2907 H 0.27674 0.69162 0.62985 0.0
H2908 H 0.25342 0.70184 0.64356 0.0
H2909 H 0.24709 0.65886 0.53144 0.0
H2910 H 0.21988 0.63956 0.52665 0.0
H2911 H 0.24492 0.6294 0.53907 0.0
C2912 C 0.68068 0.94974 0.87335 0.0
C2913 C 0.67995 0.96208 0.85275 0.0
C2914 C 0.69235 0.93056 0.87378 0.0
C2915 C 0.704 0.92389 0.85331 0.0
C2916 C 0.70189 0.93532 0.83168 0.0
C2917 C 0.68975 0.95419 0.8316 0.0
C2918 C 0.69333 0.91844 0.89681 0.0
C2919 C 0.71414 0.92905 0.8095 0.0
C2920 C 0.75929 0.8998 0.86511 0.0
C2921 C 0.7528 0.87627 0.8534 0.0
C2922 C 0.74339 0.91526 0.86596 0.0
C2923 C 0.72028 0.90688 0.85539 0.0
C2924 C 0.71338 0.88274 0.84507 0.0
C2925 C 0.72975 0.86783 0.84389 0.0
C2926 C 0.7516 0.9409 0.87701 0.0
C2927 C 0.68887 0.87286 0.83439 0.0
H2928 H 0.67333 0.95608 0.88984 0.0
H2929 H 0.6897 0.96414 0.81596 0.0
H2930 H 0.71127 0.91984 0.90549 0.0
H2931 H 0.68374 0.92606 0.91133 0.0
H2932 H 0.68607 0.89947 0.89113 0.0
H2933 H 0.70935 0.93823 0.79339 0.0
H2934 H 0.7328 0.934 0.81551 0.0
H2935 H 0.71037 0.90976 0.80287 0.0
H2936 H 0.77705 0.90649 0.87241 0.0
H2937 H 0.72456 0.84961 0.83509 0.0
H2938 H 0.74142 0.94639 0.89192 0.0
H2939 H 0.7492 0.95203 0.86203 0.0
H2940 H 0.76986 0.94447 0.88532 0.0
H2941 H 0.67723 0.87951 0.84706 0.0
H2942 H 0.68547 0.85331 0.83154 0.0
H2943 H 0.68475 0.87866 0.81585 0.0
C2944 C 0.79972 0.06542 0.67424 0.0
C2945 C 0.80381 0.04277 0.66585 0.0
C2946 C 0.7783 0.07148 0.6682 0.0
C2947 C 0.76073 0.05453 0.65316 0.0
C2948 C 0.76414 0.03102 0.64672 0.0
C2949 C 0.78573 0.02534 0.65331 0.0
C2950 C 0.77519 0.09663 0.6759 0.0
C2951 C 0.74575 1.01243 0.63082 0.0
C2952 C 0.70267 0.07227 0.64162 0.0
C2953 C 0.70386 0.08139 0.61887 0.0
C2954 C 0.72079 0.06281 0.65279 0.0
C2955 C 0.74048 0.06247 0.64086 0.0
C2956 C 0.74154 0.07114 0.6176 0.0
C2957 C 0.72323 0.08055 0.60693 0.0
C2958 C 0.71906 0.05367 0.67754 0.0
C2959 C 0.76227 0.071 0.60426 0.0
H2960 H 0.81365 0.07882 0.68428 0.0
H2961 H 0.78887 1.00781 0.64682 0.0
H2962 H 0.77492 0.10581 0.65912 0.0
H2963 H 0.75874 0.09714 0.68316 0.0
H2964 H 0.78916 0.10653 0.69064 0.0
H2965 H 0.74951 0.99438 0.63149 0.0
H2966 H 0.72897 1.01343 0.63713 0.0
H2967 H 0.74438 1.0155 0.61085 0.0
H2968 H 0.68751 0.07246 0.65066 0.0
H2969 H 0.72428 0.08772 0.58947 0.0
H2970 H 0.73165 0.06507 0.69271 0.0
H2971 H 0.7232 0.03562 0.67623 0.0
H2972 H 0.70183 0.05327 0.68319 0.0
H2973 H 0.77722 0.08253 0.61626 0.0
H2974 H 0.75988 0.07726 0.58569 0.0
H2975 H 0.76631 0.05293 0.60113 0.0
C2976 C 0.4059 0.50467 0.82897 0.0
C2977 C 0.3936 0.52108 0.81909 0.0
C2978 C 0.39547 0.48125 0.83106 0.0
C2979 C 0.37155 0.4733 0.82381 0.0
C2980 C 0.35917 0.48958 0.81303 0.0
C2981 C 0.37028 0.51263 0.81031 0.0
C2982 C 0.41042 0.46494 0.84099 0.0
C2983 C 0.33396 0.48268 0.80423 0.0
C2984 C 0.34163 0.40647 0.81028 0.0
C2985 C 0.33839 0.40097 0.83444 0.0
C2986 C 0.35234 0.42934 0.80654 0.0
C2987 C 0.35975 0.44824 0.82736 0.0
C2988 C 0.35633 0.44248 0.85182 0.0
C2989 C 0.34612 0.41937 0.85491 0.0
C2990 C 0.35651 0.43228 0.78002 0.0
C2991 C 0.36357 0.46022 0.87558 0.0
H2992 H 0.42402 0.51015 0.83513 0.0
H2993 H 0.36055 0.52413 0.80115 0.0
H2994 H 0.4091 0.46456 0.86128 0.0
H2995 H 0.40499 0.44668 0.83066 0.0
H2996 H 0.42859 0.47091 0.83934 0.0
H2997 H 0.32618 0.4978 0.79899 0.0
H2998 H 0.33083 0.46883 0.78735 0.0
H2999 H 0.3253 0.47531 0.81924 0.0
H3000 H 0.33677 0.39248 0.79418 0.0
H3001 H 0.34451 0.41558 0.87385 0.0
H3002 H 0.3643 0.41742 0.77175 0.0
H3003 H 0.36776 0.44903 0.77895 0.0
H3004 H 0.33995 0.4314 0.76802 0.0
H3005 H 0.37423 0.45277 0.88969 0.0
H3006 H 0.34824 0.46373 0.88406 0.0
H3007 H 0.37327 0.47703 0.87243 0.0
C3008 C 0.18626 0.60569 0.3573 0.0
C3009 C 0.19227 0.58363 0.35048 0.0
C3010 C 0.19977 0.62635 0.35299 0.0
C3011 C 0.21944 0.62472 0.34119 0.0
C3012 C 0.22605 0.60251 0.33532 0.0
C3013 C 0.21216 0.58219 0.33966 0.0
C3014 C 0.19256 0.64981 0.36011 0.0
C3015 C 0.24723 0.6001 0.3234 0.0
C3016 C 0.23728 0.66982 0.29941 0.0
C3017 C 0.25606 0.68431 0.3148 0.0
C3018 C 0.22507 0.6506 0.308 0.0
C3019 C 0.23178 0.64575 0.3326 0.0
C3020 C 0.25054 0.66051 0.34835 0.0
C3021 C 0.26254 0.67952 0.3392 0.0
C3022 C 0.20512 0.63531 0.2906 0.0
C3023 C 0.25861 0.65605 0.37457 0.0
H3024 H 0.1707 0.60669 0.3654 0.0
H3025 H 0.21639 0.56503 0.33362 0.0
H3026 H 0.20698 0.66244 0.37176 0.0
H3027 H 0.18776 0.6573 0.34275 0.0
H3028 H 0.17787 0.6483 0.37086 0.0
H3029 H 0.25073 0.58177 0.32145 0.0
H3030 H 0.24537 0.60545 0.30436 0.0
H3031 H 0.26216 0.61201 0.335 0.0
H3032 H 0.23231 0.67333 0.28047 0.0
H3033 H 0.27688 0.69083 0.35132 0.0
H3034 H 0.18956 0.63459 0.29988 0.0
H3035 H 0.20847 0.61701 0.28663 0.0
H3036 H 0.20172 0.64186 0.27232 0.0
H3037 H 0.26703 0.67268 0.38704 0.0
H3038 H 0.27138 0.64421 0.37317 0.0
H3039 H 0.24452 0.64755 0.38357 0.0
C3040 C 0.56259 0.77111 0.4467 0.0
C3041 C 0.57607 0.79362 0.4521 0.0
C3042 C 0.56631 0.75369 0.46194 0.0
C3043 C 0.58426 0.75876 0.48264 0.0
C3044 C 0.5985 0.78115 0.48733 0.0
C3045 C 0.59406 0.79831 0.47226 0.0
C3046 C 0.55049 0.73021 0.45654 0.0
C3047 C 0.61815 0.78726 0.50871 0.0
C3048 C 0.58241 0.72757 0.54049 0.0
C3049 C 0.59681 0.71096 0.5362 0.0
C3050 C 0.57749 0.74247 0.52277 0.0
C3051 C 0.58763 0.74133 0.50032 0.0
C3052 C 0.6022 0.7247 0.4958 0.0
C3053 C 0.60642 0.70962 0.51359 0.0
C3054 C 0.56168 0.75974 0.52834 0.0
C3055 C 0.61369 0.72313 0.47236 0.0
H3056 H 0.54859 0.76744 0.43126 0.0
H3057 H 0.6047 0.81561 0.47641 0.0
H3058 H 0.56038 0.71561 0.45466 0.0
H3059 H 0.54083 0.7281 0.47263 0.0
H3060 H 0.53818 0.72848 0.439 0.0
H3061 H 0.62865 0.80475 0.50864 0.0
H3062 H 0.61159 0.78747 0.52711 0.0
H3063 H 0.62925 0.77368 0.50743 0.0
H3064 H 0.57512 0.72927 0.55793 0.0
H3065 H 0.61716 0.69662 0.50959 0.0
H3066 H 0.5481 0.75809 0.512 0.0
H3067 H 0.5713 0.77803 0.53131 0.0
H3068 H 0.55358 0.75702 0.54544 0.0
H3069 H 0.60078 0.71996 0.45518 0.0
H3070 H 0.62403 0.70883 0.4712 0.0
H3071 H 0.62497 0.74012 0.47219 0.0
C3072 C 0.63301 0.33454 0.8035 0.0
C3073 C 0.62184 0.31819 0.78236 0.0
C3074 C 0.65687 0.33713 0.81115 0.0
C3075 C 0.67002 0.32252 0.79797 0.0
C3076 C 0.65861 0.3056 0.77704 0.0
C3077 C 0.63498 0.30393 0.76934 0.0
C3078 C 0.66813 0.35591 0.83304 0.0
C3079 C 0.6714 0.28913 0.76264 0.0
C3080 C 0.7343 0.33952 0.7965 0.0
C3081 C 0.74406 0.32682 0.81408 0.0
C3082 C 0.71059 0.3394 0.79228 0.0
C3083 C 0.69571 0.32539 0.80514 0.0
C3084 C 0.70554 0.31282 0.82333 0.0
C3085 C 0.72953 0.31394 0.82782 0.0
C3086 C 0.70142 0.35372 0.7733 0.0
C3087 C 0.69063 0.29707 0.83703 0.0
H3088 H 0.62319 0.34572 0.81373 0.0
H3089 H 0.62665 0.29104 0.75317 0.0
H3090 H 0.67708 0.34786 0.84796 0.0
H3091 H 0.68115 0.36856 0.82654 0.0
H3092 H 0.65573 0.36579 0.84147 0.0
H3093 H 0.65992 0.2758 0.74807 0.0
H3094 H 0.68406 0.29937 0.75314 0.0
H3095 H 0.68091 0.27981 0.77589 0.0
H3096 H 0.74532 0.34935 0.78559 0.0
H3097 H 0.73677 0.30362 0.841 0.0
H3098 H 0.68937 0.36427 0.78143 0.0
H3099 H 0.69187 0.34174 0.75632 0.0
H3100 H 0.71519 0.36583 0.76721 0.0
H3101 H 0.67849 0.30688 0.84602 0.0
H3102 H 0.7007 0.28977 0.8518 0.0
H3103 H 0.6804 0.28218 0.82323 0.0
C3104 C 0.06523 0.44155 0.93668 0.0
C3105 C 0.07399 0.42164 0.94277 0.0
C3106 C 0.06516 0.46096 0.95542 0.0
C3107 C 0.07467 0.46081 0.98078 0.0
C3108 C 0.0846 0.4413 0.98675 0.0
C3109 C 0.08391 0.42191 0.96781 0.0
C3110 C 0.05409 0.48121 0.94825 0.0
C3111 C 0.09548 0.44063 1.01334 0.0
C3112 C 0.08875 0.51943 0.02582 0.0
C3113 C 0.07041 0.51798 0.03974 0.0
C3114 C 0.09058 0.50086 1.0069 0.0
C3115 C 0.07335 0.48053 1.00126 0.0
C3116 C 0.0548 0.47899 1.0153 0.0
C3117 C 0.0537 0.49757 0.03455 0.0
C3118 C 0.11095 0.50301 0.99293 0.0
C3119 C 0.03584 0.45787 1.00967 0.0
H3120 H 0.05758 0.44162 0.91745 0.0
H3121 H 0.09094 0.40676 0.97274 0.0
H3122 H 0.03936 0.48267 0.95861 0.0
H3123 H 0.06625 0.49806 0.95383 0.0
H3124 H 0.04803 0.47899 0.92763 0.0
H3125 H 0.10414 0.42515 1.01446 0.0
H3126 H 0.1081 0.45693 0.02049 0.0
H3127 H 0.08231 0.43988 0.02612 0.0
H3128 H 0.10178 0.53512 0.02978 0.0
H3129 H 0.03936 0.49642 0.04503 0.0
H3130 H 0.10532 0.50275 0.97252 0.0
H3131 H 0.11976 0.48772 0.99454 0.0
H3132 H 0.12334 0.51948 1.00027 0.0
H3133 H 1.02795 0.4556 0.9896 0.0
H3134 H 1.02238 0.45956 0.02192 0.0
H3135 H 0.04278 0.44163 1.01242 0.0
C3136 C 0.96878 0.78689 0.27856 0.0
C3137 C 0.98651 0.80632 0.28124 0.0
C3138 C 0.94819 0.78863 0.28831 0.0
C3139 C 0.94481 0.81049 0.30118 0.0
C3140 C 0.9631 0.82997 0.30509 0.0
C3141 C 0.98365 0.82767 0.29512 0.0
C3142 C 0.92958 0.76723 0.28366 0.0
C3143 C 0.96052 0.85363 0.31868 0.0
C3144 C 0.88276 0.8208 0.2979 0.0
C3145 C 0.87696 0.81626 0.32152 0.0
C3146 C 0.90467 0.81936 0.29134 0.0
C3147 C 0.92163 0.81318 0.3087 0.0
C3148 C 0.91591 0.80857 0.33262 0.0
C3149 C 0.8938 0.81017 0.33871 0.0
C3150 C 0.90964 0.82438 0.26561 0.0
C3151 C 0.93319 0.80187 0.3518 0.0
H3152 H 0.97072 0.77028 0.26806 0.0
H3153 H 0.99696 0.84295 0.29696 0.0
H3154 H 0.92329 0.76401 0.30162 0.0
H3155 H 0.91496 0.77039 0.27067 0.0
H3156 H 0.93539 0.7511 0.27516 0.0
H3157 H 0.97684 0.86632 0.32255 0.0
H3158 H 0.94784 0.86115 0.30697 0.0
H3159 H 0.95405 0.85166 0.33685 0.0
H3160 H 0.87012 0.82564 0.28439 0.0
H3161 H 0.88975 0.80674 0.35708 0.0
H3162 H 0.91407 0.80851 0.25476 0.0
H3163 H 0.92454 0.83876 0.26769 0.0
H3164 H 0.89495 0.82956 0.25446 0.0
H3165 H 0.9385 0.78525 0.34393 0.0
H3166 H 0.92645 0.79939 0.36976 0.0
H3167 H 0.94865 0.81571 0.35604 0.0
C3168 C 0.49685 0.34656 0.1247 0.0
C3169 C 0.50372 0.33654 0.146 0.0
C3170 C 0.50999 0.3667 0.11895 0.0
C3171 C 0.53056 0.37709 0.13485 0.0
C3172 C 0.53714 0.36773 0.15697 0.0
C3173 C 0.5236 0.34757 0.16234 0.0
C3174 C 0.50225 0.37634 0.09531 0.0
C3175 C 0.55894 0.37843 0.17439 0.0
C3176 C 0.57308 0.4115 0.10109 0.0
C3177 C 0.56906 0.43453 0.10749 0.0
C3178 C 0.5615 0.39273 0.11098 0.0
C3179 C 0.54547 0.39714 0.12752 0.0
C3180 C 0.54218 0.4205 0.135 0.0
C3181 C 0.554 0.43892 0.12487 0.0
C3182 C 0.56557 0.36803 0.10272 0.0
C3183 C 0.52518 0.4259 0.15251 0.0
H3184 H 0.48144 0.33829 0.11206 0.0
H3185 H 0.52911 0.33992 0.1788 0.0
H3186 H 0.50146 0.39536 0.1 0.0
H3187 H 0.51472 0.37472 0.08183 0.0
H3188 H 0.48525 0.36694 0.08569 0.0
H3189 H 0.56075 0.37019 0.1918 0.0
H3190 H 0.57372 0.37618 0.16434 0.0
H3191 H 0.55964 0.39765 0.17992 0.0
H3192 H 0.58486 0.40809 0.08786 0.0
H3193 H 0.55054 0.45663 0.1296 0.0
H3194 H 0.55005 0.35751 0.09078 0.0
H3195 H 0.56905 0.35918 0.11941 0.0
H3196 H 0.58006 0.36784 0.09171 0.0
H3197 H 0.50767 0.41888 0.14264 0.0
H3198 H 0.52656 0.44514 0.15878 0.0
H3199 H 0.5276 0.41714 0.16945 0.0
C3200 C 0.07623 0.39964 0.432 0.0
C3201 C 0.07787 0.41069 0.45704 0.0
C3202 C 0.05709 0.39955 0.4144 0.0
C3203 C 0.03893 0.41012 0.42236 0.0
C3204 C 0.04117 0.42258 0.44726 0.0
C3205 C 0.06058 0.42248 0.46445 0.0
C3206 C 0.05554 0.38653 0.38789 0.0
C3207 C 1.02234 0.43447 0.45629 0.0
C3208 C 0.98737 0.41434 0.37601 0.0
C3209 C 0.97197 0.39454 0.37921 0.0
C3210 C 1.00949 0.41955 0.38954 0.0
C3211 C 1.01629 0.4045 0.40648 0.0
C3212 C 1.00106 0.3841 0.40913 0.0
C3213 C 0.97911 0.3794 0.3955 0.0
C3214 C 1.02545 0.44117 0.38582 0.0
C3215 C 1.00765 0.3676 0.42708 0.0
H3216 H 0.08936 0.38995 0.42652 0.0
H3217 H 0.0619 0.43086 0.48393 0.0
H3218 H 0.0428 0.37008 0.3853 0.0
H3219 H 0.04976 0.39742 0.37383 0.0
H3220 H 0.07213 0.38181 0.38388 0.0
H3221 H 1.02798 0.44607 0.47483 0.0
H3222 H 1.01607 0.44518 0.44226 0.0
H3223 H 1.00781 0.42086 0.45831 0.0
H3224 H 0.98198 0.42595 0.36321 0.0
H3225 H 0.9672 0.36434 0.39847 0.0
H3226 H 1.01641 0.45311 0.3755 0.0
H3227 H 0.03862 0.43562 0.37471 0.0
H3228 H 0.03435 0.45118 0.40425 0.0
H3229 H 1.02332 0.3611 0.42249 0.0
H3230 H 0.99402 0.35214 0.42634 0.0
H3231 H 1.01141 0.37721 0.44676 0.0
C3232 C 0.99185 0.73006 0.61614 0.0
C3233 C 0.99054 0.73306 0.64219 0.0
C3234 C 1.00118 0.71135 0.60471 0.0
C3235 C 1.0088 0.6951 0.61961 0.0
C3236 C 1.00454 0.69623 0.64498 0.0
C3237 C 0.9955 0.71531 0.65606 0.0
C3238 C 1.00534 0.7107 0.57757 0.0
C3239 C 1.01173 0.67869 0.66118 0.0
C3240 C 0.03293 0.64227 0.59185 0.0
C3241 C 0.05614 0.64973 0.60077 0.0
C3242 C 1.01707 0.65698 0.59714 0.0
C3243 C 1.02493 0.68003 0.61057 0.0
C3244 C 0.04863 0.68836 0.61735 0.0
C3245 C 0.06392 0.67291 0.61282 0.0
C3246 C 0.99203 0.64703 0.59019 0.0
C3247 C 0.05783 0.71319 0.63071 0.0
H3248 H 0.98776 0.74356 0.60517 0.0
H3249 H 0.99419 0.71731 0.6761 0.0
H3250 H 1.02365 0.7172 0.5772 0.0
H3251 H 1.00119 0.69241 0.56718 0.0
H3252 H 0.99518 0.72194 0.56747 0.0
H3253 H 1.004 0.67969 0.67891 0.0
H3254 H 1.0069 0.66054 0.65051 0.0
H3255 H 0.03052 0.68228 0.66635 0.0
H3256 H 1.027 0.62441 0.58231 0.0
H3257 H 0.08195 0.67874 0.61945 0.0
H3258 H 0.98192 0.66072 0.58558 0.0
H3259 H 0.98574 0.63972 0.60656 0.0
H3260 H 0.9889 0.63251 0.57385 0.0
H3261 H 0.04988 0.7261 0.62084 0.0
H3262 H 0.07662 0.71772 0.63174 0.0
H3263 H 0.0536 0.71511 0.65028 0.0
C3264 C 0.69254 0.87745 0.94888 0.0
C3265 C 0.676 0.86983 0.96369 0.0
C3266 C 0.69893 0.86138 0.93024 0.0
C3267 C 0.68753 0.83767 0.92539 0.0
C3268 C 0.67258 0.82948 0.94183 0.0
C3269 C 0.66736 0.84556 0.96114 0.0
C3270 C 0.7171 0.86981 0.9149 0.0
C3271 C 0.66084 0.80408 0.9379 0.0
C3272 C 0.67878 0.80996 0.85626 0.0
C3273 C 0.69583 0.79599 0.85568 0.0
C3274 C 0.67554 0.82303 0.87903 0.0
C3275 C 0.68961 0.82211 0.90182 0.0
C3276 C 0.70573 0.80681 0.90171 0.0
C3277 C 0.70841 0.79378 0.87872 0.0
C3278 C 0.6576 0.83855 0.87856 0.0
C3279 C 0.72083 0.80442 0.92542 0.0
H3280 H 0.69954 0.89606 0.95093 0.0
H3281 H 0.65468 0.83934 0.97253 0.0
H3282 H 0.72981 0.85782 0.91451 0.0
H3283 H 0.70936 0.8693 0.89506 0.0
H3284 H 0.72609 0.88799 0.92265 0.0
H3285 H 0.65041 0.80026 0.95303 0.0
H3286 H 0.64959 0.79987 0.9194 0.0
H3287 H 0.67365 0.79222 0.93737 0.0
H3288 H 0.66843 0.8113 0.83879 0.0
H3289 H 0.72133 0.7828 0.87874 0.0
H3290 H 0.66589 0.85723 0.88445 0.0
H3291 H 0.64583 0.8342 0.8923 0.0
H3292 H 0.64752 0.83675 0.85951 0.0
H3293 H 0.71897 0.8166 0.94242 0.0
H3294 H 0.73893 0.80762 0.92243 0.0
H3295 H 0.71685 0.78608 0.92936 0.0
C3296 C 0.45183 0.57698 0.72577 0.0
C3297 C 0.46075 0.58716 0.75099 0.0
C3298 C 0.46572 0.57624 0.70587 0.0
C3299 C 0.48948 0.58592 0.71067 0.0
C3300 C 0.49841 0.59648 0.73602 0.0
C3301 C 0.48422 0.59691 0.75548 0.0
C3302 C 0.45493 0.56466 0.67957 0.0
C3303 C 0.52329 0.60717 0.74282 0.0
C3304 C 0.53158 0.5635 0.6667 0.0
C3305 C 0.53567 0.58116 0.65131 0.0
C3306 C 0.51675 0.56475 0.68548 0.0
C3307 C 0.50517 0.58424 0.68976 0.0
C3308 C 0.50927 0.60223 0.67437 0.0
C3309 C 0.52421 0.60049 0.65557 0.0
C3310 C 0.5134 0.54489 0.70077 0.0
C3311 C 0.49769 0.62345 0.67766 0.0
H3312 H 0.43394 0.56922 0.72156 0.0
H3313 H 0.49177 0.60486 0.77458 0.0
H3314 H 0.45796 0.57714 0.66596 0.0
H3315 H 0.46293 0.54922 0.67362 0.0
H3316 H 0.4363 0.55867 0.67834 0.0
H3317 H 0.5277 0.61556 0.76295 0.0
H3318 H 0.53385 0.59333 0.73926 0.0
H3319 H 0.52788 0.62064 0.73067 0.0
H3320 H 0.53989 0.54827 0.66387 0.0
H3321 H 0.52669 0.61426 0.64394 0.0
H3322 H 0.49506 0.53717 0.69861 0.0
H3323 H 0.51902 0.55177 0.72114 0.0
H3324 H 0.523 0.53065 0.695 0.0
H3325 H 0.47894 0.61773 0.67465 0.0
H3326 H 0.50218 0.63585 0.66431 0.0
H3327 H 0.50254 0.633 0.69729 0.0
C3328 C 0.84029 0.22922 0.98022 0.0
C3329 C 0.85537 0.24133 1.00166 0.0
C3330 C 0.83336 0.24058 0.95999 0.0
C3331 C 0.84245 0.26457 0.96031 0.0
C3332 C 0.85827 0.27685 0.98141 0.0
C3333 C 0.86422 0.26523 1.00205 0.0
C3334 C 0.81599 0.22683 0.93835 0.0
C3335 C 0.86906 0.30219 0.98207 0.0
C3336 C 0.83834 0.28259 0.89466 0.0
C3337 C 0.82017 0.29511 0.89455 0.0
C3338 C 0.84647 0.27364 0.91633 0.0
C3339 C 0.83555 0.27635 0.93818 0.0
C3340 C 0.81693 0.28874 0.93802 0.0
C3341 C 0.80984 0.29849 0.91641 0.0
C3342 C 0.86687 0.26139 0.91585 0.0
C3343 C 0.80417 0.29124 0.96043 0.0
H3344 H 0.83336 0.21075 0.97932 0.0
H3345 H 0.87594 0.27478 0.01834 0.0
H3346 H 0.80146 0.23631 0.93518 0.0
H3347 H 0.82372 0.22525 0.92065 0.0
H3348 H 0.80931 0.20881 0.94183 0.0
H3349 H 0.88181 0.30896 0.9992 0.0
H3350 H 0.87754 0.30391 0.96504 0.0
H3351 H 0.85578 0.31349 0.98164 0.0
H3352 H 0.84677 0.28051 0.87799 0.0
H3353 H 0.79597 0.30841 0.91644 0.0
H3354 H 0.86163 0.24237 0.9166 0.0
H3355 H 0.87974 0.26881 0.9327 0.0
H3356 H 0.87498 0.2631 0.89856 0.0
H3357 H 0.79699 0.27351 0.96428 0.0
H3358 H 0.79006 0.30131 0.95733 0.0
H3359 H 0.81595 0.3003 0.97758 0.0
C3360 C 0.10653 0.52047 0.2622 0.0
C3361 C 0.12957 0.51892 0.26852 0.0
C3362 C 0.09828 0.52641 0.23867 0.0
C3363 C 0.11332 0.53071 0.22077 0.0
C3364 C 0.13627 0.52772 0.22645 0.0
C3365 C 0.14412 0.52202 0.25021 0.0
C3366 C 0.07375 0.52953 0.23364 0.0
C3367 C 0.15292 0.53178 0.20794 0.0
C3368 C 0.08938 0.53613 0.15276 0.0
C3369 C 0.09271 0.56068 0.15362 0.0
C3370 C 0.09596 0.52603 0.17437 0.0
C3371 C 0.10578 0.54081 0.19749 0.0
C3372 C 0.10876 0.56561 0.19843 0.0
C3373 C 0.10236 0.57517 0.17655 0.0
C3374 C 0.09272 0.49955 0.17238 0.0
C3375 C 0.11885 0.58217 0.22258 0.0
H3376 H 0.09513 0.51826 0.27617 0.0
H3377 H 0.16194 0.52086 0.25479 0.0
H3378 H 0.073 0.54849 0.23364 0.0
H3379 H 0.06566 0.51995 0.21473 0.0
H3380 H 0.06366 0.52317 0.24812 0.0
H3381 H 0.16928 0.52598 0.21373 0.0
H3382 H 0.14552 0.52224 0.18878 0.0
H3383 H 0.15654 0.55084 0.20655 0.0
H3384 H 0.082 0.52481 0.13511 0.0
H3385 H 0.10487 0.59416 0.17746 0.0
H3386 H 0.08208 0.4936 0.18654 0.0
H3387 H 0.10946 0.49402 0.17668 0.0
H3388 H 0.08455 0.49046 0.15326 0.0
H3389 H 0.10879 0.5783 0.23796 0.0
H3390 H 0.11933 0.60099 0.22043 0.0
H3391 H 0.13646 0.57951 0.22861 0.0
C3392 C 0.84298 0.02492 0.56957 0.0
C3393 C 0.85941 1.0187 0.5869 0.0
C3394 C 0.83794 1.01271 0.5446 0.0
C3395 C 0.84966 0.99408 0.53724 0.0
C3396 C 0.86781 0.98954 0.55415 0.0
C3397 C 0.87229 1.00178 0.57881 0.0
C3398 C 0.81885 1.01844 0.52695 0.0
C3399 C 0.88104 0.97009 0.54713 0.0
C3400 C 0.8223 0.93609 0.49782 0.0
C3401 C 0.83414 0.93612 0.47696 0.0
C3402 C 0.82547 0.95596 0.51651 0.0
C3403 C 0.84081 0.97643 0.51422 0.0
C3404 C 0.85097 0.9774 0.49193 0.0
C3405 C 0.84761 0.95713 0.47354 0.0
C3406 C 0.81404 0.9542 0.53984 0.0
C3407 C 0.86689 0.99912 0.48844 0.0
H3408 H 0.833 0.038 0.57596 0.0
H3409 H 0.885 0.997 0.59232 0.0
H3410 H 0.82243 1.01629 0.50712 0.0
H3411 H 0.80291 1.00617 0.52763 0.0
H3412 H 0.81593 0.03673 0.53251 0.0
H3413 H 0.89615 0.97065 0.56142 0.0
H3414 H 0.86985 0.95271 0.54552 0.0
H3415 H 0.88688 0.97135 0.52853 0.0
H3416 H 0.8113 0.9201 0.5001 0.0
H3417 H 0.85664 0.95735 0.4573 0.0
H3418 H 0.80628 0.97002 0.54475 0.0
H3419 H 0.82694 0.95332 0.5561 0.0
H3420 H 0.80059 0.93829 0.53732 0.0
H3421 H 0.86086 1.0154 0.49602 0.0
H3422 H 0.86866 0.99935 0.46818 0.0
H3423 H 0.88399 0.99936 0.49896 0.0
C3424 C 0.47283 0.59459 0.89484 0.0
C3425 C 0.44903 0.58876 0.89367 0.0
C3426 C 0.48796 0.59316 0.91674 0.0
C3427 C 0.47939 0.58509 0.93811 0.0
C3428 C 0.45543 0.57921 0.93704 0.0
C3429 C 0.44071 0.58142 0.91524 0.0
C3430 C 0.51323 0.60031 0.917 0.0
C3431 C 0.44522 0.5701 0.95886 0.0
C3432 C 0.51862 0.55992 0.98607 0.0
C3433 C 0.52379 0.57817 1.00694 0.0
C3434 C 0.50433 0.56189 0.96374 0.0
C3435 C 0.4953 0.58291 0.96161 0.0
C3436 C 0.50094 0.60158 0.98243 0.0
C3437 C 0.51468 0.59886 1.00475 0.0
C3438 C 0.49851 0.54122 0.94256 0.0
C3439 C 0.49243 0.62457 0.98118 0.0
H3440 H 0.47971 0.60032 0.87856 0.0
H3441 H 0.4225 0.57684 0.91498 0.0
H3442 H 0.52042 0.61407 0.93356 0.0
H3443 H 0.52185 0.58495 0.91897 0.0
H3444 H 0.51727 0.6072 0.89951 0.0
H3445 H 0.42636 0.56544 0.95488 0.0
H3446 H 0.45219 0.55423 0.96314 0.0
H3447 H 0.44991 0.58361 0.97608 0.0
H3448 H 0.52535 0.54379 0.98737 0.0
H3449 H 0.51848 0.6132 0.0205 0.0
H3450 H 0.50398 0.54658 0.92493 0.0
H3451 H 0.47978 0.5353 0.93874 0.0
H3452 H 0.50669 0.52608 0.94699 0.0
H3453 H 0.49682 0.6317 0.96396 0.0
H3454 H 0.4997 0.63804 0.99801 0.0
H3455 H 0.47361 0.62156 0.97986 0.0
C3456 C 0.86527 0.25186 0.16669 0.0
C3457 C 0.87581 0.26401 0.14914 0.0
C3458 C 0.85915 0.26389 0.1887 0.0
C3459 C 0.86397 0.28888 0.19386 0.0
C3460 C 0.8757 0.30124 0.17693 0.0
C3461 C 0.88126 0.28874 0.15473 0.0
C3462 C 0.84648 0.24979 0.20582 0.0
C3463 C 0.88174 0.32779 0.18185 0.0
C3464 C 0.82465 0.31843 0.23421 0.0
C3465 C 0.83684 0.32187 0.25874 0.0
C3466 C 0.83352 0.30836 0.213 0.0
C3467 C 0.85541 0.30186 0.21605 0.0
C3468 C 0.86825 0.30635 0.24062 0.0
C3469 C 0.85878 0.31605 0.26161 0.0
C3470 C 0.81895 0.30367 0.18741 0.0
C3471 C 0.89177 0.30021 0.24492 0.0
H3472 H 0.86077 0.2328 0.16268 0.0
H3473 H 0.88931 0.29841 0.14139 0.0
H3474 H 0.85536 0.25431 0.22555 0.0
H3475 H 0.82919 0.2543 0.2059 0.0
H3476 H 0.84476 0.23047 0.1998 0.0
H3477 H 0.89297 0.33465 0.16858 0.0
H3478 H 0.86598 0.33551 0.17978 0.0
H3479 H 0.89041 0.33391 0.20153 0.0
H3480 H 0.80767 0.32271 0.23167 0.0
H3481 H 0.86838 0.31859 0.28041 0.0
H3482 H 0.81487 0.2844 0.18063 0.0
H3483 H 0.82836 0.31183 0.17341 0.0
H3484 H 0.80274 0.3106 0.18789 0.0
H3485 H 0.89055 0.28077 0.2419 0.0
H3486 H 0.90061 0.3073 0.26438 0.0
H3487 H 0.90229 0.30721 0.23113 0.0
C3488 C 0.11814 0.54834 0.41391 0.0
C3489 C 0.13451 0.53362 0.41556 0.0
C3490 C 0.10788 0.55575 0.43515 0.0
C3491 C 0.11339 0.54745 0.45837 0.0
C3492 C 0.12916 0.53163 0.4596 0.0
C3493 C 0.13967 0.5252 0.43837 0.0
C3494 C 0.09198 0.57334 0.43299 0.0
C3495 C 0.13614 0.52244 0.48368 0.0
C3496 C 0.10936 0.5795 0.52412 0.0
C3497 C 0.08698 0.5709 0.52743 0.0
C3498 C 0.11772 0.57298 0.50136 0.0
C3499 C 0.1038 0.55626 0.48172 0.0
C3500 C 0.08103 0.5476 0.48505 0.0
C3501 C 0.07287 0.55534 0.50763 0.0
C3502 C 0.14154 0.58442 0.49888 0.0
C3503 C 0.06483 0.53001 0.46531 0.0
H3504 H 0.11444 0.55529 0.39648 0.0
H3505 H 0.15248 0.51399 0.43984 0.0
H3506 H 0.07422 0.56436 0.43258 0.0
H3507 H 0.09604 0.58761 0.44958 0.0
H3508 H 0.09285 0.5814 0.4155 0.0
H3509 H 0.1431 0.50589 0.47985 0.0
H3510 H 0.1498 0.53565 0.49568 0.0
H3511 H 0.12166 0.51925 0.49446 0.0
H3512 H 0.12034 0.59175 0.53925 0.0
H3513 H 0.05555 0.54851 0.51008 0.0
H3514 H 0.14526 0.58233 0.47913 0.0
H3515 H 0.15403 0.57676 0.51069 0.0
H3516 H 0.14425 0.60357 0.50634 0.0
H3517 H 0.05754 0.5148 0.474 0.0
H3518 H 0.07275 0.52337 0.4489 0.0
H3519 H 0.05036 0.53836 0.45837 0.0
C3520 C 0.84505 0.96482 0.73021 0.0
C3521 C 0.84429 0.95944 0.70397 0.0
C3522 C 0.83878 0.9471 0.7446 0.0
C3523 C 0.83196 0.92342 0.73248 0.0
C3524 C 0.83073 0.91797 0.70592 0.0
C3525 C 0.83677 0.93609 0.69195 0.0
C3526 C 0.84025 0.9536 0.77291 0.0
C3527 C 0.82383 0.8929 0.69239 0.0
C3528 C 0.84444 0.87823 0.77405 0.0
C3529 C 0.82329 0.87147 0.7818 0.0
C3530 C 0.8473 0.89461 0.75744 0.0
C3531 C 0.82838 0.90422 0.74794 0.0
C3532 C 0.80662 0.89648 0.75452 0.0
C3533 C 0.8043 0.88012 0.77146 0.0
C3534 C 0.87082 0.90235 0.75097 0.0
C3535 C 0.78608 0.9064 0.74476 0.0
H3536 H 0.85064 0.98287 0.73954 0.0
H3537 H 0.83613 0.93183 0.67164 0.0
H3538 H 0.82401 0.94644 0.7792 0.0
H3539 H 0.85384 0.94563 0.78256 0.0
H3540 H 0.84405 0.97298 0.77915 0.0
H3541 H 0.82183 0.89187 0.67149 0.0
H3542 H 0.83695 0.88239 0.69815 0.0
H3543 H 0.80757 0.88461 0.69777 0.0
H3544 H 0.85911 0.87157 0.78192 0.0
H3545 H 0.78792 0.87499 0.77748 0.0
H3546 H 0.87575 0.9218 0.75548 0.0
H3547 H 0.87085 0.89734 0.73038 0.0
H3548 H 0.88394 0.89436 0.76147 0.0
H3549 H 0.78817 0.92529 0.75304 0.0
H3550 H 0.77005 0.89694 0.74964 0.0
H3551 H 0.78451 0.90544 0.72392 0.0
C3552 C 0.69417 0.46459 0.60549 0.0
C3553 C 0.69723 0.45989 0.57999 0.0
C3554 C 0.67862 0.47915 0.61316 0.0
C3555 C 0.66567 0.48912 0.5949 0.0
C3556 C 0.6679 0.48336 0.56902 0.0
C3557 C 0.68363 0.46901 0.56196 0.0
C3558 C 0.67686 0.4848 0.64093 0.0
C3559 C 0.65424 0.49311 0.54874 0.0
C3560 C 0.61107 0.51258 0.60473 0.0
C3561 C 0.61803 0.53708 0.60662 0.0
C3562 C 0.6266 0.49687 0.60265 0.0
C3563 C 0.64989 0.50573 0.60244 0.0
C3564 C 0.65734 0.53056 0.60629 0.0
C3565 C 0.64133 0.54596 0.60835 0.0
C3566 C 0.61771 0.47069 0.59872 0.0
C3567 C 0.68201 0.54084 0.60648 0.0
H3568 H 0.70492 0.45809 0.61963 0.0
H3569 H 0.68594 0.46561 0.54224 0.0
H3570 H 0.68373 0.50374 0.64773 0.0
H3571 H 0.65879 0.4817 0.64405 0.0
H3572 H 0.68645 0.47412 0.6525 0.0
H3573 H 0.65721 0.48618 0.5294 0.0
H3574 H 0.63579 0.48867 0.54989 0.0
H3575 H 0.65882 0.51263 0.5517 0.0
H3576 H 0.5931 0.50549 0.60352 0.0
H3577 H 0.64688 0.56479 0.60961 0.0
H3578 H 0.62871 0.46169 0.61081 0.0
H3579 H 0.61796 0.46312 0.57874 0.0
H3580 H 0.59998 0.46671 0.60294 0.0
H3581 H 0.6932 0.5323 0.61891 0.0
H3582 H 0.68564 0.56018 0.61301 0.0
H3583 H 0.68646 0.53739 0.58709 0.0
C3584 C 0.22144 0.11653 0.50872 0.0
C3585 C 0.22777 0.13842 0.50115 0.0
C3586 C 0.19942 0.10959 0.51419 0.0
C3587 C 0.18358 0.12518 0.51239 0.0
C3588 C 0.18934 0.14641 0.5026 0.0
C3589 C 0.21159 0.15299 0.49748 0.0
C3590 C 0.194 0.08675 0.5244 0.0
C3591 C 0.17271 0.16318 0.49972 0.0
C3592 C 0.12333 0.10479 0.52521 0.0
C3593 C 0.12486 0.11468 0.55071 0.0
C3594 C 0.1422 0.1083 0.51218 0.0
C3595 C 0.16306 0.12156 0.52521 0.0
C3596 C 0.16464 0.13138 0.55104 0.0
C3597 C 0.14546 0.12796 0.56339 0.0
C3598 C 0.13986 0.09776 0.48463 0.0
C3599 C 0.18668 0.14539 0.56574 0.0
H3600 H 0.2342 0.10556 0.51218 0.0
H3601 H 0.21667 0.17004 0.49185 0.0
H3602 H 0.19429 0.09063 0.54518 0.0
H3603 H 0.17674 0.07721 0.51606 0.0
H3604 H 0.20652 0.07497 0.52055 0.0
H3605 H 0.17814 0.17638 0.48755 0.0
H3606 H 0.15548 0.15342 0.49149 0.0
H3607 H 0.17144 0.17274 0.51862 0.0
H3608 H 0.10735 0.09449 0.51539 0.0
H3609 H 0.14666 0.13551 0.58313 0.0
H3610 H 0.14996 0.08334 0.48256 0.0
H3611 H 0.14671 0.1112 0.47342 0.0
H3612 H 0.12188 0.09046 0.47649 0.0
H3613 H 0.20031 0.13449 0.56533 0.0
H3614 H 0.18512 0.15146 0.5858 0.0
H3615 H 0.19219 0.16107 0.55685 0.0
C3616 C 0.22971 0.99208 0.82717 0.0
C3617 C 0.23338 1.00644 0.85122 0.0
C3618 C 0.2385 0.9704 0.82258 0.0
C3619 C 0.25118 0.96165 0.84242 0.0
C3620 C 0.2544 0.97577 0.86683 0.0
C3621 C 0.24597 0.99763 0.87074 0.0
C3622 C 0.23461 0.95701 0.79605 0.0
C3623 C 0.26697 0.96779 0.88917 0.0
C3624 C 0.25847 0.8945 0.83497 0.0
C3625 C 0.28121 0.8947 0.83029 0.0
C3626 C 0.24871 0.91562 0.83895 0.0
C3627 C 0.26139 0.93833 0.83774 0.0
C3628 C 0.28422 0.93853 0.83259 0.0
C3629 C 0.29374 0.91725 0.82937 0.0
C3630 C 0.22474 0.9136 0.8451 0.0
C3631 C 0.29886 0.96151 0.83046 0.0
H3632 H 0.22045 0.99817 0.81153 0.0
H3633 H 0.2493 1.00795 0.88951 0.0
H3634 H 0.25124 0.95541 0.78956 0.0
H3635 H 0.2254 0.93887 0.79571 0.0
H3636 H 0.22468 0.96572 0.7825 0.0
H3637 H 0.26689 0.97951 0.90722 0.0
H3638 H 0.25916 0.94957 0.89087 0.0
H3639 H 0.28489 0.96745 0.88627 0.0
H3640 H 0.24828 0.87771 0.83621 0.0
H3641 H 0.31124 0.91834 0.82591 0.0
H3642 H 0.21403 0.92105 0.83107 0.0
H3643 H 0.22477 0.92403 0.86393 0.0
H3644 H 0.21682 0.89504 0.84528 0.0
H3645 H 0.28996 0.97049 0.81635 0.0
H3646 H 0.31561 0.95898 0.8248 0.0
H3647 H 0.30184 0.97341 0.84888 0.0
C3648 C 0.31084 0.97573 0.07116 0.0
C3649 C 0.30445 0.95196 0.06058 0.0
C3650 C 0.33234 0.9882 0.06942 0.0
C3651 C 0.34814 0.97622 0.05785 0.0
C3652 C 0.34181 0.95208 0.0473 0.0
C3653 C 0.31994 0.9402 0.04877 0.0
C3654 C 0.33827 1.01407 0.08037 0.0
C3655 C 0.3583 0.93872 0.03502 0.0
C3656 C 0.39844 1.015 0.03983 0.0
C3657 C 0.41448 1.01747 0.0615 0.0
C3658 C 0.37712 1.00074 0.03783 0.0
C3659 C 0.37163 0.9888 0.05808 0.0
C3660 C 0.38818 0.99034 0.07955 0.0
C3661 C 0.40943 1.00476 0.08105 0.0
C3662 C 0.36024 0.99975 1.0146 0.0
C3663 C 0.38321 0.97735 0.10127 0.0
H3664 H 0.29915 0.98448 0.08125 0.0
H3665 H 0.31503 0.92164 0.04101 0.0
H3666 H 0.35253 1.01696 0.09618 0.0
H3667 H 0.34404 0.02442 0.06575 0.0
H3668 H 0.32363 1.02099 0.08756 0.0
H3669 H 0.35054 0.92015 0.02721 0.0
H3670 H 0.36445 0.94755 0.01949 0.0
H3671 H 0.3734 0.93876 0.04909 0.0
H3672 H 0.40247 0.02446 0.02447 0.0
H3673 H 0.42183 1.00666 0.09788 0.0
H3674 H 0.36883 1.00369 0.99813 0.0
H3675 H 0.34958 1.01337 0.01864 0.0
H3676 H 0.34908 0.98227 1.00942 0.0
H3677 H 0.3986 0.97857 0.11537 0.0
H3678 H 0.3763 0.95847 0.09413 0.0
H3679 H 0.37006 0.98484 0.111 0.0
C3680 C 0.92983 0.715 0.82195 0.0
C3681 C 0.93059 0.70891 0.84631 0.0
C3682 C 0.91717 0.7322 0.81472 0.0
C3683 C 0.90511 0.74375 0.83236 0.0
C3684 C 0.90688 0.73846 0.85736 0.0
C3685 C 0.91963 0.72133 0.86399 0.0
C3686 C 0.91613 0.73679 0.78779 0.0
C3687 C 0.89411 0.74984 0.87679 0.0
C3688 C 0.88127 0.80043 0.83016 0.0
C3689 C 0.85804 0.79194 0.82196 0.0
C3690 C 0.89723 0.7851 0.8309 0.0
C3691 C 0.88963 0.76044 0.82502 0.0
C3692 C 0.86634 0.75181 0.81547 0.0
C3693 C 0.85089 0.7677 0.81365 0.0
C3694 C 0.92208 0.7953 0.8392 0.0
C3695 C 0.85753 0.72569 0.80859 0.0
H3696 H 0.93791 0.70533 0.80798 0.0
H3697 H 0.92007 0.71675 0.88288 0.0
H3698 H 0.93368 0.74225 0.78368 0.0
H3699 H 0.90876 0.72017 0.77476 0.0
H3700 H 0.90589 0.75047 0.78359 0.0
H3701 H 0.8972 0.74376 0.89538 0.0
H3702 H 0.89922 0.76929 0.87963 0.0
H3703 H 0.87554 0.74571 0.86993 0.0
H3704 H 0.88692 0.81906 0.8367 0.0
H3705 H 0.83295 0.76097 0.8074 0.0
H3706 H 0.93292 0.78549 0.82794 0.0
H3707 H 0.92676 0.79373 0.85937 0.0
H3708 H 0.92586 0.81423 0.83715 0.0
H3709 H 0.86765 0.71765 0.79493 0.0
H3710 H 0.8393 0.72179 0.80015 0.0
H3711 H 0.85953 0.71717 0.82577 0.0
C3712 C 0.84981 0.62717 1.01224 0.0
C3713 C 0.83279 0.61643 0.99208 0.0
C3714 C 0.86837 0.61643 0.0191 0.0
C3715 C 0.87025 0.59458 1.00514 0.0
C3716 C 0.85435 0.58465 0.98336 0.0
C3717 C 0.83561 0.59562 0.97715 0.0
C3718 C 0.88522 0.62781 0.04224 0.0
C3719 C 0.85661 0.56195 0.96741 0.0
C3720 C 0.92782 0.57895 0.02401 0.0
C3721 C 0.92318 0.56578 0.04336 0.0
C3722 C 0.91039 0.58696 1.00976 0.0
C3723 C 0.88782 0.58152 1.01495 0.0
C3724 C 0.8828 0.56655 0.03299 0.0
C3725 C 0.90061 0.55882 0.047 0.0
C3726 C 0.91672 0.60299 0.99095 0.0
C3727 C 0.85895 0.56055 0.03923 0.0
H3728 H 0.84813 0.64353 0.02359 0.0
H3729 H 0.82273 0.58734 0.96131 0.0
H3730 H 0.88487 0.61602 0.05682 0.0
H3731 H 0.90273 0.63055 0.03729 0.0
H3732 H 0.88154 0.64511 0.05066 0.0
H3733 H 0.84507 0.55853 0.94911 0.0
H3734 H 0.87443 0.56242 0.96364 0.0
H3735 H 0.85238 0.547 0.97782 0.0
H3736 H 0.94528 0.58395 0.02078 0.0
H3737 H 0.89701 0.54865 0.06195 0.0
H3738 H 0.92259 0.62124 1.00111 0.0
H3739 H 0.90214 0.60321 0.97632 0.0
H3740 H 0.93101 0.59762 0.98158 0.0
H3741 H 0.85401 0.57661 0.04912 0.0
H3742 H 0.8575 0.54672 0.0516 0.0
H3743 H 0.84662 0.55438 0.02169 0.0
C3744 C 0.22317 0.15541 0.86744 0.0
C3745 C 0.2323 0.13536 0.85857 0.0
C3746 C 0.23403 0.17897 0.86661 0.0
C3747 C 0.25446 0.18348 0.85567 0.0
C3748 C 0.26394 0.16327 0.84699 0.0
C3749 C 0.25294 0.13986 0.84854 0.0
C3750 C 0.22334 0.19924 0.87731 0.0
C3751 C 0.28552 0.16632 0.83527 0.0
C3752 C 0.26462 0.24217 0.82719 0.0
C3753 C 0.28188 0.25741 0.84463 0.0
C3754 C 0.25638 0.21843 0.83017 0.0
C3755 C 0.2647 0.20889 0.85176 0.0
C3756 C 0.2822 0.22419 0.86955 0.0
C3757 C 0.29074 0.24776 0.86561 0.0
C3758 C 0.23847 0.20347 0.80997 0.0
C3759 C 0.29206 0.2158 0.89302 0.0
H3760 H 0.20723 0.15265 0.87503 0.0
H3761 H 0.26015 0.1249 0.84093 0.0
H3762 H 0.23628 0.21228 0.89066 0.0
H3763 H 0.217 0.20839 0.86182 0.0
H3764 H 0.20891 0.19335 0.88739 0.0
H3765 H 0.29107 0.14923 0.82961 0.0
H3766 H 0.28295 0.1751 0.81834 0.0
H3767 H 0.29937 0.17787 0.84888 0.0
H3768 H 0.2574 0.24885 0.81076 0.0
H3769 H 0.30389 0.2589 0.87951 0.0
H3770 H 0.22241 0.19904 0.81788 0.0
H3771 H 0.24403 0.18661 0.8034 0.0
H3772 H 0.23488 0.21249 0.79339 0.0
H3773 H 0.27884 0.20441 0.9007 0.0
H3774 H 0.30019 0.23079 0.908 0.0
H3775 H 0.3053 0.20531 0.88817 0.0
C3776 C 0.42107 0.07346 0.35642 0.0
C3777 C 0.44229 0.08725 0.36599 0.0
C3778 C 0.41475 0.05131 0.36368 0.0
C3779 C 0.43067 0.04209 0.37956 0.0
C3780 C 0.45264 0.05548 0.38813 0.0
C3781 C 0.458 0.0781 0.38166 0.0
C3782 C 0.39104 0.03774 0.35418 0.0
C3783 C 0.47068 0.04572 0.40347 0.0
C3784 C 0.40275 0.9929 0.41068 0.0
C3785 C 0.39923 0.97407 0.39072 0.0
C3786 C 0.41536 1.0148 0.40872 0.0
C3787 C 0.42428 1.018 0.38598 0.0
C3788 C 0.42361 0.99807 0.36743 0.0
C3789 C 0.4108 0.97636 0.36983 0.0
C3790 C 0.41784 0.03424 0.43084 0.0
C3791 C 0.43519 0.99995 0.34423 0.0
H3792 H 0.40946 0.07998 0.34318 0.0
H3793 H 0.47477 0.08849 0.3884 0.0
H3794 H 0.39183 1.02141 0.34133 0.0
H3795 H 0.38268 0.03241 0.37032 0.0
H3796 H 0.38025 0.04816 0.34367 0.0
H3797 H 0.4877 0.05703 0.40567 0.0
H3798 H 0.46609 0.04428 0.42258 0.0
H3799 H 0.47185 0.02772 0.39437 0.0
H3800 H 0.39467 0.99089 0.4274 0.0
H3801 H 0.40858 0.96171 0.35449 0.0
H3802 H 0.42949 0.05033 0.42881 0.0
H3803 H 0.4244 0.02801 0.44844 0.0
H3804 H 0.40083 0.03853 0.43336 0.0
H3805 H 0.42413 1.00656 0.3298 0.0
H3806 H 0.4385 0.98252 0.33572 0.0
H3807 H 0.45157 1.01249 0.3489 0.0
C3808 C 0.52135 0.37435 0.71398 0.0
C3809 C 0.54168 0.36683 0.72237 0.0
C3810 C 0.52121 0.39293 0.69984 0.0
C3811 C 0.54194 0.40443 0.69378 0.0
C3812 C 0.56273 0.39812 0.70378 0.0
C3813 C 0.56236 0.37936 0.718 0.0
C3814 C 0.49863 0.39905 0.68985 0.0
C3815 C 0.58523 0.41007 0.69803 0.0
C3816 C 0.53569 0.4281 0.6311 0.0
C3817 C 0.53483 0.45195 0.63891 0.0
C3818 C 0.53885 0.41272 0.64879 0.0
C3819 C 0.54137 0.42132 0.67506 0.0
C3820 C 0.54126 0.44553 0.6831 0.0
C3821 C 0.53793 0.4605 0.66498 0.0
C3822 C 0.53866 0.38701 0.6393 0.0
C3823 C 0.54411 0.45553 0.71085 0.0
H3824 H 0.50529 0.36475 0.71732 0.0
H3825 H 0.5781 0.37346 0.7241 0.0
H3826 H 0.49906 0.41835 0.69393 0.0
H3827 H 0.49521 0.39383 0.66899 0.0
H3828 H 0.48428 0.39 0.69814 0.0
H3829 H 0.59986 0.40578 0.71014 0.0
H3830 H 0.58681 0.40425 0.67795 0.0
H3831 H 0.58622 0.42949 0.70072 0.0
H3832 H 0.53317 0.42124 0.61106 0.0
H3833 H 0.53774 0.47899 0.67127 0.0
H3834 H 0.52369 0.37606 0.64465 0.0
H3835 H 0.55411 0.38135 0.64824 0.0
H3836 H 0.53792 0.38336 0.61842 0.0
H3837 H 0.52925 0.44783 0.71926 0.0
H3838 H 0.54562 0.47503 0.71408 0.0
H3839 H 0.55946 0.45072 0.72105 0.0
C3840 C 0.49571 0.8362 0.36057 0.0
C3841 C 0.50472 0.84895 0.38468 0.0
C3842 C 0.47254 0.83487 0.35014 0.0
C3843 C 0.4575 0.84605 0.36425 0.0
C3844 C 0.46662 0.85894 0.38861 0.0
C3845 C 0.48981 0.86007 0.39846 0.0
C3846 C 0.46405 0.8211 0.3241 0.0
C3847 C 0.45173 0.87137 0.40455 0.0
C3848 C 0.40119 0.8603 0.33188 0.0
C3849 C 0.38454 0.84243 0.33693 0.0
C3850 C 0.42467 0.86142 0.34018 0.0
C3851 C 0.4323 0.84419 0.35392 0.0
C3852 C 0.41553 0.82578 0.3587 0.0
C3853 C 0.39204 0.82511 0.35021 0.0
C3854 C 0.44132 0.88126 0.33419 0.0
C3855 C 0.42235 0.80704 0.3734 0.0
H3856 H 0.50666 0.82672 0.35007 0.0
H3857 H 0.49632 0.86962 0.41726 0.0
H3858 H 0.45044 0.80618 0.32522 0.0
H3859 H 0.45649 0.83252 0.31173 0.0
H3860 H 0.47783 0.81402 0.31515 0.0
H3861 H 0.46127 0.88089 0.42293 0.0
H3862 H 0.4442 0.88423 0.39417 0.0
H3863 H 0.43742 0.85839 0.40832 0.0
H3864 H 0.39582 0.87383 0.32171 0.0
H3865 H 0.37948 0.81126 0.3545 0.0
H3866 H 0.4518 0.87382 0.32061 0.0
H3867 H 0.45281 0.89022 0.35159 0.0
H3868 H 0.4328 0.89457 0.32564 0.0
H3869 H 0.43507 0.79826 0.36425 0.0
H3870 H 0.40758 0.79345 0.37486 0.0
H3871 H 0.43051 0.81529 0.39278 0.0
C3872 C 0.06311 0.74628 0.2083 0.0
C3873 C 0.04509 0.74726 0.22243 0.0
C3874 C 0.06567 0.7251 0.19383 0.0
C3875 C 0.04876 0.70468 0.19179 0.0
C3876 C 0.03042 0.70571 0.20609 0.0
C3877 C 1.0295 0.72667 0.22222 0.0
C3878 C 0.08644 0.72497 0.1806 0.0
C3879 C 1.01157 0.68485 0.20419 0.0
C3880 C 0.04728 0.66162 0.13108 0.0
C3881 C 0.05222 0.6414 0.14038 0.0
C3882 C 0.04567 0.68202 0.14747 0.0
C3883 C 0.04991 0.68268 0.17413 0.0
C3884 C 0.05573 0.66232 0.18357 0.0
C3885 C 0.05613 0.64176 0.16658 0.0
C3886 C 0.03971 0.70264 0.13546 0.0
C3887 C 0.06251 0.66196 0.21139 0.0
H3888 H 0.07565 0.76205 0.20912 0.0
H3889 H 1.01622 0.72713 0.23411 0.0
H3890 H 0.0915 0.70731 0.17814 0.0
H3891 H 0.08274 0.73016 0.16168 0.0
H3892 H 0.10111 0.73795 0.1913 0.0
H3893 H 1.006 0.6766 0.18414 0.0
H3894 H 1.01779 0.67143 0.21469 0.0
H3895 H 0.99659 0.68989 0.2124 0.0
H3896 H 0.04441 0.66144 0.11078 0.0
H3897 H 0.06052 0.62626 0.17384 0.0
H3898 H 0.05373 0.70933 0.12522 0.0
H3899 H 0.03669 0.71733 0.14921 0.0
H3900 H 1.0243 0.69667 0.1211 0.0
H3901 H 0.06524 0.67957 0.22321 0.0
H3902 H 0.07846 0.65458 0.21422 0.0
H3903 H 0.04918 0.64996 0.21825 0.0
C3904 C 0.142 0.3748 0.87608 0.0
C3905 C 0.12876 0.35645 0.88516 0.0
C3906 C 0.16452 0.37362 0.87131 0.0
C3907 C 0.17413 0.3532 0.87474 0.0
C3908 C 0.16075 0.33452 0.8837 0.0
C3909 C 0.13855 0.33652 0.88917 0.0
C3910 C 0.17811 0.39437 0.86265 0.0
C3911 C 0.1697 0.31207 0.88699 0.0
C3912 C 0.22361 0.34124 0.83798 0.0
C3913 C 0.24269 0.34686 0.85693 0.0
C3914 C 0.20138 0.34292 0.84354 0.0
C3915 C 0.19791 0.35123 0.86858 0.0
C3916 C 0.21725 0.35753 0.88766 0.0
C3917 C 0.23918 0.35486 0.88174 0.0
C3918 C 0.18148 0.33525 0.82261 0.0
C3919 C 0.21482 0.36722 0.91442 0.0
H3920 H 0.13481 0.39036 0.873 0.0
H3921 H 0.12855 0.32209 0.89591 0.0
H3922 H 0.19458 0.40023 0.87532 0.0
H3923 H 0.18208 0.3891 0.84334 0.0
H3924 H 0.16889 0.40952 0.86241 0.0
H3925 H 0.15714 0.29894 0.89353 0.0
H3926 H 0.17418 0.30407 0.86877 0.0
H3927 H 0.18548 0.31601 0.9009 0.0
H3928 H 0.22594 0.33475 0.81882 0.0
H3929 H 0.25371 0.35931 0.89657 0.0
H3930 H 0.17255 0.35024 0.81986 0.0
H3931 H 0.16904 0.32118 0.82788 0.0
H3932 H 0.1868 0.3285 0.80435 0.0
H3933 H 0.20602 0.38267 0.91448 0.0
H3934 H 0.23154 0.37267 0.92673 0.0
H3935 H 0.20419 0.35372 0.92269 0.0
C3936 C 0.60543 0.81552 0.03163 0.0
C3937 C 0.59954 0.82182 1.00782 0.0
C3938 C 0.59604 0.79367 0.03739 0.0
C3939 C 0.58024 0.77775 0.01893 0.0
C3940 C 0.57454 0.78375 0.99465 0.0
C3941 C 0.58438 0.80577 0.98931 0.0
C3942 C 0.6028 0.78778 0.06342 0.0
C3943 C 0.55771 0.76717 0.97457 0.0
C3944 C 0.57337 0.71518 0.03254 0.0
C3945 C 0.55471 0.7142 0.04598 0.0
C3946 C 0.58104 0.73531 0.02222 0.0
C3947 C 0.56979 0.75492 0.02546 0.0
C3948 C 0.55021 0.75359 0.03781 0.0
C3949 C 0.54294 0.73323 0.04805 0.0
C3950 C 0.60209 0.73612 1.00935 0.0
C3951 C 0.53768 0.77414 0.04142 0.0
H3952 H 0.61725 0.82783 0.04596 0.0
H3953 H 0.57972 0.81065 0.97092 0.0
H3954 H 0.58761 0.78501 0.07322 0.0
H3955 H 0.60978 0.77113 0.06182 0.0
H3956 H 0.61575 0.80191 0.07536 0.0
H3957 H 0.55569 0.77415 0.95638 0.0
H3958 H 0.56325 0.7498 0.97117 0.0
H3959 H 0.54085 0.7641 0.98117 0.0
H3960 H 0.58274 0.70066 0.03118 0.0
H3961 H 0.52836 0.7324 0.05818 0.0
H3962 H 0.61645 0.74835 0.02156 0.0
H3963 H 0.59933 0.74293 0.99117 0.0
H3964 H 0.60712 0.7185 1.00561 0.0
H3965 H 0.54845 0.78873 0.05513 0.0
H3966 H 0.5213 0.7693 0.04864 0.0
H3967 H 0.53421 0.78092 0.02332 0.0
C3968 C 0.07995 0.80685 0.70247 0.0
C3969 C 0.05953 0.80351 0.71256 0.0
C3970 C 0.10031 0.80373 0.71621 0.0
C3971 C 0.1001 0.79728 0.74063 0.0
C3972 C 0.07953 0.79431 0.75105 0.0
C3973 C 0.05936 0.79693 0.73659 0.0
C3974 C 0.12187 0.8066 0.70429 0.0
C3975 C 0.07872 0.78785 0.77717 0.0
C3976 C 0.14721 0.76544 0.76344 0.0
C3977 C 0.16328 0.78415 0.77753 0.0
C3978 C 0.12632 0.76938 0.75172 0.0
C3979 C 0.12124 0.7925 0.75464 0.0
C3980 C 0.1369 0.81119 0.76986 0.0
C3981 C 0.15776 0.80683 0.78104 0.0
C3982 C 0.11018 0.74903 0.73526 0.0
C3983 C 0.13188 0.8359 0.77392 0.0
H3984 H 0.07988 0.81144 0.68362 0.0
H3985 H 0.04334 0.79326 0.74384 0.0
H3986 H 0.13518 0.82007 0.71656 0.0
H3987 H 0.12849 0.78973 0.70242 0.0
H3988 H 0.11915 0.81194 0.68527 0.0
H3989 H 0.06146 0.78703 0.7828 0.0
H3990 H 0.084 0.77047 0.77795 0.0
H3991 H 0.09089 0.80099 0.79125 0.0
H3992 H 0.15124 0.7478 0.76096 0.0
H3993 H 0.17016 0.82147 0.79157 0.0
H3994 H 0.10794 0.75247 0.71543 0.0
H3995 H 0.09317 0.74727 0.74154 0.0
H3996 H 0.1164 0.73202 0.73557 0.0
H3997 H 0.14625 0.84869 0.78548 0.0
H3998 H 0.11674 0.83592 0.78374 0.0
H3999 H 0.12788 0.84192 0.75548 0.0
C4000 C 0.13769 0.45244 0.56605 0.0
C4001 C 0.14457 0.45863 0.54344 0.0
C4002 C 0.12869 0.46825 0.58239 0.0
C4003 C 0.12738 0.49097 0.57636 0.0
C4004 C 0.13878 0.49881 0.55671 0.0
C4005 C 0.14705 0.4824 0.54012 0.0
C4006 C 0.11718 0.45915 0.60342 0.0
C4007 C 0.13929 0.5236 0.55106 0.0
C4008 C 0.07008 0.51018 0.57524 0.0
C4009 C 0.07373 0.52789 0.59638 0.0
C4010 C 0.08727 0.49769 0.56913 0.0
C4011 C 0.10879 0.50302 0.58458 0.0
C4012 C 0.11221 0.51992 0.60684 0.0
C4013 C 0.09441 0.53197 0.61267 0.0
C4014 C 0.0826 0.47955 0.54534 0.0
C4015 C 0.13491 0.52626 0.62365 0.0
H4016 H 0.13661 0.43435 0.56945 0.0
H4017 H 0.1531 0.48768 0.52323 0.0
H4018 H 0.11809 0.47328 0.6197 0.0
H4019 H 0.09893 0.45232 0.5962 0.0
H4020 H 0.12489 0.44449 0.61011 0.0
H4021 H 0.15308 0.52866 0.53983 0.0
H4022 H 0.12274 0.52483 0.54017 0.0
H4023 H 0.14181 0.53643 0.56879 0.0
H4024 H 0.054 0.50671 0.56273 0.0
H4025 H 0.09701 0.5453 0.62936 0.0
H4026 H 0.08732 0.4626 0.54949 0.0
H4027 H 0.09306 0.48581 0.53114 0.0
H4028 H 0.06443 0.47617 0.5367 0.0
H4029 H 0.14194 0.51024 0.62712 0.0
H4030 H 0.13372 0.53676 0.64211 0.0
H4031 H 0.14721 0.53687 0.61406 0.0
C4032 C 0.42637 0.28618 0.21722 0.0
C4033 C 0.43694 0.29655 0.19872 0.0
C4034 C 0.42216 0.30016 0.23891 0.0
C4035 C 0.42988 0.32484 0.24263 0.0
C4036 C 0.44005 0.33539 0.22363 0.0
C4037 C 0.44315 0.32109 0.20165 0.0
C4038 C 0.40959 0.28861 0.25787 0.0
C4039 C 0.44837 0.36165 0.2269 0.0
C4040 C 0.40275 0.36385 0.28762 0.0
C4041 C 0.41783 0.36673 0.31023 0.0
C4042 C 0.40639 0.35012 0.26556 0.0
C4043 C 0.42616 0.33976 0.26583 0.0
C4044 C 0.442 0.34329 0.28829 0.0
C4045 C 0.43746 0.35646 0.31041 0.0
C4046 C 0.38886 0.34656 0.24214 0.0
C4047 C 0.46346 0.33276 0.28906 0.0
H4048 H 0.42196 0.26713 0.21501 0.0
H4049 H 0.45194 0.32895 0.18758 0.0
H4050 H 0.42069 0.29138 0.27637 0.0
H4051 H 0.39446 0.29687 0.26094 0.0
H4052 H 0.40384 0.26939 0.25157 0.0
H4053 H 0.45726 0.36687 0.21107 0.0
H4054 H 0.43376 0.37112 0.22805 0.0
H4055 H 0.46019 0.3675 0.2449 0.0
H4056 H 0.38748 0.3715 0.28751 0.0
H4057 H 0.44908 0.3585 0.32788 0.0
H4058 H 0.38833 0.32964 0.22962 0.0
H4059 H 0.39296 0.36109 0.23115 0.0
H4060 H 0.37156 0.34677 0.24712 0.0
H4061 H 0.45904 0.31324 0.28641 0.0
H4062 H 0.47496 0.33886 0.30727 0.0
H4063 H 0.47278 0.33744 0.27336 0.0
C4064 C 0.65221 0.56446 0.41458 0.0
C4065 C 0.67595 0.57225 0.42127 0.0
C4066 C 0.63675 0.56439 0.43291 0.0
C4067 C 0.6446 0.57266 0.45914 0.0
C4068 C 0.66853 0.58049 0.46599 0.0
C4069 C 0.68363 0.58005 0.44736 0.0
C4070 C 0.61176 0.5555 0.42404 0.0
C4071 C 0.67829 0.58988 0.49321 0.0
C4072 C 0.60279 0.59595 0.50308 0.0
C4073 C 0.59734 0.57778 0.51751 0.0
C4074 C 0.61773 0.59445 0.48441 0.0
C4075 C 0.62791 0.57408 0.47909 0.0
C4076 C 0.62226 0.55546 0.49333 0.0
C4077 C 0.60738 0.55754 0.51218 0.0
C4078 C 0.62297 0.61512 0.47061 0.0
C4079 C 0.63217 0.53322 0.48882 0.0
H4080 H 0.64556 0.55833 0.39481 0.0
H4081 H 0.70167 0.58633 0.45336 0.0
H4082 H 0.60539 0.54142 0.43474 0.0
H4083 H 0.60202 0.57002 0.42784 0.0
H4084 H 0.60821 0.54842 0.4035 0.0
H4085 H 0.69711 0.59507 0.49587 0.0
H4086 H 0.67079 0.60547 0.49992 0.0
H4087 H 0.67378 0.57636 0.50531 0.0
H4088 H 0.5956 0.61186 0.50671 0.0
H4089 H 0.60381 0.5433 0.52298 0.0
H4090 H 0.61803 0.60943 0.44994 0.0
H4091 H 0.64156 0.6219 0.47396 0.0
H4092 H 0.61397 0.62977 0.47671 0.0
H4093 H 0.62808 0.52535 0.46853 0.0
H4094 H 0.62566 0.51992 0.5004 0.0
H4095 H 0.65099 0.53742 0.49344 0.0
C4096 C 0.25141 0.87809 0.1465 0.0
C4097 C 0.26072 0.90064 0.14214 0.0
C4098 C 0.25843 0.86973 0.16905 0.0
C4099 C 0.27556 0.88402 0.18758 0.0
C4100 C 0.28498 0.90681 0.18328 0.0
C4101 C 0.27732 0.9149 0.1608 0.0
C4102 C 0.24751 0.84557 0.17303 0.0
C4103 C 0.30344 0.92257 0.20228 0.0
C4104 C 0.28064 0.87315 0.25619 0.0
C4105 C 0.29838 0.85999 0.25777 0.0
C4106 C 0.27283 0.88064 0.23346 0.0
C4107 C 0.28331 0.87538 0.21169 0.0
C4108 C 0.30133 0.86218 0.21316 0.0
C4109 C 0.30845 0.85439 0.23607 0.0
C4110 C 0.25325 0.89414 0.23277 0.0
C4111 C 0.31325 0.8565 0.19058 0.0
H4112 H 0.2386 0.86692 0.13222 0.0
H4113 H 0.28481 0.93224 0.15756 0.0
H4114 H 0.26061 0.83416 0.1751 0.0
H4115 H 0.23984 0.84693 0.19079 0.0
H4116 H 0.23407 0.83685 0.15713 0.0
H4117 H 0.30942 0.93956 0.1959 0.0
H4118 H 0.2971 0.92637 0.22064 0.0
H4119 H 0.31819 0.91345 0.2057 0.0
H4120 H 0.2725 0.87732 0.27273 0.0
H4121 H 0.32216 0.84426 0.23712 0.0
H4122 H 0.23938 0.88518 0.21747 0.0
H4123 H 0.25896 0.91207 0.22848 0.0
H4124 H 0.24623 0.89583 0.25096 0.0
H4125 H 0.30084 0.84615 0.17457 0.0
H4126 H 0.32708 0.84633 0.1948 0.0
H4127 H 0.32063 0.87307 0.18427 0.0
C4128 C 0.97383 0.65606 0.95009 0.0
C4129 C 0.98292 0.6548 0.92717 0.0
C4130 C 0.9843 0.64801 0.97127 0.0
C4131 C 1.00455 0.63857 0.96975 0.0
C4132 C 1.01481 0.63898 0.9474 0.0
C4133 C 1.00392 0.6471 0.92641 0.0
C4134 C 0.97283 0.64816 0.99473 0.0
C4135 C 0.03642 0.62918 0.94492 0.0
C4136 C 0.03674 0.62601 0.0309 0.0
C4137 C 1.02847 0.60192 0.03008 0.0
C4138 C 1.02945 0.63814 1.01128 0.0
C4139 C 1.01343 0.62596 0.99037 0.0
C4140 C 1.00516 0.60159 0.98945 0.0
C4141 C 1.01283 0.58991 1.00921 0.0
C4142 C 0.03873 0.66405 1.01303 0.0
C4143 C 0.9879 0.58786 0.96772 0.0
H4144 H 0.95768 0.66204 0.95103 0.0
H4145 H 1.01107 0.64578 0.90885 0.0
H4146 H 0.96774 0.62982 0.99821 0.0
H4147 H 0.98489 0.65767 1.01147 0.0
H4148 H 0.95745 0.65662 0.99319 0.0
H4149 H 0.04394 0.63371 0.92798 0.0
H4150 H 0.04923 0.63591 0.96198 0.0
H4151 H 0.03268 0.60968 0.94334 0.0
H4152 H 0.04885 0.6354 0.04696 0.0
H4153 H 1.00632 0.57132 1.00842 0.0
H4154 H 1.02466 0.67433 1.01386 0.0
H4155 H 0.04649 0.6673 0.99587 0.0
H4156 H 0.05172 0.67079 0.02996 0.0
H4157 H 0.9721 0.5956 0.96669 0.0
H4158 H 0.98342 0.56896 0.9696 0.0
H4159 H 0.99463 0.58903 0.94955 0.0
C4160 C 0.29274 0.15139 0.60217 0.0
C4161 C 0.30467 0.16631 0.58799 0.0
C4162 C 0.2908 0.15931 0.62746 0.0
C4163 C 0.30073 0.1827 0.63838 0.0
C4164 C 0.31499 0.19672 0.62503 0.0
C4165 C 0.31692 0.18824 0.6 0.0
C4166 C 0.27637 0.14344 0.64153 0.0
C4167 C 0.32617 0.2217 0.63611 0.0
C4168 C 0.27004 0.22249 0.67724 0.0
C4169 C 0.28487 0.22789 0.70011 0.0
C4170 C 0.27386 0.20598 0.65755 0.0
C4171 C 0.29281 0.19436 0.66104 0.0
C4172 C 0.30621 0.19765 0.68508 0.0
C4173 C 0.30221 0.21462 0.70437 0.0
C4174 C 0.25891 0.20275 0.63226 0.0
C4175 C 0.32594 0.18484 0.68985 0.0
H4176 H 0.28358 0.13418 0.5931 0.0
H4177 H 0.32658 0.19964 0.58925 0.0
H4178 H 0.283 0.14649 0.66204 0.0
H4179 H 0.25875 0.14722 0.63939 0.0
H4180 H 0.2756 0.12455 0.63388 0.0
H4181 H 0.33848 0.22932 0.6243 0.0
H4182 H 0.31292 0.23298 0.63764 0.0
H4183 H 0.33526 0.22238 0.65541 0.0
H4184 H 0.25621 0.23226 0.67422 0.0
H4185 H 0.31365 0.21859 0.72212 0.0
H4186 H 0.25294 0.18375 0.62499 0.0
H4187 H 0.2689 0.21031 0.61832 0.0
H4188 H 0.24381 0.21153 0.63336 0.0
H4189 H 0.3223 0.16672 0.679 0.0
H4190 H 0.33006 0.18383 0.71029 0.0
H4191 H 0.34123 0.19451 0.68373 0.0
C4192 C 0.64904 0.55313 0.26647 0.0
C4193 C 0.6718 0.56445 0.27389 0.0
C4194 C 0.63708 0.55378 0.24233 0.0
C4195 C 0.64781 0.56636 0.22489 0.0
C4196 C 0.67091 0.57752 0.23212 0.0
C4197 C 0.68258 0.57632 0.25629 0.0
C4198 C 0.61269 0.54128 0.23567 0.0
C4199 C 0.68317 0.59134 0.21453 0.0
C4200 C 0.62177 0.55396 0.15424 0.0
C4201 C 0.60876 0.57198 0.15213 0.0
C4202 C 0.63444 0.5519 0.17756 0.0
C4203 C 0.63464 0.56846 0.19958 0.0
C4204 C 0.62183 0.5869 0.19745 0.0
C4205 C 0.60905 0.58833 0.17401 0.0
C4206 C 0.64745 0.53175 0.17867 0.0
C4207 C 0.62155 0.60519 0.22006 0.0
H4208 H 0.64038 0.54391 0.27973 0.0
H4209 H 0.70004 0.58533 0.26168 0.0
H4210 H 0.60131 0.55433 0.23292 0.0
H4211 H 0.61055 0.52899 0.21757 0.0
H4212 H 0.60711 0.53115 0.25056 0.0
H4213 H 0.70125 0.59841 0.22244 0.0
H4214 H 0.68259 0.58003 0.19608 0.0
H4215 H 0.67448 0.60631 0.21078 0.0
H4216 H 0.62188 0.54119 0.13768 0.0
H4217 H 0.59926 0.60242 0.17287 0.0
H4218 H 0.64142 0.52089 0.19278 0.0
H4219 H 0.66581 0.5387 0.18497 0.0
H4220 H 0.64552 0.52021 0.16009 0.0
H4221 H 0.61424 0.59658 0.23514 0.0
H4222 H 0.61144 0.61887 0.21528 0.0
H4223 H 0.63919 0.61396 0.22796 0.0
C4224 C 0.24437 0.86893 0.99762 0.0
C4225 C 0.23965 0.89166 0.9958 0.0
C4226 C 0.25205 0.85553 0.97749 0.0
C4227 C 0.25586 0.86531 0.95529 0.0
C4228 C 0.24961 0.88748 0.95267 0.0
C4229 C 0.24106 0.89999 0.97257 0.0
C4230 C 0.25734 0.83145 0.98061 0.0
C4231 C 0.25379 0.89906 0.92977 0.0
C4232 C 0.30472 0.85003 0.92046 0.0
C4233 C 0.29318 0.83729 0.89734 0.0
C4234 C 0.29277 0.85875 0.93961 0.0
C4235 C 0.26861 0.85387 0.93606 0.0
C4236 C 0.25692 0.83981 0.91327 0.0
C4237 C 0.26931 0.83219 0.89397 0.0
C4238 C 0.30604 0.87432 0.96308 0.0
C4239 C 0.2313 0.83337 0.90891 0.0
H4240 H 0.24324 0.86206 1.01524 0.0
H4241 H 0.2372 0.91731 0.97054 0.0
H4242 H 0.25125 0.81879 0.96288 0.0
H4243 H 0.27603 0.8325 0.98481 0.0
H4244 H 0.24945 0.82448 0.99632 0.0
H4245 H 0.24693 0.91578 0.92997 0.0
H4246 H 0.27238 0.90303 0.92916 0.0
H4247 H 0.24596 0.88702 0.91212 0.0
H4248 H 0.32314 0.85436 0.92307 0.0
H4249 H 0.2603 0.82241 0.87611 0.0
H4250 H 0.30186 0.86694 0.98022 0.0
H4251 H 0.3012 0.89208 0.96452 0.0
H4252 H 0.32474 0.87631 0.96308 0.0
H4253 H 0.22497 0.8277 0.92604 0.0
H4254 H 0.22515 0.81903 0.89259 0.0
H4255 H 0.22376 0.849 0.90504 0.0
C4256 C 0.98432 0.61624 0.76924 0.0
C4257 C 0.99018 0.63883 0.78365 0.0
C4258 C 0.99508 0.60986 0.74818 0.0
C4259 C 1.01148 0.62677 0.74059 0.0
C4260 C 1.01717 0.64979 0.75486 0.0
C4261 C 1.00684 0.65538 0.77656 0.0
C4262 C 0.98903 0.5849 0.7342 0.0
C4263 C 0.03384 0.66864 0.74689 0.0
C4264 C 0.05183 0.60586 0.69578 0.0
C4265 C 0.04047 0.60796 0.67207 0.0
C4266 C 0.04271 0.61201 0.71824 0.0
C4267 C 1.02181 0.62062 0.71707 0.0
C4268 C 1.01032 0.6228 0.69321 0.0
C4269 C 1.01973 0.61647 0.67113 0.0
C4270 C 0.05523 0.60883 0.7432 0.0
C4271 C 0.98785 0.63154 0.69096 0.0
H4272 H 0.97173 0.60327 0.77493 0.0
H4273 H 1.01141 0.67284 0.78768 0.0
H4274 H 0.98119 0.58484 0.71449 0.0
H4275 H 1.00466 0.57703 0.73318 0.0
H4276 H 0.97697 0.5735 0.74339 0.0
H4277 H 0.03642 0.68567 0.7599 0.0
H4278 H 0.05053 0.66285 0.74621 0.0
H4279 H 1.02758 0.67156 0.72753 0.0
H4280 H 0.06775 0.59923 0.69679 0.0
H4281 H 1.01063 0.61807 0.653 0.0
H4282 H 0.04412 0.5965 0.75239 0.0
H4283 H 0.05949 0.62592 0.75614 0.0
H4284 H 0.0712 0.60185 0.74098 0.0
H4285 H 0.97478 0.61911 0.6976 0.0
H4286 H 0.98156 0.63336 0.67121 0.0
H4287 H 0.98953 0.64884 0.70322 0.0
C4288 C 0.29416 0.19236 0.42706 0.0
C4289 C 0.29893 0.19416 0.45343 0.0
C4290 C 0.29665 0.21258 0.4153 0.0
C4291 C 0.3039 0.23509 0.43031 0.0
C4292 C 0.30982 0.23692 0.45674 0.0
C4293 C 0.30737 0.21647 0.46796 0.0
C4294 C 0.29047 0.20998 0.38696 0.0
C4295 C 0.31767 0.26059 0.47335 0.0
C4296 C 0.32099 0.28671 0.39622 0.0
C4297 C 0.30037 0.29515 0.39231 0.0
C4298 C 0.32267 0.26754 0.40923 0.0
C4299 C 0.30332 0.25675 0.41862 0.0
C4300 C 0.28293 0.26617 0.41609 0.0
C4301 C 0.28178 0.28534 0.40305 0.0
C4302 C 0.34471 0.25803 0.41156 0.0
C4303 C 0.26204 0.25535 0.42623 0.0
H4304 H 0.28776 0.17525 0.41564 0.0
H4305 H 0.31133 0.21816 0.48834 0.0
H4306 H 0.27506 0.21783 0.38241 0.0
H4307 H 0.30442 0.21965 0.37864 0.0
H4308 H 0.28702 0.19123 0.3778 0.0
H4309 H 0.32365 0.25887 0.49322 0.0
H4310 H 0.33167 0.2711 0.46588 0.0
H4311 H 0.30341 0.27068 0.47328 0.0
H4312 H 0.33547 0.2942 0.38791 0.0
H4313 H 0.26601 0.29199 0.40015 0.0
H4314 H 0.34246 0.24086 0.39892 0.0
H4315 H 0.34956 0.25484 0.43115 0.0
H4316 H 0.35891 0.27021 0.40629 0.0
H4317 H 0.25707 0.23643 0.41799 0.0
H4318 H 0.2473 0.26425 0.42191 0.0
H4319 H 0.26584 0.25636 0.44704 0.0
C4320 C 0.43735 0.68879 0.54183 0.0
C4321 C 0.4296 0.69683 0.56449 0.0
C4322 C 0.45431 0.67459 0.54134 0.0
C4323 C 0.46376 0.66785 0.56404 0.0
C4324 C 0.45678 0.67681 0.5872 0.0
C4325 C 0.43983 0.69123 0.58717 0.0
C4326 C 0.46158 0.66613 0.51632 0.0
C4327 C 0.46681 0.67057 0.61192 0.0
C4328 C 0.49095 0.61197 0.55968 0.0
C4329 C 0.51423 0.62145 0.56277 0.0
C4330 C 0.47434 0.62682 0.55997 0.0
C4331 C 0.48112 0.65174 0.56348 0.0
C4332 C 0.50457 0.66125 0.56595 0.0
C4333 C 0.52066 0.64606 0.56531 0.0
C4334 C 0.44953 0.61588 0.55717 0.0
C4335 C 0.51292 0.68753 0.56923 0.0
H4336 H 0.42941 0.69288 0.52418 0.0
H4337 H 0.43365 0.69692 0.60467 0.0
H4338 H 0.48024 0.67152 0.51725 0.0
H4339 H 0.45779 0.64659 0.51224 0.0
H4340 H 0.45289 0.67324 0.5004 0.0
H4341 H 0.45999 0.67921 0.62834 0.0
H4342 H 0.46311 0.65118 0.61139 0.0
H4343 H 0.48561 0.67593 0.6148 0.0
H4344 H 0.48576 0.59305 0.55803 0.0
H4345 H 0.53852 0.65361 0.56732 0.0
H4346 H 0.43987 0.62157 0.5409 0.0
H4347 H 0.44228 0.62207 0.57434 0.0
H4348 H 0.44693 0.5963 0.55426 0.0
H4349 H 0.53086 0.69231 0.57858 0.0
H4350 H 0.50241 0.69762 0.58062 0.0
H4351 H 0.51201 0.69322 0.55034 0.0
C4352 C 0.94173 0.03565 0.67559 0.0
C4353 C 0.92148 0.03324 0.65892 0.0
C4354 C 0.96295 0.0388 0.66671 0.0
C4355 C 0.96376 0.04045 0.6408 0.0
C4356 C 0.94325 0.03852 0.62417 0.0
C4357 C 0.92246 0.03363 0.63323 0.0
C4358 C 0.98437 0.03946 0.68474 0.0
C4359 C 0.94308 0.04153 0.59672 0.0
C4360 C 1.01747 0.06862 0.61846 0.0
C4361 C 1.02221 0.04961 0.60238 0.0
C4362 C 0.99917 0.06583 0.63222 0.0
C4363 C 0.98573 0.04321 0.63047 0.0
C4364 C 0.99185 0.02352 0.61595 0.0
C4365 C 1.00964 0.02707 0.60142 0.0
C4366 C 0.99391 0.08768 0.6471 0.0
C4367 C 0.97945 0.99875 0.61541 0.0
H4368 H 0.94091 0.0339 0.69525 0.0
H4369 H 0.90686 0.03054 0.62015 0.0
H4370 H 0.99409 0.02605 0.67702 0.0
H4371 H 0.99544 0.05694 0.68683 0.0
H4372 H 0.98069 0.03609 0.70377 0.0
H4373 H 0.92611 0.04402 0.58788 0.0
H4374 H 0.95589 0.05696 0.59495 0.0
H4375 H 0.94751 0.0257 0.58587 0.0
H4376 H 1.02754 0.08599 0.61955 0.0
H4377 H 1.01384 1.01221 0.58956 0.0
H4378 H 1.00983 0.09874 0.65768 0.0
H4379 H 0.98192 0.08391 0.66068 0.0
H4380 H 0.98654 0.09826 0.63358 0.0
H4381 H 0.98976 0.98536 0.60901 0.0
H4382 H 0.96331 0.99557 0.60216 0.0
H4383 H 0.97517 0.99612 0.63442 0.0
C4384 C 0.89823 0.16792 0.30398 0.0
C4385 C 0.89733 0.15487 0.3243 0.0
C4386 C 0.88988 0.18995 0.30433 0.0
C4387 C 0.88041 0.20005 0.32558 0.0
C4388 C 0.88014 0.18721 0.34629 0.0
C4389 C 0.88821 0.16526 0.34531 0.0
C4390 C 0.89061 0.20218 0.28144 0.0
C4391 C 0.87085 0.19652 0.36972 0.0
C4392 C 0.87393 0.26713 0.33739 0.0
C4393 C 0.85044 0.2669 0.33014 0.0
C4394 C 0.88379 0.24603 0.33575 0.0
C4395 C 0.87028 0.22336 0.32621 0.0
C4396 C 0.84663 0.2231 0.31856 0.0
C4397 C 0.83717 0.24439 0.3207 0.0
C4398 C 0.90887 0.24805 0.34459 0.0
C4399 C 0.83104 0.20005 0.30803 0.0
H4400 H 0.90468 0.16053 0.28731 0.0
H4401 H 0.88712 0.15593 0.36135 0.0
H4402 H 0.87301 0.20299 0.27302 0.0
H4403 H 0.89974 0.22061 0.28704 0.0
H4404 H 0.89911 0.19303 0.26679 0.0
H4405 H 0.87283 0.18547 0.38486 0.0
H4406 H 0.87967 0.2148 0.37722 0.0
H4407 H 0.8525 0.19717 0.36491 0.0
H4408 H 0.88479 0.28396 0.34463 0.0
H4409 H 0.81913 0.24333 0.31469 0.0
H4410 H 0.9173 0.24031 0.32905 0.0
H4411 H 0.91142 0.23786 0.3604 0.0
H4412 H 0.91737 0.26663 0.35109 0.0
H4413 H 0.83771 0.1909 0.29181 0.0
H4414 H 0.81341 0.20251 0.30163 0.0
H4415 H 0.83051 0.18833 0.32265 0.0
C4416 C 0.79056 0.20655 0.06912 0.0
C4417 C 0.81044 0.19751 0.07527 0.0
C4418 C 0.76959 0.19548 0.07442 0.0
C4419 C 0.76876 0.17508 0.08622 0.0
C4420 C 0.78877 0.16559 0.09179 0.0
C4421 C 0.80946 0.17725 0.08673 0.0
C4422 C 0.74856 0.20606 0.06832 0.0
C4423 C 0.78848 0.14362 0.10396 0.0
C4424 C 0.72502 0.15894 0.12863 0.0
C4425 C 0.71088 0.13961 0.11323 0.0
C4426 C 0.74339 0.17146 0.11958 0.0
C4427 C 0.74746 0.16446 0.09455 0.0
C4428 C 0.73242 0.14577 0.07855 0.0
C4429 C 0.7144 0.1334 0.08819 0.0
C4430 C 0.75896 0.19152 0.1371 0.0
C4431 C 0.7359 0.13797 0.05171 0.0
H4432 H 0.79153 0.22252 0.06067 0.0
H4433 H 0.82504 0.17091 0.09246 0.0
H4434 H 0.73464 0.19242 0.05728 0.0
H4435 H 0.74252 0.21274 0.08613 0.0
H4436 H 0.75177 0.22085 0.05739 0.0
H4437 H 0.80535 0.13792 0.10583 0.0
H4438 H 0.78338 0.14684 0.12306 0.0
H4439 H 0.77576 0.12897 0.09257 0.0
H4440 H 0.72212 0.16378 0.14797 0.0
H4441 H 0.70308 0.11872 0.07615 0.0
H4442 H 0.7615 0.20741 0.12774 0.0
H4443 H 0.77592 0.18653 0.14166 0.0
H4444 H 0.75221 0.19614 0.15509 0.0
H4445 H 0.74147 0.15329 0.04234 0.0
H4446 H 0.7202 0.12726 0.04025 0.0
H4447 H 0.74939 0.12697 0.05201 0.0
C4448 C 0.18912 0.45174 0.33183 0.0
C4449 C 0.18084 0.461 0.35357 0.0
C4450 C 0.20146 0.43297 0.3321 0.0
C4451 C 0.20544 0.42307 0.3546 0.0
C4452 C 0.19534 0.43111 0.37588 0.0
C4453 C 0.18337 0.45006 0.37516 0.0
C4454 C 0.2118 0.42504 0.30893 0.0
C4455 C 0.19827 0.42065 0.39993 0.0
C4456 C 0.23126 0.36669 0.34781 0.0
C4457 C 0.25463 0.37552 0.35489 0.0
C4458 C 0.21491 0.38167 0.34888 0.0
C4459 C 0.22206 0.40627 0.35655 0.0
C4460 C 0.24557 0.41514 0.36469 0.0
C4461 C 0.2615 0.39966 0.36401 0.0
C4462 C 0.19007 0.37122 0.34085 0.0
C4463 C 0.25406 0.44119 0.37311 0.0
H4464 H 0.18767 0.46048 0.31531 0.0
H4465 H 0.17712 0.45733 0.39207 0.0
H4466 H 0.2306 0.43021 0.31299 0.0
H4467 H 0.2079 0.40555 0.30393 0.0
H4468 H 0.20553 0.43293 0.29234 0.0
H4469 H 0.18976 0.42919 0.41496 0.0
H4470 H 0.191 0.40159 0.39596 0.0
H4471 H 0.21663 0.42247 0.40716 0.0
H4472 H 0.22576 0.34804 0.34099 0.0
H4473 H 0.27948 0.40668 0.36941 0.0
H4474 H 0.18452 0.37517 0.32173 0.0
H4475 H 0.17939 0.37909 0.35394 0.0
H4476 H 0.18688 0.3518 0.34017 0.0
H4477 H 0.25029 0.45093 0.35718 0.0
H4478 H 0.27267 0.44522 0.37975 0.0
H4479 H 0.24508 0.44792 0.38866 0.0
C4480 C 0.29065 0.56171 0.17223 0.0
C4481 C 0.29596 0.53963 0.16375 0.0
C4482 C 0.26932 0.56715 0.16431 0.0
C4483 C 0.25329 0.55021 0.14716 0.0
C4484 C 0.25777 0.52714 0.14055 0.0
C4485 C 0.27911 0.52203 0.14917 0.0
C4486 C 0.26484 0.59173 0.17236 0.0
C4487 C 0.24106 0.50864 0.12227 0.0
C4488 C 0.19458 0.56378 0.12846 0.0
C4489 C 0.19767 0.57386 0.10663 0.0
C4490 C 0.2125 0.55582 0.14193 0.0
C4491 C 0.2338 0.55781 0.13305 0.0
C4492 C 0.23688 0.56771 0.11079 0.0
C4493 C 0.21875 0.57587 0.09795 0.0
C4494 C 0.20879 0.54577 0.16583 0.0
C4495 C 0.25936 0.5698 0.1006 0.0
H4496 H 0.30364 0.5752 0.18383 0.0
H4497 H 0.28325 0.50493 0.1426 0.0
H4498 H 0.26639 0.60197 0.15651 0.0
H4499 H 0.24731 0.59118 0.17708 0.0
H4500 H 0.27712 0.60123 0.18899 0.0
H4501 H 0.24537 0.49074 0.12245 0.0
H4502 H 0.22348 0.50839 0.12671 0.0
H4503 H 0.24126 0.51291 0.10282 0.0
H4504 H 0.17821 0.56255 0.13524 0.0
H4505 H 0.22094 0.58361 0.08099 0.0
H4506 H 0.21991 0.55715 0.18225 0.0
H4507 H 0.21358 0.52801 0.16475 0.0
H4508 H 0.19083 0.5444 0.16942 0.0
H4509 H 0.27278 0.58154 0.1146 0.0
H4510 H 0.25857 0.577 0.08249 0.0
H4511 H 0.26459 0.55226 0.09747 0.0
C4512 C 0.90133 1.01137 0.33781 0.0
C4513 C 0.89278 0.02403 0.31931 0.0
C4514 C 0.89003 0.98865 0.34114 0.0
C4515 C 0.87043 0.97624 0.32403 0.0
C4516 C 0.86236 0.98869 0.30446 0.0
C4517 C 0.87299 1.01227 0.30295 0.0
C4518 C 0.89942 0.9784 0.36362 0.0
C4519 C 0.84253 0.97733 0.28448 0.0
C4520 C 0.86246 0.90809 0.32649 0.0
C4521 C 0.84053 0.9022 0.33324 0.0
C4522 C 0.87159 0.9312 0.32218 0.0
C4523 C 0.85938 0.95037 0.3261 0.0
C4524 C 0.83689 0.94422 0.3326 0.0
C4525 C 0.82784 0.92059 0.33566 0.0
C4526 C 0.89448 0.93442 0.31304 0.0
C4527 C 0.82181 0.96223 0.33701 0.0
H4528 H 0.91662 1.01973 0.3506 0.0
H4529 H 0.86615 1.02122 0.28815 0.0
H4530 H 0.88671 0.96479 0.36917 0.0
H4531 H 0.9144 0.97051 0.3591 0.0
H4532 H 0.90547 0.99252 0.38017 0.0
H4533 H 0.84501 0.98303 0.26599 0.0
H4534 H 0.83996 0.95779 0.28194 0.0
H4535 H 0.82681 0.98319 0.28989 0.0
H4536 H 0.87269 0.89432 0.32421 0.0
H4537 H 0.81097 0.91681 0.34097 0.0
H4538 H 0.908 0.93503 0.32916 0.0
H4539 H 0.898 0.95063 0.30437 0.0
H4540 H 0.89557 0.91905 0.29882 0.0
H4541 H 0.83007 0.98005 0.33525 0.0
H4542 H 0.81673 0.96245 0.35617 0.0
H4543 H 0.80598 0.95726 0.32314 0.0
C4544 C 0.68905 0.10716 0.86059 0.0
C4545 C 0.69423 0.08486 0.85301 0.0
C4546 C 0.70312 0.12759 0.85659 0.0
C4547 C 0.72249 0.12546 0.84439 0.0
C4548 C 0.72827 0.10297 0.83779 0.0
C4549 C 0.71382 0.08291 0.84176 0.0
C4550 C 0.69675 0.15136 0.86435 0.0
C4551 C 0.74912 0.10003 0.82541 0.0
C4552 C 0.74092 0.16989 0.80228 0.0
C4553 C 0.76016 0.1839 0.81734 0.0
C4554 C 0.72829 0.15116 0.81118 0.0
C4555 C 0.73511 0.14624 0.83571 0.0
C4556 C 0.75437 0.16049 0.85113 0.0
C4557 C 0.76673 0.17909 0.8417 0.0
C4558 C 0.70777 0.13645 0.79416 0.0
C4559 C 0.76258 0.15586 0.87724 0.0
H4560 H 0.67371 0.10855 0.86901 0.0
H4561 H 0.71737 0.06558 0.83512 0.0
H4562 H 0.71159 0.16353 0.87581 0.0
H4563 H 0.69189 0.15918 0.84724 0.0
H4564 H 0.68231 0.15019 0.87549 0.0
H4565 H 0.75204 0.08149 0.82306 0.0
H4566 H 0.74723 0.10565 0.8065 0.0
H4567 H 0.76439 0.11144 0.83693 0.0
H4568 H 0.73589 0.17339 0.78335 0.0
H4569 H 0.78142 0.19005 0.85358 0.0
H4570 H 0.6925 0.13612 0.80392 0.0
H4571 H 0.71056 0.11799 0.78982 0.0
H4572 H 0.70419 0.14324 0.77604 0.0
H4573 H 0.74852 0.14763 0.88647 0.0
H4574 H 0.77138 0.1724 0.88965 0.0
H4575 H 0.77508 0.14375 0.87559 0.0
loop_
_geom_bond_atom_site_label_1
_geom_bond_atom_site_label_2
_geom_bond_distance
_geom_bond_site_symmetry_2
_ccdc_geom_bond_type
Mn0 O5 2.095 . S
Mn0 O15 2.162 . S
Mn0 O16 2.297 . S
Mn0 O24 2.385 . S
Mn0 O25 2.209 . S
Mn0 O26 2.094 . S
Mn1 O6 2.121 . S
Mn1 N8 2.257 . S
Mn1 N17 2.282 . S
Mn1 O25 2.215 . S
Mn1 O27 2.117 . S
C2 O24 1.234 . S
C2 O25 1.283 . S
C3 O15 1.281 . S
C3 O16 1.236 . S
C4 O26 1.240 . S
C4 O27 1.264 . S
O5 Mn0 2.095 . S
O5 C14 1.250 . S
O6 Mn1 2.121 . S
O6 C14 1.258 . S
C7 N8 1.326 . S
C7 C11 1.460 . S
C7 H13 0.929 . S
N8 Mn1 2.257 . S
N8 C7 1.326 . S
N8 C12 1.362 . S
C9 C10 1.258 . S
C9 C12 1.431 . S
C9 C29 1.449 . S
C10 C9 1.258 . S
C10 C11 1.477 . S
C10 H30 0.931 . S
C11 C7 1.460 . S
C11 C10 1.477 . S
C11 H31 0.930 . S
C12 N8 1.362 . S
C12 C9 1.431 . S
C12 C22 1.476 . S
H13 C7 0.929 . S
C14 O5 1.250 . S
C14 O6 1.258 . S
O15 Mn0 2.162 . S
O15 C3 1.281 . S
O16 Mn0 2.297 . S
O16 C3 1.236 . S
N17 Mn1 2.282 . S
N17 C18 1.328 . S
N17 C22 1.318 . S
C18 N17 1.328 . S
C18 C19 1.457 . S
C18 H23 0.929 . S
C19 C18 1.457 . S
C19 C20 1.291 1_455 S
C19 H32 0.931 1_455 S
C20 C19 1.291 1_655 S
C20 C21 1.373 1_655 S
C20 H33 0.929 . S
C21 C20 1.373 1_455 S
C21 C22 1.396 . S
C21 C28 1.403 1_455 S
C22 C12 1.476 . S
C22 N17 1.318 . S
C22 C21 1.396 . S
H23 C18 0.929 . S
O24 Mn0 2.385 . S
O24 C2 1.234 . S
O25 Mn0 2.209 . S
O25 Mn1 2.215 . S
O25 C2 1.283 . S
O26 Mn0 2.094 . S
O26 C4 1.240 . S
O27 Mn1 2.117 . S
O27 C4 1.264 . S
C28 C21 1.403 1_655 S
C28 C29 1.399 1_655 S
C28 H34 0.929 . S
C29 C9 1.449 . S
C29 C28 1.399 1_455 S
C29 H35 0.930 1_455 S
H30 C10 0.931 . S
H31 C11 0.930 . S
H32 C19 0.931 1_655 S
H33 C20 0.929 . S
H34 C28 0.929 . S
H35 C29 0.930 1_655 S
Mn36 O41 2.101 1_455 S
Mn36 O51 2.161 1_455 S
Mn36 O52 2.296 1_455 S
Mn36 O60 2.379 . S
Mn36 O61 2.206 . S
Mn36 O62 2.098 . S
Mn37 O42 2.121 1_455 S
Mn37 N44 2.257 . S
Mn37 N53 2.282 . S
Mn37 O61 2.215 . S
Mn37 O63 2.117 . S
C38 O60 1.234 . S
C38 O61 1.283 . S
C39 O51 1.281 . S
C39 O52 1.236 . S
C40 O62 1.235 . S
C40 O63 1.264 . S
O41 Mn36 2.101 1_655 S
O41 C50 1.250 . S
O42 Mn37 2.121 1_655 S
O42 C50 1.258 . S
C43 N44 1.326 . S
C43 C47 1.460 . S
C43 H49 0.929 1_455 S
N44 Mn37 2.257 . S
N44 C43 1.326 . S
N44 C48 1.362 . S
C45 C46 1.258 . S
C45 C48 1.431 . S
C45 C65 1.449 . S
C46 C45 1.258 . S
C46 C47 1.477 . S
C46 H66 0.931 . S
C47 C43 1.460 . S
C47 C46 1.477 . S
C47 H67 0.930 . S
C48 N44 1.362 . S
C48 C45 1.431 . S
C48 C58 1.476 . S
H49 C43 0.929 1_655 S
C50 O41 1.250 . S
C50 O42 1.258 . S
O51 Mn36 2.161 1_655 S
O51 C39 1.281 . S
O52 Mn36 2.296 1_655 S
O52 C39 1.236 . S
N53 Mn37 2.282 . S
N53 C54 1.328 . S
N53 C58 1.318 . S
C54 N53 1.328 . S
C54 C55 1.457 . S
C54 H59 0.929 . S
C55 C54 1.457 . S
C55 C56 1.291 . S
C55 H68 0.931 . S
C56 C55 1.291 . S
C56 C57 1.373 . S
C56 H69 0.929 . S
C57 C56 1.373 . S
C57 C58 1.396 . S
C57 C64 1.403 . S
C58 C48 1.476 . S
C58 N53 1.318 . S
C58 C57 1.396 . S
H59 C54 0.929 . S
O60 Mn36 2.379 . S
O60 C38 1.234 . S
O61 Mn36 2.206 . S
O61 Mn37 2.215 . S
O61 C38 1.283 . S
O62 Mn36 2.098 . S
O62 C40 1.235 . S
O63 Mn37 2.117 . S
O63 C40 1.264 . S
C64 C57 1.403 . S
C64 C65 1.399 . S
C64 H70 0.929 . S
C65 C45 1.449 . S
C65 C64 1.399 . S
C65 H71 0.930 . S
H66 C46 0.931 . S
H67 C47 0.930 . S
H68 C55 0.931 . S
H69 C56 0.929 . S
H70 C64 0.929 . S
H71 C65 0.930 . S
Mn72 O77 2.095 1_554 S
Mn72 O87 2.162 . S
Mn72 O88 2.297 1_554 S
Mn72 O96 2.386 . S
Mn72 O97 2.209 1_554 S
Mn72 O98 2.094 . S
Mn73 O78 2.121 . S
Mn73 N80 2.257 . S
Mn73 N89 2.282 . S
Mn73 O97 2.215 . S
Mn73 O99 2.118 1_556 S
C74 O96 1.199 1_556 S
C74 O97 1.283 . S
C75 O87 1.281 . S
C75 O88 1.236 1_554 S
C76 O98 1.240 . S
C76 O99 1.263 . S
O77 Mn72 2.095 1_556 S
O77 C86 1.250 . S
O78 Mn73 2.121 . S
O78 C86 1.258 . S
C79 N80 1.326 . S
C79 C83 1.460 . S
C79 H85 0.929 . S
N80 Mn73 2.257 . S
N80 C79 1.326 . S
N80 C84 1.362 . S
C81 C82 1.258 . S
C81 C84 1.431 . S
C81 C101 1.449 . S
C82 C81 1.258 . S
C82 C83 1.477 . S
C82 H102 0.931 . S
C83 C79 1.460 . S
C83 C82 1.477 . S
C83 H103 0.930 . S
C84 N80 1.362 . S
C84 C81 1.431 . S
C84 C94 1.476 . S
H85 C79 0.929 . S
C86 O77 1.250 . S
C86 O78 1.258 . S
O87 Mn72 2.162 . S
O87 C75 1.281 . S
O88 Mn72 2.297 1_556 S
O88 C75 1.236 1_556 S
N89 Mn73 2.282 . S
N89 C90 1.328 . S
N89 C94 1.318 . S
C90 N89 1.328 . S
C90 C91 1.457 . S
C90 H95 0.929 . S
C91 C90 1.457 . S
C91 C92 1.291 . S
C91 H104 0.931 . S
C92 C91 1.291 . S
C92 C93 1.373 . S
C92 H105 0.929 . S
C93 C92 1.373 . S
C93 C94 1.396 . S
C93 C100 1.403 . S
C94 C84 1.476 . S
C94 N89 1.318 . S
C94 C93 1.396 . S
H95 C90 0.929 . S
O96 Mn72 2.386 . S
O96 C74 1.199 1_554 S
O97 Mn72 2.209 1_556 S
O97 Mn73 2.215 . S
O97 C74 1.283 . S
O98 Mn72 2.094 . S
O98 C76 1.240 . S
O99 Mn73 2.118 1_554 S
O99 C76 1.263 . S
C100 C93 1.403 . S
C100 C101 1.399 . S
C100 H106 0.929 . S
C101 C81 1.449 . S
C101 C100 1.399 . S
C101 H107 0.930 . S
H102 C82 0.931 . S
H103 C83 0.930 . S
H104 C91 0.931 . S
H105 C92 0.929 . S
H106 C100 0.929 . S
H107 C101 0.930 . S
Mn108 O113 2.095 . S
Mn108 O123 2.162 . S
Mn108 O124 2.297 . S
Mn108 O132 2.385 . S
Mn108 O133 2.209 . S
Mn108 O134 2.094 . S
Mn109 O114 2.121 . S
Mn109 N116 2.257 . S
Mn109 N125 2.282 . S
Mn109 O133 2.215 . S
Mn109 O135 2.117 . S
C110 O132 1.234 . S
C110 O133 1.283 . S
C111 O123 1.281 . S
C111 O124 1.236 . S
C112 O134 1.240 . S
C112 O135 1.264 . S
O113 Mn108 2.095 . S
O113 C122 1.250 . S
O114 Mn109 2.121 . S
O114 C122 1.258 . S
C115 N116 1.326 . S
C115 C119 1.460 . S
C115 H121 0.929 . S
N116 Mn109 2.257 . S
N116 C115 1.326 . S
N116 C120 1.362 . S
C117 C118 1.258 . S
C117 C120 1.431 . S
C117 C137 1.449 . S
C118 C117 1.258 . S
C118 C119 1.477 . S
C118 H138 0.931 1_554 S
C119 C115 1.460 . S
C119 C118 1.477 . S
C119 H139 0.930 . S
C120 N116 1.362 . S
C120 C117 1.431 . S
C120 C130 1.476 . S
H121 C115 0.929 . S
C122 O113 1.250 . S
C122 O114 1.258 . S
O123 Mn108 2.162 . S
O123 C111 1.281 . S
O124 Mn108 2.297 . S
O124 C111 1.236 . S
N125 Mn109 2.282 . S
N125 C126 1.328 . S
N125 C130 1.318 . S
C126 N125 1.328 . S
C126 C127 1.457 . S
C126 H131 0.929 . S
C127 C126 1.457 . S
C127 C128 1.291 . S
C127 H140 0.931 . S
C128 C127 1.291 . S
C128 C129 1.373 . S
C128 H141 0.929 . S
C129 C128 1.373 . S
C129 C130 1.396 . S
C129 C136 1.403 . S
C130 C120 1.476 . S
C130 N125 1.318 . S
C130 C129 1.396 . S
H131 C126 0.929 . S
O132 Mn108 2.385 . S
O132 C110 1.234 . S
O133 Mn108 2.209 . S
O133 Mn109 2.215 . S
O133 C110 1.283 . S
O134 Mn108 2.094 . S
O134 C112 1.240 . S
O135 Mn109 2.117 . S
O135 C112 1.264 . S
C136 C129 1.403 . S
C136 C137 1.399 . S
C136 H142 0.929 . S
C137 C117 1.449 . S
C137 C136 1.399 . S
C137 H143 0.930 1_554 S
H138 C118 0.931 1_556 S
H139 C119 0.930 . S
H140 C127 0.931 . S
H141 C128 0.929 . S
H142 C136 0.929 . S
H143 C137 0.930 1_556 S
Mn144 O149 2.095 . S
Mn144 O159 2.162 . S
Mn144 O160 2.297 . S
Mn144 O168 2.385 . S
Mn144 O169 2.209 . S
Mn144 O170 2.094 . S
Mn145 O150 2.121 1_655 S
Mn145 N152 2.257 . S
Mn145 N161 2.282 . S
Mn145 O169 2.215 1_655 S
Mn145 O171 2.117 . S
C146 O168 1.234 . S
C146 O169 1.283 . S
C147 O159 1.281 . S
C147 O160 1.236 . S
C148 O170 1.240 1_655 S
C148 O171 1.264 . S
O149 Mn144 2.095 . S
O149 C158 1.250 . S
O150 Mn145 2.121 1_455 S
O150 C158 1.258 . S
C151 N152 1.326 . S
C151 C155 1.460 . S
C151 H157 0.929 1_655 S
N152 Mn145 2.257 . S
N152 C151 1.326 . S
N152 C156 1.362 . S
C153 C154 1.258 . S
C153 C156 1.431 . S
C153 C173 1.449 . S
C154 C153 1.258 . S
C154 C155 1.477 . S
C154 H174 0.931 . S
C155 C151 1.460 . S
C155 C154 1.477 . S
C155 H175 0.930 1_655 S
C156 N152 1.362 . S
C156 C153 1.431 . S
C156 C166 1.476 . S
H157 C151 0.929 1_455 S
C158 O149 1.250 . S
C158 O150 1.258 . S
O159 Mn144 2.162 . S
O159 C147 1.281 . S
O160 Mn144 2.297 . S
O160 C147 1.236 . S
N161 Mn145 2.282 . S
N161 C162 1.328 . S
N161 C166 1.318 . S
C162 N161 1.328 . S
C162 C163 1.457 . S
C162 H167 0.929 . S
C163 C162 1.457 . S
C163 C164 1.291 . S
C163 H176 0.931 . S
C164 C163 1.291 . S
C164 C165 1.373 . S
C164 H177 0.929 . S
C165 C164 1.373 . S
C165 C166 1.396 . S
C165 C172 1.403 . S
C166 C156 1.476 . S
C166 N161 1.318 . S
C166 C165 1.396 . S
H167 C162 0.929 . S
O168 Mn144 2.385 . S
O168 C146 1.234 . S
O169 Mn144 2.209 . S
O169 Mn145 2.215 1_455 S
O169 C146 1.283 . S
O170 Mn144 2.094 . S
O170 C148 1.240 1_455 S
O171 Mn145 2.117 . S
O171 C148 1.264 . S
C172 C165 1.403 . S
C172 C173 1.399 . S
C172 H178 0.929 . S
C173 C153 1.449 . S
C173 C172 1.399 . S
C173 H179 0.930 . S
H174 C154 0.931 . S
H175 C155 0.930 1_455 S
H176 C163 0.931 . S
H177 C164 0.929 . S
H178 C172 0.929 . S
H179 C173 0.930 . S
Mn180 O185 2.095 . S
Mn180 O195 2.162 . S
Mn180 O196 2.297 . S
Mn180 O204 2.385 . S
Mn180 O205 2.209 . S
Mn180 O206 2.094 . S
Mn181 O186 2.121 . S
Mn181 N188 2.257 . S
Mn181 N197 2.282 . S
Mn181 O205 2.215 . S
Mn181 O207 2.117 . S
C182 O204 1.234 . S
C182 O205 1.283 . S
C183 O195 1.281 . S
C183 O196 1.236 . S
C184 O206 1.240 . S
C184 O207 1.264 . S
O185 Mn180 2.095 . S
O185 C194 1.250 . S
O186 Mn181 2.121 . S
O186 C194 1.258 . S
C187 N188 1.326 . S
C187 C191 1.460 . S
C187 H193 0.929 . S
N188 Mn181 2.257 . S
N188 C187 1.326 . S
N188 C192 1.362 . S
C189 C190 1.258 . S
C189 C192 1.431 . S
C189 C209 1.449 . S
C190 C189 1.258 . S
C190 C191 1.477 . S
C190 H210 0.931 . S
C191 C187 1.460 . S
C191 C190 1.477 . S
C191 H211 0.930 . S
C192 N188 1.362 . S
C192 C189 1.431 . S
C192 C202 1.476 . S
H193 C187 0.929 . S
C194 O185 1.250 . S
C194 O186 1.258 . S
O195 Mn180 2.162 . S
O195 C183 1.281 . S
O196 Mn180 2.297 . S
O196 C183 1.236 . S
N197 Mn181 2.282 . S
N197 C198 1.328 . S
N197 C202 1.318 . S
C198 N197 1.328 . S
C198 C199 1.457 . S
C198 H203 0.929 . S
C199 C198 1.457 . S
C199 C200 1.291 . S
C199 H212 0.931 . S
C200 C199 1.291 . S
C200 C201 1.373 . S
C200 H213 0.929 . S
C201 C200 1.373 . S
C201 C202 1.396 . S
C201 C208 1.403 . S
C202 C192 1.476 . S
C202 N197 1.318 . S
C202 C201 1.396 . S
H203 C198 0.929 . S
O204 Mn180 2.385 . S
O204 C182 1.234 . S
O205 Mn180 2.209 . S
O205 Mn181 2.215 . S
O205 C182 1.283 . S
O206 Mn180 2.094 . S
O206 C184 1.240 . S
O207 Mn181 2.117 . S
O207 C184 1.264 . S
C208 C201 1.403 . S
C208 C209 1.399 . S
C208 H214 0.929 . S
C209 C189 1.449 . S
C209 C208 1.399 . S
C209 H215 0.930 . S
H210 C190 0.931 . S
H211 C191 0.930 . S
H212 C199 0.931 . S
H213 C200 0.929 . S
H214 C208 0.929 . S
H215 C209 0.930 . S
Mn216 O221 2.095 . S
Mn216 O231 2.162 . S
Mn216 O232 2.297 . S
Mn216 O240 2.385 . S
Mn216 O241 2.209 . S
Mn216 O242 2.094 . S
Mn217 O222 2.121 . S
Mn217 N224 2.257 . S
Mn217 N233 2.282 . S
Mn217 O241 2.215 . S
Mn217 O243 2.117 . S
C218 O240 1.234 . S
C218 O241 1.283 . S
C219 O231 1.281 . S
C219 O232 1.236 . S
C220 O242 1.240 . S
C220 O243 1.264 . S
O221 Mn216 2.095 . S
O221 C230 1.250 . S
O222 Mn217 2.121 . S
O222 C230 1.258 . S
C223 N224 1.326 . S
C223 C227 1.460 . S
C223 H229 0.929 . S
N224 Mn217 2.257 . S
N224 C223 1.326 . S
N224 C228 1.362 . S
C225 C226 1.258 . S
C225 C228 1.431 . S
C225 C245 1.449 . S
C226 C225 1.258 . S
C226 C227 1.477 . S
C226 H246 0.931 . S
C227 C223 1.460 . S
C227 C226 1.477 . S
C227 H247 0.930 . S
C228 N224 1.362 . S
C228 C225 1.431 . S
C228 C238 1.476 . S
H229 C223 0.929 . S
C230 O221 1.250 . S
C230 O222 1.258 . S
O231 Mn216 2.162 . S
O231 C219 1.281 . S
O232 Mn216 2.297 . S
O232 C219 1.236 . S
N233 Mn217 2.282 . S
N233 C234 1.328 . S
N233 C238 1.318 . S
C234 N233 1.328 . S
C234 C235 1.457 . S
C234 H239 0.929 . S
C235 C234 1.457 . S
C235 C236 1.291 . S
C235 H248 0.931 . S
C236 C235 1.291 . S
C236 C237 1.373 . S
C236 H249 0.929 . S
C237 C236 1.373 . S
C237 C238 1.396 . S
C237 C244 1.403 . S
C238 C228 1.476 . S
C238 N233 1.318 . S
C238 C237 1.396 . S
H239 C234 0.929 . S
O240 Mn216 2.385 . S
O240 C218 1.234 . S
O241 Mn216 2.209 . S
O241 Mn217 2.215 . S
O241 C218 1.283 . S
O242 Mn216 2.094 . S
O242 C220 1.240 . S
O243 Mn217 2.117 . S
O243 C220 1.264 . S
C244 C237 1.403 . S
C244 C245 1.399 . S
C244 H250 0.929 . S
C245 C225 1.449 . S
C245 C244 1.399 . S
C245 H251 0.930 . S
H246 C226 0.931 . S
H247 C227 0.930 . S
H248 C235 0.931 . S
H249 C236 0.929 . S
H250 C244 0.929 . S
H251 C245 0.930 . S
Mn252 O257 2.095 . S
Mn252 O267 2.162 . S
Mn252 O268 2.297 . S
Mn252 O276 2.436 . S
Mn252 O277 2.209 . S
Mn252 O278 2.094 . S
Mn253 O258 2.121 . S
Mn253 N260 2.257 . S
Mn253 N269 2.282 . S
Mn253 O277 2.215 . S
Mn253 O279 2.117 . S
C254 O276 1.245 . S
C254 O277 1.283 . S
C255 O267 1.281 . S
C255 O268 1.236 . S
C256 O278 1.240 . S
C256 O279 1.264 . S
O257 Mn252 2.095 . S
O257 C266 1.250 . S
O258 Mn253 2.121 . S
O258 C266 1.258 . S
C259 N260 1.326 . S
C259 C263 1.460 . S
C259 H265 0.929 . S
N260 Mn253 2.257 . S
N260 C259 1.326 . S
N260 C264 1.362 . S
C261 C262 1.258 1_655 S
C261 C264 1.431 1_655 S
C261 C281 1.449 . S
C262 C261 1.258 1_455 S
C262 C263 1.477 . S
C262 H282 0.931 1_455 S
C263 C259 1.460 . S
C263 C262 1.477 . S
C263 H283 0.930 . S
C264 N260 1.362 . S
C264 C261 1.431 1_455 S
C264 C274 1.476 1_455 S
H265 C259 0.929 . S
C266 O257 1.250 . S
C266 O258 1.258 . S
O267 Mn252 2.162 . S
O267 C255 1.281 . S
O268 Mn252 2.297 . S
O268 C255 1.236 . S
N269 Mn253 2.282 . S
N269 C270 1.328 1_455 S
N269 C274 1.318 1_455 S
C270 N269 1.328 1_655 S
C270 C271 1.457 . S
C270 H275 0.929 1_655 S
C271 C270 1.457 . S
C271 C272 1.291 . S
C271 H284 0.931 . S
C272 C271 1.291 . S
C272 C273 1.373 . S
C272 H285 0.929 . S
C273 C272 1.373 . S
C273 C274 1.396 . S
C273 C280 1.403 . S
C274 C264 1.476 1_655 S
C274 N269 1.318 1_655 S
C274 C273 1.396 . S
H275 C270 0.929 1_455 S
O276 Mn252 2.436 . S
O276 C254 1.245 . S
O277 Mn252 2.209 . S
O277 Mn253 2.215 . S
O277 C254 1.283 . S
O278 Mn252 2.094 . S
O278 C256 1.240 . S
O279 Mn253 2.117 . S
O279 C256 1.264 . S
C280 C273 1.403 . S
C280 C281 1.399 . S
C280 H286 0.929 . S
C281 C261 1.449 . S
C281 C280 1.399 . S
C281 H287 0.930 . S
H282 C262 0.931 1_655 S
H283 C263 0.930 . S
H284 C271 0.931 . S
H285 C272 0.929 . S
H286 C280 0.929 . S
H287 C281 0.930 . S
Mn288 O293 2.095 . S
Mn288 O303 2.162 . S
Mn288 O304 2.297 . S
Mn288 O312 2.385 . S
Mn288 O313 2.209 . S
Mn288 O314 2.094 . S
Mn289 O294 2.121 . S
Mn289 N296 2.257 . S
Mn289 N305 2.282 . S
Mn289 O313 2.215 . S
Mn289 O315 2.117 . S
C290 O312 1.234 . S
C290 O313 1.283 . S
C291 O303 1.281 . S
C291 O304 1.236 . S
C292 O314 1.240 . S
C292 O315 1.264 . S
O293 Mn288 2.095 . S
O293 C302 1.250 . S
O294 Mn289 2.121 . S
O294 C302 1.258 . S
C295 N296 1.326 . S
C295 C299 1.460 . S
C295 H301 0.929 . S
N296 Mn289 2.257 . S
N296 C295 1.326 . S
N296 C300 1.362 . S
C297 C298 1.258 . S
C297 C300 1.431 . S
C297 C317 1.449 . S
C298 C297 1.258 . S
C298 C299 1.477 . S
C298 H318 0.931 . S
C299 C295 1.460 . S
C299 C298 1.477 . S
C299 H319 0.930 . S
C300 N296 1.362 . S
C300 C297 1.431 . S
C300 C310 1.476 . S
H301 C295 0.929 . S
C302 O293 1.250 . S
C302 O294 1.258 . S
O303 Mn288 2.162 . S
O303 C291 1.281 . S
O304 Mn288 2.297 . S
O304 C291 1.236 . S
N305 Mn289 2.282 . S
N305 C306 1.328 . S
N305 C310 1.318 . S
C306 N305 1.328 . S
C306 C307 1.457 . S
C306 H311 0.929 . S
C307 C306 1.457 . S
C307 C308 1.291 . S
C307 H320 0.931 . S
C308 C307 1.291 . S
C308 C309 1.373 . S
C308 H321 0.929 . S
C309 C308 1.373 . S
C309 C310 1.396 . S
C309 C316 1.403 . S
C310 C300 1.476 . S
C310 N305 1.318 . S
C310 C309 1.396 . S
H311 C306 0.929 . S
O312 Mn288 2.385 . S
O312 C290 1.234 . S
O313 Mn288 2.209 . S
O313 Mn289 2.215 . S
O313 C290 1.283 . S
O314 Mn288 2.094 . S
O314 C292 1.240 . S
O315 Mn289 2.117 . S
O315 C292 1.264 . S
C316 C309 1.403 . S
C316 C317 1.399 . S
C316 H322 0.929 . S
C317 C297 1.449 . S
C317 C316 1.399 . S
C317 H323 0.930 . S
H318 C298 0.931 . S
H319 C299 0.930 . S
H320 C307 0.931 . S
H321 C308 0.929 . S
H322 C316 0.929 . S
H323 C317 0.930 . S
Mn324 O329 2.095 . S
Mn324 O339 2.162 . S
Mn324 O340 2.297 . S
Mn324 O348 2.385 . S
Mn324 O349 2.209 . S
Mn324 O350 2.094 . S
Mn325 O330 2.121 . S
Mn325 N332 2.257 . S
Mn325 N341 2.282 . S
Mn325 O349 2.215 . S
Mn325 O351 2.117 . S
C326 O348 1.234 . S
C326 O349 1.283 . S
C327 O339 1.281 . S
C327 O340 1.236 . S
C328 O350 1.240 . S
C328 O351 1.264 . S
O329 Mn324 2.095 . S
O329 C338 1.250 . S
O330 Mn325 2.121 . S
O330 C338 1.258 . S
C331 N332 1.326 . S
C331 C335 1.460 . S
C331 H337 0.929 . S
N332 Mn325 2.257 . S
N332 C331 1.326 . S
N332 C336 1.362 . S
C333 C334 1.258 . S
C333 C336 1.431 . S
C333 C353 1.449 . S
C334 C333 1.258 . S
C334 C335 1.477 . S
C334 H354 0.931 . S
C335 C331 1.460 . S
C335 C334 1.477 . S
C335 H355 0.930 . S
C336 N332 1.362 . S
C336 C333 1.431 . S
C336 C346 1.476 . S
H337 C331 0.929 . S
C338 O329 1.250 . S
C338 O330 1.258 . S
O339 Mn324 2.162 . S
O339 C327 1.281 . S
O340 Mn324 2.297 . S
O340 C327 1.236 . S
N341 Mn325 2.282 . S
N341 C342 1.328 . S
N341 C346 1.318 . S
C342 N341 1.328 . S
C342 C343 1.457 . S
C342 H347 0.929 . S
C343 C342 1.457 . S
C343 C344 1.291 . S
C343 H356 0.931 . S
C344 C343 1.291 . S
C344 C345 1.373 . S
C344 H357 0.929 . S
C345 C344 1.373 . S
C345 C346 1.396 . S
C345 C352 1.403 . S
C346 C336 1.476 . S
C346 N341 1.318 . S
C346 C345 1.396 . S
H347 C342 0.929 . S
O348 Mn324 2.385 . S
O348 C326 1.234 . S
O349 Mn324 2.209 . S
O349 Mn325 2.215 . S
O349 C326 1.283 . S
O350 Mn324 2.094 . S
O350 C328 1.240 . S
O351 Mn325 2.117 . S
O351 C328 1.264 . S
C352 C345 1.403 . S
C352 C353 1.399 . S
C352 H358 0.929 . S
C353 C333 1.449 . S
C353 C352 1.399 . S
C353 H359 0.930 . S
H354 C334 0.931 . S
H355 C335 0.930 . S
H356 C343 0.931 . S
H357 C344 0.929 . S
H358 C352 0.929 . S
H359 C353 0.930 . S
Mn360 O365 2.095 . S
Mn360 O375 2.162 . S
Mn360 O376 2.297 . S
Mn360 O384 2.385 . S
Mn360 O385 2.209 . S
Mn360 O386 2.094 . S
Mn361 O366 2.121 . S
Mn361 N368 2.257 . S
Mn361 N377 2.282 . S
Mn361 O385 2.215 . S
Mn361 O387 2.117 . S
C362 O384 1.234 . S
C362 O385 1.283 . S
C363 O375 1.281 . S
C363 O376 1.236 . S
C364 O386 1.240 . S
C364 O387 1.264 . S
O365 Mn360 2.095 . S
O365 C374 1.259 . S
O366 Mn361 2.121 . S
O366 C374 1.267 . S
C367 N368 1.326 . S
C367 C371 1.460 . S
C367 H373 0.929 . S
N368 Mn361 2.257 . S
N368 C367 1.326 . S
N368 C372 1.362 . S
C369 C370 1.258 . S
C369 C372 1.431 . S
C369 C389 1.449 . S
C370 C369 1.258 . S
C370 C371 1.477 . S
C370 H390 0.931 . S
C371 C367 1.460 . S
C371 C370 1.477 . S
C371 H391 0.930 . S
C372 N368 1.362 . S
C372 C369 1.431 . S
C372 C382 1.476 . S
H373 C367 0.929 . S
C374 O365 1.259 . S
C374 O366 1.267 . S
O375 Mn360 2.162 . S
O375 C363 1.281 . S
O376 Mn360 2.297 . S
O376 C363 1.236 . S
N377 Mn361 2.282 . S
N377 C378 1.328 . S
N377 C382 1.318 . S
C378 N377 1.328 . S
C378 C379 1.457 . S
C378 H383 0.929 . S
C379 C378 1.457 . S
C379 C380 1.291 . S
C379 H392 0.931 . S
C380 C379 1.291 . S
C380 C381 1.373 . S
C380 H393 0.929 . S
C381 C380 1.373 . S
C381 C382 1.396 . S
C381 C388 1.403 . S
C382 C372 1.476 . S
C382 N377 1.318 . S
C382 C381 1.396 . S
H383 C378 0.929 . S
O384 Mn360 2.385 . S
O384 C362 1.234 . S
O385 Mn360 2.209 . S
O385 Mn361 2.215 . S
O385 C362 1.283 . S
O386 Mn360 2.094 . S
O386 C364 1.240 . S
O387 Mn361 2.117 . S
O387 C364 1.264 . S
C388 C381 1.403 . S
C388 C389 1.399 . S
C388 H394 0.929 . S
C389 C369 1.449 . S
C389 C388 1.399 . S
C389 H395 0.930 . S
H390 C370 0.931 . S
H391 C371 0.930 . S
H392 C379 0.931 . S
H393 C380 0.929 . S
H394 C388 0.929 . S
H395 C389 0.930 . S
Mn396 O401 2.095 . S
Mn396 O411 2.162 . S
Mn396 O412 2.297 . S
Mn396 O420 2.385 . S
Mn396 O421 2.209 . S
Mn396 O422 2.094 . S
Mn397 O402 2.121 . S
Mn397 N404 2.257 . S
Mn397 N413 2.282 . S
Mn397 O421 2.215 . S
Mn397 O423 2.117 . S
C398 O420 1.234 . S
C398 O421 1.283 . S
C399 O411 1.281 . S
C399 O412 1.236 . S
C400 O422 1.240 . S
C400 O423 1.264 . S
O401 Mn396 2.095 . S
O401 C410 1.250 . S
O402 Mn397 2.121 . S
O402 C410 1.258 . S
C403 N404 1.326 . S
C403 C407 1.460 1_565 S
C403 H409 0.929 . S
N404 Mn397 2.257 . S
N404 C403 1.326 . S
N404 C408 1.362 . S
C405 C406 1.258 . S
C405 C408 1.431 1_545 S
C405 C425 1.449 . S
C406 C405 1.258 . S
C406 C407 1.477 . S
C406 H426 0.931 . S
C407 C403 1.460 1_545 S
C407 C406 1.477 . S
C407 H427 0.930 . S
C408 N404 1.362 . S
C408 C405 1.431 1_565 S
C408 C418 1.476 . S
H409 C403 0.929 . S
C410 O401 1.250 . S
C410 O402 1.258 . S
O411 Mn396 2.162 . S
O411 C399 1.281 . S
O412 Mn396 2.297 . S
O412 C399 1.236 . S
N413 Mn397 2.282 . S
N413 C414 1.328 . S
N413 C418 1.318 . S
C414 N413 1.328 . S
C414 C415 1.457 . S
C414 H419 0.929 . S
C415 C414 1.457 . S
C415 C416 1.291 . S
C415 H428 0.931 . S
C416 C415 1.291 . S
C416 C417 1.373 . S
C416 H429 0.929 . S
C417 C416 1.373 . S
C417 C418 1.396 . S
C417 C424 1.403 . S
C418 C408 1.476 . S
C418 N413 1.318 . S
C418 C417 1.396 . S
H419 C414 0.929 . S
O420 Mn396 2.385 . S
O420 C398 1.234 . S
O421 Mn396 2.209 . S
O421 Mn397 2.215 . S
O421 C398 1.283 . S
O422 Mn396 2.094 . S
O422 C400 1.240 . S
O423 Mn397 2.117 . S
O423 C400 1.264 . S
C424 C417 1.403 . S
C424 C425 1.399 1_565 S
C424 H430 0.929 1_565 S
C425 C405 1.449 . S
C425 C424 1.399 1_545 S
C425 H431 0.930 . S
H426 C406 0.931 . S
H427 C407 0.930 . S
H428 C415 0.931 . S
H429 C416 0.929 . S
H430 C424 0.929 1_545 S
H431 C425 0.930 . S
Mn432 O437 2.095 . S
Mn432 O447 2.162 . S
Mn432 O448 2.297 . S
Mn432 O456 2.385 . S
Mn432 O457 2.209 . S
Mn432 O458 2.094 . S
Mn433 O438 2.121 . S
Mn433 N440 2.257 . S
Mn433 N449 2.282 . S
Mn433 O457 2.215 . S
Mn433 O459 2.117 . S
C434 O456 1.234 . S
C434 O457 1.283 . S
C435 O447 1.281 . S
C435 O448 1.236 . S
C436 O458 1.240 . S
C436 O459 1.264 . S
O437 Mn432 2.095 . S
O437 C446 1.250 . S
O438 Mn433 2.121 . S
O438 C446 1.258 . S
C439 N440 1.326 . S
C439 C443 1.460 . S
C439 H445 0.929 . S
N440 Mn433 2.257 . S
N440 C439 1.326 . S
N440 C444 1.362 . S
C441 C442 1.258 . S
C441 C444 1.431 . S
C441 C461 1.449 . S
C442 C441 1.258 . S
C442 C443 1.477 . S
C442 H462 0.931 . S
C443 C439 1.460 . S
C443 C442 1.477 . S
C443 H463 0.930 . S
C444 N440 1.362 . S
C444 C441 1.431 . S
C444 C454 1.476 . S
H445 C439 0.929 . S
C446 O437 1.250 . S
C446 O438 1.258 . S
O447 Mn432 2.162 . S
O447 C435 1.281 . S
O448 Mn432 2.297 . S
O448 C435 1.236 . S
N449 Mn433 2.282 . S
N449 C450 1.328 . S
N449 C454 1.318 . S
C450 N449 1.328 . S
C450 C451 1.457 . S
C450 H455 0.929 . S
C451 C450 1.457 . S
C451 C452 1.291 . S
C451 H464 0.931 . S
C452 C451 1.291 . S
C452 C453 1.373 . S
C452 H465 0.929 . S
C453 C452 1.373 . S
C453 C454 1.396 . S
C453 C460 1.403 . S
C454 C444 1.476 . S
C454 N449 1.318 . S
C454 C453 1.396 . S
H455 C450 0.929 . S
O456 Mn432 2.385 . S
O456 C434 1.234 . S
O457 Mn432 2.209 . S
O457 Mn433 2.215 . S
O457 C434 1.283 . S
O458 Mn432 2.094 . S
O458 C436 1.240 . S
O459 Mn433 2.117 . S
O459 C436 1.264 . S
C460 C453 1.403 . S
C460 C461 1.399 . S
C460 H466 0.929 . S
C461 C441 1.449 . S
C461 C460 1.399 . S
C461 H467 0.930 . S
H462 C442 0.931 . S
H463 C443 0.930 . S
H464 C451 0.931 . S
H465 C452 0.929 . S
H466 C460 0.929 . S
H467 C461 0.930 . S
Mn468 O473 2.095 . S
Mn468 O483 2.162 . S
Mn468 O484 2.297 . S
Mn468 O492 2.385 . S
Mn468 O493 2.209 . S
Mn468 O494 2.094 . S
Mn469 O474 2.121 . S
Mn469 N476 2.257 . S
Mn469 N485 2.282 1_554 S
Mn469 O493 2.215 . S
Mn469 O495 2.117 . S
C470 O492 1.234 . S
C470 O493 1.283 . S
C471 O483 1.281 . S
C471 O484 1.236 . S
C472 O494 1.240 . S
C472 O495 1.264 . S
O473 Mn468 2.095 . S
O473 C482 1.250 . S
O474 Mn469 2.121 . S
O474 C482 1.258 . S
C475 N476 1.326 . S
C475 C479 1.460 . S
C475 H481 0.929 . S
N476 Mn469 2.257 . S
N476 C475 1.326 . S
N476 C480 1.362 . S
C477 C478 1.261 . S
C477 C480 1.430 . S
C477 C497 1.446 1_554 S
C478 C477 1.261 . S
C478 C479 1.477 . S
C478 H498 0.931 . S
C479 C475 1.460 . S
C479 C478 1.477 . S
C479 H499 0.930 . S
C480 N476 1.362 . S
C480 C477 1.430 . S
C480 C490 1.476 1_554 S
H481 C475 0.929 . S
C482 O473 1.250 . S
C482 O474 1.258 . S
O483 Mn468 2.162 . S
O483 C471 1.281 . S
O484 Mn468 2.297 . S
O484 C471 1.236 . S
N485 Mn469 2.282 1_556 S
N485 C486 1.328 . S
N485 C490 1.318 . S
C486 N485 1.328 . S
C486 C487 1.457 . S
C486 H491 0.929 . S
C487 C486 1.457 . S
C487 C488 1.291 . S
C487 H500 0.931 . S
C488 C487 1.291 . S
C488 C489 1.373 . S
C488 H501 0.929 . S
C489 C488 1.373 . S
C489 C490 1.396 . S
C489 C496 1.403 . S
C490 C480 1.476 1_556 S
C490 N485 1.318 . S
C490 C489 1.396 . S
H491 C486 0.929 . S
O492 Mn468 2.385 . S
O492 C470 1.234 . S
O493 Mn468 2.209 . S
O493 Mn469 2.215 . S
O493 C470 1.283 . S
O494 Mn468 2.094 . S
O494 C472 1.240 . S
O495 Mn469 2.117 . S
O495 C472 1.264 . S
C496 C489 1.403 . S
C496 C497 1.399 . S
C496 H502 0.929 . S
C497 C477 1.446 1_556 S
C497 C496 1.399 . S
C497 H503 0.930 . S
H498 C478 0.931 . S
H499 C479 0.930 . S
H500 C487 0.931 . S
H501 C488 0.929 . S
H502 C496 0.929 . S
H503 C497 0.930 . S
Mn504 O509 2.095 . S
Mn504 O519 2.162 . S
Mn504 O520 2.297 . S
Mn504 O528 2.385 . S
Mn504 O529 2.209 . S
Mn504 O530 2.094 . S
Mn505 O510 2.121 . S
Mn505 N512 2.257 . S
Mn505 N521 2.282 . S
Mn505 O529 2.215 . S
Mn505 O531 2.117 . S
C506 O528 1.234 . S
C506 O529 1.283 . S
C507 O519 1.281 . S
C507 O520 1.236 . S
C508 O530 1.240 . S
C508 O531 1.264 . S
O509 Mn504 2.095 . S
O509 C518 1.250 . S
O510 Mn505 2.121 . S
O510 C518 1.258 . S
C511 N512 1.326 . S
C511 C515 1.460 . S
C511 H517 0.929 . S
N512 Mn505 2.257 . S
N512 C511 1.326 . S
N512 C516 1.362 . S
C513 C514 1.258 . S
C513 C516 1.431 . S
C513 C533 1.449 . S
C514 C513 1.258 . S
C514 C515 1.477 . S
C514 H534 0.931 . S
C515 C511 1.460 . S
C515 C514 1.477 . S
C515 H535 0.930 . S
C516 N512 1.362 . S
C516 C513 1.431 . S
C516 C526 1.476 . S
H517 C511 0.929 . S
C518 O509 1.250 . S
C518 O510 1.258 . S
O519 Mn504 2.162 . S
O519 C507 1.281 . S
O520 Mn504 2.297 . S
O520 C507 1.236 . S
N521 Mn505 2.282 . S
N521 C522 1.328 . S
N521 C526 1.318 . S
C522 N521 1.328 . S
C522 C523 1.457 . S
C522 H527 0.929 . S
C523 C522 1.457 . S
C523 C524 1.291 . S
C523 H536 0.931 . S
C524 C523 1.291 . S
C524 C525 1.373 . S
C524 H537 0.929 . S
C525 C524 1.373 . S
C525 C526 1.396 . S
C525 C532 1.403 . S
C526 C516 1.476 . S
C526 N521 1.318 . S
C526 C525 1.396 . S
H527 C522 0.929 . S
O528 Mn504 2.385 . S
O528 C506 1.234 . S
O529 Mn504 2.209 . S
O529 Mn505 2.215 . S
O529 C506 1.283 . S
O530 Mn504 2.094 . S
O530 C508 1.240 . S
O531 Mn505 2.117 . S
O531 C508 1.264 . S
C532 C525 1.403 . S
C532 C533 1.399 . S
C532 H538 0.929 . S
C533 C513 1.449 . S
C533 C532 1.399 . S
C533 H539 0.930 . S
H534 C514 0.931 . S
H535 C515 0.930 . S
H536 C523 0.931 . S
H537 C524 0.929 . S
H538 C532 0.929 . S
H539 C533 0.930 . S
Mn540 O545 2.095 . S
Mn540 O555 2.162 . S
Mn540 O556 2.297 . S
Mn540 O564 2.385 . S
Mn540 O565 2.209 1_565 S
Mn540 O566 2.094 . S
Mn541 O546 2.121 . S
Mn541 N548 2.257 . S
Mn541 N557 2.282 . S
Mn541 O565 2.215 . S
Mn541 O567 2.117 1_545 S
C542 O564 1.234 . S
C542 O565 1.283 1_565 S
C543 O555 1.281 . S
C543 O556 1.236 . S
C544 O566 1.240 . S
C544 O567 1.264 . S
O545 Mn540 2.095 . S
O545 C554 1.267 . S
O546 Mn541 2.121 . S
O546 C554 1.247 1_545 S
C547 N548 1.326 . S
C547 C551 1.460 . S
C547 H553 0.929 . S
N548 Mn541 2.257 . S
N548 C547 1.326 . S
N548 C552 1.362 . S
C549 C550 1.258 . S
C549 C552 1.431 . S
C549 C569 1.449 . S
C550 C549 1.258 . S
C550 C551 1.477 . S
C550 H570 0.931 . S
C551 C547 1.460 . S
C551 C550 1.477 . S
C551 H571 0.930 . S
C552 N548 1.362 . S
C552 C549 1.431 . S
C552 C562 1.476 . S
H553 C547 0.929 . S
C554 O545 1.267 . S
C554 O546 1.247 1_565 S
O555 Mn540 2.162 . S
O555 C543 1.281 . S
O556 Mn540 2.297 . S
O556 C543 1.236 . S
N557 Mn541 2.282 . S
N557 C558 1.328 . S
N557 C562 1.318 . S
C558 N557 1.328 . S
C558 C559 1.457 . S
C558 H563 0.929 1_545 S
C559 C558 1.457 . S
C559 C560 1.291 . S
C559 H572 0.931 1_545 S
C560 C559 1.291 . S
C560 C561 1.373 . S
C560 H573 0.929 . S
C561 C560 1.373 . S
C561 C562 1.396 . S
C561 C568 1.403 . S
C562 C552 1.476 . S
C562 N557 1.318 . S
C562 C561 1.396 . S
H563 C558 0.929 1_565 S
O564 Mn540 2.385 . S
O564 C542 1.234 . S
O565 Mn540 2.209 1_545 S
O565 Mn541 2.215 . S
O565 C542 1.283 1_545 S
O566 Mn540 2.094 . S
O566 C544 1.240 . S
O567 Mn541 2.117 1_565 S
O567 C544 1.264 . S
C568 C561 1.403 . S
C568 C569 1.399 . S
C568 H574 0.929 . S
C569 C549 1.449 . S
C569 C568 1.399 . S
C569 H575 0.930 . S
H570 C550 0.931 . S
H571 C551 0.930 . S
H572 C559 0.931 1_565 S
H573 C560 0.929 . S
H574 C568 0.929 . S
H575 C569 0.930 . S
Mn576 O581 2.095 . S
Mn576 O591 2.162 . S
Mn576 O592 2.297 . S
Mn576 O600 2.385 . S
Mn576 O601 2.209 . S
Mn576 O602 2.094 . S
Mn577 O582 2.121 . S
Mn577 N584 2.257 . S
Mn577 N593 2.282 . S
Mn577 O601 2.215 . S
Mn577 O603 2.117 . S
C578 O600 1.234 . S
C578 O601 1.283 . S
C579 O591 1.281 . S
C579 O592 1.236 . S
C580 O602 1.240 . S
C580 O603 1.264 . S
O581 Mn576 2.095 . S
O581 C590 1.250 . S
O582 Mn577 2.121 . S
O582 C590 1.258 . S
C583 N584 1.326 . S
C583 C587 1.460 . S
C583 H589 0.929 . S
N584 Mn577 2.257 . S
N584 C583 1.326 . S
N584 C588 1.362 . S
C585 C586 1.258 . S
C585 C588 1.431 . S
C585 C605 1.449 . S
C586 C585 1.258 . S
C586 C587 1.477 . S
C586 H606 0.931 . S
C587 C583 1.460 . S
C587 C586 1.477 . S
C587 H607 0.930 . S
C588 N584 1.362 . S
C588 C585 1.431 . S
C588 C598 1.476 . S
H589 C583 0.929 . S
C590 O581 1.250 . S
C590 O582 1.258 . S
O591 Mn576 2.162 . S
O591 C579 1.281 . S
O592 Mn576 2.297 . S
O592 C579 1.236 . S
N593 Mn577 2.282 . S
N593 C594 1.328 . S
N593 C598 1.318 . S
C594 N593 1.328 . S
C594 C595 1.457 . S
C594 H599 0.929 . S
C595 C594 1.457 . S
C595 C596 1.296 . S
C595 H608 0.931 . S
C596 C595 1.296 . S
C596 C597 1.385 . S
C596 H609 0.912 1_545 S
C597 C596 1.385 . S
C597 C598 1.396 . S
C597 C604 1.399 1_545 S
C598 C588 1.476 . S
C598 N593 1.318 . S
C598 C597 1.396 . S
H599 C594 0.929 . S
O600 Mn576 2.385 . S
O600 C578 1.234 . S
O601 Mn576 2.209 . S
O601 Mn577 2.215 . S
O601 C578 1.283 . S
O602 Mn576 2.094 . S
O602 C580 1.240 . S
O603 Mn577 2.117 . S
O603 C580 1.264 . S
C604 C597 1.399 1_565 S
C604 C605 1.389 1_565 S
C604 H610 0.944 . S
C605 C585 1.449 . S
C605 C604 1.389 1_545 S
C605 H611 0.930 . S
H606 C586 0.931 . S
H607 C587 0.930 . S
H608 C595 0.931 . S
H609 C596 0.912 1_565 S
H610 C604 0.944 . S
H611 C605 0.930 . S
Mn612 O617 2.095 . S
Mn612 O627 2.162 . S
Mn612 O628 2.297 . S
Mn612 O636 2.385 . S
Mn612 O637 2.209 . S
Mn612 O638 2.094 . S
Mn613 O618 2.121 . S
Mn613 N620 2.257 . S
Mn613 N629 2.282 . S
Mn613 O637 2.215 . S
Mn613 O639 2.117 . S
C614 O636 1.234 . S
C614 O637 1.283 . S
C615 O627 1.281 . S
C615 O628 1.236 . S
C616 O638 1.240 . S
C616 O639 1.264 . S
O617 Mn612 2.095 . S
O617 C626 1.250 . S
O618 Mn613 2.121 . S
O618 C626 1.258 . S
C619 N620 1.326 . S
C619 C623 1.460 . S
C619 H625 0.929 . S
N620 Mn613 2.257 . S
N620 C619 1.326 . S
N620 C624 1.362 . S
C621 C622 1.258 . S
C621 C624 1.431 . S
C621 C641 1.449 . S
C622 C621 1.258 . S
C622 C623 1.477 . S
C622 H642 0.931 . S
C623 C619 1.460 . S
C623 C622 1.477 . S
C623 H643 0.930 . S
C624 N620 1.362 . S
C624 C621 1.431 . S
C624 C634 1.476 . S
H625 C619 0.929 . S
C626 O617 1.250 . S
C626 O618 1.258 . S
O627 Mn612 2.162 . S
O627 C615 1.281 . S
O628 Mn612 2.297 . S
O628 C615 1.236 . S
N629 Mn613 2.282 . S
N629 C630 1.328 . S
N629 C634 1.318 . S
C630 N629 1.328 . S
C630 C631 1.457 . S
C630 H635 0.929 . S
C631 C630 1.457 . S
C631 C632 1.291 . S
C631 H644 0.931 . S
C632 C631 1.291 . S
C632 C633 1.373 . S
C632 H645 0.929 . S
C633 C632 1.373 . S
C633 C634 1.396 . S
C633 C640 1.403 . S
C634 C624 1.476 . S
C634 N629 1.318 . S
C634 C633 1.396 . S
H635 C630 0.929 . S
O636 Mn612 2.385 . S
O636 C614 1.234 . S
O637 Mn612 2.209 . S
O637 Mn613 2.215 . S
O637 C614 1.283 . S
O638 Mn612 2.094 . S
O638 C616 1.240 . S
O639 Mn613 2.117 . S
O639 C616 1.264 . S
C640 C633 1.403 . S
C640 C641 1.399 . S
C640 H646 0.929 . S
C641 C621 1.449 . S
C641 C640 1.399 . S
C641 H647 0.930 . S
H642 C622 0.931 . S
H643 C623 0.930 . S
H644 C631 0.931 . S
H645 C632 0.929 . S
H646 C640 0.929 . S
H647 C641 0.930 . S
Mn648 O653 2.095 . S
Mn648 O663 2.162 . S
Mn648 O664 2.297 . S
Mn648 O672 2.385 . S
Mn648 O673 2.209 . S
Mn648 O674 2.094 . S
Mn649 O654 2.121 . S
Mn649 N656 2.257 . S
Mn649 N665 2.282 . S
Mn649 O673 2.215 . S
Mn649 O675 2.117 . S
C650 O672 1.234 . S
C650 O673 1.283 . S
C651 O663 1.281 . S
C651 O664 1.236 . S
C652 O674 1.240 . S
C652 O675 1.264 . S
O653 Mn648 2.095 . S
O653 C662 1.250 . S
O654 Mn649 2.121 . S
O654 C662 1.258 . S
C655 N656 1.326 . S
C655 C659 1.460 . S
C655 H661 0.929 . S
N656 Mn649 2.257 . S
N656 C655 1.326 . S
N656 C660 1.362 . S
C657 C658 1.258 . S
C657 C660 1.431 . S
C657 C677 1.449 . S
C658 C657 1.258 . S
C658 C659 1.477 . S
C658 H678 0.931 . S
C659 C655 1.460 . S
C659 C658 1.477 . S
C659 H679 0.930 . S
C660 N656 1.362 . S
C660 C657 1.431 . S
C660 C670 1.476 . S
H661 C655 0.929 . S
C662 O653 1.250 . S
C662 O654 1.258 . S
O663 Mn648 2.162 . S
O663 C651 1.281 . S
O664 Mn648 2.297 . S
O664 C651 1.236 . S
N665 Mn649 2.282 . S
N665 C666 1.328 . S
N665 C670 1.318 . S
C666 N665 1.328 . S
C666 C667 1.457 . S
C666 H671 0.929 . S
C667 C666 1.457 . S
C667 C668 1.291 . S
C667 H680 0.931 . S
C668 C667 1.291 . S
C668 C669 1.373 . S
C668 H681 0.929 . S
C669 C668 1.373 . S
C669 C670 1.396 . S
C669 C676 1.403 . S
C670 C660 1.476 . S
C670 N665 1.318 . S
C670 C669 1.396 . S
H671 C666 0.929 . S
O672 Mn648 2.385 . S
O672 C650 1.234 . S
O673 Mn648 2.209 . S
O673 Mn649 2.215 . S
O673 C650 1.283 . S
O674 Mn648 2.094 . S
O674 C652 1.240 . S
O675 Mn649 2.117 . S
O675 C652 1.264 . S
C676 C669 1.403 . S
C676 C677 1.399 . S
C676 H682 0.929 . S
C677 C657 1.449 . S
C677 C676 1.399 . S
C677 H683 0.930 . S
H678 C658 0.931 . S
H679 C659 0.930 . S
H680 C667 0.931 . S
H681 C668 0.929 . S
H682 C676 0.929 . S
H683 C677 0.930 . S
Mn684 O689 2.095 1_545 S
Mn684 O699 2.162 1_545 S
Mn684 O700 2.297 1_545 S
Mn684 O708 2.385 . S
Mn684 O709 2.209 . S
Mn684 O710 2.094 . S
Mn685 O690 2.121 1_545 S
Mn685 N692 2.257 . S
Mn685 N701 2.282 . S
Mn685 O709 2.215 . S
Mn685 O711 2.117 . S
C686 O708 1.234 . S
C686 O709 1.283 . S
C687 O699 1.281 . S
C687 O700 1.235 . S
C688 O710 1.240 . S
C688 O711 1.264 . S
O689 Mn684 2.095 1_565 S
O689 C698 1.250 . S
O690 Mn685 2.121 1_565 S
O690 C698 1.258 . S
C691 N692 1.326 . S
C691 C695 1.460 . S
C691 H697 0.923 1_545 S
N692 Mn685 2.257 . S
N692 C691 1.326 . S
N692 C696 1.362 . S
C693 C694 1.258 . S
C693 C696 1.431 . S
C693 C713 1.449 . S
C694 C693 1.258 . S
C694 C695 1.477 . S
C694 H714 0.931 . S
C695 C691 1.460 . S
C695 C694 1.477 . S
C695 H715 0.930 . S
C696 N692 1.362 . S
C696 C693 1.431 . S
C696 C706 1.476 . S
H697 C691 0.923 1_565 S
C698 O689 1.250 . S
C698 O690 1.258 . S
O699 Mn684 2.162 1_565 S
O699 C687 1.281 . S
O700 Mn684 2.297 1_565 S
O700 C687 1.235 . S
N701 Mn685 2.282 . S
N701 C702 1.328 . S
N701 C706 1.318 . S
C702 N701 1.328 . S
C702 C703 1.457 . S
C702 H707 0.929 . S
C703 C702 1.457 . S
C703 C704 1.291 . S
C703 H716 0.931 . S
C704 C703 1.291 . S
C704 C705 1.373 . S
C704 H717 0.929 . S
C705 C704 1.373 . S
C705 C706 1.396 . S
C705 C712 1.403 . S
C706 C696 1.476 . S
C706 N701 1.318 . S
C706 C705 1.396 . S
H707 C702 0.929 . S
O708 Mn684 2.385 . S
O708 C686 1.234 . S
O709 Mn684 2.209 . S
O709 Mn685 2.215 . S
O709 C686 1.283 . S
O710 Mn684 2.094 . S
O710 C688 1.240 . S
O711 Mn685 2.117 . S
O711 C688 1.264 . S
C712 C705 1.403 . S
C712 C713 1.399 . S
C712 H718 0.929 . S
C713 C693 1.449 . S
C713 C712 1.399 . S
C713 H719 0.930 . S
H714 C694 0.931 . S
H715 C695 0.930 . S
H716 C703 0.931 . S
H717 C704 0.929 . S
H718 C712 0.929 . S
H719 C713 0.930 . S
Mn720 O725 2.095 1_554 S
Mn720 O735 2.162 . S
Mn720 O736 2.297 . S
Mn720 O744 2.383 . S
Mn720 O745 2.209 1_554 S
Mn720 O746 2.094 1_554 S
Mn721 O726 2.121 . S
Mn721 N728 2.257 . S
Mn721 N737 2.282 . S
Mn721 O745 2.215 . S
Mn721 O747 2.117 . S
C722 O744 1.232 1_556 S
C722 O745 1.283 . S
C723 O735 1.281 . S
C723 O736 1.236 . S
C724 O746 1.240 . S
C724 O747 1.264 . S
O725 Mn720 2.095 1_556 S
O725 C734 1.250 . S
O726 Mn721 2.121 . S
O726 C734 1.258 . S
C727 N728 1.326 . S
C727 C731 1.460 . S
C727 H733 0.929 . S
N728 Mn721 2.257 . S
N728 C727 1.326 . S
N728 C732 1.362 . S
C729 C730 1.258 . S
C729 C732 1.431 . S
C729 C749 1.449 . S
C730 C729 1.258 . S
C730 C731 1.477 . S
C730 H750 0.931 . S
C731 C727 1.460 . S
C731 C730 1.477 . S
C731 H751 0.930 . S
C732 N728 1.362 . S
C732 C729 1.431 . S
C732 C742 1.476 . S
H733 C727 0.929 . S
C734 O725 1.250 . S
C734 O726 1.258 . S
O735 Mn720 2.162 . S
O735 C723 1.281 . S
O736 Mn720 2.297 . S
O736 C723 1.236 . S
N737 Mn721 2.282 . S
N737 C738 1.328 . S
N737 C742 1.318 . S
C738 N737 1.328 . S
C738 C739 1.457 . S
C738 H743 0.929 . S
C739 C738 1.457 . S
C739 C740 1.291 . S
C739 H752 0.931 . S
C740 C739 1.291 . S
C740 C741 1.373 . S
C740 H753 0.929 . S
C741 C740 1.373 . S
C741 C742 1.396 . S
C741 C748 1.403 . S
C742 C732 1.476 . S
C742 N737 1.318 . S
C742 C741 1.396 . S
H743 C738 0.929 . S
O744 Mn720 2.383 . S
O744 C722 1.232 1_554 S
O745 Mn720 2.209 1_556 S
O745 Mn721 2.215 . S
O745 C722 1.283 . S
O746 Mn720 2.094 1_556 S
O746 C724 1.240 . S
O747 Mn721 2.117 . S
O747 C724 1.264 . S
C748 C741 1.403 . S
C748 C749 1.399 . S
C748 H754 0.929 . S
C749 C729 1.449 . S
C749 C748 1.399 . S
C749 H755 0.930 . S
H750 C730 0.931 . S
H751 C731 0.930 . S
H752 C739 0.931 . S
H753 C740 0.929 . S
H754 C748 0.929 . S
H755 C749 0.930 . S
Mn756 O761 2.095 . S
Mn756 O771 2.162 . S
Mn756 O772 2.297 . S
Mn756 O780 2.385 . S
Mn756 O781 2.209 . S
Mn756 O782 2.094 . S
Mn757 O762 2.121 . S
Mn757 N764 2.257 . S
Mn757 N773 2.282 . S
Mn757 O781 2.215 . S
Mn757 O783 2.117 . S
C758 O780 1.234 . S
C758 O781 1.283 . S
C759 O771 1.281 . S
C759 O772 1.236 . S
C760 O782 1.240 . S
C760 O783 1.264 . S
O761 Mn756 2.095 . S
O761 C770 1.250 . S
O762 Mn757 2.121 . S
O762 C770 1.258 . S
C763 N764 1.326 . S
C763 C767 1.460 . S
C763 H769 0.929 . S
N764 Mn757 2.257 . S
N764 C763 1.326 . S
N764 C768 1.362 . S
C765 C766 1.258 . S
C765 C768 1.431 . S
C765 C785 1.449 . S
C766 C765 1.258 . S
C766 C767 1.477 . S
C766 H786 0.931 . S
C767 C763 1.460 . S
C767 C766 1.477 . S
C767 H787 0.930 . S
C768 N764 1.362 . S
C768 C765 1.431 . S
C768 C778 1.476 . S
H769 C763 0.929 . S
C770 O761 1.250 . S
C770 O762 1.258 . S
O771 Mn756 2.162 . S
O771 C759 1.281 . S
O772 Mn756 2.297 . S
O772 C759 1.236 . S
N773 Mn757 2.282 . S
N773 C774 1.328 . S
N773 C778 1.318 . S
C774 N773 1.328 . S
C774 C775 1.457 . S
C774 H779 0.929 . S
C775 C774 1.457 . S
C775 C776 1.291 . S
C775 H788 0.931 . S
C776 C775 1.291 . S
C776 C777 1.373 . S
C776 H789 0.929 . S
C777 C776 1.373 . S
C777 C778 1.396 . S
C777 C784 1.403 . S
C778 C768 1.476 . S
C778 N773 1.318 . S
C778 C777 1.396 . S
H779 C774 0.929 . S
O780 Mn756 2.385 . S
O780 C758 1.234 . S
O781 Mn756 2.209 . S
O781 Mn757 2.215 . S
O781 C758 1.283 . S
O782 Mn756 2.094 . S
O782 C760 1.240 . S
O783 Mn757 2.117 . S
O783 C760 1.264 . S
C784 C777 1.403 . S
C784 C785 1.399 . S
C784 H790 0.929 . S
C785 C765 1.449 . S
C785 C784 1.399 . S
C785 H791 0.930 . S
H786 C766 0.931 . S
H787 C767 0.930 . S
H788 C775 0.931 . S
H789 C776 0.929 . S
H790 C784 0.929 . S
H791 C785 0.930 . S
Mn792 O797 2.095 . S
Mn792 O807 2.162 . S
Mn792 O808 2.297 . S
Mn792 O816 2.385 . S
Mn792 O817 2.209 . S
Mn792 O818 2.094 . S
Mn793 O798 2.121 . S
Mn793 N800 2.257 . S
Mn793 N809 2.282 . S
Mn793 O817 2.215 . S
Mn793 O819 2.117 . S
C794 O816 1.234 . S
C794 O817 1.283 . S
C795 O807 1.281 . S
C795 O808 1.236 . S
C796 O818 1.240 . S
C796 O819 1.264 . S
O797 Mn792 2.095 . S
O797 C806 1.250 . S
O798 Mn793 2.121 . S
O798 C806 1.258 . S
C799 N800 1.326 . S
C799 C803 1.460 . S
C799 H805 0.929 . S
N800 Mn793 2.257 . S
N800 C799 1.326 . S
N800 C804 1.362 . S
C801 C802 1.258 . S
C801 C804 1.431 . S
C801 C821 1.449 . S
C802 C801 1.258 . S
C802 C803 1.477 . S
C802 H822 0.931 . S
C803 C799 1.460 . S
C803 C802 1.477 . S
C803 H823 0.930 . S
C804 N800 1.362 . S
C804 C801 1.431 . S
C804 C814 1.476 . S
H805 C799 0.929 . S
C806 O797 1.250 . S
C806 O798 1.258 . S
O807 Mn792 2.162 . S
O807 C795 1.281 . S
O808 Mn792 2.297 . S
O808 C795 1.236 . S
N809 Mn793 2.282 . S
N809 C810 1.328 . S
N809 C814 1.318 . S
C810 N809 1.328 . S
C810 C811 1.457 . S
C810 H815 0.929 . S
C811 C810 1.457 . S
C811 C812 1.291 . S
C811 H824 0.931 . S
C812 C811 1.291 . S
C812 C813 1.373 . S
C812 H825 0.929 . S
C813 C812 1.373 . S
C813 C814 1.396 . S
C813 C820 1.403 . S
C814 C804 1.476 . S
C814 N809 1.318 . S
C814 C813 1.396 . S
H815 C810 0.929 . S
O816 Mn792 2.385 . S
O816 C794 1.234 . S
O817 Mn792 2.209 . S
O817 Mn793 2.215 . S
O817 C794 1.283 . S
O818 Mn792 2.094 . S
O818 C796 1.240 . S
O819 Mn793 2.117 . S
O819 C796 1.264 . S
C820 C813 1.403 . S
C820 C821 1.399 . S
C820 H826 0.929 . S
C821 C801 1.449 . S
C821 C820 1.399 . S
C821 H827 0.930 . S
H822 C802 0.931 . S
H823 C803 0.930 . S
H824 C811 0.931 . S
H825 C812 0.929 . S
H826 C820 0.929 . S
H827 C821 0.930 . S
Mn828 O833 2.095 . S
Mn828 O843 2.162 . S
Mn828 O844 2.297 . S
Mn828 O852 2.385 . S
Mn828 O853 2.209 . S
Mn828 O854 2.094 . S
Mn829 O834 2.121 . S
Mn829 N836 2.257 . S
Mn829 N845 2.282 . S
Mn829 O853 2.215 . S
Mn829 O855 2.117 . S
C830 O852 1.234 . S
C830 O853 1.283 . S
C831 O843 1.281 . S
C831 O844 1.236 . S
C832 O854 1.240 . S
C832 O855 1.264 . S
O833 Mn828 2.095 . S
O833 C842 1.250 . S
O834 Mn829 2.121 . S
O834 C842 1.258 . S
C835 N836 1.326 . S
C835 C839 1.460 . S
C835 H841 0.929 . S
N836 Mn829 2.257 . S
N836 C835 1.326 . S
N836 C840 1.362 . S
C837 C838 1.258 . S
C837 C840 1.431 . S
C837 C857 1.449 . S
C838 C837 1.258 . S
C838 C839 1.477 . S
C838 H858 0.931 . S
C839 C835 1.460 . S
C839 C838 1.477 . S
C839 H859 0.930 . S
C840 N836 1.362 . S
C840 C837 1.431 . S
C840 C850 1.476 . S
H841 C835 0.929 . S
C842 O833 1.250 . S
C842 O834 1.258 . S
O843 Mn828 2.162 . S
O843 C831 1.281 . S
O844 Mn828 2.297 . S
O844 C831 1.236 . S
N845 Mn829 2.282 . S
N845 C846 1.328 . S
N845 C850 1.318 . S
C846 N845 1.328 . S
C846 C847 1.457 . S
C846 H851 0.929 . S
C847 C846 1.457 . S
C847 C848 1.291 . S
C847 H860 0.931 . S
C848 C847 1.291 . S
C848 C849 1.373 . S
C848 H861 0.929 . S
C849 C848 1.373 . S
C849 C850 1.396 . S
C849 C856 1.403 . S
C850 C840 1.476 . S
C850 N845 1.318 . S
C850 C849 1.396 . S
H851 C846 0.929 . S
O852 Mn828 2.385 . S
O852 C830 1.234 . S
O853 Mn828 2.209 . S
O853 Mn829 2.215 . S
O853 C830 1.283 . S
O854 Mn828 2.094 . S
O854 C832 1.240 . S
O855 Mn829 2.117 . S
O855 C832 1.264 . S
C856 C849 1.403 . S
C856 C857 1.399 . S
C856 H862 0.929 . S
C857 C837 1.449 . S
C857 C856 1.399 . S
C857 H863 0.930 . S
H858 C838 0.931 . S
H859 C839 0.930 . S
H860 C847 0.931 . S
H861 C848 0.929 . S
H862 C856 0.929 . S
H863 C857 0.930 . S
Nd864 C866 2.836 . S
Nd864 O884 2.500 . S
Nd864 O885 2.492 . S
Nd864 O886 2.487 . S
Nd864 O887 2.682 . S
Nd864 O888 2.410 . S
Nd864 O893 2.414 . S
Nd864 O895 2.424 . S
Nd865 C875 2.836 1_545 S
Nd865 O887 2.414 . S
Nd865 O889 2.424 1_455 S
Nd865 O890 2.500 1_545 S
Nd865 O891 2.492 1_545 S
Nd865 O892 2.487 . S
Nd865 O893 2.682 . S
Nd865 O894 2.410 . S
C866 Nd864 2.836 . S
C866 C867 1.498 . S
C866 O884 1.258 . S
C866 O885 1.239 . S
C867 C866 1.498 . S
C867 C868 1.366 . S
C867 C872 1.407 . S
C868 C867 1.366 . S
C868 C869 1.392 . S
C868 H896 0.930 . S
C869 C868 1.392 . S
C869 C870 1.398 . S
C869 H897 0.929 . S
C870 C869 1.398 . S
C870 C871 1.352 . S
C871 C870 1.352 . S
C871 C872 1.384 . S
C871 H898 0.930 . S
C872 C867 1.407 . S
C872 C871 1.384 . S
C872 H899 0.929 . S
C873 O886 1.241 . S
C873 O887 1.273 . S
C874 O888 1.251 1_655 S
C874 O889 1.268 . S
C875 Nd865 2.836 1_565 S
C875 C876 1.498 . S
C875 O890 1.258 . S
C875 O891 1.239 . S
C876 C875 1.498 . S
C876 C877 1.366 . S
C876 C881 1.407 . S
C877 C876 1.366 . S
C877 C878 1.392 . S
C877 H900 0.930 . S
C878 C877 1.392 . S
C878 C879 1.398 . S
C878 H901 0.929 . S
C879 C878 1.398 . S
C879 C880 1.352 . S
C880 C879 1.352 . S
C880 C881 1.384 . S
C880 H902 0.930 . S
C881 C876 1.407 . S
C881 C880 1.384 . S
C881 H903 0.901 1_455 S
C882 O892 1.241 . S
C882 O893 1.273 . S
C883 O894 1.251 . S
C883 O895 1.268 . S
O884 Nd864 2.500 . S
O884 C866 1.258 . S
O885 Nd864 2.492 . S
O885 C866 1.239 . S
O886 Nd864 2.487 . S
O886 C873 1.241 . S
O887 Nd864 2.682 . S
O887 Nd865 2.414 . S
O887 C873 1.273 . S
O888 Nd864 2.410 . S
O888 C874 1.251 1_455 S
O889 Nd865 2.424 1_655 S
O889 C874 1.268 . S
O890 Nd865 2.500 1_565 S
O890 C875 1.258 . S
O891 Nd865 2.492 1_565 S
O891 C875 1.239 . S
O892 Nd865 2.487 . S
O892 C882 1.241 . S
O893 Nd864 2.414 . S
O893 Nd865 2.682 . S
O893 C882 1.273 . S
O894 Nd865 2.410 . S
O894 C883 1.251 . S
O895 Nd864 2.424 . S
O895 C883 1.268 . S
H896 C868 0.930 . S
H897 C869 0.929 . S
H898 C871 0.930 . S
H899 C872 0.929 . S
H900 C877 0.930 . S
H901 C878 0.929 . S
H902 C880 0.930 . S
H903 C881 0.901 1_655 S
Nd904 C906 2.836 . S
Nd904 O924 2.500 . S
Nd904 O925 2.492 . S
Nd904 O926 2.487 . S
Nd904 O927 2.682 . S
Nd904 O928 2.410 . S
Nd904 O933 2.414 . S
Nd904 O935 2.424 . S
Nd905 C915 2.836 . S
Nd905 O927 2.414 . S
Nd905 O929 2.424 . S
Nd905 O930 2.500 . S
Nd905 O931 2.492 . S
Nd905 O932 2.487 . S
Nd905 O933 2.682 . S
Nd905 O934 2.410 . S
C906 Nd904 2.836 . S
C906 C907 1.498 . S
C906 O924 1.258 . S
C906 O925 1.239 . S
C907 C906 1.498 . S
C907 C908 1.366 . S
C907 C912 1.407 . S
C908 C907 1.366 . S
C908 C909 1.392 . S
C908 H936 0.930 . S
C909 C908 1.392 . S
C909 C910 1.398 . S
C909 H937 0.929 . S
C910 C909 1.398 . S
C910 C911 1.352 . S
C911 C910 1.352 . S
C911 C912 1.384 . S
C911 H938 0.930 . S
C912 C907 1.407 . S
C912 C911 1.384 . S
C912 H939 0.929 . S
C913 O926 1.241 . S
C913 O927 1.273 . S
C914 O928 1.251 . S
C914 O929 1.268 . S
C915 Nd905 2.836 . S
C915 C916 1.498 . S
C915 O930 1.258 . S
C915 O931 1.239 . S
C916 C915 1.498 . S
C916 C917 1.366 . S
C916 C921 1.407 . S
C917 C916 1.366 . S
C917 C918 1.392 . S
C917 H940 0.930 . S
C918 C917 1.392 . S
C918 C919 1.398 . S
C918 H941 0.929 . S
C919 C918 1.398 . S
C919 C920 1.352 . S
C920 C919 1.352 . S
C920 C921 1.384 . S
C920 H942 0.930 . S
C921 C916 1.407 . S
C921 C920 1.384 . S
C921 H943 0.929 . S
C922 O932 1.241 . S
C922 O933 1.273 . S
C923 O934 1.251 . S
C923 O935 1.268 . S
O924 Nd904 2.500 . S
O924 C906 1.258 . S
O925 Nd904 2.492 . S
O925 C906 1.239 . S
O926 Nd904 2.487 . S
O926 C913 1.241 . S
O927 Nd904 2.682 . S
O927 Nd905 2.414 . S
O927 C913 1.273 . S
O928 Nd904 2.410 . S
O928 C914 1.251 . S
O929 Nd905 2.424 . S
O929 C914 1.268 . S
O930 Nd905 2.500 . S
O930 C915 1.258 . S
O931 Nd905 2.492 . S
O931 C915 1.239 . S
O932 Nd905 2.487 . S
O932 C922 1.241 . S
O933 Nd904 2.414 . S
O933 Nd905 2.682 . S
O933 C922 1.273 . S
O934 Nd905 2.410 . S
O934 C923 1.251 . S
O935 Nd904 2.424 . S
O935 C923 1.268 . S
H936 C908 0.930 . S
H937 C909 0.929 . S
H938 C911 0.930 . S
H939 C912 0.929 . S
H940 C917 0.930 . S
H941 C918 0.929 . S
H942 C920 0.930 . S
H943 C921 0.929 . S
Nd944 C946 2.836 . S
Nd944 O964 2.500 . S
Nd944 O965 2.492 . S
Nd944 O966 2.487 . S
Nd944 O967 2.682 . S
Nd944 O968 2.410 . S
Nd944 O973 2.414 . S
Nd944 O975 2.424 . S
Nd945 C955 2.836 . S
Nd945 O967 2.414 . S
Nd945 O969 2.424 . S
Nd945 O970 2.500 . S
Nd945 O971 2.492 . S
Nd945 O972 2.487 . S
Nd945 O973 2.682 . S
Nd945 O974 2.410 . S
C946 Nd944 2.836 . S
C946 C947 1.498 . S
C946 O964 1.258 . S
C946 O965 1.239 . S
C947 C946 1.498 . S
C947 C948 1.366 . S
C947 C952 1.407 . S
C948 C947 1.366 . S
C948 C949 1.392 . S
C948 H976 0.930 . S
C949 C948 1.392 . S
C949 C950 1.398 . S
C949 H977 0.929 . S
C950 C949 1.398 . S
C950 C951 1.352 . S
C951 C950 1.352 . S
C951 C952 1.384 . S
C951 H978 0.930 . S
C952 C947 1.407 . S
C952 C951 1.384 . S
C952 H979 0.929 . S
C953 O966 1.241 . S
C953 O967 1.273 . S
C954 O968 1.251 . S
C954 O969 1.268 . S
C955 Nd945 2.836 . S
C955 C956 1.498 . S
C955 O970 1.258 . S
C955 O971 1.239 . S
C956 C955 1.498 . S
C956 C957 1.366 . S
C956 C961 1.407 . S
C957 C956 1.366 . S
C957 C958 1.392 . S
C957 H980 0.930 . S
C958 C957 1.392 . S
C958 C959 1.398 . S
C958 H981 0.929 . S
C959 C958 1.398 . S
C959 C960 1.352 . S
C960 C959 1.352 . S
C960 C961 1.384 . S
C960 H982 0.930 . S
C961 C956 1.407 . S
C961 C960 1.384 . S
C961 H983 0.929 . S
C962 O972 1.241 . S
C962 O973 1.273 . S
C963 O974 1.251 . S
C963 O975 1.268 . S
O964 Nd944 2.500 . S
O964 C946 1.258 . S
O965 Nd944 2.492 . S
O965 C946 1.239 . S
O966 Nd944 2.487 . S
O966 C953 1.241 . S
O967 Nd944 2.682 . S
O967 Nd945 2.414 . S
O967 C953 1.273 . S
O968 Nd944 2.410 . S
O968 C954 1.251 . S
O969 Nd945 2.424 . S
O969 C954 1.268 . S
O970 Nd945 2.500 . S
O970 C955 1.258 . S
O971 Nd945 2.492 . S
O971 C955 1.239 . S
O972 Nd945 2.487 . S
O972 C962 1.241 . S
O973 Nd944 2.414 . S
O973 Nd945 2.682 . S
O973 C962 1.273 . S
O974 Nd945 2.410 . S
O974 C963 1.251 . S
O975 Nd944 2.424 . S
O975 C963 1.268 . S
H976 C948 0.930 . S
H977 C949 0.929 . S
H978 C951 0.930 . S
H979 C952 0.929 . S
H980 C957 0.930 . S
H981 C958 0.929 . S
H982 C960 0.930 . S
H983 C961 0.929 . S
Nd984 C986 2.836 . S
Nd984 O1004 2.500 . S
Nd984 O1005 2.492 . S
Nd984 O1006 2.487 . S
Nd984 O1007 2.682 . S
Nd984 O1008 2.410 . S
Nd984 O1013 2.414 . S
Nd984 O1015 2.424 . S
Nd985 C995 2.836 . S
Nd985 O1007 2.414 . S
Nd985 O1009 2.424 . S
Nd985 O1010 2.500 . S
Nd985 O1011 2.492 . S
Nd985 O1012 2.487 . S
Nd985 O1013 2.682 . S
Nd985 O1014 2.410 . S
C986 Nd984 2.836 . S
C986 C987 1.498 . S
C986 O1004 1.258 . S
C986 O1005 1.239 . S
C987 C986 1.498 . S
C987 C988 1.366 . S
C987 C992 1.407 . S
C988 C987 1.366 . S
C988 C989 1.392 . S
C988 H1016 0.930 . S
C989 C988 1.392 . S
C989 C990 1.398 . S
C989 H1017 0.929 . S
C990 C989 1.398 . S
C990 C991 1.352 . S
C991 C990 1.352 . S
C991 C992 1.384 . S
C991 H1018 0.930 . S
C992 C987 1.407 . S
C992 C991 1.384 . S
C992 H1019 0.929 . S
C993 O1006 1.241 . S
C993 O1007 1.273 . S
C994 O1008 1.251 . S
C994 O1009 1.268 . S
C995 Nd985 2.836 . S
C995 C996 1.498 . S
C995 O1010 1.258 . S
C995 O1011 1.239 . S
C996 C995 1.498 . S
C996 C997 1.366 . S
C996 C1001 1.407 . S
C997 C996 1.366 . S
C997 C998 1.392 . S
C997 H1020 0.930 . S
C998 C997 1.392 . S
C998 C999 1.398 . S
C998 H1021 0.929 . S
C999 C998 1.398 . S
C999 C1000 1.352 . S
C1000 C999 1.352 . S
C1000 C1001 1.384 . S
C1000 H1022 0.930 . S
C1001 C996 1.407 . S
C1001 C1000 1.384 . S
C1001 H1023 0.929 . S
C1002 O1012 1.241 . S
C1002 O1013 1.273 . S
C1003 O1014 1.251 . S
C1003 O1015 1.268 . S
O1004 Nd984 2.500 . S
O1004 C986 1.258 . S
O1005 Nd984 2.492 . S
O1005 C986 1.239 . S
O1006 Nd984 2.487 . S
O1006 C993 1.241 . S
O1007 Nd984 2.682 . S
O1007 Nd985 2.414 . S
O1007 C993 1.273 . S
O1008 Nd984 2.410 . S
O1008 C994 1.251 . S
O1009 Nd985 2.424 . S
O1009 C994 1.268 . S
O1010 Nd985 2.500 . S
O1010 C995 1.258 . S
O1011 Nd985 2.492 . S
O1011 C995 1.239 . S
O1012 Nd985 2.487 . S
O1012 C1002 1.241 . S
O1013 Nd984 2.414 . S
O1013 Nd985 2.682 . S
O1013 C1002 1.273 . S
O1014 Nd985 2.410 . S
O1014 C1003 1.251 . S
O1015 Nd984 2.424 . S
O1015 C1003 1.268 . S
H1016 C988 0.930 . S
H1017 C989 0.929 . S
H1018 C991 0.930 . S
H1019 C992 0.929 . S
H1020 C997 0.930 . S
H1021 C998 0.929 . S
H1022 C1000 0.930 . S
H1023 C1001 0.929 . S
Nd1024 C1026 2.836 . S
Nd1024 O1044 2.500 . S
Nd1024 O1045 2.492 . S
Nd1024 O1046 2.487 . S
Nd1024 O1047 2.682 . S
Nd1024 O1048 2.410 . S
Nd1024 O1053 2.414 . S
Nd1024 O1055 2.424 . S
Nd1025 C1035 2.836 1_545 S
Nd1025 O1047 2.414 . S
Nd1025 O1049 2.424 . S
Nd1025 O1050 2.500 . S
Nd1025 O1051 2.492 1_545 S
Nd1025 O1052 2.487 1_455 S
Nd1025 O1053 2.682 . S
Nd1025 O1054 2.410 . S
C1026 Nd1024 2.836 . S
C1026 C1027 1.498 . S
C1026 O1044 1.258 . S
C1026 O1045 1.239 . S
C1027 C1026 1.498 . S
C1027 C1028 1.366 . S
C1027 C1032 1.407 . S
C1028 C1027 1.366 . S
C1028 C1029 1.392 1_455 S
C1028 H1056 0.930 1_455 S
C1029 C1028 1.392 1_655 S
C1029 C1030 1.398 1_655 S
C1029 H1057 0.929 . S
C1030 C1029 1.398 1_455 S
C1030 C1031 1.352 . S
C1031 C1030 1.352 . S
C1031 C1032 1.384 . S
C1031 H1058 0.930 . S
C1032 C1027 1.407 . S
C1032 C1031 1.384 . S
C1032 H1059 0.929 . S
C1033 O1046 1.241 . S
C1033 O1047 1.273 . S
C1034 O1048 1.251 . S
C1034 O1049 1.268 . S
C1035 Nd1025 2.836 1_565 S
C1035 C1036 1.498 . S
C1035 O1050 1.258 1_565 S
C1035 O1051 1.239 . S
C1036 C1035 1.498 . S
C1036 C1037 1.366 . S
C1036 C1041 1.407 . S
C1037 C1036 1.366 . S
C1037 C1038 1.392 . S
C1037 H1060 0.930 . S
C1038 C1037 1.392 . S
C1038 C1039 1.398 . S
C1038 H1061 0.929 . S
C1039 C1038 1.398 . S
C1039 C1040 1.352 . S
C1040 C1039 1.352 . S
C1040 C1041 1.384 . S
C1040 H1062 0.930 . S
C1041 C1036 1.407 . S
C1041 C1040 1.384 . S
C1041 H1063 0.929 . S
C1042 O1052 1.241 . S
C1042 O1053 1.273 1_655 S
C1043 O1054 1.251 . S
C1043 O1055 1.268 . S
O1044 Nd1024 2.500 . S
O1044 C1026 1.258 . S
O1045 Nd1024 2.492 . S
O1045 C1026 1.239 . S
O1046 Nd1024 2.487 . S
O1046 C1033 1.241 . S
O1047 Nd1024 2.682 . S
O1047 Nd1025 2.414 . S
O1047 C1033 1.273 . S
O1048 Nd1024 2.410 . S
O1048 C1034 1.251 . S
O1049 Nd1025 2.424 . S
O1049 C1034 1.268 . S
O1050 Nd1025 2.500 . S
O1050 C1035 1.258 1_545 S
O1051 Nd1025 2.492 1_565 S
O1051 C1035 1.239 . S
O1052 Nd1025 2.487 1_655 S
O1052 C1042 1.241 . S
O1053 Nd1024 2.414 . S
O1053 Nd1025 2.682 . S
O1053 C1042 1.273 1_455 S
O1054 Nd1025 2.410 . S
O1054 C1043 1.251 . S
O1055 Nd1024 2.424 . S
O1055 C1043 1.268 . S
H1056 C1028 0.930 1_655 S
H1057 C1029 0.929 . S
H1058 C1031 0.930 . S
H1059 C1032 0.929 . S
H1060 C1037 0.930 . S
H1061 C1038 0.929 . S
H1062 C1040 0.930 . S
H1063 C1041 0.929 . S
Nd1064 C1066 2.836 . S
Nd1064 O1084 2.500 . S
Nd1064 O1085 2.492 . S
Nd1064 O1086 2.487 . S
Nd1064 O1087 2.682 . S
Nd1064 O1088 2.410 . S
Nd1064 O1093 2.414 . S
Nd1064 O1095 2.424 . S
Nd1065 C1075 2.836 . S
Nd1065 O1087 2.414 . S
Nd1065 O1089 2.424 . S
Nd1065 O1090 2.500 . S
Nd1065 O1091 2.492 . S
Nd1065 O1092 2.487 . S
Nd1065 O1093 2.682 . S
Nd1065 O1094 2.410 . S
C1066 Nd1064 2.836 . S
C1066 C1067 1.498 . S
C1066 O1084 1.258 . S
C1066 O1085 1.239 . S
C1067 C1066 1.498 . S
C1067 C1068 1.366 . S
C1067 C1072 1.407 . S
C1068 C1067 1.366 . S
C1068 C1069 1.392 . S
C1068 H1096 0.930 . S
C1069 C1068 1.392 . S
C1069 C1070 1.398 . S
C1069 H1097 0.929 . S
C1070 C1069 1.398 . S
C1070 C1071 1.352 . S
C1071 C1070 1.352 . S
C1071 C1072 1.384 . S
C1071 H1098 0.930 . S
C1072 C1067 1.407 . S
C1072 C1071 1.384 . S
C1072 H1099 0.929 . S
C1073 O1086 1.241 . S
C1073 O1087 1.273 . S
C1074 O1088 1.251 . S
C1074 O1089 1.268 . S
C1075 Nd1065 2.836 . S
C1075 C1076 1.498 . S
C1075 O1090 1.258 . S
C1075 O1091 1.239 . S
C1076 C1075 1.498 . S
C1076 C1077 1.366 . S
C1076 C1081 1.407 . S
C1077 C1076 1.366 . S
C1077 C1078 1.392 . S
C1077 H1100 0.930 . S
C1078 C1077 1.392 . S
C1078 C1079 1.398 . S
C1078 H1101 0.929 . S
C1079 C1078 1.398 . S
C1079 C1080 1.352 . S
C1080 C1079 1.352 . S
C1080 C1081 1.384 . S
C1080 H1102 0.930 . S
C1081 C1076 1.407 . S
C1081 C1080 1.384 . S
C1081 H1103 0.929 . S
C1082 O1092 1.241 . S
C1082 O1093 1.273 . S
C1083 O1094 1.251 . S
C1083 O1095 1.268 . S
O1084 Nd1064 2.500 . S
O1084 C1066 1.258 . S
O1085 Nd1064 2.492 . S
O1085 C1066 1.239 . S
O1086 Nd1064 2.487 . S
O1086 C1073 1.241 . S
O1087 Nd1064 2.682 . S
O1087 Nd1065 2.414 . S
O1087 C1073 1.273 . S
O1088 Nd1064 2.410 . S
O1088 C1074 1.251 . S
O1089 Nd1065 2.424 . S
O1089 C1074 1.268 . S
O1090 Nd1065 2.500 . S
O1090 C1075 1.258 . S
O1091 Nd1065 2.492 . S
O1091 C1075 1.239 . S
O1092 Nd1065 2.487 . S
O1092 C1082 1.241 . S
O1093 Nd1064 2.414 . S
O1093 Nd1065 2.682 . S
O1093 C1082 1.273 . S
O1094 Nd1065 2.410 . S
O1094 C1083 1.251 . S
O1095 Nd1064 2.424 . S
O1095 C1083 1.268 . S
H1096 C1068 0.930 . S
H1097 C1069 0.929 . S
H1098 C1071 0.930 . S
H1099 C1072 0.929 . S
H1100 C1077 0.930 . S
H1101 C1078 0.929 . S
H1102 C1080 0.930 . S
H1103 C1081 0.929 . S
Nd1104 C1106 2.836 . S
Nd1104 O1124 2.500 . S
Nd1104 O1125 2.492 . S
Nd1104 O1126 2.487 . S
Nd1104 O1127 2.682 . S
Nd1104 O1128 2.410 . S
Nd1104 O1133 2.414 . S
Nd1104 O1135 2.424 . S
Nd1105 C1115 2.836 . S
Nd1105 O1127 2.414 . S
Nd1105 O1129 2.424 . S
Nd1105 O1130 2.500 . S
Nd1105 O1131 2.492 . S
Nd1105 O1132 2.487 . S
Nd1105 O1133 2.682 . S
Nd1105 O1134 2.410 . S
C1106 Nd1104 2.836 . S
C1106 C1107 1.498 . S
C1106 O1124 1.258 . S
C1106 O1125 1.239 . S
C1107 C1106 1.498 . S
C1107 C1108 1.366 . S
C1107 C1112 1.407 . S
C1108 C1107 1.366 . S
C1108 C1109 1.392 . S
C1108 H1136 0.930 . S
C1109 C1108 1.392 . S
C1109 C1110 1.398 . S
C1109 H1137 0.929 . S
C1110 C1109 1.398 . S
C1110 C1111 1.352 . S
C1111 C1110 1.352 . S
C1111 C1112 1.384 . S
C1111 H1138 0.930 1_545 S
C1112 C1107 1.407 . S
C1112 C1111 1.384 . S
C1112 H1139 0.929 1_545 S
C1113 O1126 1.241 . S
C1113 O1127 1.273 . S
C1114 O1128 1.251 . S
C1114 O1129 1.268 . S
C1115 Nd1105 2.836 . S
C1115 C1116 1.498 . S
C1115 O1130 1.258 . S
C1115 O1131 1.239 . S
C1116 C1115 1.498 . S
C1116 C1117 1.366 . S
C1116 C1121 1.407 . S
C1117 C1116 1.366 . S
C1117 C1118 1.392 . S
C1117 H1140 0.930 . S
C1118 C1117 1.392 . S
C1118 C1119 1.398 . S
C1118 H1141 0.929 . S
C1119 C1118 1.398 . S
C1119 C1120 1.352 . S
C1120 C1119 1.352 . S
C1120 C1121 1.384 . S
C1120 H1142 0.930 . S
C1121 C1116 1.407 . S
C1121 C1120 1.384 . S
C1121 H1143 0.929 . S
C1122 O1132 1.241 . S
C1122 O1133 1.273 . S
C1123 O1134 1.251 . S
C1123 O1135 1.268 . S
O1124 Nd1104 2.500 . S
O1124 C1106 1.258 . S
O1125 Nd1104 2.492 . S
O1125 C1106 1.239 . S
O1126 Nd1104 2.487 . S
O1126 C1113 1.241 . S
O1127 Nd1104 2.682 . S
O1127 Nd1105 2.414 . S
O1127 C1113 1.273 . S
O1128 Nd1104 2.410 . S
O1128 C1114 1.251 . S
O1129 Nd1105 2.424 . S
O1129 C1114 1.268 . S
O1130 Nd1105 2.500 . S
O1130 C1115 1.258 . S
O1131 Nd1105 2.492 . S
O1131 C1115 1.239 . S
O1132 Nd1105 2.487 . S
O1132 C1122 1.241 . S
O1133 Nd1104 2.414 . S
O1133 Nd1105 2.682 . S
O1133 C1122 1.273 . S
O1134 Nd1105 2.410 . S
O1134 C1123 1.251 . S
O1135 Nd1104 2.424 . S
O1135 C1123 1.268 . S
H1136 C1108 0.930 . S
H1137 C1109 0.929 . S
H1138 C1111 0.930 1_565 S
H1139 C1112 0.929 1_565 S
H1140 C1117 0.930 . S
H1141 C1118 0.929 . S
H1142 C1120 0.930 . S
H1143 C1121 0.929 . S
Nd1144 C1146 2.836 . S
Nd1144 O1164 2.500 . S
Nd1144 O1165 2.492 . S
Nd1144 O1166 2.487 . S
Nd1144 O1167 2.682 . S
Nd1144 O1168 2.410 . S
Nd1144 O1173 2.414 . S
Nd1144 O1175 2.424 . S
Nd1145 C1155 2.836 . S
Nd1145 O1167 2.414 . S
Nd1145 O1169 2.424 . S
Nd1145 O1170 2.500 . S
Nd1145 O1171 2.492 . S
Nd1145 O1172 2.487 . S
Nd1145 O1173 2.682 . S
Nd1145 O1174 2.410 . S
C1146 Nd1144 2.836 . S
C1146 C1147 1.498 . S
C1146 O1164 1.258 . S
C1146 O1165 1.239 . S
C1147 C1146 1.498 . S
C1147 C1148 1.366 . S
C1147 C1152 1.407 . S
C1148 C1147 1.366 . S
C1148 C1149 1.392 . S
C1148 H1176 0.930 . S
C1149 C1148 1.392 . S
C1149 C1150 1.398 . S
C1149 H1177 0.929 . S
C1150 C1149 1.398 . S
C1150 C1151 1.352 . S
C1151 C1150 1.352 . S
C1151 C1152 1.384 . S
C1151 H1178 0.930 . S
C1152 C1147 1.407 . S
C1152 C1151 1.384 . S
C1152 H1179 0.929 . S
C1153 O1166 1.241 . S
C1153 O1167 1.273 . S
C1154 O1168 1.251 . S
C1154 O1169 1.268 . S
C1155 Nd1145 2.836 . S
C1155 C1156 1.498 . S
C1155 O1170 1.258 . S
C1155 O1171 1.239 . S
C1156 C1155 1.498 . S
C1156 C1157 1.366 . S
C1156 C1161 1.407 . S
C1157 C1156 1.366 . S
C1157 C1158 1.392 . S
C1157 H1180 0.930 . S
C1158 C1157 1.392 . S
C1158 C1159 1.398 . S
C1158 H1181 0.929 . S
C1159 C1158 1.398 . S
C1159 C1160 1.352 . S
C1160 C1159 1.352 . S
C1160 C1161 1.384 . S
C1160 H1182 0.930 . S
C1161 C1156 1.407 . S
C1161 C1160 1.384 . S
C1161 H1183 0.929 . S
C1162 O1172 1.241 . S
C1162 O1173 1.273 . S
C1163 O1174 1.251 . S
C1163 O1175 1.268 . S
O1164 Nd1144 2.500 . S
O1164 C1146 1.258 . S
O1165 Nd1144 2.492 . S
O1165 C1146 1.239 . S
O1166 Nd1144 2.487 . S
O1166 C1153 1.241 . S
O1167 Nd1144 2.682 . S
O1167 Nd1145 2.414 . S
O1167 C1153 1.273 . S
O1168 Nd1144 2.410 . S
O1168 C1154 1.251 . S
O1169 Nd1145 2.424 . S
O1169 C1154 1.268 . S
O1170 Nd1145 2.500 . S
O1170 C1155 1.258 . S
O1171 Nd1145 2.492 . S
O1171 C1155 1.239 . S
O1172 Nd1145 2.487 . S
O1172 C1162 1.241 . S
O1173 Nd1144 2.414 . S
O1173 Nd1145 2.682 . S
O1173 C1162 1.273 . S
O1174 Nd1145 2.410 . S
O1174 C1163 1.251 . S
O1175 Nd1144 2.424 . S
O1175 C1163 1.268 . S
H1176 C1148 0.930 . S
H1177 C1149 0.929 . S
H1178 C1151 0.930 . S
H1179 C1152 0.929 . S
H1180 C1157 0.930 . S
H1181 C1158 0.929 . S
H1182 C1160 0.930 . S
H1183 C1161 0.929 . S
Nd1184 C1186 2.836 . S
Nd1184 O1204 2.500 . S
Nd1184 O1205 2.492 . S
Nd1184 O1206 2.487 . S
Nd1184 O1207 2.682 . S
Nd1184 O1208 2.410 . S
Nd1184 O1213 2.414 . S
Nd1184 O1215 2.424 . S
Nd1185 C1195 2.836 . S
Nd1185 O1207 2.414 . S
Nd1185 O1209 2.424 . S
Nd1185 O1210 2.500 . S
Nd1185 O1211 2.492 . S
Nd1185 O1212 2.487 . S
Nd1185 O1213 2.682 . S
Nd1185 O1214 2.410 . S
C1186 Nd1184 2.836 . S
C1186 C1187 1.498 . S
C1186 O1204 1.258 . S
C1186 O1205 1.239 . S
C1187 C1186 1.498 . S
C1187 C1188 1.366 . S
C1187 C1192 1.407 . S
C1188 C1187 1.366 . S
C1188 C1189 1.392 . S
C1188 H1216 0.930 . S
C1189 C1188 1.392 . S
C1189 C1190 1.398 . S
C1189 H1217 0.929 . S
C1190 C1189 1.398 . S
C1190 C1191 1.352 . S
C1191 C1190 1.352 . S
C1191 C1192 1.384 . S
C1191 H1218 0.930 . S
C1192 C1187 1.407 . S
C1192 C1191 1.384 . S
C1192 H1219 0.929 . S
C1193 O1206 1.241 . S
C1193 O1207 1.273 . S
C1194 O1208 1.251 . S
C1194 O1209 1.268 . S
C1195 Nd1185 2.836 . S
C1195 C1196 1.498 . S
C1195 O1210 1.258 . S
C1195 O1211 1.239 . S
C1196 C1195 1.498 . S
C1196 C1197 1.366 . S
C1196 C1201 1.407 . S
C1197 C1196 1.366 . S
C1197 C1198 1.392 . S
C1197 H1220 0.930 . S
C1198 C1197 1.392 . S
C1198 C1199 1.398 . S
C1198 H1221 0.929 . S
C1199 C1198 1.398 . S
C1199 C1200 1.352 . S
C1200 C1199 1.352 . S
C1200 C1201 1.384 . S
C1200 H1222 0.930 . S
C1201 C1196 1.407 . S
C1201 C1200 1.384 . S
C1201 H1223 0.929 . S
C1202 O1212 1.241 . S
C1202 O1213 1.273 . S
C1203 O1214 1.251 . S
C1203 O1215 1.268 . S
O1204 Nd1184 2.500 . S
O1204 C1186 1.258 . S
O1205 Nd1184 2.492 . S
O1205 C1186 1.239 . S
O1206 Nd1184 2.487 . S
O1206 C1193 1.241 . S
O1207 Nd1184 2.682 . S
O1207 Nd1185 2.414 . S
O1207 C1193 1.273 . S
O1208 Nd1184 2.410 . S
O1208 C1194 1.251 . S
O1209 Nd1185 2.424 . S
O1209 C1194 1.268 . S
O1210 Nd1185 2.500 . S
O1210 C1195 1.258 . S
O1211 Nd1185 2.492 . S
O1211 C1195 1.239 . S
O1212 Nd1185 2.487 . S
O1212 C1202 1.241 . S
O1213 Nd1184 2.414 . S
O1213 Nd1185 2.682 . S
O1213 C1202 1.273 . S
O1214 Nd1185 2.410 . S
O1214 C1203 1.251 . S
O1215 Nd1184 2.424 . S
O1215 C1203 1.268 . S
H1216 C1188 0.930 . S
H1217 C1189 0.929 . S
H1218 C1191 0.930 . S
H1219 C1192 0.929 . S
H1220 C1197 0.930 . S
H1221 C1198 0.929 . S
H1222 C1200 0.930 . S
H1223 C1201 0.929 . S
Nd1224 C1226 2.836 . S
Nd1224 O1244 2.500 . S
Nd1224 O1245 2.492 . S
Nd1224 O1246 2.487 . S
Nd1224 O1247 2.682 . S
Nd1224 O1248 2.410 . S
Nd1224 O1253 2.414 . S
Nd1224 O1255 2.424 . S
Nd1225 C1235 2.836 . S
Nd1225 O1247 2.414 . S
Nd1225 O1249 2.424 . S
Nd1225 O1250 2.500 . S
Nd1225 O1251 2.492 . S
Nd1225 O1252 2.487 . S
Nd1225 O1253 2.682 . S
Nd1225 O1254 2.410 . S
C1226 Nd1224 2.836 . S
C1226 C1227 1.498 . S
C1226 O1244 1.258 . S
C1226 O1245 1.239 . S
C1227 C1226 1.498 . S
C1227 C1228 1.366 . S
C1227 C1232 1.407 . S
C1228 C1227 1.366 . S
C1228 C1229 1.392 . S
C1228 H1256 0.930 . S
C1229 C1228 1.392 . S
C1229 C1230 1.398 . S
C1229 H1257 0.929 . S
C1230 C1229 1.398 . S
C1230 C1231 1.352 . S
C1231 C1230 1.352 . S
C1231 C1232 1.384 . S
C1231 H1258 0.930 . S
C1232 C1227 1.407 . S
C1232 C1231 1.384 . S
C1232 H1259 0.929 . S
C1233 O1246 1.241 . S
C1233 O1247 1.273 . S
C1234 O1248 1.251 . S
C1234 O1249 1.268 . S
C1235 Nd1225 2.836 . S
C1235 C1236 1.498 . S
C1235 O1250 1.258 . S
C1235 O1251 1.239 . S
C1236 C1235 1.498 . S
C1236 C1237 1.366 . S
C1236 C1241 1.407 . S
C1237 C1236 1.366 . S
C1237 C1238 1.392 . S
C1237 H1260 0.930 . S
C1238 C1237 1.392 . S
C1238 C1239 1.398 . S
C1238 H1261 0.929 . S
C1239 C1238 1.398 . S
C1239 C1240 1.352 . S
C1240 C1239 1.352 . S
C1240 C1241 1.384 . S
C1240 H1262 0.930 . S
C1241 C1236 1.407 . S
C1241 C1240 1.384 . S
C1241 H1263 0.929 . S
C1242 O1252 1.241 . S
C1242 O1253 1.273 . S
C1243 O1254 1.251 . S
C1243 O1255 1.268 . S
O1244 Nd1224 2.500 . S
O1244 C1226 1.258 . S
O1245 Nd1224 2.492 . S
O1245 C1226 1.239 . S
O1246 Nd1224 2.487 . S
O1246 C1233 1.241 . S
O1247 Nd1224 2.682 . S
O1247 Nd1225 2.414 . S
O1247 C1233 1.273 . S
O1248 Nd1224 2.410 . S
O1248 C1234 1.251 . S
O1249 Nd1225 2.424 . S
O1249 C1234 1.268 . S
O1250 Nd1225 2.500 . S
O1250 C1235 1.258 . S
O1251 Nd1225 2.492 . S
O1251 C1235 1.239 . S
O1252 Nd1225 2.487 . S
O1252 C1242 1.241 . S
O1253 Nd1224 2.414 . S
O1253 Nd1225 2.682 . S
O1253 C1242 1.273 . S
O1254 Nd1225 2.410 . S
O1254 C1243 1.251 . S
O1255 Nd1224 2.424 . S
O1255 C1243 1.268 . S
H1256 C1228 0.930 . S
H1257 C1229 0.929 . S
H1258 C1231 0.930 . S
H1259 C1232 0.929 . S
H1260 C1237 0.930 . S
H1261 C1238 0.929 . S
H1262 C1240 0.930 . S
H1263 C1241 0.929 . S
Nd1264 C1266 2.836 1_455 S
Nd1264 O1284 2.500 1_455 S
Nd1264 O1285 2.492 1_455 S
Nd1264 O1286 2.487 . S
Nd1264 O1287 2.682 . S
Nd1264 O1288 2.410 . S
Nd1264 O1293 2.414 . S
Nd1264 O1295 2.424 . S
Nd1265 C1275 2.836 . S
Nd1265 O1287 2.414 . S
Nd1265 O1289 2.424 . S
Nd1265 O1290 2.500 . S
Nd1265 O1291 2.492 . S
Nd1265 O1292 2.487 . S
Nd1265 O1293 2.682 . S
Nd1265 O1294 2.410 . S
C1266 Nd1264 2.836 1_655 S
C1266 C1267 1.498 . S
C1266 O1284 1.258 . S
C1266 O1285 1.239 . S
C1267 C1266 1.498 . S
C1267 C1268 1.366 . S
C1267 C1272 1.407 . S
C1268 C1267 1.366 . S
C1268 C1269 1.392 . S
C1268 H1296 0.930 . S
C1269 C1268 1.392 . S
C1269 C1270 1.398 . S
C1269 H1297 0.929 . S
C1270 C1269 1.398 . S
C1270 C1271 1.352 . S
C1271 C1270 1.352 . S
C1271 C1272 1.384 . S
C1271 H1298 0.930 . S
C1272 C1267 1.407 . S
C1272 C1271 1.384 . S
C1272 H1299 0.929 . S
C1273 O1286 1.241 . S
C1273 O1287 1.273 . S
C1274 O1288 1.251 . S
C1274 O1289 1.268 . S
C1275 Nd1265 2.836 . S
C1275 C1276 1.498 . S
C1275 O1290 1.258 . S
C1275 O1291 1.239 . S
C1276 C1275 1.498 . S
C1276 C1277 1.366 . S
C1276 C1281 1.407 . S
C1277 C1276 1.366 . S
C1277 C1278 1.392 . S
C1277 H1300 0.930 . S
C1278 C1277 1.392 . S
C1278 C1279 1.398 . S
C1278 H1301 0.929 . S
C1279 C1278 1.398 . S
C1279 C1280 1.352 . S
C1280 C1279 1.352 . S
C1280 C1281 1.384 . S
C1280 H1302 0.930 . S
C1281 C1276 1.407 . S
C1281 C1280 1.384 . S
C1281 H1303 0.929 . S
C1282 O1292 1.241 . S
C1282 O1293 1.273 . S
C1283 O1294 1.251 . S
C1283 O1295 1.268 . S
O1284 Nd1264 2.500 1_655 S
O1284 C1266 1.258 . S
O1285 Nd1264 2.492 1_655 S
O1285 C1266 1.239 . S
O1286 Nd1264 2.487 . S
O1286 C1273 1.241 . S
O1287 Nd1264 2.682 . S
O1287 Nd1265 2.414 . S
O1287 C1273 1.273 . S
O1288 Nd1264 2.410 . S
O1288 C1274 1.251 . S
O1289 Nd1265 2.424 . S
O1289 C1274 1.268 . S
O1290 Nd1265 2.500 . S
O1290 C1275 1.258 . S
O1291 Nd1265 2.492 . S
O1291 C1275 1.239 . S
O1292 Nd1265 2.487 . S
O1292 C1282 1.241 . S
O1293 Nd1264 2.414 . S
O1293 Nd1265 2.682 . S
O1293 C1282 1.273 . S
O1294 Nd1265 2.410 . S
O1294 C1283 1.251 . S
O1295 Nd1264 2.424 . S
O1295 C1283 1.268 . S
H1296 C1268 0.930 . S
H1297 C1269 0.929 . S
H1298 C1271 0.930 . S
H1299 C1272 0.929 . S
H1300 C1277 0.930 . S
H1301 C1278 0.929 . S
H1302 C1280 0.930 . S
H1303 C1281 0.929 . S
Nd1304 C1306 2.836 . S
Nd1304 O1324 2.500 . S
Nd1304 O1325 2.492 . S
Nd1304 O1326 2.487 . S
Nd1304 O1327 2.682 . S
Nd1304 O1328 2.410 . S
Nd1304 O1333 2.414 . S
Nd1304 O1335 2.424 . S
Nd1305 C1315 2.836 . S
Nd1305 O1327 2.414 . S
Nd1305 O1329 2.424 . S
Nd1305 O1330 2.500 . S
Nd1305 O1331 2.492 . S
Nd1305 O1332 2.487 . S
Nd1305 O1333 2.682 . S
Nd1305 O1334 2.410 . S
C1306 Nd1304 2.836 . S
C1306 C1307 1.498 . S
C1306 O1324 1.258 . S
C1306 O1325 1.239 . S
C1307 C1306 1.498 . S
C1307 C1308 1.366 . S
C1307 C1312 1.407 . S
C1308 C1307 1.366 . S
C1308 C1309 1.392 . S
C1308 H1336 0.930 . S
C1309 C1308 1.392 . S
C1309 C1310 1.398 . S
C1309 H1337 0.929 . S
C1310 C1309 1.398 . S
C1310 C1311 1.352 . S
C1311 C1310 1.352 . S
C1311 C1312 1.384 . S
C1311 H1338 0.930 . S
C1312 C1307 1.407 . S
C1312 C1311 1.384 . S
C1312 H1339 0.929 . S
C1313 O1326 1.241 . S
C1313 O1327 1.273 . S
C1314 O1328 1.251 . S
C1314 O1329 1.268 . S
C1315 Nd1305 2.836 . S
C1315 C1316 1.498 . S
C1315 O1330 1.258 . S
C1315 O1331 1.239 . S
C1316 C1315 1.498 . S
C1316 C1317 1.366 . S
C1316 C1321 1.407 . S
C1317 C1316 1.366 . S
C1317 C1318 1.392 . S
C1317 H1340 0.930 . S
C1318 C1317 1.392 . S
C1318 C1319 1.398 . S
C1318 H1341 0.929 . S
C1319 C1318 1.398 . S
C1319 C1320 1.352 . S
C1320 C1319 1.352 . S
C1320 C1321 1.384 . S
C1320 H1342 0.930 . S
C1321 C1316 1.407 . S
C1321 C1320 1.384 . S
C1321 H1343 0.929 . S
C1322 O1332 1.241 . S
C1322 O1333 1.273 . S
C1323 O1334 1.251 . S
C1323 O1335 1.268 . S
O1324 Nd1304 2.500 . S
O1324 C1306 1.258 . S
O1325 Nd1304 2.492 . S
O1325 C1306 1.239 . S
O1326 Nd1304 2.487 . S
O1326 C1313 1.241 . S
O1327 Nd1304 2.682 . S
O1327 Nd1305 2.414 . S
O1327 C1313 1.273 . S
O1328 Nd1304 2.410 . S
O1328 C1314 1.251 . S
O1329 Nd1305 2.424 . S
O1329 C1314 1.268 . S
O1330 Nd1305 2.500 . S
O1330 C1315 1.258 . S
O1331 Nd1305 2.492 . S
O1331 C1315 1.239 . S
O1332 Nd1305 2.487 . S
O1332 C1322 1.241 . S
O1333 Nd1304 2.414 . S
O1333 Nd1305 2.682 . S
O1333 C1322 1.273 . S
O1334 Nd1305 2.410 . S
O1334 C1323 1.251 . S
O1335 Nd1304 2.424 . S
O1335 C1323 1.268 . S
H1336 C1308 0.930 . S
H1337 C1309 0.929 . S
H1338 C1311 0.930 . S
H1339 C1312 0.929 . S
H1340 C1317 0.930 . S
H1341 C1318 0.929 . S
H1342 C1320 0.930 . S
H1343 C1321 0.929 . S
Nd1344 C1346 2.836 . S
Nd1344 O1364 2.500 . S
Nd1344 O1365 2.492 . S
Nd1344 O1366 2.487 . S
Nd1344 O1367 2.682 . S
Nd1344 O1368 2.410 . S
Nd1344 O1373 2.414 . S
Nd1344 O1375 2.424 . S
Nd1345 C1355 2.836 . S
Nd1345 O1367 2.414 . S
Nd1345 O1369 2.424 . S
Nd1345 O1370 2.500 . S
Nd1345 O1371 2.492 . S
Nd1345 O1372 2.487 . S
Nd1345 O1373 2.682 . S
Nd1345 O1374 2.410 . S
C1346 Nd1344 2.836 . S
C1346 C1347 1.498 . S
C1346 O1364 1.258 . S
C1346 O1365 1.239 . S
C1347 C1346 1.498 . S
C1347 C1348 1.366 . S
C1347 C1352 1.407 . S
C1348 C1347 1.366 . S
C1348 C1349 1.392 . S
C1348 H1376 0.930 . S
C1349 C1348 1.392 . S
C1349 C1350 1.398 . S
C1349 H1377 0.929 . S
C1350 C1349 1.398 . S
C1350 C1351 1.352 . S
C1351 C1350 1.352 . S
C1351 C1352 1.384 . S
C1351 H1378 0.930 . S
C1352 C1347 1.407 . S
C1352 C1351 1.384 . S
C1352 H1379 0.929 . S
C1353 O1366 1.241 . S
C1353 O1367 1.273 . S
C1354 O1368 1.251 . S
C1354 O1369 1.268 . S
C1355 Nd1345 2.836 . S
C1355 C1356 1.498 . S
C1355 O1370 1.258 . S
C1355 O1371 1.239 . S
C1356 C1355 1.498 . S
C1356 C1357 1.366 . S
C1356 C1361 1.407 . S
C1357 C1356 1.366 . S
C1357 C1358 1.392 . S
C1357 H1380 0.930 . S
C1358 C1357 1.392 . S
C1358 C1359 1.398 . S
C1358 H1381 0.929 . S
C1359 C1358 1.398 . S
C1359 C1360 1.352 . S
C1360 C1359 1.352 . S
C1360 C1361 1.384 . S
C1360 H1382 0.930 . S
C1361 C1356 1.407 . S
C1361 C1360 1.384 . S
C1361 H1383 0.929 . S
C1362 O1372 1.241 . S
C1362 O1373 1.273 . S
C1363 O1374 1.251 . S
C1363 O1375 1.268 . S
O1364 Nd1344 2.500 . S
O1364 C1346 1.258 . S
O1365 Nd1344 2.492 . S
O1365 C1346 1.239 . S
O1366 Nd1344 2.487 . S
O1366 C1353 1.241 . S
O1367 Nd1344 2.682 . S
O1367 Nd1345 2.414 . S
O1367 C1353 1.273 . S
O1368 Nd1344 2.410 . S
O1368 C1354 1.251 . S
O1369 Nd1345 2.424 . S
O1369 C1354 1.268 . S
O1370 Nd1345 2.500 . S
O1370 C1355 1.258 . S
O1371 Nd1345 2.492 . S
O1371 C1355 1.239 . S
O1372 Nd1345 2.487 . S
O1372 C1362 1.241 . S
O1373 Nd1344 2.414 . S
O1373 Nd1345 2.682 . S
O1373 C1362 1.273 . S
O1374 Nd1345 2.410 . S
O1374 C1363 1.251 . S
O1375 Nd1344 2.424 . S
O1375 C1363 1.268 . S
H1376 C1348 0.930 . S
H1377 C1349 0.929 . S
H1378 C1351 0.930 . S
H1379 C1352 0.929 . S
H1380 C1357 0.930 . S
H1381 C1358 0.929 . S
H1382 C1360 0.930 . S
H1383 C1361 0.929 . S
Nd1384 C1386 2.836 . S
Nd1384 O1404 2.500 . S
Nd1384 O1405 2.492 . S
Nd1384 O1406 2.487 . S
Nd1384 O1407 2.682 . S
Nd1384 O1408 2.410 . S
Nd1384 O1413 2.414 . S
Nd1384 O1415 2.424 . S
Nd1385 C1395 2.836 . S
Nd1385 O1407 2.414 . S
Nd1385 O1409 2.424 . S
Nd1385 O1410 2.500 . S
Nd1385 O1411 2.492 . S
Nd1385 O1412 2.487 . S
Nd1385 O1413 2.682 . S
Nd1385 O1414 2.410 . S
C1386 Nd1384 2.836 . S
C1386 C1387 1.498 . S
C1386 O1404 1.258 . S
C1386 O1405 1.239 . S
C1387 C1386 1.498 . S
C1387 C1388 1.366 . S
C1387 C1392 1.407 . S
C1388 C1387 1.366 . S
C1388 C1389 1.392 . S
C1388 H1416 0.930 . S
C1389 C1388 1.392 . S
C1389 C1390 1.398 . S
C1389 H1417 0.929 . S
C1390 C1389 1.398 . S
C1390 C1391 1.352 . S
C1391 C1390 1.352 . S
C1391 C1392 1.384 . S
C1391 H1418 0.930 . S
C1392 C1387 1.407 . S
C1392 C1391 1.384 . S
C1392 H1419 0.929 . S
C1393 O1406 1.241 . S
C1393 O1407 1.273 . S
C1394 O1408 1.251 . S
C1394 O1409 1.268 . S
C1395 Nd1385 2.836 . S
C1395 C1396 1.498 . S
C1395 O1410 1.258 . S
C1395 O1411 1.239 . S
C1396 C1395 1.498 . S
C1396 C1397 1.366 . S
C1396 C1401 1.407 . S
C1397 C1396 1.366 . S
C1397 C1398 1.392 . S
C1397 H1420 0.930 . S
C1398 C1397 1.392 . S
C1398 C1399 1.398 . S
C1398 H1421 0.929 . S
C1399 C1398 1.398 . S
C1399 C1400 1.352 . S
C1400 C1399 1.352 . S
C1400 C1401 1.384 . S
C1400 H1422 0.930 . S
C1401 C1396 1.407 . S
C1401 C1400 1.384 . S
C1401 H1423 0.929 . S
C1402 O1412 1.241 . S
C1402 O1413 1.273 . S
C1403 O1414 1.251 . S
C1403 O1415 1.268 . S
O1404 Nd1384 2.500 . S
O1404 C1386 1.258 . S
O1405 Nd1384 2.492 . S
O1405 C1386 1.239 . S
O1406 Nd1384 2.487 . S
O1406 C1393 1.241 . S
O1407 Nd1384 2.682 . S
O1407 Nd1385 2.414 . S
O1407 C1393 1.273 . S
O1408 Nd1384 2.410 . S
O1408 C1394 1.251 . S
O1409 Nd1385 2.424 . S
O1409 C1394 1.268 . S
O1410 Nd1385 2.500 . S
O1410 C1395 1.258 . S
O1411 Nd1385 2.492 . S
O1411 C1395 1.239 . S
O1412 Nd1385 2.487 . S
O1412 C1402 1.241 . S
O1413 Nd1384 2.414 . S
O1413 Nd1385 2.682 . S
O1413 C1402 1.273 . S
O1414 Nd1385 2.410 . S
O1414 C1403 1.251 . S
O1415 Nd1384 2.424 . S
O1415 C1403 1.268 . S
H1416 C1388 0.930 . S
H1417 C1389 0.929 . S
H1418 C1391 0.930 . S
H1419 C1392 0.929 . S
H1420 C1397 0.930 . S
H1421 C1398 0.929 . S
H1422 C1400 0.930 . S
H1423 C1401 0.929 . S
Nd1424 C1426 2.836 . S
Nd1424 O1444 2.500 . S
Nd1424 O1445 2.492 . S
Nd1424 O1446 2.487 . S
Nd1424 O1447 2.682 . S
Nd1424 O1448 2.410 . S
Nd1424 O1453 2.414 . S
Nd1424 O1455 2.424 . S
Nd1425 C1435 2.836 . S
Nd1425 O1447 2.414 . S
Nd1425 O1449 2.424 . S
Nd1425 O1450 2.500 . S
Nd1425 O1451 2.492 . S
Nd1425 O1452 2.487 . S
Nd1425 O1453 2.682 . S
Nd1425 O1454 2.410 . S
C1426 Nd1424 2.836 . S
C1426 C1427 1.498 . S
C1426 O1444 1.258 . S
C1426 O1445 1.239 . S
C1427 C1426 1.498 . S
C1427 C1428 1.366 . S
C1427 C1432 1.407 . S
C1428 C1427 1.366 . S
C1428 C1429 1.392 . S
C1428 H1456 0.930 . S
C1429 C1428 1.392 . S
C1429 C1430 1.398 . S
C1429 H1457 0.929 . S
C1430 C1429 1.398 . S
C1430 C1431 1.352 . S
C1431 C1430 1.352 . S
C1431 C1432 1.384 . S
C1431 H1458 0.930 . S
C1432 C1427 1.407 . S
C1432 C1431 1.384 . S
C1432 H1459 0.929 . S
C1433 O1446 1.241 . S
C1433 O1447 1.273 . S
C1434 O1448 1.251 . S
C1434 O1449 1.268 . S
C1435 Nd1425 2.836 . S
C1435 C1436 1.498 . S
C1435 O1450 1.258 . S
C1435 O1451 1.239 . S
C1436 C1435 1.498 . S
C1436 C1437 1.366 . S
C1436 C1441 1.407 . S
C1437 C1436 1.366 . S
C1437 C1438 1.392 . S
C1437 H1460 0.930 . S
C1438 C1437 1.392 . S
C1438 C1439 1.398 . S
C1438 H1461 0.929 . S
C1439 C1438 1.398 . S
C1439 C1440 1.352 . S
C1440 C1439 1.352 . S
C1440 C1441 1.384 . S
C1440 H1462 0.930 . S
C1441 C1436 1.407 . S
C1441 C1440 1.384 . S
C1441 H1463 0.929 . S
C1442 O1452 1.241 . S
C1442 O1453 1.273 . S
C1443 O1454 1.251 . S
C1443 O1455 1.268 . S
O1444 Nd1424 2.500 . S
O1444 C1426 1.258 . S
O1445 Nd1424 2.492 . S
O1445 C1426 1.239 . S
O1446 Nd1424 2.487 . S
O1446 C1433 1.241 . S
O1447 Nd1424 2.682 . S
O1447 Nd1425 2.414 . S
O1447 C1433 1.273 . S
O1448 Nd1424 2.410 . S
O1448 C1434 1.251 . S
O1449 Nd1425 2.424 . S
O1449 C1434 1.268 . S
O1450 Nd1425 2.500 . S
O1450 C1435 1.258 . S
O1451 Nd1425 2.492 . S
O1451 C1435 1.239 . S
O1452 Nd1425 2.487 . S
O1452 C1442 1.241 . S
O1453 Nd1424 2.414 . S
O1453 Nd1425 2.682 . S
O1453 C1442 1.273 . S
O1454 Nd1425 2.410 . S
O1454 C1443 1.251 . S
O1455 Nd1424 2.424 . S
O1455 C1443 1.268 . S
H1456 C1428 0.930 . S
H1457 C1429 0.929 . S
H1458 C1431 0.930 . S
H1459 C1432 0.929 . S
H1460 C1437 0.930 . S
H1461 C1438 0.929 . S
H1462 C1440 0.930 . S
H1463 C1441 0.929 . S
Nd1464 C1466 2.836 . S
Nd1464 O1484 2.500 . S
Nd1464 O1485 2.492 . S
Nd1464 O1486 2.487 . S
Nd1464 O1487 2.682 . S
Nd1464 O1488 2.410 . S
Nd1464 O1493 2.414 . S
Nd1464 O1495 2.424 . S
Nd1465 C1475 2.836 1_455 S
Nd1465 O1487 2.414 . S
Nd1465 O1489 2.424 . S
Nd1465 O1490 2.500 1_455 S
Nd1465 O1491 2.492 1_455 S
Nd1465 O1492 2.487 . S
Nd1465 O1493 2.682 . S
Nd1465 O1494 2.410 . S
C1466 Nd1464 2.836 . S
C1466 C1467 1.498 . S
C1466 O1484 1.258 . S
C1466 O1485 1.239 . S
C1467 C1466 1.498 . S
C1467 C1468 1.366 . S
C1467 C1472 1.407 . S
C1468 C1467 1.366 . S
C1468 C1469 1.392 . S
C1468 H1496 0.930 . S
C1469 C1468 1.392 . S
C1469 C1470 1.398 . S
C1469 H1497 0.929 . S
C1470 C1469 1.398 . S
C1470 C1471 1.352 . S
C1471 C1470 1.352 . S
C1471 C1472 1.384 . S
C1471 H1498 0.930 . S
C1472 C1467 1.407 . S
C1472 C1471 1.384 . S
C1472 H1499 0.929 . S
C1473 O1486 1.241 . S
C1473 O1487 1.273 . S
C1474 O1488 1.251 . S
C1474 O1489 1.268 . S
C1475 Nd1465 2.836 1_655 S
C1475 C1476 1.498 . S
C1475 O1490 1.258 . S
C1475 O1491 1.239 . S
C1476 C1475 1.498 . S
C1476 C1477 1.366 . S
C1476 C1481 1.407 . S
C1477 C1476 1.366 . S
C1477 C1478 1.392 . S
C1477 H1500 0.930 . S
C1478 C1477 1.392 . S
C1478 C1479 1.398 . S
C1478 H1501 0.929 . S
C1479 C1478 1.398 . S
C1479 C1480 1.352 . S
C1480 C1479 1.352 . S
C1480 C1481 1.384 . S
C1480 H1502 0.930 . S
C1481 C1476 1.407 . S
C1481 C1480 1.384 . S
C1481 H1503 0.929 . S
C1482 O1492 1.241 . S
C1482 O1493 1.273 . S
C1483 O1494 1.251 . S
C1483 O1495 1.268 . S
O1484 Nd1464 2.500 . S
O1484 C1466 1.258 . S
O1485 Nd1464 2.492 . S
O1485 C1466 1.239 . S
O1486 Nd1464 2.487 . S
O1486 C1473 1.241 . S
O1487 Nd1464 2.682 . S
O1487 Nd1465 2.414 . S
O1487 C1473 1.273 . S
O1488 Nd1464 2.410 . S
O1488 C1474 1.251 . S
O1489 Nd1465 2.424 . S
O1489 C1474 1.268 . S
O1490 Nd1465 2.500 1_655 S
O1490 C1475 1.258 . S
O1491 Nd1465 2.492 1_655 S
O1491 C1475 1.239 . S
O1492 Nd1465 2.487 . S
O1492 C1482 1.241 . S
O1493 Nd1464 2.414 . S
O1493 Nd1465 2.682 . S
O1493 C1482 1.273 . S
O1494 Nd1465 2.410 . S
O1494 C1483 1.251 . S
O1495 Nd1464 2.424 . S
O1495 C1483 1.268 . S
H1496 C1468 0.930 . S
H1497 C1469 0.929 . S
H1498 C1471 0.930 . S
H1499 C1472 0.929 . S
H1500 C1477 0.930 . S
H1501 C1478 0.929 . S
H1502 C1480 0.930 . S
H1503 C1481 0.929 . S
C1504 C1505 1.391 . S
C1504 C1506 1.394 . S
C1504 H1520 0.931 . S
C1505 C1504 1.391 . S
C1505 C1509 1.376 . S
C1506 C1504 1.394 . S
C1506 C1507 1.369 . S
C1506 C1510 1.531 . S
C1507 C1506 1.369 . S
C1507 C1508 1.410 . S
C1507 C1515 1.503 1_556 S
C1508 C1507 1.410 . S
C1508 C1509 1.392 . S
C1508 C1511 1.511 1_455 S
C1509 C1505 1.376 . S
C1509 C1508 1.392 . S
C1509 H1521 0.929 . S
C1510 C1506 1.531 . S
C1510 H1522 0.960 1_556 S
C1510 H1523 0.962 . S
C1510 H1524 0.960 . S
C1511 C1508 1.511 1_655 S
C1511 H1525 0.961 . S
C1511 H1526 0.961 . S
C1511 H1527 0.959 1_556 S
C1512 C1513 1.370 . S
C1512 C1514 1.359 1_554 S
C1512 H1528 0.931 . S
C1513 C1512 1.370 . S
C1513 C1517 1.408 . S
C1514 C1512 1.359 1_556 S
C1514 C1515 1.370 1_556 S
C1514 C1518 1.529 . S
C1515 C1507 1.503 1_554 S
C1515 C1514 1.370 1_554 S
C1515 C1516 1.403 . S
C1516 C1515 1.403 . S
C1516 C1517 1.404 . S
C1516 C1519 1.539 . S
C1517 C1513 1.408 . S
C1517 C1516 1.404 . S
C1517 H1529 0.930 . S
C1518 C1514 1.529 . S
C1518 H1530 0.956 . S
C1518 H1531 0.961 . S
C1518 H1532 0.961 . S
C1519 C1516 1.539 . S
C1519 H1533 0.958 . S
C1519 H1534 0.961 . S
C1519 H1535 0.960 . S
H1520 C1504 0.931 . S
H1521 C1509 0.929 . S
H1522 C1510 0.960 1_554 S
H1523 C1510 0.962 . S
H1524 C1510 0.960 . S
H1525 C1511 0.961 . S
H1526 C1511 0.961 . S
H1527 C1511 0.959 1_554 S
H1528 C1512 0.931 . S
H1529 C1517 0.930 . S
H1530 C1518 0.956 . S
H1531 C1518 0.961 . S
H1532 C1518 0.961 . S
H1533 C1519 0.958 . S
H1534 C1519 0.961 . S
H1535 C1519 0.960 . S
C1536 C1537 1.391 . S
C1536 C1538 1.394 . S
C1536 H1552 0.931 . S
C1537 C1536 1.391 . S
C1537 C1541 1.376 . S
C1538 C1536 1.394 . S
C1538 C1539 1.369 . S
C1538 C1542 1.531 . S
C1539 C1538 1.369 . S
C1539 C1540 1.410 . S
C1539 C1547 1.503 . S
C1540 C1539 1.410 . S
C1540 C1541 1.392 . S
C1540 C1543 1.511 . S
C1541 C1537 1.376 . S
C1541 C1540 1.392 . S
C1541 H1553 0.929 . S
C1542 C1538 1.531 . S
C1542 H1554 0.960 . S
C1542 H1555 0.962 . S
C1542 H1556 0.960 . S
C1543 C1540 1.511 . S
C1543 H1557 0.961 . S
C1543 H1558 0.961 . S
C1543 H1559 0.961 . S
C1544 C1545 1.370 . S
C1544 C1546 1.363 . S
C1544 H1560 0.931 . S
C1545 C1544 1.370 . S
C1545 C1549 1.408 . S
C1546 C1544 1.363 . S
C1546 C1547 1.370 . S
C1546 C1550 1.524 . S
C1547 C1539 1.503 . S
C1547 C1546 1.370 . S
C1547 C1548 1.403 . S
C1548 C1547 1.403 . S
C1548 C1549 1.404 . S
C1548 C1551 1.539 . S
C1549 C1545 1.408 . S
C1549 C1548 1.404 . S
C1549 H1561 0.930 . S
C1550 C1546 1.524 . S
C1550 H1562 0.956 . S
C1550 H1563 0.961 . S
C1550 H1564 0.961 . S
C1551 C1548 1.539 . S
C1551 H1565 0.958 . S
C1551 H1566 0.961 . S
C1551 H1567 0.960 . S
H1552 C1536 0.931 . S
H1553 C1541 0.929 . S
H1554 C1542 0.960 . S
H1555 C1542 0.962 . S
H1556 C1542 0.960 . S
H1557 C1543 0.961 . S
H1558 C1543 0.961 . S
H1559 C1543 0.961 . S
H1560 C1544 0.931 . S
H1561 C1549 0.930 . S
H1562 C1550 0.956 . S
H1563 C1550 0.961 . S
H1564 C1550 0.961 . S
H1565 C1551 0.958 . S
H1566 C1551 0.961 . S
H1567 C1551 0.960 . S
C1568 C1569 1.391 . S
C1568 C1570 1.394 . S
C1568 H1584 0.931 . S
C1569 C1568 1.391 . S
C1569 C1573 1.376 . S
C1570 C1568 1.394 . S
C1570 C1571 1.369 . S
C1570 C1574 1.531 . S
C1571 C1570 1.369 . S
C1571 C1572 1.410 . S
C1571 C1579 1.503 . S
C1572 C1571 1.410 . S
C1572 C1573 1.392 . S
C1572 C1575 1.511 . S
C1573 C1569 1.376 . S
C1573 C1572 1.392 . S
C1573 H1585 0.929 . S
C1574 C1570 1.531 . S
C1574 H1586 0.960 . S
C1574 H1587 0.962 . S
C1574 H1588 0.960 . S
C1575 C1572 1.511 . S
C1575 H1589 0.961 . S
C1575 H1590 0.961 . S
C1575 H1591 0.961 . S
C1576 C1577 1.370 1_565 S
C1576 C1578 1.363 . S
C1576 H1592 0.931 . S
C1577 C1576 1.370 1_545 S
C1577 C1581 1.408 . S
C1578 C1576 1.363 . S
C1578 C1579 1.370 . S
C1578 C1582 1.524 . S
C1579 C1571 1.503 . S
C1579 C1578 1.370 . S
C1579 C1580 1.403 . S
C1580 C1579 1.403 . S
C1580 C1581 1.404 1_565 S
C1580 C1583 1.539 . S
C1581 C1577 1.408 . S
C1581 C1580 1.404 1_545 S
C1581 H1593 0.930 . S
C1582 C1578 1.524 . S
C1582 H1594 0.956 . S
C1582 H1595 0.961 . S
C1582 H1596 0.961 . S
C1583 C1580 1.539 . S
C1583 H1597 0.958 . S
C1583 H1598 0.961 . S
C1583 H1599 0.960 . S
H1584 C1568 0.931 . S
H1585 C1573 0.929 . S
H1586 C1574 0.960 . S
H1587 C1574 0.962 . S
H1588 C1574 0.960 . S
H1589 C1575 0.961 . S
H1590 C1575 0.961 . S
H1591 C1575 0.961 . S
H1592 C1576 0.931 . S
H1593 C1581 0.930 . S
H1594 C1582 0.956 . S
H1595 C1582 0.961 . S
H1596 C1582 0.961 . S
H1597 C1583 0.958 . S
H1598 C1583 0.961 . S
H1599 C1583 0.960 . S
C1600 C1601 1.391 . S
C1600 C1602 1.394 . S
C1600 H1616 0.931 . S
C1601 C1600 1.391 . S
C1601 C1605 1.376 . S
C1602 C1600 1.394 . S
C1602 C1603 1.369 . S
C1602 C1606 1.531 . S
C1603 C1602 1.369 . S
C1603 C1604 1.410 . S
C1603 C1611 1.503 . S
C1604 C1603 1.410 . S
C1604 C1605 1.392 . S
C1604 C1607 1.511 . S
C1605 C1601 1.376 . S
C1605 C1604 1.392 . S
C1605 H1617 0.929 . S
C1606 C1602 1.531 . S
C1606 H1618 0.960 . S
C1606 H1619 0.962 . S
C1606 H1620 0.960 . S
C1607 C1604 1.511 . S
C1607 H1621 0.961 . S
C1607 H1622 0.961 . S
C1607 H1623 0.961 . S
C1608 C1609 1.370 . S
C1608 C1610 1.363 . S
C1608 H1624 0.931 . S
C1609 C1608 1.370 . S
C1609 C1613 1.408 . S
C1610 C1608 1.363 . S
C1610 C1611 1.370 . S
C1610 C1614 1.524 . S
C1611 C1603 1.503 . S
C1611 C1610 1.370 . S
C1611 C1612 1.403 . S
C1612 C1611 1.403 . S
C1612 C1613 1.404 . S
C1612 C1615 1.539 . S
C1613 C1609 1.408 . S
C1613 C1612 1.404 . S
C1613 H1625 0.930 . S
C1614 C1610 1.524 . S
C1614 H1626 0.956 . S
C1614 H1627 0.961 . S
C1614 H1628 0.961 . S
C1615 C1612 1.539 . S
C1615 H1629 0.958 . S
C1615 H1630 0.961 . S
C1615 H1631 0.960 . S
H1616 C1600 0.931 . S
H1617 C1605 0.929 . S
H1618 C1606 0.960 . S
H1619 C1606 0.962 . S
H1620 C1606 0.960 . S
H1621 C1607 0.961 . S
H1622 C1607 0.961 . S
H1623 C1607 0.961 . S
H1624 C1608 0.931 . S
H1625 C1613 0.930 . S
H1626 C1614 0.956 . S
H1627 C1614 0.961 . S
H1628 C1614 0.961 . S
H1629 C1615 0.958 . S
H1630 C1615 0.961 . S
H1631 C1615 0.960 . S
C1632 C1633 1.391 1_655 S
C1632 C1634 1.394 1_655 S
C1632 H1648 0.931 . S
C1633 C1632 1.391 1_455 S
C1633 C1637 1.376 . S
C1634 C1632 1.394 1_455 S
C1634 C1635 1.369 . S
C1634 C1638 1.531 1_455 S
C1635 C1634 1.369 . S
C1635 C1636 1.410 . S
C1635 C1643 1.503 . S
C1636 C1635 1.410 . S
C1636 C1637 1.392 . S
C1636 C1639 1.511 . S
C1637 C1633 1.376 . S
C1637 C1636 1.392 . S
C1637 H1649 0.929 . S
C1638 C1634 1.531 1_655 S
C1638 H1650 0.950 1_655 S
C1638 H1651 0.962 . S
C1638 H1652 0.960 . S
C1639 C1636 1.511 . S
C1639 H1653 0.961 . S
C1639 H1654 0.961 . S
C1639 H1655 0.961 . S
C1640 C1641 1.370 . S
C1640 C1642 1.363 . S
C1640 H1656 0.931 . S
C1641 C1640 1.370 . S
C1641 C1645 1.408 . S
C1642 C1640 1.363 . S
C1642 C1643 1.370 . S
C1642 C1646 1.524 . S
C1643 C1635 1.503 . S
C1643 C1642 1.370 . S
C1643 C1644 1.403 . S
C1644 C1643 1.403 . S
C1644 C1645 1.404 . S
C1644 C1647 1.539 . S
C1645 C1641 1.408 . S
C1645 C1644 1.404 . S
C1645 H1657 0.930 . S
C1646 C1642 1.524 . S
C1646 H1658 0.956 . S
C1646 H1659 0.961 . S
C1646 H1660 0.961 . S
C1647 C1644 1.539 . S
C1647 H1661 0.958 . S
C1647 H1662 0.961 . S
C1647 H1663 0.960 . S
H1648 C1632 0.931 . S
H1649 C1637 0.929 . S
H1650 C1638 0.950 1_455 S
H1651 C1638 0.962 . S
H1652 C1638 0.960 . S
H1653 C1639 0.961 . S
H1654 C1639 0.961 . S
H1655 C1639 0.961 . S
H1656 C1640 0.931 . S
H1657 C1645 0.930 . S
H1658 C1646 0.956 . S
H1659 C1646 0.961 . S
H1660 C1646 0.961 . S
H1661 C1647 0.958 . S
H1662 C1647 0.961 . S
H1663 C1647 0.960 . S
C1664 C1665 1.391 . S
C1664 C1666 1.394 . S
C1664 H1680 0.931 . S
C1665 C1664 1.391 . S
C1665 C1669 1.376 . S
C1666 C1664 1.394 . S
C1666 C1667 1.369 . S
C1666 C1670 1.531 . S
C1667 C1666 1.369 . S
C1667 C1668 1.410 . S
C1667 C1675 1.503 . S
C1668 C1667 1.410 . S
C1668 C1669 1.392 . S
C1668 C1671 1.511 . S
C1669 C1665 1.376 . S
C1669 C1668 1.392 . S
C1669 H1681 0.929 . S
C1670 C1666 1.531 . S
C1670 H1682 0.960 . S
C1670 H1683 0.962 . S
C1670 H1684 0.960 . S
C1671 C1668 1.511 . S
C1671 H1685 0.961 . S
C1671 H1686 0.961 . S
C1671 H1687 0.961 . S
C1672 C1673 1.370 . S
C1672 C1674 1.363 . S
C1672 H1688 0.931 . S
C1673 C1672 1.370 . S
C1673 C1677 1.408 . S
C1674 C1672 1.363 . S
C1674 C1675 1.370 . S
C1674 C1678 1.524 . S
C1675 C1667 1.503 . S
C1675 C1674 1.370 . S
C1675 C1676 1.403 . S
C1676 C1675 1.403 . S
C1676 C1677 1.404 . S
C1676 C1679 1.539 . S
C1677 C1673 1.408 . S
C1677 C1676 1.404 . S
C1677 H1689 0.930 . S
C1678 C1674 1.524 . S
C1678 H1690 0.956 . S
C1678 H1691 0.961 . S
C1678 H1692 0.961 . S
C1679 C1676 1.539 . S
C1679 H1693 0.958 . S
C1679 H1694 0.961 . S
C1679 H1695 0.960 . S
H1680 C1664 0.931 . S
H1681 C1669 0.929 . S
H1682 C1670 0.960 . S
H1683 C1670 0.962 . S
H1684 C1670 0.960 . S
H1685 C1671 0.961 . S
H1686 C1671 0.961 . S
H1687 C1671 0.961 . S
H1688 C1672 0.931 . S
H1689 C1677 0.930 . S
H1690 C1678 0.956 . S
H1691 C1678 0.961 . S
H1692 C1678 0.961 . S
H1693 C1679 0.958 . S
H1694 C1679 0.961 . S
H1695 C1679 0.960 . S
C1696 C1697 1.391 . S
C1696 C1698 1.394 . S
C1696 H1712 0.931 . S
C1697 C1696 1.391 . S
C1697 C1701 1.376 . S
C1698 C1696 1.394 . S
C1698 C1699 1.369 . S
C1698 C1702 1.531 . S
C1699 C1698 1.369 . S
C1699 C1700 1.410 . S
C1699 C1707 1.503 . S
C1700 C1699 1.410 . S
C1700 C1701 1.392 . S
C1700 C1703 1.511 . S
C1701 C1697 1.376 . S
C1701 C1700 1.392 . S
C1701 H1713 0.929 . S
C1702 C1698 1.531 . S
C1702 H1714 0.960 . S
C1702 H1715 0.962 . S
C1702 H1716 0.960 . S
C1703 C1700 1.511 . S
C1703 H1717 0.961 . S
C1703 H1718 0.961 . S
C1703 H1719 0.961 . S
C1704 C1705 1.370 . S
C1704 C1706 1.363 . S
C1704 H1720 0.931 . S
C1705 C1704 1.370 . S
C1705 C1709 1.408 . S
C1706 C1704 1.363 . S
C1706 C1707 1.370 . S
C1706 C1710 1.524 . S
C1707 C1699 1.503 . S
C1707 C1706 1.370 . S
C1707 C1708 1.403 . S
C1708 C1707 1.403 . S
C1708 C1709 1.404 . S
C1708 C1711 1.539 . S
C1709 C1705 1.408 . S
C1709 C1708 1.404 . S
C1709 H1721 0.930 . S
C1710 C1706 1.524 . S
C1710 H1722 0.956 . S
C1710 H1723 0.961 . S
C1710 H1724 0.961 . S
C1711 C1708 1.539 . S
C1711 H1725 0.958 . S
C1711 H1726 0.961 . S
C1711 H1727 0.960 . S
H1712 C1696 0.931 . S
H1713 C1701 0.929 . S
H1714 C1702 0.960 . S
H1715 C1702 0.962 . S
H1716 C1702 0.960 . S
H1717 C1703 0.961 . S
H1718 C1703 0.961 . S
H1719 C1703 0.961 . S
H1720 C1704 0.931 . S
H1721 C1709 0.930 . S
H1722 C1710 0.956 . S
H1723 C1710 0.961 . S
H1724 C1710 0.961 . S
H1725 C1711 0.958 . S
H1726 C1711 0.961 . S
H1727 C1711 0.960 . S
C1728 C1729 1.391 . S
C1728 C1730 1.394 . S
C1728 H1744 0.931 . S
C1729 C1728 1.391 . S
C1729 C1733 1.376 . S
C1730 C1728 1.394 . S
C1730 C1731 1.369 . S
C1730 C1734 1.531 . S
C1731 C1730 1.369 . S
C1731 C1732 1.410 . S
C1731 C1739 1.503 . S
C1732 C1731 1.410 . S
C1732 C1733 1.392 . S
C1732 C1735 1.511 . S
C1733 C1729 1.376 . S
C1733 C1732 1.392 . S
C1733 H1745 0.929 . S
C1734 C1730 1.531 . S
C1734 H1746 0.960 . S
C1734 H1747 0.962 . S
C1734 H1748 0.960 . S
C1735 C1732 1.511 . S
C1735 H1749 0.961 . S
C1735 H1750 0.961 . S
C1735 H1751 0.961 . S
C1736 C1737 1.370 . S
C1736 C1738 1.363 . S
C1736 H1752 0.931 . S
C1737 C1736 1.370 . S
C1737 C1741 1.408 . S
C1738 C1736 1.363 . S
C1738 C1739 1.370 . S
C1738 C1742 1.524 . S
C1739 C1731 1.503 . S
C1739 C1738 1.370 . S
C1739 C1740 1.403 . S
C1740 C1739 1.403 . S
C1740 C1741 1.404 . S
C1740 C1743 1.539 . S
C1741 C1737 1.408 . S
C1741 C1740 1.404 . S
C1741 H1753 0.930 . S
C1742 C1738 1.524 . S
C1742 H1754 0.956 . S
C1742 H1755 0.961 . S
C1742 H1756 0.961 . S
C1743 C1740 1.539 . S
C1743 H1757 0.958 . S
C1743 H1758 0.961 . S
C1743 H1759 0.960 . S
H1744 C1728 0.931 . S
H1745 C1733 0.929 . S
H1746 C1734 0.960 . S
H1747 C1734 0.962 . S
H1748 C1734 0.960 . S
H1749 C1735 0.961 . S
H1750 C1735 0.961 . S
H1751 C1735 0.961 . S
H1752 C1736 0.931 . S
H1753 C1741 0.930 . S
H1754 C1742 0.956 . S
H1755 C1742 0.961 . S
H1756 C1742 0.961 . S
H1757 C1743 0.958 . S
H1758 C1743 0.961 . S
H1759 C1743 0.960 . S
C1760 C1761 1.391 . S
C1760 C1762 1.394 . S
C1760 H1776 0.931 . S
C1761 C1760 1.391 . S
C1761 C1765 1.376 . S
C1762 C1760 1.394 . S
C1762 C1763 1.369 . S
C1762 C1766 1.531 . S
C1763 C1762 1.369 . S
C1763 C1764 1.410 . S
C1763 C1771 1.503 . S
C1764 C1763 1.410 . S
C1764 C1765 1.392 . S
C1764 C1767 1.511 . S
C1765 C1761 1.376 . S
C1765 C1764 1.392 . S
C1765 H1777 0.929 . S
C1766 C1762 1.531 . S
C1766 H1778 0.960 . S
C1766 H1779 0.962 . S
C1766 H1780 0.960 . S
C1767 C1764 1.511 . S
C1767 H1781 0.961 1_655 S
C1767 H1782 0.961 1_655 S
C1767 H1783 0.961 . S
C1768 C1769 1.370 . S
C1768 C1770 1.363 1_455 S
C1768 H1784 0.931 . S
C1769 C1768 1.370 . S
C1769 C1773 1.408 1_455 S
C1770 C1768 1.363 1_655 S
C1770 C1771 1.370 . S
C1770 C1774 1.524 . S
C1771 C1763 1.503 . S
C1771 C1770 1.370 . S
C1771 C1772 1.403 . S
C1772 C1771 1.403 . S
C1772 C1773 1.404 . S
C1772 C1775 1.539 . S
C1773 C1769 1.408 1_655 S
C1773 C1772 1.404 . S
C1773 H1785 0.930 . S
C1774 C1770 1.524 . S
C1774 H1786 0.956 . S
C1774 H1787 0.961 . S
C1774 H1788 0.961 . S
C1775 C1772 1.539 . S
C1775 H1789 0.958 . S
C1775 H1790 0.961 . S
C1775 H1791 0.960 . S
H1776 C1760 0.931 . S
H1777 C1765 0.929 . S
H1778 C1766 0.960 . S
H1779 C1766 0.962 . S
H1780 C1766 0.960 . S
H1781 C1767 0.961 1_455 S
H1782 C1767 0.961 1_455 S
H1783 C1767 0.961 . S
H1784 C1768 0.931 . S
H1785 C1773 0.930 . S
H1786 C1774 0.956 . S
H1787 C1774 0.961 . S
H1788 C1774 0.961 . S
H1789 C1775 0.958 . S
H1790 C1775 0.961 . S
H1791 C1775 0.960 . S
C1792 C1793 1.391 . S
C1792 C1794 1.394 . S
C1792 H1808 0.931 . S
C1793 C1792 1.391 . S
C1793 C1797 1.376 . S
C1794 C1792 1.394 . S
C1794 C1795 1.369 . S
C1794 C1798 1.531 . S
C1795 C1794 1.369 . S
C1795 C1796 1.410 . S
C1795 C1803 1.503 . S
C1796 C1795 1.410 . S
C1796 C1797 1.392 . S
C1796 C1799 1.511 . S
C1797 C1793 1.376 . S
C1797 C1796 1.392 . S
C1797 H1809 0.929 . S
C1798 C1794 1.531 . S
C1798 H1810 0.960 . S
C1798 H1811 0.962 . S
C1798 H1812 0.960 . S
C1799 C1796 1.511 . S
C1799 H1813 0.961 . S
C1799 H1814 0.961 . S
C1799 H1815 0.961 . S
C1800 C1801 1.370 . S
C1800 C1802 1.363 . S
C1800 H1816 0.931 . S
C1801 C1800 1.370 . S
C1801 C1805 1.408 . S
C1802 C1800 1.363 . S
C1802 C1803 1.370 . S
C1802 C1806 1.524 . S
C1803 C1795 1.503 . S
C1803 C1802 1.370 . S
C1803 C1804 1.403 . S
C1804 C1803 1.403 . S
C1804 C1805 1.404 . S
C1804 C1807 1.539 . S
C1805 C1801 1.408 . S
C1805 C1804 1.404 . S
C1805 H1817 0.930 . S
C1806 C1802 1.524 . S
C1806 H1818 0.956 . S
C1806 H1819 0.961 . S
C1806 H1820 0.961 . S
C1807 C1804 1.539 . S
C1807 H1821 0.958 . S
C1807 H1822 0.961 . S
C1807 H1823 0.960 . S
H1808 C1792 0.931 . S
H1809 C1797 0.929 . S
H1810 C1798 0.960 . S
H1811 C1798 0.962 . S
H1812 C1798 0.960 . S
H1813 C1799 0.961 . S
H1814 C1799 0.961 . S
H1815 C1799 0.961 . S
H1816 C1800 0.931 . S
H1817 C1805 0.930 . S
H1818 C1806 0.956 . S
H1819 C1806 0.961 . S
H1820 C1806 0.961 . S
H1821 C1807 0.958 . S
H1822 C1807 0.961 . S
H1823 C1807 0.960 . S
C1824 C1825 1.391 . S
C1824 C1826 1.394 . S
C1824 H1840 0.931 . S
C1825 C1824 1.391 . S
C1825 C1829 1.376 . S
C1826 C1824 1.394 . S
C1826 C1827 1.369 . S
C1826 C1830 1.531 . S
C1827 C1826 1.369 . S
C1827 C1828 1.410 . S
C1827 C1835 1.503 . S
C1828 C1827 1.410 . S
C1828 C1829 1.392 . S
C1828 C1831 1.511 . S
C1829 C1825 1.376 . S
C1829 C1828 1.392 . S
C1829 H1841 0.929 1_545 S
C1830 C1826 1.531 . S
C1830 H1842 0.960 . S
C1830 H1843 0.962 . S
C1830 H1844 0.960 . S
C1831 C1828 1.511 . S
C1831 H1845 0.961 1_545 S
C1831 H1846 0.961 . S
C1831 H1847 0.961 . S
C1832 C1833 1.370 . S
C1832 C1834 1.363 . S
C1832 H1848 0.931 . S
C1833 C1832 1.370 . S
C1833 C1837 1.408 . S
C1834 C1832 1.363 . S
C1834 C1835 1.370 . S
C1834 C1838 1.524 1_545 S
C1835 C1827 1.503 . S
C1835 C1834 1.370 . S
C1835 C1836 1.403 . S
C1836 C1835 1.403 . S
C1836 C1837 1.404 . S
C1836 C1839 1.539 . S
C1837 C1833 1.408 . S
C1837 C1836 1.404 . S
C1837 H1849 0.930 . S
C1838 C1834 1.524 1_565 S
C1838 H1850 0.956 . S
C1838 H1851 0.961 . S
C1838 H1852 0.961 . S
C1839 C1836 1.539 . S
C1839 H1853 0.958 . S
C1839 H1854 0.961 . S
C1839 H1855 0.960 . S
H1840 C1824 0.931 . S
H1841 C1829 0.929 1_565 S
H1842 C1830 0.960 . S
H1843 C1830 0.962 . S
H1844 C1830 0.960 . S
H1845 C1831 0.961 1_565 S
H1846 C1831 0.961 . S
H1847 C1831 0.961 . S
H1848 C1832 0.931 . S
H1849 C1837 0.930 . S
H1850 C1838 0.956 . S
H1851 C1838 0.961 . S
H1852 C1838 0.961 . S
H1853 C1839 0.958 . S
H1854 C1839 0.961 . S
H1855 C1839 0.960 . S
C1856 C1857 1.391 . S
C1856 C1858 1.394 . S
C1856 H1872 0.931 . S
C1857 C1856 1.391 . S
C1857 C1861 1.376 . S
C1858 C1856 1.394 . S
C1858 C1859 1.369 . S
C1858 C1862 1.531 . S
C1859 C1858 1.369 . S
C1859 C1860 1.410 . S
C1859 C1867 1.503 . S
C1860 C1859 1.410 . S
C1860 C1861 1.392 . S
C1860 C1863 1.511 . S
C1861 C1857 1.376 . S
C1861 C1860 1.392 . S
C1861 H1873 0.929 . S
C1862 C1858 1.531 . S
C1862 H1874 0.960 . S
C1862 H1875 0.962 . S
C1862 H1876 0.960 . S
C1863 C1860 1.511 . S
C1863 H1877 0.961 . S
C1863 H1878 0.961 . S
C1863 H1879 0.961 . S
C1864 C1865 1.370 . S
C1864 C1866 1.363 1_556 S
C1864 H1880 0.921 1_556 S
C1865 C1864 1.370 . S
C1865 C1869 1.408 . S
C1866 C1864 1.363 1_554 S
C1866 C1867 1.370 . S
C1866 C1870 1.524 . S
C1867 C1859 1.503 . S
C1867 C1866 1.370 . S
C1867 C1868 1.403 1_554 S
C1868 C1867 1.403 1_556 S
C1868 C1869 1.404 . S
C1868 C1871 1.539 . S
C1869 C1865 1.408 . S
C1869 C1868 1.404 . S
C1869 H1881 0.930 . S
C1870 C1866 1.524 . S
C1870 H1882 0.956 . S
C1870 H1883 0.961 . S
C1870 H1884 0.961 . S
C1871 C1868 1.539 . S
C1871 H1885 0.958 . S
C1871 H1886 0.961 . S
C1871 H1887 0.960 1_556 S
H1872 C1856 0.931 . S
H1873 C1861 0.929 . S
H1874 C1862 0.960 . S
H1875 C1862 0.962 . S
H1876 C1862 0.960 . S
H1877 C1863 0.961 . S
H1878 C1863 0.961 . S
H1879 C1863 0.961 . S
H1880 C1864 0.921 1_554 S
H1881 C1869 0.930 . S
H1882 C1870 0.956 . S
H1883 C1870 0.961 . S
H1884 C1870 0.961 . S
H1885 C1871 0.958 . S
H1886 C1871 0.961 . S
H1887 C1871 0.960 1_554 S
C1888 C1889 1.391 . S
C1888 C1890 1.394 . S
C1888 H1904 0.931 . S
C1889 C1888 1.391 . S
C1889 C1893 1.376 . S
C1890 C1888 1.394 . S
C1890 C1891 1.369 . S
C1890 C1894 1.531 . S
C1891 C1890 1.369 . S
C1891 C1892 1.410 . S
C1891 C1899 1.503 . S
C1892 C1891 1.410 . S
C1892 C1893 1.392 . S
C1892 C1895 1.511 . S
C1893 C1889 1.376 . S
C1893 C1892 1.392 . S
C1893 H1905 0.929 . S
C1894 C1890 1.531 . S
C1894 H1906 0.960 . S
C1894 H1907 0.962 . S
C1894 H1908 0.960 . S
C1895 C1892 1.511 . S
C1895 H1909 0.961 . S
C1895 H1910 0.961 . S
C1895 H1911 0.961 1_655 S
C1896 C1897 1.370 . S
C1896 C1898 1.363 . S
C1896 H1912 0.931 . S
C1897 C1896 1.370 . S
C1897 C1901 1.408 1_655 S
C1898 C1896 1.363 . S
C1898 C1899 1.370 . S
C1898 C1902 1.524 . S
C1899 C1891 1.503 . S
C1899 C1898 1.370 . S
C1899 C1900 1.372 1_655 S
C1900 C1899 1.372 1_455 S
C1900 C1901 1.414 . S
C1900 C1903 1.561 . S
C1901 C1897 1.408 1_455 S
C1901 C1900 1.414 . S
C1901 H1913 0.930 . S
C1902 C1898 1.524 . S
C1902 H1914 0.956 . S
C1902 H1915 0.961 . S
C1902 H1916 0.961 . S
C1903 C1900 1.561 . S
C1903 H1917 0.958 . S
C1903 H1918 0.961 . S
C1903 H1919 0.960 . S
H1904 C1888 0.931 . S
H1905 C1893 0.929 . S
H1906 C1894 0.960 . S
H1907 C1894 0.962 . S
H1908 C1894 0.960 . S
H1909 C1895 0.961 . S
H1910 C1895 0.961 . S
H1911 C1895 0.961 1_455 S
H1912 C1896 0.931 . S
H1913 C1901 0.930 . S
H1914 C1902 0.956 . S
H1915 C1902 0.961 . S
H1916 C1902 0.961 . S
H1917 C1903 0.958 . S
H1918 C1903 0.961 . S
H1919 C1903 0.960 . S
C1920 C1921 1.391 . S
C1920 C1922 1.394 . S
C1920 H1936 0.931 . S
C1921 C1920 1.391 . S
C1921 C1925 1.376 . S
C1922 C1920 1.394 . S
C1922 C1923 1.369 . S
C1922 C1926 1.531 . S
C1923 C1922 1.369 . S
C1923 C1924 1.410 . S
C1923 C1931 1.503 . S
C1924 C1923 1.410 . S
C1924 C1925 1.392 . S
C1924 C1927 1.511 . S
C1925 C1921 1.376 . S
C1925 C1924 1.392 . S
C1925 H1937 0.929 . S
C1926 C1922 1.531 . S
C1926 H1938 0.960 . S
C1926 H1939 0.962 . S
C1926 H1940 0.960 . S
C1927 C1924 1.511 . S
C1927 H1941 0.961 . S
C1927 H1942 0.961 . S
C1927 H1943 0.961 . S
C1928 C1929 1.370 . S
C1928 C1930 1.363 . S
C1928 H1944 0.931 . S
C1929 C1928 1.370 . S
C1929 C1933 1.408 . S
C1930 C1928 1.363 . S
C1930 C1931 1.370 . S
C1930 C1934 1.524 . S
C1931 C1923 1.503 . S
C1931 C1930 1.370 . S
C1931 C1932 1.403 . S
C1932 C1931 1.403 . S
C1932 C1933 1.404 . S
C1932 C1935 1.539 . S
C1933 C1929 1.408 . S
C1933 C1932 1.404 . S
C1933 H1945 0.930 . S
C1934 C1930 1.524 . S
C1934 H1946 0.956 . S
C1934 H1947 0.961 . S
C1934 H1948 0.961 . S
C1935 C1932 1.539 . S
C1935 H1949 0.958 . S
C1935 H1950 0.961 . S
C1935 H1951 0.960 . S
H1936 C1920 0.931 . S
H1937 C1925 0.929 . S
H1938 C1926 0.960 . S
H1939 C1926 0.962 . S
H1940 C1926 0.960 . S
H1941 C1927 0.961 . S
H1942 C1927 0.961 . S
H1943 C1927 0.961 . S
H1944 C1928 0.931 . S
H1945 C1933 0.930 . S
H1946 C1934 0.956 . S
H1947 C1934 0.961 . S
H1948 C1934 0.961 . S
H1949 C1935 0.958 . S
H1950 C1935 0.961 . S
H1951 C1935 0.960 . S
C1952 C1953 1.391 . S
C1952 C1954 1.394 . S
C1952 H1968 0.931 1_545 S
C1953 C1952 1.391 . S
C1953 C1957 1.376 . S
C1954 C1952 1.394 . S
C1954 C1955 1.369 . S
C1954 C1958 1.531 . S
C1955 C1954 1.369 . S
C1955 C1956 1.410 . S
C1955 C1963 1.503 . S
C1956 C1955 1.410 . S
C1956 C1957 1.392 . S
C1956 C1959 1.511 . S
C1957 C1953 1.376 . S
C1957 C1956 1.392 . S
C1957 H1969 0.929 . S
C1958 C1954 1.531 . S
C1958 H1970 0.960 . S
C1958 H1971 0.962 . S
C1958 H1972 0.960 . S
C1959 C1956 1.511 . S
C1959 H1973 0.961 . S
C1959 H1974 0.961 . S
C1959 H1975 0.961 . S
C1960 C1961 1.372 . S
C1960 C1962 1.363 . S
C1960 H1976 0.931 . S
C1961 C1960 1.372 . S
C1961 C1965 1.410 . S
C1962 C1960 1.363 . S
C1962 C1963 1.370 . S
C1962 C1966 1.524 . S
C1963 C1955 1.503 . S
C1963 C1962 1.370 . S
C1963 C1964 1.403 . S
C1964 C1963 1.403 . S
C1964 C1965 1.404 . S
C1964 C1967 1.539 . S
C1965 C1961 1.410 . S
C1965 C1964 1.404 . S
C1965 H1977 0.930 1_556 S
C1966 C1962 1.524 . S
C1966 H1978 0.956 1_545 S
C1966 H1979 0.961 . S
C1966 H1980 0.961 . S
C1967 C1964 1.539 . S
C1967 H1981 0.958 . S
C1967 H1982 0.961 . S
C1967 H1983 0.960 . S
H1968 C1952 0.931 1_565 S
H1969 C1957 0.929 . S
H1970 C1958 0.960 . S
H1971 C1958 0.962 . S
H1972 C1958 0.960 . S
H1973 C1959 0.961 . S
H1974 C1959 0.961 . S
H1975 C1959 0.961 . S
H1976 C1960 0.931 . S
H1977 C1965 0.930 1_554 S
H1978 C1966 0.956 1_565 S
H1979 C1966 0.961 . S
H1980 C1966 0.961 . S
H1981 C1967 0.958 . S
H1982 C1967 0.961 . S
H1983 C1967 0.960 . S
C1984 C1985 1.391 . S
C1984 C1986 1.394 . S
C1984 H2000 0.931 . S
C1985 C1984 1.391 . S
C1985 C1989 1.376 . S
C1986 C1984 1.394 . S
C1986 C1987 1.369 . S
C1986 C1990 1.531 . S
C1987 C1986 1.369 . S
C1987 C1988 1.410 . S
C1987 C1995 1.503 . S
C1988 C1987 1.410 . S
C1988 C1989 1.392 . S
C1988 C1991 1.511 . S
C1989 C1985 1.376 . S
C1989 C1988 1.392 . S
C1989 H2001 0.929 . S
C1990 C1986 1.531 . S
C1990 H2002 0.960 . S
C1990 H2003 0.962 . S
C1990 H2004 0.960 . S
C1991 C1988 1.511 . S
C1991 H2005 0.961 . S
C1991 H2006 0.961 . S
C1991 H2007 0.961 . S
C1992 C1993 1.370 . S
C1992 C1994 1.363 . S
C1992 H2008 0.931 . S
C1993 C1992 1.370 . S
C1993 C1997 1.408 . S
C1994 C1992 1.363 . S
C1994 C1995 1.370 . S
C1994 C1998 1.524 . S
C1995 C1987 1.503 . S
C1995 C1994 1.370 . S
C1995 C1996 1.403 . S
C1996 C1995 1.403 . S
C1996 C1997 1.404 . S
C1996 C1999 1.539 . S
C1997 C1993 1.408 . S
C1997 C1996 1.404 . S
C1997 H2009 0.930 . S
C1998 C1994 1.524 . S
C1998 H2010 0.956 . S
C1998 H2011 0.961 . S
C1998 H2012 0.961 . S
C1999 C1996 1.539 . S
C1999 H2013 0.958 . S
C1999 H2014 0.961 . S
C1999 H2015 0.960 . S
H2000 C1984 0.931 . S
H2001 C1989 0.929 . S
H2002 C1990 0.960 . S
H2003 C1990 0.962 . S
H2004 C1990 0.960 . S
H2005 C1991 0.961 . S
H2006 C1991 0.961 . S
H2007 C1991 0.961 . S
H2008 C1992 0.931 . S
H2009 C1997 0.930 . S
H2010 C1998 0.956 . S
H2011 C1998 0.961 . S
H2012 C1998 0.961 . S
H2013 C1999 0.958 . S
H2014 C1999 0.961 . S
H2015 C1999 0.960 . S
C2016 C2017 1.391 . S
C2016 C2018 1.394 . S
C2016 H2032 0.931 . S
C2017 C2016 1.391 . S
C2017 C2021 1.376 . S
C2018 C2016 1.394 . S
C2018 C2019 1.369 . S
C2018 C2022 1.531 . S
C2019 C2018 1.369 . S
C2019 C2020 1.410 . S
C2019 C2027 1.503 . S
C2020 C2019 1.410 . S
C2020 C2021 1.392 . S
C2020 C2023 1.511 . S
C2021 C2017 1.376 . S
C2021 C2020 1.392 . S
C2021 H2033 0.929 . S
C2022 C2018 1.531 . S
C2022 H2034 0.960 . S
C2022 H2035 0.962 . S
C2022 H2036 0.960 . S
C2023 C2020 1.511 . S
C2023 H2037 0.961 . S
C2023 H2038 0.961 . S
C2023 H2039 0.961 . S
C2024 C2025 1.370 1_565 S
C2024 C2026 1.363 . S
C2024 H2040 0.931 . S
C2025 C2024 1.370 1_545 S
C2025 C2029 1.408 . S
C2026 C2024 1.363 . S
C2026 C2027 1.370 . S
C2026 C2030 1.524 . S
C2027 C2019 1.503 . S
C2027 C2026 1.370 . S
C2027 C2028 1.403 1_565 S
C2028 C2027 1.403 1_545 S
C2028 C2029 1.404 . S
C2028 C2031 1.539 . S
C2029 C2025 1.408 . S
C2029 C2028 1.404 . S
C2029 H2041 0.930 . S
C2030 C2026 1.524 . S
C2030 H2042 0.956 . S
C2030 H2043 0.961 . S
C2030 H2044 0.961 . S
C2031 C2028 1.539 . S
C2031 H2045 0.958 . S
C2031 H2046 0.961 . S
C2031 H2047 0.960 . S
H2032 C2016 0.931 . S
H2033 C2021 0.929 . S
H2034 C2022 0.960 . S
H2035 C2022 0.962 . S
H2036 C2022 0.960 . S
H2037 C2023 0.961 . S
H2038 C2023 0.961 . S
H2039 C2023 0.961 . S
H2040 C2024 0.931 . S
H2041 C2029 0.930 . S
H2042 C2030 0.956 . S
H2043 C2030 0.961 . S
H2044 C2030 0.961 . S
H2045 C2031 0.958 . S
H2046 C2031 0.961 . S
H2047 C2031 0.960 . S
C2048 C2049 1.391 . S
C2048 C2050 1.394 . S
C2048 H2064 0.931 . S
C2049 C2048 1.391 . S
C2049 C2053 1.376 1_554 S
C2050 C2048 1.394 . S
C2050 C2051 1.369 . S
C2050 C2054 1.531 . S
C2051 C2050 1.369 . S
C2051 C2052 1.410 . S
C2051 C2059 1.503 . S
C2052 C2051 1.410 . S
C2052 C2053 1.392 1_554 S
C2052 C2055 1.519 . S
C2053 C2049 1.376 1_556 S
C2053 C2052 1.392 1_556 S
C2053 H2065 0.929 . S
C2054 C2050 1.531 . S
C2054 H2066 0.960 . S
C2054 H2067 0.962 . S
C2054 H2068 0.960 . S
C2055 C2052 1.519 . S
C2055 H2069 0.921 1_554 S
C2055 H2070 0.973 . S
C2055 H2071 0.983 . S
C2056 C2057 1.370 . S
C2056 C2058 1.363 . S
C2056 H2072 0.931 . S
C2057 C2056 1.370 . S
C2057 C2061 1.408 . S
C2058 C2056 1.363 . S
C2058 C2059 1.370 . S
C2058 C2062 1.524 1_554 S
C2059 C2051 1.503 . S
C2059 C2058 1.370 . S
C2059 C2060 1.403 . S
C2060 C2059 1.403 . S
C2060 C2061 1.404 . S
C2060 C2063 1.539 . S
C2061 C2057 1.408 . S
C2061 C2060 1.404 . S
C2061 H2073 0.930 . S
C2062 C2058 1.524 1_556 S
C2062 H2074 0.964 . S
C2062 H2075 0.961 . S
C2062 H2076 0.961 . S
C2063 C2060 1.539 . S
C2063 H2077 0.958 . S
C2063 H2078 0.961 . S
C2063 H2079 0.960 . S
H2064 C2048 0.931 . S
H2065 C2053 0.929 . S
H2066 C2054 0.960 . S
H2067 C2054 0.962 . S
H2068 C2054 0.960 . S
H2069 C2055 0.921 1_556 S
H2070 C2055 0.973 . S
H2071 C2055 0.983 . S
H2072 C2056 0.931 . S
H2073 C2061 0.930 . S
H2074 C2062 0.964 . S
H2075 C2062 0.961 . S
H2076 C2062 0.961 . S
H2077 C2063 0.958 . S
H2078 C2063 0.961 . S
H2079 C2063 0.960 . S
C2080 C2081 1.391 . S
C2080 C2082 1.394 . S
C2080 H2096 0.931 . S
C2081 C2080 1.391 . S
C2081 C2085 1.376 . S
C2082 C2080 1.394 . S
C2082 C2083 1.369 . S
C2082 C2086 1.531 . S
C2083 C2082 1.369 . S
C2083 C2084 1.410 . S
C2083 C2091 1.503 . S
C2084 C2083 1.410 . S
C2084 C2085 1.392 . S
C2084 C2087 1.511 . S
C2085 C2081 1.376 . S
C2085 C2084 1.392 . S
C2085 H2097 0.929 . S
C2086 C2082 1.531 . S
C2086 H2098 0.960 . S
C2086 H2099 0.962 . S
C2086 H2100 0.960 . S
C2087 C2084 1.511 . S
C2087 H2101 0.961 . S
C2087 H2102 0.961 . S
C2087 H2103 0.961 . S
C2088 C2089 1.370 . S
C2088 C2090 1.363 . S
C2088 H2104 0.931 . S
C2089 C2088 1.370 . S
C2089 C2093 1.408 . S
C2090 C2088 1.363 . S
C2090 C2091 1.370 . S
C2090 C2094 1.524 . S
C2091 C2083 1.503 . S
C2091 C2090 1.370 . S
C2091 C2092 1.403 . S
C2092 C2091 1.403 . S
C2092 C2093 1.404 . S
C2092 C2095 1.539 . S
C2093 C2089 1.408 . S
C2093 C2092 1.404 . S
C2093 H2105 0.930 . S
C2094 C2090 1.524 . S
C2094 H2106 0.956 . S
C2094 H2107 0.961 . S
C2094 H2108 0.961 . S
C2095 C2092 1.539 . S
C2095 H2109 0.958 . S
C2095 H2110 0.961 . S
C2095 H2111 0.960 . S
H2096 C2080 0.931 . S
H2097 C2085 0.929 . S
H2098 C2086 0.960 . S
H2099 C2086 0.962 . S
H2100 C2086 0.960 . S
H2101 C2087 0.961 . S
H2102 C2087 0.961 . S
H2103 C2087 0.961 . S
H2104 C2088 0.931 . S
H2105 C2093 0.930 . S
H2106 C2094 0.956 . S
H2107 C2094 0.961 . S
H2108 C2094 0.961 . S
H2109 C2095 0.958 . S
H2110 C2095 0.961 . S
H2111 C2095 0.960 . S
C2112 C2113 1.391 . S
C2112 C2114 1.394 . S
C2112 H2128 0.931 . S
C2113 C2112 1.391 . S
C2113 C2117 1.376 . S
C2114 C2112 1.394 . S
C2114 C2115 1.369 . S
C2114 C2118 1.531 . S
C2115 C2114 1.369 . S
C2115 C2116 1.410 . S
C2115 C2123 1.503 . S
C2116 C2115 1.410 . S
C2116 C2117 1.392 . S
C2116 C2119 1.511 . S
C2117 C2113 1.376 . S
C2117 C2116 1.392 . S
C2117 H2129 0.929 . S
C2118 C2114 1.531 . S
C2118 H2130 0.960 . S
C2118 H2131 0.962 . S
C2118 H2132 0.960 . S
C2119 C2116 1.511 . S
C2119 H2133 0.961 . S
C2119 H2134 0.961 . S
C2119 H2135 0.961 . S
C2120 C2121 1.370 . S
C2120 C2122 1.363 . S
C2120 H2136 0.931 . S
C2121 C2120 1.370 . S
C2121 C2125 1.408 . S
C2122 C2120 1.363 . S
C2122 C2123 1.370 . S
C2122 C2126 1.524 . S
C2123 C2115 1.503 . S
C2123 C2122 1.370 . S
C2123 C2124 1.403 . S
C2124 C2123 1.403 . S
C2124 C2125 1.404 . S
C2124 C2127 1.539 . S
C2125 C2121 1.408 . S
C2125 C2124 1.404 . S
C2125 H2137 0.930 . S
C2126 C2122 1.524 . S
C2126 H2138 0.956 . S
C2126 H2139 0.961 . S
C2126 H2140 0.961 . S
C2127 C2124 1.539 . S
C2127 H2141 0.958 . S
C2127 H2142 0.961 . S
C2127 H2143 0.960 . S
H2128 C2112 0.931 . S
H2129 C2117 0.929 . S
H2130 C2118 0.960 . S
H2131 C2118 0.962 . S
H2132 C2118 0.960 . S
H2133 C2119 0.961 . S
H2134 C2119 0.961 . S
H2135 C2119 0.961 . S
H2136 C2120 0.931 . S
H2137 C2125 0.930 . S
H2138 C2126 0.956 . S
H2139 C2126 0.961 . S
H2140 C2126 0.961 . S
H2141 C2127 0.958 . S
H2142 C2127 0.961 . S
H2143 C2127 0.960 . S
C2144 C2145 1.391 . S
C2144 C2146 1.394 . S
C2144 H2160 0.931 . S
C2145 C2144 1.391 . S
C2145 C2149 1.376 . S
C2146 C2144 1.394 . S
C2146 C2147 1.369 . S
C2146 C2150 1.531 . S
C2147 C2146 1.369 . S
C2147 C2148 1.410 . S
C2147 C2155 1.503 . S
C2148 C2147 1.410 . S
C2148 C2149 1.392 . S
C2148 C2151 1.511 . S
C2149 C2145 1.376 . S
C2149 C2148 1.392 . S
C2149 H2161 0.929 . S
C2150 C2146 1.531 . S
C2150 H2162 0.960 . S
C2150 H2163 0.962 . S
C2150 H2164 0.960 . S
C2151 C2148 1.511 . S
C2151 H2165 0.961 . S
C2151 H2166 0.961 . S
C2151 H2167 0.961 . S
C2152 C2153 1.370 . S
C2152 C2154 1.363 . S
C2152 H2168 0.931 . S
C2153 C2152 1.370 . S
C2153 C2157 1.408 . S
C2154 C2152 1.363 . S
C2154 C2155 1.370 . S
C2154 C2158 1.524 . S
C2155 C2147 1.503 . S
C2155 C2154 1.370 . S
C2155 C2156 1.403 . S
C2156 C2155 1.403 . S
C2156 C2157 1.404 . S
C2156 C2159 1.539 . S
C2157 C2153 1.408 . S
C2157 C2156 1.404 . S
C2157 H2169 0.930 . S
C2158 C2154 1.524 . S
C2158 H2170 0.956 . S
C2158 H2171 0.961 . S
C2158 H2172 0.961 . S
C2159 C2156 1.539 . S
C2159 H2173 0.958 . S
C2159 H2174 0.961 . S
C2159 H2175 0.960 . S
H2160 C2144 0.931 . S
H2161 C2149 0.929 . S
H2162 C2150 0.960 . S
H2163 C2150 0.962 . S
H2164 C2150 0.960 . S
H2165 C2151 0.961 . S
H2166 C2151 0.961 . S
H2167 C2151 0.961 . S
H2168 C2152 0.931 . S
H2169 C2157 0.930 . S
H2170 C2158 0.956 . S
H2171 C2158 0.961 . S
H2172 C2158 0.961 . S
H2173 C2159 0.958 . S
H2174 C2159 0.961 . S
H2175 C2159 0.960 . S
C2176 C2177 1.391 . S
C2176 C2178 1.394 . S
C2176 H2192 0.931 . S
C2177 C2176 1.391 . S
C2177 C2181 1.376 . S
C2178 C2176 1.394 . S
C2178 C2179 1.369 . S
C2178 C2182 1.531 . S
C2179 C2178 1.369 . S
C2179 C2180 1.410 . S
C2179 C2187 1.503 . S
C2180 C2179 1.410 . S
C2180 C2181 1.392 . S
C2180 C2183 1.511 . S
C2181 C2177 1.376 . S
C2181 C2180 1.392 . S
C2181 H2193 0.929 . S
C2182 C2178 1.531 . S
C2182 H2194 0.960 . S
C2182 H2195 0.962 . S
C2182 H2196 0.960 . S
C2183 C2180 1.511 . S
C2183 H2197 0.961 . S
C2183 H2198 0.961 . S
C2183 H2199 0.961 . S
C2184 C2185 1.370 . S
C2184 C2186 1.363 . S
C2184 H2200 0.931 . S
C2185 C2184 1.370 . S
C2185 C2189 1.408 . S
C2186 C2184 1.363 . S
C2186 C2187 1.370 . S
C2186 C2190 1.524 . S
C2187 C2179 1.503 . S
C2187 C2186 1.370 . S
C2187 C2188 1.403 . S
C2188 C2187 1.403 . S
C2188 C2189 1.404 . S
C2188 C2191 1.539 . S
C2189 C2185 1.408 . S
C2189 C2188 1.404 . S
C2189 H2201 0.930 . S
C2190 C2186 1.524 . S
C2190 H2202 0.956 . S
C2190 H2203 0.961 . S
C2190 H2204 0.961 . S
C2191 C2188 1.539 . S
C2191 H2205 0.958 . S
C2191 H2206 0.961 . S
C2191 H2207 0.960 . S
H2192 C2176 0.931 . S
H2193 C2181 0.929 . S
H2194 C2182 0.960 . S
H2195 C2182 0.962 . S
H2196 C2182 0.960 . S
H2197 C2183 0.961 . S
H2198 C2183 0.961 . S
H2199 C2183 0.961 . S
H2200 C2184 0.931 . S
H2201 C2189 0.930 . S
H2202 C2190 0.956 . S
H2203 C2190 0.961 . S
H2204 C2190 0.961 . S
H2205 C2191 0.958 . S
H2206 C2191 0.961 . S
H2207 C2191 0.960 . S
C2208 C2209 1.391 . S
C2208 C2210 1.394 . S
C2208 H2224 0.931 . S
C2209 C2208 1.391 . S
C2209 C2213 1.376 . S
C2210 C2208 1.394 . S
C2210 C2211 1.369 . S
C2210 C2214 1.531 . S
C2211 C2210 1.369 . S
C2211 C2212 1.410 . S
C2211 C2219 1.503 . S
C2212 C2211 1.410 . S
C2212 C2213 1.392 . S
C2212 C2215 1.511 . S
C2213 C2209 1.376 . S
C2213 C2212 1.392 . S
C2213 H2225 0.929 . S
C2214 C2210 1.531 . S
C2214 H2226 0.960 . S
C2214 H2227 0.962 . S
C2214 H2228 0.960 . S
C2215 C2212 1.511 . S
C2215 H2229 0.961 . S
C2215 H2230 0.961 . S
C2215 H2231 0.961 . S
C2216 C2217 1.370 . S
C2216 C2218 1.363 . S
C2216 H2232 0.931 . S
C2217 C2216 1.370 . S
C2217 C2221 1.408 . S
C2218 C2216 1.363 . S
C2218 C2219 1.370 . S
C2218 C2222 1.524 . S
C2219 C2211 1.503 . S
C2219 C2218 1.370 . S
C2219 C2220 1.403 . S
C2220 C2219 1.403 . S
C2220 C2221 1.404 . S
C2220 C2223 1.539 . S
C2221 C2217 1.408 . S
C2221 C2220 1.404 . S
C2221 H2233 0.930 . S
C2222 C2218 1.524 . S
C2222 H2234 0.956 . S
C2222 H2235 0.961 . S
C2222 H2236 0.961 . S
C2223 C2220 1.539 . S
C2223 H2237 0.958 . S
C2223 H2238 0.961 . S
C2223 H2239 0.960 . S
H2224 C2208 0.931 . S
H2225 C2213 0.929 . S
H2226 C2214 0.960 . S
H2227 C2214 0.962 . S
H2228 C2214 0.960 . S
H2229 C2215 0.961 . S
H2230 C2215 0.961 . S
H2231 C2215 0.961 . S
H2232 C2216 0.931 . S
H2233 C2221 0.930 . S
H2234 C2222 0.956 . S
H2235 C2222 0.961 . S
H2236 C2222 0.961 . S
H2237 C2223 0.958 . S
H2238 C2223 0.961 . S
H2239 C2223 0.960 . S
C2240 C2241 1.391 . S
C2240 C2242 1.394 . S
C2240 H2256 0.931 . S
C2241 C2240 1.391 . S
C2241 C2245 1.376 . S
C2242 C2240 1.394 . S
C2242 C2243 1.369 . S
C2242 C2246 1.531 . S
C2243 C2242 1.369 . S
C2243 C2244 1.410 . S
C2243 C2251 1.503 . S
C2244 C2243 1.410 . S
C2244 C2245 1.392 . S
C2244 C2247 1.511 . S
C2245 C2241 1.376 . S
C2245 C2244 1.392 . S
C2245 H2257 0.929 . S
C2246 C2242 1.531 . S
C2246 H2258 0.960 . S
C2246 H2259 0.962 . S
C2246 H2260 0.960 . S
C2247 C2244 1.511 . S
C2247 H2261 0.961 . S
C2247 H2262 0.961 . S
C2247 H2263 0.961 . S
C2248 C2249 1.370 . S
C2248 C2250 1.363 . S
C2248 H2264 0.931 . S
C2249 C2248 1.370 . S
C2249 C2253 1.408 . S
C2250 C2248 1.363 . S
C2250 C2251 1.370 . S
C2250 C2254 1.524 . S
C2251 C2243 1.503 . S
C2251 C2250 1.370 . S
C2251 C2252 1.403 . S
C2252 C2251 1.403 . S
C2252 C2253 1.404 . S
C2252 C2255 1.539 . S
C2253 C2249 1.408 . S
C2253 C2252 1.404 . S
C2253 H2265 0.930 . S
C2254 C2250 1.524 . S
C2254 H2266 0.956 . S
C2254 H2267 0.961 . S
C2254 H2268 0.961 . S
C2255 C2252 1.539 . S
C2255 H2269 0.958 . S
C2255 H2270 0.961 . S
C2255 H2271 0.960 . S
H2256 C2240 0.931 . S
H2257 C2245 0.929 . S
H2258 C2246 0.960 . S
H2259 C2246 0.962 . S
H2260 C2246 0.960 . S
H2261 C2247 0.961 . S
H2262 C2247 0.961 . S
H2263 C2247 0.961 . S
H2264 C2248 0.931 . S
H2265 C2253 0.930 . S
H2266 C2254 0.956 . S
H2267 C2254 0.961 . S
H2268 C2254 0.961 . S
H2269 C2255 0.958 . S
H2270 C2255 0.961 . S
H2271 C2255 0.960 . S
C2272 C2273 1.391 . S
C2272 C2274 1.394 . S
C2272 H2288 0.931 . S
C2273 C2272 1.391 . S
C2273 C2277 1.376 . S
C2274 C2272 1.394 . S
C2274 C2275 1.369 . S
C2274 C2278 1.531 . S
C2275 C2274 1.369 . S
C2275 C2276 1.410 . S
C2275 C2283 1.503 . S
C2276 C2275 1.410 . S
C2276 C2277 1.392 . S
C2276 C2279 1.511 1_455 S
C2277 C2273 1.376 . S
C2277 C2276 1.392 . S
C2277 H2289 0.929 1_455 S
C2278 C2274 1.531 . S
C2278 H2290 0.960 . S
C2278 H2291 0.962 . S
C2278 H2292 0.960 . S
C2279 C2276 1.511 1_655 S
C2279 H2293 0.961 . S
C2279 H2294 0.961 . S
C2279 H2295 0.961 . S
C2280 C2281 1.370 . S
C2280 C2282 1.363 . S
C2280 H2296 0.931 . S
C2281 C2280 1.370 . S
C2281 C2285 1.408 . S
C2282 C2280 1.363 . S
C2282 C2283 1.370 . S
C2282 C2286 1.524 . S
C2283 C2275 1.503 . S
C2283 C2282 1.370 . S
C2283 C2284 1.403 . S
C2284 C2283 1.403 . S
C2284 C2285 1.404 . S
C2284 C2287 1.539 . S
C2285 C2281 1.408 . S
C2285 C2284 1.404 . S
C2285 H2297 0.930 . S
C2286 C2282 1.524 . S
C2286 H2298 0.956 . S
C2286 H2299 0.961 . S
C2286 H2300 0.961 . S
C2287 C2284 1.539 . S
C2287 H2301 0.958 . S
C2287 H2302 0.961 . S
C2287 H2303 0.960 . S
H2288 C2272 0.931 . S
H2289 C2277 0.929 1_655 S
H2290 C2278 0.960 . S
H2291 C2278 0.962 . S
H2292 C2278 0.960 . S
H2293 C2279 0.961 . S
H2294 C2279 0.961 . S
H2295 C2279 0.961 . S
H2296 C2280 0.931 . S
H2297 C2285 0.930 . S
H2298 C2286 0.956 . S
H2299 C2286 0.961 . S
H2300 C2286 0.961 . S
H2301 C2287 0.958 . S
H2302 C2287 0.961 . S
H2303 C2287 0.960 . S
C2304 C2305 1.391 . S
C2304 C2306 1.394 . S
C2304 H2320 0.931 . S
C2305 C2304 1.391 . S
C2305 C2309 1.376 . S
C2306 C2304 1.394 . S
C2306 C2307 1.369 . S
C2306 C2310 1.531 . S
C2307 C2306 1.369 . S
C2307 C2308 1.410 . S
C2307 C2315 1.503 . S
C2308 C2307 1.410 . S
C2308 C2309 1.392 . S
C2308 C2311 1.511 . S
C2309 C2305 1.376 . S
C2309 C2308 1.392 . S
C2309 H2321 0.929 . S
C2310 C2306 1.531 . S
C2310 H2322 0.960 . S
C2310 H2323 0.962 . S
C2310 H2324 0.960 . S
C2311 C2308 1.511 . S
C2311 H2325 0.961 . S
C2311 H2326 0.961 . S
C2311 H2327 0.961 . S
C2312 C2313 1.370 . S
C2312 C2314 1.363 . S
C2312 H2328 0.931 . S
C2313 C2312 1.370 . S
C2313 C2317 1.408 . S
C2314 C2312 1.363 . S
C2314 C2315 1.370 . S
C2314 C2318 1.524 . S
C2315 C2307 1.503 . S
C2315 C2314 1.370 . S
C2315 C2316 1.403 . S
C2316 C2315 1.403 . S
C2316 C2317 1.404 . S
C2316 C2319 1.539 . S
C2317 C2313 1.408 . S
C2317 C2316 1.404 . S
C2317 H2329 0.930 . S
C2318 C2314 1.524 . S
C2318 H2330 0.956 . S
C2318 H2331 0.961 . S
C2318 H2332 0.961 . S
C2319 C2316 1.539 . S
C2319 H2333 0.958 . S
C2319 H2334 0.961 . S
C2319 H2335 0.960 . S
H2320 C2304 0.931 . S
H2321 C2309 0.929 . S
H2322 C2310 0.960 . S
H2323 C2310 0.962 . S
H2324 C2310 0.960 . S
H2325 C2311 0.961 . S
H2326 C2311 0.961 . S
H2327 C2311 0.961 . S
H2328 C2312 0.931 . S
H2329 C2317 0.930 . S
H2330 C2318 0.956 . S
H2331 C2318 0.961 . S
H2332 C2318 0.961 . S
H2333 C2319 0.958 . S
H2334 C2319 0.961 . S
H2335 C2319 0.960 . S
C2336 C2337 1.391 . S
C2336 C2338 1.394 . S
C2336 H2352 0.931 . S
C2337 C2336 1.391 . S
C2337 C2341 1.376 . S
C2338 C2336 1.394 . S
C2338 C2339 1.369 . S
C2338 C2342 1.531 . S
C2339 C2338 1.369 . S
C2339 C2340 1.410 . S
C2339 C2347 1.503 . S
C2340 C2339 1.410 . S
C2340 C2341 1.392 . S
C2340 C2343 1.511 . S
C2341 C2337 1.376 . S
C2341 C2340 1.392 . S
C2341 H2353 0.929 . S
C2342 C2338 1.531 . S
C2342 H2354 0.960 . S
C2342 H2355 0.962 . S
C2342 H2356 0.960 . S
C2343 C2340 1.511 . S
C2343 H2357 0.961 . S
C2343 H2358 0.961 . S
C2343 H2359 0.961 . S
C2344 C2345 1.370 . S
C2344 C2346 1.363 . S
C2344 H2360 0.931 . S
C2345 C2344 1.370 . S
C2345 C2349 1.408 . S
C2346 C2344 1.363 . S
C2346 C2347 1.370 . S
C2346 C2350 1.524 . S
C2347 C2339 1.503 . S
C2347 C2346 1.370 . S
C2347 C2348 1.403 . S
C2348 C2347 1.403 . S
C2348 C2349 1.404 . S
C2348 C2351 1.539 . S
C2349 C2345 1.408 . S
C2349 C2348 1.404 . S
C2349 H2361 0.930 . S
C2350 C2346 1.524 . S
C2350 H2362 0.956 . S
C2350 H2363 0.961 . S
C2350 H2364 0.961 . S
C2351 C2348 1.539 . S
C2351 H2365 0.958 . S
C2351 H2366 0.961 . S
C2351 H2367 0.960 . S
H2352 C2336 0.931 . S
H2353 C2341 0.929 . S
H2354 C2342 0.960 . S
H2355 C2342 0.962 . S
H2356 C2342 0.960 . S
H2357 C2343 0.961 . S
H2358 C2343 0.961 . S
H2359 C2343 0.961 . S
H2360 C2344 0.931 . S
H2361 C2349 0.930 . S
H2362 C2350 0.956 . S
H2363 C2350 0.961 . S
H2364 C2350 0.961 . S
H2365 C2351 0.958 . S
H2366 C2351 0.961 . S
H2367 C2351 0.960 . S
C2368 C2369 1.391 . S
C2368 C2370 1.394 . S
C2368 H2384 0.931 . S
C2369 C2368 1.391 . S
C2369 C2373 1.376 . S
C2370 C2368 1.394 . S
C2370 C2371 1.369 . S
C2370 C2374 1.531 . S
C2371 C2370 1.369 . S
C2371 C2372 1.410 . S
C2371 C2379 1.503 . S
C2372 C2371 1.410 . S
C2372 C2373 1.392 . S
C2372 C2375 1.511 . S
C2373 C2369 1.376 . S
C2373 C2372 1.392 . S
C2373 H2385 0.929 . S
C2374 C2370 1.531 . S
C2374 H2386 0.960 . S
C2374 H2387 0.962 . S
C2374 H2388 0.960 . S
C2375 C2372 1.511 . S
C2375 H2389 0.961 . S
C2375 H2390 0.961 . S
C2375 H2391 0.961 . S
C2376 C2377 1.370 . S
C2376 C2378 1.363 . S
C2376 H2392 0.931 . S
C2377 C2376 1.370 . S
C2377 C2381 1.408 . S
C2378 C2376 1.363 . S
C2378 C2379 1.370 . S
C2378 C2382 1.524 . S
C2379 C2371 1.503 . S
C2379 C2378 1.370 . S
C2379 C2380 1.403 . S
C2380 C2379 1.403 . S
C2380 C2381 1.404 . S
C2380 C2383 1.539 . S
C2381 C2377 1.408 . S
C2381 C2380 1.404 . S
C2381 H2393 0.930 . S
C2382 C2378 1.524 . S
C2382 H2394 0.956 . S
C2382 H2395 0.961 . S
C2382 H2396 0.961 . S
C2383 C2380 1.539 . S
C2383 H2397 0.958 . S
C2383 H2398 0.961 . S
C2383 H2399 0.960 . S
H2384 C2368 0.931 . S
H2385 C2373 0.929 . S
H2386 C2374 0.960 . S
H2387 C2374 0.962 . S
H2388 C2374 0.960 . S
H2389 C2375 0.961 . S
H2390 C2375 0.961 . S
H2391 C2375 0.961 . S
H2392 C2376 0.931 . S
H2393 C2381 0.930 . S
H2394 C2382 0.956 . S
H2395 C2382 0.961 . S
H2396 C2382 0.961 . S
H2397 C2383 0.958 . S
H2398 C2383 0.961 . S
H2399 C2383 0.960 . S
C2400 C2401 1.391 . S
C2400 C2402 1.394 . S
C2400 H2416 0.931 . S
C2401 C2400 1.391 . S
C2401 C2405 1.376 . S
C2402 C2400 1.394 . S
C2402 C2403 1.369 . S
C2402 C2406 1.531 . S
C2403 C2402 1.369 . S
C2403 C2404 1.410 . S
C2403 C2411 1.503 . S
C2404 C2403 1.410 . S
C2404 C2405 1.392 . S
C2404 C2407 1.511 . S
C2405 C2401 1.376 . S
C2405 C2404 1.392 . S
C2405 H2417 0.929 . S
C2406 C2402 1.531 . S
C2406 H2418 0.960 . S
C2406 H2419 0.962 . S
C2406 H2420 0.960 . S
C2407 C2404 1.511 . S
C2407 H2421 0.968 . S
C2407 H2422 0.961 . S
C2407 H2423 0.961 1_455 S
C2408 C2409 1.370 . S
C2408 C2410 1.363 . S
C2408 H2424 0.931 . S
C2409 C2408 1.370 . S
C2409 C2413 1.408 . S
C2410 C2408 1.363 . S
C2410 C2411 1.370 . S
C2410 C2414 1.524 . S
C2411 C2403 1.503 . S
C2411 C2410 1.370 . S
C2411 C2412 1.403 . S
C2412 C2411 1.403 . S
C2412 C2413 1.404 . S
C2412 C2415 1.539 . S
C2413 C2409 1.408 . S
C2413 C2412 1.404 . S
C2413 H2425 0.930 . S
C2414 C2410 1.524 . S
C2414 H2426 0.956 . S
C2414 H2427 0.961 . S
C2414 H2428 0.961 . S
C2415 C2412 1.539 . S
C2415 H2429 0.958 . S
C2415 H2430 0.961 . S
C2415 H2431 0.960 . S
H2416 C2400 0.931 . S
H2417 C2405 0.929 . S
H2418 C2406 0.960 . S
H2419 C2406 0.962 . S
H2420 C2406 0.960 . S
H2421 C2407 0.968 . S
H2422 C2407 0.961 . S
H2423 C2407 0.961 1_655 S
H2424 C2408 0.931 . S
H2425 C2413 0.930 . S
H2426 C2414 0.956 . S
H2427 C2414 0.961 . S
H2428 C2414 0.961 . S
H2429 C2415 0.958 . S
H2430 C2415 0.961 . S
H2431 C2415 0.960 . S
C2432 C2433 1.391 . S
C2432 C2434 1.394 . S
C2432 H2448 0.931 . S
C2433 C2432 1.391 . S
C2433 C2437 1.376 . S
C2434 C2432 1.394 . S
C2434 C2435 1.369 . S
C2434 C2438 1.531 . S
C2435 C2434 1.369 . S
C2435 C2436 1.410 . S
C2435 C2443 1.503 . S
C2436 C2435 1.410 . S
C2436 C2437 1.392 . S
C2436 C2439 1.511 . S
C2437 C2433 1.376 . S
C2437 C2436 1.392 . S
C2437 H2449 0.929 . S
C2438 C2434 1.531 . S
C2438 H2450 0.960 . S
C2438 H2451 0.962 . S
C2438 H2452 0.960 . S
C2439 C2436 1.511 . S
C2439 H2453 0.961 . S
C2439 H2454 0.961 . S
C2439 H2455 0.961 . S
C2440 C2441 1.370 . S
C2440 C2442 1.363 . S
C2440 H2456 0.931 . S
C2441 C2440 1.370 . S
C2441 C2445 1.408 . S
C2442 C2440 1.363 . S
C2442 C2443 1.370 . S
C2442 C2446 1.524 . S
C2443 C2435 1.503 . S
C2443 C2442 1.370 . S
C2443 C2444 1.403 . S
C2444 C2443 1.403 . S
C2444 C2445 1.404 . S
C2444 C2447 1.539 . S
C2445 C2441 1.408 . S
C2445 C2444 1.404 . S
C2445 H2457 0.930 . S
C2446 C2442 1.524 . S
C2446 H2458 0.956 . S
C2446 H2459 0.961 . S
C2446 H2460 0.961 . S
C2447 C2444 1.539 . S
C2447 H2461 0.958 . S
C2447 H2462 0.961 . S
C2447 H2463 0.960 . S
H2448 C2432 0.931 . S
H2449 C2437 0.929 . S
H2450 C2438 0.960 . S
H2451 C2438 0.962 . S
H2452 C2438 0.960 . S
H2453 C2439 0.961 . S
H2454 C2439 0.961 . S
H2455 C2439 0.961 . S
H2456 C2440 0.931 . S
H2457 C2445 0.930 . S
H2458 C2446 0.956 . S
H2459 C2446 0.961 . S
H2460 C2446 0.961 . S
H2461 C2447 0.958 . S
H2462 C2447 0.961 . S
H2463 C2447 0.960 . S
C2464 C2465 1.391 . S
C2464 C2466 1.394 . S
C2464 H2480 0.931 . S
C2465 C2464 1.391 . S
C2465 C2469 1.376 . S
C2466 C2464 1.394 . S
C2466 C2467 1.369 . S
C2466 C2470 1.531 . S
C2467 C2466 1.369 . S
C2467 C2468 1.410 . S
C2467 C2475 1.503 . S
C2468 C2467 1.410 . S
C2468 C2469 1.392 . S
C2468 C2471 1.511 . S
C2469 C2465 1.376 . S
C2469 C2468 1.392 . S
C2469 H2481 0.929 . S
C2470 C2466 1.531 . S
C2470 H2482 0.960 . S
C2470 H2483 0.962 . S
C2470 H2484 0.960 . S
C2471 C2468 1.511 . S
C2471 H2485 0.961 . S
C2471 H2486 0.961 . S
C2471 H2487 0.961 . S
C2472 C2473 1.370 . S
C2472 C2474 1.363 1_545 S
C2472 H2488 0.931 . S
C2473 C2472 1.370 . S
C2473 C2477 1.408 . S
C2474 C2472 1.363 1_565 S
C2474 C2475 1.370 . S
C2474 C2478 1.524 . S
C2475 C2467 1.503 . S
C2475 C2474 1.370 . S
C2475 C2476 1.418 . S
C2476 C2475 1.418 . S
C2476 C2477 1.374 1_565 S
C2476 C2479 1.552 . S
C2477 C2473 1.408 . S
C2477 C2476 1.374 1_545 S
C2477 H2489 0.930 . S
C2478 C2474 1.524 . S
C2478 H2490 0.956 . S
C2478 H2491 0.961 . S
C2478 H2492 0.961 . S
C2479 C2476 1.552 . S
C2479 H2493 0.958 . S
C2479 H2494 0.961 1_565 S
C2479 H2495 0.960 . S
H2480 C2464 0.931 . S
H2481 C2469 0.929 . S
H2482 C2470 0.960 . S
H2483 C2470 0.962 . S
H2484 C2470 0.960 . S
H2485 C2471 0.961 . S
H2486 C2471 0.961 . S
H2487 C2471 0.961 . S
H2488 C2472 0.931 . S
H2489 C2477 0.930 . S
H2490 C2478 0.956 . S
H2491 C2478 0.961 . S
H2492 C2478 0.961 . S
H2493 C2479 0.958 . S
H2494 C2479 0.961 1_545 S
H2495 C2479 0.960 . S
C2496 C2497 1.391 . S
C2496 C2498 1.394 . S
C2496 H2512 0.931 . S
C2497 C2496 1.391 . S
C2497 C2501 1.376 . S
C2498 C2496 1.394 . S
C2498 C2499 1.369 . S
C2498 C2502 1.531 . S
C2499 C2498 1.369 . S
C2499 C2500 1.410 . S
C2499 C2507 1.503 . S
C2500 C2499 1.410 . S
C2500 C2501 1.392 . S
C2500 C2503 1.511 . S
C2501 C2497 1.376 . S
C2501 C2500 1.392 . S
C2501 H2513 0.929 . S
C2502 C2498 1.531 . S
C2502 H2514 0.960 . S
C2502 H2515 0.962 . S
C2502 H2516 0.960 . S
C2503 C2500 1.511 . S
C2503 H2517 0.961 . S
C2503 H2518 0.961 . S
C2503 H2519 0.961 . S
C2504 C2505 1.370 . S
C2504 C2506 1.363 . S
C2504 H2520 0.931 . S
C2505 C2504 1.370 . S
C2505 C2509 1.408 . S
C2506 C2504 1.363 . S
C2506 C2507 1.370 . S
C2506 C2510 1.524 . S
C2507 C2499 1.503 . S
C2507 C2506 1.370 . S
C2507 C2508 1.403 . S
C2508 C2507 1.403 . S
C2508 C2509 1.404 . S
C2508 C2511 1.539 . S
C2509 C2505 1.408 . S
C2509 C2508 1.404 . S
C2509 H2521 0.930 . S
C2510 C2506 1.524 . S
C2510 H2522 0.956 . S
C2510 H2523 0.961 . S
C2510 H2524 0.961 . S
C2511 C2508 1.539 . S
C2511 H2525 0.958 . S
C2511 H2526 0.961 . S
C2511 H2527 0.960 . S
H2512 C2496 0.931 . S
H2513 C2501 0.929 . S
H2514 C2502 0.960 . S
H2515 C2502 0.962 . S
H2516 C2502 0.960 . S
H2517 C2503 0.961 . S
H2518 C2503 0.961 . S
H2519 C2503 0.961 . S
H2520 C2504 0.931 . S
H2521 C2509 0.930 . S
H2522 C2510 0.956 . S
H2523 C2510 0.961 . S
H2524 C2510 0.961 . S
H2525 C2511 0.958 . S
H2526 C2511 0.961 . S
H2527 C2511 0.960 . S
C2528 C2529 1.391 . S
C2528 C2530 1.394 . S
C2528 H2544 0.931 . S
C2529 C2528 1.391 . S
C2529 C2533 1.376 . S
C2530 C2528 1.394 . S
C2530 C2531 1.369 . S
C2530 C2534 1.531 . S
C2531 C2530 1.369 . S
C2531 C2532 1.410 . S
C2531 C2539 1.503 . S
C2532 C2531 1.410 . S
C2532 C2533 1.392 . S
C2532 C2535 1.511 . S
C2533 C2529 1.376 . S
C2533 C2532 1.392 . S
C2533 H2545 0.929 . S
C2534 C2530 1.531 . S
C2534 H2546 0.960 . S
C2534 H2547 0.962 . S
C2534 H2548 0.960 . S
C2535 C2532 1.511 . S
C2535 H2549 0.961 . S
C2535 H2550 0.961 . S
C2535 H2551 0.961 1_545 S
C2536 C2537 1.370 . S
C2536 C2538 1.363 . S
C2536 H2552 0.931 1_556 S
C2537 C2536 1.370 . S
C2537 C2541 1.408 . S
C2538 C2536 1.363 . S
C2538 C2539 1.370 . S
C2538 C2542 1.524 . S
C2539 C2531 1.503 . S
C2539 C2538 1.370 . S
C2539 C2540 1.403 . S
C2540 C2539 1.403 . S
C2540 C2541 1.404 . S
C2540 C2543 1.539 1_545 S
C2541 C2537 1.408 . S
C2541 C2540 1.404 . S
C2541 H2553 0.930 . S
C2542 C2538 1.524 . S
C2542 H2554 0.956 . S
C2542 H2555 0.961 . S
C2542 H2556 0.961 . S
C2543 C2540 1.539 1_565 S
C2543 H2557 0.958 1_565 S
C2543 H2558 0.961 . S
C2543 H2559 0.960 . S
H2544 C2528 0.931 . S
H2545 C2533 0.929 . S
H2546 C2534 0.960 . S
H2547 C2534 0.962 . S
H2548 C2534 0.960 . S
H2549 C2535 0.961 . S
H2550 C2535 0.961 . S
H2551 C2535 0.961 1_565 S
H2552 C2536 0.931 1_554 S
H2553 C2541 0.930 . S
H2554 C2542 0.956 . S
H2555 C2542 0.961 . S
H2556 C2542 0.961 . S
H2557 C2543 0.958 1_545 S
H2558 C2543 0.961 . S
H2559 C2543 0.960 . S
C2560 C2561 1.391 . S
C2560 C2562 1.394 . S
C2560 H2576 0.931 . S
C2561 C2560 1.391 . S
C2561 C2565 1.376 . S
C2562 C2560 1.394 . S
C2562 C2563 1.369 . S
C2562 C2566 1.531 . S
C2563 C2562 1.369 . S
C2563 C2564 1.410 . S
C2563 C2571 1.503 . S
C2564 C2563 1.410 . S
C2564 C2565 1.392 . S
C2564 C2567 1.511 . S
C2565 C2561 1.376 . S
C2565 C2564 1.392 . S
C2565 H2577 0.929 . S
C2566 C2562 1.531 . S
C2566 H2578 0.960 . S
C2566 H2579 0.962 . S
C2566 H2580 0.960 . S
C2567 C2564 1.511 . S
C2567 H2581 0.961 . S
C2567 H2582 0.961 . S
C2567 H2583 0.961 . S
C2568 C2569 1.370 . S
C2568 C2570 1.363 . S
C2568 H2584 0.931 . S
C2569 C2568 1.370 . S
C2569 C2573 1.408 . S
C2570 C2568 1.363 . S
C2570 C2571 1.370 . S
C2570 C2574 1.524 . S
C2571 C2563 1.503 . S
C2571 C2570 1.370 . S
C2571 C2572 1.403 . S
C2572 C2571 1.403 . S
C2572 C2573 1.404 . S
C2572 C2575 1.539 . S
C2573 C2569 1.408 . S
C2573 C2572 1.404 . S
C2573 H2585 0.930 . S
C2574 C2570 1.524 . S
C2574 H2586 0.956 . S
C2574 H2587 0.961 . S
C2574 H2588 0.961 . S
C2575 C2572 1.539 . S
C2575 H2589 0.958 . S
C2575 H2590 0.961 . S
C2575 H2591 0.960 . S
H2576 C2560 0.931 . S
H2577 C2565 0.929 . S
H2578 C2566 0.960 . S
H2579 C2566 0.962 . S
H2580 C2566 0.960 . S
H2581 C2567 0.961 . S
H2582 C2567 0.961 . S
H2583 C2567 0.961 . S
H2584 C2568 0.931 . S
H2585 C2573 0.930 . S
H2586 C2574 0.956 . S
H2587 C2574 0.961 . S
H2588 C2574 0.961 . S
H2589 C2575 0.958 . S
H2590 C2575 0.961 . S
H2591 C2575 0.960 . S
C2592 C2593 1.391 . S
C2592 C2594 1.394 . S
C2592 H2608 0.931 . S
C2593 C2592 1.391 . S
C2593 C2597 1.376 . S
C2594 C2592 1.394 . S
C2594 C2595 1.369 . S
C2594 C2598 1.531 . S
C2595 C2594 1.369 . S
C2595 C2596 1.410 . S
C2595 C2603 1.503 . S
C2596 C2595 1.410 . S
C2596 C2597 1.392 . S
C2596 C2599 1.511 . S
C2597 C2593 1.376 . S
C2597 C2596 1.392 . S
C2597 H2609 0.929 . S
C2598 C2594 1.531 . S
C2598 H2610 0.960 . S
C2598 H2611 0.962 . S
C2598 H2612 0.960 . S
C2599 C2596 1.511 . S
C2599 H2613 0.961 . S
C2599 H2614 0.961 . S
C2599 H2615 0.961 . S
C2600 C2601 1.370 . S
C2600 C2602 1.363 . S
C2600 H2616 0.931 . S
C2601 C2600 1.370 . S
C2601 C2605 1.408 . S
C2602 C2600 1.363 . S
C2602 C2603 1.370 . S
C2602 C2606 1.524 . S
C2603 C2595 1.503 . S
C2603 C2602 1.370 . S
C2603 C2604 1.403 . S
C2604 C2603 1.403 . S
C2604 C2605 1.404 . S
C2604 C2607 1.539 . S
C2605 C2601 1.408 . S
C2605 C2604 1.404 . S
C2605 H2617 0.930 . S
C2606 C2602 1.524 . S
C2606 H2618 0.956 . S
C2606 H2619 0.961 . S
C2606 H2620 0.961 . S
C2607 C2604 1.539 . S
C2607 H2621 0.958 . S
C2607 H2622 0.961 . S
C2607 H2623 0.960 . S
H2608 C2592 0.931 . S
H2609 C2597 0.929 . S
H2610 C2598 0.960 . S
H2611 C2598 0.962 . S
H2612 C2598 0.960 . S
H2613 C2599 0.961 . S
H2614 C2599 0.961 . S
H2615 C2599 0.961 . S
H2616 C2600 0.931 . S
H2617 C2605 0.930 . S
H2618 C2606 0.956 . S
H2619 C2606 0.961 . S
H2620 C2606 0.961 . S
H2621 C2607 0.958 . S
H2622 C2607 0.961 . S
H2623 C2607 0.960 . S
C2624 C2625 1.391 . S
C2624 C2626 1.394 . S
C2624 H2640 0.931 . S
C2625 C2624 1.391 . S
C2625 C2629 1.376 . S
C2626 C2624 1.394 . S
C2626 C2627 1.369 . S
C2626 C2630 1.531 . S
C2627 C2626 1.369 . S
C2627 C2628 1.410 . S
C2627 C2635 1.503 . S
C2628 C2627 1.410 . S
C2628 C2629 1.392 . S
C2628 C2631 1.511 . S
C2629 C2625 1.376 . S
C2629 C2628 1.392 . S
C2629 H2641 0.929 . S
C2630 C2626 1.531 . S
C2630 H2642 0.960 . S
C2630 H2643 0.962 . S
C2630 H2644 0.960 . S
C2631 C2628 1.511 . S
C2631 H2645 0.961 . S
C2631 H2646 0.961 . S
C2631 H2647 0.961 . S
C2632 C2633 1.370 . S
C2632 C2634 1.363 . S
C2632 H2648 0.931 . S
C2633 C2632 1.370 . S
C2633 C2637 1.408 . S
C2634 C2632 1.363 . S
C2634 C2635 1.370 . S
C2634 C2638 1.524 . S
C2635 C2627 1.503 . S
C2635 C2634 1.370 . S
C2635 C2636 1.403 . S
C2636 C2635 1.403 . S
C2636 C2637 1.404 . S
C2636 C2639 1.539 . S
C2637 C2633 1.408 . S
C2637 C2636 1.404 . S
C2637 H2649 0.930 . S
C2638 C2634 1.524 . S
C2638 H2650 0.956 . S
C2638 H2651 0.961 . S
C2638 H2652 0.961 . S
C2639 C2636 1.539 . S
C2639 H2653 0.958 . S
C2639 H2654 0.961 . S
C2639 H2655 0.960 . S
H2640 C2624 0.931 . S
H2641 C2629 0.929 . S
H2642 C2630 0.960 . S
H2643 C2630 0.962 . S
H2644 C2630 0.960 . S
H2645 C2631 0.961 . S
H2646 C2631 0.961 . S
H2647 C2631 0.961 . S
H2648 C2632 0.931 . S
H2649 C2637 0.930 . S
H2650 C2638 0.956 . S
H2651 C2638 0.961 . S
H2652 C2638 0.961 . S
H2653 C2639 0.958 . S
H2654 C2639 0.961 . S
H2655 C2639 0.960 . S
C2656 C2657 1.391 . S
C2656 C2658 1.394 . S
C2656 H2672 0.931 . S
C2657 C2656 1.391 . S
C2657 C2661 1.376 . S
C2658 C2656 1.394 . S
C2658 C2659 1.369 . S
C2658 C2662 1.531 . S
C2659 C2658 1.369 . S
C2659 C2660 1.410 . S
C2659 C2667 1.503 . S
C2660 C2659 1.410 . S
C2660 C2661 1.392 . S
C2660 C2663 1.511 . S
C2661 C2657 1.376 . S
C2661 C2660 1.392 . S
C2661 H2673 0.929 . S
C2662 C2658 1.531 . S
C2662 H2674 0.960 . S
C2662 H2675 0.962 . S
C2662 H2676 0.960 . S
C2663 C2660 1.511 . S
C2663 H2677 0.961 . S
C2663 H2678 0.961 . S
C2663 H2679 0.961 . S
C2664 C2665 1.370 . S
C2664 C2666 1.363 . S
C2664 H2680 0.931 . S
C2665 C2664 1.370 . S
C2665 C2669 1.408 . S
C2666 C2664 1.363 . S
C2666 C2667 1.370 . S
C2666 C2670 1.524 . S
C2667 C2659 1.503 . S
C2667 C2666 1.370 . S
C2667 C2668 1.403 . S
C2668 C2667 1.403 . S
C2668 C2669 1.404 . S
C2668 C2671 1.539 1_545 S
C2669 C2665 1.408 . S
C2669 C2668 1.404 . S
C2669 H2681 0.930 . S
C2670 C2666 1.524 . S
C2670 H2682 0.956 . S
C2670 H2683 0.961 . S
C2670 H2684 0.961 . S
C2671 C2668 1.539 1_565 S
C2671 H2685 0.958 . S
C2671 H2686 0.961 . S
C2671 H2687 0.960 . S
H2672 C2656 0.931 . S
H2673 C2661 0.929 . S
H2674 C2662 0.960 . S
H2675 C2662 0.962 . S
H2676 C2662 0.960 . S
H2677 C2663 0.961 . S
H2678 C2663 0.961 . S
H2679 C2663 0.961 . S
H2680 C2664 0.931 . S
H2681 C2669 0.930 . S
H2682 C2670 0.956 . S
H2683 C2670 0.961 . S
H2684 C2670 0.961 . S
H2685 C2671 0.958 . S
H2686 C2671 0.961 . S
H2687 C2671 0.960 . S
C2688 C2689 1.391 . S
C2688 C2690 1.394 . S
C2688 H2704 0.931 . S
C2689 C2688 1.391 . S
C2689 C2693 1.376 . S
C2690 C2688 1.394 . S
C2690 C2691 1.369 . S
C2690 C2694 1.531 . S
C2691 C2690 1.369 . S
C2691 C2692 1.410 . S
C2691 C2699 1.503 . S
C2692 C2691 1.410 . S
C2692 C2693 1.392 . S
C2692 C2695 1.511 . S
C2693 C2689 1.376 . S
C2693 C2692 1.392 . S
C2693 H2705 0.929 . S
C2694 C2690 1.531 . S
C2694 H2706 0.960 . S
C2694 H2707 0.962 . S
C2694 H2708 0.960 . S
C2695 C2692 1.511 . S
C2695 H2709 0.961 . S
C2695 H2710 0.961 . S
C2695 H2711 0.961 . S
C2696 C2697 1.370 . S
C2696 C2698 1.363 . S
C2696 H2712 0.931 . S
C2697 C2696 1.370 . S
C2697 C2701 1.408 . S
C2698 C2696 1.363 . S
C2698 C2699 1.370 . S
C2698 C2702 1.524 . S
C2699 C2691 1.503 . S
C2699 C2698 1.370 . S
C2699 C2700 1.403 . S
C2700 C2699 1.403 . S
C2700 C2701 1.404 . S
C2700 C2703 1.539 . S
C2701 C2697 1.408 . S
C2701 C2700 1.404 . S
C2701 H2713 0.930 . S
C2702 C2698 1.524 . S
C2702 H2714 0.956 . S
C2702 H2715 0.961 . S
C2702 H2716 0.961 . S
C2703 C2700 1.539 . S
C2703 H2717 0.958 . S
C2703 H2718 0.961 . S
C2703 H2719 0.960 . S
H2704 C2688 0.931 . S
H2705 C2693 0.929 . S
H2706 C2694 0.960 . S
H2707 C2694 0.962 . S
H2708 C2694 0.960 . S
H2709 C2695 0.961 . S
H2710 C2695 0.961 . S
H2711 C2695 0.961 . S
H2712 C2696 0.931 . S
H2713 C2701 0.930 . S
H2714 C2702 0.956 . S
H2715 C2702 0.961 . S
H2716 C2702 0.961 . S
H2717 C2703 0.958 . S
H2718 C2703 0.961 . S
H2719 C2703 0.960 . S
C2720 C2721 1.391 . S
C2720 C2722 1.394 . S
C2720 H2736 0.931 . S
C2721 C2720 1.391 . S
C2721 C2725 1.376 . S
C2722 C2720 1.394 . S
C2722 C2723 1.369 . S
C2722 C2726 1.531 . S
C2723 C2722 1.369 . S
C2723 C2724 1.410 . S
C2723 C2731 1.503 . S
C2724 C2723 1.410 . S
C2724 C2725 1.392 . S
C2724 C2727 1.511 . S
C2725 C2721 1.376 . S
C2725 C2724 1.392 . S
C2725 H2737 0.929 . S
C2726 C2722 1.531 . S
C2726 H2738 0.960 . S
C2726 H2739 0.962 . S
C2726 H2740 0.960 . S
C2727 C2724 1.511 . S
C2727 H2741 0.961 . S
C2727 H2742 0.961 . S
C2727 H2743 0.961 . S
C2728 C2729 1.370 . S
C2728 C2730 1.363 . S
C2728 H2744 0.931 . S
C2729 C2728 1.370 . S
C2729 C2733 1.408 . S
C2730 C2728 1.363 . S
C2730 C2731 1.370 . S
C2730 C2734 1.524 . S
C2731 C2723 1.503 . S
C2731 C2730 1.370 . S
C2731 C2732 1.403 . S
C2732 C2731 1.403 . S
C2732 C2733 1.404 . S
C2732 C2735 1.539 . S
C2733 C2729 1.408 . S
C2733 C2732 1.404 . S
C2733 H2745 0.930 . S
C2734 C2730 1.524 . S
C2734 H2746 0.956 . S
C2734 H2747 0.961 . S
C2734 H2748 0.961 . S
C2735 C2732 1.539 . S
C2735 H2749 0.958 . S
C2735 H2750 0.961 . S
C2735 H2751 0.960 . S
H2736 C2720 0.931 . S
H2737 C2725 0.929 . S
H2738 C2726 0.960 . S
H2739 C2726 0.962 . S
H2740 C2726 0.960 . S
H2741 C2727 0.961 . S
H2742 C2727 0.961 . S
H2743 C2727 0.961 . S
H2744 C2728 0.931 . S
H2745 C2733 0.930 . S
H2746 C2734 0.956 . S
H2747 C2734 0.961 . S
H2748 C2734 0.961 . S
H2749 C2735 0.958 . S
H2750 C2735 0.961 . S
H2751 C2735 0.960 . S
C2752 C2753 1.391 . S
C2752 C2754 1.394 . S
C2752 H2768 0.931 . S
C2753 C2752 1.391 . S
C2753 C2757 1.376 . S
C2754 C2752 1.394 . S
C2754 C2755 1.369 . S
C2754 C2758 1.531 . S
C2755 C2754 1.369 . S
C2755 C2756 1.410 . S
C2755 C2763 1.503 . S
C2756 C2755 1.410 . S
C2756 C2757 1.392 . S
C2756 C2759 1.511 . S
C2757 C2753 1.376 . S
C2757 C2756 1.392 . S
C2757 H2769 0.929 . S
C2758 C2754 1.531 . S
C2758 H2770 0.960 . S
C2758 H2771 0.962 . S
C2758 H2772 0.960 . S
C2759 C2756 1.511 . S
C2759 H2773 0.961 . S
C2759 H2774 0.961 . S
C2759 H2775 0.961 . S
C2760 C2761 1.370 . S
C2760 C2762 1.363 . S
C2760 H2776 0.931 . S
C2761 C2760 1.370 . S
C2761 C2765 1.408 . S
C2762 C2760 1.363 . S
C2762 C2763 1.370 . S
C2762 C2766 1.524 . S
C2763 C2755 1.503 . S
C2763 C2762 1.370 . S
C2763 C2764 1.403 . S
C2764 C2763 1.403 . S
C2764 C2765 1.404 . S
C2764 C2767 1.539 . S
C2765 C2761 1.408 . S
C2765 C2764 1.404 . S
C2765 H2777 0.930 . S
C2766 C2762 1.524 . S
C2766 H2778 0.956 . S
C2766 H2779 0.961 . S
C2766 H2780 0.961 . S
C2767 C2764 1.539 . S
C2767 H2781 0.958 . S
C2767 H2782 0.961 . S
C2767 H2783 0.960 . S
H2768 C2752 0.931 . S
H2769 C2757 0.929 . S
H2770 C2758 0.960 . S
H2771 C2758 0.962 . S
H2772 C2758 0.960 . S
H2773 C2759 0.961 . S
H2774 C2759 0.961 . S
H2775 C2759 0.961 . S
H2776 C2760 0.931 . S
H2777 C2765 0.930 . S
H2778 C2766 0.956 . S
H2779 C2766 0.961 . S
H2780 C2766 0.961 . S
H2781 C2767 0.958 . S
H2782 C2767 0.961 . S
H2783 C2767 0.960 . S
C2784 C2785 1.391 . S
C2784 C2786 1.394 . S
C2784 H2800 0.931 . S
C2785 C2784 1.391 . S
C2785 C2789 1.376 . S
C2786 C2784 1.394 . S
C2786 C2787 1.369 . S
C2786 C2790 1.531 . S
C2787 C2786 1.369 . S
C2787 C2788 1.410 . S
C2787 C2795 1.503 . S
C2788 C2787 1.410 . S
C2788 C2789 1.392 . S
C2788 C2791 1.511 . S
C2789 C2785 1.376 . S
C2789 C2788 1.392 . S
C2789 H2801 0.929 . S
C2790 C2786 1.531 . S
C2790 H2802 0.960 . S
C2790 H2803 0.962 . S
C2790 H2804 0.960 . S
C2791 C2788 1.511 . S
C2791 H2805 0.961 . S
C2791 H2806 0.961 . S
C2791 H2807 0.961 . S
C2792 C2793 1.370 . S
C2792 C2794 1.363 . S
C2792 H2808 0.931 . S
C2793 C2792 1.370 . S
C2793 C2797 1.408 . S
C2794 C2792 1.363 . S
C2794 C2795 1.370 . S
C2794 C2798 1.524 . S
C2795 C2787 1.503 . S
C2795 C2794 1.370 . S
C2795 C2796 1.403 . S
C2796 C2795 1.403 . S
C2796 C2797 1.404 . S
C2796 C2799 1.539 . S
C2797 C2793 1.408 . S
C2797 C2796 1.404 . S
C2797 H2809 0.930 . S
C2798 C2794 1.524 . S
C2798 H2810 0.956 . S
C2798 H2811 0.961 . S
C2798 H2812 0.961 . S
C2799 C2796 1.539 . S
C2799 H2813 0.958 . S
C2799 H2814 0.961 . S
C2799 H2815 0.960 . S
H2800 C2784 0.931 . S
H2801 C2789 0.929 . S
H2802 C2790 0.960 . S
H2803 C2790 0.962 . S
H2804 C2790 0.960 . S
H2805 C2791 0.961 . S
H2806 C2791 0.961 . S
H2807 C2791 0.961 . S
H2808 C2792 0.931 . S
H2809 C2797 0.930 . S
H2810 C2798 0.956 . S
H2811 C2798 0.961 . S
H2812 C2798 0.961 . S
H2813 C2799 0.958 . S
H2814 C2799 0.961 . S
H2815 C2799 0.960 . S
C2816 C2817 1.391 . S
C2816 C2818 1.394 . S
C2816 H2832 0.931 . S
C2817 C2816 1.391 . S
C2817 C2821 1.376 . S
C2818 C2816 1.394 . S
C2818 C2819 1.369 . S
C2818 C2822 1.531 . S
C2819 C2818 1.369 . S
C2819 C2820 1.410 . S
C2819 C2827 1.503 . S
C2820 C2819 1.410 . S
C2820 C2821 1.392 . S
C2820 C2823 1.511 . S
C2821 C2817 1.376 . S
C2821 C2820 1.392 . S
C2821 H2833 0.929 . S
C2822 C2818 1.531 . S
C2822 H2834 0.960 . S
C2822 H2835 0.962 . S
C2822 H2836 0.960 . S
C2823 C2820 1.511 . S
C2823 H2837 0.961 . S
C2823 H2838 0.961 . S
C2823 H2839 0.961 . S
C2824 C2825 1.370 . S
C2824 C2826 1.363 . S
C2824 H2840 0.931 . S
C2825 C2824 1.370 . S
C2825 C2829 1.408 . S
C2826 C2824 1.363 . S
C2826 C2827 1.370 . S
C2826 C2830 1.524 . S
C2827 C2819 1.503 . S
C2827 C2826 1.370 . S
C2827 C2828 1.403 . S
C2828 C2827 1.403 . S
C2828 C2829 1.404 . S
C2828 C2831 1.539 . S
C2829 C2825 1.408 . S
C2829 C2828 1.404 . S
C2829 H2841 0.930 . S
C2830 C2826 1.524 . S
C2830 H2842 0.956 . S
C2830 H2843 0.961 . S
C2830 H2844 0.961 . S
C2831 C2828 1.539 . S
C2831 H2845 0.958 . S
C2831 H2846 0.961 . S
C2831 H2847 0.960 . S
H2832 C2816 0.931 . S
H2833 C2821 0.929 . S
H2834 C2822 0.960 . S
H2835 C2822 0.962 . S
H2836 C2822 0.960 . S
H2837 C2823 0.961 . S
H2838 C2823 0.961 . S
H2839 C2823 0.961 . S
H2840 C2824 0.931 . S
H2841 C2829 0.930 . S
H2842 C2830 0.956 . S
H2843 C2830 0.961 . S
H2844 C2830 0.961 . S
H2845 C2831 0.958 . S
H2846 C2831 0.961 . S
H2847 C2831 0.960 . S
C2848 C2849 1.391 . S
C2848 C2850 1.394 . S
C2848 H2864 0.931 . S
C2849 C2848 1.391 . S
C2849 C2853 1.376 . S
C2850 C2848 1.394 . S
C2850 C2851 1.369 . S
C2850 C2854 1.531 . S
C2851 C2850 1.369 . S
C2851 C2852 1.410 . S
C2851 C2859 1.503 . S
C2852 C2851 1.410 . S
C2852 C2853 1.392 . S
C2852 C2855 1.511 . S
C2853 C2849 1.376 . S
C2853 C2852 1.392 . S
C2853 H2865 0.929 . S
C2854 C2850 1.531 . S
C2854 H2866 0.960 . S
C2854 H2867 0.962 . S
C2854 H2868 0.960 . S
C2855 C2852 1.511 . S
C2855 H2869 0.961 . S
C2855 H2870 0.961 . S
C2855 H2871 0.961 . S
C2856 C2857 1.370 . S
C2856 C2858 1.363 . S
C2856 H2872 0.931 . S
C2857 C2856 1.370 . S
C2857 C2861 1.408 . S
C2858 C2856 1.363 . S
C2858 C2859 1.370 . S
C2858 C2862 1.524 . S
C2859 C2851 1.503 . S
C2859 C2858 1.370 . S
C2859 C2860 1.403 . S
C2860 C2859 1.403 . S
C2860 C2861 1.404 . S
C2860 C2863 1.539 . S
C2861 C2857 1.408 . S
C2861 C2860 1.404 . S
C2861 H2873 0.930 . S
C2862 C2858 1.524 . S
C2862 H2874 0.956 . S
C2862 H2875 0.961 . S
C2862 H2876 0.961 . S
C2863 C2860 1.539 . S
C2863 H2877 0.958 . S
C2863 H2878 0.961 . S
C2863 H2879 0.960 . S
H2864 C2848 0.931 . S
H2865 C2853 0.929 . S
H2866 C2854 0.960 . S
H2867 C2854 0.962 . S
H2868 C2854 0.960 . S
H2869 C2855 0.961 . S
H2870 C2855 0.961 . S
H2871 C2855 0.961 . S
H2872 C2856 0.931 . S
H2873 C2861 0.930 . S
H2874 C2862 0.956 . S
H2875 C2862 0.961 . S
H2876 C2862 0.961 . S
H2877 C2863 0.958 . S
H2878 C2863 0.961 . S
H2879 C2863 0.960 . S
C2880 C2881 1.391 . S
C2880 C2882 1.394 . S
C2880 H2896 0.931 . S
C2881 C2880 1.391 . S
C2881 C2885 1.376 . S
C2882 C2880 1.394 . S
C2882 C2883 1.369 . S
C2882 C2886 1.531 . S
C2883 C2882 1.369 . S
C2883 C2884 1.410 . S
C2883 C2891 1.503 . S
C2884 C2883 1.410 . S
C2884 C2885 1.392 . S
C2884 C2887 1.511 . S
C2885 C2881 1.376 . S
C2885 C2884 1.392 . S
C2885 H2897 0.929 . S
C2886 C2882 1.531 . S
C2886 H2898 0.960 . S
C2886 H2899 0.962 . S
C2886 H2900 0.960 . S
C2887 C2884 1.511 . S
C2887 H2901 0.961 . S
C2887 H2902 0.961 . S
C2887 H2903 0.961 . S
C2888 C2889 1.370 . S
C2888 C2890 1.363 . S
C2888 H2904 0.931 . S
C2889 C2888 1.370 . S
C2889 C2893 1.408 . S
C2890 C2888 1.363 . S
C2890 C2891 1.370 . S
C2890 C2894 1.524 . S
C2891 C2883 1.503 . S
C2891 C2890 1.370 . S
C2891 C2892 1.403 . S
C2892 C2891 1.403 . S
C2892 C2893 1.404 . S
C2892 C2895 1.539 . S
C2893 C2889 1.408 . S
C2893 C2892 1.404 . S
C2893 H2905 0.930 . S
C2894 C2890 1.524 . S
C2894 H2906 0.956 . S
C2894 H2907 0.961 . S
C2894 H2908 0.961 . S
C2895 C2892 1.539 . S
C2895 H2909 0.958 . S
C2895 H2910 0.961 . S
C2895 H2911 0.960 . S
H2896 C2880 0.931 . S
H2897 C2885 0.929 . S
H2898 C2886 0.960 . S
H2899 C2886 0.962 . S
H2900 C2886 0.960 . S
H2901 C2887 0.961 . S
H2902 C2887 0.961 . S
H2903 C2887 0.961 . S
H2904 C2888 0.931 . S
H2905 C2893 0.930 . S
H2906 C2894 0.956 . S
H2907 C2894 0.961 . S
H2908 C2894 0.961 . S
H2909 C2895 0.958 . S
H2910 C2895 0.961 . S
H2911 C2895 0.960 . S
C2912 C2913 1.391 . S
C2912 C2914 1.394 . S
C2912 H2928 0.931 . S
C2913 C2912 1.391 . S
C2913 C2917 1.376 . S
C2914 C2912 1.394 . S
C2914 C2915 1.369 . S
C2914 C2918 1.531 . S
C2915 C2914 1.369 . S
C2915 C2916 1.410 . S
C2915 C2923 1.503 . S
C2916 C2915 1.410 . S
C2916 C2917 1.392 . S
C2916 C2919 1.511 . S
C2917 C2913 1.376 . S
C2917 C2916 1.392 . S
C2917 H2929 0.929 . S
C2918 C2914 1.531 . S
C2918 H2930 0.960 . S
C2918 H2931 0.962 . S
C2918 H2932 0.960 . S
C2919 C2916 1.511 . S
C2919 H2933 0.961 . S
C2919 H2934 0.961 . S
C2919 H2935 0.961 . S
C2920 C2921 1.370 . S
C2920 C2922 1.363 . S
C2920 H2936 0.931 . S
C2921 C2920 1.370 . S
C2921 C2925 1.408 . S
C2922 C2920 1.363 . S
C2922 C2923 1.370 . S
C2922 C2926 1.524 . S
C2923 C2915 1.503 . S
C2923 C2922 1.370 . S
C2923 C2924 1.403 . S
C2924 C2923 1.403 . S
C2924 C2925 1.404 . S
C2924 C2927 1.539 . S
C2925 C2921 1.408 . S
C2925 C2924 1.404 . S
C2925 H2937 0.930 . S
C2926 C2922 1.524 . S
C2926 H2938 0.956 . S
C2926 H2939 0.961 . S
C2926 H2940 0.961 . S
C2927 C2924 1.539 . S
C2927 H2941 0.958 . S
C2927 H2942 0.961 . S
C2927 H2943 0.960 . S
H2928 C2912 0.931 . S
H2929 C2917 0.929 . S
H2930 C2918 0.960 . S
H2931 C2918 0.962 . S
H2932 C2918 0.960 . S
H2933 C2919 0.961 . S
H2934 C2919 0.961 . S
H2935 C2919 0.961 . S
H2936 C2920 0.931 . S
H2937 C2925 0.930 . S
H2938 C2926 0.956 . S
H2939 C2926 0.961 . S
H2940 C2926 0.961 . S
H2941 C2927 0.958 . S
H2942 C2927 0.961 . S
H2943 C2927 0.960 . S
C2944 C2945 1.391 . S
C2944 C2946 1.394 . S
C2944 H2960 0.931 . S
C2945 C2944 1.391 . S
C2945 C2949 1.376 1_545 S
C2946 C2944 1.394 . S
C2946 C2947 1.369 . S
C2946 C2950 1.531 . S
C2947 C2946 1.369 . S
C2947 C2948 1.410 1_545 S
C2947 C2955 1.503 . S
C2948 C2947 1.410 1_565 S
C2948 C2949 1.392 . S
C2948 C2951 1.511 . S
C2949 C2945 1.376 1_565 S
C2949 C2948 1.392 . S
C2949 H2961 0.929 . S
C2950 C2946 1.531 . S
C2950 H2962 0.960 . S
C2950 H2963 0.962 . S
C2950 H2964 0.960 . S
C2951 C2948 1.511 . S
C2951 H2965 0.961 . S
C2951 H2966 0.961 . S
C2951 H2967 0.961 . S
C2952 C2953 1.370 . S
C2952 C2954 1.363 . S
C2952 H2968 0.931 . S
C2953 C2952 1.370 . S
C2953 C2957 1.408 . S
C2954 C2952 1.363 . S
C2954 C2955 1.370 . S
C2954 C2958 1.524 1_545 S
C2955 C2947 1.503 . S
C2955 C2954 1.370 . S
C2955 C2956 1.403 . S
C2956 C2955 1.403 . S
C2956 C2957 1.404 . S
C2956 C2959 1.539 . S
C2957 C2953 1.408 . S
C2957 C2956 1.404 . S
C2957 H2969 0.930 . S
C2958 C2954 1.524 1_565 S
C2958 H2970 0.956 . S
C2958 H2971 0.961 . S
C2958 H2972 0.961 . S
C2959 C2956 1.539 . S
C2959 H2973 0.958 . S
C2959 H2974 0.961 . S
C2959 H2975 0.960 . S
H2960 C2944 0.931 . S
H2961 C2949 0.929 . S
H2962 C2950 0.960 . S
H2963 C2950 0.962 . S
H2964 C2950 0.960 . S
H2965 C2951 0.961 . S
H2966 C2951 0.961 . S
H2967 C2951 0.961 . S
H2968 C2952 0.931 . S
H2969 C2957 0.930 . S
H2970 C2958 0.956 . S
H2971 C2958 0.961 . S
H2972 C2958 0.961 . S
H2973 C2959 0.958 . S
H2974 C2959 0.961 . S
H2975 C2959 0.960 . S
C2976 C2977 1.391 . S
C2976 C2978 1.394 . S
C2976 H2992 0.931 . S
C2977 C2976 1.391 . S
C2977 C2981 1.376 . S
C2978 C2976 1.394 . S
C2978 C2979 1.369 . S
C2978 C2982 1.531 . S
C2979 C2978 1.369 . S
C2979 C2980 1.410 . S
C2979 C2987 1.503 . S
C2980 C2979 1.410 . S
C2980 C2981 1.392 . S
C2980 C2983 1.511 . S
C2981 C2977 1.376 . S
C2981 C2980 1.392 . S
C2981 H2993 0.929 . S
C2982 C2978 1.531 . S
C2982 H2994 0.960 . S
C2982 H2995 0.962 . S
C2982 H2996 0.960 . S
C2983 C2980 1.511 . S
C2983 H2997 0.961 . S
C2983 H2998 0.961 . S
C2983 H2999 0.961 . S
C2984 C2985 1.370 . S
C2984 C2986 1.363 . S
C2984 H3000 0.931 . S
C2985 C2984 1.370 . S
C2985 C2989 1.408 . S
C2986 C2984 1.363 . S
C2986 C2987 1.370 . S
C2986 C2990 1.524 . S
C2987 C2979 1.503 . S
C2987 C2986 1.370 . S
C2987 C2988 1.403 . S
C2988 C2987 1.403 . S
C2988 C2989 1.404 . S
C2988 C2991 1.539 . S
C2989 C2985 1.408 . S
C2989 C2988 1.404 . S
C2989 H3001 0.930 . S
C2990 C2986 1.524 . S
C2990 H3002 0.956 . S
C2990 H3003 0.961 . S
C2990 H3004 0.961 . S
C2991 C2988 1.539 . S
C2991 H3005 0.958 . S
C2991 H3006 0.961 . S
C2991 H3007 0.960 . S
H2992 C2976 0.931 . S
H2993 C2981 0.929 . S
H2994 C2982 0.960 . S
H2995 C2982 0.962 . S
H2996 C2982 0.960 . S
H2997 C2983 0.961 . S
H2998 C2983 0.961 . S
H2999 C2983 0.961 . S
H3000 C2984 0.931 . S
H3001 C2989 0.930 . S
H3002 C2990 0.956 . S
H3003 C2990 0.961 . S
H3004 C2990 0.961 . S
H3005 C2991 0.958 . S
H3006 C2991 0.961 . S
H3007 C2991 0.960 . S
C3008 C3009 1.391 . S
C3008 C3010 1.394 . S
C3008 H3024 0.931 . S
C3009 C3008 1.391 . S
C3009 C3013 1.376 . S
C3010 C3008 1.394 . S
C3010 C3011 1.369 . S
C3010 C3014 1.531 . S
C3011 C3010 1.369 . S
C3011 C3012 1.410 . S
C3011 C3019 1.503 . S
C3012 C3011 1.410 . S
C3012 C3013 1.392 . S
C3012 C3015 1.511 . S
C3013 C3009 1.376 . S
C3013 C3012 1.392 . S
C3013 H3025 0.929 . S
C3014 C3010 1.531 . S
C3014 H3026 0.960 . S
C3014 H3027 0.962 . S
C3014 H3028 0.960 . S
C3015 C3012 1.511 . S
C3015 H3029 0.961 . S
C3015 H3030 0.961 . S
C3015 H3031 0.961 . S
C3016 C3017 1.370 . S
C3016 C3018 1.363 . S
C3016 H3032 0.931 . S
C3017 C3016 1.370 . S
C3017 C3021 1.408 . S
C3018 C3016 1.363 . S
C3018 C3019 1.370 . S
C3018 C3022 1.524 . S
C3019 C3011 1.503 . S
C3019 C3018 1.370 . S
C3019 C3020 1.403 . S
C3020 C3019 1.403 . S
C3020 C3021 1.404 . S
C3020 C3023 1.539 . S
C3021 C3017 1.408 . S
C3021 C3020 1.404 . S
C3021 H3033 0.930 . S
C3022 C3018 1.524 . S
C3022 H3034 0.956 . S
C3022 H3035 0.961 . S
C3022 H3036 0.961 . S
C3023 C3020 1.539 . S
C3023 H3037 0.958 . S
C3023 H3038 0.961 . S
C3023 H3039 0.960 . S
H3024 C3008 0.931 . S
H3025 C3013 0.929 . S
H3026 C3014 0.960 . S
H3027 C3014 0.962 . S
H3028 C3014 0.960 . S
H3029 C3015 0.961 . S
H3030 C3015 0.961 . S
H3031 C3015 0.961 . S
H3032 C3016 0.931 . S
H3033 C3021 0.930 . S
H3034 C3022 0.956 . S
H3035 C3022 0.961 . S
H3036 C3022 0.961 . S
H3037 C3023 0.958 . S
H3038 C3023 0.961 . S
H3039 C3023 0.960 . S
C3040 C3041 1.391 . S
C3040 C3042 1.394 . S
C3040 H3056 0.931 . S
C3041 C3040 1.391 . S
C3041 C3045 1.376 . S
C3042 C3040 1.394 . S
C3042 C3043 1.369 . S
C3042 C3046 1.531 . S
C3043 C3042 1.369 . S
C3043 C3044 1.410 . S
C3043 C3051 1.503 . S
C3044 C3043 1.410 . S
C3044 C3045 1.392 . S
C3044 C3047 1.511 . S
C3045 C3041 1.376 . S
C3045 C3044 1.392 . S
C3045 H3057 0.929 . S
C3046 C3042 1.531 . S
C3046 H3058 0.960 . S
C3046 H3059 0.962 . S
C3046 H3060 0.960 . S
C3047 C3044 1.511 . S
C3047 H3061 0.961 . S
C3047 H3062 0.961 . S
C3047 H3063 0.961 . S
C3048 C3049 1.370 . S
C3048 C3050 1.363 . S
C3048 H3064 0.931 . S
C3049 C3048 1.370 . S
C3049 C3053 1.408 . S
C3050 C3048 1.363 . S
C3050 C3051 1.370 . S
C3050 C3054 1.524 . S
C3051 C3043 1.503 . S
C3051 C3050 1.370 . S
C3051 C3052 1.403 . S
C3052 C3051 1.403 . S
C3052 C3053 1.404 . S
C3052 C3055 1.539 . S
C3053 C3049 1.408 . S
C3053 C3052 1.404 . S
C3053 H3065 0.930 . S
C3054 C3050 1.524 . S
C3054 H3066 0.956 . S
C3054 H3067 0.961 . S
C3054 H3068 0.961 . S
C3055 C3052 1.539 . S
C3055 H3069 0.958 . S
C3055 H3070 0.961 . S
C3055 H3071 0.960 . S
H3056 C3040 0.931 . S
H3057 C3045 0.929 . S
H3058 C3046 0.960 . S
H3059 C3046 0.962 . S
H3060 C3046 0.960 . S
H3061 C3047 0.961 . S
H3062 C3047 0.961 . S
H3063 C3047 0.961 . S
H3064 C3048 0.931 . S
H3065 C3053 0.930 . S
H3066 C3054 0.956 . S
H3067 C3054 0.961 . S
H3068 C3054 0.961 . S
H3069 C3055 0.958 . S
H3070 C3055 0.961 . S
H3071 C3055 0.960 . S
C3072 C3073 1.391 . S
C3072 C3074 1.394 . S
C3072 H3088 0.931 . S
C3073 C3072 1.391 . S
C3073 C3077 1.376 . S
C3074 C3072 1.394 . S
C3074 C3075 1.369 . S
C3074 C3078 1.531 . S
C3075 C3074 1.369 . S
C3075 C3076 1.410 . S
C3075 C3083 1.503 . S
C3076 C3075 1.410 . S
C3076 C3077 1.392 . S
C3076 C3079 1.511 . S
C3077 C3073 1.376 . S
C3077 C3076 1.392 . S
C3077 H3089 0.929 . S
C3078 C3074 1.531 . S
C3078 H3090 0.960 . S
C3078 H3091 0.962 . S
C3078 H3092 0.960 . S
C3079 C3076 1.511 . S
C3079 H3093 0.961 . S
C3079 H3094 0.961 . S
C3079 H3095 0.961 . S
C3080 C3081 1.370 . S
C3080 C3082 1.363 . S
C3080 H3096 0.931 . S
C3081 C3080 1.370 . S
C3081 C3085 1.408 . S
C3082 C3080 1.363 . S
C3082 C3083 1.370 . S
C3082 C3086 1.524 . S
C3083 C3075 1.503 . S
C3083 C3082 1.370 . S
C3083 C3084 1.403 . S
C3084 C3083 1.403 . S
C3084 C3085 1.404 . S
C3084 C3087 1.539 . S
C3085 C3081 1.408 . S
C3085 C3084 1.404 . S
C3085 H3097 0.930 . S
C3086 C3082 1.524 . S
C3086 H3098 0.956 . S
C3086 H3099 0.961 . S
C3086 H3100 0.961 . S
C3087 C3084 1.539 . S
C3087 H3101 0.958 . S
C3087 H3102 0.961 . S
C3087 H3103 0.960 . S
H3088 C3072 0.931 . S
H3089 C3077 0.929 . S
H3090 C3078 0.960 . S
H3091 C3078 0.962 . S
H3092 C3078 0.960 . S
H3093 C3079 0.961 . S
H3094 C3079 0.961 . S
H3095 C3079 0.961 . S
H3096 C3080 0.931 . S
H3097 C3085 0.930 . S
H3098 C3086 0.956 . S
H3099 C3086 0.961 . S
H3100 C3086 0.961 . S
H3101 C3087 0.958 . S
H3102 C3087 0.961 . S
H3103 C3087 0.960 . S
C3104 C3105 1.391 . S
C3104 C3106 1.394 . S
C3104 H3120 0.931 . S
C3105 C3104 1.391 . S
C3105 C3109 1.376 . S
C3106 C3104 1.394 . S
C3106 C3107 1.369 . S
C3106 C3110 1.531 . S
C3107 C3106 1.369 . S
C3107 C3108 1.410 . S
C3107 C3115 1.527 . S
C3108 C3107 1.410 . S
C3108 C3109 1.392 . S
C3108 C3111 1.511 . S
C3109 C3105 1.376 . S
C3109 C3108 1.392 . S
C3109 H3121 0.929 . S
C3110 C3106 1.531 . S
C3110 H3122 0.960 . S
C3110 H3123 0.962 . S
C3110 H3124 0.960 . S
C3111 C3108 1.511 . S
C3111 H3125 0.961 1_455 S
C3111 H3126 0.947 1_556 S
C3111 H3127 0.961 1_455 S
C3112 C3113 1.370 . S
C3112 C3114 1.363 . S
C3112 H3128 0.931 . S
C3113 C3112 1.370 . S
C3113 C3117 1.408 . S
C3114 C3112 1.363 . S
C3114 C3115 1.328 1_554 S
C3114 C3118 1.524 . S
C3115 C3107 1.527 . S
C3115 C3114 1.328 1_556 S
C3115 C3116 1.423 . S
C3116 C3115 1.423 . S
C3116 C3117 1.404 1_556 S
C3116 C3119 1.539 . S
C3117 C3113 1.408 . S
C3117 C3116 1.404 1_554 S
C3117 H3129 0.928 . S
C3118 C3114 1.524 . S
C3118 H3130 0.956 . S
C3118 H3131 0.961 . S
C3118 H3132 0.961 . S
C3119 C3116 1.539 . S
C3119 H3133 0.958 . S
C3119 H3134 0.961 . S
C3119 H3135 0.960 . S
H3120 C3104 0.931 . S
H3121 C3109 0.929 . S
H3122 C3110 0.960 . S
H3123 C3110 0.962 . S
H3124 C3110 0.960 . S
H3125 C3111 0.961 1_655 S
H3126 C3111 0.947 1_554 S
H3127 C3111 0.961 1_655 S
H3128 C3112 0.931 . S
H3129 C3117 0.928 . S
H3130 C3118 0.956 . S
H3131 C3118 0.961 . S
H3132 C3118 0.961 . S
H3133 C3119 0.958 . S
H3134 C3119 0.961 . S
H3135 C3119 0.960 . S
C3136 C3137 1.391 . S
C3136 C3138 1.394 . S
C3136 H3152 0.931 . S
C3137 C3136 1.391 . S
C3137 C3141 1.376 . S
C3138 C3136 1.394 . S
C3138 C3139 1.369 . S
C3138 C3142 1.531 . S
C3139 C3138 1.369 . S
C3139 C3140 1.410 . S
C3139 C3147 1.503 . S
C3140 C3139 1.410 . S
C3140 C3141 1.392 . S
C3140 C3143 1.511 . S
C3141 C3137 1.376 . S
C3141 C3140 1.392 . S
C3141 H3153 0.929 . S
C3142 C3138 1.531 . S
C3142 H3154 0.960 . S
C3142 H3155 0.962 . S
C3142 H3156 0.960 . S
C3143 C3140 1.511 . S
C3143 H3157 0.961 . S
C3143 H3158 0.961 . S
C3143 H3159 0.961 . S
C3144 C3145 1.370 . S
C3144 C3146 1.363 . S
C3144 H3160 0.931 . S
C3145 C3144 1.370 . S
C3145 C3149 1.408 . S
C3146 C3144 1.363 . S
C3146 C3147 1.370 . S
C3146 C3150 1.524 . S
C3147 C3139 1.503 . S
C3147 C3146 1.370 . S
C3147 C3148 1.403 . S
C3148 C3147 1.403 . S
C3148 C3149 1.404 . S
C3148 C3151 1.539 . S
C3149 C3145 1.408 . S
C3149 C3148 1.404 . S
C3149 H3161 0.930 . S
C3150 C3146 1.524 . S
C3150 H3162 0.956 . S
C3150 H3163 0.961 . S
C3150 H3164 0.961 . S
C3151 C3148 1.539 . S
C3151 H3165 0.958 . S
C3151 H3166 0.961 . S
C3151 H3167 0.960 . S
H3152 C3136 0.931 . S
H3153 C3141 0.929 . S
H3154 C3142 0.960 . S
H3155 C3142 0.962 . S
H3156 C3142 0.960 . S
H3157 C3143 0.961 . S
H3158 C3143 0.961 . S
H3159 C3143 0.961 . S
H3160 C3144 0.931 . S
H3161 C3149 0.930 . S
H3162 C3150 0.956 . S
H3163 C3150 0.961 . S
H3164 C3150 0.961 . S
H3165 C3151 0.958 . S
H3166 C3151 0.961 . S
H3167 C3151 0.960 . S
C3168 C3169 1.391 . S
C3168 C3170 1.394 . S
C3168 H3184 0.931 . S
C3169 C3168 1.391 . S
C3169 C3173 1.376 . S
C3170 C3168 1.394 . S
C3170 C3171 1.369 . S
C3170 C3174 1.531 . S
C3171 C3170 1.369 . S
C3171 C3172 1.410 . S
C3171 C3179 1.503 . S
C3172 C3171 1.410 . S
C3172 C3173 1.392 . S
C3172 C3175 1.511 . S
C3173 C3169 1.376 . S
C3173 C3172 1.392 . S
C3173 H3185 0.929 . S
C3174 C3170 1.531 . S
C3174 H3186 0.960 . S
C3174 H3187 0.962 . S
C3174 H3188 0.960 . S
C3175 C3172 1.511 . S
C3175 H3189 0.961 . S
C3175 H3190 0.961 . S
C3175 H3191 0.961 . S
C3176 C3177 1.370 . S
C3176 C3178 1.363 . S
C3176 H3192 0.931 . S
C3177 C3176 1.370 . S
C3177 C3181 1.408 . S
C3178 C3176 1.363 . S
C3178 C3179 1.370 . S
C3178 C3182 1.524 . S
C3179 C3171 1.503 . S
C3179 C3178 1.370 . S
C3179 C3180 1.403 . S
C3180 C3179 1.403 . S
C3180 C3181 1.404 . S
C3180 C3183 1.539 . S
C3181 C3177 1.408 . S
C3181 C3180 1.404 . S
C3181 H3193 0.930 . S
C3182 C3178 1.524 . S
C3182 H3194 0.956 . S
C3182 H3195 0.961 . S
C3182 H3196 0.961 . S
C3183 C3180 1.539 . S
C3183 H3197 0.958 . S
C3183 H3198 0.961 . S
C3183 H3199 0.960 . S
H3184 C3168 0.931 . S
H3185 C3173 0.929 . S
H3186 C3174 0.960 . S
H3187 C3174 0.962 . S
H3188 C3174 0.960 . S
H3189 C3175 0.961 . S
H3190 C3175 0.961 . S
H3191 C3175 0.961 . S
H3192 C3176 0.931 . S
H3193 C3181 0.930 . S
H3194 C3182 0.956 . S
H3195 C3182 0.961 . S
H3196 C3182 0.961 . S
H3197 C3183 0.958 . S
H3198 C3183 0.961 . S
H3199 C3183 0.960 . S
C3200 C3201 1.391 . S
C3200 C3202 1.394 . S
C3200 H3216 0.931 . S
C3201 C3200 1.391 . S
C3201 C3205 1.376 . S
C3202 C3200 1.394 . S
C3202 C3203 1.369 1_455 S
C3202 C3206 1.531 . S
C3203 C3202 1.369 1_655 S
C3203 C3204 1.410 . S
C3203 C3211 1.503 . S
C3204 C3203 1.410 . S
C3204 C3205 1.392 1_655 S
C3204 C3207 1.511 . S
C3205 C3201 1.376 . S
C3205 C3204 1.392 1_455 S
C3205 H3217 0.929 . S
C3206 C3202 1.531 . S
C3206 H3218 0.960 1_455 S
C3206 H3219 0.962 . S
C3206 H3220 0.960 . S
C3207 C3204 1.511 . S
C3207 H3221 0.961 . S
C3207 H3222 0.961 . S
C3207 H3223 0.961 . S
C3208 C3209 1.370 . S
C3208 C3210 1.363 . S
C3208 H3224 0.931 . S
C3209 C3208 1.370 . S
C3209 C3213 1.408 . S
C3210 C3208 1.363 . S
C3210 C3211 1.370 . S
C3210 C3214 1.524 . S
C3211 C3203 1.503 . S
C3211 C3210 1.370 . S
C3211 C3212 1.403 . S
C3212 C3211 1.403 . S
C3212 C3213 1.404 . S
C3212 C3215 1.539 . S
C3213 C3209 1.408 . S
C3213 C3212 1.404 . S
C3213 H3225 0.930 . S
C3214 C3210 1.524 . S
C3214 H3226 0.909 1_655 S
C3214 H3227 0.961 . S
C3214 H3228 0.961 . S
C3215 C3212 1.539 . S
C3215 H3229 0.958 . S
C3215 H3230 0.961 . S
C3215 H3231 0.960 . S
H3216 C3200 0.931 . S
H3217 C3205 0.929 . S
H3218 C3206 0.960 1_655 S
H3219 C3206 0.962 . S
H3220 C3206 0.960 . S
H3221 C3207 0.961 . S
H3222 C3207 0.961 . S
H3223 C3207 0.961 . S
H3224 C3208 0.931 . S
H3225 C3213 0.930 . S
H3226 C3214 0.909 1_455 S
H3227 C3214 0.961 . S
H3228 C3214 0.961 . S
H3229 C3215 0.958 . S
H3230 C3215 0.961 . S
H3231 C3215 0.960 . S
C3232 C3233 1.391 1_455 S
C3232 C3234 1.394 . S
C3232 H3248 0.931 . S
C3233 C3232 1.391 1_655 S
C3233 C3237 1.376 . S
C3234 C3232 1.394 . S
C3234 C3235 1.369 . S
C3234 C3238 1.531 . S
C3235 C3234 1.369 . S
C3235 C3236 1.410 1_455 S
C3235 C3243 1.503 . S
C3236 C3235 1.410 1_655 S
C3236 C3237 1.392 . S
C3236 C3239 1.511 . S
C3237 C3233 1.376 . S
C3237 C3236 1.392 . S
C3237 H3249 0.929 . S
C3238 C3234 1.531 . S
C3238 H3250 0.960 . S
C3238 H3251 0.962 . S
C3238 H3252 0.960 . S
C3239 C3236 1.511 . S
C3239 H3253 0.961 . S
C3239 H3254 0.961 . S
C3239 H3255 0.961 . S
C3240 C3241 1.370 . S
C3240 C3242 1.363 . S
C3240 H3256 0.931 . S
C3241 C3240 1.370 . S
C3241 C3245 1.408 . S
C3242 C3240 1.363 . S
C3242 C3243 1.370 . S
C3242 C3246 1.524 1_455 S
C3243 C3235 1.503 . S
C3243 C3242 1.370 . S
C3243 C3244 1.403 . S
C3244 C3243 1.403 . S
C3244 C3245 1.404 . S
C3244 C3247 1.539 . S
C3245 C3241 1.408 . S
C3245 C3244 1.404 . S
C3245 H3257 0.930 . S
C3246 C3242 1.524 1_655 S
C3246 H3258 0.961 . S
C3246 H3259 0.961 . S
C3246 H3260 0.961 . S
C3247 C3244 1.539 . S
C3247 H3261 0.958 . S
C3247 H3262 0.961 . S
C3247 H3263 0.960 . S
H3248 C3232 0.931 . S
H3249 C3237 0.929 . S
H3250 C3238 0.960 . S
H3251 C3238 0.962 . S
H3252 C3238 0.960 . S
H3253 C3239 0.961 . S
H3254 C3239 0.961 . S
H3255 C3239 0.961 . S
H3256 C3240 0.931 . S
H3257 C3245 0.930 . S
H3258 C3246 0.961 . S
H3259 C3246 0.961 . S
H3260 C3246 0.961 . S
H3261 C3247 0.958 . S
H3262 C3247 0.961 . S
H3263 C3247 0.960 . S
C3264 C3265 1.391 . S
C3264 C3266 1.394 . S
C3264 H3280 0.931 . S
C3265 C3264 1.391 . S
C3265 C3269 1.376 . S
C3266 C3264 1.394 . S
C3266 C3267 1.369 . S
C3266 C3270 1.531 . S
C3267 C3266 1.369 . S
C3267 C3268 1.410 . S
C3267 C3275 1.503 . S
C3268 C3267 1.410 . S
C3268 C3269 1.392 . S
C3268 C3271 1.511 . S
C3269 C3265 1.376 . S
C3269 C3268 1.392 . S
C3269 H3281 0.929 . S
C3270 C3266 1.531 . S
C3270 H3282 0.960 . S
C3270 H3283 0.962 . S
C3270 H3284 0.960 . S
C3271 C3268 1.511 . S
C3271 H3285 0.961 . S
C3271 H3286 0.961 . S
C3271 H3287 0.961 . S
C3272 C3273 1.370 . S
C3272 C3274 1.363 . S
C3272 H3288 0.931 . S
C3273 C3272 1.370 . S
C3273 C3277 1.408 . S
C3274 C3272 1.363 . S
C3274 C3275 1.370 . S
C3274 C3278 1.524 . S
C3275 C3267 1.503 . S
C3275 C3274 1.370 . S
C3275 C3276 1.403 . S
C3276 C3275 1.403 . S
C3276 C3277 1.404 . S
C3276 C3279 1.539 . S
C3277 C3273 1.408 . S
C3277 C3276 1.404 . S
C3277 H3289 0.930 . S
C3278 C3274 1.524 . S
C3278 H3290 0.956 . S
C3278 H3291 0.961 . S
C3278 H3292 0.961 . S
C3279 C3276 1.539 . S
C3279 H3293 0.958 . S
C3279 H3294 0.961 . S
C3279 H3295 0.960 . S
H3280 C3264 0.931 . S
H3281 C3269 0.929 . S
H3282 C3270 0.960 . S
H3283 C3270 0.962 . S
H3284 C3270 0.960 . S
H3285 C3271 0.961 . S
H3286 C3271 0.961 . S
H3287 C3271 0.961 . S
H3288 C3272 0.931 . S
H3289 C3277 0.930 . S
H3290 C3278 0.956 . S
H3291 C3278 0.961 . S
H3292 C3278 0.961 . S
H3293 C3279 0.958 . S
H3294 C3279 0.961 . S
H3295 C3279 0.960 . S
C3296 C3297 1.391 . S
C3296 C3298 1.394 . S
C3296 H3312 0.931 . S
C3297 C3296 1.391 . S
C3297 C3301 1.376 . S
C3298 C3296 1.394 . S
C3298 C3299 1.369 . S
C3298 C3302 1.531 . S
C3299 C3298 1.369 . S
C3299 C3300 1.410 . S
C3299 C3307 1.503 . S
C3300 C3299 1.410 . S
C3300 C3301 1.392 . S
C3300 C3303 1.511 . S
C3301 C3297 1.376 . S
C3301 C3300 1.392 . S
C3301 H3313 0.929 . S
C3302 C3298 1.531 . S
C3302 H3314 0.960 . S
C3302 H3315 0.962 . S
C3302 H3316 0.960 . S
C3303 C3300 1.511 . S
C3303 H3317 0.961 . S
C3303 H3318 0.961 . S
C3303 H3319 0.961 . S
C3304 C3305 1.370 . S
C3304 C3306 1.363 . S
C3304 H3320 0.931 . S
C3305 C3304 1.370 . S
C3305 C3309 1.408 . S
C3306 C3304 1.363 . S
C3306 C3307 1.370 . S
C3306 C3310 1.524 . S
C3307 C3299 1.503 . S
C3307 C3306 1.370 . S
C3307 C3308 1.403 . S
C3308 C3307 1.403 . S
C3308 C3309 1.404 . S
C3308 C3311 1.539 . S
C3309 C3305 1.408 . S
C3309 C3308 1.404 . S
C3309 H3321 0.930 . S
C3310 C3306 1.524 . S
C3310 H3322 0.956 . S
C3310 H3323 0.961 . S
C3310 H3324 0.961 . S
C3311 C3308 1.539 . S
C3311 H3325 0.958 . S
C3311 H3326 0.961 . S
C3311 H3327 0.960 . S
H3312 C3296 0.931 . S
H3313 C3301 0.929 . S
H3314 C3302 0.960 . S
H3315 C3302 0.962 . S
H3316 C3302 0.960 . S
H3317 C3303 0.961 . S
H3318 C3303 0.961 . S
H3319 C3303 0.961 . S
H3320 C3304 0.931 . S
H3321 C3309 0.930 . S
H3322 C3310 0.956 . S
H3323 C3310 0.961 . S
H3324 C3310 0.961 . S
H3325 C3311 0.958 . S
H3326 C3311 0.961 . S
H3327 C3311 0.960 . S
C3328 C3329 1.391 . S
C3328 C3330 1.394 . S
C3328 H3344 0.931 . S
C3329 C3328 1.391 . S
C3329 C3333 1.376 . S
C3330 C3328 1.394 . S
C3330 C3331 1.369 . S
C3330 C3334 1.531 . S
C3331 C3330 1.369 . S
C3331 C3332 1.410 . S
C3331 C3339 1.503 . S
C3332 C3331 1.410 . S
C3332 C3333 1.392 . S
C3332 C3335 1.511 . S
C3333 C3329 1.376 . S
C3333 C3332 1.392 . S
C3333 H3345 0.929 . S
C3334 C3330 1.531 . S
C3334 H3346 0.960 . S
C3334 H3347 0.962 . S
C3334 H3348 0.960 . S
C3335 C3332 1.511 . S
C3335 H3349 0.961 . S
C3335 H3350 0.961 . S
C3335 H3351 0.961 . S
C3336 C3337 1.370 . S
C3336 C3338 1.363 . S
C3336 H3352 0.931 . S
C3337 C3336 1.370 . S
C3337 C3341 1.408 . S
C3338 C3336 1.363 . S
C3338 C3339 1.370 . S
C3338 C3342 1.524 . S
C3339 C3331 1.503 . S
C3339 C3338 1.370 . S
C3339 C3340 1.403 . S
C3340 C3339 1.403 . S
C3340 C3341 1.404 . S
C3340 C3343 1.539 . S
C3341 C3337 1.408 . S
C3341 C3340 1.404 . S
C3341 H3353 0.930 . S
C3342 C3338 1.524 . S
C3342 H3354 0.956 . S
C3342 H3355 0.961 . S
C3342 H3356 0.961 . S
C3343 C3340 1.539 . S
C3343 H3357 0.958 . S
C3343 H3358 0.961 . S
C3343 H3359 0.960 . S
H3344 C3328 0.931 . S
H3345 C3333 0.929 . S
H3346 C3334 0.960 . S
H3347 C3334 0.962 . S
H3348 C3334 0.960 . S
H3349 C3335 0.961 . S
H3350 C3335 0.961 . S
H3351 C3335 0.961 . S
H3352 C3336 0.931 . S
H3353 C3341 0.930 . S
H3354 C3342 0.956 . S
H3355 C3342 0.961 . S
H3356 C3342 0.961 . S
H3357 C3343 0.958 . S
H3358 C3343 0.961 . S
H3359 C3343 0.960 . S
C3360 C3361 1.391 . S
C3360 C3362 1.394 . S
C3360 H3376 0.931 . S
C3361 C3360 1.391 . S
C3361 C3365 1.376 . S
C3362 C3360 1.394 . S
C3362 C3363 1.369 . S
C3362 C3366 1.531 . S
C3363 C3362 1.369 . S
C3363 C3364 1.410 . S
C3363 C3371 1.503 . S
C3364 C3363 1.410 . S
C3364 C3365 1.392 . S
C3364 C3367 1.511 . S
C3365 C3361 1.376 . S
C3365 C3364 1.392 . S
C3365 H3377 0.929 . S
C3366 C3362 1.531 . S
C3366 H3378 0.960 . S
C3366 H3379 0.962 . S
C3366 H3380 0.960 . S
C3367 C3364 1.511 . S
C3367 H3381 0.961 . S
C3367 H3382 0.961 . S
C3367 H3383 0.961 . S
C3368 C3369 1.370 . S
C3368 C3370 1.363 . S
C3368 H3384 0.931 . S
C3369 C3368 1.370 . S
C3369 C3373 1.408 . S
C3370 C3368 1.363 . S
C3370 C3371 1.370 . S
C3370 C3374 1.524 . S
C3371 C3363 1.503 . S
C3371 C3370 1.370 . S
C3371 C3372 1.403 . S
C3372 C3371 1.403 . S
C3372 C3373 1.404 . S
C3372 C3375 1.539 . S
C3373 C3369 1.408 . S
C3373 C3372 1.404 . S
C3373 H3385 0.930 . S
C3374 C3370 1.524 . S
C3374 H3386 0.956 . S
C3374 H3387 0.961 . S
C3374 H3388 0.961 . S
C3375 C3372 1.539 . S
C3375 H3389 0.958 . S
C3375 H3390 0.961 . S
C3375 H3391 0.960 . S
H3376 C3360 0.931 . S
H3377 C3365 0.929 . S
H3378 C3366 0.960 . S
H3379 C3366 0.962 . S
H3380 C3366 0.960 . S
H3381 C3367 0.961 . S
H3382 C3367 0.961 . S
H3383 C3367 0.961 . S
H3384 C3368 0.931 . S
H3385 C3373 0.930 . S
H3386 C3374 0.956 . S
H3387 C3374 0.961 . S
H3388 C3374 0.961 . S
H3389 C3375 0.958 . S
H3390 C3375 0.961 . S
H3391 C3375 0.960 . S
C3392 C3393 1.391 . S
C3392 C3394 1.394 . S
C3392 H3408 0.931 . S
C3393 C3392 1.391 . S
C3393 C3397 1.376 . S
C3394 C3392 1.394 . S
C3394 C3395 1.369 . S
C3394 C3398 1.531 . S
C3395 C3394 1.369 . S
C3395 C3396 1.410 . S
C3395 C3403 1.503 . S
C3396 C3395 1.410 . S
C3396 C3397 1.392 . S
C3396 C3399 1.511 . S
C3397 C3393 1.376 . S
C3397 C3396 1.392 . S
C3397 H3409 0.929 . S
C3398 C3394 1.531 . S
C3398 H3410 0.960 . S
C3398 H3411 0.962 . S
C3398 H3412 0.960 . S
C3399 C3396 1.511 . S
C3399 H3413 0.961 . S
C3399 H3414 0.961 . S
C3399 H3415 0.961 . S
C3400 C3401 1.370 . S
C3400 C3402 1.363 . S
C3400 H3416 0.931 . S
C3401 C3400 1.370 . S
C3401 C3405 1.408 . S
C3402 C3400 1.363 . S
C3402 C3403 1.370 . S
C3402 C3406 1.524 . S
C3403 C3395 1.503 . S
C3403 C3402 1.370 . S
C3403 C3404 1.403 . S
C3404 C3403 1.403 . S
C3404 C3405 1.404 . S
C3404 C3407 1.539 . S
C3405 C3401 1.408 . S
C3405 C3404 1.404 . S
C3405 H3417 0.930 . S
C3406 C3402 1.524 . S
C3406 H3418 0.956 . S
C3406 H3419 0.961 . S
C3406 H3420 0.961 . S
C3407 C3404 1.539 . S
C3407 H3421 0.958 . S
C3407 H3422 0.961 . S
C3407 H3423 0.960 . S
H3408 C3392 0.931 . S
H3409 C3397 0.929 . S
H3410 C3398 0.960 . S
H3411 C3398 0.962 . S
H3412 C3398 0.960 . S
H3413 C3399 0.961 . S
H3414 C3399 0.961 . S
H3415 C3399 0.961 . S
H3416 C3400 0.931 . S
H3417 C3405 0.930 . S
H3418 C3406 0.956 . S
H3419 C3406 0.961 . S
H3420 C3406 0.961 . S
H3421 C3407 0.958 . S
H3422 C3407 0.961 . S
H3423 C3407 0.960 . S
C3424 C3425 1.391 . S
C3424 C3426 1.394 . S
C3424 H3440 0.931 . S
C3425 C3424 1.391 . S
C3425 C3429 1.376 . S
C3426 C3424 1.394 . S
C3426 C3427 1.369 . S
C3426 C3430 1.531 . S
C3427 C3426 1.369 . S
C3427 C3428 1.410 . S
C3427 C3435 1.503 . S
C3428 C3427 1.410 . S
C3428 C3429 1.392 . S
C3428 C3431 1.511 . S
C3429 C3425 1.376 . S
C3429 C3428 1.392 . S
C3429 H3441 0.929 . S
C3430 C3426 1.531 . S
C3430 H3442 0.960 . S
C3430 H3443 0.962 . S
C3430 H3444 0.960 . S
C3431 C3428 1.511 . S
C3431 H3445 0.961 . S
C3431 H3446 0.961 . S
C3431 H3447 0.961 . S
C3432 C3433 1.370 . S
C3432 C3434 1.363 . S
C3432 H3448 0.931 . S
C3433 C3432 1.370 . S
C3433 C3437 1.408 . S
C3434 C3432 1.363 . S
C3434 C3435 1.370 . S
C3434 C3438 1.524 . S
C3435 C3427 1.503 . S
C3435 C3434 1.370 . S
C3435 C3436 1.403 . S
C3436 C3435 1.403 . S
C3436 C3437 1.404 . S
C3436 C3439 1.539 . S
C3437 C3433 1.408 . S
C3437 C3436 1.404 . S
C3437 H3449 0.930 1_556 S
C3438 C3434 1.524 . S
C3438 H3450 0.956 . S
C3438 H3451 0.961 . S
C3438 H3452 0.961 . S
C3439 C3436 1.539 . S
C3439 H3453 0.958 . S
C3439 H3454 0.961 . S
C3439 H3455 0.960 . S
H3440 C3424 0.931 . S
H3441 C3429 0.929 . S
H3442 C3430 0.960 . S
H3443 C3430 0.962 . S
H3444 C3430 0.960 . S
H3445 C3431 0.961 . S
H3446 C3431 0.961 . S
H3447 C3431 0.961 . S
H3448 C3432 0.931 . S
H3449 C3437 0.930 1_554 S
H3450 C3438 0.956 . S
H3451 C3438 0.961 . S
H3452 C3438 0.961 . S
H3453 C3439 0.958 . S
H3454 C3439 0.961 . S
H3455 C3439 0.960 . S
C3456 C3457 1.391 . S
C3456 C3458 1.394 . S
C3456 H3472 0.931 . S
C3457 C3456 1.391 . S
C3457 C3461 1.376 . S
C3458 C3456 1.394 . S
C3458 C3459 1.369 . S
C3458 C3462 1.531 . S
C3459 C3458 1.369 . S
C3459 C3460 1.410 . S
C3459 C3467 1.503 . S
C3460 C3459 1.410 . S
C3460 C3461 1.392 . S
C3460 C3463 1.511 . S
C3461 C3457 1.376 . S
C3461 C3460 1.392 . S
C3461 H3473 0.929 . S
C3462 C3458 1.531 . S
C3462 H3474 0.960 . S
C3462 H3475 0.962 . S
C3462 H3476 0.960 . S
C3463 C3460 1.511 . S
C3463 H3477 0.961 . S
C3463 H3478 0.961 . S
C3463 H3479 0.961 . S
C3464 C3465 1.370 . S
C3464 C3466 1.363 . S
C3464 H3480 0.931 . S
C3465 C3464 1.370 . S
C3465 C3469 1.408 . S
C3466 C3464 1.363 . S
C3466 C3467 1.370 . S
C3466 C3470 1.524 . S
C3467 C3459 1.503 . S
C3467 C3466 1.370 . S
C3467 C3468 1.403 . S
C3468 C3467 1.403 . S
C3468 C3469 1.404 . S
C3468 C3471 1.539 . S
C3469 C3465 1.408 . S
C3469 C3468 1.404 . S
C3469 H3481 0.930 . S
C3470 C3466 1.524 . S
C3470 H3482 0.956 . S
C3470 H3483 0.961 . S
C3470 H3484 0.961 . S
C3471 C3468 1.539 . S
C3471 H3485 0.958 . S
C3471 H3486 0.961 . S
C3471 H3487 0.960 . S
H3472 C3456 0.931 . S
H3473 C3461 0.929 . S
H3474 C3462 0.960 . S
H3475 C3462 0.962 . S
H3476 C3462 0.960 . S
H3477 C3463 0.961 . S
H3478 C3463 0.961 . S
H3479 C3463 0.961 . S
H3480 C3464 0.931 . S
H3481 C3469 0.930 . S
H3482 C3470 0.956 . S
H3483 C3470 0.961 . S
H3484 C3470 0.961 . S
H3485 C3471 0.958 . S
H3486 C3471 0.961 . S
H3487 C3471 0.960 . S
C3488 C3489 1.391 . S
C3488 C3490 1.394 . S
C3488 H3504 0.931 . S
C3489 C3488 1.391 . S
C3489 C3493 1.376 . S
C3490 C3488 1.394 . S
C3490 C3491 1.369 . S
C3490 C3494 1.531 . S
C3491 C3490 1.369 . S
C3491 C3492 1.410 . S
C3491 C3499 1.503 . S
C3492 C3491 1.410 . S
C3492 C3493 1.392 . S
C3492 C3495 1.511 . S
C3493 C3489 1.376 . S
C3493 C3492 1.392 . S
C3493 H3505 0.929 . S
C3494 C3490 1.531 . S
C3494 H3506 0.960 . S
C3494 H3507 0.962 . S
C3494 H3508 0.960 . S
C3495 C3492 1.511 . S
C3495 H3509 0.961 . S
C3495 H3510 0.961 . S
C3495 H3511 0.961 . S
C3496 C3497 1.370 . S
C3496 C3498 1.363 . S
C3496 H3512 0.931 . S
C3497 C3496 1.370 . S
C3497 C3501 1.408 . S
C3498 C3496 1.363 . S
C3498 C3499 1.370 . S
C3498 C3502 1.524 . S
C3499 C3491 1.503 . S
C3499 C3498 1.370 . S
C3499 C3500 1.403 . S
C3500 C3499 1.403 . S
C3500 C3501 1.404 . S
C3500 C3503 1.539 . S
C3501 C3497 1.408 . S
C3501 C3500 1.404 . S
C3501 H3513 0.930 . S
C3502 C3498 1.524 . S
C3502 H3514 0.956 . S
C3502 H3515 0.961 . S
C3502 H3516 0.961 . S
C3503 C3500 1.539 . S
C3503 H3517 0.958 . S
C3503 H3518 0.961 . S
C3503 H3519 0.960 . S
H3504 C3488 0.931 . S
H3505 C3493 0.929 . S
H3506 C3494 0.960 . S
H3507 C3494 0.962 . S
H3508 C3494 0.960 . S
H3509 C3495 0.961 . S
H3510 C3495 0.961 . S
H3511 C3495 0.961 . S
H3512 C3496 0.931 . S
H3513 C3501 0.930 . S
H3514 C3502 0.956 . S
H3515 C3502 0.961 . S
H3516 C3502 0.961 . S
H3517 C3503 0.958 . S
H3518 C3503 0.961 . S
H3519 C3503 0.960 . S
C3520 C3521 1.391 . S
C3520 C3522 1.394 . S
C3520 H3536 0.931 . S
C3521 C3520 1.391 . S
C3521 C3525 1.376 . S
C3522 C3520 1.394 . S
C3522 C3523 1.369 . S
C3522 C3526 1.531 . S
C3523 C3522 1.369 . S
C3523 C3524 1.410 . S
C3523 C3531 1.503 . S
C3524 C3523 1.410 . S
C3524 C3525 1.392 . S
C3524 C3527 1.511 . S
C3525 C3521 1.376 . S
C3525 C3524 1.392 . S
C3525 H3537 0.929 . S
C3526 C3522 1.531 . S
C3526 H3538 0.960 . S
C3526 H3539 0.962 . S
C3526 H3540 0.960 . S
C3527 C3524 1.511 . S
C3527 H3541 0.961 . S
C3527 H3542 0.961 . S
C3527 H3543 0.961 . S
C3528 C3529 1.370 . S
C3528 C3530 1.363 . S
C3528 H3544 0.931 . S
C3529 C3528 1.370 . S
C3529 C3533 1.408 . S
C3530 C3528 1.363 . S
C3530 C3531 1.370 . S
C3530 C3534 1.524 . S
C3531 C3523 1.503 . S
C3531 C3530 1.370 . S
C3531 C3532 1.403 . S
C3532 C3531 1.403 . S
C3532 C3533 1.404 . S
C3532 C3535 1.539 . S
C3533 C3529 1.408 . S
C3533 C3532 1.404 . S
C3533 H3545 0.930 . S
C3534 C3530 1.524 . S
C3534 H3546 0.956 . S
C3534 H3547 0.961 . S
C3534 H3548 0.961 . S
C3535 C3532 1.539 . S
C3535 H3549 0.958 . S
C3535 H3550 0.961 . S
C3535 H3551 0.960 . S
H3536 C3520 0.931 . S
H3537 C3525 0.929 . S
H3538 C3526 0.960 . S
H3539 C3526 0.962 . S
H3540 C3526 0.960 . S
H3541 C3527 0.961 . S
H3542 C3527 0.961 . S
H3543 C3527 0.961 . S
H3544 C3528 0.931 . S
H3545 C3533 0.930 . S
H3546 C3534 0.956 . S
H3547 C3534 0.961 . S
H3548 C3534 0.961 . S
H3549 C3535 0.958 . S
H3550 C3535 0.961 . S
H3551 C3535 0.960 . S
C3552 C3553 1.391 . S
C3552 C3554 1.394 . S
C3552 H3568 0.931 . S
C3553 C3552 1.391 . S
C3553 C3557 1.376 . S
C3554 C3552 1.394 . S
C3554 C3555 1.369 . S
C3554 C3558 1.531 . S
C3555 C3554 1.369 . S
C3555 C3556 1.410 . S
C3555 C3563 1.503 . S
C3556 C3555 1.410 . S
C3556 C3557 1.392 . S
C3556 C3559 1.511 . S
C3557 C3553 1.376 . S
C3557 C3556 1.392 . S
C3557 H3569 0.929 . S
C3558 C3554 1.531 . S
C3558 H3570 0.960 . S
C3558 H3571 0.962 . S
C3558 H3572 0.960 . S
C3559 C3556 1.511 . S
C3559 H3573 0.961 . S
C3559 H3574 0.961 . S
C3559 H3575 0.961 . S
C3560 C3561 1.370 . S
C3560 C3562 1.363 . S
C3560 H3576 0.931 . S
C3561 C3560 1.370 . S
C3561 C3565 1.408 . S
C3562 C3560 1.363 . S
C3562 C3563 1.370 . S
C3562 C3566 1.524 . S
C3563 C3555 1.503 . S
C3563 C3562 1.370 . S
C3563 C3564 1.403 . S
C3564 C3563 1.403 . S
C3564 C3565 1.404 . S
C3564 C3567 1.539 . S
C3565 C3561 1.408 . S
C3565 C3564 1.404 . S
C3565 H3577 0.930 . S
C3566 C3562 1.524 . S
C3566 H3578 0.956 . S
C3566 H3579 0.961 . S
C3566 H3580 0.961 . S
C3567 C3564 1.539 . S
C3567 H3581 0.958 . S
C3567 H3582 0.961 . S
C3567 H3583 0.960 . S
H3568 C3552 0.931 . S
H3569 C3557 0.929 . S
H3570 C3558 0.960 . S
H3571 C3558 0.962 . S
H3572 C3558 0.960 . S
H3573 C3559 0.961 . S
H3574 C3559 0.961 . S
H3575 C3559 0.961 . S
H3576 C3560 0.931 . S
H3577 C3565 0.930 . S
H3578 C3566 0.956 . S
H3579 C3566 0.961 . S
H3580 C3566 0.961 . S
H3581 C3567 0.958 . S
H3582 C3567 0.961 . S
H3583 C3567 0.960 . S
C3584 C3585 1.391 . S
C3584 C3586 1.394 . S
C3584 H3600 0.931 . S
C3585 C3584 1.391 . S
C3585 C3589 1.376 . S
C3586 C3584 1.394 . S
C3586 C3587 1.369 . S
C3586 C3590 1.531 . S
C3587 C3586 1.369 . S
C3587 C3588 1.410 . S
C3587 C3595 1.503 . S
C3588 C3587 1.410 . S
C3588 C3589 1.392 . S
C3588 C3591 1.511 . S
C3589 C3585 1.376 . S
C3589 C3588 1.392 . S
C3589 H3601 0.929 . S
C3590 C3586 1.531 . S
C3590 H3602 0.960 . S
C3590 H3603 0.962 . S
C3590 H3604 0.960 . S
C3591 C3588 1.511 . S
C3591 H3605 0.961 . S
C3591 H3606 0.961 . S
C3591 H3607 0.961 . S
C3592 C3593 1.370 . S
C3592 C3594 1.363 . S
C3592 H3608 0.931 . S
C3593 C3592 1.370 . S
C3593 C3597 1.408 . S
C3594 C3592 1.363 . S
C3594 C3595 1.370 . S
C3594 C3598 1.524 . S
C3595 C3587 1.503 . S
C3595 C3594 1.370 . S
C3595 C3596 1.403 . S
C3596 C3595 1.403 . S
C3596 C3597 1.404 . S
C3596 C3599 1.539 . S
C3597 C3593 1.408 . S
C3597 C3596 1.404 . S
C3597 H3609 0.930 . S
C3598 C3594 1.524 . S
C3598 H3610 0.956 . S
C3598 H3611 0.961 . S
C3598 H3612 0.961 . S
C3599 C3596 1.539 . S
C3599 H3613 0.958 . S
C3599 H3614 0.961 . S
C3599 H3615 0.960 . S
H3600 C3584 0.931 . S
H3601 C3589 0.929 . S
H3602 C3590 0.960 . S
H3603 C3590 0.962 . S
H3604 C3590 0.960 . S
H3605 C3591 0.961 . S
H3606 C3591 0.961 . S
H3607 C3591 0.961 . S
H3608 C3592 0.931 . S
H3609 C3597 0.930 . S
H3610 C3598 0.956 . S
H3611 C3598 0.961 . S
H3612 C3598 0.961 . S
H3613 C3599 0.958 . S
H3614 C3599 0.961 . S
H3615 C3599 0.960 . S
C3616 C3617 1.391 . S
C3616 C3618 1.394 . S
C3616 H3632 0.931 . S
C3617 C3616 1.391 . S
C3617 C3621 1.376 . S
C3618 C3616 1.394 . S
C3618 C3619 1.369 . S
C3618 C3622 1.531 . S
C3619 C3618 1.369 . S
C3619 C3620 1.410 . S
C3619 C3627 1.503 . S
C3620 C3619 1.410 . S
C3620 C3621 1.392 . S
C3620 C3623 1.511 . S
C3621 C3617 1.376 . S
C3621 C3620 1.392 . S
C3621 H3633 0.929 . S
C3622 C3618 1.531 . S
C3622 H3634 0.960 . S
C3622 H3635 0.962 . S
C3622 H3636 0.960 . S
C3623 C3620 1.511 . S
C3623 H3637 0.961 . S
C3623 H3638 0.961 . S
C3623 H3639 0.961 . S
C3624 C3625 1.370 . S
C3624 C3626 1.363 . S
C3624 H3640 0.931 . S
C3625 C3624 1.370 . S
C3625 C3629 1.408 . S
C3626 C3624 1.363 . S
C3626 C3627 1.370 . S
C3626 C3630 1.524 . S
C3627 C3619 1.503 . S
C3627 C3626 1.370 . S
C3627 C3628 1.403 . S
C3628 C3627 1.403 . S
C3628 C3629 1.404 . S
C3628 C3631 1.539 . S
C3629 C3625 1.408 . S
C3629 C3628 1.404 . S
C3629 H3641 0.930 . S
C3630 C3626 1.524 . S
C3630 H3642 0.956 . S
C3630 H3643 0.961 . S
C3630 H3644 0.961 . S
C3631 C3628 1.539 . S
C3631 H3645 0.958 . S
C3631 H3646 0.961 . S
C3631 H3647 0.960 . S
H3632 C3616 0.931 . S
H3633 C3621 0.929 . S
H3634 C3622 0.960 . S
H3635 C3622 0.962 . S
H3636 C3622 0.960 . S
H3637 C3623 0.961 . S
H3638 C3623 0.961 . S
H3639 C3623 0.961 . S
H3640 C3624 0.931 . S
H3641 C3629 0.930 . S
H3642 C3630 0.956 . S
H3643 C3630 0.961 . S
H3644 C3630 0.961 . S
H3645 C3631 0.958 . S
H3646 C3631 0.961 . S
H3647 C3631 0.960 . S
C3648 C3649 1.391 . S
C3648 C3650 1.394 . S
C3648 H3664 0.931 . S
C3649 C3648 1.391 . S
C3649 C3653 1.376 . S
C3650 C3648 1.394 . S
C3650 C3651 1.369 . S
C3650 C3654 1.531 . S
C3651 C3650 1.369 . S
C3651 C3652 1.410 . S
C3651 C3659 1.503 . S
C3652 C3651 1.410 . S
C3652 C3653 1.392 . S
C3652 C3655 1.511 . S
C3653 C3649 1.376 . S
C3653 C3652 1.392 . S
C3653 H3665 0.929 . S
C3654 C3650 1.531 . S
C3654 H3666 0.960 . S
C3654 H3667 0.962 . S
C3654 H3668 0.960 . S
C3655 C3652 1.511 . S
C3655 H3669 0.961 . S
C3655 H3670 0.961 . S
C3655 H3671 0.961 . S
C3656 C3657 1.370 . S
C3656 C3658 1.363 . S
C3656 H3672 0.931 . S
C3657 C3656 1.370 . S
C3657 C3661 1.408 1_545 S
C3658 C3656 1.363 . S
C3658 C3659 1.370 1_545 S
C3658 C3662 1.524 . S
C3659 C3651 1.503 . S
C3659 C3658 1.370 1_565 S
C3659 C3660 1.403 . S
C3660 C3659 1.403 . S
C3660 C3661 1.404 . S
C3660 C3663 1.539 . S
C3661 C3657 1.408 1_565 S
C3661 C3660 1.404 . S
C3661 H3673 0.930 . S
C3662 C3658 1.524 . S
C3662 H3674 0.956 . S
C3662 H3675 0.961 . S
C3662 H3676 0.961 . S
C3663 C3660 1.539 . S
C3663 H3677 0.958 . S
C3663 H3678 0.961 . S
C3663 H3679 0.960 . S
H3664 C3648 0.931 . S
H3665 C3653 0.929 . S
H3666 C3654 0.960 . S
H3667 C3654 0.962 . S
H3668 C3654 0.960 . S
H3669 C3655 0.961 . S
H3670 C3655 0.961 . S
H3671 C3655 0.961 . S
H3672 C3656 0.931 . S
H3673 C3661 0.930 . S
H3674 C3662 0.956 . S
H3675 C3662 0.961 . S
H3676 C3662 0.961 . S
H3677 C3663 0.958 . S
H3678 C3663 0.961 . S
H3679 C3663 0.960 . S
C3680 C3681 1.391 . S
C3680 C3682 1.394 . S
C3680 H3696 0.931 . S
C3681 C3680 1.391 . S
C3681 C3685 1.376 . S
C3682 C3680 1.394 . S
C3682 C3683 1.369 . S
C3682 C3686 1.531 . S
C3683 C3682 1.369 . S
C3683 C3684 1.410 . S
C3683 C3691 1.503 . S
C3684 C3683 1.410 . S
C3684 C3685 1.392 . S
C3684 C3687 1.511 . S
C3685 C3681 1.376 . S
C3685 C3684 1.392 . S
C3685 H3697 0.929 . S
C3686 C3682 1.531 . S
C3686 H3698 0.960 . S
C3686 H3699 0.962 . S
C3686 H3700 0.960 . S
C3687 C3684 1.511 . S
C3687 H3701 0.961 . S
C3687 H3702 0.961 . S
C3687 H3703 0.961 . S
C3688 C3689 1.370 . S
C3688 C3690 1.363 . S
C3688 H3704 0.931 . S
C3689 C3688 1.370 . S
C3689 C3693 1.408 . S
C3690 C3688 1.363 . S
C3690 C3691 1.370 . S
C3690 C3694 1.524 . S
C3691 C3683 1.503 . S
C3691 C3690 1.370 . S
C3691 C3692 1.403 . S
C3692 C3691 1.403 . S
C3692 C3693 1.404 . S
C3692 C3695 1.539 . S
C3693 C3689 1.408 . S
C3693 C3692 1.404 . S
C3693 H3705 0.930 . S
C3694 C3690 1.524 . S
C3694 H3706 0.956 . S
C3694 H3707 0.961 . S
C3694 H3708 0.961 . S
C3695 C3692 1.539 . S
C3695 H3709 0.958 . S
C3695 H3710 0.961 . S
C3695 H3711 0.960 . S
H3696 C3680 0.931 . S
H3697 C3685 0.929 . S
H3698 C3686 0.960 . S
H3699 C3686 0.962 . S
H3700 C3686 0.960 . S
H3701 C3687 0.961 . S
H3702 C3687 0.961 . S
H3703 C3687 0.961 . S
H3704 C3688 0.931 . S
H3705 C3693 0.930 . S
H3706 C3694 0.956 . S
H3707 C3694 0.961 . S
H3708 C3694 0.961 . S
H3709 C3695 0.958 . S
H3710 C3695 0.961 . S
H3711 C3695 0.960 . S
C3712 C3713 1.391 . S
C3712 C3714 1.394 . S
C3712 H3728 0.931 . S
C3713 C3712 1.391 . S
C3713 C3717 1.376 . S
C3714 C3712 1.394 . S
C3714 C3715 1.369 . S
C3714 C3718 1.531 . S
C3715 C3714 1.369 . S
C3715 C3716 1.410 . S
C3715 C3723 1.503 . S
C3716 C3715 1.410 . S
C3716 C3717 1.392 . S
C3716 C3719 1.511 . S
C3717 C3713 1.376 . S
C3717 C3716 1.392 . S
C3717 H3729 0.929 . S
C3718 C3714 1.531 . S
C3718 H3730 0.960 . S
C3718 H3731 0.962 . S
C3718 H3732 0.960 . S
C3719 C3716 1.511 . S
C3719 H3733 0.961 . S
C3719 H3734 0.961 . S
C3719 H3735 0.961 . S
C3720 C3721 1.370 . S
C3720 C3722 1.363 . S
C3720 H3736 0.931 . S
C3721 C3720 1.370 . S
C3721 C3725 1.408 . S
C3722 C3720 1.363 . S
C3722 C3723 1.370 . S
C3722 C3726 1.524 . S
C3723 C3715 1.503 . S
C3723 C3722 1.370 . S
C3723 C3724 1.403 . S
C3724 C3723 1.403 . S
C3724 C3725 1.404 . S
C3724 C3727 1.539 . S
C3725 C3721 1.408 . S
C3725 C3724 1.404 . S
C3725 H3737 0.930 . S
C3726 C3722 1.524 . S
C3726 H3738 0.956 . S
C3726 H3739 0.961 . S
C3726 H3740 0.961 . S
C3727 C3724 1.539 . S
C3727 H3741 0.958 . S
C3727 H3742 0.961 . S
C3727 H3743 0.960 . S
H3728 C3712 0.931 . S
H3729 C3717 0.929 . S
H3730 C3718 0.960 . S
H3731 C3718 0.962 . S
H3732 C3718 0.960 . S
H3733 C3719 0.961 . S
H3734 C3719 0.961 . S
H3735 C3719 0.961 . S
H3736 C3720 0.931 . S
H3737 C3725 0.930 . S
H3738 C3726 0.956 . S
H3739 C3726 0.961 . S
H3740 C3726 0.961 . S
H3741 C3727 0.958 . S
H3742 C3727 0.961 . S
H3743 C3727 0.960 . S
C3744 C3745 1.391 . S
C3744 C3746 1.394 . S
C3744 H3760 0.931 . S
C3745 C3744 1.391 . S
C3745 C3749 1.376 . S
C3746 C3744 1.394 . S
C3746 C3747 1.369 . S
C3746 C3750 1.531 . S
C3747 C3746 1.369 . S
C3747 C3748 1.410 . S
C3747 C3755 1.503 . S
C3748 C3747 1.410 . S
C3748 C3749 1.392 . S
C3748 C3751 1.511 . S
C3749 C3745 1.376 . S
C3749 C3748 1.392 . S
C3749 H3761 0.929 . S
C3750 C3746 1.531 . S
C3750 H3762 0.960 . S
C3750 H3763 0.962 . S
C3750 H3764 0.960 . S
C3751 C3748 1.511 . S
C3751 H3765 0.961 . S
C3751 H3766 0.961 . S
C3751 H3767 0.961 . S
C3752 C3753 1.370 . S
C3752 C3754 1.363 . S
C3752 H3768 0.931 . S
C3753 C3752 1.370 . S
C3753 C3757 1.408 . S
C3754 C3752 1.363 . S
C3754 C3755 1.370 . S
C3754 C3758 1.524 . S
C3755 C3747 1.503 . S
C3755 C3754 1.370 . S
C3755 C3756 1.403 . S
C3756 C3755 1.403 . S
C3756 C3757 1.404 . S
C3756 C3759 1.539 . S
C3757 C3753 1.408 . S
C3757 C3756 1.404 . S
C3757 H3769 0.930 . S
C3758 C3754 1.524 . S
C3758 H3770 0.956 . S
C3758 H3771 0.961 . S
C3758 H3772 0.961 . S
C3759 C3756 1.539 . S
C3759 H3773 0.958 . S
C3759 H3774 0.961 . S
C3759 H3775 0.960 . S
H3760 C3744 0.931 . S
H3761 C3749 0.929 . S
H3762 C3750 0.960 . S
H3763 C3750 0.962 . S
H3764 C3750 0.960 . S
H3765 C3751 0.961 . S
H3766 C3751 0.961 . S
H3767 C3751 0.961 . S
H3768 C3752 0.931 . S
H3769 C3757 0.930 . S
H3770 C3758 0.956 . S
H3771 C3758 0.961 . S
H3772 C3758 0.961 . S
H3773 C3759 0.958 . S
H3774 C3759 0.961 . S
H3775 C3759 0.960 . S
C3776 C3777 1.391 . S
C3776 C3778 1.394 . S
C3776 H3792 0.931 . S
C3777 C3776 1.391 . S
C3777 C3781 1.376 . S
C3778 C3776 1.394 . S
C3778 C3779 1.369 . S
C3778 C3782 1.531 . S
C3779 C3778 1.369 . S
C3779 C3780 1.410 . S
C3779 C3787 1.503 . S
C3780 C3779 1.410 . S
C3780 C3781 1.392 . S
C3780 C3783 1.511 . S
C3781 C3777 1.376 . S
C3781 C3780 1.392 . S
C3781 H3793 0.929 . S
C3782 C3778 1.531 . S
C3782 H3794 0.960 . S
C3782 H3795 0.962 . S
C3782 H3796 0.960 . S
C3783 C3780 1.511 . S
C3783 H3797 0.961 . S
C3783 H3798 0.961 1_545 S
C3783 H3799 0.961 . S
C3784 C3785 1.370 . S
C3784 C3786 1.363 . S
C3784 H3800 0.931 . S
C3785 C3784 1.370 . S
C3785 C3789 1.408 . S
C3786 C3784 1.363 . S
C3786 C3787 1.370 1_565 S
C3786 C3790 1.524 . S
C3787 C3779 1.503 . S
C3787 C3786 1.370 1_545 S
C3787 C3788 1.403 . S
C3788 C3787 1.403 . S
C3788 C3789 1.404 1_545 S
C3788 C3791 1.539 . S
C3789 C3785 1.408 . S
C3789 C3788 1.404 1_565 S
C3789 H3801 0.930 . S
C3790 C3786 1.524 . S
C3790 H3802 0.956 1_565 S
C3790 H3803 0.961 . S
C3790 H3804 0.961 . S
C3791 C3788 1.539 . S
C3791 H3805 0.958 . S
C3791 H3806 0.961 . S
C3791 H3807 0.960 . S
H3792 C3776 0.931 . S
H3793 C3781 0.929 . S
H3794 C3782 0.960 . S
H3795 C3782 0.962 . S
H3796 C3782 0.960 . S
H3797 C3783 0.961 . S
H3798 C3783 0.961 1_565 S
H3799 C3783 0.961 . S
H3800 C3784 0.931 . S
H3801 C3789 0.930 . S
H3802 C3790 0.956 1_545 S
H3803 C3790 0.961 . S
H3804 C3790 0.961 . S
H3805 C3791 0.958 . S
H3806 C3791 0.961 . S
H3807 C3791 0.960 . S
C3808 C3809 1.391 . S
C3808 C3810 1.394 . S
C3808 H3824 0.931 . S
C3809 C3808 1.391 . S
C3809 C3813 1.376 . S
C3810 C3808 1.394 . S
C3810 C3811 1.369 . S
C3810 C3814 1.531 . S
C3811 C3810 1.369 . S
C3811 C3812 1.410 . S
C3811 C3819 1.503 . S
C3812 C3811 1.410 . S
C3812 C3813 1.392 . S
C3812 C3815 1.511 . S
C3813 C3809 1.376 . S
C3813 C3812 1.392 . S
C3813 H3825 0.929 . S
C3814 C3810 1.531 . S
C3814 H3826 0.960 . S
C3814 H3827 0.962 . S
C3814 H3828 0.960 . S
C3815 C3812 1.511 . S
C3815 H3829 0.961 . S
C3815 H3830 0.961 . S
C3815 H3831 0.961 . S
C3816 C3817 1.370 . S
C3816 C3818 1.363 . S
C3816 H3832 0.931 . S
C3817 C3816 1.370 . S
C3817 C3821 1.408 . S
C3818 C3816 1.363 . S
C3818 C3819 1.370 . S
C3818 C3822 1.524 . S
C3819 C3811 1.503 . S
C3819 C3818 1.370 . S
C3819 C3820 1.403 . S
C3820 C3819 1.403 . S
C3820 C3821 1.404 . S
C3820 C3823 1.539 . S
C3821 C3817 1.408 . S
C3821 C3820 1.404 . S
C3821 H3833 0.930 . S
C3822 C3818 1.524 . S
C3822 H3834 0.956 . S
C3822 H3835 0.961 . S
C3822 H3836 0.961 . S
C3823 C3820 1.539 . S
C3823 H3837 0.958 . S
C3823 H3838 0.961 . S
C3823 H3839 0.960 . S
H3824 C3808 0.931 . S
H3825 C3813 0.929 . S
H3826 C3814 0.960 . S
H3827 C3814 0.962 . S
H3828 C3814 0.960 . S
H3829 C3815 0.961 . S
H3830 C3815 0.961 . S
H3831 C3815 0.961 . S
H3832 C3816 0.931 . S
H3833 C3821 0.930 . S
H3834 C3822 0.956 . S
H3835 C3822 0.961 . S
H3836 C3822 0.961 . S
H3837 C3823 0.958 . S
H3838 C3823 0.961 . S
H3839 C3823 0.960 . S
C3840 C3841 1.391 . S
C3840 C3842 1.394 . S
C3840 H3856 0.931 . S
C3841 C3840 1.391 . S
C3841 C3845 1.376 . S
C3842 C3840 1.394 . S
C3842 C3843 1.369 . S
C3842 C3846 1.531 . S
C3843 C3842 1.369 . S
C3843 C3844 1.410 . S
C3843 C3851 1.503 . S
C3844 C3843 1.410 . S
C3844 C3845 1.392 . S
C3844 C3847 1.511 . S
C3845 C3841 1.376 . S
C3845 C3844 1.392 . S
C3845 H3857 0.929 . S
C3846 C3842 1.531 . S
C3846 H3858 0.960 . S
C3846 H3859 0.962 . S
C3846 H3860 0.960 . S
C3847 C3844 1.511 . S
C3847 H3861 0.961 . S
C3847 H3862 0.961 . S
C3847 H3863 0.961 . S
C3848 C3849 1.370 . S
C3848 C3850 1.363 . S
C3848 H3864 0.931 . S
C3849 C3848 1.370 . S
C3849 C3853 1.408 . S
C3850 C3848 1.363 . S
C3850 C3851 1.370 . S
C3850 C3854 1.524 . S
C3851 C3843 1.503 . S
C3851 C3850 1.370 . S
C3851 C3852 1.403 . S
C3852 C3851 1.403 . S
C3852 C3853 1.404 . S
C3852 C3855 1.539 . S
C3853 C3849 1.408 . S
C3853 C3852 1.404 . S
C3853 H3865 0.930 . S
C3854 C3850 1.524 . S
C3854 H3866 0.956 . S
C3854 H3867 0.961 . S
C3854 H3868 0.961 . S
C3855 C3852 1.539 . S
C3855 H3869 0.958 . S
C3855 H3870 0.961 . S
C3855 H3871 0.960 . S
H3856 C3840 0.931 . S
H3857 C3845 0.929 . S
H3858 C3846 0.960 . S
H3859 C3846 0.962 . S
H3860 C3846 0.960 . S
H3861 C3847 0.961 . S
H3862 C3847 0.961 . S
H3863 C3847 0.961 . S
H3864 C3848 0.931 . S
H3865 C3853 0.930 . S
H3866 C3854 0.956 . S
H3867 C3854 0.961 . S
H3868 C3854 0.961 . S
H3869 C3855 0.958 . S
H3870 C3855 0.961 . S
H3871 C3855 0.960 . S
C3872 C3873 1.391 . S
C3872 C3874 1.394 . S
C3872 H3888 0.931 . S
C3873 C3872 1.391 . S
C3873 C3877 1.376 . S
C3874 C3872 1.394 . S
C3874 C3875 1.369 . S
C3874 C3878 1.531 . S
C3875 C3874 1.369 . S
C3875 C3876 1.410 . S
C3875 C3883 1.503 . S
C3876 C3875 1.410 . S
C3876 C3877 1.392 . S
C3876 C3879 1.511 1_455 S
C3877 C3873 1.376 . S
C3877 C3876 1.392 . S
C3877 H3889 0.929 1_455 S
C3878 C3874 1.531 . S
C3878 H3890 0.960 . S
C3878 H3891 0.962 . S
C3878 H3892 0.960 . S
C3879 C3876 1.511 1_655 S
C3879 H3893 0.961 . S
C3879 H3894 0.961 . S
C3879 H3895 0.961 . S
C3880 C3881 1.370 . S
C3880 C3882 1.363 . S
C3880 H3896 0.931 . S
C3881 C3880 1.370 . S
C3881 C3885 1.408 . S
C3882 C3880 1.363 . S
C3882 C3883 1.370 . S
C3882 C3886 1.524 . S
C3883 C3875 1.503 . S
C3883 C3882 1.370 . S
C3883 C3884 1.403 . S
C3884 C3883 1.403 . S
C3884 C3885 1.404 . S
C3884 C3887 1.539 . S
C3885 C3881 1.408 . S
C3885 C3884 1.404 . S
C3885 H3897 0.930 . S
C3886 C3882 1.524 . S
C3886 H3898 0.956 . S
C3886 H3899 0.961 . S
C3886 H3900 0.961 . S
C3887 C3884 1.539 . S
C3887 H3901 0.958 . S
C3887 H3902 0.961 1_455 S
C3887 H3903 0.960 1_455 S
H3888 C3872 0.931 . S
H3889 C3877 0.929 1_655 S
H3890 C3878 0.960 . S
H3891 C3878 0.962 . S
H3892 C3878 0.960 . S
H3893 C3879 0.961 . S
H3894 C3879 0.961 . S
H3895 C3879 0.961 . S
H3896 C3880 0.931 . S
H3897 C3885 0.930 . S
H3898 C3886 0.956 . S
H3899 C3886 0.961 . S
H3900 C3886 0.961 . S
H3901 C3887 0.958 . S
H3902 C3887 0.961 1_655 S
H3903 C3887 0.960 1_655 S
C3904 C3905 1.391 . S
C3904 C3906 1.394 . S
C3904 H3920 0.931 . S
C3905 C3904 1.391 . S
C3905 C3909 1.376 . S
C3906 C3904 1.394 . S
C3906 C3907 1.369 . S
C3906 C3910 1.531 . S
C3907 C3906 1.369 . S
C3907 C3908 1.410 . S
C3907 C3915 1.503 . S
C3908 C3907 1.410 . S
C3908 C3909 1.392 . S
C3908 C3911 1.511 . S
C3909 C3905 1.376 . S
C3909 C3908 1.392 . S
C3909 H3921 0.929 . S
C3910 C3906 1.531 . S
C3910 H3922 0.960 . S
C3910 H3923 0.962 . S
C3910 H3924 0.960 . S
C3911 C3908 1.511 . S
C3911 H3925 0.961 . S
C3911 H3926 0.961 . S
C3911 H3927 0.961 . S
C3912 C3913 1.370 . S
C3912 C3914 1.363 . S
C3912 H3928 0.931 . S
C3913 C3912 1.370 . S
C3913 C3917 1.408 . S
C3914 C3912 1.363 . S
C3914 C3915 1.370 . S
C3914 C3918 1.524 . S
C3915 C3907 1.503 . S
C3915 C3914 1.370 . S
C3915 C3916 1.403 . S
C3916 C3915 1.403 . S
C3916 C3917 1.404 . S
C3916 C3919 1.539 . S
C3917 C3913 1.408 . S
C3917 C3916 1.404 . S
C3917 H3929 0.930 . S
C3918 C3914 1.524 . S
C3918 H3930 0.956 . S
C3918 H3931 0.961 . S
C3918 H3932 0.961 . S
C3919 C3916 1.539 . S
C3919 H3933 0.958 . S
C3919 H3934 0.961 . S
C3919 H3935 0.960 . S
H3920 C3904 0.931 . S
H3921 C3909 0.929 . S
H3922 C3910 0.960 . S
H3923 C3910 0.962 . S
H3924 C3910 0.960 . S
H3925 C3911 0.961 . S
H3926 C3911 0.961 . S
H3927 C3911 0.961 . S
H3928 C3912 0.931 . S
H3929 C3917 0.930 . S
H3930 C3918 0.956 . S
H3931 C3918 0.961 . S
H3932 C3918 0.961 . S
H3933 C3919 0.958 . S
H3934 C3919 0.961 . S
H3935 C3919 0.960 . S
C3936 C3937 1.391 . S
C3936 C3938 1.394 . S
C3936 H3952 0.931 . S
C3937 C3936 1.391 . S
C3937 C3941 1.376 . S
C3938 C3936 1.394 . S
C3938 C3939 1.369 . S
C3938 C3942 1.531 . S
C3939 C3938 1.369 . S
C3939 C3940 1.410 . S
C3939 C3947 1.503 . S
C3940 C3939 1.410 . S
C3940 C3941 1.392 . S
C3940 C3943 1.511 1_554 S
C3941 C3937 1.376 . S
C3941 C3940 1.392 . S
C3941 H3953 0.929 1_554 S
C3942 C3938 1.531 . S
C3942 H3954 0.960 . S
C3942 H3955 0.962 . S
C3942 H3956 0.960 . S
C3943 C3940 1.511 1_556 S
C3943 H3957 0.961 . S
C3943 H3958 0.961 . S
C3943 H3959 0.961 . S
C3944 C3945 1.370 . S
C3944 C3946 1.363 . S
C3944 H3960 0.931 . S
C3945 C3944 1.370 . S
C3945 C3949 1.408 . S
C3946 C3944 1.363 . S
C3946 C3947 1.370 . S
C3946 C3950 1.524 . S
C3947 C3939 1.503 . S
C3947 C3946 1.370 . S
C3947 C3948 1.403 . S
C3948 C3947 1.403 . S
C3948 C3949 1.404 . S
C3948 C3951 1.539 . S
C3949 C3945 1.408 . S
C3949 C3948 1.404 . S
C3949 H3961 0.930 . S
C3950 C3946 1.524 . S
C3950 H3962 0.956 . S
C3950 H3963 0.961 . S
C3950 H3964 0.961 . S
C3951 C3948 1.539 . S
C3951 H3965 0.958 . S
C3951 H3966 0.961 . S
C3951 H3967 0.960 . S
H3952 C3936 0.931 . S
H3953 C3941 0.929 1_556 S
H3954 C3942 0.960 . S
H3955 C3942 0.962 . S
H3956 C3942 0.960 . S
H3957 C3943 0.961 . S
H3958 C3943 0.961 . S
H3959 C3943 0.961 . S
H3960 C3944 0.931 . S
H3961 C3949 0.930 . S
H3962 C3950 0.956 . S
H3963 C3950 0.961 . S
H3964 C3950 0.961 . S
H3965 C3951 0.958 . S
H3966 C3951 0.961 . S
H3967 C3951 0.960 . S
C3968 C3969 1.391 . S
C3968 C3970 1.394 . S
C3968 H3984 0.931 . S
C3969 C3968 1.391 . S
C3969 C3973 1.376 . S
C3970 C3968 1.394 . S
C3970 C3971 1.369 . S
C3970 C3974 1.531 . S
C3971 C3970 1.369 . S
C3971 C3972 1.410 . S
C3971 C3979 1.503 . S
C3972 C3971 1.410 . S
C3972 C3973 1.392 . S
C3972 C3975 1.511 . S
C3973 C3969 1.376 . S
C3973 C3972 1.392 . S
C3973 H3985 0.929 . S
C3974 C3970 1.531 . S
C3974 H3986 0.960 . S
C3974 H3987 0.962 . S
C3974 H3988 0.960 . S
C3975 C3972 1.511 . S
C3975 H3989 0.961 . S
C3975 H3990 0.961 . S
C3975 H3991 0.961 . S
C3976 C3977 1.370 . S
C3976 C3978 1.363 . S
C3976 H3992 0.931 . S
C3977 C3976 1.370 . S
C3977 C3981 1.408 . S
C3978 C3976 1.363 . S
C3978 C3979 1.370 . S
C3978 C3982 1.524 . S
C3979 C3971 1.503 . S
C3979 C3978 1.370 . S
C3979 C3980 1.403 . S
C3980 C3979 1.403 . S
C3980 C3981 1.404 . S
C3980 C3983 1.539 . S
C3981 C3977 1.408 . S
C3981 C3980 1.404 . S
C3981 H3993 0.930 . S
C3982 C3978 1.524 . S
C3982 H3994 0.956 . S
C3982 H3995 0.961 . S
C3982 H3996 0.961 . S
C3983 C3980 1.539 . S
C3983 H3997 0.958 . S
C3983 H3998 0.961 . S
C3983 H3999 0.960 . S
H3984 C3968 0.931 . S
H3985 C3973 0.929 . S
H3986 C3974 0.960 . S
H3987 C3974 0.962 . S
H3988 C3974 0.960 . S
H3989 C3975 0.961 . S
H3990 C3975 0.961 . S
H3991 C3975 0.961 . S
H3992 C3976 0.931 . S
H3993 C3981 0.930 . S
H3994 C3982 0.956 . S
H3995 C3982 0.961 . S
H3996 C3982 0.961 . S
H3997 C3983 0.958 . S
H3998 C3983 0.961 . S
H3999 C3983 0.960 . S
C4000 C4001 1.391 . S
C4000 C4002 1.394 . S
C4000 H4016 0.931 . S
C4001 C4000 1.391 . S
C4001 C4005 1.376 . S
C4002 C4000 1.394 . S
C4002 C4003 1.369 . S
C4002 C4006 1.531 . S
C4003 C4002 1.369 . S
C4003 C4004 1.410 . S
C4003 C4011 1.503 . S
C4004 C4003 1.410 . S
C4004 C4005 1.392 . S
C4004 C4007 1.511 . S
C4005 C4001 1.376 . S
C4005 C4004 1.392 . S
C4005 H4017 0.929 . S
C4006 C4002 1.531 . S
C4006 H4018 0.960 . S
C4006 H4019 0.962 . S
C4006 H4020 0.960 . S
C4007 C4004 1.511 . S
C4007 H4021 0.961 . S
C4007 H4022 0.961 . S
C4007 H4023 0.961 . S
C4008 C4009 1.370 . S
C4008 C4010 1.363 . S
C4008 H4024 0.931 . S
C4009 C4008 1.370 . S
C4009 C4013 1.408 . S
C4010 C4008 1.363 . S
C4010 C4011 1.370 . S
C4010 C4014 1.524 . S
C4011 C4003 1.503 . S
C4011 C4010 1.370 . S
C4011 C4012 1.403 . S
C4012 C4011 1.403 . S
C4012 C4013 1.404 . S
C4012 C4015 1.539 . S
C4013 C4009 1.408 . S
C4013 C4012 1.404 . S
C4013 H4025 0.930 . S
C4014 C4010 1.524 . S
C4014 H4026 0.956 . S
C4014 H4027 0.961 . S
C4014 H4028 0.961 . S
C4015 C4012 1.539 . S
C4015 H4029 0.958 . S
C4015 H4030 0.961 . S
C4015 H4031 0.960 . S
H4016 C4000 0.931 . S
H4017 C4005 0.929 . S
H4018 C4006 0.960 . S
H4019 C4006 0.962 . S
H4020 C4006 0.960 . S
H4021 C4007 0.961 . S
H4022 C4007 0.961 . S
H4023 C4007 0.961 . S
H4024 C4008 0.931 . S
H4025 C4013 0.930 . S
H4026 C4014 0.956 . S
H4027 C4014 0.961 . S
H4028 C4014 0.961 . S
H4029 C4015 0.958 . S
H4030 C4015 0.961 . S
H4031 C4015 0.960 . S
C4032 C4033 1.391 . S
C4032 C4034 1.394 . S
C4032 H4048 0.931 . S
C4033 C4032 1.391 . S
C4033 C4037 1.376 . S
C4034 C4032 1.394 . S
C4034 C4035 1.369 . S
C4034 C4038 1.531 . S
C4035 C4034 1.369 . S
C4035 C4036 1.410 . S
C4035 C4043 1.503 . S
C4036 C4035 1.410 . S
C4036 C4037 1.392 . S
C4036 C4039 1.511 . S
C4037 C4033 1.376 . S
C4037 C4036 1.392 . S
C4037 H4049 0.929 . S
C4038 C4034 1.531 . S
C4038 H4050 0.960 . S
C4038 H4051 0.962 . S
C4038 H4052 0.960 . S
C4039 C4036 1.511 . S
C4039 H4053 0.961 . S
C4039 H4054 0.961 . S
C4039 H4055 0.961 . S
C4040 C4041 1.370 . S
C4040 C4042 1.363 . S
C4040 H4056 0.931 . S
C4041 C4040 1.370 . S
C4041 C4045 1.408 . S
C4042 C4040 1.363 . S
C4042 C4043 1.370 . S
C4042 C4046 1.524 . S
C4043 C4035 1.503 . S
C4043 C4042 1.370 . S
C4043 C4044 1.403 . S
C4044 C4043 1.403 . S
C4044 C4045 1.404 . S
C4044 C4047 1.539 . S
C4045 C4041 1.408 . S
C4045 C4044 1.404 . S
C4045 H4057 0.930 . S
C4046 C4042 1.524 . S
C4046 H4058 0.956 . S
C4046 H4059 0.961 . S
C4046 H4060 0.961 . S
C4047 C4044 1.539 . S
C4047 H4061 0.958 . S
C4047 H4062 0.961 . S
C4047 H4063 0.960 . S
H4048 C4032 0.931 . S
H4049 C4037 0.929 . S
H4050 C4038 0.960 . S
H4051 C4038 0.962 . S
H4052 C4038 0.960 . S
H4053 C4039 0.961 . S
H4054 C4039 0.961 . S
H4055 C4039 0.961 . S
H4056 C4040 0.931 . S
H4057 C4045 0.930 . S
H4058 C4046 0.956 . S
H4059 C4046 0.961 . S
H4060 C4046 0.961 . S
H4061 C4047 0.958 . S
H4062 C4047 0.961 . S
H4063 C4047 0.960 . S
C4064 C4065 1.391 . S
C4064 C4066 1.394 . S
C4064 H4080 0.931 . S
C4065 C4064 1.391 . S
C4065 C4069 1.376 . S
C4066 C4064 1.394 . S
C4066 C4067 1.369 . S
C4066 C4070 1.531 . S
C4067 C4066 1.369 . S
C4067 C4068 1.410 . S
C4067 C4075 1.503 . S
C4068 C4067 1.410 . S
C4068 C4069 1.392 . S
C4068 C4071 1.511 . S
C4069 C4065 1.376 . S
C4069 C4068 1.392 . S
C4069 H4081 0.929 . S
C4070 C4066 1.531 . S
C4070 H4082 0.960 . S
C4070 H4083 0.962 . S
C4070 H4084 0.960 . S
C4071 C4068 1.511 . S
C4071 H4085 0.961 . S
C4071 H4086 0.961 . S
C4071 H4087 0.961 . S
C4072 C4073 1.370 . S
C4072 C4074 1.363 . S
C4072 H4088 0.931 . S
C4073 C4072 1.370 . S
C4073 C4077 1.408 . S
C4074 C4072 1.363 . S
C4074 C4075 1.370 . S
C4074 C4078 1.524 . S
C4075 C4067 1.503 . S
C4075 C4074 1.370 . S
C4075 C4076 1.403 . S
C4076 C4075 1.403 . S
C4076 C4077 1.404 . S
C4076 C4079 1.539 . S
C4077 C4073 1.408 . S
C4077 C4076 1.404 . S
C4077 H4089 0.930 . S
C4078 C4074 1.524 . S
C4078 H4090 0.956 . S
C4078 H4091 0.961 . S
C4078 H4092 0.961 . S
C4079 C4076 1.539 . S
C4079 H4093 0.958 . S
C4079 H4094 0.961 . S
C4079 H4095 0.960 . S
H4080 C4064 0.931 . S
H4081 C4069 0.929 . S
H4082 C4070 0.960 . S
H4083 C4070 0.962 . S
H4084 C4070 0.960 . S
H4085 C4071 0.961 . S
H4086 C4071 0.961 . S
H4087 C4071 0.961 . S
H4088 C4072 0.931 . S
H4089 C4077 0.930 . S
H4090 C4078 0.956 . S
H4091 C4078 0.961 . S
H4092 C4078 0.961 . S
H4093 C4079 0.958 . S
H4094 C4079 0.961 . S
H4095 C4079 0.960 . S
C4096 C4097 1.391 . S
C4096 C4098 1.394 . S
C4096 H4112 0.931 . S
C4097 C4096 1.391 . S
C4097 C4101 1.376 . S
C4098 C4096 1.394 . S
C4098 C4099 1.369 . S
C4098 C4102 1.531 . S
C4099 C4098 1.369 . S
C4099 C4100 1.410 . S
C4099 C4107 1.503 . S
C4100 C4099 1.410 . S
C4100 C4101 1.392 . S
C4100 C4103 1.511 . S
C4101 C4097 1.376 . S
C4101 C4100 1.392 . S
C4101 H4113 0.929 . S
C4102 C4098 1.531 . S
C4102 H4114 0.960 . S
C4102 H4115 0.962 . S
C4102 H4116 0.960 . S
C4103 C4100 1.511 . S
C4103 H4117 0.961 . S
C4103 H4118 0.961 . S
C4103 H4119 0.961 . S
C4104 C4105 1.370 . S
C4104 C4106 1.363 . S
C4104 H4120 0.931 . S
C4105 C4104 1.370 . S
C4105 C4109 1.408 . S
C4106 C4104 1.363 . S
C4106 C4107 1.370 . S
C4106 C4110 1.524 . S
C4107 C4099 1.503 . S
C4107 C4106 1.370 . S
C4107 C4108 1.403 . S
C4108 C4107 1.403 . S
C4108 C4109 1.404 . S
C4108 C4111 1.539 . S
C4109 C4105 1.408 . S
C4109 C4108 1.404 . S
C4109 H4121 0.930 . S
C4110 C4106 1.524 . S
C4110 H4122 0.956 . S
C4110 H4123 0.961 . S
C4110 H4124 0.961 . S
C4111 C4108 1.539 . S
C4111 H4125 0.958 . S
C4111 H4126 0.961 . S
C4111 H4127 0.960 . S
H4112 C4096 0.931 . S
H4113 C4101 0.929 . S
H4114 C4102 0.960 . S
H4115 C4102 0.962 . S
H4116 C4102 0.960 . S
H4117 C4103 0.961 . S
H4118 C4103 0.961 . S
H4119 C4103 0.961 . S
H4120 C4104 0.931 . S
H4121 C4109 0.930 . S
H4122 C4110 0.956 . S
H4123 C4110 0.961 . S
H4124 C4110 0.961 . S
H4125 C4111 0.958 . S
H4126 C4111 0.961 . S
H4127 C4111 0.960 . S
C4128 C4129 1.391 . S
C4128 C4130 1.394 1_655 S
C4128 H4144 0.931 1_655 S
C4129 C4128 1.391 . S
C4129 C4133 1.376 . S
C4130 C4128 1.394 1_455 S
C4130 C4131 1.369 1_455 S
C4130 C4134 1.531 . S
C4131 C4130 1.369 1_655 S
C4131 C4132 1.410 . S
C4131 C4139 1.503 1_655 S
C4132 C4131 1.410 . S
C4132 C4133 1.392 . S
C4132 C4135 1.511 . S
C4133 C4129 1.376 . S
C4133 C4132 1.392 . S
C4133 H4145 0.929 . S
C4134 C4130 1.531 . S
C4134 H4146 0.960 . S
C4134 H4147 0.962 . S
C4134 H4148 0.960 . S
C4135 C4132 1.511 . S
C4135 H4149 0.961 . S
C4135 H4150 0.961 . S
C4135 H4151 0.961 . S
C4136 C4137 1.370 . S
C4136 C4138 1.363 . S
C4136 H4152 0.931 . S
C4137 C4136 1.370 . S
C4137 C4141 1.408 . S
C4138 C4136 1.363 . S
C4138 C4139 1.370 . S
C4138 C4142 1.524 . S
C4139 C4131 1.503 1_455 S
C4139 C4138 1.370 . S
C4139 C4140 1.403 1_455 S
C4140 C4139 1.403 1_655 S
C4140 C4141 1.404 1_655 S
C4140 C4143 1.539 . S
C4141 C4137 1.408 . S
C4141 C4140 1.404 1_455 S
C4141 H4153 0.930 1_556 S
C4142 C4138 1.524 . S
C4142 H4154 0.956 . S
C4142 H4155 0.961 . S
C4142 H4156 0.961 . S
C4143 C4140 1.539 . S
C4143 H4157 0.958 . S
C4143 H4158 0.961 . S
C4143 H4159 0.960 . S
H4144 C4128 0.931 1_455 S
H4145 C4133 0.929 . S
H4146 C4134 0.960 . S
H4147 C4134 0.962 . S
H4148 C4134 0.960 . S
H4149 C4135 0.961 . S
H4150 C4135 0.961 . S
H4151 C4135 0.961 . S
H4152 C4136 0.931 . S
H4153 C4141 0.930 1_554 S
H4154 C4142 0.956 . S
H4155 C4142 0.961 . S
H4156 C4142 0.961 . S
H4157 C4143 0.958 . S
H4158 C4143 0.961 . S
H4159 C4143 0.960 . S
C4160 C4161 1.391 . S
C4160 C4162 1.394 . S
C4160 H4176 0.931 . S
C4161 C4160 1.391 . S
C4161 C4165 1.376 . S
C4162 C4160 1.394 . S
C4162 C4163 1.369 . S
C4162 C4166 1.531 . S
C4163 C4162 1.369 . S
C4163 C4164 1.410 . S
C4163 C4171 1.503 . S
C4164 C4163 1.410 . S
C4164 C4165 1.392 . S
C4164 C4167 1.511 . S
C4165 C4161 1.376 . S
C4165 C4164 1.392 . S
C4165 H4177 0.929 . S
C4166 C4162 1.531 . S
C4166 H4178 0.960 . S
C4166 H4179 0.962 . S
C4166 H4180 0.960 . S
C4167 C4164 1.511 . S
C4167 H4181 0.961 . S
C4167 H4182 0.961 . S
C4167 H4183 0.961 . S
C4168 C4169 1.370 . S
C4168 C4170 1.363 . S
C4168 H4184 0.931 . S
C4169 C4168 1.370 . S
C4169 C4173 1.408 . S
C4170 C4168 1.363 . S
C4170 C4171 1.370 . S
C4170 C4174 1.524 . S
C4171 C4163 1.503 . S
C4171 C4170 1.370 . S
C4171 C4172 1.403 . S
C4172 C4171 1.403 . S
C4172 C4173 1.404 . S
C4172 C4175 1.539 . S
C4173 C4169 1.408 . S
C4173 C4172 1.404 . S
C4173 H4185 0.930 . S
C4174 C4170 1.524 . S
C4174 H4186 0.956 . S
C4174 H4187 0.961 . S
C4174 H4188 0.961 . S
C4175 C4172 1.539 . S
C4175 H4189 0.958 . S
C4175 H4190 0.961 . S
C4175 H4191 0.960 . S
H4176 C4160 0.931 . S
H4177 C4165 0.929 . S
H4178 C4166 0.960 . S
H4179 C4166 0.962 . S
H4180 C4166 0.960 . S
H4181 C4167 0.961 . S
H4182 C4167 0.961 . S
H4183 C4167 0.961 . S
H4184 C4168 0.931 . S
H4185 C4173 0.930 . S
H4186 C4174 0.956 . S
H4187 C4174 0.961 . S
H4188 C4174 0.961 . S
H4189 C4175 0.958 . S
H4190 C4175 0.961 . S
H4191 C4175 0.960 . S
C4192 C4193 1.391 . S
C4192 C4194 1.394 . S
C4192 H4208 0.931 . S
C4193 C4192 1.391 . S
C4193 C4197 1.376 . S
C4194 C4192 1.394 . S
C4194 C4195 1.369 . S
C4194 C4198 1.531 . S
C4195 C4194 1.369 . S
C4195 C4196 1.410 . S
C4195 C4203 1.503 . S
C4196 C4195 1.410 . S
C4196 C4197 1.392 . S
C4196 C4199 1.511 . S
C4197 C4193 1.376 . S
C4197 C4196 1.392 . S
C4197 H4209 0.929 . S
C4198 C4194 1.531 . S
C4198 H4210 0.960 . S
C4198 H4211 0.962 . S
C4198 H4212 0.960 . S
C4199 C4196 1.511 . S
C4199 H4213 0.961 . S
C4199 H4214 0.961 . S
C4199 H4215 0.961 . S
C4200 C4201 1.370 . S
C4200 C4202 1.363 . S
C4200 H4216 0.931 . S
C4201 C4200 1.370 . S
C4201 C4205 1.408 . S
C4202 C4200 1.363 . S
C4202 C4203 1.370 . S
C4202 C4206 1.524 . S
C4203 C4195 1.503 . S
C4203 C4202 1.370 . S
C4203 C4204 1.403 . S
C4204 C4203 1.403 . S
C4204 C4205 1.404 . S
C4204 C4207 1.539 . S
C4205 C4201 1.408 . S
C4205 C4204 1.404 . S
C4205 H4217 0.930 . S
C4206 C4202 1.524 . S
C4206 H4218 0.956 . S
C4206 H4219 0.961 . S
C4206 H4220 0.961 . S
C4207 C4204 1.539 . S
C4207 H4221 0.958 . S
C4207 H4222 0.961 . S
C4207 H4223 0.960 . S
H4208 C4192 0.931 . S
H4209 C4197 0.929 . S
H4210 C4198 0.960 . S
H4211 C4198 0.962 . S
H4212 C4198 0.960 . S
H4213 C4199 0.961 . S
H4214 C4199 0.961 . S
H4215 C4199 0.961 . S
H4216 C4200 0.931 . S
H4217 C4205 0.930 . S
H4218 C4206 0.956 . S
H4219 C4206 0.961 . S
H4220 C4206 0.961 . S
H4221 C4207 0.958 . S
H4222 C4207 0.961 . S
H4223 C4207 0.960 . S
C4224 C4225 1.391 . S
C4224 C4226 1.394 . S
C4224 H4240 0.931 . S
C4225 C4224 1.391 . S
C4225 C4229 1.376 . S
C4226 C4224 1.394 . S
C4226 C4227 1.369 . S
C4226 C4230 1.531 . S
C4227 C4226 1.369 . S
C4227 C4228 1.410 . S
C4227 C4235 1.503 . S
C4228 C4227 1.410 . S
C4228 C4229 1.392 . S
C4228 C4231 1.511 . S
C4229 C4225 1.376 . S
C4229 C4228 1.392 . S
C4229 H4241 0.929 . S
C4230 C4226 1.531 . S
C4230 H4242 0.960 . S
C4230 H4243 0.962 . S
C4230 H4244 0.960 . S
C4231 C4228 1.511 . S
C4231 H4245 0.961 . S
C4231 H4246 0.961 . S
C4231 H4247 0.961 . S
C4232 C4233 1.370 . S
C4232 C4234 1.363 . S
C4232 H4248 0.931 . S
C4233 C4232 1.370 . S
C4233 C4237 1.408 . S
C4234 C4232 1.363 . S
C4234 C4235 1.370 . S
C4234 C4238 1.524 . S
C4235 C4227 1.503 . S
C4235 C4234 1.370 . S
C4235 C4236 1.403 . S
C4236 C4235 1.403 . S
C4236 C4237 1.404 . S
C4236 C4239 1.539 . S
C4237 C4233 1.408 . S
C4237 C4236 1.404 . S
C4237 H4249 0.930 . S
C4238 C4234 1.524 . S
C4238 H4250 0.956 . S
C4238 H4251 0.961 . S
C4238 H4252 0.961 . S
C4239 C4236 1.539 . S
C4239 H4253 0.958 . S
C4239 H4254 0.961 . S
C4239 H4255 0.960 . S
H4240 C4224 0.931 . S
H4241 C4229 0.929 . S
H4242 C4230 0.960 . S
H4243 C4230 0.962 . S
H4244 C4230 0.960 . S
H4245 C4231 0.961 . S
H4246 C4231 0.961 . S
H4247 C4231 0.961 . S
H4248 C4232 0.931 . S
H4249 C4237 0.930 . S
H4250 C4238 0.956 . S
H4251 C4238 0.961 . S
H4252 C4238 0.961 . S
H4253 C4239 0.958 . S
H4254 C4239 0.961 . S
H4255 C4239 0.960 . S
C4256 C4257 1.391 . S
C4256 C4258 1.394 . S
C4256 H4272 0.931 . S
C4257 C4256 1.391 . S
C4257 C4261 1.376 . S
C4258 C4256 1.394 . S
C4258 C4259 1.369 . S
C4258 C4262 1.531 . S
C4259 C4258 1.369 . S
C4259 C4260 1.410 . S
C4259 C4267 1.503 . S
C4260 C4259 1.410 . S
C4260 C4261 1.392 . S
C4260 C4263 1.511 1_655 S
C4261 C4257 1.376 . S
C4261 C4260 1.392 . S
C4261 H4273 0.929 . S
C4262 C4258 1.531 . S
C4262 H4274 0.960 . S
C4262 H4275 0.962 . S
C4262 H4276 0.960 . S
C4263 C4260 1.511 1_455 S
C4263 H4277 0.961 . S
C4263 H4278 0.961 . S
C4263 H4279 0.961 . S
C4264 C4265 1.370 . S
C4264 C4266 1.363 . S
C4264 H4280 0.931 . S
C4265 C4264 1.370 . S
C4265 C4269 1.408 1_455 S
C4266 C4264 1.363 . S
C4266 C4267 1.370 1_455 S
C4266 C4270 1.524 . S
C4267 C4259 1.503 . S
C4267 C4266 1.370 1_655 S
C4267 C4268 1.403 . S
C4268 C4267 1.403 . S
C4268 C4269 1.404 . S
C4268 C4271 1.539 . S
C4269 C4265 1.408 1_655 S
C4269 C4268 1.404 . S
C4269 H4281 0.930 . S
C4270 C4266 1.524 . S
C4270 H4282 0.956 . S
C4270 H4283 0.961 . S
C4270 H4284 0.961 . S
C4271 C4268 1.539 . S
C4271 H4285 0.958 . S
C4271 H4286 0.961 . S
C4271 H4287 0.960 . S
H4272 C4256 0.931 . S
H4273 C4261 0.929 . S
H4274 C4262 0.960 . S
H4275 C4262 0.962 . S
H4276 C4262 0.960 . S
H4277 C4263 0.961 . S
H4278 C4263 0.961 . S
H4279 C4263 0.961 . S
H4280 C4264 0.931 . S
H4281 C4269 0.930 . S
H4282 C4270 0.956 . S
H4283 C4270 0.961 . S
H4284 C4270 0.961 . S
H4285 C4271 0.958 . S
H4286 C4271 0.961 . S
H4287 C4271 0.960 . S
C4288 C4289 1.391 . S
C4288 C4290 1.394 . S
C4288 H4304 0.931 . S
C4289 C4288 1.391 . S
C4289 C4293 1.376 . S
C4290 C4288 1.394 . S
C4290 C4291 1.369 . S
C4290 C4294 1.531 . S
C4291 C4290 1.369 . S
C4291 C4292 1.410 . S
C4291 C4299 1.503 . S
C4292 C4291 1.410 . S
C4292 C4293 1.392 . S
C4292 C4295 1.511 . S
C4293 C4289 1.376 . S
C4293 C4292 1.392 . S
C4293 H4305 0.929 . S
C4294 C4290 1.531 . S
C4294 H4306 0.960 . S
C4294 H4307 0.962 . S
C4294 H4308 0.960 . S
C4295 C4292 1.511 . S
C4295 H4309 0.961 . S
C4295 H4310 0.961 . S
C4295 H4311 0.961 . S
C4296 C4297 1.370 . S
C4296 C4298 1.363 . S
C4296 H4312 0.931 . S
C4297 C4296 1.370 . S
C4297 C4301 1.408 . S
C4298 C4296 1.363 . S
C4298 C4299 1.370 . S
C4298 C4302 1.524 . S
C4299 C4291 1.503 . S
C4299 C4298 1.370 . S
C4299 C4300 1.403 . S
C4300 C4299 1.403 . S
C4300 C4301 1.404 . S
C4300 C4303 1.539 . S
C4301 C4297 1.408 . S
C4301 C4300 1.404 . S
C4301 H4313 0.930 . S
C4302 C4298 1.524 . S
C4302 H4314 0.956 . S
C4302 H4315 0.961 . S
C4302 H4316 0.961 . S
C4303 C4300 1.539 . S
C4303 H4317 0.958 . S
C4303 H4318 0.961 . S
C4303 H4319 0.960 . S
H4304 C4288 0.931 . S
H4305 C4293 0.929 . S
H4306 C4294 0.960 . S
H4307 C4294 0.962 . S
H4308 C4294 0.960 . S
H4309 C4295 0.961 . S
H4310 C4295 0.961 . S
H4311 C4295 0.961 . S
H4312 C4296 0.931 . S
H4313 C4301 0.930 . S
H4314 C4302 0.956 . S
H4315 C4302 0.961 . S
H4316 C4302 0.961 . S
H4317 C4303 0.958 . S
H4318 C4303 0.961 . S
H4319 C4303 0.960 . S
C4320 C4321 1.391 . S
C4320 C4322 1.394 . S
C4320 H4336 0.931 . S
C4321 C4320 1.391 . S
C4321 C4325 1.376 . S
C4322 C4320 1.394 . S
C4322 C4323 1.369 . S
C4322 C4326 1.531 . S
C4323 C4322 1.369 . S
C4323 C4324 1.410 . S
C4323 C4331 1.503 . S
C4324 C4323 1.410 . S
C4324 C4325 1.392 . S
C4324 C4327 1.511 . S
C4325 C4321 1.376 . S
C4325 C4324 1.392 . S
C4325 H4337 0.929 . S
C4326 C4322 1.531 . S
C4326 H4338 0.960 . S
C4326 H4339 0.962 . S
C4326 H4340 0.960 . S
C4327 C4324 1.511 . S
C4327 H4341 0.961 . S
C4327 H4342 0.961 . S
C4327 H4343 0.961 . S
C4328 C4329 1.370 . S
C4328 C4330 1.363 . S
C4328 H4344 0.931 . S
C4329 C4328 1.370 . S
C4329 C4333 1.408 . S
C4330 C4328 1.363 . S
C4330 C4331 1.370 . S
C4330 C4334 1.524 . S
C4331 C4323 1.503 . S
C4331 C4330 1.370 . S
C4331 C4332 1.403 . S
C4332 C4331 1.403 . S
C4332 C4333 1.404 . S
C4332 C4335 1.539 . S
C4333 C4329 1.408 . S
C4333 C4332 1.404 . S
C4333 H4345 0.930 . S
C4334 C4330 1.524 . S
C4334 H4346 0.956 . S
C4334 H4347 0.961 . S
C4334 H4348 0.961 . S
C4335 C4332 1.539 . S
C4335 H4349 0.958 . S
C4335 H4350 0.961 . S
C4335 H4351 0.960 . S
H4336 C4320 0.931 . S
H4337 C4325 0.929 . S
H4338 C4326 0.960 . S
H4339 C4326 0.962 . S
H4340 C4326 0.960 . S
H4341 C4327 0.961 . S
H4342 C4327 0.961 . S
H4343 C4327 0.961 . S
H4344 C4328 0.931 . S
H4345 C4333 0.930 . S
H4346 C4334 0.956 . S
H4347 C4334 0.961 . S
H4348 C4334 0.961 . S
H4349 C4335 0.958 . S
H4350 C4335 0.961 . S
H4351 C4335 0.960 . S
C4352 C4353 1.391 . S
C4352 C4354 1.394 . S
C4352 H4368 0.931 . S
C4353 C4352 1.391 . S
C4353 C4357 1.376 . S
C4354 C4352 1.394 . S
C4354 C4355 1.369 . S
C4354 C4358 1.531 . S
C4355 C4354 1.369 . S
C4355 C4356 1.410 . S
C4355 C4363 1.503 . S
C4356 C4355 1.410 . S
C4356 C4357 1.392 . S
C4356 C4359 1.508 1_545 S
C4357 C4353 1.376 . S
C4357 C4356 1.392 . S
C4357 H4369 0.929 1_545 S
C4358 C4354 1.531 . S
C4358 H4370 0.960 . S
C4358 H4371 0.962 . S
C4358 H4372 0.960 . S
C4359 C4356 1.508 1_565 S
C4359 H4373 0.959 . S
C4359 H4374 0.951 1_565 S
C4359 H4375 0.976 . S
C4360 C4361 1.370 . S
C4360 C4362 1.363 . S
C4360 H4376 0.931 . S
C4361 C4360 1.370 . S
C4361 C4365 1.408 . S
C4362 C4360 1.363 . S
C4362 C4363 1.370 . S
C4362 C4366 1.524 . S
C4363 C4355 1.503 . S
C4363 C4362 1.370 . S
C4363 C4364 1.403 . S
C4364 C4363 1.403 . S
C4364 C4365 1.404 . S
C4364 C4367 1.539 1_545 S
C4365 C4361 1.408 . S
C4365 C4364 1.404 . S
C4365 H4377 0.930 . S
C4366 C4362 1.524 . S
C4366 H4378 0.956 . S
C4366 H4379 0.961 . S
C4366 H4380 0.961 . S
C4367 C4364 1.539 1_565 S
C4367 H4381 0.958 . S
C4367 H4382 0.961 . S
C4367 H4383 0.960 . S
H4368 C4352 0.931 . S
H4369 C4357 0.929 1_565 S
H4370 C4358 0.960 . S
H4371 C4358 0.962 . S
H4372 C4358 0.960 . S
H4373 C4359 0.959 . S
H4374 C4359 0.951 1_545 S
H4375 C4359 0.976 . S
H4376 C4360 0.931 . S
H4377 C4365 0.930 . S
H4378 C4366 0.956 . S
H4379 C4366 0.961 . S
H4380 C4366 0.961 . S
H4381 C4367 0.958 . S
H4382 C4367 0.961 . S
H4383 C4367 0.960 . S
C4384 C4385 1.391 . S
C4384 C4386 1.394 . S
C4384 H4400 0.931 . S
C4385 C4384 1.391 . S
C4385 C4389 1.376 . S
C4386 C4384 1.394 . S
C4386 C4387 1.369 . S
C4386 C4390 1.531 . S
C4387 C4386 1.369 . S
C4387 C4388 1.410 . S
C4387 C4395 1.503 . S
C4388 C4387 1.410 . S
C4388 C4389 1.392 . S
C4388 C4391 1.511 . S
C4389 C4385 1.376 . S
C4389 C4388 1.392 . S
C4389 H4401 0.929 . S
C4390 C4386 1.531 . S
C4390 H4402 0.960 . S
C4390 H4403 0.962 . S
C4390 H4404 0.960 . S
C4391 C4388 1.511 . S
C4391 H4405 0.961 . S
C4391 H4406 0.961 . S
C4391 H4407 0.961 . S
C4392 C4393 1.370 . S
C4392 C4394 1.363 . S
C4392 H4408 0.931 . S
C4393 C4392 1.370 . S
C4393 C4397 1.408 . S
C4394 C4392 1.363 . S
C4394 C4395 1.370 . S
C4394 C4398 1.524 . S
C4395 C4387 1.503 . S
C4395 C4394 1.370 . S
C4395 C4396 1.403 . S
C4396 C4395 1.403 . S
C4396 C4397 1.404 . S
C4396 C4399 1.539 . S
C4397 C4393 1.408 . S
C4397 C4396 1.404 . S
C4397 H4409 0.930 . S
C4398 C4394 1.524 . S
C4398 H4410 0.956 . S
C4398 H4411 0.961 . S
C4398 H4412 0.961 . S
C4399 C4396 1.539 . S
C4399 H4413 0.958 . S
C4399 H4414 0.961 . S
C4399 H4415 0.960 . S
H4400 C4384 0.931 . S
H4401 C4389 0.929 . S
H4402 C4390 0.960 . S
H4403 C4390 0.962 . S
H4404 C4390 0.960 . S
H4405 C4391 0.961 . S
H4406 C4391 0.961 . S
H4407 C4391 0.961 . S
H4408 C4392 0.931 . S
H4409 C4397 0.930 . S
H4410 C4398 0.956 . S
H4411 C4398 0.961 . S
H4412 C4398 0.961 . S
H4413 C4399 0.958 . S
H4414 C4399 0.961 . S
H4415 C4399 0.960 . S
C4416 C4417 1.391 . S
C4416 C4418 1.394 . S
C4416 H4432 0.931 . S
C4417 C4416 1.391 . S
C4417 C4421 1.376 . S
C4418 C4416 1.394 . S
C4418 C4419 1.369 . S
C4418 C4422 1.531 . S
C4419 C4418 1.369 . S
C4419 C4420 1.410 . S
C4419 C4427 1.503 . S
C4420 C4419 1.410 . S
C4420 C4421 1.392 . S
C4420 C4423 1.511 . S
C4421 C4417 1.376 . S
C4421 C4420 1.392 . S
C4421 H4433 0.929 . S
C4422 C4418 1.531 . S
C4422 H4434 0.960 . S
C4422 H4435 0.962 . S
C4422 H4436 0.960 . S
C4423 C4420 1.511 . S
C4423 H4437 0.961 . S
C4423 H4438 0.961 . S
C4423 H4439 0.961 . S
C4424 C4425 1.370 . S
C4424 C4426 1.363 . S
C4424 H4440 0.931 . S
C4425 C4424 1.370 . S
C4425 C4429 1.408 . S
C4426 C4424 1.363 . S
C4426 C4427 1.370 . S
C4426 C4430 1.524 . S
C4427 C4419 1.503 . S
C4427 C4426 1.370 . S
C4427 C4428 1.403 . S
C4428 C4427 1.403 . S
C4428 C4429 1.404 . S
C4428 C4431 1.539 . S
C4429 C4425 1.408 . S
C4429 C4428 1.404 . S
C4429 H4441 0.930 . S
C4430 C4426 1.524 . S
C4430 H4442 0.956 . S
C4430 H4443 0.961 . S
C4430 H4444 0.961 . S
C4431 C4428 1.539 . S
C4431 H4445 0.958 1_554 S
C4431 H4446 0.961 1_554 S
C4431 H4447 0.960 . S
H4432 C4416 0.931 . S
H4433 C4421 0.929 . S
H4434 C4422 0.960 . S
H4435 C4422 0.962 . S
H4436 C4422 0.960 . S
H4437 C4423 0.961 . S
H4438 C4423 0.961 . S
H4439 C4423 0.961 . S
H4440 C4424 0.931 . S
H4441 C4429 0.930 . S
H4442 C4430 0.956 . S
H4443 C4430 0.961 . S
H4444 C4430 0.961 . S
H4445 C4431 0.958 1_556 S
H4446 C4431 0.961 1_556 S
H4447 C4431 0.960 . S
C4448 C4449 1.391 . S
C4448 C4450 1.394 . S
C4448 H4464 0.931 . S
C4449 C4448 1.391 . S
C4449 C4453 1.376 . S
C4450 C4448 1.394 . S
C4450 C4451 1.369 . S
C4450 C4454 1.531 . S
C4451 C4450 1.369 . S
C4451 C4452 1.410 . S
C4451 C4459 1.503 . S
C4452 C4451 1.410 . S
C4452 C4453 1.392 . S
C4452 C4455 1.511 . S
C4453 C4449 1.376 . S
C4453 C4452 1.392 . S
C4453 H4465 0.929 . S
C4454 C4450 1.531 . S
C4454 H4466 0.960 . S
C4454 H4467 0.962 . S
C4454 H4468 0.960 . S
C4455 C4452 1.511 . S
C4455 H4469 0.961 . S
C4455 H4470 0.961 . S
C4455 H4471 0.961 . S
C4456 C4457 1.370 . S
C4456 C4458 1.363 . S
C4456 H4472 0.931 . S
C4457 C4456 1.370 . S
C4457 C4461 1.408 . S
C4458 C4456 1.363 . S
C4458 C4459 1.370 . S
C4458 C4462 1.524 . S
C4459 C4451 1.503 . S
C4459 C4458 1.370 . S
C4459 C4460 1.403 . S
C4460 C4459 1.403 . S
C4460 C4461 1.404 . S
C4460 C4463 1.539 . S
C4461 C4457 1.408 . S
C4461 C4460 1.404 . S
C4461 H4473 0.930 . S
C4462 C4458 1.524 . S
C4462 H4474 0.956 . S
C4462 H4475 0.961 . S
C4462 H4476 0.961 . S
C4463 C4460 1.539 . S
C4463 H4477 0.958 . S
C4463 H4478 0.961 . S
C4463 H4479 0.960 . S
H4464 C4448 0.931 . S
H4465 C4453 0.929 . S
H4466 C4454 0.960 . S
H4467 C4454 0.962 . S
H4468 C4454 0.960 . S
H4469 C4455 0.961 . S
H4470 C4455 0.961 . S
H4471 C4455 0.961 . S
H4472 C4456 0.931 . S
H4473 C4461 0.930 . S
H4474 C4462 0.956 . S
H4475 C4462 0.961 . S
H4476 C4462 0.961 . S
H4477 C4463 0.958 . S
H4478 C4463 0.961 . S
H4479 C4463 0.960 . S
C4480 C4481 1.391 . S
C4480 C4482 1.394 . S
C4480 H4496 0.931 . S
C4481 C4480 1.391 . S
C4481 C4485 1.376 . S
C4482 C4480 1.394 . S
C4482 C4483 1.369 . S
C4482 C4486 1.531 . S
C4483 C4482 1.369 . S
C4483 C4484 1.410 . S
C4483 C4491 1.503 . S
C4484 C4483 1.410 . S
C4484 C4485 1.392 . S
C4484 C4487 1.511 . S
C4485 C4481 1.376 . S
C4485 C4484 1.392 . S
C4485 H4497 0.929 . S
C4486 C4482 1.531 . S
C4486 H4498 0.960 . S
C4486 H4499 0.962 . S
C4486 H4500 0.960 . S
C4487 C4484 1.511 . S
C4487 H4501 0.961 . S
C4487 H4502 0.961 . S
C4487 H4503 0.961 . S
C4488 C4489 1.370 . S
C4488 C4490 1.363 . S
C4488 H4504 0.931 . S
C4489 C4488 1.370 . S
C4489 C4493 1.408 . S
C4490 C4488 1.363 . S
C4490 C4491 1.370 . S
C4490 C4494 1.524 . S
C4491 C4483 1.503 . S
C4491 C4490 1.370 . S
C4491 C4492 1.403 . S
C4492 C4491 1.403 . S
C4492 C4493 1.404 . S
C4492 C4495 1.539 . S
C4493 C4489 1.408 . S
C4493 C4492 1.404 . S
C4493 H4505 0.930 . S
C4494 C4490 1.524 . S
C4494 H4506 0.956 . S
C4494 H4507 0.961 . S
C4494 H4508 0.961 . S
C4495 C4492 1.539 . S
C4495 H4509 0.958 . S
C4495 H4510 0.961 . S
C4495 H4511 0.960 . S
H4496 C4480 0.931 . S
H4497 C4485 0.929 . S
H4498 C4486 0.960 . S
H4499 C4486 0.962 . S
H4500 C4486 0.960 . S
H4501 C4487 0.961 . S
H4502 C4487 0.961 . S
H4503 C4487 0.961 . S
H4504 C4488 0.931 . S
H4505 C4493 0.930 . S
H4506 C4494 0.956 . S
H4507 C4494 0.961 . S
H4508 C4494 0.961 . S
H4509 C4495 0.958 . S
H4510 C4495 0.961 . S
H4511 C4495 0.960 . S
C4512 C4513 1.391 1_565 S
C4512 C4514 1.394 . S
C4512 H4528 0.944 . S
C4513 C4512 1.391 1_545 S
C4513 C4517 1.376 1_545 S
C4514 C4512 1.394 . S
C4514 C4515 1.369 . S
C4514 C4518 1.531 . S
C4515 C4514 1.369 . S
C4515 C4516 1.410 . S
C4515 C4523 1.503 . S
C4516 C4515 1.410 . S
C4516 C4517 1.392 . S
C4516 C4519 1.511 . S
C4517 C4513 1.376 1_565 S
C4517 C4516 1.392 . S
C4517 H4529 0.929 . S
C4518 C4514 1.531 . S
C4518 H4530 0.960 . S
C4518 H4531 0.962 . S
C4518 H4532 0.960 . S
C4519 C4516 1.511 . S
C4519 H4533 0.961 . S
C4519 H4534 0.961 . S
C4519 H4535 0.961 . S
C4520 C4521 1.370 . S
C4520 C4522 1.363 . S
C4520 H4536 0.931 . S
C4521 C4520 1.370 . S
C4521 C4525 1.408 . S
C4522 C4520 1.363 . S
C4522 C4523 1.370 . S
C4522 C4526 1.524 . S
C4523 C4515 1.503 . S
C4523 C4522 1.370 . S
C4523 C4524 1.403 . S
C4524 C4523 1.403 . S
C4524 C4525 1.404 . S
C4524 C4527 1.539 . S
C4525 C4521 1.408 . S
C4525 C4524 1.404 . S
C4525 H4537 0.930 . S
C4526 C4522 1.524 . S
C4526 H4538 0.956 . S
C4526 H4539 0.961 . S
C4526 H4540 0.961 . S
C4527 C4524 1.539 . S
C4527 H4541 0.958 . S
C4527 H4542 0.961 . S
C4527 H4543 0.960 . S
H4528 C4512 0.944 . S
H4529 C4517 0.929 . S
H4530 C4518 0.960 . S
H4531 C4518 0.962 . S
H4532 C4518 0.960 . S
H4533 C4519 0.961 . S
H4534 C4519 0.961 . S
H4535 C4519 0.961 . S
H4536 C4520 0.931 . S
H4537 C4525 0.930 . S
H4538 C4526 0.956 . S
H4539 C4526 0.961 . S
H4540 C4526 0.961 . S
H4541 C4527 0.958 . S
H4542 C4527 0.961 . S
H4543 C4527 0.960 . S
C4544 C4545 1.391 . S
C4544 C4546 1.394 . S
C4544 H4560 0.931 . S
C4545 C4544 1.391 . S
C4545 C4549 1.376 . S
C4546 C4544 1.394 . S
C4546 C4547 1.369 . S
C4546 C4550 1.531 . S
C4547 C4546 1.369 . S
C4547 C4548 1.410 . S
C4547 C4555 1.503 . S
C4548 C4547 1.410 . S
C4548 C4549 1.392 . S
C4548 C4551 1.511 . S
C4549 C4545 1.376 . S
C4549 C4548 1.392 . S
C4549 H4561 0.929 . S
C4550 C4546 1.531 . S
C4550 H4562 0.960 . S
C4550 H4563 0.962 . S
C4550 H4564 0.960 . S
C4551 C4548 1.511 . S
C4551 H4565 0.961 . S
C4551 H4566 0.961 . S
C4551 H4567 0.961 . S
C4552 C4553 1.370 . S
C4552 C4554 1.363 . S
C4552 H4568 0.931 . S
C4553 C4552 1.370 . S
C4553 C4557 1.408 . S
C4554 C4552 1.363 . S
C4554 C4555 1.370 . S
C4554 C4558 1.524 . S
C4555 C4547 1.503 . S
C4555 C4554 1.370 . S
C4555 C4556 1.403 . S
C4556 C4555 1.403 . S
C4556 C4557 1.404 . S
C4556 C4559 1.539 . S
C4557 C4553 1.408 . S
C4557 C4556 1.404 . S
C4557 H4569 0.930 . S
C4558 C4554 1.524 . S
C4558 H4570 0.956 . S
C4558 H4571 0.961 . S
C4558 H4572 0.961 . S
C4559 C4556 1.539 . S
C4559 H4573 0.958 . S
C4559 H4574 0.961 . S
C4559 H4575 0.960 . S
H4560 C4544 0.931 . S
H4561 C4549 0.929 . S
H4562 C4550 0.960 . S
H4563 C4550 0.962 . S
H4564 C4550 0.960 . S
H4565 C4551 0.961 . S
H4566 C4551 0.961 . S
H4567 C4551 0.961 . S
H4568 C4552 0.931 . S
H4569 C4557 0.930 . S
H4570 C4558 0.956 . S
H4571 C4558 0.961 . S
H4572 C4558 0.961 . S
H4573 C4559 0.958 . S
H4574 C4559 0.961 . S
H4575 C4559 0.960 . S
C1505 C255 1.253 . S
C1513 C870 1.259 . S
C1537 C147 1.941 . S
C1545 C922 1.801 . S
C1569 C184 1.341 . S
C1577 C954 1.364 . S
C1609 C1003 2.511 . S
C1601 C220 2.480 . S
C1633 C40 0.918 . S
C1641 C1039 0.983 . S
C1673 C1070 0.556 . S
C1665 C74 0.507 . S
C1705 C1122 0.335 . S
C1697 C110 0.308 . S
C1729 C14 1.544 . S
C1737 C1150 1.495 . S
C1769 C882 1.955 . S
C1761 C579 2.089 . S
C1793 C616 1.687 . S
C1801 C923 1.755 . S
C1833 C953 1.907 . S
C1825 C687 2.025 1_545 S
C1865 C990 0.536 . S
C1857 C436 0.549 . S
C1889 C580 1.861 . S
C1897 C1034 1.877 1_655 S
C1929 C1082 1.982 . S
C1921 C615 2.021 . S
C1961 C1123 1.704 1_556 S
C1953 C688 1.645 . S
C1993 C1162 1.601 . S
C1985 C435 1.789 . S
C2025 C883 2.293 . S
C2017 C410 2.190 . S
C2049 C722 1.691 1_554 S
C2057 C1193 1.679 . S
C2089 C1243 2.544 . S
C2081 C842 2.517 . S
C2121 C1270 1.043 . S
C2113 C794 1.059 . S
C2145 C302 2.518 . S
C2153 C1163 2.556 . S
C2177 C338 1.380 . S
C2185 C959 1.212 . S
C2209 C830 2.618 . S
C2217 C1322 2.543 . S
C2249 C1350 1.163 . S
C2241 C758 1.219 . S
C2281 C879 1.302 . S
C2273 C158 1.238 . S
C2313 C1353 1.846 . S
C2305 C254 1.936 1_655 S
C2337 C218 1.319 . S
C2345 C963 1.333 . S
C2369 C194 2.475 . S
C2377 C1314 2.481 . S
C2409 C1030 0.977 . S
C2401 C3 1.010 . S
C2433 C111 0.426 . S
C2441 C1239 0.505 . S
C2473 C1113 0.425 . S
C2465 C76 0.536 . S
C2505 C1399 1.495 . S
C2497 C50 1.452 . S
C2537 C873 1.909 1_556 S
C2529 C364 2.070 . S
C2569 C1354 1.699 . S
C2561 C795 1.710 . S
C2593 C292 1.928 . S
C2601 C962 1.806 . S
C2625 C723 0.538 . S
C2633 C1319 0.539 . S
C2657 C363 1.846 . S
C2665 C1043 1.847 . S
C2697 C1233 1.972 . S
C2689 C796 1.977 . S
C2721 C291 1.649 . S
C2729 C1114 1.635 . S
C2753 C724 1.852 . S
C2761 C1393 1.690 . S
C2785 C482 2.168 . S
C2793 C874 2.274 . S
C2817 C434 1.672 . S
C2825 C1202 1.680 . S
C2849 C662 2.366 . S
C2857 C1074 2.455 . S
C2881 C614 1.031 . S
C2889 C1279 1.021 . S
C2921 C1394 2.547 . S
C2913 C698 2.438 . S
C2945 C554 1.111 1_545 S
C2953 C950 1.239 . S
C2985 C993 2.448 . S
C2977 C650 2.521 . S
C3017 C919 1.192 . S
C3009 C506 1.263 . S
C3041 C183 1.313 . S
C3049 C1430 1.221 . S
C3081 C1362 1.809 . S
C3073 C219 1.950 . S
C3105 C256 1.344 . S
C3113 C1474 1.366 . S
C3137 C148 2.488 . S
C3145 C1323 2.502 . S
C3169 C122 1.076 . S
C3177 C1199 1.015 . S
C3209 C1230 0.527 . S
C3201 C2 0.482 . S
C3241 C1282 0.314 . S
C3233 C39 0.249 . S
C3273 C1390 1.353 . S
C3265 C86 1.458 . S
C3305 C1442 1.974 . S
C3297 C651 2.093 . S
C3329 C472 1.709 1_556 S
C3337 C1363 1.761 . S
C3369 C1473 1.899 . S
C3361 C507 2.005 . S
C3401 C1310 0.547 . S
C3393 C544 0.557 . S
C3433 C1194 1.904 1_556 S
C3425 C652 1.875 . S
C3457 C471 2.006 . S
C3465 C1242 1.962 . S
C3497 C1283 1.670 . S
C3489 C508 1.669 . S
C3521 C543 1.726 . S
C3529 C1402 1.641 . S
C3561 C1443 2.316 . S
C3553 C806 2.212 . S
C3585 C326 1.654 . S
C3593 C1033 1.655 . S
C3625 C1083 2.503 . S
C3617 C374 2.438 1_565 S
C3657 C1110 1.070 . S
C3649 C398 1.080 . S
C3689 C1403 2.531 . S
C3681 C770 2.460 . S
C3713 C734 1.332 1_554 S
C3721 C1479 1.238 . S
C3753 C1002 2.545 . S
C3745 C362 2.617 . S
C3785 C910 1.181 . S
C3777 C290 1.213 . S
C3809 C230 1.304 . S
C3817 C1439 1.259 . S
C3849 C913 1.851 . S
C3841 C182 1.944 . S
C3873 C146 1.326 . S
C3881 C1483 1.335 . S
C3905 C266 2.464 . S
C3913 C994 2.482 . S
C3937 C75 1.016 . S
C3945 C1190 1.032 . S
C3977 C1079 0.553 . S
C3969 C38 0.423 . S
C4001 C4 0.562 . S
C4009 C1273 0.406 . S
C4033 C112 1.493 . S
C4041 C1159 1.411 . S
C4073 C1433 1.909 . S
C4065 C832 2.079 . S
C4097 C399 1.692 . S
C4105 C914 1.728 . S
C4137 C1482 1.789 1_556 S
C4129 C760 1.903 . S
C4161 C327 0.463 . S
C4169 C999 0.586 . S
C4193 C831 1.877 . S
C4201 C1203 1.889 . S
C4233 C1073 1.955 . S
C4225 C400 1.977 1_556 S
C4257 C759 1.668 . S
C4265 C1274 1.658 . S
C4297 C1153 1.631 . S
C4289 C328 1.849 . S
C4329 C1434 2.291 . S
C4321 C626 2.200 . S
C4361 C1042 1.619 . S
C4353 C542 1.639 1_545 S
C4385 C590 2.335 . S
C4393 C1234 2.415 . S
C4425 C1119 1.025 . S
C4417 C470 1.032 . S
C4449 C518 2.364 . S
C4457 C1154 2.498 . S
C4481 C446 1.098 . S
C4489 C1470 1.224 . S
C4521 C1313 2.477 . S
C4513 C578 2.559 . S
C4553 C1359 1.177 . S
C4545 C686 1.223 . S
