# Generated by pormake.
# Topology ocu, (6,8)-cn, num edge types: 1
# Building blocks:
#     Node 0, Type 0, BuildingBlock: KUMBOL_clean_sbu_1, # of connection points: 6
#     Node 1, Type 0, BuildingBlock: KUMBOL_clean_sbu_1, # of connection points: 6
#     Node 2, Type 0, BuildingBlock: KUMBOL_clean_sbu_1, # of connection points: 6
#     Node 3, Type 0, BuildingBlock: KUMBOL_clean_sbu_1, # of connection points: 6
#     Node 4, Type 0, BuildingBlock: KUMBOL_clean_sbu_1, # of connection points: 6
#     Node 5, Type 0, BuildingBlock: KUMBOL_clean_sbu_1, # of connection points: 6
#     Node 6, Type 0, BuildingBlock: KUMBOL_clean_sbu_1, # of connection points: 6
#     Node 7, Type 0, BuildingBlock: KUMBOL_clean_sbu_1, # of connection points: 6
#     Node 8, Type 1, BuildingBlock: AJUNOK_clean_sbu_0, # of connection points: 8
#     Node 9, Type 1, BuildingBlock: AJUNOK_clean_sbu_0, # of connection points: 8
#     Node 10, Type 1, BuildingBlock: AJUNOK_clean_sbu_0, # of connection points: 8
#     Node 11, Type 1, BuildingBlock: AJUNOK_clean_sbu_0, # of connection points: 8
#     Node 12, Type 1, BuildingBlock: AJUNOK_clean_sbu_0, # of connection points: 8
#     Node 13, Type 1, BuildingBlock: AJUNOK_clean_sbu_0, # of connection points: 8
#     Edge 14, Type (0, 1), BuildingBlock: ZUJKAS_clean_linker_0, # of connection points: 2
#     Edge 15, Type (0, 1), BuildingBlock: ZUJKAS_clean_linker_0, # of connection points: 2
#     Edge 16, Type (0, 1), BuildingBlock: ZUJKAS_clean_linker_0, # of connection points: 2
#     Edge 17, Type (0, 1), BuildingBlock: ZUJKAS_clean_linker_0, # of connection points: 2
#     Edge 18, Type (0, 1), BuildingBlock: ZUJKAS_clean_linker_0, # of connection points: 2
#     Edge 19, Type (0, 1), BuildingBlock: ZUJKAS_clean_linker_0, # of connection points: 2
#     Edge 20, Type (0, 1), BuildingBlock: ZUJKAS_clean_linker_0, # of connection points: 2
#     Edge 21, Type (0, 1), BuildingBlock: ZUJKAS_clean_linker_0, # of connection points: 2
#     Edge 22, Type (0, 1), BuildingBlock: ZUJKAS_clean_linker_0, # of connection points: 2
#     Edge 23, Type (0, 1), BuildingBlock: ZUJKAS_clean_linker_0, # of connection points: 2
#     Edge 24, Type (0, 1), BuildingBlock: ZUJKAS_clean_linker_0, # of connection points: 2
#     Edge 25, Type (0, 1), BuildingBlock: ZUJKAS_clean_linker_0, # of connection points: 2
#     Edge 26, Type (0, 1), BuildingBlock: ZUJKAS_clean_linker_0, # of connection points: 2
#     Edge 27, Type (0, 1), BuildingBlock: ZUJKAS_clean_linker_0, # of connection points: 2
#     Edge 28, Type (0, 1), BuildingBlock: ZUJKAS_clean_linker_0, # of connection points: 2
#     Edge 29, Type (0, 1), BuildingBlock: ZUJKAS_clean_linker_0, # of connection points: 2
#     Edge 30, Type (0, 1), BuildingBlock: ZUJKAS_clean_linker_0, # of connection points: 2
#     Edge 31, Type (0, 1), BuildingBlock: ZUJKAS_clean_linker_0, # of connection points: 2
#     Edge 32, Type (0, 1), BuildingBlock: ZUJKAS_clean_linker_0, # of connection points: 2
#     Edge 33, Type (0, 1), BuildingBlock: ZUJKAS_clean_linker_0, # of connection points: 2
#     Edge 34, Type (0, 1), BuildingBlock: ZUJKAS_clean_linker_0, # of connection points: 2
#     Edge 35, Type (0, 1), BuildingBlock: ZUJKAS_clean_linker_0, # of connection points: 2
#     Edge 36, Type (0, 1), BuildingBlock: ZUJKAS_clean_linker_0, # of connection points: 2
#     Edge 37, Type (0, 1), BuildingBlock: ZUJKAS_clean_linker_0, # of connection points: 2
#     Edge 38, Type (0, 1), BuildingBlock: ZUJKAS_clean_linker_0, # of connection points: 2
#     Edge 39, Type (0, 1), BuildingBlock: ZUJKAS_clean_linker_0, # of connection points: 2
#     Edge 40, Type (0, 1), BuildingBlock: ZUJKAS_clean_linker_0, # of connection points: 2
#     Edge 41, Type (0, 1), BuildingBlock: ZUJKAS_clean_linker_0, # of connection points: 2
#     Edge 42, Type (0, 1), BuildingBlock: ZUJKAS_clean_linker_0, # of connection points: 2
#     Edge 43, Type (0, 1), BuildingBlock: ZUJKAS_clean_linker_0, # of connection points: 2
#     Edge 44, Type (0, 1), BuildingBlock: ZUJKAS_clean_linker_0, # of connection points: 2
#     Edge 45, Type (0, 1), BuildingBlock: ZUJKAS_clean_linker_0, # of connection points: 2
#     Edge 46, Type (0, 1), BuildingBlock: ZUJKAS_clean_linker_0, # of connection points: 2
#     Edge 47, Type (0, 1), BuildingBlock: ZUJKAS_clean_linker_0, # of connection points: 2
#     Edge 48, Type (0, 1), BuildingBlock: ZUJKAS_clean_linker_0, # of connection points: 2
#     Edge 49, Type (0, 1), BuildingBlock: ZUJKAS_clean_linker_0, # of connection points: 2
#     Edge 50, Type (0, 1), BuildingBlock: ZUJKAS_clean_linker_0, # of connection points: 2
#     Edge 51, Type (0, 1), BuildingBlock: ZUJKAS_clean_linker_0, # of connection points: 2
#     Edge 52, Type (0, 1), BuildingBlock: ZUJKAS_clean_linker_0, # of connection points: 2
#     Edge 53, Type (0, 1), BuildingBlock: ZUJKAS_clean_linker_0, # of connection points: 2
#     Edge 54, Type (0, 1), BuildingBlock: ZUJKAS_clean_linker_0, # of connection points: 2
#     Edge 55, Type (0, 1), BuildingBlock: ZUJKAS_clean_linker_0, # of connection points: 2
#     Edge 56, Type (0, 1), BuildingBlock: ZUJKAS_clean_linker_0, # of connection points: 2
#     Edge 57, Type (0, 1), BuildingBlock: ZUJKAS_clean_linker_0, # of connection points: 2
#     Edge 58, Type (0, 1), BuildingBlock: ZUJKAS_clean_linker_0, # of connection points: 2
#     Edge 59, Type (0, 1), BuildingBlock: ZUJKAS_clean_linker_0, # of connection points: 2
#     Edge 60, Type (0, 1), BuildingBlock: ZUJKAS_clean_linker_0, # of connection points: 2
#     Edge 61, Type (0, 1), BuildingBlock: ZUJKAS_clean_linker_0, # of connection points: 2
# Relax obj value: 0.122
# Max RMSD: 0.192
# Mean RMSD: 0.162
data_MOF--net-ocu--node1-KUMBOL_clean_sbu_1--node2-AJUNOK_clean_sbu_0--edge1-ZUJKAS_clean_linker_0
_symmetry_space_group_name_H-M    P1
_symmetry_Int_Tables_number       1
_symmetry_cell_setting            triclinic
loop_
_symmetry_equiv_pos_as_xyz
'x, y, z'
_cell_length_a     54.469033
_cell_length_b     55.276328
_cell_length_c     48.564468
_cell_angle_alpha  102.93259
_cell_angle_beta   87.865966
_cell_angle_gamma 109.47892
loop_
_atom_site_label
_atom_site_type_symbol
_atom_site_fract_x
_atom_site_fract_y
_atom_site_fract_z
_atom_type_partial_charge
C0 C 0.28165 0.28079 0.34494 0.0
C1 C 0.25194 0.25273 0.37234 0.0
C2 C 0.26467 0.2562 0.34697 0.0
C3 C 0.25614 0.27442 0.39534 0.0
C4 C 0.2863 0.30251 0.36811 0.0
C5 C 0.27332 0.29923 0.39325 0.0
N6 N 0.29334 0.28351 0.32003 0.0
C7 C 0.31098 0.30701 0.31733 0.0
C8 C 0.30382 0.32688 0.36525 0.0
C9 C 0.3163 0.32909 0.33981 0.0
Gd10 Gd 0.24466 0.24931 0.21584 0.0
Gd11 Gd 0.28464 0.24493 0.28449 0.0
N12 N 0.26114 0.23556 0.32444 0.0
C13 C 0.23579 0.22743 0.37401 0.0
C14 C 0.24666 0.21068 0.32653 0.0
C15 C 0.23345 0.20625 0.35112 0.0
H16 H 0.24618 0.19415 0.30967 0.0
H17 H 0.22186 0.18646 0.35258 0.0
H18 H 0.29078 0.27522 0.17356 0.0
H19 H 0.32103 0.30871 0.29792 0.0
H20 H 0.30866 0.26111 0.12744 0.0
H21 H 0.22567 0.22392 0.39312 0.0
H22 H 0.24646 0.27215 0.41496 0.0
H23 H 0.18352 0.20532 0.21426 0.0
H24 H 0.30794 0.34405 0.38258 0.0
H25 H 0.33012 0.34778 0.33755 0.0
H26 H 0.25325 0.17161 0.09341 0.0
H27 H 0.27652 0.31572 0.41124 0.0
H28 H 0.17669 0.14023 0.14462 0.0
H29 H 0.15831 0.16115 0.18693 0.0
N30 N 0.21723 0.20837 0.18961 0.0
C31 C 0.22689 0.198 0.16534 0.0
C32 C 0.19234 0.19602 0.19658 0.0
C33 C 0.18818 0.15938 0.15698 0.0
C34 C 0.17775 0.17112 0.18085 0.0
C35 C 0.21271 0.17314 0.14846 0.0
H36 H 0.21241 0.1442 0.10996 0.0
N37 N 0.26236 0.23768 0.17206 0.0
C38 C 0.24997 0.21329 0.15605 0.0
C39 C 0.28115 0.22161 0.11963 0.0
C40 C 0.25937 0.20436 0.12963 0.0
C41 C 0.28232 0.25529 0.16149 0.0
C42 C 0.29233 0.24738 0.13537 0.0
O43 O 0.26097 0.27343 0.29232 0.0
O44 O 0.22669 0.25696 0.2586 0.0
O45 O 0.25161 0.28688 0.20486 0.0
O46 O 0.21363 0.2574 0.19633 0.0
O47 O 0.25069 0.20916 0.26362 0.0
O48 O 0.22131 0.22432 0.24537 0.0
O49 O 0.27961 0.23457 0.20753 0.0
O50 O 0.27618 0.21379 0.24373 0.0
O51 O 0.29886 0.22098 0.30525 0.0
O52 O 0.32623 0.25167 0.28794 0.0
O53 O 0.27603 0.28184 0.24373 0.0
O54 O 0.30882 0.26914 0.25523 0.0
C55 C 0.23744 0.2714 0.28354 0.0
C56 C 0.22669 0.20769 0.25786 0.0
C57 C 0.21581 0.30183 0.20998 0.0
C58 C 0.1916 0.33125 0.2063 0.0
C59 C 0.20756 0.33057 0.25218 0.0
C60 C 0.21872 0.31184 0.23928 0.0
C61 C 0.19399 0.34014 0.23593 0.0
C62 C 0.20231 0.31162 0.19344 0.0
C63 C 0.22754 0.28175 0.19691 0.0
C64 C 0.24614 0.17899 0.11358 0.0
C65 C 0.22289 0.16338 0.12302 0.0
H66 H 0.28892 0.21552 0.0994 0.0
C67 C 0.28568 0.21796 0.21937 0.0
C68 C 0.30049 0.28365 0.24259 0.0
C69 C 0.34039 0.24068 0.32773 0.0
C70 C 0.36667 0.22765 0.35759 0.0
C71 C 0.3606 0.27035 0.37178 0.0
C72 C 0.34519 0.26477 0.34731 0.0
C73 C 0.37124 0.25194 0.37698 0.0
C74 C 0.35121 0.22224 0.3329 0.0
C75 C 0.32324 0.23375 0.30245 0.0
H76 H 0.20959 0.33781 0.27485 0.0
H77 H 0.22988 0.30533 0.25213 0.0
H78 H 0.18538 0.35457 0.24666 0.0
H79 H 0.20077 0.30445 0.17068 0.0
H80 H 0.36426 0.28899 0.38682 0.0
H81 H 0.33698 0.27919 0.3438 0.0
H82 H 0.38326 0.25683 0.39602 0.0
H83 H 0.34709 0.20345 0.31795 0.0
C84 C 0.82936 0.22711 0.18211 0.0
C85 C 0.86878 0.26522 0.19082 0.0
C86 C 0.84505 0.24982 0.19996 0.0
C87 C 0.87573 0.25819 0.16277 0.0
C88 C 0.837 0.21909 0.15445 0.0
C89 C 0.85984 0.23518 0.14459 0.0
N90 N 0.80769 0.21185 0.19254 0.0
C91 C 0.79458 0.18697 0.17755 0.0
C92 C 0.82206 0.19465 0.13799 0.0
C93 C 0.80107 0.17828 0.14983 0.0
Gd94 Gd 0.73928 0.26158 0.23378 0.0
Gd95 Gd 0.79673 0.2298 0.2382 0.0
N96 N 0.83758 0.25622 0.22678 0.0
C97 C 0.88504 0.28683 0.21038 0.0
C98 C 0.85392 0.27632 0.24641 0.0
C99 C 0.87776 0.29213 0.23843 0.0
H100 H 0.84809 0.2805 0.26799 0.0
H101 H 0.89042 0.30847 0.25383 0.0
H102 H 0.70334 0.22213 0.17509 0.0
H103 H 0.77902 0.1737 0.18687 0.0
H104 H 0.66296 0.18398 0.16349 0.0
H105 H 0.90346 0.29916 0.20421 0.0
H106 H 0.89369 0.27 0.15518 0.0
H107 H 0.73476 0.2926 0.29998 0.0
H108 H 0.82723 0.18777 0.11662 0.0
H109 H 0.79007 0.15885 0.13775 0.0
H110 H 0.62398 0.17818 0.25313 0.0
H111 H 0.86585 0.22953 0.12328 0.0
H112 H 0.66486 0.24726 0.33327 0.0
H113 H 0.70508 0.28619 0.33965 0.0
N114 N 0.71144 0.25783 0.27183 0.0
C115 C 0.68886 0.23712 0.26744 0.0
C116 C 0.71701 0.27587 0.29703 0.0
C117 C 0.67767 0.25016 0.31581 0.0
C118 C 0.70034 0.27219 0.31948 0.0
C119 C 0.67152 0.23246 0.28944 0.0
H120 H 0.63497 0.20658 0.30095 0.0
N121 N 0.69933 0.22734 0.21963 0.0
C122 C 0.68282 0.22113 0.24058 0.0
C123 C 0.65233 0.18595 0.20692 0.0
C124 C 0.659 0.20007 0.23488 0.0
C125 C 0.69168 0.2153 0.19206 0.0
C126 C 0.66849 0.19398 0.18534 0.0
O127 O 0.80512 0.2692 0.22648 0.0
O128 O 0.76868 0.26235 0.20009 0.0
O129 O 0.71279 0.27617 0.21529 0.0
O130 O 0.74871 0.30346 0.23661 0.0
O131 O 0.79495 0.26121 0.27622 0.0
O132 O 0.77313 0.28773 0.26423 0.0
O133 O 0.74251 0.24298 0.26997 0.0
O134 O 0.75528 0.20865 0.24725 0.0
O135 O 0.80982 0.22716 0.27876 0.0
O136 O 0.81492 0.20077 0.24081 0.0
O137 O 0.74686 0.23366 0.195 0.0
O138 O 0.75897 0.20426 0.21355 0.0
C139 C 0.79394 0.27243 0.2048 0.0
C140 C 0.78896 0.28304 0.2808 0.0
C141 C 0.71355 0.31953 0.23515 0.0
C142 C 0.68842 0.34648 0.22621 0.0
C143 C 0.70135 0.3485 0.27435 0.0
C144 C 0.71377 0.33004 0.26427 0.0
C145 C 0.68881 0.35675 0.2555 0.0
C146 C 0.70079 0.32771 0.21626 0.0
C147 C 0.72714 0.30071 0.22365 0.0
C148 C 0.64221 0.19447 0.25703 0.0
C149 C 0.64843 0.21068 0.28425 0.0
H150 H 0.63424 0.16961 0.20165 0.0
C151 C 0.74246 0.21886 0.26718 0.0
C152 C 0.74842 0.21009 0.19311 0.0
C153 C 0.80596 0.1845 0.28229 0.0
C154 C 0.81135 0.15984 0.31627 0.0
C155 C 0.76947 0.14804 0.29148 0.0
C156 C 0.77996 0.16804 0.27696 0.0
C157 C 0.78495 0.144 0.3111 0.0
C158 C 0.82164 0.1803 0.30179 0.0
C159 C 0.81652 0.2066 0.26828 0.0
H160 H 0.70155 0.35654 0.29685 0.0
H161 H 0.72372 0.32422 0.27916 0.0
H162 H 0.67922 0.371 0.26387 0.0
H163 H 0.70102 0.31988 0.19372 0.0
H164 H 0.74928 0.13561 0.28753 0.0
H165 H 0.7678 0.17076 0.26163 0.0
H166 H 0.77617 0.12851 0.32228 0.0
H167 H 0.84188 0.19275 0.30531 0.0
C168 C 0.80402 0.76617 0.16898 0.0
C169 C 0.77942 0.74474 0.1245 0.0
C170 C 0.78026 0.75331 0.15417 0.0
C171 C 0.80281 0.74856 0.11013 0.0
C172 C 0.82753 0.77059 0.15465 0.0
C173 C 0.82681 0.76145 0.12517 0.0
N174 N 0.8041 0.77421 0.19755 0.0
C175 C 0.82681 0.78849 0.21291 0.0
C176 C 0.85103 0.78419 0.17039 0.0
C177 C 0.85064 0.79341 0.19961 0.0
Gd178 Gd 0.74933 0.70965 0.26666 0.0
Gd179 Gd 0.76329 0.76502 0.2179 0.0
N180 N 0.75798 0.74986 0.16867 0.0
C181 C 0.75508 0.73306 0.11012 0.0
C182 C 0.73427 0.73995 0.15466 0.0
C183 C 0.73244 0.73102 0.12525 0.0
H184 H 0.71678 0.73927 0.16615 0.0
H185 H 0.71362 0.72288 0.11421 0.0
H186 H 0.77381 0.74499 0.3304 0.0
H187 H 0.82651 0.79575 0.23546 0.0
H188 H 0.75776 0.76128 0.37695 0.0
H189 H 0.75357 0.72622 0.08733 0.0
H190 H 0.80255 0.74194 0.08736 0.0
H191 H 0.69621 0.66174 0.22986 0.0
H192 H 0.86952 0.78798 0.16016 0.0
H193 H 0.86867 0.80432 0.21188 0.0
H194 H 0.66452 0.72577 0.36364 0.0
H195 H 0.84467 0.7645 0.11377 0.0
H196 H 0.62888 0.66594 0.27581 0.0
H197 H 0.64873 0.64704 0.2335 0.0
N198 N 0.70359 0.6913 0.26827 0.0
C199 C 0.69316 0.70051 0.29266 0.0
C200 C 0.68803 0.67133 0.24784 0.0
C201 C 0.64985 0.67308 0.27404 0.0
C202 C 0.66097 0.66242 0.25008 0.0
C203 C 0.66598 0.69186 0.29603 0.0
H204 H 0.63498 0.69534 0.32432 0.0
N205 N 0.73587 0.72543 0.31135 0.0
C206 C 0.70976 0.71762 0.31501 0.0
C207 C 0.71725 0.74277 0.36335 0.0
C208 C 0.69972 0.72658 0.34099 0.0
C209 C 0.75312 0.74002 0.3334 0.0
C210 C 0.74408 0.74919 0.35965 0.0
O211 O 0.78954 0.73929 0.21138 0.0
O212 O 0.76752 0.69976 0.22475 0.0
O213 O 0.77845 0.70137 0.28915 0.0
O214 O 0.7411 0.67149 0.27697 0.0
O215 O 0.72553 0.7311 0.21409 0.0
O216 O 0.73399 0.69486 0.22116 0.0
O217 O 0.74158 0.74863 0.28284 0.0
O218 O 0.72663 0.75326 0.24204 0.0
O219 O 0.74984 0.79 0.19744 0.0
O220 O 0.77352 0.80683 0.23612 0.0
O221 O 0.78865 0.74039 0.26748 0.0
O222 O 0.78353 0.77849 0.26115 0.0
C223 C 0.78606 0.71436 0.21123 0.0
C224 C 0.72377 0.7063 0.20594 0.0
C225 C 0.77778 0.65745 0.27544 0.0
C226 C 0.80859 0.63495 0.281 0.0
C227 C 0.78745 0.62756 0.23513 0.0
C228 C 0.77409 0.64478 0.24667 0.0
C229 C 0.8047 0.62279 0.25204 0.0
C230 C 0.79487 0.65225 0.29268 0.0
C231 C 0.76457 0.67677 0.28706 0.0
C232 C 0.67264 0.71886 0.34394 0.0
C233 C 0.65581 0.70158 0.32151 0.0
H234 H 0.7103 0.75003 0.38366 0.0
C235 C 0.72741 0.75805 0.26969 0.0
C236 C 0.79393 0.76591 0.27474 0.0
C237 C 0.74125 0.82555 0.2292 0.0
C238 C 0.71123 0.84853 0.22178 0.0
C239 C 0.72239 0.84714 0.26936 0.0
C240 C 0.73852 0.83261 0.25853 0.0
C241 C 0.70878 0.85495 0.25124 0.0
C242 C 0.72742 0.83354 0.21086 0.0
C243 C 0.7591 0.81072 0.21783 0.0
H244 H 0.78451 0.61796 0.21292 0.0
H245 H 0.76116 0.6485 0.23298 0.0
H246 H 0.81479 0.60928 0.24252 0.0
H247 H 0.79788 0.66201 0.31489 0.0
H248 H 0.7204 0.85237 0.29196 0.0
H249 H 0.74882 0.82692 0.27325 0.0
H250 H 0.69618 0.86597 0.26036 0.0
H251 H 0.72974 0.8286 0.18825 0.0
C252 C 0.31164 0.7208 0.29653 0.0
C253 C 0.28904 0.68415 0.31757 0.0
C254 C 0.28999 0.69941 0.29762 0.0
C255 C 0.30963 0.69215 0.33782 0.0
C256 C 0.3332 0.72796 0.31542 0.0
C257 C 0.33171 0.71409 0.33677 0.0
N258 N 0.31252 0.73302 0.27513 0.0
C259 C 0.3353 0.75094 0.26963 0.0
C260 C 0.35595 0.74794 0.31139 0.0
C261 C 0.35718 0.75909 0.288 0.0
Gd262 Gd 0.22603 0.76645 0.2616 0.0
Gd263 Gd 0.27375 0.72143 0.24783 0.0
N264 N 0.27096 0.69209 0.2773 0.0
C265 C 0.26806 0.66072 0.31566 0.0
C266 C 0.25149 0.66836 0.27404 0.0
C267 C 0.24947 0.65253 0.29343 0.0
H268 H 0.23695 0.66209 0.25704 0.0
H269 H 0.23352 0.63411 0.29128 0.0
H270 H 0.23184 0.79472 0.33128 0.0
H271 H 0.33619 0.75969 0.25164 0.0
H272 H 0.24657 0.83925 0.36223 0.0
H273 H 0.26658 0.64837 0.33052 0.0
H274 H 0.30912 0.68094 0.35362 0.0
H275 H 0.21114 0.77422 0.19934 0.0
H276 H 0.37294 0.75416 0.3255 0.0
H277 H 0.37491 0.774 0.28416 0.0
H278 H 0.26277 0.89689 0.29785 0.0
H279 H 0.34791 0.71948 0.35177 0.0
H280 H 0.23736 0.85666 0.20024 0.0
H281 H 0.21721 0.81026 0.17452 0.0
N282 N 0.22865 0.80001 0.23809 0.0
C283 C 0.2385 0.82523 0.25282 0.0
C284 C 0.22003 0.79445 0.21061 0.0
C285 C 0.2349 0.84093 0.21109 0.0
C286 C 0.22343 0.81478 0.19654 0.0
C287 C 0.24206 0.84646 0.2398 0.0
H288 H 0.25479 0.889 0.24646 0.0
N289 N 0.23726 0.80836 0.29308 0.0
C290 C 0.24296 0.82959 0.28145 0.0
C291 C 0.25308 0.85891 0.32766 0.0
C292 C 0.25116 0.85545 0.29829 0.0
C293 C 0.23752 0.81163 0.32185 0.0
C294 C 0.24586 0.83686 0.3395 0.0
O295 O 0.23515 0.70964 0.26918 0.0
O296 O 0.23141 0.7475 0.29658 0.0
O297 O 0.18861 0.77228 0.26529 0.0
O298 O 0.19043 0.7333 0.26197 0.0
O299 O 0.23101 0.70579 0.23523 0.0
O300 O 0.22485 0.73894 0.21927 0.0
O301 O 0.25103 0.76684 0.22311 0.0
O302 O 0.28855 0.76124 0.23654 0.0
O303 O 0.27518 0.71461 0.20199 0.0
O304 O 0.29176 0.69387 0.22445 0.0
O305 O 0.25744 0.77464 0.29512 0.0
O306 O 0.29119 0.76388 0.27147 0.0
C307 C 0.22992 0.72284 0.29338 0.0
C308 C 0.22235 0.71402 0.21558 0.0
C309 C 0.15871 0.74519 0.29088 0.0
C310 C 0.14976 0.76269 0.33971 0.0
C311 C 0.11599 0.72721 0.30871 0.0
C312 C 0.13314 0.72766 0.2866 0.0
C313 C 0.12397 0.74489 0.33484 0.0
C314 C 0.16723 0.76151 0.31769 0.0
C315 C 0.17587 0.74813 0.2669 0.0
C316 C 0.25619 0.87686 0.28534 0.0
C317 C 0.25165 0.87237 0.25609 0.0
H318 H 0.2593 0.87843 0.34136 0.0
C319 C 0.27626 0.77124 0.22175 0.0
C320 C 0.2821 0.77648 0.29337 0.0
C321 C 0.27223 0.67152 0.17934 0.0
C322 C 0.26935 0.64363 0.13201 0.0
C323 C 0.23879 0.62854 0.16744 0.0
C324 C 0.25096 0.65196 0.18703 0.0
C325 C 0.24796 0.62427 0.14017 0.0
C326 C 0.28112 0.66748 0.15179 0.0
C327 C 0.28534 0.69615 0.19986 0.0
H328 H 0.0961 0.71385 0.30524 0.0
H329 H 0.12631 0.71477 0.26606 0.0
H330 H 0.10945 0.74512 0.35059 0.0
H331 H 0.18733 0.774 0.32071 0.0
H332 H 0.22239 0.61349 0.17351 0.0
H333 H 0.24374 0.65486 0.20812 0.0
H334 H 0.23876 0.60546 0.12582 0.0
H335 H 0.29742 0.68283 0.14596 0.0
C336 C 0.34872 0.7624 0.71139 0.0
C337 C 0.37724 0.79693 0.74733 0.0
C338 C 0.35391 0.77564 0.73926 0.0
C339 C 0.39417 0.80589 0.72643 0.0
C340 C 0.36632 0.77015 0.69046 0.0
C341 C 0.38869 0.79253 0.69799 0.0
N342 N 0.32703 0.74088 0.70504 0.0
C343 C 0.32281 0.72471 0.67866 0.0
C344 C 0.36126 0.75468 0.66286 0.0
C345 C 0.33965 0.73157 0.65706 0.0
Gd346 Gd 0.24325 0.77122 0.74277 0.0
Gd347 Gd 0.29736 0.73288 0.74108 0.0
N348 N 0.33724 0.76609 0.75874 0.0
C349 C 0.38336 0.80771 0.77619 0.0
C350 C 0.34447 0.77473 0.78684 0.0
C351 C 0.3672 0.79612 0.79604 0.0
H352 H 0.33258 0.76536 0.80233 0.0
H353 H 0.37231 0.80351 0.8184 0.0
H354 H 0.18365 0.72623 0.72813 0.0
H355 H 0.30578 0.70715 0.67413 0.0
H356 H 0.14488 0.70625 0.75424 0.0
H357 H 0.40108 0.82411 0.78333 0.0
H358 H 0.412 0.82249 0.73215 0.0
H359 H 0.27115 0.83273 0.78115 0.0
H360 H 0.37424 0.76 0.64611 0.0
H361 H 0.33585 0.71917 0.63594 0.0
H362 H 0.16452 0.75809 0.84946 0.0
H363 H 0.4023 0.79909 0.68218 0.0
H364 H 0.23846 0.83753 0.86309 0.0
H365 H 0.27041 0.85778 0.83016 0.0
N366 N 0.24115 0.79829 0.78713 0.0
C367 C 0.22233 0.78763 0.80415 0.0
C368 C 0.25731 0.82373 0.79555 0.0
C369 C 0.23891 0.82642 0.84177 0.0
C370 C 0.25688 0.83796 0.8232 0.0
C371 C 0.22076 0.80123 0.83204 0.0
H372 H 0.19905 0.79975 0.87033 0.0
N373 N 0.20416 0.75346 0.7648 0.0
C374 C 0.20302 0.76435 0.7925 0.0
C375 C 0.16066 0.73208 0.79446 0.0
C376 C 0.18143 0.75381 0.80827 0.0
C377 C 0.183 0.73387 0.75058 0.0
C378 C 0.16118 0.72248 0.76531 0.0
O379 O 0.29257 0.7521 0.70597 0.0
O380 O 0.28502 0.78821 0.73219 0.0
O381 O 0.2353 0.77491 0.70071 0.0
O382 O 0.22393 0.79854 0.73702 0.0
O383 O 0.2898 0.75821 0.78206 0.0
O384 O 0.28282 0.79105 0.76557 0.0
O385 O 0.23047 0.73037 0.75166 0.0
O386 O 0.26689 0.73043 0.77388 0.0
O387 O 0.32082 0.71376 0.75793 0.0
O388 O 0.28751 0.69048 0.73011 0.0
O389 O 0.23535 0.73417 0.70838 0.0
O390 O 0.26433 0.71076 0.70848 0.0
C391 C 0.29403 0.77672 0.70958 0.0
C392 C 0.29002 0.7826 0.78604 0.0
C393 C 0.23652 0.81685 0.69719 0.0
C394 C 0.23148 0.84256 0.66423 0.0
C395 C 0.27224 0.85549 0.69154 0.0
C396 C 0.26188 0.83435 0.70455 0.0
C397 C 0.25721 0.8596 0.67148 0.0
C398 C 0.22137 0.82101 0.67713 0.0
C399 C 0.2259 0.79384 0.70975 0.0
C400 C 0.18073 0.76611 0.8368 0.0
C401 C 0.20039 0.78982 0.84868 0.0
H402 H 0.14372 0.7233 0.80581 0.0
C403 C 0.24162 0.72163 0.76891 0.0
C404 C 0.24381 0.71417 0.69833 0.0
C405 C 0.29465 0.67323 0.7682 0.0
C406 C 0.30217 0.6494 0.80209 0.0
C407 C 0.25832 0.64836 0.79234 0.0
C408 C 0.26784 0.66432 0.77317 0.0
C409 C 0.27529 0.64092 0.80672 0.0
C410 C 0.31178 0.6658 0.78287 0.0
C411 C 0.30465 0.69025 0.74785 0.0
H412 H 0.29195 0.86878 0.69705 0.0
H413 H 0.2736 0.83156 0.7203 0.0
H414 H 0.26575 0.87609 0.66161 0.0
H415 H 0.20158 0.80769 0.67201 0.0
H416 H 0.23766 0.64166 0.79598 0.0
H417 H 0.25414 0.66961 0.7622 0.0
H418 H 0.26739 0.62861 0.82162 0.0
H419 H 0.33242 0.67237 0.77894 0.0
C420 C 0.31957 0.28938 0.67682 0.0
C421 C 0.30781 0.26268 0.62898 0.0
C422 C 0.30115 0.27024 0.65717 0.0
C423 C 0.33316 0.27446 0.6207 0.0
C424 C 0.34487 0.30166 0.66824 0.0
C425 C 0.35161 0.29389 0.64025 0.0
N426 N 0.31259 0.29654 0.70393 0.0
C427 C 0.32932 0.31746 0.72249 0.0
C428 C 0.36256 0.32183 0.68784 0.0
C429 C 0.35462 0.32999 0.71493 0.0
Gd430 Gd 0.26271 0.22275 0.76898 0.0
Gd431 Gd 0.26914 0.27379 0.71308 0.0
N432 N 0.27683 0.25864 0.66579 0.0
C433 C 0.28874 0.24345 0.60989 0.0
C434 C 0.25803 0.24041 0.6472 0.0
C435 C 0.2637 0.23239 0.61902 0.0
H436 H 0.23862 0.23239 0.65406 0.0
H437 H 0.24874 0.21777 0.60434 0.0
H438 H 0.29185 0.25985 0.83056 0.0
H439 H 0.32336 0.32527 0.743 0.0
H440 H 0.2793 0.27766 0.8783 0.0
H441 H 0.2931 0.23715 0.58805 0.0
H442 H 0.33865 0.26882 0.59916 0.0
H443 H 0.20702 0.17329 0.73741 0.0
H444 H 0.38214 0.33175 0.68203 0.0
H445 H 0.36787 0.34627 0.72989 0.0
H446 H 0.18589 0.24134 0.87393 0.0
H447 H 0.371 0.30304 0.63341 0.0
H448 H 0.14396 0.17961 0.7897 0.0
H449 H 0.16039 0.1593 0.74561 0.0
N450 N 0.21737 0.20452 0.77451 0.0
C451 C 0.20896 0.21434 0.80008 0.0
C452 C 0.20038 0.18387 0.75587 0.0
C453 C 0.16458 0.18661 0.78582 0.0
C454 C 0.17376 0.1752 0.76084 0.0
C455 C 0.18228 0.20586 0.80617 0.0
H456 H 0.15369 0.21004 0.8375 0.0
N457 N 0.25283 0.23995 0.81483 0.0
C458 C 0.22716 0.23199 0.82095 0.0
C459 C 0.2381 0.25852 0.86855 0.0
C460 C 0.2191 0.2416 0.84789 0.0
C461 C 0.27153 0.25522 0.83525 0.0
C462 C 0.26445 0.26507 0.8623 0.0
O463 O 0.28939 0.24299 0.69836 0.0
O464 O 0.28658 0.21622 0.73065 0.0
O465 O 0.29288 0.21704 0.79261 0.0
O466 O 0.25705 0.18501 0.77901 0.0
O467 O 0.23475 0.2382 0.71608 0.0
O468 O 0.24432 0.20351 0.72509 0.0
O469 O 0.2525 0.26036 0.78448 0.0
O470 O 0.23637 0.26168 0.74267 0.0
O471 O 0.2431 0.28231 0.68676 0.0
O472 O 0.26754 0.31343 0.7196 0.0
O473 O 0.29825 0.25519 0.76059 0.0
O474 O 0.28959 0.29156 0.75582 0.0
C475 C 0.29482 0.22422 0.70716 0.0
C476 C 0.23402 0.21369 0.70842 0.0
C477 C 0.29539 0.17418 0.77831 0.0
C478 C 0.32545 0.15118 0.78483 0.0
C479 C 0.30822 0.14695 0.73779 0.0
C480 C 0.29399 0.16338 0.7491 0.0
C481 C 0.32386 0.14091 0.75543 0.0
C482 C 0.31103 0.16789 0.79619 0.0
C483 C 0.28054 0.19195 0.78988 0.0
C484 C 0.19247 0.23394 0.85345 0.0
C485 C 0.17413 0.21617 0.83265 0.0
H486 H 0.23266 0.26628 0.8895 0.0
C487 C 0.23896 0.26961 0.77029 0.0
C488 C 0.30143 0.28021 0.76927 0.0
C489 C 0.25551 0.32541 0.67948 0.0
C490 C 0.23945 0.35147 0.65461 0.0
C491 C 0.28361 0.3501 0.64822 0.0
C492 C 0.27954 0.33329 0.66678 0.0
C493 C 0.26378 0.35915 0.64215 0.0
C494 C 0.23555 0.33452 0.67339 0.0
C495 C 0.25065 0.30728 0.69867 0.0
H496 H 0.30706 0.13879 0.71524 0.0
H497 H 0.28191 0.16768 0.73496 0.0
H498 H 0.33438 0.12776 0.74607 0.0
H499 H 0.31215 0.17616 0.81874 0.0
H500 H 0.30223 0.35619 0.63852 0.0
H501 H 0.29511 0.32648 0.6712 0.0
H502 H 0.26764 0.37245 0.62795 0.0
H503 H 0.21687 0.32804 0.68295 0.0
C504 C 0.79974 0.22931 0.81552 0.0
C505 C 0.7799 0.18242 0.81241 0.0
C506 C 0.78554 0.20449 0.80032 0.0
C507 C 0.78757 0.186 0.84074 0.0
C508 C 0.8088 0.23284 0.84345 0.0
C509 C 0.80195 0.2112 0.85627 0.0
N510 N 0.8064 0.24959 0.80221 0.0
C511 C 0.82457 0.27311 0.81448 0.0
C512 C 0.82535 0.25775 0.85717 0.0
C513 C 0.83372 0.27783 0.84238 0.0
Gd514 Gd 0.72379 0.26431 0.76043 0.0
Gd515 Gd 0.78722 0.24062 0.75664 0.0
N516 N 0.77817 0.20182 0.77314 0.0
C517 C 0.76737 0.1574 0.79538 0.0
C518 C 0.76742 0.17743 0.75588 0.0
C519 C 0.76154 0.15487 0.76685 0.0
H520 H 0.76259 0.17561 0.73394 0.0
H521 H 0.75235 0.13559 0.75337 0.0
H522 H 0.73872 0.31816 0.81472 0.0
H523 H 0.83211 0.28833 0.80277 0.0
H524 H 0.75378 0.36638 0.82098 0.0
H525 H 0.76267 0.13993 0.80387 0.0
H526 H 0.78314 0.16935 0.85058 0.0
H527 H 0.69542 0.23931 0.6962 0.0
H528 H 0.8327 0.26134 0.87866 0.0
H529 H 0.84745 0.29684 0.85232 0.0
H530 H 0.74659 0.37943 0.7275 0.0
H531 H 0.80845 0.21357 0.87783 0.0
H532 H 0.70656 0.30261 0.65439 0.0
H533 H 0.68955 0.25491 0.65361 0.0
N534 N 0.71567 0.27768 0.72018 0.0
C535 C 0.72375 0.30395 0.72162 0.0
C536 C 0.70262 0.26011 0.69659 0.0
C537 C 0.709 0.29585 0.67307 0.0
C538 C 0.69934 0.2689 0.67255 0.0
C539 C 0.72109 0.31379 0.69794 0.0
H540 H 0.7286 0.3491 0.68198 0.0
N541 N 0.73472 0.3105 0.76983 0.0
C542 C 0.73396 0.32091 0.74718 0.0
C543 C 0.74972 0.36488 0.77661 0.0
C544 C 0.74171 0.34837 0.74984 0.0
C545 C 0.74047 0.32644 0.79631 0.0
C546 C 0.74861 0.35383 0.80002 0.0
O547 O 0.74876 0.21786 0.77282 0.0
O548 O 0.73534 0.25111 0.79694 0.0
O549 O 0.69097 0.27479 0.77969 0.0
O550 O 0.68542 0.23479 0.75749 0.0
O551 O 0.75931 0.22291 0.71856 0.0
O552 O 0.7189 0.22315 0.73534 0.0
O553 O 0.74953 0.26783 0.72265 0.0
O554 O 0.79013 0.27761 0.74251 0.0
O555 O 0.80044 0.22061 0.71855 0.0
O556 O 0.82847 0.24578 0.7519 0.0
O557 O 0.75311 0.28089 0.79753 0.0
O558 O 0.79241 0.28337 0.77703 0.0
C559 C 0.73674 0.22756 0.79405 0.0
C560 C 0.73365 0.21434 0.71635 0.0
C561 C 0.66384 0.24069 0.80039 0.0
C562 C 0.64975 0.25 0.84884 0.0
C563 C 0.64954 0.20599 0.8266 0.0
C564 C 0.65878 0.21433 0.80191 0.0
C565 C 0.64524 0.22374 0.85007 0.0
C566 C 0.6589 0.25827 0.82387 0.0
C567 C 0.67576 0.25032 0.77524 0.0
C568 C 0.74039 0.35838 0.72596 0.0
C569 C 0.73009 0.34112 0.70005 0.0
H570 H 0.75584 0.38609 0.77957 0.0
C571 C 0.77485 0.27947 0.72342 0.0
C572 C 0.77846 0.29222 0.79696 0.0
C573 C 0.84125 0.24365 0.70444 0.0
C574 C 0.86208 0.23666 0.65949 0.0
C575 C 0.8594 0.27979 0.68091 0.0
C576 C 0.84657 0.27015 0.70372 0.0
C577 C 0.86693 0.26308 0.6587 0.0
C578 C 0.84926 0.22715 0.68249 0.0
C579 C 0.82495 0.23196 0.72602 0.0
H580 H 0.64591 0.18573 0.8276 0.0
H581 H 0.66236 0.2002 0.78425 0.0
H582 H 0.63804 0.2169 0.86901 0.0
H583 H 0.66286 0.27865 0.82303 0.0
H584 H 0.86327 0.30018 0.68029 0.0
H585 H 0.84042 0.28315 0.72049 0.0
H586 H 0.87669 0.2708 0.64109 0.0
H587 H 0.84465 0.20654 0.68282 0.0
C588 C 0.76965 0.77534 0.84468 0.0
C589 C 0.73499 0.74818 0.86854 0.0
C590 C 0.75059 0.75128 0.8449 0.0
C591 C 0.73856 0.76968 0.89165 0.0
C592 C 0.7736 0.79683 0.86798 0.0
C593 C 0.75786 0.79391 0.89141 0.0
N594 N 0.7839 0.77786 0.82122 0.0
C595 C 0.80346 0.80076 0.82031 0.0
C596 C 0.79317 0.82065 0.86693 0.0
C597 C 0.80826 0.82255 0.84307 0.0
Gd598 Gd 0.73959 0.74853 0.71578 0.0
Gd599 Gd 0.77555 0.73978 0.78508 0.0
N600 N 0.74766 0.73082 0.82226 0.0
C601 C 0.71654 0.72344 0.86843 0.0
C602 C 0.73094 0.70632 0.82287 0.0
C603 C 0.71472 0.70234 0.84561 0.0
H604 H 0.73071 0.68968 0.80629 0.0
H605 H 0.70117 0.68291 0.84574 0.0
H606 H 0.78633 0.77458 0.67435 0.0
H607 H 0.81536 0.80217 0.80206 0.0
H608 H 0.80434 0.76107 0.62816 0.0
H609 H 0.70413 0.72026 0.88615 0.0
H610 H 0.72669 0.76769 0.90996 0.0
H611 H 0.67694 0.70766 0.71189 0.0
H612 H 0.79685 0.83762 0.88444 0.0
H613 H 0.82361 0.8408 0.84223 0.0
H614 H 0.74609 0.67333 0.59084 0.0
H615 H 0.76049 0.81025 0.90946 0.0
H616 H 0.66773 0.64384 0.64011 0.0
H617 H 0.65 0.66496 0.68284 0.0
N618 N 0.71068 0.7095 0.68762 0.0
C619 C 0.72011 0.69911 0.66322 0.0
C620 C 0.68533 0.69821 0.69394 0.0
C621 C 0.67991 0.66229 0.65319 0.0
C622 C 0.66983 0.67415 0.67728 0.0
C623 C 0.70507 0.67515 0.64541 0.0
H624 H 0.70395 0.64696 0.60602 0.0
N625 N 0.75693 0.73748 0.67161 0.0
C626 C 0.74388 0.71375 0.65474 0.0
C627 C 0.77568 0.72211 0.61893 0.0
C628 C 0.75318 0.70514 0.62816 0.0
C629 C 0.77752 0.75497 0.66175 0.0
C630 C 0.78754 0.74741 0.63553 0.0
O631 O 0.75462 0.77048 0.79109 0.0
O632 O 0.72028 0.75383 0.75788 0.0
O633 O 0.749 0.78785 0.70861 0.0
O634 O 0.71054 0.75995 0.69698 0.0
O635 O 0.74244 0.70484 0.76122 0.0
O636 O 0.71473 0.72211 0.74326 0.0
O637 O 0.77328 0.73215 0.7071 0.0
O638 O 0.76918 0.71042 0.74288 0.0
O639 O 0.7859 0.71439 0.80739 0.0
O640 O 0.81623 0.74428 0.79192 0.0
O641 O 0.7722 0.77882 0.74451 0.0
O642 O 0.80266 0.76371 0.75757 0.0
C643 C 0.73103 0.76838 0.78266 0.0
C644 C 0.71899 0.7037 0.75365 0.0
C645 C 0.71429 0.80458 0.71422 0.0
C646 C 0.68954 0.83381 0.71195 0.0
C647 C 0.70824 0.83431 0.75692 0.0
C648 C 0.71873 0.81516 0.74339 0.0
C649 C 0.6937 0.84356 0.74139 0.0
C650 C 0.6997 0.81396 0.69853 0.0
C651 C 0.72548 0.78434 0.70009 0.0
C652 C 0.73909 0.6805 0.61116 0.0
C653 C 0.71509 0.66549 0.61981 0.0
H654 H 0.78341 0.71628 0.59859 0.0
C655 C 0.77917 0.71537 0.71887 0.0
C656 C 0.79619 0.77889 0.74417 0.0
C657 C 0.82626 0.73178 0.83261 0.0
C658 C 0.85164 0.71797 0.86267 0.0
C659 C 0.84317 0.75934 0.87875 0.0
C660 C 0.82917 0.75472 0.85351 0.0
C661 C 0.85431 0.74111 0.88338 0.0
C662 C 0.83755 0.71352 0.83723 0.0
C663 C 0.81084 0.72597 0.80628 0.0
H664 H 0.71159 0.84218 0.77948 0.0
H665 H 0.73058 0.80882 0.75564 0.0
H666 H 0.68571 0.85838 0.75247 0.0
H667 H 0.69687 0.80627 0.67587 0.0
H668 H 0.84539 0.7771 0.8948 0.0
H669 H 0.82062 0.769 0.85041 0.0
H670 H 0.86528 0.74528 0.90304 0.0
H671 H 0.83493 0.6956 0.8212 0.0
Cd672 Cd 0.9799 0.96201 0.52505 0.0
Cd673 Cd 0.03215 0.01475 0.46376 0.0
C674 C 0.03792 0.95823 0.52985 0.0
N675 N 0.01248 0.94285 0.5252 0.0
C676 C 0.02321 0.905 0.52884 0.0
C677 C 0.0495 0.92067 0.53492 0.0
C678 C 0.05675 0.94755 0.53483 0.0
C679 C 1.00495 0.91656 0.52409 0.0
H680 H 0.04367 0.97898 0.53064 0.0
H681 H 0.98459 0.9047 0.5206 0.0
C682 C 0.98846 0.95909 0.45085 0.0
C683 C 0.97866 0.02472 0.45786 0.0
C684 C 0.96232 0.03809 0.45274 0.0
C685 C 0.97154 0.06574 0.45821 0.0
C686 C 0.99668 0.07928 0.4707 0.0
C687 C 0.01243 0.06503 0.47551 0.0
N688 N 1.00336 0.03826 0.46844 0.0
H689 H 0.97213 0.0035 0.45176 0.0
H690 H 0.03244 0.07533 0.48309 0.0
C691 C 0.05652 0.9694 0.45603 0.0
N692 N 0.06091 0.99391 0.47242 0.0
C693 C 0.09731 0.99115 0.49619 0.0
C694 C 0.09251 0.96539 0.48008 0.0
C695 C 0.07198 0.95474 0.45959 0.0
C696 C 0.08101 0.00514 0.49207 0.0
H697 H 0.04107 0.96117 0.43991 0.0
H698 H 0.08434 0.02484 0.50457 0.0
C699 C 0.02359 0.01767 0.53892 0.0
C700 C 0.94415 0.92682 0.55351 0.0
N701 N 0.95361 0.98736 0.52346 0.0
C702 C 0.9525 0.00394 0.54836 0.0
C703 C 0.93817 0.02082 0.55009 0.0
C704 C 0.92444 0.0205 0.52601 0.0
C705 C 0.9254 0.00271 0.50061 0.0
C706 C 0.94015 0.98608 0.49983 0.0
C707 C 0.06441 0.04576 0.42915 0.0
O708 O 0.99157 0.96742 0.47739 0.0
O709 O 1.00199 0.974 0.43546 0.0
O710 O 0.02031 0.01065 0.51222 0.0
O711 O 1.00937 0.00233 0.55356 0.0
O712 O 0.94359 0.92151 0.52657 0.0
O713 O 0.96078 0.94832 0.56632 0.0
O714 O 0.06879 0.05242 0.45588 0.0
O715 O 0.04587 0.02461 0.41927 0.0
H716 H 0.96304 0.00424 0.56693 0.0
H717 H 0.94102 0.97236 0.48038 0.0
H718 H 0.01655 0.88425 0.52894 0.0
H719 H 0.07678 0.96038 0.53892 0.0
H720 H 0.94294 0.02679 0.4436 0.0
H721 H 1.00474 0.10055 0.47498 0.0
H722 H 0.11307 0.0001 0.51208 0.0
H723 H 0.06811 0.93531 0.44604 0.0
H724 H 0.93839 0.03446 0.57001 0.0
H725 H 0.91492 0.00167 0.48163 0.0
Cd726 Cd 0.48344 0.98591 0.04759 0.0
Cd727 Cd 0.54008 0.00307 0.96217 0.0
C728 C 0.51886 0.97518 0.09326 0.0
N729 N 0.51372 0.97007 0.06496 0.0
C730 C 0.54272 0.94497 0.05592 0.0
C731 C 0.54834 0.94973 0.08509 0.0
C732 C 0.53617 0.96521 0.10381 0.0
C733 C 0.52531 0.95536 0.04629 0.0
H734 H 0.50935 0.98685 0.1077 0.0
H735 H 0.52094 0.9516 0.02387 0.0
C736 C 0.48119 0.9632 0.96999 0.0
C737 C 0.50768 0.01351 0.91354 0.0
C738 C 0.49129 0.02375 0.90182 0.0
C739 C 0.47765 0.03827 0.91963 0.0
C740 C 0.48063 0.04157 0.94904 0.0
C741 C 0.49722 0.031 0.95982 0.0
N742 N 0.51044 0.01744 0.94206 0.0
H743 H 0.51847 0.00269 0.89989 0.0
H744 H 0.49994 0.03399 0.98245 0.0
C745 C 0.55363 0.95512 0.92023 0.0
N746 N 0.55916 0.96954 0.94727 0.0
C747 C 0.59058 0.94909 0.9533 0.0
C748 C 0.58575 0.93432 0.92515 0.0
C749 C 0.56663 0.93735 0.90876 0.0
C750 C 0.57706 0.96664 0.96394 0.0
H751 H 0.53965 0.95806 0.9072 0.0
H752 H 0.58135 0.97842 0.98531 0.0
C753 C 0.54117 0.02404 0.03792 0.0
C754 C 0.44236 0.94755 0.06743 0.0
N755 N 0.46504 0.02024 0.06238 0.0
C756 C 0.46902 0.03306 0.09009 0.0
C757 C 0.45589 0.0507 0.10165 0.0
C758 C 0.43831 0.05538 0.08467 0.0
C759 C 0.43527 0.04248 0.05583 0.0
C760 C 0.44873 0.02483 0.04513 0.0
C761 C 0.58109 0.04427 0.94602 0.0
O762 O 0.48763 0.97537 0.99556 0.0
O763 O 0.49754 0.96877 0.95099 0.0
O764 O 0.53288 0.01052 0.01327 0.0
O765 O 0.52605 0.02036 0.05832 0.0
O766 O 0.44707 0.94435 0.04123 0.0
O767 O 0.45672 0.96846 0.08384 0.0
O768 O 0.57284 0.04725 0.97101 0.0
O769 O 0.57037 0.0222 0.92913 0.0
H770 H 0.48182 0.02893 0.10352 0.0
H771 H 0.44546 0.01412 0.02328 0.0
H772 H 0.55184 0.93349 0.04062 0.0
H773 H 0.53956 0.96918 0.12646 0.0
H774 H 0.48936 0.02035 0.87905 0.0
H775 H 0.47083 0.05285 0.96365 0.0
H776 H 0.60483 0.94728 0.96695 0.0
H777 H 0.56237 0.92681 0.8869 0.0
H778 H 0.45929 0.06036 0.12384 0.0
H779 H 0.42182 0.04516 0.04188 0.0
Cd780 Cd 0.98815 0.49293 0.03182 0.0
Cd781 Cd 0.04369 0.50045 0.94577 0.0
C782 C 0.02263 0.4852 0.08108 0.0
N783 N 0.01529 0.47682 0.05316 0.0
C784 C 0.03824 0.44602 0.04686 0.0
C785 C 0.04632 0.45424 0.07562 0.0
C786 C 0.03837 0.47426 0.09276 0.0
C787 C 0.02275 0.45766 0.03605 0.0
H788 H 0.0163 0.50043 0.09422 0.0
H789 H 0.01635 0.45121 0.01399 0.0
C790 C 0.98606 0.46629 0.95769 0.0
C791 C 1.0029 0.51273 0.90828 0.0
C792 C 0.98678 0.52573 0.90129 0.0
C793 C 0.98246 0.54633 0.92156 0.0
C794 C 0.99412 0.55278 0.94878 0.0
C795 C 0.01004 0.53923 0.95486 0.0
N796 N 0.01428 0.5198 0.93463 0.0
H797 H 1.00665 0.49723 0.89258 0.0
H798 H 0.01953 0.5446 0.97557 0.0
C799 C 0.05 0.44469 0.91139 0.0
N800 N 0.06154 0.46593 0.93263 0.0
C801 C 0.09889 0.45219 0.93338 0.0
C802 C 0.08786 0.43043 0.91083 0.0
C803 C 0.06277 0.4266 0.90027 0.0
C804 C 0.0854 0.46975 0.94391 0.0
H805 H 0.03126 0.44226 0.90231 0.0
H806 H 0.09448 0.4871 0.96033 0.0
C807 C 0.04974 0.52576 0.02305 0.0
C808 C 0.94667 0.45278 0.04824 0.0
N809 N 0.97107 0.52802 0.04601 0.0
C810 C 0.97555 0.54136 0.07352 0.0
C811 C 0.96282 0.5594 0.08488 0.0
C812 C 0.94506 0.56381 0.06789 0.0
C813 C 0.94146 0.55029 0.03925 0.0
C814 C 0.95466 0.53241 0.02874 0.0
C815 C 0.08201 0.53563 0.91956 0.0
O816 O 0.99541 0.4822 0.98098 0.0
O817 O 1.00064 0.46663 0.93661 0.0
O818 O 0.04239 0.51434 0.99754 0.0
O819 O 0.03316 0.52269 0.04225 0.0
O820 O 0.95445 0.44958 0.02308 0.0
O821 O 0.95779 0.4748 0.06503 0.0
O822 O 0.08294 0.53803 0.94622 0.0
O823 O 0.06368 0.51642 0.90538 0.0
H824 H 0.98827 0.53718 0.08702 0.0
H825 H 0.95113 0.52141 0.00701 0.0
H826 H 0.04335 0.43035 0.03288 0.0
H827 H 0.04435 0.48153 0.11493 0.0
H828 H 0.97793 0.5198 0.88017 0.0
H829 H 0.9917 0.56871 0.965 0.0
H830 H 0.11827 0.45636 0.94205 0.0
H831 H 0.0532 0.41001 0.88321 0.0
H832 H 0.96606 0.56891 0.10711 0.0
H833 H 0.92828 0.55319 0.02515 0.0
Cd834 Cd 0.48005 0.47843 0.02828 0.0
Cd835 Cd 0.5322 0.50616 0.956 0.0
C836 C 0.52944 0.47966 0.06424 0.0
N837 N 0.5142 0.4659 0.04057 0.0
C838 C 0.53312 0.4319 0.03501 0.0
C839 C 0.54875 0.44536 0.05977 0.0
C840 C 0.54709 0.46982 0.07412 0.0
C841 C 0.51589 0.44258 0.02576 0.0
H842 H 0.52716 0.49773 0.07618 0.0
H843 H 0.50312 0.43178 0.00735 0.0
C844 C 0.49015 0.4527 0.9556 0.0
C845 C 0.47996 0.50673 0.92832 0.0
C846 C 0.46205 0.51708 0.92002 0.0
C847 C 0.46321 0.54294 0.93295 0.0
C848 C 0.48189 0.55721 0.95512 0.0
C849 C 0.49935 0.54597 0.96287 0.0
N850 N 0.49825 0.5213 0.9492 0.0
H851 H 0.4798 0.48736 0.91739 0.0
H852 H 0.51458 0.55739 0.97889 0.0
C853 C 0.57183 0.47542 0.94729 0.0
N854 N 0.56151 0.4881 0.96937 0.0
C855 C 0.58353 0.47522 0.00229 0.0
C856 C 0.59385 0.46124 0.97975 0.0
C857 C 0.58809 0.46182 0.95198 0.0
C858 C 0.56726 0.48863 0.99658 0.0
H859 H 0.56673 0.47523 0.92591 0.0
H860 H 0.55882 0.49891 0.01379 0.0
C861 C 0.52326 0.53108 0.02938 0.0
C862 C 0.44421 0.44572 0.05949 0.0
N863 N 0.45426 0.50012 0.01467 0.0
C864 C 0.44906 0.51814 0.03587 0.0
C865 C 0.43387 0.53254 0.03048 0.0
C866 C 0.42382 0.52843 0.00291 0.0
C867 C 0.42917 0.50932 0.98146 0.0
C868 C 0.4447 0.49544 0.9878 0.0
C869 C 0.56295 0.53567 0.91893 0.0
O870 O 0.49331 0.46811 0.97975 0.0
O871 O 0.50511 0.46062 0.93642 0.0
O872 O 0.51944 0.51608 0.00494 0.0
O873 O 0.50836 0.52315 0.04862 0.0
O874 O 0.44699 0.43741 0.03336 0.0
O875 O 0.45733 0.46951 0.07057 0.0
O876 O 0.56676 0.54419 0.94559 0.0
O877 O 0.54582 0.51323 0.91007 0.0
H878 H 0.45666 0.52119 0.0571 0.0
H879 H 0.4491 0.481 0.97127 0.0
H880 H 0.53388 0.41311 0.02314 0.0
H881 H 0.55837 0.48067 0.09355 0.0
H882 H 0.44769 0.50501 0.90332 0.0
H883 H 0.48388 0.57729 0.96549 0.0
H884 H 0.58763 0.47539 0.02399 0.0
H885 H 0.59509 0.45089 0.93391 0.0
H886 H 0.4296 0.54634 0.04798 0.0
H887 H 0.42166 0.5053 0.96 0.0
Cd888 Cd 0.97884 0.4882 0.54411 0.0
Cd889 Cd 0.03801 0.50035 0.45864 0.0
C890 C 0.0153 0.47806 0.5893 0.0
N891 N 1.00867 0.47217 0.56126 0.0
C892 C 0.03738 0.44694 0.55071 0.0
C893 C 0.04464 0.45258 0.57954 0.0
C894 C 0.03335 0.46845 0.59894 0.0
C895 C 0.0193 0.45696 0.54202 0.0
H896 H 1.00659 0.49025 0.60416 0.0
H897 H 0.01382 0.45273 0.51982 0.0
C898 C 0.97789 0.46341 0.46763 0.0
C899 C 0.99939 0.50456 0.41047 0.0
C900 C 0.98252 0.5143 0.39874 0.0
C901 C 0.97633 0.53598 0.41461 0.0
C902 C 0.98727 0.54714 0.44221 0.0
C903 C 1.00378 0.53659 0.45321 0.0
N904 N 1.00953 0.5157 0.43733 0.0
H905 H 1.00436 0.48806 0.39818 0.0
H906 H 0.01211 0.5451 0.4745 0.0
C907 C 0.05537 0.45508 0.41595 0.0
N908 N 0.05741 0.46677 0.44398 0.0
C909 C 0.08615 0.44397 0.45217 0.0
C910 C 0.08488 0.43195 0.42314 0.0
C911 C 0.06888 0.4376 0.4051 0.0
C912 C 0.07227 0.46137 0.46214 0.0
H913 H 0.04384 0.45998 0.40178 0.0
H914 H 0.07388 0.47104 0.48431 0.0
C915 C 0.03764 0.5248 0.53394 0.0
C916 C 0.93654 0.45025 0.56328 0.0
N917 N 0.96145 0.52297 0.55881 0.0
C918 C 0.96631 0.53626 0.58631 0.0
C919 C 0.95336 0.55395 0.59819 0.0
C920 C 0.93505 0.5581 0.58173 0.0
C921 C 0.93115 0.5448 0.55304 0.0
C922 C 0.94448 0.52713 0.54201 0.0
C923 C 0.07982 0.54225 0.44546 0.0
O924 O 0.9846 0.47634 0.49284 0.0
O925 O 0.99463 0.46681 0.4486 0.0
O926 O 0.02981 0.51023 0.50957 0.0
O927 O 0.0219 0.52255 0.55401 0.0
O928 O 0.94044 0.44807 0.53695 0.0
O929 O 0.95235 0.46983 0.58012 0.0
O930 O 0.07287 0.5429 0.47086 0.0
O931 O 0.06744 0.52205 0.42675 0.0
H932 H 0.97958 0.53236 0.59937 0.0
H933 H 0.94049 0.51597 0.52037 0.0
H934 H 0.04584 0.43518 0.53492 0.0
H935 H 0.03816 0.47313 0.62137 0.0
H936 H 0.97475 0.50524 0.37729 0.0
H937 H 0.98288 0.56369 0.45531 0.0
H938 H 0.09786 0.44011 0.46708 0.0
H939 H 0.06746 0.42934 0.38257 0.0
H940 H 0.95736 0.56394 0.62025 0.0
H941 H 0.91709 0.54709 0.53954 0.0
Cd942 Cd 0.48674 0.99201 0.53196 0.0
Cd943 Cd 0.54674 0.00261 0.44871 0.0
C944 C 0.51761 0.9808 0.58121 0.0
N945 N 0.51259 0.97424 0.55279 0.0
C946 C 0.53733 0.94504 0.54653 0.0
C947 C 0.54284 0.95134 0.57583 0.0
C948 C 0.53286 0.9696 0.59322 0.0
C949 C 0.5221 0.95679 0.53542 0.0
H950 H 0.5097 0.9947 0.59451 0.0
H951 H 0.51777 0.95198 0.51289 0.0
C952 C 0.4881 0.96698 0.45709 0.0
C953 C 0.5074 0.01601 0.41023 0.0
C954 C 0.49225 0.02974 0.40269 0.0
C955 C 0.48897 0.05125 0.4224 0.0
C956 C 0.50066 0.05786 0.44964 0.0
C957 C 0.51552 0.0435 0.45629 0.0
N958 N 0.51876 0.02318 0.43661 0.0
H959 H 0.51042 -0.00016 0.39491 0.0
H960 H 0.52504 0.04897 0.47701 0.0
C961 C 0.55046 0.94486 0.41592 0.0
N962 N 0.56368 0.96719 0.43513 0.0
C963 C 0.60098 0.95298 0.43343 0.0
C964 C 0.5881 0.92997 0.41301 0.0
C965 C 0.56225 0.92592 0.40473 0.0
C966 C 0.58842 0.97135 0.44417 0.0
H967 H 0.53104 0.94205 0.40848 0.0
H968 H 0.59881 0.98949 0.45894 0.0
C969 C 0.54893 0.02575 0.52659 0.0
C970 C 0.44279 0.95487 0.54951 0.0
N971 N 0.4709 0.02809 0.54381 0.0
C972 C 0.48209 0.04845 0.56604 0.0
C973 C 0.47011 0.06733 0.57667 0.0
C974 C 0.44615 0.06521 0.56458 0.0
C975 C 0.4356 0.04443 0.54095 0.0
C976 C 0.44827 0.02602 0.53097 0.0
C977 C 0.58672 0.03812 0.42427 0.0
O978 O 0.49599 0.9812 0.48157 0.0
O979 O 0.50359 0.96957 0.43691 0.0
O980 O 0.54288 0.01507 0.5006 0.0
O981 O 0.53134 0.02189 0.5447 0.0
O982 O 0.44886 0.95177 0.52372 0.0
O983 O 0.4568 0.97551 0.56658 0.0
O984 O 0.58684 0.03994 0.45086 0.0
O985 O 0.56853 0.0193 0.4094 0.0
H986 H 0.49982 0.04948 0.5763 0.0
H987 H 0.43938 0.00933 0.51377 0.0
H988 H 0.54488 0.93134 0.53231 0.0
H989 H 0.53638 0.97481 0.61593 0.0
H990 H 0.48335 0.02364 0.3816 0.0
H991 H 0.49907 0.07448 0.46542 0.0
H992 H 0.62099 0.95737 0.44028 0.0
H993 H 0.55125 0.90843 0.38942 0.0
H994 H 0.4793 0.08311 0.59462 0.0
H995 H 0.41706 0.04161 0.53106 0.0
H996 H 0.1782 0.20944 0.27188 0.0
H997 H 0.14575 0.17972 0.29622 0.0
H998 H 0.19483 0.13171 0.29114 0.0
H999 H 0.22625 0.16019 0.26508 0.0
H1000 H 0.14668 0.10192 0.28616 0.0
H1001 H 0.15768 0.18556 0.37808 0.0
H1002 H 0.14357 0.18941 0.34725 0.0
H1003 H 0.17652 0.18919 0.34711 0.0
C1004 C 0.18167 0.19213 0.2753 0.0
C1005 C 0.20505 0.18747 0.26741 0.0
C1006 C 0.16332 0.1754 0.28957 0.0
C1007 C 0.16839 0.15415 0.29657 0.0
C1008 C 0.19067 0.14824 0.28642 0.0
H1009 H 0.11244 0.08409 0.43937 0.0
H1010 H 0.13728 0.11005 0.4064 0.0
C1011 C 0.20867 0.16457 0.27163 0.0
C1012 C 0.1515 0.13878 0.31568 0.0
H1013 H 0.12728 0.14434 0.38181 0.0
C1014 C 0.14242 0.11121 0.30706 0.0
C1015 C 0.14633 0.15092 0.34318 0.0
C1016 C 0.15675 0.18036 0.35458 0.0
C1017 C 0.1286 0.0954 0.32522 0.0
C1018 C 0.12282 0.10755 0.35238 0.0
C1019 C 0.13166 0.1351 0.36093 0.0
C1020 C 0.10781 0.09203 0.37237 0.0
C1021 C 0.12119 0.06588 0.31539 0.0
C1022 C 0.08292 0.0737 0.36433 0.0
C1023 C 0.06902 0.05861 0.38283 0.0
C1024 C 0.07947 0.06202 0.41002 0.0
C1025 C 0.10402 0.081 0.41848 0.0
C1026 C 0.11816 0.09582 0.39971 0.0
H1027 H 0.13389 0.06032 0.29846 0.0
H1028 H 0.1225 0.05663 0.33311 0.0
H1029 H 0.10084 0.05764 0.30658 0.0
H1030 H 0.07417 0.07107 0.34373 0.0
H1031 H 0.04992 0.04444 0.37592 0.0
H1032 H 0.81082 0.112 0.3237 0.0
H1033 H 0.83848 0.10311 0.35572 0.0
H1034 H 0.87841 0.18638 0.38526 0.0
H1035 H 0.85018 0.19565 0.35383 0.0
H1036 H 0.91137 0.15442 0.3677 0.0
H1037 H 0.8385 0.11545 0.4436 0.0
H1038 H 0.82801 0.10118 0.40717 0.0
H1039 H 0.83368 0.13566 0.42114 0.0
C1040 C 0.82506 0.12853 0.33739 0.0
C1041 C 0.8281 0.15458 0.33622 0.0
C1042 C 0.84091 0.12337 0.35567 0.0
C1043 C 0.8602 0.1441 0.37315 0.0
C1044 C 0.86348 0.17013 0.37205 0.0
H1045 H 0.96636 0.11327 0.48474 0.0
H1046 H 0.94068 0.13658 0.46781 0.0
C1047 C 0.84746 0.17535 0.35389 0.0
C1048 C 0.87788 0.13819 0.39112 0.0
H1049 H 0.87783 0.10462 0.44226 0.0
C1050 C 0.9042 0.14405 0.38443 0.0
C1051 C 0.86848 0.12478 0.41302 0.0
C1052 C 0.84067 0.11909 0.4219 0.0
C1053 C 0.92096 0.13533 0.39787 0.0
C1054 C 0.91112 0.12053 0.41848 0.0
C1055 C 0.88523 0.11597 0.42636 0.0
C1056 C 0.9265 0.10688 0.42932 0.0
C1057 C 0.94878 0.14081 0.38909 0.0
C1058 C 0.92684 0.0826 0.41327 0.0
C1059 C 0.94135 0.06932 0.42279 0.0
C1060 C 0.9558 0.08003 0.44868 0.0
C1061 C 0.9555 0.10453 0.46471 0.0
C1062 C 0.9408 0.11781 0.45516 0.0
H1063 H 0.95443 0.15546 0.37562 0.0
H1064 H 0.96223 0.14817 0.40805 0.0
H1065 H 0.95122 0.12222 0.37703 0.0
H1066 H 0.91599 0.07398 0.39319 0.0
H1067 H 0.9416 0.05086 0.4095 0.0
H1068 H 0.82248 0.74709 0.30408 0.0
H1069 H 0.85309 0.77154 0.344 0.0
H1070 H 0.83889 0.84273 0.33898 0.0
H1071 H 0.80757 0.8183 0.2995 0.0
H1072 H 0.89729 0.81096 0.3423 0.0
H1073 H 0.83563 0.8461 0.42321 0.0
H1074 H 0.82214 0.81968 0.39268 0.0
H1075 H 0.83072 0.85353 0.39018 0.0
C1076 C 0.8256 0.7679 0.31163 0.0
C1077 C 0.81261 0.78082 0.29863 0.0
C1078 C 0.84302 0.78176 0.33453 0.0
C1079 C 0.84776 0.80874 0.34477 0.0
C1080 C 0.83485 0.82171 0.33188 0.0
H1081 H 0.97311 0.93981 0.39545 0.0
H1082 H 0.9401 0.89801 0.3744 0.0
C1083 C 0.81728 0.80783 0.30906 0.0
C1084 C 0.86834 0.82406 0.36674 0.0
H1085 H 0.88162 0.87348 0.426 0.0
C1086 C 0.8938 0.82412 0.36104 0.0
C1087 C 0.86366 0.84068 0.39152 0.0
C1088 C 0.83648 0.83977 0.39991 0.0
C1089 C 0.91501 0.84236 0.37799 0.0
C1090 C 0.91051 0.86111 0.40074 0.0
C1091 C 0.88495 0.85928 0.40818 0.0
C1092 C 0.93174 0.88514 0.41374 0.0
C1093 C 0.94214 0.8424 0.37048 0.0
C1094 C 0.93756 0.89177 0.44288 0.0
C1095 C 0.95644 0.91576 0.45498 0.0
C1096 C 0.96929 0.93344 0.43815 0.0
C1097 C 0.96353 0.92655 0.40894 0.0
C1098 C 0.94483 0.90262 0.39687 0.0
H1099 H 0.942 0.82237 0.3597 0.0
H1100 H 0.95 0.85559 0.35572 0.0
H1101 H 0.95543 0.84959 0.38956 0.0
H1102 H 0.92744 0.87852 0.45618 0.0
H1103 H 0.96095 0.92052 0.47743 0.0
H1104 H 0.1883 0.81155 0.34694 0.0
H1105 H 0.19634 0.84854 0.38633 0.0
H1106 H 0.13409 0.80291 0.43039 0.0
H1107 H 0.12883 0.76412 0.39299 0.0
H1108 H 0.16435 0.87083 0.3944 0.0
H1109 H 0.1753 0.84932 0.49742 0.0
H1110 H 0.17903 0.8278 0.46477 0.0
H1111 H 0.14721 0.82416 0.47907 0.0
C1112 C 0.1773 0.8084 0.36552 0.0
C1113 C 0.15752 0.7843 0.36602 0.0
C1114 C 0.18175 0.83009 0.38817 0.0
C1115 C 0.16571 0.8289 0.41145 0.0
C1116 C 0.14714 0.80453 0.41305 0.0
H1117 H 0.07593 0.91361 0.48161 0.0
H1118 H 0.10193 0.88467 0.47473 0.0
C1119 C 0.14357 0.78235 0.39095 0.0
C1120 C 0.16456 0.85379 0.43026 0.0
H1121 H 0.15178 0.8808 0.49738 0.0
C1122 C 0.16271 0.87338 0.41711 0.0
C1123 C 0.16222 0.85737 0.45996 0.0
C1124 C 0.16636 0.83859 0.47605 0.0
C1125 C 0.1566 0.89517 0.43219 0.0
C1126 C 0.15204 0.89752 0.46134 0.0
C1127 C 0.15542 0.87896 0.47504 0.0
C1128 C 0.13877 0.91591 0.47572 0.0
C1129 C 0.15287 0.91435 0.41626 0.0
C1130 C 0.1511 0.94329 0.48027 0.0
C1131 C 0.13617 0.96001 0.48424 0.0
C1132 C 0.10882 0.94941 0.48349 0.0
C1133 C 0.09694 0.92231 0.48196 0.0
C1134 C 0.1118 0.90574 0.47831 0.0
H1135 H 0.15535 0.90852 0.39319 0.0
H1136 H 0.1331 0.91588 0.41949 0.0
H1137 H 0.16731 0.93417 0.42444 0.0
H1138 H 0.17196 0.95143 0.47825 0.0
H1139 H 0.14586 0.98081 0.48538 0.0
H1140 H 0.19693 0.80684 0.62252 0.0
H1141 H 0.16773 0.81552 0.59172 0.0
H1142 H 0.19922 0.89852 0.62972 0.0
H1143 H 0.22819 0.89006 0.66063 0.0
H1144 H 0.12986 0.8371 0.60872 0.0
H1145 H 0.19994 0.89856 0.54604 0.0
H1146 H 0.20914 0.87899 0.56629 0.0
H1147 H 0.20766 0.91095 0.58324 0.0
C1148 C 0.1977 0.82696 0.62423 0.0
C1149 C 0.21494 0.84776 0.64406 0.0
C1150 C 0.18113 0.83189 0.60648 0.0
C1151 C 0.1816 0.85771 0.60805 0.0
C1152 C 0.19901 0.87852 0.62755 0.0
H1153 H 0.09054 0.94446 0.57366 0.0
H1154 H 0.12253 0.92635 0.58621 0.0
C1155 C 0.21555 0.87362 0.64528 0.0
C1156 C 0.16242 0.86288 0.59128 0.0
H1157 H 0.15718 0.90311 0.54934 0.0
C1158 C 0.13577 0.85106 0.59519 0.0
C1159 C 0.17015 0.88099 0.57349 0.0
C1160 C 0.19829 0.89288 0.56676 0.0
C1161 C 0.11679 0.85817 0.58332 0.0
C1162 C 0.1247 0.87746 0.567 0.0
C1163 C 0.15121 0.88835 0.56194 0.0
C1164 C 0.10602 0.88846 0.55748 0.0
C1165 C 0.08854 0.84612 0.58962 0.0
C1166 C 0.08629 0.8732 0.53685 0.0
C1167 C 0.06795 0.88359 0.52938 0.0
C1168 C 0.0691 0.90946 0.54236 0.0
C1169 C 0.08921 0.92468 0.56277 0.0
C1170 C 0.10751 0.91433 0.57011 0.0
H1171 H 0.08602 0.8339 0.60551 0.0
H1172 H 0.07982 0.86178 0.59755 0.0
H1173 H 0.07755 0.83344 0.56987 0.0
H1174 H 0.08506 0.85328 0.52661 0.0
H1175 H 0.05312 0.87146 0.51317 0.0
H1176 H 0.19665 0.22487 0.68303 0.0
H1177 H 0.16315 0.19508 0.64805 0.0
H1178 H 0.19215 0.13178 0.65024 0.0
H1179 H 0.22702 0.16204 0.68424 0.0
H1180 H 0.17718 0.13109 0.59643 0.0
H1181 H 0.10072 0.14186 0.67242 0.0
H1182 H 0.12105 0.17246 0.66494 0.0
H1183 H 0.13488 0.15441 0.68269 0.0
C1184 C 0.19616 0.20468 0.67592 0.0
C1185 C 0.21436 0.19569 0.68656 0.0
C1186 C 0.17691 0.1877 0.65599 0.0
C1187 C 0.17491 0.1612 0.6471 0.0
C1188 C 0.19341 0.15222 0.65702 0.0
H1189 H 0.04252 0.02846 0.59255 0.0
H1190 H 0.07987 0.06503 0.61545 0.0
C1191 C 0.21311 0.16941 0.67656 0.0
C1192 C 0.15256 0.14256 0.62882 0.0
H1193 H 0.08631 0.11682 0.6264 0.0
C1194 C 0.15727 0.12793 0.60284 0.0
C1195 C 0.12671 0.13853 0.63751 0.0
C1196 C 0.12049 0.15244 0.66602 0.0
C1197 C 0.13667 0.10881 0.5855 0.0
C1198 C 0.11086 0.10491 0.59421 0.0
C1199 C 0.10619 0.12014 0.61975 0.0
C1200 C 0.08855 0.08291 0.57929 0.0
C1201 C 0.14274 0.09219 0.55874 0.0
C1202 C 0.08104 0.08095 0.55133 0.0
C1203 C 0.05967 0.05977 0.53798 0.0
C1204 C 0.04551 0.04064 0.55265 0.0
C1205 C 0.05294 0.04299 0.58074 0.0
C1206 C 0.07432 0.06384 0.59386 0.0
H1207 H 0.16376 0.09438 0.55789 0.0
H1208 H 0.13123 0.07106 0.55684 0.0
H1209 H 0.1374 0.09832 0.5402 0.0
H1210 H 0.09158 0.09578 0.53994 0.0
H1211 H 0.05427 0.05831 0.51628 0.0
H1212 H 0.85112 0.22715 0.60271 0.0
H1213 H 0.85865 0.19229 0.56541 0.0
H1214 H 0.89679 0.17017 0.62715 0.0
H1215 H 0.88936 0.20471 0.66422 0.0
H1216 H 0.9219 0.17394 0.57107 0.0
H1217 H 0.81717 0.11141 0.56573 0.0
H1218 H 0.82594 0.14536 0.56348 0.0
H1219 H 0.83117 0.13762 0.59622 0.0
C1220 C 0.86155 0.21512 0.60808 0.0
C1221 C 0.86956 0.21841 0.63627 0.0
C1222 C 0.86568 0.1952 0.58688 0.0
C1223 C 0.87806 0.17863 0.59369 0.0
C1224 C 0.88715 0.18278 0.62156 0.0
H1225 H 0.89455 0.03512 0.56856 0.0
H1226 H 0.8798 0.07309 0.5763 0.0
C1227 C 0.88286 0.20242 0.64268 0.0
C1228 C 0.88047 0.15578 0.57263 0.0
H1229 H 0.84703 0.09078 0.54571 0.0
C1230 C 0.90549 0.1559 0.5647 0.0
C1231 C 0.85893 0.13238 0.56461 0.0
C1232 C 0.83171 0.1314 0.57288 0.0
C1233 C 0.90986 0.13269 0.55071 0.0
C1234 C 0.88854 0.10885 0.54434 0.0
C1235 C 0.86325 0.10914 0.55049 0.0
C1236 C 0.89284 0.08318 0.53643 0.0
C1237 C 0.93748 0.13344 0.54485 0.0
C1238 C 0.90392 0.07553 0.51083 0.0
C1239 C 0.91263 0.05388 0.50646 0.0
C1240 C 0.91046 0.0397 0.52767 0.0
C1241 C 0.8972 0.04608 0.55214 0.0
C1242 C 0.88853 0.06764 0.55649 0.0
H1243 H 0.95203 0.15296 0.55414 0.0
H1244 H 0.94185 0.11822 0.55338 0.0
H1245 H 0.93976 0.12911 0.52169 0.0
H1246 H 0.90689 0.08702 0.49489 0.0
H1247 H 0.92237 0.04923 0.48724 0.0
H1248 H 0.83459 0.76423 0.71504 0.0
H1249 H 0.86062 0.78428 0.67858 0.0
H1250 H 0.82465 0.84456 0.69445 0.0
H1251 H 0.79823 0.82428 0.73037 0.0
H1252 H 0.82389 0.82026 0.63731 0.0
H1253 H 0.92286 0.85268 0.68847 0.0
H1254 H 0.90384 0.81849 0.68461 0.0
H1255 H 0.89352 0.84319 0.70778 0.0
C1256 C 0.83267 0.78205 0.71107 0.0
C1257 C 0.81444 0.79276 0.72532 0.0
C1258 C 0.84746 0.79341 0.69024 0.0
C1259 C 0.84455 0.81589 0.68393 0.0
C1260 C 0.82702 0.82711 0.69895 0.0
H1261 H 0.93584 0.93757 0.60957 0.0
H1262 H 0.91091 0.90712 0.63777 0.0
C1263 C 0.81207 0.81563 0.71949 0.0
C1264 C 0.85914 0.82765 0.66125 0.0
H1265 H 0.92003 0.8621 0.64408 0.0
C1266 C 0.84494 0.82924 0.63857 0.0
C1267 C 0.88656 0.83918 0.66307 0.0
C1268 C 0.90268 0.83855 0.68735 0.0
C1269 C 0.85737 0.84316 0.61826 0.0
C1270 C 0.88473 0.85533 0.62053 0.0
C1271 C 0.89903 0.85267 0.64247 0.0
C1272 C 0.89868 0.87341 0.60247 0.0
C1273 C 0.84106 0.84591 0.59546 0.0
C1274 C 0.89973 0.86456 0.57315 0.0
C1275 C 0.91384 0.88209 0.55681 0.0
C1276 C 0.92726 0.90854 0.56973 0.0
C1277 C 0.92578 0.91729 0.59901 0.0
C1278 C 0.91161 0.89991 0.61519 0.0
H1279 H 0.81993 0.83919 0.59965 0.0
H1280 H 0.84707 0.86671 0.59352 0.0
H1281 H 0.84398 0.83383 0.57487 0.0
H1282 H 0.89013 0.84408 0.56303 0.0
H1283 H 0.91485 0.87481 0.5343 0.0
H1284 H 0.29671 0.17781 0.23492 0.0
H1285 H 0.32273 0.1517 0.21059 0.0
H1286 H 0.33656 0.19505 0.14473 0.0
H1287 H 0.31148 0.22202 0.16971 0.0
H1288 H 0.31615 0.11868 0.15999 0.0
H1289 H 0.40966 0.1999 0.16177 0.0
H1290 H 0.3825 0.20449 0.18205 0.0
H1291 H 0.38316 0.20423 0.14491 0.0
C1292 C 0.30537 0.18197 0.21533 0.0
C1293 C 0.30167 0.20204 0.20422 0.0
C1294 C 0.32027 0.16689 0.20134 0.0
C1295 C 0.33206 0.17144 0.17586 0.0
C1296 C 0.32826 0.19135 0.1646 0.0
H1297 H 0.42502 0.09112 0.06182 0.0
H1298 H 0.39895 0.1188 0.0827 0.0
C1299 C 0.3135 0.20659 0.17873 0.0
C1300 C 0.34773 0.1549 0.16102 0.0
H1301 H 0.40779 0.15773 0.13494 0.0
C1302 C 0.33621 0.12731 0.15462 0.0
C1303 C 0.37399 0.16593 0.15379 0.0
C1304 C 0.38818 0.19524 0.1612 0.0
C1305 C 0.34997 0.11062 0.14124 0.0
C1306 C 0.37622 0.12163 0.13421 0.0
C1307 C 0.38769 0.1492 0.14021 0.0
C1308 C 0.39224 0.10482 0.12142 0.0
C1309 C 0.33611 0.08125 0.1344 0.0
C1310 C 0.39753 0.08788 0.13624 0.0
C1311 C 0.41245 0.07205 0.12438 0.0
C1312 C 0.4226 0.07268 0.0973 0.0
C1313 C 0.41738 0.08981 0.08255 0.0
C1314 C 0.40256 0.10581 0.09455 0.0
H1315 H 0.31459 0.07628 0.13421 0.0
H1316 H 0.34166 0.07189 0.11352 0.0
H1317 H 0.34174 0.07266 0.15072 0.0
H1318 H 0.39017 0.08694 0.15714 0.0
H1319 H 0.4157 0.05899 0.13636 0.0
H1320 H 0.84082 0.31206 0.21479 0.0
H1321 H 0.86534 0.33735 0.18119 0.0
H1322 H 0.80671 0.29023 0.11567 0.0
H1323 H 0.78232 0.26474 0.14902 0.0
H1324 H 0.8845 0.32066 0.12513 0.0
H1325 H 0.80875 0.36771 0.1239 0.0
H1326 H 0.81085 0.35059 0.15084 0.0
H1327 H 0.79765 0.33232 0.11614 0.0
C1328 C 0.83348 0.30682 0.19309 0.0
C1329 C 0.80973 0.28657 0.18446 0.0
C1330 C 0.8474 0.32127 0.17398 0.0
C1331 C 0.83759 0.31576 0.14613 0.0
C1332 C 0.81437 0.29492 0.1372 0.0
H1333 H 0.92506 0.40106 0.02059 0.0
H1334 H 0.89631 0.36492 0.04045 0.0
C1335 C 0.80047 0.28048 0.15627 0.0
C1336 C 0.85082 0.33296 0.12701 0.0
H1337 H 0.84517 0.38079 0.09635 0.0
C1338 C 0.87586 0.33361 0.1185 0.0
C1339 C 0.83937 0.34983 0.11865 0.0
C1340 C 0.81275 0.35035 0.12794 0.0
C1341 C 0.8901 0.35125 0.10226 0.0
C1342 C 0.87882 0.36845 0.09435 0.0
C1343 C 0.85353 0.36731 0.10227 0.0
C1344 C 0.89417 0.38996 0.08103 0.0
C1345 C 0.9175 0.35228 0.09476 0.0
C1346 C 0.90164 0.4159 0.09703 0.0
C1347 C 0.91794 0.43643 0.08586 0.0
C1348 C 0.92695 0.43138 0.0584 0.0
C1349 C 0.91847 0.40549 0.04186 0.0
C1350 C 0.9022 0.38485 0.05317 0.0
H1351 H 0.92438 0.33964 0.10523 0.0
H1352 H 0.91823 0.3455 0.07154 0.0
H1353 H 0.93113 0.37284 0.10092 0.0
H1354 H 0.8955 0.42016 0.11853 0.0
H1355 H 0.92402 0.45618 0.09906 0.0
H1356 H 0.70634 0.89723 0.22981 0.0
H1357 H 0.67983 0.91183 0.20209 0.0
H1358 H 0.65766 0.83642 0.14316 0.0
H1359 H 0.68382 0.82136 0.17136 0.0
H1360 H 0.68162 0.91606 0.14588 0.0
H1361 H 0.58709 0.84453 0.1663 0.0
H1362 H 0.61679 0.85081 0.18612 0.0
H1363 H 0.6112 0.83051 0.15093 0.0
C1364 C 0.69576 0.88364 0.21101 0.0
C1365 C 0.69696 0.85796 0.20306 0.0
C1366 C 0.68071 0.89211 0.19507 0.0
C1367 C 0.66633 0.87512 0.17078 0.0
C1368 C 0.66817 0.84974 0.16212 0.0
H1369 H 0.55297 0.90072 0.06604 0.0
H1370 H 0.58238 0.88227 0.08437 0.0
C1371 C 0.68336 0.84125 0.17809 0.0
C1372 C 0.64927 0.88416 0.15505 0.0
H1373 H 0.58556 0.87339 0.13783 0.0
C1374 C 0.66062 0.90663 0.14401 0.0
C1375 C 0.62185 0.87188 0.15252 0.0
C1376 C 0.60837 0.84822 0.16475 0.0
C1377 C 0.64538 0.91723 0.13073 0.0
C1378 C 0.6179 0.9054 0.1289 0.0
C1379 C 0.60659 0.88252 0.13928 0.0
C1380 C 0.60053 0.91694 0.1172 0.0
C1381 C 0.65889 0.94094 0.11861 0.0
C1382 C 0.6007 0.94253 0.12963 0.0
C1383 C 0.58398 0.95319 0.11913 0.0
C1384 C 0.56653 0.93849 0.09597 0.0
C1385 C 0.56637 0.91281 0.0836 0.0
C1386 C 0.58307 0.90213 0.09419 0.0
H1387 H 0.67951 0.94274 0.11414 0.0
H1388 H 0.64874 0.93998 0.09878 0.0
H1389 H 0.65886 0.95901 0.13415 0.0
H1390 H 0.61359 0.95421 0.14774 0.0
H1391 H 0.58486 0.97307 0.12909 0.0
H1392 H 0.22656 0.72609 0.16386 0.0
H1393 H 0.20897 0.69609 0.1183 0.0
H1394 H 0.17839 0.63174 0.16027 0.0
H1395 H 0.19648 0.66148 0.20564 0.0
H1396 H 0.2011 0.61828 0.10815 0.0
H1397 H 0.13071 0.67012 0.09912 0.0
H1398 H 0.16478 0.68934 0.10236 0.0
H1399 H 0.14909 0.6762 0.13155 0.0
C1400 C 0.21612 0.7055 0.16325 0.0
C1401 C 0.21261 0.696 0.18815 0.0
C1402 C 0.20618 0.68844 0.13728 0.0
C1403 C 0.19216 0.66181 0.13603 0.0
C1404 C 0.18921 0.65224 0.16082 0.0
H1405 H 0.0786 0.52708 0.06742 0.0
H1406 H 0.12018 0.56018 0.08604 0.0
C1407 C 0.19941 0.6692 0.1867 0.0
C1408 C 0.17868 0.64405 0.10954 0.0
H1409 H 0.12448 0.62973 0.06784 0.0
C1410 C 0.18472 0.62102 0.09885 0.0
C1411 C 0.1575 0.64786 0.09726 0.0
C1412 C 0.14992 0.6721 0.10814 0.0
C1413 C 0.16892 0.60079 0.0776 0.0
C1414 C 0.14641 0.60363 0.06715 0.0
C1415 C 0.14178 0.62764 0.07595 0.0
C1416 C 0.12478 0.58072 0.05205 0.0
C1417 C 0.17569 0.57602 0.06757 0.0
C1418 C 0.11359 0.58117 0.02664 0.0
C1419 C 0.08968 0.5622 0.01601 0.0
C1420 C 0.07667 0.54288 0.0309 0.0
C1421 C 0.08842 0.54179 0.05557 0.0
C1422 C 0.11231 0.56049 0.06601 0.0
H1423 H 0.19712 0.58038 0.0688 0.0
H1424 H 0.16676 0.56222 0.08146 0.0
H1425 H 0.16832 0.56611 0.04549 0.0
H1426 H 0.12266 0.59694 0.0159 0.0
H1427 H 0.08053 0.56376 0.99739 0.0
H1428 H 0.2851 0.77234 0.83845 0.0
H1429 H 0.30668 0.80192 0.88274 0.0
H1430 H 0.34256 0.86315 0.8377 0.0
H1431 H 0.32032 0.83397 0.79381 0.0
H1432 H 0.35613 0.82036 0.89406 0.0
H1433 H 0.32336 0.90597 0.90685 0.0
H1434 H 0.30681 0.87512 0.88259 0.0
H1435 H 0.33471 0.89921 0.87184 0.0
C1436 C 0.29721 0.79233 0.83827 0.0
C1437 C 0.30105 0.80105 0.81293 0.0
C1438 C 0.30944 0.80921 0.86352 0.0
C1439 C 0.32586 0.83497 0.86373 0.0
C1440 C 0.32928 0.84373 0.83837 0.0
H1441 H 0.47173 0.92147 0.92581 0.0
H1442 H 0.43002 0.88849 0.90829 0.0
C1443 C 0.31678 0.827 0.81323 0.0
C1444 C 0.34219 0.85152 0.8893 0.0
H1445 H 0.36812 0.91552 0.92516 0.0
C1446 C 0.35816 0.84099 0.90143 0.0
C1447 C 0.34448 0.87827 0.89965 0.0
C1448 C 0.32615 0.89014 0.88972 0.0
C1449 C 0.37812 0.85711 0.92139 0.0
C1450 C 0.38266 0.8845 0.92878 0.0
C1451 C 0.36497 0.89456 0.91904 0.0
C1452 C 0.40791 0.90322 0.94191 0.0
C1453 C 0.39508 0.84483 0.93323 0.0
C1454 C 0.40935 0.92281 0.96649 0.0
C1455 C 0.43342 0.94196 0.97656 0.0
C1456 C 0.45613 0.94184 0.9619 0.0
C1457 C 0.45456 0.92199 0.9376 0.0
C1458 C 0.43074 0.90294 0.92772 0.0
H1459 H 0.38378 0.82436 0.93476 0.0
H1460 H 0.41119 0.8439 0.91879 0.0
H1461 H 0.40362 0.85643 0.95448 0.0
H1462 H 0.39186 0.92359 0.97747 0.0
H1463 H 0.43409 0.95744 0.99498 0.0
H1464 H 0.24158 0.29258 0.82702 0.0
H1465 H 0.21549 0.31846 0.85217 0.0
H1466 H 0.17727 0.31172 0.7733 0.0
H1467 H 0.20269 0.28524 0.74819 0.0
H1468 H 0.21187 0.3658 0.84677 0.0
H1469 H 0.11541 0.28784 0.82183 0.0
H1470 H 0.14559 0.28095 0.81648 0.0
H1471 H 0.13355 0.29387 0.79102 0.0
C1472 C 0.22738 0.29628 0.81506 0.0
C1473 C 0.22394 0.28631 0.78562 0.0
C1474 C 0.21256 0.31127 0.82947 0.0
C1475 C 0.19392 0.31665 0.81479 0.0
C1476 C 0.19096 0.3073 0.78529 0.0
H1477 H 0.08879 0.40708 0.85457 0.0
H1478 H 0.11434 0.37948 0.83274 0.0
C1479 C 0.20571 0.29228 0.7709 0.0
C1480 C 0.17798 0.33248 0.83014 0.0
H1481 H 0.11522 0.3313 0.84157 0.0
C1482 C 0.19074 0.35816 0.84582 0.0
C1483 C 0.15036 0.32259 0.82901 0.0
C1484 C 0.13538 0.29472 0.81392 0.0
C1485 C 0.17672 0.37442 0.8596 0.0
C1486 C 0.1491 0.36467 0.8581 0.0
C1487 C 0.13635 0.33888 0.84268 0.0
C1488 C 0.13309 0.38104 0.87187 0.0
C1489 C 0.19163 0.40222 0.87494 0.0
C1490 C 0.13462 0.39082 0.90131 0.0
C1491 C 0.1198 0.4065 0.91399 0.0
C1492 C 0.10293 0.41274 0.89756 0.0
C1493 C 0.10116 0.40249 0.86809 0.0
C1494 C 0.11595 0.38679 0.85547 0.0
H1495 H 0.21215 0.40872 0.86842 0.0
H1496 H 0.18219 0.41618 0.87104 0.0
H1497 H 0.19189 0.40325 0.89801 0.0
H1498 H 0.14722 0.38621 0.91457 0.0
H1499 H 0.12142 0.41355 0.93674 0.0
H1500 H 0.7249 0.24489 0.84835 0.0
H1501 H 0.70347 0.21803 0.88196 0.0
H1502 H 0.69717 0.1475 0.81855 0.0
H1503 H 0.71838 0.17416 0.78502 0.0
H1504 H 0.6549 0.18103 0.87767 0.0
H1505 H 0.72908 0.13454 0.88569 0.0
H1506 H 0.73578 0.16348 0.8714 0.0
H1507 H 0.71973 0.13126 0.84965 0.0
C1508 C 0.71908 0.22364 0.84171 0.0
C1509 C 0.72379 0.21154 0.8143 0.0
C1510 C 0.70696 0.20837 0.86093 0.0
C1511 C 0.69943 0.18081 0.853 0.0
C1512 C 0.70365 0.16876 0.82543 0.0
H1513 H 0.60306 0.04181 0.89474 0.0
H1514 H 0.6342 0.07765 0.87711 0.0
C1515 C 0.71576 0.18399 0.80628 0.0
C1516 C 0.68574 0.16437 0.87279 0.0
H1517 H 0.68588 0.11235 0.89956 0.0
C1518 C 0.66185 0.16632 0.88291 0.0
C1519 C 0.69506 0.14544 0.87989 0.0
C1520 C 0.72146 0.1437 0.87134 0.0
C1521 C 0.64611 0.14857 0.89822 0.0
C1522 C 0.65475 0.12863 0.90383 0.0
C1523 C 0.67929 0.12759 0.89506 0.0
C1524 C 0.63741 0.10699 0.9159 0.0
C1525 C 0.61973 0.15027 0.90685 0.0
C1526 C 0.62932 0.11156 0.9438 0.0
C1527 C 0.61146 0.09102 0.95403 0.0
C1528 C 0.60145 0.06569 0.93641 0.0
C1529 C 0.61028 0.06111 0.90879 0.0
C1530 C 0.62813 0.08155 0.89869 0.0
H1531 H 0.61458 0.16468 0.89758 0.0
H1532 H 0.6044 0.13069 0.90021 0.0
H1533 H 0.61973 0.15645 0.93022 0.0
H1534 H 0.63655 0.13105 0.9575 0.0
H1535 H 0.60512 0.0951 0.97546 0.0
H1536 H 0.87843 0.69179 0.82561 0.0
H1537 H 0.89855 0.66044 0.83423 0.0
H1538 H 0.8724 0.66941 0.91962 0.0
H1539 H 0.85183 0.70037 0.91106 0.0
H1540 H 0.93776 0.67064 0.87689 0.0
H1541 H 0.84828 0.58867 0.88877 0.0
H1542 H 0.84775 0.61476 0.87233 0.0
H1543 H 0.85031 0.62039 0.91017 0.0
C1544 C 0.87666 0.68682 0.84611 0.0
C1545 C 0.86349 0.69856 0.86764 0.0
C1546 C 0.88827 0.66901 0.85103 0.0
C1547 C 0.88669 0.66237 0.87744 0.0
C1548 C 0.8735 0.67396 0.89895 0.0
H1549 H 0.94818 0.56602 0.9543 0.0
H1550 H 0.92515 0.59397 0.94299 0.0
C1551 C 0.862 0.69186 0.8941 0.0
C1552 C 0.89979 0.64419 0.88292 0.0
H1553 H 0.88862 0.58511 0.90065 0.0
C1554 C 0.92703 0.65185 0.88191 0.0
C1555 C 0.88573 0.61978 0.8896 0.0
C1556 C 0.85638 0.61021 0.89009 0.0
C1557 C 0.94069 0.63602 0.88801 0.0
C1558 C 0.92664 0.61155 0.89465 0.0
C1559 C 0.89936 0.60385 0.89555 0.0
C1560 C 0.93996 0.59383 0.90101 0.0
C1561 C 0.97008 0.64604 0.88809 0.0
C1562 C 0.95551 0.584 0.88097 0.0
C1563 C 0.96895 0.56828 0.88747 0.0
C1564 C 0.9669 0.56179 0.91409 0.0
C1565 C 0.9506 0.57099 0.93379 0.0
C1566 C 0.93725 0.58681 0.92729 0.0
H1567 H 0.97792 0.66772 0.89029 0.0
H1568 H 0.97864 0.64105 0.90556 0.0
H1569 H 0.97657 0.63672 0.86779 0.0
H1570 H 0.95746 0.58869 0.86033 0.0
H1571 H 0.98146 0.56177 0.87184 0.0
H1572 H 0.19467 0.38277 0.21466 0.0
H1573 H 0.1703 0.40167 0.18978 0.0
H1574 H 0.13533 0.32603 0.13317 0.0
H1575 H 0.15866 0.30651 0.1591 0.0
H1576 H 0.16978 0.40692 0.13684 0.0
H1577 H 0.07157 0.3444 0.16018 0.0
H1578 H 0.10098 0.34531 0.1769 0.0
H1579 H 0.09119 0.32613 0.14152 0.0
C1580 C 0.18154 0.36998 0.19716 0.0
C1581 C 0.17827 0.34295 0.18929 0.0
C1582 C 0.16779 0.38092 0.18275 0.0
C1583 C 0.15053 0.36521 0.15995 0.0
C1584 C 0.14801 0.33843 0.15117 0.0
H1585 H 0.08519 0.43672 0.05034 0.0
H1586 H 0.11007 0.41426 0.06925 0.0
C1587 C 0.16165 0.32736 0.16578 0.0
C1588 C 0.13522 0.37712 0.14578 0.0
H1589 H 0.07315 0.37343 0.13055 0.0
C1590 C 0.14864 0.39955 0.1354 0.0
C1591 C 0.10761 0.36776 0.1443 0.0
C1592 C 0.09194 0.34474 0.15654 0.0
C1593 C 0.1353 0.413 0.12382 0.0
C1594 C 0.10772 0.40331 0.12177 0.0
C1595 C 0.09429 0.38076 0.13195 0.0
C1596 C 0.09234 0.41667 0.10996 0.0
C1597 C 0.15094 0.43798 0.11486 0.0
C1598 C 0.07344 0.42482 0.12615 0.0
C1599 C 0.05866 0.43713 0.11513 0.0
C1600 C 0.06247 0.44163 0.08763 0.0
C1601 C 0.08145 0.4334 0.07147 0.0
C1602 C 0.09603 0.42086 0.08242 0.0
H1603 H 0.17073 0.44669 0.12527 0.0
H1604 H 0.15329 0.43345 0.09168 0.0
H1605 H 0.141 0.45292 0.11993 0.0
H1606 H 0.07009 0.42166 0.14739 0.0
H1607 H 0.04392 0.44267 0.12804 0.0
H1608 H 0.1934 0.68523 0.75495 0.0
H1609 H 0.16685 0.65555 0.78351 0.0
H1610 H 0.22656 0.68938 0.85035 0.0
H1611 H 0.25328 0.7188 0.82175 0.0
H1612 H 0.20987 0.63627 0.83856 0.0
H1613 H 0.12509 0.67141 0.8516 0.0
H1614 H 0.13259 0.66249 0.81524 0.0
H1615 H 0.15568 0.6897 0.8389 0.0
C1616 C 0.2006 0.68658 0.77593 0.0
C1617 C 0.22518 0.70441 0.78631 0.0
C1618 C 0.18545 0.6697 0.79222 0.0
C1619 C 0.19455 0.67065 0.81925 0.0
C1620 C 0.21912 0.68849 0.82963 0.0
H1621 H 0.12418 0.57785 0.94367 0.0
H1622 H 0.15299 0.61145 0.92061 0.0
C1623 C 0.23435 0.70522 0.81327 0.0
C1624 C 0.17903 0.65213 0.83613 0.0
H1625 H 0.11915 0.63008 0.86348 0.0
C1626 C 0.19013 0.63508 0.84425 0.0
C1627 C 0.15338 0.65083 0.84373 0.0
C1628 C 0.14107 0.66977 0.83718 0.0
C1629 C 0.17586 0.61606 0.85889 0.0
C1630 C 0.14997 0.61421 0.86559 0.0
C1631 C 0.13903 0.63158 0.85807 0.0
C1632 C 0.1335 0.59361 0.87941 0.0
C1633 C 0.18818 0.59754 0.86641 0.0
C1634 C 0.11323 0.57259 0.86372 0.0
C1635 C 0.09693 0.55338 0.87669 0.0
C1636 C 0.1005 0.55504 0.90566 0.0
C1637 C 0.12103 0.57603 0.9213 0.0
C1638 C 0.13746 0.59519 0.90821 0.0
H1639 H 0.20746 0.5997 0.85693 0.0
H1640 H 0.19085 0.60157 0.88974 0.0
H1641 H 0.17518 0.57683 0.85915 0.0
H1642 H 0.10996 0.57116 0.84146 0.0
H1643 H 0.08123 0.5375 0.86411 0.0
H1644 H 0.31318 0.13585 0.83509 0.0
H1645 H 0.33872 0.11945 0.86241 0.0
H1646 H 0.39969 0.13242 0.80265 0.0
H1647 H 0.37464 0.14924 0.77571 0.0
H1648 H 0.35488 0.07566 0.84218 0.0
H1649 H 0.44021 0.16554 0.87848 0.0
H1650 H 0.41005 0.16654 0.86536 0.0
H1651 H 0.43319 0.15799 0.84111 0.0
C1652 C 0.33228 0.13573 0.82815 0.0
C1653 C 0.34185 0.14382 0.8032 0.0
C1654 C 0.34677 0.12619 0.84366 0.0
C1655 C 0.37125 0.12493 0.83475 0.0
C1656 C 0.38108 0.1336 0.81025 0.0
H1657 H 0.48723 0.06207 0.87459 0.0
H1658 H 0.46031 0.08244 0.85531 0.0
C1659 C 0.3666 0.14299 0.7947 0.0
C1660 C 0.38589 0.11301 0.84984 0.0
H1661 H 0.44499 0.12477 0.88155 0.0
C1662 C 0.37446 0.08647 0.85113 0.0
C1663 C 0.41148 0.1271 0.8614 0.0
C1664 C 0.42439 0.15594 0.8618 0.0
C1665 C 0.38827 0.07337 0.86267 0.0
C1666 C 0.41406 0.08733 0.87373 0.0
C1667 C 0.42528 0.11403 0.87298 0.0
C1668 C 0.43004 0.07446 0.88545 0.0
C1669 C 0.37546 0.04444 0.86192 0.0
C1670 C 0.42211 0.06328 0.90896 0.0
C1671 C 0.43737 0.05135 0.9199 0.0
C1672 C 0.46102 0.05048 0.90769 0.0
C1673 C 0.46896 0.06189 0.88425 0.0
C1674 C 0.45368 0.07378 0.87333 0.0
H1675 H 0.35847 0.03525 0.84662 0.0
H1676 H 0.38952 0.03366 0.85616 0.0
H1677 H 0.3684 0.04202 0.88319 0.0
H1678 H 0.4042 0.06395 0.91901 0.0
H1679 H 0.43053 0.04265 0.93783 0.0
H1680 H 0.76472 0.29886 0.85193 0.0
H1681 H 0.79026 0.33135 0.89269 0.0
H1682 H 0.84849 0.36516 0.83673 0.0
H1683 H 0.82305 0.33293 0.79608 0.0
H1684 H 0.841 0.33554 0.9074 0.0
H1685 H 0.8386 0.43003 0.88981 0.0
H1686 H 0.81483 0.39871 0.87346 0.0
H1687 H 0.84603 0.41027 0.85813 0.0
C1688 C 0.78269 0.31365 0.84837 0.0
C1689 C 0.79207 0.31346 0.82099 0.0
C1690 C 0.79723 0.33208 0.87161 0.0
C1691 C 0.82103 0.35083 0.86764 0.0
C1692 C 0.82989 0.35119 0.84017 0.0
H1693 H 0.96969 0.4166 0.92587 0.0
H1694 H 0.92476 0.38795 0.91392 0.0
C1695 C 0.81549 0.33269 0.81701 0.0
C1696 C 0.83825 0.36828 0.89201 0.0
H1697 H 0.87747 0.43194 0.9148 0.0
C1698 C 0.84846 0.35673 0.90968 0.0
C1699 C 0.84753 0.39591 0.89537 0.0
C1700 C 0.83595 0.40947 0.87836 0.0
C1701 C 0.86966 0.3719 0.92855 0.0
C1702 C 0.881 0.39907 0.92931 0.0
C1703 C 0.86896 0.41101 0.91392 0.0
C1704 C 0.90766 0.41427 0.94126 0.0
C1705 C 0.88065 0.3585 0.94632 0.0
C1706 C 0.91298 0.43856 0.96069 0.0
C1707 C 0.93877 0.45501 0.96751 0.0
C1708 C 0.95942 0.44742 0.95474 0.0
C1709 C 0.95406 0.42273 0.93615 0.0
C1710 C 0.92841 0.40627 0.92955 0.0
H1711 H 0.86514 0.34131 0.95149 0.0
H1712 H 0.89539 0.35111 0.93423 0.0
H1713 H 0.89017 0.37227 0.96631 0.0
H1714 H 0.89721 0.44523 0.96961 0.0
H1715 H 0.94252 0.47417 0.98157 0.0
H1716 H 0.75021 0.8133 0.82469 0.0
H1717 H 0.72617 0.84062 0.85161 0.0
H1718 H 0.65506 0.7881 0.80612 0.0
H1719 H 0.67879 0.76038 0.77984 0.0
H1720 H 0.69772 0.86685 0.83045 0.0
H1721 H 0.63306 0.79548 0.88801 0.0
H1722 H 0.66175 0.79098 0.87097 0.0
H1723 H 0.63214 0.78297 0.85048 0.0
C1724 C 0.72936 0.80715 0.82099 0.0
C1725 C 0.71643 0.7843 0.80045 0.0
C1726 C 0.71564 0.82298 0.83618 0.0
C1727 C 0.68864 0.81628 0.8313 0.0
C1728 C 0.67572 0.79346 0.81082 0.0
H1729 H 0.56857 0.886 0.88768 0.0
H1730 H 0.59407 0.85835 0.86553 0.0
C1731 C 0.6894 0.77767 0.79565 0.0
C1732 C 0.67414 0.83366 0.8466 0.0
H1733 H 0.62254 0.83415 0.88896 0.0
C1734 C 0.68144 0.85977 0.84347 0.0
C1735 C 0.65275 0.82446 0.86349 0.0
C1736 C 0.64456 0.79702 0.86871 0.0
C1737 C 0.66762 0.87664 0.85611 0.0
C1738 C 0.64612 0.86739 0.87287 0.0
C1739 C 0.63895 0.84132 0.87614 0.0
C1740 C 0.63063 0.88431 0.88684 0.0
C1741 C 0.6757 0.90397 0.85062 0.0
C1742 C 0.64244 0.90801 0.90667 0.0
C1743 C 0.6279 0.92398 0.91933 0.0
C1744 C 0.60106 0.91665 0.9126 0.0
C1745 C 0.5892 0.8926 0.89313 0.0
C1746 C 0.60377 0.87663 0.88054 0.0
H1747 H 0.68772 0.90562 0.83169 0.0
H1748 H 0.65841 0.90961 0.84754 0.0
H1749 H 0.68752 0.91827 0.8691 0.0
H1750 H 0.663 0.91421 0.91239 0.0
H1751 H 0.63786 0.94238 0.93398 0.0
H1752 H 0.80046 0.71167 0.15606 0.0
H1753 H 0.82807 0.6876 0.13041 0.0
H1754 H 0.84025 0.66422 0.20638 0.0
H1755 H 0.81283 0.68838 0.23187 0.0
H1756 H 0.87847 0.69074 0.13668 0.0
H1757 H 0.81414 0.59376 0.1519 0.0
H1758 H 0.80459 0.62273 0.16088 0.0
H1759 H 0.82554 0.61706 0.18477 0.0
C1760 C 0.8094 0.70177 0.16733 0.0
C1761 C 0.80437 0.70177 0.19592 0.0
C1762 C 0.82503 0.6878 0.15262 0.0
C1763 C 0.83587 0.67346 0.16618 0.0
C1764 C 0.83158 0.67436 0.19508 0.0
H1765 H 0.96101 0.61049 0.10821 0.0
H1766 H 0.93486 0.63724 0.13079 0.0
C1767 C 0.81591 0.68821 0.20968 0.0
C1768 C 0.8515 0.65751 0.1502 0.0
H1769 H 0.85591 0.59555 0.13392 0.0
C1770 C 0.87344 0.66991 0.13599 0.0
C1771 C 0.84487 0.63015 0.14884 0.0
C1772 C 0.82085 0.61508 0.16217 0.0
C1773 C 0.88915 0.65596 0.12113 0.0
C1774 C 0.88307 0.62885 0.1207 0.0
C1775 C 0.86081 0.61634 0.13438 0.0
C1776 C 0.89939 0.61303 0.1062 0.0
C1777 C 0.91191 0.67033 0.10565 0.0
C1778 C 0.88825 0.59011 0.08508 0.0
C1779 C 0.90313 0.57455 0.07227 0.0
C1780 C 0.92959 0.58135 0.08038 0.0
C1781 C 0.94072 0.60443 0.10146 0.0
C1782 C 0.92582 0.61999 0.11422 0.0
H1783 H 0.9096 0.68836 0.10126 0.0
H1784 H 0.93002 0.67642 0.11892 0.0
H1785 H 0.91426 0.65749 0.08532 0.0
H1786 H 0.86788 0.58412 0.0786 0.0
H1787 H 0.89365 0.55677 0.05652 0.0
H1788 H 0.25733 0.78014 0.17504 0.0
H1789 H 0.28181 0.8067 0.14266 0.0
H1790 H 0.35307 0.82273 0.19006 0.0
H1791 H 0.32868 0.79645 0.22273 0.0
H1792 H 0.31183 0.85962 0.15586 0.0
H1793 H 0.37151 0.79823 0.10843 0.0
H1794 H 0.34291 0.78611 0.12806 0.0
H1795 H 0.37354 0.80611 0.14638 0.0
C1796 C 0.27817 0.78953 0.17874 0.0
C1797 C 0.29105 0.78652 0.20164 0.0
C1798 C 0.29214 0.80446 0.16005 0.0
C1799 C 0.31926 0.81635 0.16376 0.0
C1800 C 0.33221 0.81323 0.18648 0.0
H1801 H 0.42714 0.95139 0.12171 0.0
H1802 H 0.39429 0.91826 0.14135 0.0
C1803 C 0.31824 0.79832 0.2052 0.0
C1804 C 0.33394 0.83321 0.14482 0.0
H1805 H 0.38617 0.84278 0.10252 0.0
C1806 C 0.32785 0.85576 0.14386 0.0
C1807 C 0.3545 0.82787 0.12881 0.0
C1808 C 0.36086 0.80312 0.12769 0.0
C1809 C 0.34274 0.8739 0.12853 0.0
C1810 C 0.36444 0.86948 0.11415 0.0
C1811 C 0.36964 0.84621 0.1138 0.0
C1812 C 0.38325 0.88978 0.10147 0.0
C1813 C 0.33542 0.89787 0.12825 0.0
C1814 C 0.38821 0.88454 0.07256 0.0
C1815 C 0.40713 0.90349 0.0612 0.0
C1816 C 0.42152 0.92778 0.07872 0.0
C1817 C 0.41635 0.93291 0.10762 0.0
C1818 C 0.39745 0.91407 0.11888 0.0
H1819 H 0.31449 0.89441 0.13255 0.0
H1820 H 0.3471 0.91458 0.14503 0.0
H1821 H 0.33944 0.90362 0.10762 0.0
H1822 H 0.37755 0.86577 0.05887 0.0
H1823 H 0.41073 0.89898 0.03886 0.0
H1824 H 0.72056 0.15891 0.19132 0.0
H1825 H 0.69462 0.12667 0.15108 0.0
H1826 H 0.72384 0.18254 0.09812 0.0
H1827 H 0.74875 0.21528 0.1389 0.0
H1828 H 0.67458 0.16522 0.09328 0.0
H1829 H 0.70441 0.07802 0.08183 0.0
H1830 H 0.69707 0.0876 0.11802 0.0
H1831 H 0.72362 0.10967 0.10291 0.0
C1832 C 0.72189 0.16399 0.17089 0.0
C1833 C 0.73638 0.18946 0.16805 0.0
C1834 C 0.70729 0.1455 0.1478 0.0
C1835 C 0.7076 0.15196 0.12134 0.0
C1836 C 0.72336 0.17705 0.11825 0.0
H1837 H 0.58547 0.02473 0.00927 0.0
H1838 H 0.62928 0.05747 0.02083 0.0
C1839 C 0.73751 0.19572 0.14149 0.0
C1840 C 0.68845 0.13412 0.09855 0.0
H1841 H 0.65787 0.06893 0.06988 0.0
C1842 C 0.67148 0.14426 0.0875 0.0
C1843 C 0.68462 0.10685 0.0902 0.0
C1844 C 0.70367 0.09505 0.09866 0.0
C1845 C 0.64935 0.12756 0.07081 0.0
C1846 C 0.64362 0.10004 0.06589 0.0
C1847 C 0.66197 0.09005 0.07428 0.0
C1848 C 0.61718 0.08162 0.05653 0.0
C1849 C 0.63162 0.1395 0.05979 0.0
C1850 C 0.59605 0.08432 0.07284 0.0
C1851 C 0.57125 0.06591 0.0662 0.0
C1852 C 0.56708 0.04435 0.04316 0.0
C1853 C 0.58816 0.04158 0.02671 0.0
C1854 C 0.61312 0.06012 0.03338 0.0
H1855 H 0.64291 0.15904 0.05553 0.0
H1856 H 0.62072 0.12655 0.04007 0.0
H1857 H 0.6174 0.14254 0.07602 0.0
H1858 H 0.59889 0.10029 0.09133 0.0
H1859 H 0.55538 0.06834 0.07941 0.0
H1860 H 0.71759 0.65471 0.75624 0.0
H1861 H 0.68462 0.62368 0.7782 0.0
H1862 H 0.63637 0.67286 0.78702 0.0
H1863 H 0.67014 0.7048 0.76644 0.0
H1864 H 0.64316 0.6634 0.83546 0.0
H1865 H 0.61583 0.5684 0.75788 0.0
H1866 H 0.65053 0.58155 0.76325 0.0
H1867 H 0.63374 0.59902 0.74823 0.0
C1868 C 0.69966 0.65857 0.76224 0.0
C1869 C 0.69655 0.6823 0.76012 0.0
C1870 C 0.68069 0.64068 0.77456 0.0
C1871 C 0.65789 0.6458 0.78411 0.0
C1872 C 0.65382 0.66851 0.77981 0.0
H1873 H 0.54664 0.53148 0.86547 0.0
H1874 H 0.56755 0.55915 0.83276 0.0
C1875 C 0.67302 0.68665 0.76786 0.0
C1876 C 0.64034 0.62946 0.80195 0.0
H1877 H 0.61043 0.56589 0.80721 0.0
C1878 C 0.63553 0.64209 0.82905 0.0
C1879 C 0.63013 0.60168 0.79357 0.0
C1880 C 0.63261 0.58696 0.76401 0.0
C1881 C 0.6217 0.62768 0.84836 0.0
C1882 C 0.61341 0.59984 0.8408 0.0
C1883 C 0.61725 0.58723 0.81328 0.0
C1884 C 0.60074 0.58337 0.86101 0.0
C1885 C 0.61603 0.64257 0.87654 0.0
C1886 C 0.61257 0.58752 0.88769 0.0
C1887 C 0.60034 0.57206 0.9067 0.0
C1888 C 0.57652 0.55166 0.89893 0.0
C1889 C 0.5651 0.547 0.87194 0.0
C1890 C 0.57701 0.56282 0.85324 0.0
H1891 H 0.61537 0.66214 0.87511 0.0
H1892 H 0.5972 0.63147 0.88445 0.0
H1893 H 0.63184 0.64602 0.89221 0.0
H1894 H 0.63131 0.60265 0.89381 0.0
H1895 H 0.60962 0.57588 0.9273 0.0
H1896 H 0.34947 0.67915 0.82916 0.0
H1897 H 0.3776 0.66454 0.85516 0.0
H1898 H 0.32283 0.58537 0.83474 0.0
H1899 H 0.29457 0.5999 0.80919 0.0
H1900 H 0.3394 0.60011 0.88998 0.0
H1901 H 0.42405 0.62273 0.82119 0.0
H1902 H 0.41386 0.65037 0.83653 0.0
H1903 H 0.3925 0.62295 0.81149 0.0
C1904 C 0.34359 0.6586 0.83003 0.0
C1905 C 0.31985 0.64067 0.81708 0.0
C1906 C 0.35967 0.65027 0.84488 0.0
C1907 C 0.35248 0.62378 0.84665 0.0
C1908 C 0.32877 0.6059 0.83374 0.0
H1909 H 0.44665 0.53574 0.8782 0.0
H1910 H 0.41931 0.55611 0.86022 0.0
C1911 C 0.31263 0.61424 0.81914 0.0
C1912 C 0.36949 0.6144 0.86179 0.0
H1913 H 0.42935 0.60711 0.86117 0.0
C1914 C 0.35912 0.60171 0.88377 0.0
C1915 C 0.39515 0.61634 0.85353 0.0
C1916 C 0.40703 0.62861 0.82924 0.0
C1917 C 0.37349 0.5905 0.89736 0.0
C1918 C 0.39916 0.5925 0.88911 0.0
C1919 C 0.40971 0.60567 0.86755 0.0
C1920 C 0.41484 0.57951 0.90099 0.0
C1921 C 0.3607 0.57576 0.91962 0.0
C1922 C 0.42145 0.58578 0.93002 0.0
C1923 C 0.43685 0.57374 0.94054 0.0
C1924 C 0.44605 0.55528 0.92224 0.0
C1925 C 0.43943 0.54925 0.89316 0.0
C1926 C 0.424 0.56115 0.88273 0.0
H1927 H 0.33919 0.5709 0.91889 0.0
H1928 H 0.36518 0.55722 0.9171 0.0
H1929 H 0.3683 0.5882 0.94081 0.0
H1930 H 0.41507 0.60027 0.94451 0.0
H1931 H 0.44156 0.57898 0.963 0.0
H1932 H 0.34299 0.27394 0.7916 0.0
H1933 H 0.3662 0.29816 0.83669 0.0
H1934 H 0.31223 0.3414 0.85413 0.0
H1935 H 0.28988 0.31816 0.80816 0.0
H1936 H 0.35858 0.37331 0.86139 0.0
H1937 H 0.35548 0.29628 0.91728 0.0
H1938 H 0.36723 0.28807 0.88275 0.0
H1939 H 0.33464 0.28961 0.88648 0.0
C1940 C 0.33608 0.28854 0.8052 0.0
C1941 C 0.31494 0.29448 0.79653 0.0
C1942 C 0.34899 0.302 0.83118 0.0
C1943 C 0.34051 0.32107 0.84918 0.0
C1944 C 0.31893 0.32656 0.8407 0.0
H1945 H 0.44488 0.44003 0.98301 0.0
H1946 H 0.40453 0.40414 0.96542 0.0
C1947 C 0.30638 0.31354 0.81439 0.0
C1948 C 0.35668 0.33795 0.87452 0.0
H1949 H 0.39513 0.33607 0.92738 0.0
C1950 C 0.36583 0.36522 0.87644 0.0
C1951 C 0.36601 0.32747 0.89436 0.0
C1952 C 0.35502 0.29876 0.89524 0.0
C1953 C 0.38583 0.38194 0.8959 0.0
C1954 C 0.39706 0.37101 0.91355 0.0
C1955 C 0.38659 0.34416 0.91339 0.0
C1956 C 0.42189 0.38691 0.92889 0.0
C1957 C 0.39625 0.41095 0.89603 0.0
C1958 C 0.445 0.38821 0.91467 0.0
C1959 C 0.46797 0.40876 0.92456 0.0
C1960 C 0.46803 0.42803 0.94889 0.0
C1961 C 0.44541 0.4252 0.9645 0.0
C1962 C 0.42236 0.40475 0.9545 0.0
H1963 H 0.38451 0.41646 0.88182 0.0
H1964 H 0.39639 0.42277 0.91779 0.0
H1965 H 0.41667 0.4163 0.88914 0.0
H1966 H 0.44477 0.37463 0.89468 0.0
H1967 H 0.48523 0.41045 0.91225 0.0
H1968 H 0.66517 0.25868 0.90433 0.0
H1969 H 0.65888 0.292 0.94439 0.0
H1970 H 0.61795 0.31745 0.88838 0.0
H1971 H 0.62386 0.28429 0.84867 0.0
H1972 H 0.67627 0.34769 0.94903 0.0
H1973 H 0.56943 0.3074 0.95503 0.0
H1974 H 0.58852 0.28756 0.9378 0.0
H1975 H 0.57868 0.30786 0.91926 0.0
C1976 C 0.65449 0.27117 0.90077 0.0
C1977 C 0.64497 0.26896 0.87345 0.0
C1978 C 0.65103 0.2902 0.92358 0.0
C1979 C 0.63763 0.30687 0.91937 0.0
C1980 C 0.62793 0.30444 0.89216 0.0
H1981 H 0.63686 0.45426 0.95302 0.0
H1982 H 0.65196 0.41715 0.95045 0.0
C1983 C 0.63152 0.28566 0.86944 0.0
C1984 C 0.63479 0.32805 0.94262 0.0
H1985 H 0.58884 0.3551 0.96927 0.0
C1986 C 0.65718 0.34909 0.95422 0.0
C1987 C 0.60995 0.32954 0.95012 0.0
C1988 C 0.58529 0.30672 0.94013 0.0
C1989 C 0.65524 0.37279 0.97049 0.0
C1990 C 0.63035 0.37551 0.9746 0.0
C1991 C 0.60802 0.35333 0.96582 0.0
C1992 C 0.62679 0.40163 0.98255 0.0
C1993 C 0.67989 0.39503 0.98192 0.0
C1994 C 0.60809 0.40587 0.002 0.0
C1995 C 0.5989 0.4268 0.00287 0.0
C1996 C 0.60827 0.44385 0.98441 0.0
C1997 C 0.62892 0.44118 0.96717 0.0
C1998 C 0.63792 0.42015 0.96606 0.0
H1999 H 0.69466 0.38728 0.98832 0.0
H2000 H 0.6883 0.40565 0.96507 0.0
H2001 H 0.67624 0.4092 0.00039 0.0
H2002 H 0.59915 0.39185 0.01491 0.0
H2003 H 0.58292 0.42821 0.0162 0.0
H2004 H 0.69073 0.39685 0.22688 0.0
H2005 H 0.66846 0.41146 0.19421 0.0
H2006 H 0.63462 0.33132 0.14726 0.0
H2007 H 0.65662 0.31643 0.17995 0.0
H2008 H 0.66839 0.3926 0.1235 0.0
H2009 H 0.57523 0.3699 0.18003 0.0
H2010 H 0.60627 0.37945 0.1987 0.0
H2011 H 0.59374 0.3477 0.17525 0.0
C2012 C 0.67848 0.38231 0.20966 0.0
C2013 C 0.67535 0.35545 0.20607 0.0
C2014 C 0.66597 0.39072 0.19092 0.0
C2015 C 0.65002 0.37244 0.16838 0.0
C2016 C 0.647 0.34569 0.1645 0.0
H2017 H 0.53749 0.39373 0.06194 0.0
H2018 H 0.5635 0.37462 0.08459 0.0
C2019 C 0.65961 0.33725 0.18314 0.0
C2020 C 0.63563 0.38126 0.14964 0.0
H2021 H 0.57691 0.3886 0.14081 0.0
C2022 C 0.64837 0.39169 0.12713 0.0
C2023 C 0.60951 0.37977 0.1544 0.0
C2024 C 0.5952 0.36866 0.1784 0.0
C2025 C 0.63555 0.40087 0.10924 0.0
C2026 C 0.60959 0.40011 0.11452 0.0
C2027 C 0.59681 0.38922 0.1368 0.0
C2028 C 0.59543 0.41117 0.09788 0.0
C2029 C 0.64976 0.41098 0.08466 0.0
C2030 C 0.60489 0.43802 0.09749 0.0
C2031 C 0.59014 0.44899 0.08435 0.0
C2032 C 0.56552 0.43336 0.07157 0.0
C2033 C 0.55646 0.40631 0.07132 0.0
C2034 C 0.57124 0.39536 0.08441 0.0
H2035 H 0.66597 0.40312 0.07856 0.0
H2036 H 0.63633 0.40561 0.06594 0.0
H2037 H 0.65824 0.43276 0.0908 0.0
H2038 H 0.6233 0.45071 0.10815 0.0
H2039 H 0.59786 0.4698 0.08456 0.0
H2040 H 0.73572 0.67364 0.16128 0.0
H2041 H 0.70865 0.64955 0.11798 0.0
H2042 H 0.64685 0.67812 0.15328 0.0
H2043 H 0.67442 0.70324 0.19559 0.0
H2044 H 0.66555 0.61143 0.11113 0.0
H2045 H 0.64583 0.69174 0.07705 0.0
H2046 H 0.66974 0.69822 0.10484 0.0
H2047 H 0.63589 0.69229 0.11266 0.0
C2048 C 0.71632 0.67463 0.15955 0.0
C2049 C 0.70691 0.69009 0.18138 0.0
C2050 C 0.70102 0.66118 0.13484 0.0
C2051 C 0.67604 0.66273 0.13199 0.0
C2052 C 0.66646 0.67756 0.15441 0.0
H2053 H 0.53068 0.57154 0.07519 0.0
H2054 H 0.57165 0.60686 0.09164 0.0
C2055 C 0.68195 0.69149 0.17874 0.0
C2056 C 0.65878 0.64676 0.10704 0.0
H2057 H 0.61149 0.64809 0.06384 0.0
C2058 C 0.65436 0.61956 0.10009 0.0
C2059 C 0.64433 0.65739 0.0924 0.0
C2060 C 0.64948 0.68658 0.09699 0.0
C2061 C 0.63415 0.60247 0.08097 0.0
C2062 C 0.61813 0.61297 0.06859 0.0
C2063 C 0.62385 0.64024 0.0736 0.0
C2064 C 0.59279 0.59573 0.05511 0.0
C2065 C 0.62862 0.57314 0.07596 0.0
C2066 C 0.59111 0.57867 0.02863 0.0
C2067 C 0.56769 0.55852 0.01917 0.0
C2068 C 0.54594 0.5552 0.03626 0.0
C2069 C 0.54725 0.57357 0.06176 0.0
C2070 C 0.57054 0.59379 0.07108 0.0
H2071 H 0.64251 0.5682 0.08805 0.0
H2072 H 0.60853 0.56336 0.08213 0.0
H2073 H 0.62991 0.56491 0.05313 0.0
H2074 H 0.60822 0.58 0.01615 0.0
H2075 H 0.56716 0.5445 -0.0005 0.0
H2076 H 0.32091 0.6576 0.11978 0.0
H2077 H 0.33998 0.64212 0.0764 0.0
H2078 H 0.26333 0.59978 0.03737 0.0
H2079 H 0.24382 0.61605 0.08075 0.0
H2080 H 0.29258 0.56843 0.03998 0.0
H2081 H 0.35153 0.65176 0.99548 0.0
H2082 H 0.35675 0.65949 0.03313 0.0
H2083 H 0.32484 0.65344 0.0183 0.0
C2084 C 0.30798 0.64595 0.1017 0.0
C2085 C 0.28076 0.6379 0.10396 0.0
C2086 C 0.31899 0.63715 0.07674 0.0
C2087 C 0.30311 0.62006 0.05347 0.0
C2088 C 0.27594 0.61316 0.05499 0.0
H2089 H 0.38069 0.51124 0.96642 0.0
H2090 H 0.34894 0.53345 0.96471 0.0
C2091 C 0.26485 0.62221 0.07994 0.0
C2092 C 0.31503 0.60557 0.03059 0.0
H2093 H 0.36945 0.61575 0.99173 0.0
C2094 C 0.30882 0.57847 0.02848 0.0
C2095 C 0.336 0.61871 0.01547 0.0
C2096 C 0.34247 0.64743 0.01549 0.0
C2097 C 0.32512 0.5649 0.01489 0.0
C2098 C 0.34784 0.57878 0.00233 0.0
C2099 C 0.3522 0.60514 0.00151 0.0
C2100 C 0.36973 0.56831 0.99616 0.0
C2101 C 0.31933 0.53668 0.01699 0.0
C2102 C 0.39314 0.5816 0.01222 0.0
C2103 C 0.41162 0.56932 0.01267 0.0
C2104 C 0.40694 0.54331 0.99737 0.0
C2105 C 0.3848 0.53111 0.97887 0.0
C2106 C 0.36645 0.54368 0.97805 0.0
H2107 H 0.30271 0.5301 0.03065 0.0
H2108 H 0.31429 0.52355 0.99563 0.0
H2109 H 0.33664 0.53417 0.02574 0.0
H2110 H 0.39639 0.60082 0.02603 0.0
H2111 H 0.42902 0.57981 0.02615 0.0
H2112 H 0.29604 0.32749 0.23037 0.0
H2113 H 0.32144 0.35265 0.1974 0.0
H2114 H 0.36886 0.30249 0.18218 0.0
H2115 H 0.34355 0.27729 0.21557 0.0
H2116 H 0.3975 0.35565 0.18886 0.0
H2117 H 0.31471 0.32582 0.11164 0.0
H2118 H 0.3074 0.34066 0.14634 0.0
H2119 H 0.3137 0.31002 0.14061 0.0
C2120 C 0.31194 0.32189 0.22007 0.0
C2121 C 0.31773 0.30034 0.22522 0.0
C2122 C 0.32632 0.33616 0.20115 0.0
C2123 C 0.34655 0.32897 0.18686 0.0
C2124 C 0.35312 0.30814 0.19286 0.0
H2125 H 0.41762 0.39297 0.04275 0.0
H2126 H 0.39441 0.36307 0.07274 0.0
C2127 C 0.33881 0.29391 0.212 0.0
C2128 C 0.36079 0.34344 0.1658 0.0
H2129 H 0.35176 0.3627 0.10601 0.0
C2130 C 0.3876 0.357 0.17057 0.0
C2131 C 0.34785 0.34475 0.14172 0.0
C2132 C 0.31938 0.3293 0.13458 0.0
C2133 C 0.40164 0.37281 0.15251 0.0
C2134 C 0.38835 0.37541 0.12945 0.0
C2135 C 0.36179 0.36094 0.12397 0.0
C2136 C 0.40156 0.39355 0.11116 0.0
C2137 C 0.43056 0.38659 0.1583 0.0
C2138 C 0.41252 0.42064 0.12275 0.0
C2139 C 0.42574 0.43773 0.10573 0.0
C2140 C 0.42803 0.42803 0.07678 0.0
C2141 C 0.41619 0.40101 0.065 0.0
C2142 C 0.403 0.3839 0.08208 0.0
H2143 H 0.43889 0.37679 0.17128 0.0
H2144 H 0.44108 0.38718 0.1383 0.0
H2145 H 0.43407 0.40715 0.1702 0.0
H2146 H 0.41102 0.42853 0.14502 0.0
H2147 H 0.43453 0.45847 0.11539 0.0
H2148 H 0.79114 0.67562 0.7342 0.0
H2149 H 0.81792 0.65043 0.70968 0.0
H2150 H 0.83055 0.69414 0.64421 0.0
H2151 H 0.80468 0.72012 0.66928 0.0
H2152 H 0.81169 0.61788 0.65854 0.0
H2153 H 0.90418 0.70073 0.66184 0.0
H2154 H 0.87671 0.70441 0.68212 0.0
H2155 H 0.87743 0.70478 0.64514 0.0
C2156 C 0.79968 0.68003 0.71464 0.0
C2157 C 0.79545 0.69991 0.70365 0.0
C2158 C 0.81501 0.6655 0.70057 0.0
C2159 C 0.82668 0.67047 0.67517 0.0
C2160 C 0.82234 0.69018 0.66403 0.0
H2161 H 0.92052 0.59333 0.5594 0.0
H2162 H 0.89399 0.6203 0.58098 0.0
C2163 C 0.80714 0.70484 0.67822 0.0
C2164 C 0.84279 0.65458 0.66021 0.0
H2165 H 0.90314 0.65908 0.63419 0.0
C2166 C 0.83171 0.62696 0.65333 0.0
C2167 C 0.86898 0.66625 0.65322 0.0
C2168 C 0.88264 0.69565 0.66118 0.0
C2169 C 0.84588 0.61084 0.63965 0.0
C2170 C 0.87205 0.6225 0.63281 0.0
C2171 C 0.88308 0.6501 0.63933 0.0
C2172 C 0.88844 0.60631 0.6197 0.0
C2173 C 0.83259 0.58138 0.63231 0.0
C2174 C 0.89451 0.58967 0.63433 0.0
C2175 C 0.90969 0.57429 0.6221 0.0
C2176 C 0.91928 0.57509 0.59483 0.0
C2177 C 0.91331 0.59195 0.58027 0.0
C2178 C 0.89824 0.60751 0.59265 0.0
H2179 H 0.81102 0.57592 0.6324 0.0
H2180 H 0.83814 0.57256 0.61118 0.0
H2181 H 0.83874 0.57267 0.64817 0.0
H2182 H 0.8875 0.5886 0.65534 0.0
H2183 H 0.91354 0.56139 0.63389 0.0
H2184 H 0.29834 0.75837 0.65321 0.0
H2185 H 0.31904 0.7844 0.61859 0.0
H2186 H 0.33928 0.85529 0.68462 0.0
H2187 H 0.31894 0.82945 0.71921 0.0
H2188 H 0.31468 0.85774 0.63438 0.0
H2189 H 0.39849 0.82071 0.61208 0.0
H2190 H 0.36642 0.79648 0.60898 0.0
H2191 H 0.3794 0.81679 0.64299 0.0
C2192 C 0.30743 0.77948 0.66029 0.0
C2193 C 0.30694 0.79199 0.68877 0.0
C2194 C 0.31918 0.79428 0.64055 0.0
C2195 C 0.33069 0.82171 0.64914 0.0
C2196 C 0.33037 0.83414 0.67761 0.0
H2197 H 0.42197 0.95971 0.60135 0.0
H2198 H 0.39078 0.92517 0.62076 0.0
C2199 C 0.3187 0.81939 0.69729 0.0
C2200 C 0.34303 0.83781 0.62867 0.0
H2201 H 0.39694 0.85362 0.58943 0.0
C2202 C 0.3325 0.85665 0.62423 0.0
C2203 C 0.36614 0.83615 0.61542 0.0
C2204 C 0.37848 0.8166 0.62013 0.0
C2205 C 0.34501 0.87457 0.6076 0.0
C2206 C 0.36879 0.87377 0.59546 0.0
C2207 C 0.37864 0.85408 0.59874 0.0
C2208 C 0.3853 0.89498 0.58225 0.0
C2209 C 0.33298 0.89458 0.60367 0.0
C2210 C 0.39256 0.88942 0.55413 0.0
C2211 C 0.41043 0.90922 0.5429 0.0
C2212 C 0.42157 0.93471 0.55985 0.0
C2213 C 0.41372 0.94029 0.58776 0.0
C2214 C 0.39577 0.92061 0.59884 0.0
H2215 H 0.31163 0.88769 0.60661 0.0
H2216 H 0.34182 0.91316 0.61967 0.0
H2217 H 0.33659 0.89892 0.58235 0.0
H2218 H 0.38482 0.86967 0.5411 0.0
H2219 H 0.41623 0.90434 0.52135 0.0
H2220 H 0.22559 0.35692 0.60322 0.0
H2221 H 0.19218 0.37439 0.59264 0.0
H2222 H 0.17172 0.38521 0.68006 0.0
H2223 H 0.2053 0.3679 0.69093 0.0
H2224 H 0.12835 0.36255 0.64234 0.0
H2225 H 0.19724 0.45191 0.61364 0.0
H2226 H 0.20118 0.42179 0.59432 0.0
H2227 H 0.20769 0.43175 0.63193 0.0
C2228 C 0.21418 0.36324 0.6203 0.0
C2229 C 0.21836 0.36122 0.64801 0.0
C2230 C 0.19506 0.37323 0.61419 0.0
C2231 C 0.17975 0.38158 0.63564 0.0
C2232 C 0.18339 0.37901 0.66319 0.0
H2233 H 0.08433 0.47774 0.61991 0.0
H2234 H 0.11614 0.46038 0.63521 0.0
C2235 C 0.20253 0.36899 0.66934 0.0
C2236 C 0.15988 0.39283 0.62924 0.0
H2237 H 0.15227 0.4424 0.60289 0.0
C2238 C 0.13358 0.38008 0.63384 0.0
C2239 C 0.16674 0.41593 0.61854 0.0
C2240 C 0.19477 0.43133 0.61455 0.0
C2241 C 0.11391 0.3894 0.62734 0.0
C2242 C 0.12069 0.41189 0.61556 0.0
C2243 C 0.14705 0.42503 0.61166 0.0
C2244 C 0.10074 0.42203 0.60692 0.0
C2245 C 0.08608 0.37525 0.6334 0.0
C2246 C 0.0816 0.40634 0.58579 0.0
C2247 C 0.06333 0.41616 0.57708 0.0
C2248 C 0.06385 0.44199 0.58922 0.0
C2249 C 0.0831 0.45767 0.61038 0.0
C2250 C 0.10141 0.44783 0.61903 0.0
H2251 H 0.085 0.36323 0.64922 0.0
H2252 H 0.07559 0.3894 0.64133 0.0
H2253 H 0.07586 0.36182 0.6136 0.0
H2254 H 0.08097 0.38654 0.57576 0.0
H2255 H 0.04868 0.40345 0.56091 0.0
H2256 H 0.75621 0.19495 0.66882 0.0
H2257 H 0.73392 0.16416 0.62546 0.0
H2258 H 0.65962 0.15856 0.66255 0.0
H2259 H 0.68144 0.18913 0.70568 0.0
H2260 H 0.69867 0.11211 0.61823 0.0
H2261 H 0.65235 0.17724 0.58661 0.0
H2262 H 0.67959 0.18946 0.61195 0.0
H2263 H 0.64691 0.17552 0.62289 0.0
C2264 C 0.73512 0.18712 0.66777 0.0
C2265 C 0.7206 0.19468 0.69067 0.0
C2266 C 0.72246 0.16962 0.64295 0.0
C2267 C 0.69517 0.15965 0.64063 0.0
C2268 C 0.68071 0.16662 0.66369 0.0
H2269 H 0.5739 0.02813 0.57443 0.0
H2270 H 0.61553 0.06 0.59463 0.0
C2271 C 0.69326 0.18398 0.68842 0.0
C2272 C 0.6813 0.14112 0.61471 0.0
H2273 H 0.63028 0.13024 0.56977 0.0
C2274 C 0.68415 0.11622 0.60707 0.0
C2275 C 0.66293 0.14676 0.59966 0.0
C2276 C 0.66046 0.17382 0.60549 0.0
C2277 C 0.66722 0.09597 0.58667 0.0
C2278 C 0.64677 0.10077 0.57412 0.0
C2279 C 0.64571 0.12642 0.57968 0.0
C2280 C 0.62398 0.07903 0.55926 0.0
C2281 C 0.67068 0.06934 0.57969 0.0
C2282 C 0.61467 0.07925 0.53274 0.0
C2283 C 0.59062 0.06111 0.52128 0.0
C2284 C 0.57559 0.04273 0.53631 0.0
C2285 C 0.58526 0.04208 0.5624 0.0
C2286 C 0.6092 0.06006 0.57377 0.0
H2287 H 0.69158 0.07136 0.58154 0.0
H2288 H 0.6601 0.05772 0.59498 0.0
H2289 H 0.663 0.05828 0.55799 0.0
H2290 H 0.62552 0.09408 0.52148 0.0
H2291 H 0.58307 0.0625 0.50163 0.0
H2292 H 0.77791 0.32838 0.30383 0.0
H2293 H 0.79825 0.36172 0.3464 0.0
H2294 H 0.8473 0.31726 0.35807 0.0
H2295 H 0.82654 0.28355 0.31668 0.0
H2296 H 0.82978 0.33742 0.40809 0.0
H2297 H 0.86996 0.4148 0.34621 0.0
H2298 H 0.83514 0.40007 0.34538 0.0
H2299 H 0.85468 0.38063 0.32919 0.0
C2300 C 0.7929 0.32561 0.31559 0.0
C2301 C 0.8007 0.30333 0.30664 0.0
C2302 C 0.80455 0.34474 0.33987 0.0
C2303 C 0.82451 0.34214 0.35521 0.0
C2304 C 0.83186 0.31965 0.34664 0.0
H2305 H 0.96565 0.41745 0.4289 0.0
H2306 H 0.92237 0.38941 0.40904 0.0
C2307 C 0.82005 0.30044 0.32275 0.0
C2308 C 0.83938 0.36327 0.37907 0.0
H2309 H 0.88638 0.42392 0.39237 0.0
C2310 C 0.84164 0.35664 0.40496 0.0
C2311 C 0.85482 0.38837 0.37495 0.0
C2312 C 0.85377 0.39648 0.34743 0.0
C2313 C 0.8605 0.37354 0.42583 0.0
C2314 C 0.87715 0.39762 0.42071 0.0
C2315 C 0.87332 0.40536 0.39609 0.0
C2316 C 0.90202 0.41203 0.43688 0.0
C2317 C 0.86407 0.36478 0.45221 0.0
C2318 C 0.90462 0.43349 0.45971 0.0
C2319 C 0.92944 0.4494 0.47143 0.0
C2320 C 0.9517 0.44415 0.45996 0.0
C2321 C 0.94877 0.42189 0.43805 0.0
C2322 C 0.92412 0.40588 0.42674 0.0
H2323 H 0.84723 0.34761 0.4552 0.0
H2324 H 0.88192 0.35917 0.45071 0.0
H2325 H 0.86677 0.38121 0.47107 0.0
H2326 H 0.88768 0.43854 0.46758 0.0
H2327 H 0.93134 0.46667 0.48813 0.0
H2328 H 0.7339 0.78394 0.32568 0.0
H2329 H 0.70934 0.81115 0.35173 0.0
H2330 H 0.66309 0.79719 0.27602 0.0
H2331 H 0.68713 0.76958 0.25013 0.0
H2332 H 0.70475 0.85673 0.34269 0.0
H2333 H 0.60692 0.78063 0.33269 0.0
H2334 H 0.63628 0.77251 0.325 0.0
H2335 H 0.62163 0.78299 0.29928 0.0
C2336 C 0.71819 0.78627 0.31472 0.0
C2337 C 0.7123 0.77424 0.28589 0.0
C2338 C 0.70424 0.802 0.3296 0.0
C2339 C 0.68394 0.80593 0.31607 0.0
C2340 C 0.67812 0.79397 0.28724 0.0
H2341 H 0.58354 0.90163 0.35782 0.0
H2342 H 0.60666 0.87169 0.33575 0.0
C2343 C 0.69208 0.77833 0.27236 0.0
C2344 C 0.6696 0.82338 0.33167 0.0
H2345 H 0.60855 0.82523 0.34868 0.0
C2346 C 0.68373 0.84976 0.34415 0.0
C2347 C 0.64213 0.81441 0.33373 0.0
C2348 C 0.62585 0.78603 0.32222 0.0
C2349 C 0.67118 0.8675 0.35778 0.0
C2350 C 0.64369 0.85861 0.35953 0.0
C2351 C 0.62958 0.83216 0.34732 0.0
C2352 C 0.6292 0.87651 0.37352 0.0
C2353 C 0.68744 0.89586 0.36943 0.0
C2354 C 0.6337 0.88898 0.40236 0.0
C2355 C 0.62026 0.90601 0.41522 0.0
C2356 C 0.60186 0.91101 0.39961 0.0
C2357 C 0.59717 0.89812 0.37079 0.0
C2358 C 0.61056 0.88105 0.358 0.0
H2359 H 0.70705 0.90096 0.36035 0.0
H2360 H 0.67763 0.90937 0.36508 0.0
H2361 H 0.6901 0.89924 0.39269 0.0
H2362 H 0.64753 0.88541 0.41503 0.0
H2363 H 0.62416 0.91507 0.43751 0.0
H2364 H 0.23116 0.74287 0.35027 0.0
H2365 H 0.21206 0.7185 0.38691 0.0
H2366 H 0.18205 0.64711 0.32244 0.0
H2367 H 0.20029 0.67129 0.28598 0.0
H2368 H 0.15631 0.68503 0.3893 0.0
H2369 H 0.22586 0.63011 0.38076 0.0
H2370 H 0.23331 0.66095 0.36995 0.0
H2371 H 0.21338 0.63077 0.3473 0.0
C2372 C 0.22043 0.72198 0.34403 0.0
C2373 C 0.21779 0.70874 0.31542 0.0
C2374 C 0.20965 0.70814 0.36491 0.0
C2375 C 0.19626 0.68096 0.35732 0.0
C2376 C 0.19292 0.66798 0.32871 0.0
H2377 H 0.09994 0.54393 0.39366 0.0
H2378 H 0.13187 0.58114 0.3791 0.0
C2379 C 0.20345 0.68177 0.30793 0.0
C2380 C 0.1849 0.66575 0.37881 0.0
H2381 H 0.18453 0.611 0.40027 0.0
C2382 C 0.1628 0.66927 0.39245 0.0
C2383 C 0.19363 0.64539 0.38286 0.0
C2384 C 0.21801 0.64166 0.36966 0.0
C2385 C 0.14781 0.6514 0.40811 0.0
C2386 C 0.15546 0.62981 0.41032 0.0
C2387 C 0.1787 0.62755 0.39846 0.0
C2388 C 0.13762 0.60723 0.42058 0.0
C2389 C 0.12288 0.65453 0.42031 0.0
C2390 C 0.13063 0.60948 0.44892 0.0
C2391 C 0.11223 0.58813 0.45737 0.0
C2392 C 0.10066 0.56433 0.43754 0.0
C2393 C 0.10838 0.56202 0.40942 0.0
C2394 C 0.12669 0.58324 0.40107 0.0
H2395 H 0.11848 0.67096 0.41433 0.0
H2396 H 0.10626 0.63606 0.41298 0.0
H2397 H 0.12451 0.65852 0.44372 0.0
H2398 H 0.13911 0.62779 0.46435 0.0
H2399 H 0.10667 0.59041 0.47919 0.0
H2400 H 0.39021 0.19787 0.32048 0.0
H2401 H 0.40906 0.1659 0.33011 0.0
H2402 H 0.38771 0.18133 0.41703 0.0
H2403 H 0.36851 0.21301 0.40752 0.0
H2404 H 0.45001 0.17658 0.37187 0.0
H2405 H 0.35874 0.09972 0.39039 0.0
H2406 H 0.35898 0.12489 0.37212 0.0
H2407 H 0.36284 0.13262 0.40998 0.0
C2408 C 0.38926 0.19422 0.34156 0.0
C2409 C 0.37783 0.20797 0.36323 0.0
C2410 C 0.40014 0.17605 0.34705 0.0
C2411 C 0.39951 0.17103 0.37419 0.0
C2412 C 0.38807 0.18464 0.39584 0.0
H2413 H 0.45652 0.07398 0.45478 0.0
H2414 H 0.43516 0.10284 0.4424 0.0
C2415 C 0.37735 0.20293 0.39043 0.0
C2416 C 0.4117 0.15232 0.38018 0.0
H2417 H 0.39849 0.09442 0.40115 0.0
C2418 C 0.43876 0.15852 0.3781 0.0
C2419 C 0.39697 0.12888 0.38844 0.0
C2420 C 0.36773 0.12091 0.39018 0.0
C2421 C 0.45161 0.1422 0.3847 0.0
C2422 C 0.43688 0.11867 0.39292 0.0
C2423 C 0.40976 0.11242 0.39484 0.0
C2424 C 0.44931 0.10049 0.39999 0.0
C2425 C 0.48094 0.15077 0.38365 0.0
C2426 C 0.46395 0.0891 0.3801 0.0
C2427 C 0.4765 0.07288 0.38723 0.0
C2428 C 0.47442 0.06738 0.41433 0.0
C2429 C 0.459 0.07815 0.43391 0.0
C2430 C 0.44658 0.0945 0.42679 0.0
H2431 H 0.48965 0.17225 0.38482 0.0
H2432 H 0.48957 0.14601 0.40124 0.0
H2433 H 0.4864 0.14028 0.36338 0.0
H2434 H 0.46586 0.09293 0.35907 0.0
H2435 H 0.48834 0.06517 0.37165 0.0
H2436 H 0.69328 0.88534 0.71823 0.0
H2437 H 0.66823 0.90343 0.69291 0.0
H2438 H 0.62887 0.82585 0.64216 0.0
H2439 H 0.65324 0.80737 0.66815 0.0
H2440 H 0.6654 0.90269 0.63594 0.0
H2441 H 0.56837 0.85064 0.67283 0.0
H2442 H 0.59846 0.85236 0.68884 0.0
H2443 H 0.58604 0.82956 0.65578 0.0
C2444 C 0.67907 0.87203 0.70191 0.0
C2445 C 0.67504 0.84482 0.69548 0.0
C2446 C 0.66492 0.88246 0.6873 0.0
C2447 C 0.64637 0.86596 0.66596 0.0
C2448 C 0.64272 0.83889 0.65893 0.0
H2449 H 0.54007 0.89965 0.56194 0.0
H2450 H 0.56594 0.8788 0.58234 0.0
C2451 C 0.65688 0.82839 0.67359 0.0
C2452 C 0.631 0.8773 0.65118 0.0
H2453 H 0.5691 0.87615 0.63952 0.0
C2454 C 0.64434 0.89688 0.6367 0.0
C2455 C 0.60352 0.8697 0.65222 0.0
C2456 C 0.5882 0.84958 0.66844 0.0
C2457 C 0.63096 0.909 0.62314 0.0
C2458 C 0.60353 0.90159 0.62443 0.0
C2459 C 0.59014 0.88177 0.63856 0.0
C2460 C 0.58837 0.91449 0.61167 0.0
C2461 C 0.64625 0.92942 0.60727 0.0
C2462 C 0.59226 0.94143 0.62157 0.0
C2463 C 0.57756 0.95343 0.60991 0.0
C2464 C 0.55863 0.93868 0.58815 0.0
C2465 C 0.55474 0.91165 0.57838 0.0
C2466 C 0.56939 0.89967 0.59012 0.0
H2467 H 0.66583 0.92797 0.60214 0.0
H2468 H 0.63567 0.92738 0.58731 0.0
H2469 H 0.64898 0.94934 0.62056 0.0
H2470 H 0.60652 0.95314 0.63851 0.0
H2471 H 0.58117 0.9743 0.61779 0.0
H2472 H 0.72079 0.16561 0.25581 0.0
H2473 H 0.69671 0.13836 0.28782 0.0
H2474 H 0.70518 0.20815 0.35312 0.0
H2475 H 0.73002 0.23559 0.32138 0.0
H2476 H 0.71658 0.14133 0.34734 0.0
H2477 H 0.62379 0.16208 0.34046 0.0
H2478 H 0.64668 0.16472 0.31248 0.0
H2479 H 0.65427 0.189 0.34511 0.0
C2480 C 0.71771 0.17513 0.27707 0.0
C2481 C 0.72731 0.20266 0.28624 0.0
C2482 C 0.70392 0.15958 0.29524 0.0
C2483 C 0.69929 0.17134 0.3227 0.0
C2484 C 0.70858 0.19882 0.3319 0.0
H2485 H 0.62746 0.08117 0.45023 0.0
H2486 H 0.65681 0.11542 0.42827 0.0
C2487 C 0.72256 0.21442 0.31376 0.0
C2488 C 0.68457 0.15455 0.34153 0.0
H2489 H 0.624 0.1312 0.36676 0.0
C2490 C 0.69645 0.13932 0.35201 0.0
C2491 C 0.65835 0.15204 0.34723 0.0
C2492 C 0.64481 0.1677 0.33575 0.0
C2493 C 0.68245 0.12102 0.36765 0.0
C2494 C 0.65603 0.11804 0.37278 0.0
C2495 C 0.64436 0.13375 0.36286 0.0
C2496 C 0.63946 0.09709 0.38617 0.0
C2497 C 0.69554 0.1042 0.37758 0.0
C2498 C 0.62024 0.07556 0.36963 0.0
C2499 C 0.60363 0.05603 0.38197 0.0
C2500 C 0.60582 0.0578 0.41116 0.0
C2501 C 0.62539 0.07924 0.42767 0.0
C2502 C 0.64213 0.09878 0.41521 0.0
H2503 H 0.71545 0.10722 0.36949 0.0
H2504 H 0.69702 0.10908 0.40104 0.0
H2505 H 0.68368 0.08306 0.37062 0.0
H2506 H 0.61797 0.07399 0.34716 0.0
H2507 H 0.58873 0.03981 0.36869 0.0
H2508 H 0.79977 0.61883 0.33104 0.0
H2509 H 0.82823 0.60381 0.35609 0.0
H2510 H 0.88734 0.6231 0.29535 0.0
H2511 H 0.8586 0.63716 0.26983 0.0
H2512 H 0.88086 0.57619 0.30218 0.0
H2513 H 0.89034 0.6412 0.4088 0.0
H2514 H 0.85701 0.62288 0.3977 0.0
H2515 H 0.87629 0.64682 0.37878 0.0
C2516 C 0.81904 0.6203 0.3234 0.0
C2517 C 0.82695 0.62916 0.29848 0.0
C2518 C 0.83538 0.61179 0.33779 0.0
C2519 C 0.86019 0.61253 0.32789 0.0
C2520 C 0.86835 0.62222 0.30348 0.0
H2521 H 0.98268 0.58788 0.41771 0.0
H2522 H 0.95439 0.606 0.39692 0.0
C2523 C 0.85192 0.63033 0.28891 0.0
C2524 C 0.87703 0.60161 0.34158 0.0
H2525 H 0.9054 0.6047 0.40456 0.0
C2526 C 0.8863 0.58257 0.32457 0.0
C2527 C 0.88449 0.61002 0.37075 0.0
C2528 C 0.87674 0.63154 0.39001 0.0
C2529 C 0.90256 0.5717 0.33576 0.0
C2530 C 0.90918 0.57933 0.36511 0.0
C2531 C 0.90013 0.59853 0.38214 0.0
C2532 C 0.92599 0.56813 0.37838 0.0
C2533 C 0.91307 0.5527 0.31574 0.0
C2534 C 0.91939 0.54078 0.37538 0.0
C2535 C 0.93571 0.53035 0.387 0.0
C2536 C 0.95879 0.54705 0.40242 0.0
C2537 C 0.965 0.57445 0.40608 0.0
C2538 C 0.94883 0.58485 0.39417 0.0
H2539 H 0.91285 0.55517 0.29367 0.0
H2540 H 0.93334 0.55534 0.32206 0.0
H2541 H 0.90064 0.53224 0.31592 0.0
H2542 H 0.90153 0.52742 0.36407 0.0
H2543 H 0.93009 0.5092 0.38424 0.0
H2544 H 0.33356 0.80366 0.29092 0.0
H2545 H 0.36381 0.83153 0.33024 0.0
H2546 H 0.3017 0.81587 0.38848 0.0
H2547 H 0.27133 0.78763 0.34909 0.0
H2548 H 0.32976 0.86826 0.39634 0.0
H2549 H 0.39658 0.81125 0.39147 0.0
H2550 H 0.39179 0.81683 0.3574 0.0
H2551 H 0.36461 0.79735 0.37406 0.0
C2552 C 0.32648 0.80578 0.31216 0.0
C2553 C 0.30023 0.79337 0.31705 0.0
C2554 C 0.34375 0.82164 0.3346 0.0
C2555 C 0.33509 0.82524 0.36233 0.0
C2556 C 0.30878 0.81308 0.36726 0.0
H2557 H 0.46688 0.92431 0.47998 0.0
H2558 H 0.42518 0.88864 0.46525 0.0
C2559 C 0.29147 0.79717 0.34476 0.0
C2560 C 0.35335 0.84323 0.38563 0.0
H2561 H 0.41497 0.85821 0.41214 0.0
C2562 C 0.34815 0.8658 0.40035 0.0
C2563 C 0.37699 0.83965 0.3914 0.0
C2564 C 0.38269 0.81479 0.37796 0.0
C2565 C 0.36707 0.88605 0.41873 0.0
C2566 C 0.39183 0.88376 0.42195 0.0
C2567 C 0.39609 0.86012 0.40933 0.0
C2568 C 0.41459 0.90677 0.43448 0.0
C2569 C 0.36072 0.91015 0.43364 0.0
C2570 C 0.42229 0.92869 0.42214 0.0
C2571 C 0.44583 0.9489 0.43058 0.0
C2572 C 0.46195 0.94756 0.45157 0.0
C2573 C 0.45418 0.92599 0.46438 0.0
C2574 C 0.43056 0.90564 0.45588 0.0
H2575 H 0.3396 0.90509 0.43773 0.0
H2576 H 0.37203 0.91965 0.45404 0.0
H2577 H 0.36554 0.92458 0.41995 0.0
H2578 H 0.41073 0.92957 0.40495 0.0
H2579 H 0.45186 0.9652 0.42008 0.0
H2580 H 0.18566 0.2652 0.27803 0.0
H2581 H 0.16168 0.29251 0.30436 0.0
H2582 H 0.23043 0.33973 0.35706 0.0
H2583 H 0.25496 0.3134 0.32952 0.0
H2584 H 0.14815 0.3023 0.35663 0.0
H2585 H 0.21276 0.39728 0.33607 0.0
H2586 H 0.21724 0.36655 0.31963 0.0
H2587 H 0.22913 0.38263 0.35537 0.0
C2588 C 0.1958 0.2814 0.29521 0.0
C2589 C 0.22242 0.28692 0.30159 0.0
C2590 C 0.18195 0.29706 0.31038 0.0
C2591 C 0.19417 0.31872 0.33253 0.0
C2592 C 0.22052 0.3237 0.33965 0.0
H2593 H 0.13451 0.43652 0.43975 0.0
H2594 H 0.16048 0.40868 0.41983 0.0
C2595 C 0.23451 0.30821 0.32419 0.0
C2596 C 0.17908 0.33567 0.34799 0.0
H2597 H 0.17856 0.39911 0.36716 0.0
C2598 C 0.15487 0.32346 0.3588 0.0
C2599 C 0.18769 0.36346 0.35129 0.0
C2600 C 0.21299 0.37823 0.33976 0.0
C2601 C 0.13921 0.33799 0.37257 0.0
C2602 C 0.14757 0.36563 0.37531 0.0
C2603 C 0.17197 0.37795 0.36505 0.0
C2604 C 0.13116 0.38206 0.3882 0.0
C2605 C 0.11401 0.32352 0.38452 0.0
C2606 C 0.1059 0.37668 0.37715 0.0
C2607 C 0.09084 0.39249 0.3887 0.0
C2608 C 0.10063 0.41436 0.41154 0.0
C2609 C 0.12598 0.4197 0.42255 0.0
C2610 C 0.14103 0.40386 0.41097 0.0
H2611 H 0.11432 0.30462 0.38859 0.0
H2612 H 0.11001 0.33564 0.40455 0.0
H2613 H 0.09773 0.31889 0.36901 0.0
H2614 H 0.09789 0.36042 0.35924 0.0
H2615 H 0.07143 0.38746 0.37967 0.0
H2616 H 0.32971 0.20595 0.7266 0.0
H2617 H 0.35516 0.18058 0.69956 0.0
H2618 H 0.32405 0.1864 0.62185 0.0
H2619 H 0.2983 0.21187 0.64911 0.0
H2620 H 0.33711 0.13297 0.66306 0.0
H2621 H 0.40134 0.20611 0.60684 0.0
H2622 H 0.38254 0.21516 0.63632 0.0
H2623 H 0.36707 0.19978 0.60182 0.0
C2624 C 0.32826 0.20188 0.70373 0.0
C2625 C 0.31179 0.21082 0.69002 0.0
C2626 C 0.34296 0.18743 0.68826 0.0
C2627 C 0.3418 0.18161 0.65857 0.0
C2628 C 0.32577 0.19099 0.64471 0.0
H2629 H 0.41632 0.08566 0.53779 0.0
H2630 H 0.39049 0.11323 0.55944 0.0
C2631 C 0.31102 0.20559 0.6603 0.0
C2632 C 0.35646 0.16466 0.6426 0.0
H2633 H 0.40432 0.16326 0.59508 0.0
C2634 C 0.35179 0.13965 0.64819 0.0
C2635 C 0.37557 0.17317 0.62303 0.0
C2636 C 0.38217 0.20009 0.61674 0.0
C2637 C 0.36562 0.12306 0.63494 0.0
C2638 C 0.38515 0.13177 0.61584 0.0
C2639 C 0.38947 0.15655 0.60976 0.0
C2640 C 0.40157 0.11564 0.60253 0.0
C2641 C 0.35886 0.09614 0.6413 0.0
C2642 C 0.41692 0.10814 0.6194 0.0
C2643 C 0.43158 0.09221 0.6071 0.0
C2644 C 0.43152 0.08346 0.57751 0.0
C2645 C 0.41663 0.0916 0.56062 0.0
C2646 C 0.40194 0.10756 0.57298 0.0
H2647 H 0.33891 0.08953 0.64935 0.0
H2648 H 0.36017 0.08127 0.62221 0.0
H2649 H 0.37277 0.09691 0.65786 0.0
H2650 H 0.41745 0.11448 0.64221 0.0
H2651 H 0.44247 0.08625 0.62094 0.0
H2652 H 0.82083 0.31979 0.72973 0.0
H2653 H 0.84195 0.34501 0.69492 0.0
H2654 H 0.77681 0.30121 0.63591 0.0
H2655 H 0.75576 0.2752 0.67052 0.0
H2656 H 0.85033 0.31738 0.63249 0.0
H2657 H 0.79379 0.3866 0.64683 0.0
H2658 H 0.79822 0.37216 0.67536 0.0
H2659 H 0.77744 0.35202 0.64533 0.0
C2660 C 0.81101 0.31543 0.70932 0.0
C2661 C 0.78668 0.29548 0.70277 0.0
C2662 C 0.82304 0.32991 0.68954 0.0
C2663 C 0.81089 0.32489 0.66297 0.0
C2664 C 0.78639 0.30535 0.65641 0.0
H2665 H 0.90302 0.40288 0.53396 0.0
H2666 H 0.8689 0.37004 0.55355 0.0
C2667 C 0.77435 0.29067 0.67621 0.0
C2668 C 0.82449 0.34 0.64218 0.0
H2669 H 0.83093 0.3957 0.61921 0.0
C2670 C 0.84581 0.33417 0.62898 0.0
C2671 C 0.81848 0.36188 0.63799 0.0
C2672 C 0.79577 0.36876 0.65205 0.0
C2673 C 0.86208 0.35045 0.61254 0.0
C2674 C 0.85676 0.37303 0.60931 0.0
C2675 C 0.83478 0.37823 0.6216 0.0
C2676 C 0.87571 0.3932 0.59655 0.0
C2677 C 0.88573 0.34433 0.60016 0.0
C2678 C 0.8904 0.41714 0.61419 0.0
C2679 C 0.90987 0.43574 0.60319 0.0
C2680 C 0.91493 0.43084 0.57424 0.0
C2681 C 0.89964 0.40715 0.55637 0.0
C2682 C 0.88019 0.3884 0.56749 0.0
H2683 H 0.88839 0.32741 0.6069 0.0
H2684 H 0.88368 0.33954 0.57674 0.0
H2685 H 0.90354 0.36179 0.60657 0.0
H2686 H 0.88723 0.42116 0.63667 0.0
H2687 H 0.92117 0.45385 0.6175 0.0
H2688 H 0.19666 0.70962 0.67635 0.0
H2689 H 0.17048 0.67565 0.63786 0.0
H2690 H 0.2296 0.63868 0.62623 0.0
H2691 H 0.25597 0.6725 0.66548 0.0
H2692 H 0.18061 0.66052 0.58146 0.0
H2693 H 0.16452 0.57884 0.63713 0.0
H2694 H 0.17818 0.61296 0.65522 0.0
H2695 H 0.19773 0.59744 0.63204 0.0
C2696 C 0.20426 0.69435 0.66572 0.0
C2697 C 0.22838 0.69372 0.67428 0.0
C2698 C 0.18925 0.67496 0.64356 0.0
C2699 C 0.19797 0.65451 0.62934 0.0
C2700 C 0.22232 0.65406 0.63725 0.0
H2701 H 0.08373 0.51904 0.51571 0.0
H2702 H 0.12773 0.54997 0.53153 0.0
C2703 C 0.23736 0.67344 0.65965 0.0
C2704 C 0.18068 0.63337 0.60712 0.0
H2705 H 0.13999 0.56957 0.59525 0.0
C2706 C 0.17212 0.64047 0.58413 0.0
C2707 C 0.16976 0.60717 0.61053 0.0
C2708 C 0.17781 0.59852 0.63511 0.0
C2709 C 0.15169 0.62257 0.56562 0.0
C2710 C 0.13959 0.59704 0.5703 0.0
C2711 C 0.14948 0.58923 0.5918 0.0
C2712 C 0.11396 0.58 0.55686 0.0
C2713 C 0.14224 0.63135 0.54203 0.0
C2714 C 0.09191 0.58687 0.56576 0.0
C2715 C 0.06701 0.56923 0.5572 0.0
C2716 C 0.06379 0.54461 0.53922 0.0
C2717 C 0.08586 0.53813 0.52925 0.0
C2718 C 0.11088 0.55568 0.53827 0.0
H2719 H 0.15707 0.64909 0.53709 0.0
H2720 H 0.13722 0.61531 0.52262 0.0
H2721 H 0.12436 0.63622 0.54842 0.0
H2722 H 0.09394 0.60539 0.58049 0.0
H2723 H 0.05024 0.57451 0.56529 0.0
loop_
_geom_bond_atom_site_label_1
_geom_bond_atom_site_label_2
_geom_bond_distance
_geom_bond_site_symmetry_2
_ccdc_geom_bond_type
C0 C2 1.422 . S
C0 C4 1.415 . S
C0 N6 1.369 . S
C1 C2 1.421 . S
C1 C3 1.417 . S
C1 C13 1.422 . S
C2 C0 1.422 . S
C2 C1 1.421 . S
C2 N12 1.359 . S
C3 C1 1.417 . S
C3 C5 1.329 . S
C3 H22 0.930 . S
C4 C0 1.415 . S
C4 C5 1.437 . S
C4 C8 1.413 . S
C5 C3 1.329 . S
C5 C4 1.437 . S
C5 H27 0.929 . S
N6 C0 1.369 . S
N6 C7 1.338 . S
N6 Gd11 2.622 . S
C7 N6 1.338 . S
C7 C9 1.378 . S
C7 H19 0.929 . S
C8 C4 1.413 . S
C8 C9 1.348 . S
C8 H24 0.931 . S
C9 C7 1.378 . S
C9 C8 1.348 . S
C9 H25 0.930 . S
Gd10 N30 2.622 . S
Gd10 N37 2.570 . S
Gd10 O44 2.353 . S
Gd10 O45 2.468 . S
Gd10 O46 2.427 . S
Gd10 O48 2.388 . S
Gd10 O49 2.386 . S
Gd10 O53 2.307 . S
Gd10 C63 2.805 . S
Gd11 N6 2.622 . S
Gd11 N12 2.570 . S
Gd11 O43 2.386 . S
Gd11 O47 2.307 . S
Gd11 O50 2.353 . S
Gd11 O51 2.468 . S
Gd11 O52 2.427 . S
Gd11 O54 2.388 . S
Gd11 C75 2.805 . S
N12 C2 1.359 . S
N12 Gd11 2.570 . S
N12 C14 1.343 . S
C13 C1 1.422 . S
C13 C15 1.321 . S
C13 H21 0.931 . S
C14 N12 1.343 . S
C14 C15 1.390 . S
C14 H16 0.931 . S
C15 C13 1.321 . S
C15 C14 1.390 . S
C15 H17 0.930 . S
H16 C14 0.931 . S
H17 C15 0.930 . S
H18 C41 0.931 . S
H19 C7 0.929 . S
H20 C42 0.930 . S
H21 C13 0.931 . S
H22 C3 0.930 . S
H23 C32 0.929 . S
H24 C8 0.931 . S
H25 C9 0.930 . S
H26 C64 0.930 . S
H27 C5 0.929 . S
H28 C33 0.931 . S
H29 C34 0.930 . S
N30 Gd10 2.622 . S
N30 C31 1.369 . S
N30 C32 1.338 . S
C31 N30 1.369 . S
C31 C35 1.415 . S
C31 C38 1.422 . S
C32 H23 0.929 . S
C32 N30 1.338 . S
C32 C34 1.378 . S
C33 H28 0.931 . S
C33 C34 1.348 . S
C33 C35 1.413 . S
C34 H29 0.930 . S
C34 C32 1.378 . S
C34 C33 1.348 . S
C35 C31 1.415 . S
C35 C33 1.413 . S
C35 C65 1.437 . S
H36 C65 0.929 . S
N37 Gd10 2.570 . S
N37 C38 1.359 . S
N37 C41 1.343 . S
C38 C31 1.422 . S
C38 N37 1.359 . S
C38 C40 1.421 . S
C39 C40 1.422 . S
C39 C42 1.321 . S
C39 H66 0.931 . S
C40 C38 1.421 . S
C40 C39 1.422 . S
C40 C64 1.417 . S
C41 H18 0.931 . S
C41 N37 1.343 . S
C41 C42 1.390 . S
C42 H20 0.930 . S
C42 C39 1.321 . S
C42 C41 1.390 . S
O43 Gd11 2.386 . S
O43 C55 1.265 . S
O44 Gd10 2.353 . S
O44 C55 1.242 . S
O45 Gd10 2.468 . S
O45 C63 1.263 . S
O46 Gd10 2.427 . S
O46 C63 1.252 . S
O47 Gd11 2.307 . S
O47 C56 1.261 . S
O48 Gd10 2.388 . S
O48 C56 1.252 . S
O49 Gd10 2.386 . S
O49 C67 1.265 . S
O50 Gd11 2.353 . S
O50 C67 1.242 . S
O51 Gd11 2.468 . S
O51 C75 1.263 . S
O52 Gd11 2.427 . S
O52 C75 1.252 . S
O53 Gd10 2.307 . S
O53 C68 1.261 . S
O54 Gd11 2.388 . S
O54 C68 1.252 . S
C55 O43 1.265 . S
C55 O44 1.242 . S
C56 O47 1.261 . S
C56 O48 1.252 . S
C57 C60 1.394 . S
C57 C62 1.370 . S
C57 C63 1.500 . S
C58 C61 1.383 . S
C58 C62 1.395 . S
C59 C60 1.396 . S
C59 C61 1.365 . S
C59 H76 0.929 . S
C60 C57 1.394 . S
C60 C59 1.396 . S
C60 H77 0.930 . S
C61 C58 1.383 . S
C61 C59 1.365 . S
C61 H78 0.931 . S
C62 C57 1.370 . S
C62 C58 1.395 . S
C62 H79 0.930 . S
C63 Gd10 2.805 . S
C63 O45 1.263 . S
C63 O46 1.252 . S
C63 C57 1.500 . S
C64 H26 0.930 . S
C64 C40 1.417 . S
C64 C65 1.329 . S
C65 C35 1.437 . S
C65 H36 0.929 . S
C65 C64 1.329 . S
H66 C39 0.931 . S
C67 O49 1.265 . S
C67 O50 1.242 . S
C68 O53 1.261 . S
C68 O54 1.252 . S
C69 C72 1.394 . S
C69 C74 1.370 . S
C69 C75 1.500 . S
C70 C73 1.383 . S
C70 C74 1.395 . S
C71 C72 1.396 . S
C71 C73 1.365 . S
C71 H80 0.929 . S
C72 C69 1.394 . S
C72 C71 1.396 . S
C72 H81 0.930 . S
C73 C70 1.383 . S
C73 C71 1.365 . S
C73 H82 0.931 . S
C74 C69 1.370 . S
C74 C70 1.395 . S
C74 H83 0.930 . S
C75 Gd11 2.805 . S
C75 O51 1.263 . S
C75 O52 1.252 . S
C75 C69 1.500 . S
H76 C59 0.929 . S
H77 C60 0.930 . S
H78 C61 0.931 . S
H79 C62 0.930 . S
H80 C71 0.929 . S
H81 C72 0.930 . S
H82 C73 0.931 . S
H83 C74 0.930 . S
C84 C86 1.422 . S
C84 C88 1.415 . S
C84 N90 1.369 . S
C85 C86 1.421 . S
C85 C87 1.417 . S
C85 C97 1.422 . S
C86 C84 1.422 . S
C86 C85 1.421 . S
C86 N96 1.359 . S
C87 C85 1.417 . S
C87 C89 1.329 . S
C87 H106 0.930 . S
C88 C84 1.415 . S
C88 C89 1.437 . S
C88 C92 1.413 . S
C89 C87 1.329 . S
C89 C88 1.437 . S
C89 H111 0.929 . S
N90 C84 1.369 . S
N90 C91 1.338 . S
N90 Gd95 2.622 . S
C91 N90 1.338 . S
C91 C93 1.378 . S
C91 H103 0.929 . S
C92 C88 1.413 . S
C92 C93 1.348 . S
C92 H108 0.931 . S
C93 C91 1.378 . S
C93 C92 1.348 . S
C93 H109 0.930 . S
Gd94 N114 2.622 . S
Gd94 N121 2.570 . S
Gd94 O128 2.353 . S
Gd94 O129 2.468 . S
Gd94 O130 2.427 . S
Gd94 O132 2.388 . S
Gd94 O133 2.386 . S
Gd94 O137 2.307 . S
Gd94 C147 2.805 . S
Gd95 N90 2.622 . S
Gd95 N96 2.570 . S
Gd95 O127 2.386 . S
Gd95 O131 2.307 . S
Gd95 O134 2.353 . S
Gd95 O135 2.468 . S
Gd95 O136 2.427 . S
Gd95 O138 2.388 . S
Gd95 C159 2.805 . S
N96 C86 1.359 . S
N96 Gd95 2.570 . S
N96 C98 1.343 . S
C97 C85 1.422 . S
C97 C99 1.321 . S
C97 H105 0.931 . S
C98 N96 1.343 . S
C98 C99 1.390 . S
C98 H100 0.931 . S
C99 C97 1.321 . S
C99 C98 1.390 . S
C99 H101 0.930 . S
H100 C98 0.931 . S
H101 C99 0.930 . S
H102 C125 0.931 . S
H103 C91 0.929 . S
H104 C126 0.930 . S
H105 C97 0.931 . S
H106 C87 0.930 . S
H107 C116 0.929 . S
H108 C92 0.931 . S
H109 C93 0.930 . S
H110 C148 0.930 . S
H111 C89 0.929 . S
H112 C117 0.931 . S
H113 C118 0.930 . S
N114 Gd94 2.622 . S
N114 C115 1.369 . S
N114 C116 1.338 . S
C115 N114 1.369 . S
C115 C119 1.415 . S
C115 C122 1.422 . S
C116 H107 0.929 . S
C116 N114 1.338 . S
C116 C118 1.378 . S
C117 H112 0.931 . S
C117 C118 1.348 . S
C117 C119 1.413 . S
C118 H113 0.930 . S
C118 C116 1.378 . S
C118 C117 1.348 . S
C119 C115 1.415 . S
C119 C117 1.413 . S
C119 C149 1.437 . S
H120 C149 0.929 . S
N121 Gd94 2.570 . S
N121 C122 1.359 . S
N121 C125 1.343 . S
C122 C115 1.422 . S
C122 N121 1.359 . S
C122 C124 1.421 . S
C123 C124 1.422 . S
C123 C126 1.321 . S
C123 H150 0.931 . S
C124 C122 1.421 . S
C124 C123 1.422 . S
C124 C148 1.417 . S
C125 H102 0.931 . S
C125 N121 1.343 . S
C125 C126 1.390 . S
C126 H104 0.930 . S
C126 C123 1.321 . S
C126 C125 1.390 . S
O127 Gd95 2.386 . S
O127 C139 1.265 . S
O128 Gd94 2.353 . S
O128 C139 1.242 . S
O129 Gd94 2.468 . S
O129 C147 1.263 . S
O130 Gd94 2.427 . S
O130 C147 1.252 . S
O131 Gd95 2.307 . S
O131 C140 1.261 . S
O132 Gd94 2.388 . S
O132 C140 1.252 . S
O133 Gd94 2.386 . S
O133 C151 1.265 . S
O134 Gd95 2.353 . S
O134 C151 1.242 . S
O135 Gd95 2.468 . S
O135 C159 1.263 . S
O136 Gd95 2.427 . S
O136 C159 1.252 . S
O137 Gd94 2.307 . S
O137 C152 1.261 . S
O138 Gd95 2.388 . S
O138 C152 1.252 . S
C139 O127 1.265 . S
C139 O128 1.242 . S
C140 O131 1.261 . S
C140 O132 1.252 . S
C141 C144 1.394 . S
C141 C146 1.370 . S
C141 C147 1.500 . S
C142 C145 1.383 . S
C142 C146 1.395 . S
C143 C144 1.396 . S
C143 C145 1.365 . S
C143 H160 0.929 . S
C144 C141 1.394 . S
C144 C143 1.396 . S
C144 H161 0.930 . S
C145 C142 1.383 . S
C145 C143 1.365 . S
C145 H162 0.931 . S
C146 C141 1.370 . S
C146 C142 1.395 . S
C146 H163 0.930 . S
C147 Gd94 2.805 . S
C147 O129 1.263 . S
C147 O130 1.252 . S
C147 C141 1.500 . S
C148 H110 0.930 . S
C148 C124 1.417 . S
C148 C149 1.329 . S
C149 C119 1.437 . S
C149 H120 0.929 . S
C149 C148 1.329 . S
H150 C123 0.931 . S
C151 O133 1.265 . S
C151 O134 1.242 . S
C152 O137 1.261 . S
C152 O138 1.252 . S
C153 C156 1.394 . S
C153 C158 1.370 . S
C153 C159 1.500 . S
C154 C157 1.383 . S
C154 C158 1.395 . S
C155 C156 1.396 . S
C155 C157 1.365 . S
C155 H164 0.929 . S
C156 C153 1.394 . S
C156 C155 1.396 . S
C156 H165 0.930 . S
C157 C154 1.383 . S
C157 C155 1.365 . S
C157 H166 0.931 . S
C158 C153 1.370 . S
C158 C154 1.395 . S
C158 H167 0.930 . S
C159 Gd95 2.805 . S
C159 O135 1.263 . S
C159 O136 1.252 . S
C159 C153 1.500 . S
H160 C143 0.929 . S
H161 C144 0.930 . S
H162 C145 0.931 . S
H163 C146 0.930 . S
H164 C155 0.929 . S
H165 C156 0.930 . S
H166 C157 0.931 . S
H167 C158 0.930 . S
C168 C170 1.422 . S
C168 C172 1.415 . S
C168 N174 1.369 . S
C169 C170 1.421 . S
C169 C171 1.417 . S
C169 C181 1.422 . S
C170 C168 1.422 . S
C170 C169 1.421 . S
C170 N180 1.359 . S
C171 C169 1.417 . S
C171 C173 1.329 . S
C171 H190 0.930 . S
C172 C168 1.415 . S
C172 C173 1.437 . S
C172 C176 1.413 . S
C173 C171 1.329 . S
C173 C172 1.437 . S
C173 H195 0.929 . S
N174 C168 1.369 . S
N174 C175 1.338 . S
N174 Gd179 2.622 . S
C175 N174 1.338 . S
C175 C177 1.378 . S
C175 H187 0.929 . S
C176 C172 1.413 . S
C176 C177 1.348 . S
C176 H192 0.931 . S
C177 C175 1.378 . S
C177 C176 1.348 . S
C177 H193 0.930 . S
Gd178 N198 2.622 . S
Gd178 N205 2.570 . S
Gd178 O212 2.353 . S
Gd178 O213 2.468 . S
Gd178 O214 2.427 . S
Gd178 O216 2.388 . S
Gd178 O217 2.386 . S
Gd178 O221 2.307 . S
Gd178 C231 2.805 . S
Gd179 N174 2.622 . S
Gd179 N180 2.570 . S
Gd179 O211 2.386 . S
Gd179 O215 2.307 . S
Gd179 O218 2.353 . S
Gd179 O219 2.468 . S
Gd179 O220 2.427 . S
Gd179 O222 2.388 . S
Gd179 C243 2.805 . S
N180 C170 1.359 . S
N180 Gd179 2.570 . S
N180 C182 1.343 . S
C181 C169 1.422 . S
C181 C183 1.321 . S
C181 H189 0.931 . S
C182 N180 1.343 . S
C182 C183 1.390 . S
C182 H184 0.931 . S
C183 C181 1.321 . S
C183 C182 1.390 . S
C183 H185 0.930 . S
H184 C182 0.931 . S
H185 C183 0.930 . S
H186 C209 0.931 . S
H187 C175 0.929 . S
H188 C210 0.930 . S
H189 C181 0.931 . S
H190 C171 0.930 . S
H191 C200 0.929 . S
H192 C176 0.931 . S
H193 C177 0.930 . S
H194 C232 0.930 . S
H195 C173 0.929 . S
H196 C201 0.931 . S
H197 C202 0.930 . S
N198 Gd178 2.622 . S
N198 C199 1.369 . S
N198 C200 1.338 . S
C199 N198 1.369 . S
C199 C203 1.415 . S
C199 C206 1.422 . S
C200 H191 0.929 . S
C200 N198 1.338 . S
C200 C202 1.378 . S
C201 H196 0.931 . S
C201 C202 1.348 . S
C201 C203 1.413 . S
C202 H197 0.930 . S
C202 C200 1.378 . S
C202 C201 1.348 . S
C203 C199 1.415 . S
C203 C201 1.413 . S
C203 C233 1.437 . S
H204 C233 0.929 . S
N205 Gd178 2.570 . S
N205 C206 1.359 . S
N205 C209 1.343 . S
C206 C199 1.422 . S
C206 N205 1.359 . S
C206 C208 1.421 . S
C207 C208 1.422 . S
C207 C210 1.321 . S
C207 H234 0.931 . S
C208 C206 1.421 . S
C208 C207 1.422 . S
C208 C232 1.417 . S
C209 H186 0.931 . S
C209 N205 1.343 . S
C209 C210 1.390 . S
C210 H188 0.930 . S
C210 C207 1.321 . S
C210 C209 1.390 . S
O211 Gd179 2.386 . S
O211 C223 1.265 . S
O212 Gd178 2.353 . S
O212 C223 1.242 . S
O213 Gd178 2.468 . S
O213 C231 1.263 . S
O214 Gd178 2.427 . S
O214 C231 1.252 . S
O215 Gd179 2.307 . S
O215 C224 1.261 . S
O216 Gd178 2.388 . S
O216 C224 1.252 . S
O217 Gd178 2.386 . S
O217 C235 1.265 . S
O218 Gd179 2.353 . S
O218 C235 1.242 . S
O219 Gd179 2.468 . S
O219 C243 1.263 . S
O220 Gd179 2.427 . S
O220 C243 1.252 . S
O221 Gd178 2.307 . S
O221 C236 1.261 . S
O222 Gd179 2.388 . S
O222 C236 1.252 . S
C223 O211 1.265 . S
C223 O212 1.242 . S
C224 O215 1.261 . S
C224 O216 1.252 . S
C225 C228 1.394 . S
C225 C230 1.370 . S
C225 C231 1.500 . S
C226 C229 1.383 . S
C226 C230 1.395 . S
C227 C228 1.396 . S
C227 C229 1.365 . S
C227 H244 0.929 . S
C228 C225 1.394 . S
C228 C227 1.396 . S
C228 H245 0.930 . S
C229 C226 1.383 . S
C229 C227 1.365 . S
C229 H246 0.931 . S
C230 C225 1.370 . S
C230 C226 1.395 . S
C230 H247 0.930 . S
C231 Gd178 2.805 . S
C231 O213 1.263 . S
C231 O214 1.252 . S
C231 C225 1.500 . S
C232 H194 0.930 . S
C232 C208 1.417 . S
C232 C233 1.329 . S
C233 C203 1.437 . S
C233 H204 0.929 . S
C233 C232 1.329 . S
H234 C207 0.931 . S
C235 O217 1.265 . S
C235 O218 1.242 . S
C236 O221 1.261 . S
C236 O222 1.252 . S
C237 C240 1.394 . S
C237 C242 1.370 . S
C237 C243 1.500 . S
C238 C241 1.383 . S
C238 C242 1.395 . S
C239 C240 1.396 . S
C239 C241 1.365 . S
C239 H248 0.929 . S
C240 C237 1.394 . S
C240 C239 1.396 . S
C240 H249 0.930 . S
C241 C238 1.383 . S
C241 C239 1.365 . S
C241 H250 0.931 . S
C242 C237 1.370 . S
C242 C238 1.395 . S
C242 H251 0.930 . S
C243 Gd179 2.805 . S
C243 O219 1.263 . S
C243 O220 1.252 . S
C243 C237 1.500 . S
H244 C227 0.929 . S
H245 C228 0.930 . S
H246 C229 0.931 . S
H247 C230 0.930 . S
H248 C239 0.929 . S
H249 C240 0.930 . S
H250 C241 0.931 . S
H251 C242 0.930 . S
C252 C254 1.422 . S
C252 C256 1.415 . S
C252 N258 1.369 . S
C253 C254 1.421 . S
C253 C255 1.417 . S
C253 C265 1.422 . S
C254 C252 1.422 . S
C254 C253 1.421 . S
C254 N264 1.359 . S
C255 C253 1.417 . S
C255 C257 1.329 . S
C255 H274 0.930 . S
C256 C252 1.415 . S
C256 C257 1.437 . S
C256 C260 1.413 . S
C257 C255 1.329 . S
C257 C256 1.437 . S
C257 H279 0.929 . S
N258 C252 1.369 . S
N258 C259 1.338 . S
N258 Gd263 2.622 . S
C259 N258 1.338 . S
C259 C261 1.378 . S
C259 H271 0.929 . S
C260 C256 1.413 . S
C260 C261 1.348 . S
C260 H276 0.931 . S
C261 C259 1.378 . S
C261 C260 1.348 . S
C261 H277 0.930 . S
Gd262 N282 2.622 . S
Gd262 N289 2.570 . S
Gd262 O296 2.353 . S
Gd262 O297 2.468 . S
Gd262 O298 2.427 . S
Gd262 O300 2.388 . S
Gd262 O301 2.386 . S
Gd262 O305 2.307 . S
Gd262 C315 2.805 . S
Gd263 N258 2.622 . S
Gd263 N264 2.570 . S
Gd263 O295 2.386 . S
Gd263 O299 2.307 . S
Gd263 O302 2.353 . S
Gd263 O303 2.468 . S
Gd263 O304 2.427 . S
Gd263 O306 2.388 . S
Gd263 C327 2.805 . S
N264 C254 1.359 . S
N264 Gd263 2.570 . S
N264 C266 1.343 . S
C265 C253 1.422 . S
C265 C267 1.321 . S
C265 H273 0.931 . S
C266 N264 1.343 . S
C266 C267 1.390 . S
C266 H268 0.931 . S
C267 C265 1.321 . S
C267 C266 1.390 . S
C267 H269 0.930 . S
H268 C266 0.931 . S
H269 C267 0.930 . S
H270 C293 0.931 . S
H271 C259 0.929 . S
H272 C294 0.930 . S
H273 C265 0.931 . S
H274 C255 0.930 . S
H275 C284 0.929 . S
H276 C260 0.931 . S
H277 C261 0.930 . S
H278 C316 0.930 . S
H279 C257 0.929 . S
H280 C285 0.931 . S
H281 C286 0.930 . S
N282 Gd262 2.622 . S
N282 C283 1.369 . S
N282 C284 1.338 . S
C283 N282 1.369 . S
C283 C287 1.415 . S
C283 C290 1.422 . S
C284 H275 0.929 . S
C284 N282 1.338 . S
C284 C286 1.378 . S
C285 H280 0.931 . S
C285 C286 1.348 . S
C285 C287 1.413 . S
C286 H281 0.930 . S
C286 C284 1.378 . S
C286 C285 1.348 . S
C287 C283 1.415 . S
C287 C285 1.413 . S
C287 C317 1.437 . S
H288 C317 0.929 . S
N289 Gd262 2.570 . S
N289 C290 1.359 . S
N289 C293 1.343 . S
C290 C283 1.422 . S
C290 N289 1.359 . S
C290 C292 1.421 . S
C291 C292 1.422 . S
C291 C294 1.321 . S
C291 H318 0.931 . S
C292 C290 1.421 . S
C292 C291 1.422 . S
C292 C316 1.417 . S
C293 H270 0.931 . S
C293 N289 1.343 . S
C293 C294 1.390 . S
C294 H272 0.930 . S
C294 C291 1.321 . S
C294 C293 1.390 . S
O295 Gd263 2.386 . S
O295 C307 1.265 . S
O296 Gd262 2.353 . S
O296 C307 1.242 . S
O297 Gd262 2.468 . S
O297 C315 1.263 . S
O298 Gd262 2.427 . S
O298 C315 1.252 . S
O299 Gd263 2.307 . S
O299 C308 1.261 . S
O300 Gd262 2.388 . S
O300 C308 1.252 . S
O301 Gd262 2.386 . S
O301 C319 1.265 . S
O302 Gd263 2.353 . S
O302 C319 1.242 . S
O303 Gd263 2.468 . S
O303 C327 1.263 . S
O304 Gd263 2.427 . S
O304 C327 1.252 . S
O305 Gd262 2.307 . S
O305 C320 1.261 . S
O306 Gd263 2.388 . S
O306 C320 1.252 . S
C307 O295 1.265 . S
C307 O296 1.242 . S
C308 O299 1.261 . S
C308 O300 1.252 . S
C309 C312 1.394 . S
C309 C314 1.370 . S
C309 C315 1.500 . S
C310 C313 1.383 . S
C310 C314 1.395 . S
C311 C312 1.396 . S
C311 C313 1.365 . S
C311 H328 0.929 . S
C312 C309 1.394 . S
C312 C311 1.396 . S
C312 H329 0.930 . S
C313 C310 1.383 . S
C313 C311 1.365 . S
C313 H330 0.931 . S
C314 C309 1.370 . S
C314 C310 1.395 . S
C314 H331 0.930 . S
C315 Gd262 2.805 . S
C315 O297 1.263 . S
C315 O298 1.252 . S
C315 C309 1.500 . S
C316 H278 0.930 . S
C316 C292 1.417 . S
C316 C317 1.329 . S
C317 C287 1.437 . S
C317 H288 0.929 . S
C317 C316 1.329 . S
H318 C291 0.931 . S
C319 O301 1.265 . S
C319 O302 1.242 . S
C320 O305 1.261 . S
C320 O306 1.252 . S
C321 C324 1.394 . S
C321 C326 1.370 . S
C321 C327 1.500 . S
C322 C325 1.383 . S
C322 C326 1.395 . S
C323 C324 1.396 . S
C323 C325 1.365 . S
C323 H332 0.929 . S
C324 C321 1.394 . S
C324 C323 1.396 . S
C324 H333 0.930 . S
C325 C322 1.383 . S
C325 C323 1.365 . S
C325 H334 0.931 . S
C326 C321 1.370 . S
C326 C322 1.395 . S
C326 H335 0.930 . S
C327 Gd263 2.805 . S
C327 O303 1.263 . S
C327 O304 1.252 . S
C327 C321 1.500 . S
H328 C311 0.929 . S
H329 C312 0.930 . S
H330 C313 0.931 . S
H331 C314 0.930 . S
H332 C323 0.929 . S
H333 C324 0.930 . S
H334 C325 0.931 . S
H335 C326 0.930 . S
C336 C338 1.422 . S
C336 C340 1.415 . S
C336 N342 1.369 . S
C337 C338 1.421 . S
C337 C339 1.417 . S
C337 C349 1.422 . S
C338 C336 1.422 . S
C338 C337 1.421 . S
C338 N348 1.359 . S
C339 C337 1.417 . S
C339 C341 1.329 . S
C339 H358 0.930 . S
C340 C336 1.415 . S
C340 C341 1.437 . S
C340 C344 1.413 . S
C341 C339 1.329 . S
C341 C340 1.437 . S
C341 H363 0.929 . S
N342 C336 1.369 . S
N342 C343 1.338 . S
N342 Gd347 2.622 . S
C343 N342 1.338 . S
C343 C345 1.378 . S
C343 H355 0.929 . S
C344 C340 1.413 . S
C344 C345 1.348 . S
C344 H360 0.931 . S
C345 C343 1.378 . S
C345 C344 1.348 . S
C345 H361 0.930 . S
Gd346 N366 2.622 . S
Gd346 N373 2.570 . S
Gd346 O380 2.353 . S
Gd346 O381 2.468 . S
Gd346 O382 2.427 . S
Gd346 O384 2.388 . S
Gd346 O385 2.386 . S
Gd346 O389 2.307 . S
Gd346 C399 2.805 . S
Gd347 N342 2.622 . S
Gd347 N348 2.570 . S
Gd347 O379 2.386 . S
Gd347 O383 2.307 . S
Gd347 O386 2.353 . S
Gd347 O387 2.468 . S
Gd347 O388 2.427 . S
Gd347 O390 2.388 . S
Gd347 C411 2.805 . S
N348 C338 1.359 . S
N348 Gd347 2.570 . S
N348 C350 1.343 . S
C349 C337 1.422 . S
C349 C351 1.321 . S
C349 H357 0.931 . S
C350 N348 1.343 . S
C350 C351 1.390 . S
C350 H352 0.931 . S
C351 C349 1.321 . S
C351 C350 1.390 . S
C351 H353 0.930 . S
H352 C350 0.931 . S
H353 C351 0.930 . S
H354 C377 0.931 . S
H355 C343 0.929 . S
H356 C378 0.930 . S
H357 C349 0.931 . S
H358 C339 0.930 . S
H359 C368 0.929 . S
H360 C344 0.931 . S
H361 C345 0.930 . S
H362 C400 0.930 . S
H363 C341 0.929 . S
H364 C369 0.931 . S
H365 C370 0.930 . S
N366 Gd346 2.622 . S
N366 C367 1.369 . S
N366 C368 1.338 . S
C367 N366 1.369 . S
C367 C371 1.415 . S
C367 C374 1.422 . S
C368 H359 0.929 . S
C368 N366 1.338 . S
C368 C370 1.378 . S
C369 H364 0.931 . S
C369 C370 1.348 . S
C369 C371 1.413 . S
C370 H365 0.930 . S
C370 C368 1.378 . S
C370 C369 1.348 . S
C371 C367 1.415 . S
C371 C369 1.413 . S
C371 C401 1.437 . S
H372 C401 0.929 . S
N373 Gd346 2.570 . S
N373 C374 1.359 . S
N373 C377 1.343 . S
C374 C367 1.422 . S
C374 N373 1.359 . S
C374 C376 1.421 . S
C375 C376 1.422 . S
C375 C378 1.321 . S
C375 H402 0.931 . S
C376 C374 1.421 . S
C376 C375 1.422 . S
C376 C400 1.417 . S
C377 H354 0.931 . S
C377 N373 1.343 . S
C377 C378 1.390 . S
C378 H356 0.930 . S
C378 C375 1.321 . S
C378 C377 1.390 . S
O379 Gd347 2.386 . S
O379 C391 1.265 . S
O380 Gd346 2.353 . S
O380 C391 1.242 . S
O381 Gd346 2.468 . S
O381 C399 1.263 . S
O382 Gd346 2.427 . S
O382 C399 1.252 . S
O383 Gd347 2.307 . S
O383 C392 1.261 . S
O384 Gd346 2.388 . S
O384 C392 1.252 . S
O385 Gd346 2.386 . S
O385 C403 1.265 . S
O386 Gd347 2.353 . S
O386 C403 1.242 . S
O387 Gd347 2.468 . S
O387 C411 1.263 . S
O388 Gd347 2.427 . S
O388 C411 1.252 . S
O389 Gd346 2.307 . S
O389 C404 1.261 . S
O390 Gd347 2.388 . S
O390 C404 1.252 . S
C391 O379 1.265 . S
C391 O380 1.242 . S
C392 O383 1.261 . S
C392 O384 1.252 . S
C393 C396 1.394 . S
C393 C398 1.370 . S
C393 C399 1.500 . S
C394 C397 1.383 . S
C394 C398 1.395 . S
C395 C396 1.396 . S
C395 C397 1.365 . S
C395 H412 0.929 . S
C396 C393 1.394 . S
C396 C395 1.396 . S
C396 H413 0.930 . S
C397 C394 1.383 . S
C397 C395 1.365 . S
C397 H414 0.931 . S
C398 C393 1.370 . S
C398 C394 1.395 . S
C398 H415 0.930 . S
C399 Gd346 2.805 . S
C399 O381 1.263 . S
C399 O382 1.252 . S
C399 C393 1.500 . S
C400 H362 0.930 . S
C400 C376 1.417 . S
C400 C401 1.329 . S
C401 C371 1.437 . S
C401 H372 0.929 . S
C401 C400 1.329 . S
H402 C375 0.931 . S
C403 O385 1.265 . S
C403 O386 1.242 . S
C404 O389 1.261 . S
C404 O390 1.252 . S
C405 C408 1.394 . S
C405 C410 1.370 . S
C405 C411 1.500 . S
C406 C409 1.383 . S
C406 C410 1.395 . S
C407 C408 1.396 . S
C407 C409 1.365 . S
C407 H416 0.929 . S
C408 C405 1.394 . S
C408 C407 1.396 . S
C408 H417 0.930 . S
C409 C406 1.383 . S
C409 C407 1.365 . S
C409 H418 0.931 . S
C410 C405 1.370 . S
C410 C406 1.395 . S
C410 H419 0.930 . S
C411 Gd347 2.805 . S
C411 O387 1.263 . S
C411 O388 1.252 . S
C411 C405 1.500 . S
H412 C395 0.929 . S
H413 C396 0.930 . S
H414 C397 0.931 . S
H415 C398 0.930 . S
H416 C407 0.929 . S
H417 C408 0.930 . S
H418 C409 0.931 . S
H419 C410 0.930 . S
C420 C422 1.422 . S
C420 C424 1.415 . S
C420 N426 1.369 . S
C421 C422 1.421 . S
C421 C423 1.417 . S
C421 C433 1.422 . S
C422 C420 1.422 . S
C422 C421 1.421 . S
C422 N432 1.359 . S
C423 C421 1.417 . S
C423 C425 1.329 . S
C423 H442 0.930 . S
C424 C420 1.415 . S
C424 C425 1.437 . S
C424 C428 1.413 . S
C425 C423 1.329 . S
C425 C424 1.437 . S
C425 H447 0.929 . S
N426 C420 1.369 . S
N426 C427 1.338 . S
N426 Gd431 2.622 . S
C427 N426 1.338 . S
C427 C429 1.378 . S
C427 H439 0.929 . S
C428 C424 1.413 . S
C428 C429 1.348 . S
C428 H444 0.931 . S
C429 C427 1.378 . S
C429 C428 1.348 . S
C429 H445 0.930 . S
Gd430 N450 2.622 . S
Gd430 N457 2.570 . S
Gd430 O464 2.353 . S
Gd430 O465 2.468 . S
Gd430 O466 2.427 . S
Gd430 O468 2.388 . S
Gd430 O469 2.386 . S
Gd430 O473 2.307 . S
Gd430 C483 2.805 . S
Gd431 N426 2.622 . S
Gd431 N432 2.570 . S
Gd431 O463 2.386 . S
Gd431 O467 2.307 . S
Gd431 O470 2.353 . S
Gd431 O471 2.468 . S
Gd431 O472 2.427 . S
Gd431 O474 2.388 . S
Gd431 C495 2.805 . S
N432 C422 1.359 . S
N432 Gd431 2.570 . S
N432 C434 1.343 . S
C433 C421 1.422 . S
C433 C435 1.321 . S
C433 H441 0.931 . S
C434 N432 1.343 . S
C434 C435 1.390 . S
C434 H436 0.931 . S
C435 C433 1.321 . S
C435 C434 1.390 . S
C435 H437 0.930 . S
H436 C434 0.931 . S
H437 C435 0.930 . S
H438 C461 0.931 . S
H439 C427 0.929 . S
H440 C462 0.930 . S
H441 C433 0.931 . S
H442 C423 0.930 . S
H443 C452 0.929 . S
H444 C428 0.931 . S
H445 C429 0.930 . S
H446 C484 0.930 . S
H447 C425 0.929 . S
H448 C453 0.931 . S
H449 C454 0.930 . S
N450 Gd430 2.622 . S
N450 C451 1.369 . S
N450 C452 1.338 . S
C451 N450 1.369 . S
C451 C455 1.415 . S
C451 C458 1.422 . S
C452 H443 0.929 . S
C452 N450 1.338 . S
C452 C454 1.378 . S
C453 H448 0.931 . S
C453 C454 1.348 . S
C453 C455 1.413 . S
C454 H449 0.930 . S
C454 C452 1.378 . S
C454 C453 1.348 . S
C455 C451 1.415 . S
C455 C453 1.413 . S
C455 C485 1.437 . S
H456 C485 0.929 . S
N457 Gd430 2.570 . S
N457 C458 1.359 . S
N457 C461 1.343 . S
C458 C451 1.422 . S
C458 N457 1.359 . S
C458 C460 1.421 . S
C459 C460 1.422 . S
C459 C462 1.321 . S
C459 H486 0.931 . S
C460 C458 1.421 . S
C460 C459 1.422 . S
C460 C484 1.417 . S
C461 H438 0.931 . S
C461 N457 1.343 . S
C461 C462 1.390 . S
C462 H440 0.930 . S
C462 C459 1.321 . S
C462 C461 1.390 . S
O463 Gd431 2.386 . S
O463 C475 1.265 . S
O464 Gd430 2.353 . S
O464 C475 1.242 . S
O465 Gd430 2.468 . S
O465 C483 1.263 . S
O466 Gd430 2.427 . S
O466 C483 1.252 . S
O467 Gd431 2.307 . S
O467 C476 1.261 . S
O468 Gd430 2.388 . S
O468 C476 1.252 . S
O469 Gd430 2.386 . S
O469 C487 1.265 . S
O470 Gd431 2.353 . S
O470 C487 1.242 . S
O471 Gd431 2.468 . S
O471 C495 1.263 . S
O472 Gd431 2.427 . S
O472 C495 1.252 . S
O473 Gd430 2.307 . S
O473 C488 1.261 . S
O474 Gd431 2.388 . S
O474 C488 1.252 . S
C475 O463 1.265 . S
C475 O464 1.242 . S
C476 O467 1.261 . S
C476 O468 1.252 . S
C477 C480 1.394 . S
C477 C482 1.370 . S
C477 C483 1.500 . S
C478 C481 1.383 . S
C478 C482 1.395 . S
C479 C480 1.396 . S
C479 C481 1.365 . S
C479 H496 0.929 . S
C480 C477 1.394 . S
C480 C479 1.396 . S
C480 H497 0.930 . S
C481 C478 1.383 . S
C481 C479 1.365 . S
C481 H498 0.931 . S
C482 C477 1.370 . S
C482 C478 1.395 . S
C482 H499 0.930 . S
C483 Gd430 2.805 . S
C483 O465 1.263 . S
C483 O466 1.252 . S
C483 C477 1.500 . S
C484 H446 0.930 . S
C484 C460 1.417 . S
C484 C485 1.329 . S
C485 C455 1.437 . S
C485 H456 0.929 . S
C485 C484 1.329 . S
H486 C459 0.931 . S
C487 O469 1.265 . S
C487 O470 1.242 . S
C488 O473 1.261 . S
C488 O474 1.252 . S
C489 C492 1.394 . S
C489 C494 1.370 . S
C489 C495 1.500 . S
C490 C493 1.383 . S
C490 C494 1.395 . S
C491 C492 1.396 . S
C491 C493 1.365 . S
C491 H500 0.929 . S
C492 C489 1.394 . S
C492 C491 1.396 . S
C492 H501 0.930 . S
C493 C490 1.383 . S
C493 C491 1.365 . S
C493 H502 0.931 . S
C494 C489 1.370 . S
C494 C490 1.395 . S
C494 H503 0.930 . S
C495 Gd431 2.805 . S
C495 O471 1.263 . S
C495 O472 1.252 . S
C495 C489 1.500 . S
H496 C479 0.929 . S
H497 C480 0.930 . S
H498 C481 0.931 . S
H499 C482 0.930 . S
H500 C491 0.929 . S
H501 C492 0.930 . S
H502 C493 0.931 . S
H503 C494 0.930 . S
C504 C506 1.422 . S
C504 C508 1.415 . S
C504 N510 1.369 . S
C505 C506 1.421 . S
C505 C507 1.417 . S
C505 C517 1.422 . S
C506 C504 1.422 . S
C506 C505 1.421 . S
C506 N516 1.359 . S
C507 C505 1.417 . S
C507 C509 1.329 . S
C507 H526 0.930 . S
C508 C504 1.415 . S
C508 C509 1.437 . S
C508 C512 1.413 . S
C509 C507 1.329 . S
C509 C508 1.437 . S
C509 H531 0.929 . S
N510 C504 1.369 . S
N510 C511 1.338 . S
N510 Gd515 2.622 . S
C511 N510 1.338 . S
C511 C513 1.378 . S
C511 H523 0.929 . S
C512 C508 1.413 . S
C512 C513 1.348 . S
C512 H528 0.931 . S
C513 C511 1.378 . S
C513 C512 1.348 . S
C513 H529 0.930 . S
Gd514 N534 2.622 . S
Gd514 N541 2.570 . S
Gd514 O548 2.353 . S
Gd514 O549 2.468 . S
Gd514 O550 2.427 . S
Gd514 O552 2.388 . S
Gd514 O553 2.386 . S
Gd514 O557 2.307 . S
Gd514 C567 2.805 . S
Gd515 N510 2.622 . S
Gd515 N516 2.570 . S
Gd515 O547 2.386 . S
Gd515 O551 2.307 . S
Gd515 O554 2.353 . S
Gd515 O555 2.468 . S
Gd515 O556 2.427 . S
Gd515 O558 2.388 . S
Gd515 C579 2.805 . S
N516 C506 1.359 . S
N516 Gd515 2.570 . S
N516 C518 1.343 . S
C517 C505 1.422 . S
C517 C519 1.321 . S
C517 H525 0.931 . S
C518 N516 1.343 . S
C518 C519 1.390 . S
C518 H520 0.931 . S
C519 C517 1.321 . S
C519 C518 1.390 . S
C519 H521 0.930 . S
H520 C518 0.931 . S
H521 C519 0.930 . S
H522 C545 0.931 . S
H523 C511 0.929 . S
H524 C546 0.930 . S
H525 C517 0.931 . S
H526 C507 0.930 . S
H527 C536 0.929 . S
H528 C512 0.931 . S
H529 C513 0.930 . S
H530 C568 0.930 . S
H531 C509 0.929 . S
H532 C537 0.931 . S
H533 C538 0.930 . S
N534 Gd514 2.622 . S
N534 C535 1.369 . S
N534 C536 1.338 . S
C535 N534 1.369 . S
C535 C539 1.415 . S
C535 C542 1.422 . S
C536 H527 0.929 . S
C536 N534 1.338 . S
C536 C538 1.378 . S
C537 H532 0.931 . S
C537 C538 1.348 . S
C537 C539 1.413 . S
C538 H533 0.930 . S
C538 C536 1.378 . S
C538 C537 1.348 . S
C539 C535 1.415 . S
C539 C537 1.413 . S
C539 C569 1.437 . S
H540 C569 0.929 . S
N541 Gd514 2.570 . S
N541 C542 1.359 . S
N541 C545 1.343 . S
C542 C535 1.422 . S
C542 N541 1.359 . S
C542 C544 1.421 . S
C543 C544 1.422 . S
C543 C546 1.321 . S
C543 H570 0.931 . S
C544 C542 1.421 . S
C544 C543 1.422 . S
C544 C568 1.417 . S
C545 H522 0.931 . S
C545 N541 1.343 . S
C545 C546 1.390 . S
C546 H524 0.930 . S
C546 C543 1.321 . S
C546 C545 1.390 . S
O547 Gd515 2.386 . S
O547 C559 1.265 . S
O548 Gd514 2.353 . S
O548 C559 1.242 . S
O549 Gd514 2.468 . S
O549 C567 1.263 . S
O550 Gd514 2.427 . S
O550 C567 1.252 . S
O551 Gd515 2.307 . S
O551 C560 1.261 . S
O552 Gd514 2.388 . S
O552 C560 1.252 . S
O553 Gd514 2.386 . S
O553 C571 1.265 . S
O554 Gd515 2.353 . S
O554 C571 1.242 . S
O555 Gd515 2.468 . S
O555 C579 1.263 . S
O556 Gd515 2.427 . S
O556 C579 1.252 . S
O557 Gd514 2.307 . S
O557 C572 1.261 . S
O558 Gd515 2.388 . S
O558 C572 1.252 . S
C559 O547 1.265 . S
C559 O548 1.242 . S
C560 O551 1.261 . S
C560 O552 1.252 . S
C561 C564 1.394 . S
C561 C566 1.370 . S
C561 C567 1.500 . S
C562 C565 1.383 . S
C562 C566 1.395 . S
C563 C564 1.396 . S
C563 C565 1.365 . S
C563 H580 0.929 . S
C564 C561 1.394 . S
C564 C563 1.396 . S
C564 H581 0.930 . S
C565 C562 1.383 . S
C565 C563 1.365 . S
C565 H582 0.931 . S
C566 C561 1.370 . S
C566 C562 1.395 . S
C566 H583 0.930 . S
C567 Gd514 2.805 . S
C567 O549 1.263 . S
C567 O550 1.252 . S
C567 C561 1.500 . S
C568 H530 0.930 . S
C568 C544 1.417 . S
C568 C569 1.329 . S
C569 C539 1.437 . S
C569 H540 0.929 . S
C569 C568 1.329 . S
H570 C543 0.931 . S
C571 O553 1.265 . S
C571 O554 1.242 . S
C572 O557 1.261 . S
C572 O558 1.252 . S
C573 C576 1.394 . S
C573 C578 1.370 . S
C573 C579 1.500 . S
C574 C577 1.383 . S
C574 C578 1.395 . S
C575 C576 1.396 . S
C575 C577 1.365 . S
C575 H584 0.929 . S
C576 C573 1.394 . S
C576 C575 1.396 . S
C576 H585 0.930 . S
C577 C574 1.383 . S
C577 C575 1.365 . S
C577 H586 0.931 . S
C578 C573 1.370 . S
C578 C574 1.395 . S
C578 H587 0.930 . S
C579 Gd515 2.805 . S
C579 O555 1.263 . S
C579 O556 1.252 . S
C579 C573 1.500 . S
H580 C563 0.929 . S
H581 C564 0.930 . S
H582 C565 0.931 . S
H583 C566 0.930 . S
H584 C575 0.929 . S
H585 C576 0.930 . S
H586 C577 0.931 . S
H587 C578 0.930 . S
C588 C590 1.422 . S
C588 C592 1.415 . S
C588 N594 1.369 . S
C589 C590 1.421 . S
C589 C591 1.417 . S
C589 C601 1.422 . S
C590 C588 1.422 . S
C590 C589 1.421 . S
C590 N600 1.359 . S
C591 C589 1.417 . S
C591 C593 1.329 . S
C591 H610 0.930 . S
C592 C588 1.415 . S
C592 C593 1.437 . S
C592 C596 1.413 . S
C593 C591 1.329 . S
C593 C592 1.437 . S
C593 H615 0.929 . S
N594 C588 1.369 . S
N594 C595 1.338 . S
N594 Gd599 2.622 . S
C595 N594 1.338 . S
C595 C597 1.378 . S
C595 H607 0.929 . S
C596 C592 1.413 . S
C596 C597 1.348 . S
C596 H612 0.931 . S
C597 C595 1.378 . S
C597 C596 1.348 . S
C597 H613 0.930 . S
Gd598 N618 2.622 . S
Gd598 N625 2.570 . S
Gd598 O632 2.353 . S
Gd598 O633 2.468 . S
Gd598 O634 2.427 . S
Gd598 O636 2.388 . S
Gd598 O637 2.386 . S
Gd598 O641 2.307 . S
Gd598 C651 2.805 . S
Gd599 N594 2.622 . S
Gd599 N600 2.570 . S
Gd599 O631 2.386 . S
Gd599 O635 2.307 . S
Gd599 O638 2.353 . S
Gd599 O639 2.468 . S
Gd599 O640 2.427 . S
Gd599 O642 2.388 . S
Gd599 C663 2.805 . S
N600 C590 1.359 . S
N600 Gd599 2.570 . S
N600 C602 1.343 . S
C601 C589 1.422 . S
C601 C603 1.321 . S
C601 H609 0.931 . S
C602 N600 1.343 . S
C602 C603 1.390 . S
C602 H604 0.931 . S
C603 C601 1.321 . S
C603 C602 1.390 . S
C603 H605 0.930 . S
H604 C602 0.931 . S
H605 C603 0.930 . S
H606 C629 0.931 . S
H607 C595 0.929 . S
H608 C630 0.930 . S
H609 C601 0.931 . S
H610 C591 0.930 . S
H611 C620 0.929 . S
H612 C596 0.931 . S
H613 C597 0.930 . S
H614 C652 0.930 . S
H615 C593 0.929 . S
H616 C621 0.931 . S
H617 C622 0.930 . S
N618 Gd598 2.622 . S
N618 C619 1.369 . S
N618 C620 1.338 . S
C619 N618 1.369 . S
C619 C623 1.415 . S
C619 C626 1.422 . S
C620 H611 0.929 . S
C620 N618 1.338 . S
C620 C622 1.378 . S
C621 H616 0.931 . S
C621 C622 1.348 . S
C621 C623 1.413 . S
C622 H617 0.930 . S
C622 C620 1.378 . S
C622 C621 1.348 . S
C623 C619 1.415 . S
C623 C621 1.413 . S
C623 C653 1.437 . S
H624 C653 0.929 . S
N625 Gd598 2.570 . S
N625 C626 1.359 . S
N625 C629 1.343 . S
C626 C619 1.422 . S
C626 N625 1.359 . S
C626 C628 1.421 . S
C627 C628 1.422 . S
C627 C630 1.321 . S
C627 H654 0.931 . S
C628 C626 1.421 . S
C628 C627 1.422 . S
C628 C652 1.417 . S
C629 H606 0.931 . S
C629 N625 1.343 . S
C629 C630 1.390 . S
C630 H608 0.930 . S
C630 C627 1.321 . S
C630 C629 1.390 . S
O631 Gd599 2.386 . S
O631 C643 1.265 . S
O632 Gd598 2.353 . S
O632 C643 1.242 . S
O633 Gd598 2.468 . S
O633 C651 1.263 . S
O634 Gd598 2.427 . S
O634 C651 1.252 . S
O635 Gd599 2.307 . S
O635 C644 1.261 . S
O636 Gd598 2.388 . S
O636 C644 1.252 . S
O637 Gd598 2.386 . S
O637 C655 1.265 . S
O638 Gd599 2.353 . S
O638 C655 1.242 . S
O639 Gd599 2.468 . S
O639 C663 1.263 . S
O640 Gd599 2.427 . S
O640 C663 1.252 . S
O641 Gd598 2.307 . S
O641 C656 1.261 . S
O642 Gd599 2.388 . S
O642 C656 1.252 . S
C643 O631 1.265 . S
C643 O632 1.242 . S
C644 O635 1.261 . S
C644 O636 1.252 . S
C645 C648 1.394 . S
C645 C650 1.370 . S
C645 C651 1.500 . S
C646 C649 1.383 . S
C646 C650 1.395 . S
C647 C648 1.396 . S
C647 C649 1.365 . S
C647 H664 0.929 . S
C648 C645 1.394 . S
C648 C647 1.396 . S
C648 H665 0.930 . S
C649 C646 1.383 . S
C649 C647 1.365 . S
C649 H666 0.931 . S
C650 C645 1.370 . S
C650 C646 1.395 . S
C650 H667 0.930 . S
C651 Gd598 2.805 . S
C651 O633 1.263 . S
C651 O634 1.252 . S
C651 C645 1.500 . S
C652 H614 0.930 . S
C652 C628 1.417 . S
C652 C653 1.329 . S
C653 C623 1.437 . S
C653 H624 0.929 . S
C653 C652 1.329 . S
H654 C627 0.931 . S
C655 O637 1.265 . S
C655 O638 1.242 . S
C656 O641 1.261 . S
C656 O642 1.252 . S
C657 C660 1.394 . S
C657 C662 1.370 . S
C657 C663 1.500 . S
C658 C661 1.383 . S
C658 C662 1.395 . S
C659 C660 1.396 . S
C659 C661 1.365 . S
C659 H668 0.929 . S
C660 C657 1.394 . S
C660 C659 1.396 . S
C660 H669 0.930 . S
C661 C658 1.383 . S
C661 C659 1.365 . S
C661 H670 0.931 . S
C662 C657 1.370 . S
C662 C658 1.395 . S
C662 H671 0.930 . S
C663 Gd599 2.805 . S
C663 O639 1.263 . S
C663 O640 1.252 . S
C663 C657 1.500 . S
H664 C647 0.929 . S
H665 C648 0.930 . S
H666 C649 0.931 . S
H667 C650 0.930 . S
H668 C659 0.929 . S
H669 C660 0.930 . S
H670 C661 0.931 . S
H671 C662 0.930 . S
Cd672 N675 2.334 1_655 S
Cd672 N701 2.304 1_565 S
Cd672 O708 2.268 . S
Cd672 O711 2.273 1_665 S
Cd672 O712 2.417 . S
Cd672 O713 2.330 . S
Cd673 N688 2.304 1_455 S
Cd673 N692 2.334 1_545 S
Cd673 O709 2.273 1_445 S
Cd673 O710 2.268 . S
Cd673 O714 2.417 . S
Cd673 O715 2.330 . S
C674 N675 1.332 . S
C674 C678 1.381 . S
C674 H680 0.931 . S
N675 Cd672 2.334 1_455 S
N675 C674 1.332 . S
N675 C679 1.328 . S
C676 C677 1.396 . S
C676 C679 1.378 . S
C676 H718 0.931 . S
C677 C676 1.396 . S
C677 C678 1.382 . S
C678 C674 1.381 . S
C678 C677 1.382 . S
C678 H719 0.930 . S
C679 N675 1.328 . S
C679 C676 1.378 . S
C679 H681 0.930 1_455 S
H680 C674 0.931 . S
H681 C679 0.930 1_655 S
C682 O708 1.238 . S
C682 O709 1.253 . S
C683 C684 1.379 . S
C683 N688 1.337 . S
C683 H689 0.929 . S
C684 C683 1.379 . S
C684 C685 1.380 . S
C684 H720 0.929 . S
C685 C684 1.380 . S
C685 C686 1.399 . S
C686 C685 1.399 . S
C686 C687 1.376 . S
C686 H721 0.931 . S
C687 C686 1.376 . S
C687 N688 1.338 . S
C687 H690 0.930 1_655 S
N688 Cd673 2.304 1_655 S
N688 C683 1.337 . S
N688 C687 1.338 . S
H689 C683 0.929 . S
H690 C687 0.930 1_455 S
C691 N692 1.332 . S
C691 C695 1.381 . S
C691 H697 0.931 . S
N692 Cd673 2.334 1_565 S
N692 C691 1.332 . S
N692 C696 1.328 . S
C693 C694 1.396 . S
C693 C696 1.378 . S
C693 H722 0.931 . S
C694 C693 1.396 . S
C694 C695 1.382 . S
C695 C691 1.381 . S
C695 C694 1.382 . S
C695 H723 0.930 . S
C696 N692 1.328 . S
C696 C693 1.378 . S
C696 H698 0.930 1_565 S
H697 C691 0.931 . S
H698 C696 0.930 1_545 S
C699 O710 1.238 . S
C699 O711 1.253 . S
C700 O712 1.239 . S
C700 O713 1.230 . S
N701 Cd672 2.304 1_545 S
N701 C702 1.337 . S
N701 C706 1.338 . S
C702 N701 1.337 . S
C702 C703 1.379 . S
C702 H716 0.929 . S
C703 C702 1.379 . S
C703 C704 1.380 . S
C703 H724 0.929 . S
C704 C703 1.380 . S
C704 C705 1.399 . S
C705 C704 1.399 . S
C705 C706 1.376 . S
C705 H725 0.931 . S
C706 N701 1.338 . S
C706 C705 1.376 . S
C706 H717 0.930 1_545 S
C707 O714 1.239 . S
C707 O715 1.230 . S
O708 Cd672 2.268 . S
O708 C682 1.238 . S
O709 Cd673 2.273 1_665 S
O709 C682 1.253 . S
O710 Cd673 2.268 . S
O710 C699 1.238 . S
O711 Cd672 2.273 1_445 S
O711 C699 1.253 . S
O712 Cd672 2.417 . S
O712 C700 1.239 . S
O713 Cd672 2.330 . S
O713 C700 1.230 . S
O714 Cd673 2.417 . S
O714 C707 1.239 . S
O715 Cd673 2.330 . S
O715 C707 1.230 . S
H716 C702 0.929 . S
H717 C706 0.930 1_565 S
H718 C676 0.931 . S
H719 C678 0.930 . S
H720 C684 0.929 . S
H721 C686 0.931 . S
H722 C693 0.931 . S
H723 C695 0.930 . S
H724 C703 0.929 . S
H725 C705 0.931 . S
Cd726 N729 2.334 . S
Cd726 N755 2.304 1_565 S
Cd726 O762 2.268 1_554 S
Cd726 O765 2.273 1_565 S
Cd726 O766 2.417 . S
Cd726 O767 2.330 . S
Cd727 N742 2.304 . S
Cd727 N746 2.334 1_545 S
Cd727 O763 2.273 1_545 S
Cd727 O764 2.268 1_556 S
Cd727 O768 2.417 . S
Cd727 O769 2.330 . S
C728 N729 1.332 . S
C728 C732 1.381 . S
C728 H734 0.931 . S
N729 Cd726 2.334 . S
N729 C728 1.332 . S
N729 C733 1.328 . S
C730 C731 1.396 . S
C730 C733 1.378 . S
C730 H772 0.931 1_554 S
C731 C730 1.396 . S
C731 C732 1.382 . S
C732 C728 1.381 . S
C732 C731 1.382 . S
C732 H773 0.930 . S
C733 N729 1.328 . S
C733 C730 1.378 . S
C733 H735 0.930 1_554 S
H734 C728 0.931 . S
H735 C733 0.930 1_556 S
C736 O762 1.238 . S
C736 O763 1.253 . S
C737 C738 1.379 . S
C737 N742 1.337 . S
C737 H743 0.929 . S
C738 C737 1.379 . S
C738 C739 1.380 . S
C738 H774 0.929 . S
C739 C738 1.380 . S
C739 C740 1.399 . S
C740 C739 1.399 . S
C740 C741 1.376 . S
C740 H775 0.931 1_556 S
C741 C740 1.376 . S
C741 N742 1.338 . S
C741 H744 0.930 1_556 S
N742 Cd727 2.304 . S
N742 C737 1.337 . S
N742 C741 1.338 . S
H743 C737 0.929 . S
H744 C741 0.930 1_554 S
C745 N746 1.332 . S
C745 C749 1.381 . S
C745 H751 0.931 . S
N746 Cd727 2.334 1_565 S
N746 C745 1.332 . S
N746 C750 1.328 . S
C747 C748 1.396 . S
C747 C750 1.378 . S
C747 H776 0.961 . S
C748 C747 1.396 . S
C748 C749 1.382 . S
C749 C745 1.381 . S
C749 C748 1.382 . S
C749 H777 0.930 . S
C750 N746 1.328 . S
C750 C747 1.378 . S
C750 H752 0.930 1_566 S
H751 C745 0.931 . S
H752 C750 0.930 1_544 S
C753 O764 1.238 . S
C753 O765 1.253 . S
C754 O766 1.239 . S
C754 O767 1.230 . S
N755 Cd726 2.304 1_545 S
N755 C756 1.337 . S
N755 C760 1.338 . S
C756 N755 1.337 . S
C756 C757 1.379 . S
C756 H770 0.929 . S
C757 C756 1.379 . S
C757 C758 1.380 . S
C757 H778 0.929 . S
C758 C757 1.380 . S
C758 C759 1.399 . S
C759 C758 1.399 . S
C759 C760 1.376 . S
C759 H779 0.949 . S
C760 N755 1.338 . S
C760 C759 1.376 . S
C760 H771 0.930 1_544 S
C761 O768 1.239 . S
C761 O769 1.230 . S
O762 Cd726 2.268 1_556 S
O762 C736 1.238 . S
O763 Cd727 2.273 1_565 S
O763 C736 1.253 . S
O764 Cd727 2.268 1_554 S
O764 C753 1.238 . S
O765 Cd726 2.273 1_545 S
O765 C753 1.253 . S
O766 Cd726 2.417 . S
O766 C754 1.239 . S
O767 Cd726 2.330 . S
O767 C754 1.230 . S
O768 Cd727 2.417 . S
O768 C761 1.239 . S
O769 Cd727 2.330 . S
O769 C761 1.230 . S
H770 C756 0.929 . S
H771 C760 0.930 1_566 S
H772 C730 0.931 1_556 S
H773 C732 0.930 . S
H774 C738 0.929 . S
H775 C740 0.931 1_554 S
H776 C747 0.961 . S
H777 C749 0.930 . S
H778 C757 0.929 . S
H779 C759 0.949 . S
Cd780 N783 2.334 1_655 S
Cd780 N809 2.304 . S
Cd780 O816 2.268 1_554 S
Cd780 O819 2.273 1_655 S
Cd780 O820 2.417 . S
Cd780 O821 2.330 . S
Cd781 N796 2.304 1_455 S
Cd781 N800 2.334 . S
Cd781 O817 2.273 1_455 S
Cd781 O818 2.268 1_556 S
Cd781 O822 2.417 . S
Cd781 O823 2.330 . S
C782 N783 1.332 . S
C782 C786 1.381 . S
C782 H788 0.931 . S
N783 Cd780 2.334 1_455 S
N783 C782 1.332 . S
N783 C787 1.328 . S
C784 C785 1.396 . S
C784 C787 1.378 . S
C784 H826 0.931 1_554 S
C785 C784 1.396 . S
C785 C786 1.382 . S
C786 C782 1.381 . S
C786 C785 1.382 . S
C786 H827 0.930 . S
C787 N783 1.328 . S
C787 C784 1.378 . S
C787 H789 0.930 1_454 S
H788 C782 0.931 . S
H789 C787 0.930 1_656 S
C790 O816 1.238 . S
C790 O817 1.253 . S
C791 C792 1.379 . S
C791 N796 1.337 . S
C791 H797 0.929 . S
C792 C791 1.379 . S
C792 C793 1.380 . S
C792 H828 0.929 . S
C793 C792 1.380 . S
C793 C794 1.399 . S
C794 C793 1.399 . S
C794 C795 1.376 . S
C794 H829 0.931 1_556 S
C795 C794 1.376 . S
C795 N796 1.338 . S
C795 H798 0.930 1_656 S
N796 Cd781 2.304 1_655 S
N796 C791 1.337 . S
N796 C795 1.338 . S
H797 C791 0.929 . S
H798 C795 0.930 1_454 S
C799 N800 1.332 . S
C799 C803 1.381 . S
C799 H805 0.931 . S
N800 Cd781 2.334 . S
N800 C799 1.332 . S
N800 C804 1.328 . S
C801 C802 1.396 . S
C801 C804 1.378 . S
C801 H830 0.961 . S
C802 C801 1.396 . S
C802 C803 1.382 . S
C803 C799 1.381 . S
C803 C802 1.382 . S
C803 H831 0.930 . S
C804 N800 1.328 . S
C804 C801 1.378 . S
C804 H806 0.930 1_556 S
H805 C799 0.931 . S
H806 C804 0.930 1_554 S
C807 O818 1.238 . S
C807 O819 1.253 . S
C808 O820 1.239 . S
C808 O821 1.230 . S
N809 Cd780 2.304 . S
N809 C810 1.337 . S
N809 C814 1.338 . S
C810 N809 1.337 . S
C810 C811 1.379 . S
C810 H824 0.929 . S
C811 C810 1.379 . S
C811 C812 1.380 . S
C811 H832 0.929 . S
C812 C811 1.380 . S
C812 C813 1.399 . S
C813 C812 1.399 . S
C813 C814 1.376 . S
C813 H833 0.949 . S
C814 N809 1.338 . S
C814 C813 1.376 . S
C814 H825 0.930 1_554 S
C815 O822 1.239 . S
C815 O823 1.230 . S
O816 Cd780 2.268 1_556 S
O816 C790 1.238 . S
O817 Cd781 2.273 1_655 S
O817 C790 1.253 . S
O818 Cd781 2.268 1_554 S
O818 C807 1.238 . S
O819 Cd780 2.273 1_455 S
O819 C807 1.253 . S
O820 Cd780 2.417 . S
O820 C808 1.239 . S
O821 Cd780 2.330 . S
O821 C808 1.230 . S
O822 Cd781 2.417 . S
O822 C815 1.239 . S
O823 Cd781 2.330 . S
O823 C815 1.230 . S
H824 C810 0.929 . S
H825 C814 0.930 1_556 S
H826 C784 0.931 1_556 S
H827 C786 0.930 . S
H828 C792 0.929 . S
H829 C794 0.931 1_554 S
H830 C801 0.961 . S
H831 C803 0.930 . S
H832 C811 0.929 . S
H833 C813 0.949 . S
Cd834 N837 2.334 . S
Cd834 N863 2.304 . S
Cd834 O870 2.268 1_554 S
Cd834 O873 2.273 . S
Cd834 O874 2.417 . S
Cd834 O875 2.330 . S
Cd835 N850 2.304 . S
Cd835 N854 2.334 . S
Cd835 O871 2.273 . S
Cd835 O872 2.268 1_556 S
Cd835 O876 2.417 . S
Cd835 O877 2.330 . S
C836 N837 1.332 . S
C836 C840 1.381 . S
C836 H842 0.931 . S
N837 Cd834 2.334 . S
N837 C836 1.332 . S
N837 C841 1.328 . S
C838 C839 1.396 . S
C838 C841 1.378 . S
C838 H880 0.931 1_554 S
C839 C838 1.396 . S
C839 C840 1.382 . S
C840 C836 1.381 . S
C840 C839 1.382 . S
C840 H881 0.930 . S
C841 N837 1.328 . S
C841 C838 1.378 . S
C841 H843 0.930 1_554 S
H842 C836 0.931 . S
H843 C841 0.930 1_556 S
C844 O870 1.238 . S
C844 O871 1.253 . S
C845 C846 1.379 . S
C845 N850 1.337 . S
C845 H851 0.929 . S
C846 C845 1.379 . S
C846 C847 1.380 . S
C846 H882 0.929 . S
C847 C846 1.380 . S
C847 C848 1.399 . S
C848 C847 1.399 . S
C848 C849 1.376 . S
C848 H883 0.931 1_556 S
C849 C848 1.376 . S
C849 N850 1.338 . S
C849 H852 0.930 1_556 S
N850 Cd835 2.304 . S
N850 C845 1.337 . S
N850 C849 1.338 . S
H851 C845 0.929 . S
H852 C849 0.930 1_554 S
C853 N854 1.332 . S
C853 C857 1.381 . S
C853 H859 0.931 . S
N854 Cd835 2.334 . S
N854 C853 1.332 . S
N854 C858 1.328 . S
C855 C856 1.396 . S
C855 C858 1.378 . S
C855 H884 0.960 . S
C856 C855 1.396 . S
C856 C857 1.382 . S
C857 C853 1.381 . S
C857 C856 1.382 . S
C857 H885 0.930 . S
C858 N854 1.328 . S
C858 C855 1.378 . S
C858 H860 0.930 1_556 S
H859 C853 0.931 . S
H860 C858 0.930 1_554 S
C861 O872 1.238 . S
C861 O873 1.253 . S
C862 O874 1.239 . S
C862 O875 1.230 . S
N863 Cd834 2.304 . S
N863 C864 1.337 . S
N863 C868 1.338 . S
C864 N863 1.337 . S
C864 C865 1.379 . S
C864 H878 0.929 . S
C865 C864 1.379 . S
C865 C866 1.380 . S
C865 H886 0.929 . S
C866 C865 1.380 . S
C866 C867 1.399 . S
C867 C866 1.399 . S
C867 C868 1.376 . S
C867 H887 0.950 . S
C868 N863 1.338 . S
C868 C867 1.376 . S
C868 H879 0.930 1_554 S
C869 O876 1.239 . S
C869 O877 1.230 . S
O870 Cd834 2.268 1_556 S
O870 C844 1.238 . S
O871 Cd835 2.273 . S
O871 C844 1.253 . S
O872 Cd835 2.268 1_554 S
O872 C861 1.238 . S
O873 Cd834 2.273 . S
O873 C861 1.253 . S
O874 Cd834 2.417 . S
O874 C862 1.239 . S
O875 Cd834 2.330 . S
O875 C862 1.230 . S
O876 Cd835 2.417 . S
O876 C869 1.239 . S
O877 Cd835 2.330 . S
O877 C869 1.230 . S
H878 C864 0.929 . S
H879 C868 0.930 1_556 S
H880 C838 0.931 1_556 S
H881 C840 0.930 . S
H882 C846 0.929 . S
H883 C848 0.931 1_554 S
H884 C855 0.960 . S
H885 C857 0.930 . S
H886 C865 0.929 . S
H887 C867 0.950 . S
Cd888 N891 2.334 1_655 S
Cd888 N917 2.304 . S
Cd888 O924 2.268 . S
Cd888 O927 2.273 1_655 S
Cd888 O928 2.417 . S
Cd888 O929 2.330 . S
Cd889 N904 2.304 1_455 S
Cd889 N908 2.334 . S
Cd889 O925 2.273 1_455 S
Cd889 O926 2.268 . S
Cd889 O930 2.417 . S
Cd889 O931 2.330 . S
C890 N891 1.332 . S
C890 C894 1.381 . S
C890 H896 0.931 . S
N891 Cd888 2.334 1_455 S
N891 C890 1.332 . S
N891 C895 1.328 . S
C892 C893 1.396 . S
C892 C895 1.378 . S
C892 H934 0.931 . S
C893 C892 1.396 . S
C893 C894 1.382 . S
C894 C890 1.381 . S
C894 C893 1.382 . S
C894 H935 0.930 . S
C895 N891 1.328 . S
C895 C892 1.378 . S
C895 H897 0.930 1_455 S
H896 C890 0.931 . S
H897 C895 0.930 1_655 S
C898 O924 1.238 . S
C898 O925 1.253 . S
C899 C900 1.379 . S
C899 N904 1.337 . S
C899 H905 0.929 . S
C900 C899 1.379 . S
C900 C901 1.380 . S
C900 H936 0.929 . S
C901 C900 1.380 . S
C901 C902 1.399 . S
C902 C901 1.399 . S
C902 C903 1.376 . S
C902 H937 0.931 . S
C903 C902 1.376 . S
C903 N904 1.338 . S
C903 H906 0.930 1_655 S
N904 Cd889 2.304 1_655 S
N904 C899 1.337 . S
N904 C903 1.338 . S
H905 C899 0.929 . S
H906 C903 0.930 1_455 S
C907 N908 1.332 . S
C907 C911 1.381 . S
C907 H913 0.931 . S
N908 Cd889 2.334 . S
N908 C907 1.332 . S
N908 C912 1.328 . S
C909 C910 1.396 . S
C909 C912 1.378 . S
C909 H938 0.931 . S
C910 C909 1.396 . S
C910 C911 1.382 . S
C911 C907 1.381 . S
C911 C910 1.382 . S
C911 H939 0.930 . S
C912 N908 1.328 . S
C912 C909 1.378 . S
C912 H914 0.930 . S
H913 C907 0.931 . S
H914 C912 0.930 . S
C915 O926 1.238 . S
C915 O927 1.253 . S
C916 O928 1.239 . S
C916 O929 1.230 . S
N917 Cd888 2.304 . S
N917 C918 1.337 . S
N917 C922 1.338 . S
C918 N917 1.337 . S
C918 C919 1.379 . S
C918 H932 0.929 . S
C919 C918 1.379 . S
C919 C920 1.380 . S
C919 H940 0.929 . S
C920 C919 1.380 . S
C920 C921 1.399 . S
C921 C920 1.399 . S
C921 C922 1.376 . S
C921 H941 0.931 . S
C922 N917 1.338 . S
C922 C921 1.376 . S
C922 H933 0.930 . S
C923 O930 1.239 . S
C923 O931 1.230 . S
O924 Cd888 2.268 . S
O924 C898 1.238 . S
O925 Cd889 2.273 1_655 S
O925 C898 1.253 . S
O926 Cd889 2.268 . S
O926 C915 1.238 . S
O927 Cd888 2.273 1_455 S
O927 C915 1.253 . S
O928 Cd888 2.417 . S
O928 C916 1.239 . S
O929 Cd888 2.330 . S
O929 C916 1.230 . S
O930 Cd889 2.417 . S
O930 C923 1.239 . S
O931 Cd889 2.330 . S
O931 C923 1.230 . S
H932 C918 0.929 . S
H933 C922 0.930 . S
H934 C892 0.931 . S
H935 C894 0.930 . S
H936 C900 0.929 . S
H937 C902 0.931 . S
H938 C909 0.931 . S
H939 C911 0.930 . S
H940 C919 0.929 . S
H941 C921 0.931 . S
Cd942 N945 2.334 . S
Cd942 N971 2.304 1_565 S
Cd942 O978 2.268 . S
Cd942 O981 2.273 1_565 S
Cd942 O982 2.417 . S
Cd942 O983 2.330 . S
Cd943 N958 2.304 . S
Cd943 N962 2.334 1_545 S
Cd943 O979 2.273 1_545 S
Cd943 O980 2.268 . S
Cd943 O984 2.417 . S
Cd943 O985 2.330 . S
C944 N945 1.332 . S
C944 C948 1.381 . S
C944 H950 0.931 . S
N945 Cd942 2.334 . S
N945 C944 1.332 . S
N945 C949 1.328 . S
C946 C947 1.396 . S
C946 C949 1.378 . S
C946 H988 0.931 . S
C947 C946 1.396 . S
C947 C948 1.382 . S
C948 C944 1.381 . S
C948 C947 1.382 . S
C948 H989 0.930 . S
C949 N945 1.328 . S
C949 C946 1.378 . S
C949 H951 0.930 . S
H950 C944 0.931 . S
H951 C949 0.930 . S
C952 O978 1.238 . S
C952 O979 1.253 . S
C953 C954 1.379 . S
C953 N958 1.337 . S
C953 H959 0.929 . S
C954 C953 1.379 . S
C954 C955 1.380 . S
C954 H990 0.929 . S
C955 C954 1.380 . S
C955 C956 1.399 . S
C956 C955 1.399 . S
C956 C957 1.376 . S
C956 H991 0.931 . S
C957 C956 1.376 . S
C957 N958 1.338 . S
C957 H960 0.930 . S
N958 Cd943 2.304 . S
N958 C953 1.337 . S
N958 C957 1.338 . S
H959 C953 0.929 . S
H960 C957 0.930 . S
C961 N962 1.332 . S
C961 C965 1.381 . S
C961 H967 0.931 . S
N962 Cd943 2.334 1_565 S
N962 C961 1.332 . S
N962 C966 1.328 . S
C963 C964 1.396 . S
C963 C966 1.378 . S
C963 H992 0.931 . S
C964 C963 1.396 . S
C964 C965 1.382 . S
C965 C961 1.381 . S
C965 C964 1.382 . S
C965 H993 0.930 . S
C966 N962 1.328 . S
C966 C963 1.378 . S
C966 H968 0.930 1_565 S
H967 C961 0.931 . S
H968 C966 0.930 1_545 S
C969 O980 1.238 . S
C969 O981 1.253 . S
C970 O982 1.239 . S
C970 O983 1.230 . S
N971 Cd942 2.304 1_545 S
N971 C972 1.337 . S
N971 C976 1.338 . S
C972 N971 1.337 . S
C972 C973 1.379 . S
C972 H986 0.929 . S
C973 C972 1.379 . S
C973 C974 1.380 . S
C973 H994 0.929 . S
C974 C973 1.380 . S
C974 C975 1.399 . S
C975 C974 1.399 . S
C975 C976 1.376 . S
C975 H995 0.931 . S
C976 N971 1.338 . S
C976 C975 1.376 . S
C976 H987 0.930 1_545 S
C977 O984 1.239 . S
C977 O985 1.230 . S
O978 Cd942 2.268 . S
O978 C952 1.238 . S
O979 Cd943 2.273 1_565 S
O979 C952 1.253 . S
O980 Cd943 2.268 . S
O980 C969 1.238 . S
O981 Cd942 2.273 1_545 S
O981 C969 1.253 . S
O982 Cd942 2.417 . S
O982 C970 1.239 . S
O983 Cd942 2.330 . S
O983 C970 1.230 . S
O984 Cd943 2.417 . S
O984 C977 1.239 . S
O985 Cd943 2.330 . S
O985 C977 1.230 . S
H986 C972 0.929 . S
H987 C976 0.930 1_565 S
H988 C946 0.931 . S
H989 C948 0.930 . S
H990 C954 0.929 . S
H991 C956 0.931 . S
H992 C963 0.931 . S
H993 C965 0.930 . S
H994 C973 0.929 . S
H995 C975 0.931 . S
H996 C1004 0.929 . S
H997 C1006 0.930 . S
H998 C1008 0.930 . S
H999 C1011 0.929 . S
H1000 C1014 0.930 . S
H1001 C1016 0.960 . S
H1002 C1016 0.960 . S
H1003 C1016 0.960 . S
C1004 H996 0.929 . S
C1004 C1005 1.377 . S
C1004 C1006 1.384 . S
C1005 C1004 1.377 . S
C1005 C1011 1.390 . S
C1006 H997 0.930 . S
C1006 C1004 1.384 . S
C1006 C1007 1.372 . S
C1007 C1006 1.372 . S
C1007 C1008 1.400 . S
C1007 C1012 1.490 . S
C1008 H998 0.930 . S
C1008 C1007 1.400 . S
C1008 C1011 1.386 . S
H1009 C1025 0.930 . S
H1010 C1026 0.931 . S
C1011 H999 0.929 . S
C1011 C1005 1.390 . S
C1011 C1008 1.386 . S
C1012 C1007 1.490 . S
C1012 C1014 1.395 . S
C1012 C1015 1.403 . S
H1013 C1019 0.930 . S
C1014 H1000 0.930 . S
C1014 C1012 1.395 . S
C1014 C1017 1.403 . S
C1015 C1012 1.403 . S
C1015 C1016 1.524 . S
C1015 C1019 1.400 . S
C1016 H1001 0.960 . S
C1016 H1002 0.960 . S
C1016 H1003 0.960 . S
C1016 C1015 1.524 . S
C1017 C1014 1.403 . S
C1017 C1018 1.392 . S
C1017 C1021 1.495 . S
C1018 C1017 1.392 . S
C1018 C1019 1.385 . S
C1018 C1020 1.478 . S
C1019 H1013 0.930 . S
C1019 C1015 1.400 . S
C1019 C1018 1.385 . S
C1020 C1018 1.478 . S
C1020 C1022 1.381 . S
C1020 C1026 1.383 . S
C1021 C1017 1.495 . S
C1021 H1027 0.959 . S
C1021 H1028 0.961 . S
C1021 H1029 0.960 . S
C1022 C1020 1.381 . S
C1022 C1023 1.394 . S
C1022 H1030 0.930 . S
C1023 C1022 1.394 . S
C1023 C1024 1.383 . S
C1023 H1031 0.929 . S
C1024 C1023 1.383 . S
C1024 C1025 1.377 . S
C1025 H1009 0.930 . S
C1025 C1024 1.377 . S
C1025 C1026 1.379 . S
C1026 H1010 0.931 . S
C1026 C1020 1.383 . S
C1026 C1025 1.379 . S
H1027 C1021 0.959 . S
H1028 C1021 0.961 . S
H1029 C1021 0.960 . S
H1030 C1022 0.930 . S
H1031 C1023 0.929 . S
H1032 C1040 0.929 . S
H1033 C1042 0.930 . S
H1034 C1044 0.930 . S
H1035 C1047 0.929 . S
H1036 C1050 0.930 . S
H1037 C1052 0.960 . S
H1038 C1052 0.960 . S
H1039 C1052 0.960 . S
C1040 H1032 0.929 . S
C1040 C1041 1.377 . S
C1040 C1042 1.384 . S
C1041 C1040 1.377 . S
C1041 C1047 1.390 . S
C1042 H1033 0.930 . S
C1042 C1040 1.384 . S
C1042 C1043 1.372 . S
C1043 C1042 1.372 . S
C1043 C1044 1.400 . S
C1043 C1048 1.490 . S
C1044 H1034 0.930 . S
C1044 C1043 1.400 . S
C1044 C1047 1.386 . S
H1045 C1061 0.930 . S
H1046 C1062 0.931 . S
C1047 H1035 0.929 . S
C1047 C1041 1.390 . S
C1047 C1044 1.386 . S
C1048 C1043 1.490 . S
C1048 C1050 1.395 . S
C1048 C1051 1.403 . S
H1049 C1055 0.930 . S
C1050 H1036 0.930 . S
C1050 C1048 1.395 . S
C1050 C1053 1.403 . S
C1051 C1048 1.403 . S
C1051 C1052 1.524 . S
C1051 C1055 1.400 . S
C1052 H1037 0.960 . S
C1052 H1038 0.960 . S
C1052 H1039 0.960 . S
C1052 C1051 1.524 . S
C1053 C1050 1.403 . S
C1053 C1054 1.392 . S
C1053 C1057 1.495 . S
C1054 C1053 1.392 . S
C1054 C1055 1.385 . S
C1054 C1056 1.478 . S
C1055 H1049 0.930 . S
C1055 C1051 1.400 . S
C1055 C1054 1.385 . S
C1056 C1054 1.478 . S
C1056 C1058 1.381 . S
C1056 C1062 1.383 . S
C1057 C1053 1.495 . S
C1057 H1063 0.959 . S
C1057 H1064 0.961 . S
C1057 H1065 0.960 . S
C1058 C1056 1.381 . S
C1058 C1059 1.394 . S
C1058 H1066 0.930 . S
C1059 C1058 1.394 . S
C1059 C1060 1.383 . S
C1059 H1067 0.929 . S
C1060 C1059 1.383 . S
C1060 C1061 1.377 . S
C1061 H1045 0.930 . S
C1061 C1060 1.377 . S
C1061 C1062 1.379 . S
C1062 H1046 0.931 . S
C1062 C1056 1.383 . S
C1062 C1061 1.379 . S
H1063 C1057 0.959 . S
H1064 C1057 0.961 . S
H1065 C1057 0.960 . S
H1066 C1058 0.930 . S
H1067 C1059 0.929 . S
H1068 C1076 0.929 . S
H1069 C1078 0.930 . S
H1070 C1080 0.930 . S
H1071 C1083 0.929 . S
H1072 C1086 0.930 . S
H1073 C1088 0.960 . S
H1074 C1088 0.960 . S
H1075 C1088 0.960 . S
C1076 H1068 0.929 . S
C1076 C1077 1.377 . S
C1076 C1078 1.384 . S
C1077 C1076 1.377 . S
C1077 C1083 1.390 . S
C1078 H1069 0.930 . S
C1078 C1076 1.384 . S
C1078 C1079 1.372 . S
C1079 C1078 1.372 . S
C1079 C1080 1.400 . S
C1079 C1084 1.490 . S
C1080 H1070 0.930 . S
C1080 C1079 1.400 . S
C1080 C1083 1.386 . S
H1081 C1097 0.930 . S
H1082 C1098 0.931 . S
C1083 H1071 0.929 . S
C1083 C1077 1.390 . S
C1083 C1080 1.386 . S
C1084 C1079 1.490 . S
C1084 C1086 1.395 . S
C1084 C1087 1.403 . S
H1085 C1091 0.930 . S
C1086 H1072 0.930 . S
C1086 C1084 1.395 . S
C1086 C1089 1.403 . S
C1087 C1084 1.403 . S
C1087 C1088 1.524 . S
C1087 C1091 1.400 . S
C1088 H1073 0.960 . S
C1088 H1074 0.960 . S
C1088 H1075 0.960 . S
C1088 C1087 1.524 . S
C1089 C1086 1.403 . S
C1089 C1090 1.392 . S
C1089 C1093 1.495 . S
C1090 C1089 1.392 . S
C1090 C1091 1.385 . S
C1090 C1092 1.478 . S
C1091 H1085 0.930 . S
C1091 C1087 1.400 . S
C1091 C1090 1.385 . S
C1092 C1090 1.478 . S
C1092 C1094 1.381 . S
C1092 C1098 1.383 . S
C1093 C1089 1.495 . S
C1093 H1099 0.959 . S
C1093 H1100 0.961 . S
C1093 H1101 0.960 . S
C1094 C1092 1.381 . S
C1094 C1095 1.394 . S
C1094 H1102 0.930 . S
C1095 C1094 1.394 . S
C1095 C1096 1.383 . S
C1095 H1103 0.929 . S
C1096 C1095 1.383 . S
C1096 C1097 1.377 . S
C1097 H1081 0.930 . S
C1097 C1096 1.377 . S
C1097 C1098 1.379 . S
C1098 H1082 0.931 . S
C1098 C1092 1.383 . S
C1098 C1097 1.379 . S
H1099 C1093 0.959 . S
H1100 C1093 0.961 . S
H1101 C1093 0.960 . S
H1102 C1094 0.930 . S
H1103 C1095 0.929 . S
H1104 C1112 0.929 . S
H1105 C1114 0.930 . S
H1106 C1116 0.930 . S
H1107 C1119 0.929 . S
H1108 C1122 0.930 . S
H1109 C1124 0.960 . S
H1110 C1124 0.960 . S
H1111 C1124 0.960 . S
C1112 H1104 0.929 . S
C1112 C1113 1.377 . S
C1112 C1114 1.384 . S
C1113 C1112 1.377 . S
C1113 C1119 1.390 . S
C1114 H1105 0.930 . S
C1114 C1112 1.384 . S
C1114 C1115 1.372 . S
C1115 C1114 1.372 . S
C1115 C1116 1.400 . S
C1115 C1120 1.490 . S
C1116 H1106 0.930 . S
C1116 C1115 1.400 . S
C1116 C1119 1.386 . S
H1117 C1133 0.930 . S
H1118 C1134 0.931 . S
C1119 H1107 0.929 . S
C1119 C1113 1.390 . S
C1119 C1116 1.386 . S
C1120 C1115 1.490 . S
C1120 C1122 1.395 . S
C1120 C1123 1.403 . S
H1121 C1127 0.930 . S
C1122 H1108 0.930 . S
C1122 C1120 1.395 . S
C1122 C1125 1.403 . S
C1123 C1120 1.403 . S
C1123 C1124 1.524 . S
C1123 C1127 1.400 . S
C1124 H1109 0.960 . S
C1124 H1110 0.960 . S
C1124 H1111 0.960 . S
C1124 C1123 1.524 . S
C1125 C1122 1.403 . S
C1125 C1126 1.392 . S
C1125 C1129 1.495 . S
C1126 C1125 1.392 . S
C1126 C1127 1.385 . S
C1126 C1128 1.478 . S
C1127 H1121 0.930 . S
C1127 C1123 1.400 . S
C1127 C1126 1.385 . S
C1128 C1126 1.478 . S
C1128 C1130 1.381 . S
C1128 C1134 1.383 . S
C1129 C1125 1.495 . S
C1129 H1135 0.959 . S
C1129 H1136 0.961 . S
C1129 H1137 0.960 . S
C1130 C1128 1.381 . S
C1130 C1131 1.394 . S
C1130 H1138 0.930 . S
C1131 C1130 1.394 . S
C1131 C1132 1.383 . S
C1131 H1139 0.929 . S
C1132 C1131 1.383 . S
C1132 C1133 1.377 . S
C1133 H1117 0.930 . S
C1133 C1132 1.377 . S
C1133 C1134 1.379 . S
C1134 H1118 0.931 . S
C1134 C1128 1.383 . S
C1134 C1133 1.379 . S
H1135 C1129 0.959 . S
H1136 C1129 0.961 . S
H1137 C1129 0.960 . S
H1138 C1130 0.930 . S
H1139 C1131 0.929 . S
H1140 C1148 0.929 . S
H1141 C1150 0.930 . S
H1142 C1152 0.930 . S
H1143 C1155 0.929 . S
H1144 C1158 0.930 . S
H1145 C1160 0.960 . S
H1146 C1160 0.960 . S
H1147 C1160 0.960 . S
C1148 H1140 0.929 . S
C1148 C1149 1.377 . S
C1148 C1150 1.384 . S
C1149 C1148 1.377 . S
C1149 C1155 1.390 . S
C1150 H1141 0.930 . S
C1150 C1148 1.384 . S
C1150 C1151 1.372 . S
C1151 C1150 1.372 . S
C1151 C1152 1.400 . S
C1151 C1156 1.490 . S
C1152 H1142 0.930 . S
C1152 C1151 1.400 . S
C1152 C1155 1.386 . S
H1153 C1169 0.930 . S
H1154 C1170 0.931 . S
C1155 H1143 0.929 . S
C1155 C1149 1.390 . S
C1155 C1152 1.386 . S
C1156 C1151 1.490 . S
C1156 C1158 1.395 . S
C1156 C1159 1.403 . S
H1157 C1163 0.930 . S
C1158 H1144 0.930 . S
C1158 C1156 1.395 . S
C1158 C1161 1.403 . S
C1159 C1156 1.403 . S
C1159 C1160 1.524 . S
C1159 C1163 1.400 . S
C1160 H1145 0.960 . S
C1160 H1146 0.960 . S
C1160 H1147 0.960 . S
C1160 C1159 1.524 . S
C1161 C1158 1.403 . S
C1161 C1162 1.392 . S
C1161 C1165 1.495 . S
C1162 C1161 1.392 . S
C1162 C1163 1.385 . S
C1162 C1164 1.478 . S
C1163 H1157 0.930 . S
C1163 C1159 1.400 . S
C1163 C1162 1.385 . S
C1164 C1162 1.478 . S
C1164 C1166 1.381 . S
C1164 C1170 1.383 . S
C1165 C1161 1.495 . S
C1165 H1171 0.959 . S
C1165 H1172 0.961 . S
C1165 H1173 0.960 . S
C1166 C1164 1.381 . S
C1166 C1167 1.394 . S
C1166 H1174 0.930 . S
C1167 C1166 1.394 . S
C1167 C1168 1.383 . S
C1167 H1175 0.929 . S
C1168 C1167 1.383 . S
C1168 C1169 1.377 . S
C1169 H1153 0.930 . S
C1169 C1168 1.377 . S
C1169 C1170 1.379 . S
C1170 H1154 0.931 . S
C1170 C1164 1.383 . S
C1170 C1169 1.379 . S
H1171 C1165 0.959 . S
H1172 C1165 0.961 . S
H1173 C1165 0.960 . S
H1174 C1166 0.930 . S
H1175 C1167 0.929 . S
H1176 C1184 0.929 . S
H1177 C1186 0.930 . S
H1178 C1188 0.930 . S
H1179 C1191 0.929 . S
H1180 C1194 0.930 . S
H1181 C1196 0.960 . S
H1182 C1196 0.960 . S
H1183 C1196 0.960 . S
C1184 H1176 0.929 . S
C1184 C1185 1.377 . S
C1184 C1186 1.384 . S
C1185 C1184 1.377 . S
C1185 C1191 1.390 . S
C1186 H1177 0.930 . S
C1186 C1184 1.384 . S
C1186 C1187 1.372 . S
C1187 C1186 1.372 . S
C1187 C1188 1.400 . S
C1187 C1192 1.490 . S
C1188 H1178 0.930 . S
C1188 C1187 1.400 . S
C1188 C1191 1.386 . S
H1189 C1205 0.930 . S
H1190 C1206 0.931 . S
C1191 H1179 0.929 . S
C1191 C1185 1.390 . S
C1191 C1188 1.386 . S
C1192 C1187 1.490 . S
C1192 C1194 1.395 . S
C1192 C1195 1.403 . S
H1193 C1199 0.930 . S
C1194 H1180 0.930 . S
C1194 C1192 1.395 . S
C1194 C1197 1.403 . S
C1195 C1192 1.403 . S
C1195 C1196 1.524 . S
C1195 C1199 1.400 . S
C1196 H1181 0.960 . S
C1196 H1182 0.960 . S
C1196 H1183 0.960 . S
C1196 C1195 1.524 . S
C1197 C1194 1.403 . S
C1197 C1198 1.392 . S
C1197 C1201 1.495 . S
C1198 C1197 1.392 . S
C1198 C1199 1.385 . S
C1198 C1200 1.478 . S
C1199 H1193 0.930 . S
C1199 C1195 1.400 . S
C1199 C1198 1.385 . S
C1200 C1198 1.478 . S
C1200 C1202 1.381 . S
C1200 C1206 1.383 . S
C1201 C1197 1.495 . S
C1201 H1207 0.959 . S
C1201 H1208 0.961 . S
C1201 H1209 0.960 . S
C1202 C1200 1.381 . S
C1202 C1203 1.394 . S
C1202 H1210 0.930 . S
C1203 C1202 1.394 . S
C1203 C1204 1.383 . S
C1203 H1211 0.929 . S
C1204 C1203 1.383 . S
C1204 C1205 1.377 . S
C1205 H1189 0.930 . S
C1205 C1204 1.377 . S
C1205 C1206 1.379 . S
C1206 H1190 0.931 . S
C1206 C1200 1.383 . S
C1206 C1205 1.379 . S
H1207 C1201 0.959 . S
H1208 C1201 0.961 . S
H1209 C1201 0.960 . S
H1210 C1202 0.930 . S
H1211 C1203 0.929 . S
H1212 C1220 0.929 . S
H1213 C1222 0.930 . S
H1214 C1224 0.930 . S
H1215 C1227 0.929 . S
H1216 C1230 0.930 . S
H1217 C1232 0.960 . S
H1218 C1232 0.960 . S
H1219 C1232 0.960 . S
C1220 H1212 0.929 . S
C1220 C1221 1.377 . S
C1220 C1222 1.384 . S
C1221 C1220 1.377 . S
C1221 C1227 1.390 . S
C1222 H1213 0.930 . S
C1222 C1220 1.384 . S
C1222 C1223 1.372 . S
C1223 C1222 1.372 . S
C1223 C1224 1.400 . S
C1223 C1228 1.490 . S
C1224 H1214 0.930 . S
C1224 C1223 1.400 . S
C1224 C1227 1.386 . S
H1225 C1241 0.930 . S
H1226 C1242 0.931 . S
C1227 H1215 0.929 . S
C1227 C1221 1.390 . S
C1227 C1224 1.386 . S
C1228 C1223 1.490 . S
C1228 C1230 1.395 . S
C1228 C1231 1.403 . S
H1229 C1235 0.930 . S
C1230 H1216 0.930 . S
C1230 C1228 1.395 . S
C1230 C1233 1.403 . S
C1231 C1228 1.403 . S
C1231 C1232 1.524 . S
C1231 C1235 1.400 . S
C1232 H1217 0.960 . S
C1232 H1218 0.960 . S
C1232 H1219 0.960 . S
C1232 C1231 1.524 . S
C1233 C1230 1.403 . S
C1233 C1234 1.392 . S
C1233 C1237 1.495 . S
C1234 C1233 1.392 . S
C1234 C1235 1.385 . S
C1234 C1236 1.478 . S
C1235 H1229 0.930 . S
C1235 C1231 1.400 . S
C1235 C1234 1.385 . S
C1236 C1234 1.478 . S
C1236 C1238 1.381 . S
C1236 C1242 1.383 . S
C1237 C1233 1.495 . S
C1237 H1243 0.959 . S
C1237 H1244 0.961 . S
C1237 H1245 0.960 . S
C1238 C1236 1.381 . S
C1238 C1239 1.394 . S
C1238 H1246 0.930 . S
C1239 C1238 1.394 . S
C1239 C1240 1.383 . S
C1239 H1247 0.929 . S
C1240 C1239 1.383 . S
C1240 C1241 1.377 . S
C1241 H1225 0.930 . S
C1241 C1240 1.377 . S
C1241 C1242 1.379 . S
C1242 H1226 0.931 . S
C1242 C1236 1.383 . S
C1242 C1241 1.379 . S
H1243 C1237 0.959 . S
H1244 C1237 0.961 . S
H1245 C1237 0.960 . S
H1246 C1238 0.930 . S
H1247 C1239 0.929 . S
H1248 C1256 0.929 . S
H1249 C1258 0.930 . S
H1250 C1260 0.930 . S
H1251 C1263 0.929 . S
H1252 C1266 0.930 . S
H1253 C1268 0.960 . S
H1254 C1268 0.960 . S
H1255 C1268 0.960 . S
C1256 H1248 0.929 . S
C1256 C1257 1.377 . S
C1256 C1258 1.384 . S
C1257 C1256 1.377 . S
C1257 C1263 1.390 . S
C1258 H1249 0.930 . S
C1258 C1256 1.384 . S
C1258 C1259 1.372 . S
C1259 C1258 1.372 . S
C1259 C1260 1.400 . S
C1259 C1264 1.490 . S
C1260 H1250 0.930 . S
C1260 C1259 1.400 . S
C1260 C1263 1.386 . S
H1261 C1277 0.930 . S
H1262 C1278 0.931 . S
C1263 H1251 0.929 . S
C1263 C1257 1.390 . S
C1263 C1260 1.386 . S
C1264 C1259 1.490 . S
C1264 C1266 1.395 . S
C1264 C1267 1.403 . S
H1265 C1271 0.930 . S
C1266 H1252 0.930 . S
C1266 C1264 1.395 . S
C1266 C1269 1.403 . S
C1267 C1264 1.403 . S
C1267 C1268 1.524 . S
C1267 C1271 1.400 . S
C1268 H1253 0.960 . S
C1268 H1254 0.960 . S
C1268 H1255 0.960 . S
C1268 C1267 1.524 . S
C1269 C1266 1.403 . S
C1269 C1270 1.392 . S
C1269 C1273 1.495 . S
C1270 C1269 1.392 . S
C1270 C1271 1.385 . S
C1270 C1272 1.478 . S
C1271 H1265 0.930 . S
C1271 C1267 1.400 . S
C1271 C1270 1.385 . S
C1272 C1270 1.478 . S
C1272 C1274 1.381 . S
C1272 C1278 1.383 . S
C1273 C1269 1.495 . S
C1273 H1279 0.959 . S
C1273 H1280 0.961 . S
C1273 H1281 0.960 . S
C1274 C1272 1.381 . S
C1274 C1275 1.394 . S
C1274 H1282 0.930 . S
C1275 C1274 1.394 . S
C1275 C1276 1.383 . S
C1275 H1283 0.929 . S
C1276 C1275 1.383 . S
C1276 C1277 1.377 . S
C1277 H1261 0.930 . S
C1277 C1276 1.377 . S
C1277 C1278 1.379 . S
C1278 H1262 0.931 . S
C1278 C1272 1.383 . S
C1278 C1277 1.379 . S
H1279 C1273 0.959 . S
H1280 C1273 0.961 . S
H1281 C1273 0.960 . S
H1282 C1274 0.930 . S
H1283 C1275 0.929 . S
H1284 C1292 0.929 . S
H1285 C1294 0.930 . S
H1286 C1296 0.930 . S
H1287 C1299 0.929 . S
H1288 C1302 0.930 . S
H1289 C1304 0.960 . S
H1290 C1304 0.960 . S
H1291 C1304 0.960 . S
C1292 H1284 0.929 . S
C1292 C1293 1.377 . S
C1292 C1294 1.384 . S
C1293 C1292 1.377 . S
C1293 C1299 1.390 . S
C1294 H1285 0.930 . S
C1294 C1292 1.384 . S
C1294 C1295 1.372 . S
C1295 C1294 1.372 . S
C1295 C1296 1.400 . S
C1295 C1300 1.490 . S
C1296 H1286 0.930 . S
C1296 C1295 1.400 . S
C1296 C1299 1.386 . S
H1297 C1313 0.930 . S
H1298 C1314 0.931 . S
C1299 H1287 0.929 . S
C1299 C1293 1.390 . S
C1299 C1296 1.386 . S
C1300 C1295 1.490 . S
C1300 C1302 1.395 . S
C1300 C1303 1.403 . S
H1301 C1307 0.930 . S
C1302 H1288 0.930 . S
C1302 C1300 1.395 . S
C1302 C1305 1.403 . S
C1303 C1300 1.403 . S
C1303 C1304 1.524 . S
C1303 C1307 1.400 . S
C1304 H1289 0.960 . S
C1304 H1290 0.960 . S
C1304 H1291 0.960 . S
C1304 C1303 1.524 . S
C1305 C1302 1.403 . S
C1305 C1306 1.392 . S
C1305 C1309 1.495 . S
C1306 C1305 1.392 . S
C1306 C1307 1.385 . S
C1306 C1308 1.478 . S
C1307 H1301 0.930 . S
C1307 C1303 1.400 . S
C1307 C1306 1.385 . S
C1308 C1306 1.478 . S
C1308 C1310 1.381 . S
C1308 C1314 1.383 . S
C1309 C1305 1.495 . S
C1309 H1315 0.959 . S
C1309 H1316 0.961 . S
C1309 H1317 0.960 . S
C1310 C1308 1.381 . S
C1310 C1311 1.394 . S
C1310 H1318 0.930 . S
C1311 C1310 1.394 . S
C1311 C1312 1.383 . S
C1311 H1319 0.929 . S
C1312 C1311 1.383 . S
C1312 C1313 1.377 . S
C1313 H1297 0.930 . S
C1313 C1312 1.377 . S
C1313 C1314 1.379 . S
C1314 H1298 0.931 . S
C1314 C1308 1.383 . S
C1314 C1313 1.379 . S
H1315 C1309 0.959 . S
H1316 C1309 0.961 . S
H1317 C1309 0.960 . S
H1318 C1310 0.930 . S
H1319 C1311 0.929 . S
H1320 C1328 0.929 . S
H1321 C1330 0.930 . S
H1322 C1332 0.930 . S
H1323 C1335 0.929 . S
H1324 C1338 0.930 . S
H1325 C1340 0.960 . S
H1326 C1340 0.960 . S
H1327 C1340 0.960 . S
C1328 H1320 0.929 . S
C1328 C1329 1.377 . S
C1328 C1330 1.384 . S
C1329 C1328 1.377 . S
C1329 C1335 1.390 . S
C1330 H1321 0.930 . S
C1330 C1328 1.384 . S
C1330 C1331 1.372 . S
C1331 C1330 1.372 . S
C1331 C1332 1.400 . S
C1331 C1336 1.490 . S
C1332 H1322 0.930 . S
C1332 C1331 1.400 . S
C1332 C1335 1.386 . S
H1333 C1349 0.930 . S
H1334 C1350 0.931 . S
C1335 H1323 0.929 . S
C1335 C1329 1.390 . S
C1335 C1332 1.386 . S
C1336 C1331 1.490 . S
C1336 C1338 1.395 . S
C1336 C1339 1.403 . S
H1337 C1343 0.930 . S
C1338 H1324 0.930 . S
C1338 C1336 1.395 . S
C1338 C1341 1.403 . S
C1339 C1336 1.403 . S
C1339 C1340 1.524 . S
C1339 C1343 1.400 . S
C1340 H1325 0.960 . S
C1340 H1326 0.960 . S
C1340 H1327 0.960 . S
C1340 C1339 1.524 . S
C1341 C1338 1.403 . S
C1341 C1342 1.392 . S
C1341 C1345 1.495 . S
C1342 C1341 1.392 . S
C1342 C1343 1.385 . S
C1342 C1344 1.478 . S
C1343 H1337 0.930 . S
C1343 C1339 1.400 . S
C1343 C1342 1.385 . S
C1344 C1342 1.478 . S
C1344 C1346 1.381 . S
C1344 C1350 1.383 . S
C1345 C1341 1.495 . S
C1345 H1351 0.959 . S
C1345 H1352 0.961 . S
C1345 H1353 0.960 . S
C1346 C1344 1.381 . S
C1346 C1347 1.394 . S
C1346 H1354 0.930 . S
C1347 C1346 1.394 . S
C1347 C1348 1.383 . S
C1347 H1355 0.929 . S
C1348 C1347 1.383 . S
C1348 C1349 1.377 . S
C1349 H1333 0.930 . S
C1349 C1348 1.377 . S
C1349 C1350 1.379 . S
C1350 H1334 0.931 . S
C1350 C1344 1.383 . S
C1350 C1349 1.379 . S
H1351 C1345 0.959 . S
H1352 C1345 0.961 . S
H1353 C1345 0.960 . S
H1354 C1346 0.930 . S
H1355 C1347 0.929 . S
H1356 C1364 0.929 . S
H1357 C1366 0.930 . S
H1358 C1368 0.930 . S
H1359 C1371 0.929 . S
H1360 C1374 0.930 . S
H1361 C1376 0.960 . S
H1362 C1376 0.960 . S
H1363 C1376 0.960 . S
C1364 H1356 0.929 . S
C1364 C1365 1.377 . S
C1364 C1366 1.384 . S
C1365 C1364 1.377 . S
C1365 C1371 1.390 . S
C1366 H1357 0.930 . S
C1366 C1364 1.384 . S
C1366 C1367 1.372 . S
C1367 C1366 1.372 . S
C1367 C1368 1.400 . S
C1367 C1372 1.490 . S
C1368 H1358 0.930 . S
C1368 C1367 1.400 . S
C1368 C1371 1.386 . S
H1369 C1385 0.930 . S
H1370 C1386 0.931 . S
C1371 H1359 0.929 . S
C1371 C1365 1.390 . S
C1371 C1368 1.386 . S
C1372 C1367 1.490 . S
C1372 C1374 1.395 . S
C1372 C1375 1.403 . S
H1373 C1379 0.930 . S
C1374 H1360 0.930 . S
C1374 C1372 1.395 . S
C1374 C1377 1.403 . S
C1375 C1372 1.403 . S
C1375 C1376 1.524 . S
C1375 C1379 1.400 . S
C1376 H1361 0.960 . S
C1376 H1362 0.960 . S
C1376 H1363 0.960 . S
C1376 C1375 1.524 . S
C1377 C1374 1.403 . S
C1377 C1378 1.392 . S
C1377 C1381 1.495 . S
C1378 C1377 1.392 . S
C1378 C1379 1.385 . S
C1378 C1380 1.478 . S
C1379 H1373 0.930 . S
C1379 C1375 1.400 . S
C1379 C1378 1.385 . S
C1380 C1378 1.478 . S
C1380 C1382 1.381 . S
C1380 C1386 1.383 . S
C1381 C1377 1.495 . S
C1381 H1387 0.959 . S
C1381 H1388 0.961 . S
C1381 H1389 0.960 . S
C1382 C1380 1.381 . S
C1382 C1383 1.394 . S
C1382 H1390 0.930 . S
C1383 C1382 1.394 . S
C1383 C1384 1.383 . S
C1383 H1391 0.929 . S
C1384 C1383 1.383 . S
C1384 C1385 1.377 . S
C1385 H1369 0.930 . S
C1385 C1384 1.377 . S
C1385 C1386 1.379 . S
C1386 H1370 0.931 . S
C1386 C1380 1.383 . S
C1386 C1385 1.379 . S
H1387 C1381 0.959 . S
H1388 C1381 0.961 . S
H1389 C1381 0.960 . S
H1390 C1382 0.930 . S
H1391 C1383 0.929 . S
H1392 C1400 0.929 . S
H1393 C1402 0.930 . S
H1394 C1404 0.930 . S
H1395 C1407 0.929 . S
H1396 C1410 0.930 . S
H1397 C1412 0.960 . S
H1398 C1412 0.960 . S
H1399 C1412 0.960 . S
C1400 H1392 0.929 . S
C1400 C1401 1.377 . S
C1400 C1402 1.384 . S
C1401 C1400 1.377 . S
C1401 C1407 1.390 . S
C1402 H1393 0.930 . S
C1402 C1400 1.384 . S
C1402 C1403 1.372 . S
C1403 C1402 1.372 . S
C1403 C1404 1.400 . S
C1403 C1408 1.490 . S
C1404 H1394 0.930 . S
C1404 C1403 1.400 . S
C1404 C1407 1.386 . S
H1405 C1421 0.930 . S
H1406 C1422 0.931 . S
C1407 H1395 0.929 . S
C1407 C1401 1.390 . S
C1407 C1404 1.386 . S
C1408 C1403 1.490 . S
C1408 C1410 1.395 . S
C1408 C1411 1.403 . S
H1409 C1415 0.930 . S
C1410 H1396 0.930 . S
C1410 C1408 1.395 . S
C1410 C1413 1.403 . S
C1411 C1408 1.403 . S
C1411 C1412 1.524 . S
C1411 C1415 1.400 . S
C1412 H1397 0.960 . S
C1412 H1398 0.960 . S
C1412 H1399 0.960 . S
C1412 C1411 1.524 . S
C1413 C1410 1.403 . S
C1413 C1414 1.392 . S
C1413 C1417 1.495 . S
C1414 C1413 1.392 . S
C1414 C1415 1.385 . S
C1414 C1416 1.478 . S
C1415 H1409 0.930 . S
C1415 C1411 1.400 . S
C1415 C1414 1.385 . S
C1416 C1414 1.478 . S
C1416 C1418 1.381 . S
C1416 C1422 1.383 . S
C1417 C1413 1.495 . S
C1417 H1423 0.959 . S
C1417 H1424 0.961 . S
C1417 H1425 0.960 . S
C1418 C1416 1.381 . S
C1418 C1419 1.394 . S
C1418 H1426 0.930 . S
C1419 C1418 1.394 . S
C1419 C1420 1.383 . S
C1419 H1427 0.929 . S
C1420 C1419 1.383 . S
C1420 C1421 1.377 . S
C1421 H1405 0.930 . S
C1421 C1420 1.377 . S
C1421 C1422 1.379 . S
C1422 H1406 0.931 . S
C1422 C1416 1.383 . S
C1422 C1421 1.379 . S
H1423 C1417 0.959 . S
H1424 C1417 0.961 . S
H1425 C1417 0.960 . S
H1426 C1418 0.930 . S
H1427 C1419 0.929 . S
H1428 C1436 0.929 . S
H1429 C1438 0.930 . S
H1430 C1440 0.930 . S
H1431 C1443 0.929 . S
H1432 C1446 0.930 . S
H1433 C1448 0.960 . S
H1434 C1448 0.960 . S
H1435 C1448 0.960 . S
C1436 H1428 0.929 . S
C1436 C1437 1.377 . S
C1436 C1438 1.384 . S
C1437 C1436 1.377 . S
C1437 C1443 1.390 . S
C1438 H1429 0.930 . S
C1438 C1436 1.384 . S
C1438 C1439 1.372 . S
C1439 C1438 1.372 . S
C1439 C1440 1.400 . S
C1439 C1444 1.490 . S
C1440 H1430 0.930 . S
C1440 C1439 1.400 . S
C1440 C1443 1.386 . S
H1441 C1457 0.930 . S
H1442 C1458 0.931 . S
C1443 H1431 0.929 . S
C1443 C1437 1.390 . S
C1443 C1440 1.386 . S
C1444 C1439 1.490 . S
C1444 C1446 1.395 . S
C1444 C1447 1.403 . S
H1445 C1451 0.930 . S
C1446 H1432 0.930 . S
C1446 C1444 1.395 . S
C1446 C1449 1.403 . S
C1447 C1444 1.403 . S
C1447 C1448 1.524 . S
C1447 C1451 1.400 . S
C1448 H1433 0.960 . S
C1448 H1434 0.960 . S
C1448 H1435 0.960 . S
C1448 C1447 1.524 . S
C1449 C1446 1.403 . S
C1449 C1450 1.392 . S
C1449 C1453 1.495 . S
C1450 C1449 1.392 . S
C1450 C1451 1.385 . S
C1450 C1452 1.478 . S
C1451 H1445 0.930 . S
C1451 C1447 1.400 . S
C1451 C1450 1.385 . S
C1452 C1450 1.478 . S
C1452 C1454 1.381 . S
C1452 C1458 1.383 . S
C1453 C1449 1.495 . S
C1453 H1459 0.959 . S
C1453 H1460 0.961 . S
C1453 H1461 0.960 . S
C1454 C1452 1.381 . S
C1454 C1455 1.394 . S
C1454 H1462 0.930 . S
C1455 C1454 1.394 . S
C1455 C1456 1.383 . S
C1455 H1463 0.929 . S
C1456 C1455 1.383 . S
C1456 C1457 1.377 . S
C1457 H1441 0.930 . S
C1457 C1456 1.377 . S
C1457 C1458 1.379 . S
C1458 H1442 0.931 . S
C1458 C1452 1.383 . S
C1458 C1457 1.379 . S
H1459 C1453 0.959 . S
H1460 C1453 0.961 . S
H1461 C1453 0.960 . S
H1462 C1454 0.930 . S
H1463 C1455 0.929 . S
H1464 C1472 0.929 . S
H1465 C1474 0.930 . S
H1466 C1476 0.930 . S
H1467 C1479 0.929 . S
H1468 C1482 0.930 . S
H1469 C1484 0.960 . S
H1470 C1484 0.960 . S
H1471 C1484 0.960 . S
C1472 H1464 0.929 . S
C1472 C1473 1.377 . S
C1472 C1474 1.384 . S
C1473 C1472 1.377 . S
C1473 C1479 1.390 . S
C1474 H1465 0.930 . S
C1474 C1472 1.384 . S
C1474 C1475 1.372 . S
C1475 C1474 1.372 . S
C1475 C1476 1.400 . S
C1475 C1480 1.490 . S
C1476 H1466 0.930 . S
C1476 C1475 1.400 . S
C1476 C1479 1.386 . S
H1477 C1493 0.930 . S
H1478 C1494 0.931 . S
C1479 H1467 0.929 . S
C1479 C1473 1.390 . S
C1479 C1476 1.386 . S
C1480 C1475 1.490 . S
C1480 C1482 1.395 . S
C1480 C1483 1.403 . S
H1481 C1487 0.930 . S
C1482 H1468 0.930 . S
C1482 C1480 1.395 . S
C1482 C1485 1.403 . S
C1483 C1480 1.403 . S
C1483 C1484 1.524 . S
C1483 C1487 1.400 . S
C1484 H1469 0.960 . S
C1484 H1470 0.960 . S
C1484 H1471 0.960 . S
C1484 C1483 1.524 . S
C1485 C1482 1.403 . S
C1485 C1486 1.392 . S
C1485 C1489 1.495 . S
C1486 C1485 1.392 . S
C1486 C1487 1.385 . S
C1486 C1488 1.478 . S
C1487 H1481 0.930 . S
C1487 C1483 1.400 . S
C1487 C1486 1.385 . S
C1488 C1486 1.478 . S
C1488 C1490 1.381 . S
C1488 C1494 1.383 . S
C1489 C1485 1.495 . S
C1489 H1495 0.959 . S
C1489 H1496 0.961 . S
C1489 H1497 0.960 . S
C1490 C1488 1.381 . S
C1490 C1491 1.394 . S
C1490 H1498 0.930 . S
C1491 C1490 1.394 . S
C1491 C1492 1.383 . S
C1491 H1499 0.929 . S
C1492 C1491 1.383 . S
C1492 C1493 1.377 . S
C1493 H1477 0.930 . S
C1493 C1492 1.377 . S
C1493 C1494 1.379 . S
C1494 H1478 0.931 . S
C1494 C1488 1.383 . S
C1494 C1493 1.379 . S
H1495 C1489 0.959 . S
H1496 C1489 0.961 . S
H1497 C1489 0.960 . S
H1498 C1490 0.930 . S
H1499 C1491 0.929 . S
H1500 C1508 0.929 . S
H1501 C1510 0.930 . S
H1502 C1512 0.930 . S
H1503 C1515 0.929 . S
H1504 C1518 0.930 . S
H1505 C1520 0.960 . S
H1506 C1520 0.960 . S
H1507 C1520 0.960 . S
C1508 H1500 0.929 . S
C1508 C1509 1.377 . S
C1508 C1510 1.384 . S
C1509 C1508 1.377 . S
C1509 C1515 1.390 . S
C1510 H1501 0.930 . S
C1510 C1508 1.384 . S
C1510 C1511 1.372 . S
C1511 C1510 1.372 . S
C1511 C1512 1.400 . S
C1511 C1516 1.490 . S
C1512 H1502 0.930 . S
C1512 C1511 1.400 . S
C1512 C1515 1.386 . S
H1513 C1529 0.930 . S
H1514 C1530 0.931 . S
C1515 H1503 0.929 . S
C1515 C1509 1.390 . S
C1515 C1512 1.386 . S
C1516 C1511 1.490 . S
C1516 C1518 1.395 . S
C1516 C1519 1.403 . S
H1517 C1523 0.930 . S
C1518 H1504 0.930 . S
C1518 C1516 1.395 . S
C1518 C1521 1.403 . S
C1519 C1516 1.403 . S
C1519 C1520 1.524 . S
C1519 C1523 1.400 . S
C1520 H1505 0.960 . S
C1520 H1506 0.960 . S
C1520 H1507 0.960 . S
C1520 C1519 1.524 . S
C1521 C1518 1.403 . S
C1521 C1522 1.392 . S
C1521 C1525 1.495 . S
C1522 C1521 1.392 . S
C1522 C1523 1.385 . S
C1522 C1524 1.478 . S
C1523 H1517 0.930 . S
C1523 C1519 1.400 . S
C1523 C1522 1.385 . S
C1524 C1522 1.478 . S
C1524 C1526 1.381 . S
C1524 C1530 1.383 . S
C1525 C1521 1.495 . S
C1525 H1531 0.959 . S
C1525 H1532 0.961 . S
C1525 H1533 0.960 . S
C1526 C1524 1.381 . S
C1526 C1527 1.394 . S
C1526 H1534 0.930 . S
C1527 C1526 1.394 . S
C1527 C1528 1.383 . S
C1527 H1535 0.929 . S
C1528 C1527 1.383 . S
C1528 C1529 1.377 . S
C1529 H1513 0.930 . S
C1529 C1528 1.377 . S
C1529 C1530 1.379 . S
C1530 H1514 0.931 . S
C1530 C1524 1.383 . S
C1530 C1529 1.379 . S
H1531 C1525 0.959 . S
H1532 C1525 0.961 . S
H1533 C1525 0.960 . S
H1534 C1526 0.930 . S
H1535 C1527 0.929 . S
H1536 C1544 0.929 . S
H1537 C1546 0.930 . S
H1538 C1548 0.930 . S
H1539 C1551 0.929 . S
H1540 C1554 0.930 . S
H1541 C1556 0.960 . S
H1542 C1556 0.960 . S
H1543 C1556 0.960 . S
C1544 H1536 0.929 . S
C1544 C1545 1.377 . S
C1544 C1546 1.384 . S
C1545 C1544 1.377 . S
C1545 C1551 1.390 . S
C1546 H1537 0.930 . S
C1546 C1544 1.384 . S
C1546 C1547 1.372 . S
C1547 C1546 1.372 . S
C1547 C1548 1.400 . S
C1547 C1552 1.490 . S
C1548 H1538 0.930 . S
C1548 C1547 1.400 . S
C1548 C1551 1.386 . S
H1549 C1565 0.930 . S
H1550 C1566 0.931 . S
C1551 H1539 0.929 . S
C1551 C1545 1.390 . S
C1551 C1548 1.386 . S
C1552 C1547 1.490 . S
C1552 C1554 1.395 . S
C1552 C1555 1.403 . S
H1553 C1559 0.930 . S
C1554 H1540 0.930 . S
C1554 C1552 1.395 . S
C1554 C1557 1.403 . S
C1555 C1552 1.403 . S
C1555 C1556 1.524 . S
C1555 C1559 1.400 . S
C1556 H1541 0.960 . S
C1556 H1542 0.960 . S
C1556 H1543 0.960 . S
C1556 C1555 1.524 . S
C1557 C1554 1.403 . S
C1557 C1558 1.392 . S
C1557 C1561 1.495 . S
C1558 C1557 1.392 . S
C1558 C1559 1.385 . S
C1558 C1560 1.478 . S
C1559 H1553 0.930 . S
C1559 C1555 1.400 . S
C1559 C1558 1.385 . S
C1560 C1558 1.478 . S
C1560 C1562 1.381 . S
C1560 C1566 1.383 . S
C1561 C1557 1.495 . S
C1561 H1567 0.959 . S
C1561 H1568 0.961 . S
C1561 H1569 0.960 . S
C1562 C1560 1.381 . S
C1562 C1563 1.394 . S
C1562 H1570 0.930 . S
C1563 C1562 1.394 . S
C1563 C1564 1.383 . S
C1563 H1571 0.929 . S
C1564 C1563 1.383 . S
C1564 C1565 1.377 . S
C1565 H1549 0.930 . S
C1565 C1564 1.377 . S
C1565 C1566 1.379 . S
C1566 H1550 0.931 . S
C1566 C1560 1.383 . S
C1566 C1565 1.379 . S
H1567 C1561 0.959 . S
H1568 C1561 0.961 . S
H1569 C1561 0.960 . S
H1570 C1562 0.930 . S
H1571 C1563 0.929 . S
H1572 C1580 0.929 . S
H1573 C1582 0.930 . S
H1574 C1584 0.930 . S
H1575 C1587 0.929 . S
H1576 C1590 0.930 . S
H1577 C1592 0.960 . S
H1578 C1592 0.960 . S
H1579 C1592 0.960 . S
C1580 H1572 0.929 . S
C1580 C1581 1.377 . S
C1580 C1582 1.384 . S
C1581 C1580 1.377 . S
C1581 C1587 1.390 . S
C1582 H1573 0.930 . S
C1582 C1580 1.384 . S
C1582 C1583 1.372 . S
C1583 C1582 1.372 . S
C1583 C1584 1.400 . S
C1583 C1588 1.490 . S
C1584 H1574 0.930 . S
C1584 C1583 1.400 . S
C1584 C1587 1.386 . S
H1585 C1601 0.938 . S
H1586 C1602 0.931 . S
C1587 H1575 0.929 . S
C1587 C1581 1.390 . S
C1587 C1584 1.386 . S
C1588 C1583 1.490 . S
C1588 C1590 1.395 . S
C1588 C1591 1.403 . S
H1589 C1595 0.930 . S
C1590 H1576 0.930 . S
C1590 C1588 1.395 . S
C1590 C1593 1.403 . S
C1591 C1588 1.403 . S
C1591 C1592 1.524 . S
C1591 C1595 1.400 . S
C1592 H1577 0.960 . S
C1592 H1578 0.960 . S
C1592 H1579 0.960 . S
C1592 C1591 1.524 . S
C1593 C1590 1.403 . S
C1593 C1594 1.392 . S
C1593 C1597 1.495 . S
C1594 C1593 1.392 . S
C1594 C1595 1.385 . S
C1594 C1596 1.478 . S
C1595 H1589 0.930 . S
C1595 C1591 1.400 . S
C1595 C1594 1.385 . S
C1596 C1594 1.478 . S
C1596 C1598 1.381 . S
C1596 C1602 1.383 . S
C1597 C1593 1.495 . S
C1597 H1603 0.959 . S
C1597 H1604 0.961 . S
C1597 H1605 0.960 . S
C1598 C1596 1.381 . S
C1598 C1599 1.394 . S
C1598 H1606 0.930 . S
C1599 C1598 1.394 . S
C1599 C1600 1.383 . S
C1599 H1607 0.929 . S
C1600 C1599 1.383 . S
C1600 C1601 1.377 . S
C1601 H1585 0.938 . S
C1601 C1600 1.377 . S
C1601 C1602 1.379 . S
C1602 H1586 0.931 . S
C1602 C1596 1.383 . S
C1602 C1601 1.379 . S
H1603 C1597 0.959 . S
H1604 C1597 0.961 . S
H1605 C1597 0.960 . S
H1606 C1598 0.930 . S
H1607 C1599 0.929 . S
H1608 C1616 0.929 . S
H1609 C1618 0.930 . S
H1610 C1620 0.930 . S
H1611 C1623 0.929 . S
H1612 C1626 0.930 . S
H1613 C1628 0.960 . S
H1614 C1628 0.960 . S
H1615 C1628 0.960 . S
C1616 H1608 0.929 . S
C1616 C1617 1.377 . S
C1616 C1618 1.384 . S
C1617 C1616 1.377 . S
C1617 C1623 1.390 . S
C1618 H1609 0.930 . S
C1618 C1616 1.384 . S
C1618 C1619 1.372 . S
C1619 C1618 1.372 . S
C1619 C1620 1.400 . S
C1619 C1624 1.490 . S
C1620 H1610 0.930 . S
C1620 C1619 1.400 . S
C1620 C1623 1.386 . S
H1621 C1637 0.930 . S
H1622 C1638 0.931 . S
C1623 H1611 0.929 . S
C1623 C1617 1.390 . S
C1623 C1620 1.386 . S
C1624 C1619 1.490 . S
C1624 C1626 1.395 . S
C1624 C1627 1.403 . S
H1625 C1631 0.930 . S
C1626 H1612 0.930 . S
C1626 C1624 1.395 . S
C1626 C1629 1.403 . S
C1627 C1624 1.403 . S
C1627 C1628 1.524 . S
C1627 C1631 1.400 . S
C1628 H1613 0.960 . S
C1628 H1614 0.960 . S
C1628 H1615 0.960 . S
C1628 C1627 1.524 . S
C1629 C1626 1.403 . S
C1629 C1630 1.392 . S
C1629 C1633 1.495 . S
C1630 C1629 1.392 . S
C1630 C1631 1.385 . S
C1630 C1632 1.478 . S
C1631 H1625 0.930 . S
C1631 C1627 1.400 . S
C1631 C1630 1.385 . S
C1632 C1630 1.478 . S
C1632 C1634 1.381 . S
C1632 C1638 1.383 . S
C1633 C1629 1.495 . S
C1633 H1639 0.959 . S
C1633 H1640 0.961 . S
C1633 H1641 0.960 . S
C1634 C1632 1.381 . S
C1634 C1635 1.394 . S
C1634 H1642 0.930 . S
C1635 C1634 1.394 . S
C1635 C1636 1.383 . S
C1635 H1643 0.929 . S
C1636 C1635 1.383 . S
C1636 C1637 1.377 . S
C1637 H1621 0.930 . S
C1637 C1636 1.377 . S
C1637 C1638 1.379 . S
C1638 H1622 0.931 . S
C1638 C1632 1.383 . S
C1638 C1637 1.379 . S
H1639 C1633 0.959 . S
H1640 C1633 0.961 . S
H1641 C1633 0.960 . S
H1642 C1634 0.930 . S
H1643 C1635 0.929 . S
H1644 C1652 0.929 . S
H1645 C1654 0.930 . S
H1646 C1656 0.930 . S
H1647 C1659 0.929 . S
H1648 C1662 0.930 . S
H1649 C1664 0.960 . S
H1650 C1664 0.960 . S
H1651 C1664 0.960 . S
C1652 H1644 0.929 . S
C1652 C1653 1.377 . S
C1652 C1654 1.384 . S
C1653 C1652 1.377 . S
C1653 C1659 1.390 . S
C1654 H1645 0.930 . S
C1654 C1652 1.384 . S
C1654 C1655 1.372 . S
C1655 C1654 1.372 . S
C1655 C1656 1.400 . S
C1655 C1660 1.490 . S
C1656 H1646 0.930 . S
C1656 C1655 1.400 . S
C1656 C1659 1.386 . S
H1657 C1673 0.930 . S
H1658 C1674 0.931 . S
C1659 H1647 0.929 . S
C1659 C1653 1.390 . S
C1659 C1656 1.386 . S
C1660 C1655 1.490 . S
C1660 C1662 1.395 . S
C1660 C1663 1.403 . S
H1661 C1667 0.930 . S
C1662 H1648 0.930 . S
C1662 C1660 1.395 . S
C1662 C1665 1.403 . S
C1663 C1660 1.403 . S
C1663 C1664 1.524 . S
C1663 C1667 1.400 . S
C1664 H1649 0.960 . S
C1664 H1650 0.960 . S
C1664 H1651 0.960 . S
C1664 C1663 1.524 . S
C1665 C1662 1.403 . S
C1665 C1666 1.392 . S
C1665 C1669 1.495 . S
C1666 C1665 1.392 . S
C1666 C1667 1.385 . S
C1666 C1668 1.478 . S
C1667 H1661 0.930 . S
C1667 C1663 1.400 . S
C1667 C1666 1.385 . S
C1668 C1666 1.478 . S
C1668 C1670 1.381 . S
C1668 C1674 1.383 . S
C1669 C1665 1.495 . S
C1669 H1675 0.959 . S
C1669 H1676 0.961 . S
C1669 H1677 0.960 . S
C1670 C1668 1.381 . S
C1670 C1671 1.394 . S
C1670 H1678 0.930 . S
C1671 C1670 1.394 . S
C1671 C1672 1.383 . S
C1671 H1679 0.929 . S
C1672 C1671 1.383 . S
C1672 C1673 1.377 . S
C1673 H1657 0.930 . S
C1673 C1672 1.377 . S
C1673 C1674 1.379 . S
C1674 H1658 0.931 . S
C1674 C1668 1.383 . S
C1674 C1673 1.379 . S
H1675 C1669 0.959 . S
H1676 C1669 0.961 . S
H1677 C1669 0.960 . S
H1678 C1670 0.930 . S
H1679 C1671 0.929 . S
H1680 C1688 0.929 . S
H1681 C1690 0.930 . S
H1682 C1692 0.930 . S
H1683 C1695 0.929 . S
H1684 C1698 0.930 . S
H1685 C1700 0.960 . S
H1686 C1700 0.960 . S
H1687 C1700 0.960 . S
C1688 H1680 0.929 . S
C1688 C1689 1.377 . S
C1688 C1690 1.384 . S
C1689 C1688 1.377 . S
C1689 C1695 1.390 . S
C1690 H1681 0.930 . S
C1690 C1688 1.384 . S
C1690 C1691 1.372 . S
C1691 C1690 1.372 . S
C1691 C1692 1.400 . S
C1691 C1696 1.490 . S
C1692 H1682 0.930 . S
C1692 C1691 1.400 . S
C1692 C1695 1.386 . S
H1693 C1709 0.930 . S
H1694 C1710 0.931 . S
C1695 H1683 0.929 . S
C1695 C1689 1.390 . S
C1695 C1692 1.386 . S
C1696 C1691 1.490 . S
C1696 C1698 1.395 . S
C1696 C1699 1.403 . S
H1697 C1703 0.930 . S
C1698 H1684 0.930 . S
C1698 C1696 1.395 . S
C1698 C1701 1.403 . S
C1699 C1696 1.403 . S
C1699 C1700 1.524 . S
C1699 C1703 1.400 . S
C1700 H1685 0.960 . S
C1700 H1686 0.960 . S
C1700 H1687 0.960 . S
C1700 C1699 1.524 . S
C1701 C1698 1.403 . S
C1701 C1702 1.392 . S
C1701 C1705 1.495 . S
C1702 C1701 1.392 . S
C1702 C1703 1.385 . S
C1702 C1704 1.478 . S
C1703 H1697 0.930 . S
C1703 C1699 1.400 . S
C1703 C1702 1.385 . S
C1704 C1702 1.478 . S
C1704 C1706 1.381 . S
C1704 C1710 1.383 . S
C1705 C1701 1.495 . S
C1705 H1711 0.959 . S
C1705 H1712 0.961 . S
C1705 H1713 0.960 . S
C1706 C1704 1.381 . S
C1706 C1707 1.394 . S
C1706 H1714 0.930 . S
C1707 C1706 1.394 . S
C1707 C1708 1.383 . S
C1707 H1715 0.929 . S
C1708 C1707 1.383 . S
C1708 C1709 1.377 . S
C1709 H1693 0.930 . S
C1709 C1708 1.377 . S
C1709 C1710 1.379 . S
C1710 H1694 0.931 . S
C1710 C1704 1.383 . S
C1710 C1709 1.379 . S
H1711 C1705 0.959 . S
H1712 C1705 0.961 . S
H1713 C1705 0.960 . S
H1714 C1706 0.930 . S
H1715 C1707 0.929 . S
H1716 C1724 0.929 . S
H1717 C1726 0.930 . S
H1718 C1728 0.930 . S
H1719 C1731 0.929 . S
H1720 C1734 0.930 . S
H1721 C1736 0.960 . S
H1722 C1736 0.960 . S
H1723 C1736 0.960 . S
C1724 H1716 0.929 . S
C1724 C1725 1.377 . S
C1724 C1726 1.384 . S
C1725 C1724 1.377 . S
C1725 C1731 1.390 . S
C1726 H1717 0.930 . S
C1726 C1724 1.384 . S
C1726 C1727 1.372 . S
C1727 C1726 1.372 . S
C1727 C1728 1.400 . S
C1727 C1732 1.490 . S
C1728 H1718 0.930 . S
C1728 C1727 1.400 . S
C1728 C1731 1.386 . S
H1729 C1745 0.930 . S
H1730 C1746 0.931 . S
C1731 H1719 0.929 . S
C1731 C1725 1.390 . S
C1731 C1728 1.386 . S
C1732 C1727 1.490 . S
C1732 C1734 1.395 . S
C1732 C1735 1.403 . S
H1733 C1739 0.930 . S
C1734 H1720 0.930 . S
C1734 C1732 1.395 . S
C1734 C1737 1.403 . S
C1735 C1732 1.403 . S
C1735 C1736 1.524 . S
C1735 C1739 1.400 . S
C1736 H1721 0.960 . S
C1736 H1722 0.960 . S
C1736 H1723 0.960 . S
C1736 C1735 1.524 . S
C1737 C1734 1.403 . S
C1737 C1738 1.392 . S
C1737 C1741 1.495 . S
C1738 C1737 1.392 . S
C1738 C1739 1.385 . S
C1738 C1740 1.478 . S
C1739 H1733 0.930 . S
C1739 C1735 1.400 . S
C1739 C1738 1.385 . S
C1740 C1738 1.478 . S
C1740 C1742 1.381 . S
C1740 C1746 1.383 . S
C1741 C1737 1.495 . S
C1741 H1747 0.959 . S
C1741 H1748 0.961 . S
C1741 H1749 0.960 . S
C1742 C1740 1.381 . S
C1742 C1743 1.394 . S
C1742 H1750 0.930 . S
C1743 C1742 1.394 . S
C1743 C1744 1.383 . S
C1743 H1751 0.929 . S
C1744 C1743 1.383 . S
C1744 C1745 1.377 . S
C1745 H1729 0.930 . S
C1745 C1744 1.377 . S
C1745 C1746 1.379 . S
C1746 H1730 0.931 . S
C1746 C1740 1.383 . S
C1746 C1745 1.379 . S
H1747 C1741 0.959 . S
H1748 C1741 0.961 . S
H1749 C1741 0.960 . S
H1750 C1742 0.930 . S
H1751 C1743 0.929 . S
H1752 C1760 0.929 . S
H1753 C1762 0.930 . S
H1754 C1764 0.930 . S
H1755 C1767 0.929 . S
H1756 C1770 0.930 . S
H1757 C1772 0.960 . S
H1758 C1772 0.960 . S
H1759 C1772 0.960 . S
C1760 H1752 0.929 . S
C1760 C1761 1.377 . S
C1760 C1762 1.384 . S
C1761 C1760 1.377 . S
C1761 C1767 1.390 . S
C1762 H1753 0.930 . S
C1762 C1760 1.384 . S
C1762 C1763 1.372 . S
C1763 C1762 1.372 . S
C1763 C1764 1.400 . S
C1763 C1768 1.490 . S
C1764 H1754 0.930 . S
C1764 C1763 1.400 . S
C1764 C1767 1.386 . S
H1765 C1781 0.930 . S
H1766 C1782 0.931 . S
C1767 H1755 0.929 . S
C1767 C1761 1.390 . S
C1767 C1764 1.386 . S
C1768 C1763 1.490 . S
C1768 C1770 1.395 . S
C1768 C1771 1.403 . S
H1769 C1775 0.930 . S
C1770 H1756 0.930 . S
C1770 C1768 1.395 . S
C1770 C1773 1.403 . S
C1771 C1768 1.403 . S
C1771 C1772 1.524 . S
C1771 C1775 1.400 . S
C1772 H1757 0.960 . S
C1772 H1758 0.960 . S
C1772 H1759 0.960 . S
C1772 C1771 1.524 . S
C1773 C1770 1.403 . S
C1773 C1774 1.392 . S
C1773 C1777 1.495 . S
C1774 C1773 1.392 . S
C1774 C1775 1.385 . S
C1774 C1776 1.478 . S
C1775 H1769 0.930 . S
C1775 C1771 1.400 . S
C1775 C1774 1.385 . S
C1776 C1774 1.478 . S
C1776 C1778 1.381 . S
C1776 C1782 1.383 . S
C1777 C1773 1.495 . S
C1777 H1783 0.959 . S
C1777 H1784 0.961 . S
C1777 H1785 0.960 . S
C1778 C1776 1.381 . S
C1778 C1779 1.394 . S
C1778 H1786 0.930 . S
C1779 C1778 1.394 . S
C1779 C1780 1.383 . S
C1779 H1787 0.929 . S
C1780 C1779 1.383 . S
C1780 C1781 1.377 . S
C1781 H1765 0.930 . S
C1781 C1780 1.377 . S
C1781 C1782 1.379 . S
C1782 H1766 0.931 . S
C1782 C1776 1.383 . S
C1782 C1781 1.379 . S
H1783 C1777 0.959 . S
H1784 C1777 0.961 . S
H1785 C1777 0.960 . S
H1786 C1778 0.930 . S
H1787 C1779 0.929 . S
H1788 C1796 0.929 . S
H1789 C1798 0.930 . S
H1790 C1800 0.930 . S
H1791 C1803 0.929 . S
H1792 C1806 0.930 . S
H1793 C1808 0.960 . S
H1794 C1808 0.960 . S
H1795 C1808 0.960 . S
C1796 H1788 0.929 . S
C1796 C1797 1.377 . S
C1796 C1798 1.384 . S
C1797 C1796 1.377 . S
C1797 C1803 1.390 . S
C1798 H1789 0.930 . S
C1798 C1796 1.384 . S
C1798 C1799 1.372 . S
C1799 C1798 1.372 . S
C1799 C1800 1.400 . S
C1799 C1804 1.490 . S
C1800 H1790 0.930 . S
C1800 C1799 1.400 . S
C1800 C1803 1.386 . S
H1801 C1817 0.930 . S
H1802 C1818 0.931 . S
C1803 H1791 0.929 . S
C1803 C1797 1.390 . S
C1803 C1800 1.386 . S
C1804 C1799 1.490 . S
C1804 C1806 1.395 . S
C1804 C1807 1.403 . S
H1805 C1811 0.930 . S
C1806 H1792 0.930 . S
C1806 C1804 1.395 . S
C1806 C1809 1.403 . S
C1807 C1804 1.403 . S
C1807 C1808 1.524 . S
C1807 C1811 1.400 . S
C1808 H1793 0.960 . S
C1808 H1794 0.960 . S
C1808 H1795 0.960 . S
C1808 C1807 1.524 . S
C1809 C1806 1.403 . S
C1809 C1810 1.392 . S
C1809 C1813 1.495 . S
C1810 C1809 1.392 . S
C1810 C1811 1.385 . S
C1810 C1812 1.478 . S
C1811 H1805 0.930 . S
C1811 C1807 1.400 . S
C1811 C1810 1.385 . S
C1812 C1810 1.478 . S
C1812 C1814 1.381 . S
C1812 C1818 1.383 . S
C1813 C1809 1.495 . S
C1813 H1819 0.959 . S
C1813 H1820 0.961 . S
C1813 H1821 0.960 . S
C1814 C1812 1.381 . S
C1814 C1815 1.394 . S
C1814 H1822 0.930 . S
C1815 C1814 1.394 . S
C1815 C1816 1.383 . S
C1815 H1823 0.929 . S
C1816 C1815 1.383 . S
C1816 C1817 1.377 . S
C1817 H1801 0.930 . S
C1817 C1816 1.377 . S
C1817 C1818 1.379 . S
C1818 H1802 0.931 . S
C1818 C1812 1.383 . S
C1818 C1817 1.379 . S
H1819 C1813 0.959 . S
H1820 C1813 0.961 . S
H1821 C1813 0.960 . S
H1822 C1814 0.930 . S
H1823 C1815 0.929 . S
H1824 C1832 0.929 . S
H1825 C1834 0.930 . S
H1826 C1836 0.930 . S
H1827 C1839 0.929 . S
H1828 C1842 0.930 . S
H1829 C1844 0.960 . S
H1830 C1844 0.960 . S
H1831 C1844 0.960 . S
C1832 H1824 0.929 . S
C1832 C1833 1.377 . S
C1832 C1834 1.384 . S
C1833 C1832 1.377 . S
C1833 C1839 1.390 . S
C1834 H1825 0.930 . S
C1834 C1832 1.384 . S
C1834 C1835 1.372 . S
C1835 C1834 1.372 . S
C1835 C1836 1.400 . S
C1835 C1840 1.490 . S
C1836 H1826 0.930 . S
C1836 C1835 1.400 . S
C1836 C1839 1.386 . S
H1837 C1853 0.930 . S
H1838 C1854 0.931 . S
C1839 H1827 0.929 . S
C1839 C1833 1.390 . S
C1839 C1836 1.386 . S
C1840 C1835 1.490 . S
C1840 C1842 1.395 . S
C1840 C1843 1.403 . S
H1841 C1847 0.930 . S
C1842 H1828 0.930 . S
C1842 C1840 1.395 . S
C1842 C1845 1.403 . S
C1843 C1840 1.403 . S
C1843 C1844 1.524 . S
C1843 C1847 1.400 . S
C1844 H1829 0.960 . S
C1844 H1830 0.960 . S
C1844 H1831 0.960 . S
C1844 C1843 1.524 . S
C1845 C1842 1.403 . S
C1845 C1846 1.392 . S
C1845 C1849 1.495 . S
C1846 C1845 1.392 . S
C1846 C1847 1.385 . S
C1846 C1848 1.478 . S
C1847 H1841 0.930 . S
C1847 C1843 1.400 . S
C1847 C1846 1.385 . S
C1848 C1846 1.478 . S
C1848 C1850 1.381 . S
C1848 C1854 1.383 . S
C1849 C1845 1.495 . S
C1849 H1855 0.959 . S
C1849 H1856 0.961 . S
C1849 H1857 0.960 . S
C1850 C1848 1.381 . S
C1850 C1851 1.394 . S
C1850 H1858 0.930 . S
C1851 C1850 1.394 . S
C1851 C1852 1.383 . S
C1851 H1859 0.929 . S
C1852 C1851 1.383 . S
C1852 C1853 1.377 . S
C1853 H1837 0.930 . S
C1853 C1852 1.377 . S
C1853 C1854 1.379 . S
C1854 H1838 0.931 . S
C1854 C1848 1.383 . S
C1854 C1853 1.379 . S
H1855 C1849 0.959 . S
H1856 C1849 0.961 . S
H1857 C1849 0.960 . S
H1858 C1850 0.930 . S
H1859 C1851 0.929 . S
H1860 C1868 0.929 . S
H1861 C1870 0.930 . S
H1862 C1872 0.930 . S
H1863 C1875 0.929 . S
H1864 C1878 0.930 . S
H1865 C1880 0.960 . S
H1866 C1880 0.960 . S
H1867 C1880 0.960 . S
C1868 H1860 0.929 . S
C1868 C1869 1.377 . S
C1868 C1870 1.384 . S
C1869 C1868 1.377 . S
C1869 C1875 1.390 . S
C1870 H1861 0.930 . S
C1870 C1868 1.384 . S
C1870 C1871 1.372 . S
C1871 C1870 1.372 . S
C1871 C1872 1.400 . S
C1871 C1876 1.490 . S
C1872 H1862 0.930 . S
C1872 C1871 1.400 . S
C1872 C1875 1.386 . S
H1873 C1889 0.930 . S
H1874 C1890 0.931 . S
C1875 H1863 0.929 . S
C1875 C1869 1.390 . S
C1875 C1872 1.386 . S
C1876 C1871 1.490 . S
C1876 C1878 1.395 . S
C1876 C1879 1.403 . S
H1877 C1883 0.930 . S
C1878 H1864 0.930 . S
C1878 C1876 1.395 . S
C1878 C1881 1.403 . S
C1879 C1876 1.403 . S
C1879 C1880 1.524 . S
C1879 C1883 1.400 . S
C1880 H1865 0.960 . S
C1880 H1866 0.960 . S
C1880 H1867 0.960 . S
C1880 C1879 1.524 . S
C1881 C1878 1.403 . S
C1881 C1882 1.392 . S
C1881 C1885 1.495 . S
C1882 C1881 1.392 . S
C1882 C1883 1.385 . S
C1882 C1884 1.478 . S
C1883 H1877 0.930 . S
C1883 C1879 1.400 . S
C1883 C1882 1.385 . S
C1884 C1882 1.478 . S
C1884 C1886 1.381 . S
C1884 C1890 1.383 . S
C1885 C1881 1.495 . S
C1885 H1891 0.959 . S
C1885 H1892 0.961 . S
C1885 H1893 0.960 . S
C1886 C1884 1.381 . S
C1886 C1887 1.394 . S
C1886 H1894 0.930 . S
C1887 C1886 1.394 . S
C1887 C1888 1.383 . S
C1887 H1895 0.929 . S
C1888 C1887 1.383 . S
C1888 C1889 1.377 . S
C1889 H1873 0.930 . S
C1889 C1888 1.377 . S
C1889 C1890 1.379 . S
C1890 H1874 0.931 . S
C1890 C1884 1.383 . S
C1890 C1889 1.379 . S
H1891 C1885 0.959 . S
H1892 C1885 0.961 . S
H1893 C1885 0.960 . S
H1894 C1886 0.930 . S
H1895 C1887 0.929 . S
H1896 C1904 0.929 . S
H1897 C1906 0.930 . S
H1898 C1908 0.930 . S
H1899 C1911 0.929 . S
H1900 C1914 0.930 . S
H1901 C1916 0.960 . S
H1902 C1916 0.960 . S
H1903 C1916 0.960 . S
C1904 H1896 0.929 . S
C1904 C1905 1.377 . S
C1904 C1906 1.384 . S
C1905 C1904 1.377 . S
C1905 C1911 1.390 . S
C1906 H1897 0.930 . S
C1906 C1904 1.384 . S
C1906 C1907 1.372 . S
C1907 C1906 1.372 . S
C1907 C1908 1.400 . S
C1907 C1912 1.490 . S
C1908 H1898 0.930 . S
C1908 C1907 1.400 . S
C1908 C1911 1.386 . S
H1909 C1925 0.930 . S
H1910 C1926 0.931 . S
C1911 H1899 0.929 . S
C1911 C1905 1.390 . S
C1911 C1908 1.386 . S
C1912 C1907 1.490 . S
C1912 C1914 1.395 . S
C1912 C1915 1.403 . S
H1913 C1919 0.930 . S
C1914 H1900 0.930 . S
C1914 C1912 1.395 . S
C1914 C1917 1.403 . S
C1915 C1912 1.403 . S
C1915 C1916 1.524 . S
C1915 C1919 1.400 . S
C1916 H1901 0.960 . S
C1916 H1902 0.960 . S
C1916 H1903 0.960 . S
C1916 C1915 1.524 . S
C1917 C1914 1.403 . S
C1917 C1918 1.392 . S
C1917 C1921 1.495 . S
C1918 C1917 1.392 . S
C1918 C1919 1.385 . S
C1918 C1920 1.478 . S
C1919 H1913 0.930 . S
C1919 C1915 1.400 . S
C1919 C1918 1.385 . S
C1920 C1918 1.478 . S
C1920 C1922 1.381 . S
C1920 C1926 1.383 . S
C1921 C1917 1.495 . S
C1921 H1927 0.959 . S
C1921 H1928 0.961 . S
C1921 H1929 0.960 . S
C1922 C1920 1.381 . S
C1922 C1923 1.394 . S
C1922 H1930 0.930 . S
C1923 C1922 1.394 . S
C1923 C1924 1.383 . S
C1923 H1931 0.962 . S
C1924 C1923 1.383 . S
C1924 C1925 1.377 . S
C1925 H1909 0.930 . S
C1925 C1924 1.377 . S
C1925 C1926 1.379 . S
C1926 H1910 0.931 . S
C1926 C1920 1.383 . S
C1926 C1925 1.379 . S
H1927 C1921 0.959 . S
H1928 C1921 0.961 . S
H1929 C1921 0.960 . S
H1930 C1922 0.930 . S
H1931 C1923 0.962 . S
H1932 C1940 0.929 . S
H1933 C1942 0.930 . S
H1934 C1944 0.930 . S
H1935 C1947 0.929 . S
H1936 C1950 0.930 . S
H1937 C1952 0.960 . S
H1938 C1952 0.960 . S
H1939 C1952 0.960 . S
C1940 H1932 0.929 . S
C1940 C1941 1.377 . S
C1940 C1942 1.384 . S
C1941 C1940 1.377 . S
C1941 C1947 1.390 . S
C1942 H1933 0.930 . S
C1942 C1940 1.384 . S
C1942 C1943 1.372 . S
C1943 C1942 1.372 . S
C1943 C1944 1.400 . S
C1943 C1948 1.490 . S
C1944 H1934 0.930 . S
C1944 C1943 1.400 . S
C1944 C1947 1.386 . S
H1945 C1961 0.930 . S
H1946 C1962 0.931 . S
C1947 H1935 0.929 . S
C1947 C1941 1.390 . S
C1947 C1944 1.386 . S
C1948 C1943 1.490 . S
C1948 C1950 1.395 . S
C1948 C1951 1.403 . S
H1949 C1955 0.930 . S
C1950 H1936 0.930 . S
C1950 C1948 1.395 . S
C1950 C1953 1.403 . S
C1951 C1948 1.403 . S
C1951 C1952 1.524 . S
C1951 C1955 1.400 . S
C1952 H1937 0.960 . S
C1952 H1938 0.960 . S
C1952 H1939 0.960 . S
C1952 C1951 1.524 . S
C1953 C1950 1.403 . S
C1953 C1954 1.392 . S
C1953 C1957 1.495 . S
C1954 C1953 1.392 . S
C1954 C1955 1.385 . S
C1954 C1956 1.478 . S
C1955 H1949 0.930 . S
C1955 C1951 1.400 . S
C1955 C1954 1.385 . S
C1956 C1954 1.478 . S
C1956 C1958 1.381 . S
C1956 C1962 1.383 . S
C1957 C1953 1.495 . S
C1957 H1963 0.959 . S
C1957 H1964 0.961 . S
C1957 H1965 0.960 . S
C1958 C1956 1.381 . S
C1958 C1959 1.394 . S
C1958 H1966 0.930 . S
C1959 C1958 1.394 . S
C1959 C1960 1.383 . S
C1959 H1967 0.929 . S
C1960 C1959 1.383 . S
C1960 C1961 1.377 . S
C1961 H1945 0.930 . S
C1961 C1960 1.377 . S
C1961 C1962 1.379 . S
C1962 H1946 0.931 . S
C1962 C1956 1.383 . S
C1962 C1961 1.379 . S
H1963 C1957 0.959 . S
H1964 C1957 0.961 . S
H1965 C1957 0.960 . S
H1966 C1958 0.930 . S
H1967 C1959 0.929 . S
H1968 C1976 0.929 . S
H1969 C1978 0.930 . S
H1970 C1980 0.930 . S
H1971 C1983 0.929 . S
H1972 C1986 0.930 . S
H1973 C1988 0.960 . S
H1974 C1988 0.960 . S
H1975 C1988 0.960 . S
C1976 H1968 0.929 . S
C1976 C1977 1.377 . S
C1976 C1978 1.384 . S
C1977 C1976 1.377 . S
C1977 C1983 1.390 . S
C1978 H1969 0.930 . S
C1978 C1976 1.384 . S
C1978 C1979 1.372 . S
C1979 C1978 1.372 . S
C1979 C1980 1.400 . S
C1979 C1984 1.490 . S
C1980 H1970 0.930 . S
C1980 C1979 1.400 . S
C1980 C1983 1.386 . S
H1981 C1997 0.930 . S
H1982 C1998 0.931 . S
C1983 H1971 0.929 . S
C1983 C1977 1.390 . S
C1983 C1980 1.386 . S
C1984 C1979 1.490 . S
C1984 C1986 1.395 . S
C1984 C1987 1.403 . S
H1985 C1991 0.930 . S
C1986 H1972 0.930 . S
C1986 C1984 1.395 . S
C1986 C1989 1.403 . S
C1987 C1984 1.403 . S
C1987 C1988 1.524 . S
C1987 C1991 1.400 . S
C1988 H1973 0.960 . S
C1988 H1974 0.960 . S
C1988 H1975 0.960 . S
C1988 C1987 1.524 . S
C1989 C1986 1.403 . S
C1989 C1990 1.392 . S
C1989 C1993 1.495 . S
C1990 C1989 1.392 . S
C1990 C1991 1.385 . S
C1990 C1992 1.478 . S
C1991 H1985 0.930 . S
C1991 C1987 1.400 . S
C1991 C1990 1.385 . S
C1992 C1990 1.478 . S
C1992 C1994 1.381 . S
C1992 C1998 1.383 . S
C1993 C1989 1.495 . S
C1993 H1999 0.959 . S
C1993 H2000 0.961 . S
C1993 H2001 0.960 . S
C1994 C1992 1.381 . S
C1994 C1995 1.394 . S
C1994 H2002 0.930 . S
C1995 C1994 1.394 . S
C1995 C1996 1.383 . S
C1995 H2003 0.963 . S
C1996 C1995 1.383 . S
C1996 C1997 1.377 . S
C1997 H1981 0.930 . S
C1997 C1996 1.377 . S
C1997 C1998 1.379 . S
C1998 H1982 0.931 . S
C1998 C1992 1.383 . S
C1998 C1997 1.379 . S
H1999 C1993 0.959 . S
H2000 C1993 0.961 . S
H2001 C1993 0.960 . S
H2002 C1994 0.930 . S
H2003 C1995 0.963 . S
H2004 C2012 0.929 . S
H2005 C2014 0.930 . S
H2006 C2016 0.930 . S
H2007 C2019 0.929 . S
H2008 C2022 0.930 . S
H2009 C2024 0.960 . S
H2010 C2024 0.960 . S
H2011 C2024 0.960 . S
C2012 H2004 0.929 . S
C2012 C2013 1.377 . S
C2012 C2014 1.384 . S
C2013 C2012 1.377 . S
C2013 C2019 1.390 . S
C2014 H2005 0.930 . S
C2014 C2012 1.384 . S
C2014 C2015 1.372 . S
C2015 C2014 1.372 . S
C2015 C2016 1.400 . S
C2015 C2020 1.490 . S
C2016 H2006 0.930 . S
C2016 C2015 1.400 . S
C2016 C2019 1.386 . S
H2017 C2033 0.930 . S
H2018 C2034 0.931 . S
C2019 H2007 0.929 . S
C2019 C2013 1.390 . S
C2019 C2016 1.386 . S
C2020 C2015 1.490 . S
C2020 C2022 1.395 . S
C2020 C2023 1.403 . S
H2021 C2027 0.930 . S
C2022 H2008 0.930 . S
C2022 C2020 1.395 . S
C2022 C2025 1.403 . S
C2023 C2020 1.403 . S
C2023 C2024 1.524 . S
C2023 C2027 1.400 . S
C2024 H2009 0.960 . S
C2024 H2010 0.960 . S
C2024 H2011 0.960 . S
C2024 C2023 1.524 . S
C2025 C2022 1.403 . S
C2025 C2026 1.392 . S
C2025 C2029 1.495 . S
C2026 C2025 1.392 . S
C2026 C2027 1.385 . S
C2026 C2028 1.478 . S
C2027 H2021 0.930 . S
C2027 C2023 1.400 . S
C2027 C2026 1.385 . S
C2028 C2026 1.478 . S
C2028 C2030 1.381 . S
C2028 C2034 1.383 . S
C2029 C2025 1.495 . S
C2029 H2035 0.959 . S
C2029 H2036 0.961 . S
C2029 H2037 0.960 . S
C2030 C2028 1.381 . S
C2030 C2031 1.394 . S
C2030 H2038 0.930 . S
C2031 C2030 1.394 . S
C2031 C2032 1.383 . S
C2031 H2039 0.929 . S
C2032 C2031 1.383 . S
C2032 C2033 1.377 . S
C2033 H2017 0.930 . S
C2033 C2032 1.377 . S
C2033 C2034 1.379 . S
C2034 H2018 0.931 . S
C2034 C2028 1.383 . S
C2034 C2033 1.379 . S
H2035 C2029 0.959 . S
H2036 C2029 0.961 . S
H2037 C2029 0.960 . S
H2038 C2030 0.930 . S
H2039 C2031 0.929 . S
H2040 C2048 0.929 . S
H2041 C2050 0.930 . S
H2042 C2052 0.930 . S
H2043 C2055 0.929 . S
H2044 C2058 0.930 . S
H2045 C2060 0.960 . S
H2046 C2060 0.960 . S
H2047 C2060 0.960 . S
C2048 H2040 0.929 . S
C2048 C2049 1.377 . S
C2048 C2050 1.384 . S
C2049 C2048 1.377 . S
C2049 C2055 1.390 . S
C2050 H2041 0.930 . S
C2050 C2048 1.384 . S
C2050 C2051 1.372 . S
C2051 C2050 1.372 . S
C2051 C2052 1.400 . S
C2051 C2056 1.490 . S
C2052 H2042 0.930 . S
C2052 C2051 1.400 . S
C2052 C2055 1.386 . S
H2053 C2069 0.930 . S
H2054 C2070 0.931 . S
C2055 H2043 0.929 . S
C2055 C2049 1.390 . S
C2055 C2052 1.386 . S
C2056 C2051 1.490 . S
C2056 C2058 1.395 . S
C2056 C2059 1.403 . S
H2057 C2063 0.930 . S
C2058 H2044 0.930 . S
C2058 C2056 1.395 . S
C2058 C2061 1.403 . S
C2059 C2056 1.403 . S
C2059 C2060 1.524 . S
C2059 C2063 1.400 . S
C2060 H2045 0.960 . S
C2060 H2046 0.960 . S
C2060 H2047 0.960 . S
C2060 C2059 1.524 . S
C2061 C2058 1.403 . S
C2061 C2062 1.392 . S
C2061 C2065 1.495 . S
C2062 C2061 1.392 . S
C2062 C2063 1.385 . S
C2062 C2064 1.478 . S
C2063 H2057 0.930 . S
C2063 C2059 1.400 . S
C2063 C2062 1.385 . S
C2064 C2062 1.478 . S
C2064 C2066 1.381 . S
C2064 C2070 1.383 . S
C2065 C2061 1.495 . S
C2065 H2071 0.959 . S
C2065 H2072 0.961 . S
C2065 H2073 0.960 . S
C2066 C2064 1.381 . S
C2066 C2067 1.394 . S
C2066 H2074 0.930 . S
C2067 C2066 1.394 . S
C2067 C2068 1.383 . S
C2067 H2075 0.929 . S
C2068 C2067 1.383 . S
C2068 C2069 1.377 . S
C2069 H2053 0.930 . S
C2069 C2068 1.377 . S
C2069 C2070 1.379 . S
C2070 H2054 0.931 . S
C2070 C2064 1.383 . S
C2070 C2069 1.379 . S
H2071 C2065 0.959 . S
H2072 C2065 0.961 . S
H2073 C2065 0.960 . S
H2074 C2066 0.930 . S
H2075 C2067 0.929 . S
H2076 C2084 0.929 . S
H2077 C2086 0.930 . S
H2078 C2088 0.930 . S
H2079 C2091 0.929 . S
H2080 C2094 0.930 . S
H2081 C2096 0.960 . S
H2082 C2096 0.960 . S
H2083 C2096 0.960 . S
C2084 H2076 0.929 . S
C2084 C2085 1.377 . S
C2084 C2086 1.384 . S
C2085 C2084 1.377 . S
C2085 C2091 1.390 . S
C2086 H2077 0.930 . S
C2086 C2084 1.384 . S
C2086 C2087 1.372 . S
C2087 C2086 1.372 . S
C2087 C2088 1.400 . S
C2087 C2092 1.490 . S
C2088 H2078 0.930 . S
C2088 C2087 1.400 . S
C2088 C2091 1.386 . S
H2089 C2105 0.930 . S
H2090 C2106 0.931 . S
C2091 H2079 0.929 . S
C2091 C2085 1.390 . S
C2091 C2088 1.386 . S
C2092 C2087 1.490 . S
C2092 C2094 1.395 . S
C2092 C2095 1.403 . S
H2093 C2099 0.930 . S
C2094 H2080 0.930 . S
C2094 C2092 1.395 . S
C2094 C2097 1.403 . S
C2095 C2092 1.403 . S
C2095 C2096 1.524 . S
C2095 C2099 1.400 . S
C2096 H2081 0.960 . S
C2096 H2082 0.960 . S
C2096 H2083 0.960 . S
C2096 C2095 1.524 . S
C2097 C2094 1.403 . S
C2097 C2098 1.392 . S
C2097 C2101 1.495 . S
C2098 C2097 1.392 . S
C2098 C2099 1.385 . S
C2098 C2100 1.478 . S
C2099 H2093 0.930 . S
C2099 C2095 1.400 . S
C2099 C2098 1.385 . S
C2100 C2098 1.478 . S
C2100 C2102 1.381 . S
C2100 C2106 1.383 . S
C2101 C2097 1.495 . S
C2101 H2107 0.959 . S
C2101 H2108 0.961 . S
C2101 H2109 0.960 . S
C2102 C2100 1.381 . S
C2102 C2103 1.394 . S
C2102 H2110 0.930 . S
C2103 C2102 1.394 . S
C2103 C2104 1.383 . S
C2103 H2111 0.929 . S
C2104 C2103 1.383 . S
C2104 C2105 1.377 . S
C2105 H2089 0.930 . S
C2105 C2104 1.377 . S
C2105 C2106 1.379 . S
C2106 H2090 0.931 . S
C2106 C2100 1.383 . S
C2106 C2105 1.379 . S
H2107 C2101 0.959 . S
H2108 C2101 0.961 . S
H2109 C2101 0.960 . S
H2110 C2102 0.930 . S
H2111 C2103 0.929 . S
H2112 C2120 0.929 . S
H2113 C2122 0.930 . S
H2114 C2124 0.930 . S
H2115 C2127 0.929 . S
H2116 C2130 0.930 . S
H2117 C2132 0.960 . S
H2118 C2132 0.960 . S
H2119 C2132 0.960 . S
C2120 H2112 0.929 . S
C2120 C2121 1.377 . S
C2120 C2122 1.384 . S
C2121 C2120 1.377 . S
C2121 C2127 1.390 . S
C2122 H2113 0.930 . S
C2122 C2120 1.384 . S
C2122 C2123 1.372 . S
C2123 C2122 1.372 . S
C2123 C2124 1.400 . S
C2123 C2128 1.490 . S
C2124 H2114 0.930 . S
C2124 C2123 1.400 . S
C2124 C2127 1.386 . S
H2125 C2141 0.930 . S
H2126 C2142 0.931 . S
C2127 H2115 0.929 . S
C2127 C2121 1.390 . S
C2127 C2124 1.386 . S
C2128 C2123 1.490 . S
C2128 C2130 1.395 . S
C2128 C2131 1.403 . S
H2129 C2135 0.930 . S
C2130 H2116 0.930 . S
C2130 C2128 1.395 . S
C2130 C2133 1.403 . S
C2131 C2128 1.403 . S
C2131 C2132 1.524 . S
C2131 C2135 1.400 . S
C2132 H2117 0.960 . S
C2132 H2118 0.960 . S
C2132 H2119 0.960 . S
C2132 C2131 1.524 . S
C2133 C2130 1.403 . S
C2133 C2134 1.392 . S
C2133 C2137 1.495 . S
C2134 C2133 1.392 . S
C2134 C2135 1.385 . S
C2134 C2136 1.478 . S
C2135 H2129 0.930 . S
C2135 C2131 1.400 . S
C2135 C2134 1.385 . S
C2136 C2134 1.478 . S
C2136 C2138 1.381 . S
C2136 C2142 1.383 . S
C2137 C2133 1.495 . S
C2137 H2143 0.959 . S
C2137 H2144 0.961 . S
C2137 H2145 0.960 . S
C2138 C2136 1.381 . S
C2138 C2139 1.394 . S
C2138 H2146 0.930 . S
C2139 C2138 1.394 . S
C2139 C2140 1.383 . S
C2139 H2147 0.929 . S
C2140 C2139 1.383 . S
C2140 C2141 1.377 . S
C2141 H2125 0.930 . S
C2141 C2140 1.377 . S
C2141 C2142 1.379 . S
C2142 H2126 0.931 . S
C2142 C2136 1.383 . S
C2142 C2141 1.379 . S
H2143 C2137 0.959 . S
H2144 C2137 0.961 . S
H2145 C2137 0.960 . S
H2146 C2138 0.930 . S
H2147 C2139 0.929 . S
H2148 C2156 0.929 . S
H2149 C2158 0.930 . S
H2150 C2160 0.930 . S
H2151 C2163 0.929 . S
H2152 C2166 0.930 . S
H2153 C2168 0.960 . S
H2154 C2168 0.960 . S
H2155 C2168 0.960 . S
C2156 H2148 0.929 . S
C2156 C2157 1.377 . S
C2156 C2158 1.384 . S
C2157 C2156 1.377 . S
C2157 C2163 1.390 . S
C2158 H2149 0.930 . S
C2158 C2156 1.384 . S
C2158 C2159 1.372 . S
C2159 C2158 1.372 . S
C2159 C2160 1.400 . S
C2159 C2164 1.490 . S
C2160 H2150 0.930 . S
C2160 C2159 1.400 . S
C2160 C2163 1.386 . S
H2161 C2177 0.930 . S
H2162 C2178 0.931 . S
C2163 H2151 0.929 . S
C2163 C2157 1.390 . S
C2163 C2160 1.386 . S
C2164 C2159 1.490 . S
C2164 C2166 1.395 . S
C2164 C2167 1.403 . S
H2165 C2171 0.930 . S
C2166 H2152 0.930 . S
C2166 C2164 1.395 . S
C2166 C2169 1.403 . S
C2167 C2164 1.403 . S
C2167 C2168 1.524 . S
C2167 C2171 1.400 . S
C2168 H2153 0.960 . S
C2168 H2154 0.960 . S
C2168 H2155 0.960 . S
C2168 C2167 1.524 . S
C2169 C2166 1.403 . S
C2169 C2170 1.392 . S
C2169 C2173 1.495 . S
C2170 C2169 1.392 . S
C2170 C2171 1.385 . S
C2170 C2172 1.478 . S
C2171 H2165 0.930 . S
C2171 C2167 1.400 . S
C2171 C2170 1.385 . S
C2172 C2170 1.478 . S
C2172 C2174 1.381 . S
C2172 C2178 1.383 . S
C2173 C2169 1.495 . S
C2173 H2179 0.959 . S
C2173 H2180 0.961 . S
C2173 H2181 0.960 . S
C2174 C2172 1.381 . S
C2174 C2175 1.394 . S
C2174 H2182 0.930 . S
C2175 C2174 1.394 . S
C2175 C2176 1.383 . S
C2175 H2183 0.929 . S
C2176 C2175 1.383 . S
C2176 C2177 1.377 . S
C2177 H2161 0.930 . S
C2177 C2176 1.377 . S
C2177 C2178 1.379 . S
C2178 H2162 0.931 . S
C2178 C2172 1.383 . S
C2178 C2177 1.379 . S
H2179 C2173 0.959 . S
H2180 C2173 0.961 . S
H2181 C2173 0.960 . S
H2182 C2174 0.930 . S
H2183 C2175 0.929 . S
H2184 C2192 0.929 . S
H2185 C2194 0.930 . S
H2186 C2196 0.930 . S
H2187 C2199 0.929 . S
H2188 C2202 0.930 . S
H2189 C2204 0.960 . S
H2190 C2204 0.960 . S
H2191 C2204 0.960 . S
C2192 H2184 0.929 . S
C2192 C2193 1.377 . S
C2192 C2194 1.384 . S
C2193 C2192 1.377 . S
C2193 C2199 1.390 . S
C2194 H2185 0.930 . S
C2194 C2192 1.384 . S
C2194 C2195 1.372 . S
C2195 C2194 1.372 . S
C2195 C2196 1.400 . S
C2195 C2200 1.490 . S
C2196 H2186 0.930 . S
C2196 C2195 1.400 . S
C2196 C2199 1.386 . S
H2197 C2213 0.930 . S
H2198 C2214 0.931 . S
C2199 H2187 0.929 . S
C2199 C2193 1.390 . S
C2199 C2196 1.386 . S
C2200 C2195 1.490 . S
C2200 C2202 1.395 . S
C2200 C2203 1.403 . S
H2201 C2207 0.930 . S
C2202 H2188 0.930 . S
C2202 C2200 1.395 . S
C2202 C2205 1.403 . S
C2203 C2200 1.403 . S
C2203 C2204 1.524 . S
C2203 C2207 1.400 . S
C2204 H2189 0.960 . S
C2204 H2190 0.960 . S
C2204 H2191 0.960 . S
C2204 C2203 1.524 . S
C2205 C2202 1.403 . S
C2205 C2206 1.392 . S
C2205 C2209 1.495 . S
C2206 C2205 1.392 . S
C2206 C2207 1.385 . S
C2206 C2208 1.478 . S
C2207 H2201 0.930 . S
C2207 C2203 1.400 . S
C2207 C2206 1.385 . S
C2208 C2206 1.478 . S
C2208 C2210 1.381 . S
C2208 C2214 1.383 . S
C2209 C2205 1.495 . S
C2209 H2215 0.959 . S
C2209 H2216 0.961 . S
C2209 H2217 0.960 . S
C2210 C2208 1.381 . S
C2210 C2211 1.394 . S
C2210 H2218 0.930 . S
C2211 C2210 1.394 . S
C2211 C2212 1.383 . S
C2211 H2219 0.929 . S
C2212 C2211 1.383 . S
C2212 C2213 1.377 . S
C2213 H2197 0.930 . S
C2213 C2212 1.377 . S
C2213 C2214 1.379 . S
C2214 H2198 0.931 . S
C2214 C2208 1.383 . S
C2214 C2213 1.379 . S
H2215 C2209 0.959 . S
H2216 C2209 0.961 . S
H2217 C2209 0.960 . S
H2218 C2210 0.930 . S
H2219 C2211 0.929 . S
H2220 C2228 0.929 . S
H2221 C2230 0.930 . S
H2222 C2232 0.930 . S
H2223 C2235 0.929 . S
H2224 C2238 0.930 . S
H2225 C2240 0.960 . S
H2226 C2240 0.960 . S
H2227 C2240 0.960 . S
C2228 H2220 0.929 . S
C2228 C2229 1.377 . S
C2228 C2230 1.384 . S
C2229 C2228 1.377 . S
C2229 C2235 1.390 . S
C2230 H2221 0.930 . S
C2230 C2228 1.384 . S
C2230 C2231 1.372 . S
C2231 C2230 1.372 . S
C2231 C2232 1.400 . S
C2231 C2236 1.490 . S
C2232 H2222 0.930 . S
C2232 C2231 1.400 . S
C2232 C2235 1.386 . S
H2233 C2249 0.930 . S
H2234 C2250 0.931 . S
C2235 H2223 0.929 . S
C2235 C2229 1.390 . S
C2235 C2232 1.386 . S
C2236 C2231 1.490 . S
C2236 C2238 1.395 . S
C2236 C2239 1.403 . S
H2237 C2243 0.930 . S
C2238 H2224 0.930 . S
C2238 C2236 1.395 . S
C2238 C2241 1.403 . S
C2239 C2236 1.403 . S
C2239 C2240 1.524 . S
C2239 C2243 1.400 . S
C2240 H2225 0.960 . S
C2240 H2226 0.960 . S
C2240 H2227 0.960 . S
C2240 C2239 1.524 . S
C2241 C2238 1.403 . S
C2241 C2242 1.392 . S
C2241 C2245 1.495 . S
C2242 C2241 1.392 . S
C2242 C2243 1.385 . S
C2242 C2244 1.478 . S
C2243 H2237 0.930 . S
C2243 C2239 1.400 . S
C2243 C2242 1.385 . S
C2244 C2242 1.478 . S
C2244 C2246 1.381 . S
C2244 C2250 1.383 . S
C2245 C2241 1.495 . S
C2245 H2251 0.959 . S
C2245 H2252 0.961 . S
C2245 H2253 0.960 . S
C2246 C2244 1.381 . S
C2246 C2247 1.394 . S
C2246 H2254 0.930 . S
C2247 C2246 1.394 . S
C2247 C2248 1.383 . S
C2247 H2255 0.929 . S
C2248 C2247 1.383 . S
C2248 C2249 1.377 . S
C2249 H2233 0.930 . S
C2249 C2248 1.377 . S
C2249 C2250 1.379 . S
C2250 H2234 0.931 . S
C2250 C2244 1.383 . S
C2250 C2249 1.379 . S
H2251 C2245 0.959 . S
H2252 C2245 0.961 . S
H2253 C2245 0.960 . S
H2254 C2246 0.930 . S
H2255 C2247 0.929 . S
H2256 C2264 0.929 . S
H2257 C2266 0.930 . S
H2258 C2268 0.930 . S
H2259 C2271 0.929 . S
H2260 C2274 0.930 . S
H2261 C2276 0.960 . S
H2262 C2276 0.960 . S
H2263 C2276 0.960 . S
C2264 H2256 0.929 . S
C2264 C2265 1.377 . S
C2264 C2266 1.384 . S
C2265 C2264 1.377 . S
C2265 C2271 1.390 . S
C2266 H2257 0.930 . S
C2266 C2264 1.384 . S
C2266 C2267 1.372 . S
C2267 C2266 1.372 . S
C2267 C2268 1.400 . S
C2267 C2272 1.490 . S
C2268 H2258 0.930 . S
C2268 C2267 1.400 . S
C2268 C2271 1.386 . S
H2269 C2285 0.930 . S
H2270 C2286 0.931 . S
C2271 H2259 0.929 . S
C2271 C2265 1.390 . S
C2271 C2268 1.386 . S
C2272 C2267 1.490 . S
C2272 C2274 1.395 . S
C2272 C2275 1.403 . S
H2273 C2279 0.930 . S
C2274 H2260 0.930 . S
C2274 C2272 1.395 . S
C2274 C2277 1.403 . S
C2275 C2272 1.403 . S
C2275 C2276 1.524 . S
C2275 C2279 1.400 . S
C2276 H2261 0.960 . S
C2276 H2262 0.960 . S
C2276 H2263 0.960 . S
C2276 C2275 1.524 . S
C2277 C2274 1.403 . S
C2277 C2278 1.392 . S
C2277 C2281 1.495 . S
C2278 C2277 1.392 . S
C2278 C2279 1.385 . S
C2278 C2280 1.478 . S
C2279 H2273 0.930 . S
C2279 C2275 1.400 . S
C2279 C2278 1.385 . S
C2280 C2278 1.478 . S
C2280 C2282 1.381 . S
C2280 C2286 1.383 . S
C2281 C2277 1.495 . S
C2281 H2287 0.959 . S
C2281 H2288 0.961 . S
C2281 H2289 0.960 . S
C2282 C2280 1.381 . S
C2282 C2283 1.394 . S
C2282 H2290 0.930 . S
C2283 C2282 1.394 . S
C2283 C2284 1.383 . S
C2283 H2291 0.929 . S
C2284 C2283 1.383 . S
C2284 C2285 1.377 . S
C2285 H2269 0.930 . S
C2285 C2284 1.377 . S
C2285 C2286 1.379 . S
C2286 H2270 0.931 . S
C2286 C2280 1.383 . S
C2286 C2285 1.379 . S
H2287 C2281 0.959 . S
H2288 C2281 0.961 . S
H2289 C2281 0.960 . S
H2290 C2282 0.930 . S
H2291 C2283 0.929 . S
H2292 C2300 0.929 . S
H2293 C2302 0.930 . S
H2294 C2304 0.930 . S
H2295 C2307 0.929 . S
H2296 C2310 0.930 . S
H2297 C2312 0.960 . S
H2298 C2312 0.960 . S
H2299 C2312 0.960 . S
C2300 H2292 0.929 . S
C2300 C2301 1.377 . S
C2300 C2302 1.384 . S
C2301 C2300 1.377 . S
C2301 C2307 1.390 . S
C2302 H2293 0.930 . S
C2302 C2300 1.384 . S
C2302 C2303 1.372 . S
C2303 C2302 1.372 . S
C2303 C2304 1.400 . S
C2303 C2308 1.490 . S
C2304 H2294 0.930 . S
C2304 C2303 1.400 . S
C2304 C2307 1.386 . S
H2305 C2321 0.930 . S
H2306 C2322 0.931 . S
C2307 H2295 0.929 . S
C2307 C2301 1.390 . S
C2307 C2304 1.386 . S
C2308 C2303 1.490 . S
C2308 C2310 1.395 . S
C2308 C2311 1.403 . S
H2309 C2315 0.930 . S
C2310 H2296 0.930 . S
C2310 C2308 1.395 . S
C2310 C2313 1.403 . S
C2311 C2308 1.403 . S
C2311 C2312 1.524 . S
C2311 C2315 1.400 . S
C2312 H2297 0.960 . S
C2312 H2298 0.960 . S
C2312 H2299 0.960 . S
C2312 C2311 1.524 . S
C2313 C2310 1.403 . S
C2313 C2314 1.392 . S
C2313 C2317 1.495 . S
C2314 C2313 1.392 . S
C2314 C2315 1.385 . S
C2314 C2316 1.478 . S
C2315 H2309 0.930 . S
C2315 C2311 1.400 . S
C2315 C2314 1.385 . S
C2316 C2314 1.478 . S
C2316 C2318 1.381 . S
C2316 C2322 1.383 . S
C2317 C2313 1.495 . S
C2317 H2323 0.959 . S
C2317 H2324 0.961 . S
C2317 H2325 0.960 . S
C2318 C2316 1.381 . S
C2318 C2319 1.394 . S
C2318 H2326 0.930 . S
C2319 C2318 1.394 . S
C2319 C2320 1.383 . S
C2319 H2327 0.929 . S
C2320 C2319 1.383 . S
C2320 C2321 1.377 . S
C2321 H2305 0.930 . S
C2321 C2320 1.377 . S
C2321 C2322 1.379 . S
C2322 H2306 0.931 . S
C2322 C2316 1.383 . S
C2322 C2321 1.379 . S
H2323 C2317 0.959 . S
H2324 C2317 0.961 . S
H2325 C2317 0.960 . S
H2326 C2318 0.930 . S
H2327 C2319 0.929 . S
H2328 C2336 0.929 . S
H2329 C2338 0.930 . S
H2330 C2340 0.930 . S
H2331 C2343 0.929 . S
H2332 C2346 0.930 . S
H2333 C2348 0.960 . S
H2334 C2348 0.960 . S
H2335 C2348 0.960 . S
C2336 H2328 0.929 . S
C2336 C2337 1.377 . S
C2336 C2338 1.384 . S
C2337 C2336 1.377 . S
C2337 C2343 1.390 . S
C2338 H2329 0.930 . S
C2338 C2336 1.384 . S
C2338 C2339 1.372 . S
C2339 C2338 1.372 . S
C2339 C2340 1.400 . S
C2339 C2344 1.490 . S
C2340 H2330 0.930 . S
C2340 C2339 1.400 . S
C2340 C2343 1.386 . S
H2341 C2357 0.930 . S
H2342 C2358 0.931 . S
C2343 H2331 0.929 . S
C2343 C2337 1.390 . S
C2343 C2340 1.386 . S
C2344 C2339 1.490 . S
C2344 C2346 1.395 . S
C2344 C2347 1.403 . S
H2345 C2351 0.930 . S
C2346 H2332 0.930 . S
C2346 C2344 1.395 . S
C2346 C2349 1.403 . S
C2347 C2344 1.403 . S
C2347 C2348 1.524 . S
C2347 C2351 1.400 . S
C2348 H2333 0.960 . S
C2348 H2334 0.960 . S
C2348 H2335 0.960 . S
C2348 C2347 1.524 . S
C2349 C2346 1.403 . S
C2349 C2350 1.392 . S
C2349 C2353 1.495 . S
C2350 C2349 1.392 . S
C2350 C2351 1.385 . S
C2350 C2352 1.478 . S
C2351 H2345 0.930 . S
C2351 C2347 1.400 . S
C2351 C2350 1.385 . S
C2352 C2350 1.478 . S
C2352 C2354 1.381 . S
C2352 C2358 1.383 . S
C2353 C2349 1.495 . S
C2353 H2359 0.959 . S
C2353 H2360 0.961 . S
C2353 H2361 0.960 . S
C2354 C2352 1.381 . S
C2354 C2355 1.394 . S
C2354 H2362 0.930 . S
C2355 C2354 1.394 . S
C2355 C2356 1.383 . S
C2355 H2363 0.929 . S
C2356 C2355 1.383 . S
C2356 C2357 1.377 . S
C2357 H2341 0.930 . S
C2357 C2356 1.377 . S
C2357 C2358 1.379 . S
C2358 H2342 0.931 . S
C2358 C2352 1.383 . S
C2358 C2357 1.379 . S
H2359 C2353 0.959 . S
H2360 C2353 0.961 . S
H2361 C2353 0.960 . S
H2362 C2354 0.930 . S
H2363 C2355 0.929 . S
H2364 C2372 0.929 . S
H2365 C2374 0.930 . S
H2366 C2376 0.930 . S
H2367 C2379 0.929 . S
H2368 C2382 0.930 . S
H2369 C2384 0.960 . S
H2370 C2384 0.960 . S
H2371 C2384 0.960 . S
C2372 H2364 0.929 . S
C2372 C2373 1.377 . S
C2372 C2374 1.384 . S
C2373 C2372 1.377 . S
C2373 C2379 1.390 . S
C2374 H2365 0.930 . S
C2374 C2372 1.384 . S
C2374 C2375 1.372 . S
C2375 C2374 1.372 . S
C2375 C2376 1.400 . S
C2375 C2380 1.490 . S
C2376 H2366 0.930 . S
C2376 C2375 1.400 . S
C2376 C2379 1.386 . S
H2377 C2393 0.930 . S
H2378 C2394 0.931 . S
C2379 H2367 0.929 . S
C2379 C2373 1.390 . S
C2379 C2376 1.386 . S
C2380 C2375 1.490 . S
C2380 C2382 1.395 . S
C2380 C2383 1.403 . S
H2381 C2387 0.930 . S
C2382 H2368 0.930 . S
C2382 C2380 1.395 . S
C2382 C2385 1.403 . S
C2383 C2380 1.403 . S
C2383 C2384 1.524 . S
C2383 C2387 1.400 . S
C2384 H2369 0.960 . S
C2384 H2370 0.960 . S
C2384 H2371 0.960 . S
C2384 C2383 1.524 . S
C2385 C2382 1.403 . S
C2385 C2386 1.392 . S
C2385 C2389 1.495 . S
C2386 C2385 1.392 . S
C2386 C2387 1.385 . S
C2386 C2388 1.478 . S
C2387 H2381 0.930 . S
C2387 C2383 1.400 . S
C2387 C2386 1.385 . S
C2388 C2386 1.478 . S
C2388 C2390 1.381 . S
C2388 C2394 1.383 . S
C2389 C2385 1.495 . S
C2389 H2395 0.959 . S
C2389 H2396 0.961 . S
C2389 H2397 0.960 . S
C2390 C2388 1.381 . S
C2390 C2391 1.394 . S
C2390 H2398 0.930 . S
C2391 C2390 1.394 . S
C2391 C2392 1.383 . S
C2391 H2399 0.929 . S
C2392 C2391 1.383 . S
C2392 C2393 1.377 . S
C2393 H2377 0.930 . S
C2393 C2392 1.377 . S
C2393 C2394 1.379 . S
C2394 H2378 0.931 . S
C2394 C2388 1.383 . S
C2394 C2393 1.379 . S
H2395 C2389 0.959 . S
H2396 C2389 0.961 . S
H2397 C2389 0.960 . S
H2398 C2390 0.930 . S
H2399 C2391 0.929 . S
H2400 C2408 0.929 . S
H2401 C2410 0.930 . S
H2402 C2412 0.930 . S
H2403 C2415 0.929 . S
H2404 C2418 0.930 . S
H2405 C2420 0.960 . S
H2406 C2420 0.960 . S
H2407 C2420 0.960 . S
C2408 H2400 0.929 . S
C2408 C2409 1.377 . S
C2408 C2410 1.384 . S
C2409 C2408 1.377 . S
C2409 C2415 1.390 . S
C2410 H2401 0.930 . S
C2410 C2408 1.384 . S
C2410 C2411 1.372 . S
C2411 C2410 1.372 . S
C2411 C2412 1.400 . S
C2411 C2416 1.490 . S
C2412 H2402 0.930 . S
C2412 C2411 1.400 . S
C2412 C2415 1.386 . S
H2413 C2429 0.930 . S
H2414 C2430 0.931 . S
C2415 H2403 0.929 . S
C2415 C2409 1.390 . S
C2415 C2412 1.386 . S
C2416 C2411 1.490 . S
C2416 C2418 1.395 . S
C2416 C2419 1.403 . S
H2417 C2423 0.930 . S
C2418 H2404 0.930 . S
C2418 C2416 1.395 . S
C2418 C2421 1.403 . S
C2419 C2416 1.403 . S
C2419 C2420 1.524 . S
C2419 C2423 1.400 . S
C2420 H2405 0.960 . S
C2420 H2406 0.960 . S
C2420 H2407 0.960 . S
C2420 C2419 1.524 . S
C2421 C2418 1.403 . S
C2421 C2422 1.392 . S
C2421 C2425 1.495 . S
C2422 C2421 1.392 . S
C2422 C2423 1.385 . S
C2422 C2424 1.478 . S
C2423 H2417 0.930 . S
C2423 C2419 1.400 . S
C2423 C2422 1.385 . S
C2424 C2422 1.478 . S
C2424 C2426 1.381 . S
C2424 C2430 1.383 . S
C2425 C2421 1.495 . S
C2425 H2431 0.959 . S
C2425 H2432 0.961 . S
C2425 H2433 0.960 . S
C2426 C2424 1.381 . S
C2426 C2427 1.394 . S
C2426 H2434 0.930 . S
C2427 C2426 1.394 . S
C2427 C2428 1.383 . S
C2427 H2435 0.929 . S
C2428 C2427 1.383 . S
C2428 C2429 1.377 . S
C2429 H2413 0.930 . S
C2429 C2428 1.377 . S
C2429 C2430 1.379 . S
C2430 H2414 0.931 . S
C2430 C2424 1.383 . S
C2430 C2429 1.379 . S
H2431 C2425 0.959 . S
H2432 C2425 0.961 . S
H2433 C2425 0.960 . S
H2434 C2426 0.930 . S
H2435 C2427 0.929 . S
H2436 C2444 0.929 . S
H2437 C2446 0.930 . S
H2438 C2448 0.930 . S
H2439 C2451 0.929 . S
H2440 C2454 0.930 . S
H2441 C2456 0.960 . S
H2442 C2456 0.960 . S
H2443 C2456 0.960 . S
C2444 H2436 0.929 . S
C2444 C2445 1.377 . S
C2444 C2446 1.384 . S
C2445 C2444 1.377 . S
C2445 C2451 1.390 . S
C2446 H2437 0.930 . S
C2446 C2444 1.384 . S
C2446 C2447 1.372 . S
C2447 C2446 1.372 . S
C2447 C2448 1.400 . S
C2447 C2452 1.490 . S
C2448 H2438 0.930 . S
C2448 C2447 1.400 . S
C2448 C2451 1.386 . S
H2449 C2465 0.930 . S
H2450 C2466 0.931 . S
C2451 H2439 0.929 . S
C2451 C2445 1.390 . S
C2451 C2448 1.386 . S
C2452 C2447 1.490 . S
C2452 C2454 1.395 . S
C2452 C2455 1.403 . S
H2453 C2459 0.930 . S
C2454 H2440 0.930 . S
C2454 C2452 1.395 . S
C2454 C2457 1.403 . S
C2455 C2452 1.403 . S
C2455 C2456 1.524 . S
C2455 C2459 1.400 . S
C2456 H2441 0.960 . S
C2456 H2442 0.960 . S
C2456 H2443 0.960 . S
C2456 C2455 1.524 . S
C2457 C2454 1.403 . S
C2457 C2458 1.392 . S
C2457 C2461 1.495 . S
C2458 C2457 1.392 . S
C2458 C2459 1.385 . S
C2458 C2460 1.478 . S
C2459 H2453 0.930 . S
C2459 C2455 1.400 . S
C2459 C2458 1.385 . S
C2460 C2458 1.478 . S
C2460 C2462 1.381 . S
C2460 C2466 1.383 . S
C2461 C2457 1.495 . S
C2461 H2467 0.959 . S
C2461 H2468 0.961 . S
C2461 H2469 0.960 . S
C2462 C2460 1.381 . S
C2462 C2463 1.394 . S
C2462 H2470 0.930 . S
C2463 C2462 1.394 . S
C2463 C2464 1.383 . S
C2463 H2471 0.929 . S
C2464 C2463 1.383 . S
C2464 C2465 1.377 . S
C2465 H2449 0.930 . S
C2465 C2464 1.377 . S
C2465 C2466 1.379 . S
C2466 H2450 0.931 . S
C2466 C2460 1.383 . S
C2466 C2465 1.379 . S
H2467 C2461 0.959 . S
H2468 C2461 0.961 . S
H2469 C2461 0.960 . S
H2470 C2462 0.930 . S
H2471 C2463 0.929 . S
H2472 C2480 0.929 . S
H2473 C2482 0.930 . S
H2474 C2484 0.930 . S
H2475 C2487 0.929 . S
H2476 C2490 0.930 . S
H2477 C2492 0.960 . S
H2478 C2492 0.960 . S
H2479 C2492 0.960 . S
C2480 H2472 0.929 . S
C2480 C2481 1.377 . S
C2480 C2482 1.384 . S
C2481 C2480 1.377 . S
C2481 C2487 1.390 . S
C2482 H2473 0.930 . S
C2482 C2480 1.384 . S
C2482 C2483 1.372 . S
C2483 C2482 1.372 . S
C2483 C2484 1.400 . S
C2483 C2488 1.490 . S
C2484 H2474 0.930 . S
C2484 C2483 1.400 . S
C2484 C2487 1.386 . S
H2485 C2501 0.930 . S
H2486 C2502 0.931 . S
C2487 H2475 0.929 . S
C2487 C2481 1.390 . S
C2487 C2484 1.386 . S
C2488 C2483 1.490 . S
C2488 C2490 1.395 . S
C2488 C2491 1.403 . S
H2489 C2495 0.930 . S
C2490 H2476 0.930 . S
C2490 C2488 1.395 . S
C2490 C2493 1.403 . S
C2491 C2488 1.403 . S
C2491 C2492 1.524 . S
C2491 C2495 1.400 . S
C2492 H2477 0.960 . S
C2492 H2478 0.960 . S
C2492 H2479 0.960 . S
C2492 C2491 1.524 . S
C2493 C2490 1.403 . S
C2493 C2494 1.392 . S
C2493 C2497 1.495 . S
C2494 C2493 1.392 . S
C2494 C2495 1.385 . S
C2494 C2496 1.478 . S
C2495 H2489 0.930 . S
C2495 C2491 1.400 . S
C2495 C2494 1.385 . S
C2496 C2494 1.478 . S
C2496 C2498 1.381 . S
C2496 C2502 1.383 . S
C2497 C2493 1.495 . S
C2497 H2503 0.959 . S
C2497 H2504 0.961 . S
C2497 H2505 0.960 . S
C2498 C2496 1.381 . S
C2498 C2499 1.394 . S
C2498 H2506 0.930 . S
C2499 C2498 1.394 . S
C2499 C2500 1.383 . S
C2499 H2507 0.929 . S
C2500 C2499 1.383 . S
C2500 C2501 1.377 . S
C2501 H2485 0.930 . S
C2501 C2500 1.377 . S
C2501 C2502 1.379 . S
C2502 H2486 0.931 . S
C2502 C2496 1.383 . S
C2502 C2501 1.379 . S
H2503 C2497 0.959 . S
H2504 C2497 0.961 . S
H2505 C2497 0.960 . S
H2506 C2498 0.930 . S
H2507 C2499 0.929 . S
H2508 C2516 0.929 . S
H2509 C2518 0.930 . S
H2510 C2520 0.930 . S
H2511 C2523 0.929 . S
H2512 C2526 0.930 . S
H2513 C2528 0.960 . S
H2514 C2528 0.960 . S
H2515 C2528 0.960 . S
C2516 H2508 0.929 . S
C2516 C2517 1.377 . S
C2516 C2518 1.384 . S
C2517 C2516 1.377 . S
C2517 C2523 1.390 . S
C2518 H2509 0.930 . S
C2518 C2516 1.384 . S
C2518 C2519 1.372 . S
C2519 C2518 1.372 . S
C2519 C2520 1.400 . S
C2519 C2524 1.490 . S
C2520 H2510 0.930 . S
C2520 C2519 1.400 . S
C2520 C2523 1.386 . S
H2521 C2537 0.930 . S
H2522 C2538 0.931 . S
C2523 H2511 0.929 . S
C2523 C2517 1.390 . S
C2523 C2520 1.386 . S
C2524 C2519 1.490 . S
C2524 C2526 1.395 . S
C2524 C2527 1.403 . S
H2525 C2531 0.930 . S
C2526 H2512 0.930 . S
C2526 C2524 1.395 . S
C2526 C2529 1.403 . S
C2527 C2524 1.403 . S
C2527 C2528 1.524 . S
C2527 C2531 1.400 . S
C2528 H2513 0.960 . S
C2528 H2514 0.960 . S
C2528 H2515 0.960 . S
C2528 C2527 1.524 . S
C2529 C2526 1.403 . S
C2529 C2530 1.392 . S
C2529 C2533 1.495 . S
C2530 C2529 1.392 . S
C2530 C2531 1.385 . S
C2530 C2532 1.478 . S
C2531 H2525 0.930 . S
C2531 C2527 1.400 . S
C2531 C2530 1.385 . S
C2532 C2530 1.478 . S
C2532 C2534 1.381 . S
C2532 C2538 1.383 . S
C2533 C2529 1.495 . S
C2533 H2539 0.959 . S
C2533 H2540 0.961 . S
C2533 H2541 0.960 . S
C2534 C2532 1.381 . S
C2534 C2535 1.394 . S
C2534 H2542 0.930 . S
C2535 C2534 1.394 . S
C2535 C2536 1.383 . S
C2535 H2543 0.929 . S
C2536 C2535 1.383 . S
C2536 C2537 1.377 . S
C2537 H2521 0.930 . S
C2537 C2536 1.377 . S
C2537 C2538 1.379 . S
C2538 H2522 0.931 . S
C2538 C2532 1.383 . S
C2538 C2537 1.379 . S
H2539 C2533 0.959 . S
H2540 C2533 0.961 . S
H2541 C2533 0.960 . S
H2542 C2534 0.930 . S
H2543 C2535 0.929 . S
H2544 C2552 0.929 . S
H2545 C2554 0.930 . S
H2546 C2556 0.930 . S
H2547 C2559 0.929 . S
H2548 C2562 0.930 . S
H2549 C2564 0.960 . S
H2550 C2564 0.960 . S
H2551 C2564 0.960 . S
C2552 H2544 0.929 . S
C2552 C2553 1.377 . S
C2552 C2554 1.384 . S
C2553 C2552 1.377 . S
C2553 C2559 1.390 . S
C2554 H2545 0.930 . S
C2554 C2552 1.384 . S
C2554 C2555 1.372 . S
C2555 C2554 1.372 . S
C2555 C2556 1.400 . S
C2555 C2560 1.490 . S
C2556 H2546 0.930 . S
C2556 C2555 1.400 . S
C2556 C2559 1.386 . S
H2557 C2573 0.930 . S
H2558 C2574 0.931 . S
C2559 H2547 0.929 . S
C2559 C2553 1.390 . S
C2559 C2556 1.386 . S
C2560 C2555 1.490 . S
C2560 C2562 1.395 . S
C2560 C2563 1.403 . S
H2561 C2567 0.930 . S
C2562 H2548 0.930 . S
C2562 C2560 1.395 . S
C2562 C2565 1.403 . S
C2563 C2560 1.403 . S
C2563 C2564 1.524 . S
C2563 C2567 1.400 . S
C2564 H2549 0.960 . S
C2564 H2550 0.960 . S
C2564 H2551 0.960 . S
C2564 C2563 1.524 . S
C2565 C2562 1.403 . S
C2565 C2566 1.392 . S
C2565 C2569 1.495 . S
C2566 C2565 1.392 . S
C2566 C2567 1.385 . S
C2566 C2568 1.478 . S
C2567 H2561 0.930 . S
C2567 C2563 1.400 . S
C2567 C2566 1.385 . S
C2568 C2566 1.478 . S
C2568 C2570 1.381 . S
C2568 C2574 1.383 . S
C2569 C2565 1.495 . S
C2569 H2575 0.959 . S
C2569 H2576 0.961 . S
C2569 H2577 0.960 . S
C2570 C2568 1.381 . S
C2570 C2571 1.394 . S
C2570 H2578 0.930 . S
C2571 C2570 1.394 . S
C2571 C2572 1.383 . S
C2571 H2579 0.929 . S
C2572 C2571 1.383 . S
C2572 C2573 1.377 . S
C2573 H2557 0.930 . S
C2573 C2572 1.377 . S
C2573 C2574 1.379 . S
C2574 H2558 0.931 . S
C2574 C2568 1.383 . S
C2574 C2573 1.379 . S
H2575 C2569 0.959 . S
H2576 C2569 0.961 . S
H2577 C2569 0.960 . S
H2578 C2570 0.930 . S
H2579 C2571 0.929 . S
H2580 C2588 0.929 . S
H2581 C2590 0.930 . S
H2582 C2592 0.930 . S
H2583 C2595 0.929 . S
H2584 C2598 0.930 . S
H2585 C2600 0.960 . S
H2586 C2600 0.960 . S
H2587 C2600 0.960 . S
C2588 H2580 0.929 . S
C2588 C2589 1.377 . S
C2588 C2590 1.384 . S
C2589 C2588 1.377 . S
C2589 C2595 1.390 . S
C2590 H2581 0.930 . S
C2590 C2588 1.384 . S
C2590 C2591 1.372 . S
C2591 C2590 1.372 . S
C2591 C2592 1.400 . S
C2591 C2596 1.490 . S
C2592 H2582 0.930 . S
C2592 C2591 1.400 . S
C2592 C2595 1.386 . S
H2593 C2609 0.930 . S
H2594 C2610 0.931 . S
C2595 H2583 0.929 . S
C2595 C2589 1.390 . S
C2595 C2592 1.386 . S
C2596 C2591 1.490 . S
C2596 C2598 1.395 . S
C2596 C2599 1.403 . S
H2597 C2603 0.930 . S
C2598 H2584 0.930 . S
C2598 C2596 1.395 . S
C2598 C2601 1.403 . S
C2599 C2596 1.403 . S
C2599 C2600 1.524 . S
C2599 C2603 1.400 . S
C2600 H2585 0.960 . S
C2600 H2586 0.960 . S
C2600 H2587 0.960 . S
C2600 C2599 1.524 . S
C2601 C2598 1.403 . S
C2601 C2602 1.392 . S
C2601 C2605 1.495 . S
C2602 C2601 1.392 . S
C2602 C2603 1.385 . S
C2602 C2604 1.478 . S
C2603 H2597 0.930 . S
C2603 C2599 1.400 . S
C2603 C2602 1.385 . S
C2604 C2602 1.478 . S
C2604 C2606 1.381 . S
C2604 C2610 1.383 . S
C2605 C2601 1.495 . S
C2605 H2611 0.959 . S
C2605 H2612 0.961 . S
C2605 H2613 0.960 . S
C2606 C2604 1.381 . S
C2606 C2607 1.394 . S
C2606 H2614 0.930 . S
C2607 C2606 1.394 . S
C2607 C2608 1.383 . S
C2607 H2615 0.929 . S
C2608 C2607 1.383 . S
C2608 C2609 1.377 . S
C2609 H2593 0.930 . S
C2609 C2608 1.377 . S
C2609 C2610 1.379 . S
C2610 H2594 0.931 . S
C2610 C2604 1.383 . S
C2610 C2609 1.379 . S
H2611 C2605 0.959 . S
H2612 C2605 0.961 . S
H2613 C2605 0.960 . S
H2614 C2606 0.930 . S
H2615 C2607 0.929 . S
H2616 C2624 0.929 . S
H2617 C2626 0.930 . S
H2618 C2628 0.930 . S
H2619 C2631 0.929 . S
H2620 C2634 0.930 . S
H2621 C2636 0.960 . S
H2622 C2636 0.960 . S
H2623 C2636 0.960 . S
C2624 H2616 0.929 . S
C2624 C2625 1.377 . S
C2624 C2626 1.384 . S
C2625 C2624 1.377 . S
C2625 C2631 1.390 . S
C2626 H2617 0.930 . S
C2626 C2624 1.384 . S
C2626 C2627 1.372 . S
C2627 C2626 1.372 . S
C2627 C2628 1.400 . S
C2627 C2632 1.490 . S
C2628 H2618 0.930 . S
C2628 C2627 1.400 . S
C2628 C2631 1.386 . S
H2629 C2645 0.930 . S
H2630 C2646 0.931 . S
C2631 H2619 0.929 . S
C2631 C2625 1.390 . S
C2631 C2628 1.386 . S
C2632 C2627 1.490 . S
C2632 C2634 1.395 . S
C2632 C2635 1.403 . S
H2633 C2639 0.930 . S
C2634 H2620 0.930 . S
C2634 C2632 1.395 . S
C2634 C2637 1.403 . S
C2635 C2632 1.403 . S
C2635 C2636 1.524 . S
C2635 C2639 1.400 . S
C2636 H2621 0.960 . S
C2636 H2622 0.960 . S
C2636 H2623 0.960 . S
C2636 C2635 1.524 . S
C2637 C2634 1.403 . S
C2637 C2638 1.392 . S
C2637 C2641 1.495 . S
C2638 C2637 1.392 . S
C2638 C2639 1.385 . S
C2638 C2640 1.478 . S
C2639 H2633 0.930 . S
C2639 C2635 1.400 . S
C2639 C2638 1.385 . S
C2640 C2638 1.478 . S
C2640 C2642 1.381 . S
C2640 C2646 1.383 . S
C2641 C2637 1.495 . S
C2641 H2647 0.959 . S
C2641 H2648 0.961 . S
C2641 H2649 0.960 . S
C2642 C2640 1.381 . S
C2642 C2643 1.394 . S
C2642 H2650 0.930 . S
C2643 C2642 1.394 . S
C2643 C2644 1.383 . S
C2643 H2651 0.929 . S
C2644 C2643 1.383 . S
C2644 C2645 1.377 . S
C2645 H2629 0.930 . S
C2645 C2644 1.377 . S
C2645 C2646 1.379 . S
C2646 H2630 0.931 . S
C2646 C2640 1.383 . S
C2646 C2645 1.379 . S
H2647 C2641 0.959 . S
H2648 C2641 0.961 . S
H2649 C2641 0.960 . S
H2650 C2642 0.930 . S
H2651 C2643 0.929 . S
H2652 C2660 0.929 . S
H2653 C2662 0.930 . S
H2654 C2664 0.930 . S
H2655 C2667 0.929 . S
H2656 C2670 0.930 . S
H2657 C2672 0.960 . S
H2658 C2672 0.960 . S
H2659 C2672 0.960 . S
C2660 H2652 0.929 . S
C2660 C2661 1.377 . S
C2660 C2662 1.384 . S
C2661 C2660 1.377 . S
C2661 C2667 1.390 . S
C2662 H2653 0.930 . S
C2662 C2660 1.384 . S
C2662 C2663 1.372 . S
C2663 C2662 1.372 . S
C2663 C2664 1.400 . S
C2663 C2668 1.490 . S
C2664 H2654 0.930 . S
C2664 C2663 1.400 . S
C2664 C2667 1.386 . S
H2665 C2681 0.930 . S
H2666 C2682 0.931 . S
C2667 H2655 0.929 . S
C2667 C2661 1.390 . S
C2667 C2664 1.386 . S
C2668 C2663 1.490 . S
C2668 C2670 1.395 . S
C2668 C2671 1.403 . S
H2669 C2675 0.930 . S
C2670 H2656 0.930 . S
C2670 C2668 1.395 . S
C2670 C2673 1.403 . S
C2671 C2668 1.403 . S
C2671 C2672 1.524 . S
C2671 C2675 1.400 . S
C2672 H2657 0.960 . S
C2672 H2658 0.960 . S
C2672 H2659 0.960 . S
C2672 C2671 1.524 . S
C2673 C2670 1.403 . S
C2673 C2674 1.392 . S
C2673 C2677 1.495 . S
C2674 C2673 1.392 . S
C2674 C2675 1.385 . S
C2674 C2676 1.478 . S
C2675 H2669 0.930 . S
C2675 C2671 1.400 . S
C2675 C2674 1.385 . S
C2676 C2674 1.478 . S
C2676 C2678 1.381 . S
C2676 C2682 1.383 . S
C2677 C2673 1.495 . S
C2677 H2683 0.959 . S
C2677 H2684 0.961 . S
C2677 H2685 0.960 . S
C2678 C2676 1.381 . S
C2678 C2679 1.394 . S
C2678 H2686 0.930 . S
C2679 C2678 1.394 . S
C2679 C2680 1.383 . S
C2679 H2687 0.929 . S
C2680 C2679 1.383 . S
C2680 C2681 1.377 . S
C2681 H2665 0.930 . S
C2681 C2680 1.377 . S
C2681 C2682 1.379 . S
C2682 H2666 0.931 . S
C2682 C2676 1.383 . S
C2682 C2681 1.379 . S
H2683 C2677 0.959 . S
H2684 C2677 0.961 . S
H2685 C2677 0.960 . S
H2686 C2678 0.930 . S
H2687 C2679 0.929 . S
H2688 C2696 0.929 . S
H2689 C2698 0.930 . S
H2690 C2700 0.930 . S
H2691 C2703 0.929 . S
H2692 C2706 0.930 . S
H2693 C2708 0.960 . S
H2694 C2708 0.960 . S
H2695 C2708 0.960 . S
C2696 H2688 0.929 . S
C2696 C2697 1.377 . S
C2696 C2698 1.384 . S
C2697 C2696 1.377 . S
C2697 C2703 1.390 . S
C2698 H2689 0.930 . S
C2698 C2696 1.384 . S
C2698 C2699 1.372 . S
C2699 C2698 1.372 . S
C2699 C2700 1.400 . S
C2699 C2704 1.490 . S
C2700 H2690 0.930 . S
C2700 C2699 1.400 . S
C2700 C2703 1.386 . S
H2701 C2717 0.930 . S
H2702 C2718 0.931 . S
C2703 H2691 0.929 . S
C2703 C2697 1.390 . S
C2703 C2700 1.386 . S
C2704 C2699 1.490 . S
C2704 C2706 1.395 . S
C2704 C2707 1.403 . S
H2705 C2711 0.930 . S
C2706 H2692 0.930 . S
C2706 C2704 1.395 . S
C2706 C2709 1.403 . S
C2707 C2704 1.403 . S
C2707 C2708 1.524 . S
C2707 C2711 1.400 . S
C2708 H2693 0.960 . S
C2708 H2694 0.960 . S
C2708 H2695 0.960 . S
C2708 C2707 1.524 . S
C2709 C2706 1.403 . S
C2709 C2710 1.392 . S
C2709 C2713 1.495 . S
C2710 C2709 1.392 . S
C2710 C2711 1.385 . S
C2710 C2712 1.478 . S
C2711 H2705 0.930 . S
C2711 C2707 1.400 . S
C2711 C2710 1.385 . S
C2712 C2710 1.478 . S
C2712 C2714 1.381 . S
C2712 C2718 1.383 . S
C2713 C2709 1.495 . S
C2713 H2719 0.959 . S
C2713 H2720 0.961 . S
C2713 H2721 0.960 . S
C2714 C2712 1.381 . S
C2714 C2715 1.394 . S
C2714 H2722 0.930 . S
C2715 C2714 1.394 . S
C2715 C2716 1.383 . S
C2715 H2723 0.929 . S
C2716 C2715 1.383 . S
C2716 C2717 1.377 . S
C2717 H2701 0.930 . S
C2717 C2716 1.377 . S
C2717 C2718 1.379 . S
C2718 H2702 0.931 . S
C2718 C2712 1.383 . S
C2718 C2717 1.379 . S
H2719 C2713 0.959 . S
H2720 C2713 0.961 . S
H2721 C2713 0.960 . S
H2722 C2714 0.930 . S
H2723 C2715 0.929 . S
C1024 C707 1.321 . S
C1005 C56 1.281 . S
C1060 C685 1.644 . S
C1041 C154 1.593 . S
C1096 C682 0.677 . S
C1077 C236 0.698 . S
C1113 C310 0.642 . S
C1132 C694 0.294 . S
C1149 C394 1.600 . S
C1168 C677 1.651 . S
C1204 C699 0.725 . S
C1185 C476 0.705 . S
C1221 C574 0.641 . S
C1240 C704 0.398 . S
C1257 C656 1.279 . S
C1276 C700 1.305 . S
C1312 C758 2.766 . S
C1293 C67 2.848 . S
C1329 C139 1.279 . S
C1348 C808 1.266 . S
C1384 C731 1.696 . S
C1365 C238 1.584 . S
C1420 C807 0.709 . S
C1401 C308 0.712 . S
C1437 C392 0.694 . S
C1456 C736 0.712 . S
C1492 C802 2.776 . S
C1473 C487 2.847 . S
C1509 C559 1.293 . S
C1528 C761 1.287 . S
C1545 C658 1.599 . S
C1564 C793 1.683 . S
C1581 C58 1.599 . S
C1600 C785 1.688 . S
C1617 C403 1.290 . S
C1636 C815 1.286 . S
C1672 C739 1.678 . S
C1653 C478 1.608 . S
C1708 C790 0.738 . S
C1689 C572 0.735 . S
C1725 C643 2.853 . S
C1744 C748 2.767 . S
C1761 C223 2.861 . S
C1780 C812 2.803 . S
C1816 C754 1.298 . S
C1797 C319 1.301 . S
C1833 C152 0.701 . S
C1852 C753 0.717 . S
C1869 C644 1.291 . S
C1888 C869 1.306 . S
C1905 C406 1.605 . S
C1924 C847 1.684 . S
C1960 C844 0.666 . S
C1941 C488 0.706 . S
C1996 C856 0.365 . S
C1977 C562 0.634 . S
C2013 C142 1.590 . S
C2032 C839 1.674 . S
C2068 C861 0.682 . S
C2049 C224 0.700 . S
C2085 C322 0.617 . S
C2104 C866 0.285 . S
C2121 C68 1.289 . S
C2140 C862 1.315 . S
C2157 C655 2.848 . S
C2176 C920 2.771 . S
C2212 C970 1.265 . S
C2193 C391 1.280 . S
C2229 C490 1.595 . S
C2248 C893 1.657 . S
C2265 C560 0.707 . S
C2284 C969 0.721 . S
C2320 C898 0.711 . S
C2301 C140 0.687 . S
C2337 C235 2.847 . S
C2356 C964 2.773 . S
C2392 C923 1.285 . S
C2373 C307 1.293 . S
C2428 C955 1.667 . S
C2409 C70 1.604 . S
C2464 C947 1.702 . S
C2445 C646 1.604 . S
C2481 C151 1.290 . S
C2500 C977 1.274 . S
C2517 C226 1.603 . S
C2536 C901 1.668 . S
C2572 C952 0.707 . S
C2553 C320 0.712 . S
C2589 C55 2.852 . S
C2608 C910 2.789 . S
C2625 C475 2.861 . S
C2644 C974 2.788 . S
C2680 C916 1.279 . S
C2661 C571 1.300 . S
C2716 C915 0.729 . S
C2697 C404 0.705 . S
