# Generated by pormake.
# Topology gar, (4,6)-cn, num edge types: 1
# Building blocks:
#     Node 0, Type 0, BuildingBlock: CEKHIL_clean_sbu_0, # of connection points: 4
#     Node 1, Type 0, BuildingBlock: CEKHIL_clean_sbu_0, # of connection points: 4
#     Node 2, Type 0, BuildingBlock: CEKHIL_clean_sbu_0, # of connection points: 4
#     Node 3, Type 0, BuildingBlock: CEKHIL_clean_sbu_0, # of connection points: 4
#     Node 4, Type 0, BuildingBlock: CEKHIL_clean_sbu_0, # of connection points: 4
#     Node 5, Type 0, BuildingBlock: CEKHIL_clean_sbu_0, # of connection points: 4
#     Node 6, Type 0, BuildingBlock: CEKHIL_clean_sbu_0, # of connection points: 4
#     Node 7, Type 0, BuildingBlock: CEKHIL_clean_sbu_0, # of connection points: 4
#     Node 8, Type 0, BuildingBlock: CEKHIL_clean_sbu_0, # of connection points: 4
#     Node 9, Type 0, BuildingBlock: CEKHIL_clean_sbu_0, # of connection points: 4
#     Node 10, Type 0, BuildingBlock: CEKHIL_clean_sbu_0, # of connection points: 4
#     Node 11, Type 0, BuildingBlock: CEKHIL_clean_sbu_0, # of connection points: 4
#     Node 12, Type 0, BuildingBlock: CEKHIL_clean_sbu_0, # of connection points: 4
#     Node 13, Type 0, BuildingBlock: CEKHIL_clean_sbu_0, # of connection points: 4
#     Node 14, Type 0, BuildingBlock: CEKHIL_clean_sbu_0, # of connection points: 4
#     Node 15, Type 0, BuildingBlock: CEKHIL_clean_sbu_0, # of connection points: 4
#     Node 16, Type 0, BuildingBlock: CEKHIL_clean_sbu_0, # of connection points: 4
#     Node 17, Type 0, BuildingBlock: CEKHIL_clean_sbu_0, # of connection points: 4
#     Node 18, Type 0, BuildingBlock: CEKHIL_clean_sbu_0, # of connection points: 4
#     Node 19, Type 0, BuildingBlock: CEKHIL_clean_sbu_0, # of connection points: 4
#     Node 20, Type 0, BuildingBlock: CEKHIL_clean_sbu_0, # of connection points: 4
#     Node 21, Type 0, BuildingBlock: CEKHIL_clean_sbu_0, # of connection points: 4
#     Node 22, Type 0, BuildingBlock: CEKHIL_clean_sbu_0, # of connection points: 4
#     Node 23, Type 0, BuildingBlock: CEKHIL_clean_sbu_0, # of connection points: 4
#     Node 24, Type 1, BuildingBlock: PAMTOO_clean_sbu_0, # of connection points: 6
#     Node 25, Type 1, BuildingBlock: PAMTOO_clean_sbu_0, # of connection points: 6
#     Node 26, Type 1, BuildingBlock: PAMTOO_clean_sbu_0, # of connection points: 6
#     Node 27, Type 1, BuildingBlock: PAMTOO_clean_sbu_0, # of connection points: 6
#     Node 28, Type 1, BuildingBlock: PAMTOO_clean_sbu_0, # of connection points: 6
#     Node 29, Type 1, BuildingBlock: PAMTOO_clean_sbu_0, # of connection points: 6
#     Node 30, Type 1, BuildingBlock: PAMTOO_clean_sbu_0, # of connection points: 6
#     Node 31, Type 1, BuildingBlock: PAMTOO_clean_sbu_0, # of connection points: 6
#     Node 32, Type 1, BuildingBlock: PAMTOO_clean_sbu_0, # of connection points: 6
#     Node 33, Type 1, BuildingBlock: PAMTOO_clean_sbu_0, # of connection points: 6
#     Node 34, Type 1, BuildingBlock: PAMTOO_clean_sbu_0, # of connection points: 6
#     Node 35, Type 1, BuildingBlock: PAMTOO_clean_sbu_0, # of connection points: 6
#     Node 36, Type 1, BuildingBlock: PAMTOO_clean_sbu_0, # of connection points: 6
#     Node 37, Type 1, BuildingBlock: PAMTOO_clean_sbu_0, # of connection points: 6
#     Node 38, Type 1, BuildingBlock: PAMTOO_clean_sbu_0, # of connection points: 6
#     Node 39, Type 1, BuildingBlock: PAMTOO_clean_sbu_0, # of connection points: 6
#     Edge 40, Type (0, 1), BuildingBlock: ZUJKAS_clean_linker_0, # of connection points: 2
#     Edge 41, Type (0, 1), BuildingBlock: ZUJKAS_clean_linker_0, # of connection points: 2
#     Edge 42, Type (0, 1), BuildingBlock: ZUJKAS_clean_linker_0, # of connection points: 2
#     Edge 43, Type (0, 1), BuildingBlock: ZUJKAS_clean_linker_0, # of connection points: 2
#     Edge 44, Type (0, 1), BuildingBlock: ZUJKAS_clean_linker_0, # of connection points: 2
#     Edge 45, Type (0, 1), BuildingBlock: ZUJKAS_clean_linker_0, # of connection points: 2
#     Edge 46, Type (0, 1), BuildingBlock: ZUJKAS_clean_linker_0, # of connection points: 2
#     Edge 47, Type (0, 1), BuildingBlock: ZUJKAS_clean_linker_0, # of connection points: 2
#     Edge 48, Type (0, 1), BuildingBlock: ZUJKAS_clean_linker_0, # of connection points: 2
#     Edge 49, Type (0, 1), BuildingBlock: ZUJKAS_clean_linker_0, # of connection points: 2
#     Edge 50, Type (0, 1), BuildingBlock: ZUJKAS_clean_linker_0, # of connection points: 2
#     Edge 51, Type (0, 1), BuildingBlock: ZUJKAS_clean_linker_0, # of connection points: 2
#     Edge 52, Type (0, 1), BuildingBlock: ZUJKAS_clean_linker_0, # of connection points: 2
#     Edge 53, Type (0, 1), BuildingBlock: ZUJKAS_clean_linker_0, # of connection points: 2
#     Edge 54, Type (0, 1), BuildingBlock: ZUJKAS_clean_linker_0, # of connection points: 2
#     Edge 55, Type (0, 1), BuildingBlock: ZUJKAS_clean_linker_0, # of connection points: 2
#     Edge 56, Type (0, 1), BuildingBlock: ZUJKAS_clean_linker_0, # of connection points: 2
#     Edge 57, Type (0, 1), BuildingBlock: ZUJKAS_clean_linker_0, # of connection points: 2
#     Edge 58, Type (0, 1), BuildingBlock: ZUJKAS_clean_linker_0, # of connection points: 2
#     Edge 59, Type (0, 1), BuildingBlock: ZUJKAS_clean_linker_0, # of connection points: 2
#     Edge 60, Type (0, 1), BuildingBlock: ZUJKAS_clean_linker_0, # of connection points: 2
#     Edge 61, Type (0, 1), BuildingBlock: ZUJKAS_clean_linker_0, # of connection points: 2
#     Edge 62, Type (0, 1), BuildingBlock: ZUJKAS_clean_linker_0, # of connection points: 2
#     Edge 63, Type (0, 1), BuildingBlock: ZUJKAS_clean_linker_0, # of connection points: 2
#     Edge 64, Type (0, 1), BuildingBlock: ZUJKAS_clean_linker_0, # of connection points: 2
#     Edge 65, Type (0, 1), BuildingBlock: ZUJKAS_clean_linker_0, # of connection points: 2
#     Edge 66, Type (0, 1), BuildingBlock: ZUJKAS_clean_linker_0, # of connection points: 2
#     Edge 67, Type (0, 1), BuildingBlock: ZUJKAS_clean_linker_0, # of connection points: 2
#     Edge 68, Type (0, 1), BuildingBlock: ZUJKAS_clean_linker_0, # of connection points: 2
#     Edge 69, Type (0, 1), BuildingBlock: ZUJKAS_clean_linker_0, # of connection points: 2
#     Edge 70, Type (0, 1), BuildingBlock: ZUJKAS_clean_linker_0, # of connection points: 2
#     Edge 71, Type (0, 1), BuildingBlock: ZUJKAS_clean_linker_0, # of connection points: 2
#     Edge 72, Type (0, 1), BuildingBlock: ZUJKAS_clean_linker_0, # of connection points: 2
#     Edge 73, Type (0, 1), BuildingBlock: ZUJKAS_clean_linker_0, # of connection points: 2
#     Edge 74, Type (0, 1), BuildingBlock: ZUJKAS_clean_linker_0, # of connection points: 2
#     Edge 75, Type (0, 1), BuildingBlock: ZUJKAS_clean_linker_0, # of connection points: 2
#     Edge 76, Type (0, 1), BuildingBlock: ZUJKAS_clean_linker_0, # of connection points: 2
#     Edge 77, Type (0, 1), BuildingBlock: ZUJKAS_clean_linker_0, # of connection points: 2
#     Edge 78, Type (0, 1), BuildingBlock: ZUJKAS_clean_linker_0, # of connection points: 2
#     Edge 79, Type (0, 1), BuildingBlock: ZUJKAS_clean_linker_0, # of connection points: 2
#     Edge 80, Type (0, 1), BuildingBlock: ZUJKAS_clean_linker_0, # of connection points: 2
#     Edge 81, Type (0, 1), BuildingBlock: ZUJKAS_clean_linker_0, # of connection points: 2
#     Edge 82, Type (0, 1), BuildingBlock: ZUJKAS_clean_linker_0, # of connection points: 2
#     Edge 83, Type (0, 1), BuildingBlock: ZUJKAS_clean_linker_0, # of connection points: 2
#     Edge 84, Type (0, 1), BuildingBlock: ZUJKAS_clean_linker_0, # of connection points: 2
#     Edge 85, Type (0, 1), BuildingBlock: ZUJKAS_clean_linker_0, # of connection points: 2
#     Edge 86, Type (0, 1), BuildingBlock: ZUJKAS_clean_linker_0, # of connection points: 2
#     Edge 87, Type (0, 1), BuildingBlock: ZUJKAS_clean_linker_0, # of connection points: 2
#     Edge 88, Type (0, 1), BuildingBlock: ZUJKAS_clean_linker_0, # of connection points: 2
#     Edge 89, Type (0, 1), BuildingBlock: ZUJKAS_clean_linker_0, # of connection points: 2
#     Edge 90, Type (0, 1), BuildingBlock: ZUJKAS_clean_linker_0, # of connection points: 2
#     Edge 91, Type (0, 1), BuildingBlock: ZUJKAS_clean_linker_0, # of connection points: 2
#     Edge 92, Type (0, 1), BuildingBlock: ZUJKAS_clean_linker_0, # of connection points: 2
#     Edge 93, Type (0, 1), BuildingBlock: ZUJKAS_clean_linker_0, # of connection points: 2
#     Edge 94, Type (0, 1), BuildingBlock: ZUJKAS_clean_linker_0, # of connection points: 2
#     Edge 95, Type (0, 1), BuildingBlock: ZUJKAS_clean_linker_0, # of connection points: 2
#     Edge 96, Type (0, 1), BuildingBlock: ZUJKAS_clean_linker_0, # of connection points: 2
#     Edge 97, Type (0, 1), BuildingBlock: ZUJKAS_clean_linker_0, # of connection points: 2
#     Edge 98, Type (0, 1), BuildingBlock: ZUJKAS_clean_linker_0, # of connection points: 2
#     Edge 99, Type (0, 1), BuildingBlock: ZUJKAS_clean_linker_0, # of connection points: 2
#     Edge 100, Type (0, 1), BuildingBlock: ZUJKAS_clean_linker_0, # of connection points: 2
#     Edge 101, Type (0, 1), BuildingBlock: ZUJKAS_clean_linker_0, # of connection points: 2
#     Edge 102, Type (0, 1), BuildingBlock: ZUJKAS_clean_linker_0, # of connection points: 2
#     Edge 103, Type (0, 1), BuildingBlock: ZUJKAS_clean_linker_0, # of connection points: 2
#     Edge 104, Type (0, 1), BuildingBlock: ZUJKAS_clean_linker_0, # of connection points: 2
#     Edge 105, Type (0, 1), BuildingBlock: ZUJKAS_clean_linker_0, # of connection points: 2
#     Edge 106, Type (0, 1), BuildingBlock: ZUJKAS_clean_linker_0, # of connection points: 2
#     Edge 107, Type (0, 1), BuildingBlock: ZUJKAS_clean_linker_0, # of connection points: 2
#     Edge 108, Type (0, 1), BuildingBlock: ZUJKAS_clean_linker_0, # of connection points: 2
#     Edge 109, Type (0, 1), BuildingBlock: ZUJKAS_clean_linker_0, # of connection points: 2
#     Edge 110, Type (0, 1), BuildingBlock: ZUJKAS_clean_linker_0, # of connection points: 2
#     Edge 111, Type (0, 1), BuildingBlock: ZUJKAS_clean_linker_0, # of connection points: 2
#     Edge 112, Type (0, 1), BuildingBlock: ZUJKAS_clean_linker_0, # of connection points: 2
#     Edge 113, Type (0, 1), BuildingBlock: ZUJKAS_clean_linker_0, # of connection points: 2
#     Edge 114, Type (0, 1), BuildingBlock: ZUJKAS_clean_linker_0, # of connection points: 2
#     Edge 115, Type (0, 1), BuildingBlock: ZUJKAS_clean_linker_0, # of connection points: 2
#     Edge 116, Type (0, 1), BuildingBlock: ZUJKAS_clean_linker_0, # of connection points: 2
#     Edge 117, Type (0, 1), BuildingBlock: ZUJKAS_clean_linker_0, # of connection points: 2
#     Edge 118, Type (0, 1), BuildingBlock: ZUJKAS_clean_linker_0, # of connection points: 2
#     Edge 119, Type (0, 1), BuildingBlock: ZUJKAS_clean_linker_0, # of connection points: 2
#     Edge 120, Type (0, 1), BuildingBlock: ZUJKAS_clean_linker_0, # of connection points: 2
#     Edge 121, Type (0, 1), BuildingBlock: ZUJKAS_clean_linker_0, # of connection points: 2
#     Edge 122, Type (0, 1), BuildingBlock: ZUJKAS_clean_linker_0, # of connection points: 2
#     Edge 123, Type (0, 1), BuildingBlock: ZUJKAS_clean_linker_0, # of connection points: 2
#     Edge 124, Type (0, 1), BuildingBlock: ZUJKAS_clean_linker_0, # of connection points: 2
#     Edge 125, Type (0, 1), BuildingBlock: ZUJKAS_clean_linker_0, # of connection points: 2
#     Edge 126, Type (0, 1), BuildingBlock: ZUJKAS_clean_linker_0, # of connection points: 2
#     Edge 127, Type (0, 1), BuildingBlock: ZUJKAS_clean_linker_0, # of connection points: 2
#     Edge 128, Type (0, 1), BuildingBlock: ZUJKAS_clean_linker_0, # of connection points: 2
#     Edge 129, Type (0, 1), BuildingBlock: ZUJKAS_clean_linker_0, # of connection points: 2
#     Edge 130, Type (0, 1), BuildingBlock: ZUJKAS_clean_linker_0, # of connection points: 2
#     Edge 131, Type (0, 1), BuildingBlock: ZUJKAS_clean_linker_0, # of connection points: 2
#     Edge 132, Type (0, 1), BuildingBlock: ZUJKAS_clean_linker_0, # of connection points: 2
#     Edge 133, Type (0, 1), BuildingBlock: ZUJKAS_clean_linker_0, # of connection points: 2
#     Edge 134, Type (0, 1), BuildingBlock: ZUJKAS_clean_linker_0, # of connection points: 2
#     Edge 135, Type (0, 1), BuildingBlock: ZUJKAS_clean_linker_0, # of connection points: 2
# Relax obj value: 0.125
# Max RMSD: 0.259
# Mean RMSD: 0.151
data_MOF--net-gar--node1-CEKHIL_clean_sbu_0--node2-PAMTOO_clean_sbu_0--edge1-ZUJKAS_clean_linker_0
_symmetry_space_group_name_H-M    P1
_symmetry_Int_Tables_number       1
_symmetry_cell_setting            triclinic
loop_
_symmetry_equiv_pos_as_xyz
'x, y, z'
_cell_length_a     75.70887
_cell_length_b     75.637111
_cell_length_c     72.958849
_cell_angle_alpha  95.921931
_cell_angle_beta   95.458469
_cell_angle_gamma 103.00749
loop_
_atom_site_label
_atom_site_type_symbol
_atom_site_fract_x
_atom_site_fract_y
_atom_site_fract_z
_atom_type_partial_charge
Co0 Co 0.05309 0.31071 0.36457 0.0
O1 O 0.07957 0.31312 0.36793 0.0
O2 O 0.0621 0.30081 0.34206 0.0
C3 C 0.05402 0.33991 0.37793 0.0
O4 O 0.02522 0.30679 0.35528 0.0
Co5 Co 0.0313 0.31509 0.3983 0.0
O6 O 0.01182 0.31721 0.37909 0.0
C7 C 0.04541 0.28187 0.39108 0.0
C8 C 0.07854 0.30553 0.35097 0.0
C9 C 0.01133 0.31149 0.36195 0.0
O10 O 0.04905 0.28592 0.37477 0.0
O11 O 0.03992 0.29261 0.40278 0.0
O12 O 0.05691 0.33693 0.3607 0.0
O13 O 0.05211 0.32571 0.38649 0.0
Co14 Co 0.01105 0.75691 0.67653 0.0
O15 O 0.98477 0.75529 0.67203 0.0
O16 O 0.99822 0.75052 0.69828 0.0
C17 C 0.0189 0.78421 0.66468 0.0
O18 O 0.03833 0.75845 0.6868 0.0
Co19 Co 0.03518 0.75868 0.64413 0.0
O20 O 0.05587 0.76615 0.66423 0.0
C21 C 0.01086 0.72332 0.6491 0.0
C22 C 0.98319 0.75202 0.68894 0.0
C23 C 0.05425 0.76333 0.68098 0.0
O24 O 1.00749 0.73002 0.66519 0.0
O25 O 0.01994 0.73304 0.63824 0.0
O26 O 0.01531 0.78388 0.68172 0.0
O27 O 0.01681 0.76833 0.65538 0.0
Co28 Co 0.54806 0.80958 0.86239 0.0
O29 O 0.57463 0.81275 0.86723 0.0
O30 O 0.55852 0.80034 0.84064 0.0
C31 C 0.54744 0.83837 0.8757 0.0
O32 O 0.52059 0.80478 0.85132 0.0
Co33 Co 0.52341 0.81242 0.89394 0.0
O34 O 0.50362 0.81132 0.87375 0.0
C35 C 0.53985 0.78053 0.88842 0.0
C36 C 0.57456 0.80534 0.85035 0.0
C37 C 0.50524 0.80686 0.8568 0.0
O38 O 0.54412 0.78472 0.87234 0.0
O39 O 0.53327 0.79089 0.89951 0.0
O40 O 0.55151 0.83583 0.85884 0.0
O41 O 0.54522 0.82402 0.88405 0.0
Co42 Co 0.51594 0.25761 0.17839 0.0
O43 O 0.48953 0.25513 0.17365 0.0
O44 O 0.50319 0.25188 0.20039 0.0
C45 C 0.52279 0.28436 0.16536 0.0
O46 O 0.54343 0.26023 0.18891 0.0
Co47 Co 0.5402 0.25904 0.1462 0.0
O48 O 0.56075 0.268 0.16623 0.0
C49 C 0.51895 0.22303 0.15388 0.0
C50 C 0.48801 0.25261 0.19076 0.0
C51 C 0.55931 0.26544 0.18306 0.0
O52 O 0.51326 0.23049 0.16835 0.0
O53 O 0.52872 0.23223 0.14314 0.0
O54 O 0.51942 0.28452 0.18249 0.0
O55 O 0.52119 0.2683 0.15663 0.0
Co56 Co 0.05684 0.79861 0.11323 0.0
O57 O 0.0302 0.79432 0.11015 0.0
O58 O 0.04672 0.79046 0.13522 0.0
C59 C 0.06128 0.8269 0.1019 0.0
O60 O 0.08385 0.8021 0.12394 0.0
Co61 Co 0.08138 0.80223 0.08364 0.0
O62 O 0.10303 0.80743 0.10272 0.0
C63 C 0.06181 0.7648 0.08832 0.0
C64 C 0.03069 0.79019 0.12703 0.0
C65 C 0.10021 0.80544 0.11936 0.0
O66 O 0.05543 0.77189 0.10245 0.0
O67 O 0.07167 0.77487 0.07826 0.0
O68 O 0.05869 0.82503 0.11899 0.0
O69 O 0.06089 0.81162 0.09171 0.0
Co70 Co 0.50895 0.77095 0.42943 0.0
O71 O 0.53557 0.77567 0.43252 0.0
O72 O 0.51786 0.76234 0.40686 0.0
C73 C 0.50754 0.79988 0.44203 0.0
O74 O 0.48162 0.76519 0.41898 0.0
Co75 Co 0.48562 0.77098 0.46048 0.0
O76 O 0.46537 0.77214 0.44151 0.0
C77 C 0.50167 0.73913 0.45379 0.0
C78 C 0.53433 0.76862 0.41529 0.0
C79 C 0.46661 0.76799 0.42441 0.0
O80 O 0.50716 0.7457 0.439 0.0
O81 O 0.49361 0.7479 0.46496 0.0
O82 O 0.51047 0.79635 0.42496 0.0
O83 O 0.50678 0.7862 0.45161 0.0
Co84 Co 0.55597 0.29863 0.61339 0.0
O85 O 0.52939 0.29459 0.61044 0.0
O86 O 0.54594 0.29082 0.63555 0.0
C87 C 0.56055 0.3268 0.60183 0.0
O88 O 0.58309 0.30197 0.62377 0.0
Co89 Co 0.57989 0.30146 0.58328 0.0
O90 O 0.60176 0.3072 0.60208 0.0
C91 C 0.56034 0.26432 0.58882 0.0
C92 C 0.5299 0.29059 0.62736 0.0
C93 C 0.59931 0.30534 0.61883 0.0
O94 O 0.55416 0.27178 0.60286 0.0
O95 O 0.57019 0.27406 0.57849 0.0
O96 O 0.55813 0.32509 0.61899 0.0
O97 O 0.55984 0.3114 0.59168 0.0
Co98 Co 0.00876 0.27095 0.92956 0.0
O99 O 0.03532 0.2751 0.93265 0.0
O100 O 0.01743 0.26209 0.90697 0.0
C101 C 0.008 0.30005 0.94228 0.0
O102 O 0.98148 0.26571 0.91914 0.0
Co103 Co 0.98547 0.27144 0.96065 0.0
O104 O 0.96588 0.27412 0.94163 0.0
C105 C 1.00126 0.23938 0.95407 0.0
C106 C 0.03393 0.26803 0.91541 0.0
C107 C 0.96688 0.2696 0.92453 0.0
O108 O 1.00641 0.24565 0.93904 0.0
O109 O 0.99356 0.24842 0.96539 0.0
O110 O 0.01093 0.29648 0.9252 0.0
O111 O 1.00684 0.28626 0.95176 0.0
Co112 Co 0.40785 0.03737 0.29214 0.0
O113 O 0.40792 0.06084 0.28405 0.0
O114 O 0.38372 0.03747 0.28149 0.0
C115 C 0.42424 0.04806 0.31997 0.0
O116 O 0.40175 0.01164 0.29907 0.0
Co117 Co 0.44288 0.0235 0.30136 0.0
O118 O 0.42641 0.00209 0.30937 0.0
C119 C 0.42835 0.02371 0.26225 0.0
C120 C 0.39055 0.05423 0.27883 0.0
C121 C 0.40917 -0.00037 0.30578 0.0
O122 O 0.41386 0.02795 0.2673 0.0
O123 O 0.44195 0.02292 0.27373 0.0
O124 O 0.40681 0.04729 0.3177 0.0
O125 O 0.43127 0.04371 0.30523 0.0
Co126 Co 0.28017 0.18076 0.50738 0.0
O127 O 0.30666 0.18552 0.51279 0.0
O128 O 0.2872 0.16036 0.51737 0.0
C129 C 0.28021 0.19024 0.47862 0.0
O130 O 0.25276 0.16913 0.50298 0.0
Co131 Co 0.25767 0.20884 0.49981 0.0
O132 O 0.23646 0.18773 0.49175 0.0
C133 C 0.27203 0.20679 0.53872 0.0
C134 C 0.30406 0.16919 0.5178 0.0
C135 C 0.23756 0.17216 0.49621 0.0
O136 O 0.27795 0.19261 0.53324 0.0
O137 O 0.26471 0.2157 0.52736 0.0
O138 O 0.2822 0.174 0.4811 0.0
O139 O 0.27911 0.20056 0.49354 0.0
Co140 Co 0.13547 0.03083 0.78498 0.0
O141 O 0.13062 0.00426 0.7801 0.0
O142 O 0.15572 0.02339 0.77483 0.0
C143 C 0.12624 0.03171 0.814 0.0
O144 O 0.14706 0.05831 0.78887 0.0
Co145 Co 0.10709 0.05313 0.79199 0.0
O146 O 0.12784 0.07496 0.79821 0.0
C147 C 0.10917 0.03787 0.75337 0.0
C148 C 0.14678 0.00658 0.77468 0.0
C149 C 0.14364 0.07375 0.79448 0.0
O150 O 0.12348 0.03232 0.75901 0.0
O151 O 0.10011 0.04527 0.76461 0.0
O152 O 0.14245 0.02969 0.81138 0.0
O153 O 0.11578 0.03219 0.79906 0.0
Co154 Co 0.26897 0.90791 -0.00046 0.0
O155 O 0.24476 0.9063 0.00643 0.0
O156 O 0.26773 0.93105 0.01191 0.0
C157 C 0.26049 0.89335 0.97064 0.0
O158 O 0.29515 0.91566 0.99427 0.0
Co159 Co 0.28493 0.87447 0.98878 0.0
O160 O 0.30598 0.89242 0.98205 0.0
C161 C 0.27985 0.8848 0.02779 0.0
C162 C 0.2509 0.92336 0.0135 0.0
C163 C 0.30766 0.90942 0.987 0.0
O164 O 0.27663 0.90003 0.02386 0.0
O165 O 0.28204 0.87233 0.01555 0.0
O166 O 0.26057 0.91061 0.97406 0.0
O167 O 0.26419 0.88537 0.98481 0.0
Co168 Co 0.28467 0.38216 0.02794 0.0
O169 O 0.25828 0.37854 0.02554 0.0
O170 O 0.27802 0.40418 0.03777 0.0
C171 C 0.28607 0.36961 -0.00152 0.0
O172 O 0.31237 0.39242 0.03166 0.0
Co173 Co 0.3047 0.35107 0.02449 0.0
O174 O 0.3267 0.37062 0.02292 0.0
C175 C 0.28911 0.35875 0.05933 0.0
C176 C 0.26111 0.39555 0.03273 0.0
C177 C 0.32689 0.3873 0.02792 0.0
O178 O 0.28484 0.37295 0.05337 0.0
O179 O 0.29605 0.34777 0.04935 0.0
O180 O 0.28455 0.38637 0.0019 0.0
O181 O 0.28534 0.36053 0.0126 0.0
Co182 Co 0.78694 0.14868 0.03639 0.0
O183 O 0.81294 0.15114 0.03984 0.0
O184 O 0.79189 0.12583 0.04145 0.0
C185 C 0.78642 0.16288 0.01096 0.0
O186 O 0.75935 0.14008 0.03278 0.0
Co187 Co 0.76819 0.18128 0.03697 0.0
O188 O 0.74589 0.16259 0.02618 0.0
C189 C 0.78369 0.171 0.07205 0.0
C190 C 0.80903 0.1339 0.04207 0.0
C191 C 0.74518 0.14581 0.02755 0.0
O192 O 0.7873 0.15674 0.06354 0.0
O193 O 0.77706 0.18269 0.0639 0.0
O194 O 0.78709 0.14577 0.0095 0.0
O195 O 0.7873 0.17099 0.02757 0.0
Co196 Co 0.16167 0.52254 0.26793 0.0
O197 O 0.16336 0.49749 0.26701 0.0
O198 O 0.18258 0.51943 0.25605 0.0
C199 C 0.15674 0.52668 0.29772 0.0
O200 O 0.1653 0.54984 0.26732 0.0
Co201 Co 0.12627 0.53473 0.27574 0.0
O202 O 0.14215 0.55988 0.27847 0.0
C203 C 0.12828 0.51522 0.23914 0.0
C204 C 0.17814 0.50251 0.25925 0.0
C205 C 0.1579 0.5628 0.27294 0.0
O206 O 0.14552 0.51676 0.2434 0.0
O207 O 0.118 0.52002 0.25071 0.0
O208 O 0.17324 0.52778 0.29357 0.0
O209 O 0.14383 0.52126 0.28406 0.0
Co210 Co 0.78489 0.88076 0.52984 0.0
O211 O 0.75846 0.87703 0.52803 0.0
O212 O 0.77825 0.90291 0.53932 0.0
C213 C 0.78599 0.86745 0.50056 0.0
O214 O 0.81256 0.89118 0.53293 0.0
Co215 Co 0.80511 0.84968 0.52695 0.0
O216 O 0.82709 0.86923 0.52523 0.0
C217 C 0.7889 0.85752 0.56134 0.0
C218 C 0.7613 0.89413 0.53493 0.0
C219 C 0.82716 0.886 0.52957 0.0
O220 O 0.78564 0.87222 0.55558 0.0
O221 O 0.79523 0.8461 0.55124 0.0
O222 O 0.78415 0.88414 0.50349 0.0
O223 O 0.7856 0.85888 0.51503 0.0
Co224 Co 0.93213 0.0311 0.26583 0.0
O225 O 0.93642 0.05764 0.26863 0.0
O226 O 0.91057 0.03846 0.2562 0.0
C227 C 0.94437 0.02926 0.29523 0.0
O228 O 0.92105 0.00349 0.26165 0.0
Co229 Co 0.96208 0.00965 0.26902 0.0
O230 O 0.94183 0.98831 0.27089 0.0
C231 C 0.95609 0.02664 0.23481 0.0
C232 C 0.91951 0.05526 0.26152 0.0
C233 C 0.92541 0.98869 0.2656 0.0
O234 O 0.94163 0.03077 0.24043 0.0
O235 O 0.96661 0.0194 0.24487 0.0
O236 O 0.92783 0.03133 0.29195 0.0
O237 O 0.95339 0.02962 0.28103 0.0
Co238 Co 0.28621 0.64576 0.53521 0.0
O239 O 0.31058 0.64408 0.53095 0.0
O240 O 0.28901 0.62171 0.53832 0.0
C241 C 0.27993 0.65966 0.51057 0.0
O242 O 0.25963 0.64131 0.53952 0.0
Co243 Co 0.27472 0.68241 0.54311 0.0
O244 O 0.24949 0.66707 0.54178 0.0
C245 C 0.30032 0.67152 0.57 0.0
C246 C 0.30546 0.62717 0.53411 0.0
C247 C 0.24677 0.64975 0.54087 0.0
O248 O 0.29505 0.65482 0.56225 0.0
O249 O 0.29552 0.68479 0.56298 0.0
O250 O 0.27853 0.64209 0.50844 0.0
O251 O 0.28668 0.66825 0.5268 0.0
Co252 Co 0.43127 0.5293 0.76551 0.0
O253 O 0.4348 0.55579 0.76794 0.0
O254 O 0.40929 0.5359 0.75582 0.0
C255 C 0.44386 0.52805 0.79492 0.0
O256 O 0.42087 0.50153 0.7617 0.0
Co257 Co 0.46189 0.5087 0.76883 0.0
O258 O 0.44217 0.48724 0.77162 0.0
C259 C 0.45471 0.52442 0.73404 0.0
C260 C 0.41782 0.55288 0.76083 0.0
C261 C 0.42564 0.48708 0.76618 0.0
O262 O 0.44061 0.52902 0.74004 0.0
O263 O 0.46534 0.51715 0.74393 0.0
O264 O 0.42716 0.52967 0.79168 0.0
O265 O 0.45281 0.52851 0.78066 0.0
Co266 Co 0.66557 0.02391 0.75208 0.0
O267 O 0.66474 0.99826 0.75128 0.0
O268 O 0.688 0.01932 0.7447 0.0
C269 C 0.65497 0.02729 0.7796 0.0
O270 O 0.67209 0.05153 0.75241 0.0
Co271 Co 0.6309 0.03945 0.75325 0.0
O272 O 0.64885 0.06316 0.76087 0.0
C273 C 0.63866 0.02158 0.71787 0.0
C274 C 0.68121 0.00234 0.74668 0.0
C275 C 0.66539 0.06514 0.7577 0.0
O276 O 0.65419 0.01999 0.72543 0.0
O277 O 0.62722 0.02796 0.72681 0.0
O278 O 0.67209 0.02739 0.77896 0.0
O279 O 0.64472 0.02356 0.76387 0.0
Co280 Co 0.78193 0.67884 0.00958 0.0
O281 O 0.80841 0.6839 0.01508 0.0
O282 O 0.78918 0.65834 0.01908 0.0
C283 C 0.78177 0.68884 0.98104 0.0
O284 O 0.75458 0.66697 0.00487 0.0
Co285 Co 0.75939 0.70712 0.00302 0.0
O286 O 0.73787 0.68619 0.99596 0.0
C287 C 0.77386 0.70426 0.04158 0.0
C288 C 0.80599 0.66745 0.01976 0.0
C289 C 0.73918 0.6703 -0.00079 0.0
O290 O 0.77959 0.69008 0.03569 0.0
O291 O 0.76668 0.71354 0.03054 0.0
O292 O 0.78403 0.67263 0.98323 0.0
O293 O 0.78069 0.6989 0.99616 0.0
Co294 Co 0.89917 0.54313 0.79792 0.0
O295 O 0.89728 0.56605 0.78959 0.0
O296 O 0.87551 0.54035 0.78438 0.0
C297 C 0.91165 0.55425 0.82709 0.0
O298 O 0.89525 0.51735 0.8045 0.0
Co299 Co 0.93591 0.53414 0.81129 0.0
O300 O 0.92075 0.51105 0.81769 0.0
C301 C 0.92496 0.5336 0.77121 0.0
C302 C 0.88085 0.55749 0.78223 0.0
C303 C 0.90365 0.50665 0.81238 0.0
O304 O 0.90916 0.53586 0.77445 0.0
O305 O 0.93785 0.53403 0.78408 0.0
O306 O 0.89408 0.55127 0.82271 0.0
O307 O 0.92108 0.55193 0.81361 0.0
Co308 Co 0.76319 0.4143 0.49104 0.0
O309 O 0.73956 0.41457 0.49853 0.0
O310 O 0.7653 0.43524 0.50908 0.0
C311 C 0.75368 0.40776 0.46062 0.0
O312 O 0.78975 0.41947 0.48664 0.0
Co313 Co 0.77274 0.38046 0.47043 0.0
O314 O 0.79664 0.39706 0.46819 0.0
C315 C 0.76843 0.38217 0.51039 0.0
C316 C 0.74782 0.42952 0.5093 0.0
C317 C 0.80105 0.4129 0.47757 0.0
O318 O 0.76781 0.39909 0.5111 0.0
O319 O 0.76884 0.37213 0.49528 0.0
O320 O 0.75723 0.42464 0.46839 0.0
O321 O 0.75515 0.39557 0.47139 0.0
Co322 Co 0.63409 0.53286 0.28513 0.0
O323 O 0.6299 0.50632 0.28086 0.0
O324 O 0.65462 0.5258 0.27525 0.0
C325 C 0.62506 0.53405 0.31422 0.0
O326 O 0.64497 0.5604 0.28834 0.0
Co327 Co 0.60506 0.5544 0.29164 0.0
O328 O 0.62542 0.57665 0.29763 0.0
C329 C 0.60715 0.53835 0.25332 0.0
C330 C 0.64613 0.50892 0.27558 0.0
C331 C 0.64125 0.57574 0.29373 0.0
O332 O 0.6219 0.53359 0.25906 0.0
O333 O 0.5978 0.54549 0.26443 0.0
O334 O 0.64138 0.53244 0.31157 0.0
O335 O 0.61436 0.53397 0.29926 0.0
Dy336 Dy 0.05385 0.04249 0.03328 0.0
Dy337 Dy 0.01497 0.02027 0.01073 0.0
C338 C 0.05122 0.02676 0.98993 0.0
O339 O 0.04427 0.06425 0.01887 0.0
O340 O 0.01388 0.05019 0.01175 0.0
O341 O 0.08044 0.06091 0.03488 0.0
O342 O 0.07173 0.04894 0.05917 0.0
O343 O 0.01052 0.02341 0.04072 0.0
O344 O 0.03327 0.04865 0.05166 0.0
O345 O 0.0291 0.99758 0.01615 0.0
O346 O 0.05041 0.01337 0.04007 0.0
O347 O 0.99031 0.99885 0.0089 0.0
O348 O 0.99398 0.01651 0.98746 0.0
C349 C 0.02749 0.06483 0.01278 0.0
O350 O 0.06129 0.03077 0.0062 0.0
O351 O 0.03336 0.02395 0.98854 0.0
C352 C 0.10158 0.04992 0.05342 0.0
C353 C 0.12874 0.03048 0.05893 0.0
C354 C 0.11723 0.02716 0.04207 0.0
C355 C 0.10374 0.03672 0.03937 0.0
C356 C 0.11344 0.05379 0.07005 0.0
C357 C 0.12707 0.04418 0.07277 0.0
C358 C 0.08546 0.05753 0.05151 0.0
C359 C 0.01808 0.03704 0.05372 0.0
C360 C 0.04121 0.99773 0.03046 0.0
C361 C 0.96589 0.01093 -0.00122 0.0
C362 C 0.93672 0.02724 0.0043 0.0
C363 C 0.9526 0.03195 0.01706 0.0
C364 C 0.96704 0.0239 0.0143 0.0
C365 C 0.9498 0.0056 0.98631 0.0
C366 C 0.93516 0.01366 0.98915 0.0
C367 C 0.98237 0.00489 0.99503 0.0
H368 H 0.11847 0.01694 0.03103 0.0
H369 H 0.09459 0.03334 0.0265 0.0
H370 H 0.11176 0.06375 0.08112 0.0
H371 H 0.13582 0.04696 0.08588 0.0
H372 H 0.954 0.04222 0.02896 0.0
H373 H 0.97941 0.02833 0.02398 0.0
H374 H 0.94881 0.99573 0.97417 0.0
H375 H 0.923 0.00989 0.97914 0.0
Dy376 Dy 0.28993 0.77604 0.25696 0.0
Dy377 Dy 0.27008 0.78832 0.2918 0.0
C378 C 0.29639 0.81806 0.27381 0.0
O379 O 0.3046 0.76722 0.28138 0.0
O380 O 0.29872 0.78805 0.30356 0.0
O381 O 0.31427 0.77642 0.24359 0.0
O382 O 0.28802 0.76063 0.22997 0.0
O383 O 0.26746 0.75831 0.29127 0.0
O384 O 0.26752 0.75224 0.26009 0.0
O385 O 0.24925 0.78488 0.26668 0.0
O386 O 0.26882 0.78969 0.24471 0.0
O387 O 0.24651 0.78436 0.30671 0.0
O388 O 0.27038 0.80616 0.31695 0.0
C389 C 0.30852 0.77658 0.29808 0.0
O390 O 0.30394 0.80518 0.26711 0.0
O391 O 0.28052 0.81405 0.28008 0.0
C392 C 0.30664 0.77852 0.21187 0.0
C393 C 0.30028 0.79997 0.18386 0.0
C394 C 0.31084 0.80815 0.20073 0.0
C395 C 0.31395 0.79754 0.21464 0.0
C396 C 0.2975 0.77016 0.19443 0.0
C397 C 0.29428 0.78081 0.18052 0.0
C398 C 0.30482 0.76825 0.22791 0.0
C399 C 0.26321 0.7469 0.27592 0.0
C400 C 0.25244 0.78856 0.24988 0.0
C401 C 0.25603 0.78902 0.33843 0.0
C402 C 0.25728 0.77287 0.37131 0.0
C403 C 0.268 0.76899 0.35743 0.0
C404 C 0.26739 0.77701 0.34117 0.0
C405 C 0.24537 0.79313 0.3522 0.0
C406 C 0.24598 0.78507 0.36861 0.0
C407 C 0.25498 0.79634 0.32073 0.0
H408 H 0.31603 0.82285 0.20349 0.0
H409 H 0.32103 0.80445 0.22795 0.0
H410 H 0.29162 0.75554 0.19205 0.0
H411 H 0.28609 0.77413 0.16765 0.0
H412 H 0.27652 0.75936 0.35888 0.0
H413 H 0.27557 0.77358 0.33054 0.0
H414 H 0.23648 0.80234 0.35018 0.0
H415 H 0.23764 0.78834 0.37914 0.0
Dy416 Dy 0.50847 0.02633 0.53248 0.0
Dy417 Dy 0.55123 0.03193 0.5221 0.0
C418 C 0.52001 0.04034 0.4943 0.0
O419 O 0.50891 -0.00039 0.51519 0.0
O420 O 0.53979 0.00149 0.51947 0.0
O421 O 0.4794 0.01832 0.52401 0.0
O422 O 0.4897 0.03009 0.55244 0.0
O423 O 0.54956 0.03135 0.55215 0.0
O424 O 0.52244 0.01113 0.55168 0.0
O425 O 0.54745 0.06081 0.52707 0.0
O426 O 0.52407 0.05487 0.54524 0.0
O427 O 0.58012 0.04122 0.53195 0.0
O428 O 0.5713 0.02661 0.50438 0.0
C429 C 0.52292 0.99191 0.51417 0.0
O430 O 0.51033 0.04168 0.50813 0.0
O431 O 0.5348 0.03398 0.49569 0.0
C432 C 0.46316 0.03789 0.53883 0.0
C433 C 0.43895 0.06156 0.53652 0.0
C434 C 0.45293 0.06241 0.52495 0.0
C435 C 0.46492 0.05076 0.52613 0.0
C436 C 0.4494 0.03708 0.55051 0.0
C437 C 0.43746 0.04878 0.5494 0.0
C438 C 0.47544 0.02517 0.53985 0.0
C439 C 0.53958 0.01748 0.55852 0.0
C440 C 0.53697 0.0666 0.53872 0.0
C441 C 0.59758 0.02045 0.52098 0.0
C442 C 0.62243 0.99783 0.52704 0.0
C443 C 0.62131 0.01186 0.54086 0.0
C444 C 0.60907 0.02302 0.53786 0.0
C445 C 0.59859 0.00633 0.50724 0.0
C446 C 0.61078 0.99516 0.51025 0.0
C447 C 0.58495 0.03267 0.5175 0.0
H448 H 0.45444 0.07185 0.51469 0.0
H449 H 0.47546 0.05171 0.51698 0.0
H450 H 0.44785 0.02735 0.56049 0.0
H451 H 0.42713 0.04788 0.55879 0.0
H452 H 0.62987 0.01421 0.55405 0.0
H453 H 0.60871 0.03375 0.54876 0.0
H454 H 0.59007 0.004 0.49402 0.0
H455 H 0.61139 0.9847 0.49918 0.0
Dy456 Dy 0.30286 0.27377 0.77366 0.0
Dy457 Dy 0.26242 0.28497 0.77115 0.0
C458 C 0.29917 0.3129 0.7646 0.0
O459 O 0.30154 0.28927 0.80144 0.0
O460 O 0.27044 0.28262 0.80089 0.0
O461 O 0.33226 0.28244 0.7809 0.0
O462 O 0.31988 0.25488 0.76785 0.0
O463 O 0.25673 0.25489 0.77202 0.0
O464 O 0.28431 0.25106 0.78524 0.0
O465 O 0.26808 0.28036 0.74135 0.0
O466 O 0.28791 0.26174 0.74574 0.0
O467 O 0.23342 0.27944 0.76179 0.0
O468 O 0.24653 0.30393 0.78048 0.0
C469 C 0.28688 0.28865 0.80998 0.0
O470 O 0.30544 0.29867 0.75918 0.0
O471 O 0.28417 0.31095 0.77267 0.0
C472 C 0.34946 0.26879 0.76041 0.0
C473 C 0.3776 0.27166 0.7368 0.0
C474 C 0.359 0.26695 0.72934 0.0
C475 C 0.34512 0.26557 0.74099 0.0
C476 C 0.36792 0.27365 0.76789 0.0
C477 C 0.38179 0.2751 0.75628 0.0
C478 C 0.33511 0.26718 0.77313 0.0
C479 C 0.26651 0.24516 0.78055 0.0
C480 C 0.27697 0.2684 0.73475 0.0
C481 C 0.2159 0.28999 0.78457 0.0
C482 C 0.18683 0.28461 0.80709 0.0
C483 C 0.19133 0.26962 0.79705 0.0
C484 C 0.2057 0.27226 0.78598 0.0
C485 C 0.21141 0.30494 0.79457 0.0
C486 C 0.19715 0.30231 0.80571 0.0
C487 C 0.23103 0.2933 0.77269 0.0
H488 H 0.35512 0.26402 0.71448 0.0
H489 H 0.33098 0.26188 0.73482 0.0
H490 H 0.37165 0.27634 0.78279 0.0
H491 H 0.39585 0.27913 0.76265 0.0
H492 H 0.18386 0.25578 0.79789 0.0
H493 H 0.20879 0.26039 0.77855 0.0
H494 H 0.21892 0.31877 0.7937 0.0
H495 H 0.194 0.31421 0.81299 0.0
Dy496 Dy 0.04043 0.00843 0.51794 0.0
Dy497 Dy 0.02938 0.04873 0.52281 0.0
C498 C 1.00138 0.01157 0.52848 0.0
O499 O 0.0247 0.01033 0.49064 0.0
O500 O 0.03108 0.04157 0.49266 0.0
O501 O 0.03211 0.97906 0.50996 0.0
O502 O 0.05975 0.99166 0.5224 0.0
O503 O 0.05967 0.05386 0.5237 0.0
O504 O 0.0624 0.02778 0.50626 0.0
O505 O 0.03362 0.04207 0.55215 0.0
O506 O 0.05216 0.02234 0.54648 0.0
O507 O 0.03598 0.07784 0.53239 0.0
O508 O 0.01057 0.06524 0.51519 0.0
C509 C 0.0249 0.02537 0.48293 0.0
O510 O 0.01555 0.0048 0.53255 0.0
O511 O 1.00325 0.02727 0.52176 0.0
C512 C 0.0461 0.96228 0.53026 0.0
C513 C 0.04284 0.93485 0.55452 0.0
C514 C 0.0467 0.95358 0.5616 0.0
C515 C 0.04825 0.96711 0.54962 0.0
C516 C 0.0422 0.94369 0.52314 0.0
C517 C 0.04056 0.93016 0.53508 0.0
C518 C 0.04749 0.97633 0.51733 0.0
C519 C 0.06905 0.04498 0.51347 0.0
C520 C 0.04549 0.03287 0.55809 0.0
C521 C 0.025 0.09532 0.51056 0.0
C522 C 0.03026 0.12338 0.48707 0.0
C523 C 0.03826 0.10833 0.48428 0.0
C524 C 0.03565 0.09446 0.49588 0.0
C525 C 0.01697 0.11022 0.51339 0.0
C526 C 0.01955 0.12406 0.50182 0.0
C527 C 0.02172 0.08058 0.52265 0.0
H528 H 0.04875 0.95785 0.57642 0.0
H529 H 0.05115 0.98136 0.5555 0.0
H530 H 0.0403 0.9396 0.50828 0.0
H531 H 0.03722 0.91597 0.52899 0.0
H532 H 0.04673 0.10734 0.47325 0.0
H533 H 0.04194 0.08305 0.49338 0.0
H534 H 0.00856 0.11109 0.52451 0.0
H535 H 0.01286 0.13516 0.50429 0.0
Dy536 Dy 0.2826 0.79813 0.75757 0.0
Dy537 Dy 0.27592 0.75785 0.77376 0.0
C538 C 0.26968 0.79309 0.79756 0.0
O539 O 0.30939 0.7987 0.77474 0.0
O540 O 0.30635 0.76777 0.77444 0.0
O541 O 0.29189 0.8276 0.76283 0.0
O542 O 0.27886 0.81453 0.73554 0.0
O543 O 0.27631 0.75425 0.74331 0.0
O544 O 0.29583 0.78079 0.73917 0.0
O545 O 0.24741 0.76237 0.76805 0.0
O546 O 0.25381 0.78243 0.74657 0.0
O547 O 0.26475 0.72853 0.76895 0.0
O548 O 0.28218 0.74077 0.79436 0.0
C549 C 0.3165 0.78463 0.77761 0.0
O550 O 0.26779 0.80034 0.78217 0.0
O551 O 0.27555 0.77808 0.79815 0.0
C552 C 0.27248 0.84283 0.74684 0.0
C553 C 0.24986 0.86809 0.74944 0.0
C554 C 0.24233 0.84908 0.7479 0.0
C555 C 0.25351 0.83662 0.7467 0.0
C556 C 0.28005 0.8617 0.74829 0.0
C557 C 0.26891 0.87418 0.74959 0.0
C558 C 0.28461 0.82994 0.7466 0.0
C559 C 0.28923 0.76312 0.73472 0.0
C560 C 0.24189 0.77136 0.75484 0.0
C561 C 0.28593 0.71202 0.78081 0.0
C562 C 0.30851 0.68687 0.77581 0.0
C563 C 0.29612 0.68909 0.76105 0.0
C564 C 0.28497 0.70146 0.76351 0.0
C565 C 0.29817 0.70968 0.7956 0.0
C566 C 0.30933 0.69733 0.79314 0.0
C567 C 0.27453 0.7256 0.78354 0.0
H568 H 0.22775 0.84377 0.74751 0.0
H569 H 0.24735 0.82212 0.7458 0.0
H570 H 0.29466 0.86683 0.74868 0.0
H571 H 0.27534 0.88865 0.75113 0.0
H572 H 0.29519 0.68145 0.74746 0.0
H573 H 0.27566 0.70278 0.75179 0.0
H574 H 0.29917 0.71745 0.80914 0.0
H575 H 0.31845 0.69581 0.80492 0.0
Dy576 Dy 0.52366 0.04145 -0.0016 0.0
Dy577 Dy 0.52895 0.01729 0.03208 0.0
C578 C 0.53071 0.00094 0.99026 0.0
O579 O 0.49606 0.03346 0.00741 0.0
O580 O 0.50015 0.00755 0.01901 0.0
O581 O 0.50955 0.04542 0.97257 0.0
O582 O 0.53272 0.06639 0.98649 0.0
O583 O 0.51795 0.04055 0.04446 0.0
O584 O 0.52833 0.06101 0.02473 0.0
O585 O 0.55638 0.03542 0.03128 0.0
O586 O 0.55264 0.03951 0.00066 0.0
O587 O 0.53811 0.01518 0.06053 0.0
O588 O 0.52476 0.9908 0.0417 0.0
C589 C 0.48943 0.01751 0.01267 0.0
O590 O 0.52168 0.0128 0.98462 0.0
O591 O 0.53794 0.00256 0.00766 0.0
C592 C 0.53076 0.06038 0.95432 0.0
C593 C 0.55263 0.06139 0.92524 0.0
C594 C 0.54642 0.04498 0.9326 0.0
C595 C 0.53566 0.0445 0.94706 0.0
C596 C 0.53656 0.07671 0.94678 0.0
C597 C 0.54747 0.07724 0.93232 0.0
C598 C 0.52169 0.06036 0.97118 0.0
C599 C 0.52223 0.05748 0.04057 0.0
C600 C 0.56318 0.04016 0.01614 0.0
C601 C 0.51652 0.99291 0.07162 0.0
C602 C 0.49002 0.98419 0.09583 0.0
C603 C 0.48842 0.99664 0.08309 0.0
C604 C 0.5015 0.00088 0.07106 0.0
C605 C 0.51809 0.98021 0.08395 0.0
C606 C 0.5049 0.97584 0.096 0.0
C607 C 0.53014 0.9978 0.05894 0.0
H608 H 0.55046 0.03265 0.92767 0.0
H609 H 0.53169 0.03184 0.95299 0.0
H610 H 0.53312 0.08915 0.95244 0.0
H611 H 0.55204 0.09004 0.92683 0.0
H612 H 0.47738 0.0036 0.08279 0.0
H613 H 0.50002 0.01062 0.06145 0.0
H614 H 0.52953 0.97378 0.08435 0.0
H615 H 0.50641 0.96606 0.10552 0.0
Dy616 Dy 0.27166 0.25805 0.25829 0.0
Dy617 Dy 0.29273 0.29765 0.28014 0.0
C618 C 0.28678 0.26296 0.3018 0.0
O619 O 0.24846 0.27154 0.26362 0.0
O620 O 0.26381 0.29305 0.28768 0.0
O621 O 0.25258 0.23188 0.25728 0.0
O622 O 0.26722 0.2381 0.23387 0.0
O623 O 0.27874 0.30399 0.25394 0.0
O624 O 0.2754 0.2765 0.23617 0.0
O625 O 0.31403 0.28809 0.26461 0.0
O626 O 0.30164 0.25733 0.26089 0.0
O627 O 0.31225 0.32337 0.2804 0.0
O628 O 0.29794 0.31811 0.30425 0.0
C629 C 0.24833 0.2835 0.2781 0.0
O630 O 0.27356 0.25496 0.28857 0.0
O631 O 0.29872 0.2779 0.29953 0.0
C632 C 0.26446 0.20893 0.24249 0.0
C633 C 0.28172 0.17968 0.24203 0.0
C634 C 0.28685 0.19435 0.25643 0.0
C635 C 0.27835 0.20886 0.25662 0.0
C636 C 0.25888 0.19413 0.22835 0.0
C637 C 0.26741 0.17951 0.22816 0.0
C638 C 0.25735 0.22534 0.24177 0.0
C639 C 0.27604 0.29407 0.23761 0.0
C640 C 0.31559 0.27123 0.26028 0.0
C641 C 0.30112 0.34708 0.29417 0.0
C642 C 0.28835 0.3776 0.28497 0.0
C643 C 0.27607 0.36063 0.28492 0.0
C644 C 0.2824 0.34551 0.28937 0.0
C645 C 0.31342 0.3641 0.29487 0.0
C646 C 0.30707 0.37933 0.29038 0.0
C647 C 0.30777 0.33046 0.29579 0.0
H648 H 0.2976 0.19471 0.26748 0.0
H649 H 0.28294 0.22026 0.26759 0.0
H650 H 0.24832 0.19412 0.21723 0.0
H651 H 0.26326 0.1684 0.21686 0.0
H652 H 0.26154 0.35895 0.28118 0.0
H653 H 0.27268 0.33243 0.28847 0.0
H654 H 0.32795 0.36547 0.29825 0.0
H655 H 0.31684 0.39224 0.29049 0.0
Dy656 Dy 0.54053 0.50913 0.01824 0.0
Dy657 Dy 0.52915 0.54957 0.02224 0.0
C658 C 0.50136 0.51242 0.02821 0.0
O659 O 0.52508 0.51072 0.99063 0.0
O660 O 0.53077 0.54194 0.99219 0.0
O661 O 0.53244 0.47984 0.01023 0.0
O662 O 0.55975 0.49233 0.02369 0.0
O663 O 0.55916 0.55541 0.02097 0.0
O664 O 0.56301 0.52807 0.00684 0.0
O665 O 0.53396 0.54368 0.05181 0.0
O666 O 0.55191 0.52321 0.04675 0.0
O667 O 0.535 0.57863 0.03179 0.0
O668 O 0.51003 0.56555 0.01402 0.0
C669 C 0.525 0.52559 0.98269 0.0
O670 O 0.51553 0.50578 0.03267 0.0
O671 O 0.50322 0.52788 0.02105 0.0
C672 C 0.54581 0.46291 0.0313 0.0
C673 C 0.543 0.43552 0.0556 0.0
C674 C 0.52779 0.44238 0.05002 0.0
C675 C 0.52918 0.45592 0.03808 0.0
C676 C 0.56101 0.45614 0.0369 0.0
C677 C 0.55966 0.44267 0.04892 0.0
C678 C 0.54752 0.47705 0.01835 0.0
C679 C 0.56883 0.54585 0.01192 0.0
C680 C 0.54537 0.53415 0.05805 0.0
C681 C 0.52404 0.59579 0.00958 0.0
C682 C 0.52909 0.62367 0.98589 0.0
C683 C 0.53946 0.61033 0.98519 0.0
C684 C 0.53694 0.59654 0.99687 0.0
C685 C 0.51365 0.60896 0.01031 0.0
C686 C 0.51611 0.62271 -0.00136 0.0
C687 C 0.5208 0.58104 0.02165 0.0
H688 H 0.5148 0.43743 0.05504 0.0
H689 H 0.51719 0.46089 0.03417 0.0
H690 H 0.57399 0.46121 0.03187 0.0
H691 H 0.57162 0.43762 0.0527 0.0
H692 H 0.5497 0.61065 0.97575 0.0
H693 H 0.54505 0.58643 0.99596 0.0
H694 H 0.50347 0.60854 0.01985 0.0
H695 H 0.50758 0.63243 -0.00058 0.0
Dy696 Dy 0.78733 0.30345 0.26578 0.0
Dy697 Dy 0.78075 0.26209 0.27913 0.0
C698 C 0.77716 0.29597 0.30607 0.0
O699 O 0.81612 0.30007 0.27255 0.0
O700 O 0.80964 0.27688 0.29088 0.0
O701 O 0.7975 0.33286 0.27117 0.0
O702 O 0.78115 0.32053 0.24519 0.0
O703 O 0.79796 0.26243 0.25631 0.0
O704 O 0.78916 0.28439 0.24083 0.0
O705 O 0.75436 0.26285 0.26186 0.0
O706 O 0.75709 0.29372 0.26671 0.0
O707 O 0.77066 0.23297 0.27146 0.0
O708 O 0.78424 0.24349 0.29922 0.0
C709 C 0.82152 0.28974 0.2845 0.0
O710 O 0.7881 0.30622 0.29644 0.0
O711 O 0.76952 0.2787 0.30016 0.0
C712 C 0.77696 0.34897 0.25811 0.0
C713 C 0.75417 0.37397 0.26107 0.0
C714 C 0.75266 0.35963 0.27217 0.0
C715 C 0.7639 0.34724 0.27068 0.0
C716 C 0.77852 0.36317 0.24702 0.0
C717 C 0.76727 0.37552 0.24846 0.0
C718 C 0.78855 0.33572 0.25602 0.0
C719 C 0.79669 0.27041 0.24138 0.0
C720 C 0.74697 0.27707 0.26155 0.0
C721 C 0.79025 0.21616 0.28484 0.0
C722 C 0.81296 0.19112 0.28064 0.0
C723 C 0.81258 0.20429 0.26837 0.0
C724 C 0.80144 0.21667 0.27049 0.0
C725 C 0.79064 0.20317 0.29718 0.0
C726 C 0.80187 0.19082 0.29514 0.0
C727 C 0.77819 0.22903 0.28689 0.0
H728 H 0.74293 0.35807 0.28219 0.0
H729 H 0.76238 0.3363 0.27932 0.0
H730 H 0.78837 0.36463 0.2371 0.0
H731 H 0.76867 0.38613 0.23943 0.0
H732 H 0.82067 0.20487 0.25688 0.0
H733 H 0.80144 0.22656 0.26076 0.0
H734 H 0.78223 0.20258 0.30843 0.0
H735 H 0.80196 0.18114 0.30507 0.0
Dy736 Dy 0.02221 0.54132 0.49613 0.0
Dy737 Dy 0.02703 0.51827 0.53113 0.0
C738 C 0.03244 0.50226 0.48968 0.0
O739 O 0.99619 0.52031 0.49454 0.0
O740 O 0.9973 0.51747 0.52543 0.0
O741 O 0.01526 0.54288 0.46698 0.0
O742 O 0.02293 0.56753 0.48668 0.0
O743 O 0.02746 0.54666 0.54395 0.0
O744 O 0.01122 0.55527 0.51983 0.0
O745 O 0.05558 0.52849 0.52507 0.0
O746 O 0.05106 0.55189 0.50874 0.0
O747 O 0.03892 0.51575 0.55855 0.0
O748 O 0.01853 0.49314 0.54289 0.0
C749 C 0.98816 0.51498 0.50881 0.0
O750 O 0.03484 0.51884 0.48475 0.0
O751 O 0.0268 0.49876 0.50572 0.0
C752 C 0.03416 0.56873 0.45756 0.0
C753 C 0.06287 0.57932 0.43605 0.0
C754 C 0.04618 0.56756 0.4279 0.0
C755 C 0.03196 0.56239 0.43854 0.0
C756 C 0.05044 0.58129 0.4655 0.0
C757 C 0.06461 0.58658 0.45483 0.0
C758 C 0.02034 0.56071 0.46921 0.0
C759 C 0.01799 0.55772 0.53746 0.0
C760 C 0.06181 0.54349 0.51779 0.0
C761 C 0.01653 0.49936 0.57442 0.0
C762 C 0.99344 0.49735 0.60246 0.0
C763 C 0.99411 0.51091 0.59057 0.0
C764 C 1.00552 0.51186 0.57665 0.0
C765 C 0.01602 0.48583 0.58621 0.0
C766 C 1.00456 0.48485 0.60021 0.0
C767 C 0.02765 0.50003 0.55907 0.0
H768 H 0.04442 0.5615 0.41354 0.0
H769 H 0.01955 0.5527 0.43212 0.0
H770 H 0.05258 0.58651 0.48013 0.0
H771 H 0.07717 0.59588 0.46145 0.0
H772 H 0.98599 0.52094 0.59217 0.0
H773 H 1.00568 0.52233 0.56754 0.0
H774 H 0.02433 0.47598 0.58449 0.0
H775 H 1.00422 0.4742 0.6091 0.0
Dy776 Dy 0.80523 0.77367 0.27575 0.0
Dy777 Dy 0.76523 0.78586 0.27318 0.0
C778 C 0.80204 0.81442 0.26801 0.0
O779 O 0.80003 0.77886 0.3056 0.0
O780 O 0.78047 0.7978 0.30109 0.0
O781 O 0.83447 0.77905 0.28437 0.0
O782 O 0.8205 0.75409 0.26682 0.0
O783 O 0.7624 0.76145 0.28828 0.0
O784 O 0.78305 0.74809 0.27498 0.0
O785 O 0.76659 0.77066 0.24516 0.0
O786 O 0.79769 0.7767 0.24616 0.0
O787 O 0.73602 0.77771 0.26504 0.0
O788 O 0.74812 0.80457 0.27995 0.0
C789 C 0.79152 0.79121 0.31207 0.0
O790 O 0.81133 0.80397 0.27605 0.0
O791 O 0.78431 0.80888 0.26263 0.0
C792 C 0.85098 0.76741 0.26148 0.0
C793 C 0.8795 0.77139 0.23821 0.0
C794 C 0.86098 0.76672 0.23056 0.0
C795 C 0.84693 0.76478 0.24201 0.0
C796 C 0.86939 0.77226 0.26917 0.0
C797 C 0.88345 0.77426 0.25773 0.0
C798 C 0.83628 0.76467 0.27388 0.0
C799 C 0.7682 0.74684 0.28323 0.0
C800 C 0.78136 0.77106 0.23682 0.0
C801 C 0.71827 0.78981 0.28653 0.0
C802 C 0.68923 0.78551 0.30921 0.0
C803 C 0.69252 0.77035 0.29833 0.0
C804 C 0.70681 0.77245 0.28718 0.0
C805 C 0.71505 0.80495 0.29745 0.0
C806 C 0.70082 0.80284 0.30868 0.0
C807 C 0.73296 0.79236 0.27399 0.0
H808 H 0.85725 0.76417 0.21566 0.0
H809 H 0.83289 0.76101 0.2356 0.0
H810 H 0.87294 0.77443 0.28411 0.0
H811 H 0.89745 0.77819 0.26426 0.0
H812 H 0.68409 0.75676 0.29849 0.0
H813 H 0.70877 0.76043 0.27897 0.0
H814 H 0.72345 0.81854 0.29716 0.0
H815 H 0.69863 0.81489 0.31664 0.0
Dy816 Dy 0.79474 0.28167 0.75217 0.0
Dy817 Dy 0.77337 0.29079 0.78717 0.0
C818 C 0.79907 0.32239 0.77136 0.0
O819 O 0.81038 0.27291 0.77596 0.0
O820 O 0.80192 0.29069 0.79936 0.0
O821 O 0.81918 0.2862 0.73853 0.0
O822 O 0.79453 0.26713 0.72507 0.0
O823 O 0.77224 0.261 0.78575 0.0
O824 O 0.77541 0.25548 0.755 0.0
O825 O 0.75238 0.28636 0.76221 0.0
O826 O 0.77178 0.29345 0.74046 0.0
O827 O 0.74993 0.28497 0.80217 0.0
O828 O 0.77272 0.30788 0.81257 0.0
C829 C 0.81285 0.28066 0.79332 0.0
O830 O 0.80763 0.31029 0.76493 0.0
O831 O 0.78269 0.31723 0.77623 0.0
C832 C 0.81091 0.28668 0.7069 0.0
C833 C 0.80508 0.30356 0.67515 0.0
C834 C 0.80338 0.31203 0.69272 0.0
C835 C 0.80622 0.30364 0.70845 0.0
C836 C 0.81338 0.27848 0.68953 0.0
C837 C 0.81056 0.28694 0.6737 0.0
C838 C 0.81065 0.2767 0.72301 0.0
C839 C 0.77053 0.24969 0.77049 0.0
C840 C 0.75526 0.29082 0.74561 0.0
C841 C 0.76068 0.28874 0.83355 0.0
C842 C 0.76611 0.27194 0.86544 0.0
C843 C 0.7751 0.26852 0.84997 0.0
C844 C 0.77244 0.27688 0.83424 0.0
C845 C 0.75162 0.29231 0.84886 0.0
C846 C 0.75431 0.28391 0.8648 0.0
C847 C 0.75809 0.29678 0.81645 0.0
H848 H 0.79942 0.32496 0.69424 0.0
H849 H 0.80405 0.31006 0.72176 0.0
H850 H 0.81675 0.26527 0.68812 0.0
H851 H 0.81185 0.28011 0.66027 0.0
H852 H 0.78392 0.25905 0.84982 0.0
H853 H 0.77947 0.27389 0.82247 0.0
H854 H 0.74248 0.30145 0.84846 0.0
H855 H 0.74726 0.28679 0.87658 0.0
Dy856 Dy 0.76872 0.75771 0.76085 0.0
Dy857 Dy 0.79031 0.79687 0.78323 0.0
C858 C 0.78387 0.76182 0.80428 0.0
O859 O 0.74595 0.77175 0.76612 0.0
O860 O 0.76138 0.79227 0.79085 0.0
O861 O 0.75121 0.73077 0.76033 0.0
O862 O 0.76133 0.73925 0.73522 0.0
O863 O 0.77759 0.80402 0.75677 0.0
O864 O 0.77453 0.77648 0.73922 0.0
O865 O 0.81105 0.78723 0.76684 0.0
O866 O 0.79851 0.75647 0.7628 0.0
O867 O 0.81289 0.82063 0.78659 0.0
O868 O 0.79298 0.81837 0.80605 0.0
C869 C 0.74586 0.78332 0.78092 0.0
O870 O 0.77044 0.75423 0.79111 0.0
O871 O 0.79596 0.77667 0.80215 0.0
C872 C 0.76052 0.70923 0.74049 0.0
C873 C 0.77594 0.67897 0.73421 0.0
C874 C 0.78443 0.69366 0.74792 0.0
C875 C 0.77681 0.70864 0.751 0.0
C876 C 0.75183 0.69459 0.7269 0.0
C877 C 0.75946 0.67947 0.72382 0.0
C878 C 0.75333 0.72559 0.74327 0.0
C879 C 0.77543 0.7941 0.74049 0.0
C880 C 0.81247 0.77036 0.76219 0.0
C881 C 0.80295 0.84715 0.7962 0.0
C882 C 0.79049 0.87829 0.78857 0.0
C883 C 0.79584 0.86744 0.77434 0.0
C884 C 0.80193 0.85197 0.77808 0.0
C885 C 0.79856 0.85853 0.81062 0.0
C886 C 0.79231 0.87397 0.80683 0.0
C887 C 0.80622 0.82923 0.79964 0.0
H888 H 0.79692 0.69351 0.75642 0.0
H889 H 0.78369 0.71984 0.76157 0.0
H890 H 0.73929 0.69494 0.71859 0.0
H891 H 0.75266 0.66834 0.71315 0.0
H892 H 0.79434 0.87029 0.7601 0.0
H893 H 0.80502 0.84336 0.7666 0.0
H894 H 0.79917 0.85502 0.82466 0.0
H895 H 0.78839 0.88221 0.81807 0.0
Dy896 Dy 0.55401 0.54275 0.53407 0.0
Dy897 Dy 0.51524 0.52061 0.51145 0.0
C898 C 0.55152 0.52717 0.4907 0.0
O899 O 0.54499 0.56412 0.51858 0.0
O900 O 0.5144 0.55065 0.51243 0.0
O901 O 0.58173 0.55889 0.53573 0.0
O902 O 0.57025 0.55179 0.56072 0.0
O903 O 0.51091 0.52344 0.54142 0.0
O904 O 0.5328 0.54948 0.55141 0.0
O905 O 0.5298 0.49817 0.51659 0.0
O906 O 0.55016 0.51375 0.54128 0.0
O907 O 0.4911 0.49858 0.50949 0.0
O908 O 0.49385 0.5169 0.48859 0.0
C909 C 0.52822 0.565 0.51279 0.0
O910 O 0.56163 0.53117 0.50698 0.0
O911 O 0.53366 0.52431 0.48932 0.0
C912 C 0.60074 0.55117 0.55923 0.0
C913 C 0.63105 0.53675 0.56846 0.0
C914 C 0.61424 0.52513 0.56057 0.0
C915 C 0.59927 0.53229 0.55595 0.0
C916 C 0.6173 0.56285 0.56746 0.0
C917 C 0.63243 0.55569 0.57201 0.0
C918 C 0.58503 0.55844 0.55351 0.0
C919 C 0.51806 0.53751 0.55402 0.0
C920 C 0.5414 0.49816 0.53129 0.0
C921 C 0.46544 0.50865 0.49928 0.0
C922 C 0.43261 0.51766 0.50686 0.0
C923 C 0.44951 0.52882 0.51516 0.0
C924 C 0.46573 0.5243 0.51148 0.0
C925 C 0.44873 0.49733 0.49098 0.0
C926 C 0.43236 0.50182 0.49475 0.0
C927 C 0.48279 0.50437 0.4957 0.0
H928 H 0.61283 0.51055 0.55722 0.0
H929 H 0.58662 0.52311 0.54941 0.0
H930 H 0.61861 0.57748 0.57006 0.0
H931 H 0.64524 0.56493 0.57805 0.0
H932 H 0.45027 0.54132 0.5242 0.0
H933 H 0.47857 0.53314 0.51805 0.0
H934 H 0.44834 0.48512 0.48163 0.0
H935 H 0.41954 0.49291 0.48823 0.0
Dy936 Dy 0.01203 0.52738 0.03297 0.0
Dy937 Dy 0.05279 0.53223 0.01841 0.0
C938 C 0.01889 0.53838 0.99345 0.0
O939 O 0.01179 0.49984 0.01688 0.0
O940 O 0.04265 0.502 0.01886 0.0
O941 O 0.98278 0.51899 0.02577 0.0
O942 O 0.99415 0.53167 0.05365 0.0
O943 O 0.05663 0.52962 0.04853 0.0
O944 O 0.02769 0.51548 0.05393 0.0
O945 O 0.04913 0.56123 0.02435 0.0
O946 O 0.028 0.5558 0.04496 0.0
O947 O 0.08193 0.54394 0.02223 0.0
O948 O 0.06959 0.52483 0.99784 0.0
C949 C 0.02572 0.49217 0.01511 0.0
O950 O 0.0126 0.543 0.00882 0.0
O951 O 0.03244 0.53025 0.99352 0.0
C952 C 0.96704 0.53879 0.04084 0.0
C953 C 0.94254 0.56211 0.03863 0.0
C954 C 0.95747 0.56423 0.02821 0.0
C955 C 0.96959 0.55273 0.02934 0.0
C956 C 0.95236 0.53674 0.0514 0.0
C957 C 0.94026 0.54827 0.05034 0.0
C958 C 0.97943 0.52624 0.04171 0.0
C959 C 0.04546 0.52017 0.05862 0.0
C960 C 0.04004 0.56731 0.03729 0.0
C961 C 0.0988 0.52277 0.01102 0.0
C962 C 0.12478 0.50132 0.0162 0.0
C963 C 0.11915 0.51053 0.03154 0.0
C964 C 0.10627 0.52107 0.02899 0.0
C965 C 0.10451 0.51369 0.99571 0.0
C966 C 0.11728 0.50305 -0.00174 0.0
C967 C 0.08479 0.53349 0.00797 0.0
H968 H 0.95961 0.57455 0.01888 0.0
H969 H 0.98087 0.5546 0.02106 0.0
H970 H 0.95019 0.52615 0.06044 0.0
H971 H 0.92916 0.54638 0.05883 0.0
H972 H 0.12448 0.50935 0.04555 0.0
H973 H 0.10209 0.52775 0.04112 0.0
H974 H 0.09901 0.51477 0.98172 0.0
H975 H 0.12145 0.49633 0.98613 0.0
H976 H 0.99765 0.22521 0.98715 0.0
H977 H 1.0021 0.1961 0.9957 0.0
H978 H 0.01512 0.18179 0.94072 0.0
H979 H 0.01136 0.21148 0.93228 0.0
H980 H 0.98615 0.16266 0.98632 0.0
H981 H 0.05623 0.16798 0.96821 0.0
H982 H 0.04547 0.18694 0.96813 0.0
H983 H 0.04054 0.16917 0.94863 0.0
C984 C 1.00159 0.21601 0.97679 0.0
C985 C 1.0042 0.22108 0.95894 0.0
C986 C 1.00411 0.19913 0.98176 0.0
C987 C 0.0093 0.18641 0.96912 0.0
C988 C 0.01168 0.19129 0.95114 0.0
H989 H 0.99644 0.07085 0.99337 0.0
H990 H 0.9917 0.09913 0.98228 0.0
C991 C 0.00936 0.20836 0.9462 0.0
C992 C 0.01172 0.16813 0.97488 0.0
H993 H 0.04097 0.1393 0.97608 0.0
C994 C 0.99821 0.15766 0.98405 0.0
C995 C 0.0275 0.1613 0.97238 0.0
C996 C 0.04334 0.172 0.96398 0.0
C997 C 0.99993 0.14101 0.9906 0.0
C998 C 0.01541 0.13386 0.98754 0.0
C999 C 0.02895 0.14434 0.97842 0.0
C1000 C 0.0182 0.11604 0.99418 0.0
C1001 C 0.98532 0.13168 0.00144 0.0
C1002 C 0.03489 0.11535 0.00415 0.0
C1003 C 0.03776 0.09895 0.01023 0.0
C1004 C 0.02403 0.0825 0.0067 0.0
C1005 C 1.00732 0.08314 0.99669 0.0
C1006 C 1.00454 0.09952 0.9904 0.0
H1007 H 0.97793 0.14148 0.00768 0.0
H1008 H 0.97515 0.12098 0.99192 0.0
H1009 H 0.99115 0.12515 0.01274 0.0
H1010 H 0.04582 0.12761 0.00738 0.0
H1011 H 0.05086 0.09922 0.01779 0.0
H1012 H 0.13658 0.8103 0.11448 0.0
H1013 H 0.16207 0.80806 0.13667 0.0
H1014 H 0.12585 0.79877 0.17864 0.0
H1015 H 0.10017 0.80064 0.15642 0.0
H1016 H 0.17821 0.82727 0.16967 0.0
H1017 H 0.14888 0.75584 0.18102 0.0
H1018 H 0.13929 0.76642 0.16269 0.0
H1019 H 0.13431 0.77095 0.18611 0.0
C1020 C 0.13396 0.80784 0.12844 0.0
C1021 C 0.11612 0.80556 0.13349 0.0
C1022 C 0.14864 0.80654 0.14118 0.0
C1023 C 0.146 0.80284 0.15936 0.0
C1024 C 0.12832 0.80114 0.16463 0.0
H1025 H 0.21676 0.78712 0.25559 0.0
H1026 H 0.19175 0.7911 0.23381 0.0
C1027 C 0.1136 0.80239 0.15188 0.0
C1028 C 0.16171 0.80081 0.17268 0.0
H1029 H 0.17576 0.77161 0.20071 0.0
C1030 C 0.17766 0.81505 0.17638 0.0
C1031 C 0.16122 0.78488 0.18153 0.0
C1032 C 0.1451 0.76857 0.17753 0.0
C1033 C 0.19278 0.81399 0.18884 0.0
C1034 C 0.19224 0.79809 0.19776 0.0
C1035 C 0.17631 0.78385 0.19403 0.0
C1036 C 0.20788 0.79599 0.21111 0.0
C1037 C 0.20902 0.83018 0.19269 0.0
C1038 C 0.22548 0.7972 0.20577 0.0
C1039 C 0.23992 0.79495 0.2183 0.0
C1040 C 0.23718 0.7913 0.23652 0.0
C1041 C 0.21953 0.78998 0.24177 0.0
C1042 C 0.20512 0.79222 0.22925 0.0
H1043 H 0.20536 0.84292 0.18907 0.0
H1044 H 0.21484 0.8324 0.20753 0.0
H1045 H 0.21975 0.82758 0.18414 0.0
H1046 H 0.22803 0.79963 0.19179 0.0
H1047 H 0.25322 0.79593 0.21361 0.0
H1048 H 0.50957 0.81428 0.47896 0.0
H1049 H 0.511 0.84601 0.49166 0.0
H1050 H 0.50564 0.86048 0.43612 0.0
H1051 H 0.50489 0.82907 0.42351 0.0
H1052 H 0.53055 0.88589 0.45567 0.0
H1053 H 0.47297 0.87387 0.49768 0.0
H1054 H 0.48995 0.86189 0.50443 0.0
H1055 H 0.47725 0.85598 0.48161 0.0
C1056 C 0.5085 0.82417 0.46944 0.0
C1057 C 0.50705 0.81892 0.45014 0.0
C1058 C 0.5092 0.84242 0.47674 0.0
C1059 C 0.50813 0.85596 0.46497 0.0
C1060 C 0.5065 0.85058 0.44569 0.0
H1061 H 0.49083 0.96643 0.49923 0.0
H1062 H 0.48701 0.93396 0.48738 0.0
C1063 C 0.506 0.83245 0.43843 0.0
C1064 C 0.50954 0.87581 0.47249 0.0
H1065 H 0.4923 0.90399 0.50237 0.0
C1066 C 0.52207 0.88972 0.46584 0.0
C1067 C 0.49841 0.88127 0.48561 0.0
C1068 C 0.48376 0.86749 0.49261 0.0
C1069 C 0.52397 0.90851 0.47196 0.0
C1070 C 0.5134 0.91394 0.48564 0.0
C1071 C 0.50063 0.90008 0.49209 0.0
C1072 C 0.51554 0.93382 0.4934 0.0
C1073 C 0.53704 0.9224 0.46323 0.0
C1074 C 0.53272 0.94481 0.5012 0.0
C1075 C 0.53494 0.96342 0.50789 0.0
C1076 C 0.52003 0.97178 0.50727 0.0
C1077 C 0.5027 0.96067 0.49992 0.0
C1078 C 0.50049 0.94198 0.49313 0.0
H1079 H 0.53946 0.91665 0.4493 0.0
H1080 H 0.53183 0.93484 0.46175 0.0
H1081 H 0.55038 0.92645 0.47213 0.0
H1082 H 0.54454 0.939 0.50221 0.0
H1083 H 0.54851 0.97126 0.5136 0.0
H1084 H 0.49542 0.29452 0.616 0.0
H1085 H 0.46912 0.29116 0.63371 0.0
H1086 H 0.5005 0.2751 0.67881 0.0
H1087 H 0.52688 0.27889 0.66145 0.0
H1088 H 0.44861 0.26288 0.64788 0.0
H1089 H 0.48349 0.31585 0.70603 0.0
H1090 H 0.49311 0.31273 0.68458 0.0
H1091 H 0.49547 0.29814 0.70222 0.0
C1092 C 0.4967 0.29022 0.62967 0.0
C1093 C 0.51336 0.28712 0.63733 0.0
C1094 C 0.48163 0.28832 0.63982 0.0
C1095 C 0.48285 0.2833 0.65786 0.0
C1096 C 0.49927 0.27953 0.6652 0.0
H1097 H 0.41049 0.26203 0.74288 0.0
H1098 H 0.43518 0.26493 0.72332 0.0
C1099 C 0.51435 0.28155 0.65515 0.0
C1100 C 0.46704 0.28199 0.669 0.0
H1101 H 0.45502 0.297 0.7109 0.0
C1102 C 0.45 0.27046 0.6616 0.0
C1103 C 0.46869 0.29192 0.68693 0.0
C1104 C 0.48612 0.3055 0.69534 0.0
C1105 C 0.43486 0.26818 0.67178 0.0
C1106 C 0.43666 0.27782 0.68983 0.0
C1107 C 0.45361 0.2895 0.69714 0.0
C1108 C 0.42126 0.27585 0.70149 0.0
C1109 C 0.41718 0.25508 0.66332 0.0
C1110 C 0.40514 0.28116 0.69591 0.0
C1111 C 0.39097 0.27971 0.70721 0.0
C1112 C 0.39256 0.27295 0.72446 0.0
C1113 C 0.40876 0.26759 0.72992 0.0
C1114 C 0.42292 0.26912 0.71865 0.0
H1115 H 0.41915 0.2457 0.65133 0.0
H1116 H 0.41096 0.24677 0.67378 0.0
H1117 H 0.4074 0.26298 0.65831 0.0
H1118 H 0.40362 0.28674 0.68292 0.0
H1119 H 0.37893 0.28428 0.70258 0.0
H1120 H 0.03179 0.78783 0.63133 0.0
H1121 H 0.03687 0.81469 0.6149 0.0
H1122 H 0.02076 0.84587 0.66057 0.0
H1123 H 0.01616 0.819 0.67738 0.0
H1124 H 0.01256 0.8322 0.60244 0.0
H1125 H 0.06577 0.88182 0.65136 0.0
H1126 H 0.05959 0.85777 0.65377 0.0
H1127 H 0.04557 0.87266 0.66156 0.0
C1128 C 0.0296 0.80047 0.63806 0.0
C1129 C 0.02363 0.80124 0.65574 0.0
C1130 C 0.03247 0.81586 0.62858 0.0
C1131 C 0.02939 0.8325 0.63646 0.0
C1132 C 0.02367 0.83341 0.65428 0.0
H1133 H 0.02832 0.9341 0.58789 0.0
H1134 H 0.02512 0.90994 0.60812 0.0
C1135 C 0.02096 0.81798 0.66389 0.0
C1136 C 0.03118 0.84834 0.62541 0.0
H1137 H 0.05279 0.89336 0.62555 0.0
C1138 C 0.02143 0.84553 0.60754 0.0
C1139 C 0.04265 0.86587 0.63197 0.0
C1140 C 0.05413 0.86972 0.65064 0.0
C1141 C 0.02282 0.85958 0.59613 0.0
C1142 C 0.0344 0.87701 0.60259 0.0
C1143 C 0.04392 0.88 0.62057 0.0
C1144 C 0.03706 0.8921 0.59066 0.0
C1145 C 0.0117 0.8557 0.57725 0.0
C1146 C 0.04515 0.89035 0.57424 0.0
C1147 C 0.04719 0.90422 0.5627 0.0
C1148 C 0.04115 0.92027 0.56724 0.0
C1149 C 0.03333 0.92211 0.58393 0.0
C1150 C 0.03139 0.90823 0.59552 0.0
H1151 H 1.00035 0.84328 0.5761 0.0
H1152 H 1.00591 0.86748 0.57421 0.0
H1153 H 0.02066 0.85342 0.56649 0.0
H1154 H 0.04995 0.8782 0.57033 0.0
H1155 H 0.05367 0.90238 0.55027 0.0
H1156 H 0.47744 0.77627 0.85079 0.0
H1157 H 0.44647 0.7728 0.83517 0.0
H1158 H 0.46223 0.82713 0.81971 0.0
H1159 H 0.49335 0.83032 0.83496 0.0
H1160 H 0.42215 0.79099 0.84389 0.0
H1161 H 0.43367 0.80178 0.7717 0.0
H1162 H 0.45126 0.79797 0.78826 0.0
H1163 H 0.44666 0.82032 0.7884 0.0
C1164 C 0.47448 0.78718 0.8434 0.0
C1165 C 0.4881 0.80331 0.84356 0.0
C1166 C 0.45664 0.7853 0.83464 0.0
C1167 C 0.45174 0.79957 0.82588 0.0
C1168 C 0.4655 0.81561 0.82577 0.0
H1169 H 0.34413 0.81648 0.782 0.0
H1170 H 0.37663 0.82056 0.79342 0.0
C1171 C 0.48342 0.81744 0.83447 0.0
C1172 C 0.43204 0.79808 0.81827 0.0
H1173 H 0.40395 0.80207 0.77979 0.0
C1174 C 0.41827 0.79332 0.82982 0.0
C1175 C 0.42663 0.8012 0.79991 0.0
C1176 C 0.44029 0.80543 0.78628 0.0
C1177 C 0.39962 0.79174 0.82371 0.0
C1178 C 0.39422 0.79481 0.80538 0.0
C1179 C 0.40793 0.79976 0.79385 0.0
C1180 C 0.37439 0.79235 0.7979 0.0
C1181 C 0.38579 0.78704 0.8371 0.0
C1182 C 0.36212 0.77511 0.79627 0.0
C1183 C 0.34356 0.77272 0.78964 0.0
C1184 C 0.33653 0.7875 0.78443 0.0
C1185 C 0.34887 0.80476 0.7859 0.0
C1186 C 0.36755 0.80711 0.79241 0.0
H1187 H 0.3923 0.78957 0.85173 0.0
H1188 H 0.37527 0.79511 0.83572 0.0
H1189 H 0.3788 0.77232 0.83395 0.0
H1190 H 0.36693 0.7634 0.8001 0.0
H1191 H 0.33466 0.75918 0.78872 0.0
H1192 H 0.54443 0.20334 0.15391 0.0
H1193 H 0.54161 0.17293 0.13731 0.0
H1194 H 0.48354 0.16678 0.12501 0.0
H1195 H 0.4865 0.19768 0.14141 0.0
H1196 H 0.5244 0.1383 0.13848 0.0
H1197 H 0.49784 0.16061 0.07339 0.0
H1198 H 0.50646 0.17633 0.09427 0.0
H1199 H 0.48387 0.16165 0.09184 0.0
C1200 C 0.53094 0.19526 0.14821 0.0
C1201 C 0.51565 0.20284 0.14924 0.0
C1202 C 0.52935 0.17786 0.13855 0.0
C1203 C 0.51244 0.16755 0.12941 0.0
C1204 C 0.49685 0.17455 0.13152 0.0
H1205 H 0.50588 0.05587 0.07281 0.0
H1206 H 0.50216 0.08137 0.09454 0.0
C1207 C 0.49846 0.19208 0.14124 0.0
C1208 C 0.51168 0.15022 0.11684 0.0
H1209 H 0.50156 0.13047 0.07148 0.0
C1210 C 0.51925 0.13654 0.12385 0.0
C1211 C 0.50533 0.14793 0.0976 0.0
C1212 C 0.49807 0.16245 0.08873 0.0
C1213 C 0.52083 0.12092 0.1123 0.0
C1214 C 0.51428 0.11853 0.0931 0.0
C1215 C 0.5065 0.1321 0.08615 0.0
C1216 C 0.51623 0.10266 0.07979 0.0
C1217 C 0.53028 0.10756 0.1207 0.0
C1218 C 0.52487 0.10585 0.06379 0.0
C1219 C 0.52677 0.09126 0.05117 0.0
C1220 C 0.52011 0.07296 0.05414 0.0
C1221 C 0.51135 0.06974 0.07009 0.0
C1222 C 0.50932 0.08438 0.08266 0.0
H1223 H 0.53887 0.11382 0.13399 0.0
H1224 H 0.51984 0.09568 0.12364 0.0
H1225 H 0.53905 0.10248 0.11105 0.0
H1226 H 0.53032 0.11973 0.0611 0.0
H1227 H 0.53359 0.09439 0.0391 0.0
H1228 H 0.11453 0.31716 0.36614 0.0
H1229 H 0.142 0.3132 0.3527 0.0
H1230 H 0.10864 0.28298 0.30328 0.0
H1231 H 0.08108 0.28745 0.31651 0.0
H1232 H 0.15518 0.28526 0.34296 0.0
H1233 H 0.14441 0.31629 0.27866 0.0
H1234 H 0.1305 0.31777 0.29722 0.0
H1235 H 0.12592 0.29737 0.28072 0.0
C1236 C 0.11295 0.30975 0.35234 0.0
C1237 C 0.09537 0.30276 0.34246 0.0
C1238 C 0.12882 0.30744 0.34461 0.0
C1239 C 0.12781 0.29806 0.32666 0.0
C1240 C 0.11019 0.29079 0.31686 0.0
H1241 H 0.21277 0.26742 0.26194 0.0
H1242 H 0.18393 0.27063 0.27327 0.0
C1243 C 0.09428 0.29321 0.32456 0.0
C1244 C 0.14512 0.29558 0.31864 0.0
H1245 H 0.16873 0.30119 0.28074 0.0
C1246 C 0.15806 0.28886 0.32937 0.0
C1247 C 0.14929 0.30015 0.30083 0.0
C1248 C 0.1369 0.30846 0.28876 0.0
C1249 C 0.17456 0.28645 0.3229 0.0
C1250 C 0.17873 0.29104 0.30514 0.0
C1251 C 0.16575 0.29758 0.2943 0.0
C1252 C 0.19653 0.28943 0.29782 0.0
C1253 C 0.18729 0.27861 0.3351 0.0
C1254 C 0.21354 0.29915 0.30743 0.0
C1255 C 0.23012 0.29743 0.3009 0.0
C1256 C 0.23039 0.2859 0.28445 0.0
C1257 C 0.21333 0.27641 0.27464 0.0
C1258 C 0.19671 0.27825 0.28115 0.0
H1259 H 0.18013 0.27118 0.34566 0.0
H1260 H 0.19355 0.2691 0.32673 0.0
H1261 H 0.19842 0.28993 0.34256 0.0
H1262 H 0.21405 0.3082 0.32008 0.0
H1263 H 0.2428 0.30508 0.30892 0.0
H1264 H 0.93663 0.03832 0.20601 0.0
H1265 H 0.94481 0.04156 0.17442 0.0
H1266 H 0.99493 0.02559 0.18905 0.0
H1267 H 0.98698 0.0222 0.22018 0.0
H1268 H 0.97604 0.06318 0.16101 0.0
H1269 H 0.97129 0.98919 0.14309 0.0
H1270 H 0.96192 0.99811 0.16291 0.0
H1271 H 0.98595 0.99889 0.16422 0.0
C1272 C 0.94941 0.03554 0.20251 0.0
C1273 C 0.96098 0.02978 0.21575 0.0
C1274 C 0.95408 0.03741 0.18443 0.0
C1275 C 0.97035 0.03347 0.17917 0.0
C1276 C 0.98212 0.02831 0.19254 0.0
H1277 H 0.03203 0.05976 0.08641 0.0
H1278 H 0.01937 0.05983 0.11609 0.0
C1279 C 0.97751 0.02644 0.21047 0.0
C1280 C 0.97519 0.03445 0.1598 0.0
H1281 H 0.98644 0.00898 0.12309 0.0
C1282 C 0.97815 0.05129 0.15264 0.0
C1283 C 0.97777 0.01894 0.14868 0.0
C1284 C 0.9739 0.00022 0.15501 0.0
C1285 C 0.98418 0.05314 0.13503 0.0
C1286 C 0.98761 0.03779 0.12432 0.0
C1287 C 0.98405 0.02084 0.13127 0.0
C1288 C 0.99484 0.03883 0.1059 0.0
C1289 C 0.98663 0.0715 0.12801 0.0
C1290 C 0.9855 0.02691 0.09016 0.0
C1291 C 0.9928 0.02674 0.07319 0.0
C1292 C 0.00973 0.03845 0.07145 0.0
C1293 C 0.01892 0.05065 0.08712 0.0
C1294 C 0.01161 0.05077 0.10415 0.0
H1295 H 0.97845 0.08008 0.13498 0.0
H1296 H 1.00122 0.07889 0.13101 0.0
H1297 H 0.98262 0.06993 0.11278 0.0
H1298 H 0.97259 0.01752 0.09105 0.0
H1299 H 0.98525 0.01717 0.06149 0.0
H1300 H 0.26497 0.6888 0.5157 0.0
H1301 H 0.25624 0.70709 0.49255 0.0
H1302 H 0.27126 0.67147 0.4497 0.0
H1303 H 0.27918 0.65239 0.473 0.0
H1304 H 0.27918 0.72605 0.47372 0.0
H1305 H 0.22469 0.67892 0.42421 0.0
H1306 H 0.23209 0.67318 0.44662 0.0
H1307 H 0.24489 0.67039 0.42739 0.0
C1308 C 0.2661 0.68462 0.50133 0.0
C1309 C 0.27285 0.66926 0.49611 0.0
C1310 C 0.26107 0.69509 0.48809 0.0
C1311 C 0.26302 0.69064 0.46939 0.0
C1312 C 0.26924 0.67493 0.464 0.0
H1313 H 0.2869 0.76665 0.39156 0.0
H1314 H 0.28698 0.74743 0.41633 0.0
C1315 C 0.27389 0.66413 0.47729 0.0
C1316 C 0.26044 0.70362 0.45613 0.0
H1317 H 0.23916 0.70713 0.4138 0.0
C1318 C 0.27023 0.72193 0.46072 0.0
C1319 C 0.2486 0.69832 0.43932 0.0
C1320 C 0.23683 0.67917 0.43417 0.0
C1321 C 0.26886 0.73498 0.44877 0.0
C1322 C 0.2579 0.72944 0.43146 0.0
C1323 C 0.24767 0.71128 0.42705 0.0
C1324 C 0.25777 0.74198 0.41726 0.0
C1325 C 0.27916 0.75458 0.45486 0.0
C1326 C 0.24127 0.74511 0.40942 0.0
C1327 C 0.24114 0.75582 0.39494 0.0
C1328 C 0.25751 0.76348 0.38809 0.0
C1329 C 0.27405 0.76077 0.39642 0.0
C1330 C 0.27415 0.74997 0.41073 0.0
H1331 H 0.28141 0.75768 0.47024 0.0
H1332 H 0.29277 0.75683 0.44983 0.0
H1333 H 0.27178 0.76434 0.44919 0.0
H1334 H 0.22848 0.73895 0.41424 0.0
H1335 H 0.22817 0.75749 0.38864 0.0
H1336 H 0.64739 0.99394 0.69572 0.0
H1337 H 0.63583 0.9835 0.66269 0.0
H1338 H 0.60715 0.02672 0.66219 0.0
H1339 H 0.61824 0.03692 0.69484 0.0
H1340 H 0.59405 0.97447 0.64893 0.0
H1341 H 0.63725 0.02783 0.6153 0.0
H1342 H 0.64474 0.02113 0.63729 0.0
H1343 H 0.63002 0.03675 0.63637 0.0
C1344 C 0.63881 0.00129 0.68841 0.0
C1345 C 0.63356 0.01613 0.69778 0.0
C1346 C 0.63223 0.99531 0.66966 0.0
C1347 C 0.62077 0.00445 0.66014 0.0
C1348 C 0.6161 0.01961 0.66935 0.0
H1349 H 0.53237 0.00712 0.59235 0.0
H1350 H 0.55323 0.99635 0.61396 0.0
C1351 C 0.62236 0.02535 0.688 0.0
C1352 C 0.61228 0.99787 0.64094 0.0
H1353 H 0.60627 0.01553 0.6005 0.0
C1354 C 0.59702 0.98297 0.63798 0.0
C1355 C 0.61639 0.0088 0.62668 0.0
C1356 C 0.63312 0.02443 0.62897 0.0
C1357 C 0.58456 0.98006 0.62183 0.0
C1358 C 0.58742 0.99255 0.60866 0.0
C1359 C 0.60386 0.00606 0.6107 0.0
C1360 C 0.57271 0.99396 0.5944 0.0
C1361 C 0.56801 0.96425 0.61951 0.0
C1362 C 0.57652 0.99586 0.57618 0.0
C1363 C 0.56489 0.00244 0.56413 0.0
C1364 C 0.54916 0.00698 0.57001 0.0
C1365 C 0.5444 0.00356 0.58759 0.0
C1366 C 0.55625 0.99725 0.59983 0.0
H1367 H 0.57132 0.95244 0.62579 0.0
H1368 H 0.55715 0.96846 0.62687 0.0
H1369 H 0.56262 0.9598 0.60466 0.0
H1370 H 0.58913 0.99349 0.5717 0.0
H1371 H 0.56869 0.0049 0.55049 0.0
H1372 H 0.28563 0.33388 0.98667 0.0
H1373 H 0.28762 0.32021 0.95524 0.0
H1374 H 0.2937 0.37312 0.93619 0.0
H1375 H 0.29117 0.38673 0.96746 0.0
H1376 H 0.26972 0.34835 0.91283 0.0
H1377 H 0.33069 0.32083 0.9272 0.0
H1378 H 0.31311 0.31245 0.94113 0.0
H1379 H 0.324 0.33649 0.94403 0.0
C1380 C 0.28754 0.34263 0.97582 0.0
C1381 C 0.28826 0.36142 0.97962 0.0
C1382 C 0.28883 0.33481 0.95783 0.0
C1383 C 0.29115 0.34563 0.94327 0.0
C1384 C 0.292 0.36443 0.94712 0.0
H1385 H 0.31723 0.30951 0.83262 0.0
H1386 H 0.31872 0.32341 0.86483 0.0
C1387 C 0.29057 0.37223 0.96505 0.0
C1388 C 0.29172 0.33727 0.92386 0.0
H1389 H 0.31303 0.31023 0.89755 0.0
C1390 C 0.27929 0.34011 0.90953 0.0
C1391 C 0.30436 0.32671 0.91933 0.0
C1392 C 0.31892 0.32408 0.9337 0.0
C1393 C 0.27886 0.33245 0.89102 0.0
C1394 C 0.29088 0.32114 0.88664 0.0
C1395 C 0.30363 0.31865 0.90087 0.0
C1396 C 0.29033 0.31182 0.86739 0.0
C1397 C 0.26571 0.33688 0.8763 0.0
C1398 C 0.27407 0.30018 0.8582 0.0
C1399 C 0.27315 0.29234 0.83978 0.0
C1400 C 0.28857 0.29566 0.83011 0.0
C1401 C 0.30509 0.30663 0.8396 0.0
C1402 C 0.30596 0.31463 0.85804 0.0
H1403 H 0.26178 0.34982 0.88073 0.0
H1404 H 0.27166 0.33816 0.86303 0.0
H1405 H 0.25306 0.32575 0.87376 0.0
H1406 H 0.26196 0.29729 0.86521 0.0
H1407 H 0.26023 0.2838 0.83306 0.0
H1408 H 0.93023 0.03286 0.32828 0.0
H1409 H 0.94442 0.03083 0.35936 0.0
H1410 H 0.99082 0.01791 0.33582 0.0
H1411 H 0.97695 0.0205 0.3048 0.0
H1412 H 0.95472 0.00414 0.37557 0.0
H1413 H 0.01624 0.05966 0.37447 0.0
H1414 H 0.99677 0.05518 0.35695 0.0
H1415 H 0.01336 0.0415 0.35579 0.0
C1416 C 0.94346 0.0296 0.32971 0.0
C1417 C 0.95252 0.02703 0.31403 0.0
C1418 C 0.95158 0.02841 0.34753 0.0
C1419 C 0.96893 0.0246 0.35013 0.0
C1420 C 0.9777 0.02141 0.33438 0.0
H1421 H 0.01307 0.99497 0.45646 0.0
H1422 H 0.99999 0.99385 0.42415 0.0
C1423 C 0.96968 0.02276 0.31658 0.0
C1424 C 0.97779 0.02402 0.36928 0.0
H1425 H 0.01635 0.04245 0.39982 0.0
C1426 C 0.9682 0.01254 0.38086 0.0
C1427 C 0.9953 0.03513 0.37641 0.0
C1428 C 1.00595 0.0487 0.36534 0.0
C1429 C 0.97558 0.01182 0.3992 0.0
C1430 C 0.99331 0.02255 0.40614 0.0
C1431 C 1.00287 0.03404 0.39455 0.0
C1432 C 1.0018 0.02296 0.42567 0.0
C1433 C 0.964 2e-05 0.41113 0.0
C1434 C 1.00788 0.03972 0.43724 0.0
C1435 C 0.01565 0.04043 0.45559 0.0
C1436 C 0.01755 0.02438 0.46299 0.0
C1437 C 0.01174 0.0076 0.45132 0.0
C1438 C 1.00409 0.00692 0.43284 0.0
H1439 H 0.94927 0.99679 0.40565 0.0
H1440 H 0.96821 0.9869 0.41131 0.0
H1441 H 0.96571 0.00682 0.42563 0.0
H1442 H 1.00639 0.05233 0.43215 0.0
H1443 H 0.01989 0.05364 0.46406 0.0
H1444 H 0.29948 0.6495 0.5977 0.0
H1445 H 0.30721 0.66064 0.63092 0.0
H1446 H 0.33061 0.71467 0.6179 0.0
H1447 H 0.32348 0.7036 0.58494 0.0
H1448 H 0.34566 0.70826 0.65265 0.0
H1449 H 0.26947 0.69024 0.64267 0.0
H1450 H 0.2802 0.67153 0.63877 0.0
H1451 H 0.28267 0.68893 0.62353 0.0
C1452 C 0.30703 0.66352 0.60194 0.0
C1453 C 0.3103 0.67588 0.58885 0.0
C1454 C 0.3114 0.66988 0.62091 0.0
C1455 C 0.31888 0.6886 0.62678 0.0
C1456 C 0.32463 0.70023 0.61366 0.0
H1457 H 0.31016 0.77535 0.70758 0.0
H1458 H 0.32064 0.7563 0.68349 0.0
C1459 C 0.32039 0.6939 0.59481 0.0
C1460 C 0.31675 0.69702 0.64537 0.0
H1461 H 0.28388 0.70775 0.67028 0.0
C1462 C 0.3322 0.7079 0.65675 0.0
C1463 C 0.2991 0.69685 0.65039 0.0
C1464 C 0.28188 0.68641 0.63819 0.0
C1465 C 0.3304 0.7188 0.67295 0.0
C1466 C 0.31274 0.71886 0.67765 0.0
C1467 C 0.2974 0.70758 0.66659 0.0
C1468 C 0.30943 0.73073 0.69368 0.0
C1469 C 0.34729 0.73028 0.6848 0.0
C1470 C 0.2997 0.72262 0.70723 0.0
C1471 C 0.29341 0.73333 0.72058 0.0
C1472 C 0.29677 0.75241 0.72073 0.0
C1473 C 0.30727 0.76068 0.70768 0.0
C1474 C 0.31344 0.74985 0.6941 0.0
H1475 H 0.35968 0.72548 0.68185 0.0
H1476 H 0.34931 0.74466 0.68187 0.0
H1477 H 0.3458 0.73009 0.69978 0.0
H1478 H 0.2964 0.7079 0.70707 0.0
H1479 H 0.28567 0.72654 0.73066 0.0
H1480 H 0.67386 0.03935 0.81428 0.0
H1481 H 0.66161 0.05015 0.84224 0.0
H1482 H 0.60823 0.04006 0.81103 0.0
H1483 H 0.62021 0.02938 0.78326 0.0
H1484 H 0.62054 0.07527 0.83415 0.0
H1485 H 0.62614 0.01529 0.87094 0.0
H1486 H 0.64617 0.02768 0.86229 0.0
H1487 H 0.6271 0.01475 0.84627 0.0
C1488 C 0.65951 0.03942 0.81345 0.0
C1489 C 0.64796 0.03347 0.79665 0.0
C1490 C 0.65258 0.0456 0.82937 0.0
C1491 C 0.63405 0.04585 0.8286 0.0
C1492 C 0.62259 0.04004 0.81182 0.0
H1493 H 0.54958 0.03671 0.89454 0.0
H1494 H 0.57192 0.03569 0.87263 0.0
C1495 C 0.62946 0.03386 0.796 0.0
C1496 C 0.62607 0.0515 0.84524 0.0
H1497 H 0.6101 0.03557 0.884 0.0
C1498 C 0.61856 0.06686 0.84531 0.0
C1499 C 0.62349 0.04036 0.8596 0.0
C1500 C 0.63104 0.02353 0.85988 0.0
C1501 C 0.60767 0.07084 0.85894 0.0
C1502 C 0.6044 0.0592 0.87279 0.0
C1503 C 0.61272 0.04442 0.87328 0.0
C1504 C 0.59075 0.06076 0.88559 0.0
C1505 C 0.59882 0.08675 0.85782 0.0
C1506 C 0.59393 0.07538 0.89989 0.0
C1507 C 0.58117 0.076 0.91245 0.0
C1508 C 0.56517 0.06194 0.91087 0.0
C1509 C 0.56188 0.04761 0.89619 0.0
C1510 C 0.57459 0.04701 0.88369 0.0
H1511 H 0.60125 0.09329 0.84504 0.0
H1512 H 0.58386 0.08214 0.85813 0.0
H1513 H 0.6044 0.0972 0.87004 0.0
H1514 H 0.60644 0.08601 0.90161 0.0
H1515 H 0.58415 0.08707 0.92379 0.0
H1516 H 0.30255 0.33431 0.07823 0.0
H1517 H 0.29828 0.32695 0.10942 0.0
H1518 H 0.26546 0.36635 0.11617 0.0
H1519 H 0.26971 0.37397 0.0846 0.0
H1520 H 0.30757 0.35147 0.14397 0.0
H1521 H 0.23356 0.3172 0.12958 0.0
H1522 H 0.24794 0.32072 0.11126 0.0
H1523 H 0.24085 0.33963 0.12269 0.0
C1524 C 0.29435 0.34147 0.08621 0.0
C1525 C 0.2864 0.35473 0.07869 0.0
C1526 C 0.29198 0.33724 0.10416 0.0
C1527 C 0.28145 0.34595 0.11516 0.0
C1528 C 0.27351 0.35929 0.10788 0.0
H1529 H 0.28188 0.33085 0.23411 0.0
H1530 H 0.28214 0.3451 0.20536 0.0
C1531 C 0.27602 0.36369 0.08985 0.0
C1532 C 0.27904 0.34087 0.1342 0.0
H1533 H 0.24812 0.31719 0.15954 0.0
C1534 C 0.29452 0.34421 0.14748 0.0
C1535 C 0.26206 0.33119 0.13872 0.0
C1536 C 0.2451 0.32681 0.12486 0.0
C1537 C 0.29356 0.33787 0.16494 0.0
C1538 C 0.27663 0.32796 0.16939 0.0
C1539 C 0.26107 0.32489 0.15623 0.0
C1540 C 0.27515 0.31953 0.18702 0.0
C1541 C 0.31085 0.34115 0.17822 0.0
C1542 C 0.2706 0.3004 0.18638 0.0
C1543 C 0.27045 0.29221 0.20277 0.0
C1544 C 0.27468 0.30293 0.22029 0.0
C1545 C 0.27859 0.32212 0.22092 0.0
C1546 C 0.27884 0.33031 0.20446 0.0
H1547 H 0.32325 0.34605 0.17143 0.0
H1548 H 0.31054 0.35168 0.18988 0.0
H1549 H 0.31195 0.32842 0.18411 0.0
H1550 H 0.26766 0.29176 0.17314 0.0
H1551 H 0.26731 0.27742 0.20166 0.0
H1552 H 0.21389 0.91376 0.01368 0.0
H1553 H 0.19487 0.93239 0.02779 0.0
H1554 H 0.24311 0.97452 0.04938 0.0
H1555 H 0.26212 0.95628 0.03501 0.0
H1556 H 0.19473 0.94824 0.06484 0.0
H1557 H 0.21257 0.00064 0.01719 0.0
H1558 H 0.21751 0.9784 0.0135 0.0
H1559 H 0.23177 0.99594 0.03054 0.0
C1560 C 0.22041 0.92696 0.02152 0.0
C1561 C 0.23942 0.93373 0.02301 0.0
C1562 C 0.20957 0.93752 0.0296 0.0
C1563 C 0.21763 0.95491 0.03933 0.0
C1564 C 0.23666 0.96128 0.0416 0.0
H1565 H 0.16489 0.04222 0.07255 0.0
H1566 H 0.18783 0.02389 0.07261 0.0
C1567 C 0.24747 0.95084 0.03338 0.0
C1568 C 0.20607 0.96682 0.04617 0.0
H1569 H 0.19373 0.00657 0.03971 0.0
C1570 C 0.19456 0.96106 0.05947 0.0
C1571 C 0.20596 0.98351 0.0391 0.0
C1572 C 0.21748 0.98997 0.02418 0.0
C1573 C 0.18273 0.97156 0.06578 0.0
C1574 C 0.18236 0.98805 0.0584 0.0
C1575 C 0.19424 0.99401 0.04549 0.0
C1576 C 0.16841 0.99834 0.06207 0.0
C1577 C 0.17065 0.96483 0.08013 0.0
C1578 C 0.14994 0.98992 0.0565 0.0
C1579 C 0.13691 0.00029 0.05649 0.0
C1580 C 0.14217 0.0193 0.06185 0.0
C1581 C 0.16051 0.02758 0.06842 0.0
C1582 C 0.17358 0.01716 0.06843 0.0
H1583 H 0.1767 0.95586 0.08871 0.0
H1584 H 0.16823 0.9764 0.08943 0.0
H1585 H 0.15726 0.95665 0.07299 0.0
H1586 H 0.14571 0.97552 0.05115 0.0
H1587 H 0.1228 0.99356 0.05158 0.0
H1588 H 0.70353 0.67297 0.99407 0.0
H1589 H 0.67592 0.64879 0.99359 0.0
H1590 H 0.70869 0.60941 -0.00063 0.0
H1591 H 0.73643 0.63361 0.0004 0.0
H1592 H 0.66107 0.61742 0.97089 0.0
H1593 H 0.67882 0.60097 0.04177 0.0
H1594 H 0.69144 0.62085 0.03299 0.0
H1595 H 0.69541 0.59866 0.02625 0.0
C1596 C 0.70491 0.65917 0.99519 0.0
C1597 C 0.72229 0.65533 0.99746 0.0
C1598 C 0.68907 0.64532 0.99491 0.0
C1599 C 0.69018 0.62729 0.99684 0.0
C1600 C 0.70745 0.62327 -0.00161 0.0
H1601 H 0.59871 0.53253 0.00384 0.0
H1602 H 0.62879 0.55043 -0.00167 0.0
C1603 C 0.72333 0.63714 -0.00116 0.0
C1604 C 0.67321 0.61289 0.99738 0.0
H1605 H 0.65152 0.58291 0.02479 0.0
C1606 C 0.65906 0.60982 0.98264 0.0
C1607 C 0.67052 0.60288 0.01271 0.0
C1608 C 0.68476 0.60608 0.02941 0.0
C1609 C 0.64227 0.59733 0.98295 0.0
C1610 C 0.63948 0.58766 -0.00159 0.0
C1611 C 0.65377 0.59023 0.01287 0.0
C1612 C 0.62122 0.57643 0.00076 0.0
C1613 C 0.62748 0.59476 0.96686 0.0
C1614 C 0.6071 0.58512 0.00399 0.0
C1615 C 0.59012 0.57505 0.00731 0.0
C1616 C 0.58677 0.55597 0.0074 0.0
C1617 C 0.60083 0.54717 0.0038 0.0
C1618 C 0.618 0.55738 0.00069 0.0
H1619 H 0.63307 0.59962 0.95424 0.0
H1620 H 0.62014 0.58013 0.96351 0.0
H1621 H 0.61742 0.6027 0.97068 0.0
H1622 H 0.60933 0.59981 0.0043 0.0
H1623 H 0.57961 0.5823 0.00991 0.0
H1624 H 0.68019 0.5112 0.26519 0.0
H1625 H 0.69674 0.48702 0.26208 0.0
H1626 H 0.65 0.4481 0.27493 0.0
H1627 H 0.63322 0.47229 0.27797 0.0
H1628 H 0.705 0.46651 0.29033 0.0
H1629 H 0.66433 0.42118 0.22871 0.0
H1630 H 0.66274 0.44454 0.23439 0.0
H1631 H 0.65154 0.42698 0.24702 0.0
C1632 C 0.67328 0.49745 0.26709 0.0
C1633 C 0.65532 0.49371 0.27179 0.0
C1634 C 0.68282 0.48363 0.26536 0.0
C1635 C 0.67462 0.46568 0.26813 0.0
C1636 C 0.65654 0.46177 0.27242 0.0
H1637 H 0.71783 0.36722 0.26651 0.0
H1638 H 0.69848 0.38908 0.26913 0.0
C1639 C 0.64697 0.47563 0.2742 0.0
C1640 C 0.68546 0.45146 0.26755 0.0
H1641 H 0.68811 0.41069 0.24422 0.0
C1642 C 0.70131 0.45432 0.28023 0.0
C1643 C 0.68057 0.43544 0.2545 0.0
C1644 C 0.66395 0.43183 0.24026 0.0
C1645 C 0.71238 0.44166 0.28024 0.0
C1646 C 0.70776 0.42584 0.2669 0.0
C1647 C 0.69173 0.42282 0.25441 0.0
C1648 C 0.71961 0.41253 0.26545 0.0
C1649 C 0.72875 0.44523 0.29481 0.0
C1650 C 0.73792 0.41831 0.26231 0.0
C1651 C 0.74909 0.40588 0.26101 0.0
C1652 C 0.7422 0.38725 0.2626 0.0
C1653 C 0.72376 0.38146 0.26552 0.0
C1654 C 0.7126 0.39394 0.26687 0.0
H1655 H 0.72722 0.45448 0.30711 0.0
H1656 H 0.73096 0.4323 0.29948 0.0
H1657 H 0.7411 0.45198 0.28887 0.0
H1658 H 0.74361 0.43248 0.26076 0.0
H1659 H 0.76322 0.41096 0.25893 0.0
H1660 H 0.83021 0.40411 0.46201 0.0
H1661 H 0.86202 0.42181 0.4669 0.0
H1662 H 0.84691 0.46391 0.50222 0.0
H1663 H 0.81523 0.44667 0.49718 0.0
H1664 H 0.86971 0.47801 0.47797 0.0
H1665 H 0.89696 0.42706 0.51442 0.0
H1666 H 0.88491 0.41818 0.49176 0.0
H1667 H 0.87282 0.42579 0.50991 0.0
C1668 C 0.83364 0.41718 0.47073 0.0
C1669 C 0.82014 0.42389 0.47927 0.0
C1670 C 0.85184 0.4272 0.47363 0.0
C1671 C 0.85685 0.444 0.48521 0.0
C1672 C 0.84335 0.45093 0.49332 0.0
H1673 H 0.96633 0.50226 0.53486 0.0
H1674 H 0.93416 0.48569 0.52946 0.0
C1675 C 0.82521 0.44101 0.4904 0.0
C1676 C 0.87612 0.45453 0.48895 0.0
H1677 H 0.91867 0.45267 0.50757 0.0
C1678 C 0.88042 0.47248 0.48444 0.0
C1679 C 0.88998 0.4474 0.49775 0.0
C1680 C 0.88597 0.42862 0.50392 0.0
C1681 C 0.89827 0.48341 0.48824 0.0
C1682 C 0.91226 0.47605 0.49641 0.0
C1683 C 0.90793 0.45821 0.50118 0.0
C1684 C 0.93154 0.48653 0.49978 0.0
C1685 C 0.90192 0.50286 0.48379 0.0
C1686 C 0.9407 0.49238 0.48488 0.0
C1687 C 0.95899 0.50191 0.4879 0.0
C1688 C 0.96855 0.50562 0.5059 0.0
C1689 C 0.95935 0.4997 0.52084 0.0
C1690 C 0.94099 0.49019 0.51778 0.0
H1691 H 0.88924 0.50797 0.48276 0.0
H1692 H 0.91217 0.51218 0.49449 0.0
H1693 H 0.90734 0.50343 0.4702 0.0
H1694 H 0.93377 0.48934 0.47083 0.0
H1695 H 0.96568 0.50612 0.47605 0.0
H1696 H 0.35436 0.04333 0.26571 0.0
H1697 H 0.33449 0.06229 0.25444 0.0
H1698 H 0.38025 0.10927 0.26312 0.0
H1699 H 0.4003 0.09036 0.27416 0.0
H1700 H 0.32793 0.09216 0.27515 0.0
H1701 H 0.35668 0.11222 0.21118 0.0
H1702 H 0.36173 0.09342 0.2224 0.0
H1703 H 0.37349 0.1166 0.23121 0.0
C1704 C 0.36026 0.05765 0.26499 0.0
C1705 C 0.37889 0.06539 0.27082 0.0
C1706 C 0.34889 0.06843 0.25853 0.0
C1707 C 0.35596 0.08709 0.25771 0.0
C1708 C 0.37462 0.09479 0.26324 0.0
H1709 H 0.3185 0.1836 0.24791 0.0
H1710 H 0.33508 0.15952 0.24974 0.0
C1711 C 0.38602 0.084 0.26967 0.0
C1712 C 0.34357 0.09882 0.2526 0.0
H1713 H 0.3367 0.12971 0.22338 0.0
C1714 C 0.32964 0.10017 0.26365 0.0
C1715 C 0.34591 0.10922 0.23761 0.0
C1716 C 0.36015 0.10769 0.2248 0.0
C1717 C 0.31844 0.11229 0.26064 0.0
C1718 C 0.3211 0.12307 0.24597 0.0
C1719 C 0.3347 0.12135 0.23458 0.0
C1720 C 0.31093 0.1373 0.24327 0.0
C1721 C 0.30445 0.11409 0.27371 0.0
C1722 C 0.29189 0.13271 0.23861 0.0
C1723 C 0.28233 0.14647 0.2377 0.0
C1724 C 0.29172 0.16497 0.24144 0.0
C1725 C 0.31087 0.16945 0.24534 0.0
C1726 C 0.32037 0.15573 0.24623 0.0
H1727 H 0.30652 0.10737 0.28632 0.0
H1728 H 0.30497 0.12873 0.27809 0.0
H1729 H 0.29059 0.10757 0.26648 0.0
H1730 H 0.28442 0.11851 0.23602 0.0
H1731 H 0.26759 0.14264 0.23466 0.0
H1732 H 0.34065 0.1817 0.51484 0.0
H1733 H 0.3647 0.16479 0.51834 0.0
H1734 H 0.32585 0.11934 0.53363 0.0
H1735 H 0.30184 0.13596 0.53 0.0
H1736 H 0.37859 0.14882 0.54857 0.0
H1737 H 0.34585 0.09589 0.48942 0.0
H1738 H 0.33922 0.1173 0.49354 0.0
H1739 H 0.33102 0.09892 0.50667 0.0
C1740 C 0.33729 0.16818 0.51914 0.0
C1741 C 0.31927 0.16016 0.52201 0.0
C1742 C 0.35104 0.15851 0.52109 0.0
C1743 C 0.34702 0.14061 0.52586 0.0
C1744 C 0.32923 0.13293 0.52951 0.0
H1745 H 0.40216 0.05335 0.53979 0.0
H1746 H 0.38095 0.07327 0.5376 0.0
C1747 C 0.31552 0.14254 0.52755 0.0
C1748 C 0.3612 0.12974 0.52673 0.0
H1749 H 0.37044 0.08975 0.50849 0.0
C1750 C 0.37689 0.13598 0.53971 0.0
C1751 C 0.35904 0.11297 0.51515 0.0
C1752 C 0.34297 0.10592 0.50028 0.0
C1753 C 0.39011 0.12562 0.54189 0.0
C1754 C 0.38778 0.10869 0.5305 0.0
C1755 C 0.37223 0.10264 0.5173 0.0
C1756 C 0.40106 0.09683 0.53225 0.0
C1757 C 0.40613 0.13263 0.55681 0.0
C1758 C 0.41949 0.10328 0.52981 0.0
C1759 C 0.43177 0.09195 0.53128 0.0
C1760 C 0.4259 0.07378 0.53505 0.0
C1761 C 0.40735 0.06732 0.53725 0.0
C1762 C 0.39512 0.07868 0.53584 0.0
H1763 H 0.4034 0.14299 0.56743 0.0
H1764 H 0.40953 0.12128 0.56385 0.0
H1765 H 0.41823 0.13922 0.5504 0.0
H1766 H 0.42438 0.11707 0.52661 0.0
H1767 H 0.44591 0.09752 0.52962 0.0
H1768 H 0.6393 0.61113 0.3046 0.0
H1769 H 0.66258 0.63932 0.30399 0.0
H1770 H 0.69919 0.60767 0.28401 0.0
H1771 H 0.67605 0.57945 0.28444 0.0
H1772 H 0.69928 0.65085 0.32217 0.0
H1773 H 0.697 0.64351 0.24534 0.0
H1774 H 0.67938 0.63049 0.25694 0.0
H1775 H 0.70078 0.62411 0.25604 0.0
C1776 C 0.65231 0.61012 0.30012 0.0
C1777 C 0.65569 0.59294 0.29445 0.0
C1778 C 0.66562 0.62628 0.29979 0.0
C1779 C 0.68252 0.62563 0.29367 0.0
C1780 C 0.68612 0.60853 0.28845 0.0
H1781 H 0.77444 0.71271 0.27392 0.0
H1782 H 0.75489 0.68295 0.27754 0.0
C1783 C 0.67287 0.59238 0.28882 0.0
C1784 C 0.69634 0.64285 0.29266 0.0
H1785 H 0.71927 0.6682 0.26234 0.0
C1786 C 0.70365 0.65465 0.3091 0.0
C1787 C 0.70214 0.64776 0.27561 0.0
C1788 C 0.69435 0.63591 0.25743 0.0
C1789 C 0.71665 0.67117 0.30895 0.0
C1790 C 0.7222 0.67626 0.29185 0.0
C1791 C 0.71507 0.66431 0.27545 0.0
C1792 C 0.73463 0.69429 0.29052 0.0
C1793 C 0.72448 0.6829 0.32717 0.0
C1794 C 0.72975 0.71057 0.29651 0.0
C1795 C 0.74089 0.72754 0.29452 0.0
C1796 C 0.75716 0.7287 0.28633 0.0
C1797 C 0.76209 0.71237 0.28038 0.0
C1798 C 0.7509 0.69533 0.28241 0.0
H1799 H 0.7234 0.6747 0.33898 0.0
H1800 H 0.73904 0.68983 0.32707 0.0
H1801 H 0.71669 0.69354 0.32962 0.0
H1802 H 0.71707 0.71017 0.30237 0.0
H1803 H 0.7365 0.73977 0.29912 0.0
H1804 H 0.91608 0.47539 0.81304 0.0
H1805 H 0.89735 0.44393 0.80834 0.0
H1806 H 0.84861 0.46433 0.80965 0.0
H1807 H 0.86713 0.4957 0.81387 0.0
H1808 H 0.87093 0.42314 0.82674 0.0
H1809 H 0.84105 0.43543 0.75804 0.0
H1810 H 0.86058 0.45122 0.7714 0.0
H1811 H 0.83793 0.45096 0.7771 0.0
C1812 C 0.90141 0.47315 0.81271 0.0
C1813 C 0.89303 0.48796 0.81351 0.0
C1814 C 0.89073 0.4552 0.80997 0.0
C1815 C 0.8716 0.45188 0.80812 0.0
C1816 C 0.86333 0.46664 0.81051 0.0
H1817 H 0.78584 0.35157 0.78427 0.0
H1818 H 0.8032 0.38327 0.79348 0.0
C1819 C 0.87394 0.48454 0.81302 0.0
C1820 C 0.86025 0.43311 0.80247 0.0
H1821 H 0.82867 0.40688 0.76798 0.0
C1822 C 0.8617 0.41957 0.81391 0.0
C1823 C 0.84832 0.42851 0.78561 0.0
C1824 C 0.84696 0.44223 0.77222 0.0
C1825 C 0.85135 0.40153 0.809 0.0
C1826 C 0.83936 0.39704 0.79227 0.0
C1827 C 0.83783 0.41053 0.78087 0.0
C1828 C 0.82875 0.37818 0.78607 0.0
C1829 C 0.85319 0.38733 0.82166 0.0
C1830 C 0.83738 0.36511 0.77846 0.0
C1831 C 0.82753 0.34709 0.77303 0.0
C1832 C 0.80889 0.34185 0.77524 0.0
C1833 C 0.80018 0.35516 0.78242 0.0
C1834 C 0.81005 0.37324 0.78773 0.0
H1835 H 0.86133 0.39348 0.83522 0.0
H1836 H 0.83948 0.37968 0.82419 0.0
H1837 H 0.86002 0.37732 0.81487 0.0
H1838 H 0.8518 0.36882 0.77693 0.0
H1839 H 0.83467 0.3372 0.76754 0.0
H1840 H 0.05581 0.85886 0.11962 0.0
H1841 H 0.05296 0.8869 0.10681 0.0
H1842 H 0.06239 0.86372 0.05325 0.0
H1843 H 0.06519 0.83544 0.06605 0.0
H1844 H 0.0817 0.9011 0.06261 0.0
H1845 H 0.00904 0.8937 0.07313 0.0
H1846 H 0.02369 0.89282 0.09371 0.0
H1847 H 0.02028 0.87511 0.0744 0.0
C1848 C 0.05735 0.85963 0.1051 0.0
C1849 C 0.0607 0.8446 0.09397 0.0
C1850 C 0.05557 0.87578 0.0977 0.0
C1851 C 0.05713 0.87764 0.07885 0.0
C1852 C 0.06099 0.86285 0.06778 0.0
H1853 H 0.02115 0.96217 0.01859 0.0
H1854 H 0.0253 0.93357 0.02957 0.0
C1855 C 0.06261 0.84657 0.07516 0.0
C1856 C 0.05469 0.8949 0.07084 0.0
H1857 H 0.02424 0.92196 0.06427 0.0
C1858 C 0.0691 0.90558 0.06298 0.0
C1859 C 0.03823 0.90098 0.07095 0.0
C1860 C 0.02184 0.89001 0.07833 0.0
C1861 C 0.06767 0.92205 0.05577 0.0
C1862 C 0.05138 0.92839 0.05636 0.0
C1863 C 0.03683 0.91747 0.06383 0.0
C1864 C 0.04912 0.94614 0.0493 0.0
C1865 C 0.08364 0.93238 0.04727 0.0
C1866 C 0.06093 0.96317 0.05661 0.0
C1867 C 0.05852 0.97967 0.05037 0.0
C1868 C 0.0442 0.97986 0.03651 0.0
C1869 C 0.03242 0.9628 0.02914 0.0
C1870 C 0.03476 0.9463 0.03551 0.0
H1871 H 0.09284 0.9235 0.04319 0.0
H1872 H 0.07893 0.93819 0.03485 0.0
H1873 H 0.0917 0.94384 0.0576 0.0
H1874 H 0.07193 0.96379 0.06746 0.0
H1875 H 0.06789 0.99236 0.05657 0.0
H1876 H 0.96253 0.26001 0.88638 0.0
H1877 H 0.93671 0.26113 0.86377 0.0
H1878 H 0.9089 0.27946 0.9082 0.0
H1879 H 0.93449 0.27847 0.93079 0.0
H1880 H 0.89883 0.24327 0.86026 0.0
H1881 H 0.90851 0.31854 0.87328 0.0
H1882 H 0.92583 0.30711 0.88105 0.0
H1883 H 0.90669 0.30737 0.89381 0.0
C1884 C 0.95091 0.26423 0.89139 0.0
C1885 C 0.95079 0.26921 0.91055 0.0
C1886 C 0.9361 0.26486 0.87839 0.0
C1887 C 0.92086 0.27069 0.88414 0.0
C1888 C 0.92056 0.27528 0.90326 0.0
H1889 H 0.8198 0.29067 0.83115 0.0
H1890 H 0.84555 0.28747 0.85245 0.0
C1891 C 0.93526 0.27457 0.91624 0.0
C1892 C 0.90529 0.27201 0.8703 0.0
H1893 H 0.88127 0.30199 0.85466 0.0
C1894 C 0.89508 0.25614 0.85895 0.0
C1895 C 0.90022 0.28875 0.86853 0.0
C1896 C 0.91096 0.30646 0.87967 0.0
C1897 C 0.87976 0.25646 0.84638 0.0
C1898 C 0.87464 0.27322 0.84463 0.0
C1899 C 0.88499 0.2891 0.85589 0.0
C1900 C 0.85858 0.27465 0.83141 0.0
C1901 C 0.86884 0.23864 0.83557 0.0
C1902 C 0.85711 0.26865 0.81227 0.0
C1903 C 0.84224 0.27036 0.79999 0.0
C1904 C 0.8285 0.27836 0.80643 0.0
C1905 C 0.83006 0.28446 0.82557 0.0
C1906 C 0.84486 0.28265 0.83784 0.0
H1907 H 0.871 0.22671 0.84241 0.0
H1908 H 0.85401 0.2382 0.83395 0.0
H1909 H 0.87329 0.23721 0.82155 0.0
H1910 H 0.86764 0.26289 0.8067 0.0
H1911 H 0.84169 0.26564 0.78537 0.0
H1912 H 0.57473 0.24446 0.56292 0.0
H1913 H 0.56996 0.21139 0.5559 0.0
H1914 H 0.53331 0.20357 0.5976 0.0
H1915 H 0.53803 0.23695 0.60481 0.0
H1916 H 0.57726 0.18578 0.57852 0.0
H1917 H 0.50333 0.169 0.55268 0.0
H1918 H 0.51731 0.19207 0.55549 0.0
H1919 H 0.50959 0.18191 0.57538 0.0
C1920 C 0.56552 0.23584 0.57062 0.0
C1921 C 0.55672 0.2437 0.58446 0.0
C1922 C 0.56284 0.21676 0.56656 0.0
C1923 C 0.5511 0.20468 0.57597 0.0
C1924 C 0.54222 0.2124 0.58981 0.0
H1925 H 0.51843 0.08372 0.56311 0.0
H1926 H 0.52211 0.11648 0.57252 0.0
C1927 C 0.54501 0.2316 0.59401 0.0
C1928 C 0.54867 0.1842 0.57145 0.0
H1929 H 0.51718 0.14413 0.55461 0.0
C1930 C 0.56409 0.17672 0.57329 0.0
C1931 C 0.53154 0.1721 0.56467 0.0
C1932 C 0.51448 0.1791 0.56176 0.0
C1933 C 0.56288 0.15777 0.56878 0.0
C1934 C 0.54581 0.14568 0.5616 0.0
C1935 C 0.53033 0.15315 0.55998 0.0
C1936 C 0.54372 0.12538 0.55575 0.0
C1937 C 0.57995 0.15088 0.57229 0.0
C1938 C 0.5544 0.11899 0.54292 0.0
C1939 C 0.5524 0.10009 0.53756 0.0
C1940 C 0.5395 0.08686 0.54469 0.0
C1941 C 0.52863 0.0933 0.55733 0.0
C1942 C 0.53068 0.11218 0.56272 0.0
H1943 H 0.5901 0.16029 0.58302 0.0
H1944 H 0.57683 0.13708 0.57687 0.0
H1945 H 0.58637 0.15003 0.55928 0.0
H1946 H 0.56422 0.12864 0.53679 0.0
H1947 H 0.5609 0.09586 0.52765 0.0
H1948 H 0.57024 0.78559 0.42756 0.0
H1949 H 0.59659 0.78815 0.41002 0.0
H1950 H 0.56202 0.75462 0.36295 0.0
H1951 H 0.53561 0.75244 0.3802 0.0
H1952 H 0.61364 0.76395 0.39427 0.0
H1953 H 0.58509 0.79776 0.33864 0.0
H1954 H 0.57478 0.79458 0.35972 0.0
H1955 H 0.57053 0.77608 0.34101 0.0
C1956 C 0.56825 0.77871 0.41349 0.0
C1957 C 0.55072 0.76892 0.40528 0.0
C1958 C 0.58336 0.7802 0.40343 0.0
C1959 C 0.58135 0.77197 0.38491 0.0
C1960 C 0.56396 0.7616 0.37697 0.0
H1961 H 0.65442 0.76373 0.30028 0.0
H1962 H 0.62897 0.7603 0.31901 0.0
C1963 C 0.54884 0.76022 0.38695 0.0
C1964 C 0.59736 0.77418 0.37395 0.0
H1965 H 0.61196 0.78763 0.33338 0.0
C1966 C 0.61327 0.76924 0.38102 0.0
C1967 C 0.59708 0.78115 0.35661 0.0
C1968 C 0.58104 0.78787 0.34862 0.0
C1969 C 0.62857 0.77064 0.37112 0.0
C1970 C 0.62815 0.77736 0.3537 0.0
C1971 C 0.61231 0.78238 0.34666 0.0
C1972 C 0.64395 0.77927 0.34252 0.0
C1973 C 0.64494 0.7645 0.37921 0.0
C1974 C 0.66093 0.79121 0.34932 0.0
C1975 C 0.67557 0.79322 0.3386 0.0
C1976 C 0.67364 0.78331 0.32078 0.0
C1977 C 0.65658 0.77139 0.31401 0.0
C1978 C 0.64193 0.76949 0.32468 0.0
H1979 H 0.64154 0.75572 0.39029 0.0
H1980 H 0.65053 0.75682 0.36827 0.0
H1981 H 0.65578 0.7767 0.38539 0.0
H1982 H 0.66283 0.79916 0.36288 0.0
H1983 H 0.68847 0.80244 0.34438 0.0
H1984 H 0.04154 0.24789 0.3702 0.0
H1985 H 0.03959 0.21825 0.38237 0.0
H1986 H 0.05076 0.24615 0.43825 0.0
H1987 H 0.05276 0.27534 0.42645 0.0
H1988 H 0.06643 0.20613 0.41168 0.0
H1989 H 0.99868 0.2087 0.4334 0.0
H1990 H 0.00824 0.22131 0.4155 0.0
H1991 H 0.01606 0.22958 0.43954 0.0
C1992 C 0.04394 0.24769 0.38504 0.0
C1993 C 0.04708 0.26403 0.39732 0.0
C1994 C 0.04275 0.23075 0.39199 0.0
C1995 C 0.04474 0.22996 0.41128 0.0
C1996 C 0.04892 0.24635 0.42337 0.0
H1997 H 0.03464 0.16039 0.49684 0.0
H1998 H 0.03793 0.18454 0.47678 0.0
C1999 C 0.05005 0.26308 0.41653 0.0
C2000 C 0.04151 0.21226 0.41928 0.0
H2001 H 0.01368 0.18782 0.4468 0.0
C2002 C 0.05474 0.20188 0.41906 0.0
C2003 C 0.02631 0.20678 0.42904 0.0
C2004 C 0.0114 0.21706 0.42932 0.0
C2005 C 0.05357 0.1867 0.42906 0.0
C2006 C 0.03867 0.18164 0.4394 0.0
C2007 C 0.02516 0.19168 0.43902 0.0
C2008 C 0.03722 0.16663 0.45148 0.0
C2009 C 0.06873 0.17674 0.42923 0.0
C2010 C 0.03562 0.14836 0.44404 0.0
C2011 C 0.03357 0.13438 0.45553 0.0
C2012 C 0.03298 0.13831 0.47476 0.0
C2013 C 0.03471 0.15667 0.48212 0.0
C2014 C 0.03672 0.17059 0.47064 0.0
H2015 H 0.08099 0.18459 0.42388 0.0
H2016 H 0.07276 0.17399 0.4435 0.0
H2017 H 0.06387 0.16339 0.42029 0.0
H2018 H 0.03557 0.14483 0.42926 0.0
H2019 H 0.032 0.12043 0.44923 0.0
H2020 H 0.56705 0.24974 0.21521 0.0
H2021 H 0.59753 0.25025 0.23103 0.0
H2022 H 0.62265 0.28607 0.19373 0.0
H2023 H 0.59273 0.28567 0.17812 0.0
H2024 H 0.63835 0.2569 0.1957 0.0
H2025 H 0.63546 0.28929 0.26685 0.0
H2026 H 0.61719 0.26971 0.25801 0.0
H2027 H 0.61932 0.29032 0.24733 0.0
C2028 C 0.57904 0.25806 0.21067 0.0
C2029 C 0.57718 0.26763 0.19526 0.0
C2030 C 0.59657 0.25831 0.21972 0.0
C2031 C 0.61267 0.2682 0.21366 0.0
C2032 C 0.61067 0.27821 0.19874 0.0
H2033 H 0.72694 0.3033 0.26173 0.0
H2034 H 0.69462 0.29983 0.25093 0.0
C2035 C 0.59336 0.27799 0.1898 0.0
C2036 C 0.63168 0.2677 0.22191 0.0
H2037 H 0.66243 0.2799 0.26146 0.0
C2038 C 0.64351 0.2618 0.21014 0.0
C2039 C 0.63874 0.27428 0.24071 0.0
C2040 C 0.62714 0.28141 0.254 0.0
C2041 C 0.66193 0.2624 0.21646 0.0
C2042 C 0.66902 0.26892 0.23527 0.0
C2043 C 0.65717 0.27475 0.2471 0.0
C2044 C 0.68884 0.27064 0.24259 0.0
C2045 C 0.67386 0.25665 0.20266 0.0
C2046 C 0.69672 0.25539 0.24191 0.0
C2047 C 0.7154 0.25733 0.24816 0.0
C2048 C 0.72683 0.27459 0.25533 0.0
C2049 C 0.71879 0.28976 0.25628 0.0
C2050 C 0.70015 0.28779 0.25012 0.0
H2051 H 0.66778 0.25623 0.1881 0.0
H2052 H 0.68763 0.26611 0.20478 0.0
H2053 H 0.67552 0.24273 0.20462 0.0
H2054 H 0.68842 0.24191 0.23653 0.0
H2055 H 0.72091 0.24528 0.24724 0.0
H2056 H 0.53439 0.84421 0.90877 0.0
H2057 H 0.53131 0.87286 0.92526 0.0
H2058 H 0.55223 0.90181 0.88108 0.0
H2059 H 0.55529 0.87286 0.86425 0.0
H2060 H 0.56861 0.91874 0.91822 0.0
H2061 H 0.49303 0.90244 0.9126 0.0
H2062 H 0.50298 0.88494 0.92103 0.0
H2063 H 0.50528 0.89016 0.89777 0.0
C2064 C 0.53821 0.85659 0.90238 0.0
C2065 C 0.54501 0.85611 0.88505 0.0
C2066 C 0.53637 0.87303 0.91187 0.0
C2067 C 0.54131 0.88957 0.90441 0.0
C2068 C 0.54821 0.88924 0.88713 0.0
H2069 H 0.51581 0.99123 0.9536 0.0
H2070 H 0.51884 0.96534 0.93193 0.0
C2071 C 0.54991 0.87266 0.87748 0.0
C2072 C 0.53965 0.90709 0.91504 0.0
H2073 H 0.50892 0.92775 0.93481 0.0
C2074 C 0.55553 0.92077 0.92169 0.0
C2075 C 0.52261 0.90994 0.91953 0.0
C2076 C 0.50496 0.89619 0.91224 0.0
C2077 C 0.55489 0.9368 0.93315 0.0
C2078 C 0.53791 0.93927 0.9383 0.0
C2079 C 0.52197 0.92589 0.93109 0.0
C2080 C 0.53644 0.9554 0.95143 0.0
C2081 C 0.57243 0.95101 0.93962 0.0
C2082 C 0.54516 0.95849 0.96977 0.0
C2083 C 0.54337 0.97325 0.98225 0.0
C2084 C 0.5328 0.98538 0.97678 0.0
C2085 C 0.5241 0.98227 0.95838 0.0
C2086 C 0.5258 0.96741 0.94593 0.0
H2087 H 0.58319 0.94962 0.93061 0.0
H2088 H 0.57022 0.96505 0.93985 0.0
H2089 H 0.57751 0.94924 0.95393 0.0
H2090 H 0.55316 0.94929 0.97457 0.0
H2091 H 0.55025 0.97507 0.99626 0.0
H2092 H 0.95114 0.75747 0.67218 0.0
H2093 H 0.92311 0.75936 0.6855 0.0
H2094 H 0.94633 0.74754 0.73777 0.0
H2095 H 0.97476 0.74619 0.72455 0.0
H2096 H 0.89754 0.7371 0.69874 0.0
H2097 H 0.92951 0.79127 0.75679 0.0
H2098 H 0.94204 0.78467 0.73849 0.0
H2099 H 0.9384 0.77125 0.7574 0.0
C2100 C 0.95038 0.75523 0.68653 0.0
C2101 C 0.96549 0.75172 0.6972 0.0
C2102 C 0.93417 0.75632 0.69421 0.0
C2103 C 0.93234 0.754 0.71291 0.0
C2104 C 0.94726 0.74997 0.7235 0.0
H2105 H 0.8223 0.73757 0.75288 0.0
H2106 H 0.85071 0.73289 0.74178 0.0
C2107 C 0.96358 0.74898 0.71582 0.0
C2108 C 0.91484 0.75572 0.72101 0.0
H2109 H 0.89809 0.77771 0.7567 0.0
C2110 C 0.89777 0.746 0.71145 0.0
C2111 C 0.91468 0.7675 0.73748 0.0
C2112 C 0.93211 0.77942 0.74805 0.0
C2113 C 0.88094 0.74762 0.71774 0.0
C2114 C 0.8808 0.75901 0.73449 0.0
C2115 C 0.89786 0.76878 0.74401 0.0
C2116 C 0.86326 0.76164 0.74192 0.0
C2117 C 0.86346 0.73756 0.70586 0.0
C2118 C 0.86061 0.77935 0.74659 0.0
C2119 C 0.84439 0.78207 0.75327 0.0
C2120 C 0.83007 0.76719 0.75561 0.0
C2121 C 0.8328 0.74944 0.75122 0.0
C2122 C 0.84912 0.74674 0.74463 0.0
H2123 H 0.86576 0.73412 0.69124 0.0
H2124 H 0.85795 0.72454 0.71132 0.0
H2125 H 0.85302 0.74577 0.70596 0.0
H2126 H 0.87107 0.79122 0.74482 0.0
H2127 H 0.84303 0.79597 0.75642 0.0
H2128 H 0.14559 0.03192 0.84794 0.0
H2129 H 0.13413 0.03087 0.87829 0.0
H2130 H 0.08051 0.03119 0.85276 0.0
H2131 H 0.09184 0.03227 0.82245 0.0
H2132 H 0.11613 0.05548 0.89836 0.0
H2133 H 0.07164 0.98547 0.88061 0.0
H2134 H 0.08972 0.99446 0.86722 0.0
H2135 H 0.06838 0.0011 0.86436 0.0
C2136 C 0.13137 0.03184 0.84878 0.0
C2137 C 0.11964 0.03209 0.83268 0.0
C2138 C 0.12483 0.03124 0.86618 0.0
C2139 C 0.10636 0.03066 0.86785 0.0
C2140 C 0.09473 0.03131 0.85184 0.0
H2141 H 0.0348 0.02182 0.95404 0.0
H2142 H 0.04908 0.02285 0.92548 0.0
C2143 C 0.10127 0.03203 0.8345 0.0
C2144 C 0.0992 0.02932 0.88623 0.0
H2145 H 0.06841 0.00204 0.90896 0.0
C2146 C 0.10579 0.04374 0.90074 0.0
C2147 C 0.08568 0.01402 0.8894 0.0
C2148 C 0.07851 0.99778 0.87466 0.0
C2149 C 0.09882 0.04357 0.91802 0.0
C2150 C 0.08518 0.0283 0.92117 0.0
C2151 C 0.07883 0.01376 0.9067 0.0
C2152 C 0.07672 0.02742 0.93896 0.0
C2153 C 0.10566 0.06011 0.93246 0.0
C2154 C 0.08735 0.02928 0.9563 0.0
C2155 C 0.07916 0.02879 0.97284 0.0
C2156 C 0.0601 0.02619 0.97245 0.0
C2157 C 0.0495 0.02384 0.95502 0.0
C2158 C 0.05768 0.02443 0.93857 0.0
H2159 H 0.11211 0.0724 0.92622 0.0
H2160 H 0.09439 0.06327 0.9399 0.0
H2161 H 0.11612 0.05733 0.94277 0.0
H2162 H 0.10201 0.03109 0.95708 0.0
H2163 H 0.0878 0.03057 0.98593 0.0
H2164 H 0.77181 0.34765 0.51492 0.0
H2165 H 0.77523 0.33479 0.54392 0.0
H2166 H 0.77047 0.38507 0.57455 0.0
H2167 H 0.76727 0.39828 0.54555 0.0
H2168 H 0.8006 0.37281 0.58768 0.0
H2169 H 0.73764 0.31704 0.5787 0.0
H2170 H 0.7505 0.31672 0.55928 0.0
H2171 H 0.74049 0.33573 0.56486 0.0
C2172 C 0.77129 0.35596 0.52777 0.0
C2173 C 0.76932 0.37404 0.52791 0.0
C2174 C 0.77311 0.34852 0.54432 0.0
C2175 C 0.77282 0.35891 0.56128 0.0
C2176 C 0.7706 0.37684 0.56152 0.0
H2177 H 0.77499 0.3167 0.66746 0.0
H2178 H 0.76693 0.33086 0.6402 0.0
C2179 C 0.7688 0.38434 0.54495 0.0
C2180 C 0.77626 0.35146 0.57879 0.0
H2181 H 0.76133 0.31527 0.60218 0.0
C2182 C 0.79193 0.36034 0.59098 0.0
C2183 C 0.7648 0.33529 0.58305 0.0
C2184 C 0.74731 0.32573 0.57087 0.0
C2185 C 0.7968 0.3531 0.60709 0.0
C2186 C 0.78583 0.33646 0.61086 0.0
C2187 C 0.76982 0.3279 0.59902 0.0
C2188 C 0.79072 0.32777 0.62712 0.0
C2189 C 0.8136 0.3633 0.61997 0.0
C2190 C 0.80661 0.32115 0.62852 0.0
C2191 C 0.81129 0.31311 0.64409 0.0
C2192 C 0.80011 0.31164 0.65842 0.0
C2193 C 0.78402 0.31799 0.65676 0.0
C2194 C 0.77934 0.32595 0.64119 0.0
H2195 H 0.818 0.37778 0.61742 0.0
H2196 H 0.81112 0.36302 0.6347 0.0
H2197 H 0.82498 0.3566 0.61771 0.0
H2198 H 0.81538 0.32222 0.61759 0.0
H2199 H 0.82375 0.30831 0.64506 0.0
H2200 H 0.41272 0.05437 0.35399 0.0
H2201 H 0.43085 0.05796 0.38445 0.0
H2202 H 0.47812 0.05262 0.35766 0.0
H2203 H 0.46034 0.04939 0.32739 0.0
H2204 H 0.44734 0.03189 0.397 0.0
H2205 H 0.49925 0.09652 0.3967 0.0
H2206 H 0.47852 0.08993 0.38064 0.0
H2207 H 0.4977 0.08037 0.37644 0.0
C2208 C 0.42705 0.05425 0.35464 0.0
C2209 C 0.43511 0.05156 0.33836 0.0
C2210 C 0.43737 0.05632 0.372 0.0
C2211 C 0.45588 0.05585 0.37325 0.0
C2212 C 0.46399 0.05349 0.35699 0.0
H2213 H 0.53021 0.03264 0.45984 0.0
H2214 H 0.5158 0.03831 0.43012 0.0
C2215 C 0.45374 0.05146 0.3397 0.0
C2216 C 0.46632 0.05601 0.39144 0.0
H2217 H 0.50563 0.07742 0.41955 0.0
C2218 C 0.45997 0.04196 0.40202 0.0
C2219 C 0.48285 0.06913 0.39786 0.0
C2220 C 0.48991 0.08494 0.3874 0.0
C2221 C 0.46993 0.04044 0.4187 0.0
C2222 C 0.48658 0.05332 0.4249 0.0
C2223 C 0.4929 0.06751 0.41452 0.0
C2224 C 0.49715 0.05238 0.44259 0.0
C2225 C 0.46276 0.02498 0.42957 0.0
C2226 C 0.49163 0.05889 0.45922 0.0
C2227 C 0.49971 0.05565 0.47609 0.0
C2228 C 0.51344 0.04582 0.47657 0.0
C2229 C 0.51966 0.04021 0.45989 0.0
C2230 C 0.51149 0.04345 0.44295 0.0
H2231 H 0.45043 0.01516 0.42199 0.0
H2232 H 0.47348 0.01748 0.43273 0.0
H2233 H 0.4592 0.03066 0.443 0.0
H2234 H 0.48057 0.06583 0.45909 0.0
H2235 H 0.49476 0.06036 0.48871 0.0
H2236 H 0.78946 0.69048 0.0713 0.0
H2237 H 0.79077 0.70092 0.10456 0.0
H2238 H 0.7617 0.74173 0.09126 0.0
H2239 H 0.76065 0.73178 0.05837 0.0
H2240 H 0.7902 0.75626 0.11692 0.0
H2241 H 0.75075 0.69207 0.13812 0.0
H2242 H 0.77036 0.68955 0.12698 0.0
H2243 H 0.75161 0.69557 0.11409 0.0
C2244 C 0.78332 0.70165 0.07546 0.0
C2245 C 0.77496 0.71022 0.06198 0.0
C2246 C 0.78396 0.70754 0.09453 0.0
C2247 C 0.7761 0.722 0.10055 0.0
C2248 C 0.76785 0.73055 0.0871 0.0
H2249 H 0.75047 0.75505 0.21211 0.0
H2250 H 0.74901 0.74329 0.17916 0.0
C2251 C 0.76727 0.72477 0.06817 0.0
C2252 C 0.77682 0.72882 0.12071 0.0
H2253 H 0.76403 0.71631 0.16222 0.0
C2254 C 0.78447 0.74747 0.1268 0.0
C2255 C 0.7691 0.71751 0.13365 0.0
C2256 C 0.75983 0.6976 0.12791 0.0
C2257 C 0.78475 0.75507 0.1453 0.0
C2258 C 0.7775 0.74369 0.15837 0.0
C2259 C 0.76968 0.72506 0.15229 0.0
C2260 C 0.77824 0.75085 0.17841 0.0
C2261 C 0.79246 0.77538 0.15055 0.0
C2262 C 0.7951 0.75893 0.18908 0.0
C2263 C 0.79595 0.76576 0.20781 0.0
C2264 C 0.77997 0.76455 0.21654 0.0
C2265 C 0.76305 0.75636 0.20588 0.0
C2266 C 0.76221 0.74953 0.18704 0.0
H2267 H 0.79236 0.78285 0.13822 0.0
H2268 H 0.78463 0.78119 0.16076 0.0
H2269 H 0.80684 0.77782 0.15692 0.0
H2270 H 0.8077 0.75982 0.18296 0.0
H2271 H 0.80927 0.77186 0.21547 0.0
H2272 H 0.08108 0.05038 0.73703 0.0
H2273 H 0.07095 0.04918 0.70418 0.0
H2274 H 0.11259 0.02138 0.69014 0.0
H2275 H 0.12294 0.02244 0.72331 0.0
H2276 H 0.0908 0.06422 0.67659 0.0
H2277 H 0.06569 0.98885 0.6596 0.0
H2278 H 0.07028 0.00014 0.68318 0.0
H2279 H 0.0888 0.99669 0.67069 0.0
C2280 C 0.08813 0.04387 0.72708 0.0
C2281 C 0.10288 0.03643 0.73303 0.0
C2282 C 0.08228 0.04326 0.70819 0.0
C2283 C 0.09083 0.03506 0.69458 0.0
C2284 C 0.10555 0.02755 0.70035 0.0
H2285 H 0.07147 0.01741 0.57403 0.0
H2286 H 0.08218 0.0187 0.60673 0.0
C2287 C 0.11152 0.02823 0.71936 0.0
C2288 C 0.08442 0.03483 0.67448 0.0
H2289 H 0.06485 0.00637 0.6347 0.0
C2290 C 0.08512 0.05156 0.66743 0.0
C2291 C 0.07695 0.01835 0.66247 0.0
C2292 C 0.0752 -4e-05 0.66932 0.0
C2293 C 0.07888 0.05227 0.64874 0.0
C2294 C 0.07126 0.03578 0.63673 0.0
C2295 C 0.0706 0.01904 0.64381 0.0
C2296 C 0.06455 0.03549 0.61665 0.0
C2297 C 0.08101 0.07072 0.64193 0.0
C2298 C 0.05087 0.04443 0.61105 0.0
C2299 C 0.0447 0.04383 0.5921 0.0
C2300 C 0.05195 0.03412 0.57834 0.0
C2301 C 0.06551 0.02509 0.58409 0.0
C2302 C 0.07168 0.02576 0.6029 0.0
H2303 H 0.09146 0.08145 0.65115 0.0
H2304 H 0.08494 0.07026 0.62764 0.0
H2305 H 0.06781 0.07479 0.64173 0.0
H2306 H 0.04477 0.05168 0.62132 0.0
H2307 H 0.03415 0.05081 0.58828 0.0
H2308 H 0.7772 0.41789 0.43579 0.0
H2309 H 0.77733 0.39959 0.406 0.0
H2310 H 0.72443 0.36604 0.41155 0.0
H2311 H 0.72445 0.38404 0.44139 0.0
H2312 H 0.7721 0.3589 0.41217 0.0
H2313 H 0.72628 0.372 0.35324 0.0
H2314 H 0.73816 0.39003 0.37139 0.0
H2315 H 0.71922 0.37291 0.37618 0.0
C2316 C 0.76519 0.40729 0.43007 0.0
C2317 C 0.75072 0.40238 0.44059 0.0
C2318 C 0.76532 0.39679 0.41318 0.0
C2319 C 0.75084 0.38158 0.40666 0.0
C2320 C 0.73555 0.37791 0.41627 0.0
H2321 H 0.74519 0.28881 0.32162 0.0
H2322 H 0.73725 0.30777 0.34765 0.0
C2323 C 0.73556 0.38819 0.43324 0.0
C2324 C 0.75347 0.36731 0.39261 0.0
H2325 H 0.74026 0.34726 0.34791 0.0
C2326 C 0.76518 0.35635 0.3981 0.0
C2327 C 0.74399 0.36381 0.37453 0.0
C2328 C 0.73121 0.37528 0.36831 0.0
C2329 C 0.76799 0.34211 0.38577 0.0
C2330 C 0.75911 0.33904 0.36742 0.0
C2331 C 0.74696 0.34966 0.36206 0.0
C2332 C 0.76397 0.3264 0.3531 0.0
C2333 C 0.78053 0.33052 0.39241 0.0
C2334 C 0.78163 0.33053 0.34791 0.0
C2335 C 0.78612 0.31987 0.33322 0.0
C2336 C 0.77303 0.30486 0.32346 0.0
C2337 C 0.75555 0.30019 0.32913 0.0
C2338 C 0.75098 0.31106 0.34382 0.0
H2339 H 0.78193 0.33102 0.40776 0.0
H2340 H 0.77547 0.31605 0.38605 0.0
H2341 H 0.7943 0.33577 0.38832 0.0
H2342 H 0.79175 0.34244 0.35481 0.0
H2343 H 0.79969 0.32375 0.32909 0.0
H2344 H 0.4577 0.01749 0.24604 0.0
H2345 H 0.45853 0.00609 0.21382 0.0
H2346 H 0.40178 0.00612 0.20085 0.0
H2347 H 0.4007 0.01767 0.23334 0.0
H2348 H 0.43268 0.97132 0.19415 0.0
H2349 H 0.43163 0.03476 0.16159 0.0
H2350 H 0.43946 0.03608 0.18597 0.0
H2351 H 0.41571 0.02731 0.17771 0.0
C2352 C 0.44537 0.01521 0.23641 0.0
C2353 C 0.42909 0.01841 0.24232 0.0
C2354 C 0.44588 0.00865 0.218 0.0
C2355 C 0.4302 0.0052 0.20511 0.0
C2356 C 0.41401 0.00876 0.2107 0.0
H2357 H 0.45297 0.98106 0.09092 0.0
H2358 H 0.43289 0.98187 0.11525 0.0
C2359 C 0.41346 0.01538 0.22922 0.0
C2360 C 0.43121 0.99757 0.18596 0.0
H2361 H 0.44083 0.01121 0.14425 0.0
C2362 C 0.43396 0.97982 0.18301 0.0
C2363 C 0.43266 0.00866 0.17152 0.0
C2364 C 0.42974 0.0278 0.17419 0.0
C2365 C 0.43963 0.9734 0.1664 0.0
C2366 C 0.44283 0.98517 0.15264 0.0
C2367 C 0.43841 0.00226 0.15491 0.0
C2368 C 0.4537 0.98153 0.13757 0.0
C2369 C 0.44312 0.95449 0.16413 0.0
C2370 C 0.47194 0.98085 0.14212 0.0
C2371 C 0.48349 0.98068 0.12837 0.0
C2372 C 0.47701 0.98123 0.1098 0.0
C2373 C 0.45844 0.98091 0.10515 0.0
C2374 C 0.44691 0.98123 0.11897 0.0
H2375 H 0.43436 0.94525 0.17228 0.0
H2376 H 0.44062 0.94842 0.14932 0.0
H2377 H 0.45758 0.95533 0.16936 0.0
H2378 H 0.47754 0.98152 0.15647 0.0
H2379 H 0.49775 0.98125 0.13251 0.0
H2380 H 0.79414 0.6754 0.9497 0.0
H2381 H 0.7958 0.68796 0.92013 0.0
H2382 H 0.76997 0.73006 0.94081 0.0
H2383 H 0.76925 0.71811 0.97074 0.0
H2384 H 0.77271 0.69161 0.89408 0.0
H2385 H 0.81109 0.76181 0.92197 0.0
H2386 H 0.80753 0.74359 0.93628 0.0
H2387 H 0.79009 0.75592 0.93181 0.0
C2388 C 0.78886 0.68738 0.94796 0.0
C2389 C 0.7817 0.69583 0.96266 0.0
C2390 C 0.78982 0.69458 0.931 0.0
C2391 C 0.78344 0.71033 0.92818 0.0
C2392 C 0.77566 0.71837 0.94269 0.0
H2393 H 0.7562 0.7388 0.81763 0.0
H2394 H 0.75654 0.72658 0.84725 0.0
C2395 C 0.77505 0.71139 0.95979 0.0
C2396 C 0.78456 0.71796 0.90996 0.0
H2397 H 0.79724 0.75753 0.89049 0.0
C2398 C 0.77822 0.70602 0.89337 0.0
C2399 C 0.79209 0.73671 0.90873 0.0
C2400 C 0.80077 0.75019 0.92564 0.0
C2401 C 0.77885 0.71225 0.87583 0.0
C2402 C 0.7853 0.73119 0.87466 0.0
C2403 C 0.79201 0.74307 0.89121 0.0
C2404 C 0.78512 0.73894 0.85649 0.0
C2405 C 0.77302 0.69826 0.85876 0.0
C2406 C 0.80081 0.75078 0.85187 0.0
C2407 C 0.80051 0.75825 0.83499 0.0
C2408 C 0.78455 0.75392 0.82222 0.0
C2409 C 0.76885 0.7422 0.82692 0.0
C2410 C 0.76907 0.73504 0.8439 0.0
H2411 H 0.77484 0.68462 0.86172 0.0
H2412 H 0.7583 0.69677 0.8542 0.0
H2413 H 0.7809 0.70236 0.84718 0.0
H2414 H 0.81338 0.7542 0.8613 0.0
H2415 H 0.81283 0.76728 0.83189 0.0
H2416 H 0.80418 0.0976 0.04501 0.0
H2417 H 0.82631 0.07905 0.04069 0.0
H2418 H 0.86782 0.12759 0.0369 0.0
H2419 H 0.84562 0.14629 0.04089 0.0
H2420 H 0.86262 0.101 0.00662 0.0
H2421 H 0.8704 0.07079 0.07222 0.0
H2422 H 0.84707 0.06799 0.06256 0.0
H2423 H 0.86096 0.09056 0.07062 0.0
C2424 C 0.81812 0.1044 0.0437 0.0
C2425 C 0.82315 0.12337 0.04311 0.0
C2426 C 0.83078 0.09378 0.04135 0.0
C2427 C 0.84868 0.10199 0.03859 0.0
C2428 C 0.85403 0.12105 0.03906 0.0
H2429 H 0.94148 0.06398 0.00894 0.0
H2430 H 0.91891 0.08139 0.01606 0.0
C2431 C 0.84136 0.1317 0.04136 0.0
C2432 C 0.86109 0.0905 0.03294 0.0
H2433 H 0.88197 0.05756 0.04623 0.0
C2434 C 0.86696 0.09158 0.01533 0.0
C2435 C 0.86648 0.07811 0.04426 0.0
C2436 C 0.86105 0.07687 0.06354 0.0
C2437 C 0.87808 0.08051 0.00867 0.0
C2438 C 0.88353 0.06819 0.02001 0.0
C2439 C 0.87755 0.06695 0.03755 0.0
C2440 C 0.89659 0.0575 0.01449 0.0
C2441 C 0.88385 0.08199 0.98954 0.0
C2442 C 0.89138 0.03832 0.01123 0.0
C2443 C 0.90427 0.02832 0.00711 0.0
C2444 C 0.92249 0.03745 0.00655 0.0
C2445 C 0.9275 0.05666 0.00943 0.0
C2446 C 0.91466 0.0666 0.01339 0.0
H2447 H 0.87499 0.08865 0.98094 0.0
H2448 H 0.89807 0.09036 0.99083 0.0
H2449 H 0.8835 0.06827 0.98222 0.0
H2450 H 0.87745 0.03114 0.01211 0.0
H2451 H 0.90019 0.01351 0.00504 0.0
H2452 H 0.33237 0.42475 0.03136 0.0
H2453 H 0.36119 0.44747 0.0318 0.0
H2454 H 0.39004 0.40438 0.02855 0.0
H2455 H 0.36134 0.38161 0.02758 0.0
H2456 H 0.39266 0.45677 0.05524 0.0
H2457 H 0.40713 0.43058 0.98597 0.0
H2458 H 0.38528 0.42303 0.99416 0.0
H2459 H 0.40406 0.41323 0.00115 0.0
C2460 C 0.34485 0.42009 0.03074 0.0
C2461 C 0.34446 0.40129 0.02924 0.0
C2462 C 0.36133 0.43312 0.03099 0.0
C2463 C 0.37778 0.42765 0.02977 0.0
C2464 C 0.3775 0.40895 0.02893 0.0
H2465 H 0.49239 0.47853 0.0396 0.0
H2466 H 0.46194 0.45935 0.04047 0.0
C2467 C 0.36104 0.39592 0.02851 0.0
C2468 C 0.39525 0.44142 0.02947 0.0
H2469 H 0.43189 0.45175 0.00514 0.0
C2470 C 0.40113 0.45577 0.04418 0.0
C2471 C 0.4063 0.44027 0.01495 0.0
C2472 C 0.40029 0.42607 -0.00193 0.0
C2473 C 0.41799 0.46854 0.04505 0.0
C2474 C 0.42925 0.46691 0.03092 0.0
C2475 C 0.42326 0.45285 0.01604 0.0
C2476 C 0.44762 0.47926 0.03158 0.0
C2477 C 0.42397 0.48346 0.06127 0.0
C2478 C 0.44965 0.49691 0.0264 0.0
C2479 C 0.46711 0.50795 0.02576 0.0
C2480 C 0.48284 0.50153 0.03034 0.0
C2481 C 0.48066 0.48398 0.03598 0.0
C2482 C 0.46324 0.47295 0.03648 0.0
H2483 H 0.41415 0.48226 0.07173 0.0
H2484 H 0.43758 0.48303 0.0681 0.0
H2485 H 0.42533 0.497 0.05622 0.0
H2486 H 0.43773 0.50198 0.02246 0.0
H2487 H 0.46825 0.52135 0.02133 0.0
H2488 H 0.38306 0.55045 0.74488 0.0
H2489 H 0.36579 0.57415 0.746 0.0
H2490 H 0.41264 0.61273 0.7767 0.0
H2491 H 0.43014 0.58912 0.77529 0.0
H2492 H 0.35671 0.59168 0.77647 0.0
H2493 H 0.39733 0.64302 0.73839 0.0
H2494 H 0.40038 0.61999 0.73787 0.0
H2495 H 0.4105 0.6369 0.75745 0.0
C2496 C 0.38982 0.56406 0.75162 0.0
C2497 C 0.40804 0.56787 0.75993 0.0
C2498 C 0.37988 0.57761 0.75229 0.0
C2499 C 0.38789 0.59536 0.76127 0.0
C2500 C 0.40621 0.59931 0.76932 0.0
H2501 H 0.34448 0.69111 0.7899 0.0
H2502 H 0.36355 0.66905 0.78642 0.0
C2503 C 0.41621 0.58575 0.76857 0.0
C2504 C 0.37666 0.60925 0.76314 0.0
H2505 H 0.3742 0.65226 0.75423 0.0
C2506 C 0.36051 0.60488 0.77149 0.0
C2507 C 0.38159 0.62657 0.75676 0.0
C2508 C 0.3983 0.63188 0.74696 0.0
C2509 C 0.34934 0.61731 0.77383 0.0
C2510 C 0.35422 0.63458 0.7674 0.0
C2511 C 0.37042 0.63904 0.75915 0.0
C2512 C 0.34266 0.64814 0.76913 0.0
C2513 C 0.33257 0.61197 0.78355 0.0
C2514 C 0.3246 0.64391 0.76036 0.0
C2515 C 0.31361 0.65646 0.7624 0.0
C2516 C 0.3204 0.67363 0.77324 0.0
C2517 C 0.33863 0.67794 0.78172 0.0
C2518 C 0.34963 0.66539 0.77962 0.0
H2519 H 0.33329 0.60055 0.79181 0.0
H2520 H 0.3307 0.62377 0.79293 0.0
H2521 H 0.32035 0.60738 0.77303 0.0
H2522 H 0.31897 0.63084 0.75193 0.0
H2523 H 0.29965 0.65256 0.75574 0.0
H2524 H 0.23325 0.61502 0.524 0.0
H2525 H 0.202 0.59673 0.5213 0.0
H2526 H 0.18679 0.64037 0.55436 0.0
H2527 H 0.21799 0.65922 0.55621 0.0
H2528 H 0.18142 0.58291 0.5448 0.0
H2529 H 0.14853 0.63177 0.51125 0.0
H2530 H 0.17297 0.63497 0.51494 0.0
H2531 H 0.16078 0.64148 0.53358 0.0
C2532 C 0.22325 0.62074 0.53071 0.0
C2533 C 0.22799 0.63859 0.54023 0.0
C2534 C 0.20538 0.61026 0.52916 0.0
C2535 C 0.19192 0.61726 0.53733 0.0
C2536 C 0.19678 0.63487 0.54744 0.0
H2537 H 0.08618 0.54542 0.54835 0.0
H2538 H 0.11803 0.56292 0.5538 0.0
C2539 C 0.21462 0.64558 0.54861 0.0
C2540 C 0.17288 0.606 0.53511 0.0
H2541 H 0.12878 0.60608 0.5204 0.0
C2542 C 0.16991 0.58795 0.53939 0.0
C2543 C 0.15789 0.61247 0.52777 0.0
C2544 C 0.16019 0.63115 0.52144 0.0
C2545 C 0.15243 0.57613 0.53636 0.0
C2546 C 0.13734 0.58282 0.52968 0.0
C2547 C 0.14031 0.60094 0.52561 0.0
C2548 C 0.11839 0.57128 0.52627 0.0
C2549 C 0.15053 0.55647 0.53972 0.0
C2550 C 0.10782 0.57043 0.50915 0.0
C2551 C 0.08952 0.56099 0.50628 0.0
C2552 C 0.08152 0.55185 0.52032 0.0
C2553 C 0.09217 0.55212 0.53722 0.0
C2554 C 0.11039 0.56203 0.54029 0.0
H2555 H 0.16357 0.55221 0.53874 0.0
H2556 H 0.14686 0.55495 0.55393 0.0
H2557 H 0.13976 0.54705 0.52961 0.0
H2558 H 0.11365 0.5774 0.49809 0.0
H2559 H 0.08155 0.56096 0.49312 0.0
H2560 H 0.67246 0.96768 0.75579 0.0
H2561 H 0.69287 0.94715 0.75946 0.0
H2562 H 0.7355 0.98543 0.73906 0.0
H2563 H 0.71529 0.00633 0.73582 0.0
H2564 H 0.71235 0.93009 0.73643 0.0
H2565 H 0.75875 0.98118 0.79051 0.0
H2566 H 0.73652 0.98371 0.78166 0.0
H2567 H 0.75538 0.98904 0.76834 0.0
C2568 C 0.6861 0.97163 0.75183 0.0
C2569 C 0.6924 0.98872 0.74579 0.0
C2570 C 0.69774 0.95988 0.75394 0.0
C2571 C 0.71581 0.965 0.74996 0.0
C2572 C 0.72173 0.98147 0.74266 0.0
H2573 H 0.80083 0.90443 0.76585 0.0
H2574 H 0.78354 0.9262 0.75552 0.0
C2575 C 0.71014 0.99332 0.7407 0.0
C2576 C 0.72864 0.95354 0.75458 0.0
H2577 H 0.76702 0.95328 0.78316 0.0
C2578 C 0.72437 0.93519 0.74653 0.0
C2579 C 0.74423 0.96023 0.76792 0.0
C2580 C 0.74896 0.97956 0.77776 0.0
C2581 C 0.73522 0.92329 0.75161 0.0
C2582 C 0.75064 0.92997 0.76503 0.0
C2583 C 0.75519 0.94836 0.77279 0.0
C2584 C 0.76157 0.9177 0.77195 0.0
C2585 C 0.73003 0.90358 0.74291 0.0
C2586 C 0.75502 0.90616 0.78488 0.0
C2587 C 0.76485 0.89386 0.79086 0.0
C2588 C 0.78134 0.89288 0.78392 0.0
C2589 C 0.7881 0.90485 0.77133 0.0
C2590 C 0.7783 0.91726 0.76544 0.0
H2591 H 0.71911 0.90112 0.731 0.0
H2592 H 0.74215 0.89943 0.73807 0.0
H2593 H 0.72508 0.89472 0.75348 0.0
H2594 H 0.74212 0.90644 0.79004 0.0
H2595 H 0.75918 0.88463 0.80035 0.0
H2596 H 0.76379 0.92964 0.54904 0.0
H2597 H 0.73943 0.94604 0.54953 0.0
H2598 H 0.70023 0.8969 0.52433 0.0
H2599 H 0.72455 0.8803 0.52405 0.0
H2600 H 0.71802 0.95203 0.5196 0.0
H2601 H 0.67415 0.91424 0.56641 0.0
H2602 H 0.69723 0.91212 0.56463 0.0
H2603 H 0.67893 0.89994 0.54721 0.0
C2604 C 0.74995 0.92222 0.54383 0.0
C2605 C 0.74615 0.9036 0.53656 0.0
C2606 C 0.73601 0.93165 0.54408 0.0
C2607 C 0.71789 0.92272 0.53716 0.0
C2608 C 0.71399 0.90405 0.53012 0.0
H2609 H 0.61793 0.96089 0.51662 0.0
H2610 H 0.64089 0.94277 0.51936 0.0
C2611 C 0.72796 0.89457 0.52989 0.0
C2612 C 0.70341 0.93328 0.53633 0.0
H2613 H 0.66205 0.93561 0.55048 0.0
C2614 C 0.70584 0.94848 0.52645 0.0
C2615 C 0.68742 0.92864 0.54517 0.0
C2616 C 0.68429 0.91295 0.5566 0.0
C2617 C 0.69272 0.95897 0.52496 0.0
C2618 C 0.67678 0.95441 0.53387 0.0
C2619 C 0.67426 0.93915 0.54368 0.0
C2620 C 0.66259 0.9653 0.53306 0.0
C2621 C 0.69586 0.97462 0.51347 0.0
C2622 C 0.66696 0.98394 0.54021 0.0
C2623 C 0.65388 0.99438 0.53858 0.0
C2624 C 0.63605 0.98642 0.52981 0.0
C2625 C 0.63158 0.96759 0.52316 0.0
C2626 C 0.64467 0.95716 0.52484 0.0
H2627 H 0.70607 0.97336 0.50373 0.0
H2628 H 0.68294 0.97537 0.50534 0.0
H2629 H 0.70112 0.98767 0.52283 0.0
H2630 H 0.68059 0.99049 0.54691 0.0
H2631 H 0.65792 0.00882 0.54378 0.0
H2632 H 0.38913 0.47998 0.75287 0.0
H2633 H 0.3659 0.45136 0.75178 0.0
H2634 H 0.40665 0.42596 0.77558 0.0
H2635 H 0.42993 0.45439 0.77681 0.0
H2636 H 0.36471 0.41562 0.73365 0.0
H2637 H 0.36605 0.41675 0.80993 0.0
H2638 H 0.37564 0.43671 0.7993 0.0
H2639 H 0.38809 0.41932 0.80191 0.0
C2640 C 0.39319 0.46832 0.75789 0.0
C2641 C 0.41146 0.4696 0.765 0.0
C2642 C 0.37986 0.45195 0.75723 0.0
C2643 C 0.38447 0.43658 0.76384 0.0
C2644 C 0.4027 0.43772 0.7707 0.0
H2645 H 0.32951 0.32192 0.74664 0.0
H2646 H 0.34875 0.35233 0.74561 0.0
C2647 C 0.41603 0.45402 0.77129 0.0
C2648 C 0.37031 0.41927 0.76346 0.0
H2649 H 0.35003 0.38904 0.79133 0.0
C2650 C 0.36141 0.40986 0.74626 0.0
C2651 C 0.3658 0.41186 0.77992 0.0
C2652 C 0.37425 0.42173 0.79884 0.0
C2653 C 0.34859 0.39298 0.74507 0.0
C2654 C 0.34466 0.38521 0.7615 0.0
C2655 C 0.35312 0.39491 0.77872 0.0
C2656 C 0.33222 0.36681 0.76114 0.0
C2657 C 0.3393 0.38364 0.72623 0.0
C2658 C 0.31654 0.36473 0.77034 0.0
C2659 C 0.30545 0.34729 0.77096 0.0
C2660 C 0.30993 0.33153 0.76258 0.0
C2661 C 0.32555 0.33371 0.75319 0.0
C2662 C 0.33656 0.35113 0.7525 0.0
H2663 H 0.33994 0.39341 0.71581 0.0
H2664 H 0.34628 0.37292 0.72137 0.0
H2665 H 0.32477 0.37696 0.72689 0.0
H2666 H 0.31297 0.37661 0.77721 0.0
H2667 H 0.29361 0.34616 0.77841 0.0
H2668 H 0.14481 0.59361 0.27139 0.0
H2669 H 0.1626 0.62504 0.27174 0.0
H2670 H 0.21247 0.6064 0.27714 0.0
H2671 H 0.1948 0.57499 0.27594 0.0
H2672 H 0.18694 0.6473 0.29689 0.0
H2673 H 0.22056 0.63464 0.23437 0.0
H2674 H 0.20202 0.6178 0.24073 0.0
H2675 H 0.22504 0.62034 0.2515 0.0
C2676 C 0.15956 0.59624 0.27251 0.0
C2677 C 0.16841 0.58184 0.27335 0.0
C2678 C 0.16971 0.61418 0.27274 0.0
C2679 C 0.18886 0.61802 0.27403 0.0
C2680 C 0.1977 0.6037 0.27548 0.0
H2681 H 0.25995 0.72739 0.30549 0.0
H2682 H 0.24207 0.69607 0.30551 0.0
C2683 C 0.18758 0.58576 0.27489 0.0
C2684 C 0.19963 0.63702 0.2742 0.0
H2685 H 0.233 0.66308 0.25353 0.0
C2686 C 0.19692 0.6508 0.28732 0.0
C2687 C 0.21246 0.64163 0.26153 0.0
C2688 C 0.21506 0.62785 0.24612 0.0
C2689 C 0.20682 0.66901 0.28826 0.0
C2690 C 0.22027 0.67343 0.27617 0.0
C2691 C 0.22285 0.65967 0.26296 0.0
C2692 C 0.23136 0.69233 0.27639 0.0
C2693 C 0.20237 0.68335 0.30184 0.0
C2694 C 0.23189 0.70037 0.25989 0.0
C2695 C 0.24248 0.71799 0.25975 0.0
C2696 C 0.2526 0.72803 0.27616 0.0
C2697 C 0.25215 0.72 0.29268 0.0
C2698 C 0.2418 0.70218 0.29274 0.0
H2699 H 0.18838 0.67885 0.30576 0.0
H2700 H 0.21212 0.68577 0.31471 0.0
H2701 H 0.20344 0.69649 0.29602 0.0
H2702 H 0.224 0.69304 0.2471 0.0
H2703 H 0.24248 0.72386 0.24682 0.0
H2704 H 0.49126 0.72162 0.48366 0.0
H2705 H 0.49582 0.6926 0.4923 0.0
H2706 H 0.52323 0.68508 0.44405 0.0
H2707 H 0.51849 0.71438 0.43505 0.0
H2708 H 0.50003 0.65246 0.4496 0.0
H2709 H 0.54218 0.68266 0.51626 0.0
H2710 H 0.52048 0.68854 0.51435 0.0
H2711 H 0.53676 0.69646 0.49878 0.0
C2712 C 0.49833 0.71396 0.47475 0.0
C2713 C 0.50457 0.72077 0.45858 0.0
C2714 C 0.50105 0.69721 0.47988 0.0
C2715 C 0.51025 0.68647 0.46918 0.0
C2716 C 0.5162 0.69296 0.45277 0.0
H2717 H 0.55355 0.59742 0.512 0.0
H2718 H 0.54906 0.62572 0.50097 0.0
C2719 C 0.51349 0.70985 0.4476 0.0
C2720 C 0.51345 0.66862 0.4752 0.0
H2721 H 0.53111 0.65027 0.51199 0.0
C2722 C 0.5069 0.65206 0.46323 0.0
C2723 C 0.52262 0.66773 0.49291 0.0
C2724 C 0.53108 0.6848 0.50625 0.0
C2725 C 0.50885 0.63495 0.46853 0.0
C2726 C 0.51741 0.634 0.48653 0.0
C2727 C 0.52432 0.65062 0.4983 0.0
C2728 C 0.51989 0.61615 0.49324 0.0
C2729 C 0.50204 0.61808 0.45453 0.0
C2730 C 0.50506 0.60092 0.49304 0.0
C2731 C 0.50762 0.58449 0.49943 0.0
C2732 C 0.5251 0.58268 0.50639 0.0
C2733 C 0.53985 0.59803 0.5068 0.0
C2734 C 0.53728 0.6144 0.50044 0.0
H2735 H 0.50085 0.62158 0.44011 0.0
H2736 H 0.51125 0.60859 0.45551 0.0
H2737 H 0.48828 0.61082 0.45725 0.0
H2738 H 0.49137 0.60175 0.4881 0.0
H2739 H 0.49583 0.57317 0.49888 0.0
H2740 H 0.60013 0.29903 0.65556 0.0
H2741 H 0.62657 0.29771 0.67714 0.0
H2742 H 0.66178 0.31042 0.63488 0.0
H2743 H 0.63559 0.31202 0.61339 0.0
H2744 H 0.64998 0.27499 0.67469 0.0
H2745 H 0.69001 0.34643 0.67814 0.0
H2746 H 0.66634 0.33922 0.66833 0.0
H2747 H 0.684 0.33492 0.65487 0.0
C2748 C 0.61352 0.3018 0.6509 0.0
C2749 C 0.61557 0.30577 0.63264 0.0
C2750 C 0.62869 0.30097 0.66328 0.0
C2751 C 0.6464 0.30422 0.65787 0.0
C2752 C 0.64847 0.30827 0.63969 0.0
H2753 H 0.75498 0.29967 0.70972 0.0
H2754 H 0.72882 0.3026 0.68861 0.0
C2755 C 0.63334 0.30909 0.62731 0.0
C2756 C 0.66252 0.30264 0.67089 0.0
H2757 H 0.70545 0.32562 0.69111 0.0
C2758 C 0.66203 0.28614 0.67836 0.0
C2759 C 0.67844 0.31707 0.67572 0.0
C2760 C 0.67972 0.33547 0.669 0.0
C2761 C 0.67697 0.28355 0.69008 0.0
C2762 C 0.69289 0.29798 0.69493 0.0
C2763 C 0.69338 0.31448 0.68746 0.0
C2764 C 0.70899 0.2963 0.70792 0.0
C2765 C 0.67569 0.26512 0.69674 0.0
C2766 C 0.70685 0.29209 0.72603 0.0
C2767 C 0.7218 0.29037 0.73814 0.0
C2768 C 0.73945 0.29297 0.7326 0.0
C2769 C 0.74166 0.2975 0.71454 0.0
C2770 C 0.72665 0.29921 0.70242 0.0
H2771 H 0.66537 0.25419 0.68762 0.0
H2772 H 0.68906 0.26134 0.69733 0.0
H2773 H 0.67148 0.26564 0.7109 0.0
H2774 H 0.69358 0.29022 0.73092 0.0
H2775 H 0.71945 0.28701 0.75191 0.0
H2776 H 1.00292 0.31269 0.97806 0.0
H2777 H 1.00391 0.34428 0.99114 0.0
H2778 H 0.01499 0.36259 0.93849 0.0
H2779 H 0.01355 0.33121 0.92534 0.0
H2780 H 0.02992 0.37499 0.99698 0.0
H2781 H 0.97508 0.3874 0.94813 0.0
H2782 H 0.97911 0.36489 0.94917 0.0
H2783 H 0.99256 0.38069 0.93609 0.0
C2784 C 1.00538 0.32342 0.96921 0.0
C2785 C 0.008 0.31919 0.95053 0.0
C2786 C 1.006 0.34158 0.97674 0.0
C2787 C 0.00917 0.3561 0.96583 0.0
C2788 C 0.01196 0.35184 0.94723 0.0
H2789 H 0.05129 0.47265 0.00733 0.0
H2790 H 0.04675 0.44025 0.99618 0.0
C2791 C 0.01126 0.33374 0.9397 0.0
C2792 C 0.01023 0.37569 0.97392 0.0
H2793 H 0.99475 0.41398 0.96623 0.0
C2794 C 0.02209 0.38341 0.99026 0.0
C2795 C 0.99988 0.38693 0.96558 0.0
C2796 C 0.9858 0.3795 0.9489 0.0
C2797 C 0.02429 0.40186 -0.00198 0.0
C2798 C 0.0147 0.41339 0.98909 0.0
C2799 C 1.0024 0.4055 0.97309 0.0
C2800 C 0.01738 0.43357 0.99595 0.0
C2801 C 0.03668 0.40865 0.01601 0.0
C2802 C 1.00243 0.4413 -0.00095 0.0
C2803 C 1.00499 0.46015 0.0053 0.0
C2804 C 0.02261 0.47193 0.00859 0.0
C2805 C 0.0375 0.46418 0.00525 0.0
C2806 C 0.03492 0.44543 -0.00105 0.0
H2807 H 0.03794 0.39722 0.02408 0.0
H2808 H 0.05054 0.41517 0.01291 0.0
H2809 H 0.03163 0.41887 0.0248 0.0
H2810 H 0.98869 0.4327 0.99678 0.0
H2811 H 0.99313 0.46546 0.00756 0.0
H2812 H 0.99627 0.79475 0.11624 0.0
H2813 H 0.97021 0.79149 0.1343 0.0
H2814 H 1.00156 0.77401 0.17843 0.0
H2815 H 0.02768 0.7777 0.16073 0.0
H2816 H 0.94937 0.76324 0.14831 0.0
H2817 H 0.98585 0.81489 0.2069 0.0
H2818 H 0.99508 0.81189 0.18521 0.0
H2819 H 0.99734 0.79688 0.20246 0.0
C2820 C 0.99758 0.79014 0.12976 0.0
C2821 C 0.01418 0.78664 0.13706 0.0
C2822 C 0.98265 0.7883 0.14011 0.0
C2823 C 0.98395 0.78294 0.15802 0.0
C2824 C 1.00028 0.77872 0.16496 0.0
H2825 H 0.91248 0.7618 0.24406 0.0
H2826 H 0.93703 0.76471 0.2243 0.0
C2827 C 0.01522 0.78069 0.15471 0.0
C2828 C 0.96835 0.78176 0.16946 0.0
H2829 H 0.95726 0.79639 0.21195 0.0
C2830 C 0.95109 0.77061 0.16216 0.0
C2831 C 0.97042 0.79141 0.18758 0.0
C2832 C 0.98811 0.80459 0.19594 0.0
C2833 C 0.93615 0.76844 0.17261 0.0
C2834 C 0.93835 0.77781 0.19084 0.0
C2835 C 0.95553 0.78909 0.19806 0.0
C2836 C 0.92312 0.77599 0.20275 0.0
C2837 C 0.91822 0.75572 0.16422 0.0
C2838 C 0.90708 0.78157 0.19745 0.0
C2839 C 0.893 0.7801 0.20887 0.0
C2840 C 0.89458 0.77305 0.22596 0.0
C2841 C 0.91075 0.76756 0.23122 0.0
C2842 C 0.92482 0.7691 0.21983 0.0
H2843 H 0.91989 0.74632 0.1521 0.0
H2844 H 0.91191 0.74743 0.17465 0.0
H2845 H 0.90866 0.76392 0.1594 0.0
H2846 H 0.90554 0.78732 0.18457 0.0
H2847 H 0.88101 0.78482 0.2044 0.0
H2848 H 0.5254 0.32024 0.17954 0.0
H2849 H 0.53001 0.34713 0.16274 0.0
H2850 H 0.53319 0.31301 0.11261 0.0
H2851 H 0.52902 0.28633 0.12933 0.0
H2852 H 0.55888 0.34446 0.1165 0.0
H2853 H 0.49212 0.36008 0.12705 0.0
H2854 H 0.50622 0.35987 0.14821 0.0
H2855 H 0.49764 0.33908 0.1325 0.0
C2856 C 0.52719 0.31851 0.16497 0.0
C2857 C 0.52676 0.30108 0.1558 0.0
C2858 C 0.52967 0.33388 0.15531 0.0
C2859 C 0.53159 0.33213 0.13623 0.0
C2860 C 0.53165 0.3148 0.12725 0.0
H2861 H 0.51482 0.40521 0.05505 0.0
H2862 H 0.51262 0.38095 0.07506 0.0
C2863 C 0.52925 0.2995 0.13687 0.0
C2864 C 0.53354 0.34818 0.12548 0.0
H2865 H 0.51221 0.38099 0.11207 0.0
C2866 C 0.54868 0.35247 0.11559 0.0
C2867 C 0.52013 0.35854 0.12399 0.0
C2868 C 0.50302 0.3541 0.13334 0.0
C2869 C 0.55079 0.3667 0.10434 0.0
C2870 C 0.53759 0.37732 0.10317 0.0
C2871 C 0.52244 0.37303 0.11304 0.0
C2872 C 0.53891 0.39249 0.09129 0.0
C2873 C 0.56686 0.36979 0.09333 0.0
C2874 C 0.55428 0.40735 0.09383 0.0
C2875 C 0.5556 0.42127 0.08233 0.0
C2876 C 0.54147 0.42084 0.06813 0.0
C2877 C 0.52591 0.40615 0.0659 0.0
C2878 C 0.52465 0.39219 0.07733 0.0
H2879 H 0.57269 0.35756 0.0917 0.0
H2880 H 0.56292 0.37322 0.07932 0.0
H2881 H 0.57775 0.38136 0.10074 0.0
H2882 H 0.56527 0.40826 0.10478 0.0
H2883 H 0.56762 0.4325 0.08474 0.0
H2884 H 0.9871 0.33262 0.36688 0.0
H2885 H 0.9562 0.32844 0.35154 0.0
H2886 H 0.96312 0.28257 0.31511 0.0
H2887 H 0.99463 0.28694 0.33043 0.0
H2888 H 0.94285 0.30387 0.2966 0.0
H2889 H 0.91426 0.28851 0.36168 0.0
H2890 H 0.93042 0.31023 0.36456 0.0
H2891 H 0.93788 0.28955 0.35893 0.0
C2892 C 0.98222 0.32168 0.35549 0.0
C2893 C 0.99349 0.31001 0.35011 0.0
C2894 C 0.96436 0.31923 0.34676 0.0
C2895 C 0.95688 0.30484 0.33244 0.0
C2896 C 0.96836 0.29368 0.32625 0.0
H2897 H 0.83775 0.26763 0.30465 0.0
H2898 H 0.87008 0.27072 0.31471 0.0
C2899 C 0.98647 0.29624 0.33497 0.0
C2900 C 0.93699 0.30138 0.32462 0.0
H2901 H 0.89385 0.29476 0.33763 0.0
C2902 C 0.93214 0.30175 0.30557 0.0
C2903 C 0.92275 0.2983 0.3361 0.0
C2904 C 0.92653 0.29643 0.3564 0.0
C2905 C 0.91374 0.29968 0.29791 0.0
C2906 C 0.89959 0.2975 0.30959 0.0
C2907 C 0.90447 0.29666 0.32854 0.0
C2908 C 0.87965 0.29554 0.30259 0.0
C2909 C 0.90965 0.29947 0.27724 0.0
C2910 C 0.87375 0.30847 0.29239 0.0
C2911 C 0.85504 0.30665 0.28643 0.0
C2912 C 0.84158 0.29199 0.29073 0.0
C2913 C 0.84753 0.27919 0.30107 0.0
C2914 C 0.86617 0.28093 0.30687 0.0
H2915 H 0.92059 0.29559 0.26973 0.0
H2916 H 0.89645 0.28977 0.27168 0.0
H2917 H 0.90882 0.31337 0.27428 0.0
H2918 H 0.88359 0.3202 0.28925 0.0
H2919 H 0.85112 0.31687 0.27862 0.0
H2920 H 0.99039 0.70779 0.6167 0.0
H2921 H 0.98904 0.67766 0.60012 0.0
H2922 H 0.01905 0.66424 0.64786 0.0
H2923 H 0.02012 0.69449 0.66464 0.0
H2924 H 0.01968 0.66749 0.59138 0.0
H2925 H 0.98156 0.61595 0.63112 0.0
H2926 H 0.98051 0.63968 0.63426 0.0
H2927 H 0.99999 0.63284 0.64464 0.0
C2928 C 0.99599 0.69811 0.62398 0.0
C2929 C 1.005 0.70342 0.64216 0.0
C2930 C 0.9954 0.68091 0.61439 0.0
C2931 C 1.00392 0.66849 0.62262 0.0
C2932 C 0.01206 0.67333 0.64121 0.0
H2933 H 0.0296 0.56686 0.57488 0.0
H2934 H 0.02615 0.59321 0.59553 0.0
C2935 C 0.01255 0.69061 0.6509 0.0
C2936 C 1.00592 0.65162 0.61094 0.0
H2937 H 0.99632 0.60476 0.60668 0.0
C2938 C 0.01446 0.65378 0.59473 0.0
C2939 C 0.99938 0.63365 0.61529 0.0
C2940 C 0.98971 0.63028 0.63218 0.0
C2941 C 0.01667 0.63869 0.58289 0.0
C2942 C 0.00979 0.62068 0.58699 0.0
C2943 C 1.0015 0.61848 0.60336 0.0
C2944 C 0.01116 0.60408 0.57446 0.0
C2945 C 0.02678 0.64226 0.56629 0.0
C2946 C 1.00359 0.60101 0.55569 0.0
C2947 C 1.0056 0.58593 0.54377 0.0
C2948 C 0.01513 0.57339 0.5503 0.0
C2949 C 0.02226 0.57622 0.56924 0.0
C2950 C 0.02025 0.59131 0.58114 0.0
H2951 H 0.03564 0.65635 0.56805 0.0
H2952 H 0.03541 0.63237 0.56381 0.0
H2953 H 0.01676 0.64079 0.55377 0.0
H2954 H 0.99613 0.61034 0.55018 0.0
H2955 H 0.99978 0.58422 0.52937 0.0
H2956 H 0.57876 0.78796 0.8162 0.0
H2957 H 0.60706 0.78387 0.80428 0.0
H2958 H 0.63828 0.81373 0.85495 0.0
H2959 H 0.61009 0.81736 0.86705 0.0
H2960 H 0.63665 0.80609 0.79582 0.0
H2961 H 0.66041 0.77089 0.8526 0.0
H2962 H 0.63782 0.77504 0.85016 0.0
H2963 H 0.65707 0.79282 0.86116 0.0
C2964 C 0.59163 0.79356 0.82489 0.0
C2965 C 0.59191 0.80287 0.84275 0.0
C2966 C 0.60794 0.79124 0.81801 0.0
C2967 C 0.62514 0.79808 0.82874 0.0
C2968 C 0.6254 0.8077 0.84643 0.0
H2969 H 0.74013 0.80361 0.81258 0.0
H2970 H 0.71123 0.80703 0.82326 0.0
C2971 C 0.60913 0.80993 0.85334 0.0
C2972 C 0.64269 0.79551 0.82135 0.0
H2973 H 0.68215 0.78142 0.8322 0.0
C2974 C 0.64647 0.80055 0.80379 0.0
C2975 C 0.65582 0.78824 0.83148 0.0
C2976 C 0.65252 0.78126 0.84979 0.0
C2977 C 0.66287 0.79904 0.79645 0.0
C2978 C 0.67608 0.79203 0.80671 0.0
C2979 C 0.67227 0.78689 0.82421 0.0
C2980 C 0.69393 0.79006 0.79971 0.0
C2981 C 0.66611 0.8055 0.77792 0.0
C2982 C 0.69428 0.77923 0.78285 0.0
C2983 C 0.71095 0.77718 0.77667 0.0
C2984 C 0.72792 0.78589 0.78711 0.0
C2985 C 0.72752 0.79671 0.80398 0.0
C2986 C 0.71086 0.79866 0.81019 0.0
H2987 H 0.65733 0.81485 0.77415 0.0
H2988 H 0.68062 0.8127 0.77793 0.0
H2989 H 0.66284 0.7935 0.76701 0.0
H2990 H 0.68159 0.77206 0.77453 0.0
H2991 H 0.7105 0.76862 0.7637 0.0
H2992 H 0.47661 0.50809 0.71394 0.0
H2993 H 0.4857 0.51342 0.68356 0.0
H2994 H 0.45279 0.55288 0.6798 0.0
H2995 H 0.4431 0.54719 0.71038 0.0
H2996 H 0.44978 0.53203 0.64678 0.0
H2997 H 0.52311 0.55621 0.67252 0.0
H2998 H 0.51413 0.53389 0.67867 0.0
H2999 H 0.50577 0.55303 0.688 0.0
C3000 C 0.47125 0.51797 0.70677 0.0
C3001 C 0.45924 0.52737 0.71487 0.0
C3002 C 0.47662 0.52111 0.68934 0.0
C3003 C 0.47046 0.53399 0.67948 0.0
C3004 C 0.45797 0.54302 0.68717 0.0
H3005 H 0.5274 0.56545 0.58327 0.0
H3006 H 0.51485 0.5667 0.61304 0.0
C3007 C 0.4524 0.53974 0.70467 0.0
C3008 C 0.47702 0.53766 0.66114 0.0
H3009 H 0.51581 0.54662 0.6397 0.0
C3010 C 0.46423 0.53544 0.64529 0.0
C3011 C 0.49589 0.54255 0.65904 0.0
C3012 C 0.51049 0.54676 0.67551 0.0
C3013 C 0.46973 0.53709 0.62746 0.0
C3014 C 0.48858 0.54058 0.62521 0.0
C3015 C 0.50136 0.54365 0.64118 0.0
C3016 C 0.49537 0.54048 0.6065 0.0
C3017 C 0.45519 0.53522 0.61126 0.0
C3018 C 0.48877 0.52536 0.59273 0.0
C3019 C 0.49578 0.52472 0.57562 0.0
C3020 C 0.50989 0.53904 0.57184 0.0
C3021 C 0.51652 0.5542 0.58561 0.0
C3022 C 0.50935 0.5549 0.6027 0.0
H3023 H 0.44291 0.53927 0.61582 0.0
H3024 H 0.46027 0.54373 0.60047 0.0
H3025 H 0.45087 0.52069 0.60495 0.0
H3026 H 0.47847 0.51374 0.59535 0.0
H3027 H 0.4904 0.51271 0.56552 0.0
H3028 H 0.79046 0.15267 0.97473 0.0
H3029 H 0.78814 0.17062 0.94871 0.0
H3030 H 0.77341 0.21226 0.98506 0.0
H3031 H 0.77627 0.19494 0.01094 0.0
H3032 H 0.75969 0.18354 0.93277 0.0
H3033 H 0.81703 0.2411 0.96412 0.0
H3034 H 0.81262 0.2192 0.97273 0.0
H3035 H 0.80012 0.23592 0.97963 0.0
C3036 C 0.78669 0.16564 0.97707 0.0
C3037 C 0.78376 0.17254 0.99485 0.0
C3038 C 0.78538 0.17584 0.96227 0.0
C3039 C 0.78106 0.19294 0.96517 0.0
C3040 C 0.7773 0.19935 0.98271 0.0
H3041 H 0.74018 0.25588 0.88619 0.0
H3042 H 0.74425 0.2367 0.91057 0.0
C3043 C 0.77882 0.18935 0.99745 0.0
C3044 C 0.78046 0.20434 0.95005 0.0
H3045 H 0.79658 0.24756 0.93988 0.0
C3046 C 0.76789 0.19747 0.93415 0.0
C3047 C 0.79144 0.22236 0.95182 0.0
C3048 C 0.8062 0.23 0.96791 0.0
C3049 C 0.76548 0.20847 0.92024 0.0
C3050 C 0.77554 0.22692 0.92268 0.0
C3051 C 0.78861 0.23352 0.93825 0.0
C3052 C 0.77316 0.23952 0.90901 0.0
C3053 C 0.75235 0.20016 0.90303 0.0
C3054 C 0.78828 0.24834 0.90099 0.0
C3055 C 0.78611 0.2597 0.88754 0.0
C3056 C 0.76873 0.26227 0.88171 0.0
C3057 C 0.75373 0.25415 0.89042 0.0
C3058 C 0.75597 0.24294 0.90409 0.0
H3059 H 0.75008 0.18502 0.90086 0.0
H3060 H 0.73896 0.20345 0.90459 0.0
H3061 H 0.75741 0.20568 0.89048 0.0
H3062 H 0.80171 0.24611 0.90483 0.0
H3063 H 0.79799 0.26611 0.88136 0.0
H3064 H 0.14577 0.51023 0.20839 0.0
H3065 H 0.13223 0.50516 0.17588 0.0
H3066 H 0.07882 0.50168 0.19323 0.0
H3067 H 0.09206 0.5065 0.22564 0.0
H3068 H 0.07999 0.47638 0.16073 0.0
H3069 H 0.1144 0.5489 0.1566 0.0
H3070 H 0.12896 0.53452 0.16395 0.0
H3071 H 0.11244 0.5398 0.17841 0.0
C3072 C 0.13111 0.50801 0.20531 0.0
C3073 C 0.12005 0.50912 0.21964 0.0
C3074 C 0.12341 0.50516 0.18674 0.0
C3075 C 0.1046 0.50336 0.18225 0.0
C3076 C 0.09339 0.50312 0.19645 0.0
H3077 H 0.02835 0.50868 0.08831 0.0
H3078 H 0.04276 0.50221 0.11761 0.0
C3079 C 0.10103 0.50599 0.21498 0.0
C3080 C 0.09678 0.50376 0.16301 0.0
H3081 H 0.09586 0.5324 0.12999 0.0
C3082 C 0.08353 0.48854 0.15388 0.0
C3083 C 0.10135 0.51974 0.15429 0.0
C3084 C 0.11495 0.53675 0.1638 0.0
C3085 C 0.07476 0.48887 0.1361 0.0
C3086 C 0.07915 0.50496 0.12752 0.0
C3087 C 0.09257 0.52007 0.1366 0.0
C3088 C 0.06994 0.50679 0.10924 0.0
C3089 C 0.06101 0.47198 0.12663 0.0
C3090 C 0.08046 0.51162 0.09493 0.0
C3091 C 0.07236 0.51561 0.0784 0.0
C3092 C 0.05353 0.51481 0.07581 0.0
C3093 C 0.04287 0.50937 0.0899 0.0
C3094 C 0.05105 0.50553 0.10658 0.0
H3095 H 0.06297 0.4595 0.13255 0.0
H3096 H 0.04705 0.47349 0.12863 0.0
H3097 H 0.06193 0.47006 0.11148 0.0
H3098 H 0.09505 0.51271 0.09672 0.0
H3099 H 0.08094 0.51953 0.06773 0.0
H3100 H 0.78429 0.88144 0.46744 0.0
H3101 H 0.78749 0.86695 0.43673 0.0
H3102 H 0.79721 0.81979 0.46083 0.0
H3103 H 0.79353 0.83401 0.49151 0.0
H3104 H 0.81545 0.85595 0.42292 0.0
H3105 H 0.75759 0.79533 0.41954 0.0
H3106 H 0.76127 0.81476 0.43719 0.0
H3107 H 0.77447 0.79787 0.43923 0.0
C3108 C 0.78705 0.86795 0.46621 0.0
C3109 C 0.7885 0.85885 0.48195 0.0
C3110 C 0.78891 0.85967 0.4486 0.0
C3111 C 0.79226 0.84206 0.44626 0.0
C3112 C 0.79413 0.83313 0.46207 0.0
H3113 H 0.80453 0.77616 0.34215 0.0
H3114 H 0.80651 0.78772 0.37534 0.0
C3115 C 0.79215 0.84136 0.47967 0.0
C3116 C 0.79398 0.83331 0.42733 0.0
H3117 H 0.77571 0.79596 0.39482 0.0
C3118 C 0.80677 0.8428 0.41685 0.0
C3119 C 0.78273 0.81608 0.41927 0.0
C3120 C 0.76813 0.80547 0.42929 0.0
C3121 C 0.80847 0.83572 0.39865 0.0
C3122 C 0.79703 0.8187 0.39051 0.0
C3123 C 0.78458 0.80893 0.40109 0.0
C3124 C 0.79658 0.81173 0.37051 0.0
C3125 C 0.82246 0.84659 0.38816 0.0
C3126 C 0.79029 0.82128 0.35678 0.0
C3127 C 0.78902 0.81468 0.33797 0.0
C3128 C 0.79408 0.79833 0.33226 0.0
C3129 C 0.80064 0.78884 0.34601 0.0
C3130 C 0.80171 0.7954 0.36498 0.0
H3131 H 0.83322 0.85673 0.39766 0.0
H3132 H 0.82904 0.83742 0.37972 0.0
H3133 H 0.81558 0.85414 0.37859 0.0
H3134 H 0.78604 0.83376 0.36065 0.0
H3135 H 0.78394 0.82244 0.32786 0.0
H3136 H 0.42991 0.5316 0.82807 0.0
H3137 H 0.4443 0.52966 0.85909 0.0
H3138 H 0.4907 0.51706 0.83528 0.0
H3139 H 0.47664 0.5196 0.80433 0.0
H3140 H 0.45482 0.50312 0.87525 0.0
H3141 H 0.51616 0.55877 0.87385 0.0
H3142 H 0.49663 0.5542 0.85639 0.0
H3143 H 0.51327 0.54058 0.85519 0.0
C3144 C 0.44319 0.52844 0.82944 0.0
C3145 C 0.45218 0.52594 0.81369 0.0
C3146 C 0.45142 0.5273 0.84722 0.0
C3147 C 0.46883 0.52359 0.84972 0.0
C3148 C 0.47754 0.52048 0.83391 0.0
H3149 H 0.51341 0.49487 0.95652 0.0
H3150 H 0.50034 0.4933 0.92411 0.0
C3151 C 0.46941 0.52181 0.81615 0.0
C3152 C 0.47779 0.52304 0.86884 0.0
H3153 H 0.51641 0.54165 0.89925 0.0
C3154 C 0.46829 0.51156 0.88048 0.0
C3155 C 0.4953 0.5342 0.87589 0.0
C3156 C 0.50587 0.54776 0.86476 0.0
C3157 C 0.47574 0.51092 0.89881 0.0
C3158 C 0.49345 0.52173 0.90569 0.0
C3159 C 0.50294 0.53318 0.89402 0.0
C3160 C 0.50194 0.52236 0.92526 0.0
C3161 C 0.46423 0.49915 0.91082 0.0
C3162 C 0.5079 0.53923 0.93666 0.0
C3163 C 0.51565 0.54019 0.95504 0.0
C3164 C 0.51768 0.52428 0.96268 0.0
C3165 C 0.512 0.50739 0.9512 0.0
C3166 C 0.50434 0.50646 0.93266 0.0
H3167 H 0.44951 0.49575 0.90533 0.0
H3168 H 0.46858 0.48611 0.91114 0.0
H3169 H 0.46589 0.50605 0.92528 0.0
H3170 H 0.50631 0.55174 0.9314 0.0
H3171 H 0.51979 0.55349 0.96336 0.0
H3172 H 0.81517 0.16947 0.09249 0.0
H3173 H 0.82545 0.18355 0.12483 0.0
H3174 H 0.77298 0.19605 0.12875 0.0
H3175 H 0.76289 0.18255 0.09651 0.0
H3176 H 0.82153 0.22413 0.1335 0.0
H3177 H 0.78949 0.1747 0.17897 0.0
H3178 H 0.79568 0.16761 0.15649 0.0
H3179 H 0.77546 0.17605 0.15805 0.0
C3180 C 0.8057 0.1747 0.10053 0.0
C3181 C 0.7883 0.17505 0.0922 0.0
C3182 C 0.81159 0.18277 0.11886 0.0
C3183 C 0.7999 0.19071 0.129 0.0
C3184 C 0.78207 0.1898 0.12108 0.0
H3185 H 0.78771 0.27415 0.20494 0.0
H3186 H 0.79446 0.25599 0.17783 0.0
C3187 C 0.77635 0.18214 0.10274 0.0
C3188 C 0.80667 0.20227 0.1468 0.0
H3189 H 0.79749 0.20636 0.19155 0.0
C3190 C 0.81679 0.22018 0.1464 0.0
C3191 C 0.80038 0.19695 0.16342 0.0
C3192 C 0.78975 0.17773 0.1644 0.0
C3193 C 0.8196 0.23338 0.162 0.0
C3194 C 0.81204 0.22841 0.1782 0.0
C3195 C 0.80318 0.21013 0.17901 0.0
C3196 C 0.81141 0.24209 0.19385 0.0
C3197 C 0.82992 0.25267 0.16081 0.0
C3198 C 0.81906 0.24051 0.21164 0.0
C3199 C 0.81517 0.25074 0.22703 0.0
C3200 C 0.8034 0.26258 0.22488 0.0
C3201 C 0.7968 0.26513 0.20696 0.0
C3202 C 0.80072 0.25484 0.1915 0.0
H3203 H 0.83911 0.2531 0.14978 0.0
H3204 H 0.82003 0.26102 0.1574 0.0
H3205 H 0.83816 0.259 0.17427 0.0
H3206 H 0.82729 0.2307 0.21367 0.0
H3207 H 0.82073 0.24872 0.24069 0.0
H3208 H 0.18091 0.5496 0.3251 0.0
H3209 H 0.17354 0.56464 0.35397 0.0
H3210 H 0.11696 0.53622 0.33985 0.0
H3211 H 0.12409 0.52139 0.31107 0.0
H3212 H 0.14053 0.58566 0.35312 0.0
H3213 H 0.13768 0.52914 0.39655 0.0
H3214 H 0.15227 0.53237 0.37832 0.0
H3215 H 0.12825 0.52247 0.37257 0.0
C3216 C 0.16696 0.5464 0.32833 0.0
C3217 C 0.15304 0.53433 0.31592 0.0
C3218 C 0.1628 0.55505 0.34471 0.0
C3219 C 0.14475 0.55144 0.3489 0.0
C3220 C 0.13098 0.53906 0.33678 0.0
H3221 H 0.06361 0.58437 0.39943 0.0
H3222 H 0.08841 0.58251 0.38091 0.0
C3223 C 0.13507 0.53062 0.32039 0.0
C3224 C 0.1397 0.56091 0.36553 0.0
H3225 H 0.12099 0.55136 0.40498 0.0
C3226 C 0.13671 0.57846 0.36479 0.0
C3227 C 0.13498 0.55151 0.38072 0.0
C3228 C 0.13856 0.53287 0.38227 0.0
C3229 C 0.12767 0.58627 0.37823 0.0
C3230 C 0.12128 0.57605 0.39245 0.0
C3231 C 0.12577 0.55918 0.39402 0.0
C3232 C 0.10784 0.5811 0.4042 0.0
C3233 C 0.12443 0.60503 0.37661 0.0
C3234 C 0.1105 0.58106 0.42349 0.0
C3235 C 0.09616 0.58164 0.43405 0.0
C3236 C 0.07888 0.58229 0.4255 0.0
C3237 C 0.07666 0.58362 0.40639 0.0
C3238 C 0.09095 0.58288 0.39582 0.0
H3239 H 0.13567 0.61355 0.37036 0.0
H3240 H 0.11158 0.60368 0.36732 0.0
H3241 H 0.12324 0.61222 0.39033 0.0
H3242 H 0.12337 0.57953 0.4302 0.0
H3243 H 0.09833 0.58037 0.44869 0.0
H3244 H 0.7887 0.82543 0.57545 0.0
H3245 H 0.78539 0.8185 0.60688 0.0
H3246 H 0.77908 0.87298 0.62297 0.0
H3247 H 0.78209 0.88004 0.59108 0.0
H3248 H 0.80733 0.8342 0.63833 0.0
H3249 H 0.73698 0.84238 0.64499 0.0
H3250 H 0.74582 0.84106 0.6229 0.0
H3251 H 0.7525 0.86189 0.63873 0.0
C3252 C 0.78648 0.83601 0.58554 0.0
C3253 C 0.78572 0.85338 0.58057 0.0
C3254 C 0.78459 0.83197 0.60362 0.0
C3255 C 0.78186 0.84511 0.61742 0.0
C3256 C 0.78085 0.86244 0.61257 0.0
H3257 H 0.77744 0.83047 0.73642 0.0
H3258 H 0.77899 0.84466 0.70755 0.0
C3259 C 0.78266 0.86651 0.5943 0.0
C3260 C 0.78092 0.84054 0.63688 0.0
H3261 H 0.75295 0.8345 0.67117 0.0
C3262 C 0.79545 0.8344 0.6455 0.0
C3263 C 0.7655 0.84083 0.64643 0.0
C3264 C 0.74922 0.84674 0.63779 0.0
C3265 C 0.79482 0.82819 0.66301 0.0
C3266 C 0.77919 0.82793 0.67227 0.0
C3267 C 0.76492 0.83469 0.66406 0.0
C3268 C 0.77706 0.81942 0.68977 0.0
C3269 C 0.81084 0.8217 0.67141 0.0
C3270 C 0.77509 0.80048 0.68937 0.0
C3271 C 0.77411 0.79234 0.70574 0.0
C3272 C 0.77511 0.80291 0.72305 0.0
C3273 C 0.77663 0.82187 0.72339 0.0
C3274 C 0.77751 0.83002 0.70689 0.0
H3275 H 0.82335 0.82668 0.66482 0.0
H3276 H 0.81376 0.82636 0.68657 0.0
H3277 H 0.80751 0.80652 0.6694 0.0
H3278 H 0.77453 0.79198 0.67634 0.0
H3279 H 0.77289 0.77772 0.70481 0.0
H3280 H 0.76151 0.46124 0.53271 0.0
H3281 H 0.7442 0.48013 0.54913 0.0
H3282 H 0.69408 0.44031 0.52824 0.0
H3283 H 0.71123 0.4214 0.51165 0.0
H3284 H 0.69541 0.47619 0.5201 0.0
H3285 H 0.71578 0.47483 0.5951 0.0
H3286 H 0.73419 0.47952 0.58109 0.0
H3287 H 0.71838 0.45754 0.57721 0.0
C3288 C 0.74683 0.45637 0.53185 0.0
C3289 C 0.73768 0.43993 0.52078 0.0
C3290 C 0.737 0.4671 0.54137 0.0
C3291 C 0.71793 0.46149 0.54 0.0
C3292 C 0.70883 0.44477 0.52952 0.0
H3293 H 0.63363 0.50539 0.58296 0.0
H3294 H 0.65752 0.48874 0.57905 0.0
C3295 C 0.71863 0.43403 0.52002 0.0
C3296 C 0.70726 0.47402 0.54753 0.0
H3297 H 0.69808 0.49595 0.58754 0.0
C3298 C 0.69598 0.48052 0.53484 0.0
C3299 C 0.70809 0.47954 0.56676 0.0
C3300 C 0.71964 0.47242 0.5809 0.0
C3301 C 0.68541 0.49242 0.54083 0.0
C3302 C 0.68643 0.49822 0.56004 0.0
C3303 C 0.69763 0.49167 0.57281 0.0
C3304 C 0.67481 0.51007 0.56685 0.0
C3305 C 0.67289 0.49836 0.52657 0.0
C3306 C 0.67721 0.52791 0.56218 0.0
C3307 C 0.66352 0.53736 0.5642 0.0
C3308 C 0.64731 0.52906 0.57096 0.0
C3309 C 0.64586 0.51195 0.5774 0.0
C3310 C 0.65952 0.5025 0.57533 0.0
H3311 H 0.67118 0.48993 0.51283 0.0
H3312 H 0.65921 0.49747 0.53123 0.0
H3313 H 0.67872 0.51282 0.52477 0.0
H3314 H 0.68903 0.53395 0.55572 0.0
H3315 H 0.66502 0.55049 0.55907 0.0
H3316 H 0.20433 0.16939 0.47589 0.0
H3317 H 0.17608 0.14592 0.47541 0.0
H3318 H 0.20389 0.1184 0.51366 0.0
H3319 H 0.2323 0.14132 0.51356 0.0
H3320 H 0.18126 0.09394 0.48882 0.0
H3321 H 0.14389 0.14436 0.51556 0.0
H3322 H 0.15208 0.14885 0.49385 0.0
H3323 H 0.1681 0.15045 0.51421 0.0
C3324 C 0.20446 0.15828 0.48412 0.0
C3325 C 0.22059 0.15737 0.49489 0.0
C3326 C 0.18824 0.14491 0.48394 0.0
C3327 C 0.18765 0.13058 0.49488 0.0
C3328 C 0.20389 0.12933 0.50516 0.0
H3329 H 0.09228 0.07212 0.53699 0.0
H3330 H 0.12123 0.09126 0.53141 0.0
C3331 C 0.22017 0.1425 0.5051 0.0
C3332 C 0.17012 0.11716 0.49614 0.0
H3333 H 0.12675 0.11395 0.50718 0.0
C3334 C 0.16933 0.09832 0.49284 0.0
C3335 C 0.15457 0.12279 0.50161 0.0
C3336 C 0.15471 0.1427 0.5067 0.0
C3337 C 0.15359 0.08504 0.49505 0.0
C3338 C 0.13794 0.0907 0.50018 0.0
C3339 C 0.13866 0.10953 0.50316 0.0
C3340 C 0.12102 0.07761 0.50377 0.0
C3341 C 0.15418 0.06514 0.49256 0.0
C3342 C 0.11126 0.06316 0.49028 0.0
C3343 C 0.09473 0.05184 0.49365 0.0
C3344 C 0.08749 0.05508 0.51038 0.0
C3345 C 0.09744 0.06932 0.52391 0.0
C3346 C 0.11401 0.08033 0.5207 0.0
H3347 H 0.16843 0.06346 0.49377 0.0
H3348 H 0.14689 0.05764 0.50299 0.0
H3349 H 0.14743 0.05875 0.47852 0.0
H3350 H 0.11608 0.06097 0.47693 0.0
H3351 H 0.08725 0.04112 0.48288 0.0
H3352 H 0.17811 0.00753 0.75872 0.0
H3353 H 0.19374 0.98286 0.75325 0.0
H3354 H 0.15118 0.9461 0.77538 0.0
H3355 H 0.13517 0.97065 0.78035 0.0
H3356 H 0.20814 0.96515 0.77793 0.0
H3357 H 0.15567 0.91424 0.72952 0.0
H3358 H 0.15396 0.93753 0.73517 0.0
H3359 H 0.14754 0.92097 0.75084 0.0
C3360 C 0.1719 0.99412 0.76216 0.0
C3361 C 0.15531 0.99106 0.76989 0.0
C3362 C 0.1809 0.98 0.75907 0.0
C3363 C 0.17361 0.96246 0.76368 0.0
C3364 C 0.15693 0.95932 0.77124 0.0
H3365 H 0.21937 0.8661 0.76784 0.0
H3366 H 0.20063 0.88846 0.7711 0.0
C3367 C 0.1478 0.97342 0.77417 0.0
C3368 C 0.18408 0.94793 0.76152 0.0
H3369 H 0.18145 0.90416 0.74178 0.0
C3370 C 0.20228 0.95186 0.76993 0.0
C3371 C 0.17652 0.93048 0.75116 0.0
C3372 C 0.15741 0.92558 0.741 0.0
C3373 C 0.213 0.93893 0.76835 0.0
C3374 C 0.20545 0.92155 0.75799 0.0
C3375 C 0.18722 0.91747 0.74975 0.0
C3376 C 0.21643 0.90761 0.75535 0.0
C3377 C 0.23231 0.94388 0.77801 0.0
C3378 C 0.23138 0.91074 0.74513 0.0
C3379 C 0.24203 0.89788 0.74302 0.0
C3380 C 0.23804 0.88153 0.75116 0.0
C3381 C 0.22282 0.87835 0.76116 0.0
C3382 C 0.2121 0.89119 0.76315 0.0
H3383 H 0.23477 0.95609 0.78861 0.0
H3384 H 0.2354 0.93228 0.78482 0.0
H3385 H 0.24196 0.94698 0.76759 0.0
H3386 H 0.23482 0.92317 0.73872 0.0
H3387 H 0.25333 0.90073 0.73488 0.0
H3388 H 0.34027 0.90195 0.97958 0.0
H3389 H 0.36983 0.92391 0.98189 0.0
H3390 H 0.34403 0.96842 0.99384 0.0
H3391 H 0.3145 0.94669 0.99175 0.0
H3392 H 0.38253 0.95581 0.96372 0.0
H3393 H 0.38198 0.97214 0.03981 0.0
H3394 H 0.36656 0.95245 0.02623 0.0
H3395 H 0.36249 0.97484 0.02525 0.0
C3396 C 0.34083 0.91642 0.98243 0.0
C3397 C 0.32508 0.92254 0.98576 0.0
C3398 C 0.35771 0.92893 0.98374 0.0
C3399 C 0.35906 0.94769 0.98836 0.0
C3400 C 0.34325 0.95394 0.99059 0.0
H3401 H 0.46283 0.02967 0.99301 0.0
H3402 H 0.43014 0.01487 0.98699 0.0
C3403 C 0.3264 0.94148 0.98935 0.0
C3404 C 0.37717 0.96057 0.99202 0.0
H3405 H 0.40746 0.98765 0.02694 0.0
C3406 C 0.38797 0.96293 0.97748 0.0
C3407 C 0.38415 0.96968 0.01005 0.0
C3408 C 0.3733 0.96711 0.02631 0.0
C3409 C 0.40581 0.97396 0.98058 0.0
C3410 C 0.41282 0.98293 -0.00136 0.0
C3411 C 0.40188 0.98086 0.01309 0.0
C3412 C 0.43212 0.99288 0.00325 0.0
C3413 C 0.41729 0.97536 0.96473 0.0
C3414 C 0.44378 0.9857 0.01487 0.0
C3415 C 0.46234 0.99408 0.01836 0.0
C3416 C 0.46954 0.00985 0.01034 0.0
C3417 C 0.45767 0.01749 -0.00068 0.0
C3418 C 0.43906 0.00902 0.99578 0.0
H3419 H 0.41077 0.96534 0.95239 0.0
H3420 H 0.4193 0.98931 0.96059 0.0
H3421 H 0.43096 0.97306 0.9691 0.0
H3422 H 0.4386 0.9733 0.02084 0.0
H3423 H 0.47108 0.98798 0.02709 0.0
H3424 H 0.88818 0.59312 0.77563 0.0
H3425 H 0.86715 0.60898 0.76053 0.0
H3426 H 0.82503 0.55891 0.75076 0.0
H3427 H 0.8459 0.54292 0.76594 0.0
H3428 H 0.84557 0.60041 0.72331 0.0
H3429 H 0.8038 0.59669 0.78239 0.0
H3430 H 0.82658 0.59294 0.78445 0.0
H3431 H 0.80793 0.57564 0.77191 0.0
C3432 C 0.87449 0.58545 0.77016 0.0
C3433 C 0.86862 0.56684 0.77214 0.0
C3434 C 0.86254 0.59451 0.76148 0.0
C3435 C 0.84456 0.58511 0.75471 0.0
C3436 C 0.83883 0.56639 0.75608 0.0
H3437 H 0.75891 0.64254 0.72972 0.0
H3438 H 0.77354 0.61675 0.72966 0.0
C3439 C 0.85077 0.55731 0.76475 0.0
C3440 C 0.83159 0.59527 0.74728 0.0
H3441 H 0.79613 0.61328 0.75877 0.0
C3442 C 0.83458 0.60306 0.73089 0.0
C3443 C 0.8172 0.59849 0.75715 0.0
C3444 C 0.81365 0.59063 0.77502 0.0
C3445 C 0.82388 0.61457 0.7244 0.0
C3446 C 0.81018 0.61866 0.73487 0.0
C3447 C 0.80661 0.61009 0.75074 0.0
C3448 C 0.80102 0.63349 0.73117 0.0
C3449 C 0.82757 0.62245 0.7066 0.0
C3450 C 0.81159 0.65136 0.73166 0.0
C3451 C 0.8033 0.66602 0.73157 0.0
C3452 C 0.78427 0.66314 0.73127 0.0
C3453 C 0.77358 0.64515 0.72984 0.0
C3454 C 0.78192 0.63043 0.72987 0.0
H3455 H 0.83292 0.61307 0.69705 0.0
H3456 H 0.81506 0.62517 0.69936 0.0
H3457 H 0.83812 0.63553 0.70982 0.0
H3458 H 0.82636 0.65413 0.73313 0.0
H3459 H 0.81185 0.67972 0.73244 0.0
H3460 H 0.80395 0.63315 0.02918 0.0
H3461 H 0.82856 0.61731 0.03309 0.0
H3462 H 0.86746 0.66552 0.02333 0.0
H3463 H 0.8428 0.68159 0.01944 0.0
H3464 H 0.85122 0.6108 0.00572 0.0
H3465 H 0.89202 0.65038 0.0704 0.0
H3466 H 0.86868 0.65125 0.06364 0.0
H3467 H 0.88679 0.66355 0.05234 0.0
C3468 C 0.81777 0.64053 0.02811 0.0
C3469 C 0.82138 0.65869 0.02403 0.0
C3470 C 0.83183 0.6314 0.03031 0.0
C3471 C 0.8499 0.64022 0.02863 0.0
C3472 C 0.85368 0.6585 0.02497 0.0
H3473 H 0.94954 0.59892 0.03514 0.0
H3474 H 0.92759 0.61807 0.03188 0.0
C3475 C 0.83955 0.66766 0.02271 0.0
C3476 C 0.86445 0.62981 0.0297 0.0
H3477 H 0.90382 0.62718 0.05532 0.0
C3478 C 0.86273 0.61439 0.01657 0.0
C3479 C 0.87956 0.63458 0.04375 0.0
C3480 C 0.88191 0.65075 0.05845 0.0
C3481 C 0.87563 0.60361 0.01709 0.0
C3482 C 0.89049 0.60805 0.03144 0.0
C3483 C 0.89242 0.6237 0.04437 0.0
C3484 C 0.90388 0.59639 0.03346 0.0
C3485 C 0.87333 0.58771 0.00205 0.0
C3486 C 0.89797 0.57784 0.0357 0.0
C3487 C 0.91046 0.56679 0.03737 0.0
C3488 C 0.92926 0.57404 0.03706 0.0
C3489 C 0.93518 0.59274 0.03514 0.0
C3490 C 0.92265 0.60377 0.03342 0.0
H3491 H 0.86494 0.58952 0.98934 0.0
H3492 H 0.88675 0.58595 -0.00174 0.0
H3493 H 0.86622 0.57498 0.0071 0.0
H3494 H 0.88364 0.57186 0.03618 0.0
H3495 H 0.9053 0.55247 0.03865 0.0
H3496 H 0.14065 0.10939 0.79974 0.0
H3497 H 0.16447 0.13719 0.79968 0.0
H3498 H 0.20402 0.10478 0.79246 0.0
H3499 H 0.18017 0.07684 0.79198 0.0
H3500 H 0.19601 0.15232 0.82176 0.0
H3501 H 0.21149 0.13476 0.75019 0.0
H3502 H 0.19191 0.12197 0.75931 0.0
H3503 H 0.21422 0.11817 0.76545 0.0
C3504 C 0.15441 0.10812 0.79817 0.0
C3505 C 0.15839 0.09078 0.79569 0.0
C3506 C 0.16805 0.12408 0.79814 0.0
C3507 C 0.18602 0.12313 0.79568 0.0
C3508 C 0.19019 0.1059 0.79386 0.0
H3509 H 0.28 0.21516 0.78769 0.0
H3510 H 0.26233 0.18493 0.79307 0.0
C3511 C 0.17652 0.08991 0.79372 0.0
C3512 C 0.20023 0.14022 0.79497 0.0
H3513 H 0.22966 0.16214 0.76714 0.0
C3514 C 0.20342 0.15438 0.80984 0.0
C3515 C 0.20999 0.14301 0.77944 0.0
C3516 C 0.20666 0.12876 0.76261 0.0
C3517 C 0.21579 0.17125 0.80948 0.0
C3518 C 0.22522 0.17412 0.79382 0.0
C3519 C 0.22253 0.15983 0.77921 0.0
C3520 C 0.23634 0.19246 0.79148 0.0
C3521 C 0.2185 0.18602 0.82574 0.0
C3522 C 0.22761 0.20662 0.78876 0.0
C3523 C 0.23755 0.22369 0.78552 0.0
C3524 C 0.25656 0.2271 0.785 0.0
C3525 C 0.26542 0.213 0.78808 0.0
C3526 C 0.25534 0.19573 0.7911 0.0
H3527 H 0.21389 0.18036 0.8384 0.0
H3528 H 0.23309 0.19345 0.82883 0.0
H3529 H 0.21043 0.19605 0.82225 0.0
H3530 H 0.21296 0.20436 0.78879 0.0
H3531 H 0.23025 0.23422 0.78333 0.0
H3532 H 0.3719 0.99 0.30068 0.0
H3533 H 0.35226 0.95925 0.29733 0.0
H3534 H 0.3992 0.93734 0.31009 0.0
H3535 H 0.41913 0.96815 0.31348 0.0
H3536 H 0.35776 0.93094 0.26994 0.0
H3537 H 0.35954 0.91179 0.34161 0.0
H3538 H 0.36495 0.9353 0.33701 0.0
H3539 H 0.38119 0.92155 0.33412 0.0
C3540 C 0.37809 0.97874 0.30314 0.0
C3541 C 0.39715 0.98156 0.30719 0.0
C3542 C 0.36681 0.96117 0.30119 0.0
C3543 C 0.37431 0.9461 0.30344 0.0
C3544 C 0.39317 0.94888 0.30847 0.0
H3545 H 0.32849 0.8321 0.26046 0.0
H3546 H 0.34713 0.8635 0.26702 0.0
C3547 C 0.40453 0.96649 0.31039 0.0
C3548 C 0.36257 0.92742 0.29876 0.0
H3549 H 0.3446 0.88861 0.31717 0.0
C3550 C 0.35485 0.92167 0.28025 0.0
C3551 C 0.35879 0.91549 0.3123 0.0
C3552 C 0.36641 0.92129 0.33242 0.0
C3553 C 0.3435 0.90415 0.27485 0.0
C3554 C 0.33992 0.89212 0.28833 0.0
C3555 C 0.34749 0.89792 0.30689 0.0
C3556 C 0.32822 0.87345 0.28346 0.0
C3557 C 0.33524 0.89868 0.25485 0.0
C3558 C 0.31141 0.86878 0.29044 0.0
C3559 C 0.30069 0.85091 0.28667 0.0
C3560 C 0.30674 0.83736 0.27602 0.0
C3561 C 0.32345 0.84221 0.26871 0.0
C3562 C 0.3341 0.86013 0.27241 0.0
H3563 H 0.33647 0.91065 0.24702 0.0
H3564 H 0.34239 0.889 0.24803 0.0
H3565 H 0.32058 0.89162 0.25397 0.0
H3566 H 0.30668 0.87893 0.299 0.0
H3567 H 0.28794 0.84763 0.29257 0.0
H3568 H 0.55534 0.35883 0.61957 0.0
H3569 H 0.55255 0.38689 0.60678 0.0
H3570 H 0.56161 0.36356 0.55313 0.0
H3571 H 0.56429 0.33522 0.5659 0.0
H3572 H 0.58137 0.40122 0.56302 0.0
H3573 H 0.50846 0.39356 0.57276 0.0
H3574 H 0.52298 0.39233 0.59332 0.0
H3575 H 0.51966 0.37491 0.57376 0.0
C3576 C 0.55681 0.35957 0.60504 0.0
C3577 C 0.56002 0.34448 0.59386 0.0
C3578 C 0.55507 0.37573 0.59765 0.0
C3579 C 0.55656 0.37756 0.57879 0.0
C3580 C 0.56027 0.3627 0.56768 0.0
H3581 H 0.52188 0.46265 0.51838 0.0
H3582 H 0.52579 0.43388 0.52914 0.0
C3583 C 0.56183 0.3464 0.57504 0.0
C3584 C 0.5542 0.39485 0.57083 0.0
H3585 H 0.52375 0.42189 0.56412 0.0
C3586 C 0.56873 0.40565 0.56326 0.0
C3587 C 0.5377 0.40087 0.5708 0.0
C3588 C 0.52122 0.38977 0.57793 0.0
C3589 C 0.56739 0.42221 0.55621 0.0
C3590 C 0.55105 0.42848 0.55665 0.0
C3591 C 0.53638 0.41743 0.5638 0.0
C3592 C 0.54891 0.44634 0.54976 0.0
C3593 C 0.5835 0.43275 0.54807 0.0
C3594 C 0.56041 0.46333 0.55766 0.0
C3595 C 0.5581 0.47993 0.55158 0.0
C3596 C 0.54425 0.48023 0.53726 0.0
C3597 C 0.5328 0.46319 0.5293 0.0
C3598 C 0.535 0.4466 0.53554 0.0
H3599 H 0.59293 0.42403 0.54423 0.0
H3600 H 0.57894 0.43852 0.53555 0.0
H3601 H 0.59125 0.44427 0.5585 0.0
H3602 H 0.57106 0.46385 0.56885 0.0
H3603 H 0.56719 0.4926 0.55825 0.0
H3604 H 0.4311 0.76627 0.43081 0.0
H3605 H 0.40481 0.76631 0.4086 0.0
H3606 H 0.43845 0.7677 0.36412 0.0
H3607 H 0.46494 0.76752 0.38632 0.0
H3608 H 0.41584 0.79448 0.36516 0.0
H3609 H 0.37533 0.72413 0.36825 0.0
H3610 H 0.38375 0.73769 0.39038 0.0
H3611 H 0.39959 0.73123 0.3757 0.0
C3612 C 0.43297 0.7664 0.41629 0.0
C3613 C 0.45028 0.76679 0.41046 0.0
C3614 C 0.41781 0.76637 0.40354 0.0
C3615 C 0.41948 0.76686 0.38457 0.0
C3616 C 0.43671 0.76724 0.37864 0.0
H3617 H 0.33028 0.75208 0.29335 0.0
H3618 H 0.35708 0.74967 0.3138 0.0
C3619 C 0.45187 0.76705 0.39138 0.0
C3620 C 0.40337 0.76755 0.37114 0.0
H3621 H 0.36028 0.74357 0.35249 0.0
C3622 C 0.40374 0.78331 0.36235 0.0
C3623 C 0.38752 0.75297 0.36727 0.0
C3624 C 0.38646 0.73546 0.37574 0.0
C3625 C 0.38865 0.78503 0.35025 0.0
C3626 C 0.37262 0.77064 0.34678 0.0
C3627 C 0.37243 0.7547 0.3552 0.0
C3628 C 0.35597 0.77193 0.33445 0.0
C3629 C 0.39004 0.80222 0.34114 0.0
C3630 C 0.34608 0.78504 0.33927 0.0
C3631 C 0.33062 0.78636 0.32765 0.0
C3632 C 0.32462 0.77466 0.3108 0.0
C3633 C 0.33444 0.76139 0.30612 0.0
C3634 C 0.34981 0.75997 0.31785 0.0
H3635 H 0.40443 0.81008 0.34183 0.0
H3636 H 0.38399 0.79892 0.32636 0.0
H3637 H 0.38234 0.8111 0.34836 0.0
H3638 H 0.3503 0.79426 0.35209 0.0
H3639 H 0.32347 0.79672 0.33183 0.0
H3640 H 0.04165 0.73666 0.10521 0.0
H3641 H 0.03778 0.70341 0.0974 0.0
H3642 H 0.07048 0.71294 0.05263 0.0
H3643 H 0.07446 0.74581 0.06027 0.0
H3644 H 0.02294 0.67916 0.06451 0.0
H3645 H 0.0961 0.67998 0.08036 0.0
H3646 H 0.08688 0.69923 0.08765 0.0
H3647 H 0.092 0.69538 0.0642 0.0
C3648 C 0.04802 0.73171 0.09369 0.0
C3649 C 0.05847 0.74424 0.08352 0.0
C3650 C 0.04579 0.7126 0.08921 0.0
C3651 C 0.05412 0.70541 0.07458 0.0
C3652 C 0.06423 0.71789 0.06425 0.0
H3653 H 0.06165 0.59666 0.02365 0.0
H3654 H 0.06459 0.62952 0.03258 0.0
C3655 C 0.06638 0.73687 0.06862 0.0
C3656 C 0.05222 0.68502 0.06987 0.0
H3657 H 0.07698 0.65234 0.06426 0.0
C3658 C 0.03478 0.67331 0.06463 0.0
C3659 C 0.06757 0.67712 0.06979 0.0
C3660 C 0.08669 0.68852 0.07596 0.0
C3661 C 0.03231 0.65432 0.05894 0.0
C3662 C 0.04768 0.64641 0.05885 0.0
C3663 C 0.06512 0.65813 0.06419 0.0
C3664 C 0.04598 0.62611 0.05342 0.0
C3665 C 0.0132 0.64305 0.05244 0.0
C3666 C 0.03486 0.61287 0.06225 0.0
C3667 C 0.03313 0.59402 0.05712 0.0
C3668 C 0.04263 0.58762 0.04307 0.0
C3669 C 0.05408 0.60088 0.03449 0.0
C3670 C 0.05577 0.61979 0.03962 0.0
H3671 H 1.00399 0.65169 0.04779 0.0
H3672 H 0.01309 0.6323 0.04083 0.0
H3673 H 1.00755 0.6363 0.06412 0.0
H3674 H 0.02753 0.61709 0.0733 0.0
H3675 H 0.02425 0.58443 0.06424 0.0
H3676 H 0.03487 0.25123 0.88052 0.0
H3677 H 0.06118 0.25273 0.86318 0.0
H3678 H 0.09605 0.28698 0.90968 0.0
H3679 H 0.06986 0.28504 0.92729 0.0
H3680 H 0.0823 0.28108 0.85151 0.0
H3681 H 0.12653 0.25146 0.89824 0.0
H3682 H 0.10289 0.25026 0.90107 0.0
H3683 H 0.12015 0.27076 0.90978 0.0
C3684 C 0.04819 0.25886 0.88718 0.0
C3685 C 0.05022 0.2679 0.90539 0.0
C3686 C 0.06326 0.25977 0.8772 0.0
C3687 C 0.0808 0.26975 0.8851 0.0
C3688 C 0.08286 0.27875 0.90334 0.0
H3689 H 0.18546 0.30241 0.84162 0.0
H3690 H 0.15986 0.29864 0.86021 0.0
C3691 C 0.0678 0.27771 0.9134 0.0
C3692 C 0.09662 0.27146 0.87391 0.0
H3693 H 0.14043 0.26615 0.87404 0.0
C3694 C 0.09493 0.27766 0.85643 0.0
C3695 C 0.11325 0.26707 0.8802 0.0
C3696 C 0.11579 0.25934 0.89826 0.0
C3697 C 0.10934 0.27986 0.84533 0.0
C3698 C 0.12597 0.27562 0.85169 0.0
C3699 C 0.12773 0.26945 0.86915 0.0
C3700 C 0.14167 0.27757 0.84044 0.0
C3701 C 0.10678 0.28709 0.82699 0.0
C3702 C 0.14016 0.26682 0.82319 0.0
C3703 C 0.15481 0.26893 0.81251 0.0
C3704 C 0.17136 0.2819 0.81877 0.0
C3705 C 0.17289 0.29247 0.83619 0.0
C3706 C 0.15828 0.29025 0.84691 0.0
H3707 H 0.09496 0.29353 0.82598 0.0
H3708 H 0.11923 0.2973 0.82489 0.0
H3709 H 0.10426 0.27561 0.81556 0.0
H3710 H 0.12761 0.25677 0.81796 0.0
H3711 H 0.15303 0.26062 0.79916 0.0
H3712 H 0.54063 0.74745 0.86805 0.0
H3713 H 0.53999 0.71803 0.88028 0.0
H3714 H 0.54306 0.74475 0.93596 0.0
H3715 H 0.54381 0.77373 0.92414 0.0
H3716 H 0.56642 0.70942 0.91417 0.0
H3717 H 0.49332 0.70181 0.92386 0.0
H3718 H 0.50398 0.71513 0.90694 0.0
H3719 H 0.50792 0.72424 0.93108 0.0
C3720 C 0.54149 0.74707 0.8829 0.0
C3721 C 0.54203 0.76298 0.89504 0.0
C3722 C 0.54107 0.73026 0.88987 0.0
C3723 C 0.54124 0.72916 0.90905 0.0
C3724 C 0.54272 0.74519 0.92113 0.0
H3725 H 0.52778 0.65966 0.99409 0.0
H3726 H 0.5308 0.6835 0.97367 0.0
C3727 C 0.54311 0.7618 0.91426 0.0
C3728 C 0.53889 0.71142 0.91688 0.0
H3729 H 0.50932 0.68333 0.94004 0.0
C3730 C 0.55383 0.70343 0.91949 0.0
C3731 C 0.52252 0.70374 0.92399 0.0
C3732 C 0.50593 0.71153 0.92126 0.0
C3733 C 0.55307 0.68848 0.92976 0.0
C3734 C 0.53688 0.68124 0.93747 0.0
C3735 C 0.52176 0.68887 0.93423 0.0
C3736 C 0.53557 0.6665 0.94983 0.0
C3737 C 0.56989 0.68115 0.93308 0.0
C3738 C 0.53716 0.64884 0.94331 0.0
C3739 C 0.53527 0.63502 0.95498 0.0
C3740 C 0.53166 0.63849 0.97347 0.0
C3741 C 0.53022 0.65627 0.97992 0.0
C3742 C 0.53206 0.67002 0.96825 0.0
H3743 H 0.58224 0.69046 0.92938 0.0
H3744 H 0.57239 0.67905 0.94786 0.0
H3745 H 0.56781 0.66772 0.92446 0.0
H3746 H 0.53951 0.64563 0.92907 0.0
H3747 H 0.53619 0.62149 0.94935 0.0
H3748 H 0.08745 0.78515 0.67798 0.0
H3749 H 0.1173 0.78538 0.69378 0.0
H3750 H 0.09202 0.74575 0.72756 0.0
H3751 H 0.06171 0.74527 0.71139 0.0
H3752 H 0.1332 0.7941 0.7293 0.0
H3753 H 0.1296 0.72078 0.70699 0.0
H3754 H 0.11325 0.73241 0.6973 0.0
H3755 H 0.11168 0.72523 0.71993 0.0
C3756 C 0.08808 0.77652 0.68888 0.0
C3757 C 0.07195 0.76511 0.69325 0.0
C3758 C 0.10532 0.77669 0.69796 0.0
C3759 C 0.10726 0.76533 0.71171 0.0
C3760 C 0.09114 0.75439 0.71674 0.0
H3761 H 0.21184 0.74958 0.76734 0.0
H3762 H 0.17926 0.74784 0.75841 0.0
C3763 C 0.0737 0.7543 0.70765 0.0
C3764 C 0.12623 0.76512 0.72032 0.0
H3765 H 0.15677 0.73793 0.72482 0.0
C3766 C 0.13824 0.78174 0.72838 0.0
C3767 C 0.13311 0.74909 0.71929 0.0
C3768 C 0.12135 0.73086 0.7103 0.0
C3769 C 0.15666 0.78284 0.73513 0.0
C3770 C 0.16372 0.76694 0.73356 0.0
C3771 C 0.15159 0.75019 0.72604 0.0
C3772 C 0.18371 0.76763 0.73891 0.0
C3773 C 0.16836 0.80113 0.74407 0.0
C3774 C 0.19736 0.77902 0.73079 0.0
C3775 C 0.216 0.78 0.73583 0.0
C3776 C 0.22177 0.76955 0.74916 0.0
C3777 C 0.20809 0.75788 0.75708 0.0
C3778 C 0.18936 0.75686 0.75195 0.0
H3779 H 0.15993 0.81027 0.74953 0.0
H3780 H 0.1783 0.79954 0.75563 0.0
H3781 H 0.1761 0.80796 0.73354 0.0
H3782 H 0.1936 0.78718 0.72039 0.0
H3783 H 0.22592 0.78912 0.72927 0.0
H3784 H 0.04667 0.34733 0.41333 0.0
H3785 H 0.04404 0.3762 0.42963 0.0
H3786 H 0.05493 0.40251 0.38086 0.0
H3787 H 0.05731 0.37326 0.3642 0.0
H3788 H 0.06942 0.40832 0.43834 0.0
H3789 H 0.00996 0.4195 0.39424 0.0
H3790 H 0.01634 0.39785 0.39259 0.0
H3791 H 0.02888 0.4165 0.38214 0.0
C3792 C 0.04839 0.35917 0.40592 0.0
C3793 C 0.05215 0.35785 0.38734 0.0
C3794 C 0.04691 0.37578 0.41535 0.0
C3795 C 0.04906 0.39166 0.40655 0.0
C3796 C 0.05283 0.39045 0.38795 0.0
H3797 H 0.04209 0.50244 0.454 0.0
H3798 H 0.04712 0.47673 0.4333 0.0
C3799 C 0.0543 0.37372 0.37843 0.0
C3800 C 0.04788 0.40936 0.41727 0.0
H3801 H 0.0235 0.4425 0.41918 0.0
C3802 C 0.0594 0.41579 0.43406 0.0
C3803 C 0.03489 0.41931 0.41179 0.0
C3804 C 0.02169 0.41292 0.3943 0.0
C3805 C 0.0582 0.43158 0.4455 0.0
C3806 C 0.04488 0.44124 0.4403 0.0
C3807 C 0.0337 0.43516 0.42326 0.0
C3808 C 0.04182 0.45706 0.45282 0.0
C3809 C 0.07134 0.43783 0.46306 0.0
C3810 C 0.03693 0.45467 0.47067 0.0
C3811 C 0.03404 0.46932 0.48251 0.0
C3812 C 0.03588 0.48686 0.47689 0.0
C3813 C 0.04064 0.48922 0.45892 0.0
C3814 C 0.04348 0.47448 0.44701 0.0
H3815 H 0.08387 0.43261 0.46227 0.0
H3816 H 0.07537 0.45299 0.46595 0.0
H3817 H 0.06466 0.43247 0.47492 0.0
H3818 H 0.03516 0.44136 0.47543 0.0
H3819 H 0.03029 0.4668 0.49613 0.0
H3820 H 0.45573 0.2567 0.17318 0.0
H3821 H 0.42749 0.25869 0.18599 0.0
H3822 H 0.45087 0.24968 0.23941 0.0
H3823 H 0.47953 0.24826 0.22668 0.0
H3824 H 0.40215 0.237 0.19983 0.0
H3825 H 0.43294 0.29331 0.2562 0.0
H3826 H 0.44579 0.28623 0.23842 0.0
H3827 H 0.44218 0.27362 0.25791 0.0
C3828 C 0.45497 0.2551 0.18769 0.0
C3829 C 0.4702 0.25236 0.19881 0.0
C3830 C 0.43863 0.25625 0.19507 0.0
C3831 C 0.43675 0.25475 0.21392 0.0
C3832 C 0.4518 0.25149 0.22498 0.0
H3833 H 0.32596 0.23849 0.25237 0.0
H3834 H 0.35467 0.2338 0.24204 0.0
C3835 C 0.46826 0.25044 0.2176 0.0
C3836 C 0.41908 0.25651 0.22165 0.0
H3837 H 0.4016 0.2794 0.25614 0.0
C3838 C 0.40215 0.2463 0.21218 0.0
C3839 C 0.41858 0.26881 0.23764 0.0
C3840 C 0.43581 0.28126 0.24804 0.0
C3841 C 0.38516 0.24793 0.21807 0.0
C3842 C 0.38469 0.25983 0.23436 0.0
C3843 C 0.40161 0.27009 0.24381 0.0
C3844 C 0.36695 0.26249 0.24136 0.0
C3845 C 0.36786 0.2373 0.20624 0.0
C3846 C 0.36403 0.28018 0.24534 0.0
C3847 C 0.34763 0.28291 0.2516 0.0
C3848 C 0.33339 0.26806 0.25418 0.0
C3849 C 0.33639 0.25034 0.25048 0.0
C3850 C 0.35289 0.24762 0.24434 0.0
H3851 H 0.37036 0.23343 0.19177 0.0
H3852 H 0.36249 0.22449 0.21213 0.0
H3853 H 0.35723 0.2453 0.2058 0.0
H3854 H 0.3744 0.29203 0.24335 0.0
H3855 H 0.34607 0.2968 0.25422 0.0
H3856 H 0.59045 0.53316 0.32299 0.0
H3857 H 0.57962 0.53201 0.35357 0.0
H3858 H 0.63415 0.53434 0.37855 0.0
H3859 H 0.64508 0.53547 0.348 0.0
H3860 H 0.58199 0.50494 0.37794 0.0
H3861 H 0.6184 0.57458 0.41157 0.0
H3862 H 0.61514 0.56838 0.3867 0.0
H3863 H 0.6323 0.56116 0.40079 0.0
C3864 C 0.6002 0.5336 0.335 0.0
C3865 C 0.61867 0.53446 0.33299 0.0
C3866 C 0.59396 0.5329 0.3525 0.0
C3867 C 0.60606 0.53326 0.36848 0.0
C3868 C 0.62456 0.53432 0.36654 0.0
H3869 H 0.58818 0.53204 0.48631 0.0
H3870 H 0.602 0.53253 0.45715 0.0
C3871 C 0.63079 0.5349 0.34902 0.0
C3872 C 0.59915 0.53182 0.38697 0.0
H3873 H 0.60193 0.55493 0.43047 0.0
C3874 C 0.58635 0.51589 0.38941 0.0
C3875 C 0.60495 0.54598 0.40208 0.0
C3876 C 0.61835 0.56358 0.40023 0.0
C3877 C 0.57926 0.5137 0.40644 0.0
C3878 C 0.58467 0.52806 0.42144 0.0
C3879 C 0.59771 0.54389 0.41908 0.0
C3880 C 0.57635 0.52724 0.43931 0.0
C3881 C 0.56627 0.49581 0.40824 0.0
C3882 C 0.55734 0.52427 0.43919 0.0
C3883 C 0.54942 0.52382 0.45579 0.0
C3884 C 0.56026 0.52659 0.47312 0.0
C3885 C 0.57935 0.5297 0.47328 0.0
C3886 C 0.58728 0.53006 0.45658 0.0
H3887 H 0.56837 0.48447 0.39837 0.0
H3888 H 0.56793 0.49212 0.42254 0.0
H3889 H 0.55203 0.49704 0.40492 0.0
H3890 H 0.54855 0.52259 0.42622 0.0
H3891 H 0.53471 0.52161 0.45496 0.0
H3892 H 0.26705 0.90243 0.05664 0.0
H3893 H 0.26514 0.89369 0.08805 0.0
H3894 H 0.2914 0.84998 0.07397 0.0
H3895 H 0.29338 0.85843 0.0428 0.0
H3896 H 0.25288 0.8428 0.08984 0.0
H3897 H 0.31141 0.89475 0.13037 0.0
H3898 H 0.29625 0.90072 0.11264 0.0
H3899 H 0.3124 0.8879 0.10611 0.0
C3900 C 0.27264 0.89112 0.06034 0.0
C3901 C 0.28027 0.88102 0.04722 0.0
C3902 C 0.27148 0.88615 0.07821 0.0
C3903 C 0.27806 0.87119 0.0831 0.0
C3904 C 0.28619 0.86153 0.07028 0.0
H3905 H 0.29869 0.7947 0.14608 0.0
H3906 H 0.28872 0.81372 0.12401 0.0
C3907 C 0.28729 0.86638 0.0525 0.0
C3908 C 0.27603 0.86471 0.10123 0.0
H3909 H 0.30086 0.86739 0.14325 0.0
C3910 C 0.26298 0.84844 0.1018 0.0
C3911 C 0.28911 0.87228 0.11674 0.0
C3912 C 0.30312 0.88993 0.11663 0.0
C3913 C 0.26376 0.8386 0.11695 0.0
C3914 C 0.27811 0.84515 0.13157 0.0
C3915 C 0.28999 0.86236 0.13186 0.0
C3916 C 0.28275 0.8332 0.14502 0.0
C3917 C 0.24991 0.82076 0.11668 0.0
C3918 C 0.28295 0.83811 0.16408 0.0
C3919 C 0.28862 0.82725 0.1767 0.0
C3920 C 0.29442 0.81149 0.17042 0.0
C3921 C 0.29415 0.80664 0.15129 0.0
C3922 C 0.28839 0.81744 0.1387 0.0
H3923 H 0.23689 0.82064 0.10819 0.0
H3924 H 0.25534 0.80939 0.11041 0.0
H3925 H 0.24706 0.81817 0.13095 0.0
H3926 H 0.27874 0.8503 0.16914 0.0
H3927 H 0.28834 0.83113 0.19136 0.0
H3928 H 0.9439 0.57647 0.84214 0.0
H3929 H 0.96127 0.57492 0.87171 0.0
H3930 H 0.91675 0.53265 0.88374 0.0
H3931 H 0.89891 0.53503 0.85457 0.0
H3932 H 0.93254 0.55362 0.9145 0.0
H3933 H 0.98631 0.53428 0.87619 0.0
H3934 H 0.98336 0.55634 0.87168 0.0
H3935 H 0.96492 0.53636 0.86458 0.0
C3936 C 0.93769 0.56723 0.85139 0.0
C3937 C 0.92016 0.55589 0.84626 0.0
C3938 C 0.94768 0.56615 0.86811 0.0
C3939 C 0.94057 0.55319 0.87958 0.0
C3940 C 0.92257 0.54262 0.87499 0.0
H3941 H 0.01268 0.51665 0.96021 0.0
H3942 H 0.99296 0.51948 0.93255 0.0
C3943 C 0.91235 0.54406 0.85844 0.0
C3944 C 0.95225 0.55013 0.89586 0.0
H3945 H 0.99399 0.54229 0.90899 0.0
C3946 C 0.94593 0.55102 0.9133 0.0
C3947 C 0.96948 0.54614 0.89418 0.0
C3948 C 0.97631 0.543 0.87561 0.0
C3949 C 0.9566 0.5486 0.92922 0.0
C3950 C 0.97442 0.54605 0.92774 0.0
C3951 C 0.9805 0.54461 0.9102 0.0
C3952 C 0.98697 0.54473 0.94417 0.0
C3953 C 0.94842 0.54838 0.94731 0.0
C3954 C 0.99067 0.55828 0.9596 0.0
C3955 C 1.00157 0.55646 0.97547 0.0
C3956 C 0.0095 0.54141 0.97592 0.0
C3957 C 1.00679 0.52844 0.9601 0.0
C3958 C 0.99547 0.53001 0.94437 0.0
H3959 H 0.93327 0.54407 0.94488 0.0
H3960 H 0.95346 0.53899 0.95613 0.0
H3961 H 0.95215 0.56239 0.95502 0.0
H3962 H 0.98492 0.57015 0.95951 0.0
H3963 H 1.00364 0.56672 0.98749 0.0
H3964 H 0.28651 0.19284 0.56886 0.0
H3965 H 0.28686 0.20321 0.60201 0.0
H3966 H 0.26022 0.24546 0.5877 0.0
H3967 H 0.25971 0.23531 0.55487 0.0
H3968 H 0.30256 0.23848 0.62268 0.0
H3969 H 0.22747 0.21966 0.6234 0.0
H3970 H 0.23848 0.21095 0.60473 0.0
H3971 H 0.23484 0.2337 0.60587 0.0
C3972 C 0.28072 0.20433 0.57276 0.0
C3973 C 0.273 0.21311 0.55903 0.0
C3974 C 0.28092 0.21025 0.59174 0.0
C3975 C 0.27325 0.22493 0.59741 0.0
C3976 C 0.26585 0.23387 0.58376 0.0
H3977 H 0.25983 0.2812 0.70529 0.0
H3978 H 0.25901 0.27127 0.67193 0.0
C3979 C 0.2657 0.22805 0.56489 0.0
C3980 C 0.27322 0.23124 0.61752 0.0
H3981 H 0.24505 0.23764 0.6504 0.0
C3982 C 0.28998 0.23818 0.62876 0.0
C3983 C 0.25682 0.23109 0.62547 0.0
C3984 C 0.23836 0.22331 0.61432 0.0
C3985 C 0.2908 0.24516 0.64758 0.0
C3986 C 0.2744 0.24483 0.65561 0.0
C3987 C 0.25763 0.23798 0.64432 0.0
C3988 C 0.27441 0.25077 0.67583 0.0
C3989 C 0.30931 0.25322 0.65856 0.0
C3990 C 0.28288 0.24229 0.68919 0.0
C3991 C 0.2834 0.24793 0.70813 0.0
C3992 C 0.27527 0.26213 0.7144 0.0
C3993 C 0.26627 0.27028 0.70103 0.0
C3994 C 0.26581 0.26462 0.68194 0.0
H3995 H 0.31988 0.25771 0.64935 0.0
H3996 H 0.30898 0.26511 0.66871 0.0
H3997 H 0.31351 0.24266 0.66631 0.0
H3998 H 0.28914 0.23123 0.68496 0.0
H3999 H 0.29031 0.24111 0.71789 0.0
H4000 H 0.62612 0.53264 0.22346 0.0
H4001 H 0.61582 0.53209 0.19035 0.0
H4002 H 0.56358 0.5394 0.20403 0.0
H4003 H 0.57363 0.53994 0.23688 0.0
H4004 H 0.56114 0.512 0.17359 0.0
H4005 H 0.60882 0.57738 0.16505 0.0
H4006 H 0.61913 0.56064 0.17475 0.0
H4007 H 0.60409 0.57091 0.18756 0.0
C4008 C 0.6124 0.53399 0.21942 0.0
C4009 C 0.60079 0.53642 0.23298 0.0
C4010 C 0.60657 0.53384 0.20047 0.0
C4011 C 0.58898 0.53599 0.19466 0.0
C4012 C 0.57723 0.53783 0.2081 0.0
H4013 H 0.54148 0.55917 0.08711 0.0
H4014 H 0.55168 0.56013 0.12039 0.0
C4015 C 0.58306 0.53814 0.22696 0.0
C4016 C 0.58263 0.53631 0.17465 0.0
H4017 H 0.59016 0.56085 0.13803 0.0
C4018 C 0.56752 0.52268 0.16584 0.0
C4019 C 0.59072 0.55039 0.16453 0.0
C4020 C 0.6065 0.56578 0.17342 0.0
C4021 C 0.56057 0.52255 0.14719 0.0
C4022 C 0.56888 0.53641 0.13697 0.0
C4023 C 0.58378 0.55023 0.14584 0.0
C4024 C 0.56277 0.53619 0.11684 0.0
C4025 C 0.54427 0.50762 0.13853 0.0
C4026 C 0.56572 0.52255 0.10377 0.0
C4027 C 0.56006 0.52205 0.08486 0.0
C4028 C 0.55118 0.53514 0.0784 0.0
C4029 C 0.5482 0.54884 0.09153 0.0
C4030 C 0.55407 0.54944 0.11055 0.0
H4031 H 0.53712 0.50027 0.14914 0.0
H4032 H 0.53441 0.51334 0.13012 0.0
H4033 H 0.54889 0.49754 0.12913 0.0
H4034 H 0.5725 0.51227 0.10821 0.0
H4035 H 0.56259 0.51121 0.07529 0.0
H4036 H 0.25447 0.90646 0.93746 0.0
H4037 H 0.25168 0.88967 0.90622 0.0
H4038 H 0.25898 0.84169 0.93035 0.0
H4039 H 0.26137 0.85803 0.96126 0.0
H4040 H 0.27781 0.87411 0.89161 0.0
H4041 H 0.21456 0.82077 0.89247 0.0
H4042 H 0.22106 0.84122 0.90908 0.0
H4043 H 0.23088 0.82202 0.91233 0.0
C4044 C 0.25524 0.89227 0.93603 0.0
C4045 C 0.25808 0.88354 0.95175 0.0
C4046 C 0.25364 0.88272 0.91824 0.0
C4047 C 0.25473 0.86434 0.91605 0.0
C4048 C 0.25756 0.85568 0.93175 0.0
H4049 H 0.27366 0.78444 0.8331 0.0
H4050 H 0.26855 0.80205 0.86143 0.0
C4051 C 0.2591 0.86513 0.94942 0.0
C4052 C 0.25436 0.85442 0.89748 0.0
H4053 H 0.23427 0.81431 0.8699 0.0
C4054 C 0.2681 0.8612 0.88667 0.0
C4055 C 0.24171 0.83754 0.8912 0.0
C4056 C 0.22611 0.83005 0.90181 0.0
C4057 C 0.27001 0.85113 0.87007 0.0
C4058 C 0.25775 0.83399 0.86416 0.0
C4059 C 0.24371 0.82742 0.87466 0.0
C4060 C 0.25948 0.82267 0.84709 0.0
C4061 C 0.28547 0.85856 0.85927 0.0
C4062 C 0.25561 0.82832 0.82981 0.0
C4063 C 0.25847 0.81836 0.8137 0.0
C4064 C 0.26525 0.80255 0.81461 0.0
C4065 C 0.26849 0.79657 0.83195 0.0
C4066 C 0.26558 0.80657 0.84811 0.0
H4067 H 0.29554 0.87047 0.86733 0.0
H4068 H 0.29267 0.84777 0.85517 0.0
H4069 H 0.27987 0.86302 0.84638 0.0
H4070 H 0.25069 0.84062 0.82884 0.0
H4071 H 0.25569 0.8233 0.80056 0.0
H4072 H 0.95585 0.52628 0.75904 0.0
H4073 H 0.96086 0.51744 0.72729 0.0
H4074 H 0.90681 0.52201 0.70739 0.0
H4075 H 0.90151 0.53095 0.73931 0.0
H4076 H 0.93658 0.48575 0.70177 0.0
H4077 H 0.9441 0.55392 0.67651 0.0
H4078 H 0.9477 0.55184 0.70094 0.0
H4079 H 0.92503 0.54547 0.68882 0.0
C4080 C 0.945 0.52555 0.74798 0.0
C4081 C 0.92825 0.52933 0.75176 0.0
C4082 C 0.94789 0.52042 0.72985 0.0
C4083 C 0.9342 0.51909 0.71512 0.0
C4084 C 0.91754 0.52306 0.71866 0.0
H4085 H 0.95842 0.50169 0.60053 0.0
H4086 H 0.94023 0.50424 0.62626 0.0
C4087 C 0.91457 0.52817 0.73688 0.0
C4088 C 0.93764 0.51335 0.69615 0.0
H4089 H 0.95123 0.5305 0.65705 0.0
C4090 C 0.93948 0.49541 0.6918 0.0
C4091 C 0.94123 0.52599 0.68325 0.0
C4092 C 0.93951 0.54543 0.68749 0.0
C4093 C 0.9457 0.48999 0.67514 0.0
C4094 C 0.95051 0.50299 0.66279 0.0
C4095 C 0.94758 0.5206 0.66663 0.0
C4096 C 0.96041 0.4993 0.64689 0.0
C4097 C 0.94752 0.47055 0.67112 0.0
C4098 C 0.97772 0.49559 0.65003 0.0
C4099 C 0.98819 0.49427 0.63545 0.0
C4100 C 0.98157 0.49678 0.61749 0.0
C4101 C 0.96398 0.49994 0.61429 0.0
C4102 C 0.95352 0.50128 0.6289 0.0
H4103 H 0.93792 0.46111 0.67837 0.0
H4104 H 0.9449 0.46573 0.65599 0.0
H4105 H 0.9616 0.46985 0.6762 0.0
H4106 H 0.98346 0.49447 0.66392 0.0
H4107 H 1.00178 0.4921 0.6384 0.0
H4108 H 0.26831 0.21965 0.46786 0.0
H4109 H 0.26947 0.23133 0.4378 0.0
H4110 H 0.2951 0.18874 0.41802 0.0
H4111 H 0.293 0.17647 0.44768 0.0
H4112 H 0.29559 0.24576 0.42024 0.0
H4113 H 0.25758 0.18286 0.37524 0.0
H4114 H 0.25889 0.18477 0.40017 0.0
H4115 H 0.2772 0.17903 0.38852 0.0
C4116 C 0.27396 0.21263 0.457 0.0
C4117 C 0.28036 0.19699 0.46013 0.0
C4118 C 0.2747 0.21937 0.43979 0.0
C4119 C 0.28206 0.2108 0.42529 0.0
C4120 C 0.28875 0.19533 0.42857 0.0
H4121 H 0.31544 0.26849 0.32986 0.0
H4122 H 0.31527 0.25592 0.35956 0.0
C4123 C 0.28766 0.18836 0.44565 0.0
C4124 C 0.28319 0.21837 0.40706 0.0
H4125 H 0.27382 0.20664 0.35997 0.0
C4126 C 0.29071 0.23718 0.40708 0.0
C4127 C 0.27663 0.20738 0.38973 0.0
C4128 C 0.26695 0.18745 0.38839 0.0
C4129 C 0.29188 0.24522 0.39048 0.0
C4130 C 0.28607 0.23408 0.37312 0.0
C4131 C 0.27853 0.21528 0.37313 0.0
C4132 C 0.28668 0.24162 0.35484 0.0
C4133 C 0.29874 0.26571 0.39187 0.0
C4134 C 0.27098 0.23728 0.34174 0.0
C4135 C 0.27123 0.244 0.32456 0.0
C4136 C 0.28713 0.25549 0.31997 0.0
C4137 C 0.30291 0.25983 0.33299 0.0
C4138 C 0.30276 0.25276 0.3501 0.0
H4139 H 0.29713 0.27262 0.4056 0.0
H4140 H 0.31351 0.26905 0.39029 0.0
H4141 H 0.29138 0.27142 0.38089 0.0
H4142 H 0.25837 0.22877 0.34486 0.0
H4143 H 0.25876 0.24041 0.31498 0.0
H4144 H 0.34231 0.63512 0.5326 0.0
H4145 H 0.36149 0.61329 0.52808 0.0
H4146 H 0.31425 0.56843 0.52573 0.0
H4147 H 0.29524 0.59011 0.53104 0.0
H4148 H 0.34222 0.56184 0.54563 0.0
H4149 H 0.36425 0.58427 0.47983 0.0
H4150 H 0.37015 0.6027 0.49852 0.0
H4151 H 0.34648 0.5921 0.49068 0.0
C4152 C 0.33608 0.6206 0.53117 0.0
C4153 C 0.31731 0.61429 0.53207 0.0
C4154 C 0.34699 0.60815 0.52844 0.0
C4155 C 0.3392 0.58923 0.52611 0.0
C4156 C 0.32052 0.58296 0.52739 0.0
H4157 H 0.40282 0.51591 0.48171 0.0
H4158 H 0.37711 0.52975 0.48637 0.0
C4159 C 0.30969 0.59537 0.53042 0.0
C4160 C 0.35048 0.57592 0.52248 0.0
H4161 H 0.38071 0.56483 0.49419 0.0
C4162 C 0.3505 0.56237 0.53427 0.0
C4163 C 0.3609 0.57631 0.50737 0.0
C4164 C 0.3603 0.5895 0.49327 0.0
C4165 C 0.36119 0.5496 0.53174 0.0
C4166 C 0.37258 0.55081 0.51742 0.0
C4167 C 0.37206 0.56397 0.50526 0.0
C4168 C 0.3861 0.53954 0.51545 0.0
C4169 C 0.36005 0.53491 0.5444 0.0
C4170 C 0.39935 0.53995 0.53039 0.0
C4171 C 0.4138 0.53171 0.52787 0.0
C4172 C 0.41556 0.52332 0.51023 0.0
C4173 C 0.4018 0.52213 0.49549 0.0
C4174 C 0.38717 0.53017 0.4981 0.0
H4175 H 0.34642 0.53157 0.54941 0.0
H4176 H 0.36263 0.52218 0.53733 0.0
H4177 H 0.37039 0.53994 0.55675 0.0
H4178 H 0.39907 0.54742 0.5438 0.0
H4179 H 0.42402 0.53258 0.53959 0.0
H4180 H 0.83245 0.9234 0.53184 0.0
H4181 H 0.86119 0.94612 0.53189 0.0
H4182 H 0.89033 0.90324 0.53021 0.0
H4183 H 0.86171 0.88045 0.52963 0.0
H4184 H 0.89249 0.95614 0.55542 0.0
H4185 H 0.90772 0.9283 0.48712 0.0
H4186 H 0.88581 0.92086 0.49523 0.0
H4187 H 0.90467 0.91143 0.50282 0.0
C4188 C 0.84497 0.91878 0.53147 0.0
C4189 C 0.84468 0.90002 0.53055 0.0
C4190 C 0.86142 0.93181 0.5315 0.0
C4191 C 0.87793 0.9264 0.53061 0.0
C4192 C 0.87774 0.90775 0.53031 0.0
H4193 H 0.99249 0.97702 0.53829 0.0
H4194 H 0.96211 0.95778 0.53924 0.0
C4195 C 0.86132 0.89472 0.53011 0.0
C4196 C 0.89539 0.94018 0.53015 0.0
H4197 H 0.93227 0.94996 0.50605 0.0
C4198 C 0.90108 0.95489 0.54451 0.0
C4199 C 0.9066 0.9387 0.51584 0.0
C4200 C 0.90081 0.92408 0.49929 0.0
C4201 C 0.91791 0.9677 0.54527 0.0
C4202 C 0.92934 0.96576 0.53134 0.0
C4203 C 0.92352 0.95132 0.5168 0.0
C4204 C 0.94771 0.97816 0.53189 0.0
C4205 C 0.92368 0.98294 0.56121 0.0
C4206 C 0.94972 0.99611 0.52753 0.0
C4207 C 0.96715 0.00721 0.52686 0.0
C4208 C 0.98289 0.00057 0.5306 0.0
C4209 C 0.98075 0.98269 0.53538 0.0
C4210 C 0.96336 0.9716 0.53591 0.0
H4211 H 0.91413 0.98151 0.57192 0.0
H4212 H 0.9376 0.98324 0.56782 0.0
H4213 H 0.92423 0.99626 0.5559 0.0
H4214 H 0.93778 0.00138 0.52424 0.0
H4215 H 0.96826 0.02086 0.52308 0.0
H4216 H 0.93252 0.09093 0.2775 0.0
H4217 H 0.91569 0.1151 0.27987 0.0
H4218 H 0.86854 0.0785 0.24754 0.0
H4219 H 0.88522 0.05429 0.24511 0.0
H4220 H 0.877 0.1155 0.23761 0.0
H4221 H 0.87353 0.11352 0.31319 0.0
H4222 H 0.89592 0.11641 0.30587 0.0
H4223 H 0.87911 0.09538 0.29844 0.0
C4224 C 0.91865 0.08808 0.27069 0.0
C4225 C 0.91021 0.07062 0.26117 0.0
C4226 C 0.909 0.10189 0.27217 0.0
C4227 C 0.89075 0.09855 0.26411 0.0
C4228 C 0.88257 0.08139 0.25395 0.0
H4229 H 0.80547 0.15488 0.2864 0.0
H4230 H 0.82468 0.13309 0.28231 0.0
C4231 C 0.89214 0.06755 0.25257 0.0
C4232 C 0.87995 0.11267 0.26671 0.0
H4233 H 0.86106 0.13566 0.29951 0.0
C4234 C 0.87358 0.11998 0.25115 0.0
C4235 C 0.87527 0.11833 0.28435 0.0
C4236 C 0.88115 0.11045 0.30144 0.0
C4237 C 0.8628 0.13289 0.25278 0.0
C4238 C 0.85832 0.13872 0.27046 0.0
C4239 C 0.86458 0.1313 0.28599 0.0
C4240 C 0.8468 0.15219 0.27306 0.0
C4241 C 0.85595 0.1399 0.23551 0.0
C4242 C 0.85291 0.17031 0.26949 0.0
C4243 C 0.84204 0.18292 0.27204 0.0
C4244 C 0.82474 0.17773 0.27821 0.0
C4245 C 0.81876 0.15955 0.2819 0.0
C4246 C 0.82969 0.14698 0.27944 0.0
H4247 H 0.85728 0.13128 0.22267 0.0
H4248 H 0.84141 0.1404 0.23559 0.0
H4249 H 0.86405 0.15401 0.23509 0.0
H4250 H 0.8662 0.17477 0.2649 0.0
H4251 H 0.84734 0.19683 0.26939 0.0
H4252 H 0.7117 0.15232 0.01737 0.0
H4253 H 0.68195 0.13077 0.01472 0.0
H4254 H 0.70822 0.08784 0.02779 0.0
H4255 H 0.73807 0.10915 0.03027 0.0
H4256 H 0.67872 0.077 -0.00154 0.0
H4257 H 0.6605 0.11295 0.06156 0.0
H4258 H 0.66735 0.12757 0.04433 0.0
H4259 H 0.68355 0.11687 0.05563 0.0
C4260 C 0.7112 0.13827 0.01954 0.0
C4261 C 0.72726 0.13253 0.02428 0.0
C4262 C 0.69419 0.12601 0.01808 0.0
C4263 C 0.69298 0.10788 0.02142 0.0
C4264 C 0.70895 0.10185 0.02531 0.0
H4265 H 0.58975 0.04172 0.04485 0.0
H4266 H 0.62247 0.0551 0.04615 0.0
C4267 C 0.72597 0.11408 0.02675 0.0
C4268 C 0.675 0.09541 0.02155 0.0
H4269 H 0.63652 0.09058 0.04307 0.0
C4270 C 0.6695 0.07983 0.00828 0.0
C4271 C 0.66328 0.09897 0.03469 0.0
C4272 C 0.669 0.11489 0.04999 0.0
C4273 C 0.65213 0.06809 0.00729 0.0
C4274 C 0.63999 0.0723 0.01972 0.0
C4275 C 0.64583 0.08746 0.03348 0.0
C4276 C 0.62076 0.06199 0.01808 0.0
C4277 C 0.64694 0.05135 0.99296 0.0
C4278 C 0.60905 0.06133 0.00181 0.0
C4279 C 0.5904 0.05368 0.001 0.0
C4280 C 0.5831 0.04677 0.01655 0.0
C4281 C 0.59494 0.047 0.03267 0.0
C4282 C 0.61363 0.05459 0.03343 0.0
H4283 H 0.6592 0.04689 0.98894 0.0
H4284 H 0.63776 0.0398 -0.00187 0.0
H4285 H 0.63968 0.05465 0.98029 0.0
H4286 H 0.61422 0.06738 0.98997 0.0
H4287 H 0.58165 0.05375 0.98837 0.0
H4288 H 0.17144 0.46616 0.26274 0.0
H4289 H 0.19364 0.4472 0.2636 0.0
H4290 H 0.23502 0.49204 0.25089 0.0
H4291 H 0.2128 0.51107 0.24969 0.0
H4292 H 0.23652 0.45696 0.23318 0.0
H4293 H 0.23331 0.45834 0.30893 0.0
H4294 H 0.21141 0.45014 0.29527 0.0
H4295 H 0.22387 0.47341 0.29534 0.0
C4296 C 0.18517 0.47189 0.25979 0.0
C4297 C 0.19046 0.49017 0.25641 0.0
C4298 C 0.19784 0.46107 0.26036 0.0
C4299 C 0.21603 0.46841 0.25776 0.0
C4300 C 0.22106 0.48622 0.25309 0.0
H4301 H 0.29772 0.41333 0.30111 0.0
H4302 H 0.28366 0.43812 0.29298 0.0
C4303 C 0.20835 0.49705 0.2524 0.0
C4304 C 0.22998 0.45791 0.2613 0.0
H4305 H 0.24841 0.43699 0.29492 0.0
C4306 C 0.23929 0.45271 0.2467 0.0
C4307 C 0.23391 0.45286 0.27909 0.0
C4308 C 0.22525 0.45912 0.29561 0.0
C4309 C 0.25177 0.4417 0.24922 0.0
C4310 C 0.25471 0.43559 0.2667 0.0
C4311 C 0.24607 0.44159 0.2815 0.0
C4312 C 0.26536 0.42173 0.26969 0.0
C4313 C 0.26158 0.43666 0.23314 0.0
C4314 C 0.25992 0.40443 0.25913 0.0
C4315 C 0.26797 0.39035 0.26366 0.0
C4316 C 0.28145 0.39321 0.27903 0.0
C4317 C 0.28743 0.41075 0.28915 0.0
C4318 C 0.27938 0.42488 0.28456 0.0
H4319 H 0.26296 0.4472 0.22349 0.0
H4320 H 0.27539 0.43497 0.23798 0.0
H4321 H 0.25356 0.42355 0.22521 0.0
H4322 H 0.24886 0.40154 0.24787 0.0
H4323 H 0.26329 0.37705 0.25541 0.0
H4324 H 0.26279 0.42993 0.04981 0.0
H4325 H 0.23883 0.44689 0.04877 0.0
H4326 H 0.2017 0.40043 0.01562 0.0
H4327 H 0.22546 0.38322 0.0171 0.0
H4328 H 0.22245 0.45721 0.01929 0.0
H4329 H 0.16932 0.41326 0.05264 0.0
H4330 H 0.1924 0.4104 0.05354 0.0
H4331 H 0.1762 0.401 0.03327 0.0
C4332 C 0.24942 0.42319 0.04257 0.0
C4333 C 0.24603 0.40516 0.03363 0.0
C4334 C 0.23573 0.43294 0.04193 0.0
C4335 C 0.2183 0.42493 0.03231 0.0
C4336 C 0.21482 0.40682 0.02355 0.0
H4337 H 0.12411 0.46747 -0.00195 0.0
H4338 H 0.14676 0.44913 0.00215 0.0
C4339 C 0.22848 0.397 0.02433 0.0
C4340 C 0.20426 0.43594 0.03049 0.0
H4341 H 0.16012 0.43642 0.03681 0.0
C4342 C 0.20888 0.4527 0.02328 0.0
C4343 C 0.18647 0.43011 0.03562 0.0
C4344 C 0.18084 0.4128 0.04437 0.0
C4345 C 0.19623 0.46357 0.02082 0.0
C4346 C 0.17844 0.45765 0.02578 0.0
C4347 C 0.17375 0.44092 0.03296 0.0
C4348 C 0.16455 0.46869 0.02359 0.0
C4349 C 0.20185 0.48119 0.01257 0.0
C4350 C 0.16691 0.48571 0.03442 0.0
C4351 C 0.15398 0.49621 0.03213 0.0
C4352 C 0.13841 0.48997 0.01889 0.0
C4353 C 0.13603 0.47282 0.00819 0.0
C4354 C 0.14891 0.46226 0.01059 0.0
H4355 H 0.21466 0.48202 0.00609 0.0
H4356 H 0.1909 0.4826 0.00196 0.0
H4357 H 0.20415 0.49292 0.0237 0.0
H4358 H 0.17879 0.49088 0.04466 0.0
H4359 H 0.15632 0.50938 0.04053 0.0
H4360 H 0.92887 0.95518 0.27451 0.0
H4361 H 0.90489 0.92727 0.27314 0.0
H4362 H 0.86479 0.95501 0.25233 0.0
H4363 H 0.88874 0.9831 0.25353 0.0
H4364 H 0.87343 0.92316 0.29218 0.0
H4365 H 0.85472 0.90723 0.21564 0.0
H4366 H 0.8759 0.92277 0.22601 0.0
H4367 H 0.85487 0.92997 0.22583 0.0
C4368 C 0.915 0.95539 0.26949 0.0
C4369 C 0.91082 0.97148 0.26409 0.0
C4370 C 0.90128 0.93938 0.26875 0.0
C4371 C 0.88306 0.93896 0.26246 0.0
C4372 C 0.87879 0.95491 0.25694 0.0
H4373 H 0.78886 0.84308 0.25576 0.0
H4374 H 0.8066 0.87435 0.25403 0.0
C4375 C 0.89252 0.971 0.25774 0.0
C4376 C 0.86859 0.92197 0.26248 0.0
H4377 H 0.83851 0.887 0.23415 0.0
C4378 C 0.86571 0.91534 0.2795 0.0
C4379 C 0.85836 0.91184 0.24595 0.0
C4380 C 0.86112 0.91817 0.22726 0.0
C4381 C 0.85325 0.8987 0.2804 0.0
C4382 C 0.84361 0.88816 0.26381 0.0
C4383 C 0.84591 0.8951 0.24684 0.0
C4384 C 0.83263 0.86918 0.26382 0.0
C4385 C 0.8507 0.89238 0.29913 0.0
C4386 C 0.8414 0.85583 0.26939 0.0
C4387 C 0.83142 0.83812 0.27036 0.0
C4388 C 0.81231 0.83317 0.2657 0.0
C4389 C 0.80352 0.84641 0.25952 0.0
C4390 C 0.81363 0.86428 0.25853 0.0
H4391 H 0.85471 0.90402 0.31048 0.0
H4392 H 0.83628 0.88519 0.29966 0.0
H4393 H 0.85944 0.88271 0.30173 0.0
H4394 H 0.85607 0.85918 0.27318 0.0
H4395 H 0.8388 0.82835 0.27497 0.0
H4396 H 0.7017 0.07519 0.75332 0.0
H4397 H 0.72116 0.10616 0.75684 0.0
H4398 H 0.67576 0.12832 0.77092 0.0
H4399 H 0.65611 0.09749 0.7673 0.0
H4400 H 0.69463 0.14483 0.74333 0.0
H4401 H 0.7417 0.14116 0.80536 0.0
H4402 H 0.73915 0.12304 0.7866 0.0
H4403 H 0.71996 0.12498 0.79869 0.0
C4404 C 0.69583 0.08663 0.75723 0.0
C4405 C 0.67731 0.08383 0.76 0.0
C4406 C 0.70703 0.1043 0.75936 0.0
C4407 C 0.69992 0.11944 0.76437 0.0
C4408 C 0.68148 0.11675 0.76714 0.0
H4409 H 0.75427 0.23312 0.79826 0.0
H4410 H 0.73803 0.20107 0.7969 0.0
C4411 C 0.67029 0.09911 0.76505 0.0
C4412 C 0.71143 0.13821 0.76588 0.0
H4413 H 0.74909 0.16778 0.79033 0.0
C4414 C 0.70653 0.14988 0.7536 0.0
C4415 C 0.72682 0.14471 0.77942 0.0
C4416 C 0.7322 0.13291 0.7934 0.0
C4417 C 0.7167 0.16792 0.75442 0.0
C4418 C 0.73235 0.17432 0.76767 0.0
C4419 C 0.73717 0.16272 0.78008 0.0
C4420 C 0.74357 0.19321 0.76906 0.0
C4421 C 0.7104 0.18008 0.74132 0.0
C4422 C 0.75248 0.19919 0.75405 0.0
C4423 C 0.76165 0.21748 0.75471 0.0
C4424 C 0.76221 0.23006 0.77048 0.0
C4425 C 0.75401 0.2238 0.78586 0.0
C4426 C 0.74475 0.2055 0.78514 0.0
H4427 H 0.69591 0.17457 0.73528 0.0
H4428 H 0.71188 0.19411 0.74851 0.0
H4429 H 0.7189 0.18106 0.72972 0.0
H4430 H 0.75202 0.18979 0.74167 0.0
H4431 H 0.76802 0.2218 0.74272 0.0
loop_
_geom_bond_atom_site_label_1
_geom_bond_atom_site_label_2
_geom_bond_distance
_geom_bond_site_symmetry_2
_ccdc_geom_bond_type
Co0 O1 2.216 . S
Co0 O2 2.091 . S
Co0 O4 2.004 . S
Co0 O10 2.021 . S
Co0 O12 2.137 . S
Co0 O13 2.244 . S
O1 Co0 2.216 . S
O1 C8 1.247 . S
O2 Co0 2.091 . S
O2 C8 1.261 . S
C3 O12 1.247 . S
C3 O13 1.272 . S
O4 Co0 2.004 . S
O4 C9 1.259 1_455 S
Co5 O6 2.061 1_455 S
Co5 O11 2.052 . S
Co5 O13 2.135 . S
O6 Co5 2.061 1_655 S
O6 C9 1.235 . S
C7 O10 1.238 . S
C7 O11 1.241 . S
C8 O1 1.247 . S
C8 O2 1.261 . S
C9 O4 1.259 1_655 S
C9 O6 1.235 . S
O10 Co0 2.021 . S
O10 C7 1.238 . S
O11 Co5 2.052 . S
O11 C7 1.241 . S
O12 Co0 2.137 . S
O12 C3 1.247 . S
O13 Co0 2.244 . S
O13 C3 1.272 . S
O13 Co5 2.135 . S
Co14 O15 2.216 1_455 S
Co14 O16 2.066 1_455 S
Co14 O18 2.004 . S
Co14 O24 2.021 . S
Co14 O26 2.137 . S
Co14 O27 2.244 . S
O15 Co14 2.216 1_655 S
O15 C22 1.247 . S
O16 Co14 2.066 1_655 S
O16 C22 1.290 . S
C17 O26 1.247 . S
C17 O27 1.272 . S
O18 Co14 2.004 . S
O18 C23 1.259 . S
Co19 O20 2.061 . S
Co19 O25 2.052 . S
Co19 O27 2.135 . S
O20 Co19 2.061 . S
O20 C23 1.235 . S
C21 O24 1.238 . S
C21 O25 1.241 . S
C22 O15 1.247 . S
C22 O16 1.290 . S
C23 O18 1.259 . S
C23 O20 1.235 . S
O24 Co14 2.021 . S
O24 C21 1.238 . S
O25 Co19 2.052 . S
O25 C21 1.241 . S
O26 Co14 2.137 . S
O26 C17 1.247 . S
O27 Co14 2.244 . S
O27 C17 1.272 . S
O27 Co19 2.135 . S
Co28 O29 2.216 . S
Co28 O30 2.091 . S
Co28 O32 2.004 . S
Co28 O38 2.021 . S
Co28 O40 2.137 . S
Co28 O41 2.244 . S
O29 Co28 2.216 . S
O29 C36 1.247 . S
O30 Co28 2.091 . S
O30 C36 1.261 . S
C31 O40 1.247 . S
C31 O41 1.272 . S
O32 Co28 2.004 . S
O32 C37 1.259 . S
Co33 O34 2.061 . S
Co33 O39 2.052 . S
Co33 O41 2.135 . S
O34 Co33 2.061 . S
O34 C37 1.235 . S
C35 O38 1.238 . S
C35 O39 1.241 . S
C36 O29 1.247 . S
C36 O30 1.261 . S
C37 O32 1.259 . S
C37 O34 1.235 . S
O38 Co28 2.021 . S
O38 C35 1.238 . S
O39 Co33 2.052 . S
O39 C35 1.241 . S
O40 Co28 2.137 . S
O40 C31 1.247 . S
O41 Co28 2.244 . S
O41 C31 1.272 . S
O41 Co33 2.135 . S
Co42 O43 2.216 . S
Co42 O44 2.091 . S
Co42 O46 2.004 . S
Co42 O52 2.021 . S
Co42 O54 2.137 . S
Co42 O55 2.244 . S
O43 Co42 2.216 . S
O43 C50 1.247 . S
O44 Co42 2.091 . S
O44 C50 1.261 . S
C45 O54 1.247 . S
C45 O55 1.272 . S
O46 Co42 2.004 . S
O46 C51 1.259 . S
Co47 O48 2.061 . S
Co47 O53 2.052 . S
Co47 O55 2.135 . S
O48 Co47 2.061 . S
O48 C51 1.235 . S
C49 O52 1.238 . S
C49 O53 1.241 . S
C50 O43 1.247 . S
C50 O44 1.261 . S
C51 O46 1.259 . S
C51 O48 1.235 . S
O52 Co42 2.021 . S
O52 C49 1.238 . S
O53 Co47 2.052 . S
O53 C49 1.241 . S
O54 Co42 2.137 . S
O54 C45 1.247 . S
O55 Co42 2.244 . S
O55 C45 1.272 . S
O55 Co47 2.135 . S
Co56 O57 2.216 . S
Co56 O58 2.091 . S
Co56 O60 2.004 . S
Co56 O66 2.021 . S
Co56 O68 2.137 . S
Co56 O69 2.244 . S
O57 Co56 2.216 . S
O57 C64 1.247 . S
O58 Co56 2.091 . S
O58 C64 1.261 . S
C59 O68 1.247 . S
C59 O69 1.272 . S
O60 Co56 2.004 . S
O60 C65 1.259 . S
Co61 O62 2.061 . S
Co61 O67 2.052 . S
Co61 O69 2.135 . S
O62 Co61 2.061 . S
O62 C65 1.235 . S
C63 O66 1.238 . S
C63 O67 1.241 . S
C64 O57 1.247 . S
C64 O58 1.261 . S
C65 O60 1.259 . S
C65 O62 1.235 . S
O66 Co56 2.021 . S
O66 C63 1.238 . S
O67 Co61 2.052 . S
O67 C63 1.241 . S
O68 Co56 2.137 . S
O68 C59 1.247 . S
O69 Co56 2.244 . S
O69 C59 1.272 . S
O69 Co61 2.135 . S
Co70 O71 2.216 . S
Co70 O72 2.091 . S
Co70 O74 2.004 . S
Co70 O80 2.021 . S
Co70 O82 2.137 . S
Co70 O83 2.244 . S
O71 Co70 2.216 . S
O71 C78 1.247 . S
O72 Co70 2.091 . S
O72 C78 1.261 . S
C73 O82 1.247 . S
C73 O83 1.272 . S
O74 Co70 2.004 . S
O74 C79 1.259 . S
Co75 O76 2.061 . S
Co75 O81 2.052 . S
Co75 O83 2.135 . S
O76 Co75 2.061 . S
O76 C79 1.235 . S
C77 O80 1.238 . S
C77 O81 1.241 . S
C78 O71 1.247 . S
C78 O72 1.261 . S
C79 O74 1.259 . S
C79 O76 1.235 . S
O80 Co70 2.021 . S
O80 C77 1.238 . S
O81 Co75 2.052 . S
O81 C77 1.241 . S
O82 Co70 2.137 . S
O82 C73 1.247 . S
O83 Co70 2.244 . S
O83 C73 1.272 . S
O83 Co75 2.135 . S
Co84 O85 2.216 . S
Co84 O86 2.091 . S
Co84 O88 2.004 . S
Co84 O94 2.021 . S
Co84 O96 2.137 . S
Co84 O97 2.244 . S
O85 Co84 2.216 . S
O85 C92 1.247 . S
O86 Co84 2.091 . S
O86 C92 1.261 . S
C87 O96 1.247 . S
C87 O97 1.272 . S
O88 Co84 2.004 . S
O88 C93 1.259 . S
Co89 O90 2.061 . S
Co89 O95 2.052 . S
Co89 O97 2.135 . S
O90 Co89 2.061 . S
O90 C93 1.235 . S
C91 O94 1.238 . S
C91 O95 1.241 . S
C92 O85 1.247 . S
C92 O86 1.261 . S
C93 O88 1.259 . S
C93 O90 1.235 . S
O94 Co84 2.021 . S
O94 C91 1.238 . S
O95 Co89 2.052 . S
O95 C91 1.241 . S
O96 Co84 2.137 . S
O96 C87 1.247 . S
O97 Co84 2.244 . S
O97 C87 1.272 . S
O97 Co89 2.135 . S
Co98 O99 2.216 . S
Co98 O100 2.091 . S
Co98 O102 2.004 1_455 S
Co98 O108 2.021 1_455 S
Co98 O110 2.137 . S
Co98 O111 2.244 1_455 S
O99 Co98 2.216 . S
O99 C106 1.247 . S
O100 Co98 2.091 . S
O100 C106 1.261 . S
C101 O110 1.247 . S
C101 O111 1.272 1_455 S
O102 Co98 2.004 1_655 S
O102 C107 1.259 . S
Co103 O104 2.061 . S
Co103 O109 2.052 . S
Co103 O111 2.135 . S
O104 Co103 2.061 . S
O104 C107 1.235 . S
C105 O108 1.238 . S
C105 O109 1.241 . S
C106 O99 1.247 . S
C106 O100 1.261 . S
C107 O102 1.259 . S
C107 O104 1.235 . S
O108 Co98 2.021 1_655 S
O108 C105 1.238 . S
O109 Co103 2.052 . S
O109 C105 1.241 . S
O110 Co98 2.137 . S
O110 C101 1.247 . S
O111 Co98 2.244 1_655 S
O111 C101 1.272 1_655 S
O111 Co103 2.135 . S
Co112 O113 2.216 . S
Co112 O114 2.091 . S
Co112 O116 2.004 1_545 S
Co112 O122 2.021 . S
Co112 O124 2.137 . S
Co112 O125 2.244 . S
O113 Co112 2.216 . S
O113 C120 1.247 . S
O114 Co112 2.091 . S
O114 C120 1.261 . S
C115 O124 1.247 . S
C115 O125 1.272 . S
O116 Co112 2.004 1_565 S
O116 C121 1.259 . S
Co117 O118 2.061 . S
Co117 O123 2.052 . S
Co117 O125 2.135 1_565 S
O118 Co117 2.061 . S
O118 C121 1.235 . S
C119 O122 1.237 1_565 S
C119 O123 1.243 . S
C120 O113 1.247 . S
C120 O114 1.261 . S
C121 O116 1.259 . S
C121 O118 1.235 . S
O122 Co112 2.021 . S
O122 C119 1.237 1_545 S
O123 Co117 2.052 . S
O123 C119 1.243 . S
O124 Co112 2.137 . S
O124 C115 1.247 . S
O125 Co112 2.244 . S
O125 C115 1.272 . S
O125 Co117 2.135 1_545 S
Co126 O127 2.216 . S
Co126 O128 2.091 . S
Co126 O130 2.004 . S
Co126 O136 2.021 . S
Co126 O138 2.137 . S
Co126 O139 2.244 . S
O127 Co126 2.216 . S
O127 C134 1.247 . S
O128 Co126 2.091 . S
O128 C134 1.261 . S
C129 O138 1.247 . S
C129 O139 1.272 . S
O130 Co126 2.004 . S
O130 C135 1.259 . S
Co131 O132 2.061 . S
Co131 O137 2.052 . S
Co131 O139 2.135 . S
O132 Co131 2.061 . S
O132 C135 1.235 . S
C133 O136 1.238 . S
C133 O137 1.241 . S
C134 O127 1.247 . S
C134 O128 1.261 . S
C135 O130 1.259 . S
C135 O132 1.235 . S
O136 Co126 2.021 . S
O136 C133 1.238 . S
O137 Co131 2.052 . S
O137 C133 1.241 . S
O138 Co126 2.137 . S
O138 C129 1.247 . S
O139 Co126 2.244 . S
O139 C129 1.272 . S
O139 Co131 2.135 . S
Co140 O141 2.216 . S
Co140 O142 2.091 . S
Co140 O144 2.004 . S
Co140 O150 2.021 . S
Co140 O152 2.137 . S
Co140 O153 2.244 . S
O141 Co140 2.216 . S
O141 C148 1.247 . S
O142 Co140 2.091 . S
O142 C148 1.261 . S
C143 O152 1.247 . S
C143 O153 1.272 . S
O144 Co140 2.004 . S
O144 C149 1.259 . S
Co145 O146 2.061 . S
Co145 O151 2.052 . S
Co145 O153 2.135 . S
O146 Co145 2.061 . S
O146 C149 1.235 . S
C147 O150 1.238 . S
C147 O151 1.241 . S
C148 O141 1.247 . S
C148 O142 1.261 . S
C149 O144 1.259 . S
C149 O146 1.235 . S
O150 Co140 2.021 . S
O150 C147 1.238 . S
O151 Co145 2.052 . S
O151 C147 1.241 . S
O152 Co140 2.137 . S
O152 C143 1.247 . S
O153 Co140 2.244 . S
O153 C143 1.272 . S
O153 Co145 2.135 . S
Co154 O155 2.216 . S
Co154 O156 2.091 1_556 S
Co154 O158 2.002 . S
Co154 O164 2.021 1_556 S
Co154 O166 2.137 . S
Co154 O167 2.244 . S
O155 Co154 2.216 . S
O155 C162 1.249 . S
O156 Co154 2.091 1_554 S
O156 C162 1.263 1_554 S
C157 O166 1.247 . S
C157 O167 1.272 . S
O158 Co154 2.002 . S
O158 C163 1.255 1_556 S
Co159 O160 2.061 1_556 S
Co159 O165 2.052 1_556 S
Co159 O167 2.135 . S
O160 Co159 2.061 1_554 S
O160 C163 1.235 . S
C161 O164 1.238 . S
C161 O165 1.241 . S
C162 O155 1.249 . S
C162 O156 1.263 1_556 S
C163 O158 1.255 1_554 S
C163 O160 1.235 . S
O164 Co154 2.021 1_554 S
O164 C161 1.238 . S
O165 Co159 2.052 1_554 S
O165 C161 1.241 . S
O166 Co154 2.137 . S
O166 C157 1.247 . S
O167 Co154 2.244 . S
O167 C157 1.272 . S
O167 Co159 2.135 . S
Co168 O169 2.216 . S
Co168 O170 2.091 . S
Co168 O172 2.004 . S
Co168 O178 2.021 . S
Co168 O180 2.137 1_554 S
Co168 O181 2.244 . S
O169 Co168 2.216 . S
O169 C176 1.247 . S
O170 Co168 2.091 . S
O170 C176 1.261 . S
C171 O180 1.247 . S
C171 O181 1.272 1_556 S
O172 Co168 2.004 . S
O172 C177 1.259 . S
Co173 O174 2.061 . S
Co173 O179 2.052 . S
Co173 O181 2.135 . S
O174 Co173 2.061 . S
O174 C177 1.235 . S
C175 O178 1.238 . S
C175 O179 1.241 . S
C176 O169 1.247 . S
C176 O170 1.261 . S
C177 O172 1.259 . S
C177 O174 1.235 . S
O178 Co168 2.021 . S
O178 C175 1.238 . S
O179 Co173 2.052 . S
O179 C175 1.241 . S
O180 Co168 2.137 1_556 S
O180 C171 1.247 . S
O181 Co168 2.244 . S
O181 C171 1.272 1_554 S
O181 Co173 2.135 . S
Co182 O183 2.216 . S
Co182 O184 2.091 . S
Co182 O186 2.004 . S
Co182 O192 2.021 . S
Co182 O194 2.137 . S
Co182 O195 2.244 . S
O183 Co182 2.216 . S
O183 C190 1.247 . S
O184 Co182 2.091 . S
O184 C190 1.261 . S
C185 O194 1.247 . S
C185 O195 1.272 . S
O186 Co182 2.004 . S
O186 C191 1.259 . S
Co187 O188 2.061 . S
Co187 O193 2.052 . S
Co187 O195 2.135 . S
O188 Co187 2.061 . S
O188 C191 1.235 . S
C189 O192 1.238 . S
C189 O193 1.241 . S
C190 O183 1.247 . S
C190 O184 1.261 . S
C191 O186 1.259 . S
C191 O188 1.235 . S
O192 Co182 2.021 . S
O192 C189 1.238 . S
O193 Co187 2.052 . S
O193 C189 1.241 . S
O194 Co182 2.137 . S
O194 C185 1.247 . S
O195 Co182 2.244 . S
O195 C185 1.272 . S
O195 Co187 2.135 . S
Co196 O197 2.216 . S
Co196 O198 2.091 . S
Co196 O200 2.004 . S
Co196 O206 2.021 . S
Co196 O208 2.137 . S
Co196 O209 2.244 . S
O197 Co196 2.216 . S
O197 C204 1.247 . S
O198 Co196 2.091 . S
O198 C204 1.261 . S
C199 O208 1.247 . S
C199 O209 1.272 . S
O200 Co196 2.004 . S
O200 C205 1.259 . S
Co201 O202 2.061 . S
Co201 O207 2.052 . S
Co201 O209 2.135 . S
O202 Co201 2.061 . S
O202 C205 1.235 . S
C203 O206 1.238 . S
C203 O207 1.241 . S
C204 O197 1.247 . S
C204 O198 1.261 . S
C205 O200 1.259 . S
C205 O202 1.235 . S
O206 Co196 2.021 . S
O206 C203 1.238 . S
O207 Co201 2.052 . S
O207 C203 1.241 . S
O208 Co196 2.137 . S
O208 C199 1.247 . S
O209 Co196 2.244 . S
O209 C199 1.272 . S
O209 Co201 2.135 . S
Co210 O211 2.216 . S
Co210 O212 2.091 . S
Co210 O214 2.004 . S
Co210 O220 2.021 . S
Co210 O222 2.137 . S
Co210 O223 2.244 . S
O211 Co210 2.216 . S
O211 C218 1.247 . S
O212 Co210 2.091 . S
O212 C218 1.261 . S
C213 O222 1.247 . S
C213 O223 1.272 . S
O214 Co210 2.004 . S
O214 C219 1.259 . S
Co215 O216 2.061 . S
Co215 O221 2.052 . S
Co215 O223 2.135 . S
O216 Co215 2.061 . S
O216 C219 1.235 . S
C217 O220 1.238 . S
C217 O221 1.241 . S
C218 O211 1.247 . S
C218 O212 1.261 . S
C219 O214 1.259 . S
C219 O216 1.235 . S
O220 Co210 2.021 . S
O220 C217 1.238 . S
O221 Co215 2.052 . S
O221 C217 1.241 . S
O222 Co210 2.137 . S
O222 C213 1.247 . S
O223 Co210 2.244 . S
O223 C213 1.272 . S
O223 Co215 2.135 . S
Co224 O225 2.216 . S
Co224 O226 2.091 . S
Co224 O228 2.004 . S
Co224 O234 2.021 . S
Co224 O236 2.137 . S
Co224 O237 2.244 . S
O225 Co224 2.216 . S
O225 C232 1.247 . S
O226 Co224 2.091 . S
O226 C232 1.261 . S
C227 O236 1.247 . S
C227 O237 1.272 . S
O228 Co224 2.004 . S
O228 C233 1.259 1_545 S
Co229 O230 2.061 1_545 S
Co229 O235 2.052 . S
Co229 O237 2.135 . S
O230 Co229 2.061 1_565 S
O230 C233 1.235 . S
C231 O234 1.238 . S
C231 O235 1.241 . S
C232 O225 1.247 . S
C232 O226 1.261 . S
C233 O228 1.259 1_565 S
C233 O230 1.235 . S
O234 Co224 2.021 . S
O234 C231 1.238 . S
O235 Co229 2.052 . S
O235 C231 1.241 . S
O236 Co224 2.137 . S
O236 C227 1.247 . S
O237 Co224 2.244 . S
O237 C227 1.272 . S
O237 Co229 2.135 . S
Co238 O239 2.216 . S
Co238 O240 2.091 . S
Co238 O242 2.004 . S
Co238 O248 2.021 . S
Co238 O250 2.137 . S
Co238 O251 2.244 . S
O239 Co238 2.216 . S
O239 C246 1.247 . S
O240 Co238 2.091 . S
O240 C246 1.261 . S
C241 O250 1.247 . S
C241 O251 1.272 . S
O242 Co238 2.004 . S
O242 C247 1.259 . S
Co243 O244 2.061 . S
Co243 O249 2.052 . S
Co243 O251 2.135 . S
O244 Co243 2.061 . S
O244 C247 1.235 . S
C245 O248 1.238 . S
C245 O249 1.241 . S
C246 O239 1.247 . S
C246 O240 1.261 . S
C247 O242 1.259 . S
C247 O244 1.235 . S
O248 Co238 2.021 . S
O248 C245 1.238 . S
O249 Co243 2.052 . S
O249 C245 1.241 . S
O250 Co238 2.137 . S
O250 C241 1.247 . S
O251 Co238 2.244 . S
O251 C241 1.272 . S
O251 Co243 2.135 . S
Co252 O253 2.216 . S
Co252 O254 2.091 . S
Co252 O256 2.004 . S
Co252 O262 2.021 . S
Co252 O264 2.137 . S
Co252 O265 2.244 . S
O253 Co252 2.216 . S
O253 C260 1.247 . S
O254 Co252 2.091 . S
O254 C260 1.261 . S
C255 O264 1.247 . S
C255 O265 1.272 . S
O256 Co252 2.004 . S
O256 C261 1.259 . S
Co257 O258 2.061 . S
Co257 O263 2.052 . S
Co257 O265 2.135 . S
O258 Co257 2.061 . S
O258 C261 1.235 . S
C259 O262 1.238 . S
C259 O263 1.241 . S
C260 O253 1.247 . S
C260 O254 1.261 . S
C261 O256 1.259 . S
C261 O258 1.235 . S
O262 Co252 2.021 . S
O262 C259 1.238 . S
O263 Co257 2.052 . S
O263 C259 1.241 . S
O264 Co252 2.137 . S
O264 C255 1.247 . S
O265 Co252 2.244 . S
O265 C255 1.272 . S
O265 Co257 2.135 . S
Co266 O267 2.216 . S
Co266 O268 2.091 . S
Co266 O270 2.004 . S
Co266 O276 2.021 . S
Co266 O278 2.137 . S
Co266 O279 2.244 . S
O267 Co266 2.216 . S
O267 C274 1.247 . S
O268 Co266 2.091 . S
O268 C274 1.261 . S
C269 O278 1.247 . S
C269 O279 1.272 . S
O270 Co266 2.004 . S
O270 C275 1.259 . S
Co271 O272 2.061 . S
Co271 O277 2.052 . S
Co271 O279 2.135 . S
O272 Co271 2.061 . S
O272 C275 1.235 . S
C273 O276 1.238 . S
C273 O277 1.241 . S
C274 O267 1.247 . S
C274 O268 1.261 . S
C275 O270 1.259 . S
C275 O272 1.235 . S
O276 Co266 2.021 . S
O276 C273 1.238 . S
O277 Co271 2.052 . S
O277 C273 1.241 . S
O278 Co266 2.137 . S
O278 C269 1.247 . S
O279 Co266 2.244 . S
O279 C269 1.272 . S
O279 Co271 2.135 . S
Co280 O281 2.216 . S
Co280 O282 2.091 . S
Co280 O284 2.004 . S
Co280 O290 2.021 . S
Co280 O292 2.137 1_554 S
Co280 O293 2.244 . S
O281 Co280 2.216 . S
O281 C288 1.247 . S
O282 Co280 2.091 . S
O282 C288 1.261 . S
C283 O292 1.247 . S
C283 O293 1.272 1_556 S
O284 Co280 2.004 . S
O284 C289 1.259 . S
Co285 O286 2.061 . S
Co285 O291 2.052 . S
Co285 O293 2.135 . S
O286 Co285 2.061 . S
O286 C289 1.235 . S
C287 O290 1.238 . S
C287 O291 1.241 . S
C288 O281 1.247 . S
C288 O282 1.261 . S
C289 O284 1.259 . S
C289 O286 1.235 . S
O290 Co280 2.021 . S
O290 C287 1.238 . S
O291 Co285 2.052 . S
O291 C287 1.241 . S
O292 Co280 2.137 1_556 S
O292 C283 1.247 . S
O293 Co280 2.244 . S
O293 C283 1.272 1_554 S
O293 Co285 2.135 . S
Co294 O295 2.216 . S
Co294 O296 2.091 . S
Co294 O298 2.004 . S
Co294 O304 2.021 . S
Co294 O306 2.137 . S
Co294 O307 2.244 . S
O295 Co294 2.216 . S
O295 C302 1.247 . S
O296 Co294 2.091 . S
O296 C302 1.261 . S
C297 O306 1.247 . S
C297 O307 1.272 . S
O298 Co294 2.004 . S
O298 C303 1.259 . S
Co299 O300 2.061 . S
Co299 O305 2.052 . S
Co299 O307 2.135 . S
O300 Co299 2.061 . S
O300 C303 1.235 . S
C301 O304 1.238 . S
C301 O305 1.241 . S
C302 O295 1.247 . S
C302 O296 1.261 . S
C303 O298 1.259 . S
C303 O300 1.235 . S
O304 Co294 2.021 . S
O304 C301 1.238 . S
O305 Co299 2.052 . S
O305 C301 1.241 . S
O306 Co294 2.137 . S
O306 C297 1.247 . S
O307 Co294 2.244 . S
O307 C297 1.272 . S
O307 Co299 2.135 . S
Co308 O309 2.216 . S
Co308 O310 2.091 . S
Co308 O312 2.004 . S
Co308 O318 2.021 . S
Co308 O320 2.137 . S
Co308 O321 2.244 . S
O309 Co308 2.216 . S
O309 C316 1.247 . S
O310 Co308 2.091 . S
O310 C316 1.261 . S
C311 O320 1.247 . S
C311 O321 1.272 . S
O312 Co308 2.004 . S
O312 C317 1.259 . S
Co313 O314 2.061 . S
Co313 O319 2.052 . S
Co313 O321 2.135 . S
O314 Co313 2.061 . S
O314 C317 1.235 . S
C315 O318 1.238 . S
C315 O319 1.241 . S
C316 O309 1.247 . S
C316 O310 1.261 . S
C317 O312 1.259 . S
C317 O314 1.235 . S
O318 Co308 2.021 . S
O318 C315 1.238 . S
O319 Co313 2.052 . S
O319 C315 1.241 . S
O320 Co308 2.137 . S
O320 C311 1.247 . S
O321 Co308 2.244 . S
O321 C311 1.272 . S
O321 Co313 2.135 . S
Co322 O323 2.216 . S
Co322 O324 2.091 . S
Co322 O326 2.004 . S
Co322 O332 2.021 . S
Co322 O334 2.137 . S
Co322 O335 2.244 . S
O323 Co322 2.216 . S
O323 C330 1.247 . S
O324 Co322 2.091 . S
O324 C330 1.261 . S
C325 O334 1.247 . S
C325 O335 1.272 . S
O326 Co322 2.004 . S
O326 C331 1.259 . S
Co327 O328 2.061 . S
Co327 O333 2.052 . S
Co327 O335 2.135 . S
O328 Co327 2.061 . S
O328 C331 1.235 . S
C329 O332 1.238 . S
C329 O333 1.241 . S
C330 O323 1.247 . S
C330 O324 1.261 . S
C331 O326 1.259 . S
C331 O328 1.235 . S
O332 Co322 2.021 . S
O332 C329 1.238 . S
O333 Co327 2.052 . S
O333 C329 1.241 . S
O334 Co322 2.137 . S
O334 C325 1.247 . S
O335 Co322 2.244 . S
O335 C325 1.272 . S
O335 Co327 2.135 . S
Dy336 O339 2.307 . S
Dy336 O341 2.395 . S
Dy336 O342 2.379 . S
Dy336 O344 2.339 . S
Dy336 O346 2.298 . S
Dy336 O350 2.275 . S
Dy336 C358 2.738 . S
Dy337 O340 2.289 1_655 S
Dy337 O343 2.256 1_655 S
Dy337 O345 2.314 1_655 S
Dy337 O347 2.436 . S
Dy337 O348 2.417 1_554 S
Dy337 O351 2.316 1_654 S
Dy337 C367 2.783 . S
C338 O350 1.254 1_556 S
C338 O351 1.257 . S
O339 Dy336 2.307 . S
O339 C349 1.266 . S
O340 Dy337 2.289 1_455 S
O340 C349 1.236 . S
O341 Dy336 2.395 . S
O341 C358 1.255 . S
O342 Dy336 2.379 . S
O342 C358 1.249 . S
O343 Dy337 2.256 1_455 S
O343 C359 1.254 . S
O344 Dy336 2.339 . S
O344 C359 1.257 . S
O345 Dy337 2.314 1_455 S
O345 C360 1.249 1_545 S
O346 Dy336 2.298 . S
O346 C360 1.236 1_545 S
O347 Dy337 2.436 . S
O347 C367 1.255 . S
O348 Dy337 2.417 1_556 S
O348 C367 1.249 1_556 S
C349 O339 1.266 . S
C349 O340 1.236 . S
O350 Dy336 2.275 . S
O350 C338 1.254 1_554 S
O351 Dy337 2.316 1_456 S
O351 C338 1.257 . S
C352 C355 1.344 . S
C352 C356 1.328 . S
C352 C358 1.516 . S
C353 C354 1.304 . S
C353 C357 1.323 . S
C354 C353 1.304 . S
C354 C355 1.371 . S
C354 H368 0.930 1_545 S
C355 C352 1.344 . S
C355 C354 1.371 . S
C355 H369 0.931 . S
C356 C352 1.328 . S
C356 C357 1.433 . S
C356 H370 0.931 . S
C357 C353 1.323 . S
C357 C356 1.433 . S
C357 H371 0.933 . S
C358 Dy336 2.738 . S
C358 O341 1.255 . S
C358 O342 1.249 . S
C358 C352 1.516 . S
C359 O343 1.254 . S
C359 O344 1.257 . S
C360 O345 1.249 1_565 S
C360 O346 1.236 1_565 S
C361 C364 1.344 . S
C361 C365 1.328 1_554 S
C361 C367 1.516 . S
C362 C363 1.304 . S
C362 C366 1.323 1_554 S
C363 C362 1.304 . S
C363 C364 1.371 . S
C363 H372 0.930 . S
C364 C361 1.344 . S
C364 C363 1.371 . S
C364 H373 0.931 . S
C365 C361 1.328 1_556 S
C365 C366 1.433 . S
C365 H374 0.931 . S
C366 C362 1.323 1_556 S
C366 C365 1.433 . S
C366 H375 0.933 . S
C367 Dy337 2.783 . S
C367 O347 1.255 . S
C367 O348 1.249 1_554 S
C367 C361 1.516 . S
H368 C354 0.930 1_565 S
H369 C355 0.931 . S
H370 C356 0.931 . S
H371 C357 0.933 . S
H372 C363 0.930 . S
H373 C364 0.931 . S
H374 C365 0.931 . S
H375 C366 0.933 . S
Dy376 O379 2.307 . S
Dy376 O381 2.395 . S
Dy376 O382 2.379 . S
Dy376 O384 2.339 . S
Dy376 O386 2.298 . S
Dy376 O390 2.275 . S
Dy376 C398 2.738 . S
Dy377 O380 2.298 . S
Dy377 O383 2.275 . S
Dy377 O385 2.307 . S
Dy377 O387 2.395 . S
Dy377 O388 2.379 . S
Dy377 O391 2.339 . S
Dy377 C407 2.738 . S
C378 O390 1.254 . S
C378 O391 1.257 . S
O379 Dy376 2.307 . S
O379 C389 1.266 . S
O380 Dy377 2.298 . S
O380 C389 1.236 . S
O381 Dy376 2.395 . S
O381 C398 1.255 . S
O382 Dy376 2.379 . S
O382 C398 1.249 . S
O383 Dy377 2.275 . S
O383 C399 1.254 . S
O384 Dy376 2.339 . S
O384 C399 1.257 . S
O385 Dy377 2.307 . S
O385 C400 1.266 . S
O386 Dy376 2.298 . S
O386 C400 1.236 . S
O387 Dy377 2.395 . S
O387 C407 1.255 . S
O388 Dy377 2.379 . S
O388 C407 1.249 . S
C389 O379 1.266 . S
C389 O380 1.236 . S
O390 Dy376 2.275 . S
O390 C378 1.254 . S
O391 Dy377 2.339 . S
O391 C378 1.257 . S
C392 C395 1.344 . S
C392 C396 1.328 . S
C392 C398 1.516 . S
C393 C394 1.304 . S
C393 C397 1.323 . S
C394 C393 1.304 . S
C394 C395 1.371 . S
C394 H408 0.930 . S
C395 C392 1.344 . S
C395 C394 1.371 . S
C395 H409 0.931 . S
C396 C392 1.328 . S
C396 C397 1.433 . S
C396 H410 0.931 . S
C397 C393 1.323 . S
C397 C396 1.433 . S
C397 H411 0.933 . S
C398 Dy376 2.738 . S
C398 O381 1.255 . S
C398 O382 1.249 . S
C398 C392 1.516 . S
C399 O383 1.254 . S
C399 O384 1.257 . S
C400 O385 1.266 . S
C400 O386 1.236 . S
C401 C404 1.344 . S
C401 C405 1.328 . S
C401 C407 1.516 . S
C402 C403 1.304 . S
C402 C406 1.323 . S
C403 C402 1.304 . S
C403 C404 1.371 . S
C403 H412 0.930 . S
C404 C401 1.344 . S
C404 C403 1.371 . S
C404 H413 0.931 . S
C405 C401 1.328 . S
C405 C406 1.433 . S
C405 H414 0.931 . S
C406 C402 1.323 . S
C406 C405 1.433 . S
C406 H415 0.933 . S
C407 Dy377 2.738 . S
C407 O387 1.255 . S
C407 O388 1.249 . S
C407 C401 1.516 . S
H408 C394 0.930 . S
H409 C395 0.931 . S
H410 C396 0.931 . S
H411 C397 0.933 . S
H412 C403 0.930 . S
H413 C404 0.931 . S
H414 C405 0.931 . S
H415 C406 0.933 . S
Dy416 O419 2.293 1_545 S
Dy416 O421 2.395 . S
Dy416 O422 2.379 . S
Dy416 O424 2.339 . S
Dy416 O426 2.298 . S
Dy416 O430 2.275 . S
Dy416 C438 2.738 . S
Dy417 O420 2.298 . S
Dy417 O423 2.275 . S
Dy417 O425 2.307 . S
Dy417 O427 2.395 . S
Dy417 O428 2.379 . S
Dy417 O431 2.339 . S
Dy417 C447 2.738 . S
C418 O430 1.254 . S
C418 O431 1.257 . S
O419 Dy416 2.293 1_565 S
O419 C429 1.274 . S
O420 Dy417 2.298 . S
O420 C429 1.236 1_545 S
O421 Dy416 2.395 . S
O421 C438 1.255 . S
O422 Dy416 2.379 . S
O422 C438 1.249 . S
O423 Dy417 2.275 . S
O423 C439 1.254 . S
O424 Dy416 2.339 . S
O424 C439 1.257 . S
O425 Dy417 2.307 . S
O425 C440 1.266 . S
O426 Dy416 2.298 . S
O426 C440 1.236 . S
O427 Dy417 2.395 . S
O427 C447 1.255 . S
O428 Dy417 2.379 . S
O428 C447 1.249 . S
C429 O419 1.274 . S
C429 O420 1.236 1_565 S
O430 Dy416 2.275 . S
O430 C418 1.254 . S
O431 Dy417 2.339 . S
O431 C418 1.257 . S
C432 C435 1.344 . S
C432 C436 1.328 . S
C432 C438 1.516 . S
C433 C434 1.304 . S
C433 C437 1.323 . S
C434 C433 1.304 . S
C434 C435 1.371 . S
C434 H448 0.930 . S
C435 C432 1.344 . S
C435 C434 1.371 . S
C435 H449 0.931 . S
C436 C432 1.328 . S
C436 C437 1.433 . S
C436 H450 0.931 . S
C437 C433 1.323 . S
C437 C436 1.433 . S
C437 H451 0.933 . S
C438 Dy416 2.738 . S
C438 O421 1.255 . S
C438 O422 1.249 . S
C438 C432 1.516 . S
C439 O423 1.254 . S
C439 O424 1.257 . S
C440 O425 1.266 . S
C440 O426 1.236 . S
C441 C444 1.344 1_545 S
C441 C445 1.328 . S
C441 C447 1.516 . S
C442 C443 1.304 . S
C442 C446 1.323 . S
C443 C442 1.304 . S
C443 C444 1.371 . S
C443 H452 0.930 . S
C444 C441 1.344 1_565 S
C444 C443 1.371 . S
C444 H453 0.931 . S
C445 C441 1.328 . S
C445 C446 1.433 1_545 S
C445 H454 0.931 . S
C446 C442 1.323 . S
C446 C445 1.433 1_565 S
C446 H455 0.933 . S
C447 Dy417 2.738 . S
C447 O427 1.255 . S
C447 O428 1.249 . S
C447 C441 1.516 . S
H448 C434 0.930 . S
H449 C435 0.931 . S
H450 C436 0.931 . S
H451 C437 0.933 . S
H452 C443 0.930 . S
H453 C444 0.931 . S
H454 C445 0.931 . S
H455 C446 0.933 . S
Dy456 O459 2.307 . S
Dy456 O461 2.395 . S
Dy456 O462 2.379 . S
Dy456 O464 2.339 . S
Dy456 O466 2.298 . S
Dy456 O470 2.275 . S
Dy456 C478 2.738 . S
Dy457 O460 2.298 . S
Dy457 O463 2.275 . S
Dy457 O465 2.307 . S
Dy457 O467 2.395 . S
Dy457 O468 2.379 . S
Dy457 O471 2.339 . S
Dy457 C487 2.738 . S
C458 O470 1.254 . S
C458 O471 1.257 . S
O459 Dy456 2.307 . S
O459 C469 1.266 . S
O460 Dy457 2.298 . S
O460 C469 1.236 . S
O461 Dy456 2.395 . S
O461 C478 1.255 . S
O462 Dy456 2.379 . S
O462 C478 1.249 . S
O463 Dy457 2.275 . S
O463 C479 1.254 . S
O464 Dy456 2.339 . S
O464 C479 1.257 . S
O465 Dy457 2.307 . S
O465 C480 1.266 . S
O466 Dy456 2.298 . S
O466 C480 1.236 . S
O467 Dy457 2.395 . S
O467 C487 1.255 . S
O468 Dy457 2.379 . S
O468 C487 1.249 . S
C469 O459 1.266 . S
C469 O460 1.236 . S
O470 Dy456 2.275 . S
O470 C458 1.254 . S
O471 Dy457 2.339 . S
O471 C458 1.257 . S
C472 C475 1.344 . S
C472 C476 1.328 . S
C472 C478 1.516 . S
C473 C474 1.304 . S
C473 C477 1.323 . S
C474 C473 1.304 . S
C474 C475 1.371 . S
C474 H488 0.930 . S
C475 C472 1.344 . S
C475 C474 1.371 . S
C475 H489 0.931 . S
C476 C472 1.328 . S
C476 C477 1.433 . S
C476 H490 0.931 . S
C477 C473 1.323 . S
C477 C476 1.433 . S
C477 H491 0.933 . S
C478 Dy456 2.738 . S
C478 O461 1.255 . S
C478 O462 1.249 . S
C478 C472 1.516 . S
C479 O463 1.254 . S
C479 O464 1.257 . S
C480 O465 1.266 . S
C480 O466 1.236 . S
C481 C484 1.344 . S
C481 C485 1.328 . S
C481 C487 1.516 . S
C482 C483 1.304 . S
C482 C486 1.323 . S
C483 C482 1.304 . S
C483 C484 1.371 . S
C483 H492 0.930 . S
C484 C481 1.344 . S
C484 C483 1.371 . S
C484 H493 0.931 . S
C485 C481 1.328 . S
C485 C486 1.433 . S
C485 H494 0.931 . S
C486 C482 1.323 . S
C486 C485 1.433 . S
C486 H495 0.933 . S
C487 Dy457 2.738 . S
C487 O467 1.255 . S
C487 O468 1.249 . S
C487 C481 1.516 . S
H488 C474 0.930 . S
H489 C475 0.931 . S
H490 C476 0.931 . S
H491 C477 0.933 . S
H492 C483 0.930 . S
H493 C484 0.931 . S
H494 C485 0.931 . S
H495 C486 0.933 . S
Dy496 O499 2.307 . S
Dy496 O501 2.395 1_545 S
Dy496 O502 2.379 1_545 S
Dy496 O504 2.339 . S
Dy496 O506 2.298 . S
Dy496 O510 2.275 . S
Dy496 C518 2.738 1_545 S
Dy497 O500 2.298 . S
Dy497 O503 2.275 . S
Dy497 O505 2.307 . S
Dy497 O507 2.395 . S
Dy497 O508 2.403 . S
Dy497 O511 2.339 1_455 S
Dy497 C527 2.738 . S
C498 O510 1.254 1_655 S
C498 O511 1.257 . S
O499 Dy496 2.307 . S
O499 C509 1.266 . S
O500 Dy497 2.298 . S
O500 C509 1.236 . S
O501 Dy496 2.395 1_565 S
O501 C518 1.255 . S
O502 Dy496 2.379 1_565 S
O502 C518 1.249 . S
O503 Dy497 2.275 . S
O503 C519 1.254 . S
O504 Dy496 2.339 . S
O504 C519 1.257 . S
O505 Dy497 2.307 . S
O505 C520 1.266 . S
O506 Dy496 2.298 . S
O506 C520 1.236 . S
O507 Dy497 2.395 . S
O507 C527 1.255 . S
O508 Dy497 2.403 . S
O508 C527 1.275 . S
C509 O499 1.266 . S
C509 O500 1.236 . S
O510 Dy496 2.275 . S
O510 C498 1.254 1_455 S
O511 Dy497 2.339 1_655 S
O511 C498 1.257 . S
C512 C515 1.344 . S
C512 C516 1.328 . S
C512 C518 1.516 . S
C513 C514 1.304 . S
C513 C517 1.323 . S
C514 C513 1.304 . S
C514 C515 1.371 . S
C514 H528 0.930 . S
C515 C512 1.344 . S
C515 C514 1.371 . S
C515 H529 0.931 . S
C516 C512 1.328 . S
C516 C517 1.433 . S
C516 H530 0.931 . S
C517 C513 1.323 . S
C517 C516 1.433 . S
C517 H531 0.933 . S
C518 Dy496 2.738 1_565 S
C518 O501 1.255 . S
C518 O502 1.249 . S
C518 C512 1.516 . S
C519 O503 1.254 . S
C519 O504 1.257 . S
C520 O505 1.266 . S
C520 O506 1.236 . S
C521 C524 1.344 . S
C521 C525 1.328 1_455 S
C521 C527 1.516 . S
C522 C523 1.304 . S
C522 C526 1.323 1_455 S
C523 C522 1.304 . S
C523 C524 1.371 . S
C523 H532 0.930 . S
C524 C521 1.344 . S
C524 C523 1.371 . S
C524 H533 0.931 . S
C525 C521 1.328 1_655 S
C525 C526 1.433 . S
C525 H534 0.931 . S
C526 C522 1.323 1_655 S
C526 C525 1.433 . S
C526 H535 0.933 . S
C527 Dy497 2.738 . S
C527 O507 1.255 . S
C527 O508 1.275 . S
C527 C521 1.516 . S
H528 C514 0.930 . S
H529 C515 0.931 . S
H530 C516 0.931 . S
H531 C517 0.933 . S
H532 C523 0.930 . S
H533 C524 0.931 . S
H534 C525 0.931 . S
H535 C526 0.933 . S
Dy536 O539 2.307 . S
Dy536 O541 2.395 . S
Dy536 O542 2.379 . S
Dy536 O544 2.339 . S
Dy536 O546 2.298 . S
Dy536 O550 2.275 . S
Dy536 C558 2.738 . S
Dy537 O540 2.298 . S
Dy537 O543 2.275 . S
Dy537 O545 2.307 . S
Dy537 O547 2.395 . S
Dy537 O548 2.379 . S
Dy537 O551 2.339 . S
Dy537 C567 2.738 . S
C538 O550 1.254 . S
C538 O551 1.257 . S
O539 Dy536 2.307 . S
O539 C549 1.266 . S
O540 Dy537 2.298 . S
O540 C549 1.236 . S
O541 Dy536 2.395 . S
O541 C558 1.255 . S
O542 Dy536 2.379 . S
O542 C558 1.249 . S
O543 Dy537 2.275 . S
O543 C559 1.254 . S
O544 Dy536 2.339 . S
O544 C559 1.257 . S
O545 Dy537 2.307 . S
O545 C560 1.266 . S
O546 Dy536 2.298 . S
O546 C560 1.236 . S
O547 Dy537 2.395 . S
O547 C567 1.255 . S
O548 Dy537 2.379 . S
O548 C567 1.249 . S
C549 O539 1.266 . S
C549 O540 1.236 . S
O550 Dy536 2.275 . S
O550 C538 1.254 . S
O551 Dy537 2.339 . S
O551 C538 1.257 . S
C552 C555 1.344 . S
C552 C556 1.328 . S
C552 C558 1.516 . S
C553 C554 1.304 . S
C553 C557 1.323 . S
C554 C553 1.304 . S
C554 C555 1.371 . S
C554 H568 0.930 . S
C555 C552 1.344 . S
C555 C554 1.371 . S
C555 H569 0.931 . S
C556 C552 1.328 . S
C556 C557 1.433 . S
C556 H570 0.931 . S
C557 C553 1.323 . S
C557 C556 1.433 . S
C557 H571 0.933 . S
C558 Dy536 2.738 . S
C558 O541 1.255 . S
C558 O542 1.249 . S
C558 C552 1.516 . S
C559 O543 1.254 . S
C559 O544 1.257 . S
C560 O545 1.266 . S
C560 O546 1.236 . S
C561 C564 1.344 . S
C561 C565 1.328 . S
C561 C567 1.516 . S
C562 C563 1.304 . S
C562 C566 1.323 . S
C563 C562 1.304 . S
C563 C564 1.371 . S
C563 H572 0.930 . S
C564 C561 1.344 . S
C564 C563 1.371 . S
C564 H573 0.931 . S
C565 C561 1.328 . S
C565 C566 1.433 . S
C565 H574 0.931 . S
C566 C562 1.323 . S
C566 C565 1.433 . S
C566 H575 0.933 . S
C567 Dy537 2.738 . S
C567 O547 1.255 . S
C567 O548 1.249 . S
C567 C561 1.516 . S
H568 C554 0.930 . S
H569 C555 0.931 . S
H570 C556 0.931 . S
H571 C557 0.933 . S
H572 C563 0.930 . S
H573 C564 0.931 . S
H574 C565 0.931 . S
H575 C566 0.933 . S
Dy576 O579 2.307 1_556 S
Dy576 O581 2.395 . S
Dy576 O582 2.379 . S
Dy576 O584 2.339 1_556 S
Dy576 O586 2.298 1_556 S
Dy576 O590 2.275 1_556 S
Dy576 C598 2.738 . S
Dy577 O580 2.298 . S
Dy577 O583 2.275 . S
Dy577 O585 2.307 . S
Dy577 O587 2.395 . S
Dy577 O588 2.422 . S
Dy577 O591 2.339 1_545 S
Dy577 C607 2.738 . S
C578 O590 1.281 . S
C578 O591 1.248 1_545 S
O579 Dy576 2.307 1_554 S
O579 C589 1.266 . S
O580 Dy577 2.298 . S
O580 C589 1.236 . S
O581 Dy576 2.395 . S
O581 C598 1.255 . S
O582 Dy576 2.379 . S
O582 C598 1.249 . S
O583 Dy577 2.275 . S
O583 C599 1.254 . S
O584 Dy576 2.339 1_554 S
O584 C599 1.257 . S
O585 Dy577 2.307 . S
O585 C600 1.266 . S
O586 Dy576 2.298 1_554 S
O586 C600 1.236 . S
O587 Dy577 2.395 . S
O587 C607 1.255 . S
O588 Dy577 2.422 . S
O588 C607 1.298 . S
C589 O579 1.266 . S
C589 O580 1.236 . S
O590 Dy576 2.275 1_554 S
O590 C578 1.281 . S
O591 Dy577 2.339 1_565 S
O591 C578 1.248 1_565 S
C592 C595 1.344 . S
C592 C596 1.328 . S
C592 C598 1.516 . S
C593 C594 1.304 . S
C593 C597 1.323 . S
C594 C593 1.304 . S
C594 C595 1.371 . S
C594 H608 0.930 . S
C595 C592 1.344 . S
C595 C594 1.371 . S
C595 H609 0.931 . S
C596 C592 1.328 . S
C596 C597 1.433 . S
C596 H610 0.931 . S
C597 C593 1.323 . S
C597 C596 1.433 . S
C597 H611 0.933 . S
C598 Dy576 2.738 . S
C598 O581 1.255 . S
C598 O582 1.249 . S
C598 C592 1.516 . S
C599 O583 1.254 . S
C599 O584 1.257 . S
C600 O585 1.266 . S
C600 O586 1.236 . S
C601 C604 1.344 . S
C601 C605 1.328 1_545 S
C601 C607 1.516 . S
C602 C603 1.304 1_565 S
C602 C606 1.323 . S
C603 C602 1.304 1_545 S
C603 C604 1.371 . S
C603 H612 0.930 . S
C604 C601 1.344 . S
C604 C603 1.371 . S
C604 H613 0.931 . S
C605 C601 1.328 1_565 S
C605 C606 1.433 . S
C605 H614 0.931 . S
C606 C602 1.323 . S
C606 C605 1.433 . S
C606 H615 0.933 . S
C607 Dy577 2.738 . S
C607 O587 1.255 . S
C607 O588 1.298 . S
C607 C601 1.516 . S
H608 C594 0.930 . S
H609 C595 0.931 . S
H610 C596 0.931 . S
H611 C597 0.933 . S
H612 C603 0.930 . S
H613 C604 0.931 . S
H614 C605 0.931 . S
H615 C606 0.933 . S
Dy616 O619 2.307 . S
Dy616 O621 2.395 . S
Dy616 O622 2.379 . S
Dy616 O624 2.339 . S
Dy616 O626 2.298 . S
Dy616 O630 2.275 . S
Dy616 C638 2.738 . S
Dy617 O620 2.298 . S
Dy617 O623 2.275 . S
Dy617 O625 2.307 . S
Dy617 O627 2.395 . S
Dy617 O628 2.379 . S
Dy617 O631 2.339 . S
Dy617 C647 2.738 . S
C618 O630 1.254 . S
C618 O631 1.257 . S
O619 Dy616 2.307 . S
O619 C629 1.266 . S
O620 Dy617 2.298 . S
O620 C629 1.236 . S
O621 Dy616 2.395 . S
O621 C638 1.255 . S
O622 Dy616 2.379 . S
O622 C638 1.249 . S
O623 Dy617 2.275 . S
O623 C639 1.254 . S
O624 Dy616 2.339 . S
O624 C639 1.257 . S
O625 Dy617 2.307 . S
O625 C640 1.266 . S
O626 Dy616 2.298 . S
O626 C640 1.236 . S
O627 Dy617 2.395 . S
O627 C647 1.255 . S
O628 Dy617 2.379 . S
O628 C647 1.249 . S
C629 O619 1.266 . S
C629 O620 1.236 . S
O630 Dy616 2.275 . S
O630 C618 1.254 . S
O631 Dy617 2.339 . S
O631 C618 1.257 . S
C632 C635 1.344 . S
C632 C636 1.328 . S
C632 C638 1.516 . S
C633 C634 1.304 . S
C633 C637 1.323 . S
C634 C633 1.304 . S
C634 C635 1.371 . S
C634 H648 0.930 . S
C635 C632 1.344 . S
C635 C634 1.371 . S
C635 H649 0.931 . S
C636 C632 1.328 . S
C636 C637 1.433 . S
C636 H650 0.931 . S
C637 C633 1.323 . S
C637 C636 1.433 . S
C637 H651 0.933 . S
C638 Dy616 2.738 . S
C638 O621 1.255 . S
C638 O622 1.249 . S
C638 C632 1.516 . S
C639 O623 1.254 . S
C639 O624 1.257 . S
C640 O625 1.266 . S
C640 O626 1.236 . S
C641 C644 1.344 . S
C641 C645 1.328 . S
C641 C647 1.516 . S
C642 C643 1.304 . S
C642 C646 1.323 . S
C643 C642 1.304 . S
C643 C644 1.371 . S
C643 H652 0.930 . S
C644 C641 1.344 . S
C644 C643 1.371 . S
C644 H653 0.931 . S
C645 C641 1.328 . S
C645 C646 1.433 . S
C645 H654 0.931 . S
C646 C642 1.323 . S
C646 C645 1.433 . S
C646 H655 0.933 . S
C647 Dy617 2.738 . S
C647 O627 1.255 . S
C647 O628 1.249 . S
C647 C641 1.516 . S
H648 C634 0.930 . S
H649 C635 0.931 . S
H650 C636 0.931 . S
H651 C637 0.933 . S
H652 C643 0.930 . S
H653 C644 0.931 . S
H654 C645 0.931 . S
H655 C646 0.933 . S
Dy656 O659 2.307 1_554 S
Dy656 O661 2.395 . S
Dy656 O662 2.379 . S
Dy656 O664 2.339 . S
Dy656 O666 2.298 . S
Dy656 O670 2.275 . S
Dy656 C678 2.738 . S
Dy657 O660 2.298 1_554 S
Dy657 O663 2.275 . S
Dy657 O665 2.307 . S
Dy657 O667 2.395 . S
Dy657 O668 2.379 . S
Dy657 O671 2.339 . S
Dy657 C687 2.738 . S
C658 O670 1.254 . S
C658 O671 1.257 . S
O659 Dy656 2.307 1_556 S
O659 C669 1.266 . S
O660 Dy657 2.298 1_556 S
O660 C669 1.236 . S
O661 Dy656 2.395 . S
O661 C678 1.255 . S
O662 Dy656 2.379 . S
O662 C678 1.249 . S
O663 Dy657 2.275 . S
O663 C679 1.254 . S
O664 Dy656 2.339 . S
O664 C679 1.257 . S
O665 Dy657 2.307 . S
O665 C680 1.266 . S
O666 Dy656 2.298 . S
O666 C680 1.236 . S
O667 Dy657 2.395 . S
O667 C687 1.255 . S
O668 Dy657 2.379 . S
O668 C687 1.249 . S
C669 O659 1.266 . S
C669 O660 1.236 . S
O670 Dy656 2.275 . S
O670 C658 1.254 . S
O671 Dy657 2.339 . S
O671 C658 1.257 . S
C672 C675 1.344 . S
C672 C676 1.328 . S
C672 C678 1.516 . S
C673 C674 1.304 . S
C673 C677 1.323 . S
C674 C673 1.304 . S
C674 C675 1.371 . S
C674 H688 0.930 . S
C675 C672 1.344 . S
C675 C674 1.371 . S
C675 H689 0.931 . S
C676 C672 1.328 . S
C676 C677 1.433 . S
C676 H690 0.931 . S
C677 C673 1.323 . S
C677 C676 1.433 . S
C677 H691 0.933 . S
C678 Dy656 2.738 . S
C678 O661 1.255 . S
C678 O662 1.249 . S
C678 C672 1.516 . S
C679 O663 1.254 . S
C679 O664 1.257 . S
C680 O665 1.266 . S
C680 O666 1.236 . S
C681 C684 1.344 . S
C681 C685 1.328 . S
C681 C687 1.516 1_556 S
C682 C683 1.304 . S
C682 C686 1.323 . S
C683 C682 1.304 . S
C683 C684 1.371 . S
C683 H692 0.930 . S
C684 C681 1.344 . S
C684 C683 1.371 . S
C684 H693 0.931 . S
C685 C681 1.328 . S
C685 C686 1.433 . S
C685 H694 0.931 1_556 S
C686 C682 1.323 . S
C686 C685 1.433 . S
C686 H695 0.933 . S
C687 Dy657 2.738 . S
C687 O667 1.255 . S
C687 O668 1.249 . S
C687 C681 1.516 1_554 S
H688 C674 0.930 . S
H689 C675 0.931 . S
H690 C676 0.931 . S
H691 C677 0.933 . S
H692 C683 0.930 . S
H693 C684 0.931 . S
H694 C685 0.931 1_554 S
H695 C686 0.933 . S
Dy696 O699 2.307 . S
Dy696 O701 2.395 . S
Dy696 O702 2.379 . S
Dy696 O704 2.339 . S
Dy696 O706 2.298 . S
Dy696 O710 2.275 . S
Dy696 C718 2.738 . S
Dy697 O700 2.298 . S
Dy697 O703 2.275 . S
Dy697 O705 2.307 . S
Dy697 O707 2.395 . S
Dy697 O708 2.379 . S
Dy697 O711 2.339 . S
Dy697 C727 2.738 . S
C698 O710 1.254 . S
C698 O711 1.257 . S
O699 Dy696 2.307 . S
O699 C709 1.266 . S
O700 Dy697 2.298 . S
O700 C709 1.236 . S
O701 Dy696 2.395 . S
O701 C718 1.255 . S
O702 Dy696 2.379 . S
O702 C718 1.249 . S
O703 Dy697 2.275 . S
O703 C719 1.254 . S
O704 Dy696 2.339 . S
O704 C719 1.257 . S
O705 Dy697 2.307 . S
O705 C720 1.266 . S
O706 Dy696 2.298 . S
O706 C720 1.236 . S
O707 Dy697 2.395 . S
O707 C727 1.255 . S
O708 Dy697 2.379 . S
O708 C727 1.249 . S
C709 O699 1.266 . S
C709 O700 1.236 . S
O710 Dy696 2.275 . S
O710 C698 1.254 . S
O711 Dy697 2.339 . S
O711 C698 1.257 . S
C712 C715 1.344 . S
C712 C716 1.328 . S
C712 C718 1.516 . S
C713 C714 1.304 . S
C713 C717 1.323 . S
C714 C713 1.304 . S
C714 C715 1.371 . S
C714 H728 0.930 . S
C715 C712 1.344 . S
C715 C714 1.371 . S
C715 H729 0.931 . S
C716 C712 1.328 . S
C716 C717 1.433 . S
C716 H730 0.931 . S
C717 C713 1.323 . S
C717 C716 1.433 . S
C717 H731 0.933 . S
C718 Dy696 2.738 . S
C718 O701 1.255 . S
C718 O702 1.249 . S
C718 C712 1.516 . S
C719 O703 1.254 . S
C719 O704 1.257 . S
C720 O705 1.266 . S
C720 O706 1.236 . S
C721 C724 1.344 . S
C721 C725 1.328 . S
C721 C727 1.516 . S
C722 C723 1.304 . S
C722 C726 1.323 . S
C723 C722 1.304 . S
C723 C724 1.371 . S
C723 H732 0.930 . S
C724 C721 1.344 . S
C724 C723 1.371 . S
C724 H733 0.931 . S
C725 C721 1.328 . S
C725 C726 1.433 . S
C725 H734 0.931 . S
C726 C722 1.323 . S
C726 C725 1.433 . S
C726 H735 0.933 . S
C727 Dy697 2.738 . S
C727 O707 1.255 . S
C727 O708 1.249 . S
C727 C721 1.516 . S
H728 C714 0.930 . S
H729 C715 0.931 . S
H730 C716 0.931 . S
H731 C717 0.933 . S
H732 C723 0.930 . S
H733 C724 0.931 . S
H734 C725 0.931 . S
H735 C726 0.933 . S
Dy736 O739 2.307 1_455 S
Dy736 O741 2.395 . S
Dy736 O742 2.379 . S
Dy736 O744 2.339 . S
Dy736 O746 2.298 . S
Dy736 O750 2.275 . S
Dy736 C758 2.738 . S
Dy737 O740 2.298 1_455 S
Dy737 O743 2.275 . S
Dy737 O745 2.307 . S
Dy737 O747 2.395 . S
Dy737 O748 2.379 . S
Dy737 O751 2.339 . S
Dy737 C767 2.738 . S
C738 O750 1.254 . S
C738 O751 1.257 . S
O739 Dy736 2.307 1_655 S
O739 C749 1.266 . S
O740 Dy737 2.298 1_655 S
O740 C749 1.236 . S
O741 Dy736 2.395 . S
O741 C758 1.255 . S
O742 Dy736 2.379 . S
O742 C758 1.249 . S
O743 Dy737 2.275 . S
O743 C759 1.254 . S
O744 Dy736 2.339 . S
O744 C759 1.257 . S
O745 Dy737 2.307 . S
O745 C760 1.266 . S
O746 Dy736 2.298 . S
O746 C760 1.236 . S
O747 Dy737 2.395 . S
O747 C767 1.255 . S
O748 Dy737 2.379 . S
O748 C767 1.249 . S
C749 O739 1.266 . S
C749 O740 1.236 . S
O750 Dy736 2.275 . S
O750 C738 1.254 . S
O751 Dy737 2.339 . S
O751 C738 1.257 . S
C752 C755 1.344 . S
C752 C756 1.328 . S
C752 C758 1.516 . S
C753 C754 1.304 . S
C753 C757 1.323 . S
C754 C753 1.304 . S
C754 C755 1.371 . S
C754 H768 0.930 . S
C755 C752 1.344 . S
C755 C754 1.371 . S
C755 H769 0.931 . S
C756 C752 1.328 . S
C756 C757 1.433 . S
C756 H770 0.931 . S
C757 C753 1.323 . S
C757 C756 1.433 . S
C757 H771 0.933 . S
C758 Dy736 2.738 . S
C758 O741 1.255 . S
C758 O742 1.249 . S
C758 C752 1.516 . S
C759 O743 1.254 . S
C759 O744 1.257 . S
C760 O745 1.266 . S
C760 O746 1.236 . S
C761 C764 1.344 . S
C761 C765 1.328 . S
C761 C767 1.516 1_655 S
C762 C763 1.304 . S
C762 C766 1.323 . S
C763 C762 1.304 . S
C763 C764 1.371 . S
C763 H772 0.930 . S
C764 C761 1.344 . S
C764 C763 1.371 . S
C764 H773 0.931 . S
C765 C761 1.328 . S
C765 C766 1.433 . S
C765 H774 0.931 . S
C766 C762 1.323 . S
C766 C765 1.433 . S
C766 H775 0.933 . S
C767 Dy737 2.738 . S
C767 O747 1.255 . S
C767 O748 1.249 . S
C767 C761 1.516 1_455 S
H768 C754 0.930 . S
H769 C755 0.931 . S
H770 C756 0.931 . S
H771 C757 0.933 . S
H772 C763 0.930 . S
H773 C764 0.931 . S
H774 C765 0.931 . S
H775 C766 0.933 . S
Dy776 O779 2.307 . S
Dy776 O781 2.395 . S
Dy776 O782 2.379 . S
Dy776 O784 2.339 . S
Dy776 O786 2.298 . S
Dy776 O790 2.275 . S
Dy776 C798 2.738 . S
Dy777 O780 2.298 . S
Dy777 O783 2.275 . S
Dy777 O785 2.307 . S
Dy777 O787 2.395 . S
Dy777 O788 2.379 . S
Dy777 O791 2.339 . S
Dy777 C807 2.738 . S
C778 O790 1.254 . S
C778 O791 1.257 . S
O779 Dy776 2.307 . S
O779 C789 1.266 . S
O780 Dy777 2.298 . S
O780 C789 1.236 . S
O781 Dy776 2.395 . S
O781 C798 1.255 . S
O782 Dy776 2.379 . S
O782 C798 1.249 . S
O783 Dy777 2.275 . S
O783 C799 1.254 . S
O784 Dy776 2.339 . S
O784 C799 1.257 . S
O785 Dy777 2.307 . S
O785 C800 1.266 . S
O786 Dy776 2.298 . S
O786 C800 1.236 . S
O787 Dy777 2.395 . S
O787 C807 1.255 . S
O788 Dy777 2.379 . S
O788 C807 1.249 . S
C789 O779 1.266 . S
C789 O780 1.236 . S
O790 Dy776 2.275 . S
O790 C778 1.254 . S
O791 Dy777 2.339 . S
O791 C778 1.257 . S
C792 C795 1.344 . S
C792 C796 1.328 . S
C792 C798 1.516 . S
C793 C794 1.304 . S
C793 C797 1.323 . S
C794 C793 1.304 . S
C794 C795 1.371 . S
C794 H808 0.930 . S
C795 C792 1.344 . S
C795 C794 1.371 . S
C795 H809 0.931 . S
C796 C792 1.328 . S
C796 C797 1.433 . S
C796 H810 0.931 . S
C797 C793 1.323 . S
C797 C796 1.433 . S
C797 H811 0.933 . S
C798 Dy776 2.738 . S
C798 O781 1.255 . S
C798 O782 1.249 . S
C798 C792 1.516 . S
C799 O783 1.254 . S
C799 O784 1.257 . S
C800 O785 1.266 . S
C800 O786 1.236 . S
C801 C804 1.344 . S
C801 C805 1.328 . S
C801 C807 1.516 . S
C802 C803 1.304 . S
C802 C806 1.323 . S
C803 C802 1.304 . S
C803 C804 1.371 . S
C803 H812 0.930 . S
C804 C801 1.344 . S
C804 C803 1.371 . S
C804 H813 0.931 . S
C805 C801 1.328 . S
C805 C806 1.433 . S
C805 H814 0.931 . S
C806 C802 1.323 . S
C806 C805 1.433 . S
C806 H815 0.933 . S
C807 Dy777 2.738 . S
C807 O787 1.255 . S
C807 O788 1.249 . S
C807 C801 1.516 . S
H808 C794 0.930 . S
H809 C795 0.931 . S
H810 C796 0.931 . S
H811 C797 0.933 . S
H812 C803 0.930 . S
H813 C804 0.931 . S
H814 C805 0.931 . S
H815 C806 0.933 . S
Dy816 O819 2.307 . S
Dy816 O821 2.395 . S
Dy816 O822 2.379 . S
Dy816 O824 2.339 . S
Dy816 O826 2.298 . S
Dy816 O830 2.275 . S
Dy816 C838 2.738 . S
Dy817 O820 2.298 . S
Dy817 O823 2.275 . S
Dy817 O825 2.307 . S
Dy817 O827 2.395 . S
Dy817 O828 2.379 . S
Dy817 O831 2.339 . S
Dy817 C847 2.738 . S
C818 O830 1.254 . S
C818 O831 1.257 . S
O819 Dy816 2.307 . S
O819 C829 1.266 . S
O820 Dy817 2.298 . S
O820 C829 1.236 . S
O821 Dy816 2.395 . S
O821 C838 1.255 . S
O822 Dy816 2.379 . S
O822 C838 1.249 . S
O823 Dy817 2.275 . S
O823 C839 1.254 . S
O824 Dy816 2.339 . S
O824 C839 1.257 . S
O825 Dy817 2.307 . S
O825 C840 1.266 . S
O826 Dy816 2.298 . S
O826 C840 1.236 . S
O827 Dy817 2.395 . S
O827 C847 1.255 . S
O828 Dy817 2.379 . S
O828 C847 1.249 . S
C829 O819 1.266 . S
C829 O820 1.236 . S
O830 Dy816 2.275 . S
O830 C818 1.254 . S
O831 Dy817 2.339 . S
O831 C818 1.257 . S
C832 C835 1.344 . S
C832 C836 1.328 . S
C832 C838 1.516 . S
C833 C834 1.304 . S
C833 C837 1.323 . S
C834 C833 1.304 . S
C834 C835 1.371 . S
C834 H848 0.930 . S
C835 C832 1.344 . S
C835 C834 1.371 . S
C835 H849 0.931 . S
C836 C832 1.328 . S
C836 C837 1.433 . S
C836 H850 0.931 . S
C837 C833 1.323 . S
C837 C836 1.433 . S
C837 H851 0.933 . S
C838 Dy816 2.738 . S
C838 O821 1.255 . S
C838 O822 1.249 . S
C838 C832 1.516 . S
C839 O823 1.254 . S
C839 O824 1.257 . S
C840 O825 1.266 . S
C840 O826 1.236 . S
C841 C844 1.344 . S
C841 C845 1.328 . S
C841 C847 1.516 . S
C842 C843 1.304 . S
C842 C846 1.323 . S
C843 C842 1.304 . S
C843 C844 1.371 . S
C843 H852 0.930 . S
C844 C841 1.344 . S
C844 C843 1.371 . S
C844 H853 0.931 . S
C845 C841 1.328 . S
C845 C846 1.433 . S
C845 H854 0.931 . S
C846 C842 1.323 . S
C846 C845 1.433 . S
C846 H855 0.933 . S
C847 Dy817 2.738 . S
C847 O827 1.255 . S
C847 O828 1.249 . S
C847 C841 1.516 . S
H848 C834 0.930 . S
H849 C835 0.931 . S
H850 C836 0.931 . S
H851 C837 0.933 . S
H852 C843 0.930 . S
H853 C844 0.931 . S
H854 C845 0.931 . S
H855 C846 0.933 . S
Dy856 O859 2.307 . S
Dy856 O861 2.395 . S
Dy856 O862 2.379 . S
Dy856 O864 2.339 . S
Dy856 O866 2.298 . S
Dy856 O870 2.275 . S
Dy856 C878 2.738 . S
Dy857 O860 2.298 . S
Dy857 O863 2.275 . S
Dy857 O865 2.307 . S
Dy857 O867 2.395 . S
Dy857 O868 2.379 . S
Dy857 O871 2.339 . S
Dy857 C887 2.738 . S
C858 O870 1.254 . S
C858 O871 1.257 . S
O859 Dy856 2.307 . S
O859 C869 1.266 . S
O860 Dy857 2.298 . S
O860 C869 1.236 . S
O861 Dy856 2.395 . S
O861 C878 1.255 . S
O862 Dy856 2.379 . S
O862 C878 1.249 . S
O863 Dy857 2.275 . S
O863 C879 1.254 . S
O864 Dy856 2.339 . S
O864 C879 1.257 . S
O865 Dy857 2.307 . S
O865 C880 1.266 . S
O866 Dy856 2.298 . S
O866 C880 1.236 . S
O867 Dy857 2.395 . S
O867 C887 1.255 . S
O868 Dy857 2.379 . S
O868 C887 1.249 . S
C869 O859 1.266 . S
C869 O860 1.236 . S
O870 Dy856 2.275 . S
O870 C858 1.254 . S
O871 Dy857 2.339 . S
O871 C858 1.257 . S
C872 C875 1.344 . S
C872 C876 1.328 . S
C872 C878 1.516 . S
C873 C874 1.304 . S
C873 C877 1.323 . S
C874 C873 1.304 . S
C874 C875 1.371 . S
C874 H888 0.930 . S
C875 C872 1.344 . S
C875 C874 1.371 . S
C875 H889 0.931 . S
C876 C872 1.328 . S
C876 C877 1.433 . S
C876 H890 0.931 . S
C877 C873 1.323 . S
C877 C876 1.433 . S
C877 H891 0.933 . S
C878 Dy856 2.738 . S
C878 O861 1.255 . S
C878 O862 1.249 . S
C878 C872 1.516 . S
C879 O863 1.254 . S
C879 O864 1.257 . S
C880 O865 1.266 . S
C880 O866 1.236 . S
C881 C884 1.344 . S
C881 C885 1.328 . S
C881 C887 1.516 . S
C882 C883 1.304 . S
C882 C886 1.323 . S
C883 C882 1.304 . S
C883 C884 1.371 . S
C883 H892 0.930 . S
C884 C881 1.344 . S
C884 C883 1.371 . S
C884 H893 0.931 . S
C885 C881 1.328 . S
C885 C886 1.433 . S
C885 H894 0.931 . S
C886 C882 1.323 . S
C886 C885 1.433 . S
C886 H895 0.933 . S
C887 Dy857 2.738 . S
C887 O867 1.255 . S
C887 O868 1.249 . S
C887 C881 1.516 . S
H888 C874 0.930 . S
H889 C875 0.931 . S
H890 C876 0.931 . S
H891 C877 0.933 . S
H892 C883 0.930 . S
H893 C884 0.931 . S
H894 C885 0.931 . S
H895 C886 0.933 . S
Dy896 O899 2.307 . S
Dy896 O901 2.395 . S
Dy896 O902 2.379 . S
Dy896 O904 2.339 . S
Dy896 O906 2.298 . S
Dy896 O910 2.275 . S
Dy896 C918 2.738 . S
Dy897 O900 2.298 . S
Dy897 O903 2.275 . S
Dy897 O905 2.307 . S
Dy897 O907 2.395 . S
Dy897 O908 2.379 . S
Dy897 O911 2.339 . S
Dy897 C927 2.738 . S
C898 O910 1.254 . S
C898 O911 1.257 . S
O899 Dy896 2.307 . S
O899 C909 1.266 . S
O900 Dy897 2.298 . S
O900 C909 1.236 . S
O901 Dy896 2.395 . S
O901 C918 1.255 . S
O902 Dy896 2.379 . S
O902 C918 1.249 . S
O903 Dy897 2.275 . S
O903 C919 1.254 . S
O904 Dy896 2.339 . S
O904 C919 1.257 . S
O905 Dy897 2.307 . S
O905 C920 1.266 . S
O906 Dy896 2.298 . S
O906 C920 1.236 . S
O907 Dy897 2.395 . S
O907 C927 1.255 . S
O908 Dy897 2.379 . S
O908 C927 1.249 . S
C909 O899 1.266 . S
C909 O900 1.236 . S
O910 Dy896 2.275 . S
O910 C898 1.254 . S
O911 Dy897 2.339 . S
O911 C898 1.257 . S
C912 C915 1.344 . S
C912 C916 1.328 . S
C912 C918 1.516 . S
C913 C914 1.304 . S
C913 C917 1.323 . S
C914 C913 1.304 . S
C914 C915 1.371 . S
C914 H928 0.930 . S
C915 C912 1.344 . S
C915 C914 1.371 . S
C915 H929 0.931 . S
C916 C912 1.328 . S
C916 C917 1.433 . S
C916 H930 0.931 . S
C917 C913 1.323 . S
C917 C916 1.433 . S
C917 H931 0.933 . S
C918 Dy896 2.738 . S
C918 O901 1.255 . S
C918 O902 1.249 . S
C918 C912 1.516 . S
C919 O903 1.254 . S
C919 O904 1.257 . S
C920 O905 1.266 . S
C920 O906 1.236 . S
C921 C924 1.344 . S
C921 C925 1.328 . S
C921 C927 1.516 . S
C922 C923 1.304 . S
C922 C926 1.323 . S
C923 C922 1.304 . S
C923 C924 1.371 . S
C923 H932 0.930 . S
C924 C921 1.344 . S
C924 C923 1.371 . S
C924 H933 0.931 . S
C925 C921 1.328 . S
C925 C926 1.433 . S
C925 H934 0.931 . S
C926 C922 1.323 . S
C926 C925 1.433 . S
C926 H935 0.933 . S
C927 Dy897 2.738 . S
C927 O907 1.255 . S
C927 O908 1.249 . S
C927 C921 1.516 . S
H928 C914 0.930 . S
H929 C915 0.931 . S
H930 C916 0.931 . S
H931 C917 0.933 . S
H932 C923 0.930 . S
H933 C924 0.931 . S
H934 C925 0.931 . S
H935 C926 0.933 . S
Dy936 O939 2.278 1_655 S
Dy936 O941 2.442 . S
Dy936 O942 2.422 . S
Dy936 O944 2.310 1_655 S
Dy936 O946 2.281 1_655 S
Dy936 O950 2.253 1_655 S
Dy936 C958 2.789 . S
Dy937 O940 2.298 . S
Dy937 O943 2.275 . S
Dy937 O945 2.307 . S
Dy937 O947 2.395 . S
Dy937 O948 2.379 1_554 S
Dy937 O951 2.339 1_554 S
Dy937 C967 2.738 . S
C938 O950 1.254 1_556 S
C938 O951 1.257 . S
O939 Dy936 2.278 1_455 S
O939 C949 1.266 . S
O940 Dy937 2.298 . S
O940 C949 1.236 . S
O941 Dy936 2.442 . S
O941 C958 1.255 . S
O942 Dy936 2.422 . S
O942 C958 1.249 . S
O943 Dy937 2.275 . S
O943 C959 1.254 . S
O944 Dy936 2.310 1_455 S
O944 C959 1.257 . S
O945 Dy937 2.307 . S
O945 C960 1.266 . S
O946 Dy936 2.281 1_455 S
O946 C960 1.236 . S
O947 Dy937 2.395 . S
O947 C967 1.255 . S
O948 Dy937 2.379 1_556 S
O948 C967 1.249 1_556 S
C949 O939 1.266 . S
C949 O940 1.236 . S
O950 Dy936 2.253 1_455 S
O950 C938 1.254 1_554 S
O951 Dy937 2.339 1_556 S
O951 C938 1.257 . S
C952 C955 1.344 . S
C952 C956 1.328 . S
C952 C958 1.516 . S
C953 C954 1.304 . S
C953 C957 1.323 . S
C954 C953 1.304 . S
C954 C955 1.371 . S
C954 H968 0.930 . S
C955 C952 1.344 . S
C955 C954 1.371 . S
C955 H969 0.931 . S
C956 C952 1.328 . S
C956 C957 1.433 . S
C956 H970 0.931 . S
C957 C953 1.323 . S
C957 C956 1.433 . S
C957 H971 0.933 . S
C958 Dy936 2.789 . S
C958 O941 1.255 . S
C958 O942 1.249 . S
C958 C952 1.516 . S
C959 O943 1.254 . S
C959 O944 1.257 . S
C960 O945 1.266 . S
C960 O946 1.236 . S
C961 C964 1.344 . S
C961 C965 1.328 1_554 S
C961 C967 1.516 . S
C962 C963 1.304 . S
C962 C966 1.323 1_554 S
C963 C962 1.304 . S
C963 C964 1.371 . S
C963 H972 0.930 . S
C964 C961 1.344 . S
C964 C963 1.371 . S
C964 H973 0.931 . S
C965 C961 1.328 1_556 S
C965 C966 1.433 . S
C965 H974 0.931 . S
C966 C962 1.323 1_556 S
C966 C965 1.433 . S
C966 H975 0.933 . S
C967 Dy937 2.738 . S
C967 O947 1.255 . S
C967 O948 1.249 1_554 S
C967 C961 1.516 . S
H968 C954 0.930 . S
H969 C955 0.931 . S
H970 C956 0.931 . S
H971 C957 0.933 . S
H972 C963 0.930 . S
H973 C964 0.931 . S
H974 C965 0.931 . S
H975 C966 0.933 . S
H976 C984 0.929 . S
H977 C986 0.930 1_554 S
H978 C988 0.925 . S
H979 C991 0.929 . S
H980 C994 0.930 . S
H981 C996 0.960 . S
H982 C996 0.960 . S
H983 C996 0.960 . S
C984 H976 0.929 . S
C984 C985 1.368 1_455 S
C984 C986 1.384 . S
C985 C984 1.368 1_655 S
C985 C991 1.387 . S
C986 H977 0.930 1_556 S
C986 C984 1.384 . S
C986 C987 1.372 . S
C987 C986 1.372 . S
C987 C988 1.386 1_455 S
C987 C992 1.490 . S
C988 H978 0.925 . S
C988 C987 1.386 1_655 S
C988 C991 1.408 . S
H989 C1005 0.930 1_556 S
H990 C1006 0.931 . S
C991 H979 0.929 . S
C991 C985 1.387 . S
C991 C988 1.408 . S
C992 C987 1.490 . S
C992 C994 1.395 1_456 S
C992 C995 1.403 . S
H993 C999 0.930 . S
C994 H980 0.930 . S
C994 C992 1.395 1_654 S
C994 C997 1.402 . S
C995 C992 1.403 . S
C995 C996 1.524 . S
C995 C999 1.400 . S
C996 H981 0.960 . S
C996 H982 0.960 . S
C996 H983 0.960 . S
C996 C995 1.524 . S
C997 C994 1.402 . S
C997 C998 1.397 1_655 S
C997 C1001 1.492 . S
C998 C997 1.397 1_455 S
C998 C999 1.385 1_554 S
C998 C1000 1.478 . S
C999 H993 0.930 . S
C999 C995 1.400 . S
C999 C998 1.385 1_556 S
C1000 C998 1.478 . S
C1000 C1002 1.381 . S
C1000 C1006 1.383 1_554 S
C1001 C997 1.492 . S
C1001 H1007 0.959 . S
C1001 H1008 0.961 . S
C1001 H1009 0.960 . S
C1002 C1000 1.381 . S
C1002 C1003 1.394 . S
C1002 H1010 0.930 . S
C1003 C1002 1.394 . S
C1003 C1004 1.383 . S
C1003 H1011 0.929 . S
C1004 C1003 1.383 . S
C1004 C1005 1.377 . S
C1005 H989 0.930 1_554 S
C1005 C1004 1.377 . S
C1005 C1006 1.379 1_554 S
C1006 H990 0.931 . S
C1006 C1000 1.383 1_556 S
C1006 C1005 1.379 1_556 S
H1007 C1001 0.959 . S
H1008 C1001 0.961 . S
H1009 C1001 0.960 . S
H1010 C1002 0.930 . S
H1011 C1003 0.929 . S
H1012 C1020 0.929 . S
H1013 C1022 0.930 . S
H1014 C1024 0.930 . S
H1015 C1027 0.929 . S
H1016 C1030 0.930 . S
H1017 C1032 0.960 . S
H1018 C1032 0.960 . S
H1019 C1032 0.960 . S
C1020 H1012 0.929 . S
C1020 C1021 1.377 . S
C1020 C1022 1.384 . S
C1021 C1020 1.377 . S
C1021 C1027 1.390 . S
C1022 H1013 0.930 . S
C1022 C1020 1.384 . S
C1022 C1023 1.372 . S
C1023 C1022 1.372 . S
C1023 C1024 1.400 . S
C1023 C1028 1.490 . S
C1024 H1014 0.930 . S
C1024 C1023 1.400 . S
C1024 C1027 1.386 . S
H1025 C1041 0.930 . S
H1026 C1042 0.931 . S
C1027 H1015 0.929 . S
C1027 C1021 1.390 . S
C1027 C1024 1.386 . S
C1028 C1023 1.490 . S
C1028 C1030 1.395 . S
C1028 C1031 1.403 . S
H1029 C1035 0.930 . S
C1030 H1016 0.930 . S
C1030 C1028 1.395 . S
C1030 C1033 1.403 . S
C1031 C1028 1.403 . S
C1031 C1032 1.524 . S
C1031 C1035 1.400 . S
C1032 H1017 0.960 . S
C1032 H1018 0.960 . S
C1032 H1019 0.960 . S
C1032 C1031 1.524 . S
C1033 C1030 1.403 . S
C1033 C1034 1.392 . S
C1033 C1037 1.495 . S
C1034 C1033 1.392 . S
C1034 C1035 1.385 . S
C1034 C1036 1.478 . S
C1035 H1029 0.930 . S
C1035 C1031 1.400 . S
C1035 C1034 1.385 . S
C1036 C1034 1.478 . S
C1036 C1038 1.381 . S
C1036 C1042 1.383 . S
C1037 C1033 1.495 . S
C1037 H1043 0.959 . S
C1037 H1044 0.961 . S
C1037 H1045 0.960 . S
C1038 C1036 1.381 . S
C1038 C1039 1.394 . S
C1038 H1046 0.930 . S
C1039 C1038 1.394 . S
C1039 C1040 1.383 . S
C1039 H1047 0.929 . S
C1040 C1039 1.383 . S
C1040 C1041 1.377 . S
C1041 H1025 0.930 . S
C1041 C1040 1.377 . S
C1041 C1042 1.379 . S
C1042 H1026 0.931 . S
C1042 C1036 1.383 . S
C1042 C1041 1.379 . S
H1043 C1037 0.959 . S
H1044 C1037 0.961 . S
H1045 C1037 0.960 . S
H1046 C1038 0.930 . S
H1047 C1039 0.929 . S
H1048 C1056 0.929 . S
H1049 C1058 0.930 . S
H1050 C1060 0.930 . S
H1051 C1063 0.929 . S
H1052 C1066 0.930 . S
H1053 C1068 0.960 . S
H1054 C1068 0.960 . S
H1055 C1068 0.960 . S
C1056 H1048 0.929 . S
C1056 C1057 1.377 . S
C1056 C1058 1.384 . S
C1057 C1056 1.377 . S
C1057 C1063 1.390 . S
C1058 H1049 0.930 . S
C1058 C1056 1.384 . S
C1058 C1059 1.372 . S
C1059 C1058 1.372 . S
C1059 C1060 1.400 . S
C1059 C1064 1.490 . S
C1060 H1050 0.930 . S
C1060 C1059 1.400 . S
C1060 C1063 1.386 . S
H1061 C1077 0.930 . S
H1062 C1078 0.931 . S
C1063 H1051 0.929 . S
C1063 C1057 1.390 . S
C1063 C1060 1.386 . S
C1064 C1059 1.490 . S
C1064 C1066 1.395 . S
C1064 C1067 1.403 . S
H1065 C1071 0.930 . S
C1066 H1052 0.930 . S
C1066 C1064 1.395 . S
C1066 C1069 1.403 . S
C1067 C1064 1.403 . S
C1067 C1068 1.524 . S
C1067 C1071 1.400 . S
C1068 H1053 0.960 . S
C1068 H1054 0.960 . S
C1068 H1055 0.960 . S
C1068 C1067 1.524 . S
C1069 C1066 1.403 . S
C1069 C1070 1.392 . S
C1069 C1073 1.495 . S
C1070 C1069 1.392 . S
C1070 C1071 1.385 . S
C1070 C1072 1.478 . S
C1071 H1065 0.930 . S
C1071 C1067 1.400 . S
C1071 C1070 1.385 . S
C1072 C1070 1.478 . S
C1072 C1074 1.381 . S
C1072 C1078 1.383 . S
C1073 C1069 1.495 . S
C1073 H1079 0.959 . S
C1073 H1080 0.961 . S
C1073 H1081 0.960 . S
C1074 C1072 1.381 . S
C1074 C1075 1.394 . S
C1074 H1082 0.930 . S
C1075 C1074 1.394 . S
C1075 C1076 1.383 . S
C1075 H1083 0.929 . S
C1076 C1075 1.383 . S
C1076 C1077 1.377 . S
C1077 H1061 0.930 . S
C1077 C1076 1.377 . S
C1077 C1078 1.379 . S
C1078 H1062 0.931 . S
C1078 C1072 1.383 . S
C1078 C1077 1.379 . S
H1079 C1073 0.959 . S
H1080 C1073 0.961 . S
H1081 C1073 0.960 . S
H1082 C1074 0.930 . S
H1083 C1075 0.929 . S
H1084 C1092 0.929 . S
H1085 C1094 0.930 . S
H1086 C1096 0.930 . S
H1087 C1099 0.929 . S
H1088 C1102 0.930 . S
H1089 C1104 0.960 . S
H1090 C1104 0.960 . S
H1091 C1104 0.960 . S
C1092 H1084 0.929 . S
C1092 C1093 1.377 . S
C1092 C1094 1.384 . S
C1093 C1092 1.377 . S
C1093 C1099 1.390 . S
C1094 H1085 0.930 . S
C1094 C1092 1.384 . S
C1094 C1095 1.372 . S
C1095 C1094 1.372 . S
C1095 C1096 1.400 . S
C1095 C1100 1.490 . S
C1096 H1086 0.930 . S
C1096 C1095 1.400 . S
C1096 C1099 1.386 . S
H1097 C1113 0.930 . S
H1098 C1114 0.931 . S
C1099 H1087 0.929 . S
C1099 C1093 1.390 . S
C1099 C1096 1.386 . S
C1100 C1095 1.490 . S
C1100 C1102 1.395 . S
C1100 C1103 1.403 . S
H1101 C1107 0.930 . S
C1102 H1088 0.930 . S
C1102 C1100 1.395 . S
C1102 C1105 1.403 . S
C1103 C1100 1.403 . S
C1103 C1104 1.524 . S
C1103 C1107 1.400 . S
C1104 H1089 0.960 . S
C1104 H1090 0.960 . S
C1104 H1091 0.960 . S
C1104 C1103 1.524 . S
C1105 C1102 1.403 . S
C1105 C1106 1.392 . S
C1105 C1109 1.495 . S
C1106 C1105 1.392 . S
C1106 C1107 1.385 . S
C1106 C1108 1.478 . S
C1107 H1101 0.930 . S
C1107 C1103 1.400 . S
C1107 C1106 1.385 . S
C1108 C1106 1.478 . S
C1108 C1110 1.381 . S
C1108 C1114 1.383 . S
C1109 C1105 1.495 . S
C1109 H1115 0.959 . S
C1109 H1116 0.961 . S
C1109 H1117 0.960 . S
C1110 C1108 1.381 . S
C1110 C1111 1.394 . S
C1110 H1118 0.930 . S
C1111 C1110 1.394 . S
C1111 C1112 1.383 . S
C1111 H1119 0.929 . S
C1112 C1111 1.383 . S
C1112 C1113 1.377 . S
C1113 H1097 0.930 . S
C1113 C1112 1.377 . S
C1113 C1114 1.379 . S
C1114 H1098 0.931 . S
C1114 C1108 1.383 . S
C1114 C1113 1.379 . S
H1115 C1109 0.959 . S
H1116 C1109 0.961 . S
H1117 C1109 0.960 . S
H1118 C1110 0.930 . S
H1119 C1111 0.929 . S
H1120 C1128 0.929 . S
H1121 C1130 0.930 . S
H1122 C1132 0.930 . S
H1123 C1135 0.904 1_655 S
H1124 C1138 0.930 . S
H1125 C1140 0.960 . S
H1126 C1140 0.960 . S
H1127 C1140 0.960 . S
C1128 H1120 0.929 . S
C1128 C1129 1.377 . S
C1128 C1130 1.384 . S
C1129 C1128 1.377 . S
C1129 C1135 1.390 . S
C1130 H1121 0.930 . S
C1130 C1128 1.384 . S
C1130 C1131 1.372 . S
C1131 C1130 1.372 . S
C1131 C1132 1.400 . S
C1131 C1136 1.490 . S
C1132 H1122 0.930 . S
C1132 C1131 1.400 . S
C1132 C1135 1.386 . S
H1133 C1149 0.930 . S
H1134 C1150 0.931 . S
C1135 H1123 0.904 1_455 S
C1135 C1129 1.390 . S
C1135 C1132 1.386 . S
C1136 C1131 1.490 . S
C1136 C1138 1.395 . S
C1136 C1139 1.403 . S
H1137 C1143 0.930 . S
C1138 H1124 0.930 . S
C1138 C1136 1.395 . S
C1138 C1141 1.403 . S
C1139 C1136 1.403 . S
C1139 C1140 1.524 . S
C1139 C1143 1.400 . S
C1140 H1125 0.960 . S
C1140 H1126 0.960 . S
C1140 H1127 0.960 . S
C1140 C1139 1.524 . S
C1141 C1138 1.403 . S
C1141 C1142 1.392 . S
C1141 C1145 1.495 . S
C1142 C1141 1.392 . S
C1142 C1143 1.385 . S
C1142 C1144 1.478 . S
C1143 H1137 0.930 . S
C1143 C1139 1.400 . S
C1143 C1142 1.385 . S
C1144 C1142 1.478 . S
C1144 C1146 1.381 . S
C1144 C1150 1.383 . S
C1145 C1141 1.495 . S
C1145 H1151 0.959 . S
C1145 H1152 0.961 . S
C1145 H1153 0.960 . S
C1146 C1144 1.381 . S
C1146 C1147 1.394 . S
C1146 H1154 0.930 . S
C1147 C1146 1.394 . S
C1147 C1148 1.383 . S
C1147 H1155 0.929 . S
C1148 C1147 1.383 . S
C1148 C1149 1.377 . S
C1149 H1133 0.930 . S
C1149 C1148 1.377 . S
C1149 C1150 1.379 . S
C1150 H1134 0.931 . S
C1150 C1144 1.383 . S
C1150 C1149 1.379 . S
H1151 C1145 0.959 . S
H1152 C1145 0.961 . S
H1153 C1145 0.960 . S
H1154 C1146 0.930 . S
H1155 C1147 0.929 . S
H1156 C1164 0.929 . S
H1157 C1166 0.930 . S
H1158 C1168 0.930 . S
H1159 C1171 0.929 . S
H1160 C1174 0.930 . S
H1161 C1176 0.960 . S
H1162 C1176 0.960 . S
H1163 C1176 0.960 . S
C1164 H1156 0.929 . S
C1164 C1165 1.377 . S
C1164 C1166 1.384 . S
C1165 C1164 1.377 . S
C1165 C1171 1.390 . S
C1166 H1157 0.930 . S
C1166 C1164 1.384 . S
C1166 C1167 1.372 . S
C1167 C1166 1.372 . S
C1167 C1168 1.400 . S
C1167 C1172 1.490 . S
C1168 H1158 0.930 . S
C1168 C1167 1.400 . S
C1168 C1171 1.386 . S
H1169 C1185 0.930 . S
H1170 C1186 0.931 . S
C1171 H1159 0.929 . S
C1171 C1165 1.390 . S
C1171 C1168 1.386 . S
C1172 C1167 1.490 . S
C1172 C1174 1.395 . S
C1172 C1175 1.403 . S
H1173 C1179 0.930 . S
C1174 H1160 0.930 . S
C1174 C1172 1.395 . S
C1174 C1177 1.403 . S
C1175 C1172 1.403 . S
C1175 C1176 1.524 . S
C1175 C1179 1.400 . S
C1176 H1161 0.960 . S
C1176 H1162 0.960 . S
C1176 H1163 0.960 . S
C1176 C1175 1.524 . S
C1177 C1174 1.403 . S
C1177 C1178 1.392 . S
C1177 C1181 1.495 . S
C1178 C1177 1.392 . S
C1178 C1179 1.385 . S
C1178 C1180 1.478 . S
C1179 H1173 0.930 . S
C1179 C1175 1.400 . S
C1179 C1178 1.385 . S
C1180 C1178 1.478 . S
C1180 C1182 1.381 . S
C1180 C1186 1.383 . S
C1181 C1177 1.495 . S
C1181 H1187 0.959 . S
C1181 H1188 0.961 . S
C1181 H1189 0.960 . S
C1182 C1180 1.381 . S
C1182 C1183 1.394 . S
C1182 H1190 0.930 . S
C1183 C1182 1.394 . S
C1183 C1184 1.383 . S
C1183 H1191 0.929 . S
C1184 C1183 1.383 . S
C1184 C1185 1.377 . S
C1185 H1169 0.930 . S
C1185 C1184 1.377 . S
C1185 C1186 1.379 . S
C1186 H1170 0.931 . S
C1186 C1180 1.383 . S
C1186 C1185 1.379 . S
H1187 C1181 0.959 . S
H1188 C1181 0.961 . S
H1189 C1181 0.960 . S
H1190 C1182 0.930 . S
H1191 C1183 0.929 . S
H1192 C1200 0.929 . S
H1193 C1202 0.930 . S
H1194 C1204 0.930 . S
H1195 C1207 0.929 . S
H1196 C1210 0.930 . S
H1197 C1212 0.960 . S
H1198 C1212 0.960 . S
H1199 C1212 0.960 . S
C1200 H1192 0.929 . S
C1200 C1201 1.377 . S
C1200 C1202 1.384 . S
C1201 C1200 1.377 . S
C1201 C1207 1.390 . S
C1202 H1193 0.930 . S
C1202 C1200 1.384 . S
C1202 C1203 1.372 . S
C1203 C1202 1.372 . S
C1203 C1204 1.400 . S
C1203 C1208 1.490 . S
C1204 H1194 0.930 . S
C1204 C1203 1.400 . S
C1204 C1207 1.386 . S
H1205 C1221 0.930 . S
H1206 C1222 0.931 . S
C1207 H1195 0.929 . S
C1207 C1201 1.390 . S
C1207 C1204 1.386 . S
C1208 C1203 1.490 . S
C1208 C1210 1.395 . S
C1208 C1211 1.403 . S
H1209 C1215 0.930 . S
C1210 H1196 0.930 . S
C1210 C1208 1.395 . S
C1210 C1213 1.403 . S
C1211 C1208 1.403 . S
C1211 C1212 1.524 . S
C1211 C1215 1.400 . S
C1212 H1197 0.960 . S
C1212 H1198 0.960 . S
C1212 H1199 0.960 . S
C1212 C1211 1.524 . S
C1213 C1210 1.403 . S
C1213 C1214 1.392 . S
C1213 C1217 1.495 . S
C1214 C1213 1.392 . S
C1214 C1215 1.385 . S
C1214 C1216 1.478 . S
C1215 H1209 0.930 . S
C1215 C1211 1.400 . S
C1215 C1214 1.385 . S
C1216 C1214 1.478 . S
C1216 C1218 1.381 . S
C1216 C1222 1.383 . S
C1217 C1213 1.495 . S
C1217 H1223 0.959 . S
C1217 H1224 0.961 . S
C1217 H1225 0.960 . S
C1218 C1216 1.381 . S
C1218 C1219 1.394 . S
C1218 H1226 0.930 . S
C1219 C1218 1.394 . S
C1219 C1220 1.383 . S
C1219 H1227 0.929 . S
C1220 C1219 1.383 . S
C1220 C1221 1.377 . S
C1221 H1205 0.930 . S
C1221 C1220 1.377 . S
C1221 C1222 1.379 . S
C1222 H1206 0.931 . S
C1222 C1216 1.383 . S
C1222 C1221 1.379 . S
H1223 C1217 0.959 . S
H1224 C1217 0.961 . S
H1225 C1217 0.960 . S
H1226 C1218 0.930 . S
H1227 C1219 0.929 . S
H1228 C1236 0.929 . S
H1229 C1238 0.930 . S
H1230 C1240 0.930 . S
H1231 C1243 0.929 . S
H1232 C1246 0.930 . S
H1233 C1248 0.960 . S
H1234 C1248 0.960 . S
H1235 C1248 0.960 . S
C1236 H1228 0.929 . S
C1236 C1237 1.377 . S
C1236 C1238 1.384 . S
C1237 C1236 1.377 . S
C1237 C1243 1.390 . S
C1238 H1229 0.930 . S
C1238 C1236 1.384 . S
C1238 C1239 1.372 . S
C1239 C1238 1.372 . S
C1239 C1240 1.400 . S
C1239 C1244 1.490 . S
C1240 H1230 0.930 . S
C1240 C1239 1.400 . S
C1240 C1243 1.386 . S
H1241 C1257 0.930 . S
H1242 C1258 0.931 . S
C1243 H1231 0.929 . S
C1243 C1237 1.390 . S
C1243 C1240 1.386 . S
C1244 C1239 1.490 . S
C1244 C1246 1.395 . S
C1244 C1247 1.403 . S
H1245 C1251 0.930 . S
C1246 H1232 0.930 . S
C1246 C1244 1.395 . S
C1246 C1249 1.403 . S
C1247 C1244 1.403 . S
C1247 C1248 1.524 . S
C1247 C1251 1.400 . S
C1248 H1233 0.960 . S
C1248 H1234 0.960 . S
C1248 H1235 0.960 . S
C1248 C1247 1.524 . S
C1249 C1246 1.403 . S
C1249 C1250 1.392 . S
C1249 C1253 1.495 . S
C1250 C1249 1.392 . S
C1250 C1251 1.385 . S
C1250 C1252 1.478 . S
C1251 H1245 0.930 . S
C1251 C1247 1.400 . S
C1251 C1250 1.385 . S
C1252 C1250 1.478 . S
C1252 C1254 1.381 . S
C1252 C1258 1.383 . S
C1253 C1249 1.495 . S
C1253 H1259 0.959 . S
C1253 H1260 0.961 . S
C1253 H1261 0.960 . S
C1254 C1252 1.381 . S
C1254 C1255 1.394 . S
C1254 H1262 0.930 . S
C1255 C1254 1.394 . S
C1255 C1256 1.383 . S
C1255 H1263 0.929 . S
C1256 C1255 1.383 . S
C1256 C1257 1.377 . S
C1257 H1241 0.930 . S
C1257 C1256 1.377 . S
C1257 C1258 1.379 . S
C1258 H1242 0.931 . S
C1258 C1252 1.383 . S
C1258 C1257 1.379 . S
H1259 C1253 0.959 . S
H1260 C1253 0.961 . S
H1261 C1253 0.960 . S
H1262 C1254 0.930 . S
H1263 C1255 0.929 . S
H1264 C1272 0.929 . S
H1265 C1274 0.930 . S
H1266 C1276 0.930 . S
H1267 C1279 0.929 . S
H1268 C1282 0.930 . S
H1269 C1284 0.960 1_455 S
H1270 C1284 0.960 . S
H1271 C1284 0.960 1_455 S
C1272 H1264 0.929 . S
C1272 C1273 1.377 . S
C1272 C1274 1.384 . S
C1273 C1272 1.377 . S
C1273 C1279 1.390 . S
C1274 H1265 0.930 . S
C1274 C1272 1.384 . S
C1274 C1275 1.372 . S
C1275 C1274 1.372 . S
C1275 C1276 1.400 . S
C1275 C1280 1.490 . S
C1276 H1266 0.930 . S
C1276 C1275 1.400 . S
C1276 C1279 1.386 . S
H1277 C1293 0.930 . S
H1278 C1294 0.931 . S
C1279 H1267 0.929 . S
C1279 C1273 1.390 . S
C1279 C1276 1.386 . S
C1280 C1275 1.490 . S
C1280 C1282 1.395 . S
C1280 C1283 1.403 . S
H1281 C1287 0.930 1_455 S
C1282 H1268 0.930 . S
C1282 C1280 1.395 . S
C1282 C1285 1.403 . S
C1283 C1280 1.403 . S
C1283 C1284 1.524 . S
C1283 C1287 1.400 . S
C1284 H1269 0.960 1_655 S
C1284 H1270 0.960 . S
C1284 H1271 0.960 1_655 S
C1284 C1283 1.524 . S
C1285 C1282 1.403 . S
C1285 C1286 1.392 . S
C1285 C1289 1.495 . S
C1286 C1285 1.392 . S
C1286 C1287 1.385 . S
C1286 C1288 1.478 . S
C1287 H1281 0.930 1_655 S
C1287 C1283 1.400 . S
C1287 C1286 1.385 . S
C1288 C1286 1.478 . S
C1288 C1290 1.381 . S
C1288 C1294 1.383 1_655 S
C1289 C1285 1.495 . S
C1289 H1295 0.959 . S
C1289 H1296 0.961 . S
C1289 H1297 0.960 . S
C1290 C1288 1.381 . S
C1290 C1291 1.394 . S
C1290 H1298 0.930 . S
C1291 C1290 1.394 . S
C1291 C1292 1.383 1_655 S
C1291 H1299 0.929 . S
C1292 C1291 1.383 1_455 S
C1292 C1293 1.377 . S
C1293 H1277 0.930 . S
C1293 C1292 1.377 . S
C1293 C1294 1.379 . S
C1294 H1278 0.931 . S
C1294 C1288 1.383 1_455 S
C1294 C1293 1.379 . S
H1295 C1289 0.959 . S
H1296 C1289 0.961 . S
H1297 C1289 0.960 . S
H1298 C1290 0.930 . S
H1299 C1291 0.929 . S
H1300 C1308 0.929 . S
H1301 C1310 0.930 . S
H1302 C1312 0.930 . S
H1303 C1315 0.929 . S
H1304 C1318 0.930 . S
H1305 C1320 0.960 . S
H1306 C1320 0.960 . S
H1307 C1320 0.960 . S
C1308 H1300 0.929 . S
C1308 C1309 1.377 . S
C1308 C1310 1.384 . S
C1309 C1308 1.377 . S
C1309 C1315 1.390 . S
C1310 H1301 0.930 . S
C1310 C1308 1.384 . S
C1310 C1311 1.372 . S
C1311 C1310 1.372 . S
C1311 C1312 1.400 . S
C1311 C1316 1.490 . S
C1312 H1302 0.930 . S
C1312 C1311 1.400 . S
C1312 C1315 1.386 . S
H1313 C1329 0.930 . S
H1314 C1330 0.931 . S
C1315 H1303 0.929 . S
C1315 C1309 1.390 . S
C1315 C1312 1.386 . S
C1316 C1311 1.490 . S
C1316 C1318 1.395 . S
C1316 C1319 1.403 . S
H1317 C1323 0.930 . S
C1318 H1304 0.930 . S
C1318 C1316 1.395 . S
C1318 C1321 1.403 . S
C1319 C1316 1.403 . S
C1319 C1320 1.524 . S
C1319 C1323 1.400 . S
C1320 H1305 0.960 . S
C1320 H1306 0.960 . S
C1320 H1307 0.960 . S
C1320 C1319 1.524 . S
C1321 C1318 1.403 . S
C1321 C1322 1.392 . S
C1321 C1325 1.495 . S
C1322 C1321 1.392 . S
C1322 C1323 1.385 . S
C1322 C1324 1.478 . S
C1323 H1317 0.930 . S
C1323 C1319 1.400 . S
C1323 C1322 1.385 . S
C1324 C1322 1.478 . S
C1324 C1326 1.381 . S
C1324 C1330 1.383 . S
C1325 C1321 1.495 . S
C1325 H1331 0.959 . S
C1325 H1332 0.961 . S
C1325 H1333 0.960 . S
C1326 C1324 1.381 . S
C1326 C1327 1.394 . S
C1326 H1334 0.930 . S
C1327 C1326 1.394 . S
C1327 C1328 1.383 . S
C1327 H1335 0.929 . S
C1328 C1327 1.383 . S
C1328 C1329 1.377 . S
C1329 H1313 0.930 . S
C1329 C1328 1.377 . S
C1329 C1330 1.379 . S
C1330 H1314 0.931 . S
C1330 C1324 1.383 . S
C1330 C1329 1.379 . S
H1331 C1325 0.959 . S
H1332 C1325 0.961 . S
H1333 C1325 0.960 . S
H1334 C1326 0.930 . S
H1335 C1327 0.929 . S
H1336 C1344 0.929 . S
H1337 C1346 0.930 . S
H1338 C1348 0.930 . S
H1339 C1351 0.929 . S
H1340 C1354 0.930 . S
H1341 C1356 0.960 . S
H1342 C1356 0.960 . S
H1343 C1356 0.960 . S
C1344 H1336 0.929 . S
C1344 C1345 1.377 . S
C1344 C1346 1.384 . S
C1345 C1344 1.377 . S
C1345 C1351 1.390 . S
C1346 H1337 0.930 . S
C1346 C1344 1.384 . S
C1346 C1347 1.372 . S
C1347 C1346 1.372 . S
C1347 C1348 1.400 . S
C1347 C1352 1.490 . S
C1348 H1338 0.930 . S
C1348 C1347 1.400 . S
C1348 C1351 1.386 . S
H1349 C1365 0.930 . S
H1350 C1366 0.931 . S
C1351 H1339 0.929 . S
C1351 C1345 1.390 . S
C1351 C1348 1.386 . S
C1352 C1347 1.490 . S
C1352 C1354 1.395 . S
C1352 C1355 1.403 . S
H1353 C1359 0.930 . S
C1354 H1340 0.930 . S
C1354 C1352 1.395 . S
C1354 C1357 1.403 . S
C1355 C1352 1.403 . S
C1355 C1356 1.524 . S
C1355 C1359 1.400 . S
C1356 H1341 0.960 . S
C1356 H1342 0.960 . S
C1356 H1343 0.960 . S
C1356 C1355 1.524 . S
C1357 C1354 1.403 . S
C1357 C1358 1.392 . S
C1357 C1361 1.495 . S
C1358 C1357 1.392 . S
C1358 C1359 1.385 . S
C1358 C1360 1.478 . S
C1359 H1353 0.930 . S
C1359 C1355 1.400 . S
C1359 C1358 1.385 . S
C1360 C1358 1.478 . S
C1360 C1362 1.381 . S
C1360 C1366 1.383 . S
C1361 C1357 1.495 . S
C1361 H1367 0.959 . S
C1361 H1368 0.961 . S
C1361 H1369 0.960 . S
C1362 C1360 1.381 . S
C1362 C1363 1.394 . S
C1362 H1370 0.930 . S
C1363 C1362 1.394 . S
C1363 C1364 1.383 . S
C1363 H1371 0.929 . S
C1364 C1363 1.383 . S
C1364 C1365 1.377 . S
C1365 H1349 0.930 . S
C1365 C1364 1.377 . S
C1365 C1366 1.379 . S
C1366 H1350 0.931 . S
C1366 C1360 1.383 . S
C1366 C1365 1.379 . S
H1367 C1361 0.959 . S
H1368 C1361 0.961 . S
H1369 C1361 0.960 . S
H1370 C1362 0.930 . S
H1371 C1363 0.929 . S
H1372 C1380 0.929 . S
H1373 C1382 0.930 . S
H1374 C1384 0.930 . S
H1375 C1387 0.929 . S
H1376 C1390 0.930 . S
H1377 C1392 0.960 . S
H1378 C1392 0.960 . S
H1379 C1392 0.960 . S
C1380 H1372 0.929 . S
C1380 C1381 1.377 . S
C1380 C1382 1.384 . S
C1381 C1380 1.377 . S
C1381 C1387 1.390 . S
C1382 H1373 0.930 . S
C1382 C1380 1.384 . S
C1382 C1383 1.372 . S
C1383 C1382 1.372 . S
C1383 C1384 1.400 . S
C1383 C1388 1.490 . S
C1384 H1374 0.930 . S
C1384 C1383 1.400 . S
C1384 C1387 1.386 . S
H1385 C1401 0.930 . S
H1386 C1402 0.931 . S
C1387 H1375 0.929 . S
C1387 C1381 1.390 . S
C1387 C1384 1.386 . S
C1388 C1383 1.490 . S
C1388 C1390 1.395 . S
C1388 C1391 1.403 . S
H1389 C1395 0.930 . S
C1390 H1376 0.930 . S
C1390 C1388 1.395 . S
C1390 C1393 1.403 . S
C1391 C1388 1.403 . S
C1391 C1392 1.524 . S
C1391 C1395 1.400 . S
C1392 H1377 0.960 . S
C1392 H1378 0.960 . S
C1392 H1379 0.960 . S
C1392 C1391 1.524 . S
C1393 C1390 1.403 . S
C1393 C1394 1.392 . S
C1393 C1397 1.495 . S
C1394 C1393 1.392 . S
C1394 C1395 1.385 . S
C1394 C1396 1.478 . S
C1395 H1389 0.930 . S
C1395 C1391 1.400 . S
C1395 C1394 1.385 . S
C1396 C1394 1.478 . S
C1396 C1398 1.381 . S
C1396 C1402 1.383 . S
C1397 C1393 1.495 . S
C1397 H1403 0.959 . S
C1397 H1404 0.961 . S
C1397 H1405 0.960 . S
C1398 C1396 1.381 . S
C1398 C1399 1.394 . S
C1398 H1406 0.930 . S
C1399 C1398 1.394 . S
C1399 C1400 1.383 . S
C1399 H1407 0.929 . S
C1400 C1399 1.383 . S
C1400 C1401 1.377 . S
C1401 H1385 0.930 . S
C1401 C1400 1.377 . S
C1401 C1402 1.379 . S
C1402 H1386 0.931 . S
C1402 C1396 1.383 . S
C1402 C1401 1.379 . S
H1403 C1397 0.959 . S
H1404 C1397 0.961 . S
H1405 C1397 0.960 . S
H1406 C1398 0.930 . S
H1407 C1399 0.929 . S
H1408 C1416 0.929 . S
H1409 C1418 0.930 . S
H1410 C1420 0.930 . S
H1411 C1423 0.929 . S
H1412 C1426 0.930 . S
H1413 C1428 0.960 . S
H1414 C1428 0.960 1_655 S
H1415 C1428 0.960 . S
C1416 H1408 0.929 . S
C1416 C1417 1.377 . S
C1416 C1418 1.384 . S
C1417 C1416 1.377 . S
C1417 C1423 1.390 . S
C1418 H1409 0.930 . S
C1418 C1416 1.384 . S
C1418 C1419 1.372 . S
C1419 C1418 1.372 . S
C1419 C1420 1.400 . S
C1419 C1424 1.490 . S
C1420 H1410 0.930 . S
C1420 C1419 1.400 . S
C1420 C1423 1.386 . S
H1421 C1437 0.930 . S
H1422 C1438 0.931 . S
C1423 H1411 0.929 . S
C1423 C1417 1.390 . S
C1423 C1420 1.386 . S
C1424 C1419 1.490 . S
C1424 C1426 1.395 . S
C1424 C1427 1.403 . S
H1425 C1431 0.930 1_455 S
C1426 H1412 0.930 . S
C1426 C1424 1.395 . S
C1426 C1429 1.403 . S
C1427 C1424 1.403 . S
C1427 C1428 1.524 1_655 S
C1427 C1431 1.400 . S
C1428 H1413 0.960 . S
C1428 H1414 0.960 1_455 S
C1428 H1415 0.960 . S
C1428 C1427 1.524 1_455 S
C1429 C1426 1.403 . S
C1429 C1430 1.392 . S
C1429 C1433 1.495 . S
C1430 C1429 1.392 . S
C1430 C1431 1.385 . S
C1430 C1432 1.478 . S
C1431 H1425 0.930 1_655 S
C1431 C1427 1.400 . S
C1431 C1430 1.385 . S
C1432 C1430 1.478 . S
C1432 C1434 1.381 . S
C1432 C1438 1.383 1_655 S
C1433 C1429 1.495 . S
C1433 H1439 0.959 1_545 S
C1433 H1440 0.961 1_545 S
C1433 H1441 0.960 . S
C1434 C1432 1.381 . S
C1434 C1435 1.394 . S
C1434 H1442 0.930 . S
C1435 C1434 1.394 . S
C1435 C1436 1.383 1_655 S
C1435 H1443 0.929 . S
C1436 C1435 1.383 1_455 S
C1436 C1437 1.377 . S
C1437 H1421 0.930 . S
C1437 C1436 1.377 . S
C1437 C1438 1.379 . S
C1438 H1422 0.931 . S
C1438 C1432 1.383 1_455 S
C1438 C1437 1.379 . S
H1439 C1433 0.959 1_565 S
H1440 C1433 0.961 1_565 S
H1441 C1433 0.960 . S
H1442 C1434 0.930 . S
H1443 C1435 0.929 . S
H1444 C1452 0.929 . S
H1445 C1454 0.930 . S
H1446 C1456 0.930 . S
H1447 C1459 0.929 . S
H1448 C1462 0.930 . S
H1449 C1464 0.960 . S
H1450 C1464 0.960 . S
H1451 C1464 0.960 . S
C1452 H1444 0.929 . S
C1452 C1453 1.377 . S
C1452 C1454 1.384 . S
C1453 C1452 1.377 . S
C1453 C1459 1.390 . S
C1454 H1445 0.930 . S
C1454 C1452 1.384 . S
C1454 C1455 1.372 . S
C1455 C1454 1.372 . S
C1455 C1456 1.400 . S
C1455 C1460 1.490 . S
C1456 H1446 0.930 . S
C1456 C1455 1.400 . S
C1456 C1459 1.386 . S
H1457 C1473 0.930 . S
H1458 C1474 0.931 . S
C1459 H1447 0.929 . S
C1459 C1453 1.390 . S
C1459 C1456 1.386 . S
C1460 C1455 1.490 . S
C1460 C1462 1.395 . S
C1460 C1463 1.403 . S
H1461 C1467 0.930 . S
C1462 H1448 0.930 . S
C1462 C1460 1.395 . S
C1462 C1465 1.403 . S
C1463 C1460 1.403 . S
C1463 C1464 1.524 . S
C1463 C1467 1.400 . S
C1464 H1449 0.960 . S
C1464 H1450 0.960 . S
C1464 H1451 0.960 . S
C1464 C1463 1.524 . S
C1465 C1462 1.403 . S
C1465 C1466 1.392 . S
C1465 C1469 1.495 . S
C1466 C1465 1.392 . S
C1466 C1467 1.385 . S
C1466 C1468 1.478 . S
C1467 H1461 0.930 . S
C1467 C1463 1.400 . S
C1467 C1466 1.385 . S
C1468 C1466 1.478 . S
C1468 C1470 1.381 . S
C1468 C1474 1.383 . S
C1469 C1465 1.495 . S
C1469 H1475 0.959 . S
C1469 H1476 0.961 . S
C1469 H1477 0.960 . S
C1470 C1468 1.381 . S
C1470 C1471 1.394 . S
C1470 H1478 0.930 . S
C1471 C1470 1.394 . S
C1471 C1472 1.383 . S
C1471 H1479 0.929 . S
C1472 C1471 1.383 . S
C1472 C1473 1.377 . S
C1473 H1457 0.930 . S
C1473 C1472 1.377 . S
C1473 C1474 1.379 . S
C1474 H1458 0.931 . S
C1474 C1468 1.383 . S
C1474 C1473 1.379 . S
H1475 C1469 0.959 . S
H1476 C1469 0.961 . S
H1477 C1469 0.960 . S
H1478 C1470 0.930 . S
H1479 C1471 0.929 . S
H1480 C1488 0.929 . S
H1481 C1490 0.930 . S
H1482 C1492 0.930 . S
H1483 C1495 0.929 . S
H1484 C1498 0.930 . S
H1485 C1500 0.960 . S
H1486 C1500 0.960 . S
H1487 C1500 0.960 . S
C1488 H1480 0.929 . S
C1488 C1489 1.377 . S
C1488 C1490 1.384 . S
C1489 C1488 1.377 . S
C1489 C1495 1.390 . S
C1490 H1481 0.930 . S
C1490 C1488 1.384 . S
C1490 C1491 1.372 . S
C1491 C1490 1.372 . S
C1491 C1492 1.400 . S
C1491 C1496 1.490 . S
C1492 H1482 0.930 . S
C1492 C1491 1.400 . S
C1492 C1495 1.386 . S
H1493 C1509 0.930 . S
H1494 C1510 0.931 . S
C1495 H1483 0.929 . S
C1495 C1489 1.390 . S
C1495 C1492 1.386 . S
C1496 C1491 1.490 . S
C1496 C1498 1.395 . S
C1496 C1499 1.403 . S
H1497 C1503 0.930 . S
C1498 H1484 0.930 . S
C1498 C1496 1.395 . S
C1498 C1501 1.403 . S
C1499 C1496 1.403 . S
C1499 C1500 1.524 . S
C1499 C1503 1.400 . S
C1500 H1485 0.960 . S
C1500 H1486 0.960 . S
C1500 H1487 0.960 . S
C1500 C1499 1.524 . S
C1501 C1498 1.403 . S
C1501 C1502 1.392 . S
C1501 C1505 1.495 . S
C1502 C1501 1.392 . S
C1502 C1503 1.385 . S
C1502 C1504 1.478 . S
C1503 H1497 0.930 . S
C1503 C1499 1.400 . S
C1503 C1502 1.385 . S
C1504 C1502 1.478 . S
C1504 C1506 1.381 . S
C1504 C1510 1.383 . S
C1505 C1501 1.495 . S
C1505 H1511 0.959 . S
C1505 H1512 0.961 . S
C1505 H1513 0.960 . S
C1506 C1504 1.381 . S
C1506 C1507 1.394 . S
C1506 H1514 0.930 . S
C1507 C1506 1.394 . S
C1507 C1508 1.383 . S
C1507 H1515 0.929 . S
C1508 C1507 1.383 . S
C1508 C1509 1.377 . S
C1509 H1493 0.930 . S
C1509 C1508 1.377 . S
C1509 C1510 1.379 . S
C1510 H1494 0.931 . S
C1510 C1504 1.383 . S
C1510 C1509 1.379 . S
H1511 C1505 0.959 . S
H1512 C1505 0.961 . S
H1513 C1505 0.960 . S
H1514 C1506 0.930 . S
H1515 C1507 0.929 . S
H1516 C1524 0.929 . S
H1517 C1526 0.930 . S
H1518 C1528 0.930 . S
H1519 C1531 0.929 . S
H1520 C1534 0.930 . S
H1521 C1536 0.960 . S
H1522 C1536 0.960 . S
H1523 C1536 0.960 . S
C1524 H1516 0.929 . S
C1524 C1525 1.377 . S
C1524 C1526 1.384 . S
C1525 C1524 1.377 . S
C1525 C1531 1.390 . S
C1526 H1517 0.930 . S
C1526 C1524 1.384 . S
C1526 C1527 1.372 . S
C1527 C1526 1.372 . S
C1527 C1528 1.400 . S
C1527 C1532 1.490 . S
C1528 H1518 0.930 . S
C1528 C1527 1.400 . S
C1528 C1531 1.386 . S
H1529 C1545 0.930 . S
H1530 C1546 0.931 . S
C1531 H1519 0.929 . S
C1531 C1525 1.390 . S
C1531 C1528 1.386 . S
C1532 C1527 1.490 . S
C1532 C1534 1.395 . S
C1532 C1535 1.403 . S
H1533 C1539 0.930 . S
C1534 H1520 0.930 . S
C1534 C1532 1.395 . S
C1534 C1537 1.403 . S
C1535 C1532 1.403 . S
C1535 C1536 1.524 . S
C1535 C1539 1.400 . S
C1536 H1521 0.960 . S
C1536 H1522 0.960 . S
C1536 H1523 0.960 . S
C1536 C1535 1.524 . S
C1537 C1534 1.403 . S
C1537 C1538 1.392 . S
C1537 C1541 1.495 . S
C1538 C1537 1.392 . S
C1538 C1539 1.385 . S
C1538 C1540 1.478 . S
C1539 H1533 0.930 . S
C1539 C1535 1.400 . S
C1539 C1538 1.385 . S
C1540 C1538 1.478 . S
C1540 C1542 1.381 . S
C1540 C1546 1.383 . S
C1541 C1537 1.495 . S
C1541 H1547 0.959 . S
C1541 H1548 0.961 . S
C1541 H1549 0.960 . S
C1542 C1540 1.381 . S
C1542 C1543 1.394 . S
C1542 H1550 0.930 . S
C1543 C1542 1.394 . S
C1543 C1544 1.383 . S
C1543 H1551 0.929 . S
C1544 C1543 1.383 . S
C1544 C1545 1.377 . S
C1545 H1529 0.930 . S
C1545 C1544 1.377 . S
C1545 C1546 1.379 . S
C1546 H1530 0.931 . S
C1546 C1540 1.383 . S
C1546 C1545 1.379 . S
H1547 C1541 0.959 . S
H1548 C1541 0.961 . S
H1549 C1541 0.960 . S
H1550 C1542 0.930 . S
H1551 C1543 0.929 . S
H1552 C1560 0.929 . S
H1553 C1562 0.930 . S
H1554 C1564 0.930 . S
H1555 C1567 0.929 . S
H1556 C1570 0.930 . S
H1557 C1572 0.960 . S
H1558 C1572 0.960 . S
H1559 C1572 0.960 . S
C1560 H1552 0.929 . S
C1560 C1561 1.351 1_556 S
C1560 C1562 1.384 . S
C1561 C1560 1.351 1_554 S
C1561 C1567 1.432 . S
C1562 H1553 0.930 . S
C1562 C1560 1.384 . S
C1562 C1563 1.372 1_556 S
C1563 C1562 1.372 1_554 S
C1563 C1564 1.400 . S
C1563 C1568 1.490 . S
C1564 H1554 0.930 . S
C1564 C1563 1.400 . S
C1564 C1567 1.386 . S
H1565 C1581 0.907 1_545 S
H1566 C1582 0.931 . S
C1567 H1555 0.929 . S
C1567 C1561 1.432 . S
C1567 C1564 1.386 . S
C1568 C1563 1.490 . S
C1568 C1570 1.395 . S
C1568 C1571 1.403 . S
H1569 C1575 0.930 . S
C1570 H1556 0.930 . S
C1570 C1568 1.395 . S
C1570 C1573 1.403 . S
C1571 C1568 1.403 . S
C1571 C1572 1.524 . S
C1571 C1575 1.400 . S
C1572 H1557 0.960 . S
C1572 H1558 0.960 . S
C1572 H1559 0.960 . S
C1572 C1571 1.524 . S
C1573 C1570 1.403 . S
C1573 C1574 1.392 . S
C1573 C1577 1.495 . S
C1574 C1573 1.392 . S
C1574 C1575 1.385 . S
C1574 C1576 1.478 . S
C1575 H1569 0.930 . S
C1575 C1571 1.400 . S
C1575 C1574 1.385 . S
C1576 C1574 1.478 . S
C1576 C1578 1.381 . S
C1576 C1582 1.383 . S
C1577 C1573 1.495 . S
C1577 H1583 0.959 . S
C1577 H1584 0.961 . S
C1577 H1585 0.960 . S
C1578 C1576 1.381 . S
C1578 C1579 1.394 . S
C1578 H1586 0.930 . S
C1579 C1578 1.394 . S
C1579 C1580 1.382 . S
C1579 H1587 0.929 . S
C1580 C1579 1.382 . S
C1580 C1581 1.357 . S
C1581 H1565 0.907 1_565 S
C1581 C1580 1.357 . S
C1581 C1582 1.424 . S
C1582 H1566 0.931 . S
C1582 C1576 1.383 . S
C1582 C1581 1.424 . S
H1583 C1577 0.959 . S
H1584 C1577 0.961 . S
H1585 C1577 0.960 . S
H1586 C1578 0.930 . S
H1587 C1579 0.929 . S
H1588 C1596 0.929 . S
H1589 C1598 0.930 . S
H1590 C1600 0.930 1_556 S
H1591 C1603 0.911 1_556 S
H1592 C1606 0.930 . S
H1593 C1608 0.960 . S
H1594 C1608 0.960 . S
H1595 C1608 0.960 . S
C1596 H1588 0.929 . S
C1596 C1597 1.377 . S
C1596 C1598 1.384 . S
C1597 C1596 1.377 . S
C1597 C1603 1.404 . S
C1598 H1589 0.930 . S
C1598 C1596 1.384 . S
C1598 C1599 1.372 . S
C1599 C1598 1.372 . S
C1599 C1600 1.400 . S
C1599 C1604 1.490 . S
C1600 H1590 0.930 1_554 S
C1600 C1599 1.400 . S
C1600 C1603 1.390 . S
H1601 C1617 0.910 1_556 S
H1602 C1618 0.917 1_556 S
C1603 H1591 0.911 1_554 S
C1603 C1597 1.404 . S
C1603 C1600 1.390 . S
C1604 C1599 1.490 . S
C1604 C1606 1.395 . S
C1604 C1607 1.403 . S
H1605 C1611 0.930 . S
C1606 H1592 0.930 . S
C1606 C1604 1.395 . S
C1606 C1609 1.403 . S
C1607 C1604 1.403 . S
C1607 C1608 1.524 . S
C1607 C1611 1.400 . S
C1608 H1593 0.960 . S
C1608 H1594 0.960 . S
C1608 H1595 0.960 . S
C1608 C1607 1.524 . S
C1609 C1606 1.403 . S
C1609 C1610 1.392 . S
C1609 C1613 1.495 . S
C1610 C1609 1.392 . S
C1610 C1611 1.385 . S
C1610 C1612 1.478 . S
C1611 H1605 0.930 . S
C1611 C1607 1.400 . S
C1611 C1610 1.385 . S
C1612 C1610 1.478 . S
C1612 C1614 1.381 . S
C1612 C1618 1.394 . S
C1613 C1609 1.495 . S
C1613 H1619 0.959 . S
C1613 H1620 0.961 . S
C1613 H1621 0.960 . S
C1614 C1612 1.381 . S
C1614 C1615 1.394 . S
C1614 H1622 0.930 . S
C1615 C1614 1.394 . S
C1615 C1616 1.383 . S
C1615 H1623 0.929 . S
C1616 C1615 1.383 . S
C1616 C1617 1.401 . S
C1617 H1601 0.910 1_554 S
C1617 C1616 1.401 . S
C1617 C1618 1.377 . S
C1618 H1602 0.917 1_554 S
C1618 C1612 1.394 . S
C1618 C1617 1.377 . S
H1619 C1613 0.959 . S
H1620 C1613 0.961 . S
H1621 C1613 0.960 . S
H1622 C1614 0.930 . S
H1623 C1615 0.929 . S
H1624 C1632 0.929 . S
H1625 C1634 0.930 . S
H1626 C1636 0.930 . S
H1627 C1639 0.929 . S
H1628 C1642 0.930 . S
H1629 C1644 0.960 . S
H1630 C1644 0.960 . S
H1631 C1644 0.960 . S
C1632 H1624 0.929 . S
C1632 C1633 1.377 . S
C1632 C1634 1.384 . S
C1633 C1632 1.377 . S
C1633 C1639 1.390 . S
C1634 H1625 0.930 . S
C1634 C1632 1.384 . S
C1634 C1635 1.372 . S
C1635 C1634 1.372 . S
C1635 C1636 1.400 . S
C1635 C1640 1.490 . S
C1636 H1626 0.930 . S
C1636 C1635 1.400 . S
C1636 C1639 1.386 . S
H1637 C1653 0.930 . S
H1638 C1654 0.931 . S
C1639 H1627 0.929 . S
C1639 C1633 1.390 . S
C1639 C1636 1.386 . S
C1640 C1635 1.490 . S
C1640 C1642 1.395 . S
C1640 C1643 1.403 . S
H1641 C1647 0.930 . S
C1642 H1628 0.930 . S
C1642 C1640 1.395 . S
C1642 C1645 1.403 . S
C1643 C1640 1.403 . S
C1643 C1644 1.524 . S
C1643 C1647 1.400 . S
C1644 H1629 0.960 . S
C1644 H1630 0.960 . S
C1644 H1631 0.960 . S
C1644 C1643 1.524 . S
C1645 C1642 1.403 . S
C1645 C1646 1.392 . S
C1645 C1649 1.495 . S
C1646 C1645 1.392 . S
C1646 C1647 1.385 . S
C1646 C1648 1.478 . S
C1647 H1641 0.930 . S
C1647 C1643 1.400 . S
C1647 C1646 1.385 . S
C1648 C1646 1.478 . S
C1648 C1650 1.381 . S
C1648 C1654 1.383 . S
C1649 C1645 1.495 . S
C1649 H1655 0.959 . S
C1649 H1656 0.961 . S
C1649 H1657 0.960 . S
C1650 C1648 1.381 . S
C1650 C1651 1.394 . S
C1650 H1658 0.930 . S
C1651 C1650 1.394 . S
C1651 C1652 1.383 . S
C1651 H1659 0.929 . S
C1652 C1651 1.383 . S
C1652 C1653 1.377 . S
C1653 H1637 0.930 . S
C1653 C1652 1.377 . S
C1653 C1654 1.379 . S
C1654 H1638 0.931 . S
C1654 C1648 1.383 . S
C1654 C1653 1.379 . S
H1655 C1649 0.959 . S
H1656 C1649 0.961 . S
H1657 C1649 0.960 . S
H1658 C1650 0.930 . S
H1659 C1651 0.929 . S
H1660 C1668 0.929 . S
H1661 C1670 0.930 . S
H1662 C1672 0.930 . S
H1663 C1675 0.929 . S
H1664 C1678 0.930 . S
H1665 C1680 0.960 . S
H1666 C1680 0.960 . S
H1667 C1680 0.960 . S
C1668 H1660 0.929 . S
C1668 C1669 1.377 . S
C1668 C1670 1.384 . S
C1669 C1668 1.377 . S
C1669 C1675 1.390 . S
C1670 H1661 0.930 . S
C1670 C1668 1.384 . S
C1670 C1671 1.372 . S
C1671 C1670 1.372 . S
C1671 C1672 1.400 . S
C1671 C1676 1.490 . S
C1672 H1662 0.930 . S
C1672 C1671 1.400 . S
C1672 C1675 1.386 . S
H1673 C1689 0.930 . S
H1674 C1690 0.931 . S
C1675 H1663 0.929 . S
C1675 C1669 1.390 . S
C1675 C1672 1.386 . S
C1676 C1671 1.490 . S
C1676 C1678 1.395 . S
C1676 C1679 1.403 . S
H1677 C1683 0.930 . S
C1678 H1664 0.930 . S
C1678 C1676 1.395 . S
C1678 C1681 1.403 . S
C1679 C1676 1.403 . S
C1679 C1680 1.524 . S
C1679 C1683 1.400 . S
C1680 H1665 0.960 . S
C1680 H1666 0.960 . S
C1680 H1667 0.960 . S
C1680 C1679 1.524 . S
C1681 C1678 1.403 . S
C1681 C1682 1.392 . S
C1681 C1685 1.495 . S
C1682 C1681 1.392 . S
C1682 C1683 1.385 . S
C1682 C1684 1.478 . S
C1683 H1677 0.930 . S
C1683 C1679 1.400 . S
C1683 C1682 1.385 . S
C1684 C1682 1.478 . S
C1684 C1686 1.381 . S
C1684 C1690 1.383 . S
C1685 C1681 1.495 . S
C1685 H1691 0.959 . S
C1685 H1692 0.961 . S
C1685 H1693 0.960 . S
C1686 C1684 1.381 . S
C1686 C1687 1.394 . S
C1686 H1694 0.930 . S
C1687 C1686 1.394 . S
C1687 C1688 1.383 . S
C1687 H1695 0.929 . S
C1688 C1687 1.383 . S
C1688 C1689 1.377 . S
C1689 H1673 0.930 . S
C1689 C1688 1.377 . S
C1689 C1690 1.379 . S
C1690 H1674 0.931 . S
C1690 C1684 1.383 . S
C1690 C1689 1.379 . S
H1691 C1685 0.959 . S
H1692 C1685 0.961 . S
H1693 C1685 0.960 . S
H1694 C1686 0.930 . S
H1695 C1687 0.929 . S
H1696 C1704 0.929 . S
H1697 C1706 0.930 . S
H1698 C1708 0.930 . S
H1699 C1711 0.929 . S
H1700 C1714 0.930 . S
H1701 C1716 0.960 . S
H1702 C1716 0.960 . S
H1703 C1716 0.960 . S
C1704 H1696 0.929 . S
C1704 C1705 1.377 . S
C1704 C1706 1.384 . S
C1705 C1704 1.377 . S
C1705 C1711 1.390 . S
C1706 H1697 0.930 . S
C1706 C1704 1.384 . S
C1706 C1707 1.372 . S
C1707 C1706 1.372 . S
C1707 C1708 1.400 . S
C1707 C1712 1.490 . S
C1708 H1698 0.930 . S
C1708 C1707 1.400 . S
C1708 C1711 1.386 . S
H1709 C1725 0.930 . S
H1710 C1726 0.931 . S
C1711 H1699 0.929 . S
C1711 C1705 1.390 . S
C1711 C1708 1.386 . S
C1712 C1707 1.490 . S
C1712 C1714 1.395 . S
C1712 C1715 1.403 . S
H1713 C1719 0.930 . S
C1714 H1700 0.930 . S
C1714 C1712 1.395 . S
C1714 C1717 1.403 . S
C1715 C1712 1.403 . S
C1715 C1716 1.524 . S
C1715 C1719 1.400 . S
C1716 H1701 0.960 . S
C1716 H1702 0.960 . S
C1716 H1703 0.960 . S
C1716 C1715 1.524 . S
C1717 C1714 1.403 . S
C1717 C1718 1.392 . S
C1717 C1721 1.495 . S
C1718 C1717 1.392 . S
C1718 C1719 1.385 . S
C1718 C1720 1.478 . S
C1719 H1713 0.930 . S
C1719 C1715 1.400 . S
C1719 C1718 1.385 . S
C1720 C1718 1.478 . S
C1720 C1722 1.381 . S
C1720 C1726 1.383 . S
C1721 C1717 1.495 . S
C1721 H1727 0.959 . S
C1721 H1728 0.961 . S
C1721 H1729 0.960 . S
C1722 C1720 1.381 . S
C1722 C1723 1.394 . S
C1722 H1730 0.930 . S
C1723 C1722 1.394 . S
C1723 C1724 1.383 . S
C1723 H1731 0.929 . S
C1724 C1723 1.383 . S
C1724 C1725 1.377 . S
C1725 H1709 0.930 . S
C1725 C1724 1.377 . S
C1725 C1726 1.379 . S
C1726 H1710 0.931 . S
C1726 C1720 1.383 . S
C1726 C1725 1.379 . S
H1727 C1721 0.959 . S
H1728 C1721 0.961 . S
H1729 C1721 0.960 . S
H1730 C1722 0.930 . S
H1731 C1723 0.929 . S
H1732 C1740 0.929 . S
H1733 C1742 0.930 . S
H1734 C1744 0.930 . S
H1735 C1747 0.929 . S
H1736 C1750 0.930 . S
H1737 C1752 0.960 . S
H1738 C1752 0.960 . S
H1739 C1752 0.960 . S
C1740 H1732 0.929 . S
C1740 C1741 1.377 . S
C1740 C1742 1.384 . S
C1741 C1740 1.377 . S
C1741 C1747 1.390 . S
C1742 H1733 0.930 . S
C1742 C1740 1.384 . S
C1742 C1743 1.372 . S
C1743 C1742 1.372 . S
C1743 C1744 1.400 . S
C1743 C1748 1.490 . S
C1744 H1734 0.930 . S
C1744 C1743 1.400 . S
C1744 C1747 1.386 . S
H1745 C1761 0.930 . S
H1746 C1762 0.931 . S
C1747 H1735 0.929 . S
C1747 C1741 1.390 . S
C1747 C1744 1.386 . S
C1748 C1743 1.490 . S
C1748 C1750 1.395 . S
C1748 C1751 1.403 . S
H1749 C1755 0.930 . S
C1750 H1736 0.930 . S
C1750 C1748 1.395 . S
C1750 C1753 1.403 . S
C1751 C1748 1.403 . S
C1751 C1752 1.524 . S
C1751 C1755 1.400 . S
C1752 H1737 0.960 . S
C1752 H1738 0.960 . S
C1752 H1739 0.960 . S
C1752 C1751 1.524 . S
C1753 C1750 1.403 . S
C1753 C1754 1.392 . S
C1753 C1757 1.495 . S
C1754 C1753 1.392 . S
C1754 C1755 1.385 . S
C1754 C1756 1.478 . S
C1755 H1749 0.930 . S
C1755 C1751 1.400 . S
C1755 C1754 1.385 . S
C1756 C1754 1.478 . S
C1756 C1758 1.381 . S
C1756 C1762 1.383 . S
C1757 C1753 1.495 . S
C1757 H1763 0.959 . S
C1757 H1764 0.961 . S
C1757 H1765 0.960 . S
C1758 C1756 1.381 . S
C1758 C1759 1.394 . S
C1758 H1766 0.930 . S
C1759 C1758 1.394 . S
C1759 C1760 1.383 . S
C1759 H1767 0.929 . S
C1760 C1759 1.383 . S
C1760 C1761 1.377 . S
C1761 H1745 0.930 . S
C1761 C1760 1.377 . S
C1761 C1762 1.379 . S
C1762 H1746 0.931 . S
C1762 C1756 1.383 . S
C1762 C1761 1.379 . S
H1763 C1757 0.959 . S
H1764 C1757 0.961 . S
H1765 C1757 0.960 . S
H1766 C1758 0.930 . S
H1767 C1759 0.929 . S
H1768 C1776 0.929 . S
H1769 C1778 0.930 . S
H1770 C1780 0.930 . S
H1771 C1783 0.929 . S
H1772 C1786 0.930 . S
H1773 C1788 0.960 . S
H1774 C1788 0.960 . S
H1775 C1788 0.960 . S
C1776 H1768 0.929 . S
C1776 C1777 1.377 . S
C1776 C1778 1.384 . S
C1777 C1776 1.377 . S
C1777 C1783 1.390 . S
C1778 H1769 0.930 . S
C1778 C1776 1.384 . S
C1778 C1779 1.372 . S
C1779 C1778 1.372 . S
C1779 C1780 1.400 . S
C1779 C1784 1.490 . S
C1780 H1770 0.930 . S
C1780 C1779 1.400 . S
C1780 C1783 1.386 . S
H1781 C1797 0.930 . S
H1782 C1798 0.931 . S
C1783 H1771 0.929 . S
C1783 C1777 1.390 . S
C1783 C1780 1.386 . S
C1784 C1779 1.490 . S
C1784 C1786 1.395 . S
C1784 C1787 1.403 . S
H1785 C1791 0.930 . S
C1786 H1772 0.930 . S
C1786 C1784 1.395 . S
C1786 C1789 1.403 . S
C1787 C1784 1.403 . S
C1787 C1788 1.524 . S
C1787 C1791 1.400 . S
C1788 H1773 0.960 . S
C1788 H1774 0.960 . S
C1788 H1775 0.960 . S
C1788 C1787 1.524 . S
C1789 C1786 1.403 . S
C1789 C1790 1.392 . S
C1789 C1793 1.495 . S
C1790 C1789 1.392 . S
C1790 C1791 1.385 . S
C1790 C1792 1.478 . S
C1791 H1785 0.930 . S
C1791 C1787 1.400 . S
C1791 C1790 1.385 . S
C1792 C1790 1.478 . S
C1792 C1794 1.381 . S
C1792 C1798 1.383 . S
C1793 C1789 1.495 . S
C1793 H1799 0.959 . S
C1793 H1800 0.961 . S
C1793 H1801 0.960 . S
C1794 C1792 1.381 . S
C1794 C1795 1.394 . S
C1794 H1802 0.930 . S
C1795 C1794 1.394 . S
C1795 C1796 1.383 . S
C1795 H1803 0.929 . S
C1796 C1795 1.383 . S
C1796 C1797 1.377 . S
C1797 H1781 0.930 . S
C1797 C1796 1.377 . S
C1797 C1798 1.379 . S
C1798 H1782 0.931 . S
C1798 C1792 1.383 . S
C1798 C1797 1.379 . S
H1799 C1793 0.959 . S
H1800 C1793 0.961 . S
H1801 C1793 0.960 . S
H1802 C1794 0.930 . S
H1803 C1795 0.929 . S
H1804 C1812 0.929 . S
H1805 C1814 0.930 . S
H1806 C1816 0.930 . S
H1807 C1819 0.929 . S
H1808 C1822 0.930 . S
H1809 C1824 0.960 . S
H1810 C1824 0.960 . S
H1811 C1824 0.960 . S
C1812 H1804 0.929 . S
C1812 C1813 1.377 . S
C1812 C1814 1.384 . S
C1813 C1812 1.377 . S
C1813 C1819 1.390 . S
C1814 H1805 0.930 . S
C1814 C1812 1.384 . S
C1814 C1815 1.372 . S
C1815 C1814 1.372 . S
C1815 C1816 1.400 . S
C1815 C1820 1.490 . S
C1816 H1806 0.930 . S
C1816 C1815 1.400 . S
C1816 C1819 1.386 . S
H1817 C1833 0.930 . S
H1818 C1834 0.931 . S
C1819 H1807 0.929 . S
C1819 C1813 1.390 . S
C1819 C1816 1.386 . S
C1820 C1815 1.490 . S
C1820 C1822 1.395 . S
C1820 C1823 1.403 . S
H1821 C1827 0.930 . S
C1822 H1808 0.930 . S
C1822 C1820 1.395 . S
C1822 C1825 1.403 . S
C1823 C1820 1.403 . S
C1823 C1824 1.524 . S
C1823 C1827 1.400 . S
C1824 H1809 0.960 . S
C1824 H1810 0.960 . S
C1824 H1811 0.960 . S
C1824 C1823 1.524 . S
C1825 C1822 1.403 . S
C1825 C1826 1.392 . S
C1825 C1829 1.495 . S
C1826 C1825 1.392 . S
C1826 C1827 1.385 . S
C1826 C1828 1.478 . S
C1827 H1821 0.930 . S
C1827 C1823 1.400 . S
C1827 C1826 1.385 . S
C1828 C1826 1.478 . S
C1828 C1830 1.381 . S
C1828 C1834 1.383 . S
C1829 C1825 1.495 . S
C1829 H1835 0.959 . S
C1829 H1836 0.961 . S
C1829 H1837 0.960 . S
C1830 C1828 1.381 . S
C1830 C1831 1.394 . S
C1830 H1838 0.930 . S
C1831 C1830 1.394 . S
C1831 C1832 1.383 . S
C1831 H1839 0.929 . S
C1832 C1831 1.383 . S
C1832 C1833 1.377 . S
C1833 H1817 0.930 . S
C1833 C1832 1.377 . S
C1833 C1834 1.379 . S
C1834 H1818 0.931 . S
C1834 C1828 1.383 . S
C1834 C1833 1.379 . S
H1835 C1829 0.959 . S
H1836 C1829 0.961 . S
H1837 C1829 0.960 . S
H1838 C1830 0.930 . S
H1839 C1831 0.929 . S
H1840 C1848 0.929 . S
H1841 C1850 0.930 . S
H1842 C1852 0.930 . S
H1843 C1855 0.929 . S
H1844 C1858 0.930 . S
H1845 C1860 0.960 . S
H1846 C1860 0.960 . S
H1847 C1860 0.960 . S
C1848 H1840 0.929 . S
C1848 C1849 1.377 . S
C1848 C1850 1.384 . S
C1849 C1848 1.377 . S
C1849 C1855 1.390 . S
C1850 H1841 0.930 . S
C1850 C1848 1.384 . S
C1850 C1851 1.372 . S
C1851 C1850 1.372 . S
C1851 C1852 1.400 . S
C1851 C1856 1.490 . S
C1852 H1842 0.930 . S
C1852 C1851 1.400 . S
C1852 C1855 1.386 . S
H1853 C1869 0.930 . S
H1854 C1870 0.931 . S
C1855 H1843 0.929 . S
C1855 C1849 1.390 . S
C1855 C1852 1.386 . S
C1856 C1851 1.490 . S
C1856 C1858 1.395 . S
C1856 C1859 1.403 . S
H1857 C1863 0.930 . S
C1858 H1844 0.930 . S
C1858 C1856 1.395 . S
C1858 C1861 1.403 . S
C1859 C1856 1.403 . S
C1859 C1860 1.524 . S
C1859 C1863 1.400 . S
C1860 H1845 0.960 . S
C1860 H1846 0.960 . S
C1860 H1847 0.960 . S
C1860 C1859 1.524 . S
C1861 C1858 1.403 . S
C1861 C1862 1.392 . S
C1861 C1865 1.495 . S
C1862 C1861 1.392 . S
C1862 C1863 1.385 . S
C1862 C1864 1.478 . S
C1863 H1857 0.930 . S
C1863 C1859 1.400 . S
C1863 C1862 1.385 . S
C1864 C1862 1.478 . S
C1864 C1866 1.381 . S
C1864 C1870 1.383 . S
C1865 C1861 1.495 . S
C1865 H1871 0.959 . S
C1865 H1872 0.961 . S
C1865 H1873 0.960 . S
C1866 C1864 1.381 . S
C1866 C1867 1.394 . S
C1866 H1874 0.930 . S
C1867 C1866 1.394 . S
C1867 C1868 1.383 . S
C1867 H1875 0.929 . S
C1868 C1867 1.383 . S
C1868 C1869 1.377 . S
C1869 H1853 0.930 . S
C1869 C1868 1.377 . S
C1869 C1870 1.379 . S
C1870 H1854 0.931 . S
C1870 C1864 1.383 . S
C1870 C1869 1.379 . S
H1871 C1865 0.959 . S
H1872 C1865 0.961 . S
H1873 C1865 0.960 . S
H1874 C1866 0.930 . S
H1875 C1867 0.929 . S
H1876 C1884 0.929 . S
H1877 C1886 0.930 . S
H1878 C1888 0.930 . S
H1879 C1891 0.929 . S
H1880 C1894 0.930 . S
H1881 C1896 0.960 . S
H1882 C1896 0.960 . S
H1883 C1896 0.960 . S
C1884 H1876 0.929 . S
C1884 C1885 1.377 . S
C1884 C1886 1.384 . S
C1885 C1884 1.377 . S
C1885 C1891 1.390 . S
C1886 H1877 0.930 . S
C1886 C1884 1.384 . S
C1886 C1887 1.372 . S
C1887 C1886 1.372 . S
C1887 C1888 1.400 . S
C1887 C1892 1.490 . S
C1888 H1878 0.930 . S
C1888 C1887 1.400 . S
C1888 C1891 1.386 . S
H1889 C1905 0.930 . S
H1890 C1906 0.931 . S
C1891 H1879 0.929 . S
C1891 C1885 1.390 . S
C1891 C1888 1.386 . S
C1892 C1887 1.490 . S
C1892 C1894 1.395 . S
C1892 C1895 1.403 . S
H1893 C1899 0.930 . S
C1894 H1880 0.930 . S
C1894 C1892 1.395 . S
C1894 C1897 1.403 . S
C1895 C1892 1.403 . S
C1895 C1896 1.524 . S
C1895 C1899 1.400 . S
C1896 H1881 0.960 . S
C1896 H1882 0.960 . S
C1896 H1883 0.960 . S
C1896 C1895 1.524 . S
C1897 C1894 1.403 . S
C1897 C1898 1.392 . S
C1897 C1901 1.495 . S
C1898 C1897 1.392 . S
C1898 C1899 1.385 . S
C1898 C1900 1.478 . S
C1899 H1893 0.930 . S
C1899 C1895 1.400 . S
C1899 C1898 1.385 . S
C1900 C1898 1.478 . S
C1900 C1902 1.381 . S
C1900 C1906 1.383 . S
C1901 C1897 1.495 . S
C1901 H1907 0.959 . S
C1901 H1908 0.961 . S
C1901 H1909 0.960 . S
C1902 C1900 1.381 . S
C1902 C1903 1.394 . S
C1902 H1910 0.930 . S
C1903 C1902 1.394 . S
C1903 C1904 1.383 . S
C1903 H1911 0.929 . S
C1904 C1903 1.383 . S
C1904 C1905 1.377 . S
C1905 H1889 0.930 . S
C1905 C1904 1.377 . S
C1905 C1906 1.379 . S
C1906 H1890 0.931 . S
C1906 C1900 1.383 . S
C1906 C1905 1.379 . S
H1907 C1901 0.959 . S
H1908 C1901 0.961 . S
H1909 C1901 0.960 . S
H1910 C1902 0.930 . S
H1911 C1903 0.929 . S
H1912 C1920 0.929 . S
H1913 C1922 0.930 . S
H1914 C1924 0.930 . S
H1915 C1927 0.929 . S
H1916 C1930 0.930 . S
H1917 C1932 0.960 . S
H1918 C1932 0.960 . S
H1919 C1932 0.960 . S
C1920 H1912 0.929 . S
C1920 C1921 1.377 . S
C1920 C1922 1.384 . S
C1921 C1920 1.377 . S
C1921 C1927 1.390 . S
C1922 H1913 0.930 . S
C1922 C1920 1.384 . S
C1922 C1923 1.372 . S
C1923 C1922 1.372 . S
C1923 C1924 1.400 . S
C1923 C1928 1.490 . S
C1924 H1914 0.930 . S
C1924 C1923 1.400 . S
C1924 C1927 1.386 . S
H1925 C1941 0.930 . S
H1926 C1942 0.931 . S
C1927 H1915 0.929 . S
C1927 C1921 1.390 . S
C1927 C1924 1.386 . S
C1928 C1923 1.490 . S
C1928 C1930 1.395 . S
C1928 C1931 1.403 . S
H1929 C1935 0.930 . S
C1930 H1916 0.930 . S
C1930 C1928 1.395 . S
C1930 C1933 1.403 . S
C1931 C1928 1.403 . S
C1931 C1932 1.524 . S
C1931 C1935 1.400 . S
C1932 H1917 0.960 . S
C1932 H1918 0.960 . S
C1932 H1919 0.960 . S
C1932 C1931 1.524 . S
C1933 C1930 1.403 . S
C1933 C1934 1.392 . S
C1933 C1937 1.495 . S
C1934 C1933 1.392 . S
C1934 C1935 1.385 . S
C1934 C1936 1.478 . S
C1935 H1929 0.930 . S
C1935 C1931 1.400 . S
C1935 C1934 1.385 . S
C1936 C1934 1.478 . S
C1936 C1938 1.381 . S
C1936 C1942 1.383 . S
C1937 C1933 1.495 . S
C1937 H1943 0.959 . S
C1937 H1944 0.961 . S
C1937 H1945 0.960 . S
C1938 C1936 1.381 . S
C1938 C1939 1.394 . S
C1938 H1946 0.930 . S
C1939 C1938 1.394 . S
C1939 C1940 1.383 . S
C1939 H1947 0.929 . S
C1940 C1939 1.383 . S
C1940 C1941 1.377 . S
C1941 H1925 0.930 . S
C1941 C1940 1.377 . S
C1941 C1942 1.379 . S
C1942 H1926 0.931 . S
C1942 C1936 1.383 . S
C1942 C1941 1.379 . S
H1943 C1937 0.959 . S
H1944 C1937 0.961 . S
H1945 C1937 0.960 . S
H1946 C1938 0.930 . S
H1947 C1939 0.929 . S
H1948 C1956 0.929 . S
H1949 C1958 0.930 . S
H1950 C1960 0.930 . S
H1951 C1963 0.929 . S
H1952 C1966 0.930 . S
H1953 C1968 0.960 . S
H1954 C1968 0.960 . S
H1955 C1968 0.960 . S
C1956 H1948 0.929 . S
C1956 C1957 1.377 . S
C1956 C1958 1.384 . S
C1957 C1956 1.377 . S
C1957 C1963 1.390 . S
C1958 H1949 0.930 . S
C1958 C1956 1.384 . S
C1958 C1959 1.372 . S
C1959 C1958 1.372 . S
C1959 C1960 1.400 . S
C1959 C1964 1.490 . S
C1960 H1950 0.930 . S
C1960 C1959 1.400 . S
C1960 C1963 1.386 . S
H1961 C1977 0.930 . S
H1962 C1978 0.931 . S
C1963 H1951 0.929 . S
C1963 C1957 1.390 . S
C1963 C1960 1.386 . S
C1964 C1959 1.490 . S
C1964 C1966 1.395 . S
C1964 C1967 1.403 . S
H1965 C1971 0.930 . S
C1966 H1952 0.930 . S
C1966 C1964 1.395 . S
C1966 C1969 1.403 . S
C1967 C1964 1.403 . S
C1967 C1968 1.524 . S
C1967 C1971 1.400 . S
C1968 H1953 0.960 . S
C1968 H1954 0.960 . S
C1968 H1955 0.960 . S
C1968 C1967 1.524 . S
C1969 C1966 1.403 . S
C1969 C1970 1.392 . S
C1969 C1973 1.495 . S
C1970 C1969 1.392 . S
C1970 C1971 1.385 . S
C1970 C1972 1.478 . S
C1971 H1965 0.930 . S
C1971 C1967 1.400 . S
C1971 C1970 1.385 . S
C1972 C1970 1.478 . S
C1972 C1974 1.381 . S
C1972 C1978 1.383 . S
C1973 C1969 1.495 . S
C1973 H1979 0.959 . S
C1973 H1980 0.961 . S
C1973 H1981 0.960 . S
C1974 C1972 1.381 . S
C1974 C1975 1.394 . S
C1974 H1982 0.930 . S
C1975 C1974 1.394 . S
C1975 C1976 1.383 . S
C1975 H1983 0.929 . S
C1976 C1975 1.383 . S
C1976 C1977 1.377 . S
C1977 H1961 0.930 . S
C1977 C1976 1.377 . S
C1977 C1978 1.379 . S
C1978 H1962 0.931 . S
C1978 C1972 1.383 . S
C1978 C1977 1.379 . S
H1979 C1973 0.959 . S
H1980 C1973 0.961 . S
H1981 C1973 0.960 . S
H1982 C1974 0.930 . S
H1983 C1975 0.929 . S
H1984 C1992 0.929 . S
H1985 C1994 0.930 . S
H1986 C1996 0.930 . S
H1987 C1999 0.929 . S
H1988 C2002 0.930 . S
H1989 C2004 0.960 . S
H1990 C2004 0.960 . S
H1991 C2004 0.960 . S
C1992 H1984 0.929 . S
C1992 C1993 1.377 . S
C1992 C1994 1.384 . S
C1993 C1992 1.377 . S
C1993 C1999 1.390 . S
C1994 H1985 0.930 . S
C1994 C1992 1.384 . S
C1994 C1995 1.372 . S
C1995 C1994 1.372 . S
C1995 C1996 1.400 . S
C1995 C2000 1.490 . S
C1996 H1986 0.930 . S
C1996 C1995 1.400 . S
C1996 C1999 1.386 . S
H1997 C2013 0.930 . S
H1998 C2014 0.931 . S
C1999 H1987 0.929 . S
C1999 C1993 1.390 . S
C1999 C1996 1.386 . S
C2000 C1995 1.490 . S
C2000 C2002 1.395 . S
C2000 C2003 1.403 . S
H2001 C2007 0.930 1_655 S
C2002 H1988 0.930 . S
C2002 C2000 1.395 . S
C2002 C2005 1.403 . S
C2003 C2000 1.403 . S
C2003 C2004 1.524 1_455 S
C2003 C2007 1.400 . S
C2004 H1989 0.960 . S
C2004 H1990 0.960 . S
C2004 H1991 0.960 . S
C2004 C2003 1.524 1_655 S
C2005 C2002 1.403 . S
C2005 C2006 1.392 . S
C2005 C2009 1.495 . S
C2006 C2005 1.392 . S
C2006 C2007 1.385 . S
C2006 C2008 1.478 . S
C2007 H2001 0.930 1_455 S
C2007 C2003 1.400 . S
C2007 C2006 1.385 . S
C2008 C2006 1.478 . S
C2008 C2010 1.381 . S
C2008 C2014 1.383 . S
C2009 C2005 1.495 . S
C2009 H2015 0.959 . S
C2009 H2016 0.961 . S
C2009 H2017 0.960 . S
C2010 C2008 1.381 . S
C2010 C2011 1.394 . S
C2010 H2018 0.930 . S
C2011 C2010 1.394 . S
C2011 C2012 1.383 . S
C2011 H2019 0.929 . S
C2012 C2011 1.383 . S
C2012 C2013 1.377 . S
C2013 H1997 0.930 . S
C2013 C2012 1.377 . S
C2013 C2014 1.379 . S
C2014 H1998 0.931 . S
C2014 C2008 1.383 . S
C2014 C2013 1.379 . S
H2015 C2009 0.959 . S
H2016 C2009 0.961 . S
H2017 C2009 0.960 . S
H2018 C2010 0.930 . S
H2019 C2011 0.929 . S
H2020 C2028 0.929 . S
H2021 C2030 0.930 . S
H2022 C2032 0.930 . S
H2023 C2035 0.929 . S
H2024 C2038 0.930 . S
H2025 C2040 0.960 . S
H2026 C2040 0.960 . S
H2027 C2040 0.960 . S
C2028 H2020 0.929 . S
C2028 C2029 1.377 . S
C2028 C2030 1.384 . S
C2029 C2028 1.377 . S
C2029 C2035 1.390 . S
C2030 H2021 0.930 . S
C2030 C2028 1.384 . S
C2030 C2031 1.372 . S
C2031 C2030 1.372 . S
C2031 C2032 1.400 . S
C2031 C2036 1.490 . S
C2032 H2022 0.930 . S
C2032 C2031 1.400 . S
C2032 C2035 1.386 . S
H2033 C2049 0.930 . S
H2034 C2050 0.931 . S
C2035 H2023 0.929 . S
C2035 C2029 1.390 . S
C2035 C2032 1.386 . S
C2036 C2031 1.490 . S
C2036 C2038 1.395 . S
C2036 C2039 1.403 . S
H2037 C2043 0.930 . S
C2038 H2024 0.930 . S
C2038 C2036 1.395 . S
C2038 C2041 1.403 . S
C2039 C2036 1.403 . S
C2039 C2040 1.524 . S
C2039 C2043 1.400 . S
C2040 H2025 0.960 . S
C2040 H2026 0.960 . S
C2040 H2027 0.960 . S
C2040 C2039 1.524 . S
C2041 C2038 1.403 . S
C2041 C2042 1.392 . S
C2041 C2045 1.495 . S
C2042 C2041 1.392 . S
C2042 C2043 1.385 . S
C2042 C2044 1.478 . S
C2043 H2037 0.930 . S
C2043 C2039 1.400 . S
C2043 C2042 1.385 . S
C2044 C2042 1.478 . S
C2044 C2046 1.381 . S
C2044 C2050 1.383 . S
C2045 C2041 1.495 . S
C2045 H2051 0.959 . S
C2045 H2052 0.961 . S
C2045 H2053 0.960 . S
C2046 C2044 1.381 . S
C2046 C2047 1.394 . S
C2046 H2054 0.930 . S
C2047 C2046 1.394 . S
C2047 C2048 1.383 . S
C2047 H2055 0.929 . S
C2048 C2047 1.383 . S
C2048 C2049 1.377 . S
C2049 H2033 0.930 . S
C2049 C2048 1.377 . S
C2049 C2050 1.379 . S
C2050 H2034 0.931 . S
C2050 C2044 1.383 . S
C2050 C2049 1.379 . S
H2051 C2045 0.959 . S
H2052 C2045 0.961 . S
H2053 C2045 0.960 . S
H2054 C2046 0.930 . S
H2055 C2047 0.929 . S
H2056 C2064 0.929 . S
H2057 C2066 0.930 . S
H2058 C2068 0.930 . S
H2059 C2071 0.929 . S
H2060 C2074 0.930 . S
H2061 C2076 0.960 . S
H2062 C2076 0.960 . S
H2063 C2076 0.960 . S
C2064 H2056 0.929 . S
C2064 C2065 1.377 . S
C2064 C2066 1.384 . S
C2065 C2064 1.377 . S
C2065 C2071 1.390 . S
C2066 H2057 0.930 . S
C2066 C2064 1.384 . S
C2066 C2067 1.372 . S
C2067 C2066 1.372 . S
C2067 C2068 1.400 . S
C2067 C2072 1.490 . S
C2068 H2058 0.930 . S
C2068 C2067 1.400 . S
C2068 C2071 1.386 . S
H2069 C2085 0.930 . S
H2070 C2086 0.931 . S
C2071 H2059 0.929 . S
C2071 C2065 1.390 . S
C2071 C2068 1.386 . S
C2072 C2067 1.490 . S
C2072 C2074 1.395 . S
C2072 C2075 1.403 . S
H2073 C2079 0.930 . S
C2074 H2060 0.930 . S
C2074 C2072 1.395 . S
C2074 C2077 1.403 . S
C2075 C2072 1.403 . S
C2075 C2076 1.524 . S
C2075 C2079 1.400 . S
C2076 H2061 0.960 . S
C2076 H2062 0.960 . S
C2076 H2063 0.960 . S
C2076 C2075 1.524 . S
C2077 C2074 1.403 . S
C2077 C2078 1.392 . S
C2077 C2081 1.495 . S
C2078 C2077 1.392 . S
C2078 C2079 1.385 . S
C2078 C2080 1.478 . S
C2079 H2073 0.930 . S
C2079 C2075 1.400 . S
C2079 C2078 1.385 . S
C2080 C2078 1.478 . S
C2080 C2082 1.381 . S
C2080 C2086 1.383 . S
C2081 C2077 1.495 . S
C2081 H2087 0.959 . S
C2081 H2088 0.961 . S
C2081 H2089 0.960 . S
C2082 C2080 1.381 . S
C2082 C2083 1.427 . S
C2082 H2090 0.930 . S
C2083 C2082 1.427 . S
C2083 C2084 1.398 . S
C2083 H2091 0.884 1_556 S
C2084 C2083 1.398 . S
C2084 C2085 1.377 . S
C2085 H2069 0.930 . S
C2085 C2084 1.377 . S
C2085 C2086 1.379 . S
C2086 H2070 0.931 . S
C2086 C2080 1.383 . S
C2086 C2085 1.379 . S
H2087 C2081 0.959 . S
H2088 C2081 0.961 . S
H2089 C2081 0.960 . S
H2090 C2082 0.930 . S
H2091 C2083 0.884 1_554 S
H2092 C2100 0.929 . S
H2093 C2102 0.930 . S
H2094 C2104 0.930 . S
H2095 C2107 0.929 . S
H2096 C2110 0.930 . S
H2097 C2112 0.960 . S
H2098 C2112 0.960 . S
H2099 C2112 0.960 . S
C2100 H2092 0.929 . S
C2100 C2101 1.377 . S
C2100 C2102 1.384 . S
C2101 C2100 1.377 . S
C2101 C2107 1.390 . S
C2102 H2093 0.930 . S
C2102 C2100 1.384 . S
C2102 C2103 1.372 . S
C2103 C2102 1.372 . S
C2103 C2104 1.400 . S
C2103 C2108 1.490 . S
C2104 H2094 0.930 . S
C2104 C2103 1.400 . S
C2104 C2107 1.386 . S
H2105 C2121 0.930 . S
H2106 C2122 0.931 . S
C2107 H2095 0.929 . S
C2107 C2101 1.390 . S
C2107 C2104 1.386 . S
C2108 C2103 1.490 . S
C2108 C2110 1.395 . S
C2108 C2111 1.403 . S
H2109 C2115 0.930 . S
C2110 H2096 0.930 . S
C2110 C2108 1.395 . S
C2110 C2113 1.403 . S
C2111 C2108 1.403 . S
C2111 C2112 1.524 . S
C2111 C2115 1.400 . S
C2112 H2097 0.960 . S
C2112 H2098 0.960 . S
C2112 H2099 0.960 . S
C2112 C2111 1.524 . S
C2113 C2110 1.403 . S
C2113 C2114 1.392 . S
C2113 C2117 1.495 . S
C2114 C2113 1.392 . S
C2114 C2115 1.385 . S
C2114 C2116 1.478 . S
C2115 H2109 0.930 . S
C2115 C2111 1.400 . S
C2115 C2114 1.385 . S
C2116 C2114 1.478 . S
C2116 C2118 1.381 . S
C2116 C2122 1.383 . S
C2117 C2113 1.495 . S
C2117 H2123 0.959 . S
C2117 H2124 0.961 . S
C2117 H2125 0.960 . S
C2118 C2116 1.381 . S
C2118 C2119 1.394 . S
C2118 H2126 0.930 . S
C2119 C2118 1.394 . S
C2119 C2120 1.383 . S
C2119 H2127 0.929 . S
C2120 C2119 1.383 . S
C2120 C2121 1.377 . S
C2121 H2105 0.930 . S
C2121 C2120 1.377 . S
C2121 C2122 1.379 . S
C2122 H2106 0.931 . S
C2122 C2116 1.383 . S
C2122 C2121 1.379 . S
H2123 C2117 0.959 . S
H2124 C2117 0.961 . S
H2125 C2117 0.960 . S
H2126 C2118 0.930 . S
H2127 C2119 0.929 . S
H2128 C2136 0.929 . S
H2129 C2138 0.930 . S
H2130 C2140 0.930 . S
H2131 C2143 0.929 . S
H2132 C2146 0.930 . S
H2133 C2148 0.960 1_565 S
H2134 C2148 0.960 1_565 S
H2135 C2148 0.960 . S
C2136 H2128 0.929 . S
C2136 C2137 1.377 . S
C2136 C2138 1.384 . S
C2137 C2136 1.377 . S
C2137 C2143 1.390 . S
C2138 H2129 0.930 . S
C2138 C2136 1.384 . S
C2138 C2139 1.372 . S
C2139 C2138 1.372 . S
C2139 C2140 1.400 . S
C2139 C2144 1.490 . S
C2140 H2130 0.930 . S
C2140 C2139 1.400 . S
C2140 C2143 1.386 . S
H2141 C2157 0.930 . S
H2142 C2158 0.931 . S
C2143 H2131 0.929 . S
C2143 C2137 1.390 . S
C2143 C2140 1.386 . S
C2144 C2139 1.490 . S
C2144 C2146 1.395 . S
C2144 C2147 1.403 . S
H2145 C2151 0.930 . S
C2146 H2132 0.930 . S
C2146 C2144 1.395 . S
C2146 C2149 1.403 . S
C2147 C2144 1.403 . S
C2147 C2148 1.524 . S
C2147 C2151 1.400 . S
C2148 H2133 0.960 1_545 S
C2148 H2134 0.960 1_545 S
C2148 H2135 0.960 . S
C2148 C2147 1.524 . S
C2149 C2146 1.403 . S
C2149 C2150 1.392 . S
C2149 C2153 1.495 . S
C2150 C2149 1.392 . S
C2150 C2151 1.385 . S
C2150 C2152 1.478 . S
C2151 H2145 0.930 . S
C2151 C2147 1.400 . S
C2151 C2150 1.385 . S
C2152 C2150 1.478 . S
C2152 C2154 1.381 . S
C2152 C2158 1.383 . S
C2153 C2149 1.495 . S
C2153 H2159 0.959 . S
C2153 H2160 0.961 . S
C2153 H2161 0.960 . S
C2154 C2152 1.381 . S
C2154 C2155 1.394 . S
C2154 H2162 0.930 . S
C2155 C2154 1.394 . S
C2155 C2156 1.383 . S
C2155 H2163 0.929 . S
C2156 C2155 1.383 . S
C2156 C2157 1.377 . S
C2157 H2141 0.930 . S
C2157 C2156 1.377 . S
C2157 C2158 1.379 . S
C2158 H2142 0.931 . S
C2158 C2152 1.383 . S
C2158 C2157 1.379 . S
H2159 C2153 0.959 . S
H2160 C2153 0.961 . S
H2161 C2153 0.960 . S
H2162 C2154 0.930 . S
H2163 C2155 0.929 . S
H2164 C2172 0.929 . S
H2165 C2174 0.930 . S
H2166 C2176 0.930 . S
H2167 C2179 0.929 . S
H2168 C2182 0.930 . S
H2169 C2184 0.960 . S
H2170 C2184 0.960 . S
H2171 C2184 0.960 . S
C2172 H2164 0.929 . S
C2172 C2173 1.377 . S
C2172 C2174 1.384 . S
C2173 C2172 1.377 . S
C2173 C2179 1.390 . S
C2174 H2165 0.930 . S
C2174 C2172 1.384 . S
C2174 C2175 1.372 . S
C2175 C2174 1.372 . S
C2175 C2176 1.400 . S
C2175 C2180 1.490 . S
C2176 H2166 0.930 . S
C2176 C2175 1.400 . S
C2176 C2179 1.386 . S
H2177 C2193 0.930 . S
H2178 C2194 0.931 . S
C2179 H2167 0.929 . S
C2179 C2173 1.390 . S
C2179 C2176 1.386 . S
C2180 C2175 1.490 . S
C2180 C2182 1.395 . S
C2180 C2183 1.403 . S
H2181 C2187 0.930 . S
C2182 H2168 0.930 . S
C2182 C2180 1.395 . S
C2182 C2185 1.403 . S
C2183 C2180 1.403 . S
C2183 C2184 1.524 . S
C2183 C2187 1.400 . S
C2184 H2169 0.960 . S
C2184 H2170 0.960 . S
C2184 H2171 0.960 . S
C2184 C2183 1.524 . S
C2185 C2182 1.403 . S
C2185 C2186 1.392 . S
C2185 C2189 1.495 . S
C2186 C2185 1.392 . S
C2186 C2187 1.385 . S
C2186 C2188 1.478 . S
C2187 H2181 0.930 . S
C2187 C2183 1.400 . S
C2187 C2186 1.385 . S
C2188 C2186 1.478 . S
C2188 C2190 1.381 . S
C2188 C2194 1.383 . S
C2189 C2185 1.495 . S
C2189 H2195 0.959 . S
C2189 H2196 0.961 . S
C2189 H2197 0.960 . S
C2190 C2188 1.381 . S
C2190 C2191 1.394 . S
C2190 H2198 0.930 . S
C2191 C2190 1.394 . S
C2191 C2192 1.383 . S
C2191 H2199 0.929 . S
C2192 C2191 1.383 . S
C2192 C2193 1.377 . S
C2193 H2177 0.930 . S
C2193 C2192 1.377 . S
C2193 C2194 1.379 . S
C2194 H2178 0.931 . S
C2194 C2188 1.383 . S
C2194 C2193 1.379 . S
H2195 C2189 0.959 . S
H2196 C2189 0.961 . S
H2197 C2189 0.960 . S
H2198 C2190 0.930 . S
H2199 C2191 0.929 . S
H2200 C2208 0.929 . S
H2201 C2210 0.930 . S
H2202 C2212 0.963 . S
H2203 C2215 0.929 . S
H2204 C2218 0.930 . S
H2205 C2220 0.960 . S
H2206 C2220 0.960 . S
H2207 C2220 0.960 . S
C2208 H2200 0.929 . S
C2208 C2209 1.377 . S
C2208 C2210 1.384 . S
C2209 C2208 1.377 . S
C2209 C2215 1.390 1_545 S
C2210 H2201 0.930 . S
C2210 C2208 1.384 . S
C2210 C2211 1.372 . S
C2211 C2210 1.372 . S
C2211 C2212 1.371 1_545 S
C2211 C2216 1.490 . S
C2212 H2202 0.963 . S
C2212 C2211 1.371 1_565 S
C2212 C2215 1.383 . S
H2213 C2229 0.930 . S
H2214 C2230 0.954 . S
C2215 H2203 0.929 . S
C2215 C2209 1.390 1_565 S
C2215 C2212 1.383 . S
C2216 C2211 1.490 . S
C2216 C2218 1.395 . S
C2216 C2219 1.403 . S
H2217 C2223 0.930 . S
C2218 H2204 0.930 . S
C2218 C2216 1.395 . S
C2218 C2221 1.403 . S
C2219 C2216 1.403 . S
C2219 C2220 1.524 . S
C2219 C2223 1.400 . S
C2220 H2205 0.960 . S
C2220 H2206 0.960 . S
C2220 H2207 0.960 . S
C2220 C2219 1.524 . S
C2221 C2218 1.403 . S
C2221 C2222 1.392 . S
C2221 C2225 1.495 . S
C2222 C2221 1.392 . S
C2222 C2223 1.385 . S
C2222 C2224 1.478 . S
C2223 H2217 0.930 . S
C2223 C2219 1.400 . S
C2223 C2222 1.385 . S
C2224 C2222 1.478 . S
C2224 C2226 1.381 . S
C2224 C2230 1.383 . S
C2225 C2221 1.495 . S
C2225 H2231 0.959 . S
C2225 H2232 0.961 . S
C2225 H2233 0.960 . S
C2226 C2224 1.381 . S
C2226 C2227 1.394 . S
C2226 H2234 0.930 . S
C2227 C2226 1.394 . S
C2227 C2228 1.383 . S
C2227 H2235 0.929 . S
C2228 C2227 1.383 . S
C2228 C2229 1.377 . S
C2229 H2213 0.930 . S
C2229 C2228 1.377 . S
C2229 C2230 1.379 . S
C2230 H2214 0.954 . S
C2230 C2224 1.383 . S
C2230 C2229 1.379 . S
H2231 C2225 0.959 . S
H2232 C2225 0.961 . S
H2233 C2225 0.960 . S
H2234 C2226 0.930 . S
H2235 C2227 0.929 . S
H2236 C2244 0.929 . S
H2237 C2246 0.930 . S
H2238 C2248 0.930 . S
H2239 C2251 0.929 . S
H2240 C2254 0.930 . S
H2241 C2256 0.960 . S
H2242 C2256 0.960 . S
H2243 C2256 0.960 . S
C2244 H2236 0.929 . S
C2244 C2245 1.377 . S
C2244 C2246 1.384 . S
C2245 C2244 1.377 . S
C2245 C2251 1.390 . S
C2246 H2237 0.930 . S
C2246 C2244 1.384 . S
C2246 C2247 1.372 . S
C2247 C2246 1.372 . S
C2247 C2248 1.400 . S
C2247 C2252 1.490 . S
C2248 H2238 0.930 . S
C2248 C2247 1.400 . S
C2248 C2251 1.386 . S
H2249 C2265 0.930 . S
H2250 C2266 0.931 . S
C2251 H2239 0.929 . S
C2251 C2245 1.390 . S
C2251 C2248 1.386 . S
C2252 C2247 1.490 . S
C2252 C2254 1.395 . S
C2252 C2255 1.403 . S
H2253 C2259 0.930 . S
C2254 H2240 0.930 . S
C2254 C2252 1.395 . S
C2254 C2257 1.403 . S
C2255 C2252 1.403 . S
C2255 C2256 1.524 . S
C2255 C2259 1.400 . S
C2256 H2241 0.960 . S
C2256 H2242 0.960 . S
C2256 H2243 0.960 . S
C2256 C2255 1.524 . S
C2257 C2254 1.403 . S
C2257 C2258 1.392 . S
C2257 C2261 1.495 . S
C2258 C2257 1.392 . S
C2258 C2259 1.385 . S
C2258 C2260 1.478 . S
C2259 H2253 0.930 . S
C2259 C2255 1.400 . S
C2259 C2258 1.385 . S
C2260 C2258 1.478 . S
C2260 C2262 1.381 . S
C2260 C2266 1.383 . S
C2261 C2257 1.495 . S
C2261 H2267 0.959 . S
C2261 H2268 0.961 . S
C2261 H2269 0.960 . S
C2262 C2260 1.381 . S
C2262 C2263 1.394 . S
C2262 H2270 0.930 . S
C2263 C2262 1.394 . S
C2263 C2264 1.383 . S
C2263 H2271 0.929 . S
C2264 C2263 1.383 . S
C2264 C2265 1.377 . S
C2265 H2249 0.930 . S
C2265 C2264 1.377 . S
C2265 C2266 1.379 . S
C2266 H2250 0.931 . S
C2266 C2260 1.383 . S
C2266 C2265 1.379 . S
H2267 C2261 0.959 . S
H2268 C2261 0.961 . S
H2269 C2261 0.960 . S
H2270 C2262 0.930 . S
H2271 C2263 0.929 . S
H2272 C2280 0.929 . S
H2273 C2282 0.930 . S
H2274 C2284 0.930 . S
H2275 C2287 0.929 . S
H2276 C2290 0.930 . S
H2277 C2292 0.960 1_565 S
H2278 C2292 0.960 . S
H2279 C2292 0.960 1_565 S
C2280 H2272 0.929 . S
C2280 C2281 1.377 . S
C2280 C2282 1.384 . S
C2281 C2280 1.377 . S
C2281 C2287 1.390 . S
C2282 H2273 0.930 . S
C2282 C2280 1.384 . S
C2282 C2283 1.372 . S
C2283 C2282 1.372 . S
C2283 C2284 1.400 . S
C2283 C2288 1.490 . S
C2284 H2274 0.930 . S
C2284 C2283 1.400 . S
C2284 C2287 1.386 . S
H2285 C2301 0.930 . S
H2286 C2302 0.931 . S
C2287 H2275 0.929 . S
C2287 C2281 1.390 . S
C2287 C2284 1.386 . S
C2288 C2283 1.490 . S
C2288 C2290 1.395 . S
C2288 C2291 1.403 . S
H2289 C2295 0.930 . S
C2290 H2276 0.930 . S
C2290 C2288 1.395 . S
C2290 C2293 1.403 . S
C2291 C2288 1.403 . S
C2291 C2292 1.524 . S
C2291 C2295 1.400 . S
C2292 H2277 0.960 1_545 S
C2292 H2278 0.960 . S
C2292 H2279 0.960 1_545 S
C2292 C2291 1.524 . S
C2293 C2290 1.403 . S
C2293 C2294 1.392 . S
C2293 C2297 1.495 . S
C2294 C2293 1.392 . S
C2294 C2295 1.385 . S
C2294 C2296 1.478 . S
C2295 H2289 0.930 . S
C2295 C2291 1.400 . S
C2295 C2294 1.385 . S
C2296 C2294 1.478 . S
C2296 C2298 1.381 . S
C2296 C2302 1.383 . S
C2297 C2293 1.495 . S
C2297 H2303 0.959 . S
C2297 H2304 0.961 . S
C2297 H2305 0.960 . S
C2298 C2296 1.381 . S
C2298 C2299 1.394 . S
C2298 H2306 0.930 . S
C2299 C2298 1.394 . S
C2299 C2300 1.383 . S
C2299 H2307 0.929 . S
C2300 C2299 1.383 . S
C2300 C2301 1.377 . S
C2301 H2285 0.930 . S
C2301 C2300 1.377 . S
C2301 C2302 1.379 . S
C2302 H2286 0.931 . S
C2302 C2296 1.383 . S
C2302 C2301 1.379 . S
H2303 C2297 0.959 . S
H2304 C2297 0.961 . S
H2305 C2297 0.960 . S
H2306 C2298 0.930 . S
H2307 C2299 0.929 . S
H2308 C2316 0.929 . S
H2309 C2318 0.930 . S
H2310 C2320 0.930 . S
H2311 C2323 0.929 . S
H2312 C2326 0.930 . S
H2313 C2328 0.960 . S
H2314 C2328 0.960 . S
H2315 C2328 0.960 . S
C2316 H2308 0.929 . S
C2316 C2317 1.377 . S
C2316 C2318 1.384 . S
C2317 C2316 1.377 . S
C2317 C2323 1.390 . S
C2318 H2309 0.930 . S
C2318 C2316 1.384 . S
C2318 C2319 1.372 . S
C2319 C2318 1.372 . S
C2319 C2320 1.400 . S
C2319 C2324 1.490 . S
C2320 H2310 0.930 . S
C2320 C2319 1.400 . S
C2320 C2323 1.386 . S
H2321 C2337 0.930 . S
H2322 C2338 0.931 . S
C2323 H2311 0.929 . S
C2323 C2317 1.390 . S
C2323 C2320 1.386 . S
C2324 C2319 1.490 . S
C2324 C2326 1.395 . S
C2324 C2327 1.403 . S
H2325 C2331 0.930 . S
C2326 H2312 0.930 . S
C2326 C2324 1.395 . S
C2326 C2329 1.403 . S
C2327 C2324 1.403 . S
C2327 C2328 1.524 . S
C2327 C2331 1.400 . S
C2328 H2313 0.960 . S
C2328 H2314 0.960 . S
C2328 H2315 0.960 . S
C2328 C2327 1.524 . S
C2329 C2326 1.403 . S
C2329 C2330 1.392 . S
C2329 C2333 1.495 . S
C2330 C2329 1.392 . S
C2330 C2331 1.385 . S
C2330 C2332 1.478 . S
C2331 H2325 0.930 . S
C2331 C2327 1.400 . S
C2331 C2330 1.385 . S
C2332 C2330 1.478 . S
C2332 C2334 1.381 . S
C2332 C2338 1.383 . S
C2333 C2329 1.495 . S
C2333 H2339 0.959 . S
C2333 H2340 0.961 . S
C2333 H2341 0.960 . S
C2334 C2332 1.381 . S
C2334 C2335 1.394 . S
C2334 H2342 0.930 . S
C2335 C2334 1.394 . S
C2335 C2336 1.383 . S
C2335 H2343 0.929 . S
C2336 C2335 1.383 . S
C2336 C2337 1.377 . S
C2337 H2321 0.930 . S
C2337 C2336 1.377 . S
C2337 C2338 1.379 . S
C2338 H2322 0.931 . S
C2338 C2332 1.383 . S
C2338 C2337 1.379 . S
H2339 C2333 0.959 . S
H2340 C2333 0.961 . S
H2341 C2333 0.960 . S
H2342 C2334 0.930 . S
H2343 C2335 0.929 . S
H2344 C2352 0.928 . S
H2345 C2354 0.930 . S
H2346 C2356 0.930 . S
H2347 C2359 0.929 . S
H2348 C2362 0.930 . S
H2349 C2364 0.960 . S
H2350 C2364 0.960 . S
H2351 C2364 0.960 . S
C2352 H2344 0.928 . S
C2352 C2353 1.379 1_565 S
C2352 C2354 1.383 . S
C2353 C2352 1.379 1_545 S
C2353 C2359 1.390 . S
C2354 H2345 0.930 . S
C2354 C2352 1.383 . S
C2354 C2355 1.365 1_565 S
C2355 C2354 1.365 1_545 S
C2355 C2356 1.410 . S
C2355 C2360 1.487 1_545 S
C2356 H2346 0.930 . S
C2356 C2355 1.410 . S
C2356 C2359 1.386 . S
H2357 C2373 0.930 . S
H2358 C2374 0.931 . S
C2359 H2347 0.929 . S
C2359 C2353 1.390 . S
C2359 C2356 1.386 . S
C2360 C2355 1.487 1_565 S
C2360 C2362 1.395 . S
C2360 C2363 1.403 1_565 S
H2361 C2367 0.930 . S
C2362 H2348 0.930 . S
C2362 C2360 1.395 . S
C2362 C2365 1.403 . S
C2363 C2360 1.403 1_545 S
C2363 C2364 1.524 . S
C2363 C2367 1.400 . S
C2364 H2349 0.960 . S
C2364 H2350 0.960 . S
C2364 H2351 0.960 . S
C2364 C2363 1.524 . S
C2365 C2362 1.403 . S
C2365 C2366 1.392 . S
C2365 C2369 1.495 . S
C2366 C2365 1.392 . S
C2366 C2367 1.385 1_565 S
C2366 C2368 1.478 . S
C2367 H2361 0.930 . S
C2367 C2363 1.400 . S
C2367 C2366 1.385 1_545 S
C2368 C2366 1.478 . S
C2368 C2370 1.381 . S
C2368 C2374 1.383 . S
C2369 C2365 1.495 . S
C2369 H2375 0.959 . S
C2369 H2376 0.961 . S
C2369 H2377 0.960 . S
C2370 C2368 1.381 . S
C2370 C2371 1.394 . S
C2370 H2378 0.930 . S
C2371 C2370 1.394 . S
C2371 C2372 1.383 . S
C2371 H2379 0.929 . S
C2372 C2371 1.383 . S
C2372 C2373 1.377 . S
C2373 H2357 0.930 . S
C2373 C2372 1.377 . S
C2373 C2374 1.379 . S
C2374 H2358 0.931 . S
C2374 C2368 1.383 . S
C2374 C2373 1.379 . S
H2375 C2369 0.959 . S
H2376 C2369 0.961 . S
H2377 C2369 0.960 . S
H2378 C2370 0.930 . S
H2379 C2371 0.929 . S
H2380 C2388 0.929 . S
H2381 C2390 0.930 . S
H2382 C2392 0.930 . S
H2383 C2395 0.929 . S
H2384 C2398 0.930 . S
H2385 C2400 0.960 . S
H2386 C2400 0.960 . S
H2387 C2400 0.960 . S
C2388 H2380 0.929 . S
C2388 C2389 1.377 . S
C2388 C2390 1.384 . S
C2389 C2388 1.377 . S
C2389 C2395 1.390 . S
C2390 H2381 0.930 . S
C2390 C2388 1.384 . S
C2390 C2391 1.372 . S
C2391 C2390 1.372 . S
C2391 C2392 1.400 . S
C2391 C2396 1.490 . S
C2392 H2382 0.930 . S
C2392 C2391 1.400 . S
C2392 C2395 1.386 . S
H2393 C2409 0.930 . S
H2394 C2410 0.931 . S
C2395 H2383 0.929 . S
C2395 C2389 1.390 . S
C2395 C2392 1.386 . S
C2396 C2391 1.490 . S
C2396 C2398 1.395 . S
C2396 C2399 1.403 . S
H2397 C2403 0.930 . S
C2398 H2384 0.930 . S
C2398 C2396 1.395 . S
C2398 C2401 1.403 . S
C2399 C2396 1.403 . S
C2399 C2400 1.524 . S
C2399 C2403 1.400 . S
C2400 H2385 0.960 . S
C2400 H2386 0.960 . S
C2400 H2387 0.960 . S
C2400 C2399 1.524 . S
C2401 C2398 1.403 . S
C2401 C2402 1.392 . S
C2401 C2405 1.495 . S
C2402 C2401 1.392 . S
C2402 C2403 1.385 . S
C2402 C2404 1.478 . S
C2403 H2397 0.930 . S
C2403 C2399 1.400 . S
C2403 C2402 1.385 . S
C2404 C2402 1.478 . S
C2404 C2406 1.381 . S
C2404 C2410 1.383 . S
C2405 C2401 1.495 . S
C2405 H2411 0.959 . S
C2405 H2412 0.961 . S
C2405 H2413 0.960 . S
C2406 C2404 1.381 . S
C2406 C2407 1.394 . S
C2406 H2414 0.930 . S
C2407 C2406 1.394 . S
C2407 C2408 1.383 . S
C2407 H2415 0.929 . S
C2408 C2407 1.383 . S
C2408 C2409 1.377 . S
C2409 H2393 0.930 . S
C2409 C2408 1.377 . S
C2409 C2410 1.379 . S
C2410 H2394 0.931 . S
C2410 C2404 1.383 . S
C2410 C2409 1.379 . S
H2411 C2405 0.959 . S
H2412 C2405 0.961 . S
H2413 C2405 0.960 . S
H2414 C2406 0.930 . S
H2415 C2407 0.929 . S
H2416 C2424 0.929 . S
H2417 C2426 0.930 . S
H2418 C2428 0.930 . S
H2419 C2431 0.929 . S
H2420 C2434 0.930 . S
H2421 C2436 0.960 . S
H2422 C2436 0.960 . S
H2423 C2436 0.960 . S
C2424 H2416 0.929 . S
C2424 C2425 1.377 . S
C2424 C2426 1.384 . S
C2425 C2424 1.377 . S
C2425 C2431 1.390 . S
C2426 H2417 0.930 . S
C2426 C2424 1.384 . S
C2426 C2427 1.372 . S
C2427 C2426 1.372 . S
C2427 C2428 1.400 . S
C2427 C2432 1.490 . S
C2428 H2418 0.930 . S
C2428 C2427 1.400 . S
C2428 C2431 1.386 . S
H2429 C2445 0.930 . S
H2430 C2446 0.931 . S
C2431 H2419 0.929 . S
C2431 C2425 1.390 . S
C2431 C2428 1.386 . S
C2432 C2427 1.490 . S
C2432 C2434 1.395 . S
C2432 C2435 1.403 . S
H2433 C2439 0.930 . S
C2434 H2420 0.930 . S
C2434 C2432 1.395 . S
C2434 C2437 1.403 . S
C2435 C2432 1.403 . S
C2435 C2436 1.524 . S
C2435 C2439 1.400 . S
C2436 H2421 0.960 . S
C2436 H2422 0.960 . S
C2436 H2423 0.960 . S
C2436 C2435 1.524 . S
C2437 C2434 1.403 . S
C2437 C2438 1.392 . S
C2437 C2441 1.495 1_554 S
C2438 C2437 1.392 . S
C2438 C2439 1.385 . S
C2438 C2440 1.478 . S
C2439 H2433 0.930 . S
C2439 C2435 1.400 . S
C2439 C2438 1.385 . S
C2440 C2438 1.478 . S
C2440 C2442 1.381 1_554 S
C2440 C2446 1.383 . S
C2441 C2437 1.495 1_556 S
C2441 H2447 0.959 . S
C2441 H2448 0.961 . S
C2441 H2449 0.960 . S
C2442 C2440 1.381 1_556 S
C2442 C2443 1.394 . S
C2442 H2450 0.930 . S
C2443 C2442 1.394 . S
C2443 C2444 1.383 1_556 S
C2443 H2451 0.929 . S
C2444 C2443 1.383 1_554 S
C2444 C2445 1.377 . S
C2445 H2429 0.930 . S
C2445 C2444 1.377 . S
C2445 C2446 1.379 . S
C2446 H2430 0.931 . S
C2446 C2440 1.383 . S
C2446 C2445 1.379 . S
H2447 C2441 0.959 . S
H2448 C2441 0.961 . S
H2449 C2441 0.960 . S
H2450 C2442 0.930 . S
H2451 C2443 0.929 . S
H2452 C2460 0.929 . S
H2453 C2462 0.930 . S
H2454 C2464 0.930 . S
H2455 C2467 0.929 . S
H2456 C2470 0.930 . S
H2457 C2472 0.960 . S
H2458 C2472 0.960 . S
H2459 C2472 0.960 . S
C2460 H2452 0.929 . S
C2460 C2461 1.377 . S
C2460 C2462 1.384 . S
C2461 C2460 1.377 . S
C2461 C2467 1.390 . S
C2462 H2453 0.930 . S
C2462 C2460 1.384 . S
C2462 C2463 1.372 . S
C2463 C2462 1.372 . S
C2463 C2464 1.400 . S
C2463 C2468 1.490 . S
C2464 H2454 0.930 . S
C2464 C2463 1.400 . S
C2464 C2467 1.386 . S
H2465 C2481 0.930 . S
H2466 C2482 0.931 . S
C2467 H2455 0.929 . S
C2467 C2461 1.390 . S
C2467 C2464 1.386 . S
C2468 C2463 1.490 . S
C2468 C2470 1.395 . S
C2468 C2471 1.403 . S
H2469 C2475 0.930 . S
C2470 H2456 0.930 . S
C2470 C2468 1.395 . S
C2470 C2473 1.403 . S
C2471 C2468 1.403 . S
C2471 C2472 1.524 . S
C2471 C2475 1.400 . S
C2472 H2457 0.960 . S
C2472 H2458 0.960 . S
C2472 H2459 0.960 . S
C2472 C2471 1.524 . S
C2473 C2470 1.403 . S
C2473 C2474 1.392 . S
C2473 C2477 1.495 . S
C2474 C2473 1.392 . S
C2474 C2475 1.385 . S
C2474 C2476 1.478 . S
C2475 H2469 0.930 . S
C2475 C2471 1.400 . S
C2475 C2474 1.385 . S
C2476 C2474 1.478 . S
C2476 C2478 1.381 . S
C2476 C2482 1.383 . S
C2477 C2473 1.495 . S
C2477 H2483 0.959 . S
C2477 H2484 0.961 . S
C2477 H2485 0.960 . S
C2478 C2476 1.381 . S
C2478 C2479 1.394 . S
C2478 H2486 0.930 . S
C2479 C2478 1.394 . S
C2479 C2480 1.383 . S
C2479 H2487 0.929 . S
C2480 C2479 1.383 . S
C2480 C2481 1.377 . S
C2481 H2465 0.930 . S
C2481 C2480 1.377 . S
C2481 C2482 1.379 . S
C2482 H2466 0.931 . S
C2482 C2476 1.383 . S
C2482 C2481 1.379 . S
H2483 C2477 0.959 . S
H2484 C2477 0.961 . S
H2485 C2477 0.960 . S
H2486 C2478 0.930 . S
H2487 C2479 0.929 . S
H2488 C2496 0.929 . S
H2489 C2498 0.930 . S
H2490 C2500 0.930 . S
H2491 C2503 0.929 . S
H2492 C2506 0.930 . S
H2493 C2508 0.960 . S
H2494 C2508 0.960 . S
H2495 C2508 0.960 . S
C2496 H2488 0.929 . S
C2496 C2497 1.377 . S
C2496 C2498 1.384 . S
C2497 C2496 1.377 . S
C2497 C2503 1.390 . S
C2498 H2489 0.930 . S
C2498 C2496 1.384 . S
C2498 C2499 1.372 . S
C2499 C2498 1.372 . S
C2499 C2500 1.400 . S
C2499 C2504 1.490 . S
C2500 H2490 0.930 . S
C2500 C2499 1.400 . S
C2500 C2503 1.386 . S
H2501 C2517 0.930 . S
H2502 C2518 0.931 . S
C2503 H2491 0.929 . S
C2503 C2497 1.390 . S
C2503 C2500 1.386 . S
C2504 C2499 1.490 . S
C2504 C2506 1.395 . S
C2504 C2507 1.403 . S
H2505 C2511 0.930 . S
C2506 H2492 0.930 . S
C2506 C2504 1.395 . S
C2506 C2509 1.403 . S
C2507 C2504 1.403 . S
C2507 C2508 1.524 . S
C2507 C2511 1.400 . S
C2508 H2493 0.960 . S
C2508 H2494 0.960 . S
C2508 H2495 0.960 . S
C2508 C2507 1.524 . S
C2509 C2506 1.403 . S
C2509 C2510 1.392 . S
C2509 C2513 1.495 . S
C2510 C2509 1.392 . S
C2510 C2511 1.385 . S
C2510 C2512 1.478 . S
C2511 H2505 0.930 . S
C2511 C2507 1.400 . S
C2511 C2510 1.385 . S
C2512 C2510 1.478 . S
C2512 C2514 1.381 . S
C2512 C2518 1.383 . S
C2513 C2509 1.495 . S
C2513 H2519 0.959 . S
C2513 H2520 0.961 . S
C2513 H2521 0.960 . S
C2514 C2512 1.381 . S
C2514 C2515 1.394 . S
C2514 H2522 0.930 . S
C2515 C2514 1.394 . S
C2515 C2516 1.383 . S
C2515 H2523 0.929 . S
C2516 C2515 1.383 . S
C2516 C2517 1.377 . S
C2517 H2501 0.930 . S
C2517 C2516 1.377 . S
C2517 C2518 1.379 . S
C2518 H2502 0.931 . S
C2518 C2512 1.383 . S
C2518 C2517 1.379 . S
H2519 C2513 0.959 . S
H2520 C2513 0.961 . S
H2521 C2513 0.960 . S
H2522 C2514 0.930 . S
H2523 C2515 0.929 . S
H2524 C2532 0.929 . S
H2525 C2534 0.930 . S
H2526 C2536 0.930 . S
H2527 C2539 0.929 . S
H2528 C2542 0.930 . S
H2529 C2544 0.960 . S
H2530 C2544 0.960 . S
H2531 C2544 0.960 . S
C2532 H2524 0.929 . S
C2532 C2533 1.377 . S
C2532 C2534 1.384 . S
C2533 C2532 1.377 . S
C2533 C2539 1.390 . S
C2534 H2525 0.930 . S
C2534 C2532 1.384 . S
C2534 C2535 1.372 . S
C2535 C2534 1.372 . S
C2535 C2536 1.400 . S
C2535 C2540 1.490 . S
C2536 H2526 0.930 . S
C2536 C2535 1.400 . S
C2536 C2539 1.386 . S
H2537 C2553 0.930 . S
H2538 C2554 0.931 . S
C2539 H2527 0.929 . S
C2539 C2533 1.390 . S
C2539 C2536 1.386 . S
C2540 C2535 1.490 . S
C2540 C2542 1.395 . S
C2540 C2543 1.403 . S
H2541 C2547 0.930 . S
C2542 H2528 0.930 . S
C2542 C2540 1.395 . S
C2542 C2545 1.403 . S
C2543 C2540 1.403 . S
C2543 C2544 1.524 . S
C2543 C2547 1.400 . S
C2544 H2529 0.960 . S
C2544 H2530 0.960 . S
C2544 H2531 0.960 . S
C2544 C2543 1.524 . S
C2545 C2542 1.403 . S
C2545 C2546 1.392 . S
C2545 C2549 1.495 . S
C2546 C2545 1.392 . S
C2546 C2547 1.385 . S
C2546 C2548 1.478 . S
C2547 H2541 0.930 . S
C2547 C2543 1.400 . S
C2547 C2546 1.385 . S
C2548 C2546 1.478 . S
C2548 C2550 1.381 . S
C2548 C2554 1.383 . S
C2549 C2545 1.495 . S
C2549 H2555 0.959 . S
C2549 H2556 0.961 . S
C2549 H2557 0.960 . S
C2550 C2548 1.381 . S
C2550 C2551 1.394 . S
C2550 H2558 0.930 . S
C2551 C2550 1.394 . S
C2551 C2552 1.383 . S
C2551 H2559 0.929 . S
C2552 C2551 1.383 . S
C2552 C2553 1.377 . S
C2553 H2537 0.930 . S
C2553 C2552 1.377 . S
C2553 C2554 1.379 . S
C2554 H2538 0.931 . S
C2554 C2548 1.383 . S
C2554 C2553 1.379 . S
H2555 C2549 0.959 . S
H2556 C2549 0.961 . S
H2557 C2549 0.960 . S
H2558 C2550 0.930 . S
H2559 C2551 0.929 . S
H2560 C2568 0.929 . S
H2561 C2570 0.930 . S
H2562 C2572 0.930 . S
H2563 C2575 0.929 . S
H2564 C2578 0.930 . S
H2565 C2580 0.960 . S
H2566 C2580 0.960 . S
H2567 C2580 0.960 . S
C2568 H2560 0.929 . S
C2568 C2569 1.377 . S
C2568 C2570 1.384 1_545 S
C2569 C2568 1.377 . S
C2569 C2575 1.390 . S
C2570 H2561 0.930 . S
C2570 C2568 1.384 1_565 S
C2570 C2571 1.372 . S
C2571 C2570 1.372 . S
C2571 C2572 1.400 . S
C2571 C2576 1.490 . S
C2572 H2562 0.930 . S
C2572 C2571 1.400 . S
C2572 C2575 1.386 1_565 S
H2573 C2589 0.930 . S
H2574 C2590 0.931 . S
C2575 H2563 0.929 . S
C2575 C2569 1.390 . S
C2575 C2572 1.386 1_545 S
C2576 C2571 1.490 . S
C2576 C2578 1.395 . S
C2576 C2579 1.403 . S
H2577 C2583 0.930 . S
C2578 H2564 0.930 . S
C2578 C2576 1.395 . S
C2578 C2581 1.403 . S
C2579 C2576 1.403 . S
C2579 C2580 1.524 . S
C2579 C2583 1.400 . S
C2580 H2565 0.960 . S
C2580 H2566 0.960 . S
C2580 H2567 0.960 . S
C2580 C2579 1.524 . S
C2581 C2578 1.403 . S
C2581 C2582 1.392 . S
C2581 C2585 1.495 . S
C2582 C2581 1.392 . S
C2582 C2583 1.385 . S
C2582 C2584 1.478 . S
C2583 H2577 0.930 . S
C2583 C2579 1.400 . S
C2583 C2582 1.385 . S
C2584 C2582 1.478 . S
C2584 C2586 1.381 . S
C2584 C2590 1.383 . S
C2585 C2581 1.495 . S
C2585 H2591 0.959 . S
C2585 H2592 0.961 . S
C2585 H2593 0.960 . S
C2586 C2584 1.381 . S
C2586 C2587 1.394 . S
C2586 H2594 0.930 . S
C2587 C2586 1.394 . S
C2587 C2588 1.383 . S
C2587 H2595 0.929 . S
C2588 C2587 1.383 . S
C2588 C2589 1.377 . S
C2589 H2573 0.930 . S
C2589 C2588 1.377 . S
C2589 C2590 1.379 . S
C2590 H2574 0.931 . S
C2590 C2584 1.383 . S
C2590 C2589 1.379 . S
H2591 C2585 0.959 . S
H2592 C2585 0.961 . S
H2593 C2585 0.960 . S
H2594 C2586 0.930 . S
H2595 C2587 0.929 . S
H2596 C2604 0.929 . S
H2597 C2606 0.930 . S
H2598 C2608 0.930 . S
H2599 C2611 0.929 . S
H2600 C2614 0.930 . S
H2601 C2616 0.960 . S
H2602 C2616 0.960 . S
H2603 C2616 0.960 . S
C2604 H2596 0.929 . S
C2604 C2605 1.377 . S
C2604 C2606 1.384 . S
C2605 C2604 1.377 . S
C2605 C2611 1.390 . S
C2606 H2597 0.930 . S
C2606 C2604 1.384 . S
C2606 C2607 1.372 . S
C2607 C2606 1.372 . S
C2607 C2608 1.400 . S
C2607 C2612 1.490 . S
C2608 H2598 0.930 . S
C2608 C2607 1.400 . S
C2608 C2611 1.386 . S
H2609 C2625 0.930 . S
H2610 C2626 0.931 . S
C2611 H2599 0.929 . S
C2611 C2605 1.390 . S
C2611 C2608 1.386 . S
C2612 C2607 1.490 . S
C2612 C2614 1.395 . S
C2612 C2615 1.403 . S
H2613 C2619 0.930 . S
C2614 H2600 0.930 . S
C2614 C2612 1.395 . S
C2614 C2617 1.403 . S
C2615 C2612 1.403 . S
C2615 C2616 1.524 . S
C2615 C2619 1.400 . S
C2616 H2601 0.960 . S
C2616 H2602 0.960 . S
C2616 H2603 0.960 . S
C2616 C2615 1.524 . S
C2617 C2614 1.403 . S
C2617 C2618 1.392 . S
C2617 C2621 1.495 . S
C2618 C2617 1.392 . S
C2618 C2619 1.385 . S
C2618 C2620 1.478 . S
C2619 H2613 0.930 . S
C2619 C2615 1.400 . S
C2619 C2618 1.385 . S
C2620 C2618 1.478 . S
C2620 C2622 1.381 . S
C2620 C2626 1.383 . S
C2621 C2617 1.495 . S
C2621 H2627 0.959 . S
C2621 H2628 0.961 . S
C2621 H2629 0.960 . S
C2622 C2620 1.381 . S
C2622 C2623 1.394 . S
C2622 H2630 0.930 . S
C2623 C2622 1.394 . S
C2623 C2624 1.383 . S
C2623 H2631 0.929 . S
C2624 C2623 1.383 . S
C2624 C2625 1.377 . S
C2625 H2609 0.930 . S
C2625 C2624 1.377 . S
C2625 C2626 1.379 . S
C2626 H2610 0.931 . S
C2626 C2620 1.383 . S
C2626 C2625 1.379 . S
H2627 C2621 0.959 . S
H2628 C2621 0.961 . S
H2629 C2621 0.960 . S
H2630 C2622 0.930 . S
H2631 C2623 0.929 . S
H2632 C2640 0.929 . S
H2633 C2642 0.930 . S
H2634 C2644 0.930 . S
H2635 C2647 0.929 . S
H2636 C2650 0.930 . S
H2637 C2652 0.960 . S
H2638 C2652 0.960 . S
H2639 C2652 0.960 . S
C2640 H2632 0.929 . S
C2640 C2641 1.377 . S
C2640 C2642 1.384 . S
C2641 C2640 1.377 . S
C2641 C2647 1.390 . S
C2642 H2633 0.930 . S
C2642 C2640 1.384 . S
C2642 C2643 1.372 . S
C2643 C2642 1.372 . S
C2643 C2644 1.400 . S
C2643 C2648 1.490 . S
C2644 H2634 0.930 . S
C2644 C2643 1.400 . S
C2644 C2647 1.386 . S
H2645 C2661 0.930 . S
H2646 C2662 0.931 . S
C2647 H2635 0.929 . S
C2647 C2641 1.390 . S
C2647 C2644 1.386 . S
C2648 C2643 1.490 . S
C2648 C2650 1.395 . S
C2648 C2651 1.403 . S
H2649 C2655 0.930 . S
C2650 H2636 0.930 . S
C2650 C2648 1.395 . S
C2650 C2653 1.403 . S
C2651 C2648 1.403 . S
C2651 C2652 1.524 . S
C2651 C2655 1.400 . S
C2652 H2637 0.960 . S
C2652 H2638 0.960 . S
C2652 H2639 0.960 . S
C2652 C2651 1.524 . S
C2653 C2650 1.403 . S
C2653 C2654 1.392 . S
C2653 C2657 1.495 . S
C2654 C2653 1.392 . S
C2654 C2655 1.385 . S
C2654 C2656 1.478 . S
C2655 H2649 0.930 . S
C2655 C2651 1.400 . S
C2655 C2654 1.385 . S
C2656 C2654 1.478 . S
C2656 C2658 1.381 . S
C2656 C2662 1.383 . S
C2657 C2653 1.495 . S
C2657 H2663 0.959 . S
C2657 H2664 0.961 . S
C2657 H2665 0.960 . S
C2658 C2656 1.381 . S
C2658 C2659 1.394 . S
C2658 H2666 0.930 . S
C2659 C2658 1.394 . S
C2659 C2660 1.383 . S
C2659 H2667 0.929 . S
C2660 C2659 1.383 . S
C2660 C2661 1.377 . S
C2661 H2645 0.930 . S
C2661 C2660 1.377 . S
C2661 C2662 1.379 . S
C2662 H2646 0.931 . S
C2662 C2656 1.383 . S
C2662 C2661 1.379 . S
H2663 C2657 0.959 . S
H2664 C2657 0.961 . S
H2665 C2657 0.960 . S
H2666 C2658 0.930 . S
H2667 C2659 0.929 . S
H2668 C2676 0.929 . S
H2669 C2678 0.930 . S
H2670 C2680 0.930 . S
H2671 C2683 0.929 . S
H2672 C2686 0.930 . S
H2673 C2688 0.960 . S
H2674 C2688 0.960 . S
H2675 C2688 0.960 . S
C2676 H2668 0.929 . S
C2676 C2677 1.377 . S
C2676 C2678 1.384 . S
C2677 C2676 1.377 . S
C2677 C2683 1.390 . S
C2678 H2669 0.930 . S
C2678 C2676 1.384 . S
C2678 C2679 1.372 . S
C2679 C2678 1.372 . S
C2679 C2680 1.400 . S
C2679 C2684 1.490 . S
C2680 H2670 0.930 . S
C2680 C2679 1.400 . S
C2680 C2683 1.386 . S
H2681 C2697 0.930 . S
H2682 C2698 0.931 . S
C2683 H2671 0.929 . S
C2683 C2677 1.390 . S
C2683 C2680 1.386 . S
C2684 C2679 1.490 . S
C2684 C2686 1.395 . S
C2684 C2687 1.403 . S
H2685 C2691 0.930 . S
C2686 H2672 0.930 . S
C2686 C2684 1.395 . S
C2686 C2689 1.403 . S
C2687 C2684 1.403 . S
C2687 C2688 1.524 . S
C2687 C2691 1.400 . S
C2688 H2673 0.960 . S
C2688 H2674 0.960 . S
C2688 H2675 0.960 . S
C2688 C2687 1.524 . S
C2689 C2686 1.403 . S
C2689 C2690 1.392 . S
C2689 C2693 1.495 . S
C2690 C2689 1.392 . S
C2690 C2691 1.385 . S
C2690 C2692 1.478 . S
C2691 H2685 0.930 . S
C2691 C2687 1.400 . S
C2691 C2690 1.385 . S
C2692 C2690 1.478 . S
C2692 C2694 1.381 . S
C2692 C2698 1.383 . S
C2693 C2689 1.495 . S
C2693 H2699 0.959 . S
C2693 H2700 0.961 . S
C2693 H2701 0.960 . S
C2694 C2692 1.381 . S
C2694 C2695 1.394 . S
C2694 H2702 0.930 . S
C2695 C2694 1.394 . S
C2695 C2696 1.383 . S
C2695 H2703 0.929 . S
C2696 C2695 1.383 . S
C2696 C2697 1.377 . S
C2697 H2681 0.930 . S
C2697 C2696 1.377 . S
C2697 C2698 1.379 . S
C2698 H2682 0.931 . S
C2698 C2692 1.383 . S
C2698 C2697 1.379 . S
H2699 C2693 0.959 . S
H2700 C2693 0.961 . S
H2701 C2693 0.960 . S
H2702 C2694 0.930 . S
H2703 C2695 0.929 . S
H2704 C2712 0.929 . S
H2705 C2714 0.930 . S
H2706 C2716 0.930 . S
H2707 C2719 0.929 . S
H2708 C2722 0.930 . S
H2709 C2724 0.960 . S
H2710 C2724 0.960 . S
H2711 C2724 0.960 . S
C2712 H2704 0.929 . S
C2712 C2713 1.377 . S
C2712 C2714 1.384 . S
C2713 C2712 1.377 . S
C2713 C2719 1.390 . S
C2714 H2705 0.930 . S
C2714 C2712 1.384 . S
C2714 C2715 1.372 . S
C2715 C2714 1.372 . S
C2715 C2716 1.400 . S
C2715 C2720 1.490 . S
C2716 H2706 0.930 . S
C2716 C2715 1.400 . S
C2716 C2719 1.386 . S
H2717 C2733 0.930 . S
H2718 C2734 0.931 . S
C2719 H2707 0.929 . S
C2719 C2713 1.390 . S
C2719 C2716 1.386 . S
C2720 C2715 1.490 . S
C2720 C2722 1.395 . S
C2720 C2723 1.403 . S
H2721 C2727 0.930 . S
C2722 H2708 0.930 . S
C2722 C2720 1.395 . S
C2722 C2725 1.403 . S
C2723 C2720 1.403 . S
C2723 C2724 1.524 . S
C2723 C2727 1.400 . S
C2724 H2709 0.960 . S
C2724 H2710 0.960 . S
C2724 H2711 0.960 . S
C2724 C2723 1.524 . S
C2725 C2722 1.403 . S
C2725 C2726 1.392 . S
C2725 C2729 1.495 . S
C2726 C2725 1.392 . S
C2726 C2727 1.385 . S
C2726 C2728 1.478 . S
C2727 H2721 0.930 . S
C2727 C2723 1.400 . S
C2727 C2726 1.385 . S
C2728 C2726 1.478 . S
C2728 C2730 1.381 . S
C2728 C2734 1.383 . S
C2729 C2725 1.495 . S
C2729 H2735 0.959 . S
C2729 H2736 0.961 . S
C2729 H2737 0.960 . S
C2730 C2728 1.381 . S
C2730 C2731 1.394 . S
C2730 H2738 0.930 . S
C2731 C2730 1.394 . S
C2731 C2732 1.383 . S
C2731 H2739 0.929 . S
C2732 C2731 1.383 . S
C2732 C2733 1.377 . S
C2733 H2717 0.930 . S
C2733 C2732 1.377 . S
C2733 C2734 1.379 . S
C2734 H2718 0.931 . S
C2734 C2728 1.383 . S
C2734 C2733 1.379 . S
H2735 C2729 0.959 . S
H2736 C2729 0.961 . S
H2737 C2729 0.960 . S
H2738 C2730 0.930 . S
H2739 C2731 0.929 . S
H2740 C2748 0.929 . S
H2741 C2750 0.930 . S
H2742 C2752 0.930 . S
H2743 C2755 0.929 . S
H2744 C2758 0.930 . S
H2745 C2760 0.960 . S
H2746 C2760 0.960 . S
H2747 C2760 0.960 . S
C2748 H2740 0.929 . S
C2748 C2749 1.377 . S
C2748 C2750 1.384 . S
C2749 C2748 1.377 . S
C2749 C2755 1.390 . S
C2750 H2741 0.930 . S
C2750 C2748 1.384 . S
C2750 C2751 1.372 . S
C2751 C2750 1.372 . S
C2751 C2752 1.400 . S
C2751 C2756 1.490 . S
C2752 H2742 0.930 . S
C2752 C2751 1.400 . S
C2752 C2755 1.386 . S
H2753 C2769 0.930 . S
H2754 C2770 0.931 . S
C2755 H2743 0.929 . S
C2755 C2749 1.390 . S
C2755 C2752 1.386 . S
C2756 C2751 1.490 . S
C2756 C2758 1.395 . S
C2756 C2759 1.403 . S
H2757 C2763 0.930 . S
C2758 H2744 0.930 . S
C2758 C2756 1.395 . S
C2758 C2761 1.403 . S
C2759 C2756 1.403 . S
C2759 C2760 1.524 . S
C2759 C2763 1.400 . S
C2760 H2745 0.960 . S
C2760 H2746 0.960 . S
C2760 H2747 0.960 . S
C2760 C2759 1.524 . S
C2761 C2758 1.403 . S
C2761 C2762 1.392 . S
C2761 C2765 1.495 . S
C2762 C2761 1.392 . S
C2762 C2763 1.385 . S
C2762 C2764 1.478 . S
C2763 H2757 0.930 . S
C2763 C2759 1.400 . S
C2763 C2762 1.385 . S
C2764 C2762 1.478 . S
C2764 C2766 1.381 . S
C2764 C2770 1.383 . S
C2765 C2761 1.495 . S
C2765 H2771 0.959 . S
C2765 H2772 0.961 . S
C2765 H2773 0.960 . S
C2766 C2764 1.381 . S
C2766 C2767 1.394 . S
C2766 H2774 0.930 . S
C2767 C2766 1.394 . S
C2767 C2768 1.383 . S
C2767 H2775 0.929 . S
C2768 C2767 1.383 . S
C2768 C2769 1.377 . S
C2769 H2753 0.930 . S
C2769 C2768 1.377 . S
C2769 C2770 1.379 . S
C2770 H2754 0.931 . S
C2770 C2764 1.383 . S
C2770 C2769 1.379 . S
H2771 C2765 0.959 . S
H2772 C2765 0.961 . S
H2773 C2765 0.960 . S
H2774 C2766 0.930 . S
H2775 C2767 0.929 . S
H2776 C2784 0.929 . S
H2777 C2786 0.930 1_554 S
H2778 C2788 0.930 . S
H2779 C2791 0.929 . S
H2780 C2794 0.930 . S
H2781 C2796 0.960 . S
H2782 C2796 0.960 . S
H2783 C2796 0.960 . S
C2784 H2776 0.929 . S
C2784 C2785 1.377 . S
C2784 C2786 1.384 . S
C2785 C2784 1.377 . S
C2785 C2791 1.390 . S
C2786 H2777 0.930 1_556 S
C2786 C2784 1.384 . S
C2786 C2787 1.372 . S
C2787 C2786 1.372 . S
C2787 C2788 1.400 . S
C2787 C2792 1.490 . S
C2788 H2778 0.930 . S
C2788 C2787 1.400 . S
C2788 C2791 1.386 . S
H2789 C2805 0.930 1_556 S
H2790 C2806 0.931 . S
C2791 H2779 0.929 . S
C2791 C2785 1.390 . S
C2791 C2788 1.386 . S
C2792 C2787 1.490 . S
C2792 C2794 1.395 1_556 S
C2792 C2795 1.403 1_455 S
H2793 C2799 0.930 1_655 S
C2794 H2780 0.930 . S
C2794 C2792 1.395 1_554 S
C2794 C2797 1.403 . S
C2795 C2792 1.403 1_655 S
C2795 C2796 1.524 . S
C2795 C2799 1.400 1_655 S
C2796 H2781 0.960 . S
C2796 H2782 0.960 . S
C2796 H2783 0.960 . S
C2796 C2795 1.524 . S
C2797 C2794 1.403 . S
C2797 C2798 1.392 . S
C2797 C2801 1.495 . S
C2798 C2797 1.392 . S
C2798 C2799 1.385 1_554 S
C2798 C2800 1.478 . S
C2799 H2793 0.930 1_455 S
C2799 C2795 1.400 1_455 S
C2799 C2798 1.385 1_556 S
C2800 C2798 1.478 . S
C2800 C2802 1.381 . S
C2800 C2806 1.383 1_554 S
C2801 C2797 1.495 . S
C2801 H2807 0.959 . S
C2801 H2808 0.961 . S
C2801 H2809 0.960 . S
C2802 C2800 1.381 . S
C2802 C2803 1.394 . S
C2802 H2810 0.930 . S
C2803 C2802 1.394 . S
C2803 C2804 1.383 . S
C2803 H2811 0.929 . S
C2804 C2803 1.383 . S
C2804 C2805 1.377 . S
C2805 H2789 0.930 1_554 S
C2805 C2804 1.377 . S
C2805 C2806 1.379 1_554 S
C2806 H2790 0.931 . S
C2806 C2800 1.383 1_556 S
C2806 C2805 1.379 1_556 S
H2807 C2801 0.959 . S
H2808 C2801 0.961 . S
H2809 C2801 0.960 . S
H2810 C2802 0.930 . S
H2811 C2803 0.929 . S
H2812 C2820 0.941 . S
H2813 C2822 0.930 . S
H2814 C2824 0.930 . S
H2815 C2827 0.929 . S
H2816 C2830 0.930 . S
H2817 C2832 0.960 . S
H2818 C2832 0.960 . S
H2819 C2832 0.960 . S
C2820 H2812 0.941 . S
C2820 C2821 1.377 . S
C2820 C2822 1.384 . S
C2821 C2820 1.377 . S
C2821 C2827 1.390 . S
C2822 H2813 0.930 . S
C2822 C2820 1.384 . S
C2822 C2823 1.372 . S
C2823 C2822 1.372 . S
C2823 C2824 1.400 . S
C2823 C2828 1.490 . S
C2824 H2814 0.930 . S
C2824 C2823 1.400 . S
C2824 C2827 1.386 . S
H2825 C2841 0.930 . S
H2826 C2842 0.931 . S
C2827 H2815 0.929 . S
C2827 C2821 1.390 . S
C2827 C2824 1.386 . S
C2828 C2823 1.490 . S
C2828 C2830 1.395 . S
C2828 C2831 1.403 . S
H2829 C2835 0.930 . S
C2830 H2816 0.930 . S
C2830 C2828 1.395 . S
C2830 C2833 1.403 . S
C2831 C2828 1.403 . S
C2831 C2832 1.524 . S
C2831 C2835 1.400 . S
C2832 H2817 0.960 . S
C2832 H2818 0.960 . S
C2832 H2819 0.960 . S
C2832 C2831 1.524 . S
C2833 C2830 1.403 . S
C2833 C2834 1.392 . S
C2833 C2837 1.495 . S
C2834 C2833 1.392 . S
C2834 C2835 1.385 . S
C2834 C2836 1.478 . S
C2835 H2829 0.930 . S
C2835 C2831 1.400 . S
C2835 C2834 1.385 . S
C2836 C2834 1.478 . S
C2836 C2838 1.381 . S
C2836 C2842 1.383 . S
C2837 C2833 1.495 . S
C2837 H2843 0.959 . S
C2837 H2844 0.961 . S
C2837 H2845 0.960 . S
C2838 C2836 1.381 . S
C2838 C2839 1.394 . S
C2838 H2846 0.930 . S
C2839 C2838 1.394 . S
C2839 C2840 1.383 . S
C2839 H2847 0.929 . S
C2840 C2839 1.383 . S
C2840 C2841 1.377 . S
C2841 H2825 0.930 . S
C2841 C2840 1.377 . S
C2841 C2842 1.379 . S
C2842 H2826 0.931 . S
C2842 C2836 1.383 . S
C2842 C2841 1.379 . S
H2843 C2837 0.959 . S
H2844 C2837 0.961 . S
H2845 C2837 0.960 . S
H2846 C2838 0.930 . S
H2847 C2839 0.929 . S
H2848 C2856 0.929 . S
H2849 C2858 0.930 . S
H2850 C2860 0.930 . S
H2851 C2863 0.929 . S
H2852 C2866 0.930 . S
H2853 C2868 0.960 . S
H2854 C2868 0.960 . S
H2855 C2868 0.960 . S
C2856 H2848 0.929 . S
C2856 C2857 1.377 . S
C2856 C2858 1.384 . S
C2857 C2856 1.377 . S
C2857 C2863 1.390 . S
C2858 H2849 0.930 . S
C2858 C2856 1.384 . S
C2858 C2859 1.372 . S
C2859 C2858 1.372 . S
C2859 C2860 1.400 . S
C2859 C2864 1.490 . S
C2860 H2850 0.930 . S
C2860 C2859 1.400 . S
C2860 C2863 1.386 . S
H2861 C2877 0.930 . S
H2862 C2878 0.931 . S
C2863 H2851 0.929 . S
C2863 C2857 1.390 . S
C2863 C2860 1.386 . S
C2864 C2859 1.490 . S
C2864 C2866 1.395 . S
C2864 C2867 1.403 . S
H2865 C2871 0.930 . S
C2866 H2852 0.930 . S
C2866 C2864 1.395 . S
C2866 C2869 1.403 . S
C2867 C2864 1.403 . S
C2867 C2868 1.524 . S
C2867 C2871 1.400 . S
C2868 H2853 0.960 . S
C2868 H2854 0.960 . S
C2868 H2855 0.960 . S
C2868 C2867 1.524 . S
C2869 C2866 1.403 . S
C2869 C2870 1.392 . S
C2869 C2873 1.495 . S
C2870 C2869 1.392 . S
C2870 C2871 1.385 . S
C2870 C2872 1.478 . S
C2871 H2865 0.930 . S
C2871 C2867 1.400 . S
C2871 C2870 1.385 . S
C2872 C2870 1.478 . S
C2872 C2874 1.381 . S
C2872 C2878 1.383 . S
C2873 C2869 1.495 . S
C2873 H2879 0.959 . S
C2873 H2880 0.961 . S
C2873 H2881 0.960 . S
C2874 C2872 1.381 . S
C2874 C2875 1.394 . S
C2874 H2882 0.930 . S
C2875 C2874 1.394 . S
C2875 C2876 1.383 . S
C2875 H2883 0.929 . S
C2876 C2875 1.383 . S
C2876 C2877 1.377 . S
C2877 H2861 0.930 . S
C2877 C2876 1.377 . S
C2877 C2878 1.379 . S
C2878 H2862 0.931 . S
C2878 C2872 1.383 . S
C2878 C2877 1.379 . S
H2879 C2873 0.959 . S
H2880 C2873 0.961 . S
H2881 C2873 0.960 . S
H2882 C2874 0.930 . S
H2883 C2875 0.929 . S
H2884 C2892 0.929 . S
H2885 C2894 0.930 . S
H2886 C2896 0.930 . S
H2887 C2899 0.929 . S
H2888 C2902 0.930 . S
H2889 C2904 0.960 . S
H2890 C2904 0.960 . S
H2891 C2904 0.960 . S
C2892 H2884 0.929 . S
C2892 C2893 1.377 . S
C2892 C2894 1.384 . S
C2893 C2892 1.377 . S
C2893 C2899 1.390 . S
C2894 H2885 0.930 . S
C2894 C2892 1.384 . S
C2894 C2895 1.372 . S
C2895 C2894 1.372 . S
C2895 C2896 1.400 . S
C2895 C2900 1.490 . S
C2896 H2886 0.930 . S
C2896 C2895 1.400 . S
C2896 C2899 1.386 . S
H2897 C2913 0.930 . S
H2898 C2914 0.931 . S
C2899 H2887 0.929 . S
C2899 C2893 1.390 . S
C2899 C2896 1.386 . S
C2900 C2895 1.490 . S
C2900 C2902 1.395 . S
C2900 C2903 1.403 . S
H2901 C2907 0.930 . S
C2902 H2888 0.930 . S
C2902 C2900 1.395 . S
C2902 C2905 1.403 . S
C2903 C2900 1.403 . S
C2903 C2904 1.524 . S
C2903 C2907 1.400 . S
C2904 H2889 0.960 . S
C2904 H2890 0.960 . S
C2904 H2891 0.960 . S
C2904 C2903 1.524 . S
C2905 C2902 1.403 . S
C2905 C2906 1.392 . S
C2905 C2909 1.495 . S
C2906 C2905 1.392 . S
C2906 C2907 1.385 . S
C2906 C2908 1.478 . S
C2907 H2901 0.930 . S
C2907 C2903 1.400 . S
C2907 C2906 1.385 . S
C2908 C2906 1.478 . S
C2908 C2910 1.381 . S
C2908 C2914 1.383 . S
C2909 C2905 1.495 . S
C2909 H2915 0.959 . S
C2909 H2916 0.961 . S
C2909 H2917 0.960 . S
C2910 C2908 1.381 . S
C2910 C2911 1.394 . S
C2910 H2918 0.930 . S
C2911 C2910 1.394 . S
C2911 C2912 1.383 . S
C2911 H2919 0.929 . S
C2912 C2911 1.383 . S
C2912 C2913 1.377 . S
C2913 H2897 0.930 . S
C2913 C2912 1.377 . S
C2913 C2914 1.379 . S
C2914 H2898 0.931 . S
C2914 C2908 1.383 . S
C2914 C2913 1.379 . S
H2915 C2909 0.959 . S
H2916 C2909 0.961 . S
H2917 C2909 0.960 . S
H2918 C2910 0.930 . S
H2919 C2911 0.929 . S
H2920 C2928 0.929 . S
H2921 C2930 0.930 . S
H2922 C2932 0.930 . S
H2923 C2935 0.929 . S
H2924 C2938 0.930 . S
H2925 C2940 0.960 . S
H2926 C2940 0.960 . S
H2927 C2940 0.960 . S
C2928 H2920 0.929 . S
C2928 C2929 1.377 . S
C2928 C2930 1.384 . S
C2929 C2928 1.377 . S
C2929 C2935 1.390 . S
C2930 H2921 0.930 . S
C2930 C2928 1.384 . S
C2930 C2931 1.372 . S
C2931 C2930 1.372 . S
C2931 C2932 1.400 . S
C2931 C2936 1.490 . S
C2932 H2922 0.930 . S
C2932 C2931 1.400 . S
C2932 C2935 1.386 . S
H2933 C2949 0.930 . S
H2934 C2950 0.931 . S
C2935 H2923 0.929 . S
C2935 C2929 1.390 . S
C2935 C2932 1.386 . S
C2936 C2931 1.490 . S
C2936 C2938 1.395 . S
C2936 C2939 1.403 . S
H2937 C2943 0.930 1_655 S
C2938 H2924 0.930 . S
C2938 C2936 1.395 . S
C2938 C2941 1.403 . S
C2939 C2936 1.403 . S
C2939 C2940 1.524 1_455 S
C2939 C2943 1.400 . S
C2940 H2925 0.960 . S
C2940 H2926 0.960 . S
C2940 H2927 0.960 . S
C2940 C2939 1.524 1_655 S
C2941 C2938 1.403 . S
C2941 C2942 1.392 . S
C2941 C2945 1.495 . S
C2942 C2941 1.392 . S
C2942 C2943 1.385 . S
C2942 C2944 1.478 . S
C2943 H2937 0.930 1_455 S
C2943 C2939 1.400 . S
C2943 C2942 1.385 . S
C2944 C2942 1.478 . S
C2944 C2946 1.381 . S
C2944 C2950 1.383 . S
C2945 C2941 1.495 . S
C2945 H2951 0.959 . S
C2945 H2952 0.961 . S
C2945 H2953 0.960 . S
C2946 C2944 1.381 . S
C2946 C2947 1.394 . S
C2946 H2954 0.930 . S
C2947 C2946 1.394 . S
C2947 C2948 1.383 . S
C2947 H2955 0.929 . S
C2948 C2947 1.383 . S
C2948 C2949 1.377 . S
C2949 H2933 0.930 . S
C2949 C2948 1.377 . S
C2949 C2950 1.379 . S
C2950 H2934 0.931 . S
C2950 C2944 1.383 . S
C2950 C2949 1.379 . S
H2951 C2945 0.959 . S
H2952 C2945 0.961 . S
H2953 C2945 0.960 . S
H2954 C2946 0.930 . S
H2955 C2947 0.929 . S
H2956 C2964 0.929 . S
H2957 C2966 0.930 . S
H2958 C2968 0.930 . S
H2959 C2971 0.929 . S
H2960 C2974 0.930 . S
H2961 C2976 0.960 . S
H2962 C2976 0.960 . S
H2963 C2976 0.960 . S
C2964 H2956 0.929 . S
C2964 C2965 1.377 . S
C2964 C2966 1.384 . S
C2965 C2964 1.377 . S
C2965 C2971 1.390 . S
C2966 H2957 0.930 . S
C2966 C2964 1.384 . S
C2966 C2967 1.372 . S
C2967 C2966 1.372 . S
C2967 C2968 1.400 . S
C2967 C2972 1.490 . S
C2968 H2958 0.930 . S
C2968 C2967 1.400 . S
C2968 C2971 1.386 . S
H2969 C2985 0.930 . S
H2970 C2986 0.931 . S
C2971 H2959 0.929 . S
C2971 C2965 1.390 . S
C2971 C2968 1.386 . S
C2972 C2967 1.490 . S
C2972 C2974 1.395 . S
C2972 C2975 1.403 . S
H2973 C2979 0.930 . S
C2974 H2960 0.930 . S
C2974 C2972 1.395 . S
C2974 C2977 1.403 . S
C2975 C2972 1.403 . S
C2975 C2976 1.524 . S
C2975 C2979 1.400 . S
C2976 H2961 0.960 . S
C2976 H2962 0.960 . S
C2976 H2963 0.960 . S
C2976 C2975 1.524 . S
C2977 C2974 1.403 . S
C2977 C2978 1.392 . S
C2977 C2981 1.495 . S
C2978 C2977 1.392 . S
C2978 C2979 1.385 . S
C2978 C2980 1.478 . S
C2979 H2973 0.930 . S
C2979 C2975 1.400 . S
C2979 C2978 1.385 . S
C2980 C2978 1.478 . S
C2980 C2982 1.381 . S
C2980 C2986 1.383 . S
C2981 C2977 1.495 . S
C2981 H2987 0.959 . S
C2981 H2988 0.961 . S
C2981 H2989 0.960 . S
C2982 C2980 1.381 . S
C2982 C2983 1.394 . S
C2982 H2990 0.930 . S
C2983 C2982 1.394 . S
C2983 C2984 1.383 . S
C2983 H2991 0.929 . S
C2984 C2983 1.383 . S
C2984 C2985 1.377 . S
C2985 H2969 0.930 . S
C2985 C2984 1.377 . S
C2985 C2986 1.379 . S
C2986 H2970 0.931 . S
C2986 C2980 1.383 . S
C2986 C2985 1.379 . S
H2987 C2981 0.959 . S
H2988 C2981 0.961 . S
H2989 C2981 0.960 . S
H2990 C2982 0.930 . S
H2991 C2983 0.929 . S
H2992 C3000 0.929 . S
H2993 C3002 0.930 . S
H2994 C3004 0.930 . S
H2995 C3007 0.929 . S
H2996 C3010 0.930 . S
H2997 C3012 0.960 . S
H2998 C3012 0.960 . S
H2999 C3012 0.960 . S
C3000 H2992 0.929 . S
C3000 C3001 1.377 . S
C3000 C3002 1.384 . S
C3001 C3000 1.377 . S
C3001 C3007 1.390 . S
C3002 H2993 0.930 . S
C3002 C3000 1.384 . S
C3002 C3003 1.372 . S
C3003 C3002 1.372 . S
C3003 C3004 1.400 . S
C3003 C3008 1.490 . S
C3004 H2994 0.930 . S
C3004 C3003 1.400 . S
C3004 C3007 1.386 . S
H3005 C3021 0.930 . S
H3006 C3022 0.931 . S
C3007 H2995 0.929 . S
C3007 C3001 1.390 . S
C3007 C3004 1.386 . S
C3008 C3003 1.490 . S
C3008 C3010 1.395 . S
C3008 C3011 1.403 . S
H3009 C3015 0.930 . S
C3010 H2996 0.930 . S
C3010 C3008 1.395 . S
C3010 C3013 1.403 . S
C3011 C3008 1.403 . S
C3011 C3012 1.524 . S
C3011 C3015 1.400 . S
C3012 H2997 0.960 . S
C3012 H2998 0.960 . S
C3012 H2999 0.960 . S
C3012 C3011 1.524 . S
C3013 C3010 1.403 . S
C3013 C3014 1.392 . S
C3013 C3017 1.495 . S
C3014 C3013 1.392 . S
C3014 C3015 1.385 . S
C3014 C3016 1.478 . S
C3015 H3009 0.930 . S
C3015 C3011 1.400 . S
C3015 C3014 1.385 . S
C3016 C3014 1.478 . S
C3016 C3018 1.381 . S
C3016 C3022 1.383 . S
C3017 C3013 1.495 . S
C3017 H3023 0.959 . S
C3017 H3024 0.961 . S
C3017 H3025 0.960 . S
C3018 C3016 1.381 . S
C3018 C3019 1.394 . S
C3018 H3026 0.930 . S
C3019 C3018 1.394 . S
C3019 C3020 1.383 . S
C3019 H3027 0.929 . S
C3020 C3019 1.383 . S
C3020 C3021 1.377 . S
C3021 H3005 0.930 . S
C3021 C3020 1.377 . S
C3021 C3022 1.379 . S
C3022 H3006 0.931 . S
C3022 C3016 1.383 . S
C3022 C3021 1.379 . S
H3023 C3017 0.959 . S
H3024 C3017 0.961 . S
H3025 C3017 0.960 . S
H3026 C3018 0.930 . S
H3027 C3019 0.929 . S
H3028 C3036 0.932 . S
H3029 C3038 0.930 . S
H3030 C3040 0.930 . S
H3031 C3043 0.929 . S
H3032 C3046 0.930 . S
H3033 C3048 0.960 . S
H3034 C3048 0.960 . S
H3035 C3048 0.960 . S
C3036 H3028 0.932 . S
C3036 C3037 1.377 1_556 S
C3036 C3038 1.384 . S
C3037 C3036 1.377 1_554 S
C3037 C3043 1.390 . S
C3038 H3029 0.930 . S
C3038 C3036 1.384 . S
C3038 C3039 1.372 . S
C3039 C3038 1.372 . S
C3039 C3040 1.400 . S
C3039 C3044 1.490 . S
C3040 H3030 0.930 . S
C3040 C3039 1.400 . S
C3040 C3043 1.386 1_556 S
H3041 C3057 0.930 . S
H3042 C3058 0.931 . S
C3043 H3031 0.929 . S
C3043 C3037 1.390 . S
C3043 C3040 1.386 1_554 S
C3044 C3039 1.490 . S
C3044 C3046 1.395 . S
C3044 C3047 1.403 . S
H3045 C3051 0.930 . S
C3046 H3032 0.930 . S
C3046 C3044 1.395 . S
C3046 C3049 1.403 . S
C3047 C3044 1.403 . S
C3047 C3048 1.524 . S
C3047 C3051 1.400 . S
C3048 H3033 0.960 . S
C3048 H3034 0.960 . S
C3048 H3035 0.960 . S
C3048 C3047 1.524 . S
C3049 C3046 1.403 . S
C3049 C3050 1.392 . S
C3049 C3053 1.495 . S
C3050 C3049 1.392 . S
C3050 C3051 1.385 . S
C3050 C3052 1.478 . S
C3051 H3045 0.930 . S
C3051 C3047 1.400 . S
C3051 C3050 1.385 . S
C3052 C3050 1.478 . S
C3052 C3054 1.381 . S
C3052 C3058 1.383 . S
C3053 C3049 1.495 . S
C3053 H3059 0.959 . S
C3053 H3060 0.961 . S
C3053 H3061 0.960 . S
C3054 C3052 1.381 . S
C3054 C3055 1.394 . S
C3054 H3062 0.930 . S
C3055 C3054 1.394 . S
C3055 C3056 1.383 . S
C3055 H3063 0.929 . S
C3056 C3055 1.383 . S
C3056 C3057 1.377 . S
C3057 H3041 0.930 . S
C3057 C3056 1.377 . S
C3057 C3058 1.379 . S
C3058 H3042 0.931 . S
C3058 C3052 1.383 . S
C3058 C3057 1.379 . S
H3059 C3053 0.959 . S
H3060 C3053 0.961 . S
H3061 C3053 0.960 . S
H3062 C3054 0.930 . S
H3063 C3055 0.929 . S
H3064 C3072 0.929 . S
H3065 C3074 0.930 . S
H3066 C3076 0.930 . S
H3067 C3079 0.929 . S
H3068 C3082 0.930 . S
H3069 C3084 0.960 . S
H3070 C3084 0.960 . S
H3071 C3084 0.960 . S
C3072 H3064 0.929 . S
C3072 C3073 1.377 . S
C3072 C3074 1.384 . S
C3073 C3072 1.377 . S
C3073 C3079 1.390 . S
C3074 H3065 0.930 . S
C3074 C3072 1.384 . S
C3074 C3075 1.372 . S
C3075 C3074 1.372 . S
C3075 C3076 1.400 . S
C3075 C3080 1.490 . S
C3076 H3066 0.930 . S
C3076 C3075 1.400 . S
C3076 C3079 1.386 . S
H3077 C3093 0.930 . S
H3078 C3094 0.931 . S
C3079 H3067 0.929 . S
C3079 C3073 1.390 . S
C3079 C3076 1.386 . S
C3080 C3075 1.490 . S
C3080 C3082 1.395 . S
C3080 C3083 1.403 . S
H3081 C3087 0.930 . S
C3082 H3068 0.930 . S
C3082 C3080 1.395 . S
C3082 C3085 1.403 . S
C3083 C3080 1.403 . S
C3083 C3084 1.524 . S
C3083 C3087 1.400 . S
C3084 H3069 0.960 . S
C3084 H3070 0.960 . S
C3084 H3071 0.960 . S
C3084 C3083 1.524 . S
C3085 C3082 1.403 . S
C3085 C3086 1.392 . S
C3085 C3089 1.495 . S
C3086 C3085 1.392 . S
C3086 C3087 1.385 . S
C3086 C3088 1.478 . S
C3087 H3081 0.930 . S
C3087 C3083 1.400 . S
C3087 C3086 1.385 . S
C3088 C3086 1.478 . S
C3088 C3090 1.381 . S
C3088 C3094 1.383 . S
C3089 C3085 1.495 . S
C3089 H3095 0.959 . S
C3089 H3096 0.961 . S
C3089 H3097 0.960 . S
C3090 C3088 1.381 . S
C3090 C3091 1.394 . S
C3090 H3098 0.930 . S
C3091 C3090 1.394 . S
C3091 C3092 1.383 . S
C3091 H3099 0.929 . S
C3092 C3091 1.383 . S
C3092 C3093 1.377 . S
C3093 H3077 0.930 . S
C3093 C3092 1.377 . S
C3093 C3094 1.379 . S
C3094 H3078 0.931 . S
C3094 C3088 1.383 . S
C3094 C3093 1.379 . S
H3095 C3089 0.959 . S
H3096 C3089 0.961 . S
H3097 C3089 0.960 . S
H3098 C3090 0.930 . S
H3099 C3091 0.929 . S
H3100 C3108 0.929 . S
H3101 C3110 0.930 . S
H3102 C3112 0.930 . S
H3103 C3115 0.929 . S
H3104 C3118 0.930 . S
H3105 C3120 0.960 . S
H3106 C3120 0.960 . S
H3107 C3120 0.960 . S
C3108 H3100 0.929 . S
C3108 C3109 1.377 . S
C3108 C3110 1.384 . S
C3109 C3108 1.377 . S
C3109 C3115 1.390 . S
C3110 H3101 0.930 . S
C3110 C3108 1.384 . S
C3110 C3111 1.372 . S
C3111 C3110 1.372 . S
C3111 C3112 1.400 . S
C3111 C3116 1.490 . S
C3112 H3102 0.930 . S
C3112 C3111 1.400 . S
C3112 C3115 1.386 . S
H3113 C3129 0.930 . S
H3114 C3130 0.931 . S
C3115 H3103 0.929 . S
C3115 C3109 1.390 . S
C3115 C3112 1.386 . S
C3116 C3111 1.490 . S
C3116 C3118 1.395 . S
C3116 C3119 1.403 . S
H3117 C3123 0.930 . S
C3118 H3104 0.930 . S
C3118 C3116 1.395 . S
C3118 C3121 1.403 . S
C3119 C3116 1.403 . S
C3119 C3120 1.524 . S
C3119 C3123 1.400 . S
C3120 H3105 0.960 . S
C3120 H3106 0.960 . S
C3120 H3107 0.960 . S
C3120 C3119 1.524 . S
C3121 C3118 1.403 . S
C3121 C3122 1.392 . S
C3121 C3125 1.495 . S
C3122 C3121 1.392 . S
C3122 C3123 1.385 . S
C3122 C3124 1.478 . S
C3123 H3117 0.930 . S
C3123 C3119 1.400 . S
C3123 C3122 1.385 . S
C3124 C3122 1.478 . S
C3124 C3126 1.381 . S
C3124 C3130 1.383 . S
C3125 C3121 1.495 . S
C3125 H3131 0.959 . S
C3125 H3132 0.961 . S
C3125 H3133 0.960 . S
C3126 C3124 1.381 . S
C3126 C3127 1.394 . S
C3126 H3134 0.930 . S
C3127 C3126 1.394 . S
C3127 C3128 1.383 . S
C3127 H3135 0.929 . S
C3128 C3127 1.383 . S
C3128 C3129 1.377 . S
C3129 H3113 0.930 . S
C3129 C3128 1.377 . S
C3129 C3130 1.379 . S
C3130 H3114 0.931 . S
C3130 C3124 1.383 . S
C3130 C3129 1.379 . S
H3131 C3125 0.959 . S
H3132 C3125 0.961 . S
H3133 C3125 0.960 . S
H3134 C3126 0.930 . S
H3135 C3127 0.929 . S
H3136 C3144 0.929 . S
H3137 C3146 0.930 . S
H3138 C3148 0.930 . S
H3139 C3151 0.929 . S
H3140 C3154 0.930 . S
H3141 C3156 0.960 . S
H3142 C3156 0.960 . S
H3143 C3156 0.960 . S
C3144 H3136 0.929 . S
C3144 C3145 1.377 . S
C3144 C3146 1.384 . S
C3145 C3144 1.377 . S
C3145 C3151 1.390 . S
C3146 H3137 0.930 . S
C3146 C3144 1.384 . S
C3146 C3147 1.372 . S
C3147 C3146 1.372 . S
C3147 C3148 1.400 . S
C3147 C3152 1.490 . S
C3148 H3138 0.930 . S
C3148 C3147 1.400 . S
C3148 C3151 1.386 . S
H3149 C3165 0.930 . S
H3150 C3166 0.931 . S
C3151 H3139 0.929 . S
C3151 C3145 1.390 . S
C3151 C3148 1.386 . S
C3152 C3147 1.490 . S
C3152 C3154 1.395 . S
C3152 C3155 1.403 . S
H3153 C3159 0.930 . S
C3154 H3140 0.930 . S
C3154 C3152 1.395 . S
C3154 C3157 1.403 . S
C3155 C3152 1.403 . S
C3155 C3156 1.524 . S
C3155 C3159 1.400 . S
C3156 H3141 0.960 . S
C3156 H3142 0.960 . S
C3156 H3143 0.960 . S
C3156 C3155 1.524 . S
C3157 C3154 1.403 . S
C3157 C3158 1.392 . S
C3157 C3161 1.495 . S
C3158 C3157 1.392 . S
C3158 C3159 1.385 . S
C3158 C3160 1.478 . S
C3159 H3153 0.930 . S
C3159 C3155 1.400 . S
C3159 C3158 1.385 . S
C3160 C3158 1.478 . S
C3160 C3162 1.381 . S
C3160 C3166 1.383 . S
C3161 C3157 1.495 . S
C3161 H3167 0.959 . S
C3161 H3168 0.961 . S
C3161 H3169 0.960 . S
C3162 C3160 1.381 . S
C3162 C3163 1.394 . S
C3162 H3170 0.930 . S
C3163 C3162 1.394 . S
C3163 C3164 1.383 . S
C3163 H3171 0.929 . S
C3164 C3163 1.383 . S
C3164 C3165 1.377 . S
C3165 H3149 0.930 . S
C3165 C3164 1.377 . S
C3165 C3166 1.379 . S
C3166 H3150 0.931 . S
C3166 C3160 1.383 . S
C3166 C3165 1.379 . S
H3167 C3161 0.959 . S
H3168 C3161 0.961 . S
H3169 C3161 0.960 . S
H3170 C3162 0.930 . S
H3171 C3163 0.929 . S
H3172 C3180 0.929 . S
H3173 C3182 0.930 . S
H3174 C3184 0.930 . S
H3175 C3187 0.929 . S
H3176 C3190 0.930 . S
H3177 C3192 0.960 . S
H3178 C3192 0.960 . S
H3179 C3192 0.960 . S
C3180 H3172 0.929 . S
C3180 C3181 1.377 . S
C3180 C3182 1.384 . S
C3181 C3180 1.377 . S
C3181 C3187 1.390 . S
C3182 H3173 0.930 . S
C3182 C3180 1.384 . S
C3182 C3183 1.372 . S
C3183 C3182 1.372 . S
C3183 C3184 1.400 . S
C3183 C3188 1.490 . S
C3184 H3174 0.930 . S
C3184 C3183 1.400 . S
C3184 C3187 1.386 . S
H3185 C3201 0.930 . S
H3186 C3202 0.931 . S
C3187 H3175 0.929 . S
C3187 C3181 1.390 . S
C3187 C3184 1.386 . S
C3188 C3183 1.490 . S
C3188 C3190 1.395 . S
C3188 C3191 1.403 . S
H3189 C3195 0.930 . S
C3190 H3176 0.930 . S
C3190 C3188 1.395 . S
C3190 C3193 1.403 . S
C3191 C3188 1.403 . S
C3191 C3192 1.524 . S
C3191 C3195 1.400 . S
C3192 H3177 0.960 . S
C3192 H3178 0.960 . S
C3192 H3179 0.960 . S
C3192 C3191 1.524 . S
C3193 C3190 1.403 . S
C3193 C3194 1.392 . S
C3193 C3197 1.495 . S
C3194 C3193 1.392 . S
C3194 C3195 1.385 . S
C3194 C3196 1.478 . S
C3195 H3189 0.930 . S
C3195 C3191 1.400 . S
C3195 C3194 1.385 . S
C3196 C3194 1.478 . S
C3196 C3198 1.381 . S
C3196 C3202 1.383 . S
C3197 C3193 1.495 . S
C3197 H3203 0.959 . S
C3197 H3204 0.961 . S
C3197 H3205 0.960 . S
C3198 C3196 1.381 . S
C3198 C3199 1.394 . S
C3198 H3206 0.930 . S
C3199 C3198 1.394 . S
C3199 C3200 1.383 . S
C3199 H3207 0.929 . S
C3200 C3199 1.383 . S
C3200 C3201 1.377 . S
C3201 H3185 0.930 . S
C3201 C3200 1.377 . S
C3201 C3202 1.379 . S
C3202 H3186 0.931 . S
C3202 C3196 1.383 . S
C3202 C3201 1.379 . S
H3203 C3197 0.959 . S
H3204 C3197 0.961 . S
H3205 C3197 0.960 . S
H3206 C3198 0.930 . S
H3207 C3199 0.929 . S
H3208 C3216 0.929 . S
H3209 C3218 0.930 . S
H3210 C3220 0.930 . S
H3211 C3223 0.929 . S
H3212 C3226 0.930 . S
H3213 C3228 0.960 . S
H3214 C3228 0.960 . S
H3215 C3228 0.960 . S
C3216 H3208 0.929 . S
C3216 C3217 1.377 . S
C3216 C3218 1.384 . S
C3217 C3216 1.377 . S
C3217 C3223 1.390 . S
C3218 H3209 0.930 . S
C3218 C3216 1.384 . S
C3218 C3219 1.372 . S
C3219 C3218 1.372 . S
C3219 C3220 1.400 . S
C3219 C3224 1.490 . S
C3220 H3210 0.930 . S
C3220 C3219 1.400 . S
C3220 C3223 1.386 . S
H3221 C3237 0.930 . S
H3222 C3238 0.931 . S
C3223 H3211 0.929 . S
C3223 C3217 1.390 . S
C3223 C3220 1.386 . S
C3224 C3219 1.490 . S
C3224 C3226 1.395 . S
C3224 C3227 1.403 . S
H3225 C3231 0.930 . S
C3226 H3212 0.930 . S
C3226 C3224 1.395 . S
C3226 C3229 1.403 . S
C3227 C3224 1.403 . S
C3227 C3228 1.524 . S
C3227 C3231 1.400 . S
C3228 H3213 0.960 . S
C3228 H3214 0.960 . S
C3228 H3215 0.960 . S
C3228 C3227 1.524 . S
C3229 C3226 1.403 . S
C3229 C3230 1.392 . S
C3229 C3233 1.495 . S
C3230 C3229 1.392 . S
C3230 C3231 1.385 . S
C3230 C3232 1.478 . S
C3231 H3225 0.930 . S
C3231 C3227 1.400 . S
C3231 C3230 1.385 . S
C3232 C3230 1.478 . S
C3232 C3234 1.381 . S
C3232 C3238 1.383 . S
C3233 C3229 1.495 . S
C3233 H3239 0.959 . S
C3233 H3240 0.961 . S
C3233 H3241 0.960 . S
C3234 C3232 1.381 . S
C3234 C3235 1.394 . S
C3234 H3242 0.930 . S
C3235 C3234 1.394 . S
C3235 C3236 1.383 . S
C3235 H3243 0.929 . S
C3236 C3235 1.383 . S
C3236 C3237 1.377 . S
C3237 H3221 0.930 . S
C3237 C3236 1.377 . S
C3237 C3238 1.379 . S
C3238 H3222 0.931 . S
C3238 C3232 1.383 . S
C3238 C3237 1.379 . S
H3239 C3233 0.959 . S
H3240 C3233 0.961 . S
H3241 C3233 0.960 . S
H3242 C3234 0.930 . S
H3243 C3235 0.929 . S
H3244 C3252 0.929 . S
H3245 C3254 0.930 . S
H3246 C3256 0.930 . S
H3247 C3259 0.929 . S
H3248 C3262 0.930 . S
H3249 C3264 0.960 . S
H3250 C3264 0.960 . S
H3251 C3264 0.960 . S
C3252 H3244 0.929 . S
C3252 C3253 1.377 . S
C3252 C3254 1.384 . S
C3253 C3252 1.377 . S
C3253 C3259 1.390 . S
C3254 H3245 0.930 . S
C3254 C3252 1.384 . S
C3254 C3255 1.372 . S
C3255 C3254 1.372 . S
C3255 C3256 1.400 . S
C3255 C3260 1.490 . S
C3256 H3246 0.930 . S
C3256 C3255 1.400 . S
C3256 C3259 1.386 . S
H3257 C3273 0.930 . S
H3258 C3274 0.931 . S
C3259 H3247 0.929 . S
C3259 C3253 1.390 . S
C3259 C3256 1.386 . S
C3260 C3255 1.490 . S
C3260 C3262 1.395 . S
C3260 C3263 1.403 . S
H3261 C3267 0.930 . S
C3262 H3248 0.930 . S
C3262 C3260 1.395 . S
C3262 C3265 1.403 . S
C3263 C3260 1.403 . S
C3263 C3264 1.524 . S
C3263 C3267 1.400 . S
C3264 H3249 0.960 . S
C3264 H3250 0.960 . S
C3264 H3251 0.960 . S
C3264 C3263 1.524 . S
C3265 C3262 1.403 . S
C3265 C3266 1.392 . S
C3265 C3269 1.495 . S
C3266 C3265 1.392 . S
C3266 C3267 1.385 . S
C3266 C3268 1.478 . S
C3267 H3261 0.930 . S
C3267 C3263 1.400 . S
C3267 C3266 1.385 . S
C3268 C3266 1.478 . S
C3268 C3270 1.381 . S
C3268 C3274 1.383 . S
C3269 C3265 1.495 . S
C3269 H3275 0.959 . S
C3269 H3276 0.961 . S
C3269 H3277 0.960 . S
C3270 C3268 1.381 . S
C3270 C3271 1.394 . S
C3270 H3278 0.930 . S
C3271 C3270 1.394 . S
C3271 C3272 1.383 . S
C3271 H3279 0.929 . S
C3272 C3271 1.383 . S
C3272 C3273 1.377 . S
C3273 H3257 0.930 . S
C3273 C3272 1.377 . S
C3273 C3274 1.379 . S
C3274 H3258 0.931 . S
C3274 C3268 1.383 . S
C3274 C3273 1.379 . S
H3275 C3269 0.959 . S
H3276 C3269 0.961 . S
H3277 C3269 0.960 . S
H3278 C3270 0.930 . S
H3279 C3271 0.929 . S
H3280 C3288 0.929 . S
H3281 C3290 0.930 . S
H3282 C3292 0.930 . S
H3283 C3295 0.929 . S
H3284 C3298 0.930 . S
H3285 C3300 0.960 . S
H3286 C3300 0.960 . S
H3287 C3300 0.960 . S
C3288 H3280 0.929 . S
C3288 C3289 1.377 . S
C3288 C3290 1.384 . S
C3289 C3288 1.377 . S
C3289 C3295 1.390 . S
C3290 H3281 0.930 . S
C3290 C3288 1.384 . S
C3290 C3291 1.372 . S
C3291 C3290 1.372 . S
C3291 C3292 1.400 . S
C3291 C3296 1.490 . S
C3292 H3282 0.930 . S
C3292 C3291 1.400 . S
C3292 C3295 1.386 . S
H3293 C3309 0.930 . S
H3294 C3310 0.931 . S
C3295 H3283 0.929 . S
C3295 C3289 1.390 . S
C3295 C3292 1.386 . S
C3296 C3291 1.490 . S
C3296 C3298 1.395 . S
C3296 C3299 1.403 . S
H3297 C3303 0.930 . S
C3298 H3284 0.930 . S
C3298 C3296 1.395 . S
C3298 C3301 1.403 . S
C3299 C3296 1.403 . S
C3299 C3300 1.524 . S
C3299 C3303 1.400 . S
C3300 H3285 0.960 . S
C3300 H3286 0.960 . S
C3300 H3287 0.960 . S
C3300 C3299 1.524 . S
C3301 C3298 1.403 . S
C3301 C3302 1.392 . S
C3301 C3305 1.495 . S
C3302 C3301 1.392 . S
C3302 C3303 1.385 . S
C3302 C3304 1.478 . S
C3303 H3297 0.930 . S
C3303 C3299 1.400 . S
C3303 C3302 1.385 . S
C3304 C3302 1.478 . S
C3304 C3306 1.381 . S
C3304 C3310 1.383 . S
C3305 C3301 1.495 . S
C3305 H3311 0.959 . S
C3305 H3312 0.961 . S
C3305 H3313 0.960 . S
C3306 C3304 1.381 . S
C3306 C3307 1.394 . S
C3306 H3314 0.930 . S
C3307 C3306 1.394 . S
C3307 C3308 1.383 . S
C3307 H3315 0.929 . S
C3308 C3307 1.383 . S
C3308 C3309 1.377 . S
C3309 H3293 0.930 . S
C3309 C3308 1.377 . S
C3309 C3310 1.379 . S
C3310 H3294 0.931 . S
C3310 C3304 1.383 . S
C3310 C3309 1.379 . S
H3311 C3305 0.959 . S
H3312 C3305 0.961 . S
H3313 C3305 0.960 . S
H3314 C3306 0.930 . S
H3315 C3307 0.929 . S
H3316 C3324 0.929 . S
H3317 C3326 0.930 . S
H3318 C3328 0.930 . S
H3319 C3331 0.929 . S
H3320 C3334 0.930 . S
H3321 C3336 0.960 . S
H3322 C3336 0.960 . S
H3323 C3336 0.960 . S
C3324 H3316 0.929 . S
C3324 C3325 1.377 . S
C3324 C3326 1.384 . S
C3325 C3324 1.377 . S
C3325 C3331 1.390 . S
C3326 H3317 0.930 . S
C3326 C3324 1.384 . S
C3326 C3327 1.372 . S
C3327 C3326 1.372 . S
C3327 C3328 1.400 . S
C3327 C3332 1.490 . S
C3328 H3318 0.930 . S
C3328 C3327 1.400 . S
C3328 C3331 1.386 . S
H3329 C3345 0.930 . S
H3330 C3346 0.931 . S
C3331 H3319 0.929 . S
C3331 C3325 1.390 . S
C3331 C3328 1.386 . S
C3332 C3327 1.490 . S
C3332 C3334 1.395 . S
C3332 C3335 1.403 . S
H3333 C3339 0.930 . S
C3334 H3320 0.930 . S
C3334 C3332 1.395 . S
C3334 C3337 1.403 . S
C3335 C3332 1.403 . S
C3335 C3336 1.524 . S
C3335 C3339 1.400 . S
C3336 H3321 0.960 . S
C3336 H3322 0.960 . S
C3336 H3323 0.960 . S
C3336 C3335 1.524 . S
C3337 C3334 1.403 . S
C3337 C3338 1.392 . S
C3337 C3341 1.495 . S
C3338 C3337 1.392 . S
C3338 C3339 1.385 . S
C3338 C3340 1.478 . S
C3339 H3333 0.930 . S
C3339 C3335 1.400 . S
C3339 C3338 1.385 . S
C3340 C3338 1.478 . S
C3340 C3342 1.381 . S
C3340 C3346 1.383 . S
C3341 C3337 1.495 . S
C3341 H3347 0.959 . S
C3341 H3348 0.961 . S
C3341 H3349 0.960 . S
C3342 C3340 1.381 . S
C3342 C3343 1.394 . S
C3342 H3350 0.930 . S
C3343 C3342 1.394 . S
C3343 C3344 1.383 . S
C3343 H3351 0.929 . S
C3344 C3343 1.383 . S
C3344 C3345 1.377 . S
C3345 H3329 0.930 . S
C3345 C3344 1.377 . S
C3345 C3346 1.379 . S
C3346 H3330 0.931 . S
C3346 C3340 1.383 . S
C3346 C3345 1.379 . S
H3347 C3341 0.959 . S
H3348 C3341 0.961 . S
H3349 C3341 0.960 . S
H3350 C3342 0.930 . S
H3351 C3343 0.929 . S
H3352 C3360 0.929 . S
H3353 C3362 0.930 . S
H3354 C3364 0.930 . S
H3355 C3367 0.929 . S
H3356 C3370 0.930 . S
H3357 C3372 0.960 . S
H3358 C3372 0.960 . S
H3359 C3372 0.960 . S
C3360 H3352 0.929 . S
C3360 C3361 1.377 . S
C3360 C3362 1.384 . S
C3361 C3360 1.377 . S
C3361 C3367 1.390 . S
C3362 H3353 0.930 . S
C3362 C3360 1.384 . S
C3362 C3363 1.372 . S
C3363 C3362 1.372 . S
C3363 C3364 1.400 . S
C3363 C3368 1.490 . S
C3364 H3354 0.930 . S
C3364 C3363 1.400 . S
C3364 C3367 1.386 . S
H3365 C3381 0.930 . S
H3366 C3382 0.931 . S
C3367 H3355 0.929 . S
C3367 C3361 1.390 . S
C3367 C3364 1.386 . S
C3368 C3363 1.490 . S
C3368 C3370 1.395 . S
C3368 C3371 1.403 . S
H3369 C3375 0.930 . S
C3370 H3356 0.930 . S
C3370 C3368 1.395 . S
C3370 C3373 1.403 . S
C3371 C3368 1.403 . S
C3371 C3372 1.524 . S
C3371 C3375 1.400 . S
C3372 H3357 0.960 . S
C3372 H3358 0.960 . S
C3372 H3359 0.960 . S
C3372 C3371 1.524 . S
C3373 C3370 1.403 . S
C3373 C3374 1.392 . S
C3373 C3377 1.495 . S
C3374 C3373 1.392 . S
C3374 C3375 1.385 . S
C3374 C3376 1.478 . S
C3375 H3369 0.930 . S
C3375 C3371 1.400 . S
C3375 C3374 1.385 . S
C3376 C3374 1.478 . S
C3376 C3378 1.381 . S
C3376 C3382 1.383 . S
C3377 C3373 1.495 . S
C3377 H3383 0.959 . S
C3377 H3384 0.961 . S
C3377 H3385 0.960 . S
C3378 C3376 1.381 . S
C3378 C3379 1.394 . S
C3378 H3386 0.930 . S
C3379 C3378 1.394 . S
C3379 C3380 1.383 . S
C3379 H3387 0.929 . S
C3380 C3379 1.383 . S
C3380 C3381 1.377 . S
C3381 H3365 0.930 . S
C3381 C3380 1.377 . S
C3381 C3382 1.379 . S
C3382 H3366 0.931 . S
C3382 C3376 1.383 . S
C3382 C3381 1.379 . S
H3383 C3377 0.959 . S
H3384 C3377 0.961 . S
H3385 C3377 0.960 . S
H3386 C3378 0.930 . S
H3387 C3379 0.929 . S
H3388 C3396 0.929 . S
H3389 C3398 0.930 . S
H3390 C3400 0.921 1_556 S
H3391 C3403 0.929 . S
H3392 C3406 0.930 1_556 S
H3393 C3408 0.996 . S
H3394 C3408 0.960 . S
H3395 C3408 0.960 . S
C3396 H3388 0.929 . S
C3396 C3397 1.377 . S
C3396 C3398 1.384 . S
C3397 C3396 1.377 . S
C3397 C3403 1.390 1_554 S
C3398 H3389 0.930 . S
C3398 C3396 1.384 . S
C3398 C3399 1.372 . S
C3399 C3398 1.372 . S
C3399 C3400 1.408 . S
C3399 C3404 1.490 . S
C3400 H3390 0.921 1_554 S
C3400 C3399 1.408 . S
C3400 C3403 1.387 1_554 S
H3401 C3417 0.930 . S
H3402 C3418 0.921 1_556 S
C3403 H3391 0.929 . S
C3403 C3397 1.390 1_556 S
C3403 C3400 1.387 1_556 S
C3404 C3399 1.490 . S
C3404 C3406 1.395 . S
C3404 C3407 1.403 . S
H3405 C3411 0.925 . S
C3406 H3392 0.930 1_554 S
C3406 C3404 1.395 . S
C3406 C3409 1.403 . S
C3407 C3404 1.403 . S
C3407 C3408 1.524 . S
C3407 C3411 1.400 . S
C3408 H3393 0.996 . S
C3408 H3394 0.960 . S
C3408 H3395 0.960 . S
C3408 C3407 1.524 . S
C3409 C3406 1.403 . S
C3409 C3410 1.392 . S
C3409 C3413 1.495 1_554 S
C3410 C3409 1.392 . S
C3410 C3411 1.385 . S
C3410 C3412 1.478 . S
C3411 H3405 0.925 . S
C3411 C3407 1.400 . S
C3411 C3410 1.385 . S
C3412 C3410 1.478 . S
C3412 C3414 1.381 . S
C3412 C3418 1.383 1_565 S
C3413 C3409 1.495 1_556 S
C3413 H3419 0.959 . S
C3413 H3420 0.961 . S
C3413 H3421 0.938 1_556 S
C3414 C3412 1.381 . S
C3414 C3415 1.396 . S
C3414 H3422 0.930 . S
C3415 C3414 1.396 . S
C3415 C3416 1.380 1_565 S
C3415 H3423 0.931 . S
C3416 C3415 1.380 1_545 S
C3416 C3417 1.377 . S
C3417 H3401 0.930 . S
C3417 C3416 1.377 . S
C3417 C3418 1.379 . S
C3418 H3402 0.921 1_554 S
C3418 C3412 1.383 1_545 S
C3418 C3417 1.379 . S
H3419 C3413 0.959 . S
H3420 C3413 0.961 . S
H3421 C3413 0.938 1_554 S
H3422 C3414 0.930 . S
H3423 C3415 0.931 . S
H3424 C3432 0.929 . S
H3425 C3434 0.930 . S
H3426 C3436 0.930 . S
H3427 C3439 0.929 . S
H3428 C3442 0.930 . S
H3429 C3444 0.960 . S
H3430 C3444 0.960 . S
H3431 C3444 0.960 . S
C3432 H3424 0.929 . S
C3432 C3433 1.377 . S
C3432 C3434 1.384 . S
C3433 C3432 1.377 . S
C3433 C3439 1.390 . S
C3434 H3425 0.930 . S
C3434 C3432 1.384 . S
C3434 C3435 1.372 . S
C3435 C3434 1.372 . S
C3435 C3436 1.400 . S
C3435 C3440 1.490 . S
C3436 H3426 0.930 . S
C3436 C3435 1.400 . S
C3436 C3439 1.386 . S
H3437 C3453 0.930 . S
H3438 C3454 0.931 . S
C3439 H3427 0.929 . S
C3439 C3433 1.390 . S
C3439 C3436 1.386 . S
C3440 C3435 1.490 . S
C3440 C3442 1.395 . S
C3440 C3443 1.403 . S
H3441 C3447 0.930 . S
C3442 H3428 0.930 . S
C3442 C3440 1.395 . S
C3442 C3445 1.403 . S
C3443 C3440 1.403 . S
C3443 C3444 1.524 . S
C3443 C3447 1.400 . S
C3444 H3429 0.960 . S
C3444 H3430 0.960 . S
C3444 H3431 0.960 . S
C3444 C3443 1.524 . S
C3445 C3442 1.403 . S
C3445 C3446 1.392 . S
C3445 C3449 1.495 . S
C3446 C3445 1.392 . S
C3446 C3447 1.385 . S
C3446 C3448 1.478 . S
C3447 H3441 0.930 . S
C3447 C3443 1.400 . S
C3447 C3446 1.385 . S
C3448 C3446 1.478 . S
C3448 C3450 1.381 . S
C3448 C3454 1.383 . S
C3449 C3445 1.495 . S
C3449 H3455 0.959 . S
C3449 H3456 0.961 . S
C3449 H3457 0.960 . S
C3450 C3448 1.381 . S
C3450 C3451 1.394 . S
C3450 H3458 0.930 . S
C3451 C3450 1.394 . S
C3451 C3452 1.383 . S
C3451 H3459 0.929 . S
C3452 C3451 1.383 . S
C3452 C3453 1.377 . S
C3453 H3437 0.930 . S
C3453 C3452 1.377 . S
C3453 C3454 1.379 . S
C3454 H3438 0.931 . S
C3454 C3448 1.383 . S
C3454 C3453 1.379 . S
H3455 C3449 0.959 . S
H3456 C3449 0.961 . S
H3457 C3449 0.960 . S
H3458 C3450 0.930 . S
H3459 C3451 0.929 . S
H3460 C3468 0.929 . S
H3461 C3470 0.930 . S
H3462 C3472 0.930 . S
H3463 C3475 0.929 . S
H3464 C3478 0.930 . S
H3465 C3480 0.960 . S
H3466 C3480 0.960 . S
H3467 C3480 0.960 . S
C3468 H3460 0.929 . S
C3468 C3469 1.377 . S
C3468 C3470 1.384 . S
C3469 C3468 1.377 . S
C3469 C3475 1.390 . S
C3470 H3461 0.930 . S
C3470 C3468 1.384 . S
C3470 C3471 1.372 . S
C3471 C3470 1.372 . S
C3471 C3472 1.400 . S
C3471 C3476 1.490 . S
C3472 H3462 0.930 . S
C3472 C3471 1.400 . S
C3472 C3475 1.386 . S
H3473 C3489 0.930 . S
H3474 C3490 0.931 . S
C3475 H3463 0.929 . S
C3475 C3469 1.390 . S
C3475 C3472 1.386 . S
C3476 C3471 1.490 . S
C3476 C3478 1.395 . S
C3476 C3479 1.403 . S
H3477 C3483 0.930 . S
C3478 H3464 0.930 . S
C3478 C3476 1.395 . S
C3478 C3481 1.403 . S
C3479 C3476 1.403 . S
C3479 C3480 1.524 . S
C3479 C3483 1.400 . S
C3480 H3465 0.960 . S
C3480 H3466 0.960 . S
C3480 H3467 0.960 . S
C3480 C3479 1.524 . S
C3481 C3478 1.403 . S
C3481 C3482 1.392 . S
C3481 C3485 1.495 . S
C3482 C3481 1.392 . S
C3482 C3483 1.385 . S
C3482 C3484 1.478 . S
C3483 H3477 0.930 . S
C3483 C3479 1.400 . S
C3483 C3482 1.385 . S
C3484 C3482 1.478 . S
C3484 C3486 1.381 . S
C3484 C3490 1.383 . S
C3485 C3481 1.495 . S
C3485 H3491 0.959 1_554 S
C3485 H3492 0.952 1_554 S
C3485 H3493 0.960 . S
C3486 C3484 1.381 . S
C3486 C3487 1.394 . S
C3486 H3494 0.930 . S
C3487 C3486 1.394 . S
C3487 C3488 1.383 . S
C3487 H3495 0.929 . S
C3488 C3487 1.383 . S
C3488 C3489 1.377 . S
C3489 H3473 0.930 . S
C3489 C3488 1.377 . S
C3489 C3490 1.379 . S
C3490 H3474 0.931 . S
C3490 C3484 1.383 . S
C3490 C3489 1.379 . S
H3491 C3485 0.959 1_556 S
H3492 C3485 0.952 1_556 S
H3493 C3485 0.960 . S
H3494 C3486 0.930 . S
H3495 C3487 0.929 . S
H3496 C3504 0.929 . S
H3497 C3506 0.930 . S
H3498 C3508 0.930 . S
H3499 C3511 0.929 . S
H3500 C3514 0.930 . S
H3501 C3516 0.960 . S
H3502 C3516 0.960 . S
H3503 C3516 0.960 . S
C3504 H3496 0.929 . S
C3504 C3505 1.377 . S
C3504 C3506 1.384 . S
C3505 C3504 1.377 . S
C3505 C3511 1.390 . S
C3506 H3497 0.930 . S
C3506 C3504 1.384 . S
C3506 C3507 1.372 . S
C3507 C3506 1.372 . S
C3507 C3508 1.400 . S
C3507 C3512 1.490 . S
C3508 H3498 0.930 . S
C3508 C3507 1.400 . S
C3508 C3511 1.386 . S
H3509 C3525 0.930 . S
H3510 C3526 0.931 . S
C3511 H3499 0.929 . S
C3511 C3505 1.390 . S
C3511 C3508 1.386 . S
C3512 C3507 1.490 . S
C3512 C3514 1.395 . S
C3512 C3515 1.403 . S
H3513 C3519 0.930 . S
C3514 H3500 0.930 . S
C3514 C3512 1.395 . S
C3514 C3517 1.403 . S
C3515 C3512 1.403 . S
C3515 C3516 1.524 . S
C3515 C3519 1.400 . S
C3516 H3501 0.960 . S
C3516 H3502 0.960 . S
C3516 H3503 0.960 . S
C3516 C3515 1.524 . S
C3517 C3514 1.403 . S
C3517 C3518 1.392 . S
C3517 C3521 1.495 . S
C3518 C3517 1.392 . S
C3518 C3519 1.385 . S
C3518 C3520 1.478 . S
C3519 H3513 0.930 . S
C3519 C3515 1.400 . S
C3519 C3518 1.385 . S
C3520 C3518 1.478 . S
C3520 C3522 1.381 . S
C3520 C3526 1.383 . S
C3521 C3517 1.495 . S
C3521 H3527 0.959 . S
C3521 H3528 0.961 . S
C3521 H3529 0.960 . S
C3522 C3520 1.381 . S
C3522 C3523 1.394 . S
C3522 H3530 0.930 . S
C3523 C3522 1.394 . S
C3523 C3524 1.383 . S
C3523 H3531 0.929 . S
C3524 C3523 1.383 . S
C3524 C3525 1.377 . S
C3525 H3509 0.930 . S
C3525 C3524 1.377 . S
C3525 C3526 1.379 . S
C3526 H3510 0.931 . S
C3526 C3520 1.383 . S
C3526 C3525 1.379 . S
H3527 C3521 0.959 . S
H3528 C3521 0.961 . S
H3529 C3521 0.960 . S
H3530 C3522 0.930 . S
H3531 C3523 0.929 . S
H3532 C3540 0.929 . S
H3533 C3542 0.930 . S
H3534 C3544 0.930 . S
H3535 C3547 0.929 . S
H3536 C3550 0.930 . S
H3537 C3552 0.960 . S
H3538 C3552 0.960 . S
H3539 C3552 0.960 . S
C3540 H3532 0.929 . S
C3540 C3541 1.377 . S
C3540 C3542 1.384 . S
C3541 C3540 1.377 . S
C3541 C3547 1.390 . S
C3542 H3533 0.930 . S
C3542 C3540 1.384 . S
C3542 C3543 1.372 . S
C3543 C3542 1.372 . S
C3543 C3544 1.400 . S
C3543 C3548 1.490 . S
C3544 H3534 0.930 . S
C3544 C3543 1.400 . S
C3544 C3547 1.386 . S
H3545 C3561 0.930 . S
H3546 C3562 0.931 . S
C3547 H3535 0.929 . S
C3547 C3541 1.390 . S
C3547 C3544 1.386 . S
C3548 C3543 1.490 . S
C3548 C3550 1.395 . S
C3548 C3551 1.403 . S
H3549 C3555 0.930 . S
C3550 H3536 0.930 . S
C3550 C3548 1.395 . S
C3550 C3553 1.403 . S
C3551 C3548 1.403 . S
C3551 C3552 1.524 . S
C3551 C3555 1.400 . S
C3552 H3537 0.960 . S
C3552 H3538 0.960 . S
C3552 H3539 0.960 . S
C3552 C3551 1.524 . S
C3553 C3550 1.403 . S
C3553 C3554 1.392 . S
C3553 C3557 1.495 . S
C3554 C3553 1.392 . S
C3554 C3555 1.385 . S
C3554 C3556 1.478 . S
C3555 H3549 0.930 . S
C3555 C3551 1.400 . S
C3555 C3554 1.385 . S
C3556 C3554 1.478 . S
C3556 C3558 1.381 . S
C3556 C3562 1.383 . S
C3557 C3553 1.495 . S
C3557 H3563 0.959 . S
C3557 H3564 0.961 . S
C3557 H3565 0.960 . S
C3558 C3556 1.381 . S
C3558 C3559 1.394 . S
C3558 H3566 0.930 . S
C3559 C3558 1.394 . S
C3559 C3560 1.383 . S
C3559 H3567 0.929 . S
C3560 C3559 1.383 . S
C3560 C3561 1.377 . S
C3561 H3545 0.930 . S
C3561 C3560 1.377 . S
C3561 C3562 1.379 . S
C3562 H3546 0.931 . S
C3562 C3556 1.383 . S
C3562 C3561 1.379 . S
H3563 C3557 0.959 . S
H3564 C3557 0.961 . S
H3565 C3557 0.960 . S
H3566 C3558 0.930 . S
H3567 C3559 0.929 . S
H3568 C3576 0.929 . S
H3569 C3578 0.930 . S
H3570 C3580 0.930 . S
H3571 C3583 0.929 . S
H3572 C3586 0.930 . S
H3573 C3588 0.960 . S
H3574 C3588 0.960 . S
H3575 C3588 0.960 . S
C3576 H3568 0.929 . S
C3576 C3577 1.377 . S
C3576 C3578 1.384 . S
C3577 C3576 1.377 . S
C3577 C3583 1.390 . S
C3578 H3569 0.930 . S
C3578 C3576 1.384 . S
C3578 C3579 1.372 . S
C3579 C3578 1.372 . S
C3579 C3580 1.400 . S
C3579 C3584 1.490 . S
C3580 H3570 0.930 . S
C3580 C3579 1.400 . S
C3580 C3583 1.386 . S
H3581 C3597 0.930 . S
H3582 C3598 0.931 . S
C3583 H3571 0.929 . S
C3583 C3577 1.390 . S
C3583 C3580 1.386 . S
C3584 C3579 1.490 . S
C3584 C3586 1.395 . S
C3584 C3587 1.403 . S
H3585 C3591 0.930 . S
C3586 H3572 0.930 . S
C3586 C3584 1.395 . S
C3586 C3589 1.403 . S
C3587 C3584 1.403 . S
C3587 C3588 1.524 . S
C3587 C3591 1.400 . S
C3588 H3573 0.960 . S
C3588 H3574 0.960 . S
C3588 H3575 0.960 . S
C3588 C3587 1.524 . S
C3589 C3586 1.403 . S
C3589 C3590 1.392 . S
C3589 C3593 1.495 . S
C3590 C3589 1.392 . S
C3590 C3591 1.385 . S
C3590 C3592 1.478 . S
C3591 H3585 0.930 . S
C3591 C3587 1.400 . S
C3591 C3590 1.385 . S
C3592 C3590 1.478 . S
C3592 C3594 1.381 . S
C3592 C3598 1.383 . S
C3593 C3589 1.495 . S
C3593 H3599 0.959 . S
C3593 H3600 0.961 . S
C3593 H3601 0.960 . S
C3594 C3592 1.381 . S
C3594 C3595 1.394 . S
C3594 H3602 0.930 . S
C3595 C3594 1.394 . S
C3595 C3596 1.383 . S
C3595 H3603 0.929 . S
C3596 C3595 1.383 . S
C3596 C3597 1.377 . S
C3597 H3581 0.930 . S
C3597 C3596 1.377 . S
C3597 C3598 1.379 . S
C3598 H3582 0.931 . S
C3598 C3592 1.383 . S
C3598 C3597 1.379 . S
H3599 C3593 0.959 . S
H3600 C3593 0.961 . S
H3601 C3593 0.960 . S
H3602 C3594 0.930 . S
H3603 C3595 0.929 . S
H3604 C3612 0.929 . S
H3605 C3614 0.930 . S
H3606 C3616 0.930 . S
H3607 C3619 0.929 . S
H3608 C3622 0.930 . S
H3609 C3624 0.960 . S
H3610 C3624 0.960 . S
H3611 C3624 0.960 . S
C3612 H3604 0.929 . S
C3612 C3613 1.377 . S
C3612 C3614 1.384 . S
C3613 C3612 1.377 . S
C3613 C3619 1.390 . S
C3614 H3605 0.930 . S
C3614 C3612 1.384 . S
C3614 C3615 1.372 . S
C3615 C3614 1.372 . S
C3615 C3616 1.400 . S
C3615 C3620 1.490 . S
C3616 H3606 0.930 . S
C3616 C3615 1.400 . S
C3616 C3619 1.386 . S
H3617 C3633 0.930 . S
H3618 C3634 0.931 . S
C3619 H3607 0.929 . S
C3619 C3613 1.390 . S
C3619 C3616 1.386 . S
C3620 C3615 1.490 . S
C3620 C3622 1.395 . S
C3620 C3623 1.403 . S
H3621 C3627 0.930 . S
C3622 H3608 0.930 . S
C3622 C3620 1.395 . S
C3622 C3625 1.403 . S
C3623 C3620 1.403 . S
C3623 C3624 1.524 . S
C3623 C3627 1.400 . S
C3624 H3609 0.960 . S
C3624 H3610 0.960 . S
C3624 H3611 0.960 . S
C3624 C3623 1.524 . S
C3625 C3622 1.403 . S
C3625 C3626 1.392 . S
C3625 C3629 1.495 . S
C3626 C3625 1.392 . S
C3626 C3627 1.385 . S
C3626 C3628 1.478 . S
C3627 H3621 0.930 . S
C3627 C3623 1.400 . S
C3627 C3626 1.385 . S
C3628 C3626 1.478 . S
C3628 C3630 1.381 . S
C3628 C3634 1.383 . S
C3629 C3625 1.495 . S
C3629 H3635 0.959 . S
C3629 H3636 0.961 . S
C3629 H3637 0.960 . S
C3630 C3628 1.381 . S
C3630 C3631 1.394 . S
C3630 H3638 0.930 . S
C3631 C3630 1.394 . S
C3631 C3632 1.383 . S
C3631 H3639 0.929 . S
C3632 C3631 1.383 . S
C3632 C3633 1.377 . S
C3633 H3617 0.930 . S
C3633 C3632 1.377 . S
C3633 C3634 1.379 . S
C3634 H3618 0.931 . S
C3634 C3628 1.383 . S
C3634 C3633 1.379 . S
H3635 C3629 0.959 . S
H3636 C3629 0.961 . S
H3637 C3629 0.960 . S
H3638 C3630 0.930 . S
H3639 C3631 0.929 . S
H3640 C3648 0.929 . S
H3641 C3650 0.930 . S
H3642 C3652 0.930 . S
H3643 C3655 0.929 . S
H3644 C3658 0.930 . S
H3645 C3660 0.960 . S
H3646 C3660 0.960 . S
H3647 C3660 0.960 . S
C3648 H3640 0.929 . S
C3648 C3649 1.377 . S
C3648 C3650 1.384 . S
C3649 C3648 1.377 . S
C3649 C3655 1.390 . S
C3650 H3641 0.930 . S
C3650 C3648 1.384 . S
C3650 C3651 1.372 . S
C3651 C3650 1.372 . S
C3651 C3652 1.400 . S
C3651 C3656 1.490 . S
C3652 H3642 0.930 . S
C3652 C3651 1.400 . S
C3652 C3655 1.386 . S
H3653 C3669 0.930 . S
H3654 C3670 0.931 . S
C3655 H3643 0.929 . S
C3655 C3649 1.390 . S
C3655 C3652 1.386 . S
C3656 C3651 1.490 . S
C3656 C3658 1.395 . S
C3656 C3659 1.403 . S
H3657 C3663 0.930 . S
C3658 H3644 0.930 . S
C3658 C3656 1.395 . S
C3658 C3661 1.403 . S
C3659 C3656 1.403 . S
C3659 C3660 1.524 . S
C3659 C3663 1.400 . S
C3660 H3645 0.960 . S
C3660 H3646 0.960 . S
C3660 H3647 0.960 . S
C3660 C3659 1.524 . S
C3661 C3658 1.403 . S
C3661 C3662 1.392 . S
C3661 C3665 1.495 . S
C3662 C3661 1.392 . S
C3662 C3663 1.385 . S
C3662 C3664 1.478 . S
C3663 H3657 0.930 . S
C3663 C3659 1.400 . S
C3663 C3662 1.385 . S
C3664 C3662 1.478 . S
C3664 C3666 1.381 . S
C3664 C3670 1.383 . S
C3665 C3661 1.495 . S
C3665 H3671 0.959 . S
C3665 H3672 0.961 . S
C3665 H3673 1.002 . S
C3666 C3664 1.381 . S
C3666 C3667 1.394 . S
C3666 H3674 0.930 . S
C3667 C3666 1.394 . S
C3667 C3668 1.383 . S
C3667 H3675 0.929 . S
C3668 C3667 1.383 . S
C3668 C3669 1.377 . S
C3669 H3653 0.930 . S
C3669 C3668 1.377 . S
C3669 C3670 1.379 . S
C3670 H3654 0.931 . S
C3670 C3664 1.383 . S
C3670 C3669 1.379 . S
H3671 C3665 0.959 . S
H3672 C3665 0.961 . S
H3673 C3665 1.002 . S
H3674 C3666 0.930 . S
H3675 C3667 0.929 . S
H3676 C3684 0.929 . S
H3677 C3686 0.930 . S
H3678 C3688 0.930 . S
H3679 C3691 0.929 . S
H3680 C3694 0.930 . S
H3681 C3696 0.960 . S
H3682 C3696 0.960 . S
H3683 C3696 0.960 . S
C3684 H3676 0.929 . S
C3684 C3685 1.377 . S
C3684 C3686 1.384 . S
C3685 C3684 1.377 . S
C3685 C3691 1.390 . S
C3686 H3677 0.930 . S
C3686 C3684 1.384 . S
C3686 C3687 1.372 . S
C3687 C3686 1.372 . S
C3687 C3688 1.400 . S
C3687 C3692 1.490 . S
C3688 H3678 0.930 . S
C3688 C3687 1.400 . S
C3688 C3691 1.386 . S
H3689 C3705 0.930 . S
H3690 C3706 0.931 . S
C3691 H3679 0.929 . S
C3691 C3685 1.390 . S
C3691 C3688 1.386 . S
C3692 C3687 1.490 . S
C3692 C3694 1.395 . S
C3692 C3695 1.403 . S
H3693 C3699 0.930 . S
C3694 H3680 0.930 . S
C3694 C3692 1.395 . S
C3694 C3697 1.403 . S
C3695 C3692 1.403 . S
C3695 C3696 1.524 . S
C3695 C3699 1.400 . S
C3696 H3681 0.960 . S
C3696 H3682 0.960 . S
C3696 H3683 0.960 . S
C3696 C3695 1.524 . S
C3697 C3694 1.403 . S
C3697 C3698 1.392 . S
C3697 C3701 1.495 . S
C3698 C3697 1.392 . S
C3698 C3699 1.385 . S
C3698 C3700 1.478 . S
C3699 H3693 0.930 . S
C3699 C3695 1.400 . S
C3699 C3698 1.385 . S
C3700 C3698 1.478 . S
C3700 C3702 1.381 . S
C3700 C3706 1.383 . S
C3701 C3697 1.495 . S
C3701 H3707 0.959 . S
C3701 H3708 0.961 . S
C3701 H3709 0.960 . S
C3702 C3700 1.381 . S
C3702 C3703 1.394 . S
C3702 H3710 0.930 . S
C3703 C3702 1.394 . S
C3703 C3704 1.383 . S
C3703 H3711 0.929 . S
C3704 C3703 1.383 . S
C3704 C3705 1.377 . S
C3705 H3689 0.930 . S
C3705 C3704 1.377 . S
C3705 C3706 1.379 . S
C3706 H3690 0.931 . S
C3706 C3700 1.383 . S
C3706 C3705 1.379 . S
H3707 C3701 0.959 . S
H3708 C3701 0.961 . S
H3709 C3701 0.960 . S
H3710 C3702 0.930 . S
H3711 C3703 0.929 . S
H3712 C3720 0.929 . S
H3713 C3722 0.930 . S
H3714 C3724 0.930 . S
H3715 C3727 0.929 . S
H3716 C3730 0.930 . S
H3717 C3732 0.960 . S
H3718 C3732 0.960 . S
H3719 C3732 0.960 . S
C3720 H3712 0.929 . S
C3720 C3721 1.377 . S
C3720 C3722 1.384 . S
C3721 C3720 1.377 . S
C3721 C3727 1.390 . S
C3722 H3713 0.930 . S
C3722 C3720 1.384 . S
C3722 C3723 1.372 . S
C3723 C3722 1.372 . S
C3723 C3724 1.400 . S
C3723 C3728 1.490 . S
C3724 H3714 0.930 . S
C3724 C3723 1.400 . S
C3724 C3727 1.386 . S
H3725 C3741 0.930 . S
H3726 C3742 0.931 . S
C3727 H3715 0.929 . S
C3727 C3721 1.390 . S
C3727 C3724 1.386 . S
C3728 C3723 1.490 . S
C3728 C3730 1.395 . S
C3728 C3731 1.403 . S
H3729 C3735 0.930 . S
C3730 H3716 0.930 . S
C3730 C3728 1.395 . S
C3730 C3733 1.403 . S
C3731 C3728 1.403 . S
C3731 C3732 1.524 . S
C3731 C3735 1.400 . S
C3732 H3717 0.960 . S
C3732 H3718 0.960 . S
C3732 H3719 0.960 . S
C3732 C3731 1.524 . S
C3733 C3730 1.403 . S
C3733 C3734 1.392 . S
C3733 C3737 1.495 . S
C3734 C3733 1.392 . S
C3734 C3735 1.385 . S
C3734 C3736 1.478 . S
C3735 H3729 0.930 . S
C3735 C3731 1.400 . S
C3735 C3734 1.385 . S
C3736 C3734 1.478 . S
C3736 C3738 1.381 . S
C3736 C3742 1.383 . S
C3737 C3733 1.495 . S
C3737 H3743 0.959 . S
C3737 H3744 0.961 . S
C3737 H3745 0.960 . S
C3738 C3736 1.381 . S
C3738 C3739 1.394 . S
C3738 H3746 0.930 . S
C3739 C3738 1.394 . S
C3739 C3740 1.383 . S
C3739 H3747 0.929 . S
C3740 C3739 1.383 . S
C3740 C3741 1.377 . S
C3741 H3725 0.930 . S
C3741 C3740 1.377 . S
C3741 C3742 1.379 . S
C3742 H3726 0.931 . S
C3742 C3736 1.383 . S
C3742 C3741 1.379 . S
H3743 C3737 0.959 . S
H3744 C3737 0.961 . S
H3745 C3737 0.960 . S
H3746 C3738 0.930 . S
H3747 C3739 0.929 . S
H3748 C3756 0.929 . S
H3749 C3758 0.930 . S
H3750 C3760 0.930 . S
H3751 C3763 0.929 . S
H3752 C3766 0.930 . S
H3753 C3768 0.960 . S
H3754 C3768 0.960 . S
H3755 C3768 0.960 . S
C3756 H3748 0.929 . S
C3756 C3757 1.377 . S
C3756 C3758 1.384 . S
C3757 C3756 1.377 . S
C3757 C3763 1.390 . S
C3758 H3749 0.930 . S
C3758 C3756 1.384 . S
C3758 C3759 1.372 . S
C3759 C3758 1.372 . S
C3759 C3760 1.400 . S
C3759 C3764 1.490 . S
C3760 H3750 0.930 . S
C3760 C3759 1.400 . S
C3760 C3763 1.386 . S
H3761 C3777 0.930 . S
H3762 C3778 0.931 . S
C3763 H3751 0.929 . S
C3763 C3757 1.390 . S
C3763 C3760 1.386 . S
C3764 C3759 1.490 . S
C3764 C3766 1.395 . S
C3764 C3767 1.403 . S
H3765 C3771 0.930 . S
C3766 H3752 0.930 . S
C3766 C3764 1.395 . S
C3766 C3769 1.403 . S
C3767 C3764 1.403 . S
C3767 C3768 1.524 . S
C3767 C3771 1.400 . S
C3768 H3753 0.960 . S
C3768 H3754 0.960 . S
C3768 H3755 0.960 . S
C3768 C3767 1.524 . S
C3769 C3766 1.403 . S
C3769 C3770 1.392 . S
C3769 C3773 1.495 . S
C3770 C3769 1.392 . S
C3770 C3771 1.385 . S
C3770 C3772 1.478 . S
C3771 H3765 0.930 . S
C3771 C3767 1.400 . S
C3771 C3770 1.385 . S
C3772 C3770 1.478 . S
C3772 C3774 1.381 . S
C3772 C3778 1.383 . S
C3773 C3769 1.495 . S
C3773 H3779 0.959 . S
C3773 H3780 0.961 . S
C3773 H3781 0.960 . S
C3774 C3772 1.381 . S
C3774 C3775 1.394 . S
C3774 H3782 0.930 . S
C3775 C3774 1.394 . S
C3775 C3776 1.383 . S
C3775 H3783 0.929 . S
C3776 C3775 1.383 . S
C3776 C3777 1.377 . S
C3777 H3761 0.930 . S
C3777 C3776 1.377 . S
C3777 C3778 1.379 . S
C3778 H3762 0.931 . S
C3778 C3772 1.383 . S
C3778 C3777 1.379 . S
H3779 C3773 0.959 . S
H3780 C3773 0.961 . S
H3781 C3773 0.960 . S
H3782 C3774 0.930 . S
H3783 C3775 0.929 . S
H3784 C3792 0.929 . S
H3785 C3794 0.930 . S
H3786 C3796 0.930 . S
H3787 C3799 0.929 . S
H3788 C3802 0.930 . S
H3789 C3804 0.960 . S
H3790 C3804 0.960 . S
H3791 C3804 0.960 . S
C3792 H3784 0.929 . S
C3792 C3793 1.377 . S
C3792 C3794 1.384 . S
C3793 C3792 1.377 . S
C3793 C3799 1.390 . S
C3794 H3785 0.930 . S
C3794 C3792 1.384 . S
C3794 C3795 1.372 . S
C3795 C3794 1.372 . S
C3795 C3796 1.400 . S
C3795 C3800 1.490 . S
C3796 H3786 0.930 . S
C3796 C3795 1.400 . S
C3796 C3799 1.386 . S
H3797 C3813 0.930 . S
H3798 C3814 0.931 . S
C3799 H3787 0.929 . S
C3799 C3793 1.390 . S
C3799 C3796 1.386 . S
C3800 C3795 1.490 . S
C3800 C3802 1.395 . S
C3800 C3803 1.403 . S
H3801 C3807 0.930 . S
C3802 H3788 0.930 . S
C3802 C3800 1.395 . S
C3802 C3805 1.403 . S
C3803 C3800 1.403 . S
C3803 C3804 1.524 . S
C3803 C3807 1.400 . S
C3804 H3789 0.960 . S
C3804 H3790 0.960 . S
C3804 H3791 0.960 . S
C3804 C3803 1.524 . S
C3805 C3802 1.403 . S
C3805 C3806 1.392 . S
C3805 C3809 1.495 . S
C3806 C3805 1.392 . S
C3806 C3807 1.385 . S
C3806 C3808 1.478 . S
C3807 H3801 0.930 . S
C3807 C3803 1.400 . S
C3807 C3806 1.385 . S
C3808 C3806 1.478 . S
C3808 C3810 1.381 . S
C3808 C3814 1.383 . S
C3809 C3805 1.495 . S
C3809 H3815 0.959 . S
C3809 H3816 0.961 . S
C3809 H3817 0.960 . S
C3810 C3808 1.381 . S
C3810 C3811 1.394 . S
C3810 H3818 0.930 . S
C3811 C3810 1.394 . S
C3811 C3812 1.383 . S
C3811 H3819 0.929 . S
C3812 C3811 1.383 . S
C3812 C3813 1.377 . S
C3813 H3797 0.930 . S
C3813 C3812 1.377 . S
C3813 C3814 1.379 . S
C3814 H3798 0.931 . S
C3814 C3808 1.383 . S
C3814 C3813 1.379 . S
H3815 C3809 0.959 . S
H3816 C3809 0.961 . S
H3817 C3809 0.960 . S
H3818 C3810 0.930 . S
H3819 C3811 0.929 . S
H3820 C3828 0.929 . S
H3821 C3830 0.930 . S
H3822 C3832 0.930 . S
H3823 C3835 0.929 . S
H3824 C3838 0.930 . S
H3825 C3840 0.960 . S
H3826 C3840 0.960 . S
H3827 C3840 0.960 . S
C3828 H3820 0.929 . S
C3828 C3829 1.377 . S
C3828 C3830 1.384 . S
C3829 C3828 1.377 . S
C3829 C3835 1.390 . S
C3830 H3821 0.930 . S
C3830 C3828 1.384 . S
C3830 C3831 1.372 . S
C3831 C3830 1.372 . S
C3831 C3832 1.400 . S
C3831 C3836 1.490 . S
C3832 H3822 0.930 . S
C3832 C3831 1.400 . S
C3832 C3835 1.386 . S
H3833 C3849 0.930 . S
H3834 C3850 0.931 . S
C3835 H3823 0.929 . S
C3835 C3829 1.390 . S
C3835 C3832 1.386 . S
C3836 C3831 1.490 . S
C3836 C3838 1.395 . S
C3836 C3839 1.403 . S
H3837 C3843 0.930 . S
C3838 H3824 0.930 . S
C3838 C3836 1.395 . S
C3838 C3841 1.403 . S
C3839 C3836 1.403 . S
C3839 C3840 1.524 . S
C3839 C3843 1.400 . S
C3840 H3825 0.960 . S
C3840 H3826 0.960 . S
C3840 H3827 0.960 . S
C3840 C3839 1.524 . S
C3841 C3838 1.403 . S
C3841 C3842 1.392 . S
C3841 C3845 1.495 . S
C3842 C3841 1.392 . S
C3842 C3843 1.385 . S
C3842 C3844 1.478 . S
C3843 H3837 0.930 . S
C3843 C3839 1.400 . S
C3843 C3842 1.385 . S
C3844 C3842 1.478 . S
C3844 C3846 1.381 . S
C3844 C3850 1.383 . S
C3845 C3841 1.495 . S
C3845 H3851 0.959 . S
C3845 H3852 0.961 . S
C3845 H3853 0.960 . S
C3846 C3844 1.381 . S
C3846 C3847 1.394 . S
C3846 H3854 0.930 . S
C3847 C3846 1.394 . S
C3847 C3848 1.383 . S
C3847 H3855 0.929 . S
C3848 C3847 1.383 . S
C3848 C3849 1.377 . S
C3849 H3833 0.930 . S
C3849 C3848 1.377 . S
C3849 C3850 1.379 . S
C3850 H3834 0.931 . S
C3850 C3844 1.383 . S
C3850 C3849 1.379 . S
H3851 C3845 0.959 . S
H3852 C3845 0.961 . S
H3853 C3845 0.960 . S
H3854 C3846 0.930 . S
H3855 C3847 0.929 . S
H3856 C3864 0.929 . S
H3857 C3866 0.930 . S
H3858 C3868 0.930 . S
H3859 C3871 0.929 . S
H3860 C3874 0.930 . S
H3861 C3876 0.960 . S
H3862 C3876 0.960 . S
H3863 C3876 0.960 . S
C3864 H3856 0.929 . S
C3864 C3865 1.377 . S
C3864 C3866 1.384 . S
C3865 C3864 1.377 . S
C3865 C3871 1.390 . S
C3866 H3857 0.930 . S
C3866 C3864 1.384 . S
C3866 C3867 1.372 . S
C3867 C3866 1.372 . S
C3867 C3868 1.400 . S
C3867 C3872 1.490 . S
C3868 H3858 0.930 . S
C3868 C3867 1.400 . S
C3868 C3871 1.386 . S
H3869 C3885 0.930 . S
H3870 C3886 0.931 . S
C3871 H3859 0.929 . S
C3871 C3865 1.390 . S
C3871 C3868 1.386 . S
C3872 C3867 1.490 . S
C3872 C3874 1.395 . S
C3872 C3875 1.403 . S
H3873 C3879 0.930 . S
C3874 H3860 0.930 . S
C3874 C3872 1.395 . S
C3874 C3877 1.403 . S
C3875 C3872 1.403 . S
C3875 C3876 1.524 . S
C3875 C3879 1.400 . S
C3876 H3861 0.960 . S
C3876 H3862 0.960 . S
C3876 H3863 0.960 . S
C3876 C3875 1.524 . S
C3877 C3874 1.403 . S
C3877 C3878 1.392 . S
C3877 C3881 1.495 . S
C3878 C3877 1.392 . S
C3878 C3879 1.385 . S
C3878 C3880 1.478 . S
C3879 H3873 0.930 . S
C3879 C3875 1.400 . S
C3879 C3878 1.385 . S
C3880 C3878 1.478 . S
C3880 C3882 1.381 . S
C3880 C3886 1.383 . S
C3881 C3877 1.495 . S
C3881 H3887 0.959 . S
C3881 H3888 0.961 . S
C3881 H3889 0.960 . S
C3882 C3880 1.381 . S
C3882 C3883 1.394 . S
C3882 H3890 0.930 . S
C3883 C3882 1.394 . S
C3883 C3884 1.383 . S
C3883 H3891 0.929 . S
C3884 C3883 1.383 . S
C3884 C3885 1.377 . S
C3885 H3869 0.930 . S
C3885 C3884 1.377 . S
C3885 C3886 1.379 . S
C3886 H3870 0.931 . S
C3886 C3880 1.383 . S
C3886 C3885 1.379 . S
H3887 C3881 0.959 . S
H3888 C3881 0.961 . S
H3889 C3881 0.960 . S
H3890 C3882 0.930 . S
H3891 C3883 0.929 . S
H3892 C3900 0.929 . S
H3893 C3902 0.930 . S
H3894 C3904 0.930 . S
H3895 C3907 0.929 . S
H3896 C3910 0.930 . S
H3897 C3912 0.960 . S
H3898 C3912 0.960 . S
H3899 C3912 0.960 . S
C3900 H3892 0.929 . S
C3900 C3901 1.377 . S
C3900 C3902 1.384 . S
C3901 C3900 1.377 . S
C3901 C3907 1.390 . S
C3902 H3893 0.930 . S
C3902 C3900 1.384 . S
C3902 C3903 1.372 . S
C3903 C3902 1.372 . S
C3903 C3904 1.400 . S
C3903 C3908 1.490 . S
C3904 H3894 0.930 . S
C3904 C3903 1.400 . S
C3904 C3907 1.386 . S
H3905 C3921 0.930 . S
H3906 C3922 0.931 . S
C3907 H3895 0.929 . S
C3907 C3901 1.390 . S
C3907 C3904 1.386 . S
C3908 C3903 1.490 . S
C3908 C3910 1.395 . S
C3908 C3911 1.403 . S
H3909 C3915 0.930 . S
C3910 H3896 0.930 . S
C3910 C3908 1.395 . S
C3910 C3913 1.403 . S
C3911 C3908 1.403 . S
C3911 C3912 1.524 . S
C3911 C3915 1.400 . S
C3912 H3897 0.960 . S
C3912 H3898 0.960 . S
C3912 H3899 0.960 . S
C3912 C3911 1.524 . S
C3913 C3910 1.403 . S
C3913 C3914 1.392 . S
C3913 C3917 1.495 . S
C3914 C3913 1.392 . S
C3914 C3915 1.385 . S
C3914 C3916 1.478 . S
C3915 H3909 0.930 . S
C3915 C3911 1.400 . S
C3915 C3914 1.385 . S
C3916 C3914 1.478 . S
C3916 C3918 1.381 . S
C3916 C3922 1.383 . S
C3917 C3913 1.495 . S
C3917 H3923 0.959 . S
C3917 H3924 0.961 . S
C3917 H3925 0.960 . S
C3918 C3916 1.381 . S
C3918 C3919 1.394 . S
C3918 H3926 0.930 . S
C3919 C3918 1.394 . S
C3919 C3920 1.383 . S
C3919 H3927 0.929 . S
C3920 C3919 1.383 . S
C3920 C3921 1.377 . S
C3921 H3905 0.930 . S
C3921 C3920 1.377 . S
C3921 C3922 1.379 . S
C3922 H3906 0.931 . S
C3922 C3916 1.383 . S
C3922 C3921 1.379 . S
H3923 C3917 0.959 . S
H3924 C3917 0.961 . S
H3925 C3917 0.960 . S
H3926 C3918 0.930 . S
H3927 C3919 0.929 . S
H3928 C3936 0.929 . S
H3929 C3938 0.930 . S
H3930 C3940 0.930 . S
H3931 C3943 0.929 . S
H3932 C3946 0.930 . S
H3933 C3948 0.960 . S
H3934 C3948 0.960 . S
H3935 C3948 0.960 . S
C3936 H3928 0.929 . S
C3936 C3937 1.377 . S
C3936 C3938 1.384 . S
C3937 C3936 1.377 . S
C3937 C3943 1.390 . S
C3938 H3929 0.930 . S
C3938 C3936 1.384 . S
C3938 C3939 1.372 . S
C3939 C3938 1.372 . S
C3939 C3940 1.400 . S
C3939 C3944 1.490 . S
C3940 H3930 0.930 . S
C3940 C3939 1.400 . S
C3940 C3943 1.386 . S
H3941 C3957 0.930 . S
H3942 C3958 0.931 . S
C3943 H3931 0.929 . S
C3943 C3937 1.390 . S
C3943 C3940 1.386 . S
C3944 C3939 1.490 . S
C3944 C3946 1.395 . S
C3944 C3947 1.403 . S
H3945 C3951 0.930 . S
C3946 H3932 0.930 . S
C3946 C3944 1.395 . S
C3946 C3949 1.403 . S
C3947 C3944 1.403 . S
C3947 C3948 1.524 . S
C3947 C3951 1.400 . S
C3948 H3933 0.960 . S
C3948 H3934 0.960 . S
C3948 H3935 0.960 . S
C3948 C3947 1.524 . S
C3949 C3946 1.403 . S
C3949 C3950 1.392 . S
C3949 C3953 1.495 . S
C3950 C3949 1.392 . S
C3950 C3951 1.385 . S
C3950 C3952 1.478 . S
C3951 H3945 0.930 . S
C3951 C3947 1.400 . S
C3951 C3950 1.385 . S
C3952 C3950 1.478 . S
C3952 C3954 1.381 . S
C3952 C3958 1.383 . S
C3953 C3949 1.495 . S
C3953 H3959 0.959 . S
C3953 H3960 0.961 . S
C3953 H3961 0.960 . S
C3954 C3952 1.381 . S
C3954 C3955 1.394 . S
C3954 H3962 0.930 . S
C3955 C3954 1.394 . S
C3955 C3956 1.371 1_655 S
C3955 H3963 0.929 1_655 S
C3956 C3955 1.371 1_455 S
C3956 C3957 1.370 1_455 S
C3957 H3941 0.930 . S
C3957 C3956 1.370 1_655 S
C3957 C3958 1.379 . S
C3958 H3942 0.931 . S
C3958 C3952 1.383 . S
C3958 C3957 1.379 . S
H3959 C3953 0.959 . S
H3960 C3953 0.961 . S
H3961 C3953 0.960 . S
H3962 C3954 0.930 . S
H3963 C3955 0.929 1_455 S
H3964 C3972 0.929 . S
H3965 C3974 0.930 . S
H3966 C3976 0.930 . S
H3967 C3979 0.929 . S
H3968 C3982 0.930 . S
H3969 C3984 0.960 . S
H3970 C3984 0.960 . S
H3971 C3984 0.960 . S
C3972 H3964 0.929 . S
C3972 C3973 1.377 . S
C3972 C3974 1.384 . S
C3973 C3972 1.377 . S
C3973 C3979 1.390 . S
C3974 H3965 0.930 . S
C3974 C3972 1.384 . S
C3974 C3975 1.372 . S
C3975 C3974 1.372 . S
C3975 C3976 1.400 . S
C3975 C3980 1.490 . S
C3976 H3966 0.930 . S
C3976 C3975 1.400 . S
C3976 C3979 1.386 . S
H3977 C3993 0.930 . S
H3978 C3994 0.931 . S
C3979 H3967 0.929 . S
C3979 C3973 1.390 . S
C3979 C3976 1.386 . S
C3980 C3975 1.490 . S
C3980 C3982 1.395 . S
C3980 C3983 1.403 . S
H3981 C3987 0.930 . S
C3982 H3968 0.930 . S
C3982 C3980 1.395 . S
C3982 C3985 1.403 . S
C3983 C3980 1.403 . S
C3983 C3984 1.524 . S
C3983 C3987 1.400 . S
C3984 H3969 0.960 . S
C3984 H3970 0.960 . S
C3984 H3971 0.960 . S
C3984 C3983 1.524 . S
C3985 C3982 1.403 . S
C3985 C3986 1.392 . S
C3985 C3989 1.495 . S
C3986 C3985 1.392 . S
C3986 C3987 1.385 . S
C3986 C3988 1.478 . S
C3987 H3981 0.930 . S
C3987 C3983 1.400 . S
C3987 C3986 1.385 . S
C3988 C3986 1.478 . S
C3988 C3990 1.381 . S
C3988 C3994 1.383 . S
C3989 C3985 1.495 . S
C3989 H3995 0.959 . S
C3989 H3996 0.961 . S
C3989 H3997 0.960 . S
C3990 C3988 1.381 . S
C3990 C3991 1.394 . S
C3990 H3998 0.930 . S
C3991 C3990 1.394 . S
C3991 C3992 1.383 . S
C3991 H3999 0.929 . S
C3992 C3991 1.383 . S
C3992 C3993 1.377 . S
C3993 H3977 0.930 . S
C3993 C3992 1.377 . S
C3993 C3994 1.379 . S
C3994 H3978 0.931 . S
C3994 C3988 1.383 . S
C3994 C3993 1.379 . S
H3995 C3989 0.959 . S
H3996 C3989 0.961 . S
H3997 C3989 0.960 . S
H3998 C3990 0.930 . S
H3999 C3991 0.929 . S
H4000 C4008 0.929 . S
H4001 C4010 0.930 . S
H4002 C4012 0.930 . S
H4003 C4015 0.929 . S
H4004 C4018 0.930 . S
H4005 C4020 0.960 . S
H4006 C4020 0.960 . S
H4007 C4020 0.960 . S
C4008 H4000 0.929 . S
C4008 C4009 1.377 . S
C4008 C4010 1.384 . S
C4009 C4008 1.377 . S
C4009 C4015 1.390 . S
C4010 H4001 0.930 . S
C4010 C4008 1.384 . S
C4010 C4011 1.372 . S
C4011 C4010 1.372 . S
C4011 C4012 1.400 . S
C4011 C4016 1.490 . S
C4012 H4002 0.930 . S
C4012 C4011 1.400 . S
C4012 C4015 1.386 . S
H4013 C4029 0.930 . S
H4014 C4030 0.931 . S
C4015 H4003 0.929 . S
C4015 C4009 1.390 . S
C4015 C4012 1.386 . S
C4016 C4011 1.490 . S
C4016 C4018 1.395 . S
C4016 C4019 1.403 . S
H4017 C4023 0.930 . S
C4018 H4004 0.930 . S
C4018 C4016 1.395 . S
C4018 C4021 1.403 . S
C4019 C4016 1.403 . S
C4019 C4020 1.524 . S
C4019 C4023 1.400 . S
C4020 H4005 0.960 . S
C4020 H4006 0.960 . S
C4020 H4007 0.960 . S
C4020 C4019 1.524 . S
C4021 C4018 1.403 . S
C4021 C4022 1.392 . S
C4021 C4025 1.495 . S
C4022 C4021 1.392 . S
C4022 C4023 1.385 . S
C4022 C4024 1.478 . S
C4023 H4017 0.930 . S
C4023 C4019 1.400 . S
C4023 C4022 1.385 . S
C4024 C4022 1.478 . S
C4024 C4026 1.381 . S
C4024 C4030 1.383 . S
C4025 C4021 1.495 . S
C4025 H4031 0.959 . S
C4025 H4032 0.961 . S
C4025 H4033 0.960 . S
C4026 C4024 1.381 . S
C4026 C4027 1.394 . S
C4026 H4034 0.930 . S
C4027 C4026 1.394 . S
C4027 C4028 1.383 . S
C4027 H4035 0.929 . S
C4028 C4027 1.383 . S
C4028 C4029 1.377 . S
C4029 H4013 0.930 . S
C4029 C4028 1.377 . S
C4029 C4030 1.379 . S
C4030 H4014 0.931 . S
C4030 C4024 1.383 . S
C4030 C4029 1.379 . S
H4031 C4025 0.959 . S
H4032 C4025 0.961 . S
H4033 C4025 0.960 . S
H4034 C4026 0.930 . S
H4035 C4027 0.929 . S
H4036 C4044 0.929 . S
H4037 C4046 0.930 . S
H4038 C4048 0.930 . S
H4039 C4051 0.929 . S
H4040 C4054 0.930 . S
H4041 C4056 0.960 . S
H4042 C4056 0.960 . S
H4043 C4056 0.960 . S
C4044 H4036 0.929 . S
C4044 C4045 1.377 . S
C4044 C4046 1.384 . S
C4045 C4044 1.377 . S
C4045 C4051 1.390 . S
C4046 H4037 0.930 . S
C4046 C4044 1.384 . S
C4046 C4047 1.372 . S
C4047 C4046 1.372 . S
C4047 C4048 1.400 . S
C4047 C4052 1.490 . S
C4048 H4038 0.930 . S
C4048 C4047 1.400 . S
C4048 C4051 1.386 . S
H4049 C4065 0.930 . S
H4050 C4066 0.931 . S
C4051 H4039 0.929 . S
C4051 C4045 1.390 . S
C4051 C4048 1.386 . S
C4052 C4047 1.490 . S
C4052 C4054 1.395 . S
C4052 C4055 1.403 . S
H4053 C4059 0.930 . S
C4054 H4040 0.930 . S
C4054 C4052 1.395 . S
C4054 C4057 1.403 . S
C4055 C4052 1.403 . S
C4055 C4056 1.524 . S
C4055 C4059 1.400 . S
C4056 H4041 0.960 . S
C4056 H4042 0.960 . S
C4056 H4043 0.960 . S
C4056 C4055 1.524 . S
C4057 C4054 1.403 . S
C4057 C4058 1.392 . S
C4057 C4061 1.495 . S
C4058 C4057 1.392 . S
C4058 C4059 1.385 . S
C4058 C4060 1.478 . S
C4059 H4053 0.930 . S
C4059 C4055 1.400 . S
C4059 C4058 1.385 . S
C4060 C4058 1.478 . S
C4060 C4062 1.381 . S
C4060 C4066 1.383 . S
C4061 C4057 1.495 . S
C4061 H4067 0.959 . S
C4061 H4068 0.961 . S
C4061 H4069 0.960 . S
C4062 C4060 1.381 . S
C4062 C4063 1.394 . S
C4062 H4070 0.930 . S
C4063 C4062 1.394 . S
C4063 C4064 1.383 . S
C4063 H4071 0.929 . S
C4064 C4063 1.383 . S
C4064 C4065 1.377 . S
C4065 H4049 0.930 . S
C4065 C4064 1.377 . S
C4065 C4066 1.379 . S
C4066 H4050 0.931 . S
C4066 C4060 1.383 . S
C4066 C4065 1.379 . S
H4067 C4061 0.959 . S
H4068 C4061 0.961 . S
H4069 C4061 0.960 . S
H4070 C4062 0.930 . S
H4071 C4063 0.929 . S
H4072 C4080 0.929 . S
H4073 C4082 0.930 . S
H4074 C4084 0.930 . S
H4075 C4087 0.929 . S
H4076 C4090 0.930 . S
H4077 C4092 0.960 . S
H4078 C4092 0.960 . S
H4079 C4092 0.960 . S
C4080 H4072 0.929 . S
C4080 C4081 1.377 . S
C4080 C4082 1.384 . S
C4081 C4080 1.377 . S
C4081 C4087 1.390 . S
C4082 H4073 0.930 . S
C4082 C4080 1.384 . S
C4082 C4083 1.372 . S
C4083 C4082 1.372 . S
C4083 C4084 1.400 . S
C4083 C4088 1.490 . S
C4084 H4074 0.930 . S
C4084 C4083 1.400 . S
C4084 C4087 1.386 . S
H4085 C4101 0.930 . S
H4086 C4102 0.931 . S
C4087 H4075 0.929 . S
C4087 C4081 1.390 . S
C4087 C4084 1.386 . S
C4088 C4083 1.490 . S
C4088 C4090 1.395 . S
C4088 C4091 1.403 . S
H4089 C4095 0.930 . S
C4090 H4076 0.930 . S
C4090 C4088 1.395 . S
C4090 C4093 1.403 . S
C4091 C4088 1.403 . S
C4091 C4092 1.524 . S
C4091 C4095 1.400 . S
C4092 H4077 0.960 . S
C4092 H4078 0.960 . S
C4092 H4079 0.960 . S
C4092 C4091 1.524 . S
C4093 C4090 1.403 . S
C4093 C4094 1.392 . S
C4093 C4097 1.495 . S
C4094 C4093 1.392 . S
C4094 C4095 1.385 . S
C4094 C4096 1.478 . S
C4095 H4089 0.930 . S
C4095 C4091 1.400 . S
C4095 C4094 1.385 . S
C4096 C4094 1.478 . S
C4096 C4098 1.381 . S
C4096 C4102 1.383 . S
C4097 C4093 1.495 . S
C4097 H4103 0.959 . S
C4097 H4104 0.961 . S
C4097 H4105 0.960 . S
C4098 C4096 1.381 . S
C4098 C4099 1.394 . S
C4098 H4106 0.930 . S
C4099 C4098 1.394 . S
C4099 C4100 1.383 . S
C4099 H4107 0.929 . S
C4100 C4099 1.383 . S
C4100 C4101 1.377 . S
C4101 H4085 0.930 . S
C4101 C4100 1.377 . S
C4101 C4102 1.379 . S
C4102 H4086 0.931 . S
C4102 C4096 1.383 . S
C4102 C4101 1.379 . S
H4103 C4097 0.959 . S
H4104 C4097 0.961 . S
H4105 C4097 0.960 . S
H4106 C4098 0.930 . S
H4107 C4099 0.929 . S
H4108 C4116 0.929 . S
H4109 C4118 0.930 . S
H4110 C4120 0.930 . S
H4111 C4123 0.929 . S
H4112 C4126 0.930 . S
H4113 C4128 0.960 . S
H4114 C4128 0.960 . S
H4115 C4128 0.960 . S
C4116 H4108 0.929 . S
C4116 C4117 1.377 . S
C4116 C4118 1.384 . S
C4117 C4116 1.377 . S
C4117 C4123 1.390 . S
C4118 H4109 0.930 . S
C4118 C4116 1.384 . S
C4118 C4119 1.372 . S
C4119 C4118 1.372 . S
C4119 C4120 1.400 . S
C4119 C4124 1.490 . S
C4120 H4110 0.930 . S
C4120 C4119 1.400 . S
C4120 C4123 1.386 . S
H4121 C4137 0.930 . S
H4122 C4138 0.931 . S
C4123 H4111 0.929 . S
C4123 C4117 1.390 . S
C4123 C4120 1.386 . S
C4124 C4119 1.490 . S
C4124 C4126 1.395 . S
C4124 C4127 1.403 . S
H4125 C4131 0.930 . S
C4126 H4112 0.930 . S
C4126 C4124 1.395 . S
C4126 C4129 1.403 . S
C4127 C4124 1.403 . S
C4127 C4128 1.524 . S
C4127 C4131 1.400 . S
C4128 H4113 0.960 . S
C4128 H4114 0.960 . S
C4128 H4115 0.960 . S
C4128 C4127 1.524 . S
C4129 C4126 1.403 . S
C4129 C4130 1.392 . S
C4129 C4133 1.495 . S
C4130 C4129 1.392 . S
C4130 C4131 1.385 . S
C4130 C4132 1.478 . S
C4131 H4125 0.930 . S
C4131 C4127 1.400 . S
C4131 C4130 1.385 . S
C4132 C4130 1.478 . S
C4132 C4134 1.381 . S
C4132 C4138 1.383 . S
C4133 C4129 1.495 . S
C4133 H4139 0.959 . S
C4133 H4140 0.961 . S
C4133 H4141 0.960 . S
C4134 C4132 1.381 . S
C4134 C4135 1.394 . S
C4134 H4142 0.930 . S
C4135 C4134 1.394 . S
C4135 C4136 1.383 . S
C4135 H4143 0.929 . S
C4136 C4135 1.383 . S
C4136 C4137 1.377 . S
C4137 H4121 0.930 . S
C4137 C4136 1.377 . S
C4137 C4138 1.379 . S
C4138 H4122 0.931 . S
C4138 C4132 1.383 . S
C4138 C4137 1.379 . S
H4139 C4133 0.959 . S
H4140 C4133 0.961 . S
H4141 C4133 0.960 . S
H4142 C4134 0.930 . S
H4143 C4135 0.929 . S
H4144 C4152 0.929 . S
H4145 C4154 0.930 . S
H4146 C4156 0.930 . S
H4147 C4159 0.929 . S
H4148 C4162 0.930 . S
H4149 C4164 0.960 . S
H4150 C4164 0.960 . S
H4151 C4164 0.960 . S
C4152 H4144 0.929 . S
C4152 C4153 1.377 . S
C4152 C4154 1.384 . S
C4153 C4152 1.377 . S
C4153 C4159 1.390 . S
C4154 H4145 0.930 . S
C4154 C4152 1.384 . S
C4154 C4155 1.372 . S
C4155 C4154 1.372 . S
C4155 C4156 1.400 . S
C4155 C4160 1.490 . S
C4156 H4146 0.930 . S
C4156 C4155 1.400 . S
C4156 C4159 1.386 . S
H4157 C4173 0.930 . S
H4158 C4174 0.931 . S
C4159 H4147 0.929 . S
C4159 C4153 1.390 . S
C4159 C4156 1.386 . S
C4160 C4155 1.490 . S
C4160 C4162 1.395 . S
C4160 C4163 1.403 . S
H4161 C4167 0.930 . S
C4162 H4148 0.930 . S
C4162 C4160 1.395 . S
C4162 C4165 1.403 . S
C4163 C4160 1.403 . S
C4163 C4164 1.524 . S
C4163 C4167 1.400 . S
C4164 H4149 0.960 . S
C4164 H4150 0.960 . S
C4164 H4151 0.960 . S
C4164 C4163 1.524 . S
C4165 C4162 1.403 . S
C4165 C4166 1.392 . S
C4165 C4169 1.495 . S
C4166 C4165 1.392 . S
C4166 C4167 1.385 . S
C4166 C4168 1.478 . S
C4167 H4161 0.930 . S
C4167 C4163 1.400 . S
C4167 C4166 1.385 . S
C4168 C4166 1.478 . S
C4168 C4170 1.381 . S
C4168 C4174 1.383 . S
C4169 C4165 1.495 . S
C4169 H4175 0.959 . S
C4169 H4176 0.961 . S
C4169 H4177 0.960 . S
C4170 C4168 1.381 . S
C4170 C4171 1.394 . S
C4170 H4178 0.930 . S
C4171 C4170 1.394 . S
C4171 C4172 1.383 . S
C4171 H4179 0.929 . S
C4172 C4171 1.383 . S
C4172 C4173 1.377 . S
C4173 H4157 0.930 . S
C4173 C4172 1.377 . S
C4173 C4174 1.379 . S
C4174 H4158 0.931 . S
C4174 C4168 1.383 . S
C4174 C4173 1.379 . S
H4175 C4169 0.959 . S
H4176 C4169 0.961 . S
H4177 C4169 0.960 . S
H4178 C4170 0.930 . S
H4179 C4171 0.929 . S
H4180 C4188 0.929 . S
H4181 C4190 0.930 . S
H4182 C4192 0.930 . S
H4183 C4195 0.929 . S
H4184 C4198 0.930 . S
H4185 C4200 0.960 . S
H4186 C4200 0.960 . S
H4187 C4200 0.960 . S
C4188 H4180 0.929 . S
C4188 C4189 1.377 . S
C4188 C4190 1.384 . S
C4189 C4188 1.377 . S
C4189 C4195 1.390 . S
C4190 H4181 0.930 . S
C4190 C4188 1.384 . S
C4190 C4191 1.372 . S
C4191 C4190 1.372 . S
C4191 C4192 1.400 . S
C4191 C4196 1.490 . S
C4192 H4182 0.930 . S
C4192 C4191 1.400 . S
C4192 C4195 1.386 . S
H4193 C4209 0.930 . S
H4194 C4210 0.931 . S
C4195 H4183 0.929 . S
C4195 C4189 1.390 . S
C4195 C4192 1.386 . S
C4196 C4191 1.490 . S
C4196 C4198 1.395 . S
C4196 C4199 1.403 . S
H4197 C4203 0.930 . S
C4198 H4184 0.930 . S
C4198 C4196 1.395 . S
C4198 C4201 1.403 . S
C4199 C4196 1.403 . S
C4199 C4200 1.524 . S
C4199 C4203 1.400 . S
C4200 H4185 0.960 . S
C4200 H4186 0.960 . S
C4200 H4187 0.960 . S
C4200 C4199 1.524 . S
C4201 C4198 1.403 . S
C4201 C4202 1.392 . S
C4201 C4205 1.495 . S
C4202 C4201 1.392 . S
C4202 C4203 1.385 . S
C4202 C4204 1.478 . S
C4203 H4197 0.930 . S
C4203 C4199 1.400 . S
C4203 C4202 1.385 . S
C4204 C4202 1.478 . S
C4204 C4206 1.381 . S
C4204 C4210 1.383 . S
C4205 C4201 1.495 . S
C4205 H4211 0.959 . S
C4205 H4212 0.963 . S
C4205 H4213 0.960 . S
C4206 C4204 1.381 . S
C4206 C4207 1.379 1_565 S
C4206 H4214 0.930 . S
C4207 C4206 1.379 1_545 S
C4207 C4208 1.377 . S
C4207 H4215 0.953 . S
C4208 C4207 1.377 . S
C4208 C4209 1.377 1_545 S
C4209 H4193 0.930 . S
C4209 C4208 1.377 1_565 S
C4209 C4210 1.379 . S
C4210 H4194 0.931 . S
C4210 C4204 1.383 . S
C4210 C4209 1.379 . S
H4211 C4205 0.959 . S
H4212 C4205 0.963 . S
H4213 C4205 0.960 . S
H4214 C4206 0.930 . S
H4215 C4207 0.953 . S
H4216 C4224 0.929 . S
H4217 C4226 0.930 . S
H4218 C4228 0.930 . S
H4219 C4231 0.929 . S
H4220 C4234 0.930 . S
H4221 C4236 0.960 . S
H4222 C4236 0.960 . S
H4223 C4236 0.960 . S
C4224 H4216 0.929 . S
C4224 C4225 1.377 . S
C4224 C4226 1.384 . S
C4225 C4224 1.377 . S
C4225 C4231 1.390 . S
C4226 H4217 0.930 . S
C4226 C4224 1.384 . S
C4226 C4227 1.372 . S
C4227 C4226 1.372 . S
C4227 C4228 1.400 . S
C4227 C4232 1.490 . S
C4228 H4218 0.930 . S
C4228 C4227 1.400 . S
C4228 C4231 1.386 . S
H4229 C4245 0.930 . S
H4230 C4246 0.931 . S
C4231 H4219 0.929 . S
C4231 C4225 1.390 . S
C4231 C4228 1.386 . S
C4232 C4227 1.490 . S
C4232 C4234 1.395 . S
C4232 C4235 1.403 . S
H4233 C4239 0.930 . S
C4234 H4220 0.930 . S
C4234 C4232 1.395 . S
C4234 C4237 1.403 . S
C4235 C4232 1.403 . S
C4235 C4236 1.524 . S
C4235 C4239 1.400 . S
C4236 H4221 0.960 . S
C4236 H4222 0.960 . S
C4236 H4223 0.960 . S
C4236 C4235 1.524 . S
C4237 C4234 1.403 . S
C4237 C4238 1.392 . S
C4237 C4241 1.495 . S
C4238 C4237 1.392 . S
C4238 C4239 1.385 . S
C4238 C4240 1.478 . S
C4239 H4233 0.930 . S
C4239 C4235 1.400 . S
C4239 C4238 1.385 . S
C4240 C4238 1.478 . S
C4240 C4242 1.381 . S
C4240 C4246 1.383 . S
C4241 C4237 1.495 . S
C4241 H4247 0.959 . S
C4241 H4248 0.961 . S
C4241 H4249 0.960 . S
C4242 C4240 1.381 . S
C4242 C4243 1.394 . S
C4242 H4250 0.930 . S
C4243 C4242 1.394 . S
C4243 C4244 1.383 . S
C4243 H4251 0.929 . S
C4244 C4243 1.383 . S
C4244 C4245 1.377 . S
C4245 H4229 0.930 . S
C4245 C4244 1.377 . S
C4245 C4246 1.379 . S
C4246 H4230 0.931 . S
C4246 C4240 1.383 . S
C4246 C4245 1.379 . S
H4247 C4241 0.959 . S
H4248 C4241 0.961 . S
H4249 C4241 0.960 . S
H4250 C4242 0.930 . S
H4251 C4243 0.929 . S
H4252 C4260 0.929 . S
H4253 C4262 0.930 . S
H4254 C4264 0.930 . S
H4255 C4267 0.929 . S
H4256 C4270 0.930 . S
H4257 C4272 0.960 . S
H4258 C4272 0.960 . S
H4259 C4272 0.960 . S
C4260 H4252 0.929 . S
C4260 C4261 1.377 . S
C4260 C4262 1.384 . S
C4261 C4260 1.377 . S
C4261 C4267 1.390 . S
C4262 H4253 0.930 . S
C4262 C4260 1.384 . S
C4262 C4263 1.372 . S
C4263 C4262 1.372 . S
C4263 C4264 1.400 . S
C4263 C4268 1.490 . S
C4264 H4254 0.930 . S
C4264 C4263 1.400 . S
C4264 C4267 1.386 . S
H4265 C4281 0.930 . S
H4266 C4282 0.931 . S
C4267 H4255 0.929 . S
C4267 C4261 1.390 . S
C4267 C4264 1.386 . S
C4268 C4263 1.490 . S
C4268 C4270 1.395 . S
C4268 C4271 1.403 . S
H4269 C4275 0.930 . S
C4270 H4256 0.930 . S
C4270 C4268 1.395 . S
C4270 C4273 1.403 . S
C4271 C4268 1.403 . S
C4271 C4272 1.524 . S
C4271 C4275 1.400 . S
C4272 H4257 0.960 . S
C4272 H4258 0.960 . S
C4272 H4259 0.960 . S
C4272 C4271 1.524 . S
C4273 C4270 1.403 . S
C4273 C4274 1.392 . S
C4273 C4277 1.495 1_554 S
C4274 C4273 1.392 . S
C4274 C4275 1.385 . S
C4274 C4276 1.478 . S
C4275 H4269 0.930 . S
C4275 C4271 1.400 . S
C4275 C4274 1.385 . S
C4276 C4274 1.478 . S
C4276 C4278 1.381 . S
C4276 C4282 1.383 . S
C4277 C4273 1.495 1_556 S
C4277 H4283 0.959 . S
C4277 H4284 0.961 . S
C4277 H4285 0.960 . S
C4278 C4276 1.381 . S
C4278 C4279 1.394 . S
C4278 H4286 0.930 . S
C4279 C4278 1.394 . S
C4279 C4280 1.383 . S
C4279 H4287 0.929 . S
C4280 C4279 1.383 . S
C4280 C4281 1.377 . S
C4281 H4265 0.930 . S
C4281 C4280 1.377 . S
C4281 C4282 1.379 . S
C4282 H4266 0.931 . S
C4282 C4276 1.383 . S
C4282 C4281 1.379 . S
H4283 C4277 0.959 . S
H4284 C4277 0.961 . S
H4285 C4277 0.960 . S
H4286 C4278 0.930 . S
H4287 C4279 0.929 . S
H4288 C4296 0.929 . S
H4289 C4298 0.930 . S
H4290 C4300 0.930 . S
H4291 C4303 0.929 . S
H4292 C4306 0.930 . S
H4293 C4308 0.960 . S
H4294 C4308 0.960 . S
H4295 C4308 0.960 . S
C4296 H4288 0.929 . S
C4296 C4297 1.377 . S
C4296 C4298 1.384 . S
C4297 C4296 1.377 . S
C4297 C4303 1.390 . S
C4298 H4289 0.930 . S
C4298 C4296 1.384 . S
C4298 C4299 1.372 . S
C4299 C4298 1.372 . S
C4299 C4300 1.400 . S
C4299 C4304 1.490 . S
C4300 H4290 0.930 . S
C4300 C4299 1.400 . S
C4300 C4303 1.386 . S
H4301 C4317 0.930 . S
H4302 C4318 0.931 . S
C4303 H4291 0.929 . S
C4303 C4297 1.390 . S
C4303 C4300 1.386 . S
C4304 C4299 1.490 . S
C4304 C4306 1.395 . S
C4304 C4307 1.403 . S
H4305 C4311 0.930 . S
C4306 H4292 0.930 . S
C4306 C4304 1.395 . S
C4306 C4309 1.403 . S
C4307 C4304 1.403 . S
C4307 C4308 1.524 . S
C4307 C4311 1.400 . S
C4308 H4293 0.960 . S
C4308 H4294 0.960 . S
C4308 H4295 0.960 . S
C4308 C4307 1.524 . S
C4309 C4306 1.403 . S
C4309 C4310 1.392 . S
C4309 C4313 1.495 . S
C4310 C4309 1.392 . S
C4310 C4311 1.385 . S
C4310 C4312 1.478 . S
C4311 H4305 0.930 . S
C4311 C4307 1.400 . S
C4311 C4310 1.385 . S
C4312 C4310 1.478 . S
C4312 C4314 1.381 . S
C4312 C4318 1.383 . S
C4313 C4309 1.495 . S
C4313 H4319 0.959 . S
C4313 H4320 0.961 . S
C4313 H4321 0.960 . S
C4314 C4312 1.381 . S
C4314 C4315 1.394 . S
C4314 H4322 0.930 . S
C4315 C4314 1.394 . S
C4315 C4316 1.383 . S
C4315 H4323 0.929 . S
C4316 C4315 1.383 . S
C4316 C4317 1.377 . S
C4317 H4301 0.930 . S
C4317 C4316 1.377 . S
C4317 C4318 1.379 . S
C4318 H4302 0.931 . S
C4318 C4312 1.383 . S
C4318 C4317 1.379 . S
H4319 C4313 0.959 . S
H4320 C4313 0.961 . S
H4321 C4313 0.960 . S
H4322 C4314 0.930 . S
H4323 C4315 0.929 . S
H4324 C4332 0.929 . S
H4325 C4334 0.930 . S
H4326 C4336 0.930 1_556 S
H4327 C4339 0.971 . S
H4328 C4342 0.930 . S
H4329 C4344 0.960 . S
H4330 C4344 0.960 . S
H4331 C4344 0.960 . S
C4332 H4324 0.929 . S
C4332 C4333 1.377 . S
C4332 C4334 1.384 . S
C4333 C4332 1.377 . S
C4333 C4339 1.390 . S
C4334 H4325 0.930 . S
C4334 C4332 1.384 . S
C4334 C4335 1.372 . S
C4335 C4334 1.372 . S
C4335 C4336 1.400 . S
C4335 C4340 1.490 . S
C4336 H4326 0.930 1_554 S
C4336 C4335 1.400 . S
C4336 C4339 1.386 . S
H4337 C4353 0.930 . S
H4338 C4354 0.931 . S
C4339 H4327 0.971 . S
C4339 C4333 1.390 . S
C4339 C4336 1.386 . S
C4340 C4335 1.490 . S
C4340 C4342 1.395 . S
C4340 C4343 1.403 . S
H4341 C4347 0.930 . S
C4342 H4328 0.930 . S
C4342 C4340 1.395 . S
C4342 C4345 1.403 . S
C4343 C4340 1.403 . S
C4343 C4344 1.524 . S
C4343 C4347 1.400 . S
C4344 H4329 0.960 . S
C4344 H4330 0.960 . S
C4344 H4331 0.960 . S
C4344 C4343 1.524 . S
C4345 C4342 1.403 . S
C4345 C4346 1.392 . S
C4345 C4349 1.495 . S
C4346 C4345 1.392 . S
C4346 C4347 1.385 . S
C4346 C4348 1.478 . S
C4347 H4341 0.930 . S
C4347 C4343 1.400 . S
C4347 C4346 1.385 . S
C4348 C4346 1.478 . S
C4348 C4350 1.381 . S
C4348 C4354 1.383 1_554 S
C4349 C4345 1.495 . S
C4349 H4355 0.959 . S
C4349 H4356 0.961 . S
C4349 H4357 0.960 . S
C4350 C4348 1.381 . S
C4350 C4351 1.394 . S
C4350 H4358 0.930 . S
C4351 C4350 1.394 . S
C4351 C4352 1.383 . S
C4351 H4359 0.929 . S
C4352 C4351 1.383 . S
C4352 C4353 1.377 1_554 S
C4353 H4337 0.930 . S
C4353 C4352 1.377 1_556 S
C4353 C4354 1.379 . S
C4354 H4338 0.931 . S
C4354 C4348 1.383 1_556 S
C4354 C4353 1.379 . S
H4355 C4349 0.959 . S
H4356 C4349 0.961 . S
H4357 C4349 0.960 . S
H4358 C4350 0.930 . S
H4359 C4351 0.929 . S
H4360 C4368 0.929 . S
H4361 C4370 0.930 . S
H4362 C4372 0.930 . S
H4363 C4375 0.929 . S
H4364 C4378 0.930 . S
H4365 C4380 0.960 . S
H4366 C4380 0.960 . S
H4367 C4380 0.960 . S
C4368 H4360 0.929 . S
C4368 C4369 1.377 . S
C4368 C4370 1.384 . S
C4369 C4368 1.377 . S
C4369 C4375 1.390 . S
C4370 H4361 0.930 . S
C4370 C4368 1.384 . S
C4370 C4371 1.372 . S
C4371 C4370 1.372 . S
C4371 C4372 1.400 . S
C4371 C4376 1.490 . S
C4372 H4362 0.930 . S
C4372 C4371 1.400 . S
C4372 C4375 1.386 . S
H4373 C4389 0.930 . S
H4374 C4390 0.931 . S
C4375 H4363 0.929 . S
C4375 C4369 1.390 . S
C4375 C4372 1.386 . S
C4376 C4371 1.490 . S
C4376 C4378 1.395 . S
C4376 C4379 1.403 . S
H4377 C4383 0.930 . S
C4378 H4364 0.930 . S
C4378 C4376 1.395 . S
C4378 C4381 1.403 . S
C4379 C4376 1.403 . S
C4379 C4380 1.524 . S
C4379 C4383 1.400 . S
C4380 H4365 0.960 . S
C4380 H4366 0.960 . S
C4380 H4367 0.960 . S
C4380 C4379 1.524 . S
C4381 C4378 1.403 . S
C4381 C4382 1.392 . S
C4381 C4385 1.495 . S
C4382 C4381 1.392 . S
C4382 C4383 1.385 . S
C4382 C4384 1.478 . S
C4383 H4377 0.930 . S
C4383 C4379 1.400 . S
C4383 C4382 1.385 . S
C4384 C4382 1.478 . S
C4384 C4386 1.381 . S
C4384 C4390 1.383 . S
C4385 C4381 1.495 . S
C4385 H4391 0.959 . S
C4385 H4392 0.961 . S
C4385 H4393 0.960 . S
C4386 C4384 1.381 . S
C4386 C4387 1.394 . S
C4386 H4394 0.930 . S
C4387 C4386 1.394 . S
C4387 C4388 1.383 . S
C4387 H4395 0.929 . S
C4388 C4387 1.383 . S
C4388 C4389 1.377 . S
C4389 H4373 0.930 . S
C4389 C4388 1.377 . S
C4389 C4390 1.379 . S
C4390 H4374 0.931 . S
C4390 C4384 1.383 . S
C4390 C4389 1.379 . S
H4391 C4385 0.959 . S
H4392 C4385 0.961 . S
H4393 C4385 0.960 . S
H4394 C4386 0.930 . S
H4395 C4387 0.929 . S
H4396 C4404 0.929 . S
H4397 C4406 0.930 . S
H4398 C4408 0.930 . S
H4399 C4411 0.929 . S
H4400 C4414 0.930 . S
H4401 C4416 0.960 . S
H4402 C4416 0.960 . S
H4403 C4416 0.960 . S
C4404 H4396 0.929 . S
C4404 C4405 1.377 . S
C4404 C4406 1.384 . S
C4405 C4404 1.377 . S
C4405 C4411 1.390 . S
C4406 H4397 0.930 . S
C4406 C4404 1.384 . S
C4406 C4407 1.372 . S
C4407 C4406 1.372 . S
C4407 C4408 1.400 . S
C4407 C4412 1.490 . S
C4408 H4398 0.930 . S
C4408 C4407 1.400 . S
C4408 C4411 1.386 . S
H4409 C4425 0.930 . S
H4410 C4426 0.931 . S
C4411 H4399 0.929 . S
C4411 C4405 1.390 . S
C4411 C4408 1.386 . S
C4412 C4407 1.490 . S
C4412 C4414 1.395 . S
C4412 C4415 1.403 . S
H4413 C4419 0.930 . S
C4414 H4400 0.930 . S
C4414 C4412 1.395 . S
C4414 C4417 1.403 . S
C4415 C4412 1.403 . S
C4415 C4416 1.524 . S
C4415 C4419 1.400 . S
C4416 H4401 0.960 . S
C4416 H4402 0.960 . S
C4416 H4403 0.960 . S
C4416 C4415 1.524 . S
C4417 C4414 1.403 . S
C4417 C4418 1.392 . S
C4417 C4421 1.495 . S
C4418 C4417 1.392 . S
C4418 C4419 1.385 . S
C4418 C4420 1.478 . S
C4419 H4413 0.930 . S
C4419 C4415 1.400 . S
C4419 C4418 1.385 . S
C4420 C4418 1.478 . S
C4420 C4422 1.381 . S
C4420 C4426 1.383 . S
C4421 C4417 1.495 . S
C4421 H4427 0.959 . S
C4421 H4428 0.961 . S
C4421 H4429 0.960 . S
C4422 C4420 1.381 . S
C4422 C4423 1.394 . S
C4422 H4430 0.930 . S
C4423 C4422 1.394 . S
C4423 C4424 1.383 . S
C4423 H4431 0.929 . S
C4424 C4423 1.383 . S
C4424 C4425 1.377 . S
C4425 H4409 0.930 . S
C4425 C4424 1.377 . S
C4425 C4426 1.379 . S
C4426 H4410 0.931 . S
C4426 C4420 1.383 . S
C4426 C4425 1.379 . S
H4427 C4421 0.959 . S
H4428 C4421 0.961 . S
H4429 C4421 0.960 . S
H4430 C4422 0.930 . S
H4431 C4423 0.929 . S
C985 C105 2.066 . S
C1004 C349 2.018 . S
C1021 C65 2.065 . S
C1040 C400 2.048 . S
C1057 C73 1.445 . S
C1076 C429 1.425 . S
C1112 C473 1.463 . S
C1093 C92 1.511 . S
C1129 C17 1.436 . S
C1148 C513 1.413 . S
C1184 C549 1.446 . S
C1165 C37 1.468 . S
C1220 C599 1.771 . S
C1201 C49 1.679 . S
C1237 C8 2.167 . S
C1256 C629 2.121 . S
C1292 C359 1.810 . S
C1273 C231 1.800 . S
C1309 C241 0.424 . S
C1328 C402 0.569 . S
C1364 C439 1.179 . S
C1345 C273 1.162 . S
C1400 C469 1.285 . S
C1381 C171 1.308 . S
C1417 C227 1.349 . S
C1436 C509 1.320 . S
C1472 C559 0.881 . S
C1453 C245 0.843 . S
C1508 C593 0.766 . S
C1489 C269 0.708 . S
C1544 C639 1.776 . S
C1525 C175 1.776 . S
C1580 C353 0.981 1_565 S
C1561 C162 1.018 1_554 S
C1597 C289 1.704 . S
C1616 C679 1.698 . S
C1652 C713 1.396 . S
C1633 C330 1.420 . S
C1688 C749 0.891 . S
C1669 C317 0.886 . S
C1705 C120 1.279 . S
C1724 C633 1.225 . S
C1741 C134 1.500 . S
C1760 C433 1.450 . S
C1777 C331 1.579 . S
C1796 C799 1.564 . S
C1832 C818 0.213 . S
C1813 C303 0.175 . S
C1868 C360 2.048 . S
C1849 C59 2.053 . S
C1904 C829 2.103 . S
C1885 C107 2.112 . S
C1921 C91 1.503 . S
C1940 C440 1.513 . S
C1957 C78 1.536 . S
C1976 C802 1.499 . S
C2012 C522 1.410 . S
C1993 C7 1.421 . S
C2029 C51 1.521 . S
C2048 C720 1.505 . S
C2084 C578 1.809 1_566 S
C2065 C31 1.827 . S
C2120 C880 2.146 . S
C2101 C22 2.179 . S
C2156 C338 1.838 . S
C2137 C143 1.863 . S
C2192 C833 0.445 . S
C2173 C315 0.501 . S
C2209 C115 1.238 . S
C2228 C418 1.233 . S
C2245 C287 1.343 . S
C2264 C800 1.369 . S
C2281 C147 1.380 . S
C2300 C520 1.386 . S
C2336 C698 0.887 . S
C2317 C311 0.910 . S
C2353 C119 0.741 1_545 S
C2372 C602 0.789 . S
C2389 C283 1.840 . S
C2408 C858 1.829 . S
C2425 C190 1.009 . S
C2444 C362 1.017 . S
C2461 C177 1.747 . S
C2480 C658 1.726 . S
C2497 C260 1.421 . S
C2516 C562 1.412 . S
C2533 C247 0.931 . S
C2552 C760 0.949 . S
C2588 C882 1.236 . S
C2569 C274 1.271 . S
C2605 C218 1.502 . S
C2624 C442 1.487 . S
C2660 C458 1.617 . S
C2641 C261 1.625 . S
C2696 C399 0.282 . S
C2677 C205 0.185 . S
C2713 C77 2.051 . S
C2732 C909 1.995 . S
C2768 C840 2.040 . S
C2749 C93 2.065 . S
C2785 C101 1.443 . S
C2804 C949 1.442 . S
C2821 C64 1.511 1_655 S
C2840 C793 1.460 . S
C2857 C45 1.436 . S
C2876 C673 1.418 . S
C2912 C709 1.481 . S
C2893 C9 1.461 . S
C2948 C759 1.760 . S
C2929 C21 1.686 . S
C2984 C869 2.138 . S
C2965 C36 2.165 . S
C3020 C919 1.795 . S
C3001 C259 1.799 . S
C3037 C185 0.421 . S
C3056 C842 0.424 . S
C3092 C959 1.197 . S
C3073 C203 1.160 . S
C3128 C789 1.288 . S
C3109 C213 1.305 . S
C3164 C669 1.315 . S
C3145 C255 1.351 . S
C3181 C189 0.857 . S
C3200 C719 0.859 . S
C3236 C753 0.764 . S
C3217 C199 0.708 . S
C3253 C217 1.779 . S
C3272 C879 1.762 . S
C3308 C913 0.970 . S
C3289 C316 1.021 . S
C3325 C135 1.704 . S
C3344 C519 1.684 . S
C3380 C553 1.412 . S
C3361 C148 1.422 1_565 S
C3416 C589 0.849 . S
C3397 C163 0.888 . S
C3452 C873 1.248 . S
C3433 C302 1.285 . S
C3469 C288 1.497 . S
C3488 C953 1.443 . S
C3524 C479 1.574 . S
C3505 C149 1.578 . S
C3560 C378 0.318 . S
C3541 C121 0.153 . S
C3577 C87 2.054 . S
C3596 C920 2.050 . S
C3632 C389 2.091 . S
C3613 C79 2.113 . S
C3649 C63 1.502 . S
C3668 C960 1.517 . S
C3685 C106 1.542 . S
C3704 C482 1.513 . S
C3721 C35 1.422 . S
C3740 C682 1.412 . S
C3776 C560 1.532 . S
C3757 C23 1.516 . S
C3793 C3 1.828 . S
C3812 C738 1.813 . S
C3829 C50 2.179 . S
C3848 C640 2.148 . S
C3884 C898 1.832 . S
C3865 C325 1.864 . S
C3901 C161 0.531 . S
C3920 C393 0.557 . S
C3956 C938 1.263 . S
C3937 C297 1.238 . S
C3973 C133 1.336 . S
C3992 C480 1.347 . S
C4009 C329 1.388 . S
C4028 C680 1.416 . S
C4064 C538 0.922 . S
C4045 C157 0.918 . S
C4081 C301 0.734 . S
C4100 C762 0.765 . S
C4136 C618 1.805 . S
C4117 C129 1.840 . S
C4172 C922 0.989 . S
C4153 C246 1.018 . S
C4208 C498 1.726 . S
C4189 C219 1.747 . S
C4225 C232 1.419 . S
C4244 C722 1.373 . S
C4280 C600 0.929 . S
C4261 C191 0.930 . S
C4297 C204 1.279 . S
C4316 C642 1.243 . S
C4333 C176 1.503 . S
C4352 C962 1.486 . S
C4388 C778 1.601 . S
C4369 C233 1.625 . S
C4424 C839 0.136 . S
C4405 C275 0.206 . S
