# Generated by pormake.
# Topology wbl, (4,4)-cn, num edge types: 1
# Building blocks:
#     Node 0, Type 0, BuildingBlock: MUDLON_clean_sbu_0, # of connection points: 4
#     Node 1, Type 0, BuildingBlock: MUDLON_clean_sbu_0, # of connection points: 4
#     Node 2, Type 0, BuildingBlock: MUDLON_clean_sbu_0, # of connection points: 4
#     Node 3, Type 0, BuildingBlock: MUDLON_clean_sbu_0, # of connection points: 4
#     Node 4, Type 0, BuildingBlock: MUDLON_clean_sbu_0, # of connection points: 4
#     Node 5, Type 0, BuildingBlock: MUDLON_clean_sbu_0, # of connection points: 4
#     Node 6, Type 0, BuildingBlock: MUDLON_clean_sbu_0, # of connection points: 4
#     Node 7, Type 0, BuildingBlock: MUDLON_clean_sbu_0, # of connection points: 4
#     Node 8, Type 1, BuildingBlock: NAHDIM_clean_sbu_0, # of connection points: 4
#     Node 9, Type 1, BuildingBlock: NAHDIM_clean_sbu_0, # of connection points: 4
#     Node 10, Type 1, BuildingBlock: NAHDIM_clean_sbu_0, # of connection points: 4
#     Node 11, Type 1, BuildingBlock: NAHDIM_clean_sbu_0, # of connection points: 4
#     Node 12, Type 1, BuildingBlock: NAHDIM_clean_sbu_0, # of connection points: 4
#     Node 13, Type 1, BuildingBlock: NAHDIM_clean_sbu_0, # of connection points: 4
#     Node 14, Type 1, BuildingBlock: NAHDIM_clean_sbu_0, # of connection points: 4
#     Node 15, Type 1, BuildingBlock: NAHDIM_clean_sbu_0, # of connection points: 4
#     Edge 16, Type (0, 1), BuildingBlock: XIVTED_clean_linker_0, # of connection points: 2
#     Edge 17, Type (0, 1), BuildingBlock: XIVTED_clean_linker_0, # of connection points: 2
#     Edge 18, Type (0, 1), BuildingBlock: XIVTED_clean_linker_0, # of connection points: 2
#     Edge 19, Type (0, 1), BuildingBlock: XIVTED_clean_linker_0, # of connection points: 2
#     Edge 20, Type (0, 1), BuildingBlock: XIVTED_clean_linker_0, # of connection points: 2
#     Edge 21, Type (0, 1), BuildingBlock: XIVTED_clean_linker_0, # of connection points: 2
#     Edge 22, Type (0, 1), BuildingBlock: XIVTED_clean_linker_0, # of connection points: 2
#     Edge 23, Type (0, 1), BuildingBlock: XIVTED_clean_linker_0, # of connection points: 2
#     Edge 24, Type (0, 1), BuildingBlock: XIVTED_clean_linker_0, # of connection points: 2
#     Edge 25, Type (0, 1), BuildingBlock: XIVTED_clean_linker_0, # of connection points: 2
#     Edge 26, Type (0, 1), BuildingBlock: XIVTED_clean_linker_0, # of connection points: 2
#     Edge 27, Type (0, 1), BuildingBlock: XIVTED_clean_linker_0, # of connection points: 2
#     Edge 28, Type (0, 1), BuildingBlock: XIVTED_clean_linker_0, # of connection points: 2
#     Edge 29, Type (0, 1), BuildingBlock: XIVTED_clean_linker_0, # of connection points: 2
#     Edge 30, Type (0, 1), BuildingBlock: XIVTED_clean_linker_0, # of connection points: 2
#     Edge 31, Type (0, 1), BuildingBlock: XIVTED_clean_linker_0, # of connection points: 2
#     Edge 32, Type (0, 1), BuildingBlock: XIVTED_clean_linker_0, # of connection points: 2
#     Edge 33, Type (0, 1), BuildingBlock: XIVTED_clean_linker_0, # of connection points: 2
#     Edge 34, Type (0, 1), BuildingBlock: XIVTED_clean_linker_0, # of connection points: 2
#     Edge 35, Type (0, 1), BuildingBlock: XIVTED_clean_linker_0, # of connection points: 2
#     Edge 36, Type (0, 1), BuildingBlock: XIVTED_clean_linker_0, # of connection points: 2
#     Edge 37, Type (0, 1), BuildingBlock: XIVTED_clean_linker_0, # of connection points: 2
#     Edge 38, Type (0, 1), BuildingBlock: XIVTED_clean_linker_0, # of connection points: 2
#     Edge 39, Type (0, 1), BuildingBlock: XIVTED_clean_linker_0, # of connection points: 2
#     Edge 40, Type (0, 1), BuildingBlock: XIVTED_clean_linker_0, # of connection points: 2
#     Edge 41, Type (0, 1), BuildingBlock: XIVTED_clean_linker_0, # of connection points: 2
#     Edge 42, Type (0, 1), BuildingBlock: XIVTED_clean_linker_0, # of connection points: 2
#     Edge 43, Type (0, 1), BuildingBlock: XIVTED_clean_linker_0, # of connection points: 2
#     Edge 44, Type (0, 1), BuildingBlock: XIVTED_clean_linker_0, # of connection points: 2
#     Edge 45, Type (0, 1), BuildingBlock: XIVTED_clean_linker_0, # of connection points: 2
#     Edge 46, Type (0, 1), BuildingBlock: XIVTED_clean_linker_0, # of connection points: 2
#     Edge 47, Type (0, 1), BuildingBlock: XIVTED_clean_linker_0, # of connection points: 2
# Relax obj value: 0.234
# Max RMSD: 0.229
# Mean RMSD: 0.181
data_MOF--net-wbl--node1-MUDLON_clean_sbu_0--node2-NAHDIM_clean_sbu_0--edge1-XIVTED_clean_linker_0
_symmetry_space_group_name_H-M    P1
_symmetry_Int_Tables_number       1
_symmetry_cell_setting            triclinic
loop_
_symmetry_equiv_pos_as_xyz
'x, y, z'
_cell_length_a     36.196298
_cell_length_b     34.817461
_cell_length_c     74.705566
_cell_angle_alpha  90.071844
_cell_angle_beta   89.957571
_cell_angle_gamma 90.291637
loop_
_atom_site_label
_atom_site_type_symbol
_atom_site_fract_x
_atom_site_fract_y
_atom_site_fract_z
_atom_type_partial_charge
Mg0 Mg 0.00428 0.01448 0.35007 0.0
C1 C 0.08009 0.00859 0.36758 0.0
O2 O 0.08959 0.99405 0.35203 0.0
C3 C 0.98638 0.06771 0.31951 0.0
O4 O 0.00378 0.04075 0.31058 0.0
C5 C 0.03389 0.93928 0.33404 0.0
O6 O 0.03383 0.92765 0.35077 0.0
O7 O 0.02125 0.9723 0.33033 0.0
O8 O 0.0484 0.02372 0.36927 0.0
O9 O 0.95914 0.9977 0.36743 0.0
C10 C 0.96713 0.9804 0.38188 0.0
O11 O 1.00022 0.9655 0.38355 0.0
O12 O 0.98505 0.06566 0.33648 0.0
Mg13 Mg 0.98733 0.5112 0.60118 0.0
C14 C 0.03899 0.48832 0.63118 0.0
O15 O 0.009 0.47073 0.63686 0.0
C16 C 0.99456 0.43741 0.57806 0.0
O17 O 0.02948 0.43775 0.58285 0.0
C18 C 0.02442 0.55828 0.57431 0.0
O19 O 0.04388 0.52655 0.57496 0.0
O20 O 0.99611 0.56111 0.58432 0.0
O21 O 0.03847 0.50479 0.61601 0.0
O22 O 0.94389 0.51619 0.62128 0.0
C23 C 0.91528 0.49501 0.61994 0.0
O24 O 0.91071 0.47442 0.60536 0.0
O25 O 0.97312 0.46344 0.58379 0.0
Mg26 Mg 0.50185 0.49092 0.85522 0.0
C27 C 0.43099 0.50347 0.87714 0.0
O28 O 0.41899 0.52055 0.86261 0.0
C29 C 0.50294 0.43625 0.82394 0.0
O30 O 0.48291 0.46373 0.81692 0.0
C31 C 0.47542 0.568 0.83865 0.0
O32 O 0.47473 0.58122 0.85513 0.0
O33 O 0.48662 0.53406 0.83572 0.0
O34 O 0.46176 0.4861 0.87673 0.0
O35 O 0.55319 0.5015 0.86929 0.0
C36 C 0.55183 0.51637 0.88483 0.0
O37 O 0.52074 0.53191 0.89021 0.0
O38 O 0.51166 0.43833 0.8404 0.0
Mg39 Mg 0.49905 1.00213 0.08786 0.0
C40 C 0.57112 0.01744 0.10723 0.0
O41 O 0.57175 0.04671 0.09617 0.0
C42 C 0.46578 0.95375 0.0581 0.0
O43 O 0.45633 0.98788 0.05223 0.0
C44 C 0.5357 0.05116 0.05959 0.0
O45 O 0.55244 0.01835 0.05665 0.0
O46 O 0.51049 0.05255 0.07146 0.0
O47 O 0.54548 0.99253 0.10576 0.0
O48 O 0.45478 0.01157 0.10706 0.0
C49 C 0.42862 0.98728 0.10865 0.0
O50 O 0.42581 0.95938 0.09688 0.0
O51 O 0.48536 0.95132 0.07218 0.0
Mg52 Mg 0.99581 0.51403 0.90831 0.0
C53 C 0.0342 0.55202 0.87935 0.0
O54 O 0.00338 0.57115 0.88171 0.0
C55 C 0.99929 0.45491 0.93769 0.0
O56 O 0.0184 0.48252 0.94538 0.0
C57 C 0.02313 0.58478 0.92939 0.0
O58 O 0.03548 0.59577 0.91369 0.0
O59 O 0.00281 0.55491 0.93039 0.0
O60 O 0.04053 0.52295 0.88919 0.0
O61 O 0.94738 0.51757 0.89114 0.0
C62 C 0.92275 0.4914 0.89162 0.0
O63 O 0.92183 0.46798 0.90539 0.0
O64 O 0.9912 0.45811 0.92119 0.0
Mg65 Mg 0.51431 0.50981 0.17227 0.0
C66 C 0.46462 0.48431 0.1419 0.0
O67 O 0.4947 0.46569 0.13737 0.0
C68 C 0.51279 0.42833 0.18749 0.0
O69 O 0.48835 0.42306 0.17472 0.0
C70 C 0.47896 0.56377 0.19786 0.0
O71 O 0.45823 0.53286 0.19944 0.0
O72 O 0.50679 0.56266 0.18745 0.0
O73 O 0.46416 0.50285 0.15658 0.0
O74 O 0.5585 0.5132 0.15247 0.0
C75 C 0.58421 0.48841 0.15258 0.0
O76 O 0.58578 0.46372 0.16582 0.0
O77 O 0.52626 0.46171 0.18995 0.0
Mg78 Mg 0.49212 0.00724 0.42223 0.0
C79 C 0.53027 0.03477 0.39075 0.0
O80 O 0.50045 0.05554 0.39264 0.0
C81 C 0.48351 0.95717 0.45495 0.0
O82 O 0.49878 0.98743 0.46246 0.0
C83 C 0.52491 0.08223 0.43834 0.0
O84 O 0.53061 0.09182 0.42159 0.0
O85 O 0.50604 0.05218 0.44181 0.0
O86 O 0.53596 0.00766 0.40182 0.0
O87 O 0.44107 0.00661 0.40668 0.0
C88 C 0.4212 0.03068 0.39833 0.0
O89 O 0.42832 0.06762 0.39952 0.0
O90 O 0.48274 0.95517 0.43793 0.0
Mg91 Mg 0.99688 1.00228 0.67228 0.0
C92 C 0.00303 0.92569 0.65329 0.0
O93 O 0.02036 0.91527 0.66792 0.0
C94 C 0.9602 0.03417 0.70497 0.0
O95 O 0.9937 0.02815 0.71107 0.0
C96 C 0.074 0.97271 0.68231 0.0
O97 O 0.0803 0.97631 0.66507 0.0
O98 O 0.04338 0.98419 0.68866 0.0
O99 O 0.98365 0.95605 0.65365 0.0
O100 O 0.00531 0.04851 0.65327 0.0
C101 C 0.01607 0.03885 0.63771 0.0
O102 O 0.03433 0.00658 0.63591 0.0
O103 O 0.95225 0.02304 0.6892 0.0
C104 C 0.21741 0.62813 0.01739 0.0
O105 O 0.22712 0.59615 0.02539 0.0
O106 O 0.30345 0.60975 0.04146 0.0
Zn107 Zn 0.29568 0.64379 0.0198 0.0
O108 O 0.31564 0.61901 0.9974 0.0
C109 C 0.3286 0.72085 0.01428 0.0
O110 O 0.31373 0.71955 0.99825 0.0
O111 O 0.24176 0.65396 0.01472 0.0
C112 C 0.34789 0.60533 0.99557 0.0
O113 O 0.37116 0.60711 0.00904 0.0
C114 C 0.31066 0.57404 0.041 0.0
O115 O 0.31047 0.55594 0.02556 0.0
O116 O 0.32377 0.69286 0.02495 0.0
C117 C 0.24083 0.87289 0.2556 0.0
O118 O 0.2485 0.89798 0.243 0.0
O119 O 0.325 0.89091 0.23263 0.0
Zn120 Zn 0.3205 0.86287 0.25624 0.0
O121 O 0.34081 0.89464 0.2768 0.0
C122 C 0.37854 0.81126 0.24582 0.0
O123 O 0.39377 0.84371 0.24062 0.0
O124 O 0.26688 0.8533 0.26233 0.0
C125 C 0.33144 0.88428 0.2925 0.0
O126 O 0.31188 0.85266 0.29443 0.0
C127 C 0.34047 0.9235 0.23066 0.0
O128 O 0.3537 0.94146 0.24476 0.0
O129 O 0.34725 0.81217 0.2536 0.0
C130 C 0.25721 0.87052 0.51631 0.0
O131 O 0.24374 0.89577 0.52762 0.0
O132 O 0.16221 0.86938 0.5355 0.0
Zn133 Zn 0.17968 0.84766 0.51172 0.0
O134 O 0.16019 0.87873 0.49093 0.0
C135 C 0.12357 0.79043 0.51207 0.0
O136 O 0.10318 0.82133 0.5105 0.0
O137 O 0.23545 0.84635 0.50904 0.0
C138 C 0.17647 0.87631 0.47588 0.0
O139 O 0.20434 0.85255 0.47415 0.0
C140 C 0.13283 0.88928 0.53629 0.0
O141 O 0.11711 0.90027 0.52132 0.0
O142 O 0.15856 0.79391 0.51147 0.0
C143 C 0.29225 0.64765 0.74878 0.0
O144 O 0.2862 0.62474 0.7351 0.0
O145 O 0.20676 0.63465 0.72359 0.0
Zn146 Zn 0.21462 0.67051 0.7446 0.0
O147 O 0.18208 0.6519 0.76483 0.0
C148 C 0.18096 0.74757 0.7449 0.0
O149 O 0.16668 0.73717 0.76032 0.0
O150 O 0.26663 0.66966 0.75412 0.0
C151 C 0.18853 0.66177 0.78092 0.0
O152 O 0.21493 0.68681 0.78425 0.0
C153 C 0.19678 0.59992 0.72592 0.0
O154 O 0.1946 0.58638 0.74229 0.0
O155 O 0.20164 0.7243 0.73647 0.0
C156 C 0.74318 0.13805 0.51254 0.0
O157 O 0.75539 0.10926 0.52218 0.0
O158 O 0.83636 0.13701 0.53476 0.0
Zn159 Zn 0.82127 0.1599 0.51101 0.0
O160 O 0.8409 0.12813 0.49027 0.0
C161 C 0.879 0.21412 0.51525 0.0
O162 O 0.89711 0.18172 0.51676 0.0
O163 O 0.76588 0.16373 0.50736 0.0
C164 C 0.86976 0.10742 0.4904 0.0
O165 O 0.8907 0.1067 0.50474 0.0
C166 C 0.84239 0.10187 0.5382 0.0
O167 O 0.83361 0.07557 0.5263 0.0
O168 O 0.84472 0.21285 0.51149 0.0
C169 C 0.70559 0.33855 0.75134 0.0
O170 O 0.71224 0.35409 0.73565 0.0
O171 O 0.79474 0.36105 0.73205 0.0
Zn172 Zn 0.78624 0.32874 0.75421 0.0
O173 O 0.81056 0.3525 0.77603 0.0
C174 C 0.82796 0.25672 0.75839 0.0
O175 O 0.84006 0.2719 0.7734 0.0
O176 O 0.73228 0.32551 0.76051 0.0
C177 C 0.83939 0.37349 0.77642 0.0
O178 O 0.85791 0.37967 0.76156 0.0
C179 C 0.79703 0.39749 0.73132 0.0
O180 O 0.79264 0.41785 0.74598 0.0
O181 O 0.80535 0.27546 0.7488 0.0
C182 C 0.79565 0.35832 0.01165 0.0
O183 O 0.79073 0.37541 0.02715 0.0
O184 O 0.71061 0.37513 0.03596 0.0
Zn185 Zn 0.71484 0.34866 0.01185 0.0
O186 O 0.68815 0.38032 0.99329 0.0
C187 C 0.65689 0.29614 0.0199 0.0
O188 O 0.64071 0.32893 0.02356 0.0
O189 O 0.76796 0.34375 0.00363 0.0
C190 C 0.69918 0.38133 0.97713 0.0
O191 O 0.7274 0.36009 0.97232 0.0
C192 C 0.69986 0.40972 0.03748 0.0
O193 O 0.69358 0.42987 0.02295 0.0
O194 O 0.68995 0.29667 0.01409 0.0
C195 C 0.76216 0.17455 0.26642 0.0
O196 O 0.74013 0.19787 0.27515 0.0
O197 O 0.68752 0.11538 0.2273 0.0
Zn198 Zn 0.69407 0.14692 0.24974 0.0
O199 O 0.67057 0.12074 0.27116 0.0
C200 C 0.63637 0.1972 0.23987 0.0
O201 O 0.61975 0.16366 0.2386 0.0
O202 O 0.74865 0.15208 0.25468 0.0
C203 C 0.66093 0.14144 0.28437 0.0
O204 O 0.66496 0.17888 0.28322 0.0
C205 C 0.67047 0.08345 0.22628 0.0
O206 O 0.65646 0.06812 0.24086 0.0
O207 O 0.66986 0.19831 0.24504 0.0
H208 H 0.07817 0.87624 0.33854 0.0
H209 H 0.17892 0.91186 0.24522 0.0
H210 H 0.03992 0.95561 0.29834 0.0
H211 H 0.21845 0.83319 0.28543 0.0
H212 H 0.1217 0.91916 0.26217 0.0
H213 H 0.12298 0.85109 0.31708 0.0
C214 C 0.07866 0.88788 0.32511 0.0
C215 C 0.05567 0.91856 0.32035 0.0
C216 C 0.14267 0.89987 0.26717 0.0
C217 C 0.10719 0.89019 0.29577 0.0
C218 C 0.17537 0.89566 0.25748 0.0
C219 C 0.20381 0.87237 0.26405 0.0
C220 C 0.13843 0.8809 0.28365 0.0
C221 C 0.19745 0.85179 0.27993 0.0
C222 C 0.10438 0.87359 0.31287 0.0
C223 C 0.05747 0.93234 0.3027 0.0
N224 N 0.16568 0.85698 0.28932 0.0
N225 N 0.08313 0.91844 0.29116 0.0
H226 H 0.08712 0.56236 0.55408 0.0
H227 H 0.05111 0.77692 0.52052 0.0
H228 H 0.9902 0.62747 0.56828 0.0
H229 H 0.15677 0.72045 0.51681 0.0
H230 H 0.02479 0.71875 0.5337 0.0
H231 H 0.10931 0.61655 0.53637 0.0
C232 C 0.07035 0.58799 0.55341 0.0
C233 C 0.03682 0.59045 0.5628 0.0
C234 C 0.05365 0.71899 0.52986 0.0
C235 C 0.06217 0.65269 0.54245 0.0
C236 C 0.0687 0.75213 0.52223 0.0
C237 C 0.10633 0.7537 0.51767 0.0
C238 C 0.0763 0.68706 0.53287 0.0
C239 C 0.12769 0.72063 0.52022 0.0
C240 C 0.08311 0.61896 0.54329 0.0
C241 C 0.0163 0.62439 0.56134 0.0
N242 N 0.11242 0.68875 0.52774 0.0
N243 N 0.02936 0.65425 0.5514 0.0
H244 H 0.43323 0.63329 0.8407 0.0
H245 H 0.35182 0.60108 0.74263 0.0
H246 H 0.47521 0.55005 0.80305 0.0
H247 H 0.31016 0.68559 0.77975 0.0
H248 H 0.40335 0.58902 0.76291 0.0
H249 H 0.39452 0.65999 0.81698 0.0
C250 C 0.43483 0.62107 0.82739 0.0
C251 C 0.45706 0.58899 0.82394 0.0
C252 C 0.38318 0.61055 0.76653 0.0
C253 C 0.41258 0.6191 0.79679 0.0
C254 C 0.35374 0.61746 0.75493 0.0
C255 C 0.32631 0.64398 0.75959 0.0
C256 C 0.38511 0.63009 0.78299 0.0
C257 C 0.33045 0.66458 0.77567 0.0
C258 C 0.41261 0.63622 0.81385 0.0
C259 C 0.45808 0.57443 0.8064 0.0
N260 N 0.35899 0.65685 0.78688 0.0
N261 N 0.43582 0.58926 0.79357 0.0
H262 H 0.4248 0.94787 0.02732 0.0
H263 H 0.36953 0.72864 0.04484 0.0
H264 H 0.46954 0.87969 0.07031 0.0
H265 H 0.33927 0.78946 0.99676 0.0
H266 H 0.40587 0.78415 0.05437 0.0
H267 H 0.39349 0.89058 0.0157 0.0
C268 C 0.42832 0.92081 0.03424 0.0
C269 C 0.44974 0.91867 0.04987 0.0
C270 C 0.39142 0.78537 0.04169 0.0
C271 C 0.41362 0.85306 0.03674 0.0
C272 C 0.37051 0.75368 0.03626 0.0
C273 C 0.35114 0.75439 0.01999 0.0
C274 C 0.39286 0.8183 0.03088 0.0
C275 C 0.35368 0.78763 0.00941 0.0
C276 C 0.4104 0.88811 0.02759 0.0
C277 C 0.45332 0.88278 0.05823 0.0
N278 N 0.37399 0.81834 0.01509 0.0
N279 N 0.43522 0.85152 0.05165 0.0
H280 H 0.01964 0.55672 0.96373 0.0
H281 H 0.19261 0.68377 0.9944 0.0
H282 H 0.06699 0.64872 0.93239 0.0
H283 H 0.15883 0.57829 0.02009 0.0
H284 H 0.13691 0.68111 0.97596 0.0
H285 H 0.0601 0.5746 0.9886 0.0
C286 C 0.03791 0.58123 0.96219 0.0
C287 C 0.04043 0.60077 0.94579 0.0
C288 C 0.14142 0.65886 0.98582 0.0
C289 C 0.08701 0.62116 0.9742 0.0
C290 C 0.17318 0.66041 0.99641 0.0
C291 C 0.18078 0.63083 0.00861 0.0
C292 C 0.11701 0.62755 0.98745 0.0
C293 C 0.15441 0.60143 0.01069 0.0
C294 C 0.06116 0.59128 0.97639 0.0
C295 C 0.0645 0.63244 0.94467 0.0
N296 N 0.12395 0.60029 1.00005 0.0
N297 N 0.08721 0.64131 0.95858 0.0
H298 H 0.51172 0.63512 0.19564 0.0
H299 H 0.3534 0.73836 0.25308 0.0
H300 H 0.42087 0.57492 0.22067 0.0
H301 H 0.44343 0.79935 0.22777 0.0
H302 H 0.38037 0.67773 0.24315 0.0
H303 H 0.48984 0.69503 0.20907 0.0
C304 C 0.48735 0.63441 0.20406 0.0
C305 C 0.46801 0.59991 0.20693 0.0
C306 C 0.39437 0.70436 0.23986 0.0
C307 C 0.44269 0.66846 0.2223 0.0
C308 C 0.37898 0.73903 0.24555 0.0
C309 C 0.39602 0.77409 0.24117 0.0
C310 C 0.42703 0.70464 0.22966 0.0
C311 C 0.4292 0.77308 0.2314 0.0
C312 C 0.47483 0.66866 0.21171 0.0
C313 C 0.43661 0.6008 0.21799 0.0
N314 N 0.44348 0.73898 0.2259 0.0
N315 N 0.42486 0.63448 0.22518 0.0
H316 H 0.43789 0.89856 0.4435 0.0
H317 H 0.31315 0.91418 0.53056 0.0
H318 H 0.47097 0.96027 0.49106 0.0
H319 H 0.28943 0.83544 0.48736 0.0
H320 H 0.37397 0.92645 0.5175 0.0
H321 H 0.3871 0.86942 0.46039 0.0
C322 C 0.43502 0.90538 0.45758 0.0
C323 C 0.45847 0.93245 0.46576 0.0
C324 C 0.35569 0.90606 0.51099 0.0
C325 C 0.39988 0.89967 0.48512 0.0
C326 C 0.32089 0.89908 0.51845 0.0
C327 C 0.29594 0.87403 0.50997 0.0
C328 C 0.36554 0.8883 0.49477 0.0
C329 C 0.30766 0.85512 0.49434 0.0
C330 C 0.40586 0.88883 0.46721 0.0
C331 C 0.45337 0.93997 0.48409 0.0
N332 N 0.34136 0.86306 0.48711 0.0
N333 N 0.42431 0.92423 0.49304 0.0
H334 H 0.06793 0.95714 0.71814 0.0
H335 H 0.20405 0.77744 0.7128 0.0
H336 H 0.13289 0.92913 0.67147 0.0
H337 H 0.13583 0.80337 0.75863 0.0
H338 H 0.18427 0.83735 0.69886 0.0
H339 H 0.09909 0.90625 0.73463 0.0
C340 C 0.08918 0.94072 0.71142 0.0
C341 C 0.09749 0.9472 0.69331 0.0
C342 C 0.17384 0.83009 0.71203 0.0
C343 C 0.13299 0.88843 0.71209 0.0
C344 C 0.1851 0.79583 0.72 0.0
C345 C 0.1713 0.78511 0.73686 0.0
C346 C 0.14851 0.85386 0.72093 0.0
C347 C 0.14699 0.81027 0.74557 0.0
C348 C 0.10688 0.91152 0.72085 0.0
C349 C 0.12543 0.92509 0.68538 0.0
N350 N 0.13618 0.84329 0.73746 0.0
N351 N 0.14185 0.8964 0.69475 0.0
H352 H 0.54786 0.37659 0.83357 0.0
H353 H 0.64359 0.37353 0.738 0.0
H354 H 0.50397 0.4347 0.78728 0.0
H355 H 0.68322 0.31044 0.78379 0.0
H356 H 0.58642 0.38696 0.75424 0.0
H357 H 0.59091 0.34251 0.81415 0.0
C358 C 0.54677 0.38164 0.81928 0.0
C359 C 0.52277 0.40914 0.8121 0.0
C360 C 0.60739 0.36967 0.76063 0.0
C361 C 0.57246 0.37067 0.78979 0.0
C362 C 0.64006 0.36197 0.75135 0.0
C363 C 0.66856 0.34146 0.75966 0.0
C364 C 0.60331 0.35695 0.77838 0.0
C365 C 0.66228 0.32693 0.77693 0.0
C366 C 0.57146 0.36223 0.80818 0.0
C367 C 0.52233 0.41415 0.79345 0.0
N368 N 0.6306 0.33542 0.7858 0.0
N369 N 0.54731 0.39567 0.78297 0.0
H370 H 0.50839 0.12423 0.06283 0.0
H371 H 0.68122 0.22258 0.01375 0.0
H372 H 0.59571 0.05988 0.03755 0.0
H373 H 0.58815 0.2858 0.0344 0.0
H374 H 0.64949 0.16254 0.0214 0.0
H375 H 0.536 0.18355 0.05144 0.0
C376 C 0.53317 0.12251 0.05475 0.0
C377 C 0.54983 0.08697 0.05123 0.0
C378 C 0.63593 0.18956 0.02415 0.0
C379 C 0.58187 0.15494 0.03826 0.0
C380 C 0.65406 0.22387 0.0198 0.0
C381 C 0.63744 0.25935 0.02351 0.0
C382 C 0.60098 0.19069 0.03237 0.0
C383 C 0.60213 0.25918 0.03134 0.0
C384 C 0.54898 0.15644 0.04825 0.0
C385 C 0.58193 0.08659 0.04064 0.0
N386 N 0.58522 0.22546 0.03559 0.0
N387 N 0.59704 0.12004 0.03466 0.0
H388 H 0.97413 0.07261 0.28342 0.0
H389 H 0.79623 0.20459 0.29611 0.0
H390 H 0.94251 0.12418 0.3337 0.0
H391 H 0.81672 0.13378 0.24971 0.0
H392 H 0.85745 0.18816 0.30755 0.0
H393 H 0.92487 0.10806 0.26859 0.0
C394 C 0.9573 0.09192 0.29131 0.0
C395 C 0.96203 0.09483 0.30991 0.0
C396 C 0.84872 0.17667 0.29474 0.0
C397 C 0.90538 0.13529 0.293 0.0
C398 C 0.81381 0.18612 0.28817 0.0
C399 C 0.80108 0.17003 0.27206 0.0
C400 C 0.8711 0.1511 0.2851 0.0
C401 C 0.82517 0.14641 0.26232 0.0
C402 C 0.92906 0.11205 0.28282 0.0
C403 C 0.93955 0.12061 0.31938 0.0
N404 N 0.85885 0.13736 0.26907 0.0
N405 N 0.91187 0.13945 0.31086 0.0
H406 H 0.03054 0.37449 0.56444 0.0
H407 H 0.8475 0.285 0.52034 0.0
H408 H 0.92423 0.43019 0.56507 0.0
H409 H 0.95193 0.22592 0.52287 0.0
H410 H 0.87703 0.34183 0.53344 0.0
H411 H 0.0039 0.32276 0.5463 0.0
C412 C 1.00167 0.37596 0.56071 0.0
C413 C 0.97956 0.4066 0.56642 0.0
C414 C 0.89355 0.31653 0.53097 0.0
C415 C 0.94888 0.34753 0.54563 0.0
C416 C 0.87673 0.28414 0.52341 0.0
C417 C 0.89717 0.25051 0.52066 0.0
C418 C 0.93106 0.31527 0.53582 0.0
C419 C 0.93498 0.25108 0.5249 0.0
C420 C 0.98647 0.34642 0.55033 0.0
C421 C 0.94232 0.40703 0.56109 0.0
N422 N 0.95061 0.28278 0.53239 0.0
N423 N 0.92815 0.37789 0.55109 0.0
H424 H 0.56819 0.14679 0.43597 0.0
H425 H 0.68708 0.08788 0.52086 0.0
H426 H 0.53553 0.05759 0.4729 0.0
H427 H 0.71207 0.1861 0.48772 0.0
H428 H 0.62757 0.08127 0.50571 0.0
H429 H 0.61625 0.16702 0.45692 0.0
C430 C 0.57062 0.13189 0.44864 0.0
C431 C 0.54808 0.10003 0.45252 0.0
C432 C 0.64583 0.10461 0.50191 0.0
C433 C 0.60364 0.12269 0.47649 0.0
C434 C 0.67988 0.1084 0.51057 0.0
C435 C 0.7049 0.13729 0.50541 0.0
C436 C 0.63678 0.12965 0.48786 0.0
C437 C 0.69385 0.16319 0.49206 0.0
C438 C 0.59821 0.14341 0.46059 0.0
C439 C 0.55243 0.08207 0.46922 0.0
N440 N 0.66089 0.15842 0.48359 0.0
N441 N 0.58009 0.09322 0.48044 0.0
H442 H 0.96828 0.0616 0.73907 0.0
H443 H 0.80827 0.21696 0.72814 0.0
H444 H 0.89487 0.0658 0.69361 0.0
H445 H 0.88039 0.21107 0.77404 0.0
H446 H 0.83548 0.15776 0.71671 0.0
H447 H 0.93196 0.11163 0.75358 0.0
C448 C 0.94422 0.07266 0.73222 0.0
C449 C 0.93488 0.05971 0.715 0.0
C450 C 0.84517 0.16923 0.72935 0.0
C451 C 0.89333 0.11749 0.7315 0.0
C452 C 0.82967 0.20311 0.73589 0.0
C453 C 0.84229 0.21929 0.75202 0.0
C454 C 0.87367 0.15136 0.73894 0.0
C455 C 0.86993 0.19984 0.76151 0.0
C456 C 0.92352 0.10134 0.74052 0.0
C457 C 0.90324 0.075 0.70686 0.0
N458 N 0.88487 0.1671 0.75476 0.0
N459 N 0.88387 0.10338 0.71509 0.0
H460 H 0.94955 0.39953 0.92702 0.0
H461 H 0.86066 0.38881 0.02425 0.0
H462 H 1.00033 0.44813 0.97422 0.0
H463 H 0.81283 0.33484 0.9776 0.0
H464 H 0.9168 0.40186 0.00709 0.0
H465 H 0.90494 0.36621 0.94608 0.0
C466 C 0.95187 0.40257 0.9414 0.0
C467 C 0.97837 0.42731 0.94898 0.0
C468 C 0.89423 0.38669 1.00066 0.0
C469 C 0.92689 0.38965 0.97091 0.0
C470 C 0.86212 0.37922 0.01047 0.0
C471 C 0.83172 0.36119 1.0023 0.0
C472 C 0.89592 0.37635 0.98248 0.0
C473 C 0.8354 0.34916 0.98443 0.0
C474 C 0.92623 0.38364 0.9523 0.0
C475 C 0.98012 0.4298 0.96774 0.0
N476 N 0.86666 0.35742 0.97506 0.0
N477 N 0.95434 0.41181 0.97802 0.0
H478 H 0.48784 0.35392 0.18721 0.0
H479 H 0.6609 0.27208 0.24142 0.0
H480 H 0.57235 0.42664 0.21019 0.0
H481 H 0.5673 0.20286 0.2254 0.0
H482 H 0.62889 0.32925 0.23044 0.0
H483 H 0.51627 0.29842 0.20154 0.0
C484 C 0.51221 0.35829 0.19539 0.0
C485 C 0.52776 0.39503 0.19744 0.0
C486 C 0.61529 0.30156 0.22944 0.0
C487 C 0.56076 0.33141 0.21378 0.0
C488 C 0.63357 0.2689 0.23569 0.0
C489 C 0.61686 0.23255 0.23426 0.0
C490 C 0.58015 0.29782 0.2216 0.0
C491 C 0.58135 0.23022 0.22675 0.0
C492 C 0.52846 0.32655 0.20357 0.0
C493 C 0.55936 0.39888 0.20823 0.0
N494 N 0.56433 0.26231 0.22061 0.0
N495 N 0.57498 0.36745 0.21587 0.0
H496 H 0.1451 0.96881 0.36986 0.0
H497 H 0.12091 0.92965 0.47468 0.0
H498 H 0.06192 0.02312 0.40258 0.0
H499 H 0.20587 0.87794 0.44214 0.0
H500 H 0.102 0.96818 0.44895 0.0
H501 H 0.17183 0.94064 0.3968 0.0
C502 C 0.13284 0.97543 0.38272 0.0
C503 C 0.10097 0.99809 0.3839 0.0
C504 C 0.1249 0.94854 0.44746 0.0
C505 C 0.13108 0.96532 0.4148 0.0
C506 C 0.13563 0.92643 0.46215 0.0
C507 C 0.16484 0.90029 0.46055 0.0
C508 C 0.14344 0.94444 0.43104 0.0
C509 C 0.18304 0.89752 0.44399 0.0
C510 C 0.148 0.95912 0.39811 0.0
C511 C 0.08637 0.00567 0.40097 0.0
N512 N 0.17193 0.91916 0.42988 0.0
N513 N 0.10125 0.98893 0.41571 0.0
H514 H 0.04916 0.45899 0.66485 0.0
H515 H 0.19884 0.61769 0.69016 0.0
H516 H 0.09935 0.53501 0.62613 0.0
H517 H 0.16146 0.53019 0.72694 0.0
H518 H 0.16727 0.58389 0.66586 0.0
H519 H 0.09456 0.48015 0.687 0.0
C520 C 0.07007 0.47968 0.66091 0.0
C521 C 0.07008 0.4956 0.64366 0.0
C522 C 0.16636 0.57178 0.6792 0.0
C523 C 0.1219 0.52039 0.66905 0.0
C524 C 0.18439 0.59111 0.6931 0.0
C525 C 0.18243 0.57703 0.71067 0.0
C526 C 0.14586 0.53834 0.68291 0.0
C527 C 0.16351 0.54229 0.71363 0.0
C528 C 0.09599 0.49181 0.67358 0.0
C529 C 0.09803 0.52216 0.6393 0.0
N530 N 0.14555 0.52444 0.69995 0.0
N531 N 0.12244 0.53412 0.65198 0.0
H532 H 0.36673 0.54247 0.88394 0.0
H533 H 0.41063 0.56446 0.98815 0.0
H534 H 0.45617 0.48385 0.91043 0.0
H535 H 0.30936 0.60398 0.96404 0.0
H536 H 0.42771 0.5347 0.95968 0.0
H537 H 0.3443 0.56419 0.91313 0.0
C538 C 0.38134 0.53366 0.89589 0.0
C539 C 0.41352 0.51148 0.89469 0.0
C540 C 0.40165 0.54972 0.96064 0.0
C541 C 0.38837 0.53681 0.92812 0.0
C542 C 0.39198 0.56688 0.97688 0.0
C543 C 0.35859 0.58689 0.97848 0.0
C544 C 0.37795 0.55286 0.94583 0.0
C545 C 0.33542 0.58889 0.96343 0.0
C546 C 0.36859 0.54619 0.91256 0.0
C547 C 0.4313 0.50099 0.91066 0.0
N548 N 0.34563 0.57231 0.94772 0.0
N549 N 0.41874 0.5141 0.92667 0.0
H550 H 0.37169 0.93834 0.1168 0.0
H551 H 0.3779 0.98908 0.22107 0.0
H552 H 0.43627 0.03154 0.13891 0.0
H553 H 0.31686 0.89362 0.1987 0.0
H554 H 0.39254 0.01077 0.19075 0.0
H555 H 0.34386 0.92791 0.14615 0.0
C556 C 0.37962 0.95703 0.12775 0.0
C557 C 0.40676 0.98553 0.12541 0.0
C558 C 0.37564 0.98528 0.19247 0.0
C559 C 0.37527 0.97338 0.15919 0.0
C560 C 0.36725 0.97287 0.2098 0.0
C561 C 0.34647 0.9392 0.21246 0.0
C562 C 0.3632 0.96386 0.17769 0.0
C563 C 0.33327 0.91952 0.19732 0.0
C564 C 0.36378 0.95096 0.14456 0.0
C565 C 0.41568 0.00902 0.1401 0.0
N566 N 0.34212 0.93195 0.18062 0.0
N567 N 0.40034 1.0021 0.15642 0.0
H568 H 0.05155 0.6263 0.8732 0.0
H569 H 0.15172 0.59289 0.78114 0.0
H570 H 0.07776 0.51143 0.8559 0.0
H571 H 0.17821 0.69035 0.81458 0.0
H572 H 0.11795 0.56392 0.8063 0.0
H573 H 0.09195 0.65207 0.84984 0.0
C574 C 0.06611 0.60652 0.86452 0.0
C575 C 0.06148 0.56675 0.86642 0.0
C576 C 0.13136 0.59153 0.80809 0.0
C577 C 0.10693 0.596 0.83946 0.0
C578 C 0.1503 0.60824 0.79375 0.0
C579 C 0.16759 0.64417 0.79579 0.0
C580 C 0.12902 0.61136 0.8244 0.0
C581 C 0.16525 0.66263 0.81244 0.0
C582 C 0.08917 0.62123 0.85125 0.0
C583 C 0.08091 0.54229 0.85488 0.0
N584 N 0.14593 0.64622 0.82606 0.0
N585 N 0.10245 0.55735 0.84164 0.0
H586 H 0.45599 0.44843 0.10949 0.0
H587 H 0.30865 0.60019 0.07558 0.0
H588 H 0.40486 0.53224 0.14405 0.0
H589 H 0.3452 0.50433 0.04356 0.0
H590 H 0.33959 0.57242 0.10151 0.0
H591 H 0.41182 0.46467 0.086 0.0
C592 C 0.43515 0.46986 0.11224 0.0
C593 C 0.43445 0.48931 0.12871 0.0
C594 C 0.34047 0.55716 0.08888 0.0
C595 C 0.38402 0.5084 0.10176 0.0
C596 C 0.3228 0.57304 0.07404 0.0
C597 C 0.32464 0.55478 0.0573 0.0
C598 C 0.36057 0.52299 0.08695 0.0
C599 C 0.34318 0.51952 0.05617 0.0
C600 C 0.40991 0.47914 0.0988 0.0
C601 C 0.40664 0.51666 0.13153 0.0
N602 N 0.36085 0.50505 0.07072 0.0
N603 N 0.3829 0.52576 0.11811 0.0
H604 H 0.40593 0.06295 0.36566 0.0
H605 H 0.31932 0.86698 0.32764 0.0
H606 H 0.38441 0.9624 0.39776 0.0
H607 H 0.36364 0.95612 0.2936 0.0
H608 H 0.33358 0.90632 0.35377 0.0
H609 H 0.3796 0.02952 0.33963 0.0
C610 C 0.39469 0.03429 0.36735 0.0
C611 C 0.39745 0.01533 0.38387 0.0
C612 C 0.34014 0.91737 0.3406 0.0
C613 C 0.36799 0.97681 0.35417 0.0
C614 C 0.33208 0.89485 0.32564 0.0
C615 C 0.3406 0.90808 0.30837 0.0
C616 C 0.35674 0.95358 0.33837 0.0
C617 C 0.35691 0.94461 0.30666 0.0
C618 C 0.38012 0.01506 0.35245 0.0
C619 C 0.38296 0.97799 0.38524 0.0
N620 N 0.36453 0.96607 0.32148 0.0
N621 N 0.36914 0.95989 0.37058 0.0
H622 H 0.05979 0.87575 0.64663 0.0
H623 H 0.0689 0.92881 0.54246 0.0
H624 H 0.97851 0.94532 0.61976 0.0
H625 H 0.15143 0.86108 0.56942 0.0
H626 H 0.03398 0.93264 0.57036 0.0
H627 H 0.0907 0.8653 0.61799 0.0
C628 C 0.04792 0.88817 0.63467 0.0
C629 C 0.0166 0.91177 0.63569 0.0
C630 C 0.05974 0.91696 0.5702 0.0
C631 C 0.05246 0.90051 0.60283 0.0
C632 C 0.07986 0.91495 0.55427 0.0
C633 C 0.11329 0.8947 0.55357 0.0
C634 C 0.073 0.89852 0.5856 0.0
C635 C 0.12593 0.87719 0.56933 0.0
C636 C 0.06585 0.88249 0.61832 0.0
C637 C 0.00266 0.9271 0.61968 0.0
N638 N 0.10576 0.87946 0.58468 0.0
N639 N 0.02091 0.92157 0.60397 0.0
H640 H 0.61772 0.47969 0.87911 0.0
H641 H 0.64289 0.43231 0.98285 0.0
H642 H 0.55106 0.52973 0.92095 0.0
H643 H 0.71402 0.38807 0.94133 0.0
H644 H 0.61227 0.47253 0.96063 0.0
H645 H 0.65765 0.45171 0.90191 0.0
C646 C 0.61186 0.48542 0.89308 0.0
C647 C 0.58065 0.50666 0.89811 0.0
C648 C 0.63473 0.4542 0.95639 0.0
C649 C 0.62591 0.4741 0.92431 0.0
C650 C 0.65212 0.43109 0.96907 0.0
C651 C 0.68084 0.40648 0.96392 0.0
C652 C 0.64598 0.4526 0.9384 0.0
C653 C 0.69184 0.40638 0.9459 0.0
C654 C 0.63458 0.46925 0.90611 0.0
C655 C 0.5746 0.51328 0.91643 0.0
N656 N 0.67423 0.42887 0.93377 0.0
N657 N 0.59668 0.49659 0.92886 0.0
H658 H 0.63075 0.06378 0.11373 0.0
H659 H 0.629 0.01937 0.21836 0.0
H660 H 0.5652 0.97344 0.1376 0.0
H661 H 0.69547 0.10797 0.19366 0.0
H662 H 0.61201 0.99587 0.18858 0.0
H663 H 0.66189 0.07347 0.14232 0.0
C664 C 0.62331 0.04554 0.12491 0.0
C665 C 0.59493 0.01815 0.12332 0.0
C666 C 0.63066 0.02017 0.18969 0.0
C667 C 0.63013 0.0295 0.15625 0.0
C668 C 0.64037 0.03362 0.20669 0.0
C669 C 0.66328 0.06604 0.20852 0.0
C670 C 0.64388 0.03935 0.17441 0.0
C671 C 0.67737 0.08317 0.19292 0.0
C672 C 0.64105 0.05115 0.14128 0.0
C673 C 0.58672 0.99511 0.13824 0.0
N674 N 0.66715 0.06987 0.17656 0.0
N675 N 0.60383 1.00171 0.15416 0.0
H676 H 0.98191 0.9585 0.41629 0.0
H677 H 0.83548 0.10505 0.45767 0.0
H678 H 0.90194 0.02001 0.38463 0.0
H679 H 0.92525 0.05473 0.48741 0.0
H680 H 0.85276 0.06619 0.43171 0.0
H681 H 0.95349 0.984 0.4434 0.0
C682 C 0.95788 0.9767 0.41502 0.0
C683 C 0.94472 0.98765 0.39812 0.0
C684 C 0.86853 0.06351 0.44396 0.0
C685 C 0.9124 0.01747 0.42915 0.0
C686 C 0.85874 0.08576 0.45877 0.0
C687 C 0.87921 0.08349 0.47469 0.0
C688 C 0.89892 0.0387 0.44507 0.0
C689 C 0.90891 0.05776 0.47537 0.0
C690 C 0.94183 0.9915 0.43053 0.0
C691 C 0.91332 0.01115 0.39736 0.0
N692 N 0.91796 0.03653 0.46076 0.0
N693 N 0.89856 0.02573 0.41265 0.0
H694 H 0.9186 0.52886 0.65323 0.0
H695 H 0.79262 0.36781 0.69756 0.0
H696 H 0.85748 0.44458 0.62267 0.0
H697 H 0.82647 0.46954 0.72637 0.0
H698 H 0.81571 0.39646 0.66991 0.0
H699 H 0.8844 0.50935 0.68007 0.0
C700 C 0.89764 0.50668 0.65209 0.0
C701 C 0.89119 0.48808 0.63568 0.0
C702 C 0.81777 0.41275 0.68223 0.0
C703 C 0.85238 0.4653 0.66637 0.0
C704 C 0.80468 0.39633 0.69804 0.0
C705 C 0.80782 0.41622 0.71431 0.0
C706 C 0.83473 0.44912 0.68268 0.0
C707 C 0.8235 0.4532 0.71411 0.0
C708 C 0.87815 0.49554 0.66742 0.0
C709 C 0.86364 0.45957 0.63502 0.0
N710 N 0.83682 0.46829 0.69857 0.0
N711 N 0.84564 0.44874 0.65017 0.0
H712 H 0.572 0.99047 0.36756 0.0
H713 H 0.64055 0.17845 0.31489 0.0
H714 H 0.54931 0.10737 0.38298 0.0
H715 H 0.64805 0.06491 0.29191 0.0
H716 H 0.61541 0.15064 0.3421 0.0
H717 H 0.60868 0.01493 0.34203 0.0
C718 C 0.57543 0.02115 0.36578 0.0
C719 C 0.55758 0.04702 0.37726 0.0
C720 C 0.62255 0.13165 0.33115 0.0
C721 C 0.59883 0.07499 0.34835 0.0
C722 C 0.6369 0.14759 0.31555 0.0
C723 C 0.6461 0.12406 0.30099 0.0
C724 C 0.61713 0.09174 0.33234 0.0
C725 C 0.64105 0.08416 0.30277 0.0
C726 C 0.59599 0.03508 0.35118 0.0
C727 C 0.56241 0.08647 0.37434 0.0
N728 N 0.62669 0.0692 0.31815 0.0
N729 N 0.58238 0.09917 0.3602 0.0
H730 H 0.9712 0.10224 0.63614 0.0
H731 H 0.88052 0.03532 0.54402 0.0
H732 H 0.01493 0.01062 0.60351 0.0
H733 H 0.86012 0.14702 0.56704 0.0
H734 H 0.92625 0.02336 0.5674 0.0
H735 H 0.92866 0.11857 0.61188 0.0
C736 C 0.97238 0.08601 0.62377 0.0
C737 C 0.9965 0.05476 0.62197 0.0
C738 C 0.91169 0.05045 0.56735 0.0
C739 C 0.94721 0.07267 0.59438 0.0
C740 C 0.88525 0.05712 0.55413 0.0
C741 C 0.86638 0.0922 0.55358 0.0
C742 C 0.91907 0.07887 0.58025 0.0
C743 C 0.87401 0.11955 0.56695 0.0
C744 C 0.94791 0.0952 0.60998 0.0
C745 C 0.99674 0.0348 0.6056 0.0
N746 N 0.89972 0.11229 0.57975 0.0
N747 N 0.97208 0.04371 0.59257 0.0
H748 H 0.86788 0.43769 0.88745 0.0
H749 H 0.892 0.42957 0.78128 0.0
H750 H 0.93379 0.51922 0.85767 0.0
H751 H 0.81078 0.36244 0.80999 0.0
H752 H 0.90764 0.4628 0.80916 0.0
H753 H 0.84505 0.4111 0.85924 0.0
C754 C 0.87706 0.45048 0.87499 0.0
C755 C 0.90301 0.48058 0.87497 0.0
C756 C 0.88631 0.44088 0.80934 0.0
C757 C 0.87757 0.44969 0.84256 0.0
C758 C 0.87754 0.4217 0.79344 0.0
C759 C 0.85014 0.39303 0.79328 0.0
C760 C 0.86777 0.43115 0.82526 0.0
C761 C 0.83214 0.38429 0.80946 0.0
C762 C 0.86414 0.43514 0.85887 0.0
C763 C 0.91386 0.49598 0.85838 0.0
N764 N 0.84139 0.40313 0.82478 0.0
N765 N 0.90148 0.48003 0.84286 0.0
H766 H 0.5849 0.52996 0.12132 0.0
H767 H 0.71045 0.37686 0.07041 0.0
H768 H 0.63792 0.4345 0.14748 0.0
H769 H 0.66694 0.4785 0.04517 0.0
H770 H 0.68826 0.40043 0.09927 0.0
H771 H 0.61889 0.51487 0.09391 0.0
C772 C 0.60405 0.50616 0.12139 0.0
C773 C 0.60827 0.48325 0.1367 0.0
C774 C 0.68387 0.41779 0.08745 0.0
C775 C 0.64698 0.46554 0.10529 0.0
C776 C 0.69655 0.40432 0.07095 0.0
C777 C 0.69027 0.42555 0.0553 0.0
C778 C 0.66448 0.45262 0.08833 0.0
C779 C 0.67224 0.46104 0.05686 0.0
C780 C 0.62341 0.4975 0.10571 0.0
C781 C 0.63354 0.45281 0.13599 0.0
N782 N 0.65965 0.47325 0.07303 0.0
N783 N 0.65161 0.44461 0.12051 0.0
loop_
_geom_bond_atom_site_label_1
_geom_bond_atom_site_label_2
_geom_bond_distance
_geom_bond_site_symmetry_2
_ccdc_geom_bond_type
Mg0 O7 2.141 1_545 S
Mg0 O8 2.048 1_545 S
Mg0 O9 2.048 1_455 S
Mg0 O12 2.141 1_455 S
C1 O2 1.313 . S
C1 O8 1.195 . S
O2 C1 1.313 . S
C3 O4 1.245 . S
C3 O12 1.289 . S
O4 C3 1.245 . S
C5 O6 1.245 . S
C5 O7 1.289 . S
O6 C5 1.245 . S
O7 Mg0 2.141 1_565 S
O7 C5 1.289 . S
O8 Mg0 2.048 1_565 S
O8 C1 1.195 . S
O9 Mg0 2.048 1_655 S
O9 C10 1.195 . S
C10 O9 1.195 . S
C10 O11 1.313 1_545 S
O11 C10 1.313 1_565 S
O12 Mg0 2.141 1_655 S
O12 C3 1.289 . S
Mg13 O20 2.141 1_655 S
Mg13 O21 2.048 1_655 S
Mg13 O22 2.048 . S
Mg13 O25 2.141 . S
C14 O15 1.313 . S
C14 O21 1.195 . S
O15 C14 1.313 . S
C16 O17 1.245 . S
C16 O25 1.289 . S
O17 C16 1.245 . S
C18 O19 1.245 . S
C18 O20 1.289 . S
O19 C18 1.245 . S
O20 Mg13 2.141 1_455 S
O20 C18 1.289 . S
O21 Mg13 2.048 1_455 S
O21 C14 1.195 . S
O22 Mg13 2.048 . S
O22 C23 1.195 . S
C23 O22 1.195 . S
C23 O24 1.313 1_655 S
O24 C23 1.313 1_455 S
O25 Mg13 2.141 . S
O25 C16 1.289 . S
Mg26 O33 2.141 . S
Mg26 O34 2.048 . S
Mg26 O35 2.048 . S
Mg26 O38 2.141 . S
C27 O28 1.313 . S
C27 O34 1.195 . S
O28 C27 1.313 . S
C29 O30 1.245 . S
C29 O38 1.289 . S
O30 C29 1.245 . S
C31 O32 1.245 . S
C31 O33 1.289 . S
O32 C31 1.245 . S
O33 Mg26 2.141 . S
O33 C31 1.289 . S
O34 Mg26 2.048 . S
O34 C27 1.195 . S
O35 Mg26 2.048 . S
O35 C36 1.195 . S
C36 O35 1.195 . S
C36 O37 1.313 . S
O37 C36 1.313 . S
O38 Mg26 2.141 . S
O38 C29 1.289 . S
Mg39 O46 2.141 . S
Mg39 O47 2.048 . S
Mg39 O48 2.048 1_545 S
Mg39 O51 2.141 1_545 S
C40 O41 1.313 . S
C40 O47 1.195 . S
O41 C40 1.313 . S
C42 O43 1.245 . S
C42 O51 1.289 . S
O43 C42 1.245 . S
C44 O45 1.245 . S
C44 O46 1.289 . S
O45 C44 1.245 . S
O46 Mg39 2.141 . S
O46 C44 1.289 . S
O47 Mg39 2.048 . S
O47 C40 1.195 . S
O48 Mg39 2.048 1_565 S
O48 C49 1.195 . S
C49 O48 1.195 . S
C49 O50 1.313 . S
O50 C49 1.313 . S
O51 Mg39 2.141 1_565 S
O51 C42 1.289 . S
Mg52 O59 2.141 . S
Mg52 O60 2.048 . S
Mg52 O61 2.048 1_455 S
Mg52 O64 2.141 1_455 S
C53 O54 1.313 . S
C53 O60 1.195 . S
O54 C53 1.313 . S
C55 O56 1.245 . S
C55 O64 1.289 . S
O56 C55 1.245 . S
C57 O58 1.245 . S
C57 O59 1.289 . S
O58 C57 1.245 . S
O59 Mg52 2.141 . S
O59 C57 1.289 . S
O60 Mg52 2.048 . S
O60 C53 1.195 . S
O61 Mg52 2.048 1_655 S
O61 C62 1.195 . S
C62 O61 1.195 . S
C62 O63 1.313 . S
O63 C62 1.313 . S
O64 Mg52 2.141 1_655 S
O64 C55 1.289 . S
Mg65 O72 2.141 . S
Mg65 O73 2.048 . S
Mg65 O74 2.048 . S
Mg65 O77 2.141 . S
C66 O67 1.313 . S
C66 O73 1.195 . S
O67 C66 1.313 . S
C68 O69 1.245 . S
C68 O77 1.289 . S
O69 C68 1.245 . S
C70 O71 1.245 . S
C70 O72 1.289 . S
O71 C70 1.245 . S
O72 Mg65 2.141 . S
O72 C70 1.289 . S
O73 Mg65 2.048 . S
O73 C66 1.195 . S
O74 Mg65 2.048 . S
O74 C75 1.195 . S
C75 O74 1.195 . S
C75 O76 1.313 . S
O76 C75 1.313 . S
O77 Mg65 2.141 . S
O77 C68 1.289 . S
Mg78 O85 2.141 1_565 S
Mg78 O86 2.048 1_565 S
Mg78 O87 2.048 . S
Mg78 O90 2.141 . S
C79 O80 1.313 . S
C79 O86 1.195 . S
O80 C79 1.313 . S
C81 O82 1.245 . S
C81 O90 1.289 . S
O82 C81 1.245 . S
C83 O84 1.245 . S
C83 O85 1.289 . S
O84 C83 1.245 . S
O85 Mg78 2.141 1_545 S
O85 C83 1.289 . S
O86 Mg78 2.048 1_545 S
O86 C79 1.195 . S
O87 Mg78 2.048 . S
O87 C88 1.195 . S
C88 O87 1.195 . S
C88 O89 1.313 1_565 S
O89 C88 1.313 1_545 S
O90 Mg78 2.141 . S
O90 C81 1.289 . S
Mg91 O98 2.141 1_655 S
Mg91 O99 2.048 1_655 S
Mg91 O100 2.048 1_565 S
Mg91 O103 2.141 1_565 S
C92 O93 1.313 . S
C92 O99 1.195 . S
O93 C92 1.313 . S
C94 O95 1.245 . S
C94 O103 1.289 . S
O95 C94 1.245 . S
C96 O97 1.245 . S
C96 O98 1.289 . S
O97 C96 1.245 . S
O98 Mg91 2.141 1_455 S
O98 C96 1.289 . S
O99 Mg91 2.048 1_455 S
O99 C92 1.195 . S
O100 Mg91 2.048 1_545 S
O100 C101 1.195 . S
C101 O100 1.195 . S
C101 O102 1.313 1_655 S
O102 C101 1.313 1_455 S
O103 Mg91 2.141 1_545 S
O103 C94 1.289 . S
C104 O105 1.160 1_556 S
C104 O111 1.185 . S
O105 C104 1.160 1_554 S
O106 Zn107 1.899 . S
O106 C114 1.284 . S
Zn107 O106 1.899 . S
Zn107 O108 2.032 1_554 S
Zn107 O111 2.086 1_554 S
Zn107 O116 1.977 . S
O108 Zn107 2.032 1_556 S
O108 C112 1.278 . S
C109 O110 1.203 . S
C109 O116 1.267 . S
O110 C109 1.203 . S
O111 C104 1.185 . S
O111 Zn107 2.086 1_556 S
C112 O108 1.278 . S
C112 O113 1.211 . S
O113 C112 1.211 . S
C114 O106 1.284 . S
C114 O115 1.273 . S
O115 C114 1.273 . S
O116 Zn107 1.977 . S
O116 C109 1.267 . S
C117 O118 1.160 . S
C117 O124 1.185 . S
O118 C117 1.160 . S
O119 Zn120 1.899 . S
O119 C127 1.284 . S
Zn120 O119 1.899 . S
Zn120 O121 2.032 . S
Zn120 O124 2.086 . S
Zn120 O129 1.977 . S
O121 Zn120 2.032 . S
O121 C125 1.278 . S
C122 O123 1.203 . S
C122 O129 1.267 . S
O123 C122 1.203 . S
O124 C117 1.185 . S
O124 Zn120 2.086 . S
C125 O121 1.278 . S
C125 O126 1.211 . S
O126 C125 1.211 . S
C127 O119 1.284 . S
C127 O128 1.273 . S
O128 C127 1.273 . S
O129 Zn120 1.977 . S
O129 C122 1.267 . S
C130 O131 1.160 . S
C130 O137 1.185 . S
O131 C130 1.160 . S
O132 Zn133 1.899 . S
O132 C140 1.284 . S
Zn133 O132 1.899 . S
Zn133 O134 2.032 . S
Zn133 O137 2.086 . S
Zn133 O142 1.977 . S
O134 Zn133 2.032 . S
O134 C138 1.278 . S
C135 O136 1.203 . S
C135 O142 1.267 . S
O136 C135 1.203 . S
O137 C130 1.185 . S
O137 Zn133 2.086 . S
C138 O134 1.278 . S
C138 O139 1.211 . S
O139 C138 1.211 . S
C140 O132 1.284 . S
C140 O141 1.273 . S
O141 C140 1.273 . S
O142 Zn133 1.977 . S
O142 C135 1.267 . S
C143 O144 1.160 . S
C143 O150 1.185 . S
O144 C143 1.160 . S
O145 Zn146 1.899 . S
O145 C153 1.284 . S
Zn146 O145 1.899 . S
Zn146 O147 2.032 . S
Zn146 O150 2.086 . S
Zn146 O155 1.977 . S
O147 Zn146 2.032 . S
O147 C151 1.278 . S
C148 O149 1.203 . S
C148 O155 1.267 . S
O149 C148 1.203 . S
O150 C143 1.185 . S
O150 Zn146 2.086 . S
C151 O147 1.278 . S
C151 O152 1.211 . S
O152 C151 1.211 . S
C153 O145 1.284 . S
C153 O154 1.273 . S
O154 C153 1.273 . S
O155 Zn146 1.977 . S
O155 C148 1.267 . S
C156 O157 1.160 . S
C156 O163 1.185 . S
O157 C156 1.160 . S
O158 Zn159 1.899 . S
O158 C166 1.284 . S
Zn159 O158 1.899 . S
Zn159 O160 2.032 . S
Zn159 O163 2.086 . S
Zn159 O168 1.977 . S
O160 Zn159 2.032 . S
O160 C164 1.278 . S
C161 O162 1.203 . S
C161 O168 1.267 . S
O162 C161 1.203 . S
O163 C156 1.185 . S
O163 Zn159 2.086 . S
C164 O160 1.278 . S
C164 O165 1.211 . S
O165 C164 1.211 . S
C166 O158 1.284 . S
C166 O167 1.273 . S
O167 C166 1.273 . S
O168 Zn159 1.977 . S
O168 C161 1.267 . S
C169 O170 1.160 . S
C169 O176 1.185 . S
O170 C169 1.160 . S
O171 Zn172 1.899 . S
O171 C179 1.284 . S
Zn172 O171 1.899 . S
Zn172 O173 2.032 . S
Zn172 O176 2.086 . S
Zn172 O181 1.977 . S
O173 Zn172 2.032 . S
O173 C177 1.278 . S
C174 O175 1.203 . S
C174 O181 1.267 . S
O175 C174 1.203 . S
O176 C169 1.185 . S
O176 Zn172 2.086 . S
C177 O173 1.278 . S
C177 O178 1.211 . S
O178 C177 1.211 . S
C179 O171 1.284 . S
C179 O180 1.273 . S
O180 C179 1.273 . S
O181 Zn172 1.977 . S
O181 C174 1.267 . S
C182 O183 1.160 1_556 S
C182 O189 1.185 . S
O183 C182 1.160 1_554 S
O184 Zn185 1.899 . S
O184 C192 1.284 . S
Zn185 O184 1.899 . S
Zn185 O186 2.032 1_554 S
Zn185 O189 2.086 1_554 S
Zn185 O194 1.977 . S
O186 Zn185 2.032 1_556 S
O186 C190 1.278 . S
C187 O188 1.203 . S
C187 O194 1.267 . S
O188 C187 1.203 . S
O189 C182 1.185 . S
O189 Zn185 2.086 1_556 S
C190 O186 1.278 . S
C190 O191 1.211 . S
O191 C190 1.211 . S
C192 O184 1.284 . S
C192 O193 1.273 . S
O193 C192 1.273 . S
O194 Zn185 1.977 . S
O194 C187 1.267 . S
C195 O196 1.160 . S
C195 O202 1.185 . S
O196 C195 1.160 . S
O197 Zn198 1.899 . S
O197 C205 1.284 . S
Zn198 O197 1.899 . S
Zn198 O199 2.032 . S
Zn198 O202 2.086 . S
Zn198 O207 1.977 . S
O199 Zn198 2.032 . S
O199 C203 1.278 . S
C200 O201 1.203 . S
C200 O207 1.267 . S
O201 C200 1.203 . S
O202 C195 1.185 . S
O202 Zn198 2.086 . S
C203 O199 1.278 . S
C203 O204 1.211 . S
O204 C203 1.211 . S
C205 O197 1.284 . S
C205 O206 1.273 . S
O206 C205 1.273 . S
O207 Zn198 1.977 . S
O207 C200 1.267 . S
H208 C214 0.930 . S
H209 C218 0.930 . S
H210 C223 0.929 . S
H211 C221 0.929 . S
H212 C216 0.929 . S
H213 C222 0.929 . S
C214 H208 0.930 . S
C214 C215 1.367 . S
C214 C222 1.378 . S
C215 C214 1.367 . S
C215 C223 1.433 . S
C216 H212 0.929 . S
C216 C218 1.378 . S
C216 C220 1.350 . S
C217 C220 1.463 . S
C217 C222 1.350 . S
C217 N225 1.427 . S
C218 H209 0.930 . S
C218 C216 1.378 . S
C218 C219 1.367 . S
C219 C218 1.367 . S
C219 C221 1.433 . S
C220 C216 1.350 . S
C220 C217 1.463 . S
C220 N224 1.427 . S
C221 H211 0.929 . S
C221 C219 1.433 . S
C221 N224 1.384 . S
C222 H213 0.929 . S
C222 C214 1.378 . S
C222 C217 1.350 . S
C223 H210 0.929 . S
C223 C215 1.433 . S
C223 N225 1.384 . S
N224 C220 1.427 . S
N224 C221 1.384 . S
N225 C217 1.427 . S
N225 C223 1.384 . S
H226 C232 0.930 . S
H227 C236 0.930 . S
H228 C241 0.929 . S
H229 C239 0.929 . S
H230 C234 0.929 . S
H231 C240 0.929 . S
C232 H226 0.930 . S
C232 C233 1.367 . S
C232 C240 1.378 . S
C233 C232 1.367 . S
C233 C241 1.433 . S
C234 H230 0.929 . S
C234 C236 1.378 . S
C234 C238 1.350 . S
C235 C238 1.463 . S
C235 C240 1.350 . S
C235 N243 1.427 . S
C236 H227 0.930 . S
C236 C234 1.378 . S
C236 C237 1.367 . S
C237 C236 1.367 . S
C237 C239 1.433 . S
C238 C234 1.350 . S
C238 C235 1.463 . S
C238 N242 1.427 . S
C239 H229 0.929 . S
C239 C237 1.433 . S
C239 N242 1.384 . S
C240 H231 0.929 . S
C240 C232 1.378 . S
C240 C235 1.350 . S
C241 H228 0.929 . S
C241 C233 1.433 . S
C241 N243 1.384 . S
N242 C238 1.427 . S
N242 C239 1.384 . S
N243 C235 1.427 . S
N243 C241 1.384 . S
H244 C250 0.930 . S
H245 C254 0.930 . S
H246 C259 0.929 . S
H247 C257 0.929 . S
H248 C252 0.929 . S
H249 C258 0.929 . S
C250 H244 0.930 . S
C250 C251 1.367 . S
C250 C258 1.378 . S
C251 C250 1.367 . S
C251 C259 1.433 . S
C252 H248 0.929 . S
C252 C254 1.378 . S
C252 C256 1.350 . S
C253 C256 1.463 . S
C253 C258 1.350 . S
C253 N261 1.427 . S
C254 H245 0.930 . S
C254 C252 1.378 . S
C254 C255 1.367 . S
C255 C254 1.367 . S
C255 C257 1.433 . S
C256 C252 1.350 . S
C256 C253 1.463 . S
C256 N260 1.427 . S
C257 H247 0.929 . S
C257 C255 1.433 . S
C257 N260 1.384 . S
C258 H249 0.929 . S
C258 C250 1.378 . S
C258 C253 1.350 . S
C259 H246 0.929 . S
C259 C251 1.433 . S
C259 N261 1.384 . S
N260 C256 1.427 . S
N260 C257 1.384 . S
N261 C253 1.427 . S
N261 C259 1.384 . S
H262 C268 0.930 . S
H263 C272 0.930 . S
H264 C277 0.929 . S
H265 C275 0.929 1_556 S
H266 C270 0.929 . S
H267 C276 0.929 . S
C268 H262 0.930 . S
C268 C269 1.367 . S
C268 C276 1.378 . S
C269 C268 1.367 . S
C269 C277 1.433 . S
C270 H266 0.929 . S
C270 C272 1.378 . S
C270 C274 1.350 . S
C271 C274 1.463 . S
C271 C276 1.350 . S
C271 N279 1.427 . S
C272 H263 0.930 . S
C272 C270 1.378 . S
C272 C273 1.367 . S
C273 C272 1.367 . S
C273 C275 1.433 . S
C274 C270 1.350 . S
C274 C271 1.463 . S
C274 N278 1.427 . S
C275 H265 0.929 1_554 S
C275 C273 1.433 . S
C275 N278 1.384 . S
C276 H267 0.929 . S
C276 C268 1.378 . S
C276 C271 1.350 . S
C277 H264 0.929 . S
C277 C269 1.433 . S
C277 N279 1.384 . S
N278 C274 1.427 . S
N278 C275 1.384 . S
N279 C271 1.427 . S
N279 C277 1.384 . S
H280 C286 0.930 . S
H281 C290 0.930 . S
H282 C295 0.929 . S
H283 C293 0.929 . S
H284 C288 0.929 . S
H285 C294 0.929 . S
C286 H280 0.930 . S
C286 C287 1.367 . S
C286 C294 1.378 . S
C287 C286 1.367 . S
C287 C295 1.433 . S
C288 H284 0.929 . S
C288 C290 1.378 . S
C288 C292 1.350 . S
C289 C292 1.463 . S
C289 C294 1.350 . S
C289 N297 1.427 . S
C290 H281 0.930 . S
C290 C288 1.378 . S
C290 C291 1.367 . S
C291 C290 1.367 . S
C291 C293 1.433 . S
C292 C288 1.350 . S
C292 C289 1.463 . S
C292 N296 1.427 . S
C293 H283 0.929 . S
C293 C291 1.433 . S
C293 N296 1.384 . S
C294 H285 0.929 . S
C294 C286 1.378 . S
C294 C289 1.350 . S
C295 H282 0.929 . S
C295 C287 1.433 . S
C295 N297 1.384 . S
N296 C292 1.427 . S
N296 C293 1.384 . S
N297 C289 1.427 . S
N297 C295 1.384 . S
H298 C304 0.930 . S
H299 C308 0.930 . S
H300 C313 0.929 . S
H301 C311 0.929 . S
H302 C306 0.929 . S
H303 C312 0.929 . S
C304 H298 0.930 . S
C304 C305 1.367 . S
C304 C312 1.378 . S
C305 C304 1.367 . S
C305 C313 1.433 . S
C306 H302 0.929 . S
C306 C308 1.378 . S
C306 C310 1.350 . S
C307 C310 1.463 . S
C307 C312 1.350 . S
C307 N315 1.427 . S
C308 H299 0.930 . S
C308 C306 1.378 . S
C308 C309 1.367 . S
C309 C308 1.367 . S
C309 C311 1.433 . S
C310 C306 1.350 . S
C310 C307 1.463 . S
C310 N314 1.427 . S
C311 H301 0.929 . S
C311 C309 1.433 . S
C311 N314 1.384 . S
C312 H303 0.929 . S
C312 C304 1.378 . S
C312 C307 1.350 . S
C313 H300 0.929 . S
C313 C305 1.433 . S
C313 N315 1.384 . S
N314 C310 1.427 . S
N314 C311 1.384 . S
N315 C307 1.427 . S
N315 C313 1.384 . S
H316 C322 0.930 . S
H317 C326 0.930 . S
H318 C331 0.929 . S
H319 C329 0.929 . S
H320 C324 0.929 . S
H321 C330 0.929 . S
C322 H316 0.930 . S
C322 C323 1.367 . S
C322 C330 1.378 . S
C323 C322 1.367 . S
C323 C331 1.433 . S
C324 H320 0.929 . S
C324 C326 1.378 . S
C324 C328 1.350 . S
C325 C328 1.463 . S
C325 C330 1.350 . S
C325 N333 1.427 . S
C326 H317 0.930 . S
C326 C324 1.378 . S
C326 C327 1.367 . S
C327 C326 1.367 . S
C327 C329 1.433 . S
C328 C324 1.350 . S
C328 C325 1.463 . S
C328 N332 1.427 . S
C329 H319 0.929 . S
C329 C327 1.433 . S
C329 N332 1.384 . S
C330 H321 0.929 . S
C330 C322 1.378 . S
C330 C325 1.350 . S
C331 H318 0.929 . S
C331 C323 1.433 . S
C331 N333 1.384 . S
N332 C328 1.427 . S
N332 C329 1.384 . S
N333 C325 1.427 . S
N333 C331 1.384 . S
H334 C340 0.930 . S
H335 C344 0.930 . S
H336 C349 0.929 . S
H337 C347 0.929 . S
H338 C342 0.929 . S
H339 C348 0.929 . S
C340 H334 0.930 . S
C340 C341 1.367 . S
C340 C348 1.378 . S
C341 C340 1.367 . S
C341 C349 1.433 . S
C342 H338 0.929 . S
C342 C344 1.378 . S
C342 C346 1.350 . S
C343 C346 1.463 . S
C343 C348 1.350 . S
C343 N351 1.427 . S
C344 H335 0.930 . S
C344 C342 1.378 . S
C344 C345 1.367 . S
C345 C344 1.367 . S
C345 C347 1.433 . S
C346 C342 1.350 . S
C346 C343 1.463 . S
C346 N350 1.427 . S
C347 H337 0.929 . S
C347 C345 1.433 . S
C347 N350 1.384 . S
C348 H339 0.929 . S
C348 C340 1.378 . S
C348 C343 1.350 . S
C349 H336 0.929 . S
C349 C341 1.433 . S
C349 N351 1.384 . S
N350 C346 1.427 . S
N350 C347 1.384 . S
N351 C343 1.427 . S
N351 C349 1.384 . S
H352 C358 0.930 . S
H353 C362 0.930 . S
H354 C367 0.929 . S
H355 C365 0.929 . S
H356 C360 0.929 . S
H357 C366 0.929 . S
C358 H352 0.930 . S
C358 C359 1.367 . S
C358 C366 1.378 . S
C359 C358 1.367 . S
C359 C367 1.433 . S
C360 H356 0.929 . S
C360 C362 1.378 . S
C360 C364 1.350 . S
C361 C364 1.463 . S
C361 C366 1.350 . S
C361 N369 1.427 . S
C362 H353 0.930 . S
C362 C360 1.378 . S
C362 C363 1.367 . S
C363 C362 1.367 . S
C363 C365 1.433 . S
C364 C360 1.350 . S
C364 C361 1.463 . S
C364 N368 1.427 . S
C365 H355 0.929 . S
C365 C363 1.433 . S
C365 N368 1.384 . S
C366 H357 0.929 . S
C366 C358 1.378 . S
C366 C361 1.350 . S
C367 H354 0.929 . S
C367 C359 1.433 . S
C367 N369 1.384 . S
N368 C364 1.427 . S
N368 C365 1.384 . S
N369 C361 1.427 . S
N369 C367 1.384 . S
H370 C376 0.930 . S
H371 C380 0.930 . S
H372 C385 0.929 . S
H373 C383 0.953 . S
H374 C378 0.929 . S
H375 C384 0.929 . S
C376 H370 0.930 . S
C376 C377 1.367 . S
C376 C384 1.378 . S
C377 C376 1.367 . S
C377 C385 1.433 . S
C378 H374 0.929 . S
C378 C380 1.378 . S
C378 C382 1.350 . S
C379 C382 1.463 . S
C379 C384 1.350 . S
C379 N387 1.427 . S
C380 H371 0.930 . S
C380 C378 1.378 . S
C380 C381 1.367 . S
C381 C380 1.367 . S
C381 C383 1.433 . S
C382 C378 1.350 . S
C382 C379 1.463 . S
C382 N386 1.427 . S
C383 H373 0.953 . S
C383 C381 1.433 . S
C383 N386 1.384 . S
C384 H375 0.929 . S
C384 C376 1.378 . S
C384 C379 1.350 . S
C385 H372 0.929 . S
C385 C377 1.433 . S
C385 N387 1.384 . S
N386 C382 1.427 . S
N386 C383 1.384 . S
N387 C379 1.427 . S
N387 C385 1.384 . S
H388 C394 0.930 . S
H389 C398 0.930 . S
H390 C403 0.929 . S
H391 C401 0.929 . S
H392 C396 0.929 . S
H393 C402 0.929 . S
C394 H388 0.930 . S
C394 C395 1.367 . S
C394 C402 1.378 . S
C395 C394 1.367 . S
C395 C403 1.433 . S
C396 H392 0.929 . S
C396 C398 1.378 . S
C396 C400 1.350 . S
C397 C400 1.463 . S
C397 C402 1.350 . S
C397 N405 1.427 . S
C398 H389 0.930 . S
C398 C396 1.378 . S
C398 C399 1.367 . S
C399 C398 1.367 . S
C399 C401 1.433 . S
C400 C396 1.350 . S
C400 C397 1.463 . S
C400 N404 1.427 . S
C401 H391 0.929 . S
C401 C399 1.433 . S
C401 N404 1.384 . S
C402 H393 0.929 . S
C402 C394 1.378 . S
C402 C397 1.350 . S
C403 H390 0.929 . S
C403 C395 1.433 . S
C403 N405 1.384 . S
N404 C400 1.427 . S
N404 C401 1.384 . S
N405 C397 1.427 . S
N405 C403 1.384 . S
H406 C412 0.930 . S
H407 C416 0.930 . S
H408 C421 0.929 . S
H409 C419 0.929 . S
H410 C414 0.929 . S
H411 C420 0.929 . S
C412 H406 0.930 . S
C412 C413 1.367 . S
C412 C420 1.378 . S
C413 C412 1.367 . S
C413 C421 1.433 . S
C414 H410 0.929 . S
C414 C416 1.378 . S
C414 C418 1.350 . S
C415 C418 1.463 . S
C415 C420 1.350 . S
C415 N423 1.427 . S
C416 H407 0.930 . S
C416 C414 1.378 . S
C416 C417 1.367 . S
C417 C416 1.367 . S
C417 C419 1.433 . S
C418 C414 1.350 . S
C418 C415 1.463 . S
C418 N422 1.427 . S
C419 H409 0.929 . S
C419 C417 1.433 . S
C419 N422 1.384 . S
C420 H411 0.929 . S
C420 C412 1.378 . S
C420 C415 1.350 . S
C421 H408 0.929 . S
C421 C413 1.433 . S
C421 N423 1.384 . S
N422 C418 1.427 . S
N422 C419 1.384 . S
N423 C415 1.427 . S
N423 C421 1.384 . S
H424 C430 0.930 . S
H425 C434 0.930 . S
H426 C439 0.929 . S
H427 C437 0.929 . S
H428 C432 0.929 . S
H429 C438 0.929 . S
C430 H424 0.930 . S
C430 C431 1.367 . S
C430 C438 1.378 . S
C431 C430 1.367 . S
C431 C439 1.433 . S
C432 H428 0.929 . S
C432 C434 1.378 . S
C432 C436 1.350 . S
C433 C436 1.463 . S
C433 C438 1.350 . S
C433 N441 1.427 . S
C434 H425 0.930 . S
C434 C432 1.378 . S
C434 C435 1.367 . S
C435 C434 1.367 . S
C435 C437 1.433 . S
C436 C432 1.350 . S
C436 C433 1.463 . S
C436 N440 1.427 . S
C437 H427 0.929 . S
C437 C435 1.433 . S
C437 N440 1.384 . S
C438 H429 0.929 . S
C438 C430 1.378 . S
C438 C433 1.350 . S
C439 H426 0.929 . S
C439 C431 1.433 . S
C439 N441 1.384 . S
N440 C436 1.427 . S
N440 C437 1.384 . S
N441 C433 1.427 . S
N441 C439 1.384 . S
H442 C448 0.930 . S
H443 C452 0.930 . S
H444 C457 0.929 . S
H445 C455 0.929 . S
H446 C450 0.929 . S
H447 C456 0.929 . S
C448 H442 0.930 . S
C448 C449 1.367 . S
C448 C456 1.378 . S
C449 C448 1.367 . S
C449 C457 1.433 . S
C450 H446 0.929 . S
C450 C452 1.378 . S
C450 C454 1.350 . S
C451 C454 1.463 . S
C451 C456 1.350 . S
C451 N459 1.427 . S
C452 H443 0.930 . S
C452 C450 1.378 . S
C452 C453 1.367 . S
C453 C452 1.367 . S
C453 C455 1.433 . S
C454 C450 1.350 . S
C454 C451 1.463 . S
C454 N458 1.427 . S
C455 H445 0.929 . S
C455 C453 1.433 . S
C455 N458 1.384 . S
C456 H447 0.929 . S
C456 C448 1.378 . S
C456 C451 1.350 . S
C457 H444 0.929 . S
C457 C449 1.433 . S
C457 N459 1.384 . S
N458 C454 1.427 . S
N458 C455 1.384 . S
N459 C451 1.427 . S
N459 C457 1.384 . S
H460 C466 0.930 . S
H461 C470 0.930 1_554 S
H462 C475 0.929 . S
H463 C473 0.929 . S
H464 C468 0.929 . S
H465 C474 0.929 . S
C466 H460 0.930 . S
C466 C467 1.367 . S
C466 C474 1.378 . S
C467 C466 1.367 . S
C467 C475 1.433 . S
C468 H464 0.929 . S
C468 C470 1.378 . S
C468 C472 1.350 . S
C469 C472 1.463 . S
C469 C474 1.350 . S
C469 N477 1.427 . S
C470 H461 0.930 1_556 S
C470 C468 1.378 . S
C470 C471 1.367 . S
C471 C470 1.367 . S
C471 C473 1.433 . S
C472 C468 1.350 . S
C472 C469 1.463 . S
C472 N476 1.427 . S
C473 H463 0.929 . S
C473 C471 1.433 . S
C473 N476 1.384 . S
C474 H465 0.929 . S
C474 C466 1.378 . S
C474 C469 1.350 . S
C475 H462 0.929 . S
C475 C467 1.433 . S
C475 N477 1.384 . S
N476 C472 1.427 . S
N476 C473 1.384 . S
N477 C469 1.427 . S
N477 C475 1.384 . S
H478 C484 0.930 . S
H479 C488 0.930 . S
H480 C493 0.929 . S
H481 C491 0.929 . S
H482 C486 0.929 . S
H483 C492 0.929 . S
C484 H478 0.930 . S
C484 C485 1.367 . S
C484 C492 1.378 . S
C485 C484 1.367 . S
C485 C493 1.433 . S
C486 H482 0.929 . S
C486 C488 1.378 . S
C486 C490 1.350 . S
C487 C490 1.463 . S
C487 C492 1.350 . S
C487 N495 1.427 . S
C488 H479 0.930 . S
C488 C486 1.378 . S
C488 C489 1.367 . S
C489 C488 1.367 . S
C489 C491 1.433 . S
C490 C486 1.350 . S
C490 C487 1.463 . S
C490 N494 1.427 . S
C491 H481 0.929 . S
C491 C489 1.433 . S
C491 N494 1.384 . S
C492 H483 0.929 . S
C492 C484 1.378 . S
C492 C487 1.350 . S
C493 H480 0.929 . S
C493 C485 1.433 . S
C493 N495 1.384 . S
N494 C490 1.427 . S
N494 C491 1.384 . S
N495 C487 1.427 . S
N495 C493 1.384 . S
H496 C502 0.930 . S
H497 C506 0.930 . S
H498 C511 0.929 . S
H499 C509 0.929 . S
H500 C504 0.929 . S
H501 C510 0.929 . S
C502 H496 0.930 . S
C502 C503 1.367 . S
C502 C510 1.378 . S
C503 C502 1.367 . S
C503 C511 1.433 . S
C504 H500 0.929 . S
C504 C506 1.378 . S
C504 C508 1.350 . S
C505 C508 1.463 . S
C505 C510 1.350 . S
C505 N513 1.427 . S
C506 H497 0.930 . S
C506 C504 1.378 . S
C506 C507 1.367 . S
C507 C506 1.367 . S
C507 C509 1.433 . S
C508 C504 1.350 . S
C508 C505 1.463 . S
C508 N512 1.427 . S
C509 H499 0.929 . S
C509 C507 1.433 . S
C509 N512 1.384 . S
C510 H501 0.929 . S
C510 C502 1.378 . S
C510 C505 1.350 . S
C511 H498 0.929 . S
C511 C503 1.433 . S
C511 N513 1.384 . S
N512 C508 1.427 . S
N512 C509 1.384 . S
N513 C505 1.427 . S
N513 C511 1.384 . S
H514 C520 0.930 . S
H515 C524 0.930 . S
H516 C529 0.929 . S
H517 C527 0.929 . S
H518 C522 0.929 . S
H519 C528 0.929 . S
C520 H514 0.930 . S
C520 C521 1.367 . S
C520 C528 1.378 . S
C521 C520 1.367 . S
C521 C529 1.433 . S
C522 H518 0.929 . S
C522 C524 1.378 . S
C522 C526 1.350 . S
C523 C526 1.463 . S
C523 C528 1.350 . S
C523 N531 1.427 . S
C524 H515 0.930 . S
C524 C522 1.378 . S
C524 C525 1.367 . S
C525 C524 1.367 . S
C525 C527 1.433 . S
C526 C522 1.350 . S
C526 C523 1.463 . S
C526 N530 1.427 . S
C527 H517 0.929 . S
C527 C525 1.433 . S
C527 N530 1.384 . S
C528 H519 0.929 . S
C528 C520 1.378 . S
C528 C523 1.350 . S
C529 H516 0.929 . S
C529 C521 1.433 . S
C529 N531 1.384 . S
N530 C526 1.427 . S
N530 C527 1.384 . S
N531 C523 1.427 . S
N531 C529 1.384 . S
H532 C538 0.930 . S
H533 C542 0.930 . S
H534 C547 0.929 . S
H535 C545 0.929 . S
H536 C540 0.929 . S
H537 C546 0.929 . S
C538 H532 0.930 . S
C538 C539 1.367 . S
C538 C546 1.378 . S
C539 C538 1.367 . S
C539 C547 1.433 . S
C540 H536 0.929 . S
C540 C542 1.378 . S
C540 C544 1.350 . S
C541 C544 1.463 . S
C541 C546 1.350 . S
C541 N549 1.427 . S
C542 H533 0.930 . S
C542 C540 1.378 . S
C542 C543 1.367 . S
C543 C542 1.367 . S
C543 C545 1.433 . S
C544 C540 1.350 . S
C544 C541 1.463 . S
C544 N548 1.427 . S
C545 H535 0.929 . S
C545 C543 1.433 . S
C545 N548 1.384 . S
C546 H537 0.929 . S
C546 C538 1.378 . S
C546 C541 1.350 . S
C547 H534 0.929 . S
C547 C539 1.433 . S
C547 N549 1.384 . S
N548 C544 1.427 . S
N548 C545 1.384 . S
N549 C541 1.427 . S
N549 C547 1.384 . S
H550 C556 0.930 . S
H551 C560 0.930 . S
H552 C565 0.929 . S
H553 C563 0.929 . S
H554 C558 0.929 . S
H555 C564 0.929 . S
C556 H550 0.930 . S
C556 C557 1.367 . S
C556 C564 1.378 . S
C557 C556 1.367 . S
C557 C565 1.433 . S
C558 H554 0.929 . S
C558 C560 1.378 . S
C558 C562 1.350 . S
C559 C562 1.463 . S
C559 C564 1.350 . S
C559 N567 1.427 . S
C560 H551 0.930 . S
C560 C558 1.378 . S
C560 C561 1.367 . S
C561 C560 1.367 . S
C561 C563 1.433 . S
C562 C558 1.350 . S
C562 C559 1.463 . S
C562 N566 1.427 . S
C563 H553 0.929 . S
C563 C561 1.433 . S
C563 N566 1.384 . S
C564 H555 0.929 . S
C564 C556 1.378 . S
C564 C559 1.350 . S
C565 H552 0.929 . S
C565 C557 1.433 . S
C565 N567 1.384 . S
N566 C562 1.427 . S
N566 C563 1.384 . S
N567 C559 1.427 . S
N567 C565 1.384 . S
H568 C574 0.930 . S
H569 C578 0.930 . S
H570 C583 0.929 . S
H571 C581 0.929 . S
H572 C576 0.929 . S
H573 C582 0.929 . S
C574 H568 0.930 . S
C574 C575 1.367 . S
C574 C582 1.378 . S
C575 C574 1.367 . S
C575 C583 1.433 . S
C576 H572 0.929 . S
C576 C578 1.378 . S
C576 C580 1.350 . S
C577 C580 1.463 . S
C577 C582 1.350 . S
C577 N585 1.427 . S
C578 H569 0.930 . S
C578 C576 1.378 . S
C578 C579 1.367 . S
C579 C578 1.367 . S
C579 C581 1.433 . S
C580 C576 1.350 . S
C580 C577 1.463 . S
C580 N584 1.427 . S
C581 H571 0.929 . S
C581 C579 1.433 . S
C581 N584 1.384 . S
C582 H573 0.929 . S
C582 C574 1.378 . S
C582 C577 1.350 . S
C583 H570 0.929 . S
C583 C575 1.433 . S
C583 N585 1.384 . S
N584 C580 1.427 . S
N584 C581 1.384 . S
N585 C577 1.427 . S
N585 C583 1.384 . S
H586 C592 0.930 . S
H587 C596 0.930 . S
H588 C601 0.929 . S
H589 C599 0.929 . S
H590 C594 0.929 . S
H591 C600 0.929 . S
C592 H586 0.930 . S
C592 C593 1.367 . S
C592 C600 1.378 . S
C593 C592 1.367 . S
C593 C601 1.433 . S
C594 H590 0.929 . S
C594 C596 1.378 . S
C594 C598 1.350 . S
C595 C598 1.463 . S
C595 C600 1.350 . S
C595 N603 1.427 . S
C596 H587 0.930 . S
C596 C594 1.378 . S
C596 C597 1.367 . S
C597 C596 1.367 . S
C597 C599 1.433 . S
C598 C594 1.350 . S
C598 C595 1.463 . S
C598 N602 1.427 . S
C599 H589 0.929 . S
C599 C597 1.433 . S
C599 N602 1.384 . S
C600 H591 0.929 . S
C600 C592 1.378 . S
C600 C595 1.350 . S
C601 H588 0.929 . S
C601 C593 1.433 . S
C601 N603 1.384 . S
N602 C598 1.427 . S
N602 C599 1.384 . S
N603 C595 1.427 . S
N603 C601 1.384 . S
H604 C610 0.930 . S
H605 C614 0.930 . S
H606 C619 0.929 . S
H607 C617 0.929 . S
H608 C612 0.929 . S
H609 C618 0.929 . S
C610 H604 0.930 . S
C610 C611 1.367 . S
C610 C618 1.378 . S
C611 C610 1.367 . S
C611 C619 1.433 . S
C612 H608 0.929 . S
C612 C614 1.378 . S
C612 C616 1.350 . S
C613 C616 1.463 . S
C613 C618 1.350 . S
C613 N621 1.427 . S
C614 H605 0.930 . S
C614 C612 1.378 . S
C614 C615 1.367 . S
C615 C614 1.367 . S
C615 C617 1.433 . S
C616 C612 1.350 . S
C616 C613 1.463 . S
C616 N620 1.427 . S
C617 H607 0.929 . S
C617 C615 1.433 . S
C617 N620 1.384 . S
C618 H609 0.929 . S
C618 C610 1.378 . S
C618 C613 1.350 . S
C619 H606 0.929 . S
C619 C611 1.433 . S
C619 N621 1.384 . S
N620 C616 1.427 . S
N620 C617 1.384 . S
N621 C613 1.427 . S
N621 C619 1.384 . S
H622 C628 0.930 . S
H623 C632 0.930 . S
H624 C637 0.929 . S
H625 C635 0.929 . S
H626 C630 0.929 . S
H627 C636 0.929 . S
C628 H622 0.930 . S
C628 C629 1.367 . S
C628 C636 1.378 . S
C629 C628 1.367 . S
C629 C637 1.433 . S
C630 H626 0.929 . S
C630 C632 1.378 . S
C630 C634 1.350 . S
C631 C634 1.463 . S
C631 C636 1.350 . S
C631 N639 1.427 . S
C632 H623 0.930 . S
C632 C630 1.378 . S
C632 C633 1.367 . S
C633 C632 1.367 . S
C633 C635 1.433 . S
C634 C630 1.350 . S
C634 C631 1.463 . S
C634 N638 1.427 . S
C635 H625 0.929 . S
C635 C633 1.433 . S
C635 N638 1.384 . S
C636 H627 0.929 . S
C636 C628 1.378 . S
C636 C631 1.350 . S
C637 H624 0.929 . S
C637 C629 1.433 . S
C637 N639 1.384 . S
N638 C634 1.427 . S
N638 C635 1.384 . S
N639 C631 1.427 . S
N639 C637 1.384 . S
H640 C646 0.930 . S
H641 C650 0.930 . S
H642 C655 0.929 . S
H643 C653 0.929 . S
H644 C648 0.929 . S
H645 C654 0.929 . S
C646 H640 0.930 . S
C646 C647 1.367 . S
C646 C654 1.378 . S
C647 C646 1.367 . S
C647 C655 1.433 . S
C648 H644 0.929 . S
C648 C650 1.378 . S
C648 C652 1.350 . S
C649 C652 1.463 . S
C649 C654 1.350 . S
C649 N657 1.427 . S
C650 H641 0.930 . S
C650 C648 1.378 . S
C650 C651 1.367 . S
C651 C650 1.367 . S
C651 C653 1.433 . S
C652 C648 1.350 . S
C652 C649 1.463 . S
C652 N656 1.427 . S
C653 H643 0.929 . S
C653 C651 1.433 . S
C653 N656 1.384 . S
C654 H645 0.929 . S
C654 C646 1.378 . S
C654 C649 1.350 . S
C655 H642 0.929 . S
C655 C647 1.433 . S
C655 N657 1.384 . S
N656 C652 1.427 . S
N656 C653 1.384 . S
N657 C649 1.427 . S
N657 C655 1.384 . S
H658 C664 0.930 . S
H659 C668 0.930 . S
H660 C673 0.929 . S
H661 C671 0.929 . S
H662 C666 0.929 . S
H663 C672 0.929 . S
C664 H658 0.930 . S
C664 C665 1.367 . S
C664 C672 1.378 . S
C665 C664 1.367 . S
C665 C673 1.433 . S
C666 H662 0.929 . S
C666 C668 1.378 . S
C666 C670 1.350 . S
C667 C670 1.463 . S
C667 C672 1.350 . S
C667 N675 1.427 . S
C668 H659 0.930 . S
C668 C666 1.378 . S
C668 C669 1.367 . S
C669 C668 1.367 . S
C669 C671 1.433 . S
C670 C666 1.350 . S
C670 C667 1.463 . S
C670 N674 1.427 . S
C671 H661 0.929 . S
C671 C669 1.433 . S
C671 N674 1.384 . S
C672 H663 0.929 . S
C672 C664 1.378 . S
C672 C667 1.350 . S
C673 H660 0.929 . S
C673 C665 1.433 . S
C673 N675 1.384 . S
N674 C670 1.427 . S
N674 C671 1.384 . S
N675 C667 1.427 . S
N675 C673 1.384 . S
H676 C682 0.930 . S
H677 C686 0.930 . S
H678 C691 0.929 . S
H679 C689 0.929 . S
H680 C684 0.929 . S
H681 C690 0.929 . S
C682 H676 0.930 . S
C682 C683 1.367 . S
C682 C690 1.378 . S
C683 C682 1.367 . S
C683 C691 1.433 . S
C684 H680 0.929 . S
C684 C686 1.378 . S
C684 C688 1.350 . S
C685 C688 1.463 . S
C685 C690 1.350 . S
C685 N693 1.427 . S
C686 H677 0.930 . S
C686 C684 1.378 . S
C686 C687 1.367 . S
C687 C686 1.367 . S
C687 C689 1.433 . S
C688 C684 1.350 . S
C688 C685 1.463 . S
C688 N692 1.427 . S
C689 H679 0.929 . S
C689 C687 1.433 . S
C689 N692 1.384 . S
C690 H681 0.929 . S
C690 C682 1.378 . S
C690 C685 1.350 . S
C691 H678 0.929 . S
C691 C683 1.433 . S
C691 N693 1.384 . S
N692 C688 1.427 . S
N692 C689 1.384 . S
N693 C685 1.427 . S
N693 C691 1.384 . S
H694 C700 0.930 . S
H695 C704 0.930 . S
H696 C709 0.929 . S
H697 C707 0.929 . S
H698 C702 0.929 . S
H699 C708 0.929 . S
C700 H694 0.930 . S
C700 C701 1.367 . S
C700 C708 1.378 . S
C701 C700 1.367 . S
C701 C709 1.433 . S
C702 H698 0.929 . S
C702 C704 1.378 . S
C702 C706 1.350 . S
C703 C706 1.463 . S
C703 C708 1.350 . S
C703 N711 1.427 . S
C704 H695 0.930 . S
C704 C702 1.378 . S
C704 C705 1.367 . S
C705 C704 1.367 . S
C705 C707 1.433 . S
C706 C702 1.350 . S
C706 C703 1.463 . S
C706 N710 1.427 . S
C707 H697 0.929 . S
C707 C705 1.433 . S
C707 N710 1.384 . S
C708 H699 0.929 . S
C708 C700 1.378 . S
C708 C703 1.350 . S
C709 H696 0.929 . S
C709 C701 1.433 . S
C709 N711 1.384 . S
N710 C706 1.427 . S
N710 C707 1.384 . S
N711 C703 1.427 . S
N711 C709 1.384 . S
H712 C718 0.930 . S
H713 C722 0.930 . S
H714 C727 0.929 . S
H715 C725 0.929 . S
H716 C720 0.929 . S
H717 C726 0.929 . S
C718 H712 0.930 . S
C718 C719 1.367 . S
C718 C726 1.378 . S
C719 C718 1.367 . S
C719 C727 1.433 . S
C720 H716 0.929 . S
C720 C722 1.378 . S
C720 C724 1.350 . S
C721 C724 1.463 . S
C721 C726 1.350 . S
C721 N729 1.427 . S
C722 H713 0.930 . S
C722 C720 1.378 . S
C722 C723 1.367 . S
C723 C722 1.367 . S
C723 C725 1.433 . S
C724 C720 1.350 . S
C724 C721 1.463 . S
C724 N728 1.427 . S
C725 H715 0.929 . S
C725 C723 1.433 . S
C725 N728 1.384 . S
C726 H717 0.929 . S
C726 C718 1.378 . S
C726 C721 1.350 . S
C727 H714 0.929 . S
C727 C719 1.433 . S
C727 N729 1.384 . S
N728 C724 1.427 . S
N728 C725 1.384 . S
N729 C721 1.427 . S
N729 C727 1.384 . S
H730 C736 0.930 . S
H731 C740 0.930 . S
H732 C745 0.929 . S
H733 C743 0.929 . S
H734 C738 0.929 . S
H735 C744 0.929 . S
C736 H730 0.930 . S
C736 C737 1.367 . S
C736 C744 1.378 . S
C737 C736 1.367 . S
C737 C745 1.433 . S
C738 H734 0.929 . S
C738 C740 1.378 . S
C738 C742 1.350 . S
C739 C742 1.463 . S
C739 C744 1.350 . S
C739 N747 1.427 . S
C740 H731 0.930 . S
C740 C738 1.378 . S
C740 C741 1.367 . S
C741 C740 1.367 . S
C741 C743 1.433 . S
C742 C738 1.350 . S
C742 C739 1.463 . S
C742 N746 1.427 . S
C743 H733 0.929 . S
C743 C741 1.433 . S
C743 N746 1.384 . S
C744 H735 0.929 . S
C744 C736 1.378 . S
C744 C739 1.350 . S
C745 H732 0.929 . S
C745 C737 1.433 . S
C745 N747 1.384 . S
N746 C742 1.427 . S
N746 C743 1.384 . S
N747 C739 1.427 . S
N747 C745 1.384 . S
H748 C754 0.930 . S
H749 C758 0.930 . S
H750 C763 0.929 . S
H751 C761 0.929 . S
H752 C756 0.929 . S
H753 C762 0.929 . S
C754 H748 0.930 . S
C754 C755 1.367 . S
C754 C762 1.378 . S
C755 C754 1.367 . S
C755 C763 1.433 . S
C756 H752 0.929 . S
C756 C758 1.378 . S
C756 C760 1.350 . S
C757 C760 1.463 . S
C757 C762 1.350 . S
C757 N765 1.427 . S
C758 H749 0.930 . S
C758 C756 1.378 . S
C758 C759 1.367 . S
C759 C758 1.367 . S
C759 C761 1.433 . S
C760 C756 1.350 . S
C760 C757 1.463 . S
C760 N764 1.427 . S
C761 H751 0.929 . S
C761 C759 1.433 . S
C761 N764 1.384 . S
C762 H753 0.929 . S
C762 C754 1.378 . S
C762 C757 1.350 . S
C763 H750 0.929 . S
C763 C755 1.433 . S
C763 N765 1.384 . S
N764 C760 1.427 . S
N764 C761 1.384 . S
N765 C757 1.427 . S
N765 C763 1.384 . S
H766 C772 0.930 . S
H767 C776 0.930 . S
H768 C781 0.929 . S
H769 C779 0.929 . S
H770 C774 0.929 . S
H771 C780 0.929 . S
C772 H766 0.930 . S
C772 C773 1.367 . S
C772 C780 1.378 . S
C773 C772 1.367 . S
C773 C781 1.433 . S
C774 H770 0.929 . S
C774 C776 1.378 . S
C774 C778 1.350 . S
C775 C778 1.463 . S
C775 C780 1.350 . S
C775 N783 1.427 . S
C776 H767 0.930 . S
C776 C774 1.378 . S
C776 C777 1.367 . S
C777 C776 1.367 . S
C777 C779 1.433 . S
C778 C774 1.350 . S
C778 C775 1.463 . S
C778 N782 1.427 . S
C779 H769 0.929 . S
C779 C777 1.433 . S
C779 N782 1.384 . S
C780 H771 0.929 . S
C780 C772 1.378 . S
C780 C775 1.350 . S
C781 H768 0.929 . S
C781 C773 1.433 . S
C781 N783 1.384 . S
N782 C778 1.427 . S
N782 C779 1.384 . S
N783 C775 1.427 . S
N783 C781 1.384 . S
C219 C117 1.241 . S
C215 C5 1.281 . S
C237 C135 1.191 . S
C233 C18 1.266 . S
C255 C143 1.240 . S
C251 C31 1.281 . S
C269 C42 1.272 . S
C273 C109 1.189 . S
C287 C57 1.291 . S
C291 C104 1.256 . S
C305 C70 1.269 . S
C309 C122 1.196 . S
C327 C130 1.241 . S
C323 C81 1.291 . S
C345 C148 1.190 . S
C341 C96 1.279 . S
C359 C29 1.288 . S
C363 C169 1.240 . S
C381 C187 1.189 . S
C377 C44 1.275 . S
C395 C3 1.290 . S
C399 C195 1.249 . S
C417 C161 1.202 . S
C413 C16 1.265 . S
C431 C83 1.281 . S
C435 C156 1.240 . S
C449 C94 1.269 . S
C453 C174 1.190 . S
C471 C182 1.244 . S
C467 C55 1.286 . S
C485 C68 1.264 . S
C489 C200 1.198 . S
C507 C138 1.349 . S
C503 C1 1.316 . S
C525 C153 1.318 . S
C521 C14 1.316 . S
C539 C27 1.321 . S
C543 C112 1.349 . S
C557 C49 1.349 . S
C561 C127 1.324 . S
C575 C53 1.311 . S
C579 C151 1.348 . S
C597 C114 1.310 . S
C593 C66 1.316 . S
C615 C125 1.348 . S
C611 C88 1.343 . S
C633 C140 1.311 . S
C629 C92 1.325 . S
C651 C190 1.349 . S
C647 C36 1.344 . S
C669 C205 1.309 . S
C665 C40 1.318 . S
C683 C10 1.339 . S
C687 C164 1.348 . S
C705 C179 1.318 . S
C701 C23 1.347 . S
C723 C203 1.348 . S
C719 C79 1.323 . S
C737 C101 1.350 . S
C741 C166 1.308 . S
C759 C177 1.348 . S
C755 C62 1.346 . S
C777 C192 1.314 . S
C773 C75 1.345 . S
