# Generated by pormake.
# Topology anh, (6,3)-cn, num edge types: 1
# Building blocks:
#     Node 0, Type 0, BuildingBlock: BETGAK_clean_sbu_0, # of connection points: 6
#     Node 1, Type 0, BuildingBlock: BETGAK_clean_sbu_0, # of connection points: 6
#     Node 2, Type 0, BuildingBlock: BETGAK_clean_sbu_0, # of connection points: 6
#     Node 3, Type 1, BuildingBlock: OLANEW_clean_sbu_2, # of connection points: 3
#     Node 4, Type 1, BuildingBlock: OLANEW_clean_sbu_2, # of connection points: 3
#     Node 5, Type 1, BuildingBlock: OLANEW_clean_sbu_2, # of connection points: 3
#     Node 6, Type 1, BuildingBlock: OLANEW_clean_sbu_2, # of connection points: 3
#     Node 7, Type 1, BuildingBlock: OLANEW_clean_sbu_2, # of connection points: 3
#     Node 8, Type 1, BuildingBlock: OLANEW_clean_sbu_2, # of connection points: 3
#     Edge 9, Type (0, 1), BuildingBlock: UVAHIK_clean_linker_0, # of connection points: 2
#     Edge 10, Type (0, 1), BuildingBlock: UVAHIK_clean_linker_0, # of connection points: 2
#     Edge 11, Type (0, 1), BuildingBlock: UVAHIK_clean_linker_0, # of connection points: 2
#     Edge 12, Type (0, 1), BuildingBlock: UVAHIK_clean_linker_0, # of connection points: 2
#     Edge 13, Type (0, 1), BuildingBlock: UVAHIK_clean_linker_0, # of connection points: 2
#     Edge 14, Type (0, 1), BuildingBlock: UVAHIK_clean_linker_0, # of connection points: 2
#     Edge 15, Type (0, 1), BuildingBlock: UVAHIK_clean_linker_0, # of connection points: 2
#     Edge 16, Type (0, 1), BuildingBlock: UVAHIK_clean_linker_0, # of connection points: 2
#     Edge 17, Type (0, 1), BuildingBlock: UVAHIK_clean_linker_0, # of connection points: 2
#     Edge 18, Type (0, 1), BuildingBlock: UVAHIK_clean_linker_0, # of connection points: 2
#     Edge 19, Type (0, 1), BuildingBlock: UVAHIK_clean_linker_0, # of connection points: 2
#     Edge 20, Type (0, 1), BuildingBlock: UVAHIK_clean_linker_0, # of connection points: 2
#     Edge 21, Type (0, 1), BuildingBlock: UVAHIK_clean_linker_0, # of connection points: 2
#     Edge 22, Type (0, 1), BuildingBlock: UVAHIK_clean_linker_0, # of connection points: 2
#     Edge 23, Type (0, 1), BuildingBlock: UVAHIK_clean_linker_0, # of connection points: 2
#     Edge 24, Type (0, 1), BuildingBlock: UVAHIK_clean_linker_0, # of connection points: 2
#     Edge 25, Type (0, 1), BuildingBlock: UVAHIK_clean_linker_0, # of connection points: 2
#     Edge 26, Type (0, 1), BuildingBlock: UVAHIK_clean_linker_0, # of connection points: 2
# Relax obj value: 0.115
# Max RMSD: 0.152
# Mean RMSD: 0.109
data_MOF--net-anh--node1-BETGAK_clean_sbu_0--node2-OLANEW_clean_sbu_2--edge1-UVAHIK_clean_linker_0
_symmetry_space_group_name_H-M    P1
_symmetry_Int_Tables_number       1
_symmetry_cell_setting            triclinic
loop_
_symmetry_equiv_pos_as_xyz
'x, y, z'
_cell_length_a     46.027643
_cell_length_b     50.301336
_cell_length_c     65.291654
_cell_angle_alpha  91.851558
_cell_angle_beta   89.600389
_cell_angle_gamma 128.4375
loop_
_atom_site_label
_atom_site_type_symbol
_atom_site_fract_x
_atom_site_fract_y
_atom_site_fract_z
_atom_type_partial_charge
La0 La 0.02961 0.50004 0.13659 0.0
La1 La 0.99613 0.53126 0.15406 0.0
C2 C 0.06409 0.48497 0.11579 0.0
C3 C 0.10171 0.49539 0.11733 0.0
C4 C 0.10773 0.47203 0.11187 0.0
C5 C 0.14215 0.47988 0.11573 0.0
C6 C 0.17122 0.51134 0.12508 0.0
C7 C 0.16533 0.53509 0.12993 0.0
C8 C 0.1308 0.52708 0.12623 0.0
C9 C 0.02796 0.50244 0.17698 0.0
C10 C 0.08063 0.58074 0.14569 0.0
C11 C 0.96281 0.54563 0.1767 0.0
C12 C 0.9242 0.52952 0.18197 0.0
C13 C 0.89523 0.50885 0.16762 0.0
C14 C 0.85893 0.49516 0.17264 0.0
C15 C 0.85092 0.50162 0.19218 0.0
C16 C 0.87994 0.52119 0.20675 0.0
C17 C 0.91627 0.5351 0.20164 0.0
C18 C 0.99997 0.53051 0.11377 0.0
C19 C 0.94496 0.45115 0.14466 0.0
O20 O 0.04278 0.4674 0.13109 0.0
O21 O 0.06123 0.50824 0.11067 0.0
O22 O 0.02593 0.47919 0.16639 0.0
O23 O 0.03435 0.52457 0.16514 0.0
O24 O 0.07611 0.55509 0.1355 0.0
O25 O 0.05373 0.57605 0.15677 0.0
O26 O 0.97241 0.55559 0.15787 0.0
O27 O 0.97587 0.5305 0.18312 0.0
O28 O 1.00284 0.55411 0.12461 0.0
O29 O 0.99209 0.50738 0.12529 0.0
O30 O 0.94992 0.47658 0.1553 0.0
O31 O 0.97139 0.45606 0.13295 0.0
H32 H 0.08539 0.44725 0.10528 0.0
H33 H 0.14548 0.46077 0.11209 0.0
H34 H 0.18722 0.55971 0.13687 0.0
H35 H 0.1266 0.54529 0.13083 0.0
H36 H 0.90077 0.50387 0.15241 0.0
H37 H 0.83741 0.48054 0.16096 0.0
H38 H 0.87468 0.52611 0.22204 0.0
H39 H 0.93829 0.55061 0.21299 0.0
La40 La 0.54227 0.01089 0.49529 0.0
La41 La 0.49468 0.03111 0.48612 0.0
C42 C 0.56798 0.98392 0.51068 0.0
C43 C 0.5566 0.94942 0.51168 0.0
C44 C 0.53674 0.92535 0.49548 0.0
C45 C 0.52731 0.89308 0.49651 0.0
C46 C 0.53718 0.88422 0.51385 0.0
C47 C 0.5564 0.90821 0.53018 0.0
C48 C 0.5661 0.94053 0.52906 0.0
C49 C 0.54094 0.02359 0.45679 0.0
C50 C 0.45512 0.95394 0.48509 0.0
C51 C 0.46844 0.05865 0.47227 0.0
C52 C 0.47809 0.09247 0.47475 0.0
C53 C 0.50555 0.1166 0.48896 0.0
C54 C 0.5136 0.14826 0.49178 0.0
C55 C 0.49417 0.15628 0.4805 0.0
C56 C 0.46696 0.13207 0.4661 0.0
C57 C 0.45904 0.10046 0.46325 0.0
C58 C 0.49791 0.01965 0.5248 0.0
C59 C 0.5824 0.0882 0.49476 0.0
O60 O 0.5769 0.99726 0.49261 0.0
O61 O 0.5476 0.98963 0.5208 0.0
O62 O 0.56954 0.02969 0.46591 0.0
O63 O 0.51372 0.00844 0.46862 0.0
O64 O 0.4857 0.96178 0.49375 0.0
O65 O 0.45412 0.97759 0.47782 0.0
O66 O 0.45651 0.04072 0.48873 0.0
O67 O 0.49239 0.05723 0.46248 0.0
O68 O 0.46868 0.01277 0.51609 0.0
O69 O 0.52412 0.03443 0.51243 0.0
O70 O 0.55117 0.07998 0.48688 0.0
O71 O 0.58412 0.06495 0.50201 0.0
H72 H 0.52874 0.93157 0.48199 0.0
H73 H 0.51212 0.87498 0.48381 0.0
H74 H 0.56464 0.90222 0.54366 0.0
H75 H 0.58133 0.95873 0.54172 0.0
H76 H 0.52036 0.11076 0.4981 0.0
H77 H 0.53438 0.16611 0.50317 0.0
H78 H 0.45184 0.13759 0.45698 0.0
H79 H 0.43779 0.08212 0.45218 0.0
La80 La 0.57014 0.55372 0.84522 0.0
La81 La 0.519 0.47963 0.85449 0.0
C82 C 0.59986 0.61032 0.82947 0.0
C83 C 0.59129 0.63389 0.827 0.0
C84 C 0.61865 0.66844 0.83209 0.0
C85 C 0.61161 0.69151 0.82988 0.0
C86 C 0.57702 0.68058 0.82238 0.0
C87 C 0.54948 0.6458 0.81741 0.0
C88 C 0.55652 0.62267 0.81972 0.0
C89 C 0.56524 0.5401 0.88416 0.0
C90 C 0.48317 0.51558 0.85263 0.0
C91 C 0.48868 0.42198 0.86898 0.0
C92 C 0.49469 0.39653 0.86725 0.0
C93 C 0.52322 0.4021 0.85515 0.0
C94 C 0.52769 0.37707 0.85294 0.0
C95 C 0.50351 0.34594 0.86266 0.0
C96 C 0.47525 0.34073 0.87497 0.0
C97 C 0.47093 0.36584 0.87724 0.0
C98 C 0.52438 0.49327 0.81544 0.0
C99 C 0.60681 0.51886 0.84943 0.0
O100 O 0.60674 0.60699 0.84821 0.0
O101 O 0.57924 0.58119 0.81913 0.0
O102 O 0.59517 0.56583 0.87594 0.0
O103 O 0.53916 0.52497 0.87117 0.0
O104 O 0.51472 0.54132 0.84443 0.0
O105 O 0.48033 0.49019 0.86065 0.0
O106 O 0.47749 0.42681 0.85217 0.0
O107 O 0.51472 0.45067 0.87856 0.0
O108 O 0.49446 0.46792 0.82379 0.0
O109 O 0.55045 0.50827 0.82846 0.0
O110 O 0.57433 0.4923 0.85625 0.0
O111 O 0.61064 0.54481 0.84155 0.0
H112 H 0.64559 0.67763 0.83784 0.0
H113 H 0.63325 0.71793 0.83424 0.0
H114 H 0.52267 0.63648 0.81141 0.0
H115 H 0.53485 0.5961 0.81571 0.0
H116 H 0.54165 0.42555 0.84717 0.0
H117 H 0.54945 0.38175 0.84317 0.0
H118 H 0.45646 0.31723 0.88286 0.0
H119 H 0.44877 0.36115 0.88664 0.0
O120 O 0.5451 0.0477 0.22692 0.0
Cd121 Cd 0.54687 0.04913 0.18949 0.0
O122 O 0.48672 0.0021 0.22984 0.0
Cd123 Cd 0.4724 0.98432 0.19779 0.0
O124 O 0.43214 0.93848 0.17889 0.0
C125 C 0.4247 0.91113 0.18501 0.0
O126 O 0.443 0.91274 0.20099 0.0
C127 C 0.51741 0.02704 0.23802 0.0
C128 C 0.60871 0.11346 0.17766 0.0
O129 O 0.57775 0.10733 0.18152 0.0
O130 O 0.61033 0.08905 0.17907 0.0
O131 O 0.56603 0.52693 0.58562 0.0
Cd132 Cd 0.56584 0.52676 0.54816 0.0
O133 O 0.51579 0.52305 0.58826 0.0
Cd134 Cd 0.51654 0.53851 0.55722 0.0
O135 O 0.51381 0.57475 0.54148 0.0
C136 C 0.50034 0.58603 0.55237 0.0
O137 O 0.48889 0.57441 0.57085 0.0
C138 C 0.54063 0.5229 0.59651 0.0
C139 C 0.5558 0.46893 0.53268 0.0
O140 O 0.58834 0.49682 0.53646 0.0
O141 O 0.52802 0.46852 0.53589 0.0
O142 O 0.08026 0.52176 0.89329 0.0
Cd143 Cd 0.10548 0.51522 0.86132 0.0
O144 O 0.03191 0.51719 0.8821 0.0
Cd145 Cd 0.98302 0.51703 0.88326 0.0
O146 O 0.93216 0.51355 0.88089 0.0
C147 C 0.9326 0.53608 0.87208 0.0
O148 O 0.96397 0.56208 0.86447 0.0
C149 C 0.05255 0.52126 0.8969 0.0
C150 C 0.16867 0.51749 0.86438 0.0
O151 O 0.17206 0.54439 0.86149 0.0
O152 O 0.13572 0.48975 0.8665 0.0
O153 O 0.0527 0.53417 0.40825 0.0
Cd154 Cd 0.05889 0.54134 0.44561 0.0
O155 O 0.99217 0.4932 0.40551 0.0
Cd156 Cd 0.97799 0.47926 0.43752 0.0
O157 O 0.93624 0.43747 0.45686 0.0
C158 C 0.90296 0.42652 0.45471 0.0
O159 O 0.89616 0.44221 0.44232 0.0
C160 C 0.02342 0.51458 0.39726 0.0
C161 C 0.12304 0.60705 0.45619 0.0
O162 O 0.12388 0.58208 0.45449 0.0
O163 O 0.09183 0.60088 0.45323 0.0
O164 O 0.50649 0.98113 0.75263 0.0
Cd165 Cd 0.51131 0.97894 0.78973 0.0
O166 O 0.55344 0.03581 0.7515 0.0
Cd167 Cd 0.55391 0.04821 0.78397 0.0
O168 O 0.55288 0.0831 0.80439 0.0
C169 C 0.52275 0.079 0.8057 0.0
O170 O 0.49301 0.05263 0.7961 0.0
C171 C 0.52945 0.0073 0.74235 0.0
C172 C 0.52115 0.93063 0.79798 0.0
O173 O 0.4887 0.92257 0.79757 0.0
O174 O 0.54893 0.96158 0.79485 0.0
O175 O 0.48863 0.4581 0.10609 0.0
Cd176 Cd 0.46694 0.44655 0.14164 0.0
O177 O 0.54474 0.50678 0.11088 0.0
Cd178 Cd 0.53074 0.51342 0.14136 0.0
O179 O 0.49448 0.52009 0.15788 0.0
C180 C 0.49863 0.54702 0.15463 0.0
O181 O 0.5266 0.57032 0.14348 0.0
C182 C 0.52019 0.48213 0.09908 0.0
C183 C 0.5128 0.44129 0.16581 0.0
O184 O 0.51546 0.46818 0.16647 0.0
O185 O 0.48751 0.41625 0.15422 0.0
C186 C 0.22215 0.50754 0.11759 0.0
C187 C 0.20685 0.51859 0.1306 0.0
C188 C 0.25439 0.51252 0.12336 0.0
C189 C 0.33711 0.56408 0.15667 0.0
H190 H 0.33834 0.48813 0.14818 0.0
C191 C 0.4699 0.57578 0.15256 0.0
C192 C 0.46849 0.54885 0.15953 0.0
C193 C 0.43856 0.57422 0.15342 0.0
C194 C 0.3383 0.50945 0.15097 0.0
H195 H 0.2138 0.54387 0.15988 0.0
H196 H 0.27059 0.55314 0.16971 0.0
H197 H 0.28229 0.48101 0.14008 0.0
H198 H 0.43421 0.50071 0.17465 0.0
H199 H 0.37963 0.4982 0.1763 0.0
H200 H 0.39345 0.59266 0.16729 0.0
C201 C 0.25756 0.5407 0.15503 0.0
C202 C 0.30635 0.50548 0.14605 0.0
C203 C 0.22511 0.53549 0.14933 0.0
C204 C 0.43608 0.52168 0.16891 0.0
C205 C 0.40474 0.52014 0.16977 0.0
C206 C 0.36926 0.56814 0.16147 0.0
C207 C 0.27221 0.52885 0.14222 0.0
C208 C 0.3056 0.53286 0.14856 0.0
C209 C 0.40523 0.54575 0.16129 0.0
C210 C 0.37029 0.54094 0.15845 0.0
H211 H 0.20922 0.49502 0.10291 0.0
H212 H 0.26548 0.50366 0.11302 0.0
H213 H 0.33726 0.58563 0.15871 0.0
H214 H 0.49453 0.59718 0.14535 0.0
H215 H 0.43978 0.5943 0.14669 0.0
C216 C 0.65033 0.13403 0.50232 0.0
C217 C 0.61603 0.12435 0.49534 0.0
C218 C 0.68244 0.16787 0.50157 0.0
C219 C 0.71532 0.25597 0.49589 0.0
H220 H 0.80364 0.27218 0.47438 0.0
C221 C 0.83519 0.38281 0.46139 0.0
C222 C 0.87179 0.39461 0.46414 0.0
C223 C 0.80528 0.35122 0.46846 0.0
C224 C 0.77947 0.2682 0.48076 0.0
H225 H 0.58856 0.14297 0.48251 0.0
H226 H 0.64437 0.20165 0.48108 0.0
H227 H 0.74894 0.21435 0.48079 0.0
H228 H 0.90568 0.3829 0.47723 0.0
H229 H 0.85338 0.32774 0.48973 0.0
H230 H 0.74563 0.3098 0.49545 0.0
C231 C 0.64648 0.18323 0.48735 0.0
C232 C 0.74805 0.23499 0.48443 0.0
C233 C 0.61445 0.14945 0.48806 0.0
C234 C 0.87784 0.37454 0.47479 0.0
C235 C 0.84785 0.34282 0.48184 0.0
C236 C 0.74674 0.28919 0.49223 0.0
C237 C 0.68097 0.19282 0.49387 0.0
C238 C 0.71538 0.2284 0.49171 0.0
C239 C 0.81117 0.33056 0.47848 0.0
C240 C 0.779 0.29567 0.48429 0.0
H241 H 0.65257 0.11541 0.50807 0.0
H242 H 0.70848 0.17447 0.50693 0.0
H243 H 0.69085 0.25187 0.50185 0.0
H244 H 0.82947 0.39759 0.45327 0.0
H245 H 0.77744 0.34246 0.46538 0.0
C246 C 0.59822 0.73812 0.81261 0.0
C247 C 0.57001 0.70551 0.81963 0.0
C248 C 0.59207 0.7618 0.81034 0.0
C249 C 0.52974 0.78159 0.8267 0.0
H250 H 0.5743 0.84248 0.78137 0.0
C251 C 0.49615 0.87154 0.80648 0.0
C252 C 0.52634 0.9048 0.80141 0.0
C253 C 0.5009 0.84692 0.80903 0.0
C254 C 0.56194 0.82586 0.79422 0.0
H255 H 0.51302 0.6724 0.82977 0.0
H256 H 0.50192 0.71335 0.82519 0.0
H257 H 0.58291 0.79969 0.7847 0.0
H258 H 0.58528 0.93831 0.79525 0.0
H259 H 0.59349 0.89536 0.79965 0.0
H260 H 0.50841 0.80768 0.836 0.0
C261 C 0.52908 0.72081 0.82177 0.0
C262 C 0.56692 0.80133 0.79617 0.0
C263 C 0.5353 0.69713 0.82414 0.0
C264 C 0.56142 0.91294 0.79913 0.0
C265 C 0.5661 0.88827 0.80152 0.0
C266 C 0.52454 0.80601 0.82465 0.0
C267 C 0.55743 0.75351 0.81488 0.0
C268 C 0.55112 0.77899 0.81251 0.0
C269 C 0.53587 0.85493 0.80641 0.0
C270 C 0.5408 0.82857 0.80846 0.0
H271 H 0.62513 0.74537 0.80869 0.0
H272 H 0.61474 0.78682 0.80525 0.0
H273 H 0.5176 0.7652 0.83965 0.0
H274 H 0.46874 0.86442 0.80834 0.0
H275 H 0.47701 0.8214 0.81264 0.0
C276 C 0.80851 0.51167 0.20788 0.0
C277 C 0.81308 0.49012 0.19676 0.0
C278 C 0.77336 0.50284 0.2102 0.0
C279 C 0.67215 0.43281 0.20307 0.0
H280 H 0.67074 0.50695 0.19094 0.0
C281 C 0.54416 0.41554 0.17151 0.0
C282 C 0.54043 0.44063 0.17659 0.0
C283 C 0.57446 0.41843 0.17895 0.0
C284 C 0.67053 0.48605 0.19481 0.0
H285 H 0.78384 0.44128 0.18054 0.0
H286 H 0.72259 0.42646 0.18394 0.0
H287 H 0.7296 0.51785 0.19484 0.0
H288 H 0.56351 0.4867 0.19489 0.0
H289 H 0.61586 0.49136 0.20818 0.0
H290 H 0.61271 0.40083 0.20225 0.0
C291 C 0.7462 0.45003 0.19108 0.0
C292 C 0.70439 0.49232 0.19705 0.0
C293 C 0.78139 0.45875 0.18888 0.0
C294 C 0.56592 0.46721 0.19047 0.0
C295 C 0.596 0.46996 0.19801 0.0
C296 C 0.63811 0.4265 0.2008 0.0
C297 C 0.74194 0.47243 0.20129 0.0
C298 C 0.70567 0.46575 0.20093 0.0
C299 C 0.60142 0.44636 0.19169 0.0
C300 C 0.63698 0.45303 0.19638 0.0
H301 H 0.83223 0.53614 0.21404 0.0
H302 H 0.77096 0.52041 0.21846 0.0
H303 H 0.67223 0.41187 0.20626 0.0
H304 H 0.52491 0.39472 0.16086 0.0
H305 H 0.57791 0.39992 0.17369 0.0
C306 C 0.38758 0.9093 0.47656 0.0
C307 C 0.42166 0.91782 0.4829 0.0
C308 C 0.35577 0.87536 0.47478 0.0
C309 C 0.3244 0.78831 0.46742 0.0
H310 H 0.23132 0.76287 0.48814 0.0
C311 C 0.19072 0.64836 0.46582 0.0
C312 C 0.15723 0.6421 0.4609 0.0
C313 C 0.2232 0.68156 0.46963 0.0
C314 C 0.25695 0.76954 0.48204 0.0
H315 H 0.449 0.89716 0.4922 0.0
H316 H 0.39338 0.83779 0.48891 0.0
H317 H 0.28757 0.82148 0.49237 0.0
H318 H 0.13163 0.66591 0.45616 0.0
H319 H 0.18821 0.7237 0.46234 0.0
H320 H 0.29376 0.73662 0.45667 0.0
C321 C 0.3914 0.85749 0.48531 0.0
C322 C 0.28923 0.80317 0.48453 0.0
C323 C 0.42321 0.89152 0.48728 0.0
C324 C 0.1569 0.66979 0.46002 0.0
C325 C 0.18938 0.70298 0.4637 0.0
C326 C 0.29204 0.7547 0.46479 0.0
C327 C 0.35727 0.84905 0.47914 0.0
C328 C 0.32328 0.813 0.47713 0.0
C329 C 0.22303 0.70937 0.46849 0.0
C330 C 0.25781 0.7449 0.47194 0.0
H331 H 0.38533 0.92887 0.47308 0.0
H332 H 0.33002 0.8697 0.46975 0.0
H333 H 0.35014 0.79517 0.46136 0.0
H334 H 0.19192 0.62759 0.46672 0.0
H335 H 0.2484 0.68539 0.47359 0.0
C336 C 0.47527 0.28468 0.85618 0.0
C337 C 0.50703 0.31862 0.85951 0.0
C338 C 0.47844 0.25902 0.85267 0.0
C339 C 0.54511 0.24522 0.8356 0.0
H340 H 0.47201 0.15569 0.85692 0.0
C341 C 0.55498 0.13682 0.82253 0.0
C342 C 0.52198 0.10538 0.81583 0.0
C343 C 0.55447 0.16287 0.83014 0.0
C344 C 0.49255 0.18052 0.85079 0.0
H345 H 0.56704 0.35207 0.86219 0.0
H346 H 0.5726 0.30725 0.85623 0.0
H347 H 0.46891 0.20134 0.86583 0.0
H348 H 0.46238 0.07627 0.81262 0.0
H349 H 0.46151 0.12157 0.82588 0.0
H350 H 0.56855 0.22428 0.82043 0.0
C351 C 0.54523 0.30054 0.85598 0.0
C352 C 0.49074 0.20669 0.85585 0.0
C353 C 0.54205 0.32624 0.85942 0.0
C354 C 0.48832 0.10017 0.81762 0.0
C355 C 0.48779 0.12611 0.82533 0.0
C356 C 0.547 0.21908 0.83061 0.0
C357 C 0.51346 0.2666 0.85247 0.0
C358 C 0.51671 0.23928 0.8481 0.0
C359 C 0.52091 0.15796 0.83136 0.0
C360 C 0.52047 0.18631 0.83793 0.0
H361 H 0.44792 0.278 0.8558 0.0
H362 H 0.45341 0.23332 0.84964 0.0
H363 H 0.56527 0.26983 0.82911 0.0
H364 H 0.58139 0.14168 0.82139 0.0
H365 H 0.5804 0.18698 0.83489 0.0
C366 C 0.51368 0.83188 0.53283 0.0
C367 C 0.52813 0.85035 0.51486 0.0
C368 C 0.50682 0.80076 0.53418 0.0
C369 C 0.53687 0.75309 0.5134 0.0
H370 H 0.4488 0.67726 0.5397 0.0
C371 C 0.51261 0.627 0.52579 0.0
C372 C 0.49919 0.613 0.54513 0.0
C373 C 0.51297 0.65366 0.51966 0.0
C374 C 0.47368 0.69826 0.53244 0.0
H375 H 0.54645 0.85057 0.48414 0.0
H376 H 0.53455 0.79609 0.48655 0.0
H377 H 0.45525 0.72827 0.53363 0.0
H378 H 0.4751 0.61573 0.57303 0.0
H379 H 0.47631 0.66221 0.56256 0.0
H380 H 0.55592 0.7236 0.51281 0.0
C381 C 0.52855 0.80577 0.49957 0.0
C382 C 0.47731 0.72745 0.52893 0.0
C383 C 0.53507 0.83678 0.49814 0.0
C384 C 0.48556 0.62581 0.55801 0.0
C385 C 0.48599 0.65239 0.55192 0.0
C386 C 0.53336 0.72395 0.51704 0.0
C387 C 0.51454 0.78752 0.51766 0.0
C388 C 0.50922 0.75541 0.5197 0.0
C389 C 0.49991 0.66684 0.53274 0.0
C390 C 0.50202 0.69641 0.52696 0.0
H391 H 0.50779 0.84158 0.5459 0.0
H392 H 0.49635 0.78747 0.54839 0.0
H393 H 0.56194 0.77435 0.50641 0.0
H394 H 0.5232 0.61764 0.51548 0.0
H395 H 0.52352 0.66395 0.50469 0.0
C396 C 0.6746 0.54711 0.84399 0.0
C397 C 0.63955 0.51935 0.85081 0.0
C398 C 0.70565 0.54817 0.84616 0.0
C399 C 0.73362 0.49383 0.85571 0.0
H400 H 0.82842 0.58006 0.87029 0.0
C401 C 0.86394 0.50517 0.87733 0.0
C402 C 0.89842 0.53328 0.87011 0.0
C403 C 0.83204 0.50287 0.87517 0.0
C404 C 0.8023 0.55578 0.86599 0.0
H405 H 0.60997 0.47069 0.86517 0.0
H406 H 0.6639 0.47269 0.86909 0.0
H407 H 0.77403 0.57715 0.86579 0.0
H408 H 0.92596 0.58098 0.85487 0.0
H409 H 0.87077 0.57687 0.85102 0.0
H410 H 0.76202 0.4725 0.85599 0.0
C411 C 0.66743 0.49354 0.86181 0.0
C412 C 0.77096 0.55411 0.86337 0.0
C413 C 0.6364 0.49248 0.85964 0.0
C414 C 0.90005 0.55897 0.86072 0.0
C415 C 0.86828 0.55672 0.85861 0.0
C416 C 0.765 0.4955 0.85836 0.0
C417 C 0.70265 0.52152 0.85524 0.0
C418 C 0.73611 0.52315 0.8581 0.0
C419 C 0.83375 0.52867 0.8658 0.0
C420 C 0.79989 0.52655 0.86346 0.0
H421 H 0.67822 0.56825 0.83707 0.0
H422 H 0.73204 0.56991 0.84058 0.0
H423 H 0.7075 0.46957 0.8514 0.0
H424 H 0.86156 0.4849 0.88466 0.0
H425 H 0.80611 0.48103 0.8811 0.0
C426 C 0.12292 0.64158 0.15804 0.0
C427 C 0.11725 0.61503 0.14595 0.0
C428 C 0.15742 0.67381 0.15881 0.0
C429 C 0.25687 0.71819 0.15077 0.0
H430 H 0.26189 0.79806 0.15456 0.0
C431 C 0.38432 0.84764 0.18373 0.0
C432 C 0.39343 0.87762 0.17585 0.0
C433 C 0.3527 0.81588 0.1767 0.0
C434 C 0.26116 0.77614 0.15321 0.0
H435 H 0.1435 0.60189 0.12484 0.0
H436 H 0.20393 0.65835 0.1262 0.0
H437 H 0.20236 0.7424 0.14823 0.0
H438 H 0.37729 0.89765 0.15368 0.0
H439 H 0.32223 0.84213 0.14121 0.0
H440 H 0.31574 0.75201 0.15577 0.0
C441 C 0.18162 0.654 0.13526 0.0
C442 C 0.2269 0.74413 0.14984 0.0
C443 C 0.14695 0.62165 0.13446 0.0
C444 C 0.37096 0.87506 0.16016 0.0
C445 C 0.33928 0.84323 0.1531 0.0
C446 C 0.2912 0.75025 0.15413 0.0
C447 C 0.18726 0.68046 0.14749 0.0
C448 C 0.2242 0.71469 0.14901 0.0
C449 C 0.32937 0.81327 0.16157 0.0
C450 C 0.29367 0.77957 0.15578 0.0
H451 H 0.10078 0.63748 0.16716 0.0
H452 H 0.1609 0.69337 0.16867 0.0
H453 H 0.2558 0.69605 0.1503 0.0
H454 H 0.40101 0.84863 0.19581 0.0
H455 H 0.34576 0.79344 0.18377 0.0
C456 C 0.47213 0.19095 0.48504 0.0
C457 C 0.50159 0.1894 0.48415 0.0
C458 C 0.4789 0.22185 0.48906 0.0
C459 C 0.54916 0.30787 0.51201 0.0
H460 H 0.49175 0.32879 0.48418 0.0
C461 C 0.58101 0.43822 0.52283 0.0
C462 C 0.55043 0.4379 0.52535 0.0
C463 C 0.57584 0.4086 0.51675 0.0
C464 C 0.50781 0.3232 0.49221 0.0
H465 H 0.56139 0.21938 0.48631 0.0
H466 H 0.57324 0.27334 0.49325 0.0
H467 H 0.48147 0.27597 0.47543 0.0
H468 H 0.49043 0.40622 0.52317 0.0
H469 H 0.48143 0.35455 0.51268 0.0
H470 H 0.57538 0.35502 0.52885 0.0
C471 C 0.54481 0.25053 0.49118 0.0
C472 C 0.5019 0.2929 0.48721 0.0
C473 C 0.53803 0.2196 0.48718 0.0
C474 C 0.5146 0.40739 0.52134 0.0
C475 C 0.50944 0.37778 0.51521 0.0
C476 C 0.5551 0.33818 0.51699 0.0
C477 C 0.51531 0.25203 0.49227 0.0
C478 C 0.52237 0.28476 0.49712 0.0
C479 C 0.53998 0.37796 0.51299 0.0
C480 C 0.53437 0.34615 0.50723 0.0
H481 H 0.44368 0.16811 0.48311 0.0
H482 H 0.45547 0.22194 0.49012 0.0
H483 H 0.56501 0.3022 0.52019 0.0
H484 H 0.60899 0.4613 0.52573 0.0
H485 H 0.59999 0.40973 0.51492 0.0
C486 C 0.45482 0.54492 0.84823 0.0
C487 C 0.45118 0.51622 0.85393 0.0
C488 C 0.42475 0.54551 0.84964 0.0
C489 C 0.32179 0.48884 0.85233 0.0
H490 H 0.33724 0.56999 0.87289 0.0
C491 C 0.19776 0.4889 0.86876 0.0
C492 C 0.20159 0.51816 0.86447 0.0
C493 C 0.22835 0.48905 0.86792 0.0
C494 C 0.33236 0.5472 0.86685 0.0
H495 H 0.41261 0.46554 0.86554 0.0
H496 H 0.36041 0.46656 0.86795 0.0
H497 H 0.38986 0.5696 0.87015 0.0
H498 H 0.24103 0.57068 0.85599 0.0
H499 H 0.29406 0.57084 0.85415 0.0
H500 H 0.26447 0.4665 0.84875 0.0
C501 C 0.38646 0.4886 0.86226 0.0
C502 C 0.36266 0.54698 0.8653 0.0
C503 C 0.41657 0.4881 0.86099 0.0
C504 C 0.23699 0.5477 0.85951 0.0
C505 C 0.26756 0.54781 0.85856 0.0
C506 C 0.29153 0.4891 0.85376 0.0
C507 C 0.39008 0.51732 0.85664 0.0
C508 C 0.35783 0.51776 0.85808 0.0
C509 C 0.26373 0.51843 0.86263 0.0
C510 C 0.29625 0.51825 0.8611 0.0
H511 H 0.48098 0.56709 0.84273 0.0
H512 H 0.42857 0.56795 0.84497 0.0
H513 H 0.31698 0.46603 0.84638 0.0
H514 H 0.17101 0.4657 0.87272 0.0
H515 H 0.2242 0.46607 0.87156 0.0
C516 C 0.9053 0.388 0.13886 0.0
C517 C 0.90886 0.41668 0.14571 0.0
C518 C 0.87188 0.35531 0.14108 0.0
C519 C 0.78477 0.3086 0.17084 0.0
H520 H 0.75215 0.23597 0.13084 0.0
C521 C 0.64178 0.17578 0.17454 0.0
C522 C 0.64183 0.14792 0.17228 0.0
C523 C 0.67355 0.20855 0.17037 0.0
C524 C 0.76104 0.25599 0.14219 0.0
H525 H 0.87969 0.43359 0.15963 0.0
H526 H 0.82119 0.37682 0.16289 0.0
H527 H 0.80852 0.29332 0.12489 0.0
H528 H 0.67511 0.13257 0.16344 0.0
H529 H 0.73047 0.1898 0.15593 0.0
H530 H 0.73691 0.27121 0.18795 0.0
C531 C 0.84446 0.37937 0.15635 0.0
C532 C 0.79344 0.28886 0.13884 0.0
C533 C 0.87799 0.41201 0.15435 0.0
C534 C 0.67416 0.15349 0.16536 0.0
C535 C 0.70581 0.18623 0.16095 0.0
C536 C 0.7522 0.27583 0.17406 0.0
C537 C 0.84105 0.35051 0.15001 0.0
C538 C 0.80589 0.31561 0.15318 0.0
C539 C 0.70596 0.21416 0.16361 0.0
C540 C 0.74008 0.24912 0.15983 0.0
H541 H 0.92864 0.3907 0.13228 0.0
H542 H 0.87062 0.3338 0.13629 0.0
H543 H 0.79376 0.32826 0.18246 0.0
H544 H 0.61735 0.17239 0.17985 0.0
H545 H 0.67274 0.22954 0.17238 0.0
C546 C 0.01232 0.55745 0.08001 0.0
C547 C 1.00324 0.52997 0.09127 0.0
C548 C 0.01576 0.55723 0.05872 0.0
C549 C 0.99018 0.49994 0.01334 0.0
H550 H 0.07184 0.58254 0.98815 0.0
C551 C 1.00885 0.50941 0.92523 0.0
C552 C 0.0451 0.52526 0.91844 0.0
C553 C 1.0022 0.51118 0.94603 0.0
C554 C 0.04892 0.55924 0.99494 0.0
H555 H 0.99049 0.48062 0.0892 0.0
H556 H 0.99688 0.4803 0.05201 0.0
H557 H 0.06348 0.58252 0.02504 0.0
H558 H 0.10279 0.5556 0.92812 0.0
H559 H 0.09126 0.55858 0.96422 0.0
H560 H 0.97628 0.47643 0.98326 0.0
C561 C 1.00089 0.50188 0.05955 0.0
C562 C 0.0439 0.5593 0.01608 0.0
C563 C 0.99747 0.50214 0.08087 0.0
C564 C 0.07454 0.54326 0.93283 0.0
C565 C 0.06795 0.54516 0.95353 0.0
C566 C 0.99515 0.49989 0.99216 0.0
C567 C 0.01017 0.52947 0.04821 0.0
C568 C 0.01466 0.52959 0.02558 0.0
C569 C 0.03168 0.52889 0.96045 0.0
C570 C 0.02482 0.52946 0.98273 0.0
H571 H 0.01683 0.57921 0.08766 0.0
H572 H 0.02251 0.57871 0.05046 0.0
H573 H 0.96712 0.47671 0.02012 0.0
H574 H 0.98546 0.49455 0.91467 0.0
H575 H 0.97393 0.49846 0.95084 0.0
C576 C 0.57203 0.04813 0.42363 0.0
C577 C 0.53927 0.02875 0.43488 0.0
C578 C 0.57069 0.0517 0.40262 0.0
C579 C 0.50889 0.0394 0.36041 0.0
H580 H 0.57574 0.03546 0.32649 0.0
C581 C 0.48914 0.01203 0.27284 0.0
C582 C 0.52087 0.03138 0.26066 0.0
C583 C 0.49233 0.01495 0.2942 0.0
C584 C 0.55722 0.03704 0.33577 0.0
H585 H 0.47946 0.99849 0.43325 0.0
H586 H 0.47687 0.00381 0.39639 0.0
H587 H 0.5792 0.03423 0.36357 0.0
H588 H 0.58081 0.0694 0.26143 0.0
H589 H 0.58634 0.07421 0.29881 0.0
H590 H 0.48621 0.0411 0.33237 0.0
C591 C 0.50373 0.01686 0.40379 0.0
C592 C 0.55923 0.03642 0.35706 0.0
C593 C 0.50514 0.01359 0.42488 0.0
C594 C 0.55583 0.05411 0.27035 0.0
C595 C 0.55903 0.05676 0.29174 0.0
C596 C 0.50667 0.0397 0.33907 0.0
C597 C 0.5365 0.03564 0.39233 0.0
C598 C 0.535 0.03746 0.36967 0.0
C599 C 0.52732 0.03704 0.30388 0.0
C600 C 0.53072 0.03838 0.32654 0.0
H601 H 0.59875 0.06039 0.43105 0.0
H602 H 0.59654 0.06698 0.39443 0.0
H603 H 0.4902 0.04081 0.36962 0.0
H604 H 0.46177 0.99435 0.26588 0.0
H605 H 0.46744 0.9992 0.30314 0.0
C606 C 0.56327 0.51893 0.7842 0.0
C607 C 0.52827 0.49907 0.79329 0.0
C608 C 0.56621 0.52207 0.7629 0.0
C609 C 0.5096 0.47946 0.71503 0.0
H610 H 0.59003 0.56291 0.68999 0.0
C611 C 0.50813 0.50634 0.63008 0.0
C612 C 0.54031 0.51896 0.6189 0.0
C613 C 0.50795 0.50356 0.6513 0.0
C614 C 0.56762 0.53936 0.69682 0.0
H615 H 0.4691 0.46828 0.78758 0.0
H616 H 0.47411 0.47477 0.75069 0.0
H617 H 0.58724 0.55992 0.72732 0.0
H618 H 0.59761 0.53866 0.62124 0.0
H619 H 0.59738 0.5343 0.65851 0.0
H620 H 0.48943 0.45937 0.6845 0.0
C621 C 0.49933 0.48691 0.75971 0.0
C622 C 0.56603 0.53758 0.71819 0.0
C623 C 0.49641 0.48341 0.7809 0.0
C624 C 0.57234 0.52871 0.62942 0.0
C625 C 0.57231 0.52643 0.65073 0.0
C626 C 0.51094 0.48143 0.69373 0.0
C627 C 0.5342 0.50573 0.75035 0.0
C628 C 0.5368 0.50766 0.72759 0.0
C629 C 0.54009 0.5138 0.66184 0.0
C630 C 0.5398 0.51144 0.68442 0.0
H631 H 0.58827 0.53122 0.79347 0.0
H632 H 0.59352 0.53654 0.75627 0.0
H633 H 0.48722 0.45568 0.72162 0.0
H634 H 0.483 0.4986 0.62244 0.0
H635 H 0.48282 0.49397 0.65953 0.0
C636 C 0.53671 0.03273 0.55579 0.0
C637 C 0.50147 0.01535 0.54661 0.0
C638 C 0.54023 0.02996 0.57669 0.0
C639 C 0.49294 0.97639 0.62052 0.0
H640 H 0.55545 0.06042 0.653 0.0
C641 C 0.49445 0.97918 0.70925 0.0
C642 C 0.52751 0.00517 0.71969 0.0
C643 C 0.49185 0.97892 0.68789 0.0
C644 C 0.53845 0.03665 0.64419 0.0
H645 H 0.44231 0.98068 0.55176 0.0
H646 H 0.44846 0.97527 0.58837 0.0
H647 H 0.55019 0.06231 0.61613 0.0
H648 H 0.58432 0.05028 0.71592 0.0
H649 H 0.58045 0.04902 0.67874 0.0
H650 H 0.4818 0.95059 0.6484 0.0
C651 C 0.47329 0.9912 0.57939 0.0
C652 C 0.53531 0.03781 0.62305 0.0
C653 C 0.46978 0.99443 0.55854 0.0
C654 C 0.55831 0.03014 0.70832 0.0
C655 C 0.55595 0.02954 0.68697 0.0
C656 C 0.49656 0.97518 0.64166 0.0
C657 C 0.50856 0.00931 0.5887 0.0
C658 C 0.5124 0.00773 0.61103 0.0
C659 C 0.52247 0.00434 0.67646 0.0
C660 C 0.51925 0.00533 0.65382 0.0
H661 H 0.56159 0.04899 0.5469 0.0
H662 H 0.56772 0.04399 0.58349 0.0
H663 H 0.4753 0.95284 0.61152 0.0
H664 H 0.47016 0.95969 0.71762 0.0
H665 H 0.46545 0.95935 0.68046 0.0
C666 C 0.59221 0.55007 0.91923 0.0
C667 C 0.56148 0.53117 0.90578 0.0
C668 C 0.58838 0.5419 0.93984 0.0
C669 C 0.51707 0.49698 0.97964 0.0
H670 H 0.59495 0.50549 0.00981 0.0
C671 C 0.49825 0.45823 0.06329 0.0
C672 C 0.52707 0.48275 0.07685 0.0
C673 C 0.50322 0.4611 0.04213 0.0
C674 C 0.57305 0.5031 0.00156 0.0
H675 H 0.50279 0.48878 0.90311 0.0
H676 H 0.49624 0.47383 0.93887 0.0
H677 H 0.60188 0.51635 0.97319 0.0
H678 H 0.58441 0.52851 0.0788 0.0
H679 H 0.59303 0.53342 0.04182 0.0
H680 H 0.48828 0.48377 0.00797 0.0
C681 C 0.52318 0.49537 0.93371 0.0
C682 C 0.57704 0.50943 0.98062 0.0
C683 C 0.52697 0.50374 0.91317 0.0
C684 C 0.56159 0.50925 0.06878 0.0
C685 C 0.5666 0.512 0.0476 0.0
C686 C 0.51299 0.49042 0.00049 0.0
C687 C 0.55375 0.51454 0.94736 0.0
C688 C 0.54919 0.50667 0.96944 0.0
C689 C 0.53717 0.48842 0.03407 0.0
C690 C 0.541 0.49361 0.0117 0.0
H691 H 0.61913 0.5714 0.91388 0.0
H692 H 0.61239 0.5575 0.94997 0.0
H693 H 0.4954 0.49526 0.97165 0.0
H694 H 0.47137 0.43738 0.06896 0.0
H695 H 0.48022 0.44228 0.03205 0.0
C696 C 0.02324 0.47967 0.2113 0.0
C697 C 0.029 0.50542 0.19956 0.0
C698 C 0.02427 0.48242 0.2327 0.0
C699 C 0.01127 0.52247 0.27559 0.0
H700 H 0.06614 0.50232 0.3072 0.0
C701 C 0.99308 0.50002 0.36258 0.0
C702 C 0.02556 0.51615 0.37462 0.0
C703 C 0.99481 0.5007 0.34122 0.0
C704 C 0.05089 0.50822 0.29856 0.0
H705 H 0.04106 0.55451 0.20089 0.0
H706 H 0.04195 0.55894 0.23833 0.0
H707 H 0.06683 0.49958 0.26974 0.0
H708 H 0.08537 0.54578 0.37361 0.0
H709 H 0.08825 0.54651 0.3362 0.0
H710 H 0.99494 0.53068 0.30442 0.0
C711 C 0.03651 0.53659 0.23098 0.0
C712 C 0.05104 0.50638 0.27716 0.0
C713 C 0.03595 0.53404 0.20957 0.0
C714 C 0.05985 0.53314 0.36479 0.0
C715 C 0.06151 0.53342 0.34339 0.0
C716 C 0.01073 0.52388 0.297 0.0
C717 C 0.03073 0.51083 0.24275 0.0
C718 C 0.03117 0.51341 0.26546 0.0
C719 C 0.02899 0.51716 0.3314 0.0
C720 C 0.03048 0.5167 0.3087 0.0
H721 H 0.01787 0.45735 0.20395 0.0
H722 H 0.01943 0.46205 0.2414 0.0
H723 H 0.99552 0.52781 0.26695 0.0
H724 H 0.96622 0.48678 0.36965 0.0
H725 H 0.96927 0.48771 0.33235 0.0
loop_
_geom_bond_atom_site_label_1
_geom_bond_atom_site_label_2
_geom_bond_distance
_geom_bond_site_symmetry_2
_ccdc_geom_bond_type
La0 C2 2.928 . S
La0 O20 2.521 . S
La0 O21 2.628 . S
La0 O22 2.554 . S
La0 O23 2.757 . S
La0 O24 2.470 . S
La0 O29 2.482 . S
La0 O31 2.503 1_455 S
La1 C11 2.928 . S
La1 O23 2.482 1_655 S
La1 O25 2.503 1_655 S
La1 O26 2.521 . S
La1 O27 2.628 . S
La1 O28 2.553 1_655 S
La1 O29 2.757 1_655 S
La1 O30 2.470 . S
C2 La0 2.928 . S
C2 C3 1.503 . S
C2 O20 1.261 . S
C2 O21 1.243 . S
C3 C2 1.503 . S
C3 C4 1.394 . S
C3 C8 1.373 . S
C4 C3 1.394 . S
C4 C5 1.380 . S
C4 H32 0.930 . S
C5 C4 1.380 . S
C5 C6 1.376 . S
C5 H33 0.930 . S
C6 C5 1.376 . S
C6 C7 1.370 . S
C7 C6 1.370 . S
C7 C8 1.396 . S
C7 H34 0.929 . S
C8 C3 1.373 . S
C8 C7 1.396 . S
C8 H35 0.929 . S
C9 O22 1.240 . S
C9 O23 1.289 . S
C10 O24 1.258 . S
C10 O25 1.256 . S
C11 La1 2.928 . S
C11 C12 1.503 . S
C11 O26 1.261 . S
C11 O27 1.243 . S
C12 C11 1.503 . S
C12 C13 1.394 . S
C12 C17 1.373 . S
C13 C12 1.394 . S
C13 C14 1.380 . S
C13 H36 0.930 . S
C14 C13 1.380 . S
C14 C15 1.376 . S
C14 H37 0.930 . S
C15 C14 1.376 . S
C15 C16 1.370 . S
C16 C15 1.370 . S
C16 C17 1.396 . S
C16 H38 0.929 . S
C17 C12 1.373 . S
C17 C16 1.396 . S
C17 H39 0.929 . S
C18 O28 1.242 . S
C18 O29 1.289 . S
C19 O30 1.258 . S
C19 O31 1.256 . S
O20 La0 2.521 . S
O20 C2 1.261 . S
O21 La0 2.628 . S
O21 C2 1.243 . S
O22 La0 2.554 . S
O22 C9 1.240 . S
O23 La0 2.757 . S
O23 La1 2.482 1_455 S
O23 C9 1.289 . S
O24 La0 2.470 . S
O24 C10 1.258 . S
O25 La1 2.503 1_455 S
O25 C10 1.256 . S
O26 La1 2.521 . S
O26 C11 1.261 . S
O27 La1 2.628 . S
O27 C11 1.243 . S
O28 La1 2.553 1_455 S
O28 C18 1.242 . S
O29 La0 2.482 . S
O29 La1 2.757 1_455 S
O29 C18 1.289 . S
O30 La1 2.470 . S
O30 C19 1.258 . S
O31 La0 2.503 1_655 S
O31 C19 1.256 . S
H32 C4 0.930 . S
H33 C5 0.930 . S
H34 C7 0.929 . S
H35 C8 0.929 . S
H36 C13 0.930 . S
H37 C14 0.930 . S
H38 C16 0.929 . S
H39 C17 0.929 . S
La40 C42 2.928 . S
La40 O60 2.521 . S
La40 O61 2.628 . S
La40 O62 2.554 . S
La40 O63 2.757 1_565 S
La40 O64 2.470 . S
La40 O69 2.482 1_565 S
La40 O71 2.503 1_565 S
La41 C51 2.928 . S
La41 O63 2.482 . S
La41 O65 2.503 1_545 S
La41 O66 2.521 . S
La41 O67 2.628 . S
La41 O68 2.554 . S
La41 O69 2.757 . S
La41 O70 2.470 . S
C42 La40 2.928 . S
C42 C43 1.503 . S
C42 O60 1.261 . S
C42 O61 1.243 . S
C43 C42 1.503 . S
C43 C44 1.394 . S
C43 C48 1.373 . S
C44 C43 1.394 . S
C44 C45 1.380 . S
C44 H72 0.930 . S
C45 C44 1.380 . S
C45 C46 1.376 . S
C45 H73 0.930 . S
C46 C45 1.376 . S
C46 C47 1.370 . S
C47 C46 1.370 . S
C47 C48 1.396 . S
C47 H74 0.929 . S
C48 C43 1.373 . S
C48 C47 1.396 . S
C48 H75 0.929 . S
C49 O62 1.240 1_545 S
C49 O63 1.289 . S
C50 O64 1.258 . S
C50 O65 1.256 . S
C51 La41 2.928 . S
C51 C52 1.503 . S
C51 O66 1.261 . S
C51 O67 1.243 . S
C52 C51 1.503 . S
C52 C53 1.394 . S
C52 C57 1.373 . S
C53 C52 1.394 . S
C53 C54 1.380 . S
C53 H76 0.930 . S
C54 C53 1.380 . S
C54 C55 1.376 . S
C54 H77 0.930 . S
C55 C54 1.376 . S
C55 C56 1.370 . S
C56 C55 1.370 . S
C56 C57 1.396 . S
C56 H78 0.929 . S
C57 C52 1.373 . S
C57 C56 1.396 . S
C57 H79 0.929 . S
C58 O68 1.240 . S
C58 O69 1.289 . S
C59 O70 1.258 . S
C59 O71 1.256 . S
O60 La40 2.521 . S
O60 C42 1.261 . S
O61 La40 2.628 . S
O61 C42 1.243 . S
O62 La40 2.554 . S
O62 C49 1.240 1_565 S
O63 La40 2.757 1_545 S
O63 La41 2.482 . S
O63 C49 1.289 . S
O64 La40 2.470 . S
O64 C50 1.258 . S
O65 La41 2.503 1_565 S
O65 C50 1.256 . S
O66 La41 2.521 . S
O66 C51 1.261 . S
O67 La41 2.628 . S
O67 C51 1.243 . S
O68 La41 2.554 . S
O68 C58 1.240 . S
O69 La40 2.482 1_545 S
O69 La41 2.757 . S
O69 C58 1.289 . S
O70 La41 2.470 . S
O70 C59 1.258 . S
O71 La40 2.503 1_545 S
O71 C59 1.256 . S
H72 C44 0.930 . S
H73 C45 0.930 . S
H74 C47 0.929 . S
H75 C48 0.929 . S
H76 C53 0.930 . S
H77 C54 0.930 . S
H78 C56 0.929 . S
H79 C57 0.929 . S
La80 C82 2.928 . S
La80 O100 2.521 . S
La80 O101 2.628 . S
La80 O102 2.554 . S
La80 O103 2.757 . S
La80 O104 2.470 . S
La80 O109 2.482 . S
La80 O111 2.503 . S
La81 C91 2.928 . S
La81 O103 2.482 . S
La81 O105 2.503 . S
La81 O106 2.521 . S
La81 O107 2.628 . S
La81 O108 2.554 . S
La81 O109 2.757 . S
La81 O110 2.470 . S
C82 La80 2.928 . S
C82 C83 1.503 . S
C82 O100 1.261 . S
C82 O101 1.243 . S
C83 C82 1.503 . S
C83 C84 1.394 . S
C83 C88 1.373 . S
C84 C83 1.394 . S
C84 C85 1.380 . S
C84 H112 0.930 . S
C85 C84 1.380 . S
C85 C86 1.376 . S
C85 H113 0.930 . S
C86 C85 1.376 . S
C86 C87 1.370 . S
C87 C86 1.370 . S
C87 C88 1.396 . S
C87 H114 0.929 . S
C88 C83 1.373 . S
C88 C87 1.396 . S
C88 H115 0.929 . S
C89 O102 1.240 . S
C89 O103 1.289 . S
C90 O104 1.258 . S
C90 O105 1.256 . S
C91 La81 2.928 . S
C91 C92 1.503 . S
C91 O106 1.261 . S
C91 O107 1.243 . S
C92 C91 1.503 . S
C92 C93 1.394 . S
C92 C97 1.373 . S
C93 C92 1.394 . S
C93 C94 1.380 . S
C93 H116 0.930 . S
C94 C93 1.380 . S
C94 C95 1.376 . S
C94 H117 0.930 . S
C95 C94 1.376 . S
C95 C96 1.370 . S
C96 C95 1.370 . S
C96 C97 1.396 . S
C96 H118 0.929 . S
C97 C92 1.373 . S
C97 C96 1.396 . S
C97 H119 0.929 . S
C98 O108 1.240 . S
C98 O109 1.289 . S
C99 O110 1.258 . S
C99 O111 1.256 . S
O100 La80 2.521 . S
O100 C82 1.261 . S
O101 La80 2.628 . S
O101 C82 1.243 . S
O102 La80 2.554 . S
O102 C89 1.240 . S
O103 La80 2.757 . S
O103 La81 2.482 . S
O103 C89 1.289 . S
O104 La80 2.470 . S
O104 C90 1.258 . S
O105 La81 2.503 . S
O105 C90 1.256 . S
O106 La81 2.521 . S
O106 C91 1.261 . S
O107 La81 2.628 . S
O107 C91 1.243 . S
O108 La81 2.554 . S
O108 C98 1.240 . S
O109 La80 2.482 . S
O109 La81 2.757 . S
O109 C98 1.289 . S
O110 La81 2.470 . S
O110 C99 1.258 . S
O111 La80 2.503 . S
O111 C99 1.256 . S
H112 C84 0.930 . S
H113 C85 0.930 . S
H114 C87 0.929 . S
H115 C88 0.929 . S
H116 C93 0.930 . S
H117 C94 0.930 . S
H118 C96 0.929 . S
H119 C97 0.929 . S
O120 Cd121 2.300 . S
O120 C127 1.275 . S
Cd121 O120 2.300 . S
Cd121 O129 2.381 . S
Cd121 O130 2.378 . S
O122 Cd123 2.385 . S
O122 C127 1.255 1_565 S
Cd123 O122 2.385 . S
Cd123 O124 2.317 . S
O124 Cd123 2.317 . S
O124 C125 1.232 . S
C125 O124 1.232 . S
C125 O126 1.218 . S
O126 C125 1.218 . S
C127 O120 1.275 . S
C127 O122 1.255 1_545 S
C128 O129 1.258 . S
C128 O130 1.256 . S
O129 Cd121 2.381 . S
O129 C128 1.258 . S
O130 Cd121 2.378 . S
O130 C128 1.256 . S
O131 Cd132 2.300 . S
O131 C138 1.275 . S
Cd132 O131 2.300 . S
Cd132 O140 2.381 . S
Cd132 O141 2.378 . S
O133 Cd134 2.385 . S
O133 C138 1.255 . S
Cd134 O133 2.385 . S
Cd134 O135 2.317 . S
O135 Cd134 2.317 . S
O135 C136 1.232 . S
C136 O135 1.232 . S
C136 O137 1.218 . S
O137 C136 1.218 . S
C138 O131 1.275 . S
C138 O133 1.255 . S
C139 O140 1.258 . S
C139 O141 1.256 . S
O140 Cd132 2.381 . S
O140 C139 1.258 . S
O141 Cd132 2.378 . S
O141 C139 1.256 . S
O142 Cd143 2.300 . S
O142 C149 1.275 . S
Cd143 O142 2.300 . S
Cd143 O151 2.381 . S
Cd143 O152 2.378 . S
O144 Cd145 2.385 1_455 S
O144 C149 1.255 . S
Cd145 O144 2.385 1_655 S
Cd145 O146 2.317 . S
O146 Cd145 2.317 . S
O146 C147 1.232 . S
C147 O146 1.232 . S
C147 O148 1.218 . S
O148 C147 1.218 . S
C149 O142 1.275 . S
C149 O144 1.255 . S
C150 O151 1.258 . S
C150 O152 1.256 . S
O151 Cd143 2.381 . S
O151 C150 1.258 . S
O152 Cd143 2.378 . S
O152 C150 1.256 . S
O153 Cd154 2.300 . S
O153 C160 1.275 1_455 S
Cd154 O153 2.300 . S
Cd154 O162 2.381 . S
Cd154 O163 2.378 . S
O155 Cd156 2.385 . S
O155 C160 1.255 . S
Cd156 O155 2.385 . S
Cd156 O157 2.317 . S
O157 Cd156 2.317 . S
O157 C158 1.232 . S
C158 O157 1.232 . S
C158 O159 1.218 . S
O159 C158 1.218 . S
C160 O153 1.275 1_655 S
C160 O155 1.255 . S
C161 O162 1.258 . S
C161 O163 1.256 . S
O162 Cd154 2.381 . S
O162 C161 1.258 . S
O163 Cd154 2.378 . S
O163 C161 1.256 . S
O164 Cd165 2.300 . S
O164 C171 1.275 1_565 S
Cd165 O164 2.300 . S
Cd165 O173 2.381 . S
Cd165 O174 2.378 . S
O166 Cd167 2.385 . S
O166 C171 1.255 . S
Cd167 O166 2.385 . S
Cd167 O168 2.317 . S
O168 Cd167 2.317 . S
O168 C169 1.232 . S
C169 O168 1.232 . S
C169 O170 1.218 . S
O170 C169 1.218 . S
C171 O164 1.275 1_545 S
C171 O166 1.255 . S
C172 O173 1.258 . S
C172 O174 1.256 . S
O173 Cd165 2.381 . S
O173 C172 1.258 . S
O174 Cd165 2.378 . S
O174 C172 1.256 . S
O175 Cd176 2.300 . S
O175 C182 1.275 . S
Cd176 O175 2.300 . S
Cd176 O184 2.381 . S
Cd176 O185 2.378 . S
O177 Cd178 2.385 . S
O177 C182 1.255 . S
Cd178 O177 2.385 . S
Cd178 O179 2.317 . S
O179 Cd178 2.317 . S
O179 C180 1.232 . S
C180 O179 1.232 . S
C180 O181 1.218 . S
O181 C180 1.218 . S
C182 O175 1.275 . S
C182 O177 1.255 . S
C183 O184 1.258 . S
C183 O185 1.256 . S
O184 Cd176 2.381 . S
O184 C183 1.258 . S
O185 Cd176 2.378 . S
O185 C183 1.256 . S
C186 C187 1.349 . S
C186 C188 1.327 . S
C186 H211 0.950 . S
C187 C186 1.349 . S
C187 C203 1.349 . S
C188 C186 1.327 . S
C188 C207 1.429 . S
C188 H212 0.950 . S
C189 C206 1.574 . S
C189 C208 1.368 . S
C189 H213 0.949 . S
H190 C194 0.949 . S
C191 C192 1.349 . S
C191 C193 1.327 . S
C191 H214 0.950 . S
C192 C191 1.349 . S
C192 C204 1.349 . S
C193 C191 1.327 . S
C193 C209 1.429 . S
C193 H215 0.950 . S
C194 H190 0.949 . S
C194 C202 1.574 . S
C194 C210 1.368 . S
H195 C203 0.950 . S
H196 C201 0.950 . S
H197 C202 0.949 . S
H198 C204 0.950 . S
H199 C205 0.950 . S
H200 C206 0.949 . S
C201 H196 0.950 . S
C201 C203 1.327 . S
C201 C207 1.429 . S
C202 C194 1.574 . S
C202 H197 0.949 . S
C202 C208 1.368 . S
C203 C187 1.349 . S
C203 H195 0.950 . S
C203 C201 1.327 . S
C204 C192 1.349 . S
C204 H198 0.950 . S
C204 C205 1.327 . S
C205 H199 0.950 . S
C205 C204 1.327 . S
C205 C209 1.429 . S
C206 C189 1.574 . S
C206 H200 0.949 . S
C206 C210 1.368 . S
C207 C188 1.429 . S
C207 C201 1.429 . S
C207 C208 1.523 . S
C208 C189 1.368 . S
C208 C202 1.368 . S
C208 C207 1.523 . S
C209 C193 1.429 . S
C209 C205 1.429 . S
C209 C210 1.523 . S
C210 C194 1.368 . S
C210 C206 1.368 . S
C210 C209 1.523 . S
H211 C186 0.950 . S
H212 C188 0.950 . S
H213 C189 0.949 . S
H214 C191 0.950 . S
H215 C193 0.950 . S
C216 C217 1.349 . S
C216 C218 1.327 . S
C216 H241 0.950 . S
C217 C216 1.349 . S
C217 C233 1.349 . S
C218 C216 1.327 . S
C218 C237 1.429 . S
C218 H242 0.950 . S
C219 C236 1.574 . S
C219 C238 1.368 . S
C219 H243 0.949 . S
H220 C224 0.949 . S
C221 C222 1.349 . S
C221 C223 1.327 . S
C221 H244 0.950 . S
C222 C221 1.349 . S
C222 C234 1.349 . S
C223 C221 1.327 . S
C223 C239 1.429 . S
C223 H245 0.950 . S
C224 H220 0.949 . S
C224 C232 1.574 . S
C224 C240 1.368 . S
H225 C233 0.950 . S
H226 C231 0.950 . S
H227 C232 0.949 . S
H228 C234 0.950 . S
H229 C235 0.950 . S
H230 C236 0.949 . S
C231 H226 0.950 . S
C231 C233 1.327 . S
C231 C237 1.429 . S
C232 C224 1.574 . S
C232 H227 0.949 . S
C232 C238 1.368 . S
C233 C217 1.349 . S
C233 H225 0.950 . S
C233 C231 1.327 . S
C234 C222 1.349 . S
C234 H228 0.950 . S
C234 C235 1.327 . S
C235 H229 0.950 . S
C235 C234 1.327 . S
C235 C239 1.429 . S
C236 C219 1.574 . S
C236 H230 0.949 . S
C236 C240 1.368 . S
C237 C218 1.429 . S
C237 C231 1.429 . S
C237 C238 1.523 . S
C238 C219 1.368 . S
C238 C232 1.368 . S
C238 C237 1.523 . S
C239 C223 1.429 . S
C239 C235 1.429 . S
C239 C240 1.523 . S
C240 C224 1.368 . S
C240 C236 1.368 . S
C240 C239 1.523 . S
H241 C216 0.950 . S
H242 C218 0.950 . S
H243 C219 0.949 . S
H244 C221 0.950 . S
H245 C223 0.950 . S
C246 C247 1.349 . S
C246 C248 1.327 . S
C246 H271 0.950 . S
C247 C246 1.349 . S
C247 C263 1.349 . S
C248 C246 1.327 . S
C248 C267 1.429 . S
C248 H272 0.950 . S
C249 C266 1.574 . S
C249 C268 1.368 . S
C249 H273 0.949 . S
H250 C254 0.949 . S
C251 C252 1.349 . S
C251 C253 1.327 . S
C251 H274 0.950 . S
C252 C251 1.349 . S
C252 C264 1.349 . S
C253 C251 1.327 . S
C253 C269 1.429 . S
C253 H275 0.950 . S
C254 H250 0.949 . S
C254 C262 1.574 . S
C254 C270 1.368 . S
H255 C263 0.950 . S
H256 C261 0.950 . S
H257 C262 0.949 . S
H258 C264 0.950 . S
H259 C265 0.950 . S
H260 C266 0.949 . S
C261 H256 0.950 . S
C261 C263 1.327 . S
C261 C267 1.429 . S
C262 C254 1.574 . S
C262 H257 0.949 . S
C262 C268 1.368 . S
C263 C247 1.349 . S
C263 H255 0.950 . S
C263 C261 1.327 . S
C264 C252 1.349 . S
C264 H258 0.950 . S
C264 C265 1.327 . S
C265 H259 0.950 . S
C265 C264 1.327 . S
C265 C269 1.429 . S
C266 C249 1.574 . S
C266 H260 0.949 . S
C266 C270 1.368 . S
C267 C248 1.429 . S
C267 C261 1.429 . S
C267 C268 1.523 . S
C268 C249 1.368 . S
C268 C262 1.368 . S
C268 C267 1.523 . S
C269 C253 1.429 . S
C269 C265 1.429 . S
C269 C270 1.523 . S
C270 C254 1.368 . S
C270 C266 1.368 . S
C270 C269 1.523 . S
H271 C246 0.950 . S
H272 C248 0.950 . S
H273 C249 0.949 . S
H274 C251 0.950 . S
H275 C253 0.950 . S
C276 C277 1.349 . S
C276 C278 1.327 . S
C276 H301 0.950 . S
C277 C276 1.349 . S
C277 C293 1.349 . S
C278 C276 1.327 . S
C278 C297 1.429 . S
C278 H302 0.950 . S
C279 C296 1.574 . S
C279 C298 1.368 . S
C279 H303 0.949 . S
H280 C284 0.949 . S
C281 C282 1.349 . S
C281 C283 1.327 . S
C281 H304 0.950 . S
C282 C281 1.349 . S
C282 C294 1.349 . S
C283 C281 1.327 . S
C283 C299 1.429 . S
C283 H305 0.950 . S
C284 H280 0.949 . S
C284 C292 1.574 . S
C284 C300 1.368 . S
H285 C293 0.950 . S
H286 C291 0.950 . S
H287 C292 0.949 . S
H288 C294 0.950 . S
H289 C295 0.950 . S
H290 C296 0.949 . S
C291 H286 0.950 . S
C291 C293 1.327 . S
C291 C297 1.429 . S
C292 C284 1.574 . S
C292 H287 0.949 . S
C292 C298 1.368 . S
C293 C277 1.349 . S
C293 H285 0.950 . S
C293 C291 1.327 . S
C294 C282 1.349 . S
C294 H288 0.950 . S
C294 C295 1.327 . S
C295 H289 0.950 . S
C295 C294 1.327 . S
C295 C299 1.429 . S
C296 C279 1.574 . S
C296 H290 0.949 . S
C296 C300 1.368 . S
C297 C278 1.429 . S
C297 C291 1.429 . S
C297 C298 1.523 . S
C298 C279 1.368 . S
C298 C292 1.368 . S
C298 C297 1.523 . S
C299 C283 1.429 . S
C299 C295 1.429 . S
C299 C300 1.523 . S
C300 C284 1.368 . S
C300 C296 1.368 . S
C300 C299 1.523 . S
H301 C276 0.950 . S
H302 C278 0.950 . S
H303 C279 0.949 . S
H304 C281 0.950 . S
H305 C283 0.950 . S
C306 C307 1.349 . S
C306 C308 1.327 . S
C306 H331 0.950 . S
C307 C306 1.349 . S
C307 C323 1.349 . S
C308 C306 1.327 . S
C308 C327 1.429 . S
C308 H332 0.950 . S
C309 C326 1.574 . S
C309 C328 1.368 . S
C309 H333 0.949 . S
H310 C314 0.949 . S
C311 C312 1.349 . S
C311 C313 1.327 . S
C311 H334 0.950 . S
C312 C311 1.349 . S
C312 C324 1.349 . S
C313 C311 1.327 . S
C313 C329 1.429 . S
C313 H335 0.950 . S
C314 H310 0.949 . S
C314 C322 1.574 . S
C314 C330 1.368 . S
H315 C323 0.950 . S
H316 C321 0.950 . S
H317 C322 0.949 . S
H318 C324 0.950 . S
H319 C325 0.950 . S
H320 C326 0.949 . S
C321 H316 0.950 . S
C321 C323 1.327 . S
C321 C327 1.429 . S
C322 C314 1.574 . S
C322 H317 0.949 . S
C322 C328 1.368 . S
C323 C307 1.349 . S
C323 H315 0.950 . S
C323 C321 1.327 . S
C324 C312 1.349 . S
C324 H318 0.950 . S
C324 C325 1.327 . S
C325 H319 0.950 . S
C325 C324 1.327 . S
C325 C329 1.429 . S
C326 C309 1.574 . S
C326 H320 0.949 . S
C326 C330 1.368 . S
C327 C308 1.429 . S
C327 C321 1.429 . S
C327 C328 1.523 . S
C328 C309 1.368 . S
C328 C322 1.368 . S
C328 C327 1.523 . S
C329 C313 1.429 . S
C329 C325 1.429 . S
C329 C330 1.523 . S
C330 C314 1.368 . S
C330 C326 1.368 . S
C330 C329 1.523 . S
H331 C306 0.950 . S
H332 C308 0.950 . S
H333 C309 0.949 . S
H334 C311 0.950 . S
H335 C313 0.950 . S
C336 C337 1.349 . S
C336 C338 1.327 . S
C336 H361 0.950 . S
C337 C336 1.349 . S
C337 C353 1.349 . S
C338 C336 1.327 . S
C338 C357 1.429 . S
C338 H362 0.950 . S
C339 C356 1.574 . S
C339 C358 1.368 . S
C339 H363 0.949 . S
H340 C344 0.949 . S
C341 C342 1.349 . S
C341 C343 1.327 . S
C341 H364 0.950 . S
C342 C341 1.349 . S
C342 C354 1.349 . S
C343 C341 1.327 . S
C343 C359 1.429 . S
C343 H365 0.950 . S
C344 H340 0.949 . S
C344 C352 1.574 . S
C344 C360 1.368 . S
H345 C353 0.950 . S
H346 C351 0.950 . S
H347 C352 0.949 . S
H348 C354 0.950 . S
H349 C355 0.950 . S
H350 C356 0.949 . S
C351 H346 0.950 . S
C351 C353 1.327 . S
C351 C357 1.429 . S
C352 C344 1.574 . S
C352 H347 0.949 . S
C352 C358 1.368 . S
C353 C337 1.349 . S
C353 H345 0.950 . S
C353 C351 1.327 . S
C354 C342 1.349 . S
C354 H348 0.950 . S
C354 C355 1.327 . S
C355 H349 0.950 . S
C355 C354 1.327 . S
C355 C359 1.429 . S
C356 C339 1.574 . S
C356 H350 0.949 . S
C356 C360 1.368 . S
C357 C338 1.429 . S
C357 C351 1.429 . S
C357 C358 1.523 . S
C358 C339 1.368 . S
C358 C352 1.368 . S
C358 C357 1.523 . S
C359 C343 1.429 . S
C359 C355 1.429 . S
C359 C360 1.523 . S
C360 C344 1.368 . S
C360 C356 1.368 . S
C360 C359 1.523 . S
H361 C336 0.950 . S
H362 C338 0.950 . S
H363 C339 0.949 . S
H364 C341 0.950 . S
H365 C343 0.950 . S
C366 C367 1.349 . S
C366 C368 1.327 . S
C366 H391 0.950 . S
C367 C366 1.349 . S
C367 C383 1.349 . S
C368 C366 1.327 . S
C368 C387 1.429 . S
C368 H392 0.950 . S
C369 C386 1.574 . S
C369 C388 1.368 . S
C369 H393 0.949 . S
H370 C374 0.949 . S
C371 C372 1.349 . S
C371 C373 1.327 . S
C371 H394 0.950 . S
C372 C371 1.349 . S
C372 C384 1.349 . S
C373 C371 1.327 . S
C373 C389 1.429 . S
C373 H395 0.950 . S
C374 H370 0.949 . S
C374 C382 1.574 . S
C374 C390 1.368 . S
H375 C383 0.950 . S
H376 C381 0.950 . S
H377 C382 0.949 . S
H378 C384 0.950 . S
H379 C385 0.950 . S
H380 C386 0.949 . S
C381 H376 0.950 . S
C381 C383 1.327 . S
C381 C387 1.429 . S
C382 C374 1.574 . S
C382 H377 0.949 . S
C382 C388 1.368 . S
C383 C367 1.349 . S
C383 H375 0.950 . S
C383 C381 1.327 . S
C384 C372 1.349 . S
C384 H378 0.950 . S
C384 C385 1.327 . S
C385 H379 0.950 . S
C385 C384 1.327 . S
C385 C389 1.429 . S
C386 C369 1.574 . S
C386 H380 0.949 . S
C386 C390 1.368 . S
C387 C368 1.429 . S
C387 C381 1.429 . S
C387 C388 1.523 . S
C388 C369 1.368 . S
C388 C382 1.368 . S
C388 C387 1.523 . S
C389 C373 1.429 . S
C389 C385 1.429 . S
C389 C390 1.523 . S
C390 C374 1.368 . S
C390 C386 1.368 . S
C390 C389 1.523 . S
H391 C366 0.950 . S
H392 C368 0.950 . S
H393 C369 0.949 . S
H394 C371 0.950 . S
H395 C373 0.950 . S
C396 C397 1.349 . S
C396 C398 1.327 . S
C396 H421 0.950 . S
C397 C396 1.349 . S
C397 C413 1.349 . S
C398 C396 1.327 . S
C398 C417 1.429 . S
C398 H422 0.950 . S
C399 C416 1.574 . S
C399 C418 1.368 . S
C399 H423 0.949 . S
H400 C404 0.949 . S
C401 C402 1.349 . S
C401 C403 1.327 . S
C401 H424 0.950 . S
C402 C401 1.349 . S
C402 C414 1.349 . S
C403 C401 1.327 . S
C403 C419 1.429 . S
C403 H425 0.950 . S
C404 H400 0.949 . S
C404 C412 1.574 . S
C404 C420 1.368 . S
H405 C413 0.950 . S
H406 C411 0.950 . S
H407 C412 0.949 . S
H408 C414 0.950 . S
H409 C415 0.950 . S
H410 C416 0.949 . S
C411 H406 0.950 . S
C411 C413 1.327 . S
C411 C417 1.429 . S
C412 C404 1.574 . S
C412 H407 0.949 . S
C412 C418 1.368 . S
C413 C397 1.349 . S
C413 H405 0.950 . S
C413 C411 1.327 . S
C414 C402 1.349 . S
C414 H408 0.950 . S
C414 C415 1.327 . S
C415 H409 0.950 . S
C415 C414 1.327 . S
C415 C419 1.429 . S
C416 C399 1.574 . S
C416 H410 0.949 . S
C416 C420 1.368 . S
C417 C398 1.429 . S
C417 C411 1.429 . S
C417 C418 1.523 . S
C418 C399 1.368 . S
C418 C412 1.368 . S
C418 C417 1.523 . S
C419 C403 1.429 . S
C419 C415 1.429 . S
C419 C420 1.523 . S
C420 C404 1.368 . S
C420 C416 1.368 . S
C420 C419 1.523 . S
H421 C396 0.950 . S
H422 C398 0.950 . S
H423 C399 0.949 . S
H424 C401 0.950 . S
H425 C403 0.950 . S
C426 C427 1.349 . S
C426 C428 1.327 . S
C426 H451 0.950 . S
C427 C426 1.349 . S
C427 C443 1.349 . S
C428 C426 1.327 . S
C428 C447 1.429 . S
C428 H452 0.950 . S
C429 C446 1.574 . S
C429 C448 1.368 . S
C429 H453 0.949 . S
H430 C434 0.949 . S
C431 C432 1.349 . S
C431 C433 1.327 . S
C431 H454 0.950 . S
C432 C431 1.349 . S
C432 C444 1.349 . S
C433 C431 1.327 . S
C433 C449 1.429 . S
C433 H455 0.950 . S
C434 H430 0.949 . S
C434 C442 1.574 . S
C434 C450 1.368 . S
H435 C443 0.950 . S
H436 C441 0.950 . S
H437 C442 0.949 . S
H438 C444 0.950 . S
H439 C445 0.950 . S
H440 C446 0.949 . S
C441 H436 0.950 . S
C441 C443 1.327 . S
C441 C447 1.429 . S
C442 C434 1.574 . S
C442 H437 0.949 . S
C442 C448 1.368 . S
C443 C427 1.349 . S
C443 H435 0.950 . S
C443 C441 1.327 . S
C444 C432 1.349 . S
C444 H438 0.950 . S
C444 C445 1.327 . S
C445 H439 0.950 . S
C445 C444 1.327 . S
C445 C449 1.429 . S
C446 C429 1.574 . S
C446 H440 0.949 . S
C446 C450 1.368 . S
C447 C428 1.429 . S
C447 C441 1.429 . S
C447 C448 1.523 . S
C448 C429 1.368 . S
C448 C442 1.368 . S
C448 C447 1.523 . S
C449 C433 1.429 . S
C449 C445 1.429 . S
C449 C450 1.523 . S
C450 C434 1.368 . S
C450 C446 1.368 . S
C450 C449 1.523 . S
H451 C426 0.950 . S
H452 C428 0.950 . S
H453 C429 0.949 . S
H454 C431 0.950 . S
H455 C433 0.950 . S
C456 C457 1.349 . S
C456 C458 1.327 . S
C456 H481 0.950 . S
C457 C456 1.349 . S
C457 C473 1.349 . S
C458 C456 1.327 . S
C458 C477 1.429 . S
C458 H482 0.950 . S
C459 C476 1.574 . S
C459 C478 1.368 . S
C459 H483 0.949 . S
H460 C464 0.949 . S
C461 C462 1.349 . S
C461 C463 1.327 . S
C461 H484 0.950 . S
C462 C461 1.349 . S
C462 C474 1.349 . S
C463 C461 1.327 . S
C463 C479 1.429 . S
C463 H485 0.950 . S
C464 H460 0.949 . S
C464 C472 1.574 . S
C464 C480 1.368 . S
H465 C473 0.950 . S
H466 C471 0.950 . S
H467 C472 0.949 . S
H468 C474 0.950 . S
H469 C475 0.950 . S
H470 C476 0.949 . S
C471 H466 0.950 . S
C471 C473 1.327 . S
C471 C477 1.429 . S
C472 C464 1.574 . S
C472 H467 0.949 . S
C472 C478 1.368 . S
C473 C457 1.349 . S
C473 H465 0.950 . S
C473 C471 1.327 . S
C474 C462 1.349 . S
C474 H468 0.950 . S
C474 C475 1.327 . S
C475 H469 0.950 . S
C475 C474 1.327 . S
C475 C479 1.429 . S
C476 C459 1.574 . S
C476 H470 0.949 . S
C476 C480 1.368 . S
C477 C458 1.429 . S
C477 C471 1.429 . S
C477 C478 1.523 . S
C478 C459 1.368 . S
C478 C472 1.368 . S
C478 C477 1.523 . S
C479 C463 1.429 . S
C479 C475 1.429 . S
C479 C480 1.523 . S
C480 C464 1.368 . S
C480 C476 1.368 . S
C480 C479 1.523 . S
H481 C456 0.950 . S
H482 C458 0.950 . S
H483 C459 0.949 . S
H484 C461 0.950 . S
H485 C463 0.950 . S
C486 C487 1.349 . S
C486 C488 1.327 . S
C486 H511 0.950 . S
C487 C486 1.349 . S
C487 C503 1.349 . S
C488 C486 1.327 . S
C488 C507 1.429 . S
C488 H512 0.950 . S
C489 C506 1.574 . S
C489 C508 1.368 . S
C489 H513 0.949 . S
H490 C494 0.949 . S
C491 C492 1.349 . S
C491 C493 1.327 . S
C491 H514 0.950 . S
C492 C491 1.349 . S
C492 C504 1.349 . S
C493 C491 1.327 . S
C493 C509 1.429 . S
C493 H515 0.950 . S
C494 H490 0.949 . S
C494 C502 1.574 . S
C494 C510 1.368 . S
H495 C503 0.950 . S
H496 C501 0.950 . S
H497 C502 0.949 . S
H498 C504 0.950 . S
H499 C505 0.950 . S
H500 C506 0.949 . S
C501 H496 0.950 . S
C501 C503 1.327 . S
C501 C507 1.429 . S
C502 C494 1.574 . S
C502 H497 0.949 . S
C502 C508 1.368 . S
C503 C487 1.349 . S
C503 H495 0.950 . S
C503 C501 1.327 . S
C504 C492 1.349 . S
C504 H498 0.950 . S
C504 C505 1.327 . S
C505 H499 0.950 . S
C505 C504 1.327 . S
C505 C509 1.429 . S
C506 C489 1.574 . S
C506 H500 0.949 . S
C506 C510 1.368 . S
C507 C488 1.429 . S
C507 C501 1.429 . S
C507 C508 1.523 . S
C508 C489 1.368 . S
C508 C502 1.368 . S
C508 C507 1.523 . S
C509 C493 1.429 . S
C509 C505 1.429 . S
C509 C510 1.523 . S
C510 C494 1.368 . S
C510 C506 1.368 . S
C510 C509 1.523 . S
H511 C486 0.950 . S
H512 C488 0.950 . S
H513 C489 0.949 . S
H514 C491 0.950 . S
H515 C493 0.950 . S
C516 C517 1.349 . S
C516 C518 1.327 . S
C516 H541 0.950 . S
C517 C516 1.349 . S
C517 C533 1.349 . S
C518 C516 1.327 . S
C518 C537 1.429 . S
C518 H542 0.950 . S
C519 C536 1.574 . S
C519 C538 1.368 . S
C519 H543 0.949 . S
H520 C524 0.949 . S
C521 C522 1.349 . S
C521 C523 1.327 . S
C521 H544 0.950 . S
C522 C521 1.349 . S
C522 C534 1.349 . S
C523 C521 1.327 . S
C523 C539 1.429 . S
C523 H545 0.950 . S
C524 H520 0.949 . S
C524 C532 1.574 . S
C524 C540 1.368 . S
H525 C533 0.950 . S
H526 C531 0.950 . S
H527 C532 0.949 . S
H528 C534 0.950 . S
H529 C535 0.950 . S
H530 C536 0.949 . S
C531 H526 0.950 . S
C531 C533 1.327 . S
C531 C537 1.429 . S
C532 C524 1.574 . S
C532 H527 0.949 . S
C532 C538 1.368 . S
C533 C517 1.349 . S
C533 H525 0.950 . S
C533 C531 1.327 . S
C534 C522 1.349 . S
C534 H528 0.950 . S
C534 C535 1.327 . S
C535 H529 0.950 . S
C535 C534 1.327 . S
C535 C539 1.429 . S
C536 C519 1.574 . S
C536 H530 0.949 . S
C536 C540 1.368 . S
C537 C518 1.429 . S
C537 C531 1.429 . S
C537 C538 1.523 . S
C538 C519 1.368 . S
C538 C532 1.368 . S
C538 C537 1.523 . S
C539 C523 1.429 . S
C539 C535 1.429 . S
C539 C540 1.523 . S
C540 C524 1.368 . S
C540 C536 1.368 . S
C540 C539 1.523 . S
H541 C516 0.950 . S
H542 C518 0.950 . S
H543 C519 0.949 . S
H544 C521 0.950 . S
H545 C523 0.950 . S
C546 C547 1.349 . S
C546 C548 1.327 . S
C546 H571 0.950 . S
C547 C546 1.349 . S
C547 C563 1.349 1_455 S
C548 C546 1.327 . S
C548 C567 1.429 . S
C548 H572 0.950 . S
C549 C566 1.574 . S
C549 C568 1.368 1_655 S
C549 H573 0.949 . S
H550 C554 0.949 . S
C551 C552 1.349 1_655 S
C551 C553 1.327 . S
C551 H574 0.950 . S
C552 C551 1.349 1_455 S
C552 C564 1.349 . S
C553 C551 1.327 . S
C553 C569 1.429 1_655 S
C553 H575 0.950 . S
C554 H550 0.949 . S
C554 C562 1.574 . S
C554 C570 1.354 1_554 S
H555 C563 0.950 . S
H556 C561 0.950 . S
H557 C562 0.949 . S
H558 C564 0.950 . S
H559 C565 0.950 . S
H560 C566 0.949 1_556 S
C561 H556 0.950 . S
C561 C563 1.327 . S
C561 C567 1.429 1_655 S
C562 C554 1.574 . S
C562 H557 0.949 . S
C562 C568 1.368 . S
C563 C547 1.349 1_655 S
C563 H555 0.950 . S
C563 C561 1.327 . S
C564 C552 1.349 . S
C564 H558 0.950 . S
C564 C565 1.327 . S
C565 H559 0.950 . S
C565 C564 1.327 . S
C565 C569 1.429 . S
C566 C549 1.574 . S
C566 H560 0.949 1_554 S
C566 C570 1.357 1_654 S
C567 C548 1.429 . S
C567 C561 1.429 1_455 S
C567 C568 1.523 . S
C568 C549 1.368 1_455 S
C568 C562 1.368 . S
C568 C567 1.523 . S
C569 C553 1.429 1_455 S
C569 C565 1.429 . S
C569 C570 1.557 . S
C570 C554 1.354 1_556 S
C570 C566 1.357 1_456 S
C570 C569 1.557 . S
H571 C546 0.950 . S
H572 C548 0.950 . S
H573 C549 0.949 . S
H574 C551 0.950 . S
H575 C553 0.950 . S
C576 C577 1.349 . S
C576 C578 1.327 . S
C576 H601 0.950 . S
C577 C576 1.349 . S
C577 C593 1.349 1_545 S
C578 C576 1.327 . S
C578 C597 1.429 . S
C578 H602 0.950 . S
C579 C596 1.574 . S
C579 C598 1.368 1_565 S
C579 H603 0.949 . S
H580 C584 0.949 . S
C581 C582 1.349 1_565 S
C581 C583 1.327 . S
C581 H604 0.950 . S
C582 C581 1.349 1_545 S
C582 C594 1.349 . S
C583 C581 1.327 . S
C583 C599 1.429 1_565 S
C583 H605 0.950 . S
C584 H580 0.949 . S
C584 C592 1.574 . S
C584 C600 1.368 . S
H585 C593 0.950 . S
H586 C591 0.950 . S
H587 C592 0.949 . S
H588 C594 0.950 . S
H589 C595 0.950 . S
H590 C596 0.949 . S
C591 H586 0.950 . S
C591 C593 1.327 . S
C591 C597 1.429 1_565 S
C592 C584 1.574 . S
C592 H587 0.949 . S
C592 C598 1.368 . S
C593 C577 1.349 1_565 S
C593 H585 0.950 . S
C593 C591 1.327 . S
C594 C582 1.349 . S
C594 H588 0.950 . S
C594 C595 1.327 . S
C595 H589 0.950 . S
C595 C594 1.327 . S
C595 C599 1.429 . S
C596 C579 1.574 . S
C596 H590 0.949 . S
C596 C600 1.368 1_565 S
C597 C578 1.429 . S
C597 C591 1.429 1_545 S
C597 C598 1.523 . S
C598 C579 1.368 1_545 S
C598 C592 1.368 . S
C598 C597 1.523 . S
C599 C583 1.429 1_545 S
C599 C595 1.429 . S
C599 C600 1.523 . S
C600 C584 1.368 . S
C600 C596 1.368 1_545 S
C600 C599 1.523 . S
H601 C576 0.950 . S
H602 C578 0.950 . S
H603 C579 0.949 . S
H604 C581 0.950 . S
H605 C583 0.950 . S
C606 C607 1.349 . S
C606 C608 1.327 . S
C606 H631 0.950 . S
C607 C606 1.349 . S
C607 C623 1.349 . S
C608 C606 1.327 . S
C608 C627 1.429 . S
C608 H632 0.950 . S
C609 C626 1.574 . S
C609 C628 1.368 . S
C609 H633 0.949 . S
H610 C614 0.949 . S
C611 C612 1.349 . S
C611 C613 1.327 . S
C611 H634 0.950 . S
C612 C611 1.349 . S
C612 C624 1.349 . S
C613 C611 1.327 . S
C613 C629 1.429 . S
C613 H635 0.950 . S
C614 H610 0.949 . S
C614 C622 1.574 . S
C614 C630 1.368 . S
H615 C623 0.950 . S
H616 C621 0.950 . S
H617 C622 0.949 . S
H618 C624 0.950 . S
H619 C625 0.950 . S
H620 C626 0.949 . S
C621 H616 0.950 . S
C621 C623 1.327 . S
C621 C627 1.429 . S
C622 C614 1.574 . S
C622 H617 0.949 . S
C622 C628 1.368 . S
C623 C607 1.349 . S
C623 H615 0.950 . S
C623 C621 1.327 . S
C624 C612 1.349 . S
C624 H618 0.950 . S
C624 C625 1.327 . S
C625 H619 0.950 . S
C625 C624 1.327 . S
C625 C629 1.429 . S
C626 C609 1.574 . S
C626 H620 0.949 . S
C626 C630 1.368 . S
C627 C608 1.429 . S
C627 C621 1.429 . S
C627 C628 1.523 . S
C628 C609 1.368 . S
C628 C622 1.368 . S
C628 C627 1.523 . S
C629 C613 1.429 . S
C629 C625 1.429 . S
C629 C630 1.523 . S
C630 C614 1.368 . S
C630 C626 1.368 . S
C630 C629 1.523 . S
H631 C606 0.950 . S
H632 C608 0.950 . S
H633 C609 0.949 . S
H634 C611 0.950 . S
H635 C613 0.950 . S
C636 C637 1.349 . S
C636 C638 1.327 . S
C636 H661 0.950 . S
C637 C636 1.349 . S
C637 C653 1.349 1_545 S
C638 C636 1.327 . S
C638 C657 1.429 . S
C638 H662 0.950 . S
C639 C656 1.574 . S
C639 C658 1.368 1_565 S
C639 H663 0.949 . S
H640 C644 0.949 . S
C641 C642 1.349 1_565 S
C641 C643 1.327 . S
C641 H664 0.950 . S
C642 C641 1.349 1_545 S
C642 C654 1.349 . S
C643 C641 1.327 . S
C643 C659 1.429 1_565 S
C643 H665 0.950 . S
C644 H640 0.949 . S
C644 C652 1.574 . S
C644 C660 1.368 . S
H645 C653 0.950 . S
H646 C651 0.950 . S
H647 C652 0.949 . S
H648 C654 0.950 . S
H649 C655 0.950 . S
H650 C656 0.949 . S
C651 H646 0.950 . S
C651 C653 1.327 . S
C651 C657 1.429 1_565 S
C652 C644 1.574 . S
C652 H647 0.949 . S
C652 C658 1.368 . S
C653 C637 1.349 1_565 S
C653 H645 0.950 . S
C653 C651 1.327 . S
C654 C642 1.349 . S
C654 H648 0.950 . S
C654 C655 1.327 . S
C655 H649 0.950 . S
C655 C654 1.327 . S
C655 C659 1.429 . S
C656 C639 1.574 . S
C656 H650 0.949 . S
C656 C660 1.368 1_565 S
C657 C638 1.429 . S
C657 C651 1.429 1_545 S
C657 C658 1.523 . S
C658 C639 1.368 1_545 S
C658 C652 1.368 . S
C658 C657 1.523 . S
C659 C643 1.429 1_545 S
C659 C655 1.429 . S
C659 C660 1.523 . S
C660 C644 1.368 . S
C660 C656 1.368 1_545 S
C660 C659 1.523 . S
H661 C636 0.950 . S
H662 C638 0.950 . S
H663 C639 0.949 . S
H664 C641 0.950 . S
H665 C643 0.950 . S
C666 C667 1.349 . S
C666 C668 1.327 . S
C666 H691 0.950 . S
C667 C666 1.349 . S
C667 C683 1.349 . S
C668 C666 1.327 . S
C668 C687 1.429 . S
C668 H692 0.950 . S
C669 C686 1.574 . S
C669 C688 1.368 . S
C669 H693 0.949 . S
H670 C674 0.949 . S
C671 C672 1.349 . S
C671 C673 1.327 . S
C671 H694 0.950 . S
C672 C671 1.349 . S
C672 C684 1.349 . S
C673 C671 1.327 . S
C673 C689 1.429 . S
C673 H695 0.950 . S
C674 H670 0.949 . S
C674 C682 1.574 . S
C674 C690 1.368 1_556 S
H675 C683 0.950 . S
H676 C681 0.950 . S
H677 C682 0.949 . S
H678 C684 0.950 . S
H679 C685 0.950 . S
H680 C686 0.949 1_554 S
C681 H676 0.950 . S
C681 C683 1.327 . S
C681 C687 1.429 . S
C682 C674 1.574 . S
C682 H677 0.949 . S
C682 C688 1.368 . S
C683 C667 1.349 . S
C683 H675 0.950 . S
C683 C681 1.327 . S
C684 C672 1.349 . S
C684 H678 0.950 . S
C684 C685 1.327 . S
C685 H679 0.950 . S
C685 C684 1.327 . S
C685 C689 1.429 . S
C686 C669 1.574 . S
C686 H680 0.949 1_556 S
C686 C690 1.368 1_556 S
C687 C668 1.429 . S
C687 C681 1.429 . S
C687 C688 1.523 . S
C688 C669 1.368 . S
C688 C682 1.368 . S
C688 C687 1.523 . S
C689 C673 1.429 . S
C689 C685 1.429 . S
C689 C690 1.523 . S
C690 C674 1.368 1_554 S
C690 C686 1.368 1_554 S
C690 C689 1.523 . S
H691 C666 0.950 . S
H692 C668 0.950 . S
H693 C669 0.949 . S
H694 C671 0.950 . S
H695 C673 0.950 . S
C696 C697 1.349 . S
C696 C698 1.327 . S
C696 H721 0.950 . S
C697 C696 1.349 . S
C697 C713 1.349 . S
C698 C696 1.327 . S
C698 C717 1.429 . S
C698 H722 0.950 . S
C699 C716 1.574 . S
C699 C718 1.368 . S
C699 H723 0.949 . S
H700 C704 0.949 . S
C701 C702 1.349 . S
C701 C703 1.327 . S
C701 H724 0.950 . S
C702 C701 1.349 . S
C702 C714 1.349 . S
C703 C701 1.327 . S
C703 C719 1.429 . S
C703 H725 0.950 . S
C704 H700 0.949 . S
C704 C712 1.574 . S
C704 C720 1.377 . S
H705 C713 0.950 . S
H706 C711 0.950 . S
H707 C712 0.949 . S
H708 C714 0.950 . S
H709 C715 0.950 . S
H710 C716 0.943 1_655 S
C711 H706 0.950 . S
C711 C713 1.327 . S
C711 C717 1.429 . S
C712 C704 1.574 . S
C712 H707 0.949 . S
C712 C718 1.368 . S
C713 C697 1.349 . S
C713 H705 0.950 . S
C713 C711 1.327 . S
C714 C702 1.349 . S
C714 H708 0.950 . S
C714 C715 1.327 . S
C715 H709 0.950 . S
C715 C714 1.327 . S
C715 C719 1.429 . S
C716 C699 1.574 . S
C716 H710 0.943 1_455 S
C716 C720 1.367 . S
C717 C698 1.429 . S
C717 C711 1.429 . S
C717 C718 1.523 . S
C718 C699 1.368 . S
C718 C712 1.368 . S
C718 C717 1.523 . S
C719 C703 1.429 . S
C719 C715 1.429 . S
C719 C720 1.522 1_655 S
C720 C704 1.377 . S
C720 C716 1.367 . S
C720 C719 1.522 1_455 S
H721 C696 0.950 . S
H722 C698 0.950 . S
H723 C699 0.949 . S
H724 C701 0.950 . S
H725 C703 0.950 . S
C187 C6 0.539 . S
C192 C180 0.716 . S
C217 C59 2.054 . S
C222 C158 1.783 . S
C247 C86 0.970 . S
C252 C172 0.955 . S
C277 C15 0.261 . S
C282 C183 0.266 . S
C312 C161 1.744 . S
C307 C50 1.775 . S
C342 C169 1.203 . S
C337 C95 1.404 . S
C367 C46 1.349 . S
C372 C136 1.152 . S
C397 C99 3.298 . S
C402 C147 2.957 . S
C427 C10 2.121 . S
C432 C125 1.831 . S
C462 C139 0.999 . S
C457 C55 1.011 . S
C492 C150 2.773 . S
C487 C90 2.813 . S
C517 C19 1.706 . S
C522 C128 1.676 . S
C552 C149 1.640 . S
C547 C18 1.640 . S
C577 C49 1.410 . S
C582 C127 1.403 . S
C607 C98 1.497 . S
C612 C138 1.479 . S
C642 C171 1.451 . S
C637 C58 1.460 . S
C672 C182 1.221 . S
C667 C89 1.248 . S
C697 C9 1.419 . S
C702 C160 1.400 . S
