# Generated by pormake.
# Topology zzz, (3,6)-cn, num edge types: 1
# Building blocks:
#     Node 0, Type 0, BuildingBlock: WUSLED_clean_sbu_0, # of connection points: 3
#     Node 1, Type 0, BuildingBlock: WUSLED_clean_sbu_0, # of connection points: 3
#     Node 2, Type 0, BuildingBlock: WUSLED_clean_sbu_0, # of connection points: 3
#     Node 3, Type 0, BuildingBlock: WUSLED_clean_sbu_0, # of connection points: 3
#     Node 4, Type 0, BuildingBlock: WUSLED_clean_sbu_0, # of connection points: 3
#     Node 5, Type 0, BuildingBlock: WUSLED_clean_sbu_0, # of connection points: 3
#     Node 6, Type 0, BuildingBlock: WUSLED_clean_sbu_0, # of connection points: 3
#     Node 7, Type 0, BuildingBlock: WUSLED_clean_sbu_0, # of connection points: 3
#     Node 8, Type 1, BuildingBlock: BETDIP_clean_sbu_0, # of connection points: 6
#     Node 9, Type 1, BuildingBlock: BETDIP_clean_sbu_0, # of connection points: 6
#     Node 10, Type 1, BuildingBlock: BETDIP_clean_sbu_0, # of connection points: 6
#     Node 11, Type 1, BuildingBlock: BETDIP_clean_sbu_0, # of connection points: 6
#     Edge 12, Type (0, 1), BuildingBlock: KIFKEQ_clean_linker_1, # of connection points: 2
#     Edge 13, Type (0, 1), BuildingBlock: KIFKEQ_clean_linker_1, # of connection points: 2
#     Edge 14, Type (0, 1), BuildingBlock: KIFKEQ_clean_linker_1, # of connection points: 2
#     Edge 15, Type (0, 1), BuildingBlock: KIFKEQ_clean_linker_1, # of connection points: 2
#     Edge 16, Type (0, 1), BuildingBlock: KIFKEQ_clean_linker_1, # of connection points: 2
#     Edge 17, Type (0, 1), BuildingBlock: KIFKEQ_clean_linker_1, # of connection points: 2
#     Edge 18, Type (0, 1), BuildingBlock: KIFKEQ_clean_linker_1, # of connection points: 2
#     Edge 19, Type (0, 1), BuildingBlock: KIFKEQ_clean_linker_1, # of connection points: 2
#     Edge 20, Type (0, 1), BuildingBlock: KIFKEQ_clean_linker_1, # of connection points: 2
#     Edge 21, Type (0, 1), BuildingBlock: KIFKEQ_clean_linker_1, # of connection points: 2
#     Edge 22, Type (0, 1), BuildingBlock: KIFKEQ_clean_linker_1, # of connection points: 2
#     Edge 23, Type (0, 1), BuildingBlock: KIFKEQ_clean_linker_1, # of connection points: 2
#     Edge 24, Type (0, 1), BuildingBlock: KIFKEQ_clean_linker_1, # of connection points: 2
#     Edge 25, Type (0, 1), BuildingBlock: KIFKEQ_clean_linker_1, # of connection points: 2
#     Edge 26, Type (0, 1), BuildingBlock: KIFKEQ_clean_linker_1, # of connection points: 2
#     Edge 27, Type (0, 1), BuildingBlock: KIFKEQ_clean_linker_1, # of connection points: 2
#     Edge 28, Type (0, 1), BuildingBlock: KIFKEQ_clean_linker_1, # of connection points: 2
#     Edge 29, Type (0, 1), BuildingBlock: KIFKEQ_clean_linker_1, # of connection points: 2
#     Edge 30, Type (0, 1), BuildingBlock: KIFKEQ_clean_linker_1, # of connection points: 2
#     Edge 31, Type (0, 1), BuildingBlock: KIFKEQ_clean_linker_1, # of connection points: 2
#     Edge 32, Type (0, 1), BuildingBlock: KIFKEQ_clean_linker_1, # of connection points: 2
#     Edge 33, Type (0, 1), BuildingBlock: KIFKEQ_clean_linker_1, # of connection points: 2
#     Edge 34, Type (0, 1), BuildingBlock: KIFKEQ_clean_linker_1, # of connection points: 2
#     Edge 35, Type (0, 1), BuildingBlock: KIFKEQ_clean_linker_1, # of connection points: 2
# Relax obj value: 0.408
# Max RMSD: 0.258
# Mean RMSD: 0.236
data_MOF--net-zzz--node1-WUSLED_clean_sbu_0--node2-BETDIP_clean_sbu_0--edge1-KIFKEQ_clean_linker_1
_symmetry_space_group_name_H-M    P1
_symmetry_Int_Tables_number       1
_symmetry_cell_setting            triclinic
loop_
_symmetry_equiv_pos_as_xyz
'x, y, z'
_cell_length_a     64.681428
_cell_length_b     64.699489
_cell_length_c     19.963668
_cell_angle_alpha  89.869519
_cell_angle_beta   90.0714
_cell_angle_gamma 89.944885
loop_
_atom_site_label
_atom_site_type_symbol
_atom_site_fract_x
_atom_site_fract_y
_atom_site_fract_z
_atom_type_partial_charge
C0 C 0.78386 0.50582 0.43772 0.0
C1 C 0.79838 0.51924 0.40888 0.0
C2 C 0.82501 0.50784 0.48852 0.0
C3 C 0.81876 0.52007 0.4333 0.0
C4 C 0.81006 0.49484 0.51821 0.0
C5 C 0.78988 0.49374 0.49276 0.0
U6 U 0.7416 0.51501 0.30328 0.0
O7 O 0.71755 0.49334 0.26956 0.0
O8 O 0.70857 0.52289 0.3144 0.0
C9 C 0.70233 0.50609 0.28346 0.0
C10 C 0.76249 0.50397 0.41127 0.0
C11 C 0.68678 0.50893 0.22973 0.0
C12 C 0.65174 0.5034 0.18872 0.0
C13 C 0.66656 0.50178 0.23972 0.0
C14 C 0.67707 0.51964 0.11677 0.0
C15 C 0.65678 0.51222 0.12625 0.0
C16 C 0.69193 0.51798 0.16795 0.0
C17 C 0.78448 0.54117 0.20823 0.0
C18 C 0.82068 0.53365 0.22896 0.0
C19 C 0.81078 0.56633 0.17862 0.0
C20 C 0.78997 0.56053 0.18215 0.0
C21 C 0.82633 0.55287 0.20178 0.0
C22 C 0.79999 0.52782 0.2318 0.0
C23 C 0.76262 0.53512 0.21222 0.0
O24 O 0.7517 0.52115 0.40692 0.0
O25 O 0.76016 0.492 0.3587 0.0
O26 O 0.75909 0.51512 0.20922 0.0
O27 O 0.75185 0.54449 0.25896 0.0
H28 H 0.79396 0.52907 0.36742 0.0
H29 H 0.82961 0.53013 0.40808 0.0
H30 H 0.81379 0.48558 0.56177 0.0
H31 H 0.77888 0.48342 0.51641 0.0
H32 H 0.63625 0.49782 0.19848 0.0
H33 H 0.66224 0.49476 0.287 0.0
H34 H 0.68163 0.52633 0.06927 0.0
H35 H 0.70749 0.52351 0.15904 0.0
H36 H 0.8323 0.52277 0.24599 0.0
H37 H 0.81473 0.58122 0.15736 0.0
H38 H 0.77819 0.57108 0.16406 0.0
H39 H 0.79615 0.5128 0.25242 0.0
C40 C 0.01812 0.78202 0.39861 0.0
C41 C 0.0352 0.79539 0.40033 0.0
C42 C 0.0146 0.82244 0.45346 0.0
C43 C 0.03348 0.8153 0.42718 0.0
C44 C 0.99742 0.80904 0.45166 0.0
C45 C 0.99915 0.78907 0.4245 0.0
U46 U 1.00505 0.73627 0.27986 0.0
O47 O 1.00515 0.70239 0.29505 0.0
O48 O 0.02796 0.71685 0.22866 0.0
C49 C 0.02 0.69947 0.25095 0.0
C50 C 0.02095 0.76072 0.37193 0.0
C51 C 0.01741 0.68288 0.2 0.0
C52 C 0.99818 0.6545 0.14866 0.0
C53 C 0.99944 0.67069 0.19545 0.0
C54 C 0.03267 0.66251 0.11002 0.0
C55 C 0.01488 0.65007 0.10568 0.0
C56 C 0.03393 0.67857 0.1566 0.0
C57 C 0.96523 0.77255 0.20977 0.0
C58 C 0.94249 0.79772 0.15788 0.0
C59 C 0.96828 0.8088 0.23831 0.0
C60 C 0.97438 0.78833 0.24747 0.0
C61 C 0.95282 0.81386 0.19132 0.0
C62 C 0.94877 0.7772 0.16673 0.0
C63 C 0.97461 0.75194 0.20954 0.0
O64 O 1.00647 0.74698 0.38468 0.0
O65 O 0.02815 0.75942 0.31058 0.0
O66 O 0.9939 0.75177 0.18901 0.0
O67 O 0.97162 0.74079 0.2638 0.0
H68 H 0.05005 0.79033 0.38136 0.0
H69 H 0.04713 0.82497 0.42848 0.0
H70 H 0.98258 0.81406 0.47068 0.0
H71 H 0.98565 0.77919 0.42387 0.0
H72 H 0.98429 0.64519 0.14719 0.0
H73 H 0.98645 0.67348 0.22839 0.0
H74 H 0.0457 0.65993 0.07708 0.0
H75 H 0.04802 0.68759 0.15898 0.0
H76 H 0.93027 0.80103 0.1223 0.0
H77 H 0.97683 0.8207 0.26443 0.0
H78 H 0.98718 0.78495 0.28077 0.0
H79 H 0.94149 0.76513 0.13753 0.0
C80 C 0.74359 0.99591 0.40822 0.0
C81 C 0.73649 0.01563 0.42699 0.0
C82 C 0.70345 1.00105 0.46435 0.0
C83 C 0.71663 0.01817 0.45464 0.0
C84 C 0.71079 0.98137 0.4458 0.0
C85 C 0.73051 0.97888 0.41816 0.0
U86 U 0.78989 1.00492 0.28578 0.0
O87 O 0.82372 1.00296 0.302 0.0
O88 O 0.808 0.98014 0.23906 0.0
C89 C 0.82581 0.98771 0.25898 0.0
C90 C 0.76467 0.99215 0.38094 0.0
C91 C 0.84194 0.99013 0.20634 0.0
C92 C 0.87814 0.99514 0.17565 0.0
C93 C 0.86257 0.99402 0.22451 0.0
C94 C 0.85276 0.98854 0.08929 0.0
C95 C 0.87347 0.99217 0.10743 0.0
C96 C 0.83721 0.9876 0.13796 0.0
C97 C 0.75873 0.04789 0.20214 0.0
C98 C 0.73585 0.06799 0.13136 0.0
C99 C 0.7252 0.05858 0.24377 0.0
C100 C 0.74409 0.04855 0.25378 0.0
C101 C 0.72061 0.06787 0.18164 0.0
C102 C 0.75475 0.05808 0.14163 0.0
C103 C 0.77739 0.03522 0.20823 0.0
O104 O 0.76549 0.98382 0.32104 0.0
O105 O 0.77892 1.00637 0.39044 0.0
O106 O 0.78854 0.03813 0.26249 0.0
O107 O 0.7748 0.01562 0.1934 0.0
H108 H 0.74625 0.02907 0.42053 0.0
H109 H 0.71152 0.03358 0.46769 0.0
H110 H 0.70141 0.96773 0.45357 0.0
H111 H 0.73566 0.96347 0.40503 0.0
H112 H 0.89393 0.99784 0.19149 0.0
H113 H 0.86672 0.99591 0.27673 0.0
H114 H 0.84853 0.9865 0.03721 0.0
H115 H 0.82149 0.98468 0.12185 0.0
H116 H 0.73276 0.07466 0.08255 0.0
H117 H 0.7139 0.05841 0.28378 0.0
H118 H 0.74698 0.04069 0.3008 0.0
H119 H 0.76591 0.05761 0.10121 0.0
C120 C 0.52637 0.7376 0.41477 0.0
C121 C 0.50661 0.72949 0.42803 0.0
C122 C 0.52191 0.69734 0.47057 0.0
C123 C 0.50441 0.70956 0.45564 0.0
C124 C 0.54159 0.70566 0.45733 0.0
C125 C 0.54376 0.72546 0.42986 0.0
U126 U 0.51763 0.78381 0.29107 0.0
O127 O 0.51831 0.81762 0.30812 0.0
O128 O 0.54255 0.80274 0.24868 0.0
C129 C 0.53408 0.82027 0.26739 0.0
C130 C 0.52973 0.75879 0.38792 0.0
C131 C 0.53184 0.83637 0.21437 0.0
C132 C 0.52448 0.87209 0.18223 0.0
C133 C 0.52566 0.85653 0.23129 0.0
C134 C 0.53564 0.84765 0.09822 0.0
C135 C 0.52968 0.86789 0.11515 0.0
C136 C 0.53666 0.8321 0.14702 0.0
C137 C 0.4765 0.75235 0.19768 0.0
C138 C 0.45899 0.72963 0.11995 0.0
C139 C 0.46224 0.71983 0.23679 0.0
C140 C 0.47268 0.73831 0.24981 0.0
C141 C 0.45569 0.71506 0.17129 0.0
C142 C 0.46925 0.74811 0.13316 0.0
C143 C 0.48898 0.77094 0.20811 0.0
O144 O 0.53892 0.75996 0.32938 0.0
O145 O 0.51487 0.77253 0.3952 0.0
O146 O 0.48489 0.78172 0.26224 0.0
O147 O 0.50885 0.76866 0.19689 0.0
H148 H 0.4929 0.73852 0.4173 0.0
H149 H 0.489 0.70366 0.46454 0.0
H150 H 0.55546 0.697 0.46916 0.0
H151 H 0.55917 0.7314 0.42092 0.0
H152 H 0.51996 0.88753 0.19716 0.0
H153 H 0.52197 0.86034 0.28273 0.0
H154 H 0.53945 0.84377 0.04695 0.0
H155 H 0.54141 0.81677 0.13179 0.0
H156 H 0.45461 0.72638 0.06869 0.0
H157 H 0.45977 0.70906 0.27761 0.0
H158 H 0.4782 0.7414 0.30003 0.0
H159 H 0.47217 0.75879 0.09236 0.0
C160 C 0.24275 0.49669 0.98573 0.0
C161 C 0.22551 0.49995 0.02733 0.0
C162 C 0.20248 0.50126 0.92992 0.0
C163 C 0.20562 0.50215 0.99977 0.0
C164 C 0.21989 0.49868 0.88845 0.0
C165 C 0.23973 0.49634 0.91605 0.0
U166 U 0.28773 0.50586 0.11056 0.0
O167 O 0.30645 0.48225 0.16162 0.0
O168 O 0.3217 0.50517 0.09764 0.0
C169 C 0.32411 0.49034 0.14224 0.0
C170 C 0.26367 0.49226 0.01357 0.0
C171 C 0.34001 0.49364 0.19539 0.0
C172 C 0.37535 0.50276 0.22715 0.0
C173 C 0.35986 0.50071 0.17823 0.0
C174 C 0.3515 0.4907 0.31169 0.0
C175 C 0.37145 0.49767 0.29466 0.0
C176 C 0.33602 0.48874 0.26291 0.0
C177 C 0.2527 0.54694 0.18109 0.0
C178 C 0.22415 0.5615 0.24341 0.0
C179 C 0.22042 0.55493 0.12451 0.0
C180 C 0.24075 0.54766 0.12239 0.0
C181 C 0.21164 0.56127 0.18559 0.0
C182 C 0.24451 0.55443 0.24105 0.0
C183 C 0.27257 0.53606 0.18238 0.0
O184 O 0.27797 0.50642 1.00425 0.0
O185 O 0.26433 0.484 0.07376 0.0
O186 O 0.27122 0.51654 0.20007 0.0
O187 O 0.28471 0.53915 0.13054 0.0
H188 H 0.22732 0.50046 0.08125 0.0
H189 H 0.19267 0.50445 0.03326 0.0
H190 H 0.2181 0.49776 0.8346 0.0
H191 H 0.25271 0.49378 0.88283 0.0
H192 H 0.39037 0.50844 0.21194 0.0
H193 H 0.36349 0.50449 0.12668 0.0
H194 H 0.34789 0.48626 0.36267 0.0
H195 H 0.321 0.48308 0.27823 0.0
H196 H 0.21791 0.56586 0.29164 0.0
H197 H 0.21136 0.55477 0.07887 0.0
H198 H 0.24682 0.54178 0.07558 0.0
H199 H 0.25348 0.55378 0.28688 0.0
C200 C 0.02359 0.23117 0.01692 0.0
C201 C 0.02847 0.21325 0.05386 0.0
C202 C 0.02004 0.19123 0.95808 0.0
C203 C 0.02671 0.19358 0.02486 0.0
C204 C 0.01447 0.20912 0.922 0.0
C205 C 0.01633 0.2288 0.95091 0.0
U206 U 0.01626 0.2794 0.13325 0.0
O207 O 0.04111 0.29765 0.17976 0.0
O208 O 0.01964 0.31257 0.10987 0.0
C209 C 0.03451 0.31516 0.15408 0.0
C210 C 0.02837 0.25226 0.04297 0.0
C211 C 0.03147 0.33202 0.20301 0.0
C212 C 0.04379 0.36361 0.25577 0.0
C213 C 0.04597 0.34806 0.20747 0.0
C214 C 0.01241 0.34739 0.29562 0.0
C215 C 0.02702 0.36347 0.30077 0.0
C216 C 0.01464 0.33182 0.24738 0.0
C217 C 0.97141 0.2519 0.22158 0.0
C218 C 0.95353 0.22979 0.30051 0.0
C219 C 0.95528 0.22019 0.18336 0.0
C220 C 0.96647 0.2382 0.16962 0.0
C221 C 0.94921 0.21547 0.24941 0.0
C222 C 0.96445 0.24784 0.28658 0.0
C223 C 0.98507 0.26964 0.21083 0.0
O224 O 0.01504 0.26712 0.03 0.0
O225 O 0.03634 0.25354 0.10346 0.0
O226 O 1.00447 0.26648 0.22751 0.0
O227 O 0.98287 0.27974 0.15401 0.0
H228 H 0.03422 0.21438 0.10469 0.0
H229 H 0.03083 0.18019 0.05466 0.0
H230 H 1.00946 0.20801 0.87036 0.0
H231 H 0.01272 0.24226 0.92069 0.0
H232 H 0.0552 0.37584 0.25754 0.0
H233 H 0.0591 0.34847 0.17385 0.0
H234 H 0.99946 0.34657 0.32984 0.0
H235 H 1.00336 0.31946 0.24523 0.0
H236 H 0.94954 0.22659 0.35215 0.0
H237 H 0.952 0.20967 0.14263 0.0
H238 H 0.97177 0.24108 0.119 0.0
H239 H 0.96823 0.25825 0.32727 0.0
C240 C 0.28863 0.01674 0.98781 0.0
C241 C 0.3058 0.01396 0.03024 0.0
C242 C 0.32897 0.01168 0.9336 0.0
C243 C 0.32572 1.01152 1.00345 0.0
C244 C 0.31163 0.01372 0.8914 0.0
C245 C 0.29175 0.0163 0.91821 0.0
U246 U 0.24275 1.01067 0.11217 0.0
O247 O 0.20895 0.01211 0.09552 0.0
O248 O 0.22434 0.03577 0.15604 0.0
C249 C 0.20664 0.02771 0.13705 0.0
C250 C 0.26775 0.02179 0.01436 0.0
C251 C 0.19065 0.02529 0.19011 0.0
C252 C 0.15456 0.0202 0.22177 0.0
C253 C 0.16991 0.0219 0.1724 0.0
C254 C 0.18039 0.02531 0.30777 0.0
C255 C 0.15954 0.02198 0.2903 0.0
C256 C 0.19572 0.02686 0.25848 0.0
C257 C 0.2742 0.96883 0.20057 0.0
C258 C 0.29742 0.95006 0.27389 0.0
C259 C 0.3072 0.95664 0.15858 0.0
C260 C 0.28838 0.96679 0.14791 0.0
C261 C 0.31217 0.94864 0.22229 0.0
C262 C 0.27861 0.96003 0.26299 0.0
C263 C 0.25552 0.9814 0.19321 0.0
O264 O 0.25324 1.00773 1.00712 0.0
O265 O 0.26708 0.03105 0.07288 0.0
O266 O 0.2581 1.00118 0.20547 0.0
O267 O 0.24423 0.97778 0.13974 0.0
H268 H 0.3039 0.0141 0.08414 0.0
H269 H 0.33863 1.00965 0.03753 0.0
H270 H 0.31349 0.01409 0.83751 0.0
H271 H 0.27882 0.01851 0.88438 0.0
H272 H 0.1388 0.01731 0.20607 0.0
H273 H 0.16555 0.02061 0.12016 0.0
H274 H 0.18491 0.02712 0.35966 0.0
H275 H 0.21154 0.02948 0.27414 0.0
H276 H 0.30081 0.94451 0.32392 0.0
H277 H 0.31808 0.95563 0.11754 0.0
H278 H 0.28518 0.97358 0.09931 0.0
H279 H 0.26783 0.9616 0.30418 0.0
C280 C 0.50769 0.28085 0.9823 0.0
C281 C 0.50959 0.29788 0.02556 0.0
C282 C 0.51269 0.32145 0.93004 0.0
C283 C 0.51202 0.31793 0.99972 0.0
C284 C 0.5115 0.30427 0.88706 0.0
C285 C 0.50897 0.28425 0.91292 0.0
U286 U 0.51368 0.23471 0.10564 0.0
O287 O 0.48849 0.21598 0.14741 0.0
O288 O 0.51282 0.20093 0.08878 0.0
C289 C 0.49693 0.19839 0.12907 0.0
C290 C 0.50275 0.2598 1.00766 0.0
C291 C 0.49901 0.18231 0.18219 0.0
C292 C 0.507 0.14678 0.21487 0.0
C293 C 0.50573 0.16228 0.1657 0.0
C294 C 0.49481 0.17097 0.29812 0.0
C295 C 0.50137 0.15088 0.28164 0.0
C296 C 0.49368 0.18648 0.2492 0.0
C297 C 0.55424 0.26681 0.19576 0.0
C298 C 0.57327 0.29002 0.26804 0.0
C299 C 0.56389 0.30086 0.15565 0.0
C300 C 0.5546 0.28168 0.14458 0.0
C301 C 0.57282 0.30544 0.21822 0.0
C302 C 0.56403 0.27087 0.25682 0.0
C303 C 0.54222 0.24781 0.18849 0.0
O304 O 0.51709 0.24552 1.00097 0.0
O305 O 0.4931 0.25878 0.06549 0.0
O306 O 0.52233 0.24996 0.19968 0.0
O307 O 0.54637 0.23662 0.13531 0.0
H308 H 0.50877 0.29578 0.07934 0.0
H309 H 0.51322 0.33072 0.03441 0.0
H310 H 0.51178 0.30634 0.83323 0.0
H311 H 0.50744 0.27142 0.87847 0.0
H312 H 0.51197 0.13145 0.20027 0.0
H313 H 0.50981 0.15855 0.11452 0.0
H314 H 0.49064 0.17479 0.34916 0.0
H315 H 0.4885 0.20171 0.26406 0.0
H316 H 0.57967 0.29311 0.31714 0.0
H317 H 0.56347 0.31233 0.11606 0.0
H318 H 0.5471 0.27871 0.09702 0.0
H319 H 0.56377 0.25953 0.29686 0.0
Tb320 Tb 0.027 0.99991 0.75763 0.0
Tb321 Tb 1.00468 0.01457 0.63635 0.0
C322 C 0.03536 0.98269 0.86733 0.0
C323 C 0.02395 0.96773 0.90857 0.0
C324 C 0.02375 0.96996 0.97839 0.0
C325 C 1.01123 0.95724 0.01789 0.0
C326 C 0.99866 0.9421 0.98804 0.0
C327 C 0.99902 0.93988 0.91799 0.0
C328 C 1.01146 0.95262 0.87868 0.0
C329 C 0.05167 0.01181 0.65899 0.0
C330 C 0.01195 0.96774 0.64926 0.0
C331 C 0.99419 0.03037 0.52646 0.0
C332 C 0.98168 0.04751 0.50104 0.0
C333 C 0.98268 0.05233 0.43286 0.0
C334 C 0.97089 0.06849 0.40679 0.0
C335 C 0.95777 0.08008 0.44854 0.0
C336 C 0.95665 0.07501 0.51707 0.0
C337 C 0.96855 0.05881 0.54319 0.0
C338 C 0.98018 1.00257 0.73594 0.0
C339 C 0.01896 0.0478 0.74627 0.0
O340 O 0.02642 1.0007 0.86235 0.0
O341 O 0.04248 0.9762 0.80967 0.0
O342 O 0.0348 1.00231 0.65352 0.0
O343 O 0.0563 0.01299 0.72205 0.0
O344 O 0.01354 0.97142 0.71435 0.0
O345 O 0.01244 0.98329 0.6065 0.0
O346 O 1.0112 0.03532 0.55832 0.0
O347 O 0.98398 0.01551 0.55604 0.0
O348 O 0.997 0.01212 0.74036 0.0
O349 O 0.97544 1.0013 0.6731 0.0
O350 O 1.01095 0.04444 0.68594 0.0
O351 O 0.02545 0.0324 0.78457 0.0
H352 H 0.03299 0.98182 1.00225 0.0
H353 H 1.01119 0.95945 0.07165 0.0
H354 H 0.98986 0.92811 0.89343 0.0
H355 H 1.01112 0.95076 0.82493 0.0
H356 H 0.99277 0.04371 0.39978 0.0
H357 H 0.97255 0.07226 0.35419 0.0
H358 H 0.94666 0.08359 0.55047 0.0
H359 H 0.96758 0.05514 0.59608 0.0
Tb360 Tb 0.52201 0.0215 0.75957 0.0
Tb361 Tb 0.51072 0.99794 0.63833 0.0
C362 C 0.5358 0.03434 0.86956 0.0
C363 C 0.5533 0.04608 0.8967 0.0
C364 C 0.57361 0.04263 0.87485 0.0
C365 C 0.59007 0.05272 0.90608 0.0
C366 C 0.58648 0.06649 0.95938 0.0
C367 C 0.56601 0.0706 0.97877 0.0
C368 C 0.54958 0.06042 0.94778 0.0
C369 C 0.5109 0.04464 0.65575 0.0
C370 C 0.55743 1.00979 0.65469 0.0
C371 C 0.49724 0.98617 0.52666 0.0
C372 C 0.47991 0.97527 0.49554 0.0
C373 C 0.475 0.97993 0.42897 0.0
C374 C 0.4589 0.96968 0.39682 0.0
C375 C 0.44742 0.95445 0.43064 0.0
C376 C 0.45245 0.94973 0.49762 0.0
C377 C 0.4686 0.96011 0.52993 0.0
C378 C 0.52189 0.97472 0.74206 0.0
C379 C 0.47537 1.00927 0.7439 0.0
O380 O 0.53971 0.0159 0.8456 0.0
O381 O 0.52278 0.04474 0.83247 0.0
O382 O 0.52163 0.02846 0.65436 0.0
O383 O 0.50732 0.04925 0.71762 0.0
O384 O 0.55309 0.01488 0.71755 0.0
O385 O 0.54242 1.00564 0.61183 0.0
O386 O 0.49326 1.00437 0.55208 0.0
O387 O 0.5096 0.97515 0.56439 0.0
O388 O 0.51119 0.99093 0.74348 0.0
O389 O 0.52524 0.97004 0.68004 0.0
O390 O 0.47967 1.00435 0.68085 0.0
O391 O 0.49042 0.01341 0.78672 0.0
H392 H 0.57681 0.0317 0.83515 0.0
H393 H 0.60566 0.04899 0.89043 0.0
H394 H 0.56271 0.08132 0.01896 0.0
H395 H 0.53396 0.06338 0.96487 0.0
H396 H 0.4836 0.99163 0.40183 0.0
H397 H 0.45513 0.9741 0.34588 0.0
H398 H 0.44394 0.93805 0.52497 0.0
H399 H 0.47224 0.95631 0.58149 0.0
Tb400 Tb 0.5039 0.5154 0.76511 0.0
Tb401 Tb 0.52761 0.50452 0.64456 0.0
C402 C 0.49192 0.52881 0.87655 0.0
C403 C 0.48077 0.54627 0.90586 0.0
C404 C 0.48395 0.55074 0.97356 0.0
C405 C 0.47361 0.5672 1.00347 0.0
C406 C 0.45978 0.57947 0.96618 0.0
C407 C 0.45647 0.57478 0.89814 0.0
C408 C 0.46694 0.5583 0.86811 0.0
C409 C 0.48059 0.50468 0.66142 0.0
C410 C 0.51548 0.55108 0.6605 0.0
C411 C 0.54075 0.4911 0.53448 0.0
C412 C 0.55195 0.47339 0.50653 0.0
C413 C 0.54833 0.45317 0.529 0.0
C414 C 0.55782 0.4365 0.49698 0.0
C415 C 0.57113 0.43982 0.44222 0.0
C416 C 0.57542 0.46019 0.4221 0.0
C417 C 0.56586 0.47682 0.45394 0.0
C418 C 0.55062 0.515 0.7497 0.0
C419 C 0.51557 0.46874 0.74766 0.0
O420 O 0.51015 0.53282 0.85131 0.0
O421 O 0.48108 0.5163 0.83907 0.0
O422 O 0.49687 0.51533 0.65971 0.0
O423 O 0.47607 0.50107 0.72343 0.0
O424 O 0.51023 0.54659 0.72318 0.0
O425 O 0.51993 0.53619 0.61773 0.0
O426 O 0.52204 0.48769 0.55697 0.0
O427 O 0.55139 0.50334 0.57336 0.0
O428 O 0.53442 0.5043 0.74979 0.0
O429 O 0.55525 0.51907 0.6881 0.0
O430 O 0.52065 0.47334 0.68498 0.0
O431 O 0.5115 0.48358 0.79108 0.0
H432 H 0.49462 0.54159 1.00326 0.0
H433 H 0.47695 0.57064 0.05543 0.0
H434 H 0.44587 0.58388 0.86812 0.0
H435 H 0.46431 0.55499 0.81561 0.0
H436 H 0.53772 0.45021 0.56984 0.0
H437 H 0.55397 0.421 0.51324 0.0
H438 H 0.58581 0.46327 0.38077 0.0
H439 H 0.56894 0.49238 0.43634 0.0
Tb440 Tb 1.00744 0.49842 0.76508 0.0
Tb441 Tb 0.02121 0.5165 0.63571 0.0
C442 C 1.00139 0.49396 0.88858 0.0
C443 C 0.98703 0.50382 0.93522 0.0
C444 C 0.97038 0.51541 0.91049 0.0
C445 C 0.95767 0.52629 0.95425 0.0
C446 C 0.96127 0.52559 0.02363 0.0
C447 C 0.97786 0.51379 0.04844 0.0
C448 C 0.99078 0.50308 1.00433 0.0
C449 C 1.01156 0.47107 0.66804 0.0
C450 C 0.97305 0.50963 0.66451 0.0
C451 C 0.02648 0.52482 0.51385 0.0
C452 C 0.04253 0.53231 0.46813 0.0
C453 C 0.04314 0.52442 0.4029 0.0
C454 C 0.05844 0.53085 0.35837 0.0
C455 C 0.07332 0.54538 0.37837 0.0
C456 C 0.07244 0.5536 0.44347 0.0
C457 C 0.05719 0.54702 0.48824 0.0
C458 C 0.01819 0.543 0.73526 0.0
C459 C 0.05629 0.50526 0.73618 0.0
O460 O 0.01515 0.50652 0.86332 0.0
O461 O 0.99315 0.48197 0.84303 0.0
O462 O 0.02299 0.48645 0.67878 0.0
O463 O 0.99861 0.46927 0.7171 0.0
O464 O 0.97732 0.50872 0.72916 0.0
O465 O 0.98813 0.50993 0.61976 0.0
O466 O 0.02949 0.50645 0.53964 0.0
O467 O 0.01925 0.53802 0.55752 0.0
O468 O 1.00582 0.52845 0.72254 0.0
O469 O 0.0322 0.54388 0.68887 0.0
O470 O 0.05239 0.51041 0.67308 0.0
O471 O 0.04118 0.50057 0.77848 0.0
H472 H 0.96729 0.51618 0.85725 0.0
H473 H 0.94473 0.53491 0.93385 0.0
H474 H 0.9809 0.51296 0.10176 0.0
H475 H 1.00375 0.49437 0.02404 0.0
H476 H 0.03188 0.5131 0.3866 0.0
H477 H 0.05873 0.52436 0.30841 0.0
H478 H 0.08392 0.56459 0.46041 0.0
H479 H 0.05701 0.55322 0.53861 0.0
H480 H 0.11924 0.03602 0.28571 0.0
H481 H 0.16248 1.00453 0.41593 0.0
H482 H 0.09292 0.03404 0.37298 0.0
H483 H 0.13632 1.00304 0.50333 0.0
H484 H 0.09199 0.02378 0.66879 0.0
H485 H 0.11757 0.02648 0.57927 0.0
H486 H 0.07125 1.00863 0.43464 0.0
H487 H 0.04562 1.00597 0.5245 0.0
C488 C 0.12315 0.02851 0.33256 0.0
C489 C 0.14317 0.0205 0.34336 0.0
C490 C 0.10802 0.02745 0.38279 0.0
C491 C 0.11249 0.0185 0.44546 0.0
C492 C 0.13241 1.01039 0.45616 0.0
C493 C 0.14748 1.01129 0.40586 0.0
C494 C 0.08724 0.02051 0.61785 0.0
C495 C 0.06681 0.01458 0.60378 0.0
C496 C 0.10194 0.02194 0.56654 0.0
C497 C 0.09655 0.01763 0.49967 0.0
C498 C 0.07593 0.01218 0.48543 0.0
C499 C 0.06126 1.01059 0.53693 0.0
H500 H 0.47279 0.14257 0.37916 0.0
H501 H 0.53156 0.12164 0.3027 0.0
H502 H 0.47421 0.11626 0.46644 0.0
H503 H 0.53324 0.09548 0.3909 0.0
H504 H 0.52219 0.03913 0.52478 0.0
H505 H 0.51914 0.06386 0.43242 0.0
H506 H 0.49165 0.10821 0.56732 0.0
H507 H 0.49412 0.08325 0.65852 0.0
C508 C 0.48613 0.13244 0.3813 0.0
C509 C 0.50212 0.13434 0.334 0.0
C510 C 0.48697 0.11733 0.43156 0.0
C511 C 0.50391 0.10371 0.43639 0.0
C512 C 0.51979 0.10544 0.38846 0.0
C513 C 0.51887 0.1205 0.33785 0.0
C514 C 0.51535 0.05412 0.53438 0.0
C515 C 0.50838 0.05924 0.59889 0.0
C516 C 0.51375 0.06839 0.48157 0.0
C517 C 0.50518 0.08816 0.49205 0.0
C518 C 0.49804 0.0931 0.55673 0.0
C519 C 0.49957 0.07881 0.60931 0.0
H520 H 0.41314 0.48931 0.28236 0.0
H521 H 0.3677 0.50969 0.4263 0.0
H522 H 0.43986 0.49093 0.36864 0.0
H523 H 0.39433 0.51093 0.51246 0.0
H524 H 0.4417 0.4887 0.66653 0.0
H525 H 0.41595 0.48718 0.57728 0.0
H526 H 0.45937 0.51522 0.44043 0.0
H527 H 0.48525 0.51662 0.53018 0.0
C528 C 0.40881 0.49434 0.33208 0.0
C529 C 0.38809 0.49926 0.34698 0.0
C530 C 0.42419 0.49522 0.38172 0.0
C531 C 0.41929 0.50091 0.44781 0.0
C532 C 0.39865 0.50609 0.46251 0.0
C533 C 0.38331 0.50534 0.41289 0.0
C534 C 0.44579 0.49448 0.61734 0.0
C535 C 0.4655 0.50285 0.60553 0.0
C536 C 0.43097 0.49373 0.5662 0.0
C537 C 0.43546 0.50123 0.50159 0.0
C538 C 0.45538 0.5092 0.48938 0.0
C539 C 0.47021 0.51006 0.54083 0.0
H540 H 0.05759 0.38122 0.37726 0.0
H541 H 0.99165 0.38293 0.34367 0.0
H542 H 0.05407 0.40739 0.46419 0.0
H543 H 0.98812 0.40916 0.43034 0.0
H544 H 0.98622 0.43889 0.63791 0.0
H545 H 0.99011 0.41332 0.54924 0.0
H546 H 0.0464 0.44324 0.48481 0.0
H547 H 0.04276 0.46844 0.57529 0.0
C548 C 0.04235 0.38733 0.38781 0.0
C549 C 0.0249 0.37985 0.35328 0.0
C550 C 0.04032 0.4024 0.43779 0.0
C551 C 0.02079 0.41046 0.45473 0.0
C552 C 1.00338 0.4031 0.41973 0.0
C553 C 1.0054 0.38802 0.36984 0.0
C554 C 0.99944 0.43999 0.60481 0.0
C555 C 0.01411 0.45576 0.61335 0.0
C556 C 1.0016 0.42541 0.55352 0.0
C557 C 0.01852 0.42618 0.50928 0.0
C558 C 0.03326 0.44199 0.51811 0.0
C559 C 0.03108 0.45659 0.56957 0.0
H560 H 0.87874 0.96585 1.00146 0.0
H561 H 0.90582 0.01941 0.09527 0.0
H562 H 0.90517 0.96689 0.91468 0.0
H563 H 0.93205 0.02083 1.00761 0.0
H564 H 0.98664 1.00907 0.86983 0.0
H565 H 0.96194 1.0051 0.96131 0.0
H566 H 0.91527 0.98593 0.8193 0.0
H567 H 0.94032 0.98906 0.7287 0.0
C568 C 0.89026 0.97797 1.00326 0.0
C569 C 0.89004 0.99262 0.05526 0.0
C570 C 0.90544 0.97861 0.9533 0.0
C571 C 0.9208 0.99402 0.95344 0.0
C572 C 0.92073 1.00852 1.00606 0.0
C573 C 0.90562 1.00777 0.05637 0.0
C574 C 0.97118 1.00376 0.85839 0.0
C575 C 0.96546 0.99935 0.79202 0.0
C576 C 0.9569 1.00168 0.9108 0.0
C577 C 0.93644 0.9953 0.89812 0.0
C578 C 0.93089 0.9906 0.83156 0.0
C579 C 0.94523 0.99253 0.77933 0.0
H580 H 0.55817 0.87557 0.01684 0.0
H581 H 0.50019 0.89794 0.09525 0.0
H582 H 0.55721 0.90199 0.92988 0.0
H583 H 0.49894 0.9242 1.00728 0.0
H584 H 0.51092 0.98034 0.87329 0.0
H585 H 0.51355 0.95546 0.96535 0.0
H586 H 0.53991 0.91066 0.82962 0.0
H587 H 0.53788 0.93577 0.73874 0.0
C588 C 0.5451 0.88604 0.01518 0.0
C589 C 0.5292 0.88451 0.06294 0.0
C590 C 0.54451 0.90122 0.96508 0.0
C591 C 0.52792 0.91527 0.96083 0.0
C592 C 0.51213 0.9139 1.00923 0.0
C593 C 0.5128 0.89878 0.05971 0.0
C594 C 0.51742 0.96521 0.86344 0.0
C595 C 0.5242 0.96002 0.79878 0.0
C596 C 0.51878 0.95085 0.9161 0.0
C597 C 0.52691 0.93091 0.90532 0.0
C598 C 0.53386 0.9259 0.84048 0.0
C599 C 0.53259 0.94027 0.78807 0.0
H600 H 0.64992 0.54373 0.03573 0.0
H601 H 0.62778 0.48315 0.09147 0.0
H602 H 0.62399 0.54546 0.94692 0.0
H603 H 0.60198 0.48483 1.00279 0.0
H604 H 0.54533 0.5012 0.87819 0.0
H605 H 0.57047 0.50141 0.96965 0.0
H606 H 0.61491 0.53119 0.84008 0.0
H607 H 0.58954 0.53138 0.74937 0.0
C608 C 0.63965 0.5307 0.02882 0.0
C609 C 0.64099 0.51333 0.07126 0.0
C610 C 0.62473 0.53169 0.97775 0.0
C611 C 0.61072 0.51532 0.96747 0.0
C612 C 0.61214 0.49794 1.00979 0.0
C613 C 0.62702 0.49696 0.06082 0.0
C614 C 0.56043 0.50793 0.86948 0.0
C615 C 0.56546 0.51622 0.80647 0.0
C616 C 0.57494 0.50791 0.92179 0.0
C617 C 0.59489 0.51618 0.91249 0.0
C618 C 0.5997 0.52487 0.84963 0.0
C619 C 0.58517 0.5249 0.79738 0.0
H620 H 0.04598 0.62318 0.07246 0.0
H621 H 0.98204 0.63689 0.02809 0.0
H622 H 0.04596 0.59648 0.98699 0.0
H623 H 0.982 0.60987 0.94246 0.0
H624 H 0.9865 0.54787 0.82553 0.0
H625 H 0.98482 0.57218 0.91976 0.0
H626 H 0.04501 0.59576 0.86564 0.0
H627 H 0.04677 0.57126 0.77345 0.0
C628 C 0.0319 0.62059 0.04432 0.0
C629 C 0.01411 0.63254 0.05671 0.0
C630 C 0.03189 0.60519 0.99523 0.0
C631 C 0.01407 0.60115 0.95698 0.0
C632 C 0.99599 0.61247 0.9711 0.0
C633 C 0.99601 0.62799 0.02029 0.0
C634 C 0.99941 0.55812 0.83452 0.0
C635 C 0.01682 0.55754 0.79252 0.0
C636 C 0.99839 0.57219 0.88802 0.0
C637 C 0.01484 0.58592 0.90068 0.0
C638 C 0.0322 0.58523 0.85831 0.0
C639 C 0.03316 0.57127 0.80502 0.0
H640 H 0.96007 0.17825 0.19511 0.0
H641 H 0.92023 0.20538 0.34508 0.0
H642 H 0.9533 0.14426 0.24081 0.0
H643 H 0.91419 0.17108 0.39263 0.0
H644 H 0.95277 0.11788 0.50721 0.0
H645 H 0.94187 0.14974 0.45289 0.0
H646 H 0.92787 0.11599 0.27215 0.0
H647 H 0.93828 0.08386 0.32708 0.0
C648 C 0.94927 0.17698 0.23631 0.0
C649 C 0.94103 0.19469 0.26712 0.0
C650 C 0.94542 0.1574 0.26266 0.0
C651 C 0.93343 0.15509 0.32076 0.0
C652 C 0.9237 0.17251 0.34823 0.0
C653 C 0.9273 0.19213 0.32123 0.0
C654 C 0.94661 0.11706 0.45682 0.0
C655 C 0.94683 0.0984 0.42098 0.0
C656 C 0.94032 0.13535 0.42568 0.0
C657 C 0.93427 0.13533 0.35806 0.0
C658 C 0.93271 0.11643 0.32409 0.0
C659 C 0.93882 0.0981 0.35542 0.0
H660 H 0.34868 0.96422 0.17553 0.0
H661 H 0.32393 0.91682 0.30575 0.0
H662 H 0.38299 0.95778 0.21969 0.0
H663 H 0.35847 0.91094 0.35178 0.0
H664 H 0.4096 0.9457 0.48464 0.0
H665 H 0.37821 0.93654 0.42457 0.0
H666 H 0.41266 0.93293 0.23987 0.0
H667 H 0.44433 0.9416 0.30028 0.0
C668 C 0.3506 0.95192 0.21188 0.0
C669 C 0.33342 0.9413 0.2379 0.0
C670 C 0.37034 0.94825 0.23733 0.0
C671 C 0.37332 0.93403 0.28972 0.0
C672 C 0.3565 0.92218 0.31195 0.0
C673 C 0.33675 0.92565 0.28585 0.0
C674 C 0.41068 0.94221 0.43173 0.0
C675 C 0.42939 0.94479 0.39701 0.0
C676 C 0.39267 0.93693 0.39727 0.0
C677 C 0.393 0.93425 0.32746 0.0
C678 C 0.41198 0.93517 0.29359 0.0
C679 C 0.43003 0.94027 0.32813 0.0
H680 H 0.55329 0.34123 0.1836 0.0
H681 H 0.6063 0.31806 0.2925 0.0
H682 H 0.55913 0.37535 0.22936 0.0
H683 H 0.61205 0.35248 0.33914 0.0
H684 H 0.57367 0.43675 0.30604 0.0
H685 H 0.58071 0.40589 0.24051 0.0
H686 H 0.59179 0.37149 0.42285 0.0
H687 H 0.58565 0.40261 0.48836 0.0
C688 C 0.56664 0.34355 0.21552 0.0
C689 C 0.57918 0.32684 0.235 0.0
C690 C 0.56999 0.36318 0.24188 0.0
C691 C 0.58594 0.36657 0.28844 0.0
C692 C 0.59944 0.35023 0.30417 0.0
C693 C 0.59612 0.33055 0.27755 0.0
C694 C 0.57829 0.4228 0.33214 0.0
C695 C 0.57882 0.42205 0.40254 0.0
C696 C 0.58214 0.40506 0.29452 0.0
C697 C 0.58652 0.3862 0.3265 0.0
C698 C 0.58856 0.38581 0.39662 0.0
C699 C 0.58476 0.40357 0.43426 0.0
H700 H 0.18034 0.54112 0.12008 0.0
H701 H 0.19146 0.58932 0.26545 0.0
H702 H 0.14395 0.54126 0.14871 0.0
H703 H 0.15537 0.58815 0.29815 0.0
H704 H 0.08865 0.5838 0.34911 0.0
H705 H 0.1194 0.59194 0.28293 0.0
H706 H 0.12798 0.52678 0.24317 0.0
H707 H 0.09714 0.51894 0.30691 0.0
C708 C 0.17502 0.55212 0.15706 0.0
C709 C 0.18901 0.56486 0.19169 0.0
C710 C 0.15412 0.55194 0.17427 0.0
C711 C 0.14681 0.56419 0.22731 0.0
C712 C 0.16039 0.57841 0.25726 0.0
C713 C 0.18123 0.57886 0.23919 0.0
C714 C 0.09704 0.57134 0.32526 0.0
C715 C 0.09062 0.55075 0.33325 0.0
C716 C 0.11463 0.57596 0.28744 0.0
C717 C 0.12626 0.56004 0.2577 0.0
C718 C 0.11925 0.53954 0.26386 0.0
C719 C 0.1016 0.53498 0.30088 0.0
H720 H 0.94647 0.8283 0.06427 0.0
H721 H 0.95394 0.84908 0.26864 0.0
H722 H 0.95135 0.86329 0.02462 0.0
H723 H 0.95948 0.8843 0.22805 0.0
H724 H 1.00921 0.92374 0.10666 0.0
H725 H 0.99083 0.89633 0.16484 0.0
H726 H 0.94109 0.90047 0.02086 0.0
H727 H 0.95936 0.92829 0.96298 0.0
C728 C 0.94835 0.84041 0.10113 0.0
C729 C 0.95019 0.83573 0.16972 0.0
C730 C 0.95121 0.86056 0.07817 0.0
C731 C 0.95612 0.87647 0.12318 0.0
C732 C 0.95604 0.87223 0.19222 0.0
C733 C 0.95295 0.85206 0.21533 0.0
C734 C 0.99407 0.9193 0.08855 0.0
C735 C 0.98593 0.92792 0.02947 0.0
C736 C 0.98348 0.90361 0.12207 0.0
C737 C 0.96459 0.89616 0.09706 0.0
C738 C 0.95575 0.90577 0.04075 0.0
C739 C 0.96628 0.92156 1.00742 0.0
H740 H 0.70845 0.10161 0.1072 0.0
H741 H 0.68447 0.04943 0.21811 0.0
H742 H 0.67402 0.10801 0.06098 0.0
H743 H 0.65037 0.05595 0.173 0.0
H744 H 0.62356 0.08101 0.9126 0.0
H745 H 0.65463 0.08765 0.97809 0.0
H746 H 0.62015 0.07799 0.1607 0.0
H747 H 0.58934 0.07043 0.09529 0.0
C748 C 0.69579 0.09177 0.12276 0.0
C749 C 0.69929 0.07483 0.16563 0.0
C750 C 0.6761 0.09547 0.09641 0.0
C751 C 0.65953 0.08237 0.11282 0.0
C752 C 0.66272 0.06651 0.15992 0.0
C753 C 0.68236 0.06276 0.18594 0.0
C754 C 0.62256 0.08057 0.96674 0.0
C755 C 0.60409 0.07479 0.99863 0.0
C756 C 0.6403 0.08466 1.00435 0.0
C757 C 0.63989 0.08309 0.07459 0.0
C758 C 0.62099 0.07904 0.1066 0.0
C759 C 0.60329 0.07488 0.06903 0.0
H760 H 0.42537 0.70473 0.08067 0.0
H761 H 0.46846 0.67793 0.22219 0.0
H762 H 0.41892 0.67046 0.03397 0.0
H763 H 0.46145 0.64389 0.17712 0.0
H764 H 0.44425 0.58328 0.09335 0.0
H765 H 0.43582 0.61539 0.15138 0.0
H766 H 0.4451 0.64946 0.96769 0.0
H767 H 0.45406 0.61764 0.91015 0.0
C768 C 0.43312 0.69153 0.10281 0.0
C769 C 0.44778 0.69417 0.15426 0.0
C770 C 0.42931 0.67193 0.0763 0.0
C771 C 0.43983 0.6546 0.10152 0.0
C772 C 0.45295 0.65696 0.15707 0.0
C773 C 0.45695 0.67654 0.18302 0.0
C774 C 0.44423 0.5976 0.06515 0.0
C775 C 0.45027 0.59797 0.99746 0.0
C776 C 0.43926 0.61592 0.0983 0.0
C777 C 0.43998 0.63489 0.06415 0.0
C778 C 0.44421 0.63503 0.99513 0.0
C779 C 0.44937 0.61676 0.96213 0.0
H780 H 0.8583 0.54743 0.2901 0.0
H781 H 0.84436 0.5685 0.08964 0.0
H782 H 0.89513 0.54724 0.26312 0.0
H783 H 0.88086 0.56811 0.06242 0.0
H784 H 0.94613 0.56492 0.01504 0.0
H785 H 0.91624 0.57882 0.07467 0.0
H786 H 0.91313 0.52286 0.19306 0.0
H787 H 0.94307 0.5093 0.13445 0.0
C788 C 0.86317 0.55245 0.24077 0.0
C789 C 0.84848 0.55762 0.19154 0.0
C790 C 0.88422 0.55234 0.22534 0.0
C791 C 0.89092 0.55731 0.16032 0.0
C792 C 0.87632 0.56437 0.11321 0.0
C793 C 0.85531 0.56455 0.12872 0.0
C794 C 0.93929 0.55588 0.05502 0.0
C795 C 0.9466 0.5359 0.0694 0.0
C796 C 0.92222 0.56381 0.08911 0.0
C797 C 0.91207 0.55181 0.13775 0.0
C798 C 0.92063 0.53263 0.1563 0.0
C799 C 0.93778 0.52477 0.12252 0.0
H800 H 0.99104 0.17496 0.8715 0.0
H801 H 0.04871 0.16015 0.96957 0.0
H802 H 0.99096 0.14095 0.81848 0.0
H803 H 0.04881 0.12641 0.91619 0.0
H804 H 0.03239 0.05975 0.87024 0.0
H805 H 0.03225 0.09398 0.91932 0.0
H806 H 1.00695 0.11914 0.7361 0.0
H807 H 1.00654 0.08447 0.68723 0.0
C808 C 1.00379 0.16453 0.88145 0.0
C809 C 0.01979 0.17035 0.92548 0.0
C810 C 1.00379 0.14499 0.85078 0.0
C811 C 0.01983 0.1307 0.86299 0.0
C812 C 0.03593 0.13668 0.90644 0.0
C813 C 0.03587 0.15613 0.93726 0.0
C814 C 0.02684 0.07252 0.83999 0.0
C815 C 0.01952 0.0692 0.77443 0.0
C816 C 0.02688 0.09231 0.86824 0.0
C817 C 0.01969 0.10955 0.83189 0.0
C818 C 0.0124 0.10628 0.76612 0.0
C819 C 0.01232 0.08638 0.73778 0.0
H820 H 0.36386 0.03141 0.97783 0.0
H821 H 0.34262 0.98989 0.82361 0.0
H822 H 0.39844 0.0307 0.93031 0.0
H823 H 0.37746 0.98872 0.77656 0.0
H824 H 0.4388 1.00663 0.67253 0.0
H825 H 0.40349 1.00706 0.71676 0.0
H826 H 0.42783 1.01014 0.91815 0.0
H827 H 0.46271 1.01048 0.87412 0.0
C828 C 0.36663 0.02185 0.93428 0.0
C829 C 0.35037 1.01061 0.90497 0.0
C830 C 0.38657 0.0214 0.90685 0.0
C831 C 0.39102 1.00953 0.84948 0.0
C832 C 0.37472 0.99829 0.82008 0.0
C833 C 0.35469 0.99888 0.84729 0.0
C834 C 0.43656 1.00741 0.72622 0.0
C835 C 0.45368 1.0087 0.76952 0.0
C836 C 0.41627 1.00754 0.75177 0.0
C837 C 0.41258 1.00883 0.82135 0.0
C838 C 0.42983 1.00967 0.86435 0.0
C839 C 0.44998 1.00972 0.83891 0.0
H840 H 0.49184 0.3558 0.9731 0.0
H841 H 0.53552 0.3359 0.82323 0.0
H842 H 0.49262 0.39062 0.92721 0.0
H843 H 0.53668 0.37098 0.77775 0.0
H844 H 0.51883 0.43263 0.6746 0.0
H845 H 0.51827 0.39707 0.71699 0.0
H846 H 0.51334 0.42018 0.91924 0.0
H847 H 0.5132 0.45531 0.87702 0.0
C848 C 0.50187 0.35891 0.93087 0.0
C849 C 0.51371 0.34297 0.9023 0.0
C850 C 0.50235 0.37898 0.90438 0.0
C851 C 0.51483 0.38386 0.84873 0.0
C852 C 0.52665 0.36788 0.81997 0.0
C853 C 0.52606 0.34772 0.84626 0.0
C854 C 0.51762 0.43007 0.72808 0.0
C855 C 0.5159 0.44692 0.77216 0.0
C856 C 0.51741 0.40965 0.75255 0.0
C857 C 0.51558 0.40556 0.82178 0.0
C858 C 0.51426 0.42252 0.86561 0.0
C859 C 0.51432 0.4428 0.84123 0.0
H860 H 0.16739 0.48202 0.97481 0.0
H861 H 0.18916 0.52238 0.81781 0.0
H862 H 0.1329 0.48259 0.9262 0.0
H863 H 0.15442 0.52352 0.76982 0.0
H864 H 0.09308 0.5068 0.6656 0.0
H865 H 0.12829 0.50567 0.7107 0.0
H866 H 0.10356 0.50272 0.91148 0.0
H867 H 0.06878 0.503 0.86655 0.0
C868 C 0.16475 0.49129 0.93037 0.0
C869 C 0.18113 0.50223 0.9006 0.0
C870 C 0.14486 0.49167 0.90231 0.0
C871 C 0.14057 0.50321 0.84387 0.0
C872 C 0.15701 0.51418 0.81409 0.0
C873 C 0.17699 0.51362 0.84187 0.0
C874 C 0.09521 0.50582 0.71933 0.0
C875 C 0.07798 0.50479 0.76217 0.0
C876 C 0.11546 0.50531 0.74541 0.0
C877 C 0.11903 0.50394 0.81511 0.0
C878 C 0.10169 0.50323 0.85762 0.0
C879 C 0.08157 0.50353 0.83164 0.0
H880 H 0.99382 0.83497 0.56697 0.0
H881 H 0.03195 0.85833 0.40647 0.0
H882 H 0.9921 0.86965 0.61533 0.0
H883 H 0.0308 0.89267 0.45569 0.0
H884 H 1.00802 0.95575 0.51884 0.0
H885 H 1.00754 0.92101 0.47317 0.0
H886 H 0.01317 0.89571 0.6727 0.0
H887 H 0.01333 0.93075 0.71888 0.0
C888 C 1.00177 0.84748 0.54178 0.0
C889 C 0.01304 0.84374 0.48268 0.0
C890 C 1.00098 0.86736 0.57001 0.0
C891 C 1.01131 0.88409 0.53962 0.0
C892 C 0.02244 0.88031 0.4803 0.0
C893 C 0.02329 0.86049 0.45233 0.0
C894 C 1.00909 0.94284 0.55332 0.0
C895 C 1.01081 0.94619 0.62277 0.0
C896 C 1.00895 0.92282 0.5269 0.0
C897 C 1.01052 0.90541 0.56896 0.0
C898 C 0.01178 0.90869 0.63867 0.0
C899 C 0.01196 0.92882 0.66523 0.0
H900 H 0.66804 0.98053 0.42853 0.0
H901 H 0.6903 0.02692 0.56599 0.0
H902 H 0.63383 0.98297 0.47744 0.0
H903 H 0.65553 0.0301 0.61322 0.0
H904 H 0.59409 0.01407 0.72542 0.0
H905 H 0.62943 0.01272 0.68106 0.0
H906 H 0.60497 1.00524 0.48118 0.0
H907 H 0.57013 1.00602 0.52515 0.0
C908 C 0.66569 0.99129 0.46929 0.0
C909 C 0.68214 1.00344 0.49325 0.0
C910 C 0.64587 0.9929 0.49694 0.0
C911 C 0.6417 1.00684 0.54931 0.0
C912 C 0.65811 0.01906 0.57341 0.0
C913 C 0.67804 0.01743 0.54564 0.0
C914 C 0.5963 0.01216 0.67204 0.0
C915 C 0.57915 1.00995 0.62917 0.0
C916 C 0.6166 1.01149 0.64645 0.0
C917 C 0.62022 1.00862 0.57738 0.0
C918 C 0.60297 1.00695 0.53473 0.0
C919 C 0.58285 1.00753 0.56014 0.0
H920 H 0.54489 0.66298 0.44041 0.0
H921 H 0.4945 0.68305 0.56625 0.0
H922 H 0.54299 0.62868 0.48935 0.0
H923 H 0.492 0.64818 0.61362 0.0
H924 H 0.50877 0.58748 0.73029 0.0
H925 H 0.50956 0.62291 0.68597 0.0
H926 H 0.52156 0.59896 0.48803 0.0
H927 H 0.52127 0.56407 0.53195 0.0
C928 C 0.53337 0.66012 0.47863 0.0
C929 C 0.51991 0.67597 0.49934 0.0
C930 C 0.5321 0.64026 0.50628 0.0
C931 C 0.51725 0.63546 0.55544 0.0
C932 C 0.50375 0.65128 0.57634 0.0
C933 C 0.50501 0.67124 0.54849 0.0
C934 C 0.51157 0.58983 0.67735 0.0
C935 C 0.51515 0.57282 0.63503 0.0
C936 C 0.51192 0.61015 0.65179 0.0
C937 C 0.51586 0.61393 0.58334 0.0
C938 C 0.51896 0.59683 0.54118 0.0
C939 C 0.51867 0.57668 0.56654 0.0
H940 H 0.85266 0.54062 0.48831 0.0
H941 H 0.84759 0.47663 0.54957 0.0
H942 H 0.88803 0.54141 0.53065 0.0
H943 H 0.88247 0.47804 0.59508 0.0
H944 H 0.93798 0.49759 0.73175 0.0
H945 H 0.90228 0.49741 0.69006 0.0
H946 H 0.92287 0.52332 0.50242 0.0
H947 H 0.95852 0.52312 0.54328 0.0
C948 C 0.85893 0.52666 0.51035 0.0
C949 C 0.84686 0.50856 0.51516 0.0
C950 C 0.87926 0.52722 0.53515 0.0
C951 C 0.88804 0.50984 0.56669 0.0
C952 C 0.87607 0.49181 0.57203 0.0
C953 C 0.85591 0.49109 0.54608 0.0
C954 C 0.93489 0.50331 0.6817 0.0
C955 C 0.95117 0.51033 0.64088 0.0
C956 C 0.91445 0.50312 0.65771 0.0
C957 C 0.90972 0.51035 0.59288 0.0
C958 C 0.92595 0.51777 0.55268 0.0
C959 C 0.94641 0.51756 0.57608 0.0
loop_
_geom_bond_atom_site_label_1
_geom_bond_atom_site_label_2
_geom_bond_distance
_geom_bond_site_symmetry_2
_ccdc_geom_bond_type
C0 C1 1.264 . S
C0 C5 1.479 . S
C0 C10 1.465 . S
C1 C0 1.264 . S
C1 C3 1.339 . S
C1 H28 0.931 . S
C2 C3 1.395 . S
C2 C4 1.320 . S
C3 C1 1.339 . S
C3 C2 1.395 . S
C3 H29 0.929 . S
C4 C2 1.320 . S
C4 C5 1.405 . S
C4 H30 0.930 . S
C5 C0 1.479 . S
C5 C4 1.405 . S
C5 H31 0.931 . S
U6 O7 2.454 . S
U6 O8 2.458 . S
U6 C9 2.984 . S
U6 C10 2.847 . S
U6 C23 2.882 . S
U6 O24 2.441 . S
U6 O25 2.420 . S
U6 O26 2.455 . S
U6 O27 2.449 . S
O7 U6 2.454 . S
O7 C9 1.353 . S
O8 U6 2.458 . S
O8 C9 1.286 . S
C9 U6 2.984 . S
C9 O7 1.353 . S
C9 O8 1.286 . S
C9 C11 1.363 . S
C10 C0 1.465 . S
C10 U6 2.847 . S
C10 O24 1.249 . S
C10 O25 1.202 . S
C11 C9 1.363 . S
C11 C13 1.408 . S
C11 C16 1.342 . S
C12 C13 1.310 . S
C12 C15 1.461 . S
C12 H32 0.932 . S
C13 C11 1.408 . S
C13 C12 1.310 . S
C13 H33 0.930 . S
C14 C15 1.474 . S
C14 C16 1.285 . S
C14 H34 0.929 . S
C15 C12 1.461 . S
C15 C14 1.474 . S
C16 C11 1.342 . S
C16 C14 1.285 . S
C16 H35 0.930 . S
C17 C20 1.424 . S
C17 C22 1.245 . S
C17 C23 1.428 . S
C18 C21 1.260 . S
C18 C22 1.477 . S
C18 H36 0.932 . S
C19 C20 1.384 . S
C19 C21 1.479 . S
C19 H37 0.929 . S
C20 C17 1.424 . S
C20 C19 1.384 . S
C20 H38 0.928 . S
C21 C18 1.260 . S
C21 C19 1.479 . S
C22 C17 1.245 . S
C22 C18 1.477 . S
C22 H39 0.932 . S
C23 U6 2.882 . S
C23 C17 1.428 . S
C23 O26 1.301 . S
C23 O27 1.282 . S
O24 U6 2.441 . S
O24 C10 1.249 . S
O25 U6 2.420 . S
O25 C10 1.202 . S
O26 U6 2.455 . S
O26 C23 1.301 . S
O27 U6 2.449 . S
O27 C23 1.282 . S
H28 C1 0.931 . S
H29 C3 0.929 . S
H30 C4 0.930 . S
H31 C5 0.931 . S
H32 C12 0.932 . S
H33 C13 0.930 . S
H34 C14 0.929 . S
H35 C16 0.930 . S
H36 C18 0.932 . S
H37 C19 0.929 . S
H38 C20 0.928 . S
H39 C22 0.932 . S
C40 C41 1.264 . S
C40 C45 1.479 . S
C40 C50 1.465 . S
C41 C40 1.264 . S
C41 C43 1.339 . S
C41 H68 0.931 . S
C42 C43 1.395 . S
C42 C44 1.320 . S
C43 C41 1.339 . S
C43 C42 1.395 . S
C43 H69 0.929 . S
C44 C42 1.320 . S
C44 C45 1.405 . S
C44 H70 0.921 1_455 S
C45 C40 1.479 . S
C45 C44 1.405 . S
C45 H71 0.931 . S
U46 O47 2.454 . S
U46 O48 2.458 . S
U46 C49 2.984 . S
U46 C50 2.847 . S
U46 C63 2.882 . S
U46 O64 2.441 . S
U46 O65 2.420 . S
U46 O66 2.455 . S
U46 O67 2.449 . S
O47 U46 2.454 . S
O47 C49 1.353 . S
O48 U46 2.458 . S
O48 C49 1.286 . S
C49 U46 2.984 . S
C49 O47 1.353 . S
C49 O48 1.286 . S
C49 C51 1.363 . S
C50 C40 1.465 . S
C50 U46 2.847 . S
C50 O64 1.249 . S
C50 O65 1.202 . S
C51 C49 1.363 . S
C51 C53 1.408 . S
C51 C56 1.342 . S
C52 C53 1.310 . S
C52 C55 1.461 . S
C52 H72 0.932 . S
C53 C51 1.408 . S
C53 C52 1.310 . S
C53 H73 0.930 . S
C54 C55 1.474 1_655 S
C54 C56 1.285 1_655 S
C54 H74 0.930 . S
C55 C52 1.461 . S
C55 C54 1.474 1_455 S
C56 C51 1.342 . S
C56 C54 1.285 1_455 S
C56 H75 0.932 . S
C57 C60 1.424 . S
C57 C62 1.245 . S
C57 C63 1.428 . S
C58 C61 1.260 . S
C58 C62 1.477 . S
C58 H76 0.932 . S
C59 C60 1.384 . S
C59 C61 1.479 . S
C59 H77 0.929 . S
C60 C57 1.424 . S
C60 C59 1.384 . S
C60 H78 0.928 . S
C61 C58 1.260 . S
C61 C59 1.479 . S
C62 C57 1.245 . S
C62 C58 1.477 . S
C62 H79 0.932 . S
C63 U46 2.882 . S
C63 C57 1.428 . S
C63 O66 1.301 . S
C63 O67 1.282 . S
O64 U46 2.441 . S
O64 C50 1.249 . S
O65 U46 2.420 . S
O65 C50 1.202 . S
O66 U46 2.455 . S
O66 C63 1.301 . S
O67 U46 2.449 . S
O67 C63 1.282 . S
H68 C41 0.931 . S
H69 C43 0.929 . S
H70 C44 0.921 1_655 S
H71 C45 0.931 . S
H72 C52 0.932 . S
H73 C53 0.930 . S
H74 C54 0.930 . S
H75 C56 0.932 . S
H76 C58 0.932 . S
H77 C59 0.929 . S
H78 C60 0.928 . S
H79 C62 0.932 . S
C80 C81 1.264 . S
C80 C85 1.479 . S
C80 C90 1.465 . S
C81 C80 1.264 . S
C81 C83 1.339 . S
C81 H108 0.931 . S
C82 C83 1.395 . S
C82 C84 1.320 . S
C83 C81 1.339 . S
C83 C82 1.395 . S
C83 H109 0.929 . S
C84 C82 1.320 . S
C84 C85 1.405 . S
C84 H110 0.921 1_545 S
C85 C80 1.479 . S
C85 C84 1.405 . S
C85 H111 0.931 . S
U86 O87 2.454 . S
U86 O88 2.458 . S
U86 C89 2.984 . S
U86 C90 2.847 . S
U86 C103 2.882 . S
U86 O104 2.441 . S
U86 O105 2.420 . S
U86 O106 2.455 . S
U86 O107 2.449 . S
O87 U86 2.454 . S
O87 C89 1.353 . S
O88 U86 2.458 . S
O88 C89 1.286 . S
C89 U86 2.984 . S
C89 O87 1.353 . S
C89 O88 1.286 . S
C89 C91 1.363 . S
C90 C80 1.465 . S
C90 U86 2.847 . S
C90 O104 1.249 . S
C90 O105 1.202 . S
C91 C89 1.363 . S
C91 C93 1.408 . S
C91 C96 1.342 . S
C92 C93 1.310 . S
C92 C95 1.461 . S
C92 H112 0.932 . S
C93 C91 1.408 . S
C93 C92 1.310 . S
C93 H113 0.930 . S
C94 C95 1.474 1_565 S
C94 C96 1.285 1_565 S
C94 H114 0.930 . S
C95 C92 1.461 . S
C95 C94 1.474 1_545 S
C96 C91 1.342 . S
C96 C94 1.285 1_545 S
C96 H115 0.932 . S
C97 C100 1.424 . S
C97 C102 1.245 . S
C97 C103 1.428 . S
C98 C101 1.260 . S
C98 C102 1.477 . S
C98 H116 0.932 . S
C99 C100 1.384 . S
C99 C101 1.479 . S
C99 H117 0.929 . S
C100 C97 1.424 . S
C100 C99 1.384 . S
C100 H118 0.928 . S
C101 C98 1.260 . S
C101 C99 1.479 . S
C102 C97 1.245 . S
C102 C98 1.477 . S
C102 H119 0.932 . S
C103 U86 2.882 . S
C103 C97 1.428 . S
C103 O106 1.301 . S
C103 O107 1.282 . S
O104 U86 2.441 . S
O104 C90 1.249 . S
O105 U86 2.420 . S
O105 C90 1.202 . S
O106 U86 2.455 . S
O106 C103 1.301 . S
O107 U86 2.449 . S
O107 C103 1.282 . S
H108 C81 0.931 . S
H109 C83 0.929 . S
H110 C84 0.921 1_565 S
H111 C85 0.931 . S
H112 C92 0.932 . S
H113 C93 0.930 . S
H114 C94 0.930 . S
H115 C96 0.932 . S
H116 C98 0.932 . S
H117 C99 0.929 . S
H118 C100 0.928 . S
H119 C102 0.932 . S
C120 C121 1.264 . S
C120 C125 1.479 . S
C120 C130 1.465 . S
C121 C120 1.264 . S
C121 C123 1.339 . S
C121 H148 0.931 . S
C122 C123 1.395 . S
C122 C124 1.320 . S
C123 C121 1.339 . S
C123 C122 1.395 . S
C123 H149 0.929 . S
C124 C122 1.320 . S
C124 C125 1.405 . S
C124 H150 0.930 . S
C125 C120 1.479 . S
C125 C124 1.405 . S
C125 H151 0.931 . S
U126 O127 2.454 . S
U126 O128 2.458 . S
U126 C129 2.984 . S
U126 C130 2.847 . S
U126 C143 2.882 . S
U126 O144 2.441 . S
U126 O145 2.420 . S
U126 O146 2.455 . S
U126 O147 2.449 . S
O127 U126 2.454 . S
O127 C129 1.353 . S
O128 U126 2.458 . S
O128 C129 1.286 . S
C129 U126 2.984 . S
C129 O127 1.353 . S
C129 O128 1.286 . S
C129 C131 1.363 . S
C130 C120 1.465 . S
C130 U126 2.847 . S
C130 O144 1.249 . S
C130 O145 1.202 . S
C131 C129 1.363 . S
C131 C133 1.408 . S
C131 C136 1.342 . S
C132 C133 1.310 . S
C132 C135 1.461 . S
C132 H152 0.932 . S
C133 C131 1.408 . S
C133 C132 1.310 . S
C133 H153 0.930 . S
C134 C135 1.474 . S
C134 C136 1.285 . S
C134 H154 0.929 . S
C135 C132 1.461 . S
C135 C134 1.474 . S
C136 C131 1.342 . S
C136 C134 1.285 . S
C136 H155 0.930 . S
C137 C140 1.424 . S
C137 C142 1.245 . S
C137 C143 1.428 . S
C138 C141 1.260 . S
C138 C142 1.477 . S
C138 H156 0.932 . S
C139 C140 1.384 . S
C139 C141 1.479 . S
C139 H157 0.929 . S
C140 C137 1.424 . S
C140 C139 1.384 . S
C140 H158 0.928 . S
C141 C138 1.260 . S
C141 C139 1.479 . S
C142 C137 1.245 . S
C142 C138 1.477 . S
C142 H159 0.932 . S
C143 U126 2.882 . S
C143 C137 1.428 . S
C143 O146 1.301 . S
C143 O147 1.282 . S
O144 U126 2.441 . S
O144 C130 1.249 . S
O145 U126 2.420 . S
O145 C130 1.202 . S
O146 U126 2.455 . S
O146 C143 1.301 . S
O147 U126 2.449 . S
O147 C143 1.282 . S
H148 C121 0.931 . S
H149 C123 0.929 . S
H150 C124 0.930 . S
H151 C125 0.931 . S
H152 C132 0.932 . S
H153 C133 0.930 . S
H154 C134 0.929 . S
H155 C136 0.930 . S
H156 C138 0.932 . S
H157 C139 0.929 . S
H158 C140 0.928 . S
H159 C142 0.932 . S
C160 C161 1.264 . S
C160 C165 1.479 . S
C160 C170 1.465 . S
C161 C160 1.264 . S
C161 C163 1.339 . S
C161 H188 0.931 . S
C162 C163 1.395 . S
C162 C164 1.320 . S
C163 C161 1.339 . S
C163 C162 1.395 . S
C163 H189 0.929 . S
C164 C162 1.320 . S
C164 C165 1.405 . S
C164 H190 0.930 . S
C165 C160 1.479 . S
C165 C164 1.405 . S
C165 H191 0.931 . S
U166 O167 2.454 . S
U166 O168 2.458 . S
U166 C169 2.984 . S
U166 C170 2.847 1_554 S
U166 C183 2.882 . S
U166 O184 2.441 1_554 S
U166 O185 2.420 1_554 S
U166 O186 2.455 . S
U166 O187 2.449 . S
O167 U166 2.454 . S
O167 C169 1.353 . S
O168 U166 2.458 . S
O168 C169 1.286 . S
C169 U166 2.984 . S
C169 O167 1.353 . S
C169 O168 1.286 . S
C169 C171 1.363 . S
C170 C160 1.465 . S
C170 U166 2.847 1_556 S
C170 O184 1.249 . S
C170 O185 1.202 . S
C171 C169 1.363 . S
C171 C173 1.408 . S
C171 C176 1.342 . S
C172 C173 1.310 . S
C172 C175 1.461 . S
C172 H192 0.932 . S
C173 C171 1.408 . S
C173 C172 1.310 . S
C173 H193 0.930 . S
C174 C175 1.474 . S
C174 C176 1.285 . S
C174 H194 0.929 . S
C175 C172 1.461 . S
C175 C174 1.474 . S
C176 C171 1.342 . S
C176 C174 1.285 . S
C176 H195 0.930 . S
C177 C180 1.424 . S
C177 C182 1.245 . S
C177 C183 1.428 . S
C178 C181 1.260 . S
C178 C182 1.477 . S
C178 H196 0.932 . S
C179 C180 1.384 . S
C179 C181 1.479 . S
C179 H197 0.929 . S
C180 C177 1.424 . S
C180 C179 1.384 . S
C180 H198 0.928 . S
C181 C178 1.260 . S
C181 C179 1.479 . S
C182 C177 1.245 . S
C182 C178 1.477 . S
C182 H199 0.932 . S
C183 U166 2.882 . S
C183 C177 1.428 . S
C183 O186 1.301 . S
C183 O187 1.282 . S
O184 U166 2.441 1_556 S
O184 C170 1.249 . S
O185 U166 2.420 1_556 S
O185 C170 1.202 . S
O186 U166 2.455 . S
O186 C183 1.301 . S
O187 U166 2.449 . S
O187 C183 1.282 . S
H188 C161 0.931 . S
H189 C163 0.929 . S
H190 C164 0.930 . S
H191 C165 0.931 . S
H192 C172 0.932 . S
H193 C173 0.930 . S
H194 C174 0.929 . S
H195 C176 0.930 . S
H196 C178 0.932 . S
H197 C179 0.929 . S
H198 C180 0.928 . S
H199 C182 0.932 . S
C200 C201 1.264 . S
C200 C205 1.479 . S
C200 C210 1.465 . S
C201 C200 1.264 . S
C201 C203 1.339 . S
C201 H228 0.931 . S
C202 C203 1.395 . S
C202 C204 1.320 . S
C203 C201 1.339 . S
C203 C202 1.395 . S
C203 H229 0.929 . S
C204 C202 1.320 . S
C204 C205 1.405 . S
C204 H230 0.923 1_455 S
C205 C200 1.479 . S
C205 C204 1.405 . S
C205 H231 0.931 . S
U206 O207 2.454 . S
U206 O208 2.458 . S
U206 C209 2.984 . S
U206 C210 2.847 1_554 S
U206 C223 2.882 . S
U206 O224 2.441 1_554 S
U206 O225 2.420 1_554 S
U206 O226 2.455 . S
U206 O227 2.449 . S
O207 U206 2.454 . S
O207 C209 1.353 . S
O208 U206 2.458 . S
O208 C209 1.286 . S
C209 U206 2.984 . S
C209 O207 1.353 . S
C209 O208 1.286 . S
C209 C211 1.363 . S
C210 C200 1.465 . S
C210 U206 2.847 1_556 S
C210 O224 1.249 . S
C210 O225 1.202 . S
C211 C209 1.363 . S
C211 C213 1.408 . S
C211 C216 1.342 . S
C212 C213 1.310 . S
C212 C215 1.462 . S
C212 H232 0.932 . S
C213 C211 1.408 . S
C213 C212 1.310 . S
C213 H233 0.930 . S
C214 C215 1.474 1_655 S
C214 C216 1.286 1_655 S
C214 H234 0.929 . S
C215 C212 1.462 . S
C215 C214 1.474 1_455 S
C216 C211 1.342 . S
C216 C214 1.286 1_455 S
C216 H235 0.933 . S
C217 C220 1.424 . S
C217 C222 1.245 . S
C217 C223 1.428 . S
C218 C221 1.260 . S
C218 C222 1.477 . S
C218 H236 0.932 . S
C219 C220 1.384 . S
C219 C221 1.479 . S
C219 H237 0.929 . S
C220 C217 1.424 . S
C220 C219 1.384 . S
C220 H238 0.928 . S
C221 C218 1.260 . S
C221 C219 1.479 . S
C222 C217 1.245 . S
C222 C218 1.477 . S
C222 H239 0.932 . S
C223 U206 2.882 . S
C223 C217 1.428 . S
C223 O226 1.301 . S
C223 O227 1.282 . S
O224 U206 2.441 1_556 S
O224 C210 1.249 . S
O225 U206 2.420 1_556 S
O225 C210 1.202 . S
O226 U206 2.455 . S
O226 C223 1.301 . S
O227 U206 2.449 . S
O227 C223 1.282 . S
H228 C201 0.931 . S
H229 C203 0.929 . S
H230 C204 0.923 1_655 S
H231 C205 0.931 . S
H232 C212 0.932 . S
H233 C213 0.930 . S
H234 C214 0.929 . S
H235 C216 0.933 . S
H236 C218 0.932 . S
H237 C219 0.929 . S
H238 C220 0.928 . S
H239 C222 0.932 . S
C240 C241 1.264 . S
C240 C245 1.479 . S
C240 C250 1.465 . S
C241 C240 1.264 . S
C241 C243 1.339 . S
C241 H268 0.931 . S
C242 C243 1.395 . S
C242 C244 1.320 . S
C243 C241 1.339 . S
C243 C242 1.395 . S
C243 H269 0.929 . S
C244 C242 1.320 . S
C244 C245 1.405 . S
C244 H270 0.923 1_545 S
C245 C240 1.479 . S
C245 C244 1.405 . S
C245 H271 0.931 . S
U246 O247 2.454 . S
U246 O248 2.458 . S
U246 C249 2.984 . S
U246 C250 2.847 1_554 S
U246 C263 2.882 . S
U246 O264 2.441 1_554 S
U246 O265 2.420 1_554 S
U246 O266 2.455 . S
U246 O267 2.449 . S
O247 U246 2.454 . S
O247 C249 1.353 . S
O248 U246 2.458 . S
O248 C249 1.286 . S
C249 U246 2.984 . S
C249 O247 1.353 . S
C249 O248 1.286 . S
C249 C251 1.363 . S
C250 C240 1.465 . S
C250 U246 2.847 1_556 S
C250 O264 1.249 . S
C250 O265 1.202 . S
C251 C249 1.363 . S
C251 C253 1.408 . S
C251 C256 1.342 . S
C252 C253 1.310 . S
C252 C255 1.462 . S
C252 H272 0.932 . S
C253 C251 1.408 . S
C253 C252 1.310 . S
C253 H273 0.930 . S
C254 C255 1.474 1_565 S
C254 C256 1.286 1_565 S
C254 H274 0.929 . S
C255 C252 1.462 . S
C255 C254 1.474 1_545 S
C256 C251 1.342 . S
C256 C254 1.286 1_545 S
C256 H275 0.933 . S
C257 C260 1.424 . S
C257 C262 1.245 . S
C257 C263 1.428 . S
C258 C261 1.260 . S
C258 C262 1.477 . S
C258 H276 0.932 . S
C259 C260 1.384 . S
C259 C261 1.479 . S
C259 H277 0.929 . S
C260 C257 1.424 . S
C260 C259 1.384 . S
C260 H278 0.928 . S
C261 C258 1.260 . S
C261 C259 1.479 . S
C262 C257 1.245 . S
C262 C258 1.477 . S
C262 H279 0.932 . S
C263 U246 2.882 . S
C263 C257 1.428 . S
C263 O266 1.301 . S
C263 O267 1.282 . S
O264 U246 2.441 1_556 S
O264 C250 1.249 . S
O265 U246 2.420 1_556 S
O265 C250 1.202 . S
O266 U246 2.455 . S
O266 C263 1.301 . S
O267 U246 2.449 . S
O267 C263 1.282 . S
H268 C241 0.931 . S
H269 C243 0.929 . S
H270 C244 0.923 1_565 S
H271 C245 0.931 . S
H272 C252 0.932 . S
H273 C253 0.930 . S
H274 C254 0.929 . S
H275 C256 0.933 . S
H276 C258 0.932 . S
H277 C259 0.929 . S
H278 C260 0.928 . S
H279 C262 0.932 . S
C280 C281 1.264 . S
C280 C285 1.479 . S
C280 C290 1.465 . S
C281 C280 1.264 . S
C281 C283 1.339 . S
C281 H308 0.931 . S
C282 C283 1.395 . S
C282 C284 1.320 . S
C283 C281 1.339 . S
C283 C282 1.395 . S
C283 H309 0.929 . S
C284 C282 1.320 . S
C284 C285 1.405 . S
C284 H310 0.930 . S
C285 C280 1.479 . S
C285 C284 1.405 . S
C285 H311 0.931 . S
U286 O287 2.454 . S
U286 O288 2.458 . S
U286 C289 2.984 . S
U286 C290 2.847 1_554 S
U286 C303 2.882 . S
U286 O304 2.441 1_554 S
U286 O305 2.420 1_554 S
U286 O306 2.455 . S
U286 O307 2.449 . S
O287 U286 2.454 . S
O287 C289 1.353 . S
O288 U286 2.458 . S
O288 C289 1.286 . S
C289 U286 2.984 . S
C289 O287 1.353 . S
C289 O288 1.286 . S
C289 C291 1.363 . S
C290 C280 1.465 . S
C290 U286 2.847 1_556 S
C290 O304 1.249 . S
C290 O305 1.202 . S
C291 C289 1.363 . S
C291 C293 1.408 . S
C291 C296 1.342 . S
C292 C293 1.310 . S
C292 C295 1.461 . S
C292 H312 0.932 . S
C293 C291 1.408 . S
C293 C292 1.310 . S
C293 H313 0.930 . S
C294 C295 1.474 . S
C294 C296 1.285 . S
C294 H314 0.929 . S
C295 C292 1.461 . S
C295 C294 1.474 . S
C296 C291 1.342 . S
C296 C294 1.285 . S
C296 H315 0.930 . S
C297 C300 1.424 . S
C297 C302 1.245 . S
C297 C303 1.428 . S
C298 C301 1.260 . S
C298 C302 1.477 . S
C298 H316 0.932 . S
C299 C300 1.384 . S
C299 C301 1.479 . S
C299 H317 0.929 . S
C300 C297 1.424 . S
C300 C299 1.384 . S
C300 H318 0.928 . S
C301 C298 1.260 . S
C301 C299 1.479 . S
C302 C297 1.245 . S
C302 C298 1.477 . S
C302 H319 0.932 . S
C303 U286 2.882 . S
C303 C297 1.428 . S
C303 O306 1.301 . S
C303 O307 1.282 . S
O304 U286 2.441 1_556 S
O304 C290 1.249 . S
O305 U286 2.420 1_556 S
O305 C290 1.202 . S
O306 U286 2.455 . S
O306 C303 1.301 . S
O307 U286 2.449 . S
O307 C303 1.282 . S
H308 C281 0.931 . S
H309 C283 0.929 . S
H310 C284 0.930 . S
H311 C285 0.931 . S
H312 C292 0.932 . S
H313 C293 0.930 . S
H314 C294 0.929 . S
H315 C296 0.930 . S
H316 C298 0.932 . S
H317 C299 0.929 . S
H318 C300 0.928 . S
H319 C302 0.932 . S
Tb320 C322 2.809 . S
Tb320 O340 2.484 . S
Tb320 O341 2.440 . S
Tb320 O342 2.658 1_565 S
Tb320 O343 2.409 . S
Tb320 O344 2.378 . S
Tb320 O348 2.325 1_455 S
Tb320 O351 2.341 1_565 S
Tb321 C331 2.809 . S
Tb321 O342 2.325 1_655 S
Tb321 O345 2.341 1_545 S
Tb321 O346 2.484 . S
Tb321 O347 2.440 . S
Tb321 O348 2.658 1_545 S
Tb321 O349 2.409 . S
Tb321 O350 2.378 . S
C322 Tb320 2.809 . S
C322 C323 1.514 . S
C322 O340 1.248 . S
C322 O341 1.266 . S
C323 C322 1.514 . S
C323 C324 1.359 . S
C323 C328 1.348 . S
C324 C323 1.359 . S
C324 C325 1.380 . S
C324 H352 0.929 1_455 S
C325 C324 1.380 . S
C325 C326 1.347 . S
C325 H353 0.931 1_455 S
C326 C325 1.347 . S
C326 C327 1.369 . S
C327 C326 1.369 . S
C327 C328 1.408 . S
C327 H354 0.930 . S
C328 C323 1.348 . S
C328 C327 1.408 . S
C328 H355 0.930 . S
C329 O342 1.281 1_565 S
C329 O343 1.254 . S
C330 O344 1.236 1_655 S
C330 O345 1.266 . S
C331 Tb321 2.809 . S
C331 C332 1.514 . S
C331 O346 1.248 . S
C331 O347 1.266 . S
C332 C331 1.514 . S
C332 C333 1.359 . S
C332 C337 1.348 . S
C333 C332 1.359 . S
C333 C334 1.380 . S
C333 H356 0.929 1_655 S
C334 C333 1.380 . S
C334 C335 1.347 . S
C334 H357 0.931 1_655 S
C335 C334 1.347 . S
C335 C336 1.369 . S
C336 C335 1.369 . S
C336 C337 1.408 . S
C336 H358 0.930 . S
C337 C332 1.348 . S
C337 C336 1.408 . S
C337 H359 0.930 . S
C338 O348 1.281 1_545 S
C338 O349 1.254 . S
C339 O350 1.236 1_455 S
C339 O351 1.266 . S
O340 Tb320 2.484 . S
O340 C322 1.248 . S
O341 Tb320 2.440 . S
O341 C322 1.266 . S
O342 Tb320 2.658 1_545 S
O342 Tb321 2.325 1_455 S
O342 C329 1.281 1_545 S
O343 Tb320 2.409 . S
O343 C329 1.254 . S
O344 Tb320 2.378 . S
O344 C330 1.236 1_455 S
O345 Tb321 2.341 1_565 S
O345 C330 1.266 . S
O346 Tb321 2.484 . S
O346 C331 1.248 . S
O347 Tb321 2.440 . S
O347 C331 1.266 . S
O348 Tb320 2.325 1_655 S
O348 Tb321 2.658 1_565 S
O348 C338 1.281 1_565 S
O349 Tb321 2.409 . S
O349 C338 1.254 . S
O350 Tb321 2.378 . S
O350 C339 1.236 1_655 S
O351 Tb320 2.341 1_545 S
O351 C339 1.266 . S
H352 C324 0.929 1_655 S
H353 C325 0.931 1_655 S
H354 C327 0.930 . S
H355 C328 0.930 . S
H356 C333 0.929 1_455 S
H357 C334 0.931 1_455 S
H358 C336 0.930 . S
H359 C337 0.930 . S
Tb360 C362 2.809 . S
Tb360 O380 2.484 . S
Tb360 O381 2.440 . S
Tb360 O382 2.658 . S
Tb360 O383 2.409 . S
Tb360 O384 2.378 . S
Tb360 O388 2.325 1_545 S
Tb360 O391 2.341 . S
Tb361 C371 2.809 . S
Tb361 O382 2.325 1_565 S
Tb361 O385 2.341 . S
Tb361 O386 2.484 . S
Tb361 O387 2.440 . S
Tb361 O388 2.658 . S
Tb361 O389 2.409 . S
Tb361 O390 2.378 . S
C362 Tb360 2.809 . S
C362 C363 1.514 . S
C362 O380 1.248 . S
C362 O381 1.266 . S
C363 C362 1.514 . S
C363 C364 1.359 . S
C363 C368 1.348 . S
C364 C363 1.359 . S
C364 C365 1.380 . S
C364 H392 0.929 1_545 S
C365 C364 1.380 . S
C365 C366 1.347 . S
C365 H393 0.931 1_545 S
C366 C365 1.347 . S
C366 C367 1.369 . S
C367 C366 1.369 . S
C367 C368 1.408 . S
C367 H394 0.930 . S
C368 C363 1.348 . S
C368 C367 1.408 . S
C368 H395 0.930 . S
C369 O382 1.281 . S
C369 O383 1.254 . S
C370 O384 1.236 1_565 S
C370 O385 1.266 . S
C371 Tb361 2.809 . S
C371 C372 1.514 . S
C371 O386 1.248 . S
C371 O387 1.266 . S
C372 C371 1.514 . S
C372 C373 1.359 . S
C372 C377 1.348 . S
C373 C372 1.359 . S
C373 C374 1.380 . S
C373 H396 0.929 1_565 S
C374 C373 1.380 . S
C374 C375 1.347 . S
C374 H397 0.931 1_565 S
C375 C374 1.347 . S
C375 C376 1.369 . S
C376 C375 1.369 . S
C376 C377 1.408 . S
C376 H398 0.930 . S
C377 C372 1.348 . S
C377 C376 1.408 . S
C377 H399 0.930 . S
C378 O388 1.281 . S
C378 O389 1.254 . S
C379 O390 1.236 1_545 S
C379 O391 1.266 . S
O380 Tb360 2.484 . S
O380 C362 1.248 . S
O381 Tb360 2.440 . S
O381 C362 1.266 . S
O382 Tb360 2.658 . S
O382 Tb361 2.325 1_545 S
O382 C369 1.281 . S
O383 Tb360 2.409 . S
O383 C369 1.254 . S
O384 Tb360 2.378 . S
O384 C370 1.236 1_545 S
O385 Tb361 2.341 . S
O385 C370 1.266 . S
O386 Tb361 2.484 . S
O386 C371 1.248 . S
O387 Tb361 2.440 . S
O387 C371 1.266 . S
O388 Tb360 2.325 1_565 S
O388 Tb361 2.658 . S
O388 C378 1.281 . S
O389 Tb361 2.409 . S
O389 C378 1.254 . S
O390 Tb361 2.378 . S
O390 C379 1.236 1_565 S
O391 Tb360 2.341 . S
O391 C379 1.266 . S
H392 C364 0.929 1_565 S
H393 C365 0.931 1_565 S
H394 C367 0.930 . S
H395 C368 0.930 . S
H396 C373 0.929 1_545 S
H397 C374 0.931 1_545 S
H398 C376 0.930 . S
H399 C377 0.930 . S
Tb400 C402 2.809 . S
Tb400 O420 2.484 . S
Tb400 O421 2.440 . S
Tb400 O422 2.658 . S
Tb400 O423 2.409 . S
Tb400 O424 2.378 . S
Tb400 O428 2.325 . S
Tb400 O431 2.341 . S
Tb401 C411 2.809 . S
Tb401 O422 2.325 . S
Tb401 O425 2.341 . S
Tb401 O426 2.484 . S
Tb401 O427 2.440 . S
Tb401 O428 2.658 . S
Tb401 O429 2.409 . S
Tb401 O430 2.378 . S
C402 Tb400 2.809 . S
C402 C403 1.514 . S
C402 O420 1.248 . S
C402 O421 1.266 . S
C403 C402 1.514 . S
C403 C404 1.359 . S
C403 C408 1.348 . S
C404 C403 1.359 . S
C404 C405 1.380 . S
C404 H432 0.929 . S
C405 C404 1.380 . S
C405 C406 1.347 . S
C405 H433 0.931 . S
C406 C405 1.347 . S
C406 C407 1.369 . S
C407 C406 1.369 . S
C407 C408 1.408 . S
C407 H434 0.930 . S
C408 C403 1.348 . S
C408 C407 1.408 . S
C408 H435 0.930 . S
C409 O422 1.281 . S
C409 O423 1.254 . S
C410 O424 1.236 . S
C410 O425 1.266 . S
C411 Tb401 2.809 . S
C411 C412 1.514 . S
C411 O426 1.248 . S
C411 O427 1.266 . S
C412 C411 1.514 . S
C412 C413 1.359 . S
C412 C417 1.348 . S
C413 C412 1.359 . S
C413 C414 1.380 . S
C413 H436 0.929 . S
C414 C413 1.380 . S
C414 C415 1.347 . S
C414 H437 0.931 . S
C415 C414 1.347 . S
C415 C416 1.369 . S
C416 C415 1.369 . S
C416 C417 1.408 . S
C416 H438 0.930 . S
C417 C412 1.348 . S
C417 C416 1.408 . S
C417 H439 0.930 . S
C418 O428 1.281 . S
C418 O429 1.254 . S
C419 O430 1.236 . S
C419 O431 1.266 . S
O420 Tb400 2.484 . S
O420 C402 1.248 . S
O421 Tb400 2.440 . S
O421 C402 1.266 . S
O422 Tb400 2.658 . S
O422 Tb401 2.325 . S
O422 C409 1.281 . S
O423 Tb400 2.409 . S
O423 C409 1.254 . S
O424 Tb400 2.378 . S
O424 C410 1.236 . S
O425 Tb401 2.341 . S
O425 C410 1.266 . S
O426 Tb401 2.484 . S
O426 C411 1.248 . S
O427 Tb401 2.440 . S
O427 C411 1.266 . S
O428 Tb400 2.325 . S
O428 Tb401 2.658 . S
O428 C418 1.281 . S
O429 Tb401 2.409 . S
O429 C418 1.254 . S
O430 Tb401 2.378 . S
O430 C419 1.236 . S
O431 Tb400 2.341 . S
O431 C419 1.266 . S
H432 C404 0.929 . S
H433 C405 0.931 . S
H434 C407 0.930 . S
H435 C408 0.930 . S
H436 C413 0.929 . S
H437 C414 0.931 . S
H438 C416 0.930 . S
H439 C417 0.930 . S
Tb440 C442 2.809 . S
Tb440 O460 2.484 . S
Tb440 O461 2.440 . S
Tb440 O462 2.658 1_655 S
Tb440 O463 2.409 . S
Tb440 O464 2.378 . S
Tb440 O468 2.325 . S
Tb440 O471 2.341 1_655 S
Tb441 C451 2.809 . S
Tb441 O462 2.325 . S
Tb441 O465 2.341 1_455 S
Tb441 O466 2.484 . S
Tb441 O467 2.440 . S
Tb441 O468 2.658 1_455 S
Tb441 O469 2.409 . S
Tb441 O470 2.378 . S
C442 Tb440 2.809 . S
C442 C443 1.514 . S
C442 O460 1.248 . S
C442 O461 1.266 . S
C443 C442 1.514 . S
C443 C444 1.359 . S
C443 C448 1.348 . S
C444 C443 1.359 . S
C444 C445 1.380 . S
C444 H472 0.929 . S
C445 C444 1.380 . S
C445 C446 1.347 . S
C445 H473 0.931 . S
C446 C445 1.347 . S
C446 C447 1.369 . S
C447 C446 1.369 . S
C447 C448 1.408 . S
C447 H474 0.930 . S
C448 C443 1.348 . S
C448 C447 1.408 . S
C448 H475 0.930 . S
C449 O462 1.273 1_655 S
C449 O463 1.265 . S
C450 O464 1.236 . S
C450 O465 1.266 . S
C451 Tb441 2.809 . S
C451 C452 1.514 . S
C451 O466 1.248 . S
C451 O467 1.266 . S
C452 C451 1.514 . S
C452 C453 1.359 . S
C452 C457 1.348 . S
C453 C452 1.359 . S
C453 C454 1.380 . S
C453 H476 0.929 . S
C454 C453 1.380 . S
C454 C455 1.347 . S
C454 H477 0.931 . S
C455 C454 1.347 . S
C455 C456 1.369 . S
C456 C455 1.369 . S
C456 C457 1.408 . S
C456 H478 0.930 . S
C457 C452 1.348 . S
C457 C456 1.408 . S
C457 H479 0.930 . S
C458 O468 1.269 1_455 S
C458 O469 1.272 . S
C459 O470 1.236 . S
C459 O471 1.266 . S
O460 Tb440 2.484 . S
O460 C442 1.248 . S
O461 Tb440 2.440 . S
O461 C442 1.266 . S
O462 Tb440 2.658 1_455 S
O462 Tb441 2.325 . S
O462 C449 1.273 1_455 S
O463 Tb440 2.409 . S
O463 C449 1.265 . S
O464 Tb440 2.378 . S
O464 C450 1.236 . S
O465 Tb441 2.341 1_655 S
O465 C450 1.266 . S
O466 Tb441 2.484 . S
O466 C451 1.248 . S
O467 Tb441 2.440 . S
O467 C451 1.266 . S
O468 Tb440 2.325 . S
O468 Tb441 2.658 1_655 S
O468 C458 1.269 1_655 S
O469 Tb441 2.409 . S
O469 C458 1.272 . S
O470 Tb441 2.378 . S
O470 C459 1.236 . S
O471 Tb440 2.341 1_455 S
O471 C459 1.266 . S
H472 C444 0.929 . S
H473 C445 0.931 . S
H474 C447 0.930 . S
H475 C448 0.930 . S
H476 C453 0.929 . S
H477 C454 0.931 . S
H478 C456 0.930 . S
H479 C457 0.930 . S
H480 C488 0.950 . S
H481 C493 0.950 . S
H482 C490 0.950 . S
H483 C492 0.950 . S
H484 C494 0.950 . S
H485 C496 0.950 . S
H486 C498 0.950 . S
H487 C499 0.950 . S
C488 H480 0.950 . S
C488 C489 1.382 1_545 S
C488 C490 1.391 . S
C489 C488 1.382 1_565 S
C489 C493 1.397 . S
C490 H482 0.950 . S
C490 C488 1.391 . S
C490 C491 1.400 1_545 S
C491 C490 1.400 1_565 S
C491 C492 1.398 . S
C491 C497 1.489 1_565 S
C492 H483 0.950 . S
C492 C491 1.398 . S
C492 C493 1.391 . S
C493 H481 0.950 . S
C493 C489 1.397 . S
C493 C492 1.391 . S
C494 H484 0.950 . S
C494 C495 1.386 1_565 S
C494 C496 1.391 . S
C495 C494 1.386 1_545 S
C495 C499 1.393 . S
C496 H485 0.950 . S
C496 C494 1.391 . S
C496 C497 1.397 1_565 S
C497 C491 1.489 1_545 S
C497 C496 1.397 1_545 S
C497 C498 1.405 . S
C498 H486 0.950 . S
C498 C497 1.405 . S
C498 C499 1.391 . S
C499 H487 0.950 . S
C499 C495 1.393 . S
C499 C498 1.391 . S
H500 C508 0.950 . S
H501 C513 0.950 . S
H502 C510 0.950 . S
H503 C512 0.950 . S
H504 C514 0.950 . S
H505 C516 0.950 . S
H506 C518 0.950 . S
H507 C519 0.950 . S
C508 H500 0.950 . S
C508 C509 1.386 . S
C508 C510 1.391 . S
C509 C508 1.386 . S
C509 C513 1.393 . S
C510 H502 0.950 . S
C510 C508 1.391 . S
C510 C511 1.400 . S
C511 C510 1.400 . S
C511 C512 1.398 . S
C511 C517 1.491 . S
C512 H503 0.950 . S
C512 C511 1.398 . S
C512 C513 1.391 . S
C513 H501 0.950 . S
C513 C509 1.393 . S
C513 C512 1.391 . S
C514 H504 0.950 . S
C514 C515 1.386 . S
C514 C516 1.391 . S
C515 C514 1.386 . S
C515 C519 1.393 . S
C516 H505 0.950 . S
C516 C514 1.391 . S
C516 C517 1.400 . S
C517 C511 1.491 . S
C517 C516 1.400 . S
C517 C518 1.398 . S
C518 H506 0.950 . S
C518 C517 1.398 . S
C518 C519 1.391 . S
C519 H507 0.950 . S
C519 C515 1.393 . S
C519 C518 1.391 . S
H520 C528 0.950 . S
H521 C533 0.950 . S
H522 C530 0.950 . S
H523 C532 0.950 . S
H524 C534 0.950 . S
H525 C536 0.950 . S
H526 C538 0.950 . S
H527 C539 0.950 . S
C528 H520 0.950 . S
C528 C529 1.386 . S
C528 C530 1.391 . S
C529 C528 1.386 . S
C529 C533 1.393 . S
C530 H522 0.950 . S
C530 C528 1.391 . S
C530 C531 1.400 . S
C531 C530 1.400 . S
C531 C532 1.398 . S
C531 C537 1.491 . S
C532 H523 0.950 . S
C532 C531 1.398 . S
C532 C533 1.391 . S
C533 H521 0.950 . S
C533 C529 1.393 . S
C533 C532 1.391 . S
C534 H524 0.950 . S
C534 C535 1.386 . S
C534 C536 1.391 . S
C535 C534 1.386 . S
C535 C539 1.393 . S
C536 H525 0.950 . S
C536 C534 1.391 . S
C536 C537 1.400 . S
C537 C531 1.491 . S
C537 C536 1.400 . S
C537 C538 1.398 . S
C538 H526 0.950 . S
C538 C537 1.398 . S
C538 C539 1.391 . S
C539 H527 0.950 . S
C539 C535 1.393 . S
C539 C538 1.391 . S
H540 C548 0.950 . S
H541 C553 0.950 . S
H542 C550 0.950 . S
H543 C552 0.950 . S
H544 C554 0.950 . S
H545 C556 0.950 . S
H546 C558 0.950 . S
H547 C559 0.950 . S
C548 H540 0.950 . S
C548 C549 1.378 1_455 S
C548 C550 1.391 . S
C549 C548 1.378 1_655 S
C549 C553 1.401 . S
C550 H542 0.950 . S
C550 C548 1.391 . S
C550 C551 1.401 . S
C551 C550 1.401 . S
C551 C552 1.397 1_455 S
C551 C557 1.491 . S
C552 H543 0.950 . S
C552 C551 1.397 1_655 S
C552 C553 1.391 . S
C553 H541 0.950 . S
C553 C549 1.401 . S
C553 C552 1.391 . S
C554 H544 0.950 . S
C554 C555 1.386 1_655 S
C554 C556 1.391 . S
C555 C554 1.386 1_455 S
C555 C559 1.393 . S
C556 H545 0.950 . S
C556 C554 1.391 . S
C556 C557 1.400 1_655 S
C557 C551 1.491 . S
C557 C556 1.400 1_455 S
C557 C558 1.398 . S
C558 H546 0.950 . S
C558 C557 1.398 . S
C558 C559 1.391 . S
C559 H547 0.950 . S
C559 C555 1.393 . S
C559 C558 1.391 . S
H560 C568 0.950 . S
H561 C573 0.950 . S
H562 C570 0.950 . S
H563 C572 0.950 . S
H564 C574 0.950 . S
H565 C576 0.950 1_554 S
H566 C578 0.950 . S
H567 C579 0.950 . S
C568 H560 0.950 . S
C568 C569 1.374 1_565 S
C568 C570 1.391 . S
C569 C568 1.374 1_545 S
C569 C573 1.406 . S
C570 H562 0.950 . S
C570 C568 1.391 . S
C570 C571 1.397 1_565 S
C571 C570 1.397 1_545 S
C571 C572 1.403 . S
C571 C577 1.490 1_544 S
C572 H563 0.950 . S
C572 C571 1.403 . S
C572 C573 1.391 . S
C573 H561 0.950 . S
C573 C569 1.406 . S
C573 C572 1.391 . S
C574 H564 0.950 . S
C574 C575 1.371 1_545 S
C574 C576 1.391 . S
C575 C574 1.371 1_565 S
C575 C579 1.410 . S
C576 H565 0.950 1_556 S
C576 C574 1.391 . S
C576 C577 1.393 1_545 S
C577 C571 1.490 1_566 S
C577 C576 1.393 1_565 S
C577 C578 1.407 . S
C578 H566 0.950 . S
C578 C577 1.407 . S
C578 C579 1.391 . S
C579 H567 0.950 . S
C579 C575 1.410 . S
C579 C578 1.391 . S
H580 C588 0.950 . S
H581 C593 0.950 . S
H582 C590 0.950 . S
H583 C592 0.950 . S
H584 C594 0.950 . S
H585 C596 0.950 . S
H586 C598 0.950 . S
H587 C599 0.950 . S
C588 H580 0.950 . S
C588 C589 1.386 . S
C588 C590 1.391 . S
C589 C588 1.386 . S
C589 C593 1.393 . S
C590 H582 0.950 . S
C590 C588 1.391 . S
C590 C591 1.400 . S
C591 C590 1.400 . S
C591 C592 1.398 . S
C591 C597 1.491 1_554 S
C592 H583 0.950 . S
C592 C591 1.398 . S
C592 C593 1.391 . S
C593 H581 0.950 . S
C593 C589 1.393 . S
C593 C592 1.391 . S
C594 H584 0.950 . S
C594 C595 1.386 . S
C594 C596 1.391 . S
C595 C594 1.386 . S
C595 C599 1.393 . S
C596 H585 0.950 . S
C596 C594 1.391 . S
C596 C597 1.400 . S
C597 C591 1.491 1_556 S
C597 C596 1.400 . S
C597 C598 1.398 . S
C598 H586 0.950 . S
C598 C597 1.398 . S
C598 C599 1.391 . S
C599 H587 0.950 . S
C599 C595 1.393 . S
C599 C598 1.391 . S
H600 C608 0.950 . S
H601 C613 0.950 . S
H602 C610 0.950 . S
H603 C612 0.950 . S
H604 C614 0.950 . S
H605 C616 0.950 . S
H606 C618 0.950 . S
H607 C619 0.950 . S
C608 H600 0.950 . S
C608 C609 1.386 . S
C608 C610 1.391 . S
C609 C608 1.386 . S
C609 C613 1.393 . S
C610 H602 0.950 . S
C610 C608 1.391 . S
C610 C611 1.400 . S
C611 C610 1.400 . S
C611 C612 1.398 . S
C611 C617 1.491 1_554 S
C612 H603 0.950 . S
C612 C611 1.398 . S
C612 C613 1.391 . S
C613 H601 0.950 . S
C613 C609 1.393 . S
C613 C612 1.391 . S
C614 H604 0.950 . S
C614 C615 1.386 . S
C614 C616 1.391 . S
C615 C614 1.386 . S
C615 C619 1.393 . S
C616 H605 0.950 . S
C616 C614 1.391 . S
C616 C617 1.400 . S
C617 C611 1.491 1_556 S
C617 C616 1.400 . S
C617 C618 1.398 . S
C618 H606 0.950 . S
C618 C617 1.398 . S
C618 C619 1.391 . S
C619 H607 0.950 . S
C619 C615 1.393 . S
C619 C618 1.391 . S
H620 C628 0.950 . S
H621 C633 0.950 . S
H622 C630 0.950 . S
H623 C632 0.950 . S
H624 C634 0.950 . S
H625 C636 0.950 . S
H626 C638 0.950 . S
H627 C639 0.950 . S
C628 H620 0.950 . S
C628 C629 1.392 . S
C628 C630 1.391 . S
C629 C628 1.392 . S
C629 C633 1.386 1_455 S
C630 H622 0.950 . S
C630 C628 1.391 . S
C630 C631 1.398 1_455 S
C631 C630 1.398 1_655 S
C631 C632 1.400 . S
C631 C637 1.490 1_554 S
C632 H623 0.950 . S
C632 C631 1.400 . S
C632 C633 1.391 . S
C633 H621 0.950 . S
C633 C629 1.386 1_655 S
C633 C632 1.391 . S
C634 H624 0.950 . S
C634 C635 1.386 . S
C634 C636 1.391 . S
C635 C634 1.386 . S
C635 C639 1.393 1_655 S
C636 H625 0.950 . S
C636 C634 1.391 . S
C636 C637 1.424 . S
C637 C631 1.490 1_556 S
C637 C636 1.424 . S
C637 C638 1.379 1_655 S
C638 H626 0.950 . S
C638 C637 1.379 1_455 S
C638 C639 1.391 . S
C639 H627 0.950 . S
C639 C635 1.393 1_455 S
C639 C638 1.391 . S
H640 C648 0.950 . S
H641 C653 0.950 . S
H642 C650 0.950 . S
H643 C652 0.950 . S
H644 C654 0.950 . S
H645 C656 0.950 . S
H646 C658 0.950 . S
H647 C659 0.950 . S
C648 H640 0.950 . S
C648 C649 1.386 . S
C648 C650 1.391 . S
C649 C648 1.386 . S
C649 C653 1.393 1_455 S
C650 H642 0.950 . S
C650 C648 1.391 . S
C650 C651 1.400 1_455 S
C651 C650 1.400 1_655 S
C651 C652 1.398 . S
C651 C657 1.491 . S
C652 H643 0.950 . S
C652 C651 1.398 . S
C652 C653 1.391 . S
C653 H641 0.950 . S
C653 C649 1.393 1_655 S
C653 C652 1.391 . S
C654 H644 0.950 . S
C654 C655 1.386 . S
C654 C656 1.391 . S
C655 C654 1.386 . S
C655 C659 1.393 . S
C656 H645 0.950 . S
C656 C654 1.391 . S
C656 C657 1.400 . S
C657 C651 1.491 . S
C657 C656 1.400 . S
C657 C658 1.398 . S
C658 H646 0.950 . S
C658 C657 1.398 . S
C658 C659 1.391 . S
C659 H647 0.950 . S
C659 C655 1.393 . S
C659 C658 1.391 . S
H660 C668 0.950 . S
H661 C673 0.950 . S
H662 C670 0.950 . S
H663 C672 0.950 . S
H664 C674 0.950 . S
H665 C676 0.950 . S
H666 C678 0.950 1_545 S
H667 C679 0.950 1_545 S
C668 H660 0.950 . S
C668 C669 1.386 . S
C668 C670 1.391 . S
C669 C668 1.386 . S
C669 C673 1.393 1_545 S
C670 H662 0.950 . S
C670 C668 1.391 . S
C670 C671 1.400 1_545 S
C671 C670 1.400 1_565 S
C671 C672 1.398 . S
C671 C677 1.491 . S
C672 H663 0.950 . S
C672 C671 1.398 . S
C672 C673 1.391 . S
C673 H661 0.950 . S
C673 C669 1.393 1_565 S
C673 C672 1.391 . S
C674 H664 0.950 . S
C674 C675 1.386 . S
C674 C676 1.391 . S
C675 C674 1.386 . S
C675 C679 1.393 . S
C676 H665 0.950 . S
C676 C674 1.391 . S
C676 C677 1.400 . S
C677 C671 1.491 . S
C677 C676 1.400 . S
C677 C678 1.398 . S
C678 H666 0.950 1_565 S
C678 C677 1.398 . S
C678 C679 1.391 . S
C679 H667 0.950 1_565 S
C679 C675 1.393 . S
C679 C678 1.391 . S
H680 C688 0.950 . S
H681 C693 0.950 . S
H682 C690 0.950 . S
H683 C692 0.950 . S
H684 C694 0.950 . S
H685 C696 0.950 . S
H686 C698 0.950 . S
H687 C699 0.950 . S
C688 H680 0.950 . S
C688 C689 1.386 . S
C688 C690 1.391 . S
C689 C688 1.386 . S
C689 C693 1.393 . S
C690 H682 0.950 . S
C690 C688 1.391 . S
C690 C691 1.400 . S
C691 C690 1.400 . S
C691 C692 1.398 . S
C691 C697 1.491 . S
C692 H683 0.950 . S
C692 C691 1.398 . S
C692 C693 1.391 . S
C693 H681 0.950 . S
C693 C689 1.393 . S
C693 C692 1.391 . S
C694 H684 0.950 . S
C694 C695 1.386 . S
C694 C696 1.391 . S
C695 C694 1.386 . S
C695 C699 1.393 . S
C696 H685 0.950 . S
C696 C694 1.391 . S
C696 C697 1.400 . S
C697 C691 1.491 . S
C697 C696 1.400 . S
C697 C698 1.398 . S
C698 H686 0.950 . S
C698 C697 1.398 . S
C698 C699 1.391 . S
C699 H687 0.950 . S
C699 C695 1.393 . S
C699 C698 1.391 . S
H700 C708 0.950 . S
H701 C713 0.950 . S
H702 C710 0.950 . S
H703 C712 0.950 . S
H704 C714 0.950 . S
H705 C716 0.950 . S
H706 C718 0.950 . S
H707 C719 0.950 . S
C708 H700 0.950 . S
C708 C709 1.386 . S
C708 C710 1.391 . S
C709 C708 1.386 . S
C709 C713 1.393 . S
C710 H702 0.950 . S
C710 C708 1.391 . S
C710 C711 1.400 . S
C711 C710 1.400 . S
C711 C712 1.398 . S
C711 C717 1.491 . S
C712 H703 0.950 . S
C712 C711 1.398 . S
C712 C713 1.391 . S
C713 H701 0.950 . S
C713 C709 1.393 . S
C713 C712 1.391 . S
C714 H704 0.950 . S
C714 C715 1.386 . S
C714 C716 1.391 . S
C715 C714 1.386 . S
C715 C719 1.393 . S
C716 H705 0.950 . S
C716 C714 1.391 . S
C716 C717 1.400 . S
C717 C711 1.491 . S
C717 C716 1.400 . S
C717 C718 1.398 . S
C718 H706 0.950 . S
C718 C717 1.398 . S
C718 C719 1.391 . S
C719 H707 0.950 . S
C719 C715 1.393 . S
C719 C718 1.391 . S
H720 C728 0.950 1_556 S
H721 C733 0.950 . S
H722 C730 0.950 . S
H723 C732 0.964 . S
H724 C734 0.953 . S
H725 C736 0.950 . S
H726 C738 0.950 . S
H727 C739 0.950 . S
C728 H720 0.950 1_554 S
C728 C729 1.386 1_455 S
C728 C730 1.391 1_554 S
C729 C728 1.386 1_655 S
C729 C733 1.393 . S
C730 H722 0.950 . S
C730 C728 1.391 1_556 S
C730 C731 1.400 1_556 S
C731 C730 1.400 1_554 S
C731 C732 1.372 1_455 S
C731 C737 1.491 1_554 S
C732 H723 0.964 . S
C732 C731 1.372 1_655 S
C732 C733 1.407 . S
C733 H721 0.950 . S
C733 C729 1.393 . S
C733 C732 1.407 . S
C734 H724 0.953 . S
C734 C735 1.386 . S
C734 C736 1.391 1_556 S
C735 C734 1.386 . S
C735 C739 1.393 . S
C736 H725 0.950 . S
C736 C734 1.391 1_554 S
C736 C737 1.400 1_554 S
C737 C731 1.491 1_556 S
C737 C736 1.400 1_556 S
C737 C738 1.398 . S
C738 H726 0.950 . S
C738 C737 1.398 . S
C738 C739 1.391 . S
C739 H727 0.950 . S
C739 C735 1.393 . S
C739 C738 1.391 . S
H740 C748 0.950 . S
H741 C753 0.947 1_556 S
H742 C750 0.950 . S
H743 C752 0.964 . S
H744 C754 0.950 . S
H745 C756 0.950 . S
H746 C758 0.950 . S
H747 C759 0.950 1_554 S
C748 H740 0.950 . S
C748 C749 1.386 1_545 S
C748 C750 1.391 . S
C749 C748 1.386 1_565 S
C749 C753 1.397 . S
C750 H742 0.950 . S
C750 C748 1.391 . S
C750 C751 1.400 . S
C751 C750 1.400 . S
C751 C752 1.373 1_544 S
C751 C757 1.491 1_554 S
C752 H743 0.964 . S
C752 C751 1.373 1_566 S
C752 C753 1.403 1_556 S
C753 H741 0.947 1_554 S
C753 C749 1.397 . S
C753 C752 1.403 1_554 S
C754 H744 0.950 . S
C754 C755 1.386 . S
C754 C756 1.391 . S
C755 C754 1.386 . S
C755 C759 1.393 . S
C756 H745 0.950 . S
C756 C754 1.391 . S
C756 C757 1.400 . S
C757 C751 1.491 1_556 S
C757 C756 1.400 . S
C757 C758 1.398 1_556 S
C758 H746 0.950 . S
C758 C757 1.398 1_554 S
C758 C759 1.391 1_554 S
C759 H747 0.950 1_556 S
C759 C755 1.393 . S
C759 C758 1.391 1_556 S
H760 C768 0.950 . S
H761 C773 0.950 . S
H762 C770 0.950 . S
H763 C772 0.950 . S
H764 C774 0.950 . S
H765 C776 0.950 1_554 S
H766 C778 0.950 . S
H767 C779 0.950 . S
C768 H760 0.950 . S
C768 C769 1.386 . S
C768 C770 1.391 1_554 S
C769 C768 1.386 . S
C769 C773 1.393 . S
C770 H762 0.950 . S
C770 C768 1.391 1_556 S
C770 C771 1.400 1_556 S
C771 C770 1.400 1_554 S
C771 C772 1.398 . S
C771 C777 1.491 1_554 S
C772 H763 0.950 . S
C772 C771 1.398 . S
C772 C773 1.391 . S
C773 H761 0.950 . S
C773 C769 1.393 . S
C773 C772 1.391 . S
C774 H764 0.950 . S
C774 C775 1.386 . S
C774 C776 1.391 . S
C775 C774 1.386 . S
C775 C779 1.393 . S
C776 H765 0.950 1_556 S
C776 C774 1.391 . S
C776 C777 1.400 . S
C777 C771 1.491 1_556 S
C777 C776 1.400 . S
C777 C778 1.398 . S
C778 H766 0.950 . S
C778 C777 1.398 . S
C778 C779 1.391 . S
C779 H767 0.950 . S
C779 C775 1.393 . S
C779 C778 1.391 . S
H780 C788 0.950 1_556 S
H781 C793 0.950 . S
H782 C790 0.950 . S
H783 C792 0.950 . S
H784 C794 0.950 . S
H785 C796 0.950 . S
H786 C798 0.950 . S
H787 C799 0.950 . S
C788 H780 0.950 1_554 S
C788 C789 1.386 . S
C788 C790 1.391 1_554 S
C789 C788 1.386 . S
C789 C793 1.393 . S
C790 H782 0.950 . S
C790 C788 1.391 1_556 S
C790 C791 1.400 1_556 S
C791 C790 1.400 1_554 S
C791 C792 1.398 . S
C791 C797 1.491 1_554 S
C792 H783 0.950 . S
C792 C791 1.398 . S
C792 C793 1.391 . S
C793 H781 0.950 . S
C793 C789 1.393 . S
C793 C792 1.391 . S
C794 H784 0.950 . S
C794 C795 1.386 . S
C794 C796 1.391 1_556 S
C795 C794 1.386 . S
C795 C799 1.393 . S
C796 H785 0.950 . S
C796 C794 1.391 1_554 S
C796 C797 1.400 1_554 S
C797 C791 1.491 1_556 S
C797 C796 1.400 1_556 S
C797 C798 1.398 . S
C798 H786 0.950 . S
C798 C797 1.398 . S
C798 C799 1.391 . S
C799 H787 0.950 . S
C799 C795 1.393 . S
C799 C798 1.391 . S
H800 C808 0.950 . S
H801 C813 0.950 . S
H802 C810 0.950 . S
H803 C812 0.950 . S
H804 C814 0.950 . S
H805 C816 0.950 . S
H806 C818 0.950 . S
H807 C819 0.950 . S
C808 H800 0.950 . S
C808 C809 1.386 1_655 S
C808 C810 1.391 . S
C809 C808 1.386 1_455 S
C809 C813 1.393 . S
C810 H802 0.950 . S
C810 C808 1.391 . S
C810 C811 1.400 1_655 S
C811 C810 1.400 1_455 S
C811 C812 1.398 . S
C811 C817 1.491 . S
C812 H803 0.950 . S
C812 C811 1.398 . S
C812 C813 1.391 . S
C813 H801 0.950 . S
C813 C809 1.393 . S
C813 C812 1.391 . S
C814 H804 0.950 . S
C814 C815 1.386 . S
C814 C816 1.391 . S
C815 C814 1.386 . S
C815 C819 1.393 1_455 S
C816 H805 0.950 . S
C816 C814 1.391 . S
C816 C817 1.400 . S
C817 C811 1.491 . S
C817 C816 1.400 . S
C817 C818 1.398 1_455 S
C818 H806 0.950 . S
C818 C817 1.398 1_655 S
C818 C819 1.391 . S
C819 H807 0.950 . S
C819 C815 1.393 1_655 S
C819 C818 1.391 . S
H820 C828 0.950 . S
H821 C833 0.950 . S
H822 C830 0.950 . S
H823 C832 0.950 . S
H824 C834 0.950 . S
H825 C836 0.950 . S
H826 C838 0.950 . S
H827 C839 0.950 . S
C828 H820 0.950 . S
C828 C829 1.386 . S
C828 C830 1.391 . S
C829 C828 1.386 . S
C829 C833 1.393 1_545 S
C830 H822 0.950 . S
C830 C828 1.391 . S
C830 C831 1.400 . S
C831 C830 1.400 . S
C831 C832 1.398 1_545 S
C831 C837 1.491 . S
C832 H823 0.950 . S
C832 C831 1.398 1_565 S
C832 C833 1.391 . S
C833 H821 0.950 . S
C833 C829 1.393 1_565 S
C833 C832 1.391 . S
C834 H824 0.950 . S
C834 C835 1.386 1_565 S
C834 C836 1.391 . S
C835 C834 1.386 1_545 S
C835 C839 1.393 . S
C836 H825 0.950 . S
C836 C834 1.391 . S
C836 C837 1.400 1_565 S
C837 C831 1.491 . S
C837 C836 1.400 1_545 S
C837 C838 1.398 . S
C838 H826 0.950 . S
C838 C837 1.398 . S
C838 C839 1.391 . S
C839 H827 0.950 . S
C839 C835 1.393 . S
C839 C838 1.391 . S
H840 C848 0.950 . S
H841 C853 0.950 . S
H842 C850 0.950 . S
H843 C852 0.950 . S
H844 C854 0.950 . S
H845 C856 0.950 . S
H846 C858 0.950 . S
H847 C859 0.950 . S
C848 H840 0.950 . S
C848 C849 1.386 . S
C848 C850 1.391 . S
C849 C848 1.386 . S
C849 C853 1.393 . S
C850 H842 0.950 . S
C850 C848 1.391 . S
C850 C851 1.400 . S
C851 C850 1.400 . S
C851 C852 1.398 . S
C851 C857 1.491 . S
C852 H843 0.950 . S
C852 C851 1.398 . S
C852 C853 1.391 . S
C853 H841 0.950 . S
C853 C849 1.393 . S
C853 C852 1.391 . S
C854 H844 0.950 . S
C854 C855 1.386 . S
C854 C856 1.391 . S
C855 C854 1.386 . S
C855 C859 1.393 . S
C856 H845 0.950 . S
C856 C854 1.391 . S
C856 C857 1.400 . S
C857 C851 1.491 . S
C857 C856 1.400 . S
C857 C858 1.398 . S
C858 H846 0.950 . S
C858 C857 1.398 . S
C858 C859 1.391 . S
C859 H847 0.950 . S
C859 C855 1.393 . S
C859 C858 1.391 . S
H860 C868 0.950 . S
H861 C873 0.950 . S
H862 C870 0.950 . S
H863 C872 0.950 . S
H864 C874 0.950 . S
H865 C876 0.950 . S
H866 C878 0.950 . S
H867 C879 0.950 . S
C868 H860 0.950 . S
C868 C869 1.386 . S
C868 C870 1.391 . S
C869 C868 1.386 . S
C869 C873 1.393 . S
C870 H862 0.950 . S
C870 C868 1.391 . S
C870 C871 1.400 . S
C871 C870 1.400 . S
C871 C872 1.398 . S
C871 C877 1.491 . S
C872 H863 0.950 . S
C872 C871 1.398 . S
C872 C873 1.391 . S
C873 H861 0.950 . S
C873 C869 1.393 . S
C873 C872 1.391 . S
C874 H864 0.950 . S
C874 C875 1.386 . S
C874 C876 1.391 . S
C875 C874 1.386 . S
C875 C879 1.393 . S
C876 H865 0.950 . S
C876 C874 1.391 . S
C876 C877 1.400 . S
C877 C871 1.491 . S
C877 C876 1.400 . S
C877 C878 1.398 . S
C878 H866 0.950 . S
C878 C877 1.398 . S
C878 C879 1.391 . S
C879 H867 0.950 . S
C879 C875 1.393 . S
C879 C878 1.391 . S
H880 C888 0.950 . S
H881 C893 0.950 . S
H882 C890 0.950 . S
H883 C892 0.950 . S
H884 C894 0.950 . S
H885 C896 0.950 . S
H886 C898 0.950 . S
H887 C899 0.974 . S
C888 H880 0.950 . S
C888 C889 1.386 1_455 S
C888 C890 1.391 . S
C889 C888 1.386 1_655 S
C889 C893 1.393 . S
C890 H882 0.950 . S
C890 C888 1.391 . S
C890 C891 1.400 1_455 S
C891 C890 1.400 1_655 S
C891 C892 1.398 . S
C891 C897 1.491 . S
C892 H883 0.950 . S
C892 C891 1.398 . S
C892 C893 1.391 . S
C893 H881 0.950 . S
C893 C889 1.393 . S
C893 C892 1.391 . S
C894 H884 0.950 . S
C894 C895 1.386 . S
C894 C896 1.391 . S
C895 C894 1.386 . S
C895 C899 1.369 1_655 S
C896 H885 0.950 . S
C896 C894 1.391 . S
C896 C897 1.400 . S
C897 C891 1.491 . S
C897 C896 1.400 . S
C897 C898 1.398 1_655 S
C898 H886 0.950 . S
C898 C897 1.398 1_455 S
C898 C899 1.394 . S
C899 H887 0.974 . S
C899 C895 1.369 1_455 S
C899 C898 1.394 . S
H900 C908 0.950 . S
H901 C913 0.950 . S
H902 C910 0.950 . S
H903 C912 0.950 . S
H904 C914 0.950 . S
H905 C916 0.950 . S
H906 C918 0.950 . S
H907 C919 0.950 . S
C908 H900 0.950 . S
C908 C909 1.386 . S
C908 C910 1.391 . S
C909 C908 1.386 . S
C909 C913 1.393 1_565 S
C910 H902 0.950 . S
C910 C908 1.391 . S
C910 C911 1.400 . S
C911 C910 1.400 . S
C911 C912 1.398 1_565 S
C911 C917 1.491 . S
C912 H903 0.950 . S
C912 C911 1.398 1_545 S
C912 C913 1.391 . S
C913 H901 0.950 . S
C913 C909 1.393 1_545 S
C913 C912 1.391 . S
C914 H904 0.950 . S
C914 C915 1.386 1_545 S
C914 C916 1.391 . S
C915 C914 1.386 1_565 S
C915 C919 1.393 . S
C916 H905 0.950 . S
C916 C914 1.391 . S
C916 C917 1.400 1_545 S
C917 C911 1.491 . S
C917 C916 1.400 1_565 S
C917 C918 1.398 . S
C918 H906 0.950 . S
C918 C917 1.398 . S
C918 C919 1.391 . S
C919 H907 0.950 . S
C919 C915 1.393 . S
C919 C918 1.391 . S
H920 C928 0.950 . S
H921 C933 0.950 . S
H922 C930 0.950 . S
H923 C932 0.950 . S
H924 C934 0.950 . S
H925 C936 0.950 . S
H926 C938 0.950 . S
H927 C939 0.950 . S
C928 H920 0.950 . S
C928 C929 1.386 . S
C928 C930 1.391 . S
C929 C928 1.386 . S
C929 C933 1.393 . S
C930 H922 0.950 . S
C930 C928 1.391 . S
C930 C931 1.400 . S
C931 C930 1.400 . S
C931 C932 1.398 . S
C931 C937 1.491 . S
C932 H923 0.950 . S
C932 C931 1.398 . S
C932 C933 1.391 . S
C933 H921 0.950 . S
C933 C929 1.393 . S
C933 C932 1.391 . S
C934 H924 0.950 . S
C934 C935 1.386 . S
C934 C936 1.391 . S
C935 C934 1.386 . S
C935 C939 1.393 . S
C936 H925 0.950 . S
C936 C934 1.391 . S
C936 C937 1.400 . S
C937 C931 1.491 . S
C937 C936 1.400 . S
C937 C938 1.398 . S
C938 H926 0.950 . S
C938 C937 1.398 . S
C938 C939 1.391 . S
C939 H927 0.950 . S
C939 C935 1.393 . S
C939 C938 1.391 . S
H940 C948 0.950 . S
H941 C953 0.950 . S
H942 C950 0.950 . S
H943 C952 0.950 . S
H944 C954 0.950 . S
H945 C956 0.950 . S
H946 C958 0.950 . S
H947 C959 0.950 . S
C948 H940 0.950 . S
C948 C949 1.386 . S
C948 C950 1.391 . S
C949 C948 1.386 . S
C949 C953 1.393 . S
C950 H942 0.950 . S
C950 C948 1.391 . S
C950 C951 1.400 . S
C951 C950 1.400 . S
C951 C952 1.398 . S
C951 C957 1.491 . S
C952 H943 0.950 . S
C952 C951 1.398 . S
C952 C953 1.391 . S
C953 H941 0.950 . S
C953 C949 1.393 . S
C953 C952 1.391 . S
C954 H944 0.950 . S
C954 C955 1.386 . S
C954 C956 1.391 . S
C955 C954 1.386 . S
C955 C959 1.393 . S
C956 H945 0.950 . S
C956 C954 1.391 . S
C956 C957 1.400 . S
C957 C951 1.491 . S
C957 C956 1.400 . S
C957 C958 1.398 . S
C958 H946 0.950 . S
C958 C957 1.398 . S
C958 C959 1.391 . S
C959 H947 0.950 . S
C959 C955 1.393 . S
C959 C958 1.391 . S
C489 C255 2.226 1_565 S
C495 C329 2.432 1_545 S
C515 C369 2.449 . S
C509 C295 2.248 . S
C535 C409 2.453 . S
C529 C175 2.250 . S
C555 C449 2.437 1_455 S
C549 C215 2.233 1_655 S
C575 C338 2.433 1_565 S
C569 C95 2.227 . S
C589 C135 2.234 . S
C595 C378 2.452 . S
C609 C15 2.232 . S
C615 C418 2.449 . S
C629 C55 2.237 . S
C635 C458 2.437 1_655 S
C655 C335 0.438 . S
C649 C221 0.411 . S
C675 C375 0.416 . S
C669 C261 0.433 . S
C695 C415 0.394 . S
C689 C301 0.432 . S
C709 C181 0.421 . S
C715 C455 0.380 . S
C729 C61 0.534 1_655 S
C735 C326 0.438 . S
C755 C366 0.383 . S
C749 C101 0.476 1_565 S
C775 C406 0.430 . S
C769 C141 0.523 . S
C789 C21 0.520 . S
C795 C446 0.433 . S
C809 C202 3.156 . S
C815 C339 3.485 . S
C829 C242 3.116 . S
C835 C379 3.466 . S
C855 C419 3.451 . S
C849 C282 3.094 . S
C875 C459 3.481 . S
C869 C162 3.121 . S
C889 C42 3.153 1_655 S
C895 C330 3.499 . S
C915 C370 3.465 . S
C909 C82 3.144 1_565 S
C935 C410 3.454 . S
C929 C122 3.138 . S
C949 C2 3.164 . S
C955 C450 3.484 . S
