# Generated by pormake.
# Topology pyr, (3,6)-cn, num edge types: 1
# Building blocks:
#     Node 0, Type 0, BuildingBlock: OLANEW_clean_sbu_2, # of connection points: 3
#     Node 1, Type 0, BuildingBlock: OLANEW_clean_sbu_2, # of connection points: 3
#     Node 2, Type 0, BuildingBlock: OLANEW_clean_sbu_2, # of connection points: 3
#     Node 3, Type 0, BuildingBlock: OLANEW_clean_sbu_2, # of connection points: 3
#     Node 4, Type 0, BuildingBlock: OLANEW_clean_sbu_2, # of connection points: 3
#     Node 5, Type 0, BuildingBlock: OLANEW_clean_sbu_2, # of connection points: 3
#     Node 6, Type 0, BuildingBlock: OLANEW_clean_sbu_2, # of connection points: 3
#     Node 7, Type 0, BuildingBlock: OLANEW_clean_sbu_2, # of connection points: 3
#     Node 8, Type 1, BuildingBlock: BETFAJ_clean_sbu_0, # of connection points: 6
#     Node 9, Type 1, BuildingBlock: BETFAJ_clean_sbu_0, # of connection points: 6
#     Node 10, Type 1, BuildingBlock: BETFAJ_clean_sbu_0, # of connection points: 6
#     Node 11, Type 1, BuildingBlock: BETFAJ_clean_sbu_0, # of connection points: 6
#     Edge 12, Type (0, 1), BuildingBlock: XIVTED_clean_linker_0, # of connection points: 2
#     Edge 13, Type (0, 1), BuildingBlock: XIVTED_clean_linker_0, # of connection points: 2
#     Edge 14, Type (0, 1), BuildingBlock: XIVTED_clean_linker_0, # of connection points: 2
#     Edge 15, Type (0, 1), BuildingBlock: XIVTED_clean_linker_0, # of connection points: 2
#     Edge 16, Type (0, 1), BuildingBlock: XIVTED_clean_linker_0, # of connection points: 2
#     Edge 17, Type (0, 1), BuildingBlock: XIVTED_clean_linker_0, # of connection points: 2
#     Edge 18, Type (0, 1), BuildingBlock: XIVTED_clean_linker_0, # of connection points: 2
#     Edge 19, Type (0, 1), BuildingBlock: XIVTED_clean_linker_0, # of connection points: 2
#     Edge 20, Type (0, 1), BuildingBlock: XIVTED_clean_linker_0, # of connection points: 2
#     Edge 21, Type (0, 1), BuildingBlock: XIVTED_clean_linker_0, # of connection points: 2
#     Edge 22, Type (0, 1), BuildingBlock: XIVTED_clean_linker_0, # of connection points: 2
#     Edge 23, Type (0, 1), BuildingBlock: XIVTED_clean_linker_0, # of connection points: 2
#     Edge 24, Type (0, 1), BuildingBlock: XIVTED_clean_linker_0, # of connection points: 2
#     Edge 25, Type (0, 1), BuildingBlock: XIVTED_clean_linker_0, # of connection points: 2
#     Edge 26, Type (0, 1), BuildingBlock: XIVTED_clean_linker_0, # of connection points: 2
#     Edge 27, Type (0, 1), BuildingBlock: XIVTED_clean_linker_0, # of connection points: 2
#     Edge 28, Type (0, 1), BuildingBlock: XIVTED_clean_linker_0, # of connection points: 2
#     Edge 29, Type (0, 1), BuildingBlock: XIVTED_clean_linker_0, # of connection points: 2
#     Edge 30, Type (0, 1), BuildingBlock: XIVTED_clean_linker_0, # of connection points: 2
#     Edge 31, Type (0, 1), BuildingBlock: XIVTED_clean_linker_0, # of connection points: 2
#     Edge 32, Type (0, 1), BuildingBlock: XIVTED_clean_linker_0, # of connection points: 2
#     Edge 33, Type (0, 1), BuildingBlock: XIVTED_clean_linker_0, # of connection points: 2
#     Edge 34, Type (0, 1), BuildingBlock: XIVTED_clean_linker_0, # of connection points: 2
#     Edge 35, Type (0, 1), BuildingBlock: XIVTED_clean_linker_0, # of connection points: 2
# Relax obj value: 0.127
# Max RMSD: 0.168
# Mean RMSD: 0.121
data_MOF--net-pyr--node1-OLANEW_clean_sbu_2--node2-BETFAJ_clean_sbu_0--edge1-XIVTED_clean_linker_0
_symmetry_space_group_name_H-M    P1
_symmetry_Int_Tables_number       1
_symmetry_cell_setting            triclinic
loop_
_symmetry_equiv_pos_as_xyz
'x, y, z'
_cell_length_a     40.732028
_cell_length_b     45.28256
_cell_length_c     39.857865
_cell_angle_alpha  95.981127
_cell_angle_beta   88.004083
_cell_angle_gamma 103.31036
loop_
_atom_site_label
_atom_site_type_symbol
_atom_site_fract_x
_atom_site_fract_y
_atom_site_fract_z
_atom_type_partial_charge
O0 O 0.37325 0.27312 0.17585 0.0
Cd1 Cd 0.36524 0.32411 0.19644 0.0
O2 O 0.37244 0.26858 0.22981 0.0
Cd3 Cd 0.36973 0.24471 0.27475 0.0
O4 O 0.34154 0.22697 0.31826 0.0
C5 C 0.32006 0.24158 0.33062 0.0
O6 O 0.31765 0.26644 0.31752 0.0
C7 C 0.3759 0.25729 0.19971 0.0
C8 C 0.31039 0.34311 0.17303 0.0
O9 O 0.33921 0.3489 0.15808 0.0
O10 O 0.30712 0.32734 0.19836 0.0
O11 O 0.33043 0.93071 0.65757 0.0
Cd12 Cd 0.31303 0.91579 0.59932 0.0
O13 O 0.29087 0.89137 0.66874 0.0
Cd14 Cd 0.25211 0.86434 0.69921 0.0
O15 O 0.20107 0.86832 0.69127 0.0
C16 C 0.19452 0.89368 0.70229 0.0
O17 O 0.21671 0.91327 0.72148 0.0
C18 C 0.31411 0.91408 0.67912 0.0
C19 C 0.33324 0.86225 0.57937 0.0
O20 O 0.30399 0.86146 0.59267 0.0
O21 O 0.35221 0.88829 0.57452 0.0
O22 O 0.71217 0.40637 0.86266 0.0
Cd23 Cd 0.6616 0.3945 0.82423 0.0
O24 O 0.69876 0.3663 0.89169 0.0
Cd25 Cd 0.68957 0.32778 0.92505 0.0
O26 O 0.66551 0.28379 0.94733 0.0
C27 C 0.63431 0.27786 0.95583 0.0
O28 O 0.61675 0.29822 0.95194 0.0
C29 C 0.71935 0.3914 0.88598 0.0
C30 C 0.64778 0.43061 0.77377 0.0
O31 O 0.63992 0.436 0.8049 0.0
O32 O 0.66404 0.40961 0.76654 0.0
O33 O 0.92087 0.74688 0.37142 0.0
Cd34 Cd 0.89029 0.69908 0.33918 0.0
O35 O 0.89697 0.73221 0.41932 0.0
Cd36 Cd 0.86565 0.68772 0.40271 0.0
O37 O 0.82143 0.65709 0.42224 0.0
C38 C 0.79263 0.65348 0.40912 0.0
O39 O 0.7901 0.66654 0.38169 0.0
C40 C 0.9165 0.7521 0.40315 0.0
C41 C 0.91944 0.66857 0.28475 0.0
O42 O 0.90803 0.69209 0.28073 0.0
O43 O 0.91884 0.66047 0.3147 0.0
O44 O 0.6937 0.74542 0.77135 0.0
Cd45 Cd 0.66371 0.69953 0.79488 0.0
O46 O 0.67826 0.77406 0.814 0.0
Cd47 Cd 0.67384 0.81697 0.84281 0.0
O48 O 0.65805 0.85385 0.87439 0.0
C49 C 0.63095 0.86099 0.86702 0.0
O50 O 0.61418 0.84662 0.84029 0.0
C51 C 0.69494 0.77167 0.78667 0.0
C52 C 0.71077 0.68004 0.83045 0.0
O53 O 0.70601 0.67141 0.799 0.0
O54 O 0.69261 0.69727 0.84524 0.0
O55 O 0.72066 0.17823 0.46733 0.0
Cd56 Cd 0.7453 0.19368 0.52262 0.0
O57 O 0.76873 0.19689 0.44208 0.0
Cd58 Cd 0.78325 0.2289 0.48656 0.0
O59 O 0.75634 0.26421 0.50356 0.0
C60 C 0.73436 0.2651 0.48204 0.0
O61 O 0.732 0.24654 0.45418 0.0
C62 C 0.73868 0.18079 0.44063 0.0
C63 C 0.78985 0.15636 0.52794 0.0
O64 O 0.75906 0.14838 0.53771 0.0
O65 O 0.79987 0.18253 0.51684 0.0
O66 O 0.41601 0.78247 0.23896 0.0
Cd67 Cd 0.39859 0.73214 0.26562 0.0
O68 O 0.37662 0.77346 0.19933 0.0
Cd69 Cd 0.34167 0.72795 0.19816 0.0
O70 O 0.29741 0.69291 0.17731 0.0
C71 C 0.28306 0.69883 0.1517 0.0
O72 O 0.2953 0.7249 0.13913 0.0
C73 C 0.40216 0.79105 0.21429 0.0
C74 C 0.42894 0.70763 0.31735 0.0
O75 O 0.43652 0.70282 0.28603 0.0
O76 O 0.40918 0.72576 0.32476 0.0
O77 O 0.16584 0.4282 0.76309 0.0
Cd78 Cd 0.19473 0.40277 0.71696 0.0
O79 O 0.13161 0.3855 0.77644 0.0
Cd80 Cd 0.14414 0.35213 0.73695 0.0
O81 O 0.13419 0.30662 0.70867 0.0
C82 C 0.11366 0.28555 0.72241 0.0
O83 O 0.10058 0.29223 0.75205 0.0
C84 C 0.14254 0.41427 0.78181 0.0
C85 C 0.25155 0.43815 0.68595 0.0
O86 O 0.22192 0.43435 0.67391 0.0
O87 O 0.25428 0.42615 0.71316 0.0
Sm88 Sm 0.02393 0.02661 0.53649 0.0
Sm89 Sm 0.98796 1.00614 0.5999 0.0
C90 C 0.05056 0.05342 0.48316 0.0
C91 C 0.07699 0.08014 0.47706 0.0
C92 C 0.07625 0.09403 0.44751 0.0
C93 C 0.10328 0.11721 0.43921 0.0
C94 C 0.13141 0.1266 0.4604 0.0
C95 C 0.13134 0.11358 0.49087 0.0
C96 C 0.10415 0.09056 0.49928 0.0
C97 C 0.05625 0.99418 0.57316 0.0
C98 C 0.03636 0.07534 0.60353 0.0
C99 C 0.96601 0.98968 0.65962 0.0
C100 C 0.93677 0.96862 0.67296 0.0
C101 C 0.92702 0.93816 0.65909 0.0
C102 C 0.89866 0.91878 0.67171 0.0
C103 C 0.87934 0.92965 0.69806 0.0
C104 C 0.88909 0.96023 0.71168 0.0
C105 C 0.91764 0.9795 0.69927 0.0
C106 C 0.94699 0.02244 0.55517 0.0
C107 C 0.98008 0.95885 0.53247 0.0
O108 O 0.02299 0.05854 0.49795 0.0
O109 O 0.0609 0.03119 0.4946 0.0
O110 O 0.04224 0.01498 0.5849 0.0
O111 O 0.05408 0.98969 0.5406 0.0
O112 O 0.04521 0.06957 0.57181 0.0
O113 O 0.015 0.0549 0.61969 0.0
O114 O 0.98808 0.97758 0.64167 0.0
O115 O 0.95945 0.0133 0.64719 0.0
O116 O 0.97683 0.03617 0.56222 0.0
O117 O 0.9376 0.99905 0.57235 0.0
O118 O 0.98417 0.96111 0.56551 0.0
O119 O 0.98642 0.9834 0.5161 0.0
H120 H 0.05535 0.08619 0.43025 0.0
H121 H 0.1029 0.12669 0.41541 0.0
H122 H 0.15264 0.12071 0.50773 0.0
H123 H 0.10487 0.08017 0.52246 0.0
H124 H 0.9412 0.92929 0.63851 0.0
H125 H 0.89209 0.89522 0.66102 0.0
H126 H 0.87442 0.9694 0.7316 0.0
H127 H 0.92461 1.00305 0.71 0.0
Sm128 Sm 0.5272 0.04732 0.09654 0.0
Sm129 Sm 0.46341 0.02642 0.05753 0.0
C130 C 0.58435 0.08129 0.12083 0.0
C131 C 0.59988 0.0906 0.15385 0.0
C132 C 0.61989 0.12009 0.16014 0.0
C133 C 0.63482 0.12968 0.19148 0.0
C134 C 0.63001 0.10978 0.21693 0.0
C135 C 0.60951 0.08028 0.21065 0.0
C136 C 0.59439 0.07077 0.17933 0.0
C137 C 0.49103 0.99754 0.12741 0.0
C138 C 0.4599 0.07136 0.12283 0.0
C139 C 0.40895 0.99754 0.02331 0.0
C140 C 0.40009 0.9881 0.98803 0.0
C141 C 0.3692 0.96788 0.98031 0.0
C142 C 0.35977 0.95939 0.94678 0.0
C143 C 0.38117 0.97108 0.92051 0.0
C144 C 0.41244 0.99108 0.92843 0.0
C145 C 0.42188 0.99951 0.96201 0.0
C146 C 0.50311 0.08155 0.0413 0.0
C147 C 0.52961 1.00166 0.02819 0.0
O148 O 0.55826 0.09242 0.11549 0.0
O149 O 0.58067 0.05253 0.10945 0.0
O150 O 0.48099 1.00785 0.10225 0.0
O151 O 0.51982 0.01425 0.13749 0.0
O152 O 0.49308 0.07849 0.1201 0.0
O153 O 0.44215 0.04671 0.10595 0.0
O154 O 0.42935 0.98343 0.03624 0.0
O155 O 0.41626 0.0269 0.03189 0.0
O156 O 0.51354 0.05812 0.04575 0.0
O157 O 0.47058 0.07602 0.04438 0.0
O158 O 0.49734 1.00079 0.02451 0.0
O159 O 0.54726 0.01877 0.05311 0.0
H160 H 0.6239 0.13573 0.1408 0.0
H161 H 0.64995 0.15273 0.19584 0.0
H162 H 0.6056 0.06438 0.22971 0.0
H163 H 0.57864 0.04797 0.17499 0.0
H164 H 0.3522 0.95896 1.00025 0.0
H165 H 0.3354 0.94422 0.94145 0.0
H166 H 0.42963 1.00011 0.90868 0.0
H167 H 0.44597 0.01506 0.96771 0.0
Sm168 Sm 0.51974 0.53071 0.52065 0.0
Sm169 Sm 0.51901 0.58292 0.57217 0.0
C170 C 0.53603 0.48569 0.4811 0.0
C171 C 0.55443 0.46195 0.48566 0.0
C172 C 0.58896 0.46958 0.49344 0.0
C173 C 0.60602 0.44678 0.49738 0.0
C174 C 0.5889 0.41593 0.49385 0.0
C175 C 0.55422 0.40842 0.48675 0.0
C176 C 0.53721 0.43121 0.48254 0.0
C177 C 0.4593 0.52666 0.5547 0.0
C178 C 0.55022 0.5306 0.59741 0.0
C179 C 0.50057 0.62653 0.61198 0.0
C180 C 0.48058 0.64851 0.606 0.0
C181 C 0.45172 0.63966 0.58571 0.0
C182 C 0.43404 0.66115 0.57853 0.0
C183 C 0.44523 0.6918 0.59113 0.0
C184 C 0.47403 0.70057 0.61147 0.0
C185 C 0.49154 0.67903 0.61889 0.0
C186 C 0.57938 0.58638 0.53855 0.0
C187 C 0.49338 0.58594 0.49439 0.0
O188 O 0.55374 0.51383 0.48269 0.0
O189 O 0.50673 0.48312 0.4964 0.0
O190 O 0.48811 0.53477 0.56783 0.0
O191 O 0.4616 0.52015 0.5223 0.0
O192 O 0.55022 0.52025 0.56503 0.0
O193 O 0.53614 0.5534 0.60781 0.0
O194 O 0.48419 0.59795 0.6105 0.0
O195 O 0.53001 0.6304 0.59678 0.0
O196 O 0.55065 0.57856 0.52541 0.0
O197 O 0.57729 0.59407 0.57077 0.0
O198 O 0.49153 0.59522 0.52689 0.0
O199 O 0.50643 0.56234 0.48437 0.0
H200 H 0.60297 0.49311 0.49619 0.0
H201 H 0.63283 0.45332 0.50233 0.0
H202 H 0.54018 0.3849 0.48435 0.0
H203 H 0.51056 0.4248 0.47679 0.0
H204 H 0.4431 0.61626 0.57497 0.0
H205 H 0.41211 0.65395 0.5625 0.0
H206 H 0.48293 0.72409 0.62169 0.0
H207 H 0.5139 0.68625 0.63432 0.0
Sm208 Sm 0.01064 0.49766 0.04162 0.0
Sm209 Sm 0.99841 0.55857 0.01506 0.0
C210 C 0.03631 0.4514 0.05425 0.0
C211 C 0.06658 0.44527 0.06909 0.0
C212 C 0.0961 0.44536 0.04968 0.0
C213 C 0.12353 0.437 0.06298 0.0
C214 C 0.12212 0.42833 0.09598 0.0
C215 C 0.09287 0.42893 0.11561 0.0
C216 C 0.06538 0.43718 0.10226 0.0
C217 C 0.97928 0.53358 0.08599 0.0
C218 C 0.0704 0.56285 0.05133 0.0
C219 C 0.97237 0.60635 0.0128 0.0
C220 C 0.94555 0.614 0.99375 0.0
C221 C 0.91149 0.60436 1.00331 0.0
C222 C 0.88616 0.61169 0.98546 0.0
C223 C 0.8943 0.62886 0.95776 0.0
C224 C 0.92827 0.63845 0.94808 0.0
C225 C 0.9537 0.63119 0.96602 0.0
C226 C 0.02463 0.52445 0.96355 0.0
C227 C 0.94068 0.49305 1.00147 0.0
O228 O 0.04007 0.46311 0.0253 0.0
O229 O 0.01536 0.46247 0.07483 0.0
O230 O 1.0032 0.54281 0.06598 0.0
O231 O 0.97176 0.5039 0.08405 0.0
O232 O 0.06153 0.53294 0.05364 0.0
O233 O 0.05013 0.57802 0.03902 0.0
O234 O 0.96234 0.58594 0.03429 0.0
O235 O 1.00003 0.60334 0.99617 0.0
O236 O 0.01678 0.51823 0.99321 0.0
O237 O 0.01835 0.55084 0.95991 0.0
O238 O 0.94797 0.5233 1.00448 0.0
O239 O 0.96194 0.47735 0.01098 0.0
H240 H 0.09778 0.45119 0.0239 0.0
H241 H 0.14542 0.43635 0.04694 0.0
H242 H 0.09107 0.42281 0.14127 0.0
H243 H 0.04293 0.4367 0.11778 0.0
H244 H 0.90425 0.59111 0.02458 0.0
H245 H 0.86014 0.60365 0.99318 0.0
H246 H 0.93522 0.65198 0.92698 0.0
H247 H 0.97972 0.6391 0.95826 0.0
H248 H 0.2662 0.26331 0.35646 0.0
H249 H 0.19643 0.12086 0.4617 0.0
H250 H 0.31815 0.19114 0.36367 0.0
H251 H 0.13523 0.1799 0.43257 0.0
H252 H 0.24567 0.15272 0.43622 0.0
H253 H 0.22245 0.23896 0.39456 0.0
C254 C 0.26863 0.24254 0.36634 0.0
C255 C 0.29566 0.22903 0.35657 0.0
C256 C 0.22154 0.15889 0.43575 0.0
C257 C 0.24572 0.20114 0.40006 0.0
C258 C 0.19354 0.1409 0.45051 0.0
C259 C 0.16182 0.14782 0.44906 0.0
C260 C 0.2177 0.18393 0.41956 0.0
C261 C 0.15926 0.17371 0.43385 0.0
C262 C 0.2436 0.22864 0.38802 0.0
C263 C 0.29758 0.20219 0.37031 0.0
N264 N 0.18686 0.19077 0.41946 0.0
N265 N 0.27276 0.18897 0.3912 0.0
H266 H 0.30331 0.8763 0.72995 0.0
H267 H 0.3882 1.00867 0.87012 0.0
H268 H 0.34297 0.96989 0.71043 0.0
H269 H 0.34965 0.91506 0.89031 0.0
H270 H 0.37042 0.99492 0.81169 0.0
H271 H 0.31775 0.89024 0.78933 0.0
C272 C 0.31434 0.8999 0.73826 0.0
C273 C 0.32131 0.9221 0.71535 0.0
C274 C 0.36582 0.97736 0.82888 0.0
C275 C 0.33898 0.93801 0.78297 0.0
C276 C 0.37619 0.98516 0.86217 0.0
C277 C 0.37056 0.96293 0.88502 0.0
C278 C 0.3497 0.94709 0.81832 0.0
C279 C 0.35423 0.93295 0.87356 0.0
C280 C 0.32301 0.90777 0.7721 0.0
C281 C 0.33706 0.95207 0.72728 0.0
N282 N 0.34443 0.92588 0.84095 0.0
N283 N 0.34537 0.95915 0.76026 0.0
H284 H 0.65371 0.41981 0.70459 0.0
H285 H 0.55326 0.54554 0.66576 0.0
H286 H 0.61502 0.47773 0.78129 0.0
H287 H 0.58348 0.4834 0.58764 0.0
H288 H 0.57837 0.52232 0.70771 0.0
H289 H 0.63116 0.44413 0.66116 0.0
C290 C 0.64077 0.43781 0.71238 0.0
C291 C 0.63644 0.44671 0.74686 0.0
C292 C 0.5796 0.51369 0.68143 0.0
C293 C 0.61029 0.47464 0.69699 0.0
C294 C 0.56522 0.52701 0.65731 0.0
C295 C 0.5661 0.51647 0.62291 0.0
C296 C 0.59523 0.48954 0.6714 0.0
C297 C 0.58209 0.49232 0.6138 0.0
C298 C 0.62776 0.45161 0.68749 0.0
C299 C 0.61914 0.47006 0.75518 0.0
N300 N 0.59599 0.47969 0.63785 0.0
N301 N 0.60677 0.4831 0.73055 0.0
H302 H 0.93662 0.68485 0.22079 0.0
H303 H 0.94206 0.51654 0.14216 0.0
H304 H 0.92684 0.60972 0.28148 0.0
H305 H 0.99352 0.59612 0.09486 0.0
H306 H 0.92873 0.54986 0.19073 0.0
H307 H 0.95094 0.65237 0.1718 0.0
C308 C 0.93767 0.6616 0.22388 0.0
C309 C 0.93064 0.65006 0.25539 0.0
C310 C 0.9428 0.56002 0.16963 0.0
C311 C 0.94626 0.6126 0.19923 0.0
C312 C 0.95022 0.54102 0.14181 0.0
C313 C 0.96878 0.55354 0.11432 0.0
C314 C 0.95349 0.59184 0.16979 0.0
C315 C 0.97891 0.58548 0.11537 0.0
C316 C 0.94584 0.6431 0.19591 0.0
C317 C 0.93229 0.61969 0.25781 0.0
N318 N 0.97101 0.60353 0.14255 0.0
N319 N 0.93959 0.60197 0.23009 0.0
H320 H 0.414 0.2308 0.23712 0.0
H321 H 0.39684 0.07915 0.11059 0.0
H322 H 0.3569 0.21528 0.14532 0.0
H323 H 0.48396 0.1164 0.17304 0.0
H324 H 0.37275 0.12237 0.13227 0.0
H325 H 0.43061 0.18235 0.22266 0.0
C326 C 0.4043 0.21686 0.21432 0.0
C327 C 0.38371 0.22689 0.19256 0.0
C328 C 0.39692 0.1208 0.14153 0.0
C329 C 0.40295 0.17164 0.17572 0.0
C330 C 0.41056 0.09601 0.12945 0.0
C331 C 0.44251 0.09418 0.14005 0.0
C332 C 0.41507 0.14361 0.16479 0.0
C333 C 0.45931 0.11696 0.16416 0.0
C334 C 0.41411 0.18939 0.20591 0.0
C335 C 0.37279 0.20834 0.16278 0.0
N336 N 0.44542 0.14075 0.1757 0.0
N337 N 0.38247 0.18155 0.15525 0.0
H338 H 0.15544 0.86615 0.64823 0.0
H339 H 0.06777 1.0057 0.64037 0.0
H340 H 0.1709 0.94457 0.72239 0.0
H341 H 0.07999 0.94329 0.55384 0.0
H342 H 0.09564 0.97768 0.6752 0.0
H343 H 0.11693 0.88814 0.61834 0.0
C344 C 0.15023 0.88769 0.65862 0.0
C345 C 0.16664 0.90372 0.68769 0.0
C346 C 0.09209 0.97005 0.64864 0.0
C347 C 0.12288 0.92895 0.65352 0.0
C348 C 0.07626 0.98599 0.62878 0.0
C349 C 0.07205 0.97687 0.59422 0.0
C350 C 0.10347 0.94469 0.63382 0.0
C351 C 0.08317 0.95114 0.58038 0.0
C352 C 0.12846 0.9003 0.64139 0.0
C353 C 0.15899 0.93157 0.69993 0.0
N354 N 0.09852 0.93591 0.60028 0.0
N355 N 0.13781 0.94343 0.68262 0.0
H356 H 0.75355 0.36385 0.9291 0.0
H357 H 0.89549 0.51802 0.97162 0.0
H358 H 0.75843 0.44896 0.88738 0.0
H359 H 0.90971 0.43109 0.99574 0.0
H360 H 0.8421 0.49249 0.94562 0.0
H361 H 0.80733 0.38722 0.95826 0.0
C362 C 0.76567 0.38737 0.92616 0.0
C363 C 0.75118 0.40434 0.90557 0.0
C364 C 0.85674 0.47883 0.95656 0.0
C365 C 0.81264 0.43122 0.93899 0.0
C366 C 0.88743 0.49349 0.97161 0.0
C367 C 0.90751 0.47683 0.98605 0.0
C368 C 0.84532 0.44701 0.95586 0.0
C369 C 0.89525 0.44496 0.98492 0.0
C370 C 0.79647 0.40066 0.9427 0.0
C371 C 0.76836 0.43474 0.90273 0.0
N372 N 0.86497 0.43111 0.97018 0.0
N373 N 0.7978 0.44704 0.91916 0.0
H374 H 0.78772 0.6347 0.47264 0.0
H375 H 0.58642 0.58137 0.47011 0.0
H376 H 0.72765 0.63766 0.38642 0.0
H377 H 0.64406 0.60292 0.56179 0.0
H378 H 0.63885 0.59338 0.43737 0.0
H379 H 0.73606 0.61435 0.50374 0.0
C380 C 0.76371 0.63074 0.46008 0.0
C381 C 0.76198 0.6381 0.42691 0.0
C382 C 0.64005 0.59535 0.46464 0.0
C383 C 0.70285 0.61486 0.46243 0.0
C384 C 0.61018 0.58845 0.48333 0.0
C385 C 0.611 0.59152 0.51869 0.0
C386 C 0.67097 0.60511 0.48143 0.0
C387 C 0.6424 0.60057 0.53455 0.0
C388 C 0.73425 0.61926 0.47793 0.0
C389 C 0.73016 0.6325 0.41199 0.0
N390 N 0.6712 0.60716 0.51579 0.0
N391 N 0.70184 0.62131 0.4299 0.0
H392 H 0.24452 0.33035 0.1949 0.0
H393 H 0.19023 0.45004 0.08645 0.0
H394 H 0.31213 0.38425 0.12697 0.0
H395 H 0.1187 0.38158 0.13563 0.0
H396 H 0.23606 0.4296 0.10557 0.0
H397 H 0.19882 0.35219 0.17777 0.0
C398 C 0.24974 0.34669 0.17631 0.0
C399 C 0.28217 0.35533 0.16218 0.0
C400 C 0.21032 0.41911 0.11222 0.0
C401 C 0.23007 0.38063 0.14274 0.0
C402 C 0.18411 0.43069 0.10121 0.0
C403 C 0.15045 0.41744 0.10924 0.0
C404 C 0.20293 0.39416 0.13159 0.0
C405 C 0.1442 0.39281 0.12912 0.0
C406 C 0.22365 0.35916 0.16656 0.0
C407 C 0.28749 0.37674 0.13832 0.0
N408 N 0.17017 0.38195 0.13954 0.0
N409 N 0.26174 0.3887 0.12943 0.0
H410 H 0.66025 0.22761 0.96542 0.0
H411 H 0.48215 0.13255 0.03126 0.0
H412 H 0.56889 0.26073 0.97734 0.0
H413 H 0.57149 0.09639 0.02575 0.0
H414 H 0.51491 0.17958 0.01133 0.0
H415 H 0.62984 0.17957 0.98703 0.0
C416 C 0.63392 0.22491 0.97261 0.0
C417 C 0.61723 0.24846 0.96943 0.0
C418 C 0.52758 0.1615 0.01444 0.0
C419 C 0.58227 0.19347 0.99417 0.0
C420 C 0.50877 0.13452 0.02585 0.0
C421 C 0.52399 0.11038 0.03004 0.0
C422 C 0.56214 0.1647 1.00697 0.0
C423 C 0.55871 0.11442 0.02276 0.0
C424 C 0.61658 0.19745 0.98494 0.0
C425 C 0.58302 0.24345 0.97917 0.0
N426 N 0.57663 0.14103 0.01148 0.0
N427 N 0.56687 0.21672 0.99094 0.0
H428 H 0.92337 0.76547 0.47114 0.0
H429 H 0.97495 0.94595 0.46388 0.0
H430 H 0.94214 0.80735 0.37779 0.0
H431 H 0.96556 0.90254 0.5563 0.0
H432 H 0.96296 0.89576 0.43185 0.0
H433 H 0.93988 0.81557 0.5024 0.0
C434 C 0.93135 0.78521 0.45714 0.0
C435 C 0.93129 0.78213 0.42169 0.0
C436 C 0.96352 0.89721 0.45913 0.0
C437 C 0.94987 0.83994 0.45761 0.0
C438 C 0.97018 0.92588 0.47751 0.0
C439 C 0.97109 0.92851 0.51294 0.0
C440 C 0.95763 0.87089 0.47623 0.0
C441 C 0.96497 0.90166 0.52908 0.0
C442 C 0.94071 0.81389 0.47509 0.0
C443 C 0.94197 0.80861 0.40506 0.0
N444 N 0.95846 0.874 0.51061 0.0
N445 N 0.95054 0.83645 0.42318 0.0
H446 H 0.30157 0.80391 0.59139 0.0
H447 H 0.47234 0.7471 0.56895 0.0
H448 H 0.39427 0.85696 0.55226 0.0
H449 H 0.37732 0.68844 0.5943 0.0
H450 H 0.4428 0.78638 0.5588 0.0
H451 H 0.327 0.75975 0.58798 0.0
C452 C 0.32708 0.80615 0.5816 0.0
C453 C 0.34603 0.83426 0.57255 0.0
C454 C 0.42828 0.76485 0.56629 0.0
C455 C 0.37528 0.78404 0.56889 0.0
C456 C 0.44519 0.74255 0.5723 0.0
C457 C 0.42721 0.71478 0.58285 0.0
C458 C 0.39318 0.75943 0.57123 0.0
C459 C 0.39202 0.70967 0.58621 0.0
C460 C 0.34158 0.78095 0.5797 0.0
C461 C 0.37887 0.83583 0.55988 0.0
N462 N 0.37612 0.73198 0.58079 0.0
N463 N 0.39258 0.81117 0.55882 0.0
H464 H 0.71072 0.7791 0.72093 0.0
H465 H 0.85788 0.92672 0.76382 0.0
H466 H 0.73063 0.82388 0.8215 0.0
H467 H 0.83207 0.88584 0.66256 0.0
H468 H 0.80895 0.8915 0.78523 0.0
H469 H 0.7529 0.82008 0.69878 0.0
C470 C 0.72353 0.79792 0.73827 0.0
C471 C 0.71677 0.79842 0.77302 0.0
C472 C 0.81392 0.89035 0.75832 0.0
C473 C 0.76545 0.8451 0.74801 0.0
C474 C 0.84176 0.91054 0.74605 0.0
C475 C 0.8492 0.9091 0.71135 0.0
C476 C 0.79353 0.86845 0.73575 0.0
C477 C 0.82769 0.88737 0.68956 0.0
C478 C 0.74762 0.82128 0.72564 0.0
C479 C 0.73427 0.82311 0.79446 0.0
N480 N 0.80094 0.86778 0.70216 0.0
N481 N 0.75807 0.8454 0.78161 0.0
H482 H 0.67583 0.14456 0.42882 0.0
H483 H 0.6943 0.14297 0.22864 0.0
H484 H 0.76695 0.1874 0.37774 0.0
H485 H 0.60374 0.09914 0.27981 0.0
H486 H 0.72153 0.15919 0.28307 0.0
H487 H 0.64953 0.12649 0.37428 0.0
C488 C 0.69041 0.14997 0.40612 0.0
C489 C 0.72364 0.16754 0.40782 0.0
C490 C 0.69574 0.14595 0.2824 0.0
C491 C 0.69358 0.14713 0.34535 0.0
C492 C 0.68009 0.13688 0.25136 0.0
C493 C 0.64671 0.1197 0.24975 0.0
C494 C 0.67788 0.13771 0.312 0.0
C495 C 0.62967 0.11202 0.27991 0.0
C496 C 0.67534 0.1397 0.37499 0.0
C497 C 0.74131 0.17387 0.3776 0.0
N498 N 0.64547 0.12111 0.30985 0.0
N499 N 0.72597 0.16377 0.34756 0.0
H500 H 0.46569 0.66326 0.30865 0.0
H501 H 0.46302 0.63469 0.5048 0.0
H502 H 0.41806 0.71317 0.38634 0.0
H503 H 0.50012 0.57833 0.42521 0.0
H504 H 0.44833 0.66486 0.46243 0.0
H505 H 0.4809 0.63373 0.35137 0.0
C506 C 0.45866 0.66827 0.33471 0.0
C507 C 0.44061 0.691 0.3437 0.0
C508 C 0.45957 0.64583 0.45419 0.0
C509 C 0.4579 0.65681 0.39312 0.0
C510 C 0.46794 0.62849 0.47844 0.0
C511 C 0.48272 0.60367 0.46873 0.0
C512 C 0.46618 0.6386 0.41979 0.0
C513 C 0.4886 0.59704 0.43405 0.0
C514 C 0.46724 0.65122 0.35915 0.0
C515 C 0.43206 0.69606 0.37804 0.0
N516 N 0.48043 0.61437 0.41099 0.0
N517 N 0.44074 0.67919 0.40136 0.0
H518 H 0.14891 0.4763 0.79464 0.0
H519 H 0.03167 0.46515 0.96129 0.0
H520 H 0.1012 0.39092 0.83301 0.0
H521 H 0.05868 0.54538 0.90779 0.0
H522 H 0.06225 0.43852 0.91837 0.0
H523 H 0.12134 0.5031 0.83984 0.0
C524 C 0.13282 0.46319 0.81263 0.0
C525 C 0.12731 0.43126 0.80983 0.0
C526 C 0.06154 0.46199 0.9161 0.0
C527 C 0.0957 0.46184 0.86181 0.0
C528 C 0.04428 0.47722 0.94072 0.0
C529 C 0.0428 0.50754 0.93822 0.0
C530 C 0.07763 0.47731 0.88892 0.0
C531 C 0.05911 0.52196 0.91067 0.0
C532 C 0.11697 0.47849 0.83838 0.0
C533 C 0.10608 0.41552 0.83396 0.0
N534 N 0.07588 0.50679 0.88721 0.0
N535 N 0.09113 0.43093 0.85888 0.0
H536 H 0.5728 0.87991 0.85928 0.0
H537 H 0.59359 0.99195 0.03036 0.0
H538 H 0.65811 0.89419 0.9252 0.0
H539 H 0.50388 0.969 0.96954 0.0
H540 H 0.61971 0.9595 0.99004 0.0
H541 H 0.54938 0.91584 0.89727 0.0
C542 C 0.58671 0.89068 0.88168 0.0
C543 C 0.61742 0.88389 0.88911 0.0
C544 C 0.59435 0.96165 0.9855 0.0
C545 C 0.59063 0.9251 0.93285 0.0
C546 C 0.57942 0.98022 0.00848 0.0
C547 C 0.54639 0.98311 1.00344 0.0
C548 C 0.5762 0.94595 0.9572 0.0
C549 C 0.5293 0.96735 0.97461 0.0
C550 C 0.57326 0.91119 0.90341 0.0
C551 C 0.63431 0.89866 0.9185 0.0
N552 N 0.54437 0.94945 0.95265 0.0
N553 N 0.62064 0.9185 0.93935 0.0
H554 H 0.85647 0.16678 0.50927 0.0
H555 H 0.8782 1.00492 0.55614 0.0
H556 H 0.77563 0.09859 0.54751 0.0
H557 H 0.9609 0.0766 0.52778 0.0
H558 H 0.8389 0.03634 0.54577 0.0
H559 H 0.89402 0.13189 0.50995 0.0
C560 C 0.84662 0.14448 0.51786 0.0
C561 C 0.81294 0.13566 0.52861 0.0
C562 C 0.86561 0.04506 0.54145 0.0
C563 C 0.85568 0.09555 0.52917 0.0
C564 C 0.888 0.02705 0.54714 0.0
C565 C 0.92278 0.03836 0.54308 0.0
C566 C 0.87819 0.0745 0.53163 0.0
C567 C 0.93422 0.06715 0.53139 0.0
C568 C 0.86804 0.12454 0.51813 0.0
C569 C 0.80148 0.10641 0.53923 0.0
N570 N 0.91198 0.08439 0.52638 0.0
N571 N 0.82285 0.08743 0.53932 0.0
H572 H 0.24605 0.70747 0.09934 0.0
H573 H 0.114 0.54555 0.093 0.0
H574 H 0.25071 0.6413 0.16849 0.0
H575 H 0.10195 0.62135 0.04107 0.0
H576 H 0.16664 0.5774 0.11739 0.0
H577 H 0.19601 0.67338 0.07429 0.0
C578 C 0.23661 0.68572 0.10931 0.0
C579 C 0.25273 0.67741 0.13626 0.0
C580 C 0.15244 0.58694 0.10058 0.0
C581 C 0.19485 0.63787 0.10733 0.0
C582 C 0.12249 0.56874 0.0865 0.0
C583 C 0.10339 0.58075 0.06493 0.0
C584 C 0.16354 0.61724 0.09275 0.0
C585 C 0.1156 0.61104 0.05763 0.0
C586 C 0.20787 0.6662 0.09494 0.0
C587 C 0.23911 0.64875 0.14786 0.0
N588 N 0.14476 0.62811 0.07143 0.0
N589 N 0.21096 0.63 0.13334 0.0
H590 H 0.31677 0.45572 0.70832 0.0
H591 H 0.39492 0.50696 0.53114 0.0
H592 H 0.2556 0.45769 0.62269 0.0
H593 H 0.45215 0.525 0.62301 0.0
H594 H 0.34371 0.48789 0.56378 0.0
H595 H 0.36684 0.47998 0.67716 0.0
C596 C 0.31381 0.46142 0.68305 0.0
C597 C 0.28186 0.45463 0.66814 0.0
C598 C 0.36741 0.49623 0.57685 0.0
C599 C 0.33925 0.4822 0.63214 0.0
C600 C 0.39664 0.5071 0.55822 0.0
C601 C 0.4278 0.51744 0.57439 0.0
C602 C 0.36943 0.49542 0.61187 0.0
C603 C 0.42862 0.51718 0.60954 0.0
C604 C 0.34243 0.47531 0.66527 0.0
C605 C 0.27966 0.46255 0.63526 0.0
N606 N 0.39993 0.50609 0.62706 0.0
N607 N 0.30796 0.47569 0.6183 0.0
H608 H 0.75887 0.65034 0.8047 0.0
H609 H 0.83987 0.64926 0.98407 0.0
H610 H 0.72286 0.68968 0.89819 0.0
H611 H 0.88721 0.62627 0.88943 0.0
H612 H 0.79437 0.66067 0.95314 0.0
H613 H 0.80371 0.63766 0.83559 0.0
C614 C 0.76029 0.65618 0.83174 0.0
C615 C 0.73712 0.67111 0.84892 0.0
C616 C 0.81475 0.65322 0.93912 0.0
C617 C 0.78834 0.65675 0.88431 0.0
C618 C 0.84061 0.64656 0.95674 0.0
C619 C 0.86725 0.63675 0.93923 0.0
C620 C 0.81547 0.64994 0.90372 0.0
C621 C 0.86726 0.63404 0.90386 0.0
C622 C 0.78597 0.64905 0.84931 0.0
C623 C 0.74022 0.67822 0.88394 0.0
N624 N 0.84166 0.64051 0.88722 0.0
N625 N 0.76537 0.67095 0.90049 0.0
H626 H 0.37852 0.81447 0.16167 0.0
H627 H 0.51114 0.97607 0.18239 0.0
H628 H 0.45489 0.83875 0.23843 0.0
H629 H 0.4362 0.95167 0.10443 0.0
H630 H 0.48968 0.92673 0.20397 0.0
H631 H 0.39829 0.86448 0.14137 0.0
C632 C 0.39952 0.83025 0.1744 0.0
C633 C 0.41499 0.82198 0.20201 0.0
C634 C 0.47772 0.93208 0.18226 0.0
C635 C 0.43787 0.88009 0.17844 0.0
C636 C 0.48991 0.9604 0.16991 0.0
C637 C 0.47542 0.96822 0.14156 0.0
C638 C 0.4507 0.911 0.16624 0.0
C639 C 0.44805 0.94677 0.12646 0.0
C640 C 0.41077 0.85898 0.16265 0.0
C641 C 0.4421 0.84381 0.21713 0.0
N642 N 0.43666 0.91915 0.13891 0.0
N643 N 0.45261 0.87173 0.20517 0.0
H644 H 0.07137 0.23602 0.7463 0.0
H645 H 0.08158 0.12348 0.57952 0.0
H646 H 0.13329 0.26336 0.65975 0.0
H647 H 0.02243 0.09684 0.66802 0.0
H648 H 0.10184 0.17441 0.60853 0.0
H649 H 0.05414 0.18468 0.71799 0.0
C650 C 0.08144 0.23124 0.72133 0.0
C651 C 0.10382 0.25414 0.70539 0.0
C652 C 0.08454 0.15738 0.62163 0.0
C653 C 0.08405 0.19511 0.67269 0.0
C654 C 0.07296 0.12825 0.6051 0.0
C655 C 0.05021 0.1058 0.62132 0.0
C656 C 0.07325 0.16415 0.65461 0.0
C657 C 0.03994 0.11336 0.65447 0.0
C658 C 0.07157 0.20184 0.70516 0.0
C659 C 0.11599 0.24646 0.67301 0.0
N660 N 0.05145 0.14189 0.66994 0.0
N661 N 0.10588 0.21761 0.65769 0.0
H662 H 0.73649 0.31249 0.53188 0.0
H663 H 0.58079 0.36171 0.45445 0.0
H664 H 0.68015 0.26559 0.44461 0.0
H665 H 0.63982 0.41492 0.53706 0.0
H666 H 0.61383 0.32346 0.45503 0.0
H667 H 0.69878 0.348 0.5381 0.0
C668 C 0.71615 0.30959 0.51417 0.0
C669 C 0.7116 0.28623 0.48754 0.0
C670 C 0.61954 0.34343 0.47316 0.0
C671 C 0.66853 0.32644 0.49454 0.0
C672 C 0.60043 0.3652 0.47304 0.0
C673 C 0.60757 0.39165 0.49568 0.0
C674 C 0.64623 0.34812 0.49592 0.0
C675 C 0.63381 0.3951 0.51878 0.0
C676 C 0.69469 0.32982 0.51771 0.0
C677 C 0.68483 0.28341 0.46534 0.0
N678 N 0.65235 0.37363 0.5182 0.0
N679 N 0.66442 0.30329 0.46931 0.0
loop_
_geom_bond_atom_site_label_1
_geom_bond_atom_site_label_2
_geom_bond_distance
_geom_bond_site_symmetry_2
_ccdc_geom_bond_type
O0 Cd1 2.300 . S
O0 C7 1.275 . S
Cd1 O0 2.300 . S
Cd1 O9 2.381 . S
Cd1 O10 2.378 . S
O2 Cd3 2.385 . S
O2 C7 1.255 . S
Cd3 O2 2.385 . S
Cd3 O4 2.317 . S
O4 Cd3 2.317 . S
O4 C5 1.232 . S
C5 O4 1.232 . S
C5 O6 1.218 . S
O6 C5 1.218 . S
C7 O0 1.275 . S
C7 O2 1.255 . S
C8 O9 1.258 . S
C8 O10 1.256 . S
O9 Cd1 2.381 . S
O9 C8 1.258 . S
O10 Cd1 2.378 . S
O10 C8 1.256 . S
O11 Cd12 2.300 . S
O11 C18 1.275 . S
Cd12 O11 2.300 . S
Cd12 O20 2.381 . S
Cd12 O21 2.378 . S
O13 Cd14 2.385 . S
O13 C18 1.255 . S
Cd14 O13 2.385 . S
Cd14 O15 2.317 . S
O15 Cd14 2.317 . S
O15 C16 1.232 . S
C16 O15 1.232 . S
C16 O17 1.218 . S
O17 C16 1.218 . S
C18 O11 1.275 . S
C18 O13 1.255 . S
C19 O20 1.258 . S
C19 O21 1.256 . S
O20 Cd12 2.381 . S
O20 C19 1.258 . S
O21 Cd12 2.378 . S
O21 C19 1.256 . S
O22 Cd23 2.300 . S
O22 C29 1.275 . S
Cd23 O22 2.300 . S
Cd23 O31 2.381 . S
Cd23 O32 2.378 . S
O24 Cd25 2.385 . S
O24 C29 1.255 . S
Cd25 O24 2.385 . S
Cd25 O26 2.317 . S
O26 Cd25 2.317 . S
O26 C27 1.232 . S
C27 O26 1.232 . S
C27 O28 1.218 . S
O28 C27 1.218 . S
C29 O22 1.275 . S
C29 O24 1.255 . S
C30 O31 1.258 . S
C30 O32 1.256 . S
O31 Cd23 2.381 . S
O31 C30 1.258 . S
O32 Cd23 2.378 . S
O32 C30 1.256 . S
O33 Cd34 2.300 . S
O33 C40 1.275 . S
Cd34 O33 2.300 . S
Cd34 O42 2.381 . S
Cd34 O43 2.378 . S
O35 Cd36 2.385 . S
O35 C40 1.255 . S
Cd36 O35 2.385 . S
Cd36 O37 2.317 . S
O37 Cd36 2.317 . S
O37 C38 1.232 . S
C38 O37 1.232 . S
C38 O39 1.218 . S
O39 C38 1.218 . S
C40 O33 1.275 . S
C40 O35 1.255 . S
C41 O42 1.258 . S
C41 O43 1.256 . S
O42 Cd34 2.381 . S
O42 C41 1.258 . S
O43 Cd34 2.378 . S
O43 C41 1.256 . S
O44 Cd45 2.300 . S
O44 C51 1.275 . S
Cd45 O44 2.300 . S
Cd45 O53 2.381 . S
Cd45 O54 2.378 . S
O46 Cd47 2.385 . S
O46 C51 1.255 . S
Cd47 O46 2.385 . S
Cd47 O48 2.317 . S
O48 Cd47 2.317 . S
O48 C49 1.232 . S
C49 O48 1.232 . S
C49 O50 1.218 . S
O50 C49 1.218 . S
C51 O44 1.275 . S
C51 O46 1.255 . S
C52 O53 1.258 . S
C52 O54 1.256 . S
O53 Cd45 2.381 . S
O53 C52 1.258 . S
O54 Cd45 2.378 . S
O54 C52 1.256 . S
O55 Cd56 2.300 . S
O55 C62 1.275 . S
Cd56 O55 2.300 . S
Cd56 O64 2.381 . S
Cd56 O65 2.378 . S
O57 Cd58 2.385 . S
O57 C62 1.255 . S
Cd58 O57 2.385 . S
Cd58 O59 2.317 . S
O59 Cd58 2.317 . S
O59 C60 1.232 . S
C60 O59 1.232 . S
C60 O61 1.218 . S
O61 C60 1.218 . S
C62 O55 1.275 . S
C62 O57 1.255 . S
C63 O64 1.258 . S
C63 O65 1.256 . S
O64 Cd56 2.381 . S
O64 C63 1.258 . S
O65 Cd56 2.378 . S
O65 C63 1.256 . S
O66 Cd67 2.300 . S
O66 C73 1.275 . S
Cd67 O66 2.300 . S
Cd67 O75 2.381 . S
Cd67 O76 2.378 . S
O68 Cd69 2.385 . S
O68 C73 1.255 . S
Cd69 O68 2.385 . S
Cd69 O70 2.317 . S
O70 Cd69 2.317 . S
O70 C71 1.232 . S
C71 O70 1.232 . S
C71 O72 1.218 . S
O72 C71 1.218 . S
C73 O66 1.275 . S
C73 O68 1.255 . S
C74 O75 1.258 . S
C74 O76 1.256 . S
O75 Cd67 2.381 . S
O75 C74 1.258 . S
O76 Cd67 2.378 . S
O76 C74 1.256 . S
O77 Cd78 2.300 . S
O77 C84 1.275 . S
Cd78 O77 2.300 . S
Cd78 O86 2.381 . S
Cd78 O87 2.378 . S
O79 Cd80 2.385 . S
O79 C84 1.255 . S
Cd80 O79 2.385 . S
Cd80 O81 2.317 . S
O81 Cd80 2.317 . S
O81 C82 1.232 . S
C82 O81 1.232 . S
C82 O83 1.218 . S
O83 C82 1.218 . S
C84 O77 1.275 . S
C84 O79 1.255 . S
C85 O86 1.258 . S
C85 O87 1.256 . S
O86 Cd78 2.381 . S
O86 C85 1.258 . S
O87 Cd78 2.378 . S
O87 C85 1.256 . S
Sm88 C90 2.846 . S
Sm88 O108 2.543 . S
Sm88 O109 2.450 . S
Sm88 O110 2.681 1_545 S
Sm88 O111 2.458 1_545 S
Sm88 O112 2.396 . S
Sm88 O116 2.386 1_455 S
Sm88 O119 2.408 1_445 S
Sm89 C99 2.846 1_545 S
Sm89 O110 2.386 1_645 S
Sm89 O113 2.408 1_655 S
Sm89 O114 2.543 1_545 S
Sm89 O115 2.450 1_545 S
Sm89 O116 2.681 . S
Sm89 O117 2.464 . S
Sm89 O118 2.396 1_545 S
C90 Sm88 2.846 . S
C90 C91 1.506 . S
C90 O108 1.261 . S
C90 O109 1.242 . S
C91 C90 1.506 . S
C91 C92 1.358 . S
C91 C96 1.382 . S
C92 C91 1.358 . S
C92 C93 1.385 . S
C92 H120 0.930 . S
C93 C92 1.385 . S
C93 C94 1.395 . S
C93 H121 0.929 . S
C94 C93 1.395 . S
C94 C95 1.335 . S
C95 C94 1.335 . S
C95 C96 1.398 . S
C95 H122 0.930 . S
C96 C91 1.382 . S
C96 C95 1.398 . S
C96 H123 0.929 . S
C97 O110 1.271 . S
C97 O111 1.254 . S
C98 O112 1.252 . S
C98 O113 1.272 . S
C99 Sm89 2.846 1_565 S
C99 C100 1.506 . S
C99 O114 1.261 . S
C99 O115 1.242 . S
C100 C99 1.506 . S
C100 C101 1.358 . S
C100 C105 1.382 . S
C101 C100 1.358 . S
C101 C102 1.385 . S
C101 H124 0.930 . S
C102 C101 1.385 . S
C102 C103 1.395 . S
C102 H125 0.929 . S
C103 C102 1.395 . S
C103 C104 1.335 . S
C104 C103 1.335 . S
C104 C105 1.398 . S
C104 H126 0.930 . S
C105 C100 1.382 . S
C105 C104 1.398 . S
C105 H127 0.929 . S
C106 O116 1.271 . S
C106 O117 1.251 . S
C107 O118 1.252 . S
C107 O119 1.272 . S
O108 Sm88 2.543 . S
O108 C90 1.261 . S
O109 Sm88 2.450 . S
O109 C90 1.242 . S
O110 Sm88 2.681 1_565 S
O110 Sm89 2.386 1_465 S
O110 C97 1.271 . S
O111 Sm88 2.458 1_565 S
O111 C97 1.254 . S
O112 Sm88 2.396 . S
O112 C98 1.252 . S
O113 Sm89 2.408 1_455 S
O113 C98 1.272 . S
O114 Sm89 2.543 1_565 S
O114 C99 1.261 . S
O115 Sm89 2.450 1_565 S
O115 C99 1.242 . S
O116 Sm88 2.386 1_655 S
O116 Sm89 2.681 . S
O116 C106 1.271 . S
O117 Sm89 2.464 . S
O117 C106 1.251 . S
O118 Sm89 2.396 1_565 S
O118 C107 1.252 . S
O119 Sm88 2.408 1_665 S
O119 C107 1.272 . S
H120 C92 0.930 . S
H121 C93 0.929 . S
H122 C95 0.930 . S
H123 C96 0.929 . S
H124 C101 0.930 . S
H125 C102 0.929 . S
H126 C104 0.930 . S
H127 C105 0.929 . S
Sm128 C130 2.846 . S
Sm128 O148 2.543 . S
Sm128 O149 2.450 . S
Sm128 O150 2.681 . S
Sm128 O151 2.464 1_545 S
Sm128 O152 2.396 . S
Sm128 O156 2.386 . S
Sm128 O159 2.408 . S
Sm129 C139 2.846 1_544 S
Sm129 O150 2.386 . S
Sm129 O153 2.408 . S
Sm129 O154 2.543 1_544 S
Sm129 O155 2.450 1_554 S
Sm129 O156 2.681 . S
Sm129 O157 2.464 . S
Sm129 O158 2.404 . S
C130 Sm128 2.846 . S
C130 C131 1.506 . S
C130 O148 1.261 . S
C130 O149 1.242 . S
C131 C130 1.506 . S
C131 C132 1.358 . S
C131 C136 1.382 . S
C132 C131 1.358 . S
C132 C133 1.385 . S
C132 H160 0.930 . S
C133 C132 1.385 . S
C133 C134 1.395 . S
C133 H161 0.929 . S
C134 C133 1.395 . S
C134 C135 1.335 . S
C135 C134 1.335 . S
C135 C136 1.398 . S
C135 H162 0.930 . S
C136 C131 1.382 . S
C136 C135 1.398 . S
C136 H163 0.929 . S
C137 O150 1.271 1_565 S
C137 O151 1.251 . S
C138 O152 1.252 . S
C138 O153 1.272 . S
C139 Sm129 2.846 1_566 S
C139 C140 1.506 . S
C139 O154 1.261 . S
C139 O155 1.242 1_565 S
C140 C139 1.506 . S
C140 C141 1.358 . S
C140 C145 1.382 . S
C141 C140 1.358 . S
C141 C142 1.385 . S
C141 H164 0.930 . S
C142 C141 1.385 . S
C142 C143 1.395 . S
C142 H165 0.929 . S
C143 C142 1.395 . S
C143 C144 1.335 . S
C144 C143 1.335 . S
C144 C145 1.398 . S
C144 H166 0.930 . S
C145 C140 1.382 . S
C145 C144 1.398 . S
C145 H167 0.929 1_565 S
C146 O156 1.271 . S
C146 O157 1.251 . S
C147 O158 1.240 1_565 S
C147 O159 1.271 1_565 S
O148 Sm128 2.543 . S
O148 C130 1.261 . S
O149 Sm128 2.450 . S
O149 C130 1.242 . S
O150 Sm128 2.681 . S
O150 Sm129 2.386 . S
O150 C137 1.271 1_545 S
O151 Sm128 2.464 1_565 S
O151 C137 1.251 . S
O152 Sm128 2.396 . S
O152 C138 1.252 . S
O153 Sm129 2.408 . S
O153 C138 1.272 . S
O154 Sm129 2.543 1_566 S
O154 C139 1.261 . S
O155 Sm129 2.450 1_556 S
O155 C139 1.242 1_545 S
O156 Sm128 2.386 . S
O156 Sm129 2.681 . S
O156 C146 1.271 . S
O157 Sm129 2.464 . S
O157 C146 1.251 . S
O158 Sm129 2.404 . S
O158 C147 1.240 1_545 S
O159 Sm128 2.408 . S
O159 C147 1.271 1_545 S
H160 C132 0.930 . S
H161 C133 0.929 . S
H162 C135 0.930 . S
H163 C136 0.929 . S
H164 C141 0.930 . S
H165 C142 0.929 . S
H166 C144 0.930 . S
H167 C145 0.929 1_545 S
Sm168 C170 2.846 . S
Sm168 O188 2.543 . S
Sm168 O189 2.450 . S
Sm168 O190 2.681 . S
Sm168 O191 2.464 . S
Sm168 O192 2.396 . S
Sm168 O196 2.386 . S
Sm168 O199 2.408 . S
Sm169 C179 2.846 . S
Sm169 O190 2.386 . S
Sm169 O193 2.408 . S
Sm169 O194 2.543 . S
Sm169 O195 2.450 . S
Sm169 O196 2.681 . S
Sm169 O197 2.464 . S
Sm169 O198 2.396 . S
C170 Sm168 2.846 . S
C170 C171 1.506 . S
C170 O188 1.261 . S
C170 O189 1.242 . S
C171 C170 1.506 . S
C171 C172 1.358 . S
C171 C176 1.382 . S
C172 C171 1.358 . S
C172 C173 1.385 . S
C172 H200 0.930 . S
C173 C172 1.385 . S
C173 C174 1.395 . S
C173 H201 0.929 . S
C174 C173 1.395 . S
C174 C175 1.335 . S
C175 C174 1.335 . S
C175 C176 1.398 . S
C175 H202 0.930 . S
C176 C171 1.382 . S
C176 C175 1.398 . S
C176 H203 0.929 . S
C177 O190 1.271 . S
C177 O191 1.251 . S
C178 O192 1.252 . S
C178 O193 1.272 . S
C179 Sm169 2.846 . S
C179 C180 1.506 . S
C179 O194 1.261 . S
C179 O195 1.242 . S
C180 C179 1.506 . S
C180 C181 1.358 . S
C180 C185 1.382 . S
C181 C180 1.358 . S
C181 C182 1.385 . S
C181 H204 0.930 . S
C182 C181 1.385 . S
C182 C183 1.395 . S
C182 H205 0.929 . S
C183 C182 1.395 . S
C183 C184 1.335 . S
C184 C183 1.335 . S
C184 C185 1.398 . S
C184 H206 0.930 . S
C185 C180 1.382 . S
C185 C184 1.398 . S
C185 H207 0.929 . S
C186 O196 1.271 . S
C186 O197 1.251 . S
C187 O198 1.252 . S
C187 O199 1.272 . S
O188 Sm168 2.543 . S
O188 C170 1.261 . S
O189 Sm168 2.450 . S
O189 C170 1.242 . S
O190 Sm168 2.681 . S
O190 Sm169 2.386 . S
O190 C177 1.271 . S
O191 Sm168 2.464 . S
O191 C177 1.251 . S
O192 Sm168 2.396 . S
O192 C178 1.252 . S
O193 Sm169 2.408 . S
O193 C178 1.272 . S
O194 Sm169 2.543 . S
O194 C179 1.261 . S
O195 Sm169 2.450 . S
O195 C179 1.242 . S
O196 Sm168 2.386 . S
O196 Sm169 2.681 . S
O196 C186 1.271 . S
O197 Sm169 2.464 . S
O197 C186 1.251 . S
O198 Sm169 2.396 . S
O198 C187 1.252 . S
O199 Sm168 2.408 . S
O199 C187 1.272 . S
H200 C172 0.930 . S
H201 C173 0.929 . S
H202 C175 0.930 . S
H203 C176 0.929 . S
H204 C181 0.930 . S
H205 C182 0.929 . S
H206 C184 0.930 . S
H207 C185 0.929 . S
Sm208 C210 2.846 . S
Sm208 O228 2.543 . S
Sm208 O229 2.450 . S
Sm208 O230 2.681 1_455 S
Sm208 O231 2.464 1_455 S
Sm208 O232 2.396 . S
Sm208 O236 2.386 1_554 S
Sm208 O239 2.408 1_455 S
Sm209 C219 2.846 1_455 S
Sm209 O230 2.386 1_456 S
Sm209 O233 2.408 1_556 S
Sm209 O234 2.543 1_455 S
Sm209 O235 2.450 1_455 S
Sm209 O236 2.681 . S
Sm209 O237 2.464 . S
Sm209 O238 2.396 1_455 S
C210 Sm208 2.846 . S
C210 C211 1.506 . S
C210 O228 1.261 . S
C210 O229 1.242 . S
C211 C210 1.506 . S
C211 C212 1.358 . S
C211 C216 1.382 . S
C212 C211 1.358 . S
C212 C213 1.385 . S
C212 H240 0.930 . S
C213 C212 1.385 . S
C213 C214 1.395 . S
C213 H241 0.929 . S
C214 C213 1.395 . S
C214 C215 1.335 . S
C215 C214 1.335 . S
C215 C216 1.398 . S
C215 H242 0.930 . S
C216 C211 1.382 . S
C216 C215 1.398 . S
C216 H243 0.929 . S
C217 O230 1.271 . S
C217 O231 1.251 . S
C218 O232 1.252 . S
C218 O233 1.272 . S
C219 Sm209 2.846 1_655 S
C219 C220 1.506 . S
C219 O234 1.261 . S
C219 O235 1.242 . S
C220 C219 1.506 . S
C220 C221 1.358 . S
C220 C225 1.382 . S
C221 C220 1.358 . S
C221 C222 1.385 . S
C221 H244 0.930 . S
C222 C221 1.385 . S
C222 C223 1.395 . S
C222 H245 0.929 . S
C223 C222 1.395 . S
C223 C224 1.335 . S
C224 C223 1.335 . S
C224 C225 1.398 . S
C224 H246 0.930 . S
C225 C220 1.382 . S
C225 C224 1.398 . S
C225 H247 0.929 . S
C226 O236 1.271 . S
C226 O237 1.251 . S
C227 O238 1.252 . S
C227 O239 1.272 1_556 S
O228 Sm208 2.543 . S
O228 C210 1.261 . S
O229 Sm208 2.450 . S
O229 C210 1.242 . S
O230 Sm208 2.681 1_655 S
O230 Sm209 2.386 1_654 S
O230 C217 1.271 . S
O231 Sm208 2.464 1_655 S
O231 C217 1.251 . S
O232 Sm208 2.396 . S
O232 C218 1.252 . S
O233 Sm209 2.408 1_554 S
O233 C218 1.272 . S
O234 Sm209 2.543 1_655 S
O234 C219 1.261 . S
O235 Sm209 2.450 1_655 S
O235 C219 1.242 . S
O236 Sm208 2.386 1_556 S
O236 Sm209 2.681 . S
O236 C226 1.271 . S
O237 Sm209 2.464 . S
O237 C226 1.251 . S
O238 Sm209 2.396 1_655 S
O238 C227 1.252 . S
O239 Sm208 2.408 1_655 S
O239 C227 1.272 1_554 S
H240 C212 0.930 . S
H241 C213 0.929 . S
H242 C215 0.930 . S
H243 C216 0.929 . S
H244 C221 0.930 . S
H245 C222 0.929 . S
H246 C224 0.930 . S
H247 C225 0.929 . S
H248 C254 0.930 . S
H249 C258 0.930 . S
H250 C263 0.929 . S
H251 C261 0.929 . S
H252 C256 0.929 . S
H253 C262 0.929 . S
C254 H248 0.930 . S
C254 C255 1.367 . S
C254 C262 1.378 . S
C255 C254 1.367 . S
C255 C263 1.433 . S
C256 H252 0.929 . S
C256 C258 1.378 . S
C256 C260 1.350 . S
C257 C260 1.463 . S
C257 C262 1.350 . S
C257 N265 1.427 . S
C258 H249 0.930 . S
C258 C256 1.378 . S
C258 C259 1.367 . S
C259 C258 1.367 . S
C259 C261 1.433 . S
C260 C256 1.350 . S
C260 C257 1.463 . S
C260 N264 1.427 . S
C261 H251 0.929 . S
C261 C259 1.433 . S
C261 N264 1.384 . S
C262 H253 0.929 . S
C262 C254 1.378 . S
C262 C257 1.350 . S
C263 H250 0.929 . S
C263 C255 1.433 . S
C263 N265 1.384 . S
N264 C260 1.427 . S
N264 C261 1.384 . S
N265 C257 1.427 . S
N265 C263 1.384 . S
H266 C272 0.930 . S
H267 C276 0.930 . S
H268 C281 0.929 . S
H269 C279 0.929 . S
H270 C274 0.929 . S
H271 C280 0.929 . S
C272 H266 0.930 . S
C272 C273 1.367 . S
C272 C280 1.378 . S
C273 C272 1.367 . S
C273 C281 1.433 . S
C274 H270 0.929 . S
C274 C276 1.378 . S
C274 C278 1.350 . S
C275 C278 1.463 . S
C275 C280 1.350 . S
C275 N283 1.427 . S
C276 H267 0.930 . S
C276 C274 1.378 . S
C276 C277 1.367 . S
C277 C276 1.367 . S
C277 C279 1.433 . S
C278 C274 1.350 . S
C278 C275 1.463 . S
C278 N282 1.427 . S
C279 H269 0.929 . S
C279 C277 1.433 . S
C279 N282 1.384 . S
C280 H271 0.929 . S
C280 C272 1.378 . S
C280 C275 1.350 . S
C281 H268 0.929 . S
C281 C273 1.433 . S
C281 N283 1.384 . S
N282 C278 1.427 . S
N282 C279 1.384 . S
N283 C275 1.427 . S
N283 C281 1.384 . S
H284 C290 0.930 . S
H285 C294 0.930 . S
H286 C299 0.929 . S
H287 C297 0.929 . S
H288 C292 0.929 . S
H289 C298 0.929 . S
C290 H284 0.930 . S
C290 C291 1.367 . S
C290 C298 1.378 . S
C291 C290 1.367 . S
C291 C299 1.433 . S
C292 H288 0.929 . S
C292 C294 1.378 . S
C292 C296 1.350 . S
C293 C296 1.463 . S
C293 C298 1.350 . S
C293 N301 1.427 . S
C294 H285 0.930 . S
C294 C292 1.378 . S
C294 C295 1.367 . S
C295 C294 1.367 . S
C295 C297 1.433 . S
C296 C292 1.350 . S
C296 C293 1.463 . S
C296 N300 1.427 . S
C297 H287 0.929 . S
C297 C295 1.433 . S
C297 N300 1.384 . S
C298 H289 0.929 . S
C298 C290 1.378 . S
C298 C293 1.350 . S
C299 H286 0.929 . S
C299 C291 1.433 . S
C299 N301 1.384 . S
N300 C296 1.427 . S
N300 C297 1.384 . S
N301 C293 1.427 . S
N301 C299 1.384 . S
H302 C308 0.930 . S
H303 C312 0.930 . S
H304 C317 0.929 . S
H305 C315 0.913 1_455 S
H306 C310 0.929 . S
H307 C316 0.929 . S
C308 H302 0.930 . S
C308 C309 1.367 . S
C308 C316 1.378 . S
C309 C308 1.367 . S
C309 C317 1.433 . S
C310 H306 0.929 . S
C310 C312 1.378 . S
C310 C314 1.350 . S
C311 C314 1.463 . S
C311 C316 1.350 . S
C311 N319 1.427 . S
C312 H303 0.930 . S
C312 C310 1.378 . S
C312 C313 1.367 . S
C313 C312 1.367 . S
C313 C315 1.433 . S
C314 C310 1.350 . S
C314 C311 1.463 . S
C314 N318 1.427 . S
C315 H305 0.913 1_655 S
C315 C313 1.433 . S
C315 N318 1.384 . S
C316 H307 0.929 . S
C316 C308 1.378 . S
C316 C311 1.350 . S
C317 H304 0.929 . S
C317 C309 1.433 . S
C317 N319 1.384 . S
N318 C314 1.427 . S
N318 C315 1.384 . S
N319 C311 1.427 . S
N319 C317 1.384 . S
H320 C326 0.930 . S
H321 C330 0.930 . S
H322 C335 0.929 . S
H323 C333 0.929 . S
H324 C328 0.929 . S
H325 C334 0.929 . S
C326 H320 0.930 . S
C326 C327 1.367 . S
C326 C334 1.378 . S
C327 C326 1.367 . S
C327 C335 1.433 . S
C328 H324 0.929 . S
C328 C330 1.378 . S
C328 C332 1.350 . S
C329 C332 1.463 . S
C329 C334 1.350 . S
C329 N337 1.427 . S
C330 H321 0.930 . S
C330 C328 1.378 . S
C330 C331 1.367 . S
C331 C330 1.367 . S
C331 C333 1.433 . S
C332 C328 1.350 . S
C332 C329 1.463 . S
C332 N336 1.427 . S
C333 H323 0.929 . S
C333 C331 1.433 . S
C333 N336 1.384 . S
C334 H325 0.929 . S
C334 C326 1.378 . S
C334 C329 1.350 . S
C335 H322 0.929 . S
C335 C327 1.433 . S
C335 N337 1.384 . S
N336 C332 1.427 . S
N336 C333 1.384 . S
N337 C329 1.427 . S
N337 C335 1.384 . S
H338 C344 0.930 . S
H339 C348 0.901 1_545 S
H340 C353 0.929 . S
H341 C351 0.929 . S
H342 C346 0.929 . S
H343 C352 0.929 . S
C344 H338 0.930 . S
C344 C345 1.367 . S
C344 C352 1.378 . S
C345 C344 1.367 . S
C345 C353 1.433 . S
C346 H342 0.929 . S
C346 C348 1.398 . S
C346 C350 1.350 . S
C347 C350 1.463 . S
C347 C352 1.350 . S
C347 N355 1.427 . S
C348 H339 0.901 1_565 S
C348 C346 1.398 . S
C348 C349 1.377 . S
C349 C348 1.377 . S
C349 C351 1.433 . S
C350 C346 1.350 . S
C350 C347 1.463 . S
C350 N354 1.427 . S
C351 H341 0.929 . S
C351 C349 1.433 . S
C351 N354 1.384 . S
C352 H343 0.929 . S
C352 C344 1.378 . S
C352 C347 1.350 . S
C353 H340 0.929 . S
C353 C345 1.433 . S
C353 N355 1.384 . S
N354 C350 1.427 . S
N354 C351 1.384 . S
N355 C347 1.427 . S
N355 C353 1.384 . S
H356 C362 0.930 . S
H357 C366 0.930 . S
H358 C371 0.929 . S
H359 C369 0.929 . S
H360 C364 0.929 . S
H361 C370 0.929 . S
C362 H356 0.930 . S
C362 C363 1.367 . S
C362 C370 1.378 . S
C363 C362 1.367 . S
C363 C371 1.433 . S
C364 H360 0.929 . S
C364 C366 1.378 . S
C364 C368 1.350 . S
C365 C368 1.463 . S
C365 C370 1.350 . S
C365 N373 1.427 . S
C366 H357 0.930 . S
C366 C364 1.378 . S
C366 C367 1.367 . S
C367 C366 1.367 . S
C367 C369 1.433 . S
C368 C364 1.350 . S
C368 C365 1.463 . S
C368 N372 1.427 . S
C369 H359 0.929 . S
C369 C367 1.433 . S
C369 N372 1.384 . S
C370 H361 0.929 . S
C370 C362 1.378 . S
C370 C365 1.350 . S
C371 H358 0.929 . S
C371 C363 1.433 . S
C371 N373 1.384 . S
N372 C368 1.427 . S
N372 C369 1.384 . S
N373 C365 1.427 . S
N373 C371 1.384 . S
H374 C380 0.930 . S
H375 C384 0.930 . S
H376 C389 0.929 . S
H377 C387 0.929 . S
H378 C382 0.929 . S
H379 C388 0.929 . S
C380 H374 0.930 . S
C380 C381 1.367 . S
C380 C388 1.378 . S
C381 C380 1.367 . S
C381 C389 1.433 . S
C382 H378 0.929 . S
C382 C384 1.378 . S
C382 C386 1.350 . S
C383 C386 1.463 . S
C383 C388 1.350 . S
C383 N391 1.427 . S
C384 H375 0.930 . S
C384 C382 1.378 . S
C384 C385 1.367 . S
C385 C384 1.367 . S
C385 C387 1.433 . S
C386 C382 1.350 . S
C386 C383 1.463 . S
C386 N390 1.427 . S
C387 H377 0.929 . S
C387 C385 1.433 . S
C387 N390 1.384 . S
C388 H379 0.929 . S
C388 C380 1.378 . S
C388 C383 1.350 . S
C389 H376 0.929 . S
C389 C381 1.433 . S
C389 N391 1.384 . S
N390 C386 1.427 . S
N390 C387 1.384 . S
N391 C383 1.427 . S
N391 C389 1.384 . S
H392 C398 0.930 . S
H393 C402 0.930 . S
H394 C407 0.929 . S
H395 C405 0.929 . S
H396 C400 0.929 . S
H397 C406 0.929 . S
C398 H392 0.930 . S
C398 C399 1.367 . S
C398 C406 1.378 . S
C399 C398 1.367 . S
C399 C407 1.433 . S
C400 H396 0.929 . S
C400 C402 1.378 . S
C400 C404 1.350 . S
C401 C404 1.463 . S
C401 C406 1.350 . S
C401 N409 1.427 . S
C402 H393 0.930 . S
C402 C400 1.378 . S
C402 C403 1.367 . S
C403 C402 1.367 . S
C403 C405 1.433 . S
C404 C400 1.350 . S
C404 C401 1.463 . S
C404 N408 1.427 . S
C405 H395 0.929 . S
C405 C403 1.433 . S
C405 N408 1.384 . S
C406 H397 0.929 . S
C406 C398 1.378 . S
C406 C401 1.350 . S
C407 H394 0.929 . S
C407 C399 1.433 . S
C407 N409 1.384 . S
N408 C404 1.427 . S
N408 C405 1.384 . S
N409 C401 1.427 . S
N409 C407 1.384 . S
H410 C416 0.930 . S
H411 C420 0.930 . S
H412 C425 0.929 . S
H413 C423 0.929 . S
H414 C418 0.934 . S
H415 C424 0.929 . S
C416 H410 0.930 . S
C416 C417 1.367 . S
C416 C424 1.378 . S
C417 C416 1.367 . S
C417 C425 1.433 . S
C418 H414 0.934 . S
C418 C420 1.389 . S
C418 C422 1.333 1_554 S
C419 C422 1.463 . S
C419 C424 1.350 . S
C419 N427 1.427 . S
C420 H411 0.930 . S
C420 C418 1.389 . S
C420 C421 1.367 . S
C421 C420 1.367 . S
C421 C423 1.433 1_554 S
C422 C418 1.333 1_556 S
C422 C419 1.463 . S
C422 N426 1.427 . S
C423 H413 0.929 . S
C423 C421 1.433 1_556 S
C423 N426 1.384 . S
C424 H415 0.929 . S
C424 C416 1.378 . S
C424 C419 1.350 . S
C425 H412 0.929 . S
C425 C417 1.433 . S
C425 N427 1.384 . S
N426 C422 1.427 . S
N426 C423 1.384 . S
N427 C419 1.427 . S
N427 C425 1.384 . S
H428 C434 0.930 . S
H429 C438 0.930 . S
H430 C443 0.929 . S
H431 C441 0.929 . S
H432 C436 0.929 . S
H433 C442 0.929 . S
C434 H428 0.930 . S
C434 C435 1.367 . S
C434 C442 1.378 . S
C435 C434 1.367 . S
C435 C443 1.433 . S
C436 H432 0.929 . S
C436 C438 1.378 . S
C436 C440 1.350 . S
C437 C440 1.463 . S
C437 C442 1.350 . S
C437 N445 1.427 . S
C438 H429 0.930 . S
C438 C436 1.378 . S
C438 C439 1.367 . S
C439 C438 1.367 . S
C439 C441 1.433 . S
C440 C436 1.350 . S
C440 C437 1.463 . S
C440 N444 1.427 . S
C441 H431 0.929 . S
C441 C439 1.433 . S
C441 N444 1.384 . S
C442 H433 0.929 . S
C442 C434 1.378 . S
C442 C437 1.350 . S
C443 H430 0.929 . S
C443 C435 1.433 . S
C443 N445 1.384 . S
N444 C440 1.427 . S
N444 C441 1.384 . S
N445 C437 1.427 . S
N445 C443 1.384 . S
H446 C452 0.930 . S
H447 C456 0.930 . S
H448 C461 0.929 . S
H449 C459 0.929 . S
H450 C454 0.929 . S
H451 C460 0.929 . S
C452 H446 0.930 . S
C452 C453 1.367 . S
C452 C460 1.378 . S
C453 C452 1.367 . S
C453 C461 1.433 . S
C454 H450 0.929 . S
C454 C456 1.378 . S
C454 C458 1.350 . S
C455 C458 1.463 . S
C455 C460 1.350 . S
C455 N463 1.427 . S
C456 H447 0.930 . S
C456 C454 1.378 . S
C456 C457 1.367 . S
C457 C456 1.367 . S
C457 C459 1.433 . S
C458 C454 1.350 . S
C458 C455 1.463 . S
C458 N462 1.427 . S
C459 H449 0.929 . S
C459 C457 1.433 . S
C459 N462 1.384 . S
C460 H451 0.929 . S
C460 C452 1.378 . S
C460 C455 1.350 . S
C461 H448 0.929 . S
C461 C453 1.433 . S
C461 N463 1.384 . S
N462 C458 1.427 . S
N462 C459 1.384 . S
N463 C455 1.427 . S
N463 C461 1.384 . S
H464 C470 0.930 . S
H465 C474 0.930 . S
H466 C479 0.929 . S
H467 C477 0.929 . S
H468 C472 0.929 . S
H469 C478 0.929 . S
C470 H464 0.930 . S
C470 C471 1.367 . S
C470 C478 1.378 . S
C471 C470 1.367 . S
C471 C479 1.433 . S
C472 H468 0.929 . S
C472 C474 1.378 . S
C472 C476 1.350 . S
C473 C476 1.463 . S
C473 C478 1.350 . S
C473 N481 1.427 . S
C474 H465 0.930 . S
C474 C472 1.378 . S
C474 C475 1.367 . S
C475 C474 1.367 . S
C475 C477 1.433 . S
C476 C472 1.350 . S
C476 C473 1.463 . S
C476 N480 1.427 . S
C477 H467 0.929 . S
C477 C475 1.433 . S
C477 N480 1.384 . S
C478 H469 0.929 . S
C478 C470 1.378 . S
C478 C473 1.350 . S
C479 H466 0.929 . S
C479 C471 1.433 . S
C479 N481 1.384 . S
N480 C476 1.427 . S
N480 C477 1.384 . S
N481 C473 1.427 . S
N481 C479 1.384 . S
H482 C488 0.930 . S
H483 C492 0.930 . S
H484 C497 0.929 . S
H485 C495 0.929 . S
H486 C490 0.929 . S
H487 C496 0.929 . S
C488 H482 0.930 . S
C488 C489 1.367 . S
C488 C496 1.378 . S
C489 C488 1.367 . S
C489 C497 1.433 . S
C490 H486 0.929 . S
C490 C492 1.378 . S
C490 C494 1.350 . S
C491 C494 1.463 . S
C491 C496 1.350 . S
C491 N499 1.427 . S
C492 H483 0.930 . S
C492 C490 1.378 . S
C492 C493 1.367 . S
C493 C492 1.367 . S
C493 C495 1.433 . S
C494 C490 1.350 . S
C494 C491 1.463 . S
C494 N498 1.427 . S
C495 H485 0.929 . S
C495 C493 1.433 . S
C495 N498 1.384 . S
C496 H487 0.929 . S
C496 C488 1.378 . S
C496 C491 1.350 . S
C497 H484 0.929 . S
C497 C489 1.433 . S
C497 N499 1.384 . S
N498 C494 1.427 . S
N498 C495 1.384 . S
N499 C491 1.427 . S
N499 C497 1.384 . S
H500 C506 0.930 . S
H501 C510 0.930 . S
H502 C515 0.929 . S
H503 C513 0.929 . S
H504 C508 0.929 . S
H505 C514 0.929 . S
C506 H500 0.930 . S
C506 C507 1.367 . S
C506 C514 1.378 . S
C507 C506 1.367 . S
C507 C515 1.433 . S
C508 H504 0.929 . S
C508 C510 1.378 . S
C508 C512 1.350 . S
C509 C512 1.463 . S
C509 C514 1.350 . S
C509 N517 1.427 . S
C510 H501 0.930 . S
C510 C508 1.378 . S
C510 C511 1.367 . S
C511 C510 1.367 . S
C511 C513 1.433 . S
C512 C508 1.350 . S
C512 C509 1.463 . S
C512 N516 1.427 . S
C513 H503 0.929 . S
C513 C511 1.433 . S
C513 N516 1.384 . S
C514 H505 0.929 . S
C514 C506 1.378 . S
C514 C509 1.350 . S
C515 H502 0.929 . S
C515 C507 1.433 . S
C515 N517 1.384 . S
N516 C512 1.427 . S
N516 C513 1.384 . S
N517 C509 1.427 . S
N517 C515 1.384 . S
H518 C524 0.930 . S
H519 C528 0.930 . S
H520 C533 0.929 . S
H521 C531 0.929 . S
H522 C526 0.929 . S
H523 C532 0.929 . S
C524 H518 0.930 . S
C524 C525 1.367 . S
C524 C532 1.378 . S
C525 C524 1.367 . S
C525 C533 1.433 . S
C526 H522 0.929 . S
C526 C528 1.378 . S
C526 C530 1.350 . S
C527 C530 1.463 . S
C527 C532 1.350 . S
C527 N535 1.427 . S
C528 H519 0.930 . S
C528 C526 1.378 . S
C528 C529 1.367 . S
C529 C528 1.367 . S
C529 C531 1.433 . S
C530 C526 1.350 . S
C530 C527 1.463 . S
C530 N534 1.427 . S
C531 H521 0.929 . S
C531 C529 1.433 . S
C531 N534 1.384 . S
C532 H523 0.929 . S
C532 C524 1.378 . S
C532 C527 1.350 . S
C533 H520 0.929 . S
C533 C525 1.433 . S
C533 N535 1.384 . S
N534 C530 1.427 . S
N534 C531 1.384 . S
N535 C527 1.427 . S
N535 C533 1.384 . S
H536 C542 0.930 . S
H537 C546 0.930 1_554 S
H538 C551 0.929 . S
H539 C549 0.929 . S
H540 C544 0.929 . S
H541 C550 0.929 . S
C542 H536 0.930 . S
C542 C543 1.367 . S
C542 C550 1.378 . S
C543 C542 1.367 . S
C543 C551 1.433 . S
C544 H540 0.929 . S
C544 C546 1.378 . S
C544 C548 1.350 . S
C545 C548 1.463 . S
C545 C550 1.350 . S
C545 N553 1.427 . S
C546 H537 0.930 1_556 S
C546 C544 1.378 . S
C546 C547 1.367 . S
C547 C546 1.367 . S
C547 C549 1.433 . S
C548 C544 1.350 . S
C548 C545 1.463 . S
C548 N552 1.427 . S
C549 H539 0.929 . S
C549 C547 1.433 . S
C549 N552 1.384 . S
C550 H541 0.929 . S
C550 C542 1.378 . S
C550 C545 1.350 . S
C551 H538 0.929 . S
C551 C543 1.433 . S
C551 N553 1.384 . S
N552 C548 1.427 . S
N552 C549 1.384 . S
N553 C545 1.427 . S
N553 C551 1.384 . S
H554 C560 0.930 . S
H555 C564 0.930 . S
H556 C569 0.929 . S
H557 C567 0.929 . S
H558 C562 0.929 . S
H559 C568 0.929 . S
C560 H554 0.930 . S
C560 C561 1.367 . S
C560 C568 1.378 . S
C561 C560 1.367 . S
C561 C569 1.433 . S
C562 H558 0.929 . S
C562 C564 1.378 . S
C562 C566 1.350 . S
C563 C566 1.463 . S
C563 C568 1.350 . S
C563 N571 1.427 . S
C564 H555 0.930 . S
C564 C562 1.378 . S
C564 C565 1.367 . S
C565 C564 1.367 . S
C565 C567 1.433 . S
C566 C562 1.350 . S
C566 C563 1.463 . S
C566 N570 1.427 . S
C567 H557 0.929 . S
C567 C565 1.433 . S
C567 N570 1.384 . S
C568 H559 0.929 . S
C568 C560 1.378 . S
C568 C563 1.350 . S
C569 H556 0.929 . S
C569 C561 1.433 . S
C569 N571 1.384 . S
N570 C566 1.427 . S
N570 C567 1.384 . S
N571 C563 1.427 . S
N571 C569 1.384 . S
H572 C578 0.930 . S
H573 C582 0.930 . S
H574 C587 0.929 . S
H575 C585 0.929 . S
H576 C580 0.929 . S
H577 C586 0.929 . S
C578 H572 0.930 . S
C578 C579 1.367 . S
C578 C586 1.378 . S
C579 C578 1.367 . S
C579 C587 1.433 . S
C580 H576 0.929 . S
C580 C582 1.378 . S
C580 C584 1.350 . S
C581 C584 1.463 . S
C581 C586 1.350 . S
C581 N589 1.427 . S
C582 H573 0.930 . S
C582 C580 1.378 . S
C582 C583 1.367 . S
C583 C582 1.367 . S
C583 C585 1.433 . S
C584 C580 1.350 . S
C584 C581 1.463 . S
C584 N588 1.427 . S
C585 H575 0.929 . S
C585 C583 1.433 . S
C585 N588 1.384 . S
C586 H577 0.929 . S
C586 C578 1.378 . S
C586 C581 1.350 . S
C587 H574 0.929 . S
C587 C579 1.433 . S
C587 N589 1.384 . S
N588 C584 1.427 . S
N588 C585 1.384 . S
N589 C581 1.427 . S
N589 C587 1.384 . S
H590 C596 0.930 . S
H591 C600 0.930 . S
H592 C605 0.929 . S
H593 C603 0.929 . S
H594 C598 0.929 . S
H595 C604 0.929 . S
C596 H590 0.930 . S
C596 C597 1.367 . S
C596 C604 1.378 . S
C597 C596 1.367 . S
C597 C605 1.433 . S
C598 H594 0.929 . S
C598 C600 1.378 . S
C598 C602 1.350 . S
C599 C602 1.463 . S
C599 C604 1.350 . S
C599 N607 1.427 . S
C600 H591 0.930 . S
C600 C598 1.378 . S
C600 C601 1.367 . S
C601 C600 1.367 . S
C601 C603 1.433 . S
C602 C598 1.350 . S
C602 C599 1.463 . S
C602 N606 1.427 . S
C603 H593 0.929 . S
C603 C601 1.433 . S
C603 N606 1.384 . S
C604 H595 0.929 . S
C604 C596 1.378 . S
C604 C599 1.350 . S
C605 H592 0.929 . S
C605 C597 1.433 . S
C605 N607 1.384 . S
N606 C602 1.427 . S
N606 C603 1.384 . S
N607 C599 1.427 . S
N607 C605 1.384 . S
H608 C614 0.930 . S
H609 C618 0.930 . S
H610 C623 0.929 . S
H611 C621 0.929 . S
H612 C616 0.929 . S
H613 C622 0.929 . S
C614 H608 0.930 . S
C614 C615 1.367 . S
C614 C622 1.378 . S
C615 C614 1.367 . S
C615 C623 1.433 . S
C616 H612 0.929 . S
C616 C618 1.378 . S
C616 C620 1.350 . S
C617 C620 1.463 . S
C617 C622 1.350 . S
C617 N625 1.427 . S
C618 H609 0.930 . S
C618 C616 1.378 . S
C618 C619 1.367 . S
C619 C618 1.367 . S
C619 C621 1.433 . S
C620 C616 1.350 . S
C620 C617 1.463 . S
C620 N624 1.427 . S
C621 H611 0.929 . S
C621 C619 1.433 . S
C621 N624 1.384 . S
C622 H613 0.929 . S
C622 C614 1.378 . S
C622 C617 1.350 . S
C623 H610 0.929 . S
C623 C615 1.433 . S
C623 N625 1.384 . S
N624 C620 1.427 . S
N624 C621 1.384 . S
N625 C617 1.427 . S
N625 C623 1.384 . S
H626 C632 0.930 . S
H627 C636 0.930 . S
H628 C641 0.929 . S
H629 C639 0.929 . S
H630 C634 0.929 . S
H631 C640 0.929 . S
C632 H626 0.930 . S
C632 C633 1.367 . S
C632 C640 1.378 . S
C633 C632 1.367 . S
C633 C641 1.433 . S
C634 H630 0.929 . S
C634 C636 1.378 . S
C634 C638 1.350 . S
C635 C638 1.463 . S
C635 C640 1.350 . S
C635 N643 1.427 . S
C636 H627 0.930 . S
C636 C634 1.378 . S
C636 C637 1.367 . S
C637 C636 1.367 . S
C637 C639 1.433 . S
C638 C634 1.350 . S
C638 C635 1.463 . S
C638 N642 1.427 . S
C639 H629 0.929 . S
C639 C637 1.433 . S
C639 N642 1.384 . S
C640 H631 0.929 . S
C640 C632 1.378 . S
C640 C635 1.350 . S
C641 H628 0.929 . S
C641 C633 1.433 . S
C641 N643 1.384 . S
N642 C638 1.427 . S
N642 C639 1.384 . S
N643 C635 1.427 . S
N643 C641 1.384 . S
H644 C650 0.930 . S
H645 C654 0.930 . S
H646 C659 0.929 . S
H647 C657 0.929 . S
H648 C652 0.929 . S
H649 C658 0.929 . S
C650 H644 0.930 . S
C650 C651 1.367 . S
C650 C658 1.378 . S
C651 C650 1.367 . S
C651 C659 1.433 . S
C652 H648 0.929 . S
C652 C654 1.378 . S
C652 C656 1.350 . S
C653 C656 1.463 . S
C653 C658 1.350 . S
C653 N661 1.427 . S
C654 H645 0.930 . S
C654 C652 1.378 . S
C654 C655 1.367 . S
C655 C654 1.367 . S
C655 C657 1.433 . S
C656 C652 1.350 . S
C656 C653 1.463 . S
C656 N660 1.427 . S
C657 H647 0.929 . S
C657 C655 1.433 . S
C657 N660 1.384 . S
C658 H649 0.929 . S
C658 C650 1.378 . S
C658 C653 1.350 . S
C659 H646 0.929 . S
C659 C651 1.433 . S
C659 N661 1.384 . S
N660 C656 1.427 . S
N660 C657 1.384 . S
N661 C653 1.427 . S
N661 C659 1.384 . S
H662 C668 0.930 . S
H663 C672 0.930 . S
H664 C677 0.929 . S
H665 C675 0.929 . S
H666 C670 0.929 . S
H667 C676 0.929 . S
C668 H662 0.930 . S
C668 C669 1.367 . S
C668 C676 1.378 . S
C669 C668 1.367 . S
C669 C677 1.433 . S
C670 H666 0.929 . S
C670 C672 1.378 . S
C670 C674 1.350 . S
C671 C674 1.463 . S
C671 C676 1.350 . S
C671 N679 1.427 . S
C672 H663 0.930 . S
C672 C670 1.378 . S
C672 C673 1.367 . S
C673 C672 1.367 . S
C673 C675 1.433 . S
C674 C670 1.350 . S
C674 C671 1.463 . S
C674 N678 1.427 . S
C675 H665 0.929 . S
C675 C673 1.433 . S
C675 N678 1.384 . S
C676 H667 0.929 . S
C676 C668 1.378 . S
C676 C671 1.350 . S
C677 H664 0.929 . S
C677 C669 1.433 . S
C677 N679 1.384 . S
N678 C674 1.427 . S
N678 C675 1.384 . S
N679 C671 1.427 . S
N679 C677 1.384 . S
C255 C5 1.003 . S
C259 C94 1.232 . S
C273 C18 0.992 . S
C277 C143 1.079 . S
C295 C178 2.337 . S
C291 C30 2.369 . S
C309 C41 2.076 . S
C313 C217 2.027 . S
C331 C138 2.347 . S
C327 C7 2.157 . S
C349 C97 0.941 . S
C345 C16 0.860 . S
C367 C227 1.961 . S
C363 C29 1.922 . S
C385 C186 1.232 . S
C381 C38 1.116 . S
C399 C8 1.496 . S
C403 C214 1.592 . S
C421 C146 2.550 . S
C417 C27 2.369 . S
C435 C40 2.433 . S
C439 C107 2.450 . S
C453 C19 0.700 . S
C457 C183 0.705 . S
C475 C103 1.142 . S
C471 C51 1.007 . S
C489 C62 1.365 . S
C493 C134 1.338 . S
C507 C74 2.452 . S
C511 C187 2.427 . S
C525 C84 2.177 . S
C529 C226 2.245 . S
C543 C49 1.956 . S
C547 C147 2.586 1_556 S
C565 C106 0.947 . S
C561 C63 0.967 . S
C583 C218 1.814 . S
C579 C71 1.700 . S
C601 C177 1.363 . S
C597 C85 1.364 . S
C615 C52 1.507 . S
C619 C223 1.606 . S
C637 C137 2.619 . S
C633 C73 2.687 . S
C655 C98 1.983 . S
C651 C82 1.688 . S
C669 C60 0.801 . S
C673 C174 0.825 . S
