# Generated by pormake.
# Topology pth, (4,4)-cn, num edge types: 1
# Building blocks:
#     Node 0, Type 0, BuildingBlock: KUFVIS_clean_sbu_0, # of connection points: 4
#     Node 1, Type 0, BuildingBlock: KUFVIS_clean_sbu_0, # of connection points: 4
#     Node 2, Type 0, BuildingBlock: KUFVIS_clean_sbu_0, # of connection points: 4
#     Node 3, Type 1, BuildingBlock: MUDLON_clean_sbu_0, # of connection points: 4
#     Node 4, Type 1, BuildingBlock: MUDLON_clean_sbu_0, # of connection points: 4
#     Node 5, Type 1, BuildingBlock: MUDLON_clean_sbu_0, # of connection points: 4
#     Edge 6, Type (0, 1), BuildingBlock: OJICUG_clean_linker_0, # of connection points: 2
#     Edge 7, Type (0, 1), BuildingBlock: OJICUG_clean_linker_0, # of connection points: 2
#     Edge 8, Type (0, 1), BuildingBlock: OJICUG_clean_linker_0, # of connection points: 2
#     Edge 9, Type (0, 1), BuildingBlock: OJICUG_clean_linker_0, # of connection points: 2
#     Edge 10, Type (0, 1), BuildingBlock: OJICUG_clean_linker_0, # of connection points: 2
#     Edge 11, Type (0, 1), BuildingBlock: OJICUG_clean_linker_0, # of connection points: 2
#     Edge 12, Type (0, 1), BuildingBlock: OJICUG_clean_linker_0, # of connection points: 2
#     Edge 13, Type (0, 1), BuildingBlock: OJICUG_clean_linker_0, # of connection points: 2
#     Edge 14, Type (0, 1), BuildingBlock: OJICUG_clean_linker_0, # of connection points: 2
#     Edge 15, Type (0, 1), BuildingBlock: OJICUG_clean_linker_0, # of connection points: 2
#     Edge 16, Type (0, 1), BuildingBlock: OJICUG_clean_linker_0, # of connection points: 2
#     Edge 17, Type (0, 1), BuildingBlock: OJICUG_clean_linker_0, # of connection points: 2
# Relax obj value: 0.022
# Max RMSD: 0.096
# Mean RMSD: 0.069
data_MOF--net-pth--node1-KUFVIS_clean_sbu_0--node2-MUDLON_clean_sbu_0--edge1-OJICUG_clean_linker_0
_symmetry_space_group_name_H-M    P1
_symmetry_Int_Tables_number       1
_symmetry_cell_setting            triclinic
loop_
_symmetry_equiv_pos_as_xyz
'x, y, z'
_cell_length_a     16.248633
_cell_length_b     16.285804
_cell_length_c     44.156965
_cell_angle_alpha  89.901626
_cell_angle_beta   92.4368
_cell_angle_gamma 120.19028
loop_
_atom_site_label
_atom_site_type_symbol
_atom_site_fract_x
_atom_site_fract_y
_atom_site_fract_z
_atom_type_partial_charge
Mn0 Mn 0.08788 0.15254 0.08592 0.0
Mn1 Mn 0.98625 0.26081 0.04718 0.0
C2 C 0.98973 0.07865 0.04317 0.0
C3 C 0.08835 0.05688 0.12538 0.0
C4 C 0.19505 0.31723 0.04352 0.0
O5 O 0.10156 0.25505 0.11553 0.0
O6 O 1.0166 0.30982 0.08986 0.0
C7 C 0.80611 0.18576 0.07891 0.0
N8 N 0.85229 0.19857 0.05277 0.0
C9 C 0.70389 0.12075 0.02318 0.0
C10 C 0.6548 0.10765 0.04975 0.0
C11 C 0.70615 0.14005 0.07774 0.0
C12 C 0.80358 0.1675 0.02571 0.0
H13 H 0.84526 0.21003 0.10049 0.0
C14 C 0.06226 0.30609 0.11373 0.0
O15 O 0.16682 0.11945 0.1136 0.0
O16 O 1.00997 0.05134 0.11464 0.0
N17 N 0.95157 0.21904 1.0057 0.0
C18 C 1.00903 0.2297 0.98262 0.0
C19 C 0.96835 0.19611 0.95338 0.0
C20 C 0.86932 0.15349 0.948 0.0
C21 C 0.8117 0.1441 0.97203 0.0
C22 C 0.85623 0.17879 1.00074 0.0
H23 H 0.08515 0.26215 0.98655 0.0
O24 O 0.05052 0.05411 0.05309 0.0
O25 O 0.98681 0.14456 0.05884 0.0
O26 O 0.19201 0.25184 0.06011 0.0
O27 O 0.12375 0.32945 0.03886 0.0
C28 C 0.71157 0.0989 0.96884 0.0
C29 C 0.65771 0.0872 0.99439 0.0
H30 H 0.57766 0.0718 0.04898 0.0
H31 H 0.66873 0.12956 0.09838 0.0
H32 H 1.01317 0.202 0.93512 0.0
H33 H 0.83819 0.12687 0.92545 0.0
H34 H 0.67514 0.07118 0.94694 0.0
H35 H 0.58067 0.05082 0.99174 0.0
Mn36 Mn 0.0543 0.1255 0.42093 0.0
Mn37 Mn 0.21733 0.32408 0.45957 0.0
C38 C 0.13076 0.11302 0.4643 0.0
C39 C 1.01405 1.01014 0.38299 0.0
C40 C 1.00478 0.24283 0.46334 0.0
O41 O 0.08609 0.22907 0.39041 0.0
O42 O 0.19379 0.35843 0.41769 0.0
C43 C 0.38261 0.36587 0.42326 0.0
N44 N 0.34134 0.34759 0.45053 0.0
C45 C 0.48062 0.35807 0.47584 0.0
C46 C 0.52479 0.3776 0.44805 0.0
C47 C 0.4755 0.38137 0.42165 0.0
C48 C 0.38804 0.34353 0.47606 0.0
H49 H 0.34484 0.36833 0.40288 0.0
C50 C 0.14338 0.31846 0.39325 0.0
O51 O 0.95086 0.02877 0.39283 0.0
O52 O 0.10037 0.06002 0.3945 0.0
N53 N 0.24826 0.30284 0.5001 0.0
C54 C 0.19437 0.27982 0.52491 0.0
C55 C 0.23299 0.27234 0.55315 0.0
C56 C 0.32666 0.28899 0.55564 0.0
C57 C 0.38107 0.31347 0.52986 0.0
C58 C 0.33913 0.32087 0.50237 0.0
H59 H 0.12221 0.26645 0.52313 0.0
O60 O 0.04908 0.04211 0.45479 0.0
O61 O 0.16488 0.18943 0.44819 0.0
O62 O 0.98038 0.17339 0.44477 0.0
O63 O 0.09158 0.30332 0.47093 0.0
C64 C 0.47466 0.32911 0.53024 0.0
C65 C 0.52428 0.35107 0.50323 0.0
H66 H 0.59626 0.38917 0.44669 0.0
H67 H 0.50897 0.39596 0.4001 0.0
H68 H 0.19044 0.2532 0.57293 0.0
H69 H 0.35579 0.28202 0.57738 0.0
H70 H 0.50865 0.3231 0.5511 0.0
H71 H 0.59572 0.36171 0.50374 0.0
Mn72 Mn 0.10985 0.16069 0.74937 0.0
Mn73 Mn 0.97523 0.242 0.77878 0.0
C74 C 0.16876 0.26556 0.79024 0.0
C75 C 0.21938 0.16829 0.71544 0.0
C76 C 0.94967 0.04961 0.79339 0.0
O77 O 1.00894 0.1284 0.71576 0.0
O78 O 0.91915 0.17724 0.73844 0.0
C79 C 1.01462 0.38842 0.73278 0.0
N80 N 1.01622 0.36467 0.76232 0.0
C81 C 0.08659 0.52797 0.7789 0.0
C82 C 0.08515 0.554 0.74869 0.0
C83 C 0.04911 0.4839 0.72553 0.0
C84 C 0.05113 0.43165 0.78475 0.0
H85 H 0.98748 0.33504 0.71484 0.0
C86 C 0.93634 0.1387 0.71609 0.0
O87 O 0.1604 0.08958 0.72817 0.0
O88 O 0.21317 0.24276 0.72174 0.0
N89 N 1.01965 0.30751 0.81722 0.0
C90 C 1.01461 0.27064 0.84526 0.0
C91 C 0.04822 0.33163 0.87089 0.0
C92 C 0.08505 0.42955 0.86753 0.0
C93 C 0.08678 0.46551 0.83857 0.0
C94 C 0.05194 0.40126 0.81385 0.0
H95 H 0.98626 0.19548 0.84801 0.0
O96 O 0.20297 0.21077 0.78449 0.0
O97 O 0.1013 0.25888 0.77151 0.0
O98 O 1.01096 0.05411 0.77529 0.0
O99 O 0.93192 0.11683 0.79741 0.0
C100 C 0.1224 0.56269 0.83323 0.0
C101 C 0.12247 0.59393 0.80341 0.0
H102 H 0.11187 0.62761 0.743 0.0
H103 H 0.04807 0.50346 0.70214 0.0
H104 H 0.04614 0.3034 0.89317 0.0
H105 H 0.11152 0.47639 0.88736 0.0
H106 H 0.15024 0.61407 0.85189 0.0
H107 H 0.15044 0.66889 0.79957 0.0
Mg108 Mg 0.08187 0.66863 0.25934 0.0
C109 C 0.10559 0.54319 0.29855 0.0
O110 O 1.0186 0.50007 0.28618 0.0
C111 C 0.07505 0.78012 0.21043 0.0
O112 O 0.99566 0.69747 0.20932 0.0
C113 C 0.09379 0.53936 0.21709 0.0
O114 O 0.17953 0.59094 0.22995 0.0
O115 O 0.02724 0.55263 0.22557 0.0
O116 O 0.16235 0.62908 0.29149 0.0
O117 O 0.99417 0.69 0.29106 0.0
C118 C 0.96191 0.7465 0.2875 0.0
O119 O 0.95634 0.77625 0.26028 0.0
O120 O 0.13923 0.79401 0.23077 0.0
Mg121 Mg 0.57859 0.16151 0.58047 0.0
C122 C 0.37177 0.07171 0.55476 0.0
O123 O 0.35339 0.07738 0.58307 0.0
C124 C 0.71074 0.09354 0.60668 0.0
O125 O 0.76158 0.13838 0.58352 0.0
C126 C 0.4877 0.16212 0.63516 0.0
O127 O 0.48497 0.08035 0.63331 0.0
O128 O 0.53076 0.22319 0.61492 0.0
O129 O 0.45505 0.0901 0.54848 0.0
O130 O 0.70121 0.25053 0.55321 0.0
C131 C 0.6915 0.22737 0.52517 0.0
O132 O 0.60574 0.16746 0.51376 0.0
O133 O 0.62662 0.07982 0.60783 0.0
Mg134 Mg 0.57659 0.68533 0.91356 0.0
C135 C 0.42105 0.53919 0.87944 0.0
O136 O 0.4673 0.50453 0.8948 0.0
C137 C 0.72271 0.82639 0.95137 0.0
O138 O 0.74397 0.76075 0.94492 0.0
C139 C 0.52256 0.53674 0.97069 0.0
O140 O 0.60209 0.53438 0.97379 0.0
O141 O 0.51267 0.58658 0.95029 0.0
O142 O 0.45203 0.62827 0.88172 0.0
O143 O 0.69666 0.71224 0.88612 0.0
C144 C 0.68991 0.71864 0.85746 0.0
O145 O 0.60487 0.67803 0.84378 0.0
O146 O 0.64465 0.81749 0.94031 0.0
C147 C 1.00242 0.39506 0.14364 0.0
C148 C 0.06746 0.36253 0.14082 0.0
H149 H 0.95809 0.4747 0.17038 0.0
C150 C 0.13696 0.38401 0.16424 0.0
H151 H 0.94733 0.379 0.12614 0.0
C152 C 0.14339 0.43935 0.18934 0.0
C153 C 0.07946 0.47309 0.19191 0.0
H154 H 0.18787 0.35987 0.16288 0.0
H155 H 0.19929 0.45658 0.20666 0.0
C156 C 1.00784 0.4491 0.16908 0.0
C157 C 0.94434 0.29949 0.50557 0.0
C158 C 0.92794 0.25106 0.47758 0.0
H159 H 0.88248 0.33042 0.54277 0.0
C160 C 0.83551 0.20569 0.46397 0.0
H161 H 1.01487 0.33586 0.5166 0.0
C162 C 0.76038 0.2043 0.47862 0.0
C163 C 0.77515 0.24688 0.50755 0.0
H164 H 0.82055 0.16906 0.44221 0.0
H165 H 0.68966 0.16572 0.46775 0.0
C166 C 0.86853 0.2968 0.52053 0.0
C167 C 0.83747 0.87424 0.79452 0.0
C168 C 0.89431 0.96122 0.81018 0.0
H169 H 0.72719 0.72821 0.79737 0.0
C170 C 0.89262 0.9642 0.8419 0.0
H171 H 0.83761 0.8704 0.77002 0.0
C172 C 0.83215 0.88244 0.85763 0.0
C173 C 0.77008 0.79672 0.84182 0.0
H174 H 0.93646 0.03027 0.85449 0.0
H175 H 0.82948 0.88816 0.88197 0.0
C176 C 0.77475 0.79299 0.81015 0.0
C177 C 0.17205 1.00177 0.16251 0.0
C178 C 0.08714 0.99089 0.14874 0.0
H179 H 0.23549 0.94412 0.19331 0.0
C180 C 0.99986 0.91317 0.15648 0.0
H181 H 0.24052 0.06123 0.15702 0.0
C182 C 0.99725 0.84629 0.17672 0.0
C183 C 0.08174 0.85563 0.19014 0.0
H184 H 0.93318 0.90256 0.14638 0.0
H185 H 0.92831 0.78665 0.18175 0.0
C186 C 0.16933 0.93499 0.18328 0.0
C187 C 0.15435 0.05927 0.51522 0.0
C188 C 0.18958 0.09655 0.48695 0.0
H189 H 0.18506 0.02252 0.55918 0.0
C190 C 0.2793 0.11204 0.47954 0.0
H191 H 0.08399 0.04414 0.52098 0.0
C192 C 0.33627 0.0975 0.50096 0.0
C193 C 0.30451 0.06759 0.53026 0.0
H194 H 0.30619 0.13737 0.45736 0.0
H195 H 0.40703 0.1145 0.49501 0.0
C196 C 0.21189 0.0462 0.5369 0.0
C197 C 0.25927 0.4355 0.80869 0.0
C198 C 0.21562 0.33791 0.81469 0.0
H199 H 0.35775 0.57791 0.82512 0.0
C200 C 0.23179 0.30929 0.84313 0.0
H201 H 0.24968 0.45889 0.78652 0.0
C202 C 0.29269 0.37641 0.86494 0.0
C203 C 0.34071 0.47385 0.85862 0.0
H204 H 0.19986 0.23446 0.84809 0.0
H205 H 0.30606 0.35146 0.88633 0.0
C206 C 0.32091 0.50339 0.83069 0.0
C207 C 0.90521 0.10553 0.65999 0.0
C208 C 0.87218 0.11127 0.68842 0.0
H209 H 0.8796 0.09475 0.61174 0.0
C210 C 0.77984 0.09763 0.68975 0.0
H211 H 0.97593 0.11553 0.65813 0.0
C212 C 0.72389 0.0838 0.66318 0.0
C213 C 0.75977 0.08513 0.63462 0.0
H214 H 0.75186 0.10066 0.71129 0.0
H215 H 0.65489 0.07799 0.66501 0.0
C216 C 0.84994 0.09343 0.63337 0.0
C217 C 0.95237 1.00429 0.99166 0.0
C218 C 0.9205 0.02384 0.01818 0.0
H219 H 0.91338 0.92884 0.94903 0.0
C220 C 0.82202 0.98271 0.02175 0.0
H221 H 0.02789 0.03369 0.98873 0.0
C222 C 0.7563 0.92434 0.99874 0.0
C223 C 0.78854 0.90408 0.97236 0.0
H224 H 0.79597 0.99379 0.04264 0.0
H225 H 0.68071 0.89088 1.0023 0.0
C226 C 0.88701 0.94517 0.96894 0.0
C227 C 0.03576 0.8807 0.36243 0.0
C228 C 0.98969 0.93395 0.3603 0.0
H229 H 0.05971 0.77657 0.34175 0.0
C230 C 0.92479 0.91663 0.33575 0.0
H231 H 0.08544 0.89213 0.38132 0.0
C232 C 0.91137 0.85155 0.31258 0.0
C233 C 0.96032 0.8007 0.31418 0.0
H234 H 0.88835 0.95687 0.33368 0.0
H235 H 0.86524 0.84331 0.29297 0.0
C236 C 1.02016 0.81377 0.33988 0.0
C237 C 0.34074 0.24729 0.67559 0.0
C238 C 0.29261 0.17248 0.69572 0.0
H239 H 0.44093 0.30328 0.64023 0.0
C240 C 0.31487 0.09985 0.69715 0.0
H241 H 0.32513 0.30452 0.67416 0.0
C242 C 0.38174 0.1002 0.67844 0.0
C243 C 0.4274 0.17242 0.65735 0.0
H244 H 0.28027 0.04204 0.71272 0.0
H245 H 0.3957 0.04189 0.68009 0.0
C246 C 0.40733 0.24695 0.65634 0.0
C247 C 0.28498 0.44509 1.00653 0.0
C248 C 0.28287 0.37786 0.02693 0.0
H249 H 0.36084 0.54668 0.97309 0.0
C250 C 0.36279 0.3655 0.02963 0.0
H251 H 0.22517 0.45683 1.00369 0.0
C252 C 0.44181 0.41778 1.01184 0.0
C253 C 0.44225 0.48307 0.99089 0.0
H254 H 0.36371 0.31423 0.04508 0.0
H255 H 0.50156 0.40581 1.0141 0.0
C256 C 0.36318 0.49661 0.98879 0.0
C257 C 0.09171 0.33591 0.34059 0.0
C258 C 0.14703 0.3789 0.36737 0.0
H259 H 0.03715 0.3546 0.29795 0.0
C260 C 0.19963 0.47909 0.36958 0.0
H261 H 0.05121 0.25931 0.33769 0.0
C262 C 0.1921 0.53439 0.34628 0.0
C263 C 0.13135 0.49021 0.32058 0.0
H264 H 0.24356 0.51475 0.38977 0.0
H265 H 0.22931 0.61098 0.34916 0.0
C266 C 0.08373 0.39071 0.31766 0.0
loop_
_geom_bond_atom_site_label_1
_geom_bond_atom_site_label_2
_geom_bond_distance
_geom_bond_site_symmetry_2
_ccdc_geom_bond_type
Mn0 O5 2.095 . S
Mn0 O15 2.162 . S
Mn0 O16 2.297 . S
Mn0 O24 2.385 . S
Mn0 O25 2.209 1_455 S
Mn0 O26 2.094 . S
Mn1 O6 2.121 1_655 S
Mn1 N8 2.257 . S
Mn1 N17 2.282 1_554 S
Mn1 O25 2.215 . S
Mn1 O27 2.117 1_655 S
C2 O24 1.234 1_655 S
C2 O25 1.283 . S
C3 O15 1.281 . S
C3 O16 1.236 . S
C4 O26 1.240 . S
C4 O27 1.264 . S
O5 Mn0 2.095 . S
O5 C14 1.250 . S
O6 Mn1 2.121 1_455 S
O6 C14 1.258 . S
C7 N8 1.326 . S
C7 C11 1.460 . S
C7 H13 0.929 . S
N8 Mn1 2.257 . S
N8 C7 1.326 . S
N8 C12 1.362 1_554 S
C9 C10 1.258 1_556 S
C9 C12 1.431 . S
C9 C29 1.449 . S
C10 C9 1.258 1_554 S
C10 C11 1.477 . S
C10 H30 0.931 . S
C11 C7 1.460 . S
C11 C10 1.477 . S
C11 H31 0.930 . S
C12 N8 1.362 1_556 S
C12 C9 1.431 . S
C12 C22 1.476 . S
H13 C7 0.929 . S
C14 O5 1.250 . S
C14 O6 1.258 . S
O15 Mn0 2.162 . S
O15 C3 1.281 . S
O16 Mn0 2.297 . S
O16 C3 1.236 . S
N17 Mn1 2.282 1_556 S
N17 C18 1.328 . S
N17 C22 1.318 . S
C18 N17 1.328 . S
C18 C19 1.457 . S
C18 H23 0.929 1_655 S
C19 C18 1.457 . S
C19 C20 1.291 . S
C19 H32 0.931 . S
C20 C19 1.291 . S
C20 C21 1.373 . S
C20 H33 0.929 . S
C21 C20 1.373 . S
C21 C22 1.396 . S
C21 C28 1.403 . S
C22 C12 1.476 . S
C22 N17 1.318 . S
C22 C21 1.396 . S
H23 C18 0.929 1_455 S
O24 Mn0 2.385 . S
O24 C2 1.234 1_455 S
O25 Mn0 2.209 1_655 S
O25 Mn1 2.215 . S
O25 C2 1.283 . S
O26 Mn0 2.094 . S
O26 C4 1.240 . S
O27 Mn1 2.117 1_455 S
O27 C4 1.264 . S
C28 C21 1.403 . S
C28 C29 1.399 . S
C28 H34 0.929 . S
C29 C9 1.449 . S
C29 C28 1.399 . S
C29 H35 0.930 . S
H30 C10 0.931 . S
H31 C11 0.930 . S
H32 C19 0.931 . S
H33 C20 0.929 . S
H34 C28 0.929 . S
H35 C29 0.930 . S
Mn36 O41 2.095 1_455 S
Mn36 O51 2.162 1_445 S
Mn36 O52 2.297 . S
Mn36 O60 2.385 . S
Mn36 O61 2.209 . S
Mn36 O62 2.094 1_455 S
Mn37 O42 2.121 . S
Mn37 N44 2.257 . S
Mn37 N53 2.282 . S
Mn37 O61 2.215 . S
Mn37 O63 2.117 1_455 S
C38 O60 1.234 . S
C38 O61 1.283 . S
C39 O51 1.281 1_455 S
C39 O52 1.236 1_565 S
C40 O62 1.240 . S
C40 O63 1.264 . S
O41 Mn36 2.095 1_655 S
O41 C50 1.250 1_655 S
O42 Mn37 2.121 . S
O42 C50 1.258 . S
C43 N44 1.326 . S
C43 C47 1.460 . S
C43 H49 0.929 . S
N44 Mn37 2.257 . S
N44 C43 1.326 . S
N44 C48 1.362 . S
C45 C46 1.258 . S
C45 C48 1.431 . S
C45 C65 1.449 . S
C46 C45 1.258 . S
C46 C47 1.477 . S
C46 H66 0.931 . S
C47 C43 1.460 . S
C47 C46 1.477 . S
C47 H67 0.930 . S
C48 N44 1.362 . S
C48 C45 1.431 . S
C48 C58 1.476 . S
H49 C43 0.929 . S
C50 O41 1.250 1_455 S
C50 O42 1.258 . S
O51 Mn36 2.162 1_665 S
O51 C39 1.281 1_655 S
O52 Mn36 2.297 . S
O52 C39 1.236 1_545 S
N53 Mn37 2.282 . S
N53 C54 1.328 . S
N53 C58 1.318 . S
C54 N53 1.328 . S
C54 C55 1.457 . S
C54 H59 0.929 . S
C55 C54 1.457 . S
C55 C56 1.291 . S
C55 H68 0.931 . S
C56 C55 1.291 . S
C56 C57 1.373 . S
C56 H69 0.929 . S
C57 C56 1.373 . S
C57 C58 1.396 . S
C57 C64 1.403 . S
C58 C48 1.476 . S
C58 N53 1.318 . S
C58 C57 1.396 . S
H59 C54 0.929 . S
O60 Mn36 2.385 . S
O60 C38 1.234 . S
O61 Mn36 2.209 . S
O61 Mn37 2.215 . S
O61 C38 1.283 . S
O62 Mn36 2.094 1_655 S
O62 C40 1.240 . S
O63 Mn37 2.117 1_655 S
O63 C40 1.264 . S
C64 C57 1.403 . S
C64 C65 1.399 . S
C64 H70 0.929 . S
C65 C45 1.449 . S
C65 C64 1.399 . S
C65 H71 0.930 . S
H66 C46 0.931 . S
H67 C47 0.930 . S
H68 C55 0.931 . S
H69 C56 0.929 . S
H70 C64 0.929 . S
H71 C65 0.930 . S
Mn72 O77 2.095 1_455 S
Mn72 O87 2.162 . S
Mn72 O88 2.297 . S
Mn72 O96 2.385 . S
Mn72 O97 2.209 . S
Mn72 O98 2.094 1_455 S
Mn73 O78 2.121 . S
Mn73 N80 2.260 1_655 S
Mn73 N89 2.282 1_655 S
Mn73 O97 2.215 1_655 S
Mn73 O99 2.117 . S
C74 O96 1.234 . S
C74 O97 1.283 . S
C75 O87 1.281 . S
C75 O88 1.236 . S
C76 O98 1.240 . S
C76 O99 1.264 . S
O77 Mn72 2.095 1_655 S
O77 C86 1.250 . S
O78 Mn73 2.121 . S
O78 C86 1.258 . S
C79 N80 1.321 1_655 S
C79 C83 1.460 1_655 S
C79 H85 0.929 . S
N80 Mn73 2.260 1_455 S
N80 C79 1.321 1_455 S
N80 C84 1.364 . S
C81 C82 1.258 . S
C81 C84 1.431 . S
C81 C101 1.449 . S
C82 C81 1.258 . S
C82 C83 1.477 . S
C82 H102 0.931 . S
C83 C79 1.460 1_455 S
C83 C82 1.477 . S
C83 H103 0.930 . S
C84 N80 1.364 . S
C84 C81 1.431 . S
C84 C94 1.476 . S
H85 C79 0.929 . S
C86 O77 1.250 . S
C86 O78 1.258 . S
O87 Mn72 2.162 . S
O87 C75 1.281 . S
O88 Mn72 2.297 . S
O88 C75 1.236 . S
N89 Mn73 2.282 1_455 S
N89 C90 1.328 . S
N89 C94 1.318 . S
C90 N89 1.328 . S
C90 C91 1.457 . S
C90 H95 0.929 . S
C91 C90 1.457 . S
C91 C92 1.291 . S
C91 H104 0.931 . S
C92 C91 1.291 . S
C92 C93 1.373 . S
C92 H105 0.929 . S
C93 C92 1.373 . S
C93 C94 1.396 . S
C93 C100 1.403 . S
C94 C84 1.476 . S
C94 N89 1.318 . S
C94 C93 1.396 . S
H95 C90 0.929 . S
O96 Mn72 2.385 . S
O96 C74 1.234 . S
O97 Mn72 2.209 . S
O97 Mn73 2.215 1_455 S
O97 C74 1.283 . S
O98 Mn72 2.094 1_655 S
O98 C76 1.240 . S
O99 Mn73 2.117 . S
O99 C76 1.264 . S
C100 C93 1.403 . S
C100 C101 1.399 . S
C100 H106 0.929 . S
C101 C81 1.449 . S
C101 C100 1.399 . S
C101 H107 0.930 . S
H102 C82 0.931 . S
H103 C83 0.930 . S
H104 C91 0.931 . S
H105 C92 0.929 . S
H106 C100 0.929 . S
H107 C101 0.930 . S
Mg108 O115 2.141 . S
Mg108 O116 2.048 . S
Mg108 O117 2.048 . S
Mg108 O120 2.141 . S
C109 O110 1.313 1_455 S
C109 O116 1.195 . S
O110 C109 1.313 1_655 S
C111 O112 1.245 1_455 S
C111 O120 1.289 . S
O112 C111 1.245 1_655 S
C113 O114 1.245 1_455 S
C113 O115 1.289 . S
O114 C113 1.245 1_655 S
O115 Mg108 2.141 . S
O115 C113 1.289 . S
O116 Mg108 2.048 . S
O116 C109 1.195 . S
O117 Mg108 2.048 . S
O117 C118 1.195 . S
C118 O117 1.195 . S
C118 O119 1.313 1_455 S
O119 C118 1.313 1_655 S
O120 Mg108 2.141 . S
O120 C111 1.289 . S
Mg121 O128 2.141 . S
Mg121 O129 2.048 . S
Mg121 O130 2.048 . S
Mg121 O133 2.141 . S
C122 O123 1.313 . S
C122 O129 1.195 . S
O123 C122 1.313 . S
C124 O125 1.245 . S
C124 O133 1.289 . S
O125 C124 1.245 . S
C126 O127 1.245 . S
C126 O128 1.289 . S
O127 C126 1.245 . S
O128 Mg121 2.141 . S
O128 C126 1.289 . S
O129 Mg121 2.048 . S
O129 C122 1.195 . S
O130 Mg121 2.048 . S
O130 C131 1.195 . S
C131 O130 1.195 . S
C131 O132 1.313 . S
O132 C131 1.313 . S
O133 Mg121 2.141 . S
O133 C124 1.289 . S
Mg134 O141 2.141 . S
Mg134 O142 2.048 . S
Mg134 O143 2.048 . S
Mg134 O146 2.141 . S
C135 O136 1.313 . S
C135 O142 1.195 . S
O136 C135 1.313 . S
C137 O138 1.245 . S
C137 O146 1.289 . S
O138 C137 1.245 . S
C139 O140 1.245 . S
C139 O141 1.289 . S
O140 C139 1.245 . S
O141 Mg134 2.141 . S
O141 C139 1.289 . S
O142 Mg134 2.048 . S
O142 C135 1.195 . S
O143 Mg134 2.048 . S
O143 C144 1.195 . S
C144 O143 1.195 . S
C144 O145 1.313 . S
O145 C144 1.313 . S
O146 Mg134 2.141 . S
O146 C137 1.289 . S
C147 C148 1.387 . S
C147 H151 0.950 . S
C147 C156 1.390 . S
C148 C147 1.387 . S
C148 C150 1.387 1_455 S
H149 C156 0.950 . S
C150 C148 1.387 1_655 S
C150 C152 1.390 . S
C150 H154 0.950 . S
H151 C147 0.950 . S
C152 C150 1.390 . S
C152 C153 1.387 1_655 S
C152 H155 0.950 . S
C153 C152 1.387 1_455 S
C153 C156 1.387 . S
H154 C150 0.950 . S
H155 C152 0.950 . S
C156 C147 1.390 . S
C156 H149 0.950 . S
C156 C153 1.387 . S
C157 C158 1.387 . S
C157 H161 0.950 . S
C157 C166 1.390 . S
C158 C157 1.387 . S
C158 C160 1.387 . S
H159 C166 0.950 . S
C160 C158 1.387 . S
C160 C162 1.390 . S
C160 H164 0.950 1_545 S
H161 C157 0.950 . S
C162 C160 1.390 . S
C162 C163 1.387 . S
C162 H165 0.950 . S
C163 C162 1.387 . S
C163 C166 1.387 . S
H164 C160 0.950 1_565 S
H165 C162 0.950 . S
C166 C157 1.390 . S
C166 H159 0.950 . S
C166 C163 1.387 . S
C167 C168 1.387 . S
C167 H171 0.950 . S
C167 C176 1.390 . S
C168 C167 1.387 . S
C168 C170 1.387 . S
H169 C176 0.950 . S
C170 C168 1.387 . S
C170 C172 1.390 . S
C170 H174 0.950 1_565 S
H171 C167 0.950 . S
C172 C170 1.390 . S
C172 C173 1.387 . S
C172 H175 0.950 . S
C173 C172 1.387 . S
C173 C176 1.387 . S
H174 C170 0.950 1_545 S
H175 C172 0.950 . S
C176 C167 1.390 . S
C176 H169 0.950 . S
C176 C173 1.387 . S
C177 C178 1.387 . S
C177 H181 0.950 . S
C177 C186 1.390 . S
C178 C177 1.387 . S
C178 C180 1.387 . S
H179 C186 0.950 . S
C180 C178 1.387 . S
C180 C182 1.390 . S
C180 H184 0.950 1_565 S
H181 C177 0.950 . S
C182 C180 1.390 . S
C182 C183 1.387 . S
C182 H185 0.950 . S
C183 C182 1.387 . S
C183 C186 1.387 . S
H184 C180 0.950 1_545 S
H185 C182 0.950 . S
C186 C177 1.390 . S
C186 H179 0.950 . S
C186 C183 1.387 . S
C187 C188 1.387 . S
C187 H191 0.950 . S
C187 C196 1.390 . S
C188 C187 1.387 . S
C188 C190 1.387 . S
H189 C196 0.950 . S
C190 C188 1.387 . S
C190 C192 1.390 . S
C190 H194 0.950 . S
H191 C187 0.950 . S
C192 C190 1.390 . S
C192 C193 1.387 . S
C192 H195 0.950 . S
C193 C192 1.387 . S
C193 C196 1.387 . S
H194 C190 0.950 . S
H195 C192 0.950 . S
C196 C187 1.390 . S
C196 H189 0.950 . S
C196 C193 1.387 . S
C197 C198 1.387 . S
C197 H201 0.950 . S
C197 C206 1.390 . S
C198 C197 1.387 . S
C198 C200 1.387 . S
H199 C206 0.950 . S
C200 C198 1.387 . S
C200 C202 1.390 . S
C200 H204 0.950 . S
H201 C197 0.950 . S
C202 C200 1.390 . S
C202 C203 1.387 . S
C202 H205 0.950 . S
C203 C202 1.387 . S
C203 C206 1.387 . S
H204 C200 0.950 . S
H205 C202 0.950 . S
C206 C197 1.390 . S
C206 H199 0.950 . S
C206 C203 1.387 . S
C207 C208 1.387 . S
C207 H211 0.950 . S
C207 C216 1.390 . S
C208 C207 1.387 . S
C208 C210 1.387 . S
H209 C216 0.950 . S
C210 C208 1.387 . S
C210 C212 1.390 . S
C210 H214 0.950 . S
H211 C207 0.950 . S
C212 C210 1.390 . S
C212 C213 1.387 . S
C212 H215 0.950 . S
C213 C212 1.387 . S
C213 C216 1.387 . S
H214 C210 0.950 . S
H215 C212 0.950 . S
C216 C207 1.390 . S
C216 H209 0.950 . S
C216 C213 1.387 . S
C217 C218 1.387 1_556 S
C217 H221 0.950 . S
C217 C226 1.390 . S
C218 C217 1.387 1_554 S
C218 C220 1.387 . S
H219 C226 0.950 . S
C220 C218 1.387 . S
C220 C222 1.390 1_554 S
C220 H224 0.950 . S
H221 C217 0.950 . S
C222 C220 1.390 1_556 S
C222 C223 1.387 . S
C222 H225 0.950 . S
C223 C222 1.387 . S
C223 C226 1.387 . S
H224 C220 0.950 . S
H225 C222 0.950 . S
C226 C217 1.390 . S
C226 H219 0.950 . S
C226 C223 1.387 . S
C227 C228 1.387 . S
C227 H231 0.950 1_565 S
C227 C236 1.390 . S
C228 C227 1.387 . S
C228 C230 1.387 1_455 S
H229 C236 0.950 . S
C230 C228 1.387 1_655 S
C230 C232 1.390 . S
C230 H234 0.950 . S
H231 C227 0.950 1_545 S
C232 C230 1.390 . S
C232 C233 1.387 1_655 S
C232 H235 0.950 . S
C233 C232 1.387 1_455 S
C233 C236 1.387 . S
H234 C230 0.950 . S
H235 C232 0.950 . S
C236 C227 1.390 . S
C236 H229 0.950 . S
C236 C233 1.387 . S
C237 C238 1.387 . S
C237 H241 0.950 . S
C237 C246 1.390 . S
C238 C237 1.387 . S
C238 C240 1.387 . S
H239 C246 0.950 . S
C240 C238 1.387 . S
C240 C242 1.390 . S
C240 H244 0.950 . S
H241 C237 0.950 . S
C242 C240 1.390 . S
C242 C243 1.387 . S
C242 H245 0.950 . S
C243 C242 1.387 . S
C243 C246 1.387 . S
H244 C240 0.950 . S
H245 C242 0.950 . S
C246 C237 1.390 . S
C246 H239 0.950 . S
C246 C243 1.387 . S
C247 C248 1.387 . S
C247 H251 0.950 . S
C247 C256 1.390 1_554 S
C248 C247 1.387 . S
C248 C250 1.387 1_554 S
H249 C256 0.950 1_554 S
C250 C248 1.387 1_556 S
C250 C252 1.390 . S
C250 H254 0.950 . S
H251 C247 0.950 . S
C252 C250 1.390 . S
C252 C253 1.387 . S
C252 H255 0.950 . S
C253 C252 1.387 . S
C253 C256 1.387 . S
H254 C250 0.950 . S
H255 C252 0.950 . S
C256 C247 1.390 1_556 S
C256 H249 0.950 1_556 S
C256 C253 1.387 . S
C257 C258 1.387 . S
C257 H261 0.950 . S
C257 C266 1.390 . S
C258 C257 1.387 . S
C258 C260 1.387 . S
H259 C266 0.950 . S
C260 C258 1.387 . S
C260 C262 1.390 . S
C260 H264 0.950 . S
H261 C257 0.950 . S
C262 C260 1.390 . S
C262 C263 1.387 . S
C262 H265 0.954 . S
C263 C262 1.387 . S
C263 C266 1.387 . S
H264 C260 0.950 . S
H265 C262 0.954 . S
C266 C257 1.390 . S
C266 H259 0.950 . S
C266 C263 1.387 . S
C153 C113 1.438 . S
C148 C14 1.426 . S
C158 C40 1.483 . S
C163 C131 1.491 . S
C168 C76 1.475 1_565 S
C173 C144 1.482 . S
C178 C3 1.413 1_565 S
C183 C111 1.413 . S
C193 C122 1.502 . S
C188 C38 1.489 . S
C198 C74 1.473 . S
C203 C135 1.489 . S
C213 C124 1.403 . S
C208 C86 1.388 . S
C218 C2 1.418 1_565 S
C223 C137 1.428 . S
C233 C118 1.462 . S
C228 C39 1.469 . S
C243 C126 1.410 . S
C238 C75 1.428 . S
C253 C139 1.422 . S
C248 C4 1.418 . S
C258 C50 1.473 . S
C263 C109 1.506 . S
