# Generated by pormake.
# Topology nia, (6,6)-cn, num edge types: 1
# Building blocks:
#     Node 0, Type 0, BuildingBlock: KUMBUR_clean_sbu_1, # of connection points: 6
#     Node 1, Type 0, BuildingBlock: KUMBUR_clean_sbu_1, # of connection points: 6
#     Node 2, Type 1, BuildingBlock: MIDCAF_clean_sbu_0, # of connection points: 6
#     Node 3, Type 1, BuildingBlock: MIDCAF_clean_sbu_0, # of connection points: 6
#     Edge 4, Type (0, 1), BuildingBlock: KIFKEQ_clean_linker_1, # of connection points: 2
#     Edge 5, Type (0, 1), BuildingBlock: KIFKEQ_clean_linker_1, # of connection points: 2
#     Edge 6, Type (0, 1), BuildingBlock: KIFKEQ_clean_linker_1, # of connection points: 2
#     Edge 7, Type (0, 1), BuildingBlock: KIFKEQ_clean_linker_1, # of connection points: 2
#     Edge 8, Type (0, 1), BuildingBlock: KIFKEQ_clean_linker_1, # of connection points: 2
#     Edge 9, Type (0, 1), BuildingBlock: KIFKEQ_clean_linker_1, # of connection points: 2
#     Edge 10, Type (0, 1), BuildingBlock: KIFKEQ_clean_linker_1, # of connection points: 2
#     Edge 11, Type (0, 1), BuildingBlock: KIFKEQ_clean_linker_1, # of connection points: 2
#     Edge 12, Type (0, 1), BuildingBlock: KIFKEQ_clean_linker_1, # of connection points: 2
#     Edge 13, Type (0, 1), BuildingBlock: KIFKEQ_clean_linker_1, # of connection points: 2
#     Edge 14, Type (0, 1), BuildingBlock: KIFKEQ_clean_linker_1, # of connection points: 2
#     Edge 15, Type (0, 1), BuildingBlock: KIFKEQ_clean_linker_1, # of connection points: 2
# Relax obj value: 0.170
# Max RMSD: 0.279
# Mean RMSD: 0.201
data_MOF--net-nia--node1-KUMBUR_clean_sbu_1--node2-MIDCAF_clean_sbu_0--edge1-KIFKEQ_clean_linker_1
_symmetry_space_group_name_H-M    P1
_symmetry_Int_Tables_number       1
_symmetry_cell_setting            triclinic
loop_
_symmetry_equiv_pos_as_xyz
'x, y, z'
_cell_length_a     28.774983
_cell_length_b     28.801217
_cell_length_c     31.695707
_cell_angle_alpha  89.746172
_cell_angle_beta   90.139306
_cell_angle_gamma 135.5079
loop_
_atom_site_label
_atom_site_type_symbol
_atom_site_fract_x
_atom_site_fract_y
_atom_site_fract_z
_atom_type_partial_charge
Tb0 Tb 0.03856 0.98283 0.06137 0.0
C1 C 0.96429 0.99217 0.87442 0.0
N2 N 0.0133 0.04319 0.89989 0.0
C3 C 0.08884 0.09853 0.84143 0.0
C4 C 0.97612 0.99174 0.8314 0.0
C5 C 0.07459 0.09684 0.88388 0.0
C6 C 0.0395 0.0456 0.81515 0.0
C7 C 0.85013 0.88557 0.86664 0.0
C8 C 0.90206 0.93985 0.89176 0.0
C9 C 0.86168 0.88478 0.82372 0.0
C10 C 0.92451 0.93772 0.80614 0.0
Tb11 Tb 0.98421 0.03371 0.96861 0.0
N12 N 0.89362 0.94096 0.93389 0.0
C13 C 0.78846 0.83344 0.88558 0.0
C14 C 0.83289 0.89152 0.95216 0.0
C15 C 0.77971 0.83671 0.92842 0.0
H16 H 0.11203 0.13893 0.90373 0.0
H17 H 0.73193 0.79707 0.94318 0.0
H18 H 0.94167 0.93964 0.14219 0.0
H19 H 0.30454 0.19092 0.0377 0.0
H20 H 0.82507 0.89383 0.98496 0.0
H21 H 0.74726 0.7907 0.86739 0.0
H22 H 0.1943 0.08181 0.022 0.0
H23 H 0.13766 0.14085 0.82893 0.0
H24 H 0.82245 0.84337 0.80389 0.0
H25 H 0.93265 0.93639 0.77301 0.0
H26 H 0.95316 0.98565 0.21168 0.0
H27 H 0.05064 0.04715 0.78233 0.0
H28 H 0.32296 0.25028 0.10214 0.0
N29 N 0.04328 0.0206 0.12598 0.0
C30 C 0.10416 0.07882 0.13845 0.0
C31 C -0.00404 0.01245 0.19133 0.0
C32 C 0.11291 0.10712 0.17766 0.0
C33 C 0.98948 0.98669 0.15191 0.0
C34 C 0.05787 0.07304 0.20423 0.0
N35 N 0.14629 0.08279 0.0728 0.0
C36 C 0.19944 0.10871 0.04827 0.0
C37 C 0.22043 0.17306 0.12206 0.0
C38 C 0.15696 0.11157 0.11063 0.0
C39 C 0.27345 0.20305 0.09455 0.0
C40 C 0.26313 0.16999 0.05797 0.0
H41 H 0.0626 0.09322 0.23459 0.0
H42 H 0.18334 0.19192 0.21844 0.0
H43 H 0.27757 0.24947 0.1699 0.0
O44 O 0.08864 0.95428 0.06624 0.0
O45 O 0.0303 0.05211 0.07198 0.0
O46 O 0.06593 0.11114 1.01053 0.0
O47 O 0.01174 0.91729 0.10967 0.0
O48 O 0.08269 0.00707 0.99812 0.0
O49 O 0.08726 0.08631 0.97611 0.0
O50 O 0.92739 0.05263 0.98219 0.0
O51 O 0.96744 0.94768 0.9564 0.0
O52 O 0.96077 0.90099 0.01944 0.0
O53 O -0.00447 0.10079 0.93004 0.0
O54 O 0.92409 0.98867 0.02651 0.0
O55 O 0.93206 0.92171 0.05943 0.0
C56 C 0.06092 0.10742 0.05184 0.0
C57 C 0.02616 0.84828 0.09583 0.0
C58 C 0.03503 0.77255 0.11539 0.0
C59 C 0.97214 0.72017 0.09725 0.0
C60 C 0.96397 0.79547 0.07778 0.0
C61 C 0.9373 0.73181 0.07836 0.0
C62 C 0.06176 0.83686 0.11417 0.0
C63 C 0.1048 0.0552 0.97219 0.0
C64 C 0.05296 0.91478 0.09793 0.0
C65 C 0.17572 0.16902 0.18862 0.0
C66 C 0.22929 0.20196 0.16086 0.0
C67 C 0.94996 0.89851 0.97861 0.0
C68 C 0.9732 0.15716 0.96066 0.0
C69 C 0.96016 0.23071 0.94658 0.0
C70 C 0.00895 0.2748 0.9771 0.0
C71 C 0.02201 0.20175 0.99076 0.0
C72 C 0.94284 0.17198 0.93845 0.0
C73 C 0.03981 0.2604 0.99888 0.0
C74 C 0.90331 0.94196 0.05366 0.0
C75 C 0.95336 0.09516 0.9514 0.0
H76 H 0.94909 0.66982 0.09824 0.0
H77 H 0.93565 0.80337 0.06404 0.0
H78 H 0.88897 0.69111 0.06468 0.0
H79 H 0.11023 0.87828 0.12748 0.0
H80 H 0.02337 0.32047 0.98398 0.0
H81 H 0.04616 0.1912 1.00785 0.0
H82 H 0.90462 0.137 0.91548 0.0
H83 H 0.07745 0.29468 0.02221 0.0
Tb84 Tb 0.01192 0.95624 0.47349 0.0
C85 C 0.1013 0.12407 0.62888 0.0
N86 N 0.04115 0.06144 0.62248 0.0
C87 C 0.04668 0.02852 0.69033 0.0
C88 C 0.13836 0.14083 0.66551 0.0
C89 C 0.01194 0.01443 0.65335 0.0
C90 C 0.11064 0.09177 0.69618 0.0
C91 C 0.18595 0.23762 0.60464 0.0
C92 C 0.12462 0.17138 0.59879 0.0
C93 C 0.22498 0.25427 0.64001 0.0
C94 C 0.20118 0.20592 0.67043 0.0
Tb95 Tb 0.98936 0.04183 0.56046 0.0
N96 N 0.08489 0.15324 0.5654 0.0
C97 C 0.20484 0.28545 0.57572 0.0
C98 C 0.10017 0.20095 0.53975 0.0
C99 C 0.16104 0.26722 0.54368 0.0
H100 H 0.96252 0.96574 0.64889 0.0
H101 H 0.1736 0.30436 0.52243 0.0
H102 H 0.10412 0.06991 0.39665 0.0
H103 H 0.78007 0.69926 0.46279 0.0
H104 H 0.06532 0.18855 0.5165 0.0
H105 H 0.25158 0.33694 0.57902 0.0
H106 H 0.88629 0.79814 0.49585 0.0
H107 H 0.02429 0.99048 0.71409 0.0
H108 H 0.27265 0.30475 0.64477 0.0
H109 H 0.23101 0.21969 0.69805 0.0
H110 H 0.08512 0.09047 0.32629 0.0
H111 H 0.13769 0.10251 0.72469 0.0
H112 H 0.74856 0.70915 0.39309 0.0
N113 N 0.00319 0.97877 0.40601 0.0
C114 C 0.9443 0.92909 0.3865 0.0
C115 C 0.04456 0.04536 0.34322 0.0
C116 C 0.9319 0.93692 0.34536 0.0
C117 C 0.0547 0.03439 0.38372 0.0
C118 C 0.98234 -0.00302 0.32432 0.0
N119 N 0.91283 0.86294 0.44592 0.0
C120 C 0.87254 0.80267 0.46553 0.0
C121 C 0.83842 0.81379 0.38661 0.0
C122 C 0.89821 0.86851 0.4067 0.0
C123 C 0.79507 0.75246 0.40742 0.0
C124 C 0.81263 0.74672 0.44683 0.0
H125 H 0.9748 0.00514 0.29276 0.0
H126 H 0.86005 0.88899 0.29457 0.0
H127 H 0.77806 0.78098 0.33077 0.0
O128 O 0.03735 0.90627 0.49133 0.0
O129 O 0.91624 0.92139 0.48702 0.0
O130 O 0.93808 0.01334 0.50007 0.0
O131 O 0.05518 0.94302 0.42832 0.0
O132 O 0.97885 0.90979 0.5363 0.0
O133 O 0.92594 0.93481 0.56877 0.0
O134 O 0.9708 0.09384 0.58798 0.0
O135 O 0.0525 0.02598 0.57199 0.0
O136 O 0.09939 0.0428 0.50806 0.0
O137 O 0.89774 0.98781 0.59032 0.0
O138 O 0.01762 0.08259 0.49568 0.0
O139 O 0.07875 0.06425 0.47005 0.0
C140 C 0.90374 0.95661 0.48076 0.0
C141 C 0.12908 0.94028 0.4555 0.0
C142 C 0.20085 0.92672 0.43674 0.0
C143 C 0.25326 0.98523 0.45867 0.0
C144 C 0.18206 -0.00097 0.47674 0.0
C145 C 0.24388 0.02137 0.47832 0.0
C146 C 0.13884 0.90469 0.43509 0.0
C147 C 0.93871 0.89897 0.56514 0.0
C148 C 0.06316 0.91483 0.45487 0.0
C149 C 0.87082 0.88368 0.32597 0.0
C150 C 0.82426 0.8221 0.34649 0.0
C151 C 0.10326 0.04872 0.54933 0.0
C152 C 0.8592 0.03755 0.58537 0.0
C153 C 0.8049 0.07365 0.5961 0.0
C154 C 0.76521 0.03694 0.56045 0.0
C155 C 0.81921 0.00137 0.54981 0.0
C156 C 0.85156 0.07322 0.60857 0.0
C157 C 0.7723 0.00095 0.5376 0.0
C158 C 0.06307 0.09753 0.47024 0.0
C159 C 0.91026 0.04014 0.59801 0.0
H160 H 0.30145 0.00307 0.46041 0.0
H161 H 0.17544 0.02723 0.49223 0.0
H162 H 0.28447 0.06654 0.49501 0.0
H163 H 0.09777 0.85901 0.41887 0.0
H164 H 0.72856 0.03598 0.5503 0.0
H165 H 0.82427 0.97359 0.53142 0.0
H166 H 0.88316 0.10203 0.63561 0.0
H167 H 0.74161 0.97296 0.51018 0.0
Zn168 Zn 0.3597 0.65333 0.18556 0.0
Zn169 Zn 0.36981 0.65281 0.34648 0.0
Zn170 Zn 0.36493 0.64801 0.26749 0.0
C171 C 0.49949 0.74861 0.32195 0.0
C172 C 0.31287 0.52785 0.32636 0.0
O173 O 0.31343 0.6774 0.2489 0.0
O174 O 0.30771 0.67354 0.1791 0.0
C175 C 0.49256 0.74051 0.2048 0.0
O176 O 0.47103 0.71866 0.28665 0.0
O177 O 0.46507 0.73408 0.35385 0.0
O178 O 0.34123 0.56797 0.35677 0.0
O179 O 0.31144 0.54651 0.28975 0.0
O180 O 0.45536 0.72462 0.1743 0.0
O181 O 0.46782 0.71583 0.24184 0.0
O182 O 0.30694 0.5464 0.24548 0.0
O183 O 0.31501 0.56118 0.17617 0.0
C184 C 0.29531 0.52404 0.2077 0.0
O185 O 0.31983 0.68118 0.29301 0.0
O186 O 0.30786 0.65868 0.36117 0.0
C187 C 0.29491 0.68332 0.21391 0.0
C188 C 0.29908 0.67881 0.32986 0.0
Zn189 Zn 0.6185 0.32741 0.84578 0.0
Zn190 Zn 0.67147 0.3754 0.6889 0.0
Zn191 Zn 0.6422 0.35207 0.7674 0.0
C192 C 0.72385 0.49312 0.72052 0.0
C193 C 0.5331 0.27776 0.69352 0.0
O194 O 0.68675 0.31728 0.79217 0.0
O195 O 0.66615 0.30465 0.8606 0.0
C196 C 0.6898 0.46017 0.83674 0.0
O197 O 0.70262 0.45903 0.75492 0.0
O198 O 0.71506 0.46724 0.68554 0.0
O199 O 0.57978 0.30632 0.66735 0.0
O200 O 0.54595 0.2898 0.73332 0.0
O201 O 0.6567 0.4145 0.86402 0.0
O202 O 0.69291 0.4475 0.79846 0.0
O203 O 0.53203 0.27965 0.77768 0.0
O204 O 0.52219 0.25411 0.84521 0.0
C205 C 0.49573 0.24607 0.81059 0.0
O206 O 0.69177 0.32076 0.74784 0.0
O207 O 0.72646 0.35896 0.68273 0.0
C208 C 0.69178 0.30275 0.8294 0.0
C209 C 0.72232 0.32914 0.71412 0.0
H210 H 0.11653 0.83298 0.18531 0.0
H211 H 0.0383 0.68336 0.09145 0.0
H212 H 0.17847 0.81291 0.21704 0.0
H213 H 0.09727 0.66137 0.12477 0.0
H214 H 0.16174 0.59624 0.21831 0.0
H215 H 0.09575 0.61789 0.19968 0.0
H216 H 0.27529 0.82627 0.18676 0.0
H217 H 0.34112 0.80401 0.20419 0.0
C218 C 0.11242 0.79597 0.17131 0.0
C219 C 0.07211 0.75987 0.13562 0.0
C220 C 0.14749 0.78417 0.18982 0.0
C221 C 0.14192 0.73513 0.17361 0.0
C222 C 0.10134 0.69861 0.13837 0.0
C223 C 0.06736 0.71118 0.11938 0.0
C224 C 0.18669 0.64681 0.21272 0.0
C225 C 0.25608 0.69871 0.21326 0.0
C226 C 0.14917 0.65912 0.20181 0.0
C227 C 0.18058 0.72369 0.19171 0.0
C228 C 0.24994 0.77619 0.19476 0.0
C229 C 0.2875 0.76358 0.20479 0.0
H230 H 0.114 0.01887 0.62799 0.0
H231 H 0.23022 0.14275 0.51968 0.0
H232 H 0.21538 0.07045 0.66595 0.0
H233 H 0.33153 0.19211 0.5569 0.0
H234 H 0.42851 0.2516 0.72645 0.0
H235 H 0.32097 0.19024 0.69313 0.0
H236 H 0.38024 0.15003 0.58616 0.0
H237 H 0.48595 0.2087 0.62029 0.0
C238 C 0.16129 0.05741 0.61242 0.0
C239 C 0.16442 0.07751 0.57114 0.0
C240 C 0.21915 0.08658 0.63406 0.0
C241 C 0.28115 0.13518 0.61434 0.0
C242 C 0.28422 0.15435 0.57271 0.0
C243 C 0.2264 0.1261 0.5514 0.0
C244 C 0.4172 0.2271 0.69687 0.0
C245 C 0.46501 0.23382 0.6766 0.0
C246 C 0.35621 0.19289 0.67742 0.0
C247 C 0.34269 0.16592 0.63692 0.0
C248 C 0.38975 0.17104 0.61716 0.0
C249 C 0.45009 0.20438 0.63683 0.0
H250 H 0.17451 0.23605 0.03438 0.0
H251 H 0.01762 0.11131 0.12634 0.0
H252 H 0.23063 0.33217 0.0796 0.0
H253 H 0.07462 0.20661 0.1724 0.0
H254 H 0.16299 0.41379 0.21267 0.0
H255 H 0.10355 0.30871 0.17705 0.0
H256 H 0.29064 0.37755 0.14557 0.0
H257 H 0.34937 0.48296 0.18008 0.0
C258 C 0.15198 0.22942 0.06418 0.0
C259 C 0.0921 0.1665 0.07705 0.0
C260 C 0.18449 0.28411 0.09043 0.0
C261 C 0.1576 0.27689 0.12999 0.0
C262 C 0.09661 0.21399 0.14218 0.0
C263 C 0.06415 0.15943 0.1159 0.0
C264 C 0.19094 0.4051 0.19946 0.0
C265 C 0.26039 0.45557 0.19936 0.0
C266 C 0.15711 0.34524 0.17883 0.0
C267 C 0.19247 0.33534 0.15767 0.0
C268 C 0.26202 0.38427 0.16062 0.0
C269 C 0.29565 0.44407 0.18096 0.0
H270 H 0.79758 0.0828 0.68167 0.0
H271 H 0.79987 0.15669 0.56202 0.0
H272 H 0.78699 0.14987 0.71844 0.0
H273 H 0.78877 0.22257 0.59836 0.0
H274 H 0.67248 0.2126 0.74734 0.0
H275 H 0.70005 0.15334 0.72414 0.0
H276 H 0.857 0.32049 0.64595 0.0
H277 H 0.8293 0.37899 0.66874 0.0
C278 C 0.79617 0.11359 0.66331 0.0
C279 C 0.79931 0.1144 0.61897 0.0
C280 C 0.78976 0.15158 0.68431 0.0
C281 C 0.78761 0.19185 0.66131 0.0
C282 C 0.79131 0.19284 0.61704 0.0
C283 C 0.79693 0.15453 0.59616 0.0
C284 C 0.71414 0.23727 0.72624 0.0
C285 C 0.74829 0.29999 0.70942 0.0
C286 C 0.72986 0.20338 0.71291 0.0
C287 C 0.7797 0.23179 0.68249 0.0
C288 C 0.81737 0.29678 0.66867 0.0
C289 C 0.80171 0.33038 0.68188 0.0
H290 H 0.87765 0.01011 0.08258 0.0
H291 H 0.81056 0.82031 0.09212 0.0
H292 H 0.78944 0.97169 0.12973 0.0
H293 H 0.71965 0.78025 0.1381 0.0
H294 H 0.57329 0.72838 0.23323 0.0
H295 H 0.68195 0.78457 0.20441 0.0
H296 H 0.67459 0.89956 0.12229 0.0
H297 H 0.56881 0.84598 0.15254 0.0
C298 C 0.8434 0.95975 0.09446 0.0
C299 C 0.84986 0.91756 0.0829 0.0
C300 C 0.7929 0.93775 0.12162 0.0
C301 C 0.74666 0.87252 0.13733 0.0
C302 C 0.75465 0.83099 0.12696 0.0
C303 C 0.80616 0.85354 0.10024 0.0
C304 C 0.59681 0.76804 0.21059 0.0
C305 C 0.5634 0.78371 0.19559 0.0
C306 C 0.65825 0.79919 0.19334 0.0
C307 C 0.68696 0.84628 0.16069 0.0
C308 C 0.65485 0.86438 0.14771 0.0
C309 C 0.59392 0.83349 0.16494 0.0
H310 H 0.84401 0.84976 0.62548 0.0
H311 H 0.96692 0.82714 0.57624 0.0
H312 H 0.79681 0.76202 0.67704 0.0
H313 H 0.91902 0.73925 0.62675 0.0
H314 H 0.85489 0.60438 0.72948 0.0
H315 H 0.91189 0.71311 0.70062 0.0
H316 H 0.72239 0.64222 0.6749 0.0
H317 H 0.66624 0.53462 0.70482 0.0
C318 C 0.86109 0.82628 0.62563 0.0
C319 C 0.90909 0.84543 0.59646 0.0
C320 C 0.83404 0.77602 0.65522 0.0
C321 C 0.85454 0.74395 0.65638 0.0
C322 C 0.90307 0.76378 0.62751 0.0
C323 C 0.92993 0.81373 0.59801 0.0
C324 C 0.82584 0.61347 0.71967 0.0
C325 C 0.75645 0.56186 0.7198 0.0
C326 C 0.85826 0.67524 0.70249 0.0
C327 C 0.82167 0.68591 0.68453 0.0
C328 C 0.7522 0.63599 0.68856 0.0
C329 C 0.71991 0.57438 0.70591 0.0
H330 H 0.17279 0.88088 0.35574 0.0
H331 H 0.24926 0.8834 0.47401 0.0
H332 H 0.18766 0.81427 0.32416 0.0
H333 H 0.26308 0.81643 0.44286 0.0
H334 H 0.21002 0.63885 0.39018 0.0
H335 H 0.17975 0.69543 0.41255 0.0
H336 H 0.29426 0.835 0.30999 0.0
H337 H 0.32703 0.77991 0.28868 0.0
C338 C 0.19251 0.86693 0.3749 0.0
C339 C 0.21007 0.8872 0.41722 0.0
C340 C 0.20113 0.82917 0.35687 0.0
C341 C 0.22592 0.80993 0.38126 0.0
C342 C 0.24316 0.83007 0.42356 0.0
C343 C 0.23577 0.86873 0.44127 0.0
C344 C 0.22764 0.68078 0.37187 0.0
C345 C 0.27021 0.70456 0.3373 0.0
C346 C 0.21041 0.71313 0.38472 0.0
C347 C 0.23508 0.76968 0.36312 0.0
C348 C 0.27413 0.79106 0.32688 0.0
C349 C 0.29217 0.75909 0.31434 0.0
H350 H 0.21546 0.18164 0.94987 0.0
H351 H 0.10339 0.9784 0.92134 0.0
H352 H 0.29803 0.21918 0.8974 0.0
H353 H 0.18466 0.01538 0.86723 0.0
H354 H 0.39889 0.11734 0.83294 0.0
H355 H 0.29381 0.06455 0.86459 0.0
H356 H 0.32736 0.23082 0.82621 0.0
H357 H 0.43473 0.28512 0.7971 0.0
C358 C 0.20825 0.14508 0.93176 0.0
C359 C 0.15365 0.07733 0.93966 0.0
C360 C 0.25506 0.16641 0.90124 0.0
C361 C 0.24805 0.12039 0.8776 0.0
C362 C 0.1922 0.0523 0.88504 0.0
C363 C 0.14577 0.03103 0.91605 0.0
C364 C 0.38216 0.14099 0.82956 0.0
C365 C 0.42418 0.20459 0.8118 0.0
C366 C 0.32189 0.11089 0.84788 0.0
C367 C 0.30246 0.14396 0.84885 0.0
C368 C 0.34143 0.20457 0.82698 0.0
C369 C 0.40224 0.23506 0.80923 0.0
H370 H 0.01848 0.14716 0.43614 0.0
H371 H 0.18853 0.17738 0.43938 0.0
H372 H 0.07977 0.24533 0.3915 0.0
H373 H 0.2491 0.27413 0.39365 0.0
H374 H 0.35706 0.4927 0.37897 0.0
H375 H 0.29593 0.38319 0.40652 0.0
H376 H 0.13357 0.29883 0.32217 0.0
H377 H 0.19549 0.41025 0.29479 0.0
C378 C 0.06873 0.17443 0.4269 0.0
C379 C 0.09893 0.15497 0.44148 0.0
C380 C 0.10352 0.2301 0.40085 0.0
C381 C 0.16934 0.26758 0.38895 0.0
C382 C 0.19866 0.24668 0.4025 0.0
C383 C 0.16395 0.19119 0.4286 0.0
C384 C 0.30893 0.45061 0.36556 0.0
C385 C 0.28081 0.45987 0.33491 0.0
C386 C 0.27394 0.38766 0.38121 0.0
C387 C 0.2096 0.33218 0.3668 0.0
C388 C 0.18283 0.34079 0.3342 0.0
C389 C 0.21843 0.40427 0.31815 0.0
H390 H 0.9074 0.27058 0.98206 0.0
H391 H 0.93258 0.22017 0.8621 0.0
H392 H 0.84264 0.28532 0.94776 0.0
H393 H 0.86735 0.23514 0.82762 0.0
H394 H 0.80621 0.35187 0.79201 0.0
H395 H 0.87349 0.33339 0.81586 0.0
H396 H 0.72696 0.19765 0.91114 0.0
H397 H 0.65959 0.2145 0.88686 0.0
C398 C 0.89984 0.26353 0.94826 0.0
C399 C 0.92489 0.24407 0.9248 0.0
C400 C 0.86239 0.27148 0.92869 0.0
C401 C 0.84967 0.26085 0.88513 0.0
C402 C 0.87656 0.24366 0.86123 0.0
C403 C 0.91341 0.23474 0.88099 0.0
C404 C 0.7875 0.31637 0.81698 0.0
C405 C 0.72762 0.28441 0.83747 0.0
C406 C 0.82614 0.30624 0.83085 0.0
C407 C 0.80574 0.26494 0.86578 0.0
C408 C 0.74429 0.23055 0.88461 0.0
C409 C 0.7057 0.24008 0.8706 0.0
H410 H 0.78603 0.82909 0.46874 0.0
H411 H 0.9 0.02929 0.42857 0.0
H412 H 0.69865 0.78749 0.41884 0.0
H413 H 0.81171 0.98786 0.37898 0.0
H414 H 0.57127 0.72189 0.30807 0.0
H415 H 0.67855 0.77977 0.34 0.0
H416 H 0.6922 0.92946 0.38751 0.0
H417 H 0.58546 0.87184 0.35506 0.0
C418 C 0.79249 0.86405 0.44888 0.0
C419 C 0.84994 0.93213 0.45194 0.0
C420 C 0.74274 0.84034 0.4202 0.0
C421 C 0.74893 0.88441 0.39448 0.0
C422 C 0.80591 0.9528 0.3982 0.0
C423 C 0.85606 0.97646 0.42669 0.0
C424 C 0.59908 0.7691 0.32325 0.0
C425 C 0.57107 0.79332 0.3284 0.0
C426 C 0.65977 0.80153 0.34224 0.0
C427 C 0.69323 0.85864 0.36665 0.0
C428 C 0.66779 0.88584 0.36867 0.0
C429 C 0.60687 0.85306 0.35003 0.0
H430 H 0.95602 0.88266 0.89458 0.0
H431 H 0.86151 0.77284 1.01078 0.0
H432 H 0.89056 0.77925 0.85588 0.0
H433 H 0.79987 0.66981 0.97285 0.0
H434 H 0.64767 0.49262 0.89398 0.0
H435 H 0.71027 0.6003 0.92536 0.0
H436 H 0.87608 0.68732 0.84362 0.0
H437 H 0.81167 0.57888 0.81117 0.0
C438 C 0.92158 0.83639 0.91193 0.0
C439 C 0.91388 0.8359 0.95582 0.0
C440 C 0.8846 0.77712 0.88977 0.0
C441 C 0.8395 0.71598 0.91109 0.0
C442 C 0.83311 0.71582 0.95517 0.0
C443 C 0.86948 0.77501 0.97719 0.0
C444 C 0.69717 0.53502 0.88229 0.0
C445 C 0.72502 0.52754 0.85028 0.0
C446 C 0.73337 0.59666 0.90056 0.0
C447 C 0.79892 0.65234 0.88784 0.0
C448 C 0.82568 0.64556 0.85418 0.0
C449 C 0.78885 0.58361 0.83544 0.0
loop_
_geom_bond_atom_site_label_1
_geom_bond_atom_site_label_2
_geom_bond_distance
_geom_bond_site_symmetry_2
_ccdc_geom_bond_type
Tb0 N29 2.617 . S
Tb0 N35 2.572 1_565 S
Tb0 O44 2.465 . S
Tb0 O45 2.387 1_565 S
Tb0 O47 2.428 . S
Tb0 O48 2.308 1_564 S
Tb0 O52 2.329 1_454 S
Tb0 O55 2.393 1_455 S
Tb0 C64 2.802 . S
C1 N2 1.379 1_665 S
C1 C4 1.416 . S
C1 C8 1.424 . S
N2 C1 1.379 1_445 S
N2 C5 1.334 . S
N2 Tb11 2.617 1_455 S
C3 C5 1.390 . S
C3 C6 1.339 . S
C3 H23 0.930 . S
C4 C1 1.416 . S
C4 C6 1.416 1_665 S
C4 C10 1.448 . S
C5 N2 1.334 . S
C5 C3 1.390 . S
C5 H16 0.930 . S
C6 C3 1.339 . S
C6 C4 1.416 1_445 S
C6 H27 0.930 1_545 S
C7 C8 1.413 . S
C7 C9 1.427 . S
C7 C13 1.416 . S
C8 C1 1.424 . S
C8 C7 1.413 . S
C8 N12 1.361 . S
C9 C7 1.427 . S
C9 C10 1.328 . S
C9 H24 0.929 . S
C10 C4 1.448 . S
C10 C9 1.328 . S
C10 H25 0.930 . S
Tb11 N2 2.617 1_655 S
Tb11 N12 2.572 1_545 S
Tb11 O46 2.349 1_656 S
Tb11 O49 2.393 1_655 S
Tb11 O50 2.465 . S
Tb11 O51 2.387 1_545 S
Tb11 O53 2.428 1_655 S
Tb11 O54 2.308 1_546 S
Tb11 C75 2.802 . S
N12 C8 1.361 . S
N12 Tb11 2.572 1_565 S
N12 C14 1.340 . S
C13 C7 1.416 . S
C13 C15 1.332 . S
C13 H21 0.931 . S
C14 N12 1.340 . S
C14 C15 1.407 . S
C14 H20 0.930 . S
C15 C13 1.332 . S
C15 C14 1.407 . S
C15 H17 0.929 . S
H16 C5 0.930 . S
H17 C15 0.929 . S
H18 C33 0.930 . S
H19 C40 0.929 . S
H20 C14 0.930 . S
H21 C13 0.931 . S
H22 C36 0.930 . S
H23 C3 0.930 . S
H24 C9 0.929 . S
H25 C10 0.930 . S
H26 C31 0.930 . S
H27 C6 0.930 1_565 S
H28 C39 0.931 . S
N29 Tb0 2.617 . S
N29 C30 1.379 1_565 S
N29 C33 1.334 1_455 S
C30 N29 1.379 1_545 S
C30 C32 1.416 . S
C30 C38 1.424 . S
C31 H26 0.930 . S
C31 C33 1.390 . S
C31 C34 1.339 1_565 S
C32 C30 1.416 . S
C32 C34 1.416 1_455 S
C32 C65 1.448 . S
C33 H18 0.930 . S
C33 N29 1.334 1_655 S
C33 C31 1.390 . S
C34 C31 1.339 1_545 S
C34 C32 1.416 1_655 S
C34 H41 0.930 . S
N35 Tb0 2.572 1_545 S
N35 C36 1.340 . S
N35 C38 1.361 . S
C36 H22 0.930 . S
C36 N35 1.340 . S
C36 C40 1.407 . S
C37 C38 1.413 . S
C37 C39 1.416 . S
C37 C66 1.427 . S
C38 C30 1.424 . S
C38 N35 1.361 . S
C38 C37 1.413 . S
C39 H28 0.931 . S
C39 C37 1.416 . S
C39 C40 1.332 . S
C40 H19 0.929 . S
C40 C36 1.407 . S
C40 C39 1.332 . S
H41 C34 0.930 . S
H42 C65 0.930 . S
H43 C66 0.929 . S
O44 Tb0 2.465 . S
O44 C64 1.264 . S
O45 Tb0 2.387 1_545 S
O45 C56 1.264 . S
O46 Tb11 2.349 1_454 S
O46 C56 1.243 . S
O47 Tb0 2.428 . S
O47 C64 1.256 . S
O48 Tb0 2.308 1_546 S
O48 C63 1.266 . S
O49 Tb11 2.393 1_455 S
O49 C63 1.248 . S
O50 Tb11 2.465 . S
O50 C75 1.264 . S
O51 Tb11 2.387 1_565 S
O51 C67 1.264 . S
O52 Tb0 2.329 1_656 S
O52 C67 1.268 . S
O53 Tb11 2.428 1_455 S
O53 C75 1.256 1_455 S
O54 Tb11 2.308 1_564 S
O54 C74 1.266 . S
O55 Tb0 2.393 1_655 S
O55 C74 1.248 . S
C56 O45 1.264 . S
C56 O46 1.243 . S
C57 C60 1.399 . S
C57 C62 1.383 . S
C57 C64 1.496 . S
C58 C59 1.399 . S
C58 C62 1.389 . S
C59 C58 1.399 . S
C59 C61 1.380 . S
C59 H76 0.929 . S
C60 C57 1.399 . S
C60 C61 1.392 . S
C60 H77 0.929 1_455 S
C61 C59 1.380 . S
C61 C60 1.392 . S
C61 H78 0.929 . S
C62 C57 1.383 . S
C62 C58 1.389 . S
C62 H79 0.931 . S
C63 O48 1.266 . S
C63 O49 1.248 . S
C64 Tb0 2.802 . S
C64 O44 1.264 . S
C64 O47 1.256 . S
C64 C57 1.496 . S
C65 C32 1.448 . S
C65 H42 0.930 . S
C65 C66 1.328 . S
C66 C37 1.427 . S
C66 H43 0.929 . S
C66 C65 1.328 . S
C67 O51 1.264 . S
C67 O52 1.268 . S
C68 C71 1.399 . S
C68 C72 1.383 . S
C68 C75 1.496 . S
C69 C70 1.399 . S
C69 C72 1.389 . S
C70 C69 1.399 . S
C70 C73 1.380 . S
C70 H80 0.929 . S
C71 C68 1.399 . S
C71 C73 1.392 . S
C71 H81 0.929 1_655 S
C72 C68 1.383 . S
C72 C69 1.389 . S
C72 H82 0.931 . S
C73 C70 1.380 . S
C73 C71 1.392 . S
C73 H83 0.929 1_655 S
C74 O54 1.266 . S
C74 O55 1.248 . S
C75 Tb11 2.802 . S
C75 O50 1.264 . S
C75 O53 1.256 1_655 S
C75 C68 1.496 . S
H76 C59 0.929 . S
H77 C60 0.929 1_655 S
H78 C61 0.929 . S
H79 C62 0.931 . S
H80 C70 0.929 . S
H81 C71 0.929 1_455 S
H82 C72 0.931 . S
H83 C73 0.929 1_455 S
Tb84 N113 2.617 1_565 S
Tb84 N119 2.572 1_455 S
Tb84 O128 2.465 . S
Tb84 O129 2.387 1_455 S
Tb84 O131 2.428 1_565 S
Tb84 O132 2.308 1_455 S
Tb84 O136 2.349 1_565 S
Tb84 O139 2.393 1_565 S
Tb84 C148 2.802 . S
C85 N86 1.379 . S
C85 C88 1.416 . S
C85 C92 1.424 . S
N86 C85 1.379 . S
N86 C89 1.334 1_445 S
N86 Tb95 2.617 1_455 S
C87 C89 1.390 . S
C87 C90 1.339 1_665 S
C87 H107 0.930 . S
C88 C85 1.416 . S
C88 C90 1.416 . S
C88 C94 1.448 . S
C89 N86 1.334 1_665 S
C89 C87 1.390 . S
C89 H100 0.930 . S
C90 C87 1.339 1_445 S
C90 C88 1.416 . S
C90 H111 0.927 1_545 S
C91 C92 1.413 . S
C91 C93 1.427 . S
C91 C97 1.416 . S
C92 C85 1.424 . S
C92 C91 1.413 . S
C92 N96 1.361 . S
C93 C91 1.427 . S
C93 C94 1.328 . S
C93 H108 0.929 . S
C94 C88 1.448 . S
C94 C93 1.328 . S
C94 H109 0.930 . S
Tb95 N86 2.617 1_655 S
Tb95 N96 2.572 1_655 S
Tb95 O130 2.349 1_545 S
Tb95 O133 2.393 1_545 S
Tb95 O134 2.465 . S
Tb95 O135 2.387 1_655 S
Tb95 O137 2.428 . S
Tb95 O138 2.308 1_655 S
Tb95 C159 2.802 . S
N96 C92 1.361 . S
N96 Tb95 2.572 1_455 S
N96 C98 1.340 . S
C97 C91 1.416 . S
C97 C99 1.332 . S
C97 H105 0.931 . S
C98 N96 1.340 . S
C98 C99 1.407 . S
C98 H104 0.930 . S
C99 C97 1.332 . S
C99 C98 1.407 . S
C99 H101 0.929 . S
H100 C89 0.930 . S
H101 C99 0.929 . S
H102 C117 0.930 . S
H103 C124 0.929 . S
H104 C98 0.930 . S
H105 C97 0.931 . S
H106 C120 0.930 . S
H107 C87 0.930 . S
H108 C93 0.929 . S
H109 C94 0.930 . S
H110 C115 0.930 . S
H111 C90 0.927 1_565 S
H112 C123 0.931 . S
N113 Tb84 2.617 1_545 S
N113 C114 1.379 1_445 S
N113 C117 1.334 . S
C114 N113 1.379 1_665 S
C114 C116 1.416 . S
C114 C122 1.424 . S
C115 H110 0.930 . S
C115 C117 1.390 . S
C115 C118 1.339 . S
C116 C114 1.416 . S
C116 C118 1.416 1_665 S
C116 C149 1.448 . S
C117 H102 0.930 . S
C117 N113 1.334 . S
C117 C115 1.390 . S
C118 C115 1.339 . S
C118 C116 1.416 1_445 S
C118 H125 0.930 . S
N119 Tb84 2.572 1_655 S
N119 C120 1.340 . S
N119 C122 1.361 . S
C120 H106 0.930 . S
C120 N119 1.340 . S
C120 C124 1.407 . S
C121 C122 1.413 . S
C121 C123 1.416 . S
C121 C150 1.427 . S
C122 C114 1.424 . S
C122 N119 1.361 . S
C122 C121 1.413 . S
C123 H112 0.931 . S
C123 C121 1.416 . S
C123 C124 1.332 . S
C124 H103 0.929 . S
C124 C120 1.407 . S
C124 C123 1.332 . S
H125 C118 0.930 . S
H126 C149 0.930 . S
H127 C150 0.929 . S
O128 Tb84 2.465 . S
O128 C148 1.264 . S
O129 Tb84 2.387 1_655 S
O129 C140 1.264 . S
O130 Tb95 2.349 1_565 S
O130 C140 1.243 . S
O131 Tb84 2.428 1_545 S
O131 C148 1.256 1_545 S
O132 Tb84 2.308 1_655 S
O132 C147 1.266 . S
O133 Tb95 2.393 1_565 S
O133 C147 1.248 . S
O134 Tb95 2.465 . S
O134 C159 1.264 . S
O135 Tb95 2.387 1_455 S
O135 C151 1.264 . S
O136 Tb84 2.349 1_545 S
O136 C151 1.243 . S
O137 Tb95 2.428 . S
O137 C159 1.256 . S
O138 Tb95 2.308 1_455 S
O138 C158 1.266 . S
O139 Tb84 2.393 1_545 S
O139 C158 1.248 . S
C140 O129 1.264 . S
C140 O130 1.243 . S
C141 C144 1.399 . S
C141 C146 1.383 . S
C141 C148 1.496 . S
C142 C143 1.399 . S
C142 C146 1.389 . S
C143 C142 1.399 . S
C143 C145 1.380 . S
C143 H160 0.929 . S
C144 C141 1.399 . S
C144 C145 1.392 . S
C144 H161 0.929 1_565 S
C145 C143 1.380 . S
C145 C144 1.392 . S
C145 H162 0.929 1_565 S
C146 C141 1.383 . S
C146 C142 1.389 . S
C146 H163 0.931 . S
C147 O132 1.266 . S
C147 O133 1.248 . S
C148 Tb84 2.802 . S
C148 O128 1.264 . S
C148 O131 1.256 1_565 S
C148 C141 1.496 . S
C149 C116 1.448 . S
C149 H126 0.930 . S
C149 C150 1.328 . S
C150 C121 1.427 . S
C150 H127 0.929 . S
C150 C149 1.328 . S
C151 O135 1.264 . S
C151 O136 1.243 . S
C152 C155 1.399 . S
C152 C156 1.383 . S
C152 C159 1.496 . S
C153 C154 1.399 . S
C153 C156 1.389 . S
C154 C153 1.399 . S
C154 C157 1.380 . S
C154 H164 0.929 . S
C155 C152 1.399 . S
C155 C157 1.392 . S
C155 H165 0.929 . S
C156 C152 1.383 . S
C156 C153 1.389 . S
C156 H166 0.931 . S
C157 C154 1.380 . S
C157 C155 1.392 . S
C157 H167 0.929 . S
C158 O138 1.266 . S
C158 O139 1.248 . S
C159 Tb95 2.802 . S
C159 O134 1.264 . S
C159 O137 1.256 . S
C159 C152 1.496 . S
H160 C143 0.929 . S
H161 C144 0.929 1_545 S
H162 C145 0.929 1_545 S
H163 C146 0.931 . S
H164 C154 0.929 . S
H165 C155 0.929 . S
H166 C156 0.931 . S
H167 C157 0.929 . S
Zn168 O174 1.920 . S
Zn168 O180 1.898 . S
Zn168 O183 1.905 . S
Zn169 O177 1.905 . S
Zn169 O178 1.898 . S
Zn169 O186 1.920 . S
Zn170 O173 2.080 . S
Zn170 O176 2.114 . S
Zn170 O179 2.120 . S
Zn170 O181 2.120 . S
Zn170 O182 2.114 . S
Zn170 O185 2.080 . S
C171 O176 1.166 . S
C171 O177 1.182 . S
C172 O178 1.167 . S
C172 O179 1.299 . S
O173 Zn170 2.080 . S
O173 C187 1.305 . S
O174 Zn168 1.920 . S
O174 C187 1.234 . S
C175 O180 1.167 . S
C175 O181 1.299 . S
O176 Zn170 2.114 . S
O176 C171 1.166 . S
O177 Zn169 1.905 . S
O177 C171 1.182 . S
O178 Zn169 1.898 . S
O178 C172 1.167 . S
O179 Zn170 2.120 . S
O179 C172 1.299 . S
O180 Zn168 1.898 . S
O180 C175 1.167 . S
O181 Zn170 2.120 . S
O181 C175 1.299 . S
O182 Zn170 2.114 . S
O182 C184 1.166 . S
O183 Zn168 1.905 . S
O183 C184 1.182 . S
C184 O182 1.166 . S
C184 O183 1.182 . S
O185 Zn170 2.080 . S
O185 C188 1.305 . S
O186 Zn169 1.920 . S
O186 C188 1.234 . S
C187 O173 1.305 . S
C187 O174 1.234 . S
C188 O185 1.305 . S
C188 O186 1.234 . S
Zn189 O195 1.920 . S
Zn189 O201 1.898 . S
Zn189 O204 1.905 . S
Zn190 O198 1.905 . S
Zn190 O199 1.898 . S
Zn190 O207 1.920 . S
Zn191 O194 2.080 . S
Zn191 O197 2.114 . S
Zn191 O200 2.120 . S
Zn191 O202 2.120 . S
Zn191 O203 2.114 . S
Zn191 O206 2.080 . S
C192 O197 1.166 . S
C192 O198 1.182 . S
C193 O199 1.167 . S
C193 O200 1.299 . S
O194 Zn191 2.080 . S
O194 C208 1.305 . S
O195 Zn189 1.920 . S
O195 C208 1.234 . S
C196 O201 1.167 . S
C196 O202 1.299 . S
O197 Zn191 2.114 . S
O197 C192 1.166 . S
O198 Zn190 1.905 . S
O198 C192 1.182 . S
O199 Zn190 1.898 . S
O199 C193 1.167 . S
O200 Zn191 2.120 . S
O200 C193 1.299 . S
O201 Zn189 1.898 . S
O201 C196 1.167 . S
O202 Zn191 2.120 . S
O202 C196 1.299 . S
O203 Zn191 2.114 . S
O203 C205 1.166 . S
O204 Zn189 1.905 . S
O204 C205 1.182 . S
C205 O203 1.166 . S
C205 O204 1.182 . S
O206 Zn191 2.080 . S
O206 C209 1.305 . S
O207 Zn190 1.920 . S
O207 C209 1.234 . S
C208 O194 1.305 . S
C208 O195 1.234 . S
C209 O206 1.305 . S
C209 O207 1.234 . S
H210 C218 0.950 . S
H211 C223 0.950 . S
H212 C220 0.950 . S
H213 C222 0.950 . S
H214 C224 0.950 . S
H215 C226 0.950 . S
H216 C228 0.950 . S
H217 C229 0.950 . S
C218 H210 0.950 . S
C218 C219 1.386 . S
C218 C220 1.391 . S
C219 C218 1.386 . S
C219 C223 1.393 . S
C220 H212 0.950 . S
C220 C218 1.391 . S
C220 C221 1.400 . S
C221 C220 1.400 . S
C221 C222 1.398 . S
C221 C227 1.491 . S
C222 H213 0.950 . S
C222 C221 1.398 . S
C222 C223 1.391 . S
C223 H211 0.950 . S
C223 C219 1.393 . S
C223 C222 1.391 . S
C224 H214 0.950 . S
C224 C225 1.386 . S
C224 C226 1.391 . S
C225 C224 1.386 . S
C225 C229 1.393 . S
C226 H215 0.950 . S
C226 C224 1.391 . S
C226 C227 1.400 . S
C227 C221 1.491 . S
C227 C226 1.400 . S
C227 C228 1.398 . S
C228 H216 0.950 . S
C228 C227 1.398 . S
C228 C229 1.391 . S
C229 H217 0.950 . S
C229 C225 1.393 . S
C229 C228 1.391 . S
H230 C238 0.950 . S
H231 C243 0.950 . S
H232 C240 0.950 . S
H233 C242 0.950 . S
H234 C244 0.950 . S
H235 C246 0.950 . S
H236 C248 0.950 . S
H237 C249 0.950 . S
C238 H230 0.950 . S
C238 C239 1.386 . S
C238 C240 1.391 . S
C239 C238 1.386 . S
C239 C243 1.393 . S
C240 H232 0.950 . S
C240 C238 1.391 . S
C240 C241 1.400 . S
C241 C240 1.400 . S
C241 C242 1.398 . S
C241 C247 1.491 . S
C242 H233 0.950 . S
C242 C241 1.398 . S
C242 C243 1.391 . S
C243 H231 0.950 . S
C243 C239 1.393 . S
C243 C242 1.391 . S
C244 H234 0.950 . S
C244 C245 1.386 . S
C244 C246 1.391 . S
C245 C244 1.386 . S
C245 C249 1.393 . S
C246 H235 0.950 . S
C246 C244 1.391 . S
C246 C247 1.400 . S
C247 C241 1.491 . S
C247 C246 1.400 . S
C247 C248 1.398 . S
C248 H236 0.950 . S
C248 C247 1.398 . S
C248 C249 1.391 . S
C249 H237 0.950 . S
C249 C245 1.393 . S
C249 C248 1.391 . S
H250 C258 0.950 . S
H251 C263 0.950 . S
H252 C260 0.950 . S
H253 C262 0.950 . S
H254 C264 0.950 . S
H255 C266 0.950 . S
H256 C268 0.950 . S
H257 C269 0.950 . S
C258 H250 0.950 . S
C258 C259 1.386 . S
C258 C260 1.391 . S
C259 C258 1.386 . S
C259 C263 1.393 . S
C260 H252 0.950 . S
C260 C258 1.391 . S
C260 C261 1.400 . S
C261 C260 1.400 . S
C261 C262 1.398 . S
C261 C267 1.491 . S
C262 H253 0.950 . S
C262 C261 1.398 . S
C262 C263 1.391 . S
C263 H251 0.950 . S
C263 C259 1.393 . S
C263 C262 1.391 . S
C264 H254 0.950 . S
C264 C265 1.386 . S
C264 C266 1.391 . S
C265 C264 1.386 . S
C265 C269 1.393 . S
C266 H255 0.950 . S
C266 C264 1.391 . S
C266 C267 1.400 . S
C267 C261 1.491 . S
C267 C266 1.400 . S
C267 C268 1.398 . S
C268 H256 0.950 . S
C268 C267 1.398 . S
C268 C269 1.391 . S
C269 H257 0.950 . S
C269 C265 1.393 . S
C269 C268 1.391 . S
H270 C278 0.950 . S
H271 C283 0.950 . S
H272 C280 0.950 . S
H273 C282 0.950 . S
H274 C284 0.950 . S
H275 C286 0.950 . S
H276 C288 0.950 . S
H277 C289 0.950 . S
C278 H270 0.950 . S
C278 C279 1.386 . S
C278 C280 1.391 . S
C279 C278 1.386 . S
C279 C283 1.393 . S
C280 H272 0.950 . S
C280 C278 1.391 . S
C280 C281 1.400 . S
C281 C280 1.400 . S
C281 C282 1.398 . S
C281 C287 1.491 . S
C282 H273 0.950 . S
C282 C281 1.398 . S
C282 C283 1.391 . S
C283 H271 0.950 . S
C283 C279 1.393 . S
C283 C282 1.391 . S
C284 H274 0.950 . S
C284 C285 1.386 . S
C284 C286 1.391 . S
C285 C284 1.386 . S
C285 C289 1.393 . S
C286 H275 0.950 . S
C286 C284 1.391 . S
C286 C287 1.400 . S
C287 C281 1.491 . S
C287 C286 1.400 . S
C287 C288 1.398 . S
C288 H276 0.950 . S
C288 C287 1.398 . S
C288 C289 1.391 . S
C289 H277 0.950 . S
C289 C285 1.393 . S
C289 C288 1.391 . S
H290 C298 0.950 1_545 S
H291 C303 0.950 . S
H292 C300 0.950 . S
H293 C302 0.950 . S
H294 C304 0.950 . S
H295 C306 0.950 . S
H296 C308 0.950 . S
H297 C309 0.950 . S
C298 H290 0.950 1_565 S
C298 C299 1.386 . S
C298 C300 1.391 . S
C299 C298 1.386 . S
C299 C303 1.393 . S
C300 H292 0.950 . S
C300 C298 1.391 . S
C300 C301 1.400 . S
C301 C300 1.400 . S
C301 C302 1.398 . S
C301 C307 1.491 . S
C302 H293 0.950 . S
C302 C301 1.398 . S
C302 C303 1.391 . S
C303 H291 0.950 . S
C303 C299 1.393 . S
C303 C302 1.391 . S
C304 H294 0.950 . S
C304 C305 1.386 . S
C304 C306 1.391 . S
C305 C304 1.386 . S
C305 C309 1.393 . S
C306 H295 0.950 . S
C306 C304 1.391 . S
C306 C307 1.400 . S
C307 C301 1.491 . S
C307 C306 1.400 . S
C307 C308 1.398 . S
C308 H296 0.950 . S
C308 C307 1.398 . S
C308 C309 1.391 . S
C309 H297 0.950 . S
C309 C305 1.393 . S
C309 C308 1.391 . S
H310 C318 0.950 . S
H311 C323 0.950 . S
H312 C320 0.950 . S
H313 C322 0.950 . S
H314 C324 0.950 . S
H315 C326 0.950 . S
H316 C328 0.950 . S
H317 C329 0.950 . S
C318 H310 0.950 . S
C318 C319 1.386 . S
C318 C320 1.391 . S
C319 C318 1.386 . S
C319 C323 1.393 . S
C320 H312 0.950 . S
C320 C318 1.391 . S
C320 C321 1.400 . S
C321 C320 1.400 . S
C321 C322 1.398 . S
C321 C327 1.491 . S
C322 H313 0.950 . S
C322 C321 1.398 . S
C322 C323 1.391 . S
C323 H311 0.950 . S
C323 C319 1.393 . S
C323 C322 1.391 . S
C324 H314 0.950 . S
C324 C325 1.386 . S
C324 C326 1.391 . S
C325 C324 1.386 . S
C325 C329 1.393 . S
C326 H315 0.950 . S
C326 C324 1.391 . S
C326 C327 1.400 . S
C327 C321 1.491 . S
C327 C326 1.400 . S
C327 C328 1.398 . S
C328 H316 0.950 . S
C328 C327 1.398 . S
C328 C329 1.391 . S
C329 H317 0.950 . S
C329 C325 1.393 . S
C329 C328 1.391 . S
H330 C338 0.950 . S
H331 C343 0.950 . S
H332 C340 0.950 . S
H333 C342 0.950 . S
H334 C344 0.950 . S
H335 C346 0.950 . S
H336 C348 0.950 . S
H337 C349 0.950 . S
C338 H330 0.950 . S
C338 C339 1.386 . S
C338 C340 1.391 . S
C339 C338 1.386 . S
C339 C343 1.393 . S
C340 H332 0.950 . S
C340 C338 1.391 . S
C340 C341 1.400 . S
C341 C340 1.400 . S
C341 C342 1.398 . S
C341 C347 1.491 . S
C342 H333 0.950 . S
C342 C341 1.398 . S
C342 C343 1.391 . S
C343 H331 0.950 . S
C343 C339 1.393 . S
C343 C342 1.391 . S
C344 H334 0.950 . S
C344 C345 1.386 . S
C344 C346 1.391 . S
C345 C344 1.386 . S
C345 C349 1.393 . S
C346 H335 0.950 . S
C346 C344 1.391 . S
C346 C347 1.400 . S
C347 C341 1.491 . S
C347 C346 1.400 . S
C347 C348 1.398 . S
C348 H336 0.950 . S
C348 C347 1.398 . S
C348 C349 1.391 . S
C349 H337 0.950 . S
C349 C345 1.393 . S
C349 C348 1.391 . S
H350 C358 0.950 . S
H351 C363 0.950 . S
H352 C360 0.950 . S
H353 C362 0.950 . S
H354 C364 0.950 . S
H355 C366 0.950 . S
H356 C368 0.950 . S
H357 C369 0.950 . S
C358 H350 0.950 . S
C358 C359 1.386 . S
C358 C360 1.391 . S
C359 C358 1.386 . S
C359 C363 1.393 . S
C360 H352 0.950 . S
C360 C358 1.391 . S
C360 C361 1.400 . S
C361 C360 1.400 . S
C361 C362 1.398 . S
C361 C367 1.491 . S
C362 H353 0.950 . S
C362 C361 1.398 . S
C362 C363 1.391 . S
C363 H351 0.950 . S
C363 C359 1.393 . S
C363 C362 1.391 . S
C364 H354 0.950 . S
C364 C365 1.386 . S
C364 C366 1.391 . S
C365 C364 1.386 . S
C365 C369 1.393 . S
C366 H355 0.950 . S
C366 C364 1.391 . S
C366 C367 1.400 . S
C367 C361 1.491 . S
C367 C366 1.400 . S
C367 C368 1.398 . S
C368 H356 0.950 . S
C368 C367 1.398 . S
C368 C369 1.391 . S
C369 H357 0.950 . S
C369 C365 1.393 . S
C369 C368 1.391 . S
H370 C378 0.950 . S
H371 C383 0.950 . S
H372 C380 0.950 . S
H373 C382 0.950 . S
H374 C384 0.950 . S
H375 C386 0.950 . S
H376 C388 0.950 . S
H377 C389 0.950 . S
C378 H370 0.950 . S
C378 C379 1.386 . S
C378 C380 1.391 . S
C379 C378 1.386 . S
C379 C383 1.393 . S
C380 H372 0.950 . S
C380 C378 1.391 . S
C380 C381 1.400 . S
C381 C380 1.400 . S
C381 C382 1.398 . S
C381 C387 1.491 . S
C382 H373 0.950 . S
C382 C381 1.398 . S
C382 C383 1.391 . S
C383 H371 0.950 . S
C383 C379 1.393 . S
C383 C382 1.391 . S
C384 H374 0.950 . S
C384 C385 1.386 . S
C384 C386 1.391 . S
C385 C384 1.386 . S
C385 C389 1.393 . S
C386 H375 0.950 . S
C386 C384 1.391 . S
C386 C387 1.400 . S
C387 C381 1.491 . S
C387 C386 1.400 . S
C387 C388 1.398 . S
C388 H376 0.950 . S
C388 C387 1.398 . S
C388 C389 1.391 . S
C389 H377 0.950 . S
C389 C385 1.393 . S
C389 C388 1.391 . S
H390 C398 0.950 . S
H391 C403 0.950 . S
H392 C400 0.950 . S
H393 C402 0.950 . S
H394 C404 0.950 . S
H395 C406 0.950 . S
H396 C408 0.950 . S
H397 C409 0.950 . S
C398 H390 0.950 . S
C398 C399 1.386 . S
C398 C400 1.391 . S
C399 C398 1.386 . S
C399 C403 1.393 . S
C400 H392 0.950 . S
C400 C398 1.391 . S
C400 C401 1.400 . S
C401 C400 1.400 . S
C401 C402 1.398 . S
C401 C407 1.491 . S
C402 H393 0.950 . S
C402 C401 1.398 . S
C402 C403 1.391 . S
C403 H391 0.950 . S
C403 C399 1.393 . S
C403 C402 1.391 . S
C404 H394 0.950 . S
C404 C405 1.386 . S
C404 C406 1.391 . S
C405 C404 1.386 . S
C405 C409 1.393 . S
C406 H395 0.950 . S
C406 C404 1.391 . S
C406 C407 1.400 . S
C407 C401 1.491 . S
C407 C406 1.400 . S
C407 C408 1.398 . S
C408 H396 0.950 . S
C408 C407 1.398 . S
C408 C409 1.391 . S
C409 H397 0.950 . S
C409 C405 1.393 . S
C409 C408 1.391 . S
H410 C418 0.950 . S
H411 C423 0.950 . S
H412 C420 0.950 . S
H413 C422 0.950 . S
H414 C424 0.950 . S
H415 C426 0.950 . S
H416 C428 0.950 . S
H417 C429 0.950 . S
C418 H410 0.950 . S
C418 C419 1.386 . S
C418 C420 1.391 . S
C419 C418 1.386 . S
C419 C423 1.393 . S
C420 H412 0.950 . S
C420 C418 1.391 . S
C420 C421 1.400 . S
C421 C420 1.400 . S
C421 C422 1.398 . S
C421 C427 1.491 . S
C422 H413 0.950 . S
C422 C421 1.398 . S
C422 C423 1.391 . S
C423 H411 0.950 . S
C423 C419 1.393 . S
C423 C422 1.391 . S
C424 H414 0.950 . S
C424 C425 1.386 . S
C424 C426 1.391 . S
C425 C424 1.386 . S
C425 C429 1.393 . S
C426 H415 0.950 . S
C426 C424 1.391 . S
C426 C427 1.400 . S
C427 C421 1.491 . S
C427 C426 1.400 . S
C427 C428 1.398 . S
C428 H416 0.950 . S
C428 C427 1.398 . S
C428 C429 1.391 . S
C429 H417 0.950 . S
C429 C425 1.393 . S
C429 C428 1.391 . S
H430 C438 0.950 . S
H431 C443 0.950 . S
H432 C440 0.950 . S
H433 C442 0.950 . S
H434 C444 0.950 . S
H435 C446 0.950 . S
H436 C448 0.950 . S
H437 C449 0.950 . S
C438 H430 0.950 . S
C438 C439 1.386 . S
C438 C440 1.391 . S
C439 C438 1.386 . S
C439 C443 1.393 . S
C440 H432 0.950 . S
C440 C438 1.391 . S
C440 C441 1.400 . S
C441 C440 1.400 . S
C441 C442 1.398 . S
C441 C447 1.491 . S
C442 H433 0.950 . S
C442 C441 1.398 . S
C442 C443 1.391 . S
C443 H431 0.950 . S
C443 C439 1.393 . S
C443 C442 1.391 . S
C444 H434 0.950 . S
C444 C445 1.386 . S
C444 C446 1.391 . S
C445 C444 1.386 . S
C445 C449 1.393 . S
C446 H435 0.950 . S
C446 C444 1.391 . S
C446 C447 1.400 . S
C447 C441 1.491 . S
C447 C446 1.400 . S
C447 C448 1.398 . S
C448 H436 0.950 . S
C448 C447 1.398 . S
C448 C449 1.391 . S
C449 H437 0.950 . S
C449 C445 1.393 . S
C449 C448 1.391 . S
C219 C58 1.151 . S
C225 C187 1.250 . S
C239 C151 1.554 . S
C245 C193 1.421 . S
C259 C56 1.622 . S
C265 C184 1.499 . S
C279 C153 1.233 . S
C285 C209 1.295 . S
C299 C74 1.602 . S
C305 C175 1.460 . S
C325 C192 1.534 . S
C319 C147 1.633 . S
C339 C142 1.160 . S
C345 C188 1.259 . S
C365 C205 1.539 . S
C359 C63 1.634 . S
C385 C172 1.449 . S
C379 C158 1.602 . S
C405 C208 1.289 . S
C399 C69 1.216 . S
C425 C171 1.489 . S
C419 C140 1.619 . S
C445 C196 1.398 . S
C439 C67 1.545 . S
