# Generated by pormake.
# Topology gar, (4,6)-cn, num edge types: 1
# Building blocks:
#     Node 0, Type 0, BuildingBlock: GALJAG_clean_sbu_0, # of connection points: 4
#     Node 1, Type 0, BuildingBlock: GALJAG_clean_sbu_0, # of connection points: 4
#     Node 2, Type 0, BuildingBlock: GALJAG_clean_sbu_0, # of connection points: 4
#     Node 3, Type 0, BuildingBlock: GALJAG_clean_sbu_0, # of connection points: 4
#     Node 4, Type 0, BuildingBlock: GALJAG_clean_sbu_0, # of connection points: 4
#     Node 5, Type 0, BuildingBlock: GALJAG_clean_sbu_0, # of connection points: 4
#     Node 6, Type 0, BuildingBlock: GALJAG_clean_sbu_0, # of connection points: 4
#     Node 7, Type 0, BuildingBlock: GALJAG_clean_sbu_0, # of connection points: 4
#     Node 8, Type 0, BuildingBlock: GALJAG_clean_sbu_0, # of connection points: 4
#     Node 9, Type 0, BuildingBlock: GALJAG_clean_sbu_0, # of connection points: 4
#     Node 10, Type 0, BuildingBlock: GALJAG_clean_sbu_0, # of connection points: 4
#     Node 11, Type 0, BuildingBlock: GALJAG_clean_sbu_0, # of connection points: 4
#     Node 12, Type 0, BuildingBlock: GALJAG_clean_sbu_0, # of connection points: 4
#     Node 13, Type 0, BuildingBlock: GALJAG_clean_sbu_0, # of connection points: 4
#     Node 14, Type 0, BuildingBlock: GALJAG_clean_sbu_0, # of connection points: 4
#     Node 15, Type 0, BuildingBlock: GALJAG_clean_sbu_0, # of connection points: 4
#     Node 16, Type 0, BuildingBlock: GALJAG_clean_sbu_0, # of connection points: 4
#     Node 17, Type 0, BuildingBlock: GALJAG_clean_sbu_0, # of connection points: 4
#     Node 18, Type 0, BuildingBlock: GALJAG_clean_sbu_0, # of connection points: 4
#     Node 19, Type 0, BuildingBlock: GALJAG_clean_sbu_0, # of connection points: 4
#     Node 20, Type 0, BuildingBlock: GALJAG_clean_sbu_0, # of connection points: 4
#     Node 21, Type 0, BuildingBlock: GALJAG_clean_sbu_0, # of connection points: 4
#     Node 22, Type 0, BuildingBlock: GALJAG_clean_sbu_0, # of connection points: 4
#     Node 23, Type 0, BuildingBlock: GALJAG_clean_sbu_0, # of connection points: 4
#     Node 24, Type 1, BuildingBlock: PAMTOO_clean_sbu_0, # of connection points: 6
#     Node 25, Type 1, BuildingBlock: PAMTOO_clean_sbu_0, # of connection points: 6
#     Node 26, Type 1, BuildingBlock: PAMTOO_clean_sbu_0, # of connection points: 6
#     Node 27, Type 1, BuildingBlock: PAMTOO_clean_sbu_0, # of connection points: 6
#     Node 28, Type 1, BuildingBlock: PAMTOO_clean_sbu_0, # of connection points: 6
#     Node 29, Type 1, BuildingBlock: PAMTOO_clean_sbu_0, # of connection points: 6
#     Node 30, Type 1, BuildingBlock: PAMTOO_clean_sbu_0, # of connection points: 6
#     Node 31, Type 1, BuildingBlock: PAMTOO_clean_sbu_0, # of connection points: 6
#     Node 32, Type 1, BuildingBlock: PAMTOO_clean_sbu_0, # of connection points: 6
#     Node 33, Type 1, BuildingBlock: PAMTOO_clean_sbu_0, # of connection points: 6
#     Node 34, Type 1, BuildingBlock: PAMTOO_clean_sbu_0, # of connection points: 6
#     Node 35, Type 1, BuildingBlock: PAMTOO_clean_sbu_0, # of connection points: 6
#     Node 36, Type 1, BuildingBlock: PAMTOO_clean_sbu_0, # of connection points: 6
#     Node 37, Type 1, BuildingBlock: PAMTOO_clean_sbu_0, # of connection points: 6
#     Node 38, Type 1, BuildingBlock: PAMTOO_clean_sbu_0, # of connection points: 6
#     Node 39, Type 1, BuildingBlock: PAMTOO_clean_sbu_0, # of connection points: 6
#     Edge 40, Type (0, 1), BuildingBlock: ZUJKAS_clean_linker_0, # of connection points: 2
#     Edge 41, Type (0, 1), BuildingBlock: ZUJKAS_clean_linker_0, # of connection points: 2
#     Edge 42, Type (0, 1), BuildingBlock: ZUJKAS_clean_linker_0, # of connection points: 2
#     Edge 43, Type (0, 1), BuildingBlock: ZUJKAS_clean_linker_0, # of connection points: 2
#     Edge 44, Type (0, 1), BuildingBlock: ZUJKAS_clean_linker_0, # of connection points: 2
#     Edge 45, Type (0, 1), BuildingBlock: ZUJKAS_clean_linker_0, # of connection points: 2
#     Edge 46, Type (0, 1), BuildingBlock: ZUJKAS_clean_linker_0, # of connection points: 2
#     Edge 47, Type (0, 1), BuildingBlock: ZUJKAS_clean_linker_0, # of connection points: 2
#     Edge 48, Type (0, 1), BuildingBlock: ZUJKAS_clean_linker_0, # of connection points: 2
#     Edge 49, Type (0, 1), BuildingBlock: ZUJKAS_clean_linker_0, # of connection points: 2
#     Edge 50, Type (0, 1), BuildingBlock: ZUJKAS_clean_linker_0, # of connection points: 2
#     Edge 51, Type (0, 1), BuildingBlock: ZUJKAS_clean_linker_0, # of connection points: 2
#     Edge 52, Type (0, 1), BuildingBlock: ZUJKAS_clean_linker_0, # of connection points: 2
#     Edge 53, Type (0, 1), BuildingBlock: ZUJKAS_clean_linker_0, # of connection points: 2
#     Edge 54, Type (0, 1), BuildingBlock: ZUJKAS_clean_linker_0, # of connection points: 2
#     Edge 55, Type (0, 1), BuildingBlock: ZUJKAS_clean_linker_0, # of connection points: 2
#     Edge 56, Type (0, 1), BuildingBlock: ZUJKAS_clean_linker_0, # of connection points: 2
#     Edge 57, Type (0, 1), BuildingBlock: ZUJKAS_clean_linker_0, # of connection points: 2
#     Edge 58, Type (0, 1), BuildingBlock: ZUJKAS_clean_linker_0, # of connection points: 2
#     Edge 59, Type (0, 1), BuildingBlock: ZUJKAS_clean_linker_0, # of connection points: 2
#     Edge 60, Type (0, 1), BuildingBlock: ZUJKAS_clean_linker_0, # of connection points: 2
#     Edge 61, Type (0, 1), BuildingBlock: ZUJKAS_clean_linker_0, # of connection points: 2
#     Edge 62, Type (0, 1), BuildingBlock: ZUJKAS_clean_linker_0, # of connection points: 2
#     Edge 63, Type (0, 1), BuildingBlock: ZUJKAS_clean_linker_0, # of connection points: 2
#     Edge 64, Type (0, 1), BuildingBlock: ZUJKAS_clean_linker_0, # of connection points: 2
#     Edge 65, Type (0, 1), BuildingBlock: ZUJKAS_clean_linker_0, # of connection points: 2
#     Edge 66, Type (0, 1), BuildingBlock: ZUJKAS_clean_linker_0, # of connection points: 2
#     Edge 67, Type (0, 1), BuildingBlock: ZUJKAS_clean_linker_0, # of connection points: 2
#     Edge 68, Type (0, 1), BuildingBlock: ZUJKAS_clean_linker_0, # of connection points: 2
#     Edge 69, Type (0, 1), BuildingBlock: ZUJKAS_clean_linker_0, # of connection points: 2
#     Edge 70, Type (0, 1), BuildingBlock: ZUJKAS_clean_linker_0, # of connection points: 2
#     Edge 71, Type (0, 1), BuildingBlock: ZUJKAS_clean_linker_0, # of connection points: 2
#     Edge 72, Type (0, 1), BuildingBlock: ZUJKAS_clean_linker_0, # of connection points: 2
#     Edge 73, Type (0, 1), BuildingBlock: ZUJKAS_clean_linker_0, # of connection points: 2
#     Edge 74, Type (0, 1), BuildingBlock: ZUJKAS_clean_linker_0, # of connection points: 2
#     Edge 75, Type (0, 1), BuildingBlock: ZUJKAS_clean_linker_0, # of connection points: 2
#     Edge 76, Type (0, 1), BuildingBlock: ZUJKAS_clean_linker_0, # of connection points: 2
#     Edge 77, Type (0, 1), BuildingBlock: ZUJKAS_clean_linker_0, # of connection points: 2
#     Edge 78, Type (0, 1), BuildingBlock: ZUJKAS_clean_linker_0, # of connection points: 2
#     Edge 79, Type (0, 1), BuildingBlock: ZUJKAS_clean_linker_0, # of connection points: 2
#     Edge 80, Type (0, 1), BuildingBlock: ZUJKAS_clean_linker_0, # of connection points: 2
#     Edge 81, Type (0, 1), BuildingBlock: ZUJKAS_clean_linker_0, # of connection points: 2
#     Edge 82, Type (0, 1), BuildingBlock: ZUJKAS_clean_linker_0, # of connection points: 2
#     Edge 83, Type (0, 1), BuildingBlock: ZUJKAS_clean_linker_0, # of connection points: 2
#     Edge 84, Type (0, 1), BuildingBlock: ZUJKAS_clean_linker_0, # of connection points: 2
#     Edge 85, Type (0, 1), BuildingBlock: ZUJKAS_clean_linker_0, # of connection points: 2
#     Edge 86, Type (0, 1), BuildingBlock: ZUJKAS_clean_linker_0, # of connection points: 2
#     Edge 87, Type (0, 1), BuildingBlock: ZUJKAS_clean_linker_0, # of connection points: 2
#     Edge 88, Type (0, 1), BuildingBlock: ZUJKAS_clean_linker_0, # of connection points: 2
#     Edge 89, Type (0, 1), BuildingBlock: ZUJKAS_clean_linker_0, # of connection points: 2
#     Edge 90, Type (0, 1), BuildingBlock: ZUJKAS_clean_linker_0, # of connection points: 2
#     Edge 91, Type (0, 1), BuildingBlock: ZUJKAS_clean_linker_0, # of connection points: 2
#     Edge 92, Type (0, 1), BuildingBlock: ZUJKAS_clean_linker_0, # of connection points: 2
#     Edge 93, Type (0, 1), BuildingBlock: ZUJKAS_clean_linker_0, # of connection points: 2
#     Edge 94, Type (0, 1), BuildingBlock: ZUJKAS_clean_linker_0, # of connection points: 2
#     Edge 95, Type (0, 1), BuildingBlock: ZUJKAS_clean_linker_0, # of connection points: 2
#     Edge 96, Type (0, 1), BuildingBlock: ZUJKAS_clean_linker_0, # of connection points: 2
#     Edge 97, Type (0, 1), BuildingBlock: ZUJKAS_clean_linker_0, # of connection points: 2
#     Edge 98, Type (0, 1), BuildingBlock: ZUJKAS_clean_linker_0, # of connection points: 2
#     Edge 99, Type (0, 1), BuildingBlock: ZUJKAS_clean_linker_0, # of connection points: 2
#     Edge 100, Type (0, 1), BuildingBlock: ZUJKAS_clean_linker_0, # of connection points: 2
#     Edge 101, Type (0, 1), BuildingBlock: ZUJKAS_clean_linker_0, # of connection points: 2
#     Edge 102, Type (0, 1), BuildingBlock: ZUJKAS_clean_linker_0, # of connection points: 2
#     Edge 103, Type (0, 1), BuildingBlock: ZUJKAS_clean_linker_0, # of connection points: 2
#     Edge 104, Type (0, 1), BuildingBlock: ZUJKAS_clean_linker_0, # of connection points: 2
#     Edge 105, Type (0, 1), BuildingBlock: ZUJKAS_clean_linker_0, # of connection points: 2
#     Edge 106, Type (0, 1), BuildingBlock: ZUJKAS_clean_linker_0, # of connection points: 2
#     Edge 107, Type (0, 1), BuildingBlock: ZUJKAS_clean_linker_0, # of connection points: 2
#     Edge 108, Type (0, 1), BuildingBlock: ZUJKAS_clean_linker_0, # of connection points: 2
#     Edge 109, Type (0, 1), BuildingBlock: ZUJKAS_clean_linker_0, # of connection points: 2
#     Edge 110, Type (0, 1), BuildingBlock: ZUJKAS_clean_linker_0, # of connection points: 2
#     Edge 111, Type (0, 1), BuildingBlock: ZUJKAS_clean_linker_0, # of connection points: 2
#     Edge 112, Type (0, 1), BuildingBlock: ZUJKAS_clean_linker_0, # of connection points: 2
#     Edge 113, Type (0, 1), BuildingBlock: ZUJKAS_clean_linker_0, # of connection points: 2
#     Edge 114, Type (0, 1), BuildingBlock: ZUJKAS_clean_linker_0, # of connection points: 2
#     Edge 115, Type (0, 1), BuildingBlock: ZUJKAS_clean_linker_0, # of connection points: 2
#     Edge 116, Type (0, 1), BuildingBlock: ZUJKAS_clean_linker_0, # of connection points: 2
#     Edge 117, Type (0, 1), BuildingBlock: ZUJKAS_clean_linker_0, # of connection points: 2
#     Edge 118, Type (0, 1), BuildingBlock: ZUJKAS_clean_linker_0, # of connection points: 2
#     Edge 119, Type (0, 1), BuildingBlock: ZUJKAS_clean_linker_0, # of connection points: 2
#     Edge 120, Type (0, 1), BuildingBlock: ZUJKAS_clean_linker_0, # of connection points: 2
#     Edge 121, Type (0, 1), BuildingBlock: ZUJKAS_clean_linker_0, # of connection points: 2
#     Edge 122, Type (0, 1), BuildingBlock: ZUJKAS_clean_linker_0, # of connection points: 2
#     Edge 123, Type (0, 1), BuildingBlock: ZUJKAS_clean_linker_0, # of connection points: 2
#     Edge 124, Type (0, 1), BuildingBlock: ZUJKAS_clean_linker_0, # of connection points: 2
#     Edge 125, Type (0, 1), BuildingBlock: ZUJKAS_clean_linker_0, # of connection points: 2
#     Edge 126, Type (0, 1), BuildingBlock: ZUJKAS_clean_linker_0, # of connection points: 2
#     Edge 127, Type (0, 1), BuildingBlock: ZUJKAS_clean_linker_0, # of connection points: 2
#     Edge 128, Type (0, 1), BuildingBlock: ZUJKAS_clean_linker_0, # of connection points: 2
#     Edge 129, Type (0, 1), BuildingBlock: ZUJKAS_clean_linker_0, # of connection points: 2
#     Edge 130, Type (0, 1), BuildingBlock: ZUJKAS_clean_linker_0, # of connection points: 2
#     Edge 131, Type (0, 1), BuildingBlock: ZUJKAS_clean_linker_0, # of connection points: 2
#     Edge 132, Type (0, 1), BuildingBlock: ZUJKAS_clean_linker_0, # of connection points: 2
#     Edge 133, Type (0, 1), BuildingBlock: ZUJKAS_clean_linker_0, # of connection points: 2
#     Edge 134, Type (0, 1), BuildingBlock: ZUJKAS_clean_linker_0, # of connection points: 2
#     Edge 135, Type (0, 1), BuildingBlock: ZUJKAS_clean_linker_0, # of connection points: 2
# Relax obj value: 0.142
# Max RMSD: 0.260
# Mean RMSD: 0.170
data_MOF--net-gar--node1-GALJAG_clean_sbu_0--node2-PAMTOO_clean_sbu_0--edge1-ZUJKAS_clean_linker_0
_symmetry_space_group_name_H-M    P1
_symmetry_Int_Tables_number       1
_symmetry_cell_setting            triclinic
loop_
_symmetry_equiv_pos_as_xyz
'x, y, z'
_cell_length_a     75.6071
_cell_length_b     76.209462
_cell_length_c     74.022165
_cell_angle_alpha  95.854521
_cell_angle_beta   95.346517
_cell_angle_gamma 103.23717
loop_
_atom_site_label
_atom_site_type_symbol
_atom_site_fract_x
_atom_site_fract_y
_atom_site_fract_z
_atom_type_partial_charge
In0 In 0.04197 0.30735 0.36233 0.0
O1 O 0.05828 0.29752 0.33942 0.0
O2 O 0.07295 0.31825 0.35989 0.0
C3 C 0.00673 0.30259 0.34531 0.0
C4 C 0.04072 0.2787 0.38208 0.0
C5 C 0.04458 0.34054 0.38183 0.0
O6 O 0.02074 0.3089 0.33771 0.0
O7 O 0.01054 0.29829 0.36095 0.0
O8 O 0.04703 0.32688 0.38914 0.0
O9 O 0.04132 0.33767 0.36458 0.0
C10 C 0.07366 0.30783 0.34576 0.0
O11 O 0.04495 0.29506 0.38929 0.0
O12 O 0.03723 0.2767 0.36487 0.0
In13 In 0.01267 0.75541 0.67544 0.0
O14 O 0.00839 0.76847 0.64916 0.0
O15 O 0.01794 0.78619 0.67385 0.0
C16 C 0.00985 0.72243 0.65541 0.0
C17 C 0.04801 0.75994 0.69191 0.0
C18 C 0.98142 0.75502 0.69253 0.0
O19 O 0.01028 0.73689 0.64833 0.0
O20 O 0.01042 0.72444 0.67264 0.0
O21 O 0.99716 0.7641 0.69948 0.0
O22 O 0.9815 0.74585 0.67738 0.0
C23 C 0.01352 0.7847 0.65678 0.0
O24 O 0.03416 0.7526 0.69922 0.0
O25 O 0.04398 0.76526 0.67685 0.0
In26 In 0.54058 0.80719 0.85964 0.0
O27 O 0.5563 0.79862 0.83574 0.0
O28 O 0.57206 0.81487 0.85906 0.0
C29 C 0.50556 0.80243 0.84232 0.0
C30 C 0.53943 0.77855 0.87925 0.0
C31 C 0.54283 0.84076 0.87829 0.0
O32 O 0.51964 0.80916 0.83503 0.0
O33 O 0.50922 0.79768 0.85778 0.0
O34 O 0.54143 0.82649 0.88588 0.0
O35 O 0.54369 0.83831 0.86128 0.0
C36 C 0.57217 0.80632 0.84357 0.0
O37 O 0.54469 0.79493 0.88639 0.0
O38 O 0.53485 0.77655 0.86217 0.0
In39 In 0.51335 0.25615 0.17405 0.0
O40 O 0.50847 0.23803 0.14628 0.0
O41 O 0.51329 0.22556 0.16989 0.0
C42 C 0.51523 0.28548 0.15536 0.0
C43 C 0.48229 0.25626 0.19161 0.0
C44 C 0.54872 0.26069 0.19066 0.0
O45 O 0.51121 0.2693 0.1476 0.0
O46 O 0.51817 0.28693 0.1726 0.0
O47 O 0.54452 0.26876 0.17747 0.0
O48 O 0.53503 0.25057 0.19606 0.0
C49 C 0.51036 0.22374 0.15264 0.0
O50 O 0.49833 0.26381 0.19902 0.0
O51 O 0.48196 0.2482 0.17581 0.0
In52 In 0.05918 0.79978 0.1152 0.0
O53 O 0.06344 0.77804 0.0922 0.0
O54 O 0.0465 0.76881 0.11203 0.0
C55 C 0.05918 0.83076 0.09796 0.0
C56 C 0.03013 0.79788 0.13496 0.0
C57 C 0.09235 0.80345 0.13575 0.0
O58 O 0.05123 0.81486 0.09059 0.0
O59 O 0.06765 0.83097 0.11351 0.0
O60 O 0.07872 0.80753 0.14219 0.0
O61 O 0.08955 0.79812 0.11877 0.0
C62 C 0.0538 0.76449 0.09816 0.0
O63 O 0.04609 0.7982 0.14198 0.0
O64 O 0.02874 0.79858 0.11792 0.0
In65 In 0.50385 0.77028 0.43693 0.0
O66 O 0.51659 0.76583 0.4103 0.0
O67 O 0.5348 0.77698 0.43434 0.0
C68 C 0.47022 0.76761 0.41787 0.0
C69 C 0.50439 0.73883 0.45311 0.0
C70 C 0.50834 0.80555 0.45348 0.0
O71 O 0.48434 0.76682 0.4103 0.0
O72 O 0.47282 0.7692 0.43515 0.0
O73 O 0.50209 0.79183 0.46136 0.0
O74 O 0.51267 0.80143 0.43785 0.0
C75 C 0.533 0.77187 0.41735 0.0
O76 O 0.51292 0.75453 0.46057 0.0
O77 O 0.49516 0.73909 0.4381 0.0
In78 In 0.55783 0.2992 0.61589 0.0
O79 O 0.54694 0.26809 0.61347 0.0
O80 O 0.56244 0.27769 0.59272 0.0
C81 C 0.55807 0.3302 0.59866 0.0
C82 C 0.52821 0.2987 0.63452 0.0
C83 C 0.58988 0.30156 0.63773 0.0
O84 O 0.5483 0.31463 0.59225 0.0
O85 O 0.56815 0.33002 0.61316 0.0
O86 O 0.57466 0.30062 0.64377 0.0
O87 O 0.58915 0.30175 0.62062 0.0
C88 C 0.55379 0.26396 0.59925 0.0
O89 O 0.5445 0.30518 0.64182 0.0
O90 O 0.5268 0.29275 0.61776 0.0
In91 In 0.00412 0.27066 0.93685 0.0
O92 O 0.00893 0.25414 0.96144 0.0
O93 O 0.9994 0.23929 0.9355 0.0
C94 C 0.00927 0.30551 0.95504 0.0
C95 C 0.03294 0.27246 0.91698 0.0
C96 C 0.97123 0.26902 0.91669 0.0
O97 O 0.99721 0.29214 0.95835 0.0
O98 O 0.01919 0.30117 0.94343 0.0
O99 O 0.98614 0.27075 0.90991 0.0
O100 O 0.97271 0.2676 0.93358 0.0
C101 C 0.00446 0.23863 0.95206 0.0
O102 O 0.01645 0.26832 0.9098 0.0
O103 O 0.03497 0.27574 0.93426 0.0
In104 In 0.40282 0.04366 0.29421 0.0
O105 O 0.4267 0.05579 0.27892 0.0
O106 O 0.40626 0.03321 0.26527 0.0
C107 C 0.42737 0.05404 0.32419 0.0
C108 C 0.37675 0.06228 0.28948 0.0
C109 C 0.38643 0.00911 0.29746 0.0
O110 O 0.42871 0.04233 0.31138 0.0
O111 O 0.41356 0.06065 0.32188 0.0
O112 O 0.39321 0.02069 0.31123 0.0
O113 O 0.38819 0.01494 0.28223 0.0
C114 C 0.42111 0.04457 0.26467 0.0
O115 O 0.37374 0.04684 0.29478 0.0
O116 O 0.39314 0.06877 0.28716 0.0
In117 In 0.2768 0.18631 0.51241 0.0
O118 O 0.27072 0.20995 0.53128 0.0
O119 O 0.28497 0.19251 0.54349 0.0
C120 C 0.27921 0.19995 0.47958 0.0
C121 C 0.30521 0.17012 0.51564 0.0
C122 C 0.24322 0.16321 0.50943 0.0
O123 O 0.28601 0.20952 0.49465 0.0
O124 O 0.27128 0.18386 0.48116 0.0
O125 O 0.25765 0.15795 0.50757 0.0
O126 O 0.24562 0.18022 0.51272 0.0
C127 C 0.27794 0.20592 0.54588 0.0
O128 O 0.28876 0.16193 0.51595 0.0
O129 O 0.30756 0.18679 0.51375 0.0
In130 In 0.12898 0.03513 0.77943 0.0
O131 O 0.10244 0.0307 0.75931 0.0
O132 O 0.12787 0.03941 0.74924 0.0
C133 C 0.11543 0.03196 0.81229 0.0
C134 C 0.14418 0.00632 0.77337 0.0
C135 C 0.15035 0.06944 0.7861 0.0
O136 O 0.10537 0.03199 0.79768 0.0
O137 O 0.13202 0.03336 0.81024 0.0
O138 O 0.15661 0.05547 0.78592 0.0
O139 O 0.13311 0.06621 0.78316 0.0
C140 C 0.11069 0.03522 0.74579 0.0
O141 O 0.15311 0.02264 0.7753 0.0
O142 O 0.12725 0.00428 0.77433 0.0
In143 In 0.26883 0.89661 0.00717 0.0
O144 O 0.25513 0.87008 0.01715 0.0
O145 O 0.2782 0.88736 0.03383 0.0
C146 C 0.25972 0.87823 0.9734 0.0
C147 C 0.24916 0.91881 0.02123 0.0
C148 C 0.30205 0.91644 0.00256 0.0
O149 O 0.27023 0.87397 0.98553 0.0
O150 O 0.25371 0.89193 0.97826 0.0
O151 O 0.28741 0.92027 0.99654 0.0
O152 O 0.2999 0.90248 0.01069 0.0
C153 C 0.26608 0.87264 0.03161 0.0
O154 O 0.26609 0.92117 0.02573 0.0
O155 O 0.24201 0.90513 0.0096 0.0
In156 In 0.28297 0.37982 0.03203 0.0
O157 O 0.2704 0.35664 0.0485 0.0
O158 O 0.29212 0.37789 0.06201 0.0
C159 C 0.28166 0.3621 -0.00228 0.0
C160 C 0.25525 0.39708 0.0332 0.0
C161 C 0.31684 0.40183 0.03329 0.0
O162 O 0.28271 0.35425 0.01189 0.0
O163 O 0.28095 0.37846 0.00092 0.0
O164 O 0.30238 0.40742 0.03153 0.0
O165 O 0.3143 0.38504 0.03457 0.0
C166 C 0.28065 0.36334 0.06322 0.0
O167 O 0.27114 0.40382 0.04131 0.0
O168 O 0.25312 0.38138 0.0247 0.0
In169 In 0.7834 0.14952 0.05097 0.0
O170 O 0.79662 0.12687 0.05831 0.0
O171 O 0.80654 0.14179 0.03703 0.0
C172 C 0.74883 0.12887 0.04675 0.0
C173 C 0.79681 0.16839 0.08395 0.0
C174 C 0.77992 0.17239 0.02614 0.0
O175 O 0.76178 0.12353 0.04026 0.0
O176 O 0.75334 0.14455 0.05563 0.0
O177 O 0.78062 0.17694 0.04308 0.0
O178 O 0.78114 0.15634 0.0217 0.0
C179 C 0.80751 0.12899 0.04635 0.0
O180 O 0.80454 0.17139 0.06981 0.0
O181 O 0.7826 0.15551 0.08151 0.0
In182 In 0.16379 0.52731 0.24718 0.0
O183 O 0.19076 0.52558 0.26244 0.0
O184 O 0.17348 0.50122 0.24807 0.0
C185 C 0.17874 0.56181 0.24213 0.0
C186 C 0.14444 0.50994 0.21553 0.0
C187 C 0.14274 0.53098 0.27402 0.0
O188 O 0.18634 0.54905 0.23818 0.0
O189 O 0.16352 0.55703 0.24807 0.0
O190 O 0.13723 0.5306 0.25736 0.0
O191 O 0.1588 0.52899 0.27718 0.0
C192 C 0.18838 0.50875 0.25785 0.0
O193 O 0.14054 0.50548 0.23089 0.0
O194 O 0.15843 0.52284 0.21613 0.0
In195 In 0.78411 0.87884 0.53453 0.0
O196 O 0.7743 0.8549 0.55108 0.0
O197 O 0.78902 0.88013 0.56566 0.0
C198 C 0.78221 0.85885 0.50122 0.0
C199 C 0.75688 0.89661 0.53535 0.0
C200 C 0.81779 0.90096 0.53448 0.0
O201 O 0.79046 0.85547 0.5156 0.0
O202 O 0.77447 0.87172 0.5038 0.0
O203 O 0.80322 0.905 0.52868 0.0
O204 O 0.81545 0.88571 0.54033 0.0
C205 C 0.78086 0.86391 0.56649 0.0
O206 O 0.77348 0.90424 0.54054 0.0
O207 O 0.75384 0.87981 0.52987 0.0
In208 In 0.93491 0.02745 0.26071 0.0
O209 O 0.95821 0.04071 0.24455 0.0
O210 O 0.939 0.01713 0.23152 0.0
C211 C 0.95174 0.02898 0.29533 0.0
C212 C 0.91785 0.05507 0.25888 0.0
C213 C 0.91174 0.99428 0.25874 0.0
O214 O 0.95996 0.02753 0.28135 0.0
O215 O 0.93539 0.02996 0.29181 0.0
O216 O 0.90634 0.00872 0.25811 0.0
O217 O 0.92893 0.99648 0.26023 0.0
C218 C 0.95286 0.02953 0.23022 0.0
O219 O 0.91099 0.03917 0.25105 0.0
O220 O 0.9335 0.05723 0.26762 0.0
In221 In 0.28854 0.64949 0.54341 0.0
O222 O 0.30712 0.64102 0.52354 0.0
O223 O 0.30141 0.62552 0.54555 0.0
C224 C 0.25341 0.63122 0.54279 0.0
C225 C 0.30601 0.665 0.57646 0.0
C226 C 0.2842 0.67465 0.5215 0.0
O227 O 0.26523 0.62422 0.53599 0.0
O228 O 0.25936 0.64738 0.5503 0.0
O229 O 0.28917 0.67864 0.53843 0.0
O230 O 0.28161 0.65803 0.51563 0.0
C231 C 0.3092 0.62752 0.5313 0.0
O232 O 0.31244 0.66871 0.5618 0.0
O233 O 0.29109 0.65307 0.57441 0.0
In234 In 0.42917 0.52798 0.76083 0.0
O235 O 0.40433 0.53924 0.75366 0.0
O236 O 0.42844 0.55803 0.76675 0.0
C237 C 0.40739 0.49425 0.7603 0.0
C238 C 0.44448 0.53081 0.72892 0.0
C239 C 0.44839 0.52989 0.79439 0.0
O240 O 0.40229 0.50858 0.76464 0.0
O241 O 0.42354 0.49687 0.75621 0.0
O242 O 0.45398 0.52448 0.77975 0.0
O243 O 0.43358 0.53475 0.792 0.0
C244 C 0.41193 0.55548 0.76005 0.0
O245 O 0.45316 0.5383 0.74422 0.0
O246 O 0.42844 0.52189 0.72985 0.0
In247 In 0.66497 0.03245 0.75075 0.0
O248 O 0.68796 0.01813 0.74803 0.0
O249 O 0.6698 0.01037 0.76769 0.0
C250 C 0.68851 0.06437 0.74883 0.0
C251 C 0.64309 0.01368 0.72099 0.0
C252 C 0.64479 0.04581 0.77426 0.0
O253 O 0.69062 0.05455 0.76116 0.0
O254 O 0.67469 0.05791 0.73716 0.0
O255 O 0.64197 0.04596 0.75723 0.0
O256 O 0.65756 0.03864 0.77938 0.0
C257 C 0.68381 0.00836 0.76049 0.0
O258 O 0.63906 0.01211 0.737 0.0
O259 O 0.65836 0.02433 0.72008 0.0
In260 In 0.77643 0.68674 0.01513 0.0
O261 O 0.78744 0.66293 0.02379 0.0
O262 O 0.80645 0.68506 0.01587 0.0
C263 C 0.74337 0.66266 0.0086 0.0
C264 C 0.77652 0.70678 0.04819 0.0
C265 C 0.77974 0.7015 0.98295 0.0
O266 O 0.75819 0.6579 0.01166 0.0
O267 O 0.74523 0.67956 0.00855 0.0
O268 O 0.77944 0.71094 -0.00208 0.0
O269 O 0.77845 0.68494 0.98431 0.0
C270 C 0.80377 0.66956 0.02125 0.0
O271 O 0.79096 0.70639 0.04107 0.0
O272 O 0.7622 0.69771 0.03844 0.0
In273 In 0.90324 0.5371 0.79315 0.0
O274 O 0.87882 0.54049 0.7748 0.0
O275 O 0.89585 0.56418 0.79069 0.0
C276 C 0.88387 0.50913 0.80805 0.0
C277 C 0.91712 0.52592 0.76314 0.0
C278 C 0.92867 0.55342 0.82141 0.0
O279 O 0.87748 0.52237 0.80422 0.0
O280 O 0.9001 0.51022 0.8047 0.0
O281 O 0.93249 0.54503 0.8073 0.0
O282 O 0.9121 0.55398 0.82104 0.0
C283 C 0.88184 0.5574 0.77931 0.0
O284 O 0.92123 0.54233 0.77025 0.0
O285 O 0.90611 0.51529 0.77119 0.0
In286 In 0.76786 0.39996 0.49548 0.0
O287 O 0.7521 0.37686 0.50927 0.0
O288 O 0.7755 0.39513 0.52456 0.0
C289 C 0.7605 0.37691 0.4643 0.0
C290 C 0.74896 0.42503 0.50369 0.0
C291 C 0.80246 0.41657 0.49177 0.0
O292 O 0.76852 0.37367 0.47883 0.0
O293 O 0.75592 0.39189 0.46544 0.0
O294 O 0.78884 0.41999 0.48288 0.0
O295 O 0.79859 0.40454 0.50224 0.0
C296 C 0.76258 0.38124 0.52413 0.0
O297 O 0.76599 0.42779 0.50771 0.0
O298 O 0.74127 0.40955 0.49517 0.0
In299 In 0.62118 0.53997 0.2793 0.0
O300 O 0.64784 0.53056 0.27989 0.0
O301 O 0.62309 0.51019 0.2777 0.0
C302 C 0.64442 0.57322 0.28227 0.0
C303 C 0.60204 0.53683 0.2454 0.0
C304 C 0.6042 0.53764 0.31048 0.0
O305 O 0.64859 0.56009 0.28934 0.0
O306 O 0.62841 0.56966 0.27393 0.0
O307 O 0.61455 0.55203 0.30702 0.0
O308 O 0.60177 0.52452 0.29796 0.0
C309 C 0.64033 0.51384 0.27865 0.0
O310 O 0.5961 0.54219 0.25984 0.0
O311 O 0.61717 0.53268 0.24816 0.0
Dy312 Dy 0.05422 0.0447 0.03148 0.0
Dy313 Dy 0.01397 0.02326 0.01166 0.0
C314 C 0.04878 0.02854 0.98933 0.0
O315 O 0.04375 0.06528 0.01653 0.0
O316 O 0.01301 0.05298 0.01488 0.0
O317 O 0.08005 0.0638 0.03094 0.0
O318 O 0.07451 0.05104 0.05527 0.0
O319 O 0.0112 0.02635 0.04154 0.0
O320 O 0.03502 0.05104 0.05114 0.0
O321 O 0.02869 0.00098 0.01574 0.0
O322 O 0.05022 0.01626 0.03924 0.0
O323 O 0.99029 0.00076 0.00949 0.0
O324 O 0.99168 0.02036 0.9902 0.0
C325 C 0.02677 0.0668 0.0135 0.0
O326 O 0.05943 0.03081 0.0049 0.0
O327 O 0.03133 0.02813 0.98906 0.0
C328 C 0.10407 0.05459 0.04694 0.0
C329 C 0.1337 0.03804 0.04886 0.0
C330 C 0.12269 0.03678 0.03219 0.0
C331 C 0.10795 0.04487 0.03126 0.0
C332 C 0.11561 0.05673 0.06339 0.0
C333 C 0.13037 0.04852 0.06436 0.0
C334 C 0.08691 0.06052 0.04671 0.0
C335 C 0.01997 0.03968 0.05412 0.0
C336 C 0.04075 0.00086 0.02977 0.0
C337 C 0.96316 0.00899 -0.00021 0.0
C338 C 0.92977 0.01777 0.00521 0.0
C339 C 0.94328 0.01944 0.02009 0.0
C340 C 0.95989 0.0152 0.01738 0.0
C341 C 0.94946 0.00659 0.98503 0.0
C342 C 0.93286 0.01099 0.9877 0.0
C343 C 0.98138 0.00677 0.99651 0.0
H344 H 0.12514 0.02906 0.01995 0.0
H345 H 0.09919 0.04292 0.01841 0.0
H346 H 0.11272 0.06406 0.07566 0.0
H347 H 0.13859 0.04963 0.0774 0.0
H348 H 0.94141 0.02494 0.03367 0.0
H349 H 0.9704 0.0174 0.02893 0.0
H350 H 0.95184 0.00192 0.97135 0.0
H351 H 0.92262 0.00954 0.97604 0.0
Dy352 Dy 0.29079 0.7858 0.26504 0.0
Dy353 Dy 0.26657 0.78901 0.29887 0.0
C354 C 0.2947 0.82245 0.28936 0.0
O355 O 0.30631 0.77635 0.28791 0.0
O356 O 0.29419 0.78795 0.31254 0.0
O357 O 0.30628 0.79842 0.24483 0.0
O358 O 0.30293 0.7696 0.24649 0.0
O359 O 0.26588 0.75959 0.29215 0.0
O360 O 0.26826 0.76094 0.26187 0.0
O361 O 0.24666 0.78676 0.27382 0.0
O362 O 0.26701 0.7963 0.25366 0.0
O363 O 0.244 0.77872 0.3139 0.0
O364 O 0.26152 0.80564 0.32221 0.0
C365 C 0.30682 0.78079 0.30566 0.0
O366 O 0.30414 0.81117 0.28341 0.0
O367 O 0.27731 0.81654 0.29085 0.0
C368 C 0.30099 0.77909 0.21743 0.0
C369 C 0.28737 0.77727 0.18055 0.0
C370 C 0.2753 0.77461 0.19388 0.0
C371 C 0.28206 0.77548 0.21219 0.0
C372 C 0.31304 0.78075 0.20411 0.0
C373 C 0.30625 0.77975 0.18571 0.0
C374 C 0.30799 0.78291 0.23686 0.0
C375 C 0.26373 0.75157 0.27528 0.0
C376 C 0.25018 0.79254 0.25808 0.0
C377 C 0.25053 0.78893 0.34535 0.0
C378 C 0.25434 0.78069 0.38143 0.0
C379 C 0.26929 0.78284 0.37121 0.0
C380 C 0.26737 0.78686 0.3533 0.0
C381 C 0.23562 0.78702 0.3555 0.0
C382 C 0.23749 0.78286 0.37344 0.0
C383 C 0.24849 0.79283 0.32641 0.0
H384 H 0.2607 0.77262 0.19022 0.0
H385 H 0.27259 0.77415 0.22237 0.0
H386 H 0.32768 0.78361 0.208 0.0
H387 H 0.31584 0.78205 0.1757 0.0
H388 H 0.28233 0.78088 0.37687 0.0
H389 H 0.27899 0.78816 0.34559 0.0
H390 H 0.22252 0.78857 0.3495 0.0
H391 H 0.22577 0.78128 0.38103 0.0
Dy392 Dy 0.51086 0.03193 0.53324 0.0
Dy393 Dy 0.55314 0.03737 0.52258 0.0
C394 C 0.52152 0.04496 0.4956 0.0
O395 O 0.51166 0.00505 0.51734 0.0
O396 O 0.54258 0.00725 0.52173 0.0
O397 O 0.48186 0.0235 0.52437 0.0
O398 O 0.4916 0.03521 0.55246 0.0
O399 O 0.55424 0.03425 0.55223 0.0
O400 O 0.52471 0.01885 0.55406 0.0
O401 O 0.54933 0.06593 0.52806 0.0
O402 O 0.52623 0.06003 0.54629 0.0
O403 O 0.58236 0.04827 0.5292 0.0
O404 O 0.57151 0.03165 0.50333 0.0
C405 C 0.52573 0.99749 0.51689 0.0
O406 O 0.51296 0.04788 0.50974 0.0
O407 O 0.53524 0.03715 0.49676 0.0
C408 C 0.46518 0.04242 0.53862 0.0
C409 C 0.44099 0.06563 0.53558 0.0
C410 C 0.45732 0.06892 0.52738 0.0
C411 C 0.46931 0.05745 0.52892 0.0
C412 C 0.44907 0.03916 0.54698 0.0
C413 C 0.4371 0.05065 0.54551 0.0
C414 C 0.47751 0.03002 0.53989 0.0
C415 C 0.54211 0.02376 0.5605 0.0
C416 C 0.53914 0.07165 0.53983 0.0
C417 C 0.59964 0.028 0.5174 0.0
C418 C 0.62461 0.00568 0.52183 0.0
C419 C 0.6203 0.01577 0.53709 0.0
C420 C 0.6079 0.02676 0.53492 0.0
C421 C 0.60416 0.0181 0.50215 0.0
C422 C 0.61641 0.00701 0.50434 0.0
C423 C 0.58613 0.03918 0.51472 0.0
H424 H 0.4607 0.08015 0.51945 0.0
H425 H 0.48172 0.06022 0.52239 0.0
H426 H 0.44571 0.02769 0.55461 0.0
H427 H 0.42484 0.04785 0.55226 0.0
H428 H 0.62628 0.01493 0.55076 0.0
H429 H 0.60471 0.03414 0.54699 0.0
H430 H 0.5981 0.01887 0.48849 0.0
H431 H 0.61962 -0.00038 0.49228 0.0
Dy432 Dy 0.29781 0.27642 0.77357 0.0
Dy433 Dy 0.25735 0.28732 0.77028 0.0
C434 C 0.29442 0.31533 0.76494 0.0
O435 O 0.29552 0.29083 0.8011 0.0
O436 O 0.26425 0.28404 0.79955 0.0
O437 O 0.32695 0.28472 0.78204 0.0
O438 O 0.31497 0.25775 0.76787 0.0
O439 O 0.25167 0.25724 0.76966 0.0
O440 O 0.27874 0.25365 0.78401 0.0
O441 O 0.26391 0.28385 0.74119 0.0
O442 O 0.28387 0.2655 0.74536 0.0
O443 O 0.2284 0.28173 0.76072 0.0
O444 O 0.24146 0.30631 0.77882 0.0
C445 C 0.28048 0.28955 0.80907 0.0
O446 O 0.30107 0.30143 0.75986 0.0
O447 O 0.27921 0.31315 0.77259 0.0
C448 C 0.34487 0.27211 0.76206 0.0
C449 C 0.37391 0.27669 0.73991 0.0
C450 C 0.36073 0.28707 0.73849 0.0
C451 C 0.34634 0.28476 0.74939 0.0
C452 C 0.35787 0.26167 0.76345 0.0
C453 C 0.3722 0.26389 0.7525 0.0
C454 C 0.33009 0.26985 0.77407 0.0
C455 C 0.26114 0.24753 0.77834 0.0
C456 C 0.27319 0.27244 0.73457 0.0
C457 C 0.21071 0.29284 0.78238 0.0
C458 C 0.18181 0.28832 0.8048 0.0
C459 C 0.19057 0.27417 0.80067 0.0
C460 C 0.20489 0.27643 0.78964 0.0
C461 C 0.20207 0.30695 0.78647 0.0
C462 C 0.18785 0.30476 0.79755 0.0
C463 C 0.226 0.2958 0.77094 0.0
H464 H 0.36142 0.29687 0.72881 0.0
H465 H 0.33639 0.2929 0.74798 0.0
H466 H 0.35703 0.25185 0.77314 0.0
H467 H 0.38216 0.25581 0.75417 0.0
H468 H 0.18626 0.26125 0.80578 0.0
H469 H 0.2114 0.26534 0.78682 0.0
H470 H 0.20642 0.3198 0.78119 0.0
H471 H 0.18181 0.31612 0.80064 0.0
Dy472 Dy 0.03556 0.01293 0.5192 0.0
Dy473 Dy 0.0245 0.0531 0.52317 0.0
C474 C 0.99635 0.01622 0.52841 0.0
O475 O 0.02108 0.01542 0.4919 0.0
O476 O 0.02808 0.04646 0.49386 0.0
O477 O 0.02708 0.984 0.51033 0.0
O478 O 0.05425 0.9958 0.52434 0.0
O479 O 0.0548 0.0588 0.52386 0.0
O480 O 0.05872 0.03206 0.5092 0.0
O481 O 0.028 0.04646 0.55211 0.0
O482 O 0.04631 0.02645 0.54756 0.0
O483 O 0.03 0.08177 0.53344 0.0
O484 O 0.00573 0.06908 0.5147 0.0
C485 C 0.02248 0.0304 0.48414 0.0
O486 O 0.01039 0.00961 0.53316 0.0
O487 O 0.99847 0.03138 0.52097 0.0
C488 C 0.03975 0.96603 0.5297 0.0
C489 C 0.03466 0.93704 0.55143 0.0
C490 C 0.03033 0.95359 0.55734 0.0
C491 C 0.03282 0.96791 0.54657 0.0
C492 C 0.0442 0.94967 0.52382 0.0
C493 C 0.0417 0.93535 0.53454 0.0
C494 C 0.04208 0.98081 0.51796 0.0
C495 C 0.06476 0.04952 0.51513 0.0
C496 C 0.03939 0.03712 0.55851 0.0
C497 C 0.01967 0.09969 0.51218 0.0
C498 C 0.02499 0.12883 0.49062 0.0
C499 C 0.03098 0.11299 0.4856 0.0
C500 C 0.02836 0.09859 0.49628 0.0
C501 C 0.01381 0.11545 0.51731 0.0
C502 C 0.01644 0.12985 0.50669 0.0
C503 C 0.01607 0.08433 0.52316 0.0
H504 H 0.0247 0.95537 0.57013 0.0
H505 H 0.02922 0.98041 0.55134 0.0
H506 H 0.04959 0.94794 0.51087 0.0
H507 H 0.04547 0.923 0.52963 0.0
H508 H 0.03781 0.11175 0.47349 0.0
H509 H 0.03302 0.08655 0.49205 0.0
H510 H 0.00697 0.11655 0.52946 0.0
H511 H 0.01139 0.14165 0.5109 0.0
Dy512 Dy 0.28052 0.80098 0.75799 0.0
Dy513 Dy 0.27394 0.75988 0.77069 0.0
C514 C 0.26717 0.79308 0.79639 0.0
O515 O 0.30705 0.80053 0.7747 0.0
O516 O 0.30433 0.76973 0.77144 0.0
O517 O 0.28955 0.83006 0.76504 0.0
O518 O 0.27767 0.81865 0.73737 0.0
O519 O 0.2766 0.75737 0.74089 0.0
O520 O 0.29418 0.78564 0.73868 0.0
O521 O 0.24561 0.76443 0.76531 0.0
O522 O 0.25222 0.78553 0.74539 0.0
O523 O 0.262 0.73096 0.7652 0.0
O524 O 0.2796 0.74225 0.79044 0.0
C525 C 0.31434 0.78645 0.77585 0.0
O526 O 0.2648 0.80114 0.78188 0.0
O527 O 0.27418 0.77884 0.79578 0.0
C528 C 0.27059 0.84567 0.74962 0.0
C529 C 0.24731 0.86986 0.75157 0.0
C530 C 0.24307 0.85338 0.75912 0.0
C531 C 0.25458 0.8414 0.75812 0.0
C532 C 0.2748 0.86192 0.74189 0.0
C533 C 0.26327 0.8739 0.74282 0.0
C534 C 0.28303 0.83336 0.74912 0.0
C535 C 0.28841 0.76827 0.73268 0.0
C536 C 0.24022 0.77377 0.75272 0.0
C537 C 0.28209 0.71375 0.77679 0.0
C538 C 0.30446 0.68886 0.77258 0.0
C539 C 0.29885 0.69709 0.7576 0.0
C540 C 0.28788 0.70951 0.75971 0.0
C541 C 0.2875 0.70538 0.79168 0.0
C542 C 0.29861 0.69311 0.78962 0.0
C543 C 0.2713 0.7275 0.77961 0.0
H544 H 0.23107 0.84989 0.76616 0.0
H545 H 0.2511 0.82889 0.76418 0.0
H546 H 0.28706 0.86539 0.7352 0.0
H547 H 0.26683 0.8863 0.73661 0.0
H548 H 0.30328 0.69424 0.74434 0.0
H549 H 0.28414 0.71596 0.74803 0.0
H550 H 0.28328 0.70849 0.80499 0.0
H551 H 0.30255 0.68685 0.80137 0.0
Dy552 Dy 0.51851 0.0453 0.99112 0.0
Dy553 Dy 0.52452 0.02338 0.02601 0.0
C554 C 0.52474 0.00487 0.98501 0.0
O555 O 0.49167 0.0265 0.99281 0.0
O556 O 0.49516 0.02432 0.02341 0.0
O557 O 0.50654 0.04614 0.96372 0.0
O558 O 0.52294 0.07077 0.97983 0.0
O559 O 0.52782 0.05248 0.03769 0.0
O560 O 0.51018 0.06091 0.01496 0.0
O561 O 0.55117 0.02915 0.01475 0.0
O562 O 0.54813 0.05451 0.00198 0.0
O563 O 0.54123 0.02084 0.05037 0.0
O564 O 0.51541 0.00124 0.04158 0.0
C565 C 0.48473 0.02235 0.00782 0.0
O566 O 0.52824 0.02113 0.97954 0.0
O567 O 0.51969 0.00249 0.00131 0.0
C568 C 0.5248 0.06749 0.94836 0.0
C569 C 0.54453 0.07559 0.91867 0.0
C570 C 0.54791 0.06219 0.92935 0.0
C571 C 0.53819 0.05823 0.94412 0.0
C572 C 0.5214 0.08093 0.9379 0.0
C573 C 0.5312 0.08497 0.92313 0.0
C574 C 0.51454 0.06323 0.96379 0.0
C575 C 0.51833 0.06368 0.03184 0.0
C576 C 0.55838 0.04433 0.00855 0.0
C577 C 0.52311 0.01101 0.07287 0.0
C578 C 0.51241 0.01839 0.10761 0.0
C579 C 0.50896 0.02872 0.09359 0.0
C580 C 0.51425 0.02505 0.07638 0.0
C581 C 0.52662 0.00062 0.08672 0.0
C582 C 0.52125 0.00426 0.10402 0.0
C583 C 0.52876 0.0076 0.05476 0.0
H584 H 0.55782 0.05446 0.9261 0.0
H585 H 0.541 0.04784 0.95214 0.0
H586 H 0.51117 0.08827 0.94114 0.0
H587 H 0.52841 0.09548 0.91527 0.0
H588 H 0.50188 0.03946 0.09583 0.0
H589 H 0.51139 0.03315 0.06575 0.0
H590 H 0.5335 0.98977 0.08417 0.0
H591 H 0.52414 0.99615 0.11461 0.0
Dy592 Dy 0.26787 0.26205 0.26101 0.0
Dy593 Dy 0.29036 0.30184 0.28162 0.0
C594 C 0.2843 0.26693 0.30342 0.0
O595 O 0.24684 0.27281 0.27518 0.0
O596 O 0.26065 0.30327 0.28051 0.0
O597 O 0.24753 0.23704 0.26089 0.0
O598 O 0.26208 0.24162 0.23737 0.0
O599 O 0.28667 0.30507 0.25184 0.0
O600 O 0.26185 0.28142 0.24183 0.0
O601 O 0.31208 0.28643 0.27702 0.0
O602 O 0.29644 0.26588 0.25294 0.0
O603 O 0.31374 0.32464 0.28373 0.0
O604 O 0.29396 0.32429 0.30306 0.0
C605 C 0.24615 0.28968 0.28013 0.0
O606 O 0.28076 0.25625 0.28772 0.0
O607 O 0.28607 0.28452 0.3041 0.0
C608 C 0.25608 0.21241 0.24616 0.0
C609 C 0.26488 0.17919 0.25072 0.0
C610 C 0.27771 0.19569 0.25693 0.0
C611 C 0.27333 0.21216 0.25471 0.0
C612 C 0.24333 0.19604 0.23953 0.0
C613 C 0.24774 0.17946 0.24173 0.0
C614 C 0.25123 0.22982 0.24541 0.0
C615 C 0.27326 0.2965 0.2392 0.0
C616 C 0.312 0.27476 0.26259 0.0
C617 C 0.30648 0.3523 0.29338 0.0
C618 C 0.29852 0.38569 0.28747 0.0
C619 C 0.29893 0.37283 0.27258 0.0
C620 C 0.30274 0.35623 0.2755 0.0
C621 C 0.30705 0.36545 0.30824 0.0
C622 C 0.30309 0.38204 0.30533 0.0
C623 C 0.30795 0.33399 0.29666 0.0
H624 H 0.29115 0.19589 0.26357 0.0
H625 H 0.2833 0.22472 0.25995 0.0
H626 H 0.22991 0.1961 0.23301 0.0
H627 H 0.23762 0.16691 0.23685 0.0
H628 H 0.29575 0.37537 0.25866 0.0
H629 H 0.30212 0.34625 0.26379 0.0
H630 H 0.3098 0.36258 0.32213 0.0
H631 H 0.3027 0.39159 0.31709 0.0
Dy632 Dy 0.53539 0.51335 0.01708 0.0
Dy633 Dy 0.52353 0.55316 0.02024 0.0
C634 C 0.4957 0.51602 0.02554 0.0
O635 O 0.52125 0.51516 0.98938 0.0
O636 O 0.52674 0.54616 0.99093 0.0
O637 O 0.52779 0.48439 0.00854 0.0
O638 O 0.55459 0.49688 0.02315 0.0
O639 O 0.55389 0.55937 0.02054 0.0
O640 O 0.55825 0.53244 0.00673 0.0
O641 O 0.52658 0.54664 0.0492 0.0
O642 O 0.54592 0.52761 0.04527 0.0
O643 O 0.52864 0.58179 0.0305 0.0
O644 O 0.50461 0.56887 0.01151 0.0
C645 C 0.52182 0.52995 0.98144 0.0
O646 O 0.50983 0.50959 0.03043 0.0
O647 O 0.49768 0.5312 0.01813 0.0
C648 C 0.54054 0.46706 0.0288 0.0
C649 C 0.53634 0.43845 0.05099 0.0
C650 C 0.52378 0.44954 0.05029 0.0
C651 C 0.5259 0.46372 0.03938 0.0
C652 C 0.55315 0.45613 0.02956 0.0
C653 C 0.55111 0.44202 0.04054 0.0
C654 C 0.54275 0.48167 0.01681 0.0
C655 C 0.56403 0.55 0.01217 0.0
C656 C 0.53838 0.53793 0.05594 0.0
C657 C 0.51835 0.59954 0.00906 0.0
C658 C 0.52372 0.62868 0.98755 0.0
C659 C 0.52904 0.61255 0.98213 0.0
C660 C 0.52641 0.59816 0.99279 0.0
C661 C 0.51316 0.61559 0.0146 0.0
C662 C 0.51582 0.63 0.004 0.0
C663 C 0.51474 0.58419 0.02004 0.0
H664 H 0.51239 0.44737 0.05832 0.0
H665 H 0.51607 0.47206 0.03918 0.0
H666 H 0.56454 0.45843 0.02152 0.0
H667 H 0.56094 0.43368 0.04056 0.0
H668 H 0.53536 0.61109 0.96971 0.0
H669 H 0.53058 0.5859 0.98828 0.0
H670 H 0.50683 0.61691 0.02705 0.0
H671 H 0.51132 0.64205 0.00852 0.0
Dy672 Dy 0.78169 0.30887 0.26707 0.0
Dy673 Dy 0.77594 0.25766 0.26114 0.0
C674 C 0.77347 0.27599 0.29514 0.0
O675 O 0.80941 0.3029 0.27558 0.0
O676 O 0.80531 0.27084 0.27323 0.0
O677 O 0.77291 0.32478 0.28867 0.0
O678 O 0.79044 0.33819 0.26995 0.0
O679 O 0.77993 0.2822 0.24781 0.0
O680 O 0.78788 0.30752 0.23766 0.0
O681 O 0.74802 0.26368 0.25385 0.0
O682 O 0.75226 0.2957 0.25482 0.0
O683 O 0.78568 0.24244 0.23971 0.0
O684 O 0.76646 0.22842 0.25672 0.0
C685 C 0.81555 0.28788 0.27716 0.0
O686 O 0.77672 0.28452 0.28105 0.0
O687 O 0.77169 0.25864 0.29092 0.0
C688 C 0.76854 0.35334 0.28142 0.0
C689 C 0.74675 0.37898 0.27932 0.0
C690 C 0.74266 0.3649 0.2903 0.0
C691 C 0.75345 0.3523 0.29139 0.0
C692 C 0.77268 0.36744 0.27049 0.0
C693 C 0.7619 0.38008 0.26943 0.0
C694 C 0.78025 0.34021 0.28304 0.0
C695 C 0.78537 0.29005 0.23395 0.0
C696 C 0.74191 0.27865 0.25177 0.0
C697 C 0.78858 0.2136 0.2461 0.0
C698 C 0.81104 0.18883 0.24918 0.0
C699 C 0.80038 0.18888 0.23254 0.0
C700 C 0.78928 0.20117 0.23103 0.0
C701 C 0.79928 0.21377 0.26268 0.0
C702 C 0.81038 0.20146 0.26422 0.0
C703 C 0.77724 0.22677 0.24409 0.0
H704 H 0.7313 0.36382 0.29836 0.0
H705 H 0.75002 0.34181 0.3002 0.0
H706 H 0.78431 0.36877 0.26279 0.0
H707 H 0.76537 0.39065 0.26073 0.0
H708 H 0.8008 0.1796 0.22059 0.0
H709 H 0.78132 0.20105 0.21804 0.0
H710 H 0.79907 0.22343 0.27442 0.0
H711 H 0.81827 0.20171 0.27727 0.0
Dy712 Dy 0.02175 0.54264 0.49974 0.0
Dy713 Dy 0.02865 0.52081 0.53457 0.0
C714 C 0.0313 0.5036 0.49401 0.0
O715 O 0.99432 0.53344 0.50893 0.0
O716 O 0.99978 0.50918 0.5224 0.0
O717 O 0.0071 0.54414 0.4737 0.0
O718 O 0.02849 0.56708 0.48691 0.0
O719 O 0.01643 0.54327 0.54591 0.0
O720 O 0.02493 0.56267 0.52486 0.0
O721 O 0.05451 0.54137 0.5336 0.0
O722 O 0.0516 0.54361 0.50298 0.0
O723 O 0.0398 0.52056 0.56244 0.0
O724 O 0.02634 0.49532 0.54551 0.0
C725 C 0.98844 0.51781 0.51493 0.0
O726 O 0.02145 0.51428 0.48763 0.0
O727 O 0.03881 0.50653 0.51114 0.0
C728 C 0.02643 0.56066 0.45525 0.0
C729 C 0.04482 0.56289 0.42402 0.0
C730 C 0.04766 0.55071 0.43641 0.0
C731 C 0.03856 0.54964 0.45191 0.0
C732 C 0.02337 0.57273 0.44293 0.0
C733 C 0.03248 0.57381 0.42733 0.0
C734 C 0.01761 0.55989 0.47198 0.0
C735 C 0.01949 0.55968 0.54087 0.0
C736 C 0.06168 0.54599 0.51884 0.0
C737 C 0.02228 0.49766 0.57651 0.0
C738 C 1.00192 0.4895 0.60571 0.0
C739 C 0.99451 0.49654 0.59071 0.0
C740 C 0.00464 0.50061 0.57623 0.0
C741 C 0.02957 0.49019 0.59114 0.0
C742 C 0.01945 0.48612 0.60567 0.0
C743 C 0.0333 0.50311 0.56193 0.0
H744 H 0.0568 0.54188 0.43404 0.0
H745 H 0.04106 0.54025 0.46135 0.0
H746 H 0.01409 0.58139 0.44545 0.0
H747 H 0.03012 0.58336 0.41804 0.0
H748 H 0.98119 0.49958 0.59047 0.0
H749 H 0.99888 0.50647 0.56501 0.0
H750 H 0.04319 0.48784 0.59148 0.0
H751 H 0.02542 0.48059 0.61699 0.0
Dy752 Dy 0.80121 0.77758 0.27661 0.0
Dy753 Dy 0.76081 0.78871 0.27365 0.0
C754 C 0.79754 0.81775 0.26954 0.0
O755 O 0.79462 0.78054 0.30569 0.0
O756 O 0.7749 0.79919 0.30187 0.0
O757 O 0.8303 0.78357 0.28612 0.0
O758 O 0.81731 0.75883 0.26825 0.0
O759 O 0.75747 0.76331 0.28677 0.0
O760 O 0.77937 0.75169 0.27397 0.0
O761 O 0.76307 0.77501 0.24575 0.0
O762 O 0.79436 0.78105 0.24743 0.0
O763 O 0.73159 0.78054 0.26543 0.0
O764 O 0.74378 0.80737 0.27981 0.0
C765 C 0.78552 0.79202 0.31249 0.0
O766 O 0.80684 0.80771 0.27794 0.0
O767 O 0.77995 0.81183 0.26373 0.0
C768 C 0.84797 0.77304 0.26423 0.0
C769 C 0.87751 0.77856 0.2426 0.0
C770 C 0.85923 0.77253 0.23436 0.0
C771 C 0.84467 0.76986 0.24502 0.0
C772 C 0.86613 0.77923 0.2725 0.0
C773 C 0.8807 0.78201 0.26185 0.0
C774 C 0.83278 0.76962 0.27581 0.0
C775 C 0.76409 0.74943 0.2815 0.0
C776 C 0.77813 0.77594 0.23785 0.0
C777 C 0.71379 0.79293 0.2862 0.0
C778 C 0.68484 0.78905 0.30866 0.0
C779 C 0.68651 0.77436 0.2963 0.0
C780 C 0.70075 0.77627 0.28523 0.0
C781 C 0.71214 0.80762 0.29856 0.0
C782 C 0.69793 0.80569 0.30968 0.0
C783 C 0.72857 0.79524 0.27395 0.0
H784 H 0.85612 0.76949 0.21964 0.0
H785 H 0.83082 0.76512 0.23818 0.0
H786 H 0.86907 0.78187 0.28727 0.0
H787 H 0.89448 0.78699 0.26877 0.0
H788 H 0.67686 0.76128 0.29525 0.0
H789 H 0.70146 0.76466 0.27583 0.0
H790 H 0.72176 0.82071 0.29953 0.0
H791 H 0.69698 0.81739 0.31881 0.0
Dy792 Dy 0.7914 0.2907 0.76587 0.0
Dy793 Dy 0.76706 0.29147 0.79996 0.0
C794 C 0.79091 0.32713 0.78962 0.0
O795 O 0.80793 0.28159 0.7881 0.0
O796 O 0.79571 0.29276 0.81288 0.0
O797 O 0.81206 0.30451 0.75059 0.0
O798 O 0.79854 0.27629 0.74196 0.0
O799 O 0.76972 0.26302 0.79451 0.0
O800 O 0.77221 0.26349 0.76411 0.0
O801 O 0.74695 0.28774 0.77469 0.0
O802 O 0.76665 0.29971 0.75489 0.0
O803 O 0.74407 0.27991 0.81386 0.0
O804 O 0.76211 0.30608 0.82469 0.0
C805 C 0.80863 0.28615 0.80584 0.0
O806 O 0.8017 0.31734 0.78343 0.0
O807 O 0.77417 0.31933 0.79201 0.0
C808 C 0.8038 0.29531 0.71915 0.0
C809 C 0.79266 0.30273 0.68406 0.0
C810 C 0.78756 0.31158 0.69959 0.0
C811 C 0.793 0.30785 0.71696 0.0
C812 C 0.8088 0.28629 0.70369 0.0
C813 C 0.8032 0.28993 0.68619 0.0
C814 C 0.80882 0.29099 0.73749 0.0
C815 C 0.76863 0.25449 0.77802 0.0
C816 C 0.74992 0.29436 0.75919 0.0
C817 C 0.75032 0.28695 0.84575 0.0
C818 C 0.7533 0.27514 0.88037 0.0
C819 C 0.76837 0.27792 0.87033 0.0
C820 C 0.76686 0.2837 0.85312 0.0
C821 C 0.73526 0.28428 0.85571 0.0
C822 C 0.73671 0.27834 0.87291 0.0
C823 C 0.74873 0.29286 0.8276 0.0
H824 H 0.77918 0.32128 0.69828 0.0
H825 H 0.78868 0.31472 0.72869 0.0
H826 H 0.81693 0.2764 0.70515 0.0
H827 H 0.8073 0.28297 0.67438 0.0
H828 H 0.78121 0.27523 0.8756 0.0
H829 H 0.77856 0.28552 0.8455 0.0
H830 H 0.72239 0.2867 0.85014 0.0
H831 H 0.72492 0.27631 0.88041 0.0
Dy832 Dy 0.76704 0.75828 0.76225 0.0
Dy833 Dy 0.78887 0.79824 0.78304 0.0
C834 C 0.7838 0.76399 0.80476 0.0
O835 O 0.74485 0.77317 0.76609 0.0
O836 O 0.75995 0.794 0.79022 0.0
O837 O 0.74582 0.73377 0.76169 0.0
O838 O 0.76236 0.73706 0.73944 0.0
O839 O 0.77623 0.80401 0.75627 0.0
O840 O 0.77111 0.77576 0.73988 0.0
O841 O 0.81015 0.78811 0.7687 0.0
O842 O 0.79688 0.7575 0.7633 0.0
O843 O 0.80831 0.82393 0.78354 0.0
O844 O 0.79428 0.81807 0.80716 0.0
C845 C 0.7446 0.78502 0.78025 0.0
O846 O 0.77025 0.75557 0.79221 0.0
O847 O 0.79539 0.77884 0.8019 0.0
C848 C 0.75445 0.70819 0.74853 0.0
C849 C 0.76533 0.67542 0.74964 0.0
C850 C 0.77261 0.69019 0.76334 0.0
C851 C 0.76725 0.70644 0.76276 0.0
C852 C 0.74674 0.69342 0.73508 0.0
C853 C 0.75214 0.6771 0.73562 0.0
C854 C 0.75041 0.72589 0.74699 0.0
C855 C 0.77281 0.79335 0.74059 0.0
C856 C 0.81113 0.77134 0.76361 0.0
C857 C 0.79831 0.84734 0.79895 0.0
C858 C 0.78613 0.87934 0.79752 0.0
C859 C 0.77636 0.8631 0.78687 0.0
C860 C 0.78238 0.84725 0.78761 0.0
C861 C 0.80809 0.86341 0.80977 0.0
C862 C 0.80197 0.87937 0.80913 0.0
C863 C 0.80441 0.83051 0.79921 0.0
H864 H 0.78306 0.68948 0.77411 0.0
H865 H 0.77351 0.71784 0.77313 0.0
H866 H 0.73692 0.69466 0.72394 0.0
H867 H 0.74625 0.66591 0.72495 0.0
H868 H 0.7639 0.8626 0.77811 0.0
H869 H 0.77458 0.83487 0.77932 0.0
H870 H 0.82039 0.86362 0.81862 0.0
H871 H 0.80969 0.89174 0.81747 0.0
Dy872 Dy 0.55144 0.54409 0.53306 0.0
Dy873 Dy 0.51136 0.52225 0.51215 0.0
C874 C 0.54605 0.52812 0.49047 0.0
O875 O 0.53723 0.56656 0.52866 0.0
O876 O 0.51484 0.55124 0.50572 0.0
O877 O 0.57728 0.56351 0.5333 0.0
O878 O 0.57164 0.54955 0.55683 0.0
O879 O 0.50472 0.53451 0.53876 0.0
O880 O 0.53323 0.54077 0.55516 0.0
O881 O 0.52149 0.50143 0.527 0.0
O882 O 0.55228 0.51443 0.53169 0.0
O883 O 0.48629 0.50164 0.51085 0.0
O884 O 0.49166 0.51672 0.48792 0.0
C885 C 0.52463 0.56662 0.51511 0.0
O886 O 0.55437 0.54155 0.50311 0.0
O887 O 0.53135 0.51633 0.49339 0.0
C888 C 0.60082 0.55304 0.54807 0.0
C889 C 0.63096 0.53733 0.54882 0.0
C890 C 0.61577 0.53049 0.53551 0.0
C891 C 0.60083 0.53825 0.53517 0.0
C892 C 0.61613 0.56032 0.56108 0.0
C893 C 0.63123 0.55255 0.56139 0.0
C894 C 0.5841 0.5595 0.54873 0.0
C895 C 0.51544 0.53865 0.5544 0.0
C896 C 0.53837 0.50034 0.53172 0.0
C897 C 0.4613 0.50837 0.49421 0.0
C898 C 0.42662 0.516 0.49174 0.0
C899 C 0.43931 0.52284 0.5074 0.0
C900 C 0.45653 0.51912 0.5086 0.0
C901 C 0.44864 0.50127 0.47867 0.0
C902 C 0.43139 0.50511 0.47739 0.0
C903 C 0.47969 0.50517 0.4951 0.0
H904 H 0.61535 0.51898 0.52546 0.0
H905 H 0.58905 0.53242 0.52508 0.0
H906 H 0.61621 0.57165 0.57122 0.0
H907 H 0.6428 0.55803 0.57178 0.0
H908 H 0.43615 0.5316 0.51849 0.0
H909 H 0.46624 0.52489 0.52062 0.0
H910 H 0.45221 0.493 0.46743 0.0
H911 H 0.42185 0.49972 0.46518 0.0
Dy912 Dy 0.01051 0.53215 0.03106 0.0
Dy913 Dy 0.05287 0.53851 0.02018 0.0
C914 C 0.02084 0.54567 0.99316 0.0
O915 O 0.01154 0.50533 0.01528 0.0
O916 O 0.04265 0.50822 0.01836 0.0
O917 O 0.98141 0.52329 0.02284 0.0
O918 O 0.99166 0.53503 0.05085 0.0
O919 O 0.05387 0.53557 0.04982 0.0
O920 O 0.02487 0.51869 0.05111 0.0
O921 O 0.04842 0.56678 0.02561 0.0
O922 O 0.02557 0.56039 0.04405 0.0
O923 O 0.08196 0.54974 0.02739 0.0
O924 O 0.07176 0.53352 0.00122 0.0
C925 C 0.02583 0.49818 0.01411 0.0
O926 O 0.01165 0.54755 0.00709 0.0
O927 O 0.03527 0.53888 0.99441 0.0
C928 C 0.96446 0.54152 0.03788 0.0
C929 C 0.93921 0.56378 0.03625 0.0
C930 C 0.95378 0.56614 0.02547 0.0
C931 C 0.9663 0.55517 0.02632 0.0
C932 C 0.95013 0.53921 0.0488 0.0
C933 C 0.93765 0.55023 0.04803 0.0
C934 C 0.97732 0.5296 0.03858 0.0
C935 C 0.04222 0.52412 0.05765 0.0
C936 C 0.0382 0.57224 0.0375 0.0
C937 C 0.09946 0.53011 0.01584 0.0
C938 C 0.12408 0.50749 0.01985 0.0
C939 C 0.1083 0.5049 0.02893 0.0
C940 C 0.09608 0.51607 0.0269 0.0
C941 C 0.11525 0.53291 0.00695 0.0
C942 C 0.12746 0.52172 0.00894 0.0
C943 C 0.08616 0.54124 0.01281 0.0
H944 H 0.95535 0.57624 0.01608 0.0
H945 H 0.97733 0.55724 0.01782 0.0
H946 H 0.94856 0.52884 0.05791 0.0
H947 H 0.92684 0.5482 0.05678 0.0
H948 H 0.10516 0.49397 0.03727 0.0
H949 H 0.08385 0.5136 0.03375 0.0
H950 H 0.11806 0.54364 -0.00167 0.0
H951 H 0.13958 0.52427 0.00195 0.0
H952 H 1.00196 0.20536 0.93263 0.0
H953 H 0.00482 0.177 0.94387 0.0
H954 H 0.01214 0.20318 -0.0006 0.0
H955 H 0.01013 0.23197 0.98805 0.0
H956 H 0.03428 0.18245 -0.00212 0.0
H957 H 0.96893 0.13962 0.96265 0.0
H958 H 0.98291 0.14962 0.94639 0.0
H959 H 0.97474 0.16394 0.96297 0.0
C960 C 0.00405 0.20512 0.94726 0.0
C961 C 0.00564 0.22109 0.95937 0.0
C962 C 0.00553 0.1887 0.95375 0.0
C963 C 0.0082 0.18743 0.97264 0.0
C964 C 0.00994 0.20346 0.98478 0.0
H965 H 0.9948 0.07909 0.01212 0.0
H966 H 0.99016 0.10818 0.00351 0.0
C967 C 0.00873 0.22001 0.97826 0.0
C968 C 0.00984 0.16969 0.97961 0.0
H969 H 0.99058 0.12372 0.97426 0.0
C970 C 0.02458 0.16968 0.99275 0.0
C971 C 0.99712 0.15276 0.97345 0.0
C972 C 0.97994 0.15149 0.96076 0.0
C973 C 0.02721 0.15354 -0.00061 0.0
C974 C 0.01517 0.13646 0.99232 0.0
C975 C 1.00012 0.13653 0.97959 0.0
C976 C 0.01798 0.1185 -0.00218 0.0
C977 C 0.0427 0.1552 0.01436 0.0
C978 C 0.03503 0.11402 0.99734 0.0
C979 C 0.03777 0.09749 0.00256 0.0
C980 C 0.02346 0.08449 0.00807 0.0
C981 C 0.00622 0.08868 0.00808 0.0
C982 C 1.00355 0.10541 0.00309 0.0
H983 H 0.04614 0.16882 0.02261 0.0
H984 H 0.03929 0.14474 0.0237 0.0
H985 H 0.0551 0.15355 0.00812 0.0
H986 H 0.04632 0.12326 0.9927 0.0
H987 H 0.05118 0.0948 0.00201 0.0
H988 H 0.12182 0.79078 0.12603 0.0
H989 H 0.14936 0.78962 0.1458 0.0
H990 H 0.12974 0.81555 0.19171 0.0
H991 H 0.10216 0.81669 0.17206 0.0
H992 H 0.16822 0.82991 0.18831 0.0
H993 H 0.14988 0.7547 0.1856 0.0
H994 H 0.14956 0.76329 0.16386 0.0
H995 H 0.13336 0.76736 0.17907 0.0
C996 C 0.1234 0.79634 0.14031 0.0
C997 C 0.1097 0.8038 0.14743 0.0
C998 C 0.13913 0.79557 0.15164 0.0
C999 C 0.1416 0.80231 0.17035 0.0
C1000 C 0.12818 0.81021 0.17737 0.0
H1001 H 0.21339 0.78301 0.26109 0.0
H1002 H 0.1879 0.78576 0.23956 0.0
C1003 C 0.11238 0.81085 0.16609 0.0
C1004 C 0.15798 0.8009 0.18268 0.0
H1005 H 0.17864 0.7703 0.2015 0.0
C1006 C 0.17053 0.81687 0.19113 0.0
C1007 C 0.16097 0.78391 0.18657 0.0
C1008 C 0.1477 0.7663 0.17846 0.0
C1009 C 0.18597 0.8163 0.20316 0.0
C1010 C 0.18904 0.7993 0.2069 0.0
C1011 C 0.17642 0.78334 0.19856 0.0
C1012 C 0.20486 0.7978 0.21996 0.0
C1013 C 0.19868 0.8339 0.21214 0.0
C1014 C 0.22303 0.8035 0.21613 0.0
C1015 C 0.23774 0.80184 0.22843 0.0
C1016 C 0.23465 0.79453 0.24493 0.0
C1017 C 0.21641 0.78881 0.24864 0.0
C1018 C 0.20174 0.79033 0.23629 0.0
H1019 H 0.19264 0.84573 0.21057 0.0
H1020 H 0.20216 0.83331 0.22694 0.0
H1021 H 0.2116 0.83613 0.20576 0.0
H1022 H 0.22584 0.80907 0.20353 0.0
H1023 H 0.25154 0.80629 0.22499 0.0
H1024 H 0.498 0.81887 0.4861 0.0
H1025 H 0.49941 0.8507 0.49759 0.0
H1026 H 0.52371 0.86801 0.45 0.0
H1027 H 0.52207 0.83643 0.43841 0.0
H1028 H 0.52744 0.88083 0.50705 0.0
H1029 H 0.48249 0.89344 0.449 0.0
H1030 H 0.48467 0.87091 0.45252 0.0
H1031 H 0.50159 0.88555 0.4417 0.0
C1032 C 0.50364 0.82946 0.47809 0.0
C1033 C 0.50982 0.82494 0.46124 0.0
C1034 C 0.50444 0.84772 0.48467 0.0
C1035 C 0.51131 0.86197 0.47454 0.0
C1036 C 0.51786 0.85744 0.45794 0.0
H1037 H 0.55177 0.97777 0.51383 0.0
H1038 H 0.54756 0.94535 0.5043 0.0
C1039 C 0.51705 0.83926 0.45137 0.0
C1040 C 0.51194 0.88152 0.48135 0.0
H1041 H 0.49969 0.91968 0.46889 0.0
C1042 C 0.52126 0.88924 0.49871 0.0
C1043 C 0.50366 0.89268 0.47075 0.0
C1044 C 0.49238 0.88519 0.45254 0.0
C1045 C 0.523 0.9077 0.50543 0.0
C1046 C 0.51551 0.9191 0.49443 0.0
C1047 C 0.50568 0.91121 0.47733 0.0
C1048 C 0.51797 0.93919 0.50028 0.0
C1049 C 0.53267 0.91472 0.52443 0.0
C1050 C 0.50282 0.94706 0.50074 0.0
C1051 C 0.5052 0.96586 0.5061 0.0
C1052 C 0.52283 0.97739 0.51104 0.0
C1053 C 0.53794 0.96947 0.51032 0.0
C1054 C 0.53555 0.95076 0.50497 0.0
H1055 H 0.53234 0.90354 0.53302 0.0
H1056 H 0.54723 0.92118 0.52352 0.0
H1057 H 0.52642 0.925 0.53137 0.0
H1058 H 0.48908 0.93862 0.49709 0.0
H1059 H 0.4932 0.97133 0.50638 0.0
H1060 H 0.49207 0.28341 0.62224 0.0
H1061 H 0.46586 0.28039 0.63979 0.0
H1062 H 0.50168 0.30832 0.68796 0.0
H1063 H 0.52799 0.31106 0.67056 0.0
H1064 H 0.4782 0.2783 0.69562 0.0
H1065 H 0.43921 0.31829 0.65653 0.0
H1066 H 0.44457 0.30006 0.64246 0.0
H1067 H 0.46274 0.31852 0.65388 0.0
C1068 C 0.49435 0.28904 0.63654 0.0
C1069 C 0.51215 0.29756 0.64496 0.0
C1070 C 0.47931 0.2874 0.64655 0.0
C1071 C 0.48166 0.29438 0.66518 0.0
C1072 C 0.49944 0.30288 0.6736 0.0
H1073 H 0.39448 0.30868 0.73105 0.0
H1074 H 0.42045 0.31291 0.71315 0.0
C1075 C 0.51449 0.30448 0.66361 0.0
C1076 C 0.46575 0.29226 0.67607 0.0
H1077 H 0.42353 0.30115 0.67789 0.0
C1078 C 0.46628 0.28336 0.69176 0.0
C1079 C 0.45024 0.29906 0.67124 0.0
C1080 C 0.44917 0.30968 0.65522 0.0
C1081 C 0.45171 0.28081 0.70253 0.0
C1082 C 0.4359 0.287 0.69732 0.0
C1083 C 0.4355 0.2962 0.68181 0.0
C1084 C 0.41977 0.28429 0.70791 0.0
C1085 C 0.45359 0.27183 0.71962 0.0
C1086 C 0.41041 0.26678 0.7107 0.0
C1087 C 0.39554 0.26432 0.72096 0.0
C1088 C 0.38948 0.2793 0.72853 0.0
C1089 C 0.39862 0.2968 0.72534 0.0
C1090 C 0.41355 0.29925 0.71514 0.0
H1091 H 0.46816 0.27268 0.72446 0.0
H1092 H 0.4474 0.27813 0.73083 0.0
H1093 H 0.44643 0.25723 0.71662 0.0
H1094 H 0.41456 0.25495 0.70487 0.0
H1095 H 0.38865 0.25061 0.72279 0.0
H1096 H 0.00565 0.78468 0.61989 0.0
H1097 H 0.00897 0.8109 0.60277 0.0
H1098 H 0.02747 0.84704 0.65309 0.0
H1099 H 0.02443 0.82087 0.67025 0.0
H1100 H 0.99264 0.83984 0.60482 0.0
H1101 H 0.06784 0.86487 0.62197 0.0
H1102 H 0.05565 0.84264 0.62612 0.0
H1103 H 0.05559 0.86243 0.64157 0.0
C1104 C 0.01044 0.79821 0.62732 0.0
C1105 C 0.01487 0.80065 0.64645 0.0
C1106 C 0.01232 0.81321 0.61751 0.0
C1107 C 0.01879 0.83101 0.62655 0.0
C1108 C 0.02287 0.83348 0.6457 0.0
H1109 H 0.0409 0.93837 0.58889 0.0
H1110 H 0.0363 0.91298 0.60714 0.0
C1111 C 0.021 0.81848 0.65553 0.0
C1112 C 0.02105 0.84691 0.61595 0.0
H1113 H 0.05252 0.88375 0.60627 0.0
C1114 C 0.00575 0.8494 0.60511 0.0
C1115 C 0.03814 0.85947 0.6163 0.0
C1116 C 0.05529 0.85719 0.62697 0.0
C1117 C 0.00701 0.86415 0.59486 0.0
C1118 C 0.02412 0.87665 0.59513 0.0
C1119 C 0.03939 0.87423 0.60605 0.0
C1120 C 0.02653 0.89214 0.58398 0.0
C1121 C 0.98989 0.8664 0.5841 0.0
C1122 C 0.02275 0.88898 0.56482 0.0
C1123 C 0.02527 0.90348 0.55434 0.0
C1124 C 0.03177 0.92158 0.56272 0.0
C1125 C 0.03564 0.92469 0.58193 0.0
C1126 C 0.03313 0.91015 0.59241 0.0
H1127 H 0.97733 0.85901 0.58932 0.0
H1128 H 0.98968 0.88096 0.58458 0.0
H1129 H 0.98945 0.86076 0.5696 0.0
H1130 H 0.01798 0.87523 0.55791 0.0
H1131 H 0.02198 0.90049 0.53963 0.0
H1132 H 0.49339 0.81355 0.81002 0.0
H1133 H 0.46165 0.81234 0.79789 0.0
H1134 H 0.44238 0.78661 0.84395 0.0
H1135 H 0.47389 0.78799 0.85618 0.0
H1136 H 0.43141 0.7841 0.78725 0.0
H1137 H 0.41738 0.82826 0.84554 0.0
H1138 H 0.4402 0.82617 0.84226 0.0
H1139 H 0.42514 0.80917 0.85255 0.0
C1140 C 0.48238 0.80761 0.81754 0.0
C1141 C 0.48629 0.80096 0.83416 0.0
C1142 C 0.4642 0.80694 0.8106 0.0
C1143 C 0.44947 0.79973 0.82014 0.0
C1144 C 0.45338 0.79269 0.83649 0.0
H1145 H 0.33375 0.76039 0.77941 0.0
H1146 H 0.36625 0.76441 0.78934 0.0
C1147 C 0.47149 0.79336 0.84342 0.0
C1148 C 0.43005 0.7993 0.81301 0.0
H1149 H 0.39141 0.81165 0.82489 0.0
C1150 C 0.42273 0.79023 0.79546 0.0
C1151 C 0.41862 0.80754 0.82348 0.0
C1152 C 0.42576 0.8185 0.84192 0.0
C1153 C 0.40432 0.78866 0.78843 0.0
C1154 C 0.39265 0.79611 0.79928 0.0
C1155 C 0.40014 0.80571 0.81657 0.0
C1156 C 0.37261 0.7938 0.79312 0.0
C1157 C 0.39765 0.77918 0.76929 0.0
C1158 C 0.36491 0.80893 0.79237 0.0
C1159 C 0.3461 0.80667 0.78676 0.0
C1160 C 0.33443 0.78919 0.78189 0.0
C1161 C 0.34218 0.77409 0.78288 0.0
C1162 C 0.36092 0.77636 0.78846 0.0
H1163 H 0.40915 0.77936 0.76094 0.0
H1164 H 0.39084 0.76477 0.76996 0.0
H1165 H 0.38762 0.78559 0.76223 0.0
H1166 H 0.3735 0.82255 0.796 0.0
H1167 H 0.34072 0.81863 0.78626 0.0
H1168 H 0.50191 0.21627 0.11543 0.0
H1169 H 0.50233 0.18861 0.09567 0.0
H1170 H 0.51921 0.16495 0.14286 0.0
H1171 H 0.51831 0.19242 0.16274 0.0
H1172 H 0.52979 0.17341 0.0891 0.0
H1173 H 0.47846 0.12365 0.11845 0.0
H1174 H 0.48174 0.14786 0.12413 0.0
H1175 H 0.49697 0.13609 0.13515 0.0
C1176 C 0.50551 0.2051 0.12165 0.0
C1177 C 0.50994 0.20656 0.14073 0.0
C1178 C 0.5058 0.18926 0.1103 0.0
C1179 C 0.51051 0.17442 0.11768 0.0
C1180 C 0.51503 0.1759 0.13676 0.0
H1181 H 0.529 0.07133 0.06892 0.0
H1182 H 0.52711 0.09797 0.08952 0.0
C1183 C 0.51462 0.19171 0.14814 0.0
C1184 C 0.51138 0.1578 0.10532 0.0
H1185 H 0.49577 0.11145 0.0973 0.0
C1186 C 0.52223 0.1599 0.09087 0.0
C1187 C 0.5016 0.14004 0.10752 0.0
C1188 C 0.4889 0.13674 0.12203 0.0
C1189 C 0.52376 0.14487 0.07884 0.0
C1190 C 0.51404 0.12715 0.08109 0.0
C1191 C 0.50326 0.125 0.09556 0.0
C1192 C 0.51485 0.11073 0.06851 0.0
C1193 C 0.53609 0.14807 0.06401 0.0
C1194 C 0.50831 0.10877 0.04981 0.0
C1195 C 0.50929 0.09348 0.03798 0.0
C1196 C 0.51688 0.07975 0.04452 0.0
C1197 C 0.52319 0.08164 0.06331 0.0
C1198 C 0.52208 0.09688 0.07516 0.0
H1199 H 0.54588 0.16162 0.06676 0.0
H1200 H 0.54396 0.13746 0.06255 0.0
H1201 H 0.52761 0.14742 0.05078 0.0
H1202 H 0.50238 0.11907 0.04436 0.0
H1203 H 0.50422 0.09252 0.02365 0.0
H1204 H 0.07994 0.28286 0.31886 0.0
H1205 H 0.10911 0.28093 0.30774 0.0
H1206 H 0.13648 0.32977 0.34349 0.0
H1207 H 0.10753 0.33133 0.35508 0.0
H1208 H 0.13275 0.30109 0.28998 0.0
H1209 H 0.16989 0.29898 0.35738 0.0
H1210 H 0.14558 0.29711 0.35425 0.0
H1211 H 0.16144 0.31907 0.35693 0.0
C1212 C 0.09217 0.29319 0.32438 0.0
C1213 C 0.09127 0.30719 0.33801 0.0
C1214 C 0.10895 0.29208 0.31799 0.0
C1215 C 0.12539 0.30493 0.325 0.0
C1216 C 0.12433 0.31925 0.33819 0.0
H1217 H 0.23969 0.32071 0.29873 0.0
H1218 H 0.21081 0.32504 0.30915 0.0
C1219 C 0.10762 0.32026 0.34471 0.0
C1220 C 0.14344 0.30346 0.31835 0.0
H1221 H 0.18789 0.30301 0.33274 0.0
C1222 C 0.14472 0.30144 0.29941 0.0
C1223 C 0.15934 0.30385 0.33045 0.0
C1224 C 0.15898 0.30468 0.35086 0.0
C1225 C 0.16121 0.30006 0.29237 0.0
C1226 C 0.17708 0.30061 0.30447 0.0
C1227 C 0.17588 0.30274 0.32338 0.0
C1228 C 0.19475 0.29824 0.29774 0.0
C1229 C 0.16159 0.29823 0.27194 0.0
C1230 C 0.1956 0.28173 0.28789 0.0
C1231 C 0.21212 0.27917 0.28206 0.0
C1232 C 0.22841 0.29307 0.28574 0.0
C1233 C 0.22751 0.3097 0.29546 0.0
C1234 C 0.21096 0.31218 0.30151 0.0
H1235 H 0.14988 0.30229 0.26474 0.0
H1236 H 0.17454 0.30665 0.26841 0.0
H1237 H 0.16078 0.28384 0.2668 0.0
H1238 H 0.18349 0.27063 0.28495 0.0
H1239 H 0.21211 0.26614 0.27468 0.0
H1240 H 0.98256 0.05543 0.22348 0.0
H1241 H 0.99483 0.05922 0.19414 0.0
H1242 H 0.95433 0.0116 0.16847 0.0
H1243 H 0.942 0.00777 0.19759 0.0
H1244 H 0.00874 0.03469 0.17042 0.0
H1245 H 0.94715 0.05114 0.13632 0.0
H1246 H 0.95139 0.05188 0.16083 0.0
H1247 H 0.94244 0.03049 0.14664 0.0
C1248 C 0.97633 0.04573 0.21159 0.0
C1249 C 0.96124 0.03134 0.21288 0.0
C1250 C 0.98335 0.04792 0.19483 0.0
C1251 C 0.97531 0.03588 0.179 0.0
C1252 C 0.96055 0.02127 0.18039 0.0
H1253 H 0.9893 0.01856 0.06487 0.0
H1254 H 0.97941 0.019 0.09532 0.0
C1255 C 0.95358 0.01903 0.1971 0.0
C1256 C 0.98226 0.03849 0.161 0.0
H1257 H 0.96917 0.04502 0.11719 0.0
C1258 C 1.00017 0.03713 0.15882 0.0
C1259 C 0.97108 0.04168 0.14584 0.0
C1260 C 0.952 0.04406 0.14749 0.0
C1261 C 0.00695 0.03817 0.14175 0.0
C1262 C 0.99564 0.04106 0.12649 0.0
C1263 C 0.97785 0.04279 0.12882 0.0
C1264 C 1.00163 0.04146 0.10783 0.0
C1265 C 0.02589 0.03543 0.14006 0.0
C1266 C 0.01724 0.05423 0.10447 0.0
C1267 C 0.02301 0.054 0.08697 0.0
C1268 C 0.01321 0.04107 0.0724 0.0
C1269 C 0.99727 0.02869 0.07571 0.0
C1270 C 0.99156 0.02892 0.09317 0.0
H1271 H 0.03093 0.02894 0.15162 0.0
H1272 H 0.02616 0.02688 0.12705 0.0
H1273 H 0.03552 0.04883 0.1401 0.0
H1274 H 0.02502 0.06435 0.11541 0.0
H1275 H 0.03529 0.06379 0.08495 0.0
H1276 H 0.28877 0.71115 0.53098 0.0
H1277 H 0.28411 0.73363 0.5107 0.0
H1278 H 0.26855 0.69127 0.46485 0.0
H1279 H 0.27332 0.6688 0.4849 0.0
H1280 H 0.2954 0.72255 0.45931 0.0
H1281 H 0.23427 0.73972 0.48631 0.0
H1282 H 0.25382 0.74097 0.50268 0.0
H1283 H 0.24146 0.71936 0.49067 0.0
C1284 C 0.28432 0.70665 0.51658 0.0
C1285 C 0.2814 0.68826 0.50948 0.0
C1286 C 0.28157 0.71947 0.50507 0.0
C1287 C 0.27581 0.71401 0.48638 0.0
C1288 C 0.27294 0.69568 0.47928 0.0
H1289 H 0.23078 0.75406 0.39514 0.0
H1290 H 0.23641 0.74097 0.42331 0.0
C1291 C 0.27568 0.68289 0.49074 0.0
C1292 C 0.27329 0.72735 0.47388 0.0
H1293 H 0.24523 0.75454 0.46168 0.0
C1294 C 0.28458 0.72973 0.45991 0.0
C1295 C 0.25907 0.73653 0.47476 0.0
C1296 C 0.24633 0.73401 0.48931 0.0
C1297 C 0.28171 0.74068 0.44639 0.0
C1298 C 0.26736 0.74971 0.44711 0.0
C1299 C 0.25632 0.7477 0.46134 0.0
C1300 C 0.26262 0.75982 0.43215 0.0
C1301 C 0.29352 0.74178 0.43097 0.0
C1302 C 0.27517 0.77519 0.42828 0.0
C1303 C 0.27202 0.78266 0.41219 0.0
C1304 C 0.2562 0.77492 0.39984 0.0
C1305 C 0.24303 0.76036 0.40445 0.0
C1306 C 0.24624 0.75286 0.4205 0.0
H1307 H 0.30163 0.73133 0.43066 0.0
H1308 H 0.285 0.74006 0.41756 0.0
H1309 H 0.30321 0.75535 0.43273 0.0
H1310 H 0.28776 0.7809 0.4373 0.0
H1311 H 0.28224 0.79408 0.40909 0.0
H1312 H 0.64865 0.0162 0.68551 0.0
H1313 H 0.62554 0.00802 0.65884 0.0
H1314 H 0.58492 0.98482 0.69252 0.0
H1315 H 0.60801 0.99327 0.71947 0.0
H1316 H 0.60039 0.97562 0.64164 0.0
H1317 H 0.56586 0.02653 0.67292 0.0
H1318 H 0.5884 0.02518 0.68207 0.0
H1319 H 0.56866 0.00823 0.68559 0.0
C1320 C 0.63489 0.00905 0.68721 0.0
C1321 C 0.63004 0.00563 0.70459 0.0
C1322 C 0.62171 0.00433 0.67195 0.0
C1323 C 0.60348 0.99611 0.67381 0.0
C1324 C 0.59887 0.99143 0.6909 0.0
H1325 H 0.52159 0.00579 0.58474 0.0
H1326 H 0.53294 0.9942 0.61219 0.0
C1327 C 0.61208 0.99619 0.70623 0.0
C1328 C 0.58932 0.99445 0.65816 0.0
H1329 H 0.5572 0.0158 0.64197 0.0
C1330 C 0.59062 0.98405 0.64179 0.0
C1331 C 0.57651 0.0054 0.65846 0.0
C1332 C 0.57473 0.01707 0.67563 0.0
C1333 C 0.58034 0.98529 0.62542 0.0
C1334 C 0.56871 0.9974 0.62546 0.0
C1335 C 0.56621 0.00659 0.64206 0.0
C1336 C 0.56147 0.00302 0.60833 0.0
C1337 C 0.58266 0.97431 0.60805 0.0
C1338 C 0.57381 0.01206 0.59737 0.0
C1339 C 0.56746 0.01884 0.58192 0.0
C1340 C 0.5486 0.01675 0.57712 0.0
C1341 C 0.5362 0.00761 0.58809 0.0
C1342 C 0.54263 0.00092 0.6037 0.0
H1343 H 0.58677 0.96169 0.61098 0.0
H1344 H 0.56984 0.97059 0.5984 0.0
H1345 H 0.59362 0.98248 0.60127 0.0
H1346 H 0.58844 0.01421 0.60098 0.0
H1347 H 0.57739 0.02572 0.57375 0.0
H1348 H 0.28367 0.3782 0.96653 0.0
H1349 H 0.28392 0.36428 0.93542 0.0
H1350 H 0.27977 0.3121 0.95461 0.0
H1351 H 0.28003 0.32616 0.98609 0.0
H1352 H 0.30426 0.31753 0.92996 0.0
H1353 H 0.24053 0.33403 0.90182 0.0
H1354 H 0.25721 0.35393 0.91257 0.0
H1355 H 0.24767 0.33653 0.92607 0.0
C1356 C 0.28273 0.36373 0.96418 0.0
C1357 C 0.28165 0.35327 0.97882 0.0
C1358 C 0.28278 0.35575 0.9463 0.0
C1359 C 0.28144 0.33702 0.94249 0.0
C1360 C 0.28067 0.32655 0.95713 0.0
H1361 H 0.25311 0.28187 0.8308 0.0
H1362 H 0.25398 0.29193 0.8633 0.0
C1363 C 0.28077 0.33458 0.97512 0.0
C1364 C 0.28103 0.32855 0.92326 0.0
H1365 H 0.25897 0.32469 0.88004 0.0
C1366 C 0.29426 0.31898 0.91906 0.0
C1367 C 0.26784 0.33014 0.90899 0.0
C1368 C 0.2524 0.33904 0.9126 0.0
C1369 C 0.29494 0.31137 0.90102 0.0
C1370 C 0.28231 0.31376 0.88662 0.0
C1371 C 0.26883 0.32299 0.89093 0.0
C1372 C 0.28246 0.30659 0.86704 0.0
C1373 C 0.30899 0.30057 0.89768 0.0
C1374 C 0.29821 0.31131 0.8581 0.0
C1375 C 0.29781 0.30533 0.83944 0.0
C1376 C 0.28156 0.29479 0.82919 0.0
C1377 C 0.26588 0.29 0.8382 0.0
C1378 C 0.26634 0.29578 0.85684 0.0
H1379 H 0.31354 0.29527 0.9103 0.0
H1380 H 0.30354 0.28894 0.88677 0.0
H1381 H 0.3212 0.30952 0.89335 0.0
H1382 H 0.31071 0.32002 0.86543 0.0
H1383 H 0.31009 0.30944 0.83292 0.0
H1384 H 0.93481 0.02731 0.32626 0.0
H1385 H 0.94821 0.02717 0.35752 0.0
H1386 H 1.00123 0.03101 0.33903 0.0
H1387 H 0.98769 0.03058 0.30744 0.0
H1388 H 0.99542 0.00699 0.36332 0.0
H1389 H 0.97803 0.07002 0.39172 0.0
H1390 H 0.95815 0.05338 0.38081 0.0
H1391 H 0.97584 0.06295 0.36745 0.0
C1392 C 0.94935 0.02821 0.32881 0.0
C1393 C 0.96021 0.02913 0.31434 0.0
C1394 C 0.95704 0.02824 0.34677 0.0
C1395 C 0.97585 0.02951 0.35082 0.0
C1396 C 0.98671 0.03016 0.33634 0.0
H1397 H 0.03005 0.05778 0.46278 0.0
H1398 H 0.0201 0.05698 0.43034 0.0
C1399 C 0.97897 0.02996 0.31828 0.0
C1400 C 0.98404 0.02992 0.3701 0.0
H1401 H 0.98727 0.05178 0.41341 0.0
C1402 C 0.99375 0.01687 0.37426 0.0
C1403 C 0.98218 0.04297 0.38441 0.0
C1404 C 0.97316 0.05823 0.38086 0.0
C1405 C 1.00122 0.01625 0.39229 0.0
C1406 C 0.99855 0.02875 0.40674 0.0
C1407 C 0.98918 0.04202 0.40248 0.0
C1408 C 0.00557 0.02863 0.42631 0.0
C1409 C 0.01223 0.00243 0.39557 0.0
C1410 C 1.00086 0.01294 0.43506 0.0
C1411 C 0.00678 0.01329 0.45369 0.0
C1412 C 0.01725 0.02944 0.46408 0.0
C1413 C 0.02199 0.04509 0.45527 0.0
C1414 C 0.01627 0.04467 0.43665 0.0
H1415 H 0.01779 -0.00198 0.38297 0.0
H1416 H 0.0238 0.00793 0.40657 0.0
H1417 H 1.00324 0.99024 0.39976 0.0
H1418 H 0.99221 0.0005 0.42763 0.0
H1419 H 1.00269 0.00105 0.46005 0.0
H1420 H 0.29441 0.65938 0.60952 0.0
H1421 H 0.30259 0.68057 0.63766 0.0
H1422 H 0.34313 0.71599 0.61208 0.0
H1423 H 0.33484 0.69487 0.58365 0.0
H1424 H 0.33569 0.69834 0.66141 0.0
H1425 H 0.30506 0.74576 0.62307 0.0
H1426 H 0.30219 0.72229 0.61393 0.0
H1427 H 0.32385 0.73817 0.61442 0.0
C1428 C 0.30536 0.67146 0.60999 0.0
C1429 C 0.31377 0.67564 0.59433 0.0
C1430 C 0.31006 0.68353 0.6261 0.0
C1431 C 0.32322 0.69996 0.62679 0.0
C1432 C 0.33275 0.70348 0.61168 0.0
H1433 H 0.31402 0.78568 0.71233 0.0
H1434 H 0.3278 0.77169 0.68765 0.0
C1435 C 0.32805 0.69138 0.5955 0.0
C1436 C 0.32493 0.71407 0.64249 0.0
H1437 H 0.30954 0.75176 0.6549 0.0
C1438 C 0.33042 0.71029 0.66 0.0
C1439 C 0.31816 0.72972 0.64056 0.0
C1440 C 0.31188 0.7343 0.62203 0.0
C1441 C 0.3281 0.72106 0.67571 0.0
C1442 C 0.31979 0.7357 0.67375 0.0
C1443 C 0.31581 0.74044 0.65629 0.0
C1444 C 0.31243 0.74431 0.6892 0.0
C1445 C 0.33378 0.71616 0.69424 0.0
C1446 C 0.29892 0.73358 0.6978 0.0
C1447 C 0.29093 0.74147 0.71167 0.0
C1448 C 0.29622 0.76032 0.71718 0.0
C1449 C 0.30962 0.77113 0.70837 0.0
C1450 C 0.3176 0.76317 0.69438 0.0
H1451 H 0.34533 0.70942 0.69376 0.0
H1452 H 0.33791 0.72835 0.70468 0.0
H1453 H 0.3221 0.70647 0.69859 0.0
H1454 H 0.29434 0.71907 0.69361 0.0
H1455 H 0.28063 0.73272 0.71809 0.0
H1456 H 0.61418 0.05821 0.76632 0.0
H1457 H 0.59597 0.07017 0.78813 0.0
H1458 H 0.63315 0.06284 0.83299 0.0
H1459 H 0.65132 0.05083 0.81139 0.0
H1460 H 0.5798 0.04973 0.81574 0.0
H1461 H 0.62675 0.11546 0.8456 0.0
H1462 H 0.62869 0.10382 0.82361 0.0
H1463 H 0.63742 0.09666 0.84433 0.0
C1464 C 0.61854 0.05931 0.78084 0.0
C1465 C 0.63411 0.05355 0.78721 0.0
C1466 C 0.60818 0.06618 0.79323 0.0
C1467 C 0.61344 0.06765 0.81209 0.0
C1468 C 0.62912 0.06215 0.81845 0.0
H1469 H 0.5807 0.07751 0.91605 0.0
H1470 H 0.59595 0.07874 0.88844 0.0
C1471 C 0.63937 0.05514 0.80611 0.0
C1472 C 0.60173 0.07324 0.82531 0.0
H1473 H 0.60291 0.10301 0.86329 0.0
C1474 C 0.58459 0.06159 0.82592 0.0
C1475 C 0.60815 0.08872 0.83849 0.0
C1476 C 0.6262 0.102 0.83793 0.0
C1477 C 0.57423 0.06425 0.84024 0.0
C1478 C 0.58106 0.07926 0.85399 0.0
C1479 C 0.59773 0.09152 0.85273 0.0
C1480 C 0.57228 0.08109 0.87087 0.0
C1481 C 0.55672 0.05024 0.8412 0.0
C1482 C 0.55411 0.08265 0.87025 0.0
C1483 C 0.54522 0.08157 0.88597 0.0
C1484 C 0.55447 0.07915 0.90258 0.0
C1485 C 0.57306 0.07891 0.90337 0.0
C1486 C 0.58185 0.07981 0.88765 0.0
H1487 H 0.5553 0.03776 0.83147 0.0
H1488 H 0.55611 0.04633 0.85522 0.0
H1489 H 0.54485 0.05606 0.83772 0.0
H1490 H 0.54661 0.08402 0.85748 0.0
H1491 H 0.5309 0.08181 0.8849 0.0
H1492 H 0.25627 0.3326 0.07013 0.0
H1493 H 0.25307 0.3207 0.09961 0.0
H1494 H 0.29822 0.36418 0.12534 0.0
H1495 H 0.30137 0.37619 0.09612 0.0
H1496 H 0.27808 0.309 0.12321 0.0
H1497 H 0.25831 0.36829 0.15791 0.0
H1498 H 0.25815 0.3645 0.13342 0.0
H1499 H 0.27928 0.37429 0.14795 0.0
C1500 C 0.26552 0.3396 0.08208 0.0
C1501 C 0.27901 0.35541 0.08076 0.0
C1502 C 0.26367 0.33279 0.09893 0.0
C1503 C 0.27516 0.34173 0.11483 0.0
C1504 C 0.28889 0.35726 0.11341 0.0
H1505 H 0.29411 0.32747 0.22889 0.0
H1506 H 0.29344 0.33767 0.19865 0.0
C1507 C 0.29076 0.36405 0.09663 0.0
C1508 C 0.27305 0.33479 0.13288 0.0
H1509 H 0.26626 0.34722 0.17697 0.0
C1510 C 0.27531 0.31728 0.13492 0.0
C1511 C 0.26944 0.34558 0.14822 0.0
C1512 C 0.26598 0.36414 0.14678 0.0
C1513 C 0.27471 0.31053 0.15195 0.0
C1514 C 0.2714 0.32145 0.16736 0.0
C1515 C 0.26884 0.33884 0.16523 0.0
C1516 C 0.27117 0.31535 0.18593 0.0
C1517 C 0.2783 0.29203 0.15344 0.0
C1518 C 0.25858 0.29961 0.1891 0.0
C1519 C 0.25891 0.2937 0.20647 0.0
C1520 C 0.2718 0.30347 0.22111 0.0
C1521 C 0.28402 0.31953 0.218 0.0
C1522 C 0.28366 0.32541 0.20066 0.0
H1523 H 0.28501 0.28738 0.14173 0.0
H1524 H 0.2871 0.29209 0.16633 0.0
H1525 H 0.2651 0.28201 0.15349 0.0
H1526 H 0.24851 0.29182 0.17812 0.0
H1527 H 0.24924 0.28132 0.20831 0.0
H1528 H 0.26248 0.95031 0.04424 0.0
H1529 H 0.24546 0.97218 0.05523 0.0
H1530 H 0.19559 0.93793 0.02569 0.0
H1531 H 0.21246 0.91598 0.01469 0.0
H1532 H 0.22518 0.98995 0.03218 0.0
H1533 H 0.18164 0.95031 0.07734 0.0
H1534 H 0.20215 0.94461 0.07041 0.0
H1535 H 0.18113 0.93806 0.05517 0.0
C1536 C 0.24785 0.94735 0.04026 0.0
C1537 C 0.23875 0.93146 0.02862 0.0
C1538 C 0.23818 0.95984 0.04655 0.0
C1539 C 0.21928 0.9565 0.04147 0.0
C1540 C 0.21013 0.94054 0.03005 0.0
H1541 H 0.12983 0.00294 0.03459 0.0
H1542 H 0.15267 0.98502 0.03585 0.0
C1543 C 0.21979 0.92808 0.02368 0.0
C1544 C 0.20924 0.97028 0.04687 0.0
H1545 H 0.17173 0.97573 0.06689 0.0
C1546 C 0.21372 0.98706 0.04009 0.0
C1547 C 0.19441 0.9664 0.05728 0.0
C1548 C 0.18963 0.94893 0.06563 0.0
C1549 C 0.20288 -0.00038 0.04234 0.0
C1550 C 0.18743 0.99529 0.05187 0.0
C1551 C 0.18359 0.97894 0.05956 0.0
C1552 C 0.17378 0.00636 0.05199 0.0
C1553 C 0.20736 0.01685 0.03352 0.0
C1554 C 0.1781 0.02426 0.06082 0.0
C1555 C 0.16508 0.03466 0.05996 0.0
C1556 C 0.14763 0.02725 0.05023 0.0
C1557 C 0.1433 0.00917 0.04181 0.0
C1558 C 0.15626 -0.00115 0.04268 0.0
H1559 H 0.21821 0.01686 0.02439 0.0
H1560 H 0.19496 0.01874 0.02543 0.0
H1561 H 0.21219 0.02866 0.04432 0.0
H1562 H 0.19153 0.03018 0.06827 0.0
H1563 H 0.16875 0.04855 0.06661 0.0
H1564 H 0.70968 0.6702 0.00642 0.0
H1565 H 0.67985 0.64872 0.00458 0.0
H1566 H 0.7062 0.60411 0.00311 0.0
H1567 H 0.73612 0.62558 0.00547 0.0
H1568 H 0.6617 0.62054 0.97909 0.0
H1569 H 0.6763 0.59491 0.04512 0.0
H1570 H 0.69096 0.61474 0.03836 0.0
H1571 H 0.69221 0.59237 0.02908 0.0
C1572 C 0.70912 0.65581 0.00567 0.0
C1573 C 0.72525 0.64959 0.00624 0.0
C1574 C 0.69206 0.64355 0.0046 0.0
C1575 C 0.69078 0.62481 0.00406 0.0
C1576 C 0.70685 0.61852 0.004 0.0
H1577 H 0.59292 0.53577 0.00334 0.0
H1578 H 0.62393 0.55266 -0.00038 0.0
C1579 C 0.72393 0.6308 0.00521 0.0
C1580 C 0.67263 0.61199 0.00372 0.0
H1581 H 0.64791 0.58083 0.02761 0.0
C1582 C 0.65873 0.61182 0.98967 0.0
C1583 C 0.66872 0.60057 0.01753 0.0
C1584 C 0.68276 0.60072 0.03347 0.0
C1585 C 0.64103 0.60071 0.98915 0.0
C1586 C 0.63708 0.58955 0.0031 0.0
C1587 C 0.65105 0.58933 0.01688 0.0
C1588 C 0.6182 0.57916 0.00446 0.0
C1589 C 0.62661 0.60106 0.97376 0.0
C1590 C 0.60481 0.58849 0.00851 0.0
C1591 C 0.58722 0.57895 0.01079 0.0
C1592 C 0.5826 0.55984 0.00902 0.0
C1593 C 0.596 0.55048 0.00472 0.0
C1594 C 0.61372 0.56009 0.00262 0.0
H1595 H 0.63276 0.60674 0.96191 0.0
H1596 H 0.61792 0.58719 0.96908 0.0
H1597 H 0.61764 0.60972 0.97871 0.0
H1598 H 0.60806 0.60321 0.01022 0.0
H1599 H 0.57726 0.58663 0.01402 0.0
H1600 H 0.62738 0.47699 0.27687 0.0
H1601 H 0.64521 0.45385 0.27695 0.0
H1602 H 0.69501 0.49562 0.2796 0.0
H1603 H 0.67735 0.51879 0.2798 0.0
H1604 H 0.66874 0.44522 0.2525 0.0
H1605 H 0.70614 0.4682 0.32209 0.0
H1606 H 0.68628 0.47588 0.31407 0.0
H1607 H 0.7083 0.48576 0.30744 0.0
C1608 C 0.64214 0.48124 0.27753 0.0
C1609 C 0.65097 0.49973 0.27845 0.0
C1610 C 0.6523 0.46801 0.27756 0.0
C1611 C 0.67147 0.47302 0.27859 0.0
C1612 C 0.68028 0.49145 0.27921 0.0
H1613 H 0.75845 0.41582 0.27944 0.0
H1614 H 0.73985 0.43818 0.27846 0.0
C1615 C 0.67015 0.50468 0.27922 0.0
C1616 C 0.68227 0.45898 0.27872 0.0
H1617 H 0.71636 0.446 0.30365 0.0
C1618 C 0.67908 0.44532 0.26373 0.0
C1619 C 0.69576 0.45912 0.29338 0.0
C1620 C 0.69925 0.47292 0.31024 0.0
C1621 C 0.6893 0.43204 0.26282 0.0
C1622 C 0.70287 0.43227 0.27742 0.0
C1623 C 0.706 0.44588 0.29244 0.0
C1624 C 0.714 0.41852 0.27743 0.0
C1625 C 0.68578 0.41816 0.24603 0.0
C1626 C 0.70566 0.40004 0.27728 0.0
C1627 C 0.71625 0.3872 0.27775 0.0
C1628 C 0.73542 0.39259 0.27845 0.0
C1629 C 0.74372 0.41115 0.27862 0.0
C1630 C 0.73312 0.42397 0.27819 0.0
H1631 H 0.6784 0.42256 0.23428 0.0
H1632 H 0.6988 0.41556 0.24194 0.0
H1633 H 0.6772 0.40517 0.24909 0.0
H1634 H 0.69096 0.39555 0.27701 0.0
H1635 H 0.70939 0.37303 0.27746 0.0
H1636 H 0.83366 0.41111 0.50925 0.0
H1637 H 0.86482 0.42966 0.51017 0.0
H1638 H 0.84522 0.46352 0.47363 0.0
H1639 H 0.81392 0.44508 0.4727 0.0
H1640 H 0.88615 0.43846 0.48021 0.0
H1641 H 0.87212 0.49895 0.51986 0.0
H1642 H 0.85712 0.47655 0.5182 0.0
H1643 H 0.85712 0.48935 0.49916 0.0
C1644 C 0.836 0.42242 0.5013 0.0
C1645 C 0.82138 0.42674 0.491 0.0
C1646 C 0.85378 0.43298 0.50184 0.0
C1647 C 0.85719 0.44805 0.49217 0.0
C1648 C 0.84275 0.45207 0.48138 0.0
H1649 H 0.96098 0.52873 0.4957 0.0
H1650 H 0.92874 0.51237 0.48887 0.0
C1651 C 0.82493 0.44148 0.4808 0.0
C1652 C 0.87588 0.45972 0.49383 0.0
H1653 H 0.90221 0.50127 0.51279 0.0
C1654 C 0.88968 0.45223 0.48721 0.0
C1655 C 0.88031 0.47769 0.50289 0.0
C1656 C 0.86597 0.48616 0.51057 0.0
C1657 C 0.90794 0.46219 0.48969 0.0
C1658 C 0.91249 0.47991 0.49937 0.0
C1659 C 0.89862 0.48763 0.50545 0.0
C1660 C 0.93169 0.49024 0.50411 0.0
C1661 C 0.92223 0.45364 0.482 0.0
C1662 C 0.94378 0.48345 0.51539 0.0
C1663 C 0.96212 0.49271 0.51933 0.0
C1664 C 0.96868 0.50902 0.51213 0.0
C1665 C 0.95636 0.51618 0.50141 0.0
C1666 C 0.93797 0.50685 0.49746 0.0
H1667 H 0.91604 0.44249 0.47075 0.0
H1668 H 0.93281 0.46388 0.47675 0.0
H1669 H 0.92909 0.44777 0.49298 0.0
H1670 H 0.93904 0.47086 0.52101 0.0
H1671 H 0.9712 0.48692 0.5278 0.0
H1672 H 0.34012 0.04747 0.28629 0.0
H1673 H 0.31543 0.06153 0.27652 0.0
H1674 H 0.35518 0.11139 0.27319 0.0
H1675 H 0.37996 0.09717 0.28229 0.0
H1676 H 0.30479 0.08963 0.2915 0.0
H1677 H 0.32557 0.104 0.22398 0.0
H1678 H 0.33542 0.08943 0.2375 0.0
H1679 H 0.34411 0.11375 0.24164 0.0
C1680 C 0.34358 0.06144 0.28347 0.0
C1681 C 0.36193 0.07124 0.28494 0.0
C1682 C 0.32947 0.06941 0.27784 0.0
C1683 C 0.3335 0.08733 0.27368 0.0
C1684 C 0.35181 0.09733 0.27574 0.0
H1685 H 0.28122 0.17127 0.28207 0.0
H1686 H 0.29343 0.14489 0.28616 0.0
C1687 C 0.36593 0.08929 0.28113 0.0
C1688 C 0.31859 0.0959 0.26789 0.0
H1689 H 0.30631 0.12228 0.23681 0.0
C1690 C 0.3049 0.09647 0.27935 0.0
C1691 C 0.31834 0.10429 0.25172 0.0
C1692 C 0.33154 0.10265 0.23791 0.0
C1693 C 0.29186 0.10651 0.27583 0.0
C1694 C 0.29293 0.11659 0.26079 0.0
C1695 C 0.30566 0.11477 0.24852 0.0
C1696 C 0.28293 0.13098 0.25894 0.0
C1697 C 0.27739 0.10657 0.28854 0.0
C1698 C 0.27303 0.13202 0.24222 0.0
C1699 C 0.26633 0.14736 0.23972 0.0
C1700 C 0.2696 0.16189 0.25388 0.0
C1701 C 0.27872 0.16037 0.27085 0.0
C1702 C 0.28545 0.14515 0.2733 0.0
H1703 H 0.27369 0.09336 0.29406 0.0
H1704 H 0.28285 0.11728 0.30033 0.0
H1705 H 0.26481 0.10927 0.28155 0.0
H1706 H 0.2711 0.12129 0.23091 0.0
H1707 H 0.25941 0.14824 0.22648 0.0
H1708 H 0.34222 0.18462 0.51711 0.0
H1709 H 0.36681 0.16842 0.51978 0.0
H1710 H 0.32677 0.11827 0.52082 0.0
H1711 H 0.30227 0.13422 0.51811 0.0
H1712 H 0.37524 0.14704 0.54802 0.0
H1713 H 0.35702 0.10591 0.47974 0.0
H1714 H 0.34879 0.12597 0.48558 0.0
H1715 H 0.3382 0.10476 0.49305 0.0
C1716 C 0.33869 0.17013 0.51785 0.0
C1717 C 0.3203 0.16069 0.51731 0.0
C1718 C 0.35273 0.16091 0.5194 0.0
C1719 C 0.34859 0.14209 0.52022 0.0
C1720 C 0.33026 0.13272 0.51986 0.0
H1721 H 0.40344 0.05561 0.53044 0.0
H1722 H 0.38211 0.0751 0.52721 0.0
C1723 C 0.31628 0.1419 0.5184 0.0
C1724 C 0.36332 0.13213 0.52179 0.0
H1725 H 0.37805 0.09699 0.50077 0.0
C1726 C 0.37602 0.13622 0.53762 0.0
C1727 C 0.36426 0.118 0.50822 0.0
C1728 C 0.35146 0.11346 0.4906 0.0
C1729 C 0.3892 0.1261 0.54056 0.0
C1730 C 0.38993 0.11173 0.52712 0.0
C1731 C 0.37746 0.10793 0.51111 0.0
C1732 C 0.40313 0.10011 0.52955 0.0
C1733 C 0.40174 0.13043 0.55835 0.0
C1734 C 0.4221 0.10762 0.53183 0.0
C1735 C 0.43438 0.0965 0.5339 0.0
C1736 C 0.42796 0.07758 0.53358 0.0
C1737 C 0.40893 0.07012 0.53111 0.0
C1738 C 0.39668 0.08124 0.5291 0.0
H1739 H 0.39639 0.13849 0.56897 0.0
H1740 H 0.40369 0.1178 0.56366 0.0
H1741 H 0.41532 0.13855 0.55601 0.0
H1742 H 0.42744 0.12207 0.53186 0.0
H1743 H 0.44891 0.10277 0.5359 0.0
H1744 H 0.63882 0.60309 0.26726 0.0
H1745 H 0.66068 0.63243 0.26811 0.0
H1746 H 0.70131 0.61323 0.3001 0.0
H1747 H 0.67945 0.58389 0.29946 0.0
H1748 H 0.69888 0.64823 0.31345 0.0
H1749 H 0.70486 0.64223 0.23907 0.0
H1750 H 0.68173 0.63908 0.24438 0.0
H1751 H 0.69478 0.62308 0.25032 0.0
C1752 C 0.6524 0.60512 0.27449 0.0
C1753 C 0.65744 0.59116 0.28323 0.0
C1754 C 0.66492 0.62185 0.27486 0.0
C1755 C 0.68273 0.62491 0.2839 0.0
C1756 C 0.68768 0.61112 0.29295 0.0
H1757 H 0.77208 0.71682 0.27076 0.0
H1758 H 0.75354 0.68625 0.27245 0.0
C1759 C 0.67518 0.59437 0.29256 0.0
C1760 C 0.69611 0.64258 0.28409 0.0
H1761 H 0.71797 0.67123 0.25619 0.0
C1762 C 0.70314 0.65323 0.30095 0.0
C1763 C 0.70189 0.64894 0.26779 0.0
C1764 C 0.69558 0.63768 0.24937 0.0
C1765 C 0.71538 0.67033 0.3019 0.0
C1766 C 0.72052 0.67704 0.28553 0.0
C1767 C 0.71391 0.66614 0.26872 0.0
C1768 C 0.73229 0.69554 0.28547 0.0
C1769 C 0.72277 0.681 0.32042 0.0
C1770 C 0.72649 0.71091 0.2922 0.0
C1771 C 0.73704 0.72836 0.29128 0.0
C1772 C 0.75359 0.73085 0.28349 0.0
C1773 C 0.75946 0.71542 0.2769 0.0
C1774 C 0.74886 0.69793 0.27782 0.0
H1775 H 0.72184 0.67205 0.33142 0.0
H1776 H 0.73727 0.68846 0.32071 0.0
H1777 H 0.7146 0.69107 0.32351 0.0
H1778 H 0.71357 0.70941 0.2978 0.0
H1779 H 0.732 0.7399 0.29638 0.0
H1780 H 0.8479 0.50253 0.81379 0.0
H1781 H 0.82821 0.47331 0.81819 0.0
H1782 H 0.87471 0.44935 0.81887 0.0
H1783 H 0.89443 0.47845 0.8149 0.0
H1784 H 0.82253 0.44423 0.793 0.0
H1785 H 0.84912 0.42614 0.85871 0.0
H1786 H 0.85484 0.4491 0.85299 0.0
H1787 H 0.86737 0.43289 0.84516 0.0
C1788 C 0.85399 0.49113 0.81541 0.0
C1789 C 0.87265 0.49269 0.81389 0.0
C1790 C 0.84274 0.47448 0.81793 0.0
C1791 C 0.85003 0.45921 0.81906 0.0
C1792 C 0.86886 0.46104 0.81851 0.0
H1793 H 0.82581 0.34712 0.78982 0.0
H1794 H 0.83759 0.37975 0.79905 0.0
C1795 C 0.8801 0.47766 0.81606 0.0
C1796 C 0.83781 0.44087 0.81796 0.0
H1797 H 0.83392 0.40066 0.83551 0.0
C1798 C 0.82464 0.43482 0.80258 0.0
C1799 C 0.84059 0.42863 0.83046 0.0
C1800 C 0.85363 0.43461 0.84785 0.0
C1801 C 0.81515 0.41653 0.79865 0.0
C1802 C 0.81892 0.4041 0.81046 0.0
C1803 C 0.83124 0.4103 0.82642 0.0
C1804 C 0.81159 0.38439 0.80549 0.0
C1805 C 0.80202 0.41037 0.78132 0.0
C1806 C 0.79307 0.37634 0.8061 0.0
C1807 C 0.78627 0.35769 0.80083 0.0
C1808 C 0.79792 0.34689 0.79483 0.0
C1809 C 0.81648 0.35507 0.79429 0.0
C1810 C 0.82325 0.37367 0.79964 0.0
H1811 H 0.80178 0.42154 0.77282 0.0
H1812 H 0.80582 0.3991 0.77304 0.0
H1813 H 0.78799 0.40512 0.78484 0.0
H1814 H 0.78393 0.38448 0.81065 0.0
H1815 H 0.77192 0.35177 0.80145 0.0
H1816 H 0.07594 0.86629 0.1115 0.0
H1817 H 0.07289 0.89416 0.09896 0.0
H1818 H 0.03658 0.86212 0.05302 0.0
H1819 H 0.03947 0.83418 0.06563 0.0
H1820 H 0.0811 0.90752 0.0669 0.0
H1821 H 0.00646 0.89707 0.06949 0.0
H1822 H 0.01981 0.88368 0.08086 0.0
H1823 H 0.01273 0.87863 0.05664 0.0
C1824 C 0.06731 0.86511 0.0987 0.0
C1825 C 0.05793 0.84782 0.08968 0.0
C1826 C 0.06556 0.88117 0.0915 0.0
C1827 C 0.05422 0.88054 0.0751 0.0
C1828 C 0.04509 0.86324 0.06588 0.0
H1829 H 0.02375 0.96565 0.01416 0.0
H1830 H 0.02746 0.93692 0.02442 0.0
C1831 C 0.04689 0.84716 0.07306 0.0
C1832 C 0.05216 0.89792 0.06769 0.0
H1833 H 0.0207 0.92189 0.05491 0.0
C1834 C 0.06786 0.91062 0.06435 0.0
C1835 C 0.03495 0.90223 0.06417 0.0
C1836 C 0.01753 0.88979 0.06812 0.0
C1837 C 0.06685 0.9271 0.05745 0.0
C1838 C 0.04965 0.93152 0.05412 0.0
C1839 C 0.03393 0.91875 0.05735 0.0
C1840 C 0.04768 0.94932 0.04756 0.0
C1841 C 0.0843 0.93937 0.05333 0.0
C1842 C 0.05759 0.96621 0.05705 0.0
C1843 C 0.05556 0.98273 0.05111 0.0
C1844 C 0.04339 0.98304 0.03554 0.0
C1845 C 0.03336 0.96614 0.02612 0.0
C1846 C 0.03543 0.94959 0.03205 0.0
H1847 H 0.09487 0.9317 0.05086 0.0
H1848 H 0.08185 0.94628 0.04116 0.0
H1849 H 0.08989 0.94989 0.06525 0.0
H1850 H 0.06675 0.96669 0.06933 0.0
H1851 H 0.06343 0.99532 0.05896 0.0
H1852 H 0.93835 0.27037 0.92908 0.0
H1853 H 0.91 0.27244 0.91122 0.0
H1854 H 0.93613 0.27106 0.86196 0.0
H1855 H 0.96447 0.26906 0.8797 0.0
H1856 H 0.9052 0.29999 0.88809 0.0
H1857 H 0.88778 0.23096 0.84898 0.0
H1858 H 0.90362 0.23701 0.86972 0.0
H1859 H 0.91081 0.24383 0.84852 0.0
C1860 C 0.93802 0.27036 0.91442 0.0
C1861 C 0.9537 0.26945 0.90583 0.0
C1862 C 0.9218 0.2716 0.90422 0.0
C1863 C 0.9208 0.27171 0.88517 0.0
C1864 C 0.93642 0.27072 0.87657 0.0
H1865 H 0.84005 0.27761 0.79604 0.0
H1866 H 0.8665 0.27447 0.81587 0.0
C1867 C 0.95266 0.26964 0.88676 0.0
C1868 C 0.90365 0.27334 0.87432 0.0
H1869 H 0.87047 0.25141 0.83955 0.0
C1870 C 0.89751 0.28932 0.87757 0.0
C1871 C 0.89362 0.25947 0.86051 0.0
C1872 C 0.89914 0.24177 0.85676 0.0
C1873 C 0.88203 0.29203 0.86705 0.0
C1874 C 0.872 0.27817 0.85316 0.0
C1875 C 0.87805 0.26209 0.85012 0.0
C1876 C 0.85559 0.28022 0.84122 0.0
C1877 C 0.87705 0.31006 0.87049 0.0
C1878 C 0.84033 0.28433 0.8487 0.0
C1879 C 0.82513 0.28631 0.83731 0.0
C1880 C 0.82466 0.28397 0.81813 0.0
C1881 C 0.83982 0.27953 0.81071 0.0
C1882 C 0.85503 0.2777 0.82208 0.0
H1883 H 0.88883 0.32083 0.87761 0.0
H1884 H 0.87222 0.31454 0.8575 0.0
H1885 H 0.86589 0.30867 0.87936 0.0
H1886 H 0.84007 0.28585 0.86336 0.0
H1887 H 0.8137 0.28956 0.84357 0.0
H1888 H 0.53348 0.23324 0.61025 0.0
H1889 H 0.53184 0.20149 0.59944 0.0
H1890 H 0.56936 0.21833 0.56059 0.0
H1891 H 0.57073 0.25036 0.57117 0.0
H1892 H 0.54216 0.18928 0.5452 0.0
H1893 H 0.56918 0.17356 0.61206 0.0
H1894 H 0.54921 0.18231 0.61356 0.0
H1895 H 0.56982 0.19652 0.60762 0.0
C1896 C 0.5414 0.23027 0.59937 0.0
C1897 C 0.55233 0.24452 0.5917 0.0
C1898 C 0.54057 0.21198 0.59328 0.0
C1899 C 0.55084 0.20724 0.57945 0.0
C1900 C 0.5614 0.22144 0.57138 0.0
H1901 H 0.56221 0.10064 0.52771 0.0
H1902 H 0.56557 0.13324 0.53667 0.0
C1903 C 0.56218 0.23983 0.57744 0.0
C1904 C 0.55035 0.18755 0.57346 0.0
H1905 H 0.55558 0.14813 0.58958 0.0
C1906 C 0.54527 0.18036 0.55491 0.0
C1907 C 0.55443 0.17567 0.58598 0.0
C1908 C 0.56115 0.18243 0.60587 0.0
C1909 C 0.54359 0.16177 0.54874 0.0
C1910 C 0.5473 0.14985 0.56135 0.0
C1911 C 0.55261 0.15708 0.57983 0.0
C1912 C 0.54543 0.12982 0.55579 0.0
C1913 C 0.53724 0.15491 0.52882 0.0
C1914 C 0.53334 0.11674 0.56377 0.0
C1915 C 0.53143 0.09802 0.5587 0.0
C1916 C 0.5417 0.09171 0.54559 0.0
C1917 C 0.55402 0.10483 0.53781 0.0
C1918 C 0.55586 0.12358 0.54284 0.0
H1919 H 0.53066 0.16448 0.52192 0.0
H1920 H 0.54921 0.15338 0.52175 0.0
H1921 H 0.52737 0.14144 0.52722 0.0
H1922 H 0.52517 0.12102 0.57385 0.0
H1923 H 0.52179 0.08849 0.56506 0.0
H1924 H 0.56934 0.78724 0.42883 0.0
H1925 H 0.59507 0.79031 0.41056 0.0
H1926 H 0.5582 0.76224 0.36312 0.0
H1927 H 0.53242 0.75954 0.38119 0.0
H1928 H 0.60932 0.76539 0.39207 0.0
H1929 H 0.58415 0.80679 0.3428 0.0
H1930 H 0.57401 0.80256 0.36353 0.0
H1931 H 0.56807 0.78566 0.34371 0.0
C1932 C 0.56671 0.78176 0.41449 0.0
C1933 C 0.54877 0.77326 0.40646 0.0
C1934 C 0.58145 0.78352 0.40404 0.0
C1935 C 0.57862 0.77685 0.3853 0.0
C1936 C 0.56076 0.76797 0.37738 0.0
H1937 H 0.6488 0.77083 0.29895 0.0
H1938 H 0.62363 0.76766 0.31785 0.0
C1939 C 0.54601 0.7663 0.38779 0.0
C1940 C 0.59435 0.77891 0.37416 0.0
H1941 H 0.60963 0.79517 0.33553 0.0
C1942 C 0.60941 0.77201 0.37978 0.0
C1943 C 0.59459 0.78757 0.35807 0.0
C1944 C 0.57943 0.79623 0.35175 0.0
C1945 C 0.62442 0.77316 0.36961 0.0
C1946 C 0.62455 0.78164 0.35345 0.0
C1947 C 0.60953 0.7886 0.34786 0.0
C1948 C 0.64009 0.78342 0.34212 0.0
C1949 C 0.63982 0.76487 0.37603 0.0
C1950 C 0.65777 0.79348 0.34935 0.0
C1951 C 0.67225 0.79529 0.33856 0.0
C1952 C 0.66941 0.78709 0.32025 0.0
C1953 C 0.65163 0.7771 0.31304 0.0
C1954 C 0.63715 0.77537 0.32381 0.0
H1955 H 0.63566 0.75507 0.38588 0.0
H1956 H 0.64464 0.75777 0.36429 0.0
H1957 H 0.65149 0.77581 0.383 0.0
H1958 H 0.66037 0.80009 0.36332 0.0
H1959 H 0.68573 0.80298 0.34466 0.0
H1960 H 0.03228 0.24223 0.36961 0.0
H1961 H 0.02981 0.21675 0.38775 0.0
H1962 H 0.04439 0.25447 0.43731 0.0
H1963 H 0.04671 0.27996 0.4193 0.0
H1964 H 0.05587 0.20809 0.41252 0.0
H1965 H 0.99722 0.22038 0.44742 0.0
H1966 H 0.00394 0.231 0.4276 0.0
H1967 H 0.01632 0.23978 0.44984 0.0
C1968 C 0.03493 0.2451 0.38437 0.0
C1969 C 0.0396 0.26316 0.39299 0.0
C1970 C 0.03353 0.23051 0.39474 0.0
C1971 C 0.03661 0.23361 0.41395 0.0
C1972 C 0.04156 0.25165 0.42255 0.0
H1973 H 0.03413 0.16566 0.50198 0.0
H1974 H 0.03722 0.19053 0.48318 0.0
C1975 C 0.04299 0.26624 0.41221 0.0
C1976 C 0.03486 0.21804 0.42498 0.0
H1977 H 0.01185 0.19843 0.45832 0.0
C1978 C 0.04617 0.20592 0.42246 0.0
C1979 C 0.02223 0.21516 0.438 0.0
C1980 C 0.0091 0.22715 0.44081 0.0
C1981 C 0.0455 0.19132 0.43287 0.0
C1982 C 0.03291 0.18848 0.44594 0.0
C1983 C 0.02154 0.20057 0.44838 0.0
C1984 C 0.03132 0.17315 0.45729 0.0
C1985 C 0.05867 0.17938 0.4301 0.0
C1986 C 0.0268 0.15497 0.4491 0.0
C1987 C 0.02496 0.14065 0.45984 0.0
C1988 C 0.02743 0.14413 0.4791 0.0
C1989 C 0.0319 0.16237 0.48724 0.0
C1990 C 0.03376 0.17666 0.47648 0.0
H1991 H 0.07057 0.1862 0.42353 0.0
H1992 H 0.06381 0.17553 0.44331 0.0
H1993 H 0.05151 0.16676 0.42103 0.0
H1994 H 0.02438 0.15181 0.43435 0.0
H1995 H 0.02117 0.12683 0.45303 0.0
H1996 H 0.57931 0.28542 0.18437 0.0
H1997 H 0.61138 0.28771 0.19569 0.0
H1998 H 0.59474 0.2421 0.22534 0.0
H1999 H 0.56248 0.23988 0.21424 0.0
H2000 H 0.62793 0.29079 0.23597 0.0
H2001 H 0.63469 0.23 0.19121 0.0
H2002 H 0.61759 0.2423 0.18544 0.0
H2003 H 0.61484 0.22803 0.20329 0.0
C2004 C 0.58241 0.27591 0.19339 0.0
C2005 C 0.5682 0.26247 0.19839 0.0
C2006 C 0.60082 0.27724 0.19986 0.0
C2007 C 0.60561 0.265 0.21128 0.0
C2008 C 0.59147 0.25164 0.21644 0.0
H2009 H 0.71348 0.24824 0.25079 0.0
H2010 H 0.68075 0.245 0.24183 0.0
C2011 C 0.57299 0.25044 0.21015 0.0
C2012 C 0.62536 0.2663 0.21771 0.0
H2013 H 0.66064 0.24588 0.21133 0.0
C2014 C 0.63508 0.28095 0.2306 0.0
C2015 C 0.63474 0.25343 0.21088 0.0
C2016 C 0.62507 0.23755 0.19687 0.0
C2017 C 0.65376 0.28301 0.23692 0.0
C2018 C 0.66338 0.27042 0.22969 0.0
C2019 C 0.65352 0.25564 0.21691 0.0
C2020 C 0.68358 0.27241 0.23507 0.0
C2021 C 0.66279 0.29843 0.25171 0.0
C2022 C 0.69646 0.28874 0.234 0.0
C2023 C 0.71523 0.29071 0.23934 0.0
C2024 C 0.72186 0.27626 0.24557 0.0
C2025 C 0.70903 0.25971 0.2461 0.0
C2026 C 0.6902 0.25783 0.24096 0.0
H2027 H 0.65259 0.30273 0.25993 0.0
H2028 H 0.6732 0.2946 0.2611 0.0
H2029 H 0.66961 0.31032 0.24531 0.0
H2030 H 0.69204 0.30006 0.22892 0.0
H2031 H 0.72456 0.3036 0.23845 0.0
H2032 H 0.53887 0.84828 0.91442 0.0
H2033 H 0.53667 0.87707 0.93086 0.0
H2034 H 0.54409 0.90268 0.88188 0.0
H2035 H 0.54589 0.87373 0.86522 0.0
H2036 H 0.56054 0.90992 0.93831 0.0
H2037 H 0.49864 0.91706 0.89602 0.0
H2038 H 0.50633 0.89629 0.89439 0.0
H2039 H 0.51726 0.91504 0.88322 0.0
C2040 C 0.54004 0.86003 0.90711 0.0
C2041 C 0.54248 0.85862 0.88844 0.0
C2042 C 0.53878 0.87653 0.91656 0.0
C2043 C 0.53986 0.89209 0.90761 0.0
C2044 C 0.54273 0.89083 0.88905 0.0
H2045 H 0.53355 0.00302 0.94956 0.0
H2046 H 0.53791 0.97643 0.93036 0.0
C2047 C 0.54392 0.87428 0.87955 0.0
C2048 C 0.53821 0.90956 0.91787 0.0
H2049 H 0.51299 0.94166 0.91874 0.0
C2050 C 0.55012 0.91682 0.93399 0.0
C2051 C 0.52466 0.91873 0.91231 0.0
C2052 C 0.51087 0.91133 0.89564 0.0
C2053 C 0.54889 0.93284 0.94461 0.0
C2054 C 0.5352 0.94184 0.93919 0.0
C2055 C 0.5235 0.93482 0.92291 0.0
C2056 C 0.53234 0.95807 0.9507 0.0
C2057 C 0.56239 0.94008 0.96152 0.0
C2058 C 0.52744 0.95661 0.96842 0.0
C2059 C 0.52487 0.97172 0.97938 0.0
C2060 C 0.52709 0.98878 0.97293 0.0
C2061 C 0.53177 0.99017 0.95505 0.0
C2062 C 0.53425 0.97496 0.94403 0.0
H2063 H 0.57485 0.93472 0.96108 0.0
H2064 H 0.56656 0.95516 0.96322 0.0
H2065 H 0.5559 0.93582 0.97372 0.0
H2066 H 0.52553 0.9437 0.97379 0.0
H2067 H 0.52121 0.97 0.993 0.0
H2068 H 0.97655 0.77838 0.72162 0.0
H2069 H 0.94789 0.78011 0.73413 0.0
H2070 H 0.91839 0.73479 0.69493 0.0
H2071 H 0.9469 0.73315 0.68221 0.0
H2072 H 0.91368 0.78447 0.71292 0.0
H2073 H 0.90273 0.72125 0.74607 0.0
H2074 H 0.92499 0.73275 0.74082 0.0
H2075 H 0.90818 0.71953 0.72289 0.0
C2076 C 0.964 0.76868 0.71573 0.0
C2077 C 0.96415 0.75558 0.7009 0.0
C2078 C 0.94756 0.76971 0.72289 0.0
C2079 C 0.93087 0.75748 0.71565 0.0
C2080 C 0.93103 0.74427 0.70097 0.0
H2081 H 0.81759 0.74106 0.74372 0.0
H2082 H 0.84615 0.73768 0.73199 0.0
C2083 C 0.9474 0.74338 0.69365 0.0
C2084 C 0.91324 0.75892 0.72297 0.0
H2085 H 0.87924 0.737 0.74612 0.0
C2086 C 0.90621 0.77412 0.72025 0.0
C2087 C 0.90321 0.74534 0.73232 0.0
C2088 C 0.91013 0.72881 0.73587 0.0
C2089 C 0.88947 0.77601 0.72635 0.0
C2090 C 0.8796 0.76264 0.73615 0.0
C2091 C 0.88663 0.74736 0.73875 0.0
C2092 C 0.86215 0.76439 0.7439 0.0
C2093 C 0.8823 0.79209 0.72158 0.0
C2094 C 0.86141 0.78026 0.75503 0.0
C2095 C 0.84502 0.7823 0.76157 0.0
C2096 C 0.82882 0.76836 0.75758 0.0
C2097 C 0.8297 0.75212 0.74711 0.0
C2098 C 0.84611 0.75018 0.74035 0.0
H2099 H 0.88775 0.79726 0.7092 0.0
H2100 H 0.86712 0.78857 0.71909 0.0
H2101 H 0.8868 0.80329 0.73305 0.0
H2102 H 0.87356 0.79123 0.75869 0.0
H2103 H 0.84508 0.79493 0.76977 0.0
H2104 H 0.13532 0.03252 0.84517 0.0
H2105 H 0.12449 0.03069 0.87521 0.0
H2106 H 0.06948 0.02695 0.85087 0.0
H2107 H 0.08022 0.02861 0.82066 0.0
H2108 H 0.10723 0.05375 0.89455 0.0
H2109 H 0.06264 0.98392 0.8805 0.0
H2110 H 0.07938 0.99271 0.86577 0.0
H2111 H 0.05776 -0.00114 0.86448 0.0
C2112 C 0.12088 0.03121 0.84616 0.0
C2113 C 0.10862 0.03063 0.83046 0.0
C2114 C 0.11472 0.03019 0.86339 0.0
C2115 C 0.09612 0.02843 0.86534 0.0
C2116 C 0.08383 0.02794 0.8497 0.0
H2117 H 0.03037 0.02403 0.95495 0.0
H2118 H 0.04275 0.02383 0.92573 0.0
C2119 C 0.09001 0.02899 0.83243 0.0
C2120 C 0.08975 0.02757 0.88382 0.0
H2121 H 0.06065 0.00116 0.9085 0.0
C2122 C 0.09713 0.0422 0.89764 0.0
C2123 C 0.07659 0.0125 0.8879 0.0
C2124 C 0.06872 0.99601 0.87396 0.0
C2125 C 0.09134 0.0424 0.91519 0.0
C2126 C 0.07806 0.02738 0.91925 0.0
C2127 C 0.07084 0.01267 0.90547 0.0
C2128 C 0.07079 0.02702 0.93735 0.0
C2129 C 0.09906 0.059 0.92903 0.0
C2130 C 0.08235 0.02854 0.95378 0.0
C2131 C 0.07528 0.02873 0.97069 0.0
C2132 C 0.05647 0.02725 0.97151 0.0
C2133 C 0.04493 0.02525 0.95497 0.0
C2134 C 0.05199 0.02511 0.93816 0.0
H2135 H 0.10546 0.07097 0.92246 0.0
H2136 H 0.08824 0.06254 0.93684 0.0
H2137 H 0.10975 0.05617 0.93886 0.0
H2138 H 0.09685 0.02962 0.95354 0.0
H2139 H 0.08458 0.0302 0.9831 0.0
H2140 H 0.74176 0.34679 0.52392 0.0
H2141 H 0.74079 0.32811 0.54916 0.0
H2142 H 0.77787 0.37276 0.58402 0.0
H2143 H 0.77916 0.39136 0.55894 0.0
H2144 H 0.77802 0.32385 0.5703 0.0
H2145 H 0.73032 0.3512 0.61161 0.0
H2146 H 0.72922 0.35106 0.58708 0.0
H2147 H 0.74668 0.36757 0.60192 0.0
C2148 C 0.74952 0.35265 0.53705 0.0
C2149 C 0.76057 0.37048 0.53953 0.0
C2150 C 0.74896 0.34199 0.55137 0.0
C2151 C 0.75919 0.34918 0.56834 0.0
C2152 C 0.76981 0.3671 0.57098 0.0
H2153 H 0.79607 0.33631 0.67374 0.0
H2154 H 0.78548 0.34417 0.64417 0.0
C2155 C 0.77056 0.37766 0.55667 0.0
C2156 C 0.75994 0.33787 0.5832 0.0
H2157 H 0.74979 0.33534 0.62684 0.0
C2158 C 0.77154 0.32593 0.58255 0.0
C2159 C 0.75143 0.34078 0.59901 0.0
C2160 C 0.73859 0.35325 0.60002 0.0
C2161 C 0.77599 0.31782 0.59798 0.0
C2162 C 0.76829 0.32158 0.61421 0.0
C2163 C 0.7557 0.33255 0.61437 0.0
C2164 C 0.77483 0.31628 0.63179 0.0
C2165 C 0.78983 0.30638 0.59721 0.0
C2166 C 0.77248 0.29797 0.63452 0.0
C2167 C 0.7787 0.29345 0.65141 0.0
C2168 C 0.78708 0.3072 0.66579 0.0
C2169 C 0.78949 0.32548 0.66292 0.0
C2170 C 0.78344 0.32996 0.64607 0.0
H2171 H 0.79667 0.30729 0.58457 0.0
H2172 H 0.80047 0.31064 0.60924 0.0
H2173 H 0.78285 0.29194 0.59751 0.0
H2174 H 0.76562 0.28724 0.62372 0.0
H2175 H 0.77653 0.27926 0.65341 0.0
H2176 H 0.42539 0.07578 0.35526 0.0
H2177 H 0.44484 0.08001 0.38452 0.0
H2178 H 0.47749 0.04635 0.36058 0.0
H2179 H 0.45827 0.04217 0.33134 0.0
H2180 H 0.44773 0.05003 0.4026 0.0
H2181 H 0.51618 0.08887 0.39035 0.0
H2182 H 0.49547 0.08845 0.37581 0.0
H2183 H 0.50616 0.06969 0.3734 0.0
C2184 C 0.43695 0.0696 0.35616 0.0
C2185 C 0.44028 0.05856 0.3411 0.0
C2186 C 0.44804 0.07206 0.37283 0.0
C2187 C 0.4627 0.06366 0.3746 0.0
C2188 C 0.46649 0.05325 0.35937 0.0
H2189 H 0.52961 0.03453 0.46144 0.0
H2190 H 0.51615 0.04106 0.4322 0.0
C2191 C 0.45539 0.05075 0.34273 0.0
C2192 C 0.47249 0.06373 0.39282 0.0
H2193 H 0.51495 0.07367 0.41713 0.0
C2194 C 0.46238 0.05544 0.4059 0.0
C2195 C 0.49163 0.07059 0.3969 0.0
C2196 C 0.503 0.08005 0.38344 0.0
C2197 C 0.47097 0.05329 0.42283 0.0
C2198 C 0.49013 0.06003 0.42691 0.0
C2199 C 0.50025 0.06857 0.41392 0.0
C2200 C 0.49983 0.05787 0.44448 0.0
C2201 C 0.45951 0.0432 0.43592 0.0
C2202 C 0.49551 0.06564 0.46096 0.0
C2203 C 0.50297 0.06179 0.4776 0.0
C2204 C 0.5151 0.05029 0.47803 0.0
C2205 C 0.52024 0.04336 0.46151 0.0
C2206 C 0.51261 0.0471 0.44483 0.0
H2207 H 0.44606 0.03505 0.42893 0.0
H2208 H 0.46673 0.03397 0.44258 0.0
H2209 H 0.45689 0.05314 0.44676 0.0
H2210 H 0.48597 0.0743 0.46094 0.0
H2211 H 0.49897 0.06758 0.49011 0.0
H2212 H 0.80577 0.72509 0.07318 0.0
H2213 H 0.8051 0.73799 0.10482 0.0
H2214 H 0.74613 0.72213 0.09713 0.0
H2215 H 0.7467 0.70903 0.06568 0.0
H2216 H 0.78909 0.76505 0.11949 0.0
H2217 H 0.75835 0.69894 0.14242 0.0
H2218 H 0.76777 0.70053 0.12096 0.0
H2219 H 0.74535 0.70422 0.12304 0.0
C2220 C 0.79266 0.72443 0.07821 0.0
C2221 C 0.77629 0.71593 0.06691 0.0
C2222 C 0.79229 0.73181 0.09631 0.0
C2223 C 0.77557 0.73074 0.10354 0.0
C2224 C 0.75922 0.72277 0.09207 0.0
H2225 H 0.74746 0.76194 0.21278 0.0
H2226 H 0.74635 0.75199 0.18 0.0
C2227 C 0.75957 0.71539 0.07401 0.0
C2228 C 0.77522 0.73786 0.12305 0.0
H2229 H 0.76127 0.72527 0.16352 0.0
C2230 C 0.78305 0.75633 0.12911 0.0
C2231 C 0.76728 0.72653 0.13567 0.0
C2232 C 0.75935 0.70642 0.13029 0.0
C2233 C 0.78297 0.7638 0.14732 0.0
C2234 C 0.77515 0.75245 0.15996 0.0
C2235 C 0.76719 0.73401 0.15386 0.0
C2236 C 0.77571 0.75924 0.17973 0.0
C2237 C 0.79101 0.78388 0.15275 0.0
C2238 C 0.79256 0.76653 0.19059 0.0
C2239 C 0.79324 0.77224 0.20929 0.0
C2240 C 0.77707 0.7707 0.21771 0.0
C2241 C 0.76018 0.76344 0.2068 0.0
C2242 C 0.75952 0.7577 0.18804 0.0
H2243 H 0.79137 0.79146 0.14068 0.0
H2244 H 0.7831 0.7897 0.16269 0.0
H2245 H 0.80529 0.78603 0.15927 0.0
H2246 H 0.80527 0.7675 0.18468 0.0
H2247 H 0.80653 0.77764 0.21718 0.0
H2248 H 0.07368 0.02685 0.73429 0.0
H2249 H 0.05861 0.02826 0.70376 0.0
H2250 H 0.11134 0.04647 0.68519 0.0
H2251 H 0.1264 0.0453 0.71556 0.0
H2252 H 0.08674 0.06644 0.67413 0.0
H2253 H 0.05561 0.99232 0.65791 0.0
H2254 H 0.05 0.00299 0.67867 0.0
H2255 H 0.0732 0.00164 0.67686 0.0
C2256 C 0.08204 0.03111 0.72368 0.0
C2257 C 0.10125 0.03586 0.72737 0.0
C2258 C 0.07341 0.03185 0.7062 0.0
C2259 C 0.08382 0.03728 0.69205 0.0
C2260 C 0.10298 0.04222 0.69582 0.0
H2261 H 0.06159 0.01866 0.57563 0.0
H2262 H 0.07057 0.01971 0.60818 0.0
C2263 C 0.11159 0.04148 0.71322 0.0
C2264 C 0.07497 0.0378 0.67326 0.0
H2265 H 0.04939 0.01083 0.63571 0.0
C2266 C 0.07843 0.05431 0.66577 0.0
C2267 C 0.06426 0.02195 0.66227 0.0
C2268 C 0.06062 0.00367 0.66921 0.0
C2269 C 0.07178 0.05535 0.64758 0.0
C2270 C 0.06115 0.03948 0.63656 0.0
C2271 C 0.0574 0.02304 0.64417 0.0
C2272 C 0.05525 0.03919 0.61667 0.0
C2273 C 0.07684 0.07327 0.64006 0.0
C2274 C 0.04348 0.04976 0.6104 0.0
C2275 C 0.03827 0.04925 0.59155 0.0
C2276 C 0.04471 0.03812 0.57861 0.0
C2277 C 0.05636 0.02749 0.58505 0.0
C2278 C 0.06151 0.02801 0.60376 0.0
H2279 H 0.08804 0.08322 0.64907 0.0
H2280 H 0.08119 0.07134 0.62622 0.0
H2281 H 0.06471 0.07915 0.63886 0.0
H2282 H 0.03819 0.05829 0.62007 0.0
H2283 H 0.0292 0.05752 0.58715 0.0
H2284 H 0.76527 0.34257 0.46016 0.0
H2285 H 0.76501 0.32346 0.43151 0.0
H2286 H 0.7504 0.36442 0.40103 0.0
H2287 H 0.7503 0.38355 0.42974 0.0
H2288 H 0.73203 0.32816 0.38642 0.0
H2289 H 0.80728 0.33733 0.40051 0.0
H2290 H 0.79466 0.32838 0.41828 0.0
H2291 H 0.79492 0.35101 0.41324 0.0
C2292 C 0.76178 0.34742 0.44736 0.0
C2293 C 0.75803 0.36462 0.44711 0.0
C2294 C 0.76169 0.33652 0.43104 0.0
C2295 C 0.75807 0.34275 0.41424 0.0
C2296 C 0.75334 0.35948 0.41392 0.0
H2297 H 0.79117 0.30983 0.31071 0.0
H2298 H 0.78641 0.32566 0.33967 0.0
C2299 C 0.75329 0.37037 0.43028 0.0
C2300 C 0.76035 0.33229 0.39708 0.0
H2301 H 0.79223 0.31676 0.37461 0.0
C2302 C 0.74515 0.32562 0.38379 0.0
C2303 C 0.77759 0.32929 0.39369 0.0
C2304 C 0.7946 0.33701 0.40709 0.0
C2305 C 0.74673 0.31583 0.36715 0.0
C2306 C 0.76388 0.31245 0.36398 0.0
C2307 C 0.77907 0.31922 0.37724 0.0
C2308 C 0.76664 0.3027 0.34661 0.0
C2309 C 0.73019 0.30958 0.35294 0.0
C2310 C 0.7574 0.28446 0.34119 0.0
C2311 C 0.75994 0.27552 0.32454 0.0
C2312 C 0.7717 0.28478 0.31318 0.0
C2313 C 0.78148 0.30274 0.31897 0.0
C2314 C 0.77893 0.31167 0.33555 0.0
H2315 H 0.7193 0.31673 0.35583 0.0
H2316 H 0.734 0.31186 0.33908 0.0
H2317 H 0.72445 0.2948 0.35285 0.0
H2318 H 0.74821 0.27719 0.34979 0.0
H2319 H 0.75243 0.26156 0.32036 0.0
H2320 H 0.41018 0.0234 0.23193 0.0
H2321 H 0.42809 0.02093 0.20636 0.0
H2322 H 0.47339 0.06182 0.23612 0.0
H2323 H 0.45553 0.0644 0.26187 0.0
H2324 H 0.44548 0.0499 0.18621 0.0
H2325 H 0.49402 0.01604 0.22188 0.0
H2326 H 0.47218 0.01683 0.22951 0.0
H2327 H 0.49081 0.03669 0.23373 0.0
C2328 C 0.42392 0.03193 0.233 0.0
C2329 C 0.43152 0.04404 0.24888 0.0
C2330 C 0.4341 0.03051 0.2184 0.0
C2331 C 0.45207 0.04104 0.21953 0.0
C2332 C 0.4596 0.05344 0.23517 0.0
H2333 H 0.51546 0.05145 0.12729 0.0
H2334 H 0.50212 0.05775 0.1554 0.0
C2335 C 0.44937 0.05495 0.24978 0.0
C2336 C 0.46287 0.03885 0.20425 0.0
H2337 H 0.49866 0.02199 0.19178 0.0
C2338 C 0.45719 0.04393 0.18741 0.0
C2339 C 0.47795 0.03084 0.20595 0.0
C2340 C 0.48411 0.02464 0.22368 0.0
C2341 C 0.46622 0.04113 0.17208 0.0
C2342 C 0.48139 0.03323 0.17379 0.0
C2343 C 0.4871 0.02818 0.19065 0.0
C2344 C 0.49097 0.02945 0.15794 0.0
C2345 C 0.45917 0.04616 0.15404 0.0
C2346 C 0.48961 0.01144 0.15055 0.0
C2347 C 0.49717 0.00779 0.13449 0.0
C2348 C 0.50621 0.02213 0.12566 0.0
C2349 C 0.50827 0.04015 0.13363 0.0
C2350 C 0.50071 0.04377 0.14967 0.0
H2351 H 0.4453 0.04874 0.15422 0.0
H2352 H 0.46859 0.05871 0.15106 0.0
H2353 H 0.45864 0.03521 0.14274 0.0
H2354 H 0.48214 0.00024 0.15683 0.0
H2355 H 0.49527 0.99379 0.12859 0.0
H2356 H 0.78044 0.73631 0.97553 0.0
H2357 H 0.78234 0.74792 0.94581 0.0
H2358 H 0.78432 0.69503 0.92044 0.0
H2359 H 0.78252 0.68341 0.94997 0.0
H2360 H 0.81036 0.72361 0.90968 0.0
H2361 H 0.74082 0.73661 0.90295 0.0
H2362 H 0.7552 0.74717 0.92373 0.0
H2363 H 0.74786 0.72283 0.91937 0.0
C2364 C 0.78128 0.72717 0.96361 0.0
C2365 C 0.78124 0.70891 0.96514 0.0
C2366 C 0.78228 0.7338 0.94661 0.0
C2367 C 0.78326 0.72231 0.93079 0.0
C2368 C 0.78353 0.70417 0.93239 0.0
H2369 H 0.76111 0.73481 0.81626 0.0
H2370 H 0.76189 0.72509 0.84673 0.0
C2371 C 0.78246 0.69753 0.94932 0.0
C2372 C 0.78398 0.72902 0.91253 0.0
H2373 H 0.75937 0.74543 0.87988 0.0
C2374 C 0.79924 0.72845 0.9032 0.0
C2375 C 0.76938 0.73513 0.90392 0.0
C2376 C 0.75229 0.73537 0.91288 0.0
C2377 C 0.80033 0.73387 0.88561 0.0
C2378 C 0.78584 0.74019 0.8771 0.0
C2379 C 0.77054 0.7407 0.88641 0.0
C2380 C 0.78599 0.74586 0.85837 0.0
C2381 C 0.8168 0.73234 0.87606 0.0
C2382 C 0.79932 0.76078 0.85464 0.0
C2383 C 0.79893 0.76642 0.83715 0.0
C2384 C 0.78515 0.75727 0.82298 0.0
C2385 C 0.77197 0.74219 0.82674 0.0
C2386 C 0.77234 0.73662 0.84422 0.0
H2387 H 0.82458 0.72341 0.88251 0.0
H2388 H 0.81265 0.72692 0.8614 0.0
H2389 H 0.8261 0.74604 0.87683 0.0
H2390 H 0.80984 0.76833 0.86536 0.0
H2391 H 0.80924 0.77815 0.83485 0.0
H2392 H 0.82912 0.12861 0.01893 0.0
H2393 H 0.84763 0.10692 0.01177 0.0
H2394 H 0.83145 0.07988 0.05815 0.0
H2395 H 0.81287 0.10152 0.06544 0.0
H2396 H 0.87057 0.08865 0.05413 0.0
H2397 H 0.82639 0.05196 0.99108 0.0
H2398 H 0.83253 0.07633 0.9924 0.0
H2399 H 0.81828 0.06574 0.00827 0.0
C2400 C 0.82957 0.11809 0.02764 0.0
C2401 C 0.81955 0.11669 0.04271 0.0
C2402 C 0.84001 0.10566 0.02346 0.0
C2403 C 0.84059 0.0917 0.03427 0.0
C2404 C 0.83099 0.09052 0.04958 0.0
H2405 H 0.90759 0.0124 0.03228 0.0
H2406 H 0.88391 0.02844 0.03923 0.0
C2407 C 0.82045 0.10289 0.05373 0.0
C2408 C 0.85158 0.07855 0.0298 0.0
H2409 H 0.85528 0.04507 0.99713 0.0
C2410 C 0.86718 0.07897 0.04178 0.0
C2411 C 0.84703 0.06607 0.01364 0.0
C2412 C 0.83006 0.06482 0.00064 0.0
C2413 C 0.87881 0.06758 0.03771 0.0
C2414 C 0.87435 0.05517 0.02145 0.0
C2415 C 0.85855 0.05455 0.00962 0.0
C2416 C 0.8866 0.04354 0.016 0.0
C2417 C 0.89611 0.06947 0.05046 0.0
C2418 C 0.89513 0.04603 0.00012 0.0
C2419 C 0.90848 0.0368 0.99604 0.0
C2420 C 0.91349 0.02495 0.00781 0.0
C2421 C 0.90413 0.02166 0.02313 0.0
C2422 C 0.89068 0.03082 0.02713 0.0
H2423 H 0.89954 0.08236 0.05995 0.0
H2424 H 0.89425 0.05804 0.05882 0.0
H2425 H 0.90787 0.06899 0.04265 0.0
H2426 H 0.89208 0.05577 0.99134 0.0
H2427 H 0.91559 0.03972 0.98424 0.0
H2428 H 0.3502 0.39367 0.03898 0.0
H2429 H 0.38048 0.41398 0.03901 0.0
H2430 H 0.35517 0.45758 0.02755 0.0
H2431 H 0.32497 0.43753 0.02793 0.0
H2432 H 0.39471 0.4315 0.01154 0.0
H2433 H 0.39294 0.48221 0.07021 0.0
H2434 H 0.37657 0.4605 0.06538 0.0
H2435 H 0.37389 0.47891 0.05281 0.0
C2436 C 0.35111 0.40763 0.03662 0.0
C2437 C 0.33521 0.41403 0.03356 0.0
C2438 C 0.36841 0.41921 0.03662 0.0
C2439 C 0.37014 0.43741 0.03361 0.0
C2440 C 0.35425 0.44375 0.03039 0.0
H2441 H 0.4626 0.52451 0.01761 0.0
H2442 H 0.43202 0.5057 0.01973 0.0
C2443 C 0.33697 0.43222 0.03048 0.0
C2444 C 0.38851 0.44952 0.03308 0.0
H2445 H 0.41728 0.49003 0.05203 0.0
C2446 C 0.39967 0.44424 0.02047 0.0
C2447 C 0.39498 0.4662 0.04471 0.0
C2448 C 0.38405 0.47223 0.05917 0.0
C2449 C 0.41699 0.45525 0.01901 0.0
C2450 C 0.4234 0.47192 0.03057 0.0
C2451 C 0.41226 0.47728 0.04313 0.0
C2452 C 0.44187 0.4837 0.03007 0.0
C2453 C 0.42824 0.4491 0.00493 0.0
C2454 C 0.4575 0.47772 0.03556 0.0
C2455 C 0.47494 0.48842 0.03446 0.0
C2456 C 0.47714 0.50536 0.02781 0.0
C2457 C 0.46143 0.51153 0.02274 0.0
C2458 C 0.44394 0.50081 0.02394 0.0
H2459 H 0.41985 0.43808 0.99452 0.0
H2460 H 0.43479 0.46063 -0.00213 0.0
H2461 H 0.43926 0.44386 0.01186 0.0
H2462 H 0.45619 0.46467 0.04058 0.0
H2463 H 0.48668 0.48324 0.03858 0.0
H2464 H 0.42295 0.59011 0.77811 0.0
H2465 H 0.40524 0.61336 0.77987 0.0
H2466 H 0.36087 0.57719 0.74371 0.0
H2467 H 0.37822 0.55379 0.74235 0.0
H2468 H 0.39098 0.6311 0.75437 0.0
H2469 H 0.33461 0.5901 0.78608 0.0
H2470 H 0.35587 0.58359 0.78397 0.0
H2471 H 0.33826 0.57881 0.76478 0.0
C2472 C 0.40942 0.58715 0.77053 0.0
C2473 C 0.4019 0.57006 0.76025 0.0
C2474 C 0.39931 0.60044 0.77154 0.0
C2475 C 0.38153 0.59689 0.76226 0.0
C2476 C 0.37432 0.58007 0.75143 0.0
H2477 H 0.30126 0.66085 0.74522 0.0
H2478 H 0.32061 0.63911 0.74239 0.0
C2479 C 0.38432 0.56675 0.75056 0.0
C2480 C 0.37049 0.6107 0.76391 0.0
H2481 H 0.32943 0.61716 0.77538 0.0
C2482 C 0.37758 0.62808 0.75907 0.0
C2483 C 0.35301 0.60682 0.77016 0.0
C2484 C 0.34506 0.58889 0.77672 0.0
C2485 C 0.36751 0.64148 0.75994 0.0
C2486 C 0.34993 0.6374 0.76577 0.0
C2487 C 0.34287 0.62014 0.77074 0.0
C2488 C 0.33874 0.65099 0.76711 0.0
C2489 C 0.37554 0.65987 0.75444 0.0
C2490 C 0.34256 0.66479 0.78197 0.0
C2491 C 0.33149 0.67714 0.78369 0.0
C2492 C 0.31645 0.67595 0.77051 0.0
C2493 C 0.31282 0.66221 0.75551 0.0
C2494 C 0.32381 0.64976 0.7539 0.0
H2495 H 0.38857 0.66035 0.74849 0.0
H2496 H 0.36563 0.66351 0.74431 0.0
H2497 H 0.37821 0.6703 0.76663 0.0
H2498 H 0.354 0.66589 0.79233 0.0
H2499 H 0.33474 0.68768 0.7953 0.0
H2500 H 0.22553 0.64333 0.55659 0.0
H2501 H 0.19298 0.62785 0.55221 0.0
H2502 H 0.20489 0.58233 0.52019 0.0
H2503 H 0.23744 0.59753 0.52479 0.0
H2504 H 0.17052 0.61685 0.51935 0.0
H2505 H 0.17377 0.55809 0.55703 0.0
H2506 H 0.19244 0.57805 0.55918 0.0
H2507 H 0.18888 0.56101 0.53965 0.0
C2508 C 0.22121 0.62994 0.5488 0.0
C2509 C 0.23398 0.62158 0.5411 0.0
C2510 C 0.20265 0.62115 0.54626 0.0
C2511 C 0.1966 0.60389 0.53605 0.0
C2512 C 0.20934 0.5955 0.52842 0.0
H2513 H 0.0828 0.55421 0.49122 0.0
H2514 H 0.11575 0.56799 0.49437 0.0
C2515 C 0.2279 0.60423 0.531 0.0
C2516 C 0.17689 0.59495 0.53285 0.0
H2517 H 0.14546 0.55705 0.53969 0.0
C2518 C 0.16499 0.60379 0.5238 0.0
C2519 C 0.1698 0.57798 0.53881 0.0
C2520 C 0.18184 0.56828 0.54936 0.0
C2521 C 0.1461 0.5961 0.52055 0.0
C2522 C 0.13906 0.57896 0.52619 0.0
C2523 C 0.15097 0.57011 0.53521 0.0
C2524 C 0.11924 0.57045 0.52396 0.0
C2525 C 0.13382 0.6066 0.51158 0.0
C2526 C 0.11046 0.5669 0.53951 0.0
C2527 C 0.09179 0.55889 0.53776 0.0
C2528 C 0.0815 0.55427 0.52039 0.0
C2529 C 0.09034 0.55772 0.50478 0.0
C2530 C 0.10912 0.56567 0.50656 0.0
H2531 H 0.1408 0.62118 0.51203 0.0
H2532 H 0.12979 0.60078 0.49701 0.0
H2533 H 0.12116 0.60565 0.5183 0.0
H2534 H 0.11805 0.57048 0.55305 0.0
H2535 H 0.08543 0.55645 0.55008 0.0
H2536 H 0.67849 0.98723 0.78803 0.0
H2537 H 0.69791 0.96793 0.7991 0.0
H2538 H 0.73377 0.98292 0.75826 0.0
H2539 H 0.7146 0.00237 0.74727 0.0
H2540 H 0.70587 0.93867 0.7793 0.0
H2541 H 0.76945 0.99118 0.80514 0.0
H2542 H 0.74757 0.99658 0.80037 0.0
H2543 H 0.76089 0.99279 0.78208 0.0
C2544 C 0.69054 0.98643 0.78146 0.0
C2545 C 0.69507 0.99628 0.76681 0.0
C2546 C 0.70164 0.97549 0.78784 0.0
C2547 C 0.71745 0.97435 0.77974 0.0
C2548 C 0.72188 0.98402 0.765 0.0
H2549 H 0.77493 0.89251 0.76687 0.0
H2550 H 0.75915 0.91701 0.76502 0.0
C2551 C 0.71082 0.99496 0.75862 0.0
C2552 C 0.72866 0.96206 0.78579 0.0
H2553 H 0.77249 0.96035 0.79978 0.0
C2554 C 0.72036 0.94343 0.78407 0.0
C2555 C 0.74752 0.96838 0.79217 0.0
C2556 C 0.75686 0.98835 0.79524 0.0
C2557 C 0.73067 0.93083 0.78766 0.0
C2558 C 0.74971 0.93705 0.79291 0.0
C2559 C 0.75788 0.95571 0.79556 0.0
C2560 C 0.76135 0.92411 0.79432 0.0
C2561 C 0.72126 0.91086 0.78528 0.0
C2562 C 0.76833 0.92059 0.81143 0.0
C2563 C 0.77732 0.90654 0.81254 0.0
C2564 C 0.77934 0.89594 0.79653 0.0
C2565 C 0.77327 0.9003 0.77942 0.0
C2566 C 0.76433 0.91428 0.77833 0.0
H2567 H 0.70617 0.90861 0.78494 0.0
H2568 H 0.7242 0.90428 0.77219 0.0
H2569 H 0.72648 0.9041 0.79653 0.0
H2570 H 0.76611 0.92815 0.82388 0.0
H2571 H 0.78183 0.90338 0.82589 0.0
H2572 H 0.76023 0.93189 0.54925 0.0
H2573 H 0.73684 0.94932 0.54797 0.0
H2574 H 0.69759 0.90228 0.51911 0.0
H2575 H 0.72088 0.8846 0.52078 0.0
H2576 H 0.71879 0.95776 0.51838 0.0
H2577 H 0.6686 0.9182 0.55805 0.0
H2578 H 0.69154 0.91513 0.55776 0.0
H2579 H 0.67413 0.90471 0.53906 0.0
C2580 C 0.74656 0.92518 0.5428 0.0
C2581 C 0.74238 0.90683 0.53518 0.0
C2582 C 0.7332 0.93519 0.54205 0.0
C2583 C 0.71535 0.92709 0.53367 0.0
C2584 C 0.71112 0.90874 0.52605 0.0
H2585 H 0.62119 0.97106 0.50522 0.0
H2586 H 0.64311 0.95198 0.50821 0.0
C2587 C 0.72447 0.89866 0.52691 0.0
C2588 C 0.70153 0.93818 0.53218 0.0
H2589 H 0.65894 0.94083 0.54244 0.0
C2590 C 0.70576 0.95409 0.52374 0.0
C2591 C 0.68448 0.93341 0.53915 0.0
C2592 C 0.67945 0.91703 0.54917 0.0
C2593 C 0.69338 0.9652 0.52191 0.0
C2594 C 0.67635 0.96038 0.52881 0.0
C2595 C 0.67202 0.94446 0.53715 0.0
C2596 C 0.66289 0.97179 0.52746 0.0
C2597 C 0.69847 0.9819 0.51237 0.0
C2598 C 0.66665 0.98915 0.53749 0.0
C2599 C 0.65414 7e-05 0.53585 0.0
C2600 C 0.63766 0.99386 0.52406 0.0
C2601 C 0.63386 0.97634 0.51422 0.0
C2602 C 0.6463 0.96538 0.51599 0.0
H2603 H 0.71045 0.98182 0.50475 0.0
H2604 H 0.68676 0.983 0.50268 0.0
H2605 H 0.70199 0.99417 0.52269 0.0
H2606 H 0.67931 0.99428 0.54654 0.0
H2607 H 0.65753 0.01351 0.54353 0.0
H2608 H 0.41486 0.4614 0.75033 0.0
H2609 H 0.39476 0.43112 0.74991 0.0
H2610 H 0.35284 0.45543 0.76962 0.0
H2611 H 0.37271 0.48569 0.76979 0.0
H2612 H 0.37973 0.41531 0.77863 0.0
H2613 H 0.32477 0.42041 0.7257 0.0
H2614 H 0.3469 0.43629 0.72947 0.0
H2615 H 0.32983 0.43846 0.74437 0.0
C2616 C 0.40132 0.46028 0.75448 0.0
C2617 C 0.39533 0.47592 0.76001 0.0
C2618 C 0.38986 0.44299 0.75423 0.0
C2619 C 0.37218 0.44101 0.75943 0.0
C2620 C 0.36625 0.45662 0.76513 0.0
H2621 H 0.28599 0.34795 0.77462 0.0
H2622 H 0.3047 0.37849 0.77303 0.0
C2623 C 0.37768 0.47391 0.76534 0.0
C2624 C 0.36021 0.42262 0.75953 0.0
H2625 H 0.31862 0.3948 0.74203 0.0
C2626 C 0.36642 0.41079 0.77054 0.0
C2627 C 0.3428 0.41677 0.74903 0.0
C2628 C 0.33571 0.42857 0.73634 0.0
C2629 C 0.35561 0.39337 0.77154 0.0
C2630 C 0.33821 0.38753 0.76105 0.0
C2631 C 0.33195 0.39935 0.75008 0.0
C2632 C 0.32647 0.36907 0.76115 0.0
C2633 C 0.36274 0.38147 0.78409 0.0
C2634 C 0.33231 0.3537 0.75457 0.0
C2635 C 0.32168 0.33627 0.75542 0.0
C2636 C 0.30492 0.33385 0.76282 0.0
C2637 C 0.29883 0.34931 0.76889 0.0
C2638 C 0.3095 0.36677 0.768 0.0
H2639 H 0.37411 0.38945 0.79439 0.0
H2640 H 0.35166 0.37414 0.79136 0.0
H2641 H 0.36798 0.3712 0.77585 0.0
H2642 H 0.34521 0.35519 0.74893 0.0
H2643 H 0.32678 0.32471 0.75051 0.0
H2644 H 0.21289 0.57614 0.2331 0.0
H2645 H 0.22863 0.60843 0.23603 0.0
H2646 H 0.18042 0.62298 0.25344 0.0
H2647 H 0.16456 0.59092 0.25028 0.0
H2648 H 0.1971 0.64492 0.22894 0.0
H2649 H 0.24685 0.63819 0.2866 0.0
H2650 H 0.24604 0.62353 0.26577 0.0
H2651 H 0.2265 0.6206 0.27821 0.0
C2652 C 0.2056 0.58626 0.2373 0.0
C2653 C 0.18758 0.58106 0.24161 0.0
C2654 C 0.21463 0.60464 0.23909 0.0
C2655 C 0.20576 0.61799 0.24529 0.0
C2656 C 0.1875 0.61284 0.24873 0.0
H2657 H 0.24801 0.72785 0.298 0.0
H2658 H 0.23432 0.69521 0.2901 0.0
C2659 C 0.17848 0.59453 0.24693 0.0
C2660 C 0.21556 0.63735 0.24895 0.0
H2661 H 0.25002 0.66728 0.27717 0.0
C2662 C 0.20875 0.64983 0.2394 0.0
C2663 C 0.23054 0.64364 0.26283 0.0
C2664 C 0.23787 0.63085 0.27408 0.0
C2665 C 0.21646 0.66855 0.24341 0.0
C2666 C 0.23158 0.67483 0.25713 0.0
C2667 C 0.23846 0.66234 0.26662 0.0
C2668 C 0.24026 0.69438 0.26201 0.0
C2669 C 0.208 0.68144 0.23333 0.0
C2670 C 0.24837 0.70453 0.24892 0.0
C2671 C 0.25604 0.7231 0.25333 0.0
C2672 C 0.25593 0.73182 0.271 0.0
C2673 C 0.24824 0.72152 0.28427 0.0
C2674 C 0.24045 0.70291 0.27979 0.0
H2675 H 0.19388 0.67485 0.22681 0.0
H2676 H 0.20758 0.69365 0.24268 0.0
H2677 H 0.21639 0.68597 0.22237 0.0
H2678 H 0.24873 0.69809 0.23527 0.0
H2679 H 0.26207 0.73059 0.24285 0.0
H2680 H 0.5257 0.73405 0.48392 0.0
H2681 H 0.52896 0.70538 0.4948 0.0
H2682 H 0.48927 0.67533 0.45032 0.0
H2683 H 0.48627 0.70381 0.43925 0.0
H2684 H 0.50601 0.67746 0.50685 0.0
H2685 H 0.52946 0.64986 0.44384 0.0
H2686 H 0.5278 0.67314 0.44783 0.0
H2687 H 0.50773 0.65528 0.43949 0.0
C2688 C 0.51764 0.72134 0.47645 0.0
C2689 C 0.50578 0.72141 0.46059 0.0
C2690 C 0.51953 0.70486 0.4827 0.0
C2691 C 0.50971 0.68789 0.47325 0.0
C2692 C 0.49749 0.68801 0.45769 0.0
H2693 H 0.5011 0.57275 0.48681 0.0
H2694 H 0.49747 0.6018 0.4775 0.0
C2695 C 0.49564 0.70444 0.45143 0.0
C2696 C 0.51207 0.67017 0.47966 0.0
H2697 H 0.52156 0.62928 0.46552 0.0
C2698 C 0.50953 0.66701 0.49779 0.0
C2699 C 0.51668 0.65627 0.46804 0.0
C2700 C 0.52076 0.65884 0.44878 0.0
C2701 C 0.51097 0.65048 0.50435 0.0
C2702 C 0.51543 0.63654 0.49267 0.0
C2703 C 0.51805 0.63973 0.47458 0.0
C2704 C 0.51745 0.61864 0.49885 0.0
C2705 C 0.50715 0.64793 0.52367 0.0
C2706 C 0.53001 0.61801 0.51396 0.0
C2707 C 0.53212 0.60129 0.51937 0.0
C2708 C 0.52181 0.58455 0.50981 0.0
C2709 C 0.50927 0.5852 0.49467 0.0
C2710 C 0.50719 0.60193 0.48925 0.0
H2711 H 0.49891 0.65724 0.52895 0.0
H2712 H 0.49974 0.63373 0.52455 0.0
H2713 H 0.52031 0.65097 0.53271 0.0
H2714 H 0.53849 0.6305 0.52146 0.0
H2715 H 0.54205 0.60153 0.53098 0.0
H2716 H 0.62486 0.30492 0.62852 0.0
H2717 H 0.65249 0.30402 0.64838 0.0
H2718 H 0.62113 0.29756 0.694 0.0
H2719 H 0.59356 0.29845 0.67432 0.0
H2720 H 0.66986 0.32669 0.6819 0.0
H2721 H 0.64602 0.25457 0.69292 0.0
H2722 H 0.63551 0.26421 0.67469 0.0
H2723 H 0.63026 0.26837 0.69769 0.0
C2724 C 0.62385 0.30334 0.64279 0.0
C2725 C 0.60693 0.3017 0.64977 0.0
C2726 C 0.63968 0.30284 0.65414 0.0
C2727 C 0.63891 0.30045 0.67268 0.0
C2728 C 0.62208 0.2991 0.67971 0.0
H2729 H 0.71371 0.28836 0.76479 0.0
H2730 H 0.68765 0.29043 0.74363 0.0
C2731 C 0.60631 0.29971 0.66843 0.0
C2732 C 0.65562 0.29943 0.68471 0.0
H2733 H 0.67304 0.27165 0.71126 0.0
C2734 C 0.67062 0.31462 0.68823 0.0
C2735 C 0.65666 0.28371 0.69305 0.0
C2736 C 0.64134 0.26671 0.68932 0.0
C2737 C 0.68631 0.31471 0.70023 0.0
C2738 C 0.68733 0.29899 0.70865 0.0
C2739 C 0.67237 0.28374 0.70493 0.0
C2740 C 0.70354 0.29811 0.7216 0.0
C2741 C 0.70135 0.33192 0.70423 0.0
C2742 C 0.72133 0.30155 0.71638 0.0
C2743 C 0.73636 0.30051 0.72857 0.0
C2744 C 0.734 0.29575 0.74625 0.0
C2745 C 0.71615 0.29209 0.75135 0.0
C2746 C 0.70117 0.29326 0.73921 0.0
H2747 H 0.69629 0.34401 0.70117 0.0
H2748 H 0.70742 0.33416 0.71877 0.0
H2749 H 0.71231 0.33084 0.6955 0.0
H2750 H 0.7236 0.30482 0.70276 0.0
H2751 H 0.74982 0.30324 0.72403 0.0
H2752 H 0.03688 0.33547 0.95311 0.0
H2753 H 0.03885 0.36732 0.96414 0.0
H2754 H 0.98668 0.35172 0.98458 0.0
H2755 H 0.98506 0.31973 0.9742 0.0
H2756 H 0.01965 0.38969 0.95496 0.0
H2757 H 0.01328 0.38471 0.0282 0.0
H2758 H 0.01661 0.36609 0.0129 0.0
H2759 H 0.99413 0.37021 0.01365 0.0
C2760 C 0.02594 0.33876 0.96022 0.0
C2761 C 0.0109 0.32488 0.96291 0.0
C2762 C 0.02703 0.3571 0.96649 0.0
C2763 C 0.01309 0.36225 0.97557 0.0
C2764 C 0.99799 0.34835 0.97819 0.0
H2765 H 0.99399 0.47068 0.0098 0.0
H2766 H 0.99035 0.43799 0.0005 0.0
C2767 C 0.997 0.32995 0.97212 0.0
C2768 C 0.0141 0.38212 0.9815 0.0
H2769 H 0.01105 0.41278 0.01781 0.0
C2770 C 0.01784 0.39463 0.96876 0.0
C2771 C 0.01177 0.38895 -0.00049 0.0
C2772 C 0.00891 0.37683 0.0144 0.0
C2773 C 0.01916 0.4134 0.97339 0.0
C2774 C 0.01671 0.42014 0.9913 0.0
C2775 C 0.0128 0.4077 0.00403 0.0
C2776 C 0.01884 0.44011 0.99717 0.0
C2777 C 0.02304 0.42594 0.95899 0.0
C2778 C 0.03607 0.45235 -0.00139 0.0
C2779 C 0.03823 0.47102 0.00407 0.0
C2780 C 0.02319 0.47815 0.00815 0.0
C2781 C 0.0059 0.46584 0.0067 0.0
C2782 C 0.0038 0.44707 0.00142 0.0
H2783 H 0.02097 0.41835 0.94502 0.0
H2784 H 0.01411 0.43566 0.95936 0.0
H2785 H 0.03747 0.43393 0.96178 0.0
H2786 H 0.04797 0.44743 0.9956 0.0
H2787 H 0.05179 0.47991 0.00501 0.0
H2788 H 0.99519 0.80019 0.12373 0.0
H2789 H 0.96936 0.79794 0.14183 0.0
H2790 H 1.00336 0.78937 0.18861 0.0
H2791 H 0.02929 0.79215 0.17078 0.0
H2792 H 0.95134 0.77081 0.15825 0.0
H2793 H 0.98263 0.82887 0.21149 0.0
H2794 H 0.99269 0.82487 0.19077 0.0
H2795 H 0.99628 0.81253 0.20974 0.0
C2796 C 0.99719 0.79796 0.13792 0.0
C2797 C 0.01437 0.79651 0.14584 0.0
C2798 C 0.98239 0.79665 0.14826 0.0
C2799 C 0.98441 0.79385 0.16676 0.0
C2800 C 1.0015 0.79207 0.17457 0.0
H2801 H 0.91156 0.77183 0.25035 0.0
H2802 H 0.93695 0.77586 0.23179 0.0
C2803 C 0.01632 0.79353 0.16429 0.0
C2804 C 0.96856 0.79225 0.17772 0.0
H2805 H 0.95526 0.80883 0.21769 0.0
C2806 C 0.95218 0.77925 0.17117 0.0
C2807 C 0.96951 0.80326 0.19461 0.0
C2808 C 0.98616 0.81829 0.20198 0.0
C2809 C 0.93702 0.77666 0.18118 0.0
C2810 C 0.93814 0.78743 0.19819 0.0
C2811 C 0.95442 0.8005 0.20471 0.0
C2812 C 0.9226 0.78522 0.20949 0.0
C2813 C 0.92003 0.76212 0.17369 0.0
C2814 C 0.9061 0.78939 0.2033 0.0
C2815 C 0.89157 0.78734 0.21401 0.0
C2816 C 0.89314 0.78103 0.23121 0.0
C2817 C 0.9098 0.77698 0.23737 0.0
C2818 C 0.92436 0.77915 0.2267 0.0
H2819 H 0.92261 0.75259 0.1624 0.0
H2820 H 0.91468 0.75422 0.18465 0.0
H2821 H 0.90926 0.76861 0.16829 0.0
H2822 H 0.90451 0.7944 0.19021 0.0
H2823 H 0.87917 0.79095 0.20887 0.0
H2824 H 0.50883 0.28542 0.11834 0.0
H2825 H 0.51226 0.31159 0.10122 0.0
H2826 H 0.52911 0.34783 0.15166 0.0
H2827 H 0.52538 0.32167 0.16891 0.0
H2828 H 0.50488 0.35938 0.12882 0.0
H2829 H 0.55996 0.34333 0.09054 0.0
H2830 H 0.53975 0.32508 0.08765 0.0
H2831 H 0.55279 0.33208 0.10986 0.0
C2832 C 0.51327 0.29896 0.12581 0.0
C2833 C 0.51692 0.30143 0.14501 0.0
C2834 C 0.51535 0.31394 0.11597 0.0
C2835 C 0.5213 0.33175 0.12508 0.0
C2836 C 0.52462 0.33425 0.14428 0.0
H2837 H 0.5628 0.428 0.07245 0.0
H2838 H 0.55899 0.4027 0.09076 0.0
C2839 C 0.52249 0.31927 0.15414 0.0
C2840 C 0.52388 0.34774 0.1146 0.0
H2841 H 0.54662 0.3667 0.0808 0.0
C2842 C 0.51406 0.361 0.11836 0.0
C2843 C 0.53606 0.35008 0.10112 0.0
C2844 C 0.54789 0.33699 0.09715 0.0
C2845 C 0.51581 0.37628 0.10883 0.0
C2846 C 0.52746 0.37825 0.09485 0.0
C2847 C 0.53754 0.36516 0.09134 0.0
C2848 C 0.5296 0.39387 0.08386 0.0
C2849 C 0.50543 0.39035 0.11412 0.0
C2850 C 0.51442 0.39735 0.07367 0.0
C2851 C 0.51656 0.41187 0.06319 0.0
C2852 C 0.53399 0.42315 0.06245 0.0
C2853 C 0.5492 0.41953 0.07254 0.0
C2854 C 0.54703 0.40507 0.08309 0.0
H2855 H 0.50159 0.38967 0.12821 0.0
H2856 H 0.5136 0.40429 0.1133 0.0
H2857 H 0.49261 0.38782 0.1046 0.0
H2858 H 0.50089 0.38866 0.07358 0.0
H2859 H 0.50458 0.41401 0.05535 0.0
H2860 H 0.99424 0.31271 0.31255 0.0
H2861 H 0.96244 0.31131 0.30046 0.0
H2862 H 0.94356 0.28739 0.3476 0.0
H2863 H 0.97515 0.28898 0.35979 0.0
H2864 H 0.93211 0.28319 0.29062 0.0
H2865 H 0.91844 0.32881 0.34792 0.0
H2866 H 0.94121 0.3265 0.34476 0.0
H2867 H 0.92612 0.30987 0.35542 0.0
C2868 C 0.98331 0.30714 0.32033 0.0
C2869 C 0.98738 0.30106 0.33723 0.0
C2870 C 0.96508 0.30635 0.3134 0.0
C2871 C 0.95042 0.29959 0.32323 0.0
C2872 C 0.95449 0.29312 0.33989 0.0
H2873 H 0.83416 0.26117 0.28188 0.0
H2874 H 0.86644 0.26454 0.29241 0.0
C2875 C 0.97265 0.29391 0.3468 0.0
C2876 C 0.93093 0.29903 0.31606 0.0
H2877 H 0.89243 0.31206 0.32746 0.0
C2878 C 0.9235 0.2896 0.29868 0.0
C2879 C 0.91955 0.30759 0.32631 0.0
C2880 C 0.92676 0.31892 0.34455 0.0
C2881 C 0.9051 0.28805 0.29157 0.0
C2882 C 0.8935 0.29591 0.30217 0.0
C2883 C 0.90108 0.3058 0.31932 0.0
C2884 C 0.87351 0.29394 0.29579 0.0
C2885 C 0.89837 0.2782 0.27258 0.0
C2886 C 0.86624 0.30929 0.29463 0.0
C2887 C 0.84756 0.30742 0.28867 0.0
C2888 C 0.83551 0.29011 0.28384 0.0
C2889 C 0.84283 0.27477 0.28531 0.0
C2890 C 0.86147 0.27667 0.29124 0.0
H2891 H 0.90987 0.27789 0.26433 0.0
H2892 H 0.89126 0.26394 0.27357 0.0
H2893 H 0.88858 0.28467 0.26524 0.0
H2894 H 0.87509 0.3228 0.29816 0.0
H2895 H 0.8426 0.31959 0.28783 0.0
H2896 H 0.01123 0.71584 0.6186 0.0
H2897 H 0.01192 0.68725 0.60062 0.0
H2898 H 0.00867 0.66049 0.64919 0.0
H2899 H 0.00793 0.6891 0.6673 0.0
H2900 H 0.03818 0.66642 0.60582 0.0
H2901 H 0.96829 0.6261 0.61202 0.0
H2902 H 0.97486 0.65056 0.61705 0.0
H2903 H 0.98195 0.63671 0.63318 0.0
C2904 C 0.0105 0.70385 0.62546 0.0
C2905 C 0.00946 0.70479 0.64441 0.0
C2906 C 0.01093 0.68749 0.61515 0.0
C2907 C 0.01014 0.67159 0.62345 0.0
C2908 C 0.00898 0.67244 0.64236 0.0
H2909 H 0.0128 0.56096 0.57702 0.0
H2910 H 0.01081 0.58762 0.59769 0.0
C2911 C 0.00864 0.68885 0.65273 0.0
C2912 C 0.0113 0.65442 0.61239 0.0
H2913 H 0.98759 0.61071 0.59682 0.0
C2914 C 0.0271 0.65425 0.60385 0.0
C2915 C 0.99695 0.63843 0.60994 0.0
C2916 C 0.97947 0.63788 0.61839 0.0
C2917 C 0.02897 0.63864 0.59299 0.0
C2918 C 0.01442 0.62277 0.59011 0.0
C2919 C 0.99874 0.62282 0.59893 0.0
C2920 C 0.01504 0.60631 0.57748 0.0
C2921 C 0.0467 0.63926 0.58496 0.0
C2922 C 0.01762 0.60772 0.55909 0.0
C2923 C 0.01885 0.59257 0.54731 0.0
C2924 C 0.01731 0.57546 0.55348 0.0
C2925 C 0.01413 0.5739 0.57177 0.0
C2926 C 0.01298 0.58915 0.58362 0.0
H2927 H 0.05817 0.64979 0.59294 0.0
H2928 H 0.05034 0.62593 0.58449 0.0
H2929 H 0.04521 0.64276 0.5708 0.0
H2930 H 0.01873 0.62061 0.5538 0.0
H2931 H 0.02108 0.59435 0.5333 0.0
H2932 H 0.60763 0.82239 0.85819 0.0
H2933 H 0.63605 0.81911 0.84635 0.0
H2934 H 0.60479 0.78287 0.79995 0.0
H2935 H 0.57629 0.78643 0.81157 0.0
H2936 H 0.65003 0.79016 0.84046 0.0
H2937 H 0.6401 0.81604 0.77396 0.0
H2938 H 0.62581 0.81865 0.79176 0.0
H2939 H 0.62175 0.79743 0.77709 0.0
C2940 C 0.60675 0.81386 0.84534 0.0
C2941 C 0.58954 0.8048 0.83581 0.0
C2942 C 0.6231 0.81194 0.83858 0.0
C2943 C 0.62283 0.80095 0.82201 0.0
C2944 C 0.60561 0.79183 0.81248 0.0
H2945 H 0.70948 0.76862 0.76382 0.0
H2946 H 0.68032 0.77234 0.77375 0.0
C2947 C 0.58923 0.79379 0.81923 0.0
C2948 C 0.6405 0.79859 0.8152 0.0
H2949 H 0.66507 0.80221 0.77842 0.0
C2950 C 0.65329 0.79291 0.82691 0.0
C2951 C 0.645 0.80205 0.79747 0.0
C2952 C 0.63254 0.80904 0.78439 0.0
C2953 C 0.67005 0.79038 0.82141 0.0
C2954 C 0.67457 0.79391 0.80372 0.0
C2955 C 0.66176 0.79947 0.79195 0.0
C2956 C 0.69253 0.79203 0.79732 0.0
C2957 C 0.6826 0.78352 0.83453 0.0
C2958 C 0.70935 0.8021 0.80689 0.0
C2959 C 0.7261 0.80003 0.80121 0.0
C2960 C 0.72662 0.78786 0.78568 0.0
C2961 C 0.70976 0.77809 0.77585 0.0
C2962 C 0.69299 0.78021 0.78153 0.0
H2963 H 0.67514 0.77665 0.84509 0.0
H2964 H 0.68929 0.77386 0.82719 0.0
H2965 H 0.69345 0.79519 0.84166 0.0
H2966 H 0.70957 0.81165 0.81884 0.0
H2967 H 0.73868 0.80792 0.80914 0.0
H2968 H 0.42687 0.51755 0.69472 0.0
H2969 H 0.43902 0.52014 0.66536 0.0
H2970 H 0.49134 0.55044 0.69334 0.0
H2971 H 0.47924 0.54786 0.72289 0.0
H2972 H 0.45457 0.55218 0.64995 0.0
H2973 H 0.50394 0.50909 0.66006 0.0
H2974 H 0.48551 0.50906 0.67393 0.0
H2975 H 0.50573 0.52736 0.67805 0.0
C2976 C 0.44099 0.52473 0.69467 0.0
C2977 C 0.45211 0.53242 0.71118 0.0
C2978 C 0.4479 0.52623 0.67784 0.0
C2979 C 0.46614 0.53531 0.67711 0.0
C2980 C 0.47729 0.54313 0.69356 0.0
H2981 H 0.53349 0.55199 0.58852 0.0
H2982 H 0.52103 0.55213 0.61774 0.0
C2983 C 0.47035 0.5417 0.71044 0.0
C2984 C 0.47336 0.53665 0.65909 0.0
H2985 H 0.50455 0.52366 0.6334 0.0
C2986 C 0.46549 0.54594 0.6463 0.0
C2987 C 0.48759 0.5285 0.65432 0.0
C2988 C 0.49613 0.5178 0.66721 0.0
C2989 C 0.47168 0.54757 0.62904 0.0
C2990 C 0.48586 0.53931 0.6242 0.0
C2991 C 0.4937 0.53001 0.63703 0.0
C2992 C 0.493 0.54025 0.60607 0.0
C2993 C 0.46328 0.55853 0.61634 0.0
C2994 C 0.48141 0.53365 0.58959 0.0
C2995 C 0.48851 0.53369 0.57271 0.0
C2996 C 0.5074 0.54011 0.57197 0.0
C2997 C 0.51889 0.5469 0.58849 0.0
C2998 C 0.51178 0.54697 0.60528 0.0
H2999 H 0.45669 0.56815 0.6239 0.0
H3000 H 0.4737 0.56636 0.60871 0.0
H3001 H 0.45258 0.54918 0.60629 0.0
H3002 H 0.46694 0.52799 0.58978 0.0
H3003 H 0.47928 0.52818 0.56032 0.0
H3004 H 0.77594 0.16488 0.98902 0.0
H3005 H 0.77163 0.18538 0.96655 0.0
H3006 H 0.77437 0.22838 0.01016 0.0
H3007 H 0.77839 0.20784 0.03277 0.0
H3008 H 0.74556 0.22496 0.98275 0.0
H3009 H 0.81094 0.2272 0.95375 0.0
H3010 H 0.79746 0.2045 0.95369 0.0
H3011 H 0.80646 0.21853 0.9751 0.0
C3012 C 0.7757 0.17871 0.99381 0.0
C3013 C 0.7776 0.18481 0.0126 0.0
C3014 C 0.77332 0.19043 0.98099 0.0
C3015 C 0.77299 0.20845 0.98674 0.0
C3016 C 0.7747 0.21454 0.00549 0.0
H3017 H 0.7809 0.28682 0.90847 0.0
H3018 H 0.78517 0.27289 0.93641 0.0
C3019 C 0.77702 0.20281 0.01834 0.0
C3020 C 0.77052 0.22082 0.97313 0.0
H3021 H 0.78861 0.23847 0.93654 0.0
C3022 C 0.75505 0.22809 0.97274 0.0
C3023 C 0.7831 0.22511 0.96034 0.0
C3024 C 0.80052 0.21858 0.96081 0.0
C3025 C 0.75145 0.23902 0.95937 0.0
C3026 C 0.7635 0.24244 0.94595 0.0
C3027 C 0.77931 0.23571 0.94678 0.0
C3028 C 0.75971 0.25228 0.93039 0.0
C3029 C 0.73482 0.24678 0.95976 0.0
C3030 C 0.74386 0.24543 0.91792 0.0
C3031 C 0.74138 0.25338 0.902 0.0
C3032 C 0.75483 0.26815 0.89821 0.0
C3033 C 0.77041 0.27533 0.911 0.0
C3034 C 0.77282 0.26745 0.92696 0.0
H3035 H 0.73049 0.24778 0.97369 0.0
H3036 H 0.73746 0.26048 0.95519 0.0
H3037 H 0.7233 0.23769 0.95041 0.0
H3038 H 0.73379 0.23345 0.92008 0.0
H3039 H 0.72937 0.24744 0.89224 0.0
H3040 H 0.14994 0.51769 0.18114 0.0
H3041 H 0.12749 0.50954 0.1539 0.0
H3042 H 0.08904 0.47692 0.18396 0.0
H3043 H 0.11144 0.48517 0.21144 0.0
H3044 H 0.10568 0.47565 0.13359 0.0
H3045 H 0.06459 0.51772 0.16903 0.0
H3046 H 0.08793 0.51867 0.1777 0.0
H3047 H 0.07006 0.49923 0.17987 0.0
C3048 C 0.13685 0.50848 0.18187 0.0
C3049 C 0.13232 0.50227 0.19844 0.0
C3050 C 0.12407 0.50379 0.1663 0.0
C3051 C 0.10656 0.49287 0.16706 0.0
C3052 C 0.10243 0.48556 0.18322 0.0
H3053 H 0.02264 0.50268 0.08019 0.0
H3054 H 0.03498 0.4898 0.10627 0.0
C3055 C 0.11525 0.49024 0.19885 0.0
C3056 C 0.09231 0.49108 0.1515 0.0
H3057 H 0.05733 0.50981 0.13747 0.0
C3058 C 0.09479 0.48271 0.13448 0.0
C3059 C 0.07805 0.50019 0.15278 0.0
C3060 C 0.07493 0.50956 0.17077 0.0
C3061 C 0.08418 0.48433 0.11845 0.0
C3062 C 0.07107 0.49484 0.11956 0.0
C3063 C 0.06748 0.50183 0.13673 0.0
C3064 C 0.06331 0.50135 0.10322 0.0
C3065 C 0.08772 0.47553 0.10039 0.0
C3066 C 0.07517 0.51238 0.09323 0.0
C3067 C 0.06824 0.51988 0.07858 0.0
C3068 C 0.04925 0.51656 0.07364 0.0
C3069 C 0.03733 0.5055 0.08369 0.0
C3070 C 0.04433 0.49806 0.0985 0.0
H3071 H 0.09291 0.46323 0.10215 0.0
H3072 H 0.07513 0.47167 0.09043 0.0
H3073 H 0.09832 0.48525 0.0946 0.0
H3074 H 0.08985 0.51549 0.09698 0.0
H3075 H 0.07783 0.52825 0.07111 0.0
H3076 H 0.80041 0.8326 0.49136 0.0
H3077 H 0.80304 0.81952 0.46023 0.0
H3078 H 0.76766 0.85108 0.43801 0.0
H3079 H 0.76513 0.86427 0.46888 0.0
H3080 H 0.77639 0.79977 0.43111 0.0
H3081 H 0.81346 0.86552 0.41212 0.0
H3082 H 0.81058 0.86201 0.43553 0.0
H3083 H 0.79228 0.86654 0.42079 0.0
C3084 C 0.7931 0.83665 0.47983 0.0
C3085 C 0.78265 0.84958 0.48262 0.0
C3086 C 0.79462 0.82917 0.46205 0.0
C3087 C 0.78584 0.83457 0.44672 0.0
C3088 C 0.77489 0.84698 0.44955 0.0
H3089 H 0.76902 0.81584 0.33031 0.0
H3090 H 0.77062 0.82474 0.363 0.0
C3091 C 0.77337 0.85444 0.46726 0.0
C3092 C 0.78821 0.82757 0.42774 0.0
H3093 H 0.80152 0.84162 0.38762 0.0
C3094 C 0.7821 0.80887 0.42164 0.0
C3095 C 0.79579 0.8394 0.4154 0.0
C3096 C 0.80358 0.85946 0.42131 0.0
C3097 C 0.78249 0.80186 0.40332 0.0
C3098 C 0.78944 0.81384 0.39083 0.0
C3099 C 0.79613 0.83243 0.39713 0.0
C3100 C 0.78858 0.80774 0.37087 0.0
C3101 C 0.77474 0.78184 0.39727 0.0
C3102 C 0.79826 0.79522 0.36422 0.0
C3103 C 0.79742 0.79002 0.34529 0.0
C3104 C 0.78689 0.79731 0.33266 0.0
C3105 C 0.7773 0.80988 0.33949 0.0
C3106 C 0.77818 0.81504 0.35827 0.0
H3107 H 0.76688 0.77506 0.40764 0.0
H3108 H 0.76563 0.77966 0.38417 0.0
H3109 H 0.78611 0.77521 0.39501 0.0
H3110 H 0.80664 0.7896 0.37364 0.0
H3111 H 0.805 0.78035 0.34057 0.0
H3112 H 0.47905 0.51753 0.80366 0.0
H3113 H 0.49296 0.5156 0.83452 0.0
H3114 H 0.45276 0.53997 0.85788 0.0
H3115 H 0.4387 0.54168 0.82724 0.0
H3116 H 0.50829 0.54186 0.86373 0.0
H3117 H 0.44792 0.49429 0.88278 0.0
H3118 H 0.45006 0.49882 0.85952 0.0
H3119 H 0.44257 0.51435 0.87533 0.0
C3120 C 0.47321 0.52251 0.81538 0.0
C3121 C 0.45769 0.52966 0.81296 0.0
C3122 C 0.48116 0.52138 0.83302 0.0
C3123 C 0.47369 0.52728 0.84858 0.0
C3124 C 0.45851 0.53489 0.84615 0.0
H3125 H 0.52137 0.55779 0.96092 0.0
H3126 H 0.51088 0.55593 0.92852 0.0
C3127 C 0.45056 0.53599 0.82858 0.0
C3128 C 0.4818 0.52574 0.86736 0.0
H3129 H 0.4711 0.50917 0.90725 0.0
C3130 C 0.5002 0.53458 0.87318 0.0
C3131 C 0.4714 0.51595 0.87967 0.0
C3132 C 0.45195 0.50515 0.87398 0.0
C3133 C 0.50821 0.53452 0.89113 0.0
C3134 C 0.49748 0.52562 0.90376 0.0
C3135 C 0.47931 0.51617 0.89771 0.0
C3136 C 0.50457 0.52657 0.92345 0.0
C3137 C 0.52815 0.54394 0.89635 0.0
C3138 C 0.50419 0.51067 0.93168 0.0
C3139 C 0.5101 0.51166 0.95041 0.0
C3140 C 0.51639 0.52861 0.96135 0.0
C3141 C 0.51677 0.54448 0.953 0.0
C3142 C 0.51087 0.54347 0.93435 0.0
H3143 H 0.53569 0.54482 0.88416 0.0
H3144 H 0.52926 0.558 0.90281 0.0
H3145 H 0.53488 0.53677 0.90624 0.0
H3146 H 0.49926 0.49745 0.92362 0.0
H3147 H 0.50951 0.49916 0.95634 0.0
H3148 H 0.82493 0.19877 0.09156 0.0
H3149 H 0.83092 0.22138 0.11878 0.0
H3150 H 0.78703 0.18817 0.1424 0.0
H3151 H 0.78119 0.16547 0.1155 0.0
H3152 H 0.80572 0.2396 0.12845 0.0
H3153 H 0.82547 0.20477 0.1862 0.0
H3154 H 0.82618 0.19616 0.16268 0.0
H3155 H 0.80503 0.1914 0.17269 0.0
C3156 C 0.8169 0.19608 0.10279 0.0
C3157 C 0.80254 0.18041 0.10141 0.0
C3158 C 0.82033 0.20901 0.1183 0.0
C3159 C 0.80956 0.20636 0.13268 0.0
C3160 C 0.7958 0.1903 0.13167 0.0
H3161 H 0.76628 0.25788 0.21612 0.0
H3162 H 0.77534 0.23959 0.19111 0.0
C3163 C 0.79238 0.17738 0.11621 0.0
C3164 C 0.81082 0.22126 0.14754 0.0
H3165 H 0.81119 0.22968 0.19371 0.0
C3166 C 0.80742 0.23766 0.14277 0.0
C3167 C 0.81306 0.21869 0.16618 0.0
C3168 C 0.81783 0.20185 0.17223 0.0
C3169 C 0.80481 0.251 0.15608 0.0
C3170 C 0.80579 0.24782 0.17454 0.0
C3171 C 0.81034 0.23196 0.17946 0.0
C3172 C 0.80009 0.25968 0.18869 0.0
C3173 C 0.79983 0.26782 0.15024 0.0
C3174 C 0.81084 0.27717 0.19523 0.0
C3175 C 0.80566 0.28763 0.20955 0.0
C3176 C 0.78984 0.28051 0.21749 0.0
C3177 C 0.77873 0.2634 0.21035 0.0
C3178 C 0.78387 0.253 0.19613 0.0
H3179 H 0.79805 0.26746 0.13513 0.0
H3180 H 0.78695 0.26941 0.15557 0.0
H3181 H 0.81078 0.27998 0.15611 0.0
H3182 H 0.82343 0.28249 0.18963 0.0
H3183 H 0.81436 0.30086 0.21492 0.0
H3184 H 0.10805 0.5357 0.27002 0.0
H3185 H 0.09052 0.54433 0.29418 0.0
H3186 H 0.13504 0.54396 0.33496 0.0
H3187 H 0.15274 0.53545 0.31087 0.0
H3188 H 0.08019 0.52536 0.32399 0.0
H3189 H 0.12425 0.59447 0.34693 0.0
H3190 H 0.12524 0.58175 0.32523 0.0
H3191 H 0.13636 0.57674 0.34596 0.0
C3192 C 0.11408 0.5374 0.28415 0.0
C3193 C 0.13176 0.53494 0.28861 0.0
C3194 C 0.10408 0.54238 0.29788 0.0
C3195 C 0.11167 0.5451 0.31625 0.0
C3196 C 0.12915 0.54229 0.32079 0.0
H3197 H 0.08076 0.56349 0.42222 0.0
H3198 H 0.09603 0.56106 0.39475 0.0
C3199 C 0.13916 0.53727 0.30706 0.0
C3200 C 0.10104 0.55027 0.33074 0.0
H3201 H 0.10199 0.58282 0.36628 0.0
C3202 C 0.08478 0.53801 0.33312 0.0
C3203 C 0.10714 0.56683 0.3425 0.0
C3204 C 0.12412 0.58081 0.33997 0.0
C3205 C 0.07483 0.54148 0.34756 0.0
C3206 C 0.08119 0.55782 0.35964 0.0
C3207 C 0.09717 0.57034 0.35692 0.0
C3208 C 0.07232 0.56135 0.3761 0.0
C3209 C 0.0581 0.52725 0.35027 0.0
C3210 C 0.05412 0.56289 0.37467 0.0
C3211 C 0.04529 0.56408 0.39035 0.0
C3212 C 0.0546 0.56383 0.40763 0.0
C3213 C 0.07314 0.56333 0.40904 0.0
C3214 C 0.08192 0.5621 0.3934 0.0
H3215 H 0.05717 0.51401 0.34195 0.0
H3216 H 0.05815 0.52509 0.36488 0.0
H3217 H 0.04564 0.53193 0.34611 0.0
H3218 H 0.04662 0.56263 0.36141 0.0
H3219 H 0.031 0.56445 0.38886 0.0
H3220 H 0.7921 0.88204 0.60086 0.0
H3221 H 0.78959 0.86998 0.63015 0.0
H3222 H 0.76313 0.81684 0.60178 0.0
H3223 H 0.76566 0.82884 0.57231 0.0
H3224 H 0.75776 0.85244 0.64498 0.0
H3225 H 0.80556 0.80756 0.63594 0.0
H3226 H 0.80449 0.82546 0.62198 0.0
H3227 H 0.78732 0.80441 0.61763 0.0
C3228 C 0.78578 0.86776 0.60081 0.0
C3229 C 0.77916 0.85638 0.58421 0.0
C3230 C 0.78431 0.8609 0.6176 0.0
C3231 C 0.77636 0.84246 0.61822 0.0
C3232 C 0.76959 0.83106 0.60167 0.0
H3233 H 0.76154 0.77509 0.70617 0.0
H3234 H 0.76151 0.78746 0.67706 0.0
C3235 C 0.77097 0.83795 0.58483 0.0
C3236 C 0.77513 0.83528 0.63621 0.0
H3237 H 0.78997 0.80565 0.66214 0.0
C3238 C 0.76482 0.84222 0.64876 0.0
C3239 C 0.78435 0.82196 0.64116 0.0
C3240 C 0.79619 0.81448 0.62858 0.0
C3241 C 0.76318 0.83598 0.66595 0.0
C3242 C 0.77248 0.8227 0.67096 0.0
C3243 C 0.78282 0.8158 0.65838 0.0
C3244 C 0.77153 0.81553 0.68901 0.0
C3245 C 0.75111 0.84333 0.67836 0.0
C3246 C 0.77708 0.82714 0.70562 0.0
C3247 C 0.77697 0.82008 0.72243 0.0
C3248 C 0.77154 0.80121 0.723 0.0
C3249 C 0.76583 0.78968 0.70634 0.0
C3250 C 0.76584 0.79674 0.68961 0.0
H3251 H 0.74102 0.84917 0.67062 0.0
H3252 H 0.74358 0.83256 0.68576 0.0
H3253 H 0.75974 0.85432 0.68862 0.0
H3254 H 0.78194 0.84165 0.70559 0.0
H3255 H 0.78162 0.82937 0.73494 0.0
H3256 H 0.71194 0.42088 0.50117 0.0
H3257 H 0.69554 0.44324 0.51253 0.0
H3258 H 0.7469 0.48206 0.53059 0.0
H3259 H 0.76343 0.45984 0.51939 0.0
H3260 H 0.70482 0.4637 0.55327 0.0
H3261 H 0.7115 0.50619 0.49604 0.0
H3262 H 0.71151 0.48238 0.49254 0.0
H3263 H 0.7309 0.49843 0.50516 0.0
C3264 C 0.71972 0.43422 0.50743 0.0
C3265 C 0.73893 0.43866 0.5094 0.0
C3266 C 0.71036 0.44691 0.51394 0.0
C3267 C 0.7201 0.46419 0.52233 0.0
C3268 C 0.73924 0.46876 0.52409 0.0
H3269 H 0.66775 0.5527 0.55174 0.0
H3270 H 0.69233 0.53666 0.54922 0.0
C3271 C 0.74861 0.45607 0.51769 0.0
C3272 C 0.71017 0.47732 0.52955 0.0
H3273 H 0.69399 0.51364 0.51894 0.0
C3274 C 0.70256 0.47475 0.54591 0.0
C3275 C 0.70764 0.49183 0.52002 0.0
C3276 C 0.71574 0.49499 0.50242 0.0
C3277 C 0.69183 0.48606 0.55271 0.0
C3278 C 0.68833 0.49992 0.54258 0.0
C3279 C 0.69672 0.503 0.52668 0.0
C3280 C 0.67427 0.5098 0.54686 0.0
C3281 C 0.68412 0.48287 0.57049 0.0
C3282 C 0.65612 0.49999 0.54656 0.0
C3283 C 0.6422 0.50905 0.54803 0.0
C3284 C 0.64614 0.5281 0.5496 0.0
C3285 C 0.6644 0.538 0.55063 0.0
C3286 C 0.67839 0.52888 0.54914 0.0
H3287 H 0.69305 0.47683 0.57951 0.0
H3288 H 0.68246 0.49569 0.57795 0.0
H3289 H 0.6705 0.47315 0.56759 0.0
H3290 H 0.65257 0.48527 0.54441 0.0
H3291 H 0.62825 0.50111 0.5474 0.0
H3292 H 0.21035 0.17101 0.51464 0.0
H3293 H 0.18056 0.14949 0.51326 0.0
H3294 H 0.20524 0.10493 0.49953 0.0
H3295 H 0.23508 0.12631 0.50118 0.0
H3296 H 0.16046 0.12439 0.48435 0.0
H3297 H 0.179 0.08951 0.54314 0.0
H3298 H 0.19293 0.11083 0.5386 0.0
H3299 H 0.19375 0.08992 0.52544 0.0
C3300 C 0.20943 0.15663 0.51135 0.0
C3301 C 0.22508 0.15035 0.50813 0.0
C3302 C 0.1924 0.14435 0.51055 0.0
C3303 C 0.19073 0.12557 0.50658 0.0
C3304 C 0.20627 0.11931 0.50301 0.0
H3305 H 0.09295 0.0356 0.5034 0.0
H3306 H 0.12378 0.05278 0.49931 0.0
C3307 C 0.2233 0.13156 0.50386 0.0
C3308 C 0.17266 0.11263 0.50607 0.0
H3309 H 0.14952 0.07783 0.52691 0.0
C3310 C 0.15809 0.11417 0.49362 0.0
C3311 C 0.16961 0.0992 0.51809 0.0
C3312 C 0.18458 0.0973 0.53219 0.0
C3313 C 0.1405 0.10282 0.493 0.0
C3314 C 0.13735 0.08974 0.50533 0.0
C3315 C 0.15202 0.08781 0.51742 0.0
C3316 C 0.11864 0.07915 0.50704 0.0
C3317 C 0.1254 0.10498 0.47922 0.0
C3318 C 0.10568 0.08828 0.51289 0.0
C3319 C 0.08823 0.07858 0.51531 0.0
C3320 C 0.08329 0.05947 0.51198 0.0
C3321 C 0.09628 0.05029 0.50601 0.0
C3322 C 0.11388 0.06007 0.5037 0.0
H3323 H 0.13094 0.11157 0.46753 0.0
H3324 H 0.11596 0.09164 0.47386 0.0
H3325 H 0.11737 0.11372 0.48592 0.0
H3326 H 0.10915 0.10296 0.51586 0.0
H3327 H 0.07862 0.08616 0.51987 0.0
H3328 H 0.12843 0.96959 0.76854 0.0
H3329 H 0.14411 0.94471 0.76492 0.0
H3330 H 0.19585 0.98385 0.76832 0.0
H3331 H 0.18043 0.00861 0.77199 0.0
H3332 H 0.16751 0.93731 0.73764 0.0
H3333 H 0.20424 0.95116 0.80796 0.0
H3334 H 0.1847 0.96007 0.80156 0.0
H3335 H 0.20693 0.97074 0.79593 0.0
C3336 C 0.14314 0.97285 0.76851 0.0
C3337 C 0.1532 0.99106 0.77065 0.0
C3338 C 0.15207 0.95865 0.76643 0.0
C3339 C 0.17118 0.96245 0.76665 0.0
C3340 C 0.18115 0.98061 0.76846 0.0
H3341 H 0.25778 0.90706 0.75838 0.0
H3342 H 0.23828 0.92844 0.76132 0.0
C3343 C 0.17228 0.99475 0.77047 0.0
C3344 C 0.18088 0.94759 0.76485 0.0
H3345 H 0.21436 0.93119 0.78662 0.0
C3346 C 0.17761 0.9358 0.7484 0.0
C3347 C 0.19406 0.94568 0.77891 0.0
C3348 C 0.19762 0.95746 0.79716 0.0
C3349 C 0.18772 0.92261 0.74536 0.0
C3350 C 0.2012 0.92097 0.7593 0.0
C3351 C 0.20412 0.9325 0.77591 0.0
C3352 C 0.21282 0.90778 0.75683 0.0
C3353 C 0.18437 0.91105 0.727 0.0
C3354 C 0.20503 0.889 0.75339 0.0
C3355 C 0.21616 0.8767 0.7515 0.0
C3356 C 0.23535 0.88292 0.75315 0.0
C3357 C 0.24308 0.90176 0.75669 0.0
C3358 C 0.23194 0.91402 0.75853 0.0
H3359 H 0.17705 0.91702 0.71642 0.0
H3360 H 0.19745 0.9093 0.72229 0.0
H3361 H 0.1758 0.89741 0.72823 0.0
H3362 H 0.19034 0.88382 0.75237 0.0
H3363 H 0.2097 0.86232 0.74866 0.0
H3364 H 0.30996 0.94852 0.98821 0.0
H3365 H 0.3403 0.96818 0.98704 0.0
H3366 H 0.36542 0.92998 0.01243 0.0
H3367 H 0.3352 0.91023 0.0136 0.0
H3368 H 0.36724 0.98359 0.01787 0.0
H3369 H 0.39225 0.93954 0.96673 0.0
H3370 H 0.36829 0.9365 0.96952 0.0
H3371 H 0.38313 0.92831 0.98524 0.0
C3372 C 0.32196 0.94425 0.99338 0.0
C3373 C 0.32026 0.92785 0.00095 0.0
C3374 C 0.33924 0.95549 0.99274 0.0
C3375 C 0.35503 0.9504 -0.00052 0.0
C3376 C 0.35337 0.93397 0.00691 0.0
H3377 H 0.46536 0.01056 0.03555 0.0
H3378 H 0.43304 0.99477 0.03305 0.0
C3379 C 0.33612 0.92276 0.00762 0.0
C3380 C 0.37326 0.96255 -0.00053 0.0
H3381 H 0.41449 0.96452 0.98362 0.0
C3382 C 0.37755 0.97954 0.01027 0.0
C3383 C 0.38654 0.95724 0.98936 0.0
C3384 C 0.38233 0.93947 0.97691 0.0
C3385 C 0.39507 0.99115 0.01172 0.0
C3386 C 0.40858 0.98547 0.00225 0.0
C3387 C 0.4041 0.96875 0.99097 0.0
C3388 C 0.42763 0.99643 0.00412 0.0
C3389 C 0.39899 0.00937 0.02334 0.0
C3390 C 0.43523 0.00252 0.98867 0.0
C3391 C 0.45368 0.01146 0.99002 0.0
C3392 C 0.46488 0.01434 0.00684 0.0
C3393 C 0.4571 0.0086 0.02241 0.0
C3394 C 0.43861 -0.00034 0.02103 0.0
H3395 H 0.3862 0.01361 0.02574 0.0
H3396 H 0.40624 0.00847 0.03683 0.0
H3397 H 0.4079 0.02001 0.01684 0.0
H3398 H 0.42694 6e-05 0.97549 0.0
H3399 H 0.45922 0.01572 0.97776 0.0
H3400 H 0.88322 0.593 0.79007 0.0
H3401 H 0.86087 0.61003 0.78078 0.0
H3402 H 0.83003 0.56322 0.74396 0.0
H3403 H 0.85213 0.54597 0.75347 0.0
H3404 H 0.8493 0.61842 0.74684 0.0
H3405 H 0.79212 0.5751 0.77609 0.0
H3406 H 0.81562 0.57401 0.78117 0.0
H3407 H 0.80276 0.56326 0.75968 0.0
C3408 C 0.87173 0.58638 0.77993 0.0
C3409 C 0.86929 0.56814 0.7726 0.0
C3410 C 0.859 0.5961 0.77463 0.0
C3411 C 0.84367 0.58775 0.76194 0.0
C3412 C 0.84157 0.56976 0.75407 0.0
H3413 H 0.77451 0.65621 0.72018 0.0
H3414 H 0.79123 0.63227 0.72068 0.0
C3415 C 0.85425 0.55998 0.75944 0.0
C3416 C 0.82977 0.5979 0.7573 0.0
H3417 H 0.78549 0.59925 0.76138 0.0
C3418 C 0.83529 0.61418 0.74984 0.0
C3419 C 0.81158 0.59232 0.76142 0.0
C3420 C 0.80513 0.57531 0.77017 0.0
C3421 C 0.82323 0.62535 0.74681 0.0
C3422 C 0.80505 0.61981 0.75098 0.0
C3423 C 0.79939 0.6033 0.75802 0.0
C3424 C 0.79238 0.6319 0.74995 0.0
C3425 C 0.83032 0.64338 0.74003 0.0
C3426 C 0.78659 0.63877 0.76607 0.0
C3427 C 0.7768 0.65219 0.7658 0.0
C3428 C 0.77269 0.659 0.74938 0.0
C3429 C 0.77743 0.65121 0.73303 0.0
C3430 C 0.78715 0.63769 0.73331 0.0
H3431 H 0.8455 0.64716 0.74106 0.0
H3432 H 0.82485 0.64254 0.72545 0.0
H3433 H 0.82575 0.65438 0.74792 0.0
H3434 H 0.79037 0.63434 0.77903 0.0
H3435 H 0.77303 0.65771 0.77855 0.0
H3436 H 0.80029 0.63521 0.03031 0.0
H3437 H 0.82405 0.61826 0.03333 0.0
H3438 H 0.86389 0.66418 0.0206 0.0
H3439 H 0.84018 0.68128 0.01759 0.0
H3440 H 0.84602 0.60994 0.00563 0.0
H3441 H 0.88828 0.65052 0.06801 0.0
H3442 H 0.86495 0.65156 0.06154 0.0
H3443 H 0.88305 0.66322 0.0499 0.0
C3444 C 0.81414 0.64177 0.02829 0.0
C3445 C 0.81836 0.65962 0.02377 0.0
C3446 C 0.82769 0.63204 0.02999 0.0
C3447 C 0.84578 0.64001 0.02738 0.0
C3448 C 0.85009 0.65787 0.02296 0.0
H3449 H 0.94533 0.60013 0.03233 0.0
H3450 H 0.92279 0.61846 0.02946 0.0
C3451 C 0.83651 0.66759 0.02117 0.0
C3452 C 0.85993 0.62933 0.02863 0.0
H3453 H 0.89982 0.62727 0.0532 0.0
C3454 C 0.85777 0.61369 0.01605 0.0
C3455 C 0.87531 0.63433 0.04215 0.0
C3456 C 0.87806 0.65074 0.05629 0.0
C3457 C 0.87065 0.603 0.0165 0.0
C3458 C 0.88589 0.6078 0.03023 0.0
C3459 C 0.88813 0.62355 0.04271 0.0
C3460 C 0.89957 0.59658 0.03195 0.0
C3461 C 0.86798 0.58688 0.00201 0.0
C3462 C 0.8941 0.57821 0.03456 0.0
C3463 C 0.90692 0.56762 0.03597 0.0
C3464 C 0.92559 0.57519 0.03503 0.0
C3465 C 0.93106 0.59371 0.03278 0.0
C3466 C 0.9182 0.60428 0.03129 0.0
H3467 H 0.85911 0.58826 0.98965 0.0
H3468 H 0.88127 0.58515 -0.00215 0.0
H3469 H 0.86121 0.57439 0.00752 0.0
H3470 H 0.87988 0.57204 0.03554 0.0
H3471 H 0.90211 0.5534 0.03753 0.0
H3472 H 0.18743 0.07908 0.7944 0.0
H3473 H 0.20777 0.10941 0.79676 0.0
H3474 H 0.16115 0.13192 0.78522 0.0
H3475 H 0.14068 0.10163 0.7832 0.0
H3476 H 0.21248 0.13126 0.77007 0.0
H3477 H 0.1891 0.16657 0.82909 0.0
H3478 H 0.18298 0.14215 0.82362 0.0
H3479 H 0.17076 0.15589 0.81146 0.0
C3480 C 0.18148 0.09052 0.7926 0.0
C3481 C 0.16244 0.08798 0.78866 0.0
C3482 C 0.19314 0.10785 0.79393 0.0
C3483 C 0.186 0.12299 0.79142 0.0
C3484 C 0.16696 0.12052 0.78765 0.0
H3485 H 0.22429 0.23313 0.77331 0.0
H3486 H 0.20775 0.20285 0.77791 0.0
C3487 C 0.15527 0.10318 0.78639 0.0
C3488 C 0.19854 0.14115 0.79156 0.0
H3489 H 0.20765 0.18549 0.81066 0.0
C3490 C 0.2116 0.14307 0.77912 0.0
C3491 C 0.19742 0.15654 0.80341 0.0
C3492 C 0.18444 0.15519 0.81778 0.0
C3493 C 0.22303 0.16009 0.77768 0.0
C3494 C 0.2215 0.17556 0.78913 0.0
C3495 C 0.20878 0.17358 0.80189 0.0
C3496 C 0.23195 0.1941 0.78709 0.0
C3497 C 0.23613 0.16155 0.76342 0.0
C3498 C 0.25111 0.19933 0.79096 0.0
C3499 C 0.26072 0.21676 0.78833 0.0
C3500 C 0.25129 0.22919 0.78175 0.0
C3501 C 0.23207 0.22391 0.77822 0.0
C3502 C 0.22253 0.2066 0.78092 0.0
H3503 H 0.23345 0.14891 0.75364 0.0
H3504 H 0.2352 0.17307 0.75561 0.0
H3505 H 0.25034 0.16418 0.77027 0.0
H3506 H 0.25861 0.18993 0.79595 0.0
H3507 H 0.2755 0.22042 0.79126 0.0
H3508 H 0.36618 0.98426 0.2701 0.0
H3509 H 0.35002 0.95307 0.27211 0.0
H3510 H 0.36907 0.96008 0.32979 0.0
H3511 H 0.38486 0.99166 0.32798 0.0
H3512 H 0.36461 0.92611 0.28121 0.0
H3513 H 0.31501 0.93756 0.32926 0.0
H3514 H 0.3281 0.95563 0.31851 0.0
H3515 H 0.33849 0.94776 0.33796 0.0
C3516 C 0.36685 0.9792 0.28324 0.0
C3517 C 0.37676 0.99033 0.29889 0.0
C3518 C 0.35759 0.9614 0.28437 0.0
C3519 C 0.35816 0.95435 0.30114 0.0
C3520 C 0.36811 0.9654 0.31682 0.0
H3521 H 0.33063 0.83716 0.3009 0.0
H3522 H 0.34629 0.86937 0.30634 0.0
C3523 C 0.37723 0.98335 0.31573 0.0
C3524 C 0.34912 0.93509 0.30174 0.0
H3525 H 0.31623 0.90696 0.32097 0.0
C3526 C 0.35403 0.92191 0.28991 0.0
C3527 C 0.33521 0.92974 0.31298 0.0
C3528 C 0.32874 0.94341 0.32528 0.0
C3529 C 0.34525 0.9035 0.28877 0.0
C3530 C 0.33165 0.89805 0.30033 0.0
C3531 C 0.3268 0.9112 0.31229 0.0
C3532 C 0.32186 0.8788 0.29956 0.0
C3533 C 0.35022 0.89021 0.2747 0.0
C3534 C 0.30278 0.87352 0.29507 0.0
C3535 C 0.29374 0.85513 0.29237 0.0
C3536 C 0.30373 0.84183 0.29391 0.0
C3537 C 0.32269 0.84718 0.29925 0.0
C3538 C 0.33164 0.86554 0.30232 0.0
H3539 H 0.35684 0.89714 0.2637 0.0
H3540 H 0.36005 0.88341 0.28144 0.0
H3541 H 0.33795 0.87964 0.2683 0.0
H3542 H 0.29498 0.88359 0.29301 0.0
H3543 H 0.27908 0.8513 0.28836 0.0
H3544 H 0.53286 0.33543 0.57146 0.0
H3545 H 0.53046 0.36397 0.55975 0.0
H3546 H 0.57853 0.39278 0.59595 0.0
H3547 H 0.58087 0.36438 0.60785 0.0
H3548 H 0.52729 0.39776 0.58118 0.0
H3549 H 0.58914 0.40898 0.54483 0.0
H3550 H 0.57831 0.38695 0.55071 0.0
H3551 H 0.59225 0.40401 0.56799 0.0
C3552 C 0.54304 0.34779 0.57683 0.0
C3553 C 0.55713 0.34743 0.59059 0.0
C3554 C 0.54161 0.36419 0.57014 0.0
C3555 C 0.5544 0.38071 0.57675 0.0
C3556 C 0.56859 0.38033 0.59035 0.0
H3557 H 0.56951 0.49358 0.5499 0.0
H3558 H 0.57333 0.46518 0.56097 0.0
C3559 C 0.56988 0.364 0.59721 0.0
C3560 C 0.55256 0.39835 0.56992 0.0
H3561 H 0.57346 0.43246 0.54653 0.0
C3562 C 0.53736 0.40528 0.57353 0.0
C3563 C 0.56576 0.40849 0.56013 0.0
C3564 C 0.58226 0.40176 0.55552 0.0
C3565 C 0.53513 0.42197 0.56795 0.0
C3566 C 0.5481 0.43197 0.55773 0.0
C3567 C 0.56338 0.42503 0.55422 0.0
C3568 C 0.54597 0.44945 0.5505 0.0
C3569 C 0.51913 0.42897 0.57376 0.0
C3570 C 0.52953 0.45039 0.5404 0.0
C3571 C 0.52725 0.46672 0.53426 0.0
C3572 C 0.54146 0.48273 0.53758 0.0
C3573 C 0.55819 0.48166 0.54705 0.0
C3574 C 0.56039 0.46531 0.55343 0.0
H3575 H 0.51453 0.42348 0.58633 0.0
H3576 H 0.52261 0.44403 0.57641 0.0
H3577 H 0.50745 0.42446 0.56277 0.0
H3578 H 0.51833 0.43841 0.53717 0.0
H3579 H 0.51423 0.46676 0.52683 0.0
H3580 H 0.46138 0.76274 0.38067 0.0
H3581 H 0.43271 0.76416 0.36318 0.0
H3582 H 0.40989 0.77391 0.41342 0.0
H3583 H 0.43862 0.77257 0.43103 0.0
H3584 H 0.39656 0.74308 0.3631 0.0
H3585 H 0.40154 0.81602 0.38565 0.0
H3586 H 0.42081 0.8059 0.38879 0.0
H3587 H 0.40326 0.80222 0.40371 0.0
C3588 C 0.45026 0.76514 0.38804 0.0
C3589 C 0.45238 0.76759 0.4073 0.0
C3590 C 0.43383 0.76595 0.37799 0.0
C3591 C 0.41914 0.76941 0.38691 0.0
C3592 C 0.42109 0.77155 0.40616 0.0
H3593 H 0.31262 0.78646 0.34343 0.0
H3594 H 0.3389 0.78284 0.36348 0.0
C3595 C 0.43751 0.77065 0.41623 0.0
C3596 C 0.40183 0.77067 0.376 0.0
H3597 H 0.37472 0.7998 0.36674 0.0
C3598 C 0.39179 0.75549 0.36391 0.0
C3599 C 0.39545 0.7868 0.37708 0.0
C3600 C 0.40585 0.80374 0.38938 0.0
C3601 C 0.37562 0.75595 0.353 0.0
C3602 C 0.36944 0.77222 0.35375 0.0
C3603 C 0.37935 0.78732 0.36606 0.0
C3604 C 0.35312 0.77402 0.34151 0.0
C3605 C 0.36513 0.73882 0.34104 0.0
C3606 C 0.35225 0.77049 0.32239 0.0
C3607 C 0.33717 0.77242 0.31089 0.0
C3608 C 0.32256 0.77819 0.31813 0.0
C3609 C 0.32351 0.78191 0.33729 0.0
C3610 C 0.3386 0.77988 0.34881 0.0
H3611 H 0.36803 0.72652 0.34634 0.0
H3612 H 0.35015 0.73764 0.34002 0.0
H3613 H 0.36936 0.73905 0.32709 0.0
H3614 H 0.36342 0.76647 0.31628 0.0
H3615 H 0.33713 0.76961 0.29624 0.0
H3616 H 0.07117 0.7507 0.07068 0.0
H3617 H 0.06871 0.71862 0.05935 0.0
H3618 H 0.02998 0.70205 0.09717 0.0
H3619 H 0.03229 0.73391 0.1084 0.0
H3620 H 0.07639 0.6905 0.07782 0.0
H3621 H 1.00319 0.6725 0.04966 0.0
H3622 H 0.01608 0.69576 0.05576 0.0
H3623 H 0.00722 0.68252 0.07314 0.0
C3624 C 0.06198 0.74023 0.07645 0.0
C3625 C 0.05183 0.74502 0.09039 0.0
C3626 C 0.06063 0.72183 0.06999 0.0
C3627 C 0.04893 0.7077 0.07713 0.0
C3628 C 0.03881 0.71252 0.09106 0.0
H3629 H 0.01994 0.58871 0.06211 0.0
H3630 H 0.02326 0.62117 0.07132 0.0
C3631 C 0.04022 0.73085 0.09756 0.0
C3632 C 0.04763 0.68798 0.0705 0.0
H3633 H 0.0173 0.64787 0.05246 0.0
C3634 C 0.06348 0.68124 0.07213 0.0
C3635 C 0.03082 0.67567 0.06311 0.0
C3636 C 0.01338 0.68197 0.06013 0.0
C3637 C 0.0629 0.66265 0.06714 0.0
C3638 C 0.04605 0.6503 0.05984 0.0
C3639 C 0.03025 0.65712 0.05805 0.0
C3640 C 0.0444 0.63029 0.05425 0.0
C3641 C 0.08031 0.65635 0.07039 0.0
C3642 C 0.05501 0.62421 0.04138 0.0
C3643 C 0.05319 0.60551 0.03612 0.0
C3644 C 0.04059 0.59224 0.04343 0.0
C3645 C 0.02988 0.59837 0.05619 0.0
C3646 C 0.03173 0.61705 0.06146 0.0
H3647 H 0.0905 0.66596 0.08074 0.0
H3648 H 0.07757 0.6427 0.07506 0.0
H3649 H 0.08652 0.65553 0.05742 0.0
H3650 H 0.06455 0.63395 0.03514 0.0
H3651 H 0.06157 0.60147 0.02613 0.0
H3652 H 0.03161 0.26381 0.87999 0.0
H3653 H 0.05724 0.26584 0.86174 0.0
H3654 H 0.09532 0.28573 0.91053 0.0
H3655 H 0.0697 0.28375 0.92891 0.0
H3656 H 0.10295 0.30607 0.88082 0.0
H3657 H 0.09292 0.23219 0.85938 0.0
H3658 H 0.07284 0.24067 0.85502 0.0
H3659 H 0.08252 0.24099 0.87819 0.0
C3660 C 0.04544 0.26855 0.88687 0.0
C3661 C 0.04858 0.27355 0.90595 0.0
C3662 C 0.0601 0.26961 0.87641 0.0
C3663 C 0.07827 0.27571 0.88475 0.0
C3664 C 0.08145 0.28088 0.90377 0.0
H3665 H 0.17781 0.26973 0.83489 0.0
H3666 H 0.15307 0.26661 0.85434 0.0
C3667 C 0.06678 0.27972 0.91427 0.0
C3668 C 0.09388 0.2771 0.87356 0.0
H3669 H 0.11433 0.25211 0.84467 0.0
C3670 C 0.10547 0.29426 0.87297 0.0
C3671 C 0.09733 0.26168 0.86344 0.0
C3672 C 0.08587 0.2428 0.86411 0.0
C3673 C 0.12009 0.29647 0.86225 0.0
C3674 C 0.12319 0.28113 0.85169 0.0
C3675 C 0.11188 0.2639 0.85261 0.0
C3676 C 0.13806 0.28273 0.83956 0.0
C3677 C 0.13223 0.31521 0.86244 0.0
C3678 C 0.13775 0.29254 0.82453 0.0
C3679 C 0.15177 0.29419 0.81322 0.0
C3680 C 0.16655 0.28608 0.81665 0.0
C3681 C 0.16664 0.27602 0.83161 0.0
C3682 C 0.15253 0.2743 0.84286 0.0
H3683 H 0.13083 0.32467 0.87437 0.0
H3684 H 0.14681 0.31468 0.86275 0.0
H3685 H 0.12834 0.32082 0.84981 0.0
H3686 H 0.12655 0.29886 0.82145 0.0
H3687 H 0.15089 0.30169 0.80165 0.0
H3688 H 0.52891 0.74207 0.8669 0.0
H3689 H 0.52649 0.71659 0.88504 0.0
H3690 H 0.54529 0.75432 0.93424 0.0
H3691 H 0.54758 0.77982 0.91625 0.0
H3692 H 0.55329 0.70691 0.90829 0.0
H3693 H 0.49801 0.72218 0.94691 0.0
H3694 H 0.50391 0.73237 0.92664 0.0
H3695 H 0.51765 0.7409 0.94827 0.0
C3696 C 0.53251 0.74495 0.88159 0.0
C3697 C 0.53835 0.76301 0.89012 0.0
C3698 C 0.53113 0.73035 0.89195 0.0
C3699 C 0.53542 0.73349 0.91107 0.0
C3700 C 0.54153 0.75151 0.91957 0.0
H3701 H 0.53449 0.66546 -0.0011 0.0
H3702 H 0.53764 0.69037 0.98013 0.0
C3703 C 0.54294 0.7661 0.90924 0.0
C3704 C 0.53367 0.71794 0.9221 0.0
H3705 H 0.512 0.69935 0.9567 0.0
C3706 C 0.54419 0.7052 0.91881 0.0
C3707 C 0.52182 0.71568 0.93587 0.0
C3708 C 0.50957 0.72839 0.93957 0.0
C3709 C 0.5435 0.69057 0.92915 0.0
C3710 C 0.53167 0.68833 0.94296 0.0
C3711 C 0.5211 0.70104 0.94618 0.0
C3712 C 0.53006 0.67298 0.95427 0.0
C3713 C 0.55586 0.67794 0.92552 0.0
C3714 C 0.52459 0.6548 0.94608 0.0
C3715 C 0.52274 0.64048 0.95681 0.0
C3716 C 0.52615 0.64396 0.97604 0.0
C3717 C 0.53155 0.6622 0.98419 0.0
C3718 C 0.53344 0.6765 0.97344 0.0
H3719 H 0.56752 0.68431 0.91839 0.0
H3720 H 0.56136 0.67383 0.93844 0.0
H3721 H 0.54791 0.66551 0.91661 0.0
H3722 H 0.52143 0.65166 0.93137 0.0
H3723 H 0.51822 0.62666 0.95003 0.0
H3724 H 0.06108 0.74588 0.72199 0.0
H3725 H 0.0932 0.74802 0.73359 0.0
H3726 H 0.11102 0.7797 0.69076 0.0
H3727 H 0.07916 0.77766 0.6792 0.0
H3728 H 0.12088 0.73641 0.7153 0.0
H3729 H 0.14126 0.81076 0.73666 0.0
H3730 H 0.11761 0.79827 0.732 0.0
H3731 H 0.13058 0.80446 0.71348 0.0
C3732 C 0.07185 0.75344 0.71515 0.0
C3733 C 0.06745 0.76169 0.69971 0.0
C3734 C 0.09024 0.7546 0.72176 0.0
C3735 C 0.10469 0.76425 0.71325 0.0
C3736 C 0.10027 0.77248 0.69785 0.0
H3737 H 0.22398 0.78977 0.72621 0.0
H3738 H 0.19138 0.78668 0.71716 0.0
C3739 C 0.08195 0.77122 0.69118 0.0
C3740 C 0.12434 0.76537 0.72006 0.0
H3741 H 0.16533 0.7955 0.73568 0.0
C3742 C 0.13056 0.74932 0.71991 0.0
C3743 C 0.13713 0.7822 0.72602 0.0
C3744 C 0.13133 0.79991 0.72724 0.0
C3745 C 0.14915 0.74966 0.72497 0.0
C3746 C 0.16199 0.76652 0.73083 0.0
C3747 C 0.15568 0.78255 0.73118 0.0
C3748 C 0.18202 0.76795 0.7363 0.0
C3749 C 0.15494 0.73195 0.72329 0.0
C3750 C 0.18796 0.75859 0.75024 0.0
C3751 C 0.20673 0.76024 0.75539 0.0
C3752 C 0.22016 0.77145 0.74689 0.0
C3753 C 0.21417 0.78092 0.73305 0.0
C3754 C 0.19542 0.77921 0.72787 0.0
H3755 H 0.14495 0.72125 0.71377 0.0
H3756 H 0.16859 0.73366 0.71838 0.0
H3757 H 0.15575 0.72711 0.73691 0.0
H3758 H 0.17808 0.7502 0.75738 0.0
H3759 H 0.21071 0.75288 0.76622 0.0
H3760 H 0.03568 0.37063 0.36962 0.0
H3761 H 0.03449 0.39902 0.38787 0.0
H3762 H 0.05214 0.37865 0.43693 0.0
H3763 H 0.05336 0.35029 0.4188 0.0
H3764 H 0.01315 0.40322 0.41717 0.0
H3765 H 0.08733 0.42933 0.44047 0.0
H3766 H 0.07868 0.41169 0.42142 0.0
H3767 H 0.07797 0.40637 0.44448 0.0
C3768 C 0.03947 0.37225 0.38427 0.0
C3769 C 0.04471 0.35818 0.39271 0.0
C3770 C 0.03874 0.38849 0.39471 0.0
C3771 C 0.04344 0.39114 0.41379 0.0
C3772 C 0.04876 0.37713 0.42222 0.0
H3773 H 0.04648 0.47577 0.50329 0.0
H3774 H 0.04914 0.44901 0.48349 0.0
C3775 C 0.04938 0.36086 0.41182 0.0
C3776 C 0.04216 0.40822 0.42496 0.0
H3777 H 0.06728 0.44478 0.45451 0.0
C3778 C 0.02501 0.41238 0.42523 0.0
C3779 C 0.05759 0.42017 0.43559 0.0
C3780 C 0.07648 0.41681 0.43542 0.0
C3781 C 0.02278 0.42782 0.43616 0.0
C3782 C 0.03822 0.43981 0.44682 0.0
C3783 C 0.05541 0.43569 0.44641 0.0
C3784 C 0.03682 0.45647 0.45874 0.0
C3785 C 0.00374 0.43073 0.43666 0.0
C3786 C 0.02932 0.46992 0.45151 0.0
C3787 C 0.02766 0.48524 0.46287 0.0
C3788 C 0.03369 0.48766 0.48175 0.0
C3789 C 0.04165 0.47443 0.48886 0.0
C3790 C 0.04319 0.45906 0.47752 0.0
H3791 H 0.99309 0.41793 0.43219 0.0
H3792 H 1.00173 0.43618 0.45061 0.0
H3793 H 1.00162 0.44066 0.42719 0.0
H3794 H 0.02477 0.46861 0.43702 0.0
H3795 H 0.02164 0.4952 0.45682 0.0
H3796 H 0.44647 0.2403 0.17799 0.0
H3797 H 0.41853 0.2433 0.19108 0.0
H3798 H 0.45114 0.27791 0.23779 0.0
H3799 H 0.47916 0.27507 0.22465 0.0
H3800 H 0.40521 0.23435 0.22316 0.0
H3801 H 0.41644 0.30876 0.22272 0.0
H3802 H 0.42966 0.29554 0.21064 0.0
H3803 H 0.43493 0.30203 0.23494 0.0
C3804 C 0.44775 0.24855 0.19107 0.0
C3805 C 0.46521 0.25748 0.20017 0.0
C3806 C 0.43167 0.25026 0.19858 0.0
C3807 C 0.43247 0.26111 0.21536 0.0
C3808 C 0.44992 0.26979 0.22465 0.0
H3809 H 0.34746 0.29078 0.27841 0.0
H3810 H 0.37627 0.28699 0.2677 0.0
C3811 C 0.46603 0.26802 0.21717 0.0
C3812 C 0.41509 0.26314 0.22309 0.0
H3813 H 0.39133 0.29443 0.23712 0.0
C3814 C 0.40221 0.24751 0.22616 0.0
C3815 C 0.41094 0.28027 0.22717 0.0
C3816 C 0.42361 0.29761 0.22357 0.0
C3817 C 0.38568 0.24851 0.23331 0.0
C3818 C 0.38142 0.26563 0.23719 0.0
C3819 C 0.39437 0.28127 0.23424 0.0
C3820 C 0.3636 0.26759 0.24403 0.0
C3821 C 0.37317 0.23115 0.23707 0.0
C3822 C 0.34655 0.25815 0.23439 0.0
C3823 C 0.32999 0.26022 0.24058 0.0
C3824 C 0.32982 0.27198 0.25655 0.0
C3825 C 0.34688 0.28152 0.26614 0.0
C3826 C 0.36347 0.2794 0.25995 0.0
H3827 H 0.38075 0.22047 0.23906 0.0
H3828 H 0.36629 0.23341 0.24942 0.0
H3829 H 0.36251 0.22592 0.22519 0.0
H3830 H 0.346 0.24934 0.22181 0.0
H3831 H 0.31726 0.25274 0.23262 0.0
H3832 H 0.60491 0.56488 0.33784 0.0
H3833 H 0.59451 0.56201 0.36805 0.0
H3834 H 0.57663 0.50392 0.35394 0.0
H3835 H 0.58683 0.50668 0.32359 0.0
H3836 H 0.55707 0.54368 0.37684 0.0
H3837 H 0.6134 0.51369 0.40317 0.0
H3838 H 0.61501 0.52664 0.38399 0.0
H3839 H 0.60114 0.50382 0.38109 0.0
C3840 C 0.59863 0.5515 0.3411 0.0
C3841 C 0.5967 0.53601 0.32829 0.0
C3842 C 0.59271 0.54988 0.35838 0.0
C3843 C 0.58496 0.53274 0.36333 0.0
C3844 C 0.58272 0.51727 0.35047 0.0
H3845 H 0.52853 0.50695 0.45875 0.0
H3846 H 0.53792 0.50753 0.42797 0.0
C3847 C 0.58847 0.51889 0.3331 0.0
C3848 C 0.57943 0.53108 0.382 0.0
H3849 H 0.59104 0.51663 0.42277 0.0
C3850 C 0.56444 0.53771 0.38687 0.0
C3851 C 0.58918 0.52344 0.39513 0.0
C3852 C 0.60567 0.51656 0.39075 0.0
C3853 C 0.55884 0.53675 0.40444 0.0
C3854 C 0.56848 0.52895 0.41751 0.0
C3855 C 0.58359 0.52249 0.41271 0.0
C3856 C 0.56327 0.52782 0.43636 0.0
C3857 C 0.54284 0.54435 0.40905 0.0
C3858 C 0.57461 0.5387 0.45141 0.0
C3859 C 0.56926 0.53846 0.46904 0.0
C3860 C 0.55254 0.52715 0.47205 0.0
C3861 C 0.54151 0.5158 0.457 0.0
C3862 C 0.5468 0.51618 0.43935 0.0
H3863 H 0.53883 0.55265 0.39859 0.0
H3864 H 0.5309 0.53298 0.40986 0.0
H3865 H 0.54614 0.55288 0.42257 0.0
H3866 H 0.58741 0.54773 0.44944 0.0
H3867 H 0.57813 0.54735 0.48028 0.0
H3868 H 0.24725 0.83703 0.02617 0.0
H3869 H 0.24786 0.81431 0.04725 0.0
H3870 H 0.28353 0.8554 0.08733 0.0
H3871 H 0.28351 0.87791 0.06614 0.0
H3872 H 0.29584 0.82503 0.08272 0.0
H3873 H 0.22204 0.80737 0.09236 0.0
H3874 H 0.22697 0.80432 0.06914 0.0
H3875 H 0.23211 0.82678 0.08152 0.0
C3876 C 0.25509 0.84119 0.03955 0.0
C3877 C 0.26533 0.85919 0.04459 0.0
C3878 C 0.25535 0.82824 0.05158 0.0
C3879 C 0.26559 0.83322 0.06891 0.0
C3880 C 0.27557 0.85127 0.074 0.0
H3881 H 0.26524 0.79916 0.17168 0.0
H3882 H 0.25824 0.80821 0.14176 0.0
C3883 C 0.27552 0.86412 0.06192 0.0
C3884 C 0.26654 0.81974 0.08175 0.0
H3885 H 0.24129 0.79272 0.10875 0.0
C3886 C 0.28391 0.81779 0.08831 0.0
C3887 C 0.25091 0.81032 0.08889 0.0
C3888 C 0.23195 0.81235 0.08276 0.0
C3889 C 0.28626 0.80763 0.10269 0.0
C3890 C 0.27066 0.79856 0.1102 0.0
C3891 C 0.25317 0.7996 0.10285 0.0
C3892 C 0.27245 0.79048 0.12742 0.0
C3893 C 0.30551 0.80784 0.11049 0.0
C3894 C 0.28217 0.77697 0.12919 0.0
C3895 C 0.28647 0.77199 0.14642 0.0
C3896 C 0.28066 0.78011 0.16197 0.0
C3897 C 0.26976 0.79258 0.1599 0.0
C3898 C 0.26575 0.79776 0.1428 0.0
H3899 H 0.31592 0.81843 0.10546 0.0
H3900 H 0.30715 0.81034 0.12567 0.0
H3901 H 0.30841 0.79447 0.10637 0.0
H3902 H 0.28705 0.77084 0.1174 0.0
H3903 H 0.29474 0.7622 0.1477 0.0
H3904 H 0.96307 0.54813 0.82753 0.0
H3905 H 0.98202 0.55282 0.85708 0.0
H3906 H 0.94308 0.5777 0.88227 0.0
H3907 H 0.92387 0.57276 0.85286 0.0
H3908 H 0.99794 0.58297 0.88568 0.0
H3909 H 0.94174 0.53042 0.90593 0.0
H3910 H 0.94305 0.53478 0.88254 0.0
H3911 H 0.93497 0.54981 0.89832 0.0
C3912 C 0.95876 0.55498 0.83928 0.0
C3913 C 0.94185 0.55978 0.83802 0.0
C3914 C 0.96962 0.55769 0.85612 0.0
C3915 C 0.96372 0.56528 0.87183 0.0
C3916 C 0.94767 0.57157 0.87028 0.0
H3917 H 0.99363 0.56315 0.9867 0.0
H3918 H 0.98159 0.57045 0.95745 0.0
C3919 C 0.93675 0.56875 0.85349 0.0
C3920 C 0.97301 0.56444 0.89004 0.0
H3921 H 0.96677 0.54347 0.92828 0.0
C3922 C 0.99116 0.57442 0.89507 0.0
C3923 C 0.96413 0.55306 0.90207 0.0
C3924 C 0.94496 0.54127 0.89695 0.0
C3925 C 1.00059 0.57353 0.9121 0.0
C3926 C 0.99163 0.5622 0.92413 0.0
C3927 C 0.97351 0.55225 0.91904 0.0
C3928 C 1.00071 0.56001 0.94201 0.0
C3929 C 0.01992 0.58481 0.91719 0.0
C3930 C 0.01557 0.55185 0.94298 0.0
C3931 C 0.02251 0.54761 0.95972 0.0
C3932 C 0.01455 0.55131 0.97567 0.0
C3933 C 1.00001 0.55998 0.97467 0.0
C3934 C 0.99314 0.56425 0.95799 0.0
H3935 H 0.02319 0.59597 0.90858 0.0
H3936 H 0.02219 0.59075 0.93179 0.0
H3937 H 0.02959 0.576 0.91515 0.0
H3938 H 0.02133 0.54814 0.93071 0.0
H3939 H 0.03371 0.54093 0.96004 0.0
H3940 H 0.29415 0.20013 0.57853 0.0
H3941 H 0.2921 0.21418 0.60923 0.0
H3942 H 0.25849 0.24698 0.58621 0.0
H3943 H 0.2604 0.23284 0.55532 0.0
H3944 H 0.30265 0.25102 0.62437 0.0
H3945 H 0.22796 0.22299 0.62439 0.0
H3946 H 0.24084 0.21419 0.60779 0.0
H3947 H 0.23456 0.23529 0.60565 0.0
C3948 C 0.28635 0.21037 0.57995 0.0
C3949 C 0.27741 0.21532 0.56442 0.0
C3950 C 0.28519 0.2184 0.59755 0.0
C3951 C 0.27493 0.23147 0.60013 0.0
C3952 C 0.26622 0.23669 0.58464 0.0
H3953 H 0.25433 0.28424 0.70611 0.0
H3954 H 0.25435 0.27602 0.67306 0.0
C3955 C 0.26744 0.2287 0.56697 0.0
C3956 C 0.2736 0.23959 0.61907 0.0
H3957 H 0.24384 0.24179 0.65094 0.0
C3958 C 0.28976 0.24908 0.63012 0.0
C3959 C 0.25678 0.23721 0.62662 0.0
C3960 C 0.23902 0.22677 0.61561 0.0
C3961 C 0.28963 0.25599 0.64847 0.0
C3962 C 0.27292 0.25302 0.65624 0.0
C3963 C 0.25665 0.24406 0.64504 0.0
C3964 C 0.27236 0.25791 0.67623 0.0
C3965 C 0.30746 0.26641 0.65939 0.0
C3966 C 0.28209 0.25018 0.68903 0.0
C3967 C 0.2821 0.25481 0.70779 0.0
C3968 C 0.27225 0.26724 0.71441 0.0
C3969 C 0.26211 0.27468 0.70157 0.0
C3970 C 0.26211 0.26999 0.68266 0.0
H3971 H 0.31753 0.27241 0.65035 0.0
H3972 H 0.30535 0.27748 0.6693 0.0
H3973 H 0.31345 0.25701 0.66713 0.0
H3974 H 0.28974 0.2405 0.68449 0.0
H3975 H 0.28998 0.24862 0.71712 0.0
H3976 H 0.57183 0.54955 0.23512 0.0
H3977 H 0.55789 0.55003 0.20385 0.0
H3978 H 0.59768 0.52393 0.18214 0.0
H3979 H 0.61158 0.52338 0.21316 0.0
H3980 H 0.57518 0.56667 0.17475 0.0
H3981 H 0.54848 0.49239 0.15595 0.0
H3982 H 0.55505 0.50278 0.17939 0.0
H3983 H 0.57219 0.49886 0.16522 0.0
C3984 C 0.57747 0.54375 0.22368 0.0
C3985 C 0.59276 0.53633 0.22666 0.0
C3986 C 0.56954 0.5441 0.20581 0.0
C3987 C 0.57658 0.53682 0.19061 0.0
C3988 C 0.59178 0.52934 0.19361 0.0
H3989 H 0.56428 0.52406 0.07384 0.0
H3990 H 0.57194 0.52484 0.10661 0.0
C3991 C 0.59976 0.5291 0.21139 0.0
C3992 C 0.56856 0.53744 0.17156 0.0
H3993 H 0.55014 0.51045 0.13138 0.0
C3994 C 0.56947 0.5544 0.16531 0.0
C3995 C 0.56108 0.52143 0.15923 0.0
C3996 C 0.55895 0.50282 0.16529 0.0
C3997 C 0.56395 0.55575 0.14687 0.0
C3998 C 0.557 0.53971 0.1344 0.0
C3999 C 0.55553 0.52277 0.14086 0.0
C4000 C 0.55234 0.54004 0.11438 0.0
C4001 C 0.56641 0.57435 0.14073 0.0
C4002 C 0.5387 0.54836 0.10764 0.0
C4003 C 0.53428 0.54802 0.0887 0.0
C4004 C 0.54331 0.53922 0.07612 0.0
C4005 C 0.55697 0.53098 0.083 0.0
C4006 C 0.56139 0.53137 0.10183 0.0
H4007 H 0.57564 0.58504 0.15091 0.0
H4008 H 0.57209 0.57462 0.12743 0.0
H4009 H 0.55291 0.57776 0.13891 0.0
H4010 H 0.53125 0.55484 0.117 0.0
H4011 H 0.52361 0.55439 0.08393 0.0
H4012 H 0.24114 0.88704 0.94349 0.0
H4013 H 0.23618 0.87134 0.91214 0.0
H4014 H 0.26378 0.83143 0.93021 0.0
H4015 H 0.26871 0.84692 0.96142 0.0
H4016 H 0.26528 0.86615 0.89253 0.0
H4017 H 0.21764 0.80038 0.89814 0.0
H4018 H 0.22063 0.82023 0.91477 0.0
H4019 H 0.23696 0.80639 0.91553 0.0
C4020 C 0.24589 0.87476 0.94079 0.0
C4021 C 0.25535 0.86821 0.95483 0.0
C4022 C 0.24303 0.86582 0.92293 0.0
C4023 C 0.24937 0.85011 0.91898 0.0
C4024 C 0.25842 0.84332 0.93308 0.0
H4025 H 0.27436 0.7836 0.83048 0.0
H4026 H 0.26763 0.79756 0.85947 0.0
C4027 C 0.26137 0.85227 0.95086 0.0
C4028 C 0.24836 0.84178 0.89991 0.0
H4029 H 0.2345 0.80137 0.87217 0.0
C4030 C 0.25827 0.85209 0.88791 0.0
C4031 C 0.23929 0.82343 0.89408 0.0
C4032 C 0.22788 0.81199 0.90625 0.0
C4033 C 0.26017 0.84424 0.87047 0.0
C4034 C 0.25157 0.8257 0.86482 0.0
C4035 C 0.2411 0.81556 0.87659 0.0
C4036 C 0.25418 0.81638 0.84714 0.0
C4037 C 0.27213 0.8556 0.85862 0.0
C4038 C 0.24845 0.82209 0.83066 0.0
C4039 C 0.2524 0.81427 0.81411 0.0
C4040 C 0.26199 0.80047 0.81379 0.0
C4041 C 0.26702 0.79425 0.83028 0.0
C4042 C 0.26316 0.80217 0.84684 0.0
H4043 H 0.28093 0.86825 0.86655 0.0
H4044 H 0.28105 0.84778 0.85203 0.0
H4045 H 0.26334 0.85954 0.84766 0.0
H4046 H 0.24118 0.83279 0.83061 0.0
H4047 H 0.24812 0.81922 0.80161 0.0
H4048 H 0.94069 0.54615 0.74315 0.0
H4049 H 0.95271 0.5354 0.71563 0.0
H4050 H 0.92218 0.48069 0.71838 0.0
H4051 H 0.91022 0.49128 0.746 0.0
H4052 H 0.95901 0.48355 0.71245 0.0
H4053 H 0.9236 0.51925 0.66439 0.0
H4054 H 0.93633 0.53389 0.68416 0.0
H4055 H 0.917 0.51599 0.68687 0.0
C4056 C 0.93651 0.53184 0.73786 0.0
C4057 C 0.92448 0.51955 0.74663 0.0
C4058 C 0.9433 0.52575 0.72212 0.0
C4059 C 0.93808 0.50732 0.71489 0.0
C4060 C 0.92625 0.49498 0.72374 0.0
H4061 H 0.96535 0.47513 0.60642 0.0
H4062 H 0.9484 0.4757 0.633 0.0
C4063 C 0.91945 0.50106 0.73947 0.0
C4064 C 0.94528 0.50092 0.69825 0.0
H4065 H 0.94802 0.50759 0.65369 0.0
C4066 C 0.95646 0.48861 0.69952 0.0
C4067 C 0.9416 0.50729 0.68137 0.0
C4068 C 0.92883 0.51969 0.67901 0.0
C4069 C 0.96484 0.48321 0.68449 0.0
C4070 C 0.96208 0.4905 0.66794 0.0
C4071 C 0.95018 0.50211 0.66645 0.0
C4072 C 0.97243 0.48752 0.65243 0.0
C4073 C 0.97669 0.4699 0.6865 0.0
C4074 C 0.99155 0.49372 0.65466 0.0
C4075 C 1.00123 0.49349 0.63954 0.0
C4076 C 0.99193 0.48717 0.62191 0.0
C4077 C 0.97285 0.48025 0.61982 0.0
C4078 C 0.96317 0.48048 0.63497 0.0
H4079 H 0.97281 0.46139 0.6975 0.0
H4080 H 0.97571 0.46085 0.67351 0.0
H4081 H 0.99116 0.47752 0.69022 0.0
H4082 H 0.9989 0.49962 0.66796 0.0
H4083 H 0.01588 0.49919 0.64155 0.0
H4084 H 0.29391 0.23461 0.47208 0.0
H4085 H 0.2953 0.24537 0.44193 0.0
H4086 H 0.26914 0.1912 0.41593 0.0
H4087 H 0.26734 0.18052 0.44587 0.0
H4088 H 0.31208 0.23567 0.41264 0.0
H4089 H 0.23727 0.22001 0.39188 0.0
H4090 H 0.24691 0.21977 0.41506 0.0
H4091 H 0.24507 0.20064 0.39799 0.0
C4092 C 0.28837 0.22503 0.45993 0.0
C4093 C 0.28037 0.20674 0.46143 0.0
C4094 C 0.2892 0.23118 0.44268 0.0
C4095 C 0.282 0.2192 0.42657 0.0
C4096 C 0.27434 0.20086 0.42808 0.0
H4097 H 0.27516 0.23095 0.30937 0.0
H4098 H 0.27551 0.21886 0.3389 0.0
C4099 C 0.27344 0.19474 0.44527 0.0
C4100 C 0.28278 0.22572 0.40818 0.0
H4101 H 0.25631 0.22798 0.36873 0.0
C4102 C 0.29986 0.23406 0.40309 0.0
C4103 C 0.26687 0.22361 0.3956 0.0
C4104 C 0.24798 0.21569 0.40044 0.0
C4105 C 0.30148 0.24008 0.3858 0.0
C4106 C 0.28558 0.23792 0.37323 0.0
C4107 C 0.26852 0.22951 0.37826 0.0
C4108 C 0.28625 0.24506 0.35518 0.0
C4109 C 0.32026 0.24846 0.381 0.0
C4110 C 0.29212 0.26379 0.35443 0.0
C4111 C 0.29188 0.27073 0.33763 0.0
C4112 C 0.28573 0.25913 0.32106 0.0
C4113 C 0.28009 0.2403 0.32179 0.0
C4114 C 0.28022 0.23336 0.33869 0.0
H4115 H 0.3312 0.24476 0.38984 0.0
H4116 H 0.32149 0.24415 0.36648 0.0
H4117 H 0.32259 0.26348 0.383 0.0
H4118 H 0.29653 0.27315 0.36692 0.0
H4119 H 0.29629 0.2853 0.33769 0.0
H4120 H 0.32306 0.62655 0.49861 0.0
H4121 H 0.33806 0.60389 0.48534 0.0
H4122 H 0.33237 0.57643 0.53342 0.0
H4123 H 0.31702 0.59876 0.54657 0.0
H4124 H 0.36957 0.59675 0.49896 0.0
H4125 H 0.31383 0.53443 0.49296 0.0
H4126 H 0.30987 0.55693 0.49681 0.0
H4127 H 0.31802 0.5465 0.51563 0.0
C4128 C 0.32497 0.61564 0.50631 0.0
C4129 C 0.3189 0.61438 0.52361 0.0
C4130 C 0.33342 0.60267 0.49867 0.0
C4131 C 0.33589 0.58826 0.50821 0.0
C4132 C 0.33005 0.58712 0.52559 0.0
H4133 H 0.4031 0.51654 0.51739 0.0
H4134 H 0.37809 0.53197 0.51714 0.0
C4135 C 0.32151 0.60001 0.53319 0.0
C4136 C 0.34597 0.57526 0.50076 0.0
H4137 H 0.34453 0.53001 0.49303 0.0
C4138 C 0.36398 0.58216 0.49724 0.0
C4139 C 0.33857 0.55625 0.49849 0.0
C4140 C 0.31894 0.5481 0.50099 0.0
C4141 C 0.37523 0.57055 0.4927 0.0
C4142 C 0.36813 0.55155 0.49141 0.0
C4143 C 0.34985 0.5446 0.49403 0.0
C4144 C 0.38026 0.539 0.4897 0.0
C4145 C 0.39496 0.57871 0.49046 0.0
C4146 C 0.38908 0.53717 0.47402 0.0
C4147 C 0.40347 0.52848 0.47419 0.0
C4148 C 0.40912 0.52155 0.49004 0.0
C4149 C 0.39918 0.52205 0.50512 0.0
C4150 C 0.38484 0.53072 0.50494 0.0
H4151 H 0.39892 0.59366 0.49454 0.0
H4152 H 0.40424 0.57244 0.49878 0.0
H4153 H 0.3971 0.576 0.47591 0.0
H4154 H 0.38555 0.54336 0.46209 0.0
H4155 H 0.41093 0.5283 0.46239 0.0
H4156 H 0.82581 0.93407 0.52209 0.0
H4157 H 0.85606 0.95414 0.52165 0.0
H4158 H 0.88132 0.91578 0.5466 0.0
H4159 H 0.85111 0.89551 0.54684 0.0
H4160 H 0.88315 0.97038 0.55057 0.0
H4161 H 0.90827 0.92422 0.50171 0.0
H4162 H 0.88444 0.92071 0.5051 0.0
H4163 H 0.90024 0.91417 0.52124 0.0
C4164 C 0.83781 0.92988 0.52743 0.0
C4165 C 0.83609 0.91315 0.5344 0.0
C4166 C 0.85508 0.94138 0.5272 0.0
C4167 C 0.87096 0.93635 0.53384 0.0
C4168 C 0.86927 0.91977 0.54105 0.0
H4169 H 0.98722 0.98463 0.5436 0.0
H4170 H 0.95666 0.96623 0.54563 0.0
C4171 C 0.852 0.90825 0.54127 0.0
C4172 C 0.88926 0.94853 0.53337 0.0
H4173 H 0.93 0.95063 0.51626 0.0
C4174 C 0.89338 0.96611 0.54301 0.0
C4175 C 0.90256 0.94294 0.52346 0.0
C4176 C 0.89865 0.92455 0.51214 0.0
C4177 C 0.9106 0.97811 0.54334 0.0
C4178 C 0.92394 0.97245 0.53353 0.0
C4179 C 0.91978 0.95491 0.52382 0.0
C4180 C 0.9424 0.98439 0.53324 0.0
C4181 C 0.91453 0.99656 0.55452 0.0
C4182 C 0.94456 0.0008 0.52564 0.0
C4183 C 0.96208 0.01143 0.52447 0.0
C4184 C 0.97776 0.00578 0.53078 0.0
C4185 C 0.97549 0.98945 0.53861 0.0
C4186 C 0.95801 0.97886 0.53977 0.0
H4187 H 0.9047 0.9971 0.5647 0.0
H4188 H 0.92864 0.00024 0.56183 0.0
H4189 H 0.91336 0.00692 0.54527 0.0
H4190 H 0.93271 0.00517 0.52021 0.0
H4191 H 0.96331 0.02386 0.51827 0.0
H4192 H 0.88404 0.05284 0.24112 0.0
H4193 H 0.8673 0.07671 0.24033 0.0
H4194 H 0.91232 0.11425 0.27439 0.0
H4195 H 0.92929 0.09041 0.27509 0.0
H4196 H 0.85669 0.09588 0.27014 0.0
H4197 H 0.90228 0.14253 0.23169 0.0
H4198 H 0.9034 0.1192 0.23247 0.0
H4199 H 0.91336 0.1361 0.25165 0.0
C4200 C 0.89045 0.06621 0.24835 0.0
C4201 C 0.90802 0.06977 0.25812 0.0
C4202 C 0.88084 0.07983 0.24791 0.0
C4203 C 0.88863 0.09732 0.25712 0.0
C4204 C 0.90618 0.10094 0.2669 0.0
H4205 H 0.84577 0.19475 0.26711 0.0
H4206 H 0.86464 0.17277 0.27004 0.0
C4207 C 0.91582 0.08729 0.26736 0.0
C4208 C 0.87802 0.11149 0.25689 0.0
H4209 H 0.87751 0.15269 0.24271 0.0
C4210 C 0.86124 0.10831 0.26415 0.0
C4211 C 0.88403 0.12773 0.24915 0.0
C4212 C 0.90167 0.13161 0.24065 0.0
C4213 C 0.8503 0.12091 0.2639 0.0
C4214 C 0.85612 0.137 0.25584 0.0
C4215 C 0.87306 0.14034 0.24885 0.0
C4216 C 0.84462 0.15029 0.25415 0.0
C4217 C 0.8327 0.11699 0.27248 0.0
C4218 C 0.82718 0.14503 0.24406 0.0
C4219 C 0.81631 0.1575 0.24247 0.0
C4220 C 0.8227 0.17558 0.25083 0.0
C4221 C 0.84029 0.18087 0.26074 0.0
C4222 C 0.85116 0.16837 0.26232 0.0
H4223 H 0.83279 0.10705 0.28245 0.0
H4224 H 0.83024 0.12961 0.27959 0.0
H4225 H 0.8211 0.1111 0.26163 0.0
H4226 H 0.82198 0.13124 0.23734 0.0
H4227 H 0.8028 0.1529 0.23485 0.0
H4228 H 0.71862 0.13812 0.05833 0.0
H4229 H 0.68679 0.12074 0.05119 0.0
H4230 H 0.70421 0.0778 0.02054 0.0
H4231 H 0.73607 0.09518 0.02745 0.0
H4232 H 0.67562 0.08891 0.00178 0.0
H4233 H 0.66087 0.07485 0.07161 0.0
H4234 H 0.67037 0.09844 0.0701 0.0
H4235 H 0.68388 0.08219 0.06584 0.0
C4236 C 0.71568 0.12488 0.05022 0.0
C4237 C 0.72979 0.11796 0.04346 0.0
C4238 C 0.69752 0.11496 0.04624 0.0
C4239 C 0.69323 0.09792 0.03554 0.0
C4240 C 0.7073 0.0909 0.02889 0.0
H4241 H 0.58373 0.02689 0.02161 0.0
H4242 H 0.61695 0.03832 0.02644 0.0
C4243 C 0.72547 0.10082 0.03287 0.0
C4244 C 0.67395 0.08787 0.03057 0.0
H4245 H 0.6351 0.06982 0.04883 0.0
C4246 C 0.66678 0.08456 0.01203 0.0
C4247 C 0.66258 0.08203 0.04397 0.0
C4248 C 0.66983 0.08438 0.06398 0.0
C4249 C 0.64827 0.0761 0.00657 0.0
C4250 C 0.63669 0.0711 0.02006 0.0
C4251 C 0.64402 0.07383 0.03854 0.0
C4252 C 0.61679 0.06352 0.01545 0.0
C4253 C 0.64127 0.0726 0.98645 0.0
C4254 C 0.60577 0.07388 0.00753 0.0
C4255 C 0.58677 0.0674 0.00472 0.0
C4256 C 0.5785 0.05051 0.00994 0.0
C4257 C 0.58965 0.03997 0.01746 0.0
C4258 C 0.60863 0.04647 0.02025 0.0
H4259 H 0.65254 0.07242 0.97787 0.0
H4260 H 0.63089 0.05946 0.9831 0.0
H4261 H 0.63474 0.0836 0.9828 0.0
H4262 H 0.61181 0.08724 0.00406 0.0
H4263 H 0.57857 0.07586 -0.00107 0.0
H4264 H 0.18695 0.47307 0.24782 0.0
H4265 H 0.21069 0.4569 0.25484 0.0
H4266 H 0.24498 0.50573 0.28595 0.0
H4267 H 0.22125 0.52209 0.27901 0.0
H4268 H 0.24956 0.46949 0.24639 0.0
H4269 H 0.24195 0.46348 0.31992 0.0
H4270 H 0.2235 0.46666 0.30423 0.0
H4271 H 0.24306 0.48513 0.31171 0.0
C4272 C 0.19948 0.48034 0.25627 0.0
C4273 C 0.20228 0.49881 0.26288 0.0
C4274 C 0.21301 0.47111 0.26022 0.0
C4275 C 0.22947 0.48017 0.27093 0.0
C4276 C 0.23226 0.49854 0.27777 0.0
H4277 H 0.31131 0.4206 0.30491 0.0
H4278 H 0.29791 0.44665 0.30107 0.0
C4279 C 0.21874 0.50783 0.27377 0.0
C4280 C 0.2438 0.4703 0.27436 0.0
H4281 H 0.26193 0.4481 0.30633 0.0
C4282 C 0.25252 0.46502 0.25955 0.0
C4283 C 0.24772 0.46478 0.29162 0.0
C4284 C 0.23859 0.47019 0.30785 0.0
C4285 C 0.26447 0.45356 0.26133 0.0
C4286 C 0.26741 0.44698 0.27825 0.0
C4287 C 0.25958 0.45317 0.29338 0.0
C4288 C 0.2765 0.43193 0.27986 0.0
C4289 C 0.27343 0.4482 0.24495 0.0
C4290 C 0.26876 0.4151 0.26932 0.0
C4291 C 0.27624 0.40028 0.27153 0.0
C4292 C 0.29161 0.40196 0.28441 0.0
C4293 C 0.29944 0.4189 0.29492 0.0
C4294 C 0.29188 0.43377 0.2927 0.0
H4295 H 0.2749 0.45874 0.23551 0.0
H4296 H 0.28714 0.44595 0.24913 0.0
H4297 H 0.26474 0.43538 0.23727 0.0
H4298 H 0.25655 0.41327 0.25973 0.0
H4299 H 0.26956 0.38734 0.26358 0.0
H4300 H 0.22087 0.38688 0.01417 0.0
H4301 H 0.19786 0.40489 0.01219 0.0
H4302 H 0.2337 0.44813 0.04982 0.0
H4303 H 0.25682 0.43038 0.05162 0.0
H4304 H 0.17962 0.41975 0.03853 0.0
H4305 H 0.22265 0.47398 0.00609 0.0
H4306 H 0.22821 0.45241 0.00811 0.0
H4307 H 0.23345 0.46992 0.02737 0.0
C4308 C 0.2238 0.40019 0.02208 0.0
C4309 C 0.24072 0.40727 0.03294 0.0
C4310 C 0.21064 0.41047 0.02094 0.0
C4311 C 0.21418 0.42801 0.03059 0.0
C4312 C 0.23082 0.43481 0.04193 0.0
H4313 H 0.13612 0.49416 0.05059 0.0
H4314 H 0.15729 0.47432 0.05315 0.0
C4315 C 0.24398 0.4246 0.04302 0.0
C4316 C 0.20063 0.4393 0.02864 0.0
H4317 H 0.19528 0.4798 0.01588 0.0
C4318 C 0.18301 0.43285 0.03353 0.0
C4319 C 0.20496 0.45629 0.02185 0.0
C4320 C 0.22328 0.46352 0.01538 0.0
C4321 C 0.16974 0.44309 0.03214 0.0
C4322 C 0.17431 0.46037 0.02597 0.0
C4323 C 0.19182 0.46665 0.02078 0.0
C4324 C 0.16108 0.47207 0.02445 0.0
C4325 C 0.15086 0.43515 0.03697 0.0
C4326 C 0.15644 0.47776 0.00757 0.0
C4327 C 0.14443 0.48918 0.00609 0.0
C4328 C 0.13682 0.49525 0.02149 0.0
C4329 C 0.14151 0.48954 0.0384 0.0
C4330 C 0.15358 0.47815 0.03988 0.0
H4331 H 0.14811 0.42014 0.03658 0.0
H4332 H 0.14973 0.44097 0.05106 0.0
H4333 H 0.14016 0.43845 0.0275 0.0
H4334 H 0.16207 0.47328 0.99548 0.0
H4335 H 0.14095 0.4931 0.9928 0.0
H4336 H 0.91993 0.96179 0.26358 0.0
H4337 H 0.89843 0.93241 0.26402 0.0
H4338 H 0.85303 0.95684 0.25342 0.0
H4339 H 0.8744 0.98624 0.25299 0.0
H4340 H 0.8699 0.92601 0.28846 0.0
H4341 H 0.84206 0.91035 0.21478 0.0
H4342 H 0.86366 0.92636 0.22276 0.0
H4343 H 0.84257 0.93262 0.2259 0.0
C4344 C 0.90537 0.96087 0.2612 0.0
C4345 C 0.89886 0.97632 0.25824 0.0
C4346 C 0.89312 0.9441 0.26146 0.0
C4347 C 0.87415 0.94243 0.25856 0.0
C4348 C 0.86761 0.95778 0.25542 0.0
H4349 H 0.78366 0.84593 0.25834 0.0
H4350 H 0.80101 0.87692 0.25573 0.0
C4351 C 0.87985 0.97458 0.25527 0.0
C4352 C 0.86127 0.92481 0.25974 0.0
H4353 H 0.82936 0.88963 0.23446 0.0
C4354 C 0.86101 0.91807 0.27667 0.0
C4355 C 0.8495 0.91462 0.24439 0.0
C4356 C 0.84944 0.92122 0.22586 0.0
C4357 C 0.84946 0.90129 0.27864 0.0
C4358 C 0.83817 0.89074 0.26314 0.0
C4359 C 0.83804 0.89771 0.2463 0.0
C4360 C 0.82747 0.87195 0.26399 0.0
C4361 C 0.84941 0.89506 0.29735 0.0
C4362 C 0.83661 0.85881 0.26901 0.0
C4363 C 0.82682 0.84127 0.27057 0.0
C4364 C 0.80759 0.83632 0.26696 0.0
C4365 C 0.79843 0.84931 0.2613 0.0
C4366 C 0.80832 0.86701 0.25981 0.0
H4367 H 0.85407 0.90673 0.30837 0.0
H4368 H 0.83555 0.88736 0.29944 0.0
H4369 H 0.85895 0.88604 0.29871 0.0
H4370 H 0.85139 0.86215 0.27181 0.0
H4371 H 0.83441 0.83159 0.27467 0.0
H4372 H 0.71872 0.08088 0.77276 0.0
H4373 H 0.73516 0.1129 0.77637 0.0
H4374 H 0.70101 0.12146 0.7297 0.0
H4375 H 0.68442 0.08945 0.726 0.0
H4376 H 0.75363 0.13642 0.75072 0.0
H4377 H 0.69211 0.15507 0.77509 0.0
H4378 H 0.69523 0.13222 0.77392 0.0
H4379 H 0.68834 0.14092 0.75345 0.0
C4380 C 0.71492 0.08951 0.76308 0.0
C4381 C 0.70017 0.08277 0.74923 0.0
C4382 C 0.72434 0.10775 0.76514 0.0
C4383 C 0.71908 0.11947 0.75344 0.0
C4384 C 0.70508 0.11257 0.73895 0.0
H4385 H 0.76645 0.2324 0.74604 0.0
H4386 H 0.75582 0.19934 0.74061 0.0
C4387 C 0.69568 0.09432 0.73684 0.0
C4388 C 0.72719 0.13916 0.75735 0.0
H4389 H 0.71702 0.1792 0.77191 0.0
C4390 C 0.74568 0.14583 0.75534 0.0
C4391 C 0.71677 0.15122 0.76369 0.0
C4392 C 0.69704 0.14456 0.76684 0.0
C4393 C 0.75399 0.16447 0.75918 0.0
C4394 C 0.74342 0.17657 0.76503 0.0
C4395 C 0.72502 0.16983 0.76734 0.0
C4396 C 0.75104 0.19638 0.76863 0.0
C4397 C 0.77402 0.17105 0.75718 0.0
C4398 C 0.75163 0.20561 0.78614 0.0
C4399 C 0.7576 0.22451 0.7893 0.0
C4400 C 0.76291 0.23447 0.77491 0.0
C4401 C 0.76245 0.22513 0.75741 0.0
C4402 C 0.75652 0.20623 0.7543 0.0
H4403 H 0.78114 0.1598 0.75689 0.0
H4404 H 0.77538 0.17699 0.74416 0.0
H4405 H 0.78098 0.18177 0.76856 0.0
H4406 H 0.74731 0.19817 0.79732 0.0
H4407 H 0.7578 0.2313 0.80293 0.0
loop_
_geom_bond_atom_site_label_1
_geom_bond_atom_site_label_2
_geom_bond_distance
_geom_bond_site_symmetry_2
_ccdc_geom_bond_type
In0 O1 2.294 . S
In0 O2 2.326 . S
In0 O6 2.266 . S
In0 O7 2.356 . S
In0 O8 2.266 . S
In0 O9 2.326 . S
In0 O11 2.294 . S
In0 O12 2.326 . S
O1 In0 2.294 . S
O1 C10 1.240 . S
O2 In0 2.326 . S
O2 C10 1.252 . S
C3 O6 1.252 1_655 S
C3 O7 1.258 1_655 S
C4 O11 1.240 . S
C4 O12 1.252 . S
C5 O8 1.252 . S
C5 O9 1.260 . S
O6 In0 2.266 . S
O6 C3 1.252 1_455 S
O7 In0 2.356 . S
O7 C3 1.258 1_455 S
O8 In0 2.266 . S
O8 C5 1.252 . S
O9 In0 2.326 . S
O9 C5 1.260 . S
C10 O1 1.240 . S
C10 O2 1.252 . S
O11 In0 2.294 . S
O11 C4 1.240 . S
O12 In0 2.326 . S
O12 C4 1.252 . S
In13 O14 2.294 . S
In13 O15 2.326 . S
In13 O19 2.266 . S
In13 O20 2.326 . S
In13 O21 2.266 . S
In13 O22 2.326 1_455 S
In13 O24 2.294 . S
In13 O25 2.326 . S
O14 In13 2.294 . S
O14 C23 1.240 . S
O15 In13 2.326 . S
O15 C23 1.252 . S
C16 O19 1.252 . S
C16 O20 1.260 . S
C17 O24 1.240 . S
C17 O25 1.252 . S
C18 O21 1.252 1_655 S
C18 O22 1.260 . S
O19 In13 2.266 . S
O19 C16 1.252 . S
O20 In13 2.326 . S
O20 C16 1.260 . S
O21 In13 2.266 . S
O21 C18 1.252 1_455 S
O22 In13 2.326 1_655 S
O22 C18 1.260 . S
C23 O14 1.240 . S
C23 O15 1.252 . S
O24 In13 2.294 . S
O24 C17 1.240 . S
O25 In13 2.326 . S
O25 C17 1.252 . S
In26 O27 2.294 . S
In26 O28 2.326 . S
In26 O32 2.266 . S
In26 O33 2.326 . S
In26 O34 2.266 . S
In26 O35 2.326 . S
In26 O37 2.294 . S
In26 O38 2.326 . S
O27 In26 2.294 . S
O27 C36 1.240 . S
O28 In26 2.326 . S
O28 C36 1.252 . S
C29 O32 1.252 . S
C29 O33 1.260 . S
C30 O37 1.240 . S
C30 O38 1.252 . S
C31 O34 1.252 . S
C31 O35 1.260 . S
O32 In26 2.266 . S
O32 C29 1.252 . S
O33 In26 2.326 . S
O33 C29 1.260 . S
O34 In26 2.266 . S
O34 C31 1.252 . S
O35 In26 2.326 . S
O35 C31 1.260 . S
C36 O27 1.240 . S
C36 O28 1.252 . S
O37 In26 2.294 . S
O37 C30 1.240 . S
O38 In26 2.326 . S
O38 C30 1.252 . S
In39 O40 2.294 . S
In39 O41 2.326 . S
In39 O45 2.266 . S
In39 O46 2.326 . S
In39 O47 2.266 . S
In39 O48 2.326 . S
In39 O50 2.294 . S
In39 O51 2.326 . S
O40 In39 2.294 . S
O40 C49 1.240 . S
O41 In39 2.326 . S
O41 C49 1.252 . S
C42 O45 1.252 . S
C42 O46 1.260 . S
C43 O50 1.240 . S
C43 O51 1.252 . S
C44 O47 1.252 . S
C44 O48 1.260 . S
O45 In39 2.266 . S
O45 C42 1.252 . S
O46 In39 2.326 . S
O46 C42 1.260 . S
O47 In39 2.266 . S
O47 C44 1.252 . S
O48 In39 2.326 . S
O48 C44 1.260 . S
C49 O40 1.240 . S
C49 O41 1.252 . S
O50 In39 2.294 . S
O50 C43 1.240 . S
O51 In39 2.326 . S
O51 C43 1.252 . S
In52 O53 2.294 . S
In52 O54 2.326 . S
In52 O58 2.266 . S
In52 O59 2.326 . S
In52 O60 2.266 . S
In52 O61 2.326 . S
In52 O63 2.294 . S
In52 O64 2.326 . S
O53 In52 2.294 . S
O53 C62 1.240 . S
O54 In52 2.326 . S
O54 C62 1.252 . S
C55 O58 1.252 . S
C55 O59 1.260 . S
C56 O63 1.240 . S
C56 O64 1.252 . S
C57 O60 1.252 . S
C57 O61 1.260 . S
O58 In52 2.266 . S
O58 C55 1.252 . S
O59 In52 2.326 . S
O59 C55 1.260 . S
O60 In52 2.266 . S
O60 C57 1.252 . S
O61 In52 2.326 . S
O61 C57 1.260 . S
C62 O53 1.240 . S
C62 O54 1.252 . S
O63 In52 2.294 . S
O63 C56 1.240 . S
O64 In52 2.326 . S
O64 C56 1.252 . S
In65 O66 2.294 . S
In65 O67 2.326 . S
In65 O71 2.266 . S
In65 O72 2.326 . S
In65 O73 2.266 . S
In65 O74 2.326 . S
In65 O76 2.294 . S
In65 O77 2.326 . S
O66 In65 2.294 . S
O66 C75 1.240 . S
O67 In65 2.326 . S
O67 C75 1.252 . S
C68 O71 1.252 . S
C68 O72 1.260 . S
C69 O76 1.240 . S
C69 O77 1.252 . S
C70 O73 1.252 . S
C70 O74 1.260 . S
O71 In65 2.266 . S
O71 C68 1.252 . S
O72 In65 2.326 . S
O72 C68 1.260 . S
O73 In65 2.266 . S
O73 C70 1.252 . S
O74 In65 2.326 . S
O74 C70 1.260 . S
C75 O66 1.240 . S
C75 O67 1.252 . S
O76 In65 2.294 . S
O76 C69 1.240 . S
O77 In65 2.326 . S
O77 C69 1.252 . S
In78 O79 2.294 . S
In78 O80 2.326 . S
In78 O84 2.266 . S
In78 O85 2.326 . S
In78 O86 2.266 . S
In78 O87 2.326 . S
In78 O89 2.294 . S
In78 O90 2.326 . S
O79 In78 2.294 . S
O79 C88 1.240 . S
O80 In78 2.326 . S
O80 C88 1.252 . S
C81 O84 1.252 . S
C81 O85 1.260 . S
C82 O89 1.240 . S
C82 O90 1.252 . S
C83 O86 1.252 . S
C83 O87 1.260 . S
O84 In78 2.266 . S
O84 C81 1.252 . S
O85 In78 2.326 . S
O85 C81 1.260 . S
O86 In78 2.266 . S
O86 C83 1.252 . S
O87 In78 2.326 . S
O87 C83 1.260 . S
C88 O79 1.240 . S
C88 O80 1.252 . S
O89 In78 2.294 . S
O89 C82 1.240 . S
O90 In78 2.326 . S
O90 C82 1.252 . S
In91 O92 2.294 . S
In91 O93 2.327 1_455 S
In91 O97 2.276 . S
In91 O98 2.325 . S
In91 O99 2.264 1_455 S
In91 O100 2.323 1_455 S
In91 O102 2.296 . S
In91 O103 2.329 . S
O92 In91 2.294 . S
O92 C101 1.234 . S
O93 In91 2.327 1_655 S
O93 C101 1.251 1_655 S
C94 O97 1.250 . S
C94 O98 1.260 . S
C95 O102 1.240 . S
C95 O103 1.252 . S
C96 O99 1.252 . S
C96 O100 1.260 . S
O97 In91 2.276 . S
O97 C94 1.250 . S
O98 In91 2.325 . S
O98 C94 1.260 . S
O99 In91 2.264 1_655 S
O99 C96 1.252 . S
O100 In91 2.323 1_655 S
O100 C96 1.260 . S
C101 O92 1.234 . S
C101 O93 1.251 1_455 S
O102 In91 2.296 . S
O102 C95 1.240 . S
O103 In91 2.329 . S
O103 C95 1.252 . S
In104 O105 2.294 . S
In104 O106 2.326 . S
In104 O110 2.266 . S
In104 O111 2.326 . S
In104 O112 2.266 1_545 S
In104 O113 2.326 1_545 S
In104 O115 2.294 . S
In104 O116 2.326 . S
O105 In104 2.294 . S
O105 C114 1.240 . S
O106 In104 2.326 . S
O106 C114 1.252 . S
C107 O110 1.252 . S
C107 O111 1.260 . S
C108 O115 1.240 . S
C108 O116 1.252 . S
C109 O112 1.252 . S
C109 O113 1.260 . S
O110 In104 2.266 . S
O110 C107 1.252 . S
O111 In104 2.326 . S
O111 C107 1.260 . S
O112 In104 2.266 1_565 S
O112 C109 1.252 . S
O113 In104 2.326 1_565 S
O113 C109 1.260 . S
C114 O105 1.240 . S
C114 O106 1.252 . S
O115 In104 2.294 . S
O115 C108 1.240 . S
O116 In104 2.326 . S
O116 C108 1.252 . S
In117 O118 2.294 . S
In117 O119 2.326 . S
In117 O123 2.266 . S
In117 O124 2.326 . S
In117 O125 2.266 . S
In117 O126 2.326 . S
In117 O128 2.294 . S
In117 O129 2.326 . S
O118 In117 2.294 . S
O118 C127 1.240 . S
O119 In117 2.326 . S
O119 C127 1.252 . S
C120 O123 1.252 . S
C120 O124 1.260 . S
C121 O128 1.240 . S
C121 O129 1.252 . S
C122 O125 1.252 . S
C122 O126 1.260 . S
O123 In117 2.266 . S
O123 C120 1.252 . S
O124 In117 2.326 . S
O124 C120 1.260 . S
O125 In117 2.266 . S
O125 C122 1.252 . S
O126 In117 2.326 . S
O126 C122 1.260 . S
C127 O118 1.240 . S
C127 O119 1.252 . S
O128 In117 2.294 . S
O128 C121 1.240 . S
O129 In117 2.326 . S
O129 C121 1.252 . S
In130 O131 2.294 . S
In130 O132 2.326 . S
In130 O136 2.266 . S
In130 O137 2.326 . S
In130 O138 2.266 . S
In130 O139 2.326 . S
In130 O141 2.294 . S
In130 O142 2.326 . S
O131 In130 2.294 . S
O131 C140 1.240 . S
O132 In130 2.326 . S
O132 C140 1.252 . S
C133 O136 1.252 . S
C133 O137 1.260 . S
C134 O141 1.240 . S
C134 O142 1.252 . S
C135 O138 1.252 . S
C135 O139 1.260 . S
O136 In130 2.266 . S
O136 C133 1.252 . S
O137 In130 2.326 . S
O137 C133 1.260 . S
O138 In130 2.266 . S
O138 C135 1.252 . S
O139 In130 2.326 . S
O139 C135 1.260 . S
C140 O131 1.240 . S
C140 O132 1.252 . S
O141 In130 2.294 . S
O141 C134 1.240 . S
O142 In130 2.326 . S
O142 C134 1.252 . S
In143 O144 2.296 . S
In143 O145 2.329 . S
In143 O149 2.264 1_554 S
In143 O150 2.322 1_554 S
In143 O151 2.266 1_554 S
In143 O152 2.323 1_554 S
In143 O154 2.294 . S
In143 O155 2.327 . S
O144 In143 2.296 . S
O144 C153 1.240 . S
O145 In143 2.329 . S
O145 C153 1.252 . S
C146 O149 1.252 . S
C146 O150 1.260 . S
C147 O154 1.240 . S
C147 O155 1.252 . S
C148 O151 1.253 . S
C148 O152 1.256 . S
O149 In143 2.264 1_556 S
O149 C146 1.252 . S
O150 In143 2.322 1_556 S
O150 C146 1.260 . S
O151 In143 2.266 1_556 S
O151 C148 1.253 . S
O152 In143 2.323 1_556 S
O152 C148 1.256 . S
C153 O144 1.240 . S
C153 O145 1.252 . S
O154 In143 2.294 . S
O154 C147 1.240 . S
O155 In143 2.327 . S
O155 C147 1.252 . S
In156 O157 2.294 . S
In156 O158 2.326 . S
In156 O162 2.266 . S
In156 O163 2.326 1_554 S
In156 O164 2.266 . S
In156 O165 2.326 . S
In156 O167 2.294 . S
In156 O168 2.326 . S
O157 In156 2.294 . S
O157 C166 1.240 . S
O158 In156 2.326 . S
O158 C166 1.252 . S
C159 O162 1.252 1_556 S
C159 O163 1.260 . S
C160 O167 1.240 . S
C160 O168 1.252 . S
C161 O164 1.252 . S
C161 O165 1.260 . S
O162 In156 2.266 . S
O162 C159 1.252 1_554 S
O163 In156 2.326 1_556 S
O163 C159 1.260 . S
O164 In156 2.266 . S
O164 C161 1.252 . S
O165 In156 2.326 . S
O165 C161 1.260 . S
C166 O157 1.240 . S
C166 O158 1.252 . S
O167 In156 2.294 . S
O167 C160 1.240 . S
O168 In156 2.326 . S
O168 C160 1.252 . S
In169 O170 2.294 . S
In169 O171 2.326 . S
In169 O175 2.266 . S
In169 O176 2.326 . S
In169 O177 2.266 . S
In169 O178 2.326 . S
In169 O180 2.294 . S
In169 O181 2.326 . S
O170 In169 2.294 . S
O170 C179 1.240 . S
O171 In169 2.326 . S
O171 C179 1.252 . S
C172 O175 1.252 . S
C172 O176 1.260 . S
C173 O180 1.240 . S
C173 O181 1.252 . S
C174 O177 1.252 . S
C174 O178 1.260 . S
O175 In169 2.266 . S
O175 C172 1.252 . S
O176 In169 2.326 . S
O176 C172 1.260 . S
O177 In169 2.266 . S
O177 C174 1.252 . S
O178 In169 2.326 . S
O178 C174 1.260 . S
C179 O170 1.240 . S
C179 O171 1.252 . S
O180 In169 2.294 . S
O180 C173 1.240 . S
O181 In169 2.326 . S
O181 C173 1.252 . S
In182 O183 2.294 . S
In182 O184 2.326 . S
In182 O188 2.266 . S
In182 O189 2.326 . S
In182 O190 2.266 . S
In182 O191 2.326 . S
In182 O193 2.294 . S
In182 O194 2.326 . S
O183 In182 2.294 . S
O183 C192 1.240 . S
O184 In182 2.326 . S
O184 C192 1.252 . S
C185 O188 1.252 . S
C185 O189 1.260 . S
C186 O193 1.240 . S
C186 O194 1.252 . S
C187 O190 1.252 . S
C187 O191 1.260 . S
O188 In182 2.266 . S
O188 C185 1.252 . S
O189 In182 2.326 . S
O189 C185 1.260 . S
O190 In182 2.266 . S
O190 C187 1.252 . S
O191 In182 2.326 . S
O191 C187 1.260 . S
C192 O183 1.240 . S
C192 O184 1.252 . S
O193 In182 2.294 . S
O193 C186 1.240 . S
O194 In182 2.326 . S
O194 C186 1.252 . S
In195 O196 2.294 . S
In195 O197 2.326 . S
In195 O201 2.266 . S
In195 O202 2.326 . S
In195 O203 2.266 . S
In195 O204 2.326 . S
In195 O206 2.294 . S
In195 O207 2.326 . S
O196 In195 2.294 . S
O196 C205 1.240 . S
O197 In195 2.326 . S
O197 C205 1.252 . S
C198 O201 1.252 . S
C198 O202 1.260 . S
C199 O206 1.240 . S
C199 O207 1.252 . S
C200 O203 1.252 . S
C200 O204 1.260 . S
O201 In195 2.266 . S
O201 C198 1.252 . S
O202 In195 2.326 . S
O202 C198 1.260 . S
O203 In195 2.266 . S
O203 C200 1.252 . S
O204 In195 2.326 . S
O204 C200 1.260 . S
C205 O196 1.240 . S
C205 O197 1.252 . S
O206 In195 2.294 . S
O206 C199 1.240 . S
O207 In195 2.326 . S
O207 C199 1.252 . S
In208 O209 2.294 . S
In208 O210 2.326 . S
In208 O214 2.266 . S
In208 O215 2.326 . S
In208 O216 2.266 . S
In208 O217 2.276 1_545 S
In208 O219 2.294 . S
In208 O220 2.326 . S
O209 In208 2.294 . S
O209 C218 1.240 . S
O210 In208 2.326 . S
O210 C218 1.252 . S
C211 O214 1.252 . S
C211 O215 1.260 . S
C212 O219 1.240 . S
C212 O220 1.252 . S
C213 O216 1.252 1_565 S
C213 O217 1.263 . S
O214 In208 2.266 . S
O214 C211 1.252 . S
O215 In208 2.326 . S
O215 C211 1.260 . S
O216 In208 2.266 . S
O216 C213 1.252 1_545 S
O217 In208 2.276 1_565 S
O217 C213 1.263 . S
C218 O209 1.240 . S
C218 O210 1.252 . S
O219 In208 2.294 . S
O219 C212 1.240 . S
O220 In208 2.326 . S
O220 C212 1.252 . S
In221 O222 2.294 . S
In221 O223 2.326 . S
In221 O227 2.266 . S
In221 O228 2.326 . S
In221 O229 2.266 . S
In221 O230 2.326 . S
In221 O232 2.294 . S
In221 O233 2.326 . S
O222 In221 2.294 . S
O222 C231 1.240 . S
O223 In221 2.326 . S
O223 C231 1.252 . S
C224 O227 1.252 . S
C224 O228 1.260 . S
C225 O232 1.240 . S
C225 O233 1.252 . S
C226 O229 1.252 . S
C226 O230 1.260 . S
O227 In221 2.266 . S
O227 C224 1.252 . S
O228 In221 2.326 . S
O228 C224 1.260 . S
O229 In221 2.266 . S
O229 C226 1.252 . S
O230 In221 2.326 . S
O230 C226 1.260 . S
C231 O222 1.240 . S
C231 O223 1.252 . S
O232 In221 2.294 . S
O232 C225 1.240 . S
O233 In221 2.326 . S
O233 C225 1.252 . S
In234 O235 2.294 . S
In234 O236 2.326 . S
In234 O240 2.266 . S
In234 O241 2.326 . S
In234 O242 2.266 . S
In234 O243 2.326 . S
In234 O245 2.294 . S
In234 O246 2.326 . S
O235 In234 2.294 . S
O235 C244 1.240 . S
O236 In234 2.326 . S
O236 C244 1.252 . S
C237 O240 1.252 . S
C237 O241 1.260 . S
C238 O245 1.240 . S
C238 O246 1.252 . S
C239 O242 1.252 . S
C239 O243 1.260 . S
O240 In234 2.266 . S
O240 C237 1.252 . S
O241 In234 2.326 . S
O241 C237 1.260 . S
O242 In234 2.266 . S
O242 C239 1.252 . S
O243 In234 2.326 . S
O243 C239 1.260 . S
C244 O235 1.240 . S
C244 O236 1.252 . S
O245 In234 2.294 . S
O245 C238 1.240 . S
O246 In234 2.326 . S
O246 C238 1.252 . S
In247 O248 2.294 . S
In247 O249 2.326 . S
In247 O253 2.266 . S
In247 O254 2.326 . S
In247 O255 2.266 . S
In247 O256 2.326 . S
In247 O258 2.294 . S
In247 O259 2.326 . S
O248 In247 2.294 . S
O248 C257 1.240 . S
O249 In247 2.326 . S
O249 C257 1.252 . S
C250 O253 1.252 . S
C250 O254 1.260 . S
C251 O258 1.240 . S
C251 O259 1.252 . S
C252 O255 1.252 . S
C252 O256 1.260 . S
O253 In247 2.266 . S
O253 C250 1.252 . S
O254 In247 2.326 . S
O254 C250 1.260 . S
O255 In247 2.266 . S
O255 C252 1.252 . S
O256 In247 2.326 . S
O256 C252 1.260 . S
C257 O248 1.240 . S
C257 O249 1.252 . S
O258 In247 2.294 . S
O258 C251 1.240 . S
O259 In247 2.326 . S
O259 C251 1.252 . S
In260 O261 2.294 . S
In260 O262 2.326 . S
In260 O266 2.266 . S
In260 O267 2.326 . S
In260 O268 2.298 . S
In260 O269 2.326 1_554 S
In260 O271 2.294 . S
In260 O272 2.326 . S
O261 In260 2.294 . S
O261 C270 1.240 . S
O262 In260 2.326 . S
O262 C270 1.252 . S
C263 O266 1.252 . S
C263 O267 1.260 . S
C264 O271 1.240 . S
C264 O272 1.252 . S
C265 O268 1.215 1_556 S
C265 O269 1.260 . S
O266 In260 2.266 . S
O266 C263 1.252 . S
O267 In260 2.326 . S
O267 C263 1.260 . S
O268 In260 2.298 . S
O268 C265 1.215 1_554 S
O269 In260 2.326 1_556 S
O269 C265 1.260 . S
C270 O261 1.240 . S
C270 O262 1.252 . S
O271 In260 2.294 . S
O271 C264 1.240 . S
O272 In260 2.326 . S
O272 C264 1.252 . S
In273 O274 2.294 . S
In273 O275 2.326 . S
In273 O279 2.266 . S
In273 O280 2.326 . S
In273 O281 2.266 . S
In273 O282 2.326 . S
In273 O284 2.294 . S
In273 O285 2.326 . S
O274 In273 2.294 . S
O274 C283 1.240 . S
O275 In273 2.326 . S
O275 C283 1.252 . S
C276 O279 1.252 . S
C276 O280 1.260 . S
C277 O284 1.240 . S
C277 O285 1.252 . S
C278 O281 1.252 . S
C278 O282 1.260 . S
O279 In273 2.266 . S
O279 C276 1.252 . S
O280 In273 2.326 . S
O280 C276 1.260 . S
O281 In273 2.266 . S
O281 C278 1.252 . S
O282 In273 2.326 . S
O282 C278 1.260 . S
C283 O274 1.240 . S
C283 O275 1.252 . S
O284 In273 2.294 . S
O284 C277 1.240 . S
O285 In273 2.326 . S
O285 C277 1.252 . S
In286 O287 2.294 . S
In286 O288 2.326 . S
In286 O292 2.266 . S
In286 O293 2.326 . S
In286 O294 2.266 . S
In286 O295 2.326 . S
In286 O297 2.294 . S
In286 O298 2.326 . S
O287 In286 2.294 . S
O287 C296 1.240 . S
O288 In286 2.326 . S
O288 C296 1.252 . S
C289 O292 1.252 . S
C289 O293 1.260 . S
C290 O297 1.240 . S
C290 O298 1.252 . S
C291 O294 1.252 . S
C291 O295 1.260 . S
O292 In286 2.266 . S
O292 C289 1.252 . S
O293 In286 2.326 . S
O293 C289 1.260 . S
O294 In286 2.266 . S
O294 C291 1.252 . S
O295 In286 2.326 . S
O295 C291 1.260 . S
C296 O287 1.240 . S
C296 O288 1.252 . S
O297 In286 2.294 . S
O297 C290 1.240 . S
O298 In286 2.326 . S
O298 C290 1.252 . S
In299 O300 2.294 . S
In299 O301 2.326 . S
In299 O305 2.266 . S
In299 O306 2.326 . S
In299 O307 2.266 . S
In299 O308 2.326 . S
In299 O310 2.294 . S
In299 O311 2.326 . S
O300 In299 2.294 . S
O300 C309 1.240 . S
O301 In299 2.326 . S
O301 C309 1.252 . S
C302 O305 1.252 . S
C302 O306 1.260 . S
C303 O310 1.240 . S
C303 O311 1.252 . S
C304 O307 1.252 . S
C304 O308 1.260 . S
O305 In299 2.266 . S
O305 C302 1.252 . S
O306 In299 2.326 . S
O306 C302 1.260 . S
O307 In299 2.266 . S
O307 C304 1.252 . S
O308 In299 2.326 . S
O308 C304 1.260 . S
C309 O300 1.240 . S
C309 O301 1.252 . S
O310 In299 2.294 . S
O310 C303 1.240 . S
O311 In299 2.326 . S
O311 C303 1.252 . S
Dy312 O315 2.307 . S
Dy312 O317 2.395 . S
Dy312 O318 2.379 . S
Dy312 O320 2.339 . S
Dy312 O322 2.298 . S
Dy312 O326 2.275 . S
Dy312 C334 2.738 . S
Dy313 O316 2.298 . S
Dy313 O319 2.275 . S
Dy313 O321 2.307 . S
Dy313 O323 2.395 1_455 S
Dy313 O324 2.379 1_455 S
Dy313 O327 2.339 1_554 S
Dy313 C343 2.738 1_455 S
C314 O326 1.254 . S
C314 O327 1.257 1_554 S
O315 Dy312 2.307 . S
O315 C325 1.266 . S
O316 Dy313 2.298 . S
O316 C325 1.236 . S
O317 Dy312 2.395 . S
O317 C334 1.255 . S
O318 Dy312 2.379 . S
O318 C334 1.249 . S
O319 Dy313 2.275 . S
O319 C335 1.254 . S
O320 Dy312 2.339 . S
O320 C335 1.257 . S
O321 Dy313 2.307 . S
O321 C336 1.266 . S
O322 Dy312 2.298 . S
O322 C336 1.236 . S
O323 Dy313 2.395 1_655 S
O323 C343 1.255 . S
O324 Dy313 2.379 1_655 S
O324 C343 1.249 . S
C325 O315 1.266 . S
C325 O316 1.236 . S
O326 Dy312 2.275 . S
O326 C314 1.254 . S
O327 Dy313 2.339 1_556 S
O327 C314 1.257 1_556 S
C328 C331 1.344 . S
C328 C332 1.328 . S
C328 C334 1.516 . S
C329 C330 1.304 . S
C329 C333 1.323 . S
C330 C329 1.304 . S
C330 C331 1.371 . S
C330 H344 0.930 . S
C331 C328 1.344 . S
C331 C330 1.371 . S
C331 H345 0.931 . S
C332 C328 1.328 . S
C332 C333 1.433 . S
C332 H346 0.931 . S
C333 C329 1.323 . S
C333 C332 1.433 . S
C333 H347 0.933 . S
C334 Dy312 2.738 . S
C334 O317 1.255 . S
C334 O318 1.249 . S
C334 C328 1.516 . S
C335 O319 1.254 . S
C335 O320 1.257 . S
C336 O321 1.266 . S
C336 O322 1.236 . S
C337 C340 1.344 . S
C337 C341 1.328 . S
C337 C343 1.516 . S
C338 C339 1.304 . S
C338 C342 1.323 . S
C339 C338 1.304 . S
C339 C340 1.371 . S
C339 H348 0.930 . S
C340 C337 1.344 . S
C340 C339 1.371 . S
C340 H349 0.931 . S
C341 C337 1.328 . S
C341 C342 1.433 . S
C341 H350 0.931 1_554 S
C342 C338 1.323 . S
C342 C341 1.433 . S
C342 H351 0.933 1_554 S
C343 Dy313 2.738 1_655 S
C343 O323 1.255 . S
C343 O324 1.249 . S
C343 C337 1.516 . S
H344 C330 0.930 . S
H345 C331 0.931 . S
H346 C332 0.931 . S
H347 C333 0.933 . S
H348 C339 0.930 . S
H349 C340 0.931 . S
H350 C341 0.931 1_556 S
H351 C342 0.933 1_556 S
Dy352 O355 2.307 . S
Dy352 O357 2.395 . S
Dy352 O358 2.379 . S
Dy352 O360 2.339 . S
Dy352 O362 2.298 . S
Dy352 O366 2.275 . S
Dy352 C374 2.738 . S
Dy353 O356 2.298 . S
Dy353 O359 2.275 . S
Dy353 O361 2.307 . S
Dy353 O363 2.395 . S
Dy353 O364 2.379 . S
Dy353 O367 2.339 . S
Dy353 C383 2.738 . S
C354 O366 1.254 . S
C354 O367 1.257 . S
O355 Dy352 2.307 . S
O355 C365 1.266 . S
O356 Dy353 2.298 . S
O356 C365 1.236 . S
O357 Dy352 2.395 . S
O357 C374 1.255 . S
O358 Dy352 2.379 . S
O358 C374 1.249 . S
O359 Dy353 2.275 . S
O359 C375 1.254 . S
O360 Dy352 2.339 . S
O360 C375 1.257 . S
O361 Dy353 2.307 . S
O361 C376 1.266 . S
O362 Dy352 2.298 . S
O362 C376 1.236 . S
O363 Dy353 2.395 . S
O363 C383 1.255 . S
O364 Dy353 2.379 . S
O364 C383 1.249 . S
C365 O355 1.266 . S
C365 O356 1.236 . S
O366 Dy352 2.275 . S
O366 C354 1.254 . S
O367 Dy353 2.339 . S
O367 C354 1.257 . S
C368 C371 1.344 . S
C368 C372 1.328 . S
C368 C374 1.516 . S
C369 C370 1.304 . S
C369 C373 1.323 . S
C370 C369 1.304 . S
C370 C371 1.371 . S
C370 H384 0.930 . S
C371 C368 1.344 . S
C371 C370 1.371 . S
C371 H385 0.931 . S
C372 C368 1.328 . S
C372 C373 1.433 . S
C372 H386 0.931 . S
C373 C369 1.323 . S
C373 C372 1.433 . S
C373 H387 0.933 . S
C374 Dy352 2.738 . S
C374 O357 1.255 . S
C374 O358 1.249 . S
C374 C368 1.516 . S
C375 O359 1.254 . S
C375 O360 1.257 . S
C376 O361 1.266 . S
C376 O362 1.236 . S
C377 C380 1.344 . S
C377 C381 1.328 . S
C377 C383 1.516 . S
C378 C379 1.304 . S
C378 C382 1.323 . S
C379 C378 1.304 . S
C379 C380 1.371 . S
C379 H388 0.930 . S
C380 C377 1.344 . S
C380 C379 1.371 . S
C380 H389 0.931 . S
C381 C377 1.328 . S
C381 C382 1.433 . S
C381 H390 0.931 . S
C382 C378 1.323 . S
C382 C381 1.433 . S
C382 H391 0.933 . S
C383 Dy353 2.738 . S
C383 O363 1.255 . S
C383 O364 1.249 . S
C383 C377 1.516 . S
H384 C370 0.930 . S
H385 C371 0.931 . S
H386 C372 0.931 . S
H387 C373 0.933 . S
H388 C379 0.930 . S
H389 C380 0.931 . S
H390 C381 0.931 . S
H391 C382 0.933 . S
Dy392 O395 2.307 1_545 S
Dy392 O397 2.395 . S
Dy392 O398 2.379 . S
Dy392 O400 2.339 . S
Dy392 O402 2.298 . S
Dy392 O406 2.275 . S
Dy392 C414 2.738 . S
Dy393 O396 2.298 1_545 S
Dy393 O399 2.275 . S
Dy393 O401 2.307 . S
Dy393 O403 2.395 . S
Dy393 O404 2.379 . S
Dy393 O407 2.339 . S
Dy393 C423 2.738 . S
C394 O406 1.254 . S
C394 O407 1.257 . S
O395 Dy392 2.307 1_565 S
O395 C405 1.266 . S
O396 Dy393 2.298 1_565 S
O396 C405 1.236 . S
O397 Dy392 2.395 . S
O397 C414 1.255 . S
O398 Dy392 2.379 . S
O398 C414 1.249 . S
O399 Dy393 2.275 . S
O399 C415 1.254 . S
O400 Dy392 2.339 . S
O400 C415 1.257 . S
O401 Dy393 2.307 . S
O401 C416 1.266 . S
O402 Dy392 2.298 . S
O402 C416 1.236 . S
O403 Dy393 2.395 . S
O403 C423 1.255 . S
O404 Dy393 2.379 . S
O404 C423 1.249 . S
C405 O395 1.266 . S
C405 O396 1.236 . S
O406 Dy392 2.275 . S
O406 C394 1.254 . S
O407 Dy393 2.339 . S
O407 C394 1.257 . S
C408 C411 1.344 . S
C408 C412 1.328 . S
C408 C414 1.516 . S
C409 C410 1.304 . S
C409 C413 1.323 . S
C410 C409 1.304 . S
C410 C411 1.371 . S
C410 H424 0.930 . S
C411 C408 1.344 . S
C411 C410 1.371 . S
C411 H425 0.931 . S
C412 C408 1.328 . S
C412 C413 1.433 . S
C412 H426 0.931 . S
C413 C409 1.323 . S
C413 C412 1.433 . S
C413 H427 0.933 . S
C414 Dy392 2.738 . S
C414 O397 1.255 . S
C414 O398 1.249 . S
C414 C408 1.516 . S
C415 O399 1.254 . S
C415 O400 1.257 . S
C416 O401 1.266 . S
C416 O402 1.236 . S
C417 C420 1.344 . S
C417 C421 1.328 . S
C417 C423 1.516 1_565 S
C418 C419 1.304 . S
C418 C422 1.323 . S
C419 C418 1.304 . S
C419 C420 1.371 . S
C419 H428 0.930 . S
C420 C417 1.344 . S
C420 C419 1.371 . S
C420 H429 0.931 . S
C421 C417 1.328 . S
C421 C422 1.433 . S
C421 H430 0.954 . S
C422 C418 1.323 . S
C422 C421 1.433 . S
C422 H431 0.933 . S
C423 Dy393 2.738 . S
C423 O403 1.255 . S
C423 O404 1.249 . S
C423 C417 1.516 1_545 S
H424 C410 0.930 . S
H425 C411 0.931 . S
H426 C412 0.931 . S
H427 C413 0.933 . S
H428 C419 0.930 . S
H429 C420 0.931 . S
H430 C421 0.954 . S
H431 C422 0.933 . S
Dy432 O435 2.307 . S
Dy432 O437 2.395 . S
Dy432 O438 2.379 . S
Dy432 O440 2.339 . S
Dy432 O442 2.298 . S
Dy432 O446 2.275 . S
Dy432 C454 2.738 . S
Dy433 O436 2.298 . S
Dy433 O439 2.275 . S
Dy433 O441 2.307 . S
Dy433 O443 2.395 . S
Dy433 O444 2.379 . S
Dy433 O447 2.339 . S
Dy433 C463 2.738 . S
C434 O446 1.254 . S
C434 O447 1.257 . S
O435 Dy432 2.307 . S
O435 C445 1.266 . S
O436 Dy433 2.298 . S
O436 C445 1.236 . S
O437 Dy432 2.395 . S
O437 C454 1.255 . S
O438 Dy432 2.379 . S
O438 C454 1.249 . S
O439 Dy433 2.275 . S
O439 C455 1.254 . S
O440 Dy432 2.339 . S
O440 C455 1.257 . S
O441 Dy433 2.307 . S
O441 C456 1.266 . S
O442 Dy432 2.298 . S
O442 C456 1.236 . S
O443 Dy433 2.395 . S
O443 C463 1.255 . S
O444 Dy433 2.379 . S
O444 C463 1.249 . S
C445 O435 1.266 . S
C445 O436 1.236 . S
O446 Dy432 2.275 . S
O446 C434 1.254 . S
O447 Dy433 2.339 . S
O447 C434 1.257 . S
C448 C451 1.344 . S
C448 C452 1.328 . S
C448 C454 1.516 . S
C449 C450 1.304 . S
C449 C453 1.323 . S
C450 C449 1.304 . S
C450 C451 1.371 . S
C450 H464 0.930 . S
C451 C448 1.344 . S
C451 C450 1.371 . S
C451 H465 0.931 . S
C452 C448 1.328 . S
C452 C453 1.433 . S
C452 H466 0.931 . S
C453 C449 1.323 . S
C453 C452 1.433 . S
C453 H467 0.933 . S
C454 Dy432 2.738 . S
C454 O437 1.255 . S
C454 O438 1.249 . S
C454 C448 1.516 . S
C455 O439 1.254 . S
C455 O440 1.257 . S
C456 O441 1.266 . S
C456 O442 1.236 . S
C457 C460 1.344 . S
C457 C461 1.328 . S
C457 C463 1.516 . S
C458 C459 1.304 . S
C458 C462 1.323 . S
C459 C458 1.304 . S
C459 C460 1.371 . S
C459 H468 0.930 . S
C460 C457 1.344 . S
C460 C459 1.371 . S
C460 H469 0.931 . S
C461 C457 1.328 . S
C461 C462 1.433 . S
C461 H470 0.931 . S
C462 C458 1.323 . S
C462 C461 1.433 . S
C462 H471 0.933 . S
C463 Dy433 2.738 . S
C463 O443 1.255 . S
C463 O444 1.249 . S
C463 C457 1.516 . S
H464 C450 0.930 . S
H465 C451 0.931 . S
H466 C452 0.931 . S
H467 C453 0.933 . S
H468 C459 0.930 . S
H469 C460 0.931 . S
H470 C461 0.931 . S
H471 C462 0.933 . S
Dy472 O475 2.307 . S
Dy472 O477 2.395 1_545 S
Dy472 O478 2.379 1_545 S
Dy472 O480 2.339 . S
Dy472 O482 2.298 . S
Dy472 O486 2.275 . S
Dy472 C494 2.738 1_545 S
Dy473 O476 2.298 . S
Dy473 O479 2.275 . S
Dy473 O481 2.307 . S
Dy473 O483 2.395 . S
Dy473 O484 2.379 . S
Dy473 O487 2.303 1_455 S
Dy473 C503 2.738 . S
C474 O486 1.254 . S
C474 O487 1.241 1_455 S
O475 Dy472 2.307 . S
O475 C485 1.266 . S
O476 Dy473 2.298 . S
O476 C485 1.236 . S
O477 Dy472 2.395 1_565 S
O477 C494 1.255 . S
O478 Dy472 2.379 1_565 S
O478 C494 1.249 . S
O479 Dy473 2.275 . S
O479 C495 1.254 . S
O480 Dy472 2.339 . S
O480 C495 1.257 . S
O481 Dy473 2.307 . S
O481 C496 1.266 . S
O482 Dy472 2.298 . S
O482 C496 1.236 . S
O483 Dy473 2.395 . S
O483 C503 1.255 . S
O484 Dy473 2.379 . S
O484 C503 1.249 . S
C485 O475 1.266 . S
C485 O476 1.236 . S
O486 Dy472 2.275 . S
O486 C474 1.254 . S
O487 Dy473 2.303 1_655 S
O487 C474 1.241 1_655 S
C488 C491 1.344 . S
C488 C492 1.328 . S
C488 C494 1.516 . S
C489 C490 1.304 . S
C489 C493 1.323 . S
C490 C489 1.304 . S
C490 C491 1.371 . S
C490 H504 0.930 . S
C491 C488 1.344 . S
C491 C490 1.371 . S
C491 H505 0.931 . S
C492 C488 1.328 . S
C492 C493 1.433 . S
C492 H506 0.931 . S
C493 C489 1.323 . S
C493 C492 1.433 . S
C493 H507 0.933 . S
C494 Dy472 2.738 1_565 S
C494 O477 1.255 . S
C494 O478 1.249 . S
C494 C488 1.516 . S
C495 O479 1.254 . S
C495 O480 1.257 . S
C496 O481 1.266 . S
C496 O482 1.236 . S
C497 C500 1.344 . S
C497 C501 1.328 . S
C497 C503 1.516 . S
C498 C499 1.304 . S
C498 C502 1.323 . S
C499 C498 1.304 . S
C499 C500 1.371 . S
C499 H508 0.930 . S
C500 C497 1.344 . S
C500 C499 1.371 . S
C500 H509 0.931 . S
C501 C497 1.328 . S
C501 C502 1.433 . S
C501 H510 0.931 1_455 S
C502 C498 1.323 . S
C502 C501 1.433 . S
C502 H511 0.933 1_455 S
C503 Dy473 2.738 . S
C503 O483 1.255 . S
C503 O484 1.249 . S
C503 C497 1.516 . S
H504 C490 0.930 . S
H505 C491 0.931 . S
H506 C492 0.931 . S
H507 C493 0.933 . S
H508 C499 0.930 . S
H509 C500 0.931 . S
H510 C501 0.931 1_655 S
H511 C502 0.933 1_655 S
Dy512 O515 2.307 . S
Dy512 O517 2.395 . S
Dy512 O518 2.379 . S
Dy512 O520 2.339 . S
Dy512 O522 2.298 . S
Dy512 O526 2.275 . S
Dy512 C534 2.738 . S
Dy513 O516 2.298 . S
Dy513 O519 2.275 . S
Dy513 O521 2.307 . S
Dy513 O523 2.395 . S
Dy513 O524 2.379 . S
Dy513 O527 2.339 . S
Dy513 C543 2.738 . S
C514 O526 1.254 . S
C514 O527 1.257 . S
O515 Dy512 2.307 . S
O515 C525 1.266 . S
O516 Dy513 2.298 . S
O516 C525 1.236 . S
O517 Dy512 2.395 . S
O517 C534 1.255 . S
O518 Dy512 2.379 . S
O518 C534 1.249 . S
O519 Dy513 2.275 . S
O519 C535 1.254 . S
O520 Dy512 2.339 . S
O520 C535 1.257 . S
O521 Dy513 2.307 . S
O521 C536 1.266 . S
O522 Dy512 2.298 . S
O522 C536 1.236 . S
O523 Dy513 2.395 . S
O523 C543 1.255 . S
O524 Dy513 2.379 . S
O524 C543 1.249 . S
C525 O515 1.266 . S
C525 O516 1.236 . S
O526 Dy512 2.275 . S
O526 C514 1.254 . S
O527 Dy513 2.339 . S
O527 C514 1.257 . S
C528 C531 1.344 . S
C528 C532 1.328 . S
C528 C534 1.516 . S
C529 C530 1.304 . S
C529 C533 1.323 . S
C530 C529 1.304 . S
C530 C531 1.371 . S
C530 H544 0.930 . S
C531 C528 1.344 . S
C531 C530 1.371 . S
C531 H545 0.931 . S
C532 C528 1.328 . S
C532 C533 1.433 . S
C532 H546 0.931 . S
C533 C529 1.323 . S
C533 C532 1.433 . S
C533 H547 0.933 . S
C534 Dy512 2.738 . S
C534 O517 1.255 . S
C534 O518 1.249 . S
C534 C528 1.516 . S
C535 O519 1.254 . S
C535 O520 1.257 . S
C536 O521 1.266 . S
C536 O522 1.236 . S
C537 C540 1.344 . S
C537 C541 1.328 . S
C537 C543 1.516 . S
C538 C539 1.304 . S
C538 C542 1.323 . S
C539 C538 1.304 . S
C539 C540 1.371 . S
C539 H548 0.930 . S
C540 C537 1.344 . S
C540 C539 1.371 . S
C540 H549 0.931 . S
C541 C537 1.328 . S
C541 C542 1.433 . S
C541 H550 0.931 . S
C542 C538 1.323 . S
C542 C541 1.433 . S
C542 H551 0.933 . S
C543 Dy513 2.738 . S
C543 O523 1.255 . S
C543 O524 1.249 . S
C543 C537 1.516 . S
H544 C530 0.930 . S
H545 C531 0.931 . S
H546 C532 0.931 . S
H547 C533 0.933 . S
H548 C539 0.930 . S
H549 C540 0.931 . S
H550 C541 0.931 . S
H551 C542 0.933 . S
Dy552 O555 2.307 . S
Dy552 O557 2.395 . S
Dy552 O558 2.379 . S
Dy552 O560 2.339 1_556 S
Dy552 O562 2.298 1_556 S
Dy552 O566 2.275 . S
Dy552 C574 2.738 . S
Dy553 O556 2.298 . S
Dy553 O559 2.275 . S
Dy553 O561 2.307 . S
Dy553 O563 2.395 . S
Dy553 O564 2.379 . S
Dy553 O567 2.339 . S
Dy553 C583 2.738 . S
C554 O566 1.254 1_554 S
C554 O567 1.257 . S
O555 Dy552 2.307 . S
O555 C565 1.266 1_556 S
O556 Dy553 2.298 . S
O556 C565 1.236 . S
O557 Dy552 2.395 . S
O557 C574 1.255 . S
O558 Dy552 2.379 . S
O558 C574 1.249 . S
O559 Dy553 2.275 . S
O559 C575 1.254 . S
O560 Dy552 2.339 1_554 S
O560 C575 1.257 . S
O561 Dy553 2.307 . S
O561 C576 1.266 . S
O562 Dy552 2.298 1_554 S
O562 C576 1.236 . S
O563 Dy553 2.395 . S
O563 C583 1.255 . S
O564 Dy553 2.379 . S
O564 C583 1.249 . S
C565 O555 1.266 1_554 S
C565 O556 1.236 . S
O566 Dy552 2.275 . S
O566 C554 1.254 1_556 S
O567 Dy553 2.339 . S
O567 C554 1.257 . S
C568 C571 1.344 . S
C568 C572 1.328 . S
C568 C574 1.516 . S
C569 C570 1.304 . S
C569 C573 1.323 . S
C570 C569 1.304 . S
C570 C571 1.371 . S
C570 H584 0.930 . S
C571 C568 1.344 . S
C571 C570 1.371 . S
C571 H585 0.931 . S
C572 C568 1.328 . S
C572 C573 1.433 . S
C572 H586 0.931 . S
C573 C569 1.323 . S
C573 C572 1.433 . S
C573 H587 0.933 . S
C574 Dy552 2.738 . S
C574 O557 1.255 . S
C574 O558 1.249 . S
C574 C568 1.516 . S
C575 O559 1.254 . S
C575 O560 1.257 . S
C576 O561 1.266 . S
C576 O562 1.236 . S
C577 C580 1.344 . S
C577 C581 1.328 . S
C577 C583 1.516 . S
C578 C579 1.304 . S
C578 C582 1.323 1_545 S
C579 C578 1.304 . S
C579 C580 1.371 . S
C579 H588 0.930 . S
C580 C577 1.344 . S
C580 C579 1.371 . S
C580 H589 0.931 . S
C581 C577 1.328 . S
C581 C582 1.433 1_545 S
C581 H590 0.931 1_545 S
C582 C578 1.323 1_565 S
C582 C581 1.433 1_565 S
C582 H591 0.933 . S
C583 Dy553 2.738 . S
C583 O563 1.255 . S
C583 O564 1.249 . S
C583 C577 1.516 . S
H584 C570 0.930 . S
H585 C571 0.931 . S
H586 C572 0.931 . S
H587 C573 0.933 . S
H588 C579 0.930 . S
H589 C580 0.931 . S
H590 C581 0.931 1_565 S
H591 C582 0.933 . S
Dy592 O595 2.307 . S
Dy592 O597 2.395 . S
Dy592 O598 2.379 . S
Dy592 O600 2.339 . S
Dy592 O602 2.298 . S
Dy592 O606 2.275 . S
Dy592 C614 2.738 . S
Dy593 O596 2.298 . S
Dy593 O599 2.275 . S
Dy593 O601 2.307 . S
Dy593 O603 2.395 . S
Dy593 O604 2.379 . S
Dy593 O607 2.339 . S
Dy593 C623 2.738 . S
C594 O606 1.254 . S
C594 O607 1.257 . S
O595 Dy592 2.307 . S
O595 C605 1.266 . S
O596 Dy593 2.298 . S
O596 C605 1.236 . S
O597 Dy592 2.395 . S
O597 C614 1.255 . S
O598 Dy592 2.379 . S
O598 C614 1.249 . S
O599 Dy593 2.275 . S
O599 C615 1.254 . S
O600 Dy592 2.339 . S
O600 C615 1.257 . S
O601 Dy593 2.307 . S
O601 C616 1.266 . S
O602 Dy592 2.298 . S
O602 C616 1.236 . S
O603 Dy593 2.395 . S
O603 C623 1.255 . S
O604 Dy593 2.379 . S
O604 C623 1.249 . S
C605 O595 1.266 . S
C605 O596 1.236 . S
O606 Dy592 2.275 . S
O606 C594 1.254 . S
O607 Dy593 2.339 . S
O607 C594 1.257 . S
C608 C611 1.344 . S
C608 C612 1.328 . S
C608 C614 1.516 . S
C609 C610 1.304 . S
C609 C613 1.323 . S
C610 C609 1.304 . S
C610 C611 1.371 . S
C610 H624 0.930 . S
C611 C608 1.344 . S
C611 C610 1.371 . S
C611 H625 0.931 . S
C612 C608 1.328 . S
C612 C613 1.433 . S
C612 H626 0.931 . S
C613 C609 1.323 . S
C613 C612 1.433 . S
C613 H627 0.933 . S
C614 Dy592 2.738 . S
C614 O597 1.255 . S
C614 O598 1.249 . S
C614 C608 1.516 . S
C615 O599 1.254 . S
C615 O600 1.257 . S
C616 O601 1.266 . S
C616 O602 1.236 . S
C617 C620 1.344 . S
C617 C621 1.328 . S
C617 C623 1.516 . S
C618 C619 1.304 . S
C618 C622 1.323 . S
C619 C618 1.304 . S
C619 C620 1.371 . S
C619 H628 0.930 . S
C620 C617 1.344 . S
C620 C619 1.371 . S
C620 H629 0.931 . S
C621 C617 1.328 . S
C621 C622 1.433 . S
C621 H630 0.931 . S
C622 C618 1.323 . S
C622 C621 1.433 . S
C622 H631 0.933 . S
C623 Dy593 2.738 . S
C623 O603 1.255 . S
C623 O604 1.249 . S
C623 C617 1.516 . S
H624 C610 0.930 . S
H625 C611 0.931 . S
H626 C612 0.931 . S
H627 C613 0.933 . S
H628 C619 0.930 . S
H629 C620 0.931 . S
H630 C621 0.931 . S
H631 C622 0.933 . S
Dy632 O635 2.307 1_554 S
Dy632 O637 2.395 . S
Dy632 O638 2.379 . S
Dy632 O640 2.339 . S
Dy632 O642 2.298 . S
Dy632 O646 2.275 . S
Dy632 C654 2.738 . S
Dy633 O636 2.298 1_554 S
Dy633 O639 2.275 . S
Dy633 O641 2.307 . S
Dy633 O643 2.409 . S
Dy633 O644 2.379 . S
Dy633 O647 2.339 . S
Dy633 C663 2.738 1_554 S
C634 O646 1.254 . S
C634 O647 1.257 . S
O635 Dy632 2.307 1_556 S
O635 C645 1.266 . S
O636 Dy633 2.298 1_556 S
O636 C645 1.236 . S
O637 Dy632 2.395 . S
O637 C654 1.255 . S
O638 Dy632 2.379 . S
O638 C654 1.249 . S
O639 Dy633 2.275 . S
O639 C655 1.254 . S
O640 Dy632 2.339 . S
O640 C655 1.257 . S
O641 Dy633 2.307 . S
O641 C656 1.266 . S
O642 Dy632 2.298 . S
O642 C656 1.236 . S
O643 Dy633 2.409 . S
O643 C663 1.255 1_554 S
O644 Dy633 2.379 . S
O644 C663 1.249 1_554 S
C645 O635 1.266 . S
C645 O636 1.236 . S
O646 Dy632 2.275 . S
O646 C634 1.254 . S
O647 Dy633 2.339 . S
O647 C634 1.257 . S
C648 C651 1.344 . S
C648 C652 1.328 . S
C648 C654 1.516 . S
C649 C650 1.304 . S
C649 C653 1.323 . S
C650 C649 1.304 . S
C650 C651 1.371 . S
C650 H664 0.930 . S
C651 C648 1.344 . S
C651 C650 1.371 . S
C651 H665 0.931 . S
C652 C648 1.328 . S
C652 C653 1.433 . S
C652 H666 0.931 . S
C653 C649 1.323 . S
C653 C652 1.433 . S
C653 H667 0.933 . S
C654 Dy632 2.738 . S
C654 O637 1.255 . S
C654 O638 1.249 . S
C654 C648 1.516 . S
C655 O639 1.254 . S
C655 O640 1.257 . S
C656 O641 1.266 . S
C656 O642 1.236 . S
C657 C660 1.344 . S
C657 C661 1.328 . S
C657 C663 1.516 . S
C658 C659 1.304 . S
C658 C662 1.323 . S
C659 C658 1.304 . S
C659 C660 1.371 . S
C659 H668 0.930 . S
C660 C657 1.344 . S
C660 C659 1.371 . S
C660 H669 0.931 . S
C661 C657 1.328 . S
C661 C662 1.433 . S
C661 H670 0.931 . S
C662 C658 1.323 . S
C662 C661 1.433 . S
C662 H671 0.933 . S
C663 Dy633 2.738 1_556 S
C663 O643 1.255 1_556 S
C663 O644 1.249 1_556 S
C663 C657 1.516 . S
H664 C650 0.930 . S
H665 C651 0.931 . S
H666 C652 0.931 . S
H667 C653 0.933 . S
H668 C659 0.930 . S
H669 C660 0.931 . S
H670 C661 0.931 . S
H671 C662 0.933 . S
Dy672 O675 2.307 . S
Dy672 O677 2.395 . S
Dy672 O678 2.379 . S
Dy672 O680 2.339 . S
Dy672 O682 2.298 . S
Dy672 O686 2.275 . S
Dy672 C694 2.738 . S
Dy673 O676 2.298 . S
Dy673 O679 2.275 . S
Dy673 O681 2.307 . S
Dy673 O683 2.395 . S
Dy673 O684 2.379 . S
Dy673 O687 2.339 . S
Dy673 C703 2.738 . S
C674 O686 1.254 . S
C674 O687 1.257 . S
O675 Dy672 2.307 . S
O675 C685 1.266 . S
O676 Dy673 2.298 . S
O676 C685 1.236 . S
O677 Dy672 2.395 . S
O677 C694 1.255 . S
O678 Dy672 2.379 . S
O678 C694 1.249 . S
O679 Dy673 2.275 . S
O679 C695 1.254 . S
O680 Dy672 2.339 . S
O680 C695 1.257 . S
O681 Dy673 2.307 . S
O681 C696 1.266 . S
O682 Dy672 2.298 . S
O682 C696 1.236 . S
O683 Dy673 2.395 . S
O683 C703 1.255 . S
O684 Dy673 2.379 . S
O684 C703 1.249 . S
C685 O675 1.266 . S
C685 O676 1.236 . S
O686 Dy672 2.275 . S
O686 C674 1.254 . S
O687 Dy673 2.339 . S
O687 C674 1.257 . S
C688 C691 1.344 . S
C688 C692 1.328 . S
C688 C694 1.516 . S
C689 C690 1.304 . S
C689 C693 1.323 . S
C690 C689 1.304 . S
C690 C691 1.371 . S
C690 H704 0.930 . S
C691 C688 1.344 . S
C691 C690 1.371 . S
C691 H705 0.931 . S
C692 C688 1.328 . S
C692 C693 1.433 . S
C692 H706 0.931 . S
C693 C689 1.323 . S
C693 C692 1.433 . S
C693 H707 0.933 . S
C694 Dy672 2.738 . S
C694 O677 1.255 . S
C694 O678 1.249 . S
C694 C688 1.516 . S
C695 O679 1.254 . S
C695 O680 1.257 . S
C696 O681 1.266 . S
C696 O682 1.236 . S
C697 C700 1.344 . S
C697 C701 1.328 . S
C697 C703 1.516 . S
C698 C699 1.304 . S
C698 C702 1.323 . S
C699 C698 1.304 . S
C699 C700 1.371 . S
C699 H708 0.930 . S
C700 C697 1.344 . S
C700 C699 1.371 . S
C700 H709 0.931 . S
C701 C697 1.328 . S
C701 C702 1.433 . S
C701 H710 0.931 . S
C702 C698 1.323 . S
C702 C701 1.433 . S
C702 H711 0.933 . S
C703 Dy673 2.738 . S
C703 O683 1.255 . S
C703 O684 1.249 . S
C703 C697 1.516 . S
H704 C690 0.930 . S
H705 C691 0.931 . S
H706 C692 0.931 . S
H707 C693 0.933 . S
H708 C699 0.930 . S
H709 C700 0.931 . S
H710 C701 0.931 . S
H711 C702 0.933 . S
Dy712 O715 2.307 1_455 S
Dy712 O717 2.395 . S
Dy712 O718 2.379 . S
Dy712 O720 2.339 . S
Dy712 O722 2.298 . S
Dy712 O726 2.275 . S
Dy712 C734 2.738 . S
Dy713 O716 2.298 1_455 S
Dy713 O719 2.275 . S
Dy713 O721 2.307 . S
Dy713 O723 2.395 1_455 S
Dy713 O724 2.379 . S
Dy713 O727 2.339 . S
Dy713 C743 2.738 1_455 S
C714 O726 1.254 . S
C714 O727 1.257 . S
O715 Dy712 2.307 1_655 S
O715 C725 1.266 . S
O716 Dy713 2.298 1_655 S
O716 C725 1.236 . S
O717 Dy712 2.395 . S
O717 C734 1.255 . S
O718 Dy712 2.379 . S
O718 C734 1.249 . S
O719 Dy713 2.275 . S
O719 C735 1.254 . S
O720 Dy712 2.339 . S
O720 C735 1.257 . S
O721 Dy713 2.307 . S
O721 C736 1.266 . S
O722 Dy712 2.298 . S
O722 C736 1.236 . S
O723 Dy713 2.395 1_655 S
O723 C743 1.255 . S
O724 Dy713 2.379 . S
O724 C743 1.249 1_455 S
C725 O715 1.266 . S
C725 O716 1.236 . S
O726 Dy712 2.275 . S
O726 C714 1.254 . S
O727 Dy713 2.339 . S
O727 C714 1.257 . S
C728 C731 1.344 . S
C728 C732 1.328 . S
C728 C734 1.516 . S
C729 C730 1.304 . S
C729 C733 1.323 . S
C730 C729 1.304 . S
C730 C731 1.371 . S
C730 H744 0.930 . S
C731 C728 1.344 . S
C731 C730 1.371 . S
C731 H745 0.931 . S
C732 C728 1.328 . S
C732 C733 1.433 . S
C732 H746 0.931 . S
C733 C729 1.323 . S
C733 C732 1.433 . S
C733 H747 0.933 . S
C734 Dy712 2.738 . S
C734 O717 1.255 . S
C734 O718 1.249 . S
C734 C728 1.516 . S
C735 O719 1.254 . S
C735 O720 1.257 . S
C736 O721 1.266 . S
C736 O722 1.236 . S
C737 C740 1.344 . S
C737 C741 1.328 . S
C737 C743 1.516 . S
C738 C739 1.304 . S
C738 C742 1.323 . S
C739 C738 1.304 . S
C739 C740 1.371 . S
C739 H748 0.930 . S
C740 C737 1.344 . S
C740 C739 1.371 . S
C740 H749 0.931 . S
C741 C737 1.328 . S
C741 C742 1.433 . S
C741 H750 0.931 . S
C742 C738 1.323 . S
C742 C741 1.433 . S
C742 H751 0.933 . S
C743 Dy713 2.738 1_655 S
C743 O723 1.255 . S
C743 O724 1.249 1_655 S
C743 C737 1.516 . S
H744 C730 0.930 . S
H745 C731 0.931 . S
H746 C732 0.931 . S
H747 C733 0.933 . S
H748 C739 0.930 . S
H749 C740 0.931 . S
H750 C741 0.931 . S
H751 C742 0.933 . S
Dy752 O755 2.307 . S
Dy752 O757 2.395 . S
Dy752 O758 2.379 . S
Dy752 O760 2.339 . S
Dy752 O762 2.298 . S
Dy752 O766 2.275 . S
Dy752 C774 2.738 . S
Dy753 O756 2.298 . S
Dy753 O759 2.275 . S
Dy753 O761 2.307 . S
Dy753 O763 2.395 . S
Dy753 O764 2.379 . S
Dy753 O767 2.339 . S
Dy753 C783 2.738 . S
C754 O766 1.254 . S
C754 O767 1.257 . S
O755 Dy752 2.307 . S
O755 C765 1.266 . S
O756 Dy753 2.298 . S
O756 C765 1.236 . S
O757 Dy752 2.395 . S
O757 C774 1.255 . S
O758 Dy752 2.379 . S
O758 C774 1.249 . S
O759 Dy753 2.275 . S
O759 C775 1.254 . S
O760 Dy752 2.339 . S
O760 C775 1.257 . S
O761 Dy753 2.307 . S
O761 C776 1.266 . S
O762 Dy752 2.298 . S
O762 C776 1.236 . S
O763 Dy753 2.395 . S
O763 C783 1.255 . S
O764 Dy753 2.379 . S
O764 C783 1.249 . S
C765 O755 1.266 . S
C765 O756 1.236 . S
O766 Dy752 2.275 . S
O766 C754 1.254 . S
O767 Dy753 2.339 . S
O767 C754 1.257 . S
C768 C771 1.344 . S
C768 C772 1.328 . S
C768 C774 1.516 . S
C769 C770 1.304 . S
C769 C773 1.323 . S
C770 C769 1.304 . S
C770 C771 1.371 . S
C770 H784 0.930 . S
C771 C768 1.344 . S
C771 C770 1.371 . S
C771 H785 0.931 . S
C772 C768 1.328 . S
C772 C773 1.433 . S
C772 H786 0.931 . S
C773 C769 1.323 . S
C773 C772 1.433 . S
C773 H787 0.933 . S
C774 Dy752 2.738 . S
C774 O757 1.255 . S
C774 O758 1.249 . S
C774 C768 1.516 . S
C775 O759 1.254 . S
C775 O760 1.257 . S
C776 O761 1.266 . S
C776 O762 1.236 . S
C777 C780 1.344 . S
C777 C781 1.328 . S
C777 C783 1.516 . S
C778 C779 1.304 . S
C778 C782 1.323 . S
C779 C778 1.304 . S
C779 C780 1.371 . S
C779 H788 0.930 . S
C780 C777 1.344 . S
C780 C779 1.371 . S
C780 H789 0.931 . S
C781 C777 1.328 . S
C781 C782 1.433 . S
C781 H790 0.931 . S
C782 C778 1.323 . S
C782 C781 1.433 . S
C782 H791 0.933 . S
C783 Dy753 2.738 . S
C783 O763 1.255 . S
C783 O764 1.249 . S
C783 C777 1.516 . S
H784 C770 0.930 . S
H785 C771 0.931 . S
H786 C772 0.931 . S
H787 C773 0.933 . S
H788 C779 0.930 . S
H789 C780 0.931 . S
H790 C781 0.931 . S
H791 C782 0.933 . S
Dy792 O795 2.307 . S
Dy792 O797 2.395 . S
Dy792 O798 2.379 . S
Dy792 O800 2.339 . S
Dy792 O802 2.298 . S
Dy792 O806 2.275 . S
Dy792 C814 2.738 . S
Dy793 O796 2.298 . S
Dy793 O799 2.275 . S
Dy793 O801 2.307 . S
Dy793 O803 2.395 . S
Dy793 O804 2.379 . S
Dy793 O807 2.339 . S
Dy793 C823 2.738 . S
C794 O806 1.254 . S
C794 O807 1.257 . S
O795 Dy792 2.307 . S
O795 C805 1.266 . S
O796 Dy793 2.298 . S
O796 C805 1.236 . S
O797 Dy792 2.395 . S
O797 C814 1.255 . S
O798 Dy792 2.379 . S
O798 C814 1.249 . S
O799 Dy793 2.275 . S
O799 C815 1.254 . S
O800 Dy792 2.339 . S
O800 C815 1.257 . S
O801 Dy793 2.307 . S
O801 C816 1.266 . S
O802 Dy792 2.298 . S
O802 C816 1.236 . S
O803 Dy793 2.395 . S
O803 C823 1.255 . S
O804 Dy793 2.379 . S
O804 C823 1.249 . S
C805 O795 1.266 . S
C805 O796 1.236 . S
O806 Dy792 2.275 . S
O806 C794 1.254 . S
O807 Dy793 2.339 . S
O807 C794 1.257 . S
C808 C811 1.344 . S
C808 C812 1.328 . S
C808 C814 1.516 . S
C809 C810 1.304 . S
C809 C813 1.323 . S
C810 C809 1.304 . S
C810 C811 1.371 . S
C810 H824 0.930 . S
C811 C808 1.344 . S
C811 C810 1.371 . S
C811 H825 0.931 . S
C812 C808 1.328 . S
C812 C813 1.433 . S
C812 H826 0.931 . S
C813 C809 1.323 . S
C813 C812 1.433 . S
C813 H827 0.933 . S
C814 Dy792 2.738 . S
C814 O797 1.255 . S
C814 O798 1.249 . S
C814 C808 1.516 . S
C815 O799 1.254 . S
C815 O800 1.257 . S
C816 O801 1.266 . S
C816 O802 1.236 . S
C817 C820 1.344 . S
C817 C821 1.328 . S
C817 C823 1.516 . S
C818 C819 1.304 . S
C818 C822 1.323 . S
C819 C818 1.304 . S
C819 C820 1.371 . S
C819 H828 0.930 . S
C820 C817 1.344 . S
C820 C819 1.371 . S
C820 H829 0.931 . S
C821 C817 1.328 . S
C821 C822 1.433 . S
C821 H830 0.931 . S
C822 C818 1.323 . S
C822 C821 1.433 . S
C822 H831 0.933 . S
C823 Dy793 2.738 . S
C823 O803 1.255 . S
C823 O804 1.249 . S
C823 C817 1.516 . S
H824 C810 0.930 . S
H825 C811 0.931 . S
H826 C812 0.931 . S
H827 C813 0.933 . S
H828 C819 0.930 . S
H829 C820 0.931 . S
H830 C821 0.931 . S
H831 C822 0.933 . S
Dy832 O835 2.307 . S
Dy832 O837 2.395 . S
Dy832 O838 2.379 . S
Dy832 O840 2.339 . S
Dy832 O842 2.298 . S
Dy832 O846 2.275 . S
Dy832 C854 2.738 . S
Dy833 O836 2.298 . S
Dy833 O839 2.275 . S
Dy833 O841 2.307 . S
Dy833 O843 2.395 . S
Dy833 O844 2.379 . S
Dy833 O847 2.339 . S
Dy833 C863 2.738 . S
C834 O846 1.254 . S
C834 O847 1.257 . S
O835 Dy832 2.307 . S
O835 C845 1.266 . S
O836 Dy833 2.298 . S
O836 C845 1.236 . S
O837 Dy832 2.395 . S
O837 C854 1.255 . S
O838 Dy832 2.379 . S
O838 C854 1.249 . S
O839 Dy833 2.275 . S
O839 C855 1.254 . S
O840 Dy832 2.339 . S
O840 C855 1.257 . S
O841 Dy833 2.307 . S
O841 C856 1.266 . S
O842 Dy832 2.298 . S
O842 C856 1.236 . S
O843 Dy833 2.395 . S
O843 C863 1.255 . S
O844 Dy833 2.379 . S
O844 C863 1.249 . S
C845 O835 1.266 . S
C845 O836 1.236 . S
O846 Dy832 2.275 . S
O846 C834 1.254 . S
O847 Dy833 2.339 . S
O847 C834 1.257 . S
C848 C851 1.344 . S
C848 C852 1.328 . S
C848 C854 1.516 . S
C849 C850 1.304 . S
C849 C853 1.323 . S
C850 C849 1.304 . S
C850 C851 1.371 . S
C850 H864 0.930 . S
C851 C848 1.344 . S
C851 C850 1.371 . S
C851 H865 0.931 . S
C852 C848 1.328 . S
C852 C853 1.433 . S
C852 H866 0.931 . S
C853 C849 1.323 . S
C853 C852 1.433 . S
C853 H867 0.933 . S
C854 Dy832 2.738 . S
C854 O837 1.255 . S
C854 O838 1.249 . S
C854 C848 1.516 . S
C855 O839 1.254 . S
C855 O840 1.257 . S
C856 O841 1.266 . S
C856 O842 1.236 . S
C857 C860 1.344 . S
C857 C861 1.328 . S
C857 C863 1.516 . S
C858 C859 1.304 . S
C858 C862 1.323 . S
C859 C858 1.304 . S
C859 C860 1.371 . S
C859 H868 0.930 . S
C860 C857 1.344 . S
C860 C859 1.371 . S
C860 H869 0.931 . S
C861 C857 1.328 . S
C861 C862 1.433 . S
C861 H870 0.931 . S
C862 C858 1.323 . S
C862 C861 1.433 . S
C862 H871 0.933 . S
C863 Dy833 2.738 . S
C863 O843 1.255 . S
C863 O844 1.249 . S
C863 C857 1.516 . S
H864 C850 0.930 . S
H865 C851 0.931 . S
H866 C852 0.931 . S
H867 C853 0.933 . S
H868 C859 0.930 . S
H869 C860 0.931 . S
H870 C861 0.931 . S
H871 C862 0.933 . S
Dy872 O875 2.307 . S
Dy872 O877 2.395 . S
Dy872 O878 2.379 . S
Dy872 O880 2.339 . S
Dy872 O882 2.298 . S
Dy872 O886 2.275 . S
Dy872 C894 2.738 . S
Dy873 O876 2.298 . S
Dy873 O879 2.275 . S
Dy873 O881 2.307 . S
Dy873 O883 2.395 . S
Dy873 O884 2.379 . S
Dy873 O887 2.339 . S
Dy873 C903 2.738 . S
C874 O886 1.254 . S
C874 O887 1.257 . S
O875 Dy872 2.307 . S
O875 C885 1.266 . S
O876 Dy873 2.298 . S
O876 C885 1.236 . S
O877 Dy872 2.395 . S
O877 C894 1.255 . S
O878 Dy872 2.379 . S
O878 C894 1.249 . S
O879 Dy873 2.275 . S
O879 C895 1.254 . S
O880 Dy872 2.339 . S
O880 C895 1.257 . S
O881 Dy873 2.307 . S
O881 C896 1.266 . S
O882 Dy872 2.298 . S
O882 C896 1.236 . S
O883 Dy873 2.395 . S
O883 C903 1.255 . S
O884 Dy873 2.379 . S
O884 C903 1.249 . S
C885 O875 1.266 . S
C885 O876 1.236 . S
O886 Dy872 2.275 . S
O886 C874 1.254 . S
O887 Dy873 2.339 . S
O887 C874 1.257 . S
C888 C891 1.344 . S
C888 C892 1.328 . S
C888 C894 1.516 . S
C889 C890 1.304 . S
C889 C893 1.323 . S
C890 C889 1.304 . S
C890 C891 1.371 . S
C890 H904 0.930 . S
C891 C888 1.344 . S
C891 C890 1.371 . S
C891 H905 0.931 . S
C892 C888 1.328 . S
C892 C893 1.433 . S
C892 H906 0.931 . S
C893 C889 1.323 . S
C893 C892 1.433 . S
C893 H907 0.933 . S
C894 Dy872 2.738 . S
C894 O877 1.255 . S
C894 O878 1.249 . S
C894 C888 1.516 . S
C895 O879 1.254 . S
C895 O880 1.257 . S
C896 O881 1.266 . S
C896 O882 1.236 . S
C897 C900 1.344 . S
C897 C901 1.328 . S
C897 C903 1.516 . S
C898 C899 1.304 . S
C898 C902 1.323 . S
C899 C898 1.304 . S
C899 C900 1.371 . S
C899 H908 0.930 . S
C900 C897 1.344 . S
C900 C899 1.371 . S
C900 H909 0.931 . S
C901 C897 1.328 . S
C901 C902 1.433 . S
C901 H910 0.931 . S
C902 C898 1.323 . S
C902 C901 1.433 . S
C902 H911 0.933 . S
C903 Dy873 2.738 . S
C903 O883 1.255 . S
C903 O884 1.249 . S
C903 C897 1.516 . S
H904 C890 0.930 . S
H905 C891 0.931 . S
H906 C892 0.931 . S
H907 C893 0.933 . S
H908 C899 0.930 . S
H909 C900 0.931 . S
H910 C901 0.931 . S
H911 C902 0.933 . S
Dy912 O915 2.330 . S
Dy912 O917 2.395 . S
Dy912 O918 2.379 . S
Dy912 O920 2.339 1_655 S
Dy912 O922 2.298 1_655 S
Dy912 O926 2.275 1_655 S
Dy912 C934 2.738 . S
Dy913 O916 2.298 . S
Dy913 O919 2.275 . S
Dy913 O921 2.307 . S
Dy913 O923 2.395 . S
Dy913 O924 2.379 . S
Dy913 O927 2.339 1_554 S
Dy913 C943 2.738 . S
C914 O926 1.254 . S
C914 O927 1.257 1_554 S
O915 Dy912 2.330 . S
O915 C925 1.228 1_655 S
O916 Dy913 2.298 . S
O916 C925 1.236 . S
O917 Dy912 2.395 . S
O917 C934 1.255 . S
O918 Dy912 2.379 . S
O918 C934 1.249 . S
O919 Dy913 2.275 . S
O919 C935 1.254 . S
O920 Dy912 2.339 1_455 S
O920 C935 1.257 . S
O921 Dy913 2.307 . S
O921 C936 1.266 . S
O922 Dy912 2.298 1_455 S
O922 C936 1.236 . S
O923 Dy913 2.395 . S
O923 C943 1.255 . S
O924 Dy913 2.379 . S
O924 C943 1.249 . S
C925 O915 1.228 1_455 S
C925 O916 1.236 . S
O926 Dy912 2.275 1_455 S
O926 C914 1.254 . S
O927 Dy913 2.339 1_556 S
O927 C914 1.257 1_556 S
C928 C931 1.344 . S
C928 C932 1.328 . S
C928 C934 1.516 . S
C929 C930 1.304 . S
C929 C933 1.323 . S
C930 C929 1.304 . S
C930 C931 1.371 . S
C930 H944 0.930 . S
C931 C928 1.344 . S
C931 C930 1.371 . S
C931 H945 0.931 . S
C932 C928 1.328 . S
C932 C933 1.433 . S
C932 H946 0.931 . S
C933 C929 1.323 . S
C933 C932 1.433 . S
C933 H947 0.933 . S
C934 Dy912 2.738 . S
C934 O917 1.255 . S
C934 O918 1.249 . S
C934 C928 1.516 . S
C935 O919 1.254 . S
C935 O920 1.257 . S
C936 O921 1.266 . S
C936 O922 1.236 . S
C937 C940 1.344 . S
C937 C941 1.328 . S
C937 C943 1.516 . S
C938 C939 1.304 . S
C938 C942 1.361 . S
C939 C938 1.304 . S
C939 C940 1.371 . S
C939 H948 0.930 . S
C940 C937 1.344 . S
C940 C939 1.371 . S
C940 H949 0.931 . S
C941 C937 1.328 . S
C941 C942 1.439 . S
C941 H950 0.931 1_554 S
C942 C938 1.361 . S
C942 C941 1.439 . S
C942 H951 0.889 1_554 S
C943 Dy913 2.738 . S
C943 O923 1.255 . S
C943 O924 1.249 . S
C943 C937 1.516 . S
H944 C930 0.930 . S
H945 C931 0.931 . S
H946 C932 0.931 . S
H947 C933 0.933 . S
H948 C939 0.930 . S
H949 C940 0.931 . S
H950 C941 0.931 1_556 S
H951 C942 0.889 1_556 S
H952 C960 0.929 . S
H953 C962 0.930 . S
H954 C964 0.930 . S
H955 C967 0.929 . S
H956 C970 0.930 . S
H957 C972 0.960 . S
H958 C972 0.960 . S
H959 C972 0.960 . S
C960 H952 0.929 . S
C960 C961 1.377 . S
C960 C962 1.384 . S
C961 C960 1.377 . S
C961 C967 1.390 1_455 S
C962 H953 0.930 . S
C962 C960 1.384 . S
C962 C963 1.372 . S
C963 C962 1.372 . S
C963 C964 1.400 1_455 S
C963 C968 1.490 . S
C964 H954 0.930 . S
C964 C963 1.400 1_655 S
C964 C967 1.386 . S
H965 C981 0.930 . S
H966 C982 0.931 . S
C967 H955 0.929 . S
C967 C961 1.390 1_655 S
C967 C964 1.386 . S
C968 C963 1.490 . S
C968 C970 1.395 1_556 S
C968 C971 1.403 . S
H969 C975 0.930 . S
C970 H956 0.930 . S
C970 C968 1.395 1_554 S
C970 C973 1.403 . S
C971 C968 1.403 . S
C971 C972 1.524 1_455 S
C971 C975 1.400 . S
C972 H957 0.960 . S
C972 H958 0.960 . S
C972 H959 0.960 . S
C972 C971 1.524 1_655 S
C973 C970 1.403 . S
C973 C974 1.392 . S
C973 C977 1.495 . S
C974 C973 1.392 . S
C974 C975 1.385 1_554 S
C974 C976 1.478 . S
C975 H969 0.930 . S
C975 C971 1.400 . S
C975 C974 1.385 1_556 S
C976 C974 1.478 . S
C976 C978 1.381 . S
C976 C982 1.383 . S
C977 C973 1.495 . S
C977 H983 0.959 . S
C977 H984 0.961 . S
C977 H985 0.960 . S
C978 C976 1.381 . S
C978 C979 1.394 . S
C978 H986 0.930 . S
C979 C978 1.394 . S
C979 C980 1.383 . S
C979 H987 0.929 . S
C980 C979 1.383 . S
C980 C981 1.377 . S
C981 H965 0.930 . S
C981 C980 1.377 . S
C981 C982 1.379 . S
C982 H966 0.931 . S
C982 C976 1.383 . S
C982 C981 1.379 . S
H983 C977 0.959 . S
H984 C977 0.961 . S
H985 C977 0.960 . S
H986 C978 0.930 . S
H987 C979 0.929 . S
H988 C996 0.929 . S
H989 C998 0.930 . S
H990 C1000 0.930 . S
H991 C1003 0.929 . S
H992 C1006 0.930 . S
H993 C1008 0.960 . S
H994 C1008 0.960 . S
H995 C1008 0.960 . S
C996 H988 0.929 . S
C996 C997 1.377 . S
C996 C998 1.384 . S
C997 C996 1.377 . S
C997 C1003 1.390 . S
C998 H989 0.930 . S
C998 C996 1.384 . S
C998 C999 1.372 . S
C999 C998 1.372 . S
C999 C1000 1.400 . S
C999 C1004 1.490 . S
C1000 H990 0.930 . S
C1000 C999 1.400 . S
C1000 C1003 1.386 . S
H1001 C1017 0.930 . S
H1002 C1018 0.931 . S
C1003 H991 0.929 . S
C1003 C997 1.390 . S
C1003 C1000 1.386 . S
C1004 C999 1.490 . S
C1004 C1006 1.395 . S
C1004 C1007 1.403 . S
H1005 C1011 0.930 . S
C1006 H992 0.930 . S
C1006 C1004 1.395 . S
C1006 C1009 1.403 . S
C1007 C1004 1.403 . S
C1007 C1008 1.524 . S
C1007 C1011 1.400 . S
C1008 H993 0.960 . S
C1008 H994 0.960 . S
C1008 H995 0.960 . S
C1008 C1007 1.524 . S
C1009 C1006 1.403 . S
C1009 C1010 1.392 . S
C1009 C1013 1.495 . S
C1010 C1009 1.392 . S
C1010 C1011 1.385 . S
C1010 C1012 1.478 . S
C1011 H1005 0.930 . S
C1011 C1007 1.400 . S
C1011 C1010 1.385 . S
C1012 C1010 1.478 . S
C1012 C1014 1.381 . S
C1012 C1018 1.383 . S
C1013 C1009 1.495 . S
C1013 H1019 0.959 . S
C1013 H1020 0.961 . S
C1013 H1021 0.960 . S
C1014 C1012 1.381 . S
C1014 C1015 1.394 . S
C1014 H1022 0.930 . S
C1015 C1014 1.394 . S
C1015 C1016 1.383 . S
C1015 H1023 0.929 . S
C1016 C1015 1.383 . S
C1016 C1017 1.377 . S
C1017 H1001 0.930 . S
C1017 C1016 1.377 . S
C1017 C1018 1.379 . S
C1018 H1002 0.931 . S
C1018 C1012 1.383 . S
C1018 C1017 1.379 . S
H1019 C1013 0.959 . S
H1020 C1013 0.961 . S
H1021 C1013 0.960 . S
H1022 C1014 0.930 . S
H1023 C1015 0.929 . S
H1024 C1032 0.929 . S
H1025 C1034 0.930 . S
H1026 C1036 0.930 . S
H1027 C1039 0.929 . S
H1028 C1042 0.930 . S
H1029 C1044 0.960 . S
H1030 C1044 0.960 . S
H1031 C1044 0.960 . S
C1032 H1024 0.929 . S
C1032 C1033 1.377 . S
C1032 C1034 1.384 . S
C1033 C1032 1.377 . S
C1033 C1039 1.390 . S
C1034 H1025 0.930 . S
C1034 C1032 1.384 . S
C1034 C1035 1.372 . S
C1035 C1034 1.372 . S
C1035 C1036 1.400 . S
C1035 C1040 1.490 . S
C1036 H1026 0.930 . S
C1036 C1035 1.400 . S
C1036 C1039 1.386 . S
H1037 C1053 0.930 . S
H1038 C1054 0.931 . S
C1039 H1027 0.929 . S
C1039 C1033 1.390 . S
C1039 C1036 1.386 . S
C1040 C1035 1.490 . S
C1040 C1042 1.395 . S
C1040 C1043 1.403 . S
H1041 C1047 0.930 . S
C1042 H1028 0.930 . S
C1042 C1040 1.395 . S
C1042 C1045 1.403 . S
C1043 C1040 1.403 . S
C1043 C1044 1.524 . S
C1043 C1047 1.400 . S
C1044 H1029 0.960 . S
C1044 H1030 0.960 . S
C1044 H1031 0.960 . S
C1044 C1043 1.524 . S
C1045 C1042 1.403 . S
C1045 C1046 1.392 . S
C1045 C1049 1.495 . S
C1046 C1045 1.392 . S
C1046 C1047 1.385 . S
C1046 C1048 1.478 . S
C1047 H1041 0.930 . S
C1047 C1043 1.400 . S
C1047 C1046 1.385 . S
C1048 C1046 1.478 . S
C1048 C1050 1.381 . S
C1048 C1054 1.383 . S
C1049 C1045 1.495 . S
C1049 H1055 0.959 . S
C1049 H1056 0.961 . S
C1049 H1057 0.960 . S
C1050 C1048 1.381 . S
C1050 C1051 1.394 . S
C1050 H1058 0.930 . S
C1051 C1050 1.394 . S
C1051 C1052 1.383 . S
C1051 H1059 0.929 . S
C1052 C1051 1.383 . S
C1052 C1053 1.377 . S
C1053 H1037 0.930 . S
C1053 C1052 1.377 . S
C1053 C1054 1.379 . S
C1054 H1038 0.931 . S
C1054 C1048 1.383 . S
C1054 C1053 1.379 . S
H1055 C1049 0.959 . S
H1056 C1049 0.961 . S
H1057 C1049 0.960 . S
H1058 C1050 0.930 . S
H1059 C1051 0.929 . S
H1060 C1068 0.929 . S
H1061 C1070 0.930 . S
H1062 C1072 0.930 . S
H1063 C1075 0.929 . S
H1064 C1078 0.930 . S
H1065 C1080 0.960 . S
H1066 C1080 0.960 . S
H1067 C1080 0.960 . S
C1068 H1060 0.929 . S
C1068 C1069 1.377 . S
C1068 C1070 1.384 . S
C1069 C1068 1.377 . S
C1069 C1075 1.390 . S
C1070 H1061 0.930 . S
C1070 C1068 1.384 . S
C1070 C1071 1.372 . S
C1071 C1070 1.372 . S
C1071 C1072 1.400 . S
C1071 C1076 1.490 . S
C1072 H1062 0.930 . S
C1072 C1071 1.400 . S
C1072 C1075 1.386 . S
H1073 C1089 0.930 . S
H1074 C1090 0.931 . S
C1075 H1063 0.929 . S
C1075 C1069 1.390 . S
C1075 C1072 1.386 . S
C1076 C1071 1.490 . S
C1076 C1078 1.395 . S
C1076 C1079 1.403 . S
H1077 C1083 0.930 . S
C1078 H1064 0.930 . S
C1078 C1076 1.395 . S
C1078 C1081 1.403 . S
C1079 C1076 1.403 . S
C1079 C1080 1.524 . S
C1079 C1083 1.400 . S
C1080 H1065 0.960 . S
C1080 H1066 0.960 . S
C1080 H1067 0.960 . S
C1080 C1079 1.524 . S
C1081 C1078 1.403 . S
C1081 C1082 1.392 . S
C1081 C1085 1.495 . S
C1082 C1081 1.392 . S
C1082 C1083 1.385 . S
C1082 C1084 1.478 . S
C1083 H1077 0.930 . S
C1083 C1079 1.400 . S
C1083 C1082 1.385 . S
C1084 C1082 1.478 . S
C1084 C1086 1.381 . S
C1084 C1090 1.383 . S
C1085 C1081 1.495 . S
C1085 H1091 0.959 . S
C1085 H1092 0.961 . S
C1085 H1093 0.960 . S
C1086 C1084 1.381 . S
C1086 C1087 1.394 . S
C1086 H1094 0.930 . S
C1087 C1086 1.394 . S
C1087 C1088 1.383 . S
C1087 H1095 0.929 . S
C1088 C1087 1.383 . S
C1088 C1089 1.377 . S
C1089 H1073 0.930 . S
C1089 C1088 1.377 . S
C1089 C1090 1.379 . S
C1090 H1074 0.931 . S
C1090 C1084 1.383 . S
C1090 C1089 1.379 . S
H1091 C1085 0.959 . S
H1092 C1085 0.961 . S
H1093 C1085 0.960 . S
H1094 C1086 0.930 . S
H1095 C1087 0.929 . S
H1096 C1104 0.929 . S
H1097 C1106 0.930 . S
H1098 C1108 0.930 . S
H1099 C1111 0.929 . S
H1100 C1114 0.930 . S
H1101 C1116 0.960 . S
H1102 C1116 0.960 . S
H1103 C1116 0.960 . S
C1104 H1096 0.929 . S
C1104 C1105 1.377 . S
C1104 C1106 1.384 . S
C1105 C1104 1.377 . S
C1105 C1111 1.390 . S
C1106 H1097 0.930 . S
C1106 C1104 1.384 . S
C1106 C1107 1.372 . S
C1107 C1106 1.372 . S
C1107 C1108 1.400 . S
C1107 C1112 1.490 . S
C1108 H1098 0.930 . S
C1108 C1107 1.400 . S
C1108 C1111 1.386 . S
H1109 C1125 0.930 . S
H1110 C1126 0.931 . S
C1111 H1099 0.929 . S
C1111 C1105 1.390 . S
C1111 C1108 1.386 . S
C1112 C1107 1.490 . S
C1112 C1114 1.395 . S
C1112 C1115 1.403 . S
H1113 C1119 0.930 . S
C1114 H1100 0.930 . S
C1114 C1112 1.395 . S
C1114 C1117 1.403 . S
C1115 C1112 1.403 . S
C1115 C1116 1.524 . S
C1115 C1119 1.400 . S
C1116 H1101 0.960 . S
C1116 H1102 0.960 . S
C1116 H1103 0.960 . S
C1116 C1115 1.524 . S
C1117 C1114 1.403 . S
C1117 C1118 1.392 . S
C1117 C1121 1.495 . S
C1118 C1117 1.392 . S
C1118 C1119 1.385 . S
C1118 C1120 1.478 . S
C1119 H1113 0.930 . S
C1119 C1115 1.400 . S
C1119 C1118 1.385 . S
C1120 C1118 1.478 . S
C1120 C1122 1.381 . S
C1120 C1126 1.383 . S
C1121 C1117 1.495 . S
C1121 H1127 0.959 1_455 S
C1121 H1128 0.961 . S
C1121 H1129 0.960 . S
C1122 C1120 1.381 . S
C1122 C1123 1.394 . S
C1122 H1130 0.930 . S
C1123 C1122 1.394 . S
C1123 C1124 1.383 . S
C1123 H1131 0.929 . S
C1124 C1123 1.383 . S
C1124 C1125 1.377 . S
C1125 H1109 0.930 . S
C1125 C1124 1.377 . S
C1125 C1126 1.379 . S
C1126 H1110 0.931 . S
C1126 C1120 1.383 . S
C1126 C1125 1.379 . S
H1127 C1121 0.959 1_655 S
H1128 C1121 0.961 . S
H1129 C1121 0.960 . S
H1130 C1122 0.930 . S
H1131 C1123 0.929 . S
H1132 C1140 0.929 . S
H1133 C1142 0.930 . S
H1134 C1144 0.930 . S
H1135 C1147 0.929 . S
H1136 C1150 0.930 . S
H1137 C1152 0.960 . S
H1138 C1152 0.960 . S
H1139 C1152 0.960 . S
C1140 H1132 0.929 . S
C1140 C1141 1.377 . S
C1140 C1142 1.384 . S
C1141 C1140 1.377 . S
C1141 C1147 1.390 . S
C1142 H1133 0.930 . S
C1142 C1140 1.384 . S
C1142 C1143 1.372 . S
C1143 C1142 1.372 . S
C1143 C1144 1.400 . S
C1143 C1148 1.490 . S
C1144 H1134 0.930 . S
C1144 C1143 1.400 . S
C1144 C1147 1.386 . S
H1145 C1161 0.930 . S
H1146 C1162 0.931 . S
C1147 H1135 0.929 . S
C1147 C1141 1.390 . S
C1147 C1144 1.386 . S
C1148 C1143 1.490 . S
C1148 C1150 1.395 . S
C1148 C1151 1.403 . S
H1149 C1155 0.930 . S
C1150 H1136 0.930 . S
C1150 C1148 1.395 . S
C1150 C1153 1.403 . S
C1151 C1148 1.403 . S
C1151 C1152 1.524 . S
C1151 C1155 1.400 . S
C1152 H1137 0.960 . S
C1152 H1138 0.960 . S
C1152 H1139 0.960 . S
C1152 C1151 1.524 . S
C1153 C1150 1.403 . S
C1153 C1154 1.392 . S
C1153 C1157 1.495 . S
C1154 C1153 1.392 . S
C1154 C1155 1.385 . S
C1154 C1156 1.478 . S
C1155 H1149 0.930 . S
C1155 C1151 1.400 . S
C1155 C1154 1.385 . S
C1156 C1154 1.478 . S
C1156 C1158 1.381 . S
C1156 C1162 1.383 . S
C1157 C1153 1.495 . S
C1157 H1163 0.959 . S
C1157 H1164 0.961 . S
C1157 H1165 0.960 . S
C1158 C1156 1.381 . S
C1158 C1159 1.394 . S
C1158 H1166 0.930 . S
C1159 C1158 1.394 . S
C1159 C1160 1.383 . S
C1159 H1167 0.929 . S
C1160 C1159 1.383 . S
C1160 C1161 1.377 . S
C1161 H1145 0.930 . S
C1161 C1160 1.377 . S
C1161 C1162 1.379 . S
C1162 H1146 0.931 . S
C1162 C1156 1.383 . S
C1162 C1161 1.379 . S
H1163 C1157 0.959 . S
H1164 C1157 0.961 . S
H1165 C1157 0.960 . S
H1166 C1158 0.930 . S
H1167 C1159 0.929 . S
H1168 C1176 0.929 . S
H1169 C1178 0.930 . S
H1170 C1180 0.930 . S
H1171 C1183 0.929 . S
H1172 C1186 0.930 . S
H1173 C1188 0.960 . S
H1174 C1188 0.960 . S
H1175 C1188 0.960 . S
C1176 H1168 0.929 . S
C1176 C1177 1.377 . S
C1176 C1178 1.384 . S
C1177 C1176 1.377 . S
C1177 C1183 1.390 . S
C1178 H1169 0.930 . S
C1178 C1176 1.384 . S
C1178 C1179 1.372 . S
C1179 C1178 1.372 . S
C1179 C1180 1.400 . S
C1179 C1184 1.490 . S
C1180 H1170 0.930 . S
C1180 C1179 1.400 . S
C1180 C1183 1.386 . S
H1181 C1197 0.930 . S
H1182 C1198 0.931 . S
C1183 H1171 0.929 . S
C1183 C1177 1.390 . S
C1183 C1180 1.386 . S
C1184 C1179 1.490 . S
C1184 C1186 1.395 . S
C1184 C1187 1.403 . S
H1185 C1191 0.930 . S
C1186 H1172 0.930 . S
C1186 C1184 1.395 . S
C1186 C1189 1.403 . S
C1187 C1184 1.403 . S
C1187 C1188 1.524 . S
C1187 C1191 1.400 . S
C1188 H1173 0.960 . S
C1188 H1174 0.960 . S
C1188 H1175 0.960 . S
C1188 C1187 1.524 . S
C1189 C1186 1.403 . S
C1189 C1190 1.392 . S
C1189 C1193 1.495 . S
C1190 C1189 1.392 . S
C1190 C1191 1.385 . S
C1190 C1192 1.478 . S
C1191 H1185 0.930 . S
C1191 C1187 1.400 . S
C1191 C1190 1.385 . S
C1192 C1190 1.478 . S
C1192 C1194 1.381 . S
C1192 C1198 1.383 . S
C1193 C1189 1.495 . S
C1193 H1199 0.959 . S
C1193 H1200 0.961 . S
C1193 H1201 0.960 . S
C1194 C1192 1.381 . S
C1194 C1195 1.394 . S
C1194 H1202 0.930 . S
C1195 C1194 1.394 . S
C1195 C1196 1.383 . S
C1195 H1203 0.929 . S
C1196 C1195 1.383 . S
C1196 C1197 1.377 . S
C1197 H1181 0.930 . S
C1197 C1196 1.377 . S
C1197 C1198 1.379 . S
C1198 H1182 0.931 . S
C1198 C1192 1.383 . S
C1198 C1197 1.379 . S
H1199 C1193 0.959 . S
H1200 C1193 0.961 . S
H1201 C1193 0.960 . S
H1202 C1194 0.930 . S
H1203 C1195 0.929 . S
H1204 C1212 0.929 . S
H1205 C1214 0.930 . S
H1206 C1216 0.930 . S
H1207 C1219 0.929 . S
H1208 C1222 0.930 . S
H1209 C1224 0.960 . S
H1210 C1224 0.960 . S
H1211 C1224 0.960 . S
C1212 H1204 0.929 . S
C1212 C1213 1.377 . S
C1212 C1214 1.384 . S
C1213 C1212 1.377 . S
C1213 C1219 1.390 . S
C1214 H1205 0.930 . S
C1214 C1212 1.384 . S
C1214 C1215 1.372 . S
C1215 C1214 1.372 . S
C1215 C1216 1.400 . S
C1215 C1220 1.490 . S
C1216 H1206 0.930 . S
C1216 C1215 1.400 . S
C1216 C1219 1.386 . S
H1217 C1233 0.930 . S
H1218 C1234 0.931 . S
C1219 H1207 0.929 . S
C1219 C1213 1.390 . S
C1219 C1216 1.386 . S
C1220 C1215 1.490 . S
C1220 C1222 1.395 . S
C1220 C1223 1.403 . S
H1221 C1227 0.930 . S
C1222 H1208 0.930 . S
C1222 C1220 1.395 . S
C1222 C1225 1.403 . S
C1223 C1220 1.403 . S
C1223 C1224 1.524 . S
C1223 C1227 1.400 . S
C1224 H1209 0.960 . S
C1224 H1210 0.960 . S
C1224 H1211 0.960 . S
C1224 C1223 1.524 . S
C1225 C1222 1.403 . S
C1225 C1226 1.392 . S
C1225 C1229 1.495 . S
C1226 C1225 1.392 . S
C1226 C1227 1.385 . S
C1226 C1228 1.478 . S
C1227 H1221 0.930 . S
C1227 C1223 1.400 . S
C1227 C1226 1.385 . S
C1228 C1226 1.478 . S
C1228 C1230 1.381 . S
C1228 C1234 1.383 . S
C1229 C1225 1.495 . S
C1229 H1235 0.959 . S
C1229 H1236 0.961 . S
C1229 H1237 0.960 . S
C1230 C1228 1.381 . S
C1230 C1231 1.394 . S
C1230 H1238 0.930 . S
C1231 C1230 1.394 . S
C1231 C1232 1.383 . S
C1231 H1239 0.929 . S
C1232 C1231 1.383 . S
C1232 C1233 1.377 . S
C1233 H1217 0.930 . S
C1233 C1232 1.377 . S
C1233 C1234 1.379 . S
C1234 H1218 0.931 . S
C1234 C1228 1.383 . S
C1234 C1233 1.379 . S
H1235 C1229 0.959 . S
H1236 C1229 0.961 . S
H1237 C1229 0.960 . S
H1238 C1230 0.930 . S
H1239 C1231 0.929 . S
H1240 C1248 0.929 . S
H1241 C1250 0.930 . S
H1242 C1252 0.930 . S
H1243 C1255 0.929 . S
H1244 C1258 0.957 . S
H1245 C1260 0.960 . S
H1246 C1260 0.960 . S
H1247 C1260 0.960 . S
C1248 H1240 0.929 . S
C1248 C1249 1.377 . S
C1248 C1250 1.384 . S
C1249 C1248 1.377 . S
C1249 C1255 1.390 . S
C1250 H1241 0.930 . S
C1250 C1248 1.384 . S
C1250 C1251 1.372 . S
C1251 C1250 1.372 . S
C1251 C1252 1.400 . S
C1251 C1256 1.490 . S
C1252 H1242 0.930 . S
C1252 C1251 1.400 . S
C1252 C1255 1.386 . S
H1253 C1269 0.930 . S
H1254 C1270 0.931 1_655 S
C1255 H1243 0.929 . S
C1255 C1249 1.390 . S
C1255 C1252 1.386 . S
C1256 C1251 1.490 . S
C1256 C1258 1.333 1_655 S
C1256 C1259 1.403 . S
H1257 C1263 0.930 . S
C1258 H1244 0.957 . S
C1258 C1256 1.333 1_455 S
C1258 C1261 1.441 . S
C1259 C1256 1.403 . S
C1259 C1260 1.524 . S
C1259 C1263 1.400 . S
C1260 H1245 0.960 . S
C1260 H1246 0.960 . S
C1260 H1247 0.960 . S
C1260 C1259 1.524 . S
C1261 C1258 1.441 . S
C1261 C1262 1.392 . S
C1261 C1265 1.495 . S
C1262 C1261 1.392 . S
C1262 C1263 1.385 1_455 S
C1262 C1264 1.478 . S
C1263 H1257 0.930 . S
C1263 C1259 1.400 . S
C1263 C1262 1.385 1_655 S
C1264 C1262 1.478 . S
C1264 C1266 1.381 . S
C1264 C1270 1.383 . S
C1265 C1261 1.495 . S
C1265 H1271 0.959 . S
C1265 H1272 0.961 . S
C1265 H1273 0.960 . S
C1266 C1264 1.381 . S
C1266 C1267 1.394 . S
C1266 H1274 0.930 . S
C1267 C1266 1.394 . S
C1267 C1268 1.383 . S
C1267 H1275 0.929 . S
C1268 C1267 1.383 . S
C1268 C1269 1.377 . S
C1269 H1253 0.930 . S
C1269 C1268 1.377 . S
C1269 C1270 1.379 . S
C1270 H1254 0.931 1_455 S
C1270 C1264 1.383 . S
C1270 C1269 1.379 . S
H1271 C1265 0.959 . S
H1272 C1265 0.961 . S
H1273 C1265 0.960 . S
H1274 C1266 0.930 . S
H1275 C1267 0.929 . S
H1276 C1284 0.929 . S
H1277 C1286 0.930 . S
H1278 C1288 0.930 . S
H1279 C1291 0.929 . S
H1280 C1294 0.930 . S
H1281 C1296 0.960 . S
H1282 C1296 0.960 . S
H1283 C1296 0.960 . S
C1284 H1276 0.929 . S
C1284 C1285 1.377 . S
C1284 C1286 1.384 . S
C1285 C1284 1.377 . S
C1285 C1291 1.390 . S
C1286 H1277 0.930 . S
C1286 C1284 1.384 . S
C1286 C1287 1.372 . S
C1287 C1286 1.372 . S
C1287 C1288 1.400 . S
C1287 C1292 1.490 . S
C1288 H1278 0.930 . S
C1288 C1287 1.400 . S
C1288 C1291 1.386 . S
H1289 C1305 0.930 . S
H1290 C1306 0.931 . S
C1291 H1279 0.929 . S
C1291 C1285 1.390 . S
C1291 C1288 1.386 . S
C1292 C1287 1.490 . S
C1292 C1294 1.395 . S
C1292 C1295 1.403 . S
H1293 C1299 0.930 . S
C1294 H1280 0.930 . S
C1294 C1292 1.395 . S
C1294 C1297 1.403 . S
C1295 C1292 1.403 . S
C1295 C1296 1.524 . S
C1295 C1299 1.400 . S
C1296 H1281 0.960 . S
C1296 H1282 0.960 . S
C1296 H1283 0.960 . S
C1296 C1295 1.524 . S
C1297 C1294 1.403 . S
C1297 C1298 1.392 . S
C1297 C1301 1.495 . S
C1298 C1297 1.392 . S
C1298 C1299 1.385 . S
C1298 C1300 1.478 . S
C1299 H1293 0.930 . S
C1299 C1295 1.400 . S
C1299 C1298 1.385 . S
C1300 C1298 1.478 . S
C1300 C1302 1.381 . S
C1300 C1306 1.383 . S
C1301 C1297 1.495 . S
C1301 H1307 0.959 . S
C1301 H1308 0.961 . S
C1301 H1309 0.960 . S
C1302 C1300 1.381 . S
C1302 C1303 1.394 . S
C1302 H1310 0.930 . S
C1303 C1302 1.394 . S
C1303 C1304 1.383 . S
C1303 H1311 0.929 . S
C1304 C1303 1.383 . S
C1304 C1305 1.377 . S
C1305 H1289 0.930 . S
C1305 C1304 1.377 . S
C1305 C1306 1.379 . S
C1306 H1290 0.931 . S
C1306 C1300 1.383 . S
C1306 C1305 1.379 . S
H1307 C1301 0.959 . S
H1308 C1301 0.961 . S
H1309 C1301 0.960 . S
H1310 C1302 0.930 . S
H1311 C1303 0.929 . S
H1312 C1320 0.929 . S
H1313 C1322 0.930 . S
H1314 C1324 0.930 . S
H1315 C1327 0.929 . S
H1316 C1330 0.930 . S
H1317 C1332 0.960 . S
H1318 C1332 0.960 . S
H1319 C1332 0.960 . S
C1320 H1312 0.929 . S
C1320 C1321 1.377 . S
C1320 C1322 1.384 . S
C1321 C1320 1.377 . S
C1321 C1327 1.390 . S
C1322 H1313 0.930 . S
C1322 C1320 1.384 . S
C1322 C1323 1.372 . S
C1323 C1322 1.372 . S
C1323 C1324 1.400 . S
C1323 C1328 1.490 . S
C1324 H1314 0.930 . S
C1324 C1323 1.400 . S
C1324 C1327 1.386 . S
H1325 C1341 0.892 1_565 S
H1326 C1342 0.931 . S
C1327 H1315 0.929 . S
C1327 C1321 1.390 . S
C1327 C1324 1.386 . S
C1328 C1323 1.490 . S
C1328 C1330 1.395 . S
C1328 C1331 1.403 . S
H1329 C1335 0.930 . S
C1330 H1316 0.930 . S
C1330 C1328 1.395 . S
C1330 C1333 1.403 . S
C1331 C1328 1.403 . S
C1331 C1332 1.524 . S
C1331 C1335 1.400 . S
C1332 H1317 0.960 . S
C1332 H1318 0.960 . S
C1332 H1319 0.960 . S
C1332 C1331 1.524 . S
C1333 C1330 1.403 . S
C1333 C1334 1.392 . S
C1333 C1337 1.495 . S
C1334 C1333 1.392 . S
C1334 C1335 1.385 . S
C1334 C1336 1.478 . S
C1335 H1329 0.930 . S
C1335 C1331 1.400 . S
C1335 C1334 1.385 . S
C1336 C1334 1.478 . S
C1336 C1338 1.381 . S
C1336 C1342 1.383 . S
C1337 C1333 1.495 . S
C1337 H1343 0.959 . S
C1337 H1344 0.961 . S
C1337 H1345 0.960 . S
C1338 C1336 1.381 . S
C1338 C1339 1.394 . S
C1338 H1346 0.930 . S
C1339 C1338 1.394 . S
C1339 C1340 1.383 . S
C1339 H1347 0.929 . S
C1340 C1339 1.383 . S
C1340 C1341 1.377 . S
C1341 H1325 0.892 1_545 S
C1341 C1340 1.377 . S
C1341 C1342 1.379 . S
C1342 H1326 0.931 . S
C1342 C1336 1.383 . S
C1342 C1341 1.379 . S
H1343 C1337 0.959 . S
H1344 C1337 0.961 . S
H1345 C1337 0.960 . S
H1346 C1338 0.930 . S
H1347 C1339 0.929 . S
H1348 C1356 0.929 . S
H1349 C1358 0.930 . S
H1350 C1360 0.930 . S
H1351 C1363 0.929 . S
H1352 C1366 0.930 . S
H1353 C1368 0.960 . S
H1354 C1368 0.960 . S
H1355 C1368 0.960 . S
C1356 H1348 0.929 . S
C1356 C1357 1.377 . S
C1356 C1358 1.384 . S
C1357 C1356 1.377 . S
C1357 C1363 1.390 . S
C1358 H1349 0.930 . S
C1358 C1356 1.384 . S
C1358 C1359 1.372 . S
C1359 C1358 1.372 . S
C1359 C1360 1.400 . S
C1359 C1364 1.490 . S
C1360 H1350 0.930 . S
C1360 C1359 1.400 . S
C1360 C1363 1.386 . S
H1361 C1377 0.930 . S
H1362 C1378 0.931 . S
C1363 H1351 0.929 . S
C1363 C1357 1.390 . S
C1363 C1360 1.386 . S
C1364 C1359 1.490 . S
C1364 C1366 1.395 . S
C1364 C1367 1.403 . S
H1365 C1371 0.930 . S
C1366 H1352 0.930 . S
C1366 C1364 1.395 . S
C1366 C1369 1.403 . S
C1367 C1364 1.403 . S
C1367 C1368 1.524 . S
C1367 C1371 1.400 . S
C1368 H1353 0.960 . S
C1368 H1354 0.960 . S
C1368 H1355 0.960 . S
C1368 C1367 1.524 . S
C1369 C1366 1.403 . S
C1369 C1370 1.392 . S
C1369 C1373 1.495 . S
C1370 C1369 1.392 . S
C1370 C1371 1.385 . S
C1370 C1372 1.478 . S
C1371 H1365 0.930 . S
C1371 C1367 1.400 . S
C1371 C1370 1.385 . S
C1372 C1370 1.478 . S
C1372 C1374 1.381 . S
C1372 C1378 1.383 . S
C1373 C1369 1.495 . S
C1373 H1379 0.959 . S
C1373 H1380 0.961 . S
C1373 H1381 0.960 . S
C1374 C1372 1.381 . S
C1374 C1375 1.394 . S
C1374 H1382 0.930 . S
C1375 C1374 1.394 . S
C1375 C1376 1.383 . S
C1375 H1383 0.929 . S
C1376 C1375 1.383 . S
C1376 C1377 1.377 . S
C1377 H1361 0.930 . S
C1377 C1376 1.377 . S
C1377 C1378 1.379 . S
C1378 H1362 0.931 . S
C1378 C1372 1.383 . S
C1378 C1377 1.379 . S
H1379 C1373 0.959 . S
H1380 C1373 0.961 . S
H1381 C1373 0.960 . S
H1382 C1374 0.930 . S
H1383 C1375 0.929 . S
H1384 C1392 0.929 . S
H1385 C1394 0.930 . S
H1386 C1396 0.930 . S
H1387 C1399 0.929 . S
H1388 C1402 0.935 . S
H1389 C1404 0.960 . S
H1390 C1404 0.960 . S
H1391 C1404 0.960 . S
C1392 H1384 0.929 . S
C1392 C1393 1.377 . S
C1392 C1394 1.384 . S
C1393 C1392 1.377 . S
C1393 C1399 1.390 . S
C1394 H1385 0.930 . S
C1394 C1392 1.384 . S
C1394 C1395 1.372 . S
C1395 C1394 1.372 . S
C1395 C1396 1.400 . S
C1395 C1400 1.490 . S
C1396 H1386 0.930 . S
C1396 C1395 1.400 . S
C1396 C1399 1.386 . S
H1397 C1413 0.930 . S
H1398 C1414 0.931 . S
C1399 H1387 0.929 . S
C1399 C1393 1.390 . S
C1399 C1396 1.386 . S
C1400 C1395 1.490 . S
C1400 C1402 1.395 . S
C1400 C1403 1.403 . S
H1401 C1407 0.930 1_455 S
C1402 H1388 0.935 . S
C1402 C1400 1.395 . S
C1402 C1405 1.403 . S
C1403 C1400 1.403 . S
C1403 C1404 1.524 . S
C1403 C1407 1.400 . S
C1404 H1389 0.960 . S
C1404 H1390 0.960 . S
C1404 H1391 0.960 . S
C1404 C1403 1.524 . S
C1405 C1402 1.403 . S
C1405 C1406 1.392 . S
C1405 C1409 1.495 1_545 S
C1406 C1405 1.392 . S
C1406 C1407 1.385 . S
C1406 C1408 1.478 1_655 S
C1407 H1401 0.930 1_655 S
C1407 C1403 1.400 . S
C1407 C1406 1.385 . S
C1408 C1406 1.478 1_455 S
C1408 C1410 1.381 1_455 S
C1408 C1414 1.383 . S
C1409 C1405 1.495 1_565 S
C1409 H1415 0.959 . S
C1409 H1416 0.961 . S
C1409 H1417 0.960 . S
C1410 C1408 1.381 1_655 S
C1410 C1411 1.394 1_655 S
C1410 H1418 0.930 . S
C1411 C1410 1.394 1_455 S
C1411 C1412 1.383 . S
C1411 H1419 0.929 1_455 S
C1412 C1411 1.383 . S
C1412 C1413 1.377 . S
C1413 H1397 0.930 . S
C1413 C1412 1.377 . S
C1413 C1414 1.379 . S
C1414 H1398 0.931 . S
C1414 C1408 1.383 . S
C1414 C1413 1.379 . S
H1415 C1409 0.959 . S
H1416 C1409 0.961 . S
H1417 C1409 0.960 . S
H1418 C1410 0.930 . S
H1419 C1411 0.929 1_655 S
H1420 C1428 0.929 . S
H1421 C1430 0.930 . S
H1422 C1432 0.930 . S
H1423 C1435 0.929 . S
H1424 C1438 0.930 . S
H1425 C1440 0.960 . S
H1426 C1440 0.960 . S
H1427 C1440 0.960 . S
C1428 H1420 0.929 . S
C1428 C1429 1.377 . S
C1428 C1430 1.384 . S
C1429 C1428 1.377 . S
C1429 C1435 1.390 . S
C1430 H1421 0.930 . S
C1430 C1428 1.384 . S
C1430 C1431 1.372 . S
C1431 C1430 1.372 . S
C1431 C1432 1.400 . S
C1431 C1436 1.490 . S
C1432 H1422 0.930 . S
C1432 C1431 1.400 . S
C1432 C1435 1.386 . S
H1433 C1449 0.930 . S
H1434 C1450 0.931 . S
C1435 H1423 0.929 . S
C1435 C1429 1.390 . S
C1435 C1432 1.386 . S
C1436 C1431 1.490 . S
C1436 C1438 1.395 . S
C1436 C1439 1.403 . S
H1437 C1443 0.930 . S
C1438 H1424 0.930 . S
C1438 C1436 1.395 . S
C1438 C1441 1.403 . S
C1439 C1436 1.403 . S
C1439 C1440 1.524 . S
C1439 C1443 1.400 . S
C1440 H1425 0.960 . S
C1440 H1426 0.960 . S
C1440 H1427 0.960 . S
C1440 C1439 1.524 . S
C1441 C1438 1.403 . S
C1441 C1442 1.392 . S
C1441 C1445 1.495 . S
C1442 C1441 1.392 . S
C1442 C1443 1.385 . S
C1442 C1444 1.478 . S
C1443 H1437 0.930 . S
C1443 C1439 1.400 . S
C1443 C1442 1.385 . S
C1444 C1442 1.478 . S
C1444 C1446 1.381 . S
C1444 C1450 1.383 . S
C1445 C1441 1.495 . S
C1445 H1451 0.959 . S
C1445 H1452 0.961 . S
C1445 H1453 0.960 . S
C1446 C1444 1.381 . S
C1446 C1447 1.394 . S
C1446 H1454 0.930 . S
C1447 C1446 1.394 . S
C1447 C1448 1.383 . S
C1447 H1455 0.929 . S
C1448 C1447 1.383 . S
C1448 C1449 1.377 . S
C1449 H1433 0.930 . S
C1449 C1448 1.377 . S
C1449 C1450 1.379 . S
C1450 H1434 0.931 . S
C1450 C1444 1.383 . S
C1450 C1449 1.379 . S
H1451 C1445 0.959 . S
H1452 C1445 0.961 . S
H1453 C1445 0.960 . S
H1454 C1446 0.930 . S
H1455 C1447 0.929 . S
H1456 C1464 0.929 . S
H1457 C1466 0.930 . S
H1458 C1468 0.930 . S
H1459 C1471 0.929 . S
H1460 C1474 0.930 . S
H1461 C1476 0.960 . S
H1462 C1476 0.960 . S
H1463 C1476 0.960 . S
C1464 H1456 0.929 . S
C1464 C1465 1.377 . S
C1464 C1466 1.384 . S
C1465 C1464 1.377 . S
C1465 C1471 1.390 . S
C1466 H1457 0.930 . S
C1466 C1464 1.384 . S
C1466 C1467 1.372 . S
C1467 C1466 1.372 . S
C1467 C1468 1.400 . S
C1467 C1472 1.490 . S
C1468 H1458 0.930 . S
C1468 C1467 1.400 . S
C1468 C1471 1.386 . S
H1469 C1485 0.930 . S
H1470 C1486 0.931 . S
C1471 H1459 0.929 . S
C1471 C1465 1.390 . S
C1471 C1468 1.386 . S
C1472 C1467 1.490 . S
C1472 C1474 1.395 . S
C1472 C1475 1.403 . S
H1473 C1479 0.930 . S
C1474 H1460 0.930 . S
C1474 C1472 1.395 . S
C1474 C1477 1.403 . S
C1475 C1472 1.403 . S
C1475 C1476 1.524 . S
C1475 C1479 1.400 . S
C1476 H1461 0.960 . S
C1476 H1462 0.960 . S
C1476 H1463 0.960 . S
C1476 C1475 1.524 . S
C1477 C1474 1.403 . S
C1477 C1478 1.392 . S
C1477 C1481 1.495 . S
C1478 C1477 1.392 . S
C1478 C1479 1.385 . S
C1478 C1480 1.478 . S
C1479 H1473 0.930 . S
C1479 C1475 1.400 . S
C1479 C1478 1.385 . S
C1480 C1478 1.478 . S
C1480 C1482 1.381 . S
C1480 C1486 1.383 . S
C1481 C1477 1.495 . S
C1481 H1487 0.959 . S
C1481 H1488 0.961 . S
C1481 H1489 0.960 . S
C1482 C1480 1.381 . S
C1482 C1483 1.394 . S
C1482 H1490 0.930 . S
C1483 C1482 1.394 . S
C1483 C1484 1.383 . S
C1483 H1491 0.929 . S
C1484 C1483 1.383 . S
C1484 C1485 1.377 . S
C1485 H1469 0.930 . S
C1485 C1484 1.377 . S
C1485 C1486 1.379 . S
C1486 H1470 0.931 . S
C1486 C1480 1.383 . S
C1486 C1485 1.379 . S
H1487 C1481 0.959 . S
H1488 C1481 0.961 . S
H1489 C1481 0.960 . S
H1490 C1482 0.930 . S
H1491 C1483 0.929 . S
H1492 C1500 0.929 . S
H1493 C1502 0.930 . S
H1494 C1504 0.930 . S
H1495 C1507 0.929 . S
H1496 C1510 0.930 . S
H1497 C1512 0.960 . S
H1498 C1512 0.960 . S
H1499 C1512 0.960 . S
C1500 H1492 0.929 . S
C1500 C1501 1.377 . S
C1500 C1502 1.384 . S
C1501 C1500 1.377 . S
C1501 C1507 1.390 . S
C1502 H1493 0.930 . S
C1502 C1500 1.384 . S
C1502 C1503 1.372 . S
C1503 C1502 1.372 . S
C1503 C1504 1.400 . S
C1503 C1508 1.490 . S
C1504 H1494 0.930 . S
C1504 C1503 1.400 . S
C1504 C1507 1.386 . S
H1505 C1521 0.930 . S
H1506 C1522 0.931 . S
C1507 H1495 0.929 . S
C1507 C1501 1.390 . S
C1507 C1504 1.386 . S
C1508 C1503 1.490 . S
C1508 C1510 1.395 . S
C1508 C1511 1.403 . S
H1509 C1515 0.930 . S
C1510 H1496 0.930 . S
C1510 C1508 1.395 . S
C1510 C1513 1.403 . S
C1511 C1508 1.403 . S
C1511 C1512 1.524 . S
C1511 C1515 1.400 . S
C1512 H1497 0.960 . S
C1512 H1498 0.960 . S
C1512 H1499 0.960 . S
C1512 C1511 1.524 . S
C1513 C1510 1.403 . S
C1513 C1514 1.392 . S
C1513 C1517 1.495 . S
C1514 C1513 1.392 . S
C1514 C1515 1.385 . S
C1514 C1516 1.478 . S
C1515 H1509 0.930 . S
C1515 C1511 1.400 . S
C1515 C1514 1.385 . S
C1516 C1514 1.478 . S
C1516 C1518 1.381 . S
C1516 C1522 1.383 . S
C1517 C1513 1.495 . S
C1517 H1523 0.959 . S
C1517 H1524 0.961 . S
C1517 H1525 0.960 . S
C1518 C1516 1.381 . S
C1518 C1519 1.394 . S
C1518 H1526 0.930 . S
C1519 C1518 1.394 . S
C1519 C1520 1.383 . S
C1519 H1527 0.929 . S
C1520 C1519 1.383 . S
C1520 C1521 1.377 . S
C1521 H1505 0.930 . S
C1521 C1520 1.377 . S
C1521 C1522 1.379 . S
C1522 H1506 0.931 . S
C1522 C1516 1.383 . S
C1522 C1521 1.379 . S
H1523 C1517 0.959 . S
H1524 C1517 0.961 . S
H1525 C1517 0.960 . S
H1526 C1518 0.930 . S
H1527 C1519 0.929 . S
H1528 C1536 0.929 . S
H1529 C1538 0.930 . S
H1530 C1540 0.919 1_556 S
H1531 C1543 0.929 . S
H1532 C1546 0.930 . S
H1533 C1548 0.960 . S
H1534 C1548 0.960 . S
H1535 C1548 0.960 . S
C1536 H1528 0.929 . S
C1536 C1537 1.377 . S
C1536 C1538 1.384 . S
C1537 C1536 1.377 . S
C1537 C1543 1.390 1_554 S
C1538 H1529 0.930 . S
C1538 C1536 1.384 . S
C1538 C1539 1.372 . S
C1539 C1538 1.372 . S
C1539 C1540 1.400 . S
C1539 C1544 1.490 . S
C1540 H1530 0.919 1_554 S
C1540 C1539 1.400 . S
C1540 C1543 1.386 1_554 S
H1541 C1557 0.937 1_565 S
H1542 C1558 0.931 . S
C1543 H1531 0.929 . S
C1543 C1537 1.390 1_556 S
C1543 C1540 1.386 1_556 S
C1544 C1539 1.490 . S
C1544 C1546 1.395 . S
C1544 C1547 1.403 . S
H1545 C1551 0.930 . S
C1546 H1532 0.930 . S
C1546 C1544 1.395 . S
C1546 C1549 1.403 . S
C1547 C1544 1.403 . S
C1547 C1548 1.524 . S
C1547 C1551 1.400 . S
C1548 H1533 0.960 . S
C1548 H1534 0.960 . S
C1548 H1535 0.960 . S
C1548 C1547 1.524 . S
C1549 C1546 1.403 . S
C1549 C1550 1.392 . S
C1549 C1553 1.495 1_565 S
C1550 C1549 1.392 . S
C1550 C1551 1.385 . S
C1550 C1552 1.478 . S
C1551 H1545 0.930 . S
C1551 C1547 1.400 . S
C1551 C1550 1.385 . S
C1552 C1550 1.478 . S
C1552 C1554 1.381 1_565 S
C1552 C1558 1.383 . S
C1553 C1549 1.495 1_545 S
C1553 H1559 0.959 . S
C1553 H1560 0.961 . S
C1553 H1561 0.960 . S
C1554 C1552 1.381 1_545 S
C1554 C1555 1.394 . S
C1554 H1562 0.930 . S
C1555 C1554 1.394 . S
C1555 C1556 1.383 . S
C1555 H1563 0.929 . S
C1556 C1555 1.383 . S
C1556 C1557 1.377 . S
C1557 H1541 0.937 1_545 S
C1557 C1556 1.377 . S
C1557 C1558 1.379 1_545 S
C1558 H1542 0.931 . S
C1558 C1552 1.383 . S
C1558 C1557 1.379 1_565 S
H1559 C1553 0.959 . S
H1560 C1553 0.961 . S
H1561 C1553 0.960 . S
H1562 C1554 0.930 . S
H1563 C1555 0.929 . S
H1564 C1572 0.929 . S
H1565 C1574 0.930 . S
H1566 C1576 0.951 . S
H1567 C1579 0.968 . S
H1568 C1582 0.930 . S
H1569 C1584 0.960 . S
H1570 C1584 0.960 . S
H1571 C1584 0.960 . S
C1572 H1564 0.929 . S
C1572 C1573 1.377 . S
C1572 C1574 1.384 . S
C1573 C1572 1.377 . S
C1573 C1579 1.363 1_554 S
C1574 H1565 0.930 . S
C1574 C1572 1.384 . S
C1574 C1575 1.372 . S
C1575 C1574 1.372 . S
C1575 C1576 1.373 1_554 S
C1575 C1580 1.490 . S
C1576 H1566 0.951 . S
C1576 C1575 1.373 1_556 S
C1576 C1579 1.383 . S
H1577 C1593 0.930 . S
H1578 C1594 0.931 . S
C1579 H1567 0.968 . S
C1579 C1573 1.363 1_556 S
C1579 C1576 1.383 . S
C1580 C1575 1.490 . S
C1580 C1582 1.395 . S
C1580 C1583 1.403 . S
H1581 C1587 0.930 . S
C1582 H1568 0.930 . S
C1582 C1580 1.395 . S
C1582 C1585 1.403 . S
C1583 C1580 1.403 . S
C1583 C1584 1.524 . S
C1583 C1587 1.400 . S
C1584 H1569 0.960 . S
C1584 H1570 0.960 . S
C1584 H1571 0.960 . S
C1584 C1583 1.524 . S
C1585 C1582 1.403 . S
C1585 C1586 1.392 . S
C1585 C1589 1.495 1_554 S
C1586 C1585 1.392 . S
C1586 C1587 1.385 . S
C1586 C1588 1.478 . S
C1587 H1581 0.930 . S
C1587 C1583 1.400 . S
C1587 C1586 1.385 . S
C1588 C1586 1.478 . S
C1588 C1590 1.381 . S
C1588 C1594 1.383 1_554 S
C1589 C1585 1.495 1_556 S
C1589 H1595 0.959 . S
C1589 H1596 0.961 . S
C1589 H1597 0.960 1_556 S
C1590 C1588 1.381 . S
C1590 C1591 1.394 . S
C1590 H1598 0.930 . S
C1591 C1590 1.394 . S
C1591 C1592 1.383 . S
C1591 H1599 0.929 . S
C1592 C1591 1.383 . S
C1592 C1593 1.377 1_554 S
C1593 H1577 0.930 . S
C1593 C1592 1.377 1_556 S
C1593 C1594 1.379 . S
C1594 H1578 0.931 . S
C1594 C1588 1.383 1_556 S
C1594 C1593 1.379 . S
H1595 C1589 0.959 . S
H1596 C1589 0.961 . S
H1597 C1589 0.960 1_554 S
H1598 C1590 0.930 . S
H1599 C1591 0.929 . S
H1600 C1608 0.929 . S
H1601 C1610 0.930 . S
H1602 C1612 0.930 . S
H1603 C1615 0.929 . S
H1604 C1618 0.930 . S
H1605 C1620 0.960 . S
H1606 C1620 0.960 . S
H1607 C1620 0.960 . S
C1608 H1600 0.929 . S
C1608 C1609 1.377 . S
C1608 C1610 1.384 . S
C1609 C1608 1.377 . S
C1609 C1615 1.390 . S
C1610 H1601 0.930 . S
C1610 C1608 1.384 . S
C1610 C1611 1.372 . S
C1611 C1610 1.372 . S
C1611 C1612 1.400 . S
C1611 C1616 1.490 . S
C1612 H1602 0.930 . S
C1612 C1611 1.400 . S
C1612 C1615 1.386 . S
H1613 C1629 0.930 . S
H1614 C1630 0.931 . S
C1615 H1603 0.929 . S
C1615 C1609 1.390 . S
C1615 C1612 1.386 . S
C1616 C1611 1.490 . S
C1616 C1618 1.395 . S
C1616 C1619 1.403 . S
H1617 C1623 0.930 . S
C1618 H1604 0.930 . S
C1618 C1616 1.395 . S
C1618 C1621 1.403 . S
C1619 C1616 1.403 . S
C1619 C1620 1.524 . S
C1619 C1623 1.400 . S
C1620 H1605 0.960 . S
C1620 H1606 0.960 . S
C1620 H1607 0.960 . S
C1620 C1619 1.524 . S
C1621 C1618 1.403 . S
C1621 C1622 1.392 . S
C1621 C1625 1.495 . S
C1622 C1621 1.392 . S
C1622 C1623 1.385 . S
C1622 C1624 1.478 . S
C1623 H1617 0.930 . S
C1623 C1619 1.400 . S
C1623 C1622 1.385 . S
C1624 C1622 1.478 . S
C1624 C1626 1.381 . S
C1624 C1630 1.383 . S
C1625 C1621 1.495 . S
C1625 H1631 0.959 . S
C1625 H1632 0.961 . S
C1625 H1633 0.960 . S
C1626 C1624 1.381 . S
C1626 C1627 1.394 . S
C1626 H1634 0.930 . S
C1627 C1626 1.394 . S
C1627 C1628 1.383 . S
C1627 H1635 0.929 . S
C1628 C1627 1.383 . S
C1628 C1629 1.377 . S
C1629 H1613 0.930 . S
C1629 C1628 1.377 . S
C1629 C1630 1.379 . S
C1630 H1614 0.931 . S
C1630 C1624 1.383 . S
C1630 C1629 1.379 . S
H1631 C1625 0.959 . S
H1632 C1625 0.961 . S
H1633 C1625 0.960 . S
H1634 C1626 0.930 . S
H1635 C1627 0.929 . S
H1636 C1644 0.929 . S
H1637 C1646 0.930 . S
H1638 C1648 0.930 . S
H1639 C1651 0.929 . S
H1640 C1654 0.930 . S
H1641 C1656 0.960 . S
H1642 C1656 0.960 . S
H1643 C1656 0.960 . S
C1644 H1636 0.929 . S
C1644 C1645 1.377 . S
C1644 C1646 1.384 . S
C1645 C1644 1.377 . S
C1645 C1651 1.390 . S
C1646 H1637 0.930 . S
C1646 C1644 1.384 . S
C1646 C1647 1.372 . S
C1647 C1646 1.372 . S
C1647 C1648 1.400 . S
C1647 C1652 1.490 . S
C1648 H1638 0.930 . S
C1648 C1647 1.400 . S
C1648 C1651 1.386 . S
H1649 C1665 0.930 . S
H1650 C1666 0.931 . S
C1651 H1639 0.929 . S
C1651 C1645 1.390 . S
C1651 C1648 1.386 . S
C1652 C1647 1.490 . S
C1652 C1654 1.395 . S
C1652 C1655 1.403 . S
H1653 C1659 0.930 . S
C1654 H1640 0.930 . S
C1654 C1652 1.395 . S
C1654 C1657 1.403 . S
C1655 C1652 1.403 . S
C1655 C1656 1.524 . S
C1655 C1659 1.400 . S
C1656 H1641 0.960 . S
C1656 H1642 0.960 . S
C1656 H1643 0.960 . S
C1656 C1655 1.524 . S
C1657 C1654 1.403 . S
C1657 C1658 1.392 . S
C1657 C1661 1.495 . S
C1658 C1657 1.392 . S
C1658 C1659 1.385 . S
C1658 C1660 1.478 . S
C1659 H1653 0.930 . S
C1659 C1655 1.400 . S
C1659 C1658 1.385 . S
C1660 C1658 1.478 . S
C1660 C1662 1.381 . S
C1660 C1666 1.383 . S
C1661 C1657 1.495 . S
C1661 H1667 0.959 . S
C1661 H1668 0.961 . S
C1661 H1669 0.960 . S
C1662 C1660 1.381 . S
C1662 C1663 1.394 . S
C1662 H1670 0.930 . S
C1663 C1662 1.394 . S
C1663 C1664 1.383 . S
C1663 H1671 0.929 . S
C1664 C1663 1.383 . S
C1664 C1665 1.377 . S
C1665 H1649 0.930 . S
C1665 C1664 1.377 . S
C1665 C1666 1.379 . S
C1666 H1650 0.931 . S
C1666 C1660 1.383 . S
C1666 C1665 1.379 . S
H1667 C1661 0.959 . S
H1668 C1661 0.961 . S
H1669 C1661 0.960 . S
H1670 C1662 0.930 . S
H1671 C1663 0.929 . S
H1672 C1680 0.929 . S
H1673 C1682 0.930 . S
H1674 C1684 0.930 . S
H1675 C1687 0.929 . S
H1676 C1690 0.930 . S
H1677 C1692 0.960 . S
H1678 C1692 0.960 . S
H1679 C1692 0.960 . S
C1680 H1672 0.929 . S
C1680 C1681 1.377 . S
C1680 C1682 1.384 . S
C1681 C1680 1.377 . S
C1681 C1687 1.390 . S
C1682 H1673 0.930 . S
C1682 C1680 1.384 . S
C1682 C1683 1.372 . S
C1683 C1682 1.372 . S
C1683 C1684 1.400 . S
C1683 C1688 1.490 . S
C1684 H1674 0.930 . S
C1684 C1683 1.400 . S
C1684 C1687 1.386 . S
H1685 C1701 0.930 . S
H1686 C1702 0.931 . S
C1687 H1675 0.929 . S
C1687 C1681 1.390 . S
C1687 C1684 1.386 . S
C1688 C1683 1.490 . S
C1688 C1690 1.395 . S
C1688 C1691 1.403 . S
H1689 C1695 0.930 . S
C1690 H1676 0.930 . S
C1690 C1688 1.395 . S
C1690 C1693 1.403 . S
C1691 C1688 1.403 . S
C1691 C1692 1.524 . S
C1691 C1695 1.400 . S
C1692 H1677 0.960 . S
C1692 H1678 0.960 . S
C1692 H1679 0.960 . S
C1692 C1691 1.524 . S
C1693 C1690 1.403 . S
C1693 C1694 1.392 . S
C1693 C1697 1.495 . S
C1694 C1693 1.392 . S
C1694 C1695 1.385 . S
C1694 C1696 1.478 . S
C1695 H1689 0.930 . S
C1695 C1691 1.400 . S
C1695 C1694 1.385 . S
C1696 C1694 1.478 . S
C1696 C1698 1.381 . S
C1696 C1702 1.383 . S
C1697 C1693 1.495 . S
C1697 H1703 0.959 . S
C1697 H1704 0.961 . S
C1697 H1705 0.960 . S
C1698 C1696 1.381 . S
C1698 C1699 1.394 . S
C1698 H1706 0.930 . S
C1699 C1698 1.394 . S
C1699 C1700 1.383 . S
C1699 H1707 0.929 . S
C1700 C1699 1.383 . S
C1700 C1701 1.377 . S
C1701 H1685 0.930 . S
C1701 C1700 1.377 . S
C1701 C1702 1.379 . S
C1702 H1686 0.931 . S
C1702 C1696 1.383 . S
C1702 C1701 1.379 . S
H1703 C1697 0.959 . S
H1704 C1697 0.961 . S
H1705 C1697 0.960 . S
H1706 C1698 0.930 . S
H1707 C1699 0.929 . S
H1708 C1716 0.929 . S
H1709 C1718 0.930 . S
H1710 C1720 0.930 . S
H1711 C1723 0.929 . S
H1712 C1726 0.930 . S
H1713 C1728 0.960 . S
H1714 C1728 0.960 . S
H1715 C1728 0.960 . S
C1716 H1708 0.929 . S
C1716 C1717 1.377 . S
C1716 C1718 1.384 . S
C1717 C1716 1.377 . S
C1717 C1723 1.390 . S
C1718 H1709 0.930 . S
C1718 C1716 1.384 . S
C1718 C1719 1.372 . S
C1719 C1718 1.372 . S
C1719 C1720 1.400 . S
C1719 C1724 1.490 . S
C1720 H1710 0.930 . S
C1720 C1719 1.400 . S
C1720 C1723 1.386 . S
H1721 C1737 0.930 . S
H1722 C1738 0.931 . S
C1723 H1711 0.929 . S
C1723 C1717 1.390 . S
C1723 C1720 1.386 . S
C1724 C1719 1.490 . S
C1724 C1726 1.395 . S
C1724 C1727 1.403 . S
H1725 C1731 0.930 . S
C1726 H1712 0.930 . S
C1726 C1724 1.395 . S
C1726 C1729 1.403 . S
C1727 C1724 1.403 . S
C1727 C1728 1.524 . S
C1727 C1731 1.400 . S
C1728 H1713 0.960 . S
C1728 H1714 0.960 . S
C1728 H1715 0.960 . S
C1728 C1727 1.524 . S
C1729 C1726 1.403 . S
C1729 C1730 1.392 . S
C1729 C1733 1.495 . S
C1730 C1729 1.392 . S
C1730 C1731 1.385 . S
C1730 C1732 1.478 . S
C1731 H1725 0.930 . S
C1731 C1727 1.400 . S
C1731 C1730 1.385 . S
C1732 C1730 1.478 . S
C1732 C1734 1.381 . S
C1732 C1738 1.383 . S
C1733 C1729 1.495 . S
C1733 H1739 0.959 . S
C1733 H1740 0.961 . S
C1733 H1741 0.960 . S
C1734 C1732 1.381 . S
C1734 C1735 1.394 . S
C1734 H1742 0.930 . S
C1735 C1734 1.394 . S
C1735 C1736 1.383 . S
C1735 H1743 0.929 . S
C1736 C1735 1.383 . S
C1736 C1737 1.377 . S
C1737 H1721 0.930 . S
C1737 C1736 1.377 . S
C1737 C1738 1.379 . S
C1738 H1722 0.931 . S
C1738 C1732 1.383 . S
C1738 C1737 1.379 . S
H1739 C1733 0.959 . S
H1740 C1733 0.961 . S
H1741 C1733 0.960 . S
H1742 C1734 0.930 . S
H1743 C1735 0.929 . S
H1744 C1752 0.929 . S
H1745 C1754 0.930 . S
H1746 C1756 0.930 . S
H1747 C1759 0.929 . S
H1748 C1762 0.930 . S
H1749 C1764 0.960 . S
H1750 C1764 0.960 . S
H1751 C1764 0.960 . S
C1752 H1744 0.929 . S
C1752 C1753 1.377 . S
C1752 C1754 1.384 . S
C1753 C1752 1.377 . S
C1753 C1759 1.390 . S
C1754 H1745 0.930 . S
C1754 C1752 1.384 . S
C1754 C1755 1.372 . S
C1755 C1754 1.372 . S
C1755 C1756 1.400 . S
C1755 C1760 1.490 . S
C1756 H1746 0.930 . S
C1756 C1755 1.400 . S
C1756 C1759 1.386 . S
H1757 C1773 0.930 . S
H1758 C1774 0.931 . S
C1759 H1747 0.929 . S
C1759 C1753 1.390 . S
C1759 C1756 1.386 . S
C1760 C1755 1.490 . S
C1760 C1762 1.395 . S
C1760 C1763 1.403 . S
H1761 C1767 0.930 . S
C1762 H1748 0.930 . S
C1762 C1760 1.395 . S
C1762 C1765 1.403 . S
C1763 C1760 1.403 . S
C1763 C1764 1.524 . S
C1763 C1767 1.400 . S
C1764 H1749 0.960 . S
C1764 H1750 0.960 . S
C1764 H1751 0.960 . S
C1764 C1763 1.524 . S
C1765 C1762 1.403 . S
C1765 C1766 1.392 . S
C1765 C1769 1.495 . S
C1766 C1765 1.392 . S
C1766 C1767 1.385 . S
C1766 C1768 1.478 . S
C1767 H1761 0.930 . S
C1767 C1763 1.400 . S
C1767 C1766 1.385 . S
C1768 C1766 1.478 . S
C1768 C1770 1.381 . S
C1768 C1774 1.383 . S
C1769 C1765 1.495 . S
C1769 H1775 0.959 . S
C1769 H1776 0.961 . S
C1769 H1777 0.960 . S
C1770 C1768 1.381 . S
C1770 C1771 1.394 . S
C1770 H1778 0.930 . S
C1771 C1770 1.394 . S
C1771 C1772 1.383 . S
C1771 H1779 0.929 . S
C1772 C1771 1.383 . S
C1772 C1773 1.377 . S
C1773 H1757 0.930 . S
C1773 C1772 1.377 . S
C1773 C1774 1.379 . S
C1774 H1758 0.931 . S
C1774 C1768 1.383 . S
C1774 C1773 1.379 . S
H1775 C1769 0.959 . S
H1776 C1769 0.961 . S
H1777 C1769 0.960 . S
H1778 C1770 0.930 . S
H1779 C1771 0.929 . S
H1780 C1788 0.929 . S
H1781 C1790 0.930 . S
H1782 C1792 0.930 . S
H1783 C1795 0.929 . S
H1784 C1798 0.930 . S
H1785 C1800 0.960 . S
H1786 C1800 0.960 . S
H1787 C1800 0.960 . S
C1788 H1780 0.929 . S
C1788 C1789 1.377 . S
C1788 C1790 1.384 . S
C1789 C1788 1.377 . S
C1789 C1795 1.390 . S
C1790 H1781 0.930 . S
C1790 C1788 1.384 . S
C1790 C1791 1.372 . S
C1791 C1790 1.372 . S
C1791 C1792 1.400 . S
C1791 C1796 1.490 . S
C1792 H1782 0.930 . S
C1792 C1791 1.400 . S
C1792 C1795 1.386 . S
H1793 C1809 0.930 . S
H1794 C1810 0.931 . S
C1795 H1783 0.929 . S
C1795 C1789 1.390 . S
C1795 C1792 1.386 . S
C1796 C1791 1.490 . S
C1796 C1798 1.395 . S
C1796 C1799 1.403 . S
H1797 C1803 0.930 . S
C1798 H1784 0.930 . S
C1798 C1796 1.395 . S
C1798 C1801 1.403 . S
C1799 C1796 1.403 . S
C1799 C1800 1.524 . S
C1799 C1803 1.400 . S
C1800 H1785 0.960 . S
C1800 H1786 0.960 . S
C1800 H1787 0.960 . S
C1800 C1799 1.524 . S
C1801 C1798 1.403 . S
C1801 C1802 1.392 . S
C1801 C1805 1.495 . S
C1802 C1801 1.392 . S
C1802 C1803 1.385 . S
C1802 C1804 1.478 . S
C1803 H1797 0.930 . S
C1803 C1799 1.400 . S
C1803 C1802 1.385 . S
C1804 C1802 1.478 . S
C1804 C1806 1.381 . S
C1804 C1810 1.383 . S
C1805 C1801 1.495 . S
C1805 H1811 0.959 . S
C1805 H1812 0.961 . S
C1805 H1813 0.960 . S
C1806 C1804 1.381 . S
C1806 C1807 1.394 . S
C1806 H1814 0.930 . S
C1807 C1806 1.394 . S
C1807 C1808 1.383 . S
C1807 H1815 0.929 . S
C1808 C1807 1.383 . S
C1808 C1809 1.377 . S
C1809 H1793 0.930 . S
C1809 C1808 1.377 . S
C1809 C1810 1.379 . S
C1810 H1794 0.931 . S
C1810 C1804 1.383 . S
C1810 C1809 1.379 . S
H1811 C1805 0.959 . S
H1812 C1805 0.961 . S
H1813 C1805 0.960 . S
H1814 C1806 0.930 . S
H1815 C1807 0.929 . S
H1816 C1824 0.929 . S
H1817 C1826 0.930 . S
H1818 C1828 0.930 . S
H1819 C1831 0.929 . S
H1820 C1834 0.930 . S
H1821 C1836 0.960 . S
H1822 C1836 0.960 . S
H1823 C1836 0.960 . S
C1824 H1816 0.929 . S
C1824 C1825 1.377 . S
C1824 C1826 1.384 . S
C1825 C1824 1.377 . S
C1825 C1831 1.390 . S
C1826 H1817 0.930 . S
C1826 C1824 1.384 . S
C1826 C1827 1.372 . S
C1827 C1826 1.372 . S
C1827 C1828 1.400 . S
C1827 C1832 1.490 . S
C1828 H1818 0.930 . S
C1828 C1827 1.400 . S
C1828 C1831 1.386 . S
H1829 C1845 0.930 . S
H1830 C1846 0.931 . S
C1831 H1819 0.929 . S
C1831 C1825 1.390 . S
C1831 C1828 1.386 . S
C1832 C1827 1.490 . S
C1832 C1834 1.395 . S
C1832 C1835 1.403 . S
H1833 C1839 0.930 . S
C1834 H1820 0.930 . S
C1834 C1832 1.395 . S
C1834 C1837 1.403 . S
C1835 C1832 1.403 . S
C1835 C1836 1.524 . S
C1835 C1839 1.400 . S
C1836 H1821 0.960 . S
C1836 H1822 0.960 . S
C1836 H1823 0.960 . S
C1836 C1835 1.524 . S
C1837 C1834 1.403 . S
C1837 C1838 1.392 . S
C1837 C1841 1.495 . S
C1838 C1837 1.392 . S
C1838 C1839 1.385 . S
C1838 C1840 1.478 . S
C1839 H1833 0.930 . S
C1839 C1835 1.400 . S
C1839 C1838 1.385 . S
C1840 C1838 1.478 . S
C1840 C1842 1.381 . S
C1840 C1846 1.383 . S
C1841 C1837 1.495 . S
C1841 H1847 0.959 . S
C1841 H1848 0.961 . S
C1841 H1849 0.960 . S
C1842 C1840 1.381 . S
C1842 C1843 1.394 . S
C1842 H1850 0.930 . S
C1843 C1842 1.394 . S
C1843 C1844 1.383 . S
C1843 H1851 0.929 . S
C1844 C1843 1.383 . S
C1844 C1845 1.377 . S
C1845 H1829 0.930 . S
C1845 C1844 1.377 . S
C1845 C1846 1.379 . S
C1846 H1830 0.931 . S
C1846 C1840 1.383 . S
C1846 C1845 1.379 . S
H1847 C1841 0.959 . S
H1848 C1841 0.961 . S
H1849 C1841 0.960 . S
H1850 C1842 0.930 . S
H1851 C1843 0.929 . S
H1852 C1860 0.929 . S
H1853 C1862 0.930 . S
H1854 C1864 0.930 . S
H1855 C1867 0.929 . S
H1856 C1870 0.930 . S
H1857 C1872 0.960 . S
H1858 C1872 0.960 . S
H1859 C1872 0.960 . S
C1860 H1852 0.929 . S
C1860 C1861 1.377 . S
C1860 C1862 1.384 . S
C1861 C1860 1.377 . S
C1861 C1867 1.390 . S
C1862 H1853 0.930 . S
C1862 C1860 1.384 . S
C1862 C1863 1.372 . S
C1863 C1862 1.372 . S
C1863 C1864 1.400 . S
C1863 C1868 1.490 . S
C1864 H1854 0.930 . S
C1864 C1863 1.400 . S
C1864 C1867 1.386 . S
H1865 C1881 0.930 . S
H1866 C1882 0.931 . S
C1867 H1855 0.929 . S
C1867 C1861 1.390 . S
C1867 C1864 1.386 . S
C1868 C1863 1.490 . S
C1868 C1870 1.395 . S
C1868 C1871 1.403 . S
H1869 C1875 0.930 . S
C1870 H1856 0.930 . S
C1870 C1868 1.395 . S
C1870 C1873 1.403 . S
C1871 C1868 1.403 . S
C1871 C1872 1.524 . S
C1871 C1875 1.400 . S
C1872 H1857 0.960 . S
C1872 H1858 0.960 . S
C1872 H1859 0.960 . S
C1872 C1871 1.524 . S
C1873 C1870 1.403 . S
C1873 C1874 1.392 . S
C1873 C1877 1.495 . S
C1874 C1873 1.392 . S
C1874 C1875 1.385 . S
C1874 C1876 1.478 . S
C1875 H1869 0.930 . S
C1875 C1871 1.400 . S
C1875 C1874 1.385 . S
C1876 C1874 1.478 . S
C1876 C1878 1.381 . S
C1876 C1882 1.383 . S
C1877 C1873 1.495 . S
C1877 H1883 0.959 . S
C1877 H1884 0.961 . S
C1877 H1885 0.960 . S
C1878 C1876 1.381 . S
C1878 C1879 1.394 . S
C1878 H1886 0.930 . S
C1879 C1878 1.394 . S
C1879 C1880 1.383 . S
C1879 H1887 0.929 . S
C1880 C1879 1.383 . S
C1880 C1881 1.377 . S
C1881 H1865 0.930 . S
C1881 C1880 1.377 . S
C1881 C1882 1.379 . S
C1882 H1866 0.931 . S
C1882 C1876 1.383 . S
C1882 C1881 1.379 . S
H1883 C1877 0.959 . S
H1884 C1877 0.961 . S
H1885 C1877 0.960 . S
H1886 C1878 0.930 . S
H1887 C1879 0.929 . S
H1888 C1896 0.929 . S
H1889 C1898 0.930 . S
H1890 C1900 0.930 . S
H1891 C1903 0.929 . S
H1892 C1906 0.930 . S
H1893 C1908 0.960 . S
H1894 C1908 0.960 . S
H1895 C1908 0.960 . S
C1896 H1888 0.929 . S
C1896 C1897 1.377 . S
C1896 C1898 1.384 . S
C1897 C1896 1.377 . S
C1897 C1903 1.390 . S
C1898 H1889 0.930 . S
C1898 C1896 1.384 . S
C1898 C1899 1.372 . S
C1899 C1898 1.372 . S
C1899 C1900 1.400 . S
C1899 C1904 1.490 . S
C1900 H1890 0.930 . S
C1900 C1899 1.400 . S
C1900 C1903 1.386 . S
H1901 C1917 0.930 . S
H1902 C1918 0.931 . S
C1903 H1891 0.929 . S
C1903 C1897 1.390 . S
C1903 C1900 1.386 . S
C1904 C1899 1.490 . S
C1904 C1906 1.395 . S
C1904 C1907 1.403 . S
H1905 C1911 0.930 . S
C1906 H1892 0.930 . S
C1906 C1904 1.395 . S
C1906 C1909 1.403 . S
C1907 C1904 1.403 . S
C1907 C1908 1.524 . S
C1907 C1911 1.400 . S
C1908 H1893 0.960 . S
C1908 H1894 0.960 . S
C1908 H1895 0.960 . S
C1908 C1907 1.524 . S
C1909 C1906 1.403 . S
C1909 C1910 1.392 . S
C1909 C1913 1.495 . S
C1910 C1909 1.392 . S
C1910 C1911 1.385 . S
C1910 C1912 1.478 . S
C1911 H1905 0.930 . S
C1911 C1907 1.400 . S
C1911 C1910 1.385 . S
C1912 C1910 1.478 . S
C1912 C1914 1.381 . S
C1912 C1918 1.383 . S
C1913 C1909 1.495 . S
C1913 H1919 0.959 . S
C1913 H1920 0.961 . S
C1913 H1921 0.960 . S
C1914 C1912 1.381 . S
C1914 C1915 1.394 . S
C1914 H1922 0.930 . S
C1915 C1914 1.394 . S
C1915 C1916 1.383 . S
C1915 H1923 0.929 . S
C1916 C1915 1.383 . S
C1916 C1917 1.377 . S
C1917 H1901 0.930 . S
C1917 C1916 1.377 . S
C1917 C1918 1.379 . S
C1918 H1902 0.931 . S
C1918 C1912 1.383 . S
C1918 C1917 1.379 . S
H1919 C1913 0.959 . S
H1920 C1913 0.961 . S
H1921 C1913 0.960 . S
H1922 C1914 0.930 . S
H1923 C1915 0.929 . S
H1924 C1932 0.929 . S
H1925 C1934 0.930 . S
H1926 C1936 0.930 . S
H1927 C1939 0.929 . S
H1928 C1942 0.930 . S
H1929 C1944 0.960 . S
H1930 C1944 0.960 . S
H1931 C1944 0.960 . S
C1932 H1924 0.929 . S
C1932 C1933 1.377 . S
C1932 C1934 1.384 . S
C1933 C1932 1.377 . S
C1933 C1939 1.390 . S
C1934 H1925 0.930 . S
C1934 C1932 1.384 . S
C1934 C1935 1.372 . S
C1935 C1934 1.372 . S
C1935 C1936 1.400 . S
C1935 C1940 1.490 . S
C1936 H1926 0.930 . S
C1936 C1935 1.400 . S
C1936 C1939 1.386 . S
H1937 C1953 0.930 . S
H1938 C1954 0.931 . S
C1939 H1927 0.929 . S
C1939 C1933 1.390 . S
C1939 C1936 1.386 . S
C1940 C1935 1.490 . S
C1940 C1942 1.395 . S
C1940 C1943 1.403 . S
H1941 C1947 0.930 . S
C1942 H1928 0.930 . S
C1942 C1940 1.395 . S
C1942 C1945 1.403 . S
C1943 C1940 1.403 . S
C1943 C1944 1.524 . S
C1943 C1947 1.400 . S
C1944 H1929 0.960 . S
C1944 H1930 0.960 . S
C1944 H1931 0.960 . S
C1944 C1943 1.524 . S
C1945 C1942 1.403 . S
C1945 C1946 1.392 . S
C1945 C1949 1.495 . S
C1946 C1945 1.392 . S
C1946 C1947 1.385 . S
C1946 C1948 1.478 . S
C1947 H1941 0.930 . S
C1947 C1943 1.400 . S
C1947 C1946 1.385 . S
C1948 C1946 1.478 . S
C1948 C1950 1.381 . S
C1948 C1954 1.383 . S
C1949 C1945 1.495 . S
C1949 H1955 0.959 . S
C1949 H1956 0.961 . S
C1949 H1957 0.960 . S
C1950 C1948 1.381 . S
C1950 C1951 1.394 . S
C1950 H1958 0.930 . S
C1951 C1950 1.394 . S
C1951 C1952 1.383 . S
C1951 H1959 0.929 . S
C1952 C1951 1.383 . S
C1952 C1953 1.377 . S
C1953 H1937 0.930 . S
C1953 C1952 1.377 . S
C1953 C1954 1.379 . S
C1954 H1938 0.931 . S
C1954 C1948 1.383 . S
C1954 C1953 1.379 . S
H1955 C1949 0.959 . S
H1956 C1949 0.961 . S
H1957 C1949 0.960 . S
H1958 C1950 0.930 . S
H1959 C1951 0.929 . S
H1960 C1968 0.929 . S
H1961 C1970 0.930 . S
H1962 C1972 0.930 . S
H1963 C1975 0.929 . S
H1964 C1978 0.930 . S
H1965 C1980 0.960 . S
H1966 C1980 0.960 . S
H1967 C1980 0.960 . S
C1968 H1960 0.929 . S
C1968 C1969 1.377 . S
C1968 C1970 1.384 . S
C1969 C1968 1.377 . S
C1969 C1975 1.390 . S
C1970 H1961 0.930 . S
C1970 C1968 1.384 . S
C1970 C1971 1.372 . S
C1971 C1970 1.372 . S
C1971 C1972 1.400 . S
C1971 C1976 1.490 . S
C1972 H1962 0.930 . S
C1972 C1971 1.400 . S
C1972 C1975 1.386 . S
H1973 C1989 0.930 . S
H1974 C1990 0.931 . S
C1975 H1963 0.929 . S
C1975 C1969 1.390 . S
C1975 C1972 1.386 . S
C1976 C1971 1.490 . S
C1976 C1978 1.395 . S
C1976 C1979 1.403 . S
H1977 C1983 0.930 1_655 S
C1978 H1964 0.930 . S
C1978 C1976 1.395 . S
C1978 C1981 1.403 . S
C1979 C1976 1.403 . S
C1979 C1980 1.524 1_455 S
C1979 C1983 1.400 . S
C1980 H1965 0.960 . S
C1980 H1966 0.960 . S
C1980 H1967 0.960 . S
C1980 C1979 1.524 1_655 S
C1981 C1978 1.403 . S
C1981 C1982 1.392 . S
C1981 C1985 1.495 . S
C1982 C1981 1.392 . S
C1982 C1983 1.385 . S
C1982 C1984 1.478 . S
C1983 H1977 0.930 1_455 S
C1983 C1979 1.400 . S
C1983 C1982 1.385 . S
C1984 C1982 1.478 . S
C1984 C1986 1.381 . S
C1984 C1990 1.383 . S
C1985 C1981 1.495 . S
C1985 H1991 0.959 . S
C1985 H1992 0.961 . S
C1985 H1993 0.960 . S
C1986 C1984 1.381 . S
C1986 C1987 1.394 . S
C1986 H1994 0.930 . S
C1987 C1986 1.394 . S
C1987 C1988 1.383 . S
C1987 H1995 0.929 . S
C1988 C1987 1.383 . S
C1988 C1989 1.377 . S
C1989 H1973 0.930 . S
C1989 C1988 1.377 . S
C1989 C1990 1.379 . S
C1990 H1974 0.931 . S
C1990 C1984 1.383 . S
C1990 C1989 1.379 . S
H1991 C1985 0.959 . S
H1992 C1985 0.961 . S
H1993 C1985 0.960 . S
H1994 C1986 0.930 . S
H1995 C1987 0.929 . S
H1996 C2004 0.929 . S
H1997 C2006 0.930 . S
H1998 C2008 0.930 . S
H1999 C2011 0.929 . S
H2000 C2014 0.930 . S
H2001 C2016 0.960 . S
H2002 C2016 0.960 . S
H2003 C2016 0.960 . S
C2004 H1996 0.929 . S
C2004 C2005 1.377 . S
C2004 C2006 1.384 . S
C2005 C2004 1.377 . S
C2005 C2011 1.390 . S
C2006 H1997 0.930 . S
C2006 C2004 1.384 . S
C2006 C2007 1.372 . S
C2007 C2006 1.372 . S
C2007 C2008 1.400 . S
C2007 C2012 1.490 . S
C2008 H1998 0.930 . S
C2008 C2007 1.400 . S
C2008 C2011 1.386 . S
H2009 C2025 0.930 . S
H2010 C2026 0.931 . S
C2011 H1999 0.929 . S
C2011 C2005 1.390 . S
C2011 C2008 1.386 . S
C2012 C2007 1.490 . S
C2012 C2014 1.395 . S
C2012 C2015 1.403 . S
H2013 C2019 0.930 . S
C2014 H2000 0.930 . S
C2014 C2012 1.395 . S
C2014 C2017 1.403 . S
C2015 C2012 1.403 . S
C2015 C2016 1.524 . S
C2015 C2019 1.400 . S
C2016 H2001 0.960 . S
C2016 H2002 0.960 . S
C2016 H2003 0.960 . S
C2016 C2015 1.524 . S
C2017 C2014 1.403 . S
C2017 C2018 1.392 . S
C2017 C2021 1.495 . S
C2018 C2017 1.392 . S
C2018 C2019 1.385 . S
C2018 C2020 1.478 . S
C2019 H2013 0.930 . S
C2019 C2015 1.400 . S
C2019 C2018 1.385 . S
C2020 C2018 1.478 . S
C2020 C2022 1.381 . S
C2020 C2026 1.383 . S
C2021 C2017 1.495 . S
C2021 H2027 0.959 . S
C2021 H2028 0.961 . S
C2021 H2029 0.960 . S
C2022 C2020 1.381 . S
C2022 C2023 1.394 . S
C2022 H2030 0.930 . S
C2023 C2022 1.394 . S
C2023 C2024 1.383 . S
C2023 H2031 0.929 . S
C2024 C2023 1.383 . S
C2024 C2025 1.377 . S
C2025 H2009 0.930 . S
C2025 C2024 1.377 . S
C2025 C2026 1.379 . S
C2026 H2010 0.931 . S
C2026 C2020 1.383 . S
C2026 C2025 1.379 . S
H2027 C2021 0.959 . S
H2028 C2021 0.961 . S
H2029 C2021 0.960 . S
H2030 C2022 0.930 . S
H2031 C2023 0.929 . S
H2032 C2040 0.929 . S
H2033 C2042 0.930 . S
H2034 C2044 0.930 . S
H2035 C2047 0.929 . S
H2036 C2050 0.930 . S
H2037 C2052 0.960 . S
H2038 C2052 0.960 . S
H2039 C2052 0.960 . S
C2040 H2032 0.929 . S
C2040 C2041 1.377 . S
C2040 C2042 1.384 . S
C2041 C2040 1.377 . S
C2041 C2047 1.390 . S
C2042 H2033 0.930 . S
C2042 C2040 1.384 . S
C2042 C2043 1.372 . S
C2043 C2042 1.372 . S
C2043 C2044 1.400 . S
C2043 C2048 1.490 . S
C2044 H2034 0.930 . S
C2044 C2043 1.400 . S
C2044 C2047 1.386 . S
H2045 C2061 0.892 1_545 S
H2046 C2062 0.931 . S
C2047 H2035 0.929 . S
C2047 C2041 1.390 . S
C2047 C2044 1.386 . S
C2048 C2043 1.490 . S
C2048 C2050 1.395 . S
C2048 C2051 1.403 . S
H2049 C2055 0.930 . S
C2050 H2036 0.930 . S
C2050 C2048 1.395 . S
C2050 C2053 1.403 . S
C2051 C2048 1.403 . S
C2051 C2052 1.524 . S
C2051 C2055 1.400 . S
C2052 H2037 0.960 . S
C2052 H2038 0.960 . S
C2052 H2039 0.960 . S
C2052 C2051 1.524 . S
C2053 C2050 1.403 . S
C2053 C2054 1.392 . S
C2053 C2057 1.495 . S
C2054 C2053 1.392 . S
C2054 C2055 1.385 . S
C2054 C2056 1.478 . S
C2055 H2049 0.930 . S
C2055 C2051 1.400 . S
C2055 C2054 1.385 . S
C2056 C2054 1.478 . S
C2056 C2058 1.381 . S
C2056 C2062 1.383 . S
C2057 C2053 1.495 . S
C2057 H2063 0.959 . S
C2057 H2064 0.961 . S
C2057 H2065 0.960 . S
C2058 C2056 1.381 . S
C2058 C2059 1.394 . S
C2058 H2066 0.930 . S
C2059 C2058 1.394 . S
C2059 C2060 1.383 . S
C2059 H2067 0.929 1_556 S
C2060 C2059 1.383 . S
C2060 C2061 1.377 . S
C2061 H2045 0.892 1_565 S
C2061 C2060 1.377 . S
C2061 C2062 1.379 . S
C2062 H2046 0.931 . S
C2062 C2056 1.383 . S
C2062 C2061 1.379 . S
H2063 C2057 0.959 . S
H2064 C2057 0.961 . S
H2065 C2057 0.960 . S
H2066 C2058 0.930 . S
H2067 C2059 0.929 1_554 S
H2068 C2076 0.929 . S
H2069 C2078 0.930 . S
H2070 C2080 0.930 . S
H2071 C2083 0.929 . S
H2072 C2086 0.930 . S
H2073 C2088 0.960 . S
H2074 C2088 0.960 . S
H2075 C2088 0.960 . S
C2076 H2068 0.929 . S
C2076 C2077 1.377 . S
C2076 C2078 1.384 . S
C2077 C2076 1.377 . S
C2077 C2083 1.390 . S
C2078 H2069 0.930 . S
C2078 C2076 1.384 . S
C2078 C2079 1.372 . S
C2079 C2078 1.372 . S
C2079 C2080 1.400 . S
C2079 C2084 1.490 . S
C2080 H2070 0.930 . S
C2080 C2079 1.400 . S
C2080 C2083 1.386 . S
H2081 C2097 0.930 . S
H2082 C2098 0.931 . S
C2083 H2071 0.929 . S
C2083 C2077 1.390 . S
C2083 C2080 1.386 . S
C2084 C2079 1.490 . S
C2084 C2086 1.395 . S
C2084 C2087 1.403 . S
H2085 C2091 0.930 . S
C2086 H2072 0.930 . S
C2086 C2084 1.395 . S
C2086 C2089 1.403 . S
C2087 C2084 1.403 . S
C2087 C2088 1.524 . S
C2087 C2091 1.400 . S
C2088 H2073 0.960 . S
C2088 H2074 0.960 . S
C2088 H2075 0.960 . S
C2088 C2087 1.524 . S
C2089 C2086 1.403 . S
C2089 C2090 1.392 . S
C2089 C2093 1.495 . S
C2090 C2089 1.392 . S
C2090 C2091 1.385 . S
C2090 C2092 1.478 . S
C2091 H2085 0.930 . S
C2091 C2087 1.400 . S
C2091 C2090 1.385 . S
C2092 C2090 1.478 . S
C2092 C2094 1.381 . S
C2092 C2098 1.383 . S
C2093 C2089 1.495 . S
C2093 H2099 0.959 . S
C2093 H2100 0.961 . S
C2093 H2101 0.960 . S
C2094 C2092 1.381 . S
C2094 C2095 1.394 . S
C2094 H2102 0.930 . S
C2095 C2094 1.394 . S
C2095 C2096 1.383 . S
C2095 H2103 0.929 . S
C2096 C2095 1.383 . S
C2096 C2097 1.377 . S
C2097 H2081 0.930 . S
C2097 C2096 1.377 . S
C2097 C2098 1.379 . S
C2098 H2082 0.931 . S
C2098 C2092 1.383 . S
C2098 C2097 1.379 . S
H2099 C2093 0.959 . S
H2100 C2093 0.961 . S
H2101 C2093 0.960 . S
H2102 C2094 0.930 . S
H2103 C2095 0.929 . S
H2104 C2112 0.929 . S
H2105 C2114 0.930 . S
H2106 C2116 0.930 . S
H2107 C2119 0.929 . S
H2108 C2122 0.930 . S
H2109 C2124 0.960 . S
H2110 C2124 0.960 . S
H2111 C2124 0.960 . S
C2112 H2104 0.929 . S
C2112 C2113 1.377 . S
C2112 C2114 1.384 . S
C2113 C2112 1.377 . S
C2113 C2119 1.390 . S
C2114 H2105 0.930 . S
C2114 C2112 1.384 . S
C2114 C2115 1.372 . S
C2115 C2114 1.372 . S
C2115 C2116 1.400 . S
C2115 C2120 1.490 . S
C2116 H2106 0.930 . S
C2116 C2115 1.400 . S
C2116 C2119 1.386 . S
H2117 C2133 0.930 . S
H2118 C2134 0.931 . S
C2119 H2107 0.929 . S
C2119 C2113 1.390 . S
C2119 C2116 1.386 . S
C2120 C2115 1.490 . S
C2120 C2122 1.395 . S
C2120 C2123 1.403 . S
H2121 C2127 0.930 . S
C2122 H2108 0.930 . S
C2122 C2120 1.395 . S
C2122 C2125 1.403 . S
C2123 C2120 1.403 . S
C2123 C2124 1.524 . S
C2123 C2127 1.400 . S
C2124 H2109 0.960 . S
C2124 H2110 0.960 . S
C2124 H2111 0.960 . S
C2124 C2123 1.524 . S
C2125 C2122 1.403 . S
C2125 C2126 1.392 . S
C2125 C2129 1.495 . S
C2126 C2125 1.392 . S
C2126 C2127 1.385 . S
C2126 C2128 1.478 . S
C2127 H2121 0.930 . S
C2127 C2123 1.400 . S
C2127 C2126 1.385 . S
C2128 C2126 1.478 . S
C2128 C2130 1.381 . S
C2128 C2134 1.383 . S
C2129 C2125 1.495 . S
C2129 H2135 0.959 . S
C2129 H2136 0.961 . S
C2129 H2137 0.960 . S
C2130 C2128 1.381 . S
C2130 C2131 1.394 . S
C2130 H2138 0.930 . S
C2131 C2130 1.394 . S
C2131 C2132 1.383 . S
C2131 H2139 0.929 . S
C2132 C2131 1.383 . S
C2132 C2133 1.377 . S
C2133 H2117 0.930 . S
C2133 C2132 1.377 . S
C2133 C2134 1.379 . S
C2134 H2118 0.931 . S
C2134 C2128 1.383 . S
C2134 C2133 1.379 . S
H2135 C2129 0.959 . S
H2136 C2129 0.961 . S
H2137 C2129 0.960 . S
H2138 C2130 0.930 . S
H2139 C2131 0.929 . S
H2140 C2148 0.929 . S
H2141 C2150 0.930 . S
H2142 C2152 0.930 . S
H2143 C2155 0.929 . S
H2144 C2158 0.930 . S
H2145 C2160 0.960 . S
H2146 C2160 0.960 . S
H2147 C2160 0.960 . S
C2148 H2140 0.929 . S
C2148 C2149 1.377 . S
C2148 C2150 1.384 . S
C2149 C2148 1.377 . S
C2149 C2155 1.390 . S
C2150 H2141 0.930 . S
C2150 C2148 1.384 . S
C2150 C2151 1.372 . S
C2151 C2150 1.372 . S
C2151 C2152 1.400 . S
C2151 C2156 1.490 . S
C2152 H2142 0.930 . S
C2152 C2151 1.400 . S
C2152 C2155 1.386 . S
H2153 C2169 0.930 . S
H2154 C2170 0.931 . S
C2155 H2143 0.929 . S
C2155 C2149 1.390 . S
C2155 C2152 1.386 . S
C2156 C2151 1.490 . S
C2156 C2158 1.395 . S
C2156 C2159 1.403 . S
H2157 C2163 0.930 . S
C2158 H2144 0.930 . S
C2158 C2156 1.395 . S
C2158 C2161 1.403 . S
C2159 C2156 1.403 . S
C2159 C2160 1.524 . S
C2159 C2163 1.400 . S
C2160 H2145 0.960 . S
C2160 H2146 0.960 . S
C2160 H2147 0.960 . S
C2160 C2159 1.524 . S
C2161 C2158 1.403 . S
C2161 C2162 1.392 . S
C2161 C2165 1.495 . S
C2162 C2161 1.392 . S
C2162 C2163 1.385 . S
C2162 C2164 1.478 . S
C2163 H2157 0.930 . S
C2163 C2159 1.400 . S
C2163 C2162 1.385 . S
C2164 C2162 1.478 . S
C2164 C2166 1.381 . S
C2164 C2170 1.383 . S
C2165 C2161 1.495 . S
C2165 H2171 0.959 . S
C2165 H2172 0.961 . S
C2165 H2173 0.960 . S
C2166 C2164 1.381 . S
C2166 C2167 1.394 . S
C2166 H2174 0.930 . S
C2167 C2166 1.394 . S
C2167 C2168 1.383 . S
C2167 H2175 0.929 . S
C2168 C2167 1.383 . S
C2168 C2169 1.377 . S
C2169 H2153 0.930 . S
C2169 C2168 1.377 . S
C2169 C2170 1.379 . S
C2170 H2154 0.931 . S
C2170 C2164 1.383 . S
C2170 C2169 1.379 . S
H2171 C2165 0.959 . S
H2172 C2165 0.961 . S
H2173 C2165 0.960 . S
H2174 C2166 0.930 . S
H2175 C2167 0.929 . S
H2176 C2184 0.929 . S
H2177 C2186 0.930 . S
H2178 C2188 0.900 1_565 S
H2179 C2191 0.904 1_565 S
H2180 C2194 0.916 1_565 S
H2181 C2196 0.960 . S
H2182 C2196 0.960 . S
H2183 C2196 0.960 . S
C2184 H2176 0.929 . S
C2184 C2185 1.377 . S
C2184 C2186 1.384 . S
C2185 C2184 1.377 . S
C2185 C2191 1.424 . S
C2186 H2177 0.930 . S
C2186 C2184 1.384 . S
C2186 C2187 1.372 . S
C2187 C2186 1.372 . S
C2187 C2188 1.400 . S
C2187 C2192 1.490 . S
C2188 H2178 0.900 1_545 S
C2188 C2187 1.400 . S
C2188 C2191 1.380 . S
H2189 C2205 0.930 . S
H2190 C2206 0.931 . S
C2191 H2179 0.904 1_545 S
C2191 C2185 1.424 . S
C2191 C2188 1.380 . S
C2192 C2187 1.490 . S
C2192 C2194 1.395 . S
C2192 C2195 1.403 . S
H2193 C2199 0.930 . S
C2194 H2180 0.916 1_545 S
C2194 C2192 1.395 . S
C2194 C2197 1.403 . S
C2195 C2192 1.403 . S
C2195 C2196 1.524 . S
C2195 C2199 1.400 . S
C2196 H2181 0.960 . S
C2196 H2182 0.960 . S
C2196 H2183 0.960 . S
C2196 C2195 1.524 . S
C2197 C2194 1.403 . S
C2197 C2198 1.392 . S
C2197 C2201 1.495 1_545 S
C2198 C2197 1.392 . S
C2198 C2199 1.385 . S
C2198 C2200 1.478 . S
C2199 H2193 0.930 . S
C2199 C2195 1.400 . S
C2199 C2198 1.385 . S
C2200 C2198 1.478 . S
C2200 C2202 1.381 . S
C2200 C2206 1.383 . S
C2201 C2197 1.495 1_565 S
C2201 H2207 0.959 . S
C2201 H2208 0.961 . S
C2201 H2209 0.960 1_565 S
C2202 C2200 1.381 . S
C2202 C2203 1.394 . S
C2202 H2210 0.930 . S
C2203 C2202 1.394 . S
C2203 C2204 1.383 . S
C2203 H2211 0.929 . S
C2204 C2203 1.383 . S
C2204 C2205 1.377 . S
C2205 H2189 0.930 . S
C2205 C2204 1.377 . S
C2205 C2206 1.379 . S
C2206 H2190 0.931 . S
C2206 C2200 1.383 . S
C2206 C2205 1.379 . S
H2207 C2201 0.959 . S
H2208 C2201 0.961 . S
H2209 C2201 0.960 1_545 S
H2210 C2202 0.930 . S
H2211 C2203 0.929 . S
H2212 C2220 0.929 . S
H2213 C2222 0.930 . S
H2214 C2224 0.930 . S
H2215 C2227 0.929 . S
H2216 C2230 0.930 . S
H2217 C2232 0.960 . S
H2218 C2232 0.960 . S
H2219 C2232 0.960 . S
C2220 H2212 0.929 . S
C2220 C2221 1.377 . S
C2220 C2222 1.384 . S
C2221 C2220 1.377 . S
C2221 C2227 1.390 . S
C2222 H2213 0.930 . S
C2222 C2220 1.384 . S
C2222 C2223 1.372 . S
C2223 C2222 1.372 . S
C2223 C2224 1.400 . S
C2223 C2228 1.490 . S
C2224 H2214 0.930 . S
C2224 C2223 1.400 . S
C2224 C2227 1.386 . S
H2225 C2241 0.930 . S
H2226 C2242 0.931 . S
C2227 H2215 0.929 . S
C2227 C2221 1.390 . S
C2227 C2224 1.386 . S
C2228 C2223 1.490 . S
C2228 C2230 1.395 . S
C2228 C2231 1.403 . S
H2229 C2235 0.930 . S
C2230 H2216 0.930 . S
C2230 C2228 1.395 . S
C2230 C2233 1.403 . S
C2231 C2228 1.403 . S
C2231 C2232 1.524 . S
C2231 C2235 1.400 . S
C2232 H2217 0.960 . S
C2232 H2218 0.960 . S
C2232 H2219 0.960 . S
C2232 C2231 1.524 . S
C2233 C2230 1.403 . S
C2233 C2234 1.392 . S
C2233 C2237 1.495 . S
C2234 C2233 1.392 . S
C2234 C2235 1.385 . S
C2234 C2236 1.478 . S
C2235 H2229 0.930 . S
C2235 C2231 1.400 . S
C2235 C2234 1.385 . S
C2236 C2234 1.478 . S
C2236 C2238 1.381 . S
C2236 C2242 1.383 . S
C2237 C2233 1.495 . S
C2237 H2243 0.959 . S
C2237 H2244 0.961 . S
C2237 H2245 0.960 . S
C2238 C2236 1.381 . S
C2238 C2239 1.394 . S
C2238 H2246 0.930 . S
C2239 C2238 1.394 . S
C2239 C2240 1.383 . S
C2239 H2247 0.929 . S
C2240 C2239 1.383 . S
C2240 C2241 1.377 . S
C2241 H2225 0.930 . S
C2241 C2240 1.377 . S
C2241 C2242 1.379 . S
C2242 H2226 0.931 . S
C2242 C2236 1.383 . S
C2242 C2241 1.379 . S
H2243 C2237 0.959 . S
H2244 C2237 0.961 . S
H2245 C2237 0.960 . S
H2246 C2238 0.930 . S
H2247 C2239 0.929 . S
H2248 C2256 0.929 . S
H2249 C2258 0.930 . S
H2250 C2260 0.930 . S
H2251 C2263 0.929 . S
H2252 C2266 0.930 . S
H2253 C2268 0.960 . S
H2254 C2268 0.960 . S
H2255 C2268 0.960 1_545 S
C2256 H2248 0.929 . S
C2256 C2257 1.377 . S
C2256 C2258 1.384 . S
C2257 C2256 1.377 . S
C2257 C2263 1.390 . S
C2258 H2249 0.930 . S
C2258 C2256 1.384 . S
C2258 C2259 1.372 . S
C2259 C2258 1.372 . S
C2259 C2260 1.400 . S
C2259 C2264 1.490 . S
C2260 H2250 0.930 . S
C2260 C2259 1.400 . S
C2260 C2263 1.386 . S
H2261 C2277 0.930 . S
H2262 C2278 0.931 . S
C2263 H2251 0.929 . S
C2263 C2257 1.390 . S
C2263 C2260 1.386 . S
C2264 C2259 1.490 . S
C2264 C2266 1.395 . S
C2264 C2267 1.403 . S
H2265 C2271 0.930 . S
C2266 H2252 0.930 . S
C2266 C2264 1.395 . S
C2266 C2269 1.403 . S
C2267 C2264 1.403 . S
C2267 C2268 1.524 1_545 S
C2267 C2271 1.400 . S
C2268 H2253 0.960 . S
C2268 H2254 0.960 . S
C2268 H2255 0.960 1_565 S
C2268 C2267 1.524 1_565 S
C2269 C2266 1.403 . S
C2269 C2270 1.392 . S
C2269 C2273 1.495 . S
C2270 C2269 1.392 . S
C2270 C2271 1.385 . S
C2270 C2272 1.478 . S
C2271 H2265 0.930 . S
C2271 C2267 1.400 . S
C2271 C2270 1.385 . S
C2272 C2270 1.478 . S
C2272 C2274 1.381 . S
C2272 C2278 1.383 . S
C2273 C2269 1.495 . S
C2273 H2279 0.959 . S
C2273 H2280 0.961 . S
C2273 H2281 0.960 . S
C2274 C2272 1.381 . S
C2274 C2275 1.394 . S
C2274 H2282 0.930 . S
C2275 C2274 1.394 . S
C2275 C2276 1.383 . S
C2275 H2283 0.929 . S
C2276 C2275 1.383 . S
C2276 C2277 1.377 . S
C2277 H2261 0.930 . S
C2277 C2276 1.377 . S
C2277 C2278 1.379 . S
C2278 H2262 0.931 . S
C2278 C2272 1.383 . S
C2278 C2277 1.379 . S
H2279 C2273 0.959 . S
H2280 C2273 0.961 . S
H2281 C2273 0.960 . S
H2282 C2274 0.930 . S
H2283 C2275 0.929 . S
H2284 C2292 0.929 . S
H2285 C2294 0.930 . S
H2286 C2296 0.930 . S
H2287 C2299 0.929 . S
H2288 C2302 0.930 . S
H2289 C2304 0.960 . S
H2290 C2304 0.960 . S
H2291 C2304 0.960 . S
C2292 H2284 0.929 . S
C2292 C2293 1.377 . S
C2292 C2294 1.384 . S
C2293 C2292 1.377 . S
C2293 C2299 1.390 . S
C2294 H2285 0.930 . S
C2294 C2292 1.384 . S
C2294 C2295 1.372 . S
C2295 C2294 1.372 . S
C2295 C2296 1.400 . S
C2295 C2300 1.490 . S
C2296 H2286 0.930 . S
C2296 C2295 1.400 . S
C2296 C2299 1.386 . S
H2297 C2313 0.930 . S
H2298 C2314 0.931 . S
C2299 H2287 0.929 . S
C2299 C2293 1.390 . S
C2299 C2296 1.386 . S
C2300 C2295 1.490 . S
C2300 C2302 1.395 . S
C2300 C2303 1.403 . S
H2301 C2307 0.930 . S
C2302 H2288 0.930 . S
C2302 C2300 1.395 . S
C2302 C2305 1.403 . S
C2303 C2300 1.403 . S
C2303 C2304 1.524 . S
C2303 C2307 1.400 . S
C2304 H2289 0.960 . S
C2304 H2290 0.960 . S
C2304 H2291 0.960 . S
C2304 C2303 1.524 . S
C2305 C2302 1.403 . S
C2305 C2306 1.392 . S
C2305 C2309 1.495 . S
C2306 C2305 1.392 . S
C2306 C2307 1.385 . S
C2306 C2308 1.478 . S
C2307 H2301 0.930 . S
C2307 C2303 1.400 . S
C2307 C2306 1.385 . S
C2308 C2306 1.478 . S
C2308 C2310 1.381 . S
C2308 C2314 1.383 . S
C2309 C2305 1.495 . S
C2309 H2315 0.959 . S
C2309 H2316 0.961 . S
C2309 H2317 0.960 . S
C2310 C2308 1.381 . S
C2310 C2311 1.394 . S
C2310 H2318 0.930 . S
C2311 C2310 1.394 . S
C2311 C2312 1.383 . S
C2311 H2319 0.929 . S
C2312 C2311 1.383 . S
C2312 C2313 1.377 . S
C2313 H2297 0.930 . S
C2313 C2312 1.377 . S
C2313 C2314 1.379 . S
C2314 H2298 0.931 . S
C2314 C2308 1.383 . S
C2314 C2313 1.379 . S
H2315 C2309 0.959 . S
H2316 C2309 0.961 . S
H2317 C2309 0.960 . S
H2318 C2310 0.930 . S
H2319 C2311 0.929 . S
H2320 C2328 0.929 . S
H2321 C2330 0.930 . S
H2322 C2332 0.930 . S
H2323 C2335 0.929 . S
H2324 C2338 0.930 . S
H2325 C2340 0.960 . S
H2326 C2340 0.960 1_565 S
H2327 C2340 0.960 . S
C2328 H2320 0.929 . S
C2328 C2329 1.377 1_565 S
C2328 C2330 1.384 . S
C2329 C2328 1.377 1_545 S
C2329 C2335 1.390 . S
C2330 H2321 0.930 . S
C2330 C2328 1.384 . S
C2330 C2331 1.372 1_565 S
C2331 C2330 1.372 1_545 S
C2331 C2332 1.400 . S
C2331 C2336 1.490 . S
C2332 H2322 0.930 . S
C2332 C2331 1.400 . S
C2332 C2335 1.386 . S
H2333 C2349 0.930 . S
H2334 C2350 0.931 . S
C2335 H2323 0.929 . S
C2335 C2329 1.390 . S
C2335 C2332 1.386 . S
C2336 C2331 1.490 . S
C2336 C2338 1.395 . S
C2336 C2339 1.403 . S
H2337 C2343 0.930 . S
C2338 H2324 0.930 . S
C2338 C2336 1.395 . S
C2338 C2341 1.403 . S
C2339 C2336 1.403 . S
C2339 C2340 1.524 . S
C2339 C2343 1.400 . S
C2340 H2325 0.960 . S
C2340 H2326 0.960 1_545 S
C2340 H2327 0.960 . S
C2340 C2339 1.524 . S
C2341 C2338 1.403 . S
C2341 C2342 1.392 . S
C2341 C2345 1.495 . S
C2342 C2341 1.392 . S
C2342 C2343 1.385 . S
C2342 C2344 1.478 . S
C2343 H2337 0.930 . S
C2343 C2339 1.400 . S
C2343 C2342 1.385 . S
C2344 C2342 1.478 . S
C2344 C2346 1.381 1_545 S
C2344 C2350 1.383 . S
C2345 C2341 1.495 . S
C2345 H2351 0.959 . S
C2345 H2352 0.961 . S
C2345 H2353 0.960 1_545 S
C2346 C2344 1.381 1_565 S
C2346 C2347 1.394 . S
C2346 H2354 0.930 . S
C2347 C2346 1.394 . S
C2347 C2348 1.383 1_565 S
C2347 H2355 0.929 . S
C2348 C2347 1.383 1_545 S
C2348 C2349 1.377 . S
C2349 H2333 0.930 . S
C2349 C2348 1.377 . S
C2349 C2350 1.379 . S
C2350 H2334 0.931 . S
C2350 C2344 1.383 . S
C2350 C2349 1.379 . S
H2351 C2345 0.959 . S
H2352 C2345 0.961 . S
H2353 C2345 0.960 1_565 S
H2354 C2346 0.930 . S
H2355 C2347 0.929 . S
H2356 C2364 0.929 . S
H2357 C2366 0.930 . S
H2358 C2368 0.930 . S
H2359 C2371 0.929 . S
H2360 C2374 0.930 . S
H2361 C2376 0.960 . S
H2362 C2376 0.960 . S
H2363 C2376 0.960 . S
C2364 H2356 0.929 . S
C2364 C2365 1.377 . S
C2364 C2366 1.384 . S
C2365 C2364 1.377 . S
C2365 C2371 1.390 . S
C2366 H2357 0.930 . S
C2366 C2364 1.384 . S
C2366 C2367 1.372 . S
C2367 C2366 1.372 . S
C2367 C2368 1.400 . S
C2367 C2372 1.490 . S
C2368 H2358 0.930 . S
C2368 C2367 1.400 . S
C2368 C2371 1.386 . S
H2369 C2385 0.930 . S
H2370 C2386 0.931 . S
C2371 H2359 0.929 . S
C2371 C2365 1.390 . S
C2371 C2368 1.386 . S
C2372 C2367 1.490 . S
C2372 C2374 1.395 . S
C2372 C2375 1.403 . S
H2373 C2379 0.930 . S
C2374 H2360 0.930 . S
C2374 C2372 1.395 . S
C2374 C2377 1.403 . S
C2375 C2372 1.403 . S
C2375 C2376 1.524 . S
C2375 C2379 1.400 . S
C2376 H2361 0.960 . S
C2376 H2362 0.960 . S
C2376 H2363 0.960 . S
C2376 C2375 1.524 . S
C2377 C2374 1.403 . S
C2377 C2378 1.392 . S
C2377 C2381 1.495 . S
C2378 C2377 1.392 . S
C2378 C2379 1.385 . S
C2378 C2380 1.478 . S
C2379 H2373 0.930 . S
C2379 C2375 1.400 . S
C2379 C2378 1.385 . S
C2380 C2378 1.478 . S
C2380 C2382 1.381 . S
C2380 C2386 1.383 . S
C2381 C2377 1.495 . S
C2381 H2387 0.959 . S
C2381 H2388 0.961 . S
C2381 H2389 0.960 . S
C2382 C2380 1.381 . S
C2382 C2383 1.394 . S
C2382 H2390 0.930 . S
C2383 C2382 1.394 . S
C2383 C2384 1.383 . S
C2383 H2391 0.929 . S
C2384 C2383 1.383 . S
C2384 C2385 1.377 . S
C2385 H2369 0.930 . S
C2385 C2384 1.377 . S
C2385 C2386 1.379 . S
C2386 H2370 0.931 . S
C2386 C2380 1.383 . S
C2386 C2385 1.379 . S
H2387 C2381 0.959 . S
H2388 C2381 0.961 . S
H2389 C2381 0.960 . S
H2390 C2382 0.930 . S
H2391 C2383 0.929 . S
H2392 C2400 0.929 . S
H2393 C2402 0.930 . S
H2394 C2404 0.930 . S
H2395 C2407 0.929 . S
H2396 C2410 0.930 . S
H2397 C2412 0.960 . S
H2398 C2412 0.960 . S
H2399 C2412 0.960 . S
C2400 H2392 0.929 . S
C2400 C2401 1.377 . S
C2400 C2402 1.384 . S
C2401 C2400 1.377 . S
C2401 C2407 1.390 . S
C2402 H2393 0.930 . S
C2402 C2400 1.384 . S
C2402 C2403 1.372 . S
C2403 C2402 1.372 . S
C2403 C2404 1.400 . S
C2403 C2408 1.490 . S
C2404 H2394 0.930 . S
C2404 C2403 1.400 . S
C2404 C2407 1.386 . S
H2405 C2421 0.930 . S
H2406 C2422 0.931 . S
C2407 H2395 0.929 . S
C2407 C2401 1.390 . S
C2407 C2404 1.386 . S
C2408 C2403 1.490 . S
C2408 C2410 1.395 . S
C2408 C2411 1.403 . S
H2409 C2415 0.930 . S
C2410 H2396 0.930 . S
C2410 C2408 1.395 . S
C2410 C2413 1.403 . S
C2411 C2408 1.403 . S
C2411 C2412 1.524 . S
C2411 C2415 1.400 . S
C2412 H2397 0.960 . S
C2412 H2398 0.960 . S
C2412 H2399 0.960 . S
C2412 C2411 1.524 . S
C2413 C2410 1.403 . S
C2413 C2414 1.392 . S
C2413 C2417 1.495 . S
C2414 C2413 1.392 . S
C2414 C2415 1.385 . S
C2414 C2416 1.478 . S
C2415 H2409 0.930 . S
C2415 C2411 1.400 . S
C2415 C2414 1.385 . S
C2416 C2414 1.478 . S
C2416 C2418 1.381 . S
C2416 C2422 1.383 . S
C2417 C2413 1.495 . S
C2417 H2423 0.959 . S
C2417 H2424 0.961 . S
C2417 H2425 0.960 . S
C2418 C2416 1.381 . S
C2418 C2419 1.394 . S
C2418 H2426 0.930 . S
C2419 C2418 1.394 . S
C2419 C2420 1.383 . S
C2419 H2427 0.929 1_554 S
C2420 C2419 1.383 . S
C2420 C2421 1.377 . S
C2421 H2405 0.930 . S
C2421 C2420 1.377 . S
C2421 C2422 1.379 . S
C2422 H2406 0.931 . S
C2422 C2416 1.383 . S
C2422 C2421 1.379 . S
H2423 C2417 0.959 . S
H2424 C2417 0.961 . S
H2425 C2417 0.960 . S
H2426 C2418 0.930 . S
H2427 C2419 0.929 1_556 S
H2428 C2436 0.929 . S
H2429 C2438 0.930 . S
H2430 C2440 0.930 . S
H2431 C2443 0.929 . S
H2432 C2446 0.927 1_556 S
H2433 C2448 0.960 . S
H2434 C2448 0.960 . S
H2435 C2448 0.960 . S
C2436 H2428 0.929 . S
C2436 C2437 1.377 . S
C2436 C2438 1.384 . S
C2437 C2436 1.377 . S
C2437 C2443 1.390 . S
C2438 H2429 0.930 . S
C2438 C2436 1.384 . S
C2438 C2439 1.372 . S
C2439 C2438 1.372 . S
C2439 C2440 1.400 . S
C2439 C2444 1.490 . S
C2440 H2430 0.930 . S
C2440 C2439 1.400 . S
C2440 C2443 1.386 . S
H2441 C2457 0.930 . S
H2442 C2458 0.931 . S
C2443 H2431 0.929 . S
C2443 C2437 1.390 . S
C2443 C2440 1.386 . S
C2444 C2439 1.490 . S
C2444 C2446 1.395 . S
C2444 C2447 1.403 . S
H2445 C2451 0.930 . S
C2446 H2432 0.927 1_554 S
C2446 C2444 1.395 . S
C2446 C2449 1.403 . S
C2447 C2444 1.403 . S
C2447 C2448 1.524 . S
C2447 C2451 1.400 . S
C2448 H2433 0.960 . S
C2448 H2434 0.960 . S
C2448 H2435 0.960 . S
C2448 C2447 1.524 . S
C2449 C2446 1.403 . S
C2449 C2450 1.392 . S
C2449 C2453 1.495 1_554 S
C2450 C2449 1.392 . S
C2450 C2451 1.385 . S
C2450 C2452 1.478 . S
C2451 H2445 0.930 . S
C2451 C2447 1.400 . S
C2451 C2450 1.385 . S
C2452 C2450 1.478 . S
C2452 C2454 1.381 . S
C2452 C2458 1.383 . S
C2453 C2449 1.495 1_556 S
C2453 H2459 0.959 . S
C2453 H2460 0.961 . S
C2453 H2461 0.960 . S
C2454 C2452 1.381 . S
C2454 C2455 1.394 . S
C2454 H2462 0.930 . S
C2455 C2454 1.394 . S
C2455 C2456 1.383 . S
C2455 H2463 0.929 . S
C2456 C2455 1.383 . S
C2456 C2457 1.377 . S
C2457 H2441 0.930 . S
C2457 C2456 1.377 . S
C2457 C2458 1.379 . S
C2458 H2442 0.931 . S
C2458 C2452 1.383 . S
C2458 C2457 1.379 . S
H2459 C2453 0.959 . S
H2460 C2453 0.961 . S
H2461 C2453 0.960 . S
H2462 C2454 0.930 . S
H2463 C2455 0.929 . S
H2464 C2472 0.929 . S
H2465 C2474 0.930 . S
H2466 C2476 0.930 . S
H2467 C2479 0.929 . S
H2468 C2482 0.930 . S
H2469 C2484 0.960 . S
H2470 C2484 0.960 . S
H2471 C2484 0.960 . S
C2472 H2464 0.929 . S
C2472 C2473 1.377 . S
C2472 C2474 1.384 . S
C2473 C2472 1.377 . S
C2473 C2479 1.390 . S
C2474 H2465 0.930 . S
C2474 C2472 1.384 . S
C2474 C2475 1.372 . S
C2475 C2474 1.372 . S
C2475 C2476 1.400 . S
C2475 C2480 1.490 . S
C2476 H2466 0.930 . S
C2476 C2475 1.400 . S
C2476 C2479 1.386 . S
H2477 C2493 0.930 . S
H2478 C2494 0.931 . S
C2479 H2467 0.929 . S
C2479 C2473 1.390 . S
C2479 C2476 1.386 . S
C2480 C2475 1.490 . S
C2480 C2482 1.395 . S
C2480 C2483 1.403 . S
H2481 C2487 0.930 . S
C2482 H2468 0.930 . S
C2482 C2480 1.395 . S
C2482 C2485 1.403 . S
C2483 C2480 1.403 . S
C2483 C2484 1.524 . S
C2483 C2487 1.400 . S
C2484 H2469 0.960 . S
C2484 H2470 0.960 . S
C2484 H2471 0.960 . S
C2484 C2483 1.524 . S
C2485 C2482 1.403 . S
C2485 C2486 1.392 . S
C2485 C2489 1.495 . S
C2486 C2485 1.392 . S
C2486 C2487 1.385 . S
C2486 C2488 1.478 . S
C2487 H2481 0.930 . S
C2487 C2483 1.400 . S
C2487 C2486 1.385 . S
C2488 C2486 1.478 . S
C2488 C2490 1.381 . S
C2488 C2494 1.383 . S
C2489 C2485 1.495 . S
C2489 H2495 0.959 . S
C2489 H2496 0.961 . S
C2489 H2497 0.960 . S
C2490 C2488 1.381 . S
C2490 C2491 1.394 . S
C2490 H2498 0.930 . S
C2491 C2490 1.394 . S
C2491 C2492 1.383 . S
C2491 H2499 0.929 . S
C2492 C2491 1.383 . S
C2492 C2493 1.377 . S
C2493 H2477 0.930 . S
C2493 C2492 1.377 . S
C2493 C2494 1.379 . S
C2494 H2478 0.931 . S
C2494 C2488 1.383 . S
C2494 C2493 1.379 . S
H2495 C2489 0.959 . S
H2496 C2489 0.961 . S
H2497 C2489 0.960 . S
H2498 C2490 0.930 . S
H2499 C2491 0.929 . S
H2500 C2508 0.929 . S
H2501 C2510 0.930 . S
H2502 C2512 0.930 . S
H2503 C2515 0.929 . S
H2504 C2518 0.930 . S
H2505 C2520 0.960 . S
H2506 C2520 0.960 . S
H2507 C2520 0.960 . S
C2508 H2500 0.929 . S
C2508 C2509 1.377 . S
C2508 C2510 1.384 . S
C2509 C2508 1.377 . S
C2509 C2515 1.390 . S
C2510 H2501 0.930 . S
C2510 C2508 1.384 . S
C2510 C2511 1.372 . S
C2511 C2510 1.372 . S
C2511 C2512 1.400 . S
C2511 C2516 1.490 . S
C2512 H2502 0.930 . S
C2512 C2511 1.400 . S
C2512 C2515 1.386 . S
H2513 C2529 0.930 . S
H2514 C2530 0.931 . S
C2515 H2503 0.929 . S
C2515 C2509 1.390 . S
C2515 C2512 1.386 . S
C2516 C2511 1.490 . S
C2516 C2518 1.395 . S
C2516 C2519 1.403 . S
H2517 C2523 0.930 . S
C2518 H2504 0.930 . S
C2518 C2516 1.395 . S
C2518 C2521 1.403 . S
C2519 C2516 1.403 . S
C2519 C2520 1.524 . S
C2519 C2523 1.400 . S
C2520 H2505 0.960 . S
C2520 H2506 0.960 . S
C2520 H2507 0.960 . S
C2520 C2519 1.524 . S
C2521 C2518 1.403 . S
C2521 C2522 1.392 . S
C2521 C2525 1.495 . S
C2522 C2521 1.392 . S
C2522 C2523 1.385 . S
C2522 C2524 1.478 . S
C2523 H2517 0.930 . S
C2523 C2519 1.400 . S
C2523 C2522 1.385 . S
C2524 C2522 1.478 . S
C2524 C2526 1.381 . S
C2524 C2530 1.383 . S
C2525 C2521 1.495 . S
C2525 H2531 0.959 . S
C2525 H2532 0.961 . S
C2525 H2533 0.960 . S
C2526 C2524 1.381 . S
C2526 C2527 1.394 . S
C2526 H2534 0.930 . S
C2527 C2526 1.394 . S
C2527 C2528 1.383 . S
C2527 H2535 0.929 . S
C2528 C2527 1.383 . S
C2528 C2529 1.377 . S
C2529 H2513 0.930 . S
C2529 C2528 1.377 . S
C2529 C2530 1.379 . S
C2530 H2514 0.931 . S
C2530 C2524 1.383 . S
C2530 C2529 1.379 . S
H2531 C2525 0.959 . S
H2532 C2525 0.961 . S
H2533 C2525 0.960 . S
H2534 C2526 0.930 . S
H2535 C2527 0.929 . S
H2536 C2544 0.929 . S
H2537 C2546 0.930 . S
H2538 C2548 0.930 . S
H2539 C2551 0.929 . S
H2540 C2554 0.930 . S
H2541 C2556 0.960 . S
H2542 C2556 0.960 . S
H2543 C2556 0.960 . S
C2544 H2536 0.929 . S
C2544 C2545 1.377 . S
C2544 C2546 1.384 1_545 S
C2545 C2544 1.377 . S
C2545 C2551 1.390 . S
C2546 H2537 0.930 . S
C2546 C2544 1.384 1_565 S
C2546 C2547 1.372 . S
C2547 C2546 1.372 . S
C2547 C2548 1.400 . S
C2547 C2552 1.490 . S
C2548 H2538 0.930 . S
C2548 C2547 1.400 . S
C2548 C2551 1.386 1_565 S
H2549 C2565 0.930 . S
H2550 C2566 0.931 . S
C2551 H2539 0.929 . S
C2551 C2545 1.390 . S
C2551 C2548 1.386 1_545 S
C2552 C2547 1.490 . S
C2552 C2554 1.395 . S
C2552 C2555 1.403 . S
H2553 C2559 0.930 . S
C2554 H2540 0.930 . S
C2554 C2552 1.395 . S
C2554 C2557 1.403 . S
C2555 C2552 1.403 . S
C2555 C2556 1.524 . S
C2555 C2559 1.400 . S
C2556 H2541 0.960 . S
C2556 H2542 0.960 . S
C2556 H2543 0.960 . S
C2556 C2555 1.524 . S
C2557 C2554 1.403 . S
C2557 C2558 1.392 . S
C2557 C2561 1.495 . S
C2558 C2557 1.392 . S
C2558 C2559 1.385 . S
C2558 C2560 1.478 . S
C2559 H2553 0.930 . S
C2559 C2555 1.400 . S
C2559 C2558 1.385 . S
C2560 C2558 1.478 . S
C2560 C2562 1.381 . S
C2560 C2566 1.383 . S
C2561 C2557 1.495 . S
C2561 H2567 0.959 . S
C2561 H2568 0.961 . S
C2561 H2569 0.960 . S
C2562 C2560 1.381 . S
C2562 C2563 1.394 . S
C2562 H2570 0.930 . S
C2563 C2562 1.394 . S
C2563 C2564 1.383 . S
C2563 H2571 0.929 . S
C2564 C2563 1.383 . S
C2564 C2565 1.377 . S
C2565 H2549 0.930 . S
C2565 C2564 1.377 . S
C2565 C2566 1.379 . S
C2566 H2550 0.931 . S
C2566 C2560 1.383 . S
C2566 C2565 1.379 . S
H2567 C2561 0.959 . S
H2568 C2561 0.961 . S
H2569 C2561 0.960 . S
H2570 C2562 0.930 . S
H2571 C2563 0.929 . S
H2572 C2580 0.929 . S
H2573 C2582 0.930 . S
H2574 C2584 0.930 . S
H2575 C2587 0.929 . S
H2576 C2590 0.930 . S
H2577 C2592 0.960 . S
H2578 C2592 0.960 . S
H2579 C2592 0.960 . S
C2580 H2572 0.929 . S
C2580 C2581 1.377 . S
C2580 C2582 1.384 . S
C2581 C2580 1.377 . S
C2581 C2587 1.390 . S
C2582 H2573 0.930 . S
C2582 C2580 1.384 . S
C2582 C2583 1.372 . S
C2583 C2582 1.372 . S
C2583 C2584 1.400 . S
C2583 C2588 1.490 . S
C2584 H2574 0.930 . S
C2584 C2583 1.400 . S
C2584 C2587 1.386 . S
H2585 C2601 0.930 . S
H2586 C2602 0.931 . S
C2587 H2575 0.929 . S
C2587 C2581 1.390 . S
C2587 C2584 1.386 . S
C2588 C2583 1.490 . S
C2588 C2590 1.395 . S
C2588 C2591 1.403 . S
H2589 C2595 0.930 . S
C2590 H2576 0.930 . S
C2590 C2588 1.395 . S
C2590 C2593 1.403 . S
C2591 C2588 1.403 . S
C2591 C2592 1.524 . S
C2591 C2595 1.400 . S
C2592 H2577 0.960 . S
C2592 H2578 0.960 . S
C2592 H2579 0.960 . S
C2592 C2591 1.524 . S
C2593 C2590 1.403 . S
C2593 C2594 1.392 . S
C2593 C2597 1.495 . S
C2594 C2593 1.392 . S
C2594 C2595 1.385 . S
C2594 C2596 1.478 . S
C2595 H2589 0.930 . S
C2595 C2591 1.400 . S
C2595 C2594 1.385 . S
C2596 C2594 1.478 . S
C2596 C2598 1.381 . S
C2596 C2602 1.383 . S
C2597 C2593 1.495 . S
C2597 H2603 0.959 . S
C2597 H2604 0.961 . S
C2597 H2605 0.960 . S
C2598 C2596 1.381 . S
C2598 C2599 1.394 . S
C2598 H2606 0.930 . S
C2599 C2598 1.394 . S
C2599 C2600 1.383 . S
C2599 H2607 0.929 . S
C2600 C2599 1.383 . S
C2600 C2601 1.377 . S
C2601 H2585 0.930 . S
C2601 C2600 1.377 . S
C2601 C2602 1.379 . S
C2602 H2586 0.931 . S
C2602 C2596 1.383 . S
C2602 C2601 1.379 . S
H2603 C2597 0.959 . S
H2604 C2597 0.961 . S
H2605 C2597 0.960 . S
H2606 C2598 0.930 . S
H2607 C2599 0.929 . S
H2608 C2616 0.929 . S
H2609 C2618 0.930 . S
H2610 C2620 0.930 . S
H2611 C2623 0.929 . S
H2612 C2626 0.930 . S
H2613 C2628 0.960 . S
H2614 C2628 0.960 . S
H2615 C2628 0.960 . S
C2616 H2608 0.929 . S
C2616 C2617 1.377 . S
C2616 C2618 1.384 . S
C2617 C2616 1.377 . S
C2617 C2623 1.390 . S
C2618 H2609 0.930 . S
C2618 C2616 1.384 . S
C2618 C2619 1.372 . S
C2619 C2618 1.372 . S
C2619 C2620 1.400 . S
C2619 C2624 1.490 . S
C2620 H2610 0.930 . S
C2620 C2619 1.400 . S
C2620 C2623 1.386 . S
H2621 C2637 0.930 . S
H2622 C2638 0.931 . S
C2623 H2611 0.929 . S
C2623 C2617 1.390 . S
C2623 C2620 1.386 . S
C2624 C2619 1.490 . S
C2624 C2626 1.395 . S
C2624 C2627 1.403 . S
H2625 C2631 0.930 . S
C2626 H2612 0.930 . S
C2626 C2624 1.395 . S
C2626 C2629 1.403 . S
C2627 C2624 1.403 . S
C2627 C2628 1.524 . S
C2627 C2631 1.400 . S
C2628 H2613 0.960 . S
C2628 H2614 0.960 . S
C2628 H2615 0.960 . S
C2628 C2627 1.524 . S
C2629 C2626 1.403 . S
C2629 C2630 1.392 . S
C2629 C2633 1.495 . S
C2630 C2629 1.392 . S
C2630 C2631 1.385 . S
C2630 C2632 1.478 . S
C2631 H2625 0.930 . S
C2631 C2627 1.400 . S
C2631 C2630 1.385 . S
C2632 C2630 1.478 . S
C2632 C2634 1.381 . S
C2632 C2638 1.383 . S
C2633 C2629 1.495 . S
C2633 H2639 0.959 . S
C2633 H2640 0.961 . S
C2633 H2641 0.960 . S
C2634 C2632 1.381 . S
C2634 C2635 1.394 . S
C2634 H2642 0.930 . S
C2635 C2634 1.394 . S
C2635 C2636 1.383 . S
C2635 H2643 0.929 . S
C2636 C2635 1.383 . S
C2636 C2637 1.377 . S
C2637 H2621 0.930 . S
C2637 C2636 1.377 . S
C2637 C2638 1.379 . S
C2638 H2622 0.931 . S
C2638 C2632 1.383 . S
C2638 C2637 1.379 . S
H2639 C2633 0.959 . S
H2640 C2633 0.961 . S
H2641 C2633 0.960 . S
H2642 C2634 0.930 . S
H2643 C2635 0.929 . S
H2644 C2652 0.929 . S
H2645 C2654 0.930 . S
H2646 C2656 0.930 . S
H2647 C2659 0.929 . S
H2648 C2662 0.930 . S
H2649 C2664 0.960 . S
H2650 C2664 0.960 . S
H2651 C2664 0.960 . S
C2652 H2644 0.929 . S
C2652 C2653 1.377 . S
C2652 C2654 1.384 . S
C2653 C2652 1.377 . S
C2653 C2659 1.390 . S
C2654 H2645 0.930 . S
C2654 C2652 1.384 . S
C2654 C2655 1.372 . S
C2655 C2654 1.372 . S
C2655 C2656 1.400 . S
C2655 C2660 1.490 . S
C2656 H2646 0.930 . S
C2656 C2655 1.400 . S
C2656 C2659 1.386 . S
H2657 C2673 0.930 . S
H2658 C2674 0.931 . S
C2659 H2647 0.929 . S
C2659 C2653 1.390 . S
C2659 C2656 1.386 . S
C2660 C2655 1.490 . S
C2660 C2662 1.395 . S
C2660 C2663 1.403 . S
H2661 C2667 0.930 . S
C2662 H2648 0.930 . S
C2662 C2660 1.395 . S
C2662 C2665 1.403 . S
C2663 C2660 1.403 . S
C2663 C2664 1.524 . S
C2663 C2667 1.400 . S
C2664 H2649 0.960 . S
C2664 H2650 0.960 . S
C2664 H2651 0.960 . S
C2664 C2663 1.524 . S
C2665 C2662 1.403 . S
C2665 C2666 1.392 . S
C2665 C2669 1.495 . S
C2666 C2665 1.392 . S
C2666 C2667 1.385 . S
C2666 C2668 1.478 . S
C2667 H2661 0.930 . S
C2667 C2663 1.400 . S
C2667 C2666 1.385 . S
C2668 C2666 1.478 . S
C2668 C2670 1.381 . S
C2668 C2674 1.383 . S
C2669 C2665 1.495 . S
C2669 H2675 0.959 . S
C2669 H2676 0.961 . S
C2669 H2677 0.960 . S
C2670 C2668 1.381 . S
C2670 C2671 1.394 . S
C2670 H2678 0.930 . S
C2671 C2670 1.394 . S
C2671 C2672 1.383 . S
C2671 H2679 0.929 . S
C2672 C2671 1.383 . S
C2672 C2673 1.377 . S
C2673 H2657 0.930 . S
C2673 C2672 1.377 . S
C2673 C2674 1.379 . S
C2674 H2658 0.931 . S
C2674 C2668 1.383 . S
C2674 C2673 1.379 . S
H2675 C2669 0.959 . S
H2676 C2669 0.961 . S
H2677 C2669 0.960 . S
H2678 C2670 0.930 . S
H2679 C2671 0.929 . S
H2680 C2688 0.929 . S
H2681 C2690 0.930 . S
H2682 C2692 0.930 . S
H2683 C2695 0.929 . S
H2684 C2698 0.930 . S
H2685 C2700 0.960 . S
H2686 C2700 0.960 . S
H2687 C2700 0.960 . S
C2688 H2680 0.929 . S
C2688 C2689 1.377 . S
C2688 C2690 1.384 . S
C2689 C2688 1.377 . S
C2689 C2695 1.390 . S
C2690 H2681 0.930 . S
C2690 C2688 1.384 . S
C2690 C2691 1.372 . S
C2691 C2690 1.372 . S
C2691 C2692 1.400 . S
C2691 C2696 1.490 . S
C2692 H2682 0.930 . S
C2692 C2691 1.400 . S
C2692 C2695 1.386 . S
H2693 C2709 0.930 . S
H2694 C2710 0.931 . S
C2695 H2683 0.929 . S
C2695 C2689 1.390 . S
C2695 C2692 1.386 . S
C2696 C2691 1.490 . S
C2696 C2698 1.395 . S
C2696 C2699 1.403 . S
H2697 C2703 0.930 . S
C2698 H2684 0.930 . S
C2698 C2696 1.395 . S
C2698 C2701 1.403 . S
C2699 C2696 1.403 . S
C2699 C2700 1.524 . S
C2699 C2703 1.400 . S
C2700 H2685 0.960 . S
C2700 H2686 0.960 . S
C2700 H2687 0.960 . S
C2700 C2699 1.524 . S
C2701 C2698 1.403 . S
C2701 C2702 1.392 . S
C2701 C2705 1.495 . S
C2702 C2701 1.392 . S
C2702 C2703 1.385 . S
C2702 C2704 1.478 . S
C2703 H2697 0.930 . S
C2703 C2699 1.400 . S
C2703 C2702 1.385 . S
C2704 C2702 1.478 . S
C2704 C2706 1.381 . S
C2704 C2710 1.383 . S
C2705 C2701 1.495 . S
C2705 H2711 0.959 . S
C2705 H2712 0.961 . S
C2705 H2713 0.960 . S
C2706 C2704 1.381 . S
C2706 C2707 1.394 . S
C2706 H2714 0.930 . S
C2707 C2706 1.394 . S
C2707 C2708 1.383 . S
C2707 H2715 0.929 . S
C2708 C2707 1.383 . S
C2708 C2709 1.377 . S
C2709 H2693 0.930 . S
C2709 C2708 1.377 . S
C2709 C2710 1.379 . S
C2710 H2694 0.931 . S
C2710 C2704 1.383 . S
C2710 C2709 1.379 . S
H2711 C2705 0.959 . S
H2712 C2705 0.961 . S
H2713 C2705 0.960 . S
H2714 C2706 0.930 . S
H2715 C2707 0.929 . S
H2716 C2724 0.929 . S
H2717 C2726 0.930 . S
H2718 C2728 0.930 . S
H2719 C2731 0.929 . S
H2720 C2734 0.930 . S
H2721 C2736 0.960 . S
H2722 C2736 0.960 . S
H2723 C2736 0.960 . S
C2724 H2716 0.929 . S
C2724 C2725 1.377 . S
C2724 C2726 1.384 . S
C2725 C2724 1.377 . S
C2725 C2731 1.390 . S
C2726 H2717 0.930 . S
C2726 C2724 1.384 . S
C2726 C2727 1.372 . S
C2727 C2726 1.372 . S
C2727 C2728 1.400 . S
C2727 C2732 1.490 . S
C2728 H2718 0.930 . S
C2728 C2727 1.400 . S
C2728 C2731 1.386 . S
H2729 C2745 0.930 . S
H2730 C2746 0.931 . S
C2731 H2719 0.929 . S
C2731 C2725 1.390 . S
C2731 C2728 1.386 . S
C2732 C2727 1.490 . S
C2732 C2734 1.395 . S
C2732 C2735 1.403 . S
H2733 C2739 0.930 . S
C2734 H2720 0.930 . S
C2734 C2732 1.395 . S
C2734 C2737 1.403 . S
C2735 C2732 1.403 . S
C2735 C2736 1.524 . S
C2735 C2739 1.400 . S
C2736 H2721 0.960 . S
C2736 H2722 0.960 . S
C2736 H2723 0.960 . S
C2736 C2735 1.524 . S
C2737 C2734 1.403 . S
C2737 C2738 1.392 . S
C2737 C2741 1.495 . S
C2738 C2737 1.392 . S
C2738 C2739 1.385 . S
C2738 C2740 1.478 . S
C2739 H2733 0.930 . S
C2739 C2735 1.400 . S
C2739 C2738 1.385 . S
C2740 C2738 1.478 . S
C2740 C2742 1.381 . S
C2740 C2746 1.383 . S
C2741 C2737 1.495 . S
C2741 H2747 0.959 . S
C2741 H2748 0.961 . S
C2741 H2749 0.960 . S
C2742 C2740 1.381 . S
C2742 C2743 1.394 . S
C2742 H2750 0.930 . S
C2743 C2742 1.394 . S
C2743 C2744 1.383 . S
C2743 H2751 0.929 . S
C2744 C2743 1.383 . S
C2744 C2745 1.377 . S
C2745 H2729 0.930 . S
C2745 C2744 1.377 . S
C2745 C2746 1.379 . S
C2746 H2730 0.931 . S
C2746 C2740 1.383 . S
C2746 C2745 1.379 . S
H2747 C2741 0.959 . S
H2748 C2741 0.961 . S
H2749 C2741 0.960 . S
H2750 C2742 0.930 . S
H2751 C2743 0.929 . S
H2752 C2760 0.929 . S
H2753 C2762 0.930 . S
H2754 C2764 0.930 . S
H2755 C2767 0.929 . S
H2756 C2770 0.930 . S
H2757 C2772 0.960 . S
H2758 C2772 0.960 . S
H2759 C2772 0.960 . S
C2760 H2752 0.929 . S
C2760 C2761 1.377 . S
C2760 C2762 1.384 . S
C2761 C2760 1.377 . S
C2761 C2767 1.390 1_455 S
C2762 H2753 0.930 . S
C2762 C2760 1.384 . S
C2762 C2763 1.372 . S
C2763 C2762 1.372 . S
C2763 C2764 1.400 1_455 S
C2763 C2768 1.490 . S
C2764 H2754 0.930 . S
C2764 C2763 1.400 1_655 S
C2764 C2767 1.386 . S
H2765 C2781 0.930 . S
H2766 C2782 0.931 . S
C2767 H2755 0.929 . S
C2767 C2761 1.390 1_655 S
C2767 C2764 1.386 . S
C2768 C2763 1.490 . S
C2768 C2770 1.395 . S
C2768 C2771 1.403 1_456 S
H2769 C2775 0.930 . S
C2770 H2756 0.930 . S
C2770 C2768 1.395 . S
C2770 C2773 1.403 . S
C2771 C2768 1.403 1_654 S
C2771 C2772 1.524 . S
C2771 C2775 1.400 . S
C2772 H2757 0.960 . S
C2772 H2758 0.960 . S
C2772 H2759 0.960 . S
C2772 C2771 1.524 . S
C2773 C2770 1.403 . S
C2773 C2774 1.392 1_556 S
C2773 C2777 1.495 . S
C2774 C2773 1.392 1_554 S
C2774 C2775 1.385 1_455 S
C2774 C2776 1.478 . S
C2775 H2769 0.930 . S
C2775 C2771 1.400 . S
C2775 C2774 1.385 1_655 S
C2776 C2774 1.478 . S
C2776 C2778 1.381 . S
C2776 C2782 1.383 1_455 S
C2777 C2773 1.495 . S
C2777 H2783 0.959 . S
C2777 H2784 0.961 . S
C2777 H2785 0.960 . S
C2778 C2776 1.381 . S
C2778 C2779 1.394 . S
C2778 H2786 0.930 . S
C2779 C2778 1.394 . S
C2779 C2780 1.383 . S
C2779 H2787 0.929 . S
C2780 C2779 1.383 . S
C2780 C2781 1.377 1_455 S
C2781 H2765 0.930 . S
C2781 C2780 1.377 1_655 S
C2781 C2782 1.379 . S
C2782 H2766 0.931 . S
C2782 C2776 1.383 1_655 S
C2782 C2781 1.379 . S
H2783 C2777 0.959 . S
H2784 C2777 0.961 . S
H2785 C2777 0.960 . S
H2786 C2778 0.930 . S
H2787 C2779 0.929 . S
H2788 C2796 0.929 . S
H2789 C2798 0.930 . S
H2790 C2800 0.930 . S
H2791 C2803 0.929 1_455 S
H2792 C2806 0.930 . S
H2793 C2808 0.960 . S
H2794 C2808 0.960 . S
H2795 C2808 0.960 . S
C2796 H2788 0.929 . S
C2796 C2797 1.376 . S
C2796 C2798 1.384 . S
C2797 C2796 1.376 . S
C2797 C2803 1.390 . S
C2798 H2789 0.930 . S
C2798 C2796 1.384 . S
C2798 C2799 1.372 . S
C2799 C2798 1.372 . S
C2799 C2800 1.400 . S
C2799 C2804 1.490 . S
C2800 H2790 0.930 . S
C2800 C2799 1.400 . S
C2800 C2803 1.386 . S
H2801 C2817 0.930 . S
H2802 C2818 0.931 . S
C2803 H2791 0.929 1_655 S
C2803 C2797 1.390 . S
C2803 C2800 1.386 . S
C2804 C2799 1.490 . S
C2804 C2806 1.395 . S
C2804 C2807 1.403 . S
H2805 C2811 0.930 . S
C2806 H2792 0.930 . S
C2806 C2804 1.395 . S
C2806 C2809 1.403 . S
C2807 C2804 1.403 . S
C2807 C2808 1.524 . S
C2807 C2811 1.400 . S
C2808 H2793 0.960 . S
C2808 H2794 0.960 . S
C2808 H2795 0.960 . S
C2808 C2807 1.524 . S
C2809 C2806 1.403 . S
C2809 C2810 1.392 . S
C2809 C2813 1.495 . S
C2810 C2809 1.392 . S
C2810 C2811 1.385 . S
C2810 C2812 1.478 . S
C2811 H2805 0.930 . S
C2811 C2807 1.400 . S
C2811 C2810 1.385 . S
C2812 C2810 1.478 . S
C2812 C2814 1.381 . S
C2812 C2818 1.383 . S
C2813 C2809 1.495 . S
C2813 H2819 0.959 . S
C2813 H2820 0.961 . S
C2813 H2821 0.960 . S
C2814 C2812 1.381 . S
C2814 C2815 1.394 . S
C2814 H2822 0.930 . S
C2815 C2814 1.394 . S
C2815 C2816 1.383 . S
C2815 H2823 0.929 . S
C2816 C2815 1.383 . S
C2816 C2817 1.377 . S
C2817 H2801 0.930 . S
C2817 C2816 1.377 . S
C2817 C2818 1.379 . S
C2818 H2802 0.931 . S
C2818 C2812 1.383 . S
C2818 C2817 1.379 . S
H2819 C2813 0.959 . S
H2820 C2813 0.961 . S
H2821 C2813 0.960 . S
H2822 C2814 0.930 . S
H2823 C2815 0.929 . S
H2824 C2832 0.929 . S
H2825 C2834 0.930 . S
H2826 C2836 0.930 . S
H2827 C2839 0.929 . S
H2828 C2842 0.930 . S
H2829 C2844 0.960 . S
H2830 C2844 0.960 . S
H2831 C2844 0.960 . S
C2832 H2824 0.929 . S
C2832 C2833 1.377 . S
C2832 C2834 1.384 . S
C2833 C2832 1.377 . S
C2833 C2839 1.390 . S
C2834 H2825 0.930 . S
C2834 C2832 1.384 . S
C2834 C2835 1.372 . S
C2835 C2834 1.372 . S
C2835 C2836 1.400 . S
C2835 C2840 1.490 . S
C2836 H2826 0.930 . S
C2836 C2835 1.400 . S
C2836 C2839 1.386 . S
H2837 C2853 0.930 . S
H2838 C2854 0.931 . S
C2839 H2827 0.929 . S
C2839 C2833 1.390 . S
C2839 C2836 1.386 . S
C2840 C2835 1.490 . S
C2840 C2842 1.395 . S
C2840 C2843 1.403 . S
H2841 C2847 0.930 . S
C2842 H2828 0.930 . S
C2842 C2840 1.395 . S
C2842 C2845 1.403 . S
C2843 C2840 1.403 . S
C2843 C2844 1.524 . S
C2843 C2847 1.400 . S
C2844 H2829 0.960 . S
C2844 H2830 0.960 . S
C2844 H2831 0.960 . S
C2844 C2843 1.524 . S
C2845 C2842 1.403 . S
C2845 C2846 1.392 . S
C2845 C2849 1.495 . S
C2846 C2845 1.392 . S
C2846 C2847 1.385 . S
C2846 C2848 1.478 . S
C2847 H2841 0.930 . S
C2847 C2843 1.400 . S
C2847 C2846 1.385 . S
C2848 C2846 1.478 . S
C2848 C2850 1.381 . S
C2848 C2854 1.383 . S
C2849 C2845 1.495 . S
C2849 H2855 0.959 . S
C2849 H2856 0.961 . S
C2849 H2857 0.960 . S
C2850 C2848 1.381 . S
C2850 C2851 1.394 . S
C2850 H2858 0.930 . S
C2851 C2850 1.394 . S
C2851 C2852 1.383 . S
C2851 H2859 0.929 . S
C2852 C2851 1.383 . S
C2852 C2853 1.377 . S
C2853 H2837 0.930 . S
C2853 C2852 1.377 . S
C2853 C2854 1.379 . S
C2854 H2838 0.931 . S
C2854 C2848 1.383 . S
C2854 C2853 1.379 . S
H2855 C2849 0.959 . S
H2856 C2849 0.961 . S
H2857 C2849 0.960 . S
H2858 C2850 0.930 . S
H2859 C2851 0.929 . S
H2860 C2868 0.929 . S
H2861 C2870 0.930 . S
H2862 C2872 0.930 . S
H2863 C2875 0.929 . S
H2864 C2878 0.930 . S
H2865 C2880 0.960 . S
H2866 C2880 0.960 . S
H2867 C2880 0.960 . S
C2868 H2860 0.929 . S
C2868 C2869 1.377 . S
C2868 C2870 1.384 . S
C2869 C2868 1.377 . S
C2869 C2875 1.390 . S
C2870 H2861 0.930 . S
C2870 C2868 1.384 . S
C2870 C2871 1.372 . S
C2871 C2870 1.372 . S
C2871 C2872 1.400 . S
C2871 C2876 1.490 . S
C2872 H2862 0.930 . S
C2872 C2871 1.400 . S
C2872 C2875 1.386 . S
H2873 C2889 0.930 . S
H2874 C2890 0.931 . S
C2875 H2863 0.929 . S
C2875 C2869 1.390 . S
C2875 C2872 1.386 . S
C2876 C2871 1.490 . S
C2876 C2878 1.395 . S
C2876 C2879 1.403 . S
H2877 C2883 0.930 . S
C2878 H2864 0.930 . S
C2878 C2876 1.395 . S
C2878 C2881 1.403 . S
C2879 C2876 1.403 . S
C2879 C2880 1.524 . S
C2879 C2883 1.400 . S
C2880 H2865 0.960 . S
C2880 H2866 0.960 . S
C2880 H2867 0.960 . S
C2880 C2879 1.524 . S
C2881 C2878 1.403 . S
C2881 C2882 1.392 . S
C2881 C2885 1.495 . S
C2882 C2881 1.392 . S
C2882 C2883 1.385 . S
C2882 C2884 1.478 . S
C2883 H2877 0.930 . S
C2883 C2879 1.400 . S
C2883 C2882 1.385 . S
C2884 C2882 1.478 . S
C2884 C2886 1.381 . S
C2884 C2890 1.383 . S
C2885 C2881 1.495 . S
C2885 H2891 0.959 . S
C2885 H2892 0.961 . S
C2885 H2893 0.960 . S
C2886 C2884 1.381 . S
C2886 C2887 1.394 . S
C2886 H2894 0.930 . S
C2887 C2886 1.394 . S
C2887 C2888 1.383 . S
C2887 H2895 0.929 . S
C2888 C2887 1.383 . S
C2888 C2889 1.377 . S
C2889 H2873 0.930 . S
C2889 C2888 1.377 . S
C2889 C2890 1.379 . S
C2890 H2874 0.931 . S
C2890 C2884 1.383 . S
C2890 C2889 1.379 . S
H2891 C2885 0.959 . S
H2892 C2885 0.961 . S
H2893 C2885 0.960 . S
H2894 C2886 0.930 . S
H2895 C2887 0.929 . S
H2896 C2904 0.929 1_655 S
H2897 C2906 0.930 1_655 S
H2898 C2908 0.930 . S
H2899 C2911 0.929 . S
H2900 C2914 0.930 . S
H2901 C2916 0.960 . S
H2902 C2916 0.960 . S
H2903 C2916 0.960 . S
C2904 H2896 0.929 1_455 S
C2904 C2905 1.377 . S
C2904 C2906 1.384 . S
C2905 C2904 1.377 . S
C2905 C2911 1.390 . S
C2906 H2897 0.930 1_455 S
C2906 C2904 1.384 . S
C2906 C2907 1.372 . S
C2907 C2906 1.372 . S
C2907 C2908 1.400 . S
C2907 C2912 1.490 . S
C2908 H2898 0.930 . S
C2908 C2907 1.400 . S
C2908 C2911 1.386 . S
H2909 C2925 0.930 . S
H2910 C2926 0.931 . S
C2911 H2899 0.929 . S
C2911 C2905 1.390 . S
C2911 C2908 1.386 . S
C2912 C2907 1.490 . S
C2912 C2914 1.395 . S
C2912 C2915 1.403 1_455 S
H2913 C2919 0.929 . S
C2914 H2900 0.930 . S
C2914 C2912 1.395 . S
C2914 C2917 1.403 . S
C2915 C2912 1.403 1_655 S
C2915 C2916 1.524 . S
C2915 C2919 1.398 . S
C2916 H2901 0.960 . S
C2916 H2902 0.960 . S
C2916 H2903 0.960 . S
C2916 C2915 1.524 . S
C2917 C2914 1.403 . S
C2917 C2918 1.392 . S
C2917 C2921 1.495 . S
C2918 C2917 1.392 . S
C2918 C2919 1.388 1_455 S
C2918 C2920 1.478 . S
C2919 H2913 0.929 . S
C2919 C2915 1.398 . S
C2919 C2918 1.388 1_655 S
C2920 C2918 1.478 . S
C2920 C2922 1.381 . S
C2920 C2926 1.383 . S
C2921 C2917 1.495 . S
C2921 H2927 0.959 . S
C2921 H2928 0.961 . S
C2921 H2929 0.960 . S
C2922 C2920 1.381 . S
C2922 C2923 1.393 . S
C2922 H2930 0.930 1_455 S
C2923 C2922 1.393 . S
C2923 C2924 1.387 . S
C2923 H2931 0.927 1_455 S
C2924 C2923 1.387 . S
C2924 C2925 1.377 . S
C2925 H2909 0.930 . S
C2925 C2924 1.377 . S
C2925 C2926 1.379 . S
C2926 H2910 0.931 . S
C2926 C2920 1.383 . S
C2926 C2925 1.379 . S
H2927 C2921 0.959 . S
H2928 C2921 0.961 . S
H2929 C2921 0.960 . S
H2930 C2922 0.930 1_655 S
H2931 C2923 0.927 1_655 S
H2932 C2940 0.929 . S
H2933 C2942 0.930 . S
H2934 C2944 0.930 . S
H2935 C2947 0.929 . S
H2936 C2950 0.930 . S
H2937 C2952 0.960 . S
H2938 C2952 0.960 . S
H2939 C2952 0.960 . S
C2940 H2932 0.929 . S
C2940 C2941 1.377 . S
C2940 C2942 1.384 . S
C2941 C2940 1.377 . S
C2941 C2947 1.390 . S
C2942 H2933 0.930 . S
C2942 C2940 1.384 . S
C2942 C2943 1.372 . S
C2943 C2942 1.372 . S
C2943 C2944 1.400 . S
C2943 C2948 1.490 . S
C2944 H2934 0.930 . S
C2944 C2943 1.400 . S
C2944 C2947 1.386 . S
H2945 C2961 0.930 . S
H2946 C2962 0.931 . S
C2947 H2935 0.929 . S
C2947 C2941 1.390 . S
C2947 C2944 1.386 . S
C2948 C2943 1.490 . S
C2948 C2950 1.395 . S
C2948 C2951 1.403 . S
H2949 C2955 0.930 . S
C2950 H2936 0.930 . S
C2950 C2948 1.395 . S
C2950 C2953 1.403 . S
C2951 C2948 1.403 . S
C2951 C2952 1.524 . S
C2951 C2955 1.400 . S
C2952 H2937 0.960 . S
C2952 H2938 0.960 . S
C2952 H2939 0.960 . S
C2952 C2951 1.524 . S
C2953 C2950 1.403 . S
C2953 C2954 1.392 . S
C2953 C2957 1.495 . S
C2954 C2953 1.392 . S
C2954 C2955 1.385 . S
C2954 C2956 1.478 . S
C2955 H2949 0.930 . S
C2955 C2951 1.400 . S
C2955 C2954 1.385 . S
C2956 C2954 1.478 . S
C2956 C2958 1.381 . S
C2956 C2962 1.383 . S
C2957 C2953 1.495 . S
C2957 H2963 0.959 . S
C2957 H2964 0.961 . S
C2957 H2965 0.960 . S
C2958 C2956 1.381 . S
C2958 C2959 1.394 . S
C2958 H2966 0.930 . S
C2959 C2958 1.394 . S
C2959 C2960 1.383 . S
C2959 H2967 0.929 . S
C2960 C2959 1.383 . S
C2960 C2961 1.377 . S
C2961 H2945 0.930 . S
C2961 C2960 1.377 . S
C2961 C2962 1.379 . S
C2962 H2946 0.931 . S
C2962 C2956 1.383 . S
C2962 C2961 1.379 . S
H2963 C2957 0.959 . S
H2964 C2957 0.961 . S
H2965 C2957 0.960 . S
H2966 C2958 0.930 . S
H2967 C2959 0.929 . S
H2968 C2976 0.929 . S
H2969 C2978 0.930 . S
H2970 C2980 0.930 . S
H2971 C2983 0.929 . S
H2972 C2986 0.930 . S
H2973 C2988 0.960 . S
H2974 C2988 0.960 . S
H2975 C2988 0.960 . S
C2976 H2968 0.929 . S
C2976 C2977 1.377 . S
C2976 C2978 1.384 . S
C2977 C2976 1.377 . S
C2977 C2983 1.390 . S
C2978 H2969 0.930 . S
C2978 C2976 1.384 . S
C2978 C2979 1.372 . S
C2979 C2978 1.372 . S
C2979 C2980 1.400 . S
C2979 C2984 1.490 . S
C2980 H2970 0.930 . S
C2980 C2979 1.400 . S
C2980 C2983 1.386 . S
H2981 C2997 0.930 . S
H2982 C2998 0.931 . S
C2983 H2971 0.929 . S
C2983 C2977 1.390 . S
C2983 C2980 1.386 . S
C2984 C2979 1.490 . S
C2984 C2986 1.395 . S
C2984 C2987 1.403 . S
H2985 C2991 0.930 . S
C2986 H2972 0.930 . S
C2986 C2984 1.395 . S
C2986 C2989 1.403 . S
C2987 C2984 1.403 . S
C2987 C2988 1.524 . S
C2987 C2991 1.400 . S
C2988 H2973 0.960 . S
C2988 H2974 0.960 . S
C2988 H2975 0.960 . S
C2988 C2987 1.524 . S
C2989 C2986 1.403 . S
C2989 C2990 1.392 . S
C2989 C2993 1.495 . S
C2990 C2989 1.392 . S
C2990 C2991 1.385 . S
C2990 C2992 1.478 . S
C2991 H2985 0.930 . S
C2991 C2987 1.400 . S
C2991 C2990 1.385 . S
C2992 C2990 1.478 . S
C2992 C2994 1.381 . S
C2992 C2998 1.383 . S
C2993 C2989 1.495 . S
C2993 H2999 0.959 . S
C2993 H3000 0.961 . S
C2993 H3001 0.960 . S
C2994 C2992 1.381 . S
C2994 C2995 1.394 . S
C2994 H3002 0.930 . S
C2995 C2994 1.394 . S
C2995 C2996 1.383 . S
C2995 H3003 0.929 . S
C2996 C2995 1.383 . S
C2996 C2997 1.377 . S
C2997 H2981 0.930 . S
C2997 C2996 1.377 . S
C2997 C2998 1.379 . S
C2998 H2982 0.931 . S
C2998 C2992 1.383 . S
C2998 C2997 1.379 . S
H2999 C2993 0.959 . S
H3000 C2993 0.961 . S
H3001 C2993 0.960 . S
H3002 C2994 0.930 . S
H3003 C2995 0.929 . S
H3004 C3012 0.929 . S
H3005 C3014 0.930 . S
H3006 C3016 0.930 . S
H3007 C3019 0.929 . S
H3008 C3022 0.930 . S
H3009 C3024 0.960 . S
H3010 C3024 0.960 . S
H3011 C3024 0.960 . S
C3012 H3004 0.929 . S
C3012 C3013 1.377 1_556 S
C3012 C3014 1.384 . S
C3013 C3012 1.377 1_554 S
C3013 C3019 1.390 . S
C3014 H3005 0.930 . S
C3014 C3012 1.384 . S
C3014 C3015 1.372 . S
C3015 C3014 1.372 . S
C3015 C3016 1.400 . S
C3015 C3020 1.490 . S
C3016 H3006 0.930 . S
C3016 C3015 1.400 . S
C3016 C3019 1.386 1_556 S
H3017 C3033 0.930 . S
H3018 C3034 0.931 . S
C3019 H3007 0.929 . S
C3019 C3013 1.390 . S
C3019 C3016 1.386 1_554 S
C3020 C3015 1.490 . S
C3020 C3022 1.395 . S
C3020 C3023 1.403 . S
H3021 C3027 0.930 . S
C3022 H3008 0.930 . S
C3022 C3020 1.395 . S
C3022 C3025 1.403 . S
C3023 C3020 1.403 . S
C3023 C3024 1.524 . S
C3023 C3027 1.400 . S
C3024 H3009 0.960 . S
C3024 H3010 0.960 . S
C3024 H3011 0.960 . S
C3024 C3023 1.524 . S
C3025 C3022 1.403 . S
C3025 C3026 1.392 . S
C3025 C3029 1.495 . S
C3026 C3025 1.392 . S
C3026 C3027 1.385 . S
C3026 C3028 1.478 . S
C3027 H3021 0.930 . S
C3027 C3023 1.400 . S
C3027 C3026 1.385 . S
C3028 C3026 1.478 . S
C3028 C3030 1.381 . S
C3028 C3034 1.383 . S
C3029 C3025 1.495 . S
C3029 H3035 0.959 . S
C3029 H3036 0.961 . S
C3029 H3037 0.960 . S
C3030 C3028 1.381 . S
C3030 C3031 1.394 . S
C3030 H3038 0.930 . S
C3031 C3030 1.394 . S
C3031 C3032 1.383 . S
C3031 H3039 0.929 . S
C3032 C3031 1.383 . S
C3032 C3033 1.377 . S
C3033 H3017 0.930 . S
C3033 C3032 1.377 . S
C3033 C3034 1.379 . S
C3034 H3018 0.931 . S
C3034 C3028 1.383 . S
C3034 C3033 1.379 . S
H3035 C3029 0.959 . S
H3036 C3029 0.961 . S
H3037 C3029 0.960 . S
H3038 C3030 0.930 . S
H3039 C3031 0.929 . S
H3040 C3048 0.929 . S
H3041 C3050 0.930 . S
H3042 C3052 0.930 . S
H3043 C3055 0.929 . S
H3044 C3058 0.930 . S
H3045 C3060 0.960 . S
H3046 C3060 0.960 . S
H3047 C3060 0.960 . S
C3048 H3040 0.929 . S
C3048 C3049 1.377 . S
C3048 C3050 1.384 . S
C3049 C3048 1.377 . S
C3049 C3055 1.390 . S
C3050 H3041 0.930 . S
C3050 C3048 1.384 . S
C3050 C3051 1.372 . S
C3051 C3050 1.372 . S
C3051 C3052 1.400 . S
C3051 C3056 1.490 . S
C3052 H3042 0.930 . S
C3052 C3051 1.400 . S
C3052 C3055 1.386 . S
H3053 C3069 0.930 . S
H3054 C3070 0.931 . S
C3055 H3043 0.929 . S
C3055 C3049 1.390 . S
C3055 C3052 1.386 . S
C3056 C3051 1.490 . S
C3056 C3058 1.395 . S
C3056 C3059 1.403 . S
H3057 C3063 0.930 . S
C3058 H3044 0.930 . S
C3058 C3056 1.395 . S
C3058 C3061 1.403 . S
C3059 C3056 1.403 . S
C3059 C3060 1.524 . S
C3059 C3063 1.400 . S
C3060 H3045 0.960 . S
C3060 H3046 0.960 . S
C3060 H3047 0.960 . S
C3060 C3059 1.524 . S
C3061 C3058 1.403 . S
C3061 C3062 1.392 . S
C3061 C3065 1.495 . S
C3062 C3061 1.392 . S
C3062 C3063 1.385 . S
C3062 C3064 1.478 . S
C3063 H3057 0.930 . S
C3063 C3059 1.400 . S
C3063 C3062 1.385 . S
C3064 C3062 1.478 . S
C3064 C3066 1.381 . S
C3064 C3070 1.383 . S
C3065 C3061 1.495 . S
C3065 H3071 0.959 . S
C3065 H3072 0.961 . S
C3065 H3073 0.960 . S
C3066 C3064 1.381 . S
C3066 C3067 1.394 . S
C3066 H3074 0.930 . S
C3067 C3066 1.394 . S
C3067 C3068 1.383 . S
C3067 H3075 0.929 . S
C3068 C3067 1.383 . S
C3068 C3069 1.377 . S
C3069 H3053 0.930 . S
C3069 C3068 1.377 . S
C3069 C3070 1.379 . S
C3070 H3054 0.931 . S
C3070 C3064 1.383 . S
C3070 C3069 1.379 . S
H3071 C3065 0.959 . S
H3072 C3065 0.961 . S
H3073 C3065 0.960 . S
H3074 C3066 0.930 . S
H3075 C3067 0.929 . S
H3076 C3084 0.929 . S
H3077 C3086 0.930 . S
H3078 C3088 0.930 . S
H3079 C3091 0.929 . S
H3080 C3094 0.930 . S
H3081 C3096 0.960 . S
H3082 C3096 0.960 . S
H3083 C3096 0.960 . S
C3084 H3076 0.929 . S
C3084 C3085 1.377 . S
C3084 C3086 1.384 . S
C3085 C3084 1.377 . S
C3085 C3091 1.390 . S
C3086 H3077 0.930 . S
C3086 C3084 1.384 . S
C3086 C3087 1.372 . S
C3087 C3086 1.372 . S
C3087 C3088 1.400 . S
C3087 C3092 1.490 . S
C3088 H3078 0.930 . S
C3088 C3087 1.400 . S
C3088 C3091 1.386 . S
H3089 C3105 0.930 . S
H3090 C3106 0.931 . S
C3091 H3079 0.929 . S
C3091 C3085 1.390 . S
C3091 C3088 1.386 . S
C3092 C3087 1.490 . S
C3092 C3094 1.395 . S
C3092 C3095 1.403 . S
H3093 C3099 0.930 . S
C3094 H3080 0.930 . S
C3094 C3092 1.395 . S
C3094 C3097 1.403 . S
C3095 C3092 1.403 . S
C3095 C3096 1.524 . S
C3095 C3099 1.400 . S
C3096 H3081 0.960 . S
C3096 H3082 0.960 . S
C3096 H3083 0.960 . S
C3096 C3095 1.524 . S
C3097 C3094 1.403 . S
C3097 C3098 1.392 . S
C3097 C3101 1.495 . S
C3098 C3097 1.392 . S
C3098 C3099 1.385 . S
C3098 C3100 1.478 . S
C3099 H3093 0.930 . S
C3099 C3095 1.400 . S
C3099 C3098 1.385 . S
C3100 C3098 1.478 . S
C3100 C3102 1.381 . S
C3100 C3106 1.383 . S
C3101 C3097 1.495 . S
C3101 H3107 0.959 . S
C3101 H3108 0.961 . S
C3101 H3109 0.960 . S
C3102 C3100 1.381 . S
C3102 C3103 1.394 . S
C3102 H3110 0.930 . S
C3103 C3102 1.394 . S
C3103 C3104 1.383 . S
C3103 H3111 0.929 . S
C3104 C3103 1.383 . S
C3104 C3105 1.377 . S
C3105 H3089 0.930 . S
C3105 C3104 1.377 . S
C3105 C3106 1.379 . S
C3106 H3090 0.931 . S
C3106 C3100 1.383 . S
C3106 C3105 1.379 . S
H3107 C3101 0.959 . S
H3108 C3101 0.961 . S
H3109 C3101 0.960 . S
H3110 C3102 0.930 . S
H3111 C3103 0.929 . S
H3112 C3120 0.929 . S
H3113 C3122 0.930 . S
H3114 C3124 0.930 . S
H3115 C3127 0.929 . S
H3116 C3130 0.930 . S
H3117 C3132 0.960 . S
H3118 C3132 0.960 . S
H3119 C3132 0.960 . S
C3120 H3112 0.929 . S
C3120 C3121 1.377 . S
C3120 C3122 1.384 . S
C3121 C3120 1.377 . S
C3121 C3127 1.390 . S
C3122 H3113 0.930 . S
C3122 C3120 1.384 . S
C3122 C3123 1.372 . S
C3123 C3122 1.372 . S
C3123 C3124 1.400 . S
C3123 C3128 1.490 . S
C3124 H3114 0.930 . S
C3124 C3123 1.400 . S
C3124 C3127 1.386 . S
H3125 C3141 0.930 . S
H3126 C3142 0.931 . S
C3127 H3115 0.929 . S
C3127 C3121 1.390 . S
C3127 C3124 1.386 . S
C3128 C3123 1.490 . S
C3128 C3130 1.395 . S
C3128 C3131 1.403 . S
H3129 C3135 0.930 . S
C3130 H3116 0.930 . S
C3130 C3128 1.395 . S
C3130 C3133 1.403 . S
C3131 C3128 1.403 . S
C3131 C3132 1.524 . S
C3131 C3135 1.400 . S
C3132 H3117 0.960 . S
C3132 H3118 0.960 . S
C3132 H3119 0.960 . S
C3132 C3131 1.524 . S
C3133 C3130 1.403 . S
C3133 C3134 1.392 . S
C3133 C3137 1.495 . S
C3134 C3133 1.392 . S
C3134 C3135 1.385 . S
C3134 C3136 1.478 . S
C3135 H3129 0.930 . S
C3135 C3131 1.400 . S
C3135 C3134 1.385 . S
C3136 C3134 1.478 . S
C3136 C3138 1.381 . S
C3136 C3142 1.383 . S
C3137 C3133 1.495 . S
C3137 H3143 0.959 . S
C3137 H3144 0.961 . S
C3137 H3145 0.960 . S
C3138 C3136 1.381 . S
C3138 C3139 1.394 . S
C3138 H3146 0.930 . S
C3139 C3138 1.394 . S
C3139 C3140 1.383 . S
C3139 H3147 0.929 . S
C3140 C3139 1.383 . S
C3140 C3141 1.377 . S
C3141 H3125 0.930 . S
C3141 C3140 1.377 . S
C3141 C3142 1.379 . S
C3142 H3126 0.931 . S
C3142 C3136 1.383 . S
C3142 C3141 1.379 . S
H3143 C3137 0.959 . S
H3144 C3137 0.961 . S
H3145 C3137 0.960 . S
H3146 C3138 0.930 . S
H3147 C3139 0.929 . S
H3148 C3156 0.929 . S
H3149 C3158 0.930 . S
H3150 C3160 0.930 . S
H3151 C3163 0.929 . S
H3152 C3166 0.930 . S
H3153 C3168 0.960 . S
H3154 C3168 0.960 . S
H3155 C3168 0.960 . S
C3156 H3148 0.929 . S
C3156 C3157 1.377 . S
C3156 C3158 1.384 . S
C3157 C3156 1.377 . S
C3157 C3163 1.390 . S
C3158 H3149 0.930 . S
C3158 C3156 1.384 . S
C3158 C3159 1.372 . S
C3159 C3158 1.372 . S
C3159 C3160 1.400 . S
C3159 C3164 1.490 . S
C3160 H3150 0.930 . S
C3160 C3159 1.400 . S
C3160 C3163 1.386 . S
H3161 C3177 0.930 . S
H3162 C3178 0.931 . S
C3163 H3151 0.929 . S
C3163 C3157 1.390 . S
C3163 C3160 1.386 . S
C3164 C3159 1.490 . S
C3164 C3166 1.395 . S
C3164 C3167 1.403 . S
H3165 C3171 0.930 . S
C3166 H3152 0.930 . S
C3166 C3164 1.395 . S
C3166 C3169 1.403 . S
C3167 C3164 1.403 . S
C3167 C3168 1.524 . S
C3167 C3171 1.400 . S
C3168 H3153 0.960 . S
C3168 H3154 0.960 . S
C3168 H3155 0.960 . S
C3168 C3167 1.524 . S
C3169 C3166 1.403 . S
C3169 C3170 1.392 . S
C3169 C3173 1.495 . S
C3170 C3169 1.392 . S
C3170 C3171 1.385 . S
C3170 C3172 1.478 . S
C3171 H3165 0.930 . S
C3171 C3167 1.400 . S
C3171 C3170 1.385 . S
C3172 C3170 1.478 . S
C3172 C3174 1.381 . S
C3172 C3178 1.383 . S
C3173 C3169 1.495 . S
C3173 H3179 0.959 . S
C3173 H3180 0.961 . S
C3173 H3181 0.960 . S
C3174 C3172 1.381 . S
C3174 C3175 1.394 . S
C3174 H3182 0.930 . S
C3175 C3174 1.394 . S
C3175 C3176 1.383 . S
C3175 H3183 0.929 . S
C3176 C3175 1.383 . S
C3176 C3177 1.377 . S
C3177 H3161 0.930 . S
C3177 C3176 1.377 . S
C3177 C3178 1.379 . S
C3178 H3162 0.931 . S
C3178 C3172 1.383 . S
C3178 C3177 1.379 . S
H3179 C3173 0.959 . S
H3180 C3173 0.961 . S
H3181 C3173 0.960 . S
H3182 C3174 0.930 . S
H3183 C3175 0.929 . S
H3184 C3192 0.929 . S
H3185 C3194 0.930 . S
H3186 C3196 0.930 . S
H3187 C3199 0.929 . S
H3188 C3202 0.930 . S
H3189 C3204 0.960 . S
H3190 C3204 0.960 . S
H3191 C3204 0.960 . S
C3192 H3184 0.929 . S
C3192 C3193 1.377 . S
C3192 C3194 1.384 . S
C3193 C3192 1.377 . S
C3193 C3199 1.390 . S
C3194 H3185 0.930 . S
C3194 C3192 1.384 . S
C3194 C3195 1.372 . S
C3195 C3194 1.372 . S
C3195 C3196 1.400 . S
C3195 C3200 1.490 . S
C3196 H3186 0.930 . S
C3196 C3195 1.400 . S
C3196 C3199 1.386 . S
H3197 C3213 0.930 . S
H3198 C3214 0.931 . S
C3199 H3187 0.929 . S
C3199 C3193 1.390 . S
C3199 C3196 1.386 . S
C3200 C3195 1.490 . S
C3200 C3202 1.395 . S
C3200 C3203 1.403 . S
H3201 C3207 0.930 . S
C3202 H3188 0.930 . S
C3202 C3200 1.395 . S
C3202 C3205 1.403 . S
C3203 C3200 1.403 . S
C3203 C3204 1.524 . S
C3203 C3207 1.400 . S
C3204 H3189 0.960 . S
C3204 H3190 0.960 . S
C3204 H3191 0.960 . S
C3204 C3203 1.524 . S
C3205 C3202 1.403 . S
C3205 C3206 1.392 . S
C3205 C3209 1.495 . S
C3206 C3205 1.392 . S
C3206 C3207 1.385 . S
C3206 C3208 1.478 . S
C3207 H3201 0.930 . S
C3207 C3203 1.400 . S
C3207 C3206 1.385 . S
C3208 C3206 1.478 . S
C3208 C3210 1.381 . S
C3208 C3214 1.383 . S
C3209 C3205 1.495 . S
C3209 H3215 0.959 . S
C3209 H3216 0.961 . S
C3209 H3217 0.960 . S
C3210 C3208 1.381 . S
C3210 C3211 1.394 . S
C3210 H3218 0.930 . S
C3211 C3210 1.394 . S
C3211 C3212 1.383 . S
C3211 H3219 0.929 . S
C3212 C3211 1.383 . S
C3212 C3213 1.377 . S
C3213 H3197 0.930 . S
C3213 C3212 1.377 . S
C3213 C3214 1.379 . S
C3214 H3198 0.931 . S
C3214 C3208 1.383 . S
C3214 C3213 1.379 . S
H3215 C3209 0.959 . S
H3216 C3209 0.961 . S
H3217 C3209 0.960 . S
H3218 C3210 0.930 . S
H3219 C3211 0.929 . S
H3220 C3228 0.929 . S
H3221 C3230 0.930 . S
H3222 C3232 0.930 . S
H3223 C3235 0.929 . S
H3224 C3238 0.930 . S
H3225 C3240 0.960 . S
H3226 C3240 0.960 . S
H3227 C3240 0.960 . S
C3228 H3220 0.929 . S
C3228 C3229 1.377 . S
C3228 C3230 1.384 . S
C3229 C3228 1.377 . S
C3229 C3235 1.390 . S
C3230 H3221 0.930 . S
C3230 C3228 1.384 . S
C3230 C3231 1.372 . S
C3231 C3230 1.372 . S
C3231 C3232 1.400 . S
C3231 C3236 1.490 . S
C3232 H3222 0.930 . S
C3232 C3231 1.400 . S
C3232 C3235 1.386 . S
H3233 C3249 0.930 . S
H3234 C3250 0.931 . S
C3235 H3223 0.929 . S
C3235 C3229 1.390 . S
C3235 C3232 1.386 . S
C3236 C3231 1.490 . S
C3236 C3238 1.395 . S
C3236 C3239 1.403 . S
H3237 C3243 0.930 . S
C3238 H3224 0.930 . S
C3238 C3236 1.395 . S
C3238 C3241 1.403 . S
C3239 C3236 1.403 . S
C3239 C3240 1.524 . S
C3239 C3243 1.400 . S
C3240 H3225 0.960 . S
C3240 H3226 0.960 . S
C3240 H3227 0.960 . S
C3240 C3239 1.524 . S
C3241 C3238 1.403 . S
C3241 C3242 1.392 . S
C3241 C3245 1.495 . S
C3242 C3241 1.392 . S
C3242 C3243 1.385 . S
C3242 C3244 1.478 . S
C3243 H3237 0.930 . S
C3243 C3239 1.400 . S
C3243 C3242 1.385 . S
C3244 C3242 1.478 . S
C3244 C3246 1.381 . S
C3244 C3250 1.383 . S
C3245 C3241 1.495 . S
C3245 H3251 0.959 . S
C3245 H3252 0.961 . S
C3245 H3253 0.960 . S
C3246 C3244 1.381 . S
C3246 C3247 1.394 . S
C3246 H3254 0.930 . S
C3247 C3246 1.394 . S
C3247 C3248 1.383 . S
C3247 H3255 0.929 . S
C3248 C3247 1.383 . S
C3248 C3249 1.377 . S
C3249 H3233 0.930 . S
C3249 C3248 1.377 . S
C3249 C3250 1.379 . S
C3250 H3234 0.931 . S
C3250 C3244 1.383 . S
C3250 C3249 1.379 . S
H3251 C3245 0.959 . S
H3252 C3245 0.961 . S
H3253 C3245 0.960 . S
H3254 C3246 0.930 . S
H3255 C3247 0.929 . S
H3256 C3264 0.929 . S
H3257 C3266 0.930 . S
H3258 C3268 0.930 . S
H3259 C3271 0.929 . S
H3260 C3274 0.930 . S
H3261 C3276 0.960 . S
H3262 C3276 0.960 . S
H3263 C3276 0.960 . S
C3264 H3256 0.929 . S
C3264 C3265 1.377 . S
C3264 C3266 1.384 . S
C3265 C3264 1.377 . S
C3265 C3271 1.390 . S
C3266 H3257 0.930 . S
C3266 C3264 1.384 . S
C3266 C3267 1.372 . S
C3267 C3266 1.372 . S
C3267 C3268 1.400 . S
C3267 C3272 1.490 . S
C3268 H3258 0.930 . S
C3268 C3267 1.400 . S
C3268 C3271 1.386 . S
H3269 C3285 0.930 . S
H3270 C3286 0.931 . S
C3271 H3259 0.929 . S
C3271 C3265 1.390 . S
C3271 C3268 1.386 . S
C3272 C3267 1.490 . S
C3272 C3274 1.395 . S
C3272 C3275 1.403 . S
H3273 C3279 0.930 . S
C3274 H3260 0.930 . S
C3274 C3272 1.395 . S
C3274 C3277 1.403 . S
C3275 C3272 1.403 . S
C3275 C3276 1.524 . S
C3275 C3279 1.400 . S
C3276 H3261 0.960 . S
C3276 H3262 0.960 . S
C3276 H3263 0.960 . S
C3276 C3275 1.524 . S
C3277 C3274 1.403 . S
C3277 C3278 1.392 . S
C3277 C3281 1.495 . S
C3278 C3277 1.392 . S
C3278 C3279 1.385 . S
C3278 C3280 1.478 . S
C3279 H3273 0.930 . S
C3279 C3275 1.400 . S
C3279 C3278 1.385 . S
C3280 C3278 1.478 . S
C3280 C3282 1.381 . S
C3280 C3286 1.383 . S
C3281 C3277 1.495 . S
C3281 H3287 0.959 . S
C3281 H3288 0.961 . S
C3281 H3289 0.960 . S
C3282 C3280 1.381 . S
C3282 C3283 1.394 . S
C3282 H3290 0.930 . S
C3283 C3282 1.394 . S
C3283 C3284 1.383 . S
C3283 H3291 0.929 . S
C3284 C3283 1.383 . S
C3284 C3285 1.377 . S
C3285 H3269 0.930 . S
C3285 C3284 1.377 . S
C3285 C3286 1.379 . S
C3286 H3270 0.931 . S
C3286 C3280 1.383 . S
C3286 C3285 1.379 . S
H3287 C3281 0.959 . S
H3288 C3281 0.961 . S
H3289 C3281 0.960 . S
H3290 C3282 0.930 . S
H3291 C3283 0.929 . S
H3292 C3300 0.929 . S
H3293 C3302 0.930 . S
H3294 C3304 0.930 . S
H3295 C3307 0.929 . S
H3296 C3310 0.930 . S
H3297 C3312 0.960 . S
H3298 C3312 0.960 . S
H3299 C3312 0.960 . S
C3300 H3292 0.929 . S
C3300 C3301 1.377 . S
C3300 C3302 1.384 . S
C3301 C3300 1.377 . S
C3301 C3307 1.390 . S
C3302 H3293 0.930 . S
C3302 C3300 1.384 . S
C3302 C3303 1.372 . S
C3303 C3302 1.372 . S
C3303 C3304 1.400 . S
C3303 C3308 1.490 . S
C3304 H3294 0.930 . S
C3304 C3303 1.400 . S
C3304 C3307 1.386 . S
H3305 C3321 0.930 . S
H3306 C3322 0.931 . S
C3307 H3295 0.929 . S
C3307 C3301 1.390 . S
C3307 C3304 1.386 . S
C3308 C3303 1.490 . S
C3308 C3310 1.395 . S
C3308 C3311 1.403 . S
H3309 C3315 0.930 . S
C3310 H3296 0.930 . S
C3310 C3308 1.395 . S
C3310 C3313 1.403 . S
C3311 C3308 1.403 . S
C3311 C3312 1.524 . S
C3311 C3315 1.400 . S
C3312 H3297 0.960 . S
C3312 H3298 0.960 . S
C3312 H3299 0.960 . S
C3312 C3311 1.524 . S
C3313 C3310 1.403 . S
C3313 C3314 1.392 . S
C3313 C3317 1.495 . S
C3314 C3313 1.392 . S
C3314 C3315 1.385 . S
C3314 C3316 1.478 . S
C3315 H3309 0.930 . S
C3315 C3311 1.400 . S
C3315 C3314 1.385 . S
C3316 C3314 1.478 . S
C3316 C3318 1.381 . S
C3316 C3322 1.383 . S
C3317 C3313 1.495 . S
C3317 H3323 0.959 . S
C3317 H3324 0.961 . S
C3317 H3325 0.960 . S
C3318 C3316 1.381 . S
C3318 C3319 1.394 . S
C3318 H3326 0.930 . S
C3319 C3318 1.394 . S
C3319 C3320 1.383 . S
C3319 H3327 0.929 . S
C3320 C3319 1.383 . S
C3320 C3321 1.377 . S
C3321 H3305 0.930 . S
C3321 C3320 1.377 . S
C3321 C3322 1.379 . S
C3322 H3306 0.931 . S
C3322 C3316 1.383 . S
C3322 C3321 1.379 . S
H3323 C3317 0.959 . S
H3324 C3317 0.961 . S
H3325 C3317 0.960 . S
H3326 C3318 0.930 . S
H3327 C3319 0.929 . S
H3328 C3336 0.929 . S
H3329 C3338 0.930 . S
H3330 C3340 0.930 . S
H3331 C3343 0.929 1_545 S
H3332 C3346 0.930 . S
H3333 C3348 0.960 . S
H3334 C3348 0.960 . S
H3335 C3348 0.960 . S
C3336 H3328 0.929 . S
C3336 C3337 1.377 . S
C3336 C3338 1.384 . S
C3337 C3336 1.377 . S
C3337 C3343 1.390 . S
C3338 H3329 0.930 . S
C3338 C3336 1.384 . S
C3338 C3339 1.372 . S
C3339 C3338 1.372 . S
C3339 C3340 1.400 . S
C3339 C3344 1.490 . S
C3340 H3330 0.930 . S
C3340 C3339 1.400 . S
C3340 C3343 1.386 . S
H3341 C3357 0.930 . S
H3342 C3358 0.931 . S
C3343 H3331 0.929 1_565 S
C3343 C3337 1.390 . S
C3343 C3340 1.386 . S
C3344 C3339 1.490 . S
C3344 C3346 1.395 . S
C3344 C3347 1.403 . S
H3345 C3351 0.930 . S
C3346 H3332 0.930 . S
C3346 C3344 1.395 . S
C3346 C3349 1.403 . S
C3347 C3344 1.403 . S
C3347 C3348 1.524 . S
C3347 C3351 1.400 . S
C3348 H3333 0.960 . S
C3348 H3334 0.960 . S
C3348 H3335 0.960 . S
C3348 C3347 1.524 . S
C3349 C3346 1.403 . S
C3349 C3350 1.392 . S
C3349 C3353 1.495 . S
C3350 C3349 1.392 . S
C3350 C3351 1.385 . S
C3350 C3352 1.478 . S
C3351 H3345 0.930 . S
C3351 C3347 1.400 . S
C3351 C3350 1.385 . S
C3352 C3350 1.478 . S
C3352 C3354 1.381 . S
C3352 C3358 1.383 . S
C3353 C3349 1.495 . S
C3353 H3359 0.959 . S
C3353 H3360 0.961 . S
C3353 H3361 0.960 . S
C3354 C3352 1.381 . S
C3354 C3355 1.394 . S
C3354 H3362 0.930 . S
C3355 C3354 1.394 . S
C3355 C3356 1.383 . S
C3355 H3363 0.929 . S
C3356 C3355 1.383 . S
C3356 C3357 1.377 . S
C3357 H3341 0.930 . S
C3357 C3356 1.377 . S
C3357 C3358 1.379 . S
C3358 H3342 0.931 . S
C3358 C3352 1.383 . S
C3358 C3357 1.379 . S
H3359 C3353 0.959 . S
H3360 C3353 0.961 . S
H3361 C3353 0.960 . S
H3362 C3354 0.930 . S
H3363 C3355 0.929 . S
H3364 C3372 0.929 . S
H3365 C3374 0.930 . S
H3366 C3376 0.930 . S
H3367 C3379 0.929 . S
H3368 C3382 0.930 . S
H3369 C3384 0.960 . S
H3370 C3384 0.960 1_556 S
H3371 C3384 0.960 . S
C3372 H3364 0.929 . S
C3372 C3373 1.377 . S
C3372 C3374 1.384 . S
C3373 C3372 1.377 . S
C3373 C3379 1.390 1_556 S
C3374 H3365 0.930 . S
C3374 C3372 1.384 . S
C3374 C3375 1.329 1_556 S
C3375 C3374 1.329 1_554 S
C3375 C3376 1.450 . S
C3375 C3380 1.486 . S
C3376 H3366 0.930 . S
C3376 C3375 1.450 . S
C3376 C3379 1.386 . S
H3377 C3393 0.930 . S
H3378 C3394 0.931 . S
C3379 H3367 0.929 . S
C3379 C3373 1.390 1_554 S
C3379 C3376 1.386 . S
C3380 C3375 1.486 . S
C3380 C3382 1.395 . S
C3380 C3383 1.403 . S
H3381 C3387 0.930 . S
C3382 H3368 0.930 . S
C3382 C3380 1.395 . S
C3382 C3385 1.422 . S
C3383 C3380 1.403 . S
C3383 C3384 1.524 . S
C3383 C3387 1.400 . S
C3384 H3369 0.960 . S
C3384 H3370 0.960 1_554 S
C3384 H3371 0.960 . S
C3384 C3383 1.524 . S
C3385 C3382 1.422 . S
C3385 C3386 1.411 . S
C3385 C3389 1.459 1_565 S
C3386 C3385 1.411 . S
C3386 C3387 1.385 . S
C3386 C3388 1.478 1_565 S
C3387 H3381 0.930 . S
C3387 C3383 1.400 . S
C3387 C3386 1.385 . S
C3388 C3386 1.478 1_545 S
C3388 C3390 1.381 1_554 S
C3388 C3394 1.383 . S
C3389 C3385 1.459 1_545 S
C3389 H3395 0.959 . S
C3389 H3396 0.961 . S
C3389 H3397 0.960 1_554 S
C3390 C3388 1.381 1_556 S
C3390 C3391 1.394 . S
C3390 H3398 0.930 . S
C3391 C3390 1.394 . S
C3391 C3392 1.383 1_556 S
C3391 H3399 0.929 . S
C3392 C3391 1.383 1_554 S
C3392 C3393 1.377 . S
C3393 H3377 0.930 . S
C3393 C3392 1.377 . S
C3393 C3394 1.379 . S
C3394 H3378 0.931 . S
C3394 C3388 1.383 . S
C3394 C3393 1.379 . S
H3395 C3389 0.959 . S
H3396 C3389 0.961 . S
H3397 C3389 0.960 1_556 S
H3398 C3390 0.930 . S
H3399 C3391 0.929 . S
H3400 C3408 0.929 . S
H3401 C3410 0.930 . S
H3402 C3412 0.930 . S
H3403 C3415 0.929 . S
H3404 C3418 0.930 . S
H3405 C3420 0.960 . S
H3406 C3420 0.960 . S
H3407 C3420 0.960 . S
C3408 H3400 0.929 . S
C3408 C3409 1.377 . S
C3408 C3410 1.384 . S
C3409 C3408 1.377 . S
C3409 C3415 1.390 . S
C3410 H3401 0.930 . S
C3410 C3408 1.384 . S
C3410 C3411 1.372 . S
C3411 C3410 1.372 . S
C3411 C3412 1.400 . S
C3411 C3416 1.490 . S
C3412 H3402 0.930 . S
C3412 C3411 1.400 . S
C3412 C3415 1.386 . S
H3413 C3429 0.930 . S
H3414 C3430 0.931 . S
C3415 H3403 0.929 . S
C3415 C3409 1.390 . S
C3415 C3412 1.386 . S
C3416 C3411 1.490 . S
C3416 C3418 1.395 . S
C3416 C3419 1.403 . S
H3417 C3423 0.930 . S
C3418 H3404 0.930 . S
C3418 C3416 1.395 . S
C3418 C3421 1.403 . S
C3419 C3416 1.403 . S
C3419 C3420 1.524 . S
C3419 C3423 1.400 . S
C3420 H3405 0.960 . S
C3420 H3406 0.960 . S
C3420 H3407 0.960 . S
C3420 C3419 1.524 . S
C3421 C3418 1.403 . S
C3421 C3422 1.392 . S
C3421 C3425 1.495 . S
C3422 C3421 1.392 . S
C3422 C3423 1.385 . S
C3422 C3424 1.478 . S
C3423 H3417 0.930 . S
C3423 C3419 1.400 . S
C3423 C3422 1.385 . S
C3424 C3422 1.478 . S
C3424 C3426 1.381 . S
C3424 C3430 1.383 . S
C3425 C3421 1.495 . S
C3425 H3431 0.959 . S
C3425 H3432 0.961 . S
C3425 H3433 0.960 . S
C3426 C3424 1.381 . S
C3426 C3427 1.394 . S
C3426 H3434 0.930 . S
C3427 C3426 1.394 . S
C3427 C3428 1.383 . S
C3427 H3435 0.929 . S
C3428 C3427 1.383 . S
C3428 C3429 1.377 . S
C3429 H3413 0.930 . S
C3429 C3428 1.377 . S
C3429 C3430 1.379 . S
C3430 H3414 0.931 . S
C3430 C3424 1.383 . S
C3430 C3429 1.379 . S
H3431 C3425 0.959 . S
H3432 C3425 0.961 . S
H3433 C3425 0.960 . S
H3434 C3426 0.930 . S
H3435 C3427 0.929 . S
H3436 C3444 0.929 . S
H3437 C3446 0.930 . S
H3438 C3448 0.930 . S
H3439 C3451 0.929 . S
H3440 C3454 0.930 . S
H3441 C3456 0.960 . S
H3442 C3456 0.960 . S
H3443 C3456 0.960 . S
C3444 H3436 0.929 . S
C3444 C3445 1.377 . S
C3444 C3446 1.384 . S
C3445 C3444 1.377 . S
C3445 C3451 1.390 . S
C3446 H3437 0.930 . S
C3446 C3444 1.384 . S
C3446 C3447 1.372 . S
C3447 C3446 1.372 . S
C3447 C3448 1.400 . S
C3447 C3452 1.490 . S
C3448 H3438 0.930 . S
C3448 C3447 1.400 . S
C3448 C3451 1.386 . S
H3449 C3465 0.930 . S
H3450 C3466 0.931 . S
C3451 H3439 0.929 . S
C3451 C3445 1.390 . S
C3451 C3448 1.386 . S
C3452 C3447 1.490 . S
C3452 C3454 1.395 . S
C3452 C3455 1.403 . S
H3453 C3459 0.930 . S
C3454 H3440 0.930 . S
C3454 C3452 1.395 . S
C3454 C3457 1.403 . S
C3455 C3452 1.403 . S
C3455 C3456 1.524 . S
C3455 C3459 1.400 . S
C3456 H3441 0.960 . S
C3456 H3442 0.960 . S
C3456 H3443 0.960 . S
C3456 C3455 1.524 . S
C3457 C3454 1.403 . S
C3457 C3458 1.392 . S
C3457 C3461 1.495 . S
C3458 C3457 1.392 . S
C3458 C3459 1.385 . S
C3458 C3460 1.478 . S
C3459 H3453 0.930 . S
C3459 C3455 1.400 . S
C3459 C3458 1.385 . S
C3460 C3458 1.478 . S
C3460 C3462 1.381 . S
C3460 C3466 1.383 . S
C3461 C3457 1.495 . S
C3461 H3467 0.959 . S
C3461 H3468 0.961 . S
C3461 H3469 0.960 . S
C3462 C3460 1.381 . S
C3462 C3463 1.394 . S
C3462 H3470 0.930 . S
C3463 C3462 1.394 . S
C3463 C3464 1.383 . S
C3463 H3471 0.929 . S
C3464 C3463 1.383 . S
C3464 C3465 1.377 . S
C3465 H3449 0.930 . S
C3465 C3464 1.377 . S
C3465 C3466 1.379 . S
C3466 H3450 0.931 . S
C3466 C3460 1.383 . S
C3466 C3465 1.379 . S
H3467 C3461 0.959 . S
H3468 C3461 0.961 . S
H3469 C3461 0.960 . S
H3470 C3462 0.930 . S
H3471 C3463 0.929 . S
H3472 C3480 0.929 . S
H3473 C3482 0.930 . S
H3474 C3484 0.930 . S
H3475 C3487 0.929 . S
H3476 C3490 0.930 . S
H3477 C3492 0.960 . S
H3478 C3492 0.960 . S
H3479 C3492 0.960 . S
C3480 H3472 0.929 . S
C3480 C3481 1.377 . S
C3480 C3482 1.384 . S
C3481 C3480 1.377 . S
C3481 C3487 1.390 . S
C3482 H3473 0.930 . S
C3482 C3480 1.384 . S
C3482 C3483 1.372 . S
C3483 C3482 1.372 . S
C3483 C3484 1.400 . S
C3483 C3488 1.490 . S
C3484 H3474 0.930 . S
C3484 C3483 1.400 . S
C3484 C3487 1.386 . S
H3485 C3501 0.930 . S
H3486 C3502 0.931 . S
C3487 H3475 0.929 . S
C3487 C3481 1.390 . S
C3487 C3484 1.386 . S
C3488 C3483 1.490 . S
C3488 C3490 1.395 . S
C3488 C3491 1.403 . S
H3489 C3495 0.930 . S
C3490 H3476 0.930 . S
C3490 C3488 1.395 . S
C3490 C3493 1.403 . S
C3491 C3488 1.403 . S
C3491 C3492 1.524 . S
C3491 C3495 1.400 . S
C3492 H3477 0.960 . S
C3492 H3478 0.960 . S
C3492 H3479 0.960 . S
C3492 C3491 1.524 . S
C3493 C3490 1.403 . S
C3493 C3494 1.392 . S
C3493 C3497 1.495 . S
C3494 C3493 1.392 . S
C3494 C3495 1.385 . S
C3494 C3496 1.478 . S
C3495 H3489 0.930 . S
C3495 C3491 1.400 . S
C3495 C3494 1.385 . S
C3496 C3494 1.478 . S
C3496 C3498 1.381 . S
C3496 C3502 1.383 . S
C3497 C3493 1.495 . S
C3497 H3503 0.959 . S
C3497 H3504 0.961 . S
C3497 H3505 0.960 . S
C3498 C3496 1.381 . S
C3498 C3499 1.394 . S
C3498 H3506 0.930 . S
C3499 C3498 1.394 . S
C3499 C3500 1.383 . S
C3499 H3507 0.929 . S
C3500 C3499 1.383 . S
C3500 C3501 1.377 . S
C3501 H3485 0.930 . S
C3501 C3500 1.377 . S
C3501 C3502 1.379 . S
C3502 H3486 0.931 . S
C3502 C3496 1.383 . S
C3502 C3501 1.379 . S
H3503 C3497 0.959 . S
H3504 C3497 0.961 . S
H3505 C3497 0.960 . S
H3506 C3498 0.930 . S
H3507 C3499 0.929 . S
H3508 C3516 0.929 . S
H3509 C3518 0.930 . S
H3510 C3520 0.930 . S
H3511 C3523 0.929 . S
H3512 C3526 0.930 . S
H3513 C3528 0.960 . S
H3514 C3528 0.960 . S
H3515 C3528 0.960 . S
C3516 H3508 0.929 . S
C3516 C3517 1.377 . S
C3516 C3518 1.384 . S
C3517 C3516 1.377 . S
C3517 C3523 1.390 . S
C3518 H3509 0.930 . S
C3518 C3516 1.384 . S
C3518 C3519 1.372 . S
C3519 C3518 1.372 . S
C3519 C3520 1.400 . S
C3519 C3524 1.490 . S
C3520 H3510 0.930 . S
C3520 C3519 1.400 . S
C3520 C3523 1.386 . S
H3521 C3537 0.930 . S
H3522 C3538 0.931 . S
C3523 H3511 0.929 . S
C3523 C3517 1.390 . S
C3523 C3520 1.386 . S
C3524 C3519 1.490 . S
C3524 C3526 1.395 . S
C3524 C3527 1.403 . S
H3525 C3531 0.930 . S
C3526 H3512 0.930 . S
C3526 C3524 1.395 . S
C3526 C3529 1.403 . S
C3527 C3524 1.403 . S
C3527 C3528 1.524 . S
C3527 C3531 1.400 . S
C3528 H3513 0.960 . S
C3528 H3514 0.960 . S
C3528 H3515 0.960 . S
C3528 C3527 1.524 . S
C3529 C3526 1.403 . S
C3529 C3530 1.392 . S
C3529 C3533 1.495 . S
C3530 C3529 1.392 . S
C3530 C3531 1.385 . S
C3530 C3532 1.478 . S
C3531 H3525 0.930 . S
C3531 C3527 1.400 . S
C3531 C3530 1.385 . S
C3532 C3530 1.478 . S
C3532 C3534 1.381 . S
C3532 C3538 1.383 . S
C3533 C3529 1.495 . S
C3533 H3539 0.959 . S
C3533 H3540 0.961 . S
C3533 H3541 0.960 . S
C3534 C3532 1.381 . S
C3534 C3535 1.394 . S
C3534 H3542 0.930 . S
C3535 C3534 1.394 . S
C3535 C3536 1.383 . S
C3535 H3543 0.929 . S
C3536 C3535 1.383 . S
C3536 C3537 1.377 . S
C3537 H3521 0.930 . S
C3537 C3536 1.377 . S
C3537 C3538 1.379 . S
C3538 H3522 0.931 . S
C3538 C3532 1.383 . S
C3538 C3537 1.379 . S
H3539 C3533 0.959 . S
H3540 C3533 0.961 . S
H3541 C3533 0.960 . S
H3542 C3534 0.930 . S
H3543 C3535 0.929 . S
H3544 C3552 0.929 . S
H3545 C3554 0.930 . S
H3546 C3556 0.930 . S
H3547 C3559 0.929 . S
H3548 C3562 0.930 . S
H3549 C3564 0.960 . S
H3550 C3564 0.960 . S
H3551 C3564 0.960 . S
C3552 H3544 0.929 . S
C3552 C3553 1.377 . S
C3552 C3554 1.384 . S
C3553 C3552 1.377 . S
C3553 C3559 1.390 . S
C3554 H3545 0.930 . S
C3554 C3552 1.384 . S
C3554 C3555 1.372 . S
C3555 C3554 1.372 . S
C3555 C3556 1.400 . S
C3555 C3560 1.490 . S
C3556 H3546 0.930 . S
C3556 C3555 1.400 . S
C3556 C3559 1.386 . S
H3557 C3573 0.930 . S
H3558 C3574 0.931 . S
C3559 H3547 0.929 . S
C3559 C3553 1.390 . S
C3559 C3556 1.386 . S
C3560 C3555 1.490 . S
C3560 C3562 1.395 . S
C3560 C3563 1.403 . S
H3561 C3567 0.930 . S
C3562 H3548 0.930 . S
C3562 C3560 1.395 . S
C3562 C3565 1.403 . S
C3563 C3560 1.403 . S
C3563 C3564 1.524 . S
C3563 C3567 1.400 . S
C3564 H3549 0.960 . S
C3564 H3550 0.960 . S
C3564 H3551 0.960 . S
C3564 C3563 1.524 . S
C3565 C3562 1.403 . S
C3565 C3566 1.392 . S
C3565 C3569 1.495 . S
C3566 C3565 1.392 . S
C3566 C3567 1.385 . S
C3566 C3568 1.478 . S
C3567 H3561 0.930 . S
C3567 C3563 1.400 . S
C3567 C3566 1.385 . S
C3568 C3566 1.478 . S
C3568 C3570 1.381 . S
C3568 C3574 1.383 . S
C3569 C3565 1.495 . S
C3569 H3575 0.959 . S
C3569 H3576 0.961 . S
C3569 H3577 0.960 . S
C3570 C3568 1.381 . S
C3570 C3571 1.394 . S
C3570 H3578 0.930 . S
C3571 C3570 1.394 . S
C3571 C3572 1.383 . S
C3571 H3579 0.929 . S
C3572 C3571 1.383 . S
C3572 C3573 1.377 . S
C3573 H3557 0.930 . S
C3573 C3572 1.377 . S
C3573 C3574 1.379 . S
C3574 H3558 0.931 . S
C3574 C3568 1.383 . S
C3574 C3573 1.379 . S
H3575 C3569 0.959 . S
H3576 C3569 0.961 . S
H3577 C3569 0.960 . S
H3578 C3570 0.930 . S
H3579 C3571 0.929 . S
H3580 C3588 0.929 . S
H3581 C3590 0.930 . S
H3582 C3592 0.930 . S
H3583 C3595 0.929 . S
H3584 C3598 0.930 . S
H3585 C3600 0.960 . S
H3586 C3600 0.960 . S
H3587 C3600 0.960 . S
C3588 H3580 0.929 . S
C3588 C3589 1.377 . S
C3588 C3590 1.384 . S
C3589 C3588 1.377 . S
C3589 C3595 1.390 . S
C3590 H3581 0.930 . S
C3590 C3588 1.384 . S
C3590 C3591 1.372 . S
C3591 C3590 1.372 . S
C3591 C3592 1.400 . S
C3591 C3596 1.490 . S
C3592 H3582 0.930 . S
C3592 C3591 1.400 . S
C3592 C3595 1.386 . S
H3593 C3609 0.930 . S
H3594 C3610 0.931 . S
C3595 H3583 0.929 . S
C3595 C3589 1.390 . S
C3595 C3592 1.386 . S
C3596 C3591 1.490 . S
C3596 C3598 1.395 . S
C3596 C3599 1.403 . S
H3597 C3603 0.930 . S
C3598 H3584 0.930 . S
C3598 C3596 1.395 . S
C3598 C3601 1.403 . S
C3599 C3596 1.403 . S
C3599 C3600 1.524 . S
C3599 C3603 1.400 . S
C3600 H3585 0.960 . S
C3600 H3586 0.960 . S
C3600 H3587 0.960 . S
C3600 C3599 1.524 . S
C3601 C3598 1.403 . S
C3601 C3602 1.392 . S
C3601 C3605 1.495 . S
C3602 C3601 1.392 . S
C3602 C3603 1.385 . S
C3602 C3604 1.478 . S
C3603 H3597 0.930 . S
C3603 C3599 1.400 . S
C3603 C3602 1.385 . S
C3604 C3602 1.478 . S
C3604 C3606 1.381 . S
C3604 C3610 1.383 . S
C3605 C3601 1.495 . S
C3605 H3611 0.959 . S
C3605 H3612 0.961 . S
C3605 H3613 0.960 . S
C3606 C3604 1.381 . S
C3606 C3607 1.394 . S
C3606 H3614 0.930 . S
C3607 C3606 1.394 . S
C3607 C3608 1.383 . S
C3607 H3615 0.929 . S
C3608 C3607 1.383 . S
C3608 C3609 1.377 . S
C3609 H3593 0.930 . S
C3609 C3608 1.377 . S
C3609 C3610 1.379 . S
C3610 H3594 0.931 . S
C3610 C3604 1.383 . S
C3610 C3609 1.379 . S
H3611 C3605 0.959 . S
H3612 C3605 0.961 . S
H3613 C3605 0.960 . S
H3614 C3606 0.930 . S
H3615 C3607 0.929 . S
H3616 C3624 0.929 . S
H3617 C3626 0.930 . S
H3618 C3628 0.930 . S
H3619 C3631 0.929 . S
H3620 C3634 0.930 . S
H3621 C3636 0.960 . S
H3622 C3636 0.960 . S
H3623 C3636 0.960 . S
C3624 H3616 0.929 . S
C3624 C3625 1.377 . S
C3624 C3626 1.384 . S
C3625 C3624 1.377 . S
C3625 C3631 1.390 . S
C3626 H3617 0.930 . S
C3626 C3624 1.384 . S
C3626 C3627 1.372 . S
C3627 C3626 1.372 . S
C3627 C3628 1.400 . S
C3627 C3632 1.490 . S
C3628 H3618 0.930 . S
C3628 C3627 1.400 . S
C3628 C3631 1.386 . S
H3629 C3645 0.930 . S
H3630 C3646 0.931 . S
C3631 H3619 0.929 . S
C3631 C3625 1.390 . S
C3631 C3628 1.386 . S
C3632 C3627 1.490 . S
C3632 C3634 1.395 . S
C3632 C3635 1.403 . S
H3633 C3639 0.930 . S
C3634 H3620 0.930 . S
C3634 C3632 1.395 . S
C3634 C3637 1.403 . S
C3635 C3632 1.403 . S
C3635 C3636 1.524 1_455 S
C3635 C3639 1.400 . S
C3636 H3621 0.960 . S
C3636 H3622 0.960 . S
C3636 H3623 0.960 . S
C3636 C3635 1.524 1_655 S
C3637 C3634 1.403 . S
C3637 C3638 1.392 . S
C3637 C3641 1.495 . S
C3638 C3637 1.392 . S
C3638 C3639 1.385 . S
C3638 C3640 1.478 . S
C3639 H3633 0.930 . S
C3639 C3635 1.400 . S
C3639 C3638 1.385 . S
C3640 C3638 1.478 . S
C3640 C3642 1.381 . S
C3640 C3646 1.383 . S
C3641 C3637 1.495 . S
C3641 H3647 0.959 . S
C3641 H3648 0.961 . S
C3641 H3649 0.960 . S
C3642 C3640 1.381 . S
C3642 C3643 1.394 . S
C3642 H3650 0.930 . S
C3643 C3642 1.394 . S
C3643 C3644 1.383 . S
C3643 H3651 0.929 . S
C3644 C3643 1.383 . S
C3644 C3645 1.377 . S
C3645 H3629 0.930 . S
C3645 C3644 1.377 . S
C3645 C3646 1.379 . S
C3646 H3630 0.931 . S
C3646 C3640 1.383 . S
C3646 C3645 1.379 . S
H3647 C3641 0.959 . S
H3648 C3641 0.961 . S
H3649 C3641 0.960 . S
H3650 C3642 0.930 . S
H3651 C3643 0.929 . S
H3652 C3660 0.929 . S
H3653 C3662 0.930 . S
H3654 C3664 0.930 . S
H3655 C3667 0.929 . S
H3656 C3670 0.930 . S
H3657 C3672 0.960 . S
H3658 C3672 0.960 . S
H3659 C3672 0.960 . S
C3660 H3652 0.929 . S
C3660 C3661 1.377 . S
C3660 C3662 1.384 . S
C3661 C3660 1.377 . S
C3661 C3667 1.390 . S
C3662 H3653 0.930 . S
C3662 C3660 1.384 . S
C3662 C3663 1.372 . S
C3663 C3662 1.372 . S
C3663 C3664 1.400 . S
C3663 C3668 1.490 . S
C3664 H3654 0.930 . S
C3664 C3663 1.400 . S
C3664 C3667 1.386 . S
H3665 C3681 0.930 . S
H3666 C3682 0.931 . S
C3667 H3655 0.929 . S
C3667 C3661 1.390 . S
C3667 C3664 1.386 . S
C3668 C3663 1.490 . S
C3668 C3670 1.395 . S
C3668 C3671 1.403 . S
H3669 C3675 0.930 . S
C3670 H3656 0.930 . S
C3670 C3668 1.395 . S
C3670 C3673 1.403 . S
C3671 C3668 1.403 . S
C3671 C3672 1.524 . S
C3671 C3675 1.400 . S
C3672 H3657 0.960 . S
C3672 H3658 0.960 . S
C3672 H3659 0.960 . S
C3672 C3671 1.524 . S
C3673 C3670 1.403 . S
C3673 C3674 1.392 . S
C3673 C3677 1.495 . S
C3674 C3673 1.392 . S
C3674 C3675 1.385 . S
C3674 C3676 1.478 . S
C3675 H3669 0.930 . S
C3675 C3671 1.400 . S
C3675 C3674 1.385 . S
C3676 C3674 1.478 . S
C3676 C3678 1.381 . S
C3676 C3682 1.383 . S
C3677 C3673 1.495 . S
C3677 H3683 0.959 . S
C3677 H3684 0.961 . S
C3677 H3685 0.960 . S
C3678 C3676 1.381 . S
C3678 C3679 1.394 . S
C3678 H3686 0.930 . S
C3679 C3678 1.394 . S
C3679 C3680 1.383 . S
C3679 H3687 0.929 . S
C3680 C3679 1.383 . S
C3680 C3681 1.377 . S
C3681 H3665 0.930 . S
C3681 C3680 1.377 . S
C3681 C3682 1.379 . S
C3682 H3666 0.931 . S
C3682 C3676 1.383 . S
C3682 C3681 1.379 . S
H3683 C3677 0.959 . S
H3684 C3677 0.961 . S
H3685 C3677 0.960 . S
H3686 C3678 0.930 . S
H3687 C3679 0.929 . S
H3688 C3696 0.929 . S
H3689 C3698 0.930 . S
H3690 C3700 0.930 . S
H3691 C3703 0.929 . S
H3692 C3706 0.930 . S
H3693 C3708 0.960 . S
H3694 C3708 0.960 . S
H3695 C3708 0.960 . S
C3696 H3688 0.929 . S
C3696 C3697 1.377 . S
C3696 C3698 1.384 . S
C3697 C3696 1.377 . S
C3697 C3703 1.390 . S
C3698 H3689 0.930 . S
C3698 C3696 1.384 . S
C3698 C3699 1.372 . S
C3699 C3698 1.372 . S
C3699 C3700 1.400 . S
C3699 C3704 1.490 . S
C3700 H3690 0.930 . S
C3700 C3699 1.400 . S
C3700 C3703 1.386 . S
H3701 C3717 0.930 . S
H3702 C3718 0.931 . S
C3703 H3691 0.929 . S
C3703 C3697 1.390 . S
C3703 C3700 1.386 . S
C3704 C3699 1.490 . S
C3704 C3706 1.395 . S
C3704 C3707 1.403 . S
H3705 C3711 0.930 . S
C3706 H3692 0.930 . S
C3706 C3704 1.395 . S
C3706 C3709 1.403 . S
C3707 C3704 1.403 . S
C3707 C3708 1.524 . S
C3707 C3711 1.400 . S
C3708 H3693 0.960 . S
C3708 H3694 0.960 . S
C3708 H3695 0.960 . S
C3708 C3707 1.524 . S
C3709 C3706 1.403 . S
C3709 C3710 1.392 . S
C3709 C3713 1.495 . S
C3710 C3709 1.392 . S
C3710 C3711 1.385 . S
C3710 C3712 1.478 . S
C3711 H3705 0.930 . S
C3711 C3707 1.400 . S
C3711 C3710 1.385 . S
C3712 C3710 1.478 . S
C3712 C3714 1.381 . S
C3712 C3718 1.383 . S
C3713 C3709 1.495 . S
C3713 H3719 0.959 . S
C3713 H3720 0.961 . S
C3713 H3721 0.960 . S
C3714 C3712 1.381 . S
C3714 C3715 1.394 . S
C3714 H3722 0.930 . S
C3715 C3714 1.394 . S
C3715 C3716 1.383 . S
C3715 H3723 0.929 . S
C3716 C3715 1.383 . S
C3716 C3717 1.377 . S
C3717 H3701 0.930 . S
C3717 C3716 1.377 . S
C3717 C3718 1.379 . S
C3718 H3702 0.931 . S
C3718 C3712 1.383 . S
C3718 C3717 1.379 . S
H3719 C3713 0.959 . S
H3720 C3713 0.961 . S
H3721 C3713 0.960 . S
H3722 C3714 0.930 . S
H3723 C3715 0.929 . S
H3724 C3732 0.929 . S
H3725 C3734 0.930 . S
H3726 C3736 0.930 . S
H3727 C3739 0.929 . S
H3728 C3742 0.930 . S
H3729 C3744 0.960 . S
H3730 C3744 0.960 . S
H3731 C3744 0.960 . S
C3732 H3724 0.929 . S
C3732 C3733 1.377 . S
C3732 C3734 1.384 . S
C3733 C3732 1.377 . S
C3733 C3739 1.390 . S
C3734 H3725 0.930 . S
C3734 C3732 1.384 . S
C3734 C3735 1.372 . S
C3735 C3734 1.372 . S
C3735 C3736 1.400 . S
C3735 C3740 1.490 . S
C3736 H3726 0.930 . S
C3736 C3735 1.400 . S
C3736 C3739 1.386 . S
H3737 C3753 0.930 . S
H3738 C3754 0.931 . S
C3739 H3727 0.929 . S
C3739 C3733 1.390 . S
C3739 C3736 1.386 . S
C3740 C3735 1.490 . S
C3740 C3742 1.395 . S
C3740 C3743 1.403 . S
H3741 C3747 0.930 . S
C3742 H3728 0.930 . S
C3742 C3740 1.395 . S
C3742 C3745 1.403 . S
C3743 C3740 1.403 . S
C3743 C3744 1.524 . S
C3743 C3747 1.400 . S
C3744 H3729 0.960 . S
C3744 H3730 0.960 . S
C3744 H3731 0.960 . S
C3744 C3743 1.524 . S
C3745 C3742 1.403 . S
C3745 C3746 1.392 . S
C3745 C3749 1.495 . S
C3746 C3745 1.392 . S
C3746 C3747 1.385 . S
C3746 C3748 1.478 . S
C3747 H3741 0.930 . S
C3747 C3743 1.400 . S
C3747 C3746 1.385 . S
C3748 C3746 1.478 . S
C3748 C3750 1.381 . S
C3748 C3754 1.383 . S
C3749 C3745 1.495 . S
C3749 H3755 0.959 . S
C3749 H3756 0.961 . S
C3749 H3757 0.960 . S
C3750 C3748 1.381 . S
C3750 C3751 1.394 . S
C3750 H3758 0.930 . S
C3751 C3750 1.394 . S
C3751 C3752 1.383 . S
C3751 H3759 0.929 . S
C3752 C3751 1.383 . S
C3752 C3753 1.377 . S
C3753 H3737 0.930 . S
C3753 C3752 1.377 . S
C3753 C3754 1.379 . S
C3754 H3738 0.931 . S
C3754 C3748 1.383 . S
C3754 C3753 1.379 . S
H3755 C3749 0.959 . S
H3756 C3749 0.961 . S
H3757 C3749 0.960 . S
H3758 C3750 0.930 . S
H3759 C3751 0.929 . S
H3760 C3768 0.929 . S
H3761 C3770 0.930 . S
H3762 C3772 0.930 . S
H3763 C3775 0.929 . S
H3764 C3778 0.936 . S
H3765 C3780 0.960 . S
H3766 C3780 0.960 . S
H3767 C3780 0.960 . S
C3768 H3760 0.929 . S
C3768 C3769 1.377 . S
C3768 C3770 1.384 . S
C3769 C3768 1.377 . S
C3769 C3775 1.390 . S
C3770 H3761 0.930 . S
C3770 C3768 1.384 . S
C3770 C3771 1.372 . S
C3771 C3770 1.372 . S
C3771 C3772 1.400 . S
C3771 C3776 1.490 . S
C3772 H3762 0.930 . S
C3772 C3771 1.400 . S
C3772 C3775 1.386 . S
H3773 C3789 0.930 . S
H3774 C3790 0.931 . S
C3775 H3763 0.929 . S
C3775 C3769 1.390 . S
C3775 C3772 1.386 . S
C3776 C3771 1.490 . S
C3776 C3778 1.395 . S
C3776 C3779 1.403 . S
H3777 C3783 0.930 . S
C3778 H3764 0.936 . S
C3778 C3776 1.395 . S
C3778 C3781 1.403 . S
C3779 C3776 1.403 . S
C3779 C3780 1.524 . S
C3779 C3783 1.400 . S
C3780 H3765 0.960 . S
C3780 H3766 0.960 . S
C3780 H3767 0.960 . S
C3780 C3779 1.524 . S
C3781 C3778 1.403 . S
C3781 C3782 1.392 . S
C3781 C3785 1.495 1_455 S
C3782 C3781 1.392 . S
C3782 C3783 1.385 . S
C3782 C3784 1.478 . S
C3783 H3777 0.930 . S
C3783 C3779 1.400 . S
C3783 C3782 1.385 . S
C3784 C3782 1.478 . S
C3784 C3786 1.381 . S
C3784 C3790 1.383 . S
C3785 C3781 1.495 1_655 S
C3785 H3791 0.959 . S
C3785 H3792 0.961 . S
C3785 H3793 0.960 . S
C3786 C3784 1.381 . S
C3786 C3787 1.394 . S
C3786 H3794 0.930 . S
C3787 C3786 1.394 . S
C3787 C3788 1.383 . S
C3787 H3795 0.929 . S
C3788 C3787 1.383 . S
C3788 C3789 1.377 . S
C3789 H3773 0.930 . S
C3789 C3788 1.377 . S
C3789 C3790 1.379 . S
C3790 H3774 0.931 . S
C3790 C3784 1.383 . S
C3790 C3789 1.379 . S
H3791 C3785 0.959 . S
H3792 C3785 0.961 . S
H3793 C3785 0.960 . S
H3794 C3786 0.930 . S
H3795 C3787 0.929 . S
H3796 C3804 0.929 . S
H3797 C3806 0.930 . S
H3798 C3808 0.930 . S
H3799 C3811 0.929 . S
H3800 C3814 0.930 . S
H3801 C3816 0.960 . S
H3802 C3816 0.960 . S
H3803 C3816 0.960 . S
C3804 H3796 0.929 . S
C3804 C3805 1.377 . S
C3804 C3806 1.384 . S
C3805 C3804 1.377 . S
C3805 C3811 1.390 . S
C3806 H3797 0.930 . S
C3806 C3804 1.384 . S
C3806 C3807 1.372 . S
C3807 C3806 1.372 . S
C3807 C3808 1.400 . S
C3807 C3812 1.490 . S
C3808 H3798 0.930 . S
C3808 C3807 1.400 . S
C3808 C3811 1.386 . S
H3809 C3825 0.930 . S
H3810 C3826 0.931 . S
C3811 H3799 0.929 . S
C3811 C3805 1.390 . S
C3811 C3808 1.386 . S
C3812 C3807 1.490 . S
C3812 C3814 1.395 . S
C3812 C3815 1.403 . S
H3813 C3819 0.930 . S
C3814 H3800 0.930 . S
C3814 C3812 1.395 . S
C3814 C3817 1.403 . S
C3815 C3812 1.403 . S
C3815 C3816 1.524 . S
C3815 C3819 1.400 . S
C3816 H3801 0.960 . S
C3816 H3802 0.960 . S
C3816 H3803 0.960 . S
C3816 C3815 1.524 . S
C3817 C3814 1.403 . S
C3817 C3818 1.392 . S
C3817 C3821 1.495 . S
C3818 C3817 1.392 . S
C3818 C3819 1.385 . S
C3818 C3820 1.478 . S
C3819 H3813 0.930 . S
C3819 C3815 1.400 . S
C3819 C3818 1.385 . S
C3820 C3818 1.478 . S
C3820 C3822 1.381 . S
C3820 C3826 1.383 . S
C3821 C3817 1.495 . S
C3821 H3827 0.959 . S
C3821 H3828 0.961 . S
C3821 H3829 0.960 . S
C3822 C3820 1.381 . S
C3822 C3823 1.394 . S
C3822 H3830 0.930 . S
C3823 C3822 1.394 . S
C3823 C3824 1.383 . S
C3823 H3831 0.929 . S
C3824 C3823 1.383 . S
C3824 C3825 1.377 . S
C3825 H3809 0.930 . S
C3825 C3824 1.377 . S
C3825 C3826 1.379 . S
C3826 H3810 0.931 . S
C3826 C3820 1.383 . S
C3826 C3825 1.379 . S
H3827 C3821 0.959 . S
H3828 C3821 0.961 . S
H3829 C3821 0.960 . S
H3830 C3822 0.930 . S
H3831 C3823 0.929 . S
H3832 C3840 0.929 . S
H3833 C3842 0.930 . S
H3834 C3844 0.930 . S
H3835 C3847 0.929 . S
H3836 C3850 0.930 . S
H3837 C3852 0.960 . S
H3838 C3852 0.960 . S
H3839 C3852 0.960 . S
C3840 H3832 0.929 . S
C3840 C3841 1.377 . S
C3840 C3842 1.384 . S
C3841 C3840 1.377 . S
C3841 C3847 1.390 . S
C3842 H3833 0.930 . S
C3842 C3840 1.384 . S
C3842 C3843 1.372 . S
C3843 C3842 1.372 . S
C3843 C3844 1.400 . S
C3843 C3848 1.490 . S
C3844 H3834 0.930 . S
C3844 C3843 1.400 . S
C3844 C3847 1.386 . S
H3845 C3861 0.930 . S
H3846 C3862 0.931 . S
C3847 H3835 0.929 . S
C3847 C3841 1.390 . S
C3847 C3844 1.386 . S
C3848 C3843 1.490 . S
C3848 C3850 1.395 . S
C3848 C3851 1.403 . S
H3849 C3855 0.930 . S
C3850 H3836 0.930 . S
C3850 C3848 1.395 . S
C3850 C3853 1.403 . S
C3851 C3848 1.403 . S
C3851 C3852 1.524 . S
C3851 C3855 1.400 . S
C3852 H3837 0.960 . S
C3852 H3838 0.960 . S
C3852 H3839 0.960 . S
C3852 C3851 1.524 . S
C3853 C3850 1.403 . S
C3853 C3854 1.392 . S
C3853 C3857 1.495 . S
C3854 C3853 1.392 . S
C3854 C3855 1.385 . S
C3854 C3856 1.478 . S
C3855 H3849 0.930 . S
C3855 C3851 1.400 . S
C3855 C3854 1.385 . S
C3856 C3854 1.478 . S
C3856 C3858 1.381 . S
C3856 C3862 1.383 . S
C3857 C3853 1.495 . S
C3857 H3863 0.959 . S
C3857 H3864 0.961 . S
C3857 H3865 0.960 . S
C3858 C3856 1.381 . S
C3858 C3859 1.394 . S
C3858 H3866 0.930 . S
C3859 C3858 1.394 . S
C3859 C3860 1.383 . S
C3859 H3867 0.929 . S
C3860 C3859 1.383 . S
C3860 C3861 1.377 . S
C3861 H3845 0.930 . S
C3861 C3860 1.377 . S
C3861 C3862 1.379 . S
C3862 H3846 0.931 . S
C3862 C3856 1.383 . S
C3862 C3861 1.379 . S
H3863 C3857 0.959 . S
H3864 C3857 0.961 . S
H3865 C3857 0.960 . S
H3866 C3858 0.930 . S
H3867 C3859 0.929 . S
H3868 C3876 0.929 . S
H3869 C3878 0.930 . S
H3870 C3880 0.930 . S
H3871 C3883 0.929 . S
H3872 C3886 0.930 . S
H3873 C3888 0.960 . S
H3874 C3888 0.960 . S
H3875 C3888 0.960 . S
C3876 H3868 0.929 . S
C3876 C3877 1.377 . S
C3876 C3878 1.384 . S
C3877 C3876 1.377 . S
C3877 C3883 1.390 . S
C3878 H3869 0.930 . S
C3878 C3876 1.384 . S
C3878 C3879 1.372 . S
C3879 C3878 1.372 . S
C3879 C3880 1.400 . S
C3879 C3884 1.490 . S
C3880 H3870 0.930 . S
C3880 C3879 1.400 . S
C3880 C3883 1.386 . S
H3881 C3897 0.930 . S
H3882 C3898 0.931 . S
C3883 H3871 0.929 . S
C3883 C3877 1.390 . S
C3883 C3880 1.386 . S
C3884 C3879 1.490 . S
C3884 C3886 1.395 . S
C3884 C3887 1.403 . S
H3885 C3891 0.930 . S
C3886 H3872 0.930 . S
C3886 C3884 1.395 . S
C3886 C3889 1.403 . S
C3887 C3884 1.403 . S
C3887 C3888 1.524 . S
C3887 C3891 1.400 . S
C3888 H3873 0.960 . S
C3888 H3874 0.960 . S
C3888 H3875 0.960 . S
C3888 C3887 1.524 . S
C3889 C3886 1.403 . S
C3889 C3890 1.392 . S
C3889 C3893 1.495 . S
C3890 C3889 1.392 . S
C3890 C3891 1.385 . S
C3890 C3892 1.478 . S
C3891 H3885 0.930 . S
C3891 C3887 1.400 . S
C3891 C3890 1.385 . S
C3892 C3890 1.478 . S
C3892 C3894 1.381 . S
C3892 C3898 1.383 . S
C3893 C3889 1.495 . S
C3893 H3899 0.959 . S
C3893 H3900 0.961 . S
C3893 H3901 0.960 . S
C3894 C3892 1.381 . S
C3894 C3895 1.394 . S
C3894 H3902 0.930 . S
C3895 C3894 1.394 . S
C3895 C3896 1.383 . S
C3895 H3903 0.929 . S
C3896 C3895 1.383 . S
C3896 C3897 1.377 . S
C3897 H3881 0.930 . S
C3897 C3896 1.377 . S
C3897 C3898 1.379 . S
C3898 H3882 0.931 . S
C3898 C3892 1.383 . S
C3898 C3897 1.379 . S
H3899 C3893 0.959 . S
H3900 C3893 0.961 . S
H3901 C3893 0.960 . S
H3902 C3894 0.930 . S
H3903 C3895 0.929 . S
H3904 C3912 0.929 . S
H3905 C3914 0.930 . S
H3906 C3916 0.930 . S
H3907 C3919 0.929 . S
H3908 C3922 0.930 . S
H3909 C3924 0.960 . S
H3910 C3924 0.960 . S
H3911 C3924 0.960 . S
C3912 H3904 0.929 . S
C3912 C3913 1.377 . S
C3912 C3914 1.384 . S
C3913 C3912 1.377 . S
C3913 C3919 1.390 . S
C3914 H3905 0.930 . S
C3914 C3912 1.384 . S
C3914 C3915 1.372 . S
C3915 C3914 1.372 . S
C3915 C3916 1.400 . S
C3915 C3920 1.490 . S
C3916 H3906 0.930 . S
C3916 C3915 1.400 . S
C3916 C3919 1.386 . S
H3917 C3933 0.930 . S
H3918 C3934 0.931 . S
C3919 H3907 0.929 . S
C3919 C3913 1.390 . S
C3919 C3916 1.386 . S
C3920 C3915 1.490 . S
C3920 C3922 1.395 . S
C3920 C3923 1.403 . S
H3921 C3927 0.930 . S
C3922 H3908 0.930 . S
C3922 C3920 1.395 . S
C3922 C3925 1.403 . S
C3923 C3920 1.403 . S
C3923 C3924 1.524 . S
C3923 C3927 1.400 . S
C3924 H3909 0.960 . S
C3924 H3910 0.960 . S
C3924 H3911 0.960 . S
C3924 C3923 1.524 . S
C3925 C3922 1.403 . S
C3925 C3926 1.392 . S
C3925 C3929 1.495 . S
C3926 C3925 1.392 . S
C3926 C3927 1.385 . S
C3926 C3928 1.478 . S
C3927 H3921 0.930 . S
C3927 C3923 1.400 . S
C3927 C3926 1.385 . S
C3928 C3926 1.478 . S
C3928 C3930 1.381 . S
C3928 C3934 1.383 . S
C3929 C3925 1.495 . S
C3929 H3935 0.959 . S
C3929 H3936 0.961 . S
C3929 H3937 0.960 . S
C3930 C3928 1.381 . S
C3930 C3931 1.394 . S
C3930 H3938 0.930 . S
C3931 C3930 1.394 . S
C3931 C3932 1.383 . S
C3931 H3939 0.929 . S
C3932 C3931 1.383 . S
C3932 C3933 1.377 . S
C3933 H3917 0.930 . S
C3933 C3932 1.377 . S
C3933 C3934 1.379 . S
C3934 H3918 0.931 . S
C3934 C3928 1.383 . S
C3934 C3933 1.379 . S
H3935 C3929 0.959 . S
H3936 C3929 0.961 . S
H3937 C3929 0.960 . S
H3938 C3930 0.930 . S
H3939 C3931 0.929 . S
H3940 C3948 0.929 . S
H3941 C3950 0.930 . S
H3942 C3952 0.930 . S
H3943 C3955 0.929 . S
H3944 C3958 0.930 . S
H3945 C3960 0.960 . S
H3946 C3960 0.960 . S
H3947 C3960 0.960 . S
C3948 H3940 0.929 . S
C3948 C3949 1.377 . S
C3948 C3950 1.384 . S
C3949 C3948 1.377 . S
C3949 C3955 1.390 . S
C3950 H3941 0.930 . S
C3950 C3948 1.384 . S
C3950 C3951 1.372 . S
C3951 C3950 1.372 . S
C3951 C3952 1.400 . S
C3951 C3956 1.490 . S
C3952 H3942 0.930 . S
C3952 C3951 1.400 . S
C3952 C3955 1.386 . S
H3953 C3969 0.930 . S
H3954 C3970 0.931 . S
C3955 H3943 0.929 . S
C3955 C3949 1.390 . S
C3955 C3952 1.386 . S
C3956 C3951 1.490 . S
C3956 C3958 1.395 . S
C3956 C3959 1.403 . S
H3957 C3963 0.930 . S
C3958 H3944 0.930 . S
C3958 C3956 1.395 . S
C3958 C3961 1.403 . S
C3959 C3956 1.403 . S
C3959 C3960 1.524 . S
C3959 C3963 1.400 . S
C3960 H3945 0.960 . S
C3960 H3946 0.960 . S
C3960 H3947 0.960 . S
C3960 C3959 1.524 . S
C3961 C3958 1.403 . S
C3961 C3962 1.392 . S
C3961 C3965 1.495 . S
C3962 C3961 1.392 . S
C3962 C3963 1.385 . S
C3962 C3964 1.478 . S
C3963 H3957 0.930 . S
C3963 C3959 1.400 . S
C3963 C3962 1.385 . S
C3964 C3962 1.478 . S
C3964 C3966 1.381 . S
C3964 C3970 1.383 . S
C3965 C3961 1.495 . S
C3965 H3971 0.959 . S
C3965 H3972 0.961 . S
C3965 H3973 0.960 . S
C3966 C3964 1.381 . S
C3966 C3967 1.394 . S
C3966 H3974 0.930 . S
C3967 C3966 1.394 . S
C3967 C3968 1.383 . S
C3967 H3975 0.929 . S
C3968 C3967 1.383 . S
C3968 C3969 1.377 . S
C3969 H3953 0.930 . S
C3969 C3968 1.377 . S
C3969 C3970 1.379 . S
C3970 H3954 0.931 . S
C3970 C3964 1.383 . S
C3970 C3969 1.379 . S
H3971 C3965 0.959 . S
H3972 C3965 0.961 . S
H3973 C3965 0.960 . S
H3974 C3966 0.930 . S
H3975 C3967 0.929 . S
H3976 C3984 0.929 . S
H3977 C3986 0.930 . S
H3978 C3988 0.930 . S
H3979 C3991 0.929 . S
H3980 C3994 0.930 . S
H3981 C3996 0.960 . S
H3982 C3996 0.960 . S
H3983 C3996 0.960 . S
C3984 H3976 0.929 . S
C3984 C3985 1.377 . S
C3984 C3986 1.384 . S
C3985 C3984 1.377 . S
C3985 C3991 1.390 . S
C3986 H3977 0.930 . S
C3986 C3984 1.384 . S
C3986 C3987 1.372 . S
C3987 C3986 1.372 . S
C3987 C3988 1.400 . S
C3987 C3992 1.490 . S
C3988 H3978 0.930 . S
C3988 C3987 1.400 . S
C3988 C3991 1.386 . S
H3989 C4005 0.930 . S
H3990 C4006 0.931 . S
C3991 H3979 0.929 . S
C3991 C3985 1.390 . S
C3991 C3988 1.386 . S
C3992 C3987 1.490 . S
C3992 C3994 1.395 . S
C3992 C3995 1.403 . S
H3993 C3999 0.930 . S
C3994 H3980 0.930 . S
C3994 C3992 1.395 . S
C3994 C3997 1.403 . S
C3995 C3992 1.403 . S
C3995 C3996 1.524 . S
C3995 C3999 1.400 . S
C3996 H3981 0.960 . S
C3996 H3982 0.960 . S
C3996 H3983 0.960 . S
C3996 C3995 1.524 . S
C3997 C3994 1.403 . S
C3997 C3998 1.392 . S
C3997 C4001 1.495 . S
C3998 C3997 1.392 . S
C3998 C3999 1.385 . S
C3998 C4000 1.478 . S
C3999 H3993 0.930 . S
C3999 C3995 1.400 . S
C3999 C3998 1.385 . S
C4000 C3998 1.478 . S
C4000 C4002 1.381 . S
C4000 C4006 1.383 . S
C4001 C3997 1.495 . S
C4001 H4007 0.959 . S
C4001 H4008 0.961 . S
C4001 H4009 0.960 . S
C4002 C4000 1.381 . S
C4002 C4003 1.394 . S
C4002 H4010 0.930 . S
C4003 C4002 1.394 . S
C4003 C4004 1.383 . S
C4003 H4011 0.929 . S
C4004 C4003 1.383 . S
C4004 C4005 1.377 . S
C4005 H3989 0.930 . S
C4005 C4004 1.377 . S
C4005 C4006 1.379 . S
C4006 H3990 0.931 . S
C4006 C4000 1.383 . S
C4006 C4005 1.379 . S
H4007 C4001 0.959 . S
H4008 C4001 0.961 . S
H4009 C4001 0.960 . S
H4010 C4002 0.930 . S
H4011 C4003 0.929 . S
H4012 C4020 0.929 . S
H4013 C4022 0.930 . S
H4014 C4024 0.930 . S
H4015 C4027 0.929 . S
H4016 C4030 0.930 . S
H4017 C4032 0.960 . S
H4018 C4032 0.960 . S
H4019 C4032 0.960 . S
C4020 H4012 0.929 . S
C4020 C4021 1.377 . S
C4020 C4022 1.384 . S
C4021 C4020 1.377 . S
C4021 C4027 1.390 . S
C4022 H4013 0.930 . S
C4022 C4020 1.384 . S
C4022 C4023 1.372 . S
C4023 C4022 1.372 . S
C4023 C4024 1.400 . S
C4023 C4028 1.490 . S
C4024 H4014 0.930 . S
C4024 C4023 1.400 . S
C4024 C4027 1.386 . S
H4025 C4041 0.930 . S
H4026 C4042 0.931 . S
C4027 H4015 0.929 . S
C4027 C4021 1.390 . S
C4027 C4024 1.386 . S
C4028 C4023 1.490 . S
C4028 C4030 1.395 . S
C4028 C4031 1.403 . S
H4029 C4035 0.930 . S
C4030 H4016 0.930 . S
C4030 C4028 1.395 . S
C4030 C4033 1.403 . S
C4031 C4028 1.403 . S
C4031 C4032 1.524 . S
C4031 C4035 1.400 . S
C4032 H4017 0.960 . S
C4032 H4018 0.960 . S
C4032 H4019 0.960 . S
C4032 C4031 1.524 . S
C4033 C4030 1.403 . S
C4033 C4034 1.392 . S
C4033 C4037 1.495 . S
C4034 C4033 1.392 . S
C4034 C4035 1.385 . S
C4034 C4036 1.478 . S
C4035 H4029 0.930 . S
C4035 C4031 1.400 . S
C4035 C4034 1.385 . S
C4036 C4034 1.478 . S
C4036 C4038 1.381 . S
C4036 C4042 1.383 . S
C4037 C4033 1.495 . S
C4037 H4043 0.959 . S
C4037 H4044 0.961 . S
C4037 H4045 0.960 . S
C4038 C4036 1.381 . S
C4038 C4039 1.394 . S
C4038 H4046 0.930 . S
C4039 C4038 1.394 . S
C4039 C4040 1.383 . S
C4039 H4047 0.929 . S
C4040 C4039 1.383 . S
C4040 C4041 1.377 . S
C4041 H4025 0.930 . S
C4041 C4040 1.377 . S
C4041 C4042 1.379 . S
C4042 H4026 0.931 . S
C4042 C4036 1.383 . S
C4042 C4041 1.379 . S
H4043 C4037 0.959 . S
H4044 C4037 0.961 . S
H4045 C4037 0.960 . S
H4046 C4038 0.930 . S
H4047 C4039 0.929 . S
H4048 C4056 0.929 . S
H4049 C4058 0.930 . S
H4050 C4060 0.930 . S
H4051 C4063 0.929 . S
H4052 C4066 0.930 . S
H4053 C4068 0.960 . S
H4054 C4068 0.960 . S
H4055 C4068 0.960 . S
C4056 H4048 0.929 . S
C4056 C4057 1.377 . S
C4056 C4058 1.384 . S
C4057 C4056 1.377 . S
C4057 C4063 1.390 . S
C4058 H4049 0.930 . S
C4058 C4056 1.384 . S
C4058 C4059 1.372 . S
C4059 C4058 1.372 . S
C4059 C4060 1.400 . S
C4059 C4064 1.490 . S
C4060 H4050 0.930 . S
C4060 C4059 1.400 . S
C4060 C4063 1.386 . S
H4061 C4077 0.930 . S
H4062 C4078 0.931 . S
C4063 H4051 0.929 . S
C4063 C4057 1.390 . S
C4063 C4060 1.386 . S
C4064 C4059 1.490 . S
C4064 C4066 1.395 . S
C4064 C4067 1.403 . S
H4065 C4071 0.930 . S
C4066 H4052 0.930 . S
C4066 C4064 1.395 . S
C4066 C4069 1.403 . S
C4067 C4064 1.403 . S
C4067 C4068 1.524 . S
C4067 C4071 1.400 . S
C4068 H4053 0.960 . S
C4068 H4054 0.960 . S
C4068 H4055 0.960 . S
C4068 C4067 1.524 . S
C4069 C4066 1.403 . S
C4069 C4070 1.392 . S
C4069 C4073 1.495 . S
C4070 C4069 1.392 . S
C4070 C4071 1.385 . S
C4070 C4072 1.478 . S
C4071 H4065 0.930 . S
C4071 C4067 1.400 . S
C4071 C4070 1.385 . S
C4072 C4070 1.478 . S
C4072 C4074 1.381 . S
C4072 C4078 1.383 . S
C4073 C4069 1.495 . S
C4073 H4079 0.959 . S
C4073 H4080 0.961 . S
C4073 H4081 0.960 . S
C4074 C4072 1.381 . S
C4074 C4075 1.394 . S
C4074 H4082 0.930 . S
C4075 C4074 1.394 . S
C4075 C4076 1.383 . S
C4075 H4083 0.929 . S
C4076 C4075 1.383 . S
C4076 C4077 1.377 . S
C4077 H4061 0.930 . S
C4077 C4076 1.377 . S
C4077 C4078 1.379 . S
C4078 H4062 0.931 . S
C4078 C4072 1.383 . S
C4078 C4077 1.379 . S
H4079 C4073 0.959 . S
H4080 C4073 0.961 . S
H4081 C4073 0.960 . S
H4082 C4074 0.930 . S
H4083 C4075 0.929 . S
H4084 C4092 0.929 . S
H4085 C4094 0.930 . S
H4086 C4096 0.930 . S
H4087 C4099 0.929 . S
H4088 C4102 0.930 . S
H4089 C4104 0.960 . S
H4090 C4104 0.960 . S
H4091 C4104 0.960 . S
C4092 H4084 0.929 . S
C4092 C4093 1.377 . S
C4092 C4094 1.384 . S
C4093 C4092 1.377 . S
C4093 C4099 1.390 . S
C4094 H4085 0.930 . S
C4094 C4092 1.384 . S
C4094 C4095 1.372 . S
C4095 C4094 1.372 . S
C4095 C4096 1.400 . S
C4095 C4100 1.490 . S
C4096 H4086 0.930 . S
C4096 C4095 1.400 . S
C4096 C4099 1.386 . S
H4097 C4113 0.930 . S
H4098 C4114 0.931 . S
C4099 H4087 0.929 . S
C4099 C4093 1.390 . S
C4099 C4096 1.386 . S
C4100 C4095 1.490 . S
C4100 C4102 1.395 . S
C4100 C4103 1.403 . S
H4101 C4107 0.930 . S
C4102 H4088 0.930 . S
C4102 C4100 1.395 . S
C4102 C4105 1.403 . S
C4103 C4100 1.403 . S
C4103 C4104 1.524 . S
C4103 C4107 1.400 . S
C4104 H4089 0.960 . S
C4104 H4090 0.960 . S
C4104 H4091 0.960 . S
C4104 C4103 1.524 . S
C4105 C4102 1.403 . S
C4105 C4106 1.392 . S
C4105 C4109 1.495 . S
C4106 C4105 1.392 . S
C4106 C4107 1.385 . S
C4106 C4108 1.478 . S
C4107 H4101 0.930 . S
C4107 C4103 1.400 . S
C4107 C4106 1.385 . S
C4108 C4106 1.478 . S
C4108 C4110 1.381 . S
C4108 C4114 1.383 . S
C4109 C4105 1.495 . S
C4109 H4115 0.959 . S
C4109 H4116 0.961 . S
C4109 H4117 0.960 . S
C4110 C4108 1.381 . S
C4110 C4111 1.394 . S
C4110 H4118 0.930 . S
C4111 C4110 1.394 . S
C4111 C4112 1.383 . S
C4111 H4119 0.929 . S
C4112 C4111 1.383 . S
C4112 C4113 1.377 . S
C4113 H4097 0.930 . S
C4113 C4112 1.377 . S
C4113 C4114 1.379 . S
C4114 H4098 0.931 . S
C4114 C4108 1.383 . S
C4114 C4113 1.379 . S
H4115 C4109 0.959 . S
H4116 C4109 0.961 . S
H4117 C4109 0.960 . S
H4118 C4110 0.930 . S
H4119 C4111 0.929 . S
H4120 C4128 0.929 . S
H4121 C4130 0.930 . S
H4122 C4132 0.930 . S
H4123 C4135 0.929 . S
H4124 C4138 0.930 . S
H4125 C4140 0.960 . S
H4126 C4140 0.960 . S
H4127 C4140 0.960 . S
C4128 H4120 0.929 . S
C4128 C4129 1.377 . S
C4128 C4130 1.384 . S
C4129 C4128 1.377 . S
C4129 C4135 1.390 . S
C4130 H4121 0.930 . S
C4130 C4128 1.384 . S
C4130 C4131 1.372 . S
C4131 C4130 1.372 . S
C4131 C4132 1.400 . S
C4131 C4136 1.490 . S
C4132 H4122 0.930 . S
C4132 C4131 1.400 . S
C4132 C4135 1.386 . S
H4133 C4149 0.930 . S
H4134 C4150 0.931 . S
C4135 H4123 0.929 . S
C4135 C4129 1.390 . S
C4135 C4132 1.386 . S
C4136 C4131 1.490 . S
C4136 C4138 1.395 . S
C4136 C4139 1.403 . S
H4137 C4143 0.930 . S
C4138 H4124 0.930 . S
C4138 C4136 1.395 . S
C4138 C4141 1.403 . S
C4139 C4136 1.403 . S
C4139 C4140 1.524 . S
C4139 C4143 1.400 . S
C4140 H4125 0.960 . S
C4140 H4126 0.960 . S
C4140 H4127 0.960 . S
C4140 C4139 1.524 . S
C4141 C4138 1.403 . S
C4141 C4142 1.392 . S
C4141 C4145 1.495 . S
C4142 C4141 1.392 . S
C4142 C4143 1.385 . S
C4142 C4144 1.478 . S
C4143 H4137 0.930 . S
C4143 C4139 1.400 . S
C4143 C4142 1.385 . S
C4144 C4142 1.478 . S
C4144 C4146 1.381 . S
C4144 C4150 1.383 . S
C4145 C4141 1.495 . S
C4145 H4151 0.959 . S
C4145 H4152 0.961 . S
C4145 H4153 0.960 . S
C4146 C4144 1.381 . S
C4146 C4147 1.394 . S
C4146 H4154 0.930 . S
C4147 C4146 1.394 . S
C4147 C4148 1.383 . S
C4147 H4155 0.929 . S
C4148 C4147 1.383 . S
C4148 C4149 1.377 . S
C4149 H4133 0.930 . S
C4149 C4148 1.377 . S
C4149 C4150 1.379 . S
C4150 H4134 0.931 . S
C4150 C4144 1.383 . S
C4150 C4149 1.379 . S
H4151 C4145 0.959 . S
H4152 C4145 0.961 . S
H4153 C4145 0.960 . S
H4154 C4146 0.930 . S
H4155 C4147 0.929 . S
H4156 C4164 0.929 . S
H4157 C4166 0.930 . S
H4158 C4168 0.930 . S
H4159 C4171 0.929 . S
H4160 C4174 0.930 . S
H4161 C4176 0.960 . S
H4162 C4176 0.960 . S
H4163 C4176 0.960 . S
C4164 H4156 0.929 . S
C4164 C4165 1.377 . S
C4164 C4166 1.384 . S
C4165 C4164 1.377 . S
C4165 C4171 1.390 . S
C4166 H4157 0.930 . S
C4166 C4164 1.384 . S
C4166 C4167 1.372 . S
C4167 C4166 1.372 . S
C4167 C4168 1.400 . S
C4167 C4172 1.490 . S
C4168 H4158 0.930 . S
C4168 C4167 1.400 . S
C4168 C4171 1.386 . S
H4169 C4185 0.930 . S
H4170 C4186 0.931 . S
C4171 H4159 0.929 . S
C4171 C4165 1.390 . S
C4171 C4168 1.386 . S
C4172 C4167 1.490 . S
C4172 C4174 1.395 . S
C4172 C4175 1.403 . S
H4173 C4179 0.930 . S
C4174 H4160 0.930 . S
C4174 C4172 1.395 . S
C4174 C4177 1.403 . S
C4175 C4172 1.403 . S
C4175 C4176 1.524 . S
C4175 C4179 1.400 . S
C4176 H4161 0.960 . S
C4176 H4162 0.960 . S
C4176 H4163 0.960 . S
C4176 C4175 1.524 . S
C4177 C4174 1.403 . S
C4177 C4178 1.392 . S
C4177 C4181 1.495 . S
C4178 C4177 1.392 . S
C4178 C4179 1.385 . S
C4178 C4180 1.478 . S
C4179 H4173 0.930 . S
C4179 C4175 1.400 . S
C4179 C4178 1.385 . S
C4180 C4178 1.478 . S
C4180 C4182 1.381 . S
C4180 C4186 1.383 . S
C4181 C4177 1.495 . S
C4181 H4187 0.959 . S
C4181 H4188 0.961 . S
C4181 H4189 0.960 . S
C4182 C4180 1.381 . S
C4182 C4183 1.394 . S
C4182 H4190 0.930 . S
C4183 C4182 1.394 . S
C4183 C4184 1.383 . S
C4183 H4191 0.929 1_565 S
C4184 C4183 1.383 . S
C4184 C4185 1.377 . S
C4185 H4169 0.930 . S
C4185 C4184 1.377 . S
C4185 C4186 1.379 . S
C4186 H4170 0.931 . S
C4186 C4180 1.383 . S
C4186 C4185 1.379 . S
H4187 C4181 0.959 . S
H4188 C4181 0.961 . S
H4189 C4181 0.960 . S
H4190 C4182 0.930 . S
H4191 C4183 0.929 1_545 S
H4192 C4200 0.929 . S
H4193 C4202 0.930 . S
H4194 C4204 0.930 . S
H4195 C4207 0.929 . S
H4196 C4210 0.930 . S
H4197 C4212 0.960 . S
H4198 C4212 0.960 . S
H4199 C4212 0.960 . S
C4200 H4192 0.929 . S
C4200 C4201 1.377 . S
C4200 C4202 1.384 . S
C4201 C4200 1.377 . S
C4201 C4207 1.390 . S
C4202 H4193 0.930 . S
C4202 C4200 1.384 . S
C4202 C4203 1.372 . S
C4203 C4202 1.372 . S
C4203 C4204 1.400 . S
C4203 C4208 1.490 . S
C4204 H4194 0.930 . S
C4204 C4203 1.400 . S
C4204 C4207 1.386 . S
H4205 C4221 0.930 . S
H4206 C4222 0.931 . S
C4207 H4195 0.929 . S
C4207 C4201 1.390 . S
C4207 C4204 1.386 . S
C4208 C4203 1.490 . S
C4208 C4210 1.395 . S
C4208 C4211 1.403 . S
H4209 C4215 0.930 . S
C4210 H4196 0.930 . S
C4210 C4208 1.395 . S
C4210 C4213 1.403 . S
C4211 C4208 1.403 . S
C4211 C4212 1.524 . S
C4211 C4215 1.400 . S
C4212 H4197 0.960 . S
C4212 H4198 0.960 . S
C4212 H4199 0.960 . S
C4212 C4211 1.524 . S
C4213 C4210 1.403 . S
C4213 C4214 1.392 . S
C4213 C4217 1.495 . S
C4214 C4213 1.392 . S
C4214 C4215 1.385 . S
C4214 C4216 1.478 . S
C4215 H4209 0.930 . S
C4215 C4211 1.400 . S
C4215 C4214 1.385 . S
C4216 C4214 1.478 . S
C4216 C4218 1.381 . S
C4216 C4222 1.383 . S
C4217 C4213 1.495 . S
C4217 H4223 0.959 . S
C4217 H4224 0.961 . S
C4217 H4225 0.960 . S
C4218 C4216 1.381 . S
C4218 C4219 1.394 . S
C4218 H4226 0.930 . S
C4219 C4218 1.394 . S
C4219 C4220 1.383 . S
C4219 H4227 0.929 . S
C4220 C4219 1.383 . S
C4220 C4221 1.377 . S
C4221 H4205 0.930 . S
C4221 C4220 1.377 . S
C4221 C4222 1.379 . S
C4222 H4206 0.931 . S
C4222 C4216 1.383 . S
C4222 C4221 1.379 . S
H4223 C4217 0.959 . S
H4224 C4217 0.961 . S
H4225 C4217 0.960 . S
H4226 C4218 0.930 . S
H4227 C4219 0.929 . S
H4228 C4236 0.929 . S
H4229 C4238 0.930 . S
H4230 C4240 0.930 . S
H4231 C4243 0.929 . S
H4232 C4246 0.930 . S
H4233 C4248 0.960 . S
H4234 C4248 0.960 . S
H4235 C4248 0.960 . S
C4236 H4228 0.929 . S
C4236 C4237 1.377 . S
C4236 C4238 1.384 . S
C4237 C4236 1.377 . S
C4237 C4243 1.390 . S
C4238 H4229 0.930 . S
C4238 C4236 1.384 . S
C4238 C4239 1.372 . S
C4239 C4238 1.372 . S
C4239 C4240 1.400 . S
C4239 C4244 1.490 . S
C4240 H4230 0.930 . S
C4240 C4239 1.400 . S
C4240 C4243 1.386 . S
H4241 C4257 0.930 . S
H4242 C4258 0.931 . S
C4243 H4231 0.929 . S
C4243 C4237 1.390 . S
C4243 C4240 1.386 . S
C4244 C4239 1.490 . S
C4244 C4246 1.395 . S
C4244 C4247 1.403 . S
H4245 C4251 0.930 . S
C4246 H4232 0.930 . S
C4246 C4244 1.395 . S
C4246 C4249 1.403 . S
C4247 C4244 1.403 . S
C4247 C4248 1.524 . S
C4247 C4251 1.400 . S
C4248 H4233 0.960 . S
C4248 H4234 0.960 . S
C4248 H4235 0.960 . S
C4248 C4247 1.524 . S
C4249 C4246 1.403 . S
C4249 C4250 1.392 . S
C4249 C4253 1.495 1_554 S
C4250 C4249 1.392 . S
C4250 C4251 1.385 . S
C4250 C4252 1.478 . S
C4251 H4245 0.930 . S
C4251 C4247 1.400 . S
C4251 C4250 1.385 . S
C4252 C4250 1.478 . S
C4252 C4254 1.381 . S
C4252 C4258 1.383 . S
C4253 C4249 1.495 1_556 S
C4253 H4259 0.959 . S
C4253 H4260 0.961 . S
C4253 H4261 0.960 . S
C4254 C4252 1.381 . S
C4254 C4255 1.394 . S
C4254 H4262 0.930 1_554 S
C4255 C4254 1.394 . S
C4255 C4256 1.383 . S
C4255 H4263 0.929 1_554 S
C4256 C4255 1.383 . S
C4256 C4257 1.377 . S
C4257 H4241 0.930 . S
C4257 C4256 1.377 . S
C4257 C4258 1.379 . S
C4258 H4242 0.931 . S
C4258 C4252 1.383 . S
C4258 C4257 1.379 . S
H4259 C4253 0.959 . S
H4260 C4253 0.961 . S
H4261 C4253 0.960 . S
H4262 C4254 0.930 1_556 S
H4263 C4255 0.929 1_556 S
H4264 C4272 0.929 . S
H4265 C4274 0.930 . S
H4266 C4276 0.930 . S
H4267 C4279 0.929 . S
H4268 C4282 0.930 . S
H4269 C4284 0.960 . S
H4270 C4284 0.960 . S
H4271 C4284 0.960 . S
C4272 H4264 0.929 . S
C4272 C4273 1.377 . S
C4272 C4274 1.384 . S
C4273 C4272 1.377 . S
C4273 C4279 1.390 . S
C4274 H4265 0.930 . S
C4274 C4272 1.384 . S
C4274 C4275 1.372 . S
C4275 C4274 1.372 . S
C4275 C4276 1.400 . S
C4275 C4280 1.490 . S
C4276 H4266 0.930 . S
C4276 C4275 1.400 . S
C4276 C4279 1.386 . S
H4277 C4293 0.930 . S
H4278 C4294 0.931 . S
C4279 H4267 0.929 . S
C4279 C4273 1.390 . S
C4279 C4276 1.386 . S
C4280 C4275 1.490 . S
C4280 C4282 1.395 . S
C4280 C4283 1.403 . S
H4281 C4287 0.930 . S
C4282 H4268 0.930 . S
C4282 C4280 1.395 . S
C4282 C4285 1.403 . S
C4283 C4280 1.403 . S
C4283 C4284 1.524 . S
C4283 C4287 1.400 . S
C4284 H4269 0.960 . S
C4284 H4270 0.960 . S
C4284 H4271 0.960 . S
C4284 C4283 1.524 . S
C4285 C4282 1.403 . S
C4285 C4286 1.392 . S
C4285 C4289 1.495 . S
C4286 C4285 1.392 . S
C4286 C4287 1.385 . S
C4286 C4288 1.478 . S
C4287 H4281 0.930 . S
C4287 C4283 1.400 . S
C4287 C4286 1.385 . S
C4288 C4286 1.478 . S
C4288 C4290 1.381 . S
C4288 C4294 1.383 . S
C4289 C4285 1.495 . S
C4289 H4295 0.959 . S
C4289 H4296 0.961 . S
C4289 H4297 0.960 . S
C4290 C4288 1.381 . S
C4290 C4291 1.394 . S
C4290 H4298 0.930 . S
C4291 C4290 1.394 . S
C4291 C4292 1.383 . S
C4291 H4299 0.929 . S
C4292 C4291 1.383 . S
C4292 C4293 1.377 . S
C4293 H4277 0.930 . S
C4293 C4292 1.377 . S
C4293 C4294 1.379 . S
C4294 H4278 0.931 . S
C4294 C4288 1.383 . S
C4294 C4293 1.379 . S
H4295 C4289 0.959 . S
H4296 C4289 0.961 . S
H4297 C4289 0.960 . S
H4298 C4290 0.930 . S
H4299 C4291 0.929 . S
H4300 C4308 0.929 . S
H4301 C4310 0.930 1_556 S
H4302 C4312 0.930 . S
H4303 C4315 0.929 . S
H4304 C4318 0.930 . S
H4305 C4320 0.960 . S
H4306 C4320 0.960 . S
H4307 C4320 0.960 . S
C4308 H4300 0.929 . S
C4308 C4309 1.377 . S
C4308 C4310 1.384 . S
C4309 C4308 1.377 . S
C4309 C4315 1.390 . S
C4310 H4301 0.930 1_554 S
C4310 C4308 1.384 . S
C4310 C4311 1.372 . S
C4311 C4310 1.372 . S
C4311 C4312 1.400 . S
C4311 C4316 1.490 . S
C4312 H4302 0.930 . S
C4312 C4311 1.400 . S
C4312 C4315 1.386 . S
H4313 C4329 0.930 . S
H4314 C4330 0.931 . S
C4315 H4303 0.929 . S
C4315 C4309 1.390 . S
C4315 C4312 1.386 . S
C4316 C4311 1.490 . S
C4316 C4318 1.395 . S
C4316 C4319 1.403 . S
H4317 C4323 0.930 . S
C4318 H4304 0.930 . S
C4318 C4316 1.395 . S
C4318 C4321 1.403 . S
C4319 C4316 1.403 . S
C4319 C4320 1.524 . S
C4319 C4323 1.400 . S
C4320 H4305 0.960 . S
C4320 H4306 0.960 . S
C4320 H4307 0.960 . S
C4320 C4319 1.524 . S
C4321 C4318 1.403 . S
C4321 C4322 1.392 . S
C4321 C4325 1.495 1_554 S
C4322 C4321 1.392 . S
C4322 C4323 1.385 . S
C4322 C4324 1.478 . S
C4323 H4317 0.930 . S
C4323 C4319 1.400 . S
C4323 C4322 1.385 . S
C4324 C4322 1.478 . S
C4324 C4326 1.381 1_554 S
C4324 C4330 1.383 . S
C4325 C4321 1.495 1_556 S
C4325 H4331 0.959 . S
C4325 H4332 0.961 1_556 S
C4325 H4333 0.960 . S
C4326 C4324 1.381 1_556 S
C4326 C4327 1.394 . S
C4326 H4334 0.930 . S
C4327 C4326 1.394 . S
C4327 C4328 1.383 1_556 S
C4327 H4335 0.929 . S
C4328 C4327 1.383 1_554 S
C4328 C4329 1.377 . S
C4329 H4313 0.930 . S
C4329 C4328 1.377 . S
C4329 C4330 1.379 . S
C4330 H4314 0.931 . S
C4330 C4324 1.383 . S
C4330 C4329 1.379 . S
H4331 C4325 0.959 . S
H4332 C4325 0.961 1_554 S
H4333 C4325 0.960 . S
H4334 C4326 0.930 . S
H4335 C4327 0.929 . S
H4336 C4344 0.929 . S
H4337 C4346 0.930 . S
H4338 C4348 0.930 . S
H4339 C4351 0.929 . S
H4340 C4354 0.930 . S
H4341 C4356 0.960 . S
H4342 C4356 0.960 . S
H4343 C4356 0.960 . S
C4344 H4336 0.929 . S
C4344 C4345 1.377 . S
C4344 C4346 1.384 . S
C4345 C4344 1.377 . S
C4345 C4351 1.390 . S
C4346 H4337 0.930 . S
C4346 C4344 1.384 . S
C4346 C4347 1.372 . S
C4347 C4346 1.372 . S
C4347 C4348 1.400 . S
C4347 C4352 1.490 . S
C4348 H4338 0.930 . S
C4348 C4347 1.400 . S
C4348 C4351 1.386 . S
H4349 C4365 0.930 . S
H4350 C4366 0.931 . S
C4351 H4339 0.929 . S
C4351 C4345 1.390 . S
C4351 C4348 1.386 . S
C4352 C4347 1.490 . S
C4352 C4354 1.395 . S
C4352 C4355 1.403 . S
H4353 C4359 0.930 . S
C4354 H4340 0.930 . S
C4354 C4352 1.395 . S
C4354 C4357 1.403 . S
C4355 C4352 1.403 . S
C4355 C4356 1.524 . S
C4355 C4359 1.400 . S
C4356 H4341 0.960 . S
C4356 H4342 0.960 . S
C4356 H4343 0.960 . S
C4356 C4355 1.524 . S
C4357 C4354 1.403 . S
C4357 C4358 1.392 . S
C4357 C4361 1.495 . S
C4358 C4357 1.392 . S
C4358 C4359 1.385 . S
C4358 C4360 1.478 . S
C4359 H4353 0.930 . S
C4359 C4355 1.400 . S
C4359 C4358 1.385 . S
C4360 C4358 1.478 . S
C4360 C4362 1.381 . S
C4360 C4366 1.383 . S
C4361 C4357 1.495 . S
C4361 H4367 0.959 . S
C4361 H4368 0.961 . S
C4361 H4369 0.960 . S
C4362 C4360 1.381 . S
C4362 C4363 1.394 . S
C4362 H4370 0.930 . S
C4363 C4362 1.394 . S
C4363 C4364 1.383 . S
C4363 H4371 0.929 . S
C4364 C4363 1.383 . S
C4364 C4365 1.377 . S
C4365 H4349 0.930 . S
C4365 C4364 1.377 . S
C4365 C4366 1.379 . S
C4366 H4350 0.931 . S
C4366 C4360 1.383 . S
C4366 C4365 1.379 . S
H4367 C4361 0.959 . S
H4368 C4361 0.961 . S
H4369 C4361 0.960 . S
H4370 C4362 0.930 . S
H4371 C4363 0.929 . S
H4372 C4380 0.929 . S
H4373 C4382 0.930 . S
H4374 C4384 0.930 . S
H4375 C4387 0.929 . S
H4376 C4390 0.930 . S
H4377 C4392 0.960 . S
H4378 C4392 0.960 . S
H4379 C4392 0.960 . S
C4380 H4372 0.929 . S
C4380 C4381 1.377 . S
C4380 C4382 1.384 . S
C4381 C4380 1.377 . S
C4381 C4387 1.390 . S
C4382 H4373 0.930 . S
C4382 C4380 1.384 . S
C4382 C4383 1.372 . S
C4383 C4382 1.372 . S
C4383 C4384 1.400 . S
C4383 C4388 1.490 . S
C4384 H4374 0.930 . S
C4384 C4383 1.400 . S
C4384 C4387 1.386 . S
H4385 C4401 0.930 . S
H4386 C4402 0.931 . S
C4387 H4375 0.929 . S
C4387 C4381 1.390 . S
C4387 C4384 1.386 . S
C4388 C4383 1.490 . S
C4388 C4390 1.395 . S
C4388 C4391 1.403 . S
H4389 C4395 0.930 . S
C4390 H4376 0.930 . S
C4390 C4388 1.395 . S
C4390 C4393 1.403 . S
C4391 C4388 1.403 . S
C4391 C4392 1.524 . S
C4391 C4395 1.400 . S
C4392 H4377 0.960 . S
C4392 H4378 0.960 . S
C4392 H4379 0.960 . S
C4392 C4391 1.524 . S
C4393 C4390 1.403 . S
C4393 C4394 1.392 . S
C4393 C4397 1.495 . S
C4394 C4393 1.392 . S
C4394 C4395 1.385 . S
C4394 C4396 1.478 . S
C4395 H4389 0.930 . S
C4395 C4391 1.400 . S
C4395 C4394 1.385 . S
C4396 C4394 1.478 . S
C4396 C4398 1.381 . S
C4396 C4402 1.383 . S
C4397 C4393 1.495 . S
C4397 H4403 0.959 . S
C4397 H4404 0.961 . S
C4397 H4405 0.960 . S
C4398 C4396 1.381 . S
C4398 C4399 1.394 . S
C4398 H4406 0.930 . S
C4399 C4398 1.394 . S
C4399 C4400 1.383 . S
C4399 H4407 0.929 . S
C4400 C4399 1.383 . S
C4400 C4401 1.377 . S
C4401 H4385 0.930 . S
C4401 C4400 1.377 . S
C4401 C4402 1.379 . S
C4402 H4386 0.931 . S
C4402 C4396 1.383 . S
C4402 C4401 1.379 . S
H4403 C4397 0.959 . S
H4404 C4397 0.961 . S
H4405 C4397 0.960 . S
H4406 C4398 0.930 . S
H4407 C4399 0.929 . S
C961 C101 1.903 . S
C980 C325 1.851 . S
C997 C57 1.918 . S
C1016 C376 1.930 . S
C1033 C70 1.209 . S
C1052 C405 1.206 . S
C1088 C449 1.491 . S
C1069 C82 1.507 . S
C1105 C23 1.366 . S
C1124 C489 1.309 . S
C1160 C525 1.278 . S
C1141 C29 1.285 . S
C1196 C575 1.637 . S
C1177 C49 1.619 . S
C1213 C10 2.088 . S
C1232 C605 2.056 . S
C1268 C335 1.673 . S
C1249 C218 1.708 . S
C1285 C226 0.456 . S
C1304 C378 0.451 . S
C1340 C415 1.123 . S
C1321 C251 1.112 . S
C1376 C445 1.135 . S
C1357 C159 1.168 . S
C1393 C211 1.230 . S
C1412 C485 1.202 . S
C1448 C535 0.794 . S
C1429 C225 0.783 . S
C1484 C569 0.680 . S
C1465 C252 0.681 . S
C1520 C615 1.664 . S
C1501 C166 1.695 . S
C1556 C329 1.063 . S
C1537 C147 1.085 . S
C1573 C263 1.566 . S
C1592 C655 1.585 . S
C1628 C689 1.425 . S
C1609 C309 1.468 . S
C1664 C725 0.739 . S
C1645 C291 0.784 . S
C1681 C108 1.339 . S
C1700 C609 1.308 . S
C1717 C121 1.534 . S
C1736 C409 1.497 . S
C1753 C302 1.484 . S
C1772 C775 1.503 . S
C1808 C794 0.366 . S
C1789 C276 0.163 . S
C1844 C336 2.172 1_565 S
C1825 C55 2.179 . S
C1880 C805 2.309 . S
C1861 C96 2.329 . S
C1897 C88 1.697 . S
C1916 C416 1.697 . S
C1933 C75 1.702 . S
C1952 C778 1.658 . S
C1988 C498 1.515 . S
C1969 C4 1.559 . S
C2005 C44 1.747 . S
C2024 C696 1.745 . S
C2060 C554 2.007 1_566 S
C2041 C31 2.005 . S
C2096 C856 2.316 . S
C2077 C18 2.347 . S
C2132 C314 2.031 1_556 S
C2113 C133 2.059 . S
C2168 C809 0.663 . S
C2149 C296 0.615 . S
C2185 C107 1.442 . S
C2204 C394 1.429 . S
C2221 C264 1.608 . S
C2240 C776 1.607 . S
C2257 C140 1.671 . S
C2276 C496 1.661 . S
C2312 C674 1.123 . S
C2293 C289 1.129 . S
C2329 C114 0.899 . S
C2348 C578 0.874 . S
C2365 C265 2.050 . S
C2384 C834 2.030 . S
C2401 C179 1.069 . S
C2420 C338 1.030 . S
C2437 C161 1.919 . S
C2456 C634 1.897 . S
C2473 C244 1.532 . S
C2492 C538 1.491 . S
C2509 C224 1.141 . S
C2528 C736 1.117 . S
C2564 C858 1.361 . S
C2545 C257 1.401 . S
C2581 C199 1.602 . S
C2600 C418 1.587 . S
C2636 C434 1.813 . S
C2617 C237 1.835 . S
C2672 C375 0.418 . S
C2653 C185 0.433 . S
C2689 C69 1.885 . S
C2708 C885 1.858 . S
C2744 C816 1.924 . S
C2725 C83 1.915 . S
C2761 C94 1.212 . S
C2780 C925 1.161 . S
C2797 C56 1.504 1_655 S
C2816 C769 1.449 . S
C2833 C42 1.378 . S
C2852 C649 1.313 . S
C2888 C685 1.277 . S
C2869 C3 1.285 . S
C2924 C735 1.641 . S
C2905 C16 1.626 . S
C2960 C845 2.023 . S
C2941 C36 2.090 . S
C2996 C895 1.694 . S
C2977 C238 1.709 . S
C3013 C174 0.474 . S
C3032 C818 0.614 . S
C3068 C935 1.128 . S
C3049 C186 1.114 . S
C3104 C765 1.166 . S
C3085 C198 1.165 . S
C3140 C645 1.216 . S
C3121 C239 1.229 . S
C3157 C173 0.786 . S
C3176 C695 0.763 . S
C3212 C729 0.696 . S
C3193 C187 0.685 . S
C3229 C205 1.694 . S
C3248 C855 1.681 . S
C3284 C889 1.036 . S
C3265 C290 1.091 . S
C3301 C122 1.567 . S
C3320 C495 1.582 . S
C3356 C529 1.414 . S
C3337 C134 1.469 1_565 S
C3392 C565 0.830 . S
C3373 C148 0.803 . S
C3428 C849 1.269 . S
C3409 C283 1.340 . S
C3445 C270 1.529 . S
C3464 C929 1.494 . S
C3500 C455 1.481 . S
C3481 C135 1.483 . S
C3536 C354 0.233 . S
C3517 C109 0.146 . S
C3553 C81 2.180 . S
C3572 C896 2.162 . S
C3608 C365 2.320 . S
C3589 C68 2.321 . S
C3625 C62 1.699 . S
C3644 C936 1.681 . S
C3661 C95 1.700 . S
C3680 C458 1.672 . S
C3697 C30 1.559 . S
C3716 C658 1.511 . S
C3752 C536 1.724 . S
C3733 C17 1.739 . S
C3769 C5 2.009 . S
C3788 C714 1.995 . S
C3805 C43 2.341 . S
C3824 C616 2.308 . S
C3860 C874 2.014 . S
C3841 C304 2.060 . S
C3877 C153 0.611 . S
C3896 C369 0.638 . S
C3932 C914 1.413 1_656 S
C3913 C278 1.444 . S
C3949 C127 1.605 . S
C3968 C456 1.605 . S
C3985 C303 1.667 . S
C4004 C656 1.654 . S
C4040 C514 1.111 . S
C4021 C146 1.135 . S
C4057 C277 0.897 . S
C4076 C738 0.921 . S
C4112 C594 2.027 . S
C4093 C120 2.048 . S
C4148 C898 1.053 . S
C4129 C231 1.070 . S
C4184 C474 1.889 1_665 S
C4165 C200 1.917 . S
C4201 C212 1.537 . S
C4220 C698 1.518 . S
C4256 C576 1.143 . S
C4237 C172 1.141 . S
C4273 C192 1.402 . S
C4292 C618 1.352 . S
C4309 C160 1.598 . S
C4328 C938 1.571 . S
C4364 C754 1.811 . S
C4345 C213 1.837 . S
C4400 C815 0.440 . S
C4381 C250 0.435 . S
