# Generated by pormake.
# Topology iac, (4,6)-cn, num edge types: 1
# Building blocks:
#     Node 0, Type 0, BuildingBlock: TATPOV_clean_sbu_0, # of connection points: 4
#     Node 1, Type 0, BuildingBlock: TATPOV_clean_sbu_0, # of connection points: 4
#     Node 2, Type 0, BuildingBlock: TATPOV_clean_sbu_0, # of connection points: 4
#     Node 3, Type 0, BuildingBlock: TATPOV_clean_sbu_0, # of connection points: 4
#     Node 4, Type 0, BuildingBlock: TATPOV_clean_sbu_0, # of connection points: 4
#     Node 5, Type 0, BuildingBlock: TATPOV_clean_sbu_0, # of connection points: 4
#     Node 6, Type 0, BuildingBlock: TATPOV_clean_sbu_0, # of connection points: 4
#     Node 7, Type 0, BuildingBlock: TATPOV_clean_sbu_0, # of connection points: 4
#     Node 8, Type 0, BuildingBlock: TATPOV_clean_sbu_0, # of connection points: 4
#     Node 9, Type 0, BuildingBlock: TATPOV_clean_sbu_0, # of connection points: 4
#     Node 10, Type 0, BuildingBlock: TATPOV_clean_sbu_0, # of connection points: 4
#     Node 11, Type 0, BuildingBlock: TATPOV_clean_sbu_0, # of connection points: 4
#     Node 12, Type 0, BuildingBlock: TATPOV_clean_sbu_0, # of connection points: 4
#     Node 13, Type 0, BuildingBlock: TATPOV_clean_sbu_0, # of connection points: 4
#     Node 14, Type 0, BuildingBlock: TATPOV_clean_sbu_0, # of connection points: 4
#     Node 15, Type 0, BuildingBlock: TATPOV_clean_sbu_0, # of connection points: 4
#     Node 16, Type 0, BuildingBlock: TATPOV_clean_sbu_0, # of connection points: 4
#     Node 17, Type 0, BuildingBlock: TATPOV_clean_sbu_0, # of connection points: 4
#     Node 18, Type 0, BuildingBlock: TATPOV_clean_sbu_0, # of connection points: 4
#     Node 19, Type 0, BuildingBlock: TATPOV_clean_sbu_0, # of connection points: 4
#     Node 20, Type 0, BuildingBlock: TATPOV_clean_sbu_0, # of connection points: 4
#     Node 21, Type 0, BuildingBlock: TATPOV_clean_sbu_0, # of connection points: 4
#     Node 22, Type 0, BuildingBlock: TATPOV_clean_sbu_0, # of connection points: 4
#     Node 23, Type 0, BuildingBlock: TATPOV_clean_sbu_0, # of connection points: 4
#     Node 24, Type 1, BuildingBlock: CIFDUS_clean_sbu_1, # of connection points: 6
#     Node 25, Type 1, BuildingBlock: CIFDUS_clean_sbu_1, # of connection points: 6
#     Node 26, Type 1, BuildingBlock: CIFDUS_clean_sbu_1, # of connection points: 6
#     Node 27, Type 1, BuildingBlock: CIFDUS_clean_sbu_1, # of connection points: 6
#     Node 28, Type 1, BuildingBlock: CIFDUS_clean_sbu_1, # of connection points: 6
#     Node 29, Type 1, BuildingBlock: CIFDUS_clean_sbu_1, # of connection points: 6
#     Node 30, Type 1, BuildingBlock: CIFDUS_clean_sbu_1, # of connection points: 6
#     Node 31, Type 1, BuildingBlock: CIFDUS_clean_sbu_1, # of connection points: 6
#     Node 32, Type 1, BuildingBlock: CIFDUS_clean_sbu_1, # of connection points: 6
#     Node 33, Type 1, BuildingBlock: CIFDUS_clean_sbu_1, # of connection points: 6
#     Node 34, Type 1, BuildingBlock: CIFDUS_clean_sbu_1, # of connection points: 6
#     Node 35, Type 1, BuildingBlock: CIFDUS_clean_sbu_1, # of connection points: 6
#     Node 36, Type 1, BuildingBlock: CIFDUS_clean_sbu_1, # of connection points: 6
#     Node 37, Type 1, BuildingBlock: CIFDUS_clean_sbu_1, # of connection points: 6
#     Node 38, Type 1, BuildingBlock: CIFDUS_clean_sbu_1, # of connection points: 6
#     Node 39, Type 1, BuildingBlock: CIFDUS_clean_sbu_1, # of connection points: 6
#     Edge 40, Type (0, 1), BuildingBlock: CIFDUS_clean_linker_0, # of connection points: 2
#     Edge 41, Type (0, 1), BuildingBlock: CIFDUS_clean_linker_0, # of connection points: 2
#     Edge 42, Type (0, 1), BuildingBlock: CIFDUS_clean_linker_0, # of connection points: 2
#     Edge 43, Type (0, 1), BuildingBlock: CIFDUS_clean_linker_0, # of connection points: 2
#     Edge 44, Type (0, 1), BuildingBlock: CIFDUS_clean_linker_0, # of connection points: 2
#     Edge 45, Type (0, 1), BuildingBlock: CIFDUS_clean_linker_0, # of connection points: 2
#     Edge 46, Type (0, 1), BuildingBlock: CIFDUS_clean_linker_0, # of connection points: 2
#     Edge 47, Type (0, 1), BuildingBlock: CIFDUS_clean_linker_0, # of connection points: 2
#     Edge 48, Type (0, 1), BuildingBlock: CIFDUS_clean_linker_0, # of connection points: 2
#     Edge 49, Type (0, 1), BuildingBlock: CIFDUS_clean_linker_0, # of connection points: 2
#     Edge 50, Type (0, 1), BuildingBlock: CIFDUS_clean_linker_0, # of connection points: 2
#     Edge 51, Type (0, 1), BuildingBlock: CIFDUS_clean_linker_0, # of connection points: 2
#     Edge 52, Type (0, 1), BuildingBlock: CIFDUS_clean_linker_0, # of connection points: 2
#     Edge 53, Type (0, 1), BuildingBlock: CIFDUS_clean_linker_0, # of connection points: 2
#     Edge 54, Type (0, 1), BuildingBlock: CIFDUS_clean_linker_0, # of connection points: 2
#     Edge 55, Type (0, 1), BuildingBlock: CIFDUS_clean_linker_0, # of connection points: 2
#     Edge 56, Type (0, 1), BuildingBlock: CIFDUS_clean_linker_0, # of connection points: 2
#     Edge 57, Type (0, 1), BuildingBlock: CIFDUS_clean_linker_0, # of connection points: 2
#     Edge 58, Type (0, 1), BuildingBlock: CIFDUS_clean_linker_0, # of connection points: 2
#     Edge 59, Type (0, 1), BuildingBlock: CIFDUS_clean_linker_0, # of connection points: 2
#     Edge 60, Type (0, 1), BuildingBlock: CIFDUS_clean_linker_0, # of connection points: 2
#     Edge 61, Type (0, 1), BuildingBlock: CIFDUS_clean_linker_0, # of connection points: 2
#     Edge 62, Type (0, 1), BuildingBlock: CIFDUS_clean_linker_0, # of connection points: 2
#     Edge 63, Type (0, 1), BuildingBlock: CIFDUS_clean_linker_0, # of connection points: 2
#     Edge 64, Type (0, 1), BuildingBlock: CIFDUS_clean_linker_0, # of connection points: 2
#     Edge 65, Type (0, 1), BuildingBlock: CIFDUS_clean_linker_0, # of connection points: 2
#     Edge 66, Type (0, 1), BuildingBlock: CIFDUS_clean_linker_0, # of connection points: 2
#     Edge 67, Type (0, 1), BuildingBlock: CIFDUS_clean_linker_0, # of connection points: 2
#     Edge 68, Type (0, 1), BuildingBlock: CIFDUS_clean_linker_0, # of connection points: 2
#     Edge 69, Type (0, 1), BuildingBlock: CIFDUS_clean_linker_0, # of connection points: 2
#     Edge 70, Type (0, 1), BuildingBlock: CIFDUS_clean_linker_0, # of connection points: 2
#     Edge 71, Type (0, 1), BuildingBlock: CIFDUS_clean_linker_0, # of connection points: 2
#     Edge 72, Type (0, 1), BuildingBlock: CIFDUS_clean_linker_0, # of connection points: 2
#     Edge 73, Type (0, 1), BuildingBlock: CIFDUS_clean_linker_0, # of connection points: 2
#     Edge 74, Type (0, 1), BuildingBlock: CIFDUS_clean_linker_0, # of connection points: 2
#     Edge 75, Type (0, 1), BuildingBlock: CIFDUS_clean_linker_0, # of connection points: 2
#     Edge 76, Type (0, 1), BuildingBlock: CIFDUS_clean_linker_0, # of connection points: 2
#     Edge 77, Type (0, 1), BuildingBlock: CIFDUS_clean_linker_0, # of connection points: 2
#     Edge 78, Type (0, 1), BuildingBlock: CIFDUS_clean_linker_0, # of connection points: 2
#     Edge 79, Type (0, 1), BuildingBlock: CIFDUS_clean_linker_0, # of connection points: 2
#     Edge 80, Type (0, 1), BuildingBlock: CIFDUS_clean_linker_0, # of connection points: 2
#     Edge 81, Type (0, 1), BuildingBlock: CIFDUS_clean_linker_0, # of connection points: 2
#     Edge 82, Type (0, 1), BuildingBlock: CIFDUS_clean_linker_0, # of connection points: 2
#     Edge 83, Type (0, 1), BuildingBlock: CIFDUS_clean_linker_0, # of connection points: 2
#     Edge 84, Type (0, 1), BuildingBlock: CIFDUS_clean_linker_0, # of connection points: 2
#     Edge 85, Type (0, 1), BuildingBlock: CIFDUS_clean_linker_0, # of connection points: 2
#     Edge 86, Type (0, 1), BuildingBlock: CIFDUS_clean_linker_0, # of connection points: 2
#     Edge 87, Type (0, 1), BuildingBlock: CIFDUS_clean_linker_0, # of connection points: 2
#     Edge 88, Type (0, 1), BuildingBlock: CIFDUS_clean_linker_0, # of connection points: 2
#     Edge 89, Type (0, 1), BuildingBlock: CIFDUS_clean_linker_0, # of connection points: 2
#     Edge 90, Type (0, 1), BuildingBlock: CIFDUS_clean_linker_0, # of connection points: 2
#     Edge 91, Type (0, 1), BuildingBlock: CIFDUS_clean_linker_0, # of connection points: 2
#     Edge 92, Type (0, 1), BuildingBlock: CIFDUS_clean_linker_0, # of connection points: 2
#     Edge 93, Type (0, 1), BuildingBlock: CIFDUS_clean_linker_0, # of connection points: 2
#     Edge 94, Type (0, 1), BuildingBlock: CIFDUS_clean_linker_0, # of connection points: 2
#     Edge 95, Type (0, 1), BuildingBlock: CIFDUS_clean_linker_0, # of connection points: 2
#     Edge 96, Type (0, 1), BuildingBlock: CIFDUS_clean_linker_0, # of connection points: 2
#     Edge 97, Type (0, 1), BuildingBlock: CIFDUS_clean_linker_0, # of connection points: 2
#     Edge 98, Type (0, 1), BuildingBlock: CIFDUS_clean_linker_0, # of connection points: 2
#     Edge 99, Type (0, 1), BuildingBlock: CIFDUS_clean_linker_0, # of connection points: 2
#     Edge 100, Type (0, 1), BuildingBlock: CIFDUS_clean_linker_0, # of connection points: 2
#     Edge 101, Type (0, 1), BuildingBlock: CIFDUS_clean_linker_0, # of connection points: 2
#     Edge 102, Type (0, 1), BuildingBlock: CIFDUS_clean_linker_0, # of connection points: 2
#     Edge 103, Type (0, 1), BuildingBlock: CIFDUS_clean_linker_0, # of connection points: 2
#     Edge 104, Type (0, 1), BuildingBlock: CIFDUS_clean_linker_0, # of connection points: 2
#     Edge 105, Type (0, 1), BuildingBlock: CIFDUS_clean_linker_0, # of connection points: 2
#     Edge 106, Type (0, 1), BuildingBlock: CIFDUS_clean_linker_0, # of connection points: 2
#     Edge 107, Type (0, 1), BuildingBlock: CIFDUS_clean_linker_0, # of connection points: 2
#     Edge 108, Type (0, 1), BuildingBlock: CIFDUS_clean_linker_0, # of connection points: 2
#     Edge 109, Type (0, 1), BuildingBlock: CIFDUS_clean_linker_0, # of connection points: 2
#     Edge 110, Type (0, 1), BuildingBlock: CIFDUS_clean_linker_0, # of connection points: 2
#     Edge 111, Type (0, 1), BuildingBlock: CIFDUS_clean_linker_0, # of connection points: 2
#     Edge 112, Type (0, 1), BuildingBlock: CIFDUS_clean_linker_0, # of connection points: 2
#     Edge 113, Type (0, 1), BuildingBlock: CIFDUS_clean_linker_0, # of connection points: 2
#     Edge 114, Type (0, 1), BuildingBlock: CIFDUS_clean_linker_0, # of connection points: 2
#     Edge 115, Type (0, 1), BuildingBlock: CIFDUS_clean_linker_0, # of connection points: 2
#     Edge 116, Type (0, 1), BuildingBlock: CIFDUS_clean_linker_0, # of connection points: 2
#     Edge 117, Type (0, 1), BuildingBlock: CIFDUS_clean_linker_0, # of connection points: 2
#     Edge 118, Type (0, 1), BuildingBlock: CIFDUS_clean_linker_0, # of connection points: 2
#     Edge 119, Type (0, 1), BuildingBlock: CIFDUS_clean_linker_0, # of connection points: 2
#     Edge 120, Type (0, 1), BuildingBlock: CIFDUS_clean_linker_0, # of connection points: 2
#     Edge 121, Type (0, 1), BuildingBlock: CIFDUS_clean_linker_0, # of connection points: 2
#     Edge 122, Type (0, 1), BuildingBlock: CIFDUS_clean_linker_0, # of connection points: 2
#     Edge 123, Type (0, 1), BuildingBlock: CIFDUS_clean_linker_0, # of connection points: 2
#     Edge 124, Type (0, 1), BuildingBlock: CIFDUS_clean_linker_0, # of connection points: 2
#     Edge 125, Type (0, 1), BuildingBlock: CIFDUS_clean_linker_0, # of connection points: 2
#     Edge 126, Type (0, 1), BuildingBlock: CIFDUS_clean_linker_0, # of connection points: 2
#     Edge 127, Type (0, 1), BuildingBlock: CIFDUS_clean_linker_0, # of connection points: 2
#     Edge 128, Type (0, 1), BuildingBlock: CIFDUS_clean_linker_0, # of connection points: 2
#     Edge 129, Type (0, 1), BuildingBlock: CIFDUS_clean_linker_0, # of connection points: 2
#     Edge 130, Type (0, 1), BuildingBlock: CIFDUS_clean_linker_0, # of connection points: 2
#     Edge 131, Type (0, 1), BuildingBlock: CIFDUS_clean_linker_0, # of connection points: 2
#     Edge 132, Type (0, 1), BuildingBlock: CIFDUS_clean_linker_0, # of connection points: 2
#     Edge 133, Type (0, 1), BuildingBlock: CIFDUS_clean_linker_0, # of connection points: 2
#     Edge 134, Type (0, 1), BuildingBlock: CIFDUS_clean_linker_0, # of connection points: 2
#     Edge 135, Type (0, 1), BuildingBlock: CIFDUS_clean_linker_0, # of connection points: 2
# Relax obj value: 0.111
# Max RMSD: 0.176
# Mean RMSD: 0.129
data_MOF--net-iac--node1-TATPOV_clean_sbu_0--node2-CIFDUS_clean_sbu_1--edge1-CIFDUS_clean_linker_0
_symmetry_space_group_name_H-M    P1
_symmetry_Int_Tables_number       1
_symmetry_cell_setting            triclinic
loop_
_symmetry_equiv_pos_as_xyz
'x, y, z'
_cell_length_a     47.397926
_cell_length_b     47.181477
_cell_length_c     47.930141
_cell_angle_alpha  90.296742
_cell_angle_beta   90.507229
_cell_angle_gamma 91.829645
loop_
_atom_site_label
_atom_site_type_symbol
_atom_site_fract_x
_atom_site_fract_y
_atom_site_fract_z
_atom_type_partial_charge
Zn0 Zn 0.05126 0.25964 0.0978 0.0
Zn1 Zn 0.00095 0.25088 0.12197 0.0
O2 O 0.99632 0.28608 0.09838 0.0
O3 O 0.03926 0.2984 0.08508 0.0
O4 O 0.96215 0.24779 0.13795 0.0
O5 O 0.04379 0.22462 0.07399 0.0
O6 O 0.00666 0.21417 0.09988 0.0
C7 C 0.01323 0.30333 0.08647 0.0
C8 C 0.05333 0.25296 0.15808 0.0
O9 O 0.02659 0.25411 0.15663 0.0
O10 O 0.06808 0.25376 0.13617 0.0
C11 C 0.95105 0.2702 0.14714 0.0
O12 O 0.96579 0.29426 0.147 0.0
C13 C 0.02408 0.20741 0.08101 0.0
Zn14 Zn 0.98533 0.75379 0.41924 0.0
Zn15 Zn 0.01084 0.74835 0.36892 0.0
O16 O 0.02782 0.78623 0.38196 0.0
O17 O 0.00951 0.78945 0.42391 0.0
O18 O 0.03068 0.74069 0.33316 0.0
O19 O -0.00093 0.71642 0.43224 0.0
O20 O 0.01934 0.71283 0.39135 0.0
C21 C 0.02494 0.79962 0.40472 0.0
C22 C 0.94801 0.75855 0.37205 0.0
O23 O 0.97048 0.75474 0.35842 0.0
O24 O 0.94795 0.75749 0.39846 0.0
C25 C 0.038 0.76074 0.31699 0.0
O26 O 0.02934 0.78639 0.32217 0.0
C27 C 0.01392 0.70276 0.41536 0.0
Zn28 Zn 0.48563 0.71346 0.66397 0.0
Zn29 Zn 0.49306 0.7572 0.62623 0.0
O30 O 0.45512 0.76423 0.64254 0.0
O31 O 0.44814 0.73074 0.67378 0.0
O32 O 0.49849 0.79372 0.60623 0.0
O33 O 0.52126 0.72525 0.68541 0.0
O34 O 0.52609 0.75816 0.65329 0.0
C35 C 0.44009 0.75259 0.66112 0.0
C36 C 0.49379 0.69829 0.60389 0.0
O37 O 0.49464 0.72471 0.59853 0.0
O38 O 0.49005 0.68968 0.62869 0.0
C39 C 0.47828 0.80523 0.59343 0.0
O40 O 0.45456 0.79079 0.58866 0.0
C41 C 0.53528 0.74578 0.67492 0.0
Zn42 Zn 0.46905 0.25408 0.91866 0.0
Zn43 Zn 0.50809 0.24933 0.87728 0.0
O44 O 0.51415 0.29122 0.88666 0.0
O45 O 0.48113 0.29543 0.91849 0.0
O46 O 0.53491 0.24182 0.84634 0.0
O47 O 0.48786 0.22381 0.94108 0.0
O48 O 0.51766 0.21956 0.90647 0.0
C49 C 0.49999 0.30643 0.90299 0.0
C50 C 0.44492 0.24045 0.86546 0.0
O51 O 0.47055 0.24239 0.85798 0.0
O52 O 0.43838 0.2433 0.89086 0.0
C53 C 0.54161 0.25928 0.8272 0.0
O54 O 0.5316 0.28492 0.82754 0.0
C55 C 0.50837 0.2115 0.93009 0.0
Zn56 Zn 0.08017 0.03641 0.26463 0.0
Zn57 Zn 0.12362 0.0022 0.25469 0.0
O58 O 0.11521 0.9935 0.29561 0.0
O59 O 0.07655 0.01735 0.30193 0.0
O60 O 0.14925 0.9704 0.24472 0.0
O61 O 0.05626 0.02207 0.2328 0.0
O62 O 0.09126 0.99327 0.22641 0.0
C63 C 0.09462 0.00027 0.31071 0.0
C64 C 0.13386 0.06607 0.25097 0.0
O65 O 0.14392 0.04135 0.24848 0.0
O66 O 0.10836 0.06873 0.25806 0.0
C67 C 0.16273 0.95483 0.26154 0.0
O68 O 0.16541 0.96226 0.2879 0.0
C69 C 0.06692 0.0019 0.21954 0.0
Zn70 Zn 0.28585 0.83304 0.48849 0.0
Zn71 Zn 0.243 0.86643 0.49762 0.0
O72 O 0.23298 0.85457 0.45798 0.0
O73 O 0.273 0.83402 0.44858 0.0
O74 O 0.20989 0.88791 0.51053 0.0
O75 O 0.27442 0.80189 0.51523 0.0
O76 O 0.24586 0.83568 0.52712 0.0
C77 C 0.24964 0.84364 0.44068 0.0
C78 C 0.30192 0.89072 0.50119 0.0
O79 O 0.27577 0.89496 0.49782 0.0
O80 O 0.311 0.86575 0.50156 0.0
C81 C 0.20139 0.91004 0.49855 0.0
O82 O 0.21503 0.91993 0.47674 0.0
C83 C 0.25689 0.81191 0.53202 0.0
Zn84 Zn 0.42095 0.96088 0.73689 0.0
Zn85 Zn 0.39007 0.00283 0.73489 0.0
O86 O 0.40071 0.00147 0.77637 0.0
O87 O 0.42032 0.96004 0.77856 0.0
O88 O 0.36837 0.0387 0.73447 0.0
O89 O 0.45307 0.97746 0.71564 0.0
O90 O 0.42186 0.00936 0.70545 0.0
C91 C 0.41069 0.98146 0.79072 0.0
C92 C 0.36722 0.94504 0.71708 0.0
O93 O 0.36219 0.97007 0.72539 0.0
O94 O 0.39232 0.93681 0.71635 0.0
C95 C 0.34296 0.04185 0.74198 0.0
O96 O 0.32702 0.01961 0.74844 0.0
C97 C 0.4457 -0.00174 0.70111 0.0
Zn98 Zn 0.22835 0.17068 0.98184 0.0
Zn99 Zn 0.26492 0.13394 -0.00453 0.0
O100 O 0.28126 0.15401 0.96023 0.0
O101 O 0.25141 0.1876 0.95143 0.0
O102 O 0.29628 0.10639 0.00161 0.0
O103 O 0.23036 0.18727 0.01984 0.0
O104 O 0.2625 0.15735 0.03293 0.0
C105 C 0.27396 0.17526 0.94594 0.0
C106 C 0.20303 0.11573 0.98061 0.0
O107 O 0.22785 0.10947 0.9888 0.0
O108 O 0.19779 0.14111 0.97456 0.0
C109 C 0.30105 0.08789 0.98294 0.0
O110 O 0.28372 0.08512 0.96148 0.0
C111 C 0.24627 0.17768 0.03864 0.0
Zn112 Zn 0.78472 0.35042 0.00526 0.0
Zn113 Zn 0.74353 0.38134 -0.00123 0.0
O114 O 0.74704 0.36396 0.95971 0.0
O115 O 0.78934 0.34648 0.96408 0.0
O116 O 0.70794 0.40378 -0.00257 0.0
O117 O 0.76536 0.32003 0.02724 0.0
O118 O 0.73313 0.35228 0.02953 0.0
C119 C 0.76848 0.35263 0.94894 0.0
C120 C 0.80124 0.40543 0.0171 0.0
O121 O 0.77713 0.40949 0.00605 0.0
O122 O 0.80773 0.3807 0.02421 0.0
C123 C 0.70388 0.42965 0.99175 0.0
O124 O 0.72535 0.44638 0.98485 0.0
C125 C 0.74251 0.32847 0.03719 0.0
Zn126 Zn 0.93213 0.47074 0.24323 0.0
Zn127 Zn 0.89415 0.50919 0.24117 0.0
O128 O 0.89761 0.50731 0.28377 0.0
O129 O 0.92386 0.46957 0.28417 0.0
O130 O 0.86884 0.54171 0.23248 0.0
O131 O 0.96401 0.49343 0.22653 0.0
O132 O 0.92889 0.52144 0.21828 0.0
C133 C 0.90885 0.48712 0.29691 0.0
C134 C 0.88258 0.44855 0.21928 0.0
O135 O 0.87393 0.4724 0.22787 0.0
O136 O 0.90869 0.44372 0.21944 0.0
C137 C 0.84768 0.55073 0.24558 0.0
O138 O 0.83864 0.53713 0.26779 0.0
C139 C 0.95446 0.51493 0.21452 0.0
Zn140 Zn 0.72069 0.672 0.48803 0.0
Zn141 Zn 0.75803 0.63449 0.49536 0.0
O142 O 0.7703 0.65706 0.46074 0.0
O143 O 0.74386 0.69427 0.46028 0.0
O144 O 0.7924 0.61158 0.49997 0.0
O145 O 0.72053 0.68233 0.52834 0.0
O146 O 0.75562 0.65357 0.53454 0.0
C147 C 0.76394 0.68066 0.45015 0.0
C148 C 0.6989 0.6147 0.47906 0.0
O149 O 0.7235 0.60802 0.48734 0.0
O150 O 0.69321 0.64056 0.47582 0.0
C151 C 0.80438 0.59776 0.48084 0.0
O152 O 0.79189 0.59388 0.45649 0.0
C153 C 0.73833 0.67115 0.54431 0.0
Zn154 Zn 0.58707 0.53626 0.76413 0.0
Zn155 Zn 0.62238 0.49287 0.75573 0.0
O156 O 0.60666 0.48315 0.7942 0.0
O157 O 0.57595 0.51677 0.79996 0.0
O158 O 0.64589 0.45867 0.74783 0.0
O159 O 0.56506 0.52667 0.72951 0.0
O160 O 0.59222 0.48996 0.7242 0.0
C161 C 0.58737 0.49439 0.80825 0.0
C162 C 0.6449 0.55539 0.75606 0.0
O163 O 0.64928 0.52884 0.75379 0.0
O164 O 0.62035 0.56376 0.76119 0.0
C165 C 0.65746 0.4434 0.76629 0.0
O166 O 0.65687 0.45119 0.79262 0.0
C167 C 0.57146 0.50459 0.71625 0.0
Zn168 Zn 0.96972 0.7468 0.90675 0.0
Zn169 Zn 0.01345 0.75074 0.87174 0.0
O170 O 0.01354 0.78914 0.8915 0.0
O171 O 0.97775 0.78667 0.9204 0.0
O172 O 0.05043 0.75064 0.85351 0.0
O173 O 0.98687 0.71307 0.92642 0.0
O174 O 0.01803 0.7144 0.89285 0.0
C175 C -0.00197 0.80069 0.90958 0.0
C176 C 0.95724 0.74436 0.84556 0.0
O177 O 0.98358 0.74767 0.84156 0.0
O178 O 0.94732 0.74266 0.87004 0.0
C179 C 0.07175 0.74915 0.86969 0.0
O180 O 0.06853 0.75126 0.89681 0.0
C181 C 0.00773 0.7026 0.91424 0.0
Zn182 Zn 0.03795 0.26284 0.59038 0.0
Zn183 Zn 0.99662 0.24301 0.62427 0.0
O184 O 0.9805 0.27812 0.60529 0.0
O185 O 0.01243 0.29136 0.57446 0.0
O186 O 0.9638 0.22839 0.64717 0.0
O187 O 0.04092 0.22491 0.57294 0.0
O188 O 0.00662 0.209 0.60001 0.0
C189 C 0.9886 0.2943 0.58555 0.0
C190 C 0.05311 0.26196 0.64871 0.0
O191 O 0.02841 0.25131 0.65197 0.0
O192 O 0.06141 0.26998 0.62488 0.0
C193 C 0.96106 0.23428 0.67291 0.0
O194 O 0.98082 0.24974 0.68566 0.0
C195 C 0.02512 0.20472 0.58145 0.0
Zn196 Zn 0.47035 0.24691 0.40473 0.0
Zn197 Zn 0.51446 0.2501 0.36951 0.0
O198 O 0.51528 0.2883 0.39058 0.0
O199 O 0.4797 0.28595 0.41983 0.0
O200 O 0.5501 0.25134 0.348 0.0
O201 O 0.48679 0.21159 0.42216 0.0
O202 O 0.5205 0.21357 0.39091 0.0
C203 C 0.50017 0.29977 0.40913 0.0
C204 C 0.45637 0.24695 0.34459 0.0
O205 O 0.48283 0.24784 0.34046 0.0
O206 O 0.44657 0.24588 0.36912 0.0
C207 C 0.55546 0.23133 0.33122 0.0
O208 O 0.53626 0.21121 0.3262 0.0
C209 C 0.50858 0.2014 0.41139 0.0
Zn210 Zn 0.51212 0.71395 0.17935 0.0
Zn211 Zn 0.50066 0.74828 0.13423 0.0
O212 O 0.46854 0.7495 0.16214 0.0
O213 O 0.47663 0.7238 0.19935 0.0
O214 O 0.48642 0.77281 0.10333 0.0
O215 O 0.54751 0.73906 0.18138 0.0
O216 O 0.53796 0.76677 0.14574 0.0
C217 C 0.46092 0.74012 0.18588 0.0
C218 C 0.51169 0.68533 0.12639 0.0
O219 O 0.50767 0.71007 0.11699 0.0
O220 O 0.51237 0.68068 0.15239 0.0
C221 C 0.50041 0.7811 0.08222 0.0
O222 O 0.52617 0.77228 0.07876 0.0
C223 C 0.55422 0.75945 0.16538 0.0
Zn224 Zn 0.9277 0.97142 0.73857 0.0
Zn225 Zn 0.8876 0.01051 0.74032 0.0
O226 O 0.91338 0.01711 0.77495 0.0
O227 O 0.94444 0.98344 0.77535 0.0
O228 O 0.86101 0.04374 0.74306 0.0
O229 O 0.9428 0.98976 0.70388 0.0
O230 O 0.90624 0.0174 0.70196 0.0
C231 C 0.93417 0.00509 0.78651 0.0
C232 C 0.87086 0.94681 0.74103 0.0
O233 O 0.86367 0.97267 0.74313 0.0
O234 O 0.89651 0.94106 0.73737 0.0
C235 C 0.87234 0.06802 0.7487 0.0
O236 O 0.89984 0.07018 0.75229 0.0
C237 C 0.929 0.00856 0.69155 0.0
Zn238 Zn 0.71628 0.1759 0.48887 0.0
Zn239 Zn 0.75523 0.13718 0.49097 0.0
O240 O 0.76878 0.16643 0.46187 0.0
O241 O 0.73997 0.20187 0.46555 0.0
O242 O 0.785 0.10773 0.49076 0.0
O243 O 0.71858 0.17738 0.5308 0.0
O244 O 0.75583 0.15072 0.53116 0.0
C245 C 0.76151 0.19123 0.45485 0.0
C246 C 0.69441 0.12272 0.47284 0.0
O247 O 0.71836 0.11558 0.48215 0.0
O248 O 0.68869 0.14855 0.47036 0.0
C249 C 0.78322 0.08406 0.47795 0.0
O250 O 0.76045 0.07739 0.4632 0.0
C251 C 0.73815 0.16553 0.54407 0.0
Zn252 Zn 0.58282 0.04576 0.25785 0.0
Zn253 Zn 0.61036 0.0028 0.24948 0.0
O254 O 0.58126 0.99281 0.28074 0.0
O255 O 0.55166 0.02763 0.27892 0.0
O256 O 0.63312 0.96753 0.24465 0.0
O257 O 0.57831 0.05305 0.21736 0.0
O258 O 0.59427 0.01038 0.21037 0.0
C259 C 0.55848 0.00403 0.28877 0.0
C260 C 0.63802 0.05824 0.2704 0.0
O261 O 0.63988 0.03424 0.25838 0.0
O262 O 0.61412 0.06662 0.2777 0.0
C263 C 0.64809 0.95818 0.26453 0.0
O264 O 0.64842 0.97161 0.28863 0.0
C265 C 0.58396 0.03308 0.20088 0.0
Zn266 Zn 0.76882 0.82883 0.00864 0.0
Zn267 Zn 0.73172 0.86793 0.01817 0.0
O268 O 0.72618 0.85688 0.97631 0.0
O269 O 0.75641 0.82319 0.96904 0.0
O270 O 0.69679 0.89013 0.02395 0.0
O271 O 0.75359 0.80317 0.03873 0.0
O272 O 0.72628 0.83826 0.04936 0.0
C273 C 0.73742 0.83907 0.9601 0.0
C274 C 0.79319 0.88551 0.02285 0.0
O275 O 0.76763 0.89322 0.02436 0.0
O276 O 0.79844 0.8599 0.01724 0.0
C277 C 0.69161 0.91528 0.03136 0.0
O278 O 0.71254 0.93343 0.0369 0.0
C279 C 0.7354 0.81372 0.05452 0.0
Zn280 Zn 0.20809 0.67469 0.98335 0.0
Zn281 Zn 0.24989 0.64499 -0.00426 0.0
O282 O 0.26293 0.67624 0.96836 0.0
O283 O 0.22947 0.70716 0.96651 0.0
O284 O 0.28637 0.62486 0.00124 0.0
O285 O 0.19675 0.67508 0.02337 0.0
O286 O 0.23736 0.65681 0.03476 0.0
C287 C 0.25388 0.69983 0.95978 0.0
C288 C 0.19824 0.61921 0.96603 0.0
O289 O 0.22031 0.61621 0.98096 0.0
O290 O 0.19089 0.64378 0.95924 0.0
C291 C 0.29295 0.60178 0.98952 0.0
O292 O 0.27396 0.5876 0.97443 0.0
C293 C 0.21372 0.66667 0.04184 0.0
Zn294 Zn 0.08946 0.52617 0.73108 0.0
Zn295 Zn 0.1343 0.49209 0.74011 0.0
O296 O 0.11157 0.49384 0.77632 0.0
O297 O 0.07463 0.52032 0.76989 0.0
O298 O 0.16493 0.46545 0.74865 0.0
O299 O 0.07819 0.49903 0.70019 0.0
O300 O 0.11617 0.47379 0.7057 0.0
C301 C 0.08941 0.50517 0.78561 0.0
C302 C 0.1458 0.55288 0.72512 0.0
O303 O 0.15492 0.52861 0.73103 0.0
O304 O 0.11949 0.55704 0.72418 0.0
C305 C 0.1797 0.46517 0.77087 0.0
O306 O 0.17548 0.48399 0.79058 0.0
C307 C 0.0934 0.47877 0.69284 0.0
Zn308 Zn 0.26451 0.33655 0.51031 0.0
Zn309 Zn 0.22583 0.37565 0.51319 0.0
O310 O 0.22181 0.35931 0.47269 0.0
O311 O 0.25491 0.32764 0.47046 0.0
O312 O 0.19163 0.4 0.51501 0.0
O313 O 0.24567 0.31344 0.54028 0.0
O314 O 0.21748 0.34901 0.5465 0.0
C315 C 0.23509 0.34075 0.45905 0.0
C316 C 0.28784 0.39349 0.52149 0.0
O317 O 0.26217 0.40075 0.51893 0.0
O318 O 0.29389 0.36756 0.51966 0.0
C319 C 0.18672 0.42285 0.528 0.0
O320 O 0.20699 0.43595 0.54238 0.0
C321 C 0.22603 0.32476 0.55359 0.0
Zn322 Zn 0.41929 0.46306 0.23552 0.0
Zn323 Zn 0.38551 0.50861 0.23648 0.0
O324 O 0.41323 0.51175 0.27 0.0
O325 O 0.43935 0.47398 0.27076 0.0
O326 O 0.36522 0.54567 0.24039 0.0
O327 O 0.4348 0.47846 0.19964 0.0
O328 O 0.4042 0.51269 0.19814 0.0
C329 C 0.43259 0.49737 0.2813 0.0
C330 C 0.35929 0.44844 0.24025 0.0
O331 O 0.35604 0.47525 0.23994 0.0
O332 O 0.3837 0.43858 0.23772 0.0
C333 C 0.34513 0.55599 0.22628 0.0
O334 O 0.33287 0.54085 0.20625 0.0
C335 C 0.42462 0.49965 0.18752 0.0
O336 O 0.0357 0.02638 0.00073 0.0
Mn337 Mn -0.00253 0.00207 0.00492 0.0
O338 O 0.07096 0.99655 0.00872 0.0
Mn339 Mn 0.04866 0.9661 0.01973 0.0
O340 O 0.95919 0.97786 0.00859 0.0
O341 O 0.97695 0.03793 0.01129 0.0
Mn342 Mn 0.94526 0.0383 0.99206 0.0
O343 O 0.99114 0.00511 0.96176 0.0
O344 O 0.9235 0.00821 0.00535 0.0
O345 O 0.00326 -0.00078 0.04834 0.0
O346 O 0.03594 0.96664 0.05591 0.0
O347 O 0.94771 0.07236 0.01121 0.0
O348 O 0.95617 0.03571 0.95516 0.0
C349 C 0.02606 0.94171 0.98933 0.0
C350 C 0.06222 0.02076 0.00176 0.0
C351 C 0.93268 0.98352 0.0097 0.0
C352 C 0.9712 0.06272 0.02054 0.0
C353 C 0.97523 0.01976 0.94582 0.0
C354 C 0.01743 0.98337 0.06475 0.0
O355 O 0.0183 0.96608 -0.00161 0.0
O356 O 0.04932 0.9328 -0.0 0.0
O357 O 0.28812 0.7568 0.22603 0.0
Mn358 Mn 0.24794 0.75241 0.24275 0.0
O359 O 0.28269 0.77961 0.18516 0.0
Mn360 Mn 0.24367 0.78134 0.18551 0.0
O361 O 0.20793 0.74892 0.25924 0.0
O362 O 0.25982 0.71866 0.26503 0.0
Mn363 Mn 0.25178 0.724 0.30044 0.0
O364 O 0.25919 0.78084 0.27452 0.0
O365 O 0.21281 0.72931 0.30179 0.0
O366 O 0.23612 0.72358 0.21144 0.0
O367 O 0.22357 0.74909 0.1743 0.0
O368 O 0.26754 0.68877 0.29831 0.0
O369 O 0.27381 0.75537 0.31072 0.0
C370 C 0.22508 0.81019 0.21382 0.0
C371 C 0.29811 0.76833 0.20379 0.0
C372 C 0.1979 0.74029 0.28252 0.0
C373 C 0.26949 0.69438 0.272 0.0
C374 C 0.27048 0.77904 0.29876 0.0
C375 C 0.22488 0.72567 0.18721 0.0
O376 O 0.23537 0.78617 0.22083 0.0
O377 O 0.22645 0.81563 0.18742 0.0
O378 O 0.46426 0.98198 0.49476 0.0
Mn379 Mn 0.50425 0.00153 0.49476 0.0
O380 O 0.43222 0.01601 0.48985 0.0
Mn381 Mn 0.4575 0.0461 0.49558 0.0
O382 O 0.54385 0.02202 0.49546 0.0
O383 O 0.51959 0.96597 0.51073 0.0
Mn384 Mn 0.55343 0.95998 0.49787 0.0
O385 O 0.51192 0.98627 0.45469 0.0
O386 O 0.57527 0.99059 0.51006 0.0
O387 O 0.49731 0.01614 0.53515 0.0
O388 O 0.46775 0.05238 0.53271 0.0
O389 O 0.545 0.92991 0.52094 0.0
O390 O 0.54804 0.9565 0.4595 0.0
C391 C 0.48642 0.05938 0.46376 0.0
C392 C 0.43871 0.99015 0.49247 0.0
C393 C 0.56841 0.01575 0.50449 0.0
C394 C 0.52119 0.94224 0.52368 0.0
C395 C 0.52973 0.96895 0.44455 0.0
C396 C 0.48368 0.03619 0.54659 0.0
O397 O 0.48867 0.0368 0.47848 0.0
O398 O 0.46412 0.07353 0.46899 0.0
O399 O 0.2907 0.25791 0.771 0.0
Mn400 Mn 0.25124 0.25038 0.75355 0.0
O401 O 0.32302 0.25697 0.73699 0.0
Mn402 Mn 0.29883 0.24005 0.7107 0.0
O403 O 0.2114 0.24307 0.73705 0.0
O404 O 0.23639 0.24465 0.79137 0.0
Mn405 Mn 0.2057 0.26276 0.79885 0.0
O406 O 0.24349 0.29368 0.75601 0.0
O407 O 0.18017 0.24889 0.77183 0.0
O408 O 0.25926 0.20699 0.75152 0.0
O409 O 0.29128 0.20199 0.71732 0.0
O410 O 0.21586 0.24283 0.8309 0.0
O411 O 0.21703 0.3005 0.79427 0.0
C412 C 0.26738 0.26387 0.68953 0.0
C413 C 0.31613 0.26066 0.76241 0.0
C414 C 0.18611 0.24299 0.74646 0.0
C415 C 0.23683 0.23486 0.81607 0.0
C416 C 0.23146 0.30988 0.77371 0.0
C417 C 0.27517 0.19182 0.73626 0.0
O418 O 0.26625 0.2561 0.71515 0.0
O419 O 0.28992 0.25637 0.67679 0.0
O420 O 0.98487 0.96234 0.46499 0.0
Mn421 Mn 0.99181 0.9963 0.49198 0.0
O422 O 0.9816 0.92285 0.49118 0.0
Mn423 Mn 0.99443 0.93912 0.52449 0.0
O424 O 0.00033 0.03068 0.51848 0.0
O425 O 0.00224 0.01895 0.45922 0.0
Mn426 Mn 0.98939 0.05307 0.45826 0.0
O427 O 0.95027 0.00865 0.48835 0.0
O428 O 0.0063 0.06851 0.49001 0.0
O429 O 0.03349 0.98428 0.49623 0.0
O430 O 0.03325 0.94665 0.52514 0.0
O431 O 0.00996 0.04762 0.42556 0.0
O432 O 0.9504 0.04735 0.4607 0.0
C433 C 0.96851 0.96801 0.54745 0.0
C434 C 0.98177 0.93545 0.46763 0.0
C435 C 0.00758 0.05672 0.51394 0.0
C436 C 0.01409 0.02281 0.4358 0.0
C437 C 0.93769 0.02851 0.47549 0.0
C438 C 0.04625 0.96545 0.51048 0.0
O439 O 0.98059 0.973 0.52425 0.0
O440 O 0.97252 0.9427 0.55653 0.0
O441 O 0.26454 0.80097 0.75161 0.0
Mn442 Mn 0.24687 0.76019 0.74843 0.0
O443 O 0.22882 0.83123 0.75478 0.0
Mn444 Mn 0.20213 0.8064 0.73911 0.0
O445 O 0.22921 0.71977 0.74463 0.0
O446 O 0.28432 0.74516 0.74094 0.0
Mn447 Mn 0.29211 0.71467 0.75997 0.0
O448 O 0.25333 0.75484 0.7913 0.0
O449 O 0.26381 0.68838 0.74933 0.0
O450 O 0.24177 0.76673 0.70583 0.0
O451 O 0.20783 0.79908 0.70163 0.0
O452 O 0.32255 0.7225 0.73663 0.0
O453 O 0.29125 0.72757 0.79654 0.0
C454 C 0.18339 0.77399 0.76458 0.0
C455 C 0.25502 0.82592 0.7553 0.0
C456 C 0.23814 0.69438 0.74445 0.0
C457 C 0.30768 0.74336 0.72824 0.0
C458 C 0.27247 0.74351 0.80651 0.0
C459 C 0.22637 0.7831 0.69128 0.0
O460 O 0.2087 0.77435 0.75552 0.0
O461 O 0.16908 0.79559 0.75708 0.0
O462 O 0.4707 0.98371 0.96115 0.0
Mn463 Mn 0.49609 0.99199 -0.00387 0.0
O464 O 0.50009 0.9796 0.92471 0.0
Mn465 Mn 0.52976 0.00042 0.94087 0.0
O466 O 0.52137 -0.00012 0.03086 0.0
O467 O 0.46079 -0.00163 0.01804 0.0
Mn468 Mn 0.4616 0.97936 0.04948 0.0
O469 O 0.4945 0.94848 0.00513 0.0
O470 O 0.49331 0.99386 0.06829 0.0
O471 O 0.49841 0.03499 0.98668 0.0
O472 O 0.52383 0.03873 0.94711 0.0
O473 O 0.42813 -0.00165 0.04953 0.0
O474 O 0.46262 0.94163 0.03908 0.0
C475 C 0.55753 0.9819 0.97112 0.0
C476 C 0.47582 0.97676 0.93583 0.0
C477 C 0.51697 0.00044 0.05713 0.0
C478 C 0.43673 0.00773 0.02566 0.0
C479 C 0.47947 0.93214 0.02095 0.0
C480 C 0.51056 0.0497 0.96741 0.0
O481 O 0.53124 0.98641 0.97457 0.0
O482 O 0.56615 0.98762 0.94622 0.0
O483 O 0.29259 0.25916 0.26276 0.0
Mn484 Mn 0.24934 0.25093 0.25636 0.0
O485 O 0.30781 0.22558 0.29202 0.0
Mn486 Mn 0.2727 0.21032 0.30069 0.0
O487 O 0.20595 0.2411 0.25055 0.0
O488 O 0.24708 0.29203 0.24278 0.0
Mn489 Mn 0.21908 0.29048 0.21827 0.0
O490 O 0.25683 0.23723 0.21564 0.0
O491 O 0.18662 0.28095 0.2371 0.0
O492 O 0.24064 0.26523 0.29687 0.0
O493 O 0.25177 0.23022 0.32627 0.0
O494 O 0.23102 0.32744 0.21816 0.0
O495 O 0.22952 0.26565 0.19004 0.0
C496 C 0.25099 0.18302 0.2716 0.0
C497 C 0.31225 0.24685 0.27624 0.0
C498 C 0.18413 0.25593 0.24625 0.0
C499 C 0.2491 0.31894 0.23648 0.0
C500 C 0.24591 0.24472 0.19224 0.0
C501 C 0.24085 0.25404 0.32128 0.0
O502 O 0.25293 0.21039 0.26941 0.0
O503 O 0.26402 0.17288 0.293 0.0
O504 O 0.48599 0.47389 0.95615 0.0
Mn505 Mn 0.49424 0.50257 0.98879 0.0
O506 O 0.46539 0.43501 0.97474 0.0
Mn507 Mn 0.48102 0.44132 0.00974 0.0
O508 O 0.50337 0.53244 0.02059 0.0
O509 O 0.5126 0.52777 0.96146 0.0
Mn510 Mn 0.50284 0.56311 0.96267 0.0
O511 O 0.45567 0.52098 0.98133 0.0
O512 O 0.51428 0.57348 -0.00176 0.0
O513 O 0.53246 0.48308 -0.00376 0.0
O514 O 0.52029 0.43926 0.0118 0.0
O515 O 0.52964 0.55979 0.93443 0.0
O516 O 0.46373 0.56161 0.95765 0.0
C517 C 0.46068 0.47004 0.03752 0.0
C518 C 0.47272 0.44989 0.95378 0.0
C519 C 0.51199 0.55871 0.02044 0.0
C520 C 0.52997 0.53358 0.94208 0.0
C521 C 0.44708 0.54301 0.96861 0.0
C522 C 0.53885 0.45827 0.00491 0.0
O523 O 0.47515 0.47715 0.0161 0.0
O524 O 0.45881 0.44298 0.04148 0.0
O525 O 0.7763 0.29855 0.2424 0.0
Mn526 Mn 0.75367 0.25945 0.24487 0.0
O527 O 0.74357 0.33235 0.24173 0.0
Mn528 Mn 0.71295 0.3087 0.23385 0.0
O529 O 0.72938 0.22161 0.24758 0.0
O530 O 0.7902 0.23928 0.23332 0.0
Mn531 Mn 0.78866 0.21054 0.25705 0.0
O532 O 0.76315 0.25823 0.28784 0.0
O533 O 0.75918 0.18616 0.24853 0.0
O534 O 0.74337 0.26148 0.20246 0.0
O535 O 0.71038 0.29448 0.19781 0.0
O536 O 0.82054 0.20405 0.23961 0.0
O537 O 0.79195 0.22224 0.29336 0.0
C538 C 0.69439 0.28404 0.26635 0.0
C539 C 0.76907 0.32469 0.24307 0.0
C540 C 0.73439 0.19508 0.24723 0.0
C541 C 0.81334 0.22647 0.22603 0.0
C542 C 0.77876 0.24286 0.30325 0.0
C543 C 0.72564 0.27521 0.18768 0.0
O544 O 0.71823 0.27912 0.25489 0.0
O545 O 0.68225 0.30633 0.25713 0.0
O546 O 0.96057 0.49642 0.4681 0.0
Mn547 Mn 0.9906 0.49541 0.49997 0.0
O548 O 0.98139 0.48021 0.42943 0.0
Mn549 Mn 0.01774 0.49009 0.44111 0.0
O550 O 0.02039 0.49401 0.53188 0.0
O551 O 0.96293 0.51315 0.52477 0.0
Mn552 Mn 0.96241 0.49957 0.55866 0.0
O553 O 0.97527 0.45584 0.51183 0.0
O554 O -0.00116 0.50689 0.57151 0.0
O555 O 0.00594 0.53494 0.48797 0.0
O556 O 0.025 0.52905 0.44536 0.0
O557 O 0.93384 0.52578 0.55615 0.0
O558 O 0.95383 0.46103 0.55336 0.0
C559 C 0.04031 0.4634 0.46968 0.0
C560 C 0.9596 0.4875 0.44282 0.0
C561 C 0.02067 0.49984 0.558 0.0
C562 C 0.94118 0.52744 0.53029 0.0
C563 C 0.96154 0.4458 0.53276 0.0
C564 C 0.01849 0.54462 0.46617 0.0
O565 O 0.01847 0.47755 0.47538 0.0
O566 O 0.04726 0.46493 0.44372 0.0
O567 O 0.78592 0.76539 0.28475 0.0
Mn568 Mn 0.75313 0.758 0.25581 0.0
O569 O 0.82444 0.77745 0.25935 0.0
Mn570 Mn 0.81176 0.7615 0.22596 0.0
O571 O 0.72135 0.75151 0.22626 0.0
O572 O 0.72886 0.74252 0.28572 0.0
Mn573 Mn 0.69335 0.75092 0.28254 0.0
O574 O 0.73785 0.79832 0.2632 0.0
O575 O 0.68278 0.73492 0.24846 0.0
O576 O 0.76747 0.71735 0.24902 0.0
O577 O 0.80868 0.72186 0.22617 0.0
O578 O 0.69781 0.73208 0.3164 0.0
O579 O 0.69495 0.79051 0.28291 0.0
C580 C 0.78013 0.78225 0.20088 0.0
C581 C 0.81178 0.77443 0.2827 0.0
C582 C 0.69613 0.74107 0.22618 0.0
C583 C 0.72426 0.73261 0.31003 0.0
C584 C 0.71483 0.80698 0.27397 0.0
C585 C 0.78905 0.70669 0.2374 0.0
O586 O 0.77705 0.77289 0.22559 0.0
O587 O 0.80572 0.78034 0.19221 0.0
O588 O 0.79547 0.24146 0.75143 0.0
Mn589 Mn 0.75174 0.24555 0.75451 0.0
O590 O 0.81132 0.27587 0.72249 0.0
Mn591 Mn 0.77626 0.28641 0.70984 0.0
O592 O 0.70796 0.24978 0.75703 0.0
O593 O 0.74984 0.20618 0.77009 0.0
Mn594 Mn 0.72337 0.20297 0.79533 0.0
O595 O 0.7559 0.2623 0.79425 0.0
O596 O 0.6905 0.20967 0.77589 0.0
O597 O 0.74599 0.22826 0.71508 0.0
O598 O 0.75872 0.26204 0.68418 0.0
O599 O 0.74008 0.16801 0.79336 0.0
O600 O 0.73248 0.23086 0.82189 0.0
C601 C 0.74964 0.31173 0.73492 0.0
C602 C 0.81543 0.25527 0.73896 0.0
C603 C 0.68708 0.23312 0.76347 0.0
C604 C 0.75546 0.18002 0.77438 0.0
C605 C 0.74562 0.25459 0.8178 0.0
C606 C 0.74795 0.23778 0.69023 0.0
O607 O 0.75419 0.28525 0.7392 0.0
O608 O 0.76346 0.32259 0.71418 0.0
O609 O 0.79465 0.76022 0.76294 0.0
Mn610 Mn 0.75137 0.75581 0.75473 0.0
O611 O 0.80516 0.72734 0.79475 0.0
Mn612 Mn 0.76824 0.71741 0.80302 0.0
O613 O 0.70734 0.75272 0.74603 0.0
O614 O 0.75418 0.7946 0.73726 0.0
Mn615 Mn 0.73124 0.79542 0.70835 0.0
O616 O 0.76001 0.73685 0.71675 0.0
O617 O 0.69815 0.795 0.72764 0.0
O618 O 0.74166 0.77477 0.79315 0.0
O619 O 0.74885 0.74158 0.82582 0.0
O620 O 0.7573 0.82477 0.70352 0.0
O621 O 0.73607 0.76328 0.68631 0.0
C622 C 0.74424 0.6893 0.77677 0.0
C623 C 0.81239 0.74685 0.77782 0.0
C624 C 0.68974 0.77149 0.73805 0.0
C625 C 0.76928 0.81425 0.72529 0.0
C626 C 0.75005 0.74146 0.69235 0.0
C627 C 0.73976 0.7655 0.81828 0.0
O628 O 0.74906 0.71602 0.77126 0.0
O629 O 0.75591 0.68052 0.79953 0.0
O630 O 0.53265 0.52536 0.4931 0.0
Mn631 Mn 0.49426 0.50334 0.50074 0.0
O632 O 0.56731 0.49604 0.50487 0.0
Mn633 Mn 0.54433 0.46728 0.51905 0.0
O634 O 0.45549 0.48136 0.50858 0.0
O635 O 0.47517 0.54105 0.50209 0.0
Mn636 Mn 0.44382 0.539 0.48222 0.0
O637 O 0.4876 0.50043 0.45739 0.0
O638 O 0.42106 0.51178 0.49916 0.0
O639 O 0.50185 0.50612 0.54437 0.0
O640 O 0.5322 0.47196 0.55499 0.0
O641 O 0.44615 0.57552 0.49547 0.0
O642 O 0.45455 0.53169 0.44625 0.0
C643 C 0.52103 0.44101 0.49044 0.0
C644 C 0.55895 0.51943 0.49505 0.0
C645 C 0.42924 0.48801 0.50821 0.0
C646 C 0.4692 0.56717 0.50705 0.0
C647 C 0.47294 0.51395 0.4394 0.0
C648 C 0.51561 0.49127 0.5622 0.0
O649 O 0.51369 0.46603 0.4981 0.0
O650 O 0.54379 0.43231 0.50232 0.0
O651 O 0.96825 0.4864 -0.00543 0.0
Mn652 Mn 0.00888 0.50463 -0.00148 0.0
O653 O 0.93706 0.52121 -0.00529 0.0
Mn654 Mn 0.96205 0.54739 0.01081 0.0
O655 O 0.04943 0.52258 0.00224 0.0
O656 O 0.02295 0.46547 0.004 0.0
Mn657 Mn 0.05444 0.46083 0.98615 0.0
O658 O 0.01503 0.50189 0.9551 0.0
O659 O 0.07982 0.48688 0.00194 0.0
O660 O 0.00371 0.50851 0.0416 0.0
O661 O 0.97092 0.54154 0.04808 0.0
O662 O 0.04662 0.42673 0.0031 0.0
O663 O 0.04602 0.46705 0.94919 0.0
C664 C 0.9941 0.56991 0.98809 0.0
C665 C 0.94292 0.49517 0.99226 0.0
C666 C 0.07436 0.51296 0.00476 0.0
C667 C 0.02513 0.43983 0.01265 0.0
C668 C 0.03068 0.48655 0.93962 0.0
C669 C 0.98903 0.52441 0.05746 0.0
O670 O 0.99426 0.54335 -0.00635 0.0
O671 O 0.97133 0.58222 -0.00443 0.0
H672 H 0.00086 0.15934 0.10276 0.0
H673 H 0.04296 0.19208 0.02968 0.0
H674 H 0.0361 0.14618 0.00628 0.0
H675 H 0.0115 0.0995 0.00421 0.0
H676 H 0.96792 0.06761 0.07644 0.0
H677 H 0.98283 0.10993 0.1031 0.0
C678 C 0.00867 0.15633 0.08177 0.0
C679 C 0.02174 0.17918 0.06768 0.0
C680 C 0.00477 0.1299 0.06854 0.0
C681 C 0.03246 0.17487 0.04079 0.0
C682 C 0.02863 0.14864 0.02744 0.0
C683 C 0.00665 0.10128 0.02622 0.0
C684 C 0.98938 0.08039 0.03872 0.0
C685 C 0.0141 0.12628 0.04083 0.0
C686 C 0.98201 0.08316 0.06683 0.0
C687 C 0.99002 0.10761 0.08183 0.0
H688 H 0.08549 0.79116 0.32436 0.0
H689 H 0.04911 0.72102 0.27715 0.0
H690 H 0.09615 0.70902 0.26034 0.0
H691 H 0.14842 0.71589 0.26352 0.0
H692 H 0.18331 0.78366 0.31496 0.0
H693 H 0.13638 0.79885 0.32641 0.0
C694 C 0.08784 0.77377 0.30972 0.0
C695 C 0.06414 0.75727 0.30147 0.0
C696 C 0.11482 0.76603 0.30179 0.0
C697 C 0.06728 0.73419 0.28331 0.0
C698 C 0.09412 0.72717 0.27403 0.0
C699 C 0.1455 0.73388 0.27726 0.0
C700 C 0.1691 0.7482 0.28914 0.0
C701 C 0.11817 0.7424 0.28391 0.0
C702 C 0.16542 0.77176 0.30648 0.0
C703 C 0.13856 0.78072 0.31269 0.0
H704 H 0.45658 0.83293 0.54897 0.0
H705 H 0.50431 0.84564 0.62528 0.0
H706 H 0.51324 0.89535 0.61373 0.0
H707 H 0.51645 0.93137 0.57764 0.0
H708 H 0.47672 0.916 0.49778 0.0
H709 H 0.45429 0.87215 0.51513 0.0
C710 C 0.46849 0.84683 0.56317 0.0
C711 C 0.48045 0.8357 0.58748 0.0
C712 C 0.47468 0.87509 0.55574 0.0
C713 C 0.49564 0.85373 0.60601 0.0
C714 C 0.50056 0.88216 0.59954 0.0
C715 C 0.50169 0.91905 0.56463 0.0
C716 C 0.49776 0.92685 0.5368 0.0
C717 C 0.4914 0.89265 0.57386 0.0
C718 C 0.47945 0.91051 0.51955 0.0
C719 C 0.46717 0.88517 0.52929 0.0
H720 H 0.39218 0.25967 0.86995 0.0
H721 H 0.44875 0.22049 0.81228 0.0
H722 H 0.41455 0.22601 0.77441 0.0
H723 H 0.36921 0.24255 0.75778 0.0
H724 H 0.31259 0.28188 0.81529 0.0
H725 H 0.34677 0.27644 0.85321 0.0
C726 C 0.39682 0.25191 0.84919 0.0
C727 C 0.42278 0.23955 0.84386 0.0
C728 C 0.3775 0.25588 0.82745 0.0
C729 C 0.42878 0.23 0.81681 0.0
C730 C 0.4094 0.23337 0.79515 0.0
C731 C 0.36459 0.25054 0.77846 0.0
C732 C 0.33857 0.2628 0.78372 0.0
C733 C 0.38393 0.24669 0.80018 0.0
C734 C 0.33262 0.27251 0.81075 0.0
C735 C 0.35199 0.26917 0.83245 0.0
H736 H 0.99099 0.83705 0.38343 0.0
H737 H 0.06851 0.82951 0.42993 0.0
H738 H 0.06424 0.87784 0.44802 0.0
H739 H 0.03196 0.91495 0.46058 0.0
H740 H 0.94947 0.91713 0.42243 0.0
H741 H 0.96177 0.87838 0.39063 0.0
C742 C 0.00755 0.84668 0.39649 0.0
C743 C 0.03007 0.83022 0.4054 0.0
C744 C 0.00333 0.87306 0.4089 0.0
C745 C 0.05125 0.84216 0.4227 0.0
C746 C 0.04851 0.86953 0.43332 0.0
C747 C 0.01702 0.9073 0.44473 0.0
C748 C 0.98976 0.91801 0.44392 0.0
C749 C 0.02362 0.88411 0.42817 0.0
C750 C 0.97042 0.90866 0.4234 0.0
C751 C 0.97748 0.88656 0.40542 0.0
H752 H 0.38839 0.74281 0.63897 0.0
H753 H 0.43441 0.79169 0.70146 0.0
H754 H 0.39018 0.80491 0.72323 0.0
H755 H 0.34152 0.78934 0.73228 0.0
H756 H 0.29672 0.73545 0.67324 0.0
H757 H 0.33634 0.73889 0.6411 0.0
C758 C 0.38844 0.75707 0.65681 0.0
C759 C 0.41408 0.76571 0.66936 0.0
C760 C 0.36303 0.76369 0.66965 0.0
C761 C 0.41453 0.78446 0.69211 0.0
C762 C 0.38934 0.79203 0.70443 0.0
C763 C 0.33989 0.77993 0.71158 0.0
C764 C 0.31714 0.76132 0.70533 0.0
C765 C 0.3637 0.78001 0.69457 0.0
C766 C 0.31453 0.74953 0.67848 0.0
C767 C 0.33747 0.75091 0.66043 0.0
H768 H 0.48181 0.17873 0.96897 0.0
H769 H 0.55543 0.18292 0.9165 0.0
H770 H 0.56404 0.13318 0.92592 0.0
H771 H 0.5468 0.08732 0.9433 0.0
H772 H 0.47215 0.08219 -0.00588 0.0
H773 H 0.4678 0.13363 0.99118 0.0
C774 C 0.50017 0.16899 0.96017 0.0
C775 C 0.51772 0.18438 0.9417 0.0
C776 C 0.50443 0.14011 0.9649 0.0
C777 C 0.54144 0.17145 0.93054 0.0
C778 C 0.54627 0.14297 0.93577 0.0
C779 C 0.52964 0.09745 0.95388 0.0
C780 C 0.50941 0.08093 0.96837 0.0
C781 C 0.5272 0.12686 0.95188 0.0
C782 C 0.48778 0.09444 0.98259 0.0
C783 C 0.4853 0.12383 0.98089 0.0
H784 H 0.08862 0.21221 0.17192 0.0
H785 H 0.051 0.28751 0.2038 0.0
H786 H 0.08582 0.28998 0.24201 0.0
H787 H 0.13341 0.2775 0.25792 0.0
H788 H 0.17258 0.20472 0.22223 0.0
H789 H 0.13005 0.19319 0.19535 0.0
C790 C 0.08757 0.22856 0.18785 0.0
C791 C 0.06791 0.24998 0.18499 0.0
C792 C 0.10793 0.23011 0.20919 0.0
C793 C 0.06621 0.27095 0.20568 0.0
C794 C 0.08619 0.27241 0.22737 0.0
C795 C 0.13201 0.25835 0.24527 0.0
C796 C 0.15613 0.24205 0.242 0.0
C797 C 0.10813 0.25308 0.22826 0.0
C798 C 0.15421 0.21727 0.22564 0.0
C799 C 0.13006 0.21109 0.20962 0.0
H800 H 0.02763 0.02737 0.18759 0.0
H801 H 0.07446 0.95071 0.19464 0.0
H802 H 0.05751 0.93538 0.14856 0.0
H803 H 0.03626 0.94743 0.10394 0.0
H804 H 0.99384 0.02642 0.09455 0.0
H805 H 0.00135 0.0368 0.1442 0.0
C806 C 0.03363 0.00703 0.17927 0.0
C807 C 0.05263 0.99039 0.19425 0.0
C808 C 0.02473 -0.00109 0.15229 0.0
C809 C 0.0602 0.96407 0.18329 0.0
C810 C 0.05052 0.95531 0.15697 0.0
C811 C 0.02826 0.96677 0.11278 0.0
C812 C 0.01521 0.98654 0.09539 0.0
C813 C 0.03385 0.97315 0.14086 0.0
C814 C 0.00425 0.01104 0.10738 0.0
C815 C 0.00875 0.01706 0.13573 0.0
H816 H 0.28125 0.86209 0.39832 0.0
H817 H 0.20254 0.81869 0.4178 0.0
H818 H 0.19989 0.79886 0.37053 0.0
H819 H 0.22684 0.78413 0.33022 0.0
H820 H 0.30659 0.82473 0.31083 0.0
H821 H 0.30258 0.85579 0.35202 0.0
C822 C 0.26302 0.8492 0.39165 0.0
C823 C 0.24236 0.84122 0.41117 0.0
C824 C 0.26237 0.8371 0.36499 0.0
C825 C 0.21858 0.82489 0.40285 0.0
C826 C 0.2173 0.81334 0.37604 0.0
C827 C 0.24234 0.80102 0.33414 0.0
C828 C 0.26664 0.80267 0.31781 0.0
C829 C 0.24 0.81789 0.35779 0.0
C830 C 0.28773 0.82337 0.3234 0.0
C831 C 0.2854 0.84091 0.34688 0.0
H832 H 0.4452 0.04711 0.67074 0.0
H833 H 0.48202 0.96466 0.67409 0.0
H834 H 0.50077 0.97102 0.62746 0.0
H835 H 0.50107 0.99685 0.58355 0.0
H836 H 0.46387 0.07908 0.57917 0.0
H837 H 0.452 0.07639 0.62859 0.0
C838 C 0.45792 0.0309 0.66148 0.0
C839 C 0.46196 0.00541 0.67579 0.0
C840 C 0.46862 0.03459 0.63442 0.0
C841 C 0.47864 0.98458 0.66363 0.0
C842 C 0.48928 0.9881 0.63683 0.0
C843 C 0.49099 0.01455 0.59348 0.0
C844 C 0.48284 0.03784 0.57747 0.0
C845 C 0.48361 0.0126 0.6217 0.0
C846 C 0.46995 0.06062 0.59086 0.0
C847 C 0.46304 0.05908 0.61913 0.0
H848 H 0.27297 0.1473 0.89718 0.0
H849 H 0.30543 0.22328 0.93769 0.0
H850 H 0.30558 0.2483 0.89322 0.0
H851 H 0.27968 0.25236 0.84898 0.0
H852 H 0.241 0.17807 0.8106 0.0
H853 H 0.26032 0.1483 0.8473 0.0
C854 C 0.28165 0.16881 0.89581 0.0
C855 C 0.28876 0.18371 0.92045 0.0
C856 C 0.27949 0.18357 0.87056 0.0
C857 C 0.29978 0.21158 0.91883 0.0
C858 C 0.29941 0.22598 0.89347 0.0
C859 C 0.27698 0.22945 0.84792 0.0
C860 C 0.2588 0.21724 0.82768 0.0
C861 C 0.28678 0.2129 0.86995 0.0
C862 C 0.25499 0.18771 0.82622 0.0
C863 C 0.26574 0.17079 0.84741 0.0
H864 H 0.05386 0.96615 0.3315 0.0
H865 H 0.12919 0.01462 0.35401 0.0
H866 H 0.11254 0.01914 0.40192 0.0
H867 H 0.07004 0.02311 0.4305 0.0
H868 H 0.99355 0.97723 0.40685 0.0
H869 H 0.01716 0.95694 0.36658 0.0
C870 C 0.06721 0.97631 0.3474 0.0
C871 C 0.09226 0.99059 0.33952 0.0
C872 C 0.05689 0.97979 0.37443 0.0
C873 C 0.10972 0.00364 0.35988 0.0
C874 C 0.10001 0.00655 0.38712 0.0
C875 C 0.05915 0.00744 0.4173 0.0
C876 C 0.03027 0.00177 0.42105 0.0
C877 C 0.07261 0.99683 0.39377 0.0
C878 C 0.01591 0.98172 0.40408 0.0
C879 C 0.02933 0.97042 0.38093 0.0
H880 H 0.25678 0.84115 0.57894 0.0
H881 H 0.25052 0.75559 0.54727 0.0
H882 H 0.24229 0.73776 0.59494 0.0
H883 H 0.23357 0.74794 0.64567 0.0
H884 H 0.2407 0.83475 0.67451 0.0
H885 H 0.25251 0.85073 0.62794 0.0
C886 C 0.25347 0.81856 0.58244 0.0
C887 C 0.25337 0.79971 0.55987 0.0
C888 C 0.24902 0.8088 0.6094 0.0
C889 C 0.25019 0.77044 0.56457 0.0
C890 C 0.24551 0.76034 0.59172 0.0
C891 C 0.23782 0.77023 0.64151 0.0
C892 C 0.23539 0.79035 0.66303 0.0
C893 C 0.24434 0.77946 0.61431 0.0
C894 C 0.24156 0.81912 0.65788 0.0
C895 C 0.24842 0.82827 0.63137 0.0
H896 H 0.4203 0.93876 0.82636 0.0
H897 H 0.40329 0.02805 0.82405 0.0
H898 H 0.41449 0.03225 0.87385 0.0
H899 H 0.43952 0.01279 0.91428 0.0
H900 H 0.46215 0.92515 0.91387 0.0
H901 H 0.43737 0.91756 0.86932 0.0
C902 C 0.41868 0.95908 0.83682 0.0
C903 C 0.41209 0.98328 0.82142 0.0
C904 C 0.42603 0.96149 0.86505 0.0
C905 C 0.40904 0.00925 0.83538 0.0
C906 C 0.41542 0.01165 0.86383 0.0
C907 C 0.43782 0.99181 0.90489 0.0
C908 C 0.45242 0.96951 0.91692 0.0
C909 C 0.42541 0.98825 0.87843 0.0
C910 C 0.45076 0.94244 0.90478 0.0
C911 C 0.43697 0.93826 0.8792 0.0
H912 H 0.28348 0.17707 0.08408 0.0
H913 H 0.20064 0.20315 0.05822 0.0
H914 H 0.19324 0.22438 0.10334 0.0
H915 H 0.2102 0.23799 0.14909 0.0
H916 H 0.29228 0.21356 0.17775 0.0
H917 H 0.29995 0.18918 0.13297 0.0
C918 C 0.26386 0.18733 0.08847 0.0
C919 C 0.24294 0.18895 0.0674 0.0
C920 C 0.25957 0.19996 0.11494 0.0
C921 C 0.21747 0.20208 0.0736 0.0
C922 C 0.21305 0.21419 0.09955 0.0
C923 C 0.22989 0.22742 0.14561 0.0
C924 C 0.25083 0.22804 0.16649 0.0
C925 C 0.23405 0.21372 0.12012 0.0
C926 C 0.27586 0.21353 0.16189 0.0
C927 C 0.28025 0.19968 0.13625 0.0
H928 H 0.14657 0.12522 0.98014 0.0
H929 H 0.20634 0.05803 0.98227 0.0
H930 H 0.1676 0.02306 0.98721 0.0
H931 H 0.1177 0.0119 -0.00639 0.0
H932 H 0.05732 0.07852 -0.00624 0.0
H933 H 0.09559 0.11357 0.98507 0.0
C934 C 0.15114 0.10288 0.98134 0.0
C935 C 0.17944 0.09426 0.98086 0.0
C936 C 0.12875 0.08292 0.98482 0.0
C937 C 0.18489 0.06526 0.98267 0.0
C938 C 0.16272 0.04528 0.98554 0.0
C939 C 0.11266 0.03407 0.99178 0.0
C940 C 0.0845 0.04253 -0.00527 0.0
C941 C 0.1347 0.05394 0.98714 0.0
C942 C 0.07867 0.07137 0.99176 0.0
C943 C 0.1006 0.0914 0.98681 0.0
H944 H 0.65728 0.40158 0.01064 0.0
H945 H 0.6851 0.48203 0.97641 0.0
H946 H 0.63664 0.49865 0.9782 0.0
H947 H 0.58592 0.48957 0.98855 0.0
H948 H 0.55975 0.40856 0.02322 0.0
H949 H 0.608 0.39316 0.02221 0.0
C950 C 0.65288 0.4228 0.00355 0.0
C951 C 0.67483 0.44043 -0.00676 0.0
C952 C 0.62516 0.43219 0.00476 0.0
C953 C 0.66861 0.46794 0.98439 0.0
C954 C 0.64089 0.47746 0.98541 0.0
C955 C 0.5908 0.46864 -0.00391 0.0
C956 C 0.56897 0.45032 0.00589 0.0
C957 C 0.61891 0.45968 -0.00454 0.0
C958 C 0.57586 0.42324 0.01551 0.0
C959 C 0.60355 0.41429 0.01493 0.0
H960 H 0.83399 0.44181 0.24673 0.0
H961 H 0.88766 0.39989 0.1884 0.0
H962 H 0.85846 0.35624 0.1923 0.0
H963 H 0.81801 0.32971 0.21364 0.0
H964 H 0.76672 0.37235 0.27369 0.0
H965 H 0.79546 0.41568 0.26873 0.0
C966 C 0.839 0.42331 0.2344 0.0
C967 C 0.86252 0.42418 0.21687 0.0
C968 C 0.82317 0.3981 0.2379 0.0
C969 C 0.86929 0.39978 0.20169 0.0
C970 C 0.85289 0.37473 0.20426 0.0
C971 C 0.81368 0.34832 0.22607 0.0
C972 C 0.79046 0.34791 0.24409 0.0
C973 C 0.83005 0.37348 0.22272 0.0
C974 C 0.78461 0.37225 0.25976 0.0
C975 C 0.80081 0.39709 0.25674 0.0
H976 H 0.83022 0.54917 0.46579 0.0
H977 H 0.84501 0.63099 0.50467 0.0
H978 H 0.8928 0.61836 0.51759 0.0
H979 H 0.9267 0.58134 0.5255 0.0
H980 H 0.91068 0.49788 0.49122 0.0
H981 H 0.8677 0.51373 0.46824 0.0
C982 C 0.84418 0.56426 0.47666 0.0
C983 C 0.83408 0.59063 0.48494 0.0
C984 C 0.87145 0.5565 0.48486 0.0
C985 C 0.85224 0.61025 0.49881 0.0
C986 C 0.87958 0.60312 0.50609 0.0
C987 C 0.9143 0.56706 0.51204 0.0
C988 C 0.92198 0.53884 0.5094 0.0
C989 C 0.88893 0.57592 0.50033 0.0
C990 C 0.9056 0.52006 0.49261 0.0
C991 C 0.8807 0.52897 0.47998 0.0
H992 H 0.18998 0.07081 0.23704 0.0
H993 H 0.11778 0.12071 0.25633 0.0
H994 H 0.14751 0.1635 0.25811 0.0
H995 H 0.19508 0.18527 0.263 0.0
H996 H 0.26747 0.13603 0.24475 0.0
H997 H 0.23684 0.09486 0.23314 0.0
C998 C 0.18069 0.0911 0.24112 0.0
C999 C 0.15178 0.09224 0.24734 0.0
C1000 C 0.19802 0.11595 0.2422 0.0
C1001 C 0.14006 0.11891 0.25207 0.0
C1002 C 0.15705 0.14358 0.25299 0.0
C1003 C 0.20395 0.16609 0.25477 0.0
C1004 C 0.23331 0.1638 0.2541 0.0
C1005 C 0.18621 0.14223 0.24918 0.0
C1006 C 0.24479 0.13833 0.2449 0.0
C1007 C 0.2273 0.11467 0.23867 0.0
H1008 H 0.35242 0.89344 0.52697 0.0
H1009 H 0.2975 0.94068 0.47361 0.0
H1010 H 0.33565 0.97574 0.46525 0.0
H1011 H 0.38572 0.99077 0.47061 0.0
H1012 H 0.43876 0.94572 0.52732 0.0
H1013 H 0.40062 0.91117 0.53624 0.0
C1014 C 0.34876 0.91166 0.51383 0.0
C1015 C 0.32249 0.91452 0.50075 0.0
C1016 C 0.37069 0.93143 0.50902 0.0
C1017 C 0.31766 0.93827 0.48404 0.0
C1018 C 0.3395 0.95808 0.479 0.0
C1019 C 0.38887 0.97321 0.48471 0.0
C1020 C 0.41553 0.96938 0.49684 0.0
C1021 C 0.3663 0.95445 0.49085 0.0
C1022 C 0.41915 0.94738 0.51595 0.0
C1023 C 0.39709 0.92823 0.52168 0.0
H1024 H 0.80438 0.57861 0.26996 0.0
H1025 H 0.86471 0.58523 0.20308 0.0
H1026 H 0.85009 0.63311 0.19318 0.0
H1027 H 0.82349 0.67467 0.20604 0.0
H1028 H 0.76292 0.66873 0.27263 0.0
H1029 H 0.77408 0.61905 0.27976 0.0
C1030 C 0.8141 0.5904 0.25301 0.0
C1031 C 0.83593 0.57837 0.23761 0.0
C1032 C 0.80567 0.61817 0.24741 0.0
C1033 C 0.84806 0.59393 0.21552 0.0
C1034 C 0.83975 0.62141 0.20981 0.0
C1035 C 0.81249 0.66247 0.22195 0.0
C1036 C 0.79269 0.67559 0.239 0.0
C1037 C 0.8191 0.63399 0.22605 0.0
C1038 C 0.77833 0.65925 0.25921 0.0
C1039 C 0.7848 0.63084 0.26342 0.0
H1040 H 0.68962 0.40839 0.79822 0.0
H1041 H 0.65246 0.41663 0.71611 0.0
H1042 H 0.67355 0.37279 0.70137 0.0
H1043 H 0.70661 0.33535 0.70974 0.0
H1044 H 0.74645 0.32719 0.7902 0.0
H1045 H 0.71968 0.36722 0.80804 0.0
C1046 C 0.68603 0.40048 0.77717 0.0
C1047 C 0.66988 0.41614 0.75815 0.0
C1048 C 0.69851 0.37517 0.76864 0.0
C1049 C 0.66521 0.40542 0.73103 0.0
C1050 C 0.67711 0.3802 0.72259 0.0
C1051 C 0.70871 0.34183 0.73145 0.0
C1052 C 0.72814 0.32844 0.74874 0.0
C1053 C 0.69426 0.36533 0.74098 0.0
C1054 C 0.73114 0.33699 0.77672 0.0
C1055 C 0.71619 0.36014 0.78671 0.0
H1056 H 0.96812 0.83193 0.94592 0.0
H1057 H 0.03918 0.8372 0.89015 0.0
H1058 H 0.04949 0.88591 0.90525 0.0
H1059 H 0.04272 0.92394 0.9394 0.0
H1060 H 0.97672 0.91535 -0.00026 0.0
H1061 H 0.95864 0.87188 0.97681 0.0
C1062 C 0.98572 0.84379 0.93687 0.0
C1063 C 0.00321 0.83074 0.91739 0.0
C1064 C 0.99185 0.87157 0.94602 0.0
C1065 C 0.02567 0.84656 0.90556 0.0
C1066 C 0.0315 0.87448 0.91406 0.0
C1067 C 0.02361 0.91309 0.94657 0.0
C1068 C 0.00987 0.92334 0.97016 0.0
C1069 C 0.01527 0.88685 0.93488 0.0
C1070 C 0.98598 0.90878 0.9803 0.0
C1071 C 0.97644 0.88343 0.96779 0.0
H1072 H 0.94431 0.25272 0.72381 0.0
H1073 H 0.91676 0.20116 0.65339 0.0
H1074 H 0.86918 0.19762 0.67232 0.0
H1075 H 0.83399 0.21631 0.70415 0.0
H1076 H 0.86034 0.27216 0.77138 0.0
H1077 H 0.90996 0.26622 0.75916 0.0
C1078 C 0.92806 0.24021 0.71289 0.0
C1079 C 0.93397 0.22768 0.68696 0.0
C1080 C 0.90052 0.23901 0.72346 0.0
C1081 C 0.9127 0.21136 0.67319 0.0
C1082 C 0.88546 0.20932 0.684 0.0
C1083 C 0.85078 0.22615 0.71676 0.0
C1084 C 0.8439 0.24424 0.73882 0.0
C1085 C 0.87891 0.22401 0.70848 0.0
C1086 C 0.86544 0.25771 0.75466 0.0
C1087 C 0.89369 0.25462 0.74738 0.0
H1088 H 0.50653 0.15147 0.38403 0.0
H1089 H 0.53312 0.19117 0.46139 0.0
H1090 H 0.54114 0.14465 0.48193 0.0
H1091 H 0.52773 0.09428 0.48157 0.0
H1092 H 0.49168 0.05587 0.40741 0.0
H1093 H 0.50191 0.09923 0.38116 0.0
C1094 C 0.51487 0.14975 0.40509 0.0
C1095 C 0.51893 0.17432 0.42147 0.0
C1096 C 0.51779 0.12293 0.41717 0.0
C1097 C 0.52958 0.17228 0.44872 0.0
C1098 C 0.53418 0.14575 0.46037 0.0
C1099 C 0.52374 0.09498 0.45924 0.0
C1100 C 0.50852 0.07237 0.44648 0.0
C1101 C 0.52667 0.12098 0.44535 0.0
C1102 C 0.50336 0.07317 0.41763 0.0
C1103 C 0.5085 0.09827 0.40284 0.0
H1104 H 0.59636 0.73119 0.14481 0.0
H1105 H 0.57719 0.80798 0.18863 0.0
H1106 H 0.62629 0.81292 0.20501 0.0
H1107 H 0.66898 0.78791 0.21739 0.0
H1108 H 0.68366 0.70575 0.18181 0.0
H1109 H 0.64256 0.71032 0.15078 0.0
C1110 C 0.60345 0.74961 0.15695 0.0
C1111 C 0.58369 0.76916 0.16577 0.0
C1112 C 0.63078 0.7508 0.16808 0.0
C1113 C 0.5924 0.79289 0.18162 0.0
C1114 C 0.62028 0.79543 0.19121 0.0
C1115 C 0.6636 0.77154 0.20204 0.0
C1116 C 0.67864 0.74643 0.20178 0.0
C1117 C 0.6389 0.77342 0.1862 0.0
C1118 C 0.672 0.72513 0.18219 0.0
C1119 C 0.64849 0.72772 0.16472 0.0
H1120 H -0.00288 0.15579 0.59615 0.0
H1121 H 0.06367 0.18893 0.54322 0.0
H1122 H 0.06946 0.14217 0.52312 0.0
H1123 H 0.05042 0.09445 0.51497 0.0
H1124 H 0.98101 0.06188 0.56392 0.0
H1125 H 0.98255 0.10522 0.59242 0.0
C1126 C 0.01299 0.15271 0.58035 0.0
C1127 C 0.02935 0.17595 0.57062 0.0
C1128 C 0.01599 0.12575 0.56853 0.0
C1129 C 0.05031 0.17155 0.55062 0.0
C1130 C 0.05383 0.14477 0.53924 0.0
C1131 C 0.0363 0.09657 0.53252 0.0
C1132 C 0.01539 0.07556 0.53724 0.0
C1133 C 0.03611 0.12205 0.54732 0.0
C1134 C -0.00266 0.07794 0.56011 0.0
C1135 C -0.00213 0.10292 0.57597 0.0
H1136 H 0.60539 0.25045 0.35241 0.0
H1137 H 0.56701 0.21143 0.27926 0.0
H1138 H 0.61115 0.21855 0.25369 0.0
H1139 H 0.65696 0.2442 0.25002 0.0
H1140 H 0.6948 0.28406 0.32275 0.0
H1141 H 0.65492 0.26756 0.35114 0.0
C1142 C 0.60691 0.24314 0.33099 0.0
C1143 C 0.58297 0.23122 0.31735 0.0
C1144 C 0.63226 0.24729 0.31656 0.0
C1145 C 0.58518 0.22105 0.28994 0.0
C1146 C 0.61035 0.22514 0.27536 0.0
C1147 C 0.65699 0.24799 0.27239 0.0
C1148 C 0.67883 0.26466 0.2846 0.0
C1149 C 0.63357 0.23931 0.28814 0.0
C1150 C 0.67856 0.27039 0.31329 0.0
C1151 C 0.65551 0.26144 0.32933 0.0
H1152 H 0.52865 0.8131 0.04334 0.0
H1153 H 0.44734 0.80143 0.0824 0.0
H1154 H 0.43186 0.84558 0.06225 0.0
H1155 H 0.44405 0.89088 0.04045 0.0
H1156 H 0.52543 0.90395 0.00232 0.0
H1157 H 0.53799 0.85566 0.01455 0.0
C1158 C 0.50734 0.8199 0.04694 0.0
C1159 C 0.48945 0.80432 0.06496 0.0
C1160 C 0.49867 0.84572 0.03567 0.0
C1161 C 0.46177 0.81326 0.06908 0.0
C1162 C 0.45286 0.83856 0.05758 0.0
C1163 C 0.46436 0.88301 0.03432 0.0
C1164 C 0.48415 0.90126 0.02126 0.0
C1165 C 0.47157 0.85553 0.04193 0.0
C1166 C 0.51003 0.89049 0.0128 0.0
C1167 C 0.51726 0.8629 0.01994 0.0
H1168 H 0.92502 0.78703 0.82968 0.0
H1169 H 0.94486 0.70081 0.80999 0.0
H1170 H 0.90298 0.69632 0.77971 0.0
H1171 H 0.85596 0.71357 0.7684 0.0
H1172 H 0.8351 0.79914 0.7896 0.0
H1173 H 0.8826 0.80788 0.809 0.0
C1174 C 0.92055 0.76766 0.81793 0.0
C1175 C 0.93745 0.74415 0.82201 0.0
C1176 C 0.89626 0.76518 0.8011 0.0
C1177 C 0.93187 0.71905 0.80696 0.0
C1178 C 0.90793 0.71648 0.78984 0.0
C1179 C 0.86237 0.73447 0.77618 0.0
C1180 C 0.84231 0.75559 0.77804 0.0
C1181 C 0.88924 0.7389 0.78803 0.0
C1182 C 0.85043 0.78267 0.78799 0.0
C1183 C 0.87741 0.78749 0.79942 0.0
H1184 H 0.97032 0.9784 0.82124 0.0
H1185 H 0.92206 0.05417 0.81369 0.0
H1186 H 0.93464 0.0675 0.86156 0.0
H1187 H 0.95419 0.05476 0.90685 0.0
H1188 H -0.00025 0.97748 0.91576 0.0
H1189 H 0.99396 0.96799 0.86576 0.0
C1190 C 0.96287 -0.00195 0.82991 0.0
C1191 C 0.94489 0.01504 0.81404 0.0
C1192 C 0.96961 0.00524 0.85769 0.0
C1193 C 0.93559 0.04051 0.82555 0.0
C1194 C 0.94278 0.04816 0.85292 0.0
C1195 C 0.96316 0.03596 0.89786 0.0
C1196 C 0.97689 0.01657 0.91513 0.0
C1197 C 0.95897 0.03021 0.86941 0.0
C1198 C 0.98894 0.99268 0.903 0.0
C1199 C 0.98545 0.98714 0.87443 0.0
H1200 H 0.70104 0.19085 0.57765 0.0
H1201 H 0.78159 0.15059 0.57856 0.0
H1202 H 0.78933 0.1655 0.62701 0.0
H1203 H 0.77655 0.19656 0.66607 0.0
H1204 H 0.69804 0.23996 0.6631 0.0
H1205 H 0.68575 0.2169 0.61851 0.0
C1206 C 0.72018 0.18507 0.58849 0.0
C1207 C 0.74107 0.17038 0.57435 0.0
C1208 C 0.72481 0.19436 0.6159 0.0
C1209 C 0.76541 0.16236 0.58889 0.0
C1210 C 0.76987 0.17089 0.61655 0.0
C1211 C 0.75651 0.20026 0.65581 0.0
C1212 C 0.73816 0.21974 0.66726 0.0
C1213 C 0.75024 0.18787 0.62982 0.0
C1214 C 0.71229 0.22489 0.65424 0.0
C1215 C 0.7054 0.21188 0.62882 0.0
H1216 H 0.57196 0.95975 0.32199 0.0
H1217 H 0.50973 0.02362 0.31046 0.0
H1218 H 0.49201 0.01513 0.35726 0.0
H1219 H 0.50019 0.99616 0.40406 0.0
H1220 H 0.56319 0.93299 0.41581 0.0
H1221 H 0.57409 0.93435 0.36637 0.0
C1222 C 0.55401 0.97124 0.3294 0.0
C1223 C 0.54279 0.99284 0.31307 0.0
C1224 C 0.54427 0.96674 0.35664 0.0
C1225 C 0.5192 0.00723 0.32283 0.0
C1226 C 0.50908 0.00249 0.34968 0.0
C1227 C 0.51586 0.98222 0.39576 0.0
C1228 C 0.53141 0.9652 0.41388 0.0
C1229 C 0.52243 0.98337 0.36727 0.0
C1230 C 0.55129 0.94688 0.40254 0.0
C1231 C 0.55761 0.94759 0.37419 0.0
H1232 H 0.72124 0.8391 0.10322 0.0
H1233 H 0.73708 0.75749 0.0666 0.0
H1234 H 0.74471 0.73769 0.11287 0.0
H1235 H 0.76024 0.7475 0.16097 0.0
H1236 H 0.74988 0.83023 0.19687 0.0
H1237 H 0.72606 0.84566 0.15415 0.0
C1238 C 0.72527 0.81673 0.10547 0.0
C1239 C 0.72946 0.79995 0.08156 0.0
C1240 C 0.73118 0.80591 0.13209 0.0
C1241 C 0.7344 0.77094 0.08472 0.0
C1242 C 0.73891 0.75966 0.11117 0.0
C1243 C 0.75165 0.76852 0.1597 0.0
C1244 C 0.75697 0.78794 0.18149 0.0
C1245 C 0.73945 0.77749 0.13467 0.0
C1246 C 0.74594 0.81509 0.18009 0.0
C1247 C 0.73264 0.82392 0.15558 0.0
H1248 H 0.89776 0.00888 0.64411 0.0
H1249 H 0.98155 0.02602 0.67681 0.0
H1250 H 0.00102 0.02338 0.6299 0.0
H1251 H 0.99548 0.00282 0.58312 0.0
H1252 H 0.91278 0.9785 0.55204 0.0
H1253 H 0.89128 -0.00199 0.594 0.0
C1254 C 0.92006 0.01327 0.64065 0.0
C1255 C 0.93834 0.0173 0.66365 0.0
C1256 C 0.93127 0.00986 0.61383 0.0
C1257 C 0.96725 0.02269 0.65925 0.0
C1258 C 0.97837 0.02096 0.63249 0.0
C1259 C 0.97269 0.0031 0.58512 0.0
C1260 C 0.95558 0.98937 0.56493 0.0
C1261 C 0.96084 0.01257 0.61003 0.0
C1262 C 0.92616 0.98922 0.5675 0.0
C1263 C 0.91397 4e-05 0.59162 0.0
H1264 H 0.7438 0.23795 0.42781 0.0
H1265 H 0.80942 0.17644 0.42791 0.0
H1266 H 0.82471 0.19273 0.38211 0.0
H1267 H 0.81383 0.21767 0.33942 0.0
H1268 H 0.74416 0.27435 0.33644 0.0
H1269 H 0.73669 0.26753 0.3865 0.0
C1270 C 0.76189 0.22855 0.41814 0.0
C1271 C 0.77512 0.20561 0.431 0.0
C1272 C 0.76968 0.23707 0.39124 0.0
C1273 C 0.79868 0.19388 0.41831 0.0
C1274 C 0.80736 0.20312 0.39209 0.0
C1275 C 0.79724 0.22898 0.34971 0.0
C1276 C 0.77897 0.24583 0.33402 0.0
C1277 C 0.79211 0.22367 0.37789 0.0
C1278 C 0.7582 0.26092 0.34792 0.0
C1279 C 0.75382 0.25684 0.37649 0.0
H1280 H 0.5983 -0.0015 0.15782 0.0
H1281 H 0.55328 0.07428 0.17706 0.0
H1282 H 0.53303 0.07425 0.13037 0.0
H1283 H 0.52047 0.04726 0.08821 0.0
H1284 H 0.56411 0.97124 0.06838 0.0
H1285 H 0.59323 0.97711 0.11077 0.0
C1286 C 0.58442 0.01522 0.15159 0.0
C1287 C 0.57643 0.03568 0.17116 0.0
C1288 C 0.57258 0.01499 0.12466 0.0
C1289 C 0.5592 0.05782 0.16261 0.0
C1290 C 0.5476 0.05789 0.13588 0.0
C1291 C 0.53709 0.03263 0.09281 0.0
C1292 C 0.54011 0.00872 0.07594 0.0
C1293 C 0.553 0.03579 0.11734 0.0
C1294 C 0.5616 0.98976 0.0815 0.0
C1295 C 0.57796 0.99297 0.10579 0.0
H1296 H 0.70109 0.80193 0.93525 0.0
H1297 H 0.75955 0.8713 0.91875 0.0
H1298 H 0.76083 0.85782 0.86934 0.0
H1299 H 0.75363 0.81973 0.83399 0.0
H1300 H 0.69787 0.74849 0.85237 0.0
H1301 H 0.68636 0.76947 0.89733 0.0
C1302 C 0.71309 0.81473 0.92049 0.0
C1303 C 0.73012 0.8375 0.9303 0.0
C1304 C 0.71448 0.80616 0.89246 0.0
C1305 C 0.74605 0.85382 0.91136 0.0
C1306 C 0.74702 0.8459 0.88321 0.0
C1307 C 0.73815 0.80948 0.84745 0.0
C1308 C 0.72681 0.78257 0.84022 0.0
C1309 C 0.73256 0.82116 0.87388 0.0
C1310 C 0.70697 0.76919 0.85779 0.0
C1311 C 0.70053 0.78107 0.88354 0.0
H1312 H 0.847 0.8787 0.00626 0.0
H1313 H 0.79341 0.93931 0.04531 0.0
H1314 H 0.833 0.97403 0.04729 0.0
H1315 H 0.88208 0.98793 0.03532 0.0
H1316 H 0.93314 0.92876 0.9916 0.0
H1317 H 0.89569 0.89232 -0.00526 0.0
C1318 C 0.84395 0.89939 0.01551 0.0
C1319 C 0.81721 0.90636 0.02566 0.0
C1320 C 0.86655 0.91936 0.01599 0.0
C1321 C 0.81369 0.93342 0.03726 0.0
C1322 C 0.83634 0.95325 0.03842 0.0
C1323 C 0.88513 0.9669 0.02686 0.0
C1324 C 0.91102 0.96063 0.01425 0.0
C1325 C 0.86276 0.94657 0.02748 0.0
C1326 C 0.91436 0.93351 0.00292 0.0
C1327 C 0.89256 0.91292 0.00413 0.0
H1328 H 0.31445 0.55153 0.97246 0.0
H1329 H 0.33883 0.63396 0.00601 0.0
H1330 H 0.38841 0.62325 0.00113 0.0
H1331 H 0.42501 0.59137 0.98596 0.0
H1332 H 0.40188 0.5075 0.95611 0.0
H1333 H 0.35161 0.51791 0.96054 0.0
C1334 C 0.33063 0.56705 0.97886 0.0
C1335 C 0.32286 0.5936 0.98933 0.0
C1336 C 0.35929 0.56066 0.97627 0.0
C1337 C 0.34411 0.61336 -0.00215 0.0
C1338 C 0.37253 0.60735 -0.00507 0.0
C1339 C 0.40889 0.57552 0.98017 0.0
C1340 C 0.41687 0.54906 0.97005 0.0
C1341 C 0.38034 0.58129 0.9838 0.0
C1342 C 0.39601 0.52821 0.96352 0.0
C1343 C 0.36738 0.53413 0.96617 0.0
H1344 H 0.13544 0.60773 0.73438 0.0
H1345 H 0.2014 0.55173 0.71064 0.0
H1346 H 0.23609 0.59129 0.71292 0.0
H1347 H 0.248 0.64099 0.72563 0.0
H1348 H 0.1818 0.69554 0.75149 0.0
H1349 H 0.14677 0.65729 0.74474 0.0
C1350 C 0.15732 0.60427 0.72925 0.0
C1351 C 0.16596 0.57698 0.72251 0.0
C1352 C 0.17711 0.62674 0.73144 0.0
C1353 C 0.19438 0.57265 0.71611 0.0
C1354 C 0.21419 0.59519 0.7175 0.0
C1355 C 0.22589 0.64445 0.72968 0.0
C1356 C 0.21738 0.67106 0.73912 0.0
C1357 C 0.20589 0.62218 0.72589 0.0
C1358 C 0.18869 0.67535 0.74404 0.0
C1359 C 0.1687 0.65345 0.74023 0.0
H1360 H 0.13791 0.39402 0.51605 0.0
H1361 H 0.17132 0.47793 0.53569 0.0
H1362 H 0.12527 0.49776 0.52513 0.0
H1363 H 0.07826 0.49176 0.50233 0.0
H1364 H 0.04648 0.40796 0.48058 0.0
H1365 H 0.08873 0.38731 0.50069 0.0
C1366 C 0.13504 0.41663 0.51833 0.0
C1367 C 0.15816 0.43459 0.52591 0.0
C1368 C 0.1087 0.4278 0.51194 0.0
C1369 C 0.15394 0.46372 0.52952 0.0
C1370 C 0.12763 0.47505 0.52343 0.0
C1371 C 0.08021 0.46893 0.50312 0.0
C1372 C 0.05941 0.45123 0.4903 0.0
C1373 C 0.10518 0.4574 0.51359 0.0
C1374 C 0.06219 0.42178 0.49072 0.0
C1375 C 0.08649 0.41008 0.50186 0.0
H1376 H 0.87569 0.89237 0.72325 0.0
H1377 H 0.81905 0.9474 0.76595 0.0
H1378 H 0.78503 0.90773 0.77141 0.0
H1379 H 0.76929 0.85892 0.7595 0.0
H1380 H 0.82393 0.80542 0.71305 0.0
H1381 H 0.86131 0.8425 0.71442 0.0
C1382 C 0.85597 0.89568 0.73392 0.0
C1383 C 0.84982 0.92296 0.74392 0.0
C1384 C 0.8364 0.87283 0.73672 0.0
C1385 C 0.82413 0.92681 0.75762 0.0
C1386 C 0.80479 0.90406 0.76099 0.0
C1387 C 0.78994 0.85496 0.75097 0.0
C1388 C 0.79428 0.8292 0.73706 0.0
C1389 C 0.81051 0.8771 0.75026 0.0
C1390 C 0.82056 0.82467 0.72483 0.0
C1391 C 0.84165 0.84614 0.72505 0.0
H1392 H 0.67982 0.08927 0.51478 0.0
H1393 H 0.65621 0.11164 0.43093 0.0
H1394 H 0.61312 0.08147 0.43423 0.0
H1395 H 0.58208 0.04966 0.46178 0.0
H1396 H 0.60596 0.02816 0.54586 0.0
H1397 H 0.64874 0.05838 0.54238 0.0
C1398 C 0.66542 0.08704 0.4971 0.0
C1399 C 0.67107 0.10189 0.47248 0.0
C1400 C 0.6405 0.07078 0.49965 0.0
C1401 C 0.65214 0.09985 0.44989 0.0
C1402 C 0.62753 0.08294 0.45191 0.0
C1403 C 0.5965 0.05213 0.47942 0.0
C1404 C 0.59111 0.03725 0.50412 0.0
C1405 C 0.62133 0.06868 0.47687 0.0
C1406 C 0.60992 0.0398 0.52678 0.0
C1407 C 0.63437 0.05675 0.52468 0.0
H1408 H 0.1997 0.42954 0.73213 0.0
H1409 H 0.20036 0.44628 0.82074 0.0
H1410 H 0.22129 0.40037 0.82928 0.0
H1411 H 0.23171 0.35256 0.81187 0.0
H1412 H 0.22761 0.33542 0.72356 0.0
H1413 H 0.21633 0.38453 0.7144 0.0
C1414 C 0.20488 0.42336 0.75329 0.0
C1415 C 0.1979 0.4409 0.77582 0.0
C1416 C 0.21623 0.39679 0.75803 0.0
C1417 C 0.20528 0.43297 0.80307 0.0
C1418 C 0.21708 0.40666 0.80796 0.0
C1419 C 0.22901 0.35986 0.79061 0.0
C1420 C 0.2308 0.34055 0.7683 0.0
C1421 C 0.22148 0.38793 0.78568 0.0
C1422 C 0.22726 0.35011 0.74088 0.0
C1423 C 0.2203 0.37809 0.73572 0.0
H1424 H 0.29648 0.5818 0.2101 0.0
H1425 H 0.37452 0.59645 0.25591 0.0
H1426 H 0.35975 0.64341 0.26945 0.0
H1427 H 0.32255 0.67778 0.27346 0.0
H1428 H 0.24331 0.66321 0.23054 0.0
H1429 H 0.26071 0.61924 0.21012 0.0
C1430 C 0.31033 0.59541 0.22279 0.0
C1431 C 0.33636 0.58532 0.23239 0.0
C1432 C 0.30151 0.6225 0.23093 0.0
C1433 C 0.35415 0.60334 0.24868 0.0
C1434 C 0.3458 0.63032 0.25635 0.0
C1435 C 0.30952 0.66541 0.25884 0.0
C1436 C 0.28201 0.67382 0.25298 0.0
C1437 C 0.31927 0.63978 0.24827 0.0
C1438 C 0.26489 0.65744 0.23465 0.0
C1439 C 0.27469 0.63208 0.2234 0.0
H1440 H 0.49891 0.64179 0.60979 0.0
H1441 H 0.49539 0.7072 0.54728 0.0
H1442 H 0.49405 0.67104 0.51047 0.0
H1443 H 0.48613 0.62091 0.4969 0.0
H1444 H 0.48248 0.55684 0.5601 0.0
H1445 H 0.49559 0.59214 0.59599 0.0
C1446 C 0.49812 0.64825 0.58812 0.0
C1447 C 0.49654 0.67711 0.58132 0.0
C1448 C 0.4966 0.62743 0.56724 0.0
C1449 C 0.49617 0.68509 0.5531 0.0
C1450 C 0.49543 0.66443 0.53205 0.0
C1451 C 0.48937 0.61471 0.51844 0.0
C1452 C 0.48492 0.58622 0.52607 0.0
C1453 C 0.4946 0.63554 0.53897 0.0
C1454 C 0.48799 0.57829 0.5539 0.0
C1455 C 0.49453 0.59865 0.57436 0.0
H1456 H 0.57966 0.29377 0.80047 0.0
H1457 H 0.55071 0.2065 0.80769 0.0
H1458 H 0.59112 0.19113 0.78111 0.0
H1459 H 0.63861 0.20162 0.76444 0.0
H1460 H 0.67048 0.28823 0.76149 0.0
H1461 H 0.62473 0.30487 0.77662 0.0
C1462 C 0.58191 0.27149 0.79558 0.0
C1463 C 0.56268 0.25119 0.80647 0.0
C1464 C 0.60583 0.2627 0.78116 0.0
C1465 C 0.56564 0.2224 0.79996 0.0
C1466 C 0.58869 0.21362 0.78474 0.0
C1467 C 0.63532 0.2242 0.76638 0.0
C1468 C 0.65805 0.24359 0.76256 0.0
C1469 C 0.60958 0.23344 0.77651 0.0
C1470 C 0.65336 0.27281 0.76452 0.0
C1471 C 0.62728 0.28232 0.77353 0.0
H1472 H 0.02485 0.35626 0.1042 0.0
H1473 H 0.97775 0.30783 0.04219 0.0
H1474 H 0.96791 0.35136 0.01656 0.0
H1475 H 0.98339 0.40055 0.00665 0.0
H1476 H 0.03463 0.44678 0.06686 0.0
H1477 H 0.03031 0.40782 0.0996 0.0
C1478 C 0.01181 0.35552 0.08547 0.0
C1479 C 0.00258 0.3293 0.07446 0.0
C1480 C 0.00648 0.38046 0.07096 0.0
C1481 C 0.98532 0.32808 0.05056 0.0
C1482 C 0.9797 0.35288 0.03602 0.0
C1483 C 0.99191 0.40264 0.02768 0.0
C1484 C 0.0086 0.4267 0.03481 0.0
C1485 C 0.99151 0.37898 0.04527 0.0
C1486 C 0.02036 0.42913 0.06167 0.0
C1487 C 0.01886 0.4063 0.07994 0.0
H1488 H 0.89263 0.74389 0.38037 0.0
H1489 H 0.94854 0.79633 0.3305 0.0
H1490 H 0.90877 0.81208 0.30278 0.0
H1491 H 0.85985 0.80571 0.28849 0.0
H1492 H 0.80494 0.74734 0.33269 0.0
H1493 H 0.84172 0.74033 0.36776 0.0
C1494 C 0.89585 0.75893 0.36357 0.0
C1495 C 0.92329 0.76853 0.35695 0.0
C1496 C 0.87295 0.7671 0.34697 0.0
C1497 C 0.92752 0.78818 0.33538 0.0
C1498 C 0.90483 0.79737 0.31971 0.0
C1499 C 0.85572 0.79192 0.30615 0.0
C1500 C 0.82975 0.77696 0.30794 0.0
C1501 C 0.87765 0.78622 0.3247 0.0
C1502 C 0.82453 0.75949 0.33111 0.0
C1503 C 0.84583 0.755 0.35083 0.0
H1504 H 0.45654 0.33957 0.89502 0.0
H1505 H 0.54692 0.3421 0.90558 0.0
H1506 H 0.54661 0.39379 0.91238 0.0
H1507 H 0.51904 0.4342 0.92773 0.0
H1508 H 0.42826 0.42875 0.9232 0.0
H1509 H 0.43009 0.3828 0.89973 0.0
C1510 C 0.47621 0.35164 0.89822 0.0
C1511 C 0.50159 0.33739 0.9009 0.0
C1512 C 0.47563 0.38084 0.90279 0.0
C1513 C 0.52713 0.35288 0.9041 0.0
C1514 C 0.52689 0.38231 0.90795 0.0
C1515 C 0.4998 0.42364 0.92004 0.0
C1516 C 0.47354 0.43437 0.92735 0.0
C1517 C 0.50106 0.39614 0.90903 0.0
C1518 C 0.44863 0.42068 0.91769 0.0
C1519 C 0.44971 0.39417 0.90485 0.0
H1520 H 0.91442 0.22522 0.1467 0.0
H1521 H 0.92269 0.31277 0.17279 0.0
H1522 H 0.87684 0.30887 0.19576 0.0
H1523 H 0.83739 0.27835 0.21375 0.0
H1524 H 0.83046 0.19107 0.1868 0.0
H1525 H 0.87248 0.19723 0.15856 0.0
C1526 C 0.9061 0.2436 0.15711 0.0
C1527 C 0.92221 0.269 0.15858 0.0
C1528 C 0.87979 0.24131 0.17004 0.0
C1529 C 0.91088 0.29275 0.17176 0.0
C1530 C 0.88459 0.29062 0.1848 0.0
C1531 C 0.84441 0.26123 0.20061 0.0
C1532 C 0.83094 0.2344 0.20217 0.0
C1533 C 0.86915 0.26475 0.18472 0.0
C1534 C 0.8405 0.21201 0.18564 0.0
C1535 C 0.8647 0.21538 0.16975 0.0
H1536 H 0.00842 0.67653 0.4653 0.0
H1537 H 0.03957 0.66457 0.38177 0.0
H1538 H 0.04757 0.61482 0.39173 0.0
H1539 H 0.03996 0.57379 0.42196 0.0
H1540 H 0.00683 0.58543 0.50484 0.0
H1541 H 0.00588 0.63642 0.49738 0.0
C1542 C 0.0173 0.66314 0.44936 0.0
C1543 C 0.02287 0.67408 0.42268 0.0
C1544 C 0.02136 0.63449 0.45504 0.0
C1545 C 0.0348 0.65659 0.40241 0.0
C1546 C 0.03933 0.62812 0.40806 0.0
C1547 C 0.03295 0.58745 0.43862 0.0
C1548 C 0.02297 0.57566 0.46372 0.0
C1549 C 0.0318 0.61667 0.43399 0.0
C1550 C 0.01431 0.59383 0.48515 0.0
C1551 C 0.01366 0.62302 0.4809 0.0
H1552 H 0.56454 0.72319 0.71907 0.0
H1553 H 0.56918 0.78836 0.65589 0.0
H1554 H 0.61631 0.8021 0.67126 0.0
H1555 H 0.65626 0.79519 0.70046 0.0
H1556 H 0.65541 0.73036 0.76372 0.0
H1557 H 0.60634 0.717 0.75053 0.0
C1558 C 0.57583 0.74056 0.70892 0.0
C1559 C 0.56321 0.75473 0.68636 0.0
C1560 C 0.60342 0.74842 0.71779 0.0
C1561 C 0.57817 0.77709 0.6733 0.0
C1562 C 0.60521 0.78501 0.68205 0.0
C1563 C 0.64547 0.77836 0.71192 0.0
C1564 C 0.65956 0.76385 0.73317 0.0
C1565 C 0.61798 0.77076 0.70405 0.0
C1566 C 0.64512 0.74175 0.74714 0.0
C1567 C 0.6171 0.73419 0.73962 0.0
H1568 H 0.54913 0.54061 0.67939 0.0
H1569 H 0.55907 0.45163 0.69543 0.0
H1570 H 0.53593 0.43962 0.65079 0.0
H1571 H 0.51836 0.4548 0.60508 0.0
H1572 H 0.51886 0.54372 0.58595 0.0
H1573 H 0.53065 0.55566 0.63415 0.0
C1574 C 0.54581 0.51857 0.67326 0.0
C1575 C 0.55578 0.497 0.69048 0.0
C1576 C 0.53373 0.51196 0.64713 0.0
C1577 C 0.55175 0.46855 0.68228 0.0
C1578 C 0.53845 0.46172 0.65687 0.0
C1579 C 0.52027 0.47679 0.61175 0.0
C1580 C 0.51609 0.4985 0.59222 0.0
C1581 C 0.53007 0.4833 0.63881 0.0
C1582 C 0.51947 0.52683 0.6009 0.0
C1583 C 0.52734 0.53356 0.62834 0.0
H1584 H 0.72303 0.33339 0.91995 0.0
H1585 H 0.81291 0.3485 0.91378 0.0
H1586 H 0.81352 0.32154 0.87003 0.0
H1587 H 0.78924 0.28813 0.83719 0.0
H1588 H 0.70048 0.26867 0.84756 0.0
H1589 H 0.69846 0.30283 0.88584 0.0
C1590 C 0.74257 0.33139 0.90859 0.0
C1591 C 0.76785 0.34264 0.91992 0.0
C1592 C 0.74299 0.31452 0.88452 0.0
C1593 C 0.7932 0.33976 0.90532 0.0
C1594 C 0.79358 0.32423 0.88048 0.0
C1595 C 0.76956 0.29156 0.8479 0.0
C1596 C 0.74523 0.27562 0.8403 0.0
C1597 C 0.76879 0.31051 0.87053 0.0
C1598 C 0.71963 0.28027 0.85383 0.0
C1599 C 0.7184 0.29992 0.87548 0.0
H1600 H 0.99358 0.4897 0.18319 0.0
H1601 H 0.94779 0.56688 0.19104 0.0
H1602 H 0.95845 0.57877 0.14262 0.0
H1603 H 0.97207 0.56225 0.09628 0.0
H1604 H 0.01386 0.48298 0.08769 0.0
H1605 H 0.01329 0.47662 0.13814 0.0
C1606 C 0.9868 0.50964 0.17464 0.0
C1607 C 0.96952 0.52717 0.19045 0.0
C1608 C 0.99147 0.51541 0.14638 0.0
C1609 C 0.96092 0.55294 0.17912 0.0
C1610 C 0.96671 0.55955 0.15136 0.0
C1611 C 0.98134 0.54371 0.10543 0.0
C1612 C 0.99235 0.5226 0.08813 0.0
C1613 C 0.98045 0.54008 0.13442 0.0
C1614 C 0.00491 0.49918 0.10045 0.0
C1615 C 0.00461 0.49562 0.12934 0.0
H1616 H 0.76957 0.73346 0.42892 0.0
H1617 H 0.78087 0.64547 0.4087 0.0
H1618 H 0.77623 0.65579 0.35907 0.0
H1619 H 0.75431 0.68689 0.32413 0.0
H1620 H 0.74048 0.77411 0.34532 0.0
H1621 H 0.76112 0.76737 0.39159 0.0
C1622 C 0.77221 0.71682 0.41353 0.0
C1623 C 0.7744 0.68867 0.42233 0.0
C1624 C 0.76836 0.72272 0.38517 0.0
C1625 C 0.77863 0.66731 0.40237 0.0
C1626 C 0.77561 0.67312 0.37396 0.0
C1627 C 0.75712 0.7046 0.33852 0.0
C1628 C 0.74583 0.7308 0.33181 0.0
C1629 C 0.76819 0.70028 0.3654 0.0
C1630 C 0.74911 0.75375 0.3504 0.0
C1631 C 0.76071 0.74985 0.37685 0.0
H1632 H 0.61521 0.49929 0.85694 0.0
H1633 H 0.53877 0.46524 0.81892 0.0
H1634 H 0.51507 0.46561 0.86401 0.0
H1635 H 0.51225 0.49113 0.9085 0.0
H1636 H 0.58679 0.53211 0.94379 0.0
H1637 H 0.61547 0.51307 0.90639 0.0
C1638 C 0.59385 0.49062 0.85901 0.0
C1639 C 0.57847 0.48262 0.83501 0.0
C1640 C 0.57989 0.49293 0.88453 0.0
C1641 C 0.55078 0.47159 0.83739 0.0
C1642 C 0.53718 0.47213 0.86307 0.0
C1643 C 0.53501 0.49446 0.9087 0.0
C1644 C 0.54759 0.51303 0.92834 0.0
C1645 C 0.55083 0.48507 0.88611 0.0
C1646 C 0.5769 0.51789 0.92852 0.0
C1647 C 0.59318 0.50723 0.90702 0.0
H1648 H 0.76284 0.2831 0.06448 0.0
H1649 H 0.69212 0.33857 0.06215 0.0
H1650 H 0.67638 0.32054 0.10723 0.0
H1651 H 0.68859 0.29718 0.15079 0.0
H1652 H 0.76256 0.24617 0.15519 0.0
H1653 H 0.77054 0.2535 0.10547 0.0
C1654 C 0.74362 0.29082 0.07351 0.0
C1655 C 0.72914 0.31277 0.06042 0.0
C1656 C 0.73542 0.2813 0.09996 0.0
C1657 C 0.70399 0.32211 0.07212 0.0
C1658 C 0.695 0.31185 0.09792 0.0
C1659 C 0.70618 0.28716 0.14082 0.0
C1660 C 0.72555 0.27202 0.15693 0.0
C1661 C 0.7115 0.29271 0.11267 0.0
C1662 C 0.74762 0.25839 0.14344 0.0
C1663 C 0.75233 0.26276 0.11503 0.0
H1664 H 0.90362 0.52705 0.33808 0.0
H1665 H 0.90339 0.43688 0.32275 0.0
H1666 H 0.90984 0.42797 0.37225 0.0
H1667 H 0.92989 0.44649 0.41596 0.0
H1668 H 0.93371 0.53639 0.43142 0.0
H1669 H 0.91044 0.54487 0.38659 0.0
C1670 C 0.90404 0.50551 0.34582 0.0
C1671 C 0.90435 0.48271 0.32691 0.0
C1672 C 0.90867 0.50054 0.37439 0.0
C1673 C 0.90425 0.4548 0.33701 0.0
C1674 C 0.90782 0.44965 0.36531 0.0
C1675 C 0.92415 0.46775 0.41006 0.0
C1676 C 0.93393 0.49082 0.42622 0.0
C1677 C 0.91223 0.47242 0.38377 0.0
C1678 C 0.92641 0.51835 0.41892 0.0
C1679 C 0.91357 0.52322 0.39308 0.0
H1680 H 0.78186 0.67812 0.58239 0.0
H1681 H 0.69113 0.67737 0.57378 0.0
H1682 H 0.68674 0.69442 0.62146 0.0
H1683 H 0.70859 0.71675 0.66247 0.0
H1684 H 0.79899 0.72034 0.67193 0.0
H1685 H 0.80383 0.69472 0.62744 0.0
C1686 C 0.76121 0.68128 0.59125 0.0
C1687 C 0.73687 0.67725 0.57447 0.0
C1688 C 0.75884 0.69187 0.61869 0.0
C1689 C 0.71017 0.68108 0.58613 0.0
C1690 C 0.70762 0.69074 0.6134 0.0
C1691 C 0.7293 0.7113 0.655 0.0
C1692 C 0.75341 0.72053 0.66996 0.0
C1693 C 0.73178 0.69734 0.62938 0.0
C1694 C 0.78019 0.71329 0.66054 0.0
C1695 C 0.7829 0.69891 0.63504 0.0
H1696 H 0.64266 0.62349 0.47417 0.0
H1697 H 0.70304 0.55695 0.47851 0.0
H1698 H 0.66445 0.52147 0.48088 0.0
H1699 H 0.61425 0.5099 0.48637 0.0
H1700 H 0.55372 0.5764 0.48485 0.0
H1701 H 0.59188 0.61145 0.4764 0.0
C1702 C 0.64745 0.6012 0.47521 0.0
C1703 C 0.67579 0.59292 0.4764 0.0
C1704 C 0.62517 0.58099 0.47733 0.0
C1705 C 0.68149 0.56393 0.47776 0.0
C1706 C 0.65943 0.54365 0.47919 0.0
C1707 C 0.60926 0.53204 0.48406 0.0
C1708 C 0.58113 0.54053 0.48666 0.0
C1709 C 0.63128 0.55203 0.47979 0.0
C1710 C 0.57513 0.56926 0.48305 0.0
C1711 C 0.59697 0.58931 0.47833 0.0
H1712 H 0.17141 0.95052 0.47212 0.0
H1713 H 0.1713 0.89728 0.54517 0.0
H1714 H 0.12432 0.91257 0.55704 0.0
H1715 H 0.08152 0.9368 0.5441 0.0
H1716 H 0.08054 0.98926 0.47067 0.0
H1717 H 0.12982 0.97886 0.46175 0.0
C1718 C 0.16127 0.94258 0.49084 0.0
C1719 C 0.17467 0.92244 0.50746 0.0
C1720 C 0.13399 0.95116 0.49739 0.0
C1721 C 0.16131 0.9125 0.53177 0.0
C1722 C 0.13442 0.92122 0.53861 0.0
C1723 C 0.09215 0.94626 0.52632 0.0
C1724 C 0.07721 0.9634 0.50782 0.0
C1725 C 0.12028 0.93987 0.52114 0.0
C1726 C 0.09148 0.97587 0.48515 0.0
C1727 C 0.11965 0.96981 0.47997 0.0
H1728 H 0.31922 0.94362 0.74664 0.0
H1729 H 0.366 0.89672 0.686 0.0
H1730 H 0.33641 0.85437 0.69468 0.0
H1731 H 0.29965 0.83014 0.72179 0.0
H1732 H 0.25264 0.87666 0.78245 0.0
H1733 H 0.28078 0.9198 0.77226 0.0
C1734 C 0.32232 0.92438 0.73471 0.0
C1735 C 0.34458 0.92319 0.71566 0.0
C1736 C 0.30606 0.89992 0.74065 0.0
C1737 C 0.34879 0.89805 0.70064 0.0
C1738 C 0.33221 0.87379 0.7059 0.0
C1739 C 0.29603 0.84959 0.73321 0.0
C1740 C 0.27474 0.85028 0.7533 0.0
C1741 C 0.31146 0.8743 0.7265 0.0
C1742 C 0.2694 0.87573 0.76727 0.0
C1743 C 0.28517 0.90037 0.76119 0.0
H1744 H 0.35142 0.10232 0.00737 0.0
H1745 H 0.30814 0.03523 0.96102 0.0
H1746 H 0.34949 0.00572 0.9653 0.0
H1747 H 0.39579 0.99705 0.98733 0.0
H1748 H 0.43873 0.06413 0.03361 0.0
H1749 H 0.40032 0.09604 0.02345 0.0
C1750 C 0.35112 0.08127 -0.00185 0.0
C1751 C 0.32656 0.07066 0.98451 0.0
C1752 C 0.37513 0.06465 0.0003 0.0
C1753 C 0.32668 0.04368 0.97198 0.0
C1754 C 0.35035 0.02685 0.97433 0.0
C1755 C 0.39717 0.01904 -0.00593 0.0
C1756 C 0.42018 0.02857 0.01063 0.0
C1757 C 0.37447 0.03688 0.98896 0.0
C1758 C 0.4215 0.05673 0.02015 0.0
C1759 C 0.3993 0.07477 0.01479 0.0
H1760 H 0.64063 0.61168 0.74509 0.0
H1761 H 0.70178 0.54762 0.7607 0.0
H1762 H 0.7395 0.58422 0.76248 0.0
H1763 H 0.75367 0.63455 0.76679 0.0
H1764 H 0.69281 0.69877 0.75255 0.0
H1765 H 0.65643 0.66202 0.74208 0.0
C1766 C 0.66226 0.60566 0.74859 0.0
C1767 C 0.66828 0.57694 0.75341 0.0
C1768 C 0.68383 0.62685 0.74966 0.0
C1769 C 0.6965 0.5695 0.75725 0.0
C1770 C 0.71807 0.59044 0.75827 0.0
C1771 C 0.73264 0.64049 0.76047 0.0
C1772 C 0.72577 0.66931 0.76062 0.0
C1773 C 0.71182 0.6192 0.75545 0.0
C1774 C 0.69859 0.67682 0.75233 0.0
C1775 C 0.67773 0.65572 0.7468 0.0
H1776 H 0.85693 0.39631 0.01935 0.0
H1777 H 0.79725 0.46252 0.0072 0.0
H1778 H 0.83607 0.49571 -0.00488 0.0
H1779 H 0.88677 0.50538 0.98792 0.0
H1780 H 0.94539 0.43779 -0.0018 0.0
H1781 H 0.90657 0.40509 0.00981 0.0
C1782 C 0.85228 0.41811 0.01451 0.0
C1783 C 0.82424 0.42707 0.01462 0.0
C1784 C 0.87435 0.4365 0.00644 0.0
C1785 C 0.8187 0.45524 0.00768 0.0
C1786 C 0.84082 0.47407 0.00044 0.0
C1787 C 0.89107 0.4834 0.99232 0.0
C1788 C 0.91908 0.47419 0.99253 0.0
C1789 C 0.86868 0.46479 -0.00051 0.0
C1790 C 0.92413 0.44553 -0.00209 0.0
C1791 C 0.90197 0.42688 0.00491 0.0
H1792 H 0.28839 0.05982 0.7405 0.0
H1793 H 0.37495 0.08887 0.75316 0.0
H1794 H 0.36014 0.13748 0.75728 0.0
H1795 H 0.32398 0.17215 0.75218 0.0
H1796 H 0.23757 0.14572 0.73626 0.0
H1797 H 0.25061 0.09559 0.73916 0.0
C1798 C 0.30387 0.07684 0.74436 0.0
C1799 C 0.33279 0.07084 0.74595 0.0
C1800 C 0.29522 0.10511 0.74614 0.0
C1801 C 0.35266 0.09299 0.75119 0.0
C1802 C 0.34422 0.1208 0.75374 0.0
C1803 C 0.30793 0.15533 0.74983 0.0
C1804 C 0.28005 0.16226 0.7438 0.0
C1805 C 0.31577 0.12712 0.75049 0.0
C1806 C 0.25921 0.14063 0.741 0.0
C1807 C 0.26675 0.11209 0.74238 0.0
H1808 H 0.20306 0.92016 0.28299 0.0
H1809 H 0.13715 0.92404 0.2204 0.0
H1810 H 0.14711 0.87644 0.20472 0.0
H1811 H 0.17729 0.83604 0.205 0.0
H1812 H 0.24668 0.83259 0.26323 0.0
H1813 H 0.23213 0.8769 0.28517 0.0
C1814 C 0.19095 0.91048 0.26596 0.0
C1815 C 0.16981 0.92591 0.25248 0.0
C1816 C 0.19717 0.883 0.25653 0.0
C1817 C 0.15403 0.91301 0.23064 0.0
C1818 C 0.15949 0.88564 0.22181 0.0
C1819 C 0.18875 0.84463 0.22302 0.0
C1820 C 0.21268 0.83096 0.23277 0.0
C1821 C 0.18134 0.87076 0.23414 0.0
C1822 C 0.22763 0.84227 0.25592 0.0
C1823 C 0.21965 0.86797 0.26802 0.0
H1824 H 0.46514 0.33448 0.437 0.0
H1825 H 0.54742 0.33252 0.39912 0.0
H1826 H 0.558 0.38078 0.41546 0.0
H1827 H 0.54684 0.42 0.44646 0.0
H1828 H 0.46616 0.42151 0.48666 0.0
H1829 H 0.45124 0.37747 0.46242 0.0
C1830 C 0.48534 0.34467 0.4322 0.0
C1831 C 0.50579 0.32965 0.41751 0.0
C1832 C 0.49131 0.37243 0.44173 0.0
C1833 C 0.53153 0.34341 0.41079 0.0
C1834 C 0.53754 0.37105 0.42001 0.0
C1835 C 0.52558 0.41118 0.44902 0.0
C1836 C 0.50759 0.42357 0.46837 0.0
C1837 C 0.51796 0.38534 0.4362 0.0
C1838 C 0.48016 0.41228 0.4717 0.0
C1839 C 0.47192 0.38686 0.45823 0.0
H1840 H 0.4227 0.77279 0.16088 0.0
H1841 H 0.43528 0.72111 0.23376 0.0
H1842 H 0.38599 0.72676 0.24686 0.0
H1843 H 0.33853 0.74323 0.23528 0.0
H1844 H 0.32682 0.79356 0.16114 0.0
H1845 H 0.37672 0.79134 0.15088 0.0
C1846 C 0.41484 0.76295 0.17981 0.0
C1847 C 0.43253 0.74632 0.19614 0.0
C1848 C 0.38656 0.76577 0.18684 0.0
C1849 C 0.42201 0.73393 0.22072 0.0
C1850 C 0.39382 0.73705 0.22817 0.0
C1851 C 0.34692 0.7539 0.21701 0.0
C1852 C 0.32882 0.76827 0.1989 0.0
C1853 C 0.37575 0.75239 0.211 0.0
C1854 C 0.34012 0.78209 0.17536 0.0
C1855 C 0.36871 0.78092 0.16944 0.0
H1856 H 0.02576 0.68706 0.96541 0.0
H1857 H 0.01313 0.65683 0.88114 0.0
H1858 H 0.01893 0.60795 0.89637 0.0
H1859 H 0.01344 0.57474 0.93559 0.0
H1860 H 0.02658 0.60515 0.01956 0.0
H1861 H 0.03673 0.65295 0.00259 0.0
C1862 C 0.02511 0.66974 0.95041 0.0
C1863 C 0.01794 0.67496 0.92257 0.0
C1864 C 0.02881 0.64184 0.95926 0.0
C1865 C 0.01798 0.65285 0.90288 0.0
C1866 C 0.02135 0.62499 0.91154 0.0
C1867 C 0.02043 0.59148 0.9499 0.0
C1868 C 0.01823 0.58708 0.97865 0.0
C1869 C 0.02489 0.61915 0.93997 0.0
C1870 C 0.02776 0.60849 -0.00278 0.0
C1871 C 0.03287 0.63597 0.98758 0.0
H1872 H 0.10655 0.24783 0.64222 0.0
H1873 H 0.04583 0.26837 0.70504 0.0
H1874 H 0.08135 0.26108 0.74176 0.0
H1875 H 0.13019 0.25096 0.75519 0.0
H1876 H 0.1897 0.22863 0.69144 0.0
H1877 H 0.15356 0.23372 0.65571 0.0
C1878 C 0.1012 0.25107 0.66396 0.0
C1879 C 0.07408 0.25945 0.67108 0.0
C1880 C 0.12123 0.246 0.68465 0.0
C1881 C 0.0669 0.26247 0.69925 0.0
C1882 C 0.08707 0.2581 0.72012 0.0
C1883 C 0.13516 0.2467 0.73355 0.0
C1884 C 0.16278 0.23991 0.726 0.0
C1885 C 0.11436 0.25001 0.71299 0.0
C1886 C 0.16873 0.23422 0.69786 0.0
C1887 C 0.14814 0.23729 0.67735 0.0
H1888 H 0.49643 0.62939 0.12973 0.0
H1889 H 0.54198 0.69077 0.07943 0.0
H1890 H 0.55192 0.6542 0.04516 0.0
H1891 H 0.54314 0.60683 0.02706 0.0
H1892 H 0.49115 0.54699 0.07261 0.0
H1893 H 0.48947 0.58011 0.11199 0.0
C1894 C 0.5087 0.63452 0.11134 0.0
C1895 C 0.51815 0.66262 0.10674 0.0
C1896 C 0.51344 0.61357 0.09115 0.0
C1897 C 0.53407 0.66929 0.08299 0.0
C1898 C 0.53994 0.6484 0.06355 0.0
C1899 C 0.53168 0.6008 0.04574 0.0
C1900 C 0.51691 0.57454 0.04681 0.0
C1901 C 0.52905 0.62073 0.06706 0.0
C1902 C 0.50281 0.56688 0.07139 0.0
C1903 C 0.50147 0.58609 0.09367 0.0
H1904 H 0.08313 0.72203 0.82214 0.0
H1905 H 0.12285 0.7672 0.89115 0.0
H1906 H 0.16746 0.77009 0.86576 0.0
H1907 H 0.18967 0.77126 0.81961 0.0
H1908 H 0.14668 0.7322 0.74929 0.0
H1909 H 0.10932 0.71395 0.77955 0.0
C1910 C 0.10176 0.73199 0.83178 0.0
C1911 C 0.09973 0.74538 0.8578 0.0
C1912 C 0.12679 0.73431 0.81678 0.0
C1913 C 0.12399 0.75734 0.87074 0.0
C1914 C 0.14941 0.759 0.85624 0.0
C1915 C 0.17302 0.75722 0.81144 0.0
C1916 C 0.17095 0.75247 0.78263 0.0
C1917 C 0.15046 0.74913 0.8286 0.0
C1918 C 0.1488 0.7354 0.77163 0.0
C1919 C 0.1272 0.72551 0.78884 0.0
H1920 H 0.98544 0.31724 0.53449 0.0
H1921 H 0.95578 0.32646 0.61872 0.0
H1922 H 0.93955 0.37393 0.60796 0.0
H1923 H 0.9421 0.41529 0.57715 0.0
H1924 H 0.97365 0.4061 0.49333 0.0
H1925 H 0.98016 0.35584 0.50119 0.0
C1926 C 0.97473 0.32942 0.55023 0.0
C1927 C 0.97215 0.3188 0.5774 0.0
C1928 C 0.96606 0.35673 0.54404 0.0
C1929 C 0.95796 0.33437 0.59764 0.0
C1930 C 0.94892 0.36156 0.59155 0.0
C1931 C 0.94972 0.4022 0.56033 0.0
C1932 C 0.95811 0.41465 0.53496 0.0
C1933 C 0.95409 0.3734 0.56519 0.0
C1934 C 0.96753 0.39723 0.51327 0.0
C1935 C 0.97136 0.36846 0.51775 0.0
H1936 H 0.41911 0.28759 0.3366 0.0
H1937 H 0.44911 0.21041 0.30075 0.0
H1938 H 0.40822 0.20774 0.26894 0.0
H1939 H 0.35935 0.2217 0.25992 0.0
H1940 H 0.32896 0.29794 0.29731 0.0
H1941 H 0.37511 0.30762 0.31905 0.0
C1942 C 0.41699 0.27068 0.3212 0.0
C1943 C 0.43645 0.24888 0.32116 0.0
C1944 C 0.39346 0.26928 0.3033 0.0
C1945 C 0.43407 0.22722 0.3011 0.0
C1946 C 0.41071 0.22569 0.28306 0.0
C1947 C 0.36342 0.24115 0.27166 0.0
C1948 C 0.34103 0.2591 0.27712 0.0
C1949 C 0.38958 0.2458 0.28506 0.0
C1950 C 0.34612 0.28413 0.29252 0.0
C1951 C 0.37233 0.28933 0.30541 0.0
H1952 H 0.46228 0.46584 0.31792 0.0
H1953 H 0.43196 0.55013 0.30461 0.0
H1954 H 0.44725 0.56396 0.3516 0.0
H1955 H 0.46272 0.55027 0.39796 0.0
H1956 H 0.48908 0.46503 0.41333 0.0
H1957 H 0.4827 0.45355 0.36362 0.0
C1958 C 0.45945 0.48737 0.32514 0.0
C1959 C 0.44556 0.50682 0.308 0.0
C1960 C 0.4675 0.49492 0.35249 0.0
C1961 C 0.44218 0.53467 0.31756 0.0
C1962 C 0.45094 0.54259 0.34439 0.0
C1963 C 0.46742 0.52924 0.39039 0.0
C1964 C 0.47571 0.5083 0.40928 0.0
C1965 C 0.4626 0.52259 0.36229 0.0
C1966 C 0.4825 0.48142 0.39916 0.0
C1967 C 0.4786 0.47483 0.37082 0.0
H1968 H 0.24396 0.6507 0.08748 0.0
H1969 H 0.16593 0.68876 0.06279 0.0
H1970 H 0.15755 0.70276 0.11076 0.0
H1971 H 0.17849 0.71485 0.15617 0.0
H1972 H 0.25841 0.68096 0.17982 0.0
H1973 H 0.2592 0.65329 0.13671 0.0
C1974 C 0.22488 0.66158 0.09272 0.0
C1975 C 0.20628 0.66981 0.07147 0.0
C1976 C 0.22041 0.67013 0.12035 0.0
C1977 C 0.18113 0.68301 0.07863 0.0
C1978 C 0.17619 0.69093 0.10611 0.0
C1979 C 0.19534 0.7003 0.15235 0.0
C1980 C 0.21854 0.70013 0.17062 0.0
C1981 C 0.19655 0.68616 0.12672 0.0
C1982 C 0.24023 0.68116 0.166 0.0
C1983 C 0.24099 0.66587 0.14101 0.0
H1984 H 0.03867 0.51444 0.81064 0.0
H1985 H 0.12402 0.48918 0.82737 0.0
H1986 H 0.11315 0.48351 0.87646 0.0
H1987 H 0.07981 0.48377 0.91393 0.0
H1988 H 0.99372 0.50722 0.89958 0.0
H1989 H 0.00458 0.51607 0.85003 0.0
C1990 C 0.05481 0.50767 0.8251 0.0
C1991 C 0.08203 0.50183 0.81529 0.0
C1992 C 0.04831 0.50411 0.85351 0.0
C1993 C 0.10282 0.4933 0.83423 0.0
C1994 C 0.09668 0.49019 0.86234 0.0
C1995 C 0.06318 0.49053 0.89998 0.0
C1996 C 0.03578 0.49403 0.91014 0.0
C1997 C 0.06949 0.49513 0.87203 0.0
C1998 C 0.01487 0.504 0.89209 0.0
C1999 C 0.0211 0.50895 0.86384 0.0
H2000 H 0.2273 0.34899 0.60443 0.0
H2001 H 0.20672 0.27068 0.56128 0.0
H2002 H 0.20897 0.24468 0.6052 0.0
H2003 H 0.23026 0.24297 0.65196 0.0
H2004 H 0.26037 0.3201 0.69171 0.0
H2005 H 0.24021 0.34808 0.65414 0.0
C2006 C 0.22207 0.32645 0.60501 0.0
C2007 C 0.21702 0.31161 0.5799 0.0
C2008 C 0.22558 0.31144 0.62997 0.0
C2009 C 0.21072 0.28237 0.58051 0.0
C2010 C 0.21226 0.26752 0.60557 0.0
C2011 C 0.23099 0.26597 0.65292 0.0
C2012 C 0.24588 0.2797 0.67479 0.0
C2013 C 0.22165 0.28157 0.62997 0.0
C2014 C 0.24779 0.30936 0.67566 0.0
C2015 C 0.23688 0.32525 0.65378 0.0
H2016 H 0.39565 0.50977 0.13976 0.0
H2017 H 0.47957 0.5065 0.17469 0.0
H2018 H 0.49955 0.50461 0.128 0.0
H2019 H 0.49178 0.4912 0.07917 0.0
H2020 H 0.40793 0.48968 0.04412 0.0
H2021 H 0.38903 0.50637 0.08856 0.0
C2022 C 0.41833 0.50974 0.13695 0.0
C2023 C 0.43619 0.50774 0.16032 0.0
C2024 C 0.42952 0.50718 0.11002 0.0
C2025 C 0.46554 0.50763 0.15677 0.0
C2026 C 0.47692 0.50639 0.13014 0.0
C2027 C 0.46959 0.49584 0.08105 0.0
C2028 C 0.45121 0.48972 0.05873 0.0
C2029 C 0.45896 0.50423 0.10683 0.0
C2030 C 0.42238 0.49489 0.06116 0.0
C2031 C 0.41161 0.5041 0.08661 0.0
H2032 H 0.23566 0.74506 0.93082 0.0
H2033 H 0.30516 0.68837 0.93723 0.0
H2034 H 0.32048 0.70175 0.89055 0.0
H2035 H 0.30755 0.72071 0.845 0.0
H2036 H 0.23593 0.77453 0.83744 0.0
H2037 H 0.22798 0.77103 0.88755 0.0
C2038 C 0.25462 0.73619 0.92235 0.0
C2039 C 0.26866 0.715 0.93705 0.0
C2040 C 0.26242 0.74283 0.89499 0.0
C2041 C 0.2936 0.70428 0.92609 0.0
C2042 C 0.30224 0.71174 0.89928 0.0
C2043 C 0.29044 0.73209 0.85428 0.0
C2044 C 0.27148 0.74676 0.83724 0.0
C2045 C 0.2857 0.72953 0.88297 0.0
C2046 C 0.25009 0.76214 0.84987 0.0
C2047 C 0.24565 0.76029 0.87857 0.0
H2048 H 0.1168 0.49343 0.64472 0.0
H2049 H 0.05433 0.43712 0.68131 0.0
H2050 H 0.02902 0.43342 0.63672 0.0
H2051 H 0.01778 0.45755 0.59345 0.0
H2052 H 0.07576 0.52016 0.55947 0.0
H2053 H 0.11025 0.51011 0.59653 0.0
C2054 C 0.09845 0.47923 0.64232 0.0
C2055 C 0.08715 0.46561 0.66587 0.0
C2056 C 0.08283 0.47934 0.61741 0.0
C2057 C 0.06327 0.44755 0.66318 0.0
C2058 C 0.04864 0.44586 0.63787 0.0
C2059 C 0.03831 0.46847 0.59393 0.0
C2060 C 0.04421 0.49018 0.57483 0.0
C2061 C 0.05704 0.46348 0.61576 0.0
C2062 C 0.07084 0.50383 0.57464 0.0
C2063 C 0.09038 0.49808 0.59577 0.0
H2064 H 0.20908 0.29294 0.44111 0.0
H2065 H 0.24682 0.3715 0.41237 0.0
H2066 H 0.24774 0.35274 0.36449 0.0
H2067 H 0.24556 0.31073 0.333 0.0
H2068 H 0.21062 0.23146 0.36368 0.0
H2069 H 0.20006 0.25375 0.40825 0.0
C2070 C 0.21653 0.30622 0.4241 0.0
C2071 C 0.22769 0.33347 0.42997 0.0
C2072 C 0.21781 0.29494 0.39702 0.0
C2073 C 0.23774 0.35054 0.40807 0.0
C2074 C 0.23856 0.33968 0.38081 0.0
C2075 C 0.23495 0.29865 0.34923 0.0
C2076 C 0.22925 0.26943 0.34531 0.0
C2077 C 0.22981 0.31143 0.37528 0.0
C2078 C 0.21559 0.25389 0.36645 0.0
C2079 C 0.20958 0.2666 0.39194 0.0
H2080 H 0.34413 0.38454 0.52825 0.0
H2081 H 0.2843 0.45134 0.52092 0.0
H2082 H 0.32313 0.48655 0.51917 0.0
H2083 H 0.37352 0.49781 0.51492 0.0
H2084 H 0.43381 0.43147 0.5218 0.0
H2085 H 0.39517 0.3966 0.52877 0.0
C2086 C 0.3395 0.40682 0.52655 0.0
C2087 C 0.3112 0.41518 0.52427 0.0
C2088 C 0.36198 0.42698 0.52518 0.0
C2089 C 0.30575 0.44421 0.52247 0.0
C2090 C 0.32799 0.46437 0.5214 0.0
C2091 C 0.37841 0.47575 0.51809 0.0
C2092 C 0.40668 0.4672 0.51685 0.0
C2093 C 0.35612 0.4559 0.52194 0.0
C2094 C 0.41236 0.43862 0.52185 0.0
C2095 C 0.39022 0.41867 0.52591 0.0
H2096 H 0.82813 0.0861 0.5132 0.0
H2097 H 0.79372 0.04081 0.44156 0.0
H2098 H 0.83805 0.01629 0.43614 0.0
H2099 H 0.88897 0.01304 0.44798 0.0
H2100 H 0.9224 0.05799 0.52007 0.0
H2101 H 0.87616 0.07738 0.5292 0.0
C2102 C 0.83021 0.07062 0.49658 0.0
C2103 C 0.80798 0.06581 0.47738 0.0
C2104 C 0.8557 0.05675 0.49356 0.0
C2105 C 0.8107 0.04518 0.45639 0.0
C2106 C 0.83608 0.03122 0.45322 0.0
C2107 C 0.88573 0.02647 0.46603 0.0
C2108 C 0.90869 0.03429 0.48335 0.0
C2109 C 0.85906 0.03759 0.47108 0.0
C2110 C 0.90471 0.05175 0.50664 0.0
C2111 C 0.8784 0.06293 0.51175 0.0
H2112 H 0.63892 0.11228 0.28967 0.0
H2113 H 0.68881 0.05225 0.24486 0.0
H2114 H 0.72096 0.09061 0.23023 0.0
H2115 H 0.7338 0.14119 0.22875 0.0
H2116 H 0.6853 0.20073 0.275 0.0
H2117 H 0.65225 0.16273 0.2889 0.0
C2118 C 0.65708 0.10745 0.27709 0.0
C2119 C 0.66137 0.07944 0.26829 0.0
C2120 C 0.67489 0.12964 0.26799 0.0
C2121 C 0.6851 0.07358 0.25211 0.0
C2122 C 0.70323 0.09555 0.24333 0.0
C2123 C 0.71572 0.14583 0.24154 0.0
C2124 C 0.71143 0.17378 0.25035 0.0
C2125 C 0.69794 0.12366 0.25068 0.0
C2126 C 0.68814 0.17963 0.26699 0.0
C2127 C 0.6698 0.15775 0.27557 0.0
H2128 H 0.6725 0.96932 0.03037 0.0
H2129 H 0.64406 0.88149 0.02826 0.0
H2130 H 0.59675 0.89527 0.01501 0.0
H2131 H 0.56658 0.93136 -0.00529 0.0
H2132 H 0.59524 0.01872 -0.00528 0.0
H2133 H 0.63902 0.0063 0.01847 0.0
C2134 C 0.65579 0.95327 0.0277 0.0
C2135 C 0.66204 0.92442 0.02955 0.0
C2136 C 0.62863 0.96129 0.01947 0.0
C2137 C 0.64002 0.90387 0.02631 0.0
C2138 C 0.61289 0.91169 0.01873 0.0
C2139 C 0.58182 0.94771 0.00123 0.0
C2140 C 0.57777 0.97581 -0.00659 0.0
C2141 C 0.60732 0.94021 0.01393 0.0
C2142 C 0.59798 0.99693 0.00095 0.0
C2143 C 0.62311 0.98979 0.01423 0.0
H2144 H 0.36104 0.39198 0.25063 0.0
H2145 H 0.30271 0.45935 0.23825 0.0
H2146 H 0.26303 0.42499 0.24075 0.0
H2147 H 0.24543 0.37545 0.24161 0.0
H2148 H 0.30408 0.30817 0.2502 0.0
H2149 H 0.3431 0.34288 0.25526 0.0
C2150 C 0.33965 0.39926 0.24859 0.0
C2151 C 0.33492 0.42822 0.24375 0.0
C2152 C 0.31701 0.37938 0.24981 0.0
C2153 C 0.30702 0.43723 0.2417 0.0
C2154 C 0.28432 0.41757 0.24317 0.0
C2155 C 0.26671 0.36839 0.24518 0.0
C2156 C 0.27179 0.33912 0.24601 0.0
C2157 C 0.28914 0.38855 0.24657 0.0
C2158 C 0.29941 0.33035 0.25052 0.0
C2159 C 0.32183 0.35031 0.25278 0.0
H2160 H 0.19213 0.57607 0.00222 0.0
H2161 H 0.15448 0.61267 0.92898 0.0
H2162 H 0.11094 0.58472 0.93677 0.0
H2163 H 0.08274 0.55258 0.96627 0.0
H2164 H 0.12052 0.51536 0.03892 0.0
H2165 H 0.16477 0.54223 0.03041 0.0
C2166 C 0.17473 0.57731 0.98745 0.0
C2167 C 0.17648 0.59632 0.96501 0.0
C2168 C 0.1495 0.5622 0.99276 0.0
C2169 C 0.15362 0.598 0.94629 0.0
C2170 C 0.12862 0.58243 0.95101 0.0
C2171 C 0.10055 0.55094 0.98052 0.0
C2172 C 0.09848 0.53286 0.00357 0.0
C2173 C 0.12607 0.56525 0.97468 0.0
C2174 C 0.12174 0.52982 0.02144 0.0
C2175 C 0.14703 0.54476 0.01631 0.0
H2176 H 0.67319 0.9274 0.30498 0.0
H2177 H 0.65858 0.92966 0.21602 0.0
H2178 H 0.682 0.88457 0.21058 0.0
H2179 H 0.70276 0.84226 0.23172 0.0
H2180 H 0.71397 0.83873 0.32088 0.0
H2181 H 0.69624 0.88669 0.3257 0.0
C2182 C 0.67537 0.91821 0.28435 0.0
C2183 C 0.66393 0.93181 0.26099 0.0
C2184 C 0.68838 0.89204 0.28145 0.0
C2185 C 0.66694 0.91952 0.23441 0.0
C2186 C 0.68039 0.89375 0.23126 0.0
C2187 C 0.70202 0.85247 0.25204 0.0
C2188 C 0.71005 0.83749 0.2759 0.0
C2189 C 0.69073 0.87955 0.25469 0.0
C2190 C 0.70829 0.85028 0.30227 0.0
C2191 C 0.69793 0.87752 0.30502 0.0
H2192 H 0.82049 0.07848 0.72633 0.0
H2193 H 0.88599 0.11495 0.77967 0.0
H2194 H 0.8573 0.156 0.78873 0.0
H2195 H 0.81139 0.17913 0.78549 0.0
H2196 H 0.74594 0.14279 0.73238 0.0
H2197 H 0.77692 0.10475 0.71846 0.0
C2198 C 0.82849 0.09551 0.73979 0.0
C2199 C 0.85513 0.09343 0.75263 0.0
C2200 C 0.81199 0.11932 0.74466 0.0
C2201 C 0.86547 0.11592 0.76964 0.0
C2202 C 0.84909 0.13946 0.77483 0.0
C2203 C 0.80443 0.16344 0.77006 0.0
C2204 C 0.77672 0.16386 0.75955 0.0
C2205 C 0.8221 0.14117 0.76287 0.0
C2206 C 0.76746 0.14306 0.74023 0.0
C2207 C 0.78502 0.12111 0.73262 0.0
loop_
_geom_bond_atom_site_label_1
_geom_bond_atom_site_label_2
_geom_bond_distance
_geom_bond_site_symmetry_2
_ccdc_geom_bond_type
Zn0 O3 2.031 . S
Zn0 O5 2.049 . S
Zn0 O10 2.067 . S
Zn1 O2 1.962 . S
Zn1 O4 1.986 . S
Zn1 O6 2.000 . S
Zn1 O9 1.943 1_655 S
O2 Zn1 1.962 . S
O2 C7 1.254 1_655 S
O3 Zn0 2.031 . S
O3 C7 1.269 . S
O4 Zn1 1.986 . S
O4 C11 1.262 . S
O5 Zn0 2.049 . S
O5 C13 1.260 . S
O6 Zn1 2.000 . S
O6 C13 1.248 1_655 S
C7 O2 1.254 1_455 S
C7 O3 1.269 . S
C8 O9 1.249 . S
C8 O10 1.270 . S
O9 Zn1 1.943 1_455 S
O9 C8 1.249 . S
O10 Zn0 2.067 . S
O10 C8 1.270 . S
C11 O4 1.262 . S
C11 O12 1.232 . S
O12 C11 1.232 . S
C13 O5 1.260 . S
C13 O6 1.248 1_455 S
Zn14 O17 2.031 . S
Zn14 O19 2.049 . S
Zn14 O24 2.067 . S
Zn15 O16 1.962 . S
Zn15 O18 1.986 . S
Zn15 O20 1.996 . S
Zn15 O23 1.943 1_455 S
O16 Zn15 1.962 . S
O16 C21 1.225 1_455 S
O17 Zn14 2.031 . S
O17 C21 1.299 . S
O18 Zn15 1.986 . S
O18 C25 1.262 . S
O19 Zn14 2.049 . S
O19 C27 1.260 . S
O20 Zn15 1.996 . S
O20 C27 1.257 1_455 S
C21 O16 1.225 1_655 S
C21 O17 1.299 . S
C22 O23 1.249 . S
C22 O24 1.270 . S
O23 Zn15 1.943 1_655 S
O23 C22 1.249 . S
O24 Zn14 2.067 . S
O24 C22 1.270 . S
C25 O18 1.262 . S
C25 O26 1.232 . S
O26 C25 1.232 . S
C27 O19 1.260 . S
C27 O20 1.257 1_655 S
Zn28 O31 2.031 . S
Zn28 O33 2.049 . S
Zn28 O38 2.067 . S
Zn29 O30 1.962 . S
Zn29 O32 1.986 . S
Zn29 O34 1.996 . S
Zn29 O37 1.943 . S
O30 Zn29 1.962 . S
O30 C35 1.254 . S
O31 Zn28 2.031 . S
O31 C35 1.269 . S
O32 Zn29 1.986 . S
O32 C39 1.262 . S
O33 Zn28 2.049 . S
O33 C41 1.260 . S
O34 Zn29 1.996 . S
O34 C41 1.257 . S
C35 O30 1.254 . S
C35 O31 1.269 . S
C36 O37 1.249 . S
C36 O38 1.270 . S
O37 Zn29 1.943 . S
O37 C36 1.249 . S
O38 Zn28 2.067 . S
O38 C36 1.270 . S
C39 O32 1.262 . S
C39 O40 1.232 . S
O40 C39 1.232 . S
C41 O33 1.260 . S
C41 O34 1.257 . S
Zn42 O45 2.031 . S
Zn42 O47 2.049 . S
Zn42 O52 2.067 . S
Zn43 O44 1.962 . S
Zn43 O46 1.986 . S
Zn43 O48 1.996 . S
Zn43 O51 1.943 . S
O44 Zn43 1.962 . S
O44 C49 1.254 . S
O45 Zn42 2.031 . S
O45 C49 1.269 . S
O46 Zn43 1.986 . S
O46 C53 1.262 . S
O47 Zn42 2.049 . S
O47 C55 1.260 . S
O48 Zn43 1.996 . S
O48 C55 1.257 . S
C49 O44 1.254 . S
C49 O45 1.269 . S
C50 O51 1.249 . S
C50 O52 1.270 . S
O51 Zn43 1.943 . S
O51 C50 1.249 . S
O52 Zn42 2.067 . S
O52 C50 1.270 . S
C53 O46 1.262 . S
C53 O54 1.232 . S
O54 C53 1.232 . S
C55 O47 1.260 . S
C55 O48 1.257 . S
Zn56 O59 2.031 . S
Zn56 O61 2.049 . S
Zn56 O66 2.067 . S
Zn57 O58 1.962 . S
Zn57 O60 1.986 . S
Zn57 O62 1.997 . S
Zn57 O65 1.943 1_565 S
O58 Zn57 1.962 . S
O58 C63 1.254 1_565 S
O59 Zn56 2.031 . S
O59 C63 1.269 . S
O60 Zn57 1.986 . S
O60 C67 1.262 . S
O61 Zn56 2.049 . S
O61 C69 1.260 . S
O62 Zn57 1.997 . S
O62 C69 1.255 1_565 S
C63 O58 1.254 1_545 S
C63 O59 1.269 . S
C64 O65 1.249 . S
C64 O66 1.270 . S
O65 Zn57 1.943 1_545 S
O65 C64 1.249 . S
O66 Zn56 2.067 . S
O66 C64 1.270 . S
C67 O60 1.262 . S
C67 O68 1.232 . S
O68 C67 1.232 . S
C69 O61 1.260 . S
C69 O62 1.255 1_545 S
Zn70 O73 2.031 . S
Zn70 O75 2.049 . S
Zn70 O80 2.067 . S
Zn71 O72 1.962 . S
Zn71 O74 1.986 . S
Zn71 O76 1.996 . S
Zn71 O79 1.943 . S
O72 Zn71 1.962 . S
O72 C77 1.254 . S
O73 Zn70 2.031 . S
O73 C77 1.269 . S
O74 Zn71 1.986 . S
O74 C81 1.262 . S
O75 Zn70 2.049 . S
O75 C83 1.260 . S
O76 Zn71 1.996 . S
O76 C83 1.257 . S
C77 O72 1.254 . S
C77 O73 1.269 . S
C78 O79 1.249 . S
C78 O80 1.270 . S
O79 Zn71 1.943 . S
O79 C78 1.249 . S
O80 Zn70 2.067 . S
O80 C78 1.270 . S
C81 O74 1.262 . S
C81 O82 1.232 . S
O82 C81 1.232 . S
C83 O75 1.260 . S
C83 O76 1.257 . S
Zn84 O87 2.031 . S
Zn84 O89 2.049 . S
Zn84 O94 2.067 . S
Zn85 O86 1.962 . S
Zn85 O88 1.986 . S
Zn85 O90 1.996 . S
Zn85 O93 1.943 1_545 S
O86 Zn85 1.962 . S
O86 C91 1.221 1_545 S
O87 Zn84 2.031 . S
O87 C91 1.304 . S
O88 Zn85 1.986 . S
O88 C95 1.262 . S
O89 Zn84 2.049 . S
O89 C97 1.260 . S
O90 Zn85 1.996 . S
O90 C97 1.257 1_545 S
C91 O86 1.221 1_565 S
C91 O87 1.304 . S
C92 O93 1.249 . S
C92 O94 1.270 . S
O93 Zn85 1.943 1_565 S
O93 C92 1.249 . S
O94 Zn84 2.067 . S
O94 C92 1.270 . S
C95 O88 1.262 . S
C95 O96 1.232 . S
O96 C95 1.232 . S
C97 O89 1.260 . S
C97 O90 1.257 1_565 S
Zn98 O101 2.031 1_554 S
Zn98 O103 2.049 . S
Zn98 O108 2.067 . S
Zn99 O100 1.962 1_554 S
Zn99 O102 1.986 . S
Zn99 O104 1.996 . S
Zn99 O107 1.943 . S
O100 Zn99 1.962 1_556 S
O100 C105 1.254 . S
O101 Zn98 2.031 1_556 S
O101 C105 1.269 . S
O102 Zn99 1.986 . S
O102 C109 1.262 . S
O103 Zn98 2.049 . S
O103 C111 1.260 . S
O104 Zn99 1.996 . S
O104 C111 1.257 . S
C105 O100 1.254 . S
C105 O101 1.269 . S
C106 O107 1.249 . S
C106 O108 1.270 . S
O107 Zn99 1.943 . S
O107 C106 1.249 . S
O108 Zn98 2.067 . S
O108 C106 1.270 . S
C109 O102 1.262 . S
C109 O110 1.232 1_554 S
O110 C109 1.232 1_556 S
C111 O103 1.260 . S
C111 O104 1.257 . S
Zn112 O115 2.031 1_554 S
Zn112 O117 2.049 . S
Zn112 O122 2.067 . S
Zn113 O114 1.962 1_554 S
Zn113 O116 1.986 . S
Zn113 O118 1.996 . S
Zn113 O121 1.943 . S
O114 Zn113 1.962 1_556 S
O114 C119 1.254 . S
O115 Zn112 2.031 1_556 S
O115 C119 1.269 . S
O116 Zn113 1.986 . S
O116 C123 1.262 . S
O117 Zn112 2.049 . S
O117 C125 1.260 . S
O118 Zn113 1.996 . S
O118 C125 1.257 . S
C119 O114 1.254 . S
C119 O115 1.269 . S
C120 O121 1.249 . S
C120 O122 1.270 . S
O121 Zn113 1.943 . S
O121 C120 1.249 . S
O122 Zn112 2.067 . S
O122 C120 1.270 . S
C123 O116 1.262 . S
C123 O124 1.232 1_554 S
O124 C123 1.232 1_556 S
C125 O117 1.260 . S
C125 O118 1.257 . S
Zn126 O129 2.031 . S
Zn126 O131 2.049 . S
Zn126 O136 2.067 . S
Zn127 O128 1.962 . S
Zn127 O130 1.986 . S
Zn127 O132 1.996 . S
Zn127 O135 1.943 . S
O128 Zn127 1.962 . S
O128 C133 1.254 . S
O129 Zn126 2.031 . S
O129 C133 1.269 . S
O130 Zn127 1.986 . S
O130 C137 1.262 . S
O131 Zn126 2.049 . S
O131 C139 1.260 . S
O132 Zn127 1.996 . S
O132 C139 1.257 . S
C133 O128 1.254 . S
C133 O129 1.269 . S
C134 O135 1.249 . S
C134 O136 1.270 . S
O135 Zn127 1.943 . S
O135 C134 1.249 . S
O136 Zn126 2.067 . S
O136 C134 1.270 . S
C137 O130 1.262 . S
C137 O138 1.232 . S
O138 C137 1.232 . S
C139 O131 1.260 . S
C139 O132 1.257 . S
Zn140 O143 2.031 . S
Zn140 O145 2.049 . S
Zn140 O150 2.067 . S
Zn141 O142 1.962 . S
Zn141 O144 1.986 . S
Zn141 O146 1.996 . S
Zn141 O149 1.943 . S
O142 Zn141 1.962 . S
O142 C147 1.254 . S
O143 Zn140 2.031 . S
O143 C147 1.269 . S
O144 Zn141 1.986 . S
O144 C151 1.262 . S
O145 Zn140 2.049 . S
O145 C153 1.260 . S
O146 Zn141 1.996 . S
O146 C153 1.257 . S
C147 O142 1.254 . S
C147 O143 1.269 . S
C148 O149 1.249 . S
C148 O150 1.270 . S
O149 Zn141 1.943 . S
O149 C148 1.249 . S
O150 Zn140 2.067 . S
O150 C148 1.270 . S
C151 O144 1.262 . S
C151 O152 1.232 . S
O152 C151 1.232 . S
C153 O145 1.260 . S
C153 O146 1.257 . S
Zn154 O157 2.031 . S
Zn154 O159 2.049 . S
Zn154 O164 2.067 . S
Zn155 O156 1.962 . S
Zn155 O158 1.986 . S
Zn155 O160 1.996 . S
Zn155 O163 1.943 . S
O156 Zn155 1.962 . S
O156 C161 1.254 . S
O157 Zn154 2.031 . S
O157 C161 1.269 . S
O158 Zn155 1.986 . S
O158 C165 1.262 . S
O159 Zn154 2.049 . S
O159 C167 1.260 . S
O160 Zn155 1.996 . S
O160 C167 1.257 . S
C161 O156 1.254 . S
C161 O157 1.269 . S
C162 O163 1.249 . S
C162 O164 1.270 . S
O163 Zn155 1.943 . S
O163 C162 1.249 . S
O164 Zn154 2.067 . S
O164 C162 1.270 . S
C165 O158 1.262 . S
C165 O166 1.232 . S
O166 C165 1.232 . S
C167 O159 1.260 . S
C167 O160 1.257 . S
Zn168 O171 2.031 . S
Zn168 O173 2.049 . S
Zn168 O178 2.067 . S
Zn169 O170 1.962 . S
Zn169 O172 1.986 . S
Zn169 O174 1.996 . S
Zn169 O177 1.943 1_455 S
O170 Zn169 1.962 . S
O170 C175 1.254 . S
O171 Zn168 2.031 . S
O171 C175 1.269 1_655 S
O172 Zn169 1.986 . S
O172 C179 1.262 . S
O173 Zn168 2.049 . S
O173 C181 1.260 . S
O174 Zn169 1.996 . S
O174 C181 1.257 1_455 S
C175 O170 1.254 . S
C175 O171 1.269 1_455 S
C176 O177 1.249 . S
C176 O178 1.270 . S
O177 Zn169 1.943 1_655 S
O177 C176 1.249 . S
O178 Zn168 2.067 . S
O178 C176 1.270 . S
C179 O172 1.262 . S
C179 O180 1.232 . S
O180 C179 1.232 . S
C181 O173 1.260 . S
C181 O174 1.257 1_655 S
Zn182 O185 2.031 . S
Zn182 O187 2.049 . S
Zn182 O192 2.067 . S
Zn183 O184 1.962 . S
Zn183 O186 1.986 . S
Zn183 O188 1.989 1_655 S
Zn183 O191 1.943 1_655 S
O184 Zn183 1.962 . S
O184 C189 1.254 1_655 S
O185 Zn182 2.031 . S
O185 C189 1.269 . S
O186 Zn183 1.986 . S
O186 C193 1.262 . S
O187 Zn182 2.049 . S
O187 C195 1.260 . S
O188 Zn183 1.989 1_455 S
O188 C195 1.270 . S
C189 O184 1.254 1_455 S
C189 O185 1.269 . S
C190 O191 1.249 . S
C190 O192 1.270 . S
O191 Zn183 1.943 1_455 S
O191 C190 1.249 . S
O192 Zn182 2.067 . S
O192 C190 1.270 . S
C193 O186 1.262 . S
C193 O194 1.232 . S
O194 C193 1.232 . S
C195 O187 1.260 . S
C195 O188 1.270 . S
Zn196 O199 2.031 . S
Zn196 O201 2.049 . S
Zn196 O206 2.067 . S
Zn197 O198 1.962 . S
Zn197 O200 1.986 . S
Zn197 O202 1.996 . S
Zn197 O205 1.943 . S
O198 Zn197 1.962 . S
O198 C203 1.254 . S
O199 Zn196 2.031 . S
O199 C203 1.269 . S
O200 Zn197 1.986 . S
O200 C207 1.262 . S
O201 Zn196 2.049 . S
O201 C209 1.260 . S
O202 Zn197 1.996 . S
O202 C209 1.257 . S
C203 O198 1.254 . S
C203 O199 1.269 . S
C204 O205 1.249 . S
C204 O206 1.270 . S
O205 Zn197 1.943 . S
O205 C204 1.249 . S
O206 Zn196 2.067 . S
O206 C204 1.270 . S
C207 O200 1.262 . S
C207 O208 1.232 . S
O208 C207 1.232 . S
C209 O201 1.260 . S
C209 O202 1.257 . S
Zn210 O213 2.031 . S
Zn210 O215 2.049 . S
Zn210 O220 2.067 . S
Zn211 O212 1.962 . S
Zn211 O214 1.986 . S
Zn211 O216 1.996 . S
Zn211 O219 1.943 . S
O212 Zn211 1.962 . S
O212 C217 1.254 . S
O213 Zn210 2.031 . S
O213 C217 1.269 . S
O214 Zn211 1.986 . S
O214 C221 1.262 . S
O215 Zn210 2.049 . S
O215 C223 1.260 . S
O216 Zn211 1.996 . S
O216 C223 1.257 . S
C217 O212 1.254 . S
C217 O213 1.269 . S
C218 O219 1.249 . S
C218 O220 1.270 . S
O219 Zn211 1.943 . S
O219 C218 1.249 . S
O220 Zn210 2.067 . S
O220 C218 1.270 . S
C221 O214 1.262 . S
C221 O222 1.232 . S
O222 C221 1.232 . S
C223 O215 1.260 . S
C223 O216 1.257 . S
Zn224 O227 2.031 . S
Zn224 O229 2.049 . S
Zn224 O234 2.067 . S
Zn225 O226 1.962 . S
Zn225 O228 1.986 . S
Zn225 O230 1.996 . S
Zn225 O233 1.943 1_545 S
O226 Zn225 1.962 . S
O226 C231 1.254 1_545 S
O227 Zn224 2.031 . S
O227 C231 1.269 . S
O228 Zn225 1.986 . S
O228 C235 1.262 . S
O229 Zn224 2.049 . S
O229 C237 1.260 . S
O230 Zn225 1.996 . S
O230 C237 1.257 1_545 S
C231 O226 1.254 1_565 S
C231 O227 1.269 . S
C232 O233 1.249 . S
C232 O234 1.270 . S
O233 Zn225 1.943 1_565 S
O233 C232 1.249 . S
O234 Zn224 2.067 . S
O234 C232 1.270 . S
C235 O228 1.262 . S
C235 O236 1.232 . S
O236 C235 1.232 . S
C237 O229 1.260 . S
C237 O230 1.257 1_565 S
Zn238 O241 2.031 . S
Zn238 O243 2.049 . S
Zn238 O248 2.067 . S
Zn239 O240 1.962 . S
Zn239 O242 1.986 . S
Zn239 O244 1.996 . S
Zn239 O247 1.943 . S
O240 Zn239 1.962 . S
O240 C245 1.254 . S
O241 Zn238 2.031 . S
O241 C245 1.269 . S
O242 Zn239 1.986 . S
O242 C249 1.262 . S
O243 Zn238 2.049 . S
O243 C251 1.260 . S
O244 Zn239 1.996 . S
O244 C251 1.257 . S
C245 O240 1.254 . S
C245 O241 1.269 . S
C246 O247 1.249 . S
C246 O248 1.270 . S
O247 Zn239 1.943 . S
O247 C246 1.249 . S
O248 Zn238 2.067 . S
O248 C246 1.270 . S
C249 O242 1.262 . S
C249 O250 1.232 . S
O250 C249 1.232 . S
C251 O243 1.260 . S
C251 O244 1.257 . S
Zn252 O255 2.031 . S
Zn252 O257 2.049 . S
Zn252 O262 2.067 . S
Zn253 O254 1.962 . S
Zn253 O256 1.986 . S
Zn253 O258 1.989 1_565 S
Zn253 O261 1.943 1_565 S
O254 Zn253 1.962 . S
O254 C259 1.254 1_565 S
O255 Zn252 2.031 . S
O255 C259 1.269 . S
O256 Zn253 1.986 . S
O256 C263 1.262 . S
O257 Zn252 2.049 . S
O257 C265 1.260 . S
O258 Zn253 1.989 1_545 S
O258 C265 1.273 . S
C259 O254 1.254 1_545 S
C259 O255 1.269 . S
C260 O261 1.249 . S
C260 O262 1.270 . S
O261 Zn253 1.943 1_545 S
O261 C260 1.249 . S
O262 Zn252 2.067 . S
O262 C260 1.270 . S
C263 O256 1.262 . S
C263 O264 1.232 . S
O264 C263 1.232 . S
C265 O257 1.260 . S
C265 O258 1.273 . S
Zn266 O269 2.031 1_554 S
Zn266 O271 2.049 . S
Zn266 O276 2.067 . S
Zn267 O268 1.962 1_554 S
Zn267 O270 1.986 . S
Zn267 O272 1.996 . S
Zn267 O275 1.943 . S
O268 Zn267 1.962 1_556 S
O268 C273 1.254 . S
O269 Zn266 2.031 1_556 S
O269 C273 1.269 . S
O270 Zn267 1.986 . S
O270 C277 1.262 . S
O271 Zn266 2.049 . S
O271 C279 1.260 . S
O272 Zn267 1.996 . S
O272 C279 1.257 . S
C273 O268 1.254 . S
C273 O269 1.269 . S
C274 O275 1.249 . S
C274 O276 1.270 . S
O275 Zn267 1.943 . S
O275 C274 1.249 . S
O276 Zn266 2.067 . S
O276 C274 1.270 . S
C277 O270 1.262 . S
C277 O278 1.232 1_554 S
O278 C277 1.232 1_556 S
C279 O271 1.260 . S
C279 O272 1.257 . S
Zn280 O283 2.031 1_554 S
Zn280 O285 2.049 . S
Zn280 O290 2.067 . S
Zn281 O282 1.938 1_554 S
Zn281 O284 1.999 . S
Zn281 O286 2.016 . S
Zn281 O289 1.944 . S
O282 Zn281 1.938 1_556 S
O282 C287 1.254 . S
O283 Zn280 2.031 1_556 S
O283 C287 1.269 . S
O284 Zn281 1.999 . S
O284 C291 1.286 . S
O285 Zn280 2.049 . S
O285 C293 1.260 . S
O286 Zn281 2.016 . S
O286 C293 1.257 . S
C287 O282 1.254 . S
C287 O283 1.269 . S
C288 O289 1.249 . S
C288 O290 1.270 . S
O289 Zn281 1.944 . S
O289 C288 1.249 . S
O290 Zn280 2.067 . S
O290 C288 1.270 . S
C291 O284 1.286 . S
C291 O292 1.203 1_554 S
O292 C291 1.203 1_556 S
C293 O285 1.260 . S
C293 O286 1.257 . S
Zn294 O297 2.031 . S
Zn294 O299 2.049 . S
Zn294 O304 2.067 . S
Zn295 O296 1.962 . S
Zn295 O298 1.986 . S
Zn295 O300 1.996 . S
Zn295 O303 1.943 . S
O296 Zn295 1.962 . S
O296 C301 1.254 . S
O297 Zn294 2.031 . S
O297 C301 1.269 . S
O298 Zn295 1.986 . S
O298 C305 1.262 . S
O299 Zn294 2.049 . S
O299 C307 1.260 . S
O300 Zn295 1.996 . S
O300 C307 1.257 . S
C301 O296 1.254 . S
C301 O297 1.269 . S
C302 O303 1.249 . S
C302 O304 1.270 . S
O303 Zn295 1.943 . S
O303 C302 1.249 . S
O304 Zn294 2.067 . S
O304 C302 1.270 . S
C305 O298 1.262 . S
C305 O306 1.232 . S
O306 C305 1.232 . S
C307 O299 1.260 . S
C307 O300 1.257 . S
Zn308 O311 2.031 . S
Zn308 O313 2.049 . S
Zn308 O318 2.067 . S
Zn309 O310 1.962 . S
Zn309 O312 1.986 . S
Zn309 O314 1.996 . S
Zn309 O317 1.943 . S
O310 Zn309 1.962 . S
O310 C315 1.254 . S
O311 Zn308 2.031 . S
O311 C315 1.269 . S
O312 Zn309 1.986 . S
O312 C319 1.262 . S
O313 Zn308 2.049 . S
O313 C321 1.260 . S
O314 Zn309 1.996 . S
O314 C321 1.257 . S
C315 O310 1.254 . S
C315 O311 1.269 . S
C316 O317 1.249 . S
C316 O318 1.270 . S
O317 Zn309 1.943 . S
O317 C316 1.249 . S
O318 Zn308 2.067 . S
O318 C316 1.270 . S
C319 O312 1.262 . S
C319 O320 1.232 . S
O320 C319 1.232 . S
C321 O313 1.260 . S
C321 O314 1.257 . S
Zn322 O325 2.031 . S
Zn322 O327 2.049 . S
Zn322 O332 2.067 . S
Zn323 O324 1.962 . S
Zn323 O326 1.986 . S
Zn323 O328 1.996 . S
Zn323 O331 1.943 . S
O324 Zn323 1.962 . S
O324 C329 1.254 . S
O325 Zn322 2.031 . S
O325 C329 1.269 . S
O326 Zn323 1.986 . S
O326 C333 1.262 . S
O327 Zn322 2.049 . S
O327 C335 1.260 . S
O328 Zn323 1.996 . S
O328 C335 1.257 . S
C329 O324 1.254 . S
C329 O325 1.269 . S
C330 O331 1.249 . S
C330 O332 1.270 . S
O331 Zn323 1.943 . S
O331 C330 1.249 . S
O332 Zn322 2.067 . S
O332 C330 1.270 . S
C333 O326 1.262 . S
C333 O334 1.232 . S
O334 C333 1.232 . S
C335 O327 1.260 . S
C335 O328 1.257 . S
O336 Mn337 2.172 1_556 S
O336 C350 1.246 . S
Mn337 O336 2.172 1_554 S
Mn337 O340 2.147 1_445 S
Mn337 O341 2.214 1_455 S
Mn337 O343 2.159 1_454 S
Mn337 O345 2.164 1_545 S
Mn337 O355 2.228 1_544 S
O338 Mn339 2.087 1_556 S
O338 C350 1.256 1_565 S
Mn339 O338 2.087 1_554 S
Mn339 O346 2.089 . S
Mn339 O355 2.290 1_554 S
Mn339 O356 2.251 1_554 S
O340 Mn337 2.147 1_665 S
O340 C351 1.239 . S
O341 Mn337 2.214 1_655 S
O341 Mn342 2.290 1_554 S
O341 C352 1.278 . S
Mn342 O341 2.290 1_556 S
Mn342 O344 2.088 1_556 S
Mn342 O347 2.251 1_556 S
Mn342 O348 2.087 . S
O343 Mn337 2.159 1_656 S
O343 C353 1.244 . S
O344 Mn342 2.088 1_554 S
O344 C351 1.258 1_545 S
O345 Mn337 2.164 1_565 S
O345 C354 1.239 . S
O346 Mn339 2.089 . S
O346 C354 1.256 . S
O347 Mn342 2.251 1_554 S
O347 C352 1.241 . S
O348 Mn342 2.087 . S
O348 C353 1.256 . S
C349 O355 1.278 . S
C349 O356 1.241 . S
C350 O336 1.246 . S
C350 O338 1.256 1_545 S
C351 O340 1.239 . S
C351 O344 1.258 1_565 S
C352 O341 1.278 . S
C352 O347 1.241 . S
C353 O343 1.244 . S
C353 O348 1.256 . S
C354 O345 1.239 . S
C354 O346 1.256 . S
O355 Mn337 2.228 1_566 S
O355 Mn339 2.290 1_556 S
O355 C349 1.278 . S
O356 Mn339 2.251 1_556 S
O356 C349 1.241 . S
O357 Mn358 2.163 . S
O357 C371 1.244 . S
Mn358 O357 2.163 . S
Mn358 O361 2.160 . S
Mn358 O362 2.221 . S
Mn358 O364 2.163 . S
Mn358 O366 2.160 . S
Mn358 O376 2.221 . S
O359 Mn360 2.087 . S
O359 C371 1.256 . S
Mn360 O359 2.087 . S
Mn360 O367 2.089 . S
Mn360 O376 2.290 . S
Mn360 O377 2.251 . S
O361 Mn358 2.160 . S
O361 C372 1.239 . S
O362 Mn358 2.221 . S
O362 Mn363 2.290 . S
O362 C373 1.278 . S
Mn363 O362 2.290 . S
Mn363 O365 2.089 . S
Mn363 O368 2.251 . S
Mn363 O369 2.087 . S
O364 Mn358 2.163 . S
O364 C374 1.244 . S
O365 Mn363 2.089 . S
O365 C372 1.256 . S
O366 Mn358 2.160 . S
O366 C375 1.239 . S
O367 Mn360 2.089 . S
O367 C375 1.256 . S
O368 Mn363 2.251 . S
O368 C373 1.241 . S
O369 Mn363 2.087 . S
O369 C374 1.256 . S
C370 O376 1.278 . S
C370 O377 1.241 . S
C371 O357 1.244 . S
C371 O359 1.256 . S
C372 O361 1.239 . S
C372 O365 1.256 . S
C373 O362 1.278 . S
C373 O368 1.241 . S
C374 O364 1.244 . S
C374 O369 1.256 . S
C375 O366 1.239 . S
C375 O367 1.256 . S
O376 Mn358 2.221 . S
O376 Mn360 2.290 . S
O376 C370 1.278 . S
O377 Mn360 2.251 . S
O377 C370 1.241 . S
O378 Mn379 2.163 1_565 S
O378 C392 1.244 . S
Mn379 O378 2.163 1_545 S
Mn379 O382 2.160 . S
Mn379 O383 2.221 1_545 S
Mn379 O385 2.163 . S
Mn379 O387 2.160 . S
Mn379 O397 2.221 . S
O380 Mn381 2.087 . S
O380 C392 1.256 1_545 S
Mn381 O380 2.087 . S
Mn381 O388 2.089 . S
Mn381 O397 2.290 . S
Mn381 O398 2.251 . S
O382 Mn379 2.160 . S
O382 C393 1.239 . S
O383 Mn379 2.221 1_565 S
O383 Mn384 2.290 . S
O383 C394 1.278 . S
Mn384 O383 2.290 . S
Mn384 O386 2.089 1_565 S
Mn384 O389 2.251 . S
Mn384 O390 2.087 . S
O385 Mn379 2.163 . S
O385 C395 1.244 1_545 S
O386 Mn384 2.089 1_545 S
O386 C393 1.256 . S
O387 Mn379 2.160 . S
O387 C396 1.239 . S
O388 Mn381 2.089 . S
O388 C396 1.256 . S
O389 Mn384 2.251 . S
O389 C394 1.241 . S
O390 Mn384 2.087 . S
O390 C395 1.256 . S
C391 O397 1.278 . S
C391 O398 1.241 . S
C392 O378 1.244 . S
C392 O380 1.256 1_565 S
C393 O382 1.239 . S
C393 O386 1.256 . S
C394 O383 1.278 . S
C394 O389 1.241 . S
C395 O385 1.244 1_565 S
C395 O390 1.256 . S
C396 O387 1.239 . S
C396 O388 1.256 . S
O397 Mn379 2.221 . S
O397 Mn381 2.290 . S
O397 C391 1.278 . S
O398 Mn381 2.251 . S
O398 C391 1.241 . S
O399 Mn400 2.163 . S
O399 C413 1.244 . S
Mn400 O399 2.163 . S
Mn400 O403 2.160 . S
Mn400 O404 2.221 . S
Mn400 O406 2.163 . S
Mn400 O408 2.160 . S
Mn400 O418 2.221 . S
O401 Mn402 2.087 . S
O401 C413 1.256 . S
Mn402 O401 2.087 . S
Mn402 O409 2.089 . S
Mn402 O418 2.290 . S
Mn402 O419 2.251 . S
O403 Mn400 2.160 . S
O403 C414 1.239 . S
O404 Mn400 2.221 . S
O404 Mn405 2.290 . S
O404 C415 1.278 . S
Mn405 O404 2.290 . S
Mn405 O407 2.089 . S
Mn405 O410 2.251 . S
Mn405 O411 2.087 . S
O406 Mn400 2.163 . S
O406 C416 1.244 . S
O407 Mn405 2.089 . S
O407 C414 1.256 . S
O408 Mn400 2.160 . S
O408 C417 1.239 . S
O409 Mn402 2.089 . S
O409 C417 1.256 . S
O410 Mn405 2.251 . S
O410 C415 1.241 . S
O411 Mn405 2.087 . S
O411 C416 1.256 . S
C412 O418 1.278 . S
C412 O419 1.241 . S
C413 O399 1.244 . S
C413 O401 1.256 . S
C414 O403 1.239 . S
C414 O407 1.256 . S
C415 O404 1.278 . S
C415 O410 1.241 . S
C416 O406 1.244 . S
C416 O411 1.256 . S
C417 O408 1.239 . S
C417 O409 1.256 . S
O418 Mn400 2.221 . S
O418 Mn402 2.290 . S
O418 C412 1.278 . S
O419 Mn402 2.251 . S
O419 C412 1.241 . S
O420 Mn421 2.163 1_665 S
O420 C434 1.244 . S
Mn421 O420 2.163 1_445 S
Mn421 O424 2.160 . S
Mn421 O425 2.221 . S
Mn421 O427 2.163 1_455 S
Mn421 O429 2.160 1_545 S
Mn421 O439 2.221 1_445 S
O422 Mn423 2.087 1_655 S
O422 C434 1.256 . S
Mn423 O422 2.087 1_455 S
Mn423 O430 2.089 . S
Mn423 O439 2.290 1_455 S
Mn423 O440 2.251 1_455 S
O424 Mn421 2.160 . S
O424 C435 1.239 . S
O425 Mn421 2.221 . S
O425 Mn426 2.290 1_455 S
O425 C436 1.278 . S
Mn426 O425 2.290 1_655 S
Mn426 O428 2.089 1_655 S
Mn426 O431 2.251 1_655 S
Mn426 O432 2.087 . S
O427 Mn421 2.163 1_655 S
O427 C437 1.244 . S
O428 Mn426 2.089 1_455 S
O428 C435 1.256 . S
O429 Mn421 2.160 1_565 S
O429 C438 1.239 . S
O430 Mn423 2.089 . S
O430 C438 1.256 . S
O431 Mn426 2.251 1_455 S
O431 C436 1.241 . S
O432 Mn426 2.087 . S
O432 C437 1.256 . S
C433 O439 1.278 . S
C433 O440 1.241 . S
C434 O420 1.244 . S
C434 O422 1.256 . S
C435 O424 1.239 . S
C435 O428 1.256 . S
C436 O425 1.278 . S
C436 O431 1.241 . S
C437 O427 1.244 . S
C437 O432 1.256 . S
C438 O429 1.239 . S
C438 O430 1.256 . S
O439 Mn421 2.221 1_665 S
O439 Mn423 2.290 1_655 S
O439 C433 1.278 . S
O440 Mn423 2.251 1_655 S
O440 C433 1.241 . S
O441 Mn442 2.163 . S
O441 C455 1.244 . S
Mn442 O441 2.163 . S
Mn442 O445 2.160 . S
Mn442 O446 2.221 . S
Mn442 O448 2.163 . S
Mn442 O450 2.160 . S
Mn442 O460 2.221 . S
O443 Mn444 2.087 . S
O443 C455 1.256 . S
Mn444 O443 2.087 . S
Mn444 O451 2.089 . S
Mn444 O460 2.290 . S
Mn444 O461 2.251 . S
O445 Mn442 2.160 . S
O445 C456 1.239 . S
O446 Mn442 2.221 . S
O446 Mn447 2.290 . S
O446 C457 1.278 . S
Mn447 O446 2.290 . S
Mn447 O449 2.089 . S
Mn447 O452 2.251 . S
Mn447 O453 2.087 . S
O448 Mn442 2.163 . S
O448 C458 1.244 . S
O449 Mn447 2.089 . S
O449 C456 1.256 . S
O450 Mn442 2.160 . S
O450 C459 1.239 . S
O451 Mn444 2.089 . S
O451 C459 1.256 . S
O452 Mn447 2.251 . S
O452 C457 1.241 . S
O453 Mn447 2.087 . S
O453 C458 1.256 . S
C454 O460 1.278 . S
C454 O461 1.241 . S
C455 O441 1.244 . S
C455 O443 1.256 . S
C456 O445 1.239 . S
C456 O449 1.256 . S
C457 O446 1.278 . S
C457 O452 1.241 . S
C458 O448 1.244 . S
C458 O453 1.256 . S
C459 O450 1.239 . S
C459 O451 1.256 . S
O460 Mn442 2.221 . S
O460 Mn444 2.290 . S
O460 C454 1.278 . S
O461 Mn444 2.251 . S
O461 C454 1.241 . S
O462 Mn463 2.163 1_566 S
O462 C476 1.244 . S
Mn463 O462 2.163 1_544 S
Mn463 O466 2.160 . S
Mn463 O467 2.221 . S
Mn463 O469 2.163 1_545 S
Mn463 O471 2.160 1_554 S
Mn463 O481 2.221 1_544 S
O464 Mn465 2.087 1_565 S
O464 C476 1.256 . S
Mn465 O464 2.087 1_545 S
Mn465 O472 2.089 . S
Mn465 O481 2.290 1_545 S
Mn465 O482 2.251 1_545 S
O466 Mn463 2.160 . S
O466 C477 1.239 . S
O467 Mn463 2.221 . S
O467 Mn468 2.290 1_545 S
O467 C478 1.278 . S
Mn468 O467 2.290 1_565 S
Mn468 O470 2.087 1_565 S
Mn468 O473 2.251 1_565 S
Mn468 O474 2.087 . S
O469 Mn463 2.163 1_565 S
O469 C479 1.244 . S
O470 Mn468 2.087 1_545 S
O470 C477 1.265 . S
O471 Mn463 2.160 1_556 S
O471 C480 1.239 . S
O472 Mn465 2.089 . S
O472 C480 1.256 . S
O473 Mn468 2.251 1_545 S
O473 C478 1.241 . S
O474 Mn468 2.087 . S
O474 C479 1.256 . S
C475 O481 1.278 . S
C475 O482 1.241 . S
C476 O462 1.244 . S
C476 O464 1.256 . S
C477 O466 1.239 . S
C477 O470 1.265 . S
C478 O467 1.278 . S
C478 O473 1.241 . S
C479 O469 1.244 . S
C479 O474 1.256 . S
C480 O471 1.239 . S
C480 O472 1.256 . S
O481 Mn463 2.221 1_566 S
O481 Mn465 2.290 1_565 S
O481 C475 1.278 . S
O482 Mn465 2.251 1_565 S
O482 C475 1.241 . S
O483 Mn484 2.163 . S
O483 C497 1.244 . S
Mn484 O483 2.163 . S
Mn484 O487 2.160 . S
Mn484 O488 2.221 . S
Mn484 O490 2.163 . S
Mn484 O492 2.160 . S
Mn484 O502 2.221 . S
O485 Mn486 2.087 . S
O485 C497 1.256 . S
Mn486 O485 2.087 . S
Mn486 O493 2.089 . S
Mn486 O502 2.290 . S
Mn486 O503 2.251 . S
O487 Mn484 2.160 . S
O487 C498 1.239 . S
O488 Mn484 2.221 . S
O488 Mn489 2.290 . S
O488 C499 1.278 . S
Mn489 O488 2.290 . S
Mn489 O491 2.089 . S
Mn489 O494 2.251 . S
Mn489 O495 2.087 . S
O490 Mn484 2.163 . S
O490 C500 1.244 . S
O491 Mn489 2.089 . S
O491 C498 1.256 . S
O492 Mn484 2.160 . S
O492 C501 1.239 . S
O493 Mn486 2.089 . S
O493 C501 1.256 . S
O494 Mn489 2.251 . S
O494 C499 1.241 . S
O495 Mn489 2.087 . S
O495 C500 1.256 . S
C496 O502 1.278 . S
C496 O503 1.241 . S
C497 O483 1.244 . S
C497 O485 1.256 . S
C498 O487 1.239 . S
C498 O491 1.256 . S
C499 O488 1.278 . S
C499 O494 1.241 . S
C500 O490 1.244 . S
C500 O495 1.256 . S
C501 O492 1.239 . S
C501 O493 1.256 . S
O502 Mn484 2.221 . S
O502 Mn486 2.290 . S
O502 C496 1.278 . S
O503 Mn486 2.251 . S
O503 C496 1.241 . S
O504 Mn505 2.163 1_556 S
O504 C518 1.244 . S
Mn505 O504 2.163 1_554 S
Mn505 O508 2.160 . S
Mn505 O509 2.221 1_554 S
Mn505 O511 2.163 . S
Mn505 O513 2.160 . S
Mn505 O523 2.221 . S
O506 Mn507 2.087 . S
O506 C518 1.256 1_554 S
Mn507 O506 2.087 . S
Mn507 O514 2.089 . S
Mn507 O523 2.290 . S
Mn507 O524 2.251 . S
O508 Mn505 2.160 . S
O508 C519 1.239 . S
O509 Mn505 2.221 1_556 S
O509 Mn510 2.290 . S
O509 C520 1.278 . S
Mn510 O509 2.290 . S
Mn510 O512 2.089 1_556 S
Mn510 O515 2.251 . S
Mn510 O516 2.087 . S
O511 Mn505 2.163 . S
O511 C521 1.244 1_554 S
O512 Mn510 2.089 1_554 S
O512 C519 1.256 . S
O513 Mn505 2.160 . S
O513 C522 1.239 . S
O514 Mn507 2.089 . S
O514 C522 1.256 . S
O515 Mn510 2.251 . S
O515 C520 1.241 . S
O516 Mn510 2.087 . S
O516 C521 1.256 . S
C517 O523 1.278 . S
C517 O524 1.241 . S
C518 O504 1.244 . S
C518 O506 1.256 1_556 S
C519 O508 1.239 . S
C519 O512 1.256 . S
C520 O509 1.278 . S
C520 O515 1.241 . S
C521 O511 1.244 1_556 S
C521 O516 1.256 . S
C522 O513 1.239 . S
C522 O514 1.256 . S
O523 Mn505 2.221 . S
O523 Mn507 2.290 . S
O523 C517 1.278 . S
O524 Mn507 2.251 . S
O524 C517 1.241 . S
O525 Mn526 2.163 . S
O525 C539 1.244 . S
Mn526 O525 2.163 . S
Mn526 O529 2.160 . S
Mn526 O530 2.221 . S
Mn526 O532 2.163 . S
Mn526 O534 2.160 . S
Mn526 O544 2.221 . S
O527 Mn528 2.087 . S
O527 C539 1.256 . S
Mn528 O527 2.087 . S
Mn528 O535 2.089 . S
Mn528 O544 2.290 . S
Mn528 O545 2.251 . S
O529 Mn526 2.160 . S
O529 C540 1.239 . S
O530 Mn526 2.221 . S
O530 Mn531 2.290 . S
O530 C541 1.278 . S
Mn531 O530 2.290 . S
Mn531 O533 2.089 . S
Mn531 O536 2.251 . S
Mn531 O537 2.087 . S
O532 Mn526 2.163 . S
O532 C542 1.244 . S
O533 Mn531 2.089 . S
O533 C540 1.256 . S
O534 Mn526 2.160 . S
O534 C543 1.239 . S
O535 Mn528 2.089 . S
O535 C543 1.256 . S
O536 Mn531 2.251 . S
O536 C541 1.241 . S
O537 Mn531 2.087 . S
O537 C542 1.256 . S
C538 O544 1.278 . S
C538 O545 1.241 . S
C539 O525 1.244 . S
C539 O527 1.256 . S
C540 O529 1.239 . S
C540 O533 1.256 . S
C541 O530 1.278 . S
C541 O536 1.241 . S
C542 O532 1.244 . S
C542 O537 1.256 . S
C543 O534 1.239 . S
C543 O535 1.256 . S
O544 Mn526 2.221 . S
O544 Mn528 2.290 . S
O544 C538 1.278 . S
O545 Mn528 2.251 . S
O545 C538 1.241 . S
O546 Mn547 2.163 1_655 S
O546 C560 1.244 . S
Mn547 O546 2.163 1_455 S
Mn547 O550 2.160 . S
Mn547 O551 2.221 1_455 S
Mn547 O553 2.164 . S
Mn547 O555 2.160 . S
Mn547 O565 2.221 . S
O548 Mn549 2.087 . S
O548 C560 1.256 1_455 S
Mn549 O548 2.087 . S
Mn549 O556 2.089 . S
Mn549 O565 2.290 . S
Mn549 O566 2.251 . S
O550 Mn547 2.160 . S
O550 C561 1.239 . S
O551 Mn547 2.221 1_655 S
O551 Mn552 2.290 . S
O551 C562 1.278 . S
Mn552 O551 2.290 . S
Mn552 O554 2.079 1_655 S
Mn552 O557 2.251 . S
Mn552 O558 2.087 . S
O553 Mn547 2.164 . S
O553 C563 1.225 1_455 S
O554 Mn552 2.079 1_455 S
O554 C561 1.264 . S
O555 Mn547 2.160 . S
O555 C564 1.239 . S
O556 Mn549 2.089 . S
O556 C564 1.256 . S
O557 Mn552 2.251 . S
O557 C562 1.241 . S
O558 Mn552 2.087 . S
O558 C563 1.256 . S
C559 O565 1.278 . S
C559 O566 1.241 . S
C560 O546 1.244 . S
C560 O548 1.256 1_655 S
C561 O550 1.239 . S
C561 O554 1.264 . S
C562 O551 1.278 . S
C562 O557 1.241 . S
C563 O553 1.225 1_655 S
C563 O558 1.256 . S
C564 O555 1.239 . S
C564 O556 1.256 . S
O565 Mn547 2.221 . S
O565 Mn549 2.290 . S
O565 C559 1.278 . S
O566 Mn549 2.251 . S
O566 C559 1.241 . S
O567 Mn568 2.163 . S
O567 C581 1.244 . S
Mn568 O567 2.163 . S
Mn568 O571 2.160 . S
Mn568 O572 2.221 . S
Mn568 O574 2.163 . S
Mn568 O576 2.160 . S
Mn568 O586 2.221 . S
O569 Mn570 2.087 . S
O569 C581 1.256 . S
Mn570 O569 2.087 . S
Mn570 O577 2.089 . S
Mn570 O586 2.290 . S
Mn570 O587 2.251 . S
O571 Mn568 2.160 . S
O571 C582 1.239 . S
O572 Mn568 2.221 . S
O572 Mn573 2.290 . S
O572 C583 1.278 . S
Mn573 O572 2.290 . S
Mn573 O575 2.089 . S
Mn573 O578 2.251 . S
Mn573 O579 2.087 . S
O574 Mn568 2.163 . S
O574 C584 1.244 . S
O575 Mn573 2.089 . S
O575 C582 1.256 . S
O576 Mn568 2.160 . S
O576 C585 1.239 . S
O577 Mn570 2.089 . S
O577 C585 1.256 . S
O578 Mn573 2.251 . S
O578 C583 1.241 . S
O579 Mn573 2.087 . S
O579 C584 1.256 . S
C580 O586 1.278 . S
C580 O587 1.241 . S
C581 O567 1.244 . S
C581 O569 1.256 . S
C582 O571 1.239 . S
C582 O575 1.256 . S
C583 O572 1.278 . S
C583 O578 1.241 . S
C584 O574 1.244 . S
C584 O579 1.256 . S
C585 O576 1.239 . S
C585 O577 1.256 . S
O586 Mn568 2.221 . S
O586 Mn570 2.290 . S
O586 C580 1.278 . S
O587 Mn570 2.251 . S
O587 C580 1.241 . S
O588 Mn589 2.163 . S
O588 C602 1.244 . S
Mn589 O588 2.163 . S
Mn589 O592 2.160 . S
Mn589 O593 2.221 . S
Mn589 O595 2.163 . S
Mn589 O597 2.160 . S
Mn589 O607 2.221 . S
O590 Mn591 2.087 . S
O590 C602 1.256 . S
Mn591 O590 2.087 . S
Mn591 O598 2.089 . S
Mn591 O607 2.290 . S
Mn591 O608 2.251 . S
O592 Mn589 2.160 . S
O592 C603 1.239 . S
O593 Mn589 2.221 . S
O593 Mn594 2.290 . S
O593 C604 1.278 . S
Mn594 O593 2.290 . S
Mn594 O596 2.089 . S
Mn594 O599 2.251 . S
Mn594 O600 2.087 . S
O595 Mn589 2.163 . S
O595 C605 1.244 . S
O596 Mn594 2.089 . S
O596 C603 1.256 . S
O597 Mn589 2.160 . S
O597 C606 1.239 . S
O598 Mn591 2.089 . S
O598 C606 1.256 . S
O599 Mn594 2.251 . S
O599 C604 1.241 . S
O600 Mn594 2.087 . S
O600 C605 1.256 . S
C601 O607 1.278 . S
C601 O608 1.241 . S
C602 O588 1.244 . S
C602 O590 1.256 . S
C603 O592 1.239 . S
C603 O596 1.256 . S
C604 O593 1.278 . S
C604 O599 1.241 . S
C605 O595 1.244 . S
C605 O600 1.256 . S
C606 O597 1.239 . S
C606 O598 1.256 . S
O607 Mn589 2.221 . S
O607 Mn591 2.290 . S
O607 C601 1.278 . S
O608 Mn591 2.251 . S
O608 C601 1.241 . S
O609 Mn610 2.163 . S
O609 C623 1.244 . S
Mn610 O609 2.163 . S
Mn610 O613 2.160 . S
Mn610 O614 2.221 . S
Mn610 O616 2.163 . S
Mn610 O618 2.160 . S
Mn610 O628 2.221 . S
O611 Mn612 2.087 . S
O611 C623 1.256 . S
Mn612 O611 2.087 . S
Mn612 O619 2.089 . S
Mn612 O628 2.290 . S
Mn612 O629 2.251 . S
O613 Mn610 2.160 . S
O613 C624 1.239 . S
O614 Mn610 2.221 . S
O614 Mn615 2.290 . S
O614 C625 1.278 . S
Mn615 O614 2.290 . S
Mn615 O617 2.089 . S
Mn615 O620 2.251 . S
Mn615 O621 2.087 . S
O616 Mn610 2.163 . S
O616 C626 1.244 . S
O617 Mn615 2.089 . S
O617 C624 1.256 . S
O618 Mn610 2.160 . S
O618 C627 1.239 . S
O619 Mn612 2.089 . S
O619 C627 1.256 . S
O620 Mn615 2.251 . S
O620 C625 1.241 . S
O621 Mn615 2.087 . S
O621 C626 1.256 . S
C622 O628 1.278 . S
C622 O629 1.241 . S
C623 O609 1.244 . S
C623 O611 1.256 . S
C624 O613 1.239 . S
C624 O617 1.256 . S
C625 O614 1.278 . S
C625 O620 1.241 . S
C626 O616 1.244 . S
C626 O621 1.256 . S
C627 O618 1.239 . S
C627 O619 1.256 . S
O628 Mn610 2.221 . S
O628 Mn612 2.290 . S
O628 C622 1.278 . S
O629 Mn612 2.251 . S
O629 C622 1.241 . S
O630 Mn631 2.163 . S
O630 C644 1.244 . S
Mn631 O630 2.163 . S
Mn631 O634 2.160 . S
Mn631 O635 2.221 . S
Mn631 O637 2.163 . S
Mn631 O639 2.160 . S
Mn631 O649 2.221 . S
O632 Mn633 2.087 . S
O632 C644 1.256 . S
Mn633 O632 2.087 . S
Mn633 O640 2.089 . S
Mn633 O649 2.290 . S
Mn633 O650 2.251 . S
O634 Mn631 2.160 . S
O634 C645 1.239 . S
O635 Mn631 2.221 . S
O635 Mn636 2.290 . S
O635 C646 1.278 . S
Mn636 O635 2.290 . S
Mn636 O638 2.089 . S
Mn636 O641 2.251 . S
Mn636 O642 2.087 . S
O637 Mn631 2.163 . S
O637 C647 1.244 . S
O638 Mn636 2.089 . S
O638 C645 1.256 . S
O639 Mn631 2.160 . S
O639 C648 1.239 . S
O640 Mn633 2.089 . S
O640 C648 1.256 . S
O641 Mn636 2.251 . S
O641 C646 1.241 . S
O642 Mn636 2.087 . S
O642 C647 1.256 . S
C643 O649 1.278 . S
C643 O650 1.241 . S
C644 O630 1.244 . S
C644 O632 1.256 . S
C645 O634 1.239 . S
C645 O638 1.256 . S
C646 O635 1.278 . S
C646 O641 1.241 . S
C647 O637 1.244 . S
C647 O642 1.256 . S
C648 O639 1.239 . S
C648 O640 1.256 . S
O649 Mn631 2.221 . S
O649 Mn633 2.290 . S
O649 C643 1.278 . S
O650 Mn633 2.251 . S
O650 C643 1.241 . S
O651 Mn652 2.160 1_656 S
O651 C665 1.246 . S
Mn652 O651 2.160 1_454 S
Mn652 O655 2.160 . S
Mn652 O656 2.221 . S
Mn652 O658 2.163 1_554 S
Mn652 O660 2.160 1_455 S
Mn652 O670 2.221 1_454 S
O653 Mn654 2.087 1_556 S
O653 C665 1.256 . S
Mn654 O653 2.087 1_554 S
Mn654 O661 2.089 . S
Mn654 O670 2.290 1_554 S
Mn654 O671 2.251 1_554 S
O655 Mn652 2.160 . S
O655 C666 1.239 . S
O656 Mn652 2.221 . S
O656 Mn657 2.290 1_554 S
O656 C667 1.278 . S
Mn657 O656 2.290 1_556 S
Mn657 O659 2.086 1_556 S
Mn657 O662 2.251 1_556 S
Mn657 O663 2.087 . S
O658 Mn652 2.163 1_556 S
O658 C668 1.244 . S
O659 Mn657 2.086 1_554 S
O659 C666 1.264 . S
O660 Mn652 2.160 1_655 S
O660 C669 1.239 . S
O661 Mn654 2.089 . S
O661 C669 1.256 . S
O662 Mn657 2.251 1_554 S
O662 C667 1.241 . S
O663 Mn657 2.087 . S
O663 C668 1.256 . S
C664 O670 1.278 . S
C664 O671 1.241 . S
C665 O651 1.246 . S
C665 O653 1.256 . S
C666 O655 1.239 . S
C666 O659 1.264 . S
C667 O656 1.278 . S
C667 O662 1.241 . S
C668 O658 1.244 . S
C668 O663 1.256 . S
C669 O660 1.239 . S
C669 O661 1.256 . S
O670 Mn652 2.221 1_656 S
O670 Mn654 2.290 1_556 S
O670 C664 1.278 . S
O671 Mn654 2.251 1_556 S
O671 C664 1.241 . S
H672 C678 0.930 . S
H673 C681 0.930 . S
H674 C682 0.930 . S
H675 C683 0.930 . S
H676 C686 0.930 . S
H677 C687 0.930 . S
C678 H672 0.930 . S
C678 C679 1.355 1_655 S
C678 C680 1.415 . S
C679 C678 1.355 1_455 S
C679 C681 1.419 . S
C680 C678 1.415 . S
C680 C685 1.425 1_655 S
C680 C687 1.409 . S
C681 H673 0.930 . S
C681 C679 1.419 . S
C681 C682 1.362 . S
C682 H674 0.930 . S
C682 C681 1.362 . S
C682 C685 1.409 . S
C683 H675 0.930 . S
C683 C684 1.355 1_455 S
C683 C685 1.415 . S
C684 C683 1.355 1_655 S
C684 C686 1.419 . S
C685 C680 1.425 1_455 S
C685 C682 1.409 . S
C685 C683 1.415 . S
C686 H676 0.930 . S
C686 C684 1.419 . S
C686 C687 1.362 . S
C687 H677 0.930 . S
C687 C680 1.409 . S
C687 C686 1.362 . S
H688 C694 0.930 . S
H689 C697 0.930 . S
H690 C698 0.930 . S
H691 C699 0.930 . S
H692 C702 0.930 . S
H693 C703 0.930 . S
C694 H688 0.930 . S
C694 C695 1.355 . S
C694 C696 1.415 . S
C695 C694 1.355 . S
C695 C697 1.419 . S
C696 C694 1.415 . S
C696 C701 1.425 . S
C696 C703 1.409 . S
C697 H689 0.930 . S
C697 C695 1.419 . S
C697 C698 1.362 . S
C698 H690 0.930 . S
C698 C697 1.362 . S
C698 C701 1.409 . S
C699 H691 0.930 . S
C699 C700 1.355 . S
C699 C701 1.415 . S
C700 C699 1.355 . S
C700 C702 1.419 . S
C701 C696 1.425 . S
C701 C698 1.409 . S
C701 C699 1.415 . S
C702 H692 0.930 . S
C702 C700 1.419 . S
C702 C703 1.362 . S
C703 H693 0.930 . S
C703 C696 1.409 . S
C703 C702 1.362 . S
H704 C710 0.930 . S
H705 C713 0.930 . S
H706 C714 0.930 . S
H707 C715 0.930 . S
H708 C718 0.930 . S
H709 C719 0.930 . S
C710 H704 0.930 . S
C710 C711 1.355 . S
C710 C712 1.415 . S
C711 C710 1.355 . S
C711 C713 1.419 . S
C712 C710 1.415 . S
C712 C717 1.425 . S
C712 C719 1.409 . S
C713 H705 0.930 . S
C713 C711 1.419 . S
C713 C714 1.362 . S
C714 H706 0.930 . S
C714 C713 1.362 . S
C714 C717 1.409 . S
C715 H707 0.930 . S
C715 C716 1.355 . S
C715 C717 1.415 . S
C716 C715 1.355 . S
C716 C718 1.419 . S
C717 C712 1.425 . S
C717 C714 1.409 . S
C717 C715 1.415 . S
C718 H708 0.930 . S
C718 C716 1.419 . S
C718 C719 1.362 . S
C719 H709 0.930 . S
C719 C712 1.409 . S
C719 C718 1.362 . S
H720 C726 0.930 . S
H721 C729 0.930 . S
H722 C730 0.930 . S
H723 C731 0.930 . S
H724 C734 0.930 . S
H725 C735 0.930 . S
C726 H720 0.930 . S
C726 C727 1.355 . S
C726 C728 1.415 . S
C727 C726 1.355 . S
C727 C729 1.419 . S
C728 C726 1.415 . S
C728 C733 1.425 . S
C728 C735 1.409 . S
C729 H721 0.930 . S
C729 C727 1.419 . S
C729 C730 1.362 . S
C730 H722 0.930 . S
C730 C729 1.362 . S
C730 C733 1.409 . S
C731 H723 0.930 . S
C731 C732 1.355 . S
C731 C733 1.415 . S
C732 C731 1.355 . S
C732 C734 1.419 . S
C733 C728 1.425 . S
C733 C730 1.409 . S
C733 C731 1.415 . S
C734 H724 0.930 . S
C734 C732 1.419 . S
C734 C735 1.362 . S
C735 H725 0.930 . S
C735 C728 1.409 . S
C735 C734 1.362 . S
H736 C742 0.930 . S
H737 C745 0.930 . S
H738 C746 0.930 . S
H739 C747 0.930 . S
H740 C750 0.930 . S
H741 C751 0.930 . S
C742 H736 0.930 . S
C742 C743 1.355 1_655 S
C742 C744 1.415 . S
C743 C742 1.355 1_455 S
C743 C745 1.419 . S
C744 C742 1.415 . S
C744 C749 1.425 1_655 S
C744 C751 1.409 . S
C745 H737 0.930 . S
C745 C743 1.419 . S
C745 C746 1.362 . S
C746 H738 0.930 . S
C746 C745 1.362 . S
C746 C749 1.409 . S
C747 H739 0.930 . S
C747 C748 1.355 1_455 S
C747 C749 1.415 . S
C748 C747 1.355 1_655 S
C748 C750 1.419 . S
C749 C744 1.425 1_455 S
C749 C746 1.409 . S
C749 C747 1.415 . S
C750 H740 0.930 . S
C750 C748 1.419 . S
C750 C751 1.362 . S
C751 H741 0.930 . S
C751 C744 1.409 . S
C751 C750 1.362 . S
H752 C758 0.930 . S
H753 C761 0.930 . S
H754 C762 0.930 . S
H755 C763 0.930 . S
H756 C766 0.930 . S
H757 C767 0.930 . S
C758 H752 0.930 . S
C758 C759 1.355 . S
C758 C760 1.415 . S
C759 C758 1.355 . S
C759 C761 1.419 . S
C760 C758 1.415 . S
C760 C765 1.425 . S
C760 C767 1.409 . S
C761 H753 0.930 . S
C761 C759 1.419 . S
C761 C762 1.362 . S
C762 H754 0.930 . S
C762 C761 1.362 . S
C762 C765 1.409 . S
C763 H755 0.930 . S
C763 C764 1.355 . S
C763 C765 1.415 . S
C764 C763 1.355 . S
C764 C766 1.419 . S
C765 C760 1.425 . S
C765 C762 1.409 . S
C765 C763 1.415 . S
C766 H756 0.930 . S
C766 C764 1.419 . S
C766 C767 1.362 . S
C767 H757 0.930 . S
C767 C760 1.409 . S
C767 C766 1.362 . S
H768 C774 0.930 . S
H769 C777 0.930 . S
H770 C778 0.930 . S
H771 C779 0.930 . S
H772 C782 0.930 . S
H773 C783 0.930 . S
C774 H768 0.930 . S
C774 C775 1.355 . S
C774 C776 1.415 . S
C775 C774 1.355 . S
C775 C777 1.419 . S
C776 C774 1.415 . S
C776 C781 1.425 . S
C776 C783 1.409 . S
C777 H769 0.930 . S
C777 C775 1.419 . S
C777 C778 1.362 . S
C778 H770 0.930 . S
C778 C777 1.362 . S
C778 C781 1.409 . S
C779 H771 0.930 . S
C779 C780 1.355 . S
C779 C781 1.415 . S
C780 C779 1.355 . S
C780 C782 1.419 . S
C781 C776 1.425 . S
C781 C778 1.409 . S
C781 C779 1.415 . S
C782 H772 0.930 . S
C782 C780 1.419 . S
C782 C783 1.362 . S
C783 H773 0.930 . S
C783 C776 1.409 . S
C783 C782 1.362 . S
H784 C790 0.930 . S
H785 C793 0.930 . S
H786 C794 0.930 . S
H787 C795 0.930 . S
H788 C798 0.930 . S
H789 C799 0.930 . S
C790 H784 0.930 . S
C790 C791 1.355 . S
C790 C792 1.415 . S
C791 C790 1.355 . S
C791 C793 1.419 . S
C792 C790 1.415 . S
C792 C797 1.425 . S
C792 C799 1.409 . S
C793 H785 0.930 . S
C793 C791 1.419 . S
C793 C794 1.362 . S
C794 H786 0.930 . S
C794 C793 1.362 . S
C794 C797 1.409 . S
C795 H787 0.930 . S
C795 C796 1.355 . S
C795 C797 1.415 . S
C796 C795 1.355 . S
C796 C798 1.419 . S
C797 C792 1.425 . S
C797 C794 1.409 . S
C797 C795 1.415 . S
C798 H788 0.930 . S
C798 C796 1.419 . S
C798 C799 1.362 . S
C799 H789 0.930 . S
C799 C792 1.409 . S
C799 C798 1.362 . S
H800 C806 0.930 . S
H801 C809 0.930 . S
H802 C810 0.930 . S
H803 C811 0.930 . S
H804 C814 0.930 . S
H805 C815 0.930 . S
C806 H800 0.930 . S
C806 C807 1.355 . S
C806 C808 1.415 . S
C807 C806 1.355 . S
C807 C809 1.419 1_545 S
C808 C806 1.415 . S
C808 C813 1.425 1_545 S
C808 C815 1.409 . S
C809 H801 0.930 . S
C809 C807 1.419 1_565 S
C809 C810 1.362 . S
C810 H802 0.930 . S
C810 C809 1.362 . S
C810 C813 1.409 . S
C811 H803 0.930 . S
C811 C812 1.355 . S
C811 C813 1.415 . S
C812 C811 1.355 . S
C812 C814 1.419 1_565 S
C813 C808 1.425 1_565 S
C813 C810 1.409 . S
C813 C811 1.415 . S
C814 H804 0.930 . S
C814 C812 1.419 1_545 S
C814 C815 1.362 . S
C815 H805 0.930 . S
C815 C808 1.409 . S
C815 C814 1.362 . S
H816 C822 0.930 . S
H817 C825 0.930 . S
H818 C826 0.930 . S
H819 C827 0.930 . S
H820 C830 0.930 . S
H821 C831 0.930 . S
C822 H816 0.930 . S
C822 C823 1.355 . S
C822 C824 1.415 . S
C823 C822 1.355 . S
C823 C825 1.419 . S
C824 C822 1.415 . S
C824 C829 1.425 . S
C824 C831 1.409 . S
C825 H817 0.930 . S
C825 C823 1.419 . S
C825 C826 1.362 . S
C826 H818 0.930 . S
C826 C825 1.362 . S
C826 C829 1.409 . S
C827 H819 0.930 . S
C827 C828 1.355 . S
C827 C829 1.415 . S
C828 C827 1.355 . S
C828 C830 1.419 . S
C829 C824 1.425 . S
C829 C826 1.409 . S
C829 C827 1.415 . S
C830 H820 0.930 . S
C830 C828 1.419 . S
C830 C831 1.362 . S
C831 H821 0.930 . S
C831 C824 1.409 . S
C831 C830 1.362 . S
H832 C838 0.930 . S
H833 C841 0.930 . S
H834 C842 0.930 . S
H835 C843 0.930 1_565 S
H836 C846 0.930 . S
H837 C847 0.930 . S
C838 H832 0.930 . S
C838 C839 1.355 . S
C838 C840 1.415 . S
C839 C838 1.355 . S
C839 C841 1.419 1_545 S
C840 C838 1.415 . S
C840 C845 1.425 . S
C840 C847 1.409 . S
C841 H833 0.930 . S
C841 C839 1.419 1_565 S
C841 C842 1.362 . S
C842 H834 0.930 . S
C842 C841 1.362 . S
C842 C845 1.409 1_565 S
C843 H835 0.930 1_545 S
C843 C844 1.355 . S
C843 C845 1.415 . S
C844 C843 1.355 . S
C844 C846 1.419 . S
C845 C840 1.425 . S
C845 C842 1.409 1_545 S
C845 C843 1.415 . S
C846 H836 0.930 . S
C846 C844 1.419 . S
C846 C847 1.362 . S
C847 H837 0.930 . S
C847 C840 1.409 . S
C847 C846 1.362 . S
H848 C854 0.930 . S
H849 C857 0.930 . S
H850 C858 0.930 . S
H851 C859 0.930 . S
H852 C862 0.930 . S
H853 C863 0.930 . S
C854 H848 0.930 . S
C854 C855 1.355 . S
C854 C856 1.415 . S
C855 C854 1.355 . S
C855 C857 1.419 . S
C856 C854 1.415 . S
C856 C861 1.425 . S
C856 C863 1.409 . S
C857 H849 0.930 . S
C857 C855 1.419 . S
C857 C858 1.362 . S
C858 H850 0.930 . S
C858 C857 1.362 . S
C858 C861 1.409 . S
C859 H851 0.930 . S
C859 C860 1.355 . S
C859 C861 1.415 . S
C860 C859 1.355 . S
C860 C862 1.419 . S
C861 C856 1.425 . S
C861 C858 1.409 . S
C861 C859 1.415 . S
C862 H852 0.930 . S
C862 C860 1.419 . S
C862 C863 1.362 . S
C863 H853 0.930 . S
C863 C856 1.409 . S
C863 C862 1.362 . S
H864 C870 0.929 1_565 S
H865 C873 0.930 . S
H866 C874 0.930 . S
H867 C875 0.930 . S
H868 C878 0.930 1_665 S
H869 C879 0.941 . S
C870 H864 0.929 1_545 S
C870 C871 1.355 . S
C870 C872 1.415 . S
C871 C870 1.355 . S
C871 C873 1.419 . S
C872 C870 1.415 . S
C872 C877 1.425 . S
C872 C879 1.403 1_545 S
C873 H865 0.930 . S
C873 C871 1.419 . S
C873 C874 1.362 . S
C874 H866 0.930 . S
C874 C873 1.362 . S
C874 C877 1.409 . S
C875 H867 0.930 . S
C875 C876 1.355 . S
C875 C877 1.415 . S
C876 C875 1.355 . S
C876 C878 1.419 . S
C877 C872 1.425 . S
C877 C874 1.409 . S
C877 C875 1.415 . S
C878 H868 0.930 1_445 S
C878 C876 1.419 . S
C878 C879 1.360 1_545 S
C879 H869 0.941 . S
C879 C872 1.403 1_565 S
C879 C878 1.360 1_565 S
H880 C886 0.930 . S
H881 C889 0.930 . S
H882 C890 0.930 . S
H883 C891 0.930 . S
H884 C894 0.930 . S
H885 C895 0.930 . S
C886 H880 0.930 . S
C886 C887 1.355 . S
C886 C888 1.415 . S
C887 C886 1.355 . S
C887 C889 1.419 . S
C888 C886 1.415 . S
C888 C893 1.425 . S
C888 C895 1.409 . S
C889 H881 0.930 . S
C889 C887 1.419 . S
C889 C890 1.362 . S
C890 H882 0.930 . S
C890 C889 1.362 . S
C890 C893 1.409 . S
C891 H883 0.930 . S
C891 C892 1.355 . S
C891 C893 1.415 . S
C892 C891 1.355 . S
C892 C894 1.419 . S
C893 C888 1.425 . S
C893 C890 1.409 . S
C893 C891 1.415 . S
C894 H884 0.930 . S
C894 C892 1.419 . S
C894 C895 1.362 . S
C895 H885 0.930 . S
C895 C888 1.409 . S
C895 C894 1.362 . S
H896 C902 0.930 . S
H897 C905 0.930 . S
H898 C906 0.930 . S
H899 C907 0.930 . S
H900 C910 0.930 . S
H901 C911 0.930 . S
C902 H896 0.930 . S
C902 C903 1.361 . S
C902 C904 1.415 . S
C903 C902 1.361 . S
C903 C905 1.413 1_565 S
C904 C902 1.415 . S
C904 C909 1.425 1_565 S
C904 C911 1.409 . S
C905 H897 0.930 . S
C905 C903 1.413 1_545 S
C905 C906 1.362 . S
C906 H898 0.930 . S
C906 C905 1.362 . S
C906 C909 1.409 . S
C907 H899 0.930 . S
C907 C908 1.355 1_545 S
C907 C909 1.415 . S
C908 C907 1.355 1_565 S
C908 C910 1.419 . S
C909 C904 1.425 1_545 S
C909 C906 1.409 . S
C909 C907 1.415 . S
C910 H900 0.930 . S
C910 C908 1.419 . S
C910 C911 1.362 . S
C911 H901 0.930 . S
C911 C904 1.409 . S
C911 C910 1.362 . S
H912 C918 0.930 . S
H913 C921 0.930 . S
H914 C922 0.930 . S
H915 C923 0.930 . S
H916 C926 0.930 . S
H917 C927 0.930 . S
C918 H912 0.930 . S
C918 C919 1.355 . S
C918 C920 1.415 . S
C919 C918 1.355 . S
C919 C921 1.419 . S
C920 C918 1.415 . S
C920 C925 1.425 . S
C920 C927 1.409 . S
C921 H913 0.930 . S
C921 C919 1.419 . S
C921 C922 1.362 . S
C922 H914 0.930 . S
C922 C921 1.362 . S
C922 C925 1.409 . S
C923 H915 0.930 . S
C923 C924 1.355 . S
C923 C925 1.415 . S
C924 C923 1.355 . S
C924 C926 1.419 . S
C925 C920 1.425 . S
C925 C922 1.409 . S
C925 C923 1.415 . S
C926 H916 0.930 . S
C926 C924 1.419 . S
C926 C927 1.362 . S
C927 H917 0.930 . S
C927 C920 1.409 . S
C927 C926 1.362 . S
H928 C934 0.930 . S
H929 C937 0.930 . S
H930 C938 0.930 . S
H931 C939 0.930 . S
H932 C942 0.930 . S
H933 C943 0.930 . S
C934 H928 0.930 . S
C934 C935 1.355 . S
C934 C936 1.415 . S
C935 C934 1.355 . S
C935 C937 1.419 1_554 S
C936 C934 1.415 . S
C936 C941 1.425 1_554 S
C936 C943 1.409 . S
C937 H929 0.930 . S
C937 C935 1.419 1_556 S
C937 C938 1.362 . S
C938 H930 0.930 . S
C938 C937 1.362 . S
C938 C941 1.409 . S
C939 H931 0.930 . S
C939 C940 1.355 . S
C939 C941 1.415 . S
C940 C939 1.355 . S
C940 C942 1.419 1_556 S
C941 C936 1.425 1_556 S
C941 C938 1.409 . S
C941 C939 1.415 . S
C942 H932 0.930 . S
C942 C940 1.419 1_554 S
C942 C943 1.362 . S
C943 H933 0.930 . S
C943 C936 1.409 . S
C943 C942 1.362 . S
H944 C950 0.930 . S
H945 C953 0.930 . S
H946 C954 0.930 . S
H947 C955 0.930 . S
H948 C958 0.930 . S
H949 C959 0.930 . S
C950 H944 0.930 . S
C950 C951 1.355 . S
C950 C952 1.415 . S
C951 C950 1.355 . S
C951 C953 1.419 . S
C952 C950 1.415 . S
C952 C957 1.425 . S
C952 C959 1.409 . S
C953 H945 0.930 . S
C953 C951 1.419 . S
C953 C954 1.362 . S
C954 H946 0.930 . S
C954 C953 1.362 . S
C954 C957 1.409 . S
C955 H947 0.930 . S
C955 C956 1.355 . S
C955 C957 1.415 . S
C956 C955 1.355 . S
C956 C958 1.419 . S
C957 C952 1.425 . S
C957 C954 1.409 . S
C957 C955 1.415 . S
C958 H948 0.930 . S
C958 C956 1.419 . S
C958 C959 1.362 . S
C959 H949 0.930 . S
C959 C952 1.409 . S
C959 C958 1.362 . S
H960 C966 0.930 . S
H961 C969 0.930 . S
H962 C970 0.930 . S
H963 C971 0.930 . S
H964 C974 0.930 . S
H965 C975 0.930 . S
C966 H960 0.930 . S
C966 C967 1.355 . S
C966 C968 1.415 . S
C967 C966 1.355 . S
C967 C969 1.419 . S
C968 C966 1.415 . S
C968 C973 1.425 . S
C968 C975 1.409 . S
C969 H961 0.930 . S
C969 C967 1.419 . S
C969 C970 1.362 . S
C970 H962 0.930 . S
C970 C969 1.362 . S
C970 C973 1.409 . S
C971 H963 0.930 . S
C971 C972 1.355 . S
C971 C973 1.415 . S
C972 C971 1.355 . S
C972 C974 1.419 . S
C973 C968 1.425 . S
C973 C970 1.409 . S
C973 C971 1.415 . S
C974 H964 0.930 . S
C974 C972 1.419 . S
C974 C975 1.362 . S
C975 H965 0.930 . S
C975 C968 1.409 . S
C975 C974 1.362 . S
H976 C982 0.930 . S
H977 C985 0.930 . S
H978 C986 0.930 . S
H979 C987 0.930 . S
H980 C990 0.930 . S
H981 C991 0.930 . S
C982 H976 0.930 . S
C982 C983 1.355 . S
C982 C984 1.415 . S
C983 C982 1.355 . S
C983 C985 1.419 . S
C984 C982 1.415 . S
C984 C989 1.425 . S
C984 C991 1.409 . S
C985 H977 0.930 . S
C985 C983 1.419 . S
C985 C986 1.362 . S
C986 H978 0.930 . S
C986 C985 1.362 . S
C986 C989 1.409 . S
C987 H979 0.930 . S
C987 C988 1.355 . S
C987 C989 1.415 . S
C988 C987 1.355 . S
C988 C990 1.419 . S
C989 C984 1.425 . S
C989 C986 1.409 . S
C989 C987 1.415 . S
C990 H980 0.930 . S
C990 C988 1.419 . S
C990 C991 1.362 . S
C991 H981 0.930 . S
C991 C984 1.409 . S
C991 C990 1.362 . S
H992 C998 0.930 . S
H993 C1001 0.930 . S
H994 C1002 0.930 . S
H995 C1003 0.930 . S
H996 C1006 0.930 . S
H997 C1007 0.930 . S
C998 H992 0.930 . S
C998 C999 1.355 . S
C998 C1000 1.415 . S
C999 C998 1.355 . S
C999 C1001 1.419 . S
C1000 C998 1.415 . S
C1000 C1005 1.425 . S
C1000 C1007 1.409 . S
C1001 H993 0.930 . S
C1001 C999 1.419 . S
C1001 C1002 1.362 . S
C1002 H994 0.930 . S
C1002 C1001 1.362 . S
C1002 C1005 1.409 . S
C1003 H995 0.930 . S
C1003 C1004 1.355 . S
C1003 C1005 1.415 . S
C1004 C1003 1.355 . S
C1004 C1006 1.419 . S
C1005 C1000 1.425 . S
C1005 C1002 1.409 . S
C1005 C1003 1.415 . S
C1006 H996 0.930 . S
C1006 C1004 1.419 . S
C1006 C1007 1.362 . S
C1007 H997 0.930 . S
C1007 C1000 1.409 . S
C1007 C1006 1.362 . S
H1008 C1014 0.930 . S
H1009 C1017 0.930 . S
H1010 C1018 0.930 . S
H1011 C1019 0.930 . S
H1012 C1022 0.930 . S
H1013 C1023 0.930 . S
C1014 H1008 0.930 . S
C1014 C1015 1.355 . S
C1014 C1016 1.415 . S
C1015 C1014 1.355 . S
C1015 C1017 1.419 . S
C1016 C1014 1.415 . S
C1016 C1021 1.425 . S
C1016 C1023 1.409 . S
C1017 H1009 0.930 . S
C1017 C1015 1.419 . S
C1017 C1018 1.362 . S
C1018 H1010 0.930 . S
C1018 C1017 1.362 . S
C1018 C1021 1.409 . S
C1019 H1011 0.930 . S
C1019 C1020 1.355 . S
C1019 C1021 1.415 . S
C1020 C1019 1.355 . S
C1020 C1022 1.419 . S
C1021 C1016 1.425 . S
C1021 C1018 1.409 . S
C1021 C1019 1.415 . S
C1022 H1012 0.930 . S
C1022 C1020 1.419 . S
C1022 C1023 1.362 . S
C1023 H1013 0.930 . S
C1023 C1016 1.409 . S
C1023 C1022 1.362 . S
H1024 C1030 0.930 . S
H1025 C1033 0.930 . S
H1026 C1034 0.930 . S
H1027 C1035 0.930 . S
H1028 C1038 0.930 . S
H1029 C1039 0.930 . S
C1030 H1024 0.930 . S
C1030 C1031 1.355 . S
C1030 C1032 1.415 . S
C1031 C1030 1.355 . S
C1031 C1033 1.419 . S
C1032 C1030 1.415 . S
C1032 C1037 1.425 . S
C1032 C1039 1.409 . S
C1033 H1025 0.930 . S
C1033 C1031 1.419 . S
C1033 C1034 1.362 . S
C1034 H1026 0.930 . S
C1034 C1033 1.362 . S
C1034 C1037 1.409 . S
C1035 H1027 0.930 . S
C1035 C1036 1.355 . S
C1035 C1037 1.415 . S
C1036 C1035 1.355 . S
C1036 C1038 1.419 . S
C1037 C1032 1.425 . S
C1037 C1034 1.409 . S
C1037 C1035 1.415 . S
C1038 H1028 0.930 . S
C1038 C1036 1.419 . S
C1038 C1039 1.362 . S
C1039 H1029 0.930 . S
C1039 C1032 1.409 . S
C1039 C1038 1.362 . S
H1040 C1046 0.930 . S
H1041 C1049 0.930 . S
H1042 C1050 0.930 . S
H1043 C1051 0.930 . S
H1044 C1054 0.930 . S
H1045 C1055 0.930 . S
C1046 H1040 0.930 . S
C1046 C1047 1.355 . S
C1046 C1048 1.415 . S
C1047 C1046 1.355 . S
C1047 C1049 1.419 . S
C1048 C1046 1.415 . S
C1048 C1053 1.425 . S
C1048 C1055 1.409 . S
C1049 H1041 0.930 . S
C1049 C1047 1.419 . S
C1049 C1050 1.362 . S
C1050 H1042 0.930 . S
C1050 C1049 1.362 . S
C1050 C1053 1.409 . S
C1051 H1043 0.930 . S
C1051 C1052 1.355 . S
C1051 C1053 1.415 . S
C1052 C1051 1.355 . S
C1052 C1054 1.419 . S
C1053 C1048 1.425 . S
C1053 C1050 1.409 . S
C1053 C1051 1.415 . S
C1054 H1044 0.930 . S
C1054 C1052 1.419 . S
C1054 C1055 1.362 . S
C1055 H1045 0.930 . S
C1055 C1048 1.409 . S
C1055 C1054 1.362 . S
H1056 C1062 0.930 . S
H1057 C1065 0.930 . S
H1058 C1066 0.930 . S
H1059 C1067 0.930 . S
H1060 C1070 0.930 . S
H1061 C1071 0.930 . S
C1062 H1056 0.930 . S
C1062 C1063 1.355 1_655 S
C1062 C1064 1.415 . S
C1063 C1062 1.355 1_455 S
C1063 C1065 1.419 . S
C1064 C1062 1.415 . S
C1064 C1069 1.425 1_655 S
C1064 C1071 1.409 . S
C1065 H1057 0.930 . S
C1065 C1063 1.419 . S
C1065 C1066 1.362 . S
C1066 H1058 0.930 . S
C1066 C1065 1.362 . S
C1066 C1069 1.409 . S
C1067 H1059 0.930 . S
C1067 C1068 1.355 . S
C1067 C1069 1.415 . S
C1068 C1067 1.355 . S
C1068 C1070 1.419 1_455 S
C1069 C1064 1.425 1_455 S
C1069 C1066 1.409 . S
C1069 C1067 1.415 . S
C1070 H1060 0.930 . S
C1070 C1068 1.419 1_655 S
C1070 C1071 1.362 . S
C1071 H1061 0.930 . S
C1071 C1064 1.409 . S
C1071 C1070 1.362 . S
H1072 C1078 0.930 . S
H1073 C1081 0.930 . S
H1074 C1082 0.930 . S
H1075 C1083 0.930 . S
H1076 C1086 0.930 . S
H1077 C1087 0.930 . S
C1078 H1072 0.930 . S
C1078 C1079 1.355 . S
C1078 C1080 1.415 . S
C1079 C1078 1.355 . S
C1079 C1081 1.419 . S
C1080 C1078 1.415 . S
C1080 C1085 1.425 . S
C1080 C1087 1.409 . S
C1081 H1073 0.930 . S
C1081 C1079 1.419 . S
C1081 C1082 1.362 . S
C1082 H1074 0.930 . S
C1082 C1081 1.362 . S
C1082 C1085 1.409 . S
C1083 H1075 0.930 . S
C1083 C1084 1.355 . S
C1083 C1085 1.415 . S
C1084 C1083 1.355 . S
C1084 C1086 1.419 . S
C1085 C1080 1.425 . S
C1085 C1082 1.409 . S
C1085 C1083 1.415 . S
C1086 H1076 0.930 . S
C1086 C1084 1.419 . S
C1086 C1087 1.362 . S
C1087 H1077 0.930 . S
C1087 C1080 1.409 . S
C1087 C1086 1.362 . S
H1088 C1094 0.930 . S
H1089 C1097 0.930 . S
H1090 C1098 0.930 . S
H1091 C1099 0.930 . S
H1092 C1102 0.930 . S
H1093 C1103 0.930 . S
C1094 H1088 0.930 . S
C1094 C1095 1.355 . S
C1094 C1096 1.415 . S
C1095 C1094 1.355 . S
C1095 C1097 1.419 . S
C1096 C1094 1.415 . S
C1096 C1101 1.425 . S
C1096 C1103 1.409 . S
C1097 H1089 0.930 . S
C1097 C1095 1.419 . S
C1097 C1098 1.362 . S
C1098 H1090 0.930 . S
C1098 C1097 1.362 . S
C1098 C1101 1.409 . S
C1099 H1091 0.930 . S
C1099 C1100 1.355 . S
C1099 C1101 1.415 . S
C1100 C1099 1.355 . S
C1100 C1102 1.419 . S
C1101 C1096 1.425 . S
C1101 C1098 1.409 . S
C1101 C1099 1.415 . S
C1102 H1092 0.930 . S
C1102 C1100 1.419 . S
C1102 C1103 1.362 . S
C1103 H1093 0.930 . S
C1103 C1096 1.409 . S
C1103 C1102 1.362 . S
H1104 C1110 0.930 . S
H1105 C1113 0.930 . S
H1106 C1114 0.930 . S
H1107 C1115 0.930 . S
H1108 C1118 0.930 . S
H1109 C1119 0.930 . S
C1110 H1104 0.930 . S
C1110 C1111 1.355 . S
C1110 C1112 1.415 . S
C1111 C1110 1.355 . S
C1111 C1113 1.419 . S
C1112 C1110 1.415 . S
C1112 C1117 1.425 . S
C1112 C1119 1.409 . S
C1113 H1105 0.930 . S
C1113 C1111 1.419 . S
C1113 C1114 1.362 . S
C1114 H1106 0.930 . S
C1114 C1113 1.362 . S
C1114 C1117 1.409 . S
C1115 H1107 0.930 . S
C1115 C1116 1.355 . S
C1115 C1117 1.415 . S
C1116 C1115 1.355 . S
C1116 C1118 1.419 . S
C1117 C1112 1.425 . S
C1117 C1114 1.409 . S
C1117 C1115 1.415 . S
C1118 H1108 0.930 . S
C1118 C1116 1.419 . S
C1118 C1119 1.362 . S
C1119 H1109 0.930 . S
C1119 C1112 1.409 . S
C1119 C1118 1.362 . S
H1120 C1126 0.930 . S
H1121 C1129 0.930 . S
H1122 C1130 0.930 . S
H1123 C1131 0.930 . S
H1124 C1134 0.930 . S
H1125 C1135 0.930 . S
C1126 H1120 0.930 . S
C1126 C1127 1.355 1_655 S
C1126 C1128 1.416 . S
C1127 C1126 1.355 1_455 S
C1127 C1129 1.419 . S
C1128 C1126 1.416 . S
C1128 C1133 1.422 1_655 S
C1128 C1135 1.411 . S
C1129 H1121 0.930 . S
C1129 C1127 1.419 . S
C1129 C1130 1.362 . S
C1130 H1122 0.930 . S
C1130 C1129 1.362 . S
C1130 C1133 1.409 . S
C1131 H1123 0.930 . S
C1131 C1132 1.355 . S
C1131 C1133 1.415 . S
C1132 C1131 1.355 . S
C1132 C1134 1.419 1_455 S
C1133 C1128 1.422 1_455 S
C1133 C1130 1.409 . S
C1133 C1131 1.415 . S
C1134 H1124 0.930 . S
C1134 C1132 1.419 1_655 S
C1134 C1135 1.362 . S
C1135 H1125 0.930 . S
C1135 C1128 1.411 . S
C1135 C1134 1.362 . S
H1136 C1142 0.930 . S
H1137 C1145 0.930 . S
H1138 C1146 0.930 . S
H1139 C1147 0.930 . S
H1140 C1150 0.930 . S
H1141 C1151 0.930 . S
C1142 H1136 0.930 . S
C1142 C1143 1.355 . S
C1142 C1144 1.415 . S
C1143 C1142 1.355 . S
C1143 C1145 1.419 . S
C1144 C1142 1.415 . S
C1144 C1149 1.425 . S
C1144 C1151 1.409 . S
C1145 H1137 0.930 . S
C1145 C1143 1.419 . S
C1145 C1146 1.362 . S
C1146 H1138 0.930 . S
C1146 C1145 1.362 . S
C1146 C1149 1.409 . S
C1147 H1139 0.930 . S
C1147 C1148 1.355 . S
C1147 C1149 1.415 . S
C1148 C1147 1.355 . S
C1148 C1150 1.419 . S
C1149 C1144 1.425 . S
C1149 C1146 1.409 . S
C1149 C1147 1.415 . S
C1150 H1140 0.930 . S
C1150 C1148 1.419 . S
C1150 C1151 1.362 . S
C1151 H1141 0.930 . S
C1151 C1144 1.409 . S
C1151 C1150 1.362 . S
H1152 C1158 0.930 . S
H1153 C1161 0.930 . S
H1154 C1162 0.930 . S
H1155 C1163 0.930 . S
H1156 C1166 0.930 . S
H1157 C1167 0.930 . S
C1158 H1152 0.930 . S
C1158 C1159 1.355 . S
C1158 C1160 1.415 . S
C1159 C1158 1.355 . S
C1159 C1161 1.419 . S
C1160 C1158 1.415 . S
C1160 C1165 1.425 . S
C1160 C1167 1.409 . S
C1161 H1153 0.930 . S
C1161 C1159 1.419 . S
C1161 C1162 1.362 . S
C1162 H1154 0.930 . S
C1162 C1161 1.362 . S
C1162 C1165 1.409 . S
C1163 H1155 0.930 . S
C1163 C1164 1.355 . S
C1163 C1165 1.415 . S
C1164 C1163 1.355 . S
C1164 C1166 1.419 . S
C1165 C1160 1.425 . S
C1165 C1162 1.409 . S
C1165 C1163 1.415 . S
C1166 H1156 0.930 . S
C1166 C1164 1.419 . S
C1166 C1167 1.362 . S
C1167 H1157 0.930 . S
C1167 C1160 1.409 . S
C1167 C1166 1.362 . S
H1168 C1174 0.930 . S
H1169 C1177 0.930 . S
H1170 C1178 0.930 . S
H1171 C1179 0.930 . S
H1172 C1182 0.930 . S
H1173 C1183 0.930 . S
C1174 H1168 0.930 . S
C1174 C1175 1.355 . S
C1174 C1176 1.415 . S
C1175 C1174 1.355 . S
C1175 C1177 1.419 . S
C1176 C1174 1.415 . S
C1176 C1181 1.425 . S
C1176 C1183 1.409 . S
C1177 H1169 0.930 . S
C1177 C1175 1.419 . S
C1177 C1178 1.362 . S
C1178 H1170 0.930 . S
C1178 C1177 1.362 . S
C1178 C1181 1.409 . S
C1179 H1171 0.930 . S
C1179 C1180 1.355 . S
C1179 C1181 1.415 . S
C1180 C1179 1.355 . S
C1180 C1182 1.419 . S
C1181 C1176 1.425 . S
C1181 C1178 1.409 . S
C1181 C1179 1.415 . S
C1182 H1172 0.930 . S
C1182 C1180 1.419 . S
C1182 C1183 1.362 . S
C1183 H1173 0.930 . S
C1183 C1176 1.409 . S
C1183 C1182 1.362 . S
H1184 C1190 0.930 . S
H1185 C1193 0.930 . S
H1186 C1194 0.930 . S
H1187 C1195 0.930 . S
H1188 C1198 0.930 . S
H1189 C1199 0.930 . S
C1190 H1184 0.930 . S
C1190 C1191 1.340 1_565 S
C1190 C1192 1.415 . S
C1191 C1190 1.340 1_545 S
C1191 C1193 1.440 . S
C1192 C1190 1.415 . S
C1192 C1197 1.425 1_565 S
C1192 C1199 1.409 . S
C1193 H1185 0.930 . S
C1193 C1191 1.440 . S
C1193 C1194 1.362 . S
C1194 H1186 0.930 . S
C1194 C1193 1.362 . S
C1194 C1197 1.409 . S
C1195 H1187 0.930 . S
C1195 C1196 1.355 . S
C1195 C1197 1.415 . S
C1196 C1195 1.355 . S
C1196 C1198 1.419 1_545 S
C1197 C1192 1.425 1_545 S
C1197 C1194 1.409 . S
C1197 C1195 1.415 . S
C1198 H1188 0.930 . S
C1198 C1196 1.419 1_565 S
C1198 C1199 1.362 . S
C1199 H1189 0.930 . S
C1199 C1192 1.409 . S
C1199 C1198 1.362 . S
H1200 C1206 0.930 . S
H1201 C1209 0.930 . S
H1202 C1210 0.930 . S
H1203 C1211 0.930 . S
H1204 C1214 0.930 . S
H1205 C1215 0.930 . S
C1206 H1200 0.930 . S
C1206 C1207 1.355 . S
C1206 C1208 1.415 . S
C1207 C1206 1.355 . S
C1207 C1209 1.419 . S
C1208 C1206 1.415 . S
C1208 C1213 1.425 . S
C1208 C1215 1.409 . S
C1209 H1201 0.930 . S
C1209 C1207 1.419 . S
C1209 C1210 1.362 . S
C1210 H1202 0.930 . S
C1210 C1209 1.362 . S
C1210 C1213 1.409 . S
C1211 H1203 0.930 . S
C1211 C1212 1.355 . S
C1211 C1213 1.415 . S
C1212 C1211 1.355 . S
C1212 C1214 1.419 . S
C1213 C1208 1.425 . S
C1213 C1210 1.409 . S
C1213 C1211 1.415 . S
C1214 H1204 0.930 . S
C1214 C1212 1.419 . S
C1214 C1215 1.362 . S
C1215 H1205 0.930 . S
C1215 C1208 1.409 . S
C1215 C1214 1.362 . S
H1216 C1222 0.930 . S
H1217 C1225 0.930 . S
H1218 C1226 0.930 . S
H1219 C1227 0.930 . S
H1220 C1230 0.930 . S
H1221 C1231 0.930 . S
C1222 H1216 0.930 . S
C1222 C1223 1.355 1_565 S
C1222 C1224 1.415 . S
C1223 C1222 1.355 1_545 S
C1223 C1225 1.419 . S
C1224 C1222 1.415 . S
C1224 C1229 1.425 1_565 S
C1224 C1231 1.409 . S
C1225 H1217 0.930 . S
C1225 C1223 1.419 . S
C1225 C1226 1.362 . S
C1226 H1218 0.930 . S
C1226 C1225 1.362 . S
C1226 C1229 1.409 . S
C1227 H1219 0.930 . S
C1227 C1228 1.370 . S
C1227 C1229 1.415 . S
C1228 C1227 1.370 . S
C1228 C1230 1.403 1_545 S
C1229 C1224 1.425 1_545 S
C1229 C1226 1.409 . S
C1229 C1227 1.415 . S
C1230 H1220 0.930 . S
C1230 C1228 1.403 1_565 S
C1230 C1231 1.362 . S
C1231 H1221 0.930 . S
C1231 C1224 1.409 . S
C1231 C1230 1.362 . S
H1232 C1238 0.930 . S
H1233 C1241 0.930 . S
H1234 C1242 0.930 . S
H1235 C1243 0.930 . S
H1236 C1246 0.930 . S
H1237 C1247 0.930 . S
C1238 H1232 0.930 . S
C1238 C1239 1.355 . S
C1238 C1240 1.415 . S
C1239 C1238 1.355 . S
C1239 C1241 1.419 . S
C1240 C1238 1.415 . S
C1240 C1245 1.425 . S
C1240 C1247 1.409 . S
C1241 H1233 0.930 . S
C1241 C1239 1.419 . S
C1241 C1242 1.362 . S
C1242 H1234 0.930 . S
C1242 C1241 1.362 . S
C1242 C1245 1.409 . S
C1243 H1235 0.930 . S
C1243 C1244 1.355 . S
C1243 C1245 1.415 . S
C1244 C1243 1.355 . S
C1244 C1246 1.419 . S
C1245 C1240 1.425 . S
C1245 C1242 1.409 . S
C1245 C1243 1.415 . S
C1246 H1236 0.930 . S
C1246 C1244 1.419 . S
C1246 C1247 1.362 . S
C1247 H1237 0.930 . S
C1247 C1240 1.409 . S
C1247 C1246 1.362 . S
H1248 C1254 0.930 . S
H1249 C1257 0.930 . S
H1250 C1258 0.930 . S
H1251 C1259 0.930 . S
H1252 C1262 0.930 . S
H1253 C1263 0.930 . S
C1254 H1248 0.930 . S
C1254 C1255 1.355 1_545 S
C1254 C1256 1.415 . S
C1255 C1254 1.355 1_565 S
C1255 C1257 1.419 . S
C1256 C1254 1.415 . S
C1256 C1261 1.425 1_545 S
C1256 C1263 1.409 . S
C1257 H1249 0.930 . S
C1257 C1255 1.419 . S
C1257 C1258 1.362 . S
C1258 H1250 0.930 . S
C1258 C1257 1.362 . S
C1258 C1261 1.409 . S
C1259 H1251 0.930 . S
C1259 C1260 1.355 . S
C1259 C1261 1.415 . S
C1260 C1259 1.355 . S
C1260 C1262 1.419 1_565 S
C1261 C1256 1.425 1_565 S
C1261 C1258 1.409 . S
C1261 C1259 1.415 . S
C1262 H1252 0.930 . S
C1262 C1260 1.419 1_545 S
C1262 C1263 1.362 . S
C1263 H1253 0.930 . S
C1263 C1256 1.409 . S
C1263 C1262 1.362 . S
H1264 C1270 0.930 . S
H1265 C1273 0.930 . S
H1266 C1274 0.930 . S
H1267 C1275 0.930 . S
H1268 C1278 0.930 . S
H1269 C1279 0.930 . S
C1270 H1264 0.930 . S
C1270 C1271 1.355 . S
C1270 C1272 1.415 . S
C1271 C1270 1.355 . S
C1271 C1273 1.419 . S
C1272 C1270 1.415 . S
C1272 C1277 1.425 . S
C1272 C1279 1.409 . S
C1273 H1265 0.930 . S
C1273 C1271 1.419 . S
C1273 C1274 1.362 . S
C1274 H1266 0.930 . S
C1274 C1273 1.362 . S
C1274 C1277 1.409 . S
C1275 H1267 0.930 . S
C1275 C1276 1.355 . S
C1275 C1277 1.415 . S
C1276 C1275 1.355 . S
C1276 C1278 1.419 . S
C1277 C1272 1.425 . S
C1277 C1274 1.409 . S
C1277 C1275 1.415 . S
C1278 H1268 0.930 . S
C1278 C1276 1.419 . S
C1278 C1279 1.362 . S
C1279 H1269 0.930 . S
C1279 C1272 1.409 . S
C1279 C1278 1.362 . S
H1280 C1286 0.930 . S
H1281 C1289 0.930 . S
H1282 C1290 0.930 . S
H1283 C1291 0.930 . S
H1284 C1294 0.930 . S
H1285 C1295 0.930 . S
C1286 H1280 0.930 . S
C1286 C1287 1.355 1_565 S
C1286 C1288 1.408 1_565 S
C1287 C1286 1.355 1_545 S
C1287 C1289 1.419 . S
C1288 C1286 1.408 1_545 S
C1288 C1293 1.450 . S
C1288 C1295 1.393 1_545 S
C1289 H1281 0.930 . S
C1289 C1287 1.419 . S
C1289 C1290 1.362 . S
C1290 H1282 0.930 . S
C1290 C1289 1.362 . S
C1290 C1293 1.409 . S
C1291 H1283 0.930 . S
C1291 C1292 1.355 . S
C1291 C1293 1.415 . S
C1292 C1291 1.355 . S
C1292 C1294 1.419 1_545 S
C1293 C1288 1.450 . S
C1293 C1290 1.409 . S
C1293 C1291 1.415 . S
C1294 H1284 0.930 . S
C1294 C1292 1.419 1_565 S
C1294 C1295 1.362 . S
C1295 H1285 0.930 . S
C1295 C1288 1.393 1_565 S
C1295 C1294 1.362 . S
H1296 C1302 0.930 . S
H1297 C1305 0.930 . S
H1298 C1306 0.930 . S
H1299 C1307 0.930 . S
H1300 C1310 0.930 . S
H1301 C1311 0.930 . S
C1302 H1296 0.930 . S
C1302 C1303 1.355 . S
C1302 C1304 1.415 . S
C1303 C1302 1.355 . S
C1303 C1305 1.419 . S
C1304 C1302 1.415 . S
C1304 C1309 1.425 . S
C1304 C1311 1.409 . S
C1305 H1297 0.930 . S
C1305 C1303 1.419 . S
C1305 C1306 1.362 . S
C1306 H1298 0.930 . S
C1306 C1305 1.362 . S
C1306 C1309 1.409 . S
C1307 H1299 0.930 . S
C1307 C1308 1.355 . S
C1307 C1309 1.415 . S
C1308 C1307 1.355 . S
C1308 C1310 1.419 . S
C1309 C1304 1.425 . S
C1309 C1306 1.409 . S
C1309 C1307 1.415 . S
C1310 H1300 0.930 . S
C1310 C1308 1.419 . S
C1310 C1311 1.362 . S
C1311 H1301 0.930 . S
C1311 C1304 1.409 . S
C1311 C1310 1.362 . S
H1312 C1318 0.930 . S
H1313 C1321 0.930 . S
H1314 C1322 0.930 . S
H1315 C1323 0.930 . S
H1316 C1326 0.930 . S
H1317 C1327 0.930 . S
C1318 H1312 0.930 . S
C1318 C1319 1.355 1_556 S
C1318 C1320 1.415 1_556 S
C1319 C1318 1.355 1_554 S
C1319 C1321 1.419 . S
C1320 C1318 1.415 1_554 S
C1320 C1325 1.425 . S
C1320 C1327 1.409 1_554 S
C1321 H1313 0.930 . S
C1321 C1319 1.419 . S
C1321 C1322 1.362 . S
C1322 H1314 0.930 . S
C1322 C1321 1.362 . S
C1322 C1325 1.409 . S
C1323 H1315 0.930 . S
C1323 C1324 1.355 . S
C1323 C1325 1.415 . S
C1324 C1323 1.355 . S
C1324 C1326 1.419 1_554 S
C1325 C1320 1.425 . S
C1325 C1322 1.409 . S
C1325 C1323 1.415 . S
C1326 H1316 0.930 . S
C1326 C1324 1.419 1_556 S
C1326 C1327 1.362 . S
C1327 H1317 0.930 . S
C1327 C1320 1.409 1_556 S
C1327 C1326 1.362 . S
H1328 C1334 0.932 . S
H1329 C1337 0.930 . S
H1330 C1338 0.930 . S
H1331 C1339 0.929 . S
H1332 C1342 0.930 . S
H1333 C1343 0.930 . S
C1334 H1328 0.932 . S
C1334 C1335 1.351 1_556 S
C1334 C1336 1.417 . S
C1335 C1334 1.351 1_554 S
C1335 C1337 1.419 . S
C1336 C1334 1.417 . S
C1336 C1341 1.425 1_556 S
C1336 C1343 1.409 . S
C1337 H1329 0.930 . S
C1337 C1335 1.419 . S
C1337 C1338 1.362 . S
C1338 H1330 0.930 . S
C1338 C1337 1.362 . S
C1338 C1341 1.409 . S
C1339 H1331 0.929 . S
C1339 C1340 1.355 1_554 S
C1339 C1341 1.414 . S
C1340 C1339 1.355 1_556 S
C1340 C1342 1.419 . S
C1341 C1336 1.425 1_554 S
C1341 C1338 1.409 . S
C1341 C1339 1.414 . S
C1342 H1332 0.930 . S
C1342 C1340 1.419 . S
C1342 C1343 1.362 . S
C1343 H1333 0.930 . S
C1343 C1336 1.409 . S
C1343 C1342 1.362 . S
H1344 C1350 0.930 . S
H1345 C1353 0.930 . S
H1346 C1354 0.930 . S
H1347 C1355 0.930 . S
H1348 C1358 0.930 . S
H1349 C1359 0.930 . S
C1350 H1344 0.930 . S
C1350 C1351 1.355 . S
C1350 C1352 1.415 . S
C1351 C1350 1.355 . S
C1351 C1353 1.419 . S
C1352 C1350 1.415 . S
C1352 C1357 1.425 . S
C1352 C1359 1.409 . S
C1353 H1345 0.930 . S
C1353 C1351 1.419 . S
C1353 C1354 1.362 . S
C1354 H1346 0.930 . S
C1354 C1353 1.362 . S
C1354 C1357 1.409 . S
C1355 H1347 0.930 . S
C1355 C1356 1.355 . S
C1355 C1357 1.415 . S
C1356 C1355 1.355 . S
C1356 C1358 1.419 . S
C1357 C1352 1.425 . S
C1357 C1354 1.409 . S
C1357 C1355 1.415 . S
C1358 H1348 0.930 . S
C1358 C1356 1.419 . S
C1358 C1359 1.362 . S
C1359 H1349 0.930 . S
C1359 C1352 1.409 . S
C1359 C1358 1.362 . S
H1360 C1366 0.930 . S
H1361 C1369 0.930 . S
H1362 C1370 0.930 . S
H1363 C1371 0.930 . S
H1364 C1374 0.930 . S
H1365 C1375 0.930 . S
C1366 H1360 0.930 . S
C1366 C1367 1.355 . S
C1366 C1368 1.415 . S
C1367 C1366 1.355 . S
C1367 C1369 1.419 . S
C1368 C1366 1.415 . S
C1368 C1373 1.425 . S
C1368 C1375 1.409 . S
C1369 H1361 0.930 . S
C1369 C1367 1.419 . S
C1369 C1370 1.362 . S
C1370 H1362 0.930 . S
C1370 C1369 1.362 . S
C1370 C1373 1.409 . S
C1371 H1363 0.930 . S
C1371 C1372 1.355 . S
C1371 C1373 1.415 . S
C1372 C1371 1.355 . S
C1372 C1374 1.419 . S
C1373 C1368 1.425 . S
C1373 C1370 1.409 . S
C1373 C1371 1.415 . S
C1374 H1364 0.930 . S
C1374 C1372 1.419 . S
C1374 C1375 1.362 . S
C1375 H1365 0.930 . S
C1375 C1368 1.409 . S
C1375 C1374 1.362 . S
H1376 C1382 0.930 . S
H1377 C1385 0.930 . S
H1378 C1386 0.930 . S
H1379 C1387 0.930 . S
H1380 C1390 0.930 . S
H1381 C1391 0.930 . S
C1382 H1376 0.930 . S
C1382 C1383 1.355 . S
C1382 C1384 1.415 . S
C1383 C1382 1.355 . S
C1383 C1385 1.419 . S
C1384 C1382 1.415 . S
C1384 C1389 1.425 . S
C1384 C1391 1.409 . S
C1385 H1377 0.930 . S
C1385 C1383 1.419 . S
C1385 C1386 1.362 . S
C1386 H1378 0.930 . S
C1386 C1385 1.362 . S
C1386 C1389 1.409 . S
C1387 H1379 0.930 . S
C1387 C1388 1.355 . S
C1387 C1389 1.415 . S
C1388 C1387 1.355 . S
C1388 C1390 1.419 . S
C1389 C1384 1.425 . S
C1389 C1386 1.409 . S
C1389 C1387 1.415 . S
C1390 H1380 0.930 . S
C1390 C1388 1.419 . S
C1390 C1391 1.362 . S
C1391 H1381 0.930 . S
C1391 C1384 1.409 . S
C1391 C1390 1.362 . S
H1392 C1398 0.930 . S
H1393 C1401 0.930 . S
H1394 C1402 0.930 . S
H1395 C1403 0.930 . S
H1396 C1406 0.930 . S
H1397 C1407 0.930 . S
C1398 H1392 0.930 . S
C1398 C1399 1.355 . S
C1398 C1400 1.415 . S
C1399 C1398 1.355 . S
C1399 C1401 1.419 . S
C1400 C1398 1.415 . S
C1400 C1405 1.425 . S
C1400 C1407 1.409 . S
C1401 H1393 0.930 . S
C1401 C1399 1.419 . S
C1401 C1402 1.362 . S
C1402 H1394 0.930 . S
C1402 C1401 1.362 . S
C1402 C1405 1.409 . S
C1403 H1395 0.930 . S
C1403 C1404 1.355 . S
C1403 C1405 1.415 . S
C1404 C1403 1.355 . S
C1404 C1406 1.419 . S
C1405 C1400 1.425 . S
C1405 C1402 1.409 . S
C1405 C1403 1.415 . S
C1406 H1396 0.930 . S
C1406 C1404 1.419 . S
C1406 C1407 1.362 . S
C1407 H1397 0.930 . S
C1407 C1400 1.409 . S
C1407 C1406 1.362 . S
H1408 C1414 0.930 . S
H1409 C1417 0.930 . S
H1410 C1418 0.930 . S
H1411 C1419 0.930 . S
H1412 C1422 0.930 . S
H1413 C1423 0.930 . S
C1414 H1408 0.930 . S
C1414 C1415 1.355 . S
C1414 C1416 1.415 . S
C1415 C1414 1.355 . S
C1415 C1417 1.419 . S
C1416 C1414 1.415 . S
C1416 C1421 1.425 . S
C1416 C1423 1.409 . S
C1417 H1409 0.930 . S
C1417 C1415 1.419 . S
C1417 C1418 1.362 . S
C1418 H1410 0.930 . S
C1418 C1417 1.362 . S
C1418 C1421 1.409 . S
C1419 H1411 0.930 . S
C1419 C1420 1.355 . S
C1419 C1421 1.415 . S
C1420 C1419 1.355 . S
C1420 C1422 1.419 . S
C1421 C1416 1.425 . S
C1421 C1418 1.409 . S
C1421 C1419 1.415 . S
C1422 H1412 0.930 . S
C1422 C1420 1.419 . S
C1422 C1423 1.362 . S
C1423 H1413 0.930 . S
C1423 C1416 1.409 . S
C1423 C1422 1.362 . S
H1424 C1430 0.930 . S
H1425 C1433 0.930 . S
H1426 C1434 0.930 . S
H1427 C1435 0.930 . S
H1428 C1438 0.930 . S
H1429 C1439 0.930 . S
C1430 H1424 0.930 . S
C1430 C1431 1.355 . S
C1430 C1432 1.415 . S
C1431 C1430 1.355 . S
C1431 C1433 1.419 . S
C1432 C1430 1.415 . S
C1432 C1437 1.425 . S
C1432 C1439 1.409 . S
C1433 H1425 0.930 . S
C1433 C1431 1.419 . S
C1433 C1434 1.362 . S
C1434 H1426 0.930 . S
C1434 C1433 1.362 . S
C1434 C1437 1.409 . S
C1435 H1427 0.930 . S
C1435 C1436 1.355 . S
C1435 C1437 1.415 . S
C1436 C1435 1.355 . S
C1436 C1438 1.419 . S
C1437 C1432 1.425 . S
C1437 C1434 1.409 . S
C1437 C1435 1.415 . S
C1438 H1428 0.930 . S
C1438 C1436 1.419 . S
C1438 C1439 1.362 . S
C1439 H1429 0.930 . S
C1439 C1432 1.409 . S
C1439 C1438 1.362 . S
H1440 C1446 0.930 . S
H1441 C1449 0.930 . S
H1442 C1450 0.930 . S
H1443 C1451 0.930 . S
H1444 C1454 0.930 . S
H1445 C1455 0.930 . S
C1446 H1440 0.930 . S
C1446 C1447 1.355 . S
C1446 C1448 1.415 . S
C1447 C1446 1.355 . S
C1447 C1449 1.419 . S
C1448 C1446 1.415 . S
C1448 C1453 1.425 . S
C1448 C1455 1.409 . S
C1449 H1441 0.930 . S
C1449 C1447 1.419 . S
C1449 C1450 1.362 . S
C1450 H1442 0.930 . S
C1450 C1449 1.362 . S
C1450 C1453 1.409 . S
C1451 H1443 0.930 . S
C1451 C1452 1.355 . S
C1451 C1453 1.415 . S
C1452 C1451 1.355 . S
C1452 C1454 1.419 . S
C1453 C1448 1.425 . S
C1453 C1450 1.409 . S
C1453 C1451 1.415 . S
C1454 H1444 0.930 . S
C1454 C1452 1.419 . S
C1454 C1455 1.362 . S
C1455 H1445 0.930 . S
C1455 C1448 1.409 . S
C1455 C1454 1.362 . S
H1456 C1462 0.930 . S
H1457 C1465 0.930 . S
H1458 C1466 0.930 . S
H1459 C1467 0.930 . S
H1460 C1470 0.930 . S
H1461 C1471 0.930 . S
C1462 H1456 0.930 . S
C1462 C1463 1.355 . S
C1462 C1464 1.415 . S
C1463 C1462 1.355 . S
C1463 C1465 1.419 . S
C1464 C1462 1.415 . S
C1464 C1469 1.425 . S
C1464 C1471 1.409 . S
C1465 H1457 0.930 . S
C1465 C1463 1.419 . S
C1465 C1466 1.362 . S
C1466 H1458 0.930 . S
C1466 C1465 1.362 . S
C1466 C1469 1.409 . S
C1467 H1459 0.930 . S
C1467 C1468 1.355 . S
C1467 C1469 1.415 . S
C1468 C1467 1.355 . S
C1468 C1470 1.419 . S
C1469 C1464 1.425 . S
C1469 C1466 1.409 . S
C1469 C1467 1.415 . S
C1470 H1460 0.930 . S
C1470 C1468 1.419 . S
C1470 C1471 1.362 . S
C1471 H1461 0.930 . S
C1471 C1464 1.409 . S
C1471 C1470 1.362 . S
H1472 C1478 0.930 . S
H1473 C1481 0.930 . S
H1474 C1482 0.930 . S
H1475 C1483 0.930 . S
H1476 C1486 0.930 . S
H1477 C1487 0.930 . S
C1478 H1472 0.930 . S
C1478 C1479 1.355 . S
C1478 C1480 1.415 . S
C1479 C1478 1.355 . S
C1479 C1481 1.419 1_455 S
C1480 C1478 1.415 . S
C1480 C1485 1.422 . S
C1480 C1487 1.409 . S
C1481 H1473 0.930 . S
C1481 C1479 1.419 1_655 S
C1481 C1482 1.362 . S
C1482 H1474 0.930 . S
C1482 C1481 1.362 . S
C1482 C1485 1.411 1_655 S
C1483 H1475 0.930 . S
C1483 C1484 1.355 1_655 S
C1483 C1485 1.415 1_655 S
C1484 C1483 1.355 1_455 S
C1484 C1486 1.419 . S
C1485 C1480 1.422 . S
C1485 C1482 1.411 1_455 S
C1485 C1483 1.415 1_455 S
C1486 H1476 0.930 . S
C1486 C1484 1.419 . S
C1486 C1487 1.362 . S
C1487 H1477 0.930 . S
C1487 C1480 1.409 . S
C1487 C1486 1.362 . S
H1488 C1494 0.930 . S
H1489 C1497 0.930 . S
H1490 C1498 0.930 . S
H1491 C1499 0.930 . S
H1492 C1502 0.930 . S
H1493 C1503 0.930 . S
C1494 H1488 0.930 . S
C1494 C1495 1.355 . S
C1494 C1496 1.415 . S
C1495 C1494 1.355 . S
C1495 C1497 1.419 . S
C1496 C1494 1.415 . S
C1496 C1501 1.425 . S
C1496 C1503 1.409 . S
C1497 H1489 0.930 . S
C1497 C1495 1.419 . S
C1497 C1498 1.362 . S
C1498 H1490 0.930 . S
C1498 C1497 1.362 . S
C1498 C1501 1.409 . S
C1499 H1491 0.930 . S
C1499 C1500 1.355 . S
C1499 C1501 1.415 . S
C1500 C1499 1.355 . S
C1500 C1502 1.419 . S
C1501 C1496 1.425 . S
C1501 C1498 1.409 . S
C1501 C1499 1.415 . S
C1502 H1492 0.930 . S
C1502 C1500 1.419 . S
C1502 C1503 1.362 . S
C1503 H1493 0.930 . S
C1503 C1496 1.409 . S
C1503 C1502 1.362 . S
H1504 C1510 0.930 . S
H1505 C1513 0.930 . S
H1506 C1514 0.930 . S
H1507 C1515 0.930 . S
H1508 C1518 0.930 . S
H1509 C1519 0.930 . S
C1510 H1504 0.930 . S
C1510 C1511 1.355 . S
C1510 C1512 1.415 . S
C1511 C1510 1.355 . S
C1511 C1513 1.419 . S
C1512 C1510 1.415 . S
C1512 C1517 1.425 . S
C1512 C1519 1.409 . S
C1513 H1505 0.930 . S
C1513 C1511 1.419 . S
C1513 C1514 1.362 . S
C1514 H1506 0.930 . S
C1514 C1513 1.362 . S
C1514 C1517 1.409 . S
C1515 H1507 0.930 . S
C1515 C1516 1.355 . S
C1515 C1517 1.415 . S
C1516 C1515 1.355 . S
C1516 C1518 1.419 . S
C1517 C1512 1.425 . S
C1517 C1514 1.409 . S
C1517 C1515 1.415 . S
C1518 H1508 0.930 . S
C1518 C1516 1.419 . S
C1518 C1519 1.362 . S
C1519 H1509 0.930 . S
C1519 C1512 1.409 . S
C1519 C1518 1.362 . S
H1520 C1526 0.930 . S
H1521 C1529 0.930 . S
H1522 C1530 0.930 . S
H1523 C1531 0.930 . S
H1524 C1534 0.930 . S
H1525 C1535 0.930 . S
C1526 H1520 0.930 . S
C1526 C1527 1.355 . S
C1526 C1528 1.415 . S
C1527 C1526 1.355 . S
C1527 C1529 1.419 . S
C1528 C1526 1.415 . S
C1528 C1533 1.425 . S
C1528 C1535 1.409 . S
C1529 H1521 0.930 . S
C1529 C1527 1.419 . S
C1529 C1530 1.362 . S
C1530 H1522 0.930 . S
C1530 C1529 1.362 . S
C1530 C1533 1.409 . S
C1531 H1523 0.930 . S
C1531 C1532 1.355 . S
C1531 C1533 1.415 . S
C1532 C1531 1.355 . S
C1532 C1534 1.419 . S
C1533 C1528 1.425 . S
C1533 C1530 1.409 . S
C1533 C1531 1.415 . S
C1534 H1524 0.930 . S
C1534 C1532 1.419 . S
C1534 C1535 1.362 . S
C1535 H1525 0.930 . S
C1535 C1528 1.409 . S
C1535 C1534 1.362 . S
H1536 C1542 0.930 . S
H1537 C1545 0.930 . S
H1538 C1546 0.930 . S
H1539 C1547 0.930 . S
H1540 C1550 0.930 . S
H1541 C1551 0.930 . S
C1542 H1536 0.930 . S
C1542 C1543 1.355 . S
C1542 C1544 1.415 . S
C1543 C1542 1.355 . S
C1543 C1545 1.419 . S
C1544 C1542 1.415 . S
C1544 C1549 1.425 . S
C1544 C1551 1.409 . S
C1545 H1537 0.930 . S
C1545 C1543 1.419 . S
C1545 C1546 1.362 . S
C1546 H1538 0.930 . S
C1546 C1545 1.362 . S
C1546 C1549 1.409 . S
C1547 H1539 0.930 . S
C1547 C1548 1.355 . S
C1547 C1549 1.415 . S
C1548 C1547 1.355 . S
C1548 C1550 1.419 . S
C1549 C1544 1.425 . S
C1549 C1546 1.409 . S
C1549 C1547 1.415 . S
C1550 H1540 0.930 . S
C1550 C1548 1.419 . S
C1550 C1551 1.362 . S
C1551 H1541 0.930 . S
C1551 C1544 1.409 . S
C1551 C1550 1.362 . S
H1552 C1558 0.930 . S
H1553 C1561 0.930 . S
H1554 C1562 0.930 . S
H1555 C1563 0.930 . S
H1556 C1566 0.930 . S
H1557 C1567 0.930 . S
C1558 H1552 0.930 . S
C1558 C1559 1.355 . S
C1558 C1560 1.415 . S
C1559 C1558 1.355 . S
C1559 C1561 1.419 . S
C1560 C1558 1.415 . S
C1560 C1565 1.425 . S
C1560 C1567 1.409 . S
C1561 H1553 0.930 . S
C1561 C1559 1.419 . S
C1561 C1562 1.362 . S
C1562 H1554 0.930 . S
C1562 C1561 1.362 . S
C1562 C1565 1.409 . S
C1563 H1555 0.930 . S
C1563 C1564 1.355 . S
C1563 C1565 1.415 . S
C1564 C1563 1.355 . S
C1564 C1566 1.419 . S
C1565 C1560 1.425 . S
C1565 C1562 1.409 . S
C1565 C1563 1.415 . S
C1566 H1556 0.930 . S
C1566 C1564 1.419 . S
C1566 C1567 1.362 . S
C1567 H1557 0.930 . S
C1567 C1560 1.409 . S
C1567 C1566 1.362 . S
H1568 C1574 0.930 . S
H1569 C1577 0.930 . S
H1570 C1578 0.930 . S
H1571 C1579 0.930 . S
H1572 C1582 0.930 . S
H1573 C1583 0.930 . S
C1574 H1568 0.930 . S
C1574 C1575 1.355 . S
C1574 C1576 1.415 . S
C1575 C1574 1.355 . S
C1575 C1577 1.419 . S
C1576 C1574 1.415 . S
C1576 C1581 1.425 . S
C1576 C1583 1.409 . S
C1577 H1569 0.930 . S
C1577 C1575 1.419 . S
C1577 C1578 1.362 . S
C1578 H1570 0.930 . S
C1578 C1577 1.362 . S
C1578 C1581 1.409 . S
C1579 H1571 0.930 . S
C1579 C1580 1.355 . S
C1579 C1581 1.415 . S
C1580 C1579 1.355 . S
C1580 C1582 1.419 . S
C1581 C1576 1.425 . S
C1581 C1578 1.409 . S
C1581 C1579 1.415 . S
C1582 H1572 0.930 . S
C1582 C1580 1.419 . S
C1582 C1583 1.362 . S
C1583 H1573 0.930 . S
C1583 C1576 1.409 . S
C1583 C1582 1.362 . S
H1584 C1590 0.930 . S
H1585 C1593 0.930 . S
H1586 C1594 0.930 . S
H1587 C1595 0.930 . S
H1588 C1598 0.930 . S
H1589 C1599 0.930 . S
C1590 H1584 0.930 . S
C1590 C1591 1.355 . S
C1590 C1592 1.415 . S
C1591 C1590 1.355 . S
C1591 C1593 1.419 . S
C1592 C1590 1.415 . S
C1592 C1597 1.425 . S
C1592 C1599 1.409 . S
C1593 H1585 0.930 . S
C1593 C1591 1.419 . S
C1593 C1594 1.362 . S
C1594 H1586 0.930 . S
C1594 C1593 1.362 . S
C1594 C1597 1.409 . S
C1595 H1587 0.930 . S
C1595 C1596 1.355 . S
C1595 C1597 1.415 . S
C1596 C1595 1.355 . S
C1596 C1598 1.419 . S
C1597 C1592 1.425 . S
C1597 C1594 1.409 . S
C1597 C1595 1.415 . S
C1598 H1588 0.930 . S
C1598 C1596 1.419 . S
C1598 C1599 1.362 . S
C1599 H1589 0.930 . S
C1599 C1592 1.409 . S
C1599 C1598 1.362 . S
H1600 C1606 0.930 . S
H1601 C1609 0.930 . S
H1602 C1610 0.930 . S
H1603 C1611 0.930 . S
H1604 C1614 0.930 . S
H1605 C1615 0.930 . S
C1606 H1600 0.930 . S
C1606 C1607 1.355 . S
C1606 C1608 1.415 . S
C1607 C1606 1.355 . S
C1607 C1609 1.419 . S
C1608 C1606 1.415 . S
C1608 C1613 1.425 . S
C1608 C1615 1.409 . S
C1609 H1601 0.930 . S
C1609 C1607 1.419 . S
C1609 C1610 1.362 . S
C1610 H1602 0.930 . S
C1610 C1609 1.362 . S
C1610 C1613 1.409 . S
C1611 H1603 0.930 . S
C1611 C1612 1.355 . S
C1611 C1613 1.415 . S
C1612 C1611 1.355 . S
C1612 C1614 1.419 . S
C1613 C1608 1.425 . S
C1613 C1610 1.409 . S
C1613 C1611 1.415 . S
C1614 H1604 0.930 . S
C1614 C1612 1.419 . S
C1614 C1615 1.362 . S
C1615 H1605 0.930 . S
C1615 C1608 1.409 . S
C1615 C1614 1.362 . S
H1616 C1622 0.930 . S
H1617 C1625 0.930 . S
H1618 C1626 0.930 . S
H1619 C1627 0.930 . S
H1620 C1630 0.930 . S
H1621 C1631 0.930 . S
C1622 H1616 0.930 . S
C1622 C1623 1.355 . S
C1622 C1624 1.415 . S
C1623 C1622 1.355 . S
C1623 C1625 1.419 . S
C1624 C1622 1.415 . S
C1624 C1629 1.425 . S
C1624 C1631 1.409 . S
C1625 H1617 0.930 . S
C1625 C1623 1.419 . S
C1625 C1626 1.362 . S
C1626 H1618 0.930 . S
C1626 C1625 1.362 . S
C1626 C1629 1.409 . S
C1627 H1619 0.930 . S
C1627 C1628 1.355 . S
C1627 C1629 1.415 . S
C1628 C1627 1.355 . S
C1628 C1630 1.419 . S
C1629 C1624 1.425 . S
C1629 C1626 1.409 . S
C1629 C1627 1.415 . S
C1630 H1620 0.930 . S
C1630 C1628 1.419 . S
C1630 C1631 1.362 . S
C1631 H1621 0.930 . S
C1631 C1624 1.409 . S
C1631 C1630 1.362 . S
H1632 C1638 0.930 . S
H1633 C1641 0.930 . S
H1634 C1642 0.930 . S
H1635 C1643 0.930 . S
H1636 C1646 0.930 . S
H1637 C1647 0.930 . S
C1638 H1632 0.930 . S
C1638 C1639 1.355 . S
C1638 C1640 1.415 . S
C1639 C1638 1.355 . S
C1639 C1641 1.419 . S
C1640 C1638 1.415 . S
C1640 C1645 1.425 . S
C1640 C1647 1.409 . S
C1641 H1633 0.930 . S
C1641 C1639 1.419 . S
C1641 C1642 1.362 . S
C1642 H1634 0.930 . S
C1642 C1641 1.362 . S
C1642 C1645 1.409 . S
C1643 H1635 0.930 . S
C1643 C1644 1.355 . S
C1643 C1645 1.415 . S
C1644 C1643 1.355 . S
C1644 C1646 1.419 . S
C1645 C1640 1.425 . S
C1645 C1642 1.409 . S
C1645 C1643 1.415 . S
C1646 H1636 0.930 . S
C1646 C1644 1.419 . S
C1646 C1647 1.362 . S
C1647 H1637 0.930 . S
C1647 C1640 1.409 . S
C1647 C1646 1.362 . S
H1648 C1654 0.930 . S
H1649 C1657 0.930 . S
H1650 C1658 0.930 . S
H1651 C1659 0.930 . S
H1652 C1662 0.930 . S
H1653 C1663 0.930 . S
C1654 H1648 0.930 . S
C1654 C1655 1.355 . S
C1654 C1656 1.415 . S
C1655 C1654 1.355 . S
C1655 C1657 1.419 . S
C1656 C1654 1.415 . S
C1656 C1661 1.425 . S
C1656 C1663 1.409 . S
C1657 H1649 0.930 . S
C1657 C1655 1.419 . S
C1657 C1658 1.362 . S
C1658 H1650 0.930 . S
C1658 C1657 1.362 . S
C1658 C1661 1.409 . S
C1659 H1651 0.930 . S
C1659 C1660 1.355 . S
C1659 C1661 1.415 . S
C1660 C1659 1.355 . S
C1660 C1662 1.419 . S
C1661 C1656 1.425 . S
C1661 C1658 1.409 . S
C1661 C1659 1.415 . S
C1662 H1652 0.930 . S
C1662 C1660 1.419 . S
C1662 C1663 1.362 . S
C1663 H1653 0.930 . S
C1663 C1656 1.409 . S
C1663 C1662 1.362 . S
H1664 C1670 0.930 . S
H1665 C1673 0.930 . S
H1666 C1674 0.930 . S
H1667 C1675 0.930 . S
H1668 C1678 0.930 . S
H1669 C1679 0.930 . S
C1670 H1664 0.930 . S
C1670 C1671 1.355 . S
C1670 C1672 1.415 . S
C1671 C1670 1.355 . S
C1671 C1673 1.419 . S
C1672 C1670 1.415 . S
C1672 C1677 1.425 . S
C1672 C1679 1.409 . S
C1673 H1665 0.930 . S
C1673 C1671 1.419 . S
C1673 C1674 1.362 . S
C1674 H1666 0.930 . S
C1674 C1673 1.362 . S
C1674 C1677 1.409 . S
C1675 H1667 0.930 . S
C1675 C1676 1.355 . S
C1675 C1677 1.415 . S
C1676 C1675 1.355 . S
C1676 C1678 1.419 . S
C1677 C1672 1.425 . S
C1677 C1674 1.409 . S
C1677 C1675 1.415 . S
C1678 H1668 0.930 . S
C1678 C1676 1.419 . S
C1678 C1679 1.362 . S
C1679 H1669 0.930 . S
C1679 C1672 1.409 . S
C1679 C1678 1.362 . S
H1680 C1686 0.930 . S
H1681 C1689 0.930 . S
H1682 C1690 0.930 . S
H1683 C1691 0.930 . S
H1684 C1694 0.930 . S
H1685 C1695 0.930 . S
C1686 H1680 0.930 . S
C1686 C1687 1.355 . S
C1686 C1688 1.415 . S
C1687 C1686 1.355 . S
C1687 C1689 1.419 . S
C1688 C1686 1.415 . S
C1688 C1693 1.425 . S
C1688 C1695 1.409 . S
C1689 H1681 0.930 . S
C1689 C1687 1.419 . S
C1689 C1690 1.362 . S
C1690 H1682 0.930 . S
C1690 C1689 1.362 . S
C1690 C1693 1.409 . S
C1691 H1683 0.930 . S
C1691 C1692 1.355 . S
C1691 C1693 1.415 . S
C1692 C1691 1.355 . S
C1692 C1694 1.419 . S
C1693 C1688 1.425 . S
C1693 C1690 1.409 . S
C1693 C1691 1.415 . S
C1694 H1684 0.930 . S
C1694 C1692 1.419 . S
C1694 C1695 1.362 . S
C1695 H1685 0.930 . S
C1695 C1688 1.409 . S
C1695 C1694 1.362 . S
H1696 C1702 0.930 . S
H1697 C1705 0.930 . S
H1698 C1706 0.930 . S
H1699 C1707 0.930 . S
H1700 C1710 0.930 . S
H1701 C1711 0.930 . S
C1702 H1696 0.930 . S
C1702 C1703 1.355 . S
C1702 C1704 1.415 . S
C1703 C1702 1.355 . S
C1703 C1705 1.419 . S
C1704 C1702 1.415 . S
C1704 C1709 1.425 . S
C1704 C1711 1.409 . S
C1705 H1697 0.930 . S
C1705 C1703 1.419 . S
C1705 C1706 1.362 . S
C1706 H1698 0.930 . S
C1706 C1705 1.362 . S
C1706 C1709 1.409 . S
C1707 H1699 0.930 . S
C1707 C1708 1.355 . S
C1707 C1709 1.415 . S
C1708 C1707 1.355 . S
C1708 C1710 1.419 . S
C1709 C1704 1.425 . S
C1709 C1706 1.409 . S
C1709 C1707 1.415 . S
C1710 H1700 0.930 . S
C1710 C1708 1.419 . S
C1710 C1711 1.362 . S
C1711 H1701 0.930 . S
C1711 C1704 1.409 . S
C1711 C1710 1.362 . S
H1712 C1718 0.930 . S
H1713 C1721 0.930 . S
H1714 C1722 0.930 . S
H1715 C1723 0.930 . S
H1716 C1726 0.930 . S
H1717 C1727 0.930 . S
C1718 H1712 0.930 . S
C1718 C1719 1.355 . S
C1718 C1720 1.415 . S
C1719 C1718 1.355 . S
C1719 C1721 1.419 . S
C1720 C1718 1.415 . S
C1720 C1725 1.425 . S
C1720 C1727 1.409 . S
C1721 H1713 0.930 . S
C1721 C1719 1.419 . S
C1721 C1722 1.362 . S
C1722 H1714 0.930 . S
C1722 C1721 1.362 . S
C1722 C1725 1.409 . S
C1723 H1715 0.930 . S
C1723 C1724 1.355 . S
C1723 C1725 1.415 . S
C1724 C1723 1.355 . S
C1724 C1726 1.419 . S
C1725 C1720 1.425 . S
C1725 C1722 1.409 . S
C1725 C1723 1.415 . S
C1726 H1716 0.930 . S
C1726 C1724 1.419 . S
C1726 C1727 1.362 . S
C1727 H1717 0.930 . S
C1727 C1720 1.409 . S
C1727 C1726 1.362 . S
H1728 C1734 0.930 . S
H1729 C1737 0.930 . S
H1730 C1738 0.930 . S
H1731 C1739 0.930 . S
H1732 C1742 0.930 . S
H1733 C1743 0.930 . S
C1734 H1728 0.930 . S
C1734 C1735 1.355 . S
C1734 C1736 1.415 . S
C1735 C1734 1.355 . S
C1735 C1737 1.419 . S
C1736 C1734 1.415 . S
C1736 C1741 1.425 . S
C1736 C1743 1.409 . S
C1737 H1729 0.930 . S
C1737 C1735 1.419 . S
C1737 C1738 1.362 . S
C1738 H1730 0.930 . S
C1738 C1737 1.362 . S
C1738 C1741 1.409 . S
C1739 H1731 0.930 . S
C1739 C1740 1.355 . S
C1739 C1741 1.415 . S
C1740 C1739 1.355 . S
C1740 C1742 1.419 . S
C1741 C1736 1.425 . S
C1741 C1738 1.409 . S
C1741 C1739 1.415 . S
C1742 H1732 0.930 . S
C1742 C1740 1.419 . S
C1742 C1743 1.362 . S
C1743 H1733 0.930 . S
C1743 C1736 1.409 . S
C1743 C1742 1.362 . S
H1744 C1750 0.930 . S
H1745 C1753 0.930 . S
H1746 C1754 0.930 . S
H1747 C1755 0.930 1_556 S
H1748 C1758 0.930 . S
H1749 C1759 0.930 . S
C1750 H1744 0.930 . S
C1750 C1751 1.355 . S
C1750 C1752 1.415 . S
C1751 C1750 1.355 . S
C1751 C1753 1.419 1_554 S
C1752 C1750 1.415 . S
C1752 C1757 1.425 . S
C1752 C1759 1.409 . S
C1753 H1745 0.930 . S
C1753 C1751 1.419 1_556 S
C1753 C1754 1.362 . S
C1754 H1746 0.930 . S
C1754 C1753 1.362 . S
C1754 C1757 1.409 1_556 S
C1755 H1747 0.930 1_554 S
C1755 C1756 1.355 . S
C1755 C1757 1.415 . S
C1756 C1755 1.355 . S
C1756 C1758 1.419 . S
C1757 C1752 1.425 . S
C1757 C1754 1.409 1_554 S
C1757 C1755 1.415 . S
C1758 H1748 0.930 . S
C1758 C1756 1.419 . S
C1758 C1759 1.362 . S
C1759 H1749 0.930 . S
C1759 C1752 1.409 . S
C1759 C1758 1.362 . S
H1760 C1766 0.930 . S
H1761 C1769 0.930 . S
H1762 C1770 0.930 . S
H1763 C1771 0.930 . S
H1764 C1774 0.930 . S
H1765 C1775 0.930 . S
C1766 H1760 0.930 . S
C1766 C1767 1.355 . S
C1766 C1768 1.415 . S
C1767 C1766 1.355 . S
C1767 C1769 1.419 . S
C1768 C1766 1.415 . S
C1768 C1773 1.425 . S
C1768 C1775 1.409 . S
C1769 H1761 0.930 . S
C1769 C1767 1.419 . S
C1769 C1770 1.362 . S
C1770 H1762 0.930 . S
C1770 C1769 1.362 . S
C1770 C1773 1.409 . S
C1771 H1763 0.930 . S
C1771 C1772 1.355 . S
C1771 C1773 1.415 . S
C1772 C1771 1.355 . S
C1772 C1774 1.419 . S
C1773 C1768 1.425 . S
C1773 C1770 1.409 . S
C1773 C1771 1.415 . S
C1774 H1764 0.930 . S
C1774 C1772 1.419 . S
C1774 C1775 1.362 . S
C1775 H1765 0.930 . S
C1775 C1768 1.409 . S
C1775 C1774 1.362 . S
H1776 C1782 0.930 . S
H1777 C1785 0.930 . S
H1778 C1786 0.930 . S
H1779 C1787 0.930 . S
H1780 C1790 0.930 . S
H1781 C1791 0.930 . S
C1782 H1776 0.930 . S
C1782 C1783 1.355 . S
C1782 C1784 1.415 . S
C1783 C1782 1.355 . S
C1783 C1785 1.419 1_554 S
C1784 C1782 1.415 . S
C1784 C1789 1.425 1_554 S
C1784 C1791 1.409 . S
C1785 H1777 0.930 . S
C1785 C1783 1.419 1_556 S
C1785 C1786 1.362 . S
C1786 H1778 0.930 . S
C1786 C1785 1.362 . S
C1786 C1789 1.409 . S
C1787 H1779 0.930 . S
C1787 C1788 1.355 . S
C1787 C1789 1.415 . S
C1788 C1787 1.355 . S
C1788 C1790 1.419 1_556 S
C1789 C1784 1.425 1_556 S
C1789 C1786 1.409 . S
C1789 C1787 1.415 . S
C1790 H1780 0.930 . S
C1790 C1788 1.419 1_554 S
C1790 C1791 1.362 . S
C1791 H1781 0.930 . S
C1791 C1784 1.409 . S
C1791 C1790 1.362 . S
H1792 C1798 0.930 . S
H1793 C1801 0.930 . S
H1794 C1802 0.930 . S
H1795 C1803 0.930 . S
H1796 C1806 0.930 . S
H1797 C1807 0.930 . S
C1798 H1792 0.930 . S
C1798 C1799 1.355 . S
C1798 C1800 1.415 . S
C1799 C1798 1.355 . S
C1799 C1801 1.419 . S
C1800 C1798 1.415 . S
C1800 C1805 1.425 . S
C1800 C1807 1.409 . S
C1801 H1793 0.930 . S
C1801 C1799 1.419 . S
C1801 C1802 1.362 . S
C1802 H1794 0.930 . S
C1802 C1801 1.362 . S
C1802 C1805 1.409 . S
C1803 H1795 0.930 . S
C1803 C1804 1.355 . S
C1803 C1805 1.415 . S
C1804 C1803 1.355 . S
C1804 C1806 1.419 . S
C1805 C1800 1.425 . S
C1805 C1802 1.409 . S
C1805 C1803 1.415 . S
C1806 H1796 0.930 . S
C1806 C1804 1.419 . S
C1806 C1807 1.362 . S
C1807 H1797 0.930 . S
C1807 C1800 1.409 . S
C1807 C1806 1.362 . S
H1808 C1814 0.930 . S
H1809 C1817 0.930 . S
H1810 C1818 0.930 . S
H1811 C1819 0.930 . S
H1812 C1822 0.930 . S
H1813 C1823 0.930 . S
C1814 H1808 0.930 . S
C1814 C1815 1.355 . S
C1814 C1816 1.415 . S
C1815 C1814 1.355 . S
C1815 C1817 1.419 . S
C1816 C1814 1.415 . S
C1816 C1821 1.425 . S
C1816 C1823 1.409 . S
C1817 H1809 0.930 . S
C1817 C1815 1.419 . S
C1817 C1818 1.362 . S
C1818 H1810 0.930 . S
C1818 C1817 1.362 . S
C1818 C1821 1.409 . S
C1819 H1811 0.930 . S
C1819 C1820 1.355 . S
C1819 C1821 1.415 . S
C1820 C1819 1.355 . S
C1820 C1822 1.419 . S
C1821 C1816 1.425 . S
C1821 C1818 1.409 . S
C1821 C1819 1.415 . S
C1822 H1812 0.930 . S
C1822 C1820 1.419 . S
C1822 C1823 1.362 . S
C1823 H1813 0.930 . S
C1823 C1816 1.409 . S
C1823 C1822 1.362 . S
H1824 C1830 0.930 . S
H1825 C1833 0.930 . S
H1826 C1834 0.930 . S
H1827 C1835 0.930 . S
H1828 C1838 0.930 . S
H1829 C1839 0.930 . S
C1830 H1824 0.930 . S
C1830 C1831 1.355 . S
C1830 C1832 1.415 . S
C1831 C1830 1.355 . S
C1831 C1833 1.419 . S
C1832 C1830 1.415 . S
C1832 C1837 1.425 . S
C1832 C1839 1.409 . S
C1833 H1825 0.930 . S
C1833 C1831 1.419 . S
C1833 C1834 1.362 . S
C1834 H1826 0.930 . S
C1834 C1833 1.362 . S
C1834 C1837 1.409 . S
C1835 H1827 0.930 . S
C1835 C1836 1.355 . S
C1835 C1837 1.415 . S
C1836 C1835 1.355 . S
C1836 C1838 1.419 . S
C1837 C1832 1.425 . S
C1837 C1834 1.409 . S
C1837 C1835 1.415 . S
C1838 H1828 0.930 . S
C1838 C1836 1.419 . S
C1838 C1839 1.362 . S
C1839 H1829 0.930 . S
C1839 C1832 1.409 . S
C1839 C1838 1.362 . S
H1840 C1846 0.930 . S
H1841 C1849 0.930 . S
H1842 C1850 0.930 . S
H1843 C1851 0.930 . S
H1844 C1854 0.930 . S
H1845 C1855 0.930 . S
C1846 H1840 0.930 . S
C1846 C1847 1.355 . S
C1846 C1848 1.415 . S
C1847 C1846 1.355 . S
C1847 C1849 1.419 . S
C1848 C1846 1.415 . S
C1848 C1853 1.425 . S
C1848 C1855 1.409 . S
C1849 H1841 0.930 . S
C1849 C1847 1.419 . S
C1849 C1850 1.362 . S
C1850 H1842 0.930 . S
C1850 C1849 1.362 . S
C1850 C1853 1.409 . S
C1851 H1843 0.930 . S
C1851 C1852 1.355 . S
C1851 C1853 1.415 . S
C1852 C1851 1.355 . S
C1852 C1854 1.419 . S
C1853 C1848 1.425 . S
C1853 C1850 1.409 . S
C1853 C1851 1.415 . S
C1854 H1844 0.930 . S
C1854 C1852 1.419 . S
C1854 C1855 1.362 . S
C1855 H1845 0.930 . S
C1855 C1848 1.409 . S
C1855 C1854 1.362 . S
H1856 C1862 0.930 . S
H1857 C1865 0.930 . S
H1858 C1866 0.930 . S
H1859 C1867 0.930 . S
H1860 C1870 0.930 . S
H1861 C1871 0.930 . S
C1862 H1856 0.930 . S
C1862 C1863 1.355 1_655 S
C1862 C1864 1.415 . S
C1863 C1862 1.355 1_455 S
C1863 C1865 1.419 . S
C1864 C1862 1.415 . S
C1864 C1869 1.425 1_655 S
C1864 C1871 1.409 . S
C1865 H1857 0.930 . S
C1865 C1863 1.419 . S
C1865 C1866 1.362 . S
C1866 H1858 0.930 . S
C1866 C1865 1.362 . S
C1866 C1869 1.409 . S
C1867 H1859 0.930 . S
C1867 C1868 1.355 1_455 S
C1867 C1869 1.415 . S
C1868 C1867 1.355 1_655 S
C1868 C1870 1.419 . S
C1869 C1864 1.425 1_455 S
C1869 C1866 1.409 . S
C1869 C1867 1.415 . S
C1870 H1860 0.930 . S
C1870 C1868 1.419 . S
C1870 C1871 1.362 . S
C1871 H1861 0.930 . S
C1871 C1864 1.409 . S
C1871 C1870 1.362 . S
H1872 C1878 0.930 . S
H1873 C1881 0.930 . S
H1874 C1882 0.930 . S
H1875 C1883 0.930 . S
H1876 C1886 0.930 . S
H1877 C1887 0.930 . S
C1878 H1872 0.930 . S
C1878 C1879 1.355 . S
C1878 C1880 1.415 . S
C1879 C1878 1.355 . S
C1879 C1881 1.419 . S
C1880 C1878 1.415 . S
C1880 C1885 1.425 . S
C1880 C1887 1.409 . S
C1881 H1873 0.930 . S
C1881 C1879 1.419 . S
C1881 C1882 1.362 . S
C1882 H1874 0.930 . S
C1882 C1881 1.362 . S
C1882 C1885 1.409 . S
C1883 H1875 0.930 . S
C1883 C1884 1.355 . S
C1883 C1885 1.415 . S
C1884 C1883 1.355 . S
C1884 C1886 1.419 . S
C1885 C1880 1.425 . S
C1885 C1882 1.409 . S
C1885 C1883 1.415 . S
C1886 H1876 0.930 . S
C1886 C1884 1.419 . S
C1886 C1887 1.362 . S
C1887 H1877 0.930 . S
C1887 C1880 1.409 . S
C1887 C1886 1.362 . S
H1888 C1894 0.930 . S
H1889 C1897 0.930 . S
H1890 C1898 0.930 . S
H1891 C1899 0.930 . S
H1892 C1902 0.930 . S
H1893 C1903 0.930 . S
C1894 H1888 0.930 . S
C1894 C1895 1.355 . S
C1894 C1896 1.415 . S
C1895 C1894 1.355 . S
C1895 C1897 1.419 . S
C1896 C1894 1.415 . S
C1896 C1901 1.425 . S
C1896 C1903 1.409 . S
C1897 H1889 0.930 . S
C1897 C1895 1.419 . S
C1897 C1898 1.362 . S
C1898 H1890 0.930 . S
C1898 C1897 1.362 . S
C1898 C1901 1.409 . S
C1899 H1891 0.930 . S
C1899 C1900 1.355 . S
C1899 C1901 1.415 . S
C1900 C1899 1.355 . S
C1900 C1902 1.419 . S
C1901 C1896 1.425 . S
C1901 C1898 1.409 . S
C1901 C1899 1.415 . S
C1902 H1892 0.930 . S
C1902 C1900 1.419 . S
C1902 C1903 1.362 . S
C1903 H1893 0.930 . S
C1903 C1896 1.409 . S
C1903 C1902 1.362 . S
H1904 C1910 0.930 . S
H1905 C1913 0.930 . S
H1906 C1914 0.930 . S
H1907 C1915 0.930 . S
H1908 C1918 0.930 . S
H1909 C1919 0.930 . S
C1910 H1904 0.930 . S
C1910 C1911 1.355 . S
C1910 C1912 1.415 . S
C1911 C1910 1.355 . S
C1911 C1913 1.419 . S
C1912 C1910 1.415 . S
C1912 C1917 1.425 . S
C1912 C1919 1.409 . S
C1913 H1905 0.930 . S
C1913 C1911 1.419 . S
C1913 C1914 1.362 . S
C1914 H1906 0.930 . S
C1914 C1913 1.362 . S
C1914 C1917 1.409 . S
C1915 H1907 0.930 . S
C1915 C1916 1.355 . S
C1915 C1917 1.415 . S
C1916 C1915 1.355 . S
C1916 C1918 1.419 . S
C1917 C1912 1.425 . S
C1917 C1914 1.409 . S
C1917 C1915 1.415 . S
C1918 H1908 0.930 . S
C1918 C1916 1.419 . S
C1918 C1919 1.362 . S
C1919 H1909 0.930 . S
C1919 C1912 1.409 . S
C1919 C1918 1.362 . S
H1920 C1926 0.930 1_655 S
H1921 C1929 0.930 . S
H1922 C1930 0.930 . S
H1923 C1931 0.936 . S
H1924 C1934 0.930 . S
H1925 C1935 0.930 . S
C1926 H1920 0.930 1_455 S
C1926 C1927 1.355 . S
C1926 C1928 1.415 1_455 S
C1927 C1926 1.355 . S
C1927 C1929 1.419 . S
C1928 C1926 1.415 1_655 S
C1928 C1933 1.425 1_655 S
C1928 C1935 1.409 . S
C1929 H1921 0.930 . S
C1929 C1927 1.419 . S
C1929 C1930 1.362 . S
C1930 H1922 0.930 . S
C1930 C1929 1.362 . S
C1930 C1933 1.409 . S
C1931 H1923 0.936 . S
C1931 C1932 1.344 1_455 S
C1931 C1933 1.421 . S
C1932 C1931 1.344 1_655 S
C1932 C1934 1.419 . S
C1933 C1928 1.425 1_455 S
C1933 C1930 1.409 . S
C1933 C1931 1.421 . S
C1934 H1924 0.930 . S
C1934 C1932 1.419 . S
C1934 C1935 1.362 . S
C1935 H1925 0.930 . S
C1935 C1928 1.409 . S
C1935 C1934 1.362 . S
H1936 C1942 0.930 . S
H1937 C1945 0.930 . S
H1938 C1946 0.930 . S
H1939 C1947 0.930 . S
H1940 C1950 0.930 . S
H1941 C1951 0.930 . S
C1942 H1936 0.930 . S
C1942 C1943 1.355 . S
C1942 C1944 1.415 . S
C1943 C1942 1.355 . S
C1943 C1945 1.419 . S
C1944 C1942 1.415 . S
C1944 C1949 1.425 . S
C1944 C1951 1.409 . S
C1945 H1937 0.930 . S
C1945 C1943 1.419 . S
C1945 C1946 1.362 . S
C1946 H1938 0.930 . S
C1946 C1945 1.362 . S
C1946 C1949 1.409 . S
C1947 H1939 0.930 . S
C1947 C1948 1.355 . S
C1947 C1949 1.415 . S
C1948 C1947 1.355 . S
C1948 C1950 1.419 . S
C1949 C1944 1.425 . S
C1949 C1946 1.409 . S
C1949 C1947 1.415 . S
C1950 H1940 0.930 . S
C1950 C1948 1.419 . S
C1950 C1951 1.362 . S
C1951 H1941 0.930 . S
C1951 C1944 1.409 . S
C1951 C1950 1.362 . S
H1952 C1958 0.930 . S
H1953 C1961 0.930 . S
H1954 C1962 0.930 . S
H1955 C1963 0.930 . S
H1956 C1966 0.930 . S
H1957 C1967 0.930 . S
C1958 H1952 0.930 . S
C1958 C1959 1.355 . S
C1958 C1960 1.415 . S
C1959 C1958 1.355 . S
C1959 C1961 1.419 . S
C1960 C1958 1.415 . S
C1960 C1965 1.425 . S
C1960 C1967 1.409 . S
C1961 H1953 0.930 . S
C1961 C1959 1.419 . S
C1961 C1962 1.362 . S
C1962 H1954 0.930 . S
C1962 C1961 1.362 . S
C1962 C1965 1.409 . S
C1963 H1955 0.930 . S
C1963 C1964 1.355 . S
C1963 C1965 1.415 . S
C1964 C1963 1.355 . S
C1964 C1966 1.419 . S
C1965 C1960 1.425 . S
C1965 C1962 1.409 . S
C1965 C1963 1.415 . S
C1966 H1956 0.930 . S
C1966 C1964 1.419 . S
C1966 C1967 1.362 . S
C1967 H1957 0.930 . S
C1967 C1960 1.409 . S
C1967 C1966 1.362 . S
H1968 C1974 0.930 . S
H1969 C1977 0.930 . S
H1970 C1978 0.930 . S
H1971 C1979 0.930 . S
H1972 C1982 0.930 . S
H1973 C1983 0.930 . S
C1974 H1968 0.930 . S
C1974 C1975 1.355 . S
C1974 C1976 1.415 . S
C1975 C1974 1.355 . S
C1975 C1977 1.419 . S
C1976 C1974 1.415 . S
C1976 C1981 1.425 . S
C1976 C1983 1.409 . S
C1977 H1969 0.930 . S
C1977 C1975 1.419 . S
C1977 C1978 1.362 . S
C1978 H1970 0.930 . S
C1978 C1977 1.362 . S
C1978 C1981 1.409 . S
C1979 H1971 0.930 . S
C1979 C1980 1.355 . S
C1979 C1981 1.415 . S
C1980 C1979 1.355 . S
C1980 C1982 1.419 . S
C1981 C1976 1.425 . S
C1981 C1978 1.409 . S
C1981 C1979 1.415 . S
C1982 H1972 0.930 . S
C1982 C1980 1.419 . S
C1982 C1983 1.362 . S
C1983 H1973 0.930 . S
C1983 C1976 1.409 . S
C1983 C1982 1.362 . S
H1984 C1990 0.930 . S
H1985 C1993 0.930 . S
H1986 C1994 0.930 . S
H1987 C1995 0.930 . S
H1988 C1998 0.930 . S
H1989 C1999 0.930 . S
C1990 H1984 0.930 . S
C1990 C1991 1.355 . S
C1990 C1992 1.415 . S
C1991 C1990 1.355 . S
C1991 C1993 1.419 . S
C1992 C1990 1.415 . S
C1992 C1997 1.425 . S
C1992 C1999 1.409 . S
C1993 H1985 0.930 . S
C1993 C1991 1.419 . S
C1993 C1994 1.362 . S
C1994 H1986 0.930 . S
C1994 C1993 1.362 . S
C1994 C1997 1.409 . S
C1995 H1987 0.930 . S
C1995 C1996 1.355 . S
C1995 C1997 1.415 . S
C1996 C1995 1.355 . S
C1996 C1998 1.419 . S
C1997 C1992 1.425 . S
C1997 C1994 1.409 . S
C1997 C1995 1.415 . S
C1998 H1988 0.930 . S
C1998 C1996 1.419 . S
C1998 C1999 1.362 . S
C1999 H1989 0.930 . S
C1999 C1992 1.409 . S
C1999 C1998 1.362 . S
H2000 C2006 0.930 . S
H2001 C2009 0.930 . S
H2002 C2010 0.930 . S
H2003 C2011 0.930 . S
H2004 C2014 0.930 . S
H2005 C2015 0.930 . S
C2006 H2000 0.930 . S
C2006 C2007 1.355 . S
C2006 C2008 1.415 . S
C2007 C2006 1.355 . S
C2007 C2009 1.419 . S
C2008 C2006 1.415 . S
C2008 C2013 1.425 . S
C2008 C2015 1.409 . S
C2009 H2001 0.930 . S
C2009 C2007 1.419 . S
C2009 C2010 1.362 . S
C2010 H2002 0.930 . S
C2010 C2009 1.362 . S
C2010 C2013 1.409 . S
C2011 H2003 0.930 . S
C2011 C2012 1.355 . S
C2011 C2013 1.415 . S
C2012 C2011 1.355 . S
C2012 C2014 1.419 . S
C2013 C2008 1.425 . S
C2013 C2010 1.409 . S
C2013 C2011 1.415 . S
C2014 H2004 0.930 . S
C2014 C2012 1.419 . S
C2014 C2015 1.362 . S
C2015 H2005 0.930 . S
C2015 C2008 1.409 . S
C2015 C2014 1.362 . S
H2016 C2022 0.930 . S
H2017 C2025 0.930 . S
H2018 C2026 0.930 . S
H2019 C2027 0.930 . S
H2020 C2030 0.930 . S
H2021 C2031 0.930 . S
C2022 H2016 0.930 . S
C2022 C2023 1.355 . S
C2022 C2024 1.415 . S
C2023 C2022 1.355 . S
C2023 C2025 1.419 . S
C2024 C2022 1.415 . S
C2024 C2029 1.425 . S
C2024 C2031 1.409 . S
C2025 H2017 0.930 . S
C2025 C2023 1.419 . S
C2025 C2026 1.362 . S
C2026 H2018 0.930 . S
C2026 C2025 1.362 . S
C2026 C2029 1.409 . S
C2027 H2019 0.930 . S
C2027 C2028 1.355 . S
C2027 C2029 1.415 . S
C2028 C2027 1.355 . S
C2028 C2030 1.419 . S
C2029 C2024 1.425 . S
C2029 C2026 1.409 . S
C2029 C2027 1.415 . S
C2030 H2020 0.930 . S
C2030 C2028 1.419 . S
C2030 C2031 1.362 . S
C2031 H2021 0.930 . S
C2031 C2024 1.409 . S
C2031 C2030 1.362 . S
H2032 C2038 0.930 . S
H2033 C2041 0.930 . S
H2034 C2042 0.930 . S
H2035 C2043 0.930 . S
H2036 C2046 0.930 . S
H2037 C2047 0.930 . S
C2038 H2032 0.930 . S
C2038 C2039 1.355 . S
C2038 C2040 1.415 . S
C2039 C2038 1.355 . S
C2039 C2041 1.419 . S
C2040 C2038 1.415 . S
C2040 C2045 1.425 . S
C2040 C2047 1.409 . S
C2041 H2033 0.930 . S
C2041 C2039 1.419 . S
C2041 C2042 1.362 . S
C2042 H2034 0.930 . S
C2042 C2041 1.362 . S
C2042 C2045 1.409 . S
C2043 H2035 0.930 . S
C2043 C2044 1.355 . S
C2043 C2045 1.415 . S
C2044 C2043 1.355 . S
C2044 C2046 1.419 . S
C2045 C2040 1.425 . S
C2045 C2042 1.409 . S
C2045 C2043 1.415 . S
C2046 H2036 0.930 . S
C2046 C2044 1.419 . S
C2046 C2047 1.362 . S
C2047 H2037 0.930 . S
C2047 C2040 1.409 . S
C2047 C2046 1.362 . S
H2048 C2054 0.930 . S
H2049 C2057 0.930 . S
H2050 C2058 0.930 . S
H2051 C2059 0.930 . S
H2052 C2062 0.930 . S
H2053 C2063 0.930 . S
C2054 H2048 0.930 . S
C2054 C2055 1.355 . S
C2054 C2056 1.415 . S
C2055 C2054 1.355 . S
C2055 C2057 1.419 . S
C2056 C2054 1.415 . S
C2056 C2061 1.425 . S
C2056 C2063 1.409 . S
C2057 H2049 0.930 . S
C2057 C2055 1.419 . S
C2057 C2058 1.362 . S
C2058 H2050 0.930 . S
C2058 C2057 1.362 . S
C2058 C2061 1.409 . S
C2059 H2051 0.930 . S
C2059 C2060 1.355 . S
C2059 C2061 1.415 . S
C2060 C2059 1.355 . S
C2060 C2062 1.419 . S
C2061 C2056 1.425 . S
C2061 C2058 1.409 . S
C2061 C2059 1.415 . S
C2062 H2052 0.930 . S
C2062 C2060 1.419 . S
C2062 C2063 1.362 . S
C2063 H2053 0.930 . S
C2063 C2056 1.409 . S
C2063 C2062 1.362 . S
H2064 C2070 0.930 . S
H2065 C2073 0.930 . S
H2066 C2074 0.930 . S
H2067 C2075 0.930 . S
H2068 C2078 0.930 . S
H2069 C2079 0.930 . S
C2070 H2064 0.930 . S
C2070 C2071 1.355 . S
C2070 C2072 1.415 . S
C2071 C2070 1.355 . S
C2071 C2073 1.419 . S
C2072 C2070 1.415 . S
C2072 C2077 1.425 . S
C2072 C2079 1.409 . S
C2073 H2065 0.930 . S
C2073 C2071 1.419 . S
C2073 C2074 1.362 . S
C2074 H2066 0.930 . S
C2074 C2073 1.362 . S
C2074 C2077 1.409 . S
C2075 H2067 0.930 . S
C2075 C2076 1.355 . S
C2075 C2077 1.415 . S
C2076 C2075 1.355 . S
C2076 C2078 1.419 . S
C2077 C2072 1.425 . S
C2077 C2074 1.409 . S
C2077 C2075 1.415 . S
C2078 H2068 0.930 . S
C2078 C2076 1.419 . S
C2078 C2079 1.362 . S
C2079 H2069 0.930 . S
C2079 C2072 1.409 . S
C2079 C2078 1.362 . S
H2080 C2086 0.930 . S
H2081 C2089 0.930 . S
H2082 C2090 0.930 . S
H2083 C2091 0.930 . S
H2084 C2094 0.930 . S
H2085 C2095 0.930 . S
C2086 H2080 0.930 . S
C2086 C2087 1.355 . S
C2086 C2088 1.415 . S
C2087 C2086 1.355 . S
C2087 C2089 1.419 . S
C2088 C2086 1.415 . S
C2088 C2093 1.425 . S
C2088 C2095 1.409 . S
C2089 H2081 0.930 . S
C2089 C2087 1.419 . S
C2089 C2090 1.362 . S
C2090 H2082 0.930 . S
C2090 C2089 1.362 . S
C2090 C2093 1.409 . S
C2091 H2083 0.930 . S
C2091 C2092 1.355 . S
C2091 C2093 1.415 . S
C2092 C2091 1.355 . S
C2092 C2094 1.419 . S
C2093 C2088 1.425 . S
C2093 C2090 1.409 . S
C2093 C2091 1.415 . S
C2094 H2084 0.930 . S
C2094 C2092 1.419 . S
C2094 C2095 1.362 . S
C2095 H2085 0.930 . S
C2095 C2088 1.409 . S
C2095 C2094 1.362 . S
H2096 C2102 0.930 . S
H2097 C2105 0.930 . S
H2098 C2106 0.930 . S
H2099 C2107 0.930 . S
H2100 C2110 0.930 . S
H2101 C2111 0.930 . S
C2102 H2096 0.930 . S
C2102 C2103 1.355 . S
C2102 C2104 1.415 . S
C2103 C2102 1.355 . S
C2103 C2105 1.419 . S
C2104 C2102 1.415 . S
C2104 C2109 1.425 . S
C2104 C2111 1.409 . S
C2105 H2097 0.930 . S
C2105 C2103 1.419 . S
C2105 C2106 1.362 . S
C2106 H2098 0.930 . S
C2106 C2105 1.362 . S
C2106 C2109 1.409 . S
C2107 H2099 0.930 . S
C2107 C2108 1.355 . S
C2107 C2109 1.415 . S
C2108 C2107 1.355 . S
C2108 C2110 1.419 . S
C2109 C2104 1.425 . S
C2109 C2106 1.409 . S
C2109 C2107 1.415 . S
C2110 H2100 0.930 . S
C2110 C2108 1.419 . S
C2110 C2111 1.362 . S
C2111 H2101 0.930 . S
C2111 C2104 1.409 . S
C2111 C2110 1.362 . S
H2112 C2118 0.930 . S
H2113 C2121 0.930 . S
H2114 C2122 0.930 . S
H2115 C2123 0.930 . S
H2116 C2126 0.930 . S
H2117 C2127 0.930 . S
C2118 H2112 0.930 . S
C2118 C2119 1.355 . S
C2118 C2120 1.415 . S
C2119 C2118 1.355 . S
C2119 C2121 1.419 . S
C2120 C2118 1.415 . S
C2120 C2125 1.425 . S
C2120 C2127 1.409 . S
C2121 H2113 0.930 . S
C2121 C2119 1.419 . S
C2121 C2122 1.362 . S
C2122 H2114 0.930 . S
C2122 C2121 1.362 . S
C2122 C2125 1.409 . S
C2123 H2115 0.930 . S
C2123 C2124 1.355 . S
C2123 C2125 1.415 . S
C2124 C2123 1.355 . S
C2124 C2126 1.419 . S
C2125 C2120 1.425 . S
C2125 C2122 1.409 . S
C2125 C2123 1.415 . S
C2126 H2116 0.930 . S
C2126 C2124 1.419 . S
C2126 C2127 1.362 . S
C2127 H2117 0.930 . S
C2127 C2120 1.409 . S
C2127 C2126 1.362 . S
H2128 C2134 0.930 . S
H2129 C2137 0.930 . S
H2130 C2138 0.930 . S
H2131 C2139 0.930 . S
H2132 C2142 0.930 . S
H2133 C2143 0.930 . S
C2134 H2128 0.930 . S
C2134 C2135 1.355 1_556 S
C2134 C2136 1.415 . S
C2135 C2134 1.355 1_554 S
C2135 C2137 1.419 . S
C2136 C2134 1.415 . S
C2136 C2141 1.425 1_556 S
C2136 C2143 1.409 . S
C2137 H2129 0.930 . S
C2137 C2135 1.419 . S
C2137 C2138 1.362 . S
C2138 H2130 0.930 . S
C2138 C2137 1.362 . S
C2138 C2141 1.409 . S
C2139 H2131 0.930 . S
C2139 C2140 1.355 1_554 S
C2139 C2141 1.415 . S
C2140 C2139 1.355 1_556 S
C2140 C2142 1.419 . S
C2141 C2136 1.425 1_554 S
C2141 C2138 1.409 . S
C2141 C2139 1.415 . S
C2142 H2132 0.930 . S
C2142 C2140 1.419 . S
C2142 C2143 1.362 . S
C2143 H2133 0.930 . S
C2143 C2136 1.409 . S
C2143 C2142 1.362 . S
H2144 C2150 0.930 . S
H2145 C2153 0.930 . S
H2146 C2154 0.930 . S
H2147 C2155 0.930 . S
H2148 C2158 0.930 . S
H2149 C2159 0.930 . S
C2150 H2144 0.930 . S
C2150 C2151 1.355 . S
C2150 C2152 1.415 . S
C2151 C2150 1.355 . S
C2151 C2153 1.419 . S
C2152 C2150 1.415 . S
C2152 C2157 1.425 . S
C2152 C2159 1.409 . S
C2153 H2145 0.930 . S
C2153 C2151 1.419 . S
C2153 C2154 1.362 . S
C2154 H2146 0.930 . S
C2154 C2153 1.362 . S
C2154 C2157 1.409 . S
C2155 H2147 0.930 . S
C2155 C2156 1.355 . S
C2155 C2157 1.415 . S
C2156 C2155 1.355 . S
C2156 C2158 1.419 . S
C2157 C2152 1.425 . S
C2157 C2154 1.409 . S
C2157 C2155 1.415 . S
C2158 H2148 0.930 . S
C2158 C2156 1.419 . S
C2158 C2159 1.362 . S
C2159 H2149 0.930 . S
C2159 C2152 1.409 . S
C2159 C2158 1.362 . S
H2160 C2166 0.930 . S
H2161 C2169 0.930 . S
H2162 C2170 0.930 . S
H2163 C2171 0.930 1_556 S
H2164 C2174 0.930 . S
H2165 C2175 0.930 . S
C2166 H2160 0.930 . S
C2166 C2167 1.355 1_554 S
C2166 C2168 1.415 . S
C2167 C2166 1.355 1_556 S
C2167 C2169 1.419 . S
C2168 C2166 1.415 . S
C2168 C2173 1.425 . S
C2168 C2175 1.409 . S
C2169 H2161 0.930 . S
C2169 C2167 1.419 . S
C2169 C2170 1.362 . S
C2170 H2162 0.930 . S
C2170 C2169 1.362 . S
C2170 C2173 1.409 1_556 S
C2171 H2163 0.930 1_554 S
C2171 C2172 1.355 . S
C2171 C2173 1.415 . S
C2172 C2171 1.355 . S
C2172 C2174 1.419 . S
C2173 C2168 1.425 . S
C2173 C2170 1.409 1_554 S
C2173 C2171 1.415 . S
C2174 H2164 0.930 . S
C2174 C2172 1.419 . S
C2174 C2175 1.362 . S
C2175 H2165 0.930 . S
C2175 C2168 1.409 . S
C2175 C2174 1.362 . S
H2176 C2182 0.930 . S
H2177 C2185 0.930 . S
H2178 C2186 0.930 . S
H2179 C2187 0.930 . S
H2180 C2190 0.930 . S
H2181 C2191 0.930 . S
C2182 H2176 0.930 . S
C2182 C2183 1.355 . S
C2182 C2184 1.415 . S
C2183 C2182 1.355 . S
C2183 C2185 1.419 . S
C2184 C2182 1.415 . S
C2184 C2189 1.425 . S
C2184 C2191 1.409 . S
C2185 H2177 0.930 . S
C2185 C2183 1.419 . S
C2185 C2186 1.362 . S
C2186 H2178 0.930 . S
C2186 C2185 1.362 . S
C2186 C2189 1.409 . S
C2187 H2179 0.930 . S
C2187 C2188 1.355 . S
C2187 C2189 1.415 . S
C2188 C2187 1.355 . S
C2188 C2190 1.419 . S
C2189 C2184 1.425 . S
C2189 C2186 1.409 . S
C2189 C2187 1.415 . S
C2190 H2180 0.930 . S
C2190 C2188 1.419 . S
C2190 C2191 1.362 . S
C2191 H2181 0.930 . S
C2191 C2184 1.409 . S
C2191 C2190 1.362 . S
H2192 C2198 0.930 . S
H2193 C2201 0.930 . S
H2194 C2202 0.930 . S
H2195 C2203 0.930 . S
H2196 C2206 0.930 . S
H2197 C2207 0.930 . S
C2198 H2192 0.930 . S
C2198 C2199 1.355 . S
C2198 C2200 1.415 . S
C2199 C2198 1.355 . S
C2199 C2201 1.419 . S
C2200 C2198 1.415 . S
C2200 C2205 1.425 . S
C2200 C2207 1.409 . S
C2201 H2193 0.930 . S
C2201 C2199 1.419 . S
C2201 C2202 1.362 . S
C2202 H2194 0.930 . S
C2202 C2201 1.362 . S
C2202 C2205 1.409 . S
C2203 H2195 0.930 . S
C2203 C2204 1.355 . S
C2203 C2205 1.415 . S
C2204 C2203 1.355 . S
C2204 C2206 1.419 . S
C2205 C2200 1.425 . S
C2205 C2202 1.409 . S
C2205 C2203 1.415 . S
C2206 H2196 0.930 . S
C2206 C2204 1.419 . S
C2206 C2207 1.362 . S
C2207 H2197 0.930 . S
C2207 C2200 1.409 . S
C2207 C2206 1.362 . S
C684 C352 1.197 . S
C679 C13 1.222 . S
C695 C25 1.196 . S
C700 C372 1.119 . S
C711 C39 1.283 . S
C716 C394 1.213 . S
C732 C413 1.436 . S
C727 C50 1.411 . S
C743 C21 1.326 1_455 S
C748 C434 1.320 . S
C764 C457 1.214 . S
C759 C35 1.388 . S
C780 C480 1.181 . S
C775 C55 1.202 . S
C791 C8 1.403 . S
C796 C498 1.329 . S
C807 C69 1.247 . S
C812 C354 1.238 . S
C823 C77 1.361 . S
C828 C374 1.363 . S
C844 C396 1.248 . S
C839 C97 1.218 1_545 S
C860 C415 1.238 . S
C855 C105 1.402 . S
C871 C63 1.443 . S
C876 C436 1.344 . S
C892 C459 1.140 . S
C887 C83 1.129 . S
C908 C476 1.270 . S
C903 C91 1.349 . S
C924 C500 1.316 . S
C919 C111 1.224 . S
C940 C350 1.362 . S
C935 C106 1.351 . S
C956 C522 1.135 . S
C951 C123 1.209 . S
C967 C134 1.304 . S
C972 C539 1.313 . S
C988 C562 1.219 . S
C983 C151 1.324 . S
C999 C64 1.357 . S
C1004 C496 1.299 . S
C1020 C392 1.344 . S
C1015 C78 1.370 . S
C1031 C137 1.151 . S
C1036 C585 1.162 . S
C1052 C601 1.242 . S
C1047 C165 1.297 . S
C1063 C175 1.284 . S
C1068 C349 1.217 . S
C1084 C602 1.170 . S
C1079 C193 1.148 . S
C1095 C209 1.274 . S
C1100 C391 1.156 . S
C1111 C223 1.049 . S
C1116 C582 1.158 . S
C1132 C435 1.117 . S
C1127 C195 1.040 . S
C1148 C538 1.144 . S
C1143 C207 1.258 . S
C1164 C479 1.201 . S
C1159 C221 1.138 . S
C1180 C623 1.345 . S
C1175 C176 1.343 . S
C1196 C353 1.292 . S
C1191 C231 1.290 1_545 S
C1207 C251 1.185 . S
C1212 C606 1.177 . S
C1228 C395 1.195 1_545 S
C1223 C259 1.249 . S
C1239 C279 1.202 . S
C1244 C580 1.295 . S
C1255 C237 1.243 . S
C1260 C433 1.313 . S
C1271 C245 1.275 . S
C1276 C542 1.281 . S
C1292 C477 1.144 . S
C1287 C265 1.061 . S
C1303 C273 1.223 . S
C1308 C627 1.192 . S
C1319 C274 1.221 . S
C1324 C351 1.233 . S
C1335 C291 1.160 . S
C1340 C521 1.173 . S
C1351 C302 1.145 . S
C1356 C456 1.159 . S
C1367 C319 1.221 . S
C1372 C559 1.168 . S
C1388 C625 1.178 . S
C1383 C232 1.317 . S
C1404 C393 1.261 . S
C1399 C246 1.261 . S
C1420 C416 1.186 . S
C1415 C305 1.144 . S
C1436 C373 1.122 . S
C1431 C333 1.235 . S
C1447 C36 1.396 . S
C1452 C646 1.312 . S
C1468 C603 1.111 . S
C1463 C53 1.178 . S
C1484 C667 1.178 . S
C1479 C7 1.360 . S
C1495 C22 1.408 . S
C1500 C581 1.386 . S
C1511 C49 1.367 . S
C1516 C518 1.313 . S
C1532 C541 1.153 . S
C1527 C11 1.296 . S
C1548 C564 1.232 . S
C1543 C27 1.228 1_455 S
C1564 C624 1.320 . S
C1559 C41 1.310 . S
C1580 C648 1.244 . S
C1575 C167 1.250 . S
C1591 C119 1.362 . S
C1596 C605 1.330 . S
C1607 C139 1.207 . S
C1612 C669 1.194 . S
C1628 C583 1.284 . S
C1623 C147 1.417 . S
C1644 C520 1.316 . S
C1639 C161 1.420 . S
C1655 C125 1.204 . S
C1660 C543 1.191 . S
C1676 C560 1.324 . S
C1671 C133 1.332 . S
C1687 C153 1.234 . S
C1692 C626 1.277 . S
C1708 C644 1.395 . S
C1703 C148 1.379 . S
C1724 C438 1.155 . S
C1719 C81 1.173 . S
C1740 C455 1.338 . S
C1735 C92 1.338 . S
C1751 C109 1.313 . S
C1756 C478 1.183 . S
C1772 C622 1.226 . S
C1767 C162 1.332 . S
C1783 C120 1.416 . S
C1788 C665 1.400 . S
C1804 C417 1.194 . S
C1799 C95 1.163 . S
C1820 C370 1.225 . S
C1815 C67 1.306 . S
C1831 C203 1.296 . S
C1836 C643 1.217 . S
C1852 C371 1.242 . S
C1847 C217 1.275 . S
C1868 C664 1.130 . S
C1863 C181 1.288 1_455 S
C1879 C190 1.256 . S
C1884 C414 1.270 . S
C1895 C218 1.212 . S
C1900 C519 1.226 . S
C1911 C179 1.202 . S
C1916 C454 1.124 . S
C1927 C189 1.314 . S
C1932 C563 1.303 . S
C1943 C204 1.360 . S
C1948 C497 1.348 . S
C1964 C647 1.325 . S
C1959 C329 1.321 . S
C1975 C293 1.029 . S
C1980 C375 1.087 . S
C1996 C668 1.262 . S
C1991 C301 1.285 . S
C2007 C321 1.202 . S
C2012 C412 1.210 . S
C2023 C335 1.219 . S
C2028 C517 1.250 . S
C2044 C458 1.299 . S
C2039 C287 1.292 . S
C2055 C307 1.037 . S
C2060 C561 1.138 . S
C2076 C501 1.193 . S
C2071 C315 1.249 . S
C2092 C645 1.230 . S
C2087 C316 1.219 . S
C2108 C437 1.219 . S
C2103 C249 1.237 . S
C2119 C260 1.174 . S
C2124 C540 1.187 . S
C2140 C475 1.156 . S
C2135 C277 1.287 . S
C2156 C499 1.266 . S
C2151 C330 1.252 . S
C2167 C288 1.203 1_556 S
C2172 C666 1.207 . S
C2188 C584 1.220 . S
C2183 C263 1.271 . S
C2204 C604 1.220 . S
C2199 C235 1.300 . S
