# Generated by pormake.
# Topology apo, (3,6)-cn, num edge types: 1
# Building blocks:
#     Node 0, Type 0, BuildingBlock: WUSLED_clean_sbu_0, # of connection points: 3
#     Node 1, Type 0, BuildingBlock: WUSLED_clean_sbu_0, # of connection points: 3
#     Node 2, Type 0, BuildingBlock: WUSLED_clean_sbu_0, # of connection points: 3
#     Node 3, Type 0, BuildingBlock: WUSLED_clean_sbu_0, # of connection points: 3
#     Node 4, Type 0, BuildingBlock: WUSLED_clean_sbu_0, # of connection points: 3
#     Node 5, Type 0, BuildingBlock: WUSLED_clean_sbu_0, # of connection points: 3
#     Node 6, Type 0, BuildingBlock: WUSLED_clean_sbu_0, # of connection points: 3
#     Node 7, Type 0, BuildingBlock: WUSLED_clean_sbu_0, # of connection points: 3
#     Node 8, Type 1, BuildingBlock: KUMJIN_clean_sbu_1, # of connection points: 6
#     Node 9, Type 1, BuildingBlock: KUMJIN_clean_sbu_1, # of connection points: 6
#     Node 10, Type 1, BuildingBlock: KUMJIN_clean_sbu_1, # of connection points: 6
#     Node 11, Type 1, BuildingBlock: KUMJIN_clean_sbu_1, # of connection points: 6
#     Edge 12, Type (0, 1), None
#     Edge 13, Type (0, 1), None
#     Edge 14, Type (0, 1), None
#     Edge 15, Type (0, 1), None
#     Edge 16, Type (0, 1), None
#     Edge 17, Type (0, 1), None
#     Edge 18, Type (0, 1), None
#     Edge 19, Type (0, 1), None
#     Edge 20, Type (0, 1), None
#     Edge 21, Type (0, 1), None
#     Edge 22, Type (0, 1), None
#     Edge 23, Type (0, 1), None
#     Edge 24, Type (0, 1), None
#     Edge 25, Type (0, 1), None
#     Edge 26, Type (0, 1), None
#     Edge 27, Type (0, 1), None
#     Edge 28, Type (0, 1), None
#     Edge 29, Type (0, 1), None
#     Edge 30, Type (0, 1), None
#     Edge 31, Type (0, 1), None
#     Edge 32, Type (0, 1), None
#     Edge 33, Type (0, 1), None
#     Edge 34, Type (0, 1), None
#     Edge 35, Type (0, 1), None
# Relax obj value: 0.007
# Max RMSD: 0.133
# Mean RMSD: 0.098
data_MOF--net-apo--node1-WUSLED_clean_sbu_0--node2-KUMJIN_clean_sbu_1--edge1-none
_symmetry_space_group_name_H-M    P1
_symmetry_Int_Tables_number       1
_symmetry_cell_setting            triclinic
loop_
_symmetry_equiv_pos_as_xyz
'x, y, z'
_cell_length_a     18.472606
_cell_length_b     31.688532
_cell_length_c     42.168652
_cell_angle_alpha  90.496426
_cell_angle_beta   90.18064
_cell_angle_gamma 90.063039
loop_
_atom_site_label
_atom_site_type_symbol
_atom_site_fract_x
_atom_site_fract_y
_atom_site_fract_z
_atom_type_partial_charge
C0 C 0.34036 0.46521 0.33792 0.0
C1 C 0.33949 0.50395 0.35453 0.0
C2 C 0.40259 0.53873 0.31082 0.0
C3 C 0.37074 0.54032 0.34116 0.0
C4 C 0.40466 0.49969 0.29478 0.0
C5 C 0.37385 0.46356 0.30809 0.0
U6 U 0.26799 0.38117 0.39939 0.0
O7 O 0.16422 0.34661 0.39606 0.0
O8 O 0.26623 0.31204 0.39195 0.0
C9 C 0.19525 0.31014 0.38974 0.0
C10 C 0.30312 0.42658 0.34942 0.0
C11 C 0.16337 0.28339 0.36358 0.0
C12 C 0.16859 0.22017 0.32963 0.0
C13 C 0.20152 0.24845 0.3512 0.0
C14 C 0.05868 0.26115 0.33165 0.0
C15 C 0.0964 0.22582 0.31975 0.0
C16 C 0.09143 0.28934 0.35331 0.0
C17 C 0.30357 0.39819 0.4916 0.0
C18 C 0.25307 0.36231 0.53755 0.0
C19 C 0.34135 0.41771 0.54554 0.0
C20 C 0.34596 0.42276 0.5125 0.0
C21 C 0.29397 0.38784 0.55877 0.0
C22 C 0.2576 0.36752 0.50445 0.0
C23 C 0.30628 0.40723 0.45696 0.0
O24 O 0.34373 0.39601 0.3605 0.0
O25 O 0.24227 0.4313 0.36514 0.0
O26 O 0.2453 0.41785 0.44299 0.0
O27 O 0.34703 0.38291 0.439 0.0
H28 H 0.31384 0.50624 0.37753 0.0
H29 H 0.36845 0.56986 0.35422 0.0
H30 H 0.43056 0.49693 0.27189 0.0
H31 H 0.3753 0.4342 0.29473 0.0
H32 H 0.19911 0.19306 0.3215 0.0
H33 H 0.25641 0.24215 0.3589 0.0
H34 H 1.00313 0.26678 0.32457 0.0
H35 H 0.05958 0.3153 0.36258 0.0
H36 H 0.21691 0.33833 0.5465 0.0
H37 H 0.37318 0.43835 0.5607 0.0
H38 H 0.38173 0.44679 0.50324 0.0
H39 H 0.22445 0.34802 0.48895 0.0
C40 C 0.22108 0.15018 0.99554 0.0
C41 C 0.19794 0.10861 1.0007 0.0
C42 C 0.19975 0.11988 0.05854 0.0
C43 C 0.18732 0.09374 0.03169 0.0
C44 C 0.21928 0.16216 0.05321 0.0
C45 C 0.23002 0.17704 0.0221 0.0
U46 U 0.23369 0.13894 0.90327 0.0
O47 O 0.32526 0.1535 0.87165 0.0
O48 O 0.22282 0.18737 0.86593 0.0
C49 C 0.28992 0.18282 0.85606 0.0
C50 C 0.24085 0.16517 0.96315 0.0
C51 C 0.3311 0.22089 0.84506 0.0
C52 C 0.33233 0.28938 0.81826 0.0
C53 C 0.29461 0.25685 0.83373 0.0
C54 C 0.44415 0.25122 0.82506 0.0
C55 C 0.40748 0.28665 0.81305 0.0
C56 C 0.40664 0.21889 0.8407 0.0
C57 C 0.15164 0.0334 0.86649 0.0
C58 C 0.11051 0.01194 0.81348 0.0
C59 C 0.11929 0.96017 0.85507 0.0
C60 C 0.14426 0.99136 0.87612 0.0
C61 C 0.10122 0.96993 0.82354 0.0
C62 C 0.13525 0.04347 0.8348 0.0
C63 C 0.1713 0.06545 0.89108 0.0
O64 O 0.29278 0.14427 0.94871 0.0
O65 O 0.18752 0.1748 0.9438 0.0
O66 O 0.13633 0.10157 0.8912 0.0
O67 O 0.24007 0.06949 0.89855 0.0
H68 H 0.19026 0.0872 0.9808 0.0
H69 H 0.17161 0.06108 0.0347 0.0
H70 H 0.23003 0.18313 0.07309 0.0
H71 H 0.24785 0.20928 0.01886 0.0
H72 H 0.30231 0.3165 0.81007 0.0
H73 H 0.23639 0.25937 0.83599 0.0
H74 H 0.50191 0.24776 0.82158 0.0
H75 H 0.43675 0.19147 0.84835 0.0
H76 H 0.09625 0.02072 0.78953 0.0
H77 H 0.11332 0.92829 0.86377 0.0
H78 H 0.15623 0.9827 0.90038 0.0
H79 H 0.14006 0.0757 0.82674 0.0
C80 C 0.85026 0.0558 0.70096 0.0
C81 C 0.88883 0.02642 0.68258 0.0
C82 C 0.90367 0.98051 0.72881 0.0
C83 C 0.91503 0.98909 0.69633 0.0
C84 C 0.86388 0.00988 0.74683 0.0
C85 C 0.83756 0.04695 0.73305 0.0
U86 U 0.809 0.14633 0.63869 0.0
O87 O 0.71308 0.18762 0.64057 0.0
O88 O 0.82073 0.21444 0.6494 0.0
C89 C 0.75054 0.22113 0.64918 0.0
C90 C 0.82463 0.09667 0.68828 0.0
C91 C 0.72039 0.24769 0.6753 0.0
C92 C 0.65589 0.25716 0.72563 0.0
C93 C 0.69128 0.23078 0.70336 0.0
C94 C 0.68073 0.31743 0.69262 0.0
C95 C 0.64836 0.30068 0.71993 0.0
C96 C 0.71639 0.29138 0.67075 0.0
C97 C 0.85629 0.1366 0.54731 0.0
C98 C 0.84367 0.18935 0.50569 0.0
C99 C 0.89475 0.12129 0.49272 0.0
C100 C 0.88564 0.10887 0.52447 0.0
C101 C 0.87496 0.16201 0.48277 0.0
C102 C 0.83463 0.17688 0.53747 0.0
C103 C 0.85097 0.12268 0.58105 0.0
O104 O 0.87396 0.12385 0.67914 0.0
O105 O 0.76682 0.09645 0.67002 0.0
O106 O 0.78602 0.11537 0.59245 0.0
O107 O 0.89358 0.14151 0.60184 0.0
H108 H 0.89942 0.03255 0.65779 0.0
H109 H 0.94531 0.96732 0.68157 0.0
H110 H 0.85384 1.00462 0.77178 0.0
H111 H 0.80798 0.06922 0.74773 0.0
H112 H 0.63067 0.2432 0.74619 0.0
H113 H 0.69365 0.19713 0.7075 0.0
H114 H 0.676 0.35077 0.68749 0.0
H115 H 0.73844 0.3053 0.64947 0.0
H116 H 0.82631 0.22071 0.49915 0.0
H117 H 0.9196 0.09934 0.47623 0.0
H118 H 0.90285 0.07758 0.53135 0.0
H119 H 0.81146 0.19887 0.55441 0.0
C120 C 0.6444 0.37801 0.05021 0.0
C121 C 0.6138 0.40511 0.02758 0.0
C122 C 0.62316 0.35099 0.98592 0.0
C123 C 0.6034 0.3919 0.99594 0.0
C124 C 0.65546 0.32421 1.00865 0.0
C125 C 0.6658 0.3375 0.04034 0.0
U126 U 0.6985 0.37026 0.14065 0.0
O127 O 0.79579 0.33001 0.14087 0.0
O128 O 0.68974 0.30217 0.15091 0.0
C129 C 0.76002 0.29615 0.14952 0.0
C130 C 0.65134 0.3928 0.08381 0.0
C131 C 0.79326 0.26988 0.17474 0.0
C132 C 0.84188 0.20147 0.18957 0.0
C133 C 0.80435 0.22696 0.16822 0.0
C134 C 0.85509 0.26061 0.22575 0.0
C135 C 0.86916 0.218 0.21829 0.0
C136 C 0.81769 0.28648 0.20402 0.0
C137 C 0.65854 0.46152 0.20304 0.0
C138 C 0.63893 0.50722 0.24907 0.0
C139 C 0.60083 0.53013 0.19705 0.0
C140 C 0.62671 0.4922 0.18369 0.0
C141 C 0.60601 0.53801 0.23003 0.0
C142 C 0.6648 0.46956 0.23572 0.0
C143 C 0.68502 0.42051 0.19058 0.0
O144 O 0.71683 0.4011 0.09447 0.0
O145 O 0.6109 0.3738 0.10496 0.0
O146 O 0.63609 0.39245 0.18207 0.0
O147 O 0.7415 0.42094 0.17171 0.0
H148 H 0.59671 0.43654 0.03453 0.0
H149 H 0.57772 0.41341 0.97958 0.0
H150 H 0.67274 0.29273 1.00201 0.0
H151 H 0.68987 0.31599 0.05718 0.0
H152 H 0.8515 0.16879 0.1831 0.0
H153 H 0.78596 0.21331 0.14595 0.0
H154 H 0.8761 0.27437 0.24751 0.0
H155 H 0.80974 0.31956 0.20963 0.0
H156 H 0.64394 0.51185 0.27446 0.0
H157 H 0.57583 0.55299 0.18155 0.0
H158 H 0.62131 0.4867 0.15841 0.0
H159 H 0.68923 0.44632 0.25112 0.0
C160 C 0.66876 0.55214 0.69747 0.0
C161 C 0.66913 0.51354 0.68068 0.0
C162 C 0.60668 0.4785 0.72445 0.0
C163 C 0.63796 0.47711 0.69399 0.0
C164 C 0.60512 0.51742 0.74068 0.0
C165 C 0.63584 0.55361 0.72742 0.0
U166 U 0.74073 0.63623 0.63597 0.0
O167 O 0.74233 0.70537 0.64335 0.0
O168 O 0.84443 0.67089 0.63922 0.0
C169 C 0.81331 0.70734 0.64551 0.0
C170 C 0.70587 0.59082 0.68598 0.0
C171 C 0.84523 0.7342 0.67161 0.0
C172 C 0.83941 0.79712 0.70585 0.0
C173 C 0.80658 0.76874 0.68432 0.0
C174 C 0.95025 0.75707 0.70308 0.0
C175 C 0.91197 0.79196 0.71537 0.0
C176 C 0.91759 0.72879 0.68145 0.0
C177 C 0.70493 0.61914 0.54381 0.0
C178 C 0.75565 0.65484 0.49782 0.0
C179 C 0.6668 0.59974 0.48989 0.0
C180 C 0.66222 0.59472 0.52293 0.0
C181 C 0.71447 0.62943 0.47663 0.0
C182 C 0.75116 0.64966 0.53092 0.0
C183 C 0.70232 0.61009 0.57845 0.0
O184 O 0.76669 0.58616 0.67023 0.0
O185 O 0.66515 0.62135 0.67491 0.0
O186 O 0.66155 0.63438 0.59641 0.0
O187 O 0.76336 0.59953 0.59238 0.0
H188 H 0.69432 0.51139 0.65757 0.0
H189 H 0.63985 0.44767 0.68078 0.0
H190 H 0.57962 0.52004 0.76367 0.0
H191 H 0.63477 0.58287 0.74091 0.0
H192 H 0.80846 0.82392 0.71424 0.0
H193 H 0.75135 0.77465 0.67693 0.0
H194 H 0.0061 0.75182 0.70986 0.0
H195 H 0.94981 0.70317 0.6719 0.0
H196 H 0.79204 0.67869 0.48885 0.0
H197 H 0.63473 0.5792 0.47475 0.0
H198 H 0.62625 0.57081 0.53221 0.0
H199 H 0.78456 0.66904 0.5464 0.0
C200 C 0.78692 0.86753 0.0397 0.0
C201 C 0.81035 0.90905 0.03456 0.0
C202 C 0.80845 0.89784 0.97672 0.0
C203 C 0.82106 0.92392 1.00358 0.0
C204 C 0.78862 0.8556 0.98203 0.0
C205 C 0.77778 0.84072 1.01313 0.0
U206 U 0.7741 0.87883 0.13197 0.0
O207 O 0.78528 0.83046 0.16934 0.0
O208 O 0.68259 0.86407 0.16358 0.0
C209 C 0.71813 0.83485 0.17918 0.0
C210 C 0.76714 0.85254 0.0721 0.0
C211 C 0.67726 0.79666 0.1902 0.0
C212 C 0.56431 0.76588 0.20994 0.0
C213 C 0.60161 0.7983 0.19428 0.0
C214 C 0.6766 0.72839 0.2173 0.0
C215 C 0.60131 0.73075 0.22223 0.0
C216 C 0.71409 0.76099 0.20182 0.0
C217 C 0.85583 0.98453 0.16867 0.0
C218 C 0.89677 1.0061 0.22169 0.0
C219 C 0.88849 0.05774 0.17999 0.0
C220 C 0.86348 0.02652 0.15898 0.0
C221 C 0.90633 0.04805 0.21157 0.0
C222 C 0.87199 0.97454 0.2004 0.0
C223 C 0.83618 0.95242 0.14412 0.0
O224 O 0.82047 0.84301 0.09147 0.0
O225 O 0.7151 0.87338 0.08651 0.0
O226 O 0.7674 0.94827 0.1367 0.0
O227 O 0.8713 0.91636 0.144 0.0
H228 H 0.81819 0.93042 0.05448 0.0
H229 H 0.837 0.95655 1.00059 0.0
H230 H 0.77771 0.83467 0.96214 0.0
H231 H 0.75972 0.80851 1.01636 0.0
H232 H 0.50644 0.76907 0.21321 0.0
H233 H 0.57122 0.82549 0.1864 0.0
H234 H 0.70691 0.70151 0.22572 0.0
H235 H 0.77239 0.75877 0.19979 0.0
H236 H 0.91085 0.99736 0.24566 0.0
H237 H 0.89469 0.08958 0.17125 0.0
H238 H 0.8517 0.03512 0.13468 0.0
H239 H 0.86698 0.94234 0.20851 0.0
C240 C 0.15776 0.96245 0.33449 0.0
C241 C 0.11752 0.9913 0.35265 0.0
C242 C 0.10373 0.03754 0.30654 0.0
C243 C 0.09104 0.02854 0.33885 0.0
C244 C 0.14517 1.0087 0.28875 0.0
C245 C 0.17181 0.97174 0.30258 0.0
U246 U 0.19785 0.87065 0.39604 0.0
O247 O 0.18591 0.80283 0.38434 0.0
O248 O 0.29354 0.8292 0.39395 0.0
C249 C 0.25602 0.79591 0.3849 0.0
C250 C 0.18332 0.92149 0.34708 0.0
C251 C 0.28676 0.76941 0.35889 0.0
C252 C 0.35257 0.75997 0.3089 0.0
C253 C 0.31656 0.78634 0.33098 0.0
C254 C 0.32708 0.6997 0.34183 0.0
C255 C 0.36006 0.71646 0.31467 0.0
C256 C 0.29078 0.72573 0.36349 0.0
C257 C 0.14805 0.87587 0.48746 0.0
C258 C 0.08568 0.83336 0.52726 0.0
C259 C 0.17616 0.88363 0.54434 0.0
C260 C 0.18724 0.89523 0.51244 0.0
C261 C 0.12523 0.85234 0.55236 0.0
C262 C 0.09686 0.84485 0.4955 0.0
C263 C 0.15473 0.89178 0.45403 0.0
O264 O 0.24056 0.9215 0.36568 0.0
O265 O 0.13389 0.89402 0.3556 0.0
O266 O 0.11213 0.87501 0.43224 0.0
O267 O 0.21987 0.89997 0.44312 0.0
H268 H 0.10578 0.98479 0.37728 0.0
H269 H 0.05947 0.0499 0.35344 0.0
H270 H 0.15631 0.0143 0.26394 0.0
H271 H 0.20262 0.94988 0.28806 0.0
H272 H 0.37826 0.77392 0.28845 0.0
H273 H 0.31423 0.81999 0.32684 0.0
H274 H 0.3318 0.66637 0.347 0.0
H275 H 0.26824 0.71181 0.38467 0.0
H276 H 0.04476 0.80983 0.53211 0.0
H277 H 0.20819 0.89892 0.56266 0.0
H278 H 0.22606 0.91987 0.50733 0.0
H279 H 0.06422 0.82976 0.47728 0.0
C280 C 0.36782 0.64454 0.98465 0.0
C281 C 0.3291 0.62604 1.00974 0.0
C282 C 0.39284 0.66975 0.0493 0.0
C283 C 0.34125 0.63847 0.04153 0.0
C284 C 0.43179 0.68798 0.02408 0.0
C285 C 0.41955 0.67564 0.99241 0.0
U286 U 0.31162 0.64785 0.89415 0.0
O287 O 0.32053 0.71564 0.88289 0.0
O288 O 0.21456 0.68828 0.89378 0.0
C289 C 0.25037 0.72191 0.88469 0.0
C290 C 0.35983 0.6278 0.95134 0.0
C291 C 0.21646 0.74816 0.85965 0.0
C292 C 0.16648 0.81642 0.8453 0.0
C293 C 0.20462 0.79093 0.86644 0.0
C294 C 0.15408 0.75756 0.80879 0.0
C295 C 0.13933 0.80001 0.81652 0.0
C296 C 0.19208 0.73169 0.83032 0.0
C297 C 0.35026 0.55532 0.83248 0.0
C298 C 0.36763 0.50891 0.78666 0.0
C299 C 0.41151 0.4877 0.83823 0.0
C300 C 0.38523 0.52554 0.8516 0.0
C301 C 0.40369 0.47904 0.80545 0.0
C302 C 0.3413 0.54645 0.80003 0.0
C303 C 0.32392 0.59643 0.84483 0.0
O304 O 0.40029 0.64476 0.9292 0.0
O305 O 0.29428 0.61859 0.94111 0.0
O306 O 0.26803 0.59626 0.86405 0.0
O307 O 0.37295 0.62472 0.85272 0.0
H308 H 0.28984 0.60141 1.00482 0.0
H309 H 0.30959 0.6238 0.05998 0.0
H310 H 0.47311 0.71148 0.02878 0.0
H311 H 0.45178 0.6901 0.97404 0.0
H312 H 0.15637 0.84898 0.85196 0.0
H313 H 0.22295 0.80447 0.88875 0.0
H314 H 0.1332 0.74391 0.78697 0.0
H315 H 0.20058 0.69871 0.82452 0.0
H316 H 0.36047 0.50366 0.76143 0.0
H317 H 0.43897 0.46558 0.85354 0.0
H318 H 0.39285 0.53171 0.8767 0.0
H319 H 0.31451 0.569 0.7848 0.0
Eu320 Eu 0.07719 0.14263 0.23107 0.0
C321 C 0.76377 0.10788 0.27622 0.0
N322 N 0.80302 0.14333 0.28244 0.0
C323 C 0.70213 0.18631 0.26704 0.0
C324 C 0.69292 0.11037 0.26378 0.0
C325 C 0.77163 0.1822 0.27988 0.0
C326 C 0.66309 0.15025 0.25837 0.0
C327 C 0.75082 0.03199 0.28125 0.0
C328 C 0.79222 0.06914 0.28474 0.0
C329 C 0.68191 0.03405 0.2672 0.0
C330 C 0.65307 0.07316 0.25841 0.0
Eu331 Eu 0.92324 0.13256 0.30083 0.0
N332 N 0.8592 0.06806 0.29803 0.0
C333 C 0.77894 0.99416 0.29303 0.0
C334 C 0.88467 0.03203 0.31169 0.0
C335 C 0.84552 0.99436 0.3089 0.0
H336 H 0.8001 0.21028 0.28763 0.0
H337 H 0.86677 0.96554 0.31886 0.0
H338 H 0.22164 0.09879 0.26464 0.0
H339 H 0.03626 0.30481 0.19027 0.0
H340 H 0.93628 0.03235 0.3238 0.0
H341 H 0.74873 0.96495 0.29086 0.0
H342 H 0.00923 0.22911 0.19388 0.0
H343 H 0.6784 0.21726 0.2642 0.0
H344 H 0.6496 1.00578 0.26392 0.0
H345 H 0.5989 0.07444 0.24854 0.0
H346 H 0.34123 0.12075 0.28588 0.0
H347 H 0.6089 0.15351 0.24879 0.0
H348 H 0.14758 0.33372 0.21494 0.0
N349 N 0.19128 0.16095 0.25184 0.0
C350 C 0.21111 0.20212 0.24956 0.0
C351 C 0.30497 0.14395 0.2759 0.0
C352 C 0.27844 0.21609 0.26148 0.0
C353 C 0.23736 0.13163 0.264 0.0
C354 C 0.32541 0.18642 0.27486 0.0
N355 N 0.09937 0.21561 0.2237 0.0
C356 C 0.05565 0.24145 0.20639 0.0
C357 C 0.18235 0.2733 0.23308 0.0
C358 C 0.16329 0.23034 0.23563 0.0
C359 C 0.13491 0.30052 0.21739 0.0
C360 C 0.07185 0.28436 0.20357 0.0
H361 H 0.37768 0.1959 0.28425 0.0
H362 H 0.34789 0.27044 0.26897 0.0
H363 H 0.26393 0.32051 0.24404 0.0
O364 O 0.11353 0.15416 0.18163 0.0
O365 O 0.09813 0.16653 0.28212 0.0
O366 O 0.98852 0.19321 0.29743 0.0
O367 O 0.13161 0.09314 0.20364 0.0
O368 O 0.96408 0.16723 0.22068 0.0
O369 O 0.91846 0.19125 0.2686 0.0
O370 O 0.95675 0.1241 0.35049 0.0
O371 O 0.93474 0.07879 0.26372 0.0
O372 O 0.96729 0.11466 0.21917 0.0
O373 O 0.85147 0.14876 0.34069 0.0
O374 O 0.03313 0.10161 0.30923 0.0
O375 O 0.08325 0.08236 0.26067 0.0
C376 C 0.05965 0.19451 0.29816 0.0
C377 C 0.1746 0.09954 0.14882 0.0
C378 C 0.20238 0.10095 0.09127 0.0
C379 C 0.23961 0.06257 0.09489 0.0
C380 C 0.2123 0.06119 0.15089 0.0
C381 C 0.24458 0.04311 0.12428 0.0
C382 C 0.17051 0.11986 0.11874 0.0
C383 C 0.91979 0.19145 0.23721 0.0
C384 C 0.13861 0.11606 0.17827 0.0
C385 C 0.29663 0.25903 0.25972 0.0
C386 C 0.24869 0.28756 0.2456 0.0
C387 C 0.938 0.08163 0.2326 0.0
C388 C 0.90243 0.1656 0.39143 0.0
C389 C 0.89102 0.17706 0.44948 0.0
C390 C 0.91388 0.21902 0.44493 0.0
C391 C 0.92444 0.20759 0.38814 0.0
C392 C 0.88594 0.15029 0.42222 0.0
C393 C 0.93026 0.23397 0.41468 0.0
C394 C 0.07162 0.07573 0.29127 0.0
C395 C 0.89673 0.13783 0.36283 0.0
H396 H 0.26607 0.0476 0.07486 0.0
H397 H 0.21695 0.04486 0.17326 0.0
H398 H 0.27364 0.01362 0.12645 0.0
H399 H 0.14142 0.14935 0.11657 0.0
H400 H 0.92054 0.24039 0.46489 0.0
H401 H 0.93718 0.21993 0.36495 0.0
H402 H 0.86848 0.11787 0.4248 0.0
H403 H 0.94794 0.2663 0.41182 0.0
Eu404 Eu 0.44119 0.37529 0.72891 0.0
C405 C 0.74512 0.40549 0.78491 0.0
N406 N 0.70423 0.37027 0.78898 0.0
C407 C 0.80579 0.3268 0.77498 0.0
C408 C 0.81722 0.4027 0.77415 0.0
C409 C 0.73506 0.33121 0.78625 0.0
C410 C 0.84657 0.36272 0.76823 0.0
C411 C 0.76015 0.48082 0.79355 0.0
C412 C 0.7171 0.4441 0.79439 0.0
C413 C 0.83027 0.47863 0.78087 0.0
C414 C 0.85871 0.43964 0.77113 0.0
Eu415 Eu 0.58208 0.38175 0.80444 0.0
N416 N 0.6491 0.44526 0.80642 0.0
C417 C 0.73249 0.51819 0.80671 0.0
C418 C 0.62408 0.48057 0.82164 0.0
C419 C 0.66483 0.51781 0.82148 0.0
H420 H 0.705 0.30321 0.79248 0.0
H421 H 0.64392 0.54619 0.83257 0.0
H422 H 0.29323 0.42373 0.75617 0.0
H423 H 0.4823 0.21021 0.69357 0.0
H424 H 0.57147 0.48015 0.83277 0.0
H425 H 0.76393 0.54707 0.80658 0.0
H426 H 0.51338 0.28547 0.69782 0.0
H427 H 0.82907 0.29572 0.77186 0.0
H428 H 0.86386 0.50661 0.77957 0.0
H429 H 0.91386 0.43816 0.76251 0.0
H430 H 0.16764 0.40537 0.77092 0.0
H431 H 0.90169 0.35922 0.7599 0.0
H432 H 0.3624 0.18528 0.71148 0.0
N433 N 0.32174 0.36066 0.74431 0.0
C434 C 0.29944 0.31997 0.74083 0.0
C435 C 0.2043 0.38104 0.76267 0.0
C436 C 0.22838 0.30808 0.749 0.0
C437 C 0.27545 0.39131 0.75453 0.0
C438 C 0.18072 0.33923 0.76003 0.0
N439 N 0.41683 0.30242 0.72198 0.0
C440 C 0.46323 0.27473 0.70777 0.0
C441 C 0.32719 0.24738 0.72666 0.0
C442 C 0.34864 0.28995 0.7299 0.0
C443 C 0.3768 0.21825 0.71435 0.0
C444 C 0.44471 0.23214 0.70442 0.0
H445 H 0.12565 0.33136 0.76651 0.0
H446 H 0.15321 0.25582 0.75264 0.0
H447 H 0.23953 0.20274 0.73301 0.0
O448 O 0.42922 0.36192 0.67815 0.0
O449 O 0.41194 0.34801 0.77804 0.0
O450 O 0.51863 0.32122 0.79691 0.0
O451 O 0.38209 0.41857 0.69743 0.0
O452 O 0.55664 0.35327 0.72163 0.0
O453 O 0.59141 0.32533 0.76961 0.0
O454 O 0.53959 0.38605 0.85305 0.0
O455 O 0.57449 0.43813 0.7708 0.0
O456 O 0.54829 0.40994 0.72171 0.0
O457 O 0.64887 0.36585 0.84592 0.0
O458 O 0.47109 0.41376 0.80921 0.0
O459 O 0.42955 0.43478 0.75947 0.0
C460 C 0.44766 0.31993 0.79499 0.0
C461 C 0.32999 0.38969 0.64943 0.0
C462 C 0.28384 0.38502 0.59428 0.0
C463 C 0.2146 0.37661 0.60668 0.0
C464 C 0.26038 0.38085 0.66064 0.0
C465 C 0.20326 0.37448 0.63939 0.0
C466 C 0.34155 0.39168 0.61618 0.0
C467 C 0.59767 0.32802 0.73845 0.0
C468 C 0.39142 0.3954 0.67198 0.0
C469 C 0.20745 0.2656 0.74628 0.0
C470 C 0.25672 0.23534 0.7352 0.0
C471 C 0.57614 0.43997 0.73963 0.0
C472 C 0.59389 0.34656 0.89484 0.0
C473 C 0.6066 0.33542 0.95265 0.0
C474 C 0.58412 0.29335 0.94773 0.0
C475 C 0.5721 0.30452 0.89106 0.0
C476 C 0.61098 0.362 0.92571 0.0
C477 C 0.56719 0.2782 0.91734 0.0
C478 C 0.43576 0.4403 0.79062 0.0
C479 C 0.59937 0.37446 0.8668 0.0
H480 H 0.16841 0.37236 0.59111 0.0
H481 H 0.2501 0.37882 0.68582 0.0
H482 H 0.14958 0.36796 0.64835 0.0
H483 H 0.39563 0.39783 0.60749 0.0
H484 H 0.57819 0.27208 0.96751 0.0
H485 H 0.55885 0.2921 0.86774 0.0
H486 H 0.62842 0.39446 0.92857 0.0
H487 H 0.54981 0.24579 0.91416 0.0
Eu488 Eu 0.0841 0.88566 0.73421 0.0
C489 C 0.79676 0.81569 0.78582 0.0
N490 N 0.8166 0.85685 0.78346 0.0
C491 C 0.70273 0.87382 0.75954 0.0
C492 C 0.72931 0.80172 0.77403 0.0
C493 C 0.77046 0.88616 0.77133 0.0
C494 C 0.68225 0.83138 0.76068 0.0
C495 C 0.8256 0.74453 0.80232 0.0
C496 C 0.84467 0.78748 0.7997 0.0
C497 C 0.75913 0.73027 0.78993 0.0
C498 C 0.71109 0.75879 0.77587 0.0
Eu499 Eu 0.9308 0.87519 0.8041 0.0
N500 N 0.90871 0.8022 0.8115 0.0
C501 C 0.87318 0.71732 0.81793 0.0
C502 C 0.95262 0.77636 0.82873 0.0
C503 C 0.93641 0.73346 0.83161 0.0
H504 H 0.78617 0.91899 0.77063 0.0
H505 H 0.97213 0.71301 0.84485 0.0
H506 H 0.20858 0.80862 0.74747 0.0
H507 H 0.13758 0.05293 0.7158 0.0
H508 H 0.99921 0.7887 0.84112 0.0
H509 H 0.8605 0.68412 0.82044 0.0
H510 H 0.06915 0.98573 0.71107 0.0
H511 H 0.66641 0.89702 0.74959 0.0
H512 H 0.74388 0.69733 0.79155 0.0
H513 H 0.65974 0.74738 0.76672 0.0
H514 H 0.33051 0.80244 0.77078 0.0
H515 H 0.6299 0.82189 0.75139 0.0
H516 H 0.25587 0.05425 0.74359 0.0
N517 N 0.20456 0.87557 0.7525 0.0
C518 C 0.24328 0.91128 0.75855 0.0
C519 C 0.30626 0.83324 0.76789 0.0
C520 C 0.31425 0.90925 0.77091 0.0
C521 C 0.2366 0.83689 0.75513 0.0
C522 C 0.34476 0.86956 0.7764 0.0
N523 N 0.14703 0.95052 0.73677 0.0
C524 C 0.12083 0.98637 0.72311 0.0
C525 C 0.25497 0.98723 0.75331 0.0
C526 C 0.21415 0.94984 0.74996 0.0
C527 C 0.22612 0.02486 0.74152 0.0
C528 C 0.15939 0.02425 0.72578 0.0
H529 H 0.39906 0.86665 0.78592 0.0
H530 H 0.40778 0.94575 0.78594 0.0
H531 H 0.35586 0.01406 0.77046 0.0
O532 O 0.04941 0.8925 0.6845 0.0
O533 O 0.07239 0.93936 0.77136 0.0
O534 O 0.0407 0.90321 0.81588 0.0
O535 O 0.15659 0.87085 0.69439 0.0
O536 O 0.97405 0.91642 0.72594 0.0
O537 O 0.92425 0.93552 0.77459 0.0
O538 O 0.89474 0.86362 0.85359 0.0
O539 O 0.90974 0.85115 0.7531 0.0
O540 O 0.01957 0.82479 0.73781 0.0
O541 O 0.87648 0.92462 0.8316 0.0
O542 O 0.04405 0.85061 0.81433 0.0
O543 O 0.08986 0.82692 0.76633 0.0
C544 C 0.06962 0.93636 0.80248 0.0
C545 C 0.10643 0.85108 0.64421 0.0
C546 C 0.11462 0.83798 0.58625 0.0
C547 C 0.10058 0.79501 0.59215 0.0
C548 C 0.09184 0.80821 0.64875 0.0
C549 C 0.08907 0.78048 0.62292 0.0
C550 C 0.11797 0.86596 0.61286 0.0
C551 C 0.93562 0.94221 0.74397 0.0
C552 C 0.11026 0.87999 0.67221 0.0
C553 C 0.35353 0.94669 0.77612 0.0
C554 C 0.324 0.9856 0.76728 0.0
C555 C 0.94845 0.82332 0.73701 0.0
C556 C 0.83373 0.91824 0.88645 0.0
C557 C 0.80594 0.91681 0.944 0.0
C558 C 0.76892 0.95526 0.94041 0.0
C559 C 0.79622 0.95666 0.88442 0.0
C560 C 0.83772 0.89787 0.91651 0.0
C561 C 0.76405 0.97476 0.91103 0.0
C562 C 0.08843 0.82653 0.79773 0.0
C563 C 0.86962 0.9017 0.85698 0.0
H564 H 0.09931 0.77216 0.57292 0.0
H565 H 0.08313 0.79614 0.67238 0.0
H566 H 0.07826 0.74734 0.62679 0.0
H567 H 0.12853 0.8992 0.60926 0.0
H568 H 0.74254 0.97025 0.96045 0.0
H569 H 0.79165 0.97303 0.86205 0.0
H570 H 0.86665 0.86832 0.91866 0.0
H571 H 0.73514 1.00431 0.90889 0.0
Eu572 Eu 0.42796 0.63489 0.23057 0.0
C573 C 0.70987 0.69707 0.29476 0.0
N574 N 0.68742 0.65642 0.29117 0.0
C575 C 0.80499 0.63589 0.27306 0.0
C576 C 0.7811 0.70885 0.28678 0.0
C577 C 0.73369 0.62571 0.28101 0.0
C578 C 0.82875 0.67765 0.27582 0.0
C579 C 0.6823 0.76968 0.30894 0.0
C580 C 0.66068 0.72715 0.3056 0.0
C581 C 0.75297 0.7816 0.30062 0.0
C582 C 0.80223 0.75129 0.28963 0.0
Eu583 Eu 0.56777 0.64196 0.30637 0.0
N584 N 0.59229 0.7148 0.3133 0.0
C585 C 0.63263 0.79889 0.32109 0.0
C586 C 0.54572 0.74258 0.3273 0.0
C587 C 0.56443 0.78514 0.33074 0.0
H588 H 0.71582 0.59332 0.2793 0.0
H589 H 0.52674 0.80714 0.34142 0.0
H590 H 0.30229 0.71193 0.24301 0.0
H591 H 0.37256 0.46996 0.20165 0.0
H592 H 0.49523 0.73196 0.33699 0.0
H593 H 0.64716 0.83183 0.32401 0.0
H594 H 0.44267 0.53685 0.202 0.0
H595 H 0.84164 0.61153 0.26487 0.0
H596 H 0.7703 0.81417 0.30289 0.0
H597 H 0.85661 0.76098 0.28344 0.0
H598 H 0.17785 0.71766 0.26346 0.0
H599 H 0.88394 0.68545 0.26949 0.0
H600 H 0.25203 0.46747 0.22712 0.0
N601 N 0.30536 0.64482 0.24596 0.0
C602 C 0.26559 0.60907 0.24961 0.0
C603 C 0.2022 0.6869 0.26012 0.0
C604 C 0.1933 0.61087 0.26023 0.0
C605 C 0.2732 0.68348 0.24897 0.0
C606 C 0.16255 0.65041 0.26644 0.0
N607 N 0.36329 0.57062 0.22814 0.0
C608 C 0.3899 0.53571 0.21293 0.0
C609 C 0.25325 0.53366 0.24044 0.0
C610 C 0.29502 0.57089 0.23992 0.0
C611 C 0.28246 0.49672 0.22723 0.0
C612 C 0.35043 0.49801 0.21276 0.0
H613 H 0.10724 0.65315 0.27468 0.0
H614 H 0.09774 0.57414 0.27138 0.0
H615 H 0.15028 0.5065 0.25399 0.0
O616 O 0.47099 0.63177 0.18197 0.0
O617 O 0.43568 0.57872 0.2644 0.0
O618 O 0.4605 0.60745 0.31343 0.0
O619 O 0.36065 0.64985 0.18914 0.0
O620 O 0.53956 0.6036 0.22609 0.0
O621 O 0.5799 0.5824 0.27592 0.0
O622 O 0.57949 0.65549 0.35713 0.0
O623 O 0.59731 0.66952 0.25737 0.0
O624 O 0.49042 0.69575 0.23827 0.0
O625 O 0.62628 0.59864 0.33802 0.0
O626 O 0.45224 0.66411 0.31335 0.0
O627 O 0.41713 0.69146 0.26517 0.0
C628 C 0.43318 0.57719 0.29557 0.0
C629 C 0.41496 0.67159 0.14082 0.0
C630 C 0.40513 0.68447 0.08314 0.0
C631 C 0.42032 0.72737 0.08937 0.0
C632 C 0.43055 0.71436 0.14583 0.0
C633 C 0.43309 0.74197 0.12027 0.0
C634 C 0.40215 0.65668 0.10941 0.0
C635 C 0.5743 0.57691 0.24475 0.0
C636 C 0.41075 0.6426 0.16825 0.0
C637 C 0.15302 0.57342 0.26287 0.0
C638 C 0.1829 0.53489 0.25294 0.0
C639 C 0.56136 0.69738 0.2403 0.0
C640 C 0.67845 0.62756 0.38597 0.0
C641 C 0.72461 0.63217 0.44112 0.0
C642 C 0.79394 0.64031 0.42872 0.0
C643 C 0.74815 0.63613 0.37476 0.0
C644 C 0.66684 0.62567 0.41922 0.0
C645 C 0.80533 0.64234 0.396 0.0
C646 C 0.41115 0.68915 0.29636 0.0
C647 C 0.61701 0.62194 0.36341 0.0
H648 H 0.42148 0.75008 0.07034 0.0
H649 H 0.44021 0.72641 0.16958 0.0
H650 H 0.44467 0.77506 0.12445 0.0
H651 H 0.39079 0.62349 0.10552 0.0
H652 H 0.84017 0.64441 0.44428 0.0
H653 H 0.75849 0.63806 0.34958 0.0
H654 H 0.6127 0.61972 0.42791 0.0
H655 H 0.85908 0.64864 0.38704 0.0
loop_
_geom_bond_atom_site_label_1
_geom_bond_atom_site_label_2
_geom_bond_distance
_geom_bond_site_symmetry_2
_ccdc_geom_bond_type
C0 C1 1.264 . S
C0 C5 1.479 . S
C0 C10 1.465 . S
C1 C0 1.264 . S
C1 C3 1.339 . S
C1 H28 0.931 . S
C2 C3 1.395 . S
C2 C4 1.320 . S
C3 C1 1.339 . S
C3 C2 1.395 . S
C3 H29 0.929 . S
C4 C2 1.320 . S
C4 C5 1.405 . S
C4 H30 0.930 . S
C5 C0 1.479 . S
C5 C4 1.405 . S
C5 H31 0.931 . S
U6 O7 2.454 . S
U6 O8 2.458 . S
U6 C9 2.984 . S
U6 C10 2.847 . S
U6 C23 2.882 . S
U6 O24 2.441 . S
U6 O25 2.420 . S
U6 O26 2.455 . S
U6 O27 2.449 . S
O7 U6 2.454 . S
O7 C9 1.353 . S
O8 U6 2.458 . S
O8 C9 1.286 . S
C9 U6 2.984 . S
C9 O7 1.353 . S
C9 O8 1.286 . S
C9 C11 1.363 . S
C10 C0 1.465 . S
C10 U6 2.847 . S
C10 O24 1.249 . S
C10 O25 1.202 . S
C11 C9 1.363 . S
C11 C13 1.408 . S
C11 C16 1.342 . S
C12 C13 1.310 . S
C12 C15 1.461 . S
C12 H32 0.932 . S
C13 C11 1.408 . S
C13 C12 1.310 . S
C13 H33 0.930 . S
C14 C15 1.474 . S
C14 C16 1.285 . S
C14 H34 0.929 . S
C15 C12 1.461 . S
C15 C14 1.474 . S
C16 C11 1.342 . S
C16 C14 1.285 . S
C16 H35 0.930 . S
C17 C20 1.424 . S
C17 C22 1.245 . S
C17 C23 1.428 . S
C18 C21 1.260 . S
C18 C22 1.477 . S
C18 H36 0.932 . S
C19 C20 1.384 . S
C19 C21 1.479 . S
C19 H37 0.929 . S
C20 C17 1.424 . S
C20 C19 1.384 . S
C20 H38 0.928 . S
C21 C18 1.260 . S
C21 C19 1.479 . S
C22 C17 1.245 . S
C22 C18 1.477 . S
C22 H39 0.932 . S
C23 U6 2.882 . S
C23 C17 1.428 . S
C23 O26 1.301 . S
C23 O27 1.282 . S
O24 U6 2.441 . S
O24 C10 1.249 . S
O25 U6 2.420 . S
O25 C10 1.202 . S
O26 U6 2.455 . S
O26 C23 1.301 . S
O27 U6 2.449 . S
O27 C23 1.282 . S
H28 C1 0.931 . S
H29 C3 0.929 . S
H30 C4 0.930 . S
H31 C5 0.931 . S
H32 C12 0.932 . S
H33 C13 0.930 . S
H34 C14 0.929 . S
H35 C16 0.930 . S
H36 C18 0.932 . S
H37 C19 0.929 . S
H38 C20 0.928 . S
H39 C22 0.932 . S
C40 C41 1.264 . S
C40 C45 1.479 1_556 S
C40 C50 1.465 . S
C41 C40 1.264 . S
C41 C43 1.339 1_556 S
C41 H68 0.931 . S
C42 C43 1.395 . S
C42 C44 1.320 . S
C43 C41 1.339 1_554 S
C43 C42 1.395 . S
C43 H69 0.929 . S
C44 C42 1.320 . S
C44 C45 1.405 . S
C44 H70 0.930 . S
C45 C40 1.479 1_554 S
C45 C44 1.405 . S
C45 H71 0.931 1_554 S
U46 O47 2.454 . S
U46 O48 2.458 . S
U46 C49 2.984 . S
U46 C50 2.847 . S
U46 C63 2.882 . S
U46 O64 2.441 . S
U46 O65 2.420 . S
U46 O66 2.455 . S
U46 O67 2.449 . S
O47 U46 2.454 . S
O47 C49 1.353 . S
O48 U46 2.458 . S
O48 C49 1.286 . S
C49 U46 2.984 . S
C49 O47 1.353 . S
C49 O48 1.286 . S
C49 C51 1.363 . S
C50 C40 1.465 . S
C50 U46 2.847 . S
C50 O64 1.249 . S
C50 O65 1.202 . S
C51 C49 1.363 . S
C51 C53 1.408 . S
C51 C56 1.342 . S
C52 C53 1.310 . S
C52 C55 1.461 . S
C52 H72 0.932 . S
C53 C51 1.408 . S
C53 C52 1.310 . S
C53 H73 0.930 . S
C54 C55 1.474 . S
C54 C56 1.285 . S
C54 H74 0.929 . S
C55 C52 1.461 . S
C55 C54 1.474 . S
C56 C51 1.342 . S
C56 C54 1.285 . S
C56 H75 0.930 . S
C57 C60 1.424 1_545 S
C57 C62 1.245 . S
C57 C63 1.428 . S
C58 C61 1.260 . S
C58 C62 1.477 1_565 S
C58 H76 0.932 . S
C59 C60 1.384 . S
C59 C61 1.479 . S
C59 H77 0.929 . S
C60 C57 1.424 1_565 S
C60 C59 1.384 . S
C60 H78 0.928 . S
C61 C58 1.260 . S
C61 C59 1.479 . S
C62 C57 1.245 . S
C62 C58 1.477 1_545 S
C62 H79 0.932 . S
C63 U46 2.882 . S
C63 C57 1.428 . S
C63 O66 1.301 . S
C63 O67 1.282 . S
O64 U46 2.441 . S
O64 C50 1.249 . S
O65 U46 2.420 . S
O65 C50 1.202 . S
O66 U46 2.455 . S
O66 C63 1.301 . S
O67 U46 2.449 . S
O67 C63 1.282 . S
H68 C41 0.931 . S
H69 C43 0.929 . S
H70 C44 0.930 . S
H71 C45 0.931 1_556 S
H72 C52 0.932 . S
H73 C53 0.930 . S
H74 C54 0.929 . S
H75 C56 0.930 . S
H76 C58 0.932 . S
H77 C59 0.929 . S
H78 C60 0.928 . S
H79 C62 0.932 . S
C80 C81 1.254 1_545 S
C80 C85 1.478 1_545 S
C80 C90 1.475 . S
C81 C80 1.254 1_565 S
C81 C83 1.339 . S
C81 H108 0.931 . S
C82 C83 1.395 . S
C82 C84 1.320 . S
C83 C81 1.339 . S
C83 C82 1.395 . S
C83 H109 0.929 . S
C84 C82 1.320 . S
C84 C85 1.407 . S
C84 H110 0.930 . S
C85 C80 1.478 1_565 S
C85 C84 1.407 . S
C85 H111 0.929 1_565 S
U86 O87 2.454 . S
U86 O88 2.458 . S
U86 C89 2.984 . S
U86 C90 2.847 . S
U86 C103 2.882 . S
U86 O104 2.441 . S
U86 O105 2.420 . S
U86 O106 2.455 . S
U86 O107 2.449 . S
O87 U86 2.454 . S
O87 C89 1.353 . S
O88 U86 2.458 . S
O88 C89 1.286 . S
C89 U86 2.984 . S
C89 O87 1.353 . S
C89 O88 1.286 . S
C89 C91 1.363 . S
C90 C80 1.475 . S
C90 U86 2.847 . S
C90 O104 1.249 . S
C90 O105 1.202 . S
C91 C89 1.363 . S
C91 C93 1.408 . S
C91 C96 1.342 . S
C92 C93 1.310 . S
C92 C95 1.461 . S
C92 H112 0.932 . S
C93 C91 1.408 . S
C93 C92 1.310 . S
C93 H113 0.930 . S
C94 C95 1.474 . S
C94 C96 1.285 . S
C94 H114 0.929 . S
C95 C92 1.461 . S
C95 C94 1.474 . S
C96 C91 1.342 . S
C96 C94 1.285 . S
C96 H115 0.930 . S
C97 C100 1.424 . S
C97 C102 1.245 . S
C97 C103 1.428 . S
C98 C101 1.260 . S
C98 C102 1.477 . S
C98 H116 0.932 . S
C99 C100 1.384 . S
C99 C101 1.479 . S
C99 H117 0.929 . S
C100 C97 1.424 . S
C100 C99 1.384 . S
C100 H118 0.928 . S
C101 C98 1.260 . S
C101 C99 1.479 . S
C102 C97 1.245 . S
C102 C98 1.477 . S
C102 H119 0.932 . S
C103 U86 2.882 . S
C103 C97 1.428 . S
C103 O106 1.301 . S
C103 O107 1.282 . S
O104 U86 2.441 . S
O104 C90 1.249 . S
O105 U86 2.420 . S
O105 C90 1.202 . S
O106 U86 2.455 . S
O106 C103 1.301 . S
O107 U86 2.449 . S
O107 C103 1.282 . S
H108 C81 0.931 . S
H109 C83 0.929 . S
H110 C84 0.930 . S
H111 C85 0.929 1_545 S
H112 C92 0.932 . S
H113 C93 0.930 . S
H114 C94 0.929 . S
H115 C96 0.930 . S
H116 C98 0.932 . S
H117 C99 0.929 . S
H118 C100 0.928 . S
H119 C102 0.932 . S
C120 C121 1.264 . S
C120 C125 1.479 1_554 S
C120 C130 1.465 . S
C121 C120 1.264 . S
C121 C123 1.339 1_554 S
C121 H148 0.931 . S
C122 C123 1.395 . S
C122 C124 1.320 . S
C123 C121 1.339 1_556 S
C123 C122 1.395 . S
C123 H149 0.929 . S
C124 C122 1.320 . S
C124 C125 1.405 . S
C124 H150 0.930 . S
C125 C120 1.479 1_556 S
C125 C124 1.405 . S
C125 H151 0.931 1_556 S
U126 O127 2.454 . S
U126 O128 2.458 . S
U126 C129 2.984 . S
U126 C130 2.847 . S
U126 C143 2.882 . S
U126 O144 2.441 . S
U126 O145 2.420 . S
U126 O146 2.455 . S
U126 O147 2.449 . S
O127 U126 2.454 . S
O127 C129 1.353 . S
O128 U126 2.458 . S
O128 C129 1.286 . S
C129 U126 2.984 . S
C129 O127 1.353 . S
C129 O128 1.286 . S
C129 C131 1.363 . S
C130 C120 1.465 . S
C130 U126 2.847 . S
C130 O144 1.249 . S
C130 O145 1.202 . S
C131 C129 1.363 . S
C131 C133 1.408 . S
C131 C136 1.342 . S
C132 C133 1.310 . S
C132 C135 1.461 . S
C132 H152 0.932 . S
C133 C131 1.408 . S
C133 C132 1.310 . S
C133 H153 0.930 . S
C134 C135 1.474 . S
C134 C136 1.285 . S
C134 H154 0.929 . S
C135 C132 1.461 . S
C135 C134 1.474 . S
C136 C131 1.342 . S
C136 C134 1.285 . S
C136 H155 0.930 . S
C137 C140 1.424 . S
C137 C142 1.245 . S
C137 C143 1.428 . S
C138 C141 1.260 . S
C138 C142 1.477 . S
C138 H156 0.932 . S
C139 C140 1.384 . S
C139 C141 1.479 . S
C139 H157 0.929 . S
C140 C137 1.424 . S
C140 C139 1.384 . S
C140 H158 0.928 . S
C141 C138 1.260 . S
C141 C139 1.479 . S
C142 C137 1.245 . S
C142 C138 1.477 . S
C142 H159 0.932 . S
C143 U126 2.882 . S
C143 C137 1.428 . S
C143 O146 1.301 . S
C143 O147 1.282 . S
O144 U126 2.441 . S
O144 C130 1.249 . S
O145 U126 2.420 . S
O145 C130 1.202 . S
O146 U126 2.455 . S
O146 C143 1.301 . S
O147 U126 2.449 . S
O147 C143 1.282 . S
H148 C121 0.931 . S
H149 C123 0.929 . S
H150 C124 0.930 . S
H151 C125 0.931 1_554 S
H152 C132 0.932 . S
H153 C133 0.930 . S
H154 C134 0.929 . S
H155 C136 0.930 . S
H156 C138 0.932 . S
H157 C139 0.929 . S
H158 C140 0.928 . S
H159 C142 0.932 . S
C160 C161 1.264 . S
C160 C165 1.479 . S
C160 C170 1.465 . S
C161 C160 1.264 . S
C161 C163 1.339 . S
C161 H188 0.931 . S
C162 C163 1.395 . S
C162 C164 1.320 . S
C163 C161 1.339 . S
C163 C162 1.395 . S
C163 H189 0.929 . S
C164 C162 1.320 . S
C164 C165 1.405 . S
C164 H190 0.930 . S
C165 C160 1.479 . S
C165 C164 1.405 . S
C165 H191 0.931 . S
U166 O167 2.454 . S
U166 O168 2.458 . S
U166 C169 2.984 . S
U166 C170 2.847 . S
U166 C183 2.882 . S
U166 O184 2.441 . S
U166 O185 2.420 . S
U166 O186 2.455 . S
U166 O187 2.449 . S
O167 U166 2.454 . S
O167 C169 1.353 . S
O168 U166 2.458 . S
O168 C169 1.286 . S
C169 U166 2.984 . S
C169 O167 1.353 . S
C169 O168 1.286 . S
C169 C171 1.363 . S
C170 C160 1.465 . S
C170 U166 2.847 . S
C170 O184 1.249 . S
C170 O185 1.202 . S
C171 C169 1.363 . S
C171 C173 1.408 . S
C171 C176 1.342 . S
C172 C173 1.310 . S
C172 C175 1.461 . S
C172 H192 0.932 . S
C173 C171 1.408 . S
C173 C172 1.310 . S
C173 H193 0.930 . S
C174 C175 1.474 . S
C174 C176 1.285 . S
C174 H194 0.929 . S
C175 C172 1.461 . S
C175 C174 1.474 . S
C176 C171 1.342 . S
C176 C174 1.285 . S
C176 H195 0.930 . S
C177 C180 1.424 . S
C177 C182 1.245 . S
C177 C183 1.428 . S
C178 C181 1.260 . S
C178 C182 1.477 . S
C178 H196 0.932 . S
C179 C180 1.384 . S
C179 C181 1.479 . S
C179 H197 0.929 . S
C180 C177 1.424 . S
C180 C179 1.384 . S
C180 H198 0.928 . S
C181 C178 1.260 . S
C181 C179 1.479 . S
C182 C177 1.245 . S
C182 C178 1.477 . S
C182 H199 0.932 . S
C183 U166 2.882 . S
C183 C177 1.428 . S
C183 O186 1.301 . S
C183 O187 1.282 . S
O184 U166 2.441 . S
O184 C170 1.249 . S
O185 U166 2.420 . S
O185 C170 1.202 . S
O186 U166 2.455 . S
O186 C183 1.301 . S
O187 U166 2.449 . S
O187 C183 1.282 . S
H188 C161 0.931 . S
H189 C163 0.929 . S
H190 C164 0.930 . S
H191 C165 0.931 . S
H192 C172 0.932 . S
H193 C173 0.930 . S
H194 C174 0.929 . S
H195 C176 0.930 . S
H196 C178 0.932 . S
H197 C179 0.929 . S
H198 C180 0.928 . S
H199 C182 0.932 . S
C200 C201 1.264 1_554 S
C200 C205 1.479 1_554 S
C200 C210 1.465 . S
C201 C200 1.264 1_556 S
C201 C203 1.339 . S
C201 H228 0.931 1_556 S
C202 C203 1.395 . S
C202 C204 1.320 . S
C203 C201 1.339 . S
C203 C202 1.395 . S
C203 H229 0.929 . S
C204 C202 1.320 . S
C204 C205 1.405 . S
C204 H230 0.930 . S
C205 C200 1.479 1_556 S
C205 C204 1.405 . S
C205 H231 0.931 . S
U206 O207 2.454 . S
U206 O208 2.458 . S
U206 C209 2.984 . S
U206 C210 2.847 . S
U206 C223 2.882 . S
U206 O224 2.441 . S
U206 O225 2.420 . S
U206 O226 2.455 . S
U206 O227 2.449 . S
O207 U206 2.454 . S
O207 C209 1.353 . S
O208 U206 2.458 . S
O208 C209 1.286 . S
C209 U206 2.984 . S
C209 O207 1.353 . S
C209 O208 1.286 . S
C209 C211 1.363 . S
C210 C200 1.465 . S
C210 U206 2.847 . S
C210 O224 1.249 . S
C210 O225 1.202 . S
C211 C209 1.363 . S
C211 C213 1.408 . S
C211 C216 1.342 . S
C212 C213 1.310 . S
C212 C215 1.461 . S
C212 H232 0.932 . S
C213 C211 1.408 . S
C213 C212 1.310 . S
C213 H233 0.930 . S
C214 C215 1.474 . S
C214 C216 1.285 . S
C214 H234 0.929 . S
C215 C212 1.461 . S
C215 C214 1.474 . S
C216 C211 1.342 . S
C216 C214 1.285 . S
C216 H235 0.930 . S
C217 C220 1.424 1_565 S
C217 C222 1.245 . S
C217 C223 1.428 . S
C218 C221 1.260 . S
C218 C222 1.477 1_545 S
C218 H236 0.932 . S
C219 C220 1.384 . S
C219 C221 1.479 . S
C219 H237 0.929 . S
C220 C217 1.424 1_545 S
C220 C219 1.384 . S
C220 H238 0.928 . S
C221 C218 1.260 . S
C221 C219 1.479 . S
C222 C217 1.245 . S
C222 C218 1.477 1_565 S
C222 H239 0.932 . S
C223 U206 2.882 . S
C223 C217 1.428 . S
C223 O226 1.301 . S
C223 O227 1.282 . S
O224 U206 2.441 . S
O224 C210 1.249 . S
O225 U206 2.420 . S
O225 C210 1.202 . S
O226 U206 2.455 . S
O226 C223 1.301 . S
O227 U206 2.449 . S
O227 C223 1.282 . S
H228 C201 0.931 1_554 S
H229 C203 0.929 . S
H230 C204 0.930 . S
H231 C205 0.931 . S
H232 C212 0.932 . S
H233 C213 0.930 . S
H234 C214 0.929 . S
H235 C216 0.930 . S
H236 C218 0.932 . S
H237 C219 0.929 . S
H238 C220 0.928 . S
H239 C222 0.932 . S
C240 C241 1.264 1_565 S
C240 C245 1.479 . S
C240 C250 1.465 . S
C241 C240 1.264 1_545 S
C241 C243 1.339 . S
C241 H268 0.931 . S
C242 C243 1.395 . S
C242 C244 1.320 . S
C243 C241 1.339 . S
C243 C242 1.395 . S
C243 H269 0.929 . S
C244 C242 1.320 . S
C244 C245 1.405 1_545 S
C244 H270 0.930 . S
C245 C240 1.479 . S
C245 C244 1.405 1_565 S
C245 H271 0.931 . S
U246 O247 2.454 . S
U246 O248 2.458 . S
U246 C249 2.984 . S
U246 C250 2.847 . S
U246 C263 2.882 . S
U246 O264 2.441 . S
U246 O265 2.420 . S
U246 O266 2.455 . S
U246 O267 2.449 . S
O247 U246 2.454 . S
O247 C249 1.353 . S
O248 U246 2.458 . S
O248 C249 1.286 . S
C249 U246 2.984 . S
C249 O247 1.353 . S
C249 O248 1.286 . S
C249 C251 1.363 . S
C250 C240 1.465 . S
C250 U246 2.847 . S
C250 O264 1.249 . S
C250 O265 1.202 . S
C251 C249 1.363 . S
C251 C253 1.408 . S
C251 C256 1.342 . S
C252 C253 1.310 . S
C252 C255 1.461 . S
C252 H272 0.932 . S
C253 C251 1.408 . S
C253 C252 1.310 . S
C253 H273 0.930 . S
C254 C255 1.474 . S
C254 C256 1.285 . S
C254 H274 0.929 . S
C255 C252 1.461 . S
C255 C254 1.474 . S
C256 C251 1.342 . S
C256 C254 1.285 . S
C256 H275 0.930 . S
C257 C260 1.424 . S
C257 C262 1.245 . S
C257 C263 1.428 . S
C258 C261 1.260 . S
C258 C262 1.477 . S
C258 H276 0.932 . S
C259 C260 1.384 . S
C259 C261 1.479 . S
C259 H277 0.929 . S
C260 C257 1.424 . S
C260 C259 1.384 . S
C260 H278 0.928 . S
C261 C258 1.260 . S
C261 C259 1.479 . S
C262 C257 1.245 . S
C262 C258 1.477 . S
C262 H279 0.932 . S
C263 U246 2.882 . S
C263 C257 1.428 . S
C263 O266 1.301 . S
C263 O267 1.282 . S
O264 U246 2.441 . S
O264 C250 1.249 . S
O265 U246 2.420 . S
O265 C250 1.202 . S
O266 U246 2.455 . S
O266 C263 1.301 . S
O267 U246 2.449 . S
O267 C263 1.282 . S
H268 C241 0.931 . S
H269 C243 0.929 . S
H270 C244 0.930 . S
H271 C245 0.931 . S
H272 C252 0.932 . S
H273 C253 0.930 . S
H274 C254 0.929 . S
H275 C256 0.930 . S
H276 C258 0.932 . S
H277 C259 0.929 . S
H278 C260 0.928 . S
H279 C262 0.932 . S
C280 C281 1.264 1_556 S
C280 C285 1.479 1_556 S
C280 C290 1.465 . S
C281 C280 1.264 1_554 S
C281 C283 1.339 . S
C281 H308 0.931 1_554 S
C282 C283 1.395 . S
C282 C284 1.320 . S
C283 C281 1.339 . S
C283 C282 1.395 . S
C283 H309 0.929 . S
C284 C282 1.320 . S
C284 C285 1.405 . S
C284 H310 0.930 . S
C285 C280 1.479 1_554 S
C285 C284 1.405 . S
C285 H311 0.924 1_554 S
U286 O287 2.454 . S
U286 O288 2.458 . S
U286 C289 2.984 . S
U286 C290 2.847 . S
U286 C303 2.882 . S
U286 O304 2.441 . S
U286 O305 2.420 . S
U286 O306 2.455 . S
U286 O307 2.449 . S
O287 U286 2.454 . S
O287 C289 1.353 . S
O288 U286 2.458 . S
O288 C289 1.286 . S
C289 U286 2.984 . S
C289 O287 1.353 . S
C289 O288 1.286 . S
C289 C291 1.363 . S
C290 C280 1.465 . S
C290 U286 2.847 . S
C290 O304 1.249 . S
C290 O305 1.202 . S
C291 C289 1.363 . S
C291 C293 1.408 . S
C291 C296 1.342 . S
C292 C293 1.310 . S
C292 C295 1.461 . S
C292 H312 0.932 . S
C293 C291 1.408 . S
C293 C292 1.310 . S
C293 H313 0.930 . S
C294 C295 1.474 . S
C294 C296 1.285 . S
C294 H314 0.929 . S
C295 C292 1.461 . S
C295 C294 1.474 . S
C296 C291 1.342 . S
C296 C294 1.285 . S
C296 H315 0.930 . S
C297 C300 1.424 . S
C297 C302 1.245 . S
C297 C303 1.428 . S
C298 C301 1.260 . S
C298 C302 1.477 . S
C298 H316 0.932 . S
C299 C300 1.384 . S
C299 C301 1.479 . S
C299 H317 0.929 . S
C300 C297 1.424 . S
C300 C299 1.384 . S
C300 H318 0.928 . S
C301 C298 1.260 . S
C301 C299 1.479 . S
C302 C297 1.245 . S
C302 C298 1.477 . S
C302 H319 0.932 . S
C303 U286 2.882 . S
C303 C297 1.428 . S
C303 O306 1.301 . S
C303 O307 1.282 . S
O304 U286 2.441 . S
O304 C290 1.249 . S
O305 U286 2.420 . S
O305 C290 1.202 . S
O306 U286 2.455 . S
O306 C303 1.301 . S
O307 U286 2.449 . S
O307 C303 1.282 . S
H308 C281 0.931 1_556 S
H309 C283 0.929 . S
H310 C284 0.930 . S
H311 C285 0.924 1_556 S
H312 C292 0.932 . S
H313 C293 0.930 . S
H314 C294 0.929 . S
H315 C296 0.930 . S
H316 C298 0.932 . S
H317 C299 0.929 . S
H318 C300 0.928 . S
H319 C302 0.932 . S
Eu320 N349 2.600 . S
Eu320 N355 2.562 . S
Eu320 O364 2.462 . S
Eu320 O365 2.373 . S
Eu320 O367 2.432 . S
Eu320 O368 2.291 . S
Eu320 O372 2.335 . S
Eu320 O375 2.372 . S
Eu320 C384 2.787 . S
C321 N322 1.365 . S
C321 C324 1.405 . S
C321 C328 1.448 . S
N322 C321 1.365 . S
N322 C325 1.319 . S
N322 Eu331 2.600 . S
C323 C325 1.397 . S
C323 C326 1.367 . S
C323 H343 0.931 . S
C324 C321 1.405 . S
C324 C326 1.403 . S
C324 C330 1.439 . S
C325 N322 1.319 . S
C325 C323 1.397 . S
C325 H336 0.930 . S
C326 C323 1.367 . S
C326 C324 1.403 . S
C326 H347 0.929 . S
C327 C328 1.430 . S
C327 C329 1.387 . S
C327 C333 1.404 1_545 S
C328 C321 1.448 . S
C328 C327 1.430 . S
C328 N332 1.351 . S
C329 C327 1.387 . S
C329 C330 1.374 . S
C329 H344 0.931 . S
C330 C324 1.439 . S
C330 C329 1.374 . S
C330 H345 0.931 . S
Eu331 N322 2.600 . S
Eu331 N332 2.562 . S
Eu331 O366 2.335 1_655 S
Eu331 O369 2.372 . S
Eu331 O370 2.462 . S
Eu331 O371 2.373 . S
Eu331 O373 2.432 . S
Eu331 O374 2.291 1_655 S
Eu331 C395 2.787 . S
N332 C328 1.351 . S
N332 Eu331 2.562 . S
N332 C334 1.325 . S
C333 C327 1.404 1_565 S
C333 C335 1.366 . S
C333 H341 0.930 . S
C334 N332 1.325 . S
C334 C335 1.416 1_545 S
C334 H340 0.929 . S
C335 C333 1.366 . S
C335 C334 1.416 1_565 S
C335 H337 0.930 . S
H336 C325 0.930 . S
H337 C335 0.930 . S
H338 C353 0.930 . S
H339 C360 0.930 . S
H340 C334 0.929 . S
H341 C333 0.930 . S
H342 C356 0.929 . S
H343 C323 0.931 . S
H344 C329 0.931 . S
H345 C330 0.931 . S
H346 C351 0.931 . S
H347 C326 0.929 . S
H348 C359 0.930 . S
N349 Eu320 2.600 . S
N349 C350 1.365 . S
N349 C353 1.319 . S
C350 N349 1.365 . S
C350 C352 1.405 . S
C350 C358 1.448 . S
C351 H346 0.931 . S
C351 C353 1.397 . S
C351 C354 1.367 . S
C352 C350 1.405 . S
C352 C354 1.403 . S
C352 C385 1.439 . S
C353 H338 0.930 . S
C353 N349 1.319 . S
C353 C351 1.397 . S
C354 C351 1.367 . S
C354 C352 1.403 . S
C354 H361 0.929 . S
N355 Eu320 2.562 . S
N355 C356 1.325 . S
N355 C358 1.351 . S
C356 H342 0.929 . S
C356 N355 1.325 . S
C356 C360 1.416 . S
C357 C358 1.430 . S
C357 C359 1.404 . S
C357 C386 1.387 . S
C358 C350 1.448 . S
C358 N355 1.351 . S
C358 C357 1.430 . S
C359 H348 0.930 . S
C359 C357 1.404 . S
C359 C360 1.366 . S
C360 H339 0.930 . S
C360 C356 1.416 . S
C360 C359 1.366 . S
H361 C354 0.929 . S
H362 C385 0.931 . S
H363 C386 0.931 . S
O364 Eu320 2.462 . S
O364 C384 1.252 . S
O365 Eu320 2.373 . S
O365 C376 1.249 . S
O366 Eu331 2.335 1_455 S
O366 C376 1.264 . S
O367 Eu320 2.432 . S
O367 C384 1.268 . S
O368 Eu320 2.291 . S
O368 C383 1.255 1_455 S
O369 Eu331 2.372 . S
O369 C383 1.257 . S
O370 Eu331 2.462 . S
O370 C395 1.252 . S
O371 Eu331 2.373 . S
O371 C387 1.249 . S
O372 Eu320 2.335 . S
O372 C387 1.264 1_455 S
O373 Eu331 2.432 . S
O373 C395 1.268 . S
O374 Eu331 2.291 1_455 S
O374 C394 1.255 . S
O375 Eu320 2.372 . S
O375 C394 1.257 . S
C376 O365 1.249 . S
C376 O366 1.264 . S
C377 C380 1.382 . S
C377 C382 1.390 . S
C377 C384 1.506 . S
C378 C379 1.398 . S
C378 C382 1.392 . S
C379 C378 1.398 . S
C379 C381 1.372 . S
C379 H396 0.931 . S
C380 C377 1.382 . S
C380 C381 1.390 . S
C380 H397 0.931 . S
C381 C379 1.372 . S
C381 C380 1.390 . S
C381 H398 0.929 . S
C382 C377 1.390 . S
C382 C378 1.392 . S
C382 H399 0.930 . S
C383 O368 1.255 1_655 S
C383 O369 1.257 . S
C384 Eu320 2.787 . S
C384 O364 1.252 . S
C384 O367 1.268 . S
C384 C377 1.506 . S
C385 C352 1.439 . S
C385 H362 0.931 . S
C385 C386 1.374 . S
C386 C357 1.387 . S
C386 H363 0.931 . S
C386 C385 1.374 . S
C387 O371 1.249 . S
C387 O372 1.264 1_655 S
C388 C391 1.382 . S
C388 C392 1.390 . S
C388 C395 1.506 . S
C389 C390 1.398 . S
C389 C392 1.392 . S
C390 C389 1.398 . S
C390 C393 1.372 . S
C390 H400 0.931 . S
C391 C388 1.382 . S
C391 C393 1.390 . S
C391 H401 0.931 . S
C392 C388 1.390 . S
C392 C389 1.392 . S
C392 H402 0.930 . S
C393 C390 1.372 . S
C393 C391 1.390 . S
C393 H403 0.929 . S
C394 O374 1.255 . S
C394 O375 1.257 . S
C395 Eu331 2.787 . S
C395 O370 1.252 . S
C395 O373 1.268 . S
C395 C388 1.506 . S
H396 C379 0.931 . S
H397 C380 0.931 . S
H398 C381 0.929 . S
H399 C382 0.930 . S
H400 C390 0.931 . S
H401 C391 0.931 . S
H402 C392 0.930 . S
H403 C393 0.929 . S
Eu404 N433 2.600 . S
Eu404 N439 2.562 . S
Eu404 O448 2.462 . S
Eu404 O449 2.373 . S
Eu404 O451 2.432 . S
Eu404 O452 2.291 . S
Eu404 O456 2.335 . S
Eu404 O459 2.372 . S
Eu404 C468 2.787 . S
C405 N406 1.365 . S
C405 C408 1.405 . S
C405 C412 1.448 . S
N406 C405 1.365 . S
N406 C409 1.319 . S
N406 Eu415 2.600 . S
C407 C409 1.397 . S
C407 C410 1.367 . S
C407 H427 0.931 . S
C408 C405 1.405 . S
C408 C410 1.403 . S
C408 C414 1.439 . S
C409 N406 1.319 . S
C409 C407 1.397 . S
C409 H420 0.930 . S
C410 C407 1.367 . S
C410 C408 1.403 . S
C410 H431 0.929 . S
C411 C412 1.430 . S
C411 C413 1.387 . S
C411 C417 1.404 . S
C412 C405 1.448 . S
C412 C411 1.430 . S
C412 N416 1.351 . S
C413 C411 1.387 . S
C413 C414 1.374 . S
C413 H428 0.931 . S
C414 C408 1.439 . S
C414 C413 1.374 . S
C414 H429 0.931 . S
Eu415 N406 2.600 . S
Eu415 N416 2.562 . S
Eu415 O450 2.335 . S
Eu415 O453 2.372 . S
Eu415 O454 2.462 . S
Eu415 O455 2.373 . S
Eu415 O457 2.432 . S
Eu415 O458 2.291 . S
Eu415 C479 2.787 . S
N416 C412 1.351 . S
N416 Eu415 2.562 . S
N416 C418 1.325 . S
C417 C411 1.404 . S
C417 C419 1.366 . S
C417 H425 0.930 . S
C418 N416 1.325 . S
C418 C419 1.416 . S
C418 H424 0.929 . S
C419 C417 1.366 . S
C419 C418 1.416 . S
C419 H421 0.930 . S
H420 C409 0.930 . S
H421 C419 0.930 . S
H422 C437 0.930 . S
H423 C444 0.930 . S
H424 C418 0.929 . S
H425 C417 0.930 . S
H426 C440 0.929 . S
H427 C407 0.931 . S
H428 C413 0.931 . S
H429 C414 0.931 . S
H430 C435 0.931 . S
H431 C410 0.929 . S
H432 C443 0.930 . S
N433 Eu404 2.600 . S
N433 C434 1.365 . S
N433 C437 1.319 . S
C434 N433 1.365 . S
C434 C436 1.405 . S
C434 C442 1.448 . S
C435 H430 0.931 . S
C435 C437 1.397 . S
C435 C438 1.367 . S
C436 C434 1.405 . S
C436 C438 1.403 . S
C436 C469 1.439 . S
C437 H422 0.930 . S
C437 N433 1.319 . S
C437 C435 1.397 . S
C438 C435 1.367 . S
C438 C436 1.403 . S
C438 H445 0.929 . S
N439 Eu404 2.562 . S
N439 C440 1.325 . S
N439 C442 1.351 . S
C440 H426 0.929 . S
C440 N439 1.325 . S
C440 C444 1.416 . S
C441 C442 1.430 . S
C441 C443 1.404 . S
C441 C470 1.387 . S
C442 C434 1.448 . S
C442 N439 1.351 . S
C442 C441 1.430 . S
C443 H432 0.930 . S
C443 C441 1.404 . S
C443 C444 1.366 . S
C444 H423 0.930 . S
C444 C440 1.416 . S
C444 C443 1.366 . S
H445 C438 0.929 . S
H446 C469 0.931 . S
H447 C470 0.931 . S
O448 Eu404 2.462 . S
O448 C468 1.252 . S
O449 Eu404 2.373 . S
O449 C460 1.249 . S
O450 Eu415 2.335 . S
O450 C460 1.264 . S
O451 Eu404 2.432 . S
O451 C468 1.268 . S
O452 Eu404 2.291 . S
O452 C467 1.255 . S
O453 Eu415 2.372 . S
O453 C467 1.257 . S
O454 Eu415 2.462 . S
O454 C479 1.252 . S
O455 Eu415 2.373 . S
O455 C471 1.249 . S
O456 Eu404 2.335 . S
O456 C471 1.264 . S
O457 Eu415 2.432 . S
O457 C479 1.268 . S
O458 Eu415 2.291 . S
O458 C478 1.255 . S
O459 Eu404 2.372 . S
O459 C478 1.257 . S
C460 O449 1.249 . S
C460 O450 1.264 . S
C461 C464 1.382 . S
C461 C466 1.390 . S
C461 C468 1.506 . S
C462 C463 1.398 . S
C462 C466 1.392 . S
C463 C462 1.398 . S
C463 C465 1.372 . S
C463 H480 0.931 . S
C464 C461 1.382 . S
C464 C465 1.390 . S
C464 H481 0.931 . S
C465 C463 1.372 . S
C465 C464 1.390 . S
C465 H482 0.929 . S
C466 C461 1.390 . S
C466 C462 1.392 . S
C466 H483 0.930 . S
C467 O452 1.255 . S
C467 O453 1.257 . S
C468 Eu404 2.787 . S
C468 O448 1.252 . S
C468 O451 1.268 . S
C468 C461 1.506 . S
C469 C436 1.439 . S
C469 H446 0.931 . S
C469 C470 1.374 . S
C470 C441 1.387 . S
C470 H447 0.931 . S
C470 C469 1.374 . S
C471 O455 1.249 . S
C471 O456 1.264 . S
C472 C475 1.382 . S
C472 C476 1.390 . S
C472 C479 1.506 . S
C473 C474 1.398 . S
C473 C476 1.392 . S
C474 C473 1.398 . S
C474 C477 1.372 . S
C474 H484 0.931 . S
C475 C472 1.382 . S
C475 C477 1.390 . S
C475 H485 0.931 . S
C476 C472 1.390 . S
C476 C473 1.392 . S
C476 H486 0.930 . S
C477 C474 1.372 . S
C477 C475 1.390 . S
C477 H487 0.929 . S
C478 O458 1.255 . S
C478 O459 1.257 . S
C479 Eu415 2.787 . S
C479 O454 1.252 . S
C479 O457 1.268 . S
C479 C472 1.506 . S
H480 C463 0.931 . S
H481 C464 0.931 . S
H482 C465 0.929 . S
H483 C466 0.930 . S
H484 C474 0.931 . S
H485 C475 0.931 . S
H486 C476 0.930 . S
H487 C477 0.929 . S
Eu488 N517 2.600 . S
Eu488 N523 2.562 . S
Eu488 O532 2.462 . S
Eu488 O533 2.373 . S
Eu488 O535 2.432 . S
Eu488 O536 2.291 . S
Eu488 O540 2.335 . S
Eu488 O543 2.372 . S
Eu488 C552 2.787 . S
C489 N490 1.365 . S
C489 C492 1.405 . S
C489 C496 1.448 . S
N490 C489 1.365 . S
N490 C493 1.319 . S
N490 Eu499 2.600 . S
C491 C493 1.397 . S
C491 C494 1.367 . S
C491 H511 0.931 . S
C492 C489 1.405 . S
C492 C494 1.403 . S
C492 C498 1.439 . S
C493 N490 1.319 . S
C493 C491 1.397 . S
C493 H504 0.930 . S
C494 C491 1.367 . S
C494 C492 1.403 . S
C494 H515 0.929 . S
C495 C496 1.430 . S
C495 C497 1.387 . S
C495 C501 1.404 . S
C496 C489 1.448 . S
C496 C495 1.430 . S
C496 N500 1.351 . S
C497 C495 1.387 . S
C497 C498 1.374 . S
C497 H512 0.931 . S
C498 C492 1.439 . S
C498 C497 1.374 . S
C498 H513 0.931 . S
Eu499 N490 2.600 . S
Eu499 N500 2.562 . S
Eu499 O534 2.335 1_655 S
Eu499 O537 2.372 . S
Eu499 O538 2.462 . S
Eu499 O539 2.373 . S
Eu499 O541 2.432 . S
Eu499 O542 2.291 1_655 S
Eu499 C563 2.787 . S
N500 C496 1.351 . S
N500 Eu499 2.562 . S
N500 C502 1.325 . S
C501 C495 1.404 . S
C501 C503 1.366 . S
C501 H509 0.930 . S
C502 N500 1.325 . S
C502 C503 1.416 . S
C502 H508 0.929 . S
C503 C501 1.366 . S
C503 C502 1.416 . S
C503 H505 0.930 . S
H504 C493 0.930 . S
H505 C503 0.930 . S
H506 C521 0.930 . S
H507 C528 0.930 . S
H508 C502 0.929 . S
H509 C501 0.930 . S
H510 C524 0.929 . S
H511 C491 0.931 . S
H512 C497 0.931 . S
H513 C498 0.931 . S
H514 C519 0.931 . S
H515 C494 0.929 . S
H516 C527 0.930 . S
N517 Eu488 2.600 . S
N517 C518 1.365 . S
N517 C521 1.319 . S
C518 N517 1.365 . S
C518 C520 1.405 . S
C518 C526 1.448 . S
C519 H514 0.931 . S
C519 C521 1.397 . S
C519 C522 1.367 . S
C520 C518 1.405 . S
C520 C522 1.403 . S
C520 C553 1.439 . S
C521 H506 0.930 . S
C521 N517 1.319 . S
C521 C519 1.397 . S
C522 C519 1.367 . S
C522 C520 1.403 . S
C522 H529 0.929 . S
N523 Eu488 2.562 . S
N523 C524 1.325 . S
N523 C526 1.351 . S
C524 H510 0.929 . S
C524 N523 1.325 . S
C524 C528 1.416 1_565 S
C525 C526 1.430 . S
C525 C527 1.404 1_565 S
C525 C554 1.387 . S
C526 C518 1.448 . S
C526 N523 1.351 . S
C526 C525 1.430 . S
C527 H516 0.930 . S
C527 C525 1.404 1_545 S
C527 C528 1.366 . S
C528 H507 0.930 . S
C528 C524 1.416 1_545 S
C528 C527 1.366 . S
H529 C522 0.929 . S
H530 C553 0.931 . S
H531 C554 0.931 . S
O532 Eu488 2.462 . S
O532 C552 1.252 . S
O533 Eu488 2.373 . S
O533 C544 1.249 . S
O534 Eu499 2.335 1_455 S
O534 C544 1.264 . S
O535 Eu488 2.432 . S
O535 C552 1.268 . S
O536 Eu488 2.291 . S
O536 C551 1.255 1_455 S
O537 Eu499 2.372 . S
O537 C551 1.257 . S
O538 Eu499 2.462 . S
O538 C563 1.252 . S
O539 Eu499 2.373 . S
O539 C555 1.249 . S
O540 Eu488 2.335 . S
O540 C555 1.264 1_455 S
O541 Eu499 2.432 . S
O541 C563 1.268 . S
O542 Eu499 2.291 1_455 S
O542 C562 1.255 . S
O543 Eu488 2.372 . S
O543 C562 1.257 . S
C544 O533 1.249 . S
C544 O534 1.264 . S
C545 C548 1.382 . S
C545 C550 1.390 . S
C545 C552 1.506 . S
C546 C547 1.398 . S
C546 C550 1.392 . S
C547 C546 1.398 . S
C547 C549 1.372 . S
C547 H564 0.931 . S
C548 C545 1.382 . S
C548 C549 1.390 . S
C548 H565 0.931 . S
C549 C547 1.372 . S
C549 C548 1.390 . S
C549 H566 0.929 . S
C550 C545 1.390 . S
C550 C546 1.392 . S
C550 H567 0.930 . S
C551 O536 1.255 1_655 S
C551 O537 1.257 . S
C552 Eu488 2.787 . S
C552 O532 1.252 . S
C552 O535 1.268 . S
C552 C545 1.506 . S
C553 C520 1.439 . S
C553 H530 0.931 . S
C553 C554 1.374 . S
C554 C525 1.387 . S
C554 H531 0.931 . S
C554 C553 1.374 . S
C555 O539 1.249 . S
C555 O540 1.264 1_655 S
C556 C559 1.382 . S
C556 C560 1.390 . S
C556 C563 1.506 . S
C557 C558 1.398 . S
C557 C560 1.392 . S
C558 C557 1.398 . S
C558 C561 1.372 . S
C558 H568 0.931 . S
C559 C556 1.382 . S
C559 C561 1.390 . S
C559 H569 0.931 . S
C560 C556 1.390 . S
C560 C557 1.392 . S
C560 H570 0.930 . S
C561 C558 1.372 . S
C561 C559 1.390 . S
C561 H571 0.929 . S
C562 O542 1.255 . S
C562 O543 1.257 . S
C563 Eu499 2.787 . S
C563 O538 1.252 . S
C563 O541 1.268 . S
C563 C556 1.506 . S
H564 C547 0.931 . S
H565 C548 0.931 . S
H566 C549 0.929 . S
H567 C550 0.930 . S
H568 C558 0.931 . S
H569 C559 0.931 . S
H570 C560 0.930 . S
H571 C561 0.929 . S
Eu572 N601 2.600 . S
Eu572 N607 2.562 . S
Eu572 O616 2.462 . S
Eu572 O617 2.373 . S
Eu572 O619 2.432 . S
Eu572 O620 2.291 . S
Eu572 O624 2.335 . S
Eu572 O627 2.372 . S
Eu572 C636 2.787 . S
C573 N574 1.365 . S
C573 C576 1.405 . S
C573 C580 1.448 . S
N574 C573 1.365 . S
N574 C577 1.319 . S
N574 Eu583 2.600 . S
C575 C577 1.397 . S
C575 C578 1.367 . S
C575 H595 0.931 . S
C576 C573 1.405 . S
C576 C578 1.403 . S
C576 C582 1.439 . S
C577 N574 1.319 . S
C577 C575 1.397 . S
C577 H588 0.930 . S
C578 C575 1.367 . S
C578 C576 1.403 . S
C578 H599 0.929 . S
C579 C580 1.430 . S
C579 C581 1.387 . S
C579 C585 1.404 . S
C580 C573 1.448 . S
C580 C579 1.430 . S
C580 N584 1.351 . S
C581 C579 1.387 . S
C581 C582 1.374 . S
C581 H596 0.931 . S
C582 C576 1.439 . S
C582 C581 1.374 . S
C582 H597 0.931 . S
Eu583 N574 2.600 . S
Eu583 N584 2.562 . S
Eu583 O618 2.335 . S
Eu583 O621 2.372 . S
Eu583 O622 2.462 . S
Eu583 O623 2.373 . S
Eu583 O625 2.432 . S
Eu583 O626 2.291 . S
Eu583 C647 2.787 . S
N584 C580 1.351 . S
N584 Eu583 2.562 . S
N584 C586 1.325 . S
C585 C579 1.404 . S
C585 C587 1.366 . S
C585 H593 0.930 . S
C586 N584 1.325 . S
C586 C587 1.416 . S
C586 H592 0.929 . S
C587 C585 1.366 . S
C587 C586 1.416 . S
C587 H589 0.930 . S
H588 C577 0.930 . S
H589 C587 0.930 . S
H590 C605 0.930 . S
H591 C612 0.930 . S
H592 C586 0.929 . S
H593 C585 0.930 . S
H594 C608 0.929 . S
H595 C575 0.931 . S
H596 C581 0.931 . S
H597 C582 0.931 . S
H598 C603 0.931 . S
H599 C578 0.929 . S
H600 C611 0.930 . S
N601 Eu572 2.600 . S
N601 C602 1.365 . S
N601 C605 1.319 . S
C602 N601 1.365 . S
C602 C604 1.405 . S
C602 C610 1.448 . S
C603 H598 0.931 . S
C603 C605 1.397 . S
C603 C606 1.367 . S
C604 C602 1.405 . S
C604 C606 1.403 . S
C604 C637 1.439 . S
C605 H590 0.930 . S
C605 N601 1.319 . S
C605 C603 1.397 . S
C606 C603 1.367 . S
C606 C604 1.403 . S
C606 H613 0.929 . S
N607 Eu572 2.562 . S
N607 C608 1.325 . S
N607 C610 1.351 . S
C608 H594 0.929 . S
C608 N607 1.325 . S
C608 C612 1.416 . S
C609 C610 1.430 . S
C609 C611 1.404 . S
C609 C638 1.387 . S
C610 C602 1.448 . S
C610 N607 1.351 . S
C610 C609 1.430 . S
C611 H600 0.930 . S
C611 C609 1.404 . S
C611 C612 1.366 . S
C612 H591 0.930 . S
C612 C608 1.416 . S
C612 C611 1.366 . S
H613 C606 0.929 . S
H614 C637 0.931 . S
H615 C638 0.931 . S
O616 Eu572 2.462 . S
O616 C636 1.252 . S
O617 Eu572 2.373 . S
O617 C628 1.249 . S
O618 Eu583 2.335 . S
O618 C628 1.264 . S
O619 Eu572 2.432 . S
O619 C636 1.268 . S
O620 Eu572 2.291 . S
O620 C635 1.255 . S
O621 Eu583 2.372 . S
O621 C635 1.257 . S
O622 Eu583 2.462 . S
O622 C647 1.252 . S
O623 Eu583 2.373 . S
O623 C639 1.249 . S
O624 Eu572 2.335 . S
O624 C639 1.264 . S
O625 Eu583 2.432 . S
O625 C647 1.268 . S
O626 Eu583 2.291 . S
O626 C646 1.255 . S
O627 Eu572 2.372 . S
O627 C646 1.257 . S
C628 O617 1.249 . S
C628 O618 1.264 . S
C629 C632 1.382 . S
C629 C634 1.390 . S
C629 C636 1.506 . S
C630 C631 1.398 . S
C630 C634 1.392 . S
C631 C630 1.398 . S
C631 C633 1.372 . S
C631 H648 0.931 . S
C632 C629 1.382 . S
C632 C633 1.390 . S
C632 H649 0.931 . S
C633 C631 1.372 . S
C633 C632 1.390 . S
C633 H650 0.929 . S
C634 C629 1.390 . S
C634 C630 1.392 . S
C634 H651 0.930 . S
C635 O620 1.255 . S
C635 O621 1.257 . S
C636 Eu572 2.787 . S
C636 O616 1.252 . S
C636 O619 1.268 . S
C636 C629 1.506 . S
C637 C604 1.439 . S
C637 H614 0.931 . S
C637 C638 1.374 . S
C638 C609 1.387 . S
C638 H615 0.931 . S
C638 C637 1.374 . S
C639 O623 1.249 . S
C639 O624 1.264 . S
C640 C643 1.382 . S
C640 C644 1.390 . S
C640 C647 1.506 . S
C641 C642 1.398 . S
C641 C644 1.392 . S
C642 C641 1.398 . S
C642 C645 1.372 . S
C642 H652 0.931 . S
C643 C640 1.382 . S
C643 C645 1.390 . S
C643 H653 0.931 . S
C644 C640 1.390 . S
C644 C641 1.392 . S
C644 H654 0.930 . S
C645 C642 1.372 . S
C645 C643 1.390 . S
C645 H655 0.929 . S
C646 O626 1.255 . S
C646 O627 1.257 . S
C647 Eu583 2.787 . S
C647 O622 1.252 . S
C647 O625 1.268 . S
C647 C640 1.506 . S
H648 C631 0.931 . S
H649 C632 0.931 . S
H650 C633 0.929 . S
H651 C634 0.930 . S
H652 C642 0.931 . S
H653 C643 0.931 . S
H654 C644 0.930 . S
H655 C645 0.929 . S
C242 C394 1.487 . S
C478 C301 1.607 . S
C471 C162 1.470 . S
C221 C387 1.577 . S
C551 C82 1.633 . S
C635 C141 1.484 . S
C2 C628 1.611 . S
C61 C544 1.459 . S
C378 C42 1.219 . S
C462 C21 1.256 . S
C473 C122 1.368 . S
C389 C101 1.527 . S
C557 C202 1.246 . S
C181 C641 1.195 . S
C630 C282 1.453 . S
C261 C546 1.413 . S
C376 C15 1.837 . S
C460 C55 1.766 . S
C95 C467 1.858 . S
C383 C135 1.785 . S
C555 C175 1.821 . S
C215 C639 1.781 . S
C255 C646 1.846 . S
C295 C562 1.797 . S
