# Generated by pormake.
# Topology rtl, (3,6)-cn, num edge types: 1
# Building blocks:
#     Node 0, Type 0, BuildingBlock: WUSLED_clean_sbu_0, # of connection points: 3
#     Node 1, Type 0, BuildingBlock: WUSLED_clean_sbu_0, # of connection points: 3
#     Node 2, Type 0, BuildingBlock: WUSLED_clean_sbu_0, # of connection points: 3
#     Node 3, Type 0, BuildingBlock: WUSLED_clean_sbu_0, # of connection points: 3
#     Node 4, Type 1, BuildingBlock: KUMJIN_clean_sbu_1, # of connection points: 6
#     Node 5, Type 1, BuildingBlock: KUMJIN_clean_sbu_1, # of connection points: 6
#     Edge 6, Type (0, 1), BuildingBlock: AJUNOK_clean_linker_0, # of connection points: 2
#     Edge 7, Type (0, 1), BuildingBlock: AJUNOK_clean_linker_0, # of connection points: 2
#     Edge 8, Type (0, 1), BuildingBlock: AJUNOK_clean_linker_0, # of connection points: 2
#     Edge 9, Type (0, 1), BuildingBlock: AJUNOK_clean_linker_0, # of connection points: 2
#     Edge 10, Type (0, 1), BuildingBlock: AJUNOK_clean_linker_0, # of connection points: 2
#     Edge 11, Type (0, 1), BuildingBlock: AJUNOK_clean_linker_0, # of connection points: 2
#     Edge 12, Type (0, 1), BuildingBlock: AJUNOK_clean_linker_0, # of connection points: 2
#     Edge 13, Type (0, 1), BuildingBlock: AJUNOK_clean_linker_0, # of connection points: 2
#     Edge 14, Type (0, 1), BuildingBlock: AJUNOK_clean_linker_0, # of connection points: 2
#     Edge 15, Type (0, 1), BuildingBlock: AJUNOK_clean_linker_0, # of connection points: 2
#     Edge 16, Type (0, 1), BuildingBlock: AJUNOK_clean_linker_0, # of connection points: 2
#     Edge 17, Type (0, 1), BuildingBlock: AJUNOK_clean_linker_0, # of connection points: 2
# Relax obj value: 0.017
# Max RMSD: 0.115
# Mean RMSD: 0.066
data_MOF--net-rtl--node1-WUSLED_clean_sbu_0--node2-KUMJIN_clean_sbu_1--edge1-AJUNOK_clean_linker_0
_symmetry_space_group_name_H-M    P1
_symmetry_Int_Tables_number       1
_symmetry_cell_setting            triclinic
loop_
_symmetry_equiv_pos_as_xyz
'x, y, z'
_cell_length_a     33.627352
_cell_length_b     34.140873
_cell_length_c     29.541294
_cell_angle_alpha  79.167617
_cell_angle_beta   98.904345
_cell_angle_gamma 90.518445
loop_
_atom_site_label
_atom_site_type_symbol
_atom_site_fract_x
_atom_site_fract_y
_atom_site_fract_z
_atom_type_partial_charge
C0 C 0.20293 0.84732 0.15236 0.0
C1 C 0.20703 0.88803 0.15447 0.0
C2 C 0.16277 0.88157 0.21335 0.0
C3 C 0.18731 0.90489 0.1848 0.0
C4 C 0.15938 0.84074 0.21189 0.0
C5 C 0.1793 0.82381 0.18182 0.0
U6 U 0.21532 0.83816 0.02847 0.0
O7 O 0.26897 0.83023 0.99684 0.0
O8 O 0.22207 0.78498 0.99783 0.0
C9 C 0.25804 0.79499 0.98804 0.0
C10 C 0.22254 0.82896 0.11958 0.0
C11 C 0.28915 0.763 1.00078 0.0
C12 C 0.35133 0.7329 0.04703 0.0
C13 C 0.32083 0.76229 0.03805 0.0
C14 C 0.31819 0.70406 0.98254 0.0
C15 C 0.35046 0.70365 1.01909 0.0
C16 C 0.28789 0.73346 0.97349 0.0
C17 C 0.14968 0.90458 0.92624 0.0
C18 C 0.15971 0.91027 0.8455 0.0
C19 C 0.09895 0.93751 0.86344 0.0
C20 C 0.11251 0.9247 0.91104 0.0
C21 C 0.12246 0.93059 0.8302 0.0
C22 C 0.17318 0.89723 0.89322 0.0
C23 C 0.16305 0.89107 0.97652 0.0
O24 O 0.19933 0.80668 0.09517 0.0
O25 O 0.24617 0.85185 0.09479 0.0
O26 O 0.20016 0.89978 0.99231 0.0
O27 O 0.15347 0.85443 0.99345 0.0
H28 H 0.22528 0.90701 0.13258 0.0
H29 H 0.1914 0.9362 0.18599 0.0
H30 H 0.14068 0.82199 0.23344 0.0
H31 H 0.17584 0.79233 0.18118 0.0
H32 H 0.37612 0.73371 0.07498 0.0
H33 H 0.32243 0.78482 0.05961 0.0
H34 H 0.31654 0.68174 0.96068 0.0
H35 H 0.2637 0.73347 0.94462 0.0
H36 H 0.17811 0.90406 0.82055 0.0
H37 H 0.0702 0.95322 0.85259 0.0
H38 H 0.09394 0.93049 0.93604 0.0
H39 H 0.20183 0.88137 0.90437 0.0
C40 C 0.68499 0.68955 0.77158 0.0
C41 C 0.66403 0.71062 0.79733 0.0
C42 C 0.6417 0.64836 0.84036 0.0
C43 C 0.64255 0.69027 0.83131 0.0
C44 C 0.66284 0.62727 0.81475 0.0
C45 C 0.68405 0.6476 0.78055 0.0
U46 U 0.71088 0.71138 0.64778 0.0
O47 O 0.72252 0.76771 0.60217 0.0
O48 O 0.76927 0.72039 0.62247 0.0
C49 C 0.75953 0.75687 0.60004 0.0
C50 C 0.70781 0.71171 0.73603 0.0
C51 C 0.79113 0.78717 0.60255 0.0
C52 C 0.81596 0.85103 0.61947 0.0
C53 C 0.78751 0.82064 0.62318 0.0
C54 C 0.85238 0.81432 0.5758 0.0
C55 C 0.84809 0.84858 0.59467 0.0
C56 C 0.82419 0.78404 0.57964 0.0
C57 C 0.65564 0.65189 0.55839 0.0
C58 C 0.6701 0.61117 0.50309 0.0
C59 C 0.6104 0.6537 0.48501 0.0
C60 C 0.62061 0.66661 0.5275 0.0
C61 C 0.63486 0.62562 0.47246 0.0
C62 C 0.68038 0.62414 0.54553 0.0
C63 C 0.66412 0.66293 0.60521 0.0
O64 O 0.73478 0.69099 0.72204 0.0
O65 O 0.6866 0.73669 0.70163 0.0
O66 O 0.65257 0.69893 0.60821 0.0
O67 O 0.69947 0.65207 0.63022 0.0
H68 H 0.66441 0.74291 0.79126 0.0
H69 H 0.62709 0.7073 0.851 0.0
H70 H 0.66262 0.59498 0.82089 0.0
H71 H 0.69972 0.63041 0.76123 0.0
H72 H 0.81207 0.87706 0.63453 0.0
H73 H 0.76226 0.82381 0.64104 0.0
H74 H 0.87729 0.81124 0.55735 0.0
H75 H 0.82762 0.75856 0.56344 0.0
H76 H 0.68904 0.58873 0.49506 0.0
H77 H 0.58301 0.6653 0.46219 0.0
H78 H 0.60058 0.68755 0.53659 0.0
H79 H 0.70722 0.61159 0.56872 0.0
C80 C 0.85699 0.174 0.22074 0.0
C81 C 0.86941 0.13449 0.22238 0.0
C82 C 0.90375 0.13088 0.30191 0.0
C83 C 0.89241 0.11298 0.26287 0.0
C84 C 0.89112 0.17033 0.30014 0.0
C85 C 0.86792 0.19166 0.2599 0.0
U86 U 0.82695 0.20283 0.08806 0.0
O87 O 0.76735 0.21757 0.0459 0.0
O88 O 0.81439 0.26262 0.0446 0.0
C89 C 0.77609 0.25528 0.03309 0.0
C90 C 0.83302 0.19757 0.17867 0.0
C91 C 0.74741 0.28516 0.04059 0.0
C92 C 0.69217 0.30375 0.07735 0.0
C93 C 0.71947 0.27506 0.07156 0.0
C94 C 0.72094 0.3533 0.02236 0.0
C95 C 0.69256 0.34322 0.05278 0.0
C96 C 0.74798 0.32456 1.01628 0.0
C97 C 0.88046 0.14731 1.01056 0.0
C98 C 0.88359 0.16664 0.92755 0.0
C99 C 0.90762 0.10112 0.96937 0.0
C100 C 0.89739 0.11004 1.01037 0.0
C101 C 0.90087 0.12925 0.92744 0.0
C102 C 0.87329 0.17557 0.96882 0.0
C103 C 0.87233 0.15603 0.05527 0.0
O104 O 0.85332 0.22312 0.15245 0.0
O105 O 0.80637 0.17801 0.1545 0.0
O106 O 0.83692 0.14571 0.06667 0.0
O107 O 0.8839 0.19087 0.06481 0.0
H108 H 0.86148 0.12036 0.1924 0.0
H109 H 0.90185 0.08261 0.26347 0.0
H110 H 0.89901 0.18457 0.33006 0.0
H111 H 0.85856 0.22207 0.25931 0.0
H112 H 0.67014 0.29477 0.10023 0.0
H113 H 0.71838 0.24492 0.09096 0.0
H114 H 0.72214 0.38349 1.00309 0.0
H115 H 0.76932 0.3331 0.99238 0.0
H116 H 0.87822 0.18895 0.89582 0.0
H117 H 0.92191 0.07251 0.97083 0.0
H118 H 0.90346 0.08798 0.0423 0.0
H119 H 0.86026 0.20459 0.96829 0.0
C120 C 0.36489 0.35769 0.33287 0.0
C121 C 0.40332 0.37248 0.34564 0.0
C122 C 0.40692 0.40065 0.26416 0.0
C123 C 0.42427 0.39356 0.31151 0.0
C124 C 0.36859 0.38553 0.25155 0.0
C125 C 0.34781 0.36427 0.28559 0.0
U126 U 0.33914 0.33505 0.45681 0.0
O127 O 0.2804 0.32645 0.48137 0.0
O128 O 0.32648 0.27853 0.50135 0.0
C129 C 0.28952 0.28967 0.50326 0.0
C130 C 0.34189 0.33594 0.36818 0.0
C131 C 0.25744 0.25976 0.50023 0.0
C132 C 0.23563 0.19211 0.49565 0.0
C133 C 0.26477 0.22167 0.49121 0.0
C134 C 0.19106 0.23838 0.51707 0.0
C135 C 0.19865 0.2 0.50925 0.0
C136 C 0.2201 0.26786 0.51263 0.0
C137 C 0.39148 0.38786 0.55042 0.0
C138 C 0.37342 0.37267 0.62822 0.0
C139 C 0.42334 0.42257 0.61072 0.0
C140 C 0.41877 0.41602 0.56481 0.0
C141 C 0.40055 0.40107 0.64284 0.0
C142 C 0.36886 0.36618 0.58239 0.0
C143 C 0.38634 0.38131 0.50208 0.0
O144 O 0.36254 0.31024 0.40232 0.0
O145 O 0.31613 0.35773 0.38254 0.0
O146 O 0.35145 0.3934 0.47682 0.0
O147 O 0.39757 0.34576 0.49721 0.0
H148 H 0.41702 0.36795 0.38196 0.0
H149 H 0.4537 0.40498 0.32219 0.0
H150 H 0.35475 0.39003 0.21527 0.0
H151 H 0.31826 0.35307 0.27498 0.0
H152 H 0.24267 0.16265 0.49011 0.0
H153 H 0.29343 0.21425 0.4822 0.0
H154 H 0.16281 0.24543 0.52735 0.0
H155 H 0.21384 0.29676 0.52041 0.0
H156 H 0.35534 0.35581 0.65214 0.0
H157 H 0.44495 0.44413 0.62122 0.0
H158 H 0.43655 0.43291 0.54057 0.0
H159 H 0.34758 0.34435 0.57181 0.0
Eu160 Eu 0.05476 0.98276 0.53235 0.0
C161 C 0.93462 0.12051 0.50337 0.0
N162 N 0.97248 0.11984 0.52737 0.0
C163 C 0.98439 0.1844 0.48403 0.0
C164 C 0.92078 0.15243 0.46676 0.0
C165 C 0.99696 0.15172 0.5196 0.0
C166 C 0.9464 0.18444 0.45692 0.0
C167 C 0.86965 0.08959 0.49314 0.0
C168 C 0.90961 0.08943 0.51632 0.0
C169 C 0.85625 0.12021 0.45496 0.0
C170 C 0.88177 0.15161 0.44181 0.0
Eu171 Eu 0.99322 0.06216 0.58382 0.0
N172 N 0.92356 0.06042 0.55347 0.0
C173 C 0.844 0.05975 0.51008 0.0
C174 C 0.89758 0.03365 0.5727 0.0
C175 C 0.85779 0.0322 0.55068 0.0
H176 H 0.02658 0.15125 0.54009 0.0
H177 H 0.8377 1.01011 0.56533 0.0
H178 H 0.99421 0.90218 0.53718 0.0
H179 H 0.21288 0.98561 0.60781 0.0
H180 H 0.9073 1.01337 0.60519 0.0
H181 H 0.81309 0.05876 0.49327 0.0
H182 H 0.15044 1.00924 0.55315 0.0
H183 H 1.00418 0.20925 0.47714 0.0
H184 H 0.82584 0.12051 0.43626 0.0
H185 H 0.87075 0.17554 0.41304 0.0
H186 H 0.98863 0.83798 0.58995 0.0
H187 H 0.93692 0.20955 0.42902 0.0
H188 H 0.21235 0.92378 0.66697 0.0
N189 N 0.04869 0.91776 0.57621 0.0
C190 C 0.08051 0.90403 0.60966 0.0
C191 C 1.01434 0.85657 0.59645 0.0
C192 C 0.07946 0.86678 0.63964 0.0
C193 C 1.01714 0.89347 0.56721 0.0
C194 C 0.04525 0.84353 0.63351 0.0
N195 N 0.11567 0.9613 0.58165 0.0
C196 C 0.15036 0.98202 0.57867 0.0
C197 C 0.14984 0.91178 0.64406 0.0
C198 C 0.11532 0.92609 0.61187 0.0
C199 C 0.18514 0.93381 0.64286 0.0
C200 C 0.18557 0.96874 0.60949 0.0
H201 H 0.04322 0.81475 0.65582 0.0
H202 H 0.11259 0.82501 0.69726 0.0
H203 H 0.17423 0.8645 0.70117 0.0
O204 O 0.08331 0.99906 0.46997 0.0
O205 O 0.0769 0.99994 0.60274 0.0
O206 O 1.01813 1.00486 0.63049 0.0
O207 O 0.06776 0.93798 0.4923 0.0
O208 O 0.07829 0.04594 0.52097 0.0
O209 O 0.05902 0.07738 0.57816 0.0
O210 O 0.95858 0.08388 0.63162 0.0
O211 O 1.00321 0.07337 0.50828 0.0
O212 O 0.99687 1.01146 0.49008 0.0
O213 O 0.02132 0.09754 0.63388 0.0
O214 O 0.97532 0.99663 0.59766 0.0
O215 O 0.98745 0.97354 0.53244 0.0
C216 C 0.05614 0.99419 0.63735 0.0
C217 C 0.06342 0.96139 0.41159 0.0
C218 C 0.07072 0.94598 0.33579 0.0
C219 C 0.0298 0.95616 0.32003 0.0
C220 C 0.02277 0.97166 0.39507 0.0
C221 C 1.00612 0.96909 0.34946 0.0
C222 C 0.0873 0.94856 0.38193 0.0
C223 C 0.0816 0.07461 0.54578 0.0
C224 C 0.08092 0.96357 0.45982 0.0
C225 C 0.11305 0.85331 0.67352 0.0
C226 C 0.1482 0.87574 0.67568 0.0
C227 C 0.99163 0.05018 0.47836 0.0
C228 C 0.9966 0.08442 0.7057 0.0
C229 C 0.97723 0.08389 0.78209 0.0
C230 C 1.00766 0.05522 0.80229 0.0
C231 C 0.02726 0.05614 0.72684 0.0
C232 C 0.97179 0.09861 0.73367 0.0
C233 C 0.03266 0.04163 0.77478 0.0
C234 C 0.96697 0.97284 0.56721 0.0
C235 C 0.98987 0.09798 0.65453 0.0
H236 H 1.01589 0.95346 0.28518 0.0
H237 H 1.00383 0.98132 0.41748 0.0
H238 H 0.97466 0.97681 0.33702 0.0
H239 H 0.11875 0.94074 0.39471 0.0
H240 H 1.01228 0.04363 0.83951 0.0
H241 H 0.04708 0.04525 0.70628 0.0
H242 H 0.9481 0.12049 0.71784 0.0
H243 H 0.05631 0.01981 0.79064 0.0
Eu244 Eu 0.48312 0.50128 1.00529 0.0
C245 C 0.64587 0.58044 0.06405 0.0
N246 N 0.63274 0.54529 0.08628 0.0
C247 C 0.69759 0.51473 0.09186 0.0
C248 C 0.68551 0.58369 0.05387 0.0
C249 C 0.65795 0.51282 0.10083 0.0
C250 C 0.7114 0.55027 0.06808 0.0
C251 C 0.63162 0.64931 0.02569 0.0
C252 C 0.61902 0.61282 0.04988 0.0
C253 C 0.67102 0.65255 1.01526 0.0
C254 C 0.69788 0.61987 0.02934 0.0
Eu255 Eu 0.56499 0.54403 0.09808 0.0
N256 N 0.58057 0.60851 0.05921 0.0
C257 C 0.60433 0.68161 1.01289 0.0
C258 C 0.55495 0.64082 0.0498 0.0
C259 C 0.56607 0.6775 0.02569 0.0
H260 H 0.64757 0.48556 0.11988 0.0
H261 H 0.54529 0.70277 1.01759 0.0
H262 H 0.40138 0.56092 0.98 0.0
H263 H 0.50104 0.34442 0.09342 0.0
H264 H 0.52632 0.63916 0.0618 0.0
H265 H 0.61284 0.7101 0.99423 0.0
H266 H 0.52101 0.40666 0.04698 0.0
H267 H 0.71746 0.48883 0.1033 0.0
H268 H 0.68106 0.68028 0.99645 0.0
H269 H 0.72815 0.62286 0.021 0.0
H270 H 0.33098 0.55928 0.99508 0.0
H271 H 0.74208 0.55159 0.06091 0.0
H272 H 0.43307 0.33896 0.11582 0.0
N273 N 0.4152 0.50167 1.01613 0.0
C274 C 0.40159 0.4674 0.03986 0.0
C275 C 0.35055 0.53329 1.00795 0.0
C276 C 0.3617 0.46509 0.04922 0.0
C277 C 0.39043 0.53427 0.99978 0.0
C278 C 0.33612 0.49858 0.03284 0.0
N279 N 0.46668 0.43818 0.04679 0.0
C280 C 0.4921 0.40571 0.05826 0.0
C281 C 0.415 0.3993 0.08152 0.0
C282 C 0.42812 0.4349 0.05598 0.0
C283 C 0.44198 0.36682 0.09609 0.0
C284 C 0.48046 0.36986 0.08377 0.0
H285 H 0.30528 0.498 0.0394 0.0
H286 H 0.31839 0.42765 0.08312 0.0
H287 H 0.36497 0.37009 0.11131 0.0
O288 O 0.49196 0.46749 0.95154 0.0
O289 O 0.46898 0.50203 0.07817 0.0
O290 O 0.53006 0.48962 0.12492 0.0
O291 O 0.4425 0.50986 0.93863 0.0
O292 O 0.54638 0.47403 0.02147 0.0
O293 O 0.57103 0.47792 0.09806 0.0
O294 O 0.55657 0.57682 0.15293 0.0
O295 O 0.57915 0.54477 0.02484 0.0
O296 O 0.51811 0.55531 0.97702 0.0
O297 O 0.60701 0.53596 0.1636 0.0
O298 O 0.50161 0.57211 0.08086 0.0
O299 O 0.47923 0.56743 1.00407 0.0
C300 C 0.49069 0.48782 0.1187 0.0
C301 C 0.43354 0.45385 0.90208 0.0
C302 C 0.40925 0.42274 0.8352 0.0
C303 C 0.38394 0.39884 0.86217 0.0
C304 C 0.40798 0.42978 0.92823 0.0
C305 C 0.38335 0.40243 0.90835 0.0
C306 C 0.43417 0.45021 0.85558 0.0
C307 C 0.57174 0.46254 0.06046 0.0
C308 C 0.45997 0.48244 0.923 0.0
C309 C 0.34883 0.42985 0.07522 0.0
C310 C 0.37541 0.3971 0.09139 0.0
C311 C 0.5573 0.55969 0.9846 0.0
C312 C 0.57929 0.54374 0.22999 0.0
C313 C 0.58417 0.55041 0.31163 0.0
C314 C 0.56429 0.51399 0.32076 0.0
C315 C 0.55985 0.50736 0.24004 0.0
C316 C 0.59128 0.56529 0.26578 0.0
C317 C 0.55224 0.49269 0.28516 0.0
C318 C 0.47721 0.58328 0.04095 0.0
C319 C 0.58701 0.55942 0.18229 0.0
H320 H 0.36428 0.37764 0.84735 0.0
H321 H 0.40708 0.43204 0.96393 0.0
H322 H 0.36368 0.38398 0.92879 0.0
H323 H 0.45438 0.46837 0.83555 0.0
H324 H 0.55856 0.50169 0.35566 0.0
H325 H 0.55074 0.49026 0.21306 0.0
H326 H 0.60579 0.5937 0.25782 0.0
H327 H 0.53716 0.46459 0.29262 0.0
C328 C 0.15178 0.16149 0.5589 0.0
C329 C 0.16873 0.16793 0.51746 0.0
C330 C 0.12383 0.13129 0.56782 0.0
C331 C 0.11166 0.10616 0.53569 0.0
H332 H 0.16057 0.17967 0.58501 0.0
H333 H 0.11195 0.12749 0.60038 0.0
S334 S 0.14482 0.11279 0.4201 0.0
N335 N 0.16974 0.14814 0.44289 0.0
N336 N 0.11756 0.09132 0.45942 0.0
C337 C 0.12807 0.11266 0.49377 0.0
C338 C 0.15649 0.14348 0.48474 0.0
C339 C 0.40089 0.66682 0.98792 0.0
C340 C 0.38377 0.67366 0.02637 0.0
C341 C 0.43151 0.63805 0.99317 0.0
C342 C 0.44633 0.61493 0.03712 0.0
H343 H 0.39058 0.68395 0.95337 0.0
H344 H 0.44357 0.63383 0.96243 0.0
S345 S 0.41105 0.62034 0.14881 0.0
N346 N 0.38338 0.65438 0.10982 0.0
N347 N 0.44139 0.60059 0.11986 0.0
C348 C 0.42987 0.62173 0.07602 0.0
C349 C 0.39848 0.65098 0.07061 0.0
C350 C 0.89715 0.89736 0.62485 0.0
C351 C 0.87655 0.88199 0.58699 0.0
C352 C 0.92584 0.92729 0.61816 0.0
C353 C 0.9348 0.94304 0.57335 0.0
H354 H 0.89182 0.88544 0.66 0.0
H355 H 0.94178 0.93748 0.64844 0.0
S356 S 0.88563 0.91629 0.46222 0.0
N357 N 0.86476 0.88703 0.50281 0.0
N358 N 0.91825 0.94327 0.49024 0.0
C359 C 0.91326 0.92895 0.5351 0.0
C360 C 0.88428 0.89845 0.54192 0.0
C361 C 0.64165 0.39729 1.01576 0.0
C362 C 0.66216 0.37343 0.05658 0.0
C363 C 0.61256 0.42573 1.01768 0.0
C364 C 0.60265 0.43169 0.06052 0.0
H365 H 0.64778 0.39368 0.98183 0.0
H366 H 0.59793 0.44338 0.98507 0.0
S367 S 0.64764 0.37705 0.1778 0.0
N368 N 0.67097 0.35802 0.14139 0.0
N369 N 0.61538 0.41086 0.14494 0.0
C370 C 0.62277 0.40796 0.10174 0.0
C371 C 0.65263 0.37897 0.09978 0.0
C372 C 0.14096 0.88052 0.29112 0.0
C373 C 0.14044 0.8996 0.24441 0.0
C374 C 0.11908 0.89617 0.32066 0.0
C375 C 0.0956 0.93138 0.3046 0.0
H376 H 0.15841 0.85321 0.30497 0.0
H377 H 0.11984 0.88004 0.35607 0.0
S378 S 0.08474 0.99337 0.18569 0.0
N379 N 0.11458 0.95582 0.18362 0.0
N380 N 0.07438 0.98572 0.23945 0.0
C381 C 0.09534 0.95112 0.25823 0.0
C382 C 0.11757 0.93518 0.22812 0.0
C383 C 0.63882 0.59554 0.91137 0.0
C384 C 0.61941 0.62644 0.87686 0.0
C385 C 0.61847 0.57416 0.94593 0.0
C386 C 0.57777 0.58256 0.94716 0.0
H387 H 0.67014 0.58803 0.91192 0.0
H388 H 0.63474 0.55061 0.97168 0.0
S389 S 0.5132 0.6606 0.86476 0.0
N390 N 0.55711 0.6643 0.84598 0.0
N391 N 0.51892 0.62427 0.91099 0.0
C392 C 0.55798 0.61335 0.91284 0.0
C393 C 0.57881 0.63532 0.87781 0.0
C394 C 0.91612 0.07151 0.36709 0.0
C395 C 0.92859 0.10865 0.34469 0.0
C396 C 0.93765 0.05168 0.40968 0.0
C397 C 0.97218 0.06848 0.43107 0.0
H398 H 0.88882 0.0584 0.3524 0.0
H399 H 0.92631 0.02391 0.42684 0.0
S400 S 0.02072 0.16171 0.38309 0.0
N401 N 0.97999 0.15916 0.34462 0.0
N402 N 0.02039 0.12184 0.42448 0.0
C403 C 0.98604 0.10448 0.4079 0.0
C404 C 0.96422 0.12462 0.36474 0.0
C405 C 0.40994 0.37501 0.72899 0.0
C406 C 0.40496 0.40779 0.69166 0.0
C407 C 0.41215 0.38024 0.77525 0.0
C408 C 0.40944 0.41847 0.78605 0.0
H409 H 0.41205 0.345 0.72239 0.0
H410 H 0.41587 0.35408 0.80282 0.0
S411 S 0.39486 0.514 0.70098 0.0
N412 N 0.39667 0.4798 0.66851 0.0
N413 N 0.40077 0.48962 0.75552 0.0
C414 C 0.40487 0.45156 0.74912 0.0
C415 C 0.40264 0.44623 0.70195 0.0
C416 C 0.58258 0.59588 0.41948 0.0
C417 C 0.62213 0.60931 0.42919 0.0
C418 C 0.57043 0.57772 0.38092 0.0
C419 C 0.59724 0.57238 0.35028 0.0
H420 H 0.56109 0.5984 0.44263 0.0
H421 H 0.53981 0.56742 0.37527 0.0
S422 S 0.70358 0.60406 0.3588 0.0
N423 N 0.68756 0.61775 0.4037 0.0
N424 N 0.66497 0.58287 0.33174 0.0
C425 C 0.63659 0.58656 0.35888 0.0
C426 C 0.64899 0.60507 0.39824 0.0
C427 C 0.939 0.14675 0.85984 0.0
C428 C 0.91434 0.12002 0.88482 0.0
C429 C 0.95739 0.13587 0.82427 0.0
C430 C 0.9517 0.09796 0.81257 0.0
H431 H 0.94588 0.17541 0.86953 0.0
H432 H 0.97785 0.15638 0.80755 0.0
S433 S 0.88558 0.01943 0.86225 0.0
N434 N 0.88159 0.05581 0.89118 0.0
N435 N 0.91695 0.03524 0.82518 0.0
C436 C 0.92535 0.07197 0.83521 0.0
C437 C 0.90644 0.08304 0.87109 0.0
C438 C 0.46826 0.41369 0.22478 0.0
C439 C 0.42848 0.42408 0.22793 0.0
C440 C 0.48853 0.43478 0.18984 0.0
C441 C 0.46985 0.4672 0.157 0.0
H442 H 0.48352 0.38854 0.24892 0.0
H443 H 0.51873 0.4251 0.18797 0.0
S444 S 0.36779 0.50921 0.15358 0.0
N445 N 0.37231 0.47065 0.19727 0.0
N446 N 0.41044 0.51052 0.13223 0.0
C447 C 0.43054 0.47857 0.16068 0.0
C448 C 0.40987 0.45698 0.19596 0.0
C449 C 0.06835 0.93572 0.76092 0.0
C450 C 0.10767 0.94457 0.77978 0.0
C451 C 0.0524 0.95107 0.71436 0.0
C452 C 0.0752 0.97579 0.68491 0.0
H453 H 0.04959 0.91713 0.78253 0.0
H454 H 0.02179 0.94388 0.70144 0.0
S455 S 0.17895 1.00941 0.71767 0.0
N456 N 0.16879 0.98019 0.76558 0.0
N457 N 0.13851 1.00941 0.67803 0.0
C458 C 0.11468 0.98451 0.70302 0.0
C459 C 0.131 0.96879 0.75048 0.0
loop_
_geom_bond_atom_site_label_1
_geom_bond_atom_site_label_2
_geom_bond_distance
_geom_bond_site_symmetry_2
_ccdc_geom_bond_type
C0 C1 1.264 . S
C0 C5 1.479 . S
C0 C10 1.465 . S
C1 C0 1.264 . S
C1 C3 1.339 . S
C1 H28 0.931 . S
C2 C3 1.395 . S
C2 C4 1.320 . S
C3 C1 1.339 . S
C3 C2 1.395 . S
C3 H29 0.929 . S
C4 C2 1.320 . S
C4 C5 1.405 . S
C4 H30 0.930 . S
C5 C0 1.479 . S
C5 C4 1.405 . S
C5 H31 0.931 . S
U6 O7 2.454 . S
U6 O8 2.458 1_554 S
U6 C9 2.984 . S
U6 C10 2.847 . S
U6 C23 2.882 1_554 S
U6 O24 2.441 . S
U6 O25 2.420 . S
U6 O26 2.455 1_554 S
U6 O27 2.449 1_554 S
O7 U6 2.454 . S
O7 C9 1.353 . S
O8 U6 2.458 1_556 S
O8 C9 1.286 1_556 S
C9 U6 2.984 . S
C9 O7 1.353 . S
C9 O8 1.286 1_554 S
C9 C11 1.363 . S
C10 C0 1.465 . S
C10 U6 2.847 . S
C10 O24 1.249 . S
C10 O25 1.202 . S
C11 C9 1.363 . S
C11 C13 1.408 . S
C11 C16 1.342 . S
C12 C13 1.310 . S
C12 C15 1.461 . S
C12 H32 0.932 . S
C13 C11 1.408 . S
C13 C12 1.310 . S
C13 H33 0.930 . S
C14 C15 1.474 . S
C14 C16 1.285 . S
C14 H34 0.929 1_554 S
C15 C12 1.461 . S
C15 C14 1.474 . S
C16 C11 1.342 . S
C16 C14 1.285 . S
C16 H35 0.930 1_554 S
C17 C20 1.424 . S
C17 C22 1.245 . S
C17 C23 1.428 . S
C18 C21 1.260 . S
C18 C22 1.477 . S
C18 H36 0.932 . S
C19 C20 1.384 . S
C19 C21 1.479 . S
C19 H37 0.929 . S
C20 C17 1.424 . S
C20 C19 1.384 . S
C20 H38 0.928 . S
C21 C18 1.260 . S
C21 C19 1.479 . S
C22 C17 1.245 . S
C22 C18 1.477 . S
C22 H39 0.932 . S
C23 U6 2.882 1_556 S
C23 C17 1.428 . S
C23 O26 1.301 . S
C23 O27 1.282 . S
O24 U6 2.441 . S
O24 C10 1.249 . S
O25 U6 2.420 . S
O25 C10 1.202 . S
O26 U6 2.455 1_556 S
O26 C23 1.301 . S
O27 U6 2.449 1_556 S
O27 C23 1.282 . S
H28 C1 0.931 . S
H29 C3 0.929 . S
H30 C4 0.930 . S
H31 C5 0.931 . S
H32 C12 0.932 . S
H33 C13 0.930 . S
H34 C14 0.929 1_556 S
H35 C16 0.930 1_556 S
H36 C18 0.932 . S
H37 C19 0.929 . S
H38 C20 0.928 . S
H39 C22 0.932 . S
C40 C41 1.264 . S
C40 C45 1.479 . S
C40 C50 1.465 . S
C41 C40 1.264 . S
C41 C43 1.339 . S
C41 H68 0.931 . S
C42 C43 1.395 . S
C42 C44 1.320 . S
C43 C41 1.339 . S
C43 C42 1.395 . S
C43 H69 0.929 . S
C44 C42 1.320 . S
C44 C45 1.405 . S
C44 H70 0.930 . S
C45 C40 1.479 . S
C45 C44 1.405 . S
C45 H71 0.931 . S
U46 O47 2.454 . S
U46 O48 2.458 . S
U46 C49 2.984 . S
U46 C50 2.847 . S
U46 C63 2.882 . S
U46 O64 2.441 . S
U46 O65 2.420 . S
U46 O66 2.455 . S
U46 O67 2.449 . S
O47 U46 2.454 . S
O47 C49 1.353 . S
O48 U46 2.458 . S
O48 C49 1.286 . S
C49 U46 2.984 . S
C49 O47 1.353 . S
C49 O48 1.286 . S
C49 C51 1.363 . S
C50 C40 1.465 . S
C50 U46 2.847 . S
C50 O64 1.249 . S
C50 O65 1.202 . S
C51 C49 1.363 . S
C51 C53 1.408 . S
C51 C56 1.342 . S
C52 C53 1.310 . S
C52 C55 1.461 . S
C52 H72 0.932 . S
C53 C51 1.408 . S
C53 C52 1.310 . S
C53 H73 0.930 . S
C54 C55 1.474 . S
C54 C56 1.285 . S
C54 H74 0.929 . S
C55 C52 1.461 . S
C55 C54 1.474 . S
C56 C51 1.342 . S
C56 C54 1.285 . S
C56 H75 0.930 . S
C57 C60 1.424 . S
C57 C62 1.245 . S
C57 C63 1.428 . S
C58 C61 1.260 . S
C58 C62 1.477 . S
C58 H76 0.932 . S
C59 C60 1.384 . S
C59 C61 1.479 . S
C59 H77 0.929 . S
C60 C57 1.424 . S
C60 C59 1.384 . S
C60 H78 0.928 . S
C61 C58 1.260 . S
C61 C59 1.479 . S
C62 C57 1.245 . S
C62 C58 1.477 . S
C62 H79 0.932 . S
C63 U46 2.882 . S
C63 C57 1.428 . S
C63 O66 1.301 . S
C63 O67 1.282 . S
O64 U46 2.441 . S
O64 C50 1.249 . S
O65 U46 2.420 . S
O65 C50 1.202 . S
O66 U46 2.455 . S
O66 C63 1.301 . S
O67 U46 2.449 . S
O67 C63 1.282 . S
H68 C41 0.931 . S
H69 C43 0.929 . S
H70 C44 0.930 . S
H71 C45 0.931 . S
H72 C52 0.932 . S
H73 C53 0.930 . S
H74 C54 0.929 . S
H75 C56 0.930 . S
H76 C58 0.932 . S
H77 C59 0.929 . S
H78 C60 0.928 . S
H79 C62 0.932 . S
C80 C81 1.264 . S
C80 C85 1.479 . S
C80 C90 1.465 . S
C81 C80 1.264 . S
C81 C83 1.339 . S
C81 H108 0.931 . S
C82 C83 1.395 . S
C82 C84 1.320 . S
C83 C81 1.339 . S
C83 C82 1.395 . S
C83 H109 0.929 . S
C84 C82 1.320 . S
C84 C85 1.405 . S
C84 H110 0.930 . S
C85 C80 1.479 . S
C85 C84 1.405 . S
C85 H111 0.931 . S
U86 O87 2.454 . S
U86 O88 2.458 . S
U86 C89 2.984 . S
U86 C90 2.847 . S
U86 C103 2.882 1_554 S
U86 O104 2.441 . S
U86 O105 2.420 . S
U86 O106 2.455 1_554 S
U86 O107 2.449 . S
O87 U86 2.454 . S
O87 C89 1.353 . S
O88 U86 2.458 . S
O88 C89 1.286 . S
C89 U86 2.984 . S
C89 O87 1.353 . S
C89 O88 1.286 . S
C89 C91 1.363 . S
C90 C80 1.465 . S
C90 U86 2.847 . S
C90 O104 1.249 . S
C90 O105 1.202 . S
C91 C89 1.363 . S
C91 C93 1.408 . S
C91 C96 1.342 1_554 S
C92 C93 1.310 . S
C92 C95 1.461 . S
C92 H112 0.932 . S
C93 C91 1.408 . S
C93 C92 1.310 . S
C93 H113 0.930 . S
C94 C95 1.474 1_556 S
C94 C96 1.285 . S
C94 H114 0.929 . S
C95 C92 1.461 . S
C95 C94 1.474 1_554 S
C96 C91 1.342 1_556 S
C96 C94 1.285 . S
C96 H115 0.930 . S
C97 C100 1.424 . S
C97 C102 1.245 . S
C97 C103 1.428 . S
C98 C101 1.260 . S
C98 C102 1.477 . S
C98 H116 0.932 . S
C99 C100 1.384 . S
C99 C101 1.479 . S
C99 H117 0.929 . S
C100 C97 1.424 . S
C100 C99 1.384 . S
C100 H118 0.928 . S
C101 C98 1.260 . S
C101 C99 1.479 . S
C102 C97 1.245 . S
C102 C98 1.477 . S
C102 H119 0.932 . S
C103 U86 2.882 1_556 S
C103 C97 1.428 . S
C103 O106 1.301 . S
C103 O107 1.282 1_556 S
O104 U86 2.441 . S
O104 C90 1.249 . S
O105 U86 2.420 . S
O105 C90 1.202 . S
O106 U86 2.455 1_556 S
O106 C103 1.301 . S
O107 U86 2.449 . S
O107 C103 1.282 1_554 S
H108 C81 0.931 . S
H109 C83 0.929 . S
H110 C84 0.930 . S
H111 C85 0.931 . S
H112 C92 0.932 . S
H113 C93 0.930 . S
H114 C94 0.929 . S
H115 C96 0.930 . S
H116 C98 0.932 . S
H117 C99 0.929 . S
H118 C100 0.928 . S
H119 C102 0.932 . S
C120 C121 1.264 . S
C120 C125 1.479 . S
C120 C130 1.465 . S
C121 C120 1.264 . S
C121 C123 1.339 . S
C121 H148 0.931 . S
C122 C123 1.395 . S
C122 C124 1.320 . S
C123 C121 1.339 . S
C123 C122 1.395 . S
C123 H149 0.929 . S
C124 C122 1.320 . S
C124 C125 1.405 . S
C124 H150 0.930 . S
C125 C120 1.479 . S
C125 C124 1.405 . S
C125 H151 0.931 . S
U126 O127 2.454 . S
U126 O128 2.458 . S
U126 C129 2.984 . S
U126 C130 2.847 . S
U126 C143 2.882 . S
U126 O144 2.441 . S
U126 O145 2.420 . S
U126 O146 2.455 . S
U126 O147 2.449 . S
O127 U126 2.454 . S
O127 C129 1.353 . S
O128 U126 2.458 . S
O128 C129 1.286 . S
C129 U126 2.984 . S
C129 O127 1.353 . S
C129 O128 1.286 . S
C129 C131 1.363 . S
C130 C120 1.465 . S
C130 U126 2.847 . S
C130 O144 1.249 . S
C130 O145 1.202 . S
C131 C129 1.363 . S
C131 C133 1.408 . S
C131 C136 1.342 . S
C132 C133 1.310 . S
C132 C135 1.461 . S
C132 H152 0.932 . S
C133 C131 1.408 . S
C133 C132 1.310 . S
C133 H153 0.930 . S
C134 C135 1.474 . S
C134 C136 1.285 . S
C134 H154 0.929 . S
C135 C132 1.461 . S
C135 C134 1.474 . S
C136 C131 1.342 . S
C136 C134 1.285 . S
C136 H155 0.930 . S
C137 C140 1.424 . S
C137 C142 1.245 . S
C137 C143 1.428 . S
C138 C141 1.260 . S
C138 C142 1.477 . S
C138 H156 0.932 . S
C139 C140 1.384 . S
C139 C141 1.479 . S
C139 H157 0.929 . S
C140 C137 1.424 . S
C140 C139 1.384 . S
C140 H158 0.928 . S
C141 C138 1.260 . S
C141 C139 1.479 . S
C142 C137 1.245 . S
C142 C138 1.477 . S
C142 H159 0.932 . S
C143 U126 2.882 . S
C143 C137 1.428 . S
C143 O146 1.301 . S
C143 O147 1.282 . S
O144 U126 2.441 . S
O144 C130 1.249 . S
O145 U126 2.420 . S
O145 C130 1.202 . S
O146 U126 2.455 . S
O146 C143 1.301 . S
O147 U126 2.449 . S
O147 C143 1.282 . S
H148 C121 0.931 . S
H149 C123 0.929 . S
H150 C124 0.930 . S
H151 C125 0.931 . S
H152 C132 0.932 . S
H153 C133 0.930 . S
H154 C134 0.929 . S
H155 C136 0.930 . S
H156 C138 0.932 . S
H157 C139 0.929 . S
H158 C140 0.928 . S
H159 C142 0.932 . S
Eu160 N189 2.600 . S
Eu160 N195 2.562 . S
Eu160 O204 2.462 . S
Eu160 O205 2.373 . S
Eu160 O207 2.432 . S
Eu160 O208 2.291 1_565 S
Eu160 O212 2.343 1_455 S
Eu160 O215 2.372 1_455 S
Eu160 C224 2.787 . S
C161 N162 1.365 . S
C161 C164 1.405 . S
C161 C168 1.448 . S
N162 C161 1.365 . S
N162 C165 1.316 1_655 S
N162 Eu171 2.600 . S
C163 C165 1.397 1_655 S
C163 C166 1.367 . S
C163 H183 0.931 1_655 S
C164 C161 1.405 . S
C164 C166 1.403 . S
C164 C170 1.439 . S
C165 N162 1.316 1_455 S
C165 C163 1.397 1_455 S
C165 H176 0.933 . S
C166 C163 1.367 . S
C166 C164 1.403 . S
C166 H187 0.929 . S
C167 C168 1.430 . S
C167 C169 1.387 . S
C167 C173 1.404 . S
C168 C161 1.448 . S
C168 C167 1.430 . S
C168 N172 1.351 . S
C169 C167 1.387 . S
C169 C170 1.374 . S
C169 H184 0.931 . S
C170 C164 1.439 . S
C170 C169 1.374 . S
C170 H185 0.931 . S
Eu171 N162 2.600 . S
Eu171 N172 2.562 . S
Eu171 O206 2.335 1_655 S
Eu171 O209 2.372 1_655 S
Eu171 O210 2.462 . S
Eu171 O211 2.373 . S
Eu171 O213 2.432 . S
Eu171 O214 2.291 1_545 S
Eu171 C235 2.787 . S
N172 C168 1.351 . S
N172 Eu171 2.562 . S
N172 C174 1.325 . S
C173 C167 1.404 . S
C173 C175 1.366 . S
C173 H181 0.930 . S
C174 N172 1.325 . S
C174 C175 1.416 . S
C174 H180 0.929 . S
C175 C173 1.366 . S
C175 C174 1.416 . S
C175 H177 0.930 . S
H176 C165 0.933 . S
H177 C175 0.930 . S
H178 C193 0.930 1_655 S
H179 C200 0.930 . S
H180 C174 0.929 . S
H181 C173 0.930 . S
H182 C196 0.929 . S
H183 C163 0.931 1_455 S
H184 C169 0.931 . S
H185 C170 0.931 . S
H186 C191 0.931 1_655 S
H187 C166 0.929 . S
H188 C199 0.930 . S
N189 Eu160 2.600 . S
N189 C190 1.365 . S
N189 C193 1.319 . S
C190 N189 1.365 . S
C190 C192 1.405 . S
C190 C198 1.448 . S
C191 H186 0.931 1_455 S
C191 C193 1.397 . S
C191 C194 1.367 . S
C192 C190 1.405 . S
C192 C194 1.403 . S
C192 C225 1.439 . S
C193 H178 0.930 1_455 S
C193 N189 1.319 . S
C193 C191 1.397 . S
C194 C191 1.367 . S
C194 C192 1.403 . S
C194 H201 0.929 . S
N195 Eu160 2.562 . S
N195 C196 1.325 . S
N195 C198 1.351 . S
C196 H182 0.929 . S
C196 N195 1.325 . S
C196 C200 1.416 . S
C197 C198 1.430 . S
C197 C199 1.404 . S
C197 C226 1.387 . S
C198 C190 1.448 . S
C198 N195 1.351 . S
C198 C197 1.430 . S
C199 H188 0.930 . S
C199 C197 1.404 . S
C199 C200 1.366 . S
C200 H179 0.930 . S
C200 C196 1.416 . S
C200 C199 1.366 . S
H201 C194 0.929 . S
H202 C225 0.931 . S
H203 C226 0.931 . S
O204 Eu160 2.462 . S
O204 C224 1.252 . S
O205 Eu160 2.373 . S
O205 C216 1.249 . S
O206 Eu171 2.335 1_455 S
O206 C216 1.264 1_545 S
O207 Eu160 2.432 . S
O207 C224 1.268 . S
O208 Eu160 2.291 1_545 S
O208 C223 1.255 . S
O209 Eu171 2.372 1_455 S
O209 C223 1.257 . S
O210 Eu171 2.462 . S
O210 C235 1.252 . S
O211 Eu171 2.373 . S
O211 C227 1.249 . S
O212 Eu160 2.343 1_655 S
O212 C227 1.251 1_565 S
O213 Eu171 2.432 . S
O213 C235 1.268 . S
O214 Eu171 2.291 1_565 S
O214 C234 1.255 . S
O215 Eu160 2.372 1_655 S
O215 C234 1.257 . S
C216 O205 1.249 . S
C216 O206 1.264 1_565 S
C217 C220 1.382 . S
C217 C222 1.390 . S
C217 C224 1.506 . S
C218 C219 1.398 . S
C218 C222 1.392 . S
C219 C218 1.398 . S
C219 C221 1.372 . S
C219 H236 0.931 . S
C220 C217 1.382 . S
C220 C221 1.390 . S
C220 H237 0.931 . S
C221 C219 1.372 . S
C221 C220 1.390 . S
C221 H238 0.929 . S
C222 C217 1.390 . S
C222 C218 1.392 . S
C222 H239 0.930 . S
C223 O208 1.255 . S
C223 O209 1.257 . S
C224 Eu160 2.787 . S
C224 O204 1.252 . S
C224 O207 1.268 . S
C224 C217 1.506 . S
C225 C192 1.439 . S
C225 H202 0.931 . S
C225 C226 1.374 . S
C226 C197 1.387 . S
C226 H203 0.931 . S
C226 C225 1.374 . S
C227 O211 1.249 . S
C227 O212 1.251 1_545 S
C228 C231 1.382 . S
C228 C232 1.390 . S
C228 C235 1.506 . S
C229 C230 1.398 . S
C229 C232 1.392 . S
C230 C229 1.398 . S
C230 C233 1.372 . S
C230 H240 0.931 . S
C231 C228 1.382 . S
C231 C233 1.390 . S
C231 H241 0.931 . S
C232 C228 1.390 . S
C232 C229 1.392 . S
C232 H242 0.930 . S
C233 C230 1.372 . S
C233 C231 1.390 . S
C233 H243 0.929 . S
C234 O214 1.255 . S
C234 O215 1.257 . S
C235 Eu171 2.787 . S
C235 O210 1.252 . S
C235 O213 1.268 . S
C235 C228 1.506 . S
H236 C219 0.931 . S
H237 C220 0.931 . S
H238 C221 0.929 . S
H239 C222 0.930 . S
H240 C230 0.931 . S
H241 C231 0.931 . S
H242 C232 0.930 . S
H243 C233 0.929 . S
Eu244 N273 2.600 . S
Eu244 N279 2.562 1_556 S
Eu244 O288 2.462 . S
Eu244 O289 2.373 1_556 S
Eu244 O291 2.432 . S
Eu244 O292 2.291 1_556 S
Eu244 O296 2.335 . S
Eu244 O299 2.368 1_556 S
Eu244 C308 2.787 . S
C245 N246 1.365 . S
C245 C248 1.405 . S
C245 C252 1.448 . S
N246 C245 1.365 . S
N246 C249 1.319 . S
N246 Eu255 2.600 . S
C247 C249 1.397 . S
C247 C250 1.367 . S
C247 H267 0.931 . S
C248 C245 1.405 . S
C248 C250 1.403 . S
C248 C254 1.439 . S
C249 N246 1.319 . S
C249 C247 1.397 . S
C249 H260 0.930 . S
C250 C247 1.367 . S
C250 C248 1.403 . S
C250 H271 0.929 . S
C251 C252 1.430 . S
C251 C253 1.387 . S
C251 C257 1.404 . S
C252 C245 1.448 . S
C252 C251 1.430 . S
C252 N256 1.351 . S
C253 C251 1.387 . S
C253 C254 1.374 . S
C253 H268 0.931 . S
C254 C248 1.439 . S
C254 C253 1.374 . S
C254 H269 0.931 . S
Eu255 N246 2.600 . S
Eu255 N256 2.562 . S
Eu255 O290 2.335 . S
Eu255 O293 2.372 . S
Eu255 O294 2.462 . S
Eu255 O295 2.384 . S
Eu255 O297 2.432 . S
Eu255 O298 2.291 . S
Eu255 C319 2.787 . S
N256 C252 1.351 . S
N256 Eu255 2.562 . S
N256 C258 1.325 . S
C257 C251 1.404 . S
C257 C259 1.366 . S
C257 H265 0.930 . S
C258 N256 1.325 . S
C258 C259 1.416 . S
C258 H264 0.929 . S
C259 C257 1.366 . S
C259 C258 1.416 . S
C259 H261 0.930 . S
H260 C249 0.930 . S
H261 C259 0.930 . S
H262 C277 0.930 . S
H263 C284 0.930 . S
H264 C258 0.929 . S
H265 C257 0.930 . S
H266 C280 0.929 . S
H267 C247 0.931 . S
H268 C253 0.931 . S
H269 C254 0.931 . S
H270 C275 0.931 . S
H271 C250 0.929 . S
H272 C283 0.930 . S
N273 Eu244 2.600 . S
N273 C274 1.365 1_556 S
N273 C277 1.319 . S
C274 N273 1.365 1_554 S
C274 C276 1.405 . S
C274 C282 1.448 . S
C275 H270 0.931 . S
C275 C277 1.397 . S
C275 C278 1.367 1_556 S
C276 C274 1.405 . S
C276 C278 1.403 . S
C276 C309 1.439 . S
C277 H262 0.930 . S
C277 N273 1.319 . S
C277 C275 1.397 . S
C278 C275 1.367 1_554 S
C278 C276 1.403 . S
C278 H285 0.929 . S
N279 Eu244 2.562 1_554 S
N279 C280 1.325 . S
N279 C282 1.351 . S
C280 H266 0.929 . S
C280 N279 1.325 . S
C280 C284 1.416 . S
C281 C282 1.430 . S
C281 C283 1.404 . S
C281 C310 1.387 . S
C282 C274 1.448 . S
C282 N279 1.351 . S
C282 C281 1.430 . S
C283 H272 0.930 . S
C283 C281 1.404 . S
C283 C284 1.366 . S
C284 H263 0.930 . S
C284 C280 1.416 . S
C284 C283 1.366 . S
H285 C278 0.929 . S
H286 C309 0.931 . S
H287 C310 0.931 . S
O288 Eu244 2.462 . S
O288 C308 1.252 . S
O289 Eu244 2.373 1_554 S
O289 C300 1.249 . S
O290 Eu255 2.335 . S
O290 C300 1.264 . S
O291 Eu244 2.432 . S
O291 C308 1.268 . S
O292 Eu244 2.291 1_554 S
O292 C307 1.255 . S
O293 Eu255 2.372 . S
O293 C307 1.257 . S
O294 Eu255 2.462 . S
O294 C319 1.252 . S
O295 Eu255 2.384 . S
O295 C311 1.240 1_554 S
O296 Eu244 2.335 . S
O296 C311 1.264 . S
O297 Eu255 2.432 . S
O297 C319 1.268 . S
O298 Eu255 2.291 . S
O298 C318 1.255 . S
O299 Eu244 2.368 1_554 S
O299 C318 1.265 . S
C300 O289 1.249 . S
C300 O290 1.264 . S
C301 C304 1.382 . S
C301 C306 1.390 . S
C301 C308 1.506 . S
C302 C303 1.398 . S
C302 C306 1.392 . S
C303 C302 1.398 . S
C303 C305 1.372 . S
C303 H320 0.931 . S
C304 C301 1.382 . S
C304 C305 1.390 . S
C304 H321 0.931 . S
C305 C303 1.372 . S
C305 C304 1.390 . S
C305 H322 0.929 . S
C306 C301 1.390 . S
C306 C302 1.392 . S
C306 H323 0.930 . S
C307 O292 1.255 . S
C307 O293 1.257 . S
C308 Eu244 2.787 . S
C308 O288 1.252 . S
C308 O291 1.268 . S
C308 C301 1.506 . S
C309 C276 1.439 . S
C309 H286 0.931 . S
C309 C310 1.374 . S
C310 C281 1.387 . S
C310 H287 0.931 . S
C310 C309 1.374 . S
C311 O295 1.240 1_556 S
C311 O296 1.264 . S
C312 C315 1.382 . S
C312 C316 1.390 . S
C312 C319 1.506 . S
C313 C314 1.398 . S
C313 C316 1.392 . S
C314 C313 1.398 . S
C314 C317 1.372 . S
C314 H324 0.931 . S
C315 C312 1.382 . S
C315 C317 1.390 . S
C315 H325 0.931 . S
C316 C312 1.390 . S
C316 C313 1.392 . S
C316 H326 0.930 . S
C317 C314 1.372 . S
C317 C315 1.390 . S
C317 H327 0.929 . S
C318 O298 1.255 . S
C318 O299 1.265 . S
C319 Eu255 2.787 . S
C319 O294 1.252 . S
C319 O297 1.268 . S
C319 C312 1.506 . S
H320 C303 0.931 . S
H321 C304 0.931 . S
H322 C305 0.929 . S
H323 C306 0.930 . S
H324 C314 0.931 . S
H325 C315 0.931 . S
H326 C316 0.930 . S
H327 C317 0.929 . S
C328 C329 1.369 . S
C328 C330 1.419 . S
C328 H332 0.930 . S
C329 C328 1.369 . S
C329 C338 1.429 . S
C330 C328 1.419 . S
C330 C331 1.363 . S
C330 H333 0.929 . S
C331 C330 1.363 . S
C331 C337 1.428 . S
H332 C328 0.930 . S
H333 C330 0.929 . S
S334 N335 1.613 . S
S334 N336 1.610 . S
N335 S334 1.613 . S
N335 C338 1.350 . S
N336 S334 1.610 . S
N336 C337 1.351 . S
C337 C331 1.428 . S
C337 N336 1.351 . S
C337 C338 1.434 . S
C338 C329 1.429 . S
C338 N335 1.350 . S
C338 C337 1.434 . S
C339 C340 1.369 . S
C339 C341 1.419 . S
C339 H343 0.930 . S
C340 C339 1.369 . S
C340 C349 1.429 . S
C341 C339 1.419 . S
C341 C342 1.363 . S
C341 H344 0.929 1_554 S
C342 C341 1.363 . S
C342 C348 1.428 . S
H343 C339 0.930 . S
H344 C341 0.929 1_556 S
S345 N346 1.613 . S
S345 N347 1.610 . S
N346 S345 1.613 . S
N346 C349 1.350 . S
N347 S345 1.610 . S
N347 C348 1.351 . S
C348 C342 1.428 . S
C348 N347 1.351 . S
C348 C349 1.434 . S
C349 C340 1.429 . S
C349 N346 1.350 . S
C349 C348 1.434 . S
C350 C351 1.369 . S
C350 C352 1.419 . S
C350 H354 0.930 . S
C351 C350 1.369 . S
C351 C360 1.429 . S
C352 C350 1.419 . S
C352 C353 1.363 . S
C352 H355 0.929 . S
C353 C352 1.363 . S
C353 C359 1.428 . S
H354 C350 0.930 . S
H355 C352 0.929 . S
S356 N357 1.613 . S
S356 N358 1.610 . S
N357 S356 1.613 . S
N357 C360 1.350 . S
N358 S356 1.610 . S
N358 C359 1.351 . S
C359 C353 1.428 . S
C359 N358 1.351 . S
C359 C360 1.434 . S
C360 C351 1.429 . S
C360 N357 1.350 . S
C360 C359 1.434 . S
C361 C362 1.369 1_556 S
C361 C363 1.419 . S
C361 H365 0.930 . S
C362 C361 1.369 1_554 S
C362 C371 1.429 . S
C363 C361 1.419 . S
C363 C364 1.363 1_556 S
C363 H366 0.929 . S
C364 C363 1.363 1_554 S
C364 C370 1.428 . S
H365 C361 0.930 . S
H366 C363 0.929 . S
S367 N368 1.613 . S
S367 N369 1.610 . S
N368 S367 1.613 . S
N368 C371 1.350 . S
N369 S367 1.610 . S
N369 C370 1.351 . S
C370 C364 1.428 . S
C370 N369 1.351 . S
C370 C371 1.434 . S
C371 C362 1.429 . S
C371 N368 1.350 . S
C371 C370 1.434 . S
C372 C373 1.369 . S
C372 C374 1.419 . S
C372 H376 0.930 . S
C373 C372 1.369 . S
C373 C382 1.429 . S
C374 C372 1.419 . S
C374 C375 1.363 . S
C374 H377 0.929 . S
C375 C374 1.363 . S
C375 C381 1.428 . S
H376 C372 0.930 . S
H377 C374 0.929 . S
S378 N379 1.613 . S
S378 N380 1.610 . S
N379 S378 1.613 . S
N379 C382 1.350 . S
N380 S378 1.610 . S
N380 C381 1.351 . S
C381 C375 1.428 . S
C381 N380 1.351 . S
C381 C382 1.434 . S
C382 C373 1.429 . S
C382 N379 1.350 . S
C382 C381 1.434 . S
C383 C384 1.369 . S
C383 C385 1.419 . S
C383 H387 0.930 . S
C384 C383 1.369 . S
C384 C393 1.429 . S
C385 C383 1.419 . S
C385 C386 1.363 . S
C385 H388 0.929 . S
C386 C385 1.363 . S
C386 C392 1.428 . S
H387 C383 0.930 . S
H388 C385 0.929 . S
S389 N390 1.613 . S
S389 N391 1.610 . S
N390 S389 1.613 . S
N390 C393 1.350 . S
N391 S389 1.610 . S
N391 C392 1.351 . S
C392 C386 1.428 . S
C392 N391 1.351 . S
C392 C393 1.434 . S
C393 C384 1.429 . S
C393 N390 1.350 . S
C393 C392 1.434 . S
C394 C395 1.369 . S
C394 C396 1.419 . S
C394 H398 0.930 1_545 S
C395 C394 1.369 . S
C395 C404 1.429 . S
C396 C394 1.419 . S
C396 C397 1.363 . S
C396 H399 0.929 1_545 S
C397 C396 1.363 . S
C397 C403 1.428 . S
H398 C394 0.930 1_565 S
H399 C396 0.929 1_565 S
S400 N401 1.613 . S
S400 N402 1.610 . S
N401 S400 1.613 . S
N401 C404 1.350 . S
N402 S400 1.610 . S
N402 C403 1.351 . S
C403 C397 1.428 . S
C403 N402 1.351 . S
C403 C404 1.434 . S
C404 C395 1.429 . S
C404 N401 1.350 . S
C404 C403 1.434 . S
C405 C406 1.369 . S
C405 C407 1.419 . S
C405 H409 0.930 . S
C406 C405 1.369 . S
C406 C415 1.429 . S
C407 C405 1.419 . S
C407 C408 1.363 . S
C407 H410 0.929 . S
C408 C407 1.363 . S
C408 C414 1.428 . S
H409 C405 0.930 . S
H410 C407 0.929 . S
S411 N412 1.613 . S
S411 N413 1.610 . S
N412 S411 1.613 . S
N412 C415 1.350 . S
N413 S411 1.610 . S
N413 C414 1.351 . S
C414 C408 1.428 . S
C414 N413 1.351 . S
C414 C415 1.434 . S
C415 C406 1.429 . S
C415 N412 1.350 . S
C415 C414 1.434 . S
C416 C417 1.369 . S
C416 C418 1.419 . S
C416 H420 0.930 . S
C417 C416 1.369 . S
C417 C426 1.429 . S
C418 C416 1.419 . S
C418 C419 1.363 . S
C418 H421 0.929 . S
C419 C418 1.363 . S
C419 C425 1.428 . S
H420 C416 0.930 . S
H421 C418 0.929 . S
S422 N423 1.613 . S
S422 N424 1.610 . S
N423 S422 1.613 . S
N423 C426 1.350 . S
N424 S422 1.610 . S
N424 C425 1.351 . S
C425 C419 1.428 . S
C425 N424 1.351 . S
C425 C426 1.434 . S
C426 C417 1.429 . S
C426 N423 1.350 . S
C426 C425 1.434 . S
C427 C428 1.369 . S
C427 C429 1.419 . S
C427 H431 0.930 . S
C428 C427 1.369 . S
C428 C437 1.429 . S
C429 C427 1.419 . S
C429 C430 1.363 . S
C429 H432 0.929 . S
C430 C429 1.363 . S
C430 C436 1.428 . S
H431 C427 0.930 . S
H432 C429 0.929 . S
S433 N434 1.617 . S
S433 N435 1.610 . S
N434 S433 1.617 . S
N434 C437 1.347 1_565 S
N435 S433 1.610 . S
N435 C436 1.351 1_565 S
C436 C430 1.428 . S
C436 N435 1.351 1_545 S
C436 C437 1.434 . S
C437 C428 1.429 . S
C437 N434 1.347 1_545 S
C437 C436 1.434 . S
C438 C439 1.369 . S
C438 C440 1.419 . S
C438 H442 0.930 . S
C439 C438 1.369 . S
C439 C448 1.429 . S
C440 C438 1.419 . S
C440 C441 1.363 . S
C440 H443 0.929 . S
C441 C440 1.363 . S
C441 C447 1.428 . S
H442 C438 0.930 . S
H443 C440 0.929 . S
S444 N445 1.613 . S
S444 N446 1.610 . S
N445 S444 1.613 . S
N445 C448 1.350 . S
N446 S444 1.610 . S
N446 C447 1.351 . S
C447 C441 1.428 . S
C447 N446 1.351 . S
C447 C448 1.434 . S
C448 C439 1.429 . S
C448 N445 1.350 . S
C448 C447 1.434 . S
C449 C450 1.369 . S
C449 C451 1.419 . S
C449 H453 0.930 . S
C450 C449 1.369 . S
C450 C459 1.429 . S
C451 C449 1.419 . S
C451 C452 1.363 . S
C451 H454 0.929 . S
C452 C451 1.363 . S
C452 C458 1.428 . S
H453 C449 0.930 . S
H454 C451 0.929 . S
S455 N456 1.613 . S
S455 N457 1.610 . S
N456 S455 1.613 . S
N456 C459 1.350 . S
N457 S455 1.610 . S
N457 C458 1.351 . S
C458 C452 1.428 . S
C458 N457 1.351 . S
C458 C459 1.434 . S
C459 C450 1.429 . S
C459 N456 1.350 . S
C459 C458 1.434 . S
C331 C223 1.726 . S
C329 C135 1.684 . S
C340 C15 1.681 . S
C342 C318 1.709 . S
C351 C55 1.678 . S
C353 C234 1.710 . S
C362 C95 1.694 . S
C364 C307 1.729 . S
C375 C218 1.451 . S
C373 C2 1.568 . S
C386 C311 1.648 . S
C384 C42 1.647 . S
C395 C82 1.676 . S
C397 C227 1.696 . S
C406 C141 1.512 . S
C408 C302 1.423 . S
C419 C313 1.446 . S
C417 C61 1.563 . S
C430 C229 1.477 . S
C428 C101 1.593 . S
C441 C300 1.673 . S
C439 C122 1.618 . S
C450 C21 1.716 . S
C452 C216 1.718 . S
