# Generated by pormake.
# Topology ssa, (4,4)-cn, num edge types: 1
# Building blocks:
#     Node 0, Type 0, BuildingBlock: ESEHIV_clean_sbu_0, # of connection points: 4
#     Node 1, Type 0, BuildingBlock: ESEHIV_clean_sbu_0, # of connection points: 4
#     Node 2, Type 0, BuildingBlock: ESEHIV_clean_sbu_0, # of connection points: 4
#     Node 3, Type 0, BuildingBlock: ESEHIV_clean_sbu_0, # of connection points: 4
#     Node 4, Type 0, BuildingBlock: ESEHIV_clean_sbu_0, # of connection points: 4
#     Node 5, Type 0, BuildingBlock: ESEHIV_clean_sbu_0, # of connection points: 4
#     Node 6, Type 1, BuildingBlock: ESEHIV_clean_sbu_0, # of connection points: 4
#     Node 7, Type 1, BuildingBlock: ESEHIV_clean_sbu_0, # of connection points: 4
#     Node 8, Type 1, BuildingBlock: ESEHIV_clean_sbu_0, # of connection points: 4
#     Node 9, Type 1, BuildingBlock: ESEHIV_clean_sbu_0, # of connection points: 4
#     Node 10, Type 1, BuildingBlock: ESEHIV_clean_sbu_0, # of connection points: 4
#     Node 11, Type 1, BuildingBlock: ESEHIV_clean_sbu_0, # of connection points: 4
#     Edge 12, Type (0, 1), BuildingBlock: XUDNAN_clean_linker_2, # of connection points: 2
#     Edge 13, Type (0, 1), BuildingBlock: XUDNAN_clean_linker_2, # of connection points: 2
#     Edge 14, Type (0, 1), BuildingBlock: XUDNAN_clean_linker_2, # of connection points: 2
#     Edge 15, Type (0, 1), BuildingBlock: XUDNAN_clean_linker_2, # of connection points: 2
#     Edge 16, Type (0, 1), BuildingBlock: XUDNAN_clean_linker_2, # of connection points: 2
#     Edge 17, Type (0, 1), BuildingBlock: XUDNAN_clean_linker_2, # of connection points: 2
#     Edge 18, Type (0, 1), BuildingBlock: XUDNAN_clean_linker_2, # of connection points: 2
#     Edge 19, Type (0, 1), BuildingBlock: XUDNAN_clean_linker_2, # of connection points: 2
#     Edge 20, Type (0, 1), BuildingBlock: XUDNAN_clean_linker_2, # of connection points: 2
#     Edge 21, Type (0, 1), BuildingBlock: XUDNAN_clean_linker_2, # of connection points: 2
#     Edge 22, Type (0, 1), BuildingBlock: XUDNAN_clean_linker_2, # of connection points: 2
#     Edge 23, Type (0, 1), BuildingBlock: XUDNAN_clean_linker_2, # of connection points: 2
#     Edge 24, Type (0, 1), BuildingBlock: XUDNAN_clean_linker_2, # of connection points: 2
#     Edge 25, Type (0, 1), BuildingBlock: XUDNAN_clean_linker_2, # of connection points: 2
#     Edge 26, Type (0, 1), BuildingBlock: XUDNAN_clean_linker_2, # of connection points: 2
#     Edge 27, Type (0, 1), BuildingBlock: XUDNAN_clean_linker_2, # of connection points: 2
#     Edge 28, Type (0, 1), BuildingBlock: XUDNAN_clean_linker_2, # of connection points: 2
#     Edge 29, Type (0, 1), BuildingBlock: XUDNAN_clean_linker_2, # of connection points: 2
#     Edge 30, Type (0, 1), BuildingBlock: XUDNAN_clean_linker_2, # of connection points: 2
#     Edge 31, Type (0, 1), BuildingBlock: XUDNAN_clean_linker_2, # of connection points: 2
#     Edge 32, Type (0, 1), BuildingBlock: XUDNAN_clean_linker_2, # of connection points: 2
#     Edge 33, Type (0, 1), BuildingBlock: XUDNAN_clean_linker_2, # of connection points: 2
#     Edge 34, Type (0, 1), BuildingBlock: XUDNAN_clean_linker_2, # of connection points: 2
#     Edge 35, Type (0, 1), BuildingBlock: XUDNAN_clean_linker_2, # of connection points: 2
# Relax obj value: 0.034
# Max RMSD: 0.106
# Mean RMSD: 0.096
data_MOF--net-ssa--node1-ESEHIV_clean_sbu_0--node2-ESEHIV_clean_sbu_0--edge1-XUDNAN_clean_linker_2
_symmetry_space_group_name_H-M    P1
_symmetry_Int_Tables_number       1
_symmetry_cell_setting            triclinic
loop_
_symmetry_equiv_pos_as_xyz
'x, y, z'
_cell_length_a     48.922106
_cell_length_b     52.396482
_cell_length_c     37.123345
_cell_angle_alpha  88.01013
_cell_angle_beta   91.026606
_cell_angle_gamma 122.43907
loop_
_atom_site_label
_atom_site_type_symbol
_atom_site_fract_x
_atom_site_fract_y
_atom_site_fract_z
_atom_type_partial_charge
Cu0 Cu 0.99695 0.53492 0.04539 0.0
N1 N 0.96639 0.49357 0.0505 0.0
N2 N 0.94281 0.44399 0.0432 0.0
C3 C 0.9694 0.47172 0.03702 0.0
C4 C 0.92215 0.44858 0.06121 0.0
C5 C 0.93687 0.47929 0.06582 0.0
O6 O 0.984 0.5497 1.00202 0.0
C7 C 0.04373 0.52537 0.07646 0.0
O8 O 1.01775 0.50629 0.09533 0.0
H9 H 0.99027 0.47629 1.0217 0.0
H10 H 0.92658 0.49047 0.0787 0.0
N11 N 0.99359 0.55507 0.08392 0.0
N12 N 1.00942 0.5841 0.13205 0.0
C13 C 1.01269 0.56436 0.1133 0.0
C14 C 0.97748 0.56934 0.08429 0.0
C15 C 0.98739 0.58749 0.11392 0.0
C16 C 0.96574 0.53299 0.97652 0.0
O17 O 0.96029 0.50571 0.97391 0.0
H18 H 0.03082 0.55903 0.11921 0.0
H19 H 0.96145 0.5683 0.06313 0.0
O20 O 0.04089 0.5409 0.05074 0.0
H21 H 0.89803 0.43108 0.07 0.0
H22 H 0.98027 0.60308 0.1206 0.0
Cu23 Cu 0.56256 0.02587 0.53956 0.0
N24 N 0.57606 0.01815 0.49571 0.0
N25 N 0.58001 0.99221 0.45102 0.0
C26 C 0.56858 0.9907 0.48454 0.0
C27 C 0.5954 0.02172 0.44085 0.0
C28 C 0.59317 0.03761 0.46837 0.0
O29 O 0.51758 0.9936 0.54509 0.0
C30 C 0.61926 0.04332 0.5757 0.0
O31 O 0.63098 0.05818 0.54489 0.0
H32 H 0.55416 0.96989 0.50024 0.0
H33 H 0.60329 0.06168 0.46825 0.0
N34 N 0.56646 0.0639 0.54227 0.0
N35 N 0.57106 0.10493 0.56654 0.0
C36 C 0.56601 0.07706 0.57294 0.0
C37 C 0.57154 0.08407 0.51562 0.0
C38 C 0.57458 0.10931 0.53044 0.0
C39 C 0.49691 0.99493 0.52521 0.0
O40 O 0.50651 0.01934 0.5049 0.0
H41 H 0.56286 0.06671 0.59954 0.0
H42 H 0.57288 0.08077 0.48731 0.0
O43 O 0.58875 0.0254 0.57888 0.0
H44 H 0.60748 0.03119 0.41524 0.0
H45 H 0.57881 0.1293 0.51569 0.0
Cu46 Cu 0.54781 0.5287 0.02187 0.0
N47 N 0.55188 0.49477 1.01841 0.0
N48 N 0.55418 0.45753 0.9927 0.0
C49 C 0.55709 0.48467 0.98769 0.0
C50 C 0.54704 0.45042 0.02804 0.0
C51 C 0.54572 0.47332 0.04374 0.0
O52 O 0.57136 0.55573 0.9814 0.0
C53 C 0.48741 0.50319 0.05061 0.0
O54 O 0.50244 0.49809 0.07681 0.0
H55 H 0.56146 0.49635 0.96178 0.0
H56 H 0.53965 0.47377 0.07148 0.0
N57 N 0.56373 0.55139 0.06441 0.0
N58 N 0.5704 0.58447 0.10618 0.0
C59 C 0.55476 0.57015 0.0758 0.0
C60 C 0.58571 0.55377 0.08866 0.0
C61 C 0.59002 0.57427 0.11425 0.0
C62 C 0.60208 0.57049 0.9839 0.0
O63 O 0.61515 0.56704 1.01339 0.0
H64 H 0.53745 0.57363 0.06159 0.0
H65 H 0.598 0.54173 0.08761 0.0
O66 O 0.5023 0.51511 1.02101 0.0
H67 H 0.54272 0.42994 0.04156 0.0
H68 H 0.6062 0.58097 0.13716 0.0
Cu69 Cu 1.02002 0.49507 0.52793 0.0
N70 N 1.01271 0.47354 0.48639 0.0
N71 N 1.02254 0.45064 0.44368 0.0
C72 C 0.02831 0.45986 0.47794 0.0
C73 C 1.00245 0.45873 0.42999 0.0
C74 C 0.99624 0.47275 0.45656 0.0
O75 O 0.06698 0.52682 0.52412 0.0
C76 C 0.99455 0.46509 0.60016 0.0
O77 O 1.00463 0.49166 0.6134 0.0
H78 H 0.04554 0.45884 0.49567 0.0
H79 H 0.98225 0.48313 0.45367 0.0
N80 N 0.99636 0.51347 0.52349 0.0
N81 N 0.96158 0.52725 0.53488 0.0
C82 C 0.97171 0.50857 0.54432 0.0
C83 C 1.00151 0.53556 0.49957 0.0
C84 C 0.98029 0.54438 0.50683 0.0
C85 C 0.07857 0.55511 0.5273 0.0
O86 O 0.06103 0.56337 0.5436 0.0
H87 H 0.96205 0.49236 0.56671 0.0
H88 H 1.02006 0.54512 0.47896 0.0
O89 O 1.00152 0.4636 0.56751 0.0
H90 H 0.99405 0.45591 0.40237 0.0
H91 H 0.97891 0.56216 0.49291 0.0
Cu92 Cu 0.52126 0.99642 0.03886 0.0
N93 N 0.49242 1.00133 1.01043 0.0
N94 N 0.47243 0.02694 0.98391 0.0
C95 C 0.49386 0.02766 1.00794 0.0
C96 C 0.45682 0.99879 0.97071 0.0
C97 C 0.4693 0.98309 0.98702 0.0
O98 O 0.56327 0.03562 0.03102 0.0
C99 C 0.47252 0.962 0.09156 0.0
O100 O 0.45438 0.95503 0.06261 0.0
H101 H 0.51152 0.0474 0.02244 0.0
H102 H 0.46235 0.96027 0.98153 0.0
N103 N 0.5269 0.96629 0.02263 0.0
N104 N 0.54914 0.93855 0.02422 0.0
C105 C 0.55357 0.96577 0.03012 0.0
C106 C 0.50468 0.93842 1.0114 0.0
C107 C 0.5184 0.92126 1.01223 0.0
C108 C 0.575 0.0401 0.99907 0.0
O109 O 0.55958 0.01837 0.97593 0.0
H110 H 0.57456 0.98398 0.04343 0.0
H111 H 0.4795 0.93019 1.00637 0.0
O112 O 0.50302 0.98169 0.08841 0.0
H113 H 0.43808 0.99019 0.95036 0.0
H114 H 0.50595 0.89734 1.00712 0.0
Cu115 Cu 0.52335 0.52342 0.49973 0.0
N116 N 0.55556 0.54238 0.46486 0.0
N117 N 0.59546 0.58179 0.43414 0.0
C118 C 0.57761 0.57225 0.4645 0.0
C119 C 0.58428 0.55686 0.41451 0.0
C120 C 0.55978 0.53237 0.43382 0.0
O121 O 0.48865 0.53034 0.48289 0.0
C122 C 0.54626 0.52525 0.5739 0.0
O123 O 0.51987 0.49856 0.57988 0.0
H124 H 0.57879 0.58709 0.4849 0.0
H125 H 0.54495 0.50935 0.42497 0.0
N126 N 0.50677 0.48204 0.50218 0.0
N127 N 0.50289 0.44027 0.52541 0.0
C128 C 0.52303 0.46962 0.51512 0.0
C129 C 0.47534 0.45965 0.50295 0.0
C130 C 0.47287 0.43385 0.51703 0.0
C131 C 0.47594 0.51894 0.45234 0.0
O132 O 0.48593 0.50334 0.43652 0.0
H133 H 0.54878 0.48289 0.5203 0.0
H134 H 0.45544 0.46264 0.49732 0.0
O135 O 0.54834 0.54037 0.54498 0.0
H136 H 0.59221 0.55662 0.38756 0.0
H137 H 0.45041 0.41303 0.52406 0.0
Cu138 Cu 0.25876 0.50123 0.24157 0.0
N139 N 0.26848 0.48508 0.20328 0.0
N140 N 0.29491 0.47972 0.15875 0.0
C141 C 0.29719 0.4967 0.18657 0.0
C142 C 0.26373 0.45657 0.15796 0.0
C143 C 0.24753 0.45986 0.18553 0.0
O144 O 0.29708 0.52181 0.27441 0.0
C145 C 0.21168 0.50687 0.2045 0.0
O146 O 0.19843 0.47745 0.20601 0.0
H147 H 0.31917 0.51732 0.19439 0.0
H148 H 0.2222 0.4448 0.1922 0.0
N149 N 0.22611 0.46928 0.26924 0.0
N150 N 0.18245 0.44317 0.30435 0.0
C151 C 0.203 0.46992 0.28745 0.0
C152 C 0.22018 0.44123 0.27498 0.0
C153 C 0.19325 0.42506 0.29681 0.0
C154 C 0.30986 0.50662 0.28373 0.0
O155 O 0.29804 0.48009 0.26944 0.0
H156 H 0.20143 0.48973 0.28835 0.0
H157 H 0.23426 0.43304 0.26384 0.0
O158 O 0.23959 0.52355 0.21921 0.0
H159 H 0.25355 0.43829 0.13921 0.0
H160 H 0.18219 0.40171 0.30589 0.0
Cu161 Cu 0.80958 0.24125 0.80977 0.0
N162 N 0.80513 0.21024 0.78196 0.0
N163 N 0.78128 0.16883 0.74899 0.0
C164 C 0.77699 0.18503 0.77312 0.0
C165 C 0.81336 0.18457 0.7421 0.0
C166 C 0.82804 0.21014 0.76253 0.0
O167 O 0.76848 0.22353 0.83765 0.0
C168 C 0.85014 0.30226 0.77708 0.0
O169 O 0.8664 0.30933 0.80744 0.0
H170 H 0.75359 0.1796 0.78253 0.0
H171 H 0.85338 0.22807 0.76206 0.0
N172 N 0.84172 0.25168 0.84432 0.0
N173 N 0.87227 0.27394 0.89263 0.0
C174 C 0.84715 0.26958 0.87208 0.0
C175 C 0.8637 0.24381 0.84758 0.0
C176 C 0.88272 0.25764 0.87732 0.0
C177 C 0.76097 0.19964 0.85661 0.0
O178 O 0.78059 0.18975 0.85595 0.0
H179 H 0.83367 0.28023 0.87599 0.0
H180 H 0.86596 0.22929 0.82952 0.0
O181 O 0.82397 0.27605 0.7746 0.0
H182 H 0.82519 0.1785 0.7229 0.0
H183 H 0.9028 0.25598 0.88666 0.0
Cu184 Cu 0.60698 0.80471 0.27838 0.0
N185 N 0.6313 0.83275 0.24179 0.0
N186 N 0.64067 0.86037 0.19103 0.0
C187 C 0.61837 0.8413 0.21555 0.0
C188 C 0.66892 0.86411 0.20255 0.0
C189 C 0.66302 0.8469 0.23387 0.0
O190 O 0.58368 0.82139 0.30173 0.0
C191 C 0.59992 0.75741 0.23902 0.0
O192 O 0.63149 0.77621 0.24021 0.0
H193 H 0.59296 0.83359 0.2147 0.0
H194 H 0.68045 0.84437 0.24924 0.0
N195 N 0.63409 0.80109 0.31127 0.0
N196 N 0.65316 0.77749 0.3441 0.0
C197 C 0.62853 0.77436 0.32376 0.0
C198 C 0.66315 0.82212 0.32464 0.0
C199 C 0.67494 0.80756 0.3452 0.0
C200 C 0.58884 0.83077 0.33411 0.0
O201 O 0.60626 0.8246 0.35564 0.0
H202 H 0.60692 0.75289 0.31746 0.0
H203 H 0.67521 0.8462 0.3191 0.0
O204 O 0.58216 0.76512 0.25428 0.0
H205 H 0.69201 0.87771 0.18896 0.0
H206 H 0.69812 0.81813 0.35878 0.0
Cu207 Cu 0.7873 0.57698 0.7655 0.0
N208 N 0.82097 0.59093 0.73271 0.0
N209 N 0.84914 0.58693 0.68912 0.0
C210 C 0.82002 0.57456 0.70516 0.0
C211 C 0.86906 0.61261 0.70683 0.0
C212 C 0.85158 0.61498 0.73388 0.0
O213 O 0.7976 0.55776 0.80648 0.0
C214 C 0.7175 0.54385 0.74055 0.0
O215 O 0.70655 0.537 0.77379 0.0
H216 H 0.79869 0.55301 0.69853 0.0
H217 H 0.86103 0.63195 0.75421 0.0
N218 N 0.78826 0.60982 0.78477 0.0
N219 N 0.76835 0.63411 0.81134 0.0
C220 C 0.76229 0.61188 0.78905 0.0
C221 C 0.81192 0.63192 0.80454 0.0
C222 C 0.79969 0.64695 0.82102 0.0
C223 C 0.81621 0.54755 0.80432 0.0
O224 O 0.82303 0.54237 0.7724 0.0
H225 H 0.73847 0.59542 0.77917 0.0
H226 H 0.83544 0.63514 0.80922 0.0
O227 O 0.74785 0.55629 0.73465 0.0
H228 H 0.89486 0.62744 0.70232 0.0
H229 H 0.81212 0.66432 0.84077 0.0
Cu230 Cu 0.27083 0.77934 0.3273 0.0
N231 N 0.23415 0.76934 0.29957 0.0
N232 N 0.18664 0.73946 0.2721 0.0
C233 C 0.21144 0.7409 0.2906 0.0
C234 C 0.19427 0.76831 0.26904 0.0
C235 C 0.22351 0.78666 0.28601 0.0
O236 O 0.25765 0.74156 0.35597 0.0
C237 C 0.31596 0.82216 0.27713 0.0
O238 O 0.29675 0.83215 0.28137 0.0
H239 H 0.21329 0.72166 0.29756 0.0
H240 H 0.23578 0.81086 0.2885 0.0
N241 N 0.27949 0.80868 0.36068 0.0
N242 N 0.30483 0.84083 0.40514 0.0
C243 C 0.30323 0.81894 0.38543 0.0
C244 C 0.26536 0.82446 0.3651 0.0
C245 C 0.28117 0.84454 0.39238 0.0
C246 C 0.23451 0.73359 0.37838 0.0
O247 O 0.2233 0.75132 0.38087 0.0
H248 H 0.31964 0.81109 0.38818 0.0
H249 H 0.24511 0.82175 0.34965 0.0
O250 O 0.30956 0.79808 0.2949 0.0
H251 H 0.17953 0.77568 0.25615 0.0
H252 H 0.27575 0.86061 0.40206 0.0
Cu253 Cu 0.52285 0.25842 0.78082 0.0
N254 N 0.50315 0.26698 0.74316 0.0
N255 N 0.49855 0.29401 0.69829 0.0
C256 C 0.51309 0.29485 0.72992 0.0
C257 C 0.47846 0.2643 0.69168 0.0
C258 C 0.48154 0.24773 0.71925 0.0
O259 O 0.54501 0.29505 0.811 0.0
C260 C 0.53452 0.21787 0.74553 0.0
O261 O 0.5039 0.19921 0.75396 0.0
H262 H 0.5317 0.31524 0.74262 0.0
H263 H 0.47034 0.22346 0.72057 0.0
N264 N 0.49155 0.22585 0.80918 0.0
N265 N 0.47052 0.18782 0.84988 0.0
C266 C 0.49765 0.2131 0.8377 0.0
C267 C 0.45938 0.20823 0.80353 0.0
C268 C 0.44636 0.18447 0.82845 0.0
C269 C 0.52792 0.29859 0.83377 0.0
O270 O 0.49715 0.27726 0.83727 0.0
H271 H 0.52172 0.22126 0.84805 0.0
H272 H 0.44644 0.21173 0.78204 0.0
O273 O 0.549 0.2452 0.7563 0.0
H274 H 0.46405 0.25512 0.66761 0.0
H275 H 0.42134 0.16585 0.83026 0.0
H276 H 0.05153 0.48499 0.1156 0.0
H277 H 0.10717 0.57498 0.06656 0.0
H278 H 0.1572 0.58197 0.09509 0.0
H279 H 0.09207 0.50221 0.19952 0.0
H280 H 0.0895 0.46665 0.20442 0.0
H281 H 0.05922 0.46894 0.17889 0.0
H282 H 0.07072 0.44746 0.12331 0.0
H283 H 0.10067 0.44466 0.14887 0.0
H284 H 0.11156 0.46563 0.10649 0.0
H285 H 0.2018 0.5786 0.13383 0.0
H286 H 0.23407 0.56363 0.17138 0.0
H287 H 0.14681 0.47612 0.19315 0.0
C288 C 0.07423 0.50618 0.11041 0.0
C289 C 0.07523 0.52941 0.08861 0.0
C290 C 0.10566 0.55666 0.08273 0.0
C291 C 0.13419 0.56088 0.09917 0.0
C292 C 0.13202 0.5376 0.12132 0.0
C293 C 0.1026 0.51064 0.12641 0.0
C294 C 0.10584 0.48879 0.15111 0.0
C295 C 0.08545 0.48122 0.18551 0.0
C296 C 0.09667 0.45994 0.13125 0.0
C297 C 0.14169 0.50742 0.15944 0.0
C298 C 0.1567 0.53563 0.14243 0.0
C299 C 0.19002 0.55646 0.147 0.0
C300 C 0.20822 0.54789 0.16864 0.0
C301 C 0.19317 0.51865 0.18529 0.0
C302 C 0.15935 0.49861 0.18075 0.0
H303 H 0.68503 0.08115 0.57703 0.0
H304 H 0.60174 0.02617 0.64657 0.0
H305 H 0.63668 0.04809 0.69999 0.0
H306 H 0.74676 0.08039 0.63785 0.0
H307 H 0.77683 0.11914 0.62555 0.0
H308 H 0.74649 0.09516 0.59335 0.0
H309 H 0.7297 0.13425 0.58512 0.0
H310 H 0.75966 0.15816 0.61742 0.0
H311 H 0.71784 0.14576 0.62402 0.0
H312 H 0.67853 0.08212 0.74492 0.0
H313 H 0.72456 0.12369 0.77774 0.0
H314 H 0.78039 0.15583 0.67885 0.0
C315 C 0.67426 0.07299 0.60349 0.0
C316 C 0.64066 0.05187 0.60761 0.0
C317 C 0.62747 0.04213 0.64273 0.0
C318 C 0.64714 0.05448 0.67324 0.0
C319 C 0.67997 0.07618 0.66816 0.0
C320 C 0.69352 0.08501 0.63412 0.0
C321 C 0.72868 0.11072 0.63567 0.0
C322 C 0.75101 0.10074 0.62232 0.0
C323 C 0.73427 0.13887 0.61431 0.0
C324 C 0.73248 0.11587 0.67577 0.0
C325 C 0.70423 0.09553 0.69413 0.0
C326 C 0.70098 0.09771 0.73094 0.0
C327 C 0.72711 0.12146 0.7493 0.0
C328 C 0.75608 0.1427 0.73086 0.0
C329 C 0.75889 0.13942 0.69379 0.0
H330 H 0.61786 0.63325 0.14165 0.0
H331 H 0.51599 0.58595 0.11423 0.0
H332 H 0.51089 0.62372 0.1469 0.0
H333 H 0.61189 0.65529 0.23067 0.0
H334 H 0.6492 0.69178 0.22629 0.0
H335 H 0.6438 0.6603 0.20188 0.0
H336 H 0.65643 0.69179 0.14216 0.0
H337 H 0.66164 0.72319 0.16659 0.0
H338 H 0.63297 0.70805 0.13006 0.0
H339 H 0.51783 0.66832 0.18392 0.0
H340 H 0.53672 0.71528 0.21753 0.0
H341 H 0.63401 0.73278 0.21859 0.0
C342 C 0.59441 0.63065 0.14279 0.0
C343 C 0.5673 0.60646 0.12544 0.0
C344 C 0.53717 0.60434 0.12707 0.0
C345 C 0.53403 0.62566 0.14576 0.0
C346 C 0.56132 0.64932 0.16251 0.0
C347 C 0.59098 0.65194 0.16085 0.0
C348 C 0.61697 0.6799 0.17974 0.0
C349 C 0.63129 0.67129 0.21155 0.0
C350 C 0.64356 0.70204 0.15304 0.0
C351 C 0.59744 0.69258 0.19262 0.0
C352 C 0.56533 0.67471 0.18268 0.0
C353 C 0.54299 0.68241 0.19172 0.0
C354 C 0.55387 0.7091 0.21094 0.0
C355 C 0.58688 0.72799 0.22069 0.0
C356 C 0.60862 0.71915 0.2115 0.0
H357 H 0.96517 0.57922 0.54941 0.0
H358 H 0.90538 0.4817 0.5634 0.0
H359 H 0.86685 0.48654 0.60024 0.0
H360 H 0.95768 0.59516 0.63767 0.0
H361 H 0.9568 0.62849 0.62664 0.0
H362 H 0.97729 0.61738 0.59733 0.0
H363 H 0.94224 0.61632 0.54353 0.0
H364 H 0.92173 0.62763 0.57266 0.0
H365 H 0.89871 0.59372 0.54721 0.0
H366 H 0.83775 0.50194 0.63913 0.0
H367 H 0.8203 0.52659 0.67962 0.0
H368 H 0.89928 0.6147 0.64144 0.0
C369 C 0.94347 0.55893 0.55944 0.0
C370 C 0.93788 0.53005 0.55339 0.0
C371 C 0.90988 0.50396 0.56783 0.0
C372 C 0.88787 0.50651 0.58854 0.0
C373 C 0.89437 0.53535 0.59462 0.0
C374 C 0.92148 0.56113 0.58055 0.0
C375 C 0.92429 0.58946 0.59387 0.0
C376 C 0.95588 0.60874 0.61514 0.0
C377 C 0.92157 0.60787 0.56244 0.0
C378 C 0.89493 0.57555 0.61826 0.0
C379 C 0.87779 0.54433 0.61781 0.0
C380 C 0.85063 0.52638 0.6393 0.0
C381 C 0.8408 0.54068 0.66211 0.0
C382 C 0.85819 0.57269 0.66349 0.0
C383 C 0.88547 0.59025 0.64096 0.0
H384 H 0.41047 0.93904 0.11342 0.0
H385 H 0.49823 0.94333 0.14606 0.0
H386 H 0.46813 0.90662 0.1966 0.0
H387 H 0.38007 0.93386 0.20441 0.0
H388 H 0.3385 0.90902 0.19093 0.0
H389 H 0.3678 0.93615 0.15895 0.0
H390 H 0.35268 0.89282 0.11551 0.0
H391 H 0.32378 0.86549 0.14763 0.0
H392 H 0.3555 0.8613 0.13095 0.0
H393 H 0.42484 0.86476 0.24184 0.0
H394 H 0.37686 0.82963 0.28004 0.0
H395 H 0.31956 0.85587 0.21787 0.0
C396 C 0.42359 0.9327 0.13155 0.0
C397 C 0.45687 0.94432 0.12577 0.0
C398 C 0.47293 0.93521 0.15014 0.0
C399 C 0.45585 0.91407 0.17875 0.0
C400 C 0.42273 0.90246 0.18304 0.0
C401 C 0.4071 0.91212 0.16035 0.0
C402 C 0.37166 0.89689 0.1704 0.0
C403 C 0.36407 0.92038 0.18186 0.0
C404 C 0.34962 0.87801 0.13927 0.0
C405 C 0.3694 0.87678 0.20208 0.0
C406 C 0.39887 0.87986 0.20898 0.0
C407 C 0.40184 0.86256 0.23665 0.0
C408 C 0.37437 0.8424 0.25809 0.0
C409 C 0.34432 0.83989 0.25213 0.0
C410 C 0.34211 0.85724 0.2234 0.0
H411 H 0.46554 0.37939 0.53912 0.0
H412 H 0.55718 0.46042 0.567 0.0
H413 H 0.56695 0.43091 0.61199 0.0
H414 H 0.44296 0.3518 0.62837 0.0
H415 H 0.42394 0.31249 0.61781 0.0
H416 H 0.42559 0.33901 0.5844 0.0
H417 H 0.45405 0.32356 0.53981 0.0
H418 H 0.45227 0.29679 0.57301 0.0
H419 H 0.4906 0.3254 0.55345 0.0
H420 H 0.56522 0.39375 0.65739 0.0
H421 H 0.5529 0.35096 0.6982 0.0
H422 H 0.46079 0.29484 0.64387 0.0
C423 C 0.48781 0.391 0.55439 0.0
C424 C 0.51052 0.42238 0.54899 0.0
C425 C 0.53947 0.43643 0.56969 0.0
C426 C 0.54522 0.41987 0.59574 0.0
C427 C 0.52185 0.38929 0.601 0.0
C428 C 0.4938 0.37492 0.58082 0.0
C429 C 0.47176 0.34219 0.5932 0.0
C430 C 0.43914 0.33603 0.60675 0.0
C431 C 0.4669 0.32072 0.56307 0.0
C432 C 0.49167 0.34057 0.62383 0.0
C433 C 0.52055 0.36792 0.62771 0.0
C434 C 0.54271 0.37215 0.65455 0.0
C435 C 0.53526 0.34767 0.67791 0.0
C436 C 0.50573 0.31929 0.67454 0.0
C437 C 0.48373 0.31595 0.64705 0.0
H438 H 0.586 0.94477 0.47198 0.0
H439 H 0.56487 0.98471 0.38024 0.0
H440 H 0.56011 0.94511 0.34134 0.0
H441 H 0.63643 0.92783 0.42383 0.0
H442 H 0.62356 0.89281 0.44823 0.0
H443 H 0.62205 0.92237 0.46956 0.0
H444 H 0.56107 0.88505 0.48307 0.0
H445 H 0.56239 0.85537 0.46168 0.0
H446 H 0.5337 0.86501 0.44664 0.0
H447 H 0.55939 0.90172 0.31157 0.0
H448 H 0.5671 0.86115 0.29277 0.0
H449 H 0.59142 0.85049 0.40292 0.0
C450 C 0.5798 0.94477 0.44384 0.0
C451 C 0.57548 0.96774 0.42922 0.0
C452 C 0.56823 0.96739 0.39203 0.0
C453 C 0.56535 0.94487 0.36975 0.0
C454 C 0.57011 0.92277 0.38479 0.0
C455 C 0.57743 0.92266 0.42096 0.0
C456 C 0.58377 0.89768 0.4297 0.0
C457 C 0.61852 0.91097 0.44365 0.0
C458 C 0.55874 0.8744 0.45689 0.0
C459 C 0.57922 0.88402 0.39284 0.0
C460 C 0.57084 0.89852 0.3674 0.0
C461 C 0.56585 0.89018 0.33136 0.0
C462 C 0.57015 0.86693 0.3209 0.0
C463 C 0.57978 0.85234 0.3462 0.0
C464 C 0.5839 0.86094 0.38278 0.0
H465 H 0.6678 0.60609 0.9838 0.0
H466 H 0.58416 0.57426 0.91414 0.0
H467 H 0.62054 0.59764 0.86142 0.0
H468 H 0.72513 0.67797 0.93039 0.0
H469 H 0.75846 0.67322 0.93976 0.0
H470 H 0.72645 0.66033 0.97239 0.0
H471 H 0.71691 0.60663 0.97267 0.0
H472 H 0.74873 0.61931 0.94025 0.0
H473 H 0.70876 0.58744 0.93072 0.0
H474 H 0.66496 0.61546 0.81596 0.0
H475 H 0.71283 0.62506 0.78216 0.0
H476 H 0.76709 0.64504 0.88177 0.0
C477 C 0.6571 0.60483 0.95762 0.0
C478 C 0.62316 0.58842 0.95306 0.0
C479 C 0.61011 0.58694 0.91829 0.0
C480 C 0.63062 0.60025 0.88822 0.0
C481 C 0.66404 0.61529 0.89353 0.0
C482 C 0.67716 0.6179 0.92751 0.0
C483 C 0.71331 0.63147 0.9258 0.0
C484 C 0.73193 0.6626 0.94311 0.0
C485 C 0.72242 0.60992 0.94336 0.0
C486 C 0.71827 0.63442 0.88544 0.0
C487 C 0.68975 0.62568 0.86723 0.0
C488 C 0.68757 0.62308 0.82989 0.0
C489 C 0.71482 0.62847 0.81092 0.0
C490 C 0.74374 0.63608 0.82932 0.0
C491 C 0.74572 0.64023 0.86684 0.0
H492 H 0.10428 0.61633 0.52179 0.0
H493 H 0.1193 0.54728 0.48435 0.0
H494 H 0.16374 0.5857 0.44471 0.0
H495 H 0.11457 0.65308 0.43783 0.0
H496 H 0.13442 0.69052 0.45557 0.0
H497 H 0.10646 0.65827 0.48329 0.0
H498 H 0.15072 0.67374 0.53216 0.0
H499 H 0.17882 0.70616 0.50461 0.0
H500 H 0.18917 0.67939 0.52008 0.0
H501 H 0.20551 0.63311 0.40518 0.0
H502 H 0.23764 0.68232 0.37128 0.0
H503 H 0.19331 0.71845 0.43505 0.0
C504 C 0.11727 0.60923 0.5059 0.0
C505 C 0.10827 0.57859 0.50675 0.0
C506 C 0.12578 0.57054 0.48473 0.0
C507 C 0.1511 0.59229 0.46196 0.0
C508 C 0.15883 0.62219 0.46131 0.0
C509 C 0.14234 0.63053 0.48297 0.0
C510 C 0.15364 0.66347 0.47618 0.0
C511 C 0.12561 0.66649 0.4624 0.0
C512 C 0.169 0.68176 0.51029 0.0
C513 C 0.17882 0.67247 0.44703 0.0
C514 C 0.18186 0.6486 0.43879 0.0
C515 C 0.20331 0.65189 0.41178 0.0
C516 C 0.22162 0.68 0.39266 0.0
C517 C 0.21825 0.7045 0.40034 0.0
C518 C 0.19671 0.7004 0.42829 0.0
H519 H 0.44576 0.03313 0.9214 0.0
H520 H 0.49264 0.07835 1.02051 0.0
H521 H 0.49379 0.1236 0.99828 0.0
H522 H 0.48853 0.09485 0.86274 0.0
H523 H 0.45479 0.08624 0.83386 0.0
H524 H 0.4551 0.05626 0.85859 0.0
H525 H 0.39986 0.03933 0.88758 0.0
H526 H 0.39925 0.06919 0.86272 0.0
H527 H 0.39535 0.06639 0.91111 0.0
H528 H 0.49641 0.1661 0.96235 0.0
H529 H 0.49564 0.20139 0.91664 0.0
H530 H 0.44311 0.12775 0.84341 0.0
C531 C 0.45557 0.05217 0.93891 0.0
C532 C 0.46954 0.05207 0.9726 0.0
C533 C 0.48246 0.07787 0.99427 0.0
C534 C 0.48298 0.10371 0.98203 0.0
C535 C 0.46988 0.1033 0.94833 0.0
C536 C 0.4559 0.07805 0.92732 0.0
C537 C 0.44456 0.08394 0.89154 0.0
C538 C 0.46179 0.0801 0.85983 0.0
C539 C 0.40755 0.0635 0.88805 0.0
C540 C 0.45527 0.11672 0.89534 0.0
C541 C 0.46986 0.12747 0.92832 0.0
C542 C 0.48434 0.15779 0.93679 0.0
C543 C 0.48393 0.17764 0.9108 0.0
C544 C 0.46879 0.16696 0.87712 0.0
C545 C 0.45397 0.1361 0.86949 0.0
H546 H 0.44092 0.48928 0.39313 0.0
H547 H 0.45396 0.55713 0.4672 0.0
H548 H 0.41429 0.56362 0.43157 0.0
H549 H 0.43456 0.52467 0.31237 0.0
H550 H 0.40463 0.48938 0.29269 0.0
H551 H 0.43361 0.49056 0.32428 0.0
H552 H 0.38697 0.4491 0.36436 0.0
H553 H 0.35785 0.4476 0.33274 0.0
H554 H 0.35579 0.45472 0.37946 0.0
H555 H 0.37186 0.56229 0.38419 0.0
H556 H 0.33142 0.55104 0.33558 0.0
H557 H 0.34824 0.48403 0.29506 0.0
C558 C 0.4356 0.50559 0.40218 0.0
C559 C 0.45086 0.52273 0.43322 0.0
C560 C 0.44267 0.5436 0.44373 0.0
C561 C 0.4202 0.5475 0.42345 0.0
C562 C 0.40594 0.53033 0.39267 0.0
C563 C 0.4134 0.50964 0.38247 0.0
C564 C 0.39497 0.4934 0.34895 0.0
C565 C 0.41834 0.4999 0.31774 0.0
C566 C 0.37257 0.45919 0.35686 0.0
C567 C 0.3757 0.50795 0.34153 0.0
C568 C 0.38223 0.52938 0.36668 0.0
C569 C 0.36676 0.54548 0.36457 0.0
C570 C 0.34388 0.53908 0.33668 0.0
C571 C 0.3364 0.5166 0.31126 0.0
C572 C 0.35307 0.5013 0.3139 0.0
H573 H 0.8852 0.39585 0.022 0.0
H574 H 0.98742 0.42947 0.03243 0.0
H575 H 0.97884 0.38486 1.00127 0.0
H576 H 0.85513 0.3131 0.0314 0.0
H577 H 0.8238 0.30342 0.9984 0.0
H578 H 0.83708 0.33532 0.02668 0.0
H579 H 0.84938 0.36994 0.9698 0.0
H580 H 0.83644 0.33831 0.94142 0.0
H581 H 0.87638 0.37179 0.9359 0.0
H582 H 0.96065 0.34076 0.96176 0.0
H583 H 0.93434 0.30077 0.9171 0.0
H584 H 0.84345 0.29471 0.93434 0.0
C585 C 0.90553 0.39327 1.01886 0.0
C586 C 0.93695 0.41607 0.02966 0.0
C587 C 0.96318 0.41235 0.02409 0.0
C588 C 0.9585 0.38698 1.0067 0.0
C589 C 0.92737 0.36538 0.99533 0.0
C590 C 0.90126 0.36811 1.00148 0.0
C591 C 0.87093 0.34334 0.98348 0.0
C592 C 0.84522 0.32256 1.01168 0.0
C593 C 0.85753 0.35665 0.95603 0.0
C594 C 0.88439 0.32708 0.96499 0.0
C595 C 0.91685 0.3398 0.97259 0.0
C596 C 0.93506 0.33017 0.9562 0.0
C597 C 0.91983 0.30731 0.93088 0.0
C598 C 0.88674 0.29448 0.92198 0.0
C599 C 0.86878 0.30408 0.94017 0.0
H600 H 0.93605 0.51003 0.91116 0.0
H601 H 0.94965 0.57472 0.99045 0.0
H602 H 0.9112 0.58376 0.95699 0.0
H603 H 0.93116 0.55227 0.83319 0.0
H604 H 0.90148 0.5185 0.81054 0.0
H605 H 0.93025 0.51764 0.8407 0.0
H606 H 0.88299 0.47331 0.87711 0.0
H607 H 0.85406 0.47436 0.84741 0.0
H608 H 0.85195 0.47784 0.89526 0.0
H609 H 0.86748 0.58296 0.91611 0.0
H610 H 0.82969 0.57821 0.86762 0.0
H611 H 0.84711 0.5164 0.813 0.0
C612 C 0.9313 0.52642 0.9213 0.0
C613 C 0.94615 0.54171 0.95362 0.0
C614 C 0.93904 0.56291 0.96573 0.0
C615 C 0.91692 0.568 0.94698 0.0
C616 C 0.90222 0.55207 0.91569 0.0
C617 C 0.90971 0.53217 0.90254 0.0
C618 C 0.89134 0.51851 0.86778 0.0
C619 C 0.91496 0.52726 0.83618 0.0
C620 C 0.86875 0.48395 0.87217 0.0
C621 C 0.87207 0.53353 0.86351 0.0
C622 C 0.87832 0.55253 0.89166 0.0
C623 C 0.8627 0.56829 0.89387 0.0
C624 C 0.84095 0.56523 0.86627 0.0
C625 C 0.83511 0.54685 0.83633 0.0
C626 C 0.85083 0.53061 0.83542 0.0
H627 H 0.44688 0.99155 0.48708 0.0
H628 H 0.47376 0.93671 0.54947 0.0
H629 H 0.4231 0.89052 0.53082 0.0
H630 H 0.35713 0.94127 0.50227 0.0
H631 H 0.34868 0.94872 0.45701 0.0
H632 H 0.38421 0.97738 0.48017 0.0
H633 H 0.42003 0.98083 0.4273 0.0
H634 H 0.3848 0.95205 0.4042 0.0
H635 H 0.41797 0.94711 0.41377 0.0
H636 H 0.37469 0.85058 0.4972 0.0
H637 H 0.33014 0.82004 0.45454 0.0
H638 H 0.33414 0.90083 0.41547 0.0
C639 C 0.44169 0.96989 0.49771 0.0
C640 C 0.46425 0.96775 0.51978 0.0
C641 C 0.45673 0.93894 0.53277 0.0
C642 C 0.42801 0.91256 0.52228 0.0
C643 C 0.40689 0.91543 0.49931 0.0
C644 C 0.41312 0.94342 0.48768 0.0
C645 C 0.38796 0.94038 0.46079 0.0
C646 C 0.36833 0.95266 0.47598 0.0
C647 C 0.40364 0.95601 0.42438 0.0
C648 C 0.36738 0.90635 0.45788 0.0
C649 C 0.37851 0.89233 0.48052 0.0
C650 C 0.36529 0.86124 0.48 0.0
C651 C 0.34022 0.84412 0.45557 0.0
C652 C 0.32859 0.85811 0.43212 0.0
C653 C 0.34203 0.88952 0.43381 0.0
H654 H 0.51908 0.39589 0.98987 0.0
H655 H 0.594 0.47715 0.93416 0.0
H656 H 0.59836 0.44571 0.88892 0.0
H657 H 0.5512 0.34889 0.97514 0.0
H658 H 0.51192 0.31524 0.96808 0.0
H659 H 0.51595 0.34419 0.99663 0.0
H660 H 0.47359 0.34804 0.95804 0.0
H661 H 0.46928 0.31898 0.92955 0.0
H662 H 0.47973 0.35512 0.91009 0.0
H663 H 0.59462 0.40379 0.84953 0.0
H664 H 0.57906 0.35698 0.81744 0.0
H665 H 0.50482 0.30398 0.89774 0.0
C666 C 0.53665 0.4071 0.96837 0.0
C667 C 0.55645 0.43913 0.96588 0.0
C668 C 0.57855 0.45276 0.9367 0.0
C669 C 0.58131 0.435 0.91097 0.0
C670 C 0.56151 0.40348 0.91432 0.0
C671 C 0.53931 0.38974 0.94215 0.0
C672 C 0.51956 0.35559 0.93884 0.0
C673 C 0.52499 0.34007 0.97162 0.0
C674 C 0.4834 0.34374 0.93382 0.0
C675 C 0.53402 0.35212 0.90489 0.0
C676 C 0.55851 0.37989 0.89127 0.0
C677 C 0.5754 0.38201 0.86007 0.0
C678 C 0.56657 0.35525 0.84207 0.0
C679 C 0.54074 0.32668 0.85493 0.0
C680 C 0.52467 0.32538 0.88704 0.0
H681 H 0.04831 0.46884 0.3769 0.0
H682 H 0.03703 0.4102 0.46814 0.0
H683 H 0.07283 0.39722 0.43859 0.0
H684 H 0.0553 0.42417 0.30527 0.0
H685 H 0.0858 0.45795 0.28141 0.0
H686 H 0.05504 0.45839 0.30688 0.0
H687 H 0.09972 0.50365 0.34265 0.0
H688 H 0.13053 0.50312 0.31761 0.0
H689 H 0.13017 0.50012 0.36614 0.0
H690 H 0.11394 0.39476 0.402 0.0
H691 H 0.15869 0.40433 0.36219 0.0
H692 H 0.14422 0.46584 0.29576 0.0
C693 C 0.05249 0.45244 0.38995 0.0
C694 C 0.03961 0.44006 0.42444 0.0
C695 C 0.04658 0.41964 0.44154 0.0
C696 C 0.06674 0.4121 0.42492 0.0
C697 C 0.07979 0.42533 0.39127 0.0
C698 C 0.07292 0.44505 0.37393 0.0
C699 C 0.09281 0.45877 0.33988 0.0
C700 C 0.07093 0.44924 0.30638 0.0
C701 C 0.11459 0.49346 0.34172 0.0
C702 C 0.11256 0.44433 0.34132 0.0
C703 C 0.10431 0.42471 0.37078 0.0
C704 C 0.12032 0.40977 0.37858 0.0
C705 C 0.14564 0.41528 0.35582 0.0
C706 C 0.15494 0.43586 0.326 0.0
C707 C 0.13781 0.45018 0.31853 0.0
H708 H 0.61897 0.04676 0.94979 0.0
H709 H 0.59635 0.09915 1.01663 0.0
H710 H 0.63993 0.14646 0.98598 0.0
H711 H 0.70642 0.09976 0.94912 0.0
H712 H 0.71028 0.09161 0.90338 0.0
H713 H 0.67807 0.06297 0.93156 0.0
H714 H 0.63628 0.05732 0.88344 0.0
H715 H 0.66831 0.08638 0.85545 0.0
H716 H 0.6354 0.09006 0.86891 0.0
H717 H 0.68517 0.18863 0.94262 0.0
H718 H 0.73057 0.2198 0.89952 0.0
H719 H 0.72357 0.13852 0.86453 0.0
C720 C 0.62344 0.06822 0.95844 0.0
C721 C 0.60425 0.06917 0.98584 0.0
C722 C 0.61097 0.09778 0.99616 0.0
C723 C 0.6355 0.12477 0.97854 0.0
C724 C 0.65345 0.12287 0.9509 0.0
C725 C 0.64797 0.09516 0.9416 0.0
C726 C 0.67059 0.09867 0.91173 0.0
C727 C 0.69265 0.08761 0.92474 0.0
C728 C 0.6515 0.08212 0.87789 0.0
C729 C 0.68969 0.13266 0.90524 0.0
C730 C 0.67938 0.14645 0.92759 0.0
C731 C 0.69341 0.17786 0.92533 0.0
C732 C 0.71901 0.19545 0.90049 0.0
C733 C 0.73067 0.18168 0.87856 0.0
C734 C 0.71533 0.14982 0.88094 0.0
H735 H 0.59582 0.60621 0.36881 0.0
H736 H 0.63957 0.62761 0.4747 0.0
H737 H 0.6666 0.68228 0.45942 0.0
H738 H 0.66381 0.67412 0.31853 0.0
H739 H 0.63596 0.67861 0.2909 0.0
H740 H 0.62536 0.64134 0.30625 0.0
H741 H 0.5727 0.63151 0.33481 0.0
H742 H 0.58238 0.66823 0.31897 0.0
H743 H 0.57476 0.65796 0.36625 0.0
H744 H 0.68163 0.73389 0.43605 0.0
H745 H 0.68289 0.77772 0.4067 0.0
H746 H 0.62851 0.72215 0.3166 0.0
C747 C 0.61231 0.62248 0.38805 0.0
C748 C 0.61616 0.61291 0.42266 0.0
C749 C 0.63672 0.63471 0.4479 0.0
C750 C 0.65217 0.66572 0.43942 0.0
C751 C 0.64677 0.6745 0.40553 0.0
C752 C 0.62753 0.65348 0.38011 0.0
C753 C 0.62215 0.66845 0.34758 0.0
C754 C 0.63776 0.66541 0.31382 0.0
C755 C 0.58586 0.65579 0.34159 0.0
C756 C 0.64004 0.70087 0.35937 0.0
C757 C 0.65471 0.70412 0.39248 0.0
C758 C 0.67075 0.73172 0.40979 0.0
C759 C 0.67139 0.75648 0.39298 0.0
C760 C 0.65564 0.75325 0.35956 0.0
C761 C 0.64048 0.72523 0.34234 0.0
H762 H 0.53474 0.09254 0.62745 0.0
H763 H 0.61191 0.16588 0.56365 0.0
H764 H 0.61447 0.20293 0.60536 0.0
H765 H 0.49404 0.13037 0.6446 0.0
H766 H 0.48176 0.11483 0.68974 0.0
H767 H 0.48812 0.09412 0.65679 0.0
H768 H 0.52922 0.09168 0.69939 0.0
H769 H 0.52304 0.11252 0.73244 0.0
H770 H 0.56329 0.12623 0.71625 0.0
H771 H 0.60737 0.23261 0.65394 0.0
H772 H 0.58813 0.25166 0.70131 0.0
H773 H 0.51423 0.15919 0.73187 0.0
C774 C 0.55253 0.11637 0.62267 0.0
C775 C 0.57332 0.12624 0.59231 0.0
C776 C 0.59571 0.15773 0.58658 0.0
C777 C 0.59745 0.17897 0.6103 0.0
C778 C 0.57643 0.16858 0.63975 0.0
C779 C 0.55421 0.13798 0.64585 0.0
C780 C 0.53283 0.13286 0.67796 0.0
C781 C 0.49708 0.11712 0.66658 0.0
C782 C 0.53738 0.11475 0.70831 0.0
C783 C 0.54623 0.16526 0.68874 0.0
C784 C 0.5717 0.18558 0.66676 0.0
C785 C 0.58749 0.21681 0.67136 0.0
C786 C 0.57654 0.22749 0.69851 0.0
C787 C 0.54972 0.20707 0.72054 0.0
C788 C 0.53486 0.17553 0.71567 0.0
H789 H 0.46796 0.51096 0.11479 0.0
H790 H 0.43722 0.48896 1.00385 0.0
H791 H 0.3845 0.48247 1.01888 0.0
H792 H 0.39341 0.45975 0.15728 0.0
H793 H 0.39838 0.48532 0.19173 0.0
H794 H 0.43342 0.4887 0.17165 0.0
H795 H 0.45556 0.54482 0.15402 0.0
H796 H 0.42052 0.5416 0.17405 0.0
H797 H 0.4307 0.55424 0.12767 0.0
H798 H 0.33371 0.47449 0.04802 0.0
H799 H 0.29051 0.46923 0.0874 0.0
H800 H 0.35671 0.49988 0.1779 0.0
C801 C 0.45009 0.50469 0.09364 0.0
C802 C 0.45625 0.49996 0.05828 0.0
C803 C 0.43272 0.4925 0.03112 0.0
C804 C 0.40283 0.4888 0.03945 0.0
C805 C 0.39741 0.49337 0.0748 0.0
C806 C 0.42064 0.50159 0.10128 0.0
C807 C 0.40923 0.50551 0.13708 0.0
C808 C 0.40856 0.4835 0.16613 0.0
C809 C 0.43025 0.5385 0.14889 0.0
C810 C 0.37544 0.4973 0.127 0.0
C811 C 0.36901 0.49032 0.09099 0.0
C812 C 0.33865 0.48031 0.07608 0.0
C813 C 0.31427 0.47725 0.09862 0.0
C814 C 0.32049 0.48443 0.13549 0.0
C815 C 0.35158 0.49488 0.14963 0.0
H816 H 0.9821 0.4576 0.67379 0.0
H817 H 0.95323 0.40808 0.57465 0.0
H818 H 0.91138 0.36222 0.60804 0.0
H819 H 0.97228 0.39538 0.73093 0.0
H820 H 0.95778 0.40526 0.76898 0.0
H821 H 0.98495 0.43421 0.73702 0.0
H822 H 0.94363 0.45025 0.72697 0.0
H823 H 0.91616 0.42109 0.75858 0.0
H824 H 0.90286 0.42251 0.71338 0.0
H825 H 0.87036 0.32153 0.65262 0.0
H826 H 0.83938 0.28854 0.7051 0.0
H827 H 0.8968 0.36341 0.77585 0.0
C828 C 0.96712 0.43708 0.65908 0.0
C829 C 0.97119 0.43671 0.62135 0.0
C830 C 0.95096 0.40916 0.60344 0.0
C831 C 0.92686 0.38293 0.62221 0.0
C832 C 0.92323 0.38418 0.65922 0.0
C833 C 0.94322 0.41046 0.67757 0.0
C834 C 0.93513 0.40547 0.71761 0.0
C835 C 0.96427 0.41037 0.73995 0.0
C836 C 0.92377 0.42606 0.72985 0.0
C837 C 0.90748 0.37238 0.71894 0.0
C838 C 0.90063 0.3606 0.6849 0.0
C839 C 0.87572 0.33058 0.67939 0.0
C840 C 0.858 0.312 0.7094 0.0
C841 C 0.86539 0.32319 0.7448 0.0
C842 C 0.89035 0.354 0.74926 0.0
H843 H 0.52989 0.88398 0.05564 0.0
H844 H 0.61462 0.97122 0.02611 0.0
H845 H 0.64927 0.95779 0.06029 0.0
H846 H 0.55088 0.88256 0.14264 0.0
H847 H 0.53535 0.84266 0.1466 0.0
H848 H 0.51809 0.85634 0.1142 0.0
H849 H 0.52977 0.8313 0.06275 0.0
H850 H 0.54666 0.81703 0.09513 0.0
H851 H 0.57027 0.8396 0.05666 0.0
H852 H 0.67317 0.93795 0.10515 0.0
H853 H 0.68437 0.91303 0.1558 0.0
H854 H 0.58388 0.83846 0.15487 0.0
C855 C 0.55586 0.89972 0.05503 0.0
C856 C 0.56966 0.92853 0.03795 0.0
C857 C 0.60366 0.949 0.03898 0.0
C858 C 0.62349 0.94152 0.0582 0.0
C859 C 0.60894 0.91337 0.07602 0.0
C860 C 0.5759 0.89264 0.07422 0.0
C861 C 0.56572 0.86538 0.09888 0.0
C862 C 0.54107 0.86154 0.12725 0.0
C863 C 0.55232 0.83663 0.07704 0.0
C864 C 0.59793 0.87455 0.11591 0.0
C865 C 0.62268 0.90206 0.10205 0.0
C866 C 0.6541 0.91609 0.11567 0.0
C867 C 0.66026 0.90174 0.14444 0.0
C868 C 0.63504 0.87379 0.15949 0.0
C869 C 0.60369 0.85991 0.14435 0.0
H870 H 0.55044 0.50061 0.63971 0.0
H871 H 0.60952 0.56981 0.55877 0.0
H872 H 0.65885 0.58048 0.59138 0.0
H873 H 0.6015 0.5414 0.71676 0.0
H874 H 0.59494 0.50764 0.7396 0.0
H875 H 0.56422 0.50561 0.71012 0.0
H876 H 0.56488 0.46474 0.67318 0.0
H877 H 0.59551 0.46678 0.70285 0.0
H878 H 0.60272 0.47277 0.65498 0.0
H879 H 0.70229 0.58113 0.63045 0.0
H880 H 0.7363 0.57707 0.67718 0.0
H881 H 0.64995 0.51002 0.73602 0.0
C882 C 0.57372 0.51836 0.62908 0.0
C883 C 0.5758 0.53446 0.59651 0.0
C884 C 0.60696 0.55731 0.58367 0.0
C885 C 0.63526 0.56338 0.60193 0.0
C886 C 0.63233 0.54673 0.63345 0.0
C887 C 0.60233 0.52506 0.64733 0.0
C888 C 0.60604 0.51082 0.68212 0.0
C889 C 0.59077 0.51673 0.71404 0.0
C890 C 0.5914 0.47675 0.67803 0.0
C891 C 0.64278 0.52785 0.68564 0.0
C892 C 0.6574 0.54808 0.65686 0.0
C893 C 0.69102 0.56558 0.65325 0.0
C894 C 0.71022 0.56292 0.67995 0.0
C895 C 0.69606 0.54324 0.71058 0.0
C896 C 0.6617 0.52535 0.71314 0.0
H897 H 0.04008 0.64481 0.13754 0.0
H898 H 0.0275 0.56396 0.18962 0.0
H899 H 0.069 0.59527 0.23492 0.0
H900 H 0.12424 0.68777 0.14483 0.0
H901 H 0.12777 0.72321 0.15243 0.0
H902 H 0.09388 0.69446 0.12752 0.0
H903 H 0.05413 0.69537 0.17188 0.0
H904 H 0.08796 0.72436 0.19682 0.0
H905 H 0.05762 0.68979 0.21953 0.0
H906 H 0.11429 0.63537 0.27149 0.0
H907 H 0.16123 0.68126 0.29618 0.0
H908 H 0.14674 0.7364 0.21772 0.0
C909 C 0.04538 0.63377 0.15924 0.0
C910 C 0.03029 0.60203 0.16075 0.0
C911 C 0.03866 0.58827 0.18851 0.0
C912 C 0.0621 0.60584 0.21425 0.0
C913 C 0.07711 0.63718 0.21159 0.0
C914 C 0.06913 0.65106 0.18478 0.0
C915 C 0.09105 0.6852 0.18586 0.0
C916 C 0.11038 0.69842 0.15057 0.0
C917 C 0.07152 0.69952 0.19402 0.0
C918 C 0.11287 0.68832 0.21711 0.0
C919 C 0.10416 0.66037 0.23183 0.0
C920 C 0.1213 0.6574 0.26025 0.0
C921 C 0.1482 0.68369 0.27387 0.0
C922 C 0.15805 0.71265 0.25882 0.0
C923 C 0.13979 0.7148 0.23023 0.0
loop_
_geom_bond_atom_site_label_1
_geom_bond_atom_site_label_2
_geom_bond_distance
_geom_bond_site_symmetry_2
_ccdc_geom_bond_type
Cu0 N1 1.999 1_454 S
Cu0 O6 1.974 1_454 S
Cu0 N11 1.985 . S
Cu0 O20 1.959 . S
N1 Cu0 1.999 1_656 S
N1 C3 1.263 . S
N1 C5 1.389 1_556 S
N2 C3 1.358 . S
N2 C4 1.400 . S
C3 N1 1.263 . S
C3 N2 1.358 . S
C3 H9 0.930 . S
C4 N2 1.400 . S
C4 C5 1.351 1_556 S
C4 H21 0.930 . S
C5 N1 1.389 1_554 S
C5 C4 1.351 1_554 S
C5 H10 0.930 . S
O6 Cu0 1.974 1_656 S
O6 C16 1.282 . S
C7 O8 1.260 . S
C7 O20 1.251 . S
O8 C7 1.260 . S
H9 C3 0.930 . S
H10 C5 0.930 . S
N11 Cu0 1.985 . S
N11 C13 1.335 . S
N11 C14 1.390 . S
N12 C13 1.345 . S
N12 C15 1.336 . S
C13 N11 1.335 . S
C13 N12 1.345 . S
C13 H18 0.930 . S
C14 N11 1.390 . S
C14 C15 1.346 . S
C14 H19 0.930 1_554 S
C15 N12 1.336 . S
C15 C14 1.346 . S
C15 H22 0.929 . S
C16 O6 1.282 . S
C16 O17 1.216 1_655 S
O17 C16 1.216 1_455 S
H18 C13 0.930 . S
H19 C14 0.930 1_556 S
O20 Cu0 1.959 . S
O20 C7 1.251 . S
H21 C4 0.930 . S
H22 C15 0.929 . S
Cu23 N24 1.999 . S
Cu23 O29 1.974 . S
Cu23 N34 1.985 1_565 S
Cu23 O43 1.959 1_565 S
N24 Cu23 1.999 . S
N24 C26 1.263 . S
N24 C28 1.389 . S
N25 C26 1.358 . S
N25 C27 1.400 . S
C26 N24 1.263 . S
C26 N25 1.358 . S
C26 H32 0.930 . S
C27 N25 1.400 . S
C27 C28 1.351 . S
C27 H44 0.930 . S
C28 N24 1.389 . S
C28 C27 1.351 . S
C28 H33 0.930 . S
O29 Cu23 1.974 . S
O29 C39 1.282 . S
C30 O31 1.261 . S
C30 O43 1.251 . S
O31 C30 1.261 . S
H32 C26 0.930 . S
H33 C28 0.930 . S
N34 Cu23 1.985 1_545 S
N34 C36 1.335 . S
N34 C37 1.390 . S
N35 C36 1.345 . S
N35 C38 1.336 . S
C36 N34 1.335 . S
C36 N35 1.345 . S
C36 H41 0.930 . S
C37 N34 1.390 . S
C37 C38 1.346 . S
C37 H42 0.930 . S
C38 N35 1.336 . S
C38 C37 1.346 . S
C38 H45 0.929 . S
C39 O29 1.282 . S
C39 O40 1.216 1_565 S
O40 C39 1.216 1_545 S
H41 C36 0.930 . S
H42 C37 0.930 . S
O43 Cu23 1.959 1_545 S
O43 C30 1.251 . S
H44 C27 0.930 . S
H45 C38 0.929 . S
Cu46 N47 1.999 1_554 S
Cu46 O52 1.974 1_554 S
Cu46 N57 1.985 . S
Cu46 O66 1.959 . S
N47 Cu46 1.999 1_556 S
N47 C49 1.263 . S
N47 C51 1.389 . S
N48 C49 1.358 . S
N48 C50 1.400 . S
C49 N47 1.263 . S
C49 N48 1.358 . S
C49 H55 0.930 . S
C50 N48 1.400 . S
C50 C51 1.351 . S
C50 H67 0.930 . S
C51 N47 1.389 . S
C51 C50 1.351 . S
C51 H56 0.930 . S
O52 Cu46 1.974 1_556 S
O52 C62 1.282 . S
C53 O54 1.261 . S
C53 O66 1.251 . S
O54 C53 1.261 . S
H55 C49 0.930 . S
H56 C51 0.930 . S
N57 Cu46 1.985 . S
N57 C59 1.335 . S
N57 C60 1.390 . S
N58 C59 1.345 . S
N58 C61 1.336 . S
C59 N57 1.335 . S
C59 N58 1.345 . S
C59 H64 0.930 . S
C60 N57 1.390 . S
C60 C61 1.346 . S
C60 H65 0.930 . S
C61 N58 1.336 . S
C61 C60 1.346 . S
C61 H68 0.929 . S
C62 O52 1.282 . S
C62 O63 1.216 1_556 S
O63 C62 1.216 1_554 S
H64 C59 0.930 . S
H65 C60 0.930 . S
O66 Cu46 1.959 . S
O66 C53 1.251 . S
H67 C50 0.930 . S
H68 C61 0.929 . S
Cu69 N70 1.999 1_655 S
Cu69 O75 1.974 1_655 S
Cu69 N80 1.985 . S
Cu69 O89 1.959 . S
N70 Cu69 1.999 1_455 S
N70 C72 1.263 . S
N70 C74 1.389 1_455 S
N71 C72 1.358 . S
N71 C73 1.400 . S
C72 N70 1.263 . S
C72 N71 1.358 . S
C72 H78 0.930 . S
C73 N71 1.400 . S
C73 C74 1.351 1_455 S
C73 H90 0.930 . S
C74 N70 1.389 1_655 S
C74 C73 1.351 1_655 S
C74 H79 0.930 . S
O75 Cu69 1.974 1_455 S
O75 C85 1.282 . S
C76 O77 1.261 1_655 S
C76 O89 1.251 . S
O77 C76 1.261 1_455 S
H78 C72 0.930 . S
H79 C74 0.930 . S
N80 Cu69 1.985 . S
N80 C82 1.335 . S
N80 C83 1.390 . S
N81 C82 1.345 . S
N81 C84 1.336 . S
C82 N80 1.335 . S
C82 N81 1.345 . S
C82 H87 0.930 . S
C83 N80 1.390 . S
C83 C84 1.346 . S
C83 H88 0.930 1_655 S
C84 N81 1.336 . S
C84 C83 1.346 . S
C84 H91 0.929 . S
C85 O75 1.282 . S
C85 O86 1.216 . S
O86 C85 1.216 . S
H87 C82 0.930 . S
H88 C83 0.930 1_455 S
O89 Cu69 1.959 . S
O89 C76 1.251 . S
H90 C73 0.930 . S
H91 C84 0.929 . S
Cu92 N93 1.999 . S
Cu92 O98 1.974 1_554 S
Cu92 N103 1.985 1_545 S
Cu92 O112 1.959 1_545 S
N93 Cu92 1.999 . S
N93 C95 1.263 1_554 S
N93 C97 1.389 . S
N94 C95 1.358 . S
N94 C96 1.421 . S
C95 N93 1.263 1_556 S
C95 N94 1.358 . S
C95 H101 0.930 . S
C96 N94 1.421 . S
C96 C97 1.337 1_556 S
C96 H113 0.925 1_556 S
C97 N93 1.389 . S
C97 C96 1.337 1_554 S
C97 H102 0.930 . S
O98 Cu92 1.974 1_556 S
O98 C108 1.282 . S
C99 O100 1.261 . S
C99 O112 1.251 . S
O100 C99 1.261 . S
H101 C95 0.930 . S
H102 C97 0.930 . S
N103 Cu92 1.985 1_565 S
N103 C105 1.335 . S
N103 C106 1.390 . S
N104 C105 1.345 . S
N104 C107 1.336 . S
C105 N103 1.335 . S
C105 N104 1.345 . S
C105 H110 0.930 . S
C106 N103 1.390 . S
C106 C107 1.346 . S
C106 H111 0.930 . S
C107 N104 1.336 . S
C107 C106 1.346 . S
C107 H114 0.929 . S
C108 O98 1.282 . S
C108 O109 1.216 . S
O109 C108 1.216 . S
H110 C105 0.930 . S
H111 C106 0.930 . S
O112 Cu92 1.959 1_565 S
O112 C99 1.251 . S
H113 C96 0.925 1_554 S
H114 C107 0.929 . S
Cu115 N116 1.999 . S
Cu115 O121 1.974 . S
Cu115 N126 1.985 . S
Cu115 O135 1.959 . S
N116 Cu115 1.999 . S
N116 C118 1.263 . S
N116 C120 1.389 . S
N117 C118 1.358 . S
N117 C119 1.400 . S
C118 N116 1.263 . S
C118 N117 1.358 . S
C118 H124 0.930 . S
C119 N117 1.400 . S
C119 C120 1.351 . S
C119 H136 0.930 . S
C120 N116 1.389 . S
C120 C119 1.351 . S
C120 H125 0.930 . S
O121 Cu115 1.974 . S
O121 C131 1.282 . S
C122 O123 1.261 . S
C122 O135 1.251 . S
O123 C122 1.261 . S
H124 C118 0.930 . S
H125 C120 0.930 . S
N126 Cu115 1.985 . S
N126 C128 1.335 . S
N126 C129 1.390 . S
N127 C128 1.345 . S
N127 C130 1.336 . S
C128 N126 1.335 . S
C128 N127 1.345 . S
C128 H133 0.930 . S
C129 N126 1.390 . S
C129 C130 1.346 . S
C129 H134 0.930 . S
C130 N127 1.336 . S
C130 C129 1.346 . S
C130 H137 0.929 . S
C131 O121 1.282 . S
C131 O132 1.216 . S
O132 C131 1.216 . S
H133 C128 0.930 . S
H134 C129 0.930 . S
O135 Cu115 1.959 . S
O135 C122 1.251 . S
H136 C119 0.930 . S
H137 C130 0.929 . S
Cu138 N139 1.999 . S
Cu138 O144 1.974 . S
Cu138 N149 1.985 . S
Cu138 O158 1.959 . S
N139 Cu138 1.999 . S
N139 C141 1.263 . S
N139 C143 1.389 . S
N140 C141 1.358 . S
N140 C142 1.400 . S
C141 N139 1.263 . S
C141 N140 1.358 . S
C141 H147 0.930 . S
C142 N140 1.400 . S
C142 C143 1.351 . S
C142 H159 0.930 . S
C143 N139 1.389 . S
C143 C142 1.351 . S
C143 H148 0.930 . S
O144 Cu138 1.974 . S
O144 C154 1.282 . S
C145 O146 1.261 . S
C145 O158 1.251 . S
O146 C145 1.261 . S
H147 C141 0.930 . S
H148 C143 0.930 . S
N149 Cu138 1.985 . S
N149 C151 1.335 . S
N149 C152 1.390 . S
N150 C151 1.345 . S
N150 C153 1.336 . S
C151 N149 1.335 . S
C151 N150 1.345 . S
C151 H156 0.930 . S
C152 N149 1.390 . S
C152 C153 1.346 . S
C152 H157 0.930 . S
C153 N150 1.336 . S
C153 C152 1.346 . S
C153 H160 0.929 . S
C154 O144 1.282 . S
C154 O155 1.216 . S
O155 C154 1.216 . S
H156 C151 0.930 . S
H157 C152 0.930 . S
O158 Cu138 1.959 . S
O158 C145 1.251 . S
H159 C142 0.930 . S
H160 C153 0.929 . S
Cu161 N162 1.999 . S
Cu161 O167 1.974 . S
Cu161 N172 1.985 . S
Cu161 O181 1.959 . S
N162 Cu161 1.999 . S
N162 C164 1.263 . S
N162 C166 1.389 . S
N163 C164 1.358 . S
N163 C165 1.400 . S
C164 N162 1.263 . S
C164 N163 1.358 . S
C164 H170 0.930 . S
C165 N163 1.400 . S
C165 C166 1.351 . S
C165 H182 0.930 . S
C166 N162 1.389 . S
C166 C165 1.351 . S
C166 H171 0.930 . S
O167 Cu161 1.974 . S
O167 C177 1.282 . S
C168 O169 1.261 . S
C168 O181 1.251 . S
O169 C168 1.261 . S
H170 C164 0.930 . S
H171 C166 0.930 . S
N172 Cu161 1.985 . S
N172 C174 1.335 . S
N172 C175 1.390 . S
N173 C174 1.345 . S
N173 C176 1.336 . S
C174 N172 1.335 . S
C174 N173 1.345 . S
C174 H179 0.930 . S
C175 N172 1.390 . S
C175 C176 1.346 . S
C175 H180 0.930 . S
C176 N173 1.336 . S
C176 C175 1.346 . S
C176 H183 0.929 . S
C177 O167 1.282 . S
C177 O178 1.216 . S
O178 C177 1.216 . S
H179 C174 0.930 . S
H180 C175 0.930 . S
O181 Cu161 1.959 . S
O181 C168 1.251 . S
H182 C165 0.930 . S
H183 C176 0.929 . S
Cu184 N185 1.999 . S
Cu184 O190 1.974 . S
Cu184 N195 1.985 . S
Cu184 O204 1.959 . S
N185 Cu184 1.999 . S
N185 C187 1.263 . S
N185 C189 1.389 . S
N186 C187 1.358 . S
N186 C188 1.400 . S
C187 N185 1.263 . S
C187 N186 1.358 . S
C187 H193 0.930 . S
C188 N186 1.400 . S
C188 C189 1.351 . S
C188 H205 0.930 . S
C189 N185 1.389 . S
C189 C188 1.351 . S
C189 H194 0.930 . S
O190 Cu184 1.974 . S
O190 C200 1.282 . S
C191 O192 1.261 . S
C191 O204 1.251 . S
O192 C191 1.261 . S
H193 C187 0.930 . S
H194 C189 0.930 . S
N195 Cu184 1.985 . S
N195 C197 1.335 . S
N195 C198 1.390 . S
N196 C197 1.345 . S
N196 C199 1.336 . S
C197 N195 1.335 . S
C197 N196 1.345 . S
C197 H202 0.930 . S
C198 N195 1.390 . S
C198 C199 1.346 . S
C198 H203 0.930 . S
C199 N196 1.336 . S
C199 C198 1.346 . S
C199 H206 0.929 . S
C200 O190 1.282 . S
C200 O201 1.216 . S
O201 C200 1.216 . S
H202 C197 0.930 . S
H203 C198 0.930 . S
O204 Cu184 1.959 . S
O204 C191 1.251 . S
H205 C188 0.930 . S
H206 C199 0.929 . S
Cu207 N208 1.999 . S
Cu207 O213 1.974 . S
Cu207 N218 1.985 . S
Cu207 O227 1.959 . S
N208 Cu207 1.999 . S
N208 C210 1.263 . S
N208 C212 1.389 . S
N209 C210 1.358 . S
N209 C211 1.400 . S
C210 N208 1.263 . S
C210 N209 1.358 . S
C210 H216 0.930 . S
C211 N209 1.400 . S
C211 C212 1.351 . S
C211 H228 0.930 . S
C212 N208 1.389 . S
C212 C211 1.351 . S
C212 H217 0.930 . S
O213 Cu207 1.974 . S
O213 C223 1.282 . S
C214 O215 1.261 . S
C214 O227 1.251 . S
O215 C214 1.261 . S
H216 C210 0.930 . S
H217 C212 0.930 . S
N218 Cu207 1.985 . S
N218 C220 1.335 . S
N218 C221 1.390 . S
N219 C220 1.345 . S
N219 C222 1.336 . S
C220 N218 1.335 . S
C220 N219 1.345 . S
C220 H225 0.930 . S
C221 N218 1.390 . S
C221 C222 1.346 . S
C221 H226 0.930 . S
C222 N219 1.336 . S
C222 C221 1.346 . S
C222 H229 0.929 . S
C223 O213 1.282 . S
C223 O224 1.216 . S
O224 C223 1.216 . S
H225 C220 0.930 . S
H226 C221 0.930 . S
O227 Cu207 1.959 . S
O227 C214 1.251 . S
H228 C211 0.930 . S
H229 C222 0.929 . S
Cu230 N231 1.999 . S
Cu230 O236 1.974 . S
Cu230 N241 1.985 . S
Cu230 O250 1.959 . S
N231 Cu230 1.999 . S
N231 C233 1.263 . S
N231 C235 1.389 . S
N232 C233 1.358 . S
N232 C234 1.400 . S
C233 N231 1.263 . S
C233 N232 1.358 . S
C233 H239 0.930 . S
C234 N232 1.400 . S
C234 C235 1.351 . S
C234 H251 0.930 . S
C235 N231 1.389 . S
C235 C234 1.351 . S
C235 H240 0.930 . S
O236 Cu230 1.974 . S
O236 C246 1.282 . S
C237 O238 1.261 . S
C237 O250 1.251 . S
O238 C237 1.261 . S
H239 C233 0.930 . S
H240 C235 0.930 . S
N241 Cu230 1.985 . S
N241 C243 1.335 . S
N241 C244 1.390 . S
N242 C243 1.345 . S
N242 C245 1.336 . S
C243 N241 1.335 . S
C243 N242 1.345 . S
C243 H248 0.930 . S
C244 N241 1.390 . S
C244 C245 1.346 . S
C244 H249 0.930 . S
C245 N242 1.336 . S
C245 C244 1.346 . S
C245 H252 0.929 . S
C246 O236 1.282 . S
C246 O247 1.216 . S
O247 C246 1.216 . S
H248 C243 0.930 . S
H249 C244 0.930 . S
O250 Cu230 1.959 . S
O250 C237 1.251 . S
H251 C234 0.930 . S
H252 C245 0.929 . S
Cu253 N254 1.999 . S
Cu253 O259 1.974 . S
Cu253 N264 1.985 . S
Cu253 O273 1.959 . S
N254 Cu253 1.999 . S
N254 C256 1.263 . S
N254 C258 1.389 . S
N255 C256 1.358 . S
N255 C257 1.400 . S
C256 N254 1.263 . S
C256 N255 1.358 . S
C256 H262 0.930 . S
C257 N255 1.400 . S
C257 C258 1.351 . S
C257 H274 0.930 . S
C258 N254 1.389 . S
C258 C257 1.351 . S
C258 H263 0.930 . S
O259 Cu253 1.974 . S
O259 C269 1.282 . S
C260 O261 1.261 . S
C260 O273 1.251 . S
O261 C260 1.261 . S
H262 C256 0.930 . S
H263 C258 0.930 . S
N264 Cu253 1.985 . S
N264 C266 1.335 . S
N264 C267 1.390 . S
N265 C266 1.345 . S
N265 C268 1.336 . S
C266 N264 1.335 . S
C266 N265 1.345 . S
C266 H271 0.930 . S
C267 N264 1.390 . S
C267 C268 1.346 . S
C267 H272 0.930 . S
C268 N265 1.336 . S
C268 C267 1.346 . S
C268 H275 0.929 . S
C269 O259 1.282 . S
C269 O270 1.216 . S
O270 C269 1.216 . S
H271 C266 0.930 . S
H272 C267 0.930 . S
O273 Cu253 1.959 . S
O273 C260 1.251 . S
H274 C257 0.930 . S
H275 C268 0.929 . S
H276 C288 0.930 . S
H277 C290 0.930 . S
H278 C291 0.930 . S
H279 C295 0.959 . S
H280 C295 0.959 . S
H281 C295 0.961 . S
H282 C296 0.960 . S
H283 C296 0.961 . S
H284 C296 0.959 . S
H285 C299 0.929 . S
H286 C300 0.931 . S
H287 C302 0.930 . S
C288 H276 0.930 . S
C288 C289 1.399 . S
C288 C293 1.399 . S
C289 C288 1.399 . S
C289 C290 1.376 . S
C290 H277 0.930 . S
C290 C289 1.376 . S
C290 C291 1.388 . S
C291 H278 0.930 . S
C291 C290 1.388 . S
C291 C292 1.390 . S
C292 C291 1.390 . S
C292 C293 1.394 . S
C292 C298 1.465 . S
C293 C288 1.399 . S
C293 C292 1.394 . S
C293 C294 1.516 . S
C294 C293 1.516 . S
C294 C295 1.502 . S
C294 C296 1.561 . S
C294 C297 1.526 . S
C295 H279 0.959 . S
C295 H280 0.959 . S
C295 H281 0.961 . S
C295 C294 1.502 . S
C296 H282 0.960 . S
C296 H283 0.961 . S
C296 H284 0.959 . S
C296 C294 1.561 . S
C297 C294 1.526 . S
C297 C298 1.396 . S
C297 C302 1.390 . S
C298 C292 1.465 . S
C298 C297 1.396 . S
C298 C299 1.399 . S
C299 H285 0.929 . S
C299 C298 1.399 . S
C299 C300 1.385 . S
C300 H286 0.931 . S
C300 C299 1.385 . S
C300 C301 1.389 . S
C301 C300 1.389 . S
C301 C302 1.387 . S
C302 H287 0.930 . S
C302 C297 1.390 . S
C302 C301 1.387 . S
H303 C315 0.930 . S
H304 C317 0.930 . S
H305 C318 0.930 . S
H306 C322 0.959 . S
H307 C322 0.959 . S
H308 C322 0.961 . S
H309 C323 0.960 . S
H310 C323 0.961 . S
H311 C323 0.959 . S
H312 C326 0.929 . S
H313 C327 0.931 . S
H314 C329 0.930 . S
C315 H303 0.930 . S
C315 C316 1.399 . S
C315 C320 1.399 . S
C316 C315 1.399 . S
C316 C317 1.376 . S
C317 H304 0.930 . S
C317 C316 1.376 . S
C317 C318 1.388 . S
C318 H305 0.930 . S
C318 C317 1.388 . S
C318 C319 1.390 . S
C319 C318 1.390 . S
C319 C320 1.394 . S
C319 C325 1.465 . S
C320 C315 1.399 . S
C320 C319 1.394 . S
C320 C321 1.516 . S
C321 C320 1.516 . S
C321 C322 1.502 . S
C321 C323 1.561 . S
C321 C324 1.526 . S
C322 H306 0.959 . S
C322 H307 0.959 . S
C322 H308 0.961 . S
C322 C321 1.502 . S
C323 H309 0.960 . S
C323 H310 0.961 . S
C323 H311 0.959 . S
C323 C321 1.561 . S
C324 C321 1.526 . S
C324 C325 1.396 . S
C324 C329 1.390 . S
C325 C319 1.465 . S
C325 C324 1.396 . S
C325 C326 1.399 . S
C326 H312 0.929 . S
C326 C325 1.399 . S
C326 C327 1.385 . S
C327 H313 0.931 . S
C327 C326 1.385 . S
C327 C328 1.389 . S
C328 C327 1.389 . S
C328 C329 1.387 . S
C329 H314 0.930 . S
C329 C324 1.390 . S
C329 C328 1.387 . S
H330 C342 0.930 . S
H331 C344 0.930 . S
H332 C345 0.930 . S
H333 C349 0.959 . S
H334 C349 0.959 . S
H335 C349 0.961 . S
H336 C350 0.960 . S
H337 C350 0.961 . S
H338 C350 0.959 . S
H339 C353 0.929 . S
H340 C354 0.931 . S
H341 C356 0.930 . S
C342 H330 0.930 . S
C342 C343 1.399 . S
C342 C347 1.399 . S
C343 C342 1.399 . S
C343 C344 1.376 . S
C344 H331 0.930 . S
C344 C343 1.376 . S
C344 C345 1.388 . S
C345 H332 0.930 . S
C345 C344 1.388 . S
C345 C346 1.390 . S
C346 C345 1.390 . S
C346 C347 1.394 . S
C346 C352 1.465 . S
C347 C342 1.399 . S
C347 C346 1.394 . S
C347 C348 1.516 . S
C348 C347 1.516 . S
C348 C349 1.502 . S
C348 C350 1.561 . S
C348 C351 1.526 . S
C349 H333 0.959 . S
C349 H334 0.959 . S
C349 H335 0.961 . S
C349 C348 1.502 . S
C350 H336 0.960 . S
C350 H337 0.961 . S
C350 H338 0.959 . S
C350 C348 1.561 . S
C351 C348 1.526 . S
C351 C352 1.396 . S
C351 C356 1.390 . S
C352 C346 1.465 . S
C352 C351 1.396 . S
C352 C353 1.399 . S
C353 H339 0.929 . S
C353 C352 1.399 . S
C353 C354 1.385 . S
C354 H340 0.931 . S
C354 C353 1.385 . S
C354 C355 1.389 . S
C355 C354 1.389 . S
C355 C356 1.387 . S
C356 H341 0.930 . S
C356 C351 1.390 . S
C356 C355 1.387 . S
H357 C369 0.930 . S
H358 C371 0.930 . S
H359 C372 0.930 . S
H360 C376 0.959 . S
H361 C376 0.959 . S
H362 C376 0.961 . S
H363 C377 0.960 . S
H364 C377 0.961 . S
H365 C377 0.959 . S
H366 C380 0.929 . S
H367 C381 0.931 . S
H368 C383 0.930 . S
C369 H357 0.930 . S
C369 C370 1.399 . S
C369 C374 1.399 . S
C370 C369 1.399 . S
C370 C371 1.376 . S
C371 H358 0.930 . S
C371 C370 1.376 . S
C371 C372 1.388 . S
C372 H359 0.930 . S
C372 C371 1.388 . S
C372 C373 1.390 . S
C373 C372 1.390 . S
C373 C374 1.394 . S
C373 C379 1.465 . S
C374 C369 1.399 . S
C374 C373 1.394 . S
C374 C375 1.516 . S
C375 C374 1.516 . S
C375 C376 1.502 . S
C375 C377 1.561 . S
C375 C378 1.526 . S
C376 H360 0.959 . S
C376 H361 0.959 . S
C376 H362 0.961 . S
C376 C375 1.502 . S
C377 H363 0.960 . S
C377 H364 0.961 . S
C377 H365 0.959 . S
C377 C375 1.561 . S
C378 C375 1.526 . S
C378 C379 1.396 . S
C378 C383 1.390 . S
C379 C373 1.465 . S
C379 C378 1.396 . S
C379 C380 1.399 . S
C380 H366 0.929 . S
C380 C379 1.399 . S
C380 C381 1.385 . S
C381 H367 0.931 . S
C381 C380 1.385 . S
C381 C382 1.389 . S
C382 C381 1.389 . S
C382 C383 1.387 . S
C383 H368 0.930 . S
C383 C378 1.390 . S
C383 C382 1.387 . S
H384 C396 0.930 . S
H385 C398 0.930 . S
H386 C399 0.930 . S
H387 C403 0.959 . S
H388 C403 0.959 . S
H389 C403 0.961 . S
H390 C404 0.960 . S
H391 C404 0.961 . S
H392 C404 0.959 . S
H393 C407 0.929 . S
H394 C408 0.931 . S
H395 C410 0.930 . S
C396 H384 0.930 . S
C396 C397 1.399 . S
C396 C401 1.399 . S
C397 C396 1.399 . S
C397 C398 1.376 . S
C398 H385 0.930 . S
C398 C397 1.376 . S
C398 C399 1.388 . S
C399 H386 0.930 . S
C399 C398 1.388 . S
C399 C400 1.390 . S
C400 C399 1.390 . S
C400 C401 1.394 . S
C400 C406 1.465 . S
C401 C396 1.399 . S
C401 C400 1.394 . S
C401 C402 1.516 . S
C402 C401 1.516 . S
C402 C403 1.502 . S
C402 C404 1.561 . S
C402 C405 1.526 . S
C403 H387 0.959 . S
C403 H388 0.959 . S
C403 H389 0.961 . S
C403 C402 1.502 . S
C404 H390 0.960 . S
C404 H391 0.961 . S
C404 H392 0.959 . S
C404 C402 1.561 . S
C405 C402 1.526 . S
C405 C406 1.396 . S
C405 C410 1.390 . S
C406 C400 1.465 . S
C406 C405 1.396 . S
C406 C407 1.399 . S
C407 H393 0.929 . S
C407 C406 1.399 . S
C407 C408 1.385 . S
C408 H394 0.931 . S
C408 C407 1.385 . S
C408 C409 1.389 . S
C409 C408 1.389 . S
C409 C410 1.387 . S
C410 H395 0.930 . S
C410 C405 1.390 . S
C410 C409 1.387 . S
H411 C423 0.930 . S
H412 C425 0.930 . S
H413 C426 0.930 . S
H414 C430 0.959 . S
H415 C430 0.959 . S
H416 C430 0.961 . S
H417 C431 0.960 . S
H418 C431 0.961 . S
H419 C431 0.959 . S
H420 C434 0.929 . S
H421 C435 0.931 . S
H422 C437 0.930 . S
C423 H411 0.930 . S
C423 C424 1.399 . S
C423 C428 1.399 . S
C424 C423 1.399 . S
C424 C425 1.376 . S
C425 H412 0.930 . S
C425 C424 1.376 . S
C425 C426 1.388 . S
C426 H413 0.930 . S
C426 C425 1.388 . S
C426 C427 1.390 . S
C427 C426 1.390 . S
C427 C428 1.394 . S
C427 C433 1.465 . S
C428 C423 1.399 . S
C428 C427 1.394 . S
C428 C429 1.516 . S
C429 C428 1.516 . S
C429 C430 1.502 . S
C429 C431 1.561 . S
C429 C432 1.526 . S
C430 H414 0.959 . S
C430 H415 0.959 . S
C430 H416 0.961 . S
C430 C429 1.502 . S
C431 H417 0.960 . S
C431 H418 0.961 . S
C431 H419 0.959 . S
C431 C429 1.561 . S
C432 C429 1.526 . S
C432 C433 1.396 . S
C432 C437 1.390 . S
C433 C427 1.465 . S
C433 C432 1.396 . S
C433 C434 1.399 . S
C434 H420 0.929 . S
C434 C433 1.399 . S
C434 C435 1.385 . S
C435 H421 0.931 . S
C435 C434 1.385 . S
C435 C436 1.389 . S
C436 C435 1.389 . S
C436 C437 1.387 . S
C437 H422 0.930 . S
C437 C432 1.390 . S
C437 C436 1.387 . S
H438 C450 0.930 . S
H439 C452 0.930 . S
H440 C453 0.930 . S
H441 C457 0.959 . S
H442 C457 0.959 . S
H443 C457 0.961 . S
H444 C458 0.960 . S
H445 C458 0.961 . S
H446 C458 0.959 . S
H447 C461 0.929 . S
H448 C462 0.931 . S
H449 C464 0.930 . S
C450 H438 0.930 . S
C450 C451 1.399 . S
C450 C455 1.399 . S
C451 C450 1.399 . S
C451 C452 1.376 . S
C452 H439 0.930 . S
C452 C451 1.376 . S
C452 C453 1.388 . S
C453 H440 0.930 . S
C453 C452 1.388 . S
C453 C454 1.390 . S
C454 C453 1.390 . S
C454 C455 1.394 . S
C454 C460 1.465 . S
C455 C450 1.399 . S
C455 C454 1.394 . S
C455 C456 1.516 . S
C456 C455 1.516 . S
C456 C457 1.502 . S
C456 C458 1.561 . S
C456 C459 1.526 . S
C457 H441 0.959 . S
C457 H442 0.959 . S
C457 H443 0.961 . S
C457 C456 1.502 . S
C458 H444 0.960 . S
C458 H445 0.961 . S
C458 H446 0.959 . S
C458 C456 1.561 . S
C459 C456 1.526 . S
C459 C460 1.396 . S
C459 C464 1.390 . S
C460 C454 1.465 . S
C460 C459 1.396 . S
C460 C461 1.399 . S
C461 H447 0.929 . S
C461 C460 1.399 . S
C461 C462 1.385 . S
C462 H448 0.931 . S
C462 C461 1.385 . S
C462 C463 1.389 . S
C463 C462 1.389 . S
C463 C464 1.387 . S
C464 H449 0.930 . S
C464 C459 1.390 . S
C464 C463 1.387 . S
H465 C477 0.930 . S
H466 C479 0.930 . S
H467 C480 0.930 . S
H468 C484 0.959 . S
H469 C484 0.959 . S
H470 C484 0.961 . S
H471 C485 0.960 . S
H472 C485 0.961 . S
H473 C485 0.959 . S
H474 C488 0.929 . S
H475 C489 0.931 . S
H476 C491 0.930 . S
C477 H465 0.930 . S
C477 C478 1.399 . S
C477 C482 1.399 . S
C478 C477 1.399 . S
C478 C479 1.376 . S
C479 H466 0.930 . S
C479 C478 1.376 . S
C479 C480 1.388 . S
C480 H467 0.930 . S
C480 C479 1.388 . S
C480 C481 1.390 . S
C481 C480 1.390 . S
C481 C482 1.394 . S
C481 C487 1.465 . S
C482 C477 1.399 . S
C482 C481 1.394 . S
C482 C483 1.516 . S
C483 C482 1.516 . S
C483 C484 1.502 . S
C483 C485 1.561 . S
C483 C486 1.526 . S
C484 H468 0.959 . S
C484 H469 0.959 . S
C484 H470 0.961 . S
C484 C483 1.502 . S
C485 H471 0.960 . S
C485 H472 0.961 . S
C485 H473 0.959 . S
C485 C483 1.561 . S
C486 C483 1.526 . S
C486 C487 1.396 . S
C486 C491 1.390 . S
C487 C481 1.465 . S
C487 C486 1.396 . S
C487 C488 1.399 . S
C488 H474 0.929 . S
C488 C487 1.399 . S
C488 C489 1.385 . S
C489 H475 0.931 . S
C489 C488 1.385 . S
C489 C490 1.389 . S
C490 C489 1.389 . S
C490 C491 1.387 . S
C491 H476 0.930 . S
C491 C486 1.390 . S
C491 C490 1.387 . S
H492 C504 0.930 . S
H493 C506 0.930 . S
H494 C507 0.930 . S
H495 C511 0.959 . S
H496 C511 0.959 . S
H497 C511 0.961 . S
H498 C512 0.960 . S
H499 C512 0.961 . S
H500 C512 0.959 . S
H501 C515 0.929 . S
H502 C516 0.931 . S
H503 C518 0.930 . S
C504 H492 0.930 . S
C504 C505 1.399 . S
C504 C509 1.399 . S
C505 C504 1.399 . S
C505 C506 1.376 . S
C506 H493 0.930 . S
C506 C505 1.376 . S
C506 C507 1.388 . S
C507 H494 0.930 . S
C507 C506 1.388 . S
C507 C508 1.390 . S
C508 C507 1.390 . S
C508 C509 1.394 . S
C508 C514 1.465 . S
C509 C504 1.399 . S
C509 C508 1.394 . S
C509 C510 1.516 . S
C510 C509 1.516 . S
C510 C511 1.502 . S
C510 C512 1.561 . S
C510 C513 1.526 . S
C511 H495 0.959 . S
C511 H496 0.959 . S
C511 H497 0.961 . S
C511 C510 1.502 . S
C512 H498 0.960 . S
C512 H499 0.961 . S
C512 H500 0.959 . S
C512 C510 1.561 . S
C513 C510 1.526 . S
C513 C514 1.396 . S
C513 C518 1.390 . S
C514 C508 1.465 . S
C514 C513 1.396 . S
C514 C515 1.399 . S
C515 H501 0.929 . S
C515 C514 1.399 . S
C515 C516 1.385 . S
C516 H502 0.931 . S
C516 C515 1.385 . S
C516 C517 1.389 . S
C517 C516 1.389 . S
C517 C518 1.387 . S
C518 H503 0.930 . S
C518 C513 1.390 . S
C518 C517 1.387 . S
H519 C531 0.930 . S
H520 C533 0.930 . S
H521 C534 0.930 . S
H522 C538 0.959 . S
H523 C538 0.959 . S
H524 C538 0.961 . S
H525 C539 0.960 . S
H526 C539 0.961 . S
H527 C539 0.959 . S
H528 C542 0.929 . S
H529 C543 0.931 . S
H530 C545 0.930 . S
C531 H519 0.930 . S
C531 C532 1.399 . S
C531 C536 1.399 . S
C532 C531 1.399 . S
C532 C533 1.376 . S
C533 H520 0.930 . S
C533 C532 1.376 . S
C533 C534 1.388 . S
C534 H521 0.930 . S
C534 C533 1.388 . S
C534 C535 1.390 . S
C535 C534 1.390 . S
C535 C536 1.394 . S
C535 C541 1.465 . S
C536 C531 1.399 . S
C536 C535 1.394 . S
C536 C537 1.516 . S
C537 C536 1.516 . S
C537 C538 1.502 . S
C537 C539 1.561 . S
C537 C540 1.526 . S
C538 H522 0.959 . S
C538 H523 0.959 . S
C538 H524 0.961 . S
C538 C537 1.502 . S
C539 H525 0.960 . S
C539 H526 0.961 . S
C539 H527 0.959 . S
C539 C537 1.561 . S
C540 C537 1.526 . S
C540 C541 1.396 . S
C540 C545 1.390 . S
C541 C535 1.465 . S
C541 C540 1.396 . S
C541 C542 1.399 . S
C542 H528 0.929 . S
C542 C541 1.399 . S
C542 C543 1.385 . S
C543 H529 0.931 . S
C543 C542 1.385 . S
C543 C544 1.389 . S
C544 C543 1.389 . S
C544 C545 1.387 . S
C545 H530 0.930 . S
C545 C540 1.390 . S
C545 C544 1.387 . S
H546 C558 0.930 . S
H547 C560 0.930 . S
H548 C561 0.930 . S
H549 C565 0.959 . S
H550 C565 0.959 . S
H551 C565 0.961 . S
H552 C566 0.960 . S
H553 C566 0.961 . S
H554 C566 0.959 . S
H555 C569 0.929 . S
H556 C570 0.931 . S
H557 C572 0.930 . S
C558 H546 0.930 . S
C558 C559 1.399 . S
C558 C563 1.399 . S
C559 C558 1.399 . S
C559 C560 1.376 . S
C560 H547 0.930 . S
C560 C559 1.376 . S
C560 C561 1.388 . S
C561 H548 0.930 . S
C561 C560 1.388 . S
C561 C562 1.390 . S
C562 C561 1.390 . S
C562 C563 1.394 . S
C562 C568 1.465 . S
C563 C558 1.399 . S
C563 C562 1.394 . S
C563 C564 1.516 . S
C564 C563 1.516 . S
C564 C565 1.502 . S
C564 C566 1.561 . S
C564 C567 1.526 . S
C565 H549 0.959 . S
C565 H550 0.959 . S
C565 H551 0.961 . S
C565 C564 1.502 . S
C566 H552 0.960 . S
C566 H553 0.961 . S
C566 H554 0.959 . S
C566 C564 1.561 . S
C567 C564 1.526 . S
C567 C568 1.396 . S
C567 C572 1.390 . S
C568 C562 1.465 . S
C568 C567 1.396 . S
C568 C569 1.399 . S
C569 H555 0.929 . S
C569 C568 1.399 . S
C569 C570 1.385 . S
C570 H556 0.931 . S
C570 C569 1.385 . S
C570 C571 1.389 . S
C571 C570 1.389 . S
C571 C572 1.387 . S
C572 H557 0.930 . S
C572 C567 1.390 . S
C572 C571 1.387 . S
H573 C585 0.930 . S
H574 C587 0.930 . S
H575 C588 0.930 . S
H576 C592 0.959 . S
H577 C592 0.959 . S
H578 C592 0.961 . S
H579 C593 0.960 . S
H580 C593 0.961 . S
H581 C593 0.959 . S
H582 C596 0.929 . S
H583 C597 0.931 . S
H584 C599 0.930 . S
C585 H573 0.930 . S
C585 C586 1.399 . S
C585 C590 1.399 . S
C586 C585 1.399 . S
C586 C587 1.376 . S
C587 H574 0.930 . S
C587 C586 1.376 . S
C587 C588 1.388 . S
C588 H575 0.930 . S
C588 C587 1.388 . S
C588 C589 1.390 . S
C589 C588 1.390 . S
C589 C590 1.394 . S
C589 C595 1.465 . S
C590 C585 1.399 . S
C590 C589 1.394 . S
C590 C591 1.516 . S
C591 C590 1.516 . S
C591 C592 1.502 . S
C591 C593 1.561 . S
C591 C594 1.526 . S
C592 H576 0.959 . S
C592 H577 0.959 . S
C592 H578 0.961 . S
C592 C591 1.502 . S
C593 H579 0.960 . S
C593 H580 0.961 . S
C593 H581 0.959 . S
C593 C591 1.561 . S
C594 C591 1.526 . S
C594 C595 1.396 . S
C594 C599 1.390 . S
C595 C589 1.465 . S
C595 C594 1.396 . S
C595 C596 1.399 . S
C596 H582 0.929 . S
C596 C595 1.399 . S
C596 C597 1.385 . S
C597 H583 0.931 . S
C597 C596 1.385 . S
C597 C598 1.389 . S
C598 C597 1.389 . S
C598 C599 1.387 . S
C599 H584 0.930 . S
C599 C594 1.390 . S
C599 C598 1.387 . S
H600 C612 0.930 . S
H601 C614 0.930 . S
H602 C615 0.930 . S
H603 C619 0.959 . S
H604 C619 0.959 . S
H605 C619 0.961 . S
H606 C620 0.960 . S
H607 C620 0.961 . S
H608 C620 0.959 . S
H609 C623 0.929 . S
H610 C624 0.931 . S
H611 C626 0.930 . S
C612 H600 0.930 . S
C612 C613 1.399 . S
C612 C617 1.399 . S
C613 C612 1.399 . S
C613 C614 1.376 . S
C614 H601 0.930 . S
C614 C613 1.376 . S
C614 C615 1.388 . S
C615 H602 0.930 . S
C615 C614 1.388 . S
C615 C616 1.390 . S
C616 C615 1.390 . S
C616 C617 1.394 . S
C616 C622 1.465 . S
C617 C612 1.399 . S
C617 C616 1.394 . S
C617 C618 1.516 . S
C618 C617 1.516 . S
C618 C619 1.502 . S
C618 C620 1.561 . S
C618 C621 1.526 . S
C619 H603 0.959 . S
C619 H604 0.959 . S
C619 H605 0.961 . S
C619 C618 1.502 . S
C620 H606 0.960 . S
C620 H607 0.961 . S
C620 H608 0.959 . S
C620 C618 1.561 . S
C621 C618 1.526 . S
C621 C622 1.396 . S
C621 C626 1.390 . S
C622 C616 1.465 . S
C622 C621 1.396 . S
C622 C623 1.399 . S
C623 H609 0.929 . S
C623 C622 1.399 . S
C623 C624 1.385 . S
C624 H610 0.931 . S
C624 C623 1.385 . S
C624 C625 1.389 . S
C625 C624 1.389 . S
C625 C626 1.387 . S
C626 H611 0.930 . S
C626 C621 1.390 . S
C626 C625 1.387 . S
H627 C639 0.930 . S
H628 C641 0.930 . S
H629 C642 0.930 . S
H630 C646 0.959 . S
H631 C646 0.959 . S
H632 C646 0.961 . S
H633 C647 0.960 . S
H634 C647 0.961 . S
H635 C647 0.959 . S
H636 C650 0.929 . S
H637 C651 0.931 . S
H638 C653 0.930 . S
C639 H627 0.930 . S
C639 C640 1.399 . S
C639 C644 1.399 . S
C640 C639 1.399 . S
C640 C641 1.376 . S
C641 H628 0.930 . S
C641 C640 1.376 . S
C641 C642 1.388 . S
C642 H629 0.930 . S
C642 C641 1.388 . S
C642 C643 1.390 . S
C643 C642 1.390 . S
C643 C644 1.394 . S
C643 C649 1.465 . S
C644 C639 1.399 . S
C644 C643 1.394 . S
C644 C645 1.516 . S
C645 C644 1.516 . S
C645 C646 1.502 . S
C645 C647 1.561 . S
C645 C648 1.526 . S
C646 H630 0.959 . S
C646 H631 0.959 . S
C646 H632 0.961 . S
C646 C645 1.502 . S
C647 H633 0.960 . S
C647 H634 0.961 . S
C647 H635 0.959 . S
C647 C645 1.561 . S
C648 C645 1.526 . S
C648 C649 1.396 . S
C648 C653 1.390 . S
C649 C643 1.465 . S
C649 C648 1.396 . S
C649 C650 1.399 . S
C650 H636 0.929 . S
C650 C649 1.399 . S
C650 C651 1.385 . S
C651 H637 0.931 . S
C651 C650 1.385 . S
C651 C652 1.389 . S
C652 C651 1.389 . S
C652 C653 1.387 . S
C653 H638 0.930 . S
C653 C648 1.390 . S
C653 C652 1.387 . S
H654 C666 0.930 . S
H655 C668 0.930 . S
H656 C669 0.930 . S
H657 C673 0.959 . S
H658 C673 0.959 . S
H659 C673 0.961 . S
H660 C674 0.960 . S
H661 C674 0.961 . S
H662 C674 0.959 . S
H663 C677 0.929 . S
H664 C678 0.931 . S
H665 C680 0.930 . S
C666 H654 0.930 . S
C666 C667 1.399 . S
C666 C671 1.399 . S
C667 C666 1.399 . S
C667 C668 1.376 . S
C668 H655 0.930 . S
C668 C667 1.376 . S
C668 C669 1.388 . S
C669 H656 0.930 . S
C669 C668 1.388 . S
C669 C670 1.390 . S
C670 C669 1.390 . S
C670 C671 1.394 . S
C670 C676 1.465 . S
C671 C666 1.399 . S
C671 C670 1.394 . S
C671 C672 1.516 . S
C672 C671 1.516 . S
C672 C673 1.502 . S
C672 C674 1.561 . S
C672 C675 1.526 . S
C673 H657 0.959 . S
C673 H658 0.959 . S
C673 H659 0.961 . S
C673 C672 1.502 . S
C674 H660 0.960 . S
C674 H661 0.961 . S
C674 H662 0.959 . S
C674 C672 1.561 . S
C675 C672 1.526 . S
C675 C676 1.396 . S
C675 C680 1.390 . S
C676 C670 1.465 . S
C676 C675 1.396 . S
C676 C677 1.399 . S
C677 H663 0.929 . S
C677 C676 1.399 . S
C677 C678 1.385 . S
C678 H664 0.931 . S
C678 C677 1.385 . S
C678 C679 1.389 . S
C679 C678 1.389 . S
C679 C680 1.387 . S
C680 H665 0.930 . S
C680 C675 1.390 . S
C680 C679 1.387 . S
H681 C693 0.930 . S
H682 C695 0.930 . S
H683 C696 0.930 . S
H684 C700 0.959 . S
H685 C700 0.959 . S
H686 C700 0.961 . S
H687 C701 0.960 . S
H688 C701 0.961 . S
H689 C701 0.959 . S
H690 C704 0.929 . S
H691 C705 0.931 . S
H692 C707 0.930 . S
C693 H681 0.930 . S
C693 C694 1.399 . S
C693 C698 1.399 . S
C694 C693 1.399 . S
C694 C695 1.376 . S
C695 H682 0.930 . S
C695 C694 1.376 . S
C695 C696 1.388 . S
C696 H683 0.930 . S
C696 C695 1.388 . S
C696 C697 1.390 . S
C697 C696 1.390 . S
C697 C698 1.394 . S
C697 C703 1.465 . S
C698 C693 1.399 . S
C698 C697 1.394 . S
C698 C699 1.516 . S
C699 C698 1.516 . S
C699 C700 1.502 . S
C699 C701 1.561 . S
C699 C702 1.526 . S
C700 H684 0.959 . S
C700 H685 0.959 . S
C700 H686 0.961 . S
C700 C699 1.502 . S
C701 H687 0.960 . S
C701 H688 0.961 . S
C701 H689 0.959 . S
C701 C699 1.561 . S
C702 C699 1.526 . S
C702 C703 1.396 . S
C702 C707 1.390 . S
C703 C697 1.465 . S
C703 C702 1.396 . S
C703 C704 1.399 . S
C704 H690 0.929 . S
C704 C703 1.399 . S
C704 C705 1.385 . S
C705 H691 0.931 . S
C705 C704 1.385 . S
C705 C706 1.389 . S
C706 C705 1.389 . S
C706 C707 1.387 . S
C707 H692 0.930 . S
C707 C702 1.390 . S
C707 C706 1.387 . S
H708 C720 0.930 . S
H709 C722 0.930 . S
H710 C723 0.930 . S
H711 C727 0.959 . S
H712 C727 0.959 . S
H713 C727 0.961 . S
H714 C728 0.960 . S
H715 C728 0.961 . S
H716 C728 0.959 . S
H717 C731 0.929 . S
H718 C732 0.931 . S
H719 C734 0.930 . S
C720 H708 0.930 . S
C720 C721 1.399 . S
C720 C725 1.399 . S
C721 C720 1.399 . S
C721 C722 1.376 . S
C722 H709 0.930 . S
C722 C721 1.376 . S
C722 C723 1.388 . S
C723 H710 0.930 . S
C723 C722 1.388 . S
C723 C724 1.390 . S
C724 C723 1.390 . S
C724 C725 1.394 . S
C724 C730 1.465 . S
C725 C720 1.399 . S
C725 C724 1.394 . S
C725 C726 1.516 . S
C726 C725 1.516 . S
C726 C727 1.502 . S
C726 C728 1.561 . S
C726 C729 1.526 . S
C727 H711 0.959 . S
C727 H712 0.959 . S
C727 H713 0.961 . S
C727 C726 1.502 . S
C728 H714 0.960 . S
C728 H715 0.961 . S
C728 H716 0.959 . S
C728 C726 1.561 . S
C729 C726 1.526 . S
C729 C730 1.396 . S
C729 C734 1.390 . S
C730 C724 1.465 . S
C730 C729 1.396 . S
C730 C731 1.399 . S
C731 H717 0.929 . S
C731 C730 1.399 . S
C731 C732 1.385 . S
C732 H718 0.931 . S
C732 C731 1.385 . S
C732 C733 1.389 . S
C733 C732 1.389 . S
C733 C734 1.387 . S
C734 H719 0.930 . S
C734 C729 1.390 . S
C734 C733 1.387 . S
H735 C747 0.930 . S
H736 C749 0.930 . S
H737 C750 0.930 . S
H738 C754 0.959 . S
H739 C754 0.959 . S
H740 C754 0.961 . S
H741 C755 0.960 . S
H742 C755 0.961 . S
H743 C755 0.959 . S
H744 C758 0.929 . S
H745 C759 0.931 . S
H746 C761 0.930 . S
C747 H735 0.930 . S
C747 C748 1.399 . S
C747 C752 1.399 . S
C748 C747 1.399 . S
C748 C749 1.376 . S
C749 H736 0.930 . S
C749 C748 1.376 . S
C749 C750 1.388 . S
C750 H737 0.930 . S
C750 C749 1.388 . S
C750 C751 1.390 . S
C751 C750 1.390 . S
C751 C752 1.394 . S
C751 C757 1.465 . S
C752 C747 1.399 . S
C752 C751 1.394 . S
C752 C753 1.516 . S
C753 C752 1.516 . S
C753 C754 1.502 . S
C753 C755 1.561 . S
C753 C756 1.526 . S
C754 H738 0.959 . S
C754 H739 0.959 . S
C754 H740 0.961 . S
C754 C753 1.502 . S
C755 H741 0.960 . S
C755 H742 0.961 . S
C755 H743 0.959 . S
C755 C753 1.561 . S
C756 C753 1.526 . S
C756 C757 1.396 . S
C756 C761 1.390 . S
C757 C751 1.465 . S
C757 C756 1.396 . S
C757 C758 1.399 . S
C758 H744 0.929 . S
C758 C757 1.399 . S
C758 C759 1.385 . S
C759 H745 0.931 . S
C759 C758 1.385 . S
C759 C760 1.389 . S
C760 C759 1.389 . S
C760 C761 1.387 . S
C761 H746 0.930 . S
C761 C756 1.390 . S
C761 C760 1.387 . S
H762 C774 0.930 . S
H763 C776 0.930 . S
H764 C777 0.930 . S
H765 C781 0.959 . S
H766 C781 0.959 . S
H767 C781 0.961 . S
H768 C782 0.960 . S
H769 C782 0.961 . S
H770 C782 0.959 . S
H771 C785 0.929 . S
H772 C786 0.931 . S
H773 C788 0.930 . S
C774 H762 0.930 . S
C774 C775 1.399 . S
C774 C779 1.399 . S
C775 C774 1.399 . S
C775 C776 1.376 . S
C776 H763 0.930 . S
C776 C775 1.376 . S
C776 C777 1.388 . S
C777 H764 0.930 . S
C777 C776 1.388 . S
C777 C778 1.390 . S
C778 C777 1.390 . S
C778 C779 1.394 . S
C778 C784 1.465 . S
C779 C774 1.399 . S
C779 C778 1.394 . S
C779 C780 1.516 . S
C780 C779 1.516 . S
C780 C781 1.502 . S
C780 C782 1.561 . S
C780 C783 1.526 . S
C781 H765 0.959 . S
C781 H766 0.959 . S
C781 H767 0.961 . S
C781 C780 1.502 . S
C782 H768 0.960 . S
C782 H769 0.961 . S
C782 H770 0.959 . S
C782 C780 1.561 . S
C783 C780 1.526 . S
C783 C784 1.396 . S
C783 C788 1.390 . S
C784 C778 1.465 . S
C784 C783 1.396 . S
C784 C785 1.399 . S
C785 H771 0.929 . S
C785 C784 1.399 . S
C785 C786 1.385 . S
C786 H772 0.931 . S
C786 C785 1.385 . S
C786 C787 1.389 . S
C787 C786 1.389 . S
C787 C788 1.387 . S
C788 H773 0.930 . S
C788 C783 1.390 . S
C788 C787 1.387 . S
H789 C801 0.930 . S
H790 C803 0.930 . S
H791 C804 0.930 . S
H792 C808 0.959 . S
H793 C808 0.959 . S
H794 C808 0.961 . S
H795 C809 0.960 . S
H796 C809 0.961 . S
H797 C809 0.959 . S
H798 C812 0.929 . S
H799 C813 0.931 . S
H800 C815 0.930 . S
C801 H789 0.930 . S
C801 C802 1.399 . S
C801 C806 1.399 . S
C802 C801 1.399 . S
C802 C803 1.376 . S
C803 H790 0.930 . S
C803 C802 1.376 . S
C803 C804 1.388 . S
C804 H791 0.930 . S
C804 C803 1.388 . S
C804 C805 1.390 . S
C805 C804 1.390 . S
C805 C806 1.394 . S
C805 C811 1.465 . S
C806 C801 1.399 . S
C806 C805 1.394 . S
C806 C807 1.516 . S
C807 C806 1.516 . S
C807 C808 1.502 . S
C807 C809 1.561 . S
C807 C810 1.526 . S
C808 H792 0.959 . S
C808 H793 0.959 . S
C808 H794 0.961 . S
C808 C807 1.502 . S
C809 H795 0.960 . S
C809 H796 0.961 . S
C809 H797 0.959 . S
C809 C807 1.561 . S
C810 C807 1.526 . S
C810 C811 1.396 . S
C810 C815 1.390 . S
C811 C805 1.465 . S
C811 C810 1.396 . S
C811 C812 1.399 . S
C812 H798 0.929 . S
C812 C811 1.399 . S
C812 C813 1.385 . S
C813 H799 0.931 . S
C813 C812 1.385 . S
C813 C814 1.389 . S
C814 C813 1.389 . S
C814 C815 1.387 . S
C815 H800 0.930 . S
C815 C810 1.390 . S
C815 C814 1.387 . S
H816 C828 0.930 . S
H817 C830 0.930 . S
H818 C831 0.930 . S
H819 C835 0.959 . S
H820 C835 0.959 . S
H821 C835 0.961 . S
H822 C836 0.960 . S
H823 C836 0.961 . S
H824 C836 0.959 . S
H825 C839 0.929 . S
H826 C840 0.931 . S
H827 C842 0.930 . S
C828 H816 0.930 . S
C828 C829 1.399 . S
C828 C833 1.399 . S
C829 C828 1.399 . S
C829 C830 1.376 . S
C830 H817 0.930 . S
C830 C829 1.376 . S
C830 C831 1.388 . S
C831 H818 0.930 . S
C831 C830 1.388 . S
C831 C832 1.390 . S
C832 C831 1.390 . S
C832 C833 1.394 . S
C832 C838 1.465 . S
C833 C828 1.399 . S
C833 C832 1.394 . S
C833 C834 1.516 . S
C834 C833 1.516 . S
C834 C835 1.502 . S
C834 C836 1.561 . S
C834 C837 1.526 . S
C835 H819 0.959 . S
C835 H820 0.959 . S
C835 H821 0.961 . S
C835 C834 1.502 . S
C836 H822 0.960 . S
C836 H823 0.961 . S
C836 H824 0.959 . S
C836 C834 1.561 . S
C837 C834 1.526 . S
C837 C838 1.396 . S
C837 C842 1.390 . S
C838 C832 1.465 . S
C838 C837 1.396 . S
C838 C839 1.399 . S
C839 H825 0.929 . S
C839 C838 1.399 . S
C839 C840 1.385 . S
C840 H826 0.931 . S
C840 C839 1.385 . S
C840 C841 1.389 . S
C841 C840 1.389 . S
C841 C842 1.387 . S
C842 H827 0.930 . S
C842 C837 1.390 . S
C842 C841 1.387 . S
H843 C855 0.930 . S
H844 C857 0.930 . S
H845 C858 0.930 . S
H846 C862 0.959 . S
H847 C862 0.959 . S
H848 C862 0.961 . S
H849 C863 0.960 . S
H850 C863 0.961 . S
H851 C863 0.959 . S
H852 C866 0.929 . S
H853 C867 0.931 . S
H854 C869 0.930 . S
C855 H843 0.930 . S
C855 C856 1.399 . S
C855 C860 1.399 . S
C856 C855 1.399 . S
C856 C857 1.376 . S
C857 H844 0.930 . S
C857 C856 1.376 . S
C857 C858 1.388 . S
C858 H845 0.930 . S
C858 C857 1.388 . S
C858 C859 1.390 . S
C859 C858 1.390 . S
C859 C860 1.394 . S
C859 C865 1.465 . S
C860 C855 1.399 . S
C860 C859 1.394 . S
C860 C861 1.516 . S
C861 C860 1.516 . S
C861 C862 1.502 . S
C861 C863 1.561 . S
C861 C864 1.526 . S
C862 H846 0.959 . S
C862 H847 0.959 . S
C862 H848 0.961 . S
C862 C861 1.502 . S
C863 H849 0.960 . S
C863 H850 0.961 . S
C863 H851 0.959 . S
C863 C861 1.561 . S
C864 C861 1.526 . S
C864 C865 1.396 . S
C864 C869 1.390 . S
C865 C859 1.465 . S
C865 C864 1.396 . S
C865 C866 1.399 . S
C866 H852 0.929 . S
C866 C865 1.399 . S
C866 C867 1.385 . S
C867 H853 0.931 . S
C867 C866 1.385 . S
C867 C868 1.389 . S
C868 C867 1.389 . S
C868 C869 1.387 . S
C869 H854 0.930 . S
C869 C864 1.390 . S
C869 C868 1.387 . S
H870 C882 0.930 . S
H871 C884 0.930 . S
H872 C885 0.930 . S
H873 C889 0.959 . S
H874 C889 0.959 . S
H875 C889 0.961 . S
H876 C890 0.960 . S
H877 C890 0.961 . S
H878 C890 0.959 . S
H879 C893 0.929 . S
H880 C894 0.931 . S
H881 C896 0.930 . S
C882 H870 0.930 . S
C882 C883 1.399 . S
C882 C887 1.399 . S
C883 C882 1.399 . S
C883 C884 1.376 . S
C884 H871 0.930 . S
C884 C883 1.376 . S
C884 C885 1.388 . S
C885 H872 0.930 . S
C885 C884 1.388 . S
C885 C886 1.390 . S
C886 C885 1.390 . S
C886 C887 1.394 . S
C886 C892 1.465 . S
C887 C882 1.399 . S
C887 C886 1.394 . S
C887 C888 1.516 . S
C888 C887 1.516 . S
C888 C889 1.502 . S
C888 C890 1.561 . S
C888 C891 1.526 . S
C889 H873 0.959 . S
C889 H874 0.959 . S
C889 H875 0.961 . S
C889 C888 1.502 . S
C890 H876 0.960 . S
C890 H877 0.961 . S
C890 H878 0.959 . S
C890 C888 1.561 . S
C891 C888 1.526 . S
C891 C892 1.396 . S
C891 C896 1.390 . S
C892 C886 1.465 . S
C892 C891 1.396 . S
C892 C893 1.399 . S
C893 H879 0.929 . S
C893 C892 1.399 . S
C893 C894 1.385 . S
C894 H880 0.931 . S
C894 C893 1.385 . S
C894 C895 1.389 . S
C895 C894 1.389 . S
C895 C896 1.387 . S
C896 H881 0.930 . S
C896 C891 1.390 . S
C896 C895 1.387 . S
H897 C909 0.930 . S
H898 C911 0.930 . S
H899 C912 0.930 . S
H900 C916 0.959 . S
H901 C916 0.959 . S
H902 C916 0.961 . S
H903 C917 0.960 . S
H904 C917 0.961 . S
H905 C917 0.959 . S
H906 C920 0.929 . S
H907 C921 0.931 . S
H908 C923 0.930 . S
C909 H897 0.930 . S
C909 C910 1.399 . S
C909 C914 1.399 . S
C910 C909 1.399 . S
C910 C911 1.376 . S
C911 H898 0.930 . S
C911 C910 1.376 . S
C911 C912 1.388 . S
C912 H899 0.930 . S
C912 C911 1.388 . S
C912 C913 1.390 . S
C913 C912 1.390 . S
C913 C914 1.394 . S
C913 C919 1.465 . S
C914 C909 1.399 . S
C914 C913 1.394 . S
C914 C915 1.516 . S
C915 C914 1.516 . S
C915 C916 1.502 . S
C915 C917 1.561 . S
C915 C918 1.526 . S
C916 H900 0.959 . S
C916 H901 0.959 . S
C916 H902 0.961 . S
C916 C915 1.502 . S
C917 H903 0.960 . S
C917 H904 0.961 . S
C917 H905 0.959 . S
C917 C915 1.561 . S
C918 C915 1.526 . S
C918 C919 1.396 . S
C918 C923 1.390 . S
C919 C913 1.465 . S
C919 C918 1.396 . S
C919 C920 1.399 . S
C920 H906 0.929 . S
C920 C919 1.399 . S
C920 C921 1.385 . S
C921 H907 0.931 . S
C921 C920 1.385 . S
C921 C922 1.389 . S
C922 C921 1.389 . S
C922 C923 1.387 . S
C923 H908 0.930 . S
C923 C918 1.390 . S
C923 C922 1.387 . S
C289 C7 2.234 . S
C301 C145 2.215 . S
C316 C30 1.331 . S
C328 N163 1.338 . S
C355 C191 2.044 . S
C343 N58 2.046 . S
C382 N209 1.191 . S
C370 N81 1.218 . S
C409 C237 2.116 . S
C397 C99 2.153 . S
C436 N255 1.273 . S
C424 N127 1.229 . S
C451 N25 2.037 . S
C463 C200 2.084 . S
C478 C62 1.328 . S
C490 N219 1.302 . S
C517 C246 2.167 . S
C505 C85 2.173 . S
C544 N265 1.124 . S
C532 N94 1.196 . S
C559 C131 2.154 . S
C571 C154 2.147 . S
C598 N173 1.153 . S
C586 N2 1.227 . S
C625 C223 2.051 . S
C613 C16 2.072 . S
C640 C39 1.191 . S
C652 N242 1.127 . S
C679 C269 1.912 . S
C667 N48 1.892 . S
C694 N71 1.107 . S
C706 N150 1.040 . S
C721 C108 2.022 . S
C733 C177 2.001 . S
C748 N117 1.102 . S
C760 N196 1.046 . S
C775 N35 1.930 . S
C787 C260 1.923 . S
C814 N140 1.167 . S
C802 C53 1.174 . S
C829 C76 2.103 . S
C841 C168 2.106 . S
C856 N104 1.043 . S
C868 N186 1.101 . S
C883 C122 2.040 . S
C895 C214 2.042 . S
C910 N12 1.074 . S
C922 N232 0.952 . S
