# Generated by pormake.
# Topology rtl, (3,6)-cn, num edge types: 1
# Building blocks:
#     Node 0, Type 0, BuildingBlock: OLANEW_clean_sbu_2, # of connection points: 3
#     Node 1, Type 0, BuildingBlock: OLANEW_clean_sbu_2, # of connection points: 3
#     Node 2, Type 0, BuildingBlock: OLANEW_clean_sbu_2, # of connection points: 3
#     Node 3, Type 0, BuildingBlock: OLANEW_clean_sbu_2, # of connection points: 3
#     Node 4, Type 1, BuildingBlock: KUMJIN_clean_sbu_1, # of connection points: 6
#     Node 5, Type 1, BuildingBlock: KUMJIN_clean_sbu_1, # of connection points: 6
#     Edge 6, Type (0, 1), BuildingBlock: UVAHIK_clean_linker_0, # of connection points: 2
#     Edge 7, Type (0, 1), BuildingBlock: UVAHIK_clean_linker_0, # of connection points: 2
#     Edge 8, Type (0, 1), BuildingBlock: UVAHIK_clean_linker_0, # of connection points: 2
#     Edge 9, Type (0, 1), BuildingBlock: UVAHIK_clean_linker_0, # of connection points: 2
#     Edge 10, Type (0, 1), BuildingBlock: UVAHIK_clean_linker_0, # of connection points: 2
#     Edge 11, Type (0, 1), BuildingBlock: UVAHIK_clean_linker_0, # of connection points: 2
#     Edge 12, Type (0, 1), BuildingBlock: UVAHIK_clean_linker_0, # of connection points: 2
#     Edge 13, Type (0, 1), BuildingBlock: UVAHIK_clean_linker_0, # of connection points: 2
#     Edge 14, Type (0, 1), BuildingBlock: UVAHIK_clean_linker_0, # of connection points: 2
#     Edge 15, Type (0, 1), BuildingBlock: UVAHIK_clean_linker_0, # of connection points: 2
#     Edge 16, Type (0, 1), BuildingBlock: UVAHIK_clean_linker_0, # of connection points: 2
#     Edge 17, Type (0, 1), BuildingBlock: UVAHIK_clean_linker_0, # of connection points: 2
# Relax obj value: 0.040
# Max RMSD: 0.158
# Mean RMSD: 0.126
data_MOF--net-rtl--node1-OLANEW_clean_sbu_2--node2-KUMJIN_clean_sbu_1--edge1-UVAHIK_clean_linker_0
_symmetry_space_group_name_H-M    P1
_symmetry_Int_Tables_number       1
_symmetry_cell_setting            triclinic
loop_
_symmetry_equiv_pos_as_xyz
'x, y, z'
_cell_length_a     47.516305
_cell_length_b     47.135766
_cell_length_c     36.321365
_cell_angle_alpha  78.398814
_cell_angle_beta   102.28773
_cell_angle_gamma 90.97833
loop_
_atom_site_label
_atom_site_type_symbol
_atom_site_fract_x
_atom_site_fract_y
_atom_site_fract_z
_atom_type_partial_charge
O0 O 0.22883 0.85212 0.99579 0.0
Cd1 Cd 0.26468 0.83487 0.05506 0.0
O2 O 0.23532 0.89737 0.0019 0.0
Cd3 Cd 0.2551 0.886 0.06312 0.0
O4 O 0.24208 0.89006 0.11605 0.0
C5 C 0.21686 0.90121 0.10915 0.0
O6 O 0.20265 0.90805 0.0732 0.0
C7 C 0.22418 0.87905 0.98207 0.0
C8 C 0.29801 0.78898 0.04775 0.0
O9 O 0.27712 0.78436 0.06525 0.0
O10 O 0.30327 0.81525 0.03389 0.0
O11 O 0.65594 0.73431 0.66983 0.0
Cd12 Cd 0.66515 0.76831 0.61292 0.0
O13 O 0.65949 0.69528 0.64639 0.0
Cd14 Cd 0.66828 0.7172 0.59141 0.0
O15 O 0.65171 0.71023 0.53327 0.0
C16 C 0.63096 0.69282 0.53205 0.0
O17 O 0.62241 0.68223 0.56408 0.0
C18 C 0.6545 0.70696 0.67305 0.0
C19 C 0.71916 0.7933 0.61433 0.0
O20 O 0.70111 0.80236 0.63133 0.0
O21 O 0.71227 0.77162 0.59816 0.0
O22 O 0.75741 0.1358 0.11822 0.0
Cd23 Cd 0.72582 0.15093 0.05488 0.0
O24 O 0.79029 0.14492 0.0845 0.0
Cd25 Cd 0.83051 0.14867 0.06489 0.0
O26 O 0.84186 0.14087 0.01301 0.0
C27 C 0.83639 0.11583 0.00583 0.0
O28 O 0.82661 0.09629 0.03097 0.0
C29 C 0.7839 0.13594 0.11702 0.0
C30 C 0.69824 0.20397 0.04699 0.0
O31 O 0.68729 0.18007 0.06036 0.0
O32 O 0.72251 0.20286 0.03719 0.0
O33 O 0.35041 0.2742 0.53466 0.0
Cd34 Cd 0.3332 0.25356 0.47747 0.0
O35 O 0.35079 0.31807 0.49972 0.0
Cd36 Cd 0.33664 0.30625 0.44398 0.0
O37 O 0.35016 0.31703 0.38952 0.0
C38 C 0.37621 0.32474 0.39368 0.0
O39 O 0.39135 0.32395 0.42868 0.0
C40 C 0.35537 0.30101 0.53237 0.0
C41 C 0.28573 0.21885 0.48354 0.0
O42 O 0.31149 0.20861 0.49731 0.0
O43 O 0.28237 0.24561 0.46681 0.0
Eu44 Eu 0.02331 0.97006 0.52792 0.0
C45 C 0.96523 0.09393 0.5096 0.0
N46 N 0.99015 0.08221 0.53341 0.0
C47 C 0.01322 0.12776 0.52183 0.0
C48 C 0.96346 0.12329 0.49077 0.0
C49 C 0.01393 0.09861 0.54007 0.0
C50 C 0.98789 0.14017 0.49709 0.0
C51 C 0.91539 0.08803 0.47892 0.0
C52 C 0.94145 0.07639 0.50357 0.0
C53 C 0.91355 0.11731 0.46038 0.0
C54 C 0.9375 0.13487 0.46625 0.0
Eu55 Eu 0.98844 0.03341 0.56408 0.0
N56 N 0.94395 0.04791 0.52131 0.0
C57 C 0.89186 0.06989 0.47372 0.0
C58 C 0.92076 0.03049 0.51752 0.0
C59 C 0.89452 0.04106 0.49331 0.0
H60 H 0.03329 0.08943 0.56012 0.0
H61 H 0.87624 0.02706 0.4902 0.0
H62 H 0.98105 0.9125 0.53992 0.0
H63 H 0.1365 0.98268 0.5937 0.0
H64 H 0.92205 0.00867 0.53371 0.0
H65 H 0.87146 0.07803 0.45509 0.0
H66 H 0.09007 0.99712 0.54925 0.0
H67 H 0.03212 0.14071 0.52715 0.0
H68 H 0.89367 0.1266 0.4414 0.0
H69 H 0.93573 0.15741 0.45167 0.0
H70 H 0.98422 0.86296 0.57919 0.0
H71 H 0.98737 0.16281 0.48316 0.0
H72 H 0.14287 0.93418 0.63631 0.0
N73 N 0.02397 0.92246 0.56386 0.0
C74 C 0.04949 0.91266 0.58786 0.0
C75 C 0.00266 0.87677 0.58208 0.0
C76 C 0.05235 0.88436 0.61047 0.0
C77 C 1.0008 0.90497 0.56025 0.0
C78 C 0.02851 0.86643 0.60737 0.0
N79 N 0.06909 0.95877 0.5692 0.0
C80 C 0.09191 0.97668 0.56904 0.0
C81 C 0.09918 0.92171 0.61574 0.0
C82 C 0.07263 0.93127 0.59062 0.0
C83 C 0.12214 0.94072 0.6174 0.0
C84 C 0.11857 0.96819 0.59361 0.0
H85 H 0.02987 0.84456 0.62425 0.0
H86 H 0.08131 0.85327 0.65321 0.0
H87 H 0.12228 0.88588 0.65772 0.0
O88 O 0.04888 0.97345 0.48368 0.0
O89 O 0.02464 0.96513 0.59226 0.0
O90 O 0.02884 0.01142 0.60319 0.0
O91 O 0.02249 0.93624 0.49476 0.0
O92 O 0.04028 0.01581 0.51448 0.0
O93 O 0.03616 0.03571 0.56622 0.0
O94 O 0.961 0.02829 0.606 0.0
O95 O 0.98595 0.03881 0.49978 0.0
O96 O 0.98335 0.9926 0.48769 0.0
O97 O 0.98964 0.06445 0.60147 0.0
O98 O 0.97081 0.98796 0.57602 0.0
O99 O 0.97544 0.96668 0.52551 0.0
C100 C 0.03364 0.98342 0.61492 0.0
C101 C 0.03117 0.94982 0.43193 0.0
C102 C 0.04573 0.94799 0.37172 0.0
C103 C 0.01646 0.94658 0.35398 0.0
C104 C 0.00216 0.94886 0.41345 0.0
C105 C 0.99492 0.94721 0.37468 0.0
C106 C 0.05281 0.94967 0.41092 0.0
C107 C 0.04757 0.03488 0.53658 0.0
C108 C 0.03944 0.94947 0.47344 0.0
C109 C 0.07873 0.87493 0.63561 0.0
C110 C 0.10206 0.89352 0.63822 0.0
C111 C 0.97826 0.02067 0.47652 0.0
C112 C 0.97826 0.04668 0.66194 0.0
C113 C 0.96197 0.04663 0.72112 0.0
C114 C 0.99027 0.03956 0.7422 0.0
C115 C 0.00641 0.03974 0.68322 0.0
C116 C 0.95618 0.05003 0.68093 0.0
C117 C 0.01234 0.03617 0.72326 0.0
C118 C 0.9629 0.96903 0.55383 0.0
C119 C 0.97122 0.05067 0.61994 0.0
H120 H 0.01014 0.94449 0.32422 0.0
H121 H 0.98514 0.94895 0.42911 0.0
H122 H 0.97254 0.94604 0.36069 0.0
H123 H 0.07515 0.95082 0.42527 0.0
H124 H 0.99544 0.03727 0.77319 0.0
H125 H 0.02372 0.03724 0.6689 0.0
H126 H 0.93442 0.05526 0.66432 0.0
H127 H 0.03411 0.03098 0.73962 0.0
Eu128 Eu 0.47314 0.49467 0.97699 0.0
C129 C 0.59061 0.546 0.02766 0.0
N130 N 0.5801 0.52004 0.04225 0.0
C131 C 0.62394 0.49591 0.0413 0.0
C132 C 0.61792 0.54762 0.01804 0.0
C133 C 0.59704 0.49544 0.05116 0.0
C134 C 0.63426 0.52204 0.02414 0.0
C135 C 0.58579 0.5986 0.0115 0.0
C136 C 0.57476 0.57131 0.02428 0.0
C137 C 0.61254 0.60015 0.00078 0.0
C138 C 0.62851 0.57474 0.00391 0.0
Eu139 Eu 0.53421 0.52253 0.05751 0.0
N140 N 0.54859 0.56927 0.03393 0.0
C141 C 0.56974 0.62355 0.01042 0.0
C142 C 0.53344 0.59339 0.03472 0.0
C143 C 0.54361 0.62092 0.0225 0.0
H144 H 0.59047 0.47545 0.06689 0.0
H145 H 0.53138 0.64006 0.02256 0.0
H146 H 0.41648 0.54059 0.96073 0.0
H147 H 0.48033 0.37659 0.02472 0.0
H148 H 0.51349 0.59124 0.04468 0.0
H149 H 0.57756 0.64492 0.00094 0.0
H150 H 0.49736 0.42453 -0.00093 0.0
H151 H 0.63699 0.47621 0.04775 0.0
H152 H 0.62128 0.62092 0.99059 0.0
H153 H 0.64938 0.57634 0.99621 0.0
H154 H 0.36637 0.53911 0.96925 0.0
H155 H 0.65532 0.52238 0.0171 0.0
H156 H 0.43109 0.37162 0.037 0.0
N157 N 0.42506 0.49566 0.98378 0.0
C158 C 0.41399 0.46959 0.99624 0.0
C159 C 0.37961 0.51946 0.97735 0.0
C160 C 0.38528 0.46771 0.00111 0.0
C161 C 0.40818 0.52029 0.97312 0.0
C162 C 0.36817 0.4931 0.99174 0.0
N163 N 0.45914 0.44708 -0.00041 0.0
C164 C 0.47632 0.42298 0.00564 0.0
C165 C 0.42063 0.4175 0.01844 0.0
C166 C 0.43152 0.4447 0.00465 0.0
C167 C 0.43864 0.39288 0.02631 0.0
C168 C 0.46649 0.39561 0.01957 0.0
H169 H 0.34602 0.49253 0.99502 0.0
H170 H 0.35262 0.43884 0.01918 0.0
H171 H 0.38355 0.39495 0.0345 0.0
O172 O 0.46038 0.47239 0.92883 0.0
O173 O 0.46661 0.48742 0.03871 0.0
O174 O 0.51282 0.48037 0.07501 0.0
O175 O 0.45353 0.51945 0.91969 0.0
O176 O 0.51749 0.47287 0.98897 0.0
O177 O 0.53938 0.47558 0.05202 0.0
O178 O 0.52627 0.53832 0.10767 0.0
O179 O 0.52356 0.54756 0.99574 0.0
O180 O 0.5159 0.5103 0.96428 0.0
O181 O 0.56877 0.52231 0.10752 0.0
O182 O 0.48825 0.53869 0.04925 0.0
O183 O 0.46875 0.54111 0.9845 0.0
C184 C 0.48496 0.47687 0.0711 0.0
C185 C 0.43869 0.49731 0.86347 0.0
C186 C 0.43009 0.47447 0.80741 0.0
C187 C 0.41767 0.50071 0.78436 0.0
C188 C 0.42609 0.52322 0.83981 0.0
C189 C 0.41558 0.52481 0.80054 0.0
C190 C 0.44033 0.4728 0.84715 0.0
C191 C 0.53686 0.4642 0.02111 0.0
C192 C 0.45116 0.49638 0.90459 0.0
C193 C 0.37456 0.44066 0.01509 0.0
C194 C 0.39219 0.41566 0.02381 0.0
C195 C 0.52436 0.53662 0.96561 0.0
C196 C 0.56079 0.52844 0.16813 0.0
C197 C 0.5645 0.54691 0.22694 0.0
C198 C 0.58149 0.52247 0.24766 0.0
C199 C 0.57781 0.50406 0.18924 0.0
C200 C 0.55421 0.54984 0.18718 0.0
C201 C 0.5881 0.50119 0.22886 0.0
C202 C 0.47007 0.54999 0.01704 0.0
C203 C 0.55309 0.53422 0.12584 0.0
H204 H 0.40925 0.50247 0.7538 0.0
H205 H 0.4245 0.54235 0.8516 0.0
H206 H 0.40589 0.54486 0.78252 0.0
H207 H 0.4502 0.45273 0.86502 0.0
H208 H 0.59005 0.52016 0.27828 0.0
H209 H 0.58373 0.48765 0.17503 0.0
H210 H 0.5417 0.56908 0.17098 0.0
H211 H 0.60161 0.48264 0.24495 0.0
C212 C 0.23303 0.20936 0.46538 0.0
C213 C 0.26067 0.20027 0.48709 0.0
C214 C 0.20942 0.19166 0.46879 0.0
C215 C 0.19098 0.11544 0.50626 0.0
H216 H 0.11609 0.15022 0.49911 0.0
C217 C 0.09388 0.05738 0.56007 0.0
C218 C 0.071 0.05457 0.52958 0.0
C219 C 0.11669 0.07535 0.55334 0.0
C220 C 0.13691 0.14036 0.50095 0.0
H221 H 0.28521 0.16569 0.52977 0.0
H222 H 0.24408 0.13539 0.53694 0.0
H223 H 0.15693 0.18132 0.4909 0.0
H224 H 0.05311 0.06874 0.4687 0.0
H225 H 0.09264 0.10151 0.45721 0.0
H226 H 0.17087 0.07446 0.51812 0.0
C227 C 0.24058 0.15572 0.51629 0.0
C228 C 0.16028 0.15807 0.49601 0.0
C229 C 0.26421 0.17322 0.51243 0.0
C230 C 0.07077 0.0705 0.49247 0.0
C231 C 0.09317 0.08919 0.48596 0.0
C232 C 0.16774 0.0978 0.51192 0.0
C233 C 0.21285 0.16462 0.49443 0.0
C234 C 0.18769 0.14585 0.49871 0.0
C235 C 0.11639 0.09143 0.51629 0.0
C236 C 0.14062 0.11016 0.50934 0.0
H237 H 0.22967 0.23004 0.4454 0.0
H238 H 0.18856 0.19909 0.45097 0.0
H239 H 0.21149 0.10516 0.50767 0.0
H240 H 0.09445 0.04511 0.58887 0.0
H241 H 0.1345 0.07684 0.57703 0.0
C242 C 0.32913 0.7675 0.01232 0.0
C243 C 0.31543 0.76469 0.04346 0.0
C244 C 0.34502 0.74424 0.00773 0.0
C245 C 0.35731 0.66421 0.04229 0.0
H246 H 0.42445 0.67844 0.99705 0.0
C247 C 0.44349 0.57659 0.05241 0.0
C248 C 0.45091 0.57408 0.01775 0.0
C249 C 0.42596 0.59964 0.05374 0.0
C250 C 0.40559 0.67422 0.00943 0.0
H251 H 0.30826 0.7358 0.09484 0.0
H252 H 0.33723 0.69579 0.08823 0.0
H253 H 0.39668 0.71929 0.00413 0.0
H254 H 0.44604 0.59375 0.95736 0.0
H255 H 0.41573 0.63464 0.95994 0.0
H256 H 0.36726 0.61903 0.04908 0.0
C257 C 0.3348 0.71539 0.06627 0.0
C258 C 0.38954 0.69761 0.01337 0.0
C259 C 0.31834 0.73842 0.07031 0.0
C260 C 0.4405 0.5951 0.9844 0.0
C261 C 0.42335 0.61851 0.9859 0.0
C262 C 0.3737 0.64089 0.03902 0.0
C263 C 0.34816 0.71783 0.03469 0.0
C264 C 0.36517 0.69295 0.02996 0.0
C265 C 0.4159 0.62092 0.02059 0.0
C266 C 0.39799 0.64568 0.02262 0.0
H267 H 0.32702 0.78748 0.991 0.0
H268 H 0.35444 0.74691 0.98264 0.0
H269 H 0.33836 0.6596 0.05431 0.0
H270 H 0.45115 0.56065 0.07856 0.0
H271 H 0.42067 0.60114 0.08088 0.0
C272 C 0.75874 0.82531 0.63812 0.0
C273 C 0.74616 0.80877 0.61103 0.0
C274 C 0.78303 0.84168 0.63322 0.0
C275 C 0.81877 0.87904 0.55807 0.0
H276 H 0.88604 0.87726 0.64056 0.0
C277 C 0.92366 0.93581 0.53244 0.0
C278 C 0.93855 0.95013 0.56085 0.0
C279 C 0.9004 0.91837 0.53903 0.0
C280 C 0.86728 0.87831 0.61735 0.0
H281 H 0.74915 0.79635 0.55766 0.0
H282 H 0.79115 0.82546 0.54866 0.0
H283 H 0.84516 0.84707 0.65179 0.0
H284 H 0.94064 0.95737 0.61849 0.0
H285 H 0.9 0.92719 0.62985 0.0
H286 H 0.84048 0.91059 0.52376 0.0
C287 C 0.7824 0.82553 0.57385 0.0
C288 C 0.84392 0.86095 0.6238 0.0
C289 C 0.75852 0.80869 0.57918 0.0
C290 C 0.92965 0.94662 0.59598 0.0
C291 C 0.90646 0.92912 0.60262 0.0
C292 C 0.842 0.89657 0.5517 0.0
C293 C 0.7948 0.84234 0.60068 0.0
C294 C 0.8195 0.861 0.59415 0.0
C295 C 0.89149 0.9148 0.57421 0.0
C296 C 0.86663 0.89632 0.58119 0.0
H297 H 0.74966 0.82576 0.66296 0.0
H298 H 0.79211 0.8545 0.6543 0.0
H299 H 0.80002 0.87988 0.53487 0.0
H300 H 0.92985 0.93823 0.50496 0.0
H301 H 0.88958 0.90743 0.51665 0.0
C302 C 0.65768 0.23252 0.05672 0.0
C303 C 0.6831 0.23192 0.04302 0.0
C304 C 0.643 0.25864 0.05291 0.0
C305 C 0.65134 0.33828 0.03518 0.0
H306 H 0.5678 0.338 0.01515 0.0
C307 C 0.57349 0.43992 0.99735 0.0
C308 C 0.55532 0.43904 0.02333 0.0
C309 C 0.59063 0.41568 -0.001 0.0
C310 C 0.59112 0.3383 0.0208 0.0
H311 H 0.71319 0.25835 0.01468 0.0
H312 H 0.68711 0.30409 0.00721 0.0
H313 H 0.59469 0.29381 0.01772 0.0
H314 H 0.5402 0.41271 0.0709 0.0
H315 H 0.56916 0.36963 0.07257 0.0
H316 H 0.64731 0.38327 0.03716 0.0
C317 C 0.67878 0.28434 0.02147 0.0
C318 C 0.60658 0.31301 0.02253 0.0
C319 C 0.69364 0.25811 0.02554 0.0
C320 C 0.55431 0.41374 0.05085 0.0
C321 C 0.57071 0.38923 0.05169 0.0
C322 C 0.63577 0.36378 0.03279 0.0
C323 C 0.65317 0.28488 0.03495 0.0
C324 C 0.6369 0.31249 0.03048 0.0
C325 C 0.589 0.39004 0.02582 0.0
C326 C 0.60559 0.36378 0.0262 0.0
H327 H 0.64909 0.21276 0.07058 0.0
H328 H 0.62375 0.25823 0.06446 0.0
H329 H 0.67465 0.33863 0.04173 0.0
H330 H 0.57456 0.45941 0.97604 0.0
H331 H 0.60458 0.41667 0.97878 0.0
C332 C 0.17697 0.92227 0.13095 0.0
C333 C 0.20365 0.90725 0.14031 0.0
C334 C 0.16431 0.9286 0.15973 0.0
C335 C 0.16101 0.90491 0.26061 0.0
H336 H 0.12513 0.98081 0.24587 0.0
C337 C 0.09487 0.9317 0.36652 0.0
C338 C 0.06861 0.947 0.34946 0.0
C339 C 0.11543 0.92928 0.34474 0.0
C340 C 0.13485 0.95944 0.25037 0.0
H341 H 0.23783 0.88676 0.18742 0.0
H342 H 0.21535 0.89763 0.23804 0.0
H343 H 0.15325 0.97126 0.20068 0.0
H344 H 0.04424 0.973 0.29636 0.0
H345 H 0.07926 0.96777 0.25826 0.0
H346 H 0.14168 0.89265 0.30937 0.0
C347 C 0.20441 0.90456 0.20824 0.0
C348 C 0.15105 0.95402 0.22452 0.0
C349 C 0.21729 0.89842 0.17929 0.0
C350 C 0.0639 0.96056 0.31039 0.0
C351 C 0.0843 0.95795 0.2886 0.0
C352 C 0.14457 0.91025 0.28636 0.0
C353 C 0.17787 0.91992 0.19867 0.0
C354 C 0.16373 0.92651 0.22882 0.0
C355 C 0.11019 0.94198 0.30532 0.0
C356 C 0.13067 0.93738 0.28099 0.0
H357 H 0.16579 0.9293 0.10126 0.0
H358 H 0.1436 0.93999 0.15147 0.0
H359 H 0.17043 0.88345 0.26455 0.0
H360 H 0.09927 0.9208 0.39646 0.0
H361 H 0.13529 0.91717 0.35873 0.0
C362 C 0.63453 0.70161 0.73284 0.0
C363 C 0.64373 0.68891 0.7054 0.0
C364 C 0.62117 0.68499 0.76046 0.0
C365 C 0.61109 0.60928 0.80778 0.0
H366 H 0.54455 0.64222 0.83166 0.0
C367 C 0.54308 0.54098 0.9053 0.0
C368 C 0.53519 0.55412 0.93319 0.0
C369 C 0.5548 0.55738 0.87587 0.0
C370 C 0.56325 0.63279 0.82555 0.0
H371 H 0.64656 0.64853 0.68612 0.0
H372 H 0.62327 0.61976 0.73398 0.0
H373 H 0.5691 0.6709 0.78479 0.0
H374 H 0.53163 0.59503 0.9506 0.0
H375 H 0.55305 0.62341 0.90037 0.0
H376 H 0.60534 0.57123 0.8486 0.0
C377 C 0.62661 0.64248 0.73447 0.0
C378 C 0.57737 0.64926 0.79875 0.0
C379 C 0.63995 0.65905 0.70693 0.0
C380 C 0.53824 0.58413 0.9302 0.0
C381 C 0.55011 0.60049 0.90099 0.0
C382 C 0.59698 0.59283 0.83455 0.0
C383 C 0.61674 0.65529 0.76131 0.0
C384 C 0.60158 0.63776 0.7897 0.0
C385 C 0.55885 0.58726 0.8737 0.0
C386 C 0.57299 0.60442 0.84394 0.0
H387 H 0.63702 0.72454 0.73247 0.0
H388 H 0.61423 0.69545 0.78109 0.0
H389 H 0.62986 0.59985 0.80185 0.0
H390 H 0.5407 0.51792 0.90656 0.0
H391 H 0.56079 0.54661 0.85488 0.0
C392 C 0.79888 0.12336 0.18858 0.0
C393 C 0.80595 0.1253 0.15253 0.0
C394 C 0.81892 0.11251 0.22245 0.0
C395 C 0.88536 0.0671 0.26045 0.0
H396 H 0.88948 0.10254 0.34894 0.0
C397 C 0.94614 0.01396 0.41452 0.0
C398 C 0.96136 0.03239 0.43729 0.0
C399 C 0.9287 0.02544 0.37852 0.0
C400 C 0.88881 0.09254 0.32441 0.0
H401 H 0.83953 0.11627 0.12403 0.0
H402 H 0.87489 0.09827 0.18314 0.0
H403 H 0.8568 0.12311 0.28846 0.0
H404 H 0.97151 0.07724 0.43905 0.0
H405 H 0.94087 0.09717 0.37685 0.0
H406 H 0.91776 0.03674 0.2965 0.0
C407 C 0.85372 0.10512 0.18514 0.0
C408 C 0.86982 0.10413 0.28984 0.0
C409 C 0.83358 0.11595 0.15117 0.0
C410 C 0.95952 0.06244 0.42274 0.0
C411 C 0.94196 0.0739 0.387 0.0
C412 C 0.9044 0.05548 0.29512 0.0
C413 C 0.84661 0.10327 0.2212 0.0
C414 C 0.86771 0.09147 0.25749 0.0
C415 C 0.92608 0.05558 0.36464 0.0
C416 C 0.90627 0.06803 0.32752 0.0
H417 H 0.77771 0.13016 0.19069 0.0
H418 H 0.8125 0.11091 0.24966 0.0
H419 H 0.88409 0.05665 0.23621 0.0
H420 H 0.94711 0.99071 0.42485 0.0
H421 H 0.9166 0.01075 0.36208 0.0
C422 C 0.36502 0.29783 0.60386 0.0
C423 C 0.36786 0.31245 0.56716 0.0
C424 C 0.37672 0.30928 0.63639 0.0
C425 C 0.43053 0.36035 0.67198 0.0
H426 H 0.37835 0.37243 0.73651 0.0
C427 C 0.44161 0.45248 0.755 0.0
C428 C 0.43185 0.44909 0.78947 0.0
C429 C 0.43944 0.43 0.73481 0.0
C430 C 0.39352 0.36863 0.71949 0.0
H431 H 0.386 0.34989 0.53583 0.0
H432 H 0.40657 0.36957 0.59242 0.0
H433 H 0.3634 0.3435 0.68752 0.0
H434 H 0.41391 0.4189 0.8312 0.0
H435 H 0.41013 0.37936 0.79589 0.0
H436 H 0.46035 0.38617 0.70314 0.0
C437 C 0.39526 0.34939 0.59615 0.0
C438 C 0.38488 0.3521 0.69132 0.0
C439 C 0.38319 0.33826 0.56369 0.0
C440 C 0.42153 0.42211 0.80463 0.0
C441 C 0.41918 0.39959 0.78427 0.0
C442 C 0.43925 0.37673 0.7003 0.0
C443 C 0.39195 0.33518 0.63279 0.0
C444 C 0.40294 0.34858 0.6665 0.0
C445 C 0.42733 0.40359 0.74855 0.0
C446 C 0.42047 0.38187 0.72355 0.0
H447 H 0.35336 0.27786 0.60735 0.0
H448 H 0.37388 0.2979 0.66433 0.0
H449 H 0.44505 0.35757 0.65359 0.0
H450 H 0.45003 0.47295 0.74293 0.0
H451 H 0.44577 0.43398 0.70733 0.0
C452 C 0.627 0.69311 0.46183 0.0
C453 C 0.61721 0.68351 0.49602 0.0
C454 C 0.61474 0.68283 0.42855 0.0
C455 C 0.57708 0.61947 0.40049 0.0
H456 H 0.56437 0.66574 0.29695 0.0
C457 C 0.54192 0.56364 0.27482 0.0
C458 C 0.55889 0.56967 0.24719 0.0
C459 C 0.54144 0.58237 0.29996 0.0
C460 C 0.56779 0.65257 0.3257 0.0
H461 H 0.58624 0.65638 0.52172 0.0
H462 H 0.56487 0.63873 0.4639 0.0
H463 H 0.57929 0.68914 0.35224 0.0
H464 H 0.58687 0.60074 0.22174 0.0
H465 H 0.58691 0.6332 0.26658 0.0
H466 H 0.56673 0.58284 0.37461 0.0
C467 C 0.58222 0.65388 0.46281 0.0
C468 C 0.57639 0.66594 0.35731 0.0
C469 C 0.59444 0.6641 0.49596 0.0
C470 C 0.57363 0.59577 0.24298 0.0
C471 C 0.57352 0.61437 0.26854 0.0
C472 C 0.56856 0.60618 0.3691 0.0
C473 C 0.59251 0.66275 0.42889 0.0
C474 C 0.58146 0.64942 0.39505 0.0
C475 C 0.55852 0.6071 0.29852 0.0
C476 C 0.56412 0.62243 0.33128 0.0
H477 H 0.64451 0.70807 0.46096 0.0
H478 H 0.62336 0.68983 0.40299 0.0
H479 H 0.58133 0.60599 0.42909 0.0
H480 H 0.53018 0.54371 0.27819 0.0
H481 H 0.52901 0.57658 0.32202 0.0
C482 C 0.83968 0.13123 0.93701 0.0
C483 C 0.84005 0.109 0.96926 0.0
C484 C 0.84364 0.12478 0.90256 0.0
C485 C 0.85095 0.06286 0.85384 0.0
H486 H 0.90048 0.11626 0.80325 0.0
C487 C 0.93587 0.03293 0.77503 0.0
C488 C 0.93878 0.05167 0.7408 0.0
C489 C 0.91563 0.0392 0.79528 0.0
C490 C 0.88618 0.10138 0.81655 0.0
H491 H 0.84393 0.06259 0.99063 0.0
H492 H 0.85268 0.05137 0.93153 0.0
H493 H 0.88054 0.12942 0.85369 0.0
H494 H 0.92196 0.09098 0.70001 0.0
H495 H 0.88695 0.10216 0.73588 0.0
H496 H 0.8589 0.03392 0.81822 0.0
C497 C 0.84834 0.07374 0.93205 0.0
C498 C 0.87457 0.10895 0.84548 0.0
C499 C 0.84369 0.08016 0.9662 0.0
C500 C 0.92017 0.0761 0.72628 0.0
C501 C 0.90018 0.08254 0.74675 0.0
C502 C 0.86311 0.05506 0.82533 0.0
C503 C 0.84884 0.09601 0.89991 0.0
C504 C 0.85741 0.0895 0.86528 0.0
C505 C 0.89823 0.0645 0.78186 0.0
C506 C 0.88135 0.07404 0.80713 0.0
H507 H 0.83626 0.15363 0.93835 0.0
H508 H 0.84305 0.14246 0.87821 0.0
H509 H 0.83722 0.04763 0.86767 0.0
H510 H 0.94968 0.01376 0.78658 0.0
H511 H 0.9147 0.02511 0.82249 0.0
C512 C 0.37193 0.34073 0.32254 0.0
C513 C 0.38877 0.33662 0.36009 0.0
C514 C 0.38342 0.35406 0.29119 0.0
C515 C 0.44139 0.40318 0.26792 0.0
H516 H 0.42098 0.38029 0.16903 0.0
C517 C 0.49364 0.45002 0.13947 0.0
C518 C 0.47428 0.46021 0.10424 0.0
C519 C 0.48384 0.43413 0.17085 0.0
C520 C 0.4267 0.38694 0.19649 0.0
H521 H 0.43116 0.34229 0.39412 0.0
H522 H 0.45128 0.36497 0.33952 0.0
H523 H 0.40343 0.35267 0.2238 0.0
H524 H 0.42927 0.46253 0.07516 0.0
H525 H 0.41241 0.43364 0.12942 0.0
H526 H 0.465 0.43721 0.24058 0.0
C527 C 0.42904 0.3585 0.33426 0.0
C528 C 0.41662 0.37123 0.22779 0.0
C529 C 0.41755 0.3453 0.36556 0.0
C530 C 0.44488 0.45435 0.10132 0.0
C531 C 0.43518 0.43792 0.13248 0.0
C532 C 0.45171 0.41867 0.23675 0.0
C533 C 0.41199 0.36345 0.29676 0.0
C534 C 0.42365 0.37931 0.2638 0.0
C535 C 0.45458 0.42774 0.16751 0.0
C536 C 0.44425 0.41083 0.20071 0.0
H537 H 0.34967 0.3343 0.31739 0.0
H538 H 0.36959 0.35779 0.26274 0.0
H539 H 0.4468 0.41034 0.29503 0.0
H540 H 0.51641 0.45435 0.14296 0.0
H541 H 0.49921 0.4265 0.19761 0.0
C542 C 0.18991 0.86945 0.9232 0.0
C543 C 0.20503 0.88924 0.94384 0.0
C544 C 0.17097 0.87929 0.88784 0.0
C545 C 0.15477 0.94214 0.80739 0.0
H546 H 0.07945 0.90862 0.78561 0.0
C547 C 0.06875 0.99155 0.67351 0.0
C548 C 0.05172 0.97247 0.65362 0.0
C549 C 0.08672 0.98124 0.70938 0.0
C550 C 0.10053 0.91797 0.791 0.0
H551 H 0.21216 0.93492 0.94333 0.0
H552 H 0.17926 0.95199 0.88173 0.0
H553 H 0.11266 0.89059 0.84689 0.0
H554 H 0.03947 0.92772 0.65645 0.0
H555 H 0.07191 0.90942 0.71812 0.0
H556 H 0.14297 0.96926 0.75151 0.0
C557 C 0.18218 0.92887 0.89276 0.0
C558 C 0.11953 0.90765 0.82615 0.0
C559 C 0.20097 0.91906 0.92816 0.0
C560 C 0.05271 0.9429 0.6707 0.0
C561 C 0.07102 0.93248 0.70636 0.0
C562 C 0.13588 0.95233 0.77219 0.0
C563 C 0.1669 0.90912 0.87226 0.0
C564 C 0.14682 0.91969 0.83476 0.0
C565 C 0.08838 0.95151 0.72607 0.0
C566 C 0.10847 0.94046 0.76357 0.0
H567 H 0.1925 0.84634 0.93448 0.0
H568 H 0.1597 0.86355 0.87251 0.0
H569 H 0.17581 0.95158 0.81296 0.0
H570 H 0.06857 0.01448 0.66117 0.0
H571 H 0.09932 0.99663 0.72403 0.0
loop_
_geom_bond_atom_site_label_1
_geom_bond_atom_site_label_2
_geom_bond_distance
_geom_bond_site_symmetry_2
_ccdc_geom_bond_type
O0 Cd1 2.300 1_556 S
O0 C7 1.275 . S
Cd1 O0 2.300 1_554 S
Cd1 O9 2.381 . S
Cd1 O10 2.378 . S
O2 Cd3 2.385 . S
O2 C7 1.255 1_554 S
Cd3 O2 2.385 . S
Cd3 O4 2.317 . S
O4 Cd3 2.317 . S
O4 C5 1.232 . S
C5 O4 1.232 . S
C5 O6 1.218 . S
O6 C5 1.218 . S
C7 O0 1.275 . S
C7 O2 1.255 1_556 S
C8 O9 1.258 . S
C8 O10 1.256 . S
O9 Cd1 2.381 . S
O9 C8 1.258 . S
O10 Cd1 2.378 . S
O10 C8 1.256 . S
O11 Cd12 2.300 . S
O11 C18 1.275 . S
Cd12 O11 2.300 . S
Cd12 O20 2.381 . S
Cd12 O21 2.378 . S
O13 Cd14 2.385 . S
O13 C18 1.255 . S
Cd14 O13 2.385 . S
Cd14 O15 2.317 . S
O15 Cd14 2.317 . S
O15 C16 1.232 . S
C16 O15 1.232 . S
C16 O17 1.218 . S
O17 C16 1.218 . S
C18 O11 1.275 . S
C18 O13 1.255 . S
C19 O20 1.258 . S
C19 O21 1.256 . S
O20 Cd12 2.381 . S
O20 C19 1.258 . S
O21 Cd12 2.378 . S
O21 C19 1.256 . S
O22 Cd23 2.300 . S
O22 C29 1.275 . S
Cd23 O22 2.300 . S
Cd23 O31 2.381 . S
Cd23 O32 2.378 . S
O24 Cd25 2.385 . S
O24 C29 1.255 . S
Cd25 O24 2.385 . S
Cd25 O26 2.317 1_554 S
O26 Cd25 2.317 1_556 S
O26 C27 1.232 . S
C27 O26 1.232 . S
C27 O28 1.218 1_556 S
O28 C27 1.218 1_554 S
C29 O22 1.275 . S
C29 O24 1.255 . S
C30 O31 1.258 . S
C30 O32 1.256 . S
O31 Cd23 2.381 . S
O31 C30 1.258 . S
O32 Cd23 2.378 . S
O32 C30 1.256 . S
O33 Cd34 2.300 . S
O33 C40 1.275 . S
Cd34 O33 2.300 . S
Cd34 O42 2.381 . S
Cd34 O43 2.378 . S
O35 Cd36 2.385 . S
O35 C40 1.255 . S
Cd36 O35 2.385 . S
Cd36 O37 2.317 . S
O37 Cd36 2.317 . S
O37 C38 1.232 . S
C38 O37 1.232 . S
C38 O39 1.218 . S
O39 C38 1.218 . S
C40 O33 1.275 . S
C40 O35 1.255 . S
C41 O42 1.258 . S
C41 O43 1.256 . S
O42 Cd34 2.381 . S
O42 C41 1.258 . S
O43 Cd34 2.378 . S
O43 C41 1.256 . S
Eu44 N73 2.600 . S
Eu44 N79 2.562 . S
Eu44 O88 2.462 . S
Eu44 O89 2.373 . S
Eu44 O91 2.432 . S
Eu44 O92 2.291 1_565 S
Eu44 O96 2.317 1_465 S
Eu44 O99 2.372 1_455 S
Eu44 C108 2.787 . S
C45 N46 1.365 . S
C45 C48 1.405 . S
C45 C52 1.448 . S
N46 C45 1.365 . S
N46 C49 1.319 1_655 S
N46 Eu55 2.600 . S
C47 C49 1.397 . S
C47 C50 1.367 1_455 S
C47 H67 0.931 . S
C48 C45 1.405 . S
C48 C50 1.403 . S
C48 C54 1.439 . S
C49 N46 1.319 1_455 S
C49 C47 1.397 . S
C49 H60 0.930 . S
C50 C47 1.367 1_655 S
C50 C48 1.403 . S
C50 H71 0.929 . S
C51 C52 1.430 . S
C51 C53 1.387 . S
C51 C57 1.404 . S
C52 C45 1.448 . S
C52 C51 1.430 . S
C52 N56 1.351 . S
C53 C51 1.387 . S
C53 C54 1.374 . S
C53 H68 0.931 . S
C54 C48 1.439 . S
C54 C53 1.374 . S
C54 H69 0.931 . S
Eu55 N46 2.600 . S
Eu55 N56 2.562 . S
Eu55 O90 2.335 1_655 S
Eu55 O93 2.372 1_655 S
Eu55 O94 2.462 . S
Eu55 O95 2.373 . S
Eu55 O97 2.432 . S
Eu55 O98 2.291 1_545 S
Eu55 C119 2.787 . S
N56 C52 1.351 . S
N56 Eu55 2.562 . S
N56 C58 1.325 . S
C57 C51 1.404 . S
C57 C59 1.366 . S
C57 H65 0.930 . S
C58 N56 1.325 . S
C58 C59 1.416 . S
C58 H64 0.929 . S
C59 C57 1.366 . S
C59 C58 1.416 . S
C59 H61 0.930 . S
H60 C49 0.930 . S
H61 C59 0.930 . S
H62 C77 0.930 1_655 S
H63 C84 0.930 . S
H64 C58 0.929 . S
H65 C57 0.930 . S
H66 C80 0.929 . S
H67 C47 0.931 . S
H68 C53 0.931 . S
H69 C54 0.931 . S
H70 C75 0.931 1_655 S
H71 C50 0.929 . S
H72 C83 0.930 . S
N73 Eu44 2.600 . S
N73 C74 1.365 . S
N73 C77 1.319 . S
C74 N73 1.365 . S
C74 C76 1.405 . S
C74 C82 1.448 . S
C75 H70 0.931 1_455 S
C75 C77 1.397 . S
C75 C78 1.367 . S
C76 C74 1.405 . S
C76 C78 1.403 . S
C76 C109 1.439 . S
C77 H62 0.930 1_455 S
C77 N73 1.319 . S
C77 C75 1.397 . S
C78 C75 1.367 . S
C78 C76 1.403 . S
C78 H85 0.929 . S
N79 Eu44 2.562 . S
N79 C80 1.325 . S
N79 C82 1.351 . S
C80 H66 0.929 . S
C80 N79 1.325 . S
C80 C84 1.416 . S
C81 C82 1.430 . S
C81 C83 1.404 . S
C81 C110 1.387 . S
C82 C74 1.448 . S
C82 N79 1.351 . S
C82 C81 1.430 . S
C83 H72 0.930 . S
C83 C81 1.404 . S
C83 C84 1.366 . S
C84 H63 0.930 . S
C84 C80 1.416 . S
C84 C83 1.366 . S
H85 C78 0.929 . S
H86 C109 0.931 . S
H87 C110 0.931 . S
O88 Eu44 2.462 . S
O88 C108 1.252 . S
O89 Eu44 2.373 . S
O89 C100 1.249 . S
O90 Eu55 2.335 1_455 S
O90 C100 1.264 1_545 S
O91 Eu44 2.432 . S
O91 C108 1.268 . S
O92 Eu44 2.291 1_545 S
O92 C107 1.255 . S
O93 Eu55 2.372 1_455 S
O93 C107 1.257 . S
O94 Eu55 2.462 . S
O94 C119 1.252 . S
O95 Eu55 2.373 . S
O95 C111 1.249 . S
O96 Eu44 2.317 1_645 S
O96 C111 1.292 . S
O97 Eu55 2.432 . S
O97 C119 1.268 . S
O98 Eu55 2.291 1_565 S
O98 C118 1.255 . S
O99 Eu44 2.372 1_655 S
O99 C118 1.257 . S
C100 O89 1.249 . S
C100 O90 1.264 1_565 S
C101 C104 1.382 . S
C101 C106 1.390 . S
C101 C108 1.506 . S
C102 C103 1.398 . S
C102 C106 1.392 . S
C103 C102 1.398 . S
C103 C105 1.372 . S
C103 H120 0.931 . S
C104 C101 1.382 . S
C104 C105 1.390 . S
C104 H121 0.931 . S
C105 C103 1.372 . S
C105 C104 1.390 . S
C105 H122 0.929 . S
C106 C101 1.390 . S
C106 C102 1.392 . S
C106 H123 0.930 . S
C107 O92 1.255 . S
C107 O93 1.257 . S
C108 Eu44 2.787 . S
C108 O88 1.252 . S
C108 O91 1.268 . S
C108 C101 1.506 . S
C109 C76 1.439 . S
C109 H86 0.931 . S
C109 C110 1.374 . S
C110 C81 1.387 . S
C110 H87 0.931 . S
C110 C109 1.374 . S
C111 O95 1.249 . S
C111 O96 1.292 . S
C112 C115 1.382 . S
C112 C116 1.390 . S
C112 C119 1.506 . S
C113 C114 1.398 . S
C113 C116 1.392 . S
C114 C113 1.398 . S
C114 C117 1.372 . S
C114 H124 0.931 . S
C115 C112 1.382 . S
C115 C117 1.390 . S
C115 H125 0.931 . S
C116 C112 1.390 . S
C116 C113 1.392 . S
C116 H126 0.930 . S
C117 C114 1.372 . S
C117 C115 1.390 . S
C117 H127 0.929 . S
C118 O98 1.255 . S
C118 O99 1.257 . S
C119 Eu55 2.787 . S
C119 O94 1.252 . S
C119 O97 1.268 . S
C119 C112 1.506 . S
H120 C103 0.931 . S
H121 C104 0.931 . S
H122 C105 0.929 . S
H123 C106 0.930 . S
H124 C114 0.931 . S
H125 C115 0.931 . S
H126 C116 0.930 . S
H127 C117 0.929 . S
Eu128 N157 2.600 . S
Eu128 N163 2.562 1_556 S
Eu128 O172 2.462 . S
Eu128 O173 2.373 1_556 S
Eu128 O175 2.432 . S
Eu128 O176 2.291 1_556 S
Eu128 O180 2.335 . S
Eu128 O183 2.372 . S
Eu128 C192 2.787 . S
C129 N130 1.365 . S
C129 C132 1.405 . S
C129 C136 1.448 . S
N130 C129 1.365 . S
N130 C133 1.319 . S
N130 Eu139 2.600 . S
C131 C133 1.397 . S
C131 C134 1.367 . S
C131 H151 0.931 . S
C132 C129 1.405 . S
C132 C134 1.403 . S
C132 C138 1.439 . S
C133 N130 1.319 . S
C133 C131 1.397 . S
C133 H144 0.930 . S
C134 C131 1.367 . S
C134 C132 1.403 . S
C134 H155 0.929 . S
C135 C136 1.430 . S
C135 C137 1.387 . S
C135 C141 1.404 . S
C136 C129 1.448 . S
C136 C135 1.430 . S
C136 N140 1.351 . S
C137 C135 1.387 . S
C137 C138 1.374 . S
C137 H152 0.931 . S
C138 C132 1.439 . S
C138 C137 1.374 . S
C138 H153 0.931 . S
Eu139 N130 2.600 . S
Eu139 N140 2.562 . S
Eu139 O174 2.335 . S
Eu139 O177 2.372 . S
Eu139 O178 2.462 . S
Eu139 O179 2.373 1_554 S
Eu139 O181 2.432 . S
Eu139 O182 2.291 . S
Eu139 C203 2.787 . S
N140 C136 1.351 . S
N140 Eu139 2.562 . S
N140 C142 1.325 . S
C141 C135 1.404 . S
C141 C143 1.366 . S
C141 H149 0.930 . S
C142 N140 1.325 . S
C142 C143 1.416 . S
C142 H148 0.929 . S
C143 C141 1.366 . S
C143 C142 1.416 . S
C143 H145 0.930 . S
H144 C133 0.930 . S
H145 C143 0.930 . S
H146 C161 0.930 . S
H147 C168 0.930 . S
H148 C142 0.929 . S
H149 C141 0.930 . S
H150 C164 0.929 . S
H151 C131 0.931 . S
H152 C137 0.931 . S
H153 C138 0.931 . S
H154 C159 0.931 . S
H155 C134 0.929 . S
H156 C167 0.930 . S
N157 Eu128 2.600 . S
N157 C158 1.365 1_556 S
N157 C161 1.319 . S
C158 N157 1.365 1_554 S
C158 C160 1.405 . S
C158 C166 1.448 . S
C159 H154 0.931 . S
C159 C161 1.397 . S
C159 C162 1.367 . S
C160 C158 1.405 . S
C160 C162 1.403 1_554 S
C160 C193 1.439 . S
C161 H146 0.930 . S
C161 N157 1.319 . S
C161 C159 1.397 . S
C162 C159 1.367 . S
C162 C160 1.403 1_556 S
C162 H169 0.929 1_556 S
N163 Eu128 2.562 1_554 S
N163 C164 1.325 . S
N163 C166 1.351 . S
C164 H150 0.929 . S
C164 N163 1.325 . S
C164 C168 1.416 . S
C165 C166 1.430 . S
C165 C167 1.404 . S
C165 C194 1.387 . S
C166 C158 1.448 . S
C166 N163 1.351 . S
C166 C165 1.430 . S
C167 H156 0.930 . S
C167 C165 1.404 . S
C167 C168 1.366 . S
C168 H147 0.930 . S
C168 C164 1.416 . S
C168 C167 1.366 . S
H169 C162 0.929 1_554 S
H170 C193 0.931 . S
H171 C194 0.931 . S
O172 Eu128 2.462 . S
O172 C192 1.252 . S
O173 Eu128 2.373 1_554 S
O173 C184 1.249 . S
O174 Eu139 2.335 . S
O174 C184 1.264 . S
O175 Eu128 2.432 . S
O175 C192 1.268 . S
O176 Eu128 2.291 1_554 S
O176 C191 1.255 . S
O177 Eu139 2.372 . S
O177 C191 1.257 . S
O178 Eu139 2.462 . S
O178 C203 1.252 . S
O179 Eu139 2.373 1_556 S
O179 C195 1.249 . S
O180 Eu128 2.335 . S
O180 C195 1.264 . S
O181 Eu139 2.432 . S
O181 C203 1.268 . S
O182 Eu139 2.291 . S
O182 C202 1.255 . S
O183 Eu128 2.372 . S
O183 C202 1.257 1_556 S
C184 O173 1.249 . S
C184 O174 1.264 . S
C185 C188 1.382 . S
C185 C190 1.390 . S
C185 C192 1.506 . S
C186 C187 1.398 . S
C186 C190 1.392 . S
C187 C186 1.398 . S
C187 C189 1.372 . S
C187 H204 0.931 . S
C188 C185 1.382 . S
C188 C189 1.390 . S
C188 H205 0.931 . S
C189 C187 1.372 . S
C189 C188 1.390 . S
C189 H206 0.929 . S
C190 C185 1.390 . S
C190 C186 1.392 . S
C190 H207 0.930 . S
C191 O176 1.255 . S
C191 O177 1.257 . S
C192 Eu128 2.787 . S
C192 O172 1.252 . S
C192 O175 1.268 . S
C192 C185 1.506 . S
C193 C160 1.439 . S
C193 H170 0.931 . S
C193 C194 1.374 . S
C194 C165 1.387 . S
C194 H171 0.931 . S
C194 C193 1.374 . S
C195 O179 1.249 . S
C195 O180 1.264 . S
C196 C199 1.382 . S
C196 C200 1.390 . S
C196 C203 1.506 . S
C197 C198 1.398 . S
C197 C200 1.392 . S
C198 C197 1.398 . S
C198 C201 1.372 . S
C198 H208 0.931 . S
C199 C196 1.382 . S
C199 C201 1.390 . S
C199 H209 0.931 . S
C200 C196 1.390 . S
C200 C197 1.392 . S
C200 H210 0.930 . S
C201 C198 1.372 . S
C201 C199 1.390 . S
C201 H211 0.929 . S
C202 O182 1.255 . S
C202 O183 1.257 1_554 S
C203 Eu139 2.787 . S
C203 O178 1.252 . S
C203 O181 1.268 . S
C203 C196 1.506 . S
H204 C187 0.931 . S
H205 C188 0.931 . S
H206 C189 0.929 . S
H207 C190 0.930 . S
H208 C198 0.931 . S
H209 C199 0.931 . S
H210 C200 0.930 . S
H211 C201 0.929 . S
C212 C213 1.349 . S
C212 C214 1.327 . S
C212 H237 0.950 . S
C213 C212 1.349 . S
C213 C229 1.349 . S
C214 C212 1.327 . S
C214 C233 1.429 . S
C214 H238 0.950 . S
C215 C232 1.574 . S
C215 C234 1.368 . S
C215 H239 0.949 . S
H216 C220 0.949 . S
C217 C218 1.349 . S
C217 C219 1.327 . S
C217 H240 0.950 . S
C218 C217 1.349 . S
C218 C230 1.349 . S
C219 C217 1.327 . S
C219 C235 1.429 . S
C219 H241 0.950 . S
C220 H216 0.949 . S
C220 C228 1.574 . S
C220 C236 1.368 . S
H221 C229 0.950 . S
H222 C227 0.950 . S
H223 C228 0.949 . S
H224 C230 0.950 . S
H225 C231 0.950 . S
H226 C232 0.949 . S
C227 H222 0.950 . S
C227 C229 1.327 . S
C227 C233 1.429 . S
C228 C220 1.574 . S
C228 H223 0.949 . S
C228 C234 1.368 . S
C229 C213 1.349 . S
C229 H221 0.950 . S
C229 C227 1.327 . S
C230 C218 1.349 . S
C230 H224 0.950 . S
C230 C231 1.327 . S
C231 H225 0.950 . S
C231 C230 1.327 . S
C231 C235 1.429 . S
C232 C215 1.574 . S
C232 H226 0.949 . S
C232 C236 1.368 . S
C233 C214 1.429 . S
C233 C227 1.429 . S
C233 C234 1.523 . S
C234 C215 1.368 . S
C234 C228 1.368 . S
C234 C233 1.523 . S
C235 C219 1.429 . S
C235 C231 1.429 . S
C235 C236 1.523 . S
C236 C220 1.368 . S
C236 C232 1.368 . S
C236 C235 1.523 . S
H237 C212 0.950 . S
H238 C214 0.950 . S
H239 C215 0.949 . S
H240 C217 0.950 . S
H241 C219 0.950 . S
C242 C243 1.349 . S
C242 C244 1.327 . S
C242 H267 0.950 1_554 S
C243 C242 1.349 . S
C243 C259 1.349 . S
C244 C242 1.327 . S
C244 C263 1.429 . S
C244 H268 0.950 1_554 S
C245 C262 1.574 . S
C245 C264 1.368 . S
C245 H269 0.949 . S
H246 C250 0.929 1_556 S
C247 C248 1.349 . S
C247 C249 1.327 . S
C247 H270 0.950 . S
C248 C247 1.349 . S
C248 C260 1.349 1_554 S
C249 C247 1.327 . S
C249 C265 1.429 . S
C249 H271 0.950 . S
C250 H246 0.929 1_554 S
C250 C258 1.581 . S
C250 C266 1.383 . S
H251 C259 0.950 . S
H252 C257 0.950 . S
H253 C258 0.949 1_556 S
H254 C260 0.950 . S
H255 C261 0.950 . S
H256 C262 0.949 . S
C257 H252 0.950 . S
C257 C259 1.327 . S
C257 C263 1.429 . S
C258 C250 1.581 . S
C258 H253 0.949 1_554 S
C258 C264 1.368 . S
C259 C243 1.349 . S
C259 H251 0.950 . S
C259 C257 1.327 . S
C260 C248 1.349 1_556 S
C260 H254 0.950 . S
C260 C261 1.327 . S
C261 H255 0.950 . S
C261 C260 1.327 . S
C261 C265 1.429 1_556 S
C262 C245 1.574 . S
C262 H256 0.949 . S
C262 C266 1.368 . S
C263 C244 1.429 . S
C263 C257 1.429 . S
C263 C264 1.523 . S
C264 C245 1.368 . S
C264 C258 1.368 . S
C264 C263 1.523 . S
C265 C249 1.429 . S
C265 C261 1.429 1_554 S
C265 C266 1.523 . S
C266 C250 1.383 . S
C266 C262 1.368 . S
C266 C265 1.523 . S
H267 C242 0.950 1_556 S
H268 C244 0.950 1_556 S
H269 C245 0.949 . S
H270 C247 0.950 . S
H271 C249 0.950 . S
C272 C273 1.349 . S
C272 C274 1.327 . S
C272 H297 0.950 . S
C273 C272 1.349 . S
C273 C289 1.349 . S
C274 C272 1.327 . S
C274 C293 1.429 . S
C274 H298 0.950 . S
C275 C292 1.574 . S
C275 C294 1.368 . S
C275 H299 0.949 . S
H276 C280 0.949 . S
C277 C278 1.349 . S
C277 C279 1.327 . S
C277 H300 0.950 . S
C278 C277 1.349 . S
C278 C290 1.349 . S
C279 C277 1.327 . S
C279 C295 1.429 . S
C279 H301 0.950 . S
C280 H276 0.949 . S
C280 C288 1.574 . S
C280 C296 1.368 . S
H281 C289 0.950 . S
H282 C287 0.950 . S
H283 C288 0.949 . S
H284 C290 0.950 . S
H285 C291 0.950 . S
H286 C292 0.949 . S
C287 H282 0.950 . S
C287 C289 1.327 . S
C287 C293 1.429 . S
C288 C280 1.574 . S
C288 H283 0.949 . S
C288 C294 1.368 . S
C289 C273 1.349 . S
C289 H281 0.950 . S
C289 C287 1.327 . S
C290 C278 1.349 . S
C290 H284 0.950 . S
C290 C291 1.327 . S
C291 H285 0.950 . S
C291 C290 1.327 . S
C291 C295 1.429 . S
C292 C275 1.574 . S
C292 H286 0.949 . S
C292 C296 1.368 . S
C293 C274 1.429 . S
C293 C287 1.429 . S
C293 C294 1.523 . S
C294 C275 1.368 . S
C294 C288 1.368 . S
C294 C293 1.523 . S
C295 C279 1.429 . S
C295 C291 1.429 . S
C295 C296 1.523 . S
C296 C280 1.368 . S
C296 C292 1.368 . S
C296 C295 1.523 . S
H297 C272 0.950 . S
H298 C274 0.950 . S
H299 C275 0.949 . S
H300 C277 0.950 . S
H301 C279 0.950 . S
C302 C303 1.349 . S
C302 C304 1.327 . S
C302 H327 0.950 . S
C303 C302 1.349 . S
C303 C319 1.349 . S
C304 C302 1.327 . S
C304 C323 1.429 . S
C304 H328 0.950 . S
C305 C322 1.574 . S
C305 C324 1.368 . S
C305 H329 0.949 . S
H306 C310 0.949 . S
C307 C308 1.349 . S
C307 C309 1.327 . S
C307 H330 0.950 . S
C308 C307 1.349 . S
C308 C320 1.349 . S
C309 C307 1.327 . S
C309 C325 1.429 . S
C309 H331 0.950 . S
C310 H306 0.949 . S
C310 C318 1.574 . S
C310 C326 1.368 . S
H311 C319 0.950 . S
H312 C317 0.950 . S
H313 C318 0.949 . S
H314 C320 0.950 . S
H315 C321 0.950 . S
H316 C322 0.949 . S
C317 H312 0.950 . S
C317 C319 1.327 . S
C317 C323 1.429 . S
C318 C310 1.574 . S
C318 H313 0.949 . S
C318 C324 1.368 . S
C319 C303 1.349 . S
C319 H311 0.950 . S
C319 C317 1.327 . S
C320 C308 1.349 . S
C320 H314 0.950 . S
C320 C321 1.327 . S
C321 H315 0.950 . S
C321 C320 1.327 . S
C321 C325 1.429 . S
C322 C305 1.574 . S
C322 H316 0.949 . S
C322 C326 1.368 . S
C323 C304 1.429 . S
C323 C317 1.429 . S
C323 C324 1.523 . S
C324 C305 1.368 . S
C324 C318 1.368 . S
C324 C323 1.523 . S
C325 C309 1.429 . S
C325 C321 1.429 . S
C325 C326 1.523 . S
C326 C310 1.368 . S
C326 C322 1.368 . S
C326 C325 1.523 . S
H327 C302 0.950 . S
H328 C304 0.950 . S
H329 C305 0.949 . S
H330 C307 0.950 . S
H331 C309 0.950 . S
C332 C333 1.349 . S
C332 C334 1.327 . S
C332 H357 0.950 . S
C333 C332 1.349 . S
C333 C349 1.349 . S
C334 C332 1.327 . S
C334 C353 1.429 . S
C334 H358 0.950 . S
C335 C352 1.574 . S
C335 C354 1.368 . S
C335 H359 0.949 . S
H336 C340 0.949 . S
C337 C338 1.349 . S
C337 C339 1.327 . S
C337 H360 0.950 . S
C338 C337 1.349 . S
C338 C350 1.349 . S
C339 C337 1.327 . S
C339 C355 1.429 . S
C339 H361 0.950 . S
C340 H336 0.949 . S
C340 C348 1.574 . S
C340 C356 1.368 . S
H341 C349 0.950 . S
H342 C347 0.950 . S
H343 C348 0.949 . S
H344 C350 0.950 . S
H345 C351 0.950 . S
H346 C352 0.949 . S
C347 H342 0.950 . S
C347 C349 1.327 . S
C347 C353 1.429 . S
C348 C340 1.574 . S
C348 H343 0.949 . S
C348 C354 1.368 . S
C349 C333 1.349 . S
C349 H341 0.950 . S
C349 C347 1.327 . S
C350 C338 1.349 . S
C350 H344 0.950 . S
C350 C351 1.327 . S
C351 H345 0.950 . S
C351 C350 1.327 . S
C351 C355 1.429 . S
C352 C335 1.574 . S
C352 H346 0.949 . S
C352 C356 1.368 . S
C353 C334 1.429 . S
C353 C347 1.429 . S
C353 C354 1.523 . S
C354 C335 1.368 . S
C354 C348 1.368 . S
C354 C353 1.523 . S
C355 C339 1.429 . S
C355 C351 1.429 . S
C355 C356 1.523 . S
C356 C340 1.368 . S
C356 C352 1.368 . S
C356 C355 1.523 . S
H357 C332 0.950 . S
H358 C334 0.950 . S
H359 C335 0.949 . S
H360 C337 0.950 . S
H361 C339 0.950 . S
C362 C363 1.349 . S
C362 C364 1.327 . S
C362 H387 0.950 . S
C363 C362 1.349 . S
C363 C379 1.349 . S
C364 C362 1.327 . S
C364 C383 1.429 . S
C364 H388 0.950 . S
C365 C382 1.574 . S
C365 C384 1.368 . S
C365 H389 0.949 . S
H366 C370 0.949 . S
C367 C368 1.349 . S
C367 C369 1.327 . S
C367 H390 0.950 . S
C368 C367 1.349 . S
C368 C380 1.349 . S
C369 C367 1.327 . S
C369 C385 1.429 . S
C369 H391 0.950 . S
C370 H366 0.949 . S
C370 C378 1.574 . S
C370 C386 1.368 . S
H371 C379 0.950 . S
H372 C377 0.950 . S
H373 C378 0.949 . S
H374 C380 0.950 . S
H375 C381 0.950 . S
H376 C382 0.949 . S
C377 H372 0.950 . S
C377 C379 1.327 . S
C377 C383 1.429 . S
C378 C370 1.574 . S
C378 H373 0.949 . S
C378 C384 1.368 . S
C379 C363 1.349 . S
C379 H371 0.950 . S
C379 C377 1.327 . S
C380 C368 1.349 . S
C380 H374 0.950 . S
C380 C381 1.327 . S
C381 H375 0.950 . S
C381 C380 1.327 . S
C381 C385 1.429 . S
C382 C365 1.574 . S
C382 H376 0.949 . S
C382 C386 1.368 . S
C383 C364 1.429 . S
C383 C377 1.429 . S
C383 C384 1.523 . S
C384 C365 1.368 . S
C384 C378 1.368 . S
C384 C383 1.523 . S
C385 C369 1.429 . S
C385 C381 1.429 . S
C385 C386 1.523 . S
C386 C370 1.368 . S
C386 C382 1.368 . S
C386 C385 1.523 . S
H387 C362 0.950 . S
H388 C364 0.950 . S
H389 C365 0.949 . S
H390 C367 0.950 . S
H391 C369 0.950 . S
C392 C393 1.349 . S
C392 C394 1.327 . S
C392 H417 0.950 . S
C393 C392 1.349 . S
C393 C409 1.349 . S
C394 C392 1.327 . S
C394 C413 1.429 . S
C394 H418 0.950 . S
C395 C412 1.574 . S
C395 C414 1.368 . S
C395 H419 0.949 . S
H396 C400 0.949 . S
C397 C398 1.349 . S
C397 C399 1.327 . S
C397 H420 0.950 . S
C398 C397 1.349 . S
C398 C410 1.349 . S
C399 C397 1.327 . S
C399 C415 1.429 . S
C399 H421 0.950 . S
C400 H396 0.949 . S
C400 C408 1.574 . S
C400 C416 1.368 . S
H401 C409 0.950 . S
H402 C407 0.950 . S
H403 C408 0.949 . S
H404 C410 0.950 . S
H405 C411 0.950 . S
H406 C412 0.949 . S
C407 H402 0.950 . S
C407 C409 1.327 . S
C407 C413 1.429 . S
C408 C400 1.574 . S
C408 H403 0.949 . S
C408 C414 1.368 . S
C409 C393 1.349 . S
C409 H401 0.950 . S
C409 C407 1.327 . S
C410 C398 1.349 . S
C410 H404 0.950 . S
C410 C411 1.327 . S
C411 H405 0.950 . S
C411 C410 1.327 . S
C411 C415 1.429 . S
C412 C395 1.574 . S
C412 H406 0.949 . S
C412 C416 1.368 . S
C413 C394 1.429 . S
C413 C407 1.429 . S
C413 C414 1.523 . S
C414 C395 1.368 . S
C414 C408 1.368 . S
C414 C413 1.523 . S
C415 C399 1.429 . S
C415 C411 1.429 . S
C415 C416 1.523 . S
C416 C400 1.368 . S
C416 C412 1.368 . S
C416 C415 1.523 . S
H417 C392 0.950 . S
H418 C394 0.950 . S
H419 C395 0.949 . S
H420 C397 0.950 . S
H421 C399 0.950 . S
C422 C423 1.349 . S
C422 C424 1.327 . S
C422 H447 0.950 . S
C423 C422 1.349 . S
C423 C439 1.349 . S
C424 C422 1.327 . S
C424 C443 1.429 . S
C424 H448 0.950 . S
C425 C442 1.574 . S
C425 C444 1.368 . S
C425 H449 0.949 . S
H426 C430 0.949 . S
C427 C428 1.349 . S
C427 C429 1.327 . S
C427 H450 0.950 . S
C428 C427 1.349 . S
C428 C440 1.349 . S
C429 C427 1.327 . S
C429 C445 1.429 . S
C429 H451 0.950 . S
C430 H426 0.949 . S
C430 C438 1.574 . S
C430 C446 1.368 . S
H431 C439 0.950 . S
H432 C437 0.950 . S
H433 C438 0.949 . S
H434 C440 0.950 . S
H435 C441 0.950 . S
H436 C442 0.949 . S
C437 H432 0.950 . S
C437 C439 1.327 . S
C437 C443 1.429 . S
C438 C430 1.574 . S
C438 H433 0.949 . S
C438 C444 1.368 . S
C439 C423 1.349 . S
C439 H431 0.950 . S
C439 C437 1.327 . S
C440 C428 1.349 . S
C440 H434 0.950 . S
C440 C441 1.327 . S
C441 H435 0.950 . S
C441 C440 1.327 . S
C441 C445 1.429 . S
C442 C425 1.574 . S
C442 H436 0.949 . S
C442 C446 1.368 . S
C443 C424 1.429 . S
C443 C437 1.429 . S
C443 C444 1.523 . S
C444 C425 1.368 . S
C444 C438 1.368 . S
C444 C443 1.523 . S
C445 C429 1.429 . S
C445 C441 1.429 . S
C445 C446 1.523 . S
C446 C430 1.368 . S
C446 C442 1.368 . S
C446 C445 1.523 . S
H447 C422 0.950 . S
H448 C424 0.950 . S
H449 C425 0.949 . S
H450 C427 0.950 . S
H451 C429 0.950 . S
C452 C453 1.349 . S
C452 C454 1.327 . S
C452 H477 0.950 . S
C453 C452 1.349 . S
C453 C469 1.349 . S
C454 C452 1.327 . S
C454 C473 1.429 . S
C454 H478 0.950 . S
C455 C472 1.574 . S
C455 C474 1.368 . S
C455 H479 0.949 . S
H456 C460 0.949 . S
C457 C458 1.349 . S
C457 C459 1.327 . S
C457 H480 0.950 . S
C458 C457 1.349 . S
C458 C470 1.349 . S
C459 C457 1.327 . S
C459 C475 1.429 . S
C459 H481 0.950 . S
C460 H456 0.949 . S
C460 C468 1.574 . S
C460 C476 1.368 . S
H461 C469 0.950 . S
H462 C467 0.950 . S
H463 C468 0.949 . S
H464 C470 0.950 . S
H465 C471 0.950 . S
H466 C472 0.949 . S
C467 H462 0.950 . S
C467 C469 1.327 . S
C467 C473 1.429 . S
C468 C460 1.574 . S
C468 H463 0.949 . S
C468 C474 1.368 . S
C469 C453 1.349 . S
C469 H461 0.950 . S
C469 C467 1.327 . S
C470 C458 1.349 . S
C470 H464 0.950 . S
C470 C471 1.327 . S
C471 H465 0.950 . S
C471 C470 1.327 . S
C471 C475 1.429 . S
C472 C455 1.574 . S
C472 H466 0.949 . S
C472 C476 1.368 . S
C473 C454 1.429 . S
C473 C467 1.429 . S
C473 C474 1.523 . S
C474 C455 1.368 . S
C474 C468 1.368 . S
C474 C473 1.523 . S
C475 C459 1.429 . S
C475 C471 1.429 . S
C475 C476 1.523 . S
C476 C460 1.368 . S
C476 C472 1.368 . S
C476 C475 1.523 . S
H477 C452 0.950 . S
H478 C454 0.950 . S
H479 C455 0.949 . S
H480 C457 0.950 . S
H481 C459 0.950 . S
C482 C483 1.349 . S
C482 C484 1.327 . S
C482 H507 0.950 . S
C483 C482 1.349 . S
C483 C499 1.349 . S
C484 C482 1.327 . S
C484 C503 1.429 . S
C484 H508 0.950 . S
C485 C502 1.574 . S
C485 C504 1.368 . S
C485 H509 0.949 . S
H486 C490 0.949 . S
C487 C488 1.349 . S
C487 C489 1.327 . S
C487 H510 0.950 . S
C488 C487 1.349 . S
C488 C500 1.349 . S
C489 C487 1.327 . S
C489 C505 1.429 . S
C489 H511 0.950 . S
C490 H486 0.949 . S
C490 C498 1.574 . S
C490 C506 1.368 . S
H491 C499 0.950 . S
H492 C497 0.950 . S
H493 C498 0.949 . S
H494 C500 0.950 . S
H495 C501 0.950 . S
H496 C502 0.949 . S
C497 H492 0.950 . S
C497 C499 1.327 . S
C497 C503 1.429 . S
C498 C490 1.574 . S
C498 H493 0.949 . S
C498 C504 1.368 . S
C499 C483 1.349 . S
C499 H491 0.950 . S
C499 C497 1.327 . S
C500 C488 1.349 . S
C500 H494 0.950 . S
C500 C501 1.327 . S
C501 H495 0.950 . S
C501 C500 1.327 . S
C501 C505 1.429 . S
C502 C485 1.574 . S
C502 H496 0.949 . S
C502 C506 1.368 . S
C503 C484 1.429 . S
C503 C497 1.429 . S
C503 C504 1.523 . S
C504 C485 1.368 . S
C504 C498 1.368 . S
C504 C503 1.523 . S
C505 C489 1.429 . S
C505 C501 1.429 . S
C505 C506 1.523 . S
C506 C490 1.368 . S
C506 C502 1.368 . S
C506 C505 1.523 . S
H507 C482 0.950 . S
H508 C484 0.950 . S
H509 C485 0.949 . S
H510 C487 0.950 . S
H511 C489 0.950 . S
C512 C513 1.349 . S
C512 C514 1.327 . S
C512 H537 0.950 . S
C513 C512 1.349 . S
C513 C529 1.349 . S
C514 C512 1.327 . S
C514 C533 1.429 . S
C514 H538 0.950 . S
C515 C532 1.574 . S
C515 C534 1.368 . S
C515 H539 0.949 . S
H516 C520 0.949 . S
C517 C518 1.349 . S
C517 C519 1.327 . S
C517 H540 0.950 . S
C518 C517 1.349 . S
C518 C530 1.349 . S
C519 C517 1.327 . S
C519 C535 1.429 . S
C519 H541 0.950 . S
C520 H516 0.949 . S
C520 C528 1.574 . S
C520 C536 1.368 . S
H521 C529 0.950 . S
H522 C527 0.950 . S
H523 C528 0.949 . S
H524 C530 0.950 . S
H525 C531 0.950 . S
H526 C532 0.949 . S
C527 H522 0.950 . S
C527 C529 1.327 . S
C527 C533 1.429 . S
C528 C520 1.574 . S
C528 H523 0.949 . S
C528 C534 1.368 . S
C529 C513 1.349 . S
C529 H521 0.950 . S
C529 C527 1.327 . S
C530 C518 1.349 . S
C530 H524 0.950 . S
C530 C531 1.327 . S
C531 H525 0.950 . S
C531 C530 1.327 . S
C531 C535 1.429 . S
C532 C515 1.574 . S
C532 H526 0.949 . S
C532 C536 1.368 . S
C533 C514 1.429 . S
C533 C527 1.429 . S
C533 C534 1.523 . S
C534 C515 1.368 . S
C534 C528 1.368 . S
C534 C533 1.523 . S
C535 C519 1.429 . S
C535 C531 1.429 . S
C535 C536 1.523 . S
C536 C520 1.368 . S
C536 C532 1.368 . S
C536 C535 1.523 . S
H537 C512 0.950 . S
H538 C514 0.950 . S
H539 C515 0.949 . S
H540 C517 0.950 . S
H541 C519 0.950 . S
C542 C543 1.349 . S
C542 C544 1.327 . S
C542 H567 0.950 . S
C543 C542 1.349 . S
C543 C559 1.349 . S
C544 C542 1.327 . S
C544 C563 1.429 . S
C544 H568 0.950 . S
C545 C562 1.574 . S
C545 C564 1.368 . S
C545 H569 0.949 . S
H546 C550 0.949 . S
C547 C548 1.349 . S
C547 C549 1.327 . S
C547 H570 0.950 1_565 S
C548 C547 1.349 . S
C548 C560 1.349 . S
C549 C547 1.327 . S
C549 C565 1.429 . S
C549 H571 0.950 . S
C550 H546 0.949 . S
C550 C558 1.574 . S
C550 C566 1.368 . S
H551 C559 0.950 . S
H552 C557 0.950 . S
H553 C558 0.949 . S
H554 C560 0.950 . S
H555 C561 0.950 . S
H556 C562 0.949 . S
C557 H552 0.950 . S
C557 C559 1.327 . S
C557 C563 1.429 . S
C558 C550 1.574 . S
C558 H553 0.949 . S
C558 C564 1.368 . S
C559 C543 1.349 . S
C559 H551 0.950 . S
C559 C557 1.327 . S
C560 C548 1.349 . S
C560 H554 0.950 . S
C560 C561 1.327 . S
C561 H555 0.950 . S
C561 C560 1.327 . S
C561 C565 1.429 . S
C562 C545 1.574 . S
C562 H556 0.949 . S
C562 C566 1.368 . S
C563 C544 1.429 . S
C563 C557 1.429 . S
C563 C564 1.523 . S
C564 C545 1.368 . S
C564 C558 1.368 . S
C564 C563 1.523 . S
C565 C549 1.429 . S
C565 C561 1.429 . S
C565 C566 1.523 . S
C566 C550 1.368 . S
C566 C562 1.368 . S
C566 C565 1.523 . S
H567 C542 0.950 . S
H568 C544 0.950 . S
H569 C545 0.949 . S
H570 C547 0.950 1_545 S
H571 C549 0.950 . S
C218 C107 1.652 . S
C213 C41 1.651 . S
C243 C8 1.666 . S
C248 C202 1.657 . S
C273 C19 1.746 . S
C278 C118 1.756 . S
C303 C30 1.632 . S
C308 C191 1.637 . S
C338 C102 1.506 . S
C333 C5 1.515 . S
C368 C195 1.816 . S
C363 C18 1.760 . S
C393 C29 1.628 . S
C398 C111 1.721 . S
C423 C40 1.616 . S
C428 C186 1.531 . S
C458 C197 1.386 . S
C453 C16 1.315 . S
C488 C113 1.367 . S
C483 C27 1.297 . S
C518 C184 1.551 . S
C513 C38 1.302 . S
C543 C7 1.471 . S
C548 C100 1.508 . S
