# Generated by pormake.
# Topology anh, (6,3)-cn, num edge types: 1
# Building blocks:
#     Node 0, Type 0, BuildingBlock: PAMTUU_clean_sbu_0, # of connection points: 6
#     Node 1, Type 0, BuildingBlock: PAMTUU_clean_sbu_0, # of connection points: 6
#     Node 2, Type 0, BuildingBlock: PAMTUU_clean_sbu_0, # of connection points: 6
#     Node 3, Type 1, BuildingBlock: OLANEW_clean_sbu_2, # of connection points: 3
#     Node 4, Type 1, BuildingBlock: OLANEW_clean_sbu_2, # of connection points: 3
#     Node 5, Type 1, BuildingBlock: OLANEW_clean_sbu_2, # of connection points: 3
#     Node 6, Type 1, BuildingBlock: OLANEW_clean_sbu_2, # of connection points: 3
#     Node 7, Type 1, BuildingBlock: OLANEW_clean_sbu_2, # of connection points: 3
#     Node 8, Type 1, BuildingBlock: OLANEW_clean_sbu_2, # of connection points: 3
#     Edge 9, Type (0, 1), BuildingBlock: AJUNOK_clean_linker_0, # of connection points: 2
#     Edge 10, Type (0, 1), BuildingBlock: AJUNOK_clean_linker_0, # of connection points: 2
#     Edge 11, Type (0, 1), BuildingBlock: AJUNOK_clean_linker_0, # of connection points: 2
#     Edge 12, Type (0, 1), BuildingBlock: AJUNOK_clean_linker_0, # of connection points: 2
#     Edge 13, Type (0, 1), BuildingBlock: AJUNOK_clean_linker_0, # of connection points: 2
#     Edge 14, Type (0, 1), BuildingBlock: AJUNOK_clean_linker_0, # of connection points: 2
#     Edge 15, Type (0, 1), BuildingBlock: AJUNOK_clean_linker_0, # of connection points: 2
#     Edge 16, Type (0, 1), BuildingBlock: AJUNOK_clean_linker_0, # of connection points: 2
#     Edge 17, Type (0, 1), BuildingBlock: AJUNOK_clean_linker_0, # of connection points: 2
#     Edge 18, Type (0, 1), BuildingBlock: AJUNOK_clean_linker_0, # of connection points: 2
#     Edge 19, Type (0, 1), BuildingBlock: AJUNOK_clean_linker_0, # of connection points: 2
#     Edge 20, Type (0, 1), BuildingBlock: AJUNOK_clean_linker_0, # of connection points: 2
#     Edge 21, Type (0, 1), BuildingBlock: AJUNOK_clean_linker_0, # of connection points: 2
#     Edge 22, Type (0, 1), BuildingBlock: AJUNOK_clean_linker_0, # of connection points: 2
#     Edge 23, Type (0, 1), BuildingBlock: AJUNOK_clean_linker_0, # of connection points: 2
#     Edge 24, Type (0, 1), BuildingBlock: AJUNOK_clean_linker_0, # of connection points: 2
#     Edge 25, Type (0, 1), BuildingBlock: AJUNOK_clean_linker_0, # of connection points: 2
#     Edge 26, Type (0, 1), BuildingBlock: AJUNOK_clean_linker_0, # of connection points: 2
# Relax obj value: 0.341
# Max RMSD: 0.146
# Mean RMSD: 0.120
data_MOF--net-anh--node1-PAMTUU_clean_sbu_0--node2-OLANEW_clean_sbu_2--edge1-AJUNOK_clean_linker_0
_symmetry_space_group_name_H-M    P1
_symmetry_Int_Tables_number       1
_symmetry_cell_setting            triclinic
loop_
_symmetry_equiv_pos_as_xyz
'x, y, z'
_cell_length_a     28.642767
_cell_length_b     28.464624
_cell_length_c     36.895639
_cell_angle_alpha  92.95185
_cell_angle_beta   91.727952
_cell_angle_gamma 120.16984
loop_
_atom_site_label
_atom_site_type_symbol
_atom_site_fract_x
_atom_site_fract_y
_atom_site_fract_z
_atom_type_partial_charge
Tb0 Tb 1.0401 0.58133 0.18827 0.0
Tb1 Tb 0.11086 0.52384 0.17343 0.0
C2 C 0.06413 0.55648 0.11073 0.0
C3 C 0.92841 0.6059 0.2102 0.0
C4 C 0.82088 0.57004 0.22592 0.0
C5 C 0.85698 0.62543 0.22156 0.0
C6 C 0.91037 0.6432 0.21377 0.0
C7 C 0.89345 0.55102 0.21625 0.0
C8 C 0.83981 0.53309 0.22389 0.0
C9 C 0.98219 0.62396 0.19735 0.0
O10 O 0.97962 0.49429 0.18034 0.0
O11 O 1.03334 0.45656 0.18882 0.0
O12 O 0.12583 0.54992 0.23041 0.0
O13 O 0.04579 0.5476 0.23905 0.0
O14 O 0.15757 0.51159 0.13567 0.0
O15 O 0.14196 0.47353 0.18662 0.0
O16 O 0.17119 0.61216 0.17742 0.0
O17 O 0.12204 0.64656 0.20384 0.0
O18 O 0.06827 0.59594 0.13303 0.0
O19 O 0.06231 0.51433 0.1245 0.0
C20 C 0.98519 0.45222 0.18706 0.0
O21 O 1.01881 0.62891 0.22149 0.0
O22 O 0.98301 0.59941 0.16675 0.0
C23 C 0.08867 0.54652 0.25154 0.0
C24 C 0.22932 0.51036 0.16556 0.0
C25 C 0.34271 0.57037 0.17183 0.0
C26 C 0.31303 0.58177 0.19672 0.0
C27 C 0.25659 0.55211 0.19348 0.0
C28 C 0.25893 0.49775 0.14147 0.0
C29 C 0.31535 0.52766 0.14455 0.0
C30 C 0.17092 0.48591 0.15826 0.0
C31 C 0.16853 0.65271 0.19445 0.0
H32 H 0.84315 0.65458 0.22203 0.0
H33 H 0.93691 0.68562 0.20902 0.0
H34 H 0.9071 0.52182 0.2137 0.0
H35 H 0.81267 0.49019 0.22692 0.0
H36 H 0.33341 0.61498 0.21765 0.0
H37 H 0.23429 0.56321 0.21185 0.0
H38 H 0.23844 0.46628 0.11946 0.0
H39 H 0.33771 0.51824 0.12515 0.0
Tb40 Tb 0.46984 1.00019 0.50704 0.0
Tb41 Tb 0.59946 0.07112 0.52925 0.0
C42 C 0.55333 0.0442 0.44756 0.0
C43 C 0.33377 0.88444 0.50186 0.0
C44 C 0.27781 0.77418 0.51674 0.0
C45 C 0.2621 0.79144 0.48598 0.0
C46 C 0.28999 0.8463 0.47858 0.0
C47 C 0.34743 0.86777 0.53369 0.0
C48 C 0.31961 0.81309 0.5411 0.0
C49 C 0.37032 0.93903 0.49035 0.0
O50 O 0.4975 0.94068 0.51074 0.0
O51 O 0.5778 0.99034 0.54515 0.0
O52 O 0.56259 0.06022 0.58125 0.0
O53 O 0.47499 0.99182 0.5646 0.0
O54 O 0.67753 0.08497 0.52095 0.0
O55 O 0.66531 0.13843 0.55798 0.0
O56 O 0.57568 0.13006 0.51473 0.0
O57 O 0.48545 0.08194 0.52414 0.0
O58 O 0.50735 0.03802 0.45794 0.0
O59 O 0.58905 0.04552 0.47133 0.0
C60 C 0.53729 0.94326 0.53153 0.0
O61 O 0.38962 0.97867 0.51589 0.0
O62 O 0.40809 0.94191 0.47014 0.0
C63 C 0.51361 1.02358 0.58921 0.0
C64 C 0.73891 0.17861 0.52154 0.0
C65 C 0.81229 0.26882 0.48551 0.0
C66 C 0.83085 0.24171 0.50731 0.0
C67 C 0.79433 0.19694 0.52537 0.0
C68 C 0.72022 0.20501 0.49918 0.0
C69 C 0.75671 0.25005 0.48145 0.0
C70 C 0.70038 0.13155 0.54028 0.0
C71 C 0.5303 0.12872 0.5217 0.0
H72 H 0.2308 0.76207 0.46631 0.0
H73 H 0.27947 0.85834 0.45366 0.0
H74 H 0.38157 0.89646 0.55184 0.0
H75 H 0.33261 0.80075 0.56485 0.0
H76 H 0.87368 0.25564 0.51069 0.0
H77 H 0.80927 0.17671 0.5423 0.0
H78 H 0.67741 0.19082 0.49544 0.0
H79 H 0.74157 0.2699 0.46432 0.0
Tb80 Tb 0.56417 0.527 0.85274 0.0
Tb81 Tb 0.62393 0.65823 0.85355 0.0
C82 C 0.58243 0.58554 0.78155 0.0
C83 C 0.54005 0.38608 0.85034 0.0
C84 C 0.58353 0.31695 0.84826 0.0
C85 C 0.54094 0.30721 0.82345 0.0
C86 C 0.51926 0.34135 0.82459 0.0
C87 C 0.5821 0.39558 0.87571 0.0
C88 C 0.60336 0.36071 0.87491 0.0
C89 C 0.52078 0.42477 0.84742 0.0
O90 O 0.64998 0.55304 0.84736 0.0
O91 O 0.68972 0.64323 0.86804 0.0
O92 O 0.59603 0.63519 0.90753 0.0
O93 O 0.60164 0.558 0.9071 0.0
O94 O 0.65205 0.72779 0.82439 0.0
O95 O 0.66271 0.73526 0.88279 0.0
O96 O 0.53705 0.63016 0.84643 0.0
O97 O 0.50168 0.54573 0.86866 0.0
O98 O 0.54593 0.54858 0.80063 0.0
O99 O 0.6253 0.62724 0.79839 0.0
C100 C 0.69284 0.59913 0.86054 0.0
O101 O 0.52224 0.4527 0.87705 0.0
O102 O 0.53835 0.45499 0.82007 0.0
C103 C 0.60072 0.59851 0.92479 0.0
C104 C 0.63687 0.7925 0.85591 0.0
C105 C 0.5784 0.8469 0.86468 0.0
C106 C 0.62588 0.86383 0.88656 0.0
C107 C 0.65491 0.83652 0.88227 0.0
C108 C 0.59029 0.77713 0.83334 0.0
C109 C 0.56169 0.80437 0.83756 0.0
C110 C 0.6637 0.75991 0.85384 0.0
C111 C 0.4965 0.58719 0.85954 0.0
H112 H 0.5246 0.27321 0.80297 0.0
H113 H 0.48716 0.33369 0.80466 0.0
H114 H 0.59927 0.43048 0.89549 0.0
H115 H 0.63612 0.36873 0.89431 0.0
H116 H 0.63965 0.89712 0.90735 0.0
H117 H 0.69065 0.84889 0.90001 0.0
H118 H 0.57521 0.74337 0.81278 0.0
H119 H 0.52612 0.79207 0.8197 0.0
O120 O 0.64235 0.11044 0.28505 0.0
Cd121 Cd 0.68716 0.14888 0.2265 0.0
O122 O 0.56666 0.03307 0.26749 0.0
Cd123 Cd 0.48776 0.95118 0.26389 0.0
O124 O 0.4129 0.86843 0.24686 0.0
C125 C 0.36668 0.86379 0.23985 0.0
O126 O 0.36359 0.90833 0.24267 0.0
C127 C 0.59893 0.06761 0.29312 0.0
C128 C 0.78735 0.24967 0.22013 0.0
O129 O 0.74155 0.24764 0.21933 0.0
O130 O 0.78663 0.20527 0.22597 0.0
O131 O 0.55316 0.4973 0.61315 0.0
Cd132 Cd 0.5443 0.44376 0.55374 0.0
O133 O 0.55485 0.57319 0.59909 0.0
Cd134 Cd 0.55467 0.65318 0.59947 0.0
O135 O 0.55759 0.73254 0.58786 0.0
C136 C 0.52437 0.73595 0.56561 0.0
O137 O 0.48533 0.69074 0.54864 0.0
C138 C 0.55634 0.54282 0.62315 0.0
C139 C 0.5384 0.33953 0.54873 0.0
O140 O 0.58382 0.38434 0.54961 0.0
O141 O 0.49609 0.34359 0.55199 0.0
O142 O 0.13922 0.57402 0.9465 0.0
Cd143 Cd 0.1863 0.57284 0.88925 0.0
O144 O 0.06768 0.5813 0.93037 0.0
Cd145 Cd 0.98797 0.58131 0.9278 0.0
O146 O 0.90735 0.57405 0.90987 0.0
C147 C 0.90102 0.61486 0.90532 0.0
O148 O 0.94319 0.66403 0.91206 0.0
C149 C 0.09719 0.57642 0.95511 0.0
C150 C 0.29065 0.58104 0.88535 0.0
O151 O 0.28445 0.62224 0.88194 0.0
O152 O 0.2488 0.53663 0.8929 0.0
O153 O 0.15828 0.47041 0.39431 0.0
Cd154 Cd 0.1772 0.45097 0.45519 0.0
O155 O 0.1325 0.52201 0.42295 0.0
Cd156 Cd 0.08183 0.55904 0.4255 0.0
O157 O 0.99881 0.50418 0.43767 0.0
C158 C 0.9802 0.45702 0.42171 0.0
O159 O 1.00942 0.44976 0.39772 0.0
C160 C 0.13958 0.50254 0.39327 0.0
C161 C 0.20715 0.54664 0.4969 0.0
O162 O 0.24254 0.53809 0.48233 0.0
O163 O 0.15777 0.50777 0.4943 0.0
O164 O 0.39838 0.96625 0.74188 0.0
Cd165 Cd 0.37379 0.96222 0.8051 0.0
O166 O 0.48043 0.99431 0.76428 0.0
Cd167 Cd 0.56886 0.04099 0.767 0.0
O168 O 0.61889 0.12582 0.78696 0.0
C169 C 0.61584 0.13705 0.82028 0.0
O170 O 0.59153 0.09654 0.84116 0.0
C171 C 0.44789 0.98321 0.73669 0.0
C172 C 0.43784 0.93219 0.84389 0.0
O173 O 0.45456 0.98255 0.83989 0.0
O174 O 0.39006 0.89669 0.83096 0.0
O175 O 0.56335 0.57957 0.09745 0.0
Cd176 Cd 0.53475 0.55281 0.15922 0.0
O177 O 0.65306 0.6314 0.10021 0.0
Cd178 Cd 0.65898 0.65272 0.15814 0.0
O179 O 0.59907 0.66395 0.18533 0.0
C180 C 0.57402 0.6794 0.16469 0.0
O181 O 0.59396 0.69745 0.13341 0.0
C182 C 0.60769 0.60502 0.08191 0.0
C183 C 0.60957 0.53582 0.19757 0.0
O184 O 0.60558 0.578 0.20487 0.0
O185 O 0.57628 0.50002 0.17308 0.0
C186 C 0.42673 0.62982 0.14157 0.0
C187 C 0.4021 0.60456 0.17283 0.0
C188 C 0.48298 0.65798 0.14029 0.0
C189 C 0.51661 0.66119 0.1701 0.0
H190 H 0.4022 0.62648 0.11756 0.0
H191 H 0.49982 0.67464 0.11497 0.0
S192 S 0.47146 0.60622 0.25964 0.0
N193 N 0.41484 0.58798 0.23524 0.0
N194 N 0.52102 0.64067 0.23299 0.0
C195 C 0.49242 0.63874 0.20232 0.0
C196 C 0.435 0.61041 0.20364 0.0
C197 C 0.88651 0.31168 0.44361 0.0
C198 C 0.85117 0.31654 0.46695 0.0
C199 C 0.92626 0.35704 0.42758 0.0
C200 C 0.93272 0.40913 0.43485 0.0
H201 H 0.88386 0.27262 0.4381 0.0
H202 H 0.95344 0.3514 0.41052 0.0
S203 S 0.8478 0.44234 0.49263 0.0
N204 N 0.82277 0.37626 0.49524 0.0
N205 N 0.89818 0.46213 0.46551 0.0
C206 C 0.89633 0.41412 0.45727 0.0
C207 C 0.85535 0.36763 0.47322 0.0
C208 C 0.56577 0.9268 0.85994 0.0
C209 C 0.54544 0.87297 0.86905 0.0
C210 C 0.531 0.9475 0.85473 0.0
C211 C 0.47494 0.9148 0.85832 0.0
H212 H 0.60792 0.9516 0.85423 0.0
H213 H 0.54757 0.9878 0.84514 0.0
S214 S 0.40435 0.77477 0.88894 0.0
N215 N 0.46796 0.79018 0.88672 0.0
N216 N 0.40239 0.82885 0.87684 0.0
C217 C 0.45521 0.86261 0.87062 0.0
C218 C 0.49058 0.84172 0.87601 0.0
C219 C 0.72609 0.50998 0.20046 0.0
C220 C 0.76239 0.55055 0.22683 0.0
C221 C 0.67396 0.50142 0.19351 0.0
C222 C 0.65666 0.53342 0.21258 0.0
H223 H 0.73948 0.48792 0.18295 0.0
H224 H 0.64898 0.47283 0.171 0.0
S225 S 0.73186 0.63514 0.29042 0.0
N226 N 0.77418 0.61552 0.27665 0.0
N227 N 0.67624 0.59993 0.26348 0.0
C228 C 0.69041 0.56966 0.24178 0.0
C229 C 0.74336 0.57818 0.24891 0.0
C230 C 0.29435 0.69708 0.52281 0.0
C231 C 0.25717 0.71545 0.51991 0.0
C232 C 0.27718 0.64156 0.5183 0.0
C233 C 0.22216 0.60234 0.51097 0.0
H234 H 0.33744 0.72596 0.52611 0.0
H235 H 0.30762 0.62961 0.5185 0.0
S236 S 0.10802 0.62925 0.50658 0.0
N237 N 0.16262 0.69025 0.51364 0.0
N238 N 0.12988 0.58547 0.50533 0.0
C239 C 0.18412 0.61991 0.51113 0.0
C240 C 0.20176 0.67663 0.51541 0.0
C241 C 0.62414 0.27225 0.81205 0.0
C242 C 0.60625 0.28056 0.8455 0.0
C243 C 0.63299 0.22864 0.80537 0.0
C244 C 0.62338 0.19127 0.83176 0.0
H245 H 0.62805 0.29765 0.79012 0.0
H246 H 0.64327 0.22194 0.77833 0.0
S247 S 0.58654 0.20212 0.92625 0.0
N248 N 0.58705 0.25352 0.90706 0.0
N249 N 0.60367 0.17118 0.89478 0.0
C250 C 0.61111 0.20277 0.86667 0.0
C251 C 0.6024 0.24752 0.87346 0.0
C252 C 0.49349 0.84024 0.52552 0.0
C253 C 0.53562 0.89126 0.5406 0.0
C254 C 0.4904 0.79096 0.53389 0.0
C255 C 0.5291 0.78977 0.55795 0.0
H256 H 0.46231 0.83807 0.50697 0.0
H257 H 0.457 0.75331 0.52124 0.0
S258 S 0.64698 0.91157 0.60602 0.0
N259 N 0.61676 0.93694 0.58169 0.0
N260 N 0.61066 0.84483 0.59731 0.0
C261 C 0.57122 0.84039 0.57354 0.0
C262 C 0.57453 0.89076 0.56493 0.0
C263 C 0.79192 0.65123 0.88223 0.0
C264 C 0.74575 0.60126 0.86966 0.0
C265 C 0.84116 0.65475 0.89334 0.0
C266 C 0.84725 0.60848 0.89282 0.0
H267 H 0.79016 0.6884 0.88387 0.0
H268 H 0.87474 0.69449 0.90283 0.0
S269 S 0.73987 0.4675 0.86137 0.0
N270 N 0.71023 0.50402 0.85666 0.0
N271 N 0.8024 0.51075 0.87766 0.0
C272 C 0.8017 0.55816 0.87998 0.0
C273 C 0.75133 0.55455 0.86839 0.0
C274 C 0.2716 0.71393 0.20269 0.0
C275 C 0.21928 0.70687 0.20513 0.0
C276 C 0.31902 0.76402 0.21434 0.0
C277 C 0.31644 0.80963 0.22868 0.0
H278 H 0.2761 0.68035 0.19204 0.0
H279 H 0.35801 0.76713 0.21172 0.0
S280 S 0.18989 0.81295 0.24208 0.0
N281 N 0.16875 0.75087 0.2239 0.0
N282 N 0.25648 0.84329 0.24543 0.0
C283 C 0.26442 0.80292 0.23138 0.0
C284 C 0.21643 0.75222 0.21975 0.0
C285 C 0.57946 0.232 0.52797 0.0
C286 C 0.53057 0.18169 0.52793 0.0
C287 C 0.58161 0.28226 0.53512 0.0
C288 C 0.53499 0.28506 0.54255 0.0
H289 H 0.61683 0.23283 0.52262 0.0
H290 H 0.62037 0.31935 0.53459 0.0
S291 S 0.39647 0.16571 0.54602 0.0
N292 N 0.43406 0.13846 0.53627 0.0
N293 N 0.4381 0.23229 0.54946 0.0
C294 C 0.48577 0.23513 0.54261 0.0
C295 C 0.48357 0.18385 0.53539 0.0
C296 C 0.40612 0.54895 0.88821 0.0
C297 C 0.44403 0.58613 0.86541 0.0
C298 C 0.35711 0.54771 0.89471 0.0
C299 C 0.34371 0.58391 0.87903 0.0
H300 H 0.41442 0.52062 0.90147 0.0
H301 H 0.32964 0.5183 0.91244 0.0
S302 S 0.42549 0.68532 0.81423 0.0
N303 N 0.46219 0.65769 0.82521 0.0
N304 N 0.371 0.65546 0.83756 0.0
C305 C 0.38079 0.62073 0.85581 0.0
C306 C 0.43053 0.62183 0.84901 0.0
C307 C 0.88384 0.39439 0.19263 0.0
C308 C 0.93552 0.3994 0.1949 0.0
C309 C 0.83687 0.34661 0.2013 0.0
C310 C 0.83879 0.30099 0.21267 0.0
H311 H 0.87932 0.42778 0.18407 0.0
H312 H 0.79852 0.34543 0.19874 0.0
S313 S 0.96367 0.29242 0.22412 0.0
N314 N 0.98528 0.3538 0.21019 0.0
N315 N 0.89755 0.26454 0.22611 0.0
C316 C 0.89014 0.30533 0.21519 0.0
C317 C 0.93812 0.35414 0.20642 0.0
C318 C 0.08452 0.52893 0.05045 0.0
C319 C 0.06804 0.56093 0.07055 0.0
C320 C 0.09218 0.53357 1.01318 0.0
C321 C 0.0827 0.56957 0.99377 0.0
H322 H 0.09321 0.5009 0.06378 0.0
H323 H 0.10629 0.50889 0.99946 0.0
S324 S 1.03641 0.66085 0.03262 0.0
N325 N 1.0409 0.62914 0.0677 0.0
N326 N 0.05421 0.63683 0.99721 0.0
C327 C 0.06444 0.60064 1.01302 0.0
C328 C 0.05755 0.59668 0.05145 0.0
C329 C 0.52328 1.02564 0.38054 0.0
C330 C 0.56534 0.04949 0.40829 0.0
C331 C 0.53419 1.03007 0.34339 0.0
C332 C 0.58758 0.05949 0.33244 0.0
H333 H 0.48154 1.003 0.38755 0.0
H334 H 0.50044 1.01146 0.32319 0.0
S335 S 0.71227 0.13047 0.39445 0.0
N336 N 0.66251 0.10369 0.42201 0.0
N337 N 0.68301 0.11275 0.35289 0.0
C338 C 0.62991 0.08357 0.36004 0.0
C339 C 0.61883 0.07837 0.39769 0.0
C340 C 0.53992 0.5254 0.72418 0.0
C341 C 0.57504 0.57788 0.74095 0.0
C342 C 0.53317 0.51539 0.68623 0.0
C343 C 0.56032 0.55746 0.66301 0.0
H344 H 0.51829 0.49112 0.7405 0.0
H345 H 0.50672 0.47387 0.67494 0.0
S346 S 0.65505 0.7029 0.69262 0.0
N347 N 0.63627 0.67313 0.73107 0.0
N348 N 0.62286 0.65421 0.65958 0.0
C349 C 0.59434 0.61055 0.67919 0.0
C350 C 0.60196 0.62073 0.71812 0.0
C351 C 0.4562 1.02028 0.639 0.0
C352 C 0.50058 1.01667 0.62744 0.0
C353 C 0.44004 1.00997 0.67454 0.0
C354 C 0.46722 0.99488 0.69964 0.0
H355 H 0.43374 0.03108 0.62037 0.0
H356 H 0.40586 1.01377 0.68237 0.0
S357 S 0.58152 0.97264 0.68058 0.0
N358 N 0.56952 0.99398 0.64251 0.0
N359 N 0.53747 0.97158 0.70892 0.0
C360 C 0.51094 0.98977 0.68796 0.0
C361 C 0.52806 1.00142 0.65191 0.0
C362 C 0.64069 0.59364 0.98436 0.0
C363 C 0.60254 0.60132 0.96472 0.0
C364 C 0.64298 0.59605 0.02248 0.0
C365 C 0.60595 0.60434 0.04195 0.0
H366 H 0.66933 0.58639 0.97017 0.0
H367 H 0.67311 0.59028 0.03676 0.0
S368 S 0.49772 0.62562 1.00295 0.0
N369 N 0.52736 0.61791 0.96725 0.0
N370 N 0.53011 0.62022 0.03886 0.0
C371 C 0.56731 0.61151 0.02253 0.0
C372 C 0.56601 0.61062 0.98386 0.0
C373 C 0.08406 0.48257 0.29582 0.0
C374 C 0.0934 0.53462 0.2891 0.0
C375 C 0.09833 0.47223 0.32988 0.0
C376 C 0.12252 0.51374 0.3582 0.0
H377 H 0.06723 0.45012 0.27419 0.0
H378 H 0.09103 0.4317 0.33391 0.0
S379 S 0.1583 0.65786 0.35314 0.0
N380 N 0.12928 0.6283 0.31259 0.0
N381 N 0.15711 0.60948 0.3767 0.0
C382 C 0.13167 0.56595 0.35177 0.0
C383 C 0.11688 0.57629 0.3171 0.0
loop_
_geom_bond_atom_site_label_1
_geom_bond_atom_site_label_2
_geom_bond_distance
_geom_bond_site_symmetry_2
_ccdc_geom_bond_type
Tb0 C9 2.764 . S
Tb0 O10 2.325 . S
Tb0 O13 2.303 1_655 S
Tb0 O17 2.322 1_655 S
Tb0 O18 2.349 1_655 S
Tb0 O21 2.415 . S
Tb0 O22 2.399 . S
Tb1 O11 2.322 1_455 S
Tb1 O12 2.349 . S
Tb1 O14 2.415 . S
Tb1 O15 2.399 . S
Tb1 O16 2.325 . S
Tb1 O19 2.303 . S
Tb1 C30 2.764 . S
C2 O18 1.261 . S
C2 O19 1.257 . S
C3 C6 1.358 . S
C3 C7 1.332 . S
C3 C9 1.504 . S
C4 C5 1.373 . S
C4 C8 1.308 . S
C5 C4 1.373 . S
C5 C6 1.429 . S
C5 H32 0.932 . S
C6 C3 1.358 . S
C6 C5 1.429 . S
C6 H33 0.930 . S
C7 C3 1.332 . S
C7 C8 1.394 . S
C7 H34 0.932 . S
C8 C4 1.308 . S
C8 C7 1.394 . S
C8 H35 0.929 . S
C9 Tb0 2.764 . S
C9 C3 1.504 . S
C9 O21 1.239 . S
C9 O22 1.263 . S
O10 Tb0 2.325 . S
O10 C20 1.236 . S
O11 Tb1 2.322 1_655 S
O11 C20 1.257 . S
O12 Tb1 2.349 . S
O12 C23 1.261 . S
O13 Tb0 2.303 1_455 S
O13 C23 1.257 . S
O14 Tb1 2.415 . S
O14 C30 1.239 . S
O15 Tb1 2.399 . S
O15 C30 1.263 . S
O16 Tb1 2.325 . S
O16 C31 1.236 . S
O17 Tb0 2.322 1_455 S
O17 C31 1.257 . S
O18 Tb0 2.349 1_455 S
O18 C2 1.261 . S
O19 Tb1 2.303 . S
O19 C2 1.257 . S
C20 O10 1.236 . S
C20 O11 1.257 . S
O21 Tb0 2.415 . S
O21 C9 1.239 . S
O22 Tb0 2.399 . S
O22 C9 1.263 . S
C23 O12 1.261 . S
C23 O13 1.257 . S
C24 C27 1.358 . S
C24 C28 1.332 . S
C24 C30 1.504 . S
C25 C26 1.373 . S
C25 C29 1.308 . S
C26 C25 1.373 . S
C26 C27 1.429 . S
C26 H36 0.932 . S
C27 C24 1.358 . S
C27 C26 1.429 . S
C27 H37 0.930 . S
C28 C24 1.332 . S
C28 C29 1.394 . S
C28 H38 0.932 . S
C29 C25 1.308 . S
C29 C28 1.394 . S
C29 H39 0.929 . S
C30 Tb1 2.764 . S
C30 O14 1.239 . S
C30 O15 1.263 . S
C30 C24 1.504 . S
C31 O16 1.236 . S
C31 O17 1.257 . S
H32 C5 0.932 . S
H33 C6 0.930 . S
H34 C7 0.932 . S
H35 C8 0.929 . S
H36 C26 0.932 . S
H37 C27 0.930 . S
H38 C28 0.932 . S
H39 C29 0.929 . S
Tb40 C49 2.764 . S
Tb40 O50 2.325 . S
Tb40 O53 2.303 1_565 S
Tb40 O57 2.322 1_565 S
Tb40 O58 2.349 1_565 S
Tb40 O61 2.415 . S
Tb40 O62 2.399 . S
Tb41 O51 2.322 1_545 S
Tb41 O52 2.349 . S
Tb41 O54 2.415 . S
Tb41 O55 2.399 . S
Tb41 O56 2.325 . S
Tb41 O59 2.303 . S
Tb41 C70 2.764 . S
C42 O58 1.261 . S
C42 O59 1.257 . S
C43 C46 1.358 . S
C43 C47 1.332 . S
C43 C49 1.504 . S
C44 C45 1.373 . S
C44 C48 1.308 . S
C45 C44 1.373 . S
C45 C46 1.429 . S
C45 H72 0.932 . S
C46 C43 1.358 . S
C46 C45 1.429 . S
C46 H73 0.930 . S
C47 C43 1.332 . S
C47 C48 1.394 . S
C47 H74 0.932 . S
C48 C44 1.308 . S
C48 C47 1.394 . S
C48 H75 0.929 . S
C49 Tb40 2.764 . S
C49 C43 1.504 . S
C49 O61 1.239 . S
C49 O62 1.263 . S
O50 Tb40 2.325 . S
O50 C60 1.236 . S
O51 Tb41 2.322 1_565 S
O51 C60 1.257 . S
O52 Tb41 2.349 . S
O52 C63 1.261 . S
O53 Tb40 2.303 1_545 S
O53 C63 1.257 . S
O54 Tb41 2.415 . S
O54 C70 1.239 . S
O55 Tb41 2.399 . S
O55 C70 1.263 . S
O56 Tb41 2.325 . S
O56 C71 1.236 . S
O57 Tb40 2.322 1_545 S
O57 C71 1.257 . S
O58 Tb40 2.349 1_545 S
O58 C42 1.261 . S
O59 Tb41 2.303 . S
O59 C42 1.257 . S
C60 O50 1.236 . S
C60 O51 1.257 . S
O61 Tb40 2.415 . S
O61 C49 1.239 . S
O62 Tb40 2.399 . S
O62 C49 1.263 . S
C63 O52 1.261 . S
C63 O53 1.257 . S
C64 C67 1.358 . S
C64 C68 1.332 . S
C64 C70 1.504 . S
C65 C66 1.373 . S
C65 C69 1.308 . S
C66 C65 1.373 . S
C66 C67 1.429 . S
C66 H76 0.932 . S
C67 C64 1.358 . S
C67 C66 1.429 . S
C67 H77 0.930 . S
C68 C64 1.332 . S
C68 C69 1.394 . S
C68 H78 0.932 . S
C69 C65 1.308 . S
C69 C68 1.394 . S
C69 H79 0.929 . S
C70 Tb41 2.764 . S
C70 O54 1.239 . S
C70 O55 1.263 . S
C70 C64 1.504 . S
C71 O56 1.236 . S
C71 O57 1.257 . S
H72 C45 0.932 . S
H73 C46 0.930 . S
H74 C47 0.932 . S
H75 C48 0.929 . S
H76 C66 0.932 . S
H77 C67 0.930 . S
H78 C68 0.932 . S
H79 C69 0.929 . S
Tb80 C89 2.764 . S
Tb80 O90 2.325 . S
Tb80 O93 2.303 . S
Tb80 O97 2.322 . S
Tb80 O98 2.349 . S
Tb80 O101 2.415 . S
Tb80 O102 2.399 . S
Tb81 O91 2.322 . S
Tb81 O92 2.349 . S
Tb81 O94 2.415 . S
Tb81 O95 2.399 . S
Tb81 O96 2.325 . S
Tb81 O99 2.303 . S
Tb81 C110 2.764 . S
C82 O98 1.261 . S
C82 O99 1.257 . S
C83 C86 1.358 . S
C83 C87 1.332 . S
C83 C89 1.504 . S
C84 C85 1.373 . S
C84 C88 1.308 . S
C85 C84 1.373 . S
C85 C86 1.429 . S
C85 H112 0.932 . S
C86 C83 1.358 . S
C86 C85 1.429 . S
C86 H113 0.930 . S
C87 C83 1.332 . S
C87 C88 1.394 . S
C87 H114 0.932 . S
C88 C84 1.308 . S
C88 C87 1.394 . S
C88 H115 0.929 . S
C89 Tb80 2.764 . S
C89 C83 1.504 . S
C89 O101 1.239 . S
C89 O102 1.263 . S
O90 Tb80 2.325 . S
O90 C100 1.236 . S
O91 Tb81 2.322 . S
O91 C100 1.257 . S
O92 Tb81 2.349 . S
O92 C103 1.261 . S
O93 Tb80 2.303 . S
O93 C103 1.257 . S
O94 Tb81 2.415 . S
O94 C110 1.239 . S
O95 Tb81 2.399 . S
O95 C110 1.263 . S
O96 Tb81 2.325 . S
O96 C111 1.236 . S
O97 Tb80 2.322 . S
O97 C111 1.257 . S
O98 Tb80 2.349 . S
O98 C82 1.261 . S
O99 Tb81 2.303 . S
O99 C82 1.257 . S
C100 O90 1.236 . S
C100 O91 1.257 . S
O101 Tb80 2.415 . S
O101 C89 1.239 . S
O102 Tb80 2.399 . S
O102 C89 1.263 . S
C103 O92 1.261 . S
C103 O93 1.257 . S
C104 C107 1.358 . S
C104 C108 1.332 . S
C104 C110 1.504 . S
C105 C106 1.373 . S
C105 C109 1.308 . S
C106 C105 1.373 . S
C106 C107 1.429 . S
C106 H116 0.932 . S
C107 C104 1.358 . S
C107 C106 1.429 . S
C107 H117 0.930 . S
C108 C104 1.332 . S
C108 C109 1.394 . S
C108 H118 0.932 . S
C109 C105 1.308 . S
C109 C108 1.394 . S
C109 H119 0.929 . S
C110 Tb81 2.764 . S
C110 O94 1.239 . S
C110 O95 1.263 . S
C110 C104 1.504 . S
C111 O96 1.236 . S
C111 O97 1.257 . S
H112 C85 0.932 . S
H113 C86 0.930 . S
H114 C87 0.932 . S
H115 C88 0.929 . S
H116 C106 0.932 . S
H117 C107 0.930 . S
H118 C108 0.932 . S
H119 C109 0.929 . S
O120 Cd121 2.300 . S
O120 C127 1.275 . S
Cd121 O120 2.300 . S
Cd121 O129 2.381 . S
Cd121 O130 2.378 . S
O122 Cd123 2.385 . S
O122 C127 1.255 1_565 S
Cd123 O122 2.385 . S
Cd123 O124 2.317 . S
O124 Cd123 2.317 . S
O124 C125 1.232 . S
C125 O124 1.232 . S
C125 O126 1.218 . S
O126 C125 1.218 . S
C127 O120 1.275 . S
C127 O122 1.255 1_545 S
C128 O129 1.258 . S
C128 O130 1.256 . S
O129 Cd121 2.381 . S
O129 C128 1.258 . S
O130 Cd121 2.378 . S
O130 C128 1.256 . S
O131 Cd132 2.300 . S
O131 C138 1.275 . S
Cd132 O131 2.300 . S
Cd132 O140 2.381 . S
Cd132 O141 2.378 . S
O133 Cd134 2.385 . S
O133 C138 1.255 . S
Cd134 O133 2.385 . S
Cd134 O135 2.317 . S
O135 Cd134 2.317 . S
O135 C136 1.232 . S
C136 O135 1.232 . S
C136 O137 1.218 . S
O137 C136 1.218 . S
C138 O131 1.275 . S
C138 O133 1.255 . S
C139 O140 1.258 . S
C139 O141 1.256 . S
O140 Cd132 2.381 . S
O140 C139 1.258 . S
O141 Cd132 2.378 . S
O141 C139 1.256 . S
O142 Cd143 2.300 . S
O142 C149 1.275 . S
Cd143 O142 2.300 . S
Cd143 O151 2.381 . S
Cd143 O152 2.378 . S
O144 Cd145 2.385 1_455 S
O144 C149 1.255 . S
Cd145 O144 2.385 1_655 S
Cd145 O146 2.317 . S
O146 Cd145 2.317 . S
O146 C147 1.232 . S
C147 O146 1.232 . S
C147 O148 1.218 . S
O148 C147 1.218 . S
C149 O142 1.275 . S
C149 O144 1.255 . S
C150 O151 1.258 . S
C150 O152 1.256 . S
O151 Cd143 2.381 . S
O151 C150 1.258 . S
O152 Cd143 2.378 . S
O152 C150 1.256 . S
O153 Cd154 2.300 . S
O153 C160 1.275 1_455 S
Cd154 O153 2.300 . S
Cd154 O162 2.381 . S
Cd154 O163 2.378 . S
O155 Cd156 2.385 . S
O155 C160 1.255 . S
Cd156 O155 2.385 . S
Cd156 O157 2.317 . S
O157 Cd156 2.317 . S
O157 C158 1.232 . S
C158 O157 1.232 . S
C158 O159 1.218 . S
O159 C158 1.218 . S
C160 O153 1.275 1_655 S
C160 O155 1.255 . S
C161 O162 1.258 . S
C161 O163 1.256 . S
O162 Cd154 2.381 . S
O162 C161 1.258 . S
O163 Cd154 2.378 . S
O163 C161 1.256 . S
O164 Cd165 2.300 . S
O164 C171 1.275 1_565 S
Cd165 O164 2.300 . S
Cd165 O173 2.381 . S
Cd165 O174 2.378 . S
O166 Cd167 2.385 . S
O166 C171 1.255 . S
Cd167 O166 2.385 . S
Cd167 O168 2.317 . S
O168 Cd167 2.317 . S
O168 C169 1.232 . S
C169 O168 1.232 . S
C169 O170 1.218 . S
O170 C169 1.218 . S
C171 O164 1.275 1_545 S
C171 O166 1.255 . S
C172 O173 1.258 . S
C172 O174 1.256 . S
O173 Cd165 2.381 . S
O173 C172 1.258 . S
O174 Cd165 2.378 . S
O174 C172 1.256 . S
O175 Cd176 2.300 . S
O175 C182 1.275 . S
Cd176 O175 2.300 . S
Cd176 O184 2.381 . S
Cd176 O185 2.378 . S
O177 Cd178 2.385 . S
O177 C182 1.255 . S
Cd178 O177 2.385 . S
Cd178 O179 2.317 . S
O179 Cd178 2.317 . S
O179 C180 1.232 . S
C180 O179 1.232 . S
C180 O181 1.218 . S
O181 C180 1.218 . S
C182 O175 1.275 . S
C182 O177 1.255 . S
C183 O184 1.258 . S
C183 O185 1.256 . S
O184 Cd176 2.381 . S
O184 C183 1.258 . S
O185 Cd176 2.378 . S
O185 C183 1.256 . S
C186 C187 1.369 . S
C186 C188 1.419 . S
C186 H190 0.930 . S
C187 C186 1.369 . S
C187 C196 1.429 . S
C188 C186 1.419 . S
C188 C189 1.363 . S
C188 H191 0.929 . S
C189 C188 1.363 . S
C189 C195 1.428 . S
H190 C186 0.930 . S
H191 C188 0.929 . S
S192 N193 1.613 . S
S192 N194 1.610 . S
N193 S192 1.613 . S
N193 C196 1.350 . S
N194 S192 1.610 . S
N194 C195 1.351 . S
C195 C189 1.428 . S
C195 N194 1.351 . S
C195 C196 1.434 . S
C196 C187 1.429 . S
C196 N193 1.350 . S
C196 C195 1.434 . S
C197 C198 1.369 . S
C197 C199 1.419 . S
C197 H201 0.930 . S
C198 C197 1.369 . S
C198 C207 1.429 . S
C199 C197 1.419 . S
C199 C200 1.363 . S
C199 H202 0.929 . S
C200 C199 1.363 . S
C200 C206 1.428 . S
H201 C197 0.930 . S
H202 C199 0.929 . S
S203 N204 1.613 . S
S203 N205 1.610 . S
N204 S203 1.613 . S
N204 C207 1.350 . S
N205 S203 1.610 . S
N205 C206 1.351 . S
C206 C200 1.428 . S
C206 N205 1.351 . S
C206 C207 1.434 . S
C207 C198 1.429 . S
C207 N204 1.350 . S
C207 C206 1.434 . S
C208 C209 1.369 . S
C208 C210 1.419 . S
C208 H212 0.930 . S
C209 C208 1.369 . S
C209 C218 1.429 . S
C210 C208 1.419 . S
C210 C211 1.363 . S
C210 H213 0.929 . S
C211 C210 1.363 . S
C211 C217 1.428 . S
H212 C208 0.930 . S
H213 C210 0.929 . S
S214 N215 1.613 . S
S214 N216 1.610 . S
N215 S214 1.613 . S
N215 C218 1.350 . S
N216 S214 1.610 . S
N216 C217 1.351 . S
C217 C211 1.428 . S
C217 N216 1.351 . S
C217 C218 1.434 . S
C218 C209 1.429 . S
C218 N215 1.350 . S
C218 C217 1.434 . S
C219 C220 1.369 . S
C219 C221 1.419 . S
C219 H223 0.930 . S
C220 C219 1.369 . S
C220 C229 1.429 . S
C221 C219 1.419 . S
C221 C222 1.363 . S
C221 H224 0.929 . S
C222 C221 1.363 . S
C222 C228 1.428 . S
H223 C219 0.930 . S
H224 C221 0.929 . S
S225 N226 1.613 . S
S225 N227 1.610 . S
N226 S225 1.613 . S
N226 C229 1.350 . S
N227 S225 1.610 . S
N227 C228 1.351 . S
C228 C222 1.428 . S
C228 N227 1.351 . S
C228 C229 1.434 . S
C229 C220 1.429 . S
C229 N226 1.350 . S
C229 C228 1.434 . S
C230 C231 1.369 . S
C230 C232 1.419 . S
C230 H234 0.930 . S
C231 C230 1.369 . S
C231 C240 1.429 . S
C232 C230 1.419 . S
C232 C233 1.363 . S
C232 H235 0.929 . S
C233 C232 1.363 . S
C233 C239 1.428 . S
H234 C230 0.930 . S
H235 C232 0.929 . S
S236 N237 1.613 . S
S236 N238 1.610 . S
N237 S236 1.613 . S
N237 C240 1.350 . S
N238 S236 1.610 . S
N238 C239 1.351 . S
C239 C233 1.428 . S
C239 N238 1.351 . S
C239 C240 1.434 . S
C240 C231 1.429 . S
C240 N237 1.350 . S
C240 C239 1.434 . S
C241 C242 1.369 . S
C241 C243 1.419 . S
C241 H245 0.930 . S
C242 C241 1.369 . S
C242 C251 1.429 . S
C243 C241 1.419 . S
C243 C244 1.363 . S
C243 H246 0.929 . S
C244 C243 1.363 . S
C244 C250 1.428 . S
H245 C241 0.930 . S
H246 C243 0.929 . S
S247 N248 1.613 . S
S247 N249 1.610 . S
N248 S247 1.613 . S
N248 C251 1.350 . S
N249 S247 1.610 . S
N249 C250 1.351 . S
C250 C244 1.428 . S
C250 N249 1.351 . S
C250 C251 1.434 . S
C251 C242 1.429 . S
C251 N248 1.350 . S
C251 C250 1.434 . S
C252 C253 1.369 . S
C252 C254 1.419 . S
C252 H256 0.930 . S
C253 C252 1.369 . S
C253 C262 1.429 . S
C254 C252 1.419 . S
C254 C255 1.363 . S
C254 H257 0.929 . S
C255 C254 1.363 . S
C255 C261 1.428 . S
H256 C252 0.930 . S
H257 C254 0.929 . S
S258 N259 1.613 . S
S258 N260 1.610 . S
N259 S258 1.613 . S
N259 C262 1.350 . S
N260 S258 1.610 . S
N260 C261 1.351 . S
C261 C255 1.428 . S
C261 N260 1.351 . S
C261 C262 1.434 . S
C262 C253 1.429 . S
C262 N259 1.350 . S
C262 C261 1.434 . S
C263 C264 1.369 . S
C263 C265 1.419 . S
C263 H267 0.930 . S
C264 C263 1.369 . S
C264 C273 1.429 . S
C265 C263 1.419 . S
C265 C266 1.363 . S
C265 H268 0.929 . S
C266 C265 1.363 . S
C266 C272 1.428 . S
H267 C263 0.930 . S
H268 C265 0.929 . S
S269 N270 1.613 . S
S269 N271 1.610 . S
N270 S269 1.613 . S
N270 C273 1.350 . S
N271 S269 1.610 . S
N271 C272 1.351 . S
C272 C266 1.428 . S
C272 N271 1.351 . S
C272 C273 1.434 . S
C273 C264 1.429 . S
C273 N270 1.350 . S
C273 C272 1.434 . S
C274 C275 1.369 . S
C274 C276 1.419 . S
C274 H278 0.930 . S
C275 C274 1.369 . S
C275 C284 1.429 . S
C276 C274 1.419 . S
C276 C277 1.363 . S
C276 H279 0.929 . S
C277 C276 1.363 . S
C277 C283 1.428 . S
H278 C274 0.930 . S
H279 C276 0.929 . S
S280 N281 1.613 . S
S280 N282 1.610 . S
N281 S280 1.613 . S
N281 C284 1.350 . S
N282 S280 1.610 . S
N282 C283 1.351 . S
C283 C277 1.428 . S
C283 N282 1.351 . S
C283 C284 1.434 . S
C284 C275 1.429 . S
C284 N281 1.350 . S
C284 C283 1.434 . S
C285 C286 1.369 . S
C285 C287 1.419 . S
C285 H289 0.930 . S
C286 C285 1.369 . S
C286 C295 1.429 . S
C287 C285 1.419 . S
C287 C288 1.363 . S
C287 H290 0.929 . S
C288 C287 1.363 . S
C288 C294 1.428 . S
H289 C285 0.930 . S
H290 C287 0.929 . S
S291 N292 1.613 . S
S291 N293 1.610 . S
N292 S291 1.613 . S
N292 C295 1.350 . S
N293 S291 1.610 . S
N293 C294 1.351 . S
C294 C288 1.428 . S
C294 N293 1.351 . S
C294 C295 1.434 . S
C295 C286 1.429 . S
C295 N292 1.350 . S
C295 C294 1.434 . S
C296 C297 1.369 . S
C296 C298 1.419 . S
C296 H300 0.930 . S
C297 C296 1.369 . S
C297 C306 1.429 . S
C298 C296 1.419 . S
C298 C299 1.363 . S
C298 H301 0.929 . S
C299 C298 1.363 . S
C299 C305 1.428 . S
H300 C296 0.930 . S
H301 C298 0.929 . S
S302 N303 1.613 . S
S302 N304 1.610 . S
N303 S302 1.613 . S
N303 C306 1.350 . S
N304 S302 1.610 . S
N304 C305 1.351 . S
C305 C299 1.428 . S
C305 N304 1.351 . S
C305 C306 1.434 . S
C306 C297 1.429 . S
C306 N303 1.350 . S
C306 C305 1.434 . S
C307 C308 1.369 . S
C307 C309 1.419 . S
C307 H311 0.930 . S
C308 C307 1.369 . S
C308 C317 1.429 . S
C309 C307 1.419 . S
C309 C310 1.363 . S
C309 H312 0.929 . S
C310 C309 1.363 . S
C310 C316 1.428 . S
H311 C307 0.930 . S
H312 C309 0.929 . S
S313 N314 1.613 . S
S313 N315 1.610 . S
N314 S313 1.613 . S
N314 C317 1.350 . S
N315 S313 1.610 . S
N315 C316 1.351 . S
C316 C310 1.428 . S
C316 N315 1.351 . S
C316 C317 1.434 . S
C317 C308 1.429 . S
C317 N314 1.350 . S
C317 C316 1.434 . S
C318 C319 1.369 . S
C318 C320 1.419 1_455 S
C318 H322 0.930 1_455 S
C319 C318 1.369 . S
C319 C328 1.429 . S
C320 C318 1.419 1_655 S
C320 C321 1.363 1_654 S
C320 H323 0.929 1_554 S
C321 C320 1.363 1_456 S
C321 C327 1.428 1_556 S
H322 C318 0.930 1_655 S
H323 C320 0.929 1_556 S
S324 N325 1.613 . S
S324 N326 1.610 . S
N325 S324 1.613 . S
N325 C328 1.350 . S
N326 S324 1.610 . S
N326 C327 1.351 . S
C327 C321 1.428 1_554 S
C327 N326 1.351 . S
C327 C328 1.434 . S
C328 C319 1.429 . S
C328 N325 1.350 . S
C328 C327 1.434 . S
C329 C330 1.369 . S
C329 C331 1.419 1_545 S
C329 H333 0.930 1_545 S
C330 C329 1.369 . S
C330 C339 1.429 . S
C331 C329 1.419 1_565 S
C331 C332 1.363 1_565 S
C331 H334 0.929 . S
C332 C331 1.363 1_545 S
C332 C338 1.428 . S
H333 C329 0.930 1_565 S
H334 C331 0.929 . S
S335 N336 1.613 . S
S335 N337 1.610 . S
N336 S335 1.613 . S
N336 C339 1.350 . S
N337 S335 1.610 . S
N337 C338 1.351 . S
C338 C332 1.428 . S
C338 N337 1.351 . S
C338 C339 1.434 . S
C339 C330 1.429 . S
C339 N336 1.350 . S
C339 C338 1.434 . S
C340 C341 1.369 . S
C340 C342 1.419 . S
C340 H344 0.930 . S
C341 C340 1.369 . S
C341 C350 1.429 . S
C342 C340 1.419 . S
C342 C343 1.363 . S
C342 H345 0.929 . S
C343 C342 1.363 . S
C343 C349 1.428 . S
H344 C340 0.930 . S
H345 C342 0.929 . S
S346 N347 1.613 . S
S346 N348 1.610 . S
N347 S346 1.613 . S
N347 C350 1.350 . S
N348 S346 1.610 . S
N348 C349 1.351 . S
C349 C343 1.428 . S
C349 N348 1.351 . S
C349 C350 1.434 . S
C350 C341 1.429 . S
C350 N347 1.350 . S
C350 C349 1.434 . S
C351 C352 1.369 . S
C351 C353 1.419 . S
C351 H355 0.931 1_545 S
C352 C351 1.369 . S
C352 C361 1.429 . S
C353 C351 1.419 . S
C353 C354 1.363 . S
C353 H356 0.929 1_545 S
C354 C353 1.363 . S
C354 C360 1.428 . S
H355 C351 0.931 1_565 S
H356 C353 0.929 1_565 S
S357 N358 1.613 . S
S357 N359 1.610 . S
N358 S357 1.613 . S
N358 C361 1.350 . S
N359 S357 1.610 . S
N359 C360 1.351 . S
C360 C354 1.428 . S
C360 N359 1.351 . S
C360 C361 1.434 . S
C361 C352 1.429 . S
C361 N358 1.350 . S
C361 C360 1.434 . S
C362 C363 1.369 . S
C362 C364 1.419 . S
C362 H366 0.930 . S
C363 C362 1.369 . S
C363 C372 1.429 . S
C364 C362 1.419 . S
C364 C365 1.363 1_556 S
C364 H367 0.929 1_556 S
C365 C364 1.363 1_554 S
C365 C371 1.428 1_554 S
H366 C362 0.930 . S
H367 C364 0.929 1_554 S
S368 N369 1.613 . S
S368 N370 1.610 1_556 S
N369 S368 1.613 . S
N369 C372 1.350 . S
N370 S368 1.610 1_554 S
N370 C371 1.351 1_554 S
C371 C365 1.428 1_556 S
C371 N370 1.351 1_556 S
C371 C372 1.434 . S
C372 C363 1.429 . S
C372 N369 1.350 . S
C372 C371 1.434 . S
C373 C374 1.369 . S
C373 C375 1.419 . S
C373 H377 0.930 . S
C374 C373 1.369 . S
C374 C383 1.429 1_455 S
C375 C373 1.419 . S
C375 C376 1.363 1_455 S
C375 H378 0.929 . S
C376 C375 1.363 1_655 S
C376 C382 1.428 . S
H377 C373 0.930 . S
H378 C375 0.929 . S
S379 N380 1.613 . S
S379 N381 1.610 . S
N380 S379 1.613 . S
N380 C383 1.350 . S
N381 S379 1.610 . S
N381 C382 1.351 . S
C382 C376 1.428 . S
C382 N381 1.351 . S
C382 C383 1.434 . S
C383 C374 1.429 1_655 S
C383 N380 1.350 . S
C383 C382 1.434 . S
C187 C25 0.674 . S
C189 C180 0.744 . S
C198 C65 0.653 . S
C200 C158 0.611 . S
C209 C105 0.640 . S
C211 C172 0.609 . S
C220 C4 0.652 . S
C222 C183 0.607 . S
C233 C161 0.359 . S
C231 C44 0.527 . S
C244 C169 0.747 . S
C242 C84 0.685 . S
C253 C60 3.164 . S
C255 C136 2.833 . S
C264 C100 3.258 . S
C266 C147 2.886 . S
C275 C31 3.249 . S
C277 C125 2.879 . S
C288 C139 2.951 . S
C286 C71 3.049 . S
C299 C150 2.854 . S
C297 C111 2.933 . S
C308 C20 2.934 . S
C310 C128 2.853 . S
C321 C149 1.712 . S
C319 C2 1.720 . S
C330 C42 1.721 . S
C332 C127 1.705 . S
C341 C82 1.788 . S
C343 C138 1.720 . S
C354 C171 1.040 . S
C352 C63 1.091 . S
C365 C182 1.081 . S
C363 C103 1.160 . S
C374 C23 1.149 . S
C376 C160 1.095 . S
