# Generated by pormake.
# Topology gar, (4,6)-cn, num edge types: 1
# Building blocks:
#     Node 0, Type 0, BuildingBlock: NAHDIM_clean_sbu_0, # of connection points: 4
#     Node 1, Type 0, BuildingBlock: NAHDIM_clean_sbu_0, # of connection points: 4
#     Node 2, Type 0, BuildingBlock: NAHDIM_clean_sbu_0, # of connection points: 4
#     Node 3, Type 0, BuildingBlock: NAHDIM_clean_sbu_0, # of connection points: 4
#     Node 4, Type 0, BuildingBlock: NAHDIM_clean_sbu_0, # of connection points: 4
#     Node 5, Type 0, BuildingBlock: NAHDIM_clean_sbu_0, # of connection points: 4
#     Node 6, Type 0, BuildingBlock: NAHDIM_clean_sbu_0, # of connection points: 4
#     Node 7, Type 0, BuildingBlock: NAHDIM_clean_sbu_0, # of connection points: 4
#     Node 8, Type 0, BuildingBlock: NAHDIM_clean_sbu_0, # of connection points: 4
#     Node 9, Type 0, BuildingBlock: NAHDIM_clean_sbu_0, # of connection points: 4
#     Node 10, Type 0, BuildingBlock: NAHDIM_clean_sbu_0, # of connection points: 4
#     Node 11, Type 0, BuildingBlock: NAHDIM_clean_sbu_0, # of connection points: 4
#     Node 12, Type 0, BuildingBlock: NAHDIM_clean_sbu_0, # of connection points: 4
#     Node 13, Type 0, BuildingBlock: NAHDIM_clean_sbu_0, # of connection points: 4
#     Node 14, Type 0, BuildingBlock: NAHDIM_clean_sbu_0, # of connection points: 4
#     Node 15, Type 0, BuildingBlock: NAHDIM_clean_sbu_0, # of connection points: 4
#     Node 16, Type 0, BuildingBlock: NAHDIM_clean_sbu_0, # of connection points: 4
#     Node 17, Type 0, BuildingBlock: NAHDIM_clean_sbu_0, # of connection points: 4
#     Node 18, Type 0, BuildingBlock: NAHDIM_clean_sbu_0, # of connection points: 4
#     Node 19, Type 0, BuildingBlock: NAHDIM_clean_sbu_0, # of connection points: 4
#     Node 20, Type 0, BuildingBlock: NAHDIM_clean_sbu_0, # of connection points: 4
#     Node 21, Type 0, BuildingBlock: NAHDIM_clean_sbu_0, # of connection points: 4
#     Node 22, Type 0, BuildingBlock: NAHDIM_clean_sbu_0, # of connection points: 4
#     Node 23, Type 0, BuildingBlock: NAHDIM_clean_sbu_0, # of connection points: 4
#     Node 24, Type 1, BuildingBlock: PAMTUU_clean_sbu_0, # of connection points: 6
#     Node 25, Type 1, BuildingBlock: PAMTUU_clean_sbu_0, # of connection points: 6
#     Node 26, Type 1, BuildingBlock: PAMTUU_clean_sbu_0, # of connection points: 6
#     Node 27, Type 1, BuildingBlock: PAMTUU_clean_sbu_0, # of connection points: 6
#     Node 28, Type 1, BuildingBlock: PAMTUU_clean_sbu_0, # of connection points: 6
#     Node 29, Type 1, BuildingBlock: PAMTUU_clean_sbu_0, # of connection points: 6
#     Node 30, Type 1, BuildingBlock: PAMTUU_clean_sbu_0, # of connection points: 6
#     Node 31, Type 1, BuildingBlock: PAMTUU_clean_sbu_0, # of connection points: 6
#     Node 32, Type 1, BuildingBlock: PAMTUU_clean_sbu_0, # of connection points: 6
#     Node 33, Type 1, BuildingBlock: PAMTUU_clean_sbu_0, # of connection points: 6
#     Node 34, Type 1, BuildingBlock: PAMTUU_clean_sbu_0, # of connection points: 6
#     Node 35, Type 1, BuildingBlock: PAMTUU_clean_sbu_0, # of connection points: 6
#     Node 36, Type 1, BuildingBlock: PAMTUU_clean_sbu_0, # of connection points: 6
#     Node 37, Type 1, BuildingBlock: PAMTUU_clean_sbu_0, # of connection points: 6
#     Node 38, Type 1, BuildingBlock: PAMTUU_clean_sbu_0, # of connection points: 6
#     Node 39, Type 1, BuildingBlock: PAMTUU_clean_sbu_0, # of connection points: 6
#     Edge 40, Type (0, 1), BuildingBlock: OJICUG_clean_linker_0, # of connection points: 2
#     Edge 41, Type (0, 1), BuildingBlock: OJICUG_clean_linker_0, # of connection points: 2
#     Edge 42, Type (0, 1), BuildingBlock: OJICUG_clean_linker_0, # of connection points: 2
#     Edge 43, Type (0, 1), BuildingBlock: OJICUG_clean_linker_0, # of connection points: 2
#     Edge 44, Type (0, 1), BuildingBlock: OJICUG_clean_linker_0, # of connection points: 2
#     Edge 45, Type (0, 1), BuildingBlock: OJICUG_clean_linker_0, # of connection points: 2
#     Edge 46, Type (0, 1), BuildingBlock: OJICUG_clean_linker_0, # of connection points: 2
#     Edge 47, Type (0, 1), BuildingBlock: OJICUG_clean_linker_0, # of connection points: 2
#     Edge 48, Type (0, 1), BuildingBlock: OJICUG_clean_linker_0, # of connection points: 2
#     Edge 49, Type (0, 1), BuildingBlock: OJICUG_clean_linker_0, # of connection points: 2
#     Edge 50, Type (0, 1), BuildingBlock: OJICUG_clean_linker_0, # of connection points: 2
#     Edge 51, Type (0, 1), BuildingBlock: OJICUG_clean_linker_0, # of connection points: 2
#     Edge 52, Type (0, 1), BuildingBlock: OJICUG_clean_linker_0, # of connection points: 2
#     Edge 53, Type (0, 1), BuildingBlock: OJICUG_clean_linker_0, # of connection points: 2
#     Edge 54, Type (0, 1), BuildingBlock: OJICUG_clean_linker_0, # of connection points: 2
#     Edge 55, Type (0, 1), BuildingBlock: OJICUG_clean_linker_0, # of connection points: 2
#     Edge 56, Type (0, 1), BuildingBlock: OJICUG_clean_linker_0, # of connection points: 2
#     Edge 57, Type (0, 1), BuildingBlock: OJICUG_clean_linker_0, # of connection points: 2
#     Edge 58, Type (0, 1), BuildingBlock: OJICUG_clean_linker_0, # of connection points: 2
#     Edge 59, Type (0, 1), BuildingBlock: OJICUG_clean_linker_0, # of connection points: 2
#     Edge 60, Type (0, 1), BuildingBlock: OJICUG_clean_linker_0, # of connection points: 2
#     Edge 61, Type (0, 1), BuildingBlock: OJICUG_clean_linker_0, # of connection points: 2
#     Edge 62, Type (0, 1), BuildingBlock: OJICUG_clean_linker_0, # of connection points: 2
#     Edge 63, Type (0, 1), BuildingBlock: OJICUG_clean_linker_0, # of connection points: 2
#     Edge 64, Type (0, 1), BuildingBlock: OJICUG_clean_linker_0, # of connection points: 2
#     Edge 65, Type (0, 1), BuildingBlock: OJICUG_clean_linker_0, # of connection points: 2
#     Edge 66, Type (0, 1), BuildingBlock: OJICUG_clean_linker_0, # of connection points: 2
#     Edge 67, Type (0, 1), BuildingBlock: OJICUG_clean_linker_0, # of connection points: 2
#     Edge 68, Type (0, 1), BuildingBlock: OJICUG_clean_linker_0, # of connection points: 2
#     Edge 69, Type (0, 1), BuildingBlock: OJICUG_clean_linker_0, # of connection points: 2
#     Edge 70, Type (0, 1), BuildingBlock: OJICUG_clean_linker_0, # of connection points: 2
#     Edge 71, Type (0, 1), BuildingBlock: OJICUG_clean_linker_0, # of connection points: 2
#     Edge 72, Type (0, 1), BuildingBlock: OJICUG_clean_linker_0, # of connection points: 2
#     Edge 73, Type (0, 1), BuildingBlock: OJICUG_clean_linker_0, # of connection points: 2
#     Edge 74, Type (0, 1), BuildingBlock: OJICUG_clean_linker_0, # of connection points: 2
#     Edge 75, Type (0, 1), BuildingBlock: OJICUG_clean_linker_0, # of connection points: 2
#     Edge 76, Type (0, 1), BuildingBlock: OJICUG_clean_linker_0, # of connection points: 2
#     Edge 77, Type (0, 1), BuildingBlock: OJICUG_clean_linker_0, # of connection points: 2
#     Edge 78, Type (0, 1), BuildingBlock: OJICUG_clean_linker_0, # of connection points: 2
#     Edge 79, Type (0, 1), BuildingBlock: OJICUG_clean_linker_0, # of connection points: 2
#     Edge 80, Type (0, 1), BuildingBlock: OJICUG_clean_linker_0, # of connection points: 2
#     Edge 81, Type (0, 1), BuildingBlock: OJICUG_clean_linker_0, # of connection points: 2
#     Edge 82, Type (0, 1), BuildingBlock: OJICUG_clean_linker_0, # of connection points: 2
#     Edge 83, Type (0, 1), BuildingBlock: OJICUG_clean_linker_0, # of connection points: 2
#     Edge 84, Type (0, 1), BuildingBlock: OJICUG_clean_linker_0, # of connection points: 2
#     Edge 85, Type (0, 1), BuildingBlock: OJICUG_clean_linker_0, # of connection points: 2
#     Edge 86, Type (0, 1), BuildingBlock: OJICUG_clean_linker_0, # of connection points: 2
#     Edge 87, Type (0, 1), BuildingBlock: OJICUG_clean_linker_0, # of connection points: 2
#     Edge 88, Type (0, 1), BuildingBlock: OJICUG_clean_linker_0, # of connection points: 2
#     Edge 89, Type (0, 1), BuildingBlock: OJICUG_clean_linker_0, # of connection points: 2
#     Edge 90, Type (0, 1), BuildingBlock: OJICUG_clean_linker_0, # of connection points: 2
#     Edge 91, Type (0, 1), BuildingBlock: OJICUG_clean_linker_0, # of connection points: 2
#     Edge 92, Type (0, 1), BuildingBlock: OJICUG_clean_linker_0, # of connection points: 2
#     Edge 93, Type (0, 1), BuildingBlock: OJICUG_clean_linker_0, # of connection points: 2
#     Edge 94, Type (0, 1), BuildingBlock: OJICUG_clean_linker_0, # of connection points: 2
#     Edge 95, Type (0, 1), BuildingBlock: OJICUG_clean_linker_0, # of connection points: 2
#     Edge 96, Type (0, 1), BuildingBlock: OJICUG_clean_linker_0, # of connection points: 2
#     Edge 97, Type (0, 1), BuildingBlock: OJICUG_clean_linker_0, # of connection points: 2
#     Edge 98, Type (0, 1), BuildingBlock: OJICUG_clean_linker_0, # of connection points: 2
#     Edge 99, Type (0, 1), BuildingBlock: OJICUG_clean_linker_0, # of connection points: 2
#     Edge 100, Type (0, 1), BuildingBlock: OJICUG_clean_linker_0, # of connection points: 2
#     Edge 101, Type (0, 1), BuildingBlock: OJICUG_clean_linker_0, # of connection points: 2
#     Edge 102, Type (0, 1), BuildingBlock: OJICUG_clean_linker_0, # of connection points: 2
#     Edge 103, Type (0, 1), BuildingBlock: OJICUG_clean_linker_0, # of connection points: 2
#     Edge 104, Type (0, 1), BuildingBlock: OJICUG_clean_linker_0, # of connection points: 2
#     Edge 105, Type (0, 1), BuildingBlock: OJICUG_clean_linker_0, # of connection points: 2
#     Edge 106, Type (0, 1), BuildingBlock: OJICUG_clean_linker_0, # of connection points: 2
#     Edge 107, Type (0, 1), BuildingBlock: OJICUG_clean_linker_0, # of connection points: 2
#     Edge 108, Type (0, 1), BuildingBlock: OJICUG_clean_linker_0, # of connection points: 2
#     Edge 109, Type (0, 1), BuildingBlock: OJICUG_clean_linker_0, # of connection points: 2
#     Edge 110, Type (0, 1), BuildingBlock: OJICUG_clean_linker_0, # of connection points: 2
#     Edge 111, Type (0, 1), BuildingBlock: OJICUG_clean_linker_0, # of connection points: 2
#     Edge 112, Type (0, 1), BuildingBlock: OJICUG_clean_linker_0, # of connection points: 2
#     Edge 113, Type (0, 1), BuildingBlock: OJICUG_clean_linker_0, # of connection points: 2
#     Edge 114, Type (0, 1), BuildingBlock: OJICUG_clean_linker_0, # of connection points: 2
#     Edge 115, Type (0, 1), BuildingBlock: OJICUG_clean_linker_0, # of connection points: 2
#     Edge 116, Type (0, 1), BuildingBlock: OJICUG_clean_linker_0, # of connection points: 2
#     Edge 117, Type (0, 1), BuildingBlock: OJICUG_clean_linker_0, # of connection points: 2
#     Edge 118, Type (0, 1), BuildingBlock: OJICUG_clean_linker_0, # of connection points: 2
#     Edge 119, Type (0, 1), BuildingBlock: OJICUG_clean_linker_0, # of connection points: 2
#     Edge 120, Type (0, 1), BuildingBlock: OJICUG_clean_linker_0, # of connection points: 2
#     Edge 121, Type (0, 1), BuildingBlock: OJICUG_clean_linker_0, # of connection points: 2
#     Edge 122, Type (0, 1), BuildingBlock: OJICUG_clean_linker_0, # of connection points: 2
#     Edge 123, Type (0, 1), BuildingBlock: OJICUG_clean_linker_0, # of connection points: 2
#     Edge 124, Type (0, 1), BuildingBlock: OJICUG_clean_linker_0, # of connection points: 2
#     Edge 125, Type (0, 1), BuildingBlock: OJICUG_clean_linker_0, # of connection points: 2
#     Edge 126, Type (0, 1), BuildingBlock: OJICUG_clean_linker_0, # of connection points: 2
#     Edge 127, Type (0, 1), BuildingBlock: OJICUG_clean_linker_0, # of connection points: 2
#     Edge 128, Type (0, 1), BuildingBlock: OJICUG_clean_linker_0, # of connection points: 2
#     Edge 129, Type (0, 1), BuildingBlock: OJICUG_clean_linker_0, # of connection points: 2
#     Edge 130, Type (0, 1), BuildingBlock: OJICUG_clean_linker_0, # of connection points: 2
#     Edge 131, Type (0, 1), BuildingBlock: OJICUG_clean_linker_0, # of connection points: 2
#     Edge 132, Type (0, 1), BuildingBlock: OJICUG_clean_linker_0, # of connection points: 2
#     Edge 133, Type (0, 1), BuildingBlock: OJICUG_clean_linker_0, # of connection points: 2
#     Edge 134, Type (0, 1), BuildingBlock: OJICUG_clean_linker_0, # of connection points: 2
#     Edge 135, Type (0, 1), BuildingBlock: OJICUG_clean_linker_0, # of connection points: 2
# Relax obj value: 0.253
# Max RMSD: 0.379
# Mean RMSD: 0.199
data_MOF--net-gar--node1-NAHDIM_clean_sbu_0--node2-PAMTUU_clean_sbu_0--edge1-OJICUG_clean_linker_0
_symmetry_space_group_name_H-M    P1
_symmetry_Int_Tables_number       1
_symmetry_cell_setting            triclinic
loop_
_symmetry_equiv_pos_as_xyz
'x, y, z'
_cell_length_a     45.886337
_cell_length_b     42.004408
_cell_length_c     43.816133
_cell_angle_alpha  94.214801
_cell_angle_beta   94.874146
_cell_angle_gamma 109.20802
loop_
_atom_site_label
_atom_site_type_symbol
_atom_site_fract_x
_atom_site_fract_y
_atom_site_fract_z
_atom_type_partial_charge
C0 C 0.16118 0.30721 0.38338 0.0
O1 O 0.15302 0.27813 0.39518 0.0
O2 O 0.09201 0.27009 0.44243 0.0
Zn3 Zn 0.09662 0.31667 0.41359 0.0
O4 O 0.10176 0.36375 0.44633 0.0
C5 C 1.02367 0.31545 0.39381 0.0
O6 O 1.02304 0.31722 0.42379 0.0
O7 O 0.14288 0.32552 0.38722 0.0
C8 C 0.09753 0.39147 0.43866 0.0
O9 O 0.09142 0.3932 0.40912 0.0
C10 C 0.08936 0.23841 0.43446 0.0
O11 O 0.08792 0.22957 0.40484 0.0
O12 O 0.04952 0.31364 0.38398 0.0
C13 C 1.01129 0.81302 0.71888 0.0
O14 O 1.00117 0.79172 0.69374 0.0
O15 O 0.07642 0.77769 0.66659 0.0
Zn16 Zn 0.08532 0.82961 0.69414 0.0
O17 O 0.08897 0.87601 0.66541 0.0
C18 C 0.14941 0.81499 0.7245 0.0
O19 O 0.13314 0.78356 0.71367 0.0
O20 O 0.04186 0.82863 0.72376 0.0
C21 C 0.09868 0.8861 0.63929 0.0
O22 O 0.1098 0.86614 0.62305 0.0
C23 C 0.09279 0.76832 0.64702 0.0
O24 O 0.11682 0.79211 0.63914 0.0
O25 O 0.13532 0.83746 0.72081 0.0
C26 C 0.66906 0.83685 0.89097 0.0
O27 O 0.67824 0.86032 0.91462 0.0
O28 O 0.5861 0.76696 0.93911 0.0
Zn29 Zn 0.59407 0.81648 0.91404 0.0
O30 O 0.60007 0.86412 0.94693 0.0
C31 C 0.5205 0.8121 0.89341 0.0
O32 O 0.51853 0.80977 0.92295 0.0
O33 O 0.63893 0.81923 0.88669 0.0
C34 C 0.5955 0.89175 0.93927 0.0
O35 O 0.58884 0.89319 0.90976 0.0
C36 C 0.59713 0.7612 0.96598 0.0
O37 O 0.61551 0.78789 0.98399 0.0
O38 O 0.54746 0.81384 0.88402 0.0
C39 C 0.5117 0.31504 0.21685 0.0
O40 O 0.50216 0.30197 0.18811 0.0
O41 O 0.57915 0.28184 0.16292 0.0
Zn42 Zn 0.58616 0.33024 0.19549 0.0
O43 O 0.58989 0.37877 0.16997 0.0
C44 C 0.65761 0.32504 0.21818 0.0
O45 O 0.65331 0.30594 0.19198 0.0
O46 O 0.5422 0.32598 0.22459 0.0
C47 C 0.59076 0.38608 0.1414 0.0
O48 O 0.59034 0.36166 0.12065 0.0
C49 C 0.58364 0.25419 0.17065 0.0
O50 O 0.59114 0.25333 0.20011 0.0
O51 O 0.63512 0.33694 0.22426 0.0
C52 C 0.08357 0.81021 0.17504 0.0
O53 O 0.08331 0.78245 0.15898 0.0
O54 O 0.12644 0.79654 0.11738 0.0
Zn55 Zn 0.13958 0.84215 0.14571 0.0
O56 O 0.14252 0.88625 0.12443 0.0
C57 C 0.17603 0.82453 0.19394 0.0
O58 O 0.14824 0.80228 0.19449 0.0
O59 O 0.10525 0.83799 0.17323 0.0
C60 C 0.11837 0.88879 0.10936 0.0
O61 O 0.09296 0.86205 0.10497 0.0
C62 C 0.14502 0.7808 0.11076 0.0
O63 O 0.17495 0.79591 0.11881 0.0
O64 O 0.17945 0.84601 0.1742 0.0
C65 C 0.58937 0.81863 0.44711 0.0
O66 O 0.5973 0.83192 0.47595 0.0
O67 O 0.53124 0.74836 0.488 0.0
Zn68 Zn 0.5284 0.79136 0.4676 0.0
O69 O 0.53805 0.83673 0.49601 0.0
C70 C 0.46162 0.78292 0.44856 0.0
O71 O 0.4602 0.78895 0.47816 0.0
O72 O 0.56122 0.8007 0.43831 0.0
C73 C 0.52879 0.85999 0.48578 0.0
O74 O 0.51237 0.85367 0.45862 0.0
C75 C 0.55427 0.74848 0.50675 0.0
O76 O 0.57599 0.77767 0.51645 0.0
O77 O 0.487 0.7815 0.43976 0.0
C78 C 0.58506 0.31529 0.67239 0.0
O79 O 0.58042 0.28915 0.65193 0.0
O80 O 0.6292 0.29612 0.61873 0.0
Zn81 Zn 0.64238 0.34332 0.64427 0.0
O82 O 0.64346 0.38536 0.62036 0.0
C83 C 0.68091 0.32973 0.69286 0.0
O84 O 0.65306 0.30975 0.697 0.0
O85 O 0.60977 0.34081 0.67356 0.0
C86 C 0.61751 0.38893 0.61138 0.0
O87 O 0.59184 0.36445 0.61492 0.0
C88 C 0.64831 0.28071 0.61326 0.0
O89 O 0.6782 0.29715 0.62014 0.0
O90 O 0.68341 0.3487 0.67106 0.0
C91 C 0.07313 0.27941 0.92263 0.0
O92 O 0.05789 0.24734 0.92495 0.0
O93 O 0.03477 0.25155 0.98912 0.0
Zn94 Zn 1.03175 0.29273 0.96563 0.0
O95 O 0.04088 0.3395 0.99166 0.0
C96 C 0.9869 0.28071 0.90953 0.0
O97 O 1.01165 0.28407 0.89536 0.0
O98 O 0.06565 0.30221 0.93742 0.0
C99 C 1.02331 0.35738 0.98734 0.0
O100 O 0.99726 0.34405 0.96891 0.0
C101 C 0.06126 0.24974 0.99886 0.0
O102 O 0.0862 0.27575 0.99655 0.0
O103 O 0.98943 0.28166 0.93887 0.0
C104 C 0.40186 0.0727 0.32327 0.0
O105 O 0.409 0.04844 0.30845 0.0
O106 O 0.47352 0.06449 0.32919 0.0
Zn107 Zn 0.44902 0.06774 0.36388 0.0
O108 O 0.47745 0.09406 0.40065 0.0
C109 C 0.39938 1.00838 0.37733 0.0
O110 O 0.38277 0.02847 0.37943 0.0
O111 O 0.41684 0.08664 0.34925 0.0
C112 C 0.50651 0.10675 0.39931 0.0
O113 O 0.51733 0.1066 0.37254 0.0
C114 C 0.48335 0.03977 0.32494 0.0
O115 O 0.47776 0.01628 0.34397 0.0
O116 O 0.42769 0.02054 0.37283 0.0
C117 C 0.37248 0.21243 0.57887 0.0
O118 O 0.36316 0.22293 0.60402 0.0
O119 O 0.34286 0.27852 0.59234 0.0
Zn120 Zn 0.33496 0.24847 0.54965 0.0
O121 O 0.34186 0.27099 0.50765 0.0
C122 C 0.27959 0.19976 0.56921 0.0
O123 O 0.29688 0.20639 0.5959 0.0
O124 O 0.36372 0.22049 0.55307 0.0
C125 C 0.3386 0.25126 0.48277 0.0
O126 O 0.33083 0.21856 0.48497 0.0
C127 C 0.32207 0.28624 0.60595 0.0
O128 O 0.29454 0.27982 0.59059 0.0
O129 O 0.29076 0.21472 0.54635 0.0
C130 C 0.26344 0.04981 0.82153 0.0
O131 O 0.24817 0.06193 0.80137 0.0
O132 O 0.18837 0.05004 0.82127 0.0
Zn133 Zn 0.22326 0.06796 0.85594 0.0
O134 O 0.20752 0.06195 0.89705 0.0
C135 C 0.233 0.13362 0.83466 0.0
O136 O 0.20561 0.1184 0.81892 0.0
O137 O 0.25592 0.04777 0.84876 0.0
C138 C 0.19365 0.08246 0.90465 0.0
O139 O 0.19203 0.10529 0.88626 0.0
C140 C 0.1596 0.04483 0.82244 0.0
O141 O 0.14919 0.0469 0.84924 0.0
O142 O 0.24442 0.11738 0.85274 0.0
C143 C 0.31984 1.00652 0.05516 0.0
O144 O 0.34957 1.01468 0.06459 0.0
O145 O 0.32527 0.91492 0.05444 0.0
Zn146 Zn 0.32998 0.94943 0.02481 0.0
O147 O 0.31533 0.92512 0.9826 0.0
C148 C 0.39438 0.9734 0.01029 0.0
O149 O 0.38452 0.95104 0.98585 0.0
O150 O 0.30622 0.97961 0.03704 0.0
C151 C 0.31894 0.94008 0.95837 0.0
O152 O 0.33048 0.97336 0.96088 0.0
C153 C 0.33991 0.89412 0.05181 0.0
O154 O 0.35675 0.89505 0.02888 0.0
O155 O 0.37537 0.97668 0.02867 0.0
C156 C 0.28957 0.41933 0.04776 0.0
O157 O 0.27681 0.3871 0.03732 0.0
O158 O 0.34212 0.37854 0.1025 0.0
Zn159 Zn 0.34485 0.40062 0.06016 0.0
O160 O 0.33446 0.37196 0.01623 0.0
C161 C 0.39833 0.46454 0.06269 0.0
O162 O 0.37794 0.47991 0.06631 0.0
O163 O 0.31789 0.43039 0.05931 0.0
C164 C 0.35631 0.37289 0.99951 0.0
O165 O 0.38514 0.38686 0.01232 0.0
C166 C 0.31856 0.36933 0.11772 0.0
O167 O 0.29167 0.36957 0.10499 0.0
O168 O 0.38953 0.43231 0.06094 0.0
C169 C 0.87764 0.12373 0.08559 0.0
O170 O 0.88832 0.15588 0.081 0.0
O171 O 0.8521 0.17286 0.15541 0.0
Zn172 Zn 0.83557 0.14753 0.114 0.0
O173 O 0.83783 0.17884 0.08098 0.0
C174 C 0.77518 0.1452 0.11409 0.0
O175 O 0.7904 0.178 0.11841 0.0
O176 O 0.85532 0.11372 0.10171 0.0
C177 C 0.82376 0.1643 0.05485 0.0
O178 O 0.81146 0.13105 0.05109 0.0
C179 C 0.86865 0.20392 0.15748 0.0
O180 O 0.87822 0.21734 0.13243 0.0
O181 O 0.79035 0.1248 0.11379 0.0
C182 C 0.22351 0.51975 0.30358 0.0
O183 O 0.21194 0.53686 0.3225 0.0
O184 O 0.17165 0.52344 0.21505 0.0
Zn185 Zn 0.18147 0.53239 0.26017 0.0
O186 O 0.1426 0.52116 0.28029 0.0
C187 C 0.22445 0.5988 0.25564 0.0
O188 O 0.23095 0.58385 0.23102 0.0
O189 O 0.21163 0.51156 0.2757 0.0
C190 C 0.12519 0.53799 0.27241 0.0
O191 O 0.13275 0.55813 0.25065 0.0
C192 C 0.14618 0.50182 0.20268 0.0
O193 O 0.12776 0.48185 0.21995 0.0
O194 O 0.20341 0.58189 0.27087 0.0
C195 C 0.79624 0.91473 0.54728 0.0
O196 O 0.7851 0.88353 0.53368 0.0
O197 O 0.85139 0.87707 0.60338 0.0
Zn198 Zn 0.85294 0.89913 0.56181 0.0
O199 O 0.84479 0.86993 0.51892 0.0
C200 C 0.91758 0.92752 0.5528 0.0
O201 O 0.91308 0.89571 0.54315 0.0
O202 O 0.82374 0.92574 0.56098 0.0
C203 C 0.85331 0.88692 0.49615 0.0
O204 O 0.86565 0.92006 0.50139 0.0
C205 C 0.8273 0.86686 0.61762 0.0
O206 O 0.80048 0.86627 0.60398 0.0
O207 O 0.89546 0.93504 0.56336 0.0
C208 C 0.9426 0.11637 0.29733 0.0
O209 O 0.95311 0.09764 0.31502 0.0
O210 O 0.97625 0.08429 0.21138 0.0
Zn211 Zn 0.96871 0.08399 0.25552 0.0
O212 O 1.00927 0.09124 0.28122 0.0
C213 C 0.93569 1.0114 0.24541 0.0
O214 O 0.95004 1.0124 0.22061 0.0
O215 O 0.94834 0.11684 0.26946 0.0
C216 C 1.02329 0.07069 0.27411 0.0
O217 O 1.01156 0.04785 0.25021 0.0
C218 C 0.99991 0.10757 0.20499 0.0
O219 O 1.01538 0.13221 0.22656 0.0
O220 O 0.94001 0.03855 0.26261 0.0
C221 C 0.38852 0.62569 0.58836 0.0
O222 O 0.40042 0.65891 0.59019 0.0
O223 O 0.35768 0.67275 0.65134 0.0
Zn224 Zn 0.34136 0.64482 0.61071 0.0
O225 O 0.34208 0.6738 0.57628 0.0
C226 C 0.28106 0.6426 0.61066 0.0
O227 O 0.29676 0.67528 0.61503 0.0
O228 O 0.36276 0.61232 0.5987 0.0
C229 C 0.32641 0.65722 0.55144 0.0
O230 O 0.31574 0.62393 0.5496 0.0
C231 C 0.36925 0.70477 0.65218 0.0
O232 O 0.37486 0.71836 0.62631 0.0
O233 O 0.29586 0.62176 0.61082 0.0
C234 C 0.45504 0.62619 0.79899 0.0
O235 O 0.47996 0.62924 0.81768 0.0
O236 O 0.49028 0.59876 0.71374 0.0
Zn237 Zn 0.47915 0.58829 0.75547 0.0
O238 O 0.51901 0.59823 0.78248 0.0
C239 C 0.42738 0.52696 0.75387 0.0
O240 O 0.41148 0.54734 0.7489 0.0
O241 O 0.45166 0.61222 0.77162 0.0
C242 C 0.53463 0.57953 0.77483 0.0
O243 O 0.52446 0.55776 0.74997 0.0
C244 C 0.47685 0.58018 0.68901 0.0
O245 O 0.45101 0.55475 0.68968 0.0
O246 O 0.45681 0.53859 0.7558 0.0
C247 C 0.72045 0.0173 0.82841 0.0
O248 O 0.71786 0.04652 0.83799 0.0
O249 O 0.67661 1.01442 0.73214 0.0
Zn250 Zn 0.68698 0.02958 0.77723 0.0
O251 O 0.64861 0.03185 0.7939 0.0
C252 C 0.72588 0.09523 0.76097 0.0
O253 O 0.7158 0.08223 0.73229 0.0
O254 O 0.70711 1.00262 0.80199 0.0
C255 C 0.63739 0.05363 0.78413 0.0
O256 O 0.65093 0.07277 0.76348 0.0
C257 C 0.64849 0.99864 0.72144 0.0
O258 O 0.6284 0.98524 0.74054 0.0
O259 O 0.71688 0.07735 0.78272 0.0
C260 C 0.86723 0.71469 0.07608 0.0
O261 O 0.85846 0.72436 0.1019 0.0
O262 O 0.83531 0.77796 0.09283 0.0
Zn263 Zn 0.82681 0.74875 0.05008 0.0
O264 O 0.82841 0.77106 0.00833 0.0
C265 C 0.77391 0.69752 0.07133 0.0
O266 O 0.79214 0.70409 0.09745 0.0
O267 O 0.85717 0.72271 0.05081 0.0
C268 C 0.85254 0.78188 0.99418 0.0
O269 O 0.87948 0.78296 0.00792 0.0
C270 C 0.81421 0.78386 0.10724 0.0
O271 O 0.78625 0.77642 0.09251 0.0
O272 O 0.78372 0.71331 0.04845 0.0
C273 C 0.94044 0.61956 0.79857 0.0
O274 O 0.97073 0.63033 0.79848 0.0
O275 O 0.98491 0.57124 0.81939 0.0
Zn276 Zn 0.95122 0.57613 0.84263 0.0
O277 O 0.97128 0.60006 0.8839 0.0
C278 C 0.91497 0.51104 0.82016 0.0
O279 O 0.92415 0.52485 0.79514 0.0
O280 O 0.92784 0.59884 0.8172 0.0
C281 C 1.00001 0.61758 0.88635 0.0
O282 O 1.01349 0.62522 0.86133 0.0
C283 C 0.99726 0.54862 0.82289 0.0
O284 O 0.9873 0.52613 0.84231 0.0
O285 O 0.92289 0.52921 0.84594 0.0
C286 C 0.81325 0.50586 0.56318 0.0
O287 O 0.82324 0.48853 0.58283 0.0
O288 O 0.82452 0.42789 0.5485 0.0
Zn289 Zn 0.83361 0.46531 0.52134 0.0
O290 O 0.81889 0.44371 0.47802 0.0
C291 C 0.89853 0.48075 0.51084 0.0
O292 O 0.88777 0.45621 0.48817 0.0
O293 O 0.8143 0.49962 0.53454 0.0
C294 C 0.828 0.45793 0.45434 0.0
O295 O 0.84533 0.49013 0.4576 0.0
C296 C 0.83108 0.40159 0.54048 0.0
O297 O 0.84233 0.39927 0.51414 0.0
O298 O 0.87981 0.48862 0.52713 0.0
C299 C 0.7561 0.54035 0.31638 0.0
O300 O 0.73778 0.54905 0.29648 0.0
O301 O 0.68256 0.54418 0.32426 0.0
Zn302 Zn 0.71992 0.56112 0.35569 0.0
O303 O 0.70583 0.55149 0.39683 0.0
C304 C 0.72684 0.63011 0.34178 0.0
O305 O 0.69715 0.61763 0.33161 0.0
O306 O 0.75189 0.5413 0.34466 0.0
C307 C 0.71363 0.57495 0.41896 0.0
O308 O 0.73462 0.6042 0.41581 0.0
C309 C 0.65668 0.54658 0.33019 0.0
O310 O 0.65379 0.5574 0.3583 0.0
O311 O 0.74022 0.6111 0.35361 0.0
Tb312 Tb 0.12539 0.09486 0.07585 0.0
Tb313 Tb 0.06071 0.04681 0.03601 0.0
C314 C 0.06191 0.08274 0.10174 0.0
C315 C 0.20442 0.1171 0.11061 0.0
C316 C 0.2489 0.08563 0.10241 0.0
C317 C 0.25418 0.1187 0.0945 0.0
C318 C 0.232 0.13435 0.09856 0.0
C319 C 0.20087 0.08554 0.12153 0.0
C320 C 0.22293 0.06996 0.11743 0.0
C321 C 0.17725 0.12809 0.10532 0.0
O322 O 0.11685 0.04377 0.09024 0.0
O323 O 0.08754 1.01365 0.04621 0.0
O324 O 0.09409 0.06396 1.00364 0.0
O325 O 0.13786 0.07073 0.036 0.0
O326 O 1.02455 0.99993 0.03066 0.0
O327 O 1.02711 0.03586 0.99751 0.0
O328 O 0.05731 0.09782 0.03706 0.0
O329 O 0.10939 0.12864 0.04792 0.0
O330 O 0.08932 0.10461 0.09938 0.0
O331 O 0.04979 0.05485 0.08273 0.0
C332 C 0.10468 1.01503 0.07221 0.0
O333 O 0.16973 0.13112 0.07656 0.0
O334 O 0.15289 0.11214 0.11851 0.0
C335 C 0.12354 0.06732 0.00823 0.0
C336 C 0.97805 1.00829 0.01246 0.0
C337 C 0.92971 0.03078 0.0284 0.0
C338 C 0.93758 0.03144 0.99809 0.0
C339 C 0.96159 0.02015 0.99014 0.0
C340 C 0.96725 1.00334 0.04145 0.0
C341 C 0.94324 1.01452 0.04934 0.0
C342 C 1.00956 1.0086 0.00794 0.0
C343 C 0.08066 0.12662 0.03832 0.0
H344 H 0.27409 0.13127 0.08289 0.0
H345 H 0.23516 0.15864 0.08992 0.0
H346 H 0.17995 0.0716 0.13104 0.0
H347 H 0.21867 0.04465 0.12417 0.0
H348 H 0.927 0.04332 0.98138 0.0
H349 H 0.96924 0.02377 0.96752 0.0
H350 H 0.97917 0.99387 0.05912 0.0
H351 H 0.93762 1.01363 0.07286 0.0
Tb352 Tb 0.29478 0.79637 0.34742 0.0
Tb353 Tb 0.34217 0.80766 0.29458 0.0
C354 C 0.27509 0.81384 0.2811 0.0
C355 C 0.26251 0.76135 0.41387 0.0
C356 C 0.27876 0.72505 0.45998 0.0
C357 C 0.27056 0.7538 0.46793 0.0
C358 C 0.2625 0.77186 0.44498 0.0
C359 C 0.26946 0.73185 0.40598 0.0
C360 C 0.2774 0.71384 0.42876 0.0
C361 C 0.26111 0.78397 0.39022 0.0
O362 O 0.29669 0.74765 0.33 0.0
O363 O 0.30501 0.75989 0.28113 0.0
O364 O 0.36406 0.78669 0.33049 0.0
O365 O 0.33903 0.79768 0.37119 0.0
O366 O 0.36602 0.78802 0.26356 0.0
O367 O 0.37222 0.84151 0.26902 0.0
O368 O 0.35923 0.84989 0.33045 0.0
O369 O 0.31215 0.85002 0.34287 0.0
O370 O 0.26648 0.79886 0.30582 0.0
O371 O 0.30428 0.82391 0.27525 0.0
C372 C 0.29408 0.73791 0.30053 0.0
O373 O 0.28589 0.81079 0.39163 0.0
O374 O 0.25199 0.76937 0.36207 0.0
C375 C 0.36175 0.78948 0.36025 0.0
C376 C 0.37094 0.81695 0.21943 0.0
C377 C 0.3571 0.82784 0.15829 0.0
C378 C 0.38813 0.83829 0.17188 0.0
C379 C 0.39497 0.83294 0.20233 0.0
C380 C 0.34013 0.80464 0.20543 0.0
C381 C 0.33326 0.80995 0.17502 0.0
C382 C 0.37742 0.81712 0.25268 0.0
C383 C 0.3418 0.86577 0.3421 0.0
H384 H 0.27114 0.76277 0.49186 0.0
H385 H 0.2577 0.79485 0.45153 0.0
H386 H 0.27039 0.72359 0.38221 0.0
H387 H 0.28404 0.69213 0.42188 0.0
H388 H 0.40694 0.85253 0.1597 0.0
H389 H 0.41883 0.84283 0.21299 0.0
H390 H 0.32127 0.79238 0.21847 0.0
H391 H 0.3092 0.80137 0.16503 0.0
Tb392 Tb 0.55431 0.0631 0.57303 0.0
Tb393 Tb 0.62183 0.07084 0.54773 0.0
C394 C 0.60582 0.04439 0.61145 0.0
C395 C 0.48441 0.08309 0.58953 0.0
C396 C 0.44872 0.12643 0.58656 0.0
C397 C 0.4395 0.09746 0.60249 0.0
C398 C 0.45716 0.07592 0.60386 0.0
C399 C 0.49401 0.11225 0.57406 0.0
C400 C 0.47625 0.13364 0.57245 0.0
C401 C 0.50218 0.05961 0.58987 0.0
O402 O 0.58549 0.11417 0.59133 0.0
O403 O 0.62384 0.12301 0.55891 0.0
O404 O 0.59102 0.07566 0.50913 0.0
O405 O 0.55792 0.09428 0.53581 0.0
O406 O 0.67067 0.08933 0.55422 0.0
O407 O 0.64567 0.0588 0.51235 0.0
O408 O 0.59774 0.01656 0.54735 0.0
O409 O 0.54786 0.01709 0.54195 0.0
O410 O 0.57593 0.03663 0.60328 0.0
O411 O 0.62671 0.06432 0.59629 0.0
C412 C 0.60924 0.13453 0.57933 0.0
O413 O 0.50591 0.04743 0.56281 0.0
O414 O 0.52792 0.0693 0.6086 0.0
C415 C 0.57019 0.09077 0.51051 0.0
C416 C 0.69082 0.04955 0.53223 0.0
C417 C 0.72519 1.00534 0.5378 0.0
C418 C 0.73816 0.03698 0.52669 0.0
C419 C 0.72102 0.05888 0.52384 0.0
C420 C 0.67795 0.01821 0.5437 0.0
C421 C 0.69492 0.99621 0.54632 0.0
C422 C 0.67261 0.07223 0.52886 0.0
C423 C 0.56787 1.00079 0.53976 0.0
H424 H 0.41829 0.09106 0.61338 0.0
H425 H 0.44936 0.05349 0.61583 0.0
H426 H 0.51513 0.11832 0.56302 0.0
H427 H 0.4842 0.15596 0.56036 0.0
H428 H 0.76136 0.04455 0.51976 0.0
H429 H 0.73128 0.083 0.51497 0.0
H430 H 0.65473 1.01072 0.55056 0.0
H431 H 0.68451 0.97222 0.55533 0.0
Tb432 Tb 0.3693 0.32314 0.80618 0.0
Tb433 Tb 0.3039 0.33961 0.7989 0.0
C434 C 0.3054 0.26847 0.81184 0.0
C435 C 0.44438 0.31225 0.79132 0.0
C436 C 0.49135 0.3141 0.75326 0.0
C437 C 0.4801 0.28683 0.7708 0.0
C438 C 0.45689 0.28599 0.78971 0.0
C439 C 0.45551 0.33956 0.77382 0.0
C440 C 0.47894 0.34057 0.7551 0.0
C441 C 0.41934 0.3102 0.8108 0.0
O442 O 0.35017 0.30698 0.75772 0.0
O443 O 0.31646 0.33699 0.75169 0.0
O444 O 0.34091 0.38777 0.80042 0.0
O445 O 0.38006 0.36995 0.78486 0.0
O446 O 0.25812 0.32778 0.77811 0.0
O447 O 0.27823 0.37005 0.81314 0.0
O448 O 0.31304 0.33456 0.84815 0.0
O449 O 0.36583 0.34759 0.85101 0.0
O450 O 0.33454 0.28192 0.82362 0.0
O451 O 0.29174 0.28524 0.79522 0.0
C452 C 0.33254 0.3191 0.73993 0.0
O453 O 0.41688 0.33884 0.82173 0.0
O454 O 0.39233 0.28771 0.80062 0.0
C455 C 0.36744 0.39353 0.78898 0.0
C456 C 0.22555 0.33864 0.81307 0.0
C457 C 0.17441 0.31786 0.8472 0.0
C458 C 0.17744 0.34384 0.8279 0.0
C459 C 0.20281 0.35413 0.81098 0.0
C460 C 0.22256 0.31249 0.83202 0.0
C461 C 0.19716 0.30212 0.84889 0.0
C462 C 0.25289 0.35068 0.79642 0.0
C463 C 0.34049 0.34382 0.86456 0.0
H464 H 0.4894 0.26623 0.77004 0.0
H465 H 0.44857 0.26469 0.80299 0.0
H466 H 0.44596 0.35998 0.77444 0.0
H467 H 0.48692 0.3617 0.74158 0.0
H468 H 0.16013 0.35619 0.82582 0.0
H469 H 0.20483 0.37439 0.79647 0.0
H470 H 0.24009 0.30041 0.83406 0.0
H471 H 0.19573 0.28234 0.86381 0.0
Tb472 Tb 0.08789 0.08652 0.57639 0.0
Tb473 Tb 0.09925 0.04949 0.51456 0.0
C474 C 0.03434 0.02991 0.53776 0.0
C475 C 0.08959 0.10513 0.65868 0.0
C476 C 0.10656 0.08022 0.71294 0.0
C477 C 0.07554 0.07782 0.70496 0.0
C478 C 0.06713 0.09019 0.67801 0.0
C479 C 0.12082 0.10899 0.66751 0.0
C480 C 0.1292 0.09682 0.6944 0.0
C481 C 0.07974 0.11165 0.62754 0.0
O482 O 0.08881 0.03659 0.59127 0.0
O483 O 0.10878 0.01713 0.55042 0.0
O484 O 0.13983 0.09391 0.5274 0.0
O485 O 0.13785 0.09591 0.57894 0.0
O486 O 0.08051 0.02088 0.47217 0.0
O487 O 0.12977 0.03615 0.48696 0.0
O488 O 0.08479 0.09238 0.49817 0.0
O489 O 0.09098 0.12606 0.54351 0.0
O490 O 0.04242 0.06131 0.55026 0.0
O491 O 0.05511 0.01866 0.52692 0.0
C492 C 0.0993 1.01343 0.57837 0.0
O493 O 0.10167 0.12731 0.61137 0.0
O494 O 0.05901 0.08567 0.61123 0.0
C495 C 0.15344 0.10454 0.55537 0.0
C496 C 0.11333 0.03665 0.43445 0.0
C497 C 0.10358 0.0552 0.37499 0.0
C498 C 0.10987 0.02494 0.37906 0.0
C499 C 0.11402 1.01542 0.40861 0.0
C500 C 0.11179 0.06889 0.43069 0.0
C501 C 0.10651 0.07794 0.40131 0.0
C502 C 0.10777 0.02309 0.4641 0.0
C503 C 0.0874 0.12238 0.51283 0.0
H504 H 0.05761 0.06522 0.71884 0.0
H505 H 0.04287 0.08669 0.67152 0.0
H506 H 0.13873 0.12025 0.6531 0.0
H507 H 0.15345 0.09994 0.70039 0.0
H508 H 0.10944 1.00741 0.35953 0.0
H509 H 0.11566 0.99058 0.41115 0.0
H510 H 0.11187 0.08589 0.45048 0.0
H511 H 0.10203 0.10151 0.39976 0.0
Tb512 Tb 0.35725 0.85492 0.78847 0.0
Tb513 Tb 0.32257 0.78776 0.81866 0.0
C514 C 0.35064 0.78462 0.75611 0.0
C515 C 0.38191 0.94342 0.77552 0.0
C516 C 0.35745 0.99524 0.78945 0.0
C517 C 0.36285 0.98752 0.75904 0.0
C518 C 0.37467 0.96147 0.75208 0.0
C519 C 0.38036 0.95409 0.80625 0.0
C520 C 0.36806 0.97953 0.81315 0.0
C521 C 0.38475 0.91004 0.76777 0.0
O522 O 0.30651 0.85095 0.77968 0.0
O523 O 0.28354 0.79589 0.78918 0.0
O524 O 0.31245 0.82657 0.84645 0.0
O525 O 0.35052 0.87313 0.83397 0.0
O526 O 0.29081 0.73818 0.81195 0.0
O527 O 0.31492 0.75998 0.85699 0.0
O528 O 0.37205 0.8023 0.84042 0.0
O529 O 0.39665 0.83726 0.80614 0.0
O530 O 0.34946 0.81466 0.7521 0.0
O531 O 0.34587 0.77205 0.78238 0.0
C532 C 0.28081 0.82389 0.77871 0.0
O533 O 0.39711 0.89796 0.78999 0.0
O534 O 0.35967 0.88723 0.75356 0.0
C535 C 0.3287 0.85892 0.851 0.0
C536 C 0.31293 0.70449 0.84018 0.0
C537 C 0.35375 0.66737 0.83451 0.0
C538 C 0.35368 0.68539 0.86285 0.0
C539 C 0.33346 0.70383 0.86565 0.0
C540 C 0.31052 0.68324 0.81309 0.0
C541 C 0.33091 0.66523 0.81016 0.0
C542 C 0.29942 0.73196 0.83941 0.0
C543 C 0.39835 0.819 0.82942 0.0
H544 H 0.35602 0.99996 0.7403 0.0
H545 H 0.37601 0.95383 0.72823 0.0
H546 H 0.38617 0.94089 0.82489 0.0
H547 H 0.36442 0.98448 0.83685 0.0
H548 H 0.37032 0.68672 0.88238 0.0
H549 H 0.33552 0.71951 0.88703 0.0
H550 H 0.29469 0.68272 0.79309 0.0
H551 H 0.33018 0.65182 0.78789 0.0
Tb552 Tb 0.58292 0.05108 0.0839 0.0
Tb553 Tb 0.58858 0.09175 0.02488 0.0
C554 C 0.64571 0.09416 0.06771 0.0
C555 C 0.56564 0.02193 0.15958 0.0
C556 C 0.54032 0.02729 0.21488 0.0
C557 C 0.56109 1.00925 0.21228 0.0
C558 C 0.57368 1.0066 0.18473 0.0
C559 C 0.54482 0.03976 0.16193 0.0
C560 C 0.53212 0.04228 0.18935 0.0
C561 C 0.57973 0.02026 0.13125 0.0
O562 O 0.58759 0.10379 0.10362 0.0
O563 O 0.57789 0.12678 0.05962 0.0
O564 O 0.54352 0.05228 0.01901 0.0
O565 O 0.53706 0.05234 0.06964 0.0
O566 O 0.61448 0.11598 0.99102 0.0
O567 O 0.56713 0.11467 0.99322 0.0
O568 O 0.59783 0.04437 0.00793 0.0
O569 O 0.58081 1.01104 0.04648 0.0
O570 O 0.62952 0.06331 0.07191 0.0
O571 O 0.63201 0.11334 0.05481 0.0
C572 C 0.58222 0.12907 0.09012 0.0
O573 O 0.56027 1.00899 0.10622 0.0
O574 O 0.60279 0.04738 0.12775 0.0
C575 C 0.52531 0.04582 0.04075 0.0
C576 C 0.58331 0.10964 0.94447 0.0
C577 C 0.57832 0.08839 0.88138 0.0
C578 C 0.57742 0.12073 0.89125 0.0
C579 C 0.58024 0.1314 0.92268 0.0
C580 C 0.5811 0.07637 0.93476 0.0
C581 C 0.57889 0.0659 0.90357 0.0
C582 C 0.59072 0.12195 0.97721 0.0
C583 C 0.5905 1.01419 0.01882 0.0
H584 H 0.56804 0.99775 0.23169 0.0
H585 H 0.58993 0.99294 0.18314 0.0
H586 H 0.53852 0.05181 0.1426 0.0
H587 H 0.51577 0.05585 0.19051 0.0
H588 H 0.57618 0.13842 0.87484 0.0
H589 H 0.5813 0.15701 0.92995 0.0
H590 H 0.58289 0.05907 0.95137 0.0
H591 H 0.58006 0.04098 0.8973 0.0
Tb592 Tb 0.32176 0.28273 0.28776 0.0
Tb593 Tb 0.35781 0.35771 0.31703 0.0
C594 C 0.32726 0.34144 0.24737 0.0
C595 C 0.30094 0.19142 0.26015 0.0
C596 C 0.32103 0.13649 0.2698 0.0
C597 C 0.29311 0.13726 0.28005 0.0
C598 C 0.28299 0.16447 0.27502 0.0
C599 C 0.32726 0.18899 0.24732 0.0
C600 C 0.33714 0.16154 0.25201 0.0
C601 C 0.29405 0.22321 0.26178 0.0
O602 O 0.37036 0.29297 0.27359 0.0
O603 O 0.39819 0.34164 0.30445 0.0
O604 O 0.36001 0.32964 0.35651 0.0
O605 O 0.33875 0.27469 0.33418 0.0
O606 O 0.39012 0.40579 0.31344 0.0
O607 O 0.3661 0.39632 0.35338 0.0
O608 O 0.30696 0.35131 0.32339 0.0
O609 O 0.28464 0.29401 0.31185 0.0
O610 O 0.30766 0.31401 0.25586 0.0
O611 O 0.35059 0.36053 0.26716 0.0
C612 C 0.39778 0.31693 0.28329 0.0
O613 O 0.28975 0.23407 0.28899 0.0
O614 O 0.31143 0.24783 0.24812 0.0
C615 C 0.35031 0.29694 0.35878 0.0
C616 C 0.37167 0.44781 0.33399 0.0
C617 C 0.33479 0.48918 0.32819 0.0
C618 C 0.3502 0.48819 0.35706 0.0
C619 C 0.36855 0.46756 0.35993 0.0
C620 C 0.35851 0.45113 0.30483 0.0
C621 C 0.34028 0.4716 0.30197 0.0
C622 C 0.38298 0.41939 0.33802 0.0
C623 C 0.2824 0.32301 0.32357 0.0
H624 H 0.28032 0.11803 0.29371 0.0
H625 H 0.26237 0.16565 0.28471 0.0
H626 H 0.34139 0.20925 0.23547 0.0
H627 H 0.35887 0.16152 0.24407 0.0
H628 H 0.34672 0.50184 0.3776 0.0
H629 H 0.37849 0.46522 0.38264 0.0
H630 H 0.36024 0.43597 0.28442 0.0
H631 H 0.32848 0.47129 0.27942 0.0
Tb632 Tb 0.58399 0.59102 0.08627 0.0
Tb633 Tb 0.58867 0.55302 0.02252 0.0
C634 C 0.52594 0.5416 0.04819 0.0
C635 C 0.588 0.60817 0.16874 0.0
C636 C 0.60109 0.58081 0.22281 0.0
C637 C 0.57449 0.59033 0.21867 0.0
C638 C 0.56795 0.60385 0.19171 0.0
C639 C 0.61498 0.59955 0.17327 0.0
C640 C 0.62156 0.58627 0.2001 0.0
C641 C 0.57845 0.6163 0.13834 0.0
O642 O 0.58304 0.53988 0.09972 0.0
O643 O 0.59837 0.519 0.05642 0.0
O644 O 0.63199 0.59465 0.03403 0.0
O645 O 0.63298 0.59718 0.086 0.0
O646 O 0.56694 0.52712 0.97972 0.0
O647 O 0.61541 0.53489 0.9936 0.0
O648 O 0.57863 0.59942 0.00805 0.0
O649 O 0.58941 0.63186 0.05472 0.0
O650 O 0.53823 0.57315 0.06011 0.0
O651 O 0.54381 0.5262 0.03701 0.0
C652 C 0.59139 0.51585 0.08522 0.0
O653 O 0.60072 0.63088 0.12207 0.0
O654 O 0.55649 0.59138 0.12206 0.0
C655 C 0.64731 0.60448 0.06149 0.0
C656 C 0.60043 0.53905 0.94176 0.0
C657 C 0.6015 0.56004 0.88223 0.0
C658 C 0.60738 0.52996 0.88802 0.0
C659 C 0.60636 0.5193 0.91755 0.0
C660 C 0.59836 0.57084 0.93691 0.0
C661 C 0.59855 0.58111 0.90747 0.0
C662 C 0.59292 0.52531 0.97099 0.0
C663 C 0.58415 0.62948 0.02413 0.0
H664 H 0.55832 0.58642 0.23579 0.0
H665 H 0.54671 0.60976 0.1883 0.0
H666 H 0.63057 0.60209 0.15566 0.0
H667 H 0.64269 0.58008 0.20294 0.0
H668 H 0.61094 0.51361 0.8695 0.0
H669 H 0.60861 0.49492 0.92109 0.0
H670 H 0.59432 0.58673 0.95547 0.0
H671 H 0.59375 0.6043 0.90447 0.0
Tb672 Tb 0.86108 0.35957 0.28852 0.0
Tb673 Tb 0.82587 0.29542 0.32211 0.0
C674 C 0.85297 0.28755 0.25963 0.0
C675 C 0.88347 0.44589 0.26977 0.0
C676 C 0.85442 0.49422 0.28136 0.0
C677 C 0.85749 0.48358 0.25091 0.0
C678 C 0.87166 0.4593 0.24516 0.0
C679 C 0.88441 0.46011 0.3 0.0
C680 C 0.8698 0.48377 0.30577 0.0
C681 C 0.8877 0.41276 0.2646 0.0
O682 O 0.81041 0.35624 0.2803 0.0
O683 O 0.7867 0.30203 0.29159 0.0
O684 O 0.81698 0.3369 0.34749 0.0
O685 O 0.85686 0.38066 0.33378 0.0
O686 O 0.79455 0.24564 0.3181 0.0
O687 O 0.81761 0.27137 0.36251 0.0
O688 O 0.87574 0.30941 0.34271 0.0
O689 O 0.90014 0.34143 0.30645 0.0
O690 O 0.85235 0.3174 0.25413 0.0
O691 O 0.84789 0.27642 0.28644 0.0
C692 C 0.78439 0.32966 0.28002 0.0
O693 O 0.90038 0.40287 0.28815 0.0
O694 O 0.86324 0.38849 0.25106 0.0
C695 C 0.83466 0.36883 0.35105 0.0
C696 C 0.81673 0.21522 0.34985 0.0
C697 C 0.85421 0.17521 0.33976 0.0
C698 C 0.82426 0.16593 0.32385 0.0
C699 C 0.80553 0.18559 0.32907 0.0
C700 C 0.84532 0.22227 0.36818 0.0
C701 C 0.86389 0.20236 0.36317 0.0
C702 C 0.8028 0.24206 0.34656 0.0
C703 C 0.90187 0.32429 0.33059 0.0
H704 H 0.84698 0.49209 0.23149 0.0
H705 H 0.87103 0.44897 0.22162 0.0
H706 H 0.89385 0.45071 0.31949 0.0
H707 H 0.86818 0.49119 0.32957 0.0
H708 H 0.81612 0.14468 0.30604 0.0
H709 H 0.78352 0.1794 0.31481 0.0
H710 H 0.85464 0.24477 0.38455 0.0
H711 H 0.88687 0.20993 0.37582 0.0
Tb712 Tb 0.08892 0.5544 0.5825 0.0
Tb713 Tb 0.09402 0.59209 0.52183 0.0
C714 C 0.15135 0.59525 0.56413 0.0
C715 C 0.07888 0.52866 0.66115 0.0
C716 C 0.06083 0.5357 0.71995 0.0
C717 C 0.07612 0.51255 0.71303 0.0
C718 C 0.08519 0.50914 0.68371 0.0
C719 C 0.0635 0.55161 0.66786 0.0
C720 C 0.05446 0.55506 0.69706 0.0
C721 C 0.08928 0.52581 0.63097 0.0
O722 O 0.09216 0.60763 0.60037 0.0
O723 O 0.08342 0.62841 0.55471 0.0
O724 O 0.04845 0.55333 0.51783 0.0
O725 O 0.04261 0.55443 0.56874 0.0
O726 O 0.12046 0.61587 0.48812 0.0
O727 O 0.07208 0.61157 0.48743 0.0
O728 O 0.10286 0.5443 0.50668 0.0
O729 O 0.08455 0.5125 0.54575 0.0
O730 O 0.13466 0.56474 0.56857 0.0
O731 O 0.13784 0.61459 0.55124 0.0
C732 C 0.08699 0.63211 0.58523 0.0
O733 O 0.06738 0.51448 0.60785 0.0
O734 O 0.11188 0.55225 0.62519 0.0
C735 C 1.03056 0.5477 0.53993 0.0
C736 C 0.08982 0.60213 0.4402 0.0
C737 C 0.07903 0.57127 0.37921 0.0
C738 C 0.06834 0.5983 0.38697 0.0
C739 C 0.07374 0.61366 0.41733 0.0
C740 C 0.09921 0.57426 0.43275 0.0
C741 C 0.09401 0.5591 0.40266 0.0
C742 C 0.0961 0.61824 0.47202 0.0
C743 C 0.09447 0.51452 0.51809 0.0
H744 H 0.08129 0.49741 0.7303 0.0
H745 H 0.09723 0.49143 0.67869 0.0
H746 H 0.05853 0.56682 0.65052 0.0
H747 H 0.04207 0.57254 0.70157 0.0
H748 H 0.05654 0.60812 0.36949 0.0
H749 H 0.06584 0.6348 0.42284 0.0
H750 H 0.11145 0.56472 0.45004 0.0
H751 H 0.10333 0.53897 0.39765 0.0
Tb752 Tb 0.8653 0.81477 0.30686 0.0
Tb753 Tb 0.80217 0.83592 0.3018 0.0
C754 C 0.80042 0.76347 0.31566 0.0
C755 C 0.93888 0.80164 0.29051 0.0
C756 C 0.98632 0.80482 0.25271 0.0
C757 C 0.97888 0.78052 0.27384 0.0
C758 C 0.95541 0.77902 0.29261 0.0
C759 C 0.946 0.82578 0.26928 0.0
C760 C 0.96965 0.82747 0.25065 0.0
C761 C 0.91423 0.79961 0.31042 0.0
O762 O 0.84449 0.79925 0.25867 0.0
O763 O 0.81133 0.83021 0.25386 0.0
O764 O 0.84186 0.88198 0.3016 0.0
O765 O 0.87652 0.85922 0.28259 0.0
O766 O 0.75514 0.82602 0.28574 0.0
O767 O 0.78146 0.87158 0.31523 0.0
O768 O 0.81252 0.83032 0.35033 0.0
O769 O 0.86498 0.84335 0.35087 0.0
O770 O 0.83014 0.77529 0.32559 0.0
O771 O 0.78689 0.78117 0.29997 0.0
C772 C 0.82654 0.81168 0.24156 0.0
O773 O 0.91277 0.82848 0.32205 0.0
O774 O 0.88679 0.77805 0.30012 0.0
C775 C 0.86664 0.88476 0.2876 0.0
C776 C 0.72922 0.84614 0.32275 0.0
C777 C 0.68271 0.83654 0.36267 0.0
C778 C 0.67857 0.84748 0.33353 0.0
C779 C 0.70172 0.85234 0.31377 0.0
C780 C 0.73319 0.83457 0.35154 0.0
C781 C 0.7102 0.82993 0.37137 0.0
C782 C 0.75398 0.85246 0.30244 0.0
C783 C 0.84046 0.84041 0.36553 0.0
H784 H 0.99149 0.76292 0.27613 0.0
H785 H 0.95018 0.76019 0.30883 0.0
H786 H 0.93328 0.84329 0.26709 0.0
H787 H 0.97458 0.84618 0.23433 0.0
H788 H 0.65773 0.85298 0.32628 0.0
H789 H 0.69829 0.86128 0.29162 0.0
H790 H 0.75419 0.8294 0.35881 0.0
H791 H 0.71387 0.821 0.39346 0.0
Tb792 Tb 0.81308 0.30098 0.83391 0.0
Tb793 Tb 0.84895 0.30044 0.77255 0.0
C794 C 0.78497 0.31445 0.76897 0.0
C795 C 0.79122 0.27725 0.9081 0.0
C796 C 0.80163 0.24096 0.95684 0.0
C797 C 0.78777 0.26601 0.96141 0.0
C798 C 0.78254 0.28403 0.93709 0.0
C799 C 0.80524 0.25246 0.90361 0.0
C800 C 0.81028 0.2344 0.92771 0.0
C801 C 0.78765 0.297 0.88274 0.0
O802 O 0.80914 0.24924 0.81869 0.0
O803 O 0.80804 0.25551 0.76769 0.0
O804 O 0.87401 0.28103 0.80695 0.0
O805 O 0.85949 0.30201 0.85088 0.0
O806 O 0.86075 0.27276 0.73656 0.0
O807 O 0.87822 0.32747 0.74223 0.0
O808 O 0.87236 0.34756 0.80147 0.0
O809 O 0.83072 0.35302 0.82359 0.0
O810 O 0.77982 0.30286 0.79591 0.0
O811 O 0.81191 0.31999 0.75808 0.0
C812 C 0.80085 0.23626 0.78992 0.0
O813 O 0.81283 0.32157 0.87898 0.0
O814 O 0.77405 0.27909 0.85667 0.0
C815 C 0.87784 0.28883 0.83702 0.0
C816 C 0.86396 0.30139 0.69218 0.0
C817 C 0.84491 0.31889 0.63516 0.0
C818 C 0.876 0.32116 0.64273 0.0
C819 C 0.88547 0.31257 0.67116 0.0
C820 C 0.83251 0.29671 0.68382 0.0
C821 C 0.82303 0.30537 0.65547 0.0
C822 C 0.87496 0.30016 0.72422 0.0
C823 C 0.858 0.36646 0.81417 0.0
H824 H 0.78077 0.27141 0.98365 0.0
H825 H 0.772 0.30336 0.94096 0.0
H826 H 0.81262 0.24732 0.8815 0.0
H827 H 0.82145 0.21566 0.92367 0.0
H828 H 0.89344 0.33189 0.6277 0.0
H829 H 0.90988 0.31664 0.67747 0.0
H830 H 0.81561 0.28825 0.69994 0.0
H831 H 0.7989 0.30312 0.65009 0.0
Tb832 Tb 0.82238 0.78754 0.79356 0.0
Tb833 Tb 0.85854 0.86344 0.81775 0.0
C834 C 0.83314 0.84139 0.7474 0.0
C835 C 0.81077 0.70339 0.75448 0.0
C836 C 0.85012 0.6668 0.74126 0.0
C837 C 0.855 0.69864 0.73043 0.0
C838 C 0.83561 0.71707 0.73737 0.0
C839 C 0.80295 0.66969 0.76082 0.0
C840 C 0.82249 0.65145 0.75429 0.0
C841 C 0.79887 0.72584 0.77277 0.0
O842 O 0.87188 0.7964 0.7807 0.0
O843 O 0.89891 0.85143 0.80007 0.0
O844 O 0.86757 0.83709 0.85665 0.0
O845 O 0.82571 0.78909 0.84412 0.0
O846 O 0.86373 0.91344 0.80999 0.0
O847 O 0.88772 0.90285 0.85037 0.0
O848 O 0.80884 0.85415 0.83022 0.0
O849 O 0.78228 0.79876 0.81205 0.0
O850 O 0.81217 0.81539 0.75638 0.0
O851 O 0.85629 0.86065 0.76729 0.0
C852 C 0.89867 0.82284 0.78456 0.0
O853 O 0.81443 0.7367 0.79993 0.0
O854 O 0.79328 0.75018 0.7593 0.0
C855 C 0.84758 0.8096 0.86469 0.0
C856 C 0.86574 0.94636 0.85527 0.0
C857 C 0.82189 0.97633 0.8704 0.0
C858 C 0.8212 0.94573 0.88167 0.0
C859 C 0.84294 0.93066 0.874 0.0
C860 C 0.86902 0.9791 0.84775 0.0
C861 C 0.84722 0.9941 0.85534 0.0
C862 C 0.87954 0.92574 0.83683 0.0
C863 C 0.7823 0.82745 0.82695 0.0
H864 H 0.87549 0.71069 0.71941 0.0
H865 H 0.84186 0.74311 0.7321 0.0
H866 H 0.78383 0.65882 0.77403 0.0
H867 H 0.8177 0.62699 0.76296 0.0
H868 H 0.80217 0.93203 0.89386 0.0
H869 H 0.83997 0.90533 0.88006 0.0
H870 H 0.88635 0.99147 0.83314 0.0
H871 H 0.84823 0.01774 0.84634 0.0
Tb872 Tb 0.62126 0.59272 0.5768 0.0
Tb873 Tb 0.56246 0.54493 0.5281 0.0
C874 C 0.55282 0.57241 0.59358 0.0
C875 C 0.7013 0.62299 0.6077 0.0
C876 C 0.75051 0.5985 0.59847 0.0
C877 C 0.74384 0.60569 0.62851 0.0
C878 C 0.71922 0.61761 0.63306 0.0
C879 C 0.70983 0.61883 0.57806 0.0
C880 C 0.73399 0.60661 0.57345 0.0
C881 C 0.67045 0.62551 0.61097 0.0
O882 O 0.62558 0.54196 0.57231 0.0
O883 O 0.57424 0.51151 0.55921 0.0
O884 O 0.60384 0.54306 0.5086 0.0
O885 O 0.63596 0.59479 0.53123 0.0
O886 O 0.52314 0.50106 0.51913 0.0
O887 O 0.53765 0.53385 0.48372 0.0
O888 O 0.56802 0.5975 0.51939 0.0
O889 O 0.59624 0.62711 0.56469 0.0
O890 O 0.58219 0.57845 0.60333 0.0
O891 O 0.54153 0.56385 0.56454 0.0
C892 C 0.60234 0.51309 0.57002 0.0
O893 O 0.65872 0.6382 0.58871 0.0
O894 O 0.65018 0.59791 0.61808 0.0
C895 C 0.62965 0.56895 0.51025 0.0
C896 C 0.48454 0.51642 0.49203 0.0
C897 C 0.44214 0.54556 0.51359 0.0
C898 C 0.46069 0.56008 0.49091 0.0
C899 C 0.48175 0.54563 0.48019 0.0
C900 C 0.46234 0.49895 0.51066 0.0
C901 C 0.44151 0.51362 0.52167 0.0
C902 C 0.51458 0.51037 0.49309 0.0
C903 C 0.57885 0.62555 0.53868 0.0
H904 H 0.75653 0.60046 0.64839 0.0
H905 H 0.71294 0.6205 0.65613 0.0
H906 H 0.69633 0.62252 0.55803 0.0
H907 H 0.7379 0.60107 0.54994 0.0
H908 H 0.46079 0.5841 0.48336 0.0
H909 H 0.49796 0.55936 0.4652 0.0
H910 H 0.46355 0.47605 0.51974 0.0
H911 H 0.42724 0.50153 0.53883 0.0
Tb912 Tb 0.04774 0.56504 0.0588 0.0
Tb913 Tb 0.1151 0.57434 0.03194 0.0
C914 C 0.1 0.54677 0.09526 0.0
C915 C 0.97858 0.58472 0.07811 0.0
C916 C 0.94349 0.62867 0.07805 0.0
C917 C 0.93453 0.59927 0.09341 0.0
C918 C 0.9519 0.57742 0.09334 0.0
C919 C 0.98792 0.61428 0.06317 0.0
C920 C 0.97045 0.63599 0.06301 0.0
C921 C 0.99613 0.56108 0.07709 0.0
O922 O 0.07938 0.61557 0.07811 0.0
O923 O 0.11658 0.62616 0.04434 0.0
O924 O 0.08405 0.58005 0.99384 0.0
O925 O 0.05014 0.59615 0.0217 0.0
O926 O 0.16389 0.59477 0.0382 0.0
O927 O 0.13969 0.56121 0.99764 0.0
O928 O 0.09198 0.5199 0.03163 0.0
O929 O 0.04139 0.51818 0.02901 0.0
O930 O 0.07002 0.5383 0.08769 0.0
O931 O 0.12019 0.56806 0.08049 0.0
C932 C 0.1026 0.63669 0.06602 0.0
O933 O 0.99928 0.54964 0.04951 0.0
O934 O 1.02216 0.57022 0.09534 0.0
C935 C 0.06212 0.59359 0.99603 0.0
C936 C 0.1851 0.5541 0.0202 0.0
C937 C 0.21995 0.51097 0.03106 0.0
C938 C 0.23175 0.53971 0.0153 0.0
C939 C 0.21439 0.56105 0.00982 0.0
C940 C 0.1735 0.52582 0.03641 0.0
C941 C 0.19068 0.50438 0.04167 0.0
C942 C 0.16645 0.57605 0.01419 0.0
C943 C 0.06211 0.50291 0.02608 0.0
H944 H 0.91373 0.59279 0.10498 0.0
H945 H 0.94434 0.55468 0.10493 0.0
H946 H 1.00862 0.62044 0.05144 0.0
H947 H 0.97816 0.65863 0.05132 0.0
H948 H 0.25413 0.54531 0.00666 0.0
H949 H 0.22373 0.58281 0.99734 0.0
H950 H 0.15108 0.52025 0.04494 0.0
H951 H 0.18114 0.48275 0.05425 0.0
C952 C 0.03994 0.18759 0.00939 0.0
C953 C 0.06502 0.2182 0.01034 0.0
H954 H 1.02494 0.13487 0.01726 0.0
C955 C 0.09487 0.2182 0.02114 0.0
H956 H 1.01664 0.18638 1.00113 0.0
C957 C 0.09965 0.18878 0.03026 0.0
C958 C 0.0748 0.15802 0.02896 0.0
H959 H 0.11489 0.24105 0.02231 0.0
H960 H 0.12312 0.19023 0.03816 0.0
C961 C 0.04476 0.15793 0.01856 0.0
C962 C 0.23361 0.83963 0.21229 0.0
C963 C 0.20217 0.8238 0.21635 0.0
H964 H 0.28144 0.84869 0.22919 0.0
C965 C 0.19534 0.80566 0.24208 0.0
H966 H 0.23972 0.85367 0.19266 0.0
C967 C 0.21898 0.80308 0.263 0.0
C968 C 0.25044 0.81826 0.25886 0.0
H969 H 0.17148 0.79322 0.24615 0.0
H970 H 0.2124 0.78863 0.28229 0.0
C971 C 0.2575 0.83668 0.2332 0.0
C972 C 0.56586 0.90944 0.52169 0.0
C973 C 0.53762 0.89473 0.50255 0.0
H974 H 0.59779 0.95447 0.54798 0.0
C975 C 0.51878 0.91478 0.49707 0.0
H976 H 0.58106 0.8949 0.52616 0.0
C977 C 0.52807 0.94872 0.50991 0.0
C978 C 0.55686 0.96392 0.52803 0.0
H979 H 0.49688 0.9043 0.48242 0.0
H980 H 0.5131 0.96336 0.50479 0.0
C981 C 0.57552 0.94371 0.53399 0.0
C982 C 0.53584 0.28551 0.69419 0.0
C983 C 0.56141 0.3151 0.69342 0.0
H984 H 0.49367 0.2621 0.71356 0.0
C985 C 0.56384 0.34444 0.71258 0.0
H986 H 0.53321 0.26249 0.67969 0.0
C987 C 0.54105 0.34421 0.73193 0.0
C988 C 0.51556 0.31455 0.73273 0.0
H989 H 0.58323 0.36766 0.7125 0.0
H990 H 0.54356 0.36712 0.74654 0.0
C991 C 0.51324 0.28521 0.7137 0.0
C992 C 0.08797 0.9451 0.63917 0.0
C993 C 0.09836 0.91963 0.62535 0.0
H994 H 0.08008 0.99326 0.63643 0.0
C995 C 0.1093 0.92654 0.59618 0.0
H996 H 0.0793 0.94194 0.66136 0.0
C997 C 0.10981 0.95619 0.58175 0.0
C998 C 0.09947 0.98163 0.59527 0.0
H999 H 0.11768 0.90859 0.58391 0.0
H1000 H 0.11837 0.95899 0.55948 0.0
C1001 C 0.08852 0.97509 0.62458 0.0
C1002 C 0.48849 0.82899 0.84672 0.0
C1003 C 0.49002 0.81212 0.87358 0.0
H1004 H 0.46038 0.84496 0.81237 0.0
C1005 C 0.46061 0.79739 0.88448 0.0
H1006 H 0.50979 0.84141 0.83711 0.0
C1007 C 0.43205 0.79934 0.87019 0.0
C1008 C 0.43031 0.81671 0.8439 0.0
H1009 H 0.45949 0.78414 0.90487 0.0
H1010 H 0.411 0.78731 0.88038 0.0
C1011 C 0.45961 0.83131 0.83246 0.0
C1012 C 0.5772 0.21961 0.11575 0.0
C1013 C 0.58186 0.22252 0.14843 0.0
H1014 H 0.5736 0.18937 0.07224 0.0
C1015 C 0.58609 0.19376 0.16094 0.0
H1016 H 0.57394 0.24047 0.10448 0.0
C1017 C 0.58594 0.16432 0.14243 0.0
C1018 C 0.58156 0.16129 0.10988 0.0
H1019 H 0.58981 0.19384 0.18568 0.0
H1020 H 0.58949 0.14373 0.15395 0.0
C1021 C 0.57706 0.18984 0.09704 0.0
C1022 C 0.21447 0.34695 0.36341 0.0
C1023 C 0.19122 0.31482 0.36539 0.0
H1024 H 0.25997 0.37554 0.34997 0.0
C1025 C 0.19913 0.28696 0.35249 0.0
H1026 H 0.21096 0.36968 0.37311 0.0
C1027 C 0.22733 0.29031 0.33906 0.0
C1028 C 0.25097 0.32192 0.33744 0.0
H1029 H 0.1832 0.26148 0.35302 0.0
H1030 H 0.23076 0.2672 0.33025 0.0
C1031 C 0.24336 0.35035 0.35003 0.0
C1032 C 0.04181 0.12682 0.17101 0.0
C1033 C 1.0134 0.10323 0.17623 0.0
H1034 H 0.0794 0.13879 0.14359 0.0
C1035 C 0.99985 0.07378 0.15541 0.0
H1036 H 0.0528 0.1498 0.18653 0.0
C1037 C 1.01522 0.06732 0.13072 0.0
C1038 C 0.04441 0.09018 0.12647 0.0
H1039 H 0.97789 0.05513 0.15877 0.0
H1040 H 1.00457 0.04406 0.11549 0.0
C1041 C 0.05715 0.12036 0.14644 0.0
C1042 C 0.32458 0.71036 0.53032 0.0
C1043 C 0.31555 0.67481 0.5274 0.0
H1044 H 0.31998 0.75415 0.51121 0.0
C1045 C 0.29402 0.65594 0.50246 0.0
H1046 H 0.34103 0.72558 0.54939 0.0
C1047 C 0.2816 0.67224 0.48097 0.0
C1048 C 0.29056 0.70777 0.48386 0.0
H1049 H 0.28631 0.62849 0.49973 0.0
H1050 H 0.26478 0.65699 0.46217 0.0
C1051 C 0.31221 0.7267 0.50872 0.0
C1052 C 0.60537 0.99724 0.6819 0.0
C1053 C 0.63733 1.00486 0.69059 0.0
H1054 H 0.57032 1.00413 0.6503 0.0
C1055 C 0.65862 0.02322 0.67164 0.0
H1056 H 0.58835 0.98316 0.69599 0.0
C1057 C 0.64831 0.03554 0.64565 0.0
C1058 C 0.61647 0.02968 0.63799 0.0
H1059 H 0.68339 0.02939 0.67759 0.0
H1060 H 0.66542 0.05034 0.63202 0.0
C1061 C 0.59504 1.00957 0.65586 0.0
C1062 C 0.37599 0.36326 0.94889 0.0
C1063 C 0.3506 0.36237 0.96525 0.0
H1064 H 0.39288 0.35844 0.90536 0.0
C1065 C 0.3212 0.35421 0.94804 0.0
H1066 H 0.39905 0.36938 0.961 0.0
C1067 C 0.31763 0.34786 0.91549 0.0
C1068 C 0.34336 0.34961 0.89924 0.0
H1069 H 0.3011 0.35347 0.95962 0.0
H1070 H 0.29476 0.34207 0.90305 0.0
C1071 C 0.37246 0.35706 0.91665 0.0
C1072 C 0.04986 0.03582 0.30037 0.0
C1073 C 0.04842 0.06794 0.29576 0.0
H1074 H 0.06745 1.00631 0.32913 0.0
C1075 C 0.06904 0.09653 0.31407 0.0
H1076 H 0.03413 1.01331 0.28654 0.0
C1077 C 0.08954 0.09279 0.33792 0.0
C1078 C 0.08877 0.06024 0.34481 0.0
H1079 H 0.06869 0.12166 0.3105 0.0
H1080 H 0.10486 0.11543 0.35178 0.0
C1081 C 0.06944 0.03192 0.32483 0.0
C1082 C 0.36081 0.71157 0.7076 0.0
C1083 C 0.36913 0.7262 0.68037 0.0
H1084 H 0.34832 0.71854 0.75292 0.0
C1085 C 0.3735 0.76076 0.67916 0.0
H1086 H 0.35734 0.685 0.70927 0.0
C1087 C 0.36795 0.77984 0.70399 0.0
C1088 C 0.35819 0.76483 0.73064 0.0
H1089 H 0.37992 0.77282 0.65855 0.0
H1090 H 0.37074 0.8062 0.70199 0.0
C1091 C 0.35547 0.73074 0.73255 0.0
C1092 C 0.59166 0.03737 0.81336 0.0
C1093 C 0.6147 0.0626 0.8013 0.0
H1094 H 0.55956 0.02602 0.84681 0.0
C1095 C 0.61962 0.09679 0.81044 0.0
H1096 H 0.58715 1.0108 0.80607 0.0
C1097 C 0.60494 0.10556 0.83466 0.0
C1098 C 0.58462 0.08017 0.84955 0.0
H1099 H 0.63728 0.11668 0.80129 0.0
H1100 H 0.61217 0.13205 0.84354 0.0
C1101 C 0.57614 0.04616 0.83683 0.0
C1102 C 0.34959 0.37451 0.17005 0.0
C1103 C 0.32136 0.36113 0.15058 0.0
H1104 H 0.3734 0.37975 0.21562 0.0
C1105 C 0.29496 0.3416 0.16353 0.0
H1106 H 0.37036 0.38994 0.16119 0.0
C1107 C 0.29676 0.33534 0.19472 0.0
C1108 C 0.32484 0.3492 0.21435 0.0
H1109 H 0.27274 0.33093 0.14945 0.0
H1110 H 0.27599 0.31983 0.20353 0.0
C1111 C 0.35122 0.36895 0.20148 0.0
C1112 C 0.26944 1.01458 0.06269 0.0
C1113 C 0.30203 0.02727 0.06697 0.0
H1114 H 0.22727 0.02318 0.07081 0.0
C1115 C 0.31728 0.05947 0.08327 0.0
H1116 H 0.25701 0.98987 0.05026 0.0
C1117 C 0.30016 0.07864 0.09503 0.0
C1118 C 0.26759 0.06561 0.09107 0.0
H1119 H 0.34241 0.06991 0.08686 0.0
H1120 H 0.31231 0.10344 0.1074 0.0
C1121 C 0.25241 0.03349 0.07472 0.0
C1122 C 0.72398 0.6618 0.04013 0.0
C1123 C 0.74197 0.67267 0.0689 0.0
H1124 H 0.68041 0.63157 0.01524 0.0
C1125 C 0.72896 0.6599 0.09534 0.0
H1126 H 0.73329 0.67098 0.01931 0.0
C1127 C 0.69838 0.63731 0.09308 0.0
C1128 C 0.68031 0.62676 0.06429 0.0
H1129 H 0.74221 0.66779 0.11789 0.0
H1130 H 0.68885 0.62839 0.11389 0.0
C1131 C 0.69362 0.63903 0.03784 0.0
C1132 C 0.77895 0.51273 0.27745 0.0
C1133 C 0.78219 0.53127 0.30616 0.0
H1134 H 0.79887 0.48578 0.24731 0.0
C1135 C 0.8106 0.54127 0.325 0.0
H1136 H 0.75721 0.50497 0.26249 0.0
C1137 C 0.83516 0.53177 0.31573 0.0
C1138 C 0.83135 0.51097 0.28794 0.0
H1139 H 0.8138 0.55639 0.34695 0.0
H1140 H 0.85676 0.53986 0.33086 0.0
C1141 C 0.80312 0.50225 0.26858 0.0
C1142 C 0.94452 0.51669 0.54707 0.0
C1143 C 0.93223 0.49857 0.51798 0.0
H1144 H 0.9854 0.5462 0.57694 0.0
C1145 C 0.95244 0.4973 0.49597 0.0
H1146 H 0.92946 0.51801 0.56452 0.0
C1147 C 0.9844 0.51384 0.50294 0.0
C1148 C 0.99673 0.53142 0.53223 0.0
H1149 H 0.94357 0.48364 0.47332 0.0
H1150 H 0.99946 0.51232 0.48556 0.0
C1151 C 0.97652 0.53272 0.55423 0.0
C1152 C 0.36279 0.1013 0.32818 0.0
C1153 C 0.37769 0.0846 0.30939 0.0
H1154 H 0.33228 0.13013 0.32999 0.0
C1155 C 0.37055 0.08108 0.27723 0.0
H1156 H 0.3677 0.10398 0.35305 0.0
C1157 C 0.35043 0.09627 0.264 0.0
C1158 C 0.33672 0.11438 0.28285 0.0
H1159 H 0.38175 0.06819 0.2623 0.0
H1160 H 0.34652 0.09506 0.23914 0.0
C1161 C 0.34226 0.11585 0.31501 0.0
C1162 C 0.4049 0.18175 0.5546 0.0
C1163 C 0.39239 0.19088 0.58071 0.0
H1164 H 0.43244 0.15423 0.53596 0.0
C1165 C 0.39886 0.17893 0.60878 0.0
H1166 H 0.40037 0.1905 0.53263 0.0
C1167 C 0.41712 0.15811 0.61065 0.0
C1168 C 0.42958 0.14891 0.58457 0.0
H1169 H 0.38965 0.18547 0.62938 0.0
H1170 H 0.42173 0.14945 0.63265 0.0
C1171 C 0.4234 0.16112 0.55654 0.0
C1172 C 0.73126 0.68528 0.32129 0.0
C1173 C 0.7453 0.66499 0.33675 0.0
H1174 H 0.73765 0.73225 0.30238 0.0
C1175 C 0.77747 0.67766 0.34589 0.0
H1176 H 0.70652 0.67624 0.31395 0.0
C1177 C 0.79536 0.70971 0.33917 0.0
C1178 C 0.78143 0.72975 0.32315 0.0
H1179 H 0.78899 0.66264 0.35786 0.0
H1180 H 0.82014 0.71859 0.34628 0.0
C1181 C 0.74915 0.71734 0.31453 0.0
C1182 C 0.88041 0.45985 0.84096 0.0
C1183 C 0.89948 0.47421 0.81863 0.0
H1184 H 0.85167 0.41398 0.85675 0.0
C1185 C 0.90473 0.45298 0.79506 0.0
H1186 H 0.87609 0.4758 0.85936 0.0
C1187 C 0.89153 0.41793 0.79404 0.0
C1188 C 0.87227 0.40348 0.81615 0.0
H1189 H 0.91958 0.46342 0.77772 0.0
H1190 H 0.8961 0.40214 0.77565 0.0
C1191 C 0.86649 0.42464 0.83946 0.0
C1192 C 0.09375 0.92116 0.07553 0.0
C1193 C 0.1173 0.92161 0.09857 0.0
H1194 H 0.0716 0.94954 0.04916 0.0
C1195 C 0.1376 0.95347 0.11236 0.0
H1196 H 0.07762 0.89727 0.06432 0.0
C1197 C 0.13374 0.98385 0.10396 0.0
C1198 C 0.10984 0.98319 0.08114 0.0
H1199 H 0.15587 0.95493 0.13033 0.0
H1200 H 0.14943 1.00782 0.11543 0.0
C1201 C 0.09027 0.95133 0.0668 0.0
C1202 C 0.95436 0.27476 0.859 0.0
C1203 C 0.95746 0.27948 0.89141 0.0
H1204 H 0.92703 0.27371 0.81657 0.0
C1205 C 0.9332 0.28539 0.90585 0.0
H1206 H 0.97249 0.27006 0.84703 0.0
C1207 C 0.90708 0.28776 0.88826 0.0
C1208 C 0.90445 0.284 0.85579 0.0
H1209 H 0.93481 0.28922 0.93074 0.0
H1210 H 0.88915 0.29304 0.90014 0.0
C1211 C 0.92819 0.27683 0.84145 0.0
C1212 C 0.65781 0.22859 0.59076 0.0
C1213 C 0.63733 0.24357 0.60281 0.0
H1214 H 0.66509 0.18289 0.57383 0.0
C1215 C 0.60733 0.22227 0.60693 0.0
H1216 H 0.68111 0.24411 0.58734 0.0
C1217 C 0.59834 0.18692 0.59979 0.0
C1218 C 0.61892 0.17198 0.58783 0.0
H1219 H 0.59102 0.23282 0.61641 0.0
H1220 H 0.57514 0.1713 0.60341 0.0
C1221 C 0.64864 0.19339 0.58308 0.0
C1222 C 0.60448 0.81194 0.39389 0.0
C1223 C 0.6131 0.82374 0.42533 0.0
H1224 H 0.61969 0.80663 0.34947 0.0
C1225 C 0.64473 0.84012 0.43589 0.0
H1226 H 0.58031 0.79922 0.385 0.0
C1227 C 0.66725 0.84427 0.41555 0.0
C1228 C 0.65865 0.83236 0.38414 0.0
H1229 H 0.65219 0.84956 0.45994 0.0
H1230 H 0.69142 0.85711 0.42437 0.0
C1231 C 0.627 0.81632 0.37349 0.0
C1232 C 0.08321 0.17613 0.44338 0.0
C1233 C 0.08807 0.20988 0.45643 0.0
H1234 H 0.07884 0.12417 0.44913 0.0
C1235 C 0.09213 0.21411 0.48925 0.0
H1236 H 0.07987 0.1704 0.41858 0.0
C1237 C 0.09159 0.18645 0.50738 0.0
C1238 C 0.08689 0.15278 0.49393 0.0
H1239 H 0.09607 0.23894 0.50111 0.0
H1240 H 0.09518 0.19169 0.53223 0.0
C1241 C 0.08261 0.14882 0.46129 0.0
C1242 C 0.71537 0.35902 0.24341 0.0
C1243 C 0.68846 0.32921 0.23952 0.0
H1244 H 0.76495 0.38316 0.25822 0.0
C1245 C 0.69435 0.30016 0.24954 0.0
H1246 H 0.7134 0.38195 0.23511 0.0
C1247 C 0.72433 0.30075 0.26284 0.0
C1248 C 0.75138 0.33027 0.26645 0.0
H1249 H 0.67552 0.27608 0.24627 0.0
H1250 H 0.7264 0.27724 0.26961 0.0
C1251 C 0.74568 0.35955 0.25647 0.0
C1252 C 0.60007 0.95458 0.94993 0.0
C1253 C 0.59664 0.92296 0.96163 0.0
H1254 H 0.60133 1.00648 0.95737 0.0
C1255 C 0.59179 0.92224 0.99315 0.0
H1256 H 0.60375 0.95717 0.92603 0.0
C1257 C 0.58988 0.95124 0.01145 0.0
C1258 C 0.5931 0.98275 0.99943 0.0
H1259 H 0.58859 0.89894 1.0036 0.0
H1260 H 0.58567 0.94882 0.03525 0.0
C1261 C 0.5986 0.98347 0.96818 0.0
C1262 C 0.95508 0.79001 0.73576 0.0
C1263 C 0.98481 0.8164 0.73932 0.0
H1264 H 0.90725 0.77046 0.74585 0.0
C1265 C 0.98559 0.84516 0.7594 0.0
H1266 H 0.95185 0.76709 0.72087 0.0
C1267 C 0.9587 0.84721 0.77398 0.0
C1268 C 0.92895 0.82063 0.76997 0.0
H1269 H 1.00682 0.86681 0.76327 0.0
H1270 H 0.96131 0.87027 0.78838 0.0
C1271 C 0.9286 0.7919 0.75045 0.0
C1272 C 0.18538 0.0647 0.95736 0.0
C1273 C 0.17604 0.0781 0.93134 0.0
H1274 H 0.17611 0.05124 1.00275 0.0
C1275 C 0.14917 0.08711 0.93059 0.0
H1276 H 0.20606 0.05758 0.95834 0.0
C1277 C 0.13176 0.0827 0.95538 0.0
C1278 C 0.14132 0.06996 0.98168 0.0
H1279 H 0.14134 0.0972 0.91064 0.0
H1280 H 0.11117 0.09 0.9542 0.0
C1281 C 0.16833 0.06111 0.98263 0.0
C1282 C 0.84507 0.35242 0.55743 0.0
C1283 C 0.83011 0.37635 0.56238 0.0
H1284 H 0.86121 0.31494 0.57666 0.0
C1285 C 0.81666 0.37796 0.58979 0.0
H1286 H 0.85553 0.35046 0.53644 0.0
C1287 C 0.8198 0.35757 0.61266 0.0
C1288 C 0.83658 0.33526 0.60861 0.0
H1289 H 0.80481 0.396 0.59417 0.0
H1290 H 0.81069 0.3608 0.63425 0.0
C1291 C 0.84841 0.33215 0.58044 0.0
C1292 C 0.55486 0.10377 0.42723 0.0
C1293 C 0.52744 0.1117 0.42779 0.0
H1294 H 0.58996 0.09045 0.45326 0.0
C1295 C 0.51725 0.11795 0.45613 0.0
H1296 H 0.56319 0.09879 0.40559 0.0
C1297 C 0.53258 0.11333 0.48332 0.0
C1298 C 0.55812 0.10191 0.48256 0.0
H1299 H 0.4963 0.12437 0.45712 0.0
H1300 H 0.52312 0.1167 0.50467 0.0
C1301 C 0.57001 0.09867 0.45446 0.0
C1302 C 0.84368 0.78901 0.16013 0.0
C1303 C 0.81924 0.79374 0.1414 0.0
H1304 H 0.86494 0.79034 0.2061 0.0
C1305 C 0.79772 0.8051 0.15601 0.0
H1306 H 0.86056 0.78 0.14985 0.0
C1307 C 0.80031 0.81122 0.18826 0.0
C1308 C 0.82421 0.80563 0.20708 0.0
H1309 H 0.77851 0.80893 0.14247 0.0
H1310 H 0.78312 0.81976 0.19848 0.0
C1311 C 0.84601 0.79464 0.1925 0.0
C1312 C 0.15027 0.03954 0.76529 0.0
C1313 C 0.14075 0.04623 0.79395 0.0
H1314 H 0.1463 0.04432 0.71706 0.0
C1315 C 0.11666 0.05989 0.79517 0.0
H1316 H 0.16857 0.02872 0.76364 0.0
C1317 C 0.1043 0.0695 0.76851 0.0
C1318 C 0.11572 0.06536 0.74027 0.0
H1319 H 0.10895 0.06546 0.81699 0.0
H1320 H 0.08725 0.08204 0.77041 0.0
C1321 C 0.13776 0.04884 0.7387 0.0
C1322 C 0.84409 0.4491 0.40218 0.0
C1323 C 0.82564 0.43632 0.42542 0.0
H1324 H 0.86163 0.43773 0.36071 0.0
C1325 C 0.80801 0.40157 0.42257 0.0
H1326 H 0.85794 0.47572 0.40364 0.0
C1327 C 0.81015 0.37974 0.39789 0.0
C1328 C 0.83009 0.39219 0.37566 0.0
H1329 H 0.79345 0.39094 0.44005 0.0
H1330 H 0.79702 0.35295 0.3969 0.0
C1331 C 0.84639 0.42723 0.37764 0.0
C1332 C 0.5035 1.00616 0.28815 0.0
C1333 C 0.49967 0.03694 0.29801 0.0
H1334 H 0.5189 0.97874 0.25361 0.0
C1335 C 0.51051 0.06484 0.2812 0.0
H1336 H 0.49523 0.98421 0.30065 0.0
C1337 C 0.52432 0.06184 0.25458 0.0
C1338 C 0.5273 0.03078 0.2441 0.0
H1339 H 0.50816 0.08901 0.28848 0.0
H1340 H 0.53258 0.08384 0.24215 0.0
C1341 C 0.51712 1.00306 0.26132 0.0
C1342 C 0.82282 0.77627 0.94116 0.0
C1343 C 0.85044 0.79037 0.96146 0.0
H1344 H 0.80039 0.77048 0.8949 0.0
C1345 C 0.87702 0.81094 0.9495 0.0
H1346 H 0.80195 0.76007 0.94932 0.0
C1347 C 0.87604 0.81729 0.91838 0.0
C1348 C 0.84866 0.80258 0.89789 0.0
H1349 H 0.89876 0.82222 0.96428 0.0
H1350 H 0.89698 0.8334 0.91025 0.0
C1351 C 0.82203 0.78198 0.90979 0.0
C1352 C 0.91071 0.10967 0.04835 0.0
C1353 C 0.88959 0.09919 0.06997 0.0
H1354 H 0.93952 0.09595 0.01793 0.0
C1355 C 0.8795 0.06503 0.07585 0.0
H1356 H 0.91871 0.13575 0.04313 0.0
C1357 C 0.89122 0.04204 0.06109 0.0
C1358 C 0.91296 0.05282 0.04005 0.0
H1359 H 0.863 0.05618 0.09224 0.0
H1360 H 0.88385 1.01606 0.06661 0.0
C1361 C 0.92222 0.08672 0.0335 0.0
C1362 C 0.45109 0.46803 0.04863 0.0
C1363 C 0.43093 0.48443 0.05889 0.0
H1364 H 0.49655 0.47318 0.03672 0.0
C1365 C 0.44204 0.52001 0.06473 0.0
H1366 H 0.44327 0.4407 0.04371 0.0
C1367 C 0.47274 0.53871 0.06082 0.0
C1368 C 0.49289 0.52226 0.05063 0.0
H1369 H 0.42711 0.53345 0.0726 0.0
H1370 H 0.48071 0.56603 0.06594 0.0
C1371 C 0.48162 0.48672 0.0444 0.0
C1372 C 0.43492 0.66301 0.83264 0.0
C1373 C 0.42931 0.63539 0.81031 0.0
H1374 H 0.41548 0.69537 0.85737 0.0
C1375 C 0.3986 0.61626 0.79851 0.0
H1376 H 0.45845 0.678 0.84217 0.0
C1377 C 0.37391 0.62524 0.80803 0.0
C1378 C 0.37941 0.65421 0.8289 0.0
H1379 H 0.3936 0.5943 0.7818 0.0
H1380 H 0.35053 0.6099 0.79839 0.0
C1381 C 0.41021 0.67262 0.8416 0.0
C1382 C 0.23016 0.59611 0.59737 0.0
C1383 C 0.24756 0.63076 0.60018 0.0
H1384 H 0.18615 0.55776 0.58352 0.0
C1385 C 0.23319 0.65383 0.59066 0.0
H1386 H 0.24066 0.57775 0.60434 0.0
C1387 C 0.20201 0.64235 0.57828 0.0
C1388 C 0.18465 0.60767 0.57554 0.0
H1389 H 0.24614 0.68071 0.59223 0.0
H1390 H 0.19147 0.66062 0.57117 0.0
C1391 C 0.19898 0.58469 0.58529 0.0
C1392 C 0.74142 0.97126 0.8401 0.0
C1393 C 0.74335 1.00527 0.84514 0.0
H1394 H 0.76484 0.93532 0.84523 0.0
C1395 C 0.76938 0.02863 0.86337 0.0
H1396 H 0.72153 0.95276 0.82627 0.0
C1397 C 0.7944 0.01877 0.8739 0.0
C1398 C 0.79332 0.98524 0.86704 0.0
H1399 H 0.77146 0.05506 0.86759 0.0
H1400 H 0.81522 0.03768 0.8859 0.0
C1401 C 0.76609 0.96125 0.85122 0.0
C1402 C 0.79143 0.97224 0.55603 0.0
C1403 C 0.77769 0.93757 0.54551 0.0
H1404 H 0.78559 0.02075 0.56184 0.0
C1405 C 0.74642 0.92527 0.53269 0.0
H1406 H 0.81549 0.98256 0.56601 0.0
C1407 C 0.72929 0.94722 0.53038 0.0
C1408 C 0.74318 0.98194 0.54058 0.0
H1409 H 0.73517 0.89872 0.52434 0.0
H1410 H 0.7053 0.93713 0.52012 0.0
C1411 C 0.7744 0.99419 0.55347 0.0
C1412 C 0.428 0.46922 0.7635 0.0
C1413 C 0.41162 0.49206 0.76085 0.0
H1414 H 0.42687 0.42003 0.77448 0.0
C1415 C 0.38052 0.48201 0.76691 0.0
H1416 H 0.45203 0.4763 0.75897 0.0
C1417 C 0.36628 0.45004 0.77619 0.0
C1418 C 0.38275 0.42733 0.77926 0.0
H1419 H 0.36732 0.49908 0.76519 0.0
H1420 H 0.34233 0.44317 0.78092 0.0
C1421 C 0.41363 0.43705 0.77246 0.0
C1422 C 0.26156 0.65572 0.24788 0.0
C1423 C 0.2425 0.6344 0.26681 0.0
H1424 H 0.29286 0.70549 0.2437 0.0
C1425 C 0.24107 0.64719 0.29696 0.0
H1426 H 0.26311 0.64649 0.22454 0.0
C1427 C 0.25832 0.68063 0.30801 0.0
C1428 C 0.27709 0.70215 0.28904 0.0
H1429 H 0.22675 0.6313 0.31219 0.0
H1430 H 0.25651 0.68972 0.3313 0.0
C1431 C 0.27856 0.68944 0.25884 0.0
C1432 C 0.54142 0.68425 0.49989 0.0
C1433 C 0.55849 0.71627 0.5159 0.0
H1434 H 0.53446 0.63078 0.49413 0.0
C1435 C 0.58154 0.71771 0.5399 0.0
H1436 H 0.52359 0.682 0.48121 0.0
C1437 C 0.58768 0.6884 0.54742 0.0
C1438 C 0.57128 0.65651 0.53096 0.0
H1439 H 0.59522 0.74173 0.55286 0.0
H1440 H 0.60581 0.69094 0.56589 0.0
C1441 C 0.54785 0.65484 0.5072 0.0
C1442 C 0.70403 0.31367 0.74064 0.0
C1443 C 0.70839 0.32841 0.71282 0.0
H1444 H 0.72433 0.29807 0.78 0.0
C1445 C 0.73859 0.33975 0.70399 0.0
H1446 H 0.68116 0.30471 0.74828 0.0
C1447 C 0.76359 0.33556 0.72222 0.0
C1448 C 0.75902 0.32035 0.74989 0.0
H1449 H 0.74274 0.35101 0.68262 0.0
H1450 H 0.78643 0.34396 0.71445 0.0
C1451 C 0.72892 0.30987 0.75895 0.0
C1452 C 1.0115 0.41144 0.99796 0.0
C1453 C 1.03304 0.394 0.99981 0.0
H1454 H 1.00347 0.45889 1.00475 0.0
C1455 C 0.06405 0.41264 0.01126 0.0
H1456 H 0.98739 0.39804 0.98926 0.0
C1457 C 0.07337 0.44781 0.0198 0.0
C1458 C 0.05188 0.46534 0.01743 0.0
H1459 H 0.08135 0.40025 0.01286 0.0
H1460 H 0.09756 0.4613 0.02812 0.0
C1461 C 1.02073 0.44648 0.00679 0.0
C1462 C 0.03678 0.77776 0.19929 0.0
C1463 C 0.05884 0.80901 0.19502 0.0
H1464 H 0.99656 0.75198 0.22068 0.0
C1465 C 0.05683 0.83895 0.20983 0.0
H1466 H 0.0376 0.75421 0.18819 0.0
C1467 C 1.03322 0.83763 0.22842 0.0
C1468 C 1.01127 0.80635 0.23278 0.0
H1469 H 0.07344 0.86344 0.20701 0.0
H1470 H 1.03238 0.86108 0.23972 0.0
C1471 C 1.01334 0.77644 0.21804 0.0
C1472 C 0.59763 0.42628 0.09825 0.0
C1473 C 0.59207 0.42094 0.12931 0.0
H1474 H 0.60207 0.45787 0.06095 0.0
C1475 C 0.58684 0.44849 0.14615 0.0
H1476 H 0.60185 0.40669 0.08365 0.0
C1477 C 0.58679 0.47884 0.13248 0.0
C1478 C 0.5922 0.48371 0.1012 0.0
H1479 H 0.58228 0.44651 0.1699 0.0
H1480 H 0.58231 0.49859 0.14661 0.0
C1481 C 0.5978 0.45635 0.08481 0.0
C1482 C 0.99124 0.33029 0.34613 0.0
C1483 C 0.99304 0.31532 0.37411 0.0
H1484 H 0.96315 0.34539 0.31107 0.0
C1485 C 0.96402 0.30315 0.38636 0.0
H1486 H 1.01227 0.34081 0.33546 0.0
C1487 C 0.9356 0.30569 0.37227 0.0
C1488 C 0.93364 0.32123 0.34484 0.0
H1489 H 0.96314 0.29158 0.40769 0.0
H1490 H 0.91486 0.29565 0.38352 0.0
C1491 C 0.96253 0.33326 0.33207 0.0
C1492 C 0.08976 0.72625 0.60024 0.0
C1493 C 0.08641 0.7316 0.63188 0.0
H1494 H 0.09203 0.69278 0.56152 0.0
C1495 C 0.08259 0.70283 0.64837 0.0
H1496 H 0.09342 0.74722 0.58636 0.0
C1497 C 0.08269 0.67088 0.63392 0.0
C1498 C 0.08614 0.66583 0.6021 0.0
H1499 H 0.08081 0.70532 0.67285 0.0
H1500 H 0.08027 0.65013 0.64787 0.0
C1501 C 0.08917 0.69448 0.58579 0.0
C1502 C 0.69566 0.80406 0.85233 0.0
C1503 C 0.6959 0.83329 0.87133 0.0
H1504 H 0.72056 0.77878 0.82441 0.0
C1505 C 0.72515 0.86032 0.87415 0.0
H1506 H 0.67475 0.78201 0.84905 0.0
C1507 C 0.75175 0.85852 0.85975 0.0
C1508 C 0.75196 0.82939 0.84131 0.0
H1509 H 0.72788 0.88368 0.88815 0.0
H1510 H 0.77273 0.88035 0.86357 0.0
C1511 C 0.72268 0.80218 0.83801 0.0
C1512 C 0.52626 0.6017 0.66584 0.0
C1513 C 0.49453 0.58209 0.66224 0.0
H1514 H 0.56951 0.61346 0.64712 0.0
C1515 C 0.48137 0.56143 0.63445 0.0
H1516 H 0.53717 0.61805 0.68687 0.0
C1517 C 0.50008 0.5591 0.61137 0.0
C1518 C 0.53221 0.57688 0.61616 0.0
H1519 H 0.45695 0.54621 0.63098 0.0
H1520 H 0.48968 0.54234 0.59044 0.0
C1521 C 0.54493 0.59884 0.64319 0.0
C1522 C 0.80558 0.16781 1.00036 0.0
C1523 C 0.81903 0.18427 0.02976 0.0
H1524 H 0.78922 0.17284 0.95442 0.0
C1525 C 0.82657 0.21961 0.03517 0.0
H1526 H 0.79939 0.14059 0.99549 0.0
C1527 C 0.82056 0.23808 0.01161 0.0
C1528 C 0.80718 0.22155 0.9822 0.0
H1529 H 0.8368 0.23297 0.05766 0.0
H1530 H 0.82676 0.26532 0.01625 0.0
C1531 C 0.7998 0.18626 0.97681 0.0
C1532 C 0.10208 0.4975 0.16358 0.0
C1533 C 0.13421 0.50675 0.17193 0.0
H1534 H 0.06593 0.50349 0.1329 0.0
C1535 C 0.15484 0.52625 0.1531 0.0
H1536 H 0.08566 0.48254 0.17776 0.0
C1537 C 0.14362 0.53852 0.12768 0.0
C1538 C 0.11156 0.53152 0.12068 0.0
H1539 H 0.17975 0.53349 0.15891 0.0
H1540 H 0.16019 0.55438 0.11417 0.0
C1541 C 0.09082 0.50988 0.13814 0.0
C1542 C 0.87555 0.88324 0.44633 0.0
C1543 C 0.85076 0.87093 0.46401 0.0
H1544 H 0.89208 0.88285 0.40197 0.0
C1545 C 0.8229 0.84701 0.44937 0.0
H1546 H 0.89726 0.90189 0.45687 0.0
C1547 C 0.81959 0.8368 0.41749 0.0
C1548 C 0.84433 0.84962 0.3997 0.0
H1549 H 0.80323 0.83747 0.4622 0.0
H1550 H 0.79751 0.81913 0.40668 0.0
C1551 C 0.87256 0.87237 0.41479 0.0
C1552 C 0.57753 0.60417 0.8176 0.0
C1553 C 0.5587 0.57619 0.79739 0.0
H1554 H 0.60857 0.62147 0.85912 0.0
C1555 C 0.5597 0.54385 0.80176 0.0
H1556 H 0.57754 0.62947 0.81425 0.0
C1557 C 0.57618 0.5389 0.82814 0.0
C1558 C 0.59265 0.56643 0.85029 0.0
H1559 H 0.54538 0.52184 0.78636 0.0
H1560 H 0.57346 0.51305 0.83223 0.0
C1561 C 0.59502 0.59942 0.84345 0.0
C1562 C 0.85943 0.21165 0.21251 0.0
C1563 C 0.86996 0.2259 0.18571 0.0
H1564 H 0.84576 0.22006 0.25709 0.0
C1565 C 0.87756 0.26098 0.18473 0.0
H1566 H 0.85357 0.18467 0.21399 0.0
C1567 C 0.87263 0.28105 0.20912 0.0
C1568 C 0.86036 0.26652 0.23513 0.0
H1569 H 0.88579 0.27273 0.16446 0.0
H1570 H 0.87777 0.30786 0.20721 0.0
C1571 C 0.85481 0.23185 0.23711 0.0
C1572 C 0.0995 0.57417 0.29832 0.0
C1573 C 0.10304 0.54232 0.29323 0.0
H1574 H 0.08919 0.60865 0.33019 0.0
C1575 C 0.09039 0.51733 0.31249 0.0
H1576 H 0.10882 0.59383 0.2836 0.0
C1577 C 0.07812 0.5255 0.33879 0.0
C1578 C 0.07942 0.55907 0.34668 0.0
H1579 H 0.09226 0.49233 0.30857 0.0
H1580 H 0.07046 0.50639 0.35443 0.0
C1581 C 0.08802 0.58262 0.32506 0.0
C1582 C 0.85756 0.87193 0.67011 0.0
C1583 C 0.82947 0.85883 0.65041 0.0
H1584 H 0.88064 0.87745 0.716 0.0
C1585 C 0.80267 0.83981 0.663 0.0
H1586 H 0.87861 0.88692 0.66141 0.0
C1587 C 0.80389 0.83403 0.69424 0.0
C1588 C 0.83178 0.84777 0.71412 0.0
H1589 H 0.78059 0.82935 0.64866 0.0
H1590 H 0.78277 0.81916 0.70293 0.0
C1591 C 0.85863 0.86677 0.70156 0.0
C1592 C 0.80167 0.55917 0.55721 0.0
C1593 C 0.80041 0.53183 0.5742 0.0
H1594 H 0.7888 0.60318 0.55272 0.0
C1595 C 0.7861 0.52904 0.60139 0.0
H1596 H 0.81321 0.56228 0.53651 0.0
C1597 C 0.77133 0.55189 0.61029 0.0
C1598 C 0.7712 0.57844 0.5925 0.0
H1599 H 0.78494 0.5082 0.61496 0.0
H1600 H 0.75861 0.54749 0.63016 0.0
C1601 C 0.78764 0.58254 0.56653 0.0
C1602 C 0.23343 0.16239 0.59196 0.0
C1603 C 0.24744 0.17515 0.56595 0.0
H1604 H 0.19272 0.13018 0.60923 0.0
C1605 C 0.23043 0.16408 0.53674 0.0
H1606 H 0.2459 0.17045 0.61485 0.0
C1607 C 0.20022 0.14086 0.53354 0.0
C1608 C 0.18602 0.12825 0.5595 0.0
H1609 H 0.24048 0.17326 0.51622 0.0
H1610 H 0.1879 0.13309 0.51057 0.0
C1611 C 0.20297 0.13929 0.58879 0.0
C1612 C 0.31516 0.04373 0.83365 0.0
C1613 C 0.28906 0.03906 0.81251 0.0
H1614 H 0.35874 0.03612 0.84219 0.0
C1615 C 0.28752 0.02402 0.78255 0.0
H1616 H 0.31712 0.05612 0.85669 0.0
C1617 C 0.31073 1.01151 0.77446 0.0
C1618 C 0.33642 1.01468 0.79597 0.0
H1619 H 0.26759 0.02039 0.76583 0.0
H1620 H 0.30746 0.99771 0.75188 0.0
C1621 C 0.33893 0.03224 0.82528 0.0
C1622 C 0.44807 0.99554 0.99509 0.0
C1623 C 0.42765 0.99329 0.01757 0.0
H1624 H 0.49502 1.0144 0.98472 0.0
C1625 C 0.43942 1.00951 0.04745 0.0
H1626 H 0.4396 0.98344 0.97184 0.0
C1627 C 0.47116 0.0269 0.05493 0.0
C1628 C 0.49163 0.02881 0.03256 0.0
H1629 H 0.42423 1.00816 0.06529 0.0
H1630 H 0.47964 0.03866 0.07828 0.0
C1631 C 0.47976 1.01337 1.00246 0.0
C1632 C 0.92841 0.66497 0.77224 0.0
C1633 C 0.9206 0.63076 0.77703 0.0
H1634 H 0.91191 0.70356 0.75695 0.0
C1635 C 0.89205 0.6075 0.76341 0.0
H1636 H 0.95051 0.68321 0.78236 0.0
C1637 C 0.87029 0.61878 0.74766 0.0
C1638 C 0.87629 0.65367 0.74643 0.0
H1639 H 0.886 0.58075 0.7662 0.0
H1640 H 0.84785 0.60044 0.7387 0.0
C1641 C 0.9063 0.67646 0.75727 0.0
C1642 C 0.89913 0.68497 0.04961 0.0
C1643 C 0.88751 0.69354 0.07653 0.0
H1644 H 0.92589 0.65772 0.02897 0.0
C1645 C 0.89494 0.68112 0.10402 0.0
H1646 H 0.89385 0.69411 0.02806 0.0
C1647 C 0.91317 0.66024 0.1045 0.0
C1648 C 0.92463 0.65146 0.07758 0.0
H1649 H 0.88642 0.68724 0.1252 0.0
H1650 H 0.91848 0.65111 0.12605 0.0
C1651 C 0.91761 0.66426 0.05016 0.0
C1652 C 0.23816 0.18701 0.81091 0.0
C1653 C 0.25123 0.16857 0.8299 0.0
H1654 H 0.245 0.23297 0.79031 0.0
C1655 C 0.28223 0.18335 0.84328 0.0
H1656 H 0.21432 0.17632 0.80031 0.0
C1657 C 0.29996 0.21582 0.83739 0.0
C1658 C 0.28695 0.23411 0.81812 0.0
H1659 H 0.29297 0.16968 0.85798 0.0
H1660 H 0.32384 0.2265 0.84788 0.0
C1661 C 0.25581 0.21947 0.80513 0.0
C1662 C 0.3518 0.95646 0.36999 0.0
C1663 C 0.38433 0.97126 0.37351 0.0
H1664 H 0.31265 0.91114 0.3571 0.0
C1665 C 0.40253 0.95045 0.36951 0.0
H1666 H 0.33719 0.97186 0.37296 0.0
C1667 C 0.38856 0.91599 0.36012 0.0
C1668 C 0.35609 0.90152 0.3548 0.0
H1669 H 0.42767 0.96099 0.37237 0.0
H1670 H 0.40329 0.90088 0.35631 0.0
C1671 C 0.33777 0.92177 0.36076 0.0
C1672 C 0.64077 0.45088 0.60069 0.0
C1673 C 0.61514 0.42067 0.59912 0.0
H1674 H 0.65709 0.50371 0.59303 0.0
C1675 C 0.58586 0.4213 0.58715 0.0
H1676 H 0.66366 0.45157 0.60987 0.0
C1677 C 0.58208 0.45098 0.57759 0.0
C1678 C 0.6074 0.48142 0.57965 0.0
H1679 H 0.56546 0.39875 0.58542 0.0
H1680 H 0.55897 0.45001 0.56882 0.0
C1681 C 0.63694 0.48088 0.59113 0.0
C1682 C 0.40774 0.78494 0.43553 0.0
C1683 C 0.43511 0.78166 0.42563 0.0
H1684 H 0.36334 0.78971 0.42301 0.0
C1685 C 0.43739 0.77911 0.39374 0.0
H1686 H 0.40501 0.78688 0.45984 0.0
C1687 C 0.41335 0.78077 0.37247 0.0
C1688 C 0.38638 0.78508 0.38248 0.0
H1689 H 0.45806 0.77657 0.3852 0.0
H1690 H 0.41626 0.77943 0.34819 0.0
C1691 C 0.38377 0.78662 0.41431 0.0
C1692 C 0.1028 0.72322 0.10029 0.0
C1693 C 0.13318 0.74444 0.09736 0.0
H1694 H 0.06953 0.67268 0.09333 0.0
C1695 C 0.1531 0.72991 0.08353 0.0
H1696 H 0.08687 0.7334 0.11101 0.0
C1697 C 0.14305 0.69519 0.07305 0.0
C1698 C 0.11299 0.67377 0.07672 0.0
H1699 H 0.17666 0.74538 0.08094 0.0
H1700 H 0.15913 0.685 0.06261 0.0
C1701 C 0.09295 0.68829 0.09039 0.0
C1702 C 0.11417 0.32337 0.89966 0.0
C1703 C 0.09871 0.28907 0.90298 0.0
H1704 H 0.15025 0.35931 0.87973 0.0
C1705 C 0.10812 0.26421 0.88755 0.0
H1706 H 0.10757 0.34319 0.91127 0.0
C1707 C 0.13258 0.27349 0.86935 0.0
C1708 C 0.14807 0.30782 0.86609 0.0
H1709 H 0.09668 0.23756 0.88958 0.0
H1710 H 0.13917 0.25375 0.8576 0.0
C1711 C 0.13852 0.33263 0.8814 0.0
C1712 C 0.59732 0.7249 0.0113 0.0
C1713 C 0.59075 0.72584 0.97908 0.0
H1714 H 0.60035 0.69647 0.04983 0.0
C1715 C 0.58095 0.69344 0.96153 0.0
H1716 H 0.605 0.74836 0.02646 0.0
C1717 C 0.57854 0.66256 0.97549 0.0
C1718 C 0.58543 0.66209 0.00789 0.0
H1719 H 0.57583 0.69187 0.93678 0.0
H1720 H 0.57143 0.63892 0.96065 0.0
C1721 C 0.59462 0.69441 0.02512 0.0
C1722 C 0.20952 0.85139 0.74404 0.0
C1723 C 0.18339 0.82079 0.7405 0.0
H1724 H 0.25926 0.87695 0.75777 0.0
C1725 C 0.19073 0.7924 0.75034 0.0
H1726 H 0.2063 0.87421 0.7368 0.0
C1727 C 0.22123 0.79393 0.76244 0.0
C1728 C 0.24752 0.82398 0.7656 0.0
H1729 H 0.17247 0.76797 0.7485 0.0
H1730 H 0.22414 0.77075 0.76912 0.0
C1731 C 0.24056 0.85287 0.75609 0.0
C1732 C 0.09373 0.42176 0.49256 0.0
C1733 C 0.09885 0.42257 0.46109 0.0
H1734 H 0.08789 0.44858 0.53471 0.0
C1735 C 0.10294 0.4543 0.44949 0.0
H1736 H 0.09005 0.39833 0.50289 0.0
C1737 C 0.10191 0.48325 0.46778 0.0
C1738 C 0.09623 0.48257 0.49898 0.0
H1739 H 0.10688 0.45694 0.42564 0.0
H1740 H 0.10517 0.50633 0.45701 0.0
C1741 C 0.09227 0.45094 0.51095 0.0
C1742 C 0.45395 0.29183 0.22887 0.0
C1743 C 0.48475 0.3152 0.2377 0.0
H1744 H 0.40501 0.27335 0.23488 0.0
C1745 C 0.48642 0.33911 0.26333 0.0
H1746 H 0.45009 0.27278 0.20952 0.0
C1747 C 0.45927 0.33966 0.2782 0.0
C1748 C 0.42845 0.31619 0.26885 0.0
H1749 H 0.50862 0.35832 0.27146 0.0
H1750 H 0.46254 0.35912 0.29704 0.0
C1751 C 0.42723 0.29213 0.24378 0.0
C1752 C 0.66917 0.54202 0.4458 0.0
C1753 C 0.69455 0.57175 0.44473 0.0
H1754 H 0.62858 0.51783 0.46727 0.0
C1755 C 0.69928 0.59977 0.46641 0.0
H1756 H 0.66489 0.51996 0.42938 0.0
C1757 C 0.6783 0.59866 0.48783 0.0
C1758 C 0.65227 0.56941 0.48819 0.0
H1759 H 0.71855 0.62307 0.46616 0.0
H1760 H 0.68212 0.62114 0.50354 0.0
C1761 C 0.64821 0.54086 0.46734 0.0
C1762 C 0.36345 0.85618 0.0784 0.0
C1763 C 0.34117 0.87247 0.07653 0.0
H1764 H 0.38579 0.82874 0.10581 0.0
C1765 C 0.32185 0.8704 0.10003 0.0
H1766 H 0.37858 0.85721 0.06055 0.0
C1767 C 0.32596 0.85412 0.1258 0.0
C1768 C 0.34951 0.83964 0.12862 0.0
H1769 H 0.30434 0.88253 0.09915 0.0
H1770 H 0.31181 0.85461 0.14428 0.0
C1771 C 0.36767 0.84 0.10432 0.0
C1772 C 1.00595 0.61833 0.94318 0.0
C1773 C 1.01906 0.61909 0.91544 0.0
H1774 H 1.00947 0.61002 0.99046 0.0
C1775 C 0.04832 0.61518 0.91502 0.0
H1776 H 0.98342 0.62124 0.94403 0.0
C1777 C 0.06308 0.60792 0.9415 0.0
C1778 C 0.04899 0.6051 0.96883 0.0
H1779 H 0.0588 0.61536 0.89376 0.0
H1780 H 0.08487 0.60337 0.94027 0.0
C1781 C 1.02089 0.6117 0.9697 0.0
C1782 C 0.3056 0.31051 0.65348 0.0
C1783 C 0.32682 0.29761 0.63995 0.0
H1784 H 0.29078 0.32757 0.69495 0.0
C1785 C 0.35064 0.29298 0.65969 0.0
H1786 H 0.28686 0.31438 0.6392 0.0
C1787 C 0.35259 0.30008 0.69193 0.0
C1788 C 0.33103 0.31247 0.70547 0.0
H1789 H 0.36728 0.28287 0.65033 0.0
H1790 H 0.37097 0.29562 0.70628 0.0
C1791 C 0.30781 0.31805 0.68563 0.0
C1792 C 0.61845 0.57079 0.30664 0.0
C1793 C 0.63483 0.54791 0.30416 0.0
H1794 H 0.59531 0.59979 0.28251 0.0
C1795 C 0.63499 0.53149 0.27516 0.0
H1796 H 0.61805 0.58389 0.32875 0.0
C1797 C 0.62165 0.54027 0.24877 0.0
C1798 C 0.60841 0.56604 0.25089 0.0
H1799 H 0.64716 0.51345 0.27271 0.0
H1800 H 0.62332 0.52827 0.22654 0.0
C1801 C 0.60548 0.57997 0.28014 0.0
C1802 C 0.33182 0.93529 0.90432 0.0
C1803 C 0.31697 0.91986 0.9288 0.0
H1804 H 0.34727 0.92799 0.86055 0.0
C1805 C 0.30353 0.88434 0.92619 0.0
H1806 H 0.34237 0.96259 0.9056 0.0
C1807 C 0.30639 0.86455 0.90039 0.0
C1808 C 0.32298 0.87989 0.8768 0.0
H1809 H 0.29176 0.87172 0.94463 0.0
H1810 H 0.29666 0.83721 0.89955 0.0
C1811 C 0.33492 0.91545 0.87863 0.0
C1812 C 0.03749 0.57437 0.7896 0.0
C1813 C 1.01928 0.54534 0.80168 0.0
H1814 H 0.06589 0.59399 0.75457 0.0
C1815 C 1.01891 0.51325 0.78987 0.0
H1816 H 0.0384 0.59942 0.79872 0.0
C1817 C 0.03424 0.51009 0.76422 0.0
C1818 C 0.05022 0.53903 0.75045 0.0
H1819 H 1.00486 0.49055 0.79885 0.0
H1820 H 1.03174 0.48494 0.75393 0.0
C1821 C 0.05302 0.57126 0.7643 0.0
C1822 C 0.33638 0.24013 0.42475 0.0
C1823 C 0.34305 0.26369 0.45136 0.0
H1824 H 0.33352 0.23162 0.3754 0.0
C1825 C 0.35382 0.29836 0.44714 0.0
H1826 H 0.32808 0.21316 0.42672 0.0
C1827 C 0.35733 0.30899 0.41738 0.0
C1828 C 0.35003 0.28535 0.3907 0.0
H1829 H 0.35935 0.31735 0.46682 0.0
H1830 H 0.36512 0.33594 0.41528 0.0
C1831 C 0.33967 0.25072 0.39505 0.0
C1832 C 0.43175 0.61943 0.5605 0.0
C1833 C 0.40255 0.60455 0.57051 0.0
H1834 H 0.4671 0.61244 0.53493 0.0
C1835 C 0.38609 0.57 0.56144 0.0
H1836 H 0.44506 0.64595 0.56719 0.0
C1837 C 0.39848 0.55083 0.54235 0.0
C1838 C 0.42757 0.56587 0.53205 0.0
H1839 H 0.36338 0.55788 0.56861 0.0
H1840 H 0.3852 0.52435 0.53547 0.0
C1841 C 0.44416 0.6003 0.5416 0.0
C1842 C 0.95343 0.98835 0.56074 0.0
C1843 C 0.94689 0.95444 0.54853 0.0
H1844 H 0.98619 0.03913 0.56681 0.0
C1845 C 0.96839 0.94637 0.53129 0.0
H1846 H 0.93719 0.99542 0.57397 0.0
C1847 C 0.99601 0.97133 0.52683 0.0
C1848 C 1.00311 1.00508 0.53968 0.0
H1849 H 0.96397 0.92066 0.5212 0.0
H1850 H 1.01212 0.96384 0.51373 0.0
C1851 C 0.98136 1.01345 0.55644 0.0
C1852 C 0.90306 0.14455 0.28765 0.0
C1853 C 0.92112 0.13287 0.30856 0.0
H1854 H 0.86744 0.16669 0.28128 0.0
C1855 C 0.91701 0.13513 0.33999 0.0
H1856 H 0.9056 0.14306 0.26329 0.0
C1857 C 0.89511 0.14869 0.35028 0.0
C1858 C 0.87666 0.15968 0.32923 0.0
H1859 H 0.9306 0.12629 0.35663 0.0
H1860 H 0.89235 0.15027 0.3746 0.0
C1861 C 0.88094 0.15766 0.29787 0.0
C1862 C 0.72502 0.09767 0.10166 0.0
C1863 C 0.74162 0.13254 0.10419 0.0
H1864 H 0.68168 0.0582 0.08785 0.0
C1865 C 0.72645 0.15489 0.09472 0.0
H1866 H 0.73617 0.07988 0.10869 0.0
C1867 C 0.6953 0.14243 0.08236 0.0
C1868 C 0.67881 0.10751 0.0796 0.0
H1869 H 0.73879 0.18191 0.09617 0.0
H1870 H 0.68414 0.16014 0.07513 0.0
C1871 C 0.69387 0.08528 0.08958 0.0
C1872 C 0.27629 0.52419 0.29205 0.0
C1873 C 0.25362 0.51621 0.31243 0.0
H1874 H 0.32099 0.52416 0.28218 0.0
C1875 C 0.25994 0.50462 0.34054 0.0
H1876 H 0.27214 0.53421 0.27063 0.0
C1877 C 0.28765 0.49806 0.34689 0.0
C1878 C 0.30956 0.50383 0.32545 0.0
H1879 H 0.24277 0.4988 0.35668 0.0
H1880 H 0.29092 0.48645 0.36759 0.0
C1881 C 0.30423 0.51858 0.29873 0.0
C1882 C 0.28658 0.47812 0.0502 0.0
C1883 C 0.27166 0.4428 0.04457 0.0
H1884 H 0.28199 0.52732 0.05032 0.0
C1885 C 0.23957 0.43014 0.0349 0.0
H1886 H 0.31129 0.48874 0.05762 0.0
C1887 C 0.22282 0.45226 0.03081 0.0
C1888 C 0.2378 0.48757 0.03602 0.0
H1889 H 0.22735 0.4031 0.03033 0.0
H1890 H 0.19819 0.44169 0.02298 0.0
C1891 C 0.26986 0.50026 0.04582 0.0
C1892 C 0.91974 0.94841 0.24274 0.0
C1893 C 0.91667 0.97882 0.25488 0.0
H1894 H 0.90654 0.89481 0.24391 0.0
C1895 C 0.89641 0.97806 0.27738 0.0
H1896 H 0.93526 0.94826 0.22548 0.0
C1897 C 0.87976 0.94742 0.2878 0.0
C1898 C 0.88348 0.91713 0.27625 0.0
H1899 H 0.89354 1.00118 0.28707 0.0
H1900 H 0.86445 0.94757 0.30528 0.0
C1901 C 0.90347 0.91786 0.25349 0.0
C1902 C 0.75504 0.15173 0.74457 0.0
C1903 C 0.7462 0.13094 0.76821 0.0
H1904 H 0.77929 0.20133 0.73288 0.0
C1905 C 0.75625 0.14484 0.79903 0.0
H1906 H 0.7477 0.14177 0.72061 0.0
C1907 C 0.77431 0.17896 0.80608 0.0
C1908 C 0.78272 0.19989 0.78246 0.0
H1909 H 0.74989 0.12947 0.8178 0.0
H1910 H 0.78139 0.18896 0.83006 0.0
C1911 C 0.77313 0.18587 0.75162 0.0
loop_
_geom_bond_atom_site_label_1
_geom_bond_atom_site_label_2
_geom_bond_distance
_geom_bond_site_symmetry_2
_ccdc_geom_bond_type
C0 O1 1.160 . S
C0 O7 1.185 . S
O1 C0 1.160 . S
O2 Zn3 1.899 . S
O2 C10 1.284 . S
Zn3 O2 1.899 . S
Zn3 O4 2.032 . S
Zn3 O7 2.086 . S
Zn3 O12 1.977 . S
O4 Zn3 2.032 . S
O4 C8 1.278 . S
C5 O6 1.203 . S
C5 O12 1.267 1_655 S
O6 C5 1.203 . S
O7 C0 1.185 . S
O7 Zn3 2.086 . S
C8 O4 1.278 . S
C8 O9 1.211 . S
O9 C8 1.211 . S
C10 O2 1.284 . S
C10 O11 1.273 . S
O11 C10 1.273 . S
O12 Zn3 1.977 . S
O12 C5 1.267 1_455 S
C13 O14 1.165 . S
C13 O20 1.158 1_655 S
O14 C13 1.165 . S
O15 Zn16 1.899 . S
O15 C23 1.284 . S
Zn16 O15 1.899 . S
Zn16 O17 2.032 . S
Zn16 O20 2.086 . S
Zn16 O25 1.977 . S
O17 Zn16 2.032 . S
O17 C21 1.278 . S
C18 O19 1.203 . S
C18 O25 1.267 . S
O19 C18 1.203 . S
O20 C13 1.158 1_455 S
O20 Zn16 2.086 . S
C21 O17 1.278 . S
C21 O22 1.211 . S
O22 C21 1.211 . S
C23 O15 1.284 . S
C23 O24 1.273 . S
O24 C23 1.273 . S
O25 Zn16 1.977 . S
O25 C18 1.267 . S
C26 O27 1.160 . S
C26 O33 1.185 . S
O27 C26 1.160 . S
O28 Zn29 1.899 . S
O28 C36 1.284 . S
Zn29 O28 1.899 . S
Zn29 O30 2.032 . S
Zn29 O33 2.086 . S
Zn29 O38 1.977 . S
O30 Zn29 2.032 . S
O30 C34 1.278 . S
C31 O32 1.203 . S
C31 O38 1.267 . S
O32 C31 1.203 . S
O33 C26 1.185 . S
O33 Zn29 2.086 . S
C34 O30 1.278 . S
C34 O35 1.211 . S
O35 C34 1.211 . S
C36 O28 1.284 . S
C36 O37 1.273 . S
O37 C36 1.273 . S
O38 Zn29 1.977 . S
O38 C31 1.267 . S
C39 O40 1.160 . S
C39 O46 1.185 . S
O40 C39 1.160 . S
O41 Zn42 1.899 . S
O41 C49 1.284 . S
Zn42 O41 1.899 . S
Zn42 O43 2.032 . S
Zn42 O46 2.086 . S
Zn42 O51 1.977 . S
O43 Zn42 2.032 . S
O43 C47 1.278 . S
C44 O45 1.203 . S
C44 O51 1.267 . S
O45 C44 1.203 . S
O46 C39 1.185 . S
O46 Zn42 2.086 . S
C47 O43 1.278 . S
C47 O48 1.211 . S
O48 C47 1.211 . S
C49 O41 1.284 . S
C49 O50 1.273 . S
O50 C49 1.273 . S
O51 Zn42 1.977 . S
O51 C44 1.267 . S
C52 O53 1.160 . S
C52 O59 1.185 . S
O53 C52 1.160 . S
O54 Zn55 1.899 . S
O54 C62 1.284 . S
Zn55 O54 1.899 . S
Zn55 O56 2.032 . S
Zn55 O59 2.086 . S
Zn55 O64 1.977 . S
O56 Zn55 2.032 . S
O56 C60 1.278 . S
C57 O58 1.203 . S
C57 O64 1.267 . S
O58 C57 1.203 . S
O59 C52 1.185 . S
O59 Zn55 2.086 . S
C60 O56 1.278 . S
C60 O61 1.211 . S
O61 C60 1.211 . S
C62 O54 1.284 . S
C62 O63 1.273 . S
O63 C62 1.273 . S
O64 Zn55 1.977 . S
O64 C57 1.267 . S
C65 O66 1.160 . S
C65 O72 1.185 . S
O66 C65 1.160 . S
O67 Zn68 1.899 . S
O67 C75 1.284 . S
Zn68 O67 1.899 . S
Zn68 O69 2.032 . S
Zn68 O72 2.086 . S
Zn68 O77 1.977 . S
O69 Zn68 2.032 . S
O69 C73 1.278 . S
C70 O71 1.203 . S
C70 O77 1.267 . S
O71 C70 1.203 . S
O72 C65 1.185 . S
O72 Zn68 2.086 . S
C73 O69 1.278 . S
C73 O74 1.211 . S
O74 C73 1.211 . S
C75 O67 1.284 . S
C75 O76 1.273 . S
O76 C75 1.273 . S
O77 Zn68 1.977 . S
O77 C70 1.267 . S
C78 O79 1.160 . S
C78 O85 1.185 . S
O79 C78 1.160 . S
O80 Zn81 1.899 . S
O80 C88 1.284 . S
Zn81 O80 1.899 . S
Zn81 O82 2.032 . S
Zn81 O85 2.086 . S
Zn81 O90 1.977 . S
O82 Zn81 2.032 . S
O82 C86 1.278 . S
C83 O84 1.203 . S
C83 O90 1.267 . S
O84 C83 1.203 . S
O85 C78 1.185 . S
O85 Zn81 2.086 . S
C86 O82 1.278 . S
C86 O87 1.211 . S
O87 C86 1.211 . S
C88 O80 1.284 . S
C88 O89 1.273 . S
O89 C88 1.273 . S
O90 Zn81 1.977 . S
O90 C83 1.267 . S
C91 O92 1.160 . S
C91 O98 1.185 . S
O92 C91 1.160 . S
O93 Zn94 1.899 1_655 S
O93 C101 1.284 . S
Zn94 O93 1.899 1_455 S
Zn94 O95 2.032 . S
Zn94 O98 2.086 . S
Zn94 O103 1.977 1_455 S
O95 Zn94 2.032 . S
O95 C99 1.278 . S
C96 O97 1.203 . S
C96 O103 1.267 . S
O97 C96 1.203 . S
O98 C91 1.185 . S
O98 Zn94 2.086 . S
C99 O95 1.278 . S
C99 O100 1.211 1_455 S
O100 C99 1.211 1_655 S
C101 O93 1.284 . S
C101 O102 1.273 1_556 S
O102 C101 1.273 1_554 S
O103 Zn94 1.977 1_655 S
O103 C96 1.267 . S
C104 O105 1.160 . S
C104 O111 1.185 . S
O105 C104 1.160 . S
O106 Zn107 1.899 . S
O106 C114 1.284 . S
Zn107 O106 1.899 . S
Zn107 O108 2.032 . S
Zn107 O111 2.086 . S
Zn107 O116 1.977 1_545 S
O108 Zn107 2.032 . S
O108 C112 1.278 . S
C109 O110 1.203 . S
C109 O116 1.267 . S
O110 C109 1.203 . S
O111 C104 1.185 . S
O111 Zn107 2.086 . S
C112 O108 1.278 . S
C112 O113 1.211 . S
O113 C112 1.211 . S
C114 O106 1.284 . S
C114 O115 1.273 . S
O115 C114 1.273 . S
O116 Zn107 1.977 1_565 S
O116 C109 1.267 . S
C117 O118 1.160 . S
C117 O124 1.185 . S
O118 C117 1.160 . S
O119 Zn120 1.899 . S
O119 C127 1.284 . S
Zn120 O119 1.899 . S
Zn120 O121 2.032 . S
Zn120 O124 2.086 . S
Zn120 O129 1.977 . S
O121 Zn120 2.032 . S
O121 C125 1.278 . S
C122 O123 1.203 . S
C122 O129 1.267 . S
O123 C122 1.203 . S
O124 C117 1.185 . S
O124 Zn120 2.086 . S
C125 O121 1.278 . S
C125 O126 1.211 . S
O126 C125 1.211 . S
C127 O119 1.284 . S
C127 O128 1.273 . S
O128 C127 1.273 . S
O129 Zn120 1.977 . S
O129 C122 1.267 . S
C130 O131 1.160 . S
C130 O137 1.185 . S
O131 C130 1.160 . S
O132 Zn133 1.899 . S
O132 C140 1.284 . S
Zn133 O132 1.899 . S
Zn133 O134 2.032 . S
Zn133 O137 2.086 . S
Zn133 O142 1.977 . S
O134 Zn133 2.032 . S
O134 C138 1.278 . S
C135 O136 1.203 . S
C135 O142 1.267 . S
O136 C135 1.203 . S
O137 C130 1.185 . S
O137 Zn133 2.086 . S
C138 O134 1.278 . S
C138 O139 1.211 . S
O139 C138 1.211 . S
C140 O132 1.284 . S
C140 O141 1.273 . S
O141 C140 1.273 . S
O142 Zn133 1.977 . S
O142 C135 1.267 . S
C143 O144 1.160 . S
C143 O150 1.185 1_554 S
O144 C143 1.160 . S
O145 Zn146 1.899 . S
O145 C153 1.284 . S
Zn146 O145 1.899 . S
Zn146 O147 2.032 1_554 S
Zn146 O150 2.086 1_554 S
Zn146 O155 1.981 . S
O147 Zn146 2.032 1_556 S
O147 C151 1.278 . S
C148 O149 1.203 . S
C148 O155 1.270 . S
O149 C148 1.203 . S
O150 C143 1.185 1_556 S
O150 Zn146 2.086 1_556 S
C151 O147 1.278 . S
C151 O152 1.211 . S
O152 C151 1.211 . S
C153 O145 1.284 . S
C153 O154 1.273 . S
O154 C153 1.273 . S
O155 Zn146 1.981 . S
O155 C148 1.270 . S
C156 O157 1.160 . S
C156 O163 1.185 . S
O157 C156 1.160 . S
O158 Zn159 1.899 . S
O158 C166 1.284 . S
Zn159 O158 1.899 . S
Zn159 O160 2.032 . S
Zn159 O163 2.086 . S
Zn159 O168 1.977 . S
O160 Zn159 2.032 . S
O160 C164 1.278 . S
C161 O162 1.203 . S
C161 O168 1.267 . S
O162 C161 1.203 . S
O163 C156 1.185 . S
O163 Zn159 2.086 . S
C164 O160 1.278 . S
C164 O165 1.211 . S
O165 C164 1.211 . S
C166 O158 1.284 . S
C166 O167 1.273 . S
O167 C166 1.273 . S
O168 Zn159 1.977 . S
O168 C161 1.267 . S
C169 O170 1.160 . S
C169 O176 1.185 . S
O170 C169 1.160 . S
O171 Zn172 1.899 . S
O171 C179 1.284 . S
Zn172 O171 1.899 . S
Zn172 O173 2.032 . S
Zn172 O176 2.086 . S
Zn172 O181 1.977 . S
O173 Zn172 2.032 . S
O173 C177 1.278 . S
C174 O175 1.203 . S
C174 O181 1.267 . S
O175 C174 1.203 . S
O176 C169 1.185 . S
O176 Zn172 2.086 . S
C177 O173 1.278 . S
C177 O178 1.211 . S
O178 C177 1.211 . S
C179 O171 1.284 . S
C179 O180 1.273 . S
O180 C179 1.273 . S
O181 Zn172 1.977 . S
O181 C174 1.267 . S
C182 O183 1.160 . S
C182 O189 1.185 . S
O183 C182 1.160 . S
O184 Zn185 1.899 . S
O184 C192 1.284 . S
Zn185 O184 1.899 . S
Zn185 O186 2.032 . S
Zn185 O189 2.086 . S
Zn185 O194 1.977 . S
O186 Zn185 2.032 . S
O186 C190 1.278 . S
C187 O188 1.203 . S
C187 O194 1.267 . S
O188 C187 1.203 . S
O189 C182 1.185 . S
O189 Zn185 2.086 . S
C190 O186 1.278 . S
C190 O191 1.211 . S
O191 C190 1.211 . S
C192 O184 1.284 . S
C192 O193 1.273 . S
O193 C192 1.273 . S
O194 Zn185 1.977 . S
O194 C187 1.267 . S
C195 O196 1.160 . S
C195 O202 1.185 . S
O196 C195 1.160 . S
O197 Zn198 1.899 . S
O197 C205 1.284 . S
Zn198 O197 1.899 . S
Zn198 O199 2.032 . S
Zn198 O202 2.086 . S
Zn198 O207 1.977 . S
O199 Zn198 2.032 . S
O199 C203 1.278 . S
C200 O201 1.203 . S
C200 O207 1.267 . S
O201 C200 1.203 . S
O202 C195 1.185 . S
O202 Zn198 2.086 . S
C203 O199 1.278 . S
C203 O204 1.211 . S
O204 C203 1.211 . S
C205 O197 1.284 . S
C205 O206 1.273 . S
O206 C205 1.273 . S
O207 Zn198 1.977 . S
O207 C200 1.267 . S
C208 O209 1.160 . S
C208 O215 1.185 . S
O209 C208 1.160 . S
O210 Zn211 1.899 . S
O210 C218 1.284 . S
Zn211 O210 1.899 . S
Zn211 O212 2.032 . S
Zn211 O215 2.086 . S
Zn211 O220 1.977 1_545 S
O212 Zn211 2.032 . S
O212 C216 1.278 . S
C213 O214 1.203 . S
C213 O220 1.267 . S
O214 C213 1.203 . S
O215 C208 1.185 . S
O215 Zn211 2.086 . S
C216 O212 1.278 . S
C216 O217 1.211 1_545 S
O217 C216 1.211 1_565 S
C218 O210 1.284 . S
C218 O219 1.273 1_545 S
O219 C218 1.273 1_565 S
O220 Zn211 1.977 1_565 S
O220 C213 1.267 . S
C221 O222 1.160 . S
C221 O228 1.185 . S
O222 C221 1.160 . S
O223 Zn224 1.899 . S
O223 C231 1.284 . S
Zn224 O223 1.899 . S
Zn224 O225 2.032 . S
Zn224 O228 2.086 . S
Zn224 O233 1.977 . S
O225 Zn224 2.032 . S
O225 C229 1.278 . S
C226 O227 1.203 . S
C226 O233 1.267 . S
O227 C226 1.203 . S
O228 C221 1.185 . S
O228 Zn224 2.086 . S
C229 O225 1.278 . S
C229 O230 1.211 . S
O230 C229 1.211 . S
C231 O223 1.284 . S
C231 O232 1.273 . S
O232 C231 1.273 . S
O233 Zn224 1.977 . S
O233 C226 1.267 . S
C234 O235 1.160 . S
C234 O241 1.185 . S
O235 C234 1.160 . S
O236 Zn237 1.899 . S
O236 C244 1.284 . S
Zn237 O236 1.899 . S
Zn237 O238 2.032 . S
Zn237 O241 2.086 . S
Zn237 O246 1.977 . S
O238 Zn237 2.032 . S
O238 C242 1.278 . S
C239 O240 1.203 . S
C239 O246 1.267 . S
O240 C239 1.203 . S
O241 C234 1.185 . S
O241 Zn237 2.086 . S
C242 O238 1.278 . S
C242 O243 1.211 . S
O243 C242 1.211 . S
C244 O236 1.284 . S
C244 O245 1.273 . S
O245 C244 1.273 . S
O246 Zn237 1.977 . S
O246 C239 1.267 . S
C247 O248 1.160 . S
C247 O254 1.185 . S
O248 C247 1.160 . S
O249 Zn250 1.899 . S
O249 C257 1.284 . S
Zn250 O249 1.899 . S
Zn250 O251 2.032 . S
Zn250 O254 2.086 . S
Zn250 O259 1.977 . S
O251 Zn250 2.032 . S
O251 C255 1.278 . S
C252 O253 1.203 . S
C252 O259 1.267 . S
O253 C252 1.203 . S
O254 C247 1.185 . S
O254 Zn250 2.086 . S
C255 O251 1.278 . S
C255 O256 1.211 . S
O256 C255 1.211 . S
C257 O249 1.284 . S
C257 O258 1.273 . S
O258 C257 1.273 . S
O259 Zn250 1.977 . S
O259 C252 1.267 . S
C260 O261 1.160 . S
C260 O267 1.185 . S
O261 C260 1.160 . S
O262 Zn263 1.899 . S
O262 C270 1.284 . S
Zn263 O262 1.899 . S
Zn263 O264 2.032 . S
Zn263 O267 2.086 . S
Zn263 O272 1.977 . S
O264 Zn263 2.032 . S
O264 C268 1.277 . S
C265 O266 1.203 . S
C265 O272 1.267 . S
O266 C265 1.203 . S
O267 C260 1.185 . S
O267 Zn263 2.086 . S
C268 O264 1.277 . S
C268 O269 1.211 . S
O269 C268 1.211 . S
C270 O262 1.284 . S
C270 O271 1.273 . S
O271 C270 1.273 . S
O272 Zn263 1.977 . S
O272 C265 1.267 . S
C273 O274 1.160 . S
C273 O280 1.185 . S
O274 C273 1.160 . S
O275 Zn276 1.899 . S
O275 C283 1.284 . S
Zn276 O275 1.899 . S
Zn276 O277 2.032 . S
Zn276 O280 2.086 . S
Zn276 O285 1.977 . S
O277 Zn276 2.032 . S
O277 C281 1.278 . S
C278 O279 1.203 . S
C278 O285 1.267 . S
O279 C278 1.203 . S
O280 C273 1.185 . S
O280 Zn276 2.086 . S
C281 O277 1.278 . S
C281 O282 1.211 . S
O282 C281 1.211 . S
C283 O275 1.284 . S
C283 O284 1.273 . S
O284 C283 1.273 . S
O285 Zn276 1.977 . S
O285 C278 1.267 . S
C286 O287 1.160 . S
C286 O293 1.185 . S
O287 C286 1.160 . S
O288 Zn289 1.899 . S
O288 C296 1.284 . S
Zn289 O288 1.899 . S
Zn289 O290 2.032 . S
Zn289 O293 2.086 . S
Zn289 O298 1.977 . S
O290 Zn289 2.032 . S
O290 C294 1.278 . S
C291 O292 1.203 . S
C291 O298 1.267 . S
O292 C291 1.203 . S
O293 C286 1.185 . S
O293 Zn289 2.086 . S
C294 O290 1.278 . S
C294 O295 1.211 . S
O295 C294 1.211 . S
C296 O288 1.284 . S
C296 O297 1.273 . S
O297 C296 1.273 . S
O298 Zn289 1.977 . S
O298 C291 1.267 . S
C299 O300 1.160 . S
C299 O306 1.185 . S
O300 C299 1.160 . S
O301 Zn302 1.899 . S
O301 C309 1.284 . S
Zn302 O301 1.899 . S
Zn302 O303 2.032 . S
Zn302 O306 2.086 . S
Zn302 O311 1.977 . S
O303 Zn302 2.032 . S
O303 C307 1.278 . S
C304 O305 1.203 . S
C304 O311 1.267 . S
O305 C304 1.203 . S
O306 C299 1.185 . S
O306 Zn302 2.086 . S
C307 O303 1.278 . S
C307 O308 1.211 . S
O308 C307 1.211 . S
C309 O301 1.284 . S
C309 O310 1.273 . S
O310 C309 1.273 . S
O311 Zn302 1.977 . S
O311 C304 1.267 . S
Tb312 C321 2.764 . S
Tb312 O322 2.325 . S
Tb312 O325 2.303 . S
Tb312 O329 2.322 . S
Tb312 O330 2.349 . S
Tb312 O333 2.415 . S
Tb312 O334 2.399 . S
Tb313 O323 2.322 1_545 S
Tb313 O324 2.349 1_554 S
Tb313 O326 2.415 1_455 S
Tb313 O327 2.399 1_454 S
Tb313 O328 2.325 . S
Tb313 O331 2.303 . S
Tb313 C342 2.764 1_455 S
C314 O330 1.261 . S
C314 O331 1.257 . S
C315 C318 1.358 . S
C315 C319 1.332 . S
C315 C321 1.504 . S
C316 C317 1.373 . S
C316 C320 1.308 . S
C317 C316 1.373 . S
C317 C318 1.429 . S
C317 H344 0.932 . S
C318 C315 1.358 . S
C318 C317 1.429 . S
C318 H345 0.930 . S
C319 C315 1.332 . S
C319 C320 1.394 . S
C319 H346 0.932 . S
C320 C316 1.308 . S
C320 C319 1.394 . S
C320 H347 0.929 . S
C321 Tb312 2.764 . S
C321 C315 1.504 . S
C321 O333 1.239 . S
C321 O334 1.263 . S
O322 Tb312 2.325 . S
O322 C332 1.236 1_545 S
O323 Tb313 2.322 1_565 S
O323 C332 1.257 . S
O324 Tb313 2.349 1_556 S
O324 C335 1.261 . S
O325 Tb312 2.303 . S
O325 C335 1.257 1_554 S
O326 Tb313 2.415 1_655 S
O326 C342 1.239 . S
O327 Tb313 2.399 1_656 S
O327 C342 1.263 1_556 S
O328 Tb313 2.325 . S
O328 C343 1.236 . S
O329 Tb312 2.322 . S
O329 C343 1.257 . S
O330 Tb312 2.349 . S
O330 C314 1.261 . S
O331 Tb313 2.303 . S
O331 C314 1.257 . S
C332 O322 1.236 1_565 S
C332 O323 1.257 . S
O333 Tb312 2.415 . S
O333 C321 1.239 . S
O334 Tb312 2.399 . S
O334 C321 1.263 . S
C335 O324 1.261 . S
C335 O325 1.257 1_556 S
C336 C339 1.342 1_554 S
C336 C340 1.344 . S
C336 C342 1.506 . S
C337 C338 1.373 . S
C337 C341 1.308 1_556 S
C338 C337 1.373 . S
C338 C339 1.429 . S
C338 H348 0.932 . S
C339 C336 1.342 1_556 S
C339 C338 1.429 . S
C339 H349 0.930 . S
C340 C336 1.344 . S
C340 C341 1.394 . S
C340 H350 0.932 . S
C341 C337 1.308 1_554 S
C341 C340 1.394 . S
C341 H351 0.929 . S
C342 Tb313 2.764 1_655 S
C342 O326 1.239 . S
C342 O327 1.263 1_554 S
C342 C336 1.506 . S
C343 O328 1.236 . S
C343 O329 1.257 . S
H344 C317 0.932 . S
H345 C318 0.930 . S
H346 C319 0.932 . S
H347 C320 0.929 . S
H348 C338 0.932 . S
H349 C339 0.930 . S
H350 C340 0.932 . S
H351 C341 0.929 . S
Tb352 C361 2.764 . S
Tb352 O362 2.325 . S
Tb352 O365 2.303 . S
Tb352 O369 2.322 . S
Tb352 O370 2.349 . S
Tb352 O373 2.415 . S
Tb352 O374 2.399 . S
Tb353 O363 2.322 . S
Tb353 O364 2.349 . S
Tb353 O366 2.415 . S
Tb353 O367 2.399 . S
Tb353 O368 2.325 . S
Tb353 O371 2.303 . S
Tb353 C382 2.764 . S
C354 O370 1.261 . S
C354 O371 1.257 . S
C355 C358 1.358 . S
C355 C359 1.332 . S
C355 C361 1.504 . S
C356 C357 1.373 . S
C356 C360 1.308 . S
C357 C356 1.373 . S
C357 C358 1.429 . S
C357 H384 0.932 . S
C358 C355 1.358 . S
C358 C357 1.429 . S
C358 H385 0.930 . S
C359 C355 1.332 . S
C359 C360 1.394 . S
C359 H386 0.932 . S
C360 C356 1.308 . S
C360 C359 1.394 . S
C360 H387 0.929 . S
C361 Tb352 2.764 . S
C361 C355 1.504 . S
C361 O373 1.239 . S
C361 O374 1.263 . S
O362 Tb352 2.325 . S
O362 C372 1.236 . S
O363 Tb353 2.322 . S
O363 C372 1.257 . S
O364 Tb353 2.349 . S
O364 C375 1.261 . S
O365 Tb352 2.303 . S
O365 C375 1.257 . S
O366 Tb353 2.415 . S
O366 C382 1.239 . S
O367 Tb353 2.399 . S
O367 C382 1.263 . S
O368 Tb353 2.325 . S
O368 C383 1.236 . S
O369 Tb352 2.322 . S
O369 C383 1.257 . S
O370 Tb352 2.349 . S
O370 C354 1.261 . S
O371 Tb353 2.303 . S
O371 C354 1.257 . S
C372 O362 1.236 . S
C372 O363 1.257 . S
O373 Tb352 2.415 . S
O373 C361 1.239 . S
O374 Tb352 2.399 . S
O374 C361 1.263 . S
C375 O364 1.261 . S
C375 O365 1.257 . S
C376 C379 1.358 . S
C376 C380 1.332 . S
C376 C382 1.504 . S
C377 C378 1.373 . S
C377 C381 1.308 . S
C378 C377 1.373 . S
C378 C379 1.429 . S
C378 H388 0.932 . S
C379 C376 1.358 . S
C379 C378 1.429 . S
C379 H389 0.930 . S
C380 C376 1.332 . S
C380 C381 1.394 . S
C380 H390 0.932 . S
C381 C377 1.308 . S
C381 C380 1.394 . S
C381 H391 0.929 . S
C382 Tb353 2.764 . S
C382 O366 1.239 . S
C382 O367 1.263 . S
C382 C376 1.504 . S
C383 O368 1.236 . S
C383 O369 1.257 . S
H384 C357 0.932 . S
H385 C358 0.930 . S
H386 C359 0.932 . S
H387 C360 0.929 . S
H388 C378 0.932 . S
H389 C379 0.930 . S
H390 C380 0.932 . S
H391 C381 0.929 . S
Tb392 C401 2.764 . S
Tb392 O402 2.325 . S
Tb392 O405 2.303 . S
Tb392 O409 2.322 1_545 S
Tb392 O410 2.349 . S
Tb392 O413 2.415 . S
Tb392 O414 2.399 . S
Tb393 O403 2.322 . S
Tb393 O404 2.349 . S
Tb393 O406 2.415 . S
Tb393 O407 2.399 . S
Tb393 O408 2.325 . S
Tb393 O411 2.303 . S
Tb393 C422 2.764 . S
C394 O410 1.261 . S
C394 O411 1.257 . S
C395 C398 1.358 . S
C395 C399 1.332 . S
C395 C401 1.504 . S
C396 C397 1.373 . S
C396 C400 1.308 . S
C397 C396 1.373 . S
C397 C398 1.429 . S
C397 H424 0.932 . S
C398 C395 1.358 . S
C398 C397 1.429 . S
C398 H425 0.930 . S
C399 C395 1.332 . S
C399 C400 1.394 . S
C399 H426 0.932 . S
C400 C396 1.308 . S
C400 C399 1.394 . S
C400 H427 0.929 . S
C401 Tb392 2.764 . S
C401 C395 1.504 . S
C401 O413 1.239 . S
C401 O414 1.263 . S
O402 Tb392 2.325 . S
O402 C412 1.236 . S
O403 Tb393 2.322 . S
O403 C412 1.257 . S
O404 Tb393 2.349 . S
O404 C415 1.261 . S
O405 Tb392 2.303 . S
O405 C415 1.257 . S
O406 Tb393 2.415 . S
O406 C422 1.239 . S
O407 Tb393 2.399 . S
O407 C422 1.263 . S
O408 Tb393 2.325 . S
O408 C423 1.236 1_545 S
O409 Tb392 2.322 1_565 S
O409 C423 1.257 . S
O410 Tb392 2.349 . S
O410 C394 1.261 . S
O411 Tb393 2.303 . S
O411 C394 1.257 . S
C412 O402 1.236 . S
C412 O403 1.257 . S
O413 Tb392 2.415 . S
O413 C401 1.239 . S
O414 Tb392 2.399 . S
O414 C401 1.263 . S
C415 O404 1.261 . S
C415 O405 1.257 . S
C416 C419 1.358 . S
C416 C420 1.332 1_545 S
C416 C422 1.504 . S
C417 C418 1.373 . S
C417 C421 1.308 . S
C418 C417 1.373 . S
C418 C419 1.429 1_565 S
C418 H428 0.932 1_565 S
C419 C416 1.358 . S
C419 C418 1.429 1_545 S
C419 H429 0.930 . S
C420 C416 1.332 1_565 S
C420 C421 1.394 . S
C420 H430 0.932 . S
C421 C417 1.308 . S
C421 C420 1.394 . S
C421 H431 0.929 . S
C422 Tb393 2.764 . S
C422 O406 1.239 . S
C422 O407 1.263 . S
C422 C416 1.504 . S
C423 O408 1.236 1_565 S
C423 O409 1.257 . S
H424 C397 0.932 . S
H425 C398 0.930 . S
H426 C399 0.932 . S
H427 C400 0.929 . S
H428 C418 0.932 1_545 S
H429 C419 0.930 . S
H430 C420 0.932 . S
H431 C421 0.929 . S
Tb432 C441 2.764 . S
Tb432 O442 2.325 . S
Tb432 O445 2.303 . S
Tb432 O449 2.322 . S
Tb432 O450 2.349 . S
Tb432 O453 2.415 . S
Tb432 O454 2.399 . S
Tb433 O443 2.322 . S
Tb433 O444 2.349 . S
Tb433 O446 2.415 . S
Tb433 O447 2.399 . S
Tb433 O448 2.325 . S
Tb433 O451 2.303 . S
Tb433 C462 2.764 . S
C434 O450 1.261 . S
C434 O451 1.257 . S
C435 C438 1.358 . S
C435 C439 1.332 . S
C435 C441 1.504 . S
C436 C437 1.373 . S
C436 C440 1.308 . S
C437 C436 1.373 . S
C437 C438 1.429 . S
C437 H464 0.932 . S
C438 C435 1.358 . S
C438 C437 1.429 . S
C438 H465 0.930 . S
C439 C435 1.332 . S
C439 C440 1.394 . S
C439 H466 0.932 . S
C440 C436 1.308 . S
C440 C439 1.394 . S
C440 H467 0.929 . S
C441 Tb432 2.764 . S
C441 C435 1.504 . S
C441 O453 1.239 . S
C441 O454 1.263 . S
O442 Tb432 2.325 . S
O442 C452 1.236 . S
O443 Tb433 2.322 . S
O443 C452 1.257 . S
O444 Tb433 2.349 . S
O444 C455 1.261 . S
O445 Tb432 2.303 . S
O445 C455 1.257 . S
O446 Tb433 2.415 . S
O446 C462 1.239 . S
O447 Tb433 2.399 . S
O447 C462 1.263 . S
O448 Tb433 2.325 . S
O448 C463 1.236 . S
O449 Tb432 2.322 . S
O449 C463 1.257 . S
O450 Tb432 2.349 . S
O450 C434 1.261 . S
O451 Tb433 2.303 . S
O451 C434 1.257 . S
C452 O442 1.236 . S
C452 O443 1.257 . S
O453 Tb432 2.415 . S
O453 C441 1.239 . S
O454 Tb432 2.399 . S
O454 C441 1.263 . S
C455 O444 1.261 . S
C455 O445 1.257 . S
C456 C459 1.358 . S
C456 C460 1.332 . S
C456 C462 1.504 . S
C457 C458 1.373 . S
C457 C461 1.308 . S
C458 C457 1.373 . S
C458 C459 1.429 . S
C458 H468 0.932 . S
C459 C456 1.358 . S
C459 C458 1.429 . S
C459 H469 0.930 . S
C460 C456 1.332 . S
C460 C461 1.394 . S
C460 H470 0.932 . S
C461 C457 1.308 . S
C461 C460 1.394 . S
C461 H471 0.929 . S
C462 Tb433 2.764 . S
C462 O446 1.239 . S
C462 O447 1.263 . S
C462 C456 1.504 . S
C463 O448 1.236 . S
C463 O449 1.257 . S
H464 C437 0.932 . S
H465 C438 0.930 . S
H466 C439 0.932 . S
H467 C440 0.929 . S
H468 C458 0.932 . S
H469 C459 0.930 . S
H470 C460 0.932 . S
H471 C461 0.929 . S
Tb472 C481 2.764 . S
Tb472 O482 2.325 . S
Tb472 O485 2.303 . S
Tb472 O489 2.322 . S
Tb472 O490 2.349 . S
Tb472 O493 2.415 . S
Tb472 O494 2.399 . S
Tb473 O483 2.322 . S
Tb473 O484 2.349 . S
Tb473 O486 2.415 . S
Tb473 O487 2.399 . S
Tb473 O488 2.325 . S
Tb473 O491 2.303 . S
Tb473 C502 2.764 . S
C474 O490 1.261 1_655 S
C474 O491 1.257 1_655 S
C475 C478 1.358 . S
C475 C479 1.332 . S
C475 C481 1.504 . S
C476 C477 1.373 . S
C476 C480 1.308 . S
C477 C476 1.373 . S
C477 C478 1.429 . S
C477 H504 0.932 . S
C478 C475 1.358 . S
C478 C477 1.429 . S
C478 H505 0.930 . S
C479 C475 1.332 . S
C479 C480 1.394 . S
C479 H506 0.932 . S
C480 C476 1.308 . S
C480 C479 1.394 . S
C480 H507 0.929 . S
C481 Tb472 2.764 . S
C481 C475 1.504 . S
C481 O493 1.239 . S
C481 O494 1.263 . S
O482 Tb472 2.325 . S
O482 C492 1.236 . S
O483 Tb473 2.322 . S
O483 C492 1.257 . S
O484 Tb473 2.349 . S
O484 C495 1.261 . S
O485 Tb472 2.303 . S
O485 C495 1.257 . S
O486 Tb473 2.415 . S
O486 C502 1.239 . S
O487 Tb473 2.399 . S
O487 C502 1.263 . S
O488 Tb473 2.325 . S
O488 C503 1.236 . S
O489 Tb472 2.322 . S
O489 C503 1.257 . S
O490 Tb472 2.349 . S
O490 C474 1.261 1_455 S
O491 Tb473 2.303 . S
O491 C474 1.257 1_455 S
C492 O482 1.236 . S
C492 O483 1.257 . S
O493 Tb472 2.415 . S
O493 C481 1.239 . S
O494 Tb472 2.399 . S
O494 C481 1.263 . S
C495 O484 1.261 . S
C495 O485 1.257 . S
C496 C499 1.358 . S
C496 C500 1.332 1_455 S
C496 C502 1.504 . S
C497 C498 1.373 1_655 S
C497 C501 1.308 . S
C498 C497 1.373 1_455 S
C498 C499 1.429 . S
C498 H508 0.932 . S
C499 C496 1.358 . S
C499 C498 1.429 . S
C499 H509 0.930 . S
C500 C496 1.332 1_655 S
C500 C501 1.394 . S
C500 H510 0.932 . S
C501 C497 1.308 . S
C501 C500 1.394 . S
C501 H511 0.929 . S
C502 Tb473 2.764 . S
C502 O486 1.239 . S
C502 O487 1.263 . S
C502 C496 1.504 . S
C503 O488 1.236 . S
C503 O489 1.257 . S
H504 C477 0.932 . S
H505 C478 0.930 . S
H506 C479 0.932 . S
H507 C480 0.929 . S
H508 C498 0.932 . S
H509 C499 0.930 . S
H510 C500 0.932 . S
H511 C501 0.929 . S
Tb512 C521 2.764 . S
Tb512 O522 2.325 . S
Tb512 O525 2.303 . S
Tb512 O529 2.322 . S
Tb512 O530 2.349 . S
Tb512 O533 2.415 . S
Tb512 O534 2.399 . S
Tb513 O523 2.322 . S
Tb513 O524 2.349 . S
Tb513 O526 2.415 . S
Tb513 O527 2.399 . S
Tb513 O528 2.325 . S
Tb513 O531 2.303 . S
Tb513 C542 2.764 . S
C514 O530 1.261 . S
C514 O531 1.257 . S
C515 C518 1.358 . S
C515 C519 1.332 . S
C515 C521 1.504 . S
C516 C517 1.373 . S
C516 C520 1.308 . S
C517 C516 1.373 . S
C517 C518 1.429 . S
C517 H544 0.932 . S
C518 C515 1.358 . S
C518 C517 1.429 . S
C518 H545 0.930 . S
C519 C515 1.332 . S
C519 C520 1.394 . S
C519 H546 0.932 . S
C520 C516 1.308 . S
C520 C519 1.394 . S
C520 H547 0.929 . S
C521 Tb512 2.764 . S
C521 C515 1.504 . S
C521 O533 1.239 . S
C521 O534 1.263 . S
O522 Tb512 2.325 . S
O522 C532 1.236 . S
O523 Tb513 2.322 . S
O523 C532 1.257 . S
O524 Tb513 2.349 . S
O524 C535 1.261 . S
O525 Tb512 2.303 . S
O525 C535 1.257 . S
O526 Tb513 2.415 . S
O526 C542 1.239 . S
O527 Tb513 2.399 . S
O527 C542 1.263 . S
O528 Tb513 2.325 . S
O528 C543 1.236 . S
O529 Tb512 2.322 . S
O529 C543 1.257 . S
O530 Tb512 2.349 . S
O530 C514 1.261 . S
O531 Tb513 2.303 . S
O531 C514 1.257 . S
C532 O522 1.236 . S
C532 O523 1.257 . S
O533 Tb512 2.415 . S
O533 C521 1.239 . S
O534 Tb512 2.399 . S
O534 C521 1.263 . S
C535 O524 1.261 . S
C535 O525 1.257 . S
C536 C539 1.358 . S
C536 C540 1.332 . S
C536 C542 1.504 . S
C537 C538 1.373 . S
C537 C541 1.308 . S
C538 C537 1.373 . S
C538 C539 1.429 . S
C538 H548 0.932 . S
C539 C536 1.358 . S
C539 C538 1.429 . S
C539 H549 0.930 . S
C540 C536 1.332 . S
C540 C541 1.394 . S
C540 H550 0.932 . S
C541 C537 1.308 . S
C541 C540 1.394 . S
C541 H551 0.929 . S
C542 Tb513 2.764 . S
C542 O526 1.239 . S
C542 O527 1.263 . S
C542 C536 1.504 . S
C543 O528 1.236 . S
C543 O529 1.257 . S
H544 C517 0.932 . S
H545 C518 0.930 . S
H546 C519 0.932 . S
H547 C520 0.929 . S
H548 C538 0.932 . S
H549 C539 0.930 . S
H550 C540 0.932 . S
H551 C541 0.929 . S
Tb552 C561 2.764 . S
Tb552 O562 2.325 . S
Tb552 O565 2.303 . S
Tb552 O569 2.322 1_545 S
Tb552 O570 2.349 . S
Tb552 O573 2.415 . S
Tb552 O574 2.399 . S
Tb553 O563 2.322 . S
Tb553 O564 2.349 . S
Tb553 O566 2.415 1_554 S
Tb553 O567 2.399 1_554 S
Tb553 O568 2.325 . S
Tb553 O571 2.303 . S
Tb553 C582 2.764 1_554 S
C554 O570 1.261 . S
C554 O571 1.257 . S
C555 C558 1.358 . S
C555 C559 1.332 . S
C555 C561 1.504 . S
C556 C557 1.373 . S
C556 C560 1.308 . S
C557 C556 1.373 . S
C557 C558 1.429 . S
C557 H584 0.932 . S
C558 C555 1.358 . S
C558 C557 1.429 . S
C558 H585 0.930 . S
C559 C555 1.332 . S
C559 C560 1.394 . S
C559 H586 0.932 . S
C560 C556 1.308 . S
C560 C559 1.394 . S
C560 H587 0.929 . S
C561 Tb552 2.764 . S
C561 C555 1.504 . S
C561 O573 1.239 . S
C561 O574 1.263 . S
O562 Tb552 2.325 . S
O562 C572 1.236 . S
O563 Tb553 2.322 . S
O563 C572 1.257 . S
O564 Tb553 2.349 . S
O564 C575 1.261 . S
O565 Tb552 2.303 . S
O565 C575 1.257 . S
O566 Tb553 2.415 1_556 S
O566 C582 1.239 . S
O567 Tb553 2.399 1_556 S
O567 C582 1.263 . S
O568 Tb553 2.325 . S
O568 C583 1.236 1_545 S
O569 Tb552 2.322 1_565 S
O569 C583 1.257 . S
O570 Tb552 2.349 . S
O570 C554 1.261 . S
O571 Tb553 2.303 . S
O571 C554 1.257 . S
C572 O562 1.236 . S
C572 O563 1.257 . S
O573 Tb552 2.415 . S
O573 C561 1.239 . S
O574 Tb552 2.399 . S
O574 C561 1.263 . S
C575 O564 1.261 . S
C575 O565 1.257 . S
C576 C579 1.358 . S
C576 C580 1.332 . S
C576 C582 1.504 . S
C577 C578 1.373 . S
C577 C581 1.308 . S
C578 C577 1.373 . S
C578 C579 1.429 . S
C578 H588 0.932 . S
C579 C576 1.358 . S
C579 C578 1.429 . S
C579 H589 0.930 . S
C580 C576 1.332 . S
C580 C581 1.394 . S
C580 H590 0.932 . S
C581 C577 1.308 . S
C581 C580 1.394 . S
C581 H591 0.929 . S
C582 Tb553 2.764 1_556 S
C582 O566 1.239 . S
C582 O567 1.263 . S
C582 C576 1.504 . S
C583 O568 1.236 1_565 S
C583 O569 1.257 . S
H584 C557 0.932 . S
H585 C558 0.930 . S
H586 C559 0.932 . S
H587 C560 0.929 . S
H588 C578 0.932 . S
H589 C579 0.930 . S
H590 C580 0.932 . S
H591 C581 0.929 . S
Tb592 C601 2.764 . S
Tb592 O602 2.325 . S
Tb592 O605 2.303 . S
Tb592 O609 2.322 . S
Tb592 O610 2.349 . S
Tb592 O613 2.415 . S
Tb592 O614 2.399 . S
Tb593 O603 2.322 . S
Tb593 O604 2.349 . S
Tb593 O606 2.415 . S
Tb593 O607 2.399 . S
Tb593 O608 2.325 . S
Tb593 O611 2.303 . S
Tb593 C622 2.764 . S
C594 O610 1.261 . S
C594 O611 1.257 . S
C595 C598 1.358 . S
C595 C599 1.332 . S
C595 C601 1.504 . S
C596 C597 1.373 . S
C596 C600 1.308 . S
C597 C596 1.373 . S
C597 C598 1.429 . S
C597 H624 0.932 . S
C598 C595 1.358 . S
C598 C597 1.429 . S
C598 H625 0.930 . S
C599 C595 1.332 . S
C599 C600 1.394 . S
C599 H626 0.932 . S
C600 C596 1.308 . S
C600 C599 1.394 . S
C600 H627 0.929 . S
C601 Tb592 2.764 . S
C601 C595 1.504 . S
C601 O613 1.239 . S
C601 O614 1.263 . S
O602 Tb592 2.325 . S
O602 C612 1.236 . S
O603 Tb593 2.322 . S
O603 C612 1.257 . S
O604 Tb593 2.349 . S
O604 C615 1.261 . S
O605 Tb592 2.303 . S
O605 C615 1.257 . S
O606 Tb593 2.415 . S
O606 C622 1.239 . S
O607 Tb593 2.399 . S
O607 C622 1.263 . S
O608 Tb593 2.325 . S
O608 C623 1.236 . S
O609 Tb592 2.322 . S
O609 C623 1.257 . S
O610 Tb592 2.349 . S
O610 C594 1.261 . S
O611 Tb593 2.303 . S
O611 C594 1.257 . S
C612 O602 1.236 . S
C612 O603 1.257 . S
O613 Tb592 2.415 . S
O613 C601 1.239 . S
O614 Tb592 2.399 . S
O614 C601 1.263 . S
C615 O604 1.261 . S
C615 O605 1.257 . S
C616 C619 1.358 . S
C616 C620 1.332 . S
C616 C622 1.504 . S
C617 C618 1.373 . S
C617 C621 1.308 . S
C618 C617 1.373 . S
C618 C619 1.429 . S
C618 H628 0.932 . S
C619 C616 1.358 . S
C619 C618 1.429 . S
C619 H629 0.930 . S
C620 C616 1.332 . S
C620 C621 1.394 . S
C620 H630 0.932 . S
C621 C617 1.308 . S
C621 C620 1.394 . S
C621 H631 0.929 . S
C622 Tb593 2.764 . S
C622 O606 1.239 . S
C622 O607 1.263 . S
C622 C616 1.504 . S
C623 O608 1.236 . S
C623 O609 1.257 . S
H624 C597 0.932 . S
H625 C598 0.930 . S
H626 C599 0.932 . S
H627 C600 0.929 . S
H628 C618 0.932 . S
H629 C619 0.930 . S
H630 C620 0.932 . S
H631 C621 0.929 . S
Tb632 C641 2.764 . S
Tb632 O642 2.325 . S
Tb632 O645 2.303 . S
Tb632 O649 2.322 . S
Tb632 O650 2.349 . S
Tb632 O653 2.415 . S
Tb632 O654 2.399 . S
Tb633 O643 2.322 . S
Tb633 O644 2.349 . S
Tb633 O646 2.415 1_554 S
Tb633 O647 2.399 1_554 S
Tb633 O648 2.325 . S
Tb633 O651 2.303 . S
Tb633 C662 2.764 1_554 S
C634 O650 1.261 . S
C634 O651 1.257 . S
C635 C638 1.358 . S
C635 C639 1.332 . S
C635 C641 1.504 . S
C636 C637 1.373 . S
C636 C640 1.308 . S
C637 C636 1.373 . S
C637 C638 1.429 . S
C637 H664 0.932 . S
C638 C635 1.358 . S
C638 C637 1.429 . S
C638 H665 0.930 . S
C639 C635 1.332 . S
C639 C640 1.394 . S
C639 H666 0.932 . S
C640 C636 1.308 . S
C640 C639 1.394 . S
C640 H667 0.929 . S
C641 Tb632 2.764 . S
C641 C635 1.504 . S
C641 O653 1.239 . S
C641 O654 1.263 . S
O642 Tb632 2.325 . S
O642 C652 1.236 . S
O643 Tb633 2.322 . S
O643 C652 1.257 . S
O644 Tb633 2.349 . S
O644 C655 1.261 . S
O645 Tb632 2.303 . S
O645 C655 1.257 . S
O646 Tb633 2.415 1_556 S
O646 C662 1.239 . S
O647 Tb633 2.399 1_556 S
O647 C662 1.263 . S
O648 Tb633 2.325 . S
O648 C663 1.236 . S
O649 Tb632 2.322 . S
O649 C663 1.257 . S
O650 Tb632 2.349 . S
O650 C634 1.261 . S
O651 Tb633 2.303 . S
O651 C634 1.257 . S
C652 O642 1.236 . S
C652 O643 1.257 . S
O653 Tb632 2.415 . S
O653 C641 1.239 . S
O654 Tb632 2.399 . S
O654 C641 1.263 . S
C655 O644 1.261 . S
C655 O645 1.257 . S
C656 C659 1.358 . S
C656 C660 1.332 . S
C656 C662 1.504 . S
C657 C658 1.373 . S
C657 C661 1.308 . S
C658 C657 1.373 . S
C658 C659 1.429 . S
C658 H668 0.932 . S
C659 C656 1.358 . S
C659 C658 1.429 . S
C659 H669 0.930 . S
C660 C656 1.332 . S
C660 C661 1.394 . S
C660 H670 0.932 . S
C661 C657 1.308 . S
C661 C660 1.394 . S
C661 H671 0.929 . S
C662 Tb633 2.764 1_556 S
C662 O646 1.239 . S
C662 O647 1.263 . S
C662 C656 1.504 . S
C663 O648 1.236 . S
C663 O649 1.257 . S
H664 C637 0.932 . S
H665 C638 0.930 . S
H666 C639 0.932 . S
H667 C640 0.929 . S
H668 C658 0.932 . S
H669 C659 0.930 . S
H670 C660 0.932 . S
H671 C661 0.929 . S
Tb672 C681 2.764 . S
Tb672 O682 2.325 . S
Tb672 O685 2.303 . S
Tb672 O689 2.322 . S
Tb672 O690 2.349 . S
Tb672 O693 2.415 . S
Tb672 O694 2.399 . S
Tb673 O683 2.322 . S
Tb673 O684 2.349 . S
Tb673 O686 2.415 . S
Tb673 O687 2.399 . S
Tb673 O688 2.325 . S
Tb673 O691 2.303 . S
Tb673 C702 2.764 . S
C674 O690 1.261 . S
C674 O691 1.257 . S
C675 C678 1.358 . S
C675 C679 1.332 . S
C675 C681 1.504 . S
C676 C677 1.373 . S
C676 C680 1.308 . S
C677 C676 1.373 . S
C677 C678 1.429 . S
C677 H704 0.932 . S
C678 C675 1.358 . S
C678 C677 1.429 . S
C678 H705 0.930 . S
C679 C675 1.332 . S
C679 C680 1.394 . S
C679 H706 0.932 . S
C680 C676 1.308 . S
C680 C679 1.394 . S
C680 H707 0.929 . S
C681 Tb672 2.764 . S
C681 C675 1.504 . S
C681 O693 1.239 . S
C681 O694 1.263 . S
O682 Tb672 2.325 . S
O682 C692 1.236 . S
O683 Tb673 2.322 . S
O683 C692 1.257 . S
O684 Tb673 2.349 . S
O684 C695 1.261 . S
O685 Tb672 2.303 . S
O685 C695 1.257 . S
O686 Tb673 2.415 . S
O686 C702 1.239 . S
O687 Tb673 2.399 . S
O687 C702 1.263 . S
O688 Tb673 2.325 . S
O688 C703 1.236 . S
O689 Tb672 2.322 . S
O689 C703 1.257 . S
O690 Tb672 2.349 . S
O690 C674 1.261 . S
O691 Tb673 2.303 . S
O691 C674 1.257 . S
C692 O682 1.236 . S
C692 O683 1.257 . S
O693 Tb672 2.415 . S
O693 C681 1.239 . S
O694 Tb672 2.399 . S
O694 C681 1.263 . S
C695 O684 1.261 . S
C695 O685 1.257 . S
C696 C699 1.358 . S
C696 C700 1.332 . S
C696 C702 1.504 . S
C697 C698 1.373 . S
C697 C701 1.308 . S
C698 C697 1.373 . S
C698 C699 1.429 . S
C698 H708 0.932 . S
C699 C696 1.358 . S
C699 C698 1.429 . S
C699 H709 0.930 . S
C700 C696 1.332 . S
C700 C701 1.394 . S
C700 H710 0.932 . S
C701 C697 1.308 . S
C701 C700 1.394 . S
C701 H711 0.929 . S
C702 Tb673 2.764 . S
C702 O686 1.239 . S
C702 O687 1.263 . S
C702 C696 1.504 . S
C703 O688 1.236 . S
C703 O689 1.257 . S
H704 C677 0.932 . S
H705 C678 0.930 . S
H706 C679 0.932 . S
H707 C680 0.929 . S
H708 C698 0.932 . S
H709 C699 0.930 . S
H710 C700 0.932 . S
H711 C701 0.929 . S
Tb712 C721 2.764 . S
Tb712 O722 2.325 . S
Tb712 O725 2.303 . S
Tb712 O729 2.322 . S
Tb712 O730 2.349 . S
Tb712 O733 2.415 . S
Tb712 O734 2.399 . S
Tb713 O723 2.322 . S
Tb713 O724 2.349 . S
Tb713 O726 2.415 . S
Tb713 O727 2.399 . S
Tb713 O728 2.325 . S
Tb713 O731 2.303 . S
Tb713 C742 2.764 . S
C714 O730 1.261 . S
C714 O731 1.257 . S
C715 C718 1.358 . S
C715 C719 1.332 1_455 S
C715 C721 1.504 . S
C716 C717 1.373 . S
C716 C720 1.308 1_455 S
C717 C716 1.373 . S
C717 C718 1.429 . S
C717 H744 0.932 . S
C718 C715 1.358 . S
C718 C717 1.429 . S
C718 H745 0.930 . S
C719 C715 1.332 1_655 S
C719 C720 1.394 . S
C719 H746 0.932 . S
C720 C716 1.308 1_655 S
C720 C719 1.394 . S
C720 H747 0.929 . S
C721 Tb712 2.764 . S
C721 C715 1.504 . S
C721 O733 1.239 . S
C721 O734 1.263 . S
O722 Tb712 2.325 . S
O722 C732 1.236 . S
O723 Tb713 2.322 . S
O723 C732 1.257 . S
O724 Tb713 2.349 . S
O724 C735 1.261 1_455 S
O725 Tb712 2.303 . S
O725 C735 1.257 1_455 S
O726 Tb713 2.415 . S
O726 C742 1.239 . S
O727 Tb713 2.399 . S
O727 C742 1.263 . S
O728 Tb713 2.325 . S
O728 C743 1.236 . S
O729 Tb712 2.322 . S
O729 C743 1.257 . S
O730 Tb712 2.349 . S
O730 C714 1.261 . S
O731 Tb713 2.303 . S
O731 C714 1.257 . S
C732 O722 1.236 . S
C732 O723 1.257 . S
O733 Tb712 2.415 . S
O733 C721 1.239 . S
O734 Tb712 2.399 . S
O734 C721 1.263 . S
C735 O724 1.261 1_655 S
C735 O725 1.257 1_655 S
C736 C739 1.358 . S
C736 C740 1.332 . S
C736 C742 1.504 . S
C737 C738 1.373 . S
C737 C741 1.308 . S
C738 C737 1.373 . S
C738 C739 1.429 . S
C738 H748 0.932 . S
C739 C736 1.358 . S
C739 C738 1.429 . S
C739 H749 0.930 . S
C740 C736 1.332 . S
C740 C741 1.394 . S
C740 H750 0.932 . S
C741 C737 1.308 . S
C741 C740 1.394 . S
C741 H751 0.929 . S
C742 Tb713 2.764 . S
C742 O726 1.239 . S
C742 O727 1.263 . S
C742 C736 1.504 . S
C743 O728 1.236 . S
C743 O729 1.257 . S
H744 C717 0.932 . S
H745 C718 0.930 . S
H746 C719 0.932 . S
H747 C720 0.929 . S
H748 C738 0.932 . S
H749 C739 0.930 . S
H750 C740 0.932 . S
H751 C741 0.929 . S
Tb752 C761 2.764 . S
Tb752 O762 2.325 . S
Tb752 O765 2.303 . S
Tb752 O769 2.322 . S
Tb752 O770 2.349 . S
Tb752 O773 2.415 . S
Tb752 O774 2.399 . S
Tb753 O763 2.322 . S
Tb753 O764 2.349 . S
Tb753 O766 2.415 . S
Tb753 O767 2.399 . S
Tb753 O768 2.325 . S
Tb753 O771 2.303 . S
Tb753 C782 2.764 . S
C754 O770 1.261 . S
C754 O771 1.257 . S
C755 C758 1.358 . S
C755 C759 1.332 . S
C755 C761 1.504 . S
C756 C757 1.373 . S
C756 C760 1.308 . S
C757 C756 1.373 . S
C757 C758 1.429 . S
C757 H784 0.932 . S
C758 C755 1.358 . S
C758 C757 1.429 . S
C758 H785 0.930 . S
C759 C755 1.332 . S
C759 C760 1.394 . S
C759 H786 0.932 . S
C760 C756 1.308 . S
C760 C759 1.394 . S
C760 H787 0.929 . S
C761 Tb752 2.764 . S
C761 C755 1.504 . S
C761 O773 1.239 . S
C761 O774 1.263 . S
O762 Tb752 2.325 . S
O762 C772 1.236 . S
O763 Tb753 2.322 . S
O763 C772 1.257 . S
O764 Tb753 2.349 . S
O764 C775 1.261 . S
O765 Tb752 2.303 . S
O765 C775 1.257 . S
O766 Tb753 2.415 . S
O766 C782 1.239 . S
O767 Tb753 2.399 . S
O767 C782 1.263 . S
O768 Tb753 2.325 . S
O768 C783 1.236 . S
O769 Tb752 2.322 . S
O769 C783 1.257 . S
O770 Tb752 2.349 . S
O770 C754 1.261 . S
O771 Tb753 2.303 . S
O771 C754 1.257 . S
C772 O762 1.236 . S
C772 O763 1.257 . S
O773 Tb752 2.415 . S
O773 C761 1.239 . S
O774 Tb752 2.399 . S
O774 C761 1.263 . S
C775 O764 1.261 . S
C775 O765 1.257 . S
C776 C779 1.358 . S
C776 C780 1.332 . S
C776 C782 1.504 . S
C777 C778 1.373 . S
C777 C781 1.308 . S
C778 C777 1.373 . S
C778 C779 1.429 . S
C778 H788 0.932 . S
C779 C776 1.358 . S
C779 C778 1.429 . S
C779 H789 0.930 . S
C780 C776 1.332 . S
C780 C781 1.394 . S
C780 H790 0.932 . S
C781 C777 1.308 . S
C781 C780 1.394 . S
C781 H791 0.929 . S
C782 Tb753 2.764 . S
C782 O766 1.239 . S
C782 O767 1.263 . S
C782 C776 1.504 . S
C783 O768 1.236 . S
C783 O769 1.257 . S
H784 C757 0.932 . S
H785 C758 0.930 . S
H786 C759 0.932 . S
H787 C760 0.929 . S
H788 C778 0.932 . S
H789 C779 0.930 . S
H790 C780 0.932 . S
H791 C781 0.929 . S
Tb792 C801 2.764 . S
Tb792 O802 2.325 . S
Tb792 O805 2.303 . S
Tb792 O809 2.322 . S
Tb792 O810 2.349 . S
Tb792 O813 2.415 . S
Tb792 O814 2.399 . S
Tb793 O803 2.322 . S
Tb793 O804 2.349 . S
Tb793 O806 2.415 . S
Tb793 O807 2.399 . S
Tb793 O808 2.325 . S
Tb793 O811 2.303 . S
Tb793 C822 2.764 . S
C794 O810 1.261 . S
C794 O811 1.257 . S
C795 C798 1.358 . S
C795 C799 1.332 . S
C795 C801 1.504 . S
C796 C797 1.373 . S
C796 C800 1.308 . S
C797 C796 1.373 . S
C797 C798 1.429 . S
C797 H824 0.932 . S
C798 C795 1.358 . S
C798 C797 1.429 . S
C798 H825 0.930 . S
C799 C795 1.332 . S
C799 C800 1.394 . S
C799 H826 0.932 . S
C800 C796 1.308 . S
C800 C799 1.394 . S
C800 H827 0.929 . S
C801 Tb792 2.764 . S
C801 C795 1.504 . S
C801 O813 1.239 . S
C801 O814 1.263 . S
O802 Tb792 2.325 . S
O802 C812 1.236 . S
O803 Tb793 2.322 . S
O803 C812 1.257 . S
O804 Tb793 2.349 . S
O804 C815 1.261 . S
O805 Tb792 2.303 . S
O805 C815 1.257 . S
O806 Tb793 2.415 . S
O806 C822 1.239 . S
O807 Tb793 2.399 . S
O807 C822 1.263 . S
O808 Tb793 2.325 . S
O808 C823 1.236 . S
O809 Tb792 2.322 . S
O809 C823 1.257 . S
O810 Tb792 2.349 . S
O810 C794 1.261 . S
O811 Tb793 2.303 . S
O811 C794 1.257 . S
C812 O802 1.236 . S
C812 O803 1.257 . S
O813 Tb792 2.415 . S
O813 C801 1.239 . S
O814 Tb792 2.399 . S
O814 C801 1.263 . S
C815 O804 1.261 . S
C815 O805 1.257 . S
C816 C819 1.358 . S
C816 C820 1.332 . S
C816 C822 1.504 . S
C817 C818 1.373 . S
C817 C821 1.308 . S
C818 C817 1.373 . S
C818 C819 1.429 . S
C818 H828 0.932 . S
C819 C816 1.358 . S
C819 C818 1.429 . S
C819 H829 0.930 . S
C820 C816 1.332 . S
C820 C821 1.394 . S
C820 H830 0.932 . S
C821 C817 1.308 . S
C821 C820 1.394 . S
C821 H831 0.929 . S
C822 Tb793 2.764 . S
C822 O806 1.239 . S
C822 O807 1.263 . S
C822 C816 1.504 . S
C823 O808 1.236 . S
C823 O809 1.257 . S
H824 C797 0.932 . S
H825 C798 0.930 . S
H826 C799 0.932 . S
H827 C800 0.929 . S
H828 C818 0.932 . S
H829 C819 0.930 . S
H830 C820 0.932 . S
H831 C821 0.929 . S
Tb832 C841 2.764 . S
Tb832 O842 2.325 . S
Tb832 O845 2.303 . S
Tb832 O849 2.322 . S
Tb832 O850 2.349 . S
Tb832 O853 2.415 . S
Tb832 O854 2.399 . S
Tb833 O843 2.322 . S
Tb833 O844 2.349 . S
Tb833 O846 2.415 . S
Tb833 O847 2.399 . S
Tb833 O848 2.325 . S
Tb833 O851 2.303 . S
Tb833 C862 2.764 . S
C834 O850 1.261 . S
C834 O851 1.257 . S
C835 C838 1.358 . S
C835 C839 1.332 . S
C835 C841 1.504 . S
C836 C837 1.373 . S
C836 C840 1.308 . S
C837 C836 1.373 . S
C837 C838 1.429 . S
C837 H864 0.932 . S
C838 C835 1.358 . S
C838 C837 1.429 . S
C838 H865 0.930 . S
C839 C835 1.332 . S
C839 C840 1.394 . S
C839 H866 0.932 . S
C840 C836 1.308 . S
C840 C839 1.394 . S
C840 H867 0.929 . S
C841 Tb832 2.764 . S
C841 C835 1.504 . S
C841 O853 1.239 . S
C841 O854 1.263 . S
O842 Tb832 2.325 . S
O842 C852 1.236 . S
O843 Tb833 2.322 . S
O843 C852 1.257 . S
O844 Tb833 2.349 . S
O844 C855 1.261 . S
O845 Tb832 2.303 . S
O845 C855 1.257 . S
O846 Tb833 2.415 . S
O846 C862 1.239 . S
O847 Tb833 2.399 . S
O847 C862 1.263 . S
O848 Tb833 2.325 . S
O848 C863 1.236 . S
O849 Tb832 2.322 . S
O849 C863 1.257 . S
O850 Tb832 2.349 . S
O850 C834 1.261 . S
O851 Tb833 2.303 . S
O851 C834 1.257 . S
C852 O842 1.236 . S
C852 O843 1.257 . S
O853 Tb832 2.415 . S
O853 C841 1.239 . S
O854 Tb832 2.399 . S
O854 C841 1.263 . S
C855 O844 1.261 . S
C855 O845 1.257 . S
C856 C859 1.358 . S
C856 C860 1.332 . S
C856 C862 1.504 . S
C857 C858 1.373 . S
C857 C861 1.308 . S
C858 C857 1.373 . S
C858 C859 1.429 . S
C858 H868 0.932 . S
C859 C856 1.358 . S
C859 C858 1.429 . S
C859 H869 0.930 . S
C860 C856 1.332 . S
C860 C861 1.394 . S
C860 H870 0.932 . S
C861 C857 1.308 . S
C861 C860 1.394 . S
C861 H871 0.929 . S
C862 Tb833 2.764 . S
C862 O846 1.239 . S
C862 O847 1.263 . S
C862 C856 1.504 . S
C863 O848 1.236 . S
C863 O849 1.257 . S
H864 C837 0.932 . S
H865 C838 0.930 . S
H866 C839 0.932 . S
H867 C840 0.929 . S
H868 C858 0.932 . S
H869 C859 0.930 . S
H870 C860 0.932 . S
H871 C861 0.929 . S
Tb872 C881 2.764 . S
Tb872 O882 2.325 . S
Tb872 O885 2.303 . S
Tb872 O889 2.322 . S
Tb872 O890 2.349 . S
Tb872 O893 2.415 . S
Tb872 O894 2.399 . S
Tb873 O883 2.322 . S
Tb873 O884 2.349 . S
Tb873 O886 2.415 . S
Tb873 O887 2.399 . S
Tb873 O888 2.325 . S
Tb873 O891 2.303 . S
Tb873 C902 2.764 . S
C874 O890 1.261 . S
C874 O891 1.257 . S
C875 C878 1.358 . S
C875 C879 1.332 . S
C875 C881 1.504 . S
C876 C877 1.373 . S
C876 C880 1.308 . S
C877 C876 1.373 . S
C877 C878 1.429 . S
C877 H904 0.932 . S
C878 C875 1.358 . S
C878 C877 1.429 . S
C878 H905 0.930 . S
C879 C875 1.332 . S
C879 C880 1.394 . S
C879 H906 0.932 . S
C880 C876 1.308 . S
C880 C879 1.394 . S
C880 H907 0.929 . S
C881 Tb872 2.764 . S
C881 C875 1.504 . S
C881 O893 1.239 . S
C881 O894 1.263 . S
O882 Tb872 2.325 . S
O882 C892 1.236 . S
O883 Tb873 2.322 . S
O883 C892 1.257 . S
O884 Tb873 2.349 . S
O884 C895 1.261 . S
O885 Tb872 2.303 . S
O885 C895 1.257 . S
O886 Tb873 2.415 . S
O886 C902 1.239 . S
O887 Tb873 2.399 . S
O887 C902 1.263 . S
O888 Tb873 2.325 . S
O888 C903 1.236 . S
O889 Tb872 2.322 . S
O889 C903 1.257 . S
O890 Tb872 2.349 . S
O890 C874 1.261 . S
O891 Tb873 2.303 . S
O891 C874 1.257 . S
C892 O882 1.236 . S
C892 O883 1.257 . S
O893 Tb872 2.415 . S
O893 C881 1.239 . S
O894 Tb872 2.399 . S
O894 C881 1.263 . S
C895 O884 1.261 . S
C895 O885 1.257 . S
C896 C899 1.358 . S
C896 C900 1.332 . S
C896 C902 1.504 . S
C897 C898 1.373 . S
C897 C901 1.308 . S
C898 C897 1.373 . S
C898 C899 1.429 . S
C898 H908 0.932 . S
C899 C896 1.358 . S
C899 C898 1.429 . S
C899 H909 0.930 . S
C900 C896 1.332 . S
C900 C901 1.394 . S
C900 H910 0.932 . S
C901 C897 1.308 . S
C901 C900 1.394 . S
C901 H911 0.929 . S
C902 Tb873 2.764 . S
C902 O886 1.239 . S
C902 O887 1.263 . S
C902 C896 1.504 . S
C903 O888 1.236 . S
C903 O889 1.257 . S
H904 C877 0.932 . S
H905 C878 0.930 . S
H906 C879 0.932 . S
H907 C880 0.929 . S
H908 C898 0.932 . S
H909 C899 0.930 . S
H910 C900 0.932 . S
H911 C901 0.929 . S
Tb912 C921 2.764 1_455 S
Tb912 O922 2.325 . S
Tb912 O925 2.303 . S
Tb912 O929 2.322 . S
Tb912 O930 2.349 . S
Tb912 O933 2.415 1_455 S
Tb912 O934 2.399 1_455 S
Tb913 O923 2.322 . S
Tb913 O924 2.349 1_554 S
Tb913 O926 2.415 . S
Tb913 O927 2.399 1_554 S
Tb913 O928 2.325 . S
Tb913 O931 2.303 . S
Tb913 C942 2.764 . S
C914 O930 1.261 . S
C914 O931 1.257 . S
C915 C918 1.358 . S
C915 C919 1.332 . S
C915 C921 1.504 . S
C916 C917 1.373 . S
C916 C920 1.308 . S
C917 C916 1.373 . S
C917 C918 1.429 . S
C917 H944 0.932 . S
C918 C915 1.358 . S
C918 C917 1.429 . S
C918 H945 0.930 . S
C919 C915 1.332 . S
C919 C920 1.394 . S
C919 H946 0.932 . S
C920 C916 1.308 . S
C920 C919 1.394 . S
C920 H947 0.929 . S
C921 Tb912 2.764 1_655 S
C921 C915 1.504 . S
C921 O933 1.239 . S
C921 O934 1.263 . S
O922 Tb912 2.325 . S
O922 C932 1.236 . S
O923 Tb913 2.322 . S
O923 C932 1.257 . S
O924 Tb913 2.349 1_556 S
O924 C935 1.261 . S
O925 Tb912 2.303 . S
O925 C935 1.257 1_554 S
O926 Tb913 2.415 . S
O926 C942 1.239 . S
O927 Tb913 2.399 1_556 S
O927 C942 1.263 1_556 S
O928 Tb913 2.325 . S
O928 C943 1.236 . S
O929 Tb912 2.322 . S
O929 C943 1.257 . S
O930 Tb912 2.349 . S
O930 C914 1.261 . S
O931 Tb913 2.303 . S
O931 C914 1.257 . S
C932 O922 1.236 . S
C932 O923 1.257 . S
O933 Tb912 2.415 1_655 S
O933 C921 1.239 . S
O934 Tb912 2.399 1_655 S
O934 C921 1.263 . S
C935 O924 1.261 . S
C935 O925 1.257 1_556 S
C936 C939 1.358 1_554 S
C936 C940 1.332 . S
C936 C942 1.504 . S
C937 C938 1.373 1_554 S
C937 C941 1.308 . S
C938 C937 1.373 1_556 S
C938 C939 1.429 . S
C938 H948 0.932 . S
C939 C936 1.358 1_556 S
C939 C938 1.429 . S
C939 H949 0.930 . S
C940 C936 1.332 . S
C940 C941 1.394 . S
C940 H950 0.932 . S
C941 C937 1.308 . S
C941 C940 1.394 . S
C941 H951 0.929 . S
C942 Tb913 2.764 . S
C942 O926 1.239 . S
C942 O927 1.263 1_554 S
C942 C936 1.504 . S
C943 O928 1.236 . S
C943 O929 1.257 . S
H944 C917 0.932 . S
H945 C918 0.930 . S
H946 C919 0.932 . S
H947 C920 0.929 . S
H948 C938 0.932 . S
H949 C939 0.930 . S
H950 C940 0.932 . S
H951 C941 0.929 . S
C952 C953 1.387 1_656 S
C952 H956 0.950 . S
C952 C961 1.390 1_655 S
C953 C952 1.387 1_454 S
C953 C955 1.387 . S
H954 C961 0.950 . S
C955 C953 1.387 . S
C955 C957 1.390 . S
C955 H959 0.950 . S
H956 C952 0.950 . S
C957 C955 1.390 . S
C957 C958 1.387 . S
C957 H960 0.950 . S
C958 C957 1.387 . S
C958 C961 1.387 1_554 S
H959 C955 0.950 . S
H960 C957 0.950 . S
C961 C952 1.390 1_455 S
C961 H954 0.950 . S
C961 C958 1.387 1_556 S
C962 C963 1.387 . S
C962 H966 0.950 . S
C962 C971 1.390 . S
C963 C962 1.387 . S
C963 C965 1.387 . S
H964 C971 0.950 . S
C965 C963 1.387 . S
C965 C967 1.390 . S
C965 H969 0.950 . S
H966 C962 0.950 . S
C967 C965 1.390 . S
C967 C968 1.387 . S
C967 H970 0.950 . S
C968 C967 1.387 . S
C968 C971 1.387 . S
H969 C965 0.950 . S
H970 C967 0.950 . S
C971 C962 1.390 . S
C971 H964 0.950 . S
C971 C968 1.387 . S
C972 C973 1.387 . S
C972 H976 0.950 . S
C972 C981 1.390 . S
C973 C972 1.387 . S
C973 C975 1.387 . S
H974 C981 0.950 . S
C975 C973 1.387 . S
C975 C977 1.390 . S
C975 H979 0.950 . S
H976 C972 0.950 . S
C977 C975 1.390 . S
C977 C978 1.387 . S
C977 H980 0.950 . S
C978 C977 1.387 . S
C978 C981 1.387 . S
H979 C975 0.950 . S
H980 C977 0.950 . S
C981 C972 1.390 . S
C981 H974 0.950 . S
C981 C978 1.387 . S
C982 C983 1.387 . S
C982 H986 0.950 . S
C982 C991 1.390 . S
C983 C982 1.387 . S
C983 C985 1.387 . S
H984 C991 0.950 . S
C985 C983 1.387 . S
C985 C987 1.390 . S
C985 H989 0.950 . S
H986 C982 0.950 . S
C987 C985 1.390 . S
C987 C988 1.387 . S
C987 H990 0.950 . S
C988 C987 1.387 . S
C988 C991 1.387 . S
H989 C985 0.950 . S
H990 C987 0.950 . S
C991 C982 1.390 . S
C991 H984 0.950 . S
C991 C988 1.387 . S
C992 C993 1.387 . S
C992 H996 0.950 . S
C992 C1001 1.390 . S
C993 C992 1.387 . S
C993 C995 1.387 . S
H994 C1001 0.950 . S
C995 C993 1.387 . S
C995 C997 1.390 . S
C995 H999 0.950 . S
H996 C992 0.950 . S
C997 C995 1.390 . S
C997 C998 1.387 . S
C997 H1000 0.950 . S
C998 C997 1.387 . S
C998 C1001 1.387 . S
H999 C995 0.950 . S
H1000 C997 0.950 . S
C1001 C992 1.390 . S
C1001 H994 0.950 . S
C1001 C998 1.387 . S
C1002 C1003 1.387 . S
C1002 H1006 0.950 . S
C1002 C1011 1.390 . S
C1003 C1002 1.387 . S
C1003 C1005 1.387 . S
H1004 C1011 0.950 . S
C1005 C1003 1.387 . S
C1005 C1007 1.390 . S
C1005 H1009 0.950 . S
H1006 C1002 0.950 . S
C1007 C1005 1.390 . S
C1007 C1008 1.387 . S
C1007 H1010 0.950 . S
C1008 C1007 1.387 . S
C1008 C1011 1.387 . S
H1009 C1005 0.950 . S
H1010 C1007 0.950 . S
C1011 C1002 1.390 . S
C1011 H1004 0.950 . S
C1011 C1008 1.387 . S
C1012 C1013 1.387 . S
C1012 H1016 0.950 . S
C1012 C1021 1.390 . S
C1013 C1012 1.387 . S
C1013 C1015 1.387 . S
H1014 C1021 0.950 . S
C1015 C1013 1.387 . S
C1015 C1017 1.390 . S
C1015 H1019 0.950 . S
H1016 C1012 0.950 . S
C1017 C1015 1.390 . S
C1017 C1018 1.387 . S
C1017 H1020 0.950 . S
C1018 C1017 1.387 . S
C1018 C1021 1.387 . S
H1019 C1015 0.950 . S
H1020 C1017 0.950 . S
C1021 C1012 1.390 . S
C1021 H1014 0.950 . S
C1021 C1018 1.387 . S
C1022 C1023 1.387 . S
C1022 H1026 0.950 . S
C1022 C1031 1.390 . S
C1023 C1022 1.387 . S
C1023 C1025 1.387 . S
H1024 C1031 0.950 . S
C1025 C1023 1.387 . S
C1025 C1027 1.390 . S
C1025 H1029 0.950 . S
H1026 C1022 0.950 . S
C1027 C1025 1.390 . S
C1027 C1028 1.387 . S
C1027 H1030 0.950 . S
C1028 C1027 1.387 . S
C1028 C1031 1.387 . S
H1029 C1025 0.950 . S
H1030 C1027 0.950 . S
C1031 C1022 1.390 . S
C1031 H1024 0.950 . S
C1031 C1028 1.387 . S
C1032 C1033 1.387 1_565 S
C1032 H1036 0.950 . S
C1032 C1041 1.390 1_665 S
C1033 C1032 1.387 1_545 S
C1033 C1035 1.387 . S
H1034 C1041 0.950 . S
C1035 C1033 1.387 . S
C1035 C1037 1.390 . S
C1035 H1039 0.950 . S
H1036 C1032 0.950 . S
C1037 C1035 1.390 . S
C1037 C1038 1.387 1_655 S
C1037 H1040 0.950 . S
C1038 C1037 1.387 1_455 S
C1038 C1041 1.387 . S
H1039 C1035 0.950 . S
H1040 C1037 0.950 . S
C1041 C1032 1.390 1_445 S
C1041 H1034 0.950 . S
C1041 C1038 1.387 . S
C1042 C1043 1.387 . S
C1042 H1046 0.950 . S
C1042 C1051 1.390 . S
C1043 C1042 1.387 . S
C1043 C1045 1.387 . S
H1044 C1051 0.950 . S
C1045 C1043 1.387 . S
C1045 C1047 1.390 . S
C1045 H1049 0.950 . S
H1046 C1042 0.950 . S
C1047 C1045 1.390 . S
C1047 C1048 1.387 . S
C1047 H1050 0.950 . S
C1048 C1047 1.387 . S
C1048 C1051 1.387 . S
H1049 C1045 0.950 . S
H1050 C1047 0.950 . S
C1051 C1042 1.390 . S
C1051 H1044 0.950 . S
C1051 C1048 1.387 . S
C1052 C1053 1.387 . S
C1052 H1056 0.950 . S
C1052 C1061 1.390 . S
C1053 C1052 1.387 . S
C1053 C1055 1.387 . S
H1054 C1061 0.950 . S
C1055 C1053 1.387 . S
C1055 C1057 1.390 . S
C1055 H1059 0.950 . S
H1056 C1052 0.950 . S
C1057 C1055 1.390 . S
C1057 C1058 1.387 . S
C1057 H1060 0.951 1_545 S
C1058 C1057 1.387 . S
C1058 C1061 1.387 . S
H1059 C1055 0.950 . S
H1060 C1057 0.951 1_565 S
C1061 C1052 1.390 . S
C1061 H1054 0.950 . S
C1061 C1058 1.387 . S
C1062 C1063 1.387 . S
C1062 H1066 0.950 . S
C1062 C1071 1.390 . S
C1063 C1062 1.387 . S
C1063 C1065 1.387 . S
H1064 C1071 0.950 . S
C1065 C1063 1.387 . S
C1065 C1067 1.390 . S
C1065 H1069 0.950 . S
H1066 C1062 0.950 . S
C1067 C1065 1.390 . S
C1067 C1068 1.387 . S
C1067 H1070 0.950 . S
C1068 C1067 1.387 . S
C1068 C1071 1.387 . S
H1069 C1065 0.950 . S
H1070 C1067 0.950 . S
C1071 C1062 1.390 . S
C1071 H1064 0.950 . S
C1071 C1068 1.387 . S
C1072 C1073 1.387 1_565 S
C1072 H1076 0.950 . S
C1072 C1081 1.390 . S
C1073 C1072 1.387 1_545 S
C1073 C1075 1.387 . S
H1074 C1081 0.950 . S
C1075 C1073 1.387 . S
C1075 C1077 1.390 . S
C1075 H1079 0.950 . S
H1076 C1072 0.950 . S
C1077 C1075 1.390 . S
C1077 C1078 1.387 . S
C1077 H1080 0.950 . S
C1078 C1077 1.387 . S
C1078 C1081 1.387 1_545 S
H1079 C1075 0.950 . S
H1080 C1077 0.950 . S
C1081 C1072 1.390 . S
C1081 H1074 0.950 . S
C1081 C1078 1.387 1_565 S
C1082 C1083 1.387 . S
C1082 H1086 0.950 . S
C1082 C1091 1.390 . S
C1083 C1082 1.387 . S
C1083 C1085 1.387 . S
H1084 C1091 0.950 . S
C1085 C1083 1.387 . S
C1085 C1087 1.390 . S
C1085 H1089 0.950 . S
H1086 C1082 0.950 . S
C1087 C1085 1.390 . S
C1087 C1088 1.387 . S
C1087 H1090 0.950 . S
C1088 C1087 1.387 . S
C1088 C1091 1.387 . S
H1089 C1085 0.950 . S
H1090 C1087 0.950 . S
C1091 C1082 1.390 . S
C1091 H1084 0.950 . S
C1091 C1088 1.387 . S
C1092 C1093 1.387 . S
C1092 H1096 0.950 . S
C1092 C1101 1.390 . S
C1093 C1092 1.387 . S
C1093 C1095 1.387 . S
H1094 C1101 0.950 . S
C1095 C1093 1.387 . S
C1095 C1097 1.390 . S
C1095 H1099 0.950 . S
H1096 C1092 0.950 . S
C1097 C1095 1.390 . S
C1097 C1098 1.387 . S
C1097 H1100 0.950 . S
C1098 C1097 1.387 . S
C1098 C1101 1.387 . S
H1099 C1095 0.950 . S
H1100 C1097 0.950 . S
C1101 C1092 1.390 . S
C1101 H1094 0.950 . S
C1101 C1098 1.387 . S
C1102 C1103 1.387 . S
C1102 H1106 0.950 . S
C1102 C1111 1.390 . S
C1103 C1102 1.387 . S
C1103 C1105 1.387 . S
H1104 C1111 0.950 . S
C1105 C1103 1.387 . S
C1105 C1107 1.390 . S
C1105 H1109 0.950 . S
H1106 C1102 0.950 . S
C1107 C1105 1.390 . S
C1107 C1108 1.387 . S
C1107 H1110 0.950 . S
C1108 C1107 1.387 . S
C1108 C1111 1.387 . S
H1109 C1105 0.950 . S
H1110 C1107 0.950 . S
C1111 C1102 1.390 . S
C1111 H1104 0.950 . S
C1111 C1108 1.387 . S
C1112 C1113 1.387 . S
C1112 H1116 0.978 . S
C1112 C1121 1.390 . S
C1113 C1112 1.387 . S
C1113 C1115 1.387 . S
H1114 C1121 0.950 . S
C1115 C1113 1.387 . S
C1115 C1117 1.390 . S
C1115 H1119 0.950 . S
H1116 C1112 0.978 . S
C1117 C1115 1.390 . S
C1117 C1118 1.387 . S
C1117 H1120 0.950 . S
C1118 C1117 1.387 . S
C1118 C1121 1.387 . S
H1119 C1115 0.950 . S
H1120 C1117 0.950 . S
C1121 C1112 1.390 . S
C1121 H1114 0.950 . S
C1121 C1118 1.387 . S
C1122 C1123 1.387 . S
C1122 H1126 0.950 . S
C1122 C1131 1.390 . S
C1123 C1122 1.387 . S
C1123 C1125 1.387 . S
H1124 C1131 0.950 . S
C1125 C1123 1.387 . S
C1125 C1127 1.390 . S
C1125 H1129 0.950 . S
H1126 C1122 0.950 . S
C1127 C1125 1.390 . S
C1127 C1128 1.387 . S
C1127 H1130 0.950 . S
C1128 C1127 1.387 . S
C1128 C1131 1.387 . S
H1129 C1125 0.950 . S
H1130 C1127 0.950 . S
C1131 C1122 1.390 . S
C1131 H1124 0.950 . S
C1131 C1128 1.387 . S
C1132 C1133 1.387 . S
C1132 H1136 0.950 . S
C1132 C1141 1.390 . S
C1133 C1132 1.387 . S
C1133 C1135 1.387 . S
H1134 C1141 0.950 . S
C1135 C1133 1.387 . S
C1135 C1137 1.390 . S
C1135 H1139 0.950 . S
H1136 C1132 0.950 . S
C1137 C1135 1.390 . S
C1137 C1138 1.387 . S
C1137 H1140 0.950 . S
C1138 C1137 1.387 . S
C1138 C1141 1.387 . S
H1139 C1135 0.950 . S
H1140 C1137 0.950 . S
C1141 C1132 1.390 . S
C1141 H1134 0.950 . S
C1141 C1138 1.387 . S
C1142 C1143 1.387 . S
C1142 H1146 0.950 . S
C1142 C1151 1.390 . S
C1143 C1142 1.387 . S
C1143 C1145 1.387 . S
H1144 C1151 0.950 . S
C1145 C1143 1.387 . S
C1145 C1147 1.390 . S
C1145 H1149 0.950 . S
H1146 C1142 0.950 . S
C1147 C1145 1.390 . S
C1147 C1148 1.387 . S
C1147 H1150 0.950 . S
C1148 C1147 1.387 . S
C1148 C1151 1.387 . S
H1149 C1145 0.950 . S
H1150 C1147 0.950 . S
C1151 C1142 1.390 . S
C1151 H1144 0.950 . S
C1151 C1148 1.387 . S
C1152 C1153 1.387 . S
C1152 H1156 0.950 . S
C1152 C1161 1.390 . S
C1153 C1152 1.387 . S
C1153 C1155 1.387 . S
H1154 C1161 0.950 . S
C1155 C1153 1.387 . S
C1155 C1157 1.390 . S
C1155 H1159 0.950 . S
H1156 C1152 0.950 . S
C1157 C1155 1.390 . S
C1157 C1158 1.387 . S
C1157 H1160 0.950 . S
C1158 C1157 1.387 . S
C1158 C1161 1.387 . S
H1159 C1155 0.950 . S
H1160 C1157 0.950 . S
C1161 C1152 1.390 . S
C1161 H1154 0.950 . S
C1161 C1158 1.387 . S
C1162 C1163 1.387 . S
C1162 H1166 0.950 . S
C1162 C1171 1.390 . S
C1163 C1162 1.387 . S
C1163 C1165 1.387 . S
H1164 C1171 0.950 . S
C1165 C1163 1.387 . S
C1165 C1167 1.390 . S
C1165 H1169 0.950 . S
H1166 C1162 0.950 . S
C1167 C1165 1.390 . S
C1167 C1168 1.387 . S
C1167 H1170 0.950 . S
C1168 C1167 1.387 . S
C1168 C1171 1.387 . S
H1169 C1165 0.950 . S
H1170 C1167 0.950 . S
C1171 C1162 1.390 . S
C1171 H1164 0.950 . S
C1171 C1168 1.387 . S
C1172 C1173 1.387 . S
C1172 H1176 0.950 . S
C1172 C1181 1.390 . S
C1173 C1172 1.387 . S
C1173 C1175 1.387 . S
H1174 C1181 0.950 . S
C1175 C1173 1.387 . S
C1175 C1177 1.390 . S
C1175 H1179 0.950 . S
H1176 C1172 0.950 . S
C1177 C1175 1.390 . S
C1177 C1178 1.387 . S
C1177 H1180 0.950 . S
C1178 C1177 1.387 . S
C1178 C1181 1.387 . S
H1179 C1175 0.950 . S
H1180 C1177 0.950 . S
C1181 C1172 1.390 . S
C1181 H1174 0.950 . S
C1181 C1178 1.387 . S
C1182 C1183 1.387 . S
C1182 H1186 0.950 . S
C1182 C1191 1.390 . S
C1183 C1182 1.387 . S
C1183 C1185 1.387 . S
H1184 C1191 0.950 . S
C1185 C1183 1.387 . S
C1185 C1187 1.390 . S
C1185 H1189 0.950 . S
H1186 C1182 0.950 . S
C1187 C1185 1.390 . S
C1187 C1188 1.387 . S
C1187 H1190 0.950 . S
C1188 C1187 1.387 . S
C1188 C1191 1.387 . S
H1189 C1185 0.950 . S
H1190 C1187 0.950 . S
C1191 C1182 1.390 . S
C1191 H1184 0.950 . S
C1191 C1188 1.387 . S
C1192 C1193 1.387 . S
C1192 H1196 0.950 . S
C1192 C1201 1.390 . S
C1193 C1192 1.387 . S
C1193 C1195 1.387 . S
H1194 C1201 0.950 . S
C1195 C1193 1.387 . S
C1195 C1197 1.390 . S
C1195 H1199 0.950 . S
H1196 C1192 0.950 . S
C1197 C1195 1.390 . S
C1197 C1198 1.387 . S
C1197 H1200 0.950 . S
C1198 C1197 1.387 . S
C1198 C1201 1.387 . S
H1199 C1195 0.950 . S
H1200 C1197 0.950 . S
C1201 C1192 1.390 . S
C1201 H1194 0.950 . S
C1201 C1198 1.387 . S
C1202 C1203 1.387 . S
C1202 H1206 0.950 . S
C1202 C1211 1.390 . S
C1203 C1202 1.387 . S
C1203 C1205 1.387 . S
H1204 C1211 0.950 . S
C1205 C1203 1.387 . S
C1205 C1207 1.390 . S
C1205 H1209 0.950 . S
H1206 C1202 0.950 . S
C1207 C1205 1.390 . S
C1207 C1208 1.387 . S
C1207 H1210 0.950 . S
C1208 C1207 1.387 . S
C1208 C1211 1.387 . S
H1209 C1205 0.950 . S
H1210 C1207 0.950 . S
C1211 C1202 1.390 . S
C1211 H1204 0.950 . S
C1211 C1208 1.387 . S
C1212 C1213 1.387 . S
C1212 H1216 0.950 . S
C1212 C1221 1.390 . S
C1213 C1212 1.387 . S
C1213 C1215 1.387 . S
H1214 C1221 0.950 . S
C1215 C1213 1.387 . S
C1215 C1217 1.390 . S
C1215 H1219 0.950 . S
H1216 C1212 0.950 . S
C1217 C1215 1.390 . S
C1217 C1218 1.387 . S
C1217 H1220 0.950 . S
C1218 C1217 1.387 . S
C1218 C1221 1.387 . S
H1219 C1215 0.950 . S
H1220 C1217 0.950 . S
C1221 C1212 1.390 . S
C1221 H1214 0.950 . S
C1221 C1218 1.387 . S
C1222 C1223 1.387 . S
C1222 H1226 0.950 . S
C1222 C1231 1.390 . S
C1223 C1222 1.387 . S
C1223 C1225 1.387 . S
H1224 C1231 0.950 . S
C1225 C1223 1.387 . S
C1225 C1227 1.390 . S
C1225 H1229 0.950 . S
H1226 C1222 0.950 . S
C1227 C1225 1.390 . S
C1227 C1228 1.387 . S
C1227 H1230 0.950 . S
C1228 C1227 1.387 . S
C1228 C1231 1.387 . S
H1229 C1225 0.950 . S
H1230 C1227 0.950 . S
C1231 C1222 1.390 . S
C1231 H1224 0.950 . S
C1231 C1228 1.387 . S
C1232 C1233 1.387 . S
C1232 H1236 0.950 1_455 S
C1232 C1241 1.390 . S
C1233 C1232 1.387 . S
C1233 C1235 1.387 . S
H1234 C1241 0.950 1_655 S
C1235 C1233 1.387 . S
C1235 C1237 1.390 . S
C1235 H1239 0.950 . S
H1236 C1232 0.950 1_655 S
C1237 C1235 1.390 . S
C1237 C1238 1.387 . S
C1237 H1240 0.950 . S
C1238 C1237 1.387 . S
C1238 C1241 1.387 . S
H1239 C1235 0.950 . S
H1240 C1237 0.950 . S
C1241 C1232 1.390 . S
C1241 H1234 0.950 1_455 S
C1241 C1238 1.387 . S
C1242 C1243 1.387 . S
C1242 H1246 0.950 . S
C1242 C1251 1.390 . S
C1243 C1242 1.387 . S
C1243 C1245 1.387 . S
H1244 C1251 0.950 . S
C1245 C1243 1.387 . S
C1245 C1247 1.390 . S
C1245 H1249 0.950 . S
H1246 C1242 0.950 . S
C1247 C1245 1.390 . S
C1247 C1248 1.387 . S
C1247 H1250 0.950 . S
C1248 C1247 1.387 . S
C1248 C1251 1.387 . S
H1249 C1245 0.950 . S
H1250 C1247 0.950 . S
C1251 C1242 1.390 . S
C1251 H1244 0.950 . S
C1251 C1248 1.387 . S
C1252 C1253 1.387 . S
C1252 H1256 0.950 . S
C1252 C1261 1.390 . S
C1253 C1252 1.387 . S
C1253 C1255 1.387 . S
H1254 C1261 0.950 . S
C1255 C1253 1.387 . S
C1255 C1257 1.390 1_556 S
C1255 H1259 0.950 1_556 S
H1256 C1252 0.950 . S
C1257 C1255 1.390 1_554 S
C1257 C1258 1.387 1_554 S
C1257 H1260 0.950 . S
C1258 C1257 1.387 1_556 S
C1258 C1261 1.387 . S
H1259 C1255 0.950 1_554 S
H1260 C1257 0.950 . S
C1261 C1252 1.390 . S
C1261 H1254 0.950 . S
C1261 C1258 1.387 . S
C1262 C1263 1.387 . S
C1262 H1266 0.950 . S
C1262 C1271 1.390 . S
C1263 C1262 1.387 . S
C1263 C1265 1.387 . S
H1264 C1271 0.950 . S
C1265 C1263 1.387 . S
C1265 C1267 1.390 . S
C1265 H1269 0.950 . S
H1266 C1262 0.950 . S
C1267 C1265 1.390 . S
C1267 C1268 1.387 . S
C1267 H1270 0.950 . S
C1268 C1267 1.387 . S
C1268 C1271 1.387 . S
H1269 C1265 0.950 . S
H1270 C1267 0.950 . S
C1271 C1262 1.390 . S
C1271 H1264 0.950 . S
C1271 C1268 1.387 . S
C1272 C1273 1.387 . S
C1272 H1276 0.950 . S
C1272 C1281 1.390 . S
C1273 C1272 1.387 . S
C1273 C1275 1.387 . S
H1274 C1281 0.950 . S
C1275 C1273 1.387 . S
C1275 C1277 1.390 . S
C1275 H1279 0.950 . S
H1276 C1272 0.950 . S
C1277 C1275 1.390 . S
C1277 C1278 1.387 . S
C1277 H1280 0.950 . S
C1278 C1277 1.387 . S
C1278 C1281 1.387 . S
H1279 C1275 0.950 . S
H1280 C1277 0.950 . S
C1281 C1272 1.390 . S
C1281 H1274 0.950 . S
C1281 C1278 1.387 . S
C1282 C1283 1.387 . S
C1282 H1286 0.950 . S
C1282 C1291 1.390 . S
C1283 C1282 1.387 . S
C1283 C1285 1.387 . S
H1284 C1291 0.950 . S
C1285 C1283 1.387 . S
C1285 C1287 1.390 . S
C1285 H1289 0.950 . S
H1286 C1282 0.950 . S
C1287 C1285 1.390 . S
C1287 C1288 1.387 . S
C1287 H1290 0.950 . S
C1288 C1287 1.387 . S
C1288 C1291 1.387 . S
H1289 C1285 0.950 . S
H1290 C1287 0.950 . S
C1291 C1282 1.390 . S
C1291 H1284 0.950 . S
C1291 C1288 1.387 . S
C1292 C1293 1.387 . S
C1292 H1296 0.950 1_545 S
C1292 C1301 1.390 . S
C1293 C1292 1.387 . S
C1293 C1295 1.387 . S
H1294 C1301 0.950 . S
C1295 C1293 1.387 . S
C1295 C1297 1.390 . S
C1295 H1299 0.950 . S
H1296 C1292 0.950 1_565 S
C1297 C1295 1.390 . S
C1297 C1298 1.387 . S
C1297 H1300 0.950 . S
C1298 C1297 1.387 . S
C1298 C1301 1.387 . S
H1299 C1295 0.950 . S
H1300 C1297 0.950 . S
C1301 C1292 1.390 . S
C1301 H1294 0.950 . S
C1301 C1298 1.387 . S
C1302 C1303 1.387 . S
C1302 H1306 0.950 . S
C1302 C1311 1.390 . S
C1303 C1302 1.387 . S
C1303 C1305 1.387 . S
H1304 C1311 0.950 . S
C1305 C1303 1.387 . S
C1305 C1307 1.390 . S
C1305 H1309 0.950 . S
H1306 C1302 0.950 . S
C1307 C1305 1.390 . S
C1307 C1308 1.387 . S
C1307 H1310 0.950 . S
C1308 C1307 1.387 . S
C1308 C1311 1.387 . S
H1309 C1305 0.950 . S
H1310 C1307 0.950 . S
C1311 C1302 1.390 . S
C1311 H1304 0.950 . S
C1311 C1308 1.387 . S
C1312 C1313 1.387 . S
C1312 H1316 0.950 . S
C1312 C1321 1.390 . S
C1313 C1312 1.387 . S
C1313 C1315 1.387 . S
H1314 C1321 0.950 . S
C1315 C1313 1.387 . S
C1315 C1317 1.390 . S
C1315 H1319 0.950 . S
H1316 C1312 0.950 . S
C1317 C1315 1.390 . S
C1317 C1318 1.387 . S
C1317 H1320 0.950 . S
C1318 C1317 1.387 . S
C1318 C1321 1.387 . S
H1319 C1315 0.950 . S
H1320 C1317 0.950 . S
C1321 C1312 1.390 . S
C1321 H1314 0.950 . S
C1321 C1318 1.387 . S
C1322 C1323 1.387 . S
C1322 H1326 0.950 . S
C1322 C1331 1.390 . S
C1323 C1322 1.387 . S
C1323 C1325 1.387 . S
H1324 C1331 0.950 . S
C1325 C1323 1.387 . S
C1325 C1327 1.390 . S
C1325 H1329 0.950 . S
H1326 C1322 0.950 . S
C1327 C1325 1.390 . S
C1327 C1328 1.387 . S
C1327 H1330 0.950 . S
C1328 C1327 1.387 . S
C1328 C1331 1.387 . S
H1329 C1325 0.950 . S
H1330 C1327 0.950 . S
C1331 C1322 1.390 . S
C1331 H1324 0.950 . S
C1331 C1328 1.387 . S
C1332 C1333 1.387 . S
C1332 H1336 0.950 1_545 S
C1332 C1341 1.390 . S
C1333 C1332 1.387 . S
C1333 C1335 1.387 . S
H1334 C1341 0.950 1_565 S
C1335 C1333 1.387 . S
C1335 C1337 1.390 . S
C1335 H1339 0.950 . S
H1336 C1332 0.950 1_565 S
C1337 C1335 1.390 . S
C1337 C1338 1.387 . S
C1337 H1340 0.950 . S
C1338 C1337 1.387 . S
C1338 C1341 1.387 . S
H1339 C1335 0.950 . S
H1340 C1337 0.950 . S
C1341 C1332 1.390 . S
C1341 H1334 0.950 1_545 S
C1341 C1338 1.387 . S
C1342 C1343 1.387 . S
C1342 H1346 0.950 . S
C1342 C1351 1.390 . S
C1343 C1342 1.387 . S
C1343 C1345 1.387 . S
H1344 C1351 0.950 . S
C1345 C1343 1.387 . S
C1345 C1347 1.390 . S
C1345 H1349 0.950 . S
H1346 C1342 0.950 . S
C1347 C1345 1.390 . S
C1347 C1348 1.387 . S
C1347 H1350 0.950 . S
C1348 C1347 1.387 . S
C1348 C1351 1.387 . S
H1349 C1345 0.950 . S
H1350 C1347 0.950 . S
C1351 C1342 1.390 . S
C1351 H1344 0.950 . S
C1351 C1348 1.387 . S
C1352 C1353 1.387 . S
C1352 H1356 0.950 . S
C1352 C1361 1.390 . S
C1353 C1352 1.387 . S
C1353 C1355 1.387 . S
H1354 C1361 0.950 1_556 S
C1355 C1353 1.387 . S
C1355 C1357 1.390 . S
C1355 H1359 0.950 . S
H1356 C1352 0.950 . S
C1357 C1355 1.390 . S
C1357 C1358 1.387 . S
C1357 H1360 0.950 . S
C1358 C1357 1.387 . S
C1358 C1361 1.387 . S
H1359 C1355 0.950 . S
H1360 C1357 0.950 . S
C1361 C1352 1.390 . S
C1361 H1354 0.950 1_554 S
C1361 C1358 1.387 . S
C1362 C1363 1.387 . S
C1362 H1366 0.950 . S
C1362 C1371 1.390 . S
C1363 C1362 1.387 . S
C1363 C1365 1.387 . S
H1364 C1371 0.950 . S
C1365 C1363 1.387 . S
C1365 C1367 1.390 . S
C1365 H1369 0.950 . S
H1366 C1362 0.950 . S
C1367 C1365 1.390 . S
C1367 C1368 1.387 . S
C1367 H1370 0.950 . S
C1368 C1367 1.387 . S
C1368 C1371 1.387 . S
H1369 C1365 0.950 . S
H1370 C1367 0.950 . S
C1371 C1362 1.390 . S
C1371 H1364 0.950 . S
C1371 C1368 1.387 . S
C1372 C1373 1.387 . S
C1372 H1376 0.950 . S
C1372 C1381 1.390 . S
C1373 C1372 1.387 . S
C1373 C1375 1.387 . S
H1374 C1381 0.950 . S
C1375 C1373 1.387 . S
C1375 C1377 1.390 . S
C1375 H1379 0.950 . S
H1376 C1372 0.950 . S
C1377 C1375 1.390 . S
C1377 C1378 1.387 . S
C1377 H1380 0.950 . S
C1378 C1377 1.387 . S
C1378 C1381 1.387 . S
H1379 C1375 0.950 . S
H1380 C1377 0.950 . S
C1381 C1372 1.390 . S
C1381 H1374 0.950 . S
C1381 C1378 1.387 . S
C1382 C1383 1.387 . S
C1382 H1386 0.950 . S
C1382 C1391 1.390 . S
C1383 C1382 1.387 . S
C1383 C1385 1.387 . S
H1384 C1391 0.950 . S
C1385 C1383 1.387 . S
C1385 C1387 1.390 . S
C1385 H1389 0.950 . S
H1386 C1382 0.950 . S
C1387 C1385 1.390 . S
C1387 C1388 1.387 . S
C1387 H1390 0.950 . S
C1388 C1387 1.387 . S
C1388 C1391 1.387 . S
H1389 C1385 0.950 . S
H1390 C1387 0.950 . S
C1391 C1382 1.390 . S
C1391 H1384 0.950 . S
C1391 C1388 1.387 . S
C1392 C1393 1.387 1_565 S
C1392 H1396 0.950 . S
C1392 C1401 1.390 . S
C1393 C1392 1.387 1_545 S
C1393 C1395 1.387 . S
H1394 C1401 0.950 . S
C1395 C1393 1.387 . S
C1395 C1397 1.390 . S
C1395 H1399 0.950 . S
H1396 C1392 0.950 . S
C1397 C1395 1.390 . S
C1397 C1398 1.387 1_545 S
C1397 H1400 0.950 . S
C1398 C1397 1.387 1_565 S
C1398 C1401 1.387 . S
H1399 C1395 0.950 . S
H1400 C1397 0.950 . S
C1401 C1392 1.390 . S
C1401 H1394 0.950 . S
C1401 C1398 1.387 . S
C1402 C1403 1.387 . S
C1402 H1406 0.950 . S
C1402 C1411 1.390 . S
C1403 C1402 1.387 . S
C1403 C1405 1.387 . S
H1404 C1411 0.950 1_545 S
C1405 C1403 1.387 . S
C1405 C1407 1.390 . S
C1405 H1409 0.950 . S
H1406 C1402 0.950 . S
C1407 C1405 1.390 . S
C1407 C1408 1.387 . S
C1407 H1410 0.950 . S
C1408 C1407 1.387 . S
C1408 C1411 1.387 . S
H1409 C1405 0.950 . S
H1410 C1407 0.950 . S
C1411 C1402 1.390 . S
C1411 H1404 0.950 1_565 S
C1411 C1408 1.387 . S
C1412 C1413 1.387 . S
C1412 H1416 0.950 . S
C1412 C1421 1.390 . S
C1413 C1412 1.387 . S
C1413 C1415 1.387 . S
H1414 C1421 0.950 . S
C1415 C1413 1.387 . S
C1415 C1417 1.390 . S
C1415 H1419 0.950 . S
H1416 C1412 0.950 . S
C1417 C1415 1.390 . S
C1417 C1418 1.387 . S
C1417 H1420 0.950 . S
C1418 C1417 1.387 . S
C1418 C1421 1.387 . S
H1419 C1415 0.950 . S
H1420 C1417 0.950 . S
C1421 C1412 1.390 . S
C1421 H1414 0.950 . S
C1421 C1418 1.387 . S
C1422 C1423 1.387 . S
C1422 H1426 0.950 . S
C1422 C1431 1.390 . S
C1423 C1422 1.387 . S
C1423 C1425 1.387 . S
H1424 C1431 0.950 . S
C1425 C1423 1.387 . S
C1425 C1427 1.390 . S
C1425 H1429 0.950 . S
H1426 C1422 0.950 . S
C1427 C1425 1.390 . S
C1427 C1428 1.387 . S
C1427 H1430 0.950 . S
C1428 C1427 1.387 . S
C1428 C1431 1.387 . S
H1429 C1425 0.950 . S
H1430 C1427 0.950 . S
C1431 C1422 1.390 . S
C1431 H1424 0.950 . S
C1431 C1428 1.387 . S
C1432 C1433 1.387 . S
C1432 H1436 0.950 . S
C1432 C1441 1.390 . S
C1433 C1432 1.387 . S
C1433 C1435 1.387 . S
H1434 C1441 0.950 . S
C1435 C1433 1.387 . S
C1435 C1437 1.390 . S
C1435 H1439 0.950 . S
H1436 C1432 0.950 . S
C1437 C1435 1.390 . S
C1437 C1438 1.387 . S
C1437 H1440 0.950 . S
C1438 C1437 1.387 . S
C1438 C1441 1.387 . S
H1439 C1435 0.950 . S
H1440 C1437 0.950 . S
C1441 C1432 1.390 . S
C1441 H1434 0.950 . S
C1441 C1438 1.387 . S
C1442 C1443 1.387 . S
C1442 H1446 0.950 . S
C1442 C1451 1.390 . S
C1443 C1442 1.387 . S
C1443 C1445 1.387 . S
H1444 C1451 0.950 . S
C1445 C1443 1.387 . S
C1445 C1447 1.390 . S
C1445 H1449 0.950 . S
H1446 C1442 0.950 . S
C1447 C1445 1.390 . S
C1447 C1448 1.387 . S
C1447 H1450 0.950 . S
C1448 C1447 1.387 . S
C1448 C1451 1.387 . S
H1449 C1445 0.950 . S
H1450 C1447 0.950 . S
C1451 C1442 1.390 . S
C1451 H1444 0.950 . S
C1451 C1448 1.387 . S
C1452 C1453 1.387 1_655 S
C1452 H1456 0.950 1_554 S
C1452 C1461 1.390 1_655 S
C1453 C1452 1.387 1_455 S
C1453 C1455 1.387 . S
H1454 C1461 0.950 1_655 S
C1455 C1453 1.387 . S
C1455 C1457 1.390 . S
C1455 H1459 0.950 . S
H1456 C1452 0.950 1_556 S
C1457 C1455 1.390 . S
C1457 C1458 1.387 . S
C1457 H1460 0.950 . S
C1458 C1457 1.387 . S
C1458 C1461 1.387 . S
H1459 C1455 0.950 . S
H1460 C1457 0.950 . S
C1461 C1452 1.390 1_455 S
C1461 H1454 0.950 1_455 S
C1461 C1458 1.387 . S
C1462 C1463 1.387 . S
C1462 H1466 0.950 . S
C1462 C1471 1.390 1_455 S
C1463 C1462 1.387 . S
C1463 C1465 1.387 . S
H1464 C1471 0.950 . S
C1465 C1463 1.387 . S
C1465 C1467 1.390 1_455 S
C1465 H1469 0.950 . S
H1466 C1462 0.950 . S
C1467 C1465 1.390 1_655 S
C1467 C1468 1.387 . S
C1467 H1470 0.950 . S
C1468 C1467 1.387 . S
C1468 C1471 1.387 . S
H1469 C1465 0.950 . S
H1470 C1467 0.950 . S
C1471 C1462 1.390 1_655 S
C1471 H1464 0.950 . S
C1471 C1468 1.387 . S
C1472 C1473 1.387 . S
C1472 H1476 0.950 . S
C1472 C1481 1.390 . S
C1473 C1472 1.387 . S
C1473 C1475 1.387 . S
H1474 C1481 0.950 . S
C1475 C1473 1.387 . S
C1475 C1477 1.390 . S
C1475 H1479 0.950 . S
H1476 C1472 0.950 . S
C1477 C1475 1.390 . S
C1477 C1478 1.387 . S
C1477 H1480 0.950 . S
C1478 C1477 1.387 . S
C1478 C1481 1.387 . S
H1479 C1475 0.950 . S
H1480 C1477 0.950 . S
C1481 C1472 1.390 . S
C1481 H1474 0.950 . S
C1481 C1478 1.387 . S
C1482 C1483 1.387 . S
C1482 H1486 0.950 . S
C1482 C1491 1.390 . S
C1483 C1482 1.387 . S
C1483 C1485 1.387 . S
H1484 C1491 0.950 . S
C1485 C1483 1.387 . S
C1485 C1487 1.390 . S
C1485 H1489 0.950 . S
H1486 C1482 0.950 . S
C1487 C1485 1.390 . S
C1487 C1488 1.387 . S
C1487 H1490 0.950 . S
C1488 C1487 1.387 . S
C1488 C1491 1.387 . S
H1489 C1485 0.950 . S
H1490 C1487 0.950 . S
C1491 C1482 1.390 . S
C1491 H1484 0.950 . S
C1491 C1488 1.387 . S
C1492 C1493 1.387 . S
C1492 H1496 0.950 . S
C1492 C1501 1.390 . S
C1493 C1492 1.387 . S
C1493 C1495 1.387 . S
H1494 C1501 0.950 . S
C1495 C1493 1.387 . S
C1495 C1497 1.390 . S
C1495 H1499 0.950 . S
H1496 C1492 0.950 . S
C1497 C1495 1.390 . S
C1497 C1498 1.387 . S
C1497 H1500 0.950 . S
C1498 C1497 1.387 . S
C1498 C1501 1.387 . S
H1499 C1495 0.950 . S
H1500 C1497 0.950 . S
C1501 C1492 1.390 . S
C1501 H1494 0.950 . S
C1501 C1498 1.387 . S
C1502 C1503 1.387 . S
C1502 H1506 0.950 . S
C1502 C1511 1.390 . S
C1503 C1502 1.387 . S
C1503 C1505 1.387 . S
H1504 C1511 0.950 . S
C1505 C1503 1.387 . S
C1505 C1507 1.390 . S
C1505 H1509 0.950 . S
H1506 C1502 0.950 . S
C1507 C1505 1.390 . S
C1507 C1508 1.387 . S
C1507 H1510 0.950 . S
C1508 C1507 1.387 . S
C1508 C1511 1.387 . S
H1509 C1505 0.950 . S
H1510 C1507 0.950 . S
C1511 C1502 1.390 . S
C1511 H1504 0.950 . S
C1511 C1508 1.387 . S
C1512 C1513 1.387 . S
C1512 H1516 0.950 . S
C1512 C1521 1.390 . S
C1513 C1512 1.387 . S
C1513 C1515 1.387 . S
H1514 C1521 0.950 . S
C1515 C1513 1.387 . S
C1515 C1517 1.390 . S
C1515 H1519 0.950 . S
H1516 C1512 0.950 . S
C1517 C1515 1.390 . S
C1517 C1518 1.387 . S
C1517 H1520 0.950 . S
C1518 C1517 1.387 . S
C1518 C1521 1.387 . S
H1519 C1515 0.950 . S
H1520 C1517 0.950 . S
C1521 C1512 1.390 . S
C1521 H1514 0.950 . S
C1521 C1518 1.387 . S
C1522 C1523 1.387 . S
C1522 H1526 0.950 . S
C1522 C1531 1.390 1_554 S
C1523 C1522 1.387 . S
C1523 C1525 1.387 . S
H1524 C1531 0.950 . S
C1525 C1523 1.387 . S
C1525 C1527 1.390 1_554 S
C1525 H1529 0.950 . S
H1526 C1522 0.950 . S
C1527 C1525 1.390 1_556 S
C1527 C1528 1.387 . S
C1527 H1530 0.950 . S
C1528 C1527 1.387 . S
C1528 C1531 1.387 . S
H1529 C1525 0.950 . S
H1530 C1527 0.950 . S
C1531 C1522 1.390 1_556 S
C1531 H1524 0.950 . S
C1531 C1528 1.387 . S
C1532 C1533 1.387 . S
C1532 H1536 0.950 . S
C1532 C1541 1.390 . S
C1533 C1532 1.387 . S
C1533 C1535 1.387 . S
H1534 C1541 0.950 . S
C1535 C1533 1.387 . S
C1535 C1537 1.390 . S
C1535 H1539 0.950 . S
H1536 C1532 0.950 . S
C1537 C1535 1.390 . S
C1537 C1538 1.387 . S
C1537 H1540 0.950 . S
C1538 C1537 1.387 . S
C1538 C1541 1.387 . S
H1539 C1535 0.950 . S
H1540 C1537 0.950 . S
C1541 C1532 1.390 . S
C1541 H1534 0.950 . S
C1541 C1538 1.387 . S
C1542 C1543 1.387 . S
C1542 H1546 0.950 . S
C1542 C1551 1.390 . S
C1543 C1542 1.387 . S
C1543 C1545 1.387 . S
H1544 C1551 0.950 . S
C1545 C1543 1.387 . S
C1545 C1547 1.390 . S
C1545 H1549 0.950 . S
H1546 C1542 0.950 . S
C1547 C1545 1.390 . S
C1547 C1548 1.387 . S
C1547 H1550 0.950 . S
C1548 C1547 1.387 . S
C1548 C1551 1.387 . S
H1549 C1545 0.950 . S
H1550 C1547 0.950 . S
C1551 C1542 1.390 . S
C1551 H1544 0.950 . S
C1551 C1548 1.387 . S
C1552 C1553 1.387 . S
C1552 H1556 0.950 . S
C1552 C1561 1.390 . S
C1553 C1552 1.387 . S
C1553 C1555 1.387 . S
H1554 C1561 0.950 . S
C1555 C1553 1.387 . S
C1555 C1557 1.390 . S
C1555 H1559 0.950 . S
H1556 C1552 0.950 . S
C1557 C1555 1.390 . S
C1557 C1558 1.387 . S
C1557 H1560 0.950 . S
C1558 C1557 1.387 . S
C1558 C1561 1.387 . S
H1559 C1555 0.950 . S
H1560 C1557 0.950 . S
C1561 C1552 1.390 . S
C1561 H1554 0.950 . S
C1561 C1558 1.387 . S
C1562 C1563 1.387 . S
C1562 H1566 0.950 . S
C1562 C1571 1.390 . S
C1563 C1562 1.387 . S
C1563 C1565 1.387 . S
H1564 C1571 0.950 . S
C1565 C1563 1.387 . S
C1565 C1567 1.390 . S
C1565 H1569 0.950 . S
H1566 C1562 0.950 . S
C1567 C1565 1.390 . S
C1567 C1568 1.387 . S
C1567 H1570 0.950 . S
C1568 C1567 1.387 . S
C1568 C1571 1.387 . S
H1569 C1565 0.950 . S
H1570 C1567 0.950 . S
C1571 C1562 1.390 . S
C1571 H1564 0.950 . S
C1571 C1568 1.387 . S
C1572 C1573 1.387 . S
C1572 H1576 0.950 . S
C1572 C1581 1.390 . S
C1573 C1572 1.387 . S
C1573 C1575 1.387 . S
H1574 C1581 0.950 . S
C1575 C1573 1.387 . S
C1575 C1577 1.390 . S
C1575 H1579 0.950 . S
H1576 C1572 0.950 . S
C1577 C1575 1.390 . S
C1577 C1578 1.387 . S
C1577 H1580 0.950 . S
C1578 C1577 1.387 . S
C1578 C1581 1.387 . S
H1579 C1575 0.950 . S
H1580 C1577 0.950 . S
C1581 C1572 1.390 . S
C1581 H1574 0.950 . S
C1581 C1578 1.387 . S
C1582 C1583 1.387 . S
C1582 H1586 0.950 . S
C1582 C1591 1.390 . S
C1583 C1582 1.387 . S
C1583 C1585 1.387 . S
H1584 C1591 0.950 . S
C1585 C1583 1.387 . S
C1585 C1587 1.390 . S
C1585 H1589 0.950 . S
H1586 C1582 0.950 . S
C1587 C1585 1.390 . S
C1587 C1588 1.387 . S
C1587 H1590 0.950 . S
C1588 C1587 1.387 . S
C1588 C1591 1.387 . S
H1589 C1585 0.950 . S
H1590 C1587 0.950 . S
C1591 C1582 1.390 . S
C1591 H1584 0.950 . S
C1591 C1588 1.387 . S
C1592 C1593 1.387 . S
C1592 H1596 0.950 . S
C1592 C1601 1.390 . S
C1593 C1592 1.387 . S
C1593 C1595 1.387 . S
H1594 C1601 0.950 . S
C1595 C1593 1.387 . S
C1595 C1597 1.390 . S
C1595 H1599 0.950 . S
H1596 C1592 0.950 . S
C1597 C1595 1.390 . S
C1597 C1598 1.387 . S
C1597 H1600 0.950 . S
C1598 C1597 1.387 . S
C1598 C1601 1.387 . S
H1599 C1595 0.950 . S
H1600 C1597 0.950 . S
C1601 C1592 1.390 . S
C1601 H1594 0.950 . S
C1601 C1598 1.387 . S
C1602 C1603 1.387 . S
C1602 H1606 0.950 . S
C1602 C1611 1.390 . S
C1603 C1602 1.387 . S
C1603 C1605 1.387 . S
H1604 C1611 0.950 . S
C1605 C1603 1.387 . S
C1605 C1607 1.390 . S
C1605 H1609 0.950 . S
H1606 C1602 0.950 . S
C1607 C1605 1.390 . S
C1607 C1608 1.387 . S
C1607 H1610 0.950 . S
C1608 C1607 1.387 . S
C1608 C1611 1.387 . S
H1609 C1605 0.950 . S
H1610 C1607 0.950 . S
C1611 C1602 1.390 . S
C1611 H1604 0.950 . S
C1611 C1608 1.387 . S
C1612 C1613 1.387 . S
C1612 H1616 0.950 . S
C1612 C1621 1.390 . S
C1613 C1612 1.387 . S
C1613 C1615 1.387 1_545 S
H1614 C1621 0.950 . S
C1615 C1613 1.387 1_565 S
C1615 C1617 1.390 . S
C1615 H1619 0.950 . S
H1616 C1612 0.950 . S
C1617 C1615 1.390 . S
C1617 C1618 1.387 1_565 S
C1617 H1620 0.950 . S
C1618 C1617 1.387 1_545 S
C1618 C1621 1.387 . S
H1619 C1615 0.950 . S
H1620 C1617 0.950 . S
C1621 C1612 1.390 . S
C1621 H1614 0.950 . S
C1621 C1618 1.387 . S
C1622 C1623 1.387 . S
C1622 H1626 0.950 . S
C1622 C1631 1.390 . S
C1623 C1622 1.387 . S
C1623 C1625 1.387 1_545 S
H1624 C1631 0.950 . S
C1625 C1623 1.387 1_565 S
C1625 C1627 1.390 . S
C1625 H1629 0.950 . S
H1626 C1622 0.950 . S
C1627 C1625 1.390 . S
C1627 C1628 1.387 1_565 S
C1627 H1630 0.950 . S
C1628 C1627 1.387 1_545 S
C1628 C1631 1.387 . S
H1629 C1625 0.950 . S
H1630 C1627 0.950 . S
C1631 C1622 1.390 . S
C1631 H1624 0.950 . S
C1631 C1628 1.387 . S
C1632 C1633 1.387 . S
C1632 H1636 0.950 . S
C1632 C1641 1.390 . S
C1633 C1632 1.387 . S
C1633 C1635 1.387 . S
H1634 C1641 0.950 . S
C1635 C1633 1.387 . S
C1635 C1637 1.390 . S
C1635 H1639 0.950 . S
H1636 C1632 0.950 . S
C1637 C1635 1.390 . S
C1637 C1638 1.387 . S
C1637 H1640 0.950 . S
C1638 C1637 1.387 . S
C1638 C1641 1.387 . S
H1639 C1635 0.950 . S
H1640 C1637 0.950 . S
C1641 C1632 1.390 . S
C1641 H1634 0.950 . S
C1641 C1638 1.387 . S
C1642 C1643 1.387 . S
C1642 H1646 0.950 . S
C1642 C1651 1.390 . S
C1643 C1642 1.387 . S
C1643 C1645 1.387 . S
H1644 C1651 0.950 . S
C1645 C1643 1.387 . S
C1645 C1647 1.390 . S
C1645 H1649 0.950 . S
H1646 C1642 0.950 . S
C1647 C1645 1.390 . S
C1647 C1648 1.387 . S
C1647 H1650 0.950 . S
C1648 C1647 1.387 . S
C1648 C1651 1.387 . S
H1649 C1645 0.950 . S
H1650 C1647 0.950 . S
C1651 C1642 1.390 . S
C1651 H1644 0.950 . S
C1651 C1648 1.387 . S
C1652 C1653 1.387 . S
C1652 H1656 0.950 . S
C1652 C1661 1.390 . S
C1653 C1652 1.387 . S
C1653 C1655 1.387 . S
H1654 C1661 0.950 . S
C1655 C1653 1.387 . S
C1655 C1657 1.390 . S
C1655 H1659 0.950 . S
H1656 C1652 0.950 . S
C1657 C1655 1.390 . S
C1657 C1658 1.387 . S
C1657 H1660 0.950 . S
C1658 C1657 1.387 . S
C1658 C1661 1.387 . S
H1659 C1655 0.950 . S
H1660 C1657 0.950 . S
C1661 C1652 1.390 . S
C1661 H1654 0.950 . S
C1661 C1658 1.387 . S
C1662 C1663 1.387 . S
C1662 H1666 0.950 . S
C1662 C1671 1.390 . S
C1663 C1662 1.387 . S
C1663 C1665 1.387 . S
H1664 C1671 0.950 . S
C1665 C1663 1.387 . S
C1665 C1667 1.390 . S
C1665 H1669 0.950 . S
H1666 C1662 0.950 . S
C1667 C1665 1.390 . S
C1667 C1668 1.387 . S
C1667 H1670 0.950 . S
C1668 C1667 1.387 . S
C1668 C1671 1.387 . S
H1669 C1665 0.950 . S
H1670 C1667 0.950 . S
C1671 C1662 1.390 . S
C1671 H1664 0.950 . S
C1671 C1668 1.387 . S
C1672 C1673 1.387 . S
C1672 H1676 0.950 . S
C1672 C1681 1.390 . S
C1673 C1672 1.387 . S
C1673 C1675 1.387 . S
H1674 C1681 0.950 . S
C1675 C1673 1.387 . S
C1675 C1677 1.390 . S
C1675 H1679 0.950 . S
H1676 C1672 0.950 . S
C1677 C1675 1.390 . S
C1677 C1678 1.387 . S
C1677 H1680 0.950 . S
C1678 C1677 1.387 . S
C1678 C1681 1.387 . S
H1679 C1675 0.950 . S
H1680 C1677 0.950 . S
C1681 C1672 1.390 . S
C1681 H1674 0.950 . S
C1681 C1678 1.387 . S
C1682 C1683 1.387 . S
C1682 H1686 0.950 . S
C1682 C1691 1.390 . S
C1683 C1682 1.387 . S
C1683 C1685 1.387 . S
H1684 C1691 0.950 . S
C1685 C1683 1.387 . S
C1685 C1687 1.390 . S
C1685 H1689 0.950 . S
H1686 C1682 0.950 . S
C1687 C1685 1.390 . S
C1687 C1688 1.387 . S
C1687 H1690 0.950 . S
C1688 C1687 1.387 . S
C1688 C1691 1.387 . S
H1689 C1685 0.950 . S
H1690 C1687 0.950 . S
C1691 C1682 1.390 . S
C1691 H1684 0.950 . S
C1691 C1688 1.387 . S
C1692 C1693 1.387 . S
C1692 H1696 0.950 . S
C1692 C1701 1.390 . S
C1693 C1692 1.387 . S
C1693 C1695 1.387 . S
H1694 C1701 0.950 . S
C1695 C1693 1.387 . S
C1695 C1697 1.390 . S
C1695 H1699 0.950 . S
H1696 C1692 0.950 . S
C1697 C1695 1.390 . S
C1697 C1698 1.387 . S
C1697 H1700 0.950 . S
C1698 C1697 1.387 . S
C1698 C1701 1.387 . S
H1699 C1695 0.950 . S
H1700 C1697 0.950 . S
C1701 C1692 1.390 . S
C1701 H1694 0.950 . S
C1701 C1698 1.387 . S
C1702 C1703 1.387 . S
C1702 H1706 0.950 . S
C1702 C1711 1.390 . S
C1703 C1702 1.387 . S
C1703 C1705 1.387 . S
H1704 C1711 0.950 . S
C1705 C1703 1.387 . S
C1705 C1707 1.390 . S
C1705 H1709 0.950 . S
H1706 C1702 0.950 . S
C1707 C1705 1.390 . S
C1707 C1708 1.387 . S
C1707 H1710 0.950 . S
C1708 C1707 1.387 . S
C1708 C1711 1.387 . S
H1709 C1705 0.950 . S
H1710 C1707 0.950 . S
C1711 C1702 1.390 . S
C1711 H1704 0.950 . S
C1711 C1708 1.387 . S
C1712 C1713 1.387 . S
C1712 H1716 0.950 1_556 S
C1712 C1721 1.390 1_556 S
C1713 C1712 1.387 . S
C1713 C1715 1.387 . S
H1714 C1721 0.950 . S
C1715 C1713 1.387 . S
C1715 C1717 1.390 . S
C1715 H1719 0.950 . S
H1716 C1712 0.950 1_554 S
C1717 C1715 1.390 . S
C1717 C1718 1.387 . S
C1717 H1720 0.950 . S
C1718 C1717 1.387 . S
C1718 C1721 1.387 1_556 S
H1719 C1715 0.950 . S
H1720 C1717 0.950 . S
C1721 C1712 1.390 1_554 S
C1721 H1714 0.950 . S
C1721 C1718 1.387 1_554 S
C1722 C1723 1.387 . S
C1722 H1726 0.950 . S
C1722 C1731 1.390 . S
C1723 C1722 1.387 . S
C1723 C1725 1.387 . S
H1724 C1731 0.950 . S
C1725 C1723 1.387 . S
C1725 C1727 1.390 . S
C1725 H1729 0.950 . S
H1726 C1722 0.950 . S
C1727 C1725 1.390 . S
C1727 C1728 1.387 . S
C1727 H1730 0.950 . S
C1728 C1727 1.387 . S
C1728 C1731 1.387 . S
H1729 C1725 0.950 . S
H1730 C1727 0.950 . S
C1731 C1722 1.390 . S
C1731 H1724 0.950 . S
C1731 C1728 1.387 . S
C1732 C1733 1.387 . S
C1732 H1736 0.950 . S
C1732 C1741 1.390 . S
C1733 C1732 1.387 . S
C1733 C1735 1.387 . S
H1734 C1741 0.950 . S
C1735 C1733 1.387 . S
C1735 C1737 1.390 . S
C1735 H1739 0.950 . S
H1736 C1732 0.950 . S
C1737 C1735 1.390 . S
C1737 C1738 1.387 . S
C1737 H1740 0.950 . S
C1738 C1737 1.387 . S
C1738 C1741 1.387 . S
H1739 C1735 0.950 . S
H1740 C1737 0.950 . S
C1741 C1732 1.390 . S
C1741 H1734 0.950 . S
C1741 C1738 1.387 . S
C1742 C1743 1.387 . S
C1742 H1746 0.950 . S
C1742 C1751 1.390 . S
C1743 C1742 1.387 . S
C1743 C1745 1.387 . S
H1744 C1751 0.950 . S
C1745 C1743 1.387 . S
C1745 C1747 1.390 . S
C1745 H1749 0.950 . S
H1746 C1742 0.950 . S
C1747 C1745 1.390 . S
C1747 C1748 1.387 . S
C1747 H1750 0.950 . S
C1748 C1747 1.387 . S
C1748 C1751 1.387 . S
H1749 C1745 0.950 . S
H1750 C1747 0.950 . S
C1751 C1742 1.390 . S
C1751 H1744 0.950 . S
C1751 C1748 1.387 . S
C1752 C1753 1.387 . S
C1752 H1756 0.950 . S
C1752 C1761 1.390 . S
C1753 C1752 1.387 . S
C1753 C1755 1.387 . S
H1754 C1761 0.950 . S
C1755 C1753 1.387 . S
C1755 C1757 1.390 . S
C1755 H1759 0.950 . S
H1756 C1752 0.950 . S
C1757 C1755 1.390 . S
C1757 C1758 1.387 . S
C1757 H1760 0.950 . S
C1758 C1757 1.387 . S
C1758 C1761 1.387 . S
H1759 C1755 0.950 . S
H1760 C1757 0.950 . S
C1761 C1752 1.390 . S
C1761 H1754 0.950 . S
C1761 C1758 1.387 . S
C1762 C1763 1.387 . S
C1762 H1766 0.950 . S
C1762 C1771 1.390 . S
C1763 C1762 1.387 . S
C1763 C1765 1.387 . S
H1764 C1771 0.950 . S
C1765 C1763 1.387 . S
C1765 C1767 1.390 . S
C1765 H1769 0.950 . S
H1766 C1762 0.950 . S
C1767 C1765 1.390 . S
C1767 C1768 1.387 . S
C1767 H1770 0.950 . S
C1768 C1767 1.387 . S
C1768 C1771 1.387 . S
H1769 C1765 0.950 . S
H1770 C1767 0.950 . S
C1771 C1762 1.390 . S
C1771 H1764 0.950 . S
C1771 C1768 1.387 . S
C1772 C1773 1.387 1_455 S
C1772 H1776 0.935 1_455 S
C1772 C1781 1.390 . S
C1773 C1772 1.387 1_655 S
C1773 C1775 1.387 . S
H1774 C1781 0.950 . S
C1775 C1773 1.387 . S
C1775 C1777 1.390 1_655 S
C1775 H1779 0.950 . S
H1776 C1772 0.935 1_655 S
C1777 C1775 1.390 1_455 S
C1777 C1778 1.387 . S
C1777 H1780 0.950 . S
C1778 C1777 1.387 . S
C1778 C1781 1.387 . S
H1779 C1775 0.950 . S
H1780 C1777 0.950 . S
C1781 C1772 1.390 . S
C1781 H1774 0.950 . S
C1781 C1778 1.387 . S
C1782 C1783 1.387 . S
C1782 H1786 0.950 . S
C1782 C1791 1.390 . S
C1783 C1782 1.387 . S
C1783 C1785 1.387 . S
H1784 C1791 0.950 . S
C1785 C1783 1.387 . S
C1785 C1787 1.390 . S
C1785 H1789 0.950 . S
H1786 C1782 0.950 . S
C1787 C1785 1.390 . S
C1787 C1788 1.387 . S
C1787 H1790 0.950 . S
C1788 C1787 1.387 . S
C1788 C1791 1.387 . S
H1789 C1785 0.950 . S
H1790 C1787 0.950 . S
C1791 C1782 1.390 . S
C1791 H1784 0.950 . S
C1791 C1788 1.387 . S
C1792 C1793 1.387 . S
C1792 H1796 0.950 . S
C1792 C1801 1.390 . S
C1793 C1792 1.387 . S
C1793 C1795 1.387 . S
H1794 C1801 0.950 . S
C1795 C1793 1.387 . S
C1795 C1797 1.390 . S
C1795 H1799 0.950 . S
H1796 C1792 0.950 . S
C1797 C1795 1.390 . S
C1797 C1798 1.387 . S
C1797 H1800 0.950 . S
C1798 C1797 1.387 . S
C1798 C1801 1.387 . S
H1799 C1795 0.950 . S
H1800 C1797 0.950 . S
C1801 C1792 1.390 . S
C1801 H1794 0.950 . S
C1801 C1798 1.387 . S
C1802 C1803 1.387 . S
C1802 H1806 0.950 . S
C1802 C1811 1.390 . S
C1803 C1802 1.387 . S
C1803 C1805 1.387 . S
H1804 C1811 0.950 . S
C1805 C1803 1.387 . S
C1805 C1807 1.390 . S
C1805 H1809 0.950 . S
H1806 C1802 0.950 . S
C1807 C1805 1.390 . S
C1807 C1808 1.387 . S
C1807 H1810 0.950 . S
C1808 C1807 1.387 . S
C1808 C1811 1.387 . S
H1809 C1805 0.950 . S
H1810 C1807 0.950 . S
C1811 C1802 1.390 . S
C1811 H1804 0.950 . S
C1811 C1808 1.387 . S
C1812 C1813 1.387 . S
C1812 H1816 0.950 . S
C1812 C1821 1.390 1_655 S
C1813 C1812 1.387 . S
C1813 C1815 1.387 . S
H1814 C1821 0.950 . S
C1815 C1813 1.387 . S
C1815 C1817 1.390 . S
C1815 H1819 0.950 . S
H1816 C1812 0.950 . S
C1817 C1815 1.390 . S
C1817 C1818 1.388 . S
C1817 H1820 0.950 . S
C1818 C1817 1.388 . S
C1818 C1821 1.389 1_655 S
H1819 C1815 0.950 . S
H1820 C1817 0.950 . S
C1821 C1812 1.390 1_455 S
C1821 H1814 0.950 . S
C1821 C1818 1.389 1_455 S
C1822 C1823 1.387 . S
C1822 H1826 0.950 . S
C1822 C1831 1.390 . S
C1823 C1822 1.387 . S
C1823 C1825 1.387 . S
H1824 C1831 0.950 . S
C1825 C1823 1.387 . S
C1825 C1827 1.390 . S
C1825 H1829 0.950 . S
H1826 C1822 0.950 . S
C1827 C1825 1.390 . S
C1827 C1828 1.387 . S
C1827 H1830 0.950 . S
C1828 C1827 1.387 . S
C1828 C1831 1.387 . S
H1829 C1825 0.950 . S
H1830 C1827 0.950 . S
C1831 C1822 1.390 . S
C1831 H1824 0.950 . S
C1831 C1828 1.387 . S
C1832 C1833 1.387 . S
C1832 H1836 0.950 . S
C1832 C1841 1.390 . S
C1833 C1832 1.387 . S
C1833 C1835 1.387 . S
H1834 C1841 0.950 . S
C1835 C1833 1.387 . S
C1835 C1837 1.390 . S
C1835 H1839 0.950 . S
H1836 C1832 0.950 . S
C1837 C1835 1.390 . S
C1837 C1838 1.387 . S
C1837 H1840 0.950 . S
C1838 C1837 1.387 . S
C1838 C1841 1.387 . S
H1839 C1835 0.950 . S
H1840 C1837 0.950 . S
C1841 C1832 1.390 . S
C1841 H1834 0.950 . S
C1841 C1838 1.387 . S
C1842 C1843 1.387 . S
C1842 H1846 0.950 . S
C1842 C1851 1.390 1_565 S
C1843 C1842 1.387 . S
C1843 C1845 1.387 . S
H1844 C1851 0.950 . S
C1845 C1843 1.387 . S
C1845 C1847 1.390 . S
C1845 H1849 0.950 . S
H1846 C1842 0.950 . S
C1847 C1845 1.390 . S
C1847 C1848 1.387 1_565 S
C1847 H1850 0.950 . S
C1848 C1847 1.387 1_545 S
C1848 C1851 1.387 . S
H1849 C1845 0.950 . S
H1850 C1847 0.950 . S
C1851 C1842 1.390 1_545 S
C1851 H1844 0.950 . S
C1851 C1848 1.387 . S
C1852 C1853 1.387 . S
C1852 H1856 0.950 . S
C1852 C1861 1.390 . S
C1853 C1852 1.387 . S
C1853 C1855 1.387 . S
H1854 C1861 0.950 . S
C1855 C1853 1.387 . S
C1855 C1857 1.390 . S
C1855 H1859 0.950 . S
H1856 C1852 0.950 . S
C1857 C1855 1.390 . S
C1857 C1858 1.387 . S
C1857 H1860 0.950 . S
C1858 C1857 1.387 . S
C1858 C1861 1.387 . S
H1859 C1855 0.950 . S
H1860 C1857 0.950 . S
C1861 C1852 1.390 . S
C1861 H1854 0.950 . S
C1861 C1858 1.387 . S
C1862 C1863 1.387 . S
C1862 H1866 0.950 . S
C1862 C1871 1.390 . S
C1863 C1862 1.387 . S
C1863 C1865 1.387 . S
H1864 C1871 0.950 . S
C1865 C1863 1.387 . S
C1865 C1867 1.390 . S
C1865 H1869 0.950 . S
H1866 C1862 0.950 . S
C1867 C1865 1.390 . S
C1867 C1868 1.387 . S
C1867 H1870 0.950 . S
C1868 C1867 1.387 . S
C1868 C1871 1.387 . S
H1869 C1865 0.950 . S
H1870 C1867 0.950 . S
C1871 C1862 1.390 . S
C1871 H1864 0.950 . S
C1871 C1868 1.387 . S
C1872 C1873 1.387 . S
C1872 H1876 0.950 . S
C1872 C1881 1.390 . S
C1873 C1872 1.387 . S
C1873 C1875 1.387 . S
H1874 C1881 0.950 . S
C1875 C1873 1.387 . S
C1875 C1877 1.390 . S
C1875 H1879 0.950 . S
H1876 C1872 0.950 . S
C1877 C1875 1.390 . S
C1877 C1878 1.387 . S
C1877 H1880 0.950 . S
C1878 C1877 1.387 . S
C1878 C1881 1.387 . S
H1879 C1875 0.950 . S
H1880 C1877 0.950 . S
C1881 C1872 1.390 . S
C1881 H1874 0.950 . S
C1881 C1878 1.387 . S
C1882 C1883 1.387 . S
C1882 H1886 0.950 . S
C1882 C1891 1.390 . S
C1883 C1882 1.387 . S
C1883 C1885 1.387 . S
H1884 C1891 0.950 . S
C1885 C1883 1.387 . S
C1885 C1887 1.390 . S
C1885 H1889 0.950 . S
H1886 C1882 0.950 . S
C1887 C1885 1.390 . S
C1887 C1888 1.387 . S
C1887 H1890 0.950 . S
C1888 C1887 1.387 . S
C1888 C1891 1.387 . S
H1889 C1885 0.950 . S
H1890 C1887 0.950 . S
C1891 C1882 1.390 . S
C1891 H1884 0.950 . S
C1891 C1888 1.387 . S
C1892 C1893 1.387 . S
C1892 H1896 0.950 . S
C1892 C1901 1.390 . S
C1893 C1892 1.387 . S
C1893 C1895 1.387 . S
H1894 C1901 0.950 . S
C1895 C1893 1.387 . S
C1895 C1897 1.390 . S
C1895 H1899 0.950 . S
H1896 C1892 0.950 . S
C1897 C1895 1.390 . S
C1897 C1898 1.387 . S
C1897 H1900 0.950 . S
C1898 C1897 1.387 . S
C1898 C1901 1.387 . S
H1899 C1895 0.950 . S
H1900 C1897 0.950 . S
C1901 C1892 1.390 . S
C1901 H1894 0.950 . S
C1901 C1898 1.387 . S
C1902 C1903 1.387 . S
C1902 H1906 0.950 . S
C1902 C1911 1.390 . S
C1903 C1902 1.387 . S
C1903 C1905 1.387 . S
H1904 C1911 0.950 . S
C1905 C1903 1.387 . S
C1905 C1907 1.390 . S
C1905 H1909 0.950 . S
H1906 C1902 0.950 . S
C1907 C1905 1.390 . S
C1907 C1908 1.387 . S
C1907 H1910 0.950 . S
C1908 C1907 1.387 . S
C1908 C1911 1.387 . S
H1909 C1905 0.950 . S
H1910 C1907 0.950 . S
C1911 C1902 1.390 . S
C1911 H1904 0.950 . S
C1911 C1908 1.387 . S
C953 C101 2.393 1_454 S
C958 C343 2.414 . S
C963 C57 1.904 . S
C968 C354 1.962 . S
C973 C73 1.854 . S
C978 C423 1.897 . S
C988 C436 1.156 . S
C983 C78 1.133 . S
C993 C21 2.601 . S
C998 C492 2.581 1_565 S
C1008 C543 2.333 . S
C1003 C31 2.312 . S
C1018 C572 2.416 . S
C1013 C49 2.417 . S
C1023 C0 2.472 . S
C1028 C623 2.515 . S
C1038 C314 1.474 . S
C1033 C218 1.427 . S
C1043 C229 1.113 . S
C1048 C356 1.143 . S
C1058 C394 1.034 . S
C1053 C257 1.042 . S
C1068 C463 1.925 . S
C1063 C164 1.774 1_556 S
C1073 C216 0.737 . S
C1078 C497 0.738 . S
C1088 C514 1.425 . S
C1083 C231 1.401 . S
C1098 C577 0.555 . S
C1093 C255 0.582 . S
C1108 C594 2.160 . S
C1103 C166 2.218 . S
C1118 C316 2.045 . S
C1113 C143 2.024 1_545 S
C1123 C265 1.643 . S
C1128 C655 1.609 . S
C1138 C676 1.853 . S
C1133 C299 1.803 . S
C1148 C735 0.704 . S
C1143 C291 0.717 . S
C1153 C104 1.190 . S
C1158 C596 1.248 . S
C1163 C117 1.432 . S
C1168 C396 1.453 . S
C1173 C304 1.095 . S
C1178 C754 1.235 . S
C1188 C823 0.924 . S
C1183 C278 0.929 . S
C1198 C332 2.389 . S
C1193 C60 2.463 . S
C1208 C815 1.887 . S
C1203 C96 1.882 . S
C1213 C88 1.841 . S
C1218 C412 1.806 . S
C1223 C65 1.162 . S
C1228 C777 1.127 . S
C1238 C503 2.482 . S
C1233 C10 2.506 . S
C1243 C44 2.244 . S
C1248 C692 2.299 . S
C1258 C583 2.335 1_556 S
C1253 C34 2.255 . S
C1268 C852 2.484 . S
C1263 C13 2.566 . S
C1278 C335 1.505 . S
C1273 C138 1.536 . S
C1288 C817 1.092 . S
C1283 C296 1.166 . S
C1293 C112 0.968 . S
C1298 C415 0.968 . S
C1303 C270 1.805 . S
C1308 C772 1.821 . S
C1313 C140 0.694 . S
C1318 C476 0.699 . S
C1328 C695 1.386 . S
C1323 C294 1.395 . S
C1333 C114 0.484 . S
C1338 C556 0.485 . S
C1343 C268 2.102 1_556 S
C1348 C855 2.084 . S
C1353 C169 2.440 . S
C1358 C337 2.105 1_554 S
C1363 C161 1.650 . S
C1368 C634 1.582 . S
C1373 C234 2.209 . S
C1378 C537 1.898 . S
C1383 C226 0.646 . S
C1388 C714 0.639 . S
C1398 C857 1.291 . S
C1393 C247 1.469 . S
C1403 C195 1.608 . S
C1408 C417 1.479 . S
C1418 C455 1.188 . S
C1413 C239 1.142 . S
C1428 C372 0.917 . S
C1423 C187 0.966 . S
C1433 C75 2.393 . S
C1438 C903 2.414 . S
C1448 C794 1.961 . S
C1443 C83 1.906 . S
C1453 C99 1.853 1_554 S
C1458 C943 1.899 . S
C1463 C52 1.133 . S
C1468 C756 1.156 . S
C1473 C47 2.601 . S
C1478 C652 2.581 . S
C1488 C703 2.334 . S
C1483 C5 2.312 . S
C1498 C732 2.416 . S
C1493 C23 2.418 . S
C1508 C863 2.516 . S
C1503 C26 2.470 . S
C1518 C874 1.474 . S
C1513 C244 1.430 . S
C1523 C177 1.118 . S
C1528 C796 1.149 . S
C1538 C914 1.034 . S
C1533 C192 1.042 . S
C1548 C783 1.925 . S
C1543 C203 1.773 . S
C1558 C657 0.735 . S
C1553 C242 0.740 . S
C1563 C179 1.401 . S
C1568 C674 1.425 . S
C1578 C737 0.555 . S
C1573 C190 0.577 . S
C1583 C205 2.218 . S
C1588 C834 2.159 . S
C1598 C876 2.043 . S
C1593 C286 2.025 . S
C1603 C122 1.642 . S
C1608 C495 1.606 . S
C1618 C516 1.849 1_545 S
C1613 C130 1.799 . S
C1628 C575 0.711 . S
C1623 C148 0.722 1_545 S
C1638 C836 1.250 . S
C1633 C273 1.192 . S
C1643 C260 1.432 . S
C1648 C916 1.453 . S
C1658 C434 1.235 . S
C1653 C135 1.095 . S
C1668 C383 0.920 . S
C1663 C109 0.930 . S
C1673 C86 2.463 . S
C1678 C892 2.389 . S
C1688 C375 1.887 . S
C1683 C70 1.883 . S
C1693 C62 1.841 . S
C1698 C932 1.807 . S
C1703 C91 1.163 . S
C1708 C457 1.125 . S
C1713 C36 2.506 . S
C1718 C663 2.482 1_556 S
C1728 C532 2.299 . S
C1723 C18 2.244 . S
C1733 C8 2.253 . S
C1738 C743 2.336 . S
C1743 C39 2.538 . S
C1748 C612 2.484 . S
C1758 C895 1.506 . S
C1753 C307 1.537 . S
C1763 C153 1.166 . S
C1768 C377 1.088 . S
C1778 C935 0.970 . S
C1773 C281 0.968 . S
C1783 C127 1.805 . S
C1788 C452 1.821 . S
C1793 C309 0.691 . S
C1798 C636 0.694 . S
C1808 C535 1.387 . S
C1803 C151 1.400 . S
C1813 C283 0.485 . S
C1818 C716 0.487 1_655 S
C1828 C615 2.083 . S
C1823 C125 2.101 . S
C1838 C897 2.105 . S
C1833 C221 2.440 . S
C1848 C474 1.581 . S
C1843 C200 1.650 . S
C1853 C208 2.210 . S
C1858 C697 1.900 . S
C1868 C554 0.639 . S
C1863 C174 0.645 . S
C1873 C182 1.470 . S
C1878 C617 1.293 . S
C1883 C156 1.609 . S
C1888 C937 1.479 . S
C1898 C775 1.188 . S
C1893 C213 1.142 . S
C1908 C812 0.918 . S
C1903 C252 0.967 . S
