# Generated by pormake.
# Topology rtl, (3,6)-cn, num edge types: 1
# Building blocks:
#     Node 0, Type 0, BuildingBlock: OLANEW_clean_sbu_2, # of connection points: 3
#     Node 1, Type 0, BuildingBlock: OLANEW_clean_sbu_2, # of connection points: 3
#     Node 2, Type 0, BuildingBlock: OLANEW_clean_sbu_2, # of connection points: 3
#     Node 3, Type 0, BuildingBlock: OLANEW_clean_sbu_2, # of connection points: 3
#     Node 4, Type 1, BuildingBlock: KUMBUR_clean_sbu_1, # of connection points: 6
#     Node 5, Type 1, BuildingBlock: KUMBUR_clean_sbu_1, # of connection points: 6
#     Edge 6, Type (0, 1), BuildingBlock: ZUJKAS_clean_linker_0, # of connection points: 2
#     Edge 7, Type (0, 1), BuildingBlock: ZUJKAS_clean_linker_0, # of connection points: 2
#     Edge 8, Type (0, 1), BuildingBlock: ZUJKAS_clean_linker_0, # of connection points: 2
#     Edge 9, Type (0, 1), BuildingBlock: ZUJKAS_clean_linker_0, # of connection points: 2
#     Edge 10, Type (0, 1), BuildingBlock: ZUJKAS_clean_linker_0, # of connection points: 2
#     Edge 11, Type (0, 1), BuildingBlock: ZUJKAS_clean_linker_0, # of connection points: 2
#     Edge 12, Type (0, 1), BuildingBlock: ZUJKAS_clean_linker_0, # of connection points: 2
#     Edge 13, Type (0, 1), BuildingBlock: ZUJKAS_clean_linker_0, # of connection points: 2
#     Edge 14, Type (0, 1), BuildingBlock: ZUJKAS_clean_linker_0, # of connection points: 2
#     Edge 15, Type (0, 1), BuildingBlock: ZUJKAS_clean_linker_0, # of connection points: 2
#     Edge 16, Type (0, 1), BuildingBlock: ZUJKAS_clean_linker_0, # of connection points: 2
#     Edge 17, Type (0, 1), BuildingBlock: ZUJKAS_clean_linker_0, # of connection points: 2
# Relax obj value: 0.040
# Max RMSD: 0.158
# Mean RMSD: 0.126
data_MOF--net-rtl--node1-OLANEW_clean_sbu_2--node2-KUMBUR_clean_sbu_1--edge1-ZUJKAS_clean_linker_0
_symmetry_space_group_name_H-M    P1
_symmetry_Int_Tables_number       1
_symmetry_cell_setting            triclinic
loop_
_symmetry_equiv_pos_as_xyz
'x, y, z'
_cell_length_a     47.912393
_cell_length_b     47.493218
_cell_length_c     36.395696
_cell_angle_alpha  78.467649
_cell_angle_beta   102.21755
_cell_angle_gamma 90.746474
loop_
_atom_site_label
_atom_site_type_symbol
_atom_site_fract_x
_atom_site_fract_y
_atom_site_fract_z
_atom_type_partial_charge
O0 O 0.21835 0.84426 0.98493 0.0
Cd1 Cd 0.24208 0.81784 0.04853 0.0
O2 O 0.20877 0.88376 0.00363 0.0
Cd3 Cd 0.22342 0.86853 0.06546 0.0
O4 O 0.21639 0.87 0.12257 0.0
C5 C 0.20983 0.89452 0.12791 0.0
O6 O 0.20931 0.91705 0.1001 0.0
C7 C 0.20804 0.86984 0.97702 0.0
C8 C 0.28129 0.77661 0.0428 0.0
O9 O 0.25474 0.77117 0.04003 0.0
O10 O 0.2894 0.8015 0.04852 0.0
O11 O 0.648 0.74751 0.67204 0.0
Cd12 Cd 0.65593 0.78837 0.62249 0.0
O13 O 0.63076 0.72568 0.62499 0.0
Cd14 Cd 0.61267 0.69152 0.59538 0.0
O15 O 0.60426 0.66604 0.55045 0.0
C16 C 0.58293 0.67223 0.52244 0.0
O17 O 0.56512 0.69318 0.52189 0.0
C18 C 0.63582 0.72588 0.6607 0.0
C19 C 0.71112 0.80884 0.62476 0.0
O20 O 0.6948 0.81759 0.64419 0.0
O21 O 0.70177 0.78952 0.60554 0.0
O22 O 0.76528 0.14587 0.122 0.0
Cd23 Cd 0.73281 0.16565 0.06066 0.0
O24 O 0.79098 0.13052 0.08674 0.0
Cd25 Cd 0.82427 0.10866 0.06875 0.0
O26 O 0.84909 0.09686 0.02977 0.0
C27 C 0.84171 0.0761 0.01286 0.0
O28 O 0.81986 0.06085 0.02073 0.0
C29 C 0.7875 0.13247 0.11989 0.0
C30 C 0.69958 0.21389 0.05936 0.0
O31 O 0.69027 0.18845 0.06739 0.0
O32 O 0.72484 0.21647 0.05281 0.0
O33 O 0.33797 0.27367 0.54893 0.0
Cd34 Cd 0.32186 0.24968 0.49474 0.0
O35 O 0.35365 0.30566 0.5068 0.0
Cd36 Cd 0.37496 0.34258 0.47944 0.0
O37 O 0.39061 0.37009 0.43275 0.0
C38 C 0.41227 0.36149 0.42256 0.0
O39 O 0.42532 0.33713 0.44171 0.0
C40 C 0.35057 0.29715 0.54113 0.0
C41 C 0.27933 0.20961 0.50304 0.0
O42 O 0.30581 0.20174 0.51227 0.0
O43 O 0.27303 0.23647 0.49067 0.0
Tb44 Tb 0.01666 0.96022 0.53417 0.0
C45 C 0.9573 0.07951 0.48346 0.0
N46 N 0.98328 0.07204 0.50699 0.0
C47 C 0.00422 0.11195 0.47194 0.0
C48 C 0.9539 0.10329 0.45256 0.0
C49 C 0.0066 0.08805 0.50205 0.0
C50 C 0.97779 0.11955 0.44698 0.0
C51 C 0.90715 0.0693 0.4655 0.0
C52 C 0.93437 0.06246 0.48968 0.0
C53 C 0.90368 0.09276 0.43436 0.0
C54 C 0.92699 0.10974 0.42793 0.0
Tb55 Tb 0.9847 0.03275 0.55518 0.0
N56 N 0.93859 0.03966 0.51988 0.0
C57 C 0.88408 0.05281 0.47393 0.0
C58 C 0.91551 0.02565 0.53037 0.0
C59 C 0.88819 0.0313 0.507 0.0
H60 H 0.02697 0.08252 0.52155 0.0
H61 H 0.87019 0.01952 0.51506 0.0
H62 H 0.97503 0.91 0.5683 0.0
H63 H 0.13142 0.97281 0.57162 0.0
H64 H 0.91757 0.01087 0.55739 0.0
H65 H 0.86284 0.05734 0.45608 0.0
H66 H 0.08374 0.981 0.52979 0.0
H67 H 0.02277 0.1245 0.468 0.0
H68 H 0.88297 0.09817 0.41534 0.0
H69 H 0.92397 0.12778 0.40382 0.0
H70 H 0.97952 0.8684 0.6224 0.0
H71 H 0.97607 0.13796 0.42352 0.0
H72 H 0.13913 0.93588 0.63156 0.0
N73 N 0.01857 0.92091 0.58257 0.0
C74 C 0.04464 0.91358 0.60591 0.0
C75 C 0.99797 0.88104 0.61822 0.0
C76 C 0.04825 0.89003 0.63713 0.0
C77 C 0.99541 0.90475 0.58781 0.0
C78 C 0.02447 0.87373 0.64313 0.0
N79 N 0.06306 0.95302 0.56851 0.0
C80 C 0.08605 0.96665 0.5572 0.0
C81 C 0.09482 0.92391 0.62305 0.0
C82 C 0.06749 0.93054 0.59911 0.0
C83 C 0.1178 0.94022 0.61389 0.0
C84 C 0.1135 0.96124 0.58028 0.0
H85 H 0.02634 0.85547 0.66683 0.0
H86 H 0.07842 0.86601 0.68602 0.0
H87 H 0.11924 0.89562 0.6736 0.0
O88 O 0.03797 0.95166 0.4916 0.0
O89 O 0.01317 0.96276 0.59267 0.0
O90 O 0.0199 0.00969 0.59913 0.0
O91 O 0.00686 0.92262 0.51283 0.0
O92 O 0.037 0.00159 0.51727 0.0
O93 O 0.03083 0.02966 0.56065 0.0
O94 O 0.96319 0.04102 0.5977 0.0
O95 O 0.98882 0.03022 0.49693 0.0
O96 O 0.98148 0.98345 0.49029 0.0
O97 O 0.99376 0.07064 0.57611 0.0
O98 O 0.96493 0.99144 0.57303 0.0
O99 O 0.97045 0.96328 0.52956 0.0
C100 C 0.02442 0.98191 0.61233 0.0
C101 C 0.02832 0.908 0.46477 0.0
C102 C 0.05278 0.89303 0.41891 0.0
C103 C 0.03471 0.86949 0.41763 0.0
C104 C 0.01071 0.8842 0.46305 0.0
C105 C 0.0139 0.86515 0.43957 0.0
C106 C 0.04933 0.9124 0.44251 0.0
C107 C 0.04508 0.02218 0.53666 0.0
C108 C 0.02461 0.92775 0.49012 0.0
C109 C 0.07526 0.88385 0.66163 0.0
C110 C 0.09847 0.9008 0.65467 0.0
C111 C 0.9777 0.01126 0.47687 0.0
C112 C 0.97159 0.08519 0.6235 0.0
C113 C 0.95414 0.09579 0.67788 0.0
C114 C 0.964 0.12393 0.66979 0.0
C115 C 0.98119 0.11342 0.61606 0.0
C116 C 0.95803 0.07645 0.65449 0.0
C117 C 0.97737 0.13262 0.63908 0.0
C118 C 0.95696 0.97032 0.55463 0.0
C119 C 0.97608 0.06521 0.59887 0.0
H120 H 0.03638 0.85456 0.3992 0.0
H121 H 0.99436 0.88027 0.47981 0.0
H122 H 1.0001 0.84698 0.43828 0.0
H123 H 0.06319 0.93053 0.44399 0.0
H124 H 0.96177 0.13916 0.6876 0.0
H125 H 0.99163 0.12073 0.59235 0.0
H126 H 0.95046 0.05474 0.66028 0.0
H127 H 0.98492 0.1543 0.63319 0.0
Tb128 Tb 0.47079 0.5061 0.97948 0.0
C129 C 0.58596 0.56139 0.98926 0.0
N130 N 0.58071 0.53537 0.00962 0.0
C131 C 0.62089 0.51418 0.99442 0.0
C132 C 0.60874 0.56471 0.96993 0.0
C133 C 0.5979 0.51188 0.01285 0.0
C134 C 0.62631 0.54069 0.97279 0.0
C135 C 0.57216 0.61168 0.96509 0.0
C136 C 0.56767 0.58447 0.98668 0.0
C137 C 0.59457 0.61503 0.9453 0.0
C138 C 0.61286 0.59163 0.9478 0.0
Tb139 Tb 0.54336 0.53429 0.03943 0.0
N140 N 0.54596 0.5804 0.00592 0.0
C141 C 0.55443 0.6349 0.96479 0.0
C142 C 0.53072 0.60372 0.00886 0.0
C143 C 0.53403 0.631 0.98743 0.0
H144 H 0.59382 0.49141 0.02967 0.0
H145 H 0.52132 0.64917 0.98919 0.0
H146 H 0.42327 0.55992 0.94448 0.0
H147 H 0.46418 0.40062 0.06632 0.0
H148 H 0.51673 0.60198 0.0287 0.0
H149 H 0.55714 0.65613 0.94853 0.0
H150 H 0.48589 0.43816 0.02498 0.0
H151 H 0.63439 0.49552 0.99685 0.0
H152 H 0.59816 0.63573 0.92836 0.0
H153 H 0.63007 0.59456 0.93242 0.0
H154 H 0.37615 0.57362 0.95433 0.0
H155 H 0.64399 0.54234 0.95829 0.0
H156 H 0.4173 0.41004 0.08056 0.0
N157 N 0.42612 0.51975 0.98333 0.0
C158 C 0.41256 0.50056 0.00601 0.0
C159 C 0.38623 0.55305 0.96923 0.0
C160 C 0.3854 0.50703 0.01176 0.0
C161 C 0.41308 0.54546 0.96415 0.0
C162 C 0.37241 0.53384 0.99338 0.0
N163 N 0.45237 0.46912 0.01714 0.0
C164 C 0.46569 0.44276 0.03132 0.0
C165 C 0.41259 0.45325 0.04628 0.0
C166 C 0.42592 0.47411 0.02305 0.0
C167 C 0.42677 0.42666 0.06243 0.0
C168 C 0.4533 0.42131 0.05456 0.0
H169 H 0.35158 0.53973 0.99716 0.0
H170 H 0.35126 0.49111 0.04032 0.0
H171 H 0.37508 0.44399 0.07054 0.0
O172 O 0.47481 0.47878 0.94163 0.0
O173 O 0.47371 0.502 0.04146 0.0
O174 O 0.52109 0.50263 0.07428 0.0
O175 O 0.43935 0.50886 0.92879 0.0
O176 O 0.51019 0.47929 0.99113 0.0
O177 O 0.54221 0.48772 0.04565 0.0
O178 O 0.55484 0.55814 0.08366 0.0
O179 O 0.53939 0.52693 0.98062 0.0
O180 O 0.49353 0.54128 0.9513 0.0
O181 O 0.5816 0.52246 0.08035 0.0
O182 O 0.50195 0.55362 0.03966 0.0
O183 O 0.47582 0.55188 0.97948 0.0
C184 C 0.49392 0.4971 0.07292 0.0
C185 C 0.43077 0.46512 0.90759 0.0
C186 C 0.41356 0.43219 0.86453 0.0
C187 C 0.39337 0.42226 0.88676 0.0
C188 C 0.41016 0.45509 0.9289 0.0
C189 C 0.39171 0.43371 0.91865 0.0
C190 C 0.43229 0.45372 0.8752 0.0
C191 C 0.53204 0.47162 0.0205 0.0
C192 C 0.45047 0.48761 0.91861 0.0
C193 C 0.3721 0.48651 0.03539 0.0
C194 C 0.38565 0.45966 0.05258 0.0
C195 C 0.52064 0.53966 0.95033 0.0
C196 C 0.59895 0.54692 0.13281 0.0
C197 C 0.61053 0.56291 0.19396 0.0
C198 C 0.63903 0.55348 0.19868 0.0
C199 C 0.62749 0.5376 0.13828 0.0
C200 C 0.59055 0.55965 0.16067 0.0
C201 C 0.64739 0.54098 0.17097 0.0
C202 C 0.47989 0.56205 0.01116 0.0
C203 C 0.57805 0.54248 0.09857 0.0
H204 H 0.37842 0.40604 0.879 0.0
H205 H 0.40802 0.46396 0.95318 0.0
H206 H 0.37586 0.42617 0.9353 0.0
H207 H 0.44809 0.46148 0.8585 0.0
H208 H 0.65482 0.55527 0.22418 0.0
H209 H 0.63443 0.52771 0.11722 0.0
H210 H 0.56853 0.56685 0.15655 0.0
H211 H 0.66934 0.53368 0.17501 0.0
H212 H 0.28496 0.15104 0.51507 0.0
H213 H 0.24707 0.11605 0.51656 0.0
H214 H 0.1848 0.18481 0.49955 0.0
H215 H 0.22238 0.21993 0.49675 0.0
H216 H 0.21186 0.10241 0.56371 0.0
H217 H 0.1474 0.14281 0.41787 0.0
H218 H 0.18299 0.15485 0.43363 0.0
H219 H 0.1528 0.17055 0.44535 0.0
C220 C 0.26318 0.15871 0.51153 0.0
C221 C 0.25664 0.18828 0.50553 0.0
C222 C 0.24153 0.13868 0.51232 0.0
C223 C 0.21297 0.14781 0.50727 0.0
C224 C 0.20652 0.17728 0.50227 0.0
H225 H 0.07561 0.05451 0.58398 0.0
H226 H 0.11734 0.0826 0.57512 0.0
C227 C 0.22808 0.19734 0.50103 0.0
C228 C 0.19003 0.1265 0.50868 0.0
H229 H 0.1238 0.1114 0.4614 0.0
C230 C 0.19276 0.10419 0.54111 0.0
C231 C 0.16537 0.12834 0.47881 0.0
C232 C 0.16209 0.15024 0.44178 0.0
C233 C 0.17098 0.08452 0.54529 0.0
C234 C 0.14541 0.08774 0.51678 0.0
C235 C 0.14322 0.10919 0.48353 0.0
C236 C 0.12016 0.07016 0.52193 0.0
C237 C 0.17565 0.06048 0.58025 0.0
C238 C 0.10711 0.05457 0.49423 0.0
C239 C 0.08273 0.0388 0.49885 0.0
C240 C 0.07106 0.03837 0.5313 0.0
C241 C 0.0841 0.05422 0.55874 0.0
C242 C 0.10821 0.07008 0.55395 0.0
H243 H 0.19876 0.05502 0.59159 0.0
H244 H 0.16718 0.06745 0.60322 0.0
H245 H 0.16457 0.04079 0.57378 0.0
H246 H 0.11578 0.05461 0.46904 0.0
H247 H 0.07296 0.02712 0.47698 0.0
H248 H 0.33959 0.7761 0.06366 0.0
H249 H 0.37347 0.73995 0.05803 0.0
H250 H 0.30355 0.6924 0.00702 0.0
H251 H 0.26953 0.72783 0.01411 0.0
H252 H 0.34071 0.65699 0.05729 0.0
H253 H 0.39982 0.73018 0.96447 0.0
H254 H 0.40043 0.74159 0.00869 0.0
H255 H 0.367 0.74117 0.97502 0.0
C256 C 0.33145 0.75798 0.05115 0.0
C257 C 0.30189 0.75488 0.03918 0.0
C258 C 0.35086 0.73743 0.04765 0.0
C259 C 0.34115 0.71374 0.03127 0.0
C260 C 0.3116 0.71054 0.01957 0.0
H261 H 0.44964 0.60281 0.95308 0.0
H262 H 0.4152 0.63882 0.95787 0.0
C263 C 0.29217 0.73082 0.02362 0.0
C264 C 0.36167 0.69187 0.02725 0.0
H265 H 0.42111 0.68353 0.99213 0.0
C266 C 0.35819 0.66281 0.04284 0.0
C267 C 0.38422 0.69931 0.00779 0.0
C268 C 0.38793 0.72972 0.98769 0.0
C269 C 0.37682 0.64112 0.04006 0.0
C270 C 0.40022 0.64876 0.02239 0.0
C271 C 0.40344 0.67772 0.00622 0.0
C272 C 0.4213 0.62698 0.01972 0.0
C273 C 0.37078 0.61018 0.05524 0.0
C274 C 0.43663 0.60871 0.05291 0.0
C275 C 0.45589 0.58777 0.05013 0.0
C276 C 0.46033 0.58489 0.01412 0.0
C277 C 0.44594 0.60399 0.98109 0.0
C278 C 0.42647 0.62472 0.98384 0.0
H279 H 0.348 0.60749 0.05701 0.0
H280 H 0.37608 0.59586 0.03685 0.0
H281 H 0.38397 0.60312 0.08461 0.0
H282 H 0.43369 0.61062 0.08101 0.0
H283 H 0.46699 0.57355 0.0761 0.0
H284 H 0.74651 0.80108 0.57747 0.0
H285 H 0.78999 0.82685 0.56883 0.0
H286 H 0.78224 0.87266 0.65733 0.0
H287 H 0.73861 0.84714 0.66608 0.0
H288 H 0.79051 0.89112 0.54995 0.0
H289 H 0.86812 0.84134 0.68333 0.0
H290 H 0.83661 0.82325 0.66406 0.0
H291 H 0.83343 0.85197 0.68843 0.0
C292 C 0.75425 0.81632 0.59552 0.0
C293 C 0.73906 0.82208 0.62245 0.0
C294 C 0.77906 0.83106 0.59046 0.0
C295 C 0.78935 0.85151 0.61258 0.0
C296 C 0.77477 0.85672 0.64027 0.0
H297 H 0.932 0.96697 0.61647 0.0
H298 H 0.89098 0.93867 0.6301 0.0
C299 C 0.74981 0.84217 0.64515 0.0
C300 C 0.8142 0.86879 0.60484 0.0
H301 H 0.88378 0.88076 0.64269 0.0
C302 C 0.81096 0.88883 0.57011 0.0
C303 C 0.84066 0.8659 0.63143 0.0
C304 C 0.84519 0.84436 0.66888 0.0
C305 C 0.83345 0.90635 0.56138 0.0
C306 C 0.86018 0.90313 0.58765 0.0
C307 C 0.86333 0.88315 0.62253 0.0
C308 C 0.88512 0.9202 0.57935 0.0
C309 C 0.82811 0.92863 0.52452 0.0
C310 C 0.89571 0.91894 0.54656 0.0
C311 C 0.9189 0.93535 0.53845 0.0
C312 C 0.93226 0.95306 0.56326 0.0
C313 C 0.922 0.95381 0.59654 0.0
C314 C 0.89865 0.93754 0.60448 0.0
H315 H 0.80497 0.93414 0.51366 0.0
H316 H 0.83959 0.94864 0.52845 0.0
H317 H 0.83588 0.91995 0.50224 0.0
H318 H 0.8861 0.90518 0.52725 0.0
H319 H 0.92635 0.93412 0.5127 0.0
H320 H 0.64322 0.21566 0.06316 0.0
H321 H 0.61262 0.25823 0.05519 0.0
H322 H 0.68411 0.31261 0.04198 0.0
H323 H 0.71468 0.27022 0.049 0.0
H324 H 0.6157 0.29997 0.09668 0.0
H325 H 0.62452 0.34791 0.94793 0.0
H326 H 0.63649 0.31152 0.97075 0.0
H327 H 0.65862 0.3412 0.98049 0.0
C328 C 0.65244 0.23668 0.05854 0.0
C329 C 0.68136 0.23955 0.05646 0.0
C330 C 0.63491 0.26099 0.05397 0.0
C331 C 0.64591 0.28864 0.04721 0.0
C332 C 0.67495 0.29154 0.04613 0.0
H333 H 0.57667 0.44691 0.07784 0.0
H334 H 0.60248 0.40182 0.08378 0.0
C335 C 0.69246 0.26726 0.05045 0.0
C336 C 0.62715 0.31441 0.042 0.0
H337 H 0.6039 0.37805 0.98095 0.0
C338 C 0.61297 0.31696 0.07127 0.0
C339 C 0.62316 0.33633 0.00852 0.0
C340 C 0.63626 0.33403 0.97495 0.0
C341 C 0.59559 0.34121 0.06847 0.0
C342 C 0.59281 0.36379 0.03589 0.0
C343 C 0.6063 0.36086 0.00611 0.0
C344 C 0.57657 0.39091 0.0325 0.0
C345 C 0.58017 0.34227 0.1003 0.0
C346 C 0.55379 0.40018 1.00116 0.0
C347 C 0.5391 0.42622 0.99737 0.0
C348 C 0.54702 0.4436 0.02479 0.0
C349 C 0.56986 0.43415 0.05617 0.0
C350 C 0.58456 0.4082 0.05983 0.0
H351 H 0.57749 0.32038 0.11672 0.0
H352 H 0.59286 0.3546 0.12059 0.0
H353 H 0.55878 0.35303 0.08887 0.0
H354 H 0.54738 0.38723 0.9796 0.0
H355 H 0.52167 0.43278 0.97281 0.0
H356 H 0.19258 0.94365 0.14604 0.0
H357 H 0.17209 0.94799 0.20076 0.0
H358 H 0.18379 0.85654 0.24354 0.0
H359 H 0.20457 0.85198 0.18905 0.0
H360 H 0.12289 0.92108 0.21602 0.0
H361 H 0.21377 0.88935 0.33999 0.0
H362 H 0.21848 0.89982 0.29121 0.0
H363 H 0.20748 0.86416 0.30852 0.0
C364 C 0.19123 0.92448 0.16737 0.0
C365 C 0.20016 0.89743 0.16309 0.0
C366 C 0.17951 0.92703 0.19864 0.0
C367 C 0.17669 0.90266 0.22643 0.0
C368 C 0.18629 0.87573 0.22285 0.0
H369 H 0.08782 0.85215 0.40749 0.0
H370 H 0.11945 0.85776 0.36218 0.0
C371 C 0.19801 0.87313 0.19153 0.0
C372 C 0.16136 0.90499 0.25713 0.0
H373 H 0.16732 0.89009 0.35428 0.0
C374 C 0.13269 0.9147 0.24628 0.0
C375 C 0.17421 0.89659 0.29654 0.0
C376 C 0.20526 0.88714 0.30987 0.0
C377 C 0.11612 0.91507 0.27371 0.0
C378 C 0.12878 0.90606 0.31314 0.0
C379 C 0.15768 0.89706 0.32405 0.0
C380 C 0.11172 0.90368 0.34317 0.0
C381 C 0.08487 0.92383 0.26009 0.0
C382 C 0.09752 0.92779 0.34841 0.0
C383 C 0.0791 0.9246 0.37405 0.0
C384 C 0.07471 0.89724 0.39501 0.0
C385 C 0.09023 0.87343 0.39116 0.0
C386 C 0.10851 0.87662 0.36551 0.0
H387 H 0.07715 0.92404 0.22901 0.0
H388 H 0.07158 0.90904 0.2764 0.0
H389 H 0.08162 0.94582 0.26478 0.0
H390 H 0.10014 0.94897 0.33199 0.0
H391 H 0.06748 0.94336 0.37633 0.0
H392 H 0.58936 0.69227 0.6484 0.0
H393 H 0.57076 0.65794 0.69627 0.0
H394 H 0.64195 0.67287 0.78422 0.0
H395 H 0.66039 0.70768 0.73645 0.0
H396 H 0.59053 0.60839 0.74515 0.0
H397 H 0.57542 0.69117 0.82779 0.0
H398 H 0.58439 0.70017 0.78124 0.0
H399 H 0.61171 0.68733 0.82346 0.0
C400 C 0.60145 0.68773 0.67772 0.0
C401 C 0.62649 0.70249 0.68859 0.0
C402 C 0.59064 0.66828 0.70517 0.0
C403 C 0.60462 0.66323 0.74402 0.0
C404 C 0.63036 0.67697 0.75463 0.0
H405 H 0.56666 0.52611 0.92365 0.0
H406 H 0.58683 0.55524 0.87265 0.0
C407 C 0.641 0.69667 0.72726 0.0
C408 C 0.59177 0.64427 0.7734 0.0
H409 H 0.56764 0.64297 0.85558 0.0
C410 C 0.58548 0.61596 0.76927 0.0
C411 C 0.58471 0.65428 0.80455 0.0
C412 C 0.58913 0.68497 0.8094 0.0
C413 C 0.5726 0.59732 0.79556 0.0
C414 C 0.56644 0.60707 0.82738 0.0
C415 C 0.57255 0.63543 0.83135 0.0
C416 C 0.55342 0.58842 0.85681 0.0
C417 C 0.56512 0.56764 0.78844 0.0
C418 C 0.52813 0.59748 0.86531 0.0
C419 C 0.51682 0.58105 0.89481 0.0
C420 C 0.53079 0.55541 0.91659 0.0
C421 C 0.55559 0.54591 0.90737 0.0
C422 C 0.56697 0.56239 0.87799 0.0
H423 H 0.56326 0.5666 0.75779 0.0
H424 H 0.58229 0.55206 0.80577 0.0
H425 H 0.54471 0.56084 0.79682 0.0
H426 H 0.51734 0.61754 0.84946 0.0
H427 H 0.49775 0.58896 0.90148 0.0
H428 H 0.77732 0.11631 0.19181 0.0
H429 H 0.81117 0.09514 0.251 0.0
H430 H 0.87831 0.098 0.18811 0.0
H431 H 0.8447 0.11961 0.12889 0.0
H432 H 0.87589 0.04481 0.23952 0.0
H433 H 0.87503 0.13802 0.31022 0.0
H434 H 0.84025 0.12505 0.29329 0.0
H435 H 0.86138 0.14054 0.25943 0.0
C436 C 0.79931 0.11248 0.19053 0.0
C437 C 0.80818 0.11923 0.15543 0.0
C438 C 0.81863 0.10045 0.22443 0.0
C439 C 0.84729 0.0952 0.22399 0.0
C440 C 0.85623 0.10176 0.18902 0.0
H441 H 0.98621 0.05882 0.42528 0.0
H442 H 0.95538 0.07849 0.36272 0.0
C443 C 0.8369 0.11383 0.15507 0.0
C444 C 0.86787 0.08278 0.26004 0.0
H445 H 0.89834 0.09511 0.34881 0.0
C446 C 0.88089 0.05581 0.26341 0.0
C447 C 0.87461 0.09736 0.29095 0.0
C448 C 0.86232 0.12697 0.28832 0.0
C449 C 0.90005 0.04274 0.29725 0.0
C450 C 0.90605 0.05691 0.32861 0.0
C451 C 0.89348 0.08414 0.3249 0.0
C452 C 0.92543 0.04402 0.36553 0.0
C453 C 0.914 0.01408 0.29894 0.0
C454 C 0.91885 0.01808 0.38783 0.0
C455 C 0.93645 0.00684 0.42358 0.0
C456 C 0.96066 0.02158 0.43774 0.0
C457 C 0.96749 0.04722 0.4151 0.0
C458 C 0.94996 0.05841 0.3794 0.0
H459 H 0.91302 0.00975 0.26981 0.0
H460 H 0.93671 0.01306 0.31438 0.0
H461 H 0.90266 0.99676 0.31468 0.0
H462 H 0.89973 0.00692 0.37804 0.0
H463 H 0.93057 0.98719 0.44072 0.0
H464 H 0.36252 0.27671 0.61829 0.0
H465 H 0.37835 0.30349 0.66935 0.0
H466 H 0.37912 0.38115 0.58476 0.0
H467 H 0.36222 0.35475 0.53352 0.0
H468 H 0.42746 0.33526 0.68555 0.0
H469 H 0.32874 0.40419 0.65221 0.0
H470 H 0.33067 0.37263 0.63218 0.0
H471 H 0.34648 0.40533 0.61314 0.0
C472 C 0.36606 0.2995 0.61048 0.0
C473 C 0.36141 0.31349 0.5717 0.0
C474 C 0.37522 0.31474 0.63973 0.0
C475 C 0.37971 0.34435 0.6309 0.0
C476 C 0.3755 0.35837 0.59225 0.0
H477 H 0.41644 0.46175 0.79265 0.0
H478 H 0.41225 0.44226 0.73416 0.0
C479 C 0.36628 0.34311 0.56291 0.0
C480 C 0.38833 0.36038 0.66239 0.0
H481 H 0.36513 0.41173 0.7036 0.0
C482 C 0.41393 0.35212 0.68936 0.0
C483 C 0.3707 0.38247 0.66723 0.0
C484 C 0.34249 0.39161 0.63989 0.0
C485 C 0.42215 0.36499 0.7214 0.0
C486 C 0.40408 0.38639 0.72689 0.0
C487 C 0.37897 0.39536 0.69926 0.0
C488 C 0.40953 0.39803 0.76259 0.0
C489 C 0.45002 0.35543 0.74925 0.0
C490 C 0.40956 0.37961 0.79793 0.0
C491 C 0.41194 0.39065 0.83122 0.0
C492 C 0.41423 0.42037 0.82987 0.0
C493 C 0.41501 0.43873 0.79464 0.0
C494 C 0.41247 0.42766 0.76121 0.0
H495 H 0.46507 0.34581 0.73545 0.0
H496 H 0.46043 0.37369 0.7611 0.0
H497 H 0.44583 0.33883 0.77346 0.0
H498 H 0.40681 0.35675 0.79957 0.0
H499 H 0.41144 0.37594 0.85797 0.0
H500 H 0.54015 0.68067 0.45785 0.0
H501 H 0.53716 0.66012 0.40067 0.0
H502 H 0.61586 0.61177 0.45389 0.0
H503 H 0.61876 0.63175 0.51134 0.0
H504 H 0.57492 0.6671 0.35422 0.0
H505 H 0.56627 0.55108 0.4115 0.0
H506 H 0.5605 0.57835 0.43752 0.0
H507 H 0.59621 0.56624 0.43879 0.0
C508 C 0.5566 0.66532 0.45764 0.0
C509 C 0.57971 0.65788 0.4892 0.0
C510 C 0.55486 0.65361 0.42491 0.0
C511 C 0.57608 0.63412 0.42314 0.0
C512 C 0.59887 0.62623 0.45489 0.0
H513 H 0.63927 0.60152 0.23334 0.0
H514 H 0.6272 0.61925 0.2867 0.0
C515 C 0.6006 0.63785 0.48767 0.0
C516 C 0.57575 0.62389 0.38708 0.0
H517 H 0.58136 0.56342 0.3514 0.0
C518 C 0.57593 0.64442 0.3535 0.0
C519 C 0.5766 0.59431 0.3859 0.0
C520 C 0.57458 0.57124 0.42027 0.0
C521 C 0.57832 0.63619 0.31931 0.0
C522 C 0.58116 0.60666 0.31888 0.0
C523 C 0.57955 0.58608 0.35188 0.0
C524 C 0.58753 0.59676 0.28528 0.0
C525 C 0.57803 0.65923 0.28405 0.0
C526 C 0.56945 0.57784 0.26706 0.0
C527 C 0.57646 0.56742 0.23667 0.0
C528 C 0.60185 0.5755 0.22427 0.0
C529 C 0.61969 0.59469 0.24237 0.0
C530 C 0.61266 0.60511 0.27262 0.0
H531 H 0.56687 0.67924 0.28545 0.0
H532 H 0.60034 0.66458 0.28205 0.0
H533 H 0.56744 0.65188 0.25754 0.0
H534 H 0.55006 0.57095 0.27659 0.0
H535 H 0.56245 0.55238 0.22365 0.0
H536 H 0.83105 0.03378 0.97095 0.0
H537 H 0.85137 0.02795 0.91654 0.0
H538 H 0.90346 0.1015 0.92981 0.0
H539 H 0.88375 0.10714 0.98457 0.0
H540 H 0.84665 0.06583 0.84965 0.0
H541 H 0.96107 0.04484 0.91712 0.0
H542 H 0.93372 0.04242 0.94487 0.0
H543 H 0.94769 0.07677 0.92759 0.0
C544 C 0.84717 0.04844 0.96268 0.0
C545 C 0.85577 0.07093 0.98214 0.0
C546 C 0.85875 0.04508 0.93155 0.0
C547 C 0.87923 0.06403 0.91939 0.0
C548 C 0.88822 0.08617 0.93922 0.0
H549 H 0.91471 0.12627 0.69959 0.0
H550 H 0.89558 0.11408 0.75758 0.0
C551 C 0.87676 0.08949 0.97041 0.0
C552 C 0.88946 0.06229 0.88413 0.0
H553 H 0.94986 0.06202 0.84848 0.0
C554 C 0.86921 0.06453 0.8495 0.0
C555 C 0.91885 0.06008 0.88395 0.0
C556 C 0.94155 0.05557 0.92047 0.0
C557 C 0.87762 0.06622 0.81447 0.0
C558 C 0.90706 0.06625 0.81397 0.0
C559 C 0.92728 0.06237 0.84881 0.0
C560 C 0.91733 0.07243 0.77756 0.0
C561 C 0.85486 0.0683 0.77829 0.0
C562 C 0.93627 0.05324 0.76968 0.0
C563 C 0.94755 0.06033 0.73662 0.0
C564 C 0.94031 0.08689 0.71113 0.0
C565 C 0.92091 0.10576 0.71881 0.0
C566 C 0.90968 0.09867 0.75175 0.0
H567 H 0.83479 0.05842 0.78457 0.0
H568 H 0.8499 0.09128 0.76487 0.0
H569 H 0.86206 0.05761 0.75728 0.0
H570 H 0.94263 0.03297 0.7894 0.0
H571 H 0.96268 0.04547 0.73173 0.0
H572 H 0.45916 0.35034 0.39558 0.0
H573 H 0.47301 0.37515 0.33683 0.0
H574 H 0.39961 0.43284 0.31183 0.0
H575 H 0.3859 0.40853 0.37096 0.0
H576 H 0.44276 0.38059 0.26284 0.0
H577 H 0.46348 0.48834 0.29839 0.0
H578 H 0.45982 0.45694 0.33408 0.0
H579 H 0.42864 0.47555 0.30252 0.0
C580 C 0.4461 0.3685 0.37782 0.0
C581 C 0.42148 0.37752 0.38806 0.0
C582 C 0.45403 0.38262 0.3442 0.0
C583 C 0.43755 0.40606 0.32018 0.0
C584 C 0.413 0.41521 0.33035 0.0
H585 H 0.4417 0.50073 0.0908 0.0
H586 H 0.42748 0.47815 0.15043 0.0
C587 C 0.40513 0.40119 0.36409 0.0
C588 C 0.44548 0.42013 0.28375 0.0
H589 H 0.4631 0.48446 0.23413 0.0
C590 C 0.44732 0.40327 0.25666 0.0
C591 C 0.45141 0.44975 0.27571 0.0
C592 C 0.45102 0.46868 0.30433 0.0
C593 C 0.4547 0.41531 0.22165 0.0
C594 C 0.46047 0.44485 0.21367 0.0
C595 C 0.45854 0.46179 0.24051 0.0
C596 C 0.46905 0.45838 0.17773 0.0
C597 C 0.45612 0.39657 0.19312 0.0
C598 C 0.49715 0.45473 0.17364 0.0
C599 C 0.50534 0.46754 0.13966 0.0
C600 C 0.48547 0.48402 0.10917 0.0
C601 C 0.45736 0.48775 0.11354 0.0
C602 C 0.44924 0.47506 0.14761 0.0
H603 H 0.44812 0.37472 0.20186 0.0
H604 H 0.44339 0.40669 0.16438 0.0
H605 H 0.4786 0.39446 0.19037 0.0
H606 H 0.5127 0.44195 0.19676 0.0
H607 H 0.52711 0.46422 0.13707 0.0
H608 H 0.19562 0.84434 0.91438 0.0
H609 H 0.16673 0.86467 0.85083 0.0
H610 H 0.15815 0.94503 0.88603 0.0
H611 H 0.18655 0.92483 0.94972 0.0
H612 H 0.10679 0.92486 0.8543 0.0
H613 H 0.18409 0.92321 0.76062 0.0
H614 H 0.18097 0.88922 0.79141 0.0
H615 H 0.19509 0.91916 0.81207 0.0
C616 C 0.18797 0.86648 0.90844 0.0
C617 C 0.19334 0.88291 0.93723 0.0
C618 C 0.17157 0.87812 0.872 0.0
C619 C 0.1605 0.90645 0.86359 0.0
C620 C 0.16653 0.92313 0.89191 0.0
H621 H 0.07306 0.00627 0.64307 0.0
H622 H 0.10616 0.98801 0.70449 0.0
C623 C 0.1828 0.91153 0.92831 0.0
C624 C 0.14084 0.91808 0.82641 0.0
H625 H 0.13531 0.93327 0.72931 0.0
C626 C 0.11308 0.92682 0.82699 0.0
C627 C 0.14914 0.92077 0.79084 0.0
C628 C 0.17903 0.91285 0.78854 0.0
C629 C 0.0933 0.93794 0.79296 0.0
C630 C 0.10136 0.93995 0.75737 0.0
C631 C 0.12919 0.93151 0.7567 0.0
C632 C 0.08121 0.95104 0.72054 0.0
C633 C 0.06405 0.94783 0.79538 0.0
C634 C 0.05629 0.93628 0.70937 0.0
C635 C 0.03737 0.94674 0.67453 0.0
C636 C 0.04321 0.97199 0.65026 0.0
C637 C 0.068 0.98691 0.66158 0.0
C638 C 0.08698 0.97638 0.69638 0.0
H639 H 0.06357 0.95128 0.82455 0.0
H640 H 0.05705 0.96812 0.77432 0.0
H641 H 0.04841 0.93118 0.78863 0.0
H642 H 0.05167 0.91647 0.72737 0.0
H643 H 0.01832 0.93496 0.66635 0.0
loop_
_geom_bond_atom_site_label_1
_geom_bond_atom_site_label_2
_geom_bond_distance
_geom_bond_site_symmetry_2
_ccdc_geom_bond_type
O0 Cd1 2.300 1_556 S
O0 C7 1.275 . S
Cd1 O0 2.300 1_554 S
Cd1 O9 2.381 . S
Cd1 O10 2.378 . S
O2 Cd3 2.385 . S
O2 C7 1.255 1_554 S
Cd3 O2 2.385 . S
Cd3 O4 2.317 . S
O4 Cd3 2.317 . S
O4 C5 1.232 . S
C5 O4 1.232 . S
C5 O6 1.218 . S
O6 C5 1.218 . S
C7 O0 1.275 . S
C7 O2 1.255 1_556 S
C8 O9 1.258 . S
C8 O10 1.256 . S
O9 Cd1 2.381 . S
O9 C8 1.258 . S
O10 Cd1 2.378 . S
O10 C8 1.256 . S
O11 Cd12 2.300 . S
O11 C18 1.275 . S
Cd12 O11 2.300 . S
Cd12 O20 2.381 . S
Cd12 O21 2.378 . S
O13 Cd14 2.385 . S
O13 C18 1.255 . S
Cd14 O13 2.385 . S
Cd14 O15 2.317 . S
O15 Cd14 2.317 . S
O15 C16 1.232 . S
C16 O15 1.232 . S
C16 O17 1.218 . S
O17 C16 1.218 . S
C18 O11 1.275 . S
C18 O13 1.255 . S
C19 O20 1.258 . S
C19 O21 1.256 . S
O20 Cd12 2.381 . S
O20 C19 1.258 . S
O21 Cd12 2.378 . S
O21 C19 1.256 . S
O22 Cd23 2.300 . S
O22 C29 1.275 . S
Cd23 O22 2.300 . S
Cd23 O31 2.381 . S
Cd23 O32 2.378 . S
O24 Cd25 2.385 . S
O24 C29 1.255 . S
Cd25 O24 2.385 . S
Cd25 O26 2.317 1_554 S
O26 Cd25 2.317 1_556 S
O26 C27 1.232 . S
C27 O26 1.232 . S
C27 O28 1.218 1_556 S
O28 C27 1.218 1_554 S
C29 O22 1.275 . S
C29 O24 1.255 . S
C30 O31 1.258 . S
C30 O32 1.256 . S
O31 Cd23 2.381 . S
O31 C30 1.258 . S
O32 Cd23 2.378 . S
O32 C30 1.256 . S
O33 Cd34 2.300 . S
O33 C40 1.275 . S
Cd34 O33 2.300 . S
Cd34 O42 2.381 . S
Cd34 O43 2.378 . S
O35 Cd36 2.385 . S
O35 C40 1.255 . S
Cd36 O35 2.385 . S
Cd36 O37 2.317 . S
O37 Cd36 2.317 . S
O37 C38 1.232 . S
C38 O37 1.232 . S
C38 O39 1.218 . S
O39 C38 1.218 . S
C40 O33 1.275 . S
C40 O35 1.255 . S
C41 O42 1.258 . S
C41 O43 1.256 . S
O42 Cd34 2.381 . S
O42 C41 1.258 . S
O43 Cd34 2.378 . S
O43 C41 1.256 . S
Tb44 N73 2.617 . S
Tb44 N79 2.572 . S
Tb44 O88 2.465 . S
Tb44 O89 2.387 . S
Tb44 O91 2.428 . S
Tb44 O92 2.308 1_565 S
Tb44 O96 2.349 1_465 S
Tb44 O99 2.393 1_455 S
Tb44 C108 2.802 . S
C45 N46 1.379 . S
C45 C48 1.416 . S
C45 C52 1.424 . S
N46 C45 1.379 . S
N46 C49 1.334 1_655 S
N46 Tb55 2.617 . S
C47 C49 1.390 . S
C47 C50 1.339 1_455 S
C47 H67 0.930 . S
C48 C45 1.416 . S
C48 C50 1.416 . S
C48 C54 1.448 . S
C49 N46 1.334 1_455 S
C49 C47 1.390 . S
C49 H60 0.930 . S
C50 C47 1.339 1_655 S
C50 C48 1.416 . S
C50 H71 0.930 . S
C51 C52 1.413 . S
C51 C53 1.427 . S
C51 C57 1.416 . S
C52 C45 1.424 . S
C52 C51 1.413 . S
C52 N56 1.361 . S
C53 C51 1.427 . S
C53 C54 1.328 . S
C53 H68 0.929 . S
C54 C48 1.448 . S
C54 C53 1.328 . S
C54 H69 0.930 . S
Tb55 N46 2.617 . S
Tb55 N56 2.572 . S
Tb55 O90 2.349 1_655 S
Tb55 O93 2.393 1_655 S
Tb55 O94 2.465 . S
Tb55 O95 2.387 . S
Tb55 O97 2.428 . S
Tb55 O98 2.308 1_545 S
Tb55 C119 2.802 . S
N56 C52 1.361 . S
N56 Tb55 2.572 . S
N56 C58 1.340 . S
C57 C51 1.416 . S
C57 C59 1.332 . S
C57 H65 0.931 . S
C58 N56 1.340 . S
C58 C59 1.407 . S
C58 H64 0.930 . S
C59 C57 1.332 . S
C59 C58 1.407 . S
C59 H61 0.929 . S
H60 C49 0.930 . S
H61 C59 0.929 . S
H62 C77 0.930 1_655 S
H63 C84 0.929 . S
H64 C58 0.930 . S
H65 C57 0.931 . S
H66 C80 0.930 . S
H67 C47 0.930 . S
H68 C53 0.929 . S
H69 C54 0.930 . S
H70 C75 0.930 1_655 S
H71 C50 0.930 . S
H72 C83 0.931 . S
N73 Tb44 2.617 . S
N73 C74 1.379 . S
N73 C77 1.334 . S
C74 N73 1.379 . S
C74 C76 1.416 . S
C74 C82 1.424 . S
C75 H70 0.930 1_455 S
C75 C77 1.390 . S
C75 C78 1.339 . S
C76 C74 1.416 . S
C76 C78 1.416 . S
C76 C109 1.448 . S
C77 H62 0.930 1_455 S
C77 N73 1.334 . S
C77 C75 1.390 . S
C78 C75 1.339 . S
C78 C76 1.416 . S
C78 H85 0.930 . S
N79 Tb44 2.572 . S
N79 C80 1.340 . S
N79 C82 1.361 . S
C80 H66 0.930 . S
C80 N79 1.340 . S
C80 C84 1.407 . S
C81 C82 1.413 . S
C81 C83 1.416 . S
C81 C110 1.427 . S
C82 C74 1.424 . S
C82 N79 1.361 . S
C82 C81 1.413 . S
C83 H72 0.931 . S
C83 C81 1.416 . S
C83 C84 1.332 . S
C84 H63 0.929 . S
C84 C80 1.407 . S
C84 C83 1.332 . S
H85 C78 0.930 . S
H86 C109 0.930 . S
H87 C110 0.929 . S
O88 Tb44 2.465 . S
O88 C108 1.264 . S
O89 Tb44 2.387 . S
O89 C100 1.264 . S
O90 Tb55 2.349 1_455 S
O90 C100 1.243 1_545 S
O91 Tb44 2.428 . S
O91 C108 1.256 . S
O92 Tb44 2.308 1_545 S
O92 C107 1.266 . S
O93 Tb55 2.393 1_455 S
O93 C107 1.248 . S
O94 Tb55 2.465 . S
O94 C119 1.264 . S
O95 Tb55 2.387 . S
O95 C111 1.264 . S
O96 Tb44 2.349 1_645 S
O96 C111 1.243 . S
O97 Tb55 2.428 . S
O97 C119 1.256 . S
O98 Tb55 2.308 1_565 S
O98 C118 1.266 . S
O99 Tb44 2.393 1_655 S
O99 C118 1.248 . S
C100 O89 1.264 . S
C100 O90 1.243 1_565 S
C101 C104 1.399 . S
C101 C106 1.383 . S
C101 C108 1.496 . S
C102 C103 1.399 . S
C102 C106 1.389 . S
C103 C102 1.399 . S
C103 C105 1.380 . S
C103 H120 0.929 . S
C104 C101 1.399 . S
C104 C105 1.392 . S
C104 H121 0.929 . S
C105 C103 1.380 . S
C105 C104 1.392 . S
C105 H122 0.929 . S
C106 C101 1.383 . S
C106 C102 1.389 . S
C106 H123 0.931 . S
C107 O92 1.266 . S
C107 O93 1.248 . S
C108 Tb44 2.802 . S
C108 O88 1.264 . S
C108 O91 1.256 . S
C108 C101 1.496 . S
C109 C76 1.448 . S
C109 H86 0.930 . S
C109 C110 1.328 . S
C110 C81 1.427 . S
C110 H87 0.929 . S
C110 C109 1.328 . S
C111 O95 1.264 . S
C111 O96 1.243 . S
C112 C115 1.399 . S
C112 C116 1.383 . S
C112 C119 1.496 . S
C113 C114 1.399 . S
C113 C116 1.389 . S
C114 C113 1.399 . S
C114 C117 1.380 . S
C114 H124 0.929 . S
C115 C112 1.399 . S
C115 C117 1.392 . S
C115 H125 0.929 . S
C116 C112 1.383 . S
C116 C113 1.389 . S
C116 H126 0.931 . S
C117 C114 1.380 . S
C117 C115 1.392 . S
C117 H127 0.929 . S
C118 O98 1.266 . S
C118 O99 1.248 . S
C119 Tb55 2.802 . S
C119 O94 1.264 . S
C119 O97 1.256 . S
C119 C112 1.496 . S
H120 C103 0.929 . S
H121 C104 0.929 . S
H122 C105 0.929 . S
H123 C106 0.931 . S
H124 C114 0.929 . S
H125 C115 0.929 . S
H126 C116 0.931 . S
H127 C117 0.929 . S
Tb128 N157 2.617 . S
Tb128 N163 2.572 1_556 S
Tb128 O172 2.465 . S
Tb128 O173 2.387 1_556 S
Tb128 O175 2.428 . S
Tb128 O176 2.308 1_556 S
Tb128 O180 2.349 . S
Tb128 O183 2.393 . S
Tb128 C192 2.802 . S
C129 N130 1.379 . S
C129 C132 1.416 . S
C129 C136 1.424 . S
N130 C129 1.379 . S
N130 C133 1.334 . S
N130 Tb139 2.617 . S
C131 C133 1.390 . S
C131 C134 1.339 . S
C131 H151 0.930 . S
C132 C129 1.416 . S
C132 C134 1.416 . S
C132 C138 1.448 . S
C133 N130 1.334 . S
C133 C131 1.390 . S
C133 H144 0.930 . S
C134 C131 1.339 . S
C134 C132 1.416 . S
C134 H155 0.930 . S
C135 C136 1.413 . S
C135 C137 1.427 . S
C135 C141 1.416 . S
C136 C129 1.424 . S
C136 C135 1.413 . S
C136 N140 1.361 . S
C137 C135 1.427 . S
C137 C138 1.328 . S
C137 H152 0.929 . S
C138 C132 1.448 . S
C138 C137 1.328 . S
C138 H153 0.930 . S
Tb139 N130 2.617 . S
Tb139 N140 2.572 . S
Tb139 O174 2.349 . S
Tb139 O177 2.393 . S
Tb139 O178 2.465 . S
Tb139 O179 2.387 1_554 S
Tb139 O181 2.428 . S
Tb139 O182 2.308 . S
Tb139 C203 2.802 . S
N140 C136 1.361 . S
N140 Tb139 2.572 . S
N140 C142 1.340 . S
C141 C135 1.416 . S
C141 C143 1.332 . S
C141 H149 0.939 . S
C142 N140 1.340 . S
C142 C143 1.407 . S
C142 H148 0.930 . S
C143 C141 1.332 . S
C143 C142 1.407 . S
C143 H145 0.929 . S
H144 C133 0.930 . S
H145 C143 0.929 . S
H146 C161 0.930 . S
H147 C168 0.929 . S
H148 C142 0.930 . S
H149 C141 0.939 . S
H150 C164 0.930 . S
H151 C131 0.930 . S
H152 C137 0.929 . S
H153 C138 0.930 . S
H154 C159 0.930 . S
H155 C134 0.930 . S
H156 C167 0.931 . S
N157 Tb128 2.617 . S
N157 C158 1.379 1_556 S
N157 C161 1.334 . S
C158 N157 1.379 1_554 S
C158 C160 1.416 . S
C158 C166 1.424 . S
C159 H154 0.930 . S
C159 C161 1.390 . S
C159 C162 1.336 1_556 S
C160 C158 1.416 . S
C160 C162 1.415 . S
C160 C193 1.448 . S
C161 H146 0.930 . S
C161 N157 1.334 . S
C161 C159 1.390 . S
C162 C159 1.336 1_554 S
C162 C160 1.415 . S
C162 H169 0.934 . S
N163 Tb128 2.572 1_554 S
N163 C164 1.340 . S
N163 C166 1.361 . S
C164 H150 0.930 . S
C164 N163 1.340 . S
C164 C168 1.407 . S
C165 C166 1.413 . S
C165 C167 1.416 . S
C165 C194 1.427 . S
C166 C158 1.424 . S
C166 N163 1.361 . S
C166 C165 1.413 . S
C167 H156 0.931 . S
C167 C165 1.416 . S
C167 C168 1.332 . S
C168 H147 0.929 . S
C168 C164 1.407 . S
C168 C167 1.332 . S
H169 C162 0.934 . S
H170 C193 0.930 . S
H171 C194 0.929 . S
O172 Tb128 2.465 . S
O172 C192 1.264 . S
O173 Tb128 2.387 1_554 S
O173 C184 1.264 . S
O174 Tb139 2.349 . S
O174 C184 1.243 . S
O175 Tb128 2.428 . S
O175 C192 1.256 . S
O176 Tb128 2.308 1_554 S
O176 C191 1.266 . S
O177 Tb139 2.393 . S
O177 C191 1.248 . S
O178 Tb139 2.465 . S
O178 C203 1.264 . S
O179 Tb139 2.387 1_556 S
O179 C195 1.264 . S
O180 Tb128 2.349 . S
O180 C195 1.243 . S
O181 Tb139 2.428 . S
O181 C203 1.256 . S
O182 Tb139 2.308 . S
O182 C202 1.266 . S
O183 Tb128 2.393 . S
O183 C202 1.248 1_556 S
C184 O173 1.264 . S
C184 O174 1.243 . S
C185 C188 1.399 . S
C185 C190 1.383 . S
C185 C192 1.496 . S
C186 C187 1.399 . S
C186 C190 1.389 . S
C187 C186 1.399 . S
C187 C189 1.380 . S
C187 H204 0.929 . S
C188 C185 1.399 . S
C188 C189 1.392 . S
C188 H205 0.929 . S
C189 C187 1.380 . S
C189 C188 1.392 . S
C189 H206 0.929 . S
C190 C185 1.383 . S
C190 C186 1.389 . S
C190 H207 0.931 . S
C191 O176 1.266 . S
C191 O177 1.248 . S
C192 Tb128 2.802 . S
C192 O172 1.264 . S
C192 O175 1.256 . S
C192 C185 1.496 . S
C193 C160 1.448 . S
C193 H170 0.930 . S
C193 C194 1.328 . S
C194 C165 1.427 . S
C194 H171 0.929 . S
C194 C193 1.328 . S
C195 O179 1.264 . S
C195 O180 1.243 . S
C196 C199 1.399 . S
C196 C200 1.383 . S
C196 C203 1.496 . S
C197 C198 1.399 . S
C197 C200 1.389 . S
C198 C197 1.399 . S
C198 C201 1.380 . S
C198 H208 0.929 . S
C199 C196 1.399 . S
C199 C201 1.392 . S
C199 H209 0.929 . S
C200 C196 1.383 . S
C200 C197 1.389 . S
C200 H210 0.931 . S
C201 C198 1.380 . S
C201 C199 1.392 . S
C201 H211 0.929 . S
C202 O182 1.266 . S
C202 O183 1.248 1_554 S
C203 Tb139 2.802 . S
C203 O178 1.264 . S
C203 O181 1.256 . S
C203 C196 1.496 . S
H204 C187 0.929 . S
H205 C188 0.929 . S
H206 C189 0.929 . S
H207 C190 0.931 . S
H208 C198 0.929 . S
H209 C199 0.929 . S
H210 C200 0.931 . S
H211 C201 0.929 . S
H212 C220 0.929 . S
H213 C222 0.930 . S
H214 C224 0.930 . S
H215 C227 0.929 . S
H216 C230 0.930 . S
H217 C232 0.960 . S
H218 C232 0.960 . S
H219 C232 0.960 . S
C220 H212 0.929 . S
C220 C221 1.377 . S
C220 C222 1.384 . S
C221 C220 1.377 . S
C221 C227 1.390 . S
C222 H213 0.930 . S
C222 C220 1.384 . S
C222 C223 1.372 . S
C223 C222 1.372 . S
C223 C224 1.400 . S
C223 C228 1.490 . S
C224 H214 0.930 . S
C224 C223 1.400 . S
C224 C227 1.386 . S
H225 C241 0.930 . S
H226 C242 0.931 . S
C227 H215 0.929 . S
C227 C221 1.390 . S
C227 C224 1.386 . S
C228 C223 1.490 . S
C228 C230 1.395 . S
C228 C231 1.403 . S
H229 C235 0.930 . S
C230 H216 0.930 . S
C230 C228 1.395 . S
C230 C233 1.403 . S
C231 C228 1.403 . S
C231 C232 1.524 . S
C231 C235 1.400 . S
C232 H217 0.960 . S
C232 H218 0.960 . S
C232 H219 0.960 . S
C232 C231 1.524 . S
C233 C230 1.403 . S
C233 C234 1.392 . S
C233 C237 1.495 . S
C234 C233 1.392 . S
C234 C235 1.385 . S
C234 C236 1.478 . S
C235 H229 0.930 . S
C235 C231 1.400 . S
C235 C234 1.385 . S
C236 C234 1.478 . S
C236 C238 1.381 . S
C236 C242 1.383 . S
C237 C233 1.495 . S
C237 H243 0.959 . S
C237 H244 0.961 . S
C237 H245 0.960 . S
C238 C236 1.381 . S
C238 C239 1.394 . S
C238 H246 0.930 . S
C239 C238 1.394 . S
C239 C240 1.383 . S
C239 H247 0.929 . S
C240 C239 1.383 . S
C240 C241 1.377 . S
C241 H225 0.930 . S
C241 C240 1.377 . S
C241 C242 1.379 . S
C242 H226 0.931 . S
C242 C236 1.383 . S
C242 C241 1.379 . S
H243 C237 0.959 . S
H244 C237 0.961 . S
H245 C237 0.960 . S
H246 C238 0.930 . S
H247 C239 0.929 . S
H248 C256 0.929 . S
H249 C258 0.930 . S
H250 C260 0.930 1_556 S
H251 C263 0.929 . S
H252 C266 0.930 . S
H253 C268 0.960 . S
H254 C268 0.960 . S
H255 C268 0.960 . S
C256 H248 0.929 . S
C256 C257 1.377 . S
C256 C258 1.384 . S
C257 C256 1.377 . S
C257 C263 1.390 . S
C258 H249 0.930 . S
C258 C256 1.384 . S
C258 C259 1.372 . S
C259 C258 1.372 . S
C259 C260 1.400 . S
C259 C264 1.490 . S
C260 H250 0.930 1_554 S
C260 C259 1.400 . S
C260 C263 1.386 . S
H261 C277 0.930 1_556 S
H262 C278 0.925 1_556 S
C263 H251 0.929 . S
C263 C257 1.390 . S
C263 C260 1.386 . S
C264 C259 1.490 . S
C264 C266 1.395 . S
C264 C267 1.403 . S
H265 C271 0.930 1_556 S
C266 H252 0.930 . S
C266 C264 1.395 . S
C266 C269 1.403 . S
C267 C264 1.403 . S
C267 C268 1.524 1_554 S
C267 C271 1.400 . S
C268 H253 0.960 . S
C268 H254 0.960 . S
C268 H255 0.960 . S
C268 C267 1.524 1_556 S
C269 C266 1.403 . S
C269 C270 1.392 . S
C269 C273 1.495 . S
C270 C269 1.392 . S
C270 C271 1.385 . S
C270 C272 1.478 . S
C271 H265 0.930 1_554 S
C271 C267 1.400 . S
C271 C270 1.385 . S
C272 C270 1.478 . S
C272 C274 1.381 . S
C272 C278 1.383 . S
C273 C269 1.495 . S
C273 H279 0.959 . S
C273 H280 0.961 . S
C273 H281 0.960 . S
C274 C272 1.381 . S
C274 C275 1.394 . S
C274 H282 0.930 . S
C275 C274 1.394 . S
C275 C276 1.383 . S
C275 H283 0.929 . S
C276 C275 1.383 . S
C276 C277 1.377 . S
C277 H261 0.930 1_554 S
C277 C276 1.377 . S
C277 C278 1.379 . S
C278 H262 0.925 1_554 S
C278 C272 1.383 . S
C278 C277 1.379 . S
H279 C273 0.959 . S
H280 C273 0.961 . S
H281 C273 0.960 . S
H282 C274 0.930 . S
H283 C275 0.929 . S
H284 C292 0.929 . S
H285 C294 0.930 . S
H286 C296 0.930 . S
H287 C299 0.929 . S
H288 C302 0.930 . S
H289 C304 0.960 . S
H290 C304 0.960 . S
H291 C304 0.960 . S
C292 H284 0.929 . S
C292 C293 1.377 . S
C292 C294 1.384 . S
C293 C292 1.377 . S
C293 C299 1.390 . S
C294 H285 0.930 . S
C294 C292 1.384 . S
C294 C295 1.372 . S
C295 C294 1.372 . S
C295 C296 1.400 . S
C295 C300 1.490 . S
C296 H286 0.930 . S
C296 C295 1.400 . S
C296 C299 1.386 . S
H297 C313 0.930 . S
H298 C314 0.931 . S
C299 H287 0.929 . S
C299 C293 1.390 . S
C299 C296 1.386 . S
C300 C295 1.490 . S
C300 C302 1.395 . S
C300 C303 1.403 . S
H301 C307 0.930 . S
C302 H288 0.930 . S
C302 C300 1.395 . S
C302 C305 1.403 . S
C303 C300 1.403 . S
C303 C304 1.524 . S
C303 C307 1.400 . S
C304 H289 0.960 . S
C304 H290 0.960 . S
C304 H291 0.960 . S
C304 C303 1.524 . S
C305 C302 1.403 . S
C305 C306 1.392 . S
C305 C309 1.495 . S
C306 C305 1.392 . S
C306 C307 1.385 . S
C306 C308 1.478 . S
C307 H301 0.930 . S
C307 C303 1.400 . S
C307 C306 1.385 . S
C308 C306 1.478 . S
C308 C310 1.381 . S
C308 C314 1.383 . S
C309 C305 1.495 . S
C309 H315 0.959 . S
C309 H316 0.961 . S
C309 H317 0.960 . S
C310 C308 1.381 . S
C310 C311 1.394 . S
C310 H318 0.930 . S
C311 C310 1.394 . S
C311 C312 1.383 . S
C311 H319 0.929 . S
C312 C311 1.383 . S
C312 C313 1.377 . S
C313 H297 0.930 . S
C313 C312 1.377 . S
C313 C314 1.379 . S
C314 H298 0.931 . S
C314 C308 1.383 . S
C314 C313 1.379 . S
H315 C309 0.959 . S
H316 C309 0.961 . S
H317 C309 0.960 . S
H318 C310 0.930 . S
H319 C311 0.929 . S
H320 C328 0.929 1_556 S
H321 C330 0.930 1_556 S
H322 C332 0.930 . S
H323 C335 0.929 . S
H324 C338 0.930 . S
H325 C340 0.960 . S
H326 C340 0.960 . S
H327 C340 0.960 . S
C328 H320 0.929 1_554 S
C328 C329 1.377 . S
C328 C330 1.384 . S
C329 C328 1.377 . S
C329 C335 1.390 . S
C330 H321 0.930 1_554 S
C330 C328 1.384 . S
C330 C331 1.372 . S
C331 C330 1.372 . S
C331 C332 1.400 . S
C331 C336 1.490 . S
C332 H322 0.930 . S
C332 C331 1.400 . S
C332 C335 1.386 . S
H333 C349 0.930 . S
H334 C350 0.931 . S
C335 H323 0.929 . S
C335 C329 1.390 . S
C335 C332 1.386 . S
C336 C331 1.490 . S
C336 C338 1.395 . S
C336 C339 1.403 . S
H337 C343 0.930 . S
C338 H324 0.930 . S
C338 C336 1.395 . S
C338 C341 1.403 . S
C339 C336 1.403 . S
C339 C340 1.524 . S
C339 C343 1.400 . S
C340 H325 0.960 . S
C340 H326 0.960 . S
C340 H327 0.960 . S
C340 C339 1.524 . S
C341 C338 1.403 . S
C341 C342 1.392 . S
C341 C345 1.495 . S
C342 C341 1.392 . S
C342 C343 1.385 . S
C342 C344 1.478 . S
C343 H337 0.930 . S
C343 C339 1.400 . S
C343 C342 1.385 . S
C344 C342 1.478 . S
C344 C346 1.381 1_554 S
C344 C350 1.383 . S
C345 C341 1.495 . S
C345 H351 0.959 . S
C345 H352 0.961 . S
C345 H353 0.960 . S
C346 C344 1.381 1_556 S
C346 C347 1.394 . S
C346 H354 0.930 . S
C347 C346 1.394 . S
C347 C348 1.383 1_556 S
C347 H355 0.929 . S
C348 C347 1.383 1_554 S
C348 C349 1.377 . S
C349 H333 0.930 . S
C349 C348 1.377 . S
C349 C350 1.379 . S
C350 H334 0.931 . S
C350 C344 1.383 . S
C350 C349 1.379 . S
H351 C345 0.959 . S
H352 C345 0.961 . S
H353 C345 0.960 . S
H354 C346 0.930 . S
H355 C347 0.929 . S
H356 C364 0.929 . S
H357 C366 0.930 . S
H358 C368 0.930 . S
H359 C371 0.929 . S
H360 C374 0.930 . S
H361 C376 0.960 . S
H362 C376 0.960 . S
H363 C376 0.960 . S
C364 H356 0.929 . S
C364 C365 1.377 . S
C364 C366 1.384 . S
C365 C364 1.377 . S
C365 C371 1.390 . S
C366 H357 0.930 . S
C366 C364 1.384 . S
C366 C367 1.372 . S
C367 C366 1.372 . S
C367 C368 1.400 . S
C367 C372 1.490 . S
C368 H358 0.930 . S
C368 C367 1.400 . S
C368 C371 1.386 . S
H369 C385 0.930 . S
H370 C386 0.931 . S
C371 H359 0.929 . S
C371 C365 1.390 . S
C371 C368 1.386 . S
C372 C367 1.490 . S
C372 C374 1.395 . S
C372 C375 1.403 . S
H373 C379 0.930 . S
C374 H360 0.930 . S
C374 C372 1.395 . S
C374 C377 1.403 . S
C375 C372 1.403 . S
C375 C376 1.524 . S
C375 C379 1.400 . S
C376 H361 0.960 . S
C376 H362 0.960 . S
C376 H363 0.960 . S
C376 C375 1.524 . S
C377 C374 1.403 . S
C377 C378 1.392 . S
C377 C381 1.495 . S
C378 C377 1.392 . S
C378 C379 1.385 . S
C378 C380 1.478 . S
C379 H373 0.930 . S
C379 C375 1.400 . S
C379 C378 1.385 . S
C380 C378 1.478 . S
C380 C382 1.381 . S
C380 C386 1.383 . S
C381 C377 1.495 . S
C381 H387 0.959 . S
C381 H388 0.961 . S
C381 H389 0.960 . S
C382 C380 1.381 . S
C382 C383 1.394 . S
C382 H390 0.930 . S
C383 C382 1.394 . S
C383 C384 1.383 . S
C383 H391 0.929 . S
C384 C383 1.383 . S
C384 C385 1.377 . S
C385 H369 0.930 . S
C385 C384 1.377 . S
C385 C386 1.379 . S
C386 H370 0.931 . S
C386 C380 1.383 . S
C386 C385 1.379 . S
H387 C381 0.959 . S
H388 C381 0.961 . S
H389 C381 0.960 . S
H390 C382 0.930 . S
H391 C383 0.929 . S
H392 C400 0.929 . S
H393 C402 0.930 . S
H394 C404 0.930 . S
H395 C407 0.929 . S
H396 C410 0.930 . S
H397 C412 0.960 . S
H398 C412 0.960 . S
H399 C412 0.960 . S
C400 H392 0.929 . S
C400 C401 1.377 . S
C400 C402 1.384 . S
C401 C400 1.377 . S
C401 C407 1.390 . S
C402 H393 0.930 . S
C402 C400 1.384 . S
C402 C403 1.372 . S
C403 C402 1.372 . S
C403 C404 1.400 . S
C403 C408 1.490 . S
C404 H394 0.930 . S
C404 C403 1.400 . S
C404 C407 1.386 . S
H405 C421 0.930 . S
H406 C422 0.931 . S
C407 H395 0.929 . S
C407 C401 1.390 . S
C407 C404 1.386 . S
C408 C403 1.490 . S
C408 C410 1.395 . S
C408 C411 1.403 . S
H409 C415 0.930 . S
C410 H396 0.930 . S
C410 C408 1.395 . S
C410 C413 1.403 . S
C411 C408 1.403 . S
C411 C412 1.524 . S
C411 C415 1.400 . S
C412 H397 0.960 . S
C412 H398 0.960 . S
C412 H399 0.960 . S
C412 C411 1.524 . S
C413 C410 1.403 . S
C413 C414 1.392 . S
C413 C417 1.495 . S
C414 C413 1.392 . S
C414 C415 1.385 . S
C414 C416 1.478 . S
C415 H409 0.930 . S
C415 C411 1.400 . S
C415 C414 1.385 . S
C416 C414 1.478 . S
C416 C418 1.381 . S
C416 C422 1.383 . S
C417 C413 1.495 . S
C417 H423 0.959 . S
C417 H424 0.961 . S
C417 H425 0.960 . S
C418 C416 1.381 . S
C418 C419 1.394 . S
C418 H426 0.930 . S
C419 C418 1.394 . S
C419 C420 1.383 . S
C419 H427 0.929 . S
C420 C419 1.383 . S
C420 C421 1.377 . S
C421 H405 0.930 . S
C421 C420 1.377 . S
C421 C422 1.379 . S
C422 H406 0.931 . S
C422 C416 1.383 . S
C422 C421 1.379 . S
H423 C417 0.959 . S
H424 C417 0.961 . S
H425 C417 0.960 . S
H426 C418 0.930 . S
H427 C419 0.929 . S
H428 C436 0.929 . S
H429 C438 0.930 . S
H430 C440 0.930 . S
H431 C443 0.929 . S
H432 C446 0.930 . S
H433 C448 0.960 . S
H434 C448 0.960 . S
H435 C448 0.960 . S
C436 H428 0.929 . S
C436 C437 1.377 . S
C436 C438 1.384 . S
C437 C436 1.377 . S
C437 C443 1.390 . S
C438 H429 0.930 . S
C438 C436 1.384 . S
C438 C439 1.372 . S
C439 C438 1.372 . S
C439 C440 1.400 . S
C439 C444 1.490 . S
C440 H430 0.930 . S
C440 C439 1.400 . S
C440 C443 1.386 . S
H441 C457 0.930 . S
H442 C458 0.931 . S
C443 H431 0.929 . S
C443 C437 1.390 . S
C443 C440 1.386 . S
C444 C439 1.490 . S
C444 C446 1.395 . S
C444 C447 1.403 . S
H445 C451 0.930 . S
C446 H432 0.930 . S
C446 C444 1.395 . S
C446 C449 1.403 . S
C447 C444 1.403 . S
C447 C448 1.524 . S
C447 C451 1.400 . S
C448 H433 0.960 . S
C448 H434 0.960 . S
C448 H435 0.960 . S
C448 C447 1.524 . S
C449 C446 1.403 . S
C449 C450 1.392 . S
C449 C453 1.495 . S
C450 C449 1.392 . S
C450 C451 1.385 . S
C450 C452 1.478 . S
C451 H445 0.930 . S
C451 C447 1.400 . S
C451 C450 1.385 . S
C452 C450 1.478 . S
C452 C454 1.381 . S
C452 C458 1.383 . S
C453 C449 1.495 . S
C453 H459 0.959 . S
C453 H460 0.961 . S
C453 H461 0.960 . S
C454 C452 1.381 . S
C454 C455 1.394 . S
C454 H462 0.930 . S
C455 C454 1.394 . S
C455 C456 1.383 . S
C455 H463 0.929 . S
C456 C455 1.383 . S
C456 C457 1.377 . S
C457 H441 0.930 . S
C457 C456 1.377 . S
C457 C458 1.379 . S
C458 H442 0.931 . S
C458 C452 1.383 . S
C458 C457 1.379 . S
H459 C453 0.959 . S
H460 C453 0.961 . S
H461 C453 0.960 . S
H462 C454 0.930 . S
H463 C455 0.929 . S
H464 C472 0.929 . S
H465 C474 0.930 . S
H466 C476 0.930 . S
H467 C479 0.929 . S
H468 C482 0.930 . S
H469 C484 0.960 . S
H470 C484 0.960 . S
H471 C484 0.960 . S
C472 H464 0.929 . S
C472 C473 1.377 . S
C472 C474 1.384 . S
C473 C472 1.377 . S
C473 C479 1.390 . S
C474 H465 0.930 . S
C474 C472 1.384 . S
C474 C475 1.372 . S
C475 C474 1.372 . S
C475 C476 1.400 . S
C475 C480 1.490 . S
C476 H466 0.930 . S
C476 C475 1.400 . S
C476 C479 1.386 . S
H477 C493 0.930 . S
H478 C494 0.931 . S
C479 H467 0.929 . S
C479 C473 1.390 . S
C479 C476 1.386 . S
C480 C475 1.490 . S
C480 C482 1.395 . S
C480 C483 1.403 . S
H481 C487 0.930 . S
C482 H468 0.930 . S
C482 C480 1.395 . S
C482 C485 1.403 . S
C483 C480 1.403 . S
C483 C484 1.524 . S
C483 C487 1.400 . S
C484 H469 0.960 . S
C484 H470 0.960 . S
C484 H471 0.960 . S
C484 C483 1.524 . S
C485 C482 1.403 . S
C485 C486 1.392 . S
C485 C489 1.495 . S
C486 C485 1.392 . S
C486 C487 1.385 . S
C486 C488 1.478 . S
C487 H481 0.930 . S
C487 C483 1.400 . S
C487 C486 1.385 . S
C488 C486 1.478 . S
C488 C490 1.381 . S
C488 C494 1.383 . S
C489 C485 1.495 . S
C489 H495 0.959 . S
C489 H496 0.961 . S
C489 H497 0.960 . S
C490 C488 1.381 . S
C490 C491 1.394 . S
C490 H498 0.930 . S
C491 C490 1.394 . S
C491 C492 1.383 . S
C491 H499 0.929 . S
C492 C491 1.383 . S
C492 C493 1.377 . S
C493 H477 0.930 . S
C493 C492 1.377 . S
C493 C494 1.379 . S
C494 H478 0.931 . S
C494 C488 1.383 . S
C494 C493 1.379 . S
H495 C489 0.959 . S
H496 C489 0.961 . S
H497 C489 0.960 . S
H498 C490 0.930 . S
H499 C491 0.929 . S
H500 C508 0.929 . S
H501 C510 0.930 . S
H502 C512 0.930 . S
H503 C515 0.929 . S
H504 C518 0.930 . S
H505 C520 0.960 . S
H506 C520 0.960 . S
H507 C520 0.960 . S
C508 H500 0.929 . S
C508 C509 1.377 . S
C508 C510 1.384 . S
C509 C508 1.377 . S
C509 C515 1.390 . S
C510 H501 0.930 . S
C510 C508 1.384 . S
C510 C511 1.372 . S
C511 C510 1.372 . S
C511 C512 1.400 . S
C511 C516 1.490 . S
C512 H502 0.930 . S
C512 C511 1.400 . S
C512 C515 1.386 . S
H513 C529 0.930 . S
H514 C530 0.931 . S
C515 H503 0.929 . S
C515 C509 1.390 . S
C515 C512 1.386 . S
C516 C511 1.490 . S
C516 C518 1.395 . S
C516 C519 1.403 . S
H517 C523 0.930 . S
C518 H504 0.930 . S
C518 C516 1.395 . S
C518 C521 1.403 . S
C519 C516 1.403 . S
C519 C520 1.524 . S
C519 C523 1.400 . S
C520 H505 0.960 . S
C520 H506 0.960 . S
C520 H507 0.960 . S
C520 C519 1.524 . S
C521 C518 1.403 . S
C521 C522 1.392 . S
C521 C525 1.495 . S
C522 C521 1.392 . S
C522 C523 1.385 . S
C522 C524 1.478 . S
C523 H517 0.930 . S
C523 C519 1.400 . S
C523 C522 1.385 . S
C524 C522 1.478 . S
C524 C526 1.381 . S
C524 C530 1.383 . S
C525 C521 1.495 . S
C525 H531 0.959 . S
C525 H532 0.961 . S
C525 H533 0.960 . S
C526 C524 1.381 . S
C526 C527 1.394 . S
C526 H534 0.930 . S
C527 C526 1.394 . S
C527 C528 1.383 . S
C527 H535 0.929 . S
C528 C527 1.383 . S
C528 C529 1.377 . S
C529 H513 0.930 . S
C529 C528 1.377 . S
C529 C530 1.379 . S
C530 H514 0.931 . S
C530 C524 1.383 . S
C530 C529 1.379 . S
H531 C525 0.959 . S
H532 C525 0.961 . S
H533 C525 0.960 . S
H534 C526 0.930 . S
H535 C527 0.929 . S
H536 C544 0.929 . S
H537 C546 0.930 . S
H538 C548 0.930 . S
H539 C551 0.929 . S
H540 C554 0.930 . S
H541 C556 0.960 . S
H542 C556 0.960 . S
H543 C556 0.960 . S
C544 H536 0.929 . S
C544 C545 1.377 . S
C544 C546 1.384 . S
C545 C544 1.377 . S
C545 C551 1.390 . S
C546 H537 0.930 . S
C546 C544 1.384 . S
C546 C547 1.372 . S
C547 C546 1.372 . S
C547 C548 1.400 . S
C547 C552 1.490 . S
C548 H538 0.930 . S
C548 C547 1.400 . S
C548 C551 1.386 . S
H549 C565 0.930 . S
H550 C566 0.931 . S
C551 H539 0.929 . S
C551 C545 1.390 . S
C551 C548 1.386 . S
C552 C547 1.490 . S
C552 C554 1.395 . S
C552 C555 1.403 . S
H553 C559 0.930 . S
C554 H540 0.930 . S
C554 C552 1.395 . S
C554 C557 1.403 . S
C555 C552 1.403 . S
C555 C556 1.524 . S
C555 C559 1.400 . S
C556 H541 0.960 . S
C556 H542 0.960 . S
C556 H543 0.960 . S
C556 C555 1.524 . S
C557 C554 1.403 . S
C557 C558 1.392 . S
C557 C561 1.495 . S
C558 C557 1.392 . S
C558 C559 1.385 . S
C558 C560 1.478 . S
C559 H553 0.930 . S
C559 C555 1.400 . S
C559 C558 1.385 . S
C560 C558 1.478 . S
C560 C562 1.381 . S
C560 C566 1.383 . S
C561 C557 1.495 . S
C561 H567 0.959 . S
C561 H568 0.961 . S
C561 H569 0.960 . S
C562 C560 1.381 . S
C562 C563 1.394 . S
C562 H570 0.930 . S
C563 C562 1.394 . S
C563 C564 1.383 . S
C563 H571 0.929 . S
C564 C563 1.383 . S
C564 C565 1.377 . S
C565 H549 0.930 . S
C565 C564 1.377 . S
C565 C566 1.379 . S
C566 H550 0.931 . S
C566 C560 1.383 . S
C566 C565 1.379 . S
H567 C561 0.959 . S
H568 C561 0.961 . S
H569 C561 0.960 . S
H570 C562 0.930 . S
H571 C563 0.929 . S
H572 C580 0.929 . S
H573 C582 0.930 . S
H574 C584 0.930 . S
H575 C587 0.929 . S
H576 C590 0.930 . S
H577 C592 0.960 . S
H578 C592 0.960 . S
H579 C592 0.960 . S
C580 H572 0.929 . S
C580 C581 1.377 . S
C580 C582 1.384 . S
C581 C580 1.377 . S
C581 C587 1.390 . S
C582 H573 0.930 . S
C582 C580 1.384 . S
C582 C583 1.372 . S
C583 C582 1.372 . S
C583 C584 1.400 . S
C583 C588 1.490 . S
C584 H574 0.930 . S
C584 C583 1.400 . S
C584 C587 1.386 . S
H585 C601 0.930 . S
H586 C602 0.931 . S
C587 H575 0.929 . S
C587 C581 1.390 . S
C587 C584 1.386 . S
C588 C583 1.490 . S
C588 C590 1.395 . S
C588 C591 1.403 . S
H589 C595 0.930 . S
C590 H576 0.930 . S
C590 C588 1.395 . S
C590 C593 1.403 . S
C591 C588 1.403 . S
C591 C592 1.524 . S
C591 C595 1.400 . S
C592 H577 0.960 . S
C592 H578 0.960 . S
C592 H579 0.960 . S
C592 C591 1.524 . S
C593 C590 1.403 . S
C593 C594 1.392 . S
C593 C597 1.495 . S
C594 C593 1.392 . S
C594 C595 1.385 . S
C594 C596 1.478 . S
C595 H589 0.930 . S
C595 C591 1.400 . S
C595 C594 1.385 . S
C596 C594 1.478 . S
C596 C598 1.381 . S
C596 C602 1.383 . S
C597 C593 1.495 . S
C597 H603 0.959 . S
C597 H604 0.961 . S
C597 H605 0.960 . S
C598 C596 1.381 . S
C598 C599 1.394 . S
C598 H606 0.930 . S
C599 C598 1.394 . S
C599 C600 1.383 . S
C599 H607 0.929 . S
C600 C599 1.383 . S
C600 C601 1.377 . S
C601 H585 0.930 . S
C601 C600 1.377 . S
C601 C602 1.379 . S
C602 H586 0.931 . S
C602 C596 1.383 . S
C602 C601 1.379 . S
H603 C597 0.959 . S
H604 C597 0.961 . S
H605 C597 0.960 . S
H606 C598 0.930 . S
H607 C599 0.929 . S
H608 C616 0.929 . S
H609 C618 0.930 . S
H610 C620 0.930 . S
H611 C623 0.929 . S
H612 C626 0.930 . S
H613 C628 0.960 . S
H614 C628 0.960 . S
H615 C628 0.960 . S
C616 H608 0.929 . S
C616 C617 1.377 . S
C616 C618 1.384 . S
C617 C616 1.377 . S
C617 C623 1.390 . S
C618 H609 0.930 . S
C618 C616 1.384 . S
C618 C619 1.372 . S
C619 C618 1.372 . S
C619 C620 1.400 . S
C619 C624 1.490 . S
C620 H610 0.930 . S
C620 C619 1.400 . S
C620 C623 1.386 . S
H621 C637 0.930 . S
H622 C638 0.931 . S
C623 H611 0.929 . S
C623 C617 1.390 . S
C623 C620 1.386 . S
C624 C619 1.490 . S
C624 C626 1.395 . S
C624 C627 1.403 . S
H625 C631 0.930 . S
C626 H612 0.930 . S
C626 C624 1.395 . S
C626 C629 1.403 . S
C627 C624 1.403 . S
C627 C628 1.524 . S
C627 C631 1.400 . S
C628 H613 0.960 . S
C628 H614 0.960 . S
C628 H615 0.960 . S
C628 C627 1.524 . S
C629 C626 1.403 . S
C629 C630 1.392 . S
C629 C633 1.495 . S
C630 C629 1.392 . S
C630 C631 1.385 . S
C630 C632 1.478 . S
C631 H625 0.930 . S
C631 C627 1.400 . S
C631 C630 1.385 . S
C632 C630 1.478 . S
C632 C634 1.381 . S
C632 C638 1.383 . S
C633 C629 1.495 . S
C633 H639 0.959 . S
C633 H640 0.961 . S
C633 H641 0.960 . S
C634 C632 1.381 . S
C634 C635 1.394 . S
C634 H642 0.930 . S
C635 C634 1.394 . S
C635 C636 1.383 . S
C635 H643 0.929 . S
C636 C635 1.383 . S
C636 C637 1.377 . S
C637 H621 0.930 . S
C637 C636 1.377 . S
C637 C638 1.379 . S
C638 H622 0.931 . S
C638 C632 1.383 . S
C638 C637 1.379 . S
H639 C633 0.959 . S
H640 C633 0.961 . S
H641 C633 0.960 . S
H642 C634 0.930 . S
H643 C635 0.929 . S
C240 C107 1.644 . S
C221 C41 1.651 . S
C257 C8 1.664 . S
C276 C202 1.662 . S
C293 C19 1.741 . S
C312 C118 1.749 . S
C329 C30 1.631 . S
C348 C191 1.633 . S
C384 C102 1.476 . S
C365 C5 1.506 . S
C420 C195 1.815 . S
C401 C18 1.763 . S
C437 C29 1.627 . S
C456 C111 1.720 . S
C473 C40 1.614 . S
C492 C186 1.559 . S
C528 C197 1.423 . S
C509 C16 1.310 . S
C564 C113 1.404 . S
C545 C27 1.291 . S
C600 C184 1.553 . S
C581 C38 1.302 . S
C617 C7 1.470 . S
C636 C100 1.507 . S
