# Generated by pormake.
# Topology ocu, (6,8)-cn, num edge types: 1
# Building blocks:
#     Node 0, Type 0, BuildingBlock: VOLQOD_clean_sbu_1, # of connection points: 6
#     Node 1, Type 0, BuildingBlock: VOLQOD_clean_sbu_1, # of connection points: 6
#     Node 2, Type 0, BuildingBlock: VOLQOD_clean_sbu_1, # of connection points: 6
#     Node 3, Type 0, BuildingBlock: VOLQOD_clean_sbu_1, # of connection points: 6
#     Node 4, Type 0, BuildingBlock: VOLQOD_clean_sbu_1, # of connection points: 6
#     Node 5, Type 0, BuildingBlock: VOLQOD_clean_sbu_1, # of connection points: 6
#     Node 6, Type 0, BuildingBlock: VOLQOD_clean_sbu_1, # of connection points: 6
#     Node 7, Type 0, BuildingBlock: VOLQOD_clean_sbu_1, # of connection points: 6
#     Node 8, Type 1, BuildingBlock: AJUNOK_clean_sbu_0, # of connection points: 8
#     Node 9, Type 1, BuildingBlock: AJUNOK_clean_sbu_0, # of connection points: 8
#     Node 10, Type 1, BuildingBlock: AJUNOK_clean_sbu_0, # of connection points: 8
#     Node 11, Type 1, BuildingBlock: AJUNOK_clean_sbu_0, # of connection points: 8
#     Node 12, Type 1, BuildingBlock: AJUNOK_clean_sbu_0, # of connection points: 8
#     Node 13, Type 1, BuildingBlock: AJUNOK_clean_sbu_0, # of connection points: 8
#     Edge 14, Type (0, 1), BuildingBlock: OJICUG_clean_linker_0, # of connection points: 2
#     Edge 15, Type (0, 1), BuildingBlock: OJICUG_clean_linker_0, # of connection points: 2
#     Edge 16, Type (0, 1), BuildingBlock: OJICUG_clean_linker_0, # of connection points: 2
#     Edge 17, Type (0, 1), BuildingBlock: OJICUG_clean_linker_0, # of connection points: 2
#     Edge 18, Type (0, 1), BuildingBlock: OJICUG_clean_linker_0, # of connection points: 2
#     Edge 19, Type (0, 1), BuildingBlock: OJICUG_clean_linker_0, # of connection points: 2
#     Edge 20, Type (0, 1), BuildingBlock: OJICUG_clean_linker_0, # of connection points: 2
#     Edge 21, Type (0, 1), BuildingBlock: OJICUG_clean_linker_0, # of connection points: 2
#     Edge 22, Type (0, 1), BuildingBlock: OJICUG_clean_linker_0, # of connection points: 2
#     Edge 23, Type (0, 1), BuildingBlock: OJICUG_clean_linker_0, # of connection points: 2
#     Edge 24, Type (0, 1), BuildingBlock: OJICUG_clean_linker_0, # of connection points: 2
#     Edge 25, Type (0, 1), BuildingBlock: OJICUG_clean_linker_0, # of connection points: 2
#     Edge 26, Type (0, 1), BuildingBlock: OJICUG_clean_linker_0, # of connection points: 2
#     Edge 27, Type (0, 1), BuildingBlock: OJICUG_clean_linker_0, # of connection points: 2
#     Edge 28, Type (0, 1), BuildingBlock: OJICUG_clean_linker_0, # of connection points: 2
#     Edge 29, Type (0, 1), BuildingBlock: OJICUG_clean_linker_0, # of connection points: 2
#     Edge 30, Type (0, 1), BuildingBlock: OJICUG_clean_linker_0, # of connection points: 2
#     Edge 31, Type (0, 1), BuildingBlock: OJICUG_clean_linker_0, # of connection points: 2
#     Edge 32, Type (0, 1), BuildingBlock: OJICUG_clean_linker_0, # of connection points: 2
#     Edge 33, Type (0, 1), BuildingBlock: OJICUG_clean_linker_0, # of connection points: 2
#     Edge 34, Type (0, 1), BuildingBlock: OJICUG_clean_linker_0, # of connection points: 2
#     Edge 35, Type (0, 1), BuildingBlock: OJICUG_clean_linker_0, # of connection points: 2
#     Edge 36, Type (0, 1), BuildingBlock: OJICUG_clean_linker_0, # of connection points: 2
#     Edge 37, Type (0, 1), BuildingBlock: OJICUG_clean_linker_0, # of connection points: 2
#     Edge 38, Type (0, 1), BuildingBlock: OJICUG_clean_linker_0, # of connection points: 2
#     Edge 39, Type (0, 1), BuildingBlock: OJICUG_clean_linker_0, # of connection points: 2
#     Edge 40, Type (0, 1), BuildingBlock: OJICUG_clean_linker_0, # of connection points: 2
#     Edge 41, Type (0, 1), BuildingBlock: OJICUG_clean_linker_0, # of connection points: 2
#     Edge 42, Type (0, 1), BuildingBlock: OJICUG_clean_linker_0, # of connection points: 2
#     Edge 43, Type (0, 1), BuildingBlock: OJICUG_clean_linker_0, # of connection points: 2
#     Edge 44, Type (0, 1), BuildingBlock: OJICUG_clean_linker_0, # of connection points: 2
#     Edge 45, Type (0, 1), BuildingBlock: OJICUG_clean_linker_0, # of connection points: 2
#     Edge 46, Type (0, 1), BuildingBlock: OJICUG_clean_linker_0, # of connection points: 2
#     Edge 47, Type (0, 1), BuildingBlock: OJICUG_clean_linker_0, # of connection points: 2
#     Edge 48, Type (0, 1), BuildingBlock: OJICUG_clean_linker_0, # of connection points: 2
#     Edge 49, Type (0, 1), BuildingBlock: OJICUG_clean_linker_0, # of connection points: 2
#     Edge 50, Type (0, 1), BuildingBlock: OJICUG_clean_linker_0, # of connection points: 2
#     Edge 51, Type (0, 1), BuildingBlock: OJICUG_clean_linker_0, # of connection points: 2
#     Edge 52, Type (0, 1), BuildingBlock: OJICUG_clean_linker_0, # of connection points: 2
#     Edge 53, Type (0, 1), BuildingBlock: OJICUG_clean_linker_0, # of connection points: 2
#     Edge 54, Type (0, 1), BuildingBlock: OJICUG_clean_linker_0, # of connection points: 2
#     Edge 55, Type (0, 1), BuildingBlock: OJICUG_clean_linker_0, # of connection points: 2
#     Edge 56, Type (0, 1), BuildingBlock: OJICUG_clean_linker_0, # of connection points: 2
#     Edge 57, Type (0, 1), BuildingBlock: OJICUG_clean_linker_0, # of connection points: 2
#     Edge 58, Type (0, 1), BuildingBlock: OJICUG_clean_linker_0, # of connection points: 2
#     Edge 59, Type (0, 1), BuildingBlock: OJICUG_clean_linker_0, # of connection points: 2
#     Edge 60, Type (0, 1), BuildingBlock: OJICUG_clean_linker_0, # of connection points: 2
#     Edge 61, Type (0, 1), BuildingBlock: OJICUG_clean_linker_0, # of connection points: 2
# Relax obj value: 0.270
# Max RMSD: 0.372
# Mean RMSD: 0.265
data_MOF--net-ocu--node1-VOLQOD_clean_sbu_1--node2-AJUNOK_clean_sbu_0--edge1-OJICUG_clean_linker_0
_symmetry_space_group_name_H-M    P1
_symmetry_Int_Tables_number       1
_symmetry_cell_setting            triclinic
loop_
_symmetry_equiv_pos_as_xyz
'x, y, z'
_cell_length_a     33.81739
_cell_length_b     33.354295
_cell_length_c     27.493718
_cell_angle_alpha  98.437487
_cell_angle_beta   99.147017
_cell_angle_gamma 100.40209
loop_
_atom_site_label
_atom_site_type_symbol
_atom_site_fract_x
_atom_site_fract_y
_atom_site_fract_z
_atom_type_partial_charge
O0 O 0.31502 0.29737 0.28545 0.0
Zn1 Zn 0.26919 0.26005 0.30733 0.0
O2 O 0.2337 0.22325 0.24709 0.0
Zn3 Zn 0.18014 0.23423 0.24281 0.0
Zn4 Zn 0.24979 0.23316 0.18529 0.0
Zn5 Zn 0.23003 0.1652 0.25084 0.0
O6 O 0.14725 0.19409 0.27437 0.0
O7 O 0.17619 0.13935 0.26682 0.0
O8 O 0.23689 0.29716 0.34471 0.0
O9 O 0.18209 0.28826 0.28458 0.0
O10 O 0.15268 0.23723 0.17372 0.0
O11 O 0.20779 0.25553 0.14133 0.0
O12 O 0.26369 0.18274 0.1479 0.0
O13 O 0.29616 0.22573 0.35333 0.0
O14 O 0.24617 0.13316 0.19096 0.0
O15 O 0.26995 0.16182 0.3107 0.0
C16 C 0.32367 0.29779 0.24202 0.0
C17 C 0.14866 0.1574 0.28063 0.0
C18 C 0.16942 0.25179 0.13993 0.0
C19 C 0.20374 0.30729 0.32642 0.0
C20 C 0.26079 0.14537 0.15434 0.0
C21 C 0.29302 0.18656 0.34827 0.0
O22 O 0.30107 0.27487 0.20287 0.0
O23 O 0.70568 0.13967 0.17049 0.0
Zn24 Zn 0.74959 0.18993 0.21185 0.0
O25 O 0.72212 0.23254 0.24205 0.0
Zn26 Zn 0.74131 0.28497 0.22398 0.0
Zn27 Zn 0.6638 0.21781 0.21815 0.0
Zn28 Zn 0.73133 0.24059 0.31504 0.0
O29 O 0.77225 0.32664 0.28271 0.0
O30 O 0.76235 0.29847 0.3491 0.0
O31 O 0.78904 0.21504 0.16822 0.0
O32 O 0.7802 0.27998 0.17915 0.0
O33 O 0.69756 0.30665 0.18682 0.0
O34 O 0.6411 0.2605 0.18504 0.0
O35 O 0.63411 0.19998 0.27149 0.0
O36 O 0.78469 0.17149 0.26839 0.0
O37 O 0.68095 0.21787 0.34134 0.0
O38 O 0.76959 0.20605 0.33618 0.0
C39 C 0.66777 0.1381 0.15382 0.0
C40 C 0.7785 0.32839 0.32981 0.0
C41 C 0.65919 0.29359 0.17339 0.0
C42 C 0.79683 0.25211 0.15988 0.0
C43 C 0.64477 0.20066 0.31818 0.0
C44 C 0.78869 0.18088 0.31591 0.0
O45 O 0.65052 0.16757 0.16691 0.0
O46 O 0.67691 0.68068 0.25543 0.0
Zn47 Zn 0.72364 0.72066 0.3007 0.0
O48 O 0.75602 0.75056 0.2585 0.0
Zn49 Zn 0.81288 0.74917 0.28014 0.0
Zn50 Zn 0.73914 0.7276 0.18653 0.0
Zn51 Zn 0.74965 0.80708 0.26718 0.0
O52 O 0.84695 0.80607 0.30747 0.0
O53 O 0.80239 0.84616 0.29166 0.0
O54 O 0.75718 0.68796 0.34231 0.0
O55 O 0.81988 0.71784 0.33606 0.0
O56 O 0.83305 0.71549 0.22596 0.0
O57 O 0.78202 0.69902 0.15981 0.0
O58 O 0.71712 0.7678 0.14467 0.0
O59 O 0.69861 0.75925 0.34604 0.0
O60 O 0.72059 0.82092 0.20513 0.0
O61 O 0.71737 0.81856 0.32016 0.0
C62 C 0.66767 0.66887 0.20814 0.0
C63 C 0.83801 0.84165 0.30921 0.0
C64 C 0.8176 0.69651 0.18138 0.0
C65 C 0.79597 0.69312 0.35469 0.0
C66 C 0.70981 0.80337 0.15944 0.0
C67 C 0.69933 0.79786 0.34848 0.0
O68 O 0.68977 0.68349 0.17895 0.0
O69 O 0.29687 0.75884 0.33506 0.0
Zn70 Zn 0.24661 0.71637 0.29424 0.0
O71 O 0.20932 0.74389 0.25478 0.0
Zn72 Zn 0.15522 0.73108 0.26963 0.0
Zn73 Zn 0.2283 0.80282 0.2717 0.0
Zn74 Zn 0.20563 0.72752 0.18271 0.0
O75 O 0.11719 0.69264 0.21186 0.0
O76 O 0.14924 0.69506 0.14757 0.0
O77 O 0.21653 0.68318 0.33911 0.0
O78 O 0.15534 0.69956 0.32523 0.0
O79 O 0.13394 0.78133 0.29167 0.0
O80 O 0.18663 0.83239 0.29405 0.0
O81 O 0.25072 0.82495 0.21604 0.0
O82 O 0.26608 0.67538 0.2475 0.0
O83 O 0.23222 0.77373 0.15049 0.0
O84 O 0.23926 0.68585 0.17241 0.0
C85 C 0.30169 0.79815 0.3463 0.0
C86 C 0.11844 0.6809 0.16606 0.0
C87 C 0.15064 0.81966 0.30118 0.0
C88 C 0.18039 0.68127 0.34792 0.0
C89 C 0.2511 0.81051 0.17071 0.0
C90 C 0.26075 0.66731 0.19991 0.0
O91 O 0.27579 0.81739 0.32731 0.0
O92 O 0.19928 0.64466 0.65972 0.0
Zn93 Zn 0.24341 0.69326 0.70189 0.0
O94 O 0.21918 0.73217 0.74436 0.0
Zn95 Zn 0.23241 0.78771 0.73065 0.0
Zn96 Zn 0.16057 0.71531 0.73038 0.0
Zn97 Zn 0.23766 0.73439 0.81562 0.0
O98 O 0.26655 0.82773 0.79019 0.0
O99 O 0.27015 0.79103 0.85117 0.0
O100 O 0.27732 0.72442 0.65811 0.0
O101 O 0.26764 0.78831 0.68023 0.0
O102 O 0.18376 0.8074 0.69936 0.0
O103 O 0.13326 0.75388 0.69606 0.0
O104 O 0.13752 0.70146 0.78952 0.0
O105 O 0.2824 0.66885 0.74632 0.0
O106 O 0.19218 0.70938 0.84919 0.0
O107 O 0.27818 0.69907 0.82249 0.0
C108 C 0.16062 0.63839 0.6573 0.0
C109 C 0.28031 0.8246 0.83502 0.0
C110 C 0.1464 0.78905 0.68556 0.0
C111 C 0.28319 0.76271 0.6546 0.0
C112 C 0.15367 0.69765 0.83317 0.0
C113 C 0.29322 0.67508 0.79378 0.0
O114 O 0.14403 0.66329 0.6823 0.0
O115 O 0.17702 0.16652 0.74216 0.0
Zn116 Zn 0.22013 0.21192 0.78773 0.0
O117 O 0.25034 0.24494 0.74543 0.0
Zn118 Zn 0.30811 0.24455 0.76196 0.0
Zn119 Zn 0.23139 0.22428 0.67355 0.0
Zn120 Zn 0.2436 0.30172 0.75774 0.0
O121 O 0.34021 0.30048 0.79577 0.0
O122 O 0.29574 0.3416 0.78687 0.0
O123 O 0.25806 0.18315 0.83065 0.0
O124 O 0.31819 0.20875 0.81258 0.0
O125 O 0.32937 0.21926 0.70282 0.0
O126 O 0.27472 0.20136 0.64155 0.0
O127 O 0.20558 0.26474 0.63609 0.0
O128 O 0.19096 0.24798 0.83189 0.0
O129 O 0.21491 0.31861 0.6974 0.0
O130 O 0.20957 0.30904 0.80966 0.0
C131 C 0.16765 0.15623 0.69461 0.0
C132 C 0.33124 0.33601 0.803 0.0
C133 C 0.31214 0.20141 0.65832 0.0
C134 C 0.29677 0.18617 0.83624 0.0
C135 C 0.20094 0.30115 0.65207 0.0
C136 C 0.19079 0.28661 0.83582 0.0
O137 O 0.18633 0.17601 0.66601 0.0
O138 O 0.80038 0.25931 0.84288 0.0
Zn139 Zn 0.75408 0.2152 0.79847 0.0
O140 O 0.71494 0.23998 0.75747 0.0
Zn141 Zn 0.66076 0.22318 0.77049 0.0
Zn142 Zn 0.73039 0.29964 0.77462 0.0
Zn143 Zn 0.71254 0.22313 0.68571 0.0
O144 O 0.62213 0.18835 0.71067 0.0
O145 O 0.65781 0.18713 0.64968 0.0
O146 O 0.72548 0.17706 0.8397 0.0
O147 O 0.66186 0.18653 0.82028 0.0
O148 O 0.63899 0.27032 0.80048 0.0
O149 O 0.68792 0.32503 0.8027 0.0
O150 O 0.74795 0.32387 0.71726 0.0
O151 O 0.78081 0.1811 0.75312 0.0
O152 O 0.73371 0.27118 0.65342 0.0
O153 O 0.75215 0.18714 0.6768 0.0
C154 C 0.80515 0.29863 0.85069 0.0
C155 C 0.62515 0.17525 0.66587 0.0
C156 C 0.65361 0.30904 0.81233 0.0
C157 C 0.68804 0.17023 0.84417 0.0
C158 C 0.74885 0.30919 0.67212 0.0
C159 C 0.77723 0.17311 0.70575 0.0
O160 O 0.78 0.31678 0.82796 0.0
O161 O 0.7965 0.79844 0.76094 0.0
Zn162 Zn 0.76356 0.75798 0.79666 0.0
O163 O 0.72161 0.71625 0.74537 0.0
Zn164 Zn 0.66688 0.72133 0.75276 0.0
Zn165 Zn 0.72643 0.72241 0.67775 0.0
Zn166 Zn 0.72649 0.66009 0.75097 0.0
O167 O 0.63891 0.67455 0.78024 0.0
O168 O 0.68255 0.63228 0.78393 0.0
O169 O 0.7354 0.79198 0.84448 0.0
O170 O 0.67024 0.76781 0.80736 0.0
O171 O 0.63301 0.73285 0.69106 0.0
O172 O 0.67597 0.73432 0.63794 0.0
O173 O 0.7459 0.6751 0.64156 0.0
O174 O 0.80352 0.72873 0.83636 0.0
O175 O 0.73405 0.62601 0.68693 0.0
O176 O 0.77801 0.66353 0.79781 0.0
C177 C 0.79343 0.79933 0.7142 0.0
C178 C 0.64994 0.64282 0.79384 0.0
C179 C 0.6415 0.73835 0.64869 0.0
C180 C 0.69729 0.79183 0.84171 0.0
C181 C 0.74589 0.63828 0.6488 0.0
C182 C 0.80492 0.6903 0.82953 0.0
O183 O 0.76824 0.77195 0.68137 0.0
Cd184 Cd 0.95105 0.95823 0.57589 0.0
Cd185 Cd 0.01173 0.05097 0.48069 0.0
C186 C 0.0197 0.91925 0.53352 0.0
N187 N -0.01813 0.90761 0.54375 0.0
C188 C -0.00531 0.84221 0.55778 0.0
C189 C 0.03599 0.85598 0.55514 0.0
C190 C 0.0474 0.89323 0.53794 0.0
C191 C 0.96787 0.86892 0.55192 0.0
H192 H 0.03 0.95052 0.52857 0.0
H193 H 0.93769 0.86079 0.56054 0.0
C194 C 0.93113 -0.01718 0.44973 0.0
C195 C -0.01508 0.1352 0.47424 0.0
C196 C 0.95488 0.1546 0.45365 0.0
C197 C 0.91373 0.13826 0.45404 0.0
C198 C 0.90421 0.1068 0.4816 0.0
C199 C 0.9353 0.0882 0.50146 0.0
N200 N -0.02597 0.1009 0.49423 0.0
H201 H 0.01583 0.14426 0.4683 0.0
H202 H 0.92756 0.06017 0.51605 0.0
C203 C 0.01738 0.96673 0.41298 0.0
N204 N 0.03838 -0.00571 0.45446 0.0
C205 C 0.0961 0.96236 0.45501 0.0
C206 C 0.07475 0.9336 0.41228 0.0
C207 C 0.03476 0.93558 0.39179 0.0
C208 C 0.07716 -0.00713 0.4756 0.0
H209 H -0.01187 0.97004 0.39404 0.0
H210 H 0.09367 0.01607 0.5075 0.0
C211 C 0.03139 0.0236 0.60232 0.0
C212 C 0.89819 0.91076 0.6255 0.0
N213 N 0.92147 0.01378 0.59096 0.0
C214 C 0.94069 0.04684 0.6272 0.0
C215 C 0.9198 0.07728 0.64189 0.0
C216 C 0.87861 0.07294 0.61982 0.0
C217 C 0.86002 0.03948 0.58092 0.0
C218 C 0.8822 0.0098 0.56718 0.0
C219 C 0.06049 0.0891 0.42075 0.0
O220 O 0.94355 -0.01785 0.49557 0.0
O221 O 0.9472 0.01298 0.43132 0.0
O222 O 0.01313 0.02245 0.55799 0.0
O223 O 0.0157 -0.00243 0.62684 0.0
O224 O 0.88823 0.91199 0.57916 0.0
O225 O 0.93328 0.93116 0.64841 0.0
O226 O 0.0713 0.09965 0.46834 0.0
O227 O 0.02741 0.06279 0.40311 0.0
H228 H -0.02859 0.0487 0.64669 0.0
H229 H 0.86772 -0.01733 0.53908 0.0
H230 H -0.01563 0.81376 0.57085 0.0
H231 H 0.07869 0.90445 0.53421 0.0
H232 H 0.96322 0.17935 0.43335 0.0
H233 H 0.87273 0.09348 0.48263 0.0
H234 H 0.12724 0.96178 0.4715 0.0
H235 H 0.01793 0.91482 0.35783 0.0
H236 H 0.93505 0.1029 0.67186 0.0
H237 H 0.82809 0.03497 0.56351 0.0
Cd238 Cd 0.45183 0.93882 0.0586 0.0
Cd239 Cd 0.51431 0.00211 0.94494 0.0
C240 C 0.52588 0.90473 0.11273 0.0
N241 N 0.50479 0.9018 0.06554 0.0
C242 C 0.55157 0.86457 0.03155 0.0
C243 C 0.57513 0.86934 0.07975 0.0
C244 C 0.56138 0.88904 0.12066 0.0
C245 C 0.51643 0.88161 0.02516 0.0
H246 H 0.51578 0.92055 0.14423 0.0
H247 H 0.499 0.87955 0.98801 0.0
C248 C 0.43482 0.93356 0.9238 0.0
C249 C 0.43973 0.03543 0.88599 0.0
C250 C 0.40812 0.05671 0.87681 0.0
C251 C 0.39988 0.08394 0.91609 0.0
C252 C 0.42344 0.08849 0.96428 0.0
C253 C 0.45429 0.0658 0.97204 0.0
N254 N 0.46192 0.04 0.93304 0.0
H255 H 0.44679 0.01545 0.85531 0.0
H256 H 0.47252 0.06918 0.00902 0.0
C257 C 0.53946 0.91386 0.91146 0.0
N258 N 0.55224 0.95028 0.94435 0.0
C259 C 0.6182 0.93462 0.96843 0.0
C260 C 0.60616 0.89731 0.93381 0.0
C261 C 0.56593 0.88663 0.90593 0.0
C262 C 0.59046 0.96073 0.97328 0.0
H263 H 0.50939 0.90661 0.88798 0.0
H264 H 0.6 -0.0097 -0.00151 0.0
C265 C 0.52959 0.00674 0.07678 0.0
C266 C 0.38785 0.89107 0.09461 0.0
N267 N 0.41533 -0.00818 0.05496 0.0
C268 C 0.42942 0.03101 0.08138 0.0
C269 C 0.40242 0.05781 0.08703 0.0
C270 C 0.36053 0.04363 0.06646 0.0
C271 C 0.3473 0.00381 0.03731 0.0
C272 C 0.37545 -0.02161 0.03177 0.0
C273 C 0.57844 0.05623 0.91753 0.0
O274 O 0.45067 0.94148 0.97005 0.0
O275 O 0.45487 0.95083 0.89439 0.0
O276 O 0.5116 -0.00399 0.0314 0.0
O277 O 0.51222 -0.00943 0.10902 0.0
O278 O 0.39437 0.88008 0.05084 0.0
O279 O 0.4133 0.92171 0.12251 0.0
O280 O 0.56906 0.06317 0.96042 0.0
O281 O 0.55643 0.0252 0.88637 0.0
H282 H 0.46097 0.04082 0.10047 0.0
H283 H 0.36499 0.94685 0.01167 0.0
H284 H 0.56091 0.84903 -0.00077 0.0
H285 H 0.57813 0.89249 0.15857 0.0
H286 H 0.39126 0.05307 0.83892 0.0
H287 H 0.41819 0.10949 0.99544 0.0
H288 H 0.64892 0.94388 0.99054 0.0
H289 H 0.55567 0.85841 0.87824 0.0
H290 H 0.41365 0.08821 0.11023 0.0
H291 H 0.31524 -0.00814 0.02091 0.0
Cd292 Cd 0.95739 0.43553 0.06331 0.0
Cd293 Cd 0.0126 0.50536 0.94918 0.0
C294 C 0.04955 0.41694 0.08857 0.0
N295 N 0.01306 0.40424 0.05614 0.0
C296 C 0.03308 0.3428 0.02103 0.0
C297 C 0.07003 0.35394 0.05595 0.0
C298 C 0.07884 0.39228 0.08874 0.0
C299 C 0.00489 0.36865 0.02173 0.0
H300 H 0.05511 0.44491 0.11622 0.0
H301 H -0.0246 0.35916 -0.00322 0.0
C302 C 0.94373 0.42808 0.93187 0.0
C303 C 0.92304 0.52925 0.92326 0.0
C304 C 0.8971 0.55604 0.91207 0.0
C305 C 0.91086 0.59893 0.92865 0.0
C306 C 0.94898 0.61351 0.96078 0.0
C307 C -0.02598 0.58545 0.97134 0.0
N308 N 0.96136 0.54445 0.95081 0.0
H309 H 0.91336 0.49688 0.90675 0.0
H310 H 0.00487 0.59687 0.99251 0.0
C311 C 0.04136 0.42685 0.89167 0.0
N312 N 0.04926 0.45188 0.93736 0.0
C313 C 0.10017 0.41534 0.96783 0.0
C314 C 0.09227 0.38885 0.92108 0.0
C315 C 0.06213 0.39472 0.88294 0.0
C316 C 0.07788 0.44659 0.97535 0.0
H317 H 0.0193 0.43215 0.86154 0.0
H318 H 0.08381 0.46703 0.01128 0.0
C319 C 0.02112 0.51839 0.0839 0.0
C320 C 0.90771 0.36509 0.08786 0.0
N321 N 0.92165 0.48857 0.08234 0.0
C322 C 0.92511 0.50402 0.13169 0.0
C323 C 0.90895 0.53842 0.14665 0.0
C324 C 0.88728 0.55663 0.11071 0.0
C325 C 0.88351 0.53935 0.05976 0.0
C326 C 0.90126 0.50538 0.04638 0.0
C327 C 0.06226 0.56943 0.91449 0.0
O328 O 0.95798 0.44317 0.97751 0.0
O329 O 0.95863 0.44662 0.89965 0.0
O330 O 0.01248 0.50257 0.0377 0.0
O331 O 0.00682 0.49681 0.11411 0.0
O332 O 0.89891 0.37687 0.04626 0.0
O333 O 0.93858 0.38723 0.11898 0.0
O334 O 0.07217 0.5621 0.95833 0.0
O335 O 0.03111 0.54521 0.88619 0.0
H336 H 0.9418 0.4904 0.15959 0.0
H337 H 0.89903 0.49263 0.00732 0.0
H338 H 0.02523 0.31346 0.99525 0.0
H339 H 0.10674 0.40163 0.11677 0.0
H340 H 0.86766 0.54365 0.88749 0.0
H341 H 0.96067 0.6464 0.97403 0.0
H342 H 0.12349 0.41208 -0.00196 0.0
H343 H 0.05587 0.37573 0.84596 0.0
H344 H 0.91431 0.55089 0.18626 0.0
H345 H 0.86687 0.55159 0.03038 0.0
Cd346 Cd 0.45348 0.46987 0.10326 0.0
Cd347 Cd 0.51374 0.53028 0.99036 0.0
C348 C 0.54589 0.45862 0.11325 0.0
N349 N 0.50874 0.44511 0.08243 0.0
C350 C 0.52886 0.38463 0.04551 0.0
C351 C 0.56619 0.3964 0.07958 0.0
C352 C 0.57558 0.43498 0.11169 0.0
C353 C 0.5002 0.40965 0.04781 0.0
H354 H 0.55125 0.48528 0.14264 0.0
H355 H 0.46985 0.39876 0.02535 0.0
C356 C 0.42237 0.45845 0.9685 0.0
C357 C 0.46209 0.55418 0.89713 0.0
C358 C 0.43401 0.57207 0.8697 0.0
C359 C 0.40945 0.59431 0.89475 0.0
C360 C 0.41346 0.59757 0.94695 0.0
C361 C 0.44231 0.57968 0.97286 0.0
N362 N 0.46557 0.55841 0.94762 0.0
H363 H 0.48144 0.53721 0.87838 0.0
H364 H 0.44655 0.58302 0.01305 0.0
C365 C 0.51646 0.43989 0.93676 0.0
N366 N 0.53747 0.47004 0.97577 0.0
C367 C 0.59582 0.43896 0.98059 0.0
C368 C 0.57526 0.40872 0.93885 0.0
C369 C 0.53458 0.40833 0.91834 0.0
C370 C 0.57604 0.46963 -0.00126 0.0
H371 H 0.48709 0.44192 0.91666 0.0
H372 H 0.59236 0.49477 0.02865 0.0
C373 C 0.51941 0.55001 0.123 0.0
C374 C 0.42628 0.41378 0.16492 0.0
N375 N 0.40232 0.5053 0.09381 0.0
C376 C 0.41049 0.54605 0.09062 0.0
C377 C 0.38121 0.56965 0.09716 0.0
C378 C 0.34401 0.55101 0.10847 0.0
C379 C 0.3354 0.50831 0.10841 0.0
C380 C 0.36534 0.48576 0.10071 0.0
C381 C 0.57229 0.57081 0.94131 0.0
O382 O 0.42385 0.45195 0.01321 0.0
O383 O 0.44901 0.48519 0.9566 0.0
O384 O 0.5095 0.53569 0.07662 0.0
O385 O 0.4996 0.53183 0.15159 0.0
O386 O 0.42495 0.40258 0.11853 0.0
O387 O 0.4399 0.45181 0.18317 0.0
O388 O 0.56124 0.59152 0.97774 0.0
O389 O 0.5583 0.53211 0.93129 0.0
H390 H 0.44064 0.56083 0.08688 0.0
H391 H 0.36032 0.45336 0.10389 0.0
H392 H 0.52064 0.35488 0.02054 0.0
H393 H 0.60363 0.44454 0.13948 0.0
H394 H 0.43228 0.56934 0.82965 0.0
H395 H 0.39471 0.61395 0.96764 0.0
H396 H 0.62738 0.4401 -0.00287 0.0
H397 H 0.5182 0.38618 0.88527 0.0
H398 H 0.38896 0.60273 0.09786 0.0
H399 H 0.30694 0.49324 0.11728 0.0
Cd400 Cd 0.94515 0.44102 0.55702 0.0
Cd401 Cd 0.01089 0.50601 0.44722 0.0
C402 C 0.01618 0.40246 0.60867 0.0
N403 N -0.0026 0.4034 0.5615 0.0
C404 C 0.04629 0.36986 0.52676 0.0
C405 C 0.06729 0.37038 0.57529 0.0
C406 C 0.0514 0.38631 0.61645 0.0
C407 C 0.01128 0.38709 0.52067 0.0
H408 H 0.00452 0.41566 0.6404 0.0
H409 H -0.00409 0.38849 0.48351 0.0
C410 C 0.93035 0.43875 0.42296 0.0
C411 C 0.93645 0.54136 0.39121 0.0
C412 C 0.90448 0.56247 0.38462 0.0
C413 C 0.89546 0.58644 0.4262 0.0
C414 C 0.91861 0.58803 0.47384 0.0
C415 C 0.9498 0.56563 0.47886 0.0
N416 N 0.95816 0.54301 0.43782 0.0
H417 H 0.94412 0.52381 0.359 0.0
H418 H 0.96768 0.56665 0.51542 0.0
C419 C 0.03719 0.42441 0.39717 0.0
N420 N 0.04766 0.45352 0.43963 0.0
C421 C 0.11183 0.43346 0.46111 0.0
C422 C 0.10297 0.40531 0.41564 0.0
C423 C 0.06438 0.39964 0.38464 0.0
C424 C 0.08356 0.45772 0.47228 0.0
H425 H 0.00904 0.42234 0.37121 0.0
H426 H 0.09142 0.48182 0.50525 0.0
C427 C 0.02332 0.50764 0.57789 0.0
C428 C 0.88133 0.39334 0.59298 0.0
N429 N 0.90814 0.4934 0.55293 0.0
C430 C 0.92034 0.53121 0.58324 0.0
C431 C 0.8924 0.55705 0.58847 0.0
C432 C 0.85152 0.54318 0.56337 0.0
C433 C 0.84033 0.50488 0.5307 0.0
C434 C 0.8694 0.48044 0.5258 0.0
C435 C 0.07401 0.56405 0.42289 0.0
O436 O 0.94554 0.4458 0.46934 0.0
O437 O 0.95104 0.45659 0.39451 0.0
O438 O 0.00622 0.49707 0.53225 0.0
O439 O 0.00531 0.49131 0.60954 0.0
O440 O 0.88778 0.38238 0.54916 0.0
O441 O 0.90679 0.42391 0.62093 0.0
O442 O 0.06426 0.56901 0.46575 0.0
O443 O 0.0533 0.53303 0.39074 0.0
H444 H 0.95091 0.54036 0.60553 0.0
H445 H 0.86031 0.44977 0.50307 0.0
H446 H 0.05762 0.35768 0.49417 0.0
H447 H 0.06637 0.38662 0.65443 0.0
H448 H 0.88797 0.56131 0.34712 0.0
H449 H 0.9128 0.60661 0.50667 0.0
H450 H 0.14129 0.43871 0.48587 0.0
H451 H 0.05626 0.37785 0.34951 0.0
H452 H 0.9019 0.58623 0.61453 0.0
H453 H 0.809 0.49316 0.51106 0.0
Cd454 Cd 0.44826 0.93991 0.5514 0.0
Cd455 Cd 0.50831 0.00642 0.43751 0.0
C456 C 0.53682 0.91112 0.56711 0.0
N457 N 0.4965 0.89848 0.54568 0.0
C458 C 0.50316 0.82785 0.53021 0.0
C459 C 0.54415 0.83958 0.55497 0.0
C460 C 0.56153 0.88194 0.57166 0.0
C461 C 0.47985 0.85805 0.52563 0.0
H462 H 0.54931 0.94335 0.5832 0.0
H463 H 0.44765 0.84894 0.50889 0.0
C464 C 0.44023 0.92883 0.42094 0.0
C465 C 0.42004 0.02904 0.40776 0.0
C466 C 0.39122 0.05397 0.40429 0.0
C467 C 0.39888 0.0926 0.43627 0.0
C468 C 0.43498 0.1044 0.47271 0.0
C469 C 0.46285 0.07809 0.47532 0.0
N470 N 0.45514 0.04152 0.44262 0.0
H471 H 0.41515 0.00078 0.38085 0.0
H472 H 0.49155 0.08772 0.50182 0.0
C473 C 0.54195 0.9277 0.39208 0.0
N474 N 0.54886 0.95634 0.43479 0.0
C475 C 0.60323 0.92672 0.4716 0.0
C476 C 0.59651 0.89679 0.42787 0.0
C477 C 0.5651 0.89721 0.38809 0.0
C478 C 0.57858 0.95623 0.47445 0.0
H479 H 0.51899 0.92897 0.36049 0.0
H480 H 0.5836 -0.02054 0.50793 0.0
C481 C 0.51793 0.01934 0.57352 0.0
C482 C 0.39325 0.87615 0.57958 0.0
N483 N 0.41517 -0.00439 0.56546 0.0
C484 C 0.42056 0.01598 0.61339 0.0
C485 C 0.40539 0.05186 0.62384 0.0
C486 C 0.38357 0.06666 0.58478 0.0
C487 C 0.37647 0.04367 0.53597 0.0
C488 C 0.39313 0.00835 0.52698 0.0
C489 C 0.55426 0.07157 0.39998 0.0
O490 O 0.45328 0.94607 0.46618 0.0
O491 O 0.45582 0.94579 0.38802 0.0
O492 O 0.50886 0.00555 0.52675 0.0
O493 O 0.50171 -0.00261 0.60221 0.0
O494 O 0.38507 0.88763 0.53771 0.0
O495 O 0.42588 0.89601 0.60944 0.0
O496 O 0.56284 0.06767 0.44551 0.0
O497 O 0.52606 0.0437 0.37145 0.0
H498 H 0.43752 0.00482 0.64352 0.0
H499 H 0.38898 -0.00853 0.48922 0.0
H500 H 0.4888 0.79549 0.51679 0.0
H501 H 0.593 0.89209 0.59134 0.0
H502 H 0.36427 0.04407 0.37485 0.0
H503 H 0.44198 0.13395 0.49799 0.0
H504 H 0.62754 0.92757 0.5028 0.0
H505 H 0.55977 0.87533 0.35327 0.0
H506 H 0.41047 0.06766 0.66233 0.0
H507 H 0.35908 0.05339 0.50494 0.0
C508 C 0.11841 0.16569 0.35683 0.0
C509 C 0.12403 0.13955 0.31451 0.0
H510 H 0.09506 0.16974 0.42512 0.0
C511 C 0.10988 0.09667 0.30844 0.0
H512 H 0.12992 0.19888 0.36284 0.0
C513 C 0.08944 0.08028 0.34365 0.0
C514 C 0.08438 0.10644 0.38617 0.0
H515 H 0.11445 0.07602 0.2765 0.0
H516 H 0.07789 0.04711 0.33797 0.0
C517 C 0.09921 0.14916 0.39284 0.0
C518 C 0.85336 0.15514 0.33374 0.0
C519 C 0.81863 0.16573 0.3496 0.0
H520 H 0.91113 0.13884 0.35508 0.0
C521 C 0.81483 0.1663 0.39997 0.0
H522 H 0.85716 0.15473 0.2953 0.0
C523 C 0.8457 0.15746 0.43419 0.0
C524 C 0.88112 0.1485 0.41873 0.0
H525 H 0.78822 0.17428 0.41318 0.0
H526 H 0.84227 0.15836 0.47283 0.0
C527 C 0.88446 0.14681 0.36812 0.0
C528 C 0.863 0.91758 0.33382 0.0
C529 C 0.86554 0.87758 0.34223 0.0
H530 H 0.8813 -0.01737 0.36241 0.0
C531 C 0.88822 0.87241 0.38745 0.0
H532 H 0.84506 0.92219 0.29955 0.0
C533 C 0.90745 0.9068 0.42416 0.0
C534 C 0.90495 0.94675 0.41563 0.0
H535 H 0.88973 0.84176 0.3953 0.0
H536 H 0.92515 0.90219 0.45853 0.0
C537 C 0.88294 0.95195 0.37006 0.0
C538 C 0.09153 0.83567 0.33868 0.0
C539 C 0.13018 0.84931 0.32719 0.0
H540 H 0.04418 0.85163 0.37607 0.0
C541 C 0.15087 0.89066 0.34512 0.0
H542 H 0.07499 0.8039 0.32587 0.0
C543 C 0.13339 0.91774 0.37425 0.0
C544 C 0.09485 0.904 0.3857 0.0
H545 H 0.18084 0.90207 0.33725 0.0
H546 H 0.14962 0.94963 0.38694 0.0
C547 C 0.07402 0.86281 0.36768 0.0
C548 C 0.08541 0.7795 0.61793 0.0
C549 C 0.11902 0.8061 0.651 0.0
H550 H 0.03409 0.77397 0.5591 0.0
C551 C 0.12775 0.84823 0.64808 0.0
H552 H 0.0787 0.74655 0.61837 0.0
C553 C 0.10208 0.86394 0.61439 0.0
C554 C 0.06753 0.83766 0.58236 0.0
H555 H 0.15378 0.86925 0.67274 0.0
H556 H 0.1083 0.89709 0.61547 0.0
C557 C 0.06013 0.79507 0.5836 0.0
C558 C 0.11626 0.09373 0.69991 0.0
C559 C 0.1339 0.121 0.67123 0.0
H560 H 0.07003 0.04079 0.70018 0.0
C561 C 0.11878 0.11466 0.61941 0.0
H562 H 0.12747 0.09774 0.73984 0.0
C563 C 0.08602 0.08234 0.59691 0.0
C564 C 0.06797 0.0555 0.62559 0.0
H565 H 0.13168 0.13515 0.59619 0.0
H566 H 0.07445 0.07878 0.5572 0.0
C567 C 0.0836 0.06106 0.67717 0.0
C568 C 0.80068 0.13966 0.63136 0.0
C569 C 0.80348 0.14792 0.68362 0.0
H570 H 0.82303 0.10982 0.57007 0.0
C571 C 0.83199 0.13244 0.71452 0.0
H572 H 0.77912 0.1514 0.60656 0.0
C573 C 0.85697 0.10879 0.69357 0.0
C574 C 0.85393 0.10028 0.64141 0.0
H575 H 0.83488 0.13828 0.75487 0.0
H576 H 0.87801 0.09633 0.7182 0.0
C577 C 0.82572 0.11594 0.61041 0.0
C578 C 0.80571 0.83956 0.64725 0.0
C579 C 0.81911 0.83206 0.69556 0.0
H580 H 0.82008 0.87016 0.58752 0.0
C581 C 0.85777 0.85333 0.72263 0.0
H582 H 0.77574 0.82417 0.62566 0.0
C583 C 0.88342 0.87996 0.70042 0.0
C584 C 0.87055 0.88563 0.65105 0.0
H585 H 0.86878 0.8481 0.75989 0.0
H586 H 0.91368 0.8951 0.7213 0.0
C587 C 0.83112 0.86595 0.62525 0.0
C588 C 0.31096 0.13471 0.09816 0.0
C589 C 0.28081 0.11769 0.12364 0.0
H590 H 0.36012 0.12456 0.06029 0.0
C591 C 0.27418 0.07504 0.12477 0.0
H592 H 0.31705 0.16748 0.09669 0.0
C593 C 0.29855 0.05047 0.10326 0.0
C594 C 0.33047 0.06817 0.08094 0.0
H595 H 0.25126 0.06097 0.14404 0.0
H596 H 0.29398 0.01808 0.10669 0.0
C597 C 0.33583 0.11028 0.07751 0.0
C598 C 0.86878 0.28197 0.15926 0.0
C599 C 0.82872 0.26654 0.13219 0.0
H600 H 0.92516 0.32579 0.16682 0.0
C601 C 0.81686 0.27961 0.0868 0.0
H602 H 0.87818 0.27337 0.19518 0.0
C603 C 0.84355 0.30987 0.07065 0.0
C604 C 0.88227 0.32825 0.10026 0.0
H605 H 0.7857 0.26913 0.06612 0.0
H606 H 0.83271 0.3209 0.03686 0.0
C607 C 0.89531 0.31266 0.14354 0.0
C608 C 0.64933 0.79681 0.09025 0.0
C609 C 0.68189 0.82199 0.12652 0.0
H610 H 0.58941 0.79224 0.04661 0.0
C611 C 0.68209 0.86443 0.1392 0.0
H612 H 0.64818 0.76395 0.07988 0.0
C613 C 0.64855 0.88038 0.12056 0.0
C614 C 0.61399 0.85433 0.08873 0.0
H615 H 0.70688 0.88476 0.16661 0.0
H616 H 0.64855 0.91266 0.13358 0.0
C617 C 0.61556 0.81293 0.07142 0.0
C618 C 0.09746 0.61905 0.09668 0.0
C619 C 0.08846 0.64328 0.13828 0.0
H620 H 0.08441 0.55947 0.04894 0.0
C621 C 0.05509 0.62685 0.15926 0.0
H622 H 0.12333 0.63031 0.08008 0.0
C623 C 0.03296 0.58636 0.14118 0.0
C624 C 0.04346 0.5616 0.10145 0.0
H625 H 0.04729 0.64453 0.19137 0.0
H626 H 0.00807 0.57418 0.15885 0.0
C627 C 0.07525 0.57849 0.0787 0.0
C628 C 0.32965 0.89201 0.84395 0.0
C629 C 0.31545 0.85697 0.86426 0.0
H630 H 0.37879 0.94323 0.84656 0.0
C631 C 0.33963 0.84954 0.90733 0.0
H632 H 0.31195 0.89883 0.81088 0.0
C633 C 0.3782 0.87499 0.92746 0.0
C634 C 0.39318 0.90831 0.9051 0.0
H635 H 0.32996 0.82266 0.92372 0.0
H636 H 0.39727 0.86726 0.95869 0.0
C637 C 0.36819 0.91721 0.86396 0.0
C638 C 0.12456 0.29226 0.86315 0.0
C639 C 0.16693 0.30687 0.86883 0.0
H640 H 0.06728 0.30715 0.87543 0.0
C641 C 0.18496 0.34594 0.8984 0.0
H642 H 0.10989 0.26252 0.83993 0.0
C643 C 0.16083 0.37118 0.91914 0.0
C644 C 0.11803 0.35825 0.90968 0.0
H645 H 0.21756 0.35802 0.90293 0.0
H646 H 0.17542 0.4021 0.93919 0.0
C647 C 0.10022 0.31794 0.88305 0.0
C648 C 0.6583 0.0978 0.84584 0.0
C649 C 0.6718 0.13875 0.87163 0.0
H650 H 0.61744 0.0395 0.83987 0.0
C651 C 0.65789 0.15111 0.91572 0.0
H652 H 0.66782 0.08811 0.81091 0.0
C653 C 0.62907 0.12343 0.93236 0.0
C654 C 0.61296 0.08344 0.90419 0.0
H655 H 0.6671 0.18298 0.93524 0.0
H656 H 0.61752 0.1342 0.96537 0.0
C657 C 0.62893 0.07035 0.86186 0.0
C658 C 0.8542 0.64434 0.82859 0.0
C659 C 0.83865 0.67461 0.85626 0.0
H660 H 0.88927 0.59728 0.83002 0.0
C661 C 0.85054 0.68334 0.90874 0.0
H662 H 0.84572 0.63716 0.78807 0.0
C663 C 0.87554 0.65993 0.93311 0.0
C664 C 0.88849 0.62762 0.90504 0.0
H665 H 0.83854 0.70627 0.93086 0.0
H666 H 0.883 0.6656 0.97365 0.0
C667 C 0.8788 0.62123 0.8526 0.0
C668 C 0.16324 0.3091 0.09181 0.0
C669 C 0.14503 0.27193 0.10514 0.0
H670 H 0.15343 0.36474 0.06557 0.0
C671 C 0.10223 0.25889 0.09338 0.0
H672 H 0.19616 0.32006 0.10068 0.0
C673 C 0.07793 0.28416 0.07277 0.0
C674 C 0.09595 0.32329 0.06435 0.0
H675 H 0.0874 0.23039 0.10319 0.0
H676 H 0.04494 0.27457 0.06744 0.0
C677 C 0.13884 0.33482 0.07206 0.0
C678 C 0.14604 0.65852 0.90398 0.0
C679 C 0.12834 0.67101 0.8603 0.0
H680 H 0.13897 0.61633 0.95549 0.0
C681 C 0.08763 0.65205 0.83759 0.0
H682 H 0.17731 0.67236 0.92241 0.0
C683 C 0.06627 0.61944 0.85569 0.0
C684 C 0.08473 0.60538 0.8975 0.0
H685 H 0.07279 0.66086 0.80406 0.0
H686 H 0.03544 0.60473 0.83626 0.0
C687 C 0.12427 0.62614 0.92263 0.0
C688 C 0.30414 0.11758 0.85905 0.0
C689 C 0.31804 0.16074 0.86692 0.0
H690 H 0.31965 0.05906 0.86827 0.0
C691 C 0.35673 0.17849 0.89692 0.0
H692 H 0.27472 0.10311 0.83543 0.0
C693 C 0.38203 0.15349 0.91638 0.0
C694 C 0.36959 0.11015 0.90508 0.0
H695 H 0.36828 0.21168 0.90314 0.0
H696 H 0.41251 0.16794 0.93719 0.0
C697 C 0.32993 0.09244 0.87748 0.0
C698 C 0.84158 0.35668 0.91895 0.0
C699 C 0.84329 0.32502 0.88016 0.0
H700 H 0.87291 0.41424 0.9663 0.0
C701 C 0.87968 0.32543 0.86162 0.0
H702 H 0.81342 0.35735 0.93285 0.0
C703 C 0.91308 0.35862 0.87944 0.0
C704 C 0.91072 0.39106 0.91685 0.0
H705 H 0.88115 0.30183 0.83074 0.0
H706 H 0.94026 0.35958 0.86304 0.0
C707 C 0.87534 0.38923 0.9377 0.0
C708 C 0.69663 0.86192 0.88907 0.0
C709 C 0.68206 0.81885 0.87863 0.0
H710 H 0.6835 0.92111 0.91526 0.0
C711 C 0.6465 0.80198 0.89523 0.0
H712 H 0.72374 0.87559 0.87619 0.0
C713 C 0.62362 0.8277 0.91734 0.0
C714 C 0.63572 0.87087 0.92311 0.0
H715 H 0.63481 0.76877 0.88786 0.0
H716 H 0.59504 0.8138 0.92694 0.0
C717 C 0.67352 0.88786 0.91125 0.0
C718 C 0.84613 0.65707 0.11373 0.0
C719 C 0.8359 0.66204 0.16145 0.0
H720 H 0.87203 0.62102 0.06077 0.0
C721 C 0.84128 0.63197 0.19113 0.0
H722 H 0.84184 0.67973 0.08997 0.0
C723 C 0.85665 0.59763 0.17393 0.0
C724 C 0.86867 0.59284 0.12701 0.0
H725 H 0.83255 0.63448 0.22756 0.0
H726 H 0.85852 0.57464 0.19767 0.0
C727 C 0.863 0.6231 0.09694 0.0
C728 C 0.30523 0.87239 0.17124 0.0
C729 C 0.28116 0.83387 0.14576 0.0
H730 H 0.358 0.91987 0.17577 0.0
C731 C 0.29115 0.81535 0.10119 0.0
H732 H 0.29855 0.88775 0.20561 0.0
C733 C 0.3256 0.83401 0.08402 0.0
C734 C 0.35089 0.87125 0.1114 0.0
H735 H 0.27346 0.78561 0.08074 0.0
H736 H 0.33305 0.81872 0.05013 0.0
C737 C 0.33975 0.89065 0.15448 0.0
C738 C 0.60853 0.10423 0.08681 0.0
C739 C 0.63991 0.10004 0.1247 0.0
H740 H 0.54826 0.07866 0.04413 0.0
C741 C 0.63647 0.06292 0.14365 0.0
H742 H 0.60995 0.13297 0.07252 0.0
C743 C 0.60085 0.03175 0.12726 0.0
C744 C 0.56864 0.03726 0.09137 0.0
H745 H 0.65962 0.05943 0.17392 0.0
H746 H 0.59788 0.00403 0.14372 0.0
C747 C 0.5732 0.07326 0.07059 0.0
C748 C 0.63312 0.5837 0.83887 0.0
C749 C 0.62899 0.62329 0.83023 0.0
H750 H 0.61852 0.53611 0.88155 0.0
C751 C 0.60841 0.64651 0.8609 0.0
H752 H 0.64934 0.56541 0.81636 0.0
C753 C 0.59212 0.63042 0.89923 0.0
C754 C 0.59538 0.5905 0.90701 0.0
H755 H 0.60551 0.67756 0.85597 0.0
H756 H 0.57577 0.64867 0.9216 0.0
C757 C 0.61598 0.56723 0.87654 0.0
C758 C 0.32988 0.61641 0.79438 0.0
C759 C 0.32446 0.65497 0.81717 0.0
H760 H 0.3604 0.56612 0.80191 0.0
C761 C 0.3482 0.67409 0.86423 0.0
H762 H 0.31174 0.60109 0.75813 0.0
C763 C 0.3763 0.65465 0.88875 0.0
C764 C 0.3808 0.61535 0.8671 0.0
H765 H 0.34507 0.70421 0.88225 0.0
H766 H 0.39449 0.67051 0.92475 0.0
C767 C 0.35771 0.59655 0.81938 0.0
C768 C 0.35976 0.41022 0.84103 0.0
C769 C 0.35764 0.36806 0.84265 0.0
H770 H 0.38243 0.47266 0.88071 0.0
C771 C 0.37475 0.35613 0.88682 0.0
H772 H 0.34592 0.4199 0.80758 0.0
C773 C 0.3932 0.38581 0.92905 0.0
C774 C 0.396 0.42795 0.92732 0.0
H775 H 0.37243 0.3237 0.8894 0.0
H776 H 0.40645 0.37578 0.96252 0.0
C777 C 0.3797 0.44012 0.88291 0.0
C778 C 0.59687 0.31691 0.85848 0.0
C779 C 0.6331 0.3348 0.844 0.0
H780 H 0.55086 0.32614 0.90168 0.0
C781 C 0.65158 0.37644 0.86397 0.0
H782 H 0.58217 0.28474 0.84435 0.0
C783 C 0.63388 0.39984 0.89726 0.0
C784 C 0.59737 0.38207 0.911 0.0
H785 H 0.67976 0.391 0.85403 0.0
H786 H 0.64795 0.43226 0.91079 0.0
C787 C 0.57917 0.34036 0.89171 0.0
C788 C 0.65579 0.35278 0.12816 0.0
C789 C 0.63569 0.31691 0.14251 0.0
H790 H 0.64914 0.40576 0.09459 0.0
C791 C 0.59311 0.30379 0.12727 0.0
H792 H 0.68874 0.36319 0.13834 0.0
C793 C 0.57067 0.32792 0.1017 0.0
C794 C 0.59049 0.36553 0.09111 0.0
H795 H 0.57688 0.27588 0.13695 0.0
H796 H 0.53756 0.31873 0.09381 0.0
C797 C 0.63332 0.37691 0.1026 0.0
C798 C 0.61953 0.62393 0.13428 0.0
C799 C 0.62932 0.639 0.18616 0.0
H800 H 0.57663 0.58382 0.07354 0.0
C801 C 0.60157 0.62625 0.21654 0.0
H802 H 0.64028 0.63332 0.10986 0.0
C803 C 0.56497 0.59838 0.19553 0.0
C804 C 0.55561 0.58277 0.14388 0.0
H805 H 0.6081 0.63766 0.25655 0.0
H806 H 0.54435 0.58854 0.21991 0.0
C807 C 0.58295 0.59596 0.11333 0.0
C808 C 0.29132 0.60484 0.20042 0.0
C809 C 0.27974 0.6358 0.17534 0.0
H810 H 0.32007 0.55272 0.1977 0.0
C811 C 0.28632 0.6365 0.1262 0.0
H812 H 0.28617 0.60343 0.23808 0.0
C813 C 0.30575 0.60768 0.10327 0.0
C814 C 0.31808 0.57734 0.12881 0.0
H815 H 0.27758 0.66008 0.10601 0.0
H816 H 0.31199 0.60959 0.06612 0.0
C817 C 0.31012 0.57559 0.17712 0.0
C818 C 0.36783 0.36846 0.25643 0.0
C819 C 0.35944 0.3264 0.23449 0.0
H820 H 0.39643 0.4301 0.25099 0.0
C821 C 0.37987 0.31304 0.19656 0.0
H822 H 0.35218 0.37929 0.28563 0.0
C823 C 0.40457 0.34172 0.17663 0.0
C824 C 0.40931 0.38417 0.1945 0.0
H825 H 0.37415 0.28057 0.17959 0.0
H826 H 0.41769 0.33077 0.14499 0.0
C827 C 0.39286 0.39739 0.23644 0.0
C828 C 0.79722 0.63075 0.59354 0.0
C829 C 0.76707 0.61208 0.61792 0.0
H830 H 0.8481 0.62352 0.55757 0.0
C831 C 0.76204 0.56944 0.61862 0.0
H832 H 0.80214 0.66361 0.59261 0.0
C833 C 0.78798 0.54649 0.59777 0.0
C834 C 0.81991 0.56591 0.57675 0.0
H835 H 0.73922 0.55419 0.63715 0.0
H836 H 0.78463 0.51406 0.60077 0.0
C837 C 0.82374 0.60798 0.57372 0.0
C838 C 0.35412 0.79112 0.64778 0.0
C839 C 0.31245 0.78058 0.62568 0.0
H840 H 0.41242 0.83041 0.65097 0.0
C841 C 0.29827 0.7986 0.58507 0.0
H842 H 0.36539 0.77848 0.68014 0.0
C843 C 0.32505 0.82825 0.56828 0.0
C844 C 0.36613 0.84124 0.59298 0.0
H845 H 0.26596 0.79174 0.56852 0.0
H846 H 0.31304 0.8428 0.53804 0.0
C847 C 0.38075 0.82141 0.63175 0.0
C848 C 0.17285 0.36329 0.63685 0.0
C849 C 0.17287 0.32121 0.6213 0.0
H850 H 0.1394 0.41182 0.63382 0.0
C851 C 0.14102 0.29743 0.58299 0.0
H852 H 0.19713 0.38266 0.66578 0.0
C853 C 0.10773 0.31435 0.56461 0.0
C854 C 0.10592 0.35515 0.5844 0.0
H855 H 0.14008 0.26491 0.57021 0.0
H856 H 0.08207 0.29463 0.53793 0.0
C857 C 0.13972 0.38001 0.61872 0.0
C858 C 0.56015 0.12325 0.65752 0.0
C859 C 0.5936 0.13941 0.63651 0.0
H860 H 0.51067 0.07236 0.65448 0.0
C861 C 0.60003 0.11683 0.59204 0.0
H862 H 0.55407 0.1397 0.69163 0.0
C863 C 0.57497 0.07797 0.57086 0.0
C864 C 0.54327 0.06102 0.59383 0.0
H865 H 0.62563 0.12812 0.57503 0.0
H866 H 0.58159 0.06031 0.53798 0.0
C867 C 0.53551 0.08438 0.63665 0.0
C868 C 0.82694 0.39615 0.3396 0.0
C869 C 0.81207 0.36157 0.36029 0.0
H870 H 0.87628 0.44735 0.34304 0.0
C871 C 0.83489 0.35492 0.40471 0.0
H872 H 0.81011 0.40218 0.30543 0.0
C873 C 0.87315 0.38058 0.42576 0.0
C874 C 0.88895 0.41343 0.40312 0.0
H875 H 0.82469 0.32822 0.42116 0.0
H876 H 0.89145 0.37332 0.45794 0.0
C877 C 0.86506 0.4217 0.36069 0.0
C878 C 0.6355 0.80143 0.38249 0.0
C879 C 0.67608 0.81937 0.3811 0.0
H880 H 0.57788 0.81244 0.39868 0.0
C881 C 0.69185 0.86109 0.40348 0.0
H882 H 0.62257 0.76944 0.36511 0.0
C883 C 0.66664 0.88536 0.42339 0.0
C884 C 0.62499 0.86856 0.42024 0.0
H885 H 0.72309 0.87559 0.40283 0.0
H886 H 0.67889 0.91809 0.43736 0.0
C887 C 0.60995 0.82603 0.40143 0.0
C888 C 0.15755 0.60897 0.35813 0.0
C889 C 0.16328 0.65141 0.37717 0.0
H890 H 0.12366 0.54785 0.35704 0.0
C891 C 0.14287 0.66448 0.41529 0.0
H892 H 0.17224 0.59837 0.32783 0.0
C893 C 0.11561 0.63562 0.43255 0.0
C894 C 0.10723 0.59354 0.41043 0.0
H895 H 0.14624 0.69721 0.42962 0.0
H896 H 0.09906 0.64657 0.46071 0.0
C897 C 0.1293 0.58025 0.3742 0.0
C898 C 0.36 0.18594 0.40179 0.0
C899 C 0.31831 0.16826 0.3841 0.0
H900 H 0.41879 0.17532 0.43249 0.0
C901 C 0.3024 0.12881 0.39334 0.0
H902 H 0.37296 0.21628 0.39495 0.0
C903 C 0.32832 0.10567 0.41526 0.0
C904 C 0.37078 0.12128 0.4276 0.0
H905 H 0.27019 0.11476 0.38064 0.0
H906 H 0.31551 0.07439 0.41927 0.0
C907 C 0.38617 0.16248 0.4233 0.0
C908 C 0.57291 0.75419 0.62026 0.0
C909 C 0.61403 0.75711 0.6156 0.0
H910 H 0.5184 0.77772 0.60376 0.0
C911 C 0.63038 0.78365 0.58503 0.0
H912 H 0.5595 0.7341 0.64358 0.0
C913 C 0.60706 0.80922 0.563 0.0
C914 C 0.56673 0.80794 0.57018 0.0
H915 H 0.66208 0.78684 0.58096 0.0
H916 H 0.621 0.83112 0.54201 0.0
C917 C 0.54938 0.77909 0.59739 0.0
C918 C 0.63095 0.16761 0.39203 0.0
C919 C 0.61775 0.17315 0.34273 0.0
H920 H 0.62141 0.13102 0.44874 0.0
C921 C 0.58172 0.1468 0.31406 0.0
H922 H 0.65859 0.18718 0.41516 0.0
C923 C 0.56097 0.11419 0.33295 0.0
C924 C 0.5754 0.10735 0.38118 0.0
H925 H 0.57055 0.14996 0.27594 0.0
H926 H 0.53404 0.09381 0.30927 0.0
C927 C 0.60989 0.13514 0.41112 0.0
C928 C 0.801 0.62273 0.37188 0.0
C929 C 0.81481 0.66589 0.38471 0.0
H930 H 0.81629 0.56328 0.37493 0.0
C931 C 0.85222 0.68216 0.4181 0.0
H932 H 0.77255 0.60947 0.34563 0.0
C933 C 0.8769 0.65585 0.43533 0.0
C934 C 0.86501 0.61286 0.41847 0.0
H935 H 0.86364 0.71537 0.42819 0.0
H936 H 0.90676 0.66934 0.45845 0.0
C937 C 0.82616 0.59639 0.38822 0.0
C938 C 0.33892 0.85723 0.41224 0.0
C939 C 0.34041 0.82416 0.37509 0.0
H940 H 0.36952 0.91668 0.45508 0.0
C941 C 0.37661 0.82382 0.35623 0.0
H942 H 0.31092 0.85864 0.42629 0.0
C943 C 0.40986 0.85758 0.37194 0.0
C944 C 0.40743 0.89147 0.40739 0.0
H945 H 0.37795 0.79923 0.32643 0.0
H946 H 0.43688 0.85783 0.35535 0.0
C947 C 0.37225 0.8905 0.4284 0.0
C948 C 0.16632 0.36428 0.32675 0.0
C949 C 0.18694 0.33944 0.3542 0.0
H950 H 0.12422 0.40482 0.32509 0.0
C951 C 0.18385 0.34018 0.40473 0.0
H952 H 0.16831 0.36437 0.2878 0.0
C953 C 0.15786 0.36312 0.42612 0.0
C954 C 0.1348 0.38533 0.39702 0.0
H955 H 0.19906 0.32082 0.42643 0.0
H956 H 0.15402 0.36161 0.46424 0.0
C957 C 0.14071 0.38703 0.34792 0.0
C958 C 0.31104 0.14135 0.59072 0.0
C959 C 0.33338 0.17301 0.63034 0.0
H960 H 0.30911 0.08263 0.54554 0.0
C961 C 0.3744 0.17233 0.64903 0.0
H962 H 0.27937 0.14082 0.57531 0.0
C963 C 0.39139 0.13895 0.63196 0.0
C964 C 0.3678 0.10531 0.59586 0.0
H965 H 0.39275 0.19639 0.67906 0.0
H966 H 0.42258 0.13869 0.64865 0.0
C967 C 0.32807 0.10782 0.57369 0.0
C968 C 0.79977 0.37313 0.67077 0.0
C969 C 0.77667 0.33402 0.6459 0.0
H970 H 0.85129 0.42183 0.67421 0.0
C971 C 0.78637 0.31605 0.60085 0.0
H972 H 0.79324 0.38808 0.70545 0.0
C973 C 0.81998 0.33557 0.58294 0.0
C974 C 0.84468 0.37317 0.61 0.0
H975 H 0.76935 0.28594 0.58073 0.0
H976 H 0.82742 0.32052 0.54891 0.0
C977 C 0.8335 0.39229 0.65324 0.0
C978 C 0.10068 0.60665 0.59127 0.0
C979 C 0.13276 0.60121 0.62716 0.0
H980 H 0.04022 0.58148 0.54912 0.0
C981 C 0.13 0.56338 0.64437 0.0
H982 H 0.10158 0.63616 0.57892 0.0
C983 C 0.09453 0.53221 0.62765 0.0
C984 C 0.06183 0.53859 0.59332 0.0
H985 H 0.15376 0.55919 0.67346 0.0
H986 H 0.09215 0.50371 0.64253 0.0
C987 C 0.06553 0.57559 0.57454 0.0
loop_
_geom_bond_atom_site_label_1
_geom_bond_atom_site_label_2
_geom_bond_distance
_geom_bond_site_symmetry_2
_ccdc_geom_bond_type
O0 Zn1 1.953 . S
O0 C16 1.225 . S
Zn1 O0 1.953 . S
Zn1 O2 1.949 . S
Zn1 O8 1.919 . S
Zn1 O13 1.924 . S
O2 Zn1 1.949 . S
O2 Zn3 1.923 . S
O2 Zn4 1.950 . S
O2 Zn5 1.945 . S
Zn3 O2 1.923 . S
Zn3 O6 1.933 . S
Zn3 O9 1.941 . S
Zn3 O10 1.965 . S
Zn4 O2 1.950 . S
Zn4 O11 1.938 . S
Zn4 O12 1.906 . S
Zn4 O22 1.953 . S
Zn5 O2 1.945 . S
Zn5 O7 1.932 . S
Zn5 O14 1.977 . S
Zn5 O15 1.910 . S
O6 Zn3 1.933 . S
O6 C17 1.226 . S
O7 Zn5 1.932 . S
O7 C17 1.307 . S
O8 Zn1 1.919 . S
O8 C19 1.253 . S
O9 Zn3 1.941 . S
O9 C19 1.283 . S
O10 Zn3 1.965 . S
O10 C18 1.303 . S
O11 Zn4 1.938 . S
O11 C18 1.247 . S
O12 Zn4 1.906 . S
O12 C20 1.304 . S
O13 Zn1 1.924 . S
O13 C21 1.311 . S
O14 Zn5 1.977 . S
O14 C20 1.272 . S
O15 Zn5 1.910 . S
O15 C21 1.231 . S
C16 O0 1.225 . S
C16 O22 1.298 . S
C17 O6 1.226 . S
C17 O7 1.307 . S
C18 O10 1.303 . S
C18 O11 1.247 . S
C19 O8 1.253 . S
C19 O9 1.283 . S
C20 O12 1.304 . S
C20 O14 1.272 . S
C21 O13 1.311 . S
C21 O15 1.231 . S
O22 Zn4 1.953 . S
O22 C16 1.298 . S
O23 Zn24 1.953 . S
O23 C39 1.225 . S
Zn24 O23 1.953 . S
Zn24 O25 1.949 . S
Zn24 O31 1.919 . S
Zn24 O36 1.924 . S
O25 Zn24 1.949 . S
O25 Zn26 1.923 . S
O25 Zn27 1.950 . S
O25 Zn28 1.945 . S
Zn26 O25 1.923 . S
Zn26 O29 1.933 . S
Zn26 O32 1.941 . S
Zn26 O33 1.965 . S
Zn27 O25 1.950 . S
Zn27 O34 1.938 . S
Zn27 O35 1.906 . S
Zn27 O45 1.953 . S
Zn28 O25 1.945 . S
Zn28 O30 1.932 . S
Zn28 O37 1.977 . S
Zn28 O38 1.910 . S
O29 Zn26 1.933 . S
O29 C40 1.226 . S
O30 Zn28 1.932 . S
O30 C40 1.307 . S
O31 Zn24 1.919 . S
O31 C42 1.253 . S
O32 Zn26 1.941 . S
O32 C42 1.283 . S
O33 Zn26 1.965 . S
O33 C41 1.303 . S
O34 Zn27 1.938 . S
O34 C41 1.247 . S
O35 Zn27 1.906 . S
O35 C43 1.304 . S
O36 Zn24 1.924 . S
O36 C44 1.311 . S
O37 Zn28 1.977 . S
O37 C43 1.272 . S
O38 Zn28 1.910 . S
O38 C44 1.231 . S
C39 O23 1.225 . S
C39 O45 1.298 . S
C40 O29 1.226 . S
C40 O30 1.307 . S
C41 O33 1.303 . S
C41 O34 1.247 . S
C42 O31 1.253 . S
C42 O32 1.283 . S
C43 O35 1.304 . S
C43 O37 1.272 . S
C44 O36 1.311 . S
C44 O38 1.231 . S
O45 Zn27 1.953 . S
O45 C39 1.298 . S
O46 Zn47 1.953 . S
O46 C62 1.225 . S
Zn47 O46 1.953 . S
Zn47 O48 1.949 . S
Zn47 O54 1.919 . S
Zn47 O59 1.924 . S
O48 Zn47 1.949 . S
O48 Zn49 1.923 . S
O48 Zn50 1.950 . S
O48 Zn51 1.945 . S
Zn49 O48 1.923 . S
Zn49 O52 1.933 . S
Zn49 O55 1.941 . S
Zn49 O56 1.965 . S
Zn50 O48 1.950 . S
Zn50 O57 1.938 . S
Zn50 O58 1.906 . S
Zn50 O68 1.953 . S
Zn51 O48 1.945 . S
Zn51 O53 1.932 . S
Zn51 O60 1.977 . S
Zn51 O61 1.910 . S
O52 Zn49 1.933 . S
O52 C63 1.226 . S
O53 Zn51 1.932 . S
O53 C63 1.307 . S
O54 Zn47 1.919 . S
O54 C65 1.253 . S
O55 Zn49 1.941 . S
O55 C65 1.283 . S
O56 Zn49 1.965 . S
O56 C64 1.303 . S
O57 Zn50 1.938 . S
O57 C64 1.247 . S
O58 Zn50 1.906 . S
O58 C66 1.304 . S
O59 Zn47 1.924 . S
O59 C67 1.311 . S
O60 Zn51 1.977 . S
O60 C66 1.272 . S
O61 Zn51 1.910 . S
O61 C67 1.231 . S
C62 O46 1.225 . S
C62 O68 1.298 . S
C63 O52 1.226 . S
C63 O53 1.307 . S
C64 O56 1.303 . S
C64 O57 1.247 . S
C65 O54 1.253 . S
C65 O55 1.283 . S
C66 O58 1.304 . S
C66 O60 1.272 . S
C67 O59 1.311 . S
C67 O61 1.231 . S
O68 Zn50 1.953 . S
O68 C62 1.298 . S
O69 Zn70 1.953 . S
O69 C85 1.225 . S
Zn70 O69 1.953 . S
Zn70 O71 1.949 . S
Zn70 O77 1.919 . S
Zn70 O82 1.924 . S
O71 Zn70 1.949 . S
O71 Zn72 1.923 . S
O71 Zn73 1.950 . S
O71 Zn74 1.945 . S
Zn72 O71 1.923 . S
Zn72 O75 1.933 . S
Zn72 O78 1.941 . S
Zn72 O79 1.965 . S
Zn73 O71 1.950 . S
Zn73 O80 1.938 . S
Zn73 O81 1.906 . S
Zn73 O91 1.953 . S
Zn74 O71 1.945 . S
Zn74 O76 1.932 . S
Zn74 O83 1.977 . S
Zn74 O84 1.910 . S
O75 Zn72 1.933 . S
O75 C86 1.226 . S
O76 Zn74 1.932 . S
O76 C86 1.307 . S
O77 Zn70 1.919 . S
O77 C88 1.253 . S
O78 Zn72 1.941 . S
O78 C88 1.283 . S
O79 Zn72 1.965 . S
O79 C87 1.303 . S
O80 Zn73 1.938 . S
O80 C87 1.247 . S
O81 Zn73 1.906 . S
O81 C89 1.304 . S
O82 Zn70 1.924 . S
O82 C90 1.311 . S
O83 Zn74 1.977 . S
O83 C89 1.272 . S
O84 Zn74 1.910 . S
O84 C90 1.231 . S
C85 O69 1.225 . S
C85 O91 1.298 . S
C86 O75 1.226 . S
C86 O76 1.307 . S
C87 O79 1.303 . S
C87 O80 1.247 . S
C88 O77 1.253 . S
C88 O78 1.283 . S
C89 O81 1.304 . S
C89 O83 1.272 . S
C90 O82 1.311 . S
C90 O84 1.231 . S
O91 Zn73 1.953 . S
O91 C85 1.298 . S
O92 Zn93 1.953 . S
O92 C108 1.225 . S
Zn93 O92 1.953 . S
Zn93 O94 1.949 . S
Zn93 O100 1.919 . S
Zn93 O105 1.924 . S
O94 Zn93 1.949 . S
O94 Zn95 1.923 . S
O94 Zn96 1.950 . S
O94 Zn97 1.945 . S
Zn95 O94 1.923 . S
Zn95 O98 1.933 . S
Zn95 O101 1.941 . S
Zn95 O102 1.965 . S
Zn96 O94 1.950 . S
Zn96 O103 1.938 . S
Zn96 O104 1.906 . S
Zn96 O114 1.953 . S
Zn97 O94 1.945 . S
Zn97 O99 1.932 . S
Zn97 O106 1.977 . S
Zn97 O107 1.910 . S
O98 Zn95 1.933 . S
O98 C109 1.226 . S
O99 Zn97 1.932 . S
O99 C109 1.307 . S
O100 Zn93 1.919 . S
O100 C111 1.253 . S
O101 Zn95 1.941 . S
O101 C111 1.283 . S
O102 Zn95 1.965 . S
O102 C110 1.303 . S
O103 Zn96 1.938 . S
O103 C110 1.247 . S
O104 Zn96 1.906 . S
O104 C112 1.304 . S
O105 Zn93 1.924 . S
O105 C113 1.311 . S
O106 Zn97 1.977 . S
O106 C112 1.272 . S
O107 Zn97 1.910 . S
O107 C113 1.231 . S
C108 O92 1.225 . S
C108 O114 1.298 . S
C109 O98 1.226 . S
C109 O99 1.307 . S
C110 O102 1.303 . S
C110 O103 1.247 . S
C111 O100 1.253 . S
C111 O101 1.283 . S
C112 O104 1.304 . S
C112 O106 1.272 . S
C113 O105 1.311 . S
C113 O107 1.231 . S
O114 Zn96 1.953 . S
O114 C108 1.298 . S
O115 Zn116 1.953 . S
O115 C131 1.225 . S
Zn116 O115 1.953 . S
Zn116 O117 1.949 . S
Zn116 O123 1.919 . S
Zn116 O128 1.924 . S
O117 Zn116 1.949 . S
O117 Zn118 1.923 . S
O117 Zn119 1.950 . S
O117 Zn120 1.945 . S
Zn118 O117 1.923 . S
Zn118 O121 1.933 . S
Zn118 O124 1.941 . S
Zn118 O125 1.965 . S
Zn119 O117 1.950 . S
Zn119 O126 1.938 . S
Zn119 O127 1.906 . S
Zn119 O137 1.953 . S
Zn120 O117 1.945 . S
Zn120 O122 1.932 . S
Zn120 O129 1.977 . S
Zn120 O130 1.910 . S
O121 Zn118 1.933 . S
O121 C132 1.226 . S
O122 Zn120 1.932 . S
O122 C132 1.307 . S
O123 Zn116 1.919 . S
O123 C134 1.253 . S
O124 Zn118 1.941 . S
O124 C134 1.283 . S
O125 Zn118 1.965 . S
O125 C133 1.303 . S
O126 Zn119 1.938 . S
O126 C133 1.247 . S
O127 Zn119 1.906 . S
O127 C135 1.304 . S
O128 Zn116 1.924 . S
O128 C136 1.311 . S
O129 Zn120 1.977 . S
O129 C135 1.272 . S
O130 Zn120 1.910 . S
O130 C136 1.231 . S
C131 O115 1.225 . S
C131 O137 1.298 . S
C132 O121 1.226 . S
C132 O122 1.307 . S
C133 O125 1.303 . S
C133 O126 1.247 . S
C134 O123 1.253 . S
C134 O124 1.283 . S
C135 O127 1.304 . S
C135 O129 1.272 . S
C136 O128 1.311 . S
C136 O130 1.231 . S
O137 Zn119 1.953 . S
O137 C131 1.298 . S
O138 Zn139 1.953 . S
O138 C154 1.225 . S
Zn139 O138 1.953 . S
Zn139 O140 1.949 . S
Zn139 O146 1.919 . S
Zn139 O151 1.924 . S
O140 Zn139 1.949 . S
O140 Zn141 1.923 . S
O140 Zn142 1.950 . S
O140 Zn143 1.945 . S
Zn141 O140 1.923 . S
Zn141 O144 1.933 . S
Zn141 O147 1.941 . S
Zn141 O148 1.965 . S
Zn142 O140 1.950 . S
Zn142 O149 1.938 . S
Zn142 O150 1.906 . S
Zn142 O160 1.953 . S
Zn143 O140 1.945 . S
Zn143 O145 1.932 . S
Zn143 O152 1.977 . S
Zn143 O153 1.910 . S
O144 Zn141 1.933 . S
O144 C155 1.226 . S
O145 Zn143 1.932 . S
O145 C155 1.307 . S
O146 Zn139 1.919 . S
O146 C157 1.253 . S
O147 Zn141 1.941 . S
O147 C157 1.283 . S
O148 Zn141 1.965 . S
O148 C156 1.303 . S
O149 Zn142 1.938 . S
O149 C156 1.247 . S
O150 Zn142 1.906 . S
O150 C158 1.304 . S
O151 Zn139 1.924 . S
O151 C159 1.311 . S
O152 Zn143 1.977 . S
O152 C158 1.272 . S
O153 Zn143 1.910 . S
O153 C159 1.231 . S
C154 O138 1.225 . S
C154 O160 1.298 . S
C155 O144 1.226 . S
C155 O145 1.307 . S
C156 O148 1.303 . S
C156 O149 1.247 . S
C157 O146 1.253 . S
C157 O147 1.283 . S
C158 O150 1.304 . S
C158 O152 1.272 . S
C159 O151 1.311 . S
C159 O153 1.231 . S
O160 Zn142 1.953 . S
O160 C154 1.298 . S
O161 Zn162 1.953 . S
O161 C177 1.225 . S
Zn162 O161 1.953 . S
Zn162 O163 1.949 . S
Zn162 O169 1.919 . S
Zn162 O174 1.924 . S
O163 Zn162 1.949 . S
O163 Zn164 1.923 . S
O163 Zn165 1.950 . S
O163 Zn166 1.945 . S
Zn164 O163 1.923 . S
Zn164 O167 1.933 . S
Zn164 O170 1.941 . S
Zn164 O171 1.965 . S
Zn165 O163 1.950 . S
Zn165 O172 1.938 . S
Zn165 O173 1.906 . S
Zn165 O183 1.953 . S
Zn166 O163 1.945 . S
Zn166 O168 1.932 . S
Zn166 O175 1.977 . S
Zn166 O176 1.910 . S
O167 Zn164 1.933 . S
O167 C178 1.226 . S
O168 Zn166 1.932 . S
O168 C178 1.307 . S
O169 Zn162 1.919 . S
O169 C180 1.253 . S
O170 Zn164 1.941 . S
O170 C180 1.283 . S
O171 Zn164 1.965 . S
O171 C179 1.303 . S
O172 Zn165 1.938 . S
O172 C179 1.247 . S
O173 Zn165 1.906 . S
O173 C181 1.304 . S
O174 Zn162 1.924 . S
O174 C182 1.311 . S
O175 Zn166 1.977 . S
O175 C181 1.272 . S
O176 Zn166 1.910 . S
O176 C182 1.231 . S
C177 O161 1.225 . S
C177 O183 1.298 . S
C178 O167 1.226 . S
C178 O168 1.307 . S
C179 O171 1.303 . S
C179 O172 1.247 . S
C180 O169 1.253 . S
C180 O170 1.283 . S
C181 O173 1.304 . S
C181 O175 1.272 . S
C182 O174 1.311 . S
C182 O176 1.231 . S
O183 Zn165 1.953 . S
O183 C177 1.298 . S
Cd184 N187 2.334 1_655 S
Cd184 N213 2.304 1_565 S
Cd184 O220 2.268 . S
Cd184 O223 2.273 1_665 S
Cd184 O224 2.417 . S
Cd184 O225 2.330 . S
Cd185 N200 2.304 1_455 S
Cd185 N204 2.334 1_545 S
Cd185 O221 2.273 1_445 S
Cd185 O222 2.268 . S
Cd185 O226 2.417 . S
Cd185 O227 2.330 . S
C186 N187 1.332 . S
C186 C190 1.381 . S
C186 H192 0.931 . S
N187 Cd184 2.334 1_455 S
N187 C186 1.332 . S
N187 C191 1.328 . S
C188 C189 1.396 . S
C188 C191 1.378 . S
C188 H230 0.931 . S
C189 C188 1.396 . S
C189 C190 1.382 . S
C190 C186 1.381 . S
C190 C189 1.382 . S
C190 H231 0.930 . S
C191 N187 1.328 . S
C191 C188 1.378 . S
C191 H193 0.930 . S
H192 C186 0.931 . S
H193 C191 0.930 . S
C194 O220 1.238 . S
C194 O221 1.253 . S
C195 C196 1.379 . S
C195 N200 1.337 . S
C195 H201 0.929 . S
C196 C195 1.379 . S
C196 C197 1.380 . S
C196 H232 0.929 . S
C197 C196 1.380 . S
C197 C198 1.399 . S
C198 C197 1.399 . S
C198 C199 1.376 . S
C198 H233 0.931 . S
C199 C198 1.376 . S
C199 N200 1.338 . S
C199 H202 0.930 1_655 S
N200 Cd185 2.304 1_655 S
N200 C195 1.337 . S
N200 C199 1.338 . S
H201 C195 0.929 . S
H202 C199 0.930 1_455 S
C203 N204 1.332 . S
C203 C207 1.381 . S
C203 H209 0.931 . S
N204 Cd185 2.334 1_565 S
N204 C203 1.332 . S
N204 C208 1.328 . S
C205 C206 1.396 . S
C205 C208 1.378 . S
C205 H234 0.931 . S
C206 C205 1.396 . S
C206 C207 1.382 . S
C207 C203 1.381 . S
C207 C206 1.382 . S
C207 H235 0.930 . S
C208 N204 1.328 . S
C208 C205 1.378 . S
C208 H210 0.930 1_565 S
H209 C203 0.931 . S
H210 C208 0.930 1_545 S
C211 O222 1.238 . S
C211 O223 1.253 . S
C212 O224 1.239 . S
C212 O225 1.230 . S
N213 Cd184 2.304 1_545 S
N213 C214 1.337 . S
N213 C218 1.338 . S
C214 N213 1.337 . S
C214 C215 1.379 . S
C214 H228 0.929 . S
C215 C214 1.379 . S
C215 C216 1.380 . S
C215 H236 0.929 . S
C216 C215 1.380 . S
C216 C217 1.399 . S
C217 C216 1.399 . S
C217 C218 1.376 . S
C217 H237 0.931 . S
C218 N213 1.338 . S
C218 C217 1.376 . S
C218 H229 0.938 . S
C219 O226 1.239 . S
C219 O227 1.230 . S
O220 Cd184 2.268 . S
O220 C194 1.238 . S
O221 Cd185 2.273 1_665 S
O221 C194 1.253 . S
O222 Cd185 2.268 . S
O222 C211 1.238 . S
O223 Cd184 2.273 1_445 S
O223 C211 1.253 . S
O224 Cd184 2.417 . S
O224 C212 1.239 . S
O225 Cd184 2.330 . S
O225 C212 1.230 . S
O226 Cd185 2.417 . S
O226 C219 1.239 . S
O227 Cd185 2.330 . S
O227 C219 1.230 . S
H228 C214 0.929 . S
H229 C218 0.938 . S
H230 C188 0.931 . S
H231 C190 0.930 . S
H232 C196 0.929 . S
H233 C198 0.931 . S
H234 C205 0.931 . S
H235 C207 0.930 . S
H236 C215 0.929 . S
H237 C217 0.931 . S
Cd238 N241 2.334 . S
Cd238 N267 2.304 1_565 S
Cd238 O274 2.268 1_554 S
Cd238 O277 2.273 1_565 S
Cd238 O278 2.417 . S
Cd238 O279 2.330 . S
Cd239 N254 2.304 . S
Cd239 N258 2.334 1_545 S
Cd239 O275 2.273 1_545 S
Cd239 O276 2.268 1_556 S
Cd239 O280 2.417 . S
Cd239 O281 2.330 . S
C240 N241 1.332 . S
C240 C244 1.381 . S
C240 H246 0.931 . S
N241 Cd238 2.334 . S
N241 C240 1.332 . S
N241 C245 1.328 . S
C242 C243 1.396 . S
C242 C245 1.378 . S
C242 H284 0.931 . S
C243 C242 1.396 . S
C243 C244 1.382 . S
C244 C240 1.381 . S
C244 C243 1.382 . S
C244 H285 0.930 . S
C245 N241 1.328 . S
C245 C242 1.378 . S
C245 H247 0.930 . S
H246 C240 0.931 . S
H247 C245 0.930 . S
C248 O274 1.238 . S
C248 O275 1.253 . S
C249 C250 1.379 . S
C249 N254 1.337 . S
C249 H255 0.929 . S
C250 C249 1.379 . S
C250 C251 1.380 . S
C250 H286 0.929 . S
C251 C250 1.380 . S
C251 C252 1.399 . S
C252 C251 1.399 . S
C252 C253 1.376 . S
C252 H287 0.931 1_556 S
C253 C252 1.376 . S
C253 N254 1.338 . S
C253 H256 0.930 1_556 S
N254 Cd239 2.304 . S
N254 C249 1.337 . S
N254 C253 1.338 . S
H255 C249 0.929 . S
H256 C253 0.930 1_554 S
C257 N258 1.332 . S
C257 C261 1.381 . S
C257 H263 0.931 . S
N258 Cd239 2.334 1_565 S
N258 C257 1.332 . S
N258 C262 1.328 . S
C259 C260 1.396 . S
C259 C262 1.378 . S
C259 H288 0.931 1_556 S
C260 C259 1.396 . S
C260 C261 1.382 . S
C261 C257 1.381 . S
C261 C260 1.382 . S
C261 H289 0.930 . S
C262 N258 1.328 . S
C262 C259 1.378 . S
C262 H264 0.930 1_566 S
H263 C257 0.931 . S
H264 C262 0.930 1_544 S
C265 O276 1.238 . S
C265 O277 1.253 . S
C266 O278 1.239 . S
C266 O279 1.230 . S
N267 Cd238 2.304 1_545 S
N267 C268 1.337 . S
N267 C272 1.338 . S
C268 N267 1.337 . S
C268 C269 1.379 . S
C268 H282 0.929 . S
C269 C268 1.379 . S
C269 C270 1.380 . S
C269 H290 0.929 . S
C270 C269 1.380 . S
C270 C271 1.399 . S
C271 C270 1.399 . S
C271 C272 1.376 . S
C271 H291 0.923 1_554 S
C272 N267 1.338 . S
C272 C271 1.376 . S
C272 H283 0.934 1_545 S
C273 O280 1.239 . S
C273 O281 1.230 . S
O274 Cd238 2.268 1_556 S
O274 C248 1.238 . S
O275 Cd239 2.273 1_565 S
O275 C248 1.253 . S
O276 Cd239 2.268 1_554 S
O276 C265 1.238 . S
O277 Cd238 2.273 1_545 S
O277 C265 1.253 . S
O278 Cd238 2.417 . S
O278 C266 1.239 . S
O279 Cd238 2.330 . S
O279 C266 1.230 . S
O280 Cd239 2.417 . S
O280 C273 1.239 . S
O281 Cd239 2.330 . S
O281 C273 1.230 . S
H282 C268 0.929 . S
H283 C272 0.934 1_565 S
H284 C242 0.931 . S
H285 C244 0.930 . S
H286 C250 0.929 . S
H287 C252 0.931 1_554 S
H288 C259 0.931 1_554 S
H289 C261 0.930 . S
H290 C269 0.929 . S
H291 C271 0.923 1_556 S
Cd292 N295 2.334 1_655 S
Cd292 N321 2.304 . S
Cd292 O328 2.268 1_554 S
Cd292 O331 2.273 1_655 S
Cd292 O332 2.417 . S
Cd292 O333 2.330 . S
Cd293 N308 2.304 1_455 S
Cd293 N312 2.334 . S
Cd293 O329 2.273 1_455 S
Cd293 O330 2.268 1_556 S
Cd293 O334 2.417 . S
Cd293 O335 2.330 . S
C294 N295 1.332 . S
C294 C298 1.381 . S
C294 H300 0.931 . S
N295 Cd292 2.334 1_455 S
N295 C294 1.332 . S
N295 C299 1.328 . S
C296 C297 1.396 . S
C296 C299 1.378 . S
C296 H338 0.931 1_554 S
C297 C296 1.396 . S
C297 C298 1.382 . S
C298 C294 1.381 . S
C298 C297 1.382 . S
C298 H339 0.930 . S
C299 N295 1.328 . S
C299 C296 1.378 . S
C299 H301 0.930 1_554 S
H300 C294 0.931 . S
H301 C299 0.930 1_556 S
C302 O328 1.238 . S
C302 O329 1.253 . S
C303 C304 1.379 . S
C303 N308 1.337 . S
C303 H309 0.929 . S
C304 C303 1.379 . S
C304 C305 1.380 . S
C304 H340 0.929 . S
C305 C304 1.380 . S
C305 C306 1.399 . S
C306 C305 1.399 . S
C306 C307 1.376 . S
C306 H341 0.931 1_556 S
C307 C306 1.376 . S
C307 N308 1.338 . S
C307 H310 0.930 1_656 S
N308 Cd293 2.304 1_655 S
N308 C303 1.337 . S
N308 C307 1.338 . S
H309 C303 0.929 . S
H310 C307 0.930 1_454 S
C311 N312 1.332 . S
C311 C315 1.381 . S
C311 H317 0.931 . S
N312 Cd293 2.334 . S
N312 C311 1.332 . S
N312 C316 1.328 . S
C313 C314 1.396 . S
C313 C316 1.378 . S
C313 H342 0.931 1_556 S
C314 C313 1.396 . S
C314 C315 1.382 . S
C315 C311 1.381 . S
C315 C314 1.382 . S
C315 H343 0.930 . S
C316 N312 1.328 . S
C316 C313 1.378 . S
C316 H318 0.930 1_556 S
H317 C311 0.931 . S
H318 C316 0.930 1_554 S
C319 O330 1.238 . S
C319 O331 1.253 . S
C320 O332 1.239 . S
C320 O333 1.230 . S
N321 Cd292 2.304 . S
N321 C322 1.337 . S
N321 C326 1.338 . S
C322 N321 1.337 . S
C322 C323 1.379 . S
C322 H336 0.929 . S
C323 C322 1.379 . S
C323 C324 1.380 . S
C323 H344 0.929 . S
C324 C323 1.380 . S
C324 C325 1.399 . S
C325 C324 1.399 . S
C325 C326 1.376 . S
C325 H345 0.931 1_554 S
C326 N321 1.338 . S
C326 C325 1.376 . S
C326 H337 0.930 1_554 S
C327 O334 1.239 . S
C327 O335 1.230 . S
O328 Cd292 2.268 1_556 S
O328 C302 1.238 . S
O329 Cd293 2.273 1_655 S
O329 C302 1.253 . S
O330 Cd293 2.268 1_554 S
O330 C319 1.238 . S
O331 Cd292 2.273 1_455 S
O331 C319 1.253 . S
O332 Cd292 2.417 . S
O332 C320 1.239 . S
O333 Cd292 2.330 . S
O333 C320 1.230 . S
O334 Cd293 2.417 . S
O334 C327 1.239 . S
O335 Cd293 2.330 . S
O335 C327 1.230 . S
H336 C322 0.929 . S
H337 C326 0.930 1_556 S
H338 C296 0.931 1_556 S
H339 C298 0.930 . S
H340 C304 0.929 . S
H341 C306 0.931 1_554 S
H342 C313 0.931 1_554 S
H343 C315 0.930 . S
H344 C323 0.929 . S
H345 C325 0.931 1_556 S
Cd346 N349 2.334 . S
Cd346 N375 2.304 . S
Cd346 O382 2.268 1_554 S
Cd346 O385 2.273 . S
Cd346 O386 2.417 . S
Cd346 O387 2.330 . S
Cd347 N362 2.304 . S
Cd347 N366 2.334 . S
Cd347 O383 2.273 . S
Cd347 O384 2.268 1_556 S
Cd347 O388 2.417 . S
Cd347 O389 2.330 . S
C348 N349 1.332 . S
C348 C352 1.381 . S
C348 H354 0.931 . S
N349 Cd346 2.334 . S
N349 C348 1.332 . S
N349 C353 1.328 . S
C350 C351 1.396 . S
C350 C353 1.378 . S
C350 H392 0.937 . S
C351 C350 1.396 . S
C351 C352 1.382 . S
C352 C348 1.381 . S
C352 C351 1.382 . S
C352 H393 0.930 . S
C353 N349 1.328 . S
C353 C350 1.378 . S
C353 H355 0.930 . S
H354 C348 0.931 . S
H355 C353 0.930 . S
C356 O382 1.238 . S
C356 O383 1.253 . S
C357 C358 1.379 . S
C357 N362 1.337 . S
C357 H363 0.929 . S
C358 C357 1.379 . S
C358 C359 1.380 . S
C358 H394 0.929 . S
C359 C358 1.380 . S
C359 C360 1.399 . S
C360 C359 1.399 . S
C360 C361 1.376 . S
C360 H395 0.931 1_556 S
C361 C360 1.376 . S
C361 N362 1.338 . S
C361 H364 0.930 1_556 S
N362 Cd347 2.304 . S
N362 C357 1.337 . S
N362 C361 1.338 . S
H363 C357 0.929 . S
H364 C361 0.930 1_554 S
C365 N366 1.332 . S
C365 C369 1.381 . S
C365 H371 0.931 . S
N366 Cd347 2.334 . S
N366 C365 1.332 . S
N366 C370 1.328 . S
C367 C368 1.396 . S
C367 C370 1.378 . S
C367 H396 0.931 1_556 S
C368 C367 1.396 . S
C368 C369 1.382 . S
C369 C365 1.381 . S
C369 C368 1.382 . S
C369 H397 0.930 . S
C370 N366 1.328 . S
C370 C367 1.378 . S
C370 H372 0.930 1_556 S
H371 C365 0.931 . S
H372 C370 0.930 1_554 S
C373 O384 1.238 . S
C373 O385 1.253 . S
C374 O386 1.239 . S
C374 O387 1.230 . S
N375 Cd346 2.304 . S
N375 C376 1.337 . S
N375 C380 1.338 . S
C376 N375 1.337 . S
C376 C377 1.379 . S
C376 H390 0.929 . S
C377 C376 1.379 . S
C377 C378 1.380 . S
C377 H398 0.929 . S
C378 C377 1.380 . S
C378 C379 1.399 . S
C379 C378 1.399 . S
C379 C380 1.376 . S
C379 H399 0.931 1_554 S
C380 N375 1.338 . S
C380 C379 1.376 . S
C380 H391 0.930 1_554 S
C381 O388 1.239 . S
C381 O389 1.230 . S
O382 Cd346 2.268 1_556 S
O382 C356 1.238 . S
O383 Cd347 2.273 . S
O383 C356 1.253 . S
O384 Cd347 2.268 1_554 S
O384 C373 1.238 . S
O385 Cd346 2.273 . S
O385 C373 1.253 . S
O386 Cd346 2.417 . S
O386 C374 1.239 . S
O387 Cd346 2.330 . S
O387 C374 1.230 . S
O388 Cd347 2.417 . S
O388 C381 1.239 . S
O389 Cd347 2.330 . S
O389 C381 1.230 . S
H390 C376 0.929 . S
H391 C380 0.930 1_556 S
H392 C350 0.937 . S
H393 C352 0.930 . S
H394 C358 0.929 . S
H395 C360 0.931 1_554 S
H396 C367 0.931 1_554 S
H397 C369 0.930 . S
H398 C377 0.929 . S
H399 C379 0.931 1_556 S
Cd400 N403 2.334 1_655 S
Cd400 N429 2.304 . S
Cd400 O436 2.268 . S
Cd400 O439 2.273 1_655 S
Cd400 O440 2.417 . S
Cd400 O441 2.330 . S
Cd401 N416 2.304 1_455 S
Cd401 N420 2.334 . S
Cd401 O437 2.273 1_455 S
Cd401 O438 2.268 . S
Cd401 O442 2.417 . S
Cd401 O443 2.330 . S
C402 N403 1.332 . S
C402 C406 1.381 . S
C402 H408 0.931 . S
N403 Cd400 2.334 1_455 S
N403 C402 1.332 . S
N403 C407 1.328 . S
C404 C405 1.396 . S
C404 C407 1.378 . S
C404 H446 0.931 . S
C405 C404 1.396 . S
C405 C406 1.382 . S
C406 C402 1.381 . S
C406 C405 1.382 . S
C406 H447 0.930 . S
C407 N403 1.328 . S
C407 C404 1.378 . S
C407 H409 0.930 . S
H408 C402 0.931 . S
H409 C407 0.930 . S
C410 O436 1.238 . S
C410 O437 1.253 . S
C411 C412 1.379 . S
C411 N416 1.337 . S
C411 H417 0.929 . S
C412 C411 1.379 . S
C412 C413 1.380 . S
C412 H448 0.929 . S
C413 C412 1.380 . S
C413 C414 1.399 . S
C414 C413 1.399 . S
C414 C415 1.376 . S
C414 H449 0.931 . S
C415 C414 1.376 . S
C415 N416 1.338 . S
C415 H418 0.930 1_655 S
N416 Cd401 2.304 1_655 S
N416 C411 1.337 . S
N416 C415 1.338 . S
H417 C411 0.929 . S
H418 C415 0.930 1_455 S
C419 N420 1.332 . S
C419 C423 1.381 . S
C419 H425 0.931 . S
N420 Cd401 2.334 . S
N420 C419 1.332 . S
N420 C424 1.328 . S
C421 C422 1.396 . S
C421 C424 1.378 . S
C421 H450 0.931 . S
C422 C421 1.396 . S
C422 C423 1.382 . S
C423 C419 1.381 . S
C423 C422 1.382 . S
C423 H451 0.930 . S
C424 N420 1.328 . S
C424 C421 1.378 . S
C424 H426 0.930 . S
H425 C419 0.931 . S
H426 C424 0.930 . S
C427 O438 1.238 . S
C427 O439 1.253 . S
C428 O440 1.239 . S
C428 O441 1.230 . S
N429 Cd400 2.304 . S
N429 C430 1.337 . S
N429 C434 1.338 . S
C430 N429 1.337 . S
C430 C431 1.379 . S
C430 H444 0.929 . S
C431 C430 1.379 . S
C431 C432 1.380 . S
C431 H452 0.929 . S
C432 C431 1.380 . S
C432 C433 1.399 . S
C433 C432 1.399 . S
C433 C434 1.376 . S
C433 H453 0.931 . S
C434 N429 1.338 . S
C434 C433 1.376 . S
C434 H445 0.930 . S
C435 O442 1.239 . S
C435 O443 1.230 . S
O436 Cd400 2.268 . S
O436 C410 1.238 . S
O437 Cd401 2.273 1_655 S
O437 C410 1.253 . S
O438 Cd401 2.268 . S
O438 C427 1.238 . S
O439 Cd400 2.273 1_455 S
O439 C427 1.253 . S
O440 Cd400 2.417 . S
O440 C428 1.239 . S
O441 Cd400 2.330 . S
O441 C428 1.230 . S
O442 Cd401 2.417 . S
O442 C435 1.239 . S
O443 Cd401 2.330 . S
O443 C435 1.230 . S
H444 C430 0.929 . S
H445 C434 0.930 . S
H446 C404 0.931 . S
H447 C406 0.930 . S
H448 C412 0.929 . S
H449 C414 0.931 . S
H450 C421 0.931 . S
H451 C423 0.930 . S
H452 C431 0.929 . S
H453 C433 0.931 . S
Cd454 N457 2.334 . S
Cd454 N483 2.304 1_565 S
Cd454 O490 2.268 . S
Cd454 O493 2.273 1_565 S
Cd454 O494 2.417 . S
Cd454 O495 2.330 . S
Cd455 N470 2.304 . S
Cd455 N474 2.334 1_545 S
Cd455 O491 2.273 1_545 S
Cd455 O492 2.268 . S
Cd455 O496 2.417 . S
Cd455 O497 2.330 . S
C456 N457 1.332 . S
C456 C460 1.381 . S
C456 H462 0.931 . S
N457 Cd454 2.334 . S
N457 C456 1.332 . S
N457 C461 1.328 . S
C458 C459 1.396 . S
C458 C461 1.378 . S
C458 H500 0.931 . S
C459 C458 1.396 . S
C459 C460 1.382 . S
C460 C456 1.381 . S
C460 C459 1.382 . S
C460 H501 0.930 . S
C461 N457 1.328 . S
C461 C458 1.378 . S
C461 H463 0.930 . S
H462 C456 0.931 . S
H463 C461 0.930 . S
C464 O490 1.238 . S
C464 O491 1.253 . S
C465 C466 1.379 . S
C465 N470 1.337 . S
C465 H471 0.929 . S
C466 C465 1.379 . S
C466 C467 1.380 . S
C466 H502 0.929 . S
C467 C466 1.380 . S
C467 C468 1.399 . S
C468 C467 1.399 . S
C468 C469 1.376 . S
C468 H503 0.931 . S
C469 C468 1.376 . S
C469 N470 1.338 . S
C469 H472 0.930 . S
N470 Cd455 2.304 . S
N470 C465 1.337 . S
N470 C469 1.338 . S
H471 C465 0.929 . S
H472 C469 0.930 . S
C473 N474 1.332 . S
C473 C477 1.381 . S
C473 H479 0.931 . S
N474 Cd455 2.334 1_565 S
N474 C473 1.332 . S
N474 C478 1.328 . S
C475 C476 1.396 . S
C475 C478 1.378 . S
C475 H504 0.931 . S
C476 C475 1.396 . S
C476 C477 1.382 . S
C477 C473 1.381 . S
C477 C476 1.382 . S
C477 H505 0.930 . S
C478 N474 1.328 . S
C478 C475 1.378 . S
C478 H480 0.930 1_565 S
H479 C473 0.931 . S
H480 C478 0.930 1_545 S
C481 O492 1.238 . S
C481 O493 1.253 . S
C482 O494 1.239 . S
C482 O495 1.230 . S
N483 Cd454 2.304 1_545 S
N483 C484 1.337 . S
N483 C488 1.338 . S
C484 N483 1.337 . S
C484 C485 1.379 . S
C484 H498 0.929 . S
C485 C484 1.379 . S
C485 C486 1.380 . S
C485 H506 0.929 . S
C486 C485 1.380 . S
C486 C487 1.399 . S
C487 C486 1.399 . S
C487 C488 1.376 . S
C487 H507 0.931 . S
C488 N483 1.338 . S
C488 C487 1.376 . S
C488 H499 0.930 . S
C489 O496 1.239 . S
C489 O497 1.230 . S
O490 Cd454 2.268 . S
O490 C464 1.238 . S
O491 Cd455 2.273 1_565 S
O491 C464 1.253 . S
O492 Cd455 2.268 . S
O492 C481 1.238 . S
O493 Cd454 2.273 1_545 S
O493 C481 1.253 . S
O494 Cd454 2.417 . S
O494 C482 1.239 . S
O495 Cd454 2.330 . S
O495 C482 1.230 . S
O496 Cd455 2.417 . S
O496 C489 1.239 . S
O497 Cd455 2.330 . S
O497 C489 1.230 . S
H498 C484 0.929 . S
H499 C488 0.930 . S
H500 C458 0.931 . S
H501 C460 0.930 . S
H502 C466 0.929 . S
H503 C468 0.931 . S
H504 C475 0.931 . S
H505 C477 0.930 . S
H506 C485 0.929 . S
H507 C487 0.931 . S
C508 C509 1.387 . S
C508 H512 0.950 . S
C508 C517 1.390 . S
C509 C508 1.387 . S
C509 C511 1.387 . S
H510 C517 0.950 . S
C511 C509 1.387 . S
C511 C513 1.390 . S
C511 H515 0.950 . S
H512 C508 0.950 . S
C513 C511 1.390 . S
C513 C514 1.387 . S
C513 H516 0.950 . S
C514 C513 1.387 . S
C514 C517 1.387 . S
H515 C511 0.950 . S
H516 C513 0.950 . S
C517 C508 1.390 . S
C517 H510 0.950 . S
C517 C514 1.387 . S
C518 C519 1.387 . S
C518 H522 0.950 . S
C518 C527 1.390 . S
C519 C518 1.387 . S
C519 C521 1.387 . S
H520 C527 0.950 . S
C521 C519 1.387 . S
C521 C523 1.390 . S
C521 H525 0.950 . S
H522 C518 0.950 . S
C523 C521 1.390 . S
C523 C524 1.387 . S
C523 H526 0.950 . S
C524 C523 1.387 . S
C524 C527 1.387 . S
H525 C521 0.950 . S
H526 C523 0.950 . S
C527 C518 1.390 . S
C527 H520 0.950 . S
C527 C524 1.387 . S
C528 C529 1.387 . S
C528 H532 0.950 . S
C528 C537 1.390 . S
C529 C528 1.387 . S
C529 C531 1.387 . S
H530 C537 0.950 . S
C531 C529 1.387 . S
C531 C533 1.390 . S
C531 H535 0.950 . S
H532 C528 0.950 . S
C533 C531 1.390 . S
C533 C534 1.387 . S
C533 H536 0.950 . S
C534 C533 1.387 . S
C534 C537 1.387 . S
H535 C531 0.950 . S
H536 C533 0.950 . S
C537 C528 1.390 . S
C537 H530 0.950 . S
C537 C534 1.387 . S
C538 C539 1.387 . S
C538 H542 0.950 . S
C538 C547 1.390 . S
C539 C538 1.387 . S
C539 C541 1.387 . S
H540 C547 0.950 . S
C541 C539 1.387 . S
C541 C543 1.390 . S
C541 H545 0.950 . S
H542 C538 0.950 . S
C543 C541 1.390 . S
C543 C544 1.387 . S
C543 H546 0.950 . S
C544 C543 1.387 . S
C544 C547 1.387 . S
H545 C541 0.950 . S
H546 C543 0.950 . S
C547 C538 1.390 . S
C547 H540 0.950 . S
C547 C544 1.387 . S
C548 C549 1.387 . S
C548 H552 0.950 . S
C548 C557 1.390 . S
C549 C548 1.387 . S
C549 C551 1.387 . S
H550 C557 0.950 . S
C551 C549 1.387 . S
C551 C553 1.390 . S
C551 H555 0.950 . S
H552 C548 0.950 . S
C553 C551 1.390 . S
C553 C554 1.387 . S
C553 H556 0.950 . S
C554 C553 1.387 . S
C554 C557 1.387 . S
H555 C551 0.950 . S
H556 C553 0.950 . S
C557 C548 1.390 . S
C557 H550 0.950 . S
C557 C554 1.387 . S
C558 C559 1.387 . S
C558 H562 0.950 . S
C558 C567 1.390 . S
C559 C558 1.387 . S
C559 C561 1.387 . S
H560 C567 0.950 . S
C561 C559 1.387 . S
C561 C563 1.390 . S
C561 H565 0.950 . S
H562 C558 0.950 . S
C563 C561 1.390 . S
C563 C564 1.387 . S
C563 H566 0.950 . S
C564 C563 1.387 . S
C564 C567 1.387 . S
H565 C561 0.950 . S
H566 C563 0.950 . S
C567 C558 1.390 . S
C567 H560 0.950 . S
C567 C564 1.387 . S
C568 C569 1.387 . S
C568 H572 0.950 . S
C568 C577 1.390 . S
C569 C568 1.387 . S
C569 C571 1.387 . S
H570 C577 0.950 . S
C571 C569 1.387 . S
C571 C573 1.390 . S
C571 H575 0.950 . S
H572 C568 0.950 . S
C573 C571 1.390 . S
C573 C574 1.387 . S
C573 H576 0.950 . S
C574 C573 1.387 . S
C574 C577 1.387 . S
H575 C571 0.950 . S
H576 C573 0.950 . S
C577 C568 1.390 . S
C577 H570 0.950 . S
C577 C574 1.387 . S
C578 C579 1.387 . S
C578 H582 0.950 . S
C578 C587 1.390 . S
C579 C578 1.387 . S
C579 C581 1.387 . S
H580 C587 0.950 . S
C581 C579 1.387 . S
C581 C583 1.390 . S
C581 H585 0.950 . S
H582 C578 0.950 . S
C583 C581 1.390 . S
C583 C584 1.387 . S
C583 H586 0.950 . S
C584 C583 1.387 . S
C584 C587 1.387 . S
H585 C581 0.950 . S
H586 C583 0.950 . S
C587 C578 1.390 . S
C587 H580 0.950 . S
C587 C584 1.387 . S
C588 C589 1.387 . S
C588 H592 0.950 . S
C588 C597 1.390 . S
C589 C588 1.387 . S
C589 C591 1.387 . S
H590 C597 0.950 . S
C591 C589 1.387 . S
C591 C593 1.390 . S
C591 H595 0.950 . S
H592 C588 0.950 . S
C593 C591 1.390 . S
C593 C594 1.387 . S
C593 H596 0.950 . S
C594 C593 1.387 . S
C594 C597 1.387 . S
H595 C591 0.950 . S
H596 C593 0.950 . S
C597 C588 1.390 . S
C597 H590 0.950 . S
C597 C594 1.387 . S
C598 C599 1.387 . S
C598 H602 0.950 . S
C598 C607 1.390 . S
C599 C598 1.387 . S
C599 C601 1.387 . S
H600 C607 0.950 . S
C601 C599 1.387 . S
C601 C603 1.390 . S
C601 H605 0.950 . S
H602 C598 0.950 . S
C603 C601 1.390 . S
C603 C604 1.387 . S
C603 H606 0.950 . S
C604 C603 1.387 . S
C604 C607 1.387 . S
H605 C601 0.950 . S
H606 C603 0.950 . S
C607 C598 1.390 . S
C607 H600 0.950 . S
C607 C604 1.387 . S
C608 C609 1.387 . S
C608 H612 0.950 . S
C608 C617 1.390 . S
C609 C608 1.387 . S
C609 C611 1.387 . S
H610 C617 0.950 . S
C611 C609 1.387 . S
C611 C613 1.390 . S
C611 H615 0.950 . S
H612 C608 0.950 . S
C613 C611 1.390 . S
C613 C614 1.387 . S
C613 H616 0.950 . S
C614 C613 1.387 . S
C614 C617 1.387 . S
H615 C611 0.950 . S
H616 C613 0.950 . S
C617 C608 1.390 . S
C617 H610 0.950 . S
C617 C614 1.387 . S
C618 C619 1.387 . S
C618 H622 0.950 . S
C618 C627 1.390 . S
C619 C618 1.387 . S
C619 C621 1.387 . S
H620 C627 0.950 . S
C621 C619 1.387 . S
C621 C623 1.390 . S
C621 H625 0.950 . S
H622 C618 0.950 . S
C623 C621 1.390 . S
C623 C624 1.387 . S
C623 H626 0.950 . S
C624 C623 1.387 . S
C624 C627 1.387 . S
H625 C621 0.950 . S
H626 C623 0.950 . S
C627 C618 1.390 . S
C627 H620 0.950 . S
C627 C624 1.387 . S
C628 C629 1.387 . S
C628 H632 0.950 . S
C628 C637 1.390 . S
C629 C628 1.387 . S
C629 C631 1.387 . S
H630 C637 0.950 . S
C631 C629 1.387 . S
C631 C633 1.390 . S
C631 H635 0.950 . S
H632 C628 0.950 . S
C633 C631 1.390 . S
C633 C634 1.387 . S
C633 H636 0.950 . S
C634 C633 1.387 . S
C634 C637 1.387 . S
H635 C631 0.950 . S
H636 C633 0.950 . S
C637 C628 1.390 . S
C637 H630 0.950 . S
C637 C634 1.387 . S
C638 C639 1.387 . S
C638 H642 0.950 . S
C638 C647 1.390 . S
C639 C638 1.387 . S
C639 C641 1.387 . S
H640 C647 0.950 . S
C641 C639 1.387 . S
C641 C643 1.390 . S
C641 H645 0.950 . S
H642 C638 0.950 . S
C643 C641 1.390 . S
C643 C644 1.387 . S
C643 H646 0.950 . S
C644 C643 1.387 . S
C644 C647 1.387 . S
H645 C641 0.950 . S
H646 C643 0.950 . S
C647 C638 1.390 . S
C647 H640 0.950 . S
C647 C644 1.387 . S
C648 C649 1.387 . S
C648 H652 0.950 . S
C648 C657 1.390 . S
C649 C648 1.387 . S
C649 C651 1.387 . S
H650 C657 0.950 . S
C651 C649 1.387 . S
C651 C653 1.390 . S
C651 H655 0.950 . S
H652 C648 0.950 . S
C653 C651 1.390 . S
C653 C654 1.387 . S
C653 H656 0.950 . S
C654 C653 1.387 . S
C654 C657 1.387 . S
H655 C651 0.950 . S
H656 C653 0.950 . S
C657 C648 1.390 . S
C657 H650 0.950 . S
C657 C654 1.387 . S
C658 C659 1.387 . S
C658 H662 0.950 . S
C658 C667 1.390 . S
C659 C658 1.387 . S
C659 C661 1.387 . S
H660 C667 0.950 . S
C661 C659 1.387 . S
C661 C663 1.390 . S
C661 H665 0.950 . S
H662 C658 0.950 . S
C663 C661 1.390 . S
C663 C664 1.387 . S
C663 H666 0.950 . S
C664 C663 1.387 . S
C664 C667 1.387 . S
H665 C661 0.950 . S
H666 C663 0.950 . S
C667 C658 1.390 . S
C667 H660 0.950 . S
C667 C664 1.387 . S
C668 C669 1.387 . S
C668 H672 0.950 . S
C668 C677 1.390 . S
C669 C668 1.387 . S
C669 C671 1.387 . S
H670 C677 0.950 . S
C671 C669 1.387 . S
C671 C673 1.390 . S
C671 H675 0.950 . S
H672 C668 0.950 . S
C673 C671 1.390 . S
C673 C674 1.387 . S
C673 H676 0.950 . S
C674 C673 1.387 . S
C674 C677 1.387 . S
H675 C671 0.950 . S
H676 C673 0.950 . S
C677 C668 1.390 . S
C677 H670 0.950 . S
C677 C674 1.387 . S
C678 C679 1.387 . S
C678 H682 0.950 . S
C678 C687 1.390 . S
C679 C678 1.387 . S
C679 C681 1.387 . S
H680 C687 0.950 . S
C681 C679 1.387 . S
C681 C683 1.390 . S
C681 H685 0.950 . S
H682 C678 0.950 . S
C683 C681 1.390 . S
C683 C684 1.387 . S
C683 H686 0.950 . S
C684 C683 1.387 . S
C684 C687 1.387 . S
H685 C681 0.950 . S
H686 C683 0.950 . S
C687 C678 1.390 . S
C687 H680 0.950 . S
C687 C684 1.387 . S
C688 C689 1.387 . S
C688 H692 0.950 . S
C688 C697 1.390 . S
C689 C688 1.387 . S
C689 C691 1.387 . S
H690 C697 0.950 . S
C691 C689 1.387 . S
C691 C693 1.390 . S
C691 H695 0.950 . S
H692 C688 0.950 . S
C693 C691 1.390 . S
C693 C694 1.387 . S
C693 H696 0.950 . S
C694 C693 1.387 . S
C694 C697 1.387 . S
H695 C691 0.950 . S
H696 C693 0.950 . S
C697 C688 1.390 . S
C697 H690 0.950 . S
C697 C694 1.387 . S
C698 C699 1.387 . S
C698 H702 0.950 . S
C698 C707 1.390 . S
C699 C698 1.387 . S
C699 C701 1.387 . S
H700 C707 0.950 . S
C701 C699 1.387 . S
C701 C703 1.390 . S
C701 H705 0.950 . S
H702 C698 0.950 . S
C703 C701 1.390 . S
C703 C704 1.387 . S
C703 H706 0.950 . S
C704 C703 1.387 . S
C704 C707 1.387 . S
H705 C701 0.950 . S
H706 C703 0.950 . S
C707 C698 1.390 . S
C707 H700 0.950 . S
C707 C704 1.387 . S
C708 C709 1.387 . S
C708 H712 0.950 . S
C708 C717 1.390 . S
C709 C708 1.387 . S
C709 C711 1.387 . S
H710 C717 0.950 . S
C711 C709 1.387 . S
C711 C713 1.390 . S
C711 H715 0.950 . S
H712 C708 0.950 . S
C713 C711 1.390 . S
C713 C714 1.387 . S
C713 H716 0.950 . S
C714 C713 1.387 . S
C714 C717 1.387 . S
H715 C711 0.950 . S
H716 C713 0.950 . S
C717 C708 1.390 . S
C717 H710 0.950 . S
C717 C714 1.387 . S
C718 C719 1.387 . S
C718 H722 0.950 . S
C718 C727 1.390 . S
C719 C718 1.387 . S
C719 C721 1.387 . S
H720 C727 0.950 . S
C721 C719 1.387 . S
C721 C723 1.390 . S
C721 H725 0.950 . S
H722 C718 0.950 . S
C723 C721 1.390 . S
C723 C724 1.387 . S
C723 H726 0.950 . S
C724 C723 1.387 . S
C724 C727 1.387 . S
H725 C721 0.950 . S
H726 C723 0.950 . S
C727 C718 1.390 . S
C727 H720 0.950 . S
C727 C724 1.387 . S
C728 C729 1.387 . S
C728 H732 0.950 . S
C728 C737 1.390 . S
C729 C728 1.387 . S
C729 C731 1.387 . S
H730 C737 0.950 . S
C731 C729 1.387 . S
C731 C733 1.390 . S
C731 H735 0.950 . S
H732 C728 0.950 . S
C733 C731 1.390 . S
C733 C734 1.387 . S
C733 H736 0.950 . S
C734 C733 1.387 . S
C734 C737 1.387 . S
H735 C731 0.950 . S
H736 C733 0.950 . S
C737 C728 1.390 . S
C737 H730 0.950 . S
C737 C734 1.387 . S
C738 C739 1.387 . S
C738 H742 0.950 . S
C738 C747 1.390 . S
C739 C738 1.387 . S
C739 C741 1.387 . S
H740 C747 0.950 . S
C741 C739 1.387 . S
C741 C743 1.390 . S
C741 H745 0.950 . S
H742 C738 0.950 . S
C743 C741 1.390 . S
C743 C744 1.387 . S
C743 H746 0.950 . S
C744 C743 1.387 . S
C744 C747 1.387 . S
H745 C741 0.950 . S
H746 C743 0.950 . S
C747 C738 1.390 . S
C747 H740 0.950 . S
C747 C744 1.387 . S
C748 C749 1.387 . S
C748 H752 0.950 . S
C748 C757 1.390 . S
C749 C748 1.387 . S
C749 C751 1.387 . S
H750 C757 0.950 . S
C751 C749 1.387 . S
C751 C753 1.390 . S
C751 H755 0.950 . S
H752 C748 0.950 . S
C753 C751 1.390 . S
C753 C754 1.387 . S
C753 H756 0.950 . S
C754 C753 1.387 . S
C754 C757 1.387 . S
H755 C751 0.950 . S
H756 C753 0.950 . S
C757 C748 1.390 . S
C757 H750 0.950 . S
C757 C754 1.387 . S
C758 C759 1.387 . S
C758 H762 0.950 . S
C758 C767 1.390 . S
C759 C758 1.387 . S
C759 C761 1.387 . S
H760 C767 0.950 . S
C761 C759 1.387 . S
C761 C763 1.390 . S
C761 H765 0.950 . S
H762 C758 0.950 . S
C763 C761 1.390 . S
C763 C764 1.387 . S
C763 H766 0.950 . S
C764 C763 1.387 . S
C764 C767 1.387 . S
H765 C761 0.950 . S
H766 C763 0.950 . S
C767 C758 1.390 . S
C767 H760 0.950 . S
C767 C764 1.387 . S
C768 C769 1.387 . S
C768 H772 0.950 . S
C768 C777 1.390 . S
C769 C768 1.387 . S
C769 C771 1.387 . S
H770 C777 0.950 . S
C771 C769 1.387 . S
C771 C773 1.390 . S
C771 H775 0.950 . S
H772 C768 0.950 . S
C773 C771 1.390 . S
C773 C774 1.387 . S
C773 H776 0.950 . S
C774 C773 1.387 . S
C774 C777 1.387 . S
H775 C771 0.950 . S
H776 C773 0.950 . S
C777 C768 1.390 . S
C777 H770 0.950 . S
C777 C774 1.387 . S
C778 C779 1.387 . S
C778 H782 0.950 . S
C778 C787 1.390 . S
C779 C778 1.387 . S
C779 C781 1.387 . S
H780 C787 0.950 . S
C781 C779 1.387 . S
C781 C783 1.390 . S
C781 H785 0.950 . S
H782 C778 0.950 . S
C783 C781 1.390 . S
C783 C784 1.387 . S
C783 H786 0.950 . S
C784 C783 1.387 . S
C784 C787 1.387 . S
H785 C781 0.950 . S
H786 C783 0.950 . S
C787 C778 1.390 . S
C787 H780 0.950 . S
C787 C784 1.387 . S
C788 C789 1.387 . S
C788 H792 0.950 . S
C788 C797 1.390 . S
C789 C788 1.387 . S
C789 C791 1.387 . S
H790 C797 0.950 . S
C791 C789 1.387 . S
C791 C793 1.390 . S
C791 H795 0.950 . S
H792 C788 0.950 . S
C793 C791 1.390 . S
C793 C794 1.387 . S
C793 H796 0.950 . S
C794 C793 1.387 . S
C794 C797 1.387 . S
H795 C791 0.950 . S
H796 C793 0.950 . S
C797 C788 1.390 . S
C797 H790 0.950 . S
C797 C794 1.387 . S
C798 C799 1.387 . S
C798 H802 0.950 . S
C798 C807 1.390 . S
C799 C798 1.387 . S
C799 C801 1.387 . S
H800 C807 0.950 . S
C801 C799 1.387 . S
C801 C803 1.390 . S
C801 H805 0.950 . S
H802 C798 0.950 . S
C803 C801 1.390 . S
C803 C804 1.387 . S
C803 H806 0.950 . S
C804 C803 1.387 . S
C804 C807 1.387 . S
H805 C801 0.950 . S
H806 C803 0.950 . S
C807 C798 1.390 . S
C807 H800 0.950 . S
C807 C804 1.387 . S
C808 C809 1.387 . S
C808 H812 0.950 . S
C808 C817 1.390 . S
C809 C808 1.387 . S
C809 C811 1.387 . S
H810 C817 0.950 . S
C811 C809 1.387 . S
C811 C813 1.390 . S
C811 H815 0.950 . S
H812 C808 0.950 . S
C813 C811 1.390 . S
C813 C814 1.387 . S
C813 H816 0.950 . S
C814 C813 1.387 . S
C814 C817 1.387 . S
H815 C811 0.950 . S
H816 C813 0.950 . S
C817 C808 1.390 . S
C817 H810 0.950 . S
C817 C814 1.387 . S
C818 C819 1.387 . S
C818 H822 0.950 . S
C818 C827 1.390 . S
C819 C818 1.387 . S
C819 C821 1.387 . S
H820 C827 0.950 . S
C821 C819 1.387 . S
C821 C823 1.390 . S
C821 H825 0.950 . S
H822 C818 0.950 . S
C823 C821 1.390 . S
C823 C824 1.387 . S
C823 H826 0.950 . S
C824 C823 1.387 . S
C824 C827 1.387 . S
H825 C821 0.950 . S
H826 C823 0.950 . S
C827 C818 1.390 . S
C827 H820 0.950 . S
C827 C824 1.387 . S
C828 C829 1.387 . S
C828 H832 0.950 . S
C828 C837 1.390 . S
C829 C828 1.387 . S
C829 C831 1.387 . S
H830 C837 0.950 . S
C831 C829 1.387 . S
C831 C833 1.390 . S
C831 H835 0.950 . S
H832 C828 0.950 . S
C833 C831 1.390 . S
C833 C834 1.387 . S
C833 H836 0.950 . S
C834 C833 1.387 . S
C834 C837 1.387 . S
H835 C831 0.950 . S
H836 C833 0.950 . S
C837 C828 1.390 . S
C837 H830 0.950 . S
C837 C834 1.387 . S
C838 C839 1.387 . S
C838 H842 0.950 . S
C838 C847 1.390 . S
C839 C838 1.387 . S
C839 C841 1.387 . S
H840 C847 0.950 . S
C841 C839 1.387 . S
C841 C843 1.390 . S
C841 H845 0.950 . S
H842 C838 0.950 . S
C843 C841 1.390 . S
C843 C844 1.387 . S
C843 H846 0.950 . S
C844 C843 1.387 . S
C844 C847 1.387 . S
H845 C841 0.950 . S
H846 C843 0.950 . S
C847 C838 1.390 . S
C847 H840 0.950 . S
C847 C844 1.387 . S
C848 C849 1.387 . S
C848 H852 0.950 . S
C848 C857 1.390 . S
C849 C848 1.387 . S
C849 C851 1.387 . S
H850 C857 0.950 . S
C851 C849 1.387 . S
C851 C853 1.390 . S
C851 H855 0.950 . S
H852 C848 0.950 . S
C853 C851 1.390 . S
C853 C854 1.387 . S
C853 H856 0.950 . S
C854 C853 1.387 . S
C854 C857 1.387 . S
H855 C851 0.950 . S
H856 C853 0.950 . S
C857 C848 1.390 . S
C857 H850 0.950 . S
C857 C854 1.387 . S
C858 C859 1.387 . S
C858 H862 0.950 . S
C858 C867 1.390 . S
C859 C858 1.387 . S
C859 C861 1.387 . S
H860 C867 0.950 . S
C861 C859 1.387 . S
C861 C863 1.390 . S
C861 H865 0.950 . S
H862 C858 0.950 . S
C863 C861 1.390 . S
C863 C864 1.387 . S
C863 H866 0.950 . S
C864 C863 1.387 . S
C864 C867 1.387 . S
H865 C861 0.950 . S
H866 C863 0.950 . S
C867 C858 1.390 . S
C867 H860 0.950 . S
C867 C864 1.387 . S
C868 C869 1.387 . S
C868 H872 0.950 . S
C868 C877 1.390 . S
C869 C868 1.387 . S
C869 C871 1.387 . S
H870 C877 0.950 . S
C871 C869 1.387 . S
C871 C873 1.390 . S
C871 H875 0.950 . S
H872 C868 0.950 . S
C873 C871 1.390 . S
C873 C874 1.387 . S
C873 H876 0.950 . S
C874 C873 1.387 . S
C874 C877 1.387 . S
H875 C871 0.950 . S
H876 C873 0.950 . S
C877 C868 1.390 . S
C877 H870 0.950 . S
C877 C874 1.387 . S
C878 C879 1.387 . S
C878 H882 0.950 . S
C878 C887 1.390 . S
C879 C878 1.387 . S
C879 C881 1.387 . S
H880 C887 0.950 . S
C881 C879 1.387 . S
C881 C883 1.390 . S
C881 H885 0.950 . S
H882 C878 0.950 . S
C883 C881 1.390 . S
C883 C884 1.387 . S
C883 H886 0.950 . S
C884 C883 1.387 . S
C884 C887 1.387 . S
H885 C881 0.950 . S
H886 C883 0.950 . S
C887 C878 1.390 . S
C887 H880 0.950 . S
C887 C884 1.387 . S
C888 C889 1.387 . S
C888 H892 0.950 . S
C888 C897 1.390 . S
C889 C888 1.387 . S
C889 C891 1.387 . S
H890 C897 0.950 . S
C891 C889 1.387 . S
C891 C893 1.390 . S
C891 H895 0.950 . S
H892 C888 0.950 . S
C893 C891 1.390 . S
C893 C894 1.387 . S
C893 H896 0.950 . S
C894 C893 1.387 . S
C894 C897 1.387 . S
H895 C891 0.950 . S
H896 C893 0.950 . S
C897 C888 1.390 . S
C897 H890 0.950 . S
C897 C894 1.387 . S
C898 C899 1.387 . S
C898 H902 0.950 . S
C898 C907 1.390 . S
C899 C898 1.387 . S
C899 C901 1.387 . S
H900 C907 0.950 . S
C901 C899 1.387 . S
C901 C903 1.390 . S
C901 H905 0.950 . S
H902 C898 0.950 . S
C903 C901 1.390 . S
C903 C904 1.387 . S
C903 H906 0.950 . S
C904 C903 1.387 . S
C904 C907 1.387 . S
H905 C901 0.950 . S
H906 C903 0.950 . S
C907 C898 1.390 . S
C907 H900 0.950 . S
C907 C904 1.387 . S
C908 C909 1.387 . S
C908 H912 0.950 . S
C908 C917 1.390 . S
C909 C908 1.387 . S
C909 C911 1.387 . S
H910 C917 0.950 . S
C911 C909 1.387 . S
C911 C913 1.390 . S
C911 H915 0.950 . S
H912 C908 0.950 . S
C913 C911 1.390 . S
C913 C914 1.387 . S
C913 H916 0.950 . S
C914 C913 1.387 . S
C914 C917 1.387 . S
H915 C911 0.950 . S
H916 C913 0.950 . S
C917 C908 1.390 . S
C917 H910 0.950 . S
C917 C914 1.387 . S
C918 C919 1.387 . S
C918 H922 0.950 . S
C918 C927 1.390 . S
C919 C918 1.387 . S
C919 C921 1.387 . S
H920 C927 0.950 . S
C921 C919 1.387 . S
C921 C923 1.390 . S
C921 H925 0.950 . S
H922 C918 0.950 . S
C923 C921 1.390 . S
C923 C924 1.387 . S
C923 H926 0.950 . S
C924 C923 1.387 . S
C924 C927 1.387 . S
H925 C921 0.950 . S
H926 C923 0.950 . S
C927 C918 1.390 . S
C927 H920 0.950 . S
C927 C924 1.387 . S
C928 C929 1.387 . S
C928 H932 0.950 . S
C928 C937 1.390 . S
C929 C928 1.387 . S
C929 C931 1.387 . S
H930 C937 0.950 . S
C931 C929 1.387 . S
C931 C933 1.390 . S
C931 H935 0.950 . S
H932 C928 0.950 . S
C933 C931 1.390 . S
C933 C934 1.387 . S
C933 H936 0.950 . S
C934 C933 1.387 . S
C934 C937 1.387 . S
H935 C931 0.950 . S
H936 C933 0.950 . S
C937 C928 1.390 . S
C937 H930 0.950 . S
C937 C934 1.387 . S
C938 C939 1.387 . S
C938 H942 0.950 . S
C938 C947 1.390 . S
C939 C938 1.387 . S
C939 C941 1.387 . S
H940 C947 0.950 . S
C941 C939 1.387 . S
C941 C943 1.390 . S
C941 H945 0.950 . S
H942 C938 0.950 . S
C943 C941 1.390 . S
C943 C944 1.387 . S
C943 H946 0.950 . S
C944 C943 1.387 . S
C944 C947 1.387 . S
H945 C941 0.950 . S
H946 C943 0.950 . S
C947 C938 1.390 . S
C947 H940 0.950 . S
C947 C944 1.387 . S
C948 C949 1.387 . S
C948 H952 0.950 . S
C948 C957 1.390 . S
C949 C948 1.387 . S
C949 C951 1.387 . S
H950 C957 0.950 . S
C951 C949 1.387 . S
C951 C953 1.390 . S
C951 H955 0.950 . S
H952 C948 0.950 . S
C953 C951 1.390 . S
C953 C954 1.387 . S
C953 H956 0.950 . S
C954 C953 1.387 . S
C954 C957 1.387 . S
H955 C951 0.950 . S
H956 C953 0.950 . S
C957 C948 1.390 . S
C957 H950 0.950 . S
C957 C954 1.387 . S
C958 C959 1.387 . S
C958 H962 0.950 . S
C958 C967 1.390 . S
C959 C958 1.387 . S
C959 C961 1.387 . S
H960 C967 0.950 . S
C961 C959 1.387 . S
C961 C963 1.390 . S
C961 H965 0.950 . S
H962 C958 0.950 . S
C963 C961 1.390 . S
C963 C964 1.387 . S
C963 H966 0.950 . S
C964 C963 1.387 . S
C964 C967 1.387 . S
H965 C961 0.950 . S
H966 C963 0.950 . S
C967 C958 1.390 . S
C967 H960 0.950 . S
C967 C964 1.387 . S
C968 C969 1.387 . S
C968 H972 0.950 . S
C968 C977 1.390 . S
C969 C968 1.387 . S
C969 C971 1.387 . S
H970 C977 0.950 . S
C971 C969 1.387 . S
C971 C973 1.390 . S
C971 H975 0.950 . S
H972 C968 0.950 . S
C973 C971 1.390 . S
C973 C974 1.387 . S
C973 H976 0.950 . S
C974 C973 1.387 . S
C974 C977 1.387 . S
H975 C971 0.950 . S
H976 C973 0.950 . S
C977 C968 1.390 . S
C977 H970 0.950 . S
C977 C974 1.387 . S
C978 C979 1.387 . S
C978 H982 0.950 . S
C978 C987 1.390 . S
C979 C978 1.387 . S
C979 C981 1.387 . S
H980 C987 0.950 . S
C981 C979 1.387 . S
C981 C983 1.390 . S
C981 H985 0.950 . S
H982 C978 0.950 . S
C983 C981 1.390 . S
C983 C984 1.387 . S
C983 H986 0.950 . S
C984 C983 1.387 . S
C984 C987 1.387 . S
H985 C981 0.950 . S
H986 C983 0.950 . S
C987 C978 1.390 . S
C987 H980 0.950 . S
C987 C984 1.387 . S
C514 C219 1.172 . S
C509 C17 1.167 . S
C524 C197 1.825 . S
C519 C44 1.793 . S
C534 C194 0.943 . S
C529 C63 0.948 . S
C539 C87 1.692 . S
C544 C206 1.540 . S
C549 C110 1.662 . S
C554 C189 1.514 . S
C564 C211 0.957 . S
C559 C131 0.961 . S
C569 C159 1.764 . S
C574 C216 1.800 . S
C579 C177 1.186 . S
C584 C212 1.195 . S
C594 C270 1.684 . S
C589 C20 1.581 . S
C599 C42 1.351 . S
C604 C320 1.342 . S
C614 C243 1.813 . S
C609 C66 1.650 . S
C624 C319 0.985 . S
C619 C86 0.970 . S
C629 C109 0.956 . S
C634 C248 0.973 . S
C644 C314 1.820 . S
C639 C136 1.688 . S
C649 C157 1.344 . S
C654 C273 1.332 . S
C659 C182 1.614 . S
C664 C305 1.693 . S
C669 C18 1.638 . S
C674 C297 1.580 . S
C679 C112 1.341 . S
C684 C327 1.547 . S
C694 C251 1.576 . S
C689 C134 1.605 . S
C704 C302 1.176 . S
C699 C154 1.135 . S
C709 C180 1.593 . S
C714 C260 1.566 . S
C719 C64 1.653 . S
C724 C324 1.590 . S
C734 C266 1.549 . S
C729 C89 1.347 . S
C739 C39 1.140 . S
C744 C265 1.182 . S
C749 C178 1.167 . S
C754 C381 1.172 . S
C759 C113 1.793 . S
C764 C359 1.825 . S
C774 C356 0.944 . S
C769 C132 0.949 . S
C784 C368 1.538 . S
C779 C156 1.692 . S
C789 C41 1.663 . S
C794 C351 1.517 . S
C804 C373 0.959 . S
C799 C62 0.963 . S
C809 C90 1.766 . S
C814 C378 1.800 . S
C819 C16 1.187 . S
C824 C374 1.195 . S
C829 C181 1.582 . S
C834 C432 1.684 . S
C844 C482 1.341 . S
C839 C111 1.351 . S
C849 C135 1.646 . S
C854 C405 1.813 . S
C859 C155 0.968 . S
C864 C481 0.984 . S
C874 C410 0.974 . S
C869 C40 0.956 . S
C879 C67 1.688 . S
C884 C476 1.820 . S
C894 C435 1.332 . S
C889 C88 1.344 . S
C904 C467 1.694 . S
C899 C21 1.615 . S
C914 C459 1.577 . S
C909 C179 1.638 . S
C919 C43 1.341 . S
C924 C489 1.547 . S
C929 C65 1.605 . S
C934 C413 1.576 . S
C944 C464 1.176 . S
C939 C85 1.135 . S
C949 C19 1.592 . S
C954 C422 1.567 . S
C959 C133 1.652 . S
C964 C486 1.592 . S
C974 C428 1.549 . S
C969 C158 1.347 . S
C984 C427 1.182 . S
C979 C108 1.141 . S
