# Generated by pormake.
# Topology iac, (4,6)-cn, num edge types: 1
# Building blocks:
#     Node 0, Type 0, BuildingBlock: UXUYUI_clean_sbu_0, # of connection points: 4
#     Node 1, Type 0, BuildingBlock: UXUYUI_clean_sbu_0, # of connection points: 4
#     Node 2, Type 0, BuildingBlock: UXUYUI_clean_sbu_0, # of connection points: 4
#     Node 3, Type 0, BuildingBlock: UXUYUI_clean_sbu_0, # of connection points: 4
#     Node 4, Type 0, BuildingBlock: UXUYUI_clean_sbu_0, # of connection points: 4
#     Node 5, Type 0, BuildingBlock: UXUYUI_clean_sbu_0, # of connection points: 4
#     Node 6, Type 0, BuildingBlock: UXUYUI_clean_sbu_0, # of connection points: 4
#     Node 7, Type 0, BuildingBlock: UXUYUI_clean_sbu_0, # of connection points: 4
#     Node 8, Type 0, BuildingBlock: UXUYUI_clean_sbu_0, # of connection points: 4
#     Node 9, Type 0, BuildingBlock: UXUYUI_clean_sbu_0, # of connection points: 4
#     Node 10, Type 0, BuildingBlock: UXUYUI_clean_sbu_0, # of connection points: 4
#     Node 11, Type 0, BuildingBlock: UXUYUI_clean_sbu_0, # of connection points: 4
#     Node 12, Type 0, BuildingBlock: UXUYUI_clean_sbu_0, # of connection points: 4
#     Node 13, Type 0, BuildingBlock: UXUYUI_clean_sbu_0, # of connection points: 4
#     Node 14, Type 0, BuildingBlock: UXUYUI_clean_sbu_0, # of connection points: 4
#     Node 15, Type 0, BuildingBlock: UXUYUI_clean_sbu_0, # of connection points: 4
#     Node 16, Type 0, BuildingBlock: UXUYUI_clean_sbu_0, # of connection points: 4
#     Node 17, Type 0, BuildingBlock: UXUYUI_clean_sbu_0, # of connection points: 4
#     Node 18, Type 0, BuildingBlock: UXUYUI_clean_sbu_0, # of connection points: 4
#     Node 19, Type 0, BuildingBlock: UXUYUI_clean_sbu_0, # of connection points: 4
#     Node 20, Type 0, BuildingBlock: UXUYUI_clean_sbu_0, # of connection points: 4
#     Node 21, Type 0, BuildingBlock: UXUYUI_clean_sbu_0, # of connection points: 4
#     Node 22, Type 0, BuildingBlock: UXUYUI_clean_sbu_0, # of connection points: 4
#     Node 23, Type 0, BuildingBlock: UXUYUI_clean_sbu_0, # of connection points: 4
#     Node 24, Type 1, BuildingBlock: CIFDUS_clean_sbu_1, # of connection points: 6
#     Node 25, Type 1, BuildingBlock: CIFDUS_clean_sbu_1, # of connection points: 6
#     Node 26, Type 1, BuildingBlock: CIFDUS_clean_sbu_1, # of connection points: 6
#     Node 27, Type 1, BuildingBlock: CIFDUS_clean_sbu_1, # of connection points: 6
#     Node 28, Type 1, BuildingBlock: CIFDUS_clean_sbu_1, # of connection points: 6
#     Node 29, Type 1, BuildingBlock: CIFDUS_clean_sbu_1, # of connection points: 6
#     Node 30, Type 1, BuildingBlock: CIFDUS_clean_sbu_1, # of connection points: 6
#     Node 31, Type 1, BuildingBlock: CIFDUS_clean_sbu_1, # of connection points: 6
#     Node 32, Type 1, BuildingBlock: CIFDUS_clean_sbu_1, # of connection points: 6
#     Node 33, Type 1, BuildingBlock: CIFDUS_clean_sbu_1, # of connection points: 6
#     Node 34, Type 1, BuildingBlock: CIFDUS_clean_sbu_1, # of connection points: 6
#     Node 35, Type 1, BuildingBlock: CIFDUS_clean_sbu_1, # of connection points: 6
#     Node 36, Type 1, BuildingBlock: CIFDUS_clean_sbu_1, # of connection points: 6
#     Node 37, Type 1, BuildingBlock: CIFDUS_clean_sbu_1, # of connection points: 6
#     Node 38, Type 1, BuildingBlock: CIFDUS_clean_sbu_1, # of connection points: 6
#     Node 39, Type 1, BuildingBlock: CIFDUS_clean_sbu_1, # of connection points: 6
#     Edge 40, Type (0, 1), BuildingBlock: EZIPEK_clean_linker_0, # of connection points: 2
#     Edge 41, Type (0, 1), BuildingBlock: EZIPEK_clean_linker_0, # of connection points: 2
#     Edge 42, Type (0, 1), BuildingBlock: EZIPEK_clean_linker_0, # of connection points: 2
#     Edge 43, Type (0, 1), BuildingBlock: EZIPEK_clean_linker_0, # of connection points: 2
#     Edge 44, Type (0, 1), BuildingBlock: EZIPEK_clean_linker_0, # of connection points: 2
#     Edge 45, Type (0, 1), BuildingBlock: EZIPEK_clean_linker_0, # of connection points: 2
#     Edge 46, Type (0, 1), BuildingBlock: EZIPEK_clean_linker_0, # of connection points: 2
#     Edge 47, Type (0, 1), BuildingBlock: EZIPEK_clean_linker_0, # of connection points: 2
#     Edge 48, Type (0, 1), BuildingBlock: EZIPEK_clean_linker_0, # of connection points: 2
#     Edge 49, Type (0, 1), BuildingBlock: EZIPEK_clean_linker_0, # of connection points: 2
#     Edge 50, Type (0, 1), BuildingBlock: EZIPEK_clean_linker_0, # of connection points: 2
#     Edge 51, Type (0, 1), BuildingBlock: EZIPEK_clean_linker_0, # of connection points: 2
#     Edge 52, Type (0, 1), BuildingBlock: EZIPEK_clean_linker_0, # of connection points: 2
#     Edge 53, Type (0, 1), BuildingBlock: EZIPEK_clean_linker_0, # of connection points: 2
#     Edge 54, Type (0, 1), BuildingBlock: EZIPEK_clean_linker_0, # of connection points: 2
#     Edge 55, Type (0, 1), BuildingBlock: EZIPEK_clean_linker_0, # of connection points: 2
#     Edge 56, Type (0, 1), BuildingBlock: EZIPEK_clean_linker_0, # of connection points: 2
#     Edge 57, Type (0, 1), BuildingBlock: EZIPEK_clean_linker_0, # of connection points: 2
#     Edge 58, Type (0, 1), BuildingBlock: EZIPEK_clean_linker_0, # of connection points: 2
#     Edge 59, Type (0, 1), BuildingBlock: EZIPEK_clean_linker_0, # of connection points: 2
#     Edge 60, Type (0, 1), BuildingBlock: EZIPEK_clean_linker_0, # of connection points: 2
#     Edge 61, Type (0, 1), BuildingBlock: EZIPEK_clean_linker_0, # of connection points: 2
#     Edge 62, Type (0, 1), BuildingBlock: EZIPEK_clean_linker_0, # of connection points: 2
#     Edge 63, Type (0, 1), BuildingBlock: EZIPEK_clean_linker_0, # of connection points: 2
#     Edge 64, Type (0, 1), BuildingBlock: EZIPEK_clean_linker_0, # of connection points: 2
#     Edge 65, Type (0, 1), BuildingBlock: EZIPEK_clean_linker_0, # of connection points: 2
#     Edge 66, Type (0, 1), BuildingBlock: EZIPEK_clean_linker_0, # of connection points: 2
#     Edge 67, Type (0, 1), BuildingBlock: EZIPEK_clean_linker_0, # of connection points: 2
#     Edge 68, Type (0, 1), BuildingBlock: EZIPEK_clean_linker_0, # of connection points: 2
#     Edge 69, Type (0, 1), BuildingBlock: EZIPEK_clean_linker_0, # of connection points: 2
#     Edge 70, Type (0, 1), BuildingBlock: EZIPEK_clean_linker_0, # of connection points: 2
#     Edge 71, Type (0, 1), BuildingBlock: EZIPEK_clean_linker_0, # of connection points: 2
#     Edge 72, Type (0, 1), BuildingBlock: EZIPEK_clean_linker_0, # of connection points: 2
#     Edge 73, Type (0, 1), BuildingBlock: EZIPEK_clean_linker_0, # of connection points: 2
#     Edge 74, Type (0, 1), BuildingBlock: EZIPEK_clean_linker_0, # of connection points: 2
#     Edge 75, Type (0, 1), BuildingBlock: EZIPEK_clean_linker_0, # of connection points: 2
#     Edge 76, Type (0, 1), BuildingBlock: EZIPEK_clean_linker_0, # of connection points: 2
#     Edge 77, Type (0, 1), BuildingBlock: EZIPEK_clean_linker_0, # of connection points: 2
#     Edge 78, Type (0, 1), BuildingBlock: EZIPEK_clean_linker_0, # of connection points: 2
#     Edge 79, Type (0, 1), BuildingBlock: EZIPEK_clean_linker_0, # of connection points: 2
#     Edge 80, Type (0, 1), BuildingBlock: EZIPEK_clean_linker_0, # of connection points: 2
#     Edge 81, Type (0, 1), BuildingBlock: EZIPEK_clean_linker_0, # of connection points: 2
#     Edge 82, Type (0, 1), BuildingBlock: EZIPEK_clean_linker_0, # of connection points: 2
#     Edge 83, Type (0, 1), BuildingBlock: EZIPEK_clean_linker_0, # of connection points: 2
#     Edge 84, Type (0, 1), BuildingBlock: EZIPEK_clean_linker_0, # of connection points: 2
#     Edge 85, Type (0, 1), BuildingBlock: EZIPEK_clean_linker_0, # of connection points: 2
#     Edge 86, Type (0, 1), BuildingBlock: EZIPEK_clean_linker_0, # of connection points: 2
#     Edge 87, Type (0, 1), BuildingBlock: EZIPEK_clean_linker_0, # of connection points: 2
#     Edge 88, Type (0, 1), BuildingBlock: EZIPEK_clean_linker_0, # of connection points: 2
#     Edge 89, Type (0, 1), BuildingBlock: EZIPEK_clean_linker_0, # of connection points: 2
#     Edge 90, Type (0, 1), BuildingBlock: EZIPEK_clean_linker_0, # of connection points: 2
#     Edge 91, Type (0, 1), BuildingBlock: EZIPEK_clean_linker_0, # of connection points: 2
#     Edge 92, Type (0, 1), BuildingBlock: EZIPEK_clean_linker_0, # of connection points: 2
#     Edge 93, Type (0, 1), BuildingBlock: EZIPEK_clean_linker_0, # of connection points: 2
#     Edge 94, Type (0, 1), BuildingBlock: EZIPEK_clean_linker_0, # of connection points: 2
#     Edge 95, Type (0, 1), BuildingBlock: EZIPEK_clean_linker_0, # of connection points: 2
#     Edge 96, Type (0, 1), BuildingBlock: EZIPEK_clean_linker_0, # of connection points: 2
#     Edge 97, Type (0, 1), BuildingBlock: EZIPEK_clean_linker_0, # of connection points: 2
#     Edge 98, Type (0, 1), BuildingBlock: EZIPEK_clean_linker_0, # of connection points: 2
#     Edge 99, Type (0, 1), BuildingBlock: EZIPEK_clean_linker_0, # of connection points: 2
#     Edge 100, Type (0, 1), BuildingBlock: EZIPEK_clean_linker_0, # of connection points: 2
#     Edge 101, Type (0, 1), BuildingBlock: EZIPEK_clean_linker_0, # of connection points: 2
#     Edge 102, Type (0, 1), BuildingBlock: EZIPEK_clean_linker_0, # of connection points: 2
#     Edge 103, Type (0, 1), BuildingBlock: EZIPEK_clean_linker_0, # of connection points: 2
#     Edge 104, Type (0, 1), BuildingBlock: EZIPEK_clean_linker_0, # of connection points: 2
#     Edge 105, Type (0, 1), BuildingBlock: EZIPEK_clean_linker_0, # of connection points: 2
#     Edge 106, Type (0, 1), BuildingBlock: EZIPEK_clean_linker_0, # of connection points: 2
#     Edge 107, Type (0, 1), BuildingBlock: EZIPEK_clean_linker_0, # of connection points: 2
#     Edge 108, Type (0, 1), BuildingBlock: EZIPEK_clean_linker_0, # of connection points: 2
#     Edge 109, Type (0, 1), BuildingBlock: EZIPEK_clean_linker_0, # of connection points: 2
#     Edge 110, Type (0, 1), BuildingBlock: EZIPEK_clean_linker_0, # of connection points: 2
#     Edge 111, Type (0, 1), BuildingBlock: EZIPEK_clean_linker_0, # of connection points: 2
#     Edge 112, Type (0, 1), BuildingBlock: EZIPEK_clean_linker_0, # of connection points: 2
#     Edge 113, Type (0, 1), BuildingBlock: EZIPEK_clean_linker_0, # of connection points: 2
#     Edge 114, Type (0, 1), BuildingBlock: EZIPEK_clean_linker_0, # of connection points: 2
#     Edge 115, Type (0, 1), BuildingBlock: EZIPEK_clean_linker_0, # of connection points: 2
#     Edge 116, Type (0, 1), BuildingBlock: EZIPEK_clean_linker_0, # of connection points: 2
#     Edge 117, Type (0, 1), BuildingBlock: EZIPEK_clean_linker_0, # of connection points: 2
#     Edge 118, Type (0, 1), BuildingBlock: EZIPEK_clean_linker_0, # of connection points: 2
#     Edge 119, Type (0, 1), BuildingBlock: EZIPEK_clean_linker_0, # of connection points: 2
#     Edge 120, Type (0, 1), BuildingBlock: EZIPEK_clean_linker_0, # of connection points: 2
#     Edge 121, Type (0, 1), BuildingBlock: EZIPEK_clean_linker_0, # of connection points: 2
#     Edge 122, Type (0, 1), BuildingBlock: EZIPEK_clean_linker_0, # of connection points: 2
#     Edge 123, Type (0, 1), BuildingBlock: EZIPEK_clean_linker_0, # of connection points: 2
#     Edge 124, Type (0, 1), BuildingBlock: EZIPEK_clean_linker_0, # of connection points: 2
#     Edge 125, Type (0, 1), BuildingBlock: EZIPEK_clean_linker_0, # of connection points: 2
#     Edge 126, Type (0, 1), BuildingBlock: EZIPEK_clean_linker_0, # of connection points: 2
#     Edge 127, Type (0, 1), BuildingBlock: EZIPEK_clean_linker_0, # of connection points: 2
#     Edge 128, Type (0, 1), BuildingBlock: EZIPEK_clean_linker_0, # of connection points: 2
#     Edge 129, Type (0, 1), BuildingBlock: EZIPEK_clean_linker_0, # of connection points: 2
#     Edge 130, Type (0, 1), BuildingBlock: EZIPEK_clean_linker_0, # of connection points: 2
#     Edge 131, Type (0, 1), BuildingBlock: EZIPEK_clean_linker_0, # of connection points: 2
#     Edge 132, Type (0, 1), BuildingBlock: EZIPEK_clean_linker_0, # of connection points: 2
#     Edge 133, Type (0, 1), BuildingBlock: EZIPEK_clean_linker_0, # of connection points: 2
#     Edge 134, Type (0, 1), BuildingBlock: EZIPEK_clean_linker_0, # of connection points: 2
#     Edge 135, Type (0, 1), BuildingBlock: EZIPEK_clean_linker_0, # of connection points: 2
# Relax obj value: 0.129
# Max RMSD: 0.165
# Mean RMSD: 0.153
data_MOF--net-iac--node1-UXUYUI_clean_sbu_0--node2-CIFDUS_clean_sbu_1--edge1-EZIPEK_clean_linker_0
_symmetry_space_group_name_H-M    P1
_symmetry_Int_Tables_number       1
_symmetry_cell_setting            triclinic
loop_
_symmetry_equiv_pos_as_xyz
'x, y, z'
_cell_length_a     52.752183
_cell_length_b     52.604875
_cell_length_c     52.680141
_cell_angle_alpha  89.707447
_cell_angle_beta   89.800993
_cell_angle_gamma 89.824767
loop_
_atom_site_label
_atom_site_type_symbol
_atom_site_fract_x
_atom_site_fract_y
_atom_site_fract_z
_atom_type_partial_charge
Li0 Li 0.00112 0.27747 0.10575 0.0
Li1 Li 0.02412 0.25413 0.14151 0.0
Li2 Li 0.00165 0.22974 0.10607 0.0
Li3 Li 0.97646 0.25368 0.13962 0.0
C4 C 0.04957 0.25543 0.08644 0.0
N5 N 0.08792 0.25766 0.05072 0.0
C6 C 0.07413 0.26201 0.09371 0.0
C7 C 0.04444 0.25001 0.06104 0.0
C8 C 0.09327 0.26304 0.07535 0.0
C9 C 0.06413 0.25124 0.04325 0.0
C10 C -0.00035 0.30259 0.15993 0.0
C11 C 0.99308 0.31842 0.20232 0.0
N12 N 7e-05 0.34203 0.19434 0.0
C13 C 0.00676 0.327 0.15214 0.0
C14 C 0.99273 0.29821 0.1852 0.0
C15 C 0.00685 0.34669 0.16982 0.0
C16 C 0.97671 0.3177 0.08013 0.0
N17 N -8e-05 0.30772 0.08554 0.0
C18 C 0.02036 0.3427 0.06488 0.0
C19 C 0.02159 0.31966 0.07821 0.0
C20 C 0.99663 0.35337 0.05906 0.0
C21 C 0.97461 0.34051 0.06655 0.0
H22 H 0.95979 0.30808 0.08662 0.0
H23 H 0.0398 0.31153 0.08309 0.0
C24 C 0.06929 0.23314 0.16257 0.0
N25 N 0.05341 0.25361 0.16318 0.0
C26 C 0.09195 0.23322 0.17644 0.0
C27 C 0.08077 0.2748 0.19228 0.0
C28 C 0.05862 0.27408 0.1779 0.0
C29 C 0.09803 0.25449 0.19117 0.0
H30 H 0.06475 0.21711 0.15065 0.0
H31 H 0.04607 0.29027 0.17793 0.0
C32 C 0.95285 0.25214 0.0853 0.0
N33 N 0.91299 0.25062 0.05148 0.0
C34 C 0.92873 0.24484 0.09357 0.0
C35 C 0.95675 0.25858 0.05981 0.0
C36 C 0.90881 0.24422 0.07619 0.0
C37 C 0.93633 0.25769 0.04301 0.0
C38 C -0.00148 0.20517 0.1605 0.0
C39 C 0.98987 0.18148 0.15242 0.0
C40 C 0.00568 0.20852 0.18576 0.0
C41 C 0.98869 0.16138 0.1698 0.0
C42 C 0.00418 0.18795 0.20257 0.0
N43 N 0.99582 0.165 0.19431 0.0
C44 C 0.02301 0.18263 0.0921 0.0
C45 C 0.98558 0.19278 0.06939 0.0
C46 C 0.02408 0.15859 0.08084 0.0
N47 N 0.0037 0.19896 0.0866 0.0
C48 C 0.98606 0.16905 0.05752 0.0
C49 C 0.00523 0.15151 0.06358 0.0
H50 H 0.03707 0.18796 0.10598 0.0
H51 H 0.97029 0.20587 0.06543 0.0
C52 C 0.93359 0.27805 0.16014 0.0
N53 N 0.94569 0.2552 0.15872 0.0
C54 C 0.91011 0.28007 0.17241 0.0
C55 C 0.91203 0.23501 0.18154 0.0
C56 C 0.93549 0.23386 0.16918 0.0
C57 C 0.89907 0.25828 0.18307 0.0
H58 H 0.94203 0.29465 0.15139 0.0
H59 H 0.9453 0.21589 0.1675 0.0
O60 O 0.03084 0.25366 0.10431 0.0
O61 O -0.00045 0.28311 0.14285 0.0
O62 O 0.97239 0.2535 0.10223 0.0
O63 O 0.00074 0.22476 0.14353 0.0
H64 H 0.07837 0.26618 0.11334 0.0
H65 H 0.02552 0.24477 0.0552 0.0
H66 H 0.11239 0.26806 0.0807 0.0
H67 H 0.0605 0.24702 0.02352 0.0
H68 H 0.98782 0.31534 0.22196 0.0
H69 H 0.01223 0.33069 0.13267 0.0
H70 H 0.98726 0.27939 0.19152 0.0
H71 H 0.01232 0.36567 0.16406 0.0
H72 H 0.03771 0.35216 0.05922 0.0
H73 H 0.95605 0.34821 0.0622 0.0
H74 H 0.10496 0.21733 0.17498 0.0
H75 H 0.08503 0.29162 0.20325 0.0
H76 H 0.92537 0.23976 0.1132 0.0
H77 H 0.97532 0.26428 0.05314 0.0
H78 H 0.89003 0.23868 0.08235 0.0
H79 H 0.93903 0.26268 0.02324 0.0
H80 H 0.98418 0.17861 0.13293 0.0
H81 H 0.01247 0.22677 0.19224 0.0
H82 H 0.98214 0.1429 0.1638 0.0
H83 H 0.00974 0.1902 0.22217 0.0
H84 H 0.03899 0.14539 0.08607 0.0
H85 H 0.9711 0.16404 0.04444 0.0
H86 H 0.90053 0.29828 0.17333 0.0
H87 H 0.90393 0.21788 0.18964 0.0
Li88 Li 0.98024 0.75045 0.3585 0.0
Li89 Li 0.00414 0.77402 0.39126 0.0
Li90 Li 0.0264 0.74923 0.35649 0.0
Li91 Li 0.00487 0.72771 0.3927 0.0
C92 C 0.00246 0.79795 0.33625 0.0
N93 N 0.00041 0.83624 0.30022 0.0
C94 C 0.00127 0.82339 0.34373 0.0
C95 C 0.00259 0.79196 0.31044 0.0
C96 C 0.00017 0.84247 0.32524 0.0
C97 C 0.00162 0.81161 0.29251 0.0
C98 C 0.95677 0.75357 0.4133 0.0
C99 C 0.94301 0.75444 0.45699 0.0
N100 N 0.91863 0.7575 0.44918 0.0
C101 C 0.93157 0.75674 0.40572 0.0
C102 C 0.96258 0.75249 0.43915 0.0
C103 C 0.91258 0.75873 0.42413 0.0
C104 C 0.93798 0.73058 0.33327 0.0
N105 N 0.95045 0.75202 0.3401 0.0
C106 C 0.91734 0.77838 0.32419 0.0
C107 C 0.94072 0.77559 0.33591 0.0
C108 C 0.90405 0.75664 0.31702 0.0
C109 C 0.91444 0.73248 0.32149 0.0
H110 H 0.94607 0.71213 0.33748 0.0
H111 H 0.95077 0.79219 0.34238 0.0
C112 C 0.02217 0.81437 0.42186 0.0
N113 N 0.00186 0.8037 0.41031 0.0
C114 C 0.01937 0.83747 0.43446 0.0
C115 C 0.97493 0.83783 0.42297 0.0
C116 C 0.97856 0.81476 0.41072 0.0
C117 C 0.99554 0.84939 0.43485 0.0
H118 H 0.04053 0.80522 0.42082 0.0
H119 H 0.96297 0.80598 0.40085 0.0
C120 C 0.00389 0.70108 0.33869 0.0
N121 N 0.00589 0.66193 0.304 0.0
C122 C 0.00948 0.67634 0.34675 0.0
C123 C -0.00069 0.70595 0.31302 0.0
C124 C 0.01042 0.6568 0.32892 0.0
C125 C 0.00041 0.68588 0.29577 0.0
C126 C 0.05271 0.74804 0.41118 0.0
C127 C 0.07746 0.7423 0.40354 0.0
C128 C 0.04715 0.75094 0.43695 0.0
C129 C 0.09633 0.73955 0.4219 0.0
C130 C 0.06655 0.748 0.45473 0.0
N131 N 0.09053 0.74244 0.4469 0.0
C132 C 0.06343 0.76955 0.32323 0.0
C133 C 0.06533 0.72492 0.32987 0.0
C134 C 0.08546 0.76877 0.3085 0.0
N135 N 0.05415 0.74786 0.33386 0.0
C136 C 0.08755 0.72331 0.31557 0.0
C137 C 0.09814 0.74554 0.3054 0.0
H138 H 0.05449 0.7876 0.32719 0.0
H139 H 0.05773 0.70807 0.33888 0.0
C140 C 0.98193 0.69204 0.42433 0.0
N141 N 0.00469 0.69963 0.41484 0.0
C142 C 0.98047 0.67094 0.44028 0.0
C143 C 0.02583 0.66533 0.43572 0.0
C144 C 0.0265 0.68698 0.42033 0.0
C145 C 0.00252 0.65703 0.44555 0.0
H146 H 0.96481 0.70197 0.41903 0.0
H147 H 0.04426 0.69329 0.41219 0.0
O148 O 0.00376 0.77912 0.35419 0.0
O149 O 0.97543 0.75062 0.39543 0.0
O150 O 0.00232 0.72023 0.35607 0.0
O151 O 0.03427 0.75153 0.39334 0.0
H152 H 0.00132 0.82842 0.3636 0.0
H153 H 0.00363 0.77237 0.30436 0.0
H154 H -0.00079 0.86222 0.33079 0.0
H155 H 0.00186 0.80729 0.27246 0.0
H156 H 0.94719 0.75343 0.47706 0.0
H157 H 0.92664 0.75744 0.38584 0.0
H158 H 0.98194 0.7498 0.44533 0.0
H159 H 0.893 0.76113 0.4185 0.0
H160 H 0.90954 0.7972 0.32104 0.0
H161 H 0.90433 0.71543 0.31618 0.0
H162 H 0.03563 0.84621 0.44336 0.0
H163 H 0.95642 0.84681 0.42283 0.0
H164 H 0.01293 0.67225 0.3666 0.0
H165 H 0.99479 0.72498 0.30654 0.0
H166 H 0.01468 0.63755 0.33489 0.0
H167 H 0.99685 0.68932 0.27583 0.0
H168 H 0.08208 0.74019 0.38362 0.0
H169 H 0.02812 0.75557 0.44312 0.0
H170 H 0.1156 0.73521 0.41626 0.0
H171 H 0.06257 0.75023 0.47476 0.0
H172 H 0.09361 0.78629 0.30134 0.0
H173 H 0.09724 0.70521 0.31382 0.0
H174 H 0.9622 0.66477 0.44744 0.0
H175 H 0.04313 0.65481 0.43938 0.0
Li176 Li 0.52321 0.75522 0.64404 0.0
Li177 Li 0.50074 0.77669 0.60733 0.0
Li178 Li 0.47593 0.7538 0.64197 0.0
Li179 Li 0.502 0.72917 0.60944 0.0
C180 C 0.49986 0.80321 0.66118 0.0
N181 N 0.50229 0.84269 0.69542 0.0
C182 C 0.50675 0.82755 0.65298 0.0
C183 C 0.49418 0.79891 0.68676 0.0
C184 C 0.50788 0.84726 0.67059 0.0
C185 C 0.49554 0.81915 0.70379 0.0
C186 C 0.54921 0.75538 0.58872 0.0
C187 C 0.56264 0.75195 0.54509 0.0
N188 N 0.58666 0.75808 0.55207 0.0
C189 C 0.574 0.76165 0.59548 0.0
C190 C 0.54342 0.75048 0.56336 0.0
C191 C 0.59268 0.76293 0.57666 0.0
C192 C 0.56307 0.73298 0.67124 0.0
N193 N 0.55171 0.75572 0.66638 0.0
C194 C 0.58312 0.77744 0.69069 0.0
C195 C 0.56106 0.77774 0.67598 0.0
C196 C 0.59554 0.75428 0.69537 0.0
C197 C 0.58506 0.73179 0.6859 0.0
H198 H 0.55547 0.71582 0.66304 0.0
H199 H 0.55198 0.79564 0.67152 0.0
C200 C 0.47576 0.81534 0.57986 0.0
N201 N 0.49911 0.80619 0.58609 0.0
C202 C 0.47333 0.83798 0.56604 0.0
C203 C 0.51901 0.84154 0.56553 0.0
C204 C 0.52059 0.81869 0.57914 0.0
C205 C 0.49514 0.85148 0.55908 0.0
H206 H 0.45898 0.80528 0.58603 0.0
H207 H 0.53889 0.81123 0.58466 0.0
C208 C 0.49847 0.70605 0.66439 0.0
N209 N 0.49646 0.66654 0.69906 0.0
C210 C 0.49154 0.6817 0.65657 0.0
C211 C 0.50423 0.71037 0.68987 0.0
C212 C 0.49062 0.66198 0.67438 0.0
C213 C 0.50318 0.6901 0.70709 0.0
C214 C 0.45373 0.74976 0.58683 0.0
C215 C 0.42891 0.74441 0.59449 0.0
C216 C 0.45919 0.75328 0.56108 0.0
C217 C 0.40987 0.7428 0.57621 0.0
C218 C 0.43961 0.75151 0.54338 0.0
N219 N 0.41556 0.74637 0.55125 0.0
C220 C 0.43191 0.77812 0.6591 0.0
C221 C 0.43543 0.73541 0.67335 0.0
C222 C 0.40808 0.78053 0.67057 0.0
N223 N 0.44492 0.75577 0.66053 0.0
C224 C 0.41171 0.73701 0.68518 0.0
C225 C 0.39774 0.75973 0.68367 0.0
H226 H 0.43986 0.79391 0.64855 0.0
H227 H 0.44599 0.71778 0.67396 0.0
C228 C 0.52556 0.68719 0.58292 0.0
N229 N 0.5034 0.69834 0.59009 0.0
C230 C 0.5255 0.66464 0.5687 0.0
C231 C 0.48008 0.66454 0.57142 0.0
C232 C 0.48094 0.68709 0.58514 0.0
C233 C 0.50234 0.65369 0.5607 0.0
H234 H 0.54336 0.69565 0.58847 0.0
H235 H 0.4636 0.69538 0.59239 0.0
O236 O 0.49832 0.78382 0.64411 0.0
O237 O 0.53092 0.75342 0.60705 0.0
O238 O 0.50042 0.72531 0.64698 0.0
O239 O 0.47238 0.75225 0.6046 0.0
H240 H 0.51115 0.83119 0.63322 0.0
H241 H 0.48876 0.78016 0.69334 0.0
H242 H 0.51316 0.8662 0.66451 0.0
H243 H 0.49118 0.81614 0.72366 0.0
H244 H 0.55848 0.74814 0.52538 0.0
H245 H 0.57877 0.76535 0.61509 0.0
H246 H 0.52434 0.74542 0.5579 0.0
H247 H 0.61197 0.7677 0.58161 0.0
H248 H 0.59108 0.79517 0.69728 0.0
H249 H 0.59454 0.71371 0.68872 0.0
H250 H 0.45467 0.84512 0.5612 0.0
H251 H 0.5362 0.8515 0.56026 0.0
H252 H 0.48703 0.67801 0.63696 0.0
H253 H 0.5097 0.72911 0.6962 0.0
H254 H 0.48535 0.64303 0.66855 0.0
H255 H 0.50777 0.69309 0.72685 0.0
H256 H 0.42435 0.74161 0.61433 0.0
H257 H 0.47828 0.75759 0.55488 0.0
H258 H 0.39056 0.73876 0.58189 0.0
H259 H 0.44351 0.75431 0.52339 0.0
H260 H 0.39766 0.79823 0.66897 0.0
H261 H 0.40412 0.72059 0.69506 0.0
H262 H 0.54371 0.65625 0.56515 0.0
H263 H 0.46169 0.6558 0.56946 0.0
Li264 Li 0.48003 0.24874 0.85907 0.0
Li265 Li 0.50357 0.2733 0.89132 0.0
Li266 Li 0.52637 0.24873 0.85723 0.0
Li267 Li 0.50508 0.22692 0.89378 0.0
C268 C 0.50301 0.29702 0.83618 0.0
N269 N 0.5046 0.33579 0.80053 0.0
C270 C 0.49763 0.32207 0.84322 0.0
C271 C 0.50929 0.29174 0.81094 0.0
C272 C 0.49843 0.34136 0.82495 0.0
C273 C 0.51003 0.3116 0.79322 0.0
C274 C 0.45778 0.25488 0.91484 0.0
C275 C 0.44436 0.25346 0.95865 0.0
N276 N 0.42118 0.26247 0.95174 0.0
C277 C 0.43394 0.26452 0.90826 0.0
C278 C 0.46317 0.24966 0.9403 0.0
C279 C 0.41567 0.26812 0.92715 0.0
C280 C 0.4309 0.23385 0.85144 0.0
N281 N 0.44986 0.24778 0.8409 0.0
C282 C 0.42217 0.26421 0.80917 0.0
C283 C 0.44618 0.26241 0.8199 0.0
C284 C 0.40199 0.25115 0.82058 0.0
C285 C 0.40647 0.2356 0.84177 0.0
H286 H 0.43458 0.22237 0.86813 0.0
H287 H 0.46162 0.27314 0.81187 0.0
C288 C 0.52224 0.31328 0.92191 0.0
N289 N 0.50178 0.30336 0.90994 0.0
C290 C 0.52025 0.33681 0.93386 0.0
C291 C 0.47643 0.33935 0.92047 0.0
C292 C 0.4791 0.31563 0.90934 0.0
C293 C 0.49718 0.35014 0.93284 0.0
H294 H 0.54013 0.30321 0.92171 0.0
H295 H 0.46344 0.30752 0.89905 0.0
C296 C 0.50298 0.20013 0.83968 0.0
N297 N 0.50268 0.16138 0.80452 0.0
C298 C 0.50773 0.17509 0.84734 0.0
C299 C 0.49804 0.20551 0.81417 0.0
C300 C 0.50752 0.15576 0.82927 0.0
C301 C 0.49797 0.18562 0.79668 0.0
C302 C 0.55261 0.24756 0.91165 0.0
C303 C 0.57724 0.24167 0.9037 0.0
C304 C 0.54735 0.25027 0.93751 0.0
C305 C 0.59629 0.23866 0.92183 0.0
C306 C 0.56693 0.24707 0.95505 0.0
N307 N 0.59078 0.24141 0.94691 0.0
C308 C 0.56539 0.27067 0.82877 0.0
C309 C 0.56352 0.22567 0.82626 0.0
C310 C 0.58703 0.27109 0.81357 0.0
N311 N 0.55429 0.24818 0.83491 0.0
C312 C 0.58535 0.22517 0.81127 0.0
C313 C 0.59754 0.24807 0.80534 0.0
H314 H 0.55793 0.28821 0.83643 0.0
H315 H 0.55462 0.20805 0.83188 0.0
C316 C 0.48185 0.19079 0.92451 0.0
N317 N 0.50489 0.19861 0.91595 0.0
C318 C 0.47992 0.16985 0.94066 0.0
C319 C 0.52543 0.16456 0.9379 0.0
C320 C 0.52656 0.18613 0.92236 0.0
C321 C 0.50184 0.15616 0.94701 0.0
H322 H 0.46487 0.20059 0.91846 0.0
H323 H 0.54458 0.19255 0.91494 0.0
O324 O 0.50276 0.27798 0.85405 0.0
O325 O 0.47519 0.24931 0.89631 0.0
O326 O 0.50314 0.21917 0.85721 0.0
O327 O 0.53402 0.25141 0.89405 0.0
H328 H 0.49299 0.32673 0.86256 0.0
H329 H 0.51356 0.27249 0.80511 0.0
H330 H 0.49424 0.36078 0.83022 0.0
H331 H 0.51492 0.30779 0.77365 0.0
H332 H 0.44815 0.24913 0.97837 0.0
H333 H 0.42955 0.26926 0.88878 0.0
H334 H 0.48154 0.24228 0.94578 0.0
H335 H 0.39709 0.27536 0.92225 0.0
H336 H 0.41921 0.27606 0.79256 0.0
H337 H 0.39121 0.2251 0.85072 0.0
H338 H 0.53659 0.34478 0.94331 0.0
H339 H 0.45846 0.3493 0.91931 0.0
H340 H 0.51158 0.17066 0.86705 0.0
H341 H 0.49432 0.22481 0.80799 0.0
H342 H 0.5112 0.1363 0.83492 0.0
H343 H 0.49418 0.18945 0.77685 0.0
H344 H 0.58162 0.23967 0.88371 0.0
H345 H 0.5284 0.25496 0.94392 0.0
H346 H 0.61546 0.23422 0.91594 0.0
H347 H 0.56318 0.24917 0.97513 0.0
H348 H 0.59648 0.28897 0.80975 0.0
H349 H 0.59347 0.2071 0.80564 0.0
H350 H 0.46144 0.1637 0.94724 0.0
H351 H 0.54267 0.15425 0.94239 0.0
Li352 Li 0.11448 0.00022 0.27901 0.0
Li353 Li 0.14811 0.02304 0.25241 0.0
Li354 Li 0.11275 -0.00185 0.23112 0.0
Li355 Li 0.14825 0.97556 0.25509 0.0
C356 C 0.09397 0.04793 0.25574 0.0
N357 N 0.06048 0.08824 0.25881 0.0
C358 C 0.1022 0.07148 0.26465 0.0
C359 C 0.06873 0.04481 0.24848 0.0
C360 C 0.08497 0.09164 0.26603 0.0
C361 C 0.05208 0.06545 0.25017 0.0
C362 C 0.16898 0.00023 0.30221 0.0
C363 C 0.21104 0.99187 0.31798 0.0
N364 N 0.20326 -0.00145 0.34169 0.0
C365 C 0.1614 0.00703 0.32671 0.0
C366 C 0.19399 0.9926 0.29774 0.0
C367 C 0.17901 0.00605 0.34642 0.0
C368 C 0.09423 0.97671 0.32254 0.0
N369 N 0.09532 -0.00065 0.30993 0.0
C370 C 0.07133 0.01953 0.34278 0.0
C371 C 0.08416 0.02059 0.31951 0.0
C372 C 0.07004 0.99645 0.35619 0.0
C373 C 0.08151 0.97478 0.34582 0.0
H374 H 0.10348 0.96018 0.31457 0.0
H375 H 0.0855 0.0384 0.3093 0.0
C376 C 0.16135 0.06957 0.22945 0.0
N377 N 0.16758 0.05356 0.24885 0.0
C378 C 0.17264 0.09355 0.22747 0.0
C379 C 0.19754 0.08355 0.26465 0.0
C380 C 0.18565 0.05985 0.26604 0.0
C381 C 0.19063 0.10088 0.2455 0.0
H382 H 0.14681 0.06409 0.21614 0.0
H383 H 0.19018 0.0469 0.28136 0.0
C384 C 0.09509 0.94986 0.25525 0.0
N385 N 0.06323 0.90839 0.25277 0.0
C386 C 0.10347 0.92729 0.24409 0.0
C387 C 0.0705 0.95138 0.26511 0.0
C388 C 0.0871 0.90649 0.24309 0.0
C389 C 0.05466 0.93022 0.26361 0.0
C390 C 0.1677 -0.00245 0.20543 0.0
C391 C 0.16102 0.98978 0.18103 0.0
C392 C 0.19246 0.00553 0.21025 0.0
C393 C 0.17926 0.99024 0.16174 0.0
C394 C 0.21014 0.00572 0.19044 0.0
N395 N 0.20323 -0.00184 0.1668 0.0
C396 C 0.09657 0.01537 0.18304 0.0
C397 C 0.07123 0.98212 0.19978 0.0
C398 C 0.08268 0.01542 0.16044 0.0
N399 N 0.09105 -0.00154 0.20189 0.0
C400 C 0.05666 0.98175 0.17768 0.0
C401 C 0.06277 -0.00193 0.15741 0.0
H402 H 0.11228 0.02834 0.18529 0.0
H403 H 0.06698 0.96901 0.21498 0.0
C404 C 0.16226 0.92964 0.27796 0.0
N405 N 0.16783 0.94501 0.25785 0.0
C406 C 0.17351 0.90562 0.28016 0.0
C407 C 0.19693 0.91416 0.24153 0.0
C408 C 0.18508 0.93796 0.23996 0.0
C409 C 0.19078 0.89758 0.26159 0.0
H410 H 0.14835 0.93571 0.29181 0.0
H411 H 0.18907 0.9504 0.22408 0.0
O412 O 0.11075 0.02825 0.25344 0.0
O413 O 0.15185 0.00075 0.28281 0.0
O414 O 0.11102 0.97021 0.25697 0.0
O415 O 0.14987 -0.00213 0.2243 0.0
H416 H 0.12168 0.07417 0.27039 0.0
H417 H 0.06213 0.02669 0.24149 0.0
H418 H 0.09108 0.11001 0.2728 0.0
H419 H 0.0325 0.06337 0.24455 0.0
H420 H 0.23046 0.98598 0.31485 0.0
H421 H 0.14212 0.01304 0.33047 0.0
H422 H 0.20012 0.98727 0.27887 0.0
H423 H 0.1734 0.01124 0.36548 0.0
H424 H 0.06264 0.03658 0.35035 0.0
H425 H 0.08082 0.95672 0.35575 0.0
H426 H 0.16665 0.10663 0.2127 0.0
H427 H 0.21112 0.08881 0.27907 0.0
H428 H 0.12244 0.92581 0.23632 0.0
H429 H 0.06371 0.96878 0.2737 0.0
H430 H 0.09337 0.88886 0.23463 0.0
H431 H 0.03555 0.93113 0.27109 0.0
H432 H 0.14195 0.98346 0.17703 0.0
H433 H 0.19791 0.01158 0.22906 0.0
H434 H 0.17434 0.98433 0.14275 0.0
H435 H 0.22936 0.01192 0.19384 0.0
H436 H 0.08793 0.02827 0.14519 0.0
H437 H 0.04143 0.9681 0.17595 0.0
H438 H 0.16822 0.89314 0.2957 0.0
H439 H 0.21002 0.90835 0.22676 0.0
Li440 Li 0.23014 0.89395 0.50237 0.0
Li441 Li 0.25169 0.85788 0.52398 0.0
Li442 Li 0.27663 0.89214 0.50145 0.0
Li443 Li 0.25237 0.86004 0.47757 0.0
C444 C 0.25092 0.91247 0.54972 0.0
N445 N 0.24595 0.9484 0.58744 0.0
C446 C 0.24351 0.90515 0.57418 0.0
C447 C 0.25581 0.93803 0.54439 0.0
C448 C 0.2411 0.92361 0.593 0.0
C449 C 0.25317 0.95593 0.56375 0.0
C450 C 0.20482 0.83861 0.50192 0.0
C451 C 0.19281 0.79457 0.49877 0.0
N452 N 0.16851 0.80099 0.50472 0.0
C453 C 0.17974 0.84478 0.50798 0.0
C454 C 0.21148 0.81333 0.49727 0.0
C455 C 0.16165 0.82549 0.50933 0.0
C456 C 0.19391 0.92639 0.48137 0.0
N457 N 0.20163 0.91513 0.50328 0.0
C458 C 0.1663 0.93227 0.52574 0.0
C459 C 0.18848 0.91781 0.52531 0.0
C460 C 0.15826 0.94455 0.50344 0.0
C461 C 0.17278 0.94221 0.48126 0.0
H462 H 0.20373 0.92257 0.46381 0.0
H463 H 0.19476 0.90803 0.54227 0.0
C464 C 0.2738 0.8286 0.56205 0.0
N465 N 0.2512 0.83651 0.55251 0.0
C466 C 0.27453 0.81345 0.58375 0.0
C467 C 0.22875 0.81612 0.58621 0.0
C468 C 0.22886 0.83049 0.5639 0.0
C469 C 0.25185 0.80775 0.59643 0.0
H470 H 0.29128 0.83457 0.55313 0.0
H471 H 0.21124 0.83757 0.55617 0.0
C472 C 0.25776 0.91449 0.45349 0.0
N473 N 0.26412 0.94789 0.41326 0.0
C474 C 0.26947 0.90638 0.43109 0.0
C475 C 0.2502 0.93991 0.45573 0.0
C476 C 0.27222 0.92345 0.41087 0.0
C477 C 0.25341 0.95644 0.43514 0.0
C478 C 0.3007 0.838 0.49752 0.0
C479 C 0.32352 0.84631 0.48682 0.0
C480 C 0.29857 0.81285 0.50599 0.0
C481 C 0.3441 0.82958 0.48557 0.0
C482 C 0.31955 0.79667 0.50431 0.0
N483 N 0.34173 0.80533 0.49433 0.0
C484 C 0.32509 0.90171 0.51852 0.0
C485 C 0.311 0.93097 0.48712 0.0
C486 C 0.34909 0.91265 0.5184 0.0
N487 N 0.30689 0.91063 0.50258 0.0
C488 C 0.33456 0.94266 0.48657 0.0
C489 C 0.35389 0.9332 0.50207 0.0
H490 H 0.32111 0.88561 0.53074 0.0
H491 H 0.29627 0.93806 0.475 0.0
C492 C 0.23819 0.85235 0.42827 0.0
N493 N 0.25136 0.84154 0.44762 0.0
C494 C 0.23981 0.8422 0.40404 0.0
C495 C 0.26616 0.80831 0.42086 0.0
C496 C 0.26472 0.81964 0.44461 0.0
C497 C 0.2541 0.82005 0.40022 0.0
H498 H 0.22742 0.86957 0.4315 0.0
H499 H 0.27459 0.81122 0.46043 0.0
O500 O 0.25414 0.89448 0.53138 0.0
O501 O 0.22258 0.85739 0.50023 0.0
O502 O 0.25297 0.89753 0.47277 0.0
O503 O 0.28104 0.85472 0.50092 0.0
H504 H 0.23982 0.88538 0.57861 0.0
H505 H 0.26169 0.94392 0.52556 0.0
H506 H 0.23546 0.91821 0.61204 0.0
H507 H 0.25693 0.97579 0.55996 0.0
H508 H 0.19764 0.77491 0.49519 0.0
H509 H 0.1743 0.8643 0.51155 0.0
H510 H 0.23083 0.80828 0.49254 0.0
H511 H 0.14217 0.82999 0.514 0.0
H512 H 0.15529 0.93351 0.54309 0.0
H513 H 0.16685 0.9512 0.4637 0.0
H514 H 0.29264 0.80743 0.59139 0.0
H515 H 0.21097 0.81218 0.59576 0.0
H516 H 0.27629 0.88708 0.42923 0.0
H517 H 0.242 0.94684 0.47325 0.0
H518 H 0.2808 0.91726 0.39326 0.0
H519 H 0.24738 0.97605 0.43656 0.0
H520 H 0.32543 0.86554 0.47973 0.0
H521 H 0.28091 0.80594 0.51389 0.0
H522 H 0.36199 0.83589 0.4777 0.0
H523 H 0.31822 0.77725 0.51103 0.0
H524 H 0.36372 0.90525 0.53079 0.0
H525 H 0.33777 0.95876 0.47407 0.0
H526 H 0.23013 0.8515 0.38842 0.0
H527 H 0.27706 0.791 0.41843 0.0
Li528 Li 0.36235 0.97833 0.75246 0.0
Li529 Li 0.39525 0.0019 0.77645 0.0
Li530 Li 0.36112 0.02567 0.75211 0.0
Li531 Li 0.3966 0.0029 0.72913 0.0
C532 C 0.3413 0.00204 0.80095 0.0
N533 N 0.30753 0.00251 0.84116 0.0
C534 C 0.34836 0.99193 0.82449 0.0
C535 C 0.31695 0.01208 0.79777 0.0
C536 C 0.33105 0.99244 0.84461 0.0
C537 C 0.30018 0.01221 0.81835 0.0
C538 C 0.41601 0.95355 0.75203 0.0
C539 C 0.45678 0.93575 0.7412 0.0
N540 N 0.4492 0.91287 0.75063 0.0
C541 C 0.40869 0.92993 0.76182 0.0
C542 C 0.4403 0.95657 0.7418 0.0
C543 C 0.42572 0.90957 0.76085 0.0
C544 C 0.34872 0.93081 0.73442 0.0
N545 N 0.34386 0.94801 0.75298 0.0
C546 C 0.31555 0.91943 0.77383 0.0
C547 C 0.32767 0.94285 0.77245 0.0
C548 C 0.32035 0.90135 0.75504 0.0
C549 C 0.3371 0.90706 0.73513 0.0
H550 H 0.36191 0.93548 0.71935 0.0
H551 H 0.32423 0.95675 0.787 0.0
C552 C 0.40818 0.01888 0.82431 0.0
N553 N 0.41364 0.00086 0.80675 0.0
C554 C 0.41951 0.01784 0.84813 0.0
C555 C 0.44213 0.97993 0.83508 0.0
C556 C 0.43023 0.98161 0.81158 0.0
C557 C 0.43666 -0.00184 0.85356 0.0
H558 H 0.39471 0.03379 0.81987 0.0
H559 H 0.43416 0.9675 0.79734 0.0
C560 C 0.34323 0.00176 0.70278 0.0
N561 N 0.31082 0.00123 0.66172 0.0
C562 C 0.35059 0.01286 0.67976 0.0
C563 C 0.31941 0.99036 0.70494 0.0
C564 C 0.33395 0.01236 0.6592 0.0
C565 C 0.30326 0.99037 0.68397 0.0
C566 C 0.41472 0.05186 0.75319 0.0
C567 C 0.40769 0.07475 0.74158 0.0
C568 C 0.4385 0.04964 0.76464 0.0
C569 C 0.42458 0.09515 0.74171 0.0
C570 C 0.45491 0.07045 0.76423 0.0
N571 N 0.44765 0.09259 0.75291 0.0
C572 C 0.34554 0.07464 0.76764 0.0
C573 C 0.31841 0.05496 0.73783 0.0
C574 C 0.3309 0.09684 0.76696 0.0
N575 N 0.33947 0.0546 0.75263 0.0
C576 C 0.30311 0.07658 0.73679 0.0
C577 C 0.30976 0.09802 0.75094 0.0
H578 H 0.36221 0.07365 0.7795 0.0
H579 H 0.31373 0.03869 0.72644 0.0
C580 C 0.41328 0.98603 0.68097 0.0
N581 N 0.41827 0.0025 0.70015 0.0
C582 C 0.42789 0.98652 0.65875 0.0
C583 C 0.45339 0.01973 0.67721 0.0
C584 C 0.43822 0.01875 0.69889 0.0
C585 C 0.44783 0.00397 0.65662 0.0
H586 H 0.39745 0.97308 0.68265 0.0
H587 H 0.44208 0.03137 0.71443 0.0
O588 O 0.35814 0.0021 0.78115 0.0
O589 O 0.39941 0.97356 0.75232 0.0
O590 O 0.35953 0.00152 0.7229 0.0
O591 O 0.39823 0.03186 0.75373 0.0
H592 H 0.36695 0.98364 0.82718 0.0
H593 H 0.311 0.01957 0.77959 0.0
H594 H 0.3363 0.98477 0.86295 0.0
H595 H 0.2813 0.02 0.81618 0.0
H596 H 0.47562 0.93778 0.73327 0.0
H597 H 0.39012 0.92736 0.77018 0.0
H598 H 0.44641 0.9748 0.73448 0.0
H599 H 0.42028 0.89116 0.76827 0.0
H600 H 0.30238 0.91554 0.78918 0.0
H601 H 0.34083 0.89343 0.72022 0.0
H602 H 0.41528 0.03235 0.86205 0.0
H603 H 0.45565 0.96481 0.83873 0.0
H604 H 0.36899 0.02173 0.67779 0.0
H605 H 0.31343 0.98172 0.72265 0.0
H606 H 0.33942 0.0208 0.64124 0.0
H607 H 0.28474 0.98169 0.68537 0.0
H608 H 0.38937 0.07674 0.73259 0.0
H609 H 0.44426 0.03201 0.77363 0.0
H610 H 0.41935 0.11302 0.73289 0.0
H611 H 0.4734 0.069 0.77294 0.0
H612 H 0.33654 0.1132 0.77797 0.0
H613 H 0.28699 0.07707 0.72412 0.0
H614 H 0.42306 0.97425 0.64306 0.0
H615 H 0.46854 0.03354 0.67599 0.0
Li616 Li 0.25492 0.14272 0.02427 0.0
Li617 Li 0.27716 0.10865 -0.00035 0.0
Li618 Li 0.25368 0.1447 0.97756 0.0
Li619 Li 0.23026 0.11031 -1e-05 0.0
C620 C 0.30172 0.16328 0.00543 0.0
N621 N 0.3392 0.1986 0.01439 0.0
C622 C 0.32585 0.1553 0.01297 0.0
C623 C 0.29657 0.1892 0.00256 0.0
C624 C 0.34456 0.17346 0.01739 0.0
C625 C 0.3158 0.20677 0.00717 0.0
C626 C 0.25202 0.08666 0.04715 0.0
C627 C 0.24687 0.0426 0.05888 0.0
N628 N 0.24887 0.04899 0.08379 0.0
C629 C 0.25374 0.09279 0.07289 0.0
C630 C 0.24841 0.06138 0.04007 0.0
C631 C 0.25225 0.07349 0.09111 0.0
C632 C 0.23753 0.17509 0.06394 0.0
N633 N 0.25713 0.16097 0.05479 0.0
C634 C 0.28081 0.16716 0.09271 0.0
C635 C 0.27865 0.1572 0.06838 0.0
C636 C 0.26095 0.1818 0.10271 0.0
C637 C 0.23919 0.18606 0.08797 0.0
H638 H 0.22044 0.17734 0.05288 0.0
H639 H 0.29368 0.14549 0.06069 0.0
C640 C 0.32056 0.0907 0.97557 0.0
N641 N 0.30714 0.089 0.9976 0.0
C642 C 0.3445 0.07946 0.97362 0.0
C643 C 0.34003 0.06445 0.0169 0.0
C644 C 0.31621 0.07607 0.01806 0.0
C645 C 0.35449 0.0664 0.99456 0.0
H646 H 0.31295 0.10152 0.95981 0.0
H647 H 0.30534 0.07549 0.03549 0.0
C648 C 0.20611 0.16493 -0.00143 0.0
N649 N 0.16727 0.1999 0.99318 0.0
C650 C 0.18134 0.15674 0.99401 0.0
C651 C 0.21114 0.19092 0.00027 0.0
C652 C 0.16197 0.1747 0.99139 0.0
C653 C 0.19123 0.2083 0.99749 0.0
C654 C 0.2522 0.08962 0.95217 0.0
C655 C 0.24619 0.09649 0.92724 0.0
C656 C 0.25713 0.06419 0.95814 0.0
C657 C 0.24504 0.07769 0.90865 0.0
C658 C 0.25581 0.04594 0.939 0.0
N659 N 0.24983 0.05301 0.91487 0.0
C660 C 0.27738 0.1736 0.93956 0.0
C661 C 0.23262 0.1709 0.93591 0.0
C662 C 0.27889 0.18772 0.91711 0.0
N663 N 0.25449 0.16562 0.94844 0.0
C664 C 0.23327 0.1848 0.9133 0.0
C665 C 0.25665 0.19316 0.90369 0.0
H666 H 0.29448 0.16861 0.94969 0.0
H667 H 0.21477 0.16387 0.94321 0.0
C668 C 0.18685 0.08803 0.02128 0.0
N669 N 0.1997 0.09192 -0.0008 0.0
C670 C 0.16286 0.07695 0.02093 0.0
C671 C 0.16581 0.07428 0.97515 0.0
C672 C 0.18969 0.08549 0.97637 0.0
C673 C 0.15221 0.07 0.99761 0.0
H674 H 0.19509 0.09393 0.03907 0.0
H675 H 0.19997 0.08954 0.95908 0.0
O676 O 0.2836 0.14568 -0.00016 0.0
O677 O 0.25386 0.10537 0.02908 0.0
O678 O 0.2251 0.1475 0.00219 0.0
O679 O 0.25363 0.10789 0.97046 0.0
H680 H 0.33016 0.13528 0.01515 0.0
H681 H 0.27803 0.19563 0.99654 0.0
H682 H 0.36337 0.16755 0.0231 0.0
H683 H 0.31217 0.2269 0.00488 0.0
H684 H 0.24409 0.02295 0.05369 0.0
H685 H 0.25615 0.11223 0.07883 0.0
H686 H 0.24674 0.05632 0.02028 0.0
H687 H 0.25372 0.07799 0.11107 0.0
H688 H 0.29779 0.16348 0.10366 0.0
H689 H 0.22353 0.19729 0.09521 0.0
H690 H 0.35535 0.08141 0.95623 0.0
H691 H 0.3474 0.05461 0.03343 0.0
H692 H 0.17697 0.13676 0.99273 0.0
H693 H 0.23017 0.19756 0.00392 0.0
H694 H 0.14271 0.16859 0.98801 0.0
H695 H 0.19482 0.22848 -0.00114 0.0
H696 H 0.24243 0.11613 0.92231 0.0
H697 H 0.26209 0.05862 0.97728 0.0
H698 H 0.24037 0.08272 0.88928 0.0
H699 H 0.25959 0.02617 0.94332 0.0
H700 H 0.29716 0.19397 0.91005 0.0
H701 H 0.21581 0.18879 0.90325 0.0
H702 H 0.1528 0.07359 0.03859 0.0
H703 H 0.1581 0.06883 0.95695 0.0
Li704 Li 0.72991 0.3958 0.00136 0.0
Li705 Li 0.7508 0.35916 0.02307 0.0
Li706 Li 0.77616 0.39373 0.00154 0.0
Li707 Li 0.75264 0.36142 0.97702 0.0
C708 C 0.75377 0.41303 0.05018 0.0
N709 N 0.75447 0.44798 0.08909 0.0
C710 C 0.74828 0.40537 0.07503 0.0
C711 C 0.75972 0.43841 0.04507 0.0
C712 C 0.74869 0.42334 0.09445 0.0
C713 C 0.75997 0.4558 0.06504 0.0
C714 C 0.70359 0.3412 0.00271 0.0
C715 C 0.68958 0.29764 0.00316 0.0
N716 N 0.66593 0.30553 0.00995 0.0
C717 C 0.67918 0.3489 0.00972 0.0
C718 C 0.70889 0.3154 -0.00062 0.0
C719 C 0.66039 0.33056 0.01328 0.0
C720 C 0.6894 0.42226 0.97984 0.0
N721 N 0.7023 0.41847 0.00182 0.0
C722 C 0.67309 0.44451 0.02467 0.0
C723 C 0.6949 0.42955 0.02392 0.0
C724 C 0.65881 0.44764 0.00254 0.0
C725 C 0.66741 0.437 0.97974 0.0
H726 H 0.69561 0.41291 0.96266 0.0
H727 H 0.7051 0.42576 0.04123 0.0
C728 C 0.77272 0.32741 0.05941 0.0
N729 N 0.75018 0.33683 0.05111 0.0
C730 C 0.77361 0.31172 0.08075 0.0
C731 C 0.72809 0.31615 0.08493 0.0
C732 C 0.72803 0.33141 0.0632 0.0
C733 C 0.75116 0.30653 0.09402 0.0
H734 H 0.79012 0.33274 0.04995 0.0
H735 H 0.71048 0.33964 0.0565 0.0
C736 C 0.75241 0.4159 0.95276 0.0
N737 N 0.75009 0.45061 0.91325 0.0
C738 C 0.75726 0.40818 0.92785 0.0
C739 C 0.74636 0.44132 0.95757 0.0
C740 C 0.75606 0.42599 0.90815 0.0
C741 C 0.74522 0.45855 0.93732 0.0
C742 C 0.7991 0.3385 0.99701 0.0
C743 C 0.82379 0.34581 0.99064 0.0
C744 C 0.79352 0.31275 0.00036 0.0
C745 C 0.84263 0.32727 0.98827 0.0
C746 C 0.8129 0.29477 -0.00217 0.0
N747 N 0.83686 0.30234 0.99196 0.0
C748 C 0.82306 0.40574 0.02063 0.0
C749 C 0.81144 0.42942 0.98392 0.0
C750 C 0.84714 0.41642 0.02027 0.0
N751 N 0.80606 0.41211 0.00237 0.0
C752 C 0.83506 0.44101 0.98318 0.0
C753 C 0.85321 0.43421 0.00133 0.0
H754 H 0.81812 0.39168 0.03486 0.0
H755 H 0.79767 0.43386 0.9695 0.0
C756 C 0.73395 0.33187 0.93666 0.0
N757 N 0.75472 0.34253 0.94735 0.0
C758 C 0.73623 0.3192 0.91358 0.0
C759 C 0.78108 0.32909 0.91317 0.0
C760 C 0.77799 0.34128 0.93629 0.0
C761 C 0.76003 0.31798 0.90166 0.0
H762 H 0.71565 0.33359 0.94582 0.0
H763 H 0.79394 0.35059 0.945 0.0
O764 O 0.75298 0.39569 0.03097 0.0
O765 O 0.72194 0.35901 -0.00154 0.0
O766 O 0.75362 0.39864 0.97227 0.0
O767 O 0.78085 0.3566 0.00109 0.0
H768 H 0.7436 0.38577 0.07925 0.0
H769 H 0.76395 0.4446 0.02589 0.0
H770 H 0.74439 0.41771 0.11376 0.0
H771 H 0.76448 0.47554 0.06141 0.0
H772 H 0.69336 0.27759 0.00061 0.0
H773 H 0.67479 0.36885 0.01224 0.0
H774 H 0.72767 0.30919 0.99381 0.0
H775 H 0.64139 0.33624 0.01863 0.0
H776 H 0.66641 0.45195 0.04264 0.0
H777 H 0.65631 0.43864 0.96255 0.0
H778 H 0.79172 0.30491 0.08769 0.0
H779 H 0.71055 0.31274 0.09511 0.0
H780 H 0.76196 0.38868 0.92366 0.0
H781 H 0.74264 0.44766 0.97674 0.0
H782 H 0.75986 0.42023 0.88882 0.0
H783 H 0.74051 0.47827 0.94073 0.0
H784 H 0.82842 0.36558 0.98754 0.0
H785 H 0.77452 0.30677 0.00532 0.0
H786 H 0.86185 0.33271 0.98355 0.0
H787 H 0.80893 0.27479 0.00067 0.0
H788 H 0.86086 0.41099 0.03457 0.0
H789 H 0.83931 0.45483 0.96846 0.0
H790 H 0.71967 0.31081 0.90493 0.0
H791 H 0.79959 0.32852 0.90421 0.0
Li792 Li 0.89456 0.50025 0.27562 0.0
Li793 Li 0.86093 0.4774 0.25156 0.0
Li794 Li 0.89509 0.50217 0.22843 0.0
Li795 Li 0.85981 0.52454 0.25248 0.0
C796 C 0.91581 0.45331 0.24998 0.0
N797 N 0.95183 0.41514 0.24804 0.0
C798 C 0.90909 0.4282 0.25556 0.0
C799 C 0.94084 0.45903 0.24338 0.0
C800 C 0.92759 0.40919 0.25453 0.0
C801 C 0.95877 0.43944 0.24247 0.0
C802 C 0.83977 0.49917 0.2997 0.0
C803 C 0.79699 0.5059 0.31447 0.0
N804 N 0.8041 0.49854 0.3382 0.0
C805 C 0.84663 0.49153 0.3242 0.0
C806 C 0.81473 0.50625 0.29471 0.0
C807 C 0.82833 0.49135 0.34341 0.0
C808 C 0.90915 0.51823 0.32256 0.0
N809 N 0.91316 0.49901 0.30589 0.0
C810 C 0.94028 0.47751 0.33517 0.0
C811 C 0.92824 0.47881 0.31168 0.0
C812 C 0.93635 0.49703 0.35272 0.0
C813 C 0.92056 0.51756 0.34636 0.0
H814 H 0.89674 0.53383 0.31743 0.0
H815 H 0.93078 0.4636 0.29826 0.0
C816 C 0.83203 0.43638 0.2324 0.0
N817 N 0.84188 0.44756 0.25335 0.0
C818 C 0.81929 0.4133 0.23469 0.0
C819 C 0.82789 0.41347 0.27983 0.0
C820 C 0.84004 0.43671 0.27674 0.0
C821 C 0.8174 0.40163 0.25862 0.0
H822 H 0.83458 0.44504 0.21393 0.0
H823 H 0.84881 0.44572 0.29285 0.0
C824 C 0.91321 0.55087 0.25353 0.0
N825 N 0.94588 0.59179 0.25375 0.0
C826 C 0.90544 0.57431 0.24361 0.0
C827 C 0.93755 0.54822 0.26362 0.0
C828 C 0.92223 0.59479 0.24393 0.0
C829 C 0.95382 0.56914 0.26348 0.0
C830 C 0.84171 0.50272 0.2021 0.0
C831 C 0.85043 0.51242 0.17893 0.0
C832 C 0.8167 0.49421 0.20424 0.0
C833 C 0.834 0.51329 0.15819 0.0
C834 C 0.80082 0.49555 0.18311 0.0
N835 N 0.80974 0.50493 0.1607 0.0
C836 C 0.913 0.48508 0.18054 0.0
C837 C 0.9357 0.51984 0.19758 0.0
C838 C 0.92746 0.4861 0.15821 0.0
N839 N 0.91689 0.5023 0.19933 0.0
C840 C 0.95072 0.52135 0.17582 0.0
C841 C 0.94617 0.50482 0.15558 0.0
H842 H 0.89807 0.47116 0.18254 0.0
H843 H 0.93868 0.53313 0.21274 0.0
C844 C 0.8423 0.57184 0.27215 0.0
N845 N 0.83769 0.55318 0.25496 0.0
C846 C 0.82698 0.59364 0.27274 0.0
C847 C 0.80144 0.57549 0.23945 0.0
C848 C 0.81736 0.55438 0.23926 0.0
C849 C 0.80668 0.59575 0.25571 0.0
H850 H 0.85842 0.57021 0.2847 0.0
H851 H 0.81382 0.53935 0.22604 0.0
O852 O 0.89792 0.47213 0.25099 0.0
O853 O 0.85769 0.50034 0.28093 0.0
O854 O 0.89695 0.53069 0.25352 0.0
O855 O 0.85774 0.5012 0.22244 0.0
H856 H 0.88983 0.42343 0.26071 0.0
H857 H 0.94636 0.47839 0.23911 0.0
H858 H 0.92265 0.38969 0.25887 0.0
H859 H 0.97822 0.44355 0.23737 0.0
H860 H 0.77756 0.5115 0.31094 0.0
H861 H 0.86587 0.48572 0.32834 0.0
H862 H 0.80908 0.51205 0.27582 0.0
H863 H 0.83339 0.48554 0.36246 0.0
H864 H 0.95263 0.4616 0.33955 0.0
H865 H 0.91743 0.533 0.35955 0.0
H866 H 0.81162 0.40429 0.21795 0.0
H867 H 0.82701 0.40462 0.29842 0.0
H868 H 0.88665 0.57664 0.23572 0.0
H869 H 0.94386 0.53016 0.27129 0.0
H870 H 0.91647 0.61306 0.23635 0.0
H871 H 0.97276 0.56736 0.27111 0.0
H872 H 0.86967 0.51923 0.17696 0.0
H873 H 0.80957 0.48693 0.22214 0.0
H874 H 0.84053 0.52065 0.14011 0.0
H875 H 0.78139 0.48914 0.18452 0.0
H876 H 0.92342 0.47319 0.1428 0.0
H877 H 0.9649 0.53614 0.17424 0.0
H878 H 0.83168 0.60916 0.28529 0.0
H879 H 0.78616 0.57678 0.22579 0.0
Li880 Li 0.75501 0.6429 0.52462 0.0
Li881 Li 0.77689 0.60895 0.49949 0.0
Li882 Li 0.75373 0.64495 0.47776 0.0
Li883 Li 0.72998 0.61053 0.49997 0.0
C884 C 0.80202 0.66362 0.50342 0.0
N885 N 0.83979 0.69944 0.50851 0.0
C886 C 0.82686 0.65598 0.50868 0.0
C887 C 0.79633 0.68945 0.50079 0.0
C888 C 0.84569 0.67438 0.51121 0.0
C889 C 0.81573 0.70728 0.5034 0.0
C890 C 0.75328 0.58777 0.54792 0.0
C891 C 0.74658 0.54483 0.5626 0.0
N892 N 0.75189 0.55224 0.58671 0.0
C893 C 0.75862 0.59496 0.57286 0.0
C894 C 0.74717 0.56252 0.54271 0.0
C895 C 0.75785 0.57673 0.59219 0.0
C896 C 0.73569 0.67017 0.56663 0.0
N897 N 0.75703 0.66122 0.55517 0.0
C898 C 0.78249 0.67407 0.59015 0.0
C899 C 0.78015 0.66306 0.56629 0.0
C900 C 0.76084 0.68355 0.6024 0.0
C901 C 0.73721 0.68173 0.59038 0.0
H902 H 0.71749 0.66789 0.55756 0.0
H903 H 0.79665 0.65515 0.55699 0.0
C904 C 0.81757 0.58638 0.47419 0.0
N905 N 0.80648 0.58903 0.49738 0.0
C906 C 0.84093 0.57408 0.4719 0.0
C907 C 0.84095 0.56759 0.51743 0.0
C908 C 0.81752 0.57988 0.51883 0.0
C909 C 0.8529 0.56487 0.49377 0.0
H910 H 0.80851 0.59438 0.45757 0.0
H911 H 0.80845 0.58274 0.53704 0.0
C912 C 0.70603 0.66512 0.49974 0.0
N913 N 0.66629 0.69934 0.49699 0.0
C914 C 0.68219 0.65719 0.49141 0.0
C915 C 0.70973 0.6905 0.5064 0.0
C916 C 0.66232 0.67475 0.49027 0.0
C917 C 0.68938 0.70752 0.50488 0.0
C918 C 0.75214 0.59034 0.45174 0.0
C919 C 0.74625 0.59761 0.42689 0.0
C920 C 0.75706 0.5648 0.45734 0.0
C921 C 0.74529 0.57912 0.40799 0.0
C922 C 0.75597 0.5469 0.43787 0.0
N923 N 0.75015 0.55436 0.41382 0.0
C924 C 0.77787 0.67175 0.43891 0.0
C925 C 0.7329 0.67337 0.43741 0.0
C926 C 0.77965 0.68574 0.41643 0.0
N927 N 0.75476 0.66596 0.44886 0.0
C928 C 0.73379 0.68727 0.41482 0.0
C929 C 0.75739 0.69334 0.40412 0.0
H930 H 0.79489 0.66505 0.44819 0.0
H931 H 0.71483 0.66799 0.4455 0.0
C932 C 0.68406 0.59525 0.52044 0.0
N933 N 0.69929 0.5923 0.49981 0.0
C934 C 0.65971 0.58501 0.5206 0.0
C935 C 0.66756 0.56816 0.47863 0.0
C936 C 0.69156 0.57917 0.47907 0.0
C937 C 0.65134 0.57124 0.4995 0.0
H938 H 0.69064 0.60617 0.53646 0.0
H939 H 0.70372 0.57761 0.46266 0.0
O940 O 0.78358 0.64576 0.50019 0.0
O941 O 0.75354 0.60554 0.52888 0.0
O942 O 0.72528 0.64785 0.50247 0.0
O943 O 0.75323 0.60826 0.47038 0.0
H944 H 0.83156 0.63603 0.51069 0.0
H945 H 0.77719 0.69562 0.49659 0.0
H946 H 0.86501 0.66874 0.51525 0.0
H947 H 0.81167 0.72735 0.5013 0.0
H948 H 0.74185 0.52521 0.55888 0.0
H949 H 0.76325 0.61439 0.57733 0.0
H950 H 0.74282 0.5567 0.52354 0.0
H951 H 0.76195 0.58207 0.61156 0.0
H952 H 0.80093 0.67513 0.59904 0.0
H953 H 0.72016 0.68883 0.59946 0.0
H954 H 0.8498 0.57219 0.45343 0.0
H955 H 0.84986 0.56059 0.53461 0.0
H956 H 0.67898 0.63769 0.48598 0.0
H957 H 0.72805 0.69691 0.51294 0.0
H958 H 0.64373 0.66881 0.48408 0.0
H959 H 0.69192 0.7272 0.51012 0.0
H960 H 0.74242 0.61732 0.42228 0.0
H961 H 0.76169 0.55892 0.4765 0.0
H962 H 0.74072 0.58446 0.38867 0.0
H963 H 0.75975 0.52706 0.44188 0.0
H964 H 0.79807 0.69013 0.40843 0.0
H965 H 0.71633 0.69288 0.40556 0.0
H966 H 0.64759 0.58758 0.53704 0.0
H967 H 0.66162 0.55753 0.46214 0.0
Li968 Li 0.64825 0.52306 0.7517 0.0
Li969 Li 0.61489 0.49922 0.77734 0.0
Li970 Li 0.6492 0.47566 0.75344 0.0
Li971 Li 0.61348 0.49803 0.72954 0.0
C972 C 0.66923 0.50072 0.80109 0.0
N973 N 0.7031 0.5004 0.84096 0.0
C974 C 0.66191 0.51006 0.82481 0.0
C975 C 0.69382 0.4914 0.79756 0.0
C976 C 0.67929 0.50967 0.84475 0.0
C977 C 0.71066 0.49138 0.81798 0.0
C978 C 0.59456 0.54783 0.75443 0.0
C979 C 0.55386 0.56721 0.74657 0.0
N980 N 0.5624 0.58927 0.75681 0.0
C981 C 0.60293 0.57063 0.76497 0.0
C982 C 0.56985 0.54604 0.74517 0.0
C983 C 0.58639 0.59139 0.76595 0.0
C984 C 0.66174 0.56971 0.7294 0.0
N985 N 0.66766 0.55365 0.74885 0.0
C986 C 0.69787 0.58332 0.76484 0.0
C987 C 0.68566 0.55977 0.76619 0.0
C988 C 0.69137 0.60062 0.74554 0.0
C989 C 0.67339 0.5935 0.72741 0.0
H990 H 0.64732 0.56433 0.71591 0.0
H991 H 0.69003 0.54674 0.78148 0.0
C992 C 0.60309 0.47892 0.82483 0.0
N993 N 0.59557 0.49703 0.80789 0.0
C994 C 0.59105 0.47669 0.8484 0.0
C995 C 0.56287 0.51093 0.83612 0.0
C996 C 0.5756 0.51265 0.81285 0.0
C997 C 0.57091 0.49305 0.85428 0.0
H998 H 0.61893 0.46665 0.82023 0.0
H999 H 0.56985 0.52672 0.79899 0.0
C1000 C 0.6684 0.49825 0.70412 0.0
N1001 N 0.70374 0.49883 0.66533 0.0
C1002 C 0.66166 0.49029 0.67981 0.0
C1003 C 0.69312 0.50644 0.70878 0.0
C1004 C 0.67979 0.49074 0.66044 0.0
C1005 C 0.71072 0.5066 0.68889 0.0
C1006 C 0.59599 0.44938 0.75475 0.0
C1007 C 0.60391 0.426 0.74496 0.0
C1008 C 0.57154 0.45192 0.76472 0.0
C1009 C 0.58719 0.40546 0.74542 0.0
C1010 C 0.55534 0.43095 0.7647 0.0
N1011 N 0.56345 0.40834 0.75517 0.0
C1012 C 0.66347 0.42992 0.77584 0.0
C1013 C 0.68683 0.43911 0.73835 0.0
C1014 C 0.6751 0.40611 0.77797 0.0
N1015 N 0.6691 0.44558 0.75598 0.0
C1016 C 0.69908 0.41556 0.73987 0.0
C1017 C 0.69282 0.39865 0.75959 0.0
H1018 H 0.64923 0.4356 0.78952 0.0
H1019 H 0.6909 0.45185 0.72272 0.0
C1020 C 0.59633 0.51518 0.68158 0.0
N1021 N 0.59185 0.49794 0.70041 0.0
C1022 C 0.58207 0.51469 0.65921 0.0
C1023 C 0.55794 0.47972 0.67669 0.0
C1024 C 0.57282 0.48068 0.69852 0.0
C1025 C 0.56293 0.49645 0.65647 0.0
H1026 H 0.61145 0.52885 0.68367 0.0
H1027 H 0.56943 0.46729 0.71369 0.0
O1028 O 0.65218 0.50017 0.78161 0.0
O1029 O 0.61075 0.52764 0.75239 0.0
O1030 O 0.65066 0.49857 0.72307 0.0
O1031 O 0.61219 0.46962 0.75472 0.0
H1032 H 0.64299 0.51749 0.82781 0.0
H1033 H 0.69978 0.48418 0.77928 0.0
H1034 H 0.67385 0.51672 0.86325 0.0
H1035 H 0.72973 0.48415 0.81558 0.0
H1036 H 0.53469 0.56613 0.73945 0.0
H1037 H 0.62203 0.57232 0.77219 0.0
H1038 H 0.56314 0.52851 0.73691 0.0
H1039 H 0.59263 0.60921 0.77393 0.0
H1040 H 0.71153 0.58839 0.77924 0.0
H1041 H 0.66785 0.60654 0.71244 0.0
H1042 H 0.59775 0.46285 0.86212 0.0
H1043 H 0.54745 0.52392 0.84026 0.0
H1044 H 0.6426 0.48384 0.67594 0.0
H1045 H 0.69861 0.51264 0.72753 0.0
H1046 H 0.67482 0.48468 0.6415 0.0
H1047 H 0.72991 0.51294 0.69216 0.0
H1048 H 0.62274 0.42375 0.73706 0.0
H1049 H 0.56507 0.46995 0.77219 0.0
H1050 H 0.59308 0.38723 0.73798 0.0
H1051 H 0.53632 0.43265 0.77226 0.0
H1052 H 0.66979 0.39335 0.79327 0.0
H1053 H 0.71258 0.41017 0.7253 0.0
H1054 H 0.5864 0.52788 0.64395 0.0
H1055 H 0.54332 0.4654 0.67515 0.0
Li1056 Li 0.98139 0.75201 0.85946 0.0
Li1057 Li 0.00275 0.77642 0.89398 0.0
Li1058 Li 0.02897 0.75272 0.86022 0.0
Li1059 Li 0.00594 0.7293 0.89497 0.0
C1060 C 0.0028 0.80159 0.83969 0.0
N1061 N 0.00026 0.8422 0.8063 0.0
C1062 C 0.99423 0.82531 0.84803 0.0
C1063 C 0.01016 0.79854 0.81438 0.0
C1064 C 0.99311 0.8456 0.83087 0.0
C1065 C 0.00865 0.81929 0.79777 0.0
C1066 C 0.95657 0.75537 0.91452 0.0
C1067 C 0.94205 0.75486 0.95796 0.0
N1068 N 0.91886 0.76313 0.9502 0.0
C1069 C 0.93262 0.76394 0.90697 0.0
C1070 C 0.96138 0.75083 0.94021 0.0
C1071 C 0.91381 0.76774 0.92529 0.0
C1072 C 0.93377 0.73304 0.84603 0.0
N1073 N 0.95177 0.75001 0.83863 0.0
C1074 C 0.92549 0.7645 0.80447 0.0
C1075 C 0.9482 0.76539 0.81807 0.0
C1076 C 0.90627 0.74789 0.81242 0.0
C1077 C 0.91068 0.73175 0.8332 0.0
H1078 H 0.93713 0.72099 0.86239 0.0
H1079 H 0.96269 0.77866 0.81243 0.0
C1080 C 0.0217 0.8176 0.9229 0.0
N1081 N 0.00012 0.80669 0.91415 0.0
C1082 C 0.02061 0.84073 0.93584 0.0
C1083 C 0.9751 0.84093 0.93081 0.0
C1084 C 0.97705 0.81776 0.91802 0.0
C1085 C 0.9971 0.85272 0.93969 0.0
H1086 H 0.03984 0.80867 0.91925 0.0
H1087 H 0.96023 0.80916 0.91029 0.0
C1088 C 0.00691 0.70493 0.83971 0.0
N1089 N 0.00803 0.66755 0.8031 0.0
C1090 C 0.0122 0.67974 0.84648 0.0
C1091 C 0.00216 0.71114 0.81435 0.0
C1092 C 0.01274 0.66112 0.82768 0.0
C1093 C 0.00279 0.69194 0.79612 0.0
C1094 C 0.05187 0.75178 0.91578 0.0
C1095 C 0.07687 0.74646 0.90865 0.0
C1096 C 0.04583 0.75487 0.94142 0.0
C1097 C 0.09546 0.7442 0.92734 0.0
C1098 C 0.06499 0.75249 0.95956 0.0
N1099 N 0.08919 0.74726 0.9522 0.0
C1100 C 0.07031 0.772 0.83049 0.0
C1101 C 0.07126 0.72776 0.8393 0.0
C1102 C 0.0938 0.77042 0.81818 0.0
N1103 N 0.05959 0.75083 0.84077 0.0
C1104 C 0.09497 0.7254 0.82756 0.0
C1105 C 0.10649 0.74693 0.81687 0.0
H1106 H 0.06096 0.79021 0.83239 0.0
H1107 H 0.06253 0.71133 0.84806 0.0
C1108 C 0.9859 0.68846 0.92353 0.0
N1109 N 0.00778 0.69896 0.91478 0.0
C1110 C 0.98625 0.66465 0.93537 0.0
C1111 C 0.03165 0.66286 0.92907 0.0
C1112 C 0.03047 0.68686 0.91754 0.0
C1113 C 0.00928 0.65148 0.93793 0.0
H1114 H 0.96807 0.6982 0.92055 0.0
H1115 H 0.04749 0.6954 0.90988 0.0
O1116 O 0.00471 0.78171 0.85644 0.0
O1117 O 0.97491 0.75074 0.89672 0.0
O1118 O 0.00584 0.72325 0.85798 0.0
O1119 O 0.03364 0.75483 0.89761 0.0
H1120 H 0.98861 0.82811 0.86753 0.0
H1121 H 0.01686 0.78031 0.80763 0.0
H1122 H 0.98659 0.86407 0.83712 0.0
H1123 H 0.01419 0.81719 0.7781 0.0
H1124 H 0.94545 0.75133 0.97791 0.0
H1125 H 0.92863 0.76773 0.88718 0.0
H1126 H 0.97979 0.74409 0.94633 0.0
H1127 H 0.89519 0.77434 0.91971 0.0
H1128 H 0.92264 0.7771 0.7884 0.0
H1129 H 0.89623 0.71862 0.83966 0.0
H1130 H 0.03799 0.84953 0.94221 0.0
H1131 H 0.95674 0.8499 0.93315 0.0
H1132 H 0.01579 0.6746 0.86604 0.0
H1133 H -0.00207 0.73055 0.80886 0.0
H1134 H 0.01682 0.64155 0.83266 0.0
H1135 H -0.00092 0.69641 0.77641 0.0
H1136 H 0.08196 0.74431 0.88889 0.0
H1137 H 0.02661 0.75924 0.94721 0.0
H1138 H 0.11489 0.74014 0.92207 0.0
H1139 H 0.06063 0.75489 0.97948 0.0
H1140 H 0.10232 0.78745 0.81033 0.0
H1141 H 0.1044 0.70709 0.82714 0.0
H1142 H 0.96863 0.65622 0.9418 0.0
H1143 H 0.04965 0.65302 0.93053 0.0
Li1144 Li 0.00356 0.27336 0.60716 0.0
Li1145 Li 0.026 0.25101 0.64254 0.0
Li1146 Li 0.00115 0.22718 0.60981 0.0
Li1147 Li 0.9792 0.25273 0.643 0.0
C1148 C 0.05007 0.25263 0.58812 0.0
N1149 N 0.08848 0.25977 0.55308 0.0
C1150 C 0.07315 0.26315 0.59563 0.0
C1151 C 0.04648 0.24576 0.56282 0.0
C1152 C 0.09234 0.26662 0.57762 0.0
C1153 C 0.06615 0.24953 0.54537 0.0
C1154 C 0.00367 0.30021 0.66181 0.0
C1155 C -0.00258 0.31411 0.70493 0.0
N1156 N 0.00241 0.33842 0.69758 0.0
C1157 C 0.00867 0.32533 0.65466 0.0
C1158 C -0.002 0.2945 0.68713 0.0
C1159 C 0.00801 0.34437 0.67303 0.0
C1160 C 0.98322 0.30916 0.57358 0.0
N1161 N 0.00507 0.30125 0.58471 0.0
C1162 C 0.02779 0.33627 0.56693 0.0
C1163 C 0.02724 0.31399 0.58138 0.0
C1164 C 0.00526 0.34534 0.55615 0.0
C1165 C 0.98293 0.33123 0.5589 0.0
H1166 H 0.96575 0.29911 0.57721 0.0
H1167 H 0.04413 0.30768 0.5911 0.0
C1168 C 0.07125 0.229 0.65358 0.0
N1169 N 0.05586 0.24823 0.66133 0.0
C1170 C 0.09491 0.22558 0.66464 0.0
C1171 C 0.08586 0.26109 0.69238 0.0
C1172 C 0.06245 0.26409 0.68046 0.0
C1173 C 0.1024 0.24187 0.68409 0.0
H1174 H 0.06528 0.21674 0.63832 0.0
H1175 H 0.04981 0.27921 0.68617 0.0
C1176 C 0.95448 0.24551 0.58854 0.0
N1177 N 0.91674 0.23526 0.55386 0.0
C1178 C 0.93067 0.2373 0.59689 0.0
C1179 C 0.95922 0.24816 0.56254 0.0
C1180 C 0.91181 0.23229 0.57906 0.0
C1181 C 0.93985 0.24296 0.54531 0.0
C1182 C 0.00203 0.2027 0.66306 0.0
C1183 C 0.99175 0.17952 0.65543 0.0
C1184 C 0.01306 0.20475 0.68705 0.0
C1185 C 0.99275 0.15868 0.67194 0.0
C1186 C 0.01359 0.18349 0.70305 0.0
N1187 N 0.00354 0.16109 0.69522 0.0
C1188 C 0.02648 0.18608 0.59151 0.0
C1189 C 0.98295 0.18538 0.58018 0.0
C1190 C 0.03065 0.16287 0.57964 0.0
N1191 N 0.00299 0.19675 0.59157 0.0
C1192 C 0.9863 0.16216 0.56793 0.0
C1193 C 0.01038 0.15077 0.56774 0.0
H1194 H 0.04192 0.19552 0.60103 0.0
H1195 H 0.96438 0.19402 0.58094 0.0
C1196 C 0.93112 0.27018 0.65753 0.0
N1197 N 0.9507 0.25492 0.66464 0.0
C1198 C 0.90926 0.27147 0.67244 0.0
C1199 C 0.92863 0.24219 0.70224 0.0
C1200 C 0.94998 0.24123 0.6866 0.0
C1201 C 0.90785 0.25713 0.69491 0.0
H1202 H 0.9324 0.281 0.64005 0.0
H1203 H 0.96593 0.22954 0.69197 0.0
O1204 O 0.03143 0.24824 0.60568 0.0
O1205 O 0.0039 0.28148 0.64392 0.0
O1206 O 0.97262 0.25198 0.60581 0.0
O1207 O 0.0017 0.22315 0.64695 0.0
H1208 H 0.0762 0.26868 0.61514 0.0
H1209 H 0.02876 0.23747 0.55677 0.0
H1210 H 0.1103 0.27473 0.58316 0.0
H1211 H 0.0637 0.24423 0.52572 0.0
H1212 H 0.99303 0.31 0.7246 0.0
H1213 H 0.01302 0.33006 0.6351 0.0
H1214 H 0.99419 0.27513 0.69298 0.0
H1215 H 0.01188 0.36389 0.66777 0.0
H1216 H 0.04508 0.34728 0.56576 0.0
H1217 H 0.96513 0.33828 0.55141 0.0
H1218 H 0.10738 0.21064 0.65792 0.0
H1219 H 0.09133 0.27395 0.70739 0.0
H1220 H 0.92673 0.23496 0.61692 0.0
H1221 H 0.97758 0.25443 0.55578 0.0
H1222 H 0.89324 0.22612 0.58526 0.0
H1223 H 0.94316 0.24515 0.52514 0.0
H1224 H 0.98309 0.17762 0.63696 0.0
H1225 H 0.02097 0.2226 0.69329 0.0
H1226 H 0.98493 0.1406 0.66626 0.0
H1227 H 0.02201 0.18481 0.72169 0.0
H1228 H 0.04936 0.15434 0.5799 0.0
H1229 H 0.97029 0.153 0.55901 0.0
H1230 H 0.89355 0.28334 0.66646 0.0
H1231 H 0.92812 0.23113 0.71964 0.0
Li1232 Li 0.48055 0.25166 0.35966 0.0
Li1233 Li 0.50054 0.27624 0.39511 0.0
Li1234 Li 0.52785 0.2535 0.36201 0.0
Li1235 Li 0.50445 0.22896 0.39533 0.0
C1236 C 0.50373 0.30114 0.34065 0.0
N1237 N 0.50527 0.34052 0.30581 0.0
C1238 C 0.49598 0.32555 0.34767 0.0
C1239 C 0.51236 0.29674 0.31595 0.0
C1240 C 0.49689 0.34521 0.32978 0.0
C1241 C 0.51294 0.31691 0.29859 0.0
C1242 C 0.45459 0.25562 0.41422 0.0
C1243 C 0.44062 0.25944 0.45765 0.0
N1244 N 0.41706 0.26597 0.44939 0.0
C1245 C 0.43028 0.26246 0.40614 0.0
C1246 C 0.45987 0.25413 0.44015 0.0
C1247 C 0.41155 0.26759 0.42422 0.0
C1248 C 0.43511 0.23071 0.34195 0.0
N1249 N 0.45154 0.2502 0.33794 0.0
C1250 C 0.42433 0.26802 0.30615 0.0
C1251 C 0.44674 0.26854 0.32026 0.0
C1252 C 0.40665 0.24864 0.31066 0.0
C1253 C 0.41237 0.2296 0.32847 0.0
H1254 H 0.43936 0.21645 0.35619 0.0
H1255 H 0.45992 0.28394 0.31748 0.0
C1256 C 0.51981 0.31814 0.42201 0.0
N1257 N 0.49787 0.30702 0.41447 0.0
C1258 C 0.51934 0.34174 0.43409 0.0
C1259 C 0.47369 0.34221 0.4304 0.0
C1260 C 0.47503 0.31852 0.41845 0.0
C1261 C 0.49609 0.35407 0.43826 0.0
H1262 H 0.53776 0.30895 0.41807 0.0
H1263 H 0.4579 0.30975 0.41161 0.0
C1264 C 0.50583 0.20546 0.33934 0.0
N1265 N 0.5047 0.16891 0.30186 0.0
C1266 C 0.51212 0.18023 0.34502 0.0
C1267 C 0.49886 0.21209 0.3146 0.0
C1268 C 0.51152 0.16205 0.32581 0.0
C1269 C 0.4984 0.19332 0.29592 0.0
C1270 C 0.54965 0.24955 0.41723 0.0
C1271 C 0.57188 0.23699 0.40991 0.0
C1272 C 0.5468 0.25769 0.44228 0.0
C1273 C 0.59108 0.23312 0.42771 0.0
C1274 C 0.56643 0.25341 0.45955 0.0
N1275 N 0.588 0.24139 0.45194 0.0
C1276 C 0.57717 0.26998 0.35495 0.0
C1277 C 0.5641 0.24186 0.32253 0.0
C1278 C 0.60146 0.27129 0.34456 0.0
N1279 N 0.55919 0.25522 0.34406 0.0
C1280 C 0.58802 0.24324 0.311 0.0
C1281 C 0.60704 0.25804 0.32217 0.0
H1282 H 0.57269 0.28049 0.37199 0.0
H1283 H 0.5495 0.23024 0.31423 0.0
C1284 C 0.48546 0.18951 0.42719 0.0
N1285 N 0.5064 0.19835 0.41493 0.0
C1286 C 0.48585 0.16558 0.43886 0.0
C1287 C 0.52936 0.16035 0.42525 0.0
C1288 C 0.52823 0.1845 0.4141 0.0
C1289 C 0.50788 0.15059 0.43758 0.0
H1290 H 0.46819 0.20062 0.42714 0.0
H1291 H 0.54437 0.19166 0.40366 0.0
O1292 O 0.50305 0.28173 0.35799 0.0
O1293 O 0.47294 0.24993 0.39676 0.0
O1294 O 0.50585 0.22336 0.3581 0.0
O1295 O 0.5314 0.25512 0.39965 0.0
H1296 H 0.48928 0.3293 0.3667 0.0
H1297 H 0.5184 0.27793 0.31023 0.0
H1298 H 0.49094 0.3642 0.33496 0.0
H1299 H 0.51949 0.3138 0.27937 0.0
H1300 H 0.44439 0.25831 0.47779 0.0
H1301 H 0.42591 0.26376 0.38612 0.0
H1302 H 0.47862 0.24885 0.44666 0.0
H1303 H 0.39264 0.27283 0.41825 0.0
H1304 H 0.42037 0.28301 0.29255 0.0
H1305 H 0.39906 0.21442 0.33237 0.0
H1306 H 0.53698 0.35053 0.43972 0.0
H1307 H 0.45549 0.3514 0.4331 0.0
H1308 H 0.51737 0.17468 0.36406 0.0
H1309 H 0.49389 0.23152 0.30988 0.0
H1310 H 0.51641 0.14248 0.32996 0.0
H1311 H 0.49301 0.19815 0.27669 0.0
H1312 H 0.57433 0.23033 0.39066 0.0
H1313 H 0.52972 0.26746 0.44825 0.0
H1314 H 0.60846 0.2236 0.42224 0.0
H1315 H 0.56457 0.25978 0.47896 0.0
H1316 H 0.61561 0.28312 0.35349 0.0
H1317 H 0.59164 0.23303 0.29355 0.0
H1318 H 0.46887 0.15844 0.44802 0.0
H1319 H 0.54651 0.1491 0.42366 0.0
Li1320 Li 0.50404 0.77242 0.10821 0.0
Li1321 Li 0.52661 0.75065 0.14352 0.0
Li1322 Li 0.50228 0.72624 0.11101 0.0
Li1323 Li 0.48024 0.75155 0.14449 0.0
C1324 C 0.55063 0.75337 0.08914 0.0
N1325 N 0.58841 0.76278 0.05395 0.0
C1326 C 0.57407 0.76277 0.097 0.0
C1327 C 0.54634 0.74884 0.06341 0.0
C1328 C 0.59295 0.76738 0.07891 0.0
C1329 C 0.5657 0.75374 0.0459 0.0
C1330 C 0.5043 0.79955 0.16288 0.0
C1331 C 0.49811 0.81354 0.20598 0.0
N1332 N 0.50354 0.83777 0.19865 0.0
C1333 C 0.50973 0.82458 0.15576 0.0
C1334 C 0.49841 0.79393 0.18818 0.0
C1335 C 0.50932 0.84363 0.17414 0.0
C1336 C 0.4841 0.8066 0.07208 0.0
N1337 N 0.50527 0.80017 0.08531 0.0
C1338 C 0.52723 0.8365 0.06924 0.0
C1339 C 0.52682 0.81421 0.0837 0.0
C1340 C 0.50526 0.84411 0.05638 0.0
C1341 C 0.48378 0.82852 0.05711 0.0
H1342 H 0.46703 0.79553 0.07423 0.0
H1343 H 0.5432 0.80888 0.09481 0.0
C1344 C 0.57023 0.72734 0.15729 0.0
N1345 N 0.55604 0.74822 0.1627 0.0
C1346 C 0.59351 0.72365 0.16904 0.0
C1347 C 0.58663 0.76266 0.19239 0.0
C1348 C 0.56352 0.76573 0.17997 0.0
C1349 C 0.60188 0.74154 0.18664 0.0
H1350 H 0.56358 0.71387 0.14338 0.0
H1351 H 0.55185 0.78219 0.18374 0.0
C1352 C 0.45464 0.74466 0.09064 0.0
N1353 N 0.41587 0.73567 0.05678 0.0
C1354 C 0.43001 0.74039 0.09951 0.0
C1355 C 0.45963 0.74411 0.06458 0.0
C1356 C 0.41065 0.73591 0.08208 0.0
C1357 C 0.43974 0.73961 0.04776 0.0
C1358 C 0.5041 0.70306 0.16565 0.0
C1359 C 0.49745 0.67829 0.15891 0.0
C1360 C 0.51141 0.70822 0.19056 0.0
C1361 C 0.49823 0.65904 0.17723 0.0
C1362 C 0.51199 0.68841 0.20833 0.0
N1363 N 0.50543 0.66445 0.20136 0.0
C1364 C 0.52648 0.68696 0.08627 0.0
C1365 C 0.48174 0.68237 0.08848 0.0
C1366 C 0.52888 0.66385 0.07372 0.0
N1367 N 0.50319 0.69578 0.09303 0.0
C1368 C 0.4833 0.65892 0.0764 0.0
C1369 C 0.50709 0.64964 0.06872 0.0
H1370 H 0.5432 0.69788 0.09069 0.0
H1371 H 0.46356 0.68973 0.09457 0.0
C1372 C 0.43764 0.7743 0.16659 0.0
N1373 N 0.45186 0.75273 0.16621 0.0
C1374 C 0.4154 0.77519 0.18094 0.0
C1375 C 0.42356 0.73207 0.19505 0.0
C1376 C 0.44545 0.73191 0.18021 0.0
C1377 C 0.40806 0.75369 0.19492 0.0
H1378 H 0.44323 0.79048 0.15514 0.0
H1379 H 0.45678 0.71487 0.17927 0.0
O1380 O 0.53237 0.74763 0.1067 0.0
O1381 O 0.50414 0.78085 0.14495 0.0
O1382 O 0.47344 0.75056 0.1074 0.0
O1383 O 0.503 0.72216 0.14798 0.0
H1384 H 0.57771 0.76637 0.11685 0.0
H1385 H 0.52833 0.74142 0.05709 0.0
H1386 H 0.61123 0.77454 0.08473 0.0
H1387 H 0.56271 0.75024 0.02592 0.0
H1388 H 0.49353 0.80952 0.22562 0.0
H1389 H 0.51417 0.82927 0.13622 0.0
H1390 H 0.49408 0.77465 0.19397 0.0
H1391 H 0.51353 0.86308 0.16889 0.0
H1392 H 0.54383 0.84856 0.06953 0.0
H1393 H 0.46632 0.83441 0.04801 0.0
H1394 H 0.60504 0.70728 0.16422 0.0
H1395 H 0.59283 0.7768 0.20588 0.0
H1396 H 0.42581 0.74086 0.11963 0.0
H1397 H 0.47859 0.74752 0.05744 0.0
H1398 H 0.39146 0.73276 0.08866 0.0
H1399 H 0.44325 0.73938 0.02752 0.0
H1400 H 0.49154 0.67397 0.13982 0.0
H1401 H 0.51645 0.72732 0.19611 0.0
H1402 H 0.49306 0.63981 0.17227 0.0
H1403 H 0.5176 0.69209 0.2277 0.0
H1404 H 0.54742 0.65721 0.0678 0.0
H1405 H 0.46614 0.64836 0.07258 0.0
H1406 H 0.40359 0.79206 0.18043 0.0
H1407 H 0.41811 0.71515 0.20552 0.0
Li1408 Li 0.8976 0.00038 0.77268 0.0
Li1409 Li 0.86313 0.97631 0.75072 0.0
Li1410 Li 0.89692 0.00035 0.725 0.0
Li1411 Li 0.86263 0.0239 0.74852 0.0
C1412 C 0.9164 0.95078 0.75187 0.0
N1413 N 0.94766 0.90874 0.75579 0.0
C1414 C 0.9077 0.92867 0.76381 0.0
C1415 C 0.94101 0.95157 0.74201 0.0
C1416 C 0.92377 0.90758 0.76552 0.0
C1417 C 0.95655 0.93014 0.74424 0.0
C1418 C 0.84265 -0.00028 0.79775 0.0
C1419 C 0.80062 0.00813 0.81382 0.0
N1420 N 0.80684 0.99633 0.83598 0.0
C1421 C 0.84864 0.98764 0.82066 0.0
C1422 C 0.81846 0.01002 0.79423 0.0
C1423 C 0.83026 0.98613 0.83977 0.0
C1424 C 0.90953 0.01596 0.82189 0.0
N1425 N 0.91844 0.0018 0.80225 0.0
C1426 C 0.95541 0.99043 0.82604 0.0
C1427 C 0.94101 0.98927 0.80381 0.0
C1428 C 0.94627 0.00442 0.84677 0.0
C1429 C 0.92316 0.01743 0.84451 0.0
H1430 H 0.89167 0.02594 0.82003 0.0
H1431 H 0.94784 0.97839 0.78787 0.0
C1432 C 0.84667 0.92876 0.73283 0.0
N1433 N 0.84289 0.94598 0.75167 0.0
C1434 C 0.83326 0.90586 0.73279 0.0
C1435 C 0.81205 0.91887 0.77133 0.0
C1436 C 0.8259 0.94145 0.77069 0.0
C1437 C 0.81578 0.90079 0.75227 0.0
H1438 H 0.86025 0.93281 0.71792 0.0
H1439 H 0.82298 0.95523 0.78543 0.0
C1440 C 0.91719 0.04856 0.74742 0.0
N1441 N 0.95216 0.08752 0.74632 0.0
C1442 C 0.90987 0.07297 0.73975 0.0
C1443 C 0.9423 0.04391 0.75444 0.0
C1444 C 0.92784 0.09241 0.7393 0.0
C1445 C 0.9597 0.06389 0.75381 0.0
C1446 C 0.84221 -0.00141 0.70147 0.0
C1447 C 0.84924 0.00587 0.67688 0.0
C1448 C 0.81731 0.99097 0.7064 0.0
C1449 C 0.83118 0.00545 0.65757 0.0
C1450 C 0.79979 0.99084 0.68656 0.0
N1451 N 0.80703 -0.00198 0.66277 0.0
C1452 C 0.92181 0.97947 0.68216 0.0
C1453 C 0.92183 0.02452 0.68386 0.0
C1454 C 0.93411 0.98006 0.65863 0.0
N1455 N 0.91602 0.00151 0.69426 0.0
C1456 C 0.93401 0.02599 0.66029 0.0
C1457 C 0.94025 0.00354 0.64747 0.0
H1458 H 0.91649 0.96147 0.69061 0.0
H1459 H 0.91644 0.04176 0.69357 0.0
C1460 C 0.84586 0.07077 0.767 0.0
N1461 N 0.84267 0.05398 0.74775 0.0
C1462 C 0.83209 0.09348 0.76736 0.0
C1463 C 0.81195 0.08111 0.72815 0.0
C1464 C 0.8263 0.05878 0.7284 0.0
C1465 C 0.81485 0.09867 0.74779 0.0
H1466 H 0.8591 0.06644 0.78207 0.0
H1467 H 0.82421 0.04532 0.71321 0.0
O1468 O 0.90053 0.97114 0.74878 0.0
O1469 O 0.86046 0.00158 0.77892 0.0
O1470 O 0.89966 0.02952 0.74863 0.0
O1471 O 0.85969 -0.00117 0.72055 0.0
H1472 H 0.88868 0.92773 0.77152 0.0
H1473 H 0.94799 0.96857 0.7327 0.0
H1474 H 0.91723 0.89026 0.77453 0.0
H1475 H 0.97565 0.93047 0.73671 0.0
H1476 H 0.78182 0.01603 0.81139 0.0
H1477 H 0.86723 0.97938 0.82359 0.0
H1478 H 0.81348 0.0193 0.77655 0.0
H1479 H 0.83461 0.97682 0.85759 0.0
H1480 H 0.97326 0.98028 0.82722 0.0
H1481 H 0.91566 0.02843 0.86017 0.0
H1482 H 0.83628 0.89236 0.71761 0.0
H1483 H 0.79845 0.91558 0.78644 0.0
H1484 H 0.89053 0.07684 0.73412 0.0
H1485 H 0.94827 0.02511 0.76037 0.0
H1486 H 0.92243 0.11139 0.73341 0.0
H1487 H 0.97919 0.06063 0.75929 0.0
H1488 H 0.86842 0.01184 0.67274 0.0
H1489 H 0.81159 0.98532 0.72535 0.0
H1490 H 0.83635 0.01105 0.63846 0.0
H1491 H 0.78043 0.98504 0.69007 0.0
H1492 H 0.93857 0.96241 0.64907 0.0
H1493 H 0.93836 0.04438 0.65206 0.0
H1494 H 0.83441 0.10658 0.78297 0.0
H1495 H 0.79851 0.08453 0.713 0.0
Li1496 Li 0.75516 0.14307 0.52468 0.0
Li1497 Li 0.77713 0.10929 0.50015 0.0
Li1498 Li 0.75353 0.1458 0.479 0.0
Li1499 Li 0.73043 0.11088 0.50078 0.0
C1500 C 0.80262 0.16349 0.50697 0.0
N1501 N 0.84083 0.1979 0.51662 0.0
C1502 C 0.82709 0.15489 0.51251 0.0
C1503 C 0.79752 0.18957 0.50657 0.0
C1504 C 0.84616 0.17259 0.5173 0.0
C1505 C 0.81711 0.20667 0.51144 0.0
C1506 C 0.75399 0.08785 0.54833 0.0
C1507 C 0.74914 0.04435 0.56223 0.0
N1508 N 0.75484 0.05142 0.58634 0.0
C1509 C 0.75969 0.09465 0.57329 0.0
C1510 C 0.74857 0.06247 0.54274 0.0
C1511 C 0.76006 0.07598 0.59222 0.0
C1512 C 0.73216 0.1712 0.56241 0.0
N1513 N 0.75472 0.16143 0.55456 0.0
C1514 C 0.77477 0.17391 0.59281 0.0
C1515 C 0.77593 0.16276 0.56897 0.0
C1516 C 0.75178 0.18449 0.60123 0.0
C1517 C 0.73035 0.18334 0.58571 0.0
H1518 H 0.71549 0.16921 0.55076 0.0
H1519 H 0.79343 0.15433 0.56229 0.0
C1520 C 0.82165 0.08973 0.47831 0.0
N1521 N 0.80566 0.08745 0.49848 0.0
C1522 C 0.84366 0.07497 0.47713 0.0
C1523 C 0.83157 0.05496 0.5168 0.0
C1524 C 0.81024 0.07053 0.51753 0.0
C1525 C 0.8488 0.0576 0.49675 0.0
H1526 H 0.81759 0.10349 0.46352 0.0
H1527 H 0.79789 0.06947 0.53371 0.0
C1528 C 0.70738 0.16614 0.49844 0.0
N1529 N 0.67115 0.20325 0.48999 0.0
C1530 C 0.68225 0.15937 0.49363 0.0
C1531 C 0.71406 0.19181 0.49909 0.0
C1532 C 0.66423 0.17839 0.48937 0.0
C1533 C 0.69547 0.21029 0.49471 0.0
C1534 C 0.75126 0.09072 0.45268 0.0
C1535 C 0.74521 0.09762 0.42776 0.0
C1536 C 0.75606 0.06524 0.45862 0.0
C1537 C 0.74397 0.07886 0.40915 0.0
C1538 C 0.75469 0.04704 0.43943 0.0
N1539 N 0.74873 0.05417 0.41531 0.0
C1540 C 0.77346 0.18122 0.44408 0.0
C1541 C 0.73051 0.16964 0.43758 0.0
C1542 C 0.77341 0.19579 0.42191 0.0
N1543 N 0.75235 0.16821 0.45113 0.0
C1544 C 0.72972 0.1837 0.4151 0.0
C1545 C 0.75159 0.19633 0.40684 0.0
H1546 H 0.79071 0.17924 0.45489 0.0
H1547 H 0.71415 0.15877 0.44353 0.0
C1548 C 0.69123 0.08414 0.52411 0.0
N1549 N 0.70029 0.09252 0.5014 0.0
C1550 C 0.66777 0.07222 0.52552 0.0
C1551 C 0.66258 0.07974 0.48043 0.0
C1552 C 0.68667 0.09047 0.4797 0.0
C1553 C 0.65309 0.07022 0.50353 0.0
H1554 H 0.70194 0.08716 0.54124 0.0
H1555 H 0.69416 0.09802 0.46208 0.0
O1556 O 0.7842 0.14642 0.50062 0.0
O1557 O 0.75387 0.10593 0.52952 0.0
O1558 O 0.72508 0.14772 0.50338 0.0
O1559 O 0.75334 0.10903 0.47086 0.0
H1560 H 0.8314 0.13476 0.51278 0.0
H1561 H 0.77875 0.19655 0.50209 0.0
H1562 H 0.86524 0.16621 0.52141 0.0
H1563 H 0.8135 0.22692 0.51095 0.0
H1564 H 0.74508 0.02464 0.55817 0.0
H1565 H 0.76384 0.11408 0.57808 0.0
H1566 H 0.74415 0.05685 0.52353 0.0
H1567 H 0.76451 0.08103 0.61158 0.0
H1568 H 0.79165 0.17465 0.60444 0.0
H1569 H 0.71243 0.19151 0.5917 0.0
H1570 H 0.8568 0.07745 0.46148 0.0
H1571 H 0.83524 0.04185 0.53229 0.0
H1572 H 0.67659 0.13967 0.49351 0.0
H1573 H 0.73334 0.19738 0.50308 0.0
H1574 H 0.64471 0.17338 0.48569 0.0
H1575 H 0.70036 0.23023 0.49517 0.0
H1576 H 0.74167 0.1173 0.42281 0.0
H1577 H 0.761 0.05964 0.47777 0.0
H1578 H 0.73934 0.08394 0.38978 0.0
H1579 H 0.75845 0.02725 0.4437 0.0
H1580 H 0.79075 0.20483 0.41554 0.0
H1581 H 0.71283 0.18337 0.40347 0.0
H1582 H 0.66094 0.06504 0.54359 0.0
H1583 H 0.6516 0.07848 0.46314 0.0
Li1584 Li 0.60986 0.00168 0.27646 0.0
Li1585 Li 0.64482 0.0248 0.25348 0.0
Li1586 Li 0.6106 0.00191 0.22965 0.0
Li1587 Li 0.64462 0.97781 0.25316 0.0
C1588 C 0.59104 0.05061 0.25256 0.0
N1589 N 0.55687 0.09047 0.25191 0.0
C1590 C 0.59862 0.07486 0.26009 0.0
C1591 C 0.5661 0.0466 0.24469 0.0
C1592 C 0.58105 0.09477 0.25962 0.0
C1593 C 0.5491 0.06701 0.24451 0.0
C1594 C 0.66428 0.00277 0.30179 0.0
C1595 C 0.70664 0.99677 0.3178 0.0
N1596 N 0.69888 0.00533 0.34089 0.0
C1597 C 0.65671 0.01152 0.32566 0.0
C1598 C 0.68941 0.99532 0.29776 0.0
C1599 C 0.67451 0.01268 0.34519 0.0
C1600 C 0.5915 0.98065 0.32116 0.0
N1601 N 0.58862 0.00082 0.30521 0.0
C1602 C 0.55636 0.01852 0.33169 0.0
C1603 C 0.57136 0.01949 0.30988 0.0
C1604 C 0.55963 -0.00162 0.34888 0.0
C1605 C 0.57712 0.97907 0.34335 0.0
H1606 H 0.60532 0.96606 0.31678 0.0
H1607 H 0.56948 0.03535 0.297 0.0
C1608 C 0.66093 0.0677 0.22952 0.0
N1609 N 0.66479 0.05421 0.25122 0.0
C1610 C 0.67369 0.09046 0.22538 0.0
C1611 C 0.69464 0.08477 0.26586 0.0
C1612 C 0.68132 0.06208 0.26929 0.0
C1613 C 0.69058 0.09919 0.24376 0.0
H1614 H 0.64761 0.06084 0.21558 0.0
H1615 H 0.68393 0.05099 0.2864 0.0
C1616 C 0.59011 0.95313 0.25179 0.0
N1617 N 0.55569 0.9137 0.25022 0.0
C1618 C 0.59738 0.92948 0.24217 0.0
C1619 C 0.56532 0.95679 0.26053 0.0
C1620 C 0.5797 0.90977 0.24156 0.0
C1621 C 0.5482 0.9366 0.25958 0.0
C1622 C 0.66393 0.00092 0.20404 0.0
C1623 C 0.65579 0.99125 0.1808 0.0
C1624 C 0.68863 0.01013 0.20641 0.0
C1625 C 0.67258 0.99094 0.16024 0.0
C1626 C 0.70486 0.00941 0.18541 0.0
N1627 N 0.69656 -7e-05 0.16295 0.0
C1628 C 0.59499 0.02511 0.18506 0.0
C1629 C 0.57204 0.98759 0.19501 0.0
C1630 C 0.58114 0.0285 0.16277 0.0
N1631 N 0.59041 0.00475 0.20039 0.0
C1632 C 0.5576 0.99037 0.17307 0.0
C1633 C 0.56235 0.01087 0.1566 0.0
H1634 H 0.60967 0.03848 0.19003 0.0
H1635 H 0.56875 0.97163 0.20751 0.0
C1636 C 0.65909 0.93043 0.27187 0.0
N1637 N 0.66538 0.94852 0.25447 0.0
C1638 C 0.67325 0.90807 0.27364 0.0
C1639 C 0.70076 0.92388 0.2403 0.0
C1640 C 0.68588 0.94582 0.23898 0.0
C1641 C 0.69416 0.90459 0.25751 0.0
H1642 H 0.64283 0.9333 0.28411 0.0
H1643 H 0.69065 0.96055 0.22552 0.0
O1644 O 0.60802 0.03095 0.25291 0.0
O1645 O 0.64691 0.00079 0.28274 0.0
O1646 O 0.6074 0.97238 0.25321 0.0
O1647 O 0.6476 0.00184 0.22421 0.0
H1648 H 0.61783 0.07824 0.26635 0.0
H1649 H 0.55992 0.02788 0.23899 0.0
H1650 H 0.58664 0.11364 0.26541 0.0
H1651 H 0.52972 0.0642 0.23853 0.0
H1652 H 0.72615 0.99104 0.315 0.0
H1653 H 0.63728 0.01726 0.32907 0.0
H1654 H 0.69552 0.98846 0.27939 0.0
H1655 H 0.66892 0.01936 0.36378 0.0
H1656 H 0.54302 0.03371 0.3356 0.0
H1657 H 0.58 0.96331 0.35636 0.0
H1658 H 0.67024 0.1013 0.20819 0.0
H1659 H 0.70758 0.09124 0.28036 0.0
H1660 H 0.61649 0.92638 0.23528 0.0
H1661 H 0.55938 0.97501 0.26797 0.0
H1662 H 0.58509 0.89135 0.23424 0.0
H1663 H 0.52896 0.93911 0.2663 0.0
H1664 H 0.63671 0.98408 0.17867 0.0
H1665 H 0.69521 0.01762 0.22431 0.0
H1666 H 0.66654 0.98355 0.14212 0.0
H1667 H 0.72405 0.0164 0.18697 0.0
H1668 H 0.58535 0.04435 0.15026 0.0
H1669 H 0.54333 0.97633 0.16859 0.0
H1670 H 0.6678 0.89349 0.28718 0.0
H1671 H 0.71685 0.92168 0.22767 0.0
Li1672 Li 0.72575 0.8924 0.00875 0.0
Li1673 Li 0.74758 0.85716 0.03068 0.0
Li1674 Li 0.77272 0.89183 0.00881 0.0
Li1675 Li 0.74915 0.85912 0.98364 0.0
C1676 C 0.74789 0.91325 0.05545 0.0
N1677 N 0.74712 0.95171 0.09099 0.0
C1678 C 0.73974 0.90832 0.08027 0.0
C1679 C 0.75579 0.93772 0.04873 0.0
C1680 C 0.73942 0.92802 0.09794 0.0
C1681 C 0.75523 0.95692 0.06698 0.0
C1682 C 0.7018 0.83702 0.01105 0.0
C1683 C 0.6871 0.79391 0.0067 0.0
N1684 N 0.66493 0.80047 0.01825 0.0
C1685 C 0.67897 0.84327 0.02308 0.0
C1686 C 0.706 0.81211 0.00292 0.0
C1687 C 0.66054 0.82454 0.02649 0.0
C1688 C 0.67822 0.90078 0.99197 0.0
N1689 N 0.69557 0.91118 0.00778 0.0
C1690 C 0.66672 0.94422 0.01929 0.0
C1691 C 0.69038 0.9324 0.02151 0.0
C1692 C 0.64842 0.93355 0.00331 0.0
C1693 C 0.65422 0.91142 0.98981 0.0
H1694 H 0.68307 0.88402 0.98117 0.0
H1695 H 0.70454 0.94025 0.03394 0.0
C1696 C 0.76616 0.82395 0.06869 0.0
N1697 N 0.74559 0.83715 0.0604 0.0
C1698 C 0.76579 0.8124 0.09258 0.0
C1699 C 0.72319 0.82842 0.09895 0.0
C1700 C 0.72421 0.83926 0.07475 0.0
C1701 C 0.74423 0.81493 0.10806 0.0
H1702 H 0.78318 0.82329 0.05723 0.0
H1703 H 0.70849 0.85057 0.06795 0.0
C1704 C 0.74941 0.91412 0.9607 0.0
N1705 N 0.74814 0.94922 0.92154 0.0
C1706 C 0.75788 0.90741 0.93646 0.0
C1707 C 0.74038 0.93871 0.96507 0.0
C1708 C 0.75707 0.92541 0.91691 0.0
C1709 C 0.73988 0.95618 0.94499 0.0
C1710 C 0.79609 0.837 0.00197 0.0
C1711 C 0.82004 0.84533 0.99417 0.0
C1712 C 0.79139 0.81099 0.0045 0.0
C1713 C 0.83905 0.82744 0.98934 0.0
C1714 C 0.8109 0.79369 -0.00054 0.0
N1715 N 0.83414 0.80221 0.99211 0.0
C1716 C 0.81866 0.90483 0.03051 0.0
C1717 C 0.80943 0.92886 0.9934 0.0
C1718 C 0.84229 0.91645 0.03263 0.0
N1719 N 0.80299 0.91095 0.01096 0.0
C1720 C 0.83283 0.94112 0.99492 0.0
C1721 C 0.84959 0.93467 0.01457 0.0
H1722 H 0.81299 0.89041 0.04407 0.0
H1723 H 0.79666 0.93329 0.978 0.0
C1724 C 0.72451 0.83589 0.94266 0.0
N1725 N 0.74775 0.84141 0.9523 0.0
C1726 C 0.72236 0.82415 0.91902 0.0
C1727 C 0.76805 0.82511 0.9152 0.0
C1728 C 0.76935 0.83632 0.93912 0.0
C1729 C 0.74434 0.81869 0.90502 0.0
H1730 H 0.70763 0.84069 0.95332 0.0
H1731 H 0.78753 0.84142 0.94697 0.0
O1732 O 0.74897 0.89397 0.03815 0.0
O1733 O 0.71935 0.85549 0.00605 0.0
O1734 O 0.74944 0.89649 0.97986 0.0
O1735 O 0.77775 0.8543 0.00819 0.0
H1736 H 0.73383 0.88948 0.08591 0.0
H1737 H 0.76224 0.94185 0.02963 0.0
H1738 H 0.73314 0.92444 0.1172 0.0
H1739 H 0.76126 0.97595 0.06207 0.0
H1740 H 0.68999 0.7746 0.00032 0.0
H1741 H 0.67545 0.86242 0.02965 0.0
H1742 H 0.72355 0.80698 0.99351 0.0
H1743 H 0.64272 0.82917 0.03562 0.0
H1744 H 0.66277 0.96149 0.02972 0.0
H1745 H 0.64053 0.90296 0.97712 0.0
H1746 H 0.78247 0.80244 0.09935 0.0
H1747 H 0.70651 0.83105 0.1107 0.0
H1748 H 0.76503 0.88853 0.93275 0.0
H1749 H 0.73378 0.94421 0.98373 0.0
H1750 H 0.76353 0.92044 0.89805 0.0
H1751 H 0.73288 0.97528 0.94806 0.0
H1752 H 0.824 0.86539 0.99204 0.0
H1753 H 0.77296 0.80428 0.01059 0.0
H1754 H 0.85773 0.83362 0.98349 0.0
H1755 H 0.80761 0.7735 0.00152 0.0
H1756 H 0.85491 0.91105 0.04792 0.0
H1757 H 0.83805 0.95509 0.98067 0.0
H1758 H 0.70382 0.81924 0.91181 0.0
H1759 H 0.78539 0.82101 0.90492 0.0
Li1760 Li 0.25534 0.643 0.0248 0.0
Li1761 Li 0.27633 0.60935 -0.00106 0.0
Li1762 Li 0.25409 0.64702 0.97883 0.0
Li1763 Li 0.22975 0.61242 -0.00041 0.0
C1764 C 0.30288 0.66377 0.00608 0.0
N1765 N 0.34088 0.699 0.01334 0.0
C1766 C 0.32748 0.65571 0.01186 0.0
C1767 C 0.29751 0.68975 0.00432 0.0
C1768 C 0.34644 0.67381 0.01542 0.0
C1769 C 0.31702 0.70726 0.00796 0.0
C1770 C 0.25257 0.58826 0.04715 0.0
C1771 C 0.24109 0.5469 0.06337 0.0
N1772 N 0.25121 0.55306 0.08624 0.0
C1773 C 0.26295 0.59412 0.07078 0.0
C1774 C 0.24155 0.56445 0.04337 0.0
C1775 C 0.26202 0.57611 0.09032 0.0
C1776 C 0.23126 0.66705 0.06428 0.0
N1777 N 0.25454 0.66022 0.05551 0.0
C1778 C 0.27429 0.67537 0.09298 0.0
C1779 C 0.27593 0.66416 0.06915 0.0
C1780 C 0.25049 0.68302 0.1023 0.0
C1781 C 0.2288 0.67894 0.08769 0.0
H1782 H 0.21458 0.66313 0.05314 0.0
H1783 H 0.2941 0.65812 0.06173 0.0
C1784 C 0.32289 0.59296 0.98018 0.0
N1785 N 0.30416 0.58675 0.99682 0.0
C1786 C 0.34499 0.57842 0.97917 0.0
C1787 C 0.3275 0.55056 0.01143 0.0
C1788 C 0.30583 0.5658 0.01199 0.0
C1789 C 0.34753 0.5573 0.99528 0.0
H1790 H 0.32093 0.60968 0.9683 0.0
H1791 H 0.29067 0.56115 0.02492 0.0
C1792 C 0.20743 0.66719 -0.00092 0.0
N1793 N 0.16989 0.70321 0.99201 0.0
C1794 C 0.18338 0.65988 0.99082 0.0
C1795 C 0.21241 0.69281 0.00372 0.0
C1796 C 0.16465 0.67837 0.98738 0.0
C1797 C 0.19317 0.71074 0.0 0.0
C1798 C 0.25103 0.59245 0.95119 0.0
C1799 C 0.24595 0.59965 0.92614 0.0
C1800 C 0.25503 0.56684 0.95713 0.0
C1801 C 0.24491 0.58103 0.90737 0.0
C1802 C 0.25394 0.54879 0.93778 0.0
N1803 N 0.24893 0.5562 0.91352 0.0
C1804 C 0.27556 0.68073 0.94304 0.0
C1805 C 0.23115 0.6745 0.93962 0.0
C1806 C 0.27557 0.69593 0.92128 0.0
N1807 N 0.2536 0.67016 0.95149 0.0
C1808 C 0.23028 0.68952 0.9178 0.0
C1809 C 0.25281 0.69979 0.90816 0.0
H1810 H 0.29324 0.67632 0.9524 0.0
H1811 H 0.21416 0.66518 0.94627 0.0
C1812 C 0.18716 0.5949 0.02352 0.0
N1813 N 0.19952 0.59454 0.00095 0.0
C1814 C 0.16447 0.58178 0.02655 0.0
C1815 C 0.16667 0.57013 0.98253 0.0
C1816 C 0.18935 0.5834 0.98029 0.0
C1817 C 0.15493 0.56676 0.00659 0.0
H1818 H 0.1949 0.60566 0.03912 0.0
H1819 H 0.19859 0.58518 0.96203 0.0
O1820 O 0.28455 0.64622 0.00093 0.0
O1821 O 0.25297 0.60584 0.02793 0.0
O1822 O 0.22571 0.6492 0.00335 0.0
O1823 O 0.25259 0.61058 0.96961 0.0
H1824 H 0.33195 0.63567 0.01335 0.0
H1825 H 0.27859 0.69628 -0.00025 0.0
H1826 H 0.3656 0.66783 0.0197 0.0
H1827 H 0.31323 0.72743 0.00636 0.0
H1828 H 0.23268 0.52838 0.06071 0.0
H1829 H 0.27172 0.61232 0.07402 0.0
H1830 H 0.23362 0.55952 0.02513 0.0
H1831 H 0.26993 0.58044 0.10871 0.0
H1832 H 0.29138 0.67854 0.10384 0.0
H1833 H 0.21027 0.68492 0.09432 0.0
H1834 H 0.36025 0.58397 0.96652 0.0
H1835 H 0.32909 0.53436 0.0241 0.0
H1836 H 0.17917 0.64014 0.98713 0.0
H1837 H 0.23089 0.69872 0.01026 0.0
H1838 H 0.14594 0.67297 0.98106 0.0
H1839 H 0.19671 0.73065 0.00356 0.0
H1840 H 0.24289 0.61944 0.92126 0.0
H1841 H 0.259 0.56098 0.97645 0.0
H1842 H 0.24098 0.58632 0.8879 0.0
H1843 H 0.2571 0.5289 0.94204 0.0
H1844 H 0.29334 0.70297 0.91371 0.0
H1845 H 0.21263 0.69158 0.90753 0.0
H1846 H 0.15464 0.5843 0.04431 0.0
H1847 H 0.15856 0.56317 0.96514 0.0
Li1848 Li 0.14416 0.52587 0.75293 0.0
Li1849 Li 0.10995 0.5015 0.77558 0.0
Li1850 Li 0.1461 0.4791 0.75314 0.0
Li1851 Li 0.11154 0.501 0.72863 0.0
C1852 C 0.16418 0.50372 0.80163 0.0
N1853 N 0.19888 0.50504 0.84074 0.0
C1854 C 0.15656 0.51121 0.82591 0.0
C1855 C 0.18945 0.49699 0.79717 0.0
C1856 C 0.17439 0.51175 0.84544 0.0
C1857 C 0.2067 0.49775 0.81723 0.0
C1858 C 0.09041 0.55014 0.75176 0.0
C1859 C 0.04934 0.56803 0.74247 0.0
N1860 N 0.05696 0.59062 0.75227 0.0
C1861 C 0.09785 0.5735 0.76179 0.0
C1862 C 0.066 0.54734 0.74198 0.0
C1863 C 0.08066 0.59376 0.76182 0.0
C1864 C 0.15961 0.56989 0.72969 0.0
N1865 N 0.16293 0.55592 0.75119 0.0
C1866 C 0.1918 0.58638 0.76763 0.0
C1867 C 0.17863 0.56355 0.77005 0.0
C1868 C 0.18851 0.60123 0.7457 0.0
C1869 C 0.17227 0.59288 0.72654 0.0
H1870 H 0.14692 0.56317 0.71511 0.0
H1871 H 0.18077 0.55212 0.78698 0.0
C1872 C 0.09326 0.4818 0.82165 0.0
N1873 N 0.08839 0.50026 0.80418 0.0
C1874 C 0.07892 0.48039 0.84388 0.0
C1875 C 0.05406 0.51625 0.82913 0.0
C1876 C 0.06908 0.51716 0.80732 0.0
C1877 C 0.05935 0.49803 0.84788 0.0
H1878 H 0.10865 0.46854 0.81846 0.0
H1879 H 0.0655 0.53156 0.79316 0.0
C1880 C 0.16555 0.50103 0.70433 0.0
N1881 N 0.1992 0.49826 0.66417 0.0
C1882 C 0.15874 0.4884 0.68211 0.0
C1883 C 0.18949 0.51216 0.70621 0.0
C1884 C 0.17601 0.48729 0.66197 0.0
C1885 C 0.20625 0.51052 0.68569 0.0
C1886 C 0.09212 0.45232 0.75159 0.0
C1887 C 0.09975 0.42844 0.74287 0.0
C1888 C 0.06722 0.45599 0.75999 0.0
C1889 C 0.08225 0.40855 0.74265 0.0
C1890 C 0.05029 0.43561 0.75946 0.0
N1891 N 0.0581 0.41252 0.75089 0.0
C1892 C 0.16269 0.43361 0.77371 0.0
C1893 C 0.18765 0.44715 0.73863 0.0
C1894 C 0.17665 0.41116 0.77561 0.0
N1895 N 0.16802 0.45072 0.75507 0.0
C1896 C 0.20226 0.42502 0.73996 0.0
C1897 C 0.19628 0.40656 0.75824 0.0
H1898 H 0.14707 0.43712 0.7866 0.0
H1899 H 0.19166 0.46108 0.7241 0.0
C1900 C 0.10007 0.51926 0.68082 0.0
N1901 N 0.0922 0.50234 0.69874 0.0
C1902 C 0.08702 0.52163 0.65798 0.0
C1903 C 0.05737 0.48983 0.67297 0.0
C1904 C 0.07121 0.48784 0.69541 0.0
C1905 C 0.06544 0.50676 0.65397 0.0
H1906 H 0.11667 0.53075 0.68426 0.0
H1907 H 0.0652 0.47478 0.71007 0.0
O1908 O 0.1468 0.50249 0.78251 0.0
O1909 O 0.10706 0.5302 0.75132 0.0
O1910 O 0.14866 0.50292 0.72397 0.0
O1911 O 0.10922 0.47176 0.75264 0.0
H1912 H 0.13707 0.51653 0.82963 0.0
H1913 H 0.19565 0.49122 0.77846 0.0
H1914 H 0.16876 0.51747 0.86434 0.0
H1915 H 0.22631 0.49253 0.81411 0.0
H1916 H 0.03034 0.56612 0.73507 0.0
H1917 H 0.11666 0.57596 0.7695 0.0
H1918 H 0.05993 0.52932 0.73429 0.0
H1919 H 0.08616 0.61197 0.76947 0.0
H1920 H 0.20417 0.59256 0.78275 0.0
H1921 H 0.16935 0.60411 0.7095 0.0
H1922 H 0.08335 0.46607 0.85805 0.0
H1923 H 0.03902 0.53007 0.83176 0.0
H1924 H 0.1403 0.47962 0.6804 0.0
H1925 H 0.19508 0.52188 0.72335 0.0
H1926 H 0.17096 0.4777 0.64459 0.0
H1927 H 0.22486 0.51901 0.68686 0.0
H1928 H 0.119 0.42529 0.7364 0.0
H1929 H 0.061 0.47438 0.76676 0.0
H1930 H 0.08789 0.38995 0.73598 0.0
H1931 H 0.03096 0.43816 0.76589 0.0
H1932 H 0.17162 0.3971 0.78984 0.0
H1933 H 0.2172 0.42177 0.72618 0.0
H1934 H 0.09367 0.53478 0.64356 0.0
H1935 H 0.04078 0.47807 0.67027 0.0
Li1936 Li 0.22415 0.39262 0.50963 0.0
Li1937 Li 0.24654 0.35719 0.53128 0.0
Li1938 Li 0.27137 0.39218 0.50916 0.0
Li1939 Li 0.24768 0.3594 0.48409 0.0
C1940 C 0.2468 0.41215 0.55702 0.0
N1941 N 0.24641 0.44826 0.59491 0.0
C1942 C 0.23828 0.40582 0.58139 0.0
C1943 C 0.25523 0.43682 0.55192 0.0
C1944 C 0.23819 0.42435 0.60028 0.0
C1945 C 0.25485 0.45482 0.57134 0.0
C1946 C 0.20136 0.33583 0.51131 0.0
C1947 C 0.18893 0.29215 0.50556 0.0
N1948 N 0.16649 0.29711 0.51736 0.0
C1949 C 0.17827 0.34037 0.52368 0.0
C1950 C 0.20685 0.31145 0.5024 0.0
C1951 C 0.16087 0.32061 0.52647 0.0
C1952 C 0.17433 0.39962 0.49868 0.0
N1953 N 0.1939 0.41179 0.50996 0.0
C1954 C 0.1672 0.44714 0.51993 0.0
C1955 C 0.19088 0.43508 0.52068 0.0
C1956 C 0.14653 0.43455 0.50891 0.0
C1957 C 0.1502 0.41017 0.4989 0.0
H1958 H 0.17749 0.38156 0.48953 0.0
H1959 H 0.20683 0.44445 0.52934 0.0
C1960 C 0.26701 0.32699 0.57071 0.0
N1961 N 0.24525 0.33694 0.56105 0.0
C1962 C 0.26678 0.31498 0.5944 0.0
C1963 C 0.22177 0.32343 0.59758 0.0
C1964 C 0.22288 0.33533 0.57388 0.0
C1965 C 0.24399 0.31343 0.6081 0.0
H1966 H 0.28466 0.32926 0.56048 0.0
H1967 H 0.20616 0.34444 0.56637 0.0
C1968 C 0.24868 0.41467 0.46138 0.0
N1969 N 0.24921 0.44986 0.42226 0.0
C1970 C 0.25803 0.40794 0.43747 0.0
C1971 C 0.23973 0.43934 0.46545 0.0
C1972 C 0.2581 0.42598 0.41792 0.0
C1973 C 0.24015 0.45686 0.44541 0.0
C1974 C 0.29508 0.33742 0.50305 0.0
C1975 C 0.31865 0.34573 0.49413 0.0
C1976 C 0.29112 0.31156 0.50767 0.0
C1977 C 0.33803 0.32799 0.49026 0.0
C1978 C 0.31098 0.29441 0.50354 0.0
N1979 N 0.33383 0.30292 0.49505 0.0
C1980 C 0.31805 0.4038 0.53001 0.0
C1981 C 0.30759 0.43067 0.49525 0.0
C1982 C 0.34177 0.41523 0.53222 0.0
N1983 N 0.30174 0.41137 0.5115 0.0
C1984 C 0.33106 0.44283 0.49696 0.0
C1985 C 0.34853 0.43476 0.51538 0.0
H1986 H 0.31283 0.38837 0.54261 0.0
H1987 H 0.2943 0.43632 0.4807 0.0
C1988 C 0.22389 0.33521 0.44282 0.0
N1989 N 0.2468 0.34166 0.45265 0.0
C1990 C 0.2224 0.32346 0.41912 0.0
C1991 C 0.268 0.32641 0.41557 0.0
C1992 C 0.26867 0.33746 0.4396 0.0
C1993 C 0.24466 0.31907 0.40517 0.0
H1994 H 0.20674 0.33928 0.45336 0.0
H1995 H 0.28658 0.34324 0.4476 0.0
O1996 O 0.24786 0.39396 0.53859 0.0
O1997 O 0.21789 0.35542 0.50687 0.0
O1998 O 0.24756 0.39695 0.48044 0.0
O1999 O 0.27641 0.35469 0.50838 0.0
H2000 H 0.23192 0.38677 0.58573 0.0
H2001 H 0.26199 0.44199 0.53318 0.0
H2002 H 0.23166 0.41969 0.61923 0.0
H2003 H 0.26131 0.47399 0.56769 0.0
H2004 H 0.19282 0.27325 0.49853 0.0
H2005 H 0.17385 0.35895 0.53123 0.0
H2006 H 0.22464 0.30754 0.49287 0.0
H2007 H 0.1429 0.32395 0.53586 0.0
H2008 H 0.16509 0.46612 0.52755 0.0
H2009 H 0.13477 0.40001 0.49005 0.0
H2010 H 0.28428 0.30766 0.60231 0.0
H2011 H 0.20403 0.32281 0.60797 0.0
H2012 H 0.26511 0.38902 0.43396 0.0
H2013 H 0.2325 0.44488 0.48385 0.0
H2014 H 0.26518 0.42097 0.3993 0.0
H2015 H 0.23322 0.47601 0.44825 0.0
H2016 H 0.32202 0.36567 0.49037 0.0
H2017 H 0.273 0.30488 0.51468 0.0
H2018 H 0.35642 0.33417 0.48355 0.0
H2019 H 0.30826 0.27435 0.50721 0.0
H2020 H 0.35491 0.40861 0.54658 0.0
H2021 H 0.33584 0.45786 0.48367 0.0
H2022 H 0.20412 0.31782 0.41176 0.0
H2023 H 0.28557 0.32315 0.40536 0.0
Li2024 Li 0.39581 0.50071 0.27432 0.0
Li2025 Li 0.36054 0.47637 0.2533 0.0
Li2026 Li 0.39391 0.49995 0.22692 0.0
Li2027 Li 0.36033 0.52408 0.25032 0.0
C2028 C 0.41435 0.45118 0.25093 0.0
N2029 N 0.44776 0.41067 0.25054 0.0
C2030 C 0.40709 0.42773 0.26116 0.0
C2031 C 0.43857 0.45407 0.2405 0.0
C2032 C 0.42425 0.40746 0.26075 0.0
C2033 C 0.45521 0.43335 0.24053 0.0
C2034 C 0.34154 0.50046 0.30052 0.0
C2035 C 0.29919 0.50628 0.31681 0.0
N2036 N 0.30688 0.49718 0.33976 0.0
C2037 C 0.34906 0.49121 0.32425 0.0
C2038 C 0.31646 0.50812 0.29671 0.0
C2039 C 0.33123 0.48968 0.34386 0.0
C2040 C 0.41431 0.52066 0.32015 0.0
N2041 N 0.41774 0.50161 0.30311 0.0
C2042 C 0.45088 0.48356 0.32842 0.0
C2043 C 0.43579 0.48341 0.30668 0.0
C2044 C 0.44709 0.50247 0.3467 0.0
C2045 C 0.42886 0.52143 0.34226 0.0
H2046 H 0.39988 0.53493 0.31677 0.0
H2047 H 0.43825 0.46847 0.29297 0.0
C2048 C 0.34283 0.42964 0.23515 0.0
N2049 N 0.34073 0.44584 0.2551 0.0
C2050 C 0.32982 0.40652 0.23533 0.0
C2051 C 0.3125 0.41717 0.27646 0.0
C2052 C 0.32598 0.44002 0.27558 0.0
C2053 C 0.31447 0.40016 0.25618 0.0
H2054 H 0.35478 0.43466 0.21917 0.0
H2055 H 0.32469 0.45294 0.29134 0.0
C2056 C 0.41429 0.54915 0.2496 0.0
N2057 N 0.44814 0.58912 0.2494 0.0
C2058 C 0.40687 0.57299 0.24039 0.0
C2059 C 0.43893 0.54561 0.25868 0.0
C2060 C 0.42426 0.59297 0.24047 0.0
C2061 C 0.45576 0.56606 0.25841 0.0
C2062 C 0.33969 0.49955 0.20328 0.0
C2063 C 0.34673 0.51069 0.18016 0.0
C2064 C 0.31543 0.48932 0.20617 0.0
C2065 C 0.32935 0.51128 0.16021 0.0
C2066 C 0.29859 0.49033 0.18577 0.0
N2067 N 0.30585 0.50117 0.16341 0.0
C2068 C 0.4068 0.48296 0.17824 0.0
C2069 C 0.43232 0.51678 0.19317 0.0
C2070 C 0.4199 0.48282 0.15519 0.0
N2071 N 0.41316 0.49985 0.19658 0.0
C2072 C 0.44605 0.51717 0.17052 0.0
C2073 C 0.43975 0.50008 0.15132 0.0
H2074 H 0.39148 0.46971 0.18154 0.0
H2075 H 0.43713 0.5299 0.20799 0.0
C2076 C 0.34318 0.57095 0.26873 0.0
N2077 N 0.34073 0.55456 0.24902 0.0
C2078 C 0.3311 0.5946 0.26804 0.0
C2079 C 0.31393 0.584 0.22694 0.0
C2080 C 0.32642 0.56059 0.22838 0.0
C2081 C 0.31642 0.60128 0.24688 0.0
H2082 H 0.35486 0.56574 0.28479 0.0
H2083 H 0.32485 0.54748 0.21284 0.0
O2084 O 0.39771 0.47115 0.25098 0.0
O2085 O 0.35876 0.50221 0.28121 0.0
O2086 O 0.39745 0.52945 0.24988 0.0
O2087 O 0.35659 0.49836 0.22288 0.0
H2088 H 0.38845 0.42522 0.26941 0.0
H2089 H 0.44448 0.47215 0.2326 0.0
H2090 H 0.41889 0.38919 0.26857 0.0
H2091 H 0.47404 0.4353 0.23259 0.0
H2092 H 0.27969 0.51209 0.31417 0.0
H2093 H 0.36844 0.4852 0.32744 0.0
H2094 H 0.3104 0.51534 0.27842 0.0
H2095 H 0.33676 0.48253 0.36232 0.0
H2096 H 0.46476 0.46862 0.33139 0.0
H2097 H 0.4255 0.53627 0.35606 0.0
H2098 H 0.33155 0.39381 0.21929 0.0
H2099 H 0.30065 0.41281 0.29272 0.0
H2100 H 0.38792 0.57602 0.23316 0.0
H2101 H 0.44505 0.52722 0.26566 0.0
H2102 H 0.41878 0.61153 0.23341 0.0
H2103 H 0.4749 0.5636 0.26533 0.0
H2104 H 0.36533 0.51895 0.1777 0.0
H2105 H 0.30969 0.48069 0.22397 0.0
H2106 H 0.33454 0.5198 0.14221 0.0
H2107 H 0.27975 0.48248 0.18771 0.0
H2108 H 0.41498 0.46915 0.14073 0.0
H2109 H 0.46158 0.53039 0.1681 0.0
H2110 H 0.33309 0.60753 0.28384 0.0
H2111 H 0.30248 0.58861 0.21051 0.0
O2112 O 0.03736 0.01913 -0.00082 0.0
Mn2113 Mn 0.00145 0.00119 0.0031 0.0
O2114 O 0.06443 0.98786 0.99035 0.0
Mn2115 Mn 0.04623 0.96563 0.01006 0.0
O2116 O 0.96621 0.98313 0.00831 0.0
O2117 O 0.98613 0.03683 0.0085 0.0
Mn2118 Mn 0.95711 0.03628 0.99133 0.0
O2119 O 0.99545 0.00356 0.96364 0.0
O2120 O 0.93572 0.01275 0.00579 0.0
O2121 O 0.00836 -0.00186 0.04233 0.0
O2122 O 0.04339 0.97365 0.04414 0.0
O2123 O 0.95814 0.06805 0.00438 0.0
O2124 O 0.96341 0.03097 0.95726 0.0
C2125 C 0.02076 0.94186 0.99154 0.0
C2126 C 0.05971 0.01127 0.99298 0.0
C2127 C 0.94285 0.99004 0.0098 0.0
C2128 C 0.97936 0.06015 0.01395 0.0
C2129 C 0.97986 0.01536 0.94894 0.0
C2130 C 0.02653 0.98742 0.05481 0.0
O2131 O 0.01559 0.9654 0.99735 0.0
O2132 O 0.04253 0.93325 -0.00102 0.0
O2133 O 0.29288 0.75301 0.24421 0.0
Mn2134 Mn 0.25471 0.75051 0.25261 0.0
O2135 O 0.29759 0.78254 0.2136 0.0
Mn2136 Mn 0.26321 0.78857 0.20888 0.0
O2137 O 0.21597 0.74772 0.2621 0.0
O2138 O 0.26318 0.7156 0.26795 0.0
Mn2139 Mn 0.24702 0.71507 0.29738 0.0
O2140 O 0.26075 0.76917 0.28629 0.0
O2141 O 0.21299 0.71515 0.28969 0.0
O2142 O 0.24941 0.73307 0.21711 0.0
O2143 O 0.24665 0.76534 0.18904 0.0
O2144 O 0.2636 0.68508 0.29706 0.0
O2145 O 0.25767 0.74107 0.31807 0.0
C2146 C 0.24098 0.80924 0.23505 0.0
C2147 C 0.30653 0.76588 0.22877 0.0
C2148 C 0.20291 0.73268 0.27642 0.0
C2149 C 0.27004 0.69258 0.27445 0.0
C2150 C 0.2614 0.76341 0.30976 0.0
C2151 C 0.24622 0.74175 0.19439 0.0
O2152 O 0.24818 0.78586 0.23849 0.0
O2153 O 0.2489 0.81977 0.21425 0.0
O2154 O 0.46738 0.98474 0.49984 0.0
Mn2155 Mn 0.50244 0.00243 0.50241 0.0
O2156 O 0.43738 0.01489 0.49933 0.0
Mn2157 Mn 0.45872 0.03906 0.51227 0.0
O2158 O 0.53806 0.02013 0.50456 0.0
O2159 O 0.51632 0.96626 0.50802 0.0
Mn2160 Mn 0.54639 0.9663 0.4933 0.0
O2161 O 0.50748 -0.00121 0.46356 0.0
O2162 O 0.56672 0.98925 0.50942 0.0
O2163 O 0.4976 0.007 0.54187 0.0
O2164 O 0.46612 0.03533 0.54616 0.0
O2165 O 0.54337 0.93437 0.50583 0.0
O2166 O 0.5409 0.97239 0.459 0.0
C2167 C 0.48223 0.06094 0.48853 0.0
C2168 C 0.44433 0.99188 0.49742 0.0
C2169 C 0.56081 0.01258 0.50885 0.0
C2170 C 0.52108 0.94225 0.51266 0.0
C2171 C 0.52386 0.98703 0.44991 0.0
C2172 C 0.48309 0.02096 0.55578 0.0
O2173 O 0.48773 0.03779 0.4956 0.0
O2174 O 0.46107 0.07009 0.49713 0.0
O2175 O 0.28545 0.25583 0.77394 0.0
Mn2176 Mn 0.25146 0.25104 0.75421 0.0
O2177 O 0.31688 0.25812 0.74512 0.0
Mn2178 Mn 0.29817 0.24395 0.71958 0.0
O2179 O 0.21777 0.24553 0.73418 0.0
O2180 O 0.23495 0.24422 0.78887 0.0
Mn2181 Mn 0.20462 0.25861 0.78765 0.0
O2182 O 0.24329 0.28985 0.75739 0.0
O2183 O 0.18586 0.24414 0.76224 0.0
O2184 O 0.2591 0.2121 0.74955 0.0
O2185 O 0.29208 0.20957 0.72265 0.0
O2186 O 0.20622 0.24457 0.81916 0.0
O2187 O 0.20985 0.29314 0.78393 0.0
C2188 C 0.27314 0.26619 0.69754 0.0
C2189 C 0.30875 0.25939 0.76778 0.0
C2190 C 0.19429 0.24246 0.73971 0.0
C2191 C 0.22915 0.23871 0.81239 0.0
C2192 C 0.22673 0.30298 0.76965 0.0
C2193 C 0.27468 0.19909 0.7359 0.0
O2194 O 0.26822 0.2585 0.72042 0.0
O2195 O 0.29513 0.25969 0.6887 0.0
O2196 O 0.99609 0.96567 0.48312 0.0
Mn2197 Mn 0.0033 0.00033 0.5008 0.0
O2198 O 0.0046 0.9348 0.51161 0.0
Mn2199 Mn 0.01781 0.95582 0.53616 0.0
O2200 O 0.01049 0.03499 0.51846 0.0
O2201 O 0.00699 0.01647 0.46592 0.0
Mn2202 Mn 0.98908 0.04482 0.46518 0.0
O2203 O 0.96435 0.00741 0.50153 0.0
O2204 O 0.00218 0.06581 0.48986 0.0
O2205 O 0.04219 0.99337 0.5 0.0
O2206 O 0.05105 0.96501 0.5308 0.0
O2207 O 0.0035 0.04235 0.43353 0.0
O2208 O 0.95581 0.03572 0.47054 0.0
C2209 C 0.99401 0.9788 0.55912 0.0
C2210 C -0.00257 0.94215 0.48969 0.0
C2211 C 0.00918 0.0585 0.51187 0.0
C2212 C 0.01311 0.02153 0.44254 0.0
C2213 C 0.94883 0.02076 0.48825 0.0
C2214 C 0.05785 0.98017 0.51321 0.0
O2215 O -0.00025 0.98412 0.53571 0.0
O2216 O 0.00372 0.95792 0.56789 0.0
O2217 O 0.26834 0.78803 0.75621 0.0
Mn2218 Mn 0.25326 0.75164 0.75108 0.0
O2219 O 0.23587 0.81559 0.7527 0.0
Mn2220 Mn 0.21412 0.79285 0.73767 0.0
O2221 O 0.23832 0.7158 0.74505 0.0
O2222 O 0.28907 0.73857 0.74651 0.0
Mn2223 Mn 0.29301 0.71043 0.76415 0.0
O2224 O 0.25351 0.74384 0.79016 0.0
O2225 O 0.26963 0.68736 0.7517 0.0
O2226 O 0.25317 0.75836 0.71232 0.0
O2227 O 0.22132 0.78561 0.70404 0.0
O2228 O 0.32363 0.71575 0.74839 0.0
O2229 O 0.28802 0.71961 0.79749 0.0
C2230 C 0.19343 0.76802 0.76142 0.0
C2231 C 0.2592 0.81072 0.75645 0.0
C2232 C 0.24681 0.69297 0.74598 0.0
C2233 C 0.31239 0.73566 0.73925 0.0
C2234 C 0.26843 0.73156 0.80516 0.0
C2235 C 0.23967 0.77151 0.69698 0.0
O2236 O 0.21705 0.76444 0.75519 0.0
O2237 O 0.1827 0.78778 0.75135 0.0
O2238 O 0.48544 0.99677 0.96864 0.0
Mn2239 Mn 0.49981 0.00185 0.00537 0.0
O2240 O 0.51719 0.0078 0.94251 0.0
Mn2241 Mn 0.53708 0.02029 0.96806 0.0
O2242 O 0.51357 0.00761 0.04207 0.0
O2243 O 0.46363 0.00584 0.01758 0.0
Mn2244 Mn 0.45869 0.98774 0.04509 0.0
O2245 O 0.49976 0.96247 0.01325 0.0
O2246 O 0.48112 0.00022 0.06914 0.0
O2247 O 0.49782 0.04122 -0.00016 0.0
O2248 O 0.53111 0.05323 0.97719 0.0
O2249 O 0.42826 0.0035 0.03914 0.0
O2250 O 0.46366 0.9547 0.03476 0.0
C2251 C 0.561 0.99473 0.98458 0.0
C2252 C 0.49465 0.00022 0.94624 0.0
C2253 C 0.50394 0.00677 0.06454 0.0
C2254 C 0.4402 0.01294 0.0198 0.0
C2255 C 0.48434 0.94724 0.02475 0.0
C2256 C 0.51129 0.0585 0.98947 0.0
O2257 O 0.53736 -0.00279 0.99278 0.0
O2258 O 0.56927 0.01115 0.96805 0.0
O2259 O 0.29075 0.24729 0.261 0.0
Mn2260 Mn 0.25192 0.25021 0.25351 0.0
O2261 O 0.29552 0.2194 0.29306 0.0
Mn2262 Mn 0.26114 0.21368 0.29766 0.0
O2263 O 0.21265 0.25446 0.24558 0.0
O2264 O 0.25939 0.28577 0.23829 0.0
Mn2265 Mn 0.24662 0.28262 0.20733 0.0
O2266 O 0.25728 0.23059 0.2192 0.0
O2267 O 0.21223 0.2777 0.20991 0.0
O2268 O 0.24745 0.26834 0.28922 0.0
O2269 O 0.24469 0.2368 0.31786 0.0
O2270 O 0.25859 0.3145 0.20706 0.0
O2271 O 0.26315 0.25886 0.18837 0.0
C2272 C 0.23932 0.19109 0.27358 0.0
C2273 C 0.30454 0.2352 0.27709 0.0
C2274 C 0.20051 0.26606 0.22763 0.0
C2275 C 0.26476 0.30884 0.23023 0.0
C2276 C 0.26261 0.23614 0.19611 0.0
C2277 C 0.24425 0.26028 0.31221 0.0
O2278 O 0.2456 0.21451 0.26809 0.0
O2279 O 0.24792 0.18207 0.29481 0.0
O2280 O 0.49407 0.46643 0.9817 0.0
Mn2281 Mn 0.50214 0.5005 -5e-05 0.0
O2282 O 0.5025 0.43578 0.00899 0.0
Mn2283 Mn 0.51156 0.45809 0.03357 0.0
O2284 O 0.50864 0.53654 0.01574 0.0
O2285 O 0.50789 0.51336 0.96372 0.0
Mn2286 Mn 0.49261 0.54294 0.96105 0.0
O2287 O 0.46353 0.50959 -0.00136 0.0
O2288 O 0.50932 0.56406 0.98309 0.0
O2289 O 0.54108 0.49095 0.00131 0.0
O2290 O 0.54554 0.46435 0.03447 0.0
O2291 O 0.50605 0.53786 0.92971 0.0
O2292 O 0.45841 0.53814 0.96708 0.0
C2293 C 0.48634 0.47657 0.05712 0.0
C2294 C 0.49577 0.44301 0.9874 0.0
C2295 C 0.51087 0.55922 0.00668 0.0
C2296 C 0.51463 0.51727 0.9402 0.0
C2297 C 0.44962 0.52396 0.98461 0.0
C2298 C 0.55494 0.47751 0.01646 0.0
O2299 O 0.49701 0.48866 0.03784 0.0
O2300 O 0.49111 0.45255 0.05962 0.0
O2301 O 0.77055 0.28475 0.25955 0.0
Mn2302 Mn 0.75397 0.25031 0.2502 0.0
O2303 O 0.74368 0.31349 0.2429 0.0
Mn2304 Mn 0.71908 0.29024 0.23363 0.0
O2305 O 0.73744 0.21566 0.24073 0.0
O2306 O 0.78931 0.23576 0.24447 0.0
Mn2307 Mn 0.79144 0.20712 0.26159 0.0
O2308 O 0.75328 0.23949 0.28857 0.0
O2309 O 0.76678 0.18567 0.24881 0.0
O2310 O 0.75601 0.25954 0.21132 0.0
O2311 O 0.72027 0.27869 0.20105 0.0
O2312 O 0.82232 0.21037 0.24613 0.0
O2313 O 0.78807 0.21593 0.29517 0.0
C2314 C 0.69527 0.27531 0.26126 0.0
C2315 C 0.76427 0.30771 0.25417 0.0
C2316 C 0.74477 0.19235 0.24122 0.0
C2317 C 0.81261 0.23134 0.2376 0.0
C2318 C 0.76829 0.22712 0.30331 0.0
C2319 C 0.74063 0.26807 0.1946 0.0
O2320 O 0.71799 0.26562 0.25699 0.0
O2321 O 0.68803 0.29365 0.24637 0.0
O2322 O 0.98534 0.49723 0.46784 0.0
Mn2323 Mn -0.0001 0.50299 0.50443 0.0
O2324 O 0.01776 0.50417 0.44098 0.0
Mn2325 Mn 0.0383 0.51889 0.46486 0.0
O2326 O 0.01417 0.50928 0.54042 0.0
O2327 O 0.96361 0.50707 0.51701 0.0
Mn2328 Mn 0.96005 0.48799 0.54418 0.0
O2329 O 0.00084 0.46382 0.51293 0.0
O2330 O 0.98325 0.49913 0.56817 0.0
O2331 O -0.00125 0.54201 0.49771 0.0
O2332 O 0.03125 0.55218 0.47239 0.0
O2333 O 0.92923 0.50311 0.54038 0.0
O2334 O 0.96405 0.45532 0.53236 0.0
C2335 C 0.06055 0.49482 0.48661 0.0
C2336 C 0.99473 0.49848 0.44528 0.0
C2337 C 0.00563 0.50665 0.56305 0.0
C2338 C 0.93987 0.51285 0.52041 0.0
C2339 C 0.98524 0.44813 0.52341 0.0
C2340 C 0.01217 0.5583 0.48567 0.0
O2341 O 0.0368 0.49946 0.49222 0.0
O2342 O 0.07023 0.50746 0.46773 0.0
O2343 O 0.78754 0.75578 0.27022 0.0
Mn2344 Mn 0.75244 0.74968 0.25313 0.0
O2345 O 0.81728 0.747 0.24093 0.0
Mn2346 Mn 0.79543 0.73728 0.21572 0.0
O2347 O 0.71755 0.74392 0.2352 0.0
O2348 O 0.73756 0.74478 0.28903 0.0
Mn2349 Mn 0.7076 0.76024 0.28789 0.0
O2350 O 0.7457 0.78886 0.25506 0.0
O2351 O 0.68706 0.74459 0.26481 0.0
O2352 O 0.75892 0.70989 0.25024 0.0
O2353 O 0.78515 0.7043 0.21736 0.0
O2354 O 0.70945 0.74807 0.31999 0.0
O2355 O 0.71299 0.79448 0.28189 0.0
C2356 C 0.77284 0.76324 0.19538 0.0
C2357 C 0.81078 0.75396 0.26313 0.0
C2358 C 0.69434 0.7414 0.24211 0.0
C2359 C 0.73172 0.74038 0.31284 0.0
C2360 C 0.72976 0.80316 0.26677 0.0
C2361 C 0.77037 0.69531 0.23419 0.0
O2362 O 0.76776 0.7557 0.21832 0.0
O2363 O 0.79353 0.75432 0.18553 0.0
O2364 O 0.7935 0.25112 0.74561 0.0
Mn2365 Mn 0.75426 0.24984 0.75192 0.0
O2366 O 0.80073 0.28256 0.71759 0.0
Mn2367 Mn 0.76706 0.28818 0.70982 0.0
O2368 O 0.71495 0.24932 0.75892 0.0
O2369 O 0.75914 0.21241 0.76513 0.0
Mn2370 Mn 0.74292 0.21564 0.79464 0.0
O2371 O 0.76061 0.26749 0.78672 0.0
O2372 O 0.70899 0.21911 0.78844 0.0
O2373 O 0.74888 0.23392 0.71606 0.0
O2374 O 0.75255 0.26572 0.68769 0.0
O2375 O 0.75507 0.18438 0.79702 0.0
O2376 O 0.75599 0.23845 0.81699 0.0
C2377 C 0.74382 0.30967 0.73395 0.0
C2378 C 0.80862 0.26539 0.73278 0.0
C2379 C 0.70047 0.23587 0.77332 0.0
C2380 C 0.7621 0.1889 0.77379 0.0
C2381 C 0.76092 0.26086 0.81004 0.0
C2382 C 0.74858 0.24252 0.69322 0.0
O2383 O 0.7497 0.28598 0.73829 0.0
O2384 O 0.75333 0.31968 0.71356 0.0
O2385 O 0.79026 0.74866 0.76269 0.0
Mn2386 Mn 0.75156 0.75005 0.75395 0.0
O2387 O 0.79507 0.71931 0.7936 0.0
Mn2388 Mn 0.76084 0.71278 0.79793 0.0
O2389 O 0.71224 0.75034 0.74545 0.0
O2390 O 0.75772 0.7868 0.73958 0.0
Mn2391 Mn 0.74021 0.7843 0.71088 0.0
O2392 O 0.75921 0.73202 0.71919 0.0
O2393 O 0.70625 0.78169 0.71736 0.0
O2394 O 0.7454 0.76726 0.78975 0.0
O2395 O 0.74345 0.73538 0.81807 0.0
O2396 O 0.75267 0.81542 0.70811 0.0
O2397 O 0.75277 0.76079 0.6887 0.0
C2398 C 0.74031 0.69044 0.77232 0.0
C2399 C 0.804 0.73597 0.77844 0.0
C2400 C 0.69768 0.76407 0.73136 0.0
C2401 C 0.76157 0.80997 0.73043 0.0
C2402 C 0.75883 0.7386 0.69573 0.0
C2403 C 0.74241 0.75892 0.81264 0.0
O2404 O 0.74631 0.7141 0.76796 0.0
O2405 O 0.74826 0.68095 0.79359 0.0
O2406 O 0.5362 0.51977 0.49899 0.0
Mn2407 Mn 0.50152 0.50039 0.50285 0.0
O2408 O 0.56703 0.49064 0.49566 0.0
Mn2409 Mn 0.54775 0.46577 0.51073 0.0
O2410 O 0.46647 0.48109 0.50771 0.0
O2411 O 0.48435 0.5354 0.5115 0.0
Mn2412 Mn 0.45821 0.5316 0.48962 0.0
O2413 O 0.49756 0.50201 0.46324 0.0
O2414 O 0.43571 0.5105 0.50553 0.0
O2415 O 0.50806 0.49636 0.54207 0.0
O2416 O 0.54205 0.47062 0.54499 0.0
O2417 O 0.46152 0.56511 0.4924 0.0
O2418 O 0.4625 0.52369 0.45603 0.0
C2419 C 0.52316 0.443 0.48896 0.0
C2420 C 0.55952 0.51358 0.49545 0.0
C2421 C 0.44293 0.48777 0.50959 0.0
C2422 C 0.48036 0.55981 0.50721 0.0
C2423 C 0.48097 0.51093 0.44808 0.0
C2424 C 0.52493 0.48444 0.55524 0.0
O2425 O 0.51787 0.46605 0.49608 0.0
O2426 O 0.54497 0.43438 0.49625 0.0
O2427 O 0.96706 0.48566 -0.00111 0.0
Mn2428 Mn 0.00171 0.50422 0.00159 0.0
O2429 O 0.93652 0.51525 0.99692 0.0
Mn2430 Mn 0.95676 0.54014 0.01035 0.0
O2431 O 0.03683 0.52302 0.00435 0.0
O2432 O 0.01639 0.46839 0.00728 0.0
Mn2433 Mn 0.0468 0.46962 0.99332 0.0
O2434 O 0.00713 0.50041 0.96276 0.0
O2435 O 0.06558 0.49262 0.01102 0.0
O2436 O 0.99618 0.50896 0.04089 0.0
O2437 O 0.96378 0.53643 0.04443 0.0
O2438 O 0.04443 0.43738 0.00521 0.0
O2439 O 0.0423 0.47632 0.95892 0.0
C2440 C 0.98126 0.56201 0.9873 0.0
C2441 C 0.94392 0.49231 0.99586 0.0
C2442 C 0.05927 0.51582 0.01045 0.0
C2443 C 0.02186 0.44454 0.01191 0.0
C2444 C 0.02443 0.48966 0.94941 0.0
C2445 C 0.98103 0.52262 0.05444 0.0
O2446 O 0.98621 0.53893 0.99467 0.0
O2447 O 0.95972 0.57115 0.99485 0.0
C2448 C 0.98754 0.10722 0.06582 0.0
C2449 C 0.00386 0.12501 0.05371 0.0
C2450 C 0.01071 0.09532 0.0185 0.0
C2451 C 0.9937 0.07797 0.03015 0.0
N2452 N 0.97032 0.06435 0.06686 0.0
N2453 N 0.03551 0.13403 0.02188 0.0
C2454 C 0.98377 0.08293 0.05464 0.0
C2455 C 0.01712 0.11828 0.03123 0.0
N2456 N 0.97477 0.11404 0.08739 0.0
N2457 N 0.01918 0.09065 0.99444 0.0
H2458 H 0.04005 0.15129 0.03038 0.0
H2459 H 0.04756 0.12917 0.00698 0.0
H2460 H 0.01514 0.07375 0.98502 0.0
H2461 H 0.02904 0.10382 0.98342 0.0
H2462 H 0.96024 0.10337 0.09548 0.0
H2463 H 0.97789 0.13119 0.09674 0.0
H2464 H 0.96405 0.06566 0.08556 0.0
H2465 H 0.96748 0.04646 0.05886 0.0
C2466 C 0.14403 0.74908 0.3148 0.0
C2467 C 0.1248 0.74509 0.29661 0.0
C2468 C 0.15696 0.73745 0.26361 0.0
C2469 C 0.17608 0.73879 0.28247 0.0
N2470 N 0.18769 0.74385 0.32677 0.0
N2471 N 0.11185 0.73469 0.2542 0.0
C2472 C 0.16957 0.74418 0.30822 0.0
C2473 C 0.13094 0.73924 0.27105 0.0
N2474 N 0.13792 0.75797 0.33846 0.0
N2475 N 0.16367 0.73414 0.23876 0.0
H2476 H 0.09274 0.73675 0.25898 0.0
H2477 H 0.11469 0.72775 0.23596 0.0
H2478 H 0.1824 0.73159 0.23292 0.0
H2479 H 0.15101 0.73533 0.22371 0.0
H2480 H 0.15124 0.76482 0.35124 0.0
H2481 H 0.11937 0.76047 0.34487 0.0
H2482 H 0.18352 0.74311 0.3461 0.0
H2483 H 0.20707 0.74328 0.3232 0.0
C2484 C 0.48803 0.89897 0.55752 0.0
C2485 C 0.49331 0.87581 0.54463 0.0
C2486 C 0.50279 0.89974 0.50577 0.0
C2487 C 0.50229 0.92247 0.52004 0.0
N2488 N 0.48312 0.94489 0.55435 0.0
N2489 N 0.50268 0.85353 0.50583 0.0
C2490 C 0.49121 0.92249 0.54437 0.0
C2491 C 0.4992 0.87601 0.51831 0.0
N2492 N 0.48172 0.89853 0.58269 0.0
N2493 N 0.50695 0.9013 0.48019 0.0
H2494 H 0.49908 0.83592 0.51429 0.0
H2495 H 0.50972 0.85209 0.48743 0.0
H2496 H 0.50894 0.91883 0.47099 0.0
H2497 H 0.50641 0.8859 0.46791 0.0
H2498 H 0.48047 0.91478 0.59384 0.0
H2499 H 0.47897 0.8817 0.59285 0.0
H2500 H 0.47261 0.94628 0.57106 0.0
H2501 H 0.48448 0.96173 0.54402 0.0
C2502 C 0.36484 0.23147 0.79928 0.0
C2503 C 0.37621 0.25325 0.81001 0.0
C2504 C 0.33995 0.27943 0.79704 0.0
C2505 C 0.32838 0.25737 0.78729 0.0
N2506 N 0.32629 0.21166 0.78491 0.0
N2507 N 0.37267 0.29676 0.82411 0.0
C2508 C 0.3396 0.23311 0.79066 0.0
C2509 C 0.36313 0.27694 0.8105 0.0
N2510 N 0.37869 0.20976 0.79558 0.0
N2511 N 0.32922 0.30269 0.79264 0.0
H2512 H 0.38942 0.29542 0.83451 0.0
H2513 H 0.36295 0.31379 0.82687 0.0
H2514 H 0.31162 0.30475 0.78383 0.0
H2515 H 0.3382 0.31981 0.79661 0.0
H2516 H 0.37207 0.19432 0.78525 0.0
H2517 H 0.39773 0.20802 0.80055 0.0
H2518 H 0.3326 0.19338 0.78934 0.0
H2519 H 0.30787 0.21225 0.7779 0.0
C2520 C 0.00346 0.89616 0.43465 0.0
C2521 C 0.99242 0.87465 0.44656 0.0
C2522 C 0.97571 0.90167 0.48024 0.0
C2523 C 0.99119 0.92183 0.47139 0.0
N2524 N 0.02023 0.93841 0.43974 0.0
N2525 N 0.96936 0.85619 0.48174 0.0
C2526 C 0.00482 0.91936 0.44819 0.0
C2527 C 0.97857 0.87721 0.46949 0.0
N2528 N 0.01234 0.89447 0.41029 0.0
N2529 N 0.95827 0.90609 0.49894 0.0
H2530 H 0.97139 0.83781 0.47466 0.0
H2531 H 0.96155 0.85676 0.49992 0.0
H2532 H 0.95547 0.92415 0.50664 0.0
H2533 H 0.94493 0.89269 0.50477 0.0
H2534 H 0.01821 0.91015 0.39968 0.0
H2535 H 0.01161 0.87772 0.39979 0.0
H2536 H 0.03338 0.93619 0.42512 0.0
H2537 H 0.02069 0.95628 0.44795 0.0
C2538 C 0.36804 0.7721 0.71918 0.0
C2539 C 0.37184 0.76103 0.69491 0.0
C2540 C 0.32877 0.74359 0.69594 0.0
C2541 C 0.32627 0.75212 0.72123 0.0
N2542 N 0.33859 0.78095 0.75381 0.0
N2543 N 0.35416 0.74238 0.65729 0.0
C2544 C 0.34425 0.76889 0.73161 0.0
C2545 C 0.35147 0.74897 0.68222 0.0
N2546 N 0.38765 0.78414 0.73096 0.0
N2547 N 0.31 0.72896 0.68588 0.0
H2548 H 0.37066 0.74608 0.64693 0.0
H2549 H 0.33966 0.73491 0.6463 0.0
H2550 H 0.29292 0.72588 0.69549 0.0
H2551 H 0.31131 0.71962 0.66857 0.0
H2552 H 0.387 0.79028 0.74969 0.0
H2553 H 0.40521 0.78701 0.72227 0.0
H2554 H 0.34987 0.79494 0.76187 0.0
H2555 H 0.32117 0.77833 0.76293 0.0
C2556 C 0.51223 0.12965 0.98554 0.0
C2557 C 0.49989 0.13209 0.96171 0.0
C2558 C 0.48427 0.0886 0.96597 0.0
C2559 C 0.50134 0.08449 0.98621 0.0
N2560 N 0.53092 0.10082 0.01648 0.0
N2561 N 0.47705 0.11221 0.92732 0.0
C2562 C 0.51488 0.10508 0.99662 0.0
C2563 C 0.48626 0.11126 0.95154 0.0
N2564 N 0.52114 0.15075 0.99755 0.0
N2565 N 0.46688 0.07047 0.95991 0.0
H2566 H 0.47958 0.12773 0.91521 0.0
H2567 H 0.46916 0.09655 0.91829 0.0
H2568 H 0.4653 0.05341 0.9699 0.0
H2569 H 0.4526 0.07343 0.94658 0.0
H2570 H 0.52847 0.15039 0.01588 0.0
H2571 H 0.51907 0.16903 0.99004 0.0
H2572 H 0.54366 0.1143 0.02313 0.0
H2573 H 0.53196 0.0832 0.02566 0.0
C2574 C 0.13087 0.2432 0.22474 0.0
C2575 C 0.12361 0.25734 0.20284 0.0
C2576 C 0.16124 0.28349 0.20753 0.0
C2577 C 0.17189 0.26583 0.22504 0.0
N2578 N 0.1639 0.23157 0.25468 0.0
N2579 N 0.13494 0.28811 0.17058 0.0
C2580 C 0.15583 0.24643 0.23507 0.0
C2581 C 0.13969 0.27665 0.19343 0.0
N2582 N 0.1136 0.22753 0.23617 0.0
N2583 N 0.17116 0.30733 0.20509 0.0
H2584 H 0.11984 0.28296 0.15896 0.0
H2585 H 0.14763 0.30075 0.1621 0.0
H2586 H 0.18537 0.31392 0.21711 0.0
H2587 H 0.16298 0.32132 0.19363 0.0
H2588 H 0.11648 0.21864 0.25362 0.0
H2589 H 0.09542 0.22479 0.22898 0.0
H2590 H 0.15488 0.21486 0.26016 0.0
H2591 H 0.17905 0.23656 0.26615 0.0
C2592 C 0.03595 0.01555 0.12139 0.0
C2593 C 0.05004 0.99522 0.1323 0.0
C2594 C 0.03836 0.96854 0.09646 0.0
C2595 C 0.02922 0.99011 0.08294 0.0
N2596 N 0.0223 0.03572 0.08238 0.0
N2597 N 0.06932 0.95384 0.12668 0.0
C2598 C 0.02841 0.01409 0.09542 0.0
C2599 C 0.05244 0.97203 0.11895 0.0
N2600 N 0.02962 0.03614 0.1358 0.0
N2601 N 0.0337 0.94462 0.08769 0.0
H2602 H 0.08124 0.95609 0.14225 0.0
H2603 H 0.07344 0.93778 0.11588 0.0
H2604 H 0.02229 0.94133 0.07189 0.0
H2605 H 0.03865 0.92826 0.0978 0.0
H2606 H 0.0173 0.05034 0.12952 0.0
H2607 H 0.0347 0.03765 0.15486 0.0
H2608 H 0.02404 0.05383 0.09011 0.0
H2609 H 0.01757 0.03595 0.06324 0.0
C2610 C 0.23439 0.80157 0.3614 0.0
C2611 C 0.25646 0.80912 0.3746 0.0
C2612 C 0.28317 0.79109 0.34114 0.0
C2613 C 0.26095 0.78399 0.32824 0.0
N2614 N 0.21675 0.79238 0.32031 0.0
N2615 N 0.30139 0.81817 0.37328 0.0
C2616 C 0.23698 0.79271 0.33638 0.0
C2617 C 0.28083 0.80617 0.36327 0.0
N2618 N 0.21127 0.80098 0.37317 0.0
N2619 N 0.30625 0.78305 0.33248 0.0
H2620 H 0.30009 0.83011 0.389 0.0
H2621 H 0.31915 0.8183 0.36458 0.0
H2622 H 0.30831 0.77312 0.31548 0.0
H2623 H 0.32299 0.78533 0.34262 0.0
H2624 H 0.19524 0.79321 0.36469 0.0
H2625 H 0.20864 0.8056 0.39222 0.0
H2626 H 0.19926 0.80043 0.32496 0.0
H2627 H 0.2183 0.78628 0.30155 0.0
C2628 C 0.47955 0.99209 0.62235 0.0
C2629 C 0.46045 0.00873 0.63183 0.0
C2630 C 0.469 0.03829 0.59726 0.0
C2631 C 0.48299 0.01931 0.58431 0.0
N2632 N 0.50945 0.98208 0.58835 0.0
N2633 N 0.4345 0.04629 0.6261 0.0
C2634 C 0.49077 -0.00276 0.598 0.0
C2635 C 0.4546 0.03155 0.61877 0.0
N2636 N 0.48707 0.97182 0.63686 0.0
N2637 N 0.46993 0.06294 0.58911 0.0
H2638 H 0.42267 0.04168 0.64134 0.0
H2639 H 0.42811 0.06174 0.61539 0.0
H2640 H 0.48193 0.06862 0.57433 0.0
H2641 H 0.46139 0.07785 0.59895 0.0
H2642 H 0.50149 0.95925 0.63196 0.0
H2643 H 0.47919 0.9679 0.65464 0.0
H2644 H 0.51448 0.96443 0.59574 0.0
H2645 H 0.52107 0.98789 0.57341 0.0
C2646 C 0.25028 0.23357 0.87925 0.0
C2647 C 0.25753 0.20758 0.87947 0.0
C2648 C 0.25912 0.20753 0.83299 0.0
C2649 C 0.24722 0.23154 0.83287 0.0
N2650 N 0.24062 0.27125 0.854 0.0
N2651 N 0.27033 0.16974 0.85703 0.0
C2652 C 0.24596 0.24585 0.85555 0.0
C2653 C 0.26305 0.1947 0.85646 0.0
N2654 N 0.24623 0.24591 0.9017 0.0
N2655 N 0.26722 0.1975 0.8107 0.0
H2656 H 0.27376 0.15982 0.87386 0.0
H2657 H 0.2717 0.15843 0.84092 0.0
H2658 H 0.26523 0.20764 0.7939 0.0
H2659 H 0.27838 0.18121 0.80932 0.0
H2660 H 0.23821 0.26392 0.90315 0.0
H2661 H 0.2503 0.23766 0.91929 0.0
H2662 H 0.24063 0.28356 0.86938 0.0
H2663 H 0.23825 0.28042 0.83652 0.0
C2664 C 0.03055 0.98958 0.38228 0.0
C2665 C 0.05679 0.9954 0.38118 0.0
C2666 C 0.05573 0.00957 0.42548 0.0
C2667 C 0.02919 0.00561 0.42588 0.0
N2668 N 0.99263 0.98532 0.4084 0.0
N2669 N 0.09577 0.00382 0.40316 0.0
C2670 C 0.01712 0.99321 0.40547 0.0
C2671 C 0.06988 0.00287 0.40341 0.0
N2672 N 0.01831 0.98188 0.36084 0.0
N2673 N 0.06702 0.02119 0.44562 0.0
H2674 H 0.10649 -0.00067 0.38711 0.0
H2675 H 0.10667 0.00697 0.41926 0.0
H2676 H 0.05711 0.02546 0.46225 0.0
H2677 H 0.08576 0.02729 0.44565 0.0
H2678 H -0.00128 0.98008 0.35952 0.0
H2679 H 0.02777 0.97834 0.34379 0.0
H2680 H 0.983 0.97442 0.39515 0.0
H2681 H 0.98276 0.98775 0.42546 0.0
C2682 C 0.26499 0.80695 0.6421 0.0
C2683 C 0.25237 0.79508 0.62158 0.0
C2684 C 0.2354 0.76279 0.65059 0.0
C2685 C 0.24841 0.77466 0.67069 0.0
N2686 N 0.283 0.8013 0.68382 0.0
N2687 N 0.23147 0.75795 0.60499 0.0
C2688 C 0.26591 0.79432 0.66575 0.0
C2689 C 0.23946 0.77168 0.62538 0.0
N2690 N 0.27422 0.83112 0.6398 0.0
N2691 N 0.21882 0.74355 0.65574 0.0
H2692 H 0.2347 0.7638 0.58631 0.0
H2693 H 0.22381 0.73979 0.60656 0.0
H2694 H 0.21665 0.73596 0.67397 0.0
H2695 H 0.20664 0.73595 0.64226 0.0
H2696 H 0.28124 0.8413 0.65517 0.0
H2697 H 0.27237 0.8421 0.62339 0.0
H2698 H 0.29753 0.81425 0.68028 0.0
H2699 H 0.28413 0.79231 0.70147 0.0
C2700 C 0.46951 0.01694 0.88127 0.0
C2701 C 0.45079 -0.00179 0.87768 0.0
C2702 C 0.46103 0.97924 0.91902 0.0
C2703 C 0.47797 -0.00035 0.92362 0.0
N2704 N 0.49175 0.04216 0.91173 0.0
N2705 N 0.42528 0.96407 0.89449 0.0
C2706 C 0.48028 0.01976 0.90552 0.0
C2707 C 0.44543 0.9801 0.89701 0.0
N2708 N 0.47755 0.0317 0.86138 0.0
N2709 N 0.46065 0.95855 0.9348 0.0
H2710 H 0.41367 0.96411 0.87849 0.0
H2711 H 0.41885 0.9523 0.9091 0.0
H2712 H 0.47232 0.95681 0.95063 0.0
H2713 H 0.45042 0.94213 0.93092 0.0
H2714 H 0.49322 0.04367 0.86254 0.0
H2715 H 0.47032 0.03014 0.84305 0.0
H2716 H 0.4918 0.058 0.89978 0.0
H2717 H 0.49854 0.04616 0.9298 0.0
C2718 C 0.28289 0.20992 0.13414 0.0
C2719 C 0.26306 0.19267 0.1286 0.0
C2720 C 0.24469 0.19981 0.17078 0.0
C2721 C 0.26524 0.21625 0.17652 0.0
N2722 N 0.30767 0.22989 0.167 0.0
N2723 N 0.22941 0.16569 0.14422 0.0
C2724 C 0.2857 0.2187 0.1593 0.0
C2725 C 0.24535 0.18577 0.14779 0.0
N2726 N 0.29794 0.21937 0.11517 0.0
N2727 N 0.2238 0.19876 0.18617 0.0
H2728 H 0.22967 0.15469 0.12779 0.0
H2729 H 0.21781 0.15839 0.15854 0.0
H2730 H 0.22227 0.20841 0.20329 0.0
H2731 H 0.20715 0.1895 0.18108 0.0
H2732 H 0.31098 0.23391 0.11805 0.0
H2733 H 0.29561 0.21471 0.09612 0.0
H2734 H 0.32401 0.23037 0.15582 0.0
H2735 H 0.31021 0.23615 0.18561 0.0
C2736 C 0.10555 0.06758 0.9874 0.0
C2737 C 0.12795 0.05599 0.99692 0.0
C2738 C 0.10383 0.01853 0.00881 0.0
C2739 C 0.08228 0.02807 0.99543 0.0
N2740 N 0.06442 0.06057 0.96834 0.0
N2741 N 0.14942 0.01795 0.01125 0.0
C2742 C 0.0835 0.05244 0.98383 0.0
C2743 C 0.12742 0.03069 0.0059 0.0
N2744 N 0.10522 0.09303 0.98218 0.0
N2745 N 0.10164 -0.00132 0.02548 0.0
H2746 H 0.16733 0.02607 0.00918 0.0
H2747 H 0.14989 -0.00148 0.01525 0.0
H2748 H 0.08433 0.99071 0.03045 0.0
H2749 H 0.11651 0.99251 0.03697 0.0
H2750 H 0.08867 0.10291 0.97768 0.0
H2751 H 0.12107 0.10458 0.98462 0.0
H2752 H 0.06548 0.07725 0.95765 0.0
H2753 H 0.04859 0.04947 0.9644 0.0
C2754 C 0.62608 0.48263 0.0039 0.0
C2755 C 0.6323 0.45636 0.00453 0.0
C2756 C 0.58761 0.44537 0.00614 0.0
C2757 C 0.58138 0.47141 0.00947 0.0
N2758 N 0.59442 0.5151 0.01283 0.0
N2759 N 0.61934 0.41272 0.01099 0.0
C2760 C 0.60051 0.49025 0.00846 0.0
C2761 C 0.61317 0.43772 0.00703 0.0
N2762 N 0.64452 0.50009 -0.00127 0.0
N2763 N 0.56909 0.42799 0.00115 0.0
H2764 H 0.63793 0.40596 0.01156 0.0
H2765 H 0.60599 0.399 0.01602 0.0
H2766 H 0.55016 0.43308 -0.00118 0.0
H2767 H 0.5729 0.40918 0.99628 0.0
H2768 H 0.64082 0.51929 0.99555 0.0
H2769 H 0.66343 0.49496 0.9958 0.0
H2770 H 0.60784 0.52939 0.01496 0.0
H2771 H 0.57582 0.52119 0.01584 0.0
C2772 C 0.81826 0.35497 0.25029 0.0
C2773 C 0.80578 0.37623 0.26114 0.0
C2774 C 0.77129 0.34884 0.27569 0.0
C2775 C 0.78128 0.3289 0.26072 0.0
N2776 N 0.81434 0.31255 0.23346 0.0
N2777 N 0.76964 0.39418 0.283 0.0
C2778 C 0.80503 0.33165 0.24827 0.0
C2779 C 0.78222 0.37336 0.27388 0.0
N2780 N 0.84287 0.35702 0.24229 0.0
N2781 N 0.75143 0.34411 0.29174 0.0
H2782 H 0.77684 0.41258 0.28172 0.0
H2783 H 0.75118 0.39351 0.29001 0.0
H2784 H 0.74344 0.32606 0.29367 0.0
H2785 H 0.7447 0.35723 0.30491 0.0
H2786 H 0.85379 0.34157 0.23646 0.0
H2787 H 0.85323 0.37382 0.24367 0.0
H2788 H 0.82955 0.31475 0.221 0.0
H2789 H 0.806 0.29471 0.23263 0.0
C2790 C 0.87965 0.52575 0.48898 0.0
C2791 C 0.87806 0.55242 0.49225 0.0
C2792 C 0.92279 0.55406 0.50429 0.0
C2793 C 0.92386 0.52726 0.50255 0.0
N2794 N 0.90699 0.48868 0.48556 0.0
N2795 N 0.89922 0.5928 0.4953 0.0
C2796 C 0.90351 0.5136 0.49186 0.0
C2797 C 0.90016 0.5669 0.49704 0.0
N2798 N 0.85819 0.51194 0.48475 0.0
N2799 N 0.94254 0.5669 0.51484 0.0
H2800 H 0.88268 0.60262 0.49051 0.0
H2801 H 0.9152 0.60431 0.49639 0.0
H2802 H 0.95919 0.55775 0.52037 0.0
H2803 H 0.94201 0.58618 0.51917 0.0
H2804 H 0.85768 0.49216 0.48536 0.0
H2805 H 0.84045 0.52034 0.48201 0.0
H2806 H 0.89349 0.47787 0.47615 0.0
H2807 H 0.92455 0.47968 0.48771 0.0
C2808 C 0.22102 0.13577 0.23272 0.0
C2809 C 0.19952 0.12772 0.2469 0.0
C2810 C 0.19886 0.16837 0.26955 0.0
C2811 C 0.22255 0.17459 0.25843 0.0
N2812 N 0.25621 0.16545 0.22905 0.0
N2813 N 0.16629 0.13657 0.2771 0.0
C2814 C 0.2333 0.15896 0.23934 0.0
C2815 C 0.18764 0.14437 0.26446 0.0
N2816 N 0.22984 0.12096 0.21335 0.0
N2817 N 0.18783 0.18521 0.28593 0.0
H2818 H 0.15693 0.11965 0.27297 0.0
H2819 H 0.15797 0.14628 0.29211 0.0
H2820 H 0.19615 0.20262 0.29029 0.0
H2821 H 0.16993 0.18305 0.29395 0.0
H2822 H 0.2441 0.12651 0.20082 0.0
H2823 H 0.22158 0.10362 0.20867 0.0
H2824 H 0.26672 0.15384 0.21702 0.0
H2825 H 0.26515 0.18256 0.23331 0.0
C2826 C 0.39441 0.94369 0.47952 0.0
C2827 C 0.37895 0.94543 0.50161 0.0
C2828 C 0.4111 0.97081 0.52254 0.0
C2829 C 0.42431 0.97276 0.49921 0.0
N2830 N 0.42915 0.9619 0.45514 0.0
N2831 N 0.37062 0.96395 0.54274 0.0
C2832 C 0.41632 0.95923 0.47757 0.0
C2833 C 0.38683 0.95968 0.52289 0.0
N2834 N 0.38829 0.92698 0.46074 0.0
N2835 N 0.42187 0.97953 0.5444 0.0
H2836 H 0.35224 0.95675 0.54353 0.0
H2837 H 0.37457 0.97664 0.55732 0.0
H2838 H 0.43995 0.98747 0.54485 0.0
H2839 H 0.41405 0.97641 0.56233 0.0
H2840 H 0.39993 0.92328 0.44519 0.0
H2841 H 0.37249 0.91514 0.46179 0.0
H2842 H 0.42265 0.95479 0.43795 0.0
H2843 H 0.44581 0.97246 0.45356 0.0
C2844 C 0.80095 0.63302 0.22754 0.0
C2845 C 0.79442 0.62062 0.25049 0.0
C2846 C 0.76233 0.65375 0.2589 0.0
C2847 C 0.77096 0.66683 0.2369 0.0
N2848 N 0.78499 0.65951 0.19393 0.0
N2849 N 0.76714 0.61691 0.28707 0.0
C2850 C 0.7859 0.65335 0.2191 0.0
C2851 C 0.77435 0.63021 0.26592 0.0
N2852 N 0.82208 0.62608 0.21414 0.0
N2853 N 0.74157 0.66276 0.27154 0.0
H2854 H 0.77552 0.59963 0.29215 0.0
H2855 H 0.75335 0.62292 0.29985 0.0
H2856 H 0.73077 0.67782 0.26444 0.0
H2857 H 0.73384 0.65445 0.28773 0.0
H2858 H 0.82859 0.63643 0.19849 0.0
H2859 H 0.83449 0.61179 0.22012 0.0
H2860 H 0.79446 0.64904 0.18004 0.0
H2861 H 0.7721 0.67291 0.18692 0.0
C2862 C 0.72572 0.36634 0.77225 0.0
C2863 C 0.70292 0.37227 0.75928 0.0
C2864 C 0.70226 0.32947 0.74112 0.0
C2865 C 0.72723 0.32559 0.74988 0.0
N2866 N 0.76279 0.3388 0.77477 0.0
N2867 N 0.66876 0.35975 0.73173 0.0
C2868 C 0.73876 0.34339 0.76625 0.0
C2869 C 0.69069 0.3537 0.74419 0.0
N2870 N 0.73499 0.38282 0.78987 0.0
N2871 N 0.69011 0.31004 0.72917 0.0
H2872 H 0.65927 0.377 0.73419 0.0
H2873 H 0.66058 0.34828 0.71799 0.0
H2874 H 0.69861 0.29224 0.72685 0.0
H2875 H 0.67118 0.31072 0.7237 0.0
H2876 H 0.75037 0.37874 0.80153 0.0
H2877 H 0.72601 0.39997 0.79419 0.0
H2878 H 0.77369 0.35204 0.78443 0.0
H2879 H 0.77202 0.32152 0.77153 0.0
C2880 C 0.006 0.89936 0.93701 0.0
C2881 C 0.99614 0.87857 0.9511 0.0
C2882 C 0.99023 0.90654 0.98784 0.0
C2883 C 0.00507 0.92524 0.97553 0.0
N2884 N 0.02729 0.94009 0.93842 0.0
N2885 N 0.9786 0.86197 0.99015 0.0
C2886 C 0.01257 0.92202 0.94991 0.0
C2887 C 0.9876 0.88216 0.97646 0.0
N2888 N 0.0091 0.89734 0.91133 0.0
N2889 N 0.97944 0.91203 0.01076 0.0
H2890 H 0.97648 0.84388 0.98244 0.0
H2891 H 0.9747 0.86272 0.00952 0.0
H2892 H 0.98147 0.92987 0.01913 0.0
H2893 H 0.96677 0.90004 0.0201 0.0
H2894 H 0.01406 0.9126 0.89969 0.0
H2895 H 0.00433 0.88095 0.90137 0.0
H2896 H 0.03619 0.93751 0.92095 0.0
H2897 H 0.03123 0.95748 0.94699 0.0
C2898 C 0.87752 0.2808 0.723 0.0
C2899 C 0.88454 0.2579 0.71067 0.0
C2900 C 0.84682 0.23742 0.72808 0.0
C2901 C 0.83657 0.26154 0.73376 0.0
N2902 N 0.8435 0.30599 0.74141 0.0
N2903 N 0.87466 0.21431 0.70004 0.0
C2904 C 0.85255 0.28318 0.733 0.0
C2905 C 0.86905 0.23601 0.71307 0.0
N2906 N 0.89477 0.29997 0.72532 0.0
N2907 N 0.83611 0.21599 0.73784 0.0
H2908 H 0.89042 0.21256 0.68817 0.0
H2909 H 0.86232 0.19888 0.69934 0.0
H2910 H 0.82156 0.21674 0.75123 0.0
H2911 H 0.84421 0.19803 0.73566 0.0
H2912 H 0.89151 0.31635 0.73586 0.0
H2913 H 0.9133 0.29849 0.71847 0.0
H2914 H 0.85278 0.32321 0.73861 0.0
H2915 H 0.82612 0.30754 0.75086 0.0
C2916 C 0.49263 0.10566 0.43444 0.0
C2917 C 0.50746 0.12396 0.44734 0.0
C2918 C 0.51601 0.09287 0.48121 0.0
C2919 C 0.49725 0.07685 0.47088 0.0
N2920 N 0.46876 0.06631 0.43715 0.0
N2921 N 0.53435 0.13515 0.48248 0.0
C2922 C 0.48636 0.08251 0.44697 0.0
C2923 C 0.52005 0.11739 0.47028 0.0
N2924 N 0.48454 0.11058 0.41027 0.0
N2925 N 0.52916 0.08485 0.50204 0.0
H2926 H 0.53763 0.15327 0.4751 0.0
H2927 H 0.54192 0.13256 0.50052 0.0
H2928 H 0.52558 0.06733 0.51065 0.0
H2929 H 0.5447 0.09436 0.50946 0.0
H2930 H 0.47526 0.09737 0.39902 0.0
H2931 H 0.48901 0.12734 0.40058 0.0
H2932 H 0.45731 0.07066 0.42166 0.0
H2933 H 0.46506 0.04856 0.44531 0.0
C2934 C 0.64662 0.75611 0.1905 0.0
C2935 C 0.62731 0.73896 0.19797 0.0
C2936 C 0.65669 0.71785 0.22704 0.0
C2937 C 0.67423 0.73782 0.22308 0.0
N2938 N 0.68483 0.77776 0.20271 0.0
N2939 N 0.61284 0.70462 0.22488 0.0
C2940 C 0.66917 0.75724 0.20493 0.0
C2941 C 0.63209 0.71987 0.21645 0.0
N2942 N 0.64344 0.77124 0.16956 0.0
N2943 N 0.6637 0.69703 0.24098 0.0
H2944 H 0.59443 0.70574 0.21779 0.0
H2945 H 0.61462 0.69227 0.24029 0.0
H2946 H 0.68185 0.69506 0.2486 0.0
H2947 H 0.65253 0.68082 0.24277 0.0
H2948 H 0.65794 0.78222 0.16176 0.0
H2949 H 0.62707 0.77094 0.1585 0.0
H2950 H 0.68028 0.79398 0.19223 0.0
H2951 H 0.70167 0.77941 0.21269 0.0
C2952 C 0.00353 0.10383 0.56766 0.0
C2953 C 0.01408 0.12563 0.55587 0.0
C2954 C 0.0304 0.09929 0.52147 0.0
C2955 C 0.01524 0.07884 0.53025 0.0
N2956 N 0.98652 0.06176 0.56201 0.0
N2957 N 0.03626 0.14486 0.52053 0.0
C2958 C 0.00195 0.08088 0.55372 0.0
C2959 C 0.0275 0.12356 0.53264 0.0
N2960 N 0.99518 0.10505 0.59223 0.0
N2961 N 0.04759 0.09534 0.50242 0.0
H2962 H 0.03429 0.16309 0.52798 0.0
H2963 H 0.04364 0.14464 0.50216 0.0
H2964 H 0.05051 0.07744 0.49443 0.0
H2965 H 0.06068 0.10899 0.49658 0.0
H2966 H 0.98971 0.08912 0.6027 0.0
H2967 H 0.99604 0.12164 0.60297 0.0
H2968 H 0.97374 0.06375 0.57699 0.0
H2969 H 0.98542 0.0442 0.55323 0.0
C2970 C 0.63877 0.28641 0.30119 0.0
C2971 C 0.6321 0.2617 0.30954 0.0
C2972 C 0.67303 0.24534 0.2933 0.0
C2973 C 0.67844 0.27001 0.2837 0.0
N2974 N 0.67325 0.31479 0.29168 0.0
N2975 N 0.6437 0.2179 0.31675 0.0
C2976 C 0.66349 0.29077 0.29209 0.0
C2977 C 0.64967 0.2412 0.30681 0.0
N2978 N 0.62111 0.30548 0.30032 0.0
N2979 N 0.6906 0.22651 0.29064 0.0
H2980 H 0.62754 0.21483 0.32778 0.0
H2981 H 0.65442 0.20151 0.31422 0.0
H2982 H 0.70783 0.22948 0.28159 0.0
H2983 H 0.68901 0.20837 0.29837 0.0
H2984 H 0.62475 0.3231 0.29195 0.0
H2985 H 0.60213 0.3029 0.3053 0.0
H2986 H 0.66375 0.33039 0.29937 0.0
H2987 H 0.69206 0.31832 0.28652 0.0
C2988 C 0.50897 0.87854 0.02304 0.0
C2989 C 0.50246 0.87084 0.04806 0.0
C2990 C 0.49013 0.91423 0.05848 0.0
C2991 C 0.49277 0.92132 0.0324 0.0
N2992 N 0.50335 0.90978 0.98936 0.0
N2993 N 0.48446 0.88055 0.08915 0.0
C2994 C 0.50217 0.90345 0.01452 0.0
C2995 C 0.4924 0.88846 0.06562 0.0
N2996 N 0.52168 0.86205 0.00756 0.0
N2997 N 0.48651 0.93221 0.07685 0.0
H2998 H 0.48728 0.86221 0.0962 0.0
H2999 H 0.47339 0.89177 0.10111 0.0
H3000 H 0.4851 0.95158 0.07321 0.0
H3001 H 0.48775 0.9283 0.09621 0.0
H3002 H 0.5293 0.86725 0.99004 0.0
H3003 H 0.52633 0.84358 0.01321 0.0
H3004 H 0.50765 0.89682 0.9751 0.0
H3005 H 0.49819 0.92764 0.98243 0.0
C3006 C 0.86281 0.76645 0.80579 0.0
C3007 C 0.88115 0.74764 0.79962 0.0
C3008 C 0.84993 0.72509 0.77358 0.0
C3009 C 0.83107 0.74256 0.78169 0.0
N3010 N 0.81856 0.77923 0.80605 0.0
N3011 N 0.89429 0.71204 0.77424 0.0
C3012 C 0.83736 0.76343 0.79748 0.0
C3013 C 0.87532 0.72784 0.78239 0.0
N3014 N 0.86978 0.78722 0.81962 0.0
N3015 N 0.84312 0.70536 0.75825 0.0
H3016 H 0.91303 0.71382 0.78023 0.0
H3017 H 0.89211 0.69805 0.76057 0.0
H3018 H 0.82498 0.70375 0.75057 0.0
H3019 H 0.85495 0.69031 0.75336 0.0
H3020 H 0.85834 0.80314 0.82221 0.0
H3021 H 0.88782 0.78944 0.82728 0.0
H3022 H 0.82096 0.79265 0.82028 0.0
H3023 H 0.79988 0.77824 0.79974 0.0
C3024 C 0.95984 0.98411 0.88793 0.0
C3025 C 0.96043 0.00529 0.87116 0.0
C3026 C 0.98072 0.03114 0.90397 0.0
C3027 C 0.97927 0.01025 0.92111 0.0
N3028 N 0.97402 0.9651 0.92732 0.0
N3029 N 0.97655 0.04678 0.86066 0.0
C3030 C 0.97121 0.9861 0.9123 0.0
C3031 C 0.97261 0.02812 0.8784 0.0
N3032 N 0.94698 0.96262 0.88122 0.0
N3033 N 0.9892 0.05408 0.91252 0.0
H3034 H 0.97089 0.04498 0.84179 0.0
H3035 H 0.98714 0.06307 0.86395 0.0
H3036 H -0.00277 0.05629 0.93046 0.0
H3037 H 0.98761 0.071 0.90231 0.0
H3038 H 0.943 0.94776 0.89372 0.0
H3039 H 0.93852 0.96027 0.86354 0.0
H3040 H 0.9708 0.94663 0.92114 0.0
H3041 H 0.98197 0.96581 0.94529 0.0
C3042 C 0.73408 0.19024 0.64543 0.0
C3043 C 0.75074 0.19815 0.62562 0.0
C3044 C 0.7698 0.22878 0.65382 0.0
C3045 C 0.75009 0.22472 0.67173 0.0
N3046 N 0.71196 0.2025 0.68395 0.0
N3047 N 0.77991 0.22978 0.60937 0.0
C3048 C 0.73179 0.20556 0.66752 0.0
C3049 C 0.7673 0.21884 0.62931 0.0
N3050 N 0.72117 0.16787 0.64352 0.0
N3051 N 0.79135 0.24146 0.66043 0.0
H3052 H 0.77747 0.22409 0.5906 0.0
H3053 H 0.7905 0.24637 0.61127 0.0
H3054 H 0.79488 0.24733 0.67897 0.0
H3055 H 0.80692 0.24316 0.64829 0.0
H3056 H 0.71058 0.16015 0.65839 0.0
H3057 H 0.72301 0.15581 0.62796 0.0
H3058 H 0.69673 0.1905 0.68034 0.0
H3059 H 0.70985 0.21339 0.70029 0.0
C3060 C 0.52774 0.97934 0.37877 0.0
C3061 C 0.54615 -0.0017 0.37357 0.0
C3062 C 0.5407 0.01529 0.41634 0.0
C3063 C 0.52621 0.99359 0.42285 0.0
N3064 N 0.50535 0.95488 0.41099 0.0
N3065 N 0.57264 0.03263 0.38832 0.0
C3066 C 0.51929 0.97569 0.40418 0.0
C3067 C 0.55303 0.01614 0.39245 0.0
N3068 N 0.51828 0.96507 0.35939 0.0
N3069 N 0.54316 0.03479 0.43319 0.0
H3070 H 0.58281 0.03353 0.37135 0.0
H3071 H 0.58039 0.04385 0.40254 0.0
H3072 H 0.53475 0.03462 0.45113 0.0
H3073 H 0.55148 0.05214 0.4285 0.0
H3074 H 0.50328 0.95243 0.36157 0.0
H3075 H 0.52405 0.96752 0.34057 0.0
H3076 H 0.50214 0.93956 0.39901 0.0
H3077 H 0.49784 0.95257 0.42922 0.0
C3078 C 0.76056 0.8179 0.15236 0.0
C3079 C 0.74494 0.80529 0.13455 0.0
C3080 C 0.73824 0.77014 0.1645 0.0
C3081 C 0.75718 0.78072 0.18019 0.0
N3082 N 0.78404 0.81534 0.19201 0.0
N3083 N 0.71459 0.77259 0.12495 0.0
C3084 C 0.76719 0.80517 0.17523 0.0
C3085 C 0.73201 0.78258 0.14126 0.0
N3086 N 0.76899 0.84195 0.14715 0.0
N3087 N 0.72783 0.74728 0.17115 0.0
H3088 H 0.71044 0.78072 0.10737 0.0
H3089 H 0.7035 0.75675 0.12884 0.0
H3090 H 0.73226 0.73812 0.18818 0.0
H3091 H 0.71479 0.73732 0.16035 0.0
H3092 H 0.77951 0.85292 0.1596 0.0
H3093 H 0.76399 0.85179 0.13065 0.0
H3094 H 0.79432 0.83189 0.18883 0.0
H3095 H 0.78786 0.80674 0.2095 0.0
C3096 C 0.93886 -0.00254 0.60027 0.0
C3097 C 0.95286 0.00429 0.62216 0.0
C3098 C 0.9915 0.00677 0.59637 0.0
C3099 C 0.9786 0.99477 0.57626 0.0
N3100 N 0.94002 0.97932 0.55794 0.0
N3101 N 0.99272 0.01549 0.64147 0.0
C3102 C 0.95211 0.99082 0.57766 0.0
C3103 C 0.97918 0.00956 0.62023 0.0
N3104 N 0.91297 -0.00277 0.60127 0.0
N3105 N 0.01577 0.01494 0.59255 0.0
H3106 H 0.98441 0.01768 0.65931 0.0
H3107 H 0.01241 0.01666 0.64178 0.0
H3108 H 0.02488 0.01302 0.57502 0.0
H3109 H 0.02576 0.02574 0.60564 0.0
H3110 H 0.90156 0.99453 0.58543 0.0
H3111 H 0.90286 0.00201 0.61763 0.0
H3112 H 0.92131 0.97312 0.55875 0.0
H3113 H 0.94924 0.97522 0.54088 0.0
C3114 C 0.76238 0.187 0.36202 0.0
C3115 C 0.75353 0.20471 0.38014 0.0
C3116 C 0.75161 0.23801 0.3474 0.0
C3117 C 0.76 0.21991 0.32926 0.0
N3118 N 0.76275 0.17545 0.31794 0.0
N3119 N 0.73428 0.24513 0.38967 0.0
C3120 C 0.76221 0.19387 0.33618 0.0
C3121 C 0.74627 0.22964 0.37267 0.0
N3122 N 0.77119 0.16361 0.36939 0.0
N3123 N 0.74981 0.26312 0.3409 0.0
H3124 H 0.73078 0.23962 0.40841 0.0
H3125 H 0.72612 0.2625 0.38473 0.0
H3126 H 0.75378 0.26993 0.32272 0.0
H3127 H 0.74598 0.27747 0.35391 0.0
H3128 H 0.78095 0.15152 0.35712 0.0
H3129 H 0.77051 0.15695 0.38805 0.0
H3130 H 0.76238 0.15606 0.32209 0.0
H3131 H 0.76015 0.17944 0.29872 0.0
C3132 C 0.55422 0.99282 0.11391 0.0
C3133 C 0.54927 0.01215 0.1318 0.0
C3134 C 0.51816 0.0312 0.1028 0.0
C3135 C 0.52082 0.00987 0.08666 0.0
N3136 N 0.5366 0.9672 0.08091 0.0
N3137 N 0.52431 0.04824 0.14508 0.0
C3138 C 0.53765 0.98988 0.09321 0.0
C3139 C 0.53073 0.03113 0.12671 0.0
N3140 N 0.57497 0.9774 0.11645 0.0
N3141 N 0.50374 0.05145 0.09521 0.0
H3142 H 0.53304 0.04862 0.1628 0.0
H3143 H 0.50906 0.06076 0.14348 0.0
H3144 H 0.49425 0.05186 0.07785 0.0
H3145 H 0.5029 0.06854 0.10507 0.0
H3146 H 0.58057 0.96455 0.10247 0.0
H3147 H 0.58799 0.97926 0.13118 0.0
H3148 H 0.54578 0.9509 0.08755 0.0
H3149 H 0.52494 0.96416 0.06536 0.0
C3150 C 0.73086 0.81435 0.85887 0.0
C3151 C 0.74297 0.80419 0.88083 0.0
C3152 C 0.75921 0.76918 0.85561 0.0
C3153 C 0.74355 0.77646 0.83482 0.0
N3154 N 0.71205 0.80523 0.81787 0.0
N3155 N 0.76267 0.76791 0.9011 0.0
C3156 C 0.72871 0.79896 0.83666 0.0
C3157 C 0.75525 0.78035 0.87952 0.0
N3158 N 0.72215 0.83881 0.85892 0.0
N3159 N 0.77888 0.75253 0.85235 0.0
H3160 H 0.75912 0.77489 0.91928 0.0
H3161 H 0.76974 0.74937 0.90088 0.0
H3162 H 0.78433 0.74574 0.83461 0.0
H3163 H 0.79181 0.74831 0.86671 0.0
H3164 H 0.71546 0.84798 0.84268 0.0
H3165 H 0.72377 0.85066 0.87464 0.0
H3166 H 0.6991 0.82014 0.81941 0.0
H3167 H 0.7097 0.79426 0.80164 0.0
C3168 C 0.89372 0.93897 0.99725 0.0
C3169 C 0.87526 0.94615 0.01554 0.0
C3170 C 0.9058 0.97507 0.03503 0.0
C3171 C 0.92254 0.97111 0.01434 0.0
N3172 N 0.93221 0.95014 0.97481 0.0
N3173 N 0.86269 0.97245 0.05085 0.0
C3174 C 0.91666 0.95297 0.99538 0.0
C3175 C 0.8811 0.96437 0.0344 0.0
N3176 N 0.88941 0.91857 0.98188 0.0
N3177 N 0.91372 0.989 0.05532 0.0
H3178 H 0.8443 0.96523 0.05085 0.0
H3179 H 0.86503 0.98768 0.06315 0.0
H3180 H 0.93191 0.99671 0.05628 0.0
H3181 H 0.90335 0.99073 0.07209 0.0
H3182 H 0.90312 0.91082 0.96993 0.0
H3183 H 0.87278 0.9079 0.98268 0.0
H3184 H 0.92732 0.93991 0.9587 0.0
H3185 H 0.94958 0.95926 0.97324 0.0
C3186 C 0.39044 0.5521 0.01398 0.0
C3187 C 0.3721 0.54375 0.99639 0.0
C3188 C 0.40372 0.51633 0.97585 0.0
C3189 C 0.42265 0.52756 0.99115 0.0
N3190 N 0.43478 0.55867 0.02229 0.0
N3191 N 0.35978 0.51702 0.96169 0.0
C3192 C 0.41618 0.54575 0.0099 0.0
C3193 C 0.37825 0.52532 0.97777 0.0
N3194 N 0.3833 0.5664 0.03441 0.0
N3195 N 0.41038 0.4975 0.9593 0.0
H3196 H 0.34084 0.52254 0.96354 0.0
H3197 H 0.36298 0.50514 0.9463 0.0
H3198 H 0.42894 0.49073 0.95773 0.0
H3199 H 0.39764 0.48758 0.9481 0.0
H3200 H 0.39542 0.57049 0.04942 0.0
H3201 H 0.36469 0.57231 0.03759 0.0
H3202 H 0.4314 0.57462 0.03345 0.0
H3203 H 0.45397 0.55456 0.02005 0.0
C3204 C 0.19328 0.6465 0.75873 0.0
C3205 C 0.20142 0.62602 0.74333 0.0
C3206 C 0.23438 0.65283 0.72454 0.0
C3207 C 0.22894 0.67172 0.74285 0.0
N3208 N 0.20472 0.6856 0.77949 0.0
N3209 N 0.23108 0.60846 0.71309 0.0
C3210 C 0.20858 0.66852 0.76035 0.0
C3211 C 0.22222 0.62888 0.72643 0.0
N3212 N 0.17075 0.64501 0.77156 0.0
N3213 N 0.25087 0.65803 0.70515 0.0
H3214 H 0.22273 0.59053 0.71402 0.0
H3215 H 0.24787 0.60875 0.70264 0.0
H3216 H 0.2597 0.67566 0.70308 0.0
H3217 H 0.25381 0.64591 0.68984 0.0
H3218 H 0.16253 0.6604 0.78089 0.0
H3219 H 0.15902 0.62909 0.77085 0.0
H3220 H 0.19233 0.68236 0.7946 0.0
H3221 H 0.21509 0.70226 0.78153 0.0
C3222 C 0.11134 0.44891 0.48046 0.0
C3223 C 0.1217 0.44751 0.50524 0.0
C3224 C 0.08643 0.47364 0.52098 0.0
C3225 C 0.07563 0.47329 0.49643 0.0
N3226 N 0.07298 0.45256 0.45594 0.0
N3227 N 0.11515 0.4528 0.55038 0.0
C3228 C 0.08629 0.45762 0.4775 0.0
C3229 C 0.10795 0.45797 0.52604 0.0
N3230 N 0.12595 0.44414 0.45952 0.0
N3231 N 0.07722 0.48988 0.53886 0.0
H3232 H 0.13034 0.44083 0.5547 0.0
H3233 H 0.10453 0.45841 0.56612 0.0
H3234 H 0.06153 0.50147 0.53547 0.0
H3235 H 0.08604 0.49284 0.55627 0.0
H3236 H 0.11946 0.44714 0.44107 0.0
H3237 H 0.14534 0.44036 0.46049 0.0
H3238 H 0.07952 0.44 0.44212 0.0
H3239 H 0.05437 0.45894 0.45346 0.0
C3240 C 0.81107 0.85369 0.75978 0.0
C3241 C 0.80037 0.87719 0.75183 0.0
C3242 C 0.76088 0.85538 0.74204 0.0
C3243 C 0.77335 0.83148 0.74436 0.0
N3244 N 0.81176 0.8082 0.75335 0.0
N3245 N 0.76569 0.9001 0.73247 0.0
C3246 C 0.79871 0.83059 0.75321 0.0
C3247 C 0.77531 0.87804 0.74238 0.0
N3248 N 0.83306 0.85346 0.77335 0.0
N3249 N 0.73516 0.85627 0.7391 0.0
H3250 H 0.77566 0.9172 0.73233 0.0
H3251 H 0.74868 0.90088 0.72249 0.0
H3252 H 0.72401 0.83991 0.73958 0.0
H3253 H 0.72483 0.87319 0.73896 0.0
H3254 H 0.84036 0.83704 0.78176 0.0
H3255 H 0.8426 0.8701 0.77818 0.0
H3256 H 0.8311 0.80695 0.75712 0.0
H3257 H 0.80363 0.79119 0.74769 0.0
C3258 C 0.60847 0.0656 0.52054 0.0
C3259 C 0.62838 0.05698 0.50438 0.0
C3260 C 0.60026 0.02523 0.48677 0.0
C3261 C 0.58214 0.03046 0.50601 0.0
N3262 N 0.56975 0.05435 0.54294 0.0
N3263 N 0.64467 0.02419 0.47659 0.0
C3264 C 0.58632 0.05043 0.52338 0.0
C3265 C 0.6247 0.03558 0.48867 0.0
N3266 N 0.61038 0.08848 0.53252 0.0
N3267 N 0.59398 0.01072 0.46634 0.0
H3268 H 0.6634 0.03006 0.47873 0.0
H3269 H 0.64291 0.00712 0.46679 0.0
H3270 H 0.57573 0.00384 0.46365 0.0
H3271 H 0.60596 0.0083 0.45075 0.0
H3272 H 0.59551 0.09661 0.54274 0.0
H3273 H 0.62593 0.10047 0.53017 0.0
H3274 H 0.57329 0.06694 0.5577 0.0
H3275 H 0.55324 0.0437 0.54526 0.0
C3276 C 0.19666 0.36225 0.74215 0.0
C3277 C 0.2081 0.38105 0.75742 0.0
C3278 C 0.23696 0.34913 0.77554 0.0
C3279 C 0.223 0.32999 0.76301 0.0
N3280 N 0.18817 0.31764 0.73615 0.0
N3281 N 0.2392 0.39352 0.78822 0.0
C3282 C 0.20272 0.33639 0.74647 0.0
C3283 C 0.22854 0.37487 0.77381 0.0
N3284 N 0.17975 0.36913 0.72369 0.0
N3285 N 0.25792 0.34252 0.78929 0.0
H3286 H 0.23402 0.41261 0.78651 0.0
H3287 H 0.25243 0.39016 0.80245 0.0
H3288 H 0.26406 0.32372 0.79108 0.0
H3289 H 0.27014 0.35555 0.79754 0.0
H3290 H 0.17307 0.35664 0.71 0.0
H3291 H 0.17391 0.38783 0.72059 0.0
H3292 H 0.17122 0.32097 0.72661 0.0
H3293 H 0.19197 0.29838 0.73873 0.0
C3294 C 0.27687 0.62674 0.25402 0.0
C3295 C 0.30264 0.62587 0.24648 0.0
C3296 C 0.30524 0.67228 0.24891 0.0
C3297 C 0.27959 0.67293 0.2569 0.0
N3298 N 0.23895 0.65247 0.25809 0.0
N3299 N 0.33873 0.64768 0.22878 0.0
C3300 C 0.2647 0.65064 0.25591 0.0
C3301 C 0.31592 0.64869 0.24103 0.0
N3302 N 0.26451 0.60502 0.2611 0.0
N3303 N 0.31983 0.69352 0.25074 0.0
H3304 H 0.34688 0.63054 0.22299 0.0
H3305 H 0.34821 0.66383 0.22232 0.0
H3306 H 0.31242 0.71081 0.25687 0.0
H3307 H 0.33934 0.69358 0.24753 0.0
H3308 H 0.24681 0.60513 0.26994 0.0
H3309 H 0.27274 0.58701 0.25997 0.0
H3310 H 0.22684 0.63701 0.25608 0.0
H3311 H 0.22973 0.67003 0.25937 0.0
C3312 C 0.47576 0.62505 0.53306 0.0
C3313 C 0.49988 0.63048 0.54325 0.0
C3314 C 0.51262 0.58646 0.53222 0.0
C3315 C 0.48726 0.58083 0.52537 0.0
N3316 N 0.44345 0.59334 0.53073 0.0
N3317 N 0.54372 0.61983 0.53501 0.0
C3318 C 0.46848 0.59969 0.52953 0.0
C3319 C 0.51937 0.61207 0.53864 0.0
N3320 N 0.46066 0.64419 0.52416 0.0
N3321 N 0.53002 0.56739 0.53352 0.0
H3322 H 0.54768 0.6387 0.53044 0.0
H3323 H 0.55855 0.60748 0.53059 0.0
H3324 H 0.52459 0.54854 0.53167 0.0
H3325 H 0.54841 0.56993 0.5402 0.0
H3326 H 0.4436 0.6407 0.51483 0.0
H3327 H 0.46687 0.66302 0.52351 0.0
H3328 H 0.42937 0.60668 0.53495 0.0
H3329 H 0.43744 0.57444 0.53063 0.0
C3330 C 0.62872 0.24229 0.76942 0.0
C3331 C 0.62374 0.24759 0.79538 0.0
C3332 C 0.66888 0.25279 0.80326 0.0
C3333 C 0.67419 0.24397 0.77841 0.0
N3334 N 0.65982 0.22907 0.73788 0.0
N3335 N 0.63925 0.25323 0.83815 0.0
C3336 C 0.65428 0.23863 0.7613 0.0
C3337 C 0.64384 0.2518 0.81259 0.0
N3338 N 0.60905 0.24092 0.75269 0.0
N3339 N 0.68797 0.26193 0.81809 0.0
H3340 H 0.6212 0.25198 0.84618 0.0
H3341 H 0.65358 0.25315 0.85171 0.0
H3342 H 0.70678 0.26236 0.81211 0.0
H3343 H 0.68486 0.27119 0.83526 0.0
H3344 H 0.61148 0.23931 0.73314 0.0
H3345 H 0.59019 0.24325 0.75826 0.0
H3346 H 0.64621 0.22209 0.72548 0.0
H3347 H 0.6784 0.22699 0.73138 0.0
C3348 C 0.98969 0.4009 0.05719 0.0
C3349 C 0.99512 0.37767 0.04449 0.0
C3350 C 0.00479 0.40136 0.00549 0.0
C3351 C 0.0037 0.42425 0.01952 0.0
N3352 N 0.98395 0.44666 0.05354 0.0
N3353 N 0.00463 0.35513 0.00588 0.0
C3354 C 0.9925 0.42432 0.0438 0.0
C3355 C 0.00118 0.37771 0.0182 0.0
N3356 N 0.9836 0.40068 0.08242 0.0
N3357 N 0.00939 0.40272 0.97997 0.0
H3358 H 0.0009 0.33758 0.01441 0.0
H3359 H 0.01163 0.35351 0.98748 0.0
H3360 H 0.01124 0.42017 0.9706 0.0
H3361 H 0.00947 0.3872 0.96783 0.0
H3362 H 0.98228 0.41705 0.09338 0.0
H3363 H 0.98125 0.38395 0.09285 0.0
H3364 H 0.97334 0.44799 0.07019 0.0
H3365 H 0.98495 0.46342 0.04305 0.0
C3366 C 0.85689 0.75277 0.3188 0.0
C3367 C 0.87904 0.7593 0.305 0.0
C3368 C 0.85317 0.77272 0.26929 0.0
C3369 C 0.83186 0.76059 0.28045 0.0
N3370 N 0.81361 0.73844 0.31667 0.0
N3371 N 0.89876 0.7728 0.26577 0.0
C3372 C 0.83352 0.75083 0.30567 0.0
C3373 C 0.87737 0.76875 0.27991 0.0
N3374 N 0.85817 0.74865 0.34441 0.0
N3375 N 0.85016 0.78813 0.24855 0.0
H3376 H 0.917 0.76963 0.27272 0.0
H3377 H 0.89824 0.77704 0.24642 0.0
H3378 H 0.83232 0.7924 0.2411 0.0
H3379 H 0.86489 0.79883 0.24077 0.0
H3380 H 0.8422 0.74647 0.35589 0.0
H3381 H 0.87508 0.74984 0.35456 0.0
H3382 H 0.81505 0.72825 0.33361 0.0
H3383 H 0.79593 0.73703 0.30833 0.0
C3384 C 0.50977 0.39598 0.93537 0.0
C3385 C 0.49468 0.37555 0.94444 0.0
C3386 C 0.47376 0.40417 0.97425 0.0
C3387 C 0.49192 0.42303 0.96849 0.0
N3388 N 0.53008 0.43553 0.94622 0.0
N3389 N 0.46531 0.35913 0.97579 0.0
C3390 C 0.51057 0.41879 0.94951 0.0
C3391 C 0.47724 0.37935 0.96463 0.0
N3392 N 0.52311 0.39372 0.91321 0.0
N3393 N 0.45352 0.40995 0.98942 0.0
H3394 H 0.46831 0.34037 0.9702 0.0
H3395 H 0.45445 0.36072 0.99227 0.0
H3396 H 0.4506 0.42821 0.99658 0.0
H3397 H 0.43854 0.39747 0.99266 0.0
H3398 H 0.53268 0.40888 0.90477 0.0
H3399 H 0.52254 0.37744 0.902 0.0
H3400 H 0.54579 0.43169 0.93479 0.0
H3401 H 0.53144 0.45253 0.95619 0.0
C3402 C 0.87243 0.26437 0.22221 0.0
C3403 C 0.87389 0.2594 0.1958 0.0
C3404 C 0.82944 0.24574 0.19563 0.0
C3405 C 0.82883 0.24846 0.22234 0.0
N3406 N 0.84584 0.26719 0.25994 0.0
N3407 N 0.85267 0.25221 0.15612 0.0
C3408 C 0.84909 0.26031 0.23517 0.0
C3409 C 0.85185 0.25259 0.18205 0.0
N3410 N 0.8937 0.27153 0.23505 0.0
N3411 N 0.80923 0.235 0.18366 0.0
H3412 H 0.86898 0.25681 0.14584 0.0
H3413 H 0.83689 0.24927 0.14473 0.0
H3414 H 0.79257 0.23036 0.19333 0.0
H3415 H 0.80911 0.22995 0.1646 0.0
H3416 H 0.89473 0.27265 0.25473 0.0
H3417 H 0.91088 0.27537 0.22596 0.0
H3418 H 0.85897 0.27767 0.27019 0.0
H3419 H 0.82865 0.26442 0.26945 0.0
C3420 C 0.01351 0.62957 0.48311 0.0
C3421 C 0.0009 0.63261 0.45951 0.0
C3422 C 0.9858 0.5889 0.46233 0.0
C3423 C 0.00287 0.58443 0.48246 0.0
N3424 N 0.03257 0.59996 0.51308 0.0
N3425 N 0.97818 0.61364 0.42451 0.0
C3426 C 0.01639 0.60472 0.49343 0.0
C3427 C 0.98748 0.612 0.44867 0.0
N3428 N 0.0225 0.65036 0.49559 0.0
N3429 N 0.96863 0.57074 0.45572 0.0
H3430 H 0.98026 0.62967 0.413 0.0
H3431 H 0.9707 0.59811 0.41491 0.0
H3432 H 0.96725 0.55336 0.46521 0.0
H3433 H 0.95433 0.57393 0.44247 0.0
H3434 H 0.03003 0.64954 0.51382 0.0
H3435 H 0.02036 0.66882 0.48856 0.0
H3436 H 0.04525 0.61331 0.52008 0.0
H3437 H 0.03382 0.58208 0.52171 0.0
C3438 C 0.62566 0.7566 0.7327 0.0
C3439 C 0.62156 0.754 0.70615 0.0
C3440 C 0.6671 0.74901 0.6994 0.0
C3441 C 0.67159 0.75575 0.72504 0.0
N3442 N 0.65561 0.76624 0.76644 0.0
N3443 N 0.63877 0.75182 0.66364 0.0
C3444 C 0.65098 0.75932 0.74196 0.0
C3445 C 0.64238 0.75113 0.68935 0.0
N3446 N 0.60542 0.75627 0.74892 0.0
N3447 N 0.68667 0.74052 0.68461 0.0
H3448 H 0.621 0.75373 0.65523 0.0
H3449 H 0.65364 0.75291 0.65061 0.0
H3450 H 0.70504 0.73853 0.69152 0.0
H3451 H 0.68419 0.73299 0.66654 0.0
H3452 H 0.60714 0.75578 0.76859 0.0
H3453 H 0.58677 0.75463 0.74257 0.0
H3454 H 0.64151 0.7718 0.77914 0.0
H3455 H 0.67395 0.76745 0.77371 0.0
C3456 C 0.53323 0.51235 0.62207 0.0
C3457 C 0.54965 0.49319 0.63176 0.0
C3458 C 0.53783 0.46582 0.59657 0.0
C3459 C 0.52659 0.4867 0.58362 0.0
N3460 N 0.51244 0.53069 0.5854 0.0
N3461 N 0.57127 0.4532 0.625 0.0
C3462 C 0.52359 0.51019 0.59682 0.0
C3463 C 0.55287 0.47025 0.61821 0.0
N3464 N 0.5263 0.53222 0.63721 0.0
N3465 N 0.53422 0.44164 0.588 0.0
H3466 H 0.58378 0.45624 0.63996 0.0
H3467 H 0.57583 0.43742 0.61397 0.0
H3468 H 0.52213 0.43771 0.57287 0.0
H3469 H 0.54078 0.42563 0.59774 0.0
H3470 H 0.5123 0.54533 0.63226 0.0
H3471 H 0.53287 0.53422 0.65575 0.0
H3472 H 0.51353 0.54904 0.59267 0.0
H3473 H 0.50235 0.52975 0.56856 0.0
C3474 C 0.77753 0.28297 0.87478 0.0
C3475 C 0.76289 0.30548 0.87682 0.0
C3476 C 0.74953 0.3015 0.83271 0.0
C3477 C 0.76524 0.27959 0.83033 0.0
N3478 N 0.79997 0.25458 0.84656 0.0
N3479 N 0.74099 0.34011 0.85604 0.0
C3480 C 0.78128 0.27215 0.85056 0.0
C3481 C 0.7509 0.31609 0.85519 0.0
N3482 N 0.78662 0.27109 0.89603 0.0
N3483 N 0.73196 0.30746 0.81464 0.0
H3484 H 0.74187 0.35147 0.87219 0.0
H3485 H 0.73418 0.3496 0.84003 0.0
H3486 H 0.72999 0.2976 0.79772 0.0
H3487 H 0.71795 0.32122 0.8173 0.0
H3488 H 0.79506 0.25316 0.89564 0.0
H3489 H 0.78357 0.27795 0.91434 0.0
H3490 H 0.81349 0.2499 0.8602 0.0
H3491 H 0.80353 0.24683 0.82868 0.0
C3492 C 0.97844 0.49416 0.12137 0.0
C3493 C 0.95845 0.50987 0.13063 0.0
C3494 C 0.96553 0.53944 0.09571 0.0
C3495 C 0.98056 0.52111 0.08301 0.0
N3496 N 0.00888 0.48531 0.08755 0.0
N3497 N 0.93057 0.54592 0.12439 0.0
C3498 C 0.98942 0.49962 0.09697 0.0
C3499 C 0.95143 0.53217 0.11727 0.0
N3500 N 0.98708 0.47456 0.13616 0.0
N3501 N 0.9653 0.56408 0.08743 0.0
H3502 H 0.91894 0.54083 0.13964 0.0
H3503 H 0.92343 0.5609 0.1135 0.0
H3504 H 0.97717 0.5703 0.07276 0.0
H3505 H 0.95594 0.5786 0.09712 0.0
H3506 H 0.00226 0.46284 0.13148 0.0
H3507 H 0.9794 0.47043 0.15398 0.0
H3508 H 0.0146 0.4679 0.09501 0.0
H3509 H 0.02041 0.49163 0.07274 0.0
C3510 C 0.76141 0.69339 0.35675 0.0
C3511 C 0.75853 0.7072 0.37965 0.0
C3512 C 0.75031 0.74619 0.35548 0.0
C3513 C 0.74933 0.73151 0.33302 0.0
N3514 N 0.76501 0.69515 0.31101 0.0
N3515 N 0.75288 0.74689 0.40158 0.0
C3516 C 0.75835 0.70627 0.33324 0.0
C3517 C 0.75432 0.73385 0.37922 0.0
N3518 N 0.76537 0.6677 0.35747 0.0
N3519 N 0.74741 0.77196 0.35366 0.0
H3520 H 0.75669 0.73842 0.41912 0.0
H3521 H 0.7474 0.76582 0.40307 0.0
H3522 H 0.74532 0.78107 0.33612 0.0
H3523 H 0.74895 0.78444 0.36881 0.0
H3524 H 0.76445 0.65615 0.34151 0.0
H3525 H 0.76812 0.65758 0.37432 0.0
H3526 H 0.77449 0.6778 0.30983 0.0
H3527 H 0.76414 0.7053 0.29414 0.0
C3528 C 0.53844 0.47821 0.88619 0.0
C3529 C 0.55986 0.49342 0.88027 0.0
C3530 C 0.55721 0.51314 0.92221 0.0
C3531 C 0.53311 0.50201 0.92574 0.0
N3532 N 0.50064 0.4733 0.91235 0.0
N3533 N 0.59004 0.52552 0.89234 0.0
C3534 C 0.52394 0.48385 0.90835 0.0
C3535 C 0.56969 0.5106 0.89842 0.0
N3536 N 0.53181 0.45882 0.87043 0.0
N3537 N 0.56753 0.52692 0.94148 0.0
H3538 H 0.60017 0.52368 0.8754 0.0
H3539 H 0.59607 0.54066 0.90341 0.0
H3540 H 0.55836 0.52887 0.95897 0.0
H3541 H 0.58583 0.53427 0.94103 0.0
H3542 H 0.51766 0.44571 0.8747 0.0
H3543 H 0.54187 0.45468 0.85387 0.0
H3544 H 0.49135 0.46199 0.89919 0.0
H3545 H 0.49033 0.47655 0.92899 0.0
C3546 C 0.76234 0.30773 0.13998 0.0
C3547 C 0.75219 0.29408 0.11924 0.0
C3548 C 0.73872 0.25982 0.14792 0.0
C3549 C 0.74936 0.2733 0.16848 0.0
N3550 N 0.77646 0.30684 0.18346 0.0
N3551 N 0.73528 0.25529 0.10218 0.0
C3552 C 0.76317 0.29601 0.16417 0.0
C3553 C 0.74187 0.26943 0.1228 0.0
N3554 N 0.7694 0.33261 0.13706 0.0
N3555 N 0.72489 0.23838 0.15261 0.0
H3556 H 0.73737 0.26193 0.08359 0.0
H3557 H 0.72966 0.23637 0.10332 0.0
H3558 H 0.72346 0.23031 0.17071 0.0
H3559 H 0.71404 0.22928 0.13894 0.0
H3560 H 0.77399 0.34438 0.15219 0.0
H3561 H 0.76843 0.34243 0.11986 0.0
H3562 H 0.78919 0.32173 0.18084 0.0
H3563 H 0.77649 0.29942 0.20175 0.0
C3564 C 0.96996 0.51515 0.38015 0.0
C3565 C 0.95044 0.49714 0.37693 0.0
C3566 C 0.9598 0.47875 0.41881 0.0
C3567 C 0.97784 0.4983 0.42281 0.0
N3568 N 0.99359 0.53983 0.41006 0.0
N3569 N 0.92327 0.4648 0.39469 0.0
C3570 C 0.98098 0.51792 0.40431 0.0
C3571 C 0.94424 0.47981 0.39675 0.0
N3572 N 0.97858 0.52917 0.35998 0.0
N3573 N 0.95826 0.45869 0.4353 0.0
H3574 H 0.91156 0.46511 0.37876 0.0
H3575 H 0.91631 0.45371 0.40957 0.0
H3576 H 0.96969 0.45696 0.45131 0.0
H3577 H 0.94718 0.44271 0.43195 0.0
H3578 H 0.9947 0.54053 0.3609 0.0
H3579 H 0.97129 0.52752 0.34168 0.0
H3580 H 0.99415 0.55553 0.39792 0.0
H3581 H 0.00087 0.54368 0.42797 0.0
C3582 C 0.75072 0.68423 0.64909 0.0
C3583 C 0.76299 0.69542 0.6278 0.0
C3584 C 0.7803 0.72828 0.65527 0.0
C3585 C 0.76408 0.72018 0.67519 0.0
N3586 N 0.73096 0.69179 0.68977 0.0
N3587 N 0.78612 0.73086 0.60988 0.0
C3588 C 0.74874 0.69825 0.672 0.0
C3589 C 0.77711 0.7181 0.63068 0.0
N3590 N 0.74115 0.66018 0.64754 0.0
N3591 N 0.79856 0.74601 0.6599 0.0
H3592 H 0.78325 0.7247 0.59133 0.0
H3593 H 0.79418 0.74889 0.61092 0.0
H3594 H 0.80159 0.75341 0.67799 0.0
H3595 H 0.81223 0.75119 0.64653 0.0
H3596 H 0.73416 0.65027 0.66324 0.0
H3597 H 0.74255 0.64922 0.63113 0.0
H3598 H 0.71729 0.67787 0.68678 0.0
H3599 H 0.72855 0.70149 0.70678 0.0
C3600 C 0.6071 0.56647 0.48201 0.0
C3601 C 0.62606 0.559 0.49975 0.0
C3602 C 0.59637 0.52947 0.51925 0.0
C3603 C 0.57962 0.53284 0.49855 0.0
N3604 N 0.56843 0.55471 0.45998 0.0
N3605 N 0.63993 0.52985 0.53262 0.0
C3606 C 0.58461 0.55164 0.47992 0.0
C3607 C 0.621 0.53963 0.5178 0.0
N3608 N 0.61039 0.58791 0.46766 0.0
N3609 N 0.5885 0.51682 0.54054 0.0
H3610 H 0.65871 0.53586 0.53144 0.0
H3611 H 0.63744 0.51391 0.54419 0.0
H3612 H 0.56991 0.51056 0.54271 0.0
H3613 H 0.59934 0.51554 0.55701 0.0
H3614 H 0.59632 0.59554 0.45606 0.0
H3615 H 0.62642 0.59937 0.46913 0.0
H3616 H 0.57238 0.56626 0.44435 0.0
H3617 H 0.55153 0.54457 0.45854 0.0
C3618 C 0.12874 0.97823 0.51998 0.0
C3619 C 0.13359 0.95802 0.50284 0.0
C3620 C 0.09122 0.9633 0.48517 0.0
C3621 C 0.08471 0.97907 0.50582 0.0
N3622 N 0.09678 0.00173 0.5434 0.0
N3623 N 0.11723 0.92808 0.4721 0.0
C3624 C 0.10343 0.98686 0.52327 0.0
C3625 C 0.1144 0.94988 0.48588 0.0
N3626 N 0.14827 0.98925 0.5328 0.0
N3627 N 0.07487 0.96031 0.46542 0.0
H3628 H 0.13294 0.91612 0.47355 0.0
H3629 H 0.10265 0.92024 0.46141 0.0
H3630 H 0.05774 0.97005 0.46442 0.0
H3631 H 0.0797 0.95067 0.44885 0.0
H3632 H 0.14604 0.00533 0.54406 0.0
H3633 H 0.16713 0.98379 0.53021 0.0
H3634 H 0.10889 0.00544 0.55851 0.0
H3635 H 0.0786 0.00939 0.54542 0.0
C3636 C 0.28579 0.87469 0.73766 0.0
C3637 C 0.30595 0.87737 0.755 0.0
C3638 C 0.29563 0.83617 0.77436 0.0
C3639 C 0.27661 0.83274 0.7557 0.0
N3640 N 0.25925 0.84562 0.71496 0.0
N3641 N 0.33337 0.85924 0.78685 0.0
C3642 C 0.27337 0.85107 0.73597 0.0
C3643 C 0.31194 0.85762 0.77245 0.0
N3644 N 0.27788 0.89495 0.7233 0.0
N3645 N 0.29738 0.81973 0.79444 0.0
H3646 H 0.34556 0.87482 0.78598 0.0
H3647 H 0.34016 0.84433 0.79801 0.0
H3648 H 0.28553 0.80405 0.79663 0.0
H3649 H 0.30919 0.82272 0.80993 0.0
H3650 H 0.26131 0.8947 0.71258 0.0
H3651 H 0.28642 0.91279 0.72389 0.0
H3652 H 0.25861 0.85738 0.69899 0.0
H3653 H 0.25057 0.82815 0.71202 0.0
C3654 C 0.38545 0.03202 0.98234 0.0
C3655 C 0.38065 0.05592 0.99384 0.0
C3656 C 0.42329 0.05596 0.01215 0.0
C3657 C 0.42677 0.03095 0.0031 0.0
N3658 N 0.41623 -0.00136 0.97325 0.0
N3659 N 0.39659 0.09371 0.01384 0.0
C3660 C 0.40957 0.02037 0.98568 0.0
C3661 C 0.4003 0.06904 0.00663 0.0
N3662 N 0.36645 0.01975 0.96982 0.0
N3663 N 0.44142 0.06625 0.02741 0.0
H3664 H 0.37983 0.10361 0.01009 0.0
H3665 H 0.41052 0.10498 0.02196 0.0
H3666 H 0.45866 0.05703 0.0307 0.0
H3667 H 0.43942 0.08335 0.03704 0.0
H3668 H 0.36787 0.00114 0.96336 0.0
H3669 H 0.3486 0.02781 0.96693 0.0
H3670 H 0.40554 0.99058 0.95882 0.0
H3671 H 0.43386 0.99002 0.97608 0.0
C3672 C 0.72436 0.63327 0.73375 0.0
C3673 C 0.70129 0.62708 0.74624 0.0
C3674 C 0.69941 0.67001 0.76412 0.0
C3675 C 0.72457 0.6742 0.75592 0.0
N3676 N 0.76102 0.66127 0.73188 0.0
N3677 N 0.66647 0.63927 0.77346 0.0
C3678 C 0.73686 0.65643 0.73992 0.0
C3679 C 0.68843 0.64557 0.76109 0.0
N3680 N 0.73437 0.61686 0.71634 0.0
N3681 N 0.68645 0.6894 0.77548 0.0
H3682 H 0.65744 0.62181 0.77119 0.0
H3683 H 0.65789 0.65073 0.78707 0.0
H3684 H 0.69449 0.70737 0.77775 0.0
H3685 H 0.66735 0.68848 0.7804 0.0
H3686 H 0.74997 0.62111 0.70497 0.0
H3687 H 0.72579 0.59961 0.71191 0.0
H3688 H 0.7724 0.64812 0.72248 0.0
H3689 H 0.76983 0.67867 0.73526 0.0
C3690 C 0.88535 0.46243 0.02112 0.0
C3691 C 0.87835 0.44634 0.00087 0.0
C3692 C 0.91717 0.45747 0.97775 0.0
C3693 C 0.92414 0.47297 -0.00161 0.0
N3694 N 0.91982 0.48298 0.0428 0.0
N3695 N 0.88996 0.42362 0.9628 0.0
C3696 C 0.90985 0.47297 0.02115 0.0
C3697 C 0.89505 0.44226 0.98002 0.0
N3698 N 0.86819 0.469 0.03949 0.0
N3699 N 0.93118 0.45794 0.9559 0.0
H3700 H 0.87412 0.41186 0.96425 0.0
H3701 H 0.90247 0.41834 0.94842 0.0
H3702 H 0.94798 0.46825 0.95424 0.0
H3703 H 0.92554 0.44919 0.93916 0.0
H3704 H 0.87179 0.48284 0.05308 0.0
H3705 H 0.8495 0.46263 0.0397 0.0
H3706 H 0.91102 0.48145 0.06049 0.0
H3707 H 0.93819 0.49021 0.04355 0.0
C3708 C 0.30199 0.13542 0.72277 0.0
C3709 C 0.2968 0.12257 0.74591 0.0
C3710 C 0.26661 0.15624 0.75776 0.0
C3711 C 0.27499 0.17057 0.73647 0.0
N3712 N 0.28796 0.16737 0.69282 0.0
N3713 N 0.27393 0.1199 0.78555 0.0
C3714 C 0.28868 0.15803 0.71705 0.0
C3715 C 0.2788 0.1326 0.76338 0.0
N3716 N 0.3208 0.12701 0.70693 0.0
N3717 N 0.24562 0.16386 0.77091 0.0
H3718 H 0.28178 0.10214 0.7897 0.0
H3719 H 0.26336 0.12756 0.80039 0.0
H3720 H 0.23437 0.17905 0.76496 0.0
H3721 H 0.23745 0.15339 0.7856 0.0
H3722 H 0.32722 0.13746 0.69135 0.0
H3723 H 0.33165 0.1108 0.71057 0.0
H3724 H 0.29586 0.15791 0.67735 0.0
H3725 H 0.27661 0.18293 0.68792 0.0
C3726 C 0.18813 0.85271 0.24592 0.0
C3727 C 0.20039 0.87093 0.26141 0.0
C3728 C 0.23523 0.84092 0.26942 0.0
C3729 C 0.22414 0.82399 0.25189 0.0
N3730 N 0.18738 0.8093 0.23011 0.0
N3731 N 0.232 0.88067 0.29276 0.0
C3732 C 0.19944 0.82838 0.2427 0.0
C3733 C 0.22266 0.8643 0.27507 0.0
N3734 N 0.16645 0.85919 0.23325 0.0
N3735 N 0.25849 0.83515 0.27922 0.0
H3736 H 0.22348 0.89814 0.29667 0.0
H3737 H 0.24715 0.87645 0.30466 0.0
H3738 H 0.26743 0.81783 0.27551 0.0
H3739 H 0.26908 0.84732 0.29047 0.0
H3740 H 0.15826 0.84799 0.21929 0.0
H3741 H 0.15708 0.87647 0.23591 0.0
H3742 H 0.16865 0.81029 0.22405 0.0
H3743 H 0.19576 0.79143 0.22779 0.0
C3744 C 0.48943 0.38296 0.47587 0.0
C3745 C 0.49571 0.37988 0.44981 0.0
C3746 C 0.51108 0.42383 0.44773 0.0
C3747 C 0.50648 0.42621 0.4741 0.0
N3748 N 0.48497 0.41187 0.51159 0.0
N3749 N 0.50562 0.39899 0.40936 0.0
C3750 C 0.49325 0.40702 0.4875 0.0
C3751 C 0.50414 0.40099 0.43518 0.0
N3752 N 0.48141 0.36252 0.48982 0.0
N3753 N 0.52332 0.44298 0.43513 0.0
H3754 H 0.50067 0.38243 0.39975 0.0
H3755 H 0.50967 0.41419 0.39731 0.0
H3756 H 0.52731 0.46033 0.44376 0.0
H3757 H 0.53005 0.44155 0.4166 0.0
H3758 H 0.47922 0.36275 0.50946 0.0
H3759 H 0.47822 0.34469 0.48189 0.0
H3760 H 0.47342 0.39962 0.52199 0.0
H3761 H 0.48776 0.4295 0.52017 0.0
C3762 C 0.37824 0.76705 0.22954 0.0
C3763 C 0.3828 0.753 0.20704 0.0
C3764 C 0.33842 0.74015 0.20592 0.0
C3765 C 0.33306 0.75816 0.22506 0.0
N3766 N 0.34704 0.78745 0.25688 0.0
N3767 N 0.36702 0.72756 0.17239 0.0
C3768 C 0.3528 0.77103 0.23767 0.0
C3769 C 0.36293 0.73954 0.19503 0.0
N3770 N 0.39823 0.77632 0.24302 0.0
N3771 N 0.32008 0.7236 0.19825 0.0
H3772 H 0.38464 0.72682 0.16341 0.0
H3773 H 0.35246 0.72012 0.16139 0.0
H3774 H 0.30191 0.72347 0.2061 0.0
H3775 H 0.3236 0.70843 0.18608 0.0
H3776 H 0.39642 0.78493 0.26068 0.0
H3777 H 0.41703 0.77358 0.23738 0.0
H3778 H 0.36016 0.79951 0.26523 0.0
H3779 H 0.32863 0.78957 0.26392 0.0
C3780 C -0.00182 0.60543 0.93372 0.0
C3781 C 0.00928 0.62509 0.9483 0.0
C3782 C 0.01375 0.59558 0.98423 0.0
C3783 C -0.00209 0.57819 0.97156 0.0
N3784 N 0.97631 0.56483 0.93395 0.0
N3785 N 0.02842 0.63914 0.9873 0.0
C3786 C 0.99098 0.5824 0.94596 0.0
C3787 C 0.01792 0.62006 0.97335 0.0
N3788 N 0.99446 0.60899 0.90828 0.0
N3789 N 0.02399 0.5888 0.00706 0.0
H3790 H 0.03176 0.65727 0.97997 0.0
H3791 H 0.03255 0.63752 0.00655 0.0
H3792 H 0.02062 0.57102 0.01528 0.0
H3793 H 0.0374 0.59961 0.01659 0.0
H3794 H 0.98825 0.59478 0.89614 0.0
H3795 H -0.0003 0.62567 0.89886 0.0
H3796 H 0.96777 0.56787 0.91641 0.0
H3797 H 0.97214 0.54722 0.94218 0.0
C3798 C 0.14678 0.25785 0.68833 0.0
C3799 C 0.12813 0.23952 0.6949 0.0
C3800 C 0.158 0.21799 0.72317 0.0
C3801 C 0.17523 0.23826 0.7196 0.0
N3802 N 0.18925 0.27422 0.69457 0.0
N3803 N 0.11485 0.20296 0.71935 0.0
C3804 C 0.17072 0.25714 0.70071 0.0
C3805 C 0.13356 0.21949 0.71218 0.0
N3806 N 0.14102 0.27651 0.67105 0.0
N3807 N 0.16541 0.19712 0.73686 0.0
H3808 H 0.09659 0.20352 0.71185 0.0
H3809 H 0.11678 0.18983 0.73407 0.0
H3810 H 0.18358 0.19547 0.74453 0.0
H3811 H 0.15474 0.18057 0.73842 0.0
H3812 H 0.15219 0.29234 0.66733 0.0
H3813 H 0.12432 0.27665 0.66051 0.0
H3814 H 0.18823 0.28722 0.6797 0.0
H3815 H 0.20674 0.27477 0.70351 0.0
C3816 C 0.52151 0.60422 0.06267 0.0
C3817 C 0.5088 0.6262 0.0534 0.0
C3818 C 0.49399 0.60248 0.01698 0.0
C3819 C 0.50992 0.58157 0.02384 0.0
N3820 N 0.54199 0.5644 0.05185 0.0
N3821 N 0.48892 0.64792 0.01817 0.0
C3822 C 0.52454 0.58284 0.04641 0.0
C3823 C 0.49693 0.62586 0.02945 0.0
N3824 N 0.53005 0.60349 0.08711 0.0
N3825 N 0.47503 0.59993 -0.00046 0.0
H3826 H 0.49145 0.66578 0.02626 0.0
H3827 H 0.48233 0.64862 -0.00047 0.0
H3828 H 0.47038 0.58285 0.99087 0.0
H3829 H 0.46166 0.61418 0.9961 0.0
H3830 H 0.53719 0.58705 0.09562 0.0
H3831 H 0.52788 0.61868 0.09959 0.0
H3832 H 0.55476 0.56575 0.06682 0.0
H3833 H 0.54537 0.54892 0.04005 0.0
C3834 C 0.13672 0.73346 0.78193 0.0
C3835 C 0.13249 0.74554 0.80568 0.0
C3836 C 0.17556 0.76302 0.80453 0.0
C3837 C 0.17881 0.75281 0.77994 0.0
N3838 N 0.16705 0.72219 0.74882 0.0
N3839 N 0.14995 0.76532 0.84289 0.0
C3840 C 0.16093 0.73563 0.77008 0.0
C3841 C 0.15273 0.75808 0.81814 0.0
N3842 N 0.11719 0.72161 0.76986 0.0
N3843 N 0.1937 0.77882 0.81398 0.0
H3844 H 0.1335 0.76171 0.85335 0.0
H3845 H 0.16452 0.77293 0.8537 0.0
H3846 H 0.21103 0.78156 0.80472 0.0
H3847 H 0.19139 0.78968 0.83028 0.0
H3848 H 0.11839 0.71476 0.75139 0.0
H3849 H 0.0991 0.71996 0.77769 0.0
H3850 H 0.15592 0.70765 0.74156 0.0
H3851 H 0.18473 0.72408 0.74002 0.0
C3852 C 0.99496 0.39017 0.56575 0.0
C3853 C 0.00345 0.37212 0.54781 0.0
C3854 C 0.00519 0.40496 0.51445 0.0
C3855 C 0.99405 0.42247 0.53175 0.0
N3856 N 0.98117 0.43274 0.57485 0.0
N3857 N 0.01854 0.36129 0.50617 0.0
C3858 C 0.98991 0.41532 0.5577 0.0
C3859 C 0.0095 0.37932 0.52252 0.0
N3860 N 0.99274 0.38338 0.59085 0.0
N3861 N 0.01122 0.41272 0.49036 0.0
H3862 H 0.02235 0.34264 0.51186 0.0
H3863 H 0.02178 0.36427 0.48692 0.0
H3864 H 0.00651 0.43056 0.48313 0.0
H3865 H 0.02164 0.40194 0.47753 0.0
H3866 H 0.98937 0.39606 0.60557 0.0
H3867 H 0.99598 0.36504 0.59769 0.0
H3868 H 0.9723 0.42805 0.5919 0.0
H3869 H 0.98267 0.45224 0.57209 0.0
C3870 C 0.36191 0.26502 0.30754 0.0
C3871 C 0.3814 0.2489 0.29807 0.0
C3872 C 0.35104 0.2278 0.26991 0.0
C3873 C 0.33136 0.24274 0.28054 0.0
N3874 N 0.31781 0.27861 0.30544 0.0
N3875 N 0.39632 0.21923 0.26674 0.0
C3876 C 0.33684 0.26254 0.29792 0.0
C3877 C 0.37649 0.23165 0.27804 0.0
N3878 N 0.36729 0.28193 0.32645 0.0
N3879 N 0.34511 0.20944 0.25266 0.0
H3880 H 0.4151 0.22183 0.27231 0.0
H3881 H 0.39461 0.2078 0.25081 0.0
H3882 H 0.32682 0.20725 0.2455 0.0
H3883 H 0.35788 0.19597 0.24589 0.0
H3884 H 0.35395 0.29324 0.33559 0.0
H3885 H 0.38539 0.28426 0.33394 0.0
H3886 H 0.3202 0.29425 0.31714 0.0
H3887 H 0.29935 0.27732 0.29858 0.0
C3888 C 0.47927 0.52016 0.37703 0.0
C3889 C 0.46077 0.50149 0.37134 0.0
C3890 C 0.46632 0.48288 0.41365 0.0
C3891 C 0.48076 0.50424 0.42083 0.0
N3892 N 0.50204 0.54304 0.40984 0.0
N3893 N 0.43492 0.46605 0.38501 0.0
C3894 C 0.4879 0.52267 0.40251 0.0
C3895 C 0.45413 0.48277 0.3897 0.0
N3896 N 0.48856 0.53533 0.35806 0.0
N3897 N 0.46388 0.46295 0.43012 0.0
H3898 H 0.42501 0.46558 0.36794 0.0
H3899 H 0.42734 0.45399 0.39879 0.0
H3900 H 0.47293 0.46286 0.44764 0.0
H3901 H 0.45547 0.44573 0.42537 0.0
H3902 H 0.50358 0.54787 0.36047 0.0
H3903 H 0.48258 0.53381 0.33927 0.0
H3904 H 0.5055 0.55879 0.39831 0.0
H3905 H 0.50958 0.54446 0.42808 0.0
C3906 C 0.26167 0.72065 0.1281 0.0
C3907 C 0.24875 0.69729 0.12633 0.0
C3908 C 0.23246 0.70279 0.16967 0.0
C3909 C 0.24796 0.7246 0.17222 0.0
N3910 N 0.284 0.74846 0.15599 0.0
N3911 N 0.22548 0.66346 0.14692 0.0
C3912 C 0.26462 0.73175 0.15209 0.0
C3913 C 0.23515 0.6875 0.14757 0.0
N3914 N 0.2705 0.73277 0.10682 0.0
N3915 N 0.21463 0.69719 0.18767 0.0
H3916 H 0.2275 0.65159 0.13123 0.0
H3917 H 0.2175 0.65453 0.16272 0.0
H3918 H 0.21205 0.70808 0.20395 0.0
H3919 H 0.20109 0.68302 0.18539 0.0
H3920 H 0.27797 0.7511 0.10724 0.0
H3921 H 0.26778 0.72582 0.08852 0.0
H3922 H 0.29782 0.75227 0.14231 0.0
H3923 H 0.28818 0.75602 0.17369 0.0
C3924 C 0.04917 0.51839 0.88968 0.0
C3925 C 0.04547 0.49816 0.87237 0.0
C3926 C 0.02169 0.47444 0.90466 0.0
C3927 C 0.02568 0.49462 0.92186 0.0
N3928 N 0.03528 0.5389 0.92826 0.0
N3929 N 0.0227 0.46029 0.86086 0.0
C3930 C 0.03654 0.51774 0.91341 0.0
C3931 C 0.02984 0.47723 0.87905 0.0
N3932 N 0.06625 0.53722 0.88441 0.0
N3933 N 0.01074 0.45244 0.91307 0.0
H3934 H 0.0282 0.46211 0.84189 0.0
H3935 H 0.00961 0.44584 0.86405 0.0
H3936 H 0.00321 0.4506 0.93134 0.0
H3937 H 0.00999 0.43587 0.90238 0.0
H3938 H 0.07179 0.55067 0.89771 0.0
H3939 H 0.07674 0.5381 0.86763 0.0
H3940 H 0.04072 0.55688 0.92194 0.0
H3941 H 0.02665 0.5389 0.94607 0.0
C3942 C 0.25298 0.31835 0.65435 0.0
C3943 C 0.24402 0.30295 0.63425 0.0
C3944 C 0.24219 0.26615 0.66277 0.0
C3945 C 0.25563 0.2803 0.68103 0.0
N3946 N 0.2718 0.31982 0.69643 0.0
N3947 N 0.22795 0.26299 0.61909 0.0
C3948 C 0.25981 0.30662 0.67772 0.0
C3949 C 0.23739 0.27717 0.63856 0.0
N3950 N 0.25522 0.34402 0.65081 0.0
N3951 N 0.23468 0.24199 0.66867 0.0
H3952 H 0.22383 0.27069 0.60129 0.0
H3953 H 0.22504 0.24346 0.62009 0.0
H3954 H 0.23826 0.23386 0.68643 0.0
H3955 H 0.2232 0.23092 0.65716 0.0
H3956 H 0.26002 0.35668 0.66509 0.0
H3957 H 0.25048 0.35302 0.63377 0.0
H3958 H 0.27834 0.33836 0.69445 0.0
H3959 H 0.27572 0.31165 0.7141 0.0
C3960 C 0.47504 0.48016 0.12698 0.0
C3961 C 0.45548 0.49856 0.12811 0.0
C3962 C 0.46361 0.51047 0.08367 0.0
C3963 C 0.48021 0.48942 0.0817 0.0
N3964 N 0.51203 0.46541 0.10433 0.0
N3965 N 0.43241 0.5333 0.10904 0.0
C3966 C 0.48917 0.47772 0.10434 0.0
C3967 C 0.45056 0.51481 0.10705 0.0
N3968 N 0.47951 0.46432 0.14715 0.0
N3969 N 0.46159 0.52708 0.06396 0.0
H3970 H 0.42308 0.5373 0.12606 0.0
H3971 H 0.42573 0.54392 0.09373 0.0
H3972 H 0.47116 0.52435 0.04693 0.0
H3973 H 0.45324 0.54491 0.06575 0.0
H3974 H 0.49115 0.44832 0.14594 0.0
H3975 H 0.47037 0.46616 0.16463 0.0
H3976 H 0.52045 0.45803 0.12064 0.0
H3977 H 0.524 0.46554 0.08849 0.0
C3978 C 0.25746 0.69045 0.86236 0.0
C3979 C 0.25366 0.70874 0.88161 0.0
C3980 C 0.25592 0.74323 0.85014 0.0
C3981 C 0.25972 0.72475 0.831 0.0
N3982 N 0.25516 0.68104 0.8178 0.0
N3983 N 0.2439 0.75166 0.89397 0.0
C3984 C 0.25766 0.69844 0.83682 0.0
C3985 C 0.25107 0.73494 0.87553 0.0
N3986 N 0.26171 0.66546 0.86845 0.0
N3987 N 0.25798 0.76846 0.84427 0.0
H3988 H 0.2407 0.74603 0.91273 0.0
H3989 H 0.23933 0.7706 0.89039 0.0
H3990 H 0.26104 0.77496 0.82579 0.0
H3991 H 0.25793 0.78284 0.85776 0.0
H3992 H 0.26804 0.65209 0.85532 0.0
H3993 H 0.26083 0.65828 0.88691 0.0
H3994 H 0.25086 0.66197 0.82099 0.0
H3995 H 0.25456 0.68615 0.79872 0.0
C3996 C 0.03743 0.52974 0.62279 0.0
C3997 C 0.05197 0.50791 0.62938 0.0
C3998 C 0.03777 0.48619 0.59105 0.0
C3999 C 0.02364 0.5082 0.58426 0.0
N4000 N 0.01447 0.55259 0.58988 0.0
N4001 N 0.0707 0.46781 0.61736 0.0
C4002 C 0.02492 0.53056 0.59895 0.0
C4003 C 0.05354 0.48682 0.61277 0.0
N4004 N 0.03459 0.54909 0.63979 0.0
N4005 N 0.0357 0.46451 0.577 0.0
H4006 H 0.08292 0.46782 0.63289 0.0
H4007 H 0.07447 0.45312 0.60473 0.0
H4008 H 0.02605 0.46386 0.55979 0.0
H4009 H 0.04251 0.44686 0.58291 0.0
H4010 H 0.02213 0.56425 0.63715 0.0
H4011 H 0.04321 0.54906 0.65758 0.0
H4012 H 0.01698 0.5702 0.59842 0.0
H4013 H 0.00515 0.55359 0.57245 0.0
C4014 C 0.23126 0.3148 0.359 0.0
C4015 C 0.24403 0.30493 0.38072 0.0
C4016 C 0.26145 0.27081 0.35491 0.0
C4017 C 0.24546 0.27788 0.3343 0.0
N4018 N 0.21267 0.30546 0.31795 0.0
N4019 N 0.26557 0.26936 0.40037 0.0
C4020 C 0.22971 0.29969 0.33656 0.0
C4021 C 0.25741 0.28169 0.37898 0.0
N4022 N 0.22131 0.33878 0.3595 0.0
N4023 N 0.28121 0.25431 0.35141 0.0
H4024 H 0.26194 0.276 0.41866 0.0
H4025 H 0.27335 0.25112 0.39996 0.0
H4026 H 0.28615 0.24707 0.33371 0.0
H4027 H 0.29454 0.25042 0.36548 0.0
H4028 H 0.21398 0.34783 0.34349 0.0
H4029 H 0.2225 0.35048 0.37538 0.0
H4030 H 0.19896 0.31963 0.31983 0.0
H4031 H 0.21089 0.29476 0.30146 0.0
C4032 C 0.39275 0.43792 0.49795 0.0
C4033 C 0.37446 0.44571 0.5162 0.0
C4034 C 0.40527 0.4748 0.53511 0.0
C4035 C 0.42263 0.46898 0.51535 0.0
N4036 N 0.43605 0.44014 0.48251 0.0
N4037 N 0.36222 0.47225 0.55135 0.0
C4038 C 0.41736 0.44898 0.49816 0.0
C4039 C 0.38056 0.46405 0.53487 0.0
N4040 N 0.38617 0.42064 0.47979 0.0
N4041 N 0.41295 0.49019 0.55445 0.0
H4042 H 0.34393 0.46479 0.55174 0.0
H4043 H 0.36444 0.48756 0.56356 0.0
H4044 H 0.43127 0.49758 0.55529 0.0
H4045 H 0.40229 0.4937 0.57071 0.0
H4046 H 0.39709 0.41665 0.46382 0.0
H4047 H 0.36894 0.41098 0.4799 0.0
H4048 H 0.43438 0.42426 0.47097 0.0
H4049 H 0.45442 0.44707 0.48291 0.0
C4050 C 0.8915 0.05006 0.51597 0.0
C4051 C 0.87319 0.04368 0.4974 0.0
C4052 C 0.9035 0.01513 0.47678 0.0
C4053 C 0.92178 0.02188 0.49516 0.0
N4054 N 0.93082 0.03875 0.53658 0.0
N4055 N 0.85928 0.01572 0.46415 0.0
C4056 C 0.91483 0.03676 0.51638 0.0
C4057 C 0.87837 0.02466 0.47909 0.0
N4058 N 0.88748 0.07007 0.53199 0.0
N4059 N 0.91057 0.00038 0.45667 0.0
H4060 H 0.84066 0.02233 0.46556 0.0
H4061 H 0.86137 0.00039 0.4519 0.0
H4062 H 0.92849 0.99195 0.45549 0.0
H4063 H 0.89916 -0.00274 0.44091 0.0
H4064 H 0.90142 0.07731 0.54387 0.0
H4065 H 0.87105 0.08113 0.53182 0.0
H4066 H 0.92576 0.04744 0.55359 0.0
H4067 H 0.94805 0.02916 0.53739 0.0
C4068 C 0.69154 0.14622 0.24988 0.0
C4069 C 0.70315 0.12402 0.24003 0.0
C4070 C 0.73762 0.14964 0.22211 0.0
C4071 C 0.72721 0.17136 0.23419 0.0
N4072 N 0.6884 0.19191 0.24726 0.0
N4073 N 0.7365 0.10382 0.21605 0.0
C4074 C 0.7024 0.17027 0.24449 0.0
C4075 C 0.72583 0.12555 0.22553 0.0
N4076 N 0.67051 0.14433 0.26504 0.0
N4077 N 0.75829 0.15264 0.20666 0.0
H4078 H 0.72819 0.08596 0.21815 0.0
H4079 H 0.75404 0.10304 0.20705 0.0
H4080 H 0.76597 0.17053 0.20281 0.0
H4081 H 0.76653 0.1382 0.19602 0.0
H4082 H 0.6633 0.15956 0.27541 0.0
H4083 H 0.66142 0.12714 0.26886 0.0
H4084 H 0.66944 0.1919 0.25287 0.0
H4085 H 0.69436 0.20949 0.24041 0.0
C4086 C 0.60511 0.94784 0.01812 0.0
C4087 C 0.62386 0.94642 -0.00128 0.0
C4088 C 0.59453 0.96584 0.96885 0.0
C4089 C 0.57812 0.97247 0.98915 0.0
N4090 N 0.56247 0.96023 0.03007 0.0
N4091 N 0.6377 0.95785 0.95635 0.0
C4092 C 0.58183 0.96085 0.01309 0.0
C4093 C 0.61885 0.9562 0.97418 0.0
N4094 N 0.60998 0.93769 0.04155 0.0
N4095 N 0.58639 0.96808 0.94435 0.0
H4096 H 0.65636 0.95224 0.95977 0.0
H4097 H 0.63535 0.96733 0.93908 0.0
H4098 H 0.56782 0.97343 0.93997 0.0
H4099 H 0.59691 0.9616 0.92887 0.0
H4100 H 0.59879 0.94102 0.05751 0.0
H4101 H 0.626 0.92666 0.04535 0.0
H4102 H 0.56219 0.9475 0.04521 0.0
H4103 H 0.54545 0.96961 0.02692 0.0
C4104 C 0.31166 0.3528 0.26238 0.0
C4105 C 0.29967 0.37614 0.25601 0.0
C4106 C 0.2611 0.35297 0.24528 0.0
C4107 C 0.27484 0.32976 0.24607 0.0
N4108 N 0.31411 0.30765 0.25391 0.0
N4109 N 0.26322 0.39861 0.23968 0.0
C4110 C 0.30023 0.32953 0.25484 0.0
C4111 C 0.27428 0.37634 0.24734 0.0
N4112 N 0.33406 0.35292 0.27528 0.0
N4113 N 0.23544 0.3525 0.24192 0.0
H4114 H 0.27214 0.41621 0.24116 0.0
H4115 H 0.24595 0.39939 0.23016 0.0
H4116 H 0.22539 0.33547 0.24074 0.0
H4117 H 0.22401 0.36865 0.24291 0.0
H4118 H 0.34245 0.33649 0.28255 0.0
H4119 H 0.34293 0.36973 0.28074 0.0
H4120 H 0.33353 0.30694 0.25738 0.0
H4121 H 0.30641 0.29049 0.24801 0.0
C4122 C 0.11743 0.54864 0.03279 0.0
C4123 C 0.13157 0.55014 0.00973 0.0
C4124 C 0.09608 0.53166 0.98707 0.0
C4125 C 0.08076 0.53353 0.00907 0.0
N4126 N 0.07592 0.54582 0.05262 0.0
N4127 N 0.13862 0.52284 0.97383 0.0
C4128 C 0.09111 0.54292 0.03183 0.0
C4129 C 0.12227 0.53609 0.98895 0.0
N4130 N 0.12986 0.54714 0.0554 0.0
N4131 N 0.08581 0.52447 0.96453 0.0
H4132 H 0.15795 0.5217 0.97792 0.0
H4133 H 0.13256 0.51035 0.9598 0.0
H4134 H 0.06654 0.52084 0.96268 0.0
H4135 H 0.0961 0.52454 0.94757 0.0
H4136 H 0.12072 0.54396 0.07269 0.0
H4137 H 0.1495 0.5448 0.05616 0.0
H4138 H 0.08205 0.55459 0.0692 0.0
H4139 H 0.05659 0.54158 0.05218 0.0
C4140 C 0.70654 0.86326 0.23726 0.0
C4141 C 0.70836 0.88022 0.25802 0.0
C4142 C 0.73128 0.8479 0.28259 0.0
C4143 C 0.7291 0.83094 0.26187 0.0
N4144 N 0.72329 0.82582 0.21686 0.0
N4145 N 0.7281 0.89139 0.29759 0.0
C4146 C 0.71975 0.83982 0.23827 0.0
C4147 C 0.72264 0.87341 0.27981 0.0
N4148 N 0.69083 0.86864 0.21733 0.0
N4149 N 0.74102 0.83933 0.30506 0.0
H4150 H 0.72221 0.91028 0.29585 0.0
H4151 H 0.74024 0.88821 0.31283 0.0
H4152 H 0.74913 0.82129 0.30696 0.0
H4153 H 0.74027 0.84963 0.32187 0.0
H4154 H 0.6866 0.85552 0.20323 0.0
H4155 H 0.68012 0.88527 0.21603 0.0
H4156 H 0.71878 0.83241 0.19873 0.0
H4157 H 0.73344 0.80888 0.21696 0.0
C4158 C 0.77647 0.12024 0.76524 0.0
C4159 C 0.79805 0.12126 0.74927 0.0
C4160 C 0.78896 0.16619 0.73949 0.0
C4161 C 0.77023 0.16599 0.75882 0.0
N4162 N 0.73711 0.14038 0.77735 0.0
N4163 N 0.82385 0.14386 0.71888 0.0
C4164 C 0.76112 0.14213 0.76768 0.0
C4165 C 0.80366 0.14371 0.7352 0.0
N4166 N 0.77109 0.09869 0.77884 0.0
N4167 N 0.79143 0.18694 0.72419 0.0
H4168 H 0.83467 0.12767 0.71512 0.0
H4169 H 0.83063 0.16012 0.70986 0.0
H4170 H 0.78078 0.20326 0.72692 0.0
H4171 H 0.80225 0.18727 0.70764 0.0
H4172 H 0.75768 0.09819 0.7934 0.0
H4173 H 0.78108 0.08169 0.77672 0.0
H4174 H 0.72863 0.12323 0.78243 0.0
H4175 H 0.72463 0.15584 0.77723 0.0
loop_
_geom_bond_atom_site_label_1
_geom_bond_atom_site_label_2
_geom_bond_distance
_geom_bond_site_symmetry_2
_ccdc_geom_bond_type
Li0 N17 1.990 . S
Li0 O60 1.956 . S
Li0 O61 1.970 . S
Li0 O62 1.961 1_455 S
Li1 N25 1.990 . S
Li1 O60 1.970 . S
Li1 O61 1.956 . S
Li1 O63 1.961 . S
Li2 N47 1.990 . S
Li2 O60 1.961 . S
Li2 O62 1.956 1_455 S
Li2 O63 1.970 . S
Li3 N53 1.990 . S
Li3 O61 1.961 1_655 S
Li3 O62 1.970 . S
Li3 O63 1.956 1_655 S
C4 C6 1.348 . S
C4 C7 1.356 . S
C4 O60 1.325 . S
N5 C8 1.314 . S
N5 C9 1.279 . S
C6 C4 1.348 . S
C6 C8 1.353 . S
C6 H64 0.929 . S
C7 C4 1.356 . S
C7 C9 1.358 . S
C7 H65 0.930 . S
C8 N5 1.314 . S
C8 C6 1.353 . S
C8 H66 0.930 . S
C9 N5 1.279 . S
C9 C7 1.358 . S
C9 H67 0.930 . S
C10 C13 1.348 . S
C10 C14 1.356 1_455 S
C10 O61 1.325 . S
C11 N12 1.276 1_655 S
C11 C14 1.359 . S
C11 H68 0.934 . S
N12 C11 1.276 1_455 S
N12 C15 1.314 . S
C13 C10 1.348 . S
C13 C15 1.353 . S
C13 H69 0.929 . S
C14 C10 1.356 1_655 S
C14 C11 1.359 . S
C14 H70 0.930 . S
C15 N12 1.314 . S
C15 C13 1.353 . S
C15 H71 0.930 . S
C16 N17 1.314 1_655 S
C16 C21 1.353 . S
C16 H22 0.930 . S
N17 Li0 1.990 . S
N17 C16 1.314 1_455 S
N17 C19 1.279 . S
C18 C19 1.358 . S
C18 C20 1.356 . S
C18 H72 0.930 . S
C19 N17 1.279 . S
C19 C18 1.358 . S
C19 H23 0.930 . S
C20 C18 1.356 . S
C20 C21 1.348 1_455 S
C21 C16 1.353 . S
C21 C20 1.348 1_655 S
C21 H73 0.929 . S
H22 C16 0.930 . S
H23 C19 0.930 . S
C24 N25 1.314 . S
C24 C26 1.353 . S
C24 H30 0.930 . S
N25 Li1 1.990 . S
N25 C24 1.314 . S
N25 C28 1.279 . S
C26 C24 1.353 . S
C26 C29 1.348 . S
C26 H74 0.929 . S
C27 C28 1.358 . S
C27 C29 1.356 . S
C27 H75 0.930 . S
C28 N25 1.279 . S
C28 C27 1.358 . S
C28 H31 0.930 . S
C29 C26 1.348 . S
C29 C27 1.356 . S
H30 C24 0.930 . S
H31 C28 0.930 . S
C32 C34 1.348 . S
C32 C35 1.356 . S
C32 O62 1.325 . S
N33 C36 1.314 . S
N33 C37 1.279 . S
C34 C32 1.348 . S
C34 C36 1.353 . S
C34 H76 0.929 . S
C35 C32 1.356 . S
C35 C37 1.358 . S
C35 H77 0.930 . S
C36 N33 1.314 . S
C36 C34 1.353 . S
C36 H78 0.930 . S
C37 N33 1.279 . S
C37 C35 1.358 . S
C37 H79 0.930 . S
C38 C39 1.348 1_455 S
C38 C40 1.356 . S
C38 O63 1.325 . S
C39 C38 1.348 1_655 S
C39 C41 1.353 . S
C39 H80 0.929 . S
C40 C38 1.356 . S
C40 C42 1.358 . S
C40 H81 0.930 . S
C41 C39 1.353 . S
C41 N43 1.314 1_655 S
C41 H82 0.930 . S
C42 C40 1.358 . S
C42 N43 1.279 . S
C42 H83 0.930 . S
N43 C41 1.314 1_455 S
N43 C42 1.279 . S
C44 C46 1.353 . S
C44 N47 1.314 . S
C44 H50 0.930 . S
C45 N47 1.279 1_655 S
C45 C48 1.358 . S
C45 H51 0.930 . S
C46 C44 1.353 . S
C46 C49 1.348 . S
C46 H84 0.929 . S
N47 Li2 1.990 . S
N47 C44 1.314 . S
N47 C45 1.279 1_455 S
C48 C45 1.358 . S
C48 C49 1.356 1_655 S
C48 H85 0.930 . S
C49 C46 1.348 . S
C49 C48 1.356 1_455 S
H50 C44 0.930 . S
H51 C45 0.930 . S
C52 N53 1.314 . S
C52 C54 1.353 . S
C52 H58 0.930 . S
N53 Li3 1.990 . S
N53 C52 1.314 . S
N53 C56 1.279 . S
C54 C52 1.353 . S
C54 C57 1.348 . S
C54 H86 0.929 . S
C55 C56 1.358 . S
C55 C57 1.356 . S
C55 H87 0.930 . S
C56 N53 1.279 . S
C56 C55 1.358 . S
C56 H59 0.930 . S
C57 C54 1.348 . S
C57 C55 1.356 . S
H58 C52 0.930 . S
H59 C56 0.930 . S
O60 Li0 1.956 . S
O60 Li1 1.970 . S
O60 Li2 1.961 . S
O60 C4 1.325 . S
O61 Li0 1.970 . S
O61 Li1 1.956 . S
O61 Li3 1.961 1_455 S
O61 C10 1.325 . S
O62 Li0 1.961 1_655 S
O62 Li2 1.956 1_655 S
O62 Li3 1.970 . S
O62 C32 1.325 . S
O63 Li1 1.961 . S
O63 Li2 1.970 . S
O63 Li3 1.956 1_455 S
O63 C38 1.325 . S
H64 C6 0.929 . S
H65 C7 0.930 . S
H66 C8 0.930 . S
H67 C9 0.930 . S
H68 C11 0.934 . S
H69 C13 0.929 . S
H70 C14 0.930 . S
H71 C15 0.930 . S
H72 C18 0.930 . S
H73 C21 0.929 . S
H74 C26 0.929 . S
H75 C27 0.930 . S
H76 C34 0.929 . S
H77 C35 0.930 . S
H78 C36 0.930 . S
H79 C37 0.930 . S
H80 C39 0.929 . S
H81 C40 0.930 . S
H82 C41 0.930 . S
H83 C42 0.930 . S
H84 C46 0.929 . S
H85 C48 0.930 . S
H86 C54 0.929 . S
H87 C55 0.930 . S
Li88 N105 1.990 . S
Li88 O148 1.956 1_655 S
Li88 O149 1.970 . S
Li88 O150 1.961 1_655 S
Li89 N113 1.990 . S
Li89 O148 1.970 . S
Li89 O149 1.956 1_455 S
Li89 O151 1.961 . S
Li90 N135 1.990 . S
Li90 O148 1.961 . S
Li90 O150 1.956 . S
Li90 O151 1.970 . S
Li91 N141 1.990 . S
Li91 O149 1.961 1_455 S
Li91 O150 1.970 . S
Li91 O151 1.956 . S
C92 C94 1.339 1_455 S
C92 C95 1.356 . S
C92 O148 1.325 . S
N93 C96 1.309 1_455 S
N93 C97 1.279 . S
C94 C92 1.339 1_655 S
C94 C96 1.353 . S
C94 H152 0.939 . S
C95 C92 1.356 . S
C95 C97 1.358 . S
C95 H153 0.930 . S
C96 N93 1.309 1_655 S
C96 C94 1.353 . S
C96 H154 0.936 . S
C97 N93 1.279 . S
C97 C95 1.358 . S
C97 H155 0.930 . S
C98 C101 1.348 . S
C98 C102 1.356 . S
C98 O149 1.325 . S
C99 N100 1.279 . S
C99 C102 1.358 . S
C99 H156 0.930 . S
N100 C99 1.279 . S
N100 C103 1.314 . S
C101 C98 1.348 . S
C101 C103 1.353 . S
C101 H157 0.929 . S
C102 C98 1.356 . S
C102 C99 1.358 . S
C102 H158 0.930 . S
C103 N100 1.314 . S
C103 C101 1.353 . S
C103 H159 0.930 . S
C104 N105 1.314 . S
C104 C109 1.353 . S
C104 H110 0.930 . S
N105 Li88 1.990 . S
N105 C104 1.314 . S
N105 C107 1.279 . S
C106 C107 1.358 . S
C106 C108 1.356 . S
C106 H160 0.930 . S
C107 N105 1.279 . S
C107 C106 1.358 . S
C107 H111 0.930 . S
C108 C106 1.356 . S
C108 C109 1.348 . S
C109 C104 1.353 . S
C109 C108 1.348 . S
C109 H161 0.929 . S
H110 C104 0.930 . S
H111 C107 0.930 . S
C112 N113 1.314 . S
C112 C114 1.353 . S
C112 H118 0.930 . S
N113 Li89 1.990 . S
N113 C112 1.314 . S
N113 C116 1.279 1_455 S
C114 C112 1.353 . S
C114 C117 1.348 . S
C114 H162 0.929 . S
C115 C116 1.358 . S
C115 C117 1.356 1_655 S
C115 H163 0.930 . S
C116 N113 1.279 1_655 S
C116 C115 1.358 . S
C116 H119 0.930 . S
C117 C114 1.348 . S
C117 C115 1.356 1_455 S
H118 C112 0.930 . S
H119 C116 0.930 . S
C120 C122 1.348 . S
C120 C123 1.356 . S
C120 O150 1.325 . S
N121 C124 1.314 . S
N121 C125 1.279 . S
C122 C120 1.348 . S
C122 C124 1.353 . S
C122 H164 0.929 . S
C123 C120 1.356 . S
C123 C125 1.358 . S
C123 H165 0.930 1_455 S
C124 N121 1.314 . S
C124 C122 1.353 . S
C124 H166 0.930 . S
C125 N121 1.279 . S
C125 C123 1.358 . S
C125 H167 0.930 1_455 S
C126 C127 1.348 . S
C126 C128 1.356 . S
C126 O151 1.325 . S
C127 C126 1.348 . S
C127 C129 1.353 . S
C127 H168 0.929 . S
C128 C126 1.356 . S
C128 C130 1.358 . S
C128 H169 0.930 . S
C129 C127 1.353 . S
C129 N131 1.314 . S
C129 H170 0.930 . S
C130 C128 1.358 . S
C130 N131 1.279 . S
C130 H171 0.930 . S
N131 C129 1.314 . S
N131 C130 1.279 . S
C132 C134 1.353 . S
C132 N135 1.314 . S
C132 H138 0.930 . S
C133 N135 1.279 . S
C133 C136 1.358 . S
C133 H139 0.930 . S
C134 C132 1.353 . S
C134 C137 1.348 . S
C134 H172 0.929 . S
N135 Li90 1.990 . S
N135 C132 1.314 . S
N135 C133 1.279 . S
C136 C133 1.358 . S
C136 C137 1.356 . S
C136 H173 0.930 . S
C137 C134 1.348 . S
C137 C136 1.356 . S
H138 C132 0.930 . S
H139 C133 0.930 . S
C140 N141 1.314 1_655 S
C140 C142 1.353 . S
C140 H146 0.930 . S
N141 Li91 1.990 . S
N141 C140 1.314 1_455 S
N141 C144 1.279 . S
C142 C140 1.353 . S
C142 C145 1.348 1_655 S
C142 H174 0.929 . S
C143 C144 1.358 . S
C143 C145 1.356 . S
C143 H175 0.930 . S
C144 N141 1.279 . S
C144 C143 1.358 . S
C144 H147 0.930 . S
C145 C142 1.348 1_455 S
C145 C143 1.356 . S
H146 C140 0.930 . S
H147 C144 0.930 . S
O148 Li88 1.956 1_455 S
O148 Li89 1.970 . S
O148 Li90 1.961 . S
O148 C92 1.325 . S
O149 Li88 1.970 . S
O149 Li89 1.956 1_655 S
O149 Li91 1.961 1_655 S
O149 C98 1.325 . S
O150 Li88 1.961 1_455 S
O150 Li90 1.956 . S
O150 Li91 1.970 . S
O150 C120 1.325 . S
O151 Li89 1.961 . S
O151 Li90 1.970 . S
O151 Li91 1.956 . S
O151 C126 1.325 . S
H152 C94 0.939 . S
H153 C95 0.930 . S
H154 C96 0.936 . S
H155 C97 0.930 . S
H156 C99 0.930 . S
H157 C101 0.929 . S
H158 C102 0.930 . S
H159 C103 0.930 . S
H160 C106 0.930 . S
H161 C109 0.929 . S
H162 C114 0.929 . S
H163 C115 0.930 . S
H164 C122 0.929 . S
H165 C123 0.930 1_655 S
H166 C124 0.930 . S
H167 C125 0.930 1_655 S
H168 C127 0.929 . S
H169 C128 0.930 . S
H170 C129 0.930 . S
H171 C130 0.930 . S
H172 C134 0.929 . S
H173 C136 0.930 . S
H174 C142 0.929 . S
H175 C143 0.930 . S
Li176 N193 1.990 . S
Li176 O236 1.956 . S
Li176 O237 1.970 . S
Li176 O238 1.961 . S
Li177 N201 1.990 . S
Li177 O236 1.970 . S
Li177 O237 1.956 . S
Li177 O239 1.961 . S
Li178 N223 1.990 . S
Li178 O236 1.961 . S
Li178 O238 1.956 . S
Li178 O239 1.970 . S
Li179 N229 1.990 . S
Li179 O237 1.961 . S
Li179 O238 1.970 . S
Li179 O239 1.956 . S
C180 C182 1.348 . S
C180 C183 1.356 . S
C180 O236 1.325 . S
N181 C184 1.314 . S
N181 C185 1.279 . S
C182 C180 1.348 . S
C182 C184 1.353 . S
C182 H240 0.929 . S
C183 C180 1.356 . S
C183 C185 1.358 . S
C183 H241 0.930 . S
C184 N181 1.314 . S
C184 C182 1.353 . S
C184 H242 0.930 . S
C185 N181 1.279 . S
C185 C183 1.358 . S
C185 H243 0.930 . S
C186 C189 1.348 . S
C186 C190 1.356 . S
C186 O237 1.325 . S
C187 N188 1.279 . S
C187 C190 1.358 . S
C187 H244 0.930 . S
N188 C187 1.279 . S
N188 C191 1.314 . S
C189 C186 1.348 . S
C189 C191 1.353 . S
C189 H245 0.929 . S
C190 C186 1.356 . S
C190 C187 1.358 . S
C190 H246 0.930 . S
C191 N188 1.314 . S
C191 C189 1.353 . S
C191 H247 0.930 . S
C192 N193 1.314 . S
C192 C197 1.353 . S
C192 H198 0.930 . S
N193 Li176 1.990 . S
N193 C192 1.314 . S
N193 C195 1.279 . S
C194 C195 1.358 . S
C194 C196 1.356 . S
C194 H248 0.930 . S
C195 N193 1.279 . S
C195 C194 1.358 . S
C195 H199 0.930 . S
C196 C194 1.356 . S
C196 C197 1.348 . S
C197 C192 1.353 . S
C197 C196 1.348 . S
C197 H249 0.929 . S
H198 C192 0.930 . S
H199 C195 0.930 . S
C200 N201 1.314 . S
C200 C202 1.353 . S
C200 H206 0.930 . S
N201 Li177 1.990 . S
N201 C200 1.314 . S
N201 C204 1.279 . S
C202 C200 1.353 . S
C202 C205 1.348 . S
C202 H250 0.929 . S
C203 C204 1.358 . S
C203 C205 1.356 . S
C203 H251 0.930 . S
C204 N201 1.279 . S
C204 C203 1.358 . S
C204 H207 0.930 . S
C205 C202 1.348 . S
C205 C203 1.356 . S
H206 C200 0.930 . S
H207 C204 0.930 . S
C208 C210 1.348 . S
C208 C211 1.356 . S
C208 O238 1.325 . S
N209 C212 1.314 . S
N209 C213 1.279 . S
C210 C208 1.348 . S
C210 C212 1.353 . S
C210 H252 0.929 . S
C211 C208 1.356 . S
C211 C213 1.358 . S
C211 H253 0.930 . S
C212 N209 1.314 . S
C212 C210 1.353 . S
C212 H254 0.930 . S
C213 N209 1.279 . S
C213 C211 1.358 . S
C213 H255 0.930 . S
C214 C215 1.348 . S
C214 C216 1.356 . S
C214 O239 1.325 . S
C215 C214 1.348 . S
C215 C217 1.353 . S
C215 H256 0.929 . S
C216 C214 1.356 . S
C216 C218 1.358 . S
C216 H257 0.930 . S
C217 C215 1.353 . S
C217 N219 1.314 . S
C217 H258 0.930 . S
C218 C216 1.358 . S
C218 N219 1.279 . S
C218 H259 0.930 . S
N219 C217 1.314 . S
N219 C218 1.279 . S
C220 C222 1.353 . S
C220 N223 1.314 . S
C220 H226 0.930 . S
C221 N223 1.279 . S
C221 C224 1.358 . S
C221 H227 0.930 . S
C222 C220 1.353 . S
C222 C225 1.348 . S
C222 H260 0.929 . S
N223 Li178 1.990 . S
N223 C220 1.314 . S
N223 C221 1.279 . S
C224 C221 1.358 . S
C224 C225 1.356 . S
C224 H261 0.930 . S
C225 C222 1.348 . S
C225 C224 1.356 . S
H226 C220 0.930 . S
H227 C221 0.930 . S
C228 N229 1.314 . S
C228 C230 1.353 . S
C228 H234 0.930 . S
N229 Li179 1.990 . S
N229 C228 1.314 . S
N229 C232 1.279 . S
C230 C228 1.353 . S
C230 C233 1.348 . S
C230 H262 0.929 . S
C231 C232 1.358 . S
C231 C233 1.356 . S
C231 H263 0.930 . S
C232 N229 1.279 . S
C232 C231 1.358 . S
C232 H235 0.930 . S
C233 C230 1.348 . S
C233 C231 1.356 . S
H234 C228 0.930 . S
H235 C232 0.930 . S
O236 Li176 1.956 . S
O236 Li177 1.970 . S
O236 Li178 1.961 . S
O236 C180 1.325 . S
O237 Li176 1.970 . S
O237 Li177 1.956 . S
O237 Li179 1.961 . S
O237 C186 1.325 . S
O238 Li176 1.961 . S
O238 Li178 1.956 . S
O238 Li179 1.970 . S
O238 C208 1.325 . S
O239 Li177 1.961 . S
O239 Li178 1.970 . S
O239 Li179 1.956 . S
O239 C214 1.325 . S
H240 C182 0.929 . S
H241 C183 0.930 . S
H242 C184 0.930 . S
H243 C185 0.930 . S
H244 C187 0.930 . S
H245 C189 0.929 . S
H246 C190 0.930 . S
H247 C191 0.930 . S
H248 C194 0.930 . S
H249 C197 0.929 . S
H250 C202 0.929 . S
H251 C203 0.930 . S
H252 C210 0.929 . S
H253 C211 0.930 . S
H254 C212 0.930 . S
H255 C213 0.930 . S
H256 C215 0.929 . S
H257 C216 0.930 . S
H258 C217 0.930 . S
H259 C218 0.930 . S
H260 C222 0.929 . S
H261 C224 0.930 . S
H262 C230 0.929 . S
H263 C231 0.930 . S
Li264 N281 1.990 . S
Li264 O324 1.956 . S
Li264 O325 1.970 . S
Li264 O326 1.961 . S
Li265 N289 1.990 . S
Li265 O324 1.970 . S
Li265 O325 1.956 . S
Li265 O327 1.961 . S
Li266 N311 1.990 . S
Li266 O324 1.961 . S
Li266 O326 1.956 . S
Li266 O327 1.970 . S
Li267 N317 1.990 . S
Li267 O325 1.961 . S
Li267 O326 1.970 . S
Li267 O327 1.956 . S
C268 C270 1.348 . S
C268 C271 1.356 . S
C268 O324 1.325 . S
N269 C272 1.314 . S
N269 C273 1.279 . S
C270 C268 1.348 . S
C270 C272 1.353 . S
C270 H328 0.929 . S
C271 C268 1.356 . S
C271 C273 1.358 . S
C271 H329 0.930 . S
C272 N269 1.314 . S
C272 C270 1.353 . S
C272 H330 0.930 . S
C273 N269 1.279 . S
C273 C271 1.358 . S
C273 H331 0.930 . S
C274 C277 1.348 . S
C274 C278 1.356 . S
C274 O325 1.325 . S
C275 N276 1.279 . S
C275 C278 1.358 . S
C275 H332 0.930 . S
N276 C275 1.279 . S
N276 C279 1.314 . S
C277 C274 1.348 . S
C277 C279 1.353 . S
C277 H333 0.929 . S
C278 C274 1.356 . S
C278 C275 1.358 . S
C278 H334 0.930 . S
C279 N276 1.314 . S
C279 C277 1.353 . S
C279 H335 0.930 . S
C280 N281 1.314 . S
C280 C285 1.353 . S
C280 H286 0.930 . S
N281 Li264 1.990 . S
N281 C280 1.314 . S
N281 C283 1.279 . S
C282 C283 1.358 . S
C282 C284 1.356 . S
C282 H336 0.930 . S
C283 N281 1.279 . S
C283 C282 1.358 . S
C283 H287 0.930 . S
C284 C282 1.356 . S
C284 C285 1.348 . S
C285 C280 1.353 . S
C285 C284 1.348 . S
C285 H337 0.929 . S
H286 C280 0.930 . S
H287 C283 0.930 . S
C288 N289 1.314 . S
C288 C290 1.353 . S
C288 H294 0.930 . S
N289 Li265 1.990 . S
N289 C288 1.314 . S
N289 C292 1.279 . S
C290 C288 1.353 . S
C290 C293 1.348 . S
C290 H338 0.929 . S
C291 C292 1.358 . S
C291 C293 1.356 . S
C291 H339 0.930 . S
C292 N289 1.279 . S
C292 C291 1.358 . S
C292 H295 0.930 . S
C293 C290 1.348 . S
C293 C291 1.356 . S
H294 C288 0.930 . S
H295 C292 0.930 . S
C296 C298 1.348 . S
C296 C299 1.356 . S
C296 O326 1.325 . S
N297 C300 1.314 . S
N297 C301 1.279 . S
C298 C296 1.348 . S
C298 C300 1.353 . S
C298 H340 0.929 . S
C299 C296 1.356 . S
C299 C301 1.358 . S
C299 H341 0.930 . S
C300 N297 1.314 . S
C300 C298 1.353 . S
C300 H342 0.930 . S
C301 N297 1.279 . S
C301 C299 1.358 . S
C301 H343 0.930 . S
C302 C303 1.348 . S
C302 C304 1.356 . S
C302 O327 1.325 . S
C303 C302 1.348 . S
C303 C305 1.353 . S
C303 H344 0.929 . S
C304 C302 1.356 . S
C304 C306 1.358 . S
C304 H345 0.930 . S
C305 C303 1.353 . S
C305 N307 1.314 . S
C305 H346 0.930 . S
C306 C304 1.358 . S
C306 N307 1.279 . S
C306 H347 0.930 . S
N307 C305 1.314 . S
N307 C306 1.279 . S
C308 C310 1.353 . S
C308 N311 1.314 . S
C308 H314 0.930 . S
C309 N311 1.279 . S
C309 C312 1.358 . S
C309 H315 0.930 . S
C310 C308 1.353 . S
C310 C313 1.348 . S
C310 H348 0.929 . S
N311 Li266 1.990 . S
N311 C308 1.314 . S
N311 C309 1.279 . S
C312 C309 1.358 . S
C312 C313 1.356 . S
C312 H349 0.930 . S
C313 C310 1.348 . S
C313 C312 1.356 . S
H314 C308 0.930 . S
H315 C309 0.930 . S
C316 N317 1.314 . S
C316 C318 1.353 . S
C316 H322 0.930 . S
N317 Li267 1.990 . S
N317 C316 1.314 . S
N317 C320 1.279 . S
C318 C316 1.353 . S
C318 C321 1.348 . S
C318 H350 0.929 . S
C319 C320 1.358 . S
C319 C321 1.356 . S
C319 H351 0.930 . S
C320 N317 1.279 . S
C320 C319 1.358 . S
C320 H323 0.930 . S
C321 C318 1.348 . S
C321 C319 1.356 . S
H322 C316 0.930 . S
H323 C320 0.930 . S
O324 Li264 1.956 . S
O324 Li265 1.970 . S
O324 Li266 1.961 . S
O324 C268 1.325 . S
O325 Li264 1.970 . S
O325 Li265 1.956 . S
O325 Li267 1.961 . S
O325 C274 1.325 . S
O326 Li264 1.961 . S
O326 Li266 1.956 . S
O326 Li267 1.970 . S
O326 C296 1.325 . S
O327 Li265 1.961 . S
O327 Li266 1.970 . S
O327 Li267 1.956 . S
O327 C302 1.325 . S
H328 C270 0.929 . S
H329 C271 0.930 . S
H330 C272 0.930 . S
H331 C273 0.930 . S
H332 C275 0.930 . S
H333 C277 0.929 . S
H334 C278 0.930 . S
H335 C279 0.930 . S
H336 C282 0.930 . S
H337 C285 0.929 . S
H338 C290 0.929 . S
H339 C291 0.930 . S
H340 C298 0.929 . S
H341 C299 0.930 . S
H342 C300 0.930 . S
H343 C301 0.930 . S
H344 C303 0.929 . S
H345 C304 0.930 . S
H346 C305 0.930 . S
H347 C306 0.930 . S
H348 C310 0.929 . S
H349 C312 0.930 . S
H350 C318 0.929 . S
H351 C319 0.930 . S
Li352 N369 1.990 . S
Li352 O412 1.956 . S
Li352 O413 1.970 . S
Li352 O414 1.961 1_545 S
Li353 N377 1.990 . S
Li353 O412 1.970 . S
Li353 O413 1.956 . S
Li353 O415 1.961 . S
Li354 N399 1.991 . S
Li354 O412 1.961 . S
Li354 O414 1.956 1_545 S
Li354 O415 1.970 . S
Li355 N405 1.990 . S
Li355 O413 1.961 1_565 S
Li355 O414 1.970 . S
Li355 O415 1.956 1_565 S
C356 C358 1.348 . S
C356 C359 1.356 . S
C356 O412 1.325 . S
N357 C360 1.314 . S
N357 C361 1.279 . S
C358 C356 1.348 . S
C358 C360 1.353 . S
C358 H416 0.929 . S
C359 C356 1.356 . S
C359 C361 1.358 . S
C359 H417 0.930 . S
C360 N357 1.314 . S
C360 C358 1.353 . S
C360 H418 0.930 . S
C361 N357 1.279 . S
C361 C359 1.358 . S
C361 H419 0.930 . S
C362 C365 1.348 . S
C362 C366 1.356 1_545 S
C362 O413 1.325 . S
C363 N364 1.279 1_565 S
C363 C366 1.358 . S
C363 H420 0.930 . S
N364 C363 1.279 1_545 S
N364 C367 1.314 . S
C365 C362 1.348 . S
C365 C367 1.353 . S
C365 H421 0.929 . S
C366 C362 1.356 1_565 S
C366 C363 1.358 . S
C366 H422 0.930 . S
C367 N364 1.314 . S
C367 C365 1.353 . S
C367 H423 0.930 . S
C368 N369 1.314 1_565 S
C368 C373 1.353 . S
C368 H374 0.930 . S
N369 Li352 1.990 . S
N369 C368 1.314 1_545 S
N369 C371 1.279 . S
C370 C371 1.358 . S
C370 C372 1.356 . S
C370 H424 0.930 . S
C371 N369 1.279 . S
C371 C370 1.358 . S
C371 H375 0.930 . S
C372 C370 1.356 . S
C372 C373 1.348 1_545 S
C373 C368 1.353 . S
C373 C372 1.348 1_565 S
C373 H425 0.929 . S
H374 C368 0.930 . S
H375 C371 0.930 . S
C376 N377 1.314 . S
C376 C378 1.353 . S
C376 H382 0.930 . S
N377 Li353 1.990 . S
N377 C376 1.314 . S
N377 C380 1.279 . S
C378 C376 1.353 . S
C378 C381 1.348 . S
C378 H426 0.929 . S
C379 C380 1.358 . S
C379 C381 1.356 . S
C379 H427 0.930 . S
C380 N377 1.279 . S
C380 C379 1.358 . S
C380 H383 0.930 . S
C381 C378 1.348 . S
C381 C379 1.356 . S
H382 C376 0.930 . S
H383 C380 0.930 . S
C384 C386 1.348 . S
C384 C387 1.356 . S
C384 O414 1.325 . S
N385 C388 1.314 . S
N385 C389 1.279 . S
C386 C384 1.348 . S
C386 C388 1.353 . S
C386 H428 0.929 . S
C387 C384 1.356 . S
C387 C389 1.358 . S
C387 H429 0.930 . S
C388 N385 1.314 . S
C388 C386 1.353 . S
C388 H430 0.930 . S
C389 N385 1.279 . S
C389 C387 1.358 . S
C389 H431 0.930 . S
C390 C391 1.348 1_545 S
C390 C392 1.356 . S
C390 O415 1.325 . S
C391 C390 1.348 1_565 S
C391 C393 1.353 . S
C391 H432 0.929 . S
C392 C390 1.356 . S
C392 C394 1.358 . S
C392 H433 0.930 . S
C393 C391 1.353 . S
C393 N395 1.312 1_565 S
C393 H434 0.930 . S
C394 C392 1.358 . S
C394 N395 1.282 . S
C394 H435 0.930 . S
N395 C393 1.312 1_545 S
N395 C394 1.282 . S
C396 C398 1.353 . S
C396 N399 1.341 . S
C396 H402 0.930 . S
C397 N399 1.254 1_565 S
C397 C400 1.358 . S
C397 H403 0.930 . S
C398 C396 1.353 . S
C398 C401 1.348 . S
C398 H436 0.929 . S
N399 Li354 1.991 . S
N399 C396 1.341 . S
N399 C397 1.254 1_545 S
C400 C397 1.358 . S
C400 C401 1.356 1_565 S
C400 H437 0.930 . S
C401 C398 1.348 . S
C401 C400 1.356 1_545 S
H402 C396 0.930 . S
H403 C397 0.930 . S
C404 N405 1.314 . S
C404 C406 1.353 . S
C404 H410 0.930 . S
N405 Li355 1.990 . S
N405 C404 1.314 . S
N405 C408 1.279 . S
C406 C404 1.353 . S
C406 C409 1.348 . S
C406 H438 0.929 . S
C407 C408 1.358 . S
C407 C409 1.356 . S
C407 H439 0.930 . S
C408 N405 1.279 . S
C408 C407 1.358 . S
C408 H411 0.930 . S
C409 C406 1.348 . S
C409 C407 1.356 . S
H410 C404 0.930 . S
H411 C408 0.930 . S
O412 Li352 1.956 . S
O412 Li353 1.970 . S
O412 Li354 1.961 . S
O412 C356 1.325 . S
O413 Li352 1.970 . S
O413 Li353 1.956 . S
O413 Li355 1.961 1_545 S
O413 C362 1.325 . S
O414 Li352 1.961 1_565 S
O414 Li354 1.956 1_565 S
O414 Li355 1.970 . S
O414 C384 1.325 . S
O415 Li353 1.961 . S
O415 Li354 1.970 . S
O415 Li355 1.956 1_545 S
O415 C390 1.325 . S
H416 C358 0.929 . S
H417 C359 0.930 . S
H418 C360 0.930 . S
H419 C361 0.930 . S
H420 C363 0.930 . S
H421 C365 0.929 . S
H422 C366 0.930 . S
H423 C367 0.930 . S
H424 C370 0.930 . S
H425 C373 0.929 . S
H426 C378 0.929 . S
H427 C379 0.930 . S
H428 C386 0.929 . S
H429 C387 0.930 . S
H430 C388 0.930 . S
H431 C389 0.930 . S
H432 C391 0.929 . S
H433 C392 0.930 . S
H434 C393 0.930 . S
H435 C394 0.930 . S
H436 C398 0.929 . S
H437 C400 0.930 . S
H438 C406 0.929 . S
H439 C407 0.930 . S
Li440 N457 1.990 . S
Li440 O500 1.956 . S
Li440 O501 1.970 . S
Li440 O502 1.961 . S
Li441 N465 1.990 . S
Li441 O500 1.970 . S
Li441 O501 1.956 . S
Li441 O503 1.961 . S
Li442 N487 1.990 . S
Li442 O500 1.961 . S
Li442 O502 1.956 . S
Li442 O503 1.970 . S
Li443 N493 1.990 . S
Li443 O501 1.961 . S
Li443 O502 1.970 . S
Li443 O503 1.956 . S
C444 C446 1.348 . S
C444 C447 1.356 . S
C444 O500 1.325 . S
N445 C448 1.314 . S
N445 C449 1.279 . S
C446 C444 1.348 . S
C446 C448 1.353 . S
C446 H504 0.929 . S
C447 C444 1.356 . S
C447 C449 1.358 . S
C447 H505 0.930 . S
C448 N445 1.314 . S
C448 C446 1.353 . S
C448 H506 0.930 . S
C449 N445 1.279 . S
C449 C447 1.358 . S
C449 H507 0.930 . S
C450 C453 1.348 . S
C450 C454 1.356 . S
C450 O501 1.325 . S
C451 N452 1.279 . S
C451 C454 1.358 . S
C451 H508 0.930 . S
N452 C451 1.279 . S
N452 C455 1.314 . S
C453 C450 1.348 . S
C453 C455 1.353 . S
C453 H509 0.929 . S
C454 C450 1.356 . S
C454 C451 1.358 . S
C454 H510 0.930 . S
C455 N452 1.314 . S
C455 C453 1.353 . S
C455 H511 0.930 . S
C456 N457 1.314 . S
C456 C461 1.353 . S
C456 H462 0.930 . S
N457 Li440 1.990 . S
N457 C456 1.314 . S
N457 C459 1.279 . S
C458 C459 1.358 . S
C458 C460 1.356 . S
C458 H512 0.930 . S
C459 N457 1.279 . S
C459 C458 1.358 . S
C459 H463 0.930 . S
C460 C458 1.356 . S
C460 C461 1.348 . S
C461 C456 1.353 . S
C461 C460 1.348 . S
C461 H513 0.929 . S
H462 C456 0.930 . S
H463 C459 0.930 . S
C464 N465 1.314 . S
C464 C466 1.353 . S
C464 H470 0.930 . S
N465 Li441 1.990 . S
N465 C464 1.314 . S
N465 C468 1.279 . S
C466 C464 1.353 . S
C466 C469 1.348 . S
C466 H514 0.929 . S
C467 C468 1.358 . S
C467 C469 1.356 . S
C467 H515 0.930 . S
C468 N465 1.279 . S
C468 C467 1.358 . S
C468 H471 0.930 . S
C469 C466 1.348 . S
C469 C467 1.356 . S
H470 C464 0.930 . S
H471 C468 0.930 . S
C472 C474 1.348 . S
C472 C475 1.356 . S
C472 O502 1.325 . S
N473 C476 1.314 . S
N473 C477 1.279 . S
C474 C472 1.348 . S
C474 C476 1.353 . S
C474 H516 0.929 . S
C475 C472 1.356 . S
C475 C477 1.358 . S
C475 H517 0.930 . S
C476 N473 1.314 . S
C476 C474 1.353 . S
C476 H518 0.930 . S
C477 N473 1.279 . S
C477 C475 1.358 . S
C477 H519 0.930 . S
C478 C479 1.348 . S
C478 C480 1.356 . S
C478 O503 1.325 . S
C479 C478 1.348 . S
C479 C481 1.353 . S
C479 H520 0.929 . S
C480 C478 1.356 . S
C480 C482 1.358 . S
C480 H521 0.930 . S
C481 C479 1.353 . S
C481 N483 1.314 . S
C481 H522 0.930 . S
C482 C480 1.358 . S
C482 N483 1.279 . S
C482 H523 0.930 . S
N483 C481 1.314 . S
N483 C482 1.279 . S
C484 C486 1.353 . S
C484 N487 1.314 . S
C484 H490 0.930 . S
C485 N487 1.279 . S
C485 C488 1.358 . S
C485 H491 0.930 . S
C486 C484 1.353 . S
C486 C489 1.348 . S
C486 H524 0.929 . S
N487 Li442 1.990 . S
N487 C484 1.314 . S
N487 C485 1.279 . S
C488 C485 1.358 . S
C488 C489 1.356 . S
C488 H525 0.930 . S
C489 C486 1.348 . S
C489 C488 1.356 . S
H490 C484 0.930 . S
H491 C485 0.930 . S
C492 N493 1.314 . S
C492 C494 1.353 . S
C492 H498 0.930 . S
N493 Li443 1.990 . S
N493 C492 1.314 . S
N493 C496 1.279 . S
C494 C492 1.353 . S
C494 C497 1.348 . S
C494 H526 0.929 . S
C495 C496 1.358 . S
C495 C497 1.356 . S
C495 H527 0.930 . S
C496 N493 1.279 . S
C496 C495 1.358 . S
C496 H499 0.930 . S
C497 C494 1.348 . S
C497 C495 1.356 . S
H498 C492 0.930 . S
H499 C496 0.930 . S
O500 Li440 1.956 . S
O500 Li441 1.970 . S
O500 Li442 1.961 . S
O500 C444 1.325 . S
O501 Li440 1.970 . S
O501 Li441 1.956 . S
O501 Li443 1.961 . S
O501 C450 1.325 . S
O502 Li440 1.961 . S
O502 Li442 1.956 . S
O502 Li443 1.970 . S
O502 C472 1.325 . S
O503 Li441 1.961 . S
O503 Li442 1.970 . S
O503 Li443 1.956 . S
O503 C478 1.325 . S
H504 C446 0.929 . S
H505 C447 0.930 . S
H506 C448 0.930 . S
H507 C449 0.930 . S
H508 C451 0.930 . S
H509 C453 0.929 . S
H510 C454 0.930 . S
H511 C455 0.930 . S
H512 C458 0.930 . S
H513 C461 0.929 . S
H514 C466 0.929 . S
H515 C467 0.930 . S
H516 C474 0.929 . S
H517 C475 0.930 . S
H518 C476 0.930 . S
H519 C477 0.930 . S
H520 C479 0.929 . S
H521 C480 0.930 . S
H522 C481 0.930 . S
H523 C482 0.930 . S
H524 C486 0.929 . S
H525 C488 0.930 . S
H526 C494 0.929 . S
H527 C495 0.930 . S
Li528 N545 1.990 . S
Li528 O588 1.956 1_565 S
Li528 O589 1.970 . S
Li528 O590 1.961 1_565 S
Li529 N553 1.990 . S
Li529 O588 1.970 . S
Li529 O589 1.956 1_545 S
Li529 O591 1.961 . S
Li530 N575 1.990 . S
Li530 O588 1.961 . S
Li530 O590 1.956 . S
Li530 O591 1.970 . S
Li531 N581 1.990 . S
Li531 O589 1.961 1_545 S
Li531 O590 1.970 . S
Li531 O591 1.956 . S
C532 C534 1.348 1_545 S
C532 C535 1.356 . S
C532 O588 1.325 . S
N533 C536 1.314 1_545 S
N533 C537 1.279 . S
C534 C532 1.348 1_565 S
C534 C536 1.353 . S
C534 H592 0.929 . S
C535 C532 1.356 . S
C535 C537 1.358 . S
C535 H593 0.930 . S
C536 N533 1.314 1_565 S
C536 C534 1.353 . S
C536 H594 0.930 . S
C537 N533 1.279 . S
C537 C535 1.358 . S
C537 H595 0.930 . S
C538 C541 1.348 . S
C538 C542 1.356 . S
C538 O589 1.325 . S
C539 N540 1.279 . S
C539 C542 1.358 . S
C539 H596 0.930 . S
N540 C539 1.279 . S
N540 C543 1.314 . S
C541 C538 1.348 . S
C541 C543 1.353 . S
C541 H597 0.929 . S
C542 C538 1.356 . S
C542 C539 1.358 . S
C542 H598 0.930 . S
C543 N540 1.314 . S
C543 C541 1.353 . S
C543 H599 0.930 . S
C544 N545 1.314 . S
C544 C549 1.353 . S
C544 H550 0.930 . S
N545 Li528 1.990 . S
N545 C544 1.314 . S
N545 C547 1.279 . S
C546 C547 1.358 . S
C546 C548 1.356 . S
C546 H600 0.930 . S
C547 N545 1.279 . S
C547 C546 1.358 . S
C547 H551 0.930 . S
C548 C546 1.356 . S
C548 C549 1.348 . S
C549 C544 1.353 . S
C549 C548 1.348 . S
C549 H601 0.929 . S
H550 C544 0.930 . S
H551 C547 0.930 . S
C552 N553 1.314 . S
C552 C554 1.353 . S
C552 H558 0.930 . S
N553 Li529 1.990 . S
N553 C552 1.314 . S
N553 C556 1.279 1_545 S
C554 C552 1.353 . S
C554 C557 1.348 . S
C554 H602 0.929 . S
C555 C556 1.358 . S
C555 C557 1.356 1_565 S
C555 H603 0.930 . S
C556 N553 1.279 1_565 S
C556 C555 1.358 . S
C556 H559 0.930 . S
C557 C554 1.348 . S
C557 C555 1.356 1_545 S
H558 C552 0.930 . S
H559 C556 0.930 . S
C560 C562 1.348 . S
C560 C563 1.356 . S
C560 O590 1.325 . S
N561 C564 1.314 . S
N561 C565 1.279 . S
C562 C560 1.348 . S
C562 C564 1.353 . S
C562 H604 0.929 . S
C563 C560 1.356 . S
C563 C565 1.358 . S
C563 H605 0.930 1_545 S
C564 N561 1.314 . S
C564 C562 1.353 . S
C564 H606 0.930 . S
C565 N561 1.279 . S
C565 C563 1.358 . S
C565 H607 0.930 1_545 S
C566 C567 1.348 . S
C566 C568 1.356 . S
C566 O591 1.325 . S
C567 C566 1.348 . S
C567 C569 1.353 . S
C567 H608 0.929 . S
C568 C566 1.356 . S
C568 C570 1.358 . S
C568 H609 0.930 . S
C569 C567 1.353 . S
C569 N571 1.314 . S
C569 H610 0.930 . S
C570 C568 1.358 . S
C570 N571 1.279 . S
C570 H611 0.930 . S
N571 C569 1.314 . S
N571 C570 1.279 . S
C572 C574 1.353 . S
C572 N575 1.314 . S
C572 H578 0.930 . S
C573 N575 1.279 . S
C573 C576 1.358 . S
C573 H579 0.930 . S
C574 C572 1.353 . S
C574 C577 1.348 . S
C574 H612 0.929 . S
N575 Li530 1.990 . S
N575 C572 1.314 . S
N575 C573 1.279 . S
C576 C573 1.358 . S
C576 C577 1.356 . S
C576 H613 0.930 . S
C577 C574 1.348 . S
C577 C576 1.356 . S
H578 C572 0.930 . S
H579 C573 0.930 . S
C580 N581 1.314 1_565 S
C580 C582 1.353 . S
C580 H586 0.930 . S
N581 Li531 1.990 . S
N581 C580 1.314 1_545 S
N581 C584 1.279 . S
C582 C580 1.353 . S
C582 C585 1.348 1_565 S
C582 H614 0.929 . S
C583 C584 1.358 . S
C583 C585 1.356 . S
C583 H615 0.930 . S
C584 N581 1.279 . S
C584 C583 1.358 . S
C584 H587 0.930 . S
C585 C582 1.348 1_545 S
C585 C583 1.356 . S
H586 C580 0.930 . S
H587 C584 0.930 . S
O588 Li528 1.956 1_545 S
O588 Li529 1.970 . S
O588 Li530 1.961 . S
O588 C532 1.325 . S
O589 Li528 1.970 . S
O589 Li529 1.956 1_565 S
O589 Li531 1.961 1_565 S
O589 C538 1.325 . S
O590 Li528 1.961 1_545 S
O590 Li530 1.956 . S
O590 Li531 1.970 . S
O590 C560 1.325 . S
O591 Li529 1.961 . S
O591 Li530 1.970 . S
O591 Li531 1.956 . S
O591 C566 1.325 . S
H592 C534 0.929 . S
H593 C535 0.930 . S
H594 C536 0.930 . S
H595 C537 0.930 . S
H596 C539 0.930 . S
H597 C541 0.929 . S
H598 C542 0.930 . S
H599 C543 0.930 . S
H600 C546 0.930 . S
H601 C549 0.929 . S
H602 C554 0.929 . S
H603 C555 0.930 . S
H604 C562 0.929 . S
H605 C563 0.930 1_565 S
H606 C564 0.930 . S
H607 C565 0.930 1_565 S
H608 C567 0.929 . S
H609 C568 0.930 . S
H610 C569 0.930 . S
H611 C570 0.930 . S
H612 C574 0.929 . S
H613 C576 0.930 . S
H614 C582 0.929 . S
H615 C583 0.930 . S
Li616 N633 1.990 . S
Li616 O676 1.956 . S
Li616 O677 1.970 . S
Li616 O678 1.961 . S
Li617 N641 1.990 . S
Li617 O676 1.970 . S
Li617 O677 1.956 . S
Li617 O679 1.961 1_554 S
Li618 N663 1.990 . S
Li618 O676 1.961 1_556 S
Li618 O678 1.956 1_556 S
Li618 O679 1.970 . S
Li619 N669 1.990 . S
Li619 O677 1.961 . S
Li619 O678 1.970 . S
Li619 O679 1.956 1_554 S
C620 C622 1.348 . S
C620 C623 1.356 . S
C620 O676 1.325 . S
N621 C624 1.314 . S
N621 C625 1.279 . S
C622 C620 1.348 . S
C622 C624 1.353 . S
C622 H680 0.929 . S
C623 C620 1.356 . S
C623 C625 1.358 . S
C623 H681 0.930 1_554 S
C624 N621 1.314 . S
C624 C622 1.353 . S
C624 H682 0.930 . S
C625 N621 1.279 . S
C625 C623 1.358 . S
C625 H683 0.930 1_554 S
C626 C629 1.348 . S
C626 C630 1.356 . S
C626 O677 1.325 . S
C627 N628 1.279 . S
C627 C630 1.358 . S
C627 H684 0.930 . S
N628 C627 1.279 . S
N628 C631 1.314 . S
C629 C626 1.348 . S
C629 C631 1.353 . S
C629 H685 0.929 . S
C630 C626 1.356 . S
C630 C627 1.358 . S
C630 H686 0.930 . S
C631 N628 1.314 . S
C631 C629 1.353 . S
C631 H687 0.930 . S
C632 N633 1.314 . S
C632 C637 1.353 . S
C632 H638 0.930 . S
N633 Li616 1.990 . S
N633 C632 1.314 . S
N633 C635 1.279 . S
C634 C635 1.358 . S
C634 C636 1.356 . S
C634 H688 0.930 . S
C635 N633 1.279 . S
C635 C634 1.358 . S
C635 H639 0.930 . S
C636 C634 1.356 . S
C636 C637 1.348 . S
C637 C632 1.353 . S
C637 C636 1.348 . S
C637 H689 0.929 . S
H638 C632 0.930 . S
H639 C635 0.930 . S
C640 N641 1.314 1_556 S
C640 C642 1.353 . S
C640 H646 0.930 . S
N641 Li617 1.990 . S
N641 C640 1.314 1_554 S
N641 C644 1.279 . S
C642 C640 1.353 . S
C642 C645 1.348 1_556 S
C642 H690 0.929 . S
C643 C644 1.358 . S
C643 C645 1.356 . S
C643 H691 0.930 . S
C644 N641 1.279 . S
C644 C643 1.358 . S
C644 H647 0.930 . S
C645 C642 1.348 1_554 S
C645 C643 1.356 . S
H646 C640 0.930 . S
H647 C644 0.930 . S
C648 C650 1.348 1_554 S
C648 C651 1.356 . S
C648 O678 1.325 . S
N649 C652 1.314 1_554 S
N649 C653 1.279 . S
C650 C648 1.348 1_556 S
C650 C652 1.353 . S
C650 H692 0.929 . S
C651 C648 1.356 . S
C651 C653 1.358 . S
C651 H693 0.930 . S
C652 N649 1.314 1_556 S
C652 C650 1.353 . S
C652 H694 0.930 . S
C653 N649 1.279 . S
C653 C651 1.358 . S
C653 H695 0.930 . S
C654 C655 1.348 . S
C654 C656 1.356 . S
C654 O679 1.325 . S
C655 C654 1.348 . S
C655 C657 1.353 . S
C655 H696 0.929 . S
C656 C654 1.356 . S
C656 C658 1.358 . S
C656 H697 0.930 . S
C657 C655 1.353 . S
C657 N659 1.314 . S
C657 H698 0.930 . S
C658 C656 1.358 . S
C658 N659 1.279 . S
C658 H699 0.930 . S
N659 C657 1.314 . S
N659 C658 1.279 . S
C660 C662 1.353 . S
C660 N663 1.314 . S
C660 H666 0.930 . S
C661 N663 1.279 . S
C661 C664 1.358 . S
C661 H667 0.930 . S
C662 C660 1.353 . S
C662 C665 1.348 . S
C662 H700 0.929 . S
N663 Li618 1.990 . S
N663 C660 1.314 . S
N663 C661 1.279 . S
C664 C661 1.358 . S
C664 C665 1.356 . S
C664 H701 0.930 . S
C665 C662 1.348 . S
C665 C664 1.356 . S
H666 C660 0.930 . S
H667 C661 0.930 . S
C668 N669 1.314 . S
C668 C670 1.353 . S
C668 H674 0.930 . S
N669 Li619 1.990 . S
N669 C668 1.314 . S
N669 C672 1.279 1_554 S
C670 C668 1.353 . S
C670 C673 1.348 . S
C670 H702 0.929 . S
C671 C672 1.358 . S
C671 C673 1.356 1_556 S
C671 H703 0.930 . S
C672 N669 1.279 1_556 S
C672 C671 1.358 . S
C672 H675 0.930 . S
C673 C670 1.348 . S
C673 C671 1.356 1_554 S
H674 C668 0.930 . S
H675 C672 0.930 . S
O676 Li616 1.956 . S
O676 Li617 1.970 . S
O676 Li618 1.961 1_554 S
O676 C620 1.325 . S
O677 Li616 1.970 . S
O677 Li617 1.956 . S
O677 Li619 1.961 . S
O677 C626 1.325 . S
O678 Li616 1.961 . S
O678 Li618 1.956 1_554 S
O678 Li619 1.970 . S
O678 C648 1.325 . S
O679 Li617 1.961 1_556 S
O679 Li618 1.970 . S
O679 Li619 1.956 1_556 S
O679 C654 1.325 . S
H680 C622 0.929 . S
H681 C623 0.930 1_556 S
H682 C624 0.930 . S
H683 C625 0.930 1_556 S
H684 C627 0.930 . S
H685 C629 0.929 . S
H686 C630 0.930 . S
H687 C631 0.930 . S
H688 C634 0.930 . S
H689 C637 0.929 . S
H690 C642 0.929 . S
H691 C643 0.930 . S
H692 C650 0.929 . S
H693 C651 0.930 . S
H694 C652 0.930 . S
H695 C653 0.930 . S
H696 C655 0.929 . S
H697 C656 0.930 . S
H698 C657 0.930 . S
H699 C658 0.930 . S
H700 C662 0.929 . S
H701 C664 0.930 . S
H702 C670 0.929 . S
H703 C671 0.930 . S
Li704 N721 1.990 . S
Li704 O764 1.956 . S
Li704 O765 1.970 . S
Li704 O766 1.961 1_554 S
Li705 N729 1.990 . S
Li705 O764 1.970 . S
Li705 O765 1.956 . S
Li705 O767 1.961 . S
Li706 N751 1.990 . S
Li706 O764 1.961 . S
Li706 O766 1.956 1_554 S
Li706 O767 1.970 . S
Li707 N757 1.990 . S
Li707 O765 1.961 1_556 S
Li707 O766 1.970 . S
Li707 O767 1.956 1_556 S
C708 C710 1.348 . S
C708 C711 1.356 . S
C708 O764 1.325 . S
N709 C712 1.314 . S
N709 C713 1.279 . S
C710 C708 1.348 . S
C710 C712 1.353 . S
C710 H768 0.929 . S
C711 C708 1.356 . S
C711 C713 1.358 . S
C711 H769 0.930 . S
C712 N709 1.314 . S
C712 C710 1.353 . S
C712 H770 0.930 . S
C713 N709 1.279 . S
C713 C711 1.358 . S
C713 H771 0.930 . S
C714 C717 1.348 . S
C714 C718 1.356 . S
C714 O765 1.325 . S
C715 N716 1.289 . S
C715 C718 1.358 . S
C715 H772 0.922 1_554 S
N716 C715 1.289 . S
N716 C719 1.314 . S
C717 C714 1.348 . S
C717 C719 1.353 . S
C717 H773 0.929 . S
C718 C714 1.356 . S
C718 C715 1.358 . S
C718 H774 0.929 1_554 S
C719 N716 1.314 . S
C719 C717 1.353 . S
C719 H775 0.930 . S
C720 N721 1.314 1_556 S
C720 C725 1.353 . S
C720 H726 0.930 . S
N721 Li704 1.990 . S
N721 C720 1.314 1_554 S
N721 C723 1.279 . S
C722 C723 1.358 . S
C722 C724 1.356 . S
C722 H776 0.930 . S
C723 N721 1.279 . S
C723 C722 1.358 . S
C723 H727 0.930 . S
C724 C722 1.356 . S
C724 C725 1.348 1_554 S
C725 C720 1.353 . S
C725 C724 1.348 1_556 S
C725 H777 0.929 . S
H726 C720 0.930 . S
H727 C723 0.930 . S
C728 N729 1.314 . S
C728 C730 1.353 . S
C728 H734 0.930 . S
N729 Li705 1.990 . S
N729 C728 1.314 . S
N729 C732 1.279 . S
C730 C728 1.353 . S
C730 C733 1.348 . S
C730 H778 0.929 . S
C731 C732 1.358 . S
C731 C733 1.356 . S
C731 H779 0.930 . S
C732 N729 1.279 . S
C732 C731 1.358 . S
C732 H735 0.930 . S
C733 C730 1.348 . S
C733 C731 1.356 . S
H734 C728 0.930 . S
H735 C732 0.930 . S
C736 C738 1.348 . S
C736 C739 1.356 . S
C736 O766 1.325 . S
N737 C740 1.314 . S
N737 C741 1.279 . S
C738 C736 1.348 . S
C738 C740 1.353 . S
C738 H780 0.929 . S
C739 C736 1.356 . S
C739 C741 1.358 . S
C739 H781 0.930 . S
C740 N737 1.314 . S
C740 C738 1.353 . S
C740 H782 0.930 . S
C741 N737 1.279 . S
C741 C739 1.358 . S
C741 H783 0.930 . S
C742 C743 1.348 1_554 S
C742 C744 1.356 . S
C742 O767 1.325 . S
C743 C742 1.348 1_556 S
C743 C745 1.353 . S
C743 H784 0.929 . S
C744 C742 1.356 . S
C744 C746 1.358 . S
C744 H785 0.930 . S
C745 C743 1.353 . S
C745 N747 1.314 1_556 S
C745 H786 0.930 . S
C746 C744 1.358 . S
C746 N747 1.279 . S
C746 H787 0.930 . S
N747 C745 1.314 1_554 S
N747 C746 1.279 . S
C748 C750 1.353 . S
C748 N751 1.314 . S
C748 H754 0.930 . S
C749 N751 1.279 1_556 S
C749 C752 1.358 . S
C749 H755 0.930 . S
C750 C748 1.353 . S
C750 C753 1.348 . S
C750 H788 0.929 . S
N751 Li706 1.990 . S
N751 C748 1.314 . S
N751 C749 1.279 1_554 S
C752 C749 1.358 . S
C752 C753 1.356 1_556 S
C752 H789 0.930 . S
C753 C750 1.348 . S
C753 C752 1.356 1_554 S
H754 C748 0.930 . S
H755 C749 0.930 . S
C756 N757 1.314 . S
C756 C758 1.353 . S
C756 H762 0.930 . S
N757 Li707 1.990 . S
N757 C756 1.314 . S
N757 C760 1.279 . S
C758 C756 1.353 . S
C758 C761 1.348 . S
C758 H790 0.929 . S
C759 C760 1.358 . S
C759 C761 1.356 . S
C759 H791 0.930 . S
C760 N757 1.279 . S
C760 C759 1.358 . S
C760 H763 0.930 . S
C761 C758 1.348 . S
C761 C759 1.356 . S
H762 C756 0.930 . S
H763 C760 0.930 . S
O764 Li704 1.956 . S
O764 Li705 1.970 . S
O764 Li706 1.961 . S
O764 C708 1.325 . S
O765 Li704 1.970 . S
O765 Li705 1.956 . S
O765 Li707 1.961 1_554 S
O765 C714 1.325 . S
O766 Li704 1.961 1_556 S
O766 Li706 1.956 1_556 S
O766 Li707 1.970 . S
O766 C736 1.325 . S
O767 Li705 1.961 . S
O767 Li706 1.970 . S
O767 Li707 1.956 1_554 S
O767 C742 1.325 . S
H768 C710 0.929 . S
H769 C711 0.930 . S
H770 C712 0.930 . S
H771 C713 0.930 . S
H772 C715 0.922 1_556 S
H773 C717 0.929 . S
H774 C718 0.929 1_556 S
H775 C719 0.930 . S
H776 C722 0.930 . S
H777 C725 0.929 . S
H778 C730 0.929 . S
H779 C731 0.930 . S
H780 C738 0.929 . S
H781 C739 0.930 . S
H782 C740 0.930 . S
H783 C741 0.930 . S
H784 C743 0.929 . S
H785 C744 0.930 . S
H786 C745 0.930 . S
H787 C746 0.930 . S
H788 C750 0.929 . S
H789 C752 0.930 . S
H790 C758 0.929 . S
H791 C759 0.930 . S
Li792 N809 1.990 . S
Li792 O852 1.956 . S
Li792 O853 1.970 . S
Li792 O854 1.961 . S
Li793 N817 1.990 . S
Li793 O852 1.970 . S
Li793 O853 1.956 . S
Li793 O855 1.961 . S
Li794 N839 1.990 . S
Li794 O852 1.961 . S
Li794 O854 1.956 . S
Li794 O855 1.970 . S
Li795 N845 1.990 . S
Li795 O853 1.961 . S
Li795 O854 1.970 . S
Li795 O855 1.956 . S
C796 C798 1.348 . S
C796 C799 1.356 . S
C796 O852 1.325 . S
N797 C800 1.314 . S
N797 C801 1.279 . S
C798 C796 1.348 . S
C798 C800 1.353 . S
C798 H856 0.929 . S
C799 C796 1.356 . S
C799 C801 1.358 . S
C799 H857 0.930 . S
C800 N797 1.314 . S
C800 C798 1.353 . S
C800 H858 0.930 . S
C801 N797 1.279 . S
C801 C799 1.358 . S
C801 H859 0.930 . S
C802 C805 1.348 . S
C802 C806 1.356 . S
C802 O853 1.325 . S
C803 N804 1.279 . S
C803 C806 1.358 . S
C803 H860 0.930 . S
N804 C803 1.279 . S
N804 C807 1.314 . S
C805 C802 1.348 . S
C805 C807 1.353 . S
C805 H861 0.929 . S
C806 C802 1.356 . S
C806 C803 1.358 . S
C806 H862 0.930 . S
C807 N804 1.314 . S
C807 C805 1.353 . S
C807 H863 0.930 . S
C808 N809 1.314 . S
C808 C813 1.353 . S
C808 H814 0.930 . S
N809 Li792 1.990 . S
N809 C808 1.314 . S
N809 C811 1.279 . S
C810 C811 1.358 . S
C810 C812 1.356 . S
C810 H864 0.930 . S
C811 N809 1.279 . S
C811 C810 1.358 . S
C811 H815 0.930 . S
C812 C810 1.356 . S
C812 C813 1.348 . S
C813 C808 1.353 . S
C813 C812 1.348 . S
C813 H865 0.929 . S
H814 C808 0.930 . S
H815 C811 0.930 . S
C816 N817 1.314 . S
C816 C818 1.353 . S
C816 H822 0.930 . S
N817 Li793 1.990 . S
N817 C816 1.314 . S
N817 C820 1.279 . S
C818 C816 1.353 . S
C818 C821 1.348 . S
C818 H866 0.929 . S
C819 C820 1.358 . S
C819 C821 1.356 . S
C819 H867 0.930 . S
C820 N817 1.279 . S
C820 C819 1.358 . S
C820 H823 0.930 . S
C821 C818 1.348 . S
C821 C819 1.356 . S
H822 C816 0.930 . S
H823 C820 0.930 . S
C824 C826 1.348 . S
C824 C827 1.356 . S
C824 O854 1.325 . S
N825 C828 1.314 . S
N825 C829 1.279 . S
C826 C824 1.348 . S
C826 C828 1.353 . S
C826 H868 0.929 . S
C827 C824 1.356 . S
C827 C829 1.358 . S
C827 H869 0.930 . S
C828 N825 1.314 . S
C828 C826 1.353 . S
C828 H870 0.930 . S
C829 N825 1.279 . S
C829 C827 1.358 . S
C829 H871 0.930 . S
C830 C831 1.348 . S
C830 C832 1.356 . S
C830 O855 1.325 . S
C831 C830 1.348 . S
C831 C833 1.353 . S
C831 H872 0.929 . S
C832 C830 1.356 . S
C832 C834 1.358 . S
C832 H873 0.930 . S
C833 C831 1.353 . S
C833 N835 1.314 . S
C833 H874 0.930 . S
C834 C832 1.358 . S
C834 N835 1.279 . S
C834 H875 0.930 . S
N835 C833 1.314 . S
N835 C834 1.279 . S
C836 C838 1.353 . S
C836 N839 1.314 . S
C836 H842 0.930 . S
C837 N839 1.279 . S
C837 C840 1.358 . S
C837 H843 0.930 . S
C838 C836 1.353 . S
C838 C841 1.348 . S
C838 H876 0.929 . S
N839 Li794 1.990 . S
N839 C836 1.314 . S
N839 C837 1.279 . S
C840 C837 1.358 . S
C840 C841 1.356 . S
C840 H877 0.930 . S
C841 C838 1.348 . S
C841 C840 1.356 . S
H842 C836 0.930 . S
H843 C837 0.930 . S
C844 N845 1.314 . S
C844 C846 1.353 . S
C844 H850 0.930 . S
N845 Li795 1.990 . S
N845 C844 1.314 . S
N845 C848 1.279 . S
C846 C844 1.353 . S
C846 C849 1.348 . S
C846 H878 0.929 . S
C847 C848 1.358 . S
C847 C849 1.356 . S
C847 H879 0.930 . S
C848 N845 1.279 . S
C848 C847 1.358 . S
C848 H851 0.930 . S
C849 C846 1.348 . S
C849 C847 1.356 . S
H850 C844 0.930 . S
H851 C848 0.930 . S
O852 Li792 1.956 . S
O852 Li793 1.970 . S
O852 Li794 1.961 . S
O852 C796 1.325 . S
O853 Li792 1.970 . S
O853 Li793 1.956 . S
O853 Li795 1.961 . S
O853 C802 1.325 . S
O854 Li792 1.961 . S
O854 Li794 1.956 . S
O854 Li795 1.970 . S
O854 C824 1.325 . S
O855 Li793 1.961 . S
O855 Li794 1.970 . S
O855 Li795 1.956 . S
O855 C830 1.325 . S
H856 C798 0.929 . S
H857 C799 0.930 . S
H858 C800 0.930 . S
H859 C801 0.930 . S
H860 C803 0.930 . S
H861 C805 0.929 . S
H862 C806 0.930 . S
H863 C807 0.930 . S
H864 C810 0.930 . S
H865 C813 0.929 . S
H866 C818 0.929 . S
H867 C819 0.930 . S
H868 C826 0.929 . S
H869 C827 0.930 . S
H870 C828 0.930 . S
H871 C829 0.930 . S
H872 C831 0.929 . S
H873 C832 0.930 . S
H874 C833 0.930 . S
H875 C834 0.930 . S
H876 C838 0.929 . S
H877 C840 0.930 . S
H878 C846 0.929 . S
H879 C847 0.930 . S
Li880 N897 1.990 . S
Li880 O940 1.956 . S
Li880 O941 1.970 . S
Li880 O942 1.961 . S
Li881 N905 1.990 . S
Li881 O940 1.970 . S
Li881 O941 1.956 . S
Li881 O943 1.961 . S
Li882 N927 1.990 . S
Li882 O940 1.961 . S
Li882 O942 1.956 . S
Li882 O943 1.970 . S
Li883 N933 1.990 . S
Li883 O941 1.961 . S
Li883 O942 1.970 . S
Li883 O943 1.956 . S
C884 C886 1.348 . S
C884 C887 1.356 . S
C884 O940 1.325 . S
N885 C888 1.314 . S
N885 C889 1.279 . S
C886 C884 1.348 . S
C886 C888 1.353 . S
C886 H944 0.929 . S
C887 C884 1.356 . S
C887 C889 1.358 . S
C887 H945 0.930 . S
C888 N885 1.314 . S
C888 C886 1.353 . S
C888 H946 0.930 . S
C889 N885 1.279 . S
C889 C887 1.358 . S
C889 H947 0.930 . S
C890 C893 1.348 . S
C890 C894 1.356 . S
C890 O941 1.325 . S
C891 N892 1.279 . S
C891 C894 1.358 . S
C891 H948 0.930 . S
N892 C891 1.279 . S
N892 C895 1.314 . S
C893 C890 1.348 . S
C893 C895 1.353 . S
C893 H949 0.929 . S
C894 C890 1.356 . S
C894 C891 1.358 . S
C894 H950 0.930 . S
C895 N892 1.314 . S
C895 C893 1.353 . S
C895 H951 0.930 . S
C896 N897 1.314 . S
C896 C901 1.353 . S
C896 H902 0.930 . S
N897 Li880 1.990 . S
N897 C896 1.314 . S
N897 C899 1.279 . S
C898 C899 1.358 . S
C898 C900 1.356 . S
C898 H952 0.930 . S
C899 N897 1.279 . S
C899 C898 1.358 . S
C899 H903 0.930 . S
C900 C898 1.356 . S
C900 C901 1.348 . S
C901 C896 1.353 . S
C901 C900 1.348 . S
C901 H953 0.929 . S
H902 C896 0.930 . S
H903 C899 0.930 . S
C904 N905 1.314 . S
C904 C906 1.353 . S
C904 H910 0.930 . S
N905 Li881 1.990 . S
N905 C904 1.314 . S
N905 C908 1.279 . S
C906 C904 1.353 . S
C906 C909 1.348 . S
C906 H954 0.929 . S
C907 C908 1.358 . S
C907 C909 1.356 . S
C907 H955 0.930 . S
C908 N905 1.279 . S
C908 C907 1.358 . S
C908 H911 0.930 . S
C909 C906 1.348 . S
C909 C907 1.356 . S
H910 C904 0.930 . S
H911 C908 0.930 . S
C912 C914 1.348 . S
C912 C915 1.356 . S
C912 O942 1.325 . S
N913 C916 1.314 . S
N913 C917 1.279 . S
C914 C912 1.348 . S
C914 C916 1.353 . S
C914 H956 0.929 . S
C915 C912 1.356 . S
C915 C917 1.358 . S
C915 H957 0.930 . S
C916 N913 1.314 . S
C916 C914 1.353 . S
C916 H958 0.930 . S
C917 N913 1.279 . S
C917 C915 1.358 . S
C917 H959 0.930 . S
C918 C919 1.348 . S
C918 C920 1.356 . S
C918 O943 1.325 . S
C919 C918 1.348 . S
C919 C921 1.353 . S
C919 H960 0.929 . S
C920 C918 1.356 . S
C920 C922 1.358 . S
C920 H961 0.930 . S
C921 C919 1.353 . S
C921 N923 1.314 . S
C921 H962 0.930 . S
C922 C920 1.358 . S
C922 N923 1.279 . S
C922 H963 0.930 . S
N923 C921 1.314 . S
N923 C922 1.279 . S
C924 C926 1.353 . S
C924 N927 1.314 . S
C924 H930 0.930 . S
C925 N927 1.279 . S
C925 C928 1.358 . S
C925 H931 0.930 . S
C926 C924 1.353 . S
C926 C929 1.348 . S
C926 H964 0.929 . S
N927 Li882 1.990 . S
N927 C924 1.314 . S
N927 C925 1.279 . S
C928 C925 1.358 . S
C928 C929 1.356 . S
C928 H965 0.930 . S
C929 C926 1.348 . S
C929 C928 1.356 . S
H930 C924 0.930 . S
H931 C925 0.930 . S
C932 N933 1.314 . S
C932 C934 1.353 . S
C932 H938 0.930 . S
N933 Li883 1.990 . S
N933 C932 1.314 . S
N933 C936 1.279 . S
C934 C932 1.353 . S
C934 C937 1.348 . S
C934 H966 0.929 . S
C935 C936 1.358 . S
C935 C937 1.356 . S
C935 H967 0.930 . S
C936 N933 1.279 . S
C936 C935 1.358 . S
C936 H939 0.930 . S
C937 C934 1.348 . S
C937 C935 1.356 . S
H938 C932 0.930 . S
H939 C936 0.930 . S
O940 Li880 1.956 . S
O940 Li881 1.970 . S
O940 Li882 1.961 . S
O940 C884 1.325 . S
O941 Li880 1.970 . S
O941 Li881 1.956 . S
O941 Li883 1.961 . S
O941 C890 1.325 . S
O942 Li880 1.961 . S
O942 Li882 1.956 . S
O942 Li883 1.970 . S
O942 C912 1.325 . S
O943 Li881 1.961 . S
O943 Li882 1.970 . S
O943 Li883 1.956 . S
O943 C918 1.325 . S
H944 C886 0.929 . S
H945 C887 0.930 . S
H946 C888 0.930 . S
H947 C889 0.930 . S
H948 C891 0.930 . S
H949 C893 0.929 . S
H950 C894 0.930 . S
H951 C895 0.930 . S
H952 C898 0.930 . S
H953 C901 0.929 . S
H954 C906 0.929 . S
H955 C907 0.930 . S
H956 C914 0.929 . S
H957 C915 0.930 . S
H958 C916 0.930 . S
H959 C917 0.930 . S
H960 C919 0.929 . S
H961 C920 0.930 . S
H962 C921 0.930 . S
H963 C922 0.930 . S
H964 C926 0.929 . S
H965 C928 0.930 . S
H966 C934 0.929 . S
H967 C935 0.930 . S
Li968 N985 1.990 . S
Li968 O1028 1.956 . S
Li968 O1029 1.970 . S
Li968 O1030 1.961 . S
Li969 N993 1.990 . S
Li969 O1028 1.970 . S
Li969 O1029 1.956 . S
Li969 O1031 1.961 . S
Li970 N1015 1.990 . S
Li970 O1028 1.961 . S
Li970 O1030 1.956 . S
Li970 O1031 1.970 . S
Li971 N1021 1.990 . S
Li971 O1029 1.961 . S
Li971 O1030 1.970 . S
Li971 O1031 1.956 . S
C972 C974 1.348 . S
C972 C975 1.356 . S
C972 O1028 1.325 . S
N973 C976 1.314 . S
N973 C977 1.279 . S
C974 C972 1.348 . S
C974 C976 1.353 . S
C974 H1032 0.929 . S
C975 C972 1.356 . S
C975 C977 1.358 . S
C975 H1033 0.930 . S
C976 N973 1.314 . S
C976 C974 1.353 . S
C976 H1034 0.930 . S
C977 N973 1.279 . S
C977 C975 1.358 . S
C977 H1035 0.930 . S
C978 C981 1.348 . S
C978 C982 1.356 . S
C978 O1029 1.325 . S
C979 N980 1.279 . S
C979 C982 1.358 . S
C979 H1036 0.930 . S
N980 C979 1.279 . S
N980 C983 1.314 . S
C981 C978 1.348 . S
C981 C983 1.353 . S
C981 H1037 0.929 . S
C982 C978 1.356 . S
C982 C979 1.358 . S
C982 H1038 0.930 . S
C983 N980 1.314 . S
C983 C981 1.353 . S
C983 H1039 0.930 . S
C984 N985 1.314 . S
C984 C989 1.353 . S
C984 H990 0.930 . S
N985 Li968 1.990 . S
N985 C984 1.314 . S
N985 C987 1.279 . S
C986 C987 1.358 . S
C986 C988 1.356 . S
C986 H1040 0.930 . S
C987 N985 1.279 . S
C987 C986 1.358 . S
C987 H991 0.930 . S
C988 C986 1.356 . S
C988 C989 1.348 . S
C989 C984 1.353 . S
C989 C988 1.348 . S
C989 H1041 0.929 . S
H990 C984 0.930 . S
H991 C987 0.930 . S
C992 N993 1.314 . S
C992 C994 1.353 . S
C992 H998 0.930 . S
N993 Li969 1.990 . S
N993 C992 1.314 . S
N993 C996 1.279 . S
C994 C992 1.353 . S
C994 C997 1.348 . S
C994 H1042 0.929 . S
C995 C996 1.358 . S
C995 C997 1.356 . S
C995 H1043 0.930 . S
C996 N993 1.279 . S
C996 C995 1.358 . S
C996 H999 0.930 . S
C997 C994 1.348 . S
C997 C995 1.356 . S
H998 C992 0.930 . S
H999 C996 0.930 . S
C1000 C1002 1.348 . S
C1000 C1003 1.356 . S
C1000 O1030 1.325 . S
N1001 C1004 1.314 . S
N1001 C1005 1.279 . S
C1002 C1000 1.348 . S
C1002 C1004 1.353 . S
C1002 H1044 0.929 . S
C1003 C1000 1.356 . S
C1003 C1005 1.358 . S
C1003 H1045 0.930 . S
C1004 N1001 1.314 . S
C1004 C1002 1.353 . S
C1004 H1046 0.930 . S
C1005 N1001 1.279 . S
C1005 C1003 1.358 . S
C1005 H1047 0.930 . S
C1006 C1007 1.348 . S
C1006 C1008 1.356 . S
C1006 O1031 1.325 . S
C1007 C1006 1.348 . S
C1007 C1009 1.353 . S
C1007 H1048 0.929 . S
C1008 C1006 1.356 . S
C1008 C1010 1.358 . S
C1008 H1049 0.930 . S
C1009 C1007 1.353 . S
C1009 N1011 1.314 . S
C1009 H1050 0.930 . S
C1010 C1008 1.358 . S
C1010 N1011 1.279 . S
C1010 H1051 0.930 . S
N1011 C1009 1.314 . S
N1011 C1010 1.279 . S
C1012 C1014 1.353 . S
C1012 N1015 1.314 . S
C1012 H1018 0.930 . S
C1013 N1015 1.279 . S
C1013 C1016 1.358 . S
C1013 H1019 0.930 . S
C1014 C1012 1.353 . S
C1014 C1017 1.348 . S
C1014 H1052 0.929 . S
N1015 Li970 1.990 . S
N1015 C1012 1.314 . S
N1015 C1013 1.279 . S
C1016 C1013 1.358 . S
C1016 C1017 1.356 . S
C1016 H1053 0.930 . S
C1017 C1014 1.348 . S
C1017 C1016 1.356 . S
H1018 C1012 0.930 . S
H1019 C1013 0.930 . S
C1020 N1021 1.314 . S
C1020 C1022 1.353 . S
C1020 H1026 0.930 . S
N1021 Li971 1.990 . S
N1021 C1020 1.314 . S
N1021 C1024 1.279 . S
C1022 C1020 1.353 . S
C1022 C1025 1.348 . S
C1022 H1054 0.929 . S
C1023 C1024 1.358 . S
C1023 C1025 1.356 . S
C1023 H1055 0.930 . S
C1024 N1021 1.279 . S
C1024 C1023 1.358 . S
C1024 H1027 0.930 . S
C1025 C1022 1.348 . S
C1025 C1023 1.356 . S
H1026 C1020 0.930 . S
H1027 C1024 0.930 . S
O1028 Li968 1.956 . S
O1028 Li969 1.970 . S
O1028 Li970 1.961 . S
O1028 C972 1.325 . S
O1029 Li968 1.970 . S
O1029 Li969 1.956 . S
O1029 Li971 1.961 . S
O1029 C978 1.325 . S
O1030 Li968 1.961 . S
O1030 Li970 1.956 . S
O1030 Li971 1.970 . S
O1030 C1000 1.325 . S
O1031 Li969 1.961 . S
O1031 Li970 1.970 . S
O1031 Li971 1.956 . S
O1031 C1006 1.325 . S
H1032 C974 0.929 . S
H1033 C975 0.930 . S
H1034 C976 0.930 . S
H1035 C977 0.930 . S
H1036 C979 0.930 . S
H1037 C981 0.929 . S
H1038 C982 0.930 . S
H1039 C983 0.930 . S
H1040 C986 0.930 . S
H1041 C989 0.929 . S
H1042 C994 0.929 . S
H1043 C995 0.930 . S
H1044 C1002 0.929 . S
H1045 C1003 0.930 . S
H1046 C1004 0.930 . S
H1047 C1005 0.930 . S
H1048 C1007 0.929 . S
H1049 C1008 0.930 . S
H1050 C1009 0.930 . S
H1051 C1010 0.930 . S
H1052 C1014 0.929 . S
H1053 C1016 0.930 . S
H1054 C1022 0.929 . S
H1055 C1023 0.930 . S
Li1056 N1073 1.990 . S
Li1056 O1116 1.956 1_655 S
Li1056 O1117 1.970 . S
Li1056 O1118 1.961 1_655 S
Li1057 N1081 1.990 . S
Li1057 O1116 1.970 . S
Li1057 O1117 1.956 1_455 S
Li1057 O1119 1.961 . S
Li1058 N1103 1.990 . S
Li1058 O1116 1.961 . S
Li1058 O1118 1.956 . S
Li1058 O1119 1.970 . S
Li1059 N1109 1.990 . S
Li1059 O1117 1.961 1_455 S
Li1059 O1118 1.970 . S
Li1059 O1119 1.956 . S
C1060 C1062 1.343 1_455 S
C1060 C1063 1.356 . S
C1060 O1116 1.325 . S
N1061 C1064 1.310 1_455 S
N1061 C1065 1.279 . S
C1062 C1060 1.343 1_655 S
C1062 C1064 1.353 . S
C1062 H1120 0.935 . S
C1063 C1060 1.356 . S
C1063 C1065 1.358 . S
C1063 H1121 0.930 . S
C1064 N1061 1.310 1_655 S
C1064 C1062 1.353 . S
C1064 H1122 0.935 . S
C1065 N1061 1.279 . S
C1065 C1063 1.358 . S
C1065 H1123 0.930 . S
C1066 C1069 1.348 . S
C1066 C1070 1.356 . S
C1066 O1117 1.325 . S
C1067 N1068 1.279 . S
C1067 C1070 1.358 . S
C1067 H1124 0.930 . S
N1068 C1067 1.279 . S
N1068 C1071 1.314 . S
C1069 C1066 1.348 . S
C1069 C1071 1.353 . S
C1069 H1125 0.929 . S
C1070 C1066 1.356 . S
C1070 C1067 1.358 . S
C1070 H1126 0.930 . S
C1071 N1068 1.314 . S
C1071 C1069 1.353 . S
C1071 H1127 0.930 . S
C1072 N1073 1.314 . S
C1072 C1077 1.353 . S
C1072 H1078 0.930 . S
N1073 Li1056 1.990 . S
N1073 C1072 1.314 . S
N1073 C1075 1.279 . S
C1074 C1075 1.358 . S
C1074 C1076 1.356 . S
C1074 H1128 0.930 . S
C1075 N1073 1.279 . S
C1075 C1074 1.358 . S
C1075 H1079 0.930 . S
C1076 C1074 1.356 . S
C1076 C1077 1.348 . S
C1077 C1072 1.353 . S
C1077 C1076 1.348 . S
C1077 H1129 0.929 . S
H1078 C1072 0.930 . S
H1079 C1075 0.930 . S
C1080 N1081 1.314 . S
C1080 C1082 1.353 . S
C1080 H1086 0.930 . S
N1081 Li1057 1.990 . S
N1081 C1080 1.314 . S
N1081 C1084 1.279 1_455 S
C1082 C1080 1.353 . S
C1082 C1085 1.348 . S
C1082 H1130 0.929 . S
C1083 C1084 1.358 . S
C1083 C1085 1.356 1_655 S
C1083 H1131 0.930 . S
C1084 N1081 1.279 1_655 S
C1084 C1083 1.358 . S
C1084 H1087 0.930 . S
C1085 C1082 1.348 . S
C1085 C1083 1.356 1_455 S
H1086 C1080 0.930 . S
H1087 C1084 0.930 . S
C1088 C1090 1.348 . S
C1088 C1091 1.356 . S
C1088 O1118 1.325 . S
N1089 C1092 1.314 . S
N1089 C1093 1.279 . S
C1090 C1088 1.348 . S
C1090 C1092 1.353 . S
C1090 H1132 0.929 . S
C1091 C1088 1.356 . S
C1091 C1093 1.358 . S
C1091 H1133 0.930 1_455 S
C1092 N1089 1.314 . S
C1092 C1090 1.353 . S
C1092 H1134 0.930 . S
C1093 N1089 1.279 . S
C1093 C1091 1.358 . S
C1093 H1135 0.930 1_455 S
C1094 C1095 1.348 . S
C1094 C1096 1.356 . S
C1094 O1119 1.325 . S
C1095 C1094 1.348 . S
C1095 C1097 1.353 . S
C1095 H1136 0.929 . S
C1096 C1094 1.356 . S
C1096 C1098 1.358 . S
C1096 H1137 0.930 . S
C1097 C1095 1.353 . S
C1097 N1099 1.314 . S
C1097 H1138 0.930 . S
C1098 C1096 1.358 . S
C1098 N1099 1.279 . S
C1098 H1139 0.930 . S
N1099 C1097 1.314 . S
N1099 C1098 1.279 . S
C1100 C1102 1.353 . S
C1100 N1103 1.314 . S
C1100 H1106 0.930 . S
C1101 N1103 1.279 . S
C1101 C1104 1.358 . S
C1101 H1107 0.930 . S
C1102 C1100 1.353 . S
C1102 C1105 1.348 . S
C1102 H1140 0.929 . S
N1103 Li1058 1.990 . S
N1103 C1100 1.314 . S
N1103 C1101 1.279 . S
C1104 C1101 1.358 . S
C1104 C1105 1.356 . S
C1104 H1141 0.930 . S
C1105 C1102 1.348 . S
C1105 C1104 1.356 . S
H1106 C1100 0.930 . S
H1107 C1101 0.930 . S
C1108 N1109 1.314 1_655 S
C1108 C1110 1.353 . S
C1108 H1114 0.930 . S
N1109 Li1059 1.990 . S
N1109 C1108 1.314 1_455 S
N1109 C1112 1.279 . S
C1110 C1108 1.353 . S
C1110 C1113 1.348 1_655 S
C1110 H1142 0.929 . S
C1111 C1112 1.358 . S
C1111 C1113 1.356 . S
C1111 H1143 0.930 . S
C1112 N1109 1.279 . S
C1112 C1111 1.358 . S
C1112 H1115 0.930 . S
C1113 C1110 1.348 1_455 S
C1113 C1111 1.356 . S
H1114 C1108 0.930 . S
H1115 C1112 0.930 . S
O1116 Li1056 1.956 1_455 S
O1116 Li1057 1.970 . S
O1116 Li1058 1.961 . S
O1116 C1060 1.325 . S
O1117 Li1056 1.970 . S
O1117 Li1057 1.956 1_655 S
O1117 Li1059 1.961 1_655 S
O1117 C1066 1.325 . S
O1118 Li1056 1.961 1_455 S
O1118 Li1058 1.956 . S
O1118 Li1059 1.970 . S
O1118 C1088 1.325 . S
O1119 Li1057 1.961 . S
O1119 Li1058 1.970 . S
O1119 Li1059 1.956 . S
O1119 C1094 1.325 . S
H1120 C1062 0.935 . S
H1121 C1063 0.930 . S
H1122 C1064 0.935 . S
H1123 C1065 0.930 . S
H1124 C1067 0.930 . S
H1125 C1069 0.929 . S
H1126 C1070 0.930 . S
H1127 C1071 0.930 . S
H1128 C1074 0.930 . S
H1129 C1077 0.929 . S
H1130 C1082 0.929 . S
H1131 C1083 0.930 . S
H1132 C1090 0.929 . S
H1133 C1091 0.930 1_655 S
H1134 C1092 0.930 . S
H1135 C1093 0.930 1_655 S
H1136 C1095 0.929 . S
H1137 C1096 0.930 . S
H1138 C1097 0.930 . S
H1139 C1098 0.930 . S
H1140 C1102 0.929 . S
H1141 C1104 0.930 . S
H1142 C1110 0.929 . S
H1143 C1111 0.930 . S
Li1144 N1161 1.990 . S
Li1144 O1204 1.956 . S
Li1144 O1205 1.970 . S
Li1144 O1206 1.961 1_455 S
Li1145 N1169 1.990 . S
Li1145 O1204 1.970 . S
Li1145 O1205 1.956 . S
Li1145 O1207 1.961 . S
Li1146 N1191 1.990 . S
Li1146 O1204 1.961 . S
Li1146 O1206 1.956 1_455 S
Li1146 O1207 1.970 . S
Li1147 N1197 1.990 . S
Li1147 O1205 1.961 1_655 S
Li1147 O1206 1.970 . S
Li1147 O1207 1.956 1_655 S
C1148 C1150 1.348 . S
C1148 C1151 1.356 . S
C1148 O1204 1.325 . S
N1149 C1152 1.314 . S
N1149 C1153 1.279 . S
C1150 C1148 1.348 . S
C1150 C1152 1.353 . S
C1150 H1208 0.929 . S
C1151 C1148 1.356 . S
C1151 C1153 1.358 . S
C1151 H1209 0.930 . S
C1152 N1149 1.314 . S
C1152 C1150 1.353 . S
C1152 H1210 0.930 . S
C1153 N1149 1.279 . S
C1153 C1151 1.358 . S
C1153 H1211 0.930 . S
C1154 C1157 1.348 . S
C1154 C1158 1.356 . S
C1154 O1205 1.325 . S
C1155 N1156 1.287 . S
C1155 C1158 1.358 . S
C1155 H1212 0.923 1_455 S
N1156 C1155 1.287 . S
N1156 C1159 1.314 . S
C1157 C1154 1.348 . S
C1157 C1159 1.353 . S
C1157 H1213 0.929 . S
C1158 C1154 1.356 . S
C1158 C1155 1.358 . S
C1158 H1214 0.929 1_455 S
C1159 N1156 1.314 . S
C1159 C1157 1.353 . S
C1159 H1215 0.930 . S
C1160 N1161 1.314 1_655 S
C1160 C1165 1.353 . S
C1160 H1166 0.930 . S
N1161 Li1144 1.990 . S
N1161 C1160 1.314 1_455 S
N1161 C1163 1.279 . S
C1162 C1163 1.358 . S
C1162 C1164 1.356 . S
C1162 H1216 0.930 . S
C1163 N1161 1.279 . S
C1163 C1162 1.358 . S
C1163 H1167 0.930 . S
C1164 C1162 1.356 . S
C1164 C1165 1.348 1_455 S
C1165 C1160 1.353 . S
C1165 C1164 1.348 1_655 S
C1165 H1217 0.929 . S
H1166 C1160 0.930 . S
H1167 C1163 0.930 . S
C1168 N1169 1.314 . S
C1168 C1170 1.353 . S
C1168 H1174 0.930 . S
N1169 Li1145 1.990 . S
N1169 C1168 1.314 . S
N1169 C1172 1.279 . S
C1170 C1168 1.353 . S
C1170 C1173 1.348 . S
C1170 H1218 0.929 . S
C1171 C1172 1.358 . S
C1171 C1173 1.356 . S
C1171 H1219 0.930 . S
C1172 N1169 1.279 . S
C1172 C1171 1.358 . S
C1172 H1175 0.930 . S
C1173 C1170 1.348 . S
C1173 C1171 1.356 . S
H1174 C1168 0.930 . S
H1175 C1172 0.930 . S
C1176 C1178 1.348 . S
C1176 C1179 1.356 . S
C1176 O1206 1.325 . S
N1177 C1180 1.314 . S
N1177 C1181 1.279 . S
C1178 C1176 1.348 . S
C1178 C1180 1.353 . S
C1178 H1220 0.929 . S
C1179 C1176 1.356 . S
C1179 C1181 1.358 . S
C1179 H1221 0.930 . S
C1180 N1177 1.314 . S
C1180 C1178 1.353 . S
C1180 H1222 0.930 . S
C1181 N1177 1.279 . S
C1181 C1179 1.358 . S
C1181 H1223 0.930 . S
C1182 C1183 1.348 1_455 S
C1182 C1184 1.356 . S
C1182 O1207 1.325 . S
C1183 C1182 1.348 1_655 S
C1183 C1185 1.353 . S
C1183 H1224 0.929 . S
C1184 C1182 1.356 . S
C1184 C1186 1.358 . S
C1184 H1225 0.930 . S
C1185 C1183 1.353 . S
C1185 N1187 1.314 1_655 S
C1185 H1226 0.930 . S
C1186 C1184 1.358 . S
C1186 N1187 1.279 . S
C1186 H1227 0.930 . S
N1187 C1185 1.314 1_455 S
N1187 C1186 1.279 . S
C1188 C1190 1.353 . S
C1188 N1191 1.314 . S
C1188 H1194 0.930 . S
C1189 N1191 1.279 1_655 S
C1189 C1192 1.358 . S
C1189 H1195 0.930 . S
C1190 C1188 1.353 . S
C1190 C1193 1.348 . S
C1190 H1228 0.929 . S
N1191 Li1146 1.990 . S
N1191 C1188 1.314 . S
N1191 C1189 1.279 1_455 S
C1192 C1189 1.358 . S
C1192 C1193 1.356 1_655 S
C1192 H1229 0.930 . S
C1193 C1190 1.348 . S
C1193 C1192 1.356 1_455 S
H1194 C1188 0.930 . S
H1195 C1189 0.930 . S
C1196 N1197 1.314 . S
C1196 C1198 1.353 . S
C1196 H1202 0.930 . S
N1197 Li1147 1.990 . S
N1197 C1196 1.314 . S
N1197 C1200 1.279 . S
C1198 C1196 1.353 . S
C1198 C1201 1.348 . S
C1198 H1230 0.929 . S
C1199 C1200 1.358 . S
C1199 C1201 1.356 . S
C1199 H1231 0.930 . S
C1200 N1197 1.279 . S
C1200 C1199 1.358 . S
C1200 H1203 0.930 . S
C1201 C1198 1.348 . S
C1201 C1199 1.356 . S
H1202 C1196 0.930 . S
H1203 C1200 0.930 . S
O1204 Li1144 1.956 . S
O1204 Li1145 1.970 . S
O1204 Li1146 1.961 . S
O1204 C1148 1.325 . S
O1205 Li1144 1.970 . S
O1205 Li1145 1.956 . S
O1205 Li1147 1.961 1_455 S
O1205 C1154 1.325 . S
O1206 Li1144 1.961 1_655 S
O1206 Li1146 1.956 1_655 S
O1206 Li1147 1.970 . S
O1206 C1176 1.325 . S
O1207 Li1145 1.961 . S
O1207 Li1146 1.970 . S
O1207 Li1147 1.956 1_455 S
O1207 C1182 1.325 . S
H1208 C1150 0.929 . S
H1209 C1151 0.930 . S
H1210 C1152 0.930 . S
H1211 C1153 0.930 . S
H1212 C1155 0.923 1_655 S
H1213 C1157 0.929 . S
H1214 C1158 0.929 1_655 S
H1215 C1159 0.930 . S
H1216 C1162 0.930 . S
H1217 C1165 0.929 . S
H1218 C1170 0.929 . S
H1219 C1171 0.930 . S
H1220 C1178 0.929 . S
H1221 C1179 0.930 . S
H1222 C1180 0.930 . S
H1223 C1181 0.930 . S
H1224 C1183 0.929 . S
H1225 C1184 0.930 . S
H1226 C1185 0.930 . S
H1227 C1186 0.930 . S
H1228 C1190 0.929 . S
H1229 C1192 0.930 . S
H1230 C1198 0.929 . S
H1231 C1199 0.930 . S
Li1232 N1249 1.990 . S
Li1232 O1292 1.956 . S
Li1232 O1293 1.970 . S
Li1232 O1294 1.961 . S
Li1233 N1257 1.990 . S
Li1233 O1292 1.970 . S
Li1233 O1293 1.956 . S
Li1233 O1295 1.961 . S
Li1234 N1279 1.990 . S
Li1234 O1292 1.961 . S
Li1234 O1294 1.956 . S
Li1234 O1295 1.970 . S
Li1235 N1285 1.990 . S
Li1235 O1293 1.961 . S
Li1235 O1294 1.970 . S
Li1235 O1295 1.956 . S
C1236 C1238 1.348 . S
C1236 C1239 1.356 . S
C1236 O1292 1.325 . S
N1237 C1240 1.314 . S
N1237 C1241 1.279 . S
C1238 C1236 1.348 . S
C1238 C1240 1.353 . S
C1238 H1296 0.929 . S
C1239 C1236 1.356 . S
C1239 C1241 1.358 . S
C1239 H1297 0.930 . S
C1240 N1237 1.314 . S
C1240 C1238 1.353 . S
C1240 H1298 0.930 . S
C1241 N1237 1.279 . S
C1241 C1239 1.358 . S
C1241 H1299 0.930 . S
C1242 C1245 1.348 . S
C1242 C1246 1.356 . S
C1242 O1293 1.325 . S
C1243 N1244 1.279 . S
C1243 C1246 1.358 . S
C1243 H1300 0.930 . S
N1244 C1243 1.279 . S
N1244 C1247 1.314 . S
C1245 C1242 1.348 . S
C1245 C1247 1.353 . S
C1245 H1301 0.929 . S
C1246 C1242 1.356 . S
C1246 C1243 1.358 . S
C1246 H1302 0.930 . S
C1247 N1244 1.314 . S
C1247 C1245 1.353 . S
C1247 H1303 0.930 . S
C1248 N1249 1.314 . S
C1248 C1253 1.353 . S
C1248 H1254 0.930 . S
N1249 Li1232 1.990 . S
N1249 C1248 1.314 . S
N1249 C1251 1.279 . S
C1250 C1251 1.358 . S
C1250 C1252 1.356 . S
C1250 H1304 0.930 . S
C1251 N1249 1.279 . S
C1251 C1250 1.358 . S
C1251 H1255 0.930 . S
C1252 C1250 1.356 . S
C1252 C1253 1.348 . S
C1253 C1248 1.353 . S
C1253 C1252 1.348 . S
C1253 H1305 0.929 . S
H1254 C1248 0.930 . S
H1255 C1251 0.930 . S
C1256 N1257 1.314 . S
C1256 C1258 1.353 . S
C1256 H1262 0.930 . S
N1257 Li1233 1.990 . S
N1257 C1256 1.314 . S
N1257 C1260 1.279 . S
C1258 C1256 1.353 . S
C1258 C1261 1.348 . S
C1258 H1306 0.929 . S
C1259 C1260 1.358 . S
C1259 C1261 1.356 . S
C1259 H1307 0.930 . S
C1260 N1257 1.279 . S
C1260 C1259 1.358 . S
C1260 H1263 0.930 . S
C1261 C1258 1.348 . S
C1261 C1259 1.356 . S
H1262 C1256 0.930 . S
H1263 C1260 0.930 . S
C1264 C1266 1.348 . S
C1264 C1267 1.356 . S
C1264 O1294 1.325 . S
N1265 C1268 1.314 . S
N1265 C1269 1.279 . S
C1266 C1264 1.348 . S
C1266 C1268 1.353 . S
C1266 H1308 0.929 . S
C1267 C1264 1.356 . S
C1267 C1269 1.358 . S
C1267 H1309 0.930 . S
C1268 N1265 1.314 . S
C1268 C1266 1.353 . S
C1268 H1310 0.930 . S
C1269 N1265 1.279 . S
C1269 C1267 1.358 . S
C1269 H1311 0.930 . S
C1270 C1271 1.348 . S
C1270 C1272 1.356 . S
C1270 O1295 1.325 . S
C1271 C1270 1.348 . S
C1271 C1273 1.353 . S
C1271 H1312 0.929 . S
C1272 C1270 1.356 . S
C1272 C1274 1.358 . S
C1272 H1313 0.930 . S
C1273 C1271 1.353 . S
C1273 N1275 1.314 . S
C1273 H1314 0.930 . S
C1274 C1272 1.358 . S
C1274 N1275 1.279 . S
C1274 H1315 0.930 . S
N1275 C1273 1.314 . S
N1275 C1274 1.279 . S
C1276 C1278 1.353 . S
C1276 N1279 1.314 . S
C1276 H1282 0.930 . S
C1277 N1279 1.279 . S
C1277 C1280 1.358 . S
C1277 H1283 0.930 . S
C1278 C1276 1.353 . S
C1278 C1281 1.348 . S
C1278 H1316 0.929 . S
N1279 Li1234 1.990 . S
N1279 C1276 1.314 . S
N1279 C1277 1.279 . S
C1280 C1277 1.358 . S
C1280 C1281 1.356 . S
C1280 H1317 0.930 . S
C1281 C1278 1.348 . S
C1281 C1280 1.356 . S
H1282 C1276 0.930 . S
H1283 C1277 0.930 . S
C1284 N1285 1.314 . S
C1284 C1286 1.353 . S
C1284 H1290 0.930 . S
N1285 Li1235 1.990 . S
N1285 C1284 1.314 . S
N1285 C1288 1.279 . S
C1286 C1284 1.353 . S
C1286 C1289 1.348 . S
C1286 H1318 0.929 . S
C1287 C1288 1.358 . S
C1287 C1289 1.356 . S
C1287 H1319 0.930 . S
C1288 N1285 1.279 . S
C1288 C1287 1.358 . S
C1288 H1291 0.930 . S
C1289 C1286 1.348 . S
C1289 C1287 1.356 . S
H1290 C1284 0.930 . S
H1291 C1288 0.930 . S
O1292 Li1232 1.956 . S
O1292 Li1233 1.970 . S
O1292 Li1234 1.961 . S
O1292 C1236 1.325 . S
O1293 Li1232 1.970 . S
O1293 Li1233 1.956 . S
O1293 Li1235 1.961 . S
O1293 C1242 1.325 . S
O1294 Li1232 1.961 . S
O1294 Li1234 1.956 . S
O1294 Li1235 1.970 . S
O1294 C1264 1.325 . S
O1295 Li1233 1.961 . S
O1295 Li1234 1.970 . S
O1295 Li1235 1.956 . S
O1295 C1270 1.325 . S
H1296 C1238 0.929 . S
H1297 C1239 0.930 . S
H1298 C1240 0.930 . S
H1299 C1241 0.930 . S
H1300 C1243 0.930 . S
H1301 C1245 0.929 . S
H1302 C1246 0.930 . S
H1303 C1247 0.930 . S
H1304 C1250 0.930 . S
H1305 C1253 0.929 . S
H1306 C1258 0.929 . S
H1307 C1259 0.930 . S
H1308 C1266 0.929 . S
H1309 C1267 0.930 . S
H1310 C1268 0.930 . S
H1311 C1269 0.930 . S
H1312 C1271 0.929 . S
H1313 C1272 0.930 . S
H1314 C1273 0.930 . S
H1315 C1274 0.930 . S
H1316 C1278 0.929 . S
H1317 C1280 0.930 . S
H1318 C1286 0.929 . S
H1319 C1287 0.930 . S
Li1320 N1337 1.990 . S
Li1320 O1380 1.956 . S
Li1320 O1381 1.970 . S
Li1320 O1382 1.961 . S
Li1321 N1345 1.990 . S
Li1321 O1380 1.970 . S
Li1321 O1381 1.956 . S
Li1321 O1383 1.961 . S
Li1322 N1367 1.990 . S
Li1322 O1380 1.961 . S
Li1322 O1382 1.956 . S
Li1322 O1383 1.970 . S
Li1323 N1373 1.990 . S
Li1323 O1381 1.961 . S
Li1323 O1382 1.970 . S
Li1323 O1383 1.956 . S
C1324 C1326 1.348 . S
C1324 C1327 1.356 . S
C1324 O1380 1.325 . S
N1325 C1328 1.314 . S
N1325 C1329 1.279 . S
C1326 C1324 1.348 . S
C1326 C1328 1.353 . S
C1326 H1384 0.929 . S
C1327 C1324 1.356 . S
C1327 C1329 1.358 . S
C1327 H1385 0.930 . S
C1328 N1325 1.314 . S
C1328 C1326 1.353 . S
C1328 H1386 0.930 . S
C1329 N1325 1.279 . S
C1329 C1327 1.358 . S
C1329 H1387 0.930 . S
C1330 C1333 1.348 . S
C1330 C1334 1.356 . S
C1330 O1381 1.325 . S
C1331 N1332 1.279 . S
C1331 C1334 1.358 . S
C1331 H1388 0.930 . S
N1332 C1331 1.279 . S
N1332 C1335 1.314 . S
C1333 C1330 1.348 . S
C1333 C1335 1.353 . S
C1333 H1389 0.929 . S
C1334 C1330 1.356 . S
C1334 C1331 1.358 . S
C1334 H1390 0.930 . S
C1335 N1332 1.314 . S
C1335 C1333 1.353 . S
C1335 H1391 0.930 . S
C1336 N1337 1.314 . S
C1336 C1341 1.353 . S
C1336 H1342 0.930 . S
N1337 Li1320 1.990 . S
N1337 C1336 1.314 . S
N1337 C1339 1.279 . S
C1338 C1339 1.358 . S
C1338 C1340 1.356 . S
C1338 H1392 0.930 . S
C1339 N1337 1.279 . S
C1339 C1338 1.358 . S
C1339 H1343 0.930 . S
C1340 C1338 1.356 . S
C1340 C1341 1.348 . S
C1341 C1336 1.353 . S
C1341 C1340 1.348 . S
C1341 H1393 0.929 . S
H1342 C1336 0.930 . S
H1343 C1339 0.930 . S
C1344 N1345 1.314 . S
C1344 C1346 1.353 . S
C1344 H1350 0.930 . S
N1345 Li1321 1.990 . S
N1345 C1344 1.314 . S
N1345 C1348 1.279 . S
C1346 C1344 1.353 . S
C1346 C1349 1.348 . S
C1346 H1394 0.929 . S
C1347 C1348 1.358 . S
C1347 C1349 1.356 . S
C1347 H1395 0.930 . S
C1348 N1345 1.279 . S
C1348 C1347 1.358 . S
C1348 H1351 0.930 . S
C1349 C1346 1.348 . S
C1349 C1347 1.356 . S
H1350 C1344 0.930 . S
H1351 C1348 0.930 . S
C1352 C1354 1.348 . S
C1352 C1355 1.356 . S
C1352 O1382 1.325 . S
N1353 C1356 1.314 . S
N1353 C1357 1.279 . S
C1354 C1352 1.348 . S
C1354 C1356 1.353 . S
C1354 H1396 0.929 . S
C1355 C1352 1.356 . S
C1355 C1357 1.358 . S
C1355 H1397 0.930 . S
C1356 N1353 1.314 . S
C1356 C1354 1.353 . S
C1356 H1398 0.930 . S
C1357 N1353 1.279 . S
C1357 C1355 1.358 . S
C1357 H1399 0.930 . S
C1358 C1359 1.348 . S
C1358 C1360 1.356 . S
C1358 O1383 1.325 . S
C1359 C1358 1.348 . S
C1359 C1361 1.353 . S
C1359 H1400 0.929 . S
C1360 C1358 1.356 . S
C1360 C1362 1.358 . S
C1360 H1401 0.930 . S
C1361 C1359 1.353 . S
C1361 N1363 1.314 . S
C1361 H1402 0.930 . S
C1362 C1360 1.358 . S
C1362 N1363 1.279 . S
C1362 H1403 0.930 . S
N1363 C1361 1.314 . S
N1363 C1362 1.279 . S
C1364 C1366 1.353 . S
C1364 N1367 1.314 . S
C1364 H1370 0.930 . S
C1365 N1367 1.279 . S
C1365 C1368 1.358 . S
C1365 H1371 0.930 . S
C1366 C1364 1.353 . S
C1366 C1369 1.348 . S
C1366 H1404 0.929 . S
N1367 Li1322 1.990 . S
N1367 C1364 1.314 . S
N1367 C1365 1.279 . S
C1368 C1365 1.358 . S
C1368 C1369 1.356 . S
C1368 H1405 0.930 . S
C1369 C1366 1.348 . S
C1369 C1368 1.356 . S
H1370 C1364 0.930 . S
H1371 C1365 0.930 . S
C1372 N1373 1.314 . S
C1372 C1374 1.353 . S
C1372 H1378 0.930 . S
N1373 Li1323 1.990 . S
N1373 C1372 1.314 . S
N1373 C1376 1.279 . S
C1374 C1372 1.353 . S
C1374 C1377 1.348 . S
C1374 H1406 0.929 . S
C1375 C1376 1.358 . S
C1375 C1377 1.356 . S
C1375 H1407 0.930 . S
C1376 N1373 1.279 . S
C1376 C1375 1.358 . S
C1376 H1379 0.930 . S
C1377 C1374 1.348 . S
C1377 C1375 1.356 . S
H1378 C1372 0.930 . S
H1379 C1376 0.930 . S
O1380 Li1320 1.956 . S
O1380 Li1321 1.970 . S
O1380 Li1322 1.961 . S
O1380 C1324 1.325 . S
O1381 Li1320 1.970 . S
O1381 Li1321 1.956 . S
O1381 Li1323 1.961 . S
O1381 C1330 1.325 . S
O1382 Li1320 1.961 . S
O1382 Li1322 1.956 . S
O1382 Li1323 1.970 . S
O1382 C1352 1.325 . S
O1383 Li1321 1.961 . S
O1383 Li1322 1.970 . S
O1383 Li1323 1.956 . S
O1383 C1358 1.325 . S
H1384 C1326 0.929 . S
H1385 C1327 0.930 . S
H1386 C1328 0.930 . S
H1387 C1329 0.930 . S
H1388 C1331 0.930 . S
H1389 C1333 0.929 . S
H1390 C1334 0.930 . S
H1391 C1335 0.930 . S
H1392 C1338 0.930 . S
H1393 C1341 0.929 . S
H1394 C1346 0.929 . S
H1395 C1347 0.930 . S
H1396 C1354 0.929 . S
H1397 C1355 0.930 . S
H1398 C1356 0.930 . S
H1399 C1357 0.930 . S
H1400 C1359 0.929 . S
H1401 C1360 0.930 . S
H1402 C1361 0.930 . S
H1403 C1362 0.930 . S
H1404 C1366 0.929 . S
H1405 C1368 0.930 . S
H1406 C1374 0.929 . S
H1407 C1375 0.930 . S
Li1408 N1425 1.990 . S
Li1408 O1468 1.932 1_545 S
Li1408 O1469 1.972 . S
Li1408 O1470 1.986 . S
Li1409 N1433 1.990 . S
Li1409 O1468 1.970 . S
Li1409 O1469 1.956 1_565 S
Li1409 O1471 1.946 1_565 S
Li1410 N1455 1.990 . S
Li1410 O1468 1.961 1_545 S
Li1410 O1470 1.956 . S
Li1410 O1471 1.971 . S
Li1411 N1461 1.990 . S
Li1411 O1469 1.961 . S
Li1411 O1470 1.970 . S
Li1411 O1471 1.973 . S
C1412 C1414 1.348 . S
C1412 C1415 1.356 . S
C1412 O1468 1.325 . S
N1413 C1416 1.314 . S
N1413 C1417 1.279 . S
C1414 C1412 1.348 . S
C1414 C1416 1.353 . S
C1414 H1472 0.929 . S
C1415 C1412 1.356 . S
C1415 C1417 1.358 . S
C1415 H1473 0.930 . S
C1416 N1413 1.314 . S
C1416 C1414 1.353 . S
C1416 H1474 0.930 . S
C1417 N1413 1.279 . S
C1417 C1415 1.358 . S
C1417 H1475 0.930 . S
C1418 C1421 1.348 1_545 S
C1418 C1422 1.356 . S
C1418 O1469 1.325 . S
C1419 N1420 1.278 1_545 S
C1419 C1422 1.358 . S
C1419 H1476 0.930 . S
N1420 C1419 1.278 1_565 S
N1420 C1423 1.315 . S
C1421 C1418 1.348 1_565 S
C1421 C1423 1.353 . S
C1421 H1477 0.929 . S
C1422 C1418 1.356 . S
C1422 C1419 1.358 . S
C1422 H1478 0.930 . S
C1423 N1420 1.315 . S
C1423 C1421 1.353 . S
C1423 H1479 0.930 . S
C1424 N1425 1.327 . S
C1424 C1429 1.353 . S
C1424 H1430 0.930 . S
N1425 Li1408 1.990 . S
N1425 C1424 1.327 . S
N1425 C1427 1.267 1_545 S
C1426 C1427 1.358 . S
C1426 C1428 1.356 1_565 S
C1426 H1480 0.930 . S
C1427 N1425 1.267 1_565 S
C1427 C1426 1.358 . S
C1427 H1431 0.930 . S
C1428 C1426 1.356 1_545 S
C1428 C1429 1.348 . S
C1429 C1424 1.353 . S
C1429 C1428 1.348 . S
C1429 H1481 0.929 . S
H1430 C1424 0.930 . S
H1431 C1427 0.930 . S
C1432 N1433 1.314 . S
C1432 C1434 1.353 . S
C1432 H1438 0.930 . S
N1433 Li1409 1.990 . S
N1433 C1432 1.314 . S
N1433 C1436 1.279 . S
C1434 C1432 1.353 . S
C1434 C1437 1.348 . S
C1434 H1482 0.929 . S
C1435 C1436 1.358 . S
C1435 C1437 1.356 . S
C1435 H1483 0.930 . S
C1436 N1433 1.279 . S
C1436 C1435 1.358 . S
C1436 H1439 0.930 . S
C1437 C1434 1.348 . S
C1437 C1435 1.356 . S
H1438 C1432 0.930 . S
H1439 C1436 0.930 . S
C1440 C1442 1.348 . S
C1440 C1443 1.356 . S
C1440 O1470 1.325 . S
N1441 C1444 1.314 . S
N1441 C1445 1.279 . S
C1442 C1440 1.348 . S
C1442 C1444 1.353 . S
C1442 H1484 0.929 . S
C1443 C1440 1.356 . S
C1443 C1445 1.358 . S
C1443 H1485 0.930 . S
C1444 N1441 1.314 . S
C1444 C1442 1.353 . S
C1444 H1486 0.930 . S
C1445 N1441 1.279 . S
C1445 C1443 1.358 . S
C1445 H1487 0.930 . S
C1446 C1447 1.348 . S
C1446 C1448 1.356 1_545 S
C1446 O1471 1.326 . S
C1447 C1446 1.348 . S
C1447 C1449 1.353 . S
C1447 H1488 0.929 . S
C1448 C1446 1.356 1_565 S
C1448 C1450 1.358 . S
C1448 H1489 0.930 . S
C1449 C1447 1.353 . S
C1449 N1451 1.314 . S
C1449 H1490 0.930 . S
C1450 C1448 1.358 . S
C1450 N1451 1.279 1_565 S
C1450 H1491 0.930 . S
N1451 C1449 1.314 . S
N1451 C1450 1.279 1_545 S
C1452 C1454 1.353 . S
C1452 N1455 1.314 1_565 S
C1452 H1458 0.930 . S
C1453 N1455 1.279 . S
C1453 C1456 1.358 . S
C1453 H1459 0.930 . S
C1454 C1452 1.353 . S
C1454 C1457 1.348 1_565 S
C1454 H1492 0.929 . S
N1455 Li1410 1.990 . S
N1455 C1452 1.314 1_545 S
N1455 C1453 1.279 . S
C1456 C1453 1.358 . S
C1456 C1457 1.356 . S
C1456 H1493 0.930 . S
C1457 C1454 1.348 1_545 S
C1457 C1456 1.356 . S
H1458 C1452 0.930 . S
H1459 C1453 0.930 . S
C1460 N1461 1.314 . S
C1460 C1462 1.353 . S
C1460 H1466 0.930 . S
N1461 Li1411 1.990 . S
N1461 C1460 1.314 . S
N1461 C1464 1.279 . S
C1462 C1460 1.353 . S
C1462 C1465 1.348 . S
C1462 H1494 0.929 . S
C1463 C1464 1.358 . S
C1463 C1465 1.356 . S
C1463 H1495 0.930 . S
C1464 N1461 1.279 . S
C1464 C1463 1.358 . S
C1464 H1467 0.930 . S
C1465 C1462 1.348 . S
C1465 C1463 1.356 . S
H1466 C1460 0.930 . S
H1467 C1464 0.930 . S
O1468 Li1408 1.932 1_565 S
O1468 Li1409 1.970 . S
O1468 Li1410 1.961 1_565 S
O1468 C1412 1.325 . S
O1469 Li1408 1.972 . S
O1469 Li1409 1.956 1_545 S
O1469 Li1411 1.961 . S
O1469 C1418 1.325 . S
O1470 Li1408 1.986 . S
O1470 Li1410 1.956 . S
O1470 Li1411 1.970 . S
O1470 C1440 1.325 . S
O1471 Li1409 1.946 1_545 S
O1471 Li1410 1.971 . S
O1471 Li1411 1.973 . S
O1471 C1446 1.326 . S
H1472 C1414 0.929 . S
H1473 C1415 0.930 . S
H1474 C1416 0.930 . S
H1475 C1417 0.930 . S
H1476 C1419 0.930 . S
H1477 C1421 0.929 . S
H1478 C1422 0.930 . S
H1479 C1423 0.930 . S
H1480 C1426 0.930 . S
H1481 C1429 0.929 . S
H1482 C1434 0.929 . S
H1483 C1435 0.930 . S
H1484 C1442 0.929 . S
H1485 C1443 0.930 . S
H1486 C1444 0.930 . S
H1487 C1445 0.930 . S
H1488 C1447 0.929 . S
H1489 C1448 0.930 . S
H1490 C1449 0.930 . S
H1491 C1450 0.930 . S
H1492 C1454 0.929 . S
H1493 C1456 0.930 . S
H1494 C1462 0.929 . S
H1495 C1463 0.930 . S
Li1496 N1513 1.990 . S
Li1496 O1556 1.956 . S
Li1496 O1557 1.970 . S
Li1496 O1558 1.961 . S
Li1497 N1521 1.990 . S
Li1497 O1556 1.970 . S
Li1497 O1557 1.956 . S
Li1497 O1559 1.961 . S
Li1498 N1543 1.990 . S
Li1498 O1556 1.961 . S
Li1498 O1558 1.956 . S
Li1498 O1559 1.970 . S
Li1499 N1549 1.990 . S
Li1499 O1557 1.961 . S
Li1499 O1558 1.970 . S
Li1499 O1559 1.956 . S
C1500 C1502 1.348 . S
C1500 C1503 1.356 . S
C1500 O1556 1.325 . S
N1501 C1504 1.314 . S
N1501 C1505 1.279 . S
C1502 C1500 1.348 . S
C1502 C1504 1.353 . S
C1502 H1560 0.929 . S
C1503 C1500 1.356 . S
C1503 C1505 1.358 . S
C1503 H1561 0.930 . S
C1504 N1501 1.314 . S
C1504 C1502 1.353 . S
C1504 H1562 0.930 . S
C1505 N1501 1.279 . S
C1505 C1503 1.358 . S
C1505 H1563 0.930 . S
C1506 C1509 1.348 . S
C1506 C1510 1.356 . S
C1506 O1557 1.325 . S
C1507 N1508 1.279 . S
C1507 C1510 1.358 . S
C1507 H1564 0.930 . S
N1508 C1507 1.279 . S
N1508 C1511 1.314 . S
C1509 C1506 1.348 . S
C1509 C1511 1.353 . S
C1509 H1565 0.929 . S
C1510 C1506 1.356 . S
C1510 C1507 1.358 . S
C1510 H1566 0.930 . S
C1511 N1508 1.314 . S
C1511 C1509 1.353 . S
C1511 H1567 0.930 . S
C1512 N1513 1.314 . S
C1512 C1517 1.353 . S
C1512 H1518 0.930 . S
N1513 Li1496 1.990 . S
N1513 C1512 1.314 . S
N1513 C1515 1.279 . S
C1514 C1515 1.358 . S
C1514 C1516 1.356 . S
C1514 H1568 0.930 . S
C1515 N1513 1.279 . S
C1515 C1514 1.358 . S
C1515 H1519 0.930 . S
C1516 C1514 1.356 . S
C1516 C1517 1.348 . S
C1517 C1512 1.353 . S
C1517 C1516 1.348 . S
C1517 H1569 0.929 . S
H1518 C1512 0.930 . S
H1519 C1515 0.930 . S
C1520 N1521 1.314 . S
C1520 C1522 1.353 . S
C1520 H1526 0.930 . S
N1521 Li1497 1.990 . S
N1521 C1520 1.314 . S
N1521 C1524 1.279 . S
C1522 C1520 1.353 . S
C1522 C1525 1.348 . S
C1522 H1570 0.929 . S
C1523 C1524 1.358 . S
C1523 C1525 1.356 . S
C1523 H1571 0.930 . S
C1524 N1521 1.279 . S
C1524 C1523 1.358 . S
C1524 H1527 0.930 . S
C1525 C1522 1.348 . S
C1525 C1523 1.356 . S
H1526 C1520 0.930 . S
H1527 C1524 0.930 . S
C1528 C1530 1.348 . S
C1528 C1531 1.356 . S
C1528 O1558 1.325 . S
N1529 C1532 1.314 . S
N1529 C1533 1.279 . S
C1530 C1528 1.348 . S
C1530 C1532 1.353 . S
C1530 H1572 0.929 . S
C1531 C1528 1.356 . S
C1531 C1533 1.358 . S
C1531 H1573 0.930 . S
C1532 N1529 1.314 . S
C1532 C1530 1.353 . S
C1532 H1574 0.930 . S
C1533 N1529 1.279 . S
C1533 C1531 1.358 . S
C1533 H1575 0.930 . S
C1534 C1535 1.348 . S
C1534 C1536 1.356 . S
C1534 O1559 1.325 . S
C1535 C1534 1.348 . S
C1535 C1537 1.353 . S
C1535 H1576 0.929 . S
C1536 C1534 1.356 . S
C1536 C1538 1.358 . S
C1536 H1577 0.930 . S
C1537 C1535 1.353 . S
C1537 N1539 1.314 . S
C1537 H1578 0.930 . S
C1538 C1536 1.358 . S
C1538 N1539 1.279 . S
C1538 H1579 0.930 . S
N1539 C1537 1.314 . S
N1539 C1538 1.279 . S
C1540 C1542 1.353 . S
C1540 N1543 1.314 . S
C1540 H1546 0.930 . S
C1541 N1543 1.279 . S
C1541 C1544 1.358 . S
C1541 H1547 0.930 . S
C1542 C1540 1.353 . S
C1542 C1545 1.348 . S
C1542 H1580 0.929 . S
N1543 Li1498 1.990 . S
N1543 C1540 1.314 . S
N1543 C1541 1.279 . S
C1544 C1541 1.358 . S
C1544 C1545 1.356 . S
C1544 H1581 0.930 . S
C1545 C1542 1.348 . S
C1545 C1544 1.356 . S
H1546 C1540 0.930 . S
H1547 C1541 0.930 . S
C1548 N1549 1.314 . S
C1548 C1550 1.353 . S
C1548 H1554 0.930 . S
N1549 Li1499 1.990 . S
N1549 C1548 1.314 . S
N1549 C1552 1.279 . S
C1550 C1548 1.353 . S
C1550 C1553 1.348 . S
C1550 H1582 0.929 . S
C1551 C1552 1.358 . S
C1551 C1553 1.356 . S
C1551 H1583 0.930 . S
C1552 N1549 1.279 . S
C1552 C1551 1.358 . S
C1552 H1555 0.930 . S
C1553 C1550 1.348 . S
C1553 C1551 1.356 . S
H1554 C1548 0.930 . S
H1555 C1552 0.930 . S
O1556 Li1496 1.956 . S
O1556 Li1497 1.970 . S
O1556 Li1498 1.961 . S
O1556 C1500 1.325 . S
O1557 Li1496 1.970 . S
O1557 Li1497 1.956 . S
O1557 Li1499 1.961 . S
O1557 C1506 1.325 . S
O1558 Li1496 1.961 . S
O1558 Li1498 1.956 . S
O1558 Li1499 1.970 . S
O1558 C1528 1.325 . S
O1559 Li1497 1.961 . S
O1559 Li1498 1.970 . S
O1559 Li1499 1.956 . S
O1559 C1534 1.325 . S
H1560 C1502 0.929 . S
H1561 C1503 0.930 . S
H1562 C1504 0.930 . S
H1563 C1505 0.930 . S
H1564 C1507 0.930 . S
H1565 C1509 0.929 . S
H1566 C1510 0.930 . S
H1567 C1511 0.930 . S
H1568 C1514 0.930 . S
H1569 C1517 0.929 . S
H1570 C1522 0.929 . S
H1571 C1523 0.930 . S
H1572 C1530 0.929 . S
H1573 C1531 0.930 . S
H1574 C1532 0.930 . S
H1575 C1533 0.930 . S
H1576 C1535 0.929 . S
H1577 C1536 0.930 . S
H1578 C1537 0.930 . S
H1579 C1538 0.930 . S
H1580 C1542 0.929 . S
H1581 C1544 0.930 . S
H1582 C1550 0.929 . S
H1583 C1551 0.930 . S
Li1584 N1601 1.990 . S
Li1584 O1644 1.956 . S
Li1584 O1645 1.970 . S
Li1584 O1646 1.961 1_545 S
Li1585 N1609 1.990 . S
Li1585 O1644 1.970 . S
Li1585 O1645 1.956 . S
Li1585 O1647 1.961 . S
Li1586 N1631 1.990 . S
Li1586 O1644 1.961 . S
Li1586 O1646 1.956 1_545 S
Li1586 O1647 1.970 . S
Li1587 N1637 1.990 . S
Li1587 O1645 1.961 1_565 S
Li1587 O1646 1.970 . S
Li1587 O1647 1.956 1_565 S
C1588 C1590 1.348 . S
C1588 C1591 1.356 . S
C1588 O1644 1.325 . S
N1589 C1592 1.314 . S
N1589 C1593 1.279 . S
C1590 C1588 1.348 . S
C1590 C1592 1.353 . S
C1590 H1648 0.929 . S
C1591 C1588 1.356 . S
C1591 C1593 1.358 . S
C1591 H1649 0.930 . S
C1592 N1589 1.314 . S
C1592 C1590 1.353 . S
C1592 H1650 0.930 . S
C1593 N1589 1.279 . S
C1593 C1591 1.358 . S
C1593 H1651 0.930 . S
C1594 C1597 1.348 . S
C1594 C1598 1.355 . S
C1594 O1645 1.325 . S
C1595 N1596 1.289 . S
C1595 C1598 1.358 . S
C1595 H1652 0.922 1_545 S
N1596 C1595 1.289 . S
N1596 C1599 1.314 . S
C1597 C1594 1.348 . S
C1597 C1599 1.353 . S
C1597 H1653 0.929 . S
C1598 C1594 1.355 . S
C1598 C1595 1.358 . S
C1598 H1654 0.930 1_545 S
C1599 N1596 1.314 . S
C1599 C1597 1.353 . S
C1599 H1655 0.930 . S
C1600 N1601 1.314 1_565 S
C1600 C1605 1.353 . S
C1600 H1606 0.930 . S
N1601 Li1584 1.990 . S
N1601 C1600 1.314 1_545 S
N1601 C1603 1.279 . S
C1602 C1603 1.358 . S
C1602 C1604 1.356 . S
C1602 H1656 0.930 . S
C1603 N1601 1.279 . S
C1603 C1602 1.358 . S
C1603 H1607 0.930 . S
C1604 C1602 1.356 . S
C1604 C1605 1.348 1_545 S
C1605 C1600 1.353 . S
C1605 C1604 1.348 1_565 S
C1605 H1657 0.929 . S
H1606 C1600 0.930 . S
H1607 C1603 0.930 . S
C1608 N1609 1.314 . S
C1608 C1610 1.353 . S
C1608 H1614 0.930 . S
N1609 Li1585 1.990 . S
N1609 C1608 1.314 . S
N1609 C1612 1.279 . S
C1610 C1608 1.353 . S
C1610 C1613 1.348 . S
C1610 H1658 0.929 . S
C1611 C1612 1.358 . S
C1611 C1613 1.356 . S
C1611 H1659 0.930 . S
C1612 N1609 1.279 . S
C1612 C1611 1.358 . S
C1612 H1615 0.930 . S
C1613 C1610 1.348 . S
C1613 C1611 1.356 . S
H1614 C1608 0.930 . S
H1615 C1612 0.930 . S
C1616 C1618 1.348 . S
C1616 C1619 1.356 . S
C1616 O1646 1.325 . S
N1617 C1620 1.314 . S
N1617 C1621 1.279 . S
C1618 C1616 1.348 . S
C1618 C1620 1.353 . S
C1618 H1660 0.929 . S
C1619 C1616 1.356 . S
C1619 C1621 1.358 . S
C1619 H1661 0.930 . S
C1620 N1617 1.314 . S
C1620 C1618 1.353 . S
C1620 H1662 0.930 . S
C1621 N1617 1.279 . S
C1621 C1619 1.358 . S
C1621 H1663 0.930 . S
C1622 C1623 1.348 1_545 S
C1622 C1624 1.356 . S
C1622 O1647 1.325 . S
C1623 C1622 1.348 1_565 S
C1623 C1625 1.353 . S
C1623 H1664 0.929 . S
C1624 C1622 1.356 . S
C1624 C1626 1.358 . S
C1624 H1665 0.930 . S
C1625 C1623 1.353 . S
C1625 N1627 1.314 1_565 S
C1625 H1666 0.930 . S
C1626 C1624 1.358 . S
C1626 N1627 1.279 . S
C1626 H1667 0.930 . S
N1627 C1625 1.314 1_545 S
N1627 C1626 1.279 . S
C1628 C1630 1.353 . S
C1628 N1631 1.314 . S
C1628 H1634 0.930 . S
C1629 N1631 1.279 1_565 S
C1629 C1632 1.358 . S
C1629 H1635 0.930 . S
C1630 C1628 1.353 . S
C1630 C1633 1.348 . S
C1630 H1668 0.929 . S
N1631 Li1586 1.990 . S
N1631 C1628 1.314 . S
N1631 C1629 1.279 1_545 S
C1632 C1629 1.358 . S
C1632 C1633 1.356 1_565 S
C1632 H1669 0.930 . S
C1633 C1630 1.348 . S
C1633 C1632 1.356 1_545 S
H1634 C1628 0.930 . S
H1635 C1629 0.930 . S
C1636 N1637 1.314 . S
C1636 C1638 1.353 . S
C1636 H1642 0.930 . S
N1637 Li1587 1.990 . S
N1637 C1636 1.314 . S
N1637 C1640 1.279 . S
C1638 C1636 1.353 . S
C1638 C1641 1.348 . S
C1638 H1670 0.929 . S
C1639 C1640 1.358 . S
C1639 C1641 1.356 . S
C1639 H1671 0.930 . S
C1640 N1637 1.279 . S
C1640 C1639 1.358 . S
C1640 H1643 0.930 . S
C1641 C1638 1.348 . S
C1641 C1639 1.356 . S
H1642 C1636 0.930 . S
H1643 C1640 0.930 . S
O1644 Li1584 1.956 . S
O1644 Li1585 1.970 . S
O1644 Li1586 1.961 . S
O1644 C1588 1.325 . S
O1645 Li1584 1.970 . S
O1645 Li1585 1.956 . S
O1645 Li1587 1.961 1_545 S
O1645 C1594 1.325 . S
O1646 Li1584 1.961 1_565 S
O1646 Li1586 1.956 1_565 S
O1646 Li1587 1.970 . S
O1646 C1616 1.325 . S
O1647 Li1585 1.961 . S
O1647 Li1586 1.970 . S
O1647 Li1587 1.956 1_545 S
O1647 C1622 1.325 . S
H1648 C1590 0.929 . S
H1649 C1591 0.930 . S
H1650 C1592 0.930 . S
H1651 C1593 0.930 . S
H1652 C1595 0.922 1_565 S
H1653 C1597 0.929 . S
H1654 C1598 0.930 1_565 S
H1655 C1599 0.930 . S
H1656 C1602 0.930 . S
H1657 C1605 0.929 . S
H1658 C1610 0.929 . S
H1659 C1611 0.930 . S
H1660 C1618 0.929 . S
H1661 C1619 0.930 . S
H1662 C1620 0.930 . S
H1663 C1621 0.930 . S
H1664 C1623 0.929 . S
H1665 C1624 0.930 . S
H1666 C1625 0.930 . S
H1667 C1626 0.930 . S
H1668 C1630 0.929 . S
H1669 C1632 0.930 . S
H1670 C1638 0.929 . S
H1671 C1639 0.930 . S
Li1672 N1689 1.990 . S
Li1672 O1732 1.956 . S
Li1672 O1733 1.970 . S
Li1672 O1734 1.961 1_554 S
Li1673 N1697 1.990 . S
Li1673 O1732 1.970 . S
Li1673 O1733 1.956 . S
Li1673 O1735 1.961 . S
Li1674 N1719 1.990 . S
Li1674 O1732 1.961 . S
Li1674 O1734 1.956 1_554 S
Li1674 O1735 1.970 . S
Li1675 N1725 1.990 . S
Li1675 O1733 1.961 1_556 S
Li1675 O1734 1.970 . S
Li1675 O1735 1.956 1_556 S
C1676 C1678 1.348 . S
C1676 C1679 1.356 . S
C1676 O1732 1.325 . S
N1677 C1680 1.314 . S
N1677 C1681 1.279 . S
C1678 C1676 1.348 . S
C1678 C1680 1.353 . S
C1678 H1736 0.929 . S
C1679 C1676 1.356 . S
C1679 C1681 1.358 . S
C1679 H1737 0.930 . S
C1680 N1677 1.314 . S
C1680 C1678 1.353 . S
C1680 H1738 0.930 . S
C1681 N1677 1.279 . S
C1681 C1679 1.358 . S
C1681 H1739 0.930 . S
C1682 C1685 1.348 . S
C1682 C1686 1.356 . S
C1682 O1733 1.325 . S
C1683 N1684 1.279 . S
C1683 C1686 1.358 . S
C1683 H1740 0.938 . S
N1684 C1683 1.279 . S
N1684 C1687 1.314 . S
C1685 C1682 1.348 . S
C1685 C1687 1.353 . S
C1685 H1741 0.929 . S
C1686 C1682 1.356 . S
C1686 C1683 1.358 . S
C1686 H1742 0.934 . S
C1687 N1684 1.314 . S
C1687 C1685 1.353 . S
C1687 H1743 0.930 . S
C1688 N1689 1.314 1_556 S
C1688 C1693 1.353 . S
C1688 H1694 0.930 . S
N1689 Li1672 1.990 . S
N1689 C1688 1.314 1_554 S
N1689 C1691 1.279 . S
C1690 C1691 1.358 . S
C1690 C1692 1.356 . S
C1690 H1744 0.930 . S
C1691 N1689 1.279 . S
C1691 C1690 1.358 . S
C1691 H1695 0.930 . S
C1692 C1690 1.356 . S
C1692 C1693 1.348 1_554 S
C1693 C1688 1.353 . S
C1693 C1692 1.348 1_556 S
C1693 H1745 0.929 . S
H1694 C1688 0.930 . S
H1695 C1691 0.930 . S
C1696 N1697 1.314 . S
C1696 C1698 1.353 . S
C1696 H1702 0.930 . S
N1697 Li1673 1.990 . S
N1697 C1696 1.314 . S
N1697 C1700 1.279 . S
C1698 C1696 1.353 . S
C1698 C1701 1.348 . S
C1698 H1746 0.929 . S
C1699 C1700 1.358 . S
C1699 C1701 1.356 . S
C1699 H1747 0.930 . S
C1700 N1697 1.279 . S
C1700 C1699 1.358 . S
C1700 H1703 0.930 . S
C1701 C1698 1.348 . S
C1701 C1699 1.356 . S
H1702 C1696 0.930 . S
H1703 C1700 0.930 . S
C1704 C1706 1.348 . S
C1704 C1707 1.356 . S
C1704 O1734 1.325 . S
N1705 C1708 1.314 . S
N1705 C1709 1.279 . S
C1706 C1704 1.348 . S
C1706 C1708 1.353 . S
C1706 H1748 0.929 . S
C1707 C1704 1.356 . S
C1707 C1709 1.358 . S
C1707 H1749 0.930 . S
C1708 N1705 1.314 . S
C1708 C1706 1.353 . S
C1708 H1750 0.930 . S
C1709 N1705 1.279 . S
C1709 C1707 1.358 . S
C1709 H1751 0.930 . S
C1710 C1711 1.348 . S
C1710 C1712 1.356 . S
C1710 O1735 1.325 . S
C1711 C1710 1.348 . S
C1711 C1713 1.353 . S
C1711 H1752 0.929 1_554 S
C1712 C1710 1.356 . S
C1712 C1714 1.358 . S
C1712 H1753 0.930 . S
C1713 C1711 1.353 . S
C1713 N1715 1.314 . S
C1713 H1754 0.930 1_554 S
C1714 C1712 1.358 . S
C1714 N1715 1.279 . S
C1714 H1755 0.930 . S
N1715 C1713 1.314 . S
N1715 C1714 1.279 . S
C1716 C1718 1.353 . S
C1716 N1719 1.314 . S
C1716 H1722 0.930 . S
C1717 N1719 1.279 1_556 S
C1717 C1720 1.358 . S
C1717 H1723 0.930 . S
C1718 C1716 1.353 . S
C1718 C1721 1.348 . S
C1718 H1756 0.929 . S
N1719 Li1674 1.990 . S
N1719 C1716 1.314 . S
N1719 C1717 1.279 1_554 S
C1720 C1717 1.358 . S
C1720 C1721 1.356 1_556 S
C1720 H1757 0.930 . S
C1721 C1718 1.348 . S
C1721 C1720 1.356 1_554 S
H1722 C1716 0.930 . S
H1723 C1717 0.930 . S
C1724 N1725 1.314 . S
C1724 C1726 1.353 . S
C1724 H1730 0.930 . S
N1725 Li1675 1.990 . S
N1725 C1724 1.314 . S
N1725 C1728 1.279 . S
C1726 C1724 1.353 . S
C1726 C1729 1.348 . S
C1726 H1758 0.929 . S
C1727 C1728 1.358 . S
C1727 C1729 1.356 . S
C1727 H1759 0.930 . S
C1728 N1725 1.279 . S
C1728 C1727 1.358 . S
C1728 H1731 0.930 . S
C1729 C1726 1.348 . S
C1729 C1727 1.356 . S
H1730 C1724 0.930 . S
H1731 C1728 0.930 . S
O1732 Li1672 1.956 . S
O1732 Li1673 1.970 . S
O1732 Li1674 1.961 . S
O1732 C1676 1.325 . S
O1733 Li1672 1.970 . S
O1733 Li1673 1.956 . S
O1733 Li1675 1.961 1_554 S
O1733 C1682 1.325 . S
O1734 Li1672 1.961 1_556 S
O1734 Li1674 1.956 1_556 S
O1734 Li1675 1.970 . S
O1734 C1704 1.325 . S
O1735 Li1673 1.961 . S
O1735 Li1674 1.970 . S
O1735 Li1675 1.956 1_554 S
O1735 C1710 1.325 . S
H1736 C1678 0.929 . S
H1737 C1679 0.930 . S
H1738 C1680 0.930 . S
H1739 C1681 0.930 . S
H1740 C1683 0.938 . S
H1741 C1685 0.929 . S
H1742 C1686 0.934 . S
H1743 C1687 0.930 . S
H1744 C1690 0.930 . S
H1745 C1693 0.929 . S
H1746 C1698 0.929 . S
H1747 C1699 0.930 . S
H1748 C1706 0.929 . S
H1749 C1707 0.930 . S
H1750 C1708 0.930 . S
H1751 C1709 0.930 . S
H1752 C1711 0.929 1_556 S
H1753 C1712 0.930 . S
H1754 C1713 0.930 1_556 S
H1755 C1714 0.930 . S
H1756 C1718 0.929 . S
H1757 C1720 0.930 . S
H1758 C1726 0.929 . S
H1759 C1727 0.930 . S
Li1760 N1777 1.990 . S
Li1760 O1820 1.956 . S
Li1760 O1821 1.970 . S
Li1760 O1822 1.961 . S
Li1761 N1785 1.990 . S
Li1761 O1820 1.970 . S
Li1761 O1821 1.956 . S
Li1761 O1823 1.961 1_554 S
Li1762 N1807 1.990 . S
Li1762 O1820 1.961 1_556 S
Li1762 O1822 1.956 1_556 S
Li1762 O1823 1.970 . S
Li1763 N1813 1.991 . S
Li1763 O1821 1.961 . S
Li1763 O1822 1.970 . S
Li1763 O1823 1.956 1_554 S
C1764 C1766 1.348 . S
C1764 C1767 1.356 1_554 S
C1764 O1820 1.325 . S
N1765 C1768 1.314 . S
N1765 C1769 1.279 1_554 S
C1766 C1764 1.348 . S
C1766 C1768 1.353 . S
C1766 H1824 0.929 . S
C1767 C1764 1.356 1_556 S
C1767 C1769 1.358 . S
C1767 H1825 0.930 . S
C1768 N1765 1.314 . S
C1768 C1766 1.353 . S
C1768 H1826 0.930 . S
C1769 N1765 1.279 1_556 S
C1769 C1767 1.358 . S
C1769 H1827 0.930 . S
C1770 C1773 1.348 . S
C1770 C1774 1.356 . S
C1770 O1821 1.325 . S
C1771 N1772 1.279 . S
C1771 C1774 1.358 . S
C1771 H1828 0.930 . S
N1772 C1771 1.279 . S
N1772 C1775 1.314 . S
C1773 C1770 1.348 . S
C1773 C1775 1.353 . S
C1773 H1829 0.929 . S
C1774 C1770 1.356 . S
C1774 C1771 1.358 . S
C1774 H1830 0.930 . S
C1775 N1772 1.314 . S
C1775 C1773 1.353 . S
C1775 H1831 0.930 . S
C1776 N1777 1.314 . S
C1776 C1781 1.353 . S
C1776 H1782 0.930 . S
N1777 Li1760 1.990 . S
N1777 C1776 1.314 . S
N1777 C1779 1.279 . S
C1778 C1779 1.358 . S
C1778 C1780 1.356 . S
C1778 H1832 0.930 . S
C1779 N1777 1.279 . S
C1779 C1778 1.358 . S
C1779 H1783 0.930 . S
C1780 C1778 1.356 . S
C1780 C1781 1.348 . S
C1781 C1776 1.353 . S
C1781 C1780 1.348 . S
C1781 H1833 0.929 . S
H1782 C1776 0.930 . S
H1783 C1779 0.930 . S
C1784 N1785 1.314 1_556 S
C1784 C1786 1.353 . S
C1784 H1790 0.930 . S
N1785 Li1761 1.990 . S
N1785 C1784 1.314 1_554 S
N1785 C1788 1.279 . S
C1786 C1784 1.353 . S
C1786 C1789 1.348 1_556 S
C1786 H1834 0.929 . S
C1787 C1788 1.358 . S
C1787 C1789 1.356 . S
C1787 H1835 0.930 . S
C1788 N1785 1.279 . S
C1788 C1787 1.358 . S
C1788 H1791 0.930 . S
C1789 C1786 1.348 1_554 S
C1789 C1787 1.356 . S
H1790 C1784 0.930 . S
H1791 C1788 0.930 . S
C1792 C1794 1.348 1_554 S
C1792 C1795 1.356 . S
C1792 O1822 1.325 . S
N1793 C1796 1.307 1_554 S
N1793 C1797 1.288 . S
C1794 C1792 1.348 1_556 S
C1794 C1796 1.353 . S
C1794 H1836 0.929 . S
C1795 C1792 1.356 . S
C1795 C1797 1.358 . S
C1795 H1837 0.930 . S
C1796 N1793 1.307 1_556 S
C1796 C1794 1.353 . S
C1796 H1838 0.930 . S
C1797 N1793 1.288 . S
C1797 C1795 1.358 . S
C1797 H1839 0.930 . S
C1798 C1799 1.348 . S
C1798 C1800 1.356 . S
C1798 O1823 1.325 . S
C1799 C1798 1.348 . S
C1799 C1801 1.353 . S
C1799 H1840 0.929 . S
C1800 C1798 1.356 . S
C1800 C1802 1.358 . S
C1800 H1841 0.930 . S
C1801 C1799 1.353 . S
C1801 N1803 1.314 . S
C1801 H1842 0.930 . S
C1802 C1800 1.358 . S
C1802 N1803 1.279 . S
C1802 H1843 0.930 . S
N1803 C1801 1.314 . S
N1803 C1802 1.279 . S
C1804 C1806 1.353 . S
C1804 N1807 1.314 . S
C1804 H1810 0.930 . S
C1805 N1807 1.279 . S
C1805 C1808 1.358 . S
C1805 H1811 0.930 . S
C1806 C1804 1.353 . S
C1806 C1809 1.348 . S
C1806 H1844 0.929 . S
N1807 Li1762 1.990 . S
N1807 C1804 1.314 . S
N1807 C1805 1.279 . S
C1808 C1805 1.358 . S
C1808 C1809 1.356 . S
C1808 H1845 0.930 . S
C1809 C1806 1.348 . S
C1809 C1808 1.356 . S
H1810 C1804 0.930 . S
H1811 C1805 0.930 . S
C1812 N1813 1.349 . S
C1812 C1814 1.353 . S
C1812 H1818 0.930 . S
N1813 Li1763 1.991 . S
N1813 C1812 1.349 . S
N1813 C1816 1.246 1_554 S
C1814 C1812 1.353 . S
C1814 C1817 1.348 . S
C1814 H1846 0.929 . S
C1815 C1816 1.358 . S
C1815 C1817 1.356 1_556 S
C1815 H1847 0.930 . S
C1816 N1813 1.246 1_556 S
C1816 C1815 1.358 . S
C1816 H1819 0.930 . S
C1817 C1814 1.348 . S
C1817 C1815 1.356 1_554 S
H1818 C1812 0.930 . S
H1819 C1816 0.930 . S
O1820 Li1760 1.956 . S
O1820 Li1761 1.970 . S
O1820 Li1762 1.961 1_554 S
O1820 C1764 1.325 . S
O1821 Li1760 1.970 . S
O1821 Li1761 1.956 . S
O1821 Li1763 1.961 . S
O1821 C1770 1.325 . S
O1822 Li1760 1.961 . S
O1822 Li1762 1.956 1_554 S
O1822 Li1763 1.970 . S
O1822 C1792 1.325 . S
O1823 Li1761 1.961 1_556 S
O1823 Li1762 1.970 . S
O1823 Li1763 1.956 1_556 S
O1823 C1798 1.325 . S
H1824 C1766 0.929 . S
H1825 C1767 0.930 . S
H1826 C1768 0.930 . S
H1827 C1769 0.930 . S
H1828 C1771 0.930 . S
H1829 C1773 0.929 . S
H1830 C1774 0.930 . S
H1831 C1775 0.930 . S
H1832 C1778 0.930 . S
H1833 C1781 0.929 . S
H1834 C1786 0.929 . S
H1835 C1787 0.930 . S
H1836 C1794 0.929 . S
H1837 C1795 0.930 . S
H1838 C1796 0.930 . S
H1839 C1797 0.930 . S
H1840 C1799 0.929 . S
H1841 C1800 0.930 . S
H1842 C1801 0.930 . S
H1843 C1802 0.930 . S
H1844 C1806 0.929 . S
H1845 C1808 0.930 . S
H1846 C1814 0.929 . S
H1847 C1815 0.930 . S
Li1848 N1865 1.990 . S
Li1848 O1908 1.956 . S
Li1848 O1909 1.970 . S
Li1848 O1910 1.961 . S
Li1849 N1873 1.990 . S
Li1849 O1908 1.970 . S
Li1849 O1909 1.956 . S
Li1849 O1911 1.961 . S
Li1850 N1895 1.990 . S
Li1850 O1908 1.961 . S
Li1850 O1910 1.956 . S
Li1850 O1911 1.970 . S
Li1851 N1901 1.990 . S
Li1851 O1909 1.961 . S
Li1851 O1910 1.970 . S
Li1851 O1911 1.956 . S
C1852 C1854 1.348 . S
C1852 C1855 1.356 . S
C1852 O1908 1.325 . S
N1853 C1856 1.314 . S
N1853 C1857 1.279 . S
C1854 C1852 1.348 . S
C1854 C1856 1.353 . S
C1854 H1912 0.929 . S
C1855 C1852 1.356 . S
C1855 C1857 1.358 . S
C1855 H1913 0.930 . S
C1856 N1853 1.314 . S
C1856 C1854 1.353 . S
C1856 H1914 0.930 . S
C1857 N1853 1.279 . S
C1857 C1855 1.358 . S
C1857 H1915 0.930 . S
C1858 C1861 1.348 . S
C1858 C1862 1.356 . S
C1858 O1909 1.325 . S
C1859 N1860 1.279 . S
C1859 C1862 1.358 . S
C1859 H1916 0.930 . S
N1860 C1859 1.279 . S
N1860 C1863 1.314 . S
C1861 C1858 1.348 . S
C1861 C1863 1.353 . S
C1861 H1917 0.929 . S
C1862 C1858 1.356 . S
C1862 C1859 1.358 . S
C1862 H1918 0.930 . S
C1863 N1860 1.314 . S
C1863 C1861 1.353 . S
C1863 H1919 0.930 . S
C1864 N1865 1.314 . S
C1864 C1869 1.353 . S
C1864 H1870 0.930 . S
N1865 Li1848 1.990 . S
N1865 C1864 1.314 . S
N1865 C1867 1.279 . S
C1866 C1867 1.358 . S
C1866 C1868 1.356 . S
C1866 H1920 0.930 . S
C1867 N1865 1.279 . S
C1867 C1866 1.358 . S
C1867 H1871 0.930 . S
C1868 C1866 1.356 . S
C1868 C1869 1.348 . S
C1869 C1864 1.353 . S
C1869 C1868 1.348 . S
C1869 H1921 0.929 . S
H1870 C1864 0.930 . S
H1871 C1867 0.930 . S
C1872 N1873 1.314 . S
C1872 C1874 1.353 . S
C1872 H1878 0.930 . S
N1873 Li1849 1.990 . S
N1873 C1872 1.314 . S
N1873 C1876 1.279 . S
C1874 C1872 1.353 . S
C1874 C1877 1.348 . S
C1874 H1922 0.929 . S
C1875 C1876 1.358 . S
C1875 C1877 1.356 . S
C1875 H1923 0.930 . S
C1876 N1873 1.279 . S
C1876 C1875 1.358 . S
C1876 H1879 0.930 . S
C1877 C1874 1.348 . S
C1877 C1875 1.356 . S
H1878 C1872 0.930 . S
H1879 C1876 0.930 . S
C1880 C1882 1.348 . S
C1880 C1883 1.356 . S
C1880 O1910 1.325 . S
N1881 C1884 1.314 . S
N1881 C1885 1.279 . S
C1882 C1880 1.348 . S
C1882 C1884 1.353 . S
C1882 H1924 0.929 . S
C1883 C1880 1.356 . S
C1883 C1885 1.358 . S
C1883 H1925 0.930 . S
C1884 N1881 1.314 . S
C1884 C1882 1.353 . S
C1884 H1926 0.930 . S
C1885 N1881 1.279 . S
C1885 C1883 1.358 . S
C1885 H1927 0.930 . S
C1886 C1887 1.348 . S
C1886 C1888 1.356 . S
C1886 O1911 1.325 . S
C1887 C1886 1.348 . S
C1887 C1889 1.353 . S
C1887 H1928 0.929 . S
C1888 C1886 1.356 . S
C1888 C1890 1.358 . S
C1888 H1929 0.930 . S
C1889 C1887 1.353 . S
C1889 N1891 1.314 . S
C1889 H1930 0.930 . S
C1890 C1888 1.358 . S
C1890 N1891 1.279 . S
C1890 H1931 0.930 . S
N1891 C1889 1.314 . S
N1891 C1890 1.279 . S
C1892 C1894 1.353 . S
C1892 N1895 1.314 . S
C1892 H1898 0.930 . S
C1893 N1895 1.279 . S
C1893 C1896 1.358 . S
C1893 H1899 0.930 . S
C1894 C1892 1.353 . S
C1894 C1897 1.348 . S
C1894 H1932 0.929 . S
N1895 Li1850 1.990 . S
N1895 C1892 1.314 . S
N1895 C1893 1.279 . S
C1896 C1893 1.358 . S
C1896 C1897 1.356 . S
C1896 H1933 0.930 . S
C1897 C1894 1.348 . S
C1897 C1896 1.356 . S
H1898 C1892 0.930 . S
H1899 C1893 0.930 . S
C1900 N1901 1.314 . S
C1900 C1902 1.353 . S
C1900 H1906 0.930 . S
N1901 Li1851 1.990 . S
N1901 C1900 1.314 . S
N1901 C1904 1.279 . S
C1902 C1900 1.353 . S
C1902 C1905 1.348 . S
C1902 H1934 0.929 . S
C1903 C1904 1.358 . S
C1903 C1905 1.356 . S
C1903 H1935 0.930 . S
C1904 N1901 1.279 . S
C1904 C1903 1.358 . S
C1904 H1907 0.930 . S
C1905 C1902 1.348 . S
C1905 C1903 1.356 . S
H1906 C1900 0.930 . S
H1907 C1904 0.930 . S
O1908 Li1848 1.956 . S
O1908 Li1849 1.970 . S
O1908 Li1850 1.961 . S
O1908 C1852 1.325 . S
O1909 Li1848 1.970 . S
O1909 Li1849 1.956 . S
O1909 Li1851 1.961 . S
O1909 C1858 1.325 . S
O1910 Li1848 1.961 . S
O1910 Li1850 1.956 . S
O1910 Li1851 1.970 . S
O1910 C1880 1.325 . S
O1911 Li1849 1.961 . S
O1911 Li1850 1.970 . S
O1911 Li1851 1.956 . S
O1911 C1886 1.325 . S
H1912 C1854 0.929 . S
H1913 C1855 0.930 . S
H1914 C1856 0.930 . S
H1915 C1857 0.930 . S
H1916 C1859 0.930 . S
H1917 C1861 0.929 . S
H1918 C1862 0.930 . S
H1919 C1863 0.930 . S
H1920 C1866 0.930 . S
H1921 C1869 0.929 . S
H1922 C1874 0.929 . S
H1923 C1875 0.930 . S
H1924 C1882 0.929 . S
H1925 C1883 0.930 . S
H1926 C1884 0.930 . S
H1927 C1885 0.930 . S
H1928 C1887 0.929 . S
H1929 C1888 0.930 . S
H1930 C1889 0.930 . S
H1931 C1890 0.930 . S
H1932 C1894 0.929 . S
H1933 C1896 0.930 . S
H1934 C1902 0.929 . S
H1935 C1903 0.930 . S
Li1936 N1953 1.990 . S
Li1936 O1996 1.956 . S
Li1936 O1997 1.970 . S
Li1936 O1998 1.961 . S
Li1937 N1961 1.990 . S
Li1937 O1996 1.970 . S
Li1937 O1997 1.956 . S
Li1937 O1999 1.961 . S
Li1938 N1983 1.990 . S
Li1938 O1996 1.961 . S
Li1938 O1998 1.956 . S
Li1938 O1999 1.970 . S
Li1939 N1989 1.990 . S
Li1939 O1997 1.961 . S
Li1939 O1998 1.970 . S
Li1939 O1999 1.956 . S
C1940 C1942 1.348 . S
C1940 C1943 1.356 . S
C1940 O1996 1.325 . S
N1941 C1944 1.314 . S
N1941 C1945 1.279 . S
C1942 C1940 1.348 . S
C1942 C1944 1.353 . S
C1942 H2000 0.929 . S
C1943 C1940 1.356 . S
C1943 C1945 1.358 . S
C1943 H2001 0.930 . S
C1944 N1941 1.314 . S
C1944 C1942 1.353 . S
C1944 H2002 0.930 . S
C1945 N1941 1.279 . S
C1945 C1943 1.358 . S
C1945 H2003 0.930 . S
C1946 C1949 1.348 . S
C1946 C1950 1.356 . S
C1946 O1997 1.325 . S
C1947 N1948 1.279 . S
C1947 C1950 1.358 . S
C1947 H2004 0.930 . S
N1948 C1947 1.279 . S
N1948 C1951 1.314 . S
C1949 C1946 1.348 . S
C1949 C1951 1.353 . S
C1949 H2005 0.929 . S
C1950 C1946 1.356 . S
C1950 C1947 1.358 . S
C1950 H2006 0.930 . S
C1951 N1948 1.314 . S
C1951 C1949 1.353 . S
C1951 H2007 0.930 . S
C1952 N1953 1.314 . S
C1952 C1957 1.353 . S
C1952 H1958 0.930 . S
N1953 Li1936 1.990 . S
N1953 C1952 1.314 . S
N1953 C1955 1.279 . S
C1954 C1955 1.358 . S
C1954 C1956 1.356 . S
C1954 H2008 0.930 . S
C1955 N1953 1.279 . S
C1955 C1954 1.358 . S
C1955 H1959 0.930 . S
C1956 C1954 1.356 . S
C1956 C1957 1.348 . S
C1957 C1952 1.353 . S
C1957 C1956 1.348 . S
C1957 H2009 0.929 . S
H1958 C1952 0.930 . S
H1959 C1955 0.930 . S
C1960 N1961 1.314 . S
C1960 C1962 1.353 . S
C1960 H1966 0.930 . S
N1961 Li1937 1.990 . S
N1961 C1960 1.314 . S
N1961 C1964 1.279 . S
C1962 C1960 1.353 . S
C1962 C1965 1.348 . S
C1962 H2010 0.929 . S
C1963 C1964 1.358 . S
C1963 C1965 1.356 . S
C1963 H2011 0.930 . S
C1964 N1961 1.279 . S
C1964 C1963 1.358 . S
C1964 H1967 0.930 . S
C1965 C1962 1.348 . S
C1965 C1963 1.356 . S
H1966 C1960 0.930 . S
H1967 C1964 0.930 . S
C1968 C1970 1.348 . S
C1968 C1971 1.356 . S
C1968 O1998 1.325 . S
N1969 C1972 1.314 . S
N1969 C1973 1.279 . S
C1970 C1968 1.348 . S
C1970 C1972 1.353 . S
C1970 H2012 0.929 . S
C1971 C1968 1.356 . S
C1971 C1973 1.358 . S
C1971 H2013 0.930 . S
C1972 N1969 1.314 . S
C1972 C1970 1.353 . S
C1972 H2014 0.930 . S
C1973 N1969 1.279 . S
C1973 C1971 1.358 . S
C1973 H2015 0.930 . S
C1974 C1975 1.348 . S
C1974 C1976 1.356 . S
C1974 O1999 1.325 . S
C1975 C1974 1.348 . S
C1975 C1977 1.353 . S
C1975 H2016 0.929 . S
C1976 C1974 1.356 . S
C1976 C1978 1.358 . S
C1976 H2017 0.930 . S
C1977 C1975 1.353 . S
C1977 N1979 1.314 . S
C1977 H2018 0.930 . S
C1978 C1976 1.358 . S
C1978 N1979 1.279 . S
C1978 H2019 0.930 . S
N1979 C1977 1.314 . S
N1979 C1978 1.279 . S
C1980 C1982 1.353 . S
C1980 N1983 1.314 . S
C1980 H1986 0.930 . S
C1981 N1983 1.279 . S
C1981 C1984 1.358 . S
C1981 H1987 0.930 . S
C1982 C1980 1.353 . S
C1982 C1985 1.348 . S
C1982 H2020 0.929 . S
N1983 Li1938 1.990 . S
N1983 C1980 1.314 . S
N1983 C1981 1.279 . S
C1984 C1981 1.358 . S
C1984 C1985 1.356 . S
C1984 H2021 0.930 . S
C1985 C1982 1.348 . S
C1985 C1984 1.356 . S
H1986 C1980 0.930 . S
H1987 C1981 0.930 . S
C1988 N1989 1.314 . S
C1988 C1990 1.353 . S
C1988 H1994 0.930 . S
N1989 Li1939 1.990 . S
N1989 C1988 1.314 . S
N1989 C1992 1.279 . S
C1990 C1988 1.353 . S
C1990 C1993 1.348 . S
C1990 H2022 0.929 . S
C1991 C1992 1.358 . S
C1991 C1993 1.356 . S
C1991 H2023 0.930 . S
C1992 N1989 1.279 . S
C1992 C1991 1.358 . S
C1992 H1995 0.930 . S
C1993 C1990 1.348 . S
C1993 C1991 1.356 . S
H1994 C1988 0.930 . S
H1995 C1992 0.930 . S
O1996 Li1936 1.956 . S
O1996 Li1937 1.970 . S
O1996 Li1938 1.961 . S
O1996 C1940 1.325 . S
O1997 Li1936 1.970 . S
O1997 Li1937 1.956 . S
O1997 Li1939 1.961 . S
O1997 C1946 1.325 . S
O1998 Li1936 1.961 . S
O1998 Li1938 1.956 . S
O1998 Li1939 1.970 . S
O1998 C1968 1.325 . S
O1999 Li1937 1.961 . S
O1999 Li1938 1.970 . S
O1999 Li1939 1.956 . S
O1999 C1974 1.325 . S
H2000 C1942 0.929 . S
H2001 C1943 0.930 . S
H2002 C1944 0.930 . S
H2003 C1945 0.930 . S
H2004 C1947 0.930 . S
H2005 C1949 0.929 . S
H2006 C1950 0.930 . S
H2007 C1951 0.930 . S
H2008 C1954 0.930 . S
H2009 C1957 0.929 . S
H2010 C1962 0.929 . S
H2011 C1963 0.930 . S
H2012 C1970 0.929 . S
H2013 C1971 0.930 . S
H2014 C1972 0.930 . S
H2015 C1973 0.930 . S
H2016 C1975 0.929 . S
H2017 C1976 0.930 . S
H2018 C1977 0.930 . S
H2019 C1978 0.930 . S
H2020 C1982 0.929 . S
H2021 C1984 0.930 . S
H2022 C1990 0.929 . S
H2023 C1991 0.930 . S
Li2024 N2041 1.990 . S
Li2024 O2084 1.956 . S
Li2024 O2085 1.970 . S
Li2024 O2086 1.961 . S
Li2025 N2049 1.990 . S
Li2025 O2084 1.970 . S
Li2025 O2085 1.956 . S
Li2025 O2087 1.961 . S
Li2026 N2071 1.990 . S
Li2026 O2084 1.961 . S
Li2026 O2086 1.956 . S
Li2026 O2087 1.970 . S
Li2027 N2077 1.990 . S
Li2027 O2085 1.961 . S
Li2027 O2086 1.970 . S
Li2027 O2087 1.956 . S
C2028 C2030 1.348 . S
C2028 C2031 1.356 . S
C2028 O2084 1.325 . S
N2029 C2032 1.314 . S
N2029 C2033 1.279 . S
C2030 C2028 1.348 . S
C2030 C2032 1.353 . S
C2030 H2088 0.929 . S
C2031 C2028 1.356 . S
C2031 C2033 1.358 . S
C2031 H2089 0.930 . S
C2032 N2029 1.314 . S
C2032 C2030 1.353 . S
C2032 H2090 0.930 . S
C2033 N2029 1.279 . S
C2033 C2031 1.358 . S
C2033 H2091 0.930 . S
C2034 C2037 1.348 . S
C2034 C2038 1.356 . S
C2034 O2085 1.325 . S
C2035 N2036 1.279 . S
C2035 C2038 1.358 . S
C2035 H2092 0.930 . S
N2036 C2035 1.279 . S
N2036 C2039 1.314 . S
C2037 C2034 1.348 . S
C2037 C2039 1.353 . S
C2037 H2093 0.929 . S
C2038 C2034 1.356 . S
C2038 C2035 1.358 . S
C2038 H2094 0.930 . S
C2039 N2036 1.314 . S
C2039 C2037 1.353 . S
C2039 H2095 0.930 . S
C2040 N2041 1.314 . S
C2040 C2045 1.353 . S
C2040 H2046 0.930 . S
N2041 Li2024 1.990 . S
N2041 C2040 1.314 . S
N2041 C2043 1.279 . S
C2042 C2043 1.358 . S
C2042 C2044 1.356 . S
C2042 H2096 0.930 . S
C2043 N2041 1.279 . S
C2043 C2042 1.358 . S
C2043 H2047 0.930 . S
C2044 C2042 1.356 . S
C2044 C2045 1.348 . S
C2045 C2040 1.353 . S
C2045 C2044 1.348 . S
C2045 H2097 0.929 . S
H2046 C2040 0.930 . S
H2047 C2043 0.930 . S
C2048 N2049 1.314 . S
C2048 C2050 1.353 . S
C2048 H2054 0.930 . S
N2049 Li2025 1.990 . S
N2049 C2048 1.314 . S
N2049 C2052 1.279 . S
C2050 C2048 1.353 . S
C2050 C2053 1.348 . S
C2050 H2098 0.929 . S
C2051 C2052 1.358 . S
C2051 C2053 1.356 . S
C2051 H2099 0.930 . S
C2052 N2049 1.279 . S
C2052 C2051 1.358 . S
C2052 H2055 0.930 . S
C2053 C2050 1.348 . S
C2053 C2051 1.356 . S
H2054 C2048 0.930 . S
H2055 C2052 0.930 . S
C2056 C2058 1.348 . S
C2056 C2059 1.356 . S
C2056 O2086 1.325 . S
N2057 C2060 1.314 . S
N2057 C2061 1.279 . S
C2058 C2056 1.348 . S
C2058 C2060 1.353 . S
C2058 H2100 0.929 . S
C2059 C2056 1.356 . S
C2059 C2061 1.358 . S
C2059 H2101 0.930 . S
C2060 N2057 1.314 . S
C2060 C2058 1.353 . S
C2060 H2102 0.930 . S
C2061 N2057 1.279 . S
C2061 C2059 1.358 . S
C2061 H2103 0.930 . S
C2062 C2063 1.348 . S
C2062 C2064 1.356 . S
C2062 O2087 1.325 . S
C2063 C2062 1.348 . S
C2063 C2065 1.353 . S
C2063 H2104 0.929 . S
C2064 C2062 1.356 . S
C2064 C2066 1.358 . S
C2064 H2105 0.930 . S
C2065 C2063 1.353 . S
C2065 N2067 1.314 . S
C2065 H2106 0.930 . S
C2066 C2064 1.358 . S
C2066 N2067 1.279 . S
C2066 H2107 0.930 . S
N2067 C2065 1.314 . S
N2067 C2066 1.279 . S
C2068 C2070 1.353 . S
C2068 N2071 1.314 . S
C2068 H2074 0.930 . S
C2069 N2071 1.279 . S
C2069 C2072 1.358 . S
C2069 H2075 0.930 . S
C2070 C2068 1.353 . S
C2070 C2073 1.348 . S
C2070 H2108 0.929 . S
N2071 Li2026 1.990 . S
N2071 C2068 1.314 . S
N2071 C2069 1.279 . S
C2072 C2069 1.358 . S
C2072 C2073 1.356 . S
C2072 H2109 0.930 . S
C2073 C2070 1.348 . S
C2073 C2072 1.356 . S
H2074 C2068 0.930 . S
H2075 C2069 0.930 . S
C2076 N2077 1.314 . S
C2076 C2078 1.353 . S
C2076 H2082 0.930 . S
N2077 Li2027 1.990 . S
N2077 C2076 1.314 . S
N2077 C2080 1.279 . S
C2078 C2076 1.353 . S
C2078 C2081 1.348 . S
C2078 H2110 0.929 . S
C2079 C2080 1.358 . S
C2079 C2081 1.356 . S
C2079 H2111 0.930 . S
C2080 N2077 1.279 . S
C2080 C2079 1.358 . S
C2080 H2083 0.930 . S
C2081 C2078 1.348 . S
C2081 C2079 1.356 . S
H2082 C2076 0.930 . S
H2083 C2080 0.930 . S
O2084 Li2024 1.956 . S
O2084 Li2025 1.970 . S
O2084 Li2026 1.961 . S
O2084 C2028 1.325 . S
O2085 Li2024 1.970 . S
O2085 Li2025 1.956 . S
O2085 Li2027 1.961 . S
O2085 C2034 1.325 . S
O2086 Li2024 1.961 . S
O2086 Li2026 1.956 . S
O2086 Li2027 1.970 . S
O2086 C2056 1.325 . S
O2087 Li2025 1.961 . S
O2087 Li2026 1.970 . S
O2087 Li2027 1.956 . S
O2087 C2062 1.325 . S
H2088 C2030 0.929 . S
H2089 C2031 0.930 . S
H2090 C2032 0.930 . S
H2091 C2033 0.930 . S
H2092 C2035 0.930 . S
H2093 C2037 0.929 . S
H2094 C2038 0.930 . S
H2095 C2039 0.930 . S
H2096 C2042 0.930 . S
H2097 C2045 0.929 . S
H2098 C2050 0.929 . S
H2099 C2051 0.930 . S
H2100 C2058 0.929 . S
H2101 C2059 0.930 . S
H2102 C2060 0.930 . S
H2103 C2061 0.930 . S
H2104 C2063 0.929 . S
H2105 C2064 0.930 . S
H2106 C2065 0.930 . S
H2107 C2066 0.930 . S
H2108 C2070 0.929 . S
H2109 C2072 0.930 . S
H2110 C2078 0.929 . S
H2111 C2079 0.930 . S
O2112 Mn2113 2.163 . S
O2112 C2126 1.244 1_554 S
Mn2113 O2112 2.163 . S
Mn2113 O2116 2.160 1_445 S
Mn2113 O2117 2.221 1_455 S
Mn2113 O2119 2.163 1_454 S
Mn2113 O2121 2.160 1_545 S
Mn2113 O2131 2.224 1_545 S
O2114 Mn2115 2.087 1_556 S
O2114 C2126 1.256 1_565 S
Mn2115 O2114 2.087 1_554 S
Mn2115 O2122 2.089 . S
Mn2115 O2131 2.295 . S
Mn2115 O2132 2.251 1_554 S
O2116 Mn2113 2.160 1_665 S
O2116 C2127 1.239 . S
O2117 Mn2113 2.221 1_655 S
O2117 Mn2118 2.290 1_554 S
O2117 C2128 1.278 . S
Mn2118 O2117 2.290 1_556 S
Mn2118 O2120 2.089 1_556 S
Mn2118 O2123 2.251 1_556 S
Mn2118 O2124 2.087 . S
O2119 Mn2113 2.163 1_656 S
O2119 C2129 1.244 . S
O2120 Mn2118 2.089 1_554 S
O2120 C2127 1.256 1_545 S
O2121 Mn2113 2.160 1_565 S
O2121 C2130 1.239 . S
O2122 Mn2115 2.089 . S
O2122 C2130 1.256 . S
O2123 Mn2118 2.251 1_554 S
O2123 C2128 1.241 . S
O2124 Mn2118 2.087 . S
O2124 C2129 1.256 . S
C2125 O2131 1.267 1_556 S
C2125 O2132 1.241 . S
C2126 O2112 1.244 1_556 S
C2126 O2114 1.256 1_545 S
C2127 O2116 1.239 . S
C2127 O2120 1.256 1_565 S
C2128 O2117 1.278 . S
C2128 O2123 1.241 . S
C2129 O2119 1.244 . S
C2129 O2124 1.256 . S
C2130 O2121 1.239 . S
C2130 O2122 1.256 . S
O2131 Mn2113 2.224 1_565 S
O2131 Mn2115 2.295 . S
O2131 C2125 1.267 1_554 S
O2132 Mn2115 2.251 1_556 S
O2132 C2125 1.241 . S
O2133 Mn2134 2.163 . S
O2133 C2147 1.244 . S
Mn2134 O2133 2.163 . S
Mn2134 O2137 2.160 . S
Mn2134 O2138 2.221 . S
Mn2134 O2140 2.163 . S
Mn2134 O2142 2.160 . S
Mn2134 O2152 2.221 . S
O2135 Mn2136 2.087 . S
O2135 C2147 1.256 . S
Mn2136 O2135 2.087 . S
Mn2136 O2143 2.089 . S
Mn2136 O2152 2.290 . S
Mn2136 O2153 2.251 . S
O2137 Mn2134 2.160 . S
O2137 C2148 1.239 . S
O2138 Mn2134 2.221 . S
O2138 Mn2139 2.290 . S
O2138 C2149 1.278 . S
Mn2139 O2138 2.290 . S
Mn2139 O2141 2.089 . S
Mn2139 O2144 2.251 . S
Mn2139 O2145 2.087 . S
O2140 Mn2134 2.163 . S
O2140 C2150 1.244 . S
O2141 Mn2139 2.089 . S
O2141 C2148 1.256 . S
O2142 Mn2134 2.160 . S
O2142 C2151 1.239 . S
O2143 Mn2136 2.089 . S
O2143 C2151 1.256 . S
O2144 Mn2139 2.251 . S
O2144 C2149 1.241 . S
O2145 Mn2139 2.087 . S
O2145 C2150 1.256 . S
C2146 O2152 1.278 . S
C2146 O2153 1.241 . S
C2147 O2133 1.244 . S
C2147 O2135 1.256 . S
C2148 O2137 1.239 . S
C2148 O2141 1.256 . S
C2149 O2138 1.278 . S
C2149 O2144 1.241 . S
C2150 O2140 1.244 . S
C2150 O2145 1.256 . S
C2151 O2142 1.239 . S
C2151 O2143 1.256 . S
O2152 Mn2134 2.221 . S
O2152 Mn2136 2.290 . S
O2152 C2146 1.278 . S
O2153 Mn2136 2.251 . S
O2153 C2146 1.241 . S
O2154 Mn2155 2.163 1_565 S
O2154 C2168 1.244 . S
Mn2155 O2154 2.163 1_545 S
Mn2155 O2158 2.160 . S
Mn2155 O2159 2.221 1_545 S
Mn2155 O2161 2.163 . S
Mn2155 O2163 2.160 . S
Mn2155 O2173 2.221 . S
O2156 Mn2157 2.087 . S
O2156 C2168 1.256 1_545 S
Mn2157 O2156 2.087 . S
Mn2157 O2164 2.089 . S
Mn2157 O2173 2.290 . S
Mn2157 O2174 2.251 . S
O2158 Mn2155 2.160 . S
O2158 C2169 1.239 . S
O2159 Mn2155 2.221 1_565 S
O2159 Mn2160 2.290 . S
O2159 C2170 1.278 . S
Mn2160 O2159 2.290 . S
Mn2160 O2162 2.089 1_565 S
Mn2160 O2165 2.251 . S
Mn2160 O2166 2.087 . S
O2161 Mn2155 2.163 . S
O2161 C2171 1.244 1_545 S
O2162 Mn2160 2.089 1_545 S
O2162 C2169 1.256 . S
O2163 Mn2155 2.160 . S
O2163 C2172 1.239 . S
O2164 Mn2157 2.089 . S
O2164 C2172 1.256 . S
O2165 Mn2160 2.251 . S
O2165 C2170 1.241 . S
O2166 Mn2160 2.087 . S
O2166 C2171 1.256 . S
C2167 O2173 1.278 . S
C2167 O2174 1.241 . S
C2168 O2154 1.244 . S
C2168 O2156 1.256 1_565 S
C2169 O2158 1.239 . S
C2169 O2162 1.256 . S
C2170 O2159 1.278 . S
C2170 O2165 1.241 . S
C2171 O2161 1.244 1_565 S
C2171 O2166 1.256 . S
C2172 O2163 1.239 . S
C2172 O2164 1.256 . S
O2173 Mn2155 2.221 . S
O2173 Mn2157 2.290 . S
O2173 C2167 1.278 . S
O2174 Mn2157 2.251 . S
O2174 C2167 1.241 . S
O2175 Mn2176 2.163 . S
O2175 C2189 1.244 . S
Mn2176 O2175 2.163 . S
Mn2176 O2179 2.160 . S
Mn2176 O2180 2.221 . S
Mn2176 O2182 2.163 . S
Mn2176 O2184 2.160 . S
Mn2176 O2194 2.221 . S
O2177 Mn2178 2.087 . S
O2177 C2189 1.256 . S
Mn2178 O2177 2.087 . S
Mn2178 O2185 2.089 . S
Mn2178 O2194 2.290 . S
Mn2178 O2195 2.251 . S
O2179 Mn2176 2.160 . S
O2179 C2190 1.239 . S
O2180 Mn2176 2.221 . S
O2180 Mn2181 2.290 . S
O2180 C2191 1.278 . S
Mn2181 O2180 2.290 . S
Mn2181 O2183 2.089 . S
Mn2181 O2186 2.251 . S
Mn2181 O2187 2.087 . S
O2182 Mn2176 2.163 . S
O2182 C2192 1.244 . S
O2183 Mn2181 2.089 . S
O2183 C2190 1.256 . S
O2184 Mn2176 2.160 . S
O2184 C2193 1.239 . S
O2185 Mn2178 2.089 . S
O2185 C2193 1.256 . S
O2186 Mn2181 2.251 . S
O2186 C2191 1.241 . S
O2187 Mn2181 2.087 . S
O2187 C2192 1.256 . S
C2188 O2194 1.278 . S
C2188 O2195 1.241 . S
C2189 O2175 1.244 . S
C2189 O2177 1.256 . S
C2190 O2179 1.239 . S
C2190 O2183 1.256 . S
C2191 O2180 1.278 . S
C2191 O2186 1.241 . S
C2192 O2182 1.244 . S
C2192 O2187 1.256 . S
C2193 O2184 1.239 . S
C2193 O2185 1.256 . S
O2194 Mn2176 2.221 . S
O2194 Mn2178 2.290 . S
O2194 C2188 1.278 . S
O2195 Mn2178 2.251 . S
O2195 C2188 1.241 . S
O2196 Mn2197 2.163 1_565 S
O2196 C2210 1.244 1_455 S
Mn2197 O2196 2.163 1_545 S
Mn2197 O2200 2.160 . S
Mn2197 O2201 2.221 . S
Mn2197 O2203 2.163 1_455 S
Mn2197 O2205 2.160 1_545 S
Mn2197 O2215 2.231 1_545 S
O2198 Mn2199 2.087 1_655 S
O2198 C2210 1.256 . S
Mn2199 O2198 2.087 1_455 S
Mn2199 O2206 2.089 . S
Mn2199 O2215 2.306 . S
Mn2199 O2216 2.251 1_455 S
O2200 Mn2197 2.160 . S
O2200 C2211 1.239 . S
O2201 Mn2197 2.221 . S
O2201 Mn2202 2.272 1_455 S
O2201 C2212 1.278 . S
Mn2202 O2201 2.272 1_655 S
Mn2202 O2204 2.084 1_655 S
Mn2202 O2207 2.245 1_655 S
Mn2202 O2208 2.120 . S
O2203 Mn2197 2.163 1_655 S
O2203 C2213 1.244 . S
O2204 Mn2202 2.084 1_455 S
O2204 C2211 1.256 . S
O2205 Mn2197 2.160 1_565 S
O2205 C2214 1.239 . S
O2206 Mn2199 2.089 . S
O2206 C2214 1.256 . S
O2207 Mn2202 2.245 1_455 S
O2207 C2212 1.241 . S
O2208 Mn2202 2.120 . S
O2208 C2213 1.256 . S
C2209 O2215 1.243 1_655 S
C2209 O2216 1.241 . S
C2210 O2196 1.244 1_655 S
C2210 O2198 1.256 . S
C2211 O2200 1.239 . S
C2211 O2204 1.256 . S
C2212 O2201 1.278 . S
C2212 O2207 1.241 . S
C2213 O2203 1.244 . S
C2213 O2208 1.256 . S
C2214 O2205 1.239 . S
C2214 O2206 1.256 . S
O2215 Mn2197 2.231 1_565 S
O2215 Mn2199 2.306 . S
O2215 C2209 1.243 1_455 S
O2216 Mn2199 2.251 1_655 S
O2216 C2209 1.241 . S
O2217 Mn2218 2.163 . S
O2217 C2231 1.244 . S
Mn2218 O2217 2.163 . S
Mn2218 O2221 2.160 . S
Mn2218 O2222 2.221 . S
Mn2218 O2224 2.163 . S
Mn2218 O2226 2.160 . S
Mn2218 O2236 2.221 . S
O2219 Mn2220 2.087 . S
O2219 C2231 1.256 . S
Mn2220 O2219 2.087 . S
Mn2220 O2227 2.089 . S
Mn2220 O2236 2.290 . S
Mn2220 O2237 2.251 . S
O2221 Mn2218 2.160 . S
O2221 C2232 1.239 . S
O2222 Mn2218 2.221 . S
O2222 Mn2223 2.290 . S
O2222 C2233 1.278 . S
Mn2223 O2222 2.290 . S
Mn2223 O2225 2.089 . S
Mn2223 O2228 2.251 . S
Mn2223 O2229 2.087 . S
O2224 Mn2218 2.163 . S
O2224 C2234 1.244 . S
O2225 Mn2223 2.089 . S
O2225 C2232 1.256 . S
O2226 Mn2218 2.160 . S
O2226 C2235 1.239 . S
O2227 Mn2220 2.089 . S
O2227 C2235 1.256 . S
O2228 Mn2223 2.251 . S
O2228 C2233 1.241 . S
O2229 Mn2223 2.087 . S
O2229 C2234 1.256 . S
C2230 O2236 1.278 . S
C2230 O2237 1.241 . S
C2231 O2217 1.244 . S
C2231 O2219 1.256 . S
C2232 O2221 1.239 . S
C2232 O2225 1.256 . S
C2233 O2222 1.278 . S
C2233 O2228 1.241 . S
C2234 O2224 1.244 . S
C2234 O2229 1.256 . S
C2235 O2226 1.239 . S
C2235 O2227 1.256 . S
O2236 Mn2218 2.221 . S
O2236 Mn2220 2.290 . S
O2236 C2230 1.278 . S
O2237 Mn2220 2.251 . S
O2237 C2230 1.241 . S
O2238 Mn2239 2.164 1_556 S
O2238 C2252 1.243 1_545 S
Mn2239 O2238 2.164 1_554 S
Mn2239 O2242 2.160 . S
Mn2239 O2243 2.221 . S
Mn2239 O2245 2.163 1_545 S
Mn2239 O2247 2.160 1_554 S
Mn2239 O2257 2.221 1_544 S
O2240 Mn2241 2.087 1_565 S
O2240 C2252 1.256 . S
Mn2241 O2240 2.087 1_545 S
Mn2241 O2248 2.089 . S
Mn2241 O2257 2.290 1_545 S
Mn2241 O2258 2.251 1_545 S
O2242 Mn2239 2.160 . S
O2242 C2253 1.239 . S
O2243 Mn2239 2.221 . S
O2243 Mn2244 2.290 1_545 S
O2243 C2254 1.278 . S
Mn2244 O2243 2.290 1_565 S
Mn2244 O2246 2.089 1_565 S
Mn2244 O2249 2.251 1_565 S
Mn2244 O2250 2.087 . S
O2245 Mn2239 2.163 1_565 S
O2245 C2255 1.244 . S
O2246 Mn2244 2.089 1_545 S
O2246 C2253 1.256 . S
O2247 Mn2239 2.160 1_556 S
O2247 C2256 1.239 . S
O2248 Mn2241 2.089 . S
O2248 C2256 1.256 . S
O2249 Mn2244 2.251 1_545 S
O2249 C2254 1.241 . S
O2250 Mn2244 2.087 . S
O2250 C2255 1.256 . S
C2251 O2257 1.278 . S
C2251 O2258 1.241 . S
C2252 O2238 1.243 1_565 S
C2252 O2240 1.256 . S
C2253 O2242 1.239 . S
C2253 O2246 1.256 . S
C2254 O2243 1.278 . S
C2254 O2249 1.241 . S
C2255 O2245 1.244 . S
C2255 O2250 1.256 . S
C2256 O2247 1.239 . S
C2256 O2248 1.256 . S
O2257 Mn2239 2.221 1_566 S
O2257 Mn2241 2.290 1_565 S
O2257 C2251 1.278 . S
O2258 Mn2241 2.251 1_565 S
O2258 C2251 1.241 . S
O2259 Mn2260 2.163 . S
O2259 C2273 1.244 . S
Mn2260 O2259 2.163 . S
Mn2260 O2263 2.160 . S
Mn2260 O2264 2.221 . S
Mn2260 O2266 2.163 . S
Mn2260 O2268 2.160 . S
Mn2260 O2278 2.221 . S
O2261 Mn2262 2.087 . S
O2261 C2273 1.256 . S
Mn2262 O2261 2.087 . S
Mn2262 O2269 2.089 . S
Mn2262 O2278 2.290 . S
Mn2262 O2279 2.251 . S
O2263 Mn2260 2.160 . S
O2263 C2274 1.239 . S
O2264 Mn2260 2.221 . S
O2264 Mn2265 2.290 . S
O2264 C2275 1.278 . S
Mn2265 O2264 2.290 . S
Mn2265 O2267 2.089 . S
Mn2265 O2270 2.251 . S
Mn2265 O2271 2.087 . S
O2266 Mn2260 2.163 . S
O2266 C2276 1.244 . S
O2267 Mn2265 2.089 . S
O2267 C2274 1.256 . S
O2268 Mn2260 2.160 . S
O2268 C2277 1.239 . S
O2269 Mn2262 2.089 . S
O2269 C2277 1.256 . S
O2270 Mn2265 2.251 . S
O2270 C2275 1.241 . S
O2271 Mn2265 2.087 . S
O2271 C2276 1.256 . S
C2272 O2278 1.278 . S
C2272 O2279 1.241 . S
C2273 O2259 1.244 . S
C2273 O2261 1.256 . S
C2274 O2263 1.239 . S
C2274 O2267 1.256 . S
C2275 O2264 1.278 . S
C2275 O2270 1.241 . S
C2276 O2266 1.244 . S
C2276 O2271 1.256 . S
C2277 O2268 1.239 . S
C2277 O2269 1.256 . S
O2278 Mn2260 2.221 . S
O2278 Mn2262 2.290 . S
O2278 C2272 1.278 . S
O2279 Mn2262 2.251 . S
O2279 C2272 1.241 . S
O2280 Mn2281 2.163 1_556 S
O2280 C2294 1.244 . S
Mn2281 O2280 2.163 1_554 S
Mn2281 O2284 2.160 . S
Mn2281 O2285 2.221 1_554 S
Mn2281 O2287 2.163 . S
Mn2281 O2289 2.160 . S
Mn2281 O2299 2.221 . S
O2282 Mn2283 2.087 . S
O2282 C2294 1.256 1_554 S
Mn2283 O2282 2.087 . S
Mn2283 O2290 2.089 . S
Mn2283 O2299 2.290 . S
Mn2283 O2300 2.251 . S
O2284 Mn2281 2.160 . S
O2284 C2295 1.239 . S
O2285 Mn2281 2.221 1_556 S
O2285 Mn2286 2.290 . S
O2285 C2296 1.278 . S
Mn2286 O2285 2.290 . S
Mn2286 O2288 2.089 1_556 S
Mn2286 O2291 2.251 . S
Mn2286 O2292 2.087 . S
O2287 Mn2281 2.163 . S
O2287 C2297 1.244 1_554 S
O2288 Mn2286 2.089 1_554 S
O2288 C2295 1.256 . S
O2289 Mn2281 2.160 . S
O2289 C2298 1.239 . S
O2290 Mn2283 2.089 . S
O2290 C2298 1.256 . S
O2291 Mn2286 2.251 . S
O2291 C2296 1.241 . S
O2292 Mn2286 2.087 . S
O2292 C2297 1.256 . S
C2293 O2299 1.278 . S
C2293 O2300 1.241 . S
C2294 O2280 1.244 . S
C2294 O2282 1.256 1_556 S
C2295 O2284 1.239 . S
C2295 O2288 1.256 . S
C2296 O2285 1.278 . S
C2296 O2291 1.241 . S
C2297 O2287 1.244 1_556 S
C2297 O2292 1.256 . S
C2298 O2289 1.239 . S
C2298 O2290 1.256 . S
O2299 Mn2281 2.221 . S
O2299 Mn2283 2.290 . S
O2299 C2293 1.278 . S
O2300 Mn2283 2.251 . S
O2300 C2293 1.241 . S
O2301 Mn2302 2.163 . S
O2301 C2315 1.244 . S
Mn2302 O2301 2.163 . S
Mn2302 O2305 2.160 . S
Mn2302 O2306 2.221 . S
Mn2302 O2308 2.163 . S
Mn2302 O2310 2.160 . S
Mn2302 O2320 2.221 . S
O2303 Mn2304 2.087 . S
O2303 C2315 1.256 . S
Mn2304 O2303 2.087 . S
Mn2304 O2311 2.089 . S
Mn2304 O2320 2.290 . S
Mn2304 O2321 2.251 . S
O2305 Mn2302 2.160 . S
O2305 C2316 1.239 . S
O2306 Mn2302 2.221 . S
O2306 Mn2307 2.290 . S
O2306 C2317 1.278 . S
Mn2307 O2306 2.290 . S
Mn2307 O2309 2.089 . S
Mn2307 O2312 2.251 . S
Mn2307 O2313 2.087 . S
O2308 Mn2302 2.163 . S
O2308 C2318 1.244 . S
O2309 Mn2307 2.089 . S
O2309 C2316 1.256 . S
O2310 Mn2302 2.160 . S
O2310 C2319 1.239 . S
O2311 Mn2304 2.089 . S
O2311 C2319 1.256 . S
O2312 Mn2307 2.251 . S
O2312 C2317 1.241 . S
O2313 Mn2307 2.087 . S
O2313 C2318 1.256 . S
C2314 O2320 1.278 . S
C2314 O2321 1.241 . S
C2315 O2301 1.244 . S
C2315 O2303 1.256 . S
C2316 O2305 1.239 . S
C2316 O2309 1.256 . S
C2317 O2306 1.278 . S
C2317 O2312 1.241 . S
C2318 O2308 1.244 . S
C2318 O2313 1.256 . S
C2319 O2310 1.239 . S
C2319 O2311 1.256 . S
O2320 Mn2302 2.221 . S
O2320 Mn2304 2.290 . S
O2320 C2314 1.278 . S
O2321 Mn2304 2.251 . S
O2321 C2314 1.241 . S
O2322 Mn2323 2.163 1_655 S
O2322 C2336 1.244 . S
Mn2323 O2322 2.163 1_455 S
Mn2323 O2326 2.160 . S
Mn2323 O2327 2.221 1_455 S
Mn2323 O2329 2.163 . S
Mn2323 O2331 2.160 . S
Mn2323 O2341 2.221 . S
O2324 Mn2325 2.087 . S
O2324 C2336 1.256 1_455 S
Mn2325 O2324 2.087 . S
Mn2325 O2332 2.089 . S
Mn2325 O2341 2.290 . S
Mn2325 O2342 2.251 . S
O2326 Mn2323 2.160 . S
O2326 C2337 1.239 . S
O2327 Mn2323 2.221 1_655 S
O2327 Mn2328 2.290 . S
O2327 C2338 1.278 . S
Mn2328 O2327 2.290 . S
Mn2328 O2330 2.089 1_655 S
Mn2328 O2333 2.251 . S
Mn2328 O2334 2.087 . S
O2329 Mn2323 2.163 . S
O2329 C2339 1.244 1_455 S
O2330 Mn2328 2.089 1_455 S
O2330 C2337 1.256 . S
O2331 Mn2323 2.160 . S
O2331 C2340 1.239 . S
O2332 Mn2325 2.089 . S
O2332 C2340 1.256 . S
O2333 Mn2328 2.251 . S
O2333 C2338 1.241 . S
O2334 Mn2328 2.087 . S
O2334 C2339 1.256 . S
C2335 O2341 1.278 . S
C2335 O2342 1.241 . S
C2336 O2322 1.244 . S
C2336 O2324 1.256 1_655 S
C2337 O2326 1.239 . S
C2337 O2330 1.256 . S
C2338 O2327 1.278 . S
C2338 O2333 1.241 . S
C2339 O2329 1.244 1_655 S
C2339 O2334 1.256 . S
C2340 O2331 1.239 . S
C2340 O2332 1.256 . S
O2341 Mn2323 2.221 . S
O2341 Mn2325 2.290 . S
O2341 C2335 1.278 . S
O2342 Mn2325 2.251 . S
O2342 C2335 1.241 . S
O2343 Mn2344 2.163 . S
O2343 C2357 1.244 . S
Mn2344 O2343 2.163 . S
Mn2344 O2347 2.160 . S
Mn2344 O2348 2.221 . S
Mn2344 O2350 2.163 . S
Mn2344 O2352 2.160 . S
Mn2344 O2362 2.221 . S
O2345 Mn2346 2.087 . S
O2345 C2357 1.256 . S
Mn2346 O2345 2.087 . S
Mn2346 O2353 2.089 . S
Mn2346 O2362 2.290 . S
Mn2346 O2363 2.251 . S
O2347 Mn2344 2.160 . S
O2347 C2358 1.239 . S
O2348 Mn2344 2.221 . S
O2348 Mn2349 2.290 . S
O2348 C2359 1.278 . S
Mn2349 O2348 2.290 . S
Mn2349 O2351 2.089 . S
Mn2349 O2354 2.251 . S
Mn2349 O2355 2.087 . S
O2350 Mn2344 2.163 . S
O2350 C2360 1.244 . S
O2351 Mn2349 2.089 . S
O2351 C2358 1.256 . S
O2352 Mn2344 2.160 . S
O2352 C2361 1.239 . S
O2353 Mn2346 2.089 . S
O2353 C2361 1.256 . S
O2354 Mn2349 2.251 . S
O2354 C2359 1.241 . S
O2355 Mn2349 2.087 . S
O2355 C2360 1.256 . S
C2356 O2362 1.278 . S
C2356 O2363 1.241 . S
C2357 O2343 1.244 . S
C2357 O2345 1.256 . S
C2358 O2347 1.239 . S
C2358 O2351 1.256 . S
C2359 O2348 1.278 . S
C2359 O2354 1.241 . S
C2360 O2350 1.244 . S
C2360 O2355 1.256 . S
C2361 O2352 1.239 . S
C2361 O2353 1.256 . S
O2362 Mn2344 2.221 . S
O2362 Mn2346 2.290 . S
O2362 C2356 1.278 . S
O2363 Mn2346 2.251 . S
O2363 C2356 1.241 . S
O2364 Mn2365 2.163 . S
O2364 C2378 1.244 . S
Mn2365 O2364 2.163 . S
Mn2365 O2368 2.160 . S
Mn2365 O2369 2.221 . S
Mn2365 O2371 2.163 . S
Mn2365 O2373 2.160 . S
Mn2365 O2383 2.221 . S
O2366 Mn2367 2.087 . S
O2366 C2378 1.256 . S
Mn2367 O2366 2.087 . S
Mn2367 O2374 2.089 . S
Mn2367 O2383 2.290 . S
Mn2367 O2384 2.251 . S
O2368 Mn2365 2.160 . S
O2368 C2379 1.239 . S
O2369 Mn2365 2.221 . S
O2369 Mn2370 2.290 . S
O2369 C2380 1.278 . S
Mn2370 O2369 2.290 . S
Mn2370 O2372 2.089 . S
Mn2370 O2375 2.251 . S
Mn2370 O2376 2.087 . S
O2371 Mn2365 2.163 . S
O2371 C2381 1.244 . S
O2372 Mn2370 2.089 . S
O2372 C2379 1.256 . S
O2373 Mn2365 2.160 . S
O2373 C2382 1.239 . S
O2374 Mn2367 2.089 . S
O2374 C2382 1.256 . S
O2375 Mn2370 2.251 . S
O2375 C2380 1.241 . S
O2376 Mn2370 2.087 . S
O2376 C2381 1.256 . S
C2377 O2383 1.278 . S
C2377 O2384 1.241 . S
C2378 O2364 1.244 . S
C2378 O2366 1.256 . S
C2379 O2368 1.239 . S
C2379 O2372 1.256 . S
C2380 O2369 1.278 . S
C2380 O2375 1.241 . S
C2381 O2371 1.244 . S
C2381 O2376 1.256 . S
C2382 O2373 1.239 . S
C2382 O2374 1.256 . S
O2383 Mn2365 2.221 . S
O2383 Mn2367 2.290 . S
O2383 C2377 1.278 . S
O2384 Mn2367 2.251 . S
O2384 C2377 1.241 . S
O2385 Mn2386 2.163 . S
O2385 C2399 1.244 . S
Mn2386 O2385 2.163 . S
Mn2386 O2389 2.160 . S
Mn2386 O2390 2.221 . S
Mn2386 O2392 2.163 . S
Mn2386 O2394 2.160 . S
Mn2386 O2404 2.221 . S
O2387 Mn2388 2.087 . S
O2387 C2399 1.256 . S
Mn2388 O2387 2.087 . S
Mn2388 O2395 2.089 . S
Mn2388 O2404 2.290 . S
Mn2388 O2405 2.251 . S
O2389 Mn2386 2.160 . S
O2389 C2400 1.239 . S
O2390 Mn2386 2.221 . S
O2390 Mn2391 2.290 . S
O2390 C2401 1.278 . S
Mn2391 O2390 2.290 . S
Mn2391 O2393 2.089 . S
Mn2391 O2396 2.251 . S
Mn2391 O2397 2.087 . S
O2392 Mn2386 2.163 . S
O2392 C2402 1.244 . S
O2393 Mn2391 2.089 . S
O2393 C2400 1.256 . S
O2394 Mn2386 2.160 . S
O2394 C2403 1.239 . S
O2395 Mn2388 2.089 . S
O2395 C2403 1.256 . S
O2396 Mn2391 2.251 . S
O2396 C2401 1.241 . S
O2397 Mn2391 2.087 . S
O2397 C2402 1.256 . S
C2398 O2404 1.278 . S
C2398 O2405 1.241 . S
C2399 O2385 1.244 . S
C2399 O2387 1.256 . S
C2400 O2389 1.239 . S
C2400 O2393 1.256 . S
C2401 O2390 1.278 . S
C2401 O2396 1.241 . S
C2402 O2392 1.244 . S
C2402 O2397 1.256 . S
C2403 O2394 1.239 . S
C2403 O2395 1.256 . S
O2404 Mn2386 2.221 . S
O2404 Mn2388 2.290 . S
O2404 C2398 1.278 . S
O2405 Mn2388 2.251 . S
O2405 C2398 1.241 . S
O2406 Mn2407 2.163 . S
O2406 C2420 1.244 . S
Mn2407 O2406 2.163 . S
Mn2407 O2410 2.160 . S
Mn2407 O2411 2.221 . S
Mn2407 O2413 2.163 . S
Mn2407 O2415 2.160 . S
Mn2407 O2425 2.221 . S
O2408 Mn2409 2.087 . S
O2408 C2420 1.256 . S
Mn2409 O2408 2.087 . S
Mn2409 O2416 2.089 . S
Mn2409 O2425 2.290 . S
Mn2409 O2426 2.251 . S
O2410 Mn2407 2.160 . S
O2410 C2421 1.239 . S
O2411 Mn2407 2.221 . S
O2411 Mn2412 2.290 . S
O2411 C2422 1.278 . S
Mn2412 O2411 2.290 . S
Mn2412 O2414 2.089 . S
Mn2412 O2417 2.251 . S
Mn2412 O2418 2.087 . S
O2413 Mn2407 2.163 . S
O2413 C2423 1.244 . S
O2414 Mn2412 2.089 . S
O2414 C2421 1.256 . S
O2415 Mn2407 2.160 . S
O2415 C2424 1.239 . S
O2416 Mn2409 2.089 . S
O2416 C2424 1.256 . S
O2417 Mn2412 2.251 . S
O2417 C2422 1.241 . S
O2418 Mn2412 2.087 . S
O2418 C2423 1.256 . S
C2419 O2425 1.278 . S
C2419 O2426 1.241 . S
C2420 O2406 1.244 . S
C2420 O2408 1.256 . S
C2421 O2410 1.239 . S
C2421 O2414 1.256 . S
C2422 O2411 1.278 . S
C2422 O2417 1.241 . S
C2423 O2413 1.244 . S
C2423 O2418 1.256 . S
C2424 O2415 1.239 . S
C2424 O2416 1.256 . S
O2425 Mn2407 2.221 . S
O2425 Mn2409 2.290 . S
O2425 C2419 1.278 . S
O2426 Mn2409 2.251 . S
O2426 C2419 1.241 . S
O2427 Mn2428 2.162 1_656 S
O2427 C2441 1.245 . S
Mn2428 O2427 2.162 1_454 S
Mn2428 O2431 2.160 . S
Mn2428 O2432 2.221 . S
Mn2428 O2434 2.163 1_554 S
Mn2428 O2436 2.160 1_455 S
Mn2428 O2446 2.221 1_454 S
O2429 Mn2430 2.087 1_556 S
O2429 C2441 1.256 . S
Mn2430 O2429 2.087 1_554 S
Mn2430 O2437 2.089 . S
Mn2430 O2446 2.290 1_554 S
Mn2430 O2447 2.251 1_554 S
O2431 Mn2428 2.160 . S
O2431 C2442 1.239 . S
O2432 Mn2428 2.221 . S
O2432 Mn2433 2.290 1_554 S
O2432 C2443 1.278 . S
Mn2433 O2432 2.290 1_556 S
Mn2433 O2435 2.085 1_556 S
Mn2433 O2438 2.251 1_556 S
Mn2433 O2439 2.087 . S
O2434 Mn2428 2.163 1_556 S
O2434 C2444 1.244 . S
O2435 Mn2433 2.085 1_554 S
O2435 C2442 1.271 . S
O2436 Mn2428 2.160 1_655 S
O2436 C2445 1.239 . S
O2437 Mn2430 2.089 . S
O2437 C2445 1.256 . S
O2438 Mn2433 2.251 1_554 S
O2438 C2443 1.241 . S
O2439 Mn2433 2.087 . S
O2439 C2444 1.256 . S
C2440 O2446 1.278 . S
C2440 O2447 1.241 . S
C2441 O2427 1.245 . S
C2441 O2429 1.256 . S
C2442 O2431 1.239 . S
C2442 O2435 1.271 . S
C2443 O2432 1.278 . S
C2443 O2438 1.241 . S
C2444 O2434 1.244 . S
C2444 O2439 1.256 . S
C2445 O2436 1.239 . S
C2445 O2437 1.256 . S
O2446 Mn2428 2.221 1_656 S
O2446 Mn2430 2.290 1_556 S
O2446 C2440 1.278 . S
O2447 Mn2430 2.251 1_556 S
O2447 C2440 1.241 . S
C2448 C2449 1.363 1_655 S
C2448 C2454 1.379 . S
C2448 N2456 1.356 . S
C2449 C2448 1.363 1_455 S
C2449 C2455 1.363 . S
C2450 C2451 1.363 1_455 S
C2450 C2455 1.379 . S
C2450 N2457 1.356 . S
C2451 C2450 1.363 1_655 S
C2451 C2454 1.363 . S
N2452 C2454 1.356 . S
N2452 H2464 0.984 . S
N2452 H2465 0.985 . S
N2453 C2455 1.356 . S
N2453 H2458 0.984 . S
N2453 H2459 0.985 . S
C2454 C2448 1.379 . S
C2454 C2451 1.363 . S
C2454 N2452 1.356 . S
C2455 C2449 1.363 . S
C2455 C2450 1.379 . S
C2455 N2453 1.356 . S
N2456 C2448 1.356 . S
N2456 H2462 0.984 . S
N2456 H2463 0.984 . S
N2457 C2450 1.356 . S
N2457 H2460 0.984 . S
N2457 H2461 0.985 1_554 S
H2458 N2453 0.984 . S
H2459 N2453 0.985 . S
H2460 N2457 0.984 . S
H2461 N2457 0.985 1_556 S
H2462 N2456 0.984 . S
H2463 N2456 0.984 . S
H2464 N2452 0.984 . S
H2465 N2452 0.985 . S
C2466 C2467 1.363 . S
C2466 C2472 1.379 . S
C2466 N2474 1.356 . S
C2467 C2466 1.363 . S
C2467 C2473 1.363 . S
C2468 C2469 1.363 . S
C2468 C2473 1.379 . S
C2468 N2475 1.356 . S
C2469 C2468 1.363 . S
C2469 C2472 1.363 . S
N2470 C2472 1.356 . S
N2470 H2482 0.984 . S
N2470 H2483 0.985 . S
N2471 C2473 1.356 . S
N2471 H2476 0.984 . S
N2471 H2477 0.985 . S
C2472 C2466 1.379 . S
C2472 C2469 1.363 . S
C2472 N2470 1.356 . S
C2473 C2467 1.363 . S
C2473 C2468 1.379 . S
C2473 N2471 1.356 . S
N2474 C2466 1.356 . S
N2474 H2480 0.984 . S
N2474 H2481 0.984 . S
N2475 C2468 1.356 . S
N2475 H2478 0.984 . S
N2475 H2479 0.985 . S
H2476 N2471 0.984 . S
H2477 N2471 0.985 . S
H2478 N2475 0.984 . S
H2479 N2475 0.985 . S
H2480 N2474 0.984 . S
H2481 N2474 0.984 . S
H2482 N2470 0.984 . S
H2483 N2470 0.985 . S
C2484 C2485 1.363 . S
C2484 C2490 1.379 . S
C2484 N2492 1.356 . S
C2485 C2484 1.363 . S
C2485 C2491 1.363 . S
C2486 C2487 1.363 . S
C2486 C2491 1.379 . S
C2486 N2493 1.356 . S
C2487 C2486 1.363 . S
C2487 C2490 1.363 . S
N2488 C2490 1.356 . S
N2488 H2500 0.984 . S
N2488 H2501 0.985 . S
N2489 C2491 1.356 . S
N2489 H2494 0.984 . S
N2489 H2495 0.985 . S
C2490 C2484 1.379 . S
C2490 C2487 1.363 . S
C2490 N2488 1.356 . S
C2491 C2485 1.363 . S
C2491 C2486 1.379 . S
C2491 N2489 1.356 . S
N2492 C2484 1.356 . S
N2492 H2498 0.984 . S
N2492 H2499 0.984 . S
N2493 C2486 1.356 . S
N2493 H2496 0.984 . S
N2493 H2497 0.985 . S
H2494 N2489 0.984 . S
H2495 N2489 0.985 . S
H2496 N2493 0.984 . S
H2497 N2493 0.985 . S
H2498 N2492 0.984 . S
H2499 N2492 0.984 . S
H2500 N2488 0.984 . S
H2501 N2488 0.985 . S
C2502 C2503 1.363 . S
C2502 C2508 1.379 . S
C2502 N2510 1.356 . S
C2503 C2502 1.363 . S
C2503 C2509 1.363 . S
C2504 C2505 1.363 . S
C2504 C2509 1.379 . S
C2504 N2511 1.356 . S
C2505 C2504 1.363 . S
C2505 C2508 1.363 . S
N2506 C2508 1.356 . S
N2506 H2518 0.984 . S
N2506 H2519 0.985 . S
N2507 C2509 1.356 . S
N2507 H2512 0.984 . S
N2507 H2513 0.985 . S
C2508 C2502 1.379 . S
C2508 C2505 1.363 . S
C2508 N2506 1.356 . S
C2509 C2503 1.363 . S
C2509 C2504 1.379 . S
C2509 N2507 1.356 . S
N2510 C2502 1.356 . S
N2510 H2516 0.984 . S
N2510 H2517 0.984 . S
N2511 C2504 1.356 . S
N2511 H2514 0.984 . S
N2511 H2515 0.985 . S
H2512 N2507 0.984 . S
H2513 N2507 0.985 . S
H2514 N2511 0.984 . S
H2515 N2511 0.985 . S
H2516 N2510 0.984 . S
H2517 N2510 0.984 . S
H2518 N2506 0.984 . S
H2519 N2506 0.985 . S
C2520 C2521 1.363 . S
C2520 C2526 1.379 . S
C2520 N2528 1.356 . S
C2521 C2520 1.363 . S
C2521 C2527 1.363 1_455 S
C2522 C2523 1.361 1_655 S
C2522 C2527 1.379 . S
C2522 N2529 1.356 . S
C2523 C2522 1.361 1_455 S
C2523 C2526 1.365 . S
N2524 C2526 1.356 . S
N2524 H2536 0.984 . S
N2524 H2537 0.985 . S
N2525 C2527 1.356 . S
N2525 H2530 0.984 . S
N2525 H2531 0.985 . S
C2526 C2520 1.379 . S
C2526 C2523 1.365 . S
C2526 N2524 1.356 . S
C2527 C2521 1.363 1_655 S
C2527 C2522 1.379 . S
C2527 N2525 1.356 . S
N2528 C2520 1.356 . S
N2528 H2534 0.984 . S
N2528 H2535 0.984 . S
N2529 C2522 1.356 . S
N2529 H2532 0.984 . S
N2529 H2533 0.985 . S
H2530 N2525 0.984 . S
H2531 N2525 0.985 . S
H2532 N2529 0.984 . S
H2533 N2529 0.985 . S
H2534 N2528 0.984 . S
H2535 N2528 0.984 . S
H2536 N2524 0.984 . S
H2537 N2524 0.985 . S
C2538 C2539 1.363 . S
C2538 C2544 1.379 . S
C2538 N2546 1.356 . S
C2539 C2538 1.363 . S
C2539 C2545 1.363 . S
C2540 C2541 1.363 . S
C2540 C2545 1.379 . S
C2540 N2547 1.356 . S
C2541 C2540 1.363 . S
C2541 C2544 1.363 . S
N2542 C2544 1.356 . S
N2542 H2554 0.984 . S
N2542 H2555 0.985 . S
N2543 C2545 1.356 . S
N2543 H2548 0.984 . S
N2543 H2549 0.985 . S
C2544 C2538 1.379 . S
C2544 C2541 1.363 . S
C2544 N2542 1.356 . S
C2545 C2539 1.363 . S
C2545 C2540 1.379 . S
C2545 N2543 1.356 . S
N2546 C2538 1.356 . S
N2546 H2552 0.984 . S
N2546 H2553 0.984 . S
N2547 C2540 1.356 . S
N2547 H2550 0.984 . S
N2547 H2551 0.985 . S
H2548 N2543 0.984 . S
H2549 N2543 0.985 . S
H2550 N2547 0.984 . S
H2551 N2547 0.985 . S
H2552 N2546 0.984 . S
H2553 N2546 0.984 . S
H2554 N2542 0.984 . S
H2555 N2542 0.985 . S
C2556 C2557 1.363 . S
C2556 C2562 1.379 . S
C2556 N2564 1.356 . S
C2557 C2556 1.363 . S
C2557 C2563 1.363 . S
C2558 C2559 1.363 . S
C2558 C2563 1.379 . S
C2558 N2565 1.356 . S
C2559 C2558 1.363 . S
C2559 C2562 1.363 . S
N2560 C2562 1.356 1_554 S
N2560 H2572 0.984 . S
N2560 H2573 0.985 . S
N2561 C2563 1.356 . S
N2561 H2566 0.984 . S
N2561 H2567 0.985 . S
C2562 C2556 1.379 . S
C2562 C2559 1.363 . S
C2562 N2560 1.356 1_556 S
C2563 C2557 1.363 . S
C2563 C2558 1.379 . S
C2563 N2561 1.356 . S
N2564 C2556 1.356 . S
N2564 H2570 0.984 1_556 S
N2564 H2571 0.984 . S
N2565 C2558 1.356 . S
N2565 H2568 0.984 . S
N2565 H2569 0.985 . S
H2566 N2561 0.984 . S
H2567 N2561 0.985 . S
H2568 N2565 0.984 . S
H2569 N2565 0.985 . S
H2570 N2564 0.984 1_554 S
H2571 N2564 0.984 . S
H2572 N2560 0.984 . S
H2573 N2560 0.985 . S
C2574 C2575 1.363 . S
C2574 C2580 1.379 . S
C2574 N2582 1.356 . S
C2575 C2574 1.363 . S
C2575 C2581 1.363 . S
C2576 C2577 1.363 . S
C2576 C2581 1.379 . S
C2576 N2583 1.356 . S
C2577 C2576 1.363 . S
C2577 C2580 1.363 . S
N2578 C2580 1.356 . S
N2578 H2590 0.984 . S
N2578 H2591 0.985 . S
N2579 C2581 1.356 . S
N2579 H2584 0.984 . S
N2579 H2585 0.985 . S
C2580 C2574 1.379 . S
C2580 C2577 1.363 . S
C2580 N2578 1.356 . S
C2581 C2575 1.363 . S
C2581 C2576 1.379 . S
C2581 N2579 1.356 . S
N2582 C2574 1.356 . S
N2582 H2588 0.984 . S
N2582 H2589 0.984 . S
N2583 C2576 1.356 . S
N2583 H2586 0.984 . S
N2583 H2587 0.985 . S
H2584 N2579 0.984 . S
H2585 N2579 0.985 . S
H2586 N2583 0.984 . S
H2587 N2583 0.985 . S
H2588 N2582 0.984 . S
H2589 N2582 0.984 . S
H2590 N2578 0.984 . S
H2591 N2578 0.985 . S
C2592 C2593 1.384 . S
C2592 C2598 1.379 . S
C2592 N2600 1.356 . S
C2593 C2592 1.384 . S
C2593 C2599 1.338 1_545 S
C2594 C2595 1.363 . S
C2594 C2599 1.379 . S
C2594 N2601 1.356 . S
C2595 C2594 1.363 . S
C2595 C2598 1.363 1_565 S
N2596 C2598 1.356 . S
N2596 H2608 0.984 . S
N2596 H2609 0.985 . S
N2597 C2599 1.356 . S
N2597 H2602 0.984 . S
N2597 H2603 0.985 . S
C2598 C2592 1.379 . S
C2598 C2595 1.363 1_545 S
C2598 N2596 1.356 . S
C2599 C2593 1.338 1_565 S
C2599 C2594 1.379 . S
C2599 N2597 1.356 . S
N2600 C2592 1.356 . S
N2600 H2606 0.984 . S
N2600 H2607 0.984 . S
N2601 C2594 1.356 . S
N2601 H2604 0.984 . S
N2601 H2605 0.985 . S
H2602 N2597 0.984 . S
H2603 N2597 0.985 . S
H2604 N2601 0.984 . S
H2605 N2601 0.985 . S
H2606 N2600 0.984 . S
H2607 N2600 0.984 . S
H2608 N2596 0.984 . S
H2609 N2596 0.985 . S
C2610 C2611 1.363 . S
C2610 C2616 1.379 . S
C2610 N2618 1.356 . S
C2611 C2610 1.363 . S
C2611 C2617 1.363 . S
C2612 C2613 1.363 . S
C2612 C2617 1.379 . S
C2612 N2619 1.356 . S
C2613 C2612 1.363 . S
C2613 C2616 1.363 . S
N2614 C2616 1.356 . S
N2614 H2626 0.984 . S
N2614 H2627 0.985 . S
N2615 C2617 1.356 . S
N2615 H2620 0.984 . S
N2615 H2621 0.985 . S
C2616 C2610 1.379 . S
C2616 C2613 1.363 . S
C2616 N2614 1.356 . S
C2617 C2611 1.363 . S
C2617 C2612 1.379 . S
C2617 N2615 1.356 . S
N2618 C2610 1.356 . S
N2618 H2624 0.984 . S
N2618 H2625 0.984 . S
N2619 C2612 1.356 . S
N2619 H2622 0.984 . S
N2619 H2623 0.985 . S
H2620 N2615 0.984 . S
H2621 N2615 0.985 . S
H2622 N2619 0.984 . S
H2623 N2619 0.985 . S
H2624 N2618 0.984 . S
H2625 N2618 0.984 . S
H2626 N2614 0.984 . S
H2627 N2614 0.985 . S
C2628 C2629 1.363 1_565 S
C2628 C2634 1.379 . S
C2628 N2636 1.356 . S
C2629 C2628 1.363 1_545 S
C2629 C2635 1.363 . S
C2630 C2631 1.363 . S
C2630 C2635 1.379 . S
C2630 N2637 1.356 . S
C2631 C2630 1.363 . S
C2631 C2634 1.363 1_545 S
N2632 C2634 1.356 . S
N2632 H2644 0.984 . S
N2632 H2645 0.985 . S
N2633 C2635 1.356 . S
N2633 H2638 0.984 . S
N2633 H2639 0.985 . S
C2634 C2628 1.379 . S
C2634 C2631 1.363 1_565 S
C2634 N2632 1.356 . S
C2635 C2629 1.363 . S
C2635 C2630 1.379 . S
C2635 N2633 1.356 . S
N2636 C2628 1.356 . S
N2636 H2642 0.984 . S
N2636 H2643 0.984 . S
N2637 C2630 1.356 . S
N2637 H2640 0.984 . S
N2637 H2641 0.985 . S
H2638 N2633 0.984 . S
H2639 N2633 0.985 . S
H2640 N2637 0.984 . S
H2641 N2637 0.985 . S
H2642 N2636 0.984 . S
H2643 N2636 0.984 . S
H2644 N2632 0.984 . S
H2645 N2632 0.985 . S
C2646 C2647 1.363 . S
C2646 C2652 1.379 . S
C2646 N2654 1.356 . S
C2647 C2646 1.363 . S
C2647 C2653 1.363 . S
C2648 C2649 1.363 . S
C2648 C2653 1.379 . S
C2648 N2655 1.356 . S
C2649 C2648 1.363 . S
C2649 C2652 1.363 . S
N2650 C2652 1.356 . S
N2650 H2662 0.984 . S
N2650 H2663 0.985 . S
N2651 C2653 1.356 . S
N2651 H2656 0.984 . S
N2651 H2657 0.985 . S
C2652 C2646 1.379 . S
C2652 C2649 1.363 . S
C2652 N2650 1.356 . S
C2653 C2647 1.363 . S
C2653 C2648 1.379 . S
C2653 N2651 1.356 . S
N2654 C2646 1.356 . S
N2654 H2660 0.984 . S
N2654 H2661 0.984 . S
N2655 C2648 1.356 . S
N2655 H2658 0.984 . S
N2655 H2659 0.985 . S
H2656 N2651 0.984 . S
H2657 N2651 0.985 . S
H2658 N2655 0.984 . S
H2659 N2655 0.985 . S
H2660 N2654 0.984 . S
H2661 N2654 0.984 . S
H2662 N2650 0.984 . S
H2663 N2650 0.985 . S
C2664 C2665 1.363 1_565 S
C2664 C2670 1.379 1_565 S
C2664 N2672 1.356 . S
C2665 C2664 1.363 1_545 S
C2665 C2671 1.363 . S
C2666 C2667 1.363 . S
C2666 C2671 1.379 . S
C2666 N2673 1.356 . S
C2667 C2666 1.363 . S
C2667 C2670 1.363 . S
N2668 C2670 1.356 1_655 S
N2668 H2680 0.985 1_545 S
N2668 H2681 0.984 . S
N2669 C2671 1.356 . S
N2669 H2674 0.984 . S
N2669 H2675 0.985 . S
C2670 C2664 1.379 1_545 S
C2670 C2667 1.363 . S
C2670 N2668 1.356 1_455 S
C2671 C2665 1.363 . S
C2671 C2666 1.379 . S
C2671 N2669 1.356 . S
N2672 C2664 1.356 . S
N2672 H2678 1.018 . S
N2672 H2679 0.984 . S
N2673 C2666 1.356 . S
N2673 H2676 0.984 . S
N2673 H2677 0.985 . S
H2674 N2669 0.984 . S
H2675 N2669 0.985 . S
H2676 N2673 0.984 . S
H2677 N2673 0.985 . S
H2678 N2672 1.018 . S
H2679 N2672 0.984 . S
H2680 N2668 0.985 1_565 S
H2681 N2668 0.984 . S
C2682 C2683 1.363 . S
C2682 C2688 1.379 . S
C2682 N2690 1.356 . S
C2683 C2682 1.363 . S
C2683 C2689 1.363 . S
C2684 C2685 1.363 . S
C2684 C2689 1.379 . S
C2684 N2691 1.356 . S
C2685 C2684 1.363 . S
C2685 C2688 1.363 . S
N2686 C2688 1.356 . S
N2686 H2698 0.984 . S
N2686 H2699 0.985 . S
N2687 C2689 1.356 . S
N2687 H2692 0.984 . S
N2687 H2693 0.985 . S
C2688 C2682 1.379 . S
C2688 C2685 1.363 . S
C2688 N2686 1.356 . S
C2689 C2683 1.363 . S
C2689 C2684 1.379 . S
C2689 N2687 1.356 . S
N2690 C2682 1.356 . S
N2690 H2696 0.984 . S
N2690 H2697 0.984 . S
N2691 C2684 1.356 . S
N2691 H2694 0.984 . S
N2691 H2695 0.985 . S
H2692 N2687 0.984 . S
H2693 N2687 0.985 . S
H2694 N2691 0.984 . S
H2695 N2691 0.985 . S
H2696 N2690 0.984 . S
H2697 N2690 0.984 . S
H2698 N2686 0.984 . S
H2699 N2686 0.985 . S
C2700 C2701 1.363 . S
C2700 C2706 1.379 . S
C2700 N2708 1.356 . S
C2701 C2700 1.363 . S
C2701 C2707 1.363 1_545 S
C2702 C2703 1.363 . S
C2702 C2707 1.379 . S
C2702 N2709 1.356 . S
C2703 C2702 1.363 . S
C2703 C2706 1.363 1_565 S
N2704 C2706 1.356 . S
N2704 H2716 0.984 . S
N2704 H2717 0.985 . S
N2705 C2707 1.356 . S
N2705 H2710 0.984 . S
N2705 H2711 0.985 . S
C2706 C2700 1.379 . S
C2706 C2703 1.363 1_545 S
C2706 N2704 1.356 . S
C2707 C2701 1.363 1_565 S
C2707 C2702 1.379 . S
C2707 N2705 1.356 . S
N2708 C2700 1.356 . S
N2708 H2714 0.984 . S
N2708 H2715 0.984 . S
N2709 C2702 1.356 . S
N2709 H2712 0.984 . S
N2709 H2713 0.985 . S
H2710 N2705 0.984 . S
H2711 N2705 0.985 . S
H2712 N2709 0.984 . S
H2713 N2709 0.985 . S
H2714 N2708 0.984 . S
H2715 N2708 0.984 . S
H2716 N2704 0.984 . S
H2717 N2704 0.985 . S
C2718 C2719 1.363 . S
C2718 C2724 1.379 . S
C2718 N2726 1.356 . S
C2719 C2718 1.363 . S
C2719 C2725 1.363 . S
C2720 C2721 1.363 . S
C2720 C2725 1.379 . S
C2720 N2727 1.356 . S
C2721 C2720 1.363 . S
C2721 C2724 1.363 . S
N2722 C2724 1.356 . S
N2722 H2734 0.984 . S
N2722 H2735 0.985 . S
N2723 C2725 1.356 . S
N2723 H2728 0.984 . S
N2723 H2729 0.985 . S
C2724 C2718 1.379 . S
C2724 C2721 1.363 . S
C2724 N2722 1.356 . S
C2725 C2719 1.363 . S
C2725 C2720 1.379 . S
C2725 N2723 1.356 . S
N2726 C2718 1.356 . S
N2726 H2732 0.984 . S
N2726 H2733 0.984 . S
N2727 C2720 1.356 . S
N2727 H2730 0.984 . S
N2727 H2731 0.985 . S
H2728 N2723 0.984 . S
H2729 N2723 0.985 . S
H2730 N2727 0.984 . S
H2731 N2727 0.985 . S
H2732 N2726 0.984 . S
H2733 N2726 0.984 . S
H2734 N2722 0.984 . S
H2735 N2722 0.985 . S
C2736 C2737 1.363 1_556 S
C2736 C2742 1.379 . S
C2736 N2744 1.356 . S
C2737 C2736 1.363 1_554 S
C2737 C2743 1.363 . S
C2738 C2739 1.363 1_554 S
C2738 C2743 1.379 . S
C2738 N2745 1.356 1_545 S
C2739 C2738 1.363 1_556 S
C2739 C2742 1.363 . S
N2740 C2742 1.356 . S
N2740 H2752 0.984 . S
N2740 H2753 0.985 . S
N2741 C2743 1.356 . S
N2741 H2746 0.984 . S
N2741 H2747 0.985 1_545 S
C2742 C2736 1.379 . S
C2742 C2739 1.363 . S
C2742 N2740 1.356 . S
C2743 C2737 1.363 . S
C2743 C2738 1.379 . S
C2743 N2741 1.356 . S
N2744 C2736 1.356 . S
N2744 H2750 0.988 . S
N2744 H2751 0.982 1_556 S
N2745 C2738 1.356 1_565 S
N2745 H2748 0.991 . S
N2745 H2749 0.985 . S
H2746 N2741 0.984 . S
H2747 N2741 0.985 1_565 S
H2748 N2745 0.991 . S
H2749 N2745 0.985 . S
H2750 N2744 0.988 . S
H2751 N2744 0.982 1_554 S
H2752 N2740 0.984 . S
H2753 N2740 0.985 . S
C2754 C2755 1.363 . S
C2754 C2760 1.379 . S
C2754 N2762 1.356 . S
C2755 C2754 1.363 . S
C2755 C2761 1.363 . S
C2756 C2757 1.363 . S
C2756 C2761 1.379 . S
C2756 N2763 1.356 . S
C2757 C2756 1.363 . S
C2757 C2760 1.363 . S
N2758 C2760 1.356 . S
N2758 H2770 0.984 . S
N2758 H2771 0.985 . S
N2759 C2761 1.356 . S
N2759 H2764 0.984 . S
N2759 H2765 0.985 . S
C2760 C2754 1.379 . S
C2760 C2757 1.363 . S
C2760 N2758 1.356 . S
C2761 C2755 1.363 . S
C2761 C2756 1.379 . S
C2761 N2759 1.356 . S
N2762 C2754 1.356 . S
N2762 H2768 0.985 . S
N2762 H2769 0.984 1_554 S
N2763 C2756 1.356 . S
N2763 H2766 0.984 . S
N2763 H2767 0.985 . S
H2764 N2759 0.984 . S
H2765 N2759 0.985 . S
H2766 N2763 0.984 . S
H2767 N2763 0.985 . S
H2768 N2762 0.985 . S
H2769 N2762 0.984 1_556 S
H2770 N2758 0.984 . S
H2771 N2758 0.985 . S
C2772 C2773 1.363 . S
C2772 C2778 1.379 . S
C2772 N2780 1.356 . S
C2773 C2772 1.363 . S
C2773 C2779 1.363 . S
C2774 C2775 1.363 . S
C2774 C2779 1.379 . S
C2774 N2781 1.356 . S
C2775 C2774 1.363 . S
C2775 C2778 1.363 . S
N2776 C2778 1.356 . S
N2776 H2788 0.984 . S
N2776 H2789 0.985 . S
N2777 C2779 1.356 . S
N2777 H2782 0.984 . S
N2777 H2783 0.985 . S
C2778 C2772 1.379 . S
C2778 C2775 1.363 . S
C2778 N2776 1.356 . S
C2779 C2773 1.363 . S
C2779 C2774 1.379 . S
C2779 N2777 1.356 . S
N2780 C2772 1.356 . S
N2780 H2786 0.984 . S
N2780 H2787 0.984 . S
N2781 C2774 1.356 . S
N2781 H2784 0.984 . S
N2781 H2785 0.985 . S
H2782 N2777 0.984 . S
H2783 N2777 0.985 . S
H2784 N2781 0.984 . S
H2785 N2781 0.985 . S
H2786 N2780 0.984 . S
H2787 N2780 0.984 . S
H2788 N2776 0.984 . S
H2789 N2776 0.985 . S
C2790 C2791 1.363 . S
C2790 C2796 1.379 . S
C2790 N2798 1.356 . S
C2791 C2790 1.363 . S
C2791 C2797 1.363 . S
C2792 C2793 1.363 . S
C2792 C2797 1.379 . S
C2792 N2799 1.356 . S
C2793 C2792 1.363 . S
C2793 C2796 1.363 . S
N2794 C2796 1.356 . S
N2794 H2806 0.984 . S
N2794 H2807 0.985 . S
N2795 C2797 1.356 . S
N2795 H2800 0.984 . S
N2795 H2801 0.985 . S
C2796 C2790 1.379 . S
C2796 C2793 1.363 . S
C2796 N2794 1.356 . S
C2797 C2791 1.363 . S
C2797 C2792 1.379 . S
C2797 N2795 1.356 . S
N2798 C2790 1.356 . S
N2798 H2804 0.984 . S
N2798 H2805 0.984 . S
N2799 C2792 1.356 . S
N2799 H2802 0.984 . S
N2799 H2803 0.985 . S
H2800 N2795 0.984 . S
H2801 N2795 0.985 . S
H2802 N2799 0.984 . S
H2803 N2799 0.985 . S
H2804 N2798 0.984 . S
H2805 N2798 0.984 . S
H2806 N2794 0.984 . S
H2807 N2794 0.985 . S
C2808 C2809 1.363 . S
C2808 C2814 1.379 . S
C2808 N2816 1.356 . S
C2809 C2808 1.363 . S
C2809 C2815 1.363 . S
C2810 C2811 1.363 . S
C2810 C2815 1.379 . S
C2810 N2817 1.356 . S
C2811 C2810 1.363 . S
C2811 C2814 1.363 . S
N2812 C2814 1.356 . S
N2812 H2824 0.984 . S
N2812 H2825 0.985 . S
N2813 C2815 1.356 . S
N2813 H2818 0.984 . S
N2813 H2819 0.985 . S
C2814 C2808 1.379 . S
C2814 C2811 1.363 . S
C2814 N2812 1.356 . S
C2815 C2809 1.363 . S
C2815 C2810 1.379 . S
C2815 N2813 1.356 . S
N2816 C2808 1.356 . S
N2816 H2822 0.984 . S
N2816 H2823 0.984 . S
N2817 C2810 1.356 . S
N2817 H2820 0.984 . S
N2817 H2821 0.985 . S
H2818 N2813 0.984 . S
H2819 N2813 0.985 . S
H2820 N2817 0.984 . S
H2821 N2817 0.985 . S
H2822 N2816 0.984 . S
H2823 N2816 0.984 . S
H2824 N2812 0.984 . S
H2825 N2812 0.985 . S
C2826 C2827 1.363 . S
C2826 C2832 1.379 . S
C2826 N2834 1.356 . S
C2827 C2826 1.363 . S
C2827 C2833 1.363 . S
C2828 C2829 1.363 . S
C2828 C2833 1.379 . S
C2828 N2835 1.356 . S
C2829 C2828 1.363 . S
C2829 C2832 1.363 . S
N2830 C2832 1.356 . S
N2830 H2842 0.984 . S
N2830 H2843 0.985 . S
N2831 C2833 1.356 . S
N2831 H2836 0.984 . S
N2831 H2837 0.985 . S
C2832 C2826 1.379 . S
C2832 C2829 1.363 . S
C2832 N2830 1.356 . S
C2833 C2827 1.363 . S
C2833 C2828 1.379 . S
C2833 N2831 1.356 . S
N2834 C2826 1.356 . S
N2834 H2840 0.984 . S
N2834 H2841 0.984 . S
N2835 C2828 1.356 . S
N2835 H2838 0.984 . S
N2835 H2839 0.985 . S
H2836 N2831 0.984 . S
H2837 N2831 0.985 . S
H2838 N2835 0.984 . S
H2839 N2835 0.985 . S
H2840 N2834 0.984 . S
H2841 N2834 0.984 . S
H2842 N2830 0.984 . S
H2843 N2830 0.985 . S
C2844 C2845 1.363 . S
C2844 C2850 1.379 . S
C2844 N2852 1.356 . S
C2845 C2844 1.363 . S
C2845 C2851 1.363 . S
C2846 C2847 1.363 . S
C2846 C2851 1.379 . S
C2846 N2853 1.356 . S
C2847 C2846 1.363 . S
C2847 C2850 1.363 . S
N2848 C2850 1.356 . S
N2848 H2860 0.984 . S
N2848 H2861 0.985 . S
N2849 C2851 1.356 . S
N2849 H2854 0.984 . S
N2849 H2855 0.985 . S
C2850 C2844 1.379 . S
C2850 C2847 1.363 . S
C2850 N2848 1.356 . S
C2851 C2845 1.363 . S
C2851 C2846 1.379 . S
C2851 N2849 1.356 . S
N2852 C2844 1.356 . S
N2852 H2858 0.984 . S
N2852 H2859 0.984 . S
N2853 C2846 1.356 . S
N2853 H2856 0.984 . S
N2853 H2857 0.985 . S
H2854 N2849 0.984 . S
H2855 N2849 0.985 . S
H2856 N2853 0.984 . S
H2857 N2853 0.985 . S
H2858 N2852 0.984 . S
H2859 N2852 0.984 . S
H2860 N2848 0.984 . S
H2861 N2848 0.985 . S
C2862 C2863 1.363 . S
C2862 C2868 1.379 . S
C2862 N2870 1.356 . S
C2863 C2862 1.363 . S
C2863 C2869 1.363 . S
C2864 C2865 1.363 . S
C2864 C2869 1.379 . S
C2864 N2871 1.356 . S
C2865 C2864 1.363 . S
C2865 C2868 1.363 . S
N2866 C2868 1.356 . S
N2866 H2878 0.984 . S
N2866 H2879 0.985 . S
N2867 C2869 1.356 . S
N2867 H2872 0.984 . S
N2867 H2873 0.985 . S
C2868 C2862 1.379 . S
C2868 C2865 1.363 . S
C2868 N2866 1.356 . S
C2869 C2863 1.363 . S
C2869 C2864 1.379 . S
C2869 N2867 1.356 . S
N2870 C2862 1.356 . S
N2870 H2876 0.984 . S
N2870 H2877 0.984 . S
N2871 C2864 1.356 . S
N2871 H2874 0.984 . S
N2871 H2875 0.985 . S
H2872 N2867 0.984 . S
H2873 N2867 0.985 . S
H2874 N2871 0.984 . S
H2875 N2871 0.985 . S
H2876 N2870 0.984 . S
H2877 N2870 0.984 . S
H2878 N2866 0.984 . S
H2879 N2866 0.985 . S
C2880 C2881 1.363 . S
C2880 C2886 1.379 . S
C2880 N2888 1.356 . S
C2881 C2880 1.363 . S
C2881 C2887 1.363 . S
C2882 C2883 1.363 . S
C2882 C2887 1.379 . S
C2882 N2889 1.358 1_556 S
C2883 C2882 1.363 . S
C2883 C2886 1.363 . S
N2884 C2886 1.356 . S
N2884 H2896 0.984 . S
N2884 H2897 0.985 . S
N2885 C2887 1.356 1_655 S
N2885 H2890 0.984 . S
N2885 H2891 0.985 1_556 S
C2886 C2880 1.379 . S
C2886 C2883 1.363 . S
C2886 N2884 1.356 . S
C2887 C2881 1.363 . S
C2887 C2882 1.379 . S
C2887 N2885 1.356 1_455 S
N2888 C2880 1.356 . S
N2888 H2894 0.984 . S
N2888 H2895 0.984 . S
N2889 C2882 1.358 1_554 S
N2889 H2892 0.987 . S
N2889 H2893 0.980 1_455 S
H2890 N2885 0.984 . S
H2891 N2885 0.985 1_554 S
H2892 N2889 0.987 . S
H2893 N2889 0.980 1_655 S
H2894 N2888 0.984 . S
H2895 N2888 0.984 . S
H2896 N2884 0.984 . S
H2897 N2884 0.985 . S
C2898 C2899 1.363 . S
C2898 C2904 1.379 . S
C2898 N2906 1.356 . S
C2899 C2898 1.363 . S
C2899 C2905 1.363 . S
C2900 C2901 1.363 . S
C2900 C2905 1.379 . S
C2900 N2907 1.356 . S
C2901 C2900 1.363 . S
C2901 C2904 1.363 . S
N2902 C2904 1.356 . S
N2902 H2914 0.984 . S
N2902 H2915 0.985 . S
N2903 C2905 1.356 . S
N2903 H2908 0.984 . S
N2903 H2909 0.985 . S
C2904 C2898 1.379 . S
C2904 C2901 1.363 . S
C2904 N2902 1.356 . S
C2905 C2899 1.363 . S
C2905 C2900 1.379 . S
C2905 N2903 1.356 . S
N2906 C2898 1.356 . S
N2906 H2912 0.984 . S
N2906 H2913 0.984 . S
N2907 C2900 1.356 . S
N2907 H2910 0.984 . S
N2907 H2911 0.985 . S
H2908 N2903 0.984 . S
H2909 N2903 0.985 . S
H2910 N2907 0.984 . S
H2911 N2907 0.985 . S
H2912 N2906 0.984 . S
H2913 N2906 0.984 . S
H2914 N2902 0.984 . S
H2915 N2902 0.985 . S
C2916 C2917 1.363 . S
C2916 C2922 1.379 . S
C2916 N2924 1.356 . S
C2917 C2916 1.363 . S
C2917 C2923 1.363 . S
C2918 C2919 1.363 . S
C2918 C2923 1.379 . S
C2918 N2925 1.356 . S
C2919 C2918 1.363 . S
C2919 C2922 1.363 . S
N2920 C2922 1.356 . S
N2920 H2932 0.984 . S
N2920 H2933 0.985 . S
N2921 C2923 1.356 . S
N2921 H2926 0.984 . S
N2921 H2927 0.985 . S
C2922 C2916 1.379 . S
C2922 C2919 1.363 . S
C2922 N2920 1.356 . S
C2923 C2917 1.363 . S
C2923 C2918 1.379 . S
C2923 N2921 1.356 . S
N2924 C2916 1.356 . S
N2924 H2930 0.984 . S
N2924 H2931 0.984 . S
N2925 C2918 1.356 . S
N2925 H2928 0.984 . S
N2925 H2929 0.985 . S
H2926 N2921 0.984 . S
H2927 N2921 0.985 . S
H2928 N2925 0.984 . S
H2929 N2925 0.985 . S
H2930 N2924 0.984 . S
H2931 N2924 0.984 . S
H2932 N2920 0.984 . S
H2933 N2920 0.985 . S
C2934 C2935 1.363 . S
C2934 C2940 1.379 . S
C2934 N2942 1.356 . S
C2935 C2934 1.363 . S
C2935 C2941 1.363 . S
C2936 C2937 1.363 . S
C2936 C2941 1.379 . S
C2936 N2943 1.356 . S
C2937 C2936 1.363 . S
C2937 C2940 1.363 . S
N2938 C2940 1.356 . S
N2938 H2950 0.984 . S
N2938 H2951 0.985 . S
N2939 C2941 1.356 . S
N2939 H2944 0.984 . S
N2939 H2945 0.985 . S
C2940 C2934 1.379 . S
C2940 C2937 1.363 . S
C2940 N2938 1.356 . S
C2941 C2935 1.363 . S
C2941 C2936 1.379 . S
C2941 N2939 1.356 . S
N2942 C2934 1.356 . S
N2942 H2948 0.984 . S
N2942 H2949 0.984 . S
N2943 C2936 1.356 . S
N2943 H2946 0.984 . S
N2943 H2947 0.985 . S
H2944 N2939 0.984 . S
H2945 N2939 0.985 . S
H2946 N2943 0.984 . S
H2947 N2943 0.985 . S
H2948 N2942 0.984 . S
H2949 N2942 0.984 . S
H2950 N2938 0.984 . S
H2951 N2938 0.985 . S
C2952 C2953 1.363 . S
C2952 C2958 1.379 . S
C2952 N2960 1.356 1_455 S
C2953 C2952 1.363 . S
C2953 C2959 1.363 . S
C2954 C2955 1.363 . S
C2954 C2959 1.379 . S
C2954 N2961 1.356 . S
C2955 C2954 1.363 . S
C2955 C2958 1.363 . S
N2956 C2958 1.356 . S
N2956 H2968 0.984 1_455 S
N2956 H2969 0.985 . S
N2957 C2959 1.356 . S
N2957 H2962 0.984 . S
N2957 H2963 0.985 . S
C2958 C2952 1.379 . S
C2958 C2955 1.363 . S
C2958 N2956 1.356 . S
C2959 C2953 1.363 . S
C2959 C2954 1.379 . S
C2959 N2957 1.356 . S
N2960 C2952 1.356 1_655 S
N2960 H2966 0.984 . S
N2960 H2967 0.984 . S
N2961 C2954 1.356 . S
N2961 H2964 0.984 . S
N2961 H2965 0.985 . S
H2962 N2957 0.984 . S
H2963 N2957 0.985 . S
H2964 N2961 0.984 . S
H2965 N2961 0.985 . S
H2966 N2960 0.984 . S
H2967 N2960 0.984 . S
H2968 N2956 0.984 1_655 S
H2969 N2956 0.985 . S
C2970 C2971 1.363 . S
C2970 C2976 1.379 . S
C2970 N2978 1.356 . S
C2971 C2970 1.363 . S
C2971 C2977 1.363 . S
C2972 C2973 1.363 . S
C2972 C2977 1.379 . S
C2972 N2979 1.356 . S
C2973 C2972 1.363 . S
C2973 C2976 1.363 . S
N2974 C2976 1.356 . S
N2974 H2986 0.984 . S
N2974 H2987 0.985 . S
N2975 C2977 1.356 . S
N2975 H2980 0.984 . S
N2975 H2981 0.985 . S
C2976 C2970 1.379 . S
C2976 C2973 1.363 . S
C2976 N2974 1.356 . S
C2977 C2971 1.363 . S
C2977 C2972 1.379 . S
C2977 N2975 1.356 . S
N2978 C2970 1.356 . S
N2978 H2984 0.984 . S
N2978 H2985 0.984 . S
N2979 C2972 1.356 . S
N2979 H2982 0.984 . S
N2979 H2983 0.985 . S
H2980 N2975 0.984 . S
H2981 N2975 0.985 . S
H2982 N2979 0.984 . S
H2983 N2979 0.985 . S
H2984 N2978 0.984 . S
H2985 N2978 0.984 . S
H2986 N2974 0.984 . S
H2987 N2974 0.985 . S
C2988 C2989 1.363 . S
C2988 C2994 1.379 . S
C2988 N2996 1.356 . S
C2989 C2988 1.363 . S
C2989 C2995 1.363 . S
C2990 C2991 1.363 . S
C2990 C2995 1.379 . S
C2990 N2997 1.356 . S
C2991 C2990 1.363 . S
C2991 C2994 1.363 . S
N2992 C2994 1.356 . S
N2992 H3004 0.984 1_554 S
N2992 H3005 0.985 . S
N2993 C2995 1.356 . S
N2993 H2998 0.984 . S
N2993 H2999 0.985 . S
C2994 C2988 1.379 . S
C2994 C2991 1.363 . S
C2994 N2992 1.356 . S
C2995 C2989 1.363 . S
C2995 C2990 1.379 . S
C2995 N2993 1.356 . S
N2996 C2988 1.356 . S
N2996 H3002 0.984 . S
N2996 H3003 0.984 . S
N2997 C2990 1.356 . S
N2997 H3000 0.984 . S
N2997 H3001 0.985 . S
H2998 N2993 0.984 . S
H2999 N2993 0.985 . S
H3000 N2997 0.984 . S
H3001 N2997 0.985 . S
H3002 N2996 0.984 . S
H3003 N2996 0.984 . S
H3004 N2992 0.984 1_556 S
H3005 N2992 0.985 . S
C3006 C3007 1.363 . S
C3006 C3012 1.379 . S
C3006 N3014 1.356 . S
C3007 C3006 1.363 . S
C3007 C3013 1.363 . S
C3008 C3009 1.363 . S
C3008 C3013 1.379 . S
C3008 N3015 1.356 . S
C3009 C3008 1.363 . S
C3009 C3012 1.363 . S
N3010 C3012 1.356 . S
N3010 H3022 0.984 . S
N3010 H3023 0.985 . S
N3011 C3013 1.356 . S
N3011 H3016 0.984 . S
N3011 H3017 0.985 . S
C3012 C3006 1.379 . S
C3012 C3009 1.363 . S
C3012 N3010 1.356 . S
C3013 C3007 1.363 . S
C3013 C3008 1.379 . S
C3013 N3011 1.356 . S
N3014 C3006 1.356 . S
N3014 H3020 0.984 . S
N3014 H3021 0.984 . S
N3015 C3008 1.356 . S
N3015 H3018 0.984 . S
N3015 H3019 0.985 . S
H3016 N3011 0.984 . S
H3017 N3011 0.985 . S
H3018 N3015 0.984 . S
H3019 N3015 0.985 . S
H3020 N3014 0.984 . S
H3021 N3014 0.984 . S
H3022 N3010 0.984 . S
H3023 N3010 0.985 . S
C3024 C3025 1.363 1_565 S
C3024 C3030 1.379 . S
C3024 N3032 1.356 . S
C3025 C3024 1.363 1_545 S
C3025 C3031 1.363 . S
C3026 C3027 1.363 . S
C3026 C3031 1.379 . S
C3026 N3033 1.356 . S
C3027 C3026 1.363 . S
C3027 C3030 1.363 1_545 S
N3028 C3030 1.356 . S
N3028 H3040 0.984 . S
N3028 H3041 0.985 . S
N3029 C3031 1.356 . S
N3029 H3034 0.984 . S
N3029 H3035 0.985 . S
C3030 C3024 1.379 . S
C3030 C3027 1.363 1_565 S
C3030 N3028 1.356 . S
C3031 C3025 1.363 . S
C3031 C3026 1.379 . S
C3031 N3029 1.356 . S
N3032 C3024 1.356 . S
N3032 H3038 0.984 . S
N3032 H3039 0.984 . S
N3033 C3026 1.356 . S
N3033 H3036 0.984 . S
N3033 H3037 0.985 . S
H3034 N3029 0.984 . S
H3035 N3029 0.985 . S
H3036 N3033 0.984 . S
H3037 N3033 0.985 . S
H3038 N3032 0.984 . S
H3039 N3032 0.984 . S
H3040 N3028 0.984 . S
H3041 N3028 0.985 . S
C3042 C3043 1.363 . S
C3042 C3048 1.379 . S
C3042 N3050 1.356 . S
C3043 C3042 1.363 . S
C3043 C3049 1.363 . S
C3044 C3045 1.363 . S
C3044 C3049 1.379 . S
C3044 N3051 1.356 . S
C3045 C3044 1.363 . S
C3045 C3048 1.363 . S
N3046 C3048 1.356 . S
N3046 H3058 0.984 . S
N3046 H3059 0.985 . S
N3047 C3049 1.356 . S
N3047 H3052 0.984 . S
N3047 H3053 0.985 . S
C3048 C3042 1.379 . S
C3048 C3045 1.363 . S
C3048 N3046 1.356 . S
C3049 C3043 1.363 . S
C3049 C3044 1.379 . S
C3049 N3047 1.356 . S
N3050 C3042 1.356 . S
N3050 H3056 0.984 . S
N3050 H3057 0.984 . S
N3051 C3044 1.356 . S
N3051 H3054 0.984 . S
N3051 H3055 0.985 . S
H3052 N3047 0.984 . S
H3053 N3047 0.985 . S
H3054 N3051 0.984 . S
H3055 N3051 0.985 . S
H3056 N3050 0.984 . S
H3057 N3050 0.984 . S
H3058 N3046 0.984 . S
H3059 N3046 0.985 . S
C3060 C3061 1.363 1_565 S
C3060 C3066 1.379 . S
C3060 N3068 1.356 . S
C3061 C3060 1.363 1_545 S
C3061 C3067 1.363 . S
C3062 C3063 1.363 1_545 S
C3062 C3067 1.379 . S
C3062 N3069 1.356 . S
C3063 C3062 1.363 1_565 S
C3063 C3066 1.363 . S
N3064 C3066 1.356 . S
N3064 H3076 0.984 . S
N3064 H3077 0.985 . S
N3065 C3067 1.356 . S
N3065 H3070 0.984 . S
N3065 H3071 0.985 . S
C3066 C3060 1.379 . S
C3066 C3063 1.363 . S
C3066 N3064 1.356 . S
C3067 C3061 1.363 . S
C3067 C3062 1.379 . S
C3067 N3065 1.356 . S
N3068 C3060 1.356 . S
N3068 H3074 0.984 . S
N3068 H3075 0.984 . S
N3069 C3062 1.356 . S
N3069 H3072 0.984 . S
N3069 H3073 0.985 . S
H3070 N3065 0.984 . S
H3071 N3065 0.985 . S
H3072 N3069 0.984 . S
H3073 N3069 0.985 . S
H3074 N3068 0.984 . S
H3075 N3068 0.984 . S
H3076 N3064 0.984 . S
H3077 N3064 0.985 . S
C3078 C3079 1.363 . S
C3078 C3084 1.379 . S
C3078 N3086 1.356 . S
C3079 C3078 1.363 . S
C3079 C3085 1.363 . S
C3080 C3081 1.363 . S
C3080 C3085 1.379 . S
C3080 N3087 1.356 . S
C3081 C3080 1.363 . S
C3081 C3084 1.363 . S
N3082 C3084 1.356 . S
N3082 H3094 0.984 . S
N3082 H3095 0.985 . S
N3083 C3085 1.356 . S
N3083 H3088 0.984 . S
N3083 H3089 0.985 . S
C3084 C3078 1.379 . S
C3084 C3081 1.363 . S
C3084 N3082 1.356 . S
C3085 C3079 1.363 . S
C3085 C3080 1.379 . S
C3085 N3083 1.356 . S
N3086 C3078 1.356 . S
N3086 H3092 0.984 . S
N3086 H3093 0.984 . S
N3087 C3080 1.356 . S
N3087 H3090 0.984 . S
N3087 H3091 0.985 . S
H3088 N3083 0.984 . S
H3089 N3083 0.985 . S
H3090 N3087 0.984 . S
H3091 N3087 0.985 . S
H3092 N3086 0.984 . S
H3093 N3086 0.984 . S
H3094 N3082 0.984 . S
H3095 N3082 0.985 . S
C3096 C3097 1.378 . S
C3096 C3102 1.379 . S
C3096 N3104 1.356 . S
C3097 C3096 1.378 . S
C3097 C3103 1.355 1_565 S
C3098 C3099 1.354 1_545 S
C3098 C3103 1.383 . S
C3098 N3105 1.360 1_655 S
C3099 C3098 1.354 1_565 S
C3099 C3102 1.363 . S
N3100 C3102 1.356 . S
N3100 H3112 0.984 . S
N3100 H3113 0.985 . S
N3101 C3103 1.356 . S
N3101 H3106 0.984 . S
N3101 H3107 0.985 1_655 S
C3102 C3096 1.379 . S
C3102 C3099 1.363 . S
C3102 N3100 1.356 . S
C3103 C3097 1.355 1_545 S
C3103 C3098 1.383 . S
C3103 N3101 1.356 . S
N3104 C3096 1.356 . S
N3104 H3110 0.984 . S
N3104 H3111 0.984 . S
N3105 C3098 1.360 1_455 S
N3105 H3108 0.979 1_545 S
N3105 H3109 0.985 . S
H3106 N3101 0.984 . S
H3107 N3101 0.985 1_455 S
H3108 N3105 0.979 1_565 S
H3109 N3105 0.985 . S
H3110 N3104 0.984 . S
H3111 N3104 0.984 . S
H3112 N3100 0.984 . S
H3113 N3100 0.985 . S
C3114 C3115 1.363 . S
C3114 C3120 1.379 . S
C3114 N3122 1.356 . S
C3115 C3114 1.363 . S
C3115 C3121 1.363 . S
C3116 C3117 1.363 . S
C3116 C3121 1.379 . S
C3116 N3123 1.356 . S
C3117 C3116 1.363 . S
C3117 C3120 1.363 . S
N3118 C3120 1.356 . S
N3118 H3130 0.984 . S
N3118 H3131 0.985 . S
N3119 C3121 1.356 . S
N3119 H3124 0.984 . S
N3119 H3125 0.985 . S
C3120 C3114 1.379 . S
C3120 C3117 1.363 . S
C3120 N3118 1.356 . S
C3121 C3115 1.363 . S
C3121 C3116 1.379 . S
C3121 N3119 1.356 . S
N3122 C3114 1.356 . S
N3122 H3128 0.984 . S
N3122 H3129 0.984 . S
N3123 C3116 1.356 . S
N3123 H3126 0.984 . S
N3123 H3127 0.985 . S
H3124 N3119 0.984 . S
H3125 N3119 0.985 . S
H3126 N3123 0.984 . S
H3127 N3123 0.985 . S
H3128 N3122 0.984 . S
H3129 N3122 0.984 . S
H3130 N3118 0.984 . S
H3131 N3118 0.985 . S
C3132 C3133 1.363 1_565 S
C3132 C3138 1.379 . S
C3132 N3140 1.356 . S
C3133 C3132 1.363 1_545 S
C3133 C3139 1.363 . S
C3134 C3135 1.363 . S
C3134 C3139 1.379 . S
C3134 N3141 1.356 . S
C3135 C3134 1.363 . S
C3135 C3138 1.363 1_545 S
N3136 C3138 1.356 . S
N3136 H3148 0.984 . S
N3136 H3149 0.985 . S
N3137 C3139 1.356 . S
N3137 H3142 0.984 . S
N3137 H3143 0.985 . S
C3138 C3132 1.379 . S
C3138 C3135 1.363 1_565 S
C3138 N3136 1.356 . S
C3139 C3133 1.363 . S
C3139 C3134 1.379 . S
C3139 N3137 1.356 . S
N3140 C3132 1.356 . S
N3140 H3146 0.984 . S
N3140 H3147 0.984 . S
N3141 C3134 1.356 . S
N3141 H3144 0.984 . S
N3141 H3145 0.985 . S
H3142 N3137 0.984 . S
H3143 N3137 0.985 . S
H3144 N3141 0.984 . S
H3145 N3141 0.985 . S
H3146 N3140 0.984 . S
H3147 N3140 0.984 . S
H3148 N3136 0.984 . S
H3149 N3136 0.985 . S
C3150 C3151 1.363 . S
C3150 C3156 1.379 . S
C3150 N3158 1.356 . S
C3151 C3150 1.363 . S
C3151 C3157 1.363 . S
C3152 C3153 1.363 . S
C3152 C3157 1.379 . S
C3152 N3159 1.356 . S
C3153 C3152 1.363 . S
C3153 C3156 1.363 . S
N3154 C3156 1.356 . S
N3154 H3166 0.984 . S
N3154 H3167 0.985 . S
N3155 C3157 1.356 . S
N3155 H3160 0.984 . S
N3155 H3161 0.985 . S
C3156 C3150 1.379 . S
C3156 C3153 1.363 . S
C3156 N3154 1.356 . S
C3157 C3151 1.363 . S
C3157 C3152 1.379 . S
C3157 N3155 1.356 . S
N3158 C3150 1.356 . S
N3158 H3164 0.984 . S
N3158 H3165 0.984 . S
N3159 C3152 1.356 . S
N3159 H3162 0.984 . S
N3159 H3163 0.985 . S
H3160 N3155 0.984 . S
H3161 N3155 0.985 . S
H3162 N3159 0.984 . S
H3163 N3159 0.985 . S
H3164 N3158 0.984 . S
H3165 N3158 0.984 . S
H3166 N3154 0.984 . S
H3167 N3154 0.985 . S
C3168 C3169 1.363 1_556 S
C3168 C3174 1.379 . S
C3168 N3176 1.356 . S
C3169 C3168 1.363 1_554 S
C3169 C3175 1.363 . S
C3170 C3171 1.363 . S
C3170 C3175 1.379 . S
C3170 N3177 1.356 . S
C3171 C3170 1.363 . S
C3171 C3174 1.363 1_554 S
N3172 C3174 1.356 . S
N3172 H3184 0.984 . S
N3172 H3185 0.985 . S
N3173 C3175 1.356 . S
N3173 H3178 0.984 . S
N3173 H3179 0.985 . S
C3174 C3168 1.379 . S
C3174 C3171 1.363 1_556 S
C3174 N3172 1.356 . S
C3175 C3169 1.363 . S
C3175 C3170 1.379 . S
C3175 N3173 1.356 . S
N3176 C3168 1.356 . S
N3176 H3182 0.984 . S
N3176 H3183 0.984 . S
N3177 C3170 1.356 . S
N3177 H3180 0.984 . S
N3177 H3181 0.985 . S
H3178 N3173 0.984 . S
H3179 N3173 0.985 . S
H3180 N3177 0.984 . S
H3181 N3177 0.985 . S
H3182 N3176 0.984 . S
H3183 N3176 0.984 . S
H3184 N3172 0.984 . S
H3185 N3172 0.985 . S
C3186 C3187 1.383 . S
C3186 C3192 1.379 . S
C3186 N3194 1.356 . S
C3187 C3186 1.383 . S
C3187 C3193 1.340 1_554 S
C3188 C3189 1.363 . S
C3188 C3193 1.379 . S
C3188 N3195 1.356 . S
C3189 C3188 1.363 . S
C3189 C3192 1.363 1_556 S
N3190 C3192 1.356 . S
N3190 H3202 0.984 . S
N3190 H3203 0.985 . S
N3191 C3193 1.356 . S
N3191 H3196 0.984 . S
N3191 H3197 0.985 . S
C3192 C3186 1.379 . S
C3192 C3189 1.363 1_554 S
C3192 N3190 1.356 . S
C3193 C3187 1.340 1_556 S
C3193 C3188 1.379 . S
C3193 N3191 1.356 . S
N3194 C3186 1.356 . S
N3194 H3200 0.984 . S
N3194 H3201 0.984 . S
N3195 C3188 1.356 . S
N3195 H3198 0.984 . S
N3195 H3199 0.985 . S
H3196 N3191 0.984 . S
H3197 N3191 0.985 . S
H3198 N3195 0.984 . S
H3199 N3195 0.985 . S
H3200 N3194 0.984 . S
H3201 N3194 0.984 . S
H3202 N3190 0.984 . S
H3203 N3190 0.985 . S
C3204 C3205 1.363 . S
C3204 C3210 1.379 . S
C3204 N3212 1.356 . S
C3205 C3204 1.363 . S
C3205 C3211 1.363 . S
C3206 C3207 1.363 . S
C3206 C3211 1.379 . S
C3206 N3213 1.356 . S
C3207 C3206 1.363 . S
C3207 C3210 1.363 . S
N3208 C3210 1.356 . S
N3208 H3220 0.984 . S
N3208 H3221 0.985 . S
N3209 C3211 1.356 . S
N3209 H3214 0.984 . S
N3209 H3215 0.985 . S
C3210 C3204 1.379 . S
C3210 C3207 1.363 . S
C3210 N3208 1.356 . S
C3211 C3205 1.363 . S
C3211 C3206 1.379 . S
C3211 N3209 1.356 . S
N3212 C3204 1.356 . S
N3212 H3218 0.984 . S
N3212 H3219 0.984 . S
N3213 C3206 1.356 . S
N3213 H3216 0.984 . S
N3213 H3217 0.985 . S
H3214 N3209 0.984 . S
H3215 N3209 0.985 . S
H3216 N3213 0.984 . S
H3217 N3213 0.985 . S
H3218 N3212 0.984 . S
H3219 N3212 0.984 . S
H3220 N3208 0.984 . S
H3221 N3208 0.985 . S
C3222 C3223 1.363 . S
C3222 C3228 1.379 . S
C3222 N3230 1.356 . S
C3223 C3222 1.363 . S
C3223 C3229 1.363 . S
C3224 C3225 1.363 . S
C3224 C3229 1.379 . S
C3224 N3231 1.356 . S
C3225 C3224 1.363 . S
C3225 C3228 1.363 . S
N3226 C3228 1.356 . S
N3226 H3238 0.984 . S
N3226 H3239 0.985 . S
N3227 C3229 1.356 . S
N3227 H3232 0.984 . S
N3227 H3233 0.985 . S
C3228 C3222 1.379 . S
C3228 C3225 1.363 . S
C3228 N3226 1.356 . S
C3229 C3223 1.363 . S
C3229 C3224 1.379 . S
C3229 N3227 1.356 . S
N3230 C3222 1.356 . S
N3230 H3236 0.984 . S
N3230 H3237 0.984 . S
N3231 C3224 1.356 . S
N3231 H3234 0.984 . S
N3231 H3235 0.985 . S
H3232 N3227 0.984 . S
H3233 N3227 0.985 . S
H3234 N3231 0.984 . S
H3235 N3231 0.985 . S
H3236 N3230 0.984 . S
H3237 N3230 0.984 . S
H3238 N3226 0.984 . S
H3239 N3226 0.985 . S
C3240 C3241 1.363 . S
C3240 C3246 1.379 . S
C3240 N3248 1.356 . S
C3241 C3240 1.363 . S
C3241 C3247 1.363 . S
C3242 C3243 1.363 . S
C3242 C3247 1.379 . S
C3242 N3249 1.356 . S
C3243 C3242 1.363 . S
C3243 C3246 1.363 . S
N3244 C3246 1.356 . S
N3244 H3256 0.984 . S
N3244 H3257 0.985 . S
N3245 C3247 1.356 . S
N3245 H3250 0.984 . S
N3245 H3251 0.985 . S
C3246 C3240 1.379 . S
C3246 C3243 1.363 . S
C3246 N3244 1.356 . S
C3247 C3241 1.363 . S
C3247 C3242 1.379 . S
C3247 N3245 1.356 . S
N3248 C3240 1.356 . S
N3248 H3254 0.984 . S
N3248 H3255 0.984 . S
N3249 C3242 1.356 . S
N3249 H3252 0.984 . S
N3249 H3253 0.985 . S
H3250 N3245 0.984 . S
H3251 N3245 0.985 . S
H3252 N3249 0.984 . S
H3253 N3249 0.985 . S
H3254 N3248 0.984 . S
H3255 N3248 0.984 . S
H3256 N3244 0.984 . S
H3257 N3244 0.985 . S
C3258 C3259 1.363 . S
C3258 C3264 1.379 . S
C3258 N3266 1.356 . S
C3259 C3258 1.363 . S
C3259 C3265 1.363 . S
C3260 C3261 1.363 . S
C3260 C3265 1.379 . S
C3260 N3267 1.356 . S
C3261 C3260 1.363 . S
C3261 C3264 1.363 . S
N3262 C3264 1.356 . S
N3262 H3274 0.984 . S
N3262 H3275 0.985 . S
N3263 C3265 1.356 . S
N3263 H3268 0.984 . S
N3263 H3269 0.985 . S
C3264 C3258 1.379 . S
C3264 C3261 1.363 . S
C3264 N3262 1.356 . S
C3265 C3259 1.363 . S
C3265 C3260 1.379 . S
C3265 N3263 1.356 . S
N3266 C3258 1.356 . S
N3266 H3272 0.984 . S
N3266 H3273 0.984 . S
N3267 C3260 1.356 . S
N3267 H3270 0.984 . S
N3267 H3271 0.985 . S
H3268 N3263 0.984 . S
H3269 N3263 0.985 . S
H3270 N3267 0.984 . S
H3271 N3267 0.985 . S
H3272 N3266 0.984 . S
H3273 N3266 0.984 . S
H3274 N3262 0.984 . S
H3275 N3262 0.985 . S
C3276 C3277 1.363 . S
C3276 C3282 1.379 . S
C3276 N3284 1.356 . S
C3277 C3276 1.363 . S
C3277 C3283 1.363 . S
C3278 C3279 1.363 . S
C3278 C3283 1.379 . S
C3278 N3285 1.356 . S
C3279 C3278 1.363 . S
C3279 C3282 1.363 . S
N3280 C3282 1.356 . S
N3280 H3292 0.984 . S
N3280 H3293 0.985 . S
N3281 C3283 1.356 . S
N3281 H3286 0.984 . S
N3281 H3287 0.985 . S
C3282 C3276 1.379 . S
C3282 C3279 1.363 . S
C3282 N3280 1.356 . S
C3283 C3277 1.363 . S
C3283 C3278 1.379 . S
C3283 N3281 1.356 . S
N3284 C3276 1.356 . S
N3284 H3290 0.984 . S
N3284 H3291 0.984 . S
N3285 C3278 1.356 . S
N3285 H3288 0.984 . S
N3285 H3289 0.985 . S
H3286 N3281 0.984 . S
H3287 N3281 0.985 . S
H3288 N3285 0.984 . S
H3289 N3285 0.985 . S
H3290 N3284 0.984 . S
H3291 N3284 0.984 . S
H3292 N3280 0.984 . S
H3293 N3280 0.985 . S
C3294 C3295 1.363 . S
C3294 C3300 1.379 . S
C3294 N3302 1.356 . S
C3295 C3294 1.363 . S
C3295 C3301 1.363 . S
C3296 C3297 1.363 . S
C3296 C3301 1.379 . S
C3296 N3303 1.356 . S
C3297 C3296 1.363 . S
C3297 C3300 1.363 . S
N3298 C3300 1.356 . S
N3298 H3310 0.984 . S
N3298 H3311 0.985 . S
N3299 C3301 1.356 . S
N3299 H3304 0.984 . S
N3299 H3305 0.985 . S
C3300 C3294 1.379 . S
C3300 C3297 1.363 . S
C3300 N3298 1.356 . S
C3301 C3295 1.363 . S
C3301 C3296 1.379 . S
C3301 N3299 1.356 . S
N3302 C3294 1.356 . S
N3302 H3308 0.984 . S
N3302 H3309 0.984 . S
N3303 C3296 1.356 . S
N3303 H3306 0.984 . S
N3303 H3307 0.985 . S
H3304 N3299 0.984 . S
H3305 N3299 0.985 . S
H3306 N3303 0.984 . S
H3307 N3303 0.985 . S
H3308 N3302 0.984 . S
H3309 N3302 0.984 . S
H3310 N3298 0.984 . S
H3311 N3298 0.985 . S
C3312 C3313 1.363 . S
C3312 C3318 1.379 . S
C3312 N3320 1.356 . S
C3313 C3312 1.363 . S
C3313 C3319 1.363 . S
C3314 C3315 1.363 . S
C3314 C3319 1.379 . S
C3314 N3321 1.356 . S
C3315 C3314 1.363 . S
C3315 C3318 1.363 . S
N3316 C3318 1.356 . S
N3316 H3328 0.984 . S
N3316 H3329 0.985 . S
N3317 C3319 1.356 . S
N3317 H3322 0.984 . S
N3317 H3323 0.985 . S
C3318 C3312 1.379 . S
C3318 C3315 1.363 . S
C3318 N3316 1.356 . S
C3319 C3313 1.363 . S
C3319 C3314 1.379 . S
C3319 N3317 1.356 . S
N3320 C3312 1.356 . S
N3320 H3326 0.984 . S
N3320 H3327 0.984 . S
N3321 C3314 1.356 . S
N3321 H3324 0.984 . S
N3321 H3325 0.985 . S
H3322 N3317 0.984 . S
H3323 N3317 0.985 . S
H3324 N3321 0.984 . S
H3325 N3321 0.985 . S
H3326 N3320 0.984 . S
H3327 N3320 0.984 . S
H3328 N3316 0.984 . S
H3329 N3316 0.985 . S
C3330 C3331 1.363 . S
C3330 C3336 1.379 . S
C3330 N3338 1.356 . S
C3331 C3330 1.363 . S
C3331 C3337 1.363 . S
C3332 C3333 1.363 . S
C3332 C3337 1.379 . S
C3332 N3339 1.356 . S
C3333 C3332 1.363 . S
C3333 C3336 1.363 . S
N3334 C3336 1.356 . S
N3334 H3346 0.984 . S
N3334 H3347 0.985 . S
N3335 C3337 1.356 . S
N3335 H3340 0.984 . S
N3335 H3341 0.985 . S
C3336 C3330 1.379 . S
C3336 C3333 1.363 . S
C3336 N3334 1.356 . S
C3337 C3331 1.363 . S
C3337 C3332 1.379 . S
C3337 N3335 1.356 . S
N3338 C3330 1.356 . S
N3338 H3344 0.984 . S
N3338 H3345 0.984 . S
N3339 C3332 1.356 . S
N3339 H3342 0.984 . S
N3339 H3343 0.985 . S
H3340 N3335 0.984 . S
H3341 N3335 0.985 . S
H3342 N3339 0.984 . S
H3343 N3339 0.985 . S
H3344 N3338 0.984 . S
H3345 N3338 0.984 . S
H3346 N3334 0.984 . S
H3347 N3334 0.985 . S
C3348 C3349 1.363 1_655 S
C3348 C3354 1.379 . S
C3348 N3356 1.356 . S
C3349 C3348 1.363 1_455 S
C3349 C3355 1.363 . S
C3350 C3351 1.363 . S
C3350 C3355 1.379 . S
C3350 N3357 1.356 1_554 S
C3351 C3350 1.363 . S
C3351 C3354 1.363 1_455 S
N3352 C3354 1.356 . S
N3352 H3364 0.984 . S
N3352 H3365 0.985 . S
N3353 C3355 1.356 . S
N3353 H3358 0.984 . S
N3353 H3359 0.985 1_554 S
C3354 C3348 1.379 . S
C3354 C3351 1.363 1_655 S
C3354 N3352 1.356 . S
C3355 C3349 1.363 . S
C3355 C3350 1.379 . S
C3355 N3353 1.356 . S
N3356 C3348 1.356 . S
N3356 H3362 0.984 . S
N3356 H3363 0.984 . S
N3357 C3350 1.356 1_556 S
N3357 H3360 0.984 . S
N3357 H3361 0.985 . S
H3358 N3353 0.984 . S
H3359 N3353 0.985 1_556 S
H3360 N3357 0.984 . S
H3361 N3357 0.985 . S
H3362 N3356 0.984 . S
H3363 N3356 0.984 . S
H3364 N3352 0.984 . S
H3365 N3352 0.985 . S
C3366 C3367 1.363 . S
C3366 C3372 1.379 . S
C3366 N3374 1.356 . S
C3367 C3366 1.363 . S
C3367 C3373 1.363 . S
C3368 C3369 1.363 . S
C3368 C3373 1.379 . S
C3368 N3375 1.356 . S
C3369 C3368 1.363 . S
C3369 C3372 1.363 . S
N3370 C3372 1.356 . S
N3370 H3382 0.984 . S
N3370 H3383 0.985 . S
N3371 C3373 1.356 . S
N3371 H3376 0.984 . S
N3371 H3377 0.985 . S
C3372 C3366 1.379 . S
C3372 C3369 1.363 . S
C3372 N3370 1.356 . S
C3373 C3367 1.363 . S
C3373 C3368 1.379 . S
C3373 N3371 1.356 . S
N3374 C3366 1.356 . S
N3374 H3380 0.984 . S
N3374 H3381 0.984 . S
N3375 C3368 1.356 . S
N3375 H3378 0.984 . S
N3375 H3379 0.985 . S
H3376 N3371 0.984 . S
H3377 N3371 0.985 . S
H3378 N3375 0.984 . S
H3379 N3375 0.985 . S
H3380 N3374 0.984 . S
H3381 N3374 0.984 . S
H3382 N3370 0.984 . S
H3383 N3370 0.985 . S
C3384 C3385 1.363 . S
C3384 C3390 1.379 . S
C3384 N3392 1.356 . S
C3385 C3384 1.363 . S
C3385 C3391 1.363 . S
C3386 C3387 1.363 . S
C3386 C3391 1.379 . S
C3386 N3393 1.356 1_556 S
C3387 C3386 1.363 . S
C3387 C3390 1.363 . S
N3388 C3390 1.356 . S
N3388 H3400 0.984 . S
N3388 H3401 0.985 . S
N3389 C3391 1.356 . S
N3389 H3394 0.984 . S
N3389 H3395 0.992 . S
C3390 C3384 1.379 . S
C3390 C3387 1.363 . S
C3390 N3388 1.356 . S
C3391 C3385 1.363 . S
C3391 C3386 1.379 . S
C3391 N3389 1.356 . S
N3392 C3384 1.356 . S
N3392 H3398 0.984 . S
N3392 H3399 0.984 . S
N3393 C3386 1.356 1_554 S
N3393 H3396 0.984 . S
N3393 H3397 0.985 . S
H3394 N3389 0.984 . S
H3395 N3389 0.992 . S
H3396 N3393 0.984 . S
H3397 N3393 0.985 . S
H3398 N3392 0.984 . S
H3399 N3392 0.984 . S
H3400 N3388 0.984 . S
H3401 N3388 0.985 . S
C3402 C3403 1.363 . S
C3402 C3408 1.379 . S
C3402 N3410 1.356 . S
C3403 C3402 1.363 . S
C3403 C3409 1.363 . S
C3404 C3405 1.363 . S
C3404 C3409 1.379 . S
C3404 N3411 1.356 . S
C3405 C3404 1.363 . S
C3405 C3408 1.363 . S
N3406 C3408 1.356 . S
N3406 H3418 0.984 . S
N3406 H3419 0.985 . S
N3407 C3409 1.356 . S
N3407 H3412 0.984 . S
N3407 H3413 0.985 . S
C3408 C3402 1.379 . S
C3408 C3405 1.363 . S
C3408 N3406 1.356 . S
C3409 C3403 1.363 . S
C3409 C3404 1.379 . S
C3409 N3407 1.356 . S
N3410 C3402 1.356 . S
N3410 H3416 0.984 . S
N3410 H3417 0.984 . S
N3411 C3404 1.356 . S
N3411 H3414 0.984 . S
N3411 H3415 0.985 . S
H3412 N3407 0.984 . S
H3413 N3407 0.985 . S
H3414 N3411 0.984 . S
H3415 N3411 0.985 . S
H3416 N3410 0.984 . S
H3417 N3410 0.984 . S
H3418 N3406 0.984 . S
H3419 N3406 0.985 . S
C3420 C3421 1.363 . S
C3420 C3426 1.379 . S
C3420 N3428 1.356 . S
C3421 C3420 1.363 . S
C3421 C3427 1.350 1_455 S
C3422 C3423 1.363 . S
C3422 C3427 1.373 1_455 S
C3422 N3429 1.356 1_455 S
C3423 C3422 1.363 . S
C3423 C3426 1.363 . S
N3424 C3426 1.356 . S
N3424 H3436 0.984 . S
N3424 H3437 0.985 . S
N3425 C3427 1.375 . S
N3425 H3430 0.984 . S
N3425 H3431 0.985 . S
C3426 C3420 1.379 . S
C3426 C3423 1.363 . S
C3426 N3424 1.356 . S
C3427 C3421 1.350 1_655 S
C3427 C3422 1.373 1_655 S
C3427 N3425 1.375 . S
N3428 C3420 1.356 . S
N3428 H3434 0.984 . S
N3428 H3435 0.984 . S
N3429 C3422 1.356 1_655 S
N3429 H3432 0.984 1_655 S
N3429 H3433 0.985 . S
H3430 N3425 0.984 . S
H3431 N3425 0.985 . S
H3432 N3429 0.984 1_455 S
H3433 N3429 0.985 . S
H3434 N3428 0.984 . S
H3435 N3428 0.984 . S
H3436 N3424 0.984 . S
H3437 N3424 0.985 . S
C3438 C3439 1.363 . S
C3438 C3444 1.379 . S
C3438 N3446 1.356 . S
C3439 C3438 1.363 . S
C3439 C3445 1.363 . S
C3440 C3441 1.363 . S
C3440 C3445 1.379 . S
C3440 N3447 1.356 . S
C3441 C3440 1.363 . S
C3441 C3444 1.363 . S
N3442 C3444 1.356 . S
N3442 H3454 0.984 . S
N3442 H3455 0.985 . S
N3443 C3445 1.356 . S
N3443 H3448 0.984 . S
N3443 H3449 0.985 . S
C3444 C3438 1.379 . S
C3444 C3441 1.363 . S
C3444 N3442 1.356 . S
C3445 C3439 1.363 . S
C3445 C3440 1.379 . S
C3445 N3443 1.356 . S
N3446 C3438 1.356 . S
N3446 H3452 0.984 . S
N3446 H3453 0.984 . S
N3447 C3440 1.356 . S
N3447 H3450 0.984 . S
N3447 H3451 0.985 . S
H3448 N3443 0.984 . S
H3449 N3443 0.985 . S
H3450 N3447 0.984 . S
H3451 N3447 0.985 . S
H3452 N3446 0.984 . S
H3453 N3446 0.984 . S
H3454 N3442 0.984 . S
H3455 N3442 0.985 . S
C3456 C3457 1.363 . S
C3456 C3462 1.379 . S
C3456 N3464 1.356 . S
C3457 C3456 1.363 . S
C3457 C3463 1.363 . S
C3458 C3459 1.363 . S
C3458 C3463 1.379 . S
C3458 N3465 1.356 . S
C3459 C3458 1.363 . S
C3459 C3462 1.363 . S
N3460 C3462 1.356 . S
N3460 H3472 0.984 . S
N3460 H3473 0.985 . S
N3461 C3463 1.356 . S
N3461 H3466 0.984 . S
N3461 H3467 0.985 . S
C3462 C3456 1.379 . S
C3462 C3459 1.363 . S
C3462 N3460 1.356 . S
C3463 C3457 1.363 . S
C3463 C3458 1.379 . S
C3463 N3461 1.356 . S
N3464 C3456 1.356 . S
N3464 H3470 0.984 . S
N3464 H3471 0.984 . S
N3465 C3458 1.356 . S
N3465 H3468 0.984 . S
N3465 H3469 0.985 . S
H3466 N3461 0.984 . S
H3467 N3461 0.985 . S
H3468 N3465 0.984 . S
H3469 N3465 0.985 . S
H3470 N3464 0.984 . S
H3471 N3464 0.984 . S
H3472 N3460 0.984 . S
H3473 N3460 0.985 . S
C3474 C3475 1.363 . S
C3474 C3480 1.379 . S
C3474 N3482 1.356 . S
C3475 C3474 1.363 . S
C3475 C3481 1.363 . S
C3476 C3477 1.363 . S
C3476 C3481 1.379 . S
C3476 N3483 1.356 . S
C3477 C3476 1.363 . S
C3477 C3480 1.363 . S
N3478 C3480 1.356 . S
N3478 H3490 0.984 . S
N3478 H3491 0.985 . S
N3479 C3481 1.356 . S
N3479 H3484 0.984 . S
N3479 H3485 0.985 . S
C3480 C3474 1.379 . S
C3480 C3477 1.363 . S
C3480 N3478 1.356 . S
C3481 C3475 1.363 . S
C3481 C3476 1.379 . S
C3481 N3479 1.356 . S
N3482 C3474 1.356 . S
N3482 H3488 0.984 . S
N3482 H3489 0.984 . S
N3483 C3476 1.356 . S
N3483 H3486 0.984 . S
N3483 H3487 0.985 . S
H3484 N3479 0.984 . S
H3485 N3479 0.985 . S
H3486 N3483 0.984 . S
H3487 N3483 0.985 . S
H3488 N3482 0.984 . S
H3489 N3482 0.984 . S
H3490 N3478 0.984 . S
H3491 N3478 0.985 . S
C3492 C3493 1.363 . S
C3492 C3498 1.379 . S
C3492 N3500 1.356 . S
C3493 C3492 1.363 . S
C3493 C3499 1.363 . S
C3494 C3495 1.363 . S
C3494 C3499 1.379 . S
C3494 N3501 1.356 . S
C3495 C3494 1.363 . S
C3495 C3498 1.363 . S
N3496 C3498 1.357 1_455 S
N3496 H3508 0.984 . S
N3496 H3509 0.984 . S
N3497 C3499 1.356 . S
N3497 H3502 0.984 . S
N3497 H3503 0.985 . S
C3498 C3492 1.379 . S
C3498 C3495 1.363 . S
C3498 N3496 1.357 1_655 S
C3499 C3493 1.363 . S
C3499 C3494 1.379 . S
C3499 N3497 1.356 . S
N3500 C3492 1.356 . S
N3500 H3506 0.984 . S
N3500 H3507 0.984 . S
N3501 C3494 1.356 . S
N3501 H3504 0.984 . S
N3501 H3505 0.985 . S
H3502 N3497 0.984 . S
H3503 N3497 0.985 . S
H3504 N3501 0.984 . S
H3505 N3501 0.985 . S
H3506 N3500 0.984 . S
H3507 N3500 0.984 . S
H3508 N3496 0.984 . S
H3509 N3496 0.984 . S
C3510 C3511 1.363 . S
C3510 C3516 1.379 . S
C3510 N3518 1.356 . S
C3511 C3510 1.363 . S
C3511 C3517 1.363 . S
C3512 C3513 1.363 . S
C3512 C3517 1.379 . S
C3512 N3519 1.356 . S
C3513 C3512 1.363 . S
C3513 C3516 1.363 . S
N3514 C3516 1.356 . S
N3514 H3526 0.984 . S
N3514 H3527 0.985 . S
N3515 C3517 1.356 . S
N3515 H3520 0.984 . S
N3515 H3521 0.985 . S
C3516 C3510 1.379 . S
C3516 C3513 1.363 . S
C3516 N3514 1.356 . S
C3517 C3511 1.363 . S
C3517 C3512 1.379 . S
C3517 N3515 1.356 . S
N3518 C3510 1.356 . S
N3518 H3524 0.984 . S
N3518 H3525 0.984 . S
N3519 C3512 1.356 . S
N3519 H3522 0.984 . S
N3519 H3523 0.985 . S
H3520 N3515 0.984 . S
H3521 N3515 0.985 . S
H3522 N3519 0.984 . S
H3523 N3519 0.985 . S
H3524 N3518 0.984 . S
H3525 N3518 0.984 . S
H3526 N3514 0.984 . S
H3527 N3514 0.985 . S
C3528 C3529 1.363 . S
C3528 C3534 1.379 . S
C3528 N3536 1.356 . S
C3529 C3528 1.363 . S
C3529 C3535 1.363 . S
C3530 C3531 1.363 . S
C3530 C3535 1.379 . S
C3530 N3537 1.356 . S
C3531 C3530 1.363 . S
C3531 C3534 1.363 . S
N3532 C3534 1.356 . S
N3532 H3544 0.984 . S
N3532 H3545 0.985 . S
N3533 C3535 1.356 . S
N3533 H3538 0.984 . S
N3533 H3539 0.985 . S
C3534 C3528 1.379 . S
C3534 C3531 1.363 . S
C3534 N3532 1.356 . S
C3535 C3529 1.363 . S
C3535 C3530 1.379 . S
C3535 N3533 1.356 . S
N3536 C3528 1.356 . S
N3536 H3542 0.984 . S
N3536 H3543 0.984 . S
N3537 C3530 1.356 . S
N3537 H3540 0.984 . S
N3537 H3541 0.985 . S
H3538 N3533 0.984 . S
H3539 N3533 0.985 . S
H3540 N3537 0.984 . S
H3541 N3537 0.985 . S
H3542 N3536 0.984 . S
H3543 N3536 0.984 . S
H3544 N3532 0.984 . S
H3545 N3532 0.985 . S
C3546 C3547 1.363 . S
C3546 C3552 1.379 . S
C3546 N3554 1.356 . S
C3547 C3546 1.363 . S
C3547 C3553 1.363 . S
C3548 C3549 1.363 . S
C3548 C3553 1.379 . S
C3548 N3555 1.356 . S
C3549 C3548 1.363 . S
C3549 C3552 1.363 . S
N3550 C3552 1.356 . S
N3550 H3562 0.984 . S
N3550 H3563 0.985 . S
N3551 C3553 1.356 . S
N3551 H3556 0.984 . S
N3551 H3557 0.985 . S
C3552 C3546 1.379 . S
C3552 C3549 1.363 . S
C3552 N3550 1.356 . S
C3553 C3547 1.363 . S
C3553 C3548 1.379 . S
C3553 N3551 1.356 . S
N3554 C3546 1.356 . S
N3554 H3560 0.984 . S
N3554 H3561 0.984 . S
N3555 C3548 1.356 . S
N3555 H3558 0.984 . S
N3555 H3559 0.985 . S
H3556 N3551 0.984 . S
H3557 N3551 0.985 . S
H3558 N3555 0.984 . S
H3559 N3555 0.985 . S
H3560 N3554 0.984 . S
H3561 N3554 0.984 . S
H3562 N3550 0.984 . S
H3563 N3550 0.985 . S
C3564 C3565 1.363 . S
C3564 C3570 1.379 . S
C3564 N3572 1.356 . S
C3565 C3564 1.363 . S
C3565 C3571 1.363 . S
C3566 C3567 1.363 . S
C3566 C3571 1.379 . S
C3566 N3573 1.356 . S
C3567 C3566 1.363 . S
C3567 C3570 1.363 . S
N3568 C3570 1.356 . S
N3568 H3580 0.984 1_655 S
N3568 H3581 0.985 . S
N3569 C3571 1.356 . S
N3569 H3574 0.984 . S
N3569 H3575 0.985 . S
C3570 C3564 1.379 . S
C3570 C3567 1.363 . S
C3570 N3568 1.356 . S
C3571 C3565 1.363 . S
C3571 C3566 1.379 . S
C3571 N3569 1.356 . S
N3572 C3564 1.356 . S
N3572 H3578 0.984 . S
N3572 H3579 0.984 . S
N3573 C3566 1.356 . S
N3573 H3576 0.984 . S
N3573 H3577 0.985 . S
H3574 N3569 0.984 . S
H3575 N3569 0.985 . S
H3576 N3573 0.984 . S
H3577 N3573 0.985 . S
H3578 N3572 0.984 . S
H3579 N3572 0.984 . S
H3580 N3568 0.984 1_455 S
H3581 N3568 0.985 . S
C3582 C3583 1.363 . S
C3582 C3588 1.379 . S
C3582 N3590 1.356 . S
C3583 C3582 1.363 . S
C3583 C3589 1.363 . S
C3584 C3585 1.363 . S
C3584 C3589 1.379 . S
C3584 N3591 1.356 . S
C3585 C3584 1.363 . S
C3585 C3588 1.363 . S
N3586 C3588 1.356 . S
N3586 H3598 0.984 . S
N3586 H3599 0.985 . S
N3587 C3589 1.356 . S
N3587 H3592 0.984 . S
N3587 H3593 0.985 . S
C3588 C3582 1.379 . S
C3588 C3585 1.363 . S
C3588 N3586 1.356 . S
C3589 C3583 1.363 . S
C3589 C3584 1.379 . S
C3589 N3587 1.356 . S
N3590 C3582 1.356 . S
N3590 H3596 0.984 . S
N3590 H3597 0.984 . S
N3591 C3584 1.356 . S
N3591 H3594 0.984 . S
N3591 H3595 0.985 . S
H3592 N3587 0.984 . S
H3593 N3587 0.985 . S
H3594 N3591 0.984 . S
H3595 N3591 0.985 . S
H3596 N3590 0.984 . S
H3597 N3590 0.984 . S
H3598 N3586 0.984 . S
H3599 N3586 0.985 . S
C3600 C3601 1.363 . S
C3600 C3606 1.379 . S
C3600 N3608 1.356 . S
C3601 C3600 1.363 . S
C3601 C3607 1.363 . S
C3602 C3603 1.363 . S
C3602 C3607 1.379 . S
C3602 N3609 1.356 . S
C3603 C3602 1.363 . S
C3603 C3606 1.363 . S
N3604 C3606 1.356 . S
N3604 H3616 0.984 . S
N3604 H3617 0.985 . S
N3605 C3607 1.356 . S
N3605 H3610 0.984 . S
N3605 H3611 0.985 . S
C3606 C3600 1.379 . S
C3606 C3603 1.363 . S
C3606 N3604 1.356 . S
C3607 C3601 1.363 . S
C3607 C3602 1.379 . S
C3607 N3605 1.356 . S
N3608 C3600 1.356 . S
N3608 H3614 0.984 . S
N3608 H3615 0.984 . S
N3609 C3602 1.356 . S
N3609 H3612 0.984 . S
N3609 H3613 0.985 . S
H3610 N3605 0.984 . S
H3611 N3605 0.985 . S
H3612 N3609 0.984 . S
H3613 N3609 0.985 . S
H3614 N3608 0.984 . S
H3615 N3608 0.984 . S
H3616 N3604 0.984 . S
H3617 N3604 0.985 . S
C3618 C3619 1.363 . S
C3618 C3624 1.379 . S
C3618 N3626 1.356 . S
C3619 C3618 1.363 . S
C3619 C3625 1.363 . S
C3620 C3621 1.363 . S
C3620 C3625 1.379 . S
C3620 N3627 1.356 . S
C3621 C3620 1.363 . S
C3621 C3624 1.363 . S
N3622 C3624 1.356 . S
N3622 H3634 0.984 . S
N3622 H3635 0.985 . S
N3623 C3625 1.356 . S
N3623 H3628 0.984 . S
N3623 H3629 0.985 . S
C3624 C3618 1.379 . S
C3624 C3621 1.363 . S
C3624 N3622 1.356 . S
C3625 C3619 1.363 . S
C3625 C3620 1.379 . S
C3625 N3623 1.356 . S
N3626 C3618 1.356 . S
N3626 H3632 0.984 . S
N3626 H3633 0.984 . S
N3627 C3620 1.356 . S
N3627 H3630 0.984 . S
N3627 H3631 0.985 . S
H3628 N3623 0.984 . S
H3629 N3623 0.985 . S
H3630 N3627 0.984 . S
H3631 N3627 0.985 . S
H3632 N3626 0.984 . S
H3633 N3626 0.984 . S
H3634 N3622 0.984 . S
H3635 N3622 0.985 . S
C3636 C3637 1.363 . S
C3636 C3642 1.379 . S
C3636 N3644 1.356 . S
C3637 C3636 1.363 . S
C3637 C3643 1.363 . S
C3638 C3639 1.363 . S
C3638 C3643 1.379 . S
C3638 N3645 1.356 . S
C3639 C3638 1.363 . S
C3639 C3642 1.363 . S
N3640 C3642 1.356 . S
N3640 H3652 0.984 . S
N3640 H3653 0.985 . S
N3641 C3643 1.356 . S
N3641 H3646 0.984 . S
N3641 H3647 0.985 . S
C3642 C3636 1.379 . S
C3642 C3639 1.363 . S
C3642 N3640 1.356 . S
C3643 C3637 1.363 . S
C3643 C3638 1.379 . S
C3643 N3641 1.356 . S
N3644 C3636 1.356 . S
N3644 H3650 0.984 . S
N3644 H3651 0.984 . S
N3645 C3638 1.356 . S
N3645 H3648 0.984 . S
N3645 H3649 0.985 . S
H3646 N3641 0.984 . S
H3647 N3641 0.985 . S
H3648 N3645 0.984 . S
H3649 N3645 0.985 . S
H3650 N3644 0.984 . S
H3651 N3644 0.984 . S
H3652 N3640 0.984 . S
H3653 N3640 0.985 . S
C3654 C3655 1.363 1_556 S
C3654 C3660 1.379 . S
C3654 N3662 1.356 . S
C3655 C3654 1.363 1_554 S
C3655 C3661 1.363 . S
C3656 C3657 1.363 . S
C3656 C3661 1.379 . S
C3656 N3663 1.356 . S
C3657 C3656 1.363 . S
C3657 C3660 1.363 1_554 S
N3658 C3660 1.356 1_565 S
N3658 H3670 0.984 . S
N3658 H3671 0.985 . S
N3659 C3661 1.356 . S
N3659 H3664 0.984 . S
N3659 H3665 0.985 . S
C3660 C3654 1.379 . S
C3660 C3657 1.363 1_556 S
C3660 N3658 1.356 1_545 S
C3661 C3655 1.363 . S
C3661 C3656 1.379 . S
C3661 N3659 1.356 . S
N3662 C3654 1.356 . S
N3662 H3668 0.984 . S
N3662 H3669 0.984 . S
N3663 C3656 1.356 . S
N3663 H3666 0.984 . S
N3663 H3667 0.985 . S
H3664 N3659 0.984 . S
H3665 N3659 0.985 . S
H3666 N3663 0.984 . S
H3667 N3663 0.985 . S
H3668 N3662 0.984 . S
H3669 N3662 0.984 . S
H3670 N3658 0.984 . S
H3671 N3658 0.985 . S
C3672 C3673 1.363 . S
C3672 C3678 1.379 . S
C3672 N3680 1.356 . S
C3673 C3672 1.363 . S
C3673 C3679 1.363 . S
C3674 C3675 1.363 . S
C3674 C3679 1.379 . S
C3674 N3681 1.356 . S
C3675 C3674 1.363 . S
C3675 C3678 1.363 . S
N3676 C3678 1.356 . S
N3676 H3688 0.984 . S
N3676 H3689 0.985 . S
N3677 C3679 1.356 . S
N3677 H3682 0.984 . S
N3677 H3683 0.985 . S
C3678 C3672 1.379 . S
C3678 C3675 1.363 . S
C3678 N3676 1.356 . S
C3679 C3673 1.363 . S
C3679 C3674 1.379 . S
C3679 N3677 1.356 . S
N3680 C3672 1.356 . S
N3680 H3686 0.984 . S
N3680 H3687 0.984 . S
N3681 C3674 1.356 . S
N3681 H3684 0.984 . S
N3681 H3685 0.985 . S
H3682 N3677 0.984 . S
H3683 N3677 0.985 . S
H3684 N3681 0.984 . S
H3685 N3681 0.985 . S
H3686 N3680 0.984 . S
H3687 N3680 0.984 . S
H3688 N3676 0.984 . S
H3689 N3676 0.985 . S
C3690 C3691 1.363 . S
C3690 C3696 1.379 . S
C3690 N3698 1.356 . S
C3691 C3690 1.363 . S
C3691 C3697 1.363 1_554 S
C3692 C3693 1.363 . S
C3692 C3697 1.379 . S
C3692 N3699 1.356 . S
C3693 C3692 1.363 . S
C3693 C3696 1.363 1_556 S
N3694 C3696 1.356 . S
N3694 H3706 0.984 . S
N3694 H3707 0.985 . S
N3695 C3697 1.356 . S
N3695 H3700 0.984 . S
N3695 H3701 0.985 . S
C3696 C3690 1.379 . S
C3696 C3693 1.363 1_554 S
C3696 N3694 1.356 . S
C3697 C3691 1.363 1_556 S
C3697 C3692 1.379 . S
C3697 N3695 1.356 . S
N3698 C3690 1.356 . S
N3698 H3704 0.984 . S
N3698 H3705 0.984 . S
N3699 C3692 1.356 . S
N3699 H3702 0.984 . S
N3699 H3703 0.985 . S
H3700 N3695 0.984 . S
H3701 N3695 0.985 . S
H3702 N3699 0.984 . S
H3703 N3699 0.985 . S
H3704 N3698 0.984 . S
H3705 N3698 0.984 . S
H3706 N3694 0.984 . S
H3707 N3694 0.985 . S
C3708 C3709 1.363 . S
C3708 C3714 1.379 . S
C3708 N3716 1.356 . S
C3709 C3708 1.363 . S
C3709 C3715 1.363 . S
C3710 C3711 1.363 . S
C3710 C3715 1.379 . S
C3710 N3717 1.356 . S
C3711 C3710 1.363 . S
C3711 C3714 1.363 . S
N3712 C3714 1.356 . S
N3712 H3724 0.984 . S
N3712 H3725 0.985 . S
N3713 C3715 1.356 . S
N3713 H3718 0.984 . S
N3713 H3719 0.985 . S
C3714 C3708 1.379 . S
C3714 C3711 1.363 . S
C3714 N3712 1.356 . S
C3715 C3709 1.363 . S
C3715 C3710 1.379 . S
C3715 N3713 1.356 . S
N3716 C3708 1.356 . S
N3716 H3722 0.984 . S
N3716 H3723 0.984 . S
N3717 C3710 1.356 . S
N3717 H3720 0.984 . S
N3717 H3721 0.985 . S
H3718 N3713 0.984 . S
H3719 N3713 0.985 . S
H3720 N3717 0.984 . S
H3721 N3717 0.985 . S
H3722 N3716 0.984 . S
H3723 N3716 0.984 . S
H3724 N3712 0.984 . S
H3725 N3712 0.985 . S
C3726 C3727 1.363 . S
C3726 C3732 1.379 . S
C3726 N3734 1.356 . S
C3727 C3726 1.363 . S
C3727 C3733 1.363 . S
C3728 C3729 1.363 . S
C3728 C3733 1.379 . S
C3728 N3735 1.356 . S
C3729 C3728 1.363 . S
C3729 C3732 1.363 . S
N3730 C3732 1.356 . S
N3730 H3742 0.984 . S
N3730 H3743 0.985 . S
N3731 C3733 1.356 . S
N3731 H3736 0.984 . S
N3731 H3737 0.985 . S
C3732 C3726 1.379 . S
C3732 C3729 1.363 . S
C3732 N3730 1.356 . S
C3733 C3727 1.363 . S
C3733 C3728 1.379 . S
C3733 N3731 1.356 . S
N3734 C3726 1.356 . S
N3734 H3740 0.984 . S
N3734 H3741 0.984 . S
N3735 C3728 1.356 . S
N3735 H3738 0.984 . S
N3735 H3739 0.985 . S
H3736 N3731 0.984 . S
H3737 N3731 0.985 . S
H3738 N3735 0.984 . S
H3739 N3735 0.985 . S
H3740 N3734 0.984 . S
H3741 N3734 0.984 . S
H3742 N3730 0.984 . S
H3743 N3730 0.985 . S
C3744 C3745 1.363 . S
C3744 C3750 1.379 . S
C3744 N3752 1.356 . S
C3745 C3744 1.363 . S
C3745 C3751 1.363 . S
C3746 C3747 1.363 . S
C3746 C3751 1.379 . S
C3746 N3753 1.356 . S
C3747 C3746 1.363 . S
C3747 C3750 1.363 . S
N3748 C3750 1.356 . S
N3748 H3760 0.984 . S
N3748 H3761 0.985 . S
N3749 C3751 1.356 . S
N3749 H3754 0.984 . S
N3749 H3755 0.985 . S
C3750 C3744 1.379 . S
C3750 C3747 1.363 . S
C3750 N3748 1.356 . S
C3751 C3745 1.363 . S
C3751 C3746 1.379 . S
C3751 N3749 1.356 . S
N3752 C3744 1.356 . S
N3752 H3758 0.984 . S
N3752 H3759 0.984 . S
N3753 C3746 1.356 . S
N3753 H3756 0.984 . S
N3753 H3757 0.985 . S
H3754 N3749 0.984 . S
H3755 N3749 0.985 . S
H3756 N3753 0.984 . S
H3757 N3753 0.985 . S
H3758 N3752 0.984 . S
H3759 N3752 0.984 . S
H3760 N3748 0.984 . S
H3761 N3748 0.985 . S
C3762 C3763 1.363 . S
C3762 C3768 1.379 . S
C3762 N3770 1.356 . S
C3763 C3762 1.363 . S
C3763 C3769 1.363 . S
C3764 C3765 1.363 . S
C3764 C3769 1.379 . S
C3764 N3771 1.356 . S
C3765 C3764 1.363 . S
C3765 C3768 1.363 . S
N3766 C3768 1.356 . S
N3766 H3778 0.984 . S
N3766 H3779 0.985 . S
N3767 C3769 1.356 . S
N3767 H3772 0.984 . S
N3767 H3773 0.985 . S
C3768 C3762 1.379 . S
C3768 C3765 1.363 . S
C3768 N3766 1.356 . S
C3769 C3763 1.363 . S
C3769 C3764 1.379 . S
C3769 N3767 1.356 . S
N3770 C3762 1.356 . S
N3770 H3776 0.984 . S
N3770 H3777 0.984 . S
N3771 C3764 1.356 . S
N3771 H3774 0.984 . S
N3771 H3775 0.985 . S
H3772 N3767 0.984 . S
H3773 N3767 0.985 . S
H3774 N3771 0.984 . S
H3775 N3771 0.985 . S
H3776 N3770 0.984 . S
H3777 N3770 0.984 . S
H3778 N3766 0.984 . S
H3779 N3766 0.985 . S
C3780 C3781 1.363 1_655 S
C3780 C3786 1.379 . S
C3780 N3788 1.356 . S
C3781 C3780 1.363 1_455 S
C3781 C3787 1.363 . S
C3782 C3783 1.363 1_455 S
C3782 C3787 1.379 . S
C3782 N3789 1.356 1_556 S
C3783 C3782 1.363 1_655 S
C3783 C3786 1.363 . S
N3784 C3786 1.356 . S
N3784 H3796 0.984 . S
N3784 H3797 0.985 . S
N3785 C3787 1.356 . S
N3785 H3790 0.984 . S
N3785 H3791 0.985 1_556 S
C3786 C3780 1.379 . S
C3786 C3783 1.363 . S
C3786 N3784 1.356 . S
C3787 C3781 1.363 . S
C3787 C3782 1.379 . S
C3787 N3785 1.356 . S
N3788 C3780 1.356 . S
N3788 H3794 0.984 . S
N3788 H3795 0.984 . S
N3789 C3782 1.356 1_554 S
N3789 H3792 0.984 . S
N3789 H3793 0.985 . S
H3790 N3785 0.984 . S
H3791 N3785 0.985 1_554 S
H3792 N3789 0.984 . S
H3793 N3789 0.985 . S
H3794 N3788 0.984 . S
H3795 N3788 0.984 . S
H3796 N3784 0.984 . S
H3797 N3784 0.985 . S
C3798 C3799 1.363 . S
C3798 C3804 1.379 . S
C3798 N3806 1.356 . S
C3799 C3798 1.363 . S
C3799 C3805 1.363 . S
C3800 C3801 1.363 . S
C3800 C3805 1.379 . S
C3800 N3807 1.356 . S
C3801 C3800 1.363 . S
C3801 C3804 1.363 . S
N3802 C3804 1.356 . S
N3802 H3814 0.984 . S
N3802 H3815 0.985 . S
N3803 C3805 1.356 . S
N3803 H3808 0.984 . S
N3803 H3809 0.985 . S
C3804 C3798 1.379 . S
C3804 C3801 1.363 . S
C3804 N3802 1.356 . S
C3805 C3799 1.363 . S
C3805 C3800 1.379 . S
C3805 N3803 1.356 . S
N3806 C3798 1.356 . S
N3806 H3812 0.984 . S
N3806 H3813 0.984 . S
N3807 C3800 1.356 . S
N3807 H3810 0.984 . S
N3807 H3811 0.985 . S
H3808 N3803 0.984 . S
H3809 N3803 0.985 . S
H3810 N3807 0.984 . S
H3811 N3807 0.985 . S
H3812 N3806 0.984 . S
H3813 N3806 0.984 . S
H3814 N3802 0.984 . S
H3815 N3802 0.985 . S
C3816 C3817 1.363 . S
C3816 C3822 1.379 . S
C3816 N3824 1.356 . S
C3817 C3816 1.363 . S
C3817 C3823 1.363 . S
C3818 C3819 1.363 . S
C3818 C3823 1.379 . S
C3818 N3825 1.373 . S
C3819 C3818 1.363 . S
C3819 C3822 1.363 . S
N3820 C3822 1.356 . S
N3820 H3832 0.984 . S
N3820 H3833 0.985 . S
N3821 C3823 1.356 . S
N3821 H3826 0.984 . S
N3821 H3827 1.011 . S
C3822 C3816 1.379 . S
C3822 C3819 1.363 . S
C3822 N3820 1.356 . S
C3823 C3817 1.363 . S
C3823 C3818 1.379 . S
C3823 N3821 1.356 . S
N3824 C3816 1.356 . S
N3824 H3830 0.984 . S
N3824 H3831 0.984 . S
N3825 C3818 1.373 . S
N3825 H3828 0.984 . S
N3825 H3829 0.968 1_554 S
H3826 N3821 0.984 . S
H3827 N3821 1.011 . S
H3828 N3825 0.984 . S
H3829 N3825 0.968 1_556 S
H3830 N3824 0.984 . S
H3831 N3824 0.984 . S
H3832 N3820 0.984 . S
H3833 N3820 0.985 . S
C3834 C3835 1.363 . S
C3834 C3840 1.379 . S
C3834 N3842 1.356 . S
C3835 C3834 1.363 . S
C3835 C3841 1.363 . S
C3836 C3837 1.363 . S
C3836 C3841 1.379 . S
C3836 N3843 1.356 . S
C3837 C3836 1.363 . S
C3837 C3840 1.363 . S
N3838 C3840 1.356 . S
N3838 H3850 0.984 . S
N3838 H3851 0.985 . S
N3839 C3841 1.356 . S
N3839 H3844 0.984 . S
N3839 H3845 0.985 . S
C3840 C3834 1.379 . S
C3840 C3837 1.363 . S
C3840 N3838 1.356 . S
C3841 C3835 1.363 . S
C3841 C3836 1.379 . S
C3841 N3839 1.356 . S
N3842 C3834 1.356 . S
N3842 H3848 0.984 . S
N3842 H3849 0.984 . S
N3843 C3836 1.356 . S
N3843 H3846 0.984 . S
N3843 H3847 0.985 . S
H3844 N3839 0.984 . S
H3845 N3839 0.985 . S
H3846 N3843 0.984 . S
H3847 N3843 0.985 . S
H3848 N3842 0.984 . S
H3849 N3842 0.984 . S
H3850 N3838 0.984 . S
H3851 N3838 0.985 . S
C3852 C3853 1.363 1_655 S
C3852 C3858 1.379 . S
C3852 N3860 1.356 . S
C3853 C3852 1.363 1_455 S
C3853 C3859 1.363 . S
C3854 C3855 1.363 1_455 S
C3854 C3859 1.379 . S
C3854 N3861 1.356 . S
C3855 C3854 1.363 1_655 S
C3855 C3858 1.363 . S
N3856 C3858 1.356 . S
N3856 H3868 0.984 . S
N3856 H3869 0.985 . S
N3857 C3859 1.356 . S
N3857 H3862 0.984 . S
N3857 H3863 0.985 . S
C3858 C3852 1.379 . S
C3858 C3855 1.363 . S
C3858 N3856 1.356 . S
C3859 C3853 1.363 . S
C3859 C3854 1.379 . S
C3859 N3857 1.356 . S
N3860 C3852 1.356 . S
N3860 H3866 0.984 . S
N3860 H3867 0.984 . S
N3861 C3854 1.356 . S
N3861 H3864 0.984 . S
N3861 H3865 0.985 . S
H3862 N3857 0.984 . S
H3863 N3857 0.985 . S
H3864 N3861 0.984 . S
H3865 N3861 0.985 . S
H3866 N3860 0.984 . S
H3867 N3860 0.984 . S
H3868 N3856 0.984 . S
H3869 N3856 0.985 . S
C3870 C3871 1.363 . S
C3870 C3876 1.379 . S
C3870 N3878 1.356 . S
C3871 C3870 1.363 . S
C3871 C3877 1.363 . S
C3872 C3873 1.363 . S
C3872 C3877 1.379 . S
C3872 N3879 1.356 . S
C3873 C3872 1.363 . S
C3873 C3876 1.363 . S
N3874 C3876 1.356 . S
N3874 H3886 0.984 . S
N3874 H3887 0.985 . S
N3875 C3877 1.356 . S
N3875 H3880 0.984 . S
N3875 H3881 0.985 . S
C3876 C3870 1.379 . S
C3876 C3873 1.363 . S
C3876 N3874 1.356 . S
C3877 C3871 1.363 . S
C3877 C3872 1.379 . S
C3877 N3875 1.356 . S
N3878 C3870 1.356 . S
N3878 H3884 0.984 . S
N3878 H3885 0.984 . S
N3879 C3872 1.356 . S
N3879 H3882 0.984 . S
N3879 H3883 0.985 . S
H3880 N3875 0.984 . S
H3881 N3875 0.985 . S
H3882 N3879 0.984 . S
H3883 N3879 0.985 . S
H3884 N3878 0.984 . S
H3885 N3878 0.984 . S
H3886 N3874 0.984 . S
H3887 N3874 0.985 . S
C3888 C3889 1.363 . S
C3888 C3894 1.379 . S
C3888 N3896 1.356 . S
C3889 C3888 1.363 . S
C3889 C3895 1.363 . S
C3890 C3891 1.363 . S
C3890 C3895 1.379 . S
C3890 N3897 1.356 . S
C3891 C3890 1.363 . S
C3891 C3894 1.363 . S
N3892 C3894 1.356 . S
N3892 H3904 0.984 . S
N3892 H3905 0.985 . S
N3893 C3895 1.356 . S
N3893 H3898 0.984 . S
N3893 H3899 0.985 . S
C3894 C3888 1.379 . S
C3894 C3891 1.363 . S
C3894 N3892 1.356 . S
C3895 C3889 1.363 . S
C3895 C3890 1.379 . S
C3895 N3893 1.356 . S
N3896 C3888 1.356 . S
N3896 H3902 0.984 . S
N3896 H3903 0.984 . S
N3897 C3890 1.356 . S
N3897 H3900 0.984 . S
N3897 H3901 0.985 . S
H3898 N3893 0.984 . S
H3899 N3893 0.985 . S
H3900 N3897 0.984 . S
H3901 N3897 0.985 . S
H3902 N3896 0.984 . S
H3903 N3896 0.984 . S
H3904 N3892 0.984 . S
H3905 N3892 0.985 . S
C3906 C3907 1.363 . S
C3906 C3912 1.379 . S
C3906 N3914 1.356 . S
C3907 C3906 1.363 . S
C3907 C3913 1.363 . S
C3908 C3909 1.363 . S
C3908 C3913 1.379 . S
C3908 N3915 1.356 . S
C3909 C3908 1.363 . S
C3909 C3912 1.363 . S
N3910 C3912 1.356 . S
N3910 H3922 0.984 . S
N3910 H3923 0.985 . S
N3911 C3913 1.356 . S
N3911 H3916 0.984 . S
N3911 H3917 0.985 . S
C3912 C3906 1.379 . S
C3912 C3909 1.363 . S
C3912 N3910 1.356 . S
C3913 C3907 1.363 . S
C3913 C3908 1.379 . S
C3913 N3911 1.356 . S
N3914 C3906 1.356 . S
N3914 H3920 0.984 . S
N3914 H3921 0.984 . S
N3915 C3908 1.356 . S
N3915 H3918 0.984 . S
N3915 H3919 0.985 . S
H3916 N3911 0.984 . S
H3917 N3911 0.985 . S
H3918 N3915 0.984 . S
H3919 N3915 0.985 . S
H3920 N3914 0.984 . S
H3921 N3914 0.984 . S
H3922 N3910 0.984 . S
H3923 N3910 0.985 . S
C3924 C3925 1.363 . S
C3924 C3930 1.379 . S
C3924 N3932 1.356 . S
C3925 C3924 1.363 . S
C3925 C3931 1.363 . S
C3926 C3927 1.363 . S
C3926 C3931 1.379 . S
C3926 N3933 1.356 . S
C3927 C3926 1.363 . S
C3927 C3930 1.363 . S
N3928 C3930 1.356 . S
N3928 H3940 0.984 . S
N3928 H3941 0.985 . S
N3929 C3931 1.356 . S
N3929 H3934 0.984 . S
N3929 H3935 0.985 . S
C3930 C3924 1.379 . S
C3930 C3927 1.363 . S
C3930 N3928 1.356 . S
C3931 C3925 1.363 . S
C3931 C3926 1.379 . S
C3931 N3929 1.356 . S
N3932 C3924 1.356 . S
N3932 H3938 0.984 . S
N3932 H3939 0.984 . S
N3933 C3926 1.356 . S
N3933 H3936 0.984 . S
N3933 H3937 0.985 . S
H3934 N3929 0.984 . S
H3935 N3929 0.985 . S
H3936 N3933 0.984 . S
H3937 N3933 0.985 . S
H3938 N3932 0.984 . S
H3939 N3932 0.984 . S
H3940 N3928 0.984 . S
H3941 N3928 0.985 . S
C3942 C3943 1.363 . S
C3942 C3948 1.379 . S
C3942 N3950 1.356 . S
C3943 C3942 1.363 . S
C3943 C3949 1.363 . S
C3944 C3945 1.363 . S
C3944 C3949 1.379 . S
C3944 N3951 1.356 . S
C3945 C3944 1.363 . S
C3945 C3948 1.363 . S
N3946 C3948 1.356 . S
N3946 H3958 0.984 . S
N3946 H3959 0.985 . S
N3947 C3949 1.356 . S
N3947 H3952 0.984 . S
N3947 H3953 0.985 . S
C3948 C3942 1.379 . S
C3948 C3945 1.363 . S
C3948 N3946 1.356 . S
C3949 C3943 1.363 . S
C3949 C3944 1.379 . S
C3949 N3947 1.356 . S
N3950 C3942 1.356 . S
N3950 H3956 0.984 . S
N3950 H3957 0.984 . S
N3951 C3944 1.356 . S
N3951 H3954 0.984 . S
N3951 H3955 0.985 . S
H3952 N3947 0.984 . S
H3953 N3947 0.985 . S
H3954 N3951 0.984 . S
H3955 N3951 0.985 . S
H3956 N3950 0.984 . S
H3957 N3950 0.984 . S
H3958 N3946 0.984 . S
H3959 N3946 0.985 . S
C3960 C3961 1.363 . S
C3960 C3966 1.379 . S
C3960 N3968 1.356 . S
C3961 C3960 1.363 . S
C3961 C3967 1.363 . S
C3962 C3963 1.363 . S
C3962 C3967 1.379 . S
C3962 N3969 1.356 . S
C3963 C3962 1.363 . S
C3963 C3966 1.363 . S
N3964 C3966 1.356 . S
N3964 H3976 0.984 . S
N3964 H3977 0.985 . S
N3965 C3967 1.356 . S
N3965 H3970 0.984 . S
N3965 H3971 0.985 . S
C3966 C3960 1.379 . S
C3966 C3963 1.363 . S
C3966 N3964 1.356 . S
C3967 C3961 1.363 . S
C3967 C3962 1.379 . S
C3967 N3965 1.356 . S
N3968 C3960 1.356 . S
N3968 H3974 0.984 . S
N3968 H3975 0.984 . S
N3969 C3962 1.356 . S
N3969 H3972 0.984 . S
N3969 H3973 0.985 . S
H3970 N3965 0.984 . S
H3971 N3965 0.985 . S
H3972 N3969 0.984 . S
H3973 N3969 0.985 . S
H3974 N3968 0.984 . S
H3975 N3968 0.984 . S
H3976 N3964 0.984 . S
H3977 N3964 0.985 . S
C3978 C3979 1.363 . S
C3978 C3984 1.379 . S
C3978 N3986 1.356 . S
C3979 C3978 1.363 . S
C3979 C3985 1.363 . S
C3980 C3981 1.363 . S
C3980 C3985 1.379 . S
C3980 N3987 1.356 . S
C3981 C3980 1.363 . S
C3981 C3984 1.363 . S
N3982 C3984 1.356 . S
N3982 H3994 0.984 . S
N3982 H3995 0.985 . S
N3983 C3985 1.356 . S
N3983 H3988 0.984 . S
N3983 H3989 0.985 . S
C3984 C3978 1.379 . S
C3984 C3981 1.363 . S
C3984 N3982 1.356 . S
C3985 C3979 1.363 . S
C3985 C3980 1.379 . S
C3985 N3983 1.356 . S
N3986 C3978 1.356 . S
N3986 H3992 0.984 . S
N3986 H3993 0.984 . S
N3987 C3980 1.356 . S
N3987 H3990 0.984 . S
N3987 H3991 0.985 . S
H3988 N3983 0.984 . S
H3989 N3983 0.985 . S
H3990 N3987 0.984 . S
H3991 N3987 0.985 . S
H3992 N3986 0.984 . S
H3993 N3986 0.984 . S
H3994 N3982 0.984 . S
H3995 N3982 0.985 . S
C3996 C3997 1.363 . S
C3996 C4002 1.379 . S
C3996 N4004 1.356 . S
C3997 C3996 1.363 . S
C3997 C4003 1.363 . S
C3998 C3999 1.363 . S
C3998 C4003 1.379 . S
C3998 N4005 1.356 . S
C3999 C3998 1.363 . S
C3999 C4002 1.363 . S
N4000 C4002 1.356 . S
N4000 H4012 0.984 . S
N4000 H4013 0.985 . S
N4001 C4003 1.356 . S
N4001 H4006 0.984 . S
N4001 H4007 0.985 . S
C4002 C3996 1.379 . S
C4002 C3999 1.363 . S
C4002 N4000 1.356 . S
C4003 C3997 1.363 . S
C4003 C3998 1.379 . S
C4003 N4001 1.356 . S
N4004 C3996 1.356 . S
N4004 H4010 0.984 . S
N4004 H4011 0.984 . S
N4005 C3998 1.356 . S
N4005 H4008 0.984 . S
N4005 H4009 0.985 . S
H4006 N4001 0.984 . S
H4007 N4001 0.985 . S
H4008 N4005 0.984 . S
H4009 N4005 0.985 . S
H4010 N4004 0.984 . S
H4011 N4004 0.984 . S
H4012 N4000 0.984 . S
H4013 N4000 0.985 . S
C4014 C4015 1.363 . S
C4014 C4020 1.379 . S
C4014 N4022 1.356 . S
C4015 C4014 1.363 . S
C4015 C4021 1.363 . S
C4016 C4017 1.363 . S
C4016 C4021 1.379 . S
C4016 N4023 1.356 . S
C4017 C4016 1.363 . S
C4017 C4020 1.363 . S
N4018 C4020 1.356 . S
N4018 H4030 0.984 . S
N4018 H4031 0.985 . S
N4019 C4021 1.356 . S
N4019 H4024 0.984 . S
N4019 H4025 0.985 . S
C4020 C4014 1.379 . S
C4020 C4017 1.363 . S
C4020 N4018 1.356 . S
C4021 C4015 1.363 . S
C4021 C4016 1.379 . S
C4021 N4019 1.356 . S
N4022 C4014 1.356 . S
N4022 H4028 0.984 . S
N4022 H4029 0.984 . S
N4023 C4016 1.356 . S
N4023 H4026 0.984 . S
N4023 H4027 0.985 . S
H4024 N4019 0.984 . S
H4025 N4019 0.985 . S
H4026 N4023 0.984 . S
H4027 N4023 0.985 . S
H4028 N4022 0.984 . S
H4029 N4022 0.984 . S
H4030 N4018 0.984 . S
H4031 N4018 0.985 . S
C4032 C4033 1.363 . S
C4032 C4038 1.379 . S
C4032 N4040 1.356 . S
C4033 C4032 1.363 . S
C4033 C4039 1.363 . S
C4034 C4035 1.363 . S
C4034 C4039 1.379 . S
C4034 N4041 1.356 . S
C4035 C4034 1.363 . S
C4035 C4038 1.363 . S
N4036 C4038 1.356 . S
N4036 H4048 0.984 . S
N4036 H4049 0.985 . S
N4037 C4039 1.356 . S
N4037 H4042 0.984 . S
N4037 H4043 0.985 . S
C4038 C4032 1.379 . S
C4038 C4035 1.363 . S
C4038 N4036 1.356 . S
C4039 C4033 1.363 . S
C4039 C4034 1.379 . S
C4039 N4037 1.356 . S
N4040 C4032 1.356 . S
N4040 H4046 0.984 . S
N4040 H4047 0.984 . S
N4041 C4034 1.356 . S
N4041 H4044 0.984 . S
N4041 H4045 0.985 . S
H4042 N4037 0.984 . S
H4043 N4037 0.985 . S
H4044 N4041 0.984 . S
H4045 N4041 0.985 . S
H4046 N4040 0.984 . S
H4047 N4040 0.984 . S
H4048 N4036 0.984 . S
H4049 N4036 0.985 . S
C4050 C4051 1.363 . S
C4050 C4056 1.379 . S
C4050 N4058 1.356 . S
C4051 C4050 1.363 . S
C4051 C4057 1.363 . S
C4052 C4053 1.363 . S
C4052 C4057 1.379 . S
C4052 N4059 1.356 . S
C4053 C4052 1.363 . S
C4053 C4056 1.363 . S
N4054 C4056 1.356 . S
N4054 H4066 0.984 . S
N4054 H4067 0.985 . S
N4055 C4057 1.356 . S
N4055 H4060 0.984 . S
N4055 H4061 0.985 . S
C4056 C4050 1.379 . S
C4056 C4053 1.363 . S
C4056 N4054 1.356 . S
C4057 C4051 1.363 . S
C4057 C4052 1.379 . S
C4057 N4055 1.356 . S
N4058 C4050 1.356 . S
N4058 H4064 0.984 . S
N4058 H4065 0.984 . S
N4059 C4052 1.356 . S
N4059 H4062 0.984 . S
N4059 H4063 0.985 . S
H4060 N4055 0.984 . S
H4061 N4055 0.985 . S
H4062 N4059 0.984 . S
H4063 N4059 0.985 . S
H4064 N4058 0.984 . S
H4065 N4058 0.984 . S
H4066 N4054 0.984 . S
H4067 N4054 0.985 . S
C4068 C4069 1.363 . S
C4068 C4074 1.379 . S
C4068 N4076 1.356 . S
C4069 C4068 1.363 . S
C4069 C4075 1.363 . S
C4070 C4071 1.363 . S
C4070 C4075 1.379 . S
C4070 N4077 1.356 . S
C4071 C4070 1.363 . S
C4071 C4074 1.363 . S
N4072 C4074 1.356 . S
N4072 H4084 0.984 . S
N4072 H4085 0.985 . S
N4073 C4075 1.356 . S
N4073 H4078 0.984 . S
N4073 H4079 0.985 . S
C4074 C4068 1.379 . S
C4074 C4071 1.363 . S
C4074 N4072 1.356 . S
C4075 C4069 1.363 . S
C4075 C4070 1.379 . S
C4075 N4073 1.356 . S
N4076 C4068 1.356 . S
N4076 H4082 0.984 . S
N4076 H4083 0.984 . S
N4077 C4070 1.356 . S
N4077 H4080 0.984 . S
N4077 H4081 0.985 . S
H4078 N4073 0.984 . S
H4079 N4073 0.985 . S
H4080 N4077 0.984 . S
H4081 N4077 0.985 . S
H4082 N4076 0.984 . S
H4083 N4076 0.984 . S
H4084 N4072 0.984 . S
H4085 N4072 0.985 . S
C4086 C4087 1.363 . S
C4086 C4092 1.379 . S
C4086 N4094 1.356 . S
C4087 C4086 1.363 . S
C4087 C4093 1.363 1_554 S
C4088 C4089 1.363 . S
C4088 C4093 1.379 . S
C4088 N4095 1.356 . S
C4089 C4088 1.363 . S
C4089 C4092 1.363 1_556 S
N4090 C4092 1.356 . S
N4090 H4102 0.984 . S
N4090 H4103 0.985 . S
N4091 C4093 1.356 . S
N4091 H4096 0.984 . S
N4091 H4097 0.985 . S
C4092 C4086 1.379 . S
C4092 C4089 1.363 1_554 S
C4092 N4090 1.356 . S
C4093 C4087 1.363 1_556 S
C4093 C4088 1.379 . S
C4093 N4091 1.356 . S
N4094 C4086 1.356 . S
N4094 H4100 0.984 . S
N4094 H4101 0.984 . S
N4095 C4088 1.356 . S
N4095 H4098 0.984 . S
N4095 H4099 0.985 . S
H4096 N4091 0.984 . S
H4097 N4091 0.985 . S
H4098 N4095 0.984 . S
H4099 N4095 0.985 . S
H4100 N4094 0.984 . S
H4101 N4094 0.984 . S
H4102 N4090 0.984 . S
H4103 N4090 0.985 . S
C4104 C4105 1.363 . S
C4104 C4110 1.379 . S
C4104 N4112 1.356 . S
C4105 C4104 1.363 . S
C4105 C4111 1.363 . S
C4106 C4107 1.363 . S
C4106 C4111 1.379 . S
C4106 N4113 1.356 . S
C4107 C4106 1.363 . S
C4107 C4110 1.363 . S
N4108 C4110 1.356 . S
N4108 H4120 0.984 . S
N4108 H4121 0.985 . S
N4109 C4111 1.356 . S
N4109 H4114 0.984 . S
N4109 H4115 0.985 . S
C4110 C4104 1.379 . S
C4110 C4107 1.363 . S
C4110 N4108 1.356 . S
C4111 C4105 1.363 . S
C4111 C4106 1.379 . S
C4111 N4109 1.356 . S
N4112 C4104 1.356 . S
N4112 H4118 0.984 . S
N4112 H4119 0.984 . S
N4113 C4106 1.356 . S
N4113 H4116 0.984 . S
N4113 H4117 0.985 . S
H4114 N4109 0.984 . S
H4115 N4109 0.985 . S
H4116 N4113 0.984 . S
H4117 N4113 0.985 . S
H4118 N4112 0.984 . S
H4119 N4112 0.984 . S
H4120 N4108 0.984 . S
H4121 N4108 0.985 . S
C4122 C4123 1.363 . S
C4122 C4128 1.379 . S
C4122 N4130 1.356 . S
C4123 C4122 1.363 . S
C4123 C4129 1.363 1_554 S
C4124 C4125 1.363 1_556 S
C4124 C4129 1.379 . S
C4124 N4131 1.356 . S
C4125 C4124 1.363 1_554 S
C4125 C4128 1.363 . S
N4126 C4128 1.356 . S
N4126 H4138 0.984 . S
N4126 H4139 0.985 . S
N4127 C4129 1.356 . S
N4127 H4132 0.984 . S
N4127 H4133 0.985 . S
C4128 C4122 1.379 . S
C4128 C4125 1.363 . S
C4128 N4126 1.356 . S
C4129 C4123 1.363 1_556 S
C4129 C4124 1.379 . S
C4129 N4127 1.356 . S
N4130 C4122 1.356 . S
N4130 H4136 0.984 . S
N4130 H4137 0.984 . S
N4131 C4124 1.356 . S
N4131 H4134 0.984 . S
N4131 H4135 0.985 . S
H4132 N4127 0.984 . S
H4133 N4127 0.985 . S
H4134 N4131 0.984 . S
H4135 N4131 0.985 . S
H4136 N4130 0.984 . S
H4137 N4130 0.984 . S
H4138 N4126 0.984 . S
H4139 N4126 0.985 . S
C4140 C4141 1.363 . S
C4140 C4146 1.379 . S
C4140 N4148 1.356 . S
C4141 C4140 1.363 . S
C4141 C4147 1.363 . S
C4142 C4143 1.363 . S
C4142 C4147 1.379 . S
C4142 N4149 1.356 . S
C4143 C4142 1.363 . S
C4143 C4146 1.363 . S
N4144 C4146 1.356 . S
N4144 H4156 0.984 . S
N4144 H4157 0.985 . S
N4145 C4147 1.356 . S
N4145 H4150 0.984 . S
N4145 H4151 0.985 . S
C4146 C4140 1.379 . S
C4146 C4143 1.363 . S
C4146 N4144 1.356 . S
C4147 C4141 1.363 . S
C4147 C4142 1.379 . S
C4147 N4145 1.356 . S
N4148 C4140 1.356 . S
N4148 H4154 0.984 . S
N4148 H4155 0.984 . S
N4149 C4142 1.356 . S
N4149 H4152 0.984 . S
N4149 H4153 0.985 . S
H4150 N4145 0.984 . S
H4151 N4145 0.985 . S
H4152 N4149 0.984 . S
H4153 N4149 0.985 . S
H4154 N4148 0.984 . S
H4155 N4148 0.984 . S
H4156 N4144 0.984 . S
H4157 N4144 0.985 . S
C4158 C4159 1.363 . S
C4158 C4164 1.379 . S
C4158 N4166 1.356 . S
C4159 C4158 1.363 . S
C4159 C4165 1.363 . S
C4160 C4161 1.363 . S
C4160 C4165 1.379 . S
C4160 N4167 1.356 . S
C4161 C4160 1.363 . S
C4161 C4164 1.363 . S
N4162 C4164 1.356 . S
N4162 H4174 0.984 . S
N4162 H4175 0.985 . S
N4163 C4165 1.356 . S
N4163 H4168 0.984 . S
N4163 H4169 0.985 . S
C4164 C4158 1.379 . S
C4164 C4161 1.363 . S
C4164 N4162 1.356 . S
C4165 C4159 1.363 . S
C4165 C4160 1.379 . S
C4165 N4163 1.356 . S
N4166 C4158 1.356 . S
N4166 H4172 0.984 . S
N4166 H4173 0.984 . S
N4167 C4160 1.356 . S
N4167 H4170 0.984 . S
N4167 H4171 0.985 . S
H4168 N4163 0.984 . S
H4169 N4163 0.985 . S
H4170 N4167 0.984 . S
H4171 N4167 0.985 . S
H4172 N4166 0.984 . S
H4173 N4166 0.984 . S
H4174 N4162 0.984 . S
H4175 N4162 0.985 . S
C2451 C2128 1.216 . S
C2449 C49 1.326 . S
C2467 C137 1.214 . S
C2469 C2148 1.225 . S
C2485 C205 1.298 . S
C2487 C2170 1.200 . S
C2505 C2189 1.292 . S
C2503 C284 1.351 . S
C2521 C117 1.318 . S
C2523 C2210 1.265 1_455 S
C2541 C2233 1.242 . S
C2539 C225 1.335 . S
C2559 C2256 1.189 . S
C2557 C321 1.184 . S
C2575 C29 1.290 . S
C2577 C2274 1.286 . S
C2593 C401 1.292 . S
C2595 C2130 1.286 . S
C2611 C497 1.341 . S
C2613 C2150 1.290 . S
C2631 C2172 1.225 . S
C2629 C585 1.214 . S
C2649 C2191 1.242 . S
C2647 C665 1.347 . S
C2665 C372 1.335 . S
C2667 C2212 1.242 . S
C2685 C2235 1.195 . S
C2683 C469 1.184 . S
C2703 C2252 1.292 . S
C2701 C557 1.351 . S
C2721 C2276 1.256 . S
C2719 C636 1.310 . S
C2739 C2126 1.256 . S
C2737 C673 1.310 . S
C2757 C2298 1.195 . S
C2755 C724 1.184 . S
C2773 C821 1.318 . S
C2775 C2315 1.266 . S
C2793 C2338 1.242 . S
C2791 C909 1.347 . S
C2809 C381 1.326 . S
C2811 C2272 1.216 . S
C2829 C2168 1.290 . S
C2827 C489 1.341 . S
C2845 C849 1.184 . S
C2847 C2361 1.189 . S
C2865 C2377 1.200 . S
C2863 C1017 1.298 . S
C2881 C1085 1.330 . S
C2883 C2125 1.227 . S
C2901 C2378 1.304 . S
C2899 C1201 1.291 . S
C2917 C1289 1.424 . S
C2919 C2167 1.322 . S
C2935 C1349 1.221 . S
C2937 C2358 1.159 . S
C2955 C2211 1.164 . S
C2953 C1193 1.229 . S
C2973 C2314 1.280 . S
C2971 C1281 1.392 . S
C2991 C2255 1.338 . S
C2989 C1340 1.321 . S
C3009 C2399 1.415 . S
C3007 C1076 1.394 . S
C3027 C2129 1.415 . S
C3025 C1428 1.394 . S
C3043 C1516 1.243 . S
C3045 C2382 1.175 . S
C3063 C2171 1.304 . S
C3061 C1604 1.291 . S
C3079 C1701 1.363 . S
C3081 C2356 1.273 . S
C3097 C1457 1.389 1_565 S
C3099 C2209 1.280 . S
C3115 C1545 1.321 . S
C3117 C2318 1.334 . S
C3135 C2253 1.159 . S
C3133 C1633 1.221 . S
C3151 C1729 1.286 . S
C3153 C2403 1.219 . S
C3169 C1721 1.286 . S
C3171 C2127 1.219 . S
C3187 C1789 1.322 . S
C3189 C2297 1.333 . S
C3205 C1868 1.229 . S
C3207 C2232 1.164 . S
C3223 C1956 1.363 . S
C3225 C2335 1.273 . S
C3243 C2401 1.226 . S
C3241 C1437 1.330 . S
C3261 C2169 1.175 . S
C3259 C1553 1.243 . S
C3279 C2192 1.338 . S
C3277 C1897 1.321 . S
C3297 C2149 1.322 . S
C3295 C2081 1.424 . S
C3313 C233 1.326 . S
C3315 C2422 1.216 . S
C3333 C2379 1.225 . S
C3331 C313 1.214 . S
C3351 C2443 1.200 . S
C3349 C20 1.298 . S
C3367 C108 1.351 . S
C3369 C2357 1.292 . S
C3385 C293 1.318 . S
C3387 C2294 1.265 . S
C3405 C2317 1.242 . S
C3403 C57 1.335 . S
C3423 C2340 1.189 . S
C3421 C145 1.184 . S
C3441 C2400 1.286 . S
C3439 C196 1.290 . S
C3459 C2424 1.286 . S
C3457 C1025 1.290 . S
C3475 C761 1.341 . S
C3477 C2381 1.290 . S
C3493 C841 1.214 . S
C3495 C2445 1.225 . S
C3513 C2359 1.242 . S
C3511 C929 1.347 . S
C3531 C2296 1.242 . S
C3529 C997 1.335 . S
C3547 C733 1.184 . S
C3549 C2319 1.195 . S
C3567 C2336 1.292 . S
C3565 C812 1.351 . S
C3583 C900 1.310 . S
C3585 C2402 1.256 . S
C3603 C2420 1.256 . S
C3601 C937 1.310 . S
C3621 C2214 1.195 . S
C3619 C460 1.184 . S
C3639 C2231 1.265 . S
C3637 C548 1.318 . S
C3655 C645 1.347 . S
C3657 C2254 1.242 . S
C3675 C2398 1.216 . S
C3673 C988 1.326 . S
C3691 C753 1.341 . S
C3693 C2441 1.290 . S
C3711 C2193 1.189 . S
C3709 C577 1.184 . S
C3729 C2146 1.200 . S
C3727 C409 1.298 . S
C3745 C1261 1.330 . S
C3747 C2419 1.227 . S
C3765 C2147 1.304 . S
C3763 C1377 1.291 . S
C3783 C2440 1.322 . S
C3781 C1113 1.424 . S
C3799 C1173 1.221 . S
C3801 C2190 1.159 . S
C3817 C1369 1.229 . S
C3819 C2295 1.164 . S
C3835 C1105 1.391 . S
C3837 C2230 1.280 . S
C3853 C1164 1.321 . S
C3855 C2339 1.338 . S
C3871 C1252 1.394 . S
C3873 C2273 1.415 . S
C3891 C2423 1.415 . S
C3889 C2044 1.394 . S
C3907 C1780 1.243 . S
C3909 C2151 1.175 . S
C3927 C2444 1.304 . S
C3925 C1877 1.291 . S
C3943 C1965 1.363 . S
C3945 C2188 1.273 . S
C3961 C2073 1.391 . S
C3963 C2293 1.280 . S
C3981 C2234 1.334 . S
C3979 C1809 1.321 . S
C3997 C1905 1.221 . S
C3999 C2337 1.159 . S
C4017 C2277 1.219 . S
C4015 C1993 1.286 . S
C4035 C2421 1.219 . S
C4033 C1985 1.286 . S
C4053 C2213 1.333 . S
C4051 C1525 1.321 . S
C4069 C1613 1.229 . S
C4071 C2316 1.164 . S
C4089 C2251 1.273 . S
C4087 C1692 1.363 . S
C4107 C2275 1.227 . S
C4105 C2053 1.330 . S
C4123 C1817 1.243 . S
C4125 C2442 1.175 . S
C4143 C2360 1.338 . S
C4141 C1641 1.321 . S
C4161 C2380 1.322 . S
C4159 C1465 1.424 . S
