# Generated by pormake.
# Topology pyr, (3,6)-cn, num edge types: 1
# Building blocks:
#     Node 0, Type 0, BuildingBlock: OLANEW_clean_sbu_2, # of connection points: 3
#     Node 1, Type 0, BuildingBlock: OLANEW_clean_sbu_2, # of connection points: 3
#     Node 2, Type 0, BuildingBlock: OLANEW_clean_sbu_2, # of connection points: 3
#     Node 3, Type 0, BuildingBlock: OLANEW_clean_sbu_2, # of connection points: 3
#     Node 4, Type 0, BuildingBlock: OLANEW_clean_sbu_2, # of connection points: 3
#     Node 5, Type 0, BuildingBlock: OLANEW_clean_sbu_2, # of connection points: 3
#     Node 6, Type 0, BuildingBlock: OLANEW_clean_sbu_2, # of connection points: 3
#     Node 7, Type 0, BuildingBlock: OLANEW_clean_sbu_2, # of connection points: 3
#     Node 8, Type 1, BuildingBlock: PAMTUU_clean_sbu_0, # of connection points: 6
#     Node 9, Type 1, BuildingBlock: PAMTUU_clean_sbu_0, # of connection points: 6
#     Node 10, Type 1, BuildingBlock: PAMTUU_clean_sbu_0, # of connection points: 6
#     Node 11, Type 1, BuildingBlock: PAMTUU_clean_sbu_0, # of connection points: 6
#     Edge 12, Type (0, 1), BuildingBlock: UVAHIK_clean_linker_0, # of connection points: 2
#     Edge 13, Type (0, 1), BuildingBlock: UVAHIK_clean_linker_0, # of connection points: 2
#     Edge 14, Type (0, 1), BuildingBlock: UVAHIK_clean_linker_0, # of connection points: 2
#     Edge 15, Type (0, 1), BuildingBlock: UVAHIK_clean_linker_0, # of connection points: 2
#     Edge 16, Type (0, 1), BuildingBlock: UVAHIK_clean_linker_0, # of connection points: 2
#     Edge 17, Type (0, 1), BuildingBlock: UVAHIK_clean_linker_0, # of connection points: 2
#     Edge 18, Type (0, 1), BuildingBlock: UVAHIK_clean_linker_0, # of connection points: 2
#     Edge 19, Type (0, 1), BuildingBlock: UVAHIK_clean_linker_0, # of connection points: 2
#     Edge 20, Type (0, 1), BuildingBlock: UVAHIK_clean_linker_0, # of connection points: 2
#     Edge 21, Type (0, 1), BuildingBlock: UVAHIK_clean_linker_0, # of connection points: 2
#     Edge 22, Type (0, 1), BuildingBlock: UVAHIK_clean_linker_0, # of connection points: 2
#     Edge 23, Type (0, 1), BuildingBlock: UVAHIK_clean_linker_0, # of connection points: 2
#     Edge 24, Type (0, 1), BuildingBlock: UVAHIK_clean_linker_0, # of connection points: 2
#     Edge 25, Type (0, 1), BuildingBlock: UVAHIK_clean_linker_0, # of connection points: 2
#     Edge 26, Type (0, 1), BuildingBlock: UVAHIK_clean_linker_0, # of connection points: 2
#     Edge 27, Type (0, 1), BuildingBlock: UVAHIK_clean_linker_0, # of connection points: 2
#     Edge 28, Type (0, 1), BuildingBlock: UVAHIK_clean_linker_0, # of connection points: 2
#     Edge 29, Type (0, 1), BuildingBlock: UVAHIK_clean_linker_0, # of connection points: 2
#     Edge 30, Type (0, 1), BuildingBlock: UVAHIK_clean_linker_0, # of connection points: 2
#     Edge 31, Type (0, 1), BuildingBlock: UVAHIK_clean_linker_0, # of connection points: 2
#     Edge 32, Type (0, 1), BuildingBlock: UVAHIK_clean_linker_0, # of connection points: 2
#     Edge 33, Type (0, 1), BuildingBlock: UVAHIK_clean_linker_0, # of connection points: 2
#     Edge 34, Type (0, 1), BuildingBlock: UVAHIK_clean_linker_0, # of connection points: 2
#     Edge 35, Type (0, 1), BuildingBlock: UVAHIK_clean_linker_0, # of connection points: 2
# Relax obj value: 0.094
# Max RMSD: 0.177
# Mean RMSD: 0.121
data_MOF--net-pyr--node1-OLANEW_clean_sbu_2--node2-PAMTUU_clean_sbu_0--edge1-UVAHIK_clean_linker_0
_symmetry_space_group_name_H-M    P1
_symmetry_Int_Tables_number       1
_symmetry_cell_setting            triclinic
loop_
_symmetry_equiv_pos_as_xyz
'x, y, z'
_cell_length_a     51.841976
_cell_length_b     54.298941
_cell_length_c     51.748877
_cell_angle_alpha  94.478588
_cell_angle_beta   87.879614
_cell_angle_gamma 102.78456
loop_
_atom_site_label
_atom_site_type_symbol
_atom_site_fract_x
_atom_site_fract_y
_atom_site_fract_z
_atom_type_partial_charge
O0 O 0.35383 0.26238 0.14424 0.0
Cd1 Cd 0.34074 0.30245 0.15685 0.0
O2 O 0.3296 0.24541 0.17642 0.0
Cd3 Cd 0.31036 0.21667 0.20246 0.0
O4 O 0.28691 0.19372 0.23141 0.0
C5 C 0.28179 0.2045 0.25309 0.0
O6 O 0.29117 0.22896 0.25745 0.0
C7 C 0.34585 0.24347 0.15773 0.0
C8 C 0.29347 0.3094 0.13743 0.0
O9 O 0.31538 0.31548 0.12473 0.0
O10 O 0.29376 0.29923 0.15893 0.0
O11 O 0.22107 0.78778 0.79121 0.0
Cd12 Cd 0.20306 0.77177 0.74864 0.0
O13 O 0.18953 0.80798 0.80242 0.0
Cd14 Cd 0.16977 0.80002 0.76524 0.0
O15 O 0.14919 0.81155 0.73378 0.0
C16 C 0.13003 0.82188 0.74054 0.0
O17 O 0.12322 0.82353 0.76522 0.0
C18 C 0.21063 0.80135 0.8078 0.0
C19 C 0.2395 0.7495 0.71977 0.0
O20 O 0.23981 0.77309 0.71892 0.0
O21 O 0.22166 0.73636 0.73397 0.0
O22 O 0.69936 0.40402 0.85126 0.0
Cd23 Cd 0.65707 0.39364 0.82712 0.0
O24 O 0.68707 0.36978 0.87249 0.0
Cd25 Cd 0.68293 0.33926 0.89962 0.0
O26 O 0.66341 0.30426 0.91848 0.0
C27 C 0.67424 0.29391 0.93512 0.0
O28 O 0.6986 0.30433 0.94198 0.0
C29 C 0.70421 0.39003 0.86842 0.0
C30 C 0.64811 0.41961 0.78399 0.0
O31 O 0.64499 0.42857 0.80729 0.0
O32 O 0.65677 0.39917 0.781 0.0
O33 O 0.90101 0.70535 0.35893 0.0
Cd34 Cd 0.87365 0.66651 0.33817 0.0
O35 O 0.90029 0.68866 0.39642 0.0
Cd36 Cd 0.87348 0.65317 0.38416 0.0
O37 O 0.83322 0.63239 0.3916 0.0
C38 C 0.8171 0.64654 0.39769 0.0
O39 O 0.82566 0.67119 0.39748 0.0
C40 C 0.90763 0.70742 0.38258 0.0
C41 C 0.89462 0.64502 0.29357 0.0
O42 O 0.88251 0.66306 0.29232 0.0
O43 O 0.89749 0.63759 0.316 0.0
O44 O 0.72139 0.74449 0.79752 0.0
Cd45 Cd 0.69646 0.71224 0.82464 0.0
O46 O 0.71613 0.77305 0.82819 0.0
Cd47 Cd 0.7165 0.81023 0.848 0.0
O48 O 0.70545 0.8397 0.87444 0.0
C49 C 0.69182 0.85423 0.8664 0.0
O50 O 0.68567 0.85199 0.84179 0.0
C51 C 0.72561 0.76759 0.80599 0.0
C52 C 0.73117 0.69311 0.85312 0.0
O53 O 0.72386 0.68317 0.83055 0.0
O54 O 0.72174 0.71194 0.86241 0.0
O55 O 0.82483 0.23657 0.35491 0.0
Cd56 Cd 0.84859 0.25738 0.39329 0.0
O57 O 0.82332 0.27137 0.33649 0.0
Cd58 Cd 0.83464 0.29601 0.37142 0.0
O59 O 0.81346 0.32082 0.39463 0.0
C60 C 0.80267 0.33422 0.38117 0.0
O61 O 0.80707 0.33335 0.35597 0.0
C62 C 0.81888 0.24735 0.33574 0.0
C63 C 0.87345 0.22295 0.41402 0.0
O64 O 0.84979 0.22433 0.42094 0.0
O65 O 0.88562 0.23828 0.39769 0.0
O66 O 0.39258 0.72755 0.22168 0.0
Cd67 Cd 0.37313 0.68769 0.24297 0.0
O68 O 0.36421 0.72119 0.18946 0.0
Cd69 Cd 0.33506 0.6855 0.19442 0.0
O70 O 0.29758 0.66026 0.18098 0.0
C71 C 0.29677 0.64924 0.15827 0.0
O72 O 0.31867 0.65214 0.14412 0.0
C73 C 0.38436 0.73467 0.2011 0.0
C74 C 0.3985 0.67247 0.28488 0.0
O75 O 0.40362 0.66575 0.26127 0.0
O76 O 0.38236 0.68726 0.28875 0.0
O77 O 0.16445 0.38552 0.74112 0.0
Cd78 Cd 0.18116 0.36293 0.70347 0.0
O79 O 0.15895 0.35213 0.76397 0.0
Cd80 Cd 0.16574 0.32586 0.73153 0.0
O81 O 0.15583 0.29224 0.70453 0.0
C82 C 0.13127 0.28303 0.70144 0.0
O83 O 0.11415 0.29447 0.71387 0.0
C84 C 0.15831 0.37526 0.76245 0.0
C85 C 0.2248 0.39189 0.67823 0.0
O86 O 0.20136 0.38941 0.66978 0.0
O87 O 0.22757 0.38095 0.69869 0.0
Tb88 Tb 0.03001 1.00051 0.51979 0.0
Tb89 Tb 0.97786 0.99597 0.55901 0.0
C90 C 0.98195 0.95436 0.51556 0.0
C91 C 0.08686 0.02126 0.47355 0.0
C92 C 0.11901 0.05473 0.4406 0.0
C93 C 0.12385 0.03058 0.44321 0.0
C94 C 0.10788 0.014 0.45953 0.0
C95 C 0.08233 0.04559 0.47171 0.0
C96 C 0.09836 0.06227 0.45537 0.0
C97 C 0.06899 0.00257 0.48858 0.0
O98 O 0.01083 0.03018 0.50999 0.0
O99 O 0.96896 0.01165 0.52379 0.0
O100 O 1.00016 0.0348 0.56488 0.0
O101 O 0.04139 0.02951 0.55123 0.0
O102 O 0.9367 0.98476 0.56417 0.0
O103 O 0.96143 0.00373 0.59565 0.0
O104 O 0.00747 0.98308 0.5797 0.0
O105 O 0.03179 0.97076 0.54505 0.0
O106 O 0.99753 0.9721 0.50301 0.0
O107 O 0.97582 0.95837 0.54012 0.0
C108 C 0.98514 0.02845 0.51045 0.0
O109 O 0.07113 0.00534 0.5137 0.0
O110 O 0.04437 0.99699 0.48164 0.0
C111 C 0.02602 0.04268 0.56408 0.0
C112 C 0.92265 0.9745 0.6067 0.0
C113 C 0.89283 0.94109 0.64127 0.0
C114 C 0.89199 0.96687 0.64327 0.0
C115 C 0.90675 0.9834 0.62611 0.0
C116 C 0.9239 0.94887 0.60475 0.0
C117 C 0.909 0.93225 0.62186 0.0
C118 C 0.9376 0.99232 0.58874 0.0
C119 C 0.02461 0.97028 0.56965 0.0
H120 H 0.13987 0.02438 0.43244 0.0
H121 H 0.11163 0.99527 0.46079 0.0
H122 H 0.06606 0.05143 0.4824 0.0
H123 H 0.09405 0.08069 0.45364 0.0
H124 H 0.8795 0.9742 0.65779 0.0
H125 H 0.90559 0.00315 0.62787 0.0
H126 H 0.93627 0.94172 0.58998 0.0
H127 H 0.91026 0.91254 0.62001 0.0
Tb128 Tb 0.53782 0.02424 0.09204 0.0
Tb129 Tb 0.49333 0.01237 0.04674 0.0
C130 C 0.546 0.99511 0.03994 0.0
C131 C 0.59257 0.05392 0.13789 0.0
C132 C 0.63105 0.093 0.16199 0.0
C133 C 0.63701 0.06953 0.15396 0.0
C134 C 0.61793 0.05019 0.14209 0.0
C135 C 0.5866 0.0775 0.14534 0.0
C136 C 0.60569 0.09687 0.15743 0.0
C137 C 0.57285 0.03267 0.12613 0.0
O138 O 0.55252 0.05278 0.06448 0.0
O139 O 0.51487 0.05111 0.04131 0.0
O140 O 0.4755 0.02572 0.08224 0.0
O141 O 0.51286 0.05156 0.09883 0.0
O142 O 0.47972 0.99218 0.01202 0.0
O143 O 0.45897 0.01928 0.0308 0.0
O144 O 0.48775 0.97731 0.06645 0.0
O145 O 0.5071 0.99332 0.10523 0.0
O146 O 0.54575 0.99389 0.06512 0.0
O147 O 0.53083 0.00774 0.02947 0.0
C148 C 0.53926 0.0622 0.0479 0.0
O149 O 0.54792 0.03233 0.13118 0.0
O150 O 0.57714 0.02613 0.10186 0.0
C151 C 0.48706 0.04595 0.09641 0.0
C152 C 0.43352 0.98366 0.00703 0.0
C153 C 0.38764 0.94804 0.99109 0.0
C154 C 0.39135 0.97351 0.98539 0.0
C155 C 0.41415 0.99112 0.99323 0.0
C156 C 0.4293 0.95853 0.01392 0.0
C157 C 0.40659 0.94083 0.00589 0.0
C158 C 0.45878 1.00176 0.01207 0.0
C159 C 0.49219 0.97492 0.09093 0.0
H160 H 0.65621 0.06584 0.15754 0.0
H161 H 0.62288 0.03211 0.13647 0.0
H162 H 0.56719 0.08087 0.14207 0.0
H163 H 0.60063 0.11484 0.16326 0.0
H164 H 0.37725 0.97958 0.9738 0.0
H165 H 0.41709 0.01041 0.98771 0.0
H166 H 0.44393 0.95239 0.02476 0.0
H167 H 0.40409 0.9214 0.01078 0.0
Tb168 Tb 0.51214 0.51069 0.51662 0.0
Tb169 Tb 0.5142 0.56376 0.55217 0.0
C170 C 0.49083 0.55577 0.49682 0.0
C171 C 0.53458 0.45647 0.48417 0.0
C172 C 0.57788 0.43406 0.47122 0.0
C173 C 0.55545 0.4288 0.4555 0.0
C174 C 0.53399 0.43994 0.46193 0.0
C175 C 0.5566 0.46131 0.50028 0.0
C176 C 0.57803 0.4501 0.49393 0.0
C177 C 0.51354 0.47054 0.48905 0.0
O178 O 0.5534 0.52987 0.51768 0.0
O179 O 0.54821 0.57064 0.52559 0.0
O180 O 0.54094 0.54525 0.57097 0.0
O181 O 0.52393 0.50432 0.55526 0.0
O182 O 0.51708 0.60308 0.55408 0.0
O183 O 0.51287 0.58298 0.58881 0.0
O184 O 0.48099 0.53582 0.56633 0.0
O185 O 0.47153 0.50964 0.52941 0.0
O186 O 0.50469 0.53847 0.4911 0.0
O187 O 0.48678 0.56332 0.52107 0.0
C188 C 0.56244 0.55434 0.51698 0.0
O189 O 0.50354 0.47089 0.51253 0.0
O190 O 0.51875 0.49296 0.48026 0.0
C191 C 0.53815 0.52068 0.57216 0.0
C192 C 0.4908 0.61615 0.588 0.0
C193 C 0.44873 0.6385 0.60594 0.0
C194 C 0.47514 0.65134 0.61001 0.0
C195 C 0.49601 0.64021 0.60113 0.0
C196 C 0.46453 0.60335 0.58364 0.0
C197 C 0.44366 0.6144 0.59257 0.0
C198 C 0.51268 0.60433 0.57904 0.0
C199 C 0.46475 0.51808 0.55256 0.0
H200 H 0.55466 0.41631 0.43803 0.0
H201 H 0.51723 0.43617 0.44919 0.0
H202 H 0.55755 0.47435 0.51737 0.0
H203 H 0.59511 0.45475 0.50626 0.0
H204 H 0.47968 0.66979 0.62048 0.0
H205 H 0.51621 0.65031 0.60465 0.0
H206 H 0.46019 0.58476 0.5734 0.0
H207 H 0.42357 0.60417 0.58883 0.0
Tb208 Tb 0.00293 0.52839 0.0024 0.0
Tb209 Tb 1.0012 0.47665 0.0325 0.0
C210 C 0.02992 0.4852 0.97889 0.0
C211 C 0.98139 0.58131 0.97547 0.0
C212 C 0.93957 0.60456 0.9657 0.0
C213 C 0.9623 0.60775 0.94947 0.0
C214 C 0.98302 0.59622 0.95435 0.0
C215 C 0.95908 0.57848 0.99209 0.0
C216 C 0.9384 0.59011 0.98732 0.0
C217 C 0.00189 0.56709 0.9787 0.0
O218 O 0.96186 0.5079 1.00195 0.0
O219 O 0.96803 0.46782 0.00587 0.0
O220 O 0.97443 0.49611 0.05498 0.0
O221 O 0.99049 0.53638 0.04206 0.0
O222 O 0.99842 0.43734 0.02959 0.0
O223 O 0.00232 0.45856 0.06673 0.0
O224 O 0.03415 0.5052 0.04867 0.0
O225 O 0.04304 0.53233 0.01587 0.0
O226 O 0.01503 0.50096 0.97444 0.0
O227 O 0.03142 0.47769 0.00214 0.0
C228 C 0.95346 0.4832 0.99913 0.0
O229 O 0.01094 0.56804 1.00201 0.0
O230 O 0.99684 0.5441 0.96796 0.0
C231 C 0.9769 0.52078 0.05832 0.0
C232 C 0.0248 0.42543 0.06014 0.0
C233 C 0.06714 0.40311 0.07081 0.0
C234 C 0.072 0.42724 0.06106 0.0
C235 C 0.05102 0.43827 0.05574 0.0
C236 C 0.01978 0.40145 0.06991 0.0
C237 C 0.04077 0.39037 0.07523 0.0
C238 C 0.00277 0.4369 0.05417 0.0
C239 C 0.04976 0.52393 0.03726 0.0
H240 H 0.96371 0.61838 0.93243 0.0
H241 H 0.99998 0.59833 0.94118 0.0
H242 H 0.95742 0.56684 0.00842 0.0
H243 H 0.92136 0.58752 1.00038 0.0
H244 H 0.09203 0.43775 0.05779 0.0
H245 H 0.05525 0.45684 0.0482 0.0
H246 H 0.99963 0.39125 0.07329 0.0
H247 H 0.03632 0.37166 0.08242 0.0
C248 C 0.254 0.16396 0.26784 0.0
C249 C 0.26498 0.1899 0.27287 0.0
C250 C 0.23767 0.15033 0.28632 0.0
C251 C 0.22067 0.15126 0.35621 0.0
H252 H 0.1577 0.10239 0.33355 0.0
C253 C 0.14406 0.0975 0.42812 0.0
C254 C 0.13486 0.07147 0.42172 0.0
C255 C 0.15927 0.11299 0.41024 0.0
C256 C 0.17532 0.11582 0.34016 0.0
H257 H 0.26754 0.22183 0.30136 0.0
H258 H 0.23893 0.19803 0.33353 0.0
H259 H 0.1858 0.12729 0.30186 0.0
H260 H 0.13381 0.04141 0.39133 0.0
H261 H 0.16058 0.06825 0.3604 0.0
H262 H 0.21023 0.13961 0.39452 0.0
C263 C 0.24314 0.1882 0.31538 0.0
C264 C 0.19144 0.13007 0.322 0.0
C265 C 0.25943 0.20186 0.29687 0.0
C266 C 0.1409 0.06133 0.39699 0.0
C267 C 0.15598 0.07678 0.37914 0.0
C268 C 0.20452 0.13699 0.3744 0.0
C269 C 0.23198 0.1623 0.31027 0.0
C270 C 0.21443 0.14778 0.32977 0.0
C271 C 0.16539 0.10277 0.38555 0.0
C272 C 0.18181 0.11893 0.36653 0.0
H273 H 0.25792 0.15415 0.24959 0.0
H274 H 0.22971 0.13031 0.28193 0.0
H275 H 0.23839 0.16456 0.36278 0.0
H276 H 0.13983 0.10583 0.44707 0.0
H277 H 0.16606 0.13299 0.41567 0.0
C278 C 0.24834 0.80545 0.83805 0.0
C279 C 0.22404 0.81115 0.83249 0.0
C280 C 0.26247 0.81711 0.85985 0.0
C281 C 0.27145 0.87594 0.90117 0.0
H282 H 0.31257 0.84326 0.94316 0.0
C283 C 0.33984 0.93386 0.97925 0.0
C284 C 0.36526 0.92885 0.97966 0.0
C285 C 0.31963 0.91713 0.96563 0.0
C286 C 0.30128 0.85268 0.93153 0.0
H287 H 0.19488 0.83253 0.84634 0.0
H288 H 0.21952 0.85277 0.88434 0.0
H289 H 0.28248 0.81782 0.91109 0.0
H290 H 0.38923 0.90201 0.9668 0.0
H291 H 0.35421 0.87306 0.94272 0.0
H292 H 0.29082 0.91085 0.92068 0.0
C293 C 0.22778 0.83954 0.87163 0.0
C294 C 0.28403 0.8381 0.91321 0.0
C295 C 0.21362 0.82784 0.8499 0.0
C296 C 0.36976 0.90624 0.9671 0.0
C297 C 0.34962 0.88961 0.95332 0.0
C298 C 0.28876 0.8905 0.91934 0.0
C299 C 0.25264 0.83476 0.87651 0.0
C300 C 0.26919 0.84963 0.8976 0.0
C301 C 0.32447 0.89513 0.95191 0.0
C302 C 0.30418 0.87913 0.93451 0.0
H303 H 0.25691 0.79264 0.82508 0.0
H304 H 0.28166 0.81318 0.86297 0.0
H305 H 0.26064 0.88547 0.88915 0.0
H306 H 0.33573 0.95098 0.98906 0.0
H307 H 0.30035 0.92171 0.9654 0.0
C308 C 0.63366 0.45537 0.7644 0.0
C309 C 0.64031 0.43153 0.76134 0.0
C310 C 0.62439 0.46567 0.74344 0.0
C311 C 0.59013 0.44674 0.68152 0.0
H312 H 0.61465 0.51718 0.6672 0.0
C313 C 0.55468 0.48594 0.59134 0.0
C314 C 0.55132 0.51103 0.59318 0.0
C315 C 0.56663 0.47667 0.61128 0.0
C316 C 0.6072 0.49754 0.67107 0.0
H317 H 0.6427 0.40004 0.73356 0.0
H318 H 0.62628 0.41786 0.69718 0.0
H319 H 0.63338 0.50061 0.70294 0.0
H320 H 0.55794 0.546 0.61765 0.0
H321 H 0.57788 0.52972 0.65271 0.0
H322 H 0.5634 0.44364 0.65035 0.0
C323 C 0.62824 0.42859 0.71582 0.0
C324 C 0.6181 0.48802 0.69157 0.0
C325 C 0.63784 0.41846 0.73666 0.0
C326 C 0.56034 0.52663 0.61547 0.0
C327 C 0.57198 0.51726 0.63558 0.0
C328 C 0.57898 0.45631 0.66126 0.0
C329 C 0.62116 0.45224 0.71897 0.0
C330 C 0.60977 0.46247 0.69702 0.0
C331 C 0.57528 0.49209 0.63388 0.0
C332 C 0.58735 0.48187 0.6556 0.0
H333 H 0.63526 0.46597 0.78311 0.0
H334 H 0.61899 0.48385 0.74661 0.0
H335 H 0.58294 0.42706 0.68541 0.0
H336 H 0.54824 0.47344 0.57436 0.0
H337 H 0.56926 0.4574 0.60877 0.0
C338 C 0.90443 0.64306 0.24573 0.0
C339 C 0.90406 0.63249 0.26972 0.0
C340 C 0.91221 0.63068 0.22302 0.0
C341 C 0.91655 0.56786 0.19413 0.0
H342 H 0.9655 0.60526 0.14521 0.0
C343 C 0.95981 0.51862 0.10434 0.0
C344 C 0.96522 0.53183 0.08178 0.0
C345 C 0.95149 0.53032 0.12726 0.0
C346 C 0.95146 0.59455 0.15839 0.0
H347 H 0.91168 0.60063 0.28868 0.0
H348 H 0.92501 0.5789 0.24893 0.0
H349 H 0.95322 0.62702 0.18514 0.0
H350 H 0.96476 0.56719 0.06518 0.0
H351 H 0.94937 0.58719 0.10466 0.0
H352 H 0.91429 0.53548 0.16722 0.0
C353 C 0.91926 0.59678 0.24775 0.0
C354 C 0.94454 0.60705 0.18137 0.0
C355 C 0.91181 0.60932 0.27052 0.0
C356 C 0.96108 0.55658 0.08233 0.0
C357 C 0.95245 0.56815 0.10509 0.0
C358 C 0.92323 0.55538 0.17098 0.0
C359 C 0.91947 0.60729 0.22375 0.0
C360 C 0.92703 0.59386 0.19949 0.0
C361 C 0.94808 0.55541 0.12805 0.0
C362 C 0.94076 0.56857 0.15275 0.0
H363 H 0.89857 0.66087 0.24444 0.0
H364 H 0.912 0.63916 0.20479 0.0
H365 H 0.90276 0.55726 0.20762 0.0
H366 H 0.96298 0.49958 0.10458 0.0
H367 H 0.94858 0.51996 0.14456 0.0
C368 C 0.35848 0.20437 0.17157 0.0
C369 C 0.35635 0.2203 0.15197 0.0
C370 C 0.3708 0.18396 0.16645 0.0
C371 C 0.3872 0.13484 0.14588 0.0
H372 H 0.45414 0.14945 0.10794 0.0
C373 C 0.44342 0.05816 0.10524 0.0
C374 C 0.47114 0.06408 0.10718 0.0
C375 C 0.42867 0.07632 0.11271 0.0
C376 C 0.43557 0.14511 0.11872 0.0
H377 H 0.36534 0.22714 0.11156 0.0
H378 H 0.38692 0.19165 0.10268 0.0
H379 H 0.42907 0.18241 0.11621 0.0
H380 H 0.50496 0.09348 0.11943 0.0
H381 H 0.47921 0.1251 0.13239 0.0
H382 H 0.39382 0.09747 0.14835 0.0
C383 C 0.37905 0.19493 0.12201 0.0
C384 C 0.42105 0.1639 0.12319 0.0
C385 C 0.36658 0.2152 0.12708 0.0
C386 C 0.48366 0.08827 0.11762 0.0
C387 C 0.46893 0.10647 0.12489 0.0
C388 C 0.40163 0.11592 0.14118 0.0
C389 C 0.38161 0.17928 0.14172 0.0
C390 C 0.3967 0.15901 0.1368 0.0
C391 C 0.44133 0.10085 0.12208 0.0
C392 C 0.42603 0.12089 0.12761 0.0
H393 H 0.3519 0.20832 0.1912 0.0
H394 H 0.37286 0.1725 0.18215 0.0
H395 H 0.36845 0.13049 0.15634 0.0
H396 H 0.43313 0.03971 0.0973 0.0
H397 H 0.40745 0.07146 0.11018 0.0
C398 C 0.0968 0.84632 0.7296 0.0
C399 C 0.11722 0.83406 0.72151 0.0
C400 C 0.08615 0.85975 0.71237 0.0
C401 C 0.07998 0.86853 0.64298 0.0
H402 H 0.06935 0.93451 0.66925 0.0
C403 C 0.05419 0.94061 0.57675 0.0
C404 C 0.03529 0.95417 0.58643 0.0
C405 C 0.06409 0.92534 0.59267 0.0
C406 C 0.0719 0.91602 0.66167 0.0
H407 H 0.14185 0.82556 0.68868 0.0
H408 H 0.12327 0.84917 0.65857 0.0
H409 H 0.08611 0.90838 0.6978 0.0
H410 H 0.01177 0.96202 0.62041 0.0
H411 H 0.02882 0.93529 0.64797 0.0
H412 H 0.0657 0.87625 0.6068 0.0
C413 C 0.11543 0.84826 0.67825 0.0
C414 C 0.0815 0.90103 0.67805 0.0
C415 C 0.12614 0.83481 0.69553 0.0
C416 C 0.02645 0.95201 0.61233 0.0
C417 C 0.03632 0.93676 0.62821 0.0
C418 C 0.0703 0.88355 0.62657 0.0
C419 C 0.09564 0.86124 0.68662 0.0
C420 C 0.08553 0.87706 0.66895 0.0
C421 C 0.05533 0.92331 0.61862 0.0
C422 C 0.06604 0.90742 0.63578 0.0
H423 H 0.08933 0.84598 0.74943 0.0
H424 H 0.07058 0.86915 0.71929 0.0
H425 H 0.08267 0.85007 0.63547 0.0
H426 H 0.06144 0.94184 0.55689 0.0
H427 H 0.07892 0.91544 0.58477 0.0
C428 C 0.73927 0.38092 0.89694 0.0
C429 C 0.72902 0.3981 0.88353 0.0
C430 C 0.76291 0.389 0.91068 0.0
C431 C 0.80668 0.44669 0.9411 0.0
H432 H 0.86083 0.40739 0.93477 0.0
C433 C 0.91274 0.48852 0.9771 0.0
C434 C 0.927 0.47254 0.98758 0.0
C435 C 0.88822 0.47864 0.96558 0.0
C436 C 0.84582 0.41847 0.93715 0.0
H437 H 0.73581 0.4373 0.87416 0.0
H438 H 0.77663 0.45127 0.89807 0.0
H439 H 0.81877 0.39141 0.91306 0.0
H440 H 0.92623 0.43346 0.99429 0.0
H441 H 0.88324 0.41628 0.97476 0.0
H442 H 0.8334 0.47366 0.96528 0.0
C443 C 0.76639 0.4316 0.89816 0.0
C444 C 0.82165 0.40928 0.92461 0.0
C445 C 0.74301 0.4235 0.88427 0.0
C446 C 0.91591 0.44637 0.98637 0.0
C447 C 0.89125 0.43648 0.97497 0.0
C448 C 0.8307 0.45579 0.95377 0.0
C449 C 0.77671 0.4145 0.91157 0.0
C450 C 0.80188 0.42343 0.92614 0.0
C451 C 0.87703 0.45245 0.96432 0.0
C452 C 0.85083 0.44201 0.95175 0.0
H453 H 0.72933 0.36117 0.8965 0.0
H454 H 0.77024 0.37532 0.92084 0.0
H455 H 0.79175 0.4579 0.94311 0.0
H456 H 0.92066 0.50875 0.97744 0.0
H457 H 0.87829 0.4916 0.95722 0.0
C458 C 0.78113 0.60976 0.40962 0.0
C459 C 0.78991 0.63588 0.40706 0.0
C460 C 0.75608 0.60014 0.42031 0.0
C461 C 0.69105 0.61609 0.43595 0.0
H462 H 0.68517 0.56594 0.48651 0.0
C463 C 0.59869 0.58947 0.50217 0.0
C464 C 0.58904 0.56358 0.50543 0.0
C465 C 0.6232 0.5979 0.48993 0.0
C466 C 0.68643 0.57975 0.47224 0.0
H467 H 0.77901 0.67229 0.41313 0.0
H468 H 0.73561 0.6556 0.43193 0.0
H469 H 0.72746 0.58082 0.46435 0.0
H470 H 0.59785 0.52627 0.49873 0.0
H471 H 0.64048 0.54102 0.47737 0.0
H472 H 0.65008 0.61518 0.44401 0.0
C473 C 0.74789 0.64247 0.42546 0.0
C474 C 0.71063 0.58822 0.45948 0.0
C475 C 0.77287 0.65207 0.41479 0.0
C476 C 0.60467 0.54637 0.49659 0.0
C477 C 0.62919 0.55481 0.48443 0.0
C478 C 0.66687 0.60766 0.44873 0.0
C479 C 0.7393 0.61644 0.42861 0.0
C480 C 0.71326 0.60659 0.44128 0.0
C481 C 0.63863 0.58064 0.48077 0.0
C482 C 0.66432 0.58949 0.46711 0.0
H483 H 0.79376 0.59678 0.40377 0.0
H484 H 0.74989 0.57995 0.42215 0.0
H485 H 0.6923 0.62996 0.42174 0.0
H486 H 0.58719 0.60324 0.50877 0.0
H487 H 0.63012 0.61797 0.48771 0.0
C488 C 0.26901 0.32699 0.10497 0.0
C489 C 0.26891 0.31532 0.12829 0.0
C490 C 0.2465 0.33457 0.0974 0.0
C491 C 0.17413 0.32623 0.10958 0.0
H492 H 0.18526 0.3924 0.08237 0.0
C493 C 0.08911 0.37799 0.09859 0.0
C494 C 0.08954 0.39136 0.07631 0.0
C495 C 0.11047 0.36748 0.10401 0.0
C496 C 0.18179 0.37374 0.08962 0.0
H497 H 0.24477 0.30181 0.16159 0.0
H498 H 0.20561 0.31523 0.14852 0.0
H499 H 0.22321 0.37587 0.09309 0.0
H500 H 0.1125 0.40344 0.04185 0.0
H501 H 0.14971 0.3852 0.05135 0.0
H502 H 0.13263 0.3243 0.10634 0.0
C503 C 0.22301 0.31832 0.13593 0.0
C504 C 0.20357 0.36424 0.09575 0.0
C505 C 0.24552 0.31071 0.14348 0.0
C506 C 0.11171 0.39368 0.05943 0.0
C507 C 0.13305 0.3832 0.06486 0.0
C508 C 0.15231 0.33577 0.10347 0.0
C509 C 0.22335 0.33069 0.11299 0.0
C510 C 0.20004 0.34038 0.10584 0.0
C511 C 0.13277 0.3701 0.08729 0.0
C512 C 0.15589 0.35967 0.09346 0.0
H513 H 0.28665 0.33072 0.09273 0.0
H514 H 0.24732 0.34363 0.07938 0.0
H515 H 0.1707 0.30766 0.11701 0.0
H516 H 0.07252 0.37613 0.11218 0.0
H517 H 0.10976 0.3578 0.12163 0.0
C518 C 0.63365 0.25872 0.93929 0.0
C519 C 0.65964 0.27032 0.94664 0.0
C520 C 0.62006 0.23649 0.95017 0.0
C521 C 0.62024 0.19826 0.00687 0.0
H522 H 0.57642 0.14467 0.96383 0.0
C523 C 0.57823 0.09879 0.04325 0.0
C524 C 0.55239 0.08624 0.03628 0.0
C525 C 0.59068 0.12134 0.03238 0.0
C526 C 0.5883 0.15955 0.97624 0.0
H527 H 0.69164 0.26739 0.97125 0.0
H528 H 0.66814 0.22871 0.98997 0.0
H529 H 0.59911 0.18359 0.94485 0.0
H530 H 0.51946 0.08789 0.01227 0.0
H531 H 0.54109 0.12727 0.99351 0.0
H532 H 0.60951 0.17425 0.03823 0.0
C533 C 0.65805 0.23692 0.97604 0.0
C534 C 0.60135 0.18193 0.96532 0.0
C535 C 0.67164 0.25909 0.96515 0.0
C536 C 0.53937 0.09692 0.0181 0.0
C537 C 0.55186 0.11949 0.0072 0.0
C538 C 0.6072 0.17591 0.01777 0.0
C539 C 0.63205 0.22528 0.96875 0.0
C540 C 0.61763 0.20158 0.98045 0.0
C541 C 0.5777 0.13205 0.01419 0.0
C542 C 0.59114 0.15615 0.0026 0.0
H543 H 0.62373 0.26682 0.92513 0.0
H544 H 0.59998 0.2283 0.94426 0.0
H545 H 0.63217 0.2131 0.01928 0.0
H546 H 0.58898 0.0912 0.05711 0.0
H547 H 0.6107 0.1302 0.038 0.0
C548 C 0.92776 0.75386 0.3807 0.0
C549 C 0.92081 0.73234 0.39505 0.0
C550 C 0.93636 0.77793 0.39326 0.0
C551 C 0.95935 0.8115 0.45688 0.0
H552 H 0.93129 0.86537 0.43141 0.0
C553 C 0.96343 0.90753 0.51568 0.0
C554 C 0.97274 0.92913 0.50186 0.0
C555 C 0.95715 0.88346 0.50258 0.0
C556 C 0.9394 0.85055 0.43866 0.0
H557 H 0.91866 0.71923 0.43382 0.0
H558 H 0.93306 0.76097 0.45559 0.0
H559 H 0.92238 0.82368 0.40819 0.0
H560 H 0.98193 0.94251 0.46344 0.0
H561 H 0.97065 0.90069 0.4407 0.0
H562 H 0.97586 0.83842 0.4877 0.0
C563 C 0.93227 0.75937 0.43463 0.0
C564 C 0.93447 0.82668 0.42525 0.0
C565 C 0.92388 0.73534 0.42209 0.0
C566 C 0.97485 0.92625 0.47468 0.0
C567 C 0.96829 0.9023 0.46161 0.0
C568 C 0.96406 0.83534 0.47042 0.0
C569 C 0.93806 0.78106 0.42046 0.0
C570 C 0.94437 0.80681 0.43417 0.0
C571 C 0.95973 0.88061 0.47542 0.0
C572 C 0.95414 0.85511 0.46144 0.0
H573 H 0.92576 0.75223 0.35984 0.0
H574 H 0.94122 0.79414 0.38165 0.0
H575 H 0.96764 0.79682 0.46415 0.0
H576 H 0.96168 0.90911 0.53664 0.0
H577 H 0.95035 0.86708 0.5137 0.0
C578 C 0.28009 0.75287 0.69126 0.0
C579 C 0.25963 0.73795 0.70544 0.0
C580 C 0.29986 0.74223 0.67882 0.0
C581 C 0.31563 0.68127 0.65463 0.0
H582 H 0.38837 0.71831 0.66187 0.0
C583 C 0.40424 0.63531 0.62787 0.0
C584 C 0.42652 0.65003 0.61586 0.0
C585 C 0.38348 0.64618 0.63754 0.0
C586 C 0.36816 0.70786 0.65933 0.0
H587 H 0.24359 0.70002 0.71725 0.0
H588 H 0.27814 0.6815 0.69563 0.0
H589 H 0.35267 0.73698 0.68059 0.0
H590 H 0.44423 0.68761 0.60411 0.0
H591 H 0.40794 0.7066 0.62087 0.0
H592 H 0.33112 0.6521 0.63345 0.0
C593 C 0.2788 0.70139 0.69396 0.0
C594 C 0.34769 0.71857 0.67008 0.0
C595 C 0.25907 0.71204 0.70647 0.0
C596 C 0.42751 0.67585 0.6136 0.0
C597 C 0.40671 0.68672 0.62321 0.0
C598 C 0.3361 0.67058 0.64382 0.0
C599 C 0.29956 0.71642 0.68021 0.0
C600 C 0.3212 0.70534 0.66797 0.0
C601 C 0.38449 0.67204 0.63538 0.0
C602 C 0.36263 0.68369 0.64617 0.0
H603 H 0.28106 0.77288 0.69001 0.0
H604 H 0.3154 0.75424 0.66808 0.0
H605 H 0.2954 0.67075 0.65236 0.0
H606 H 0.40305 0.61545 0.63027 0.0
H607 H 0.36688 0.63442 0.64718 0.0
C608 C 0.75556 0.81033 0.80111 0.0
C609 C 0.74107 0.78727 0.78987 0.0
C610 C 0.77134 0.82806 0.78565 0.0
C611 C 0.78256 0.84542 0.71748 0.0
H612 H 0.85232 0.87955 0.74129 0.0
C613 C 0.86191 0.8997 0.64938 0.0
C614 C 0.87635 0.92347 0.65902 0.0
C615 C 0.84536 0.88365 0.66585 0.0
C616 C 0.83279 0.87036 0.73449 0.0
H617 H 0.73189 0.76464 0.75362 0.0
H618 H 0.7596 0.79527 0.72676 0.0
H619 H 0.82286 0.85106 0.76923 0.0
H620 H 0.88531 0.94873 0.69364 0.0
H621 H 0.85629 0.92072 0.72238 0.0
H622 H 0.79264 0.86445 0.68261 0.0
C623 C 0.75841 0.79999 0.74743 0.0
C624 C 0.81587 0.85409 0.75052 0.0
C625 C 0.74267 0.78233 0.76287 0.0
C626 C 0.87424 0.93063 0.68559 0.0
C627 C 0.85781 0.91451 0.70209 0.0
C628 C 0.7995 0.86159 0.70143 0.0
C629 C 0.77306 0.82303 0.75862 0.0
C630 C 0.79061 0.84128 0.74214 0.0
C631 C 0.84299 0.89094 0.69235 0.0
C632 C 0.82487 0.87411 0.70967 0.0
H633 H 0.75551 0.81439 0.82189 0.0
H634 H 0.78228 0.84566 0.79489 0.0
H635 H 0.76307 0.83622 0.71059 0.0
H636 H 0.86295 0.89373 0.62897 0.0
H637 H 0.83444 0.86547 0.65782 0.0
C638 C 0.79658 0.20552 0.31427 0.0
C639 C 0.80431 0.23199 0.31379 0.0
C640 C 0.77968 0.1913 0.29556 0.0
C641 C 0.75137 0.1922 0.2313 0.0
H642 H 0.6924 0.14376 0.25914 0.0
C643 C 0.67765 0.1176 0.16836 0.0
C644 C 0.6509 0.11269 0.17633 0.0
C645 C 0.69681 0.13403 0.18349 0.0
C646 C 0.70862 0.15736 0.25109 0.0
H647 H 0.80154 0.26408 0.29234 0.0
H648 H 0.77201 0.23917 0.25966 0.0
H649 H 0.72632 0.16789 0.28812 0.0
H650 H 0.62311 0.12183 0.20592 0.0
H651 H 0.65655 0.15071 0.23224 0.0
H652 H 0.73341 0.18166 0.19422 0.0
C653 C 0.77906 0.22947 0.27454 0.0
C654 C 0.72824 0.17093 0.26763 0.0
C655 C 0.79591 0.24373 0.29333 0.0
C656 C 0.64354 0.12534 0.1992 0.0
C657 C 0.66271 0.14166 0.21439 0.0
C658 C 0.73177 0.17846 0.21467 0.0
C659 C 0.77021 0.2032 0.27589 0.0
C660 C 0.74985 0.18847 0.25793 0.0
C661 C 0.6896 0.14577 0.20697 0.0
C662 C 0.71016 0.16094 0.22444 0.0
H663 H 0.80281 0.19583 0.32964 0.0
H664 H 0.77355 0.17101 0.2968 0.0
H665 H 0.76783 0.20556 0.22328 0.0
H666 H 0.68385 0.10831 0.15066 0.0
H667 H 0.71738 0.13675 0.17732 0.0
C668 C 0.40362 0.66954 0.3328 0.0
C669 C 0.40976 0.66241 0.30696 0.0
C670 C 0.41281 0.65885 0.35352 0.0
C671 C 0.46257 0.62247 0.37044 0.0
H672 H 0.41584 0.60614 0.42985 0.0
C673 C 0.48604 0.5608 0.44931 0.0
C674 C 0.48055 0.56765 0.47541 0.0
C675 C 0.47746 0.57264 0.42913 0.0
C676 C 0.4293 0.61082 0.41357 0.0
H677 H 0.43076 0.6385 0.28286 0.0
H678 H 0.44652 0.61972 0.3188 0.0
H679 H 0.4014 0.62648 0.39432 0.0
H680 H 0.46138 0.59239 0.50051 0.0
H681 H 0.44647 0.61304 0.46537 0.0
H682 H 0.49038 0.60663 0.38962 0.0
C683 C 0.43488 0.63386 0.32318 0.0
C684 C 0.42102 0.62257 0.39312 0.0
C685 C 0.42572 0.64458 0.30246 0.0
C686 C 0.46593 0.58651 0.4807 0.0
C687 C 0.45727 0.59831 0.46048 0.0
C688 C 0.47082 0.61067 0.39085 0.0
C689 C 0.4284 0.64066 0.34906 0.0
C690 C 0.43748 0.62853 0.37117 0.0
C691 C 0.46306 0.59168 0.43438 0.0
C692 C 0.45429 0.60458 0.41271 0.0
H693 H 0.39143 0.68324 0.33707 0.0
H694 H 0.40773 0.66495 0.3731 0.0
H695 H 0.47606 0.62711 0.35419 0.0
H696 H 0.4972 0.54635 0.44438 0.0
H697 H 0.48198 0.56668 0.40934 0.0
C698 C 0.14591 0.37936 0.80959 0.0
C699 C 0.14918 0.38961 0.78523 0.0
C700 C 0.13551 0.39184 0.83076 0.0
C701 C 0.09211 0.43586 0.84633 0.0
H702 H 0.12012 0.44026 0.9154 0.0
C703 C 0.04757 0.48679 0.93316 0.0
C704 C 0.04541 0.47584 0.9571 0.0
C705 C 0.06185 0.47785 0.91244 0.0
C706 C 0.11185 0.43894 0.8963 0.0
H707 H 0.14461 0.42137 0.76423 0.0
H708 H 0.12623 0.44311 0.80127 0.0
H709 H 0.14263 0.42223 0.87883 0.0
H710 H 0.05667 0.44689 0.97804 0.0
H711 H 0.081 0.43084 0.94171 0.0
H712 H 0.06093 0.45186 0.86371 0.0
C713 C 0.13168 0.42533 0.80386 0.0
C714 C 0.12483 0.4287 0.87533 0.0
C715 C 0.14235 0.41295 0.78271 0.0
C716 C 0.05801 0.45582 0.95989 0.0
C717 C 0.07213 0.44672 0.93907 0.0
C718 C 0.079 0.44591 0.8673 0.0
C719 C 0.1279 0.41476 0.82805 0.0
C720 C 0.11503 0.42693 0.85014 0.0
C721 C 0.07416 0.45756 0.91503 0.0
C722 C 0.0886 0.44747 0.89261 0.0
H723 H 0.15101 0.36144 0.81225 0.0
H724 H 0.13263 0.38309 0.84906 0.0
H725 H 0.08383 0.43439 0.82721 0.0
H726 H 0.03832 0.5024 0.93039 0.0
H727 H 0.06337 0.48699 0.89441 0.0
C728 C 0.68541 0.87245 0.91163 0.0
C729 C 0.68107 0.87184 0.8849 0.0
C730 C 0.67352 0.88759 0.92926 0.0
C731 C 0.64053 0.94174 0.93444 0.0
H732 H 0.60644 0.91062 0.99544 0.0
C733 C 0.56318 0.98295 0.99605 0.0
C734 C 0.56343 0.9822 0.02313 0.0
C735 C 0.57948 0.97073 0.98006 0.0
C736 C 0.61619 0.91976 0.97872 0.0
H737 H 0.66149 0.88729 0.85569 0.0
H738 H 0.64067 0.91357 0.88644 0.0
H739 H 0.63202 0.88757 0.96596 0.0
H740 H 0.58121 0.96818 0.05466 0.0
H741 H 0.60985 0.947 0.0267 0.0
H742 H 0.62445 0.97382 0.94705 0.0
C743 C 0.65341 0.90248 0.89377 0.0
C744 C 0.63086 0.90654 0.96182 0.0
C745 C 0.66524 0.8873 0.87615 0.0
C746 C 0.58045 0.96904 0.03387 0.0
C747 C 0.59679 0.95681 0.01784 0.0
C748 C 0.6259 0.95498 0.95136 0.0
C749 C 0.6571 0.90252 0.92056 0.0
C750 C 0.64296 0.91727 0.93933 0.0
C751 C 0.59646 0.95749 0.99074 0.0
C752 C 0.61329 0.94402 0.97355 0.0
H753 H 0.69759 0.86085 0.91903 0.0
H754 H 0.67704 0.88748 0.94975 0.0
H755 H 0.64996 0.95069 0.91749 0.0
H756 H 0.55025 0.99285 0.98711 0.0
H757 H 0.57841 0.9713 0.95926 0.0
C758 C 0.91248 0.20319 0.41757 0.0
C759 C 0.88602 0.20374 0.42403 0.0
C760 C 0.92402 0.18451 0.42641 0.0
C761 C 0.91542 0.13743 0.47606 0.0
H762 H 0.96201 0.10637 0.43027 0.0
C763 C 0.94705 0.04725 0.5004 0.0
C764 C 0.97411 0.04713 0.4975 0.0
C765 C 0.9369 0.06622 0.49043 0.0
C766 C 0.94922 0.11503 0.44333 0.0
H767 H 0.85092 0.18505 0.44481 0.0
H768 H 0.87082 0.1523 0.45981 0.0
H769 H 0.94327 0.14013 0.4153 0.0
H770 H 0.01153 0.06644 0.48098 0.0
H771 H 0.99364 0.09957 0.46341 0.0
H772 H 0.92106 0.11211 0.50393 0.0
C773 C 0.88288 0.16655 0.44833 0.0
C774 C 0.93853 0.13442 0.43481 0.0
C775 C 0.8714 0.18528 0.43961 0.0
C776 C 0.9906 0.06597 0.48358 0.0
C777 C 0.98036 0.08491 0.47345 0.0
C778 C 0.92595 0.11798 0.48448 0.0
C779 C 0.90932 0.1659 0.44183 0.0
C780 C 0.92137 0.14576 0.45103 0.0
C781 C 0.9535 0.08548 0.47721 0.0
C782 C 0.94282 0.10646 0.46818 0.0
H783 H 0.9243 0.21718 0.40564 0.0
H784 H 0.94453 0.18479 0.42132 0.0
H785 H 0.90274 0.14607 0.48928 0.0
H786 H 0.93372 0.03301 0.51092 0.0
H787 H 0.91603 0.06591 0.49326 0.0
C788 C 0.27123 0.62123 0.12272 0.0
C789 C 0.27137 0.63476 0.14705 0.0
C790 C 0.24741 0.60872 0.11127 0.0
C791 C 0.17561 0.58456 0.12543 0.0
H792 H 0.17023 0.5853 0.05097 0.0
C793 C 0.08485 0.5254 0.07 0.0
C794 C 0.07558 0.53608 0.04924 0.0
C795 C 0.10874 0.53715 0.08184 0.0
C796 C 0.17123 0.58506 0.07181 0.0
H797 H 0.24635 0.64541 0.17853 0.0
H798 H 0.20475 0.62394 0.15839 0.0
H799 H 0.21116 0.60653 0.07206 0.0
H800 H 0.08438 0.5676 0.02469 0.0
H801 H 0.12573 0.58829 0.04558 0.0
H802 H 0.13537 0.56375 0.12526 0.0
C803 C 0.22312 0.62266 0.14829 0.0
C804 C 0.19493 0.59698 0.08391 0.0
C805 C 0.24702 0.63509 0.15983 0.0
C806 C 0.09094 0.55874 0.04052 0.0
C807 C 0.11478 0.57057 0.05246 0.0
C808 C 0.15186 0.57271 0.11333 0.0
C809 C 0.22296 0.60947 0.12371 0.0
C810 C 0.19752 0.59685 0.1109 0.0
C811 C 0.124 0.56 0.07337 0.0
C812 C 0.14933 0.57274 0.08632 0.0
H813 H 0.28959 0.6204 0.11236 0.0
H814 H 0.24821 0.59836 0.09261 0.0
H815 H 0.17684 0.5838 0.14618 0.0
H816 H 0.07369 0.50787 0.07714 0.0
H817 H 0.11535 0.52814 0.09753 0.0
C818 C 0.2467 0.4112 0.63833 0.0
C819 C 0.24807 0.40656 0.66454 0.0
C820 C 0.26904 0.42421 0.62516 0.0
C821 C 0.33102 0.47044 0.63446 0.0
H822 H 0.35613 0.43866 0.57169 0.0
C823 C 0.43442 0.50937 0.59103 0.0
C824 C 0.43867 0.50671 0.56408 0.0
C825 C 0.41026 0.49803 0.6023 0.0
C826 C 0.34919 0.44813 0.58888 0.0
H827 H 0.27371 0.41239 0.69766 0.0
H828 H 0.3125 0.43581 0.67482 0.0
H829 H 0.31527 0.41772 0.593 0.0
H830 H 0.42061 0.49055 0.52773 0.0
H831 H 0.37797 0.4716 0.54723 0.0
H832 H 0.36427 0.50116 0.63022 0.0
C833 C 0.29421 0.4291 0.66444 0.0
C834 C 0.32583 0.436 0.60114 0.0
C835 C 0.27206 0.41563 0.67745 0.0
C836 C 0.418 0.49279 0.54858 0.0
C837 C 0.39359 0.48178 0.55983 0.0
C838 C 0.35408 0.48281 0.62196 0.0
C839 C 0.29297 0.43332 0.63813 0.0
C840 C 0.31677 0.44688 0.62425 0.0
C841 C 0.38942 0.48409 0.5869 0.0
C842 C 0.36379 0.47165 0.59921 0.0
H843 H 0.2285 0.40436 0.62785 0.0
H844 H 0.26759 0.42733 0.60489 0.0
H845 H 0.32424 0.47936 0.6521 0.0
H846 H 0.45002 0.51976 0.60358 0.0
H847 H 0.40821 0.49982 0.62321 0.0
C848 C 0.75775 0.69384 0.89282 0.0
C849 C 0.75042 0.68347 0.86771 0.0
C850 C 0.77662 0.68524 0.90618 0.0
C851 C 0.81039 0.63177 0.90664 0.0
H852 H 0.86391 0.68093 0.94485 0.0
C853 C 0.92052 0.63881 0.94882 0.0
C854 C 0.91663 0.61504 0.95915 0.0
C855 C 0.89904 0.64763 0.9406 0.0
C856 C 0.84917 0.66698 0.93418 0.0
H857 H 0.75706 0.65586 0.83701 0.0
H858 H 0.7902 0.6412 0.86007 0.0
H859 H 0.82872 0.69496 0.92414 0.0
H860 H 0.88692 0.5822 0.96952 0.0
H861 H 0.84948 0.59794 0.95599 0.0
H862 H 0.83139 0.60394 0.91569 0.0
C863 C 0.78107 0.65565 0.86967 0.0
C864 C 0.8288 0.67497 0.92257 0.0
C865 C 0.76217 0.66417 0.85637 0.0
C866 C 0.89066 0.6007 0.96189 0.0
C867 C 0.86919 0.60957 0.95379 0.0
C868 C 0.83078 0.6238 0.91815 0.0
C869 C 0.78861 0.66614 0.8947 0.0
C870 C 0.80935 0.65749 0.9084 0.0
C871 C 0.87315 0.63293 0.94261 0.0
C872 C 0.85058 0.64133 0.93184 0.0
H873 H 0.74899 0.70868 0.90213 0.0
H874 H 0.78173 0.6935 0.92555 0.0
H875 H 0.79553 0.61775 0.89619 0.0
H876 H 0.94022 0.65049 0.94676 0.0
H877 H 0.90287 0.66561 0.93189 0.0
C878 C 0.41669 0.77734 0.20418 0.0
C879 C 0.39769 0.75909 0.19024 0.0
C880 C 0.42796 0.80066 0.19392 0.0
C881 C 0.43888 0.83224 0.13179 0.0
H882 H 0.44631 0.89443 0.17574 0.0
C883 C 0.46385 0.9305 0.08883 0.0
C884 C 0.4809 0.95051 0.10275 0.0
C885 C 0.4541 0.90731 0.09981 0.0
C886 C 0.44473 0.87727 0.16319 0.0
H887 H 0.3761 0.75117 0.15426 0.0
H888 H 0.39561 0.79136 0.13663 0.0
H889 H 0.43001 0.8538 0.19435 0.0
H890 H 0.50088 0.96157 0.13934 0.0
H891 H 0.48431 0.9213 0.15816 0.0
H892 H 0.45365 0.85555 0.10065 0.0
C893 C 0.40199 0.78775 0.1554 0.0
C894 C 0.43536 0.85391 0.17393 0.0
C895 C 0.39064 0.76465 0.16567 0.0
C896 C 0.48771 0.94672 0.12801 0.0
C897 C 0.47804 0.92355 0.13892 0.0
C898 C 0.44834 0.85556 0.12108 0.0
C899 C 0.42071 0.80617 0.16937 0.0
C900 C 0.4321 0.83107 0.15834 0.0
C901 C 0.46117 0.90342 0.12498 0.0
C902 C 0.45125 0.87847 0.13655 0.0
H903 H 0.42259 0.77378 0.22315 0.0
H904 H 0.44248 0.81432 0.20515 0.0
H905 H 0.43704 0.81506 0.11923 0.0
H906 H 0.45806 0.93268 0.06939 0.0
H907 H 0.44081 0.89248 0.08856 0.0
C908 C 0.09463 0.24928 0.68238 0.0
C909 C 0.12189 0.25933 0.68504 0.0
C910 C 0.0855 0.22652 0.66771 0.0
C911 C 0.10556 0.16807 0.64223 0.0
H912 H 0.04355 0.15967 0.59997 0.0
C913 C 0.06566 0.0768 0.57687 0.0
C914 C 0.03806 0.06767 0.57712 0.0
C915 C 0.07688 0.10053 0.58892 0.0
C916 C 0.06076 0.16165 0.61185 0.0
H917 H 0.16098 0.25345 0.67404 0.0
H918 H 0.14499 0.21372 0.64816 0.0
H919 H 0.06156 0.20068 0.62244 0.0
H920 H 1.00065 0.0764 0.59039 0.0
H921 H 0.02022 0.11758 0.61148 0.0
H922 H 0.10462 0.12893 0.63171 0.0
C923 C 0.13069 0.22336 0.65772 0.0
C924 C 0.07109 0.18516 0.62473 0.0
C925 C 0.13984 0.2462 0.67242 0.0
C926 C 0.02197 0.08281 0.58974 0.0
C927 C 0.03318 0.10653 0.6017 0.0
C928 C 0.09524 0.14454 0.62929 0.0
C929 C 0.10339 0.2132 0.65528 0.0
C930 C 0.09343 0.18859 0.64033 0.0
C931 C 0.06076 0.11571 0.6014 0.0
C932 C 0.07253 0.14098 0.61419 0.0
H933 H 0.08023 0.25884 0.69188 0.0
H934 H 0.06436 0.21907 0.66658 0.0
H935 H 0.12259 0.16997 0.65433 0.0
H936 H 0.07865 0.06568 0.56729 0.0
H937 H 0.09818 0.10716 0.58815 0.0
C938 C 0.77488 0.34611 0.41899 0.0
C939 C 0.78281 0.34787 0.39278 0.0
C940 C 0.75388 0.35662 0.42889 0.0
C941 C 0.69394 0.37325 0.40677 0.0
H942 H 0.6936 0.41068 0.47367 0.0
C943 C 0.61069 0.4244 0.43737 0.0
C944 C 0.60153 0.4239 0.46325 0.0
C945 C 0.63321 0.41537 0.42975 0.0
C946 C 0.69326 0.39997 0.45509 0.0
H947 H 0.77579 0.36319 0.35682 0.0
H948 H 0.73941 0.3815 0.37411 0.0
H949 H 0.73291 0.3952 0.45892 0.0
H950 H 0.60877 0.41342 0.50145 0.0
H951 H 0.64799 0.39725 0.48807 0.0
H952 H 0.65436 0.37761 0.4029 0.0
C953 C 0.74909 0.37166 0.38689 0.0
C954 C 0.7158 0.39119 0.44663 0.0
C955 C 0.77007 0.36127 0.37704 0.0
C956 C 0.61547 0.41421 0.4814 0.0
C957 C 0.63797 0.40503 0.47374 0.0
C958 C 0.67143 0.38187 0.41524 0.0
C959 C 0.74037 0.36896 0.41274 0.0
C960 C 0.71645 0.37796 0.42226 0.0
C961 C 0.64709 0.40547 0.4478 0.0
C962 C 0.67086 0.39557 0.43938 0.0
H963 H 0.78431 0.33592 0.43163 0.0
H964 H 0.74754 0.3542 0.44889 0.0
H965 H 0.69362 0.36262 0.38813 0.0
H966 H 0.60072 0.43224 0.42303 0.0
H967 H 0.63996 0.41652 0.40974 0.0
loop_
_geom_bond_atom_site_label_1
_geom_bond_atom_site_label_2
_geom_bond_distance
_geom_bond_site_symmetry_2
_ccdc_geom_bond_type
O0 Cd1 2.300 . S
O0 C7 1.275 . S
Cd1 O0 2.300 . S
Cd1 O9 2.381 . S
Cd1 O10 2.378 . S
O2 Cd3 2.385 . S
O2 C7 1.255 . S
Cd3 O2 2.385 . S
Cd3 O4 2.317 . S
O4 Cd3 2.317 . S
O4 C5 1.232 . S
C5 O4 1.232 . S
C5 O6 1.218 . S
O6 C5 1.218 . S
C7 O0 1.275 . S
C7 O2 1.255 . S
C8 O9 1.258 . S
C8 O10 1.256 . S
O9 Cd1 2.381 . S
O9 C8 1.258 . S
O10 Cd1 2.378 . S
O10 C8 1.256 . S
O11 Cd12 2.300 . S
O11 C18 1.275 . S
Cd12 O11 2.300 . S
Cd12 O20 2.381 . S
Cd12 O21 2.378 . S
O13 Cd14 2.385 . S
O13 C18 1.255 . S
Cd14 O13 2.385 . S
Cd14 O15 2.317 . S
O15 Cd14 2.317 . S
O15 C16 1.232 . S
C16 O15 1.232 . S
C16 O17 1.218 . S
O17 C16 1.218 . S
C18 O11 1.275 . S
C18 O13 1.255 . S
C19 O20 1.258 . S
C19 O21 1.256 . S
O20 Cd12 2.381 . S
O20 C19 1.258 . S
O21 Cd12 2.378 . S
O21 C19 1.256 . S
O22 Cd23 2.300 . S
O22 C29 1.275 . S
Cd23 O22 2.300 . S
Cd23 O31 2.381 . S
Cd23 O32 2.378 . S
O24 Cd25 2.385 . S
O24 C29 1.255 . S
Cd25 O24 2.385 . S
Cd25 O26 2.317 . S
O26 Cd25 2.317 . S
O26 C27 1.232 . S
C27 O26 1.232 . S
C27 O28 1.218 . S
O28 C27 1.218 . S
C29 O22 1.275 . S
C29 O24 1.255 . S
C30 O31 1.258 . S
C30 O32 1.256 . S
O31 Cd23 2.381 . S
O31 C30 1.258 . S
O32 Cd23 2.378 . S
O32 C30 1.256 . S
O33 Cd34 2.300 . S
O33 C40 1.275 . S
Cd34 O33 2.300 . S
Cd34 O42 2.381 . S
Cd34 O43 2.378 . S
O35 Cd36 2.385 . S
O35 C40 1.255 . S
Cd36 O35 2.385 . S
Cd36 O37 2.317 . S
O37 Cd36 2.317 . S
O37 C38 1.232 . S
C38 O37 1.232 . S
C38 O39 1.218 . S
O39 C38 1.218 . S
C40 O33 1.275 . S
C40 O35 1.255 . S
C41 O42 1.258 . S
C41 O43 1.256 . S
O42 Cd34 2.381 . S
O42 C41 1.258 . S
O43 Cd34 2.378 . S
O43 C41 1.256 . S
O44 Cd45 2.300 . S
O44 C51 1.275 . S
Cd45 O44 2.300 . S
Cd45 O53 2.381 . S
Cd45 O54 2.378 . S
O46 Cd47 2.385 . S
O46 C51 1.255 . S
Cd47 O46 2.385 . S
Cd47 O48 2.317 . S
O48 Cd47 2.317 . S
O48 C49 1.232 . S
C49 O48 1.232 . S
C49 O50 1.218 . S
O50 C49 1.218 . S
C51 O44 1.275 . S
C51 O46 1.255 . S
C52 O53 1.258 . S
C52 O54 1.256 . S
O53 Cd45 2.381 . S
O53 C52 1.258 . S
O54 Cd45 2.378 . S
O54 C52 1.256 . S
O55 Cd56 2.300 . S
O55 C62 1.275 . S
Cd56 O55 2.300 . S
Cd56 O64 2.381 . S
Cd56 O65 2.378 . S
O57 Cd58 2.385 . S
O57 C62 1.255 . S
Cd58 O57 2.385 . S
Cd58 O59 2.317 . S
O59 Cd58 2.317 . S
O59 C60 1.232 . S
C60 O59 1.232 . S
C60 O61 1.218 . S
O61 C60 1.218 . S
C62 O55 1.275 . S
C62 O57 1.255 . S
C63 O64 1.258 . S
C63 O65 1.256 . S
O64 Cd56 2.381 . S
O64 C63 1.258 . S
O65 Cd56 2.378 . S
O65 C63 1.256 . S
O66 Cd67 2.300 . S
O66 C73 1.275 . S
Cd67 O66 2.300 . S
Cd67 O75 2.381 . S
Cd67 O76 2.378 . S
O68 Cd69 2.385 . S
O68 C73 1.255 . S
Cd69 O68 2.385 . S
Cd69 O70 2.317 . S
O70 Cd69 2.317 . S
O70 C71 1.232 . S
C71 O70 1.232 . S
C71 O72 1.218 . S
O72 C71 1.218 . S
C73 O66 1.275 . S
C73 O68 1.255 . S
C74 O75 1.258 . S
C74 O76 1.256 . S
O75 Cd67 2.381 . S
O75 C74 1.258 . S
O76 Cd67 2.378 . S
O76 C74 1.256 . S
O77 Cd78 2.300 . S
O77 C84 1.275 . S
Cd78 O77 2.300 . S
Cd78 O86 2.381 . S
Cd78 O87 2.378 . S
O79 Cd80 2.385 . S
O79 C84 1.255 . S
Cd80 O79 2.385 . S
Cd80 O81 2.317 . S
O81 Cd80 2.317 . S
O81 C82 1.232 . S
C82 O81 1.232 . S
C82 O83 1.218 . S
O83 C82 1.218 . S
C84 O77 1.275 . S
C84 O79 1.255 . S
C85 O86 1.258 . S
C85 O87 1.256 . S
O86 Cd78 2.381 . S
O86 C85 1.258 . S
O87 Cd78 2.378 . S
O87 C85 1.256 . S
Tb88 C97 2.764 . S
Tb88 O98 2.325 1_455 S
Tb88 O101 2.303 . S
Tb88 O105 2.322 1_545 S
Tb88 O106 2.349 1_545 S
Tb88 O109 2.415 . S
Tb88 O110 2.399 . S
Tb89 O99 2.322 . S
Tb89 O100 2.349 . S
Tb89 O102 2.415 1_545 S
Tb89 O103 2.399 1_545 S
Tb89 O104 2.325 1_645 S
Tb89 O107 2.303 1_545 S
Tb89 C118 2.764 1_545 S
C90 O106 1.261 1_655 S
C90 O107 1.257 . S
C91 C94 1.358 . S
C91 C95 1.332 . S
C91 C97 1.504 . S
C92 C93 1.373 . S
C92 C96 1.308 . S
C93 C92 1.373 . S
C93 C94 1.429 . S
C93 H120 0.932 . S
C94 C91 1.358 . S
C94 C93 1.429 . S
C94 H121 0.930 . S
C95 C91 1.332 . S
C95 C96 1.394 . S
C95 H122 0.932 . S
C96 C92 1.308 . S
C96 C95 1.394 . S
C96 H123 0.929 . S
C97 Tb88 2.764 . S
C97 C91 1.504 . S
C97 O109 1.239 . S
C97 O110 1.263 . S
O98 Tb88 2.325 1_655 S
O98 C108 1.236 . S
O99 Tb89 2.322 . S
O99 C108 1.257 . S
O100 Tb89 2.349 . S
O100 C111 1.261 1_655 S
O101 Tb88 2.303 . S
O101 C111 1.257 . S
O102 Tb89 2.415 1_565 S
O102 C118 1.239 . S
O103 Tb89 2.399 1_565 S
O103 C118 1.263 . S
O104 Tb89 2.325 1_465 S
O104 C119 1.236 . S
O105 Tb88 2.322 1_565 S
O105 C119 1.257 . S
O106 Tb88 2.349 1_565 S
O106 C90 1.261 1_455 S
O107 Tb89 2.303 1_565 S
O107 C90 1.257 . S
C108 O98 1.236 . S
C108 O99 1.257 . S
O109 Tb88 2.415 . S
O109 C97 1.239 . S
O110 Tb88 2.399 . S
O110 C97 1.263 . S
C111 O100 1.261 1_455 S
C111 O101 1.257 . S
C112 C115 1.358 . S
C112 C116 1.332 . S
C112 C118 1.504 . S
C113 C114 1.373 . S
C113 C117 1.308 . S
C114 C113 1.373 . S
C114 C115 1.429 . S
C114 H124 0.932 . S
C115 C112 1.358 . S
C115 C114 1.429 . S
C115 H125 0.930 . S
C116 C112 1.332 . S
C116 C117 1.394 . S
C116 H126 0.932 . S
C117 C113 1.308 . S
C117 C116 1.394 . S
C117 H127 0.929 . S
C118 Tb89 2.764 1_565 S
C118 O102 1.239 . S
C118 O103 1.263 . S
C118 C112 1.504 . S
C119 O104 1.236 . S
C119 O105 1.257 . S
H120 C93 0.932 . S
H121 C94 0.930 . S
H122 C95 0.932 . S
H123 C96 0.929 . S
H124 C114 0.932 . S
H125 C115 0.930 . S
H126 C116 0.932 . S
H127 C117 0.929 . S
Tb128 C137 2.764 . S
Tb128 O138 2.325 . S
Tb128 O141 2.303 . S
Tb128 O145 2.322 1_545 S
Tb128 O146 2.349 . S
Tb128 O149 2.415 . S
Tb128 O150 2.399 . S
Tb129 O139 2.322 . S
Tb129 O140 2.349 . S
Tb129 O142 2.415 1_544 S
Tb129 O143 2.399 1_545 S
Tb129 O144 2.325 1_545 S
Tb129 O147 2.303 . S
Tb129 C158 2.764 1_544 S
C130 O146 1.259 1_565 S
C130 O147 1.244 1_565 S
C131 C134 1.358 . S
C131 C135 1.332 . S
C131 C137 1.504 . S
C132 C133 1.373 . S
C132 C136 1.308 . S
C133 C132 1.373 . S
C133 C134 1.429 . S
C133 H160 0.932 . S
C134 C131 1.358 . S
C134 C133 1.429 . S
C134 H161 0.930 . S
C135 C131 1.332 . S
C135 C136 1.394 . S
C135 H162 0.932 . S
C136 C132 1.308 . S
C136 C135 1.394 . S
C136 H163 0.929 . S
C137 Tb128 2.764 . S
C137 C131 1.504 . S
C137 O149 1.239 . S
C137 O150 1.263 . S
O138 Tb128 2.325 . S
O138 C148 1.236 . S
O139 Tb129 2.322 . S
O139 C148 1.257 . S
O140 Tb129 2.349 . S
O140 C151 1.261 . S
O141 Tb128 2.303 . S
O141 C151 1.257 . S
O142 Tb129 2.415 1_566 S
O142 C158 1.239 . S
O143 Tb129 2.399 1_565 S
O143 C158 1.263 1_554 S
O144 Tb129 2.325 1_565 S
O144 C159 1.236 . S
O145 Tb128 2.322 1_565 S
O145 C159 1.257 . S
O146 Tb128 2.349 . S
O146 C130 1.259 1_545 S
O147 Tb129 2.303 . S
O147 C130 1.244 1_545 S
C148 O138 1.236 . S
C148 O139 1.257 . S
O149 Tb128 2.415 . S
O149 C137 1.239 . S
O150 Tb128 2.399 . S
O150 C137 1.263 . S
C151 O140 1.261 . S
C151 O141 1.257 . S
C152 C155 1.358 . S
C152 C156 1.332 . S
C152 C158 1.504 . S
C153 C154 1.373 . S
C153 C157 1.308 . S
C154 C153 1.373 . S
C154 C155 1.429 . S
C154 H164 0.932 . S
C155 C152 1.358 . S
C155 C154 1.429 . S
C155 H165 0.930 . S
C156 C152 1.332 . S
C156 C157 1.394 . S
C156 H166 0.932 . S
C157 C153 1.308 . S
C157 C156 1.394 . S
C157 H167 0.929 . S
C158 Tb129 2.764 1_566 S
C158 O142 1.239 . S
C158 O143 1.263 1_556 S
C158 C152 1.504 . S
C159 O144 1.236 . S
C159 O145 1.257 . S
H160 C133 0.932 . S
H161 C134 0.930 . S
H162 C135 0.932 . S
H163 C136 0.929 . S
H164 C154 0.932 . S
H165 C155 0.930 . S
H166 C156 0.932 . S
H167 C157 0.929 . S
Tb168 C177 2.764 . S
Tb168 O178 2.325 . S
Tb168 O181 2.303 . S
Tb168 O185 2.322 . S
Tb168 O186 2.349 . S
Tb168 O189 2.415 . S
Tb168 O190 2.399 . S
Tb169 O179 2.322 . S
Tb169 O180 2.349 . S
Tb169 O182 2.415 . S
Tb169 O183 2.399 . S
Tb169 O184 2.325 . S
Tb169 O187 2.303 . S
Tb169 C198 2.764 . S
C170 O186 1.261 . S
C170 O187 1.257 . S
C171 C174 1.358 . S
C171 C175 1.332 . S
C171 C177 1.504 . S
C172 C173 1.373 . S
C172 C176 1.308 . S
C173 C172 1.373 . S
C173 C174 1.429 . S
C173 H200 0.932 . S
C174 C171 1.358 . S
C174 C173 1.429 . S
C174 H201 0.930 . S
C175 C171 1.332 . S
C175 C176 1.394 . S
C175 H202 0.932 . S
C176 C172 1.308 . S
C176 C175 1.394 . S
C176 H203 0.929 . S
C177 Tb168 2.764 . S
C177 C171 1.504 . S
C177 O189 1.239 . S
C177 O190 1.263 . S
O178 Tb168 2.325 . S
O178 C188 1.236 . S
O179 Tb169 2.322 . S
O179 C188 1.257 . S
O180 Tb169 2.349 . S
O180 C191 1.261 . S
O181 Tb168 2.303 . S
O181 C191 1.257 . S
O182 Tb169 2.415 . S
O182 C198 1.239 . S
O183 Tb169 2.399 . S
O183 C198 1.263 . S
O184 Tb169 2.325 . S
O184 C199 1.236 . S
O185 Tb168 2.322 . S
O185 C199 1.257 . S
O186 Tb168 2.349 . S
O186 C170 1.261 . S
O187 Tb169 2.303 . S
O187 C170 1.257 . S
C188 O178 1.236 . S
C188 O179 1.257 . S
O189 Tb168 2.415 . S
O189 C177 1.239 . S
O190 Tb168 2.399 . S
O190 C177 1.263 . S
C191 O180 1.261 . S
C191 O181 1.257 . S
C192 C195 1.358 . S
C192 C196 1.332 . S
C192 C198 1.504 . S
C193 C194 1.373 . S
C193 C197 1.308 . S
C194 C193 1.373 . S
C194 C195 1.429 . S
C194 H204 0.932 . S
C195 C192 1.358 . S
C195 C194 1.429 . S
C195 H205 0.930 . S
C196 C192 1.332 . S
C196 C197 1.394 . S
C196 H206 0.932 . S
C197 C193 1.308 . S
C197 C196 1.394 . S
C197 H207 0.929 . S
C198 Tb169 2.764 . S
C198 O182 1.239 . S
C198 O183 1.263 . S
C198 C192 1.504 . S
C199 O184 1.236 . S
C199 O185 1.257 . S
H200 C173 0.932 . S
H201 C174 0.930 . S
H202 C175 0.932 . S
H203 C176 0.929 . S
H204 C194 0.932 . S
H205 C195 0.930 . S
H206 C196 0.932 . S
H207 C197 0.929 . S
Tb208 C217 2.764 1_455 S
Tb208 O218 2.325 1_455 S
Tb208 O221 2.303 1_556 S
Tb208 O225 2.322 1_556 S
Tb208 O226 2.349 . S
Tb208 O229 2.415 1_455 S
Tb208 O230 2.399 . S
Tb209 O219 2.322 1_455 S
Tb209 O220 2.352 . S
Tb209 O222 2.415 . S
Tb209 O223 2.399 . S
Tb209 O224 2.325 . S
Tb209 O227 2.303 1_554 S
Tb209 C238 2.764 . S
C210 O226 1.261 . S
C210 O227 1.257 . S
C211 C214 1.358 . S
C211 C215 1.332 . S
C211 C217 1.504 . S
C212 C213 1.373 . S
C212 C216 1.308 . S
C213 C212 1.373 . S
C213 C214 1.429 . S
C213 H240 0.932 . S
C214 C211 1.358 . S
C214 C213 1.429 . S
C214 H241 0.930 . S
C215 C211 1.332 . S
C215 C216 1.394 . S
C215 H242 0.932 . S
C216 C212 1.308 . S
C216 C215 1.394 . S
C216 H243 0.929 . S
C217 Tb208 2.764 1_655 S
C217 C211 1.504 . S
C217 O229 1.239 . S
C217 O230 1.263 1_655 S
O218 Tb208 2.325 1_655 S
O218 C228 1.236 . S
O219 Tb209 2.322 1_655 S
O219 C228 1.257 1_554 S
O220 Tb209 2.352 . S
O220 C231 1.259 1_455 S
O221 Tb208 2.303 1_554 S
O221 C231 1.257 1_455 S
O222 Tb209 2.415 . S
O222 C238 1.239 . S
O223 Tb209 2.399 . S
O223 C238 1.263 . S
O224 Tb209 2.325 . S
O224 C239 1.236 . S
O225 Tb208 2.322 1_554 S
O225 C239 1.257 . S
O226 Tb208 2.349 . S
O226 C210 1.261 . S
O227 Tb209 2.303 1_556 S
O227 C210 1.257 . S
C228 O218 1.236 . S
C228 O219 1.257 1_556 S
O229 Tb208 2.415 1_655 S
O229 C217 1.239 . S
O230 Tb208 2.399 . S
O230 C217 1.263 1_455 S
C231 O220 1.259 1_655 S
C231 O221 1.257 1_655 S
C232 C235 1.358 . S
C232 C236 1.332 . S
C232 C238 1.504 . S
C233 C234 1.373 . S
C233 C237 1.308 . S
C234 C233 1.373 . S
C234 C235 1.429 . S
C234 H244 0.932 . S
C235 C232 1.358 . S
C235 C234 1.429 . S
C235 H245 0.930 . S
C236 C232 1.332 . S
C236 C237 1.394 . S
C236 H246 0.932 . S
C237 C233 1.308 . S
C237 C236 1.394 . S
C237 H247 0.929 . S
C238 Tb209 2.764 . S
C238 O222 1.239 . S
C238 O223 1.263 . S
C238 C232 1.504 . S
C239 O224 1.236 . S
C239 O225 1.257 . S
H240 C213 0.932 . S
H241 C214 0.930 . S
H242 C215 0.932 . S
H243 C216 0.929 . S
H244 C234 0.932 . S
H245 C235 0.930 . S
H246 C236 0.932 . S
H247 C237 0.929 . S
C248 C249 1.349 . S
C248 C250 1.327 . S
C248 H273 0.950 . S
C249 C248 1.349 . S
C249 C265 1.349 . S
C250 C248 1.327 . S
C250 C269 1.429 . S
C250 H274 0.950 . S
C251 C268 1.574 . S
C251 C270 1.368 . S
C251 H275 0.949 . S
H252 C256 0.949 . S
C253 C254 1.349 . S
C253 C255 1.327 . S
C253 H276 0.950 . S
C254 C253 1.349 . S
C254 C266 1.349 . S
C255 C253 1.327 . S
C255 C271 1.429 . S
C255 H277 0.950 . S
C256 H252 0.949 . S
C256 C264 1.574 . S
C256 C272 1.368 . S
H257 C265 0.950 . S
H258 C263 0.950 . S
H259 C264 0.949 . S
H260 C266 0.950 . S
H261 C267 0.950 . S
H262 C268 0.949 . S
C263 H258 0.950 . S
C263 C265 1.327 . S
C263 C269 1.429 . S
C264 C256 1.574 . S
C264 H259 0.949 . S
C264 C270 1.368 . S
C265 C249 1.349 . S
C265 H257 0.950 . S
C265 C263 1.327 . S
C266 C254 1.349 . S
C266 H260 0.950 . S
C266 C267 1.327 . S
C267 H261 0.950 . S
C267 C266 1.327 . S
C267 C271 1.429 . S
C268 C251 1.574 . S
C268 H262 0.949 . S
C268 C272 1.368 . S
C269 C250 1.429 . S
C269 C263 1.429 . S
C269 C270 1.523 . S
C270 C251 1.368 . S
C270 C264 1.368 . S
C270 C269 1.523 . S
C271 C255 1.429 . S
C271 C267 1.429 . S
C271 C272 1.523 . S
C272 C256 1.368 . S
C272 C268 1.368 . S
C272 C271 1.523 . S
H273 C248 0.950 . S
H274 C250 0.950 . S
H275 C251 0.949 . S
H276 C253 0.950 . S
H277 C255 0.950 . S
C278 C279 1.349 . S
C278 C280 1.327 . S
C278 H303 0.950 . S
C279 C278 1.349 . S
C279 C295 1.349 . S
C280 C278 1.327 . S
C280 C299 1.429 . S
C280 H304 0.950 . S
C281 C298 1.574 . S
C281 C300 1.368 . S
C281 H305 0.949 . S
H282 C286 0.949 . S
C283 C284 1.349 . S
C283 C285 1.327 . S
C283 H306 0.950 . S
C284 C283 1.349 . S
C284 C296 1.349 . S
C285 C283 1.327 . S
C285 C301 1.429 . S
C285 H307 0.950 . S
C286 H282 0.949 . S
C286 C294 1.574 . S
C286 C302 1.368 . S
H287 C295 0.950 . S
H288 C293 0.950 . S
H289 C294 0.949 . S
H290 C296 0.950 . S
H291 C297 0.950 . S
H292 C298 0.949 . S
C293 H288 0.950 . S
C293 C295 1.327 . S
C293 C299 1.429 . S
C294 C286 1.574 . S
C294 H289 0.949 . S
C294 C300 1.368 . S
C295 C279 1.349 . S
C295 H287 0.950 . S
C295 C293 1.327 . S
C296 C284 1.349 . S
C296 H290 0.950 . S
C296 C297 1.327 . S
C297 H291 0.950 . S
C297 C296 1.327 . S
C297 C301 1.429 . S
C298 C281 1.574 . S
C298 H292 0.949 . S
C298 C302 1.368 . S
C299 C280 1.429 . S
C299 C293 1.429 . S
C299 C300 1.523 . S
C300 C281 1.368 . S
C300 C294 1.368 . S
C300 C299 1.523 . S
C301 C285 1.429 . S
C301 C297 1.429 . S
C301 C302 1.523 . S
C302 C286 1.368 . S
C302 C298 1.368 . S
C302 C301 1.523 . S
H303 C278 0.950 . S
H304 C280 0.950 . S
H305 C281 0.949 . S
H306 C283 0.950 . S
H307 C285 0.950 . S
C308 C309 1.349 . S
C308 C310 1.327 . S
C308 H333 0.950 . S
C309 C308 1.349 . S
C309 C325 1.349 . S
C310 C308 1.327 . S
C310 C329 1.429 . S
C310 H334 0.950 . S
C311 C328 1.574 . S
C311 C330 1.368 . S
C311 H335 0.949 . S
H312 C316 0.949 . S
C313 C314 1.349 . S
C313 C315 1.327 . S
C313 H336 0.950 . S
C314 C313 1.349 . S
C314 C326 1.349 . S
C315 C313 1.327 . S
C315 C331 1.429 . S
C315 H337 0.950 . S
C316 H312 0.949 . S
C316 C324 1.574 . S
C316 C332 1.368 . S
H317 C325 0.950 . S
H318 C323 0.950 . S
H319 C324 0.949 . S
H320 C326 0.950 . S
H321 C327 0.950 . S
H322 C328 0.949 . S
C323 H318 0.950 . S
C323 C325 1.327 . S
C323 C329 1.429 . S
C324 C316 1.574 . S
C324 H319 0.949 . S
C324 C330 1.368 . S
C325 C309 1.349 . S
C325 H317 0.950 . S
C325 C323 1.327 . S
C326 C314 1.349 . S
C326 H320 0.950 . S
C326 C327 1.327 . S
C327 H321 0.950 . S
C327 C326 1.327 . S
C327 C331 1.429 . S
C328 C311 1.574 . S
C328 H322 0.949 . S
C328 C332 1.368 . S
C329 C310 1.429 . S
C329 C323 1.429 . S
C329 C330 1.523 . S
C330 C311 1.368 . S
C330 C324 1.368 . S
C330 C329 1.523 . S
C331 C315 1.429 . S
C331 C327 1.429 . S
C331 C332 1.523 . S
C332 C316 1.368 . S
C332 C328 1.368 . S
C332 C331 1.523 . S
H333 C308 0.950 . S
H334 C310 0.950 . S
H335 C311 0.949 . S
H336 C313 0.950 . S
H337 C315 0.950 . S
C338 C339 1.349 . S
C338 C340 1.327 . S
C338 H363 0.950 . S
C339 C338 1.349 . S
C339 C355 1.349 . S
C340 C338 1.327 . S
C340 C359 1.429 . S
C340 H364 0.950 . S
C341 C358 1.574 . S
C341 C360 1.368 . S
C341 H365 0.949 . S
H342 C346 0.949 . S
C343 C344 1.349 . S
C343 C345 1.327 . S
C343 H366 0.950 . S
C344 C343 1.349 . S
C344 C356 1.349 . S
C345 C343 1.327 . S
C345 C361 1.429 . S
C345 H367 0.950 . S
C346 H342 0.949 . S
C346 C354 1.574 . S
C346 C362 1.368 . S
H347 C355 0.950 . S
H348 C353 0.950 . S
H349 C354 0.949 . S
H350 C356 0.950 1_455 S
H351 C357 0.950 . S
H352 C358 0.949 . S
C353 H348 0.950 . S
C353 C355 1.327 . S
C353 C359 1.429 . S
C354 C346 1.574 . S
C354 H349 0.949 . S
C354 C360 1.368 . S
C355 C339 1.349 . S
C355 H347 0.950 . S
C355 C353 1.327 . S
C356 C344 1.349 . S
C356 H350 0.950 1_655 S
C356 C357 1.327 . S
C357 H351 0.950 . S
C357 C356 1.327 . S
C357 C361 1.429 . S
C358 C341 1.574 . S
C358 H352 0.949 . S
C358 C362 1.368 . S
C359 C340 1.429 . S
C359 C353 1.429 . S
C359 C360 1.523 . S
C360 C341 1.368 . S
C360 C354 1.368 . S
C360 C359 1.523 . S
C361 C345 1.429 . S
C361 C357 1.429 . S
C361 C362 1.523 . S
C362 C346 1.368 . S
C362 C358 1.368 . S
C362 C361 1.523 . S
H363 C338 0.950 . S
H364 C340 0.950 . S
H365 C341 0.949 . S
H366 C343 0.950 . S
H367 C345 0.950 . S
C368 C369 1.349 . S
C368 C370 1.327 . S
C368 H393 0.950 . S
C369 C368 1.349 . S
C369 C385 1.349 . S
C370 C368 1.327 . S
C370 C389 1.429 . S
C370 H394 0.950 . S
C371 C388 1.574 . S
C371 C390 1.368 . S
C371 H395 0.949 . S
H372 C376 0.949 . S
C373 C374 1.349 . S
C373 C375 1.327 . S
C373 H396 0.950 . S
C374 C373 1.349 . S
C374 C386 1.349 . S
C375 C373 1.327 . S
C375 C391 1.429 . S
C375 H397 0.950 . S
C376 H372 0.949 . S
C376 C384 1.574 . S
C376 C392 1.368 . S
H377 C385 0.950 . S
H378 C383 0.950 . S
H379 C384 0.949 . S
H380 C386 0.950 . S
H381 C387 0.950 . S
H382 C388 0.949 . S
C383 H378 0.950 . S
C383 C385 1.327 . S
C383 C389 1.429 . S
C384 C376 1.574 . S
C384 H379 0.949 . S
C384 C390 1.368 . S
C385 C369 1.349 . S
C385 H377 0.950 . S
C385 C383 1.327 . S
C386 C374 1.349 . S
C386 H380 0.950 . S
C386 C387 1.327 . S
C387 H381 0.950 . S
C387 C386 1.327 . S
C387 C391 1.429 . S
C388 C371 1.574 . S
C388 H382 0.949 . S
C388 C392 1.368 . S
C389 C370 1.429 . S
C389 C383 1.429 . S
C389 C390 1.523 . S
C390 C371 1.368 . S
C390 C384 1.368 . S
C390 C389 1.523 . S
C391 C375 1.429 . S
C391 C387 1.429 . S
C391 C392 1.523 . S
C392 C376 1.368 . S
C392 C388 1.368 . S
C392 C391 1.523 . S
H393 C368 0.950 . S
H394 C370 0.950 . S
H395 C371 0.949 . S
H396 C373 0.950 . S
H397 C375 0.950 . S
C398 C399 1.349 . S
C398 C400 1.327 . S
C398 H423 0.950 . S
C399 C398 1.349 . S
C399 C415 1.349 . S
C400 C398 1.327 . S
C400 C419 1.429 . S
C400 H424 0.950 . S
C401 C418 1.574 . S
C401 C420 1.368 . S
C401 H425 0.949 . S
H402 C406 0.949 . S
C403 C404 1.349 . S
C403 C405 1.327 . S
C403 H426 0.950 . S
C404 C403 1.349 . S
C404 C416 1.349 . S
C405 C403 1.327 . S
C405 C421 1.429 . S
C405 H427 0.950 . S
C406 H402 0.949 . S
C406 C414 1.574 . S
C406 C422 1.368 . S
H407 C415 0.950 . S
H408 C413 0.950 . S
H409 C414 0.949 . S
H410 C416 0.950 . S
H411 C417 0.950 . S
H412 C418 0.949 . S
C413 H408 0.950 . S
C413 C415 1.327 . S
C413 C419 1.429 . S
C414 C406 1.574 . S
C414 H409 0.949 . S
C414 C420 1.368 . S
C415 C399 1.349 . S
C415 H407 0.950 . S
C415 C413 1.327 . S
C416 C404 1.349 . S
C416 H410 0.950 . S
C416 C417 1.327 . S
C417 H411 0.950 . S
C417 C416 1.327 . S
C417 C421 1.429 . S
C418 C401 1.574 . S
C418 H412 0.949 . S
C418 C422 1.368 . S
C419 C400 1.429 . S
C419 C413 1.429 . S
C419 C420 1.523 . S
C420 C401 1.368 . S
C420 C414 1.368 . S
C420 C419 1.523 . S
C421 C405 1.429 . S
C421 C417 1.429 . S
C421 C422 1.523 . S
C422 C406 1.368 . S
C422 C418 1.368 . S
C422 C421 1.523 . S
H423 C398 0.950 . S
H424 C400 0.950 . S
H425 C401 0.949 . S
H426 C403 0.950 . S
H427 C405 0.950 . S
C428 C429 1.349 . S
C428 C430 1.327 . S
C428 H453 0.950 . S
C429 C428 1.349 . S
C429 C445 1.349 . S
C430 C428 1.327 . S
C430 C449 1.429 . S
C430 H454 0.950 . S
C431 C448 1.574 . S
C431 C450 1.368 . S
C431 H455 0.949 . S
H432 C436 0.949 . S
C433 C434 1.349 . S
C433 C435 1.327 . S
C433 H456 0.950 . S
C434 C433 1.349 . S
C434 C446 1.349 . S
C435 C433 1.327 . S
C435 C451 1.429 . S
C435 H457 0.950 . S
C436 H432 0.949 . S
C436 C444 1.574 . S
C436 C452 1.368 . S
H437 C445 0.950 . S
H438 C443 0.950 . S
H439 C444 0.949 . S
H440 C446 0.950 . S
H441 C447 0.950 . S
H442 C448 0.949 . S
C443 H438 0.950 . S
C443 C445 1.327 . S
C443 C449 1.429 . S
C444 C436 1.574 . S
C444 H439 0.949 . S
C444 C450 1.368 . S
C445 C429 1.349 . S
C445 H437 0.950 . S
C445 C443 1.327 . S
C446 C434 1.349 . S
C446 H440 0.950 . S
C446 C447 1.327 . S
C447 H441 0.950 . S
C447 C446 1.327 . S
C447 C451 1.429 . S
C448 C431 1.574 . S
C448 H442 0.949 . S
C448 C452 1.368 . S
C449 C430 1.429 . S
C449 C443 1.429 . S
C449 C450 1.523 . S
C450 C431 1.368 . S
C450 C444 1.368 . S
C450 C449 1.523 . S
C451 C435 1.429 . S
C451 C447 1.429 . S
C451 C452 1.523 . S
C452 C436 1.368 . S
C452 C448 1.368 . S
C452 C451 1.523 . S
H453 C428 0.950 . S
H454 C430 0.950 . S
H455 C431 0.949 . S
H456 C433 0.950 . S
H457 C435 0.950 . S
C458 C459 1.349 . S
C458 C460 1.327 . S
C458 H483 0.950 . S
C459 C458 1.349 . S
C459 C475 1.349 . S
C460 C458 1.327 . S
C460 C479 1.429 . S
C460 H484 0.950 . S
C461 C478 1.574 . S
C461 C480 1.368 . S
C461 H485 0.949 . S
H462 C466 0.949 . S
C463 C464 1.349 . S
C463 C465 1.327 . S
C463 H486 0.950 . S
C464 C463 1.349 . S
C464 C476 1.349 . S
C465 C463 1.327 . S
C465 C481 1.429 . S
C465 H487 0.950 . S
C466 H462 0.949 . S
C466 C474 1.574 . S
C466 C482 1.368 . S
H467 C475 0.950 . S
H468 C473 0.950 . S
H469 C474 0.949 . S
H470 C476 0.950 . S
H471 C477 0.950 . S
H472 C478 0.949 . S
C473 H468 0.950 . S
C473 C475 1.327 . S
C473 C479 1.429 . S
C474 C466 1.574 . S
C474 H469 0.949 . S
C474 C480 1.368 . S
C475 C459 1.349 . S
C475 H467 0.950 . S
C475 C473 1.327 . S
C476 C464 1.349 . S
C476 H470 0.950 . S
C476 C477 1.327 . S
C477 H471 0.950 . S
C477 C476 1.327 . S
C477 C481 1.429 . S
C478 C461 1.574 . S
C478 H472 0.949 . S
C478 C482 1.368 . S
C479 C460 1.429 . S
C479 C473 1.429 . S
C479 C480 1.523 . S
C480 C461 1.368 . S
C480 C474 1.368 . S
C480 C479 1.523 . S
C481 C465 1.429 . S
C481 C477 1.429 . S
C481 C482 1.523 . S
C482 C466 1.368 . S
C482 C478 1.368 . S
C482 C481 1.523 . S
H483 C458 0.950 . S
H484 C460 0.950 . S
H485 C461 0.949 . S
H486 C463 0.950 . S
H487 C465 0.950 . S
C488 C489 1.349 . S
C488 C490 1.327 . S
C488 H513 0.950 . S
C489 C488 1.349 . S
C489 C505 1.349 . S
C490 C488 1.327 . S
C490 C509 1.429 . S
C490 H514 0.950 . S
C491 C508 1.574 . S
C491 C510 1.368 . S
C491 H515 0.949 . S
H492 C496 0.949 . S
C493 C494 1.349 . S
C493 C495 1.327 . S
C493 H516 0.950 . S
C494 C493 1.349 . S
C494 C506 1.349 . S
C495 C493 1.327 . S
C495 C511 1.429 . S
C495 H517 0.950 . S
C496 H492 0.949 . S
C496 C504 1.574 . S
C496 C512 1.368 . S
H497 C505 0.950 . S
H498 C503 0.950 . S
H499 C504 0.949 . S
H500 C506 0.950 . S
H501 C507 0.950 . S
H502 C508 0.949 . S
C503 H498 0.950 . S
C503 C505 1.327 . S
C503 C509 1.429 . S
C504 C496 1.574 . S
C504 H499 0.949 . S
C504 C510 1.368 . S
C505 C489 1.349 . S
C505 H497 0.950 . S
C505 C503 1.327 . S
C506 C494 1.349 . S
C506 H500 0.950 . S
C506 C507 1.327 . S
C507 H501 0.950 . S
C507 C506 1.327 . S
C507 C511 1.429 . S
C508 C491 1.574 . S
C508 H502 0.949 . S
C508 C512 1.368 . S
C509 C490 1.429 . S
C509 C503 1.429 . S
C509 C510 1.523 . S
C510 C491 1.368 . S
C510 C504 1.368 . S
C510 C509 1.523 . S
C511 C495 1.429 . S
C511 C507 1.429 . S
C511 C512 1.523 . S
C512 C496 1.368 . S
C512 C508 1.368 . S
C512 C511 1.523 . S
H513 C488 0.950 . S
H514 C490 0.950 . S
H515 C491 0.949 . S
H516 C493 0.950 . S
H517 C495 0.950 . S
C518 C519 1.349 . S
C518 C520 1.327 . S
C518 H543 0.950 . S
C519 C518 1.349 . S
C519 C535 1.349 . S
C520 C518 1.327 . S
C520 C539 1.429 . S
C520 H544 0.950 . S
C521 C538 1.574 1_556 S
C521 C540 1.368 . S
C521 H545 0.960 . S
H522 C526 0.949 . S
C523 C524 1.349 . S
C523 C525 1.327 . S
C523 H546 0.950 . S
C524 C523 1.349 . S
C524 C536 1.349 1_554 S
C525 C523 1.327 . S
C525 C541 1.429 1_554 S
C525 H547 0.950 . S
C526 H522 0.949 . S
C526 C534 1.574 . S
C526 C542 1.368 . S
H527 C535 0.950 . S
H528 C533 0.950 . S
H529 C534 0.949 . S
H530 C536 0.950 . S
H531 C537 0.950 . S
H532 C538 0.949 . S
C533 H528 0.950 . S
C533 C535 1.327 . S
C533 C539 1.429 . S
C534 C526 1.574 . S
C534 H529 0.949 . S
C534 C540 1.368 . S
C535 C519 1.349 . S
C535 H527 0.950 . S
C535 C533 1.327 . S
C536 C524 1.349 1_556 S
C536 H530 0.950 . S
C536 C537 1.327 . S
C537 H531 0.950 . S
C537 C536 1.327 . S
C537 C541 1.429 . S
C538 C521 1.574 1_554 S
C538 H532 0.949 . S
C538 C542 1.368 1_554 S
C539 C520 1.429 . S
C539 C533 1.429 . S
C539 C540 1.523 . S
C540 C521 1.368 . S
C540 C534 1.368 . S
C540 C539 1.523 . S
C541 C525 1.429 1_556 S
C541 C537 1.429 . S
C541 C542 1.523 . S
C542 C526 1.368 . S
C542 C538 1.368 1_556 S
C542 C541 1.523 . S
H543 C518 0.950 . S
H544 C520 0.950 . S
H545 C521 0.960 . S
H546 C523 0.950 . S
H547 C525 0.950 . S
C548 C549 1.349 . S
C548 C550 1.327 . S
C548 H573 0.950 . S
C549 C548 1.349 . S
C549 C565 1.349 . S
C550 C548 1.327 . S
C550 C569 1.429 . S
C550 H574 0.950 . S
C551 C568 1.574 . S
C551 C570 1.368 . S
C551 H575 0.949 . S
H552 C556 0.949 . S
C553 C554 1.349 . S
C553 C555 1.327 . S
C553 H576 0.950 . S
C554 C553 1.349 . S
C554 C566 1.349 . S
C555 C553 1.327 . S
C555 C571 1.429 . S
C555 H577 0.950 . S
C556 H552 0.949 . S
C556 C564 1.574 . S
C556 C572 1.368 . S
H557 C565 0.950 . S
H558 C563 0.950 . S
H559 C564 0.949 . S
H560 C566 0.950 . S
H561 C567 0.950 . S
H562 C568 0.949 . S
C563 H558 0.950 . S
C563 C565 1.327 . S
C563 C569 1.429 . S
C564 C556 1.574 . S
C564 H559 0.949 . S
C564 C570 1.368 . S
C565 C549 1.349 . S
C565 H557 0.950 . S
C565 C563 1.327 . S
C566 C554 1.349 . S
C566 H560 0.950 . S
C566 C567 1.327 . S
C567 H561 0.950 . S
C567 C566 1.327 . S
C567 C571 1.429 . S
C568 C551 1.574 . S
C568 H562 0.949 . S
C568 C572 1.368 . S
C569 C550 1.429 . S
C569 C563 1.429 . S
C569 C570 1.523 . S
C570 C551 1.368 . S
C570 C564 1.368 . S
C570 C569 1.523 . S
C571 C555 1.429 . S
C571 C567 1.429 . S
C571 C572 1.523 . S
C572 C556 1.368 . S
C572 C568 1.368 . S
C572 C571 1.523 . S
H573 C548 0.950 . S
H574 C550 0.950 . S
H575 C551 0.949 . S
H576 C553 0.950 . S
H577 C555 0.950 . S
C578 C579 1.349 . S
C578 C580 1.327 . S
C578 H603 0.950 . S
C579 C578 1.349 . S
C579 C595 1.349 . S
C580 C578 1.327 . S
C580 C599 1.429 . S
C580 H604 0.950 . S
C581 C598 1.574 . S
C581 C600 1.368 . S
C581 H605 0.949 . S
H582 C586 0.949 . S
C583 C584 1.349 . S
C583 C585 1.327 . S
C583 H606 0.950 . S
C584 C583 1.349 . S
C584 C596 1.349 . S
C585 C583 1.327 . S
C585 C601 1.429 . S
C585 H607 0.950 . S
C586 H582 0.949 . S
C586 C594 1.574 . S
C586 C602 1.368 . S
H587 C595 0.950 . S
H588 C593 0.950 . S
H589 C594 0.949 . S
H590 C596 0.950 . S
H591 C597 0.950 . S
H592 C598 0.949 . S
C593 H588 0.950 . S
C593 C595 1.327 . S
C593 C599 1.429 . S
C594 C586 1.574 . S
C594 H589 0.949 . S
C594 C600 1.368 . S
C595 C579 1.349 . S
C595 H587 0.950 . S
C595 C593 1.327 . S
C596 C584 1.349 . S
C596 H590 0.950 . S
C596 C597 1.327 . S
C597 H591 0.950 . S
C597 C596 1.327 . S
C597 C601 1.429 . S
C598 C581 1.574 . S
C598 H592 0.949 . S
C598 C602 1.368 . S
C599 C580 1.429 . S
C599 C593 1.429 . S
C599 C600 1.523 . S
C600 C581 1.368 . S
C600 C594 1.368 . S
C600 C599 1.523 . S
C601 C585 1.429 . S
C601 C597 1.429 . S
C601 C602 1.523 . S
C602 C586 1.368 . S
C602 C598 1.368 . S
C602 C601 1.523 . S
H603 C578 0.950 . S
H604 C580 0.950 . S
H605 C581 0.949 . S
H606 C583 0.950 . S
H607 C585 0.950 . S
C608 C609 1.349 . S
C608 C610 1.327 . S
C608 H633 0.950 . S
C609 C608 1.349 . S
C609 C625 1.349 . S
C610 C608 1.327 . S
C610 C629 1.429 . S
C610 H634 0.950 . S
C611 C628 1.574 . S
C611 C630 1.368 . S
C611 H635 0.949 . S
H612 C616 0.949 . S
C613 C614 1.349 . S
C613 C615 1.327 . S
C613 H636 0.950 . S
C614 C613 1.349 . S
C614 C626 1.349 . S
C615 C613 1.327 . S
C615 C631 1.429 . S
C615 H637 0.950 . S
C616 H612 0.949 . S
C616 C624 1.574 . S
C616 C632 1.368 . S
H617 C625 0.950 . S
H618 C623 0.950 . S
H619 C624 0.949 . S
H620 C626 0.950 . S
H621 C627 0.950 . S
H622 C628 0.949 . S
C623 H618 0.950 . S
C623 C625 1.327 . S
C623 C629 1.429 . S
C624 C616 1.574 . S
C624 H619 0.949 . S
C624 C630 1.368 . S
C625 C609 1.349 . S
C625 H617 0.950 . S
C625 C623 1.327 . S
C626 C614 1.349 . S
C626 H620 0.950 . S
C626 C627 1.327 . S
C627 H621 0.950 . S
C627 C626 1.327 . S
C627 C631 1.429 . S
C628 C611 1.574 . S
C628 H622 0.949 . S
C628 C632 1.368 . S
C629 C610 1.429 . S
C629 C623 1.429 . S
C629 C630 1.523 . S
C630 C611 1.368 . S
C630 C624 1.368 . S
C630 C629 1.523 . S
C631 C615 1.429 . S
C631 C627 1.429 . S
C631 C632 1.523 . S
C632 C616 1.368 . S
C632 C628 1.368 . S
C632 C631 1.523 . S
H633 C608 0.950 . S
H634 C610 0.950 . S
H635 C611 0.949 . S
H636 C613 0.950 . S
H637 C615 0.950 . S
C638 C639 1.349 . S
C638 C640 1.327 . S
C638 H663 0.950 . S
C639 C638 1.349 . S
C639 C655 1.349 . S
C640 C638 1.327 . S
C640 C659 1.429 . S
C640 H664 0.950 . S
C641 C658 1.574 . S
C641 C660 1.368 . S
C641 H665 0.949 . S
H642 C646 0.949 . S
C643 C644 1.349 . S
C643 C645 1.327 . S
C643 H666 0.950 . S
C644 C643 1.349 . S
C644 C656 1.349 . S
C645 C643 1.327 . S
C645 C661 1.429 . S
C645 H667 0.950 . S
C646 H642 0.949 . S
C646 C654 1.574 . S
C646 C662 1.368 . S
H647 C655 0.950 . S
H648 C653 0.950 . S
H649 C654 0.949 . S
H650 C656 0.950 . S
H651 C657 0.950 . S
H652 C658 0.949 . S
C653 H648 0.950 . S
C653 C655 1.327 . S
C653 C659 1.429 . S
C654 C646 1.574 . S
C654 H649 0.949 . S
C654 C660 1.368 . S
C655 C639 1.349 . S
C655 H647 0.950 . S
C655 C653 1.327 . S
C656 C644 1.349 . S
C656 H650 0.950 . S
C656 C657 1.327 . S
C657 H651 0.950 . S
C657 C656 1.327 . S
C657 C661 1.429 . S
C658 C641 1.574 . S
C658 H652 0.949 . S
C658 C662 1.368 . S
C659 C640 1.429 . S
C659 C653 1.429 . S
C659 C660 1.523 . S
C660 C641 1.368 . S
C660 C654 1.368 . S
C660 C659 1.523 . S
C661 C645 1.429 . S
C661 C657 1.429 . S
C661 C662 1.523 . S
C662 C646 1.368 . S
C662 C658 1.368 . S
C662 C661 1.523 . S
H663 C638 0.950 . S
H664 C640 0.950 . S
H665 C641 0.949 . S
H666 C643 0.950 . S
H667 C645 0.950 . S
C668 C669 1.349 . S
C668 C670 1.327 . S
C668 H693 0.950 . S
C669 C668 1.349 . S
C669 C685 1.349 . S
C670 C668 1.327 . S
C670 C689 1.429 . S
C670 H694 0.950 . S
C671 C688 1.574 . S
C671 C690 1.368 . S
C671 H695 0.949 . S
H672 C676 0.949 . S
C673 C674 1.349 . S
C673 C675 1.327 . S
C673 H696 0.950 . S
C674 C673 1.349 . S
C674 C686 1.349 . S
C675 C673 1.327 . S
C675 C691 1.429 . S
C675 H697 0.950 . S
C676 H672 0.949 . S
C676 C684 1.574 . S
C676 C692 1.368 . S
H677 C685 0.950 . S
H678 C683 0.950 . S
H679 C684 0.949 . S
H680 C686 0.950 . S
H681 C687 0.950 . S
H682 C688 0.949 . S
C683 H678 0.950 . S
C683 C685 1.327 . S
C683 C689 1.429 . S
C684 C676 1.574 . S
C684 H679 0.949 . S
C684 C690 1.368 . S
C685 C669 1.349 . S
C685 H677 0.950 . S
C685 C683 1.327 . S
C686 C674 1.349 . S
C686 H680 0.950 . S
C686 C687 1.327 . S
C687 H681 0.950 . S
C687 C686 1.327 . S
C687 C691 1.429 . S
C688 C671 1.574 . S
C688 H682 0.949 . S
C688 C692 1.368 . S
C689 C670 1.429 . S
C689 C683 1.429 . S
C689 C690 1.523 . S
C690 C671 1.368 . S
C690 C684 1.368 . S
C690 C689 1.523 . S
C691 C675 1.429 . S
C691 C687 1.429 . S
C691 C692 1.523 . S
C692 C676 1.368 . S
C692 C688 1.368 . S
C692 C691 1.523 . S
H693 C668 0.950 . S
H694 C670 0.950 . S
H695 C671 0.949 . S
H696 C673 0.950 . S
H697 C675 0.950 . S
C698 C699 1.349 . S
C698 C700 1.327 . S
C698 H723 0.950 . S
C699 C698 1.349 . S
C699 C715 1.349 . S
C700 C698 1.327 . S
C700 C719 1.429 . S
C700 H724 0.950 . S
C701 C718 1.574 . S
C701 C720 1.368 . S
C701 H725 0.949 . S
H702 C706 0.949 . S
C703 C704 1.349 . S
C703 C705 1.327 . S
C703 H726 0.950 . S
C704 C703 1.349 . S
C704 C716 1.349 . S
C705 C703 1.327 . S
C705 C721 1.429 . S
C705 H727 0.950 . S
C706 H702 0.949 . S
C706 C714 1.574 . S
C706 C722 1.368 . S
H707 C715 0.950 . S
H708 C713 0.950 . S
H709 C714 0.949 . S
H710 C716 0.950 . S
H711 C717 0.950 . S
H712 C718 0.949 . S
C713 H708 0.950 . S
C713 C715 1.327 . S
C713 C719 1.429 . S
C714 C706 1.574 . S
C714 H709 0.949 . S
C714 C720 1.368 . S
C715 C699 1.349 . S
C715 H707 0.950 . S
C715 C713 1.327 . S
C716 C704 1.349 . S
C716 H710 0.950 . S
C716 C717 1.327 . S
C717 H711 0.950 . S
C717 C716 1.327 . S
C717 C721 1.429 . S
C718 C701 1.574 . S
C718 H712 0.949 . S
C718 C722 1.368 . S
C719 C700 1.429 . S
C719 C713 1.429 . S
C719 C720 1.523 . S
C720 C701 1.368 . S
C720 C714 1.368 . S
C720 C719 1.523 . S
C721 C705 1.429 . S
C721 C717 1.429 . S
C721 C722 1.523 . S
C722 C706 1.368 . S
C722 C718 1.368 . S
C722 C721 1.523 . S
H723 C698 0.950 . S
H724 C700 0.950 . S
H725 C701 0.949 . S
H726 C703 0.950 . S
H727 C705 0.950 . S
C728 C729 1.349 . S
C728 C730 1.327 . S
C728 H753 0.950 . S
C729 C728 1.349 . S
C729 C745 1.349 . S
C730 C728 1.327 . S
C730 C749 1.429 . S
C730 H754 0.950 . S
C731 C748 1.574 . S
C731 C750 1.368 . S
C731 H755 0.949 . S
H732 C736 0.949 1_554 S
C733 C734 1.349 1_556 S
C733 C735 1.327 . S
C733 H756 0.950 . S
C734 C733 1.349 1_554 S
C734 C746 1.349 . S
C735 C733 1.327 . S
C735 C751 1.429 . S
C735 H757 0.950 . S
C736 H732 0.949 1_556 S
C736 C744 1.574 . S
C736 C752 1.368 . S
H737 C745 0.950 . S
H738 C743 0.950 . S
H739 C744 0.949 . S
H740 C746 0.950 . S
H741 C747 0.950 . S
H742 C748 0.949 . S
C743 H738 0.950 . S
C743 C745 1.327 . S
C743 C749 1.429 . S
C744 C736 1.574 . S
C744 H739 0.949 . S
C744 C750 1.368 . S
C745 C729 1.349 . S
C745 H737 0.950 . S
C745 C743 1.327 . S
C746 C734 1.349 . S
C746 H740 0.950 . S
C746 C747 1.327 . S
C747 H741 0.950 . S
C747 C746 1.327 . S
C747 C751 1.429 1_554 S
C748 C731 1.574 . S
C748 H742 0.949 . S
C748 C752 1.368 . S
C749 C730 1.429 . S
C749 C743 1.429 . S
C749 C750 1.523 . S
C750 C731 1.368 . S
C750 C744 1.368 . S
C750 C749 1.523 . S
C751 C735 1.429 . S
C751 C747 1.429 1_556 S
C751 C752 1.523 . S
C752 C736 1.368 . S
C752 C748 1.368 . S
C752 C751 1.523 . S
H753 C728 0.950 . S
H754 C730 0.950 . S
H755 C731 0.949 . S
H756 C733 0.950 . S
H757 C735 0.950 . S
C758 C759 1.349 . S
C758 C760 1.327 . S
C758 H783 0.950 . S
C759 C758 1.349 . S
C759 C775 1.349 . S
C760 C758 1.327 . S
C760 C779 1.429 . S
C760 H784 0.950 . S
C761 C778 1.574 . S
C761 C780 1.368 . S
C761 H785 0.949 . S
H762 C766 0.949 . S
C763 C764 1.349 . S
C763 C765 1.327 . S
C763 H786 0.950 . S
C764 C763 1.349 . S
C764 C776 1.349 . S
C765 C763 1.327 . S
C765 C781 1.429 . S
C765 H787 0.950 . S
C766 H762 0.949 . S
C766 C774 1.574 . S
C766 C782 1.368 . S
H767 C775 0.950 . S
H768 C773 0.950 . S
H769 C774 0.949 . S
H770 C776 0.950 . S
H771 C777 0.950 . S
H772 C778 0.949 . S
C773 H768 0.950 . S
C773 C775 1.327 . S
C773 C779 1.429 . S
C774 C766 1.574 . S
C774 H769 0.949 . S
C774 C780 1.368 . S
C775 C759 1.349 . S
C775 H767 0.950 . S
C775 C773 1.327 . S
C776 C764 1.349 . S
C776 H770 0.950 . S
C776 C777 1.327 . S
C777 H771 0.950 . S
C777 C776 1.327 . S
C777 C781 1.429 . S
C778 C761 1.574 . S
C778 H772 0.949 . S
C778 C782 1.368 . S
C779 C760 1.429 . S
C779 C773 1.429 . S
C779 C780 1.523 . S
C780 C761 1.368 . S
C780 C774 1.368 . S
C780 C779 1.523 . S
C781 C765 1.429 . S
C781 C777 1.429 . S
C781 C782 1.523 . S
C782 C766 1.368 . S
C782 C778 1.368 . S
C782 C781 1.523 . S
H783 C758 0.950 . S
H784 C760 0.950 . S
H785 C761 0.949 . S
H786 C763 0.950 . S
H787 C765 0.950 . S
C788 C789 1.349 . S
C788 C790 1.327 . S
C788 H813 0.950 . S
C789 C788 1.349 . S
C789 C805 1.349 . S
C790 C788 1.327 . S
C790 C809 1.429 . S
C790 H814 0.950 . S
C791 C808 1.574 . S
C791 C810 1.368 . S
C791 H815 0.949 . S
H792 C796 0.949 . S
C793 C794 1.349 . S
C793 C795 1.327 . S
C793 H816 0.950 . S
C794 C793 1.349 . S
C794 C806 1.349 . S
C795 C793 1.327 . S
C795 C811 1.429 . S
C795 H817 0.950 . S
C796 H792 0.949 . S
C796 C804 1.574 . S
C796 C812 1.368 . S
H797 C805 0.950 . S
H798 C803 0.950 . S
H799 C804 0.949 . S
H800 C806 0.950 . S
H801 C807 0.950 . S
H802 C808 0.949 . S
C803 H798 0.950 . S
C803 C805 1.327 . S
C803 C809 1.429 . S
C804 C796 1.574 . S
C804 H799 0.949 . S
C804 C810 1.368 . S
C805 C789 1.349 . S
C805 H797 0.950 . S
C805 C803 1.327 . S
C806 C794 1.349 . S
C806 H800 0.950 . S
C806 C807 1.327 . S
C807 H801 0.950 . S
C807 C806 1.327 . S
C807 C811 1.429 . S
C808 C791 1.574 . S
C808 H802 0.949 . S
C808 C812 1.368 . S
C809 C790 1.429 . S
C809 C803 1.429 . S
C809 C810 1.523 . S
C810 C791 1.368 . S
C810 C804 1.368 . S
C810 C809 1.523 . S
C811 C795 1.429 . S
C811 C807 1.429 . S
C811 C812 1.523 . S
C812 C796 1.368 . S
C812 C808 1.368 . S
C812 C811 1.523 . S
H813 C788 0.950 . S
H814 C790 0.950 . S
H815 C791 0.949 . S
H816 C793 0.950 . S
H817 C795 0.950 . S
C818 C819 1.349 . S
C818 C820 1.327 . S
C818 H843 0.950 . S
C819 C818 1.349 . S
C819 C835 1.349 . S
C820 C818 1.327 . S
C820 C839 1.429 . S
C820 H844 0.950 . S
C821 C838 1.574 . S
C821 C840 1.368 . S
C821 H845 0.949 . S
H822 C826 0.949 . S
C823 C824 1.349 . S
C823 C825 1.327 . S
C823 H846 0.950 . S
C824 C823 1.349 . S
C824 C836 1.349 . S
C825 C823 1.327 . S
C825 C841 1.429 . S
C825 H847 0.950 . S
C826 H822 0.949 . S
C826 C834 1.574 . S
C826 C842 1.368 . S
H827 C835 0.950 . S
H828 C833 0.950 . S
H829 C834 0.949 . S
H830 C836 0.950 . S
H831 C837 0.950 . S
H832 C838 0.949 . S
C833 H828 0.950 . S
C833 C835 1.327 . S
C833 C839 1.429 . S
C834 C826 1.574 . S
C834 H829 0.949 . S
C834 C840 1.368 . S
C835 C819 1.349 . S
C835 H827 0.950 . S
C835 C833 1.327 . S
C836 C824 1.349 . S
C836 H830 0.950 . S
C836 C837 1.327 . S
C837 H831 0.950 . S
C837 C836 1.327 . S
C837 C841 1.429 . S
C838 C821 1.574 . S
C838 H832 0.949 . S
C838 C842 1.368 . S
C839 C820 1.429 . S
C839 C833 1.429 . S
C839 C840 1.523 . S
C840 C821 1.368 . S
C840 C834 1.368 . S
C840 C839 1.523 . S
C841 C825 1.429 . S
C841 C837 1.429 . S
C841 C842 1.523 . S
C842 C826 1.368 . S
C842 C838 1.368 . S
C842 C841 1.523 . S
H843 C818 0.950 . S
H844 C820 0.950 . S
H845 C821 0.949 . S
H846 C823 0.950 . S
H847 C825 0.950 . S
C848 C849 1.349 . S
C848 C850 1.327 . S
C848 H873 0.950 . S
C849 C848 1.349 . S
C849 C865 1.349 . S
C850 C848 1.327 . S
C850 C869 1.429 . S
C850 H874 0.950 . S
C851 C868 1.574 . S
C851 C870 1.368 . S
C851 H875 0.949 . S
H852 C856 0.949 . S
C853 C854 1.349 . S
C853 C855 1.327 . S
C853 H876 0.950 . S
C854 C853 1.349 . S
C854 C866 1.349 . S
C855 C853 1.327 . S
C855 C871 1.429 . S
C855 H877 0.950 . S
C856 H852 0.949 . S
C856 C864 1.574 . S
C856 C872 1.368 . S
H857 C865 0.950 . S
H858 C863 0.950 . S
H859 C864 0.949 . S
H860 C866 0.950 . S
H861 C867 0.950 . S
H862 C868 0.949 . S
C863 H858 0.950 . S
C863 C865 1.327 . S
C863 C869 1.429 . S
C864 C856 1.574 . S
C864 H859 0.949 . S
C864 C870 1.368 . S
C865 C849 1.349 . S
C865 H857 0.950 . S
C865 C863 1.327 . S
C866 C854 1.349 . S
C866 H860 0.950 . S
C866 C867 1.327 . S
C867 H861 0.950 . S
C867 C866 1.327 . S
C867 C871 1.429 . S
C868 C851 1.574 . S
C868 H862 0.949 . S
C868 C872 1.368 . S
C869 C850 1.429 . S
C869 C863 1.429 . S
C869 C870 1.523 . S
C870 C851 1.368 . S
C870 C864 1.368 . S
C870 C869 1.523 . S
C871 C855 1.429 . S
C871 C867 1.429 . S
C871 C872 1.523 . S
C872 C856 1.368 . S
C872 C868 1.368 . S
C872 C871 1.523 . S
H873 C848 0.950 . S
H874 C850 0.950 . S
H875 C851 0.949 . S
H876 C853 0.950 . S
H877 C855 0.950 . S
C878 C879 1.349 . S
C878 C880 1.327 . S
C878 H903 0.950 . S
C879 C878 1.349 . S
C879 C895 1.349 . S
C880 C878 1.327 . S
C880 C899 1.429 . S
C880 H904 0.950 . S
C881 C898 1.574 . S
C881 C900 1.368 . S
C881 H905 0.949 . S
H882 C886 0.949 . S
C883 C884 1.349 . S
C883 C885 1.327 . S
C883 H906 0.950 . S
C884 C883 1.349 . S
C884 C896 1.349 . S
C885 C883 1.327 . S
C885 C901 1.429 . S
C885 H907 0.950 . S
C886 H882 0.949 . S
C886 C894 1.574 . S
C886 C902 1.368 . S
H887 C895 0.950 . S
H888 C893 0.950 . S
H889 C894 0.949 . S
H890 C896 0.950 . S
H891 C897 0.950 . S
H892 C898 0.949 . S
C893 H888 0.950 . S
C893 C895 1.327 . S
C893 C899 1.429 . S
C894 C886 1.574 . S
C894 H889 0.949 . S
C894 C900 1.368 . S
C895 C879 1.349 . S
C895 H887 0.950 . S
C895 C893 1.327 . S
C896 C884 1.349 . S
C896 H890 0.950 . S
C896 C897 1.327 . S
C897 H891 0.950 . S
C897 C896 1.327 . S
C897 C901 1.429 . S
C898 C881 1.574 . S
C898 H892 0.949 . S
C898 C902 1.368 . S
C899 C880 1.429 . S
C899 C893 1.429 . S
C899 C900 1.523 . S
C900 C881 1.368 . S
C900 C894 1.368 . S
C900 C899 1.523 . S
C901 C885 1.429 . S
C901 C897 1.429 . S
C901 C902 1.523 . S
C902 C886 1.368 . S
C902 C898 1.368 . S
C902 C901 1.523 . S
H903 C878 0.950 . S
H904 C880 0.950 . S
H905 C881 0.949 . S
H906 C883 0.950 . S
H907 C885 0.950 . S
C908 C909 1.349 . S
C908 C910 1.327 . S
C908 H933 0.950 . S
C909 C908 1.349 . S
C909 C925 1.349 . S
C910 C908 1.327 . S
C910 C929 1.429 . S
C910 H934 0.950 . S
C911 C928 1.574 . S
C911 C930 1.368 . S
C911 H935 0.949 . S
H912 C916 0.949 . S
C913 C914 1.349 . S
C913 C915 1.327 . S
C913 H936 0.950 . S
C914 C913 1.349 . S
C914 C926 1.349 . S
C915 C913 1.327 . S
C915 C931 1.429 . S
C915 H937 0.950 . S
C916 H912 0.949 . S
C916 C924 1.574 . S
C916 C932 1.368 . S
H917 C925 0.950 . S
H918 C923 0.950 . S
H919 C924 0.949 . S
H920 C926 0.950 . S
H921 C927 0.950 . S
H922 C928 0.949 . S
C923 H918 0.950 . S
C923 C925 1.327 . S
C923 C929 1.429 . S
C924 C916 1.574 . S
C924 H919 0.949 . S
C924 C930 1.368 . S
C925 C909 1.349 . S
C925 H917 0.950 . S
C925 C923 1.327 . S
C926 C914 1.349 . S
C926 H920 0.950 . S
C926 C927 1.327 . S
C927 H921 0.950 . S
C927 C926 1.327 . S
C927 C931 1.429 . S
C928 C911 1.574 . S
C928 H922 0.949 . S
C928 C932 1.368 . S
C929 C910 1.429 . S
C929 C923 1.429 . S
C929 C930 1.523 . S
C930 C911 1.368 . S
C930 C924 1.368 . S
C930 C929 1.523 . S
C931 C915 1.429 . S
C931 C927 1.429 . S
C931 C932 1.523 . S
C932 C916 1.368 . S
C932 C928 1.368 . S
C932 C931 1.523 . S
H933 C908 0.950 . S
H934 C910 0.950 . S
H935 C911 0.949 . S
H936 C913 0.950 . S
H937 C915 0.950 . S
C938 C939 1.349 . S
C938 C940 1.327 . S
C938 H963 0.950 . S
C939 C938 1.349 . S
C939 C955 1.349 . S
C940 C938 1.327 . S
C940 C959 1.429 . S
C940 H964 0.950 . S
C941 C958 1.574 . S
C941 C960 1.368 . S
C941 H965 0.949 . S
H942 C946 0.949 . S
C943 C944 1.349 . S
C943 C945 1.327 . S
C943 H966 0.950 . S
C944 C943 1.349 . S
C944 C956 1.349 . S
C945 C943 1.327 . S
C945 C961 1.429 . S
C945 H967 0.950 . S
C946 H942 0.949 . S
C946 C954 1.574 . S
C946 C962 1.368 . S
H947 C955 0.950 . S
H948 C953 0.950 . S
H949 C954 0.949 . S
H950 C956 0.950 . S
H951 C957 0.950 . S
H952 C958 0.949 . S
C953 H948 0.950 . S
C953 C955 1.327 . S
C953 C959 1.429 . S
C954 C946 1.574 . S
C954 H949 0.949 . S
C954 C960 1.368 . S
C955 C939 1.349 . S
C955 H947 0.950 . S
C955 C953 1.327 . S
C956 C944 1.349 . S
C956 H950 0.950 . S
C956 C957 1.327 . S
C957 H951 0.950 . S
C957 C956 1.327 . S
C957 C961 1.429 . S
C958 C941 1.574 . S
C958 H952 0.949 . S
C958 C962 1.368 . S
C959 C940 1.429 . S
C959 C953 1.429 . S
C959 C960 1.523 . S
C960 C941 1.368 . S
C960 C954 1.368 . S
C960 C959 1.523 . S
C961 C945 1.429 . S
C961 C957 1.429 . S
C961 C962 1.523 . S
C962 C946 1.368 . S
C962 C958 1.368 . S
C962 C961 1.523 . S
H963 C938 0.950 . S
H964 C940 0.950 . S
H965 C941 0.949 . S
H966 C943 0.950 . S
H967 C945 0.950 . S
C249 C5 0.855 . S
C254 C92 0.966 . S
C279 C18 1.149 . S
C284 C153 1.202 . S
C314 C191 2.314 . S
C309 C30 2.340 . S
C339 C41 1.968 . S
C344 C231 1.925 . S
C374 C151 1.432 . S
C369 C7 1.384 . S
C404 C119 2.183 . S
C399 C16 2.102 . S
C434 C228 1.736 . S
C429 C29 1.672 . S
C464 C188 1.353 . S
C459 C38 1.216 . S
C489 C8 0.988 . S
C494 C233 1.009 . S
C524 C148 2.613 . S
C519 C27 2.315 . S
C549 C40 2.199 . S
C554 C90 2.182 . S
C579 C19 1.203 . S
C584 C193 1.205 . S
C614 C113 0.921 . S
C609 C51 0.869 . S
C639 C62 1.453 . S
C644 C132 1.449 . S
C669 C74 2.432 . S
C674 C170 2.411 . S
C699 C84 1.937 . S
C704 C210 2.001 . S
C729 C49 1.400 . S
C734 C130 1.730 . S
C764 C108 2.094 . S
C759 C63 2.077 . S
C794 C239 1.559 . S
C789 C71 1.346 . S
C824 C199 1.476 . S
C819 C85 1.477 . S
C849 C52 1.022 . S
C854 C212 1.043 . S
C884 C159 2.730 . S
C879 C73 2.647 . S
C914 C111 1.712 . S
C909 C82 1.499 . S
C939 C60 1.305 . S
C944 C172 1.387 . S
