# Generated by pormake.
# Topology eea, (3,6)-cn, num edge types: 1
# Building blocks:
#     Node 0, Type 0, BuildingBlock: WUSLED_clean_sbu_0, # of connection points: 3
#     Node 1, Type 0, BuildingBlock: WUSLED_clean_sbu_0, # of connection points: 3
#     Node 2, Type 0, BuildingBlock: WUSLED_clean_sbu_0, # of connection points: 3
#     Node 3, Type 0, BuildingBlock: WUSLED_clean_sbu_0, # of connection points: 3
#     Node 4, Type 0, BuildingBlock: WUSLED_clean_sbu_0, # of connection points: 3
#     Node 5, Type 0, BuildingBlock: WUSLED_clean_sbu_0, # of connection points: 3
#     Node 6, Type 0, BuildingBlock: WUSLED_clean_sbu_0, # of connection points: 3
#     Node 7, Type 0, BuildingBlock: WUSLED_clean_sbu_0, # of connection points: 3
#     Node 8, Type 0, BuildingBlock: WUSLED_clean_sbu_0, # of connection points: 3
#     Node 9, Type 0, BuildingBlock: WUSLED_clean_sbu_0, # of connection points: 3
#     Node 10, Type 0, BuildingBlock: WUSLED_clean_sbu_0, # of connection points: 3
#     Node 11, Type 0, BuildingBlock: WUSLED_clean_sbu_0, # of connection points: 3
#     Node 12, Type 0, BuildingBlock: WUSLED_clean_sbu_0, # of connection points: 3
#     Node 13, Type 0, BuildingBlock: WUSLED_clean_sbu_0, # of connection points: 3
#     Node 14, Type 0, BuildingBlock: WUSLED_clean_sbu_0, # of connection points: 3
#     Node 15, Type 0, BuildingBlock: WUSLED_clean_sbu_0, # of connection points: 3
#     Node 16, Type 0, BuildingBlock: WUSLED_clean_sbu_0, # of connection points: 3
#     Node 17, Type 0, BuildingBlock: WUSLED_clean_sbu_0, # of connection points: 3
#     Node 18, Type 1, BuildingBlock: KUMBOL_clean_sbu_0, # of connection points: 6
#     Node 19, Type 1, BuildingBlock: KUMBOL_clean_sbu_0, # of connection points: 6
#     Node 20, Type 1, BuildingBlock: KUMBOL_clean_sbu_0, # of connection points: 6
#     Node 21, Type 1, BuildingBlock: KUMBOL_clean_sbu_0, # of connection points: 6
#     Node 22, Type 1, BuildingBlock: KUMBOL_clean_sbu_0, # of connection points: 6
#     Node 23, Type 1, BuildingBlock: KUMBOL_clean_sbu_0, # of connection points: 6
#     Node 24, Type 1, BuildingBlock: KUMBOL_clean_sbu_0, # of connection points: 6
#     Node 25, Type 1, BuildingBlock: KUMBOL_clean_sbu_0, # of connection points: 6
#     Node 26, Type 1, BuildingBlock: KUMBOL_clean_sbu_0, # of connection points: 6
#     Edge 27, Type (0, 1), BuildingBlock: XUDNAN_clean_linker_2, # of connection points: 2
#     Edge 28, Type (0, 1), BuildingBlock: XUDNAN_clean_linker_2, # of connection points: 2
#     Edge 29, Type (0, 1), BuildingBlock: XUDNAN_clean_linker_2, # of connection points: 2
#     Edge 30, Type (0, 1), BuildingBlock: XUDNAN_clean_linker_2, # of connection points: 2
#     Edge 31, Type (0, 1), BuildingBlock: XUDNAN_clean_linker_2, # of connection points: 2
#     Edge 32, Type (0, 1), BuildingBlock: XUDNAN_clean_linker_2, # of connection points: 2
#     Edge 33, Type (0, 1), BuildingBlock: XUDNAN_clean_linker_2, # of connection points: 2
#     Edge 34, Type (0, 1), BuildingBlock: XUDNAN_clean_linker_2, # of connection points: 2
#     Edge 35, Type (0, 1), BuildingBlock: XUDNAN_clean_linker_2, # of connection points: 2
#     Edge 36, Type (0, 1), BuildingBlock: XUDNAN_clean_linker_2, # of connection points: 2
#     Edge 37, Type (0, 1), BuildingBlock: XUDNAN_clean_linker_2, # of connection points: 2
#     Edge 38, Type (0, 1), BuildingBlock: XUDNAN_clean_linker_2, # of connection points: 2
#     Edge 39, Type (0, 1), BuildingBlock: XUDNAN_clean_linker_2, # of connection points: 2
#     Edge 40, Type (0, 1), BuildingBlock: XUDNAN_clean_linker_2, # of connection points: 2
#     Edge 41, Type (0, 1), BuildingBlock: XUDNAN_clean_linker_2, # of connection points: 2
#     Edge 42, Type (0, 1), BuildingBlock: XUDNAN_clean_linker_2, # of connection points: 2
#     Edge 43, Type (0, 1), BuildingBlock: XUDNAN_clean_linker_2, # of connection points: 2
#     Edge 44, Type (0, 1), BuildingBlock: XUDNAN_clean_linker_2, # of connection points: 2
#     Edge 45, Type (0, 1), BuildingBlock: XUDNAN_clean_linker_2, # of connection points: 2
#     Edge 46, Type (0, 1), BuildingBlock: XUDNAN_clean_linker_2, # of connection points: 2
#     Edge 47, Type (0, 1), BuildingBlock: XUDNAN_clean_linker_2, # of connection points: 2
#     Edge 48, Type (0, 1), BuildingBlock: XUDNAN_clean_linker_2, # of connection points: 2
#     Edge 49, Type (0, 1), BuildingBlock: XUDNAN_clean_linker_2, # of connection points: 2
#     Edge 50, Type (0, 1), BuildingBlock: XUDNAN_clean_linker_2, # of connection points: 2
#     Edge 51, Type (0, 1), BuildingBlock: XUDNAN_clean_linker_2, # of connection points: 2
#     Edge 52, Type (0, 1), BuildingBlock: XUDNAN_clean_linker_2, # of connection points: 2
#     Edge 53, Type (0, 1), BuildingBlock: XUDNAN_clean_linker_2, # of connection points: 2
#     Edge 54, Type (0, 1), BuildingBlock: XUDNAN_clean_linker_2, # of connection points: 2
#     Edge 55, Type (0, 1), BuildingBlock: XUDNAN_clean_linker_2, # of connection points: 2
#     Edge 56, Type (0, 1), BuildingBlock: XUDNAN_clean_linker_2, # of connection points: 2
#     Edge 57, Type (0, 1), BuildingBlock: XUDNAN_clean_linker_2, # of connection points: 2
#     Edge 58, Type (0, 1), BuildingBlock: XUDNAN_clean_linker_2, # of connection points: 2
#     Edge 59, Type (0, 1), BuildingBlock: XUDNAN_clean_linker_2, # of connection points: 2
#     Edge 60, Type (0, 1), BuildingBlock: XUDNAN_clean_linker_2, # of connection points: 2
#     Edge 61, Type (0, 1), BuildingBlock: XUDNAN_clean_linker_2, # of connection points: 2
#     Edge 62, Type (0, 1), BuildingBlock: XUDNAN_clean_linker_2, # of connection points: 2
#     Edge 63, Type (0, 1), BuildingBlock: XUDNAN_clean_linker_2, # of connection points: 2
#     Edge 64, Type (0, 1), BuildingBlock: XUDNAN_clean_linker_2, # of connection points: 2
#     Edge 65, Type (0, 1), BuildingBlock: XUDNAN_clean_linker_2, # of connection points: 2
#     Edge 66, Type (0, 1), BuildingBlock: XUDNAN_clean_linker_2, # of connection points: 2
#     Edge 67, Type (0, 1), BuildingBlock: XUDNAN_clean_linker_2, # of connection points: 2
#     Edge 68, Type (0, 1), BuildingBlock: XUDNAN_clean_linker_2, # of connection points: 2
#     Edge 69, Type (0, 1), BuildingBlock: XUDNAN_clean_linker_2, # of connection points: 2
#     Edge 70, Type (0, 1), BuildingBlock: XUDNAN_clean_linker_2, # of connection points: 2
#     Edge 71, Type (0, 1), BuildingBlock: XUDNAN_clean_linker_2, # of connection points: 2
#     Edge 72, Type (0, 1), BuildingBlock: XUDNAN_clean_linker_2, # of connection points: 2
#     Edge 73, Type (0, 1), BuildingBlock: XUDNAN_clean_linker_2, # of connection points: 2
#     Edge 74, Type (0, 1), BuildingBlock: XUDNAN_clean_linker_2, # of connection points: 2
#     Edge 75, Type (0, 1), BuildingBlock: XUDNAN_clean_linker_2, # of connection points: 2
#     Edge 76, Type (0, 1), BuildingBlock: XUDNAN_clean_linker_2, # of connection points: 2
#     Edge 77, Type (0, 1), BuildingBlock: XUDNAN_clean_linker_2, # of connection points: 2
#     Edge 78, Type (0, 1), BuildingBlock: XUDNAN_clean_linker_2, # of connection points: 2
#     Edge 79, Type (0, 1), BuildingBlock: XUDNAN_clean_linker_2, # of connection points: 2
#     Edge 80, Type (0, 1), BuildingBlock: XUDNAN_clean_linker_2, # of connection points: 2
# Relax obj value: 0.009
# Max RMSD: 0.092
# Mean RMSD: 0.060
data_MOF--net-eea--node1-WUSLED_clean_sbu_0--node2-KUMBOL_clean_sbu_0--edge1-XUDNAN_clean_linker_2
_symmetry_space_group_name_H-M    P1
_symmetry_Int_Tables_number       1
_symmetry_cell_setting            triclinic
loop_
_symmetry_equiv_pos_as_xyz
'x, y, z'
_cell_length_a     66.870331
_cell_length_b     68.412483
_cell_length_c     90.989162
_cell_angle_alpha  89.855614
_cell_angle_beta   90.070827
_cell_angle_gamma 119.9332
loop_
_atom_site_label
_atom_site_type_symbol
_atom_site_fract_x
_atom_site_fract_y
_atom_site_fract_z
_atom_type_partial_charge
C0 C 0.23096 0.15674 0.40295 0.0
C1 C 0.2338 0.17497 0.41154 0.0
C2 C 0.22766 0.19255 0.38989 0.0
C3 C 0.2321 0.19274 0.40506 0.0
C4 C 0.22462 0.17405 0.38146 0.0
C5 C 0.22628 0.15639 0.38793 0.0
U6 U 0.24349 0.12505 0.43384 0.0
O7 O 0.22547 0.08837 0.43798 0.0
O8 O 0.26218 0.10636 0.43209 0.0
C9 C 0.24357 0.08668 0.43431 0.0
C10 C 0.23295 0.13789 0.40916 0.0
C11 C 0.23975 0.06822 0.42407 0.0
C12 C 0.21578 0.02949 0.41551 0.0
C13 C 0.21837 0.04803 0.42362 0.0
C14 C 0.25563 0.05119 0.40776 0.0
C15 C 0.2346 0.03069 0.40785 0.0
C16 C 0.2582 0.06968 0.41579 0.0
C17 C 0.26234 0.14923 0.47294 0.0
C18 C 0.29275 0.15732 0.49081 0.0
C19 C 0.25373 0.14413 0.49916 0.0
C20 C 0.24652 0.14304 0.48459 0.0
C21 C 0.27701 0.15164 0.50249 0.0
C22 C 0.28552 0.1562 0.47623 0.0
C23 C 0.25491 0.15005 0.45763 0.0
O24 O 0.25393 0.14224 0.41242 0.0
O25 O 0.21754 0.1254 0.41909 0.0
O26 O 0.23343 0.13533 0.45419 0.0
O27 O 0.2696 0.15302 0.44709 0.0
H28 H 0.23746 0.17551 0.42318 0.0
H29 H 0.23465 0.20678 0.41185 0.0
H30 H 0.22073 0.17308 0.36984 0.0
H31 H 0.22393 0.1424 0.38114 0.0
H32 H 0.19943 0.01386 0.41589 0.0
H33 H 0.20387 0.04623 0.42998 0.0
H34 H 0.27038 0.05271 0.40183 0.0
H35 H 0.27496 0.08486 0.4159 0.0
H36 H 0.31085 0.16345 0.49295 0.0
H37 H 0.24107 0.13933 0.50785 0.0
H38 H 0.22858 0.13775 0.48248 0.0
H39 H 0.29829 0.16135 0.46758 0.0
C40 C 0.95261 0.15745 0.40848 0.0
C41 C 0.97285 0.16176 0.41593 0.0
C42 C 0.99639 0.19194 0.39866 0.0
C43 C 0.99446 0.17876 0.41106 0.0
C44 C 0.97608 0.18826 0.39159 0.0
C45 C 0.95445 0.17112 0.39641 0.0
U46 U 0.90272 0.12323 0.43561 0.0
O47 O 0.86516 0.10428 0.4319 0.0
O48 O 0.88302 0.08659 0.43954 0.0
C49 C 0.86343 0.08476 0.43516 0.0
C50 C 0.92978 0.13795 0.41244 0.0
C51 C 0.84943 0.06596 0.42509 0.0
C52 C 0.84252 0.04742 0.40133 0.0
C53 C 0.85641 0.06559 0.41061 0.0
C54 C 0.81469 0.02987 0.42096 0.0
C55 C 0.82143 0.02932 0.40639 0.0
C56 C 0.82855 0.04798 0.43018 0.0
C57 C 0.90622 0.14569 0.47483 0.0
C58 C 0.88371 0.1238 0.49589 0.0
C59 C 0.90525 0.16459 0.49719 0.0
C60 C 0.91295 0.16554 0.48278 0.0
C61 C 0.89067 0.1437 0.50398 0.0
C62 C 0.89137 0.12478 0.48142 0.0
C63 C 0.9153 0.14728 0.45984 0.0
O64 O 0.92979 0.12336 0.42189 0.0
O65 O 0.91293 0.14224 0.4147 0.0
O66 O 0.90375 0.15031 0.44924 0.0
O67 O 0.92182 0.13261 0.45649 0.0
H68 H 0.97211 0.15169 0.42534 0.0
H69 H 1.00973 0.1814 0.4169 0.0
H70 H 0.97696 0.19801 0.38197 0.0
H71 H 0.93915 0.16814 0.39045 0.0
H72 H 0.84841 0.04748 0.39024 0.0
H73 H 0.87255 0.07931 0.4065 0.0
H74 H 0.79845 0.0165 0.4252 0.0
H75 H 0.82285 0.04799 0.44133 0.0
H76 H 0.87224 0.10745 0.5007 0.0
H77 H 0.91115 0.18022 0.50313 0.0
H78 H 0.92441 0.18184 0.47789 0.0
H79 H 0.88581 0.10924 0.47543 0.0
C80 C 0.86594 0.8012 0.4111 0.0
C81 C 0.86315 0.81862 0.41713 0.0
C82 C 0.83114 0.80986 0.40041 0.0
C83 C 0.84598 0.82286 0.41186 0.0
C84 C 0.8333 0.79185 0.3948 0.0
C85 C 0.85057 0.78767 0.40003 0.0
U86 U 0.90219 0.78528 0.43697 0.0
O87 O 0.92304 0.76955 0.43131 0.0
O88 O 0.93974 0.80359 0.44064 0.0
C89 C 0.94266 0.78774 0.43461 0.0
C90 C 0.88612 0.79857 0.41499 0.0
C91 C 0.96212 0.79526 0.42398 0.0
C92 C 0.98144 0.78713 0.40409 0.0
C93 C 0.96202 0.78069 0.41304 0.0
C94 C 1.00144 0.82292 0.4167 0.0
C95 C 1.00153 0.80827 0.40589 0.0
C96 C 0.98208 0.81649 0.42563 0.0
C97 C 0.87815 0.76174 0.47606 0.0
C98 C 0.8983 0.75633 0.49662 0.0
C99 C 0.8576 0.74396 0.49866 0.0
C100 C 0.85778 0.75158 0.48435 0.0
C101 C 0.87785 0.74625 0.50506 0.0
C102 C 0.89845 0.76401 0.48225 0.0
C103 C 0.87762 0.77038 0.46124 0.0
O104 O 0.90044 0.81232 0.42497 0.0
O105 O 0.88249 0.77789 0.41624 0.0
O106 O 0.87541 0.75729 0.45008 0.0
O107 O 0.89239 0.79178 0.45873 0.0
H108 H 0.87464 0.82945 0.42564 0.0
H109 H 0.84458 0.83662 0.41662 0.0
H110 H 0.8223 0.78159 0.38592 0.0
H111 H 0.8524 0.77429 0.39503 0.0
H112 H 0.98072 0.77546 0.39581 0.0
H113 H 0.94711 0.76409 0.41154 0.0
H114 H 0.01666 0.83915 0.41865 0.0
H115 H 0.98299 0.82798 0.43411 0.0
H116 H 0.91417 0.75818 0.50108 0.0
H117 H 0.84163 0.7367 0.50481 0.0
H118 H 0.84196 0.74978 0.47982 0.0
H119 H 0.91438 0.7718 0.47602 0.0
C120 C 0.0732 0.21512 0.63475 0.0
C121 C 0.05086 0.19798 0.63079 0.0
C122 C 0.03333 0.2155 0.64544 0.0
C123 C 0.03117 0.19819 0.63606 0.0
C124 C 0.0557 0.23243 0.64945 0.0
C125 C 0.07526 0.23221 0.64422 0.0
U126 U 0.12184 0.22246 0.60757 0.0
O127 O 0.15912 0.23817 0.61157 0.0
O128 O 0.1393 0.20222 0.60605 0.0
C129 C 0.15942 0.21922 0.60998 0.0
C130 C 0.09441 0.21452 0.63036 0.0
C131 C 0.17352 0.21471 0.62068 0.0
C132 C 0.19827 0.22548 0.64235 0.0
C133 C 0.18159 0.22697 0.63382 0.0
C134 C 0.19822 0.19842 0.6253 0.0
C135 C 0.20736 0.21171 0.63798 0.0
C136 C 0.18158 0.19999 0.61673 0.0
C137 C 0.12102 0.24156 0.56697 0.0
C138 C 0.14333 0.27081 0.54875 0.0
C139 C 0.11572 0.23315 0.54072 0.0
C140 C 0.1103 0.22624 0.55539 0.0
C141 C 0.1319 0.25566 0.53716 0.0
C142 C 0.13789 0.26389 0.56345 0.0
C143 C 0.11226 0.2349 0.5823 0.0
O144 O 0.09212 0.19875 0.62113 0.0
O145 O 0.11304 0.23408 0.62783 0.0
O146 O 0.1239 0.24908 0.59291 0.0
O147 O 0.1042 0.2137 0.58608 0.0
H148 H 0.04853 0.18431 0.6237 0.0
H149 H 0.01428 0.18494 0.63265 0.0
H150 H 0.05817 0.24581 0.65687 0.0
H151 H 0.09211 0.24536 0.6478 0.0
H152 H 0.2046 0.23568 0.65218 0.0
H153 H 0.17572 0.23844 0.63723 0.0
H154 H 0.20486 0.18775 0.62151 0.0
H155 H 0.17581 0.19046 0.6066 0.0
H156 H 0.15572 0.28832 0.54647 0.0
H157 H 0.10682 0.22089 0.53212 0.0
H158 H 0.09706 0.209 0.55764 0.0
H159 H 0.14632 0.27629 0.57204 0.0
C160 C 0.79745 0.85896 0.63288 0.0
C161 C 0.80838 0.85107 0.62336 0.0
C162 C 0.80714 0.82506 0.64221 0.0
C163 C 0.81325 0.83437 0.628 0.0
C164 C 0.7951 0.83212 0.65143 0.0
C165 C 0.79041 0.84899 0.64682 0.0
U166 U 0.78227 0.89297 0.60578 0.0
O167 O 0.76496 0.91276 0.6099 0.0
O168 O 0.80034 0.92939 0.60132 0.0
C169 C 0.7835 0.93198 0.60658 0.0
C170 C 0.79466 0.87847 0.62892 0.0
C171 C 0.7902 0.95078 0.61706 0.0
C172 C 0.81762 0.97873 0.63412 0.0
C173 C 0.81091 0.95993 0.62507 0.0
C174 C 0.78273 0.97917 0.62769 0.0
C175 C 0.80371 0.98875 0.63549 0.0
C176 C 0.77613 0.96048 0.61855 0.0
C177 C 0.76163 0.869 0.56677 0.0
C178 C 0.75654 0.88906 0.5463 0.0
C179 C 0.74549 0.84972 0.54368 0.0
C180 C 0.75251 0.8495 0.55813 0.0
C181 C 0.74743 0.8695 0.53754 0.0
C182 C 0.76356 0.88881 0.5608 0.0
C183 C 0.76933 0.86822 0.58182 0.0
O184 O 0.80937 0.89267 0.61925 0.0
O185 O 0.77343 0.87428 0.6268 0.0
O186 O 0.75501 0.86596 0.59244 0.0
O187 O 0.79095 0.88291 0.58487 0.0
H188 H 0.81377 0.85824 0.61247 0.0
H189 H 0.82227 0.82905 0.62057 0.0
H190 H 0.79028 0.82537 0.66245 0.0
H191 H 0.78193 0.85478 0.65435 0.0
H192 H 0.83403 0.98571 0.63976 0.0
H193 H 0.82214 0.95281 0.62415 0.0
H194 H 0.77131 0.98606 0.62864 0.0
H195 H 0.76007 0.95371 0.6125 0.0
H196 H 0.75805 0.90451 0.54199 0.0
H197 H 0.73892 0.83445 0.53723 0.0
H198 H 0.75098 0.83408 0.56253 0.0
H199 H 0.77052 0.90404 0.56733 0.0
C200 C 0.06108 0.84235 0.61774 0.0
C201 C 0.0383 0.82883 0.61285 0.0
C202 C 0.02563 0.81414 0.63764 0.0
C203 C 0.02077 0.81493 0.62266 0.0
C204 C 0.04839 0.8283 0.64261 0.0
C205 C 0.06592 0.84228 0.63277 0.0
U206 U 0.11892 0.89305 0.60433 0.0
O207 O 0.13764 0.90459 0.62526 0.0
O208 O 0.12054 0.92208 0.61603 0.0
C209 C 0.13453 0.92208 0.6262 0.0
C210 C 0.07957 0.85489 0.60679 0.0
C211 C 0.15521 0.94421 0.62964 0.0
C212 C 0.17185 0.98362 0.63707 0.0
C213 C 0.15264 0.96282 0.63325 0.0
C214 C 0.19654 0.96747 0.63397 0.0
C215 C 0.19412 0.98626 0.63743 0.0
C216 C 0.17741 0.9468 0.63007 0.0
C217 C 0.14377 0.89318 0.56553 0.0
C218 C 0.1652 0.89488 0.54349 0.0
C219 C 0.12436 0.86787 0.545 0.0
C220 C 0.12367 0.87565 0.55917 0.0
C221 C 0.14515 0.87746 0.53692 0.0
C222 C 0.16449 0.90259 0.5576 0.0
C223 C 0.14375 0.90258 0.58014 0.0
O224 O 0.09978 0.85689 0.60966 0.0
O225 O 0.08109 0.87339 0.60131 0.0
O226 O 0.1466 0.8924 0.59155 0.0
O227 O 0.1282 0.90866 0.58237 0.0
H228 H 0.03417 0.82852 0.6013 0.0
H229 H 1.00358 0.80411 0.61838 0.0
H230 H 0.05273 0.82838 0.65409 0.0
H231 H 0.08334 0.85263 0.63686 0.0
H232 H 0.16928 0.99769 0.63952 0.0
H233 H 0.13571 0.96128 0.63313 0.0
H234 H 0.21327 0.96861 0.6344 0.0
H235 H 0.18008 0.93282 0.62751 0.0
H236 H 0.18144 0.90299 0.53761 0.0
H237 H 0.10862 0.85426 0.54041 0.0
H238 H 0.10748 0.8681 0.56511 0.0
H239 H 0.18018 0.91621 0.56227 0.0
C240 C 0.88506 0.48456 0.7435 0.0
C241 C 0.8947 0.50407 0.75218 0.0
C242 C 0.88385 0.52326 0.73387 0.0
C243 C 0.8941 0.52324 0.74741 0.0
C244 C 0.87359 0.50338 0.72545 0.0
C245 C 0.87425 0.48424 0.73022 0.0
U246 U 0.90086 0.45209 0.77117 0.0
O247 O 0.88358 0.41581 0.77617 0.0
O248 O 0.91889 0.43297 0.76743 0.0
C249 C 0.90068 0.41361 0.77093 0.0
C250 C 0.88697 0.4648 0.74783 0.0
C251 C 0.89458 0.3948 0.76057 0.0
C252 C 0.86732 0.36511 0.74439 0.0
C253 C 0.87291 0.38343 0.75367 0.0
C254 C 0.90511 0.36949 0.7485 0.0
C255 C 0.88332 0.35783 0.74171 0.0
C256 C 0.91062 0.38769 0.75785 0.0
C257 C 0.92397 0.47753 0.80929 0.0
C258 C 0.927 0.45698 0.83024 0.0
C259 C 0.94443 0.49763 0.83131 0.0
C260 C 0.9367 0.49774 0.81704 0.0
C261 C 0.93955 0.47723 0.83815 0.0
C262 C 0.91933 0.45713 0.81592 0.0
C263 C 0.91525 0.47811 0.79451 0.0
O264 O 0.90814 0.46858 0.74952 0.0
O265 O 0.87291 0.45209 0.75829 0.0
O266 O 0.89345 0.46328 0.79205 0.0
O267 O 0.92884 0.48016 0.78347 0.0
H268 H 0.90302 0.50458 0.76252 0.0
H269 H 0.90184 0.53813 0.75429 0.0
H270 H 0.86575 0.50286 0.71493 0.0
H271 H 0.86672 0.4693 0.72338 0.0
H272 H 0.85027 0.35641 0.73954 0.0
H273 H 0.86016 0.38851 0.75554 0.0
H274 H 0.91803 0.36467 0.74653 0.0
H275 H 0.92745 0.3962 0.76303 0.0
H276 H 0.92321 0.44102 0.83509 0.0
H277 H 0.9538 0.51349 0.83712 0.0
H278 H 0.94041 0.51364 0.81212 0.0
H279 H 0.90964 0.44134 0.81007 0.0
C280 C 0.62185 0.49131 0.74415 0.0
C281 C 0.62914 0.5125 0.75051 0.0
C282 C 0.66315 0.52981 0.73454 0.0
C283 C 0.64955 0.53154 0.74575 0.0
C284 C 0.656 0.5084 0.7285 0.0
C285 C 0.63559 0.48941 0.73324 0.0
U286 U 0.57157 0.45616 0.77103 0.0
O287 O 0.53433 0.43549 0.76652 0.0
O288 O 0.55325 0.41954 0.77532 0.0
C289 C 0.53344 0.41654 0.77038 0.0
C290 C 0.59973 0.47115 0.74831 0.0
C291 C 0.52029 0.39698 0.76062 0.0
C292 C 0.51322 0.37835 0.73688 0.0
C293 C 0.52606 0.39736 0.74577 0.0
C294 C 0.48862 0.35847 0.75757 0.0
C295 C 0.49437 0.35856 0.74269 0.0
C296 C 0.50144 0.37746 0.76641 0.0
C297 C 0.57197 0.4795 0.81001 0.0
C298 C 0.56643 0.46649 0.83547 0.0
C299 C 0.55765 0.49548 0.82837 0.0
C300 C 0.56407 0.49438 0.81387 0.0
C301 C 0.55922 0.48189 0.83943 0.0
C302 C 0.57272 0.4653 0.82096 0.0
C303 C 0.58145 0.48065 0.79504 0.0
O304 O 0.60082 0.45814 0.75855 0.0
O305 O 0.58188 0.47413 0.74985 0.0
O306 O 0.57001 0.48267 0.78392 0.0
O307 O 0.58951 0.46701 0.79225 0.0
H308 H 0.61893 0.51438 0.75904 0.0
H309 H 0.65465 0.54765 0.75085 0.0
H310 H 0.66583 0.50637 0.71978 0.0
H311 H 0.63031 0.47323 0.72818 0.0
H312 H 0.51801 0.37919 0.72544 0.0
H313 H 0.54049 0.41231 0.74107 0.0
H314 H 0.47452 0.34354 0.76251 0.0
H315 H 0.49672 0.37681 0.77786 0.0
H316 H 0.56755 0.45556 0.84366 0.0
H317 H 0.55242 0.5077 0.83104 0.0
H318 H 0.56354 0.50572 0.80575 0.0
H319 H 0.57876 0.45365 0.81844 0.0
C320 C 0.52979 0.1291 0.74021 0.0
C321 C 0.52409 0.14525 0.74512 0.0
C322 C 0.49086 0.13027 0.72849 0.0
C323 C 0.50483 0.14582 0.73932 0.0
C324 C 0.49684 0.11436 0.72356 0.0
C325 C 0.51596 0.11381 0.7293 0.0
U326 U 0.56845 0.11941 0.76833 0.0
O327 O 0.58908 0.10291 0.76437 0.0
O328 O 0.60628 0.13848 0.77089 0.0
C329 C 0.6088 0.12135 0.76694 0.0
C330 C 0.55094 0.12886 0.7452 0.0
C331 C 0.62807 0.12615 0.75685 0.0
C332 C 0.65076 0.14292 0.73469 0.0
C333 C 0.63171 0.13813 0.74364 0.0
C334 C 0.66249 0.12357 0.75194 0.0
C335 C 0.66652 0.1358 0.73876 0.0
C336 C 0.64351 0.11881 0.76083 0.0
C337 C 0.54734 0.09966 0.80845 0.0
C338 C 0.53281 0.07062 0.82757 0.0
C339 C 0.56076 0.10911 0.8338 0.0
C340 C 0.56132 0.11555 0.81909 0.0
C341 C 0.54617 0.08664 0.83831 0.0
C342 C 0.53332 0.07707 0.81286 0.0
C343 C 0.54529 0.10671 0.79325 0.0
O344 O 0.56448 0.14412 0.7548 0.0
O345 O 0.54876 0.10893 0.74764 0.0
O346 O 0.54237 0.09264 0.78255 0.0
O347 O 0.55908 0.12793 0.7896 0.0
H348 H 0.53453 0.15752 0.75336 0.0
H349 H 0.50073 0.15823 0.74346 0.0
H350 H 0.48688 0.1024 0.71503 0.0
H351 H 0.52013 0.10151 0.72503 0.0
H352 H 0.65309 0.15215 0.72456 0.0
H353 H 0.61995 0.14389 0.74032 0.0
H354 H 0.67433 0.11814 0.75565 0.0
H355 H 0.64108 0.1096 0.771 0.0
H356 H 0.52118 0.05323 0.83061 0.0
H357 H 0.57155 0.12186 0.84171 0.0
H358 H 0.57228 0.13312 0.81618 0.0
H359 H 0.5221 0.06446 0.80501 0.0
C360 C 0.742 0.5516 0.96396 0.0
C361 C 0.72192 0.53322 0.95812 0.0
C362 C 0.69755 0.54075 0.97448 0.0
C363 C 0.70003 0.52791 0.9633 0.0
C364 C 0.71758 0.55962 0.97992 0.0
C365 C 0.7395 0.56489 0.97477 0.0
U366 U 0.79484 0.569 0.93803 0.0
O367 O 0.83201 0.58739 0.94353 0.0
O368 O 0.81582 0.55268 0.93534 0.0
C369 C 0.83462 0.56997 0.94063 0.0
C370 C 0.76545 0.55561 0.96014 0.0
C371 C 0.84818 0.56483 0.95129 0.0
C372 C 0.85102 0.54179 0.9708 0.0
C373 C 0.83762 0.54762 0.96186 0.0
C374 C 0.88571 0.57066 0.95905 0.0
C375 C 0.87527 0.553 0.96937 0.0
C376 C 0.87233 0.57646 0.95014 0.0
C377 C 0.79163 0.58853 0.89775 0.0
C378 C 0.81572 0.61801 0.88012 0.0
C379 C 0.78262 0.58366 0.87156 0.0
C380 C 0.77787 0.57545 0.88599 0.0
C381 C 0.80127 0.60528 0.86844 0.0
C382 C 0.8109 0.60979 0.89463 0.0
C383 C 0.78366 0.58075 0.91305 0.0
O384 O 0.76669 0.54173 0.95069 0.0
O385 O 0.7819 0.57666 0.95831 0.0
O386 O 0.79427 0.59493 0.92388 0.0
O387 O 0.77784 0.55984 0.91633 0.0
H388 H 0.72307 0.52253 0.94981 0.0
H389 H 0.68501 0.51349 0.95865 0.0
H390 H 0.71642 0.56981 0.9886 0.0
H391 H 0.7546 0.57899 0.97963 0.0
H392 H 0.84231 0.52834 0.97875 0.0
H393 H 0.81902 0.53841 0.963 0.0
H394 H 0.90421 0.57952 0.95742 0.0
H395 H 0.88087 0.58971 0.94202 0.0
H396 H 0.83016 0.63477 0.87816 0.0
H397 H 0.77133 0.57321 0.86284 0.0
H398 H 0.76283 0.5591 0.88802 0.0
H399 H 0.8218 0.62043 0.90343 0.0
C400 C 0.46025 0.17761 0.94572 0.0
C401 C 0.46984 0.16494 0.94027 0.0
C402 C 0.47048 0.15118 0.96491 0.0
C403 C 0.47495 0.15189 0.94975 0.0
C404 C 0.46095 0.16404 0.97034 0.0
C405 C 0.45595 0.17718 0.96085 0.0
U406 U 0.45256 0.22803 0.93479 0.0
O407 O 0.47964 0.25597 0.94771 0.0
O408 O 0.44418 0.23723 0.95611 0.0
C409 C 0.46491 0.25489 0.9577 0.0
C410 C 0.45417 0.19042 0.93535 0.0
C411 C 0.46611 0.27654 0.96142 0.0
C412 C 0.48846 0.3152 0.97027 0.0
C413 C 0.48698 0.29469 0.96646 0.0
C414 C 0.44812 0.29973 0.96418 0.0
C415 C 0.46903 0.318 0.96921 0.0
C416 C 0.4467 0.27929 0.96027 0.0
C417 C 0.42965 0.22902 0.89609 0.0
C418 C 0.39891 0.21472 0.87787 0.0
C419 C 0.43603 0.21901 0.87155 0.0
C420 C 0.44407 0.22691 0.88574 0.0
C421 C 0.41341 0.21301 0.86739 0.0
C422 C 0.40698 0.22273 0.89201 0.0
C423 C 0.43812 0.23871 0.91087 0.0
O424 O 0.47133 0.20969 0.93063 0.0
O425 O 0.43553 0.19146 0.9385 0.0
O426 O 0.46004 0.24613 0.91372 0.0
O427 O 0.42447 0.22778 0.92197 0.0
H428 H 0.47332 0.16507 0.92863 0.0
H429 H 0.48263 0.14255 0.94521 0.0
H430 H 0.45701 0.16372 0.9819 0.0
H431 H 0.44853 0.18681 0.96531 0.0
H432 H 0.50494 0.32894 0.97388 0.0
H433 H 0.5022 0.29301 0.96744 0.0
H434 H 0.43268 0.30105 0.96343 0.0
H435 H 0.43032 0.26564 0.95644 0.0
H436 H 0.38126 0.20988 0.87516 0.0
H437 H 0.44777 0.21815 0.86373 0.0
H438 H 0.46169 0.23169 0.88848 0.0
H439 H 0.39551 0.22422 0.89975 0.0
C440 C 0.74292 0.19799 0.96692 0.0
C441 C 0.72247 0.19769 0.96279 0.0
C442 C 0.69946 0.16441 0.97803 0.0
C443 C 0.70105 0.1811 0.96825 0.0
C444 C 0.71981 0.16426 0.98177 0.0
C445 C 0.74126 0.18091 0.97635 0.0
U446 U 0.794 0.23249 0.94006 0.0
O447 O 0.81431 0.26931 0.93703 0.0
O448 O 0.83137 0.25078 0.94454 0.0
C449 C 0.83355 0.2706 0.94167 0.0
C450 C 0.76598 0.21717 0.96281 0.0
C451 C 0.84732 0.28887 0.95218 0.0
C452 C 0.85392 0.30614 0.9764 0.0
C453 C 0.84033 0.2883 0.96679 0.0
C454 C 0.8815 0.32519 0.95684 0.0
C455 C 0.87468 0.32489 0.97151 0.0
C456 C 0.86797 0.30741 0.94732 0.0
C457 C 0.79075 0.2113 0.89991 0.0
C458 C 0.81382 0.20461 0.88196 0.0
C459 C 0.78551 0.21431 0.87363 0.0
C460 C 0.77979 0.21571 0.88823 0.0
C461 C 0.80225 0.20826 0.87028 0.0
C462 C 0.80809 0.20602 0.89661 0.0
C463 C 0.78214 0.20991 0.91517 0.0
O464 O 0.78263 0.21257 0.96056 0.0
O465 O 0.76641 0.23204 0.95344 0.0
O466 O 0.7758 0.22462 0.91881 0.0
O467 O 0.79302 0.20601 0.92583 0.0
H468 H 0.72299 0.21059 0.95561 0.0
H469 H 0.68571 0.18153 0.96493 0.0
H470 H 0.7193 0.1518 0.98936 0.0
H471 H 0.75667 0.1808 0.97991 0.0
H472 H 0.84802 0.30541 0.98757 0.0
H473 H 0.82438 0.27413 0.97075 0.0
H474 H 0.89752 0.33906 0.95273 0.0
H475 H 0.8737 0.30813 0.93609 0.0
H476 H 0.82665 0.19972 0.87981 0.0
H477 H 0.77649 0.21761 0.86495 0.0
H478 H 0.76624 0.21964 0.89037 0.0
H479 H 0.81677 0.20229 0.90529 0.0
C480 C 0.56244 0.82444 0.07438 0.0
C481 C 0.58252 0.84576 0.07421 0.0
C482 C 0.56035 0.86351 0.0665 0.0
C483 C 0.58149 0.86499 0.07026 0.0
C484 C 0.54028 0.84214 0.06656 0.0
C485 C 0.54134 0.82282 0.07042 0.0
U486 U 0.5757 0.78963 0.10164 0.0
O487 O 0.5579 0.75295 0.10578 0.0
O488 O 0.59403 0.77081 0.09852 0.0
C489 C 0.57572 0.75121 0.10146 0.0
C490 C 0.56334 0.80383 0.07836 0.0
C491 C 0.57142 0.7322 0.0916 0.0
C492 C 0.54599 0.69411 0.08238 0.0
C493 C 0.54912 0.71354 0.08964 0.0
C494 C 0.58718 0.71197 0.07843 0.0
C495 C 0.5651 0.69289 0.07715 0.0
C496 C 0.59031 0.73132 0.0856 0.0
C497 C 0.59876 0.81512 0.13987 0.0
C498 C 0.60591 0.79571 0.15986 0.0
C499 C 0.61726 0.83515 0.16235 0.0
C500 C 0.60878 0.83491 0.14826 0.0
C501 C 0.6159 0.81555 0.16837 0.0
C502 C 0.59745 0.79551 0.14572 0.0
C503 C 0.58981 0.81542 0.12512 0.0
O504 O 0.584 0.80628 0.08006 0.0
O505 O 0.54857 0.79074 0.08842 0.0
O506 O 0.56808 0.80036 0.12268 0.0
O507 O 0.60344 0.8176 0.11409 0.0
H508 H 0.59913 0.84769 0.0771 0.0
H509 H 0.59741 0.88104 0.07006 0.0
H510 H 0.52367 0.84035 0.06387 0.0
H511 H 0.52562 0.80658 0.07039 0.0
H512 H 0.52878 0.67962 0.08163 0.0
H513 H 0.53419 0.71354 0.09424 0.0
H514 H 0.60222 0.71162 0.07436 0.0
H515 H 0.60773 0.74525 0.087 0.0
H516 H 0.60483 0.78039 0.16406 0.0
H517 H 0.62452 0.85063 0.16864 0.0
H518 H 0.60992 0.85021 0.14393 0.0
H519 H 0.58989 0.78009 0.13935 0.0
C520 C 0.29274 0.82868 0.07604 0.0
C521 C 0.30433 0.84976 0.08306 0.0
C522 C 0.3364 0.86268 0.06565 0.0
C523 C 0.32597 0.86666 0.07787 0.0
C524 C 0.32446 0.84157 0.05865 0.0
C525 C 0.30297 0.82482 0.0638 0.0
U526 U 0.24226 0.79703 0.1039 0.0
O527 O 0.20487 0.77841 0.09929 0.0
O528 O 0.2219 0.76048 0.10793 0.0
C529 C 0.20274 0.75879 0.10275 0.0
C530 C 0.26998 0.81032 0.08096 0.0
C531 C 0.18939 0.74006 0.09241 0.0
C532 C 0.18692 0.71641 0.07171 0.0
C533 C 0.20004 0.7349 0.08095 0.0
C534 C 0.15238 0.7082 0.08516 0.0
C535 C 0.1629 0.70271 0.07374 0.0
C536 C 0.16548 0.72663 0.09436 0.0
C537 C 0.24419 0.82049 0.14277 0.0
C538 C 0.21712 0.80002 0.16252 0.0
C539 C 0.24582 0.83936 0.16575 0.0
C540 C 0.25418 0.83985 0.15158 0.0
C541 C 0.22722 0.81943 0.17146 0.0
C542 C 0.22551 0.80055 0.14831 0.0
C543 C 0.25384 0.82149 0.12801 0.0
O544 O 0.27016 0.79679 0.09117 0.0
O545 O 0.25365 0.81544 0.08289 0.0
O546 O 0.24299 0.82449 0.11696 0.0
O547 O 0.26005 0.80641 0.12527 0.0
H548 H 0.29673 0.85309 0.09254 0.0
H549 H 0.33471 0.88264 0.08359 0.0
H550 H 0.33165 0.83797 0.04906 0.0
H551 H 0.29427 0.80875 0.05815 0.0
H552 H 0.19569 0.71261 0.06315 0.0
H553 H 0.21849 0.74501 0.07924 0.0
H554 H 0.13392 0.69837 0.08692 0.0
H555 H 0.1569 0.73035 0.10311 0.0
H556 H 0.2026 0.78445 0.16646 0.0
H557 H 0.25425 0.85454 0.17233 0.0
H558 H 0.26865 0.85539 0.14753 0.0
H559 H 0.21749 0.78542 0.14166 0.0
C560 C 0.20332 0.47292 0.07681 0.0
C561 C 0.18166 0.45966 0.08343 0.0
C562 C 0.16451 0.47598 0.06717 0.0
C563 C 0.16247 0.46117 0.07866 0.0
C564 C 0.18643 0.48954 0.06084 0.0
C565 C 0.20554 0.488 0.0656 0.0
U566 U 0.24111 0.4595 0.10309 0.0
O567 O 0.26088 0.44255 0.09804 0.0
O568 O 0.27918 0.47796 0.10494 0.0
C569 C 0.28099 0.46086 0.10002 0.0
C570 C 0.22367 0.4708 0.0808 0.0
C571 C 0.29912 0.46587 0.08881 0.0
C572 C 0.31109 0.45894 0.06499 0.0
C573 C 0.29363 0.45659 0.07462 0.0
C574 C 0.33995 0.4809 0.08323 0.0
C575 C 0.33446 0.47063 0.0693 0.0
C576 C 0.32248 0.47847 0.09287 0.0
C577 C 0.21974 0.43942 0.14345 0.0
C578 C 0.21998 0.41209 0.16071 0.0
C579 C 0.21333 0.44163 0.16963 0.0
C580 C 0.21567 0.45006 0.15531 0.0
C581 C 0.21492 0.42222 0.17251 0.0
C582 C 0.22227 0.42053 0.14632 0.0
C583 C 0.21866 0.447 0.12827 0.0
O584 O 0.23813 0.48544 0.09033 0.0
O585 O 0.22009 0.45028 0.08293 0.0
O586 O 0.21518 0.43299 0.11742 0.0
O587 O 0.23331 0.46814 0.12492 0.0
H588 H 0.17951 0.44796 0.09215 0.0
H589 H 0.14602 0.45071 0.084 0.0
H590 H 0.18875 0.50092 0.05187 0.0
H591 H 0.22206 0.49836 0.0603 0.0
H592 H 0.30621 0.45109 0.05428 0.0
H593 H 0.27581 0.44689 0.0711 0.0
H594 H 0.35768 0.48985 0.087 0.0
H595 H 0.32719 0.48573 0.10376 0.0
H596 H 0.22122 0.39707 0.16249 0.0
H597 H 0.20985 0.45013 0.17844 0.0
H598 H 0.21356 0.46458 0.15344 0.0
H599 H 0.22531 0.41187 0.13742 0.0
C600 C 0.40341 0.87588 0.30081 0.0
C601 C 0.39786 0.89241 0.29667 0.0
C602 C 0.36308 0.87454 0.31187 0.0
C603 C 0.37797 0.89176 0.30215 0.0
C604 C 0.36802 0.85736 0.31536 0.0
C605 C 0.38803 0.85809 0.30993 0.0
U606 U 0.45392 0.88988 0.27407 0.0
O607 O 0.49137 0.90913 0.27816 0.0
O608 O 0.47502 0.87352 0.27174 0.0
C609 C 0.4941 0.89163 0.27593 0.0
C610 C 0.42586 0.87785 0.29681 0.0
C611 C 0.5095 0.88875 0.28636 0.0
C612 C 0.51747 0.86762 0.30489 0.0
C613 C 0.50177 0.87001 0.29579 0.0
C614 C 0.54863 0.9026 0.29528 0.0
C615 C 0.54115 0.88394 0.30476 0.0
C616 C 0.53303 0.90496 0.28626 0.0
C617 C 0.45129 0.90998 0.23453 0.0
C618 C 0.48187 0.92335 0.21618 0.0
C619 C 0.44584 0.92195 0.21039 0.0
C620 C 0.43756 0.91353 0.22445 0.0
C621 C 0.46811 0.927 0.20601 0.0
C622 C 0.47353 0.9149 0.23032 0.0
C623 C 0.44205 0.90164 0.24939 0.0
O624 O 0.42538 0.86334 0.28717 0.0
O625 O 0.4432 0.89841 0.29476 0.0
O626 O 0.45255 0.91567 0.26027 0.0
O627 O 0.43666 0.88079 0.25247 0.0
H628 H 0.40925 0.90622 0.28954 0.0
H629 H 0.37448 0.90505 0.29901 0.0
H630 H 0.35701 0.84391 0.32283 0.0
H631 H 0.39191 0.84514 0.31328 0.0
H632 H 0.51103 0.85309 0.31208 0.0
H633 H 0.4837 0.85719 0.29607 0.0
H634 H 0.56672 0.91527 0.29454 0.0
H635 H 0.53949 0.91941 0.27897 0.0
H636 H 0.49901 0.92685 0.21319 0.0
H637 H 0.43488 0.92492 0.20304 0.0
H638 H 0.42041 0.90998 0.22752 0.0
H639 H 0.48441 0.91229 0.23796 0.0
C640 C 0.13593 0.53029 0.302 0.0
C641 C 0.12674 0.50931 0.29494 0.0
C642 C 0.1405 0.49509 0.31488 0.0
C643 C 0.12908 0.49184 0.30131 0.0
C644 C 0.1502 0.51638 0.32161 0.0
C645 C 0.14792 0.53375 0.31524 0.0
U646 U 0.119 0.56038 0.27241 0.0
O647 O 0.09966 0.57827 0.27537 0.0
O648 O 0.13563 0.5969 0.26792 0.0
C649 C 0.11764 0.59814 0.27251 0.0
C650 C 0.13262 0.54865 0.29629 0.0
C651 C 0.12195 0.61676 0.28277 0.0
C652 C 0.14669 0.65523 0.29163 0.0
C653 C 0.14369 0.63653 0.28351 0.0
C654 C 0.10654 0.6345 0.29885 0.0
C655 C 0.12794 0.65463 0.29903 0.0
C656 C 0.10356 0.61587 0.29079 0.0
C657 C 0.09714 0.53466 0.23419 0.0
C658 C 0.08853 0.55355 0.21456 0.0
C659 C 0.08005 0.51503 0.21133 0.0
C660 C 0.08856 0.5153 0.22543 0.0
C661 C 0.07996 0.53415 0.20567 0.0
C662 C 0.097 0.55378 0.2287 0.0
C663 C 0.10605 0.53446 0.24898 0.0
O664 O 0.14687 0.56132 0.28589 0.0
O665 O 0.11118 0.54364 0.29398 0.0
O666 O 0.0921 0.53176 0.25994 0.0
O667 O 0.12756 0.55001 0.25155 0.0
H668 H 0.11743 0.50635 0.28467 0.0
H669 H 0.12137 0.47561 0.29588 0.0
H670 H 0.15947 0.51961 0.3319 0.0
H671 H 0.15523 0.54986 0.32081 0.0
H672 H 0.16334 0.67054 0.29147 0.0
H673 H 0.1582 0.6379 0.27736 0.0
H674 H 0.09182 0.6334 0.30458 0.0
H675 H 0.08654 0.60105 0.29043 0.0
H676 H 0.08846 0.56848 0.21064 0.0
H677 H 0.07391 0.49992 0.20476 0.0
H678 H 0.08853 0.50038 0.22948 0.0
H679 H 0.10344 0.56885 0.23535 0.0
C680 C 0.40515 0.52055 0.29917 0.0
C681 C 0.38325 0.51745 0.29563 0.0
C682 C 0.3644 0.48253 0.30988 0.0
C683 C 0.36314 0.49866 0.3009 0.0
C684 C 0.3863 0.48558 0.31332 0.0
C685 C 0.40638 0.50437 0.30808 0.0
U686 U 0.45378 0.55741 0.27158 0.0
O687 O 0.47014 0.59374 0.26707 0.0
O688 O 0.49097 0.57971 0.27576 0.0
C689 C 0.49024 0.59806 0.27239 0.0
C690 C 0.42667 0.54132 0.29468 0.0
C691 C 0.50202 0.61771 0.28248 0.0
C692 C 0.50954 0.65501 0.28981 0.0
C693 C 0.49611 0.63476 0.28231 0.0
C694 C 0.53452 0.64136 0.29856 0.0
C695 C 0.52932 0.65885 0.29764 0.0
C696 C 0.5211 0.62104 0.29098 0.0
C697 C 0.45097 0.5331 0.23237 0.0
C698 C 0.48061 0.54038 0.21413 0.0
C699 C 0.4403 0.52042 0.20716 0.0
C700 C 0.43411 0.52252 0.22148 0.0
C701 C 0.46357 0.52888 0.20336 0.0
C702 C 0.47436 0.54241 0.22855 0.0
C703 C 0.44325 0.53267 0.24766 0.0
O704 O 0.44513 0.53943 0.29278 0.0
O705 O 0.42471 0.55426 0.28474 0.0
O706 O 0.43488 0.54599 0.25062 0.0
O707 O 0.45614 0.53179 0.25828 0.0
H708 H 0.38159 0.52966 0.28893 0.0
H709 H 0.34658 0.49673 0.29788 0.0
H710 H 0.38798 0.47371 0.32038 0.0
H711 H 0.42294 0.50642 0.31125 0.0
H712 H 0.50498 0.66811 0.289 0.0
H713 H 0.48167 0.63294 0.27585 0.0
H714 H 0.54976 0.64389 0.3044 0.0
H715 H 0.5263 0.60838 0.29124 0.0
H716 H 0.49868 0.54702 0.21155 0.0
H717 H 0.42678 0.51181 0.19908 0.0
H718 H 0.41599 0.5153 0.22414 0.0
H719 H 0.48772 0.55072 0.23676 0.0
Gd720 Gd 0.52505 0.02534 0.04199 0.0
Gd721 Gd 0.51267 1.00134 1.00476 0.0
C722 C 0.44512 0.93562 0.99719 0.0
C723 C 0.45866 0.90931 0.99202 0.0
C724 C 0.48611 0.94881 0.99674 0.0
C725 C 0.46819 0.9531 0.99873 0.0
C726 C 0.4816 0.92699 0.99302 0.0
C727 C 0.44044 0.91362 0.99412 0.0
C728 C 0.42749 0.94088 0.9985 0.0
C729 C 0.43313 0.96324 1.00078 0.0
N730 N 0.47335 0.97455 1.00166 0.0
C731 C 0.4563 0.98001 1.00212 0.0
H732 H 0.46037 0.99717 1.00397 0.0
C733 C 0.52628 0.96353 0.994 0.0
N734 N 0.50802 0.96627 0.99772 0.0
C735 C 0.52271 0.94217 0.99034 0.0
C736 C 0.50028 0.92375 0.99005 0.0
H737 H 0.54364 0.97775 0.99436 0.0
H738 H 0.42283 0.89992 0.99303 0.0
H739 H 0.58074 0.03467 0.04151 0.0
H740 H 0.40953 0.92793 0.99746 0.0
H741 H 0.41965 0.96755 1.00157 0.0
H742 H 0.45482 0.89237 0.98932 0.0
H743 H 0.49104 0.04314 0.05691 0.0
H744 H 0.62592 0.10484 0.04849 0.0
H745 H 0.61974 0.06679 0.04338 0.0
H746 H 0.57522 0.1325 0.06118 0.0
H747 H 0.53724 0.93993 0.98781 0.0
H748 H 0.49756 0.90723 0.98719 0.0
H749 H 0.60916 0.12923 0.05491 0.0
H750 H 0.4946 0.07872 0.06592 0.0
N751 N 0.56397 0.05399 0.04488 0.0
C752 C 0.60849 0.0907 0.04765 0.0
C753 C 0.60507 0.06924 0.04481 0.0
C754 C 0.58942 0.09352 0.04997 0.0
C755 C 0.56706 0.07459 0.04863 0.0
C756 C 0.58264 0.05092 0.04375 0.0
N757 N 0.52661 0.05792 0.05139 0.0
C758 C 0.54787 0.07657 0.05204 0.0
C759 C 0.50968 0.07839 0.06194 0.0
C760 C 0.53116 0.0981 0.06176 0.0
C761 C 0.50772 0.05826 0.05683 0.0
C762 C 0.55065 0.09731 0.05701 0.0
H763 H 0.53261 0.1137 0.0657 0.0
O764 O 0.51241 0.99583 0.05626 0.0
O765 O 0.50028 0.99767 0.02777 0.0
O766 O 0.50037 0.02697 1.00701 0.0
O767 O 0.51467 0.04682 0.02905 0.0
O768 O 0.48637 0.01111 0.04181 0.0
O769 O 0.52971 0.02883 0.06579 0.0
O770 O 0.53177 0.00941 0.98419 0.0
O771 O 0.53685 0.0302 0.01866 0.0
O772 O 0.54352 1.00606 0.03723 0.0
O773 O 0.52042 0.97938 0.01985 0.0
O774 O 0.55155 0.01842 1.00381 0.0
O775 O 0.50137 0.01284 0.9859 0.0
C776 C 0.4814 0.99518 0.03246 0.0
C777 C 0.57279 0.11637 0.05758 0.0
C778 C 0.59212 0.11449 0.05402 0.0
C779 C 0.51828 0.0073 0.06839 0.0
C780 C 0.50051 0.9995 0.08004 0.0
C781 C 0.47975 0.99943 0.07765 0.0
C782 C 0.50415 0.99186 0.09367 0.0
C783 C 0.48705 0.98407 0.10476 0.0
C784 C 0.46283 0.99178 0.0885 0.0
C785 C 0.4664 0.9842 0.10194 0.0
C786 C 0.50462 0.04385 1.01606 0.0
C787 C 0.55589 0.03393 1.01336 0.0
C788 C 0.51772 0.01434 0.97733 0.0
C789 C 0.5109 1.00549 0.9623 0.0
C790 C 0.49641 0.98237 0.95988 0.0
C791 C 0.51879 0.02043 0.95023 0.0
C792 C 0.51211 0.0124 0.93572 0.0
C793 C 0.48979 0.97424 0.94561 0.0
C794 C 0.49746 0.98906 0.93364 0.0
C795 C 0.53538 0.98613 0.03088 0.0
H796 H 0.4765 1.00534 0.06745 0.0
H797 H 0.52011 0.99177 0.09554 0.0
H798 H 0.44691 0.99188 0.08652 0.0
H799 H 0.45309 0.97883 0.11025 0.0
H800 H 0.49013 0.97066 0.969 0.0
H801 H 0.53022 0.03826 0.95219 0.0
H802 H 0.47846 0.95637 0.94382 0.0
H803 H 0.49147 0.9822 0.92277 0.0
Gd804 Gd 1.00641 0.51126 0.04054 0.0
Gd805 Gd 0.02781 0.51687 1.00297 0.0
C806 C 0.08691 0.50181 0.99959 0.0
C807 C 0.11887 0.538 0.99187 0.0
C808 C 0.08078 0.53344 0.99568 0.0
C809 C 0.07238 0.51126 0.99976 0.0
C810 C 0.10389 0.54681 0.9911 0.0
C811 C 0.11037 0.5155 0.9961 0.0
C812 C 0.07718 0.47868 1.00225 0.0
C813 C 0.05338 0.46545 1.00434 0.0
N814 N 0.04954 0.49844 1.00271 0.0
C815 C 0.03971 0.47565 1.00442 0.0
H816 H 0.02139 0.4653 1.00609 0.0
C817 C 0.07183 0.56101 0.98762 0.0
N818 N 0.0657 0.54117 0.99473 0.0
C819 C 0.09461 0.57502 0.98301 0.0
C820 C 0.11087 0.56811 0.98508 0.0
H821 H 0.05926 0.56638 0.98606 0.0
H822 H 0.12186 0.50862 0.99606 0.0
H823 H 0.02089 0.56584 0.05027 0.0
H824 H 0.08774 0.47076 1.00222 0.0
H825 H 0.04558 0.44744 1.00602 0.0
H826 H 0.13678 0.54811 0.9886 0.0
H827 H 0.96109 0.45834 0.04692 0.0
H828 H 0.96195 0.57296 0.04335 0.0
H829 H 1.00339 0.58959 0.04906 0.0
H830 H 0.9006 0.49698 0.0381 0.0
H831 H 0.0996 0.59109 0.97787 0.0
H832 H 0.12846 0.57889 0.98139 0.0
H833 H 0.92373 0.53834 0.03911 0.0
H834 H 0.91901 0.43835 0.04498 0.0
N835 N 0.99061 0.53569 0.04321 0.0
C836 C 0.96972 0.56234 0.04346 0.0
C837 C 0.99311 0.57178 0.0466 0.0
C838 C 0.95637 0.53908 0.04139 0.0
C839 C 0.96738 0.52599 0.04158 0.0
C840 C 1.00315 0.55811 0.04685 0.0
N841 N 0.96541 0.49073 0.04177 0.0
C842 C 0.95439 0.5028 0.04083 0.0
C843 C 0.92872 0.45646 0.04347 0.0
C844 C 0.91729 0.46849 0.04099 0.0
C845 C 0.9528 0.46794 0.04422 0.0
C846 C 0.93006 0.492 0.04009 0.0
H847 H 0.89861 0.45958 0.04049 0.0
O848 O 1.00044 0.48758 0.05833 0.0
O849 O 0.02867 0.50412 0.02551 0.0
O850 O 0.99531 0.48333 1.00574 0.0
O851 O 0.99263 0.4761 0.03078 0.0
O852 O 0.04328 0.52092 0.04488 0.0
O853 O 0.01501 0.52316 0.06297 0.0
O854 O 0.01979 0.5266 0.98192 0.0
O855 O 1.00003 0.51555 1.01709 0.0
O856 O 0.03492 0.54735 0.03683 0.0
O857 O 0.05287 0.5496 1.01436 0.0
O858 O 0.01533 0.54202 1.00238 0.0
O859 O 0.01567 0.49349 0.98462 0.0
C860 C 0.04669 0.51201 0.03343 0.0
C861 C 0.9192 0.50498 0.03898 0.0
C862 C 0.93236 0.52851 0.03957 0.0
C863 C 1.00836 0.50323 0.06836 0.0
C864 C 0.997 0.49814 0.08281 0.0
C865 C 0.97296 0.48565 0.08431 0.0
C866 C 1.01093 0.50625 0.09541 0.0
C867 C 1.00108 0.50197 0.10955 0.0
C868 C 0.96301 0.48117 0.0983 0.0
C869 C 0.97691 0.48921 0.11085 0.0
C870 C 0.98634 0.46952 1.01703 0.0
C871 C 0.99874 0.53198 1.01175 0.0
C872 C 0.01452 0.50763 0.97558 0.0
C873 C 0.02379 0.50896 0.96074 0.0
C874 C 0.04716 0.51595 0.95857 0.0
C875 C 1.00887 0.50273 0.9486 0.0
C876 C 0.01716 0.50346 0.93425 0.0
C877 C 0.05557 0.5169 0.9444 0.0
C878 C 0.04073 0.51071 0.93232 0.0
C879 C 0.05139 0.55842 0.02699 0.0
H880 H 0.96194 0.47942 0.07473 0.0
H881 H 0.02953 0.51575 0.09417 0.0
H882 H 0.94443 0.47153 0.09943 0.0
H883 H 0.96871 0.48578 0.12153 0.0
H884 H 0.05883 0.5205 0.96778 0.0
H885 H 0.99083 0.49744 0.95035 0.0
H886 H 0.07362 0.52226 0.94279 0.0
H887 H 0.04766 0.51117 0.92149 0.0
Gd888 Gd 0.50773 0.51595 1.00475 0.0
Gd889 Gd 0.52077 0.49558 0.03888 0.0
C890 C 0.58819 0.49412 0.04257 0.0
C891 C 0.57416 0.45394 0.04474 0.0
C892 C 0.54702 0.46777 0.04305 0.0
C893 C 0.5652 0.48979 0.04203 0.0
C894 C 0.55136 0.44971 0.04483 0.0
C895 C 0.59252 0.47609 0.04359 0.0
C896 C 0.60621 0.51647 0.04234 0.0
C897 C 0.60116 0.5339 0.04209 0.0
N898 N 0.5605 0.50698 0.04102 0.0
C899 C 0.57819 0.52888 0.04161 0.0
H900 H 0.57518 0.54287 0.04123 0.0
C901 C 0.50691 0.4431 0.04615 0.0
N902 N 0.52511 0.46406 0.04309 0.0
C903 C 0.51039 0.42473 0.04802 0.0
C904 C 0.53267 0.42797 0.04708 0.0
H905 H 0.4896 0.44042 0.04681 0.0
H906 H 0.61005 0.47914 0.04384 0.0
H907 H 0.45377 0.47351 0.99934 0.0
H908 H 0.62405 0.52046 0.04266 0.0
H909 H 0.61499 0.55128 0.04214 0.0
H910 H 0.5778 0.44025 0.04591 0.0
H911 H 0.54358 0.57106 0.9991 0.0
H912 H 0.40834 0.50062 0.99821 0.0
H913 H 0.41443 0.46782 0.99739 0.0
H914 H 0.46037 0.58048 0.99783 0.0
H915 H 0.49587 0.40809 0.0501 0.0
H916 H 0.53531 0.41368 0.04849 0.0
H917 H 0.42567 0.54279 0.99857 0.0
H918 H 0.54152 0.6059 0.99609 0.0
N919 N 0.46976 0.50906 1.00194 0.0
C920 C 0.42565 0.50321 0.99913 0.0
C921 C 0.42902 0.48466 0.99862 0.0
C922 C 0.44477 0.52494 1.00015 0.0
C923 C 0.46691 0.52733 1.00141 0.0
C924 C 0.45138 0.48797 0.99976 0.0
N925 N 0.50727 0.54984 1.00134 0.0
C926 C 0.48633 0.54844 1.00099 0.0
C927 C 0.52586 0.58985 0.99751 0.0
C928 C 0.50445 0.58877 0.99771 0.0
C929 C 0.52696 0.57008 0.99919 0.0
C930 C 0.48431 0.56787 0.99934 0.0
H931 H 0.50363 0.60409 0.99633 0.0
O932 O 0.52814 0.52761 0.98478 0.0
O933 O 0.53197 0.50766 1.01617 0.0
O934 O 0.53753 0.53367 0.0382 0.0
O935 O 0.51406 0.541 0.02291 0.0
O936 O 0.54681 0.53673 1.0039 0.0
O937 O 0.49435 0.49762 0.98426 0.0
O938 O 0.52115 0.48708 0.0619 0.0
O939 O 0.49488 0.50078 0.02692 0.0
O940 O 0.49243 0.47791 1.0038 0.0
O941 O 0.51085 0.46812 0.02183 0.0
O942 O 0.48245 0.47109 0.03881 0.0
O943 O 0.50882 0.50963 0.05594 0.0
C944 C 0.55108 0.52349 1.01169 0.0
C945 C 0.4623 0.56572 0.99891 0.0
C946 C 0.44254 0.54427 0.99935 0.0
C947 C 0.51262 0.51139 0.97675 0.0
C948 C 0.50913 0.5175 0.96186 0.0
C949 C 0.49933 0.53118 0.95956 0.0
C950 C 0.51671 0.51016 0.94977 0.0
C951 C 0.51508 0.51677 0.93532 0.0
C952 C 0.49732 0.5376 0.9453 0.0
C953 C 0.50522 0.53061 0.93328 0.0
C954 C 0.52917 0.54668 0.03376 0.0
C955 C 0.47666 0.48297 0.0307 0.0
C956 C 0.51358 0.50008 0.06666 0.0
C957 C 0.52563 0.51438 0.07941 0.0
C958 C 0.54929 0.52996 0.07882 0.0
C959 C 0.51331 0.51208 0.09242 0.0
C960 C 0.52461 0.5248 0.10507 0.0
C961 C 0.5606 0.5429 0.09114 0.0
C962 C 0.54847 0.54027 0.10419 0.0
C963 C 0.49836 0.46375 1.00968 0.0
H964 H 0.49348 0.53702 0.96877 0.0
H965 H 0.52393 0.4993 0.95173 0.0
H966 H 0.4899 0.54832 0.94356 0.0
H967 H 0.50402 0.53649 0.92243 0.0
H968 H 0.55903 0.53195 0.0689 0.0
H969 H 0.49491 0.50032 0.0926 0.0
H970 H 0.57893 0.55481 0.09065 0.0
H971 H 0.558 0.55004 0.11366 0.0
Gd972 Gd 0.18507 0.34776 0.37218 0.0
Gd973 Gd 0.17054 0.33086 0.33365 0.0
C974 C 0.09194 0.29569 0.32681 0.0
C975 C 0.0799 0.25678 0.33282 0.0
C976 C 0.12065 0.28539 0.33298 0.0
C977 C 0.11515 0.30169 0.32937 0.0
C978 C 0.10311 0.26258 0.33428 0.0
C979 C 0.07432 0.27333 0.32906 0.0
C980 C 0.08722 0.31205 0.3213 0.0
C981 C 0.10549 0.33319 0.31745 0.0
N982 N 0.13267 0.32301 0.32706 0.0
C983 C 0.12817 0.33811 0.31993 0.0
H984 H 0.14208 0.35421 0.31625 0.0
C985 C 0.14946 0.27541 0.33546 0.0
N986 N 0.14325 0.29164 0.33444 0.0
C987 C 0.13277 0.25262 0.33686 0.0
C988 C 0.10945 0.2462 0.33659 0.0
H989 H 0.1672 0.27959 0.33488 0.0
H990 H 0.0564 0.26851 0.32736 0.0
H991 H 0.23145 0.34136 0.36909 0.0
H992 H 0.06965 0.30814 0.31921 0.0
H993 H 0.10216 0.34561 0.31238 0.0
H994 H 0.0662 0.23945 0.33408 0.0
H995 H 0.16603 0.37766 0.39045 0.0
H996 H 0.29216 0.40579 0.3741 0.0
H997 H 0.27379 0.36477 0.3695 0.0
H998 H 0.26216 0.45333 0.38883 0.0
H999 H 0.13793 0.24001 0.33798 0.0
H1000 H 0.09654 0.22854 0.33765 0.0
H1001 H 0.28761 0.43893 0.38098 0.0
H1002 H 0.181 0.4168 0.39919 0.0
N1003 N 0.22567 0.36877 0.373 0.0
C1004 C 0.27352 0.39555 0.37391 0.0
C1005 C 0.26321 0.37241 0.37136 0.0
C1006 C 0.25961 0.40502 0.37683 0.0
C1007 C 0.23543 0.39094 0.37644 0.0
C1008 C 0.23913 0.35917 0.37106 0.0
N1009 N 0.19821 0.38429 0.38157 0.0
C1010 C 0.22118 0.39902 0.38079 0.0
C1011 C 0.19247 0.41211 0.39389 0.0
C1012 C 0.21578 0.42803 0.39201 0.0
C1013 C 0.18406 0.39002 0.38896 0.0
C1014 C 0.23061 0.4214 0.38581 0.0
H1015 H 0.22233 0.44507 0.39599 0.0
O1016 O 0.166 0.33794 0.39286 0.0
O1017 O 0.15946 0.32194 0.35688 0.0
O1018 O 0.16247 0.35871 0.33861 0.0
O1019 O 0.17585 0.37255 0.36224 0.0
O1020 O 0.14691 0.33538 0.37216 0.0
O1021 O 0.19575 0.33404 0.39019 0.0
O1022 O 0.18642 0.31869 0.31792 0.0
O1023 O 0.19919 0.35116 0.34943 0.0
O1024 O 0.18793 0.31691 0.3678 0.0
O1025 O 0.19257 0.31664 0.34249 0.0
O1026 O 0.1975 0.36724 0.33059 0.0
O1027 O 0.17293 0.34013 0.31037 0.0
C1028 C 0.14111 0.32007 0.36219 0.0
C1029 C 0.25459 0.43598 0.38523 0.0
C1030 C 0.26909 0.42778 0.38078 0.0
C1031 C 0.17977 0.3322 0.39914 0.0
C1032 C 0.18701 0.34015 0.41432 0.0
C1033 C 0.20477 0.36223 0.41701 0.0
C1034 C 0.17616 0.32543 0.42626 0.0
C1035 C 0.18289 0.33271 0.44089 0.0
C1036 C 0.21151 0.3696 0.4314 0.0
C1037 C 0.20069 0.35505 0.44324 0.0
C1038 C 0.16637 0.37291 0.34955 0.0
C1039 C 0.20943 0.3695 0.34224 0.0
C1040 C 0.18333 0.32906 0.30691 0.0
C1041 C 0.19066 0.32787 0.29169 0.0
C1042 C 0.19744 0.31199 0.28837 0.0
C1043 C 0.19116 0.34245 0.28044 0.0
C1044 C 0.1983 0.34108 0.26599 0.0
C1045 C 0.20431 0.31042 0.27418 0.0
C1046 C 0.20465 0.32468 0.26309 0.0
C1047 C 0.19351 0.30963 0.35595 0.0
H1048 H 0.21345 0.37374 0.40801 0.0
H1049 H 0.16268 0.30827 0.42409 0.0
H1050 H 0.22515 0.38673 0.43339 0.0
H1051 H 0.20605 0.3615 0.45426 0.0
H1052 H 0.19727 0.30062 0.29674 0.0
H1053 H 0.18635 0.355 0.28301 0.0
H1054 H 0.20926 0.29794 0.27173 0.0
H1055 H 0.20955 0.32252 0.25214 0.0
Gd1056 Gd 0.66877 0.83477 0.37049 0.0
Gd1057 Gd 0.69542 0.84662 0.33347 0.0
C1058 C 0.75739 0.8352 0.33264 0.0
C1059 C 0.78965 0.87347 0.33137 0.0
C1060 C 0.75019 0.86651 0.33104 0.0
C1061 C 0.74185 0.84355 0.33219 0.0
C1062 C 0.77419 0.88162 0.33 0.0
C1063 C 0.78126 0.8503 0.33272 0.0
C1064 C 0.74854 0.8119 0.33262 0.0
C1065 C 0.72481 0.79753 0.33157 0.0
N1066 N 0.71864 0.82932 0.33217 0.0
C1067 C 0.71008 0.80651 0.33113 0.0
H1068 H 0.69194 0.79478 0.33 0.0
C1069 C 0.74238 0.89562 0.32511 0.0
N1070 N 0.73486 0.87392 0.32971 0.0
C1071 C 0.76593 0.91123 0.32409 0.0
C1072 C 0.78195 0.90433 0.32692 0.0
H1073 H 0.73018 0.90118 0.32266 0.0
H1074 H 0.79338 0.84417 0.33333 0.0
H1075 H 0.66731 0.88265 0.37386 0.0
H1076 H 0.7599 0.80487 0.33295 0.0
H1077 H 0.71781 0.77946 0.3311 0.0
H1078 H 0.80811 0.88488 0.33087 0.0
H1079 H 0.64158 0.78007 0.37973 0.0
H1080 H 0.5968 0.86623 0.37775 0.0
H1081 H 0.63835 0.89474 0.37657 0.0
H1082 H 0.55603 0.78552 0.38135 0.0
H1083 H 0.77169 0.92854 0.32105 0.0
H1084 H 0.80022 0.91641 0.32603 0.0
H1085 H 0.56606 0.82528 0.37915 0.0
H1086 H 0.60165 0.74921 0.38439 0.0
N1087 N 0.64243 0.8477 0.37347 0.0
C1088 C 0.60946 0.86083 0.37668 0.0
C1089 C 0.63289 0.87697 0.37607 0.0
C1090 C 0.60271 0.8379 0.37648 0.0
C1091 C 0.61989 0.83182 0.37505 0.0
C1092 C 0.64927 0.87006 0.37456 0.0
N1093 N 0.63157 0.80467 0.37587 0.0
C1094 C 0.61425 0.80954 0.37632 0.0
C1095 C 0.60494 0.76608 0.38204 0.0
C1096 C 0.5867 0.77053 0.38156 0.0
C1097 C 0.62748 0.78354 0.37946 0.0
C1098 C 0.59129 0.79258 0.37898 0.0
H1099 H 0.56927 0.757 0.38363 0.0
O1100 O 0.67682 0.82295 0.39066 0.0
O1101 O 0.69818 0.83885 0.35688 0.0
O1102 O 0.66941 0.80966 0.3364 0.0
O1103 O 0.64427 0.8075 0.35486 0.0
O1104 O 0.68354 0.81138 0.37071 0.0
O1105 O 0.67824 0.85518 0.39028 0.0
O1106 O 0.69556 0.86484 0.31386 0.0
O1107 O 0.67184 0.85133 0.34886 0.0
O1108 O 0.69727 0.8715 0.36954 0.0
O1109 O 0.71023 0.88022 0.34523 0.0
O1110 O 0.66117 0.84322 0.32745 0.0
O1111 O 0.68696 0.82969 0.31239 0.0
C1112 C 0.70045 0.82281 0.36181 0.0
C1113 C 0.57385 0.79834 0.37951 0.0
C1114 C 0.57956 0.82098 0.37825 0.0
C1115 C 0.68018 0.84042 0.39827 0.0
C1116 C 0.66968 0.836 0.41296 0.0
C1117 C 0.64565 0.82448 0.41467 0.0
C1118 C 0.68396 0.84366 0.42544 0.0
C1119 C 0.67436 0.83988 0.43967 0.0
C1120 C 0.63598 0.8206 0.4287 0.0
C1121 C 0.65016 0.82823 0.44112 0.0
C1122 C 0.64916 0.79946 0.34306 0.0
C1123 C 0.65564 0.84739 0.34002 0.0
C1124 C 0.6897 0.8475 0.30531 0.0
C1125 C 0.70054 0.8517 0.29075 0.0
C1126 C 0.72455 0.86293 0.28904 0.0
C1127 C 0.68624 0.84397 0.27831 0.0
C1128 C 0.69571 0.84734 0.26409 0.0
C1129 C 0.73414 0.86657 0.27497 0.0
C1130 C 0.71988 0.85886 0.26257 0.0
C1131 C 0.71052 0.88581 0.3592 0.0
H1132 H 0.63441 0.81858 0.4052 0.0
H1133 H 0.70253 0.85239 0.42404 0.0
H1134 H 0.61741 0.81177 0.42997 0.0
H1135 H 0.64214 0.82533 0.45184 0.0
H1136 H 0.73582 0.8688 0.29852 0.0
H1137 H 0.66767 0.83545 0.27974 0.0
H1138 H 0.7527 0.87525 0.27367 0.0
H1139 H 0.72778 0.86155 0.25182 0.0
Gd1140 Gd 0.17397 0.8518 0.33677 0.0
Gd1141 Gd 0.18802 0.83266 0.37159 0.0
C1142 C 0.25043 0.82302 0.37743 0.0
C1143 C 0.23254 0.7822 0.37872 0.0
C1144 C 0.20887 0.79982 0.37625 0.0
C1145 C 0.22841 0.82083 0.37588 0.0
C1146 C 0.21063 0.78025 0.37797 0.0
C1147 C 0.25242 0.80357 0.37847 0.0
C1148 C 0.26967 0.84468 0.3784 0.0
C1149 C 0.26654 0.86338 0.37846 0.0
N1150 N 0.22579 0.83921 0.37499 0.0
C1151 C 0.24431 0.86027 0.37699 0.0
H1152 H 0.24213 0.87485 0.37703 0.0
C1153 C 0.16818 0.77845 0.37761 0.0
N1154 N 0.18804 0.79862 0.37563 0.0
C1155 C 0.16902 0.75853 0.37924 0.0
C1156 C 0.19033 0.7594 0.37927 0.0
H1157 H 0.15163 0.77761 0.37747 0.0
H1158 H 0.2692 0.80489 0.37947 0.0
H1159 H 0.11959 0.80829 0.33517 0.0
H1160 H 0.2869 0.84711 0.37955 0.0
H1161 H 0.28123 0.88019 0.37957 0.0
H1162 H 0.23428 0.76735 0.37988 0.0
H1163 H 0.20892 0.90667 0.32962 0.0
H1164 H 0.07361 0.83434 0.33087 0.0
H1165 H 0.08011 0.80191 0.33326 0.0
H1166 H 0.12469 0.91408 0.32625 0.0
H1167 H 0.15323 0.74253 0.38045 0.0
H1168 H 0.19094 0.74396 0.3806 0.0
H1169 H 0.09041 0.87627 0.32835 0.0
H1170 H 0.20613 0.94088 0.3255 0.0
N1171 N 0.13561 0.84407 0.33418 0.0
C1172 C 0.09106 0.83726 0.33167 0.0
C1173 C 0.09466 0.81892 0.33298 0.0
C1174 C 0.11005 0.85912 0.3311 0.0
C1175 C 0.13239 0.86197 0.33229 0.0
C1176 C 0.11717 0.82264 0.33403 0.0
N1177 N 0.17266 0.88497 0.33184 0.0
C1178 C 0.15156 0.88314 0.33112 0.0
C1179 C 0.19063 0.92475 0.32709 0.0
C1180 C 0.16903 0.92324 0.32688 0.0
C1181 C 0.19213 0.9053 0.32939 0.0
C1182 C 0.14912 0.90222 0.32872 0.0
H1183 H 0.1679 0.93833 0.32507 0.0
O1184 O 0.19343 0.86129 0.31636 0.0
O1185 O 0.19911 0.84545 0.34888 0.0
O1186 O 0.20453 0.87094 0.37013 0.0
O1187 O 0.18193 0.87847 0.35397 0.0
O1188 O 0.21264 0.87319 0.33501 0.0
O1189 O 0.16039 0.83051 0.31744 0.0
O1190 O 0.16808 0.82225 0.39182 0.0
O1191 O 0.16368 0.84024 0.35972 0.0
O1192 O 0.15786 0.81371 0.33868 0.0
O1193 O 0.18183 0.80703 0.35391 0.0
O1194 O 0.14899 0.81223 0.37299 0.0
O1195 O 0.20119 0.85303 0.39136 0.0
C1196 C 0.21769 0.86165 0.34391 0.0
C1197 C 0.12693 0.89962 0.32798 0.0
C1198 C 0.10742 0.8781 0.32917 0.0
C1199 C 0.17785 0.8439 0.30916 0.0
C1200 C 0.17258 0.84828 0.29423 0.0
C1201 C 0.1605 0.85987 0.29199 0.0
C1202 C 0.18017 0.84109 0.28205 0.0
C1203 C 0.17574 0.84541 0.26758 0.0
C1204 C 0.15602 0.86422 0.27773 0.0
C1205 C 0.16353 0.85708 0.26561 0.0
C1206 C 0.19706 0.8843 0.36485 0.0
C1207 C 0.14462 0.82485 0.36462 0.0
C1208 C 0.18343 0.83938 0.39934 0.0
C1209 C 0.18802 0.83455 0.41434 0.0
C1210 C 0.20059 0.82348 0.41673 0.0
C1211 C 0.17922 0.8407 0.42643 0.0
C1212 C 0.18279 0.83575 0.44096 0.0
C1213 C 0.20428 0.81855 0.43103 0.0
C1214 C 0.19544 0.82454 0.44305 0.0
C1215 C 0.16627 0.80083 0.3433 0.0
H1216 H 0.1546 0.86556 0.30125 0.0
H1217 H 0.1898 0.83242 0.28387 0.0
H1218 H 0.14661 0.87313 0.27605 0.0
H1219 H 0.15947 0.86041 0.2547 0.0
H1220 H 0.2074 0.81857 0.40755 0.0
H1221 H 0.16973 0.84948 0.42448 0.0
H1222 H 0.21388 0.80987 0.43283 0.0
H1223 H 0.19821 0.82001 0.45396 0.0
Gd1224 Gd 0.85718 0.68781 0.70891 0.0
Gd1225 Gd 0.83833 0.66411 0.67201 0.0
C1226 C 0.768 0.60017 0.66798 0.0
C1227 C 0.77856 0.57187 0.66208 0.0
C1228 C 0.80827 0.61101 0.66561 0.0
C1229 C 0.79159 0.61668 0.66858 0.0
C1230 C 0.80196 0.58864 0.66195 0.0
C1231 C 0.76159 0.57765 0.66503 0.0
C1232 C 0.75157 0.60695 0.66983 0.0
C1233 C 0.75886 0.62979 0.67165 0.0
N1234 N 0.7984 0.63865 0.67108 0.0
C1235 C 0.78248 0.64553 0.67211 0.0
H1236 H 0.78786 0.6631 0.67365 0.0
C1237 C 0.84732 0.62367 0.65989 0.0
N1238 N 0.83062 0.62774 0.66524 0.0
C1239 C 0.84201 0.60169 0.65639 0.0
C1240 C 0.81927 0.58402 0.65766 0.0
H1241 H 0.86491 0.63733 0.65888 0.0
H1242 H 0.74357 0.5647 0.66461 0.0
H1243 H 0.85863 0.6515 0.73285 0.0
H1244 H 0.73328 0.59479 0.6695 0.0
H1245 H 0.74632 0.63529 0.6728 0.0
H1246 H 0.77336 0.55455 0.65942 0.0
H1247 H 0.88467 0.74181 0.69684 0.0
H1248 H 0.92831 0.67747 0.74736 0.0
H1249 H 0.88724 0.64755 0.74791 0.0
H1250 H 0.96826 0.75065 0.72496 0.0
H1251 H 0.85541 0.59842 0.65266 0.0
H1252 H 0.81515 0.56705 0.65481 0.0
H1253 H 0.9585 0.71593 0.73864 0.0
H1254 H 0.92349 0.77475 0.69711 0.0
N1255 N 0.88352 0.68268 0.72331 0.0
C1256 C 0.91585 0.6792 0.74068 0.0
C1257 C 0.89269 0.66228 0.74103 0.0
C1258 C 0.9225 0.69856 0.73217 0.0
C1259 C 0.90561 0.69996 0.72367 0.0
C1260 C 0.87656 0.66455 0.7325 0.0
N1261 N 0.89392 0.72063 0.70877 0.0
C1262 C 0.91098 0.71954 0.71615 0.0
C1263 C 0.92027 0.75931 0.70247 0.0
C1264 C 0.93816 0.75815 0.70954 0.0
C1265 C 0.89813 0.7404 0.70232 0.0
C1266 C 0.93359 0.73822 0.71669 0.0
H1267 H 0.9553 0.77283 0.70963 0.0
O1268 O 0.85694 0.71286 0.72352 0.0
O1269 O 0.82656 0.6663 0.69455 0.0
O1270 O 0.82872 0.69126 0.67508 0.0
O1271 O 0.84727 0.71054 0.69652 0.0
O1272 O 0.82938 0.65251 0.71426 0.0
O1273 O 0.83579 0.67761 0.72863 0.0
O1274 O 0.85802 0.67617 0.65168 0.0
O1275 O 0.86566 0.69251 0.6851 0.0
O1276 O 0.87214 0.66563 0.70346 0.0
O1277 O 0.84653 0.64095 0.68584 0.0
O1278 O 0.87638 0.67712 0.66977 0.0
O1279 O 0.82366 0.67106 0.65265 0.0
C1280 C 0.81666 0.64917 0.70289 0.0
C1281 C 0.95077 0.73656 0.72454 0.0
C1282 C 0.94522 0.71677 0.7323 0.0
C1283 C 0.84489 0.69804 0.7336 0.0
C1284 C 0.85476 0.70175 0.7487 0.0
C1285 C 0.87657 0.72044 0.75167 0.0
C1286 C 0.84289 0.6861 0.76013 0.0
C1287 C 0.85258 0.68916 0.77439 0.0
C1288 C 0.8862 0.72363 0.76565 0.0
C1289 C 0.87435 0.70831 0.77692 0.0
C1290 C 0.83556 0.70832 0.6843 0.0
C1291 C 0.88317 0.6929 0.67942 0.0
C1292 C 0.84155 0.67657 0.64439 0.0
C1293 C 0.83721 0.667 0.62944 0.0
C1294 C 0.82444 0.64361 0.62734 0.0
C1295 C 0.84625 0.68139 0.61714 0.0
C1296 C 0.84257 0.6725 0.60275 0.0
C1297 C 0.82083 0.63466 0.61319 0.0
C1298 C 0.82982 0.6489 0.60101 0.0
C1299 C 0.86279 0.6465 0.69601 0.0
H1300 H 0.88634 0.73262 0.74317 0.0
H1301 H 0.82631 0.6714 0.75779 0.0
H1302 H 0.90295 0.73818 0.76781 0.0
H1303 H 0.88221 0.71179 0.7877 0.0
H1304 H 0.81731 0.63228 0.63662 0.0
H1305 H 0.8559 0.69948 0.61882 0.0
H1306 H 0.81108 0.61657 0.61166 0.0
H1307 H 0.82703 0.64134 0.59021 0.0
Gd1308 Gd 0.33499 0.16916 0.70102 0.0
Gd1309 Gd 0.36727 0.1806 0.66626 0.0
C1310 C 0.43261 0.17592 0.66027 0.0
C1311 C 0.46176 0.2151 0.65615 0.0
C1312 C 0.42163 0.20469 0.65982 0.0
C1313 C 0.4157 0.18241 0.66158 0.0
C1314 C 0.44467 0.22128 0.65684 0.0
C1315 C 0.45573 0.19244 0.65784 0.0
C1316 C 0.42565 0.15298 0.66101 0.0
C1317 C 0.40226 0.13714 0.66242 0.0
N1318 N 0.39318 0.1669 0.66376 0.0
C1319 C 0.38614 0.14442 0.66353 0.0
H1320 H 0.36814 0.13195 0.66461 0.0
C1321 C 0.40934 0.23149 0.65746 0.0
N1322 N 0.40465 0.21001 0.66048 0.0
C1323 C 0.43193 0.24854 0.6545 0.0
C1324 C 0.44973 0.24347 0.65434 0.0
H1325 H 0.3958 0.23569 0.65763 0.0
H1326 H 0.469 0.18782 0.65695 0.0
H1327 H 0.33794 0.21943 0.70348 0.0
H1328 H 0.43811 0.1473 0.66013 0.0
H1329 H 0.39661 0.11931 0.66269 0.0
H1330 H 0.47959 0.22762 0.654 0.0
H1331 H 0.30347 0.11449 0.70958 0.0
H1332 H 0.26945 0.20871 0.70726 0.0
H1333 H 0.31158 0.23466 0.70567 0.0
H1334 H 0.22311 0.12838 0.71178 0.0
H1335 H 0.4356 0.26559 0.65239 0.0
H1336 H 0.46721 0.25671 0.65203 0.0
H1337 H 0.2365 0.16894 0.70956 0.0
H1338 H 0.26268 0.0861 0.71422 0.0
N1339 N 0.31104 0.18514 0.70319 0.0
C1340 C 0.28095 0.20192 0.70622 0.0
C1341 C 0.30471 0.2166 0.70538 0.0
C1342 C 0.27239 0.17863 0.70634 0.0
C1343 C 0.28811 0.17068 0.70486 0.0
C1344 C 0.31962 0.20787 0.70411 0.0
N1345 N 0.29661 0.14134 0.70604 0.0
C1346 C 0.28063 0.14798 0.70631 0.0
C1347 C 0.26747 0.10343 0.71195 0.0
C1348 C 0.25064 0.10982 0.7116 0.0
C1349 C 0.29055 0.11956 0.70936 0.0
C1350 C 0.25718 0.13243 0.70906 0.0
H1351 H 0.23278 0.09734 0.71371 0.0
O1352 O 0.33836 0.15623 0.72216 0.0
O1353 O 0.36425 0.16921 0.68947 0.0
O1354 O 0.33996 0.14388 0.66886 0.0
O1355 O 0.31166 0.14261 0.68434 0.0
O1356 O 0.34527 0.14254 0.70355 0.0
O1357 O 0.3482 0.19145 0.71984 0.0
O1358 O 0.35963 0.19137 0.64556 0.0
O1359 O 0.33771 0.18009 0.67788 0.0
O1360 O 0.36505 0.20585 0.69931 0.0
O1361 O 0.39147 0.20504 0.68295 0.0
O1362 O 0.35691 0.20736 0.66446 0.0
O1363 O 0.35603 0.15818 0.64743 0.0
C1364 C 0.36283 0.15152 0.6949 0.0
C1365 C 0.24123 0.14008 0.70978 0.0
C1366 C 0.24886 0.16316 0.70852 0.0
C1367 C 0.34574 0.17548 0.72879 0.0
C1368 C 0.33551 0.17479 0.74317 0.0
C1369 C 0.31305 0.17125 0.74434 0.0
C1370 C 0.34863 0.17799 0.75592 0.0
C1371 C 0.33945 0.17772 0.76989 0.0
C1372 C 0.3038 0.17096 0.75814 0.0
C1373 C 0.31687 0.17419 0.77084 0.0
C1374 C 0.31844 0.13388 0.67374 0.0
C1375 C 0.33921 0.19802 0.67297 0.0
C1376 C 0.35469 0.17273 0.63881 0.0
C1377 C 0.36384 0.17506 0.62387 0.0
C1378 C 0.38692 0.1812 0.62139 0.0
C1379 C 0.34916 0.17143 0.61188 0.0
C1380 C 0.35738 0.17416 0.59734 0.0
C1381 C 0.39521 0.18373 0.60702 0.0
C1382 C 0.38062 0.18031 0.59507 0.0
C1383 C 0.38628 0.21461 0.69379 0.0
H1384 H 0.30273 0.16877 0.73462 0.0
H1385 H 0.3661 0.18101 0.75492 0.0
H1386 H 0.28643 0.16818 0.759 0.0
H1387 H 0.30918 0.17361 0.78142 0.0
H1388 H 0.39846 0.1841 0.63052 0.0
H1389 H 0.33126 0.16639 0.61395 0.0
H1390 H 0.41307 0.18857 0.60513 0.0
H1391 H 0.38771 0.18292 0.58408 0.0
Gd1392 Gd 0.83792 0.17744 0.66887 0.0
Gd1393 Gd 0.85839 0.17374 0.70594 0.0
C1394 C 0.92985 0.18248 0.71363 0.0
C1395 C 0.92057 0.14502 0.72181 0.0
C1396 C 0.88992 0.15301 0.71581 0.0
C1397 C 0.90609 0.17491 0.71212 0.0
C1398 C 0.89694 0.13799 0.72111 0.0
C1399 C 0.937 0.16724 0.71807 0.0
C1400 C 0.94563 0.20533 0.71126 0.0
C1401 C 0.9375 0.22017 0.70826 0.0
N1402 N 0.89854 0.18928 0.70826 0.0
C1403 C 0.91374 0.21187 0.70709 0.0
H1404 H 0.90769 0.22352 0.70478 0.0
C1405 C 0.8508 0.12663 0.72077 0.0
N1406 N 0.86729 0.1469 0.7152 0.0
C1407 C 0.85689 0.11113 0.72614 0.0
C1408 C 0.88004 0.11668 0.72608 0.0
H1409 H 0.83288 0.12222 0.72072 0.0
H1410 H 0.95518 0.17267 0.71912 0.0
H1411 H 0.78949 0.12689 0.67265 0.0
H1412 H 0.96402 0.21181 0.71223 0.0
H1413 H 0.94951 0.238 0.70684 0.0
H1414 H 0.92633 0.13365 0.72568 0.0
H1415 H 0.86068 0.22836 0.65342 0.0
H1416 H 0.73128 0.13572 0.66573 0.0
H1417 H 0.74748 0.11117 0.67188 0.0
H1418 H 0.76552 0.21283 0.65017 0.0
H1419 H 0.84375 0.09489 0.73026 0.0
H1420 H 0.88473 0.10467 0.73027 0.0
H1421 H 0.73819 0.17383 0.65777 0.0
H1422 H 0.84787 0.25432 0.64414 0.0
N1423 N 0.79738 0.16038 0.66743 0.0
C1424 C 0.74982 0.14278 0.66606 0.0
C1425 C 0.7589 0.12886 0.66949 0.0
C1426 C 0.76479 0.16548 0.66266 0.0
C1427 C 0.78878 0.17384 0.66337 0.0
C1428 C 0.78283 0.1379 0.6699 0.0
N1429 N 0.82692 0.20274 0.65948 0.0
C1430 C 0.80407 0.19576 0.65927 0.0
C1431 C 0.83537 0.23794 0.64844 0.0
C1432 C 0.81198 0.23144 0.64886 0.0
C1433 C 0.84256 0.22319 0.65367 0.0
C1434 C 0.79595 0.20998 0.65411 0.0
H1435 H 0.80644 0.24287 0.64478 0.0
O1436 O 0.85596 0.18557 0.64792 0.0
O1437 O 0.86734 0.18018 0.68212 0.0
O1438 O 0.86638 0.20957 0.70059 0.0
O1439 O 0.84136 0.20707 0.68174 0.0
O1440 O 0.87497 0.20446 0.66611 0.0
O1441 O 0.82706 0.15213 0.65173 0.0
O1442 O 0.84033 0.16587 0.72688 0.0
O1443 O 0.82995 0.17206 0.69259 0.0
O1444 O 0.83039 0.14191 0.67442 0.0
O1445 O 0.85602 0.14467 0.6928 0.0
O1446 O 0.82022 0.1485 0.70893 0.0
O1447 O 0.87012 0.1989 0.72325 0.0
C1448 C 0.88365 0.19743 0.67602 0.0
C1449 C 0.77211 0.20209 0.65394 0.0
C1450 C 0.75655 0.17988 0.65825 0.0
C1451 C 0.84218 0.16587 0.64225 0.0
C1452 C 0.83362 0.16588 0.62737 0.0
C1453 C 0.81581 0.17073 0.62513 0.0
C1454 C 0.84353 0.1612 0.61523 0.0
C1455 C 0.83575 0.16141 0.60085 0.0
C1456 C 0.80805 0.17104 0.61094 0.0
C1457 C 0.8179 0.16643 0.59887 0.0
C1458 C 0.85529 0.21781 0.69292 0.0
C1459 C 0.81255 0.15642 0.69891 0.0
C1460 C 0.85456 0.18539 0.73263 0.0
C1461 C 0.86245 0.18499 0.74768 0.0
C1462 C 0.88085 0.18111 0.75022 0.0
C1463 C 0.85109 0.18808 0.7597 0.0
C1464 C 0.85787 0.18713 0.77427 0.0
C1465 C 0.88776 0.18021 0.76457 0.0
C1466 C 0.87637 0.18312 0.77651 0.0
C1467 C 0.84181 0.1338 0.68179 0.0
H1468 H 0.80787 0.17421 0.63431 0.0
H1469 H 0.85744 0.15766 0.617 0.0
H1470 H 0.79425 0.17476 0.60929 0.0
H1471 H 0.81124 0.1664 0.58801 0.0
H1472 H 0.88981 0.1787 0.74114 0.0
H1473 H 0.83705 0.19134 0.75763 0.0
H1474 H 0.90189 0.17706 0.76646 0.0
H1475 H 0.88182 0.18179 0.78749 0.0
H1476 H 0.35465 0.90895 0.06275 0.0
H1477 H 0.3713 0.8558 0.05636 0.0
H1478 H 0.40907 0.88349 0.04609 0.0
H1479 H 0.38212 0.94051 0.0299 0.0
H1480 H 0.39298 0.96774 0.03838 0.0
H1481 H 0.36696 0.94382 0.04521 0.0
H1482 H 0.38487 0.95047 0.0713 0.0
H1483 H 0.41085 0.97448 0.06454 0.0
H1484 H 0.41232 0.95189 0.07375 0.0
H1485 H 0.44533 0.91677 0.03685 0.0
H1486 H 0.47822 0.9538 0.03014 0.0
H1487 H 0.43867 0.98591 0.042 0.0
C1488 C 0.3663 0.90317 0.0593 0.0
C1489 C 0.35975 0.88003 0.06023 0.0
C1490 C 0.3756 0.87326 0.05551 0.0
C1491 C 0.39719 0.8889 0.0497 0.0
C1492 C 0.4029 0.91141 0.04869 0.0
C1493 C 0.38804 0.91862 0.05344 0.0
C1494 C 0.39873 0.94393 0.05128 0.0
C1495 C 0.38433 0.94931 0.04055 0.0
C1496 C 0.40187 0.95589 0.0661 0.0
C1497 C 0.42184 0.94972 0.04459 0.0
C1498 C 0.42384 0.93067 0.04318 0.0
C1499 C 0.44385 0.93176 0.03775 0.0
C1500 C 0.46241 0.9529 0.03382 0.0
C1501 C 0.46078 0.9727 0.03507 0.0
C1502 C 0.44018 0.97099 0.04057 0.0
H1503 H 0.16182 0.51312 0.05758 0.0
H1504 H 0.12022 0.44063 0.06363 0.0
H1505 H 0.08627 0.44165 0.05398 0.0
H1506 H 0.11873 0.52665 0.0679 0.0
H1507 H 0.1271 0.54867 0.05436 0.0
H1508 H 0.14815 0.54207 0.06151 0.0
H1509 H 0.15767 0.536 0.03502 0.0
H1510 H 0.13602 0.54161 0.02758 0.0
H1511 H 0.13514 0.51542 0.02346 0.0
H1512 H 0.05619 0.45075 0.04474 0.0
H1513 H 0.03246 0.46753 0.03709 0.0
H1514 H 0.09359 0.53367 0.03589 0.0
C1515 C 0.14566 0.49739 0.05674 0.0
C1516 C 0.14386 0.47677 0.06146 0.0
C1517 C 0.12215 0.45671 0.06036 0.0
C1518 C 0.10274 0.45707 0.05473 0.0
C1519 C 0.1052 0.47762 0.05014 0.0
C1520 C 0.1261 0.49743 0.05111 0.0
C1521 C 0.12394 0.51735 0.04577 0.0
C1522 C 0.12982 0.5347 0.05812 0.0
C1523 C 0.13909 0.52825 0.03215 0.0
C1524 C 0.0985 0.50572 0.04186 0.0
C1525 C 0.08802 0.48275 0.04438 0.0
C1526 C 0.06433 0.46863 0.04243 0.0
C1527 C 0.051 0.47825 0.03797 0.0
C1528 C 0.0614 0.50168 0.03523 0.0
C1529 C 0.08543 0.51556 0.03729 0.0
H1530 H 0.53392 0.6626 0.05694 0.0
H1531 H 0.59055 0.67403 0.08574 0.0
H1532 H 0.58736 0.63832 0.07758 0.0
H1533 H 0.50024 0.60197 0.06192 0.0
H1534 H 0.49114 0.59615 0.04301 0.0
H1535 H 0.49747 0.62263 0.05113 0.0
H1536 H 0.52739 0.64441 0.03053 0.0
H1537 H 0.52046 0.61783 0.0224 0.0
H1538 H 0.54995 0.63787 0.02698 0.0
H1539 H 0.578 0.60159 0.06706 0.0
H1540 H 0.56385 0.56587 0.05399 0.0
H1541 H 0.51348 0.57728 0.03108 0.0
C1542 C 0.54556 0.65749 0.06153 0.0
C1543 C 0.56264 0.67121 0.0719 0.0
C1544 C 0.57762 0.66401 0.07761 0.0
C1545 C 0.57585 0.64367 0.07312 0.0
C1546 C 0.55906 0.63066 0.06283 0.0
C1547 C 0.54419 0.63719 0.05702 0.0
C1548 C 0.52801 0.62 0.04589 0.0
C1549 C 0.50272 0.60957 0.05079 0.0
C1550 C 0.5317 0.63068 0.03054 0.0
C1551 C 0.53606 0.60278 0.04648 0.0
C1552 C 0.55394 0.60936 0.05639 0.0
C1553 C 0.56411 0.5963 0.05919 0.0
C1554 C 0.55589 0.57593 0.05165 0.0
C1555 C 0.53766 0.56868 0.04132 0.0
C1556 C 0.52763 0.5824 0.03873 0.0
H1557 H 0.89803 0.37022 0.96502 0.0
H1558 H 0.88486 0.32313 1.00072 0.0
H1559 H 0.91091 0.3549 1.01678 0.0
H1560 H 0.9578 0.4058 0.97205 0.0
H1561 H 0.95792 0.43143 0.9672 0.0
H1562 H 0.93723 0.40512 0.95893 0.0
H1563 H 0.90385 0.41101 0.96794 0.0
H1564 H 0.92448 0.43738 0.97621 0.0
H1565 H 0.90168 0.41585 0.98719 0.0
H1566 H 0.94061 0.39246 0.02861 0.0
H1567 H 0.96993 0.43177 0.03493 0.0
H1568 H 0.96295 0.45335 0.99127 0.0
C1569 C 0.9006 0.3665 0.9762 0.0
C1570 C 0.88936 0.34406 0.98155 0.0
C1571 C 0.89302 0.34013 0.99637 0.0
C1572 C 0.90792 0.35809 1.00557 0.0
C1573 C 0.91899 0.37994 0.99984 0.0
C1574 C 0.91536 0.38416 0.98549 0.0
C1575 C 0.92958 0.40901 0.98181 0.0
C1576 C 0.94664 0.41307 0.96926 0.0
C1577 C 0.91396 0.41889 0.97807 0.0
C1578 C 0.94203 0.41814 0.99624 0.0
C1579 C 0.93572 0.40123 1.00657 0.0
C1580 C 0.94549 0.40582 0.02061 0.0
C1581 C 0.96207 0.42823 0.02414 0.0
C1582 C 0.96869 0.44576 1.01368 0.0
C1583 C 0.95839 0.44044 0.99958 0.0
H1584 H 0.6795 0.56778 0.98283 0.0
H1585 H 0.66287 0.49787 0.9809 0.0
H1586 H 0.62453 0.48597 0.9915 0.0
H1587 H 0.64975 0.56305 0.01756 0.0
H1588 H 0.63988 0.58203 1.01178 0.0
H1589 H 0.66645 0.58524 1.00456 0.0
H1590 H 0.6511 0.58241 0.97799 0.0
H1591 H 0.62459 0.57929 0.98517 0.0
H1592 H 0.62389 0.55831 0.9729 0.0
H1593 H 0.58723 0.48141 1.0017 0.0
H1594 H 0.55372 0.48477 1.00965 0.0
H1595 H 0.59454 0.55747 1.00538 0.0
C1596 C 0.66791 0.54998 0.98477 0.0
C1597 C 0.67431 0.53379 0.98092 0.0
C1598 C 0.65836 0.51063 0.9835 0.0
C1599 C 0.63657 0.50369 0.98966 0.0
C1600 C 0.63082 0.52005 0.99328 0.0
C1601 C 0.64601 0.54273 0.9909 0.0
C1602 C 0.63524 0.55683 0.9953 0.0
C1603 C 0.64864 0.57273 1.00806 0.0
C1604 C 0.63361 0.56998 0.98205 0.0
C1605 C 0.61153 0.53854 1.00026 0.0
C1606 C 0.6094 0.51744 0.99917 0.0
C1607 C 0.58882 0.49789 1.00272 0.0
C1608 C 0.56989 0.49995 1.00732 0.0
C1609 C 0.57169 0.52141 1.00846 0.0
C1610 C 0.59282 0.54088 1.00487 0.0
H1611 H 0.46516 0.10895 0.96004 0.0
H1612 H 0.48865 0.16216 0.99268 0.0
H1613 H 0.49798 0.13958 1.00951 0.0
H1614 H 0.43999 0.06181 0.98527 0.0
H1615 H 0.44949 0.04536 0.97508 0.0
H1616 H 0.44381 0.06526 0.96564 0.0
H1617 H 0.48512 0.08498 0.95474 0.0
H1618 H 0.49087 0.06508 0.9641 0.0
H1619 H 0.50954 0.09491 0.96692 0.0
H1620 H 0.50641 0.11241 0.02236 0.0
H1621 H 0.51346 0.0823 0.0306 0.0
H1622 H 0.48429 0.04589 0.98995 0.0
C1623 C 0.47237 0.11593 0.9707 0.0
C1624 C 0.47601 0.13736 0.97504 0.0
C1625 C 0.48527 0.14568 0.98917 0.0
C1626 C 0.49077 0.13302 0.99879 0.0
C1627 C 0.48696 0.11205 0.99415 0.0
C1628 C 0.47801 0.10352 0.98045 0.0
C1629 C 0.47611 0.08067 0.97814 0.0
C1630 C 0.45084 0.06218 0.9759 0.0
C1631 C 0.49132 0.08147 0.96521 0.0
C1632 C 0.48545 0.07775 0.99268 0.0
C1633 C 0.49158 0.09609 1.00171 0.0
C1634 C 0.50138 0.09782 1.01547 0.0
C1635 C 0.50515 0.08041 0.02011 0.0
C1636 C 0.49898 0.06129 1.01115 0.0
C1637 C 0.4889 0.06002 0.99722 0.0
H1638 H 0.68178 0.11884 0.98307 0.0
H1639 H 0.66592 0.17268 0.98845 0.0
H1640 H 0.62854 0.14575 0.99971 0.0
H1641 H 0.62517 0.07606 0.97346 0.0
H1642 H 0.62672 0.05391 0.98323 0.0
H1643 H 0.65265 0.07765 0.97622 0.0
H1644 H 0.6705 0.08547 1.00237 0.0
H1645 H 0.6445 0.06177 1.00943 0.0
H1646 H 0.65527 0.08932 1.0174 0.0
H1647 H 0.59202 0.11251 1.00967 0.0
H1648 H 0.55883 0.07529 1.01626 0.0
H1649 H 0.59871 0.04336 1.00489 0.0
C1650 C 0.67058 0.12504 0.98677 0.0
C1651 C 0.67686 0.14794 0.98481 0.0
C1652 C 0.66144 0.1552 0.98961 0.0
C1653 C 0.64023 0.14006 0.99616 0.0
C1654 C 0.63459 0.11765 0.99791 0.0
C1655 C 0.64929 0.11014 0.99331 0.0
C1656 C 0.6387 0.08499 0.99591 0.0
C1657 C 0.63562 0.07242 0.98134 0.0
C1658 C 0.65311 0.08011 1.00693 0.0
C1659 C 0.61563 0.07949 1.00245 0.0
C1660 C 0.61366 0.09858 1.00368 0.0
C1661 C 0.5935 0.0975 1.00891 0.0
C1662 C 0.57478 0.07632 1.01272 0.0
C1663 C 0.57642 0.05655 1.01139 0.0
C1664 C 0.59718 0.05828 1.00628 0.0
H1665 H 0.91902 0.57933 0.98122 0.0
H1666 H 0.86432 0.50972 0.97666 0.0
H1667 H 0.88866 0.49708 0.98911 0.0
H1668 H 0.96495 0.57 0.97317 0.0
H1669 H 0.9848 0.59017 0.98621 0.0
H1670 H 0.96222 0.59397 0.97841 0.0
H1671 H 0.9478 0.59548 1.00458 0.0
H1672 H 0.97026 0.59151 1.0125 0.0
H1673 H 0.94052 0.5725 1.01718 0.0
H1674 H 0.92032 0.49163 0.99996 0.0
H1675 H 0.95657 0.49404 1.0085 0.0
H1676 H 0.99101 0.56698 1.00605 0.0
C1677 C 0.91204 0.56142 0.9829 0.0
C1678 C 0.88953 0.54558 0.97795 0.0
C1679 C 0.88121 0.5223 0.98054 0.0
C1680 C 0.895 0.51491 0.98756 0.0
C1681 C 0.91714 0.53094 0.99208 0.0
C1682 C 0.92558 0.55373 0.98992 0.0
C1683 C 0.95041 0.5674 0.99517 0.0
C1684 C 0.96654 0.58119 0.98248 0.0
C1685 C 0.95235 0.58263 1.00812 0.0
C1686 C 0.95487 0.54872 1.00013 0.0
C1687 C 0.93535 0.52781 0.99842 0.0
C1688 C 0.93556 0.50795 1.00157 0.0
C1689 C 0.95621 0.50948 1.00649 0.0
C1690 C 0.97641 0.53073 1.00838 0.0
C1691 C 0.97565 0.55056 1.00509 0.0
H1692 H 0.49387 0.347 0.99184 0.0
H1693 H 0.44773 0.33877 0.95575 0.0
H1694 H 0.44927 0.37426 0.96273 0.0
H1695 H 0.47177 0.37114 0.01772 0.0
H1696 H 0.49978 0.39058 0.02513 0.0
H1697 H 0.49448 0.36419 1.01748 0.0
H1698 H 0.5293 0.38595 0.99986 0.0
H1699 H 0.53439 0.4123 1.00752 0.0
H1700 H 0.53014 0.40751 0.98801 0.0
H1701 H 0.4558 0.41068 0.97348 0.0
H1702 H 0.46784 0.44615 0.98678 0.0
H1703 H 0.51105 0.43174 1.01533 0.0
C1704 C 0.48425 0.35272 0.98529 0.0
C1705 C 0.4705 0.33983 0.97328 0.0
C1706 C 0.458 0.34795 0.96517 0.0
C1707 C 0.45888 0.36822 0.96898 0.0
C1708 C 0.47244 0.38035 0.98091 0.0
C1709 C 0.48504 0.37301 0.98889 0.0
C1710 C 0.49851 0.38945 1.0011 0.0
C1711 C 0.49065 0.37816 1.01625 0.0
C1712 C 0.52463 0.39939 0.99899 0.0
C1713 C 0.49153 0.40718 0.99871 0.0
C1714 C 0.47641 0.40153 0.98704 0.0
C1715 C 0.46764 0.41529 0.98264 0.0
C1716 C 0.47462 0.43545 0.99029 0.0
C1717 C 0.49032 0.44179 1.00221 0.0
C1718 C 0.49878 0.42732 1.00645 0.0
H1719 H 0.12656 0.66102 0.08158 0.0
H1720 H 0.16713 0.6992 0.04389 0.0
H1721 H 0.14345 0.66656 0.02785 0.0
H1722 H 0.11844 0.60706 0.07046 0.0
H1723 H 0.08928 0.59151 0.07728 0.0
H1724 H 0.10972 0.61773 0.08579 0.0
H1725 H 0.08193 0.6333 0.08139 0.0
H1726 H 0.06146 0.60714 0.07281 0.0
H1727 H 0.07177 0.63339 0.06304 0.0
H1728 H 0.11436 0.62973 1.01573 0.0
H1729 H 0.0831 0.59187 1.00882 0.0
H1730 H 0.06192 0.57776 0.05445 0.0
C1731 C 0.13042 0.66264 0.06994 0.0
C1732 C 0.14881 0.68282 0.06405 0.0
C1733 C 0.15339 0.68393 0.04876 0.0
C1734 C 0.13992 0.66549 0.03952 0.0
C1735 C 0.12187 0.64597 0.0457 0.0
C1736 C 0.11715 0.64442 0.06057 0.0
C1737 C 0.09676 0.62156 0.06447 0.0
C1738 C 0.10399 0.60871 0.07513 0.0
C1739 C 0.0768 0.62401 0.0708 0.0
C1740 C 0.09069 0.6105 0.04947 0.0
C1741 C 0.10533 0.62483 0.03877 0.0
C1742 C 0.1029 0.61835 0.02407 0.0
C1743 C 0.08512 0.59667 0.02022 0.0
C1744 C 0.06996 0.58159 0.031 0.0
C1745 C 0.07294 0.5888 0.04583 0.0
H1746 H 0.37936 0.5051 0.0637 0.0
H1747 H 0.33113 0.43472 0.05419 0.0
H1748 H 0.36139 0.43208 0.04052 0.0
H1749 H 0.41097 0.51771 0.02791 0.0
H1750 H 0.43868 0.53601 0.03613 0.0
H1751 H 0.4129 0.53377 0.04405 0.0
H1752 H 0.42238 0.52259 0.06918 0.0
H1753 H 0.44842 0.52524 0.06153 0.0
H1754 H 0.42764 0.49921 0.0702 0.0
H1755 H 0.39755 0.435 0.03122 0.0
H1756 H 0.43742 0.44409 0.02566 0.0
H1757 H 0.46293 0.51315 0.03935 0.0
C1758 C 0.37509 0.48924 0.05854 0.0
C1759 C 0.35264 0.47015 0.05994 0.0
C1760 C 0.3479 0.44971 0.05306 0.0
C1761 C 0.36506 0.44801 0.04529 0.0
C1762 C 0.38696 0.46696 0.04426 0.0
C1763 C 0.39205 0.48731 0.05052 0.0
C1764 C 0.41744 0.50471 0.04834 0.0
C1765 C 0.42016 0.52421 0.03852 0.0
C1766 C 0.42968 0.51344 0.06319 0.0
C1767 C 0.42595 0.49063 0.04049 0.0
C1768 C 0.40795 0.46893 0.03818 0.0
C1769 C 0.41166 0.45207 0.03257 0.0
C1770 C 0.43434 0.45737 0.02944 0.0
C1771 C 0.45303 0.47944 0.03158 0.0
C1772 C 0.44877 0.49639 0.03701 0.0
H1773 H 0.53362 0.86934 0.04546 0.0
H1774 H 0.58466 0.90494 0.0795 0.0
H1775 H 0.58475 0.93992 0.07314 0.0
H1776 H 0.55493 0.91473 0.01908 0.0
H1777 H 0.52672 0.90885 1.01318 0.0
H1778 H 0.53082 0.88636 0.02003 0.0
H1779 H 0.49887 0.87644 0.03951 0.0
H1780 H 0.49469 0.89886 0.03261 0.0
H1781 H 0.5011 0.89809 0.05178 0.0
H1782 H 0.57988 0.97095 0.06335 0.0
H1783 H 0.5686 0.99628 0.05162 0.0
H1784 H 0.51931 0.94109 0.02431 0.0
C1785 C 0.54469 0.88443 0.05165 0.0
C1786 C 0.55943 0.88434 0.06286 0.0
C1787 C 0.57368 0.90458 0.07063 0.0
C1788 C 0.57376 0.92456 0.06716 0.0
C1789 C 0.55935 0.92412 0.05596 0.0
C1790 C 0.5449 0.90462 0.04839 0.0
C1791 C 0.53075 0.9089 0.03707 0.0
C1792 C 0.53614 0.90444 0.02141 0.0
C1793 C 0.50481 0.89473 0.04045 0.0
C1794 C 0.5396 0.93385 0.0395 0.0
C1795 C 0.55618 0.9422 0.05041 0.0
C1796 C 0.56691 0.96463 0.05479 0.0
C1797 C 0.56036 0.97892 0.04799 0.0
C1798 C 0.54311 0.97081 0.03692 0.0
C1799 C 0.53273 0.94793 0.03257 0.0
H1800 H 1.01179 0.23529 0.38838 0.0
H1801 H 0.03335 0.18569 0.39513 0.0
H1802 H 0.07175 0.21233 0.3851 0.0
H1803 H 0.04214 0.25765 0.35431 0.0
H1804 H 0.0511 0.28675 0.35809 0.0
H1805 H 0.0247 0.26451 0.36589 0.0
H1806 H 0.03802 0.27871 0.39221 0.0
H1807 H 0.06406 0.30194 0.38485 0.0
H1808 H 0.06574 0.28362 0.39846 0.0
H1809 H 0.10817 0.24451 0.37545 0.0
H1810 H 0.14077 0.28073 0.36712 0.0
H1811 H 0.09618 0.30984 0.36585 0.0
C1812 C 0.02454 0.23 0.38764 0.0
C1813 C 0.01954 0.20838 0.39262 0.0
C1814 C 0.03683 0.20223 0.3916 0.0
C1815 C 0.05865 0.21718 0.3858 0.0
C1816 C 0.06303 0.23831 0.38102 0.0
C1817 C 0.04655 0.24482 0.38192 0.0
C1818 C 0.05612 0.26885 0.37643 0.0
C1819 C 0.04273 0.26949 0.36287 0.0
C1820 C 0.05598 0.28418 0.38872 0.0
C1821 C 0.08057 0.27484 0.37243 0.0
C1822 C 0.08409 0.25688 0.37513 0.0
C1823 C 0.10552 0.25856 0.37307 0.0
C1824 C 0.12392 0.27917 0.36823 0.0
C1825 C 0.12076 0.2978 0.36533 0.0
C1826 C 0.09882 0.29561 0.36754 0.0
H1827 H 0.78588 0.78154 0.39172 0.0
H1828 H 0.83883 0.85214 0.39392 0.0
H1829 H 0.81192 0.86284 0.38294 0.0
H1830 H 0.76109 0.78516 0.35685 0.0
H1831 H 0.73173 0.76582 0.36218 0.0
H1832 H 0.75503 0.76304 0.36991 0.0
H1833 H 0.74211 0.76569 0.39624 0.0
H1834 H 0.71839 0.76792 0.38875 0.0
H1835 H 0.73848 0.78927 0.40111 0.0
H1836 H 0.779 0.86619 0.37248 0.0
H1837 H 0.74184 0.86183 0.36412 0.0
H1838 H 0.71001 0.78922 0.36832 0.0
C1839 C 0.79188 0.79923 0.38977 0.0
C1840 C 0.81453 0.816 0.39378 0.0
C1841 C 0.82152 0.83898 0.39118 0.0
C1842 C 0.80641 0.84524 0.38482 0.0
C1843 C 0.78425 0.82835 0.38104 0.0
C1844 C 0.77694 0.80581 0.38346 0.0
C1845 C 0.75192 0.7911 0.37886 0.0
C1846 C 0.74982 0.77535 0.3662 0.0
C1847 C 0.73684 0.77771 0.39202 0.0
C1848 C 0.74625 0.80891 0.37371 0.0
C1849 C 0.76524 0.83028 0.37492 0.0
C1850 C 0.7641 0.84952 0.37132 0.0
C1851 C 0.74295 0.84688 0.3665 0.0
C1852 C 0.72324 0.82515 0.36517 0.0
C1853 C 0.72497 0.80597 0.36889 0.0
H1854 H 0.20021 0.99814 0.39027 0.0
H1855 H 0.26572 0.0165 0.41108 0.0
H1856 H 0.26373 0.98203 0.4014 0.0
H1857 H 0.17325 0.93894 0.39703 0.0
H1858 H 0.15857 0.93054 0.37959 0.0
H1859 H 0.16531 0.95723 0.38752 0.0
H1860 H 0.18731 0.97782 0.36381 0.0
H1861 H 0.18042 0.95108 0.35586 0.0
H1862 H 0.21006 0.97335 0.35705 0.0
H1863 H 0.25407 0.94506 0.39102 0.0
H1864 H 0.23775 0.90769 0.37956 0.0
H1865 H 0.17875 0.91265 0.36454 0.0
C1866 C 0.21416 0.9949 0.39269 0.0
C1867 C 0.23326 0.01015 0.40132 0.0
C1868 C 0.25116 1.00533 0.40428 0.0
C1869 C 0.25014 0.98572 0.39889 0.0
C1870 C 0.23118 0.97109 0.39045 0.0
C1871 C 0.21355 0.97541 0.38723 0.0
C1872 C 0.19503 0.95652 0.37801 0.0
C1873 C 0.17166 0.94514 0.38602 0.0
C1874 C 0.1931 0.96522 0.36278 0.0
C1875 C 0.20486 0.94079 0.37687 0.0
C1876 C 0.22573 0.94963 0.38414 0.0
C1877 C 0.23783 0.93801 0.38518 0.0
C1878 C 0.22834 0.91671 0.37868 0.0
C1879 C 0.20699 0.90721 0.37114 0.0
C1880 C 0.19522 0.91957 0.37011 0.0
H1881 H 0.55112 0.67197 0.32484 0.0
H1882 H 0.54546 0.69785 0.28236 0.0
H1883 H 0.57404 0.73628 0.29005 0.0
H1884 H 0.55803 0.72079 0.34626 0.0
H1885 H 0.57851 0.72024 0.3589 0.0
H1886 H 0.55683 0.69446 0.35048 0.0
H1887 H 0.58872 0.68704 0.34057 0.0
H1888 H 0.61045 0.71276 0.34897 0.0
H1889 H 0.61174 0.7083 0.32956 0.0
H1890 H 0.60484 0.77104 0.30108 0.0
H1891 H 0.63535 0.80154 0.31576 0.0
H1892 H 0.62082 0.75513 0.35206 0.0
C1893 C 0.55582 0.6858 0.31725 0.0
C1894 C 0.54587 0.68193 0.30302 0.0
C1895 C 0.55251 0.70044 0.29337 0.0
C1896 C 0.56882 0.72233 0.29761 0.0
C1897 C 0.57828 0.72562 0.31163 0.0
C1898 C 0.57196 0.70802 0.32142 0.0
C1899 C 0.58516 0.71657 0.3358 0.0
C1900 C 0.56864 0.71279 0.34862 0.0
C1901 C 0.59989 0.70551 0.3389 0.0
C1902 C 0.60019 0.74156 0.33236 0.0
C1903 C 0.59585 0.74624 0.31831 0.0
C1904 C 0.6082 0.76769 0.31217 0.0
C1905 C 0.62553 0.78488 0.32057 0.0
C1906 C 0.6302 0.78068 0.33503 0.0
C1907 C 0.61725 0.75879 0.3411 0.0
H1908 H 0.31812 0.83994 0.31692 0.0
H1909 H 0.36406 0.91168 0.32353 0.0
H1910 H 0.3326 0.91451 0.33544 0.0
H1911 H 0.26844 0.84361 0.30801 0.0
H1912 H 0.24824 0.81798 0.31734 0.0
H1913 H 0.27484 0.82112 0.31033 0.0
H1914 H 0.28429 0.8124 0.33621 0.0
H1915 H 0.25815 0.81005 0.34358 0.0
H1916 H 0.28569 0.82962 0.35155 0.0
H1917 H 0.29616 0.91085 0.34444 0.0
H1918 H 0.2559 0.90101 0.34921 0.0
H1919 H 0.23255 0.83133 0.33817 0.0
C1920 C 0.3216 0.85616 0.32107 0.0
C1921 C 0.34364 0.87563 0.31919 0.0
C1922 C 0.34734 0.89659 0.32459 0.0
C1923 C 0.32962 0.89834 0.33155 0.0
C1924 C 0.30816 0.87895 0.33315 0.0
C1925 C 0.30396 0.85823 0.32805 0.0
C1926 C 0.27875 0.84042 0.33038 0.0
C1927 C 0.26687 0.83019 0.31564 0.0
C1928 C 0.27659 0.82203 0.34107 0.0
C1929 C 0.26942 0.85454 0.33721 0.0
C1930 C 0.28686 0.87668 0.33883 0.0
C1931 C 0.28244 0.8935 0.34356 0.0
C1932 C 0.25956 0.88776 0.34628 0.0
C1933 C 0.24134 0.86533 0.34459 0.0
C1934 C 0.24633 0.84838 0.34022 0.0
H1935 H 0.15075 0.46395 0.30293 0.0
H1936 H 0.13298 0.48385 0.34394 0.0
H1937 H 0.13696 0.45443 0.35707 0.0
H1938 H 0.12086 0.40327 0.31072 0.0
H1939 H 0.14276 0.39915 0.30215 0.0
H1940 H 0.13767 0.42123 0.29572 0.0
H1941 H 0.18079 0.45063 0.2999 0.0
H1942 H 0.18598 0.42865 0.30636 0.0
H1943 H 0.19342 0.45284 0.31777 0.0
H1944 H 0.14403 0.42382 0.36602 0.0
H1945 H 0.15297 0.3933 0.37001 0.0
H1946 H 0.16665 0.39325 0.32343 0.0
C1947 C 0.14741 0.4619 0.31463 0.0
C1948 C 0.14171 0.47635 0.32242 0.0
C1949 C 0.13771 0.47325 0.33777 0.0
C1950 C 0.1398 0.45649 0.34533 0.0
C1951 C 0.14582 0.44282 0.3374 0.0
C1952 C 0.14947 0.44521 0.32239 0.0
C1953 C 0.15632 0.42857 0.31663 0.0
C1954 C 0.13833 0.41208 0.30566 0.0
C1955 C 0.18057 0.44092 0.30976 0.0
C1956 C 0.15609 0.41664 0.33076 0.0
C1957 C 0.14994 0.4251 0.3426 0.0
C1958 C 0.14887 0.41705 0.35683 0.0
C1959 C 0.15419 0.39985 0.35903 0.0
C1960 C 0.16058 0.39092 0.34708 0.0
C1961 C 0.16147 0.39946 0.33277 0.0
H1962 H 0.32513 0.48125 0.32059 0.0
H1963 H 0.35515 0.43881 0.31238 0.0
H1964 H 0.32007 0.40599 0.32223 0.0
H1965 H 0.29566 0.45403 0.35429 0.0
H1966 H 0.27023 0.45596 0.35049 0.0
H1967 H 0.29785 0.47695 0.3433 0.0
H1968 H 0.28223 0.46942 0.31674 0.0
H1969 H 0.2542 0.44912 0.32366 0.0
H1970 H 0.26782 0.44097 0.30977 0.0
H1971 H 0.28074 0.37723 0.33116 0.0
H1972 H 0.23967 0.35455 0.33823 0.0
H1973 H 0.23508 0.41535 0.34112 0.0
C1974 C 0.32433 0.46506 0.32082 0.0
C1975 C 0.34305 0.46271 0.31576 0.0
C1976 C 0.34128 0.44118 0.3164 0.0
C1977 C 0.32137 0.4224 0.32195 0.0
C1978 C 0.30334 0.42535 0.32689 0.0
C1979 C 0.30459 0.44611 0.32636 0.0
C1980 C 0.2824 0.44451 0.33187 0.0
C1981 C 0.28679 0.45871 0.34582 0.0
C1982 C 0.27099 0.45141 0.31979 0.0
C1983 C 0.2683 0.4195 0.33527 0.0
C1984 C 0.2808 0.4088 0.33243 0.0
C1985 C 0.27098 0.38549 0.33374 0.0
C1986 C 0.24772 0.37277 0.33787 0.0
C1987 C 0.23467 0.38339 0.3409 0.0
C1988 C 0.24507 0.40702 0.33951 0.0
H1989 H 0.54305 0.84531 0.31157 0.0
H1990 H 0.5785 0.91756 0.31921 0.0
H1991 H 0.60965 0.91515 0.33199 0.0
H1992 H 0.56046 0.83079 0.34763 0.0
H1993 H 0.56354 0.80847 0.33948 0.0
H1994 H 0.5425 0.81516 0.33231 0.0
H1995 H 0.56058 0.82097 0.30635 0.0
H1996 H 0.58152 0.81418 0.31341 0.0
H1997 H 0.59096 0.84056 0.30397 0.0
H1998 H 0.63991 0.9062 0.34011 0.0
H1999 H 0.66562 0.89047 0.3447 0.0
H2000 H 0.60981 0.82371 0.33417 0.0
C2001 C 0.557 0.86053 0.3163 0.0
C2002 C 0.55831 0.88169 0.31418 0.0
C2003 C 0.5772 0.90121 0.32037 0.0
C2004 C 0.59494 0.9 0.3278 0.0
C2005 C 0.59347 0.87906 0.32931 0.0
C2006 C 0.57481 0.85958 0.32396 0.0
C2007 C 0.5782 0.83942 0.32634 0.0
C2008 C 0.56009 0.82246 0.33708 0.0
C2009 C 0.5778 0.82813 0.31165 0.0
C2010 C 0.60207 0.85081 0.33322 0.0
C2011 C 0.6105 0.87368 0.33494 0.0
C2012 C 0.63318 0.88819 0.3394 0.0
C2013 C 0.64762 0.87914 0.3421 0.0
C2014 C 0.63918 0.85573 0.34076 0.0
C2015 C 0.61616 0.84146 0.3362 0.0
H2016 H 0.16243 0.68667 0.31695 0.0
H2017 H 0.09784 0.66996 0.29544 0.0
H2018 H 0.1003 0.70453 0.30526 0.0
H2019 H 0.15235 0.71126 0.35019 0.0
H2020 H 0.18216 0.73303 0.3517 0.0
H2021 H 0.17483 0.70634 0.34351 0.0
H2022 H 0.19785 0.72756 0.32018 0.0
H2023 H 0.20471 0.75413 0.32839 0.0
H2024 H 0.19055 0.74638 0.31076 0.0
H2025 H 0.11007 0.74114 0.31601 0.0
H2026 H 0.12621 0.77804 0.32792 0.0
H2027 H 0.18441 0.7721 0.34351 0.0
C2028 C 0.1488 0.69031 0.31439 0.0
C2029 C 0.12977 0.67542 0.30554 0.0
C2030 C 0.11231 0.6808 0.30241 0.0
C2031 C 0.11361 0.70048 0.30787 0.0
C2032 C 0.13243 0.7147 0.31656 0.0
C2033 C 0.1497 0.70993 0.31992 0.0
C2034 C 0.16809 0.72846 0.32945 0.0
C2035 C 0.16942 0.71921 0.34461 0.0
C2036 C 0.1917 0.7398 0.32173 0.0
C2037 C 0.15857 0.74446 0.33065 0.0
C2038 C 0.13797 0.73605 0.3231 0.0
C2039 C 0.12609 0.74785 0.32207 0.0
C2040 C 0.13549 0.76891 0.32887 0.0
C2041 C 0.15657 0.77806 0.33673 0.0
C2042 C 0.16815 0.7655 0.33772 0.0
H2043 H 0.79584 0.98408 0.41337 0.0
H2044 H 0.81224 0.03102 0.37709 0.0
H2045 H 0.78586 0.99953 0.36105 0.0
H2046 H 0.79098 0.93743 0.39187 0.0
H2047 H 0.76729 0.91641 0.40257 0.0
H2048 H 0.78819 0.94253 0.41098 0.0
H2049 H 0.7553 0.94981 0.41903 0.0
H2050 H 0.73435 0.92377 0.41056 0.0
H2051 H 0.73574 0.94987 0.40539 0.0
H2052 H 0.75672 0.96286 0.34908 0.0
H2053 H 0.72786 0.9239 0.34208 0.0
H2054 H 0.72996 0.90111 0.38629 0.0
C2055 C 0.79385 0.98782 0.40207 0.0
C2056 C 0.80622 0.01015 0.39653 0.0
C2057 C 0.80329 0.0141 0.38158 0.0
C2058 C 0.78819 0.99632 0.3724 0.0
C2059 C 0.7761 0.97462 0.37828 0.0
C2060 C 0.77883 0.9703 0.39276 0.0
C2061 C 0.76368 0.94548 0.39643 0.0
C2062 C 0.77842 0.93484 0.40071 0.0
C2063 C 0.74623 0.94204 0.40857 0.0
C2064 C 0.75177 0.93656 0.3818 0.0
C2065 C 0.75926 0.9536 0.37144 0.0
C2066 C 0.75083 0.94939 0.35709 0.0
C2067 C 0.73452 0.92717 0.35319 0.0
C2068 C 0.72675 0.90942 0.36359 0.0
C2069 C 0.7354 0.91433 0.37811 0.0
H2070 H 0.01927 0.78128 0.3973 0.0
H2071 H 0.03242 0.85006 0.39457 0.0
H2072 H 0.06919 0.86141 0.3818 0.0
H2073 H 0.07577 0.79434 0.40469 0.0
H2074 H 0.0748 0.77191 0.3938 0.0
H2075 H 0.04868 0.76884 0.4016 0.0
H2076 H 0.03005 0.76104 0.37569 0.0
H2077 H 0.05617 0.76403 0.36784 0.0
H2078 H 0.04452 0.78109 0.36109 0.0
H2079 H 0.10659 0.86602 0.37151 0.0
H2080 H 0.14056 0.86303 0.36426 0.0
H2081 H 0.10205 0.79099 0.37222 0.0
C2082 C 0.02954 0.79862 0.39371 0.0
C2083 C 0.02281 0.81474 0.39702 0.0
C2084 C 0.03722 0.83739 0.39238 0.0
C2085 C 0.0581 0.84399 0.385 0.0
C2086 C 0.06436 0.82774 0.38214 0.0
C2087 C 0.05038 0.80548 0.38625 0.0
C2088 C 0.06157 0.79152 0.38254 0.0
C2089 C 0.06543 0.78105 0.39649 0.0
C2090 C 0.04722 0.77334 0.37111 0.0
C2091 C 0.08424 0.80948 0.37606 0.0
C2092 C 0.08551 0.83027 0.37583 0.0
C2093 C 0.10553 0.84971 0.37133 0.0
C2094 C 0.12474 0.84785 0.36711 0.0
C2095 C 0.1237 0.82666 0.36715 0.0
C2096 C 0.1031 0.8073 0.37165 0.0
H2097 H 0.20672 0.21581 0.40031 0.0
H2098 H 0.24528 0.21203 0.36314 0.0
H2099 H 0.24081 0.24145 0.35035 0.0
H2100 H 0.16614 0.22387 0.37965 0.0
H2101 H 0.16516 0.24348 0.3924 0.0
H2102 H 0.17181 0.22248 0.39889 0.0
H2103 H 0.20999 0.25376 0.41026 0.0
H2104 H 0.20334 0.27483 0.40389 0.0
H2105 H 0.23027 0.27667 0.39883 0.0
H2106 H 0.23074 0.27033 0.34107 0.0
H2107 H 0.21754 0.29788 0.33677 0.0
H2108 H 0.18664 0.28342 0.38023 0.0
C2109 C 0.21452 0.22139 0.38958 0.0
C2110 C 0.22621 0.21143 0.38271 0.0
C2111 C 0.2359 0.21908 0.36855 0.0
C2112 C 0.23356 0.23588 0.36121 0.0
C2113 C 0.22158 0.24504 0.36816 0.0
C2114 C 0.21238 0.2382 0.38208 0.0
C2115 C 0.20011 0.25061 0.38704 0.0
C2116 C 0.17428 0.23412 0.38964 0.0
C2117 C 0.21162 0.26481 0.40082 0.0
C2118 C 0.20385 0.26543 0.37374 0.0
C2119 C 0.21618 0.26192 0.36293 0.0
C2120 C 0.22121 0.27334 0.3495 0.0
C2121 C 0.21359 0.28889 0.34713 0.0
C2122 C 0.20123 0.29295 0.35817 0.0
C2123 C 0.19631 0.28095 0.37161 0.0
H2124 H 0.7051 0.53417 0.72631 0.0
H2125 H 0.66902 0.57201 0.7297 0.0
H2126 H 0.70343 0.60585 0.72017 0.0
H2127 H 0.76051 0.57849 0.73739 0.0
H2128 H 0.77623 0.57097 0.7247 0.0
H2129 H 0.74851 0.54966 0.73146 0.0
H2130 H 0.73452 0.53912 0.70471 0.0
H2131 H 0.76173 0.56104 0.69762 0.0
H2132 H 0.73525 0.56022 0.6925 0.0
H2133 H 0.74242 0.63623 0.71134 0.0
H2134 H 0.78346 0.66091 0.70454 0.0
H2135 H 0.79403 0.60345 0.70605 0.0
C2136 C 0.70431 0.54949 0.72491 0.0
C2137 C 0.68421 0.55031 0.72884 0.0
C2138 C 0.6842 0.57091 0.72702 0.0
C2139 C 0.70363 0.59022 0.72146 0.0
C2140 C 0.72306 0.58879 0.71769 0.0
C2141 C 0.72359 0.56898 0.71938 0.0
C2142 C 0.74691 0.57217 0.71489 0.0
C2143 C 0.75873 0.56756 0.72789 0.0
C2144 C 0.74447 0.55725 0.70164 0.0
C2145 C 0.75953 0.59696 0.71069 0.0
C2146 C 0.74538 0.60619 0.71226 0.0
C2147 C 0.75351 0.62909 0.70981 0.0
C2148 C 0.77676 0.64296 0.70586 0.0
C2149 C 0.79153 0.63385 0.7042 0.0
C2150 C 0.78279 0.61059 0.70671 0.0
H2151 H 0.48436 0.16643 0.72114 0.0
H2152 H 0.44911 0.09322 0.72251 0.0
H2153 H 0.41464 0.09152 0.71165 0.0
H2154 H 0.43457 0.17113 0.73109 0.0
H2155 H 0.4418 0.19483 0.71917 0.0
H2156 H 0.46431 0.19051 0.72655 0.0
H2157 H 0.47877 0.19119 0.7002 0.0
H2158 H 0.45577 0.19451 0.6925 0.0
H2159 H 0.45953 0.17129 0.68684 0.0
H2160 H 0.38341 0.09696 0.70185 0.0
H2161 H 0.35597 0.10953 0.6949 0.0
H2162 H 0.41004 0.1793 0.69915 0.0
C2163 C 0.46937 0.15005 0.71919 0.0
C2164 C 0.46976 0.12992 0.7225 0.0
C2165 C 0.44964 0.10888 0.71977 0.0
C2166 C 0.42986 0.10771 0.71362 0.0
C2167 C 0.4302 0.12773 0.71023 0.0
C2168 C 0.44928 0.14854 0.713 0.0
C2169 C 0.44444 0.16737 0.70875 0.0
C2170 C 0.44639 0.18181 0.72219 0.0
C2171 C 0.46059 0.18196 0.69633 0.0
C2172 C 0.41959 0.1538 0.7034 0.0
C2173 C 0.41192 0.13095 0.70429 0.0
C2174 C 0.38928 0.11479 0.70091 0.0
C2175 C 0.37383 0.12207 0.69693 0.0
C2176 C 0.38102 0.1453 0.69611 0.0
C2177 C 0.40433 0.16144 0.69918 0.0
H2178 H 0.89516 0.32477 0.74511 0.0
H2179 H 0.85769 0.34598 0.71625 0.0
H2180 H 0.84684 0.31282 0.70055 0.0
H2181 H 0.91805 0.30508 0.71626 0.0
H2182 H 0.91541 0.28168 0.72694 0.0
H2183 H 0.92007 0.30699 0.73602 0.0
H2184 H 0.88336 0.28346 0.75174 0.0
H2185 H 0.87857 0.2581 0.7427 0.0
H2186 H 0.85623 0.26552 0.74272 0.0
H2187 H 0.83884 0.27653 0.68846 0.0
H2188 H 0.83541 0.24064 0.68047 0.0
H2189 H 0.88037 0.24451 0.7162 0.0
C2190 C 0.88494 0.32268 0.73539 0.0
C2191 C 0.87724 0.33807 0.732 0.0
C2192 C 0.86351 0.33432 0.71928 0.0
C2193 C 0.85737 0.31559 0.71021 0.0
C2194 C 0.86522 0.30079 0.71391 0.0
C2195 C 0.8788 0.30418 0.72615 0.0
C2196 C 0.88494 0.28572 0.72769 0.0
C2197 C 0.91118 0.29546 0.72666 0.0
C2198 C 0.87519 0.27242 0.74207 0.0
C2199 C 0.87267 0.27142 0.71441 0.0
C2200 C 0.86129 0.28033 0.70665 0.0
C2201 C 0.84799 0.26959 0.69432 0.0
C2202 C 0.84627 0.24922 0.68979 0.0
C2203 C 0.85804 0.23988 0.69744 0.0
C2204 C 0.87143 0.25128 0.70992 0.0
H2205 H 0.1987 0.01851 0.65796 0.0
H2206 H 0.2368 1.00488 0.62474 0.0
H2207 H 0.27181 0.04037 0.63092 0.0
H2208 H 0.22729 0.07934 0.65109 0.0
H2209 H 0.22761 0.08653 0.67017 0.0
H2210 H 0.20509 0.05981 0.66335 0.0
H2211 H 0.21538 0.03898 0.68319 0.0
H2212 H 0.23778 0.06572 0.69 0.0
H2213 H 0.24463 0.04443 0.68451 0.0
H2214 H 0.30276 0.0761 0.64067 0.0
H2215 H 0.32841 0.11188 0.65266 0.0
H2216 H 0.27125 0.10525 0.6792 0.0
C2217 C 0.21435 0.02308 0.65188 0.0
C2218 C 0.21492 0.00851 0.64098 0.0
C2219 C 0.23588 0.01525 0.63339 0.0
C2220 C 0.2559 0.03553 0.63674 0.0
C2221 C 0.25482 0.04921 0.64763 0.0
C2222 C 0.23464 0.04351 0.65504 0.0
C2223 C 0.23854 0.06169 0.66619 0.0
C2224 C 0.22375 0.07248 0.66247 0.0
C2225 C 0.2338 0.05212 0.6819 0.0
C2226 C 0.26409 0.07834 0.66388 0.0
C2227 C 0.27296 0.07057 0.65314 0.0
C2228 C 0.29602 0.08245 0.64905 0.0
C2229 C 0.3105 0.10291 0.65602 0.0
C2230 C 0.30206 0.11165 0.66701 0.0
C2231 C 0.27839 0.09909 0.67096 0.0
H2232 H 0.99057 0.18042 0.65482 0.0
H2233 H 0.02892 0.25295 0.648 0.0
H2234 H 0.99618 0.25586 0.65758 0.0
H2235 H 0.93533 0.17274 0.64366 0.0
H2236 H 0.91904 0.15127 0.65715 0.0
H2237 H 0.94594 0.15478 0.65038 0.0
H2238 H 0.96072 0.15934 0.67706 0.0
H2239 H 0.93428 0.15675 0.68405 0.0
H2240 H 0.9616 0.18126 0.68844 0.0
H2241 H 0.95934 0.2514 0.66648 0.0
H2242 H 0.91914 0.2394 0.67316 0.0
H2243 H 0.90318 0.16976 0.67497 0.0
C2244 C 0.99205 0.1969 0.65532 0.0
C2245 C 1.01267 0.21653 0.65082 0.0
C2246 C 1.01372 0.23773 0.65168 0.0
C2247 C 0.99512 0.23956 0.65708 0.0
C2248 C 0.97534 0.22007 0.66163 0.0
C2249 C 0.9735 0.19909 0.66075 0.0
C2250 C 0.94973 0.18082 0.66593 0.0
C2251 C 0.93675 0.1639 0.65354 0.0
C2252 C 0.95169 0.16883 0.67969 0.0
C2253 C 0.93846 0.19485 0.66955 0.0
C2254 C 0.95377 0.21748 0.66707 0.0
C2255 C 0.9473 0.23379 0.66866 0.0
C2256 C 0.92445 0.22683 0.6725 0.0
C2257 C 0.90827 0.2038 0.67495 0.0
C2258 C 0.91543 0.18756 0.67366 0.0
H2259 H 0.78235 0.78498 0.65762 0.0
H2260 H 0.85012 0.83047 0.63956 0.0
H2261 H 0.86451 0.80612 0.64926 0.0
H2262 H 0.80215 0.77068 0.69094 0.0
H2263 H 0.77972 0.74149 0.69092 0.0
H2264 H 0.77448 0.7626 0.68284 0.0
H2265 H 0.76305 0.74065 0.65827 0.0
H2266 H 0.76809 0.7194 0.6663 0.0
H2267 H 0.78282 0.73351 0.64963 0.0
H2268 H 0.87207 0.77784 0.66115 0.0
H2269 H 0.87153 0.74506 0.67285 0.0
H2270 H 0.79876 0.71616 0.68257 0.0
C2271 C 0.80022 0.78978 0.65575 0.0
C2272 C 0.81512 0.80962 0.64778 0.0
C2273 C 0.83833 0.81525 0.64546 0.0
C2274 C 0.84672 0.80161 0.65103 0.0
C2275 C 0.83167 0.78227 0.65885 0.0
C2276 C 0.80885 0.77615 0.66111 0.0
C2277 C 0.79629 0.75401 0.66954 0.0
C2278 C 0.78765 0.7574 0.68445 0.0
C2279 C 0.77638 0.73582 0.66038 0.0
C2280 C 0.81559 0.74863 0.67154 0.0
C2281 C 0.83591 0.76542 0.66546 0.0
C2282 C 0.85628 0.76461 0.66596 0.0
C2283 C 0.85586 0.74601 0.6727 0.0
C2284 C 0.83524 0.72838 0.67873 0.0
C2285 C 0.81478 0.72962 0.67814 0.0
H2286 H 0.97951 0.80193 0.63892 0.0
H2287 H 0.03015 0.7882 0.659 0.0
H2288 H 0.99958 0.75845 0.67423 0.0
H2289 H 0.94319 0.79073 0.67197 0.0
H2290 H 0.9166 0.77737 0.66169 0.0
H2291 H 0.9426 0.79935 0.65332 0.0
H2292 H 0.9385 0.77287 0.63185 0.0
H2293 H 0.91226 0.75094 0.63989 0.0
H2294 H 0.93556 0.74573 0.63582 0.0
H2295 H 0.96275 0.72664 0.68477 0.0
H2296 H 0.92273 0.69663 0.6904 0.0
H2297 H 0.8962 0.73146 0.66419 0.0
C2298 C 0.98424 0.79286 0.64664 0.0
C2299 C 1.00738 0.79759 0.64777 0.0
C2300 C 1.01273 0.78527 0.65807 0.0
C2301 C 0.99542 0.76823 0.66675 0.0
C2302 C 0.97279 0.76376 0.66518 0.0
C2303 C 0.96719 0.77586 0.65547 0.0
C2304 C 0.94135 0.76685 0.65525 0.0
C2305 C 0.9356 0.78464 0.66089 0.0
C2306 C 0.93134 0.75861 0.63979 0.0
C2307 C 0.93323 0.74736 0.66598 0.0
C2308 C 0.95164 0.74592 0.67167 0.0
C2309 C 0.94827 0.728 0.68072 0.0
C2310 C 0.92555 0.71109 0.68391 0.0
C2311 C 0.90657 0.71254 0.67839 0.0
C2312 C 0.9105 0.73082 0.66927 0.0
H2313 H 0.21619 0.17705 0.64512 0.0
H2314 H 0.24543 0.24963 0.64791 0.0
H2315 H 0.28053 0.25314 0.65918 0.0
H2316 H 0.23993 0.17116 0.67966 0.0
H2317 H 0.24687 0.15018 0.67351 0.0
H2318 H 0.22283 0.15149 0.66556 0.0
H2319 H 0.23886 0.15628 0.63942 0.0
H2320 H 0.26235 0.15336 0.64658 0.0
H2321 H 0.26825 0.17771 0.63568 0.0
H2322 H 0.31419 0.24978 0.66713 0.0
H2323 H 0.3436 0.23926 0.67317 0.0
H2324 H 0.29281 0.16865 0.66744 0.0
C2325 C 0.22991 0.19365 0.64822 0.0
C2326 C 0.22782 0.21306 0.64571 0.0
C2327 C 0.24626 0.23445 0.64995 0.0
C2328 C 0.2664 0.23665 0.6563 0.0
C2329 C 0.26795 0.21731 0.65854 0.0
C2330 C 0.25019 0.19616 0.65476 0.0
C2331 C 0.25671 0.17823 0.65816 0.0
C2332 C 0.24064 0.16177 0.66993 0.0
C2333 C 0.25654 0.16566 0.64412 0.0
C2334 C 0.28112 0.19272 0.66404 0.0
C2335 C 0.28719 0.21523 0.66407 0.0
C2336 C 0.30947 0.23219 0.66754 0.0
C2337 C 0.32607 0.22607 0.67094 0.0
C2338 C 0.32027 0.20317 0.67129 0.0
C2339 C 0.29742 0.18623 0.66788 0.0
H2340 H 0.79729 0.02513 0.63043 0.0
H2341 H 0.8271 0.99897 0.66186 0.0
H2342 H 0.84054 0.03325 0.67686 0.0
H2343 H 0.84108 0.08333 0.63294 0.0
H2344 H 0.82114 0.09374 0.63158 0.0
H2345 H 0.81434 0.06739 0.62306 0.0
H2346 H 0.77584 0.04711 0.63752 0.0
H2347 H 0.7825 0.07342 0.64604 0.0
H2348 H 0.77627 0.04929 0.65728 0.0
H2349 H 0.85232 0.07142 0.68793 0.0
H2350 H 0.85878 0.10884 0.69509 0.0
H2351 H 0.81796 0.10828 0.6578 0.0
C2352 C 0.80637 0.02638 0.64055 0.0
C2353 C 0.81121 0.00923 0.64484 0.0
C2354 C 0.82353 0.01194 0.6581 0.0
C2355 C 0.83113 0.03134 0.66678 0.0
C2356 C 0.82616 0.04789 0.66216 0.0
C2357 C 0.81388 0.04551 0.64943 0.0
C2358 C 0.81052 0.06564 0.64703 0.0
C2359 C 0.82248 0.07826 0.63281 0.0
C2360 C 0.78475 0.05842 0.64697 0.0
C2361 C 0.82263 0.07959 0.66048 0.0
C2362 C 0.83183 0.06923 0.66896 0.0
C2363 C 0.84478 0.07946 0.68152 0.0
C2364 C 0.84822 0.10071 0.68559 0.0
C2365 C 0.8383 0.11136 0.67736 0.0
C2366 C 0.82543 0.10054 0.66458 0.0
H2367 H 0.44733 0.32789 0.74248 0.0
H2368 H 0.51191 0.34188 0.72216 0.0
H2369 H 0.4911 0.30719 0.70748 0.0
H2370 H 0.4232 0.26775 0.74527 0.0
H2371 H 0.39411 0.26115 0.74118 0.0
H2372 H 0.41381 0.28752 0.74987 0.0
H2373 H 0.4068 0.30929 0.72904 0.0
H2374 H 0.38704 0.28298 0.72032 0.0
H2375 H 0.41132 0.30436 0.7102 0.0
H2376 H 0.46399 0.27039 0.69582 0.0
H2377 H 0.43209 0.23447 0.68701 0.0
H2378 H 0.38414 0.24365 0.71432 0.0
C2379 C 0.45713 0.32366 0.73497 0.0
C2380 C 0.48137 0.33784 0.73348 0.0
C2381 C 0.49338 0.33166 0.72338 0.0
C2382 C 0.48171 0.31184 0.71505 0.0
C2383 C 0.45795 0.29826 0.71687 0.0
C2384 C 0.44572 0.30389 0.72652 0.0
C2385 C 0.42022 0.28612 0.72638 0.0
C2386 C 0.41238 0.27498 0.74158 0.0
C2387 C 0.40548 0.2963 0.72117 0.0
C2388 C 0.42008 0.26962 0.71518 0.0
C2389 C 0.4421 0.27701 0.7099 0.0
C2390 C 0.44665 0.26457 0.69975 0.0
C2391 C 0.42826 0.24414 0.69474 0.0
C2392 C 0.40535 0.23624 0.6997 0.0
C2393 C 0.40133 0.24921 0.71017 0.0
H2394 H 0.6871 0.11 0.73339 0.0
H2395 H 0.69424 0.17543 0.72392 0.0
H2396 H 0.73048 0.18644 0.71061 0.0
H2397 H 0.74556 0.12981 0.74109 0.0
H2398 H 0.74643 0.1063 0.73288 0.0
H2399 H 0.71975 0.10256 0.74018 0.0
H2400 H 0.69991 0.08742 0.71496 0.0
H2401 H 0.72662 0.09112 0.70761 0.0
H2402 H 0.71228 0.10428 0.69867 0.0
H2403 H 0.76799 0.19179 0.70042 0.0
H2404 H 0.8033 0.19091 0.69418 0.0
H2405 H 0.77226 0.12214 0.71012 0.0
C2406 C 0.69615 0.12662 0.72846 0.0
C2407 C 0.68757 0.14178 0.72972 0.0
C2408 C 0.70006 0.16329 0.72294 0.0
C2409 C 0.72079 0.16976 0.7154 0.0
C2410 C 0.72889 0.15455 0.7146 0.0
C2411 C 0.71689 0.13337 0.72089 0.0
C2412 C 0.72998 0.12065 0.71915 0.0
C2413 C 0.73577 0.11448 0.73422 0.0
C2414 C 0.71638 0.09962 0.70952 0.0
C2415 C 0.75154 0.13824 0.71132 0.0
C2416 C 0.75043 0.15757 0.70863 0.0
C2417 C 0.76881 0.17657 0.70223 0.0
C2418 C 0.78885 0.17586 0.69862 0.0
C2419 C 0.79041 0.15623 0.70121 0.0
C2420 C 0.7714 0.1372 0.70766 0.0
H2421 H 0.84992 0.52799 0.71953 0.0
H2422 H 0.92058 0.56614 0.73521 0.0
H2423 H 0.92323 0.60112 0.72577 0.0
H2424 H 0.85866 0.56035 0.68585 0.0
H2425 H 0.83113 0.5591 0.68688 0.0
H2426 H 0.83453 0.53662 0.69457 0.0
H2427 H 0.82001 0.54201 0.71981 0.0
H2428 H 0.81635 0.56431 0.71213 0.0
H2429 H 0.83404 0.56951 0.72823 0.0
H2430 H 0.91829 0.63197 0.71545 0.0
H2431 H 0.90547 0.65741 0.70556 0.0
H2432 H 0.83821 0.59994 0.69578 0.0
C2433 C 0.86601 0.54368 0.72085 0.0
C2434 C 0.88503 0.54427 0.7282 0.0
C2435 C 0.90566 0.56523 0.72986 0.0
C2436 C 0.90742 0.58519 0.7244 0.0
C2437 C 0.88844 0.584 0.71723 0.0
C2438 C 0.86809 0.56385 0.71545 0.0
C2439 C 0.85009 0.56755 0.70768 0.0
C2440 C 0.8432 0.55517 0.69286 0.0
C2441 C 0.82887 0.56042 0.71755 0.0
C2442 C 0.86351 0.59293 0.7055 0.0
C2443 C 0.88563 0.60198 0.71105 0.0
C2444 C 0.90109 0.62508 0.71096 0.0
C2445 C 0.89363 0.63939 0.70531 0.0
C2446 C 0.8709 0.63063 0.69985 0.0
C2447 C 0.85579 0.60704 0.69966 0.0
H2448 H 0.44407 0.91547 0.17988 0.0
H2449 H 0.51188 0.96024 0.1981 0.0
H2450 H 0.5254 0.97752 0.17359 0.0
H2451 H 0.46323 0.90798 0.14372 0.0
H2452 H 0.43951 0.90808 0.13436 0.0
H2453 H 0.43598 0.89784 0.15298 0.0
H2454 H 0.42317 0.9263 0.16095 0.0
H2455 H 0.42665 0.93658 0.14238 0.0
H2456 H 0.44173 0.95591 0.15716 0.0
H2457 H 0.53052 0.99206 0.14717 0.0
H2458 H 0.52641 1.00262 0.12177 0.0
H2459 H 0.45528 0.94817 0.12114 0.0
C2460 C 0.46181 0.92885 0.17876 0.0
C2461 C 0.47688 0.93642 0.19101 0.0
C2462 C 0.50004 0.95384 0.18891 0.0
C2463 C 0.50787 0.96386 0.17501 0.0
C2464 C 0.49241 0.95621 0.16325 0.0
C2465 C 0.46988 0.93902 0.16501 0.0
C2466 C 0.45629 0.93462 0.15089 0.0
C2467 C 0.44829 0.91071 0.14515 0.0
C2468 C 0.43576 0.9386 0.15297 0.0
C2469 C 0.47451 0.95234 0.14096 0.0
C2470 C 0.49531 0.96453 0.14821 0.0
C2471 C 0.51436 0.98243 0.14137 0.0
C2472 C 0.51191 0.98824 0.12689 0.0
C2473 C 0.49052 0.97629 0.1194 0.0
C2474 C 0.47182 0.95782 0.12654 0.0
H2475 H 0.04199 0.49964 0.19199 0.0
H2476 H 0.0982 0.56797 0.18497 0.0
H2477 H 0.08415 0.56729 0.15975 0.0
H2478 H 0.04281 0.47919 0.15569 0.0
H2479 H 1.0119 0.46152 0.15466 0.0
H2480 H 0.02618 0.46755 0.17223 0.0
H2481 H 1.00011 0.4829 0.1817 0.0
H2482 H 0.98575 0.47691 0.16416 0.0
H2483 H 0.99892 0.50501 0.17162 0.0
H2484 H 0.06416 0.5589 0.13507 0.0
H2485 H 0.03934 0.54382 0.11313 0.0
H2486 H 0.99665 0.48067 0.13611 0.0
C2487 C 0.05146 0.51443 0.18514 0.0
C2488 C 0.07123 0.53388 0.19053 0.0
C2489 C 0.08285 0.55298 0.18121 0.0
C2490 C 0.07509 0.5527 0.16682 0.0
C2491 C 0.05562 0.53322 0.16187 0.0
C2492 C 0.04394 0.51445 0.17076 0.0
C2493 C 0.02348 0.49564 0.16279 0.0
C2494 C 0.02627 0.47474 0.16125 0.0
C2495 C 1.00072 0.48978 0.17053 0.0
C2496 C 0.02543 0.50676 0.14802 0.0
C2497 C 0.04413 0.5284 0.1477 0.0
C2498 C 0.04949 0.54195 0.13521 0.0
C2499 C 0.03535 0.53317 0.12276 0.0
C2500 C 0.01601 0.51103 0.12284 0.0
C2501 C 1.0111 0.49774 0.13571 0.0
H2502 H 0.4983 0.55828 0.1846 0.0
H2503 H 0.44256 0.48902 0.18849 0.0
H2504 H 0.45163 0.48079 0.16382 0.0
H2505 H 0.49004 0.56469 0.14596 0.0
H2506 H 0.52042 0.58158 0.142 0.0
H2507 H 0.50978 0.58221 0.16007 0.0
H2508 H 0.5382 0.5711 0.17153 0.0
H2509 H 0.54895 0.57048 0.15349 0.0
H2510 H 0.53794 0.54601 0.16523 0.0
H2511 H 0.46736 0.4795 0.13917 0.0
H2512 H 0.48805 0.48545 0.11583 0.0
H2513 H 0.53229 0.55619 0.12689 0.0
C2514 C 0.48809 0.54138 0.18026 0.0
C2515 C 0.46961 0.52432 0.18847 0.0
C2516 C 0.45657 0.50245 0.18235 0.0
C2517 C 0.46166 0.49756 0.16837 0.0
C2518 C 0.47982 0.51473 0.16053 0.0
C2519 C 0.49281 0.53622 0.16619 0.0
C2520 C 0.51127 0.55158 0.15533 0.0
C2521 C 0.50765 0.57117 0.15056 0.0
C2522 C 0.53553 0.5603 0.16179 0.0
C2523 C 0.50663 0.5353 0.14276 0.0
C2524 C 0.48849 0.51413 0.14604 0.0
C2525 C 0.48142 0.4961 0.13639 0.0
C2526 C 0.49321 0.49975 0.12302 0.0
C2527 C 0.51181 0.52138 0.11924 0.0
C2528 C 0.51839 0.53937 0.12934 0.0
H2529 H 0.9811 0.50704 0.8509 0.0
H2530 H 0.91524 0.44737 0.86029 0.0
H2531 H 0.92757 0.44776 0.88596 0.0
H2532 H 0.01584 0.49231 0.87325 0.0
H2533 H 0.03489 0.52083 0.87923 0.0
H2534 H 0.02084 0.51571 0.86162 0.0
H2535 H 1.00365 0.5409 0.86897 0.0
H2536 H 0.01761 0.54604 0.88661 0.0
H2537 H 0.98684 0.53466 0.88557 0.0
H2538 H 0.94719 0.45493 0.91078 0.0
H2539 H 0.97295 0.46751 0.93241 0.0
H2540 H 0.02548 0.52305 0.90683 0.0
C2541 C 0.96918 0.49412 0.85836 0.0
C2542 C 0.94718 0.47715 0.85354 0.0
C2543 C 0.93229 0.46037 0.86365 0.0
C2544 C 0.93907 0.46055 0.87828 0.0
C2545 C 0.96082 0.4776 0.88267 0.0
C2546 C 0.97567 0.49403 0.87299 0.0
C2547 C 0.99818 0.51039 0.88041 0.0
C2548 C 0.01864 0.50976 0.8732 0.0
C2549 C 1.00177 0.53442 0.88039 0.0
C2550 C 0.99372 0.50058 0.89579 0.0
C2551 C 0.97206 0.48172 0.8969 0.0
C2552 C 0.96416 0.46973 0.91003 0.0
C2553 C 0.97888 0.4771 0.9223 0.0
C2554 C 1.00129 0.49629 0.92137 0.0
C2555 C 1.0086 0.50818 0.9079 0.0
H2556 H 0.52426 0.48763 0.851 0.0
H2557 H 0.58463 0.48331 0.86343 0.0
H2558 H 0.57904 0.49021 0.8893 0.0
H2559 H 0.5341 0.53234 0.87513 0.0
H2560 H 0.5041 0.52139 0.87957 0.0
H2561 H 0.51203 0.51491 0.86211 0.0
H2562 H 0.48621 0.47217 0.86738 0.0
H2563 H 0.47813 0.47853 0.88484 0.0
H2564 H 0.49052 0.46043 0.88404 0.0
H2565 H 0.5686 0.50031 0.91355 0.0
H2566 H 0.55313 0.51114 0.93457 0.0
H2567 H 0.49832 0.5072 0.90677 0.0
C2568 C 0.53625 0.48805 0.85917 0.0
C2569 C 0.55485 0.48481 0.85514 0.0
C2570 C 0.57005 0.48537 0.86623 0.0
C2571 C 0.5671 0.48942 0.88096 0.0
C2572 C 0.54876 0.49274 0.88452 0.0
C2573 C 0.53346 0.49191 0.87398 0.0
C2574 C 0.51536 0.49634 0.88073 0.0
C2575 C 0.51648 0.5175 0.87398 0.0
C2576 C 0.49112 0.47563 0.87915 0.0
C2577 C 0.52313 0.50021 0.89666 0.0
C2578 C 0.54242 0.49805 0.8986 0.0
C2579 C 0.55327 0.50169 0.91221 0.0
C2580 C 0.54418 0.5077 0.92415 0.0
C2581 C 0.52425 0.50987 0.92252 0.0
C2582 C 0.51364 0.50592 0.9085 0.0
H2583 H 0.54184 0.04781 0.85095 0.0
H2584 H 0.54438 0.11075 0.86182 0.0
H2585 H 0.53822 0.09968 0.88796 0.0
H2586 H 0.49688 0.01321 0.87563 0.0
H2587 H 0.50881 0.99558 0.88058 0.0
H2588 H 0.51499 0.00904 0.86284 0.0
H2589 H 0.55883 0.02758 0.868 0.0
H2590 H 0.55276 0.01411 0.88576 0.0
H2591 H 0.57069 0.0443 0.88434 0.0
H2592 H 0.52901 0.08059 0.91282 0.0
H2593 H 0.51828 0.05535 0.93434 0.0
H2594 H 0.52285 1.00522 0.90758 0.0
C2595 C 0.54121 0.05932 0.85883 0.0
C2596 C 0.54376 0.08027 0.85424 0.0
C2597 C 0.54291 0.09482 0.865 0.0
C2598 C 0.53927 0.08862 0.8799 0.0
C2599 C 0.53662 0.06782 0.884 0.0
C2600 C 0.5377 0.05344 0.8738 0.0
C2601 C 0.53375 0.0318 0.88106 0.0
C2602 C 0.51233 0.01119 0.87464 0.0
C2603 C 0.5553 0.02931 0.87971 0.0
C2604 C 0.52977 0.03604 0.89687 0.0
C2605 C 0.53161 0.05695 0.89835 0.0
C2606 C 0.52783 0.06428 0.91181 0.0
C2607 C 0.52188 0.04983 0.92404 0.0
C2608 C 0.51976 0.0282 0.92282 0.0
C2609 C 0.52405 0.02148 0.90898 0.0
H2610 H 0.1728 0.28581 0.52321 0.0
H2611 H 0.09918 0.24389 0.51562 0.0
H2612 H 0.10443 0.25752 0.49005 0.0
H2613 H 0.18033 0.33317 0.50224 0.0
H2614 H 0.20812 0.33992 0.49499 0.0
H2615 H 0.19887 0.32603 0.51253 0.0
H2616 H 0.20527 0.29375 0.50333 0.0
H2617 H 0.21455 0.30756 0.48575 0.0
H2618 H 0.19114 0.27885 0.48675 0.0
H2619 H 0.11728 0.27711 0.4655 0.0
H2620 H 0.13685 0.30106 0.44397 0.0
H2621 H 0.20228 0.3298 0.46714 0.0
C2622 C 0.15777 0.27946 0.51618 0.0
C2623 C 0.13556 0.26356 0.5215 0.0
C2624 C 0.11643 0.25568 0.51182 0.0
C2625 C 0.11921 0.26344 0.49725 0.0
C2626 C 0.14126 0.2791 0.49239 0.0
C2627 C 0.16024 0.28698 0.50154 0.0
C2628 C 0.182 0.30411 0.49361 0.0
C2629 C 0.19297 0.32717 0.5013 0.0
C2630 C 0.19925 0.29555 0.49229 0.0
C2631 C 0.17219 0.30492 0.47871 0.0
C2632 C 0.14868 0.29028 0.47821 0.0
C2633 C 0.13574 0.28848 0.46573 0.0
C2634 C 0.14708 0.30208 0.45348 0.0
C2635 C 0.1712 0.31739 0.45371 0.0
C2636 C 0.18382 0.31853 0.46655 0.0
H2637 H 0.70941 0.83626 0.52322 0.0
H2638 H 0.76892 0.90286 0.51671 0.0
H2639 H 0.75716 0.9025 0.49089 0.0
H2640 H 0.71139 0.8142 0.48767 0.0
H2641 H 0.68045 0.798 0.48584 0.0
H2642 H 0.69346 0.80369 0.50381 0.0
H2643 H 0.66884 0.82151 0.51169 0.0
H2644 H 0.65572 0.81582 0.49376 0.0
H2645 H 0.6699 0.84415 0.5009 0.0
H2646 H 0.73873 0.89459 0.46555 0.0
H2647 H 0.71463 0.88033 0.44323 0.0
H2648 H 0.66808 0.81844 0.46631 0.0
C2649 C 0.72012 0.85073 0.51636 0.0
C2650 C 0.74013 0.8696 0.52205 0.0
C2651 C 0.75336 0.88832 0.5127 0.0
C2652 C 0.74691 0.8882 0.49798 0.0
C2653 C 0.72718 0.86925 0.49273 0.0
C2654 C 0.71396 0.85088 0.50167 0.0
C2655 C 0.69347 0.83264 0.49342 0.0
C2656 C 0.69478 0.81085 0.49264 0.0
C2657 C 0.67064 0.82828 0.50036 0.0
C2658 C 0.69712 0.84361 0.47845 0.0
C2659 C 0.71668 0.86469 0.47823 0.0
C2660 C 0.72342 0.87806 0.46561 0.0
C2661 C 0.70968 0.86975 0.45293 0.0
C2662 C 0.68939 0.84824 0.45296 0.0
C2663 C 0.68327 0.83505 0.46593 0.0
H2664 H 0.17984 0.87262 0.52409 0.0
H2665 H 0.11263 0.86513 0.51494 0.0
H2666 H 0.11479 0.85379 0.48949 0.0
H2667 H 0.20522 0.89665 0.48911 0.0
H2668 H 0.22176 0.88244 0.48818 0.0
H2669 H 0.21456 0.88929 0.50577 0.0
H2670 H 0.19544 0.84732 0.51363 0.0
H2671 H 0.20264 0.84035 0.49608 0.0
H2672 H 0.17311 0.82599 0.5023 0.0
H2673 H 0.12472 0.84356 0.46467 0.0
H2674 H 0.14101 0.83455 0.4431 0.0
H2675 H 0.20249 0.8506 0.46832 0.0
C2676 C 0.16558 0.86875 0.51675 0.0
C2677 C 0.14603 0.8698 0.52164 0.0
C2678 C 0.12766 0.86417 0.51162 0.0
C2679 C 0.12881 0.85787 0.49707 0.0
C2680 C 0.14844 0.85725 0.49262 0.0
C2681 C 0.16648 0.86251 0.5022 0.0
C2682 C 0.18571 0.86067 0.49471 0.0
C2683 C 0.20814 0.88363 0.49443 0.0
C2684 C 0.18944 0.8425 0.50212 0.0
C2685 C 0.17572 0.85352 0.47942 0.0
C2686 C 0.15421 0.85164 0.47841 0.0
C2687 C 0.14159 0.84508 0.46535 0.0
C2688 C 0.15111 0.84015 0.45309 0.0
C2689 C 0.17312 0.84183 0.45389 0.0
C2690 C 0.18552 0.84879 0.46729 0.0
H2691 H 0.65534 0.84901 0.18145 0.0
H2692 H 0.59606 0.78285 0.1897 0.0
H2693 H 0.60998 0.78369 0.21497 0.0
H2694 H 0.69649 0.84113 0.20225 0.0
H2695 H 0.71147 0.86962 0.20911 0.0
H2696 H 0.69697 0.86363 0.19162 0.0
H2697 H 0.67336 0.88202 0.20051 0.0
H2698 H 0.68776 0.88802 0.21804 0.0
H2699 H 0.65671 0.87203 0.21719 0.0
H2700 H 0.63022 0.79201 0.23954 0.0
H2701 H 0.65561 0.80673 0.26125 0.0
H2702 H 0.70111 0.86792 0.23714 0.0
C2703 C 0.64518 0.83473 0.18858 0.0
C2704 C 0.62457 0.81583 0.18353 0.0
C2705 C 0.61204 0.79738 0.1932 0.0
C2706 C 0.61973 0.79777 0.20762 0.0
C2707 C 0.64002 0.81671 0.21224 0.0
C2708 C 0.65259 0.83483 0.203 0.0
C2709 C 0.67382 0.85315 0.21065 0.0
C2710 C 0.696 0.85711 0.20295 0.0
C2711 C 0.67284 0.8751 0.21166 0.0
C2712 C 0.67126 0.84251 0.22566 0.0
C2713 C 0.65162 0.82151 0.22637 0.0
C2714 C 0.64561 0.80845 0.23911 0.0
C2715 C 0.66009 0.81704 0.25142 0.0
C2716 C 0.68038 0.83853 0.25096 0.0
C2717 C 0.6859 0.85135 0.23784 0.0
H2718 H 0.22204 0.85229 0.18555 0.0
H2719 H 0.21311 0.78552 0.19206 0.0
H2720 H 0.19959 0.785 0.2174 0.0
H2721 H 0.24337 0.87311 0.222 0.0
H2722 H 0.22876 0.88919 0.22318 0.0
H2723 H 0.2376 0.8842 0.20555 0.0
H2724 H 0.19557 0.86663 0.19605 0.0
H2725 H 0.18663 0.87161 0.21363 0.0
H2726 H 0.17262 0.84356 0.20603 0.0
H2727 H 0.18703 0.79196 0.24227 0.0
H2728 H 0.17537 0.80526 0.26412 0.0
H2729 H 0.19368 0.86791 0.24146 0.0
C2730 C 0.21744 0.83761 0.19231 0.0
C2731 C 0.21867 0.81893 0.18672 0.0
C2732 C 0.21206 0.79992 0.19595 0.0
C2733 C 0.20452 0.79954 0.21042 0.0
C2734 C 0.20364 0.81828 0.21557 0.0
C2735 C 0.2099 0.83694 0.20677 0.0
C2736 C 0.20722 0.85484 0.21486 0.0
C2737 C 0.23063 0.87662 0.2165 0.0
C2738 C 0.18945 0.85942 0.20718 0.0
C2739 C 0.19833 0.84331 0.22957 0.0
C2740 C 0.19648 0.82227 0.22981 0.0
C2741 C 0.18849 0.80844 0.24221 0.0
C2742 C 0.18204 0.81622 0.25462 0.0
C2743 C 0.18354 0.83765 0.25458 0.0
C2744 C 0.192 0.85134 0.24185 0.0
H2745 H 0.23761 0.40395 0.18789 0.0
H2746 H 0.18051 0.41689 0.19125 0.0
H2747 H 0.1714 0.39966 0.21594 0.0
H2748 H 0.20969 0.35013 0.20564 0.0
H2749 H 0.2352 0.35427 0.21511 0.0
H2750 H 0.23783 0.36843 0.19791 0.0
H2751 H 0.26473 0.40691 0.21026 0.0
H2752 H 0.26211 0.39285 0.22752 0.0
H2753 H 0.25496 0.41496 0.22639 0.0
H2754 H 0.16718 0.37919 0.23996 0.0
H2755 H 0.16823 0.3571 0.26114 0.0
H2756 H 0.22903 0.35884 0.24275 0.0
C2757 C 0.2232 0.40318 0.19382 0.0
C2758 C 0.20991 0.41199 0.18758 0.0
C2759 C 0.19125 0.41067 0.19581 0.0
C2760 C 0.18584 0.40079 0.20986 0.0
C2761 C 0.19929 0.39234 0.21568 0.0
C2762 C 0.21765 0.3935 0.20795 0.0
C2763 C 0.22915 0.38285 0.21666 0.0
C2764 C 0.22788 0.36273 0.20833 0.0
C2765 C 0.25422 0.40045 0.22043 0.0
C2766 C 0.21413 0.37517 0.23034 0.0
C2767 C 0.19705 0.38086 0.22959 0.0
C2768 C 0.18064 0.37484 0.24072 0.0
C2769 C 0.18149 0.3624 0.25281 0.0
C2770 C 0.19867 0.35605 0.25376 0.0
C2771 C 0.2154 0.363 0.24239 0.0
H2772 H 0.84195 0.63029 0.8528 0.0
H2773 H 0.76788 0.60253 0.84973 0.0
H2774 H 0.77258 0.61896 0.82496 0.0
H2775 H 0.85811 0.6825 0.8348 0.0
H2776 H 0.88237 0.68387 0.82523 0.0
H2777 H 0.87314 0.66912 0.8425 0.0
H2778 H 0.8688 0.63305 0.83027 0.0
H2779 H 0.87798 0.6477 0.81295 0.0
H2780 H 0.8508 0.62174 0.81423 0.0
H2781 H 0.78551 0.6404 0.80095 0.0
H2782 H 0.80562 0.66475 0.77969 0.0
H2783 H 0.87115 0.677 0.79761 0.0
C2784 C 0.82672 0.62763 0.8469 0.0
C2785 C 0.8045 0.61492 0.85326 0.0
C2786 C 0.78504 0.61182 0.84508 0.0
C2787 C 0.78754 0.6212 0.83099 0.0
C2788 C 0.80963 0.6336 0.82506 0.0
C2789 C 0.82888 0.63673 0.83272 0.0
C2790 C 0.85069 0.65104 0.82388 0.0
C2791 C 0.86704 0.67293 0.83209 0.0
C2792 C 0.86278 0.63757 0.82011 0.0
C2793 C 0.84072 0.6558 0.81022 0.0
C2794 C 0.817 0.64556 0.8111 0.0
C2795 C 0.80409 0.64829 0.80007 0.0
C2796 C 0.81571 0.66208 0.78792 0.0
C2797 C 0.84011 0.67301 0.78678 0.0
C2798 C 0.85257 0.66933 0.79808 0.0
H2799 H 0.3859 0.22352 0.85056 0.0
H2800 H 0.42206 0.18559 0.84953 0.0
H2801 H 0.40826 0.17345 0.82417 0.0
H2802 H 0.3357 0.1829 0.83116 0.0
H2803 H 0.33187 0.20383 0.8215 0.0
H2804 H 0.3454 0.21017 0.83931 0.0
H2805 H 0.38114 0.24528 0.82844 0.0
H2806 H 0.36774 0.23901 0.81058 0.0
H2807 H 0.39589 0.24197 0.81291 0.0
H2808 H 0.38966 0.16483 0.79895 0.0
H2809 H 0.36726 0.15987 0.77626 0.0
H2810 H 0.34299 0.20307 0.79415 0.0
C2811 C 0.39079 0.21249 0.84509 0.0
C2812 C 0.40509 0.20553 0.85211 0.0
C2813 C 0.41138 0.19142 0.84437 0.0
C2814 C 0.40353 0.18434 0.82998 0.0
C2815 C 0.38939 0.19148 0.82345 0.0
C2816 C 0.38307 0.20522 0.83078 0.0
C2817 C 0.3674 0.21024 0.82145 0.0
C2818 C 0.34369 0.20124 0.82879 0.0
C2819 C 0.37873 0.23563 0.81815 0.0
C2820 C 0.3657 0.19701 0.80775 0.0
C2821 C 0.3786 0.18641 0.80906 0.0
C2822 C 0.37955 0.17312 0.7978 0.0
C2823 C 0.36687 0.17049 0.78492 0.0
C2824 C 0.35333 0.18105 0.78341 0.0
C2825 C 0.35292 0.19455 0.79501 0.0
H2826 H 0.84384 0.21989 0.85676 0.0
H2827 H 0.77017 0.1875 0.84851 0.0
H2828 H 0.77652 0.18007 0.82295 0.0
H2829 H 0.86227 0.24598 0.8207 0.0
H2830 H 0.8865 0.24132 0.81981 0.0
H2831 H 0.87636 0.24497 0.83736 0.0
H2832 H 0.8714 0.20678 0.84622 0.0
H2833 H 0.88152 0.20302 0.82871 0.0
H2834 H 0.85389 0.18166 0.83563 0.0
H2835 H 0.79055 0.17452 0.79853 0.0
H2836 H 0.81131 0.17151 0.77706 0.0
H2837 H 0.87603 0.20819 0.80083 0.0
C2838 C 0.82904 0.21124 0.84959 0.0
C2839 C 0.80649 0.20446 0.8547 0.0
C2840 C 0.78765 0.19328 0.84486 0.0
C2841 C 0.79106 0.18885 0.83031 0.0
C2842 C 0.81344 0.19571 0.82565 0.0
C2843 C 0.83214 0.20674 0.83497 0.0
C2844 C 0.85437 0.21198 0.82724 0.0
C2845 C 0.87084 0.23759 0.82621 0.0
C2846 C 0.86597 0.20015 0.83491 0.0
C2847 C 0.84519 0.20189 0.81221 0.0
C2848 C 0.82155 0.19266 0.81152 0.0
C2849 C 0.80911 0.18189 0.7989 0.0
C2850 C 0.82112 0.18041 0.78669 0.0
C2851 C 0.84541 0.18968 0.78711 0.0
C2852 C 0.85748 0.2007 0.8001 0.0
H2853 H 0.30914 0.14239 0.51497 0.0
H2854 H 0.26358 0.16864 0.52524 0.0
H2855 H 0.27793 0.17567 0.55073 0.0
H2856 H 0.30428 0.11526 0.55043 0.0
H2857 H 0.33417 0.12256 0.55071 0.0
H2858 H 0.3194 0.11835 0.53343 0.0
H2859 H 0.35076 0.15818 0.52489 0.0
H2860 H 0.36557 0.16252 0.54215 0.0
H2861 H 0.35698 0.18233 0.53603 0.0
H2862 H 0.2988 0.18203 0.57469 0.0
H2863 H 0.3241 0.18646 0.59562 0.0
H2864 H 0.35579 0.15549 0.57014 0.0
C2865 C 0.30213 0.14957 0.52258 0.0
C2866 C 0.28507 0.15482 0.51806 0.0
C2867 C 0.27631 0.16407 0.52844 0.0
C2868 C 0.28447 0.16827 0.54295 0.0
C2869 C 0.30139 0.16309 0.54699 0.0
C2870 C 0.31006 0.15384 0.53715 0.0
C2871 C 0.32855 0.15031 0.54426 0.0
C2872 C 0.32115 0.12512 0.54474 0.0
C2873 C 0.35184 0.16416 0.53636 0.0
C2874 C 0.32918 0.15938 0.55954 0.0
C2875 C 0.31331 0.16659 0.56089 0.0
C2876 C 0.3111 0.17619 0.57382 0.0
C2877 C 0.3255 0.1785 0.58571 0.0
C2878 C 0.34191 0.17118 0.58466 0.0
C2879 C 0.34361 0.16143 0.57134 0.0
H2880 H 0.87677 0.17096 0.51738 0.0
H2881 H 0.88757 0.11442 0.52575 0.0
H2882 H 0.87571 0.11332 0.5516 0.0
H2883 H 0.89822 0.19859 0.55233 0.0
H2884 H 0.87719 0.20765 0.55374 0.0
H2885 H 0.88657 0.20399 0.53593 0.0
H2886 H 0.84414 0.17635 0.52858 0.0
H2887 H 0.83464 0.18 0.54635 0.0
H2888 H 0.82676 0.15212 0.54001 0.0
H2889 H 0.86255 0.11847 0.57667 0.0
H2890 H 0.84766 0.12846 0.59855 0.0
H2891 H 0.84645 0.18218 0.57379 0.0
C2892 C 0.87683 0.15845 0.52466 0.0
C2893 C 0.88312 0.14277 0.5195 0.0
C2894 C 0.88257 0.12644 0.52937 0.0
C2895 C 0.87602 0.12579 0.54411 0.0
C2896 C 0.87005 0.14157 0.54883 0.0
C2897 C 0.87033 0.15755 0.53938 0.0
C2898 C 0.86279 0.17238 0.54712 0.0
C2899 C 0.88236 0.19711 0.54729 0.0
C2900 C 0.84078 0.17006 0.5401 0.0
C2901 C 0.85808 0.16218 0.56239 0.0
C2902 C 0.86248 0.1445 0.5632 0.0
C2903 C 0.85913 0.13234 0.57617 0.0
C2904 C 0.8508 0.13823 0.58857 0.0
C2905 C 0.84584 0.15609 0.58792 0.0
C2906 C 0.8498 0.16828 0.57464 0.0
H2907 H 0.84344 0.70844 0.51886 0.0
H2908 H 0.91128 0.76644 0.52646 0.0
H2909 H 0.90985 0.75425 0.55223 0.0
H2910 H 0.81943 0.70991 0.55382 0.0
H2911 H 0.80259 0.67965 0.55549 0.0
H2912 H 0.80939 0.69262 0.53757 0.0
H2913 H 0.82776 0.66845 0.53026 0.0
H2914 H 0.82096 0.65537 0.54814 0.0
H2915 H 0.85029 0.66916 0.54155 0.0
H2916 H 0.90044 0.7356 0.57762 0.0
H2917 H 0.8845 0.71179 0.59979 0.0
H2918 H 0.82216 0.66725 0.57558 0.0
C2919 C 0.85799 0.71873 0.52592 0.0
C2920 C 0.87749 0.73847 0.52052 0.0
C2921 C 0.89626 0.7511 0.53018 0.0
C2922 C 0.89554 0.74439 0.54491 0.0
C2923 C 0.87591 0.725 0.54987 0.0
C2924 C 0.85752 0.71234 0.54062 0.0
C2925 C 0.83836 0.69227 0.54861 0.0
C2926 C 0.81613 0.69371 0.54889 0.0
C2927 C 0.8341 0.67 0.54173 0.0
C2928 C 0.84881 0.69553 0.56382 0.0
C2929 C 0.87047 0.71449 0.56437 0.0
C2930 C 0.88346 0.72075 0.57729 0.0
C2931 C 0.87416 0.70719 0.58989 0.0
C2932 C 0.85202 0.68752 0.58954 0.0
C2933 C 0.83924 0.6819 0.57627 0.0
loop_
_geom_bond_atom_site_label_1
_geom_bond_atom_site_label_2
_geom_bond_distance
_geom_bond_site_symmetry_2
_ccdc_geom_bond_type
C0 C1 1.264 . S
C0 C5 1.479 . S
C0 C10 1.465 . S
C1 C0 1.264 . S
C1 C3 1.339 . S
C1 H28 0.931 . S
C2 C3 1.395 . S
C2 C4 1.320 . S
C3 C1 1.339 . S
C3 C2 1.395 . S
C3 H29 0.929 . S
C4 C2 1.320 . S
C4 C5 1.405 . S
C4 H30 0.930 . S
C5 C0 1.479 . S
C5 C4 1.405 . S
C5 H31 0.931 . S
U6 O7 2.454 . S
U6 O8 2.458 . S
U6 C9 2.984 . S
U6 C10 2.847 . S
U6 C23 2.882 . S
U6 O24 2.441 . S
U6 O25 2.420 . S
U6 O26 2.455 . S
U6 O27 2.449 . S
O7 U6 2.454 . S
O7 C9 1.353 . S
O8 U6 2.458 . S
O8 C9 1.286 . S
C9 U6 2.984 . S
C9 O7 1.353 . S
C9 O8 1.286 . S
C9 C11 1.363 . S
C10 C0 1.465 . S
C10 U6 2.847 . S
C10 O24 1.249 . S
C10 O25 1.202 . S
C11 C9 1.363 . S
C11 C13 1.408 . S
C11 C16 1.342 . S
C12 C13 1.310 . S
C12 C15 1.461 . S
C12 H32 0.932 . S
C13 C11 1.408 . S
C13 C12 1.310 . S
C13 H33 0.930 . S
C14 C15 1.474 . S
C14 C16 1.285 . S
C14 H34 0.929 . S
C15 C12 1.461 . S
C15 C14 1.474 . S
C16 C11 1.342 . S
C16 C14 1.285 . S
C16 H35 0.930 . S
C17 C20 1.424 . S
C17 C22 1.245 . S
C17 C23 1.428 . S
C18 C21 1.260 . S
C18 C22 1.477 . S
C18 H36 0.932 . S
C19 C20 1.384 . S
C19 C21 1.479 . S
C19 H37 0.929 . S
C20 C17 1.424 . S
C20 C19 1.384 . S
C20 H38 0.928 . S
C21 C18 1.260 . S
C21 C19 1.479 . S
C22 C17 1.245 . S
C22 C18 1.477 . S
C22 H39 0.932 . S
C23 U6 2.882 . S
C23 C17 1.428 . S
C23 O26 1.301 . S
C23 O27 1.282 . S
O24 U6 2.441 . S
O24 C10 1.249 . S
O25 U6 2.420 . S
O25 C10 1.202 . S
O26 U6 2.455 . S
O26 C23 1.301 . S
O27 U6 2.449 . S
O27 C23 1.282 . S
H28 C1 0.931 . S
H29 C3 0.929 . S
H30 C4 0.930 . S
H31 C5 0.931 . S
H32 C12 0.932 . S
H33 C13 0.930 . S
H34 C14 0.929 . S
H35 C16 0.930 . S
H36 C18 0.932 . S
H37 C19 0.929 . S
H38 C20 0.928 . S
H39 C22 0.932 . S
C40 C41 1.264 . S
C40 C45 1.479 . S
C40 C50 1.465 . S
C41 C40 1.264 . S
C41 C43 1.339 . S
C41 H68 0.931 . S
C42 C43 1.395 . S
C42 C44 1.320 . S
C43 C41 1.339 . S
C43 C42 1.395 . S
C43 H69 0.929 . S
C44 C42 1.320 . S
C44 C45 1.405 . S
C44 H70 0.930 . S
C45 C40 1.479 . S
C45 C44 1.405 . S
C45 H71 0.931 . S
U46 O47 2.454 . S
U46 O48 2.458 . S
U46 C49 2.984 . S
U46 C50 2.847 . S
U46 C63 2.882 . S
U46 O64 2.441 . S
U46 O65 2.420 . S
U46 O66 2.455 . S
U46 O67 2.449 . S
O47 U46 2.454 . S
O47 C49 1.353 . S
O48 U46 2.458 . S
O48 C49 1.286 . S
C49 U46 2.984 . S
C49 O47 1.353 . S
C49 O48 1.286 . S
C49 C51 1.363 . S
C50 C40 1.465 . S
C50 U46 2.847 . S
C50 O64 1.249 . S
C50 O65 1.202 . S
C51 C49 1.363 . S
C51 C53 1.408 . S
C51 C56 1.342 . S
C52 C53 1.310 . S
C52 C55 1.461 . S
C52 H72 0.932 . S
C53 C51 1.408 . S
C53 C52 1.310 . S
C53 H73 0.930 . S
C54 C55 1.474 . S
C54 C56 1.285 . S
C54 H74 0.929 . S
C55 C52 1.461 . S
C55 C54 1.474 . S
C56 C51 1.342 . S
C56 C54 1.285 . S
C56 H75 0.930 . S
C57 C60 1.424 . S
C57 C62 1.245 . S
C57 C63 1.428 . S
C58 C61 1.260 . S
C58 C62 1.477 . S
C58 H76 0.932 . S
C59 C60 1.384 . S
C59 C61 1.479 . S
C59 H77 0.929 . S
C60 C57 1.424 . S
C60 C59 1.384 . S
C60 H78 0.928 . S
C61 C58 1.260 . S
C61 C59 1.479 . S
C62 C57 1.245 . S
C62 C58 1.477 . S
C62 H79 0.932 . S
C63 U46 2.882 . S
C63 C57 1.428 . S
C63 O66 1.301 . S
C63 O67 1.282 . S
O64 U46 2.441 . S
O64 C50 1.249 . S
O65 U46 2.420 . S
O65 C50 1.202 . S
O66 U46 2.455 . S
O66 C63 1.301 . S
O67 U46 2.449 . S
O67 C63 1.282 . S
H68 C41 0.931 . S
H69 C43 0.929 . S
H70 C44 0.930 . S
H71 C45 0.931 . S
H72 C52 0.932 . S
H73 C53 0.930 . S
H74 C54 0.929 . S
H75 C56 0.930 . S
H76 C58 0.932 . S
H77 C59 0.929 . S
H78 C60 0.928 . S
H79 C62 0.932 . S
C80 C81 1.264 . S
C80 C85 1.479 . S
C80 C90 1.465 . S
C81 C80 1.264 . S
C81 C83 1.339 . S
C81 H108 0.931 . S
C82 C83 1.395 . S
C82 C84 1.320 . S
C83 C81 1.339 . S
C83 C82 1.395 . S
C83 H109 0.929 . S
C84 C82 1.320 . S
C84 C85 1.405 . S
C84 H110 0.930 . S
C85 C80 1.479 . S
C85 C84 1.405 . S
C85 H111 0.931 . S
U86 O87 2.454 . S
U86 O88 2.458 . S
U86 C89 2.984 . S
U86 C90 2.847 . S
U86 C103 2.882 . S
U86 O104 2.441 . S
U86 O105 2.420 . S
U86 O106 2.455 . S
U86 O107 2.449 . S
O87 U86 2.454 . S
O87 C89 1.353 . S
O88 U86 2.458 . S
O88 C89 1.286 . S
C89 U86 2.984 . S
C89 O87 1.353 . S
C89 O88 1.286 . S
C89 C91 1.363 . S
C90 C80 1.465 . S
C90 U86 2.847 . S
C90 O104 1.249 . S
C90 O105 1.202 . S
C91 C89 1.363 . S
C91 C93 1.408 . S
C91 C96 1.342 . S
C92 C93 1.310 . S
C92 C95 1.461 . S
C92 H112 0.932 . S
C93 C91 1.408 . S
C93 C92 1.310 . S
C93 H113 0.930 . S
C94 C95 1.474 . S
C94 C96 1.285 . S
C94 H114 0.929 . S
C95 C92 1.461 . S
C95 C94 1.474 . S
C96 C91 1.342 . S
C96 C94 1.285 . S
C96 H115 0.930 . S
C97 C100 1.424 . S
C97 C102 1.245 . S
C97 C103 1.428 . S
C98 C101 1.260 . S
C98 C102 1.477 . S
C98 H116 0.932 . S
C99 C100 1.384 . S
C99 C101 1.479 . S
C99 H117 0.929 . S
C100 C97 1.424 . S
C100 C99 1.384 . S
C100 H118 0.928 . S
C101 C98 1.260 . S
C101 C99 1.479 . S
C102 C97 1.245 . S
C102 C98 1.477 . S
C102 H119 0.932 . S
C103 U86 2.882 . S
C103 C97 1.428 . S
C103 O106 1.301 . S
C103 O107 1.282 . S
O104 U86 2.441 . S
O104 C90 1.249 . S
O105 U86 2.420 . S
O105 C90 1.202 . S
O106 U86 2.455 . S
O106 C103 1.301 . S
O107 U86 2.449 . S
O107 C103 1.282 . S
H108 C81 0.931 . S
H109 C83 0.929 . S
H110 C84 0.930 . S
H111 C85 0.931 . S
H112 C92 0.932 . S
H113 C93 0.930 . S
H114 C94 0.929 . S
H115 C96 0.930 . S
H116 C98 0.932 . S
H117 C99 0.929 . S
H118 C100 0.928 . S
H119 C102 0.932 . S
C120 C121 1.264 . S
C120 C125 1.479 . S
C120 C130 1.465 . S
C121 C120 1.264 . S
C121 C123 1.339 . S
C121 H148 0.931 . S
C122 C123 1.395 . S
C122 C124 1.320 . S
C123 C121 1.339 . S
C123 C122 1.395 . S
C123 H149 0.929 . S
C124 C122 1.320 . S
C124 C125 1.405 . S
C124 H150 0.930 . S
C125 C120 1.479 . S
C125 C124 1.405 . S
C125 H151 0.931 . S
U126 O127 2.454 . S
U126 O128 2.458 . S
U126 C129 2.984 . S
U126 C130 2.847 . S
U126 C143 2.882 . S
U126 O144 2.441 . S
U126 O145 2.420 . S
U126 O146 2.455 . S
U126 O147 2.449 . S
O127 U126 2.454 . S
O127 C129 1.353 . S
O128 U126 2.458 . S
O128 C129 1.286 . S
C129 U126 2.984 . S
C129 O127 1.353 . S
C129 O128 1.286 . S
C129 C131 1.363 . S
C130 C120 1.465 . S
C130 U126 2.847 . S
C130 O144 1.249 . S
C130 O145 1.202 . S
C131 C129 1.363 . S
C131 C133 1.408 . S
C131 C136 1.342 . S
C132 C133 1.310 . S
C132 C135 1.461 . S
C132 H152 0.932 . S
C133 C131 1.408 . S
C133 C132 1.310 . S
C133 H153 0.930 . S
C134 C135 1.474 . S
C134 C136 1.285 . S
C134 H154 0.929 . S
C135 C132 1.461 . S
C135 C134 1.474 . S
C136 C131 1.342 . S
C136 C134 1.285 . S
C136 H155 0.930 . S
C137 C140 1.424 . S
C137 C142 1.245 . S
C137 C143 1.428 . S
C138 C141 1.260 . S
C138 C142 1.477 . S
C138 H156 0.932 . S
C139 C140 1.384 . S
C139 C141 1.479 . S
C139 H157 0.929 . S
C140 C137 1.424 . S
C140 C139 1.384 . S
C140 H158 0.928 . S
C141 C138 1.260 . S
C141 C139 1.479 . S
C142 C137 1.245 . S
C142 C138 1.477 . S
C142 H159 0.932 . S
C143 U126 2.882 . S
C143 C137 1.428 . S
C143 O146 1.301 . S
C143 O147 1.282 . S
O144 U126 2.441 . S
O144 C130 1.249 . S
O145 U126 2.420 . S
O145 C130 1.202 . S
O146 U126 2.455 . S
O146 C143 1.301 . S
O147 U126 2.449 . S
O147 C143 1.282 . S
H148 C121 0.931 . S
H149 C123 0.929 . S
H150 C124 0.930 . S
H151 C125 0.931 . S
H152 C132 0.932 . S
H153 C133 0.930 . S
H154 C134 0.929 . S
H155 C136 0.930 . S
H156 C138 0.932 . S
H157 C139 0.929 . S
H158 C140 0.928 . S
H159 C142 0.932 . S
C160 C161 1.264 . S
C160 C165 1.479 . S
C160 C170 1.465 . S
C161 C160 1.264 . S
C161 C163 1.339 . S
C161 H188 0.931 . S
C162 C163 1.395 . S
C162 C164 1.320 . S
C163 C161 1.339 . S
C163 C162 1.395 . S
C163 H189 0.929 . S
C164 C162 1.320 . S
C164 C165 1.405 . S
C164 H190 0.930 . S
C165 C160 1.479 . S
C165 C164 1.405 . S
C165 H191 0.931 . S
U166 O167 2.454 . S
U166 O168 2.458 . S
U166 C169 2.984 . S
U166 C170 2.847 . S
U166 C183 2.882 . S
U166 O184 2.441 . S
U166 O185 2.420 . S
U166 O186 2.455 . S
U166 O187 2.449 . S
O167 U166 2.454 . S
O167 C169 1.353 . S
O168 U166 2.458 . S
O168 C169 1.286 . S
C169 U166 2.984 . S
C169 O167 1.353 . S
C169 O168 1.286 . S
C169 C171 1.363 . S
C170 C160 1.465 . S
C170 U166 2.847 . S
C170 O184 1.249 . S
C170 O185 1.202 . S
C171 C169 1.363 . S
C171 C173 1.408 . S
C171 C176 1.342 . S
C172 C173 1.310 . S
C172 C175 1.461 . S
C172 H192 0.932 . S
C173 C171 1.408 . S
C173 C172 1.310 . S
C173 H193 0.930 . S
C174 C175 1.474 . S
C174 C176 1.285 . S
C174 H194 0.929 . S
C175 C172 1.461 . S
C175 C174 1.474 . S
C176 C171 1.342 . S
C176 C174 1.285 . S
C176 H195 0.930 . S
C177 C180 1.424 . S
C177 C182 1.245 . S
C177 C183 1.428 . S
C178 C181 1.260 . S
C178 C182 1.477 . S
C178 H196 0.932 . S
C179 C180 1.384 . S
C179 C181 1.479 . S
C179 H197 0.929 . S
C180 C177 1.424 . S
C180 C179 1.384 . S
C180 H198 0.928 . S
C181 C178 1.260 . S
C181 C179 1.479 . S
C182 C177 1.245 . S
C182 C178 1.477 . S
C182 H199 0.932 . S
C183 U166 2.882 . S
C183 C177 1.428 . S
C183 O186 1.301 . S
C183 O187 1.282 . S
O184 U166 2.441 . S
O184 C170 1.249 . S
O185 U166 2.420 . S
O185 C170 1.202 . S
O186 U166 2.455 . S
O186 C183 1.301 . S
O187 U166 2.449 . S
O187 C183 1.282 . S
H188 C161 0.931 . S
H189 C163 0.929 . S
H190 C164 0.930 . S
H191 C165 0.931 . S
H192 C172 0.932 . S
H193 C173 0.930 . S
H194 C174 0.929 . S
H195 C176 0.930 . S
H196 C178 0.932 . S
H197 C179 0.929 . S
H198 C180 0.928 . S
H199 C182 0.932 . S
C200 C201 1.264 . S
C200 C205 1.479 . S
C200 C210 1.465 . S
C201 C200 1.264 . S
C201 C203 1.339 . S
C201 H228 0.931 . S
C202 C203 1.395 . S
C202 C204 1.320 . S
C203 C201 1.339 . S
C203 C202 1.395 . S
C203 H229 0.929 . S
C204 C202 1.320 . S
C204 C205 1.405 . S
C204 H230 0.930 . S
C205 C200 1.479 . S
C205 C204 1.405 . S
C205 H231 0.931 . S
U206 O207 2.454 . S
U206 O208 2.458 . S
U206 C209 2.984 . S
U206 C210 2.847 . S
U206 C223 2.882 . S
U206 O224 2.441 . S
U206 O225 2.420 . S
U206 O226 2.455 . S
U206 O227 2.449 . S
O207 U206 2.454 . S
O207 C209 1.353 . S
O208 U206 2.458 . S
O208 C209 1.286 . S
C209 U206 2.984 . S
C209 O207 1.353 . S
C209 O208 1.286 . S
C209 C211 1.363 . S
C210 C200 1.465 . S
C210 U206 2.847 . S
C210 O224 1.249 . S
C210 O225 1.202 . S
C211 C209 1.363 . S
C211 C213 1.408 . S
C211 C216 1.342 . S
C212 C213 1.310 . S
C212 C215 1.461 . S
C212 H232 0.932 . S
C213 C211 1.408 . S
C213 C212 1.310 . S
C213 H233 0.930 . S
C214 C215 1.474 . S
C214 C216 1.285 . S
C214 H234 0.929 . S
C215 C212 1.461 . S
C215 C214 1.474 . S
C216 C211 1.342 . S
C216 C214 1.285 . S
C216 H235 0.930 . S
C217 C220 1.424 . S
C217 C222 1.245 . S
C217 C223 1.428 . S
C218 C221 1.260 . S
C218 C222 1.477 . S
C218 H236 0.932 . S
C219 C220 1.384 . S
C219 C221 1.479 . S
C219 H237 0.929 . S
C220 C217 1.424 . S
C220 C219 1.384 . S
C220 H238 0.928 . S
C221 C218 1.260 . S
C221 C219 1.479 . S
C222 C217 1.245 . S
C222 C218 1.477 . S
C222 H239 0.932 . S
C223 U206 2.882 . S
C223 C217 1.428 . S
C223 O226 1.301 . S
C223 O227 1.282 . S
O224 U206 2.441 . S
O224 C210 1.249 . S
O225 U206 2.420 . S
O225 C210 1.202 . S
O226 U206 2.455 . S
O226 C223 1.301 . S
O227 U206 2.449 . S
O227 C223 1.282 . S
H228 C201 0.931 . S
H229 C203 0.929 . S
H230 C204 0.930 . S
H231 C205 0.931 . S
H232 C212 0.932 . S
H233 C213 0.930 . S
H234 C214 0.929 . S
H235 C216 0.930 . S
H236 C218 0.932 . S
H237 C219 0.929 . S
H238 C220 0.928 . S
H239 C222 0.932 . S
C240 C241 1.264 . S
C240 C245 1.479 . S
C240 C250 1.465 . S
C241 C240 1.264 . S
C241 C243 1.339 . S
C241 H268 0.931 . S
C242 C243 1.395 . S
C242 C244 1.320 . S
C243 C241 1.339 . S
C243 C242 1.395 . S
C243 H269 0.929 . S
C244 C242 1.320 . S
C244 C245 1.405 . S
C244 H270 0.930 . S
C245 C240 1.479 . S
C245 C244 1.405 . S
C245 H271 0.931 . S
U246 O247 2.454 . S
U246 O248 2.458 . S
U246 C249 2.984 . S
U246 C250 2.847 . S
U246 C263 2.882 . S
U246 O264 2.441 . S
U246 O265 2.420 . S
U246 O266 2.455 . S
U246 O267 2.449 . S
O247 U246 2.454 . S
O247 C249 1.353 . S
O248 U246 2.458 . S
O248 C249 1.286 . S
C249 U246 2.984 . S
C249 O247 1.353 . S
C249 O248 1.286 . S
C249 C251 1.363 . S
C250 C240 1.465 . S
C250 U246 2.847 . S
C250 O264 1.249 . S
C250 O265 1.202 . S
C251 C249 1.363 . S
C251 C253 1.408 . S
C251 C256 1.342 . S
C252 C253 1.310 . S
C252 C255 1.461 . S
C252 H272 0.932 . S
C253 C251 1.408 . S
C253 C252 1.310 . S
C253 H273 0.930 . S
C254 C255 1.474 . S
C254 C256 1.285 . S
C254 H274 0.929 . S
C255 C252 1.461 . S
C255 C254 1.474 . S
C256 C251 1.342 . S
C256 C254 1.285 . S
C256 H275 0.930 . S
C257 C260 1.424 . S
C257 C262 1.245 . S
C257 C263 1.428 . S
C258 C261 1.260 . S
C258 C262 1.477 . S
C258 H276 0.932 . S
C259 C260 1.384 . S
C259 C261 1.479 . S
C259 H277 0.929 . S
C260 C257 1.424 . S
C260 C259 1.384 . S
C260 H278 0.928 . S
C261 C258 1.260 . S
C261 C259 1.479 . S
C262 C257 1.245 . S
C262 C258 1.477 . S
C262 H279 0.932 . S
C263 U246 2.882 . S
C263 C257 1.428 . S
C263 O266 1.301 . S
C263 O267 1.282 . S
O264 U246 2.441 . S
O264 C250 1.249 . S
O265 U246 2.420 . S
O265 C250 1.202 . S
O266 U246 2.455 . S
O266 C263 1.301 . S
O267 U246 2.449 . S
O267 C263 1.282 . S
H268 C241 0.931 . S
H269 C243 0.929 . S
H270 C244 0.930 . S
H271 C245 0.931 . S
H272 C252 0.932 . S
H273 C253 0.930 . S
H274 C254 0.929 . S
H275 C256 0.930 . S
H276 C258 0.932 . S
H277 C259 0.929 . S
H278 C260 0.928 . S
H279 C262 0.932 . S
C280 C281 1.264 . S
C280 C285 1.479 . S
C280 C290 1.465 . S
C281 C280 1.264 . S
C281 C283 1.339 . S
C281 H308 0.931 . S
C282 C283 1.395 . S
C282 C284 1.320 . S
C283 C281 1.339 . S
C283 C282 1.395 . S
C283 H309 0.929 . S
C284 C282 1.320 . S
C284 C285 1.405 . S
C284 H310 0.930 . S
C285 C280 1.479 . S
C285 C284 1.405 . S
C285 H311 0.931 . S
U286 O287 2.454 . S
U286 O288 2.458 . S
U286 C289 2.984 . S
U286 C290 2.847 . S
U286 C303 2.882 . S
U286 O304 2.441 . S
U286 O305 2.420 . S
U286 O306 2.455 . S
U286 O307 2.449 . S
O287 U286 2.454 . S
O287 C289 1.353 . S
O288 U286 2.458 . S
O288 C289 1.286 . S
C289 U286 2.984 . S
C289 O287 1.353 . S
C289 O288 1.286 . S
C289 C291 1.363 . S
C290 C280 1.465 . S
C290 U286 2.847 . S
C290 O304 1.249 . S
C290 O305 1.202 . S
C291 C289 1.363 . S
C291 C293 1.408 . S
C291 C296 1.342 . S
C292 C293 1.310 . S
C292 C295 1.461 . S
C292 H312 0.932 . S
C293 C291 1.408 . S
C293 C292 1.310 . S
C293 H313 0.930 . S
C294 C295 1.474 . S
C294 C296 1.285 . S
C294 H314 0.929 . S
C295 C292 1.461 . S
C295 C294 1.474 . S
C296 C291 1.342 . S
C296 C294 1.285 . S
C296 H315 0.930 . S
C297 C300 1.424 . S
C297 C302 1.245 . S
C297 C303 1.428 . S
C298 C301 1.260 . S
C298 C302 1.477 . S
C298 H316 0.932 . S
C299 C300 1.384 . S
C299 C301 1.479 . S
C299 H317 0.929 . S
C300 C297 1.424 . S
C300 C299 1.384 . S
C300 H318 0.928 . S
C301 C298 1.260 . S
C301 C299 1.479 . S
C302 C297 1.245 . S
C302 C298 1.477 . S
C302 H319 0.932 . S
C303 U286 2.882 . S
C303 C297 1.428 . S
C303 O306 1.301 . S
C303 O307 1.282 . S
O304 U286 2.441 . S
O304 C290 1.249 . S
O305 U286 2.420 . S
O305 C290 1.202 . S
O306 U286 2.455 . S
O306 C303 1.301 . S
O307 U286 2.449 . S
O307 C303 1.282 . S
H308 C281 0.931 . S
H309 C283 0.929 . S
H310 C284 0.930 . S
H311 C285 0.931 . S
H312 C292 0.932 . S
H313 C293 0.930 . S
H314 C294 0.929 . S
H315 C296 0.930 . S
H316 C298 0.932 . S
H317 C299 0.929 . S
H318 C300 0.928 . S
H319 C302 0.932 . S
C320 C321 1.264 . S
C320 C325 1.479 . S
C320 C330 1.465 . S
C321 C320 1.264 . S
C321 C323 1.339 . S
C321 H348 0.931 . S
C322 C323 1.395 . S
C322 C324 1.320 . S
C323 C321 1.339 . S
C323 C322 1.395 . S
C323 H349 0.929 . S
C324 C322 1.320 . S
C324 C325 1.405 . S
C324 H350 0.930 . S
C325 C320 1.479 . S
C325 C324 1.405 . S
C325 H351 0.931 . S
U326 O327 2.454 . S
U326 O328 2.458 . S
U326 C329 2.984 . S
U326 C330 2.847 . S
U326 C343 2.882 . S
U326 O344 2.441 . S
U326 O345 2.420 . S
U326 O346 2.455 . S
U326 O347 2.449 . S
O327 U326 2.454 . S
O327 C329 1.353 . S
O328 U326 2.458 . S
O328 C329 1.286 . S
C329 U326 2.984 . S
C329 O327 1.353 . S
C329 O328 1.286 . S
C329 C331 1.363 . S
C330 C320 1.465 . S
C330 U326 2.847 . S
C330 O344 1.249 . S
C330 O345 1.202 . S
C331 C329 1.363 . S
C331 C333 1.408 . S
C331 C336 1.342 . S
C332 C333 1.310 . S
C332 C335 1.461 . S
C332 H352 0.932 . S
C333 C331 1.408 . S
C333 C332 1.310 . S
C333 H353 0.930 . S
C334 C335 1.474 . S
C334 C336 1.285 . S
C334 H354 0.929 . S
C335 C332 1.461 . S
C335 C334 1.474 . S
C336 C331 1.342 . S
C336 C334 1.285 . S
C336 H355 0.930 . S
C337 C340 1.424 . S
C337 C342 1.245 . S
C337 C343 1.428 . S
C338 C341 1.260 . S
C338 C342 1.477 . S
C338 H356 0.932 . S
C339 C340 1.384 . S
C339 C341 1.479 . S
C339 H357 0.929 . S
C340 C337 1.424 . S
C340 C339 1.384 . S
C340 H358 0.928 . S
C341 C338 1.260 . S
C341 C339 1.479 . S
C342 C337 1.245 . S
C342 C338 1.477 . S
C342 H359 0.932 . S
C343 U326 2.882 . S
C343 C337 1.428 . S
C343 O346 1.301 . S
C343 O347 1.282 . S
O344 U326 2.441 . S
O344 C330 1.249 . S
O345 U326 2.420 . S
O345 C330 1.202 . S
O346 U326 2.455 . S
O346 C343 1.301 . S
O347 U326 2.449 . S
O347 C343 1.282 . S
H348 C321 0.931 . S
H349 C323 0.929 . S
H350 C324 0.930 . S
H351 C325 0.931 . S
H352 C332 0.932 . S
H353 C333 0.930 . S
H354 C334 0.929 . S
H355 C336 0.930 . S
H356 C338 0.932 . S
H357 C339 0.929 . S
H358 C340 0.928 . S
H359 C342 0.932 . S
C360 C361 1.264 . S
C360 C365 1.479 . S
C360 C370 1.465 . S
C361 C360 1.264 . S
C361 C363 1.339 . S
C361 H388 0.931 . S
C362 C363 1.395 . S
C362 C364 1.320 . S
C363 C361 1.339 . S
C363 C362 1.395 . S
C363 H389 0.929 . S
C364 C362 1.320 . S
C364 C365 1.405 . S
C364 H390 0.930 . S
C365 C360 1.479 . S
C365 C364 1.405 . S
C365 H391 0.931 . S
U366 O367 2.454 . S
U366 O368 2.458 . S
U366 C369 2.984 . S
U366 C370 2.847 . S
U366 C383 2.882 . S
U366 O384 2.441 . S
U366 O385 2.420 . S
U366 O386 2.455 . S
U366 O387 2.449 . S
O367 U366 2.454 . S
O367 C369 1.353 . S
O368 U366 2.458 . S
O368 C369 1.286 . S
C369 U366 2.984 . S
C369 O367 1.353 . S
C369 O368 1.286 . S
C369 C371 1.363 . S
C370 C360 1.465 . S
C370 U366 2.847 . S
C370 O384 1.249 . S
C370 O385 1.202 . S
C371 C369 1.363 . S
C371 C373 1.408 . S
C371 C376 1.342 . S
C372 C373 1.310 . S
C372 C375 1.461 . S
C372 H392 0.932 . S
C373 C371 1.408 . S
C373 C372 1.310 . S
C373 H393 0.930 . S
C374 C375 1.474 . S
C374 C376 1.285 . S
C374 H394 0.929 . S
C375 C372 1.461 . S
C375 C374 1.474 . S
C376 C371 1.342 . S
C376 C374 1.285 . S
C376 H395 0.930 . S
C377 C380 1.424 . S
C377 C382 1.245 . S
C377 C383 1.428 . S
C378 C381 1.260 . S
C378 C382 1.477 . S
C378 H396 0.932 . S
C379 C380 1.384 . S
C379 C381 1.479 . S
C379 H397 0.929 . S
C380 C377 1.424 . S
C380 C379 1.384 . S
C380 H398 0.928 . S
C381 C378 1.260 . S
C381 C379 1.479 . S
C382 C377 1.245 . S
C382 C378 1.477 . S
C382 H399 0.932 . S
C383 U366 2.882 . S
C383 C377 1.428 . S
C383 O386 1.301 . S
C383 O387 1.282 . S
O384 U366 2.441 . S
O384 C370 1.249 . S
O385 U366 2.420 . S
O385 C370 1.202 . S
O386 U366 2.455 . S
O386 C383 1.301 . S
O387 U366 2.449 . S
O387 C383 1.282 . S
H388 C361 0.931 . S
H389 C363 0.929 . S
H390 C364 0.930 . S
H391 C365 0.931 . S
H392 C372 0.932 . S
H393 C373 0.930 . S
H394 C374 0.929 . S
H395 C376 0.930 . S
H396 C378 0.932 . S
H397 C379 0.929 . S
H398 C380 0.928 . S
H399 C382 0.932 . S
C400 C401 1.264 . S
C400 C405 1.479 . S
C400 C410 1.465 . S
C401 C400 1.264 . S
C401 C403 1.339 . S
C401 H428 0.931 . S
C402 C403 1.395 . S
C402 C404 1.320 . S
C403 C401 1.339 . S
C403 C402 1.395 . S
C403 H429 0.929 . S
C404 C402 1.320 . S
C404 C405 1.405 . S
C404 H430 0.930 . S
C405 C400 1.479 . S
C405 C404 1.405 . S
C405 H431 0.931 . S
U406 O407 2.454 . S
U406 O408 2.458 . S
U406 C409 2.984 . S
U406 C410 2.847 . S
U406 C423 2.882 . S
U406 O424 2.441 . S
U406 O425 2.420 . S
U406 O426 2.455 . S
U406 O427 2.449 . S
O407 U406 2.454 . S
O407 C409 1.353 . S
O408 U406 2.458 . S
O408 C409 1.286 . S
C409 U406 2.984 . S
C409 O407 1.353 . S
C409 O408 1.286 . S
C409 C411 1.363 . S
C410 C400 1.465 . S
C410 U406 2.847 . S
C410 O424 1.249 . S
C410 O425 1.202 . S
C411 C409 1.363 . S
C411 C413 1.408 . S
C411 C416 1.342 . S
C412 C413 1.310 . S
C412 C415 1.461 . S
C412 H432 0.932 . S
C413 C411 1.408 . S
C413 C412 1.310 . S
C413 H433 0.930 . S
C414 C415 1.474 . S
C414 C416 1.285 . S
C414 H434 0.929 . S
C415 C412 1.461 . S
C415 C414 1.474 . S
C416 C411 1.342 . S
C416 C414 1.285 . S
C416 H435 0.930 . S
C417 C420 1.424 . S
C417 C422 1.245 . S
C417 C423 1.428 . S
C418 C421 1.260 . S
C418 C422 1.477 . S
C418 H436 0.932 . S
C419 C420 1.384 . S
C419 C421 1.479 . S
C419 H437 0.929 . S
C420 C417 1.424 . S
C420 C419 1.384 . S
C420 H438 0.928 . S
C421 C418 1.260 . S
C421 C419 1.479 . S
C422 C417 1.245 . S
C422 C418 1.477 . S
C422 H439 0.932 . S
C423 U406 2.882 . S
C423 C417 1.428 . S
C423 O426 1.301 . S
C423 O427 1.282 . S
O424 U406 2.441 . S
O424 C410 1.249 . S
O425 U406 2.420 . S
O425 C410 1.202 . S
O426 U406 2.455 . S
O426 C423 1.301 . S
O427 U406 2.449 . S
O427 C423 1.282 . S
H428 C401 0.931 . S
H429 C403 0.929 . S
H430 C404 0.930 . S
H431 C405 0.931 . S
H432 C412 0.932 . S
H433 C413 0.930 . S
H434 C414 0.929 . S
H435 C416 0.930 . S
H436 C418 0.932 . S
H437 C419 0.929 . S
H438 C420 0.928 . S
H439 C422 0.932 . S
C440 C441 1.264 . S
C440 C445 1.479 . S
C440 C450 1.465 . S
C441 C440 1.264 . S
C441 C443 1.339 . S
C441 H468 0.931 . S
C442 C443 1.395 . S
C442 C444 1.320 . S
C443 C441 1.339 . S
C443 C442 1.395 . S
C443 H469 0.929 . S
C444 C442 1.320 . S
C444 C445 1.405 . S
C444 H470 0.930 . S
C445 C440 1.479 . S
C445 C444 1.405 . S
C445 H471 0.931 . S
U446 O447 2.454 . S
U446 O448 2.458 . S
U446 C449 2.984 . S
U446 C450 2.847 . S
U446 C463 2.882 . S
U446 O464 2.441 . S
U446 O465 2.420 . S
U446 O466 2.455 . S
U446 O467 2.449 . S
O447 U446 2.454 . S
O447 C449 1.353 . S
O448 U446 2.458 . S
O448 C449 1.286 . S
C449 U446 2.984 . S
C449 O447 1.353 . S
C449 O448 1.286 . S
C449 C451 1.363 . S
C450 C440 1.465 . S
C450 U446 2.847 . S
C450 O464 1.249 . S
C450 O465 1.202 . S
C451 C449 1.363 . S
C451 C453 1.408 . S
C451 C456 1.342 . S
C452 C453 1.310 . S
C452 C455 1.461 . S
C452 H472 0.932 . S
C453 C451 1.408 . S
C453 C452 1.310 . S
C453 H473 0.930 . S
C454 C455 1.474 . S
C454 C456 1.285 . S
C454 H474 0.929 . S
C455 C452 1.461 . S
C455 C454 1.474 . S
C456 C451 1.342 . S
C456 C454 1.285 . S
C456 H475 0.930 . S
C457 C460 1.424 . S
C457 C462 1.245 . S
C457 C463 1.428 . S
C458 C461 1.260 . S
C458 C462 1.477 . S
C458 H476 0.932 . S
C459 C460 1.384 . S
C459 C461 1.479 . S
C459 H477 0.929 . S
C460 C457 1.424 . S
C460 C459 1.384 . S
C460 H478 0.928 . S
C461 C458 1.260 . S
C461 C459 1.479 . S
C462 C457 1.245 . S
C462 C458 1.477 . S
C462 H479 0.932 . S
C463 U446 2.882 . S
C463 C457 1.428 . S
C463 O466 1.301 . S
C463 O467 1.282 . S
O464 U446 2.441 . S
O464 C450 1.249 . S
O465 U446 2.420 . S
O465 C450 1.202 . S
O466 U446 2.455 . S
O466 C463 1.301 . S
O467 U446 2.449 . S
O467 C463 1.282 . S
H468 C441 0.931 . S
H469 C443 0.929 . S
H470 C444 0.930 . S
H471 C445 0.931 . S
H472 C452 0.932 . S
H473 C453 0.930 . S
H474 C454 0.929 . S
H475 C456 0.930 . S
H476 C458 0.932 . S
H477 C459 0.929 . S
H478 C460 0.928 . S
H479 C462 0.932 . S
C480 C481 1.264 . S
C480 C485 1.479 . S
C480 C490 1.465 . S
C481 C480 1.264 . S
C481 C483 1.339 . S
C481 H508 0.931 . S
C482 C483 1.395 . S
C482 C484 1.320 . S
C483 C481 1.339 . S
C483 C482 1.395 . S
C483 H509 0.929 . S
C484 C482 1.320 . S
C484 C485 1.405 . S
C484 H510 0.930 . S
C485 C480 1.479 . S
C485 C484 1.405 . S
C485 H511 0.931 . S
U486 O487 2.454 . S
U486 O488 2.458 . S
U486 C489 2.984 . S
U486 C490 2.847 . S
U486 C503 2.882 . S
U486 O504 2.441 . S
U486 O505 2.420 . S
U486 O506 2.455 . S
U486 O507 2.449 . S
O487 U486 2.454 . S
O487 C489 1.353 . S
O488 U486 2.458 . S
O488 C489 1.286 . S
C489 U486 2.984 . S
C489 O487 1.353 . S
C489 O488 1.286 . S
C489 C491 1.363 . S
C490 C480 1.465 . S
C490 U486 2.847 . S
C490 O504 1.249 . S
C490 O505 1.202 . S
C491 C489 1.363 . S
C491 C493 1.408 . S
C491 C496 1.342 . S
C492 C493 1.310 . S
C492 C495 1.461 . S
C492 H512 0.932 . S
C493 C491 1.408 . S
C493 C492 1.310 . S
C493 H513 0.930 . S
C494 C495 1.474 . S
C494 C496 1.285 . S
C494 H514 0.929 . S
C495 C492 1.461 . S
C495 C494 1.474 . S
C496 C491 1.342 . S
C496 C494 1.285 . S
C496 H515 0.930 . S
C497 C500 1.424 . S
C497 C502 1.245 . S
C497 C503 1.428 . S
C498 C501 1.260 . S
C498 C502 1.477 . S
C498 H516 0.932 . S
C499 C500 1.384 . S
C499 C501 1.479 . S
C499 H517 0.929 . S
C500 C497 1.424 . S
C500 C499 1.384 . S
C500 H518 0.928 . S
C501 C498 1.260 . S
C501 C499 1.479 . S
C502 C497 1.245 . S
C502 C498 1.477 . S
C502 H519 0.932 . S
C503 U486 2.882 . S
C503 C497 1.428 . S
C503 O506 1.301 . S
C503 O507 1.282 . S
O504 U486 2.441 . S
O504 C490 1.249 . S
O505 U486 2.420 . S
O505 C490 1.202 . S
O506 U486 2.455 . S
O506 C503 1.301 . S
O507 U486 2.449 . S
O507 C503 1.282 . S
H508 C481 0.931 . S
H509 C483 0.929 . S
H510 C484 0.930 . S
H511 C485 0.931 . S
H512 C492 0.932 . S
H513 C493 0.930 . S
H514 C494 0.929 . S
H515 C496 0.930 . S
H516 C498 0.932 . S
H517 C499 0.929 . S
H518 C500 0.928 . S
H519 C502 0.932 . S
C520 C521 1.264 . S
C520 C525 1.479 . S
C520 C530 1.465 . S
C521 C520 1.264 . S
C521 C523 1.339 . S
C521 H548 0.931 . S
C522 C523 1.395 . S
C522 C524 1.320 . S
C523 C521 1.339 . S
C523 C522 1.395 . S
C523 H549 0.929 . S
C524 C522 1.320 . S
C524 C525 1.405 . S
C524 H550 0.930 . S
C525 C520 1.479 . S
C525 C524 1.405 . S
C525 H551 0.931 . S
U526 O527 2.454 . S
U526 O528 2.458 . S
U526 C529 2.984 . S
U526 C530 2.847 . S
U526 C543 2.882 . S
U526 O544 2.441 . S
U526 O545 2.420 . S
U526 O546 2.455 . S
U526 O547 2.449 . S
O527 U526 2.454 . S
O527 C529 1.353 . S
O528 U526 2.458 . S
O528 C529 1.286 . S
C529 U526 2.984 . S
C529 O527 1.353 . S
C529 O528 1.286 . S
C529 C531 1.363 . S
C530 C520 1.465 . S
C530 U526 2.847 . S
C530 O544 1.249 . S
C530 O545 1.202 . S
C531 C529 1.363 . S
C531 C533 1.408 . S
C531 C536 1.342 . S
C532 C533 1.310 . S
C532 C535 1.461 . S
C532 H552 0.932 . S
C533 C531 1.408 . S
C533 C532 1.310 . S
C533 H553 0.930 . S
C534 C535 1.474 . S
C534 C536 1.285 . S
C534 H554 0.929 . S
C535 C532 1.461 . S
C535 C534 1.474 . S
C536 C531 1.342 . S
C536 C534 1.285 . S
C536 H555 0.930 . S
C537 C540 1.424 . S
C537 C542 1.245 . S
C537 C543 1.428 . S
C538 C541 1.260 . S
C538 C542 1.477 . S
C538 H556 0.932 . S
C539 C540 1.384 . S
C539 C541 1.479 . S
C539 H557 0.929 . S
C540 C537 1.424 . S
C540 C539 1.384 . S
C540 H558 0.928 . S
C541 C538 1.260 . S
C541 C539 1.479 . S
C542 C537 1.245 . S
C542 C538 1.477 . S
C542 H559 0.932 . S
C543 U526 2.882 . S
C543 C537 1.428 . S
C543 O546 1.301 . S
C543 O547 1.282 . S
O544 U526 2.441 . S
O544 C530 1.249 . S
O545 U526 2.420 . S
O545 C530 1.202 . S
O546 U526 2.455 . S
O546 C543 1.301 . S
O547 U526 2.449 . S
O547 C543 1.282 . S
H548 C521 0.931 . S
H549 C523 0.929 . S
H550 C524 0.930 . S
H551 C525 0.931 . S
H552 C532 0.932 . S
H553 C533 0.930 . S
H554 C534 0.929 . S
H555 C536 0.930 . S
H556 C538 0.932 . S
H557 C539 0.929 . S
H558 C540 0.928 . S
H559 C542 0.932 . S
C560 C561 1.264 . S
C560 C565 1.479 . S
C560 C570 1.465 . S
C561 C560 1.264 . S
C561 C563 1.339 . S
C561 H588 0.931 . S
C562 C563 1.395 . S
C562 C564 1.320 . S
C563 C561 1.339 . S
C563 C562 1.395 . S
C563 H589 0.929 . S
C564 C562 1.320 . S
C564 C565 1.405 . S
C564 H590 0.930 . S
C565 C560 1.479 . S
C565 C564 1.405 . S
C565 H591 0.931 . S
U566 O567 2.454 . S
U566 O568 2.458 . S
U566 C569 2.984 . S
U566 C570 2.847 . S
U566 C583 2.882 . S
U566 O584 2.441 . S
U566 O585 2.420 . S
U566 O586 2.455 . S
U566 O587 2.449 . S
O567 U566 2.454 . S
O567 C569 1.353 . S
O568 U566 2.458 . S
O568 C569 1.286 . S
C569 U566 2.984 . S
C569 O567 1.353 . S
C569 O568 1.286 . S
C569 C571 1.363 . S
C570 C560 1.465 . S
C570 U566 2.847 . S
C570 O584 1.249 . S
C570 O585 1.202 . S
C571 C569 1.363 . S
C571 C573 1.408 . S
C571 C576 1.342 . S
C572 C573 1.310 . S
C572 C575 1.461 . S
C572 H592 0.932 . S
C573 C571 1.408 . S
C573 C572 1.310 . S
C573 H593 0.930 . S
C574 C575 1.474 . S
C574 C576 1.285 . S
C574 H594 0.929 . S
C575 C572 1.461 . S
C575 C574 1.474 . S
C576 C571 1.342 . S
C576 C574 1.285 . S
C576 H595 0.930 . S
C577 C580 1.424 . S
C577 C582 1.245 . S
C577 C583 1.428 . S
C578 C581 1.260 . S
C578 C582 1.477 . S
C578 H596 0.932 . S
C579 C580 1.384 . S
C579 C581 1.479 . S
C579 H597 0.929 . S
C580 C577 1.424 . S
C580 C579 1.384 . S
C580 H598 0.928 . S
C581 C578 1.260 . S
C581 C579 1.479 . S
C582 C577 1.245 . S
C582 C578 1.477 . S
C582 H599 0.932 . S
C583 U566 2.882 . S
C583 C577 1.428 . S
C583 O586 1.301 . S
C583 O587 1.282 . S
O584 U566 2.441 . S
O584 C570 1.249 . S
O585 U566 2.420 . S
O585 C570 1.202 . S
O586 U566 2.455 . S
O586 C583 1.301 . S
O587 U566 2.449 . S
O587 C583 1.282 . S
H588 C561 0.931 . S
H589 C563 0.929 . S
H590 C564 0.930 . S
H591 C565 0.931 . S
H592 C572 0.932 . S
H593 C573 0.930 . S
H594 C574 0.929 . S
H595 C576 0.930 . S
H596 C578 0.932 . S
H597 C579 0.929 . S
H598 C580 0.928 . S
H599 C582 0.932 . S
C600 C601 1.264 . S
C600 C605 1.479 . S
C600 C610 1.465 . S
C601 C600 1.264 . S
C601 C603 1.339 . S
C601 H628 0.931 . S
C602 C603 1.395 . S
C602 C604 1.320 . S
C603 C601 1.339 . S
C603 C602 1.395 . S
C603 H629 0.929 . S
C604 C602 1.320 . S
C604 C605 1.405 . S
C604 H630 0.930 . S
C605 C600 1.479 . S
C605 C604 1.405 . S
C605 H631 0.931 . S
U606 O607 2.454 . S
U606 O608 2.458 . S
U606 C609 2.984 . S
U606 C610 2.847 . S
U606 C623 2.882 . S
U606 O624 2.441 . S
U606 O625 2.420 . S
U606 O626 2.455 . S
U606 O627 2.449 . S
O607 U606 2.454 . S
O607 C609 1.353 . S
O608 U606 2.458 . S
O608 C609 1.286 . S
C609 U606 2.984 . S
C609 O607 1.353 . S
C609 O608 1.286 . S
C609 C611 1.363 . S
C610 C600 1.465 . S
C610 U606 2.847 . S
C610 O624 1.249 . S
C610 O625 1.202 . S
C611 C609 1.363 . S
C611 C613 1.408 . S
C611 C616 1.342 . S
C612 C613 1.310 . S
C612 C615 1.461 . S
C612 H632 0.932 . S
C613 C611 1.408 . S
C613 C612 1.310 . S
C613 H633 0.930 . S
C614 C615 1.474 . S
C614 C616 1.285 . S
C614 H634 0.929 . S
C615 C612 1.461 . S
C615 C614 1.474 . S
C616 C611 1.342 . S
C616 C614 1.285 . S
C616 H635 0.930 . S
C617 C620 1.424 . S
C617 C622 1.245 . S
C617 C623 1.428 . S
C618 C621 1.260 . S
C618 C622 1.477 . S
C618 H636 0.932 . S
C619 C620 1.384 . S
C619 C621 1.479 . S
C619 H637 0.929 . S
C620 C617 1.424 . S
C620 C619 1.384 . S
C620 H638 0.928 . S
C621 C618 1.260 . S
C621 C619 1.479 . S
C622 C617 1.245 . S
C622 C618 1.477 . S
C622 H639 0.932 . S
C623 U606 2.882 . S
C623 C617 1.428 . S
C623 O626 1.301 . S
C623 O627 1.282 . S
O624 U606 2.441 . S
O624 C610 1.249 . S
O625 U606 2.420 . S
O625 C610 1.202 . S
O626 U606 2.455 . S
O626 C623 1.301 . S
O627 U606 2.449 . S
O627 C623 1.282 . S
H628 C601 0.931 . S
H629 C603 0.929 . S
H630 C604 0.930 . S
H631 C605 0.931 . S
H632 C612 0.932 . S
H633 C613 0.930 . S
H634 C614 0.929 . S
H635 C616 0.930 . S
H636 C618 0.932 . S
H637 C619 0.929 . S
H638 C620 0.928 . S
H639 C622 0.932 . S
C640 C641 1.264 . S
C640 C645 1.479 . S
C640 C650 1.465 . S
C641 C640 1.264 . S
C641 C643 1.339 . S
C641 H668 0.931 . S
C642 C643 1.395 . S
C642 C644 1.320 . S
C643 C641 1.339 . S
C643 C642 1.395 . S
C643 H669 0.929 . S
C644 C642 1.320 . S
C644 C645 1.405 . S
C644 H670 0.930 . S
C645 C640 1.479 . S
C645 C644 1.405 . S
C645 H671 0.931 . S
U646 O647 2.454 . S
U646 O648 2.458 . S
U646 C649 2.984 . S
U646 C650 2.847 . S
U646 C663 2.882 . S
U646 O664 2.441 . S
U646 O665 2.420 . S
U646 O666 2.455 . S
U646 O667 2.449 . S
O647 U646 2.454 . S
O647 C649 1.353 . S
O648 U646 2.458 . S
O648 C649 1.286 . S
C649 U646 2.984 . S
C649 O647 1.353 . S
C649 O648 1.286 . S
C649 C651 1.363 . S
C650 C640 1.465 . S
C650 U646 2.847 . S
C650 O664 1.249 . S
C650 O665 1.202 . S
C651 C649 1.363 . S
C651 C653 1.408 . S
C651 C656 1.342 . S
C652 C653 1.310 . S
C652 C655 1.461 . S
C652 H672 0.932 . S
C653 C651 1.408 . S
C653 C652 1.310 . S
C653 H673 0.930 . S
C654 C655 1.474 . S
C654 C656 1.285 . S
C654 H674 0.929 . S
C655 C652 1.461 . S
C655 C654 1.474 . S
C656 C651 1.342 . S
C656 C654 1.285 . S
C656 H675 0.930 . S
C657 C660 1.424 . S
C657 C662 1.245 . S
C657 C663 1.428 . S
C658 C661 1.260 . S
C658 C662 1.477 . S
C658 H676 0.932 . S
C659 C660 1.384 . S
C659 C661 1.479 . S
C659 H677 0.929 . S
C660 C657 1.424 . S
C660 C659 1.384 . S
C660 H678 0.928 . S
C661 C658 1.260 . S
C661 C659 1.479 . S
C662 C657 1.245 . S
C662 C658 1.477 . S
C662 H679 0.932 . S
C663 U646 2.882 . S
C663 C657 1.428 . S
C663 O666 1.301 . S
C663 O667 1.282 . S
O664 U646 2.441 . S
O664 C650 1.249 . S
O665 U646 2.420 . S
O665 C650 1.202 . S
O666 U646 2.455 . S
O666 C663 1.301 . S
O667 U646 2.449 . S
O667 C663 1.282 . S
H668 C641 0.931 . S
H669 C643 0.929 . S
H670 C644 0.930 . S
H671 C645 0.931 . S
H672 C652 0.932 . S
H673 C653 0.930 . S
H674 C654 0.929 . S
H675 C656 0.930 . S
H676 C658 0.932 . S
H677 C659 0.929 . S
H678 C660 0.928 . S
H679 C662 0.932 . S
C680 C681 1.264 . S
C680 C685 1.479 . S
C680 C690 1.465 . S
C681 C680 1.264 . S
C681 C683 1.339 . S
C681 H708 0.931 . S
C682 C683 1.395 . S
C682 C684 1.320 . S
C683 C681 1.339 . S
C683 C682 1.395 . S
C683 H709 0.929 . S
C684 C682 1.320 . S
C684 C685 1.405 . S
C684 H710 0.930 . S
C685 C680 1.479 . S
C685 C684 1.405 . S
C685 H711 0.931 . S
U686 O687 2.454 . S
U686 O688 2.458 . S
U686 C689 2.984 . S
U686 C690 2.847 . S
U686 C703 2.882 . S
U686 O704 2.441 . S
U686 O705 2.420 . S
U686 O706 2.455 . S
U686 O707 2.449 . S
O687 U686 2.454 . S
O687 C689 1.353 . S
O688 U686 2.458 . S
O688 C689 1.286 . S
C689 U686 2.984 . S
C689 O687 1.353 . S
C689 O688 1.286 . S
C689 C691 1.363 . S
C690 C680 1.465 . S
C690 U686 2.847 . S
C690 O704 1.249 . S
C690 O705 1.202 . S
C691 C689 1.363 . S
C691 C693 1.408 . S
C691 C696 1.342 . S
C692 C693 1.310 . S
C692 C695 1.461 . S
C692 H712 0.932 . S
C693 C691 1.408 . S
C693 C692 1.310 . S
C693 H713 0.930 . S
C694 C695 1.474 . S
C694 C696 1.285 . S
C694 H714 0.929 . S
C695 C692 1.461 . S
C695 C694 1.474 . S
C696 C691 1.342 . S
C696 C694 1.285 . S
C696 H715 0.930 . S
C697 C700 1.424 . S
C697 C702 1.245 . S
C697 C703 1.428 . S
C698 C701 1.260 . S
C698 C702 1.477 . S
C698 H716 0.932 . S
C699 C700 1.384 . S
C699 C701 1.479 . S
C699 H717 0.929 . S
C700 C697 1.424 . S
C700 C699 1.384 . S
C700 H718 0.928 . S
C701 C698 1.260 . S
C701 C699 1.479 . S
C702 C697 1.245 . S
C702 C698 1.477 . S
C702 H719 0.932 . S
C703 U686 2.882 . S
C703 C697 1.428 . S
C703 O706 1.301 . S
C703 O707 1.282 . S
O704 U686 2.441 . S
O704 C690 1.249 . S
O705 U686 2.420 . S
O705 C690 1.202 . S
O706 U686 2.455 . S
O706 C703 1.301 . S
O707 U686 2.449 . S
O707 C703 1.282 . S
H708 C681 0.931 . S
H709 C683 0.929 . S
H710 C684 0.930 . S
H711 C685 0.931 . S
H712 C692 0.932 . S
H713 C693 0.930 . S
H714 C694 0.929 . S
H715 C696 0.930 . S
H716 C698 0.932 . S
H717 C699 0.929 . S
H718 C700 0.928 . S
H719 C702 0.932 . S
Gd720 N751 2.661 . S
Gd720 N757 2.601 . S
Gd720 O764 2.545 . S
Gd720 O765 2.606 1_545 S
Gd720 O767 2.429 . S
Gd720 O768 2.545 1_545 S
Gd720 O769 2.412 . S
Gd720 O771 2.350 1_554 S
Gd720 O772 2.324 1_545 S
Gd720 C779 2.828 . S
Gd721 N730 2.661 . S
Gd721 N734 2.601 . S
Gd721 O765 2.362 1_556 S
Gd721 O766 2.324 1_565 S
Gd721 O770 2.545 . S
Gd721 O771 2.613 1_565 S
Gd721 O773 2.429 . S
Gd721 O774 2.545 1_565 S
Gd721 O775 2.412 . S
Gd721 C788 2.828 . S
C722 C725 1.417 . S
C722 C727 1.431 . S
C722 C728 1.412 . S
C723 C726 1.437 . S
C723 C727 1.317 . S
C723 H742 0.929 . S
C724 C725 1.426 . S
C724 C726 1.413 . S
C724 N734 1.359 . S
C725 C722 1.417 . S
C725 C724 1.426 . S
C725 N730 1.350 . S
C726 C723 1.437 . S
C726 C724 1.413 . S
C726 C736 1.391 . S
C727 C722 1.431 . S
C727 C723 1.317 . S
C727 H738 0.930 . S
C728 C722 1.412 . S
C728 C729 1.355 . S
C728 H740 0.930 . S
C729 C728 1.355 . S
C729 C731 1.402 . S
C729 H741 0.930 . S
N730 Gd721 2.661 . S
N730 C725 1.350 . S
N730 C731 1.307 . S
C731 C729 1.402 . S
C731 N730 1.307 . S
C731 H732 0.930 . S
H732 C731 0.930 . S
C733 N734 1.334 . S
C733 C735 1.394 . S
C733 H737 0.930 . S
N734 Gd721 2.601 . S
N734 C724 1.359 . S
N734 C733 1.334 . S
C735 C733 1.394 . S
C735 C736 1.359 . S
C735 H747 0.930 . S
C736 C726 1.391 . S
C736 C735 1.359 . S
C736 H748 0.929 . S
H737 C733 0.930 . S
H738 C727 0.930 . S
H739 C756 0.930 . S
H740 C728 0.930 . S
H741 C729 0.930 . S
H742 C723 0.929 . S
H743 C761 0.930 . S
H744 C752 0.930 . S
H745 C753 0.930 . S
H746 C777 0.929 . S
H747 C735 0.930 . S
H748 C736 0.929 . S
H749 C778 0.930 . S
H750 C759 0.930 . S
N751 Gd720 2.661 . S
N751 C755 1.350 . S
N751 C756 1.307 . S
C752 H744 0.930 . S
C752 C753 1.355 . S
C752 C754 1.412 . S
C753 H745 0.930 . S
C753 C752 1.355 . S
C753 C756 1.402 . S
C754 C752 1.412 . S
C754 C755 1.417 . S
C754 C778 1.431 . S
C755 N751 1.350 . S
C755 C754 1.417 . S
C755 C758 1.426 . S
C756 H739 0.930 . S
C756 N751 1.307 . S
C756 C753 1.402 . S
N757 Gd720 2.601 . S
N757 C758 1.359 . S
N757 C761 1.334 . S
C758 C755 1.426 . S
C758 N757 1.359 . S
C758 C762 1.413 . S
C759 H750 0.930 . S
C759 C760 1.359 . S
C759 C761 1.394 . S
C760 C759 1.359 . S
C760 C762 1.391 . S
C760 H763 0.929 . S
C761 H743 0.930 . S
C761 N757 1.334 . S
C761 C759 1.394 . S
C762 C758 1.413 . S
C762 C760 1.391 . S
C762 C777 1.437 . S
H763 C760 0.929 . S
O764 Gd720 2.545 . S
O764 C779 1.258 . S
O765 Gd720 2.606 1_565 S
O765 Gd721 2.362 1_554 S
O765 C776 1.284 . S
O766 Gd721 2.324 1_545 S
O766 C786 1.254 . S
O767 Gd720 2.429 . S
O767 C786 1.268 1_554 S
O768 Gd720 2.545 1_565 S
O768 C776 1.250 . S
O769 Gd720 2.412 . S
O769 C779 1.252 . S
O770 Gd721 2.545 . S
O770 C788 1.258 . S
O771 Gd720 2.350 1_556 S
O771 Gd721 2.613 1_545 S
O771 C787 1.294 . S
O772 Gd720 2.324 1_565 S
O772 C795 1.254 . S
O773 Gd721 2.429 . S
O773 C795 1.268 1_556 S
O774 Gd721 2.545 1_545 S
O774 C787 1.250 . S
O775 Gd721 2.412 . S
O775 C788 1.252 . S
C776 O765 1.284 . S
C776 O768 1.250 . S
C777 H746 0.929 . S
C777 C762 1.437 . S
C777 C778 1.317 . S
C778 H749 0.930 . S
C778 C754 1.431 . S
C778 C777 1.317 . S
C779 Gd720 2.828 . S
C779 O764 1.258 . S
C779 O769 1.252 . S
C779 C780 1.497 . S
C780 C779 1.497 . S
C780 C781 1.395 . S
C780 C782 1.380 1_545 S
C781 C780 1.395 . S
C781 C784 1.398 . S
C781 H796 0.930 . S
C782 C780 1.380 1_565 S
C782 C783 1.391 . S
C782 H797 0.930 . S
C783 C782 1.391 . S
C783 C785 1.387 1_565 S
C784 C781 1.398 . S
C784 C785 1.380 . S
C784 H798 0.930 . S
C785 C783 1.387 1_545 S
C785 C784 1.380 . S
C785 H799 0.930 . S
C786 O766 1.254 . S
C786 O767 1.268 1_556 S
C787 O771 1.294 . S
C787 O774 1.250 . S
C788 Gd721 2.828 . S
C788 O770 1.258 . S
C788 O775 1.252 . S
C788 C789 1.497 . S
C789 C788 1.497 . S
C789 C790 1.395 . S
C789 C791 1.380 1_565 S
C790 C789 1.395 . S
C790 C793 1.398 . S
C790 H800 0.930 . S
C791 C789 1.380 1_545 S
C791 C792 1.391 . S
C791 H801 0.930 . S
C792 C791 1.391 . S
C792 C794 1.387 1_545 S
C793 C790 1.398 . S
C793 C794 1.380 . S
C793 H802 0.930 . S
C794 C792 1.387 1_565 S
C794 C793 1.380 . S
C794 H803 0.932 . S
C795 O772 1.254 . S
C795 O773 1.268 1_554 S
H796 C781 0.930 . S
H797 C782 0.930 . S
H798 C784 0.930 . S
H799 C785 0.930 . S
H800 C790 0.930 . S
H801 C791 0.930 . S
H802 C793 0.930 . S
H803 C794 0.932 . S
Gd804 N835 2.661 . S
Gd804 N841 2.601 . S
Gd804 O848 2.545 . S
Gd804 O849 2.606 1_655 S
Gd804 O851 2.429 . S
Gd804 O852 2.545 1_655 S
Gd804 O853 2.412 . S
Gd804 O855 2.340 1_554 S
Gd804 O856 2.324 1_655 S
Gd804 C863 2.828 . S
Gd805 N814 2.661 . S
Gd805 N818 2.601 . S
Gd805 O849 2.362 1_556 S
Gd805 O850 2.324 1_455 S
Gd805 O854 2.545 . S
Gd805 O855 2.619 1_455 S
Gd805 O857 2.469 . S
Gd805 O858 2.545 1_455 S
Gd805 O859 2.412 . S
Gd805 C872 2.828 . S
C806 C809 1.417 . S
C806 C811 1.431 . S
C806 C812 1.412 . S
C807 C810 1.437 . S
C807 C811 1.317 . S
C807 H826 0.929 . S
C808 C809 1.426 . S
C808 C810 1.413 . S
C808 N818 1.359 . S
C809 C806 1.417 . S
C809 C808 1.426 . S
C809 N814 1.350 . S
C810 C807 1.437 . S
C810 C808 1.413 . S
C810 C820 1.391 . S
C811 C806 1.431 . S
C811 C807 1.317 . S
C811 H822 0.930 . S
C812 C806 1.412 . S
C812 C813 1.355 . S
C812 H824 0.930 . S
C813 C812 1.355 . S
C813 C815 1.402 . S
C813 H825 0.930 . S
N814 Gd805 2.661 . S
N814 C809 1.350 . S
N814 C815 1.307 . S
C815 C813 1.402 . S
C815 N814 1.307 . S
C815 H816 0.930 . S
H816 C815 0.930 . S
C817 N818 1.334 . S
C817 C819 1.394 . S
C817 H821 0.930 . S
N818 Gd805 2.601 . S
N818 C808 1.359 . S
N818 C817 1.334 . S
C819 C817 1.394 . S
C819 C820 1.359 . S
C819 H831 0.930 . S
C820 C810 1.391 . S
C820 C819 1.359 . S
C820 H832 0.929 . S
H821 C817 0.930 . S
H822 C811 0.930 . S
H823 C840 0.930 . S
H824 C812 0.930 . S
H825 C813 0.930 . S
H826 C807 0.929 . S
H827 C845 0.930 . S
H828 C836 0.930 . S
H829 C837 0.930 . S
H830 C861 0.929 . S
H831 C819 0.930 . S
H832 C820 0.929 . S
H833 C862 0.930 . S
H834 C843 0.930 . S
N835 Gd804 2.661 . S
N835 C839 1.350 . S
N835 C840 1.307 . S
C836 H828 0.930 . S
C836 C837 1.355 . S
C836 C838 1.412 . S
C837 H829 0.930 . S
C837 C836 1.355 . S
C837 C840 1.402 . S
C838 C836 1.412 . S
C838 C839 1.417 . S
C838 C862 1.431 . S
C839 N835 1.350 . S
C839 C838 1.417 . S
C839 C842 1.426 . S
C840 H823 0.930 . S
C840 N835 1.307 . S
C840 C837 1.402 . S
N841 Gd804 2.601 . S
N841 C842 1.359 . S
N841 C845 1.334 . S
C842 C839 1.426 . S
C842 N841 1.359 . S
C842 C846 1.413 . S
C843 H834 0.930 . S
C843 C844 1.359 . S
C843 C845 1.394 . S
C844 C843 1.359 . S
C844 C846 1.391 . S
C844 H847 0.929 . S
C845 H827 0.930 . S
C845 N841 1.334 . S
C845 C843 1.394 . S
C846 C842 1.413 . S
C846 C844 1.391 . S
C846 C861 1.437 . S
H847 C844 0.929 . S
O848 Gd804 2.545 . S
O848 C863 1.258 . S
O849 Gd804 2.606 1_455 S
O849 Gd805 2.362 1_554 S
O849 C860 1.284 . S
O850 Gd805 2.324 1_655 S
O850 C870 1.254 . S
O851 Gd804 2.429 . S
O851 C870 1.268 1_554 S
O852 Gd804 2.545 1_455 S
O852 C860 1.250 . S
O853 Gd804 2.412 . S
O853 C863 1.252 . S
O854 Gd805 2.545 . S
O854 C872 1.258 . S
O855 Gd804 2.340 1_556 S
O855 Gd805 2.619 1_655 S
O855 C871 1.303 . S
O856 Gd804 2.324 1_455 S
O856 C879 1.254 . S
O857 Gd805 2.469 . S
O857 C879 1.198 1_556 S
O858 Gd805 2.545 1_655 S
O858 C871 1.250 . S
O859 Gd805 2.412 . S
O859 C872 1.252 . S
C860 O849 1.284 . S
C860 O852 1.250 . S
C861 H830 0.929 . S
C861 C846 1.437 . S
C861 C862 1.317 . S
C862 H833 0.930 . S
C862 C838 1.431 . S
C862 C861 1.317 . S
C863 Gd804 2.828 . S
C863 O848 1.258 . S
C863 O853 1.252 . S
C863 C864 1.497 . S
C864 C863 1.497 . S
C864 C865 1.395 . S
C864 C866 1.380 1_655 S
C865 C864 1.395 . S
C865 C868 1.398 . S
C865 H880 0.930 . S
C866 C864 1.380 1_455 S
C866 C867 1.391 . S
C866 H881 0.930 . S
C867 C866 1.391 . S
C867 C869 1.387 1_455 S
C868 C865 1.398 . S
C868 C869 1.380 . S
C868 H882 0.930 . S
C869 C867 1.387 1_655 S
C869 C868 1.380 . S
C869 H883 0.930 . S
C870 O850 1.254 . S
C870 O851 1.268 1_556 S
C871 O855 1.303 . S
C871 O858 1.250 . S
C872 Gd805 2.828 . S
C872 O854 1.258 . S
C872 O859 1.252 . S
C872 C873 1.497 . S
C873 C872 1.497 . S
C873 C874 1.395 . S
C873 C875 1.380 1_455 S
C874 C873 1.395 . S
C874 C877 1.398 . S
C874 H884 0.930 . S
C875 C873 1.380 1_655 S
C875 C876 1.391 . S
C875 H885 0.930 . S
C876 C875 1.391 . S
C876 C878 1.387 1_655 S
C877 C874 1.398 . S
C877 C878 1.380 . S
C877 H886 0.930 . S
C878 C876 1.387 1_455 S
C878 C877 1.380 . S
C878 H887 0.930 . S
C879 O856 1.254 . S
C879 O857 1.198 1_554 S
H880 C865 0.930 . S
H881 C866 0.930 . S
H882 C868 0.930 . S
H883 C869 0.930 . S
H884 C874 0.930 . S
H885 C875 0.930 . S
H886 C877 0.930 . S
H887 C878 0.930 . S
Gd888 N919 2.661 . S
Gd888 N925 2.601 . S
Gd888 O932 2.545 . S
Gd888 O933 2.644 . S
Gd888 O935 2.429 . S
Gd888 O936 2.545 . S
Gd888 O937 2.412 . S
Gd888 O939 2.362 1_556 S
Gd888 O940 2.324 . S
Gd888 C947 2.828 . S
Gd889 N898 2.661 . S
Gd889 N902 2.601 . S
Gd889 O933 2.300 1_554 S
Gd889 O934 2.324 . S
Gd889 O938 2.545 . S
Gd889 O939 2.606 . S
Gd889 O941 2.429 . S
Gd889 O942 2.545 . S
Gd889 O943 2.412 . S
Gd889 C956 2.828 . S
C890 C893 1.417 . S
C890 C895 1.431 . S
C890 C896 1.412 . S
C891 C894 1.437 . S
C891 C895 1.317 . S
C891 H910 0.929 . S
C892 C893 1.426 . S
C892 C894 1.413 . S
C892 N902 1.359 . S
C893 C890 1.417 . S
C893 C892 1.426 . S
C893 N898 1.350 . S
C894 C891 1.437 . S
C894 C892 1.413 . S
C894 C904 1.391 . S
C895 C890 1.431 . S
C895 C891 1.317 . S
C895 H906 0.930 . S
C896 C890 1.412 . S
C896 C897 1.355 . S
C896 H908 0.930 . S
C897 C896 1.355 . S
C897 C899 1.402 . S
C897 H909 0.930 . S
N898 Gd889 2.661 . S
N898 C893 1.350 . S
N898 C899 1.307 . S
C899 C897 1.402 . S
C899 N898 1.307 . S
C899 H900 0.930 . S
H900 C899 0.930 . S
C901 N902 1.334 . S
C901 C903 1.394 . S
C901 H905 0.930 . S
N902 Gd889 2.601 . S
N902 C892 1.359 . S
N902 C901 1.334 . S
C903 C901 1.394 . S
C903 C904 1.359 . S
C903 H915 0.930 . S
C904 C894 1.391 . S
C904 C903 1.359 . S
C904 H916 0.929 . S
H905 C901 0.930 . S
H906 C895 0.930 . S
H907 C924 0.930 . S
H908 C896 0.930 . S
H909 C897 0.930 . S
H910 C891 0.929 . S
H911 C929 0.930 . S
H912 C920 0.930 . S
H913 C921 0.930 . S
H914 C945 0.929 . S
H915 C903 0.930 . S
H916 C904 0.929 . S
H917 C946 0.930 . S
H918 C927 0.930 . S
N919 Gd888 2.661 . S
N919 C923 1.350 . S
N919 C924 1.307 . S
C920 H912 0.930 . S
C920 C921 1.355 . S
C920 C922 1.412 . S
C921 H913 0.930 . S
C921 C920 1.355 . S
C921 C924 1.402 . S
C922 C920 1.412 . S
C922 C923 1.417 . S
C922 C946 1.431 . S
C923 N919 1.350 . S
C923 C922 1.417 . S
C923 C926 1.426 . S
C924 H907 0.930 . S
C924 N919 1.307 . S
C924 C921 1.402 . S
N925 Gd888 2.601 . S
N925 C926 1.359 . S
N925 C929 1.334 . S
C926 C923 1.426 . S
C926 N925 1.359 . S
C926 C930 1.413 . S
C927 H918 0.930 . S
C927 C928 1.359 . S
C927 C929 1.394 . S
C928 C927 1.359 . S
C928 C930 1.391 . S
C928 H931 0.929 . S
C929 H911 0.930 . S
C929 N925 1.334 . S
C929 C927 1.394 . S
C930 C926 1.413 . S
C930 C928 1.391 . S
C930 C945 1.437 . S
H931 C928 0.929 . S
O932 Gd888 2.545 . S
O932 C947 1.258 . S
O933 Gd888 2.644 . S
O933 Gd889 2.300 1_556 S
O933 C944 1.336 . S
O934 Gd889 2.324 . S
O934 C954 1.254 . S
O935 Gd888 2.429 . S
O935 C954 1.268 1_556 S
O936 Gd888 2.545 . S
O936 C944 1.250 . S
O937 Gd888 2.412 . S
O937 C947 1.252 . S
O938 Gd889 2.545 . S
O938 C956 1.258 . S
O939 Gd888 2.362 1_554 S
O939 Gd889 2.606 . S
O939 C955 1.284 . S
O940 Gd888 2.324 . S
O940 C963 1.254 . S
O941 Gd889 2.429 . S
O941 C963 1.268 1_554 S
O942 Gd889 2.545 . S
O942 C955 1.250 . S
O943 Gd889 2.412 . S
O943 C956 1.252 . S
C944 O933 1.336 . S
C944 O936 1.250 . S
C945 H914 0.929 . S
C945 C930 1.437 . S
C945 C946 1.317 . S
C946 H917 0.930 . S
C946 C922 1.431 . S
C946 C945 1.317 . S
C947 Gd888 2.828 . S
C947 O932 1.258 . S
C947 O937 1.252 . S
C947 C948 1.497 . S
C948 C947 1.497 . S
C948 C949 1.395 . S
C948 C950 1.380 . S
C949 C948 1.395 . S
C949 C952 1.398 . S
C949 H964 0.930 . S
C950 C948 1.380 . S
C950 C951 1.391 . S
C950 H965 0.930 . S
C951 C950 1.391 . S
C951 C953 1.387 . S
C952 C949 1.398 . S
C952 C953 1.380 . S
C952 H966 0.930 . S
C953 C951 1.387 . S
C953 C952 1.380 . S
C953 H967 0.930 . S
C954 O934 1.254 . S
C954 O935 1.268 1_554 S
C955 O939 1.284 . S
C955 O942 1.250 . S
C956 Gd889 2.828 . S
C956 O938 1.258 . S
C956 O943 1.252 . S
C956 C957 1.497 . S
C957 C956 1.497 . S
C957 C958 1.395 . S
C957 C959 1.380 . S
C958 C957 1.395 . S
C958 C961 1.398 . S
C958 H968 0.930 . S
C959 C957 1.380 . S
C959 C960 1.391 . S
C959 H969 0.930 . S
C960 C959 1.391 . S
C960 C962 1.387 . S
C961 C958 1.398 . S
C961 C962 1.380 . S
C961 H970 0.930 . S
C962 C960 1.387 . S
C962 C961 1.380 . S
C962 H971 0.930 . S
C963 O940 1.254 . S
C963 O941 1.268 1_556 S
H964 C949 0.930 . S
H965 C950 0.930 . S
H966 C952 0.930 . S
H967 C953 0.930 . S
H968 C958 0.930 . S
H969 C959 0.930 . S
H970 C961 0.930 . S
H971 C962 0.930 . S
Gd972 N1003 2.661 . S
Gd972 N1009 2.601 . S
Gd972 O1016 2.545 . S
Gd972 O1017 2.606 . S
Gd972 O1019 2.429 . S
Gd972 O1020 2.545 . S
Gd972 O1021 2.412 . S
Gd972 O1023 2.362 . S
Gd972 O1024 2.324 . S
Gd972 C1031 2.828 . S
Gd973 N982 2.661 . S
Gd973 N986 2.601 . S
Gd973 O1017 2.362 . S
Gd973 O1018 2.324 . S
Gd973 O1022 2.545 . S
Gd973 O1023 2.606 . S
Gd973 O1025 2.429 . S
Gd973 O1026 2.545 . S
Gd973 O1027 2.412 . S
Gd973 C1040 2.828 . S
C974 C977 1.417 . S
C974 C979 1.431 . S
C974 C980 1.412 . S
C975 C978 1.437 . S
C975 C979 1.317 . S
C975 H994 0.929 . S
C976 C977 1.426 . S
C976 C978 1.413 . S
C976 N986 1.359 . S
C977 C974 1.417 . S
C977 C976 1.426 . S
C977 N982 1.350 . S
C978 C975 1.437 . S
C978 C976 1.413 . S
C978 C988 1.391 . S
C979 C974 1.431 . S
C979 C975 1.317 . S
C979 H990 0.930 . S
C980 C974 1.412 . S
C980 C981 1.355 . S
C980 H992 0.930 . S
C981 C980 1.355 . S
C981 C983 1.402 . S
C981 H993 0.930 . S
N982 Gd973 2.661 . S
N982 C977 1.350 . S
N982 C983 1.307 . S
C983 C981 1.402 . S
C983 N982 1.307 . S
C983 H984 0.930 . S
H984 C983 0.930 . S
C985 N986 1.334 . S
C985 C987 1.394 . S
C985 H989 0.930 . S
N986 Gd973 2.601 . S
N986 C976 1.359 . S
N986 C985 1.334 . S
C987 C985 1.394 . S
C987 C988 1.359 . S
C987 H999 0.930 . S
C988 C978 1.391 . S
C988 C987 1.359 . S
C988 H1000 0.929 . S
H989 C985 0.930 . S
H990 C979 0.930 . S
H991 C1008 0.930 . S
H992 C980 0.930 . S
H993 C981 0.930 . S
H994 C975 0.929 . S
H995 C1013 0.930 . S
H996 C1004 0.930 . S
H997 C1005 0.930 . S
H998 C1029 0.929 . S
H999 C987 0.930 . S
H1000 C988 0.929 . S
H1001 C1030 0.930 . S
H1002 C1011 0.930 . S
N1003 Gd972 2.661 . S
N1003 C1007 1.350 . S
N1003 C1008 1.307 . S
C1004 H996 0.930 . S
C1004 C1005 1.355 . S
C1004 C1006 1.412 . S
C1005 H997 0.930 . S
C1005 C1004 1.355 . S
C1005 C1008 1.402 . S
C1006 C1004 1.412 . S
C1006 C1007 1.417 . S
C1006 C1030 1.431 . S
C1007 N1003 1.350 . S
C1007 C1006 1.417 . S
C1007 C1010 1.426 . S
C1008 H991 0.930 . S
C1008 N1003 1.307 . S
C1008 C1005 1.402 . S
N1009 Gd972 2.601 . S
N1009 C1010 1.359 . S
N1009 C1013 1.334 . S
C1010 C1007 1.426 . S
C1010 N1009 1.359 . S
C1010 C1014 1.413 . S
C1011 H1002 0.930 . S
C1011 C1012 1.359 . S
C1011 C1013 1.394 . S
C1012 C1011 1.359 . S
C1012 C1014 1.391 . S
C1012 H1015 0.929 . S
C1013 H995 0.930 . S
C1013 N1009 1.334 . S
C1013 C1011 1.394 . S
C1014 C1010 1.413 . S
C1014 C1012 1.391 . S
C1014 C1029 1.437 . S
H1015 C1012 0.929 . S
O1016 Gd972 2.545 . S
O1016 C1031 1.258 . S
O1017 Gd972 2.606 . S
O1017 Gd973 2.362 . S
O1017 C1028 1.284 . S
O1018 Gd973 2.324 . S
O1018 C1038 1.254 . S
O1019 Gd972 2.429 . S
O1019 C1038 1.268 . S
O1020 Gd972 2.545 . S
O1020 C1028 1.250 . S
O1021 Gd972 2.412 . S
O1021 C1031 1.252 . S
O1022 Gd973 2.545 . S
O1022 C1040 1.258 . S
O1023 Gd972 2.362 . S
O1023 Gd973 2.606 . S
O1023 C1039 1.284 . S
O1024 Gd972 2.324 . S
O1024 C1047 1.254 . S
O1025 Gd973 2.429 . S
O1025 C1047 1.268 . S
O1026 Gd973 2.545 . S
O1026 C1039 1.250 . S
O1027 Gd973 2.412 . S
O1027 C1040 1.252 . S
C1028 O1017 1.284 . S
C1028 O1020 1.250 . S
C1029 H998 0.929 . S
C1029 C1014 1.437 . S
C1029 C1030 1.317 . S
C1030 H1001 0.930 . S
C1030 C1006 1.431 . S
C1030 C1029 1.317 . S
C1031 Gd972 2.828 . S
C1031 O1016 1.258 . S
C1031 O1021 1.252 . S
C1031 C1032 1.497 . S
C1032 C1031 1.497 . S
C1032 C1033 1.395 . S
C1032 C1034 1.380 . S
C1033 C1032 1.395 . S
C1033 C1036 1.398 . S
C1033 H1048 0.930 . S
C1034 C1032 1.380 . S
C1034 C1035 1.391 . S
C1034 H1049 0.930 . S
C1035 C1034 1.391 . S
C1035 C1037 1.387 . S
C1036 C1033 1.398 . S
C1036 C1037 1.380 . S
C1036 H1050 0.930 . S
C1037 C1035 1.387 . S
C1037 C1036 1.380 . S
C1037 H1051 0.930 . S
C1038 O1018 1.254 . S
C1038 O1019 1.268 . S
C1039 O1023 1.284 . S
C1039 O1026 1.250 . S
C1040 Gd973 2.828 . S
C1040 O1022 1.258 . S
C1040 O1027 1.252 . S
C1040 C1041 1.497 . S
C1041 C1040 1.497 . S
C1041 C1042 1.395 . S
C1041 C1043 1.380 . S
C1042 C1041 1.395 . S
C1042 C1045 1.398 . S
C1042 H1052 0.930 . S
C1043 C1041 1.380 . S
C1043 C1044 1.391 . S
C1043 H1053 0.930 . S
C1044 C1043 1.391 . S
C1044 C1046 1.387 . S
C1045 C1042 1.398 . S
C1045 C1046 1.380 . S
C1045 H1054 0.930 . S
C1046 C1044 1.387 . S
C1046 C1045 1.380 . S
C1046 H1055 0.930 . S
C1047 O1024 1.254 . S
C1047 O1025 1.268 . S
H1048 C1033 0.930 . S
H1049 C1034 0.930 . S
H1050 C1036 0.930 . S
H1051 C1037 0.930 . S
H1052 C1042 0.930 . S
H1053 C1043 0.930 . S
H1054 C1045 0.930 . S
H1055 C1046 0.930 . S
Gd1056 N1087 2.661 . S
Gd1056 N1093 2.601 . S
Gd1056 O1100 2.545 . S
Gd1056 O1101 2.606 . S
Gd1056 O1103 2.429 . S
Gd1056 O1104 2.545 . S
Gd1056 O1105 2.412 . S
Gd1056 O1107 2.362 . S
Gd1056 O1108 2.324 . S
Gd1056 C1115 2.828 . S
Gd1057 N1066 2.661 . S
Gd1057 N1070 2.601 . S
Gd1057 O1101 2.362 . S
Gd1057 O1102 2.324 . S
Gd1057 O1106 2.545 . S
Gd1057 O1107 2.606 . S
Gd1057 O1109 2.429 . S
Gd1057 O1110 2.545 . S
Gd1057 O1111 2.412 . S
Gd1057 C1124 2.828 . S
C1058 C1061 1.417 . S
C1058 C1063 1.431 . S
C1058 C1064 1.412 . S
C1059 C1062 1.437 . S
C1059 C1063 1.317 . S
C1059 H1078 0.929 . S
C1060 C1061 1.426 . S
C1060 C1062 1.413 . S
C1060 N1070 1.359 . S
C1061 C1058 1.417 . S
C1061 C1060 1.426 . S
C1061 N1066 1.350 . S
C1062 C1059 1.437 . S
C1062 C1060 1.413 . S
C1062 C1072 1.391 . S
C1063 C1058 1.431 . S
C1063 C1059 1.317 . S
C1063 H1074 0.930 . S
C1064 C1058 1.412 . S
C1064 C1065 1.355 . S
C1064 H1076 0.930 . S
C1065 C1064 1.355 . S
C1065 C1067 1.402 . S
C1065 H1077 0.930 . S
N1066 Gd1057 2.661 . S
N1066 C1061 1.350 . S
N1066 C1067 1.307 . S
C1067 C1065 1.402 . S
C1067 N1066 1.307 . S
C1067 H1068 0.930 . S
H1068 C1067 0.930 . S
C1069 N1070 1.334 . S
C1069 C1071 1.394 . S
C1069 H1073 0.930 . S
N1070 Gd1057 2.601 . S
N1070 C1060 1.359 . S
N1070 C1069 1.334 . S
C1071 C1069 1.394 . S
C1071 C1072 1.359 . S
C1071 H1083 0.930 . S
C1072 C1062 1.391 . S
C1072 C1071 1.359 . S
C1072 H1084 0.929 . S
H1073 C1069 0.930 . S
H1074 C1063 0.930 . S
H1075 C1092 0.930 . S
H1076 C1064 0.930 . S
H1077 C1065 0.930 . S
H1078 C1059 0.929 . S
H1079 C1097 0.930 . S
H1080 C1088 0.930 . S
H1081 C1089 0.930 . S
H1082 C1113 0.929 . S
H1083 C1071 0.930 . S
H1084 C1072 0.929 . S
H1085 C1114 0.930 . S
H1086 C1095 0.930 . S
N1087 Gd1056 2.661 . S
N1087 C1091 1.350 . S
N1087 C1092 1.307 . S
C1088 H1080 0.930 . S
C1088 C1089 1.355 . S
C1088 C1090 1.412 . S
C1089 H1081 0.930 . S
C1089 C1088 1.355 . S
C1089 C1092 1.402 . S
C1090 C1088 1.412 . S
C1090 C1091 1.417 . S
C1090 C1114 1.431 . S
C1091 N1087 1.350 . S
C1091 C1090 1.417 . S
C1091 C1094 1.426 . S
C1092 H1075 0.930 . S
C1092 N1087 1.307 . S
C1092 C1089 1.402 . S
N1093 Gd1056 2.601 . S
N1093 C1094 1.359 . S
N1093 C1097 1.334 . S
C1094 C1091 1.426 . S
C1094 N1093 1.359 . S
C1094 C1098 1.413 . S
C1095 H1086 0.930 . S
C1095 C1096 1.359 . S
C1095 C1097 1.394 . S
C1096 C1095 1.359 . S
C1096 C1098 1.391 . S
C1096 H1099 0.929 . S
C1097 H1079 0.930 . S
C1097 N1093 1.334 . S
C1097 C1095 1.394 . S
C1098 C1094 1.413 . S
C1098 C1096 1.391 . S
C1098 C1113 1.437 . S
H1099 C1096 0.929 . S
O1100 Gd1056 2.545 . S
O1100 C1115 1.258 . S
O1101 Gd1056 2.606 . S
O1101 Gd1057 2.362 . S
O1101 C1112 1.284 . S
O1102 Gd1057 2.324 . S
O1102 C1122 1.254 . S
O1103 Gd1056 2.429 . S
O1103 C1122 1.268 . S
O1104 Gd1056 2.545 . S
O1104 C1112 1.250 . S
O1105 Gd1056 2.412 . S
O1105 C1115 1.252 . S
O1106 Gd1057 2.545 . S
O1106 C1124 1.258 . S
O1107 Gd1056 2.362 . S
O1107 Gd1057 2.606 . S
O1107 C1123 1.284 . S
O1108 Gd1056 2.324 . S
O1108 C1131 1.254 . S
O1109 Gd1057 2.429 . S
O1109 C1131 1.268 . S
O1110 Gd1057 2.545 . S
O1110 C1123 1.250 . S
O1111 Gd1057 2.412 . S
O1111 C1124 1.252 . S
C1112 O1101 1.284 . S
C1112 O1104 1.250 . S
C1113 H1082 0.929 . S
C1113 C1098 1.437 . S
C1113 C1114 1.317 . S
C1114 H1085 0.930 . S
C1114 C1090 1.431 . S
C1114 C1113 1.317 . S
C1115 Gd1056 2.828 . S
C1115 O1100 1.258 . S
C1115 O1105 1.252 . S
C1115 C1116 1.497 . S
C1116 C1115 1.497 . S
C1116 C1117 1.395 . S
C1116 C1118 1.380 . S
C1117 C1116 1.395 . S
C1117 C1120 1.398 . S
C1117 H1132 0.930 . S
C1118 C1116 1.380 . S
C1118 C1119 1.391 . S
C1118 H1133 0.930 . S
C1119 C1118 1.391 . S
C1119 C1121 1.387 . S
C1120 C1117 1.398 . S
C1120 C1121 1.380 . S
C1120 H1134 0.930 . S
C1121 C1119 1.387 . S
C1121 C1120 1.380 . S
C1121 H1135 0.930 . S
C1122 O1102 1.254 . S
C1122 O1103 1.268 . S
C1123 O1107 1.284 . S
C1123 O1110 1.250 . S
C1124 Gd1057 2.828 . S
C1124 O1106 1.258 . S
C1124 O1111 1.252 . S
C1124 C1125 1.497 . S
C1125 C1124 1.497 . S
C1125 C1126 1.395 . S
C1125 C1127 1.380 . S
C1126 C1125 1.395 . S
C1126 C1129 1.398 . S
C1126 H1136 0.930 . S
C1127 C1125 1.380 . S
C1127 C1128 1.391 . S
C1127 H1137 0.930 . S
C1128 C1127 1.391 . S
C1128 C1130 1.387 . S
C1129 C1126 1.398 . S
C1129 C1130 1.380 . S
C1129 H1138 0.930 . S
C1130 C1128 1.387 . S
C1130 C1129 1.380 . S
C1130 H1139 0.930 . S
C1131 O1108 1.254 . S
C1131 O1109 1.268 . S
H1132 C1117 0.930 . S
H1133 C1118 0.930 . S
H1134 C1120 0.930 . S
H1135 C1121 0.930 . S
H1136 C1126 0.930 . S
H1137 C1127 0.930 . S
H1138 C1129 0.930 . S
H1139 C1130 0.930 . S
Gd1140 N1171 2.661 . S
Gd1140 N1177 2.601 . S
Gd1140 O1184 2.545 . S
Gd1140 O1185 2.606 . S
Gd1140 O1187 2.429 . S
Gd1140 O1188 2.545 . S
Gd1140 O1189 2.412 . S
Gd1140 O1191 2.362 . S
Gd1140 O1192 2.324 . S
Gd1140 C1199 2.828 . S
Gd1141 N1150 2.661 . S
Gd1141 N1154 2.601 . S
Gd1141 O1185 2.362 . S
Gd1141 O1186 2.324 . S
Gd1141 O1190 2.545 . S
Gd1141 O1191 2.606 . S
Gd1141 O1193 2.429 . S
Gd1141 O1194 2.545 . S
Gd1141 O1195 2.412 . S
Gd1141 C1208 2.828 . S
C1142 C1145 1.417 . S
C1142 C1147 1.431 . S
C1142 C1148 1.412 . S
C1143 C1146 1.437 . S
C1143 C1147 1.317 . S
C1143 H1162 0.929 . S
C1144 C1145 1.426 . S
C1144 C1146 1.413 . S
C1144 N1154 1.359 . S
C1145 C1142 1.417 . S
C1145 C1144 1.426 . S
C1145 N1150 1.350 . S
C1146 C1143 1.437 . S
C1146 C1144 1.413 . S
C1146 C1156 1.391 . S
C1147 C1142 1.431 . S
C1147 C1143 1.317 . S
C1147 H1158 0.930 . S
C1148 C1142 1.412 . S
C1148 C1149 1.355 . S
C1148 H1160 0.930 . S
C1149 C1148 1.355 . S
C1149 C1151 1.402 . S
C1149 H1161 0.930 . S
N1150 Gd1141 2.661 . S
N1150 C1145 1.350 . S
N1150 C1151 1.307 . S
C1151 C1149 1.402 . S
C1151 N1150 1.307 . S
C1151 H1152 0.930 . S
H1152 C1151 0.930 . S
C1153 N1154 1.334 . S
C1153 C1155 1.394 . S
C1153 H1157 0.930 . S
N1154 Gd1141 2.601 . S
N1154 C1144 1.359 . S
N1154 C1153 1.334 . S
C1155 C1153 1.394 . S
C1155 C1156 1.359 . S
C1155 H1167 0.930 . S
C1156 C1146 1.391 . S
C1156 C1155 1.359 . S
C1156 H1168 0.929 . S
H1157 C1153 0.930 . S
H1158 C1147 0.930 . S
H1159 C1176 0.930 . S
H1160 C1148 0.930 . S
H1161 C1149 0.930 . S
H1162 C1143 0.929 . S
H1163 C1181 0.930 . S
H1164 C1172 0.930 . S
H1165 C1173 0.930 . S
H1166 C1197 0.929 . S
H1167 C1155 0.930 . S
H1168 C1156 0.929 . S
H1169 C1198 0.930 . S
H1170 C1179 0.930 . S
N1171 Gd1140 2.661 . S
N1171 C1175 1.350 . S
N1171 C1176 1.307 . S
C1172 H1164 0.930 . S
C1172 C1173 1.355 . S
C1172 C1174 1.412 . S
C1173 H1165 0.930 . S
C1173 C1172 1.355 . S
C1173 C1176 1.402 . S
C1174 C1172 1.412 . S
C1174 C1175 1.417 . S
C1174 C1198 1.431 . S
C1175 N1171 1.350 . S
C1175 C1174 1.417 . S
C1175 C1178 1.426 . S
C1176 H1159 0.930 . S
C1176 N1171 1.307 . S
C1176 C1173 1.402 . S
N1177 Gd1140 2.601 . S
N1177 C1178 1.359 . S
N1177 C1181 1.334 . S
C1178 C1175 1.426 . S
C1178 N1177 1.359 . S
C1178 C1182 1.413 . S
C1179 H1170 0.930 . S
C1179 C1180 1.359 . S
C1179 C1181 1.394 . S
C1180 C1179 1.359 . S
C1180 C1182 1.391 . S
C1180 H1183 0.929 . S
C1181 H1163 0.930 . S
C1181 N1177 1.334 . S
C1181 C1179 1.394 . S
C1182 C1178 1.413 . S
C1182 C1180 1.391 . S
C1182 C1197 1.437 . S
H1183 C1180 0.929 . S
O1184 Gd1140 2.545 . S
O1184 C1199 1.258 . S
O1185 Gd1140 2.606 . S
O1185 Gd1141 2.362 . S
O1185 C1196 1.284 . S
O1186 Gd1141 2.324 . S
O1186 C1206 1.254 . S
O1187 Gd1140 2.429 . S
O1187 C1206 1.268 . S
O1188 Gd1140 2.545 . S
O1188 C1196 1.250 . S
O1189 Gd1140 2.412 . S
O1189 C1199 1.252 . S
O1190 Gd1141 2.545 . S
O1190 C1208 1.258 . S
O1191 Gd1140 2.362 . S
O1191 Gd1141 2.606 . S
O1191 C1207 1.284 . S
O1192 Gd1140 2.324 . S
O1192 C1215 1.254 . S
O1193 Gd1141 2.429 . S
O1193 C1215 1.268 . S
O1194 Gd1141 2.545 . S
O1194 C1207 1.250 . S
O1195 Gd1141 2.412 . S
O1195 C1208 1.252 . S
C1196 O1185 1.284 . S
C1196 O1188 1.250 . S
C1197 H1166 0.929 . S
C1197 C1182 1.437 . S
C1197 C1198 1.317 . S
C1198 H1169 0.930 . S
C1198 C1174 1.431 . S
C1198 C1197 1.317 . S
C1199 Gd1140 2.828 . S
C1199 O1184 1.258 . S
C1199 O1189 1.252 . S
C1199 C1200 1.497 . S
C1200 C1199 1.497 . S
C1200 C1201 1.395 . S
C1200 C1202 1.380 . S
C1201 C1200 1.395 . S
C1201 C1204 1.398 . S
C1201 H1216 0.930 . S
C1202 C1200 1.380 . S
C1202 C1203 1.391 . S
C1202 H1217 0.930 . S
C1203 C1202 1.391 . S
C1203 C1205 1.387 . S
C1204 C1201 1.398 . S
C1204 C1205 1.380 . S
C1204 H1218 0.930 . S
C1205 C1203 1.387 . S
C1205 C1204 1.380 . S
C1205 H1219 0.930 . S
C1206 O1186 1.254 . S
C1206 O1187 1.268 . S
C1207 O1191 1.284 . S
C1207 O1194 1.250 . S
C1208 Gd1141 2.828 . S
C1208 O1190 1.258 . S
C1208 O1195 1.252 . S
C1208 C1209 1.497 . S
C1209 C1208 1.497 . S
C1209 C1210 1.395 . S
C1209 C1211 1.380 . S
C1210 C1209 1.395 . S
C1210 C1213 1.398 . S
C1210 H1220 0.930 . S
C1211 C1209 1.380 . S
C1211 C1212 1.391 . S
C1211 H1221 0.930 . S
C1212 C1211 1.391 . S
C1212 C1214 1.387 . S
C1213 C1210 1.398 . S
C1213 C1214 1.380 . S
C1213 H1222 0.930 . S
C1214 C1212 1.387 . S
C1214 C1213 1.380 . S
C1214 H1223 0.930 . S
C1215 O1192 1.254 . S
C1215 O1193 1.268 . S
H1216 C1201 0.930 . S
H1217 C1202 0.930 . S
H1218 C1204 0.930 . S
H1219 C1205 0.930 . S
H1220 C1210 0.930 . S
H1221 C1211 0.930 . S
H1222 C1213 0.930 . S
H1223 C1214 0.930 . S
Gd1224 N1255 2.661 . S
Gd1224 N1261 2.601 . S
Gd1224 O1268 2.545 . S
Gd1224 O1269 2.606 . S
Gd1224 O1271 2.429 . S
Gd1224 O1272 2.545 . S
Gd1224 O1273 2.412 . S
Gd1224 O1275 2.362 . S
Gd1224 O1276 2.324 . S
Gd1224 C1283 2.828 . S
Gd1225 N1234 2.661 . S
Gd1225 N1238 2.601 . S
Gd1225 O1269 2.362 . S
Gd1225 O1270 2.324 . S
Gd1225 O1274 2.545 . S
Gd1225 O1275 2.606 . S
Gd1225 O1277 2.429 . S
Gd1225 O1278 2.545 . S
Gd1225 O1279 2.412 . S
Gd1225 C1292 2.828 . S
C1226 C1229 1.417 . S
C1226 C1231 1.431 . S
C1226 C1232 1.412 . S
C1227 C1230 1.437 . S
C1227 C1231 1.317 . S
C1227 H1246 0.929 . S
C1228 C1229 1.426 . S
C1228 C1230 1.413 . S
C1228 N1238 1.359 . S
C1229 C1226 1.417 . S
C1229 C1228 1.426 . S
C1229 N1234 1.350 . S
C1230 C1227 1.437 . S
C1230 C1228 1.413 . S
C1230 C1240 1.391 . S
C1231 C1226 1.431 . S
C1231 C1227 1.317 . S
C1231 H1242 0.930 . S
C1232 C1226 1.412 . S
C1232 C1233 1.355 . S
C1232 H1244 0.930 . S
C1233 C1232 1.355 . S
C1233 C1235 1.402 . S
C1233 H1245 0.930 . S
N1234 Gd1225 2.661 . S
N1234 C1229 1.350 . S
N1234 C1235 1.307 . S
C1235 C1233 1.402 . S
C1235 N1234 1.307 . S
C1235 H1236 0.930 . S
H1236 C1235 0.930 . S
C1237 N1238 1.334 . S
C1237 C1239 1.394 . S
C1237 H1241 0.930 . S
N1238 Gd1225 2.601 . S
N1238 C1228 1.359 . S
N1238 C1237 1.334 . S
C1239 C1237 1.394 . S
C1239 C1240 1.359 . S
C1239 H1251 0.930 . S
C1240 C1230 1.391 . S
C1240 C1239 1.359 . S
C1240 H1252 0.929 . S
H1241 C1237 0.930 . S
H1242 C1231 0.930 . S
H1243 C1260 0.930 . S
H1244 C1232 0.930 . S
H1245 C1233 0.930 . S
H1246 C1227 0.929 . S
H1247 C1265 0.930 . S
H1248 C1256 0.930 . S
H1249 C1257 0.930 . S
H1250 C1281 0.929 . S
H1251 C1239 0.930 . S
H1252 C1240 0.929 . S
H1253 C1282 0.930 . S
H1254 C1263 0.930 . S
N1255 Gd1224 2.661 . S
N1255 C1259 1.350 . S
N1255 C1260 1.307 . S
C1256 H1248 0.930 . S
C1256 C1257 1.355 . S
C1256 C1258 1.412 . S
C1257 H1249 0.930 . S
C1257 C1256 1.355 . S
C1257 C1260 1.402 . S
C1258 C1256 1.412 . S
C1258 C1259 1.417 . S
C1258 C1282 1.431 . S
C1259 N1255 1.350 . S
C1259 C1258 1.417 . S
C1259 C1262 1.426 . S
C1260 H1243 0.930 . S
C1260 N1255 1.307 . S
C1260 C1257 1.402 . S
N1261 Gd1224 2.601 . S
N1261 C1262 1.359 . S
N1261 C1265 1.334 . S
C1262 C1259 1.426 . S
C1262 N1261 1.359 . S
C1262 C1266 1.413 . S
C1263 H1254 0.930 . S
C1263 C1264 1.359 . S
C1263 C1265 1.394 . S
C1264 C1263 1.359 . S
C1264 C1266 1.391 . S
C1264 H1267 0.929 . S
C1265 H1247 0.930 . S
C1265 N1261 1.334 . S
C1265 C1263 1.394 . S
C1266 C1262 1.413 . S
C1266 C1264 1.391 . S
C1266 C1281 1.437 . S
H1267 C1264 0.929 . S
O1268 Gd1224 2.545 . S
O1268 C1283 1.258 . S
O1269 Gd1224 2.606 . S
O1269 Gd1225 2.362 . S
O1269 C1280 1.284 . S
O1270 Gd1225 2.324 . S
O1270 C1290 1.254 . S
O1271 Gd1224 2.429 . S
O1271 C1290 1.268 . S
O1272 Gd1224 2.545 . S
O1272 C1280 1.250 . S
O1273 Gd1224 2.412 . S
O1273 C1283 1.252 . S
O1274 Gd1225 2.545 . S
O1274 C1292 1.258 . S
O1275 Gd1224 2.362 . S
O1275 Gd1225 2.606 . S
O1275 C1291 1.284 . S
O1276 Gd1224 2.324 . S
O1276 C1299 1.254 . S
O1277 Gd1225 2.429 . S
O1277 C1299 1.268 . S
O1278 Gd1225 2.545 . S
O1278 C1291 1.250 . S
O1279 Gd1225 2.412 . S
O1279 C1292 1.252 . S
C1280 O1269 1.284 . S
C1280 O1272 1.250 . S
C1281 H1250 0.929 . S
C1281 C1266 1.437 . S
C1281 C1282 1.317 . S
C1282 H1253 0.930 . S
C1282 C1258 1.431 . S
C1282 C1281 1.317 . S
C1283 Gd1224 2.828 . S
C1283 O1268 1.258 . S
C1283 O1273 1.252 . S
C1283 C1284 1.497 . S
C1284 C1283 1.497 . S
C1284 C1285 1.395 . S
C1284 C1286 1.380 . S
C1285 C1284 1.395 . S
C1285 C1288 1.398 . S
C1285 H1300 0.930 . S
C1286 C1284 1.380 . S
C1286 C1287 1.391 . S
C1286 H1301 0.930 . S
C1287 C1286 1.391 . S
C1287 C1289 1.387 . S
C1288 C1285 1.398 . S
C1288 C1289 1.380 . S
C1288 H1302 0.930 . S
C1289 C1287 1.387 . S
C1289 C1288 1.380 . S
C1289 H1303 0.930 . S
C1290 O1270 1.254 . S
C1290 O1271 1.268 . S
C1291 O1275 1.284 . S
C1291 O1278 1.250 . S
C1292 Gd1225 2.828 . S
C1292 O1274 1.258 . S
C1292 O1279 1.252 . S
C1292 C1293 1.497 . S
C1293 C1292 1.497 . S
C1293 C1294 1.395 . S
C1293 C1295 1.380 . S
C1294 C1293 1.395 . S
C1294 C1297 1.398 . S
C1294 H1304 0.930 . S
C1295 C1293 1.380 . S
C1295 C1296 1.391 . S
C1295 H1305 0.930 . S
C1296 C1295 1.391 . S
C1296 C1298 1.387 . S
C1297 C1294 1.398 . S
C1297 C1298 1.380 . S
C1297 H1306 0.930 . S
C1298 C1296 1.387 . S
C1298 C1297 1.380 . S
C1298 H1307 0.930 . S
C1299 O1276 1.254 . S
C1299 O1277 1.268 . S
H1300 C1285 0.930 . S
H1301 C1286 0.930 . S
H1302 C1288 0.930 . S
H1303 C1289 0.930 . S
H1304 C1294 0.930 . S
H1305 C1295 0.930 . S
H1306 C1297 0.930 . S
H1307 C1298 0.930 . S
Gd1308 N1339 2.661 . S
Gd1308 N1345 2.601 . S
Gd1308 O1352 2.545 . S
Gd1308 O1353 2.606 . S
Gd1308 O1355 2.429 . S
Gd1308 O1356 2.545 . S
Gd1308 O1357 2.412 . S
Gd1308 O1359 2.362 . S
Gd1308 O1360 2.324 . S
Gd1308 C1367 2.828 . S
Gd1309 N1318 2.661 . S
Gd1309 N1322 2.601 . S
Gd1309 O1353 2.362 . S
Gd1309 O1354 2.324 . S
Gd1309 O1358 2.545 . S
Gd1309 O1359 2.606 . S
Gd1309 O1361 2.429 . S
Gd1309 O1362 2.545 . S
Gd1309 O1363 2.412 . S
Gd1309 C1376 2.828 . S
C1310 C1313 1.417 . S
C1310 C1315 1.431 . S
C1310 C1316 1.412 . S
C1311 C1314 1.437 . S
C1311 C1315 1.317 . S
C1311 H1330 0.929 . S
C1312 C1313 1.426 . S
C1312 C1314 1.413 . S
C1312 N1322 1.359 . S
C1313 C1310 1.417 . S
C1313 C1312 1.426 . S
C1313 N1318 1.350 . S
C1314 C1311 1.437 . S
C1314 C1312 1.413 . S
C1314 C1324 1.391 . S
C1315 C1310 1.431 . S
C1315 C1311 1.317 . S
C1315 H1326 0.930 . S
C1316 C1310 1.412 . S
C1316 C1317 1.355 . S
C1316 H1328 0.930 . S
C1317 C1316 1.355 . S
C1317 C1319 1.402 . S
C1317 H1329 0.930 . S
N1318 Gd1309 2.661 . S
N1318 C1313 1.350 . S
N1318 C1319 1.307 . S
C1319 C1317 1.402 . S
C1319 N1318 1.307 . S
C1319 H1320 0.930 . S
H1320 C1319 0.930 . S
C1321 N1322 1.334 . S
C1321 C1323 1.394 . S
C1321 H1325 0.930 . S
N1322 Gd1309 2.601 . S
N1322 C1312 1.359 . S
N1322 C1321 1.334 . S
C1323 C1321 1.394 . S
C1323 C1324 1.359 . S
C1323 H1335 0.930 . S
C1324 C1314 1.391 . S
C1324 C1323 1.359 . S
C1324 H1336 0.929 . S
H1325 C1321 0.930 . S
H1326 C1315 0.930 . S
H1327 C1344 0.930 . S
H1328 C1316 0.930 . S
H1329 C1317 0.930 . S
H1330 C1311 0.929 . S
H1331 C1349 0.930 . S
H1332 C1340 0.930 . S
H1333 C1341 0.930 . S
H1334 C1365 0.929 . S
H1335 C1323 0.930 . S
H1336 C1324 0.929 . S
H1337 C1366 0.930 . S
H1338 C1347 0.930 . S
N1339 Gd1308 2.661 . S
N1339 C1343 1.350 . S
N1339 C1344 1.307 . S
C1340 H1332 0.930 . S
C1340 C1341 1.355 . S
C1340 C1342 1.412 . S
C1341 H1333 0.930 . S
C1341 C1340 1.355 . S
C1341 C1344 1.402 . S
C1342 C1340 1.412 . S
C1342 C1343 1.417 . S
C1342 C1366 1.431 . S
C1343 N1339 1.350 . S
C1343 C1342 1.417 . S
C1343 C1346 1.426 . S
C1344 H1327 0.930 . S
C1344 N1339 1.307 . S
C1344 C1341 1.402 . S
N1345 Gd1308 2.601 . S
N1345 C1346 1.359 . S
N1345 C1349 1.334 . S
C1346 C1343 1.426 . S
C1346 N1345 1.359 . S
C1346 C1350 1.413 . S
C1347 H1338 0.930 . S
C1347 C1348 1.359 . S
C1347 C1349 1.394 . S
C1348 C1347 1.359 . S
C1348 C1350 1.391 . S
C1348 H1351 0.929 . S
C1349 H1331 0.930 . S
C1349 N1345 1.334 . S
C1349 C1347 1.394 . S
C1350 C1346 1.413 . S
C1350 C1348 1.391 . S
C1350 C1365 1.437 . S
H1351 C1348 0.929 . S
O1352 Gd1308 2.545 . S
O1352 C1367 1.258 . S
O1353 Gd1308 2.606 . S
O1353 Gd1309 2.362 . S
O1353 C1364 1.284 . S
O1354 Gd1309 2.324 . S
O1354 C1374 1.254 . S
O1355 Gd1308 2.429 . S
O1355 C1374 1.268 . S
O1356 Gd1308 2.545 . S
O1356 C1364 1.250 . S
O1357 Gd1308 2.412 . S
O1357 C1367 1.252 . S
O1358 Gd1309 2.545 . S
O1358 C1376 1.258 . S
O1359 Gd1308 2.362 . S
O1359 Gd1309 2.606 . S
O1359 C1375 1.284 . S
O1360 Gd1308 2.324 . S
O1360 C1383 1.254 . S
O1361 Gd1309 2.429 . S
O1361 C1383 1.268 . S
O1362 Gd1309 2.545 . S
O1362 C1375 1.250 . S
O1363 Gd1309 2.412 . S
O1363 C1376 1.252 . S
C1364 O1353 1.284 . S
C1364 O1356 1.250 . S
C1365 H1334 0.929 . S
C1365 C1350 1.437 . S
C1365 C1366 1.317 . S
C1366 H1337 0.930 . S
C1366 C1342 1.431 . S
C1366 C1365 1.317 . S
C1367 Gd1308 2.828 . S
C1367 O1352 1.258 . S
C1367 O1357 1.252 . S
C1367 C1368 1.497 . S
C1368 C1367 1.497 . S
C1368 C1369 1.395 . S
C1368 C1370 1.380 . S
C1369 C1368 1.395 . S
C1369 C1372 1.398 . S
C1369 H1384 0.930 . S
C1370 C1368 1.380 . S
C1370 C1371 1.391 . S
C1370 H1385 0.930 . S
C1371 C1370 1.391 . S
C1371 C1373 1.387 . S
C1372 C1369 1.398 . S
C1372 C1373 1.380 . S
C1372 H1386 0.930 . S
C1373 C1371 1.387 . S
C1373 C1372 1.380 . S
C1373 H1387 0.930 . S
C1374 O1354 1.254 . S
C1374 O1355 1.268 . S
C1375 O1359 1.284 . S
C1375 O1362 1.250 . S
C1376 Gd1309 2.828 . S
C1376 O1358 1.258 . S
C1376 O1363 1.252 . S
C1376 C1377 1.497 . S
C1377 C1376 1.497 . S
C1377 C1378 1.395 . S
C1377 C1379 1.380 . S
C1378 C1377 1.395 . S
C1378 C1381 1.398 . S
C1378 H1388 0.930 . S
C1379 C1377 1.380 . S
C1379 C1380 1.391 . S
C1379 H1389 0.930 . S
C1380 C1379 1.391 . S
C1380 C1382 1.387 . S
C1381 C1378 1.398 . S
C1381 C1382 1.380 . S
C1381 H1390 0.930 . S
C1382 C1380 1.387 . S
C1382 C1381 1.380 . S
C1382 H1391 0.930 . S
C1383 O1360 1.254 . S
C1383 O1361 1.268 . S
H1384 C1369 0.930 . S
H1385 C1370 0.930 . S
H1386 C1372 0.930 . S
H1387 C1373 0.930 . S
H1388 C1378 0.930 . S
H1389 C1379 0.930 . S
H1390 C1381 0.930 . S
H1391 C1382 0.930 . S
Gd1392 N1423 2.661 . S
Gd1392 N1429 2.601 . S
Gd1392 O1436 2.545 . S
Gd1392 O1437 2.606 . S
Gd1392 O1439 2.429 . S
Gd1392 O1440 2.545 . S
Gd1392 O1441 2.412 . S
Gd1392 O1443 2.362 . S
Gd1392 O1444 2.324 . S
Gd1392 C1451 2.828 . S
Gd1393 N1402 2.661 . S
Gd1393 N1406 2.601 . S
Gd1393 O1437 2.362 . S
Gd1393 O1438 2.324 . S
Gd1393 O1442 2.545 . S
Gd1393 O1443 2.606 . S
Gd1393 O1445 2.429 . S
Gd1393 O1446 2.545 . S
Gd1393 O1447 2.412 . S
Gd1393 C1460 2.828 . S
C1394 C1397 1.417 . S
C1394 C1399 1.431 . S
C1394 C1400 1.412 . S
C1395 C1398 1.437 . S
C1395 C1399 1.317 . S
C1395 H1414 0.929 . S
C1396 C1397 1.426 . S
C1396 C1398 1.413 . S
C1396 N1406 1.359 . S
C1397 C1394 1.417 . S
C1397 C1396 1.426 . S
C1397 N1402 1.350 . S
C1398 C1395 1.437 . S
C1398 C1396 1.413 . S
C1398 C1408 1.391 . S
C1399 C1394 1.431 . S
C1399 C1395 1.317 . S
C1399 H1410 0.930 . S
C1400 C1394 1.412 . S
C1400 C1401 1.355 . S
C1400 H1412 0.930 . S
C1401 C1400 1.355 . S
C1401 C1403 1.402 . S
C1401 H1413 0.930 . S
N1402 Gd1393 2.661 . S
N1402 C1397 1.350 . S
N1402 C1403 1.307 . S
C1403 C1401 1.402 . S
C1403 N1402 1.307 . S
C1403 H1404 0.930 . S
H1404 C1403 0.930 . S
C1405 N1406 1.334 . S
C1405 C1407 1.394 . S
C1405 H1409 0.930 . S
N1406 Gd1393 2.601 . S
N1406 C1396 1.359 . S
N1406 C1405 1.334 . S
C1407 C1405 1.394 . S
C1407 C1408 1.359 . S
C1407 H1419 0.930 . S
C1408 C1398 1.391 . S
C1408 C1407 1.359 . S
C1408 H1420 0.929 . S
H1409 C1405 0.930 . S
H1410 C1399 0.930 . S
H1411 C1428 0.930 . S
H1412 C1400 0.930 . S
H1413 C1401 0.930 . S
H1414 C1395 0.929 . S
H1415 C1433 0.930 . S
H1416 C1424 0.930 . S
H1417 C1425 0.930 . S
H1418 C1449 0.929 . S
H1419 C1407 0.930 . S
H1420 C1408 0.929 . S
H1421 C1450 0.930 . S
H1422 C1431 0.930 . S
N1423 Gd1392 2.661 . S
N1423 C1427 1.350 . S
N1423 C1428 1.307 . S
C1424 H1416 0.930 . S
C1424 C1425 1.355 . S
C1424 C1426 1.412 . S
C1425 H1417 0.930 . S
C1425 C1424 1.355 . S
C1425 C1428 1.402 . S
C1426 C1424 1.412 . S
C1426 C1427 1.417 . S
C1426 C1450 1.431 . S
C1427 N1423 1.350 . S
C1427 C1426 1.417 . S
C1427 C1430 1.426 . S
C1428 H1411 0.930 . S
C1428 N1423 1.307 . S
C1428 C1425 1.402 . S
N1429 Gd1392 2.601 . S
N1429 C1430 1.359 . S
N1429 C1433 1.334 . S
C1430 C1427 1.426 . S
C1430 N1429 1.359 . S
C1430 C1434 1.413 . S
C1431 H1422 0.930 . S
C1431 C1432 1.359 . S
C1431 C1433 1.394 . S
C1432 C1431 1.359 . S
C1432 C1434 1.391 . S
C1432 H1435 0.929 . S
C1433 H1415 0.930 . S
C1433 N1429 1.334 . S
C1433 C1431 1.394 . S
C1434 C1430 1.413 . S
C1434 C1432 1.391 . S
C1434 C1449 1.437 . S
H1435 C1432 0.929 . S
O1436 Gd1392 2.545 . S
O1436 C1451 1.258 . S
O1437 Gd1392 2.606 . S
O1437 Gd1393 2.362 . S
O1437 C1448 1.284 . S
O1438 Gd1393 2.324 . S
O1438 C1458 1.254 . S
O1439 Gd1392 2.429 . S
O1439 C1458 1.268 . S
O1440 Gd1392 2.545 . S
O1440 C1448 1.250 . S
O1441 Gd1392 2.412 . S
O1441 C1451 1.252 . S
O1442 Gd1393 2.545 . S
O1442 C1460 1.258 . S
O1443 Gd1392 2.362 . S
O1443 Gd1393 2.606 . S
O1443 C1459 1.284 . S
O1444 Gd1392 2.324 . S
O1444 C1467 1.254 . S
O1445 Gd1393 2.429 . S
O1445 C1467 1.268 . S
O1446 Gd1393 2.545 . S
O1446 C1459 1.250 . S
O1447 Gd1393 2.412 . S
O1447 C1460 1.252 . S
C1448 O1437 1.284 . S
C1448 O1440 1.250 . S
C1449 H1418 0.929 . S
C1449 C1434 1.437 . S
C1449 C1450 1.317 . S
C1450 H1421 0.930 . S
C1450 C1426 1.431 . S
C1450 C1449 1.317 . S
C1451 Gd1392 2.828 . S
C1451 O1436 1.258 . S
C1451 O1441 1.252 . S
C1451 C1452 1.497 . S
C1452 C1451 1.497 . S
C1452 C1453 1.395 . S
C1452 C1454 1.380 . S
C1453 C1452 1.395 . S
C1453 C1456 1.398 . S
C1453 H1468 0.930 . S
C1454 C1452 1.380 . S
C1454 C1455 1.391 . S
C1454 H1469 0.930 . S
C1455 C1454 1.391 . S
C1455 C1457 1.387 . S
C1456 C1453 1.398 . S
C1456 C1457 1.380 . S
C1456 H1470 0.930 . S
C1457 C1455 1.387 . S
C1457 C1456 1.380 . S
C1457 H1471 0.930 . S
C1458 O1438 1.254 . S
C1458 O1439 1.268 . S
C1459 O1443 1.284 . S
C1459 O1446 1.250 . S
C1460 Gd1393 2.828 . S
C1460 O1442 1.258 . S
C1460 O1447 1.252 . S
C1460 C1461 1.497 . S
C1461 C1460 1.497 . S
C1461 C1462 1.395 . S
C1461 C1463 1.380 . S
C1462 C1461 1.395 . S
C1462 C1465 1.398 . S
C1462 H1472 0.930 . S
C1463 C1461 1.380 . S
C1463 C1464 1.391 . S
C1463 H1473 0.930 . S
C1464 C1463 1.391 . S
C1464 C1466 1.387 . S
C1465 C1462 1.398 . S
C1465 C1466 1.380 . S
C1465 H1474 0.930 . S
C1466 C1464 1.387 . S
C1466 C1465 1.380 . S
C1466 H1475 0.930 . S
C1467 O1444 1.254 . S
C1467 O1445 1.268 . S
H1468 C1453 0.930 . S
H1469 C1454 0.930 . S
H1470 C1456 0.930 . S
H1471 C1457 0.930 . S
H1472 C1462 0.930 . S
H1473 C1463 0.930 . S
H1474 C1465 0.930 . S
H1475 C1466 0.930 . S
H1476 C1488 0.930 . S
H1477 C1490 0.930 . S
H1478 C1491 0.930 . S
H1479 C1495 0.959 . S
H1480 C1495 0.959 . S
H1481 C1495 0.961 . S
H1482 C1496 0.960 . S
H1483 C1496 0.961 . S
H1484 C1496 0.959 . S
H1485 C1499 0.929 . S
H1486 C1500 0.931 . S
H1487 C1502 0.930 . S
C1488 H1476 0.930 . S
C1488 C1489 1.399 . S
C1488 C1493 1.399 . S
C1489 C1488 1.399 . S
C1489 C1490 1.376 . S
C1490 H1477 0.930 . S
C1490 C1489 1.376 . S
C1490 C1491 1.388 . S
C1491 H1478 0.930 . S
C1491 C1490 1.388 . S
C1491 C1492 1.390 . S
C1492 C1491 1.390 . S
C1492 C1493 1.394 . S
C1492 C1498 1.465 . S
C1493 C1488 1.399 . S
C1493 C1492 1.394 . S
C1493 C1494 1.516 . S
C1494 C1493 1.516 . S
C1494 C1495 1.502 . S
C1494 C1496 1.561 . S
C1494 C1497 1.526 . S
C1495 H1479 0.959 . S
C1495 H1480 0.959 . S
C1495 H1481 0.961 . S
C1495 C1494 1.502 . S
C1496 H1482 0.960 . S
C1496 H1483 0.961 . S
C1496 H1484 0.959 . S
C1496 C1494 1.561 . S
C1497 C1494 1.526 . S
C1497 C1498 1.396 . S
C1497 C1502 1.390 . S
C1498 C1492 1.465 . S
C1498 C1497 1.396 . S
C1498 C1499 1.399 . S
C1499 H1485 0.929 . S
C1499 C1498 1.399 . S
C1499 C1500 1.385 . S
C1500 H1486 0.931 . S
C1500 C1499 1.385 . S
C1500 C1501 1.389 . S
C1501 C1500 1.389 . S
C1501 C1502 1.387 . S
C1502 H1487 0.930 . S
C1502 C1497 1.390 . S
C1502 C1501 1.387 . S
H1503 C1515 0.930 . S
H1504 C1517 0.930 . S
H1505 C1518 0.930 . S
H1506 C1522 0.959 . S
H1507 C1522 0.959 . S
H1508 C1522 0.961 . S
H1509 C1523 0.960 . S
H1510 C1523 0.961 1_556 S
H1511 C1523 0.959 . S
H1512 C1526 0.929 . S
H1513 C1527 0.931 . S
H1514 C1529 0.930 . S
C1515 H1503 0.930 . S
C1515 C1516 1.399 . S
C1515 C1520 1.399 . S
C1516 C1515 1.399 . S
C1516 C1517 1.376 . S
C1517 H1504 0.930 . S
C1517 C1516 1.376 . S
C1517 C1518 1.388 . S
C1518 H1505 0.930 . S
C1518 C1517 1.388 . S
C1518 C1519 1.390 . S
C1519 C1518 1.390 . S
C1519 C1520 1.394 . S
C1519 C1525 1.465 . S
C1520 C1515 1.399 . S
C1520 C1519 1.394 . S
C1520 C1521 1.516 . S
C1521 C1520 1.516 . S
C1521 C1522 1.502 . S
C1521 C1523 1.561 . S
C1521 C1524 1.526 . S
C1522 H1506 0.959 . S
C1522 H1507 0.959 . S
C1522 H1508 0.961 . S
C1522 C1521 1.502 . S
C1523 H1509 0.960 . S
C1523 H1510 0.961 1_554 S
C1523 H1511 0.959 . S
C1523 C1521 1.561 . S
C1524 C1521 1.526 . S
C1524 C1525 1.396 . S
C1524 C1529 1.390 . S
C1525 C1519 1.465 . S
C1525 C1524 1.396 . S
C1525 C1526 1.399 . S
C1526 H1512 0.929 . S
C1526 C1525 1.399 . S
C1526 C1527 1.385 . S
C1527 H1513 0.931 . S
C1527 C1526 1.385 . S
C1527 C1528 1.389 . S
C1528 C1527 1.389 . S
C1528 C1529 1.387 . S
C1529 H1514 0.930 . S
C1529 C1524 1.390 . S
C1529 C1528 1.387 . S
H1530 C1542 0.930 . S
H1531 C1544 0.930 . S
H1532 C1545 0.930 . S
H1533 C1549 0.959 . S
H1534 C1549 0.959 1_556 S
H1535 C1549 0.961 1_556 S
H1536 C1550 0.960 . S
H1537 C1550 0.961 1_556 S
H1538 C1550 0.959 . S
H1539 C1553 0.929 . S
H1540 C1554 0.931 . S
H1541 C1556 0.930 . S
C1542 H1530 0.930 . S
C1542 C1543 1.399 . S
C1542 C1547 1.399 . S
C1543 C1542 1.399 . S
C1543 C1544 1.376 . S
C1544 H1531 0.930 . S
C1544 C1543 1.376 . S
C1544 C1545 1.388 . S
C1545 H1532 0.930 . S
C1545 C1544 1.388 . S
C1545 C1546 1.390 . S
C1546 C1545 1.390 . S
C1546 C1547 1.394 . S
C1546 C1552 1.465 . S
C1547 C1542 1.399 . S
C1547 C1546 1.394 . S
C1547 C1548 1.516 . S
C1548 C1547 1.516 . S
C1548 C1549 1.502 . S
C1548 C1550 1.561 . S
C1548 C1551 1.526 . S
C1549 H1533 0.959 . S
C1549 H1534 0.959 1_554 S
C1549 H1535 0.961 1_554 S
C1549 C1548 1.502 . S
C1550 H1536 0.960 . S
C1550 H1537 0.961 1_554 S
C1550 H1538 0.959 . S
C1550 C1548 1.561 . S
C1551 C1548 1.526 . S
C1551 C1552 1.396 . S
C1551 C1556 1.390 . S
C1552 C1546 1.465 . S
C1552 C1551 1.396 . S
C1552 C1553 1.399 . S
C1553 H1539 0.929 . S
C1553 C1552 1.399 . S
C1553 C1554 1.385 . S
C1554 H1540 0.931 . S
C1554 C1553 1.385 . S
C1554 C1555 1.389 . S
C1555 C1554 1.389 . S
C1555 C1556 1.387 . S
C1556 H1541 0.930 . S
C1556 C1551 1.390 . S
C1556 C1555 1.387 . S
H1557 C1569 0.930 . S
H1558 C1571 0.930 . S
H1559 C1572 0.930 . S
H1560 C1576 0.959 . S
H1561 C1576 0.959 . S
H1562 C1576 0.961 . S
H1563 C1577 0.960 . S
H1564 C1577 0.961 . S
H1565 C1577 0.959 . S
H1566 C1580 0.929 1_554 S
H1567 C1581 0.953 . S
H1568 C1583 0.930 . S
C1569 H1557 0.930 . S
C1569 C1570 1.399 . S
C1569 C1574 1.399 . S
C1570 C1569 1.399 . S
C1570 C1571 1.376 . S
C1571 H1558 0.930 . S
C1571 C1570 1.376 . S
C1571 C1572 1.388 . S
C1572 H1559 0.930 . S
C1572 C1571 1.388 . S
C1572 C1573 1.390 . S
C1573 C1572 1.390 . S
C1573 C1574 1.394 . S
C1573 C1579 1.465 . S
C1574 C1569 1.399 . S
C1574 C1573 1.394 . S
C1574 C1575 1.516 . S
C1575 C1574 1.516 . S
C1575 C1576 1.502 . S
C1575 C1577 1.561 . S
C1575 C1578 1.526 . S
C1576 H1560 0.959 . S
C1576 H1561 0.959 . S
C1576 H1562 0.961 . S
C1576 C1575 1.502 . S
C1577 H1563 0.960 . S
C1577 H1564 0.961 . S
C1577 H1565 0.959 . S
C1577 C1575 1.561 . S
C1578 C1575 1.526 . S
C1578 C1579 1.396 . S
C1578 C1583 1.390 . S
C1579 C1573 1.465 . S
C1579 C1578 1.396 . S
C1579 C1580 1.399 . S
C1580 H1566 0.929 1_556 S
C1580 C1579 1.399 . S
C1580 C1581 1.382 1_556 S
C1581 H1567 0.953 . S
C1581 C1580 1.382 1_554 S
C1581 C1582 1.372 1_554 S
C1582 C1581 1.372 1_556 S
C1582 C1583 1.387 . S
C1583 H1568 0.930 . S
C1583 C1578 1.390 . S
C1583 C1582 1.387 . S
H1584 C1596 0.930 . S
H1585 C1598 0.930 . S
H1586 C1599 0.930 . S
H1587 C1603 0.950 1_556 S
H1588 C1603 1.009 . S
H1589 C1603 0.971 . S
H1590 C1604 0.960 . S
H1591 C1604 0.969 . S
H1592 C1604 0.959 . S
H1593 C1607 0.929 . S
H1594 C1608 0.931 . S
H1595 C1610 0.930 1_554 S
C1596 H1584 0.930 . S
C1596 C1597 1.399 . S
C1596 C1601 1.399 . S
C1597 C1596 1.399 . S
C1597 C1598 1.376 . S
C1598 H1585 0.930 . S
C1598 C1597 1.376 . S
C1598 C1599 1.388 . S
C1599 H1586 0.930 . S
C1599 C1598 1.388 . S
C1599 C1600 1.390 . S
C1600 C1599 1.390 . S
C1600 C1601 1.394 . S
C1600 C1606 1.465 . S
C1601 C1596 1.399 . S
C1601 C1600 1.394 . S
C1601 C1602 1.516 . S
C1602 C1601 1.516 . S
C1602 C1603 1.454 1_556 S
C1602 C1604 1.561 . S
C1602 C1605 1.526 . S
C1603 H1587 0.950 1_554 S
C1603 H1588 1.009 . S
C1603 H1589 0.971 . S
C1603 C1602 1.454 1_554 S
C1604 H1590 0.960 . S
C1604 H1591 0.969 . S
C1604 H1592 0.959 . S
C1604 C1602 1.561 . S
C1605 C1602 1.526 . S
C1605 C1606 1.396 . S
C1605 C1610 1.390 . S
C1606 C1600 1.465 . S
C1606 C1605 1.396 . S
C1606 C1607 1.399 . S
C1607 H1593 0.929 . S
C1607 C1606 1.399 . S
C1607 C1608 1.385 . S
C1608 H1594 0.931 . S
C1608 C1607 1.385 . S
C1608 C1609 1.389 . S
C1609 C1608 1.389 . S
C1609 C1610 1.387 . S
C1610 H1595 0.930 1_556 S
C1610 C1605 1.390 . S
C1610 C1609 1.387 . S
H1611 C1623 0.930 . S
H1612 C1625 0.930 . S
H1613 C1626 0.930 . S
H1614 C1630 0.959 . S
H1615 C1630 0.959 . S
H1616 C1630 0.961 . S
H1617 C1631 0.960 . S
H1618 C1631 0.961 . S
H1619 C1631 0.959 . S
H1620 C1634 0.929 1_554 S
H1621 C1635 0.931 1_554 S
H1622 C1637 0.930 . S
C1623 H1611 0.930 . S
C1623 C1624 1.399 . S
C1623 C1628 1.399 . S
C1624 C1623 1.399 . S
C1624 C1625 1.376 . S
C1625 H1612 0.930 . S
C1625 C1624 1.376 . S
C1625 C1626 1.388 . S
C1626 H1613 0.930 . S
C1626 C1625 1.388 . S
C1626 C1627 1.390 . S
C1627 C1626 1.390 . S
C1627 C1628 1.394 . S
C1627 C1633 1.465 . S
C1628 C1623 1.399 . S
C1628 C1627 1.394 . S
C1628 C1629 1.516 . S
C1629 C1628 1.516 . S
C1629 C1630 1.502 . S
C1629 C1631 1.561 . S
C1629 C1632 1.526 . S
C1630 H1614 0.959 . S
C1630 H1615 0.959 . S
C1630 H1616 0.961 . S
C1630 C1629 1.502 . S
C1631 H1617 0.960 . S
C1631 H1618 0.961 . S
C1631 H1619 0.959 . S
C1631 C1629 1.561 . S
C1632 C1629 1.526 . S
C1632 C1633 1.396 . S
C1632 C1637 1.390 . S
C1633 C1627 1.465 . S
C1633 C1632 1.396 . S
C1633 C1634 1.399 . S
C1634 H1620 0.929 1_556 S
C1634 C1633 1.399 . S
C1634 C1635 1.385 . S
C1635 H1621 0.931 1_556 S
C1635 C1634 1.385 . S
C1635 C1636 1.389 . S
C1636 C1635 1.389 . S
C1636 C1637 1.387 . S
C1637 H1622 0.930 . S
C1637 C1632 1.390 . S
C1637 C1636 1.387 . S
H1638 C1650 0.930 . S
H1639 C1652 0.930 . S
H1640 C1653 0.930 . S
H1641 C1657 0.994 . S
H1642 C1657 0.910 1_554 S
H1643 C1657 0.952 1_554 S
H1644 C1658 0.977 . S
H1645 C1658 1.028 . S
H1646 C1658 0.927 1_556 S
H1647 C1661 0.929 . S
H1648 C1662 0.931 . S
H1649 C1664 0.930 1_554 S
C1650 H1638 0.930 . S
C1650 C1651 1.399 . S
C1650 C1655 1.399 . S
C1651 C1650 1.399 . S
C1651 C1652 1.376 . S
C1652 H1639 0.930 . S
C1652 C1651 1.376 . S
C1652 C1653 1.388 . S
C1653 H1640 0.930 . S
C1653 C1652 1.388 . S
C1653 C1654 1.390 . S
C1654 C1653 1.390 . S
C1654 C1655 1.394 . S
C1654 C1660 1.465 . S
C1655 C1650 1.399 . S
C1655 C1654 1.394 . S
C1655 C1656 1.516 . S
C1656 C1655 1.516 . S
C1656 C1657 1.532 . S
C1656 C1658 1.517 1_556 S
C1656 C1659 1.526 . S
C1657 H1641 0.994 . S
C1657 H1642 0.910 1_556 S
C1657 H1643 0.952 1_556 S
C1657 C1656 1.532 . S
C1658 H1644 0.977 . S
C1658 H1645 1.028 . S
C1658 H1646 0.927 1_554 S
C1658 C1656 1.517 1_554 S
C1659 C1656 1.526 . S
C1659 C1660 1.396 . S
C1659 C1664 1.390 . S
C1660 C1654 1.465 . S
C1660 C1659 1.396 . S
C1660 C1661 1.399 . S
C1661 H1647 0.929 . S
C1661 C1660 1.399 . S
C1661 C1662 1.385 . S
C1662 H1648 0.931 . S
C1662 C1661 1.385 . S
C1662 C1663 1.389 . S
C1663 C1662 1.389 . S
C1663 C1664 1.387 . S
C1664 H1649 0.930 1_556 S
C1664 C1659 1.390 . S
C1664 C1663 1.387 . S
H1665 C1677 0.930 . S
H1666 C1679 0.930 . S
H1667 C1680 0.930 . S
H1668 C1684 0.959 . S
H1669 C1684 0.959 . S
H1670 C1684 0.961 . S
H1671 C1685 0.960 . S
H1672 C1685 0.961 . S
H1673 C1685 0.997 . S
H1674 C1688 0.929 . S
H1675 C1689 0.931 . S
H1676 C1691 0.930 . S
C1677 H1665 0.930 . S
C1677 C1678 1.399 . S
C1677 C1682 1.399 . S
C1678 C1677 1.399 . S
C1678 C1679 1.376 . S
C1679 H1666 0.930 . S
C1679 C1678 1.376 . S
C1679 C1680 1.388 . S
C1680 H1667 0.930 . S
C1680 C1679 1.388 . S
C1680 C1681 1.390 . S
C1681 C1680 1.390 . S
C1681 C1682 1.394 . S
C1681 C1687 1.465 . S
C1682 C1677 1.399 . S
C1682 C1681 1.394 . S
C1682 C1683 1.516 . S
C1683 C1682 1.516 . S
C1683 C1684 1.502 . S
C1683 C1685 1.561 . S
C1683 C1686 1.526 . S
C1684 H1668 0.959 . S
C1684 H1669 0.959 . S
C1684 H1670 0.961 . S
C1684 C1683 1.502 . S
C1685 H1671 0.960 . S
C1685 H1672 0.961 . S
C1685 H1673 0.997 . S
C1685 C1683 1.561 . S
C1686 C1683 1.526 . S
C1686 C1687 1.396 . S
C1686 C1691 1.390 . S
C1687 C1681 1.465 . S
C1687 C1686 1.396 . S
C1687 C1688 1.399 . S
C1688 H1674 0.929 . S
C1688 C1687 1.399 . S
C1688 C1689 1.385 . S
C1689 H1675 0.931 . S
C1689 C1688 1.385 . S
C1689 C1690 1.389 . S
C1690 C1689 1.389 . S
C1690 C1691 1.387 . S
C1691 H1676 0.930 . S
C1691 C1686 1.390 . S
C1691 C1690 1.387 . S
H1692 C1704 0.930 . S
H1693 C1706 0.930 . S
H1694 C1707 0.930 . S
H1695 C1711 0.959 . S
H1696 C1711 0.959 . S
H1697 C1711 0.961 . S
H1698 C1712 0.961 . S
H1699 C1712 0.961 1_554 S
H1700 C1712 0.959 . S
H1701 C1715 0.929 . S
H1702 C1716 0.931 . S
H1703 C1718 0.930 1_554 S
C1704 H1692 0.930 . S
C1704 C1705 1.399 . S
C1704 C1709 1.399 . S
C1705 C1704 1.399 . S
C1705 C1706 1.376 . S
C1706 H1693 0.930 . S
C1706 C1705 1.376 . S
C1706 C1707 1.388 . S
C1707 H1694 0.930 . S
C1707 C1706 1.388 . S
C1707 C1708 1.390 . S
C1708 C1707 1.390 . S
C1708 C1709 1.394 . S
C1708 C1714 1.465 . S
C1709 C1704 1.399 . S
C1709 C1708 1.394 . S
C1709 C1710 1.516 . S
C1710 C1709 1.516 . S
C1710 C1711 1.502 1_556 S
C1710 C1712 1.561 . S
C1710 C1713 1.526 . S
C1711 H1695 0.959 . S
C1711 H1696 0.959 . S
C1711 H1697 0.961 . S
C1711 C1710 1.502 1_554 S
C1712 H1698 0.961 . S
C1712 H1699 0.961 1_556 S
C1712 H1700 0.959 . S
C1712 C1710 1.561 . S
C1713 C1710 1.526 . S
C1713 C1714 1.396 . S
C1713 C1718 1.390 . S
C1714 C1708 1.465 . S
C1714 C1713 1.396 . S
C1714 C1715 1.399 . S
C1715 H1701 0.929 . S
C1715 C1714 1.399 . S
C1715 C1716 1.385 . S
C1716 H1702 0.931 . S
C1716 C1715 1.385 . S
C1716 C1717 1.389 . S
C1717 C1716 1.389 . S
C1717 C1718 1.387 . S
C1718 H1703 0.930 1_556 S
C1718 C1713 1.390 . S
C1718 C1717 1.387 . S
H1719 C1731 0.930 . S
H1720 C1733 0.930 . S
H1721 C1734 0.930 . S
H1722 C1738 0.959 . S
H1723 C1738 0.959 . S
H1724 C1738 0.961 . S
H1725 C1739 0.960 . S
H1726 C1739 0.961 . S
H1727 C1739 0.959 . S
H1728 C1742 0.929 . S
H1729 C1743 0.931 1_556 S
H1730 C1745 0.930 . S
C1731 H1719 0.930 . S
C1731 C1732 1.399 . S
C1731 C1736 1.399 . S
C1732 C1731 1.399 . S
C1732 C1733 1.376 . S
C1733 H1720 0.930 . S
C1733 C1732 1.376 . S
C1733 C1734 1.388 . S
C1734 H1721 0.930 . S
C1734 C1733 1.388 . S
C1734 C1735 1.390 . S
C1735 C1734 1.390 . S
C1735 C1736 1.394 . S
C1735 C1741 1.465 . S
C1736 C1731 1.399 . S
C1736 C1735 1.394 . S
C1736 C1737 1.516 . S
C1737 C1736 1.516 . S
C1737 C1738 1.502 . S
C1737 C1739 1.561 . S
C1737 C1740 1.526 . S
C1738 H1722 0.959 . S
C1738 H1723 0.959 . S
C1738 H1724 0.961 . S
C1738 C1737 1.502 . S
C1739 H1725 0.960 . S
C1739 H1726 0.961 . S
C1739 H1727 0.959 . S
C1739 C1737 1.561 . S
C1740 C1737 1.526 . S
C1740 C1741 1.396 . S
C1740 C1745 1.390 . S
C1741 C1735 1.465 . S
C1741 C1740 1.396 . S
C1741 C1742 1.399 . S
C1742 H1728 0.929 . S
C1742 C1741 1.399 . S
C1742 C1743 1.385 . S
C1743 H1729 0.931 1_554 S
C1743 C1742 1.385 . S
C1743 C1744 1.389 . S
C1744 C1743 1.389 . S
C1744 C1745 1.387 . S
C1745 H1730 0.930 . S
C1745 C1740 1.390 . S
C1745 C1744 1.387 . S
H1746 C1758 0.930 . S
H1747 C1760 0.930 . S
H1748 C1761 0.930 . S
H1749 C1765 0.959 . S
H1750 C1765 0.959 . S
H1751 C1765 0.961 . S
H1752 C1766 0.960 . S
H1753 C1766 0.961 . S
H1754 C1766 0.959 . S
H1755 C1769 0.929 . S
H1756 C1770 0.931 . S
H1757 C1772 0.930 . S
C1758 H1746 0.930 . S
C1758 C1759 1.399 . S
C1758 C1763 1.399 . S
C1759 C1758 1.399 . S
C1759 C1760 1.376 . S
C1760 H1747 0.930 . S
C1760 C1759 1.376 . S
C1760 C1761 1.388 . S
C1761 H1748 0.930 . S
C1761 C1760 1.388 . S
C1761 C1762 1.390 . S
C1762 C1761 1.390 . S
C1762 C1763 1.394 . S
C1762 C1768 1.465 . S
C1763 C1758 1.399 . S
C1763 C1762 1.394 . S
C1763 C1764 1.516 . S
C1764 C1763 1.516 . S
C1764 C1765 1.502 . S
C1764 C1766 1.561 . S
C1764 C1767 1.526 . S
C1765 H1749 0.959 . S
C1765 H1750 0.959 . S
C1765 H1751 0.961 . S
C1765 C1764 1.502 . S
C1766 H1752 0.960 . S
C1766 H1753 0.961 . S
C1766 H1754 0.959 . S
C1766 C1764 1.561 . S
C1767 C1764 1.526 . S
C1767 C1768 1.396 . S
C1767 C1772 1.390 . S
C1768 C1762 1.465 . S
C1768 C1767 1.396 . S
C1768 C1769 1.399 . S
C1769 H1755 0.929 . S
C1769 C1768 1.399 . S
C1769 C1770 1.385 . S
C1770 H1756 0.931 . S
C1770 C1769 1.385 . S
C1770 C1771 1.389 . S
C1771 C1770 1.389 . S
C1771 C1772 1.387 . S
C1772 H1757 0.930 . S
C1772 C1767 1.390 . S
C1772 C1771 1.387 . S
H1773 C1785 0.930 . S
H1774 C1787 0.930 . S
H1775 C1788 0.930 . S
H1776 C1792 0.959 . S
H1777 C1792 0.959 1_556 S
H1778 C1792 0.974 . S
H1779 C1793 0.960 . S
H1780 C1793 0.961 1_556 S
H1781 C1793 0.959 . S
H1782 C1796 0.929 . S
H1783 C1797 0.931 . S
H1784 C1799 0.930 . S
C1785 H1773 0.930 . S
C1785 C1786 1.399 . S
C1785 C1790 1.399 . S
C1786 C1785 1.399 . S
C1786 C1787 1.376 . S
C1787 H1774 0.930 . S
C1787 C1786 1.376 . S
C1787 C1788 1.388 . S
C1788 H1775 0.930 . S
C1788 C1787 1.388 . S
C1788 C1789 1.390 . S
C1789 C1788 1.390 . S
C1789 C1790 1.394 . S
C1789 C1795 1.465 . S
C1790 C1785 1.399 . S
C1790 C1789 1.394 . S
C1790 C1791 1.516 . S
C1791 C1790 1.516 . S
C1791 C1792 1.502 . S
C1791 C1793 1.561 . S
C1791 C1794 1.526 . S
C1792 H1776 0.959 . S
C1792 H1777 0.959 1_554 S
C1792 H1778 0.974 . S
C1792 C1791 1.502 . S
C1793 H1779 0.960 . S
C1793 H1780 0.961 1_554 S
C1793 H1781 0.959 . S
C1793 C1791 1.561 . S
C1794 C1791 1.526 . S
C1794 C1795 1.396 . S
C1794 C1799 1.390 . S
C1795 C1789 1.465 . S
C1795 C1794 1.396 . S
C1795 C1796 1.399 . S
C1796 H1782 0.929 . S
C1796 C1795 1.399 . S
C1796 C1797 1.385 . S
C1797 H1783 0.931 . S
C1797 C1796 1.385 . S
C1797 C1798 1.389 . S
C1798 C1797 1.389 . S
C1798 C1799 1.387 . S
C1799 H1784 0.930 . S
C1799 C1794 1.390 . S
C1799 C1798 1.387 . S
H1800 C1812 0.956 . S
H1801 C1814 0.930 . S
H1802 C1815 0.930 . S
H1803 C1819 0.959 . S
H1804 C1819 0.959 . S
H1805 C1819 0.961 . S
H1806 C1820 0.960 . S
H1807 C1820 0.961 . S
H1808 C1820 0.959 . S
H1809 C1823 0.929 . S
H1810 C1824 0.931 . S
H1811 C1826 0.930 . S
C1812 H1800 0.956 . S
C1812 C1813 1.399 . S
C1812 C1817 1.399 . S
C1813 C1812 1.399 . S
C1813 C1814 1.376 . S
C1814 H1801 0.930 . S
C1814 C1813 1.376 . S
C1814 C1815 1.388 . S
C1815 H1802 0.930 . S
C1815 C1814 1.388 . S
C1815 C1816 1.390 . S
C1816 C1815 1.390 . S
C1816 C1817 1.394 . S
C1816 C1822 1.465 . S
C1817 C1812 1.399 . S
C1817 C1816 1.394 . S
C1817 C1818 1.516 . S
C1818 C1817 1.516 . S
C1818 C1819 1.502 . S
C1818 C1820 1.561 . S
C1818 C1821 1.526 . S
C1819 H1803 0.959 . S
C1819 H1804 0.959 . S
C1819 H1805 0.961 . S
C1819 C1818 1.502 . S
C1820 H1806 0.960 . S
C1820 H1807 0.961 . S
C1820 H1808 0.959 . S
C1820 C1818 1.561 . S
C1821 C1818 1.526 . S
C1821 C1822 1.396 . S
C1821 C1826 1.390 . S
C1822 C1816 1.465 . S
C1822 C1821 1.396 . S
C1822 C1823 1.399 . S
C1823 H1809 0.929 . S
C1823 C1822 1.399 . S
C1823 C1824 1.385 . S
C1824 H1810 0.931 . S
C1824 C1823 1.385 . S
C1824 C1825 1.389 . S
C1825 C1824 1.389 . S
C1825 C1826 1.387 . S
C1826 H1811 0.930 . S
C1826 C1821 1.390 . S
C1826 C1825 1.387 . S
H1827 C1839 0.930 . S
H1828 C1841 0.930 . S
H1829 C1842 0.930 . S
H1830 C1846 0.959 . S
H1831 C1846 0.959 . S
H1832 C1846 0.961 . S
H1833 C1847 0.960 . S
H1834 C1847 0.961 . S
H1835 C1847 0.959 . S
H1836 C1850 0.929 . S
H1837 C1851 0.931 . S
H1838 C1853 0.930 . S
C1839 H1827 0.930 . S
C1839 C1840 1.399 . S
C1839 C1844 1.399 . S
C1840 C1839 1.399 . S
C1840 C1841 1.376 . S
C1841 H1828 0.930 . S
C1841 C1840 1.376 . S
C1841 C1842 1.388 . S
C1842 H1829 0.930 . S
C1842 C1841 1.388 . S
C1842 C1843 1.390 . S
C1843 C1842 1.390 . S
C1843 C1844 1.394 . S
C1843 C1849 1.465 . S
C1844 C1839 1.399 . S
C1844 C1843 1.394 . S
C1844 C1845 1.516 . S
C1845 C1844 1.516 . S
C1845 C1846 1.502 . S
C1845 C1847 1.561 . S
C1845 C1848 1.526 . S
C1846 H1830 0.959 . S
C1846 H1831 0.959 . S
C1846 H1832 0.961 . S
C1846 C1845 1.502 . S
C1847 H1833 0.960 . S
C1847 H1834 0.961 . S
C1847 H1835 0.959 . S
C1847 C1845 1.561 . S
C1848 C1845 1.526 . S
C1848 C1849 1.396 . S
C1848 C1853 1.390 . S
C1849 C1843 1.465 . S
C1849 C1848 1.396 . S
C1849 C1850 1.399 . S
C1850 H1836 0.929 . S
C1850 C1849 1.399 . S
C1850 C1851 1.385 . S
C1851 H1837 0.931 . S
C1851 C1850 1.385 . S
C1851 C1852 1.389 . S
C1852 C1851 1.389 . S
C1852 C1853 1.387 . S
C1853 H1838 0.930 . S
C1853 C1848 1.390 . S
C1853 C1852 1.387 . S
H1854 C1866 0.930 1_545 S
H1855 C1868 0.932 . S
H1856 C1869 0.930 . S
H1857 C1873 0.959 . S
H1858 C1873 0.959 . S
H1859 C1873 0.961 . S
H1860 C1874 0.960 . S
H1861 C1874 0.961 . S
H1862 C1874 0.959 . S
H1863 C1877 0.929 . S
H1864 C1878 0.931 . S
H1865 C1880 0.930 . S
C1866 H1854 0.930 1_565 S
C1866 C1867 1.399 1_565 S
C1866 C1871 1.399 . S
C1867 C1866 1.399 1_545 S
C1867 C1868 1.376 1_545 S
C1868 H1855 0.932 . S
C1868 C1867 1.376 1_565 S
C1868 C1869 1.388 . S
C1869 H1856 0.930 . S
C1869 C1868 1.388 . S
C1869 C1870 1.390 . S
C1870 C1869 1.390 . S
C1870 C1871 1.394 . S
C1870 C1876 1.465 . S
C1871 C1866 1.399 . S
C1871 C1870 1.394 . S
C1871 C1872 1.516 . S
C1872 C1871 1.516 . S
C1872 C1873 1.502 . S
C1872 C1874 1.561 . S
C1872 C1875 1.526 . S
C1873 H1857 0.959 . S
C1873 H1858 0.959 . S
C1873 H1859 0.961 . S
C1873 C1872 1.502 . S
C1874 H1860 0.960 . S
C1874 H1861 0.961 . S
C1874 H1862 0.959 . S
C1874 C1872 1.561 . S
C1875 C1872 1.526 . S
C1875 C1876 1.396 . S
C1875 C1880 1.390 . S
C1876 C1870 1.465 . S
C1876 C1875 1.396 . S
C1876 C1877 1.399 . S
C1877 H1863 0.929 . S
C1877 C1876 1.399 . S
C1877 C1878 1.385 . S
C1878 H1864 0.931 . S
C1878 C1877 1.385 . S
C1878 C1879 1.389 . S
C1879 C1878 1.389 . S
C1879 C1880 1.387 . S
C1880 H1865 0.930 . S
C1880 C1875 1.390 . S
C1880 C1879 1.387 . S
H1881 C1893 0.930 . S
H1882 C1895 0.930 . S
H1883 C1896 0.930 . S
H1884 C1900 0.959 . S
H1885 C1900 0.959 . S
H1886 C1900 0.961 . S
H1887 C1901 0.960 . S
H1888 C1901 0.961 . S
H1889 C1901 0.959 . S
H1890 C1904 0.929 . S
H1891 C1905 0.931 . S
H1892 C1907 0.930 . S
C1893 H1881 0.930 . S
C1893 C1894 1.399 . S
C1893 C1898 1.399 . S
C1894 C1893 1.399 . S
C1894 C1895 1.376 . S
C1895 H1882 0.930 . S
C1895 C1894 1.376 . S
C1895 C1896 1.388 . S
C1896 H1883 0.930 . S
C1896 C1895 1.388 . S
C1896 C1897 1.390 . S
C1897 C1896 1.390 . S
C1897 C1898 1.394 . S
C1897 C1903 1.465 . S
C1898 C1893 1.399 . S
C1898 C1897 1.394 . S
C1898 C1899 1.516 . S
C1899 C1898 1.516 . S
C1899 C1900 1.502 . S
C1899 C1901 1.561 . S
C1899 C1902 1.526 . S
C1900 H1884 0.959 . S
C1900 H1885 0.959 . S
C1900 H1886 0.961 . S
C1900 C1899 1.502 . S
C1901 H1887 0.960 . S
C1901 H1888 0.961 . S
C1901 H1889 0.959 . S
C1901 C1899 1.561 . S
C1902 C1899 1.526 . S
C1902 C1903 1.396 . S
C1902 C1907 1.390 . S
C1903 C1897 1.465 . S
C1903 C1902 1.396 . S
C1903 C1904 1.399 . S
C1904 H1890 0.929 . S
C1904 C1903 1.399 . S
C1904 C1905 1.385 . S
C1905 H1891 0.931 . S
C1905 C1904 1.385 . S
C1905 C1906 1.389 . S
C1906 C1905 1.389 . S
C1906 C1907 1.387 . S
C1907 H1892 0.930 . S
C1907 C1902 1.390 . S
C1907 C1906 1.387 . S
H1908 C1920 0.930 . S
H1909 C1922 0.930 . S
H1910 C1923 0.930 . S
H1911 C1927 0.959 . S
H1912 C1927 0.959 . S
H1913 C1927 0.961 . S
H1914 C1928 0.960 . S
H1915 C1928 0.961 . S
H1916 C1928 0.959 . S
H1917 C1931 0.929 . S
H1918 C1932 0.931 . S
H1919 C1934 0.930 . S
C1920 H1908 0.930 . S
C1920 C1921 1.399 . S
C1920 C1925 1.399 . S
C1921 C1920 1.399 . S
C1921 C1922 1.376 . S
C1922 H1909 0.930 . S
C1922 C1921 1.376 . S
C1922 C1923 1.388 . S
C1923 H1910 0.930 . S
C1923 C1922 1.388 . S
C1923 C1924 1.390 . S
C1924 C1923 1.390 . S
C1924 C1925 1.394 . S
C1924 C1930 1.465 . S
C1925 C1920 1.399 . S
C1925 C1924 1.394 . S
C1925 C1926 1.516 . S
C1926 C1925 1.516 . S
C1926 C1927 1.502 . S
C1926 C1928 1.561 . S
C1926 C1929 1.526 . S
C1927 H1911 0.959 . S
C1927 H1912 0.959 . S
C1927 H1913 0.961 . S
C1927 C1926 1.502 . S
C1928 H1914 0.960 . S
C1928 H1915 0.961 . S
C1928 H1916 0.959 . S
C1928 C1926 1.561 . S
C1929 C1926 1.526 . S
C1929 C1930 1.396 . S
C1929 C1934 1.390 . S
C1930 C1924 1.465 . S
C1930 C1929 1.396 . S
C1930 C1931 1.399 . S
C1931 H1917 0.929 . S
C1931 C1930 1.399 . S
C1931 C1932 1.385 . S
C1932 H1918 0.931 . S
C1932 C1931 1.385 . S
C1932 C1933 1.389 . S
C1933 C1932 1.389 . S
C1933 C1934 1.387 . S
C1934 H1919 0.930 . S
C1934 C1929 1.390 . S
C1934 C1933 1.387 . S
H1935 C1947 0.930 . S
H1936 C1949 0.930 . S
H1937 C1950 0.930 . S
H1938 C1954 0.959 . S
H1939 C1954 0.959 . S
H1940 C1954 0.961 . S
H1941 C1955 0.960 . S
H1942 C1955 0.961 . S
H1943 C1955 0.959 . S
H1944 C1958 0.929 . S
H1945 C1959 0.931 . S
H1946 C1961 0.930 . S
C1947 H1935 0.930 . S
C1947 C1948 1.399 . S
C1947 C1952 1.399 . S
C1948 C1947 1.399 . S
C1948 C1949 1.376 . S
C1949 H1936 0.930 . S
C1949 C1948 1.376 . S
C1949 C1950 1.388 . S
C1950 H1937 0.930 . S
C1950 C1949 1.388 . S
C1950 C1951 1.390 . S
C1951 C1950 1.390 . S
C1951 C1952 1.394 . S
C1951 C1957 1.465 . S
C1952 C1947 1.399 . S
C1952 C1951 1.394 . S
C1952 C1953 1.516 . S
C1953 C1952 1.516 . S
C1953 C1954 1.502 . S
C1953 C1955 1.561 . S
C1953 C1956 1.526 . S
C1954 H1938 0.959 . S
C1954 H1939 0.959 . S
C1954 H1940 0.961 . S
C1954 C1953 1.502 . S
C1955 H1941 0.960 . S
C1955 H1942 0.961 . S
C1955 H1943 0.959 . S
C1955 C1953 1.561 . S
C1956 C1953 1.526 . S
C1956 C1957 1.396 . S
C1956 C1961 1.390 . S
C1957 C1951 1.465 . S
C1957 C1956 1.396 . S
C1957 C1958 1.399 . S
C1958 H1944 0.929 . S
C1958 C1957 1.399 . S
C1958 C1959 1.385 . S
C1959 H1945 0.931 . S
C1959 C1958 1.385 . S
C1959 C1960 1.389 . S
C1960 C1959 1.389 . S
C1960 C1961 1.387 . S
C1961 H1946 0.930 . S
C1961 C1956 1.390 . S
C1961 C1960 1.387 . S
H1962 C1974 0.930 . S
H1963 C1976 0.930 . S
H1964 C1977 0.930 . S
H1965 C1981 0.959 . S
H1966 C1981 0.959 . S
H1967 C1981 0.961 . S
H1968 C1982 0.960 . S
H1969 C1982 0.961 . S
H1970 C1982 0.959 . S
H1971 C1985 0.929 . S
H1972 C1986 0.931 . S
H1973 C1988 0.930 . S
C1974 H1962 0.930 . S
C1974 C1975 1.399 . S
C1974 C1979 1.399 . S
C1975 C1974 1.399 . S
C1975 C1976 1.376 . S
C1976 H1963 0.930 . S
C1976 C1975 1.376 . S
C1976 C1977 1.388 . S
C1977 H1964 0.930 . S
C1977 C1976 1.388 . S
C1977 C1978 1.390 . S
C1978 C1977 1.390 . S
C1978 C1979 1.394 . S
C1978 C1984 1.465 . S
C1979 C1974 1.399 . S
C1979 C1978 1.394 . S
C1979 C1980 1.516 . S
C1980 C1979 1.516 . S
C1980 C1981 1.502 . S
C1980 C1982 1.561 . S
C1980 C1983 1.526 . S
C1981 H1965 0.959 . S
C1981 H1966 0.959 . S
C1981 H1967 0.961 . S
C1981 C1980 1.502 . S
C1982 H1968 0.960 . S
C1982 H1969 0.961 . S
C1982 H1970 0.959 . S
C1982 C1980 1.561 . S
C1983 C1980 1.526 . S
C1983 C1984 1.396 . S
C1983 C1988 1.390 . S
C1984 C1978 1.465 . S
C1984 C1983 1.396 . S
C1984 C1985 1.399 . S
C1985 H1971 0.929 . S
C1985 C1984 1.399 . S
C1985 C1986 1.385 . S
C1986 H1972 0.931 . S
C1986 C1985 1.385 . S
C1986 C1987 1.389 . S
C1987 C1986 1.389 . S
C1987 C1988 1.387 . S
C1988 H1973 0.930 . S
C1988 C1983 1.390 . S
C1988 C1987 1.387 . S
H1989 C2001 0.930 . S
H1990 C2003 0.930 . S
H1991 C2004 0.930 . S
H1992 C2008 0.959 . S
H1993 C2008 0.959 . S
H1994 C2008 0.961 . S
H1995 C2009 0.960 . S
H1996 C2009 0.961 . S
H1997 C2009 0.959 . S
H1998 C2012 0.929 . S
H1999 C2013 0.931 . S
H2000 C2015 0.930 . S
C2001 H1989 0.930 . S
C2001 C2002 1.399 . S
C2001 C2006 1.399 . S
C2002 C2001 1.399 . S
C2002 C2003 1.376 . S
C2003 H1990 0.930 . S
C2003 C2002 1.376 . S
C2003 C2004 1.388 . S
C2004 H1991 0.930 . S
C2004 C2003 1.388 . S
C2004 C2005 1.390 . S
C2005 C2004 1.390 . S
C2005 C2006 1.394 . S
C2005 C2011 1.465 . S
C2006 C2001 1.399 . S
C2006 C2005 1.394 . S
C2006 C2007 1.516 . S
C2007 C2006 1.516 . S
C2007 C2008 1.502 . S
C2007 C2009 1.561 . S
C2007 C2010 1.526 . S
C2008 H1992 0.959 . S
C2008 H1993 0.959 . S
C2008 H1994 0.961 . S
C2008 C2007 1.502 . S
C2009 H1995 0.960 . S
C2009 H1996 0.961 . S
C2009 H1997 0.959 . S
C2009 C2007 1.561 . S
C2010 C2007 1.526 . S
C2010 C2011 1.396 . S
C2010 C2015 1.390 . S
C2011 C2005 1.465 . S
C2011 C2010 1.396 . S
C2011 C2012 1.399 . S
C2012 H1998 0.929 . S
C2012 C2011 1.399 . S
C2012 C2013 1.385 . S
C2013 H1999 0.931 . S
C2013 C2012 1.385 . S
C2013 C2014 1.389 . S
C2014 C2013 1.389 . S
C2014 C2015 1.387 . S
C2015 H2000 0.930 . S
C2015 C2010 1.390 . S
C2015 C2014 1.387 . S
H2016 C2028 0.930 . S
H2017 C2030 0.930 . S
H2018 C2031 0.930 . S
H2019 C2035 0.959 . S
H2020 C2035 0.959 . S
H2021 C2035 0.961 . S
H2022 C2036 0.960 . S
H2023 C2036 0.961 . S
H2024 C2036 0.959 . S
H2025 C2039 0.929 . S
H2026 C2040 0.931 . S
H2027 C2042 0.930 . S
C2028 H2016 0.930 . S
C2028 C2029 1.399 . S
C2028 C2033 1.399 . S
C2029 C2028 1.399 . S
C2029 C2030 1.376 . S
C2030 H2017 0.930 . S
C2030 C2029 1.376 . S
C2030 C2031 1.388 . S
C2031 H2018 0.930 . S
C2031 C2030 1.388 . S
C2031 C2032 1.390 . S
C2032 C2031 1.390 . S
C2032 C2033 1.394 . S
C2032 C2038 1.465 . S
C2033 C2028 1.399 . S
C2033 C2032 1.394 . S
C2033 C2034 1.516 . S
C2034 C2033 1.516 . S
C2034 C2035 1.502 . S
C2034 C2036 1.561 . S
C2034 C2037 1.526 . S
C2035 H2019 0.959 . S
C2035 H2020 0.959 . S
C2035 H2021 0.961 . S
C2035 C2034 1.502 . S
C2036 H2022 0.960 . S
C2036 H2023 0.961 . S
C2036 H2024 0.959 . S
C2036 C2034 1.561 . S
C2037 C2034 1.526 . S
C2037 C2038 1.396 . S
C2037 C2042 1.390 . S
C2038 C2032 1.465 . S
C2038 C2037 1.396 . S
C2038 C2039 1.399 . S
C2039 H2025 0.929 . S
C2039 C2038 1.399 . S
C2039 C2040 1.385 . S
C2040 H2026 0.931 . S
C2040 C2039 1.385 . S
C2040 C2041 1.389 . S
C2041 C2040 1.389 . S
C2041 C2042 1.387 . S
C2042 H2027 0.930 . S
C2042 C2037 1.390 . S
C2042 C2041 1.387 . S
H2043 C2055 0.930 . S
H2044 C2057 0.930 . S
H2045 C2058 0.930 . S
H2046 C2062 0.959 . S
H2047 C2062 0.959 . S
H2048 C2062 0.961 . S
H2049 C2063 0.960 . S
H2050 C2063 0.961 . S
H2051 C2063 0.959 . S
H2052 C2066 0.929 . S
H2053 C2067 0.931 . S
H2054 C2069 0.930 . S
C2055 H2043 0.930 . S
C2055 C2056 1.399 1_565 S
C2055 C2060 1.399 . S
C2056 C2055 1.399 1_545 S
C2056 C2057 1.376 . S
C2057 H2044 0.930 . S
C2057 C2056 1.376 . S
C2057 C2058 1.388 1_545 S
C2058 H2045 0.930 . S
C2058 C2057 1.388 1_565 S
C2058 C2059 1.390 . S
C2059 C2058 1.390 . S
C2059 C2060 1.394 . S
C2059 C2065 1.465 . S
C2060 C2055 1.399 . S
C2060 C2059 1.394 . S
C2060 C2061 1.516 . S
C2061 C2060 1.516 . S
C2061 C2062 1.502 . S
C2061 C2063 1.561 . S
C2061 C2064 1.526 . S
C2062 H2046 0.959 . S
C2062 H2047 0.959 . S
C2062 H2048 0.961 . S
C2062 C2061 1.502 . S
C2063 H2049 0.960 . S
C2063 H2050 0.961 . S
C2063 H2051 0.959 . S
C2063 C2061 1.561 . S
C2064 C2061 1.526 . S
C2064 C2065 1.396 . S
C2064 C2069 1.390 . S
C2065 C2059 1.465 . S
C2065 C2064 1.396 . S
C2065 C2066 1.399 . S
C2066 H2052 0.929 . S
C2066 C2065 1.399 . S
C2066 C2067 1.385 . S
C2067 H2053 0.931 . S
C2067 C2066 1.385 . S
C2067 C2068 1.389 . S
C2068 C2067 1.389 . S
C2068 C2069 1.387 . S
C2069 H2054 0.930 . S
C2069 C2064 1.390 . S
C2069 C2068 1.387 . S
H2070 C2082 0.930 . S
H2071 C2084 0.930 . S
H2072 C2085 0.930 . S
H2073 C2089 0.959 . S
H2074 C2089 0.959 . S
H2075 C2089 0.961 . S
H2076 C2090 0.960 . S
H2077 C2090 0.961 . S
H2078 C2090 0.959 . S
H2079 C2093 0.929 . S
H2080 C2094 0.931 . S
H2081 C2096 0.930 . S
C2082 H2070 0.930 . S
C2082 C2083 1.399 . S
C2082 C2087 1.399 . S
C2083 C2082 1.399 . S
C2083 C2084 1.376 . S
C2084 H2071 0.930 . S
C2084 C2083 1.376 . S
C2084 C2085 1.388 . S
C2085 H2072 0.930 . S
C2085 C2084 1.388 . S
C2085 C2086 1.390 . S
C2086 C2085 1.390 . S
C2086 C2087 1.394 . S
C2086 C2092 1.465 . S
C2087 C2082 1.399 . S
C2087 C2086 1.394 . S
C2087 C2088 1.516 . S
C2088 C2087 1.516 . S
C2088 C2089 1.502 . S
C2088 C2090 1.561 . S
C2088 C2091 1.526 . S
C2089 H2073 0.959 . S
C2089 H2074 0.959 . S
C2089 H2075 0.961 . S
C2089 C2088 1.502 . S
C2090 H2076 0.960 . S
C2090 H2077 0.961 . S
C2090 H2078 0.959 . S
C2090 C2088 1.561 . S
C2091 C2088 1.526 . S
C2091 C2092 1.396 . S
C2091 C2096 1.390 . S
C2092 C2086 1.465 . S
C2092 C2091 1.396 . S
C2092 C2093 1.399 . S
C2093 H2079 0.929 . S
C2093 C2092 1.399 . S
C2093 C2094 1.385 . S
C2094 H2080 0.931 . S
C2094 C2093 1.385 . S
C2094 C2095 1.389 . S
C2095 C2094 1.389 . S
C2095 C2096 1.387 . S
C2096 H2081 0.930 . S
C2096 C2091 1.390 . S
C2096 C2095 1.387 . S
H2097 C2109 0.930 . S
H2098 C2111 0.930 . S
H2099 C2112 0.930 . S
H2100 C2116 0.959 . S
H2101 C2116 0.959 . S
H2102 C2116 0.961 . S
H2103 C2117 0.960 . S
H2104 C2117 0.961 . S
H2105 C2117 0.959 . S
H2106 C2120 0.929 . S
H2107 C2121 0.931 . S
H2108 C2123 0.930 . S
C2109 H2097 0.930 . S
C2109 C2110 1.399 . S
C2109 C2114 1.399 . S
C2110 C2109 1.399 . S
C2110 C2111 1.376 . S
C2111 H2098 0.930 . S
C2111 C2110 1.376 . S
C2111 C2112 1.388 . S
C2112 H2099 0.930 . S
C2112 C2111 1.388 . S
C2112 C2113 1.390 . S
C2113 C2112 1.390 . S
C2113 C2114 1.394 . S
C2113 C2119 1.465 . S
C2114 C2109 1.399 . S
C2114 C2113 1.394 . S
C2114 C2115 1.516 . S
C2115 C2114 1.516 . S
C2115 C2116 1.502 . S
C2115 C2117 1.561 . S
C2115 C2118 1.526 . S
C2116 H2100 0.959 . S
C2116 H2101 0.959 . S
C2116 H2102 0.961 . S
C2116 C2115 1.502 . S
C2117 H2103 0.960 . S
C2117 H2104 0.961 . S
C2117 H2105 0.959 . S
C2117 C2115 1.561 . S
C2118 C2115 1.526 . S
C2118 C2119 1.396 . S
C2118 C2123 1.390 . S
C2119 C2113 1.465 . S
C2119 C2118 1.396 . S
C2119 C2120 1.399 . S
C2120 H2106 0.929 . S
C2120 C2119 1.399 . S
C2120 C2121 1.385 . S
C2121 H2107 0.931 . S
C2121 C2120 1.385 . S
C2121 C2122 1.389 . S
C2122 C2121 1.389 . S
C2122 C2123 1.387 . S
C2123 H2108 0.930 . S
C2123 C2118 1.390 . S
C2123 C2122 1.387 . S
H2124 C2136 0.930 . S
H2125 C2138 0.930 . S
H2126 C2139 0.930 . S
H2127 C2143 0.959 . S
H2128 C2143 0.959 . S
H2129 C2143 0.961 . S
H2130 C2144 0.960 . S
H2131 C2144 0.961 . S
H2132 C2144 0.959 . S
H2133 C2147 0.929 . S
H2134 C2148 0.931 . S
H2135 C2150 0.930 . S
C2136 H2124 0.930 . S
C2136 C2137 1.399 . S
C2136 C2141 1.399 . S
C2137 C2136 1.399 . S
C2137 C2138 1.376 . S
C2138 H2125 0.930 . S
C2138 C2137 1.376 . S
C2138 C2139 1.388 . S
C2139 H2126 0.930 . S
C2139 C2138 1.388 . S
C2139 C2140 1.390 . S
C2140 C2139 1.390 . S
C2140 C2141 1.394 . S
C2140 C2146 1.465 . S
C2141 C2136 1.399 . S
C2141 C2140 1.394 . S
C2141 C2142 1.516 . S
C2142 C2141 1.516 . S
C2142 C2143 1.502 . S
C2142 C2144 1.561 . S
C2142 C2145 1.526 . S
C2143 H2127 0.959 . S
C2143 H2128 0.959 . S
C2143 H2129 0.961 . S
C2143 C2142 1.502 . S
C2144 H2130 0.960 . S
C2144 H2131 0.961 . S
C2144 H2132 0.959 . S
C2144 C2142 1.561 . S
C2145 C2142 1.526 . S
C2145 C2146 1.396 . S
C2145 C2150 1.390 . S
C2146 C2140 1.465 . S
C2146 C2145 1.396 . S
C2146 C2147 1.399 . S
C2147 H2133 0.929 . S
C2147 C2146 1.399 . S
C2147 C2148 1.385 . S
C2148 H2134 0.931 . S
C2148 C2147 1.385 . S
C2148 C2149 1.389 . S
C2149 C2148 1.389 . S
C2149 C2150 1.387 . S
C2150 H2135 0.930 . S
C2150 C2145 1.390 . S
C2150 C2149 1.387 . S
H2151 C2163 0.930 . S
H2152 C2165 0.930 . S
H2153 C2166 0.930 . S
H2154 C2170 0.959 . S
H2155 C2170 0.959 . S
H2156 C2170 0.961 . S
H2157 C2171 0.960 . S
H2158 C2171 0.961 . S
H2159 C2171 0.959 . S
H2160 C2174 0.929 . S
H2161 C2175 0.931 . S
H2162 C2177 0.930 . S
C2163 H2151 0.930 . S
C2163 C2164 1.399 . S
C2163 C2168 1.399 . S
C2164 C2163 1.399 . S
C2164 C2165 1.376 . S
C2165 H2152 0.930 . S
C2165 C2164 1.376 . S
C2165 C2166 1.388 . S
C2166 H2153 0.930 . S
C2166 C2165 1.388 . S
C2166 C2167 1.390 . S
C2167 C2166 1.390 . S
C2167 C2168 1.394 . S
C2167 C2173 1.465 . S
C2168 C2163 1.399 . S
C2168 C2167 1.394 . S
C2168 C2169 1.516 . S
C2169 C2168 1.516 . S
C2169 C2170 1.502 . S
C2169 C2171 1.561 . S
C2169 C2172 1.526 . S
C2170 H2154 0.959 . S
C2170 H2155 0.959 . S
C2170 H2156 0.961 . S
C2170 C2169 1.502 . S
C2171 H2157 0.960 . S
C2171 H2158 0.961 . S
C2171 H2159 0.959 . S
C2171 C2169 1.561 . S
C2172 C2169 1.526 . S
C2172 C2173 1.396 . S
C2172 C2177 1.390 . S
C2173 C2167 1.465 . S
C2173 C2172 1.396 . S
C2173 C2174 1.399 . S
C2174 H2160 0.929 . S
C2174 C2173 1.399 . S
C2174 C2175 1.385 . S
C2175 H2161 0.931 . S
C2175 C2174 1.385 . S
C2175 C2176 1.389 . S
C2176 C2175 1.389 . S
C2176 C2177 1.387 . S
C2177 H2162 0.930 . S
C2177 C2172 1.390 . S
C2177 C2176 1.387 . S
H2178 C2190 0.930 . S
H2179 C2192 0.930 . S
H2180 C2193 0.930 . S
H2181 C2197 0.959 . S
H2182 C2197 0.959 . S
H2183 C2197 0.961 . S
H2184 C2198 0.960 . S
H2185 C2198 0.961 . S
H2186 C2198 0.959 . S
H2187 C2201 0.929 . S
H2188 C2202 0.931 . S
H2189 C2204 0.930 . S
C2190 H2178 0.930 . S
C2190 C2191 1.399 . S
C2190 C2195 1.399 . S
C2191 C2190 1.399 . S
C2191 C2192 1.376 . S
C2192 H2179 0.930 . S
C2192 C2191 1.376 . S
C2192 C2193 1.388 . S
C2193 H2180 0.930 . S
C2193 C2192 1.388 . S
C2193 C2194 1.390 . S
C2194 C2193 1.390 . S
C2194 C2195 1.394 . S
C2194 C2200 1.465 . S
C2195 C2190 1.399 . S
C2195 C2194 1.394 . S
C2195 C2196 1.516 . S
C2196 C2195 1.516 . S
C2196 C2197 1.502 . S
C2196 C2198 1.561 . S
C2196 C2199 1.526 . S
C2197 H2181 0.959 . S
C2197 H2182 0.959 . S
C2197 H2183 0.961 . S
C2197 C2196 1.502 . S
C2198 H2184 0.960 . S
C2198 H2185 0.961 . S
C2198 H2186 0.959 . S
C2198 C2196 1.561 . S
C2199 C2196 1.526 . S
C2199 C2200 1.396 . S
C2199 C2204 1.390 . S
C2200 C2194 1.465 . S
C2200 C2199 1.396 . S
C2200 C2201 1.399 . S
C2201 H2187 0.929 . S
C2201 C2200 1.399 . S
C2201 C2202 1.385 . S
C2202 H2188 0.931 . S
C2202 C2201 1.385 . S
C2202 C2203 1.389 . S
C2203 C2202 1.389 . S
C2203 C2204 1.387 . S
C2204 H2189 0.930 . S
C2204 C2199 1.390 . S
C2204 C2203 1.387 . S
H2205 C2217 0.930 . S
H2206 C2219 0.930 . S
H2207 C2220 0.930 . S
H2208 C2224 0.959 . S
H2209 C2224 0.959 . S
H2210 C2224 0.961 . S
H2211 C2225 0.960 . S
H2212 C2225 0.961 . S
H2213 C2225 0.959 . S
H2214 C2228 0.929 . S
H2215 C2229 0.931 . S
H2216 C2231 0.930 . S
C2217 H2205 0.930 . S
C2217 C2218 1.399 . S
C2217 C2222 1.399 . S
C2218 C2217 1.399 . S
C2218 C2219 1.376 . S
C2219 H2206 0.930 . S
C2219 C2218 1.376 . S
C2219 C2220 1.388 . S
C2220 H2207 0.930 . S
C2220 C2219 1.388 . S
C2220 C2221 1.390 . S
C2221 C2220 1.390 . S
C2221 C2222 1.394 . S
C2221 C2227 1.465 . S
C2222 C2217 1.399 . S
C2222 C2221 1.394 . S
C2222 C2223 1.516 . S
C2223 C2222 1.516 . S
C2223 C2224 1.502 . S
C2223 C2225 1.561 . S
C2223 C2226 1.526 . S
C2224 H2208 0.959 . S
C2224 H2209 0.959 . S
C2224 H2210 0.961 . S
C2224 C2223 1.502 . S
C2225 H2211 0.960 . S
C2225 H2212 0.961 . S
C2225 H2213 0.959 . S
C2225 C2223 1.561 . S
C2226 C2223 1.526 . S
C2226 C2227 1.396 . S
C2226 C2231 1.390 . S
C2227 C2221 1.465 . S
C2227 C2226 1.396 . S
C2227 C2228 1.399 . S
C2228 H2214 0.929 . S
C2228 C2227 1.399 . S
C2228 C2229 1.385 . S
C2229 H2215 0.931 . S
C2229 C2228 1.385 . S
C2229 C2230 1.389 . S
C2230 C2229 1.389 . S
C2230 C2231 1.387 . S
C2231 H2216 0.930 . S
C2231 C2226 1.390 . S
C2231 C2230 1.387 . S
H2232 C2244 0.930 . S
H2233 C2246 0.891 1_455 S
H2234 C2247 0.930 . S
H2235 C2251 0.959 . S
H2236 C2251 0.959 . S
H2237 C2251 0.961 . S
H2238 C2252 0.960 . S
H2239 C2252 0.961 . S
H2240 C2252 0.959 . S
H2241 C2255 0.929 . S
H2242 C2256 0.931 . S
H2243 C2258 0.930 . S
C2244 H2232 0.930 . S
C2244 C2245 1.399 . S
C2244 C2249 1.399 . S
C2245 C2244 1.399 . S
C2245 C2246 1.376 . S
C2246 H2233 0.891 1_655 S
C2246 C2245 1.376 . S
C2246 C2247 1.429 . S
C2247 H2234 0.930 . S
C2247 C2246 1.429 . S
C2247 C2248 1.390 . S
C2248 C2247 1.390 . S
C2248 C2249 1.394 . S
C2248 C2254 1.465 . S
C2249 C2244 1.399 . S
C2249 C2248 1.394 . S
C2249 C2250 1.516 . S
C2250 C2249 1.516 . S
C2250 C2251 1.502 . S
C2250 C2252 1.561 . S
C2250 C2253 1.526 . S
C2251 H2235 0.959 . S
C2251 H2236 0.959 . S
C2251 H2237 0.961 . S
C2251 C2250 1.502 . S
C2252 H2238 0.960 . S
C2252 H2239 0.961 . S
C2252 H2240 0.959 . S
C2252 C2250 1.561 . S
C2253 C2250 1.526 . S
C2253 C2254 1.396 . S
C2253 C2258 1.390 . S
C2254 C2248 1.465 . S
C2254 C2253 1.396 . S
C2254 C2255 1.399 . S
C2255 H2241 0.929 . S
C2255 C2254 1.399 . S
C2255 C2256 1.385 . S
C2256 H2242 0.931 . S
C2256 C2255 1.385 . S
C2256 C2257 1.389 . S
C2257 C2256 1.389 . S
C2257 C2258 1.387 . S
C2258 H2243 0.930 . S
C2258 C2253 1.390 . S
C2258 C2257 1.387 . S
H2259 C2271 0.930 . S
H2260 C2273 0.930 . S
H2261 C2274 0.930 . S
H2262 C2278 0.959 . S
H2263 C2278 0.959 . S
H2264 C2278 0.961 . S
H2265 C2279 0.960 . S
H2266 C2279 0.961 . S
H2267 C2279 0.959 . S
H2268 C2282 0.929 . S
H2269 C2283 0.931 . S
H2270 C2285 0.930 . S
C2271 H2259 0.930 . S
C2271 C2272 1.399 . S
C2271 C2276 1.399 . S
C2272 C2271 1.399 . S
C2272 C2273 1.376 . S
C2273 H2260 0.930 . S
C2273 C2272 1.376 . S
C2273 C2274 1.388 . S
C2274 H2261 0.930 . S
C2274 C2273 1.388 . S
C2274 C2275 1.390 . S
C2275 C2274 1.390 . S
C2275 C2276 1.394 . S
C2275 C2281 1.465 . S
C2276 C2271 1.399 . S
C2276 C2275 1.394 . S
C2276 C2277 1.516 . S
C2277 C2276 1.516 . S
C2277 C2278 1.502 . S
C2277 C2279 1.561 . S
C2277 C2280 1.526 . S
C2278 H2262 0.959 . S
C2278 H2263 0.959 . S
C2278 H2264 0.961 . S
C2278 C2277 1.502 . S
C2279 H2265 0.960 . S
C2279 H2266 0.961 . S
C2279 H2267 0.959 . S
C2279 C2277 1.561 . S
C2280 C2277 1.526 . S
C2280 C2281 1.396 . S
C2280 C2285 1.390 . S
C2281 C2275 1.465 . S
C2281 C2280 1.396 . S
C2281 C2282 1.399 . S
C2282 H2268 0.929 . S
C2282 C2281 1.399 . S
C2282 C2283 1.385 . S
C2283 H2269 0.931 . S
C2283 C2282 1.385 . S
C2283 C2284 1.389 . S
C2284 C2283 1.389 . S
C2284 C2285 1.387 . S
C2285 H2270 0.930 . S
C2285 C2280 1.390 . S
C2285 C2284 1.387 . S
H2286 C2298 0.930 . S
H2287 C2300 0.985 . S
H2288 C2301 0.930 . S
H2289 C2305 0.959 . S
H2290 C2305 0.959 . S
H2291 C2305 0.961 . S
H2292 C2306 0.960 . S
H2293 C2306 0.961 . S
H2294 C2306 0.959 . S
H2295 C2309 0.929 . S
H2296 C2310 0.931 . S
H2297 C2312 0.930 . S
C2298 H2286 0.930 . S
C2298 C2299 1.426 . S
C2298 C2303 1.399 . S
C2299 C2298 1.426 . S
C2299 C2300 1.345 1_655 S
C2300 H2287 0.985 . S
C2300 C2299 1.345 1_455 S
C2300 C2301 1.358 1_455 S
C2301 H2288 0.930 . S
C2301 C2300 1.358 1_655 S
C2301 C2302 1.390 . S
C2302 C2301 1.390 . S
C2302 C2303 1.394 . S
C2302 C2308 1.465 . S
C2303 C2298 1.399 . S
C2303 C2302 1.394 . S
C2303 C2304 1.516 . S
C2304 C2303 1.516 . S
C2304 C2305 1.502 . S
C2304 C2306 1.561 . S
C2304 C2307 1.526 . S
C2305 H2289 0.959 . S
C2305 H2290 0.959 . S
C2305 H2291 0.961 . S
C2305 C2304 1.502 . S
C2306 H2292 0.960 . S
C2306 H2293 0.961 . S
C2306 H2294 0.959 . S
C2306 C2304 1.561 . S
C2307 C2304 1.526 . S
C2307 C2308 1.396 . S
C2307 C2312 1.390 . S
C2308 C2302 1.465 . S
C2308 C2307 1.396 . S
C2308 C2309 1.399 . S
C2309 H2295 0.929 . S
C2309 C2308 1.399 . S
C2309 C2310 1.385 . S
C2310 H2296 0.931 . S
C2310 C2309 1.385 . S
C2310 C2311 1.389 . S
C2311 C2310 1.389 . S
C2311 C2312 1.387 . S
C2312 H2297 0.930 . S
C2312 C2307 1.390 . S
C2312 C2311 1.387 . S
H2313 C2325 0.930 . S
H2314 C2327 0.930 . S
H2315 C2328 0.930 . S
H2316 C2332 0.959 . S
H2317 C2332 0.959 . S
H2318 C2332 0.961 . S
H2319 C2333 0.960 . S
H2320 C2333 0.961 . S
H2321 C2333 0.959 . S
H2322 C2336 0.929 . S
H2323 C2337 0.931 . S
H2324 C2339 0.930 . S
C2325 H2313 0.930 . S
C2325 C2326 1.399 . S
C2325 C2330 1.399 . S
C2326 C2325 1.399 . S
C2326 C2327 1.376 . S
C2327 H2314 0.930 . S
C2327 C2326 1.376 . S
C2327 C2328 1.388 . S
C2328 H2315 0.930 . S
C2328 C2327 1.388 . S
C2328 C2329 1.390 . S
C2329 C2328 1.390 . S
C2329 C2330 1.394 . S
C2329 C2335 1.465 . S
C2330 C2325 1.399 . S
C2330 C2329 1.394 . S
C2330 C2331 1.516 . S
C2331 C2330 1.516 . S
C2331 C2332 1.502 . S
C2331 C2333 1.561 . S
C2331 C2334 1.526 . S
C2332 H2316 0.959 . S
C2332 H2317 0.959 . S
C2332 H2318 0.961 . S
C2332 C2331 1.502 . S
C2333 H2319 0.960 . S
C2333 H2320 0.961 . S
C2333 H2321 0.959 . S
C2333 C2331 1.561 . S
C2334 C2331 1.526 . S
C2334 C2335 1.396 . S
C2334 C2339 1.390 . S
C2335 C2329 1.465 . S
C2335 C2334 1.396 . S
C2335 C2336 1.399 . S
C2336 H2322 0.929 . S
C2336 C2335 1.399 . S
C2336 C2337 1.385 . S
C2337 H2323 0.931 . S
C2337 C2336 1.385 . S
C2337 C2338 1.389 . S
C2338 C2337 1.389 . S
C2338 C2339 1.387 . S
C2339 H2324 0.930 . S
C2339 C2334 1.390 . S
C2339 C2338 1.387 . S
H2340 C2352 0.930 . S
H2341 C2354 0.930 . S
H2342 C2355 0.930 . S
H2343 C2359 0.959 . S
H2344 C2359 0.959 . S
H2345 C2359 0.961 . S
H2346 C2360 0.960 . S
H2347 C2360 0.961 . S
H2348 C2360 0.959 . S
H2349 C2363 0.929 . S
H2350 C2364 0.931 . S
H2351 C2366 0.930 . S
C2352 H2340 0.930 . S
C2352 C2353 1.399 1_545 S
C2352 C2357 1.399 . S
C2353 C2352 1.399 1_565 S
C2353 C2354 1.376 . S
C2354 H2341 0.930 . S
C2354 C2353 1.376 . S
C2354 C2355 1.388 1_565 S
C2355 H2342 0.930 . S
C2355 C2354 1.388 1_545 S
C2355 C2356 1.390 . S
C2356 C2355 1.390 . S
C2356 C2357 1.394 . S
C2356 C2362 1.465 . S
C2357 C2352 1.399 . S
C2357 C2356 1.394 . S
C2357 C2358 1.516 . S
C2358 C2357 1.516 . S
C2358 C2359 1.502 . S
C2358 C2360 1.561 . S
C2358 C2361 1.526 . S
C2359 H2343 0.959 . S
C2359 H2344 0.959 . S
C2359 H2345 0.961 . S
C2359 C2358 1.502 . S
C2360 H2346 0.960 . S
C2360 H2347 0.961 . S
C2360 H2348 0.959 . S
C2360 C2358 1.561 . S
C2361 C2358 1.526 . S
C2361 C2362 1.396 . S
C2361 C2366 1.390 . S
C2362 C2356 1.465 . S
C2362 C2361 1.396 . S
C2362 C2363 1.399 . S
C2363 H2349 0.929 . S
C2363 C2362 1.399 . S
C2363 C2364 1.385 . S
C2364 H2350 0.931 . S
C2364 C2363 1.385 . S
C2364 C2365 1.389 . S
C2365 C2364 1.389 . S
C2365 C2366 1.387 . S
C2366 H2351 0.930 . S
C2366 C2361 1.390 . S
C2366 C2365 1.387 . S
H2367 C2379 0.930 . S
H2368 C2381 0.930 . S
H2369 C2382 0.930 . S
H2370 C2386 0.959 . S
H2371 C2386 0.959 . S
H2372 C2386 0.961 . S
H2373 C2387 0.960 . S
H2374 C2387 0.961 . S
H2375 C2387 0.959 . S
H2376 C2390 0.929 . S
H2377 C2391 0.931 . S
H2378 C2393 0.930 . S
C2379 H2367 0.930 . S
C2379 C2380 1.399 . S
C2379 C2384 1.399 . S
C2380 C2379 1.399 . S
C2380 C2381 1.376 . S
C2381 H2368 0.930 . S
C2381 C2380 1.376 . S
C2381 C2382 1.388 . S
C2382 H2369 0.930 . S
C2382 C2381 1.388 . S
C2382 C2383 1.390 . S
C2383 C2382 1.390 . S
C2383 C2384 1.394 . S
C2383 C2389 1.465 . S
C2384 C2379 1.399 . S
C2384 C2383 1.394 . S
C2384 C2385 1.516 . S
C2385 C2384 1.516 . S
C2385 C2386 1.502 . S
C2385 C2387 1.561 . S
C2385 C2388 1.526 . S
C2386 H2370 0.959 . S
C2386 H2371 0.959 . S
C2386 H2372 0.961 . S
C2386 C2385 1.502 . S
C2387 H2373 0.960 . S
C2387 H2374 0.961 . S
C2387 H2375 0.959 . S
C2387 C2385 1.561 . S
C2388 C2385 1.526 . S
C2388 C2389 1.396 . S
C2388 C2393 1.390 . S
C2389 C2383 1.465 . S
C2389 C2388 1.396 . S
C2389 C2390 1.399 . S
C2390 H2376 0.929 . S
C2390 C2389 1.399 . S
C2390 C2391 1.385 . S
C2391 H2377 0.931 . S
C2391 C2390 1.385 . S
C2391 C2392 1.389 . S
C2392 C2391 1.389 . S
C2392 C2393 1.387 . S
C2393 H2378 0.930 . S
C2393 C2388 1.390 . S
C2393 C2392 1.387 . S
H2394 C2406 0.930 . S
H2395 C2408 0.930 . S
H2396 C2409 0.930 . S
H2397 C2413 0.959 . S
H2398 C2413 0.959 . S
H2399 C2413 0.961 . S
H2400 C2414 0.960 . S
H2401 C2414 0.961 . S
H2402 C2414 0.959 . S
H2403 C2417 0.929 . S
H2404 C2418 0.931 . S
H2405 C2420 0.930 . S
C2406 H2394 0.930 . S
C2406 C2407 1.399 . S
C2406 C2411 1.399 . S
C2407 C2406 1.399 . S
C2407 C2408 1.376 . S
C2408 H2395 0.930 . S
C2408 C2407 1.376 . S
C2408 C2409 1.388 . S
C2409 H2396 0.930 . S
C2409 C2408 1.388 . S
C2409 C2410 1.390 . S
C2410 C2409 1.390 . S
C2410 C2411 1.394 . S
C2410 C2416 1.465 . S
C2411 C2406 1.399 . S
C2411 C2410 1.394 . S
C2411 C2412 1.516 . S
C2412 C2411 1.516 . S
C2412 C2413 1.502 . S
C2412 C2414 1.561 . S
C2412 C2415 1.526 . S
C2413 H2397 0.959 . S
C2413 H2398 0.959 . S
C2413 H2399 0.961 . S
C2413 C2412 1.502 . S
C2414 H2400 0.960 . S
C2414 H2401 0.961 . S
C2414 H2402 0.959 . S
C2414 C2412 1.561 . S
C2415 C2412 1.526 . S
C2415 C2416 1.396 . S
C2415 C2420 1.390 . S
C2416 C2410 1.465 . S
C2416 C2415 1.396 . S
C2416 C2417 1.399 . S
C2417 H2403 0.929 . S
C2417 C2416 1.399 . S
C2417 C2418 1.385 . S
C2418 H2404 0.931 . S
C2418 C2417 1.385 . S
C2418 C2419 1.389 . S
C2419 C2418 1.389 . S
C2419 C2420 1.387 . S
C2420 H2405 0.930 . S
C2420 C2415 1.390 . S
C2420 C2419 1.387 . S
H2421 C2433 0.930 . S
H2422 C2435 0.930 . S
H2423 C2436 0.930 . S
H2424 C2440 0.959 . S
H2425 C2440 0.959 . S
H2426 C2440 0.961 . S
H2427 C2441 0.960 . S
H2428 C2441 0.961 . S
H2429 C2441 0.959 . S
H2430 C2444 0.929 . S
H2431 C2445 0.931 . S
H2432 C2447 0.930 . S
C2433 H2421 0.930 . S
C2433 C2434 1.399 . S
C2433 C2438 1.399 . S
C2434 C2433 1.399 . S
C2434 C2435 1.376 . S
C2435 H2422 0.930 . S
C2435 C2434 1.376 . S
C2435 C2436 1.388 . S
C2436 H2423 0.930 . S
C2436 C2435 1.388 . S
C2436 C2437 1.390 . S
C2437 C2436 1.390 . S
C2437 C2438 1.394 . S
C2437 C2443 1.465 . S
C2438 C2433 1.399 . S
C2438 C2437 1.394 . S
C2438 C2439 1.516 . S
C2439 C2438 1.516 . S
C2439 C2440 1.502 . S
C2439 C2441 1.561 . S
C2439 C2442 1.526 . S
C2440 H2424 0.959 . S
C2440 H2425 0.959 . S
C2440 H2426 0.961 . S
C2440 C2439 1.502 . S
C2441 H2427 0.960 . S
C2441 H2428 0.961 . S
C2441 H2429 0.959 . S
C2441 C2439 1.561 . S
C2442 C2439 1.526 . S
C2442 C2443 1.396 . S
C2442 C2447 1.390 . S
C2443 C2437 1.465 . S
C2443 C2442 1.396 . S
C2443 C2444 1.399 . S
C2444 H2430 0.929 . S
C2444 C2443 1.399 . S
C2444 C2445 1.385 . S
C2445 H2431 0.931 . S
C2445 C2444 1.385 . S
C2445 C2446 1.389 . S
C2446 C2445 1.389 . S
C2446 C2447 1.387 . S
C2447 H2432 0.930 . S
C2447 C2442 1.390 . S
C2447 C2446 1.387 . S
H2448 C2460 0.930 . S
H2449 C2462 0.930 . S
H2450 C2463 0.930 . S
H2451 C2467 0.959 . S
H2452 C2467 0.959 . S
H2453 C2467 0.961 . S
H2454 C2468 0.960 . S
H2455 C2468 0.961 . S
H2456 C2468 0.959 . S
H2457 C2471 0.929 1_545 S
H2458 C2472 0.931 1_545 S
H2459 C2474 0.930 . S
C2460 H2448 0.930 . S
C2460 C2461 1.399 . S
C2460 C2465 1.399 . S
C2461 C2460 1.399 . S
C2461 C2462 1.376 . S
C2462 H2449 0.930 . S
C2462 C2461 1.376 . S
C2462 C2463 1.388 . S
C2463 H2450 0.930 . S
C2463 C2462 1.388 . S
C2463 C2464 1.390 . S
C2464 C2463 1.390 . S
C2464 C2465 1.394 . S
C2464 C2470 1.465 . S
C2465 C2460 1.399 . S
C2465 C2464 1.394 . S
C2465 C2466 1.516 . S
C2466 C2465 1.516 . S
C2466 C2467 1.502 . S
C2466 C2468 1.561 . S
C2466 C2469 1.526 . S
C2467 H2451 0.959 . S
C2467 H2452 0.959 . S
C2467 H2453 0.961 . S
C2467 C2466 1.502 . S
C2468 H2454 0.960 . S
C2468 H2455 0.961 . S
C2468 H2456 0.959 . S
C2468 C2466 1.561 . S
C2469 C2466 1.526 . S
C2469 C2470 1.396 . S
C2469 C2474 1.390 . S
C2470 C2464 1.465 . S
C2470 C2469 1.396 . S
C2470 C2471 1.399 . S
C2471 H2457 0.929 1_565 S
C2471 C2470 1.399 . S
C2471 C2472 1.385 . S
C2472 H2458 0.931 1_565 S
C2472 C2471 1.385 . S
C2472 C2473 1.389 . S
C2473 C2472 1.389 . S
C2473 C2474 1.387 . S
C2474 H2459 0.930 . S
C2474 C2469 1.390 . S
C2474 C2473 1.387 . S
H2475 C2487 0.930 . S
H2476 C2489 0.930 . S
H2477 C2490 0.930 . S
H2478 C2494 0.959 . S
H2479 C2494 0.959 . S
H2480 C2494 0.961 . S
H2481 C2495 0.960 . S
H2482 C2495 0.961 . S
H2483 C2495 0.959 1_655 S
H2484 C2498 0.929 . S
H2485 C2499 0.931 . S
H2486 C2501 0.930 . S
C2487 H2475 0.930 . S
C2487 C2488 1.399 . S
C2487 C2492 1.399 . S
C2488 C2487 1.399 . S
C2488 C2489 1.376 . S
C2489 H2476 0.930 . S
C2489 C2488 1.376 . S
C2489 C2490 1.388 . S
C2490 H2477 0.930 . S
C2490 C2489 1.388 . S
C2490 C2491 1.390 . S
C2491 C2490 1.390 . S
C2491 C2492 1.394 . S
C2491 C2497 1.465 . S
C2492 C2487 1.399 . S
C2492 C2491 1.394 . S
C2492 C2493 1.516 . S
C2493 C2492 1.516 . S
C2493 C2494 1.502 . S
C2493 C2495 1.561 . S
C2493 C2496 1.526 . S
C2494 H2478 0.959 . S
C2494 H2479 0.959 . S
C2494 H2480 0.961 . S
C2494 C2493 1.502 . S
C2495 H2481 0.960 . S
C2495 H2482 0.961 . S
C2495 H2483 0.959 1_455 S
C2495 C2493 1.561 . S
C2496 C2493 1.526 . S
C2496 C2497 1.396 . S
C2496 C2501 1.390 . S
C2497 C2491 1.465 . S
C2497 C2496 1.396 . S
C2497 C2498 1.399 . S
C2498 H2484 0.929 . S
C2498 C2497 1.399 . S
C2498 C2499 1.385 . S
C2499 H2485 0.931 . S
C2499 C2498 1.385 . S
C2499 C2500 1.389 . S
C2500 C2499 1.389 . S
C2500 C2501 1.387 . S
C2501 H2486 0.930 . S
C2501 C2496 1.390 . S
C2501 C2500 1.387 . S
H2502 C2514 0.930 . S
H2503 C2516 0.930 . S
H2504 C2517 0.930 . S
H2505 C2521 0.959 . S
H2506 C2521 0.959 . S
H2507 C2521 0.961 . S
H2508 C2522 0.960 . S
H2509 C2522 0.961 . S
H2510 C2522 0.959 . S
H2511 C2525 0.929 . S
H2512 C2526 0.931 . S
H2513 C2528 0.930 . S
C2514 H2502 0.930 . S
C2514 C2515 1.399 . S
C2514 C2519 1.399 . S
C2515 C2514 1.399 . S
C2515 C2516 1.376 . S
C2516 H2503 0.930 . S
C2516 C2515 1.376 . S
C2516 C2517 1.388 . S
C2517 H2504 0.930 . S
C2517 C2516 1.388 . S
C2517 C2518 1.390 . S
C2518 C2517 1.390 . S
C2518 C2519 1.394 . S
C2518 C2524 1.465 . S
C2519 C2514 1.399 . S
C2519 C2518 1.394 . S
C2519 C2520 1.516 . S
C2520 C2519 1.516 . S
C2520 C2521 1.502 . S
C2520 C2522 1.561 . S
C2520 C2523 1.526 . S
C2521 H2505 0.959 . S
C2521 H2506 0.959 . S
C2521 H2507 0.961 . S
C2521 C2520 1.502 . S
C2522 H2508 0.960 . S
C2522 H2509 0.961 . S
C2522 H2510 0.959 . S
C2522 C2520 1.561 . S
C2523 C2520 1.526 . S
C2523 C2524 1.396 . S
C2523 C2528 1.390 . S
C2524 C2518 1.465 . S
C2524 C2523 1.396 . S
C2524 C2525 1.399 . S
C2525 H2511 0.929 . S
C2525 C2524 1.399 . S
C2525 C2526 1.385 . S
C2526 H2512 0.931 . S
C2526 C2525 1.385 . S
C2526 C2527 1.389 . S
C2527 C2526 1.389 . S
C2527 C2528 1.387 . S
C2528 H2513 0.930 . S
C2528 C2523 1.390 . S
C2528 C2527 1.387 . S
H2529 C2541 0.930 . S
H2530 C2543 0.930 . S
H2531 C2544 0.930 . S
H2532 C2548 0.959 . S
H2533 C2548 0.959 . S
H2534 C2548 0.961 . S
H2535 C2549 0.960 . S
H2536 C2549 0.961 . S
H2537 C2549 0.959 . S
H2538 C2552 0.929 . S
H2539 C2553 0.931 . S
H2540 C2555 0.930 . S
C2541 H2529 0.930 . S
C2541 C2542 1.399 . S
C2541 C2546 1.399 . S
C2542 C2541 1.399 . S
C2542 C2543 1.376 . S
C2543 H2530 0.930 . S
C2543 C2542 1.376 . S
C2543 C2544 1.388 . S
C2544 H2531 0.930 . S
C2544 C2543 1.388 . S
C2544 C2545 1.390 . S
C2545 C2544 1.390 . S
C2545 C2546 1.394 . S
C2545 C2551 1.465 . S
C2546 C2541 1.399 . S
C2546 C2545 1.394 . S
C2546 C2547 1.516 . S
C2547 C2546 1.516 . S
C2547 C2548 1.502 1_655 S
C2547 C2549 1.561 . S
C2547 C2550 1.526 . S
C2548 H2532 0.959 . S
C2548 H2533 0.959 . S
C2548 H2534 0.961 . S
C2548 C2547 1.502 1_455 S
C2549 H2535 0.960 . S
C2549 H2536 0.961 . S
C2549 H2537 0.959 . S
C2549 C2547 1.561 . S
C2550 C2547 1.526 . S
C2550 C2551 1.396 . S
C2550 C2555 1.390 . S
C2551 C2545 1.465 . S
C2551 C2550 1.396 . S
C2551 C2552 1.399 . S
C2552 H2538 0.929 . S
C2552 C2551 1.399 . S
C2552 C2553 1.385 . S
C2553 H2539 0.931 . S
C2553 C2552 1.385 . S
C2553 C2554 1.389 . S
C2554 C2553 1.389 . S
C2554 C2555 1.387 . S
C2555 H2540 0.930 . S
C2555 C2550 1.390 . S
C2555 C2554 1.387 . S
H2556 C2568 0.930 . S
H2557 C2570 0.930 . S
H2558 C2571 0.930 . S
H2559 C2575 0.959 . S
H2560 C2575 0.959 . S
H2561 C2575 0.961 . S
H2562 C2576 0.960 . S
H2563 C2576 0.961 . S
H2564 C2576 0.959 . S
H2565 C2579 0.929 . S
H2566 C2580 0.931 . S
H2567 C2582 0.930 . S
C2568 H2556 0.930 . S
C2568 C2569 1.399 . S
C2568 C2573 1.399 . S
C2569 C2568 1.399 . S
C2569 C2570 1.376 . S
C2570 H2557 0.930 . S
C2570 C2569 1.376 . S
C2570 C2571 1.388 . S
C2571 H2558 0.930 . S
C2571 C2570 1.388 . S
C2571 C2572 1.390 . S
C2572 C2571 1.390 . S
C2572 C2573 1.394 . S
C2572 C2578 1.465 . S
C2573 C2568 1.399 . S
C2573 C2572 1.394 . S
C2573 C2574 1.516 . S
C2574 C2573 1.516 . S
C2574 C2575 1.502 . S
C2574 C2576 1.561 . S
C2574 C2577 1.526 . S
C2575 H2559 0.959 . S
C2575 H2560 0.959 . S
C2575 H2561 0.961 . S
C2575 C2574 1.502 . S
C2576 H2562 0.960 . S
C2576 H2563 0.961 . S
C2576 H2564 0.959 . S
C2576 C2574 1.561 . S
C2577 C2574 1.526 . S
C2577 C2578 1.396 . S
C2577 C2582 1.390 . S
C2578 C2572 1.465 . S
C2578 C2577 1.396 . S
C2578 C2579 1.399 . S
C2579 H2565 0.929 . S
C2579 C2578 1.399 . S
C2579 C2580 1.385 . S
C2580 H2566 0.931 . S
C2580 C2579 1.385 . S
C2580 C2581 1.389 . S
C2581 C2580 1.389 . S
C2581 C2582 1.387 . S
C2582 H2567 0.930 . S
C2582 C2577 1.390 . S
C2582 C2581 1.387 . S
H2583 C2595 0.930 . S
H2584 C2597 0.930 . S
H2585 C2598 0.930 . S
H2586 C2602 0.959 . S
H2587 C2602 0.959 . S
H2588 C2602 0.961 . S
H2589 C2603 0.960 . S
H2590 C2603 0.961 . S
H2591 C2603 0.959 . S
H2592 C2606 0.929 . S
H2593 C2607 0.931 . S
H2594 C2609 0.930 . S
C2595 H2583 0.930 . S
C2595 C2596 1.399 . S
C2595 C2600 1.399 . S
C2596 C2595 1.399 . S
C2596 C2597 1.376 . S
C2597 H2584 0.930 . S
C2597 C2596 1.376 . S
C2597 C2598 1.388 . S
C2598 H2585 0.930 . S
C2598 C2597 1.388 . S
C2598 C2599 1.390 . S
C2599 C2598 1.390 . S
C2599 C2600 1.394 . S
C2599 C2605 1.465 . S
C2600 C2595 1.399 . S
C2600 C2599 1.394 . S
C2600 C2601 1.516 . S
C2601 C2600 1.516 . S
C2601 C2602 1.502 . S
C2601 C2603 1.561 . S
C2601 C2604 1.526 . S
C2602 H2586 0.959 . S
C2602 H2587 0.959 . S
C2602 H2588 0.961 . S
C2602 C2601 1.502 . S
C2603 H2589 0.960 . S
C2603 H2590 0.961 . S
C2603 H2591 0.959 . S
C2603 C2601 1.561 . S
C2604 C2601 1.526 . S
C2604 C2605 1.396 . S
C2604 C2609 1.390 . S
C2605 C2599 1.465 . S
C2605 C2604 1.396 . S
C2605 C2606 1.399 . S
C2606 H2592 0.929 . S
C2606 C2605 1.399 . S
C2606 C2607 1.385 . S
C2607 H2593 0.931 . S
C2607 C2606 1.385 . S
C2607 C2608 1.389 . S
C2608 C2607 1.389 . S
C2608 C2609 1.387 . S
C2609 H2594 0.930 . S
C2609 C2604 1.390 . S
C2609 C2608 1.387 . S
H2610 C2622 0.930 . S
H2611 C2624 0.930 . S
H2612 C2625 0.930 . S
H2613 C2629 0.959 . S
H2614 C2629 0.959 . S
H2615 C2629 0.961 . S
H2616 C2630 0.960 . S
H2617 C2630 0.961 . S
H2618 C2630 0.959 . S
H2619 C2633 0.929 . S
H2620 C2634 0.931 . S
H2621 C2636 0.930 . S
C2622 H2610 0.930 . S
C2622 C2623 1.399 . S
C2622 C2627 1.399 . S
C2623 C2622 1.399 . S
C2623 C2624 1.376 . S
C2624 H2611 0.930 . S
C2624 C2623 1.376 . S
C2624 C2625 1.388 . S
C2625 H2612 0.930 . S
C2625 C2624 1.388 . S
C2625 C2626 1.390 . S
C2626 C2625 1.390 . S
C2626 C2627 1.394 . S
C2626 C2632 1.465 . S
C2627 C2622 1.399 . S
C2627 C2626 1.394 . S
C2627 C2628 1.516 . S
C2628 C2627 1.516 . S
C2628 C2629 1.502 . S
C2628 C2630 1.561 . S
C2628 C2631 1.526 . S
C2629 H2613 0.959 . S
C2629 H2614 0.959 . S
C2629 H2615 0.961 . S
C2629 C2628 1.502 . S
C2630 H2616 0.960 . S
C2630 H2617 0.961 . S
C2630 H2618 0.959 . S
C2630 C2628 1.561 . S
C2631 C2628 1.526 . S
C2631 C2632 1.396 . S
C2631 C2636 1.390 . S
C2632 C2626 1.465 . S
C2632 C2631 1.396 . S
C2632 C2633 1.399 . S
C2633 H2619 0.929 . S
C2633 C2632 1.399 . S
C2633 C2634 1.385 . S
C2634 H2620 0.931 . S
C2634 C2633 1.385 . S
C2634 C2635 1.389 . S
C2635 C2634 1.389 . S
C2635 C2636 1.387 . S
C2636 H2621 0.930 . S
C2636 C2631 1.390 . S
C2636 C2635 1.387 . S
H2637 C2649 0.930 . S
H2638 C2651 0.930 . S
H2639 C2652 0.930 . S
H2640 C2656 0.959 . S
H2641 C2656 0.959 . S
H2642 C2656 0.961 . S
H2643 C2657 0.960 . S
H2644 C2657 0.961 . S
H2645 C2657 0.959 . S
H2646 C2660 0.929 . S
H2647 C2661 0.931 . S
H2648 C2663 0.930 . S
C2649 H2637 0.930 . S
C2649 C2650 1.399 . S
C2649 C2654 1.399 . S
C2650 C2649 1.399 . S
C2650 C2651 1.376 . S
C2651 H2638 0.930 . S
C2651 C2650 1.376 . S
C2651 C2652 1.388 . S
C2652 H2639 0.930 . S
C2652 C2651 1.388 . S
C2652 C2653 1.390 . S
C2653 C2652 1.390 . S
C2653 C2654 1.394 . S
C2653 C2659 1.465 . S
C2654 C2649 1.399 . S
C2654 C2653 1.394 . S
C2654 C2655 1.516 . S
C2655 C2654 1.516 . S
C2655 C2656 1.502 . S
C2655 C2657 1.561 . S
C2655 C2658 1.526 . S
C2656 H2640 0.959 . S
C2656 H2641 0.959 . S
C2656 H2642 0.961 . S
C2656 C2655 1.502 . S
C2657 H2643 0.960 . S
C2657 H2644 0.961 . S
C2657 H2645 0.959 . S
C2657 C2655 1.561 . S
C2658 C2655 1.526 . S
C2658 C2659 1.396 . S
C2658 C2663 1.390 . S
C2659 C2653 1.465 . S
C2659 C2658 1.396 . S
C2659 C2660 1.399 . S
C2660 H2646 0.929 . S
C2660 C2659 1.399 . S
C2660 C2661 1.385 . S
C2661 H2647 0.931 . S
C2661 C2660 1.385 . S
C2661 C2662 1.389 . S
C2662 C2661 1.389 . S
C2662 C2663 1.387 . S
C2663 H2648 0.930 . S
C2663 C2658 1.390 . S
C2663 C2662 1.387 . S
H2664 C2676 0.930 . S
H2665 C2678 0.930 . S
H2666 C2679 0.930 . S
H2667 C2683 0.959 . S
H2668 C2683 0.959 . S
H2669 C2683 0.961 . S
H2670 C2684 0.960 . S
H2671 C2684 0.961 . S
H2672 C2684 0.959 . S
H2673 C2687 0.929 . S
H2674 C2688 0.931 . S
H2675 C2690 0.930 . S
C2676 H2664 0.930 . S
C2676 C2677 1.399 . S
C2676 C2681 1.399 . S
C2677 C2676 1.399 . S
C2677 C2678 1.376 . S
C2678 H2665 0.930 . S
C2678 C2677 1.376 . S
C2678 C2679 1.388 . S
C2679 H2666 0.930 . S
C2679 C2678 1.388 . S
C2679 C2680 1.390 . S
C2680 C2679 1.390 . S
C2680 C2681 1.394 . S
C2680 C2686 1.465 . S
C2681 C2676 1.399 . S
C2681 C2680 1.394 . S
C2681 C2682 1.516 . S
C2682 C2681 1.516 . S
C2682 C2683 1.502 . S
C2682 C2684 1.561 . S
C2682 C2685 1.526 . S
C2683 H2667 0.959 . S
C2683 H2668 0.959 . S
C2683 H2669 0.961 . S
C2683 C2682 1.502 . S
C2684 H2670 0.960 . S
C2684 H2671 0.961 . S
C2684 H2672 0.959 . S
C2684 C2682 1.561 . S
C2685 C2682 1.526 . S
C2685 C2686 1.396 . S
C2685 C2690 1.390 . S
C2686 C2680 1.465 . S
C2686 C2685 1.396 . S
C2686 C2687 1.399 . S
C2687 H2673 0.929 . S
C2687 C2686 1.399 . S
C2687 C2688 1.385 . S
C2688 H2674 0.931 . S
C2688 C2687 1.385 . S
C2688 C2689 1.389 . S
C2689 C2688 1.389 . S
C2689 C2690 1.387 . S
C2690 H2675 0.930 . S
C2690 C2685 1.390 . S
C2690 C2689 1.387 . S
H2691 C2703 0.930 . S
H2692 C2705 0.930 . S
H2693 C2706 0.930 . S
H2694 C2710 0.959 . S
H2695 C2710 0.959 . S
H2696 C2710 0.961 . S
H2697 C2711 0.960 . S
H2698 C2711 0.961 . S
H2699 C2711 0.959 . S
H2700 C2714 0.929 . S
H2701 C2715 0.931 . S
H2702 C2717 0.930 . S
C2703 H2691 0.930 . S
C2703 C2704 1.399 . S
C2703 C2708 1.399 . S
C2704 C2703 1.399 . S
C2704 C2705 1.376 . S
C2705 H2692 0.930 . S
C2705 C2704 1.376 . S
C2705 C2706 1.388 . S
C2706 H2693 0.930 . S
C2706 C2705 1.388 . S
C2706 C2707 1.390 . S
C2707 C2706 1.390 . S
C2707 C2708 1.394 . S
C2707 C2713 1.465 . S
C2708 C2703 1.399 . S
C2708 C2707 1.394 . S
C2708 C2709 1.516 . S
C2709 C2708 1.516 . S
C2709 C2710 1.502 . S
C2709 C2711 1.561 . S
C2709 C2712 1.526 . S
C2710 H2694 0.959 . S
C2710 H2695 0.959 . S
C2710 H2696 0.961 . S
C2710 C2709 1.502 . S
C2711 H2697 0.960 . S
C2711 H2698 0.961 . S
C2711 H2699 0.959 . S
C2711 C2709 1.561 . S
C2712 C2709 1.526 . S
C2712 C2713 1.396 . S
C2712 C2717 1.390 . S
C2713 C2707 1.465 . S
C2713 C2712 1.396 . S
C2713 C2714 1.399 . S
C2714 H2700 0.929 . S
C2714 C2713 1.399 . S
C2714 C2715 1.385 . S
C2715 H2701 0.931 . S
C2715 C2714 1.385 . S
C2715 C2716 1.389 . S
C2716 C2715 1.389 . S
C2716 C2717 1.387 . S
C2717 H2702 0.930 . S
C2717 C2712 1.390 . S
C2717 C2716 1.387 . S
H2718 C2730 0.930 . S
H2719 C2732 0.930 . S
H2720 C2733 0.930 . S
H2721 C2737 0.959 . S
H2722 C2737 0.959 . S
H2723 C2737 0.961 . S
H2724 C2738 0.960 . S
H2725 C2738 0.961 . S
H2726 C2738 0.959 . S
H2727 C2741 0.929 . S
H2728 C2742 0.931 . S
H2729 C2744 0.930 . S
C2730 H2718 0.930 . S
C2730 C2731 1.399 . S
C2730 C2735 1.399 . S
C2731 C2730 1.399 . S
C2731 C2732 1.376 . S
C2732 H2719 0.930 . S
C2732 C2731 1.376 . S
C2732 C2733 1.388 . S
C2733 H2720 0.930 . S
C2733 C2732 1.388 . S
C2733 C2734 1.390 . S
C2734 C2733 1.390 . S
C2734 C2735 1.394 . S
C2734 C2740 1.465 . S
C2735 C2730 1.399 . S
C2735 C2734 1.394 . S
C2735 C2736 1.516 . S
C2736 C2735 1.516 . S
C2736 C2737 1.502 . S
C2736 C2738 1.561 . S
C2736 C2739 1.526 . S
C2737 H2721 0.959 . S
C2737 H2722 0.959 . S
C2737 H2723 0.961 . S
C2737 C2736 1.502 . S
C2738 H2724 0.960 . S
C2738 H2725 0.961 . S
C2738 H2726 0.959 . S
C2738 C2736 1.561 . S
C2739 C2736 1.526 . S
C2739 C2740 1.396 . S
C2739 C2744 1.390 . S
C2740 C2734 1.465 . S
C2740 C2739 1.396 . S
C2740 C2741 1.399 . S
C2741 H2727 0.929 . S
C2741 C2740 1.399 . S
C2741 C2742 1.385 . S
C2742 H2728 0.931 . S
C2742 C2741 1.385 . S
C2742 C2743 1.389 . S
C2743 C2742 1.389 . S
C2743 C2744 1.387 . S
C2744 H2729 0.930 . S
C2744 C2739 1.390 . S
C2744 C2743 1.387 . S
H2745 C2757 0.930 . S
H2746 C2759 0.930 . S
H2747 C2760 0.930 . S
H2748 C2764 0.959 . S
H2749 C2764 0.959 . S
H2750 C2764 0.961 . S
H2751 C2765 0.960 . S
H2752 C2765 0.961 . S
H2753 C2765 0.959 . S
H2754 C2768 0.929 . S
H2755 C2769 0.931 . S
H2756 C2771 0.930 . S
C2757 H2745 0.930 . S
C2757 C2758 1.399 . S
C2757 C2762 1.399 . S
C2758 C2757 1.399 . S
C2758 C2759 1.376 . S
C2759 H2746 0.930 . S
C2759 C2758 1.376 . S
C2759 C2760 1.388 . S
C2760 H2747 0.930 . S
C2760 C2759 1.388 . S
C2760 C2761 1.390 . S
C2761 C2760 1.390 . S
C2761 C2762 1.394 . S
C2761 C2767 1.465 . S
C2762 C2757 1.399 . S
C2762 C2761 1.394 . S
C2762 C2763 1.516 . S
C2763 C2762 1.516 . S
C2763 C2764 1.502 . S
C2763 C2765 1.561 . S
C2763 C2766 1.526 . S
C2764 H2748 0.959 . S
C2764 H2749 0.959 . S
C2764 H2750 0.961 . S
C2764 C2763 1.502 . S
C2765 H2751 0.960 . S
C2765 H2752 0.961 . S
C2765 H2753 0.959 . S
C2765 C2763 1.561 . S
C2766 C2763 1.526 . S
C2766 C2767 1.396 . S
C2766 C2771 1.390 . S
C2767 C2761 1.465 . S
C2767 C2766 1.396 . S
C2767 C2768 1.399 . S
C2768 H2754 0.929 . S
C2768 C2767 1.399 . S
C2768 C2769 1.385 . S
C2769 H2755 0.931 . S
C2769 C2768 1.385 . S
C2769 C2770 1.389 . S
C2770 C2769 1.389 . S
C2770 C2771 1.387 . S
C2771 H2756 0.930 . S
C2771 C2766 1.390 . S
C2771 C2770 1.387 . S
H2772 C2784 0.930 . S
H2773 C2786 0.930 . S
H2774 C2787 0.930 . S
H2775 C2791 0.959 . S
H2776 C2791 0.959 . S
H2777 C2791 0.961 . S
H2778 C2792 0.960 . S
H2779 C2792 0.961 . S
H2780 C2792 0.959 . S
H2781 C2795 0.929 . S
H2782 C2796 0.931 . S
H2783 C2798 0.930 . S
C2784 H2772 0.930 . S
C2784 C2785 1.399 . S
C2784 C2789 1.399 . S
C2785 C2784 1.399 . S
C2785 C2786 1.376 . S
C2786 H2773 0.930 . S
C2786 C2785 1.376 . S
C2786 C2787 1.388 . S
C2787 H2774 0.930 . S
C2787 C2786 1.388 . S
C2787 C2788 1.390 . S
C2788 C2787 1.390 . S
C2788 C2789 1.394 . S
C2788 C2794 1.465 . S
C2789 C2784 1.399 . S
C2789 C2788 1.394 . S
C2789 C2790 1.516 . S
C2790 C2789 1.516 . S
C2790 C2791 1.502 . S
C2790 C2792 1.561 . S
C2790 C2793 1.526 . S
C2791 H2775 0.959 . S
C2791 H2776 0.959 . S
C2791 H2777 0.961 . S
C2791 C2790 1.502 . S
C2792 H2778 0.960 . S
C2792 H2779 0.961 . S
C2792 H2780 0.959 . S
C2792 C2790 1.561 . S
C2793 C2790 1.526 . S
C2793 C2794 1.396 . S
C2793 C2798 1.390 . S
C2794 C2788 1.465 . S
C2794 C2793 1.396 . S
C2794 C2795 1.399 . S
C2795 H2781 0.929 . S
C2795 C2794 1.399 . S
C2795 C2796 1.385 . S
C2796 H2782 0.931 . S
C2796 C2795 1.385 . S
C2796 C2797 1.389 . S
C2797 C2796 1.389 . S
C2797 C2798 1.387 . S
C2798 H2783 0.930 . S
C2798 C2793 1.390 . S
C2798 C2797 1.387 . S
H2799 C2811 0.930 . S
H2800 C2813 0.930 . S
H2801 C2814 0.930 . S
H2802 C2818 0.959 . S
H2803 C2818 0.959 . S
H2804 C2818 0.961 . S
H2805 C2819 0.960 . S
H2806 C2819 0.961 . S
H2807 C2819 0.959 . S
H2808 C2822 0.929 . S
H2809 C2823 0.931 . S
H2810 C2825 0.930 . S
C2811 H2799 0.930 . S
C2811 C2812 1.399 . S
C2811 C2816 1.399 . S
C2812 C2811 1.399 . S
C2812 C2813 1.376 . S
C2813 H2800 0.930 . S
C2813 C2812 1.376 . S
C2813 C2814 1.388 . S
C2814 H2801 0.930 . S
C2814 C2813 1.388 . S
C2814 C2815 1.390 . S
C2815 C2814 1.390 . S
C2815 C2816 1.394 . S
C2815 C2821 1.465 . S
C2816 C2811 1.399 . S
C2816 C2815 1.394 . S
C2816 C2817 1.516 . S
C2817 C2816 1.516 . S
C2817 C2818 1.502 . S
C2817 C2819 1.561 . S
C2817 C2820 1.526 . S
C2818 H2802 0.959 . S
C2818 H2803 0.959 . S
C2818 H2804 0.961 . S
C2818 C2817 1.502 . S
C2819 H2805 0.960 . S
C2819 H2806 0.961 . S
C2819 H2807 0.959 . S
C2819 C2817 1.561 . S
C2820 C2817 1.526 . S
C2820 C2821 1.396 . S
C2820 C2825 1.390 . S
C2821 C2815 1.465 . S
C2821 C2820 1.396 . S
C2821 C2822 1.399 . S
C2822 H2808 0.929 . S
C2822 C2821 1.399 . S
C2822 C2823 1.385 . S
C2823 H2809 0.931 . S
C2823 C2822 1.385 . S
C2823 C2824 1.389 . S
C2824 C2823 1.389 . S
C2824 C2825 1.387 . S
C2825 H2810 0.930 . S
C2825 C2820 1.390 . S
C2825 C2824 1.387 . S
H2826 C2838 0.930 . S
H2827 C2840 0.930 . S
H2828 C2841 0.930 . S
H2829 C2845 0.959 . S
H2830 C2845 0.959 . S
H2831 C2845 0.961 . S
H2832 C2846 0.960 . S
H2833 C2846 0.961 . S
H2834 C2846 0.959 . S
H2835 C2849 0.929 . S
H2836 C2850 0.931 . S
H2837 C2852 0.930 . S
C2838 H2826 0.930 . S
C2838 C2839 1.399 . S
C2838 C2843 1.399 . S
C2839 C2838 1.399 . S
C2839 C2840 1.376 . S
C2840 H2827 0.930 . S
C2840 C2839 1.376 . S
C2840 C2841 1.388 . S
C2841 H2828 0.930 . S
C2841 C2840 1.388 . S
C2841 C2842 1.390 . S
C2842 C2841 1.390 . S
C2842 C2843 1.394 . S
C2842 C2848 1.465 . S
C2843 C2838 1.399 . S
C2843 C2842 1.394 . S
C2843 C2844 1.516 . S
C2844 C2843 1.516 . S
C2844 C2845 1.502 . S
C2844 C2846 1.561 . S
C2844 C2847 1.526 . S
C2845 H2829 0.959 . S
C2845 H2830 0.959 . S
C2845 H2831 0.961 . S
C2845 C2844 1.502 . S
C2846 H2832 0.960 . S
C2846 H2833 0.961 . S
C2846 H2834 0.959 . S
C2846 C2844 1.561 . S
C2847 C2844 1.526 . S
C2847 C2848 1.396 . S
C2847 C2852 1.390 . S
C2848 C2842 1.465 . S
C2848 C2847 1.396 . S
C2848 C2849 1.399 . S
C2849 H2835 0.929 . S
C2849 C2848 1.399 . S
C2849 C2850 1.385 . S
C2850 H2836 0.931 . S
C2850 C2849 1.385 . S
C2850 C2851 1.389 . S
C2851 C2850 1.389 . S
C2851 C2852 1.387 . S
C2852 H2837 0.930 . S
C2852 C2847 1.390 . S
C2852 C2851 1.387 . S
H2853 C2865 0.930 . S
H2854 C2867 0.930 . S
H2855 C2868 0.930 . S
H2856 C2872 0.959 . S
H2857 C2872 0.959 . S
H2858 C2872 0.961 . S
H2859 C2873 0.960 . S
H2860 C2873 0.961 . S
H2861 C2873 0.959 . S
H2862 C2876 0.929 . S
H2863 C2877 0.931 . S
H2864 C2879 0.930 . S
C2865 H2853 0.930 . S
C2865 C2866 1.399 . S
C2865 C2870 1.399 . S
C2866 C2865 1.399 . S
C2866 C2867 1.376 . S
C2867 H2854 0.930 . S
C2867 C2866 1.376 . S
C2867 C2868 1.388 . S
C2868 H2855 0.930 . S
C2868 C2867 1.388 . S
C2868 C2869 1.390 . S
C2869 C2868 1.390 . S
C2869 C2870 1.394 . S
C2869 C2875 1.465 . S
C2870 C2865 1.399 . S
C2870 C2869 1.394 . S
C2870 C2871 1.516 . S
C2871 C2870 1.516 . S
C2871 C2872 1.502 . S
C2871 C2873 1.561 . S
C2871 C2874 1.526 . S
C2872 H2856 0.959 . S
C2872 H2857 0.959 . S
C2872 H2858 0.961 . S
C2872 C2871 1.502 . S
C2873 H2859 0.960 . S
C2873 H2860 0.961 . S
C2873 H2861 0.959 . S
C2873 C2871 1.561 . S
C2874 C2871 1.526 . S
C2874 C2875 1.396 . S
C2874 C2879 1.390 . S
C2875 C2869 1.465 . S
C2875 C2874 1.396 . S
C2875 C2876 1.399 . S
C2876 H2862 0.929 . S
C2876 C2875 1.399 . S
C2876 C2877 1.385 . S
C2877 H2863 0.931 . S
C2877 C2876 1.385 . S
C2877 C2878 1.389 . S
C2878 C2877 1.389 . S
C2878 C2879 1.387 . S
C2879 H2864 0.930 . S
C2879 C2874 1.390 . S
C2879 C2878 1.387 . S
H2880 C2892 0.930 . S
H2881 C2894 0.930 . S
H2882 C2895 0.930 . S
H2883 C2899 0.959 . S
H2884 C2899 0.959 . S
H2885 C2899 0.961 . S
H2886 C2900 0.960 . S
H2887 C2900 0.961 . S
H2888 C2900 0.959 . S
H2889 C2903 0.929 . S
H2890 C2904 0.931 . S
H2891 C2906 0.930 . S
C2892 H2880 0.930 . S
C2892 C2893 1.399 . S
C2892 C2897 1.399 . S
C2893 C2892 1.399 . S
C2893 C2894 1.376 . S
C2894 H2881 0.930 . S
C2894 C2893 1.376 . S
C2894 C2895 1.388 . S
C2895 H2882 0.930 . S
C2895 C2894 1.388 . S
C2895 C2896 1.390 . S
C2896 C2895 1.390 . S
C2896 C2897 1.394 . S
C2896 C2902 1.465 . S
C2897 C2892 1.399 . S
C2897 C2896 1.394 . S
C2897 C2898 1.516 . S
C2898 C2897 1.516 . S
C2898 C2899 1.502 . S
C2898 C2900 1.561 . S
C2898 C2901 1.526 . S
C2899 H2883 0.959 . S
C2899 H2884 0.959 . S
C2899 H2885 0.961 . S
C2899 C2898 1.502 . S
C2900 H2886 0.960 . S
C2900 H2887 0.961 . S
C2900 H2888 0.959 . S
C2900 C2898 1.561 . S
C2901 C2898 1.526 . S
C2901 C2902 1.396 . S
C2901 C2906 1.390 . S
C2902 C2896 1.465 . S
C2902 C2901 1.396 . S
C2902 C2903 1.399 . S
C2903 H2889 0.929 . S
C2903 C2902 1.399 . S
C2903 C2904 1.385 . S
C2904 H2890 0.931 . S
C2904 C2903 1.385 . S
C2904 C2905 1.389 . S
C2905 C2904 1.389 . S
C2905 C2906 1.387 . S
C2906 H2891 0.930 . S
C2906 C2901 1.390 . S
C2906 C2905 1.387 . S
H2907 C2919 0.930 . S
H2908 C2921 0.930 . S
H2909 C2922 0.930 . S
H2910 C2926 0.959 . S
H2911 C2926 0.959 . S
H2912 C2926 0.961 . S
H2913 C2927 0.960 . S
H2914 C2927 0.961 . S
H2915 C2927 0.959 . S
H2916 C2930 0.929 . S
H2917 C2931 0.931 . S
H2918 C2933 0.930 . S
C2919 H2907 0.930 . S
C2919 C2920 1.399 . S
C2919 C2924 1.399 . S
C2920 C2919 1.399 . S
C2920 C2921 1.376 . S
C2921 H2908 0.930 . S
C2921 C2920 1.376 . S
C2921 C2922 1.388 . S
C2922 H2909 0.930 . S
C2922 C2921 1.388 . S
C2922 C2923 1.390 . S
C2923 C2922 1.390 . S
C2923 C2924 1.394 . S
C2923 C2929 1.465 . S
C2924 C2919 1.399 . S
C2924 C2923 1.394 . S
C2924 C2925 1.516 . S
C2925 C2924 1.516 . S
C2925 C2926 1.502 . S
C2925 C2927 1.561 . S
C2925 C2928 1.526 . S
C2926 H2910 0.959 . S
C2926 H2911 0.959 . S
C2926 H2912 0.961 . S
C2926 C2925 1.502 . S
C2927 H2913 0.960 . S
C2927 H2914 0.961 . S
C2927 H2915 0.959 . S
C2927 C2925 1.561 . S
C2928 C2925 1.526 . S
C2928 C2929 1.396 . S
C2928 C2933 1.390 . S
C2929 C2923 1.465 . S
C2929 C2928 1.396 . S
C2929 C2930 1.399 . S
C2930 H2916 0.929 . S
C2930 C2929 1.399 . S
C2930 C2931 1.385 . S
C2931 H2917 0.931 . S
C2931 C2930 1.385 . S
C2931 C2932 1.389 . S
C2932 C2931 1.389 . S
C2932 C2933 1.387 . S
C2933 H2918 0.930 . S
C2933 C2928 1.390 . S
C2933 C2932 1.387 . S
C1489 C522 1.447 . S
C1501 C776 1.408 . S
C1516 C562 1.449 . S
C1528 C860 1.332 . S
C1543 C495 1.470 . S
C1555 C954 1.448 . S
C1570 C455 1.429 . S
C1582 C870 1.392 . S
C1609 C944 1.278 . S
C1597 C362 1.394 . S
C1624 C402 1.422 . S
C1636 C786 1.388 . S
C1663 C787 1.371 . S
C1651 C442 1.420 . S
C1690 C871 1.386 . S
C1678 C375 1.422 . S
C1705 C415 1.464 . S
C1717 C963 1.450 . S
C1732 C535 1.445 . S
C1744 C879 1.358 . S
C1759 C575 1.368 . S
C1771 C955 1.268 . S
C1798 C795 1.420 . S
C1786 C482 1.396 . S
C1825 C1028 1.340 . S
C1813 C42 1.454 1_455 S
C1840 C82 1.451 . S
C1852 C1112 1.333 . S
C1867 C15 1.476 . S
C1879 C1206 1.437 . S
C1894 C695 1.426 . S
C1906 C1122 1.400 . S
C1921 C602 1.373 . S
C1933 C1196 1.313 . S
C1948 C642 1.424 . S
C1960 C1038 1.339 . S
C1975 C682 1.475 . S
C1987 C1039 1.383 . S
C2002 C615 1.426 . S
C2014 C1123 1.319 . S
C2041 C1215 1.461 . S
C2029 C655 1.462 . S
C2056 C55 1.445 . S
C2068 C1131 1.353 . S
C2095 C1207 1.302 . S
C2083 C95 1.354 1_455 S
C2110 C2 1.440 . S
C2122 C1047 1.378 . S
C2149 C1280 1.361 . S
C2137 C282 1.442 . S
C2164 C322 1.438 . S
C2176 C1364 1.401 . S
C2203 C1458 1.426 . S
C2191 C255 1.478 . S
C2230 C1374 1.391 . S
C2218 C215 1.430 1_545 S
C2257 C1448 1.346 . S
C2245 C122 1.375 1_655 S
C2272 C162 1.432 . S
C2284 C1290 1.398 . S
C2299 C202 1.462 1_655 S
C2311 C1291 1.393 . S
C2326 C135 1.431 . S
C2338 C1375 1.339 . S
C2365 C1467 1.400 . S
C2353 C175 1.496 . S
C2380 C295 1.426 . S
C2392 C1383 1.424 . S
C2407 C335 1.356 . S
C2419 C1459 1.315 . S
C2434 C242 1.449 . S
C2446 C1299 1.361 . S
C2461 C621 1.393 . S
C2473 C783 1.245 . S
C2500 C867 1.372 . S
C2488 C661 1.493 . S
C2515 C701 1.489 . S
C2527 C960 1.284 . S
C2542 C261 1.475 . S
C2554 C876 1.428 . S
C2569 C301 1.465 . S
C2581 C951 1.388 . S
C2608 C792 1.310 . S
C2596 C341 1.408 . S
C2623 C141 1.395 . S
C2635 C1035 1.247 . S
C2650 C181 1.494 . S
C2662 C1119 1.374 . S
C2677 C221 1.471 . S
C2689 C1212 1.330 . S
C2704 C501 1.474 . S
C2716 C1128 1.427 . S
C2743 C1203 1.350 . S
C2731 C541 1.451 . S
C2758 C581 1.392 . S
C2770 C1044 1.263 . S
C2785 C381 1.398 . S
C2797 C1287 1.250 . S
C2812 C421 1.494 . S
C2824 C1371 1.322 . S
C2851 C1464 1.283 . S
C2839 C461 1.489 . S
C2866 C21 1.522 . S
C2878 C1380 1.306 . S
C2893 C61 1.451 . S
C2905 C1455 1.349 . S
C2920 C101 1.416 . S
C2932 C1296 1.322 . S
