# Generated by pormake.
# Topology ocu, (6,8)-cn, num edge types: 1
# Building blocks:
#     Node 0, Type 0, BuildingBlock: KUMBUR_clean_sbu_0, # of connection points: 6
#     Node 1, Type 0, BuildingBlock: KUMBUR_clean_sbu_0, # of connection points: 6
#     Node 2, Type 0, BuildingBlock: KUMBUR_clean_sbu_0, # of connection points: 6
#     Node 3, Type 0, BuildingBlock: KUMBUR_clean_sbu_0, # of connection points: 6
#     Node 4, Type 0, BuildingBlock: KUMBUR_clean_sbu_0, # of connection points: 6
#     Node 5, Type 0, BuildingBlock: KUMBUR_clean_sbu_0, # of connection points: 6
#     Node 6, Type 0, BuildingBlock: KUMBUR_clean_sbu_0, # of connection points: 6
#     Node 7, Type 0, BuildingBlock: KUMBUR_clean_sbu_0, # of connection points: 6
#     Node 8, Type 1, BuildingBlock: VETTIZ_charged_sbu_0, # of connection points: 8
#     Node 9, Type 1, BuildingBlock: VETTIZ_charged_sbu_0, # of connection points: 8
#     Node 10, Type 1, BuildingBlock: VETTIZ_charged_sbu_0, # of connection points: 8
#     Node 11, Type 1, BuildingBlock: VETTIZ_charged_sbu_0, # of connection points: 8
#     Node 12, Type 1, BuildingBlock: VETTIZ_charged_sbu_0, # of connection points: 8
#     Node 13, Type 1, BuildingBlock: VETTIZ_charged_sbu_0, # of connection points: 8
#     Edge 14, Type (0, 1), BuildingBlock: KIFKEQ_clean_linker_1, # of connection points: 2
#     Edge 15, Type (0, 1), BuildingBlock: KIFKEQ_clean_linker_1, # of connection points: 2
#     Edge 16, Type (0, 1), BuildingBlock: KIFKEQ_clean_linker_1, # of connection points: 2
#     Edge 17, Type (0, 1), BuildingBlock: KIFKEQ_clean_linker_1, # of connection points: 2
#     Edge 18, Type (0, 1), BuildingBlock: KIFKEQ_clean_linker_1, # of connection points: 2
#     Edge 19, Type (0, 1), BuildingBlock: KIFKEQ_clean_linker_1, # of connection points: 2
#     Edge 20, Type (0, 1), BuildingBlock: KIFKEQ_clean_linker_1, # of connection points: 2
#     Edge 21, Type (0, 1), BuildingBlock: KIFKEQ_clean_linker_1, # of connection points: 2
#     Edge 22, Type (0, 1), BuildingBlock: KIFKEQ_clean_linker_1, # of connection points: 2
#     Edge 23, Type (0, 1), BuildingBlock: KIFKEQ_clean_linker_1, # of connection points: 2
#     Edge 24, Type (0, 1), BuildingBlock: KIFKEQ_clean_linker_1, # of connection points: 2
#     Edge 25, Type (0, 1), BuildingBlock: KIFKEQ_clean_linker_1, # of connection points: 2
#     Edge 26, Type (0, 1), BuildingBlock: KIFKEQ_clean_linker_1, # of connection points: 2
#     Edge 27, Type (0, 1), BuildingBlock: KIFKEQ_clean_linker_1, # of connection points: 2
#     Edge 28, Type (0, 1), BuildingBlock: KIFKEQ_clean_linker_1, # of connection points: 2
#     Edge 29, Type (0, 1), BuildingBlock: KIFKEQ_clean_linker_1, # of connection points: 2
#     Edge 30, Type (0, 1), BuildingBlock: KIFKEQ_clean_linker_1, # of connection points: 2
#     Edge 31, Type (0, 1), BuildingBlock: KIFKEQ_clean_linker_1, # of connection points: 2
#     Edge 32, Type (0, 1), BuildingBlock: KIFKEQ_clean_linker_1, # of connection points: 2
#     Edge 33, Type (0, 1), BuildingBlock: KIFKEQ_clean_linker_1, # of connection points: 2
#     Edge 34, Type (0, 1), BuildingBlock: KIFKEQ_clean_linker_1, # of connection points: 2
#     Edge 35, Type (0, 1), BuildingBlock: KIFKEQ_clean_linker_1, # of connection points: 2
#     Edge 36, Type (0, 1), BuildingBlock: KIFKEQ_clean_linker_1, # of connection points: 2
#     Edge 37, Type (0, 1), BuildingBlock: KIFKEQ_clean_linker_1, # of connection points: 2
#     Edge 38, Type (0, 1), BuildingBlock: KIFKEQ_clean_linker_1, # of connection points: 2
#     Edge 39, Type (0, 1), BuildingBlock: KIFKEQ_clean_linker_1, # of connection points: 2
#     Edge 40, Type (0, 1), BuildingBlock: KIFKEQ_clean_linker_1, # of connection points: 2
#     Edge 41, Type (0, 1), BuildingBlock: KIFKEQ_clean_linker_1, # of connection points: 2
#     Edge 42, Type (0, 1), BuildingBlock: KIFKEQ_clean_linker_1, # of connection points: 2
#     Edge 43, Type (0, 1), BuildingBlock: KIFKEQ_clean_linker_1, # of connection points: 2
#     Edge 44, Type (0, 1), BuildingBlock: KIFKEQ_clean_linker_1, # of connection points: 2
#     Edge 45, Type (0, 1), BuildingBlock: KIFKEQ_clean_linker_1, # of connection points: 2
#     Edge 46, Type (0, 1), BuildingBlock: KIFKEQ_clean_linker_1, # of connection points: 2
#     Edge 47, Type (0, 1), BuildingBlock: KIFKEQ_clean_linker_1, # of connection points: 2
#     Edge 48, Type (0, 1), BuildingBlock: KIFKEQ_clean_linker_1, # of connection points: 2
#     Edge 49, Type (0, 1), BuildingBlock: KIFKEQ_clean_linker_1, # of connection points: 2
#     Edge 50, Type (0, 1), BuildingBlock: KIFKEQ_clean_linker_1, # of connection points: 2
#     Edge 51, Type (0, 1), BuildingBlock: KIFKEQ_clean_linker_1, # of connection points: 2
#     Edge 52, Type (0, 1), BuildingBlock: KIFKEQ_clean_linker_1, # of connection points: 2
#     Edge 53, Type (0, 1), BuildingBlock: KIFKEQ_clean_linker_1, # of connection points: 2
#     Edge 54, Type (0, 1), BuildingBlock: KIFKEQ_clean_linker_1, # of connection points: 2
#     Edge 55, Type (0, 1), BuildingBlock: KIFKEQ_clean_linker_1, # of connection points: 2
#     Edge 56, Type (0, 1), BuildingBlock: KIFKEQ_clean_linker_1, # of connection points: 2
#     Edge 57, Type (0, 1), BuildingBlock: KIFKEQ_clean_linker_1, # of connection points: 2
#     Edge 58, Type (0, 1), BuildingBlock: KIFKEQ_clean_linker_1, # of connection points: 2
#     Edge 59, Type (0, 1), BuildingBlock: KIFKEQ_clean_linker_1, # of connection points: 2
#     Edge 60, Type (0, 1), BuildingBlock: KIFKEQ_clean_linker_1, # of connection points: 2
#     Edge 61, Type (0, 1), BuildingBlock: KIFKEQ_clean_linker_1, # of connection points: 2
# Relax obj value: 0.112
# Max RMSD: 0.247
# Mean RMSD: 0.163
data_MOF--net-ocu--node1-KUMBUR_clean_sbu_0--node2-VETTIZ_charged_sbu_0--edge1-KIFKEQ_clean_linker_1
_symmetry_space_group_name_H-M    P1
_symmetry_Int_Tables_number       1
_symmetry_cell_setting            triclinic
loop_
_symmetry_equiv_pos_as_xyz
'x, y, z'
_cell_length_a     38.752046
_cell_length_b     39.408362
_cell_length_c     41.850398
_cell_angle_alpha  78.281699
_cell_angle_beta   99.514659
_cell_angle_gamma 103.76641
loop_
_atom_site_label
_atom_site_type_symbol
_atom_site_fract_x
_atom_site_fract_y
_atom_site_fract_z
_atom_type_partial_charge
Tb0 Tb 0.28164 0.2375 0.24766 0.0
C1 C 0.38422 0.32168 0.34365 0.0
C2 C 0.39031 0.27888 0.39339 0.0
C3 C 0.43995 0.3282 0.38049 0.0
C4 C 0.37014 0.29108 0.36384 0.0
C5 C 0.41883 0.34133 0.35219 0.0
C6 C 0.4257 0.29695 0.40108 0.0
C7 C 0.40699 0.38756 0.30685 0.0
N8 N 0.36264 0.33374 0.31695 0.0
C9 C 0.37271 0.36719 0.29966 0.0
C10 C 0.43043 0.37429 0.33286 0.0
Tb11 Tb 0.30752 0.29797 0.30606 0.0
N12 N 0.33568 0.27486 0.35572 0.0
C13 C 0.3188 0.24794 0.37777 0.0
C14 C 0.37382 0.24981 0.41491 0.0
C15 C 0.3377 0.23474 0.40735 0.0
H16 H 0.35464 0.37772 0.27968 0.0
H17 H 0.3244 0.21278 0.4242 0.0
H18 H 0.4418 0.28772 0.42345 0.0
H19 H 0.41524 0.41352 0.29241 0.0
H20 H 0.291 0.23564 0.37242 0.0
H21 H 0.26439 0.32678 0.13204 0.0
H22 H 0.38837 0.23954 0.43783 0.0
H23 H 0.23635 0.15621 0.27094 0.0
H24 H 0.29757 0.30282 0.18342 0.0
H25 H 0.17737 0.11886 0.25576 0.0
H26 H 0.4668 0.34265 0.3873 0.0
H27 H 0.20125 0.29855 0.11659 0.0
H28 H 0.14884 0.24813 0.12861 0.0
H29 H 0.45684 0.39024 0.33858 0.0
H30 H 0.12487 0.19116 0.16257 0.0
N31 N 0.25353 0.26157 0.1983 0.0
C32 C 0.27014 0.28987 0.17733 0.0
C33 C 0.2157 0.28782 0.13937 0.0
C34 C 0.19961 0.25741 0.1597 0.0
C35 C 0.25136 0.30372 0.14796 0.0
C36 C 0.21961 0.24471 0.18916 0.0
H37 H 0.1357 0.1422 0.20971 0.0
N38 N 0.22773 0.2008 0.23465 0.0
C39 C 0.18498 0.14546 0.2423 0.0
C40 C 0.20609 0.21311 0.20819 0.0
C41 C 0.21844 0.1667 0.25078 0.0
C42 C 0.16148 0.15878 0.21639 0.0
C43 C 0.17225 0.19272 0.19845 0.0
O44 O 0.29824 0.19054 0.24638 0.0
O45 O 0.31454 0.24982 0.29294 0.0
O46 O 0.35473 0.30252 0.28236 0.0
O47 O 0.32791 0.28029 0.23452 0.0
O48 O 0.29201 0.19791 0.29124 0.0
O49 O 0.3124 0.23711 0.21065 0.0
O50 O 0.29274 0.34591 0.30665 0.0
O51 O 0.27334 0.28499 0.26141 0.0
O52 O 0.23469 0.22964 0.27365 0.0
O53 O 0.26134 0.2559 0.31968 0.0
O54 O 0.29609 0.3369 0.26216 0.0
O55 O 0.27942 0.30064 0.34422 0.0
C56 C 0.31277 0.21881 0.30954 0.0
C57 C 0.30577 0.18187 0.19387 0.0
C58 C 0.32418 0.14449 0.16235 0.0
C59 C 0.33237 0.16653 0.18653 0.0
C60 C 0.28933 0.13856 0.14547 0.0
C61 C 0.27144 0.17576 0.1763 0.0
C62 C 0.26331 0.15423 0.15231 0.0
C63 C 0.35538 0.29787 0.25215 0.0
C64 C 0.31377 0.20385 0.21999 0.0
C65 C 0.15116 0.20618 0.17027 0.0
C66 C 0.16483 0.23857 0.15091 0.0
C67 C 0.2742 0.31583 0.24466 0.0
C68 C 0.28875 0.3572 0.3591 0.0
C69 C 0.26194 0.36833 0.37072 0.0
C70 C 0.27094 0.39179 0.39371 0.0
C71 C 0.30738 0.4037 0.40479 0.0
C72 C 0.32469 0.36905 0.37103 0.0
C73 C 0.33391 0.39216 0.39369 0.0
C74 C 0.23417 0.23634 0.30341 0.0
C75 C 0.27877 0.33396 0.33403 0.0
H76 H 0.35903 0.17122 0.19989 0.0
H77 H 0.28233 0.12209 0.12658 0.0
H78 H 0.25088 0.18758 0.18107 0.0
H79 H 0.23668 0.14967 0.13894 0.0
H80 H 0.23414 0.35851 0.36191 0.0
H81 H 0.3156 0.42241 0.42169 0.0
H82 H 0.34573 0.36082 0.36273 0.0
H83 H 0.36179 0.40147 0.40246 0.0
Tb84 Tb 0.81298 0.23246 0.26656 0.0
C85 C 0.68744 0.26738 0.30973 0.0
C86 C 0.64133 0.27815 0.26445 0.0
C87 C 0.62473 0.25213 0.31897 0.0
C88 C 0.67764 0.27904 0.27681 0.0
C89 C 0.66105 0.25469 0.33138 0.0
C90 C 0.61488 0.26382 0.28555 0.0
C91 C 0.70835 0.251 0.37634 0.0
N92 N 0.72287 0.27022 0.32082 0.0
C93 C 0.73352 0.26375 0.35399 0.0
C94 C 0.67194 0.2459 0.36497 0.0
Tb95 Tb 0.76123 0.29072 0.28117 0.0
N96 N 0.70391 0.29313 0.25726 0.0
C97 C 0.6958 0.30938 0.22554 0.0
C98 C 0.63279 0.29271 0.23151 0.0
C99 C 0.66021 0.30883 0.2121 0.0
H100 H 0.76121 0.26744 0.36394 0.0
H101 H 0.65396 0.32088 0.18679 0.0
H102 H 0.58683 0.26257 0.27645 0.0
H103 H 0.71712 0.24503 0.4024 0.0
H104 H 0.71666 0.32178 0.21014 0.0
H105 H 0.91133 0.18473 0.36283 0.0
H106 H 0.60523 0.2925 0.22109 0.0
H107 H 0.81994 0.26015 0.18619 0.0
H108 H 0.85066 0.18784 0.33652 0.0
H109 H 0.86814 0.2863 0.15166 0.0
H110 H 0.60412 0.24202 0.33518 0.0
H111 H 0.96363 0.21791 0.33472 0.0
H112 H 0.98749 0.256 0.28411 0.0
H113 H 0.65254 0.23598 0.38238 0.0
H114 H 0.97577 0.2844 0.22655 0.0
N115 N 0.86764 0.22378 0.29357 0.0
C116 C 0.87281 0.20265 0.32357 0.0
C117 C 0.93688 0.21964 0.3229 0.0
C118 C 0.93146 0.23934 0.29139 0.0
C119 C 0.90741 0.20078 0.3388 0.0
C120 C 0.8961 0.24078 0.27709 0.0
H121 H 0.93134 0.29512 0.17668 0.0
N122 N 0.85501 0.25639 0.23125 0.0
C123 C 0.87457 0.27885 0.17794 0.0
C124 C 0.88954 0.25761 0.24489 0.0
C125 C 0.84717 0.26424 0.19784 0.0
C126 C 0.9102 0.28383 0.19216 0.0
C127 C 0.91811 0.27218 0.22587 0.0
O128 O 0.77283 0.19005 0.25233 0.0
O129 O 0.76869 0.23717 0.28902 0.0
O130 O 0.79933 0.27877 0.32501 0.0
O131 O 0.84457 0.26211 0.30522 0.0
O132 O 0.79467 0.19766 0.31169 0.0
O133 O 0.82742 0.194 0.24593 0.0
O134 O 0.79608 0.3293 0.30645 0.0
O135 O 0.80715 0.28685 0.25949 0.0
O136 O 0.77656 0.24786 0.22248 0.0
O137 O 0.73011 0.25608 0.24632 0.0
O138 O 0.77819 0.32251 0.23432 0.0
O139 O 0.74759 0.33997 0.27812 0.0
C140 C 0.76867 0.21217 0.31337 0.0
C141 C 0.78866 0.13698 0.25008 0.0
C142 C 0.80623 0.08273 0.27937 0.0
C143 C 0.81317 0.11987 0.27184 0.0
C144 C 0.77466 0.06272 0.26505 0.0
C145 C 0.75736 0.11676 0.23549 0.0
C146 C 0.75043 0.07978 0.24296 0.0
C147 C 0.83292 0.27505 0.32743 0.0
C148 C 0.79478 0.17574 0.24211 0.0
C149 C 0.95348 0.27275 0.24063 0.0
C150 C 0.96014 0.25646 0.27338 0.0
C151 C 0.80655 0.31109 0.23463 0.0
C152 C 0.80009 0.38488 0.27212 0.0
C153 C 0.78563 0.39732 0.24015 0.0
C154 C 0.80751 0.41903 0.21724 0.0
C155 C 0.84377 0.4319 0.22752 0.0
C156 C 0.83648 0.39785 0.28223 0.0
C157 C 0.858 0.42172 0.26012 0.0
C158 C 0.74224 0.24781 0.22173 0.0
C159 C 0.77895 0.35385 0.29199 0.0
H160 H 0.83714 0.13534 0.28357 0.0
H161 H 0.76882 0.03403 0.27097 0.0
H162 H 0.73818 0.12964 0.21845 0.0
H163 H 0.72614 0.06434 0.2318 0.0
H164 H 0.75745 0.38811 0.23217 0.0
H165 H 0.86112 0.44894 0.21027 0.0
H166 H 0.84852 0.38851 0.30672 0.0
H167 H 0.88611 0.43123 0.26793 0.0
Tb168 Tb 0.76815 0.7552 0.30686 0.0
C169 C 0.85934 0.86221 0.20814 0.0
C170 C 0.81677 0.87709 0.16139 0.0
C171 C 0.87107 0.92041 0.17384 0.0
C172 C 0.82717 0.85325 0.18933 0.0
C173 C 0.88234 0.89545 0.20012 0.0
C174 C 0.83827 0.91121 0.15444 0.0
C175 C 0.92759 0.87476 0.24132 0.0
N176 N 0.86945 0.83693 0.23257 0.0
C177 C 0.90389 0.84205 0.24794 0.0
C178 C 0.91655 0.90186 0.21771 0.0
Tb179 Tb 0.82815 0.78483 0.24374 0.0
N180 N 0.80784 0.81981 0.19658 0.0
C181 C 0.77964 0.80736 0.17461 0.0
C182 C 0.78619 0.86526 0.14038 0.0
C183 C 0.76803 0.82997 0.14664 0.0
H184 H 0.913 0.82124 0.26591 0.0
H185 H 0.74494 0.82015 0.13004 0.0
H186 H 0.83051 0.93009 0.13337 0.0
H187 H 0.95442 0.87895 0.25429 0.0
H188 H 0.76503 0.78027 0.17896 0.0
H189 H 0.85167 0.72618 0.42194 0.0
H190 H 0.77724 0.88269 0.11866 0.0
H191 H 0.6857 0.71432 0.2821 0.0
H192 H 0.83149 0.7635 0.37132 0.0
H193 H 0.64503 0.65674 0.29639 0.0
H194 H 0.88813 0.94628 0.1675 0.0
H195 H 0.81994 0.6638 0.436 0.0
H196 H 0.76761 0.61489 0.42293 0.0
H197 H 0.93507 0.92704 0.21234 0.0
H198 H 0.71089 0.59586 0.38861 0.0
N199 N 0.78909 0.72257 0.35524 0.0
C200 C 0.8171 0.73642 0.37669 0.0
C201 C 0.81093 0.68007 0.41348 0.0
C202 C 0.78071 0.66679 0.39278 0.0
C203 C 0.82879 0.71528 0.40568 0.0
C204 C 0.77022 0.68911 0.3637 0.0
H205 H 0.66441 0.61171 0.34183 0.0
N206 N 0.72844 0.70216 0.31861 0.0
C207 C 0.67139 0.6624 0.31007 0.0
C208 C 0.73863 0.67845 0.34459 0.0
C209 C 0.69463 0.69514 0.30209 0.0
C210 C 0.68249 0.63699 0.3356 0.0
C211 C 0.71621 0.64511 0.35369 0.0
O212 O 0.72209 0.77184 0.31266 0.0
O213 O 0.78005 0.79094 0.26089 0.0
O214 O 0.83983 0.82767 0.27259 0.0
O215 O 0.81394 0.79708 0.31994 0.0
O216 O 0.72749 0.76963 0.26701 0.0
O217 O 0.77136 0.78513 0.34397 0.0
O218 O 0.87081 0.76144 0.24045 0.0
O219 O 0.81549 0.74933 0.28935 0.0
O220 O 0.76047 0.71138 0.27938 0.0
O221 O 0.78094 0.74472 0.23091 0.0
O222 O 0.86825 0.76941 0.28415 0.0
O223 O 0.82597 0.75982 0.20313 0.0
C224 C 0.74801 0.7908 0.24716 0.0
C225 C 0.71794 0.77946 0.3663 0.0
C226 C 0.68889 0.80133 0.40335 0.0
C227 C 0.70864 0.80759 0.3765 0.0
C228 C 0.67905 0.76625 0.41996 0.0
C229 C 0.70803 0.74486 0.38335 0.0
C230 C 0.68873 0.73836 0.41008 0.0
C231 C 0.83487 0.82455 0.30374 0.0
C232 C 0.73779 0.78686 0.33774 0.0
C233 C 0.72751 0.62177 0.3814 0.0
C234 C 0.75978 0.6326 0.40094 0.0
C235 C 0.84698 0.74872 0.3037 0.0
C236 C 0.88128 0.75779 0.18747 0.0
C237 C 0.88875 0.72883 0.17683 0.0
C238 C 0.91396 0.73441 0.15454 0.0
C239 C 0.9311 0.76933 0.14272 0.0
C240 C 0.89834 0.79238 0.17496 0.0
C241 C 0.9231 0.79805 0.15268 0.0
C242 C 0.76322 0.71532 0.24757 0.0
C243 C 0.85688 0.75139 0.21263 0.0
H244 H 0.71697 0.83434 0.3635 0.0
H245 H 0.66322 0.76013 0.44022 0.0
H246 H 0.71499 0.72291 0.37593 0.0
H247 H 0.68092 0.71153 0.423 0.0
H248 H 0.87569 0.70202 0.1865 0.0
H249 H 0.95049 0.77439 0.12549 0.0
H250 H 0.89281 0.81495 0.18263 0.0
H251 H 0.93632 0.82482 0.14325 0.0
Tb252 Tb 0.31448 0.72748 0.27858 0.0
C253 C 0.30355 0.87426 0.23733 0.0
C254 C 0.31398 0.91051 0.27957 0.0
C255 C 0.33242 0.93664 0.22563 0.0
C256 C 0.30168 0.87745 0.26904 0.0
C257 C 0.31794 0.90407 0.21484 0.0
C258 C 0.33041 0.93986 0.258 0.0
C259 C 0.29835 0.8685 0.17203 0.0
N260 N 0.28858 0.84255 0.22787 0.0
C261 C 0.28443 0.83972 0.19533 0.0
C262 C 0.31587 0.90062 0.18194 0.0
Tb263 Tb 0.26703 0.79665 0.26789 0.0
N264 N 0.28521 0.84857 0.28882 0.0
C265 C 0.27644 0.85204 0.31825 0.0
C266 C 0.30791 0.91336 0.31087 0.0
C267 C 0.28842 0.88414 0.33003 0.0
H268 H 0.2713 0.81512 0.1871 0.0
H269 H 0.28237 0.88638 0.35376 0.0
H270 H 0.34044 0.96542 0.2657 0.0
H271 H 0.2958 0.86574 0.14649 0.0
H272 H 0.26097 0.8298 0.33307 0.0
H273 H 0.21926 0.60617 0.318 0.0
H274 H 0.31687 0.93829 0.3199 0.0
H275 H 0.40278 0.74671 0.30463 0.0
H276 H 0.2446 0.65638 0.27815 0.0
H277 H 0.44235 0.73278 0.35551 0.0
H278 H 0.34399 0.95975 0.20884 0.0
H279 H 0.24992 0.59542 0.37459 0.0
H280 H 0.30458 0.61074 0.41469 0.0
H281 H 0.32663 0.92283 0.16387 0.0
H282 H 0.36601 0.64517 0.42488 0.0
N283 N 0.2889 0.67676 0.31198 0.0
C284 C 0.25848 0.65317 0.30268 0.0
C285 C 0.26126 0.61805 0.3572 0.0
C286 C 0.29418 0.64004 0.3656 0.0
C287 C 0.24394 0.624 0.32527 0.0
C288 C 0.30774 0.66916 0.34199 0.0
H289 H 0.41799 0.69014 0.40261 0.0
N290 N 0.35542 0.71394 0.32312 0.0
C291 C 0.41416 0.72038 0.35379 0.0
C292 C 0.34231 0.6883 0.3477 0.0
C293 C 0.39149 0.72823 0.3249 0.0
C294 C 0.40029 0.69637 0.38035 0.0
C295 C 0.36419 0.67921 0.37719 0.0
O296 O 0.32605 0.72519 0.23161 0.0
O297 O 0.30746 0.77849 0.24956 0.0
O298 O 0.2479 0.76663 0.22703 0.0
O299 O 0.26218 0.71256 0.25013 0.0
O300 O 0.35844 0.7726 0.26749 0.0
O301 O 0.33388 0.68395 0.27169 0.0
O302 O 0.22507 0.81546 0.23587 0.0
O303 O 0.26674 0.74075 0.28816 0.0
O304 O 0.3349 0.75727 0.31953 0.0
O305 O 0.3145 0.81043 0.30318 0.0
O306 O 0.25616 0.77145 0.31778 0.0
O307 O 0.21689 0.78974 0.28475 0.0
C308 C 0.34021 0.79436 0.24965 0.0
C309 C 0.37359 0.69738 0.2316 0.0
C310 C 0.41237 0.66952 0.20938 0.0
C311 C 0.37872 0.669 0.21843 0.0
C312 C 0.44054 0.69893 0.21342 0.0
C313 C 0.4022 0.7264 0.23521 0.0
C314 C 0.43541 0.72709 0.22621 0.0
C315 C 0.24513 0.73264 0.22667 0.0
C316 C 0.3384 0.69659 0.24127 0.0
C317 C 0.34981 0.65218 0.40185 0.0
C318 C 0.31481 0.63261 0.39606 0.0
C319 C 0.25905 0.73997 0.31667 0.0
C320 C 0.18899 0.8385 0.26298 0.0
C321 C 0.18231 0.84225 0.29421 0.0
C322 C 0.16973 0.87186 0.29786 0.0
C323 C 0.16316 0.89717 0.26991 0.0
C324 C 0.1817 0.86407 0.23551 0.0
C325 C 0.16891 0.89314 0.23902 0.0
C326 C 0.33421 0.78972 0.32314 0.0
C327 C 0.20408 0.80871 0.25854 0.0
H328 H 0.35675 0.64652 0.21555 0.0
H329 H 0.46651 0.70046 0.20616 0.0
H330 H 0.39908 0.74873 0.24476 0.0
H331 H 0.45723 0.74967 0.22898 0.0
H332 H 0.18772 0.82283 0.31572 0.0
H333 H 0.15325 0.92004 0.27194 0.0
H334 H 0.18617 0.86176 0.21123 0.0
H335 H 0.1636 0.91276 0.21769 0.0
Tb336 Tb 0.31338 0.73624 0.76121 0.0
C337 C 0.18736 0.7726 0.80164 0.0
C338 C 0.14915 0.79833 0.75581 0.0
C339 C 0.12342 0.7629 0.80425 0.0
C340 C 0.18329 0.79282 0.77052 0.0
C341 C 0.15767 0.7588 0.81938 0.0
C342 C 0.11915 0.7825 0.77248 0.0
C343 C 0.19856 0.74289 0.86726 0.0
N344 N 0.22086 0.76928 0.81568 0.0
C345 C 0.22711 0.75682 0.84861 0.0
C346 C 0.16358 0.743 0.85235 0.0
Tb347 Tb 0.26532 0.79413 0.78332 0.0
N348 N 0.21304 0.80835 0.75534 0.0
C349 C 0.21038 0.83092 0.72585 0.0
C350 C 0.14626 0.82035 0.72518 0.0
C351 C 0.17703 0.83695 0.71032 0.0
H352 H 0.25405 0.75709 0.86054 0.0
H353 H 0.17508 0.8544 0.68681 0.0
H354 H 0.09268 0.78621 0.76144 0.0
H355 H 0.20356 0.73199 0.89308 0.0
H356 H 0.2335 0.8437 0.71346 0.0
H357 H 0.41235 0.6888 0.85689 0.0
H358 H 0.1205 0.82525 0.71309 0.0
H359 H 0.31864 0.76809 0.68102 0.0
H360 H 0.35179 0.69495 0.83238 0.0
H361 H 0.36588 0.79168 0.64528 0.0
H362 H 0.10023 0.75204 0.81732 0.0
H363 H 0.46393 0.71726 0.82614 0.0
H364 H 0.48687 0.7521 0.77399 0.0
H365 H 0.14152 0.73217 0.86685 0.0
H366 H 0.47429 0.78036 0.71653 0.0
N367 N 0.36817 0.72713 0.7875 0.0
C368 C 0.37365 0.70729 0.81817 0.0
C369 C 0.43723 0.7201 0.81503 0.0
C370 C 0.4314 0.73888 0.78316 0.0
C371 C 0.40818 0.70391 0.83243 0.0
C372 C 0.39613 0.74183 0.76979 0.0
H373 H 0.4293 0.7946 0.66821 0.0
N374 N 0.35456 0.75933 0.72496 0.0
C375 C 0.37282 0.78271 0.67126 0.0
C376 C 0.38908 0.75835 0.73753 0.0
C377 C 0.34598 0.7695 0.6919 0.0
C378 C 0.40859 0.78433 0.68428 0.0
C379 C 0.41708 0.77143 0.71765 0.0
O380 O 0.27147 0.69768 0.74272 0.0
O381 O 0.27167 0.74015 0.78773 0.0
O382 O 0.3013 0.77309 0.825 0.0
O383 O 0.34666 0.76631 0.79885 0.0
O384 O 0.29443 0.69731 0.80404 0.0
O385 O 0.32592 0.69597 0.74163 0.0
O386 O 0.30623 0.83534 0.79901 0.0
O387 O 0.30575 0.78932 0.75626 0.0
O388 O 0.27777 0.75712 0.719 0.0
O389 O 0.2322 0.76705 0.74338 0.0
O390 O 0.28801 0.83543 0.74326 0.0
O391 O 0.25398 0.8258 0.8136 0.0
C392 C 0.26944 0.71161 0.80846 0.0
C393 C 0.28462 0.64181 0.75385 0.0
C394 C 0.29429 0.59783 0.80243 0.0
C395 C 0.30537 0.63078 0.78301 0.0
C396 C 0.26255 0.57503 0.79194 0.0
C397 C 0.25314 0.61877 0.7432 0.0
C398 C 0.24235 0.58534 0.7621 0.0
C399 C 0.33563 0.77439 0.82421 0.0
C400 C 0.29274 0.67903 0.73776 0.0
C401 C 0.45242 0.76999 0.73132 0.0
C402 C 0.45957 0.75383 0.76403 0.0
C403 C 0.3107 0.81899 0.73729 0.0
C404 C 0.28957 0.88351 0.81214 0.0
C405 C 0.26835 0.90135 0.78729 0.0
C406 C 0.27314 0.93825 0.78316 0.0
C407 C 0.29924 0.95744 0.80394 0.0
C408 C 0.31547 0.90267 0.83318 0.0
C409 C 0.32019 0.93954 0.82911 0.0
C410 C 0.24362 0.75784 0.71869 0.0
C411 C 0.28615 0.84524 0.8156 0.0
H412 H 0.3293 0.64871 0.7917 0.0
H413 H 0.25353 0.54941 0.80671 0.0
H414 H 0.2364 0.62709 0.72093 0.0
H415 H 0.21785 0.56777 0.75402 0.0
H416 H 0.24872 0.88668 0.77064 0.0
H417 H 0.30344 0.98606 0.80057 0.0
H418 H 0.33225 0.88915 0.85246 0.0
H419 H 0.34037 0.95427 0.84522 0.0
Tb420 Tb 0.25338 0.23898 0.7995 0.0
C421 C 0.34482 0.35525 0.71215 0.0
C422 C 0.30331 0.37348 0.66546 0.0
C423 C 0.35571 0.41622 0.68312 0.0
C424 C 0.31322 0.34729 0.69159 0.0
C425 C 0.36701 0.38949 0.70734 0.0
C426 C 0.32392 0.40822 0.66218 0.0
C427 C 0.41242 0.36713 0.7471 0.0
N428 N 0.35539 0.32859 0.73485 0.0
C429 C 0.38959 0.33365 0.75099 0.0
C430 C 0.40076 0.39539 0.72579 0.0
Tb431 Tb 0.31485 0.2753 0.74003 0.0
N432 N 0.2941 0.31323 0.69521 0.0
C433 C 0.26709 0.30327 0.67113 0.0
C434 C 0.27409 0.36365 0.64234 0.0
C435 C 0.25647 0.32824 0.64478 0.0
H436 H 0.39951 0.31233 0.76743 0.0
H437 H 0.23438 0.32011 0.62653 0.0
H438 H 0.31632 0.42872 0.64262 0.0
H439 H 0.43899 0.37111 0.76062 0.0
H440 H 0.25236 0.27644 0.67211 0.0
H441 H 0.33544 0.20032 0.91399 0.0
H442 H 0.26571 0.38291 0.62192 0.0
H443 H 0.17111 0.19781 0.77204 0.0
H444 H 0.31452 0.24225 0.86816 0.0
H445 H 0.13439 0.13726 0.77923 0.0
H446 H 0.37216 0.44277 0.67942 0.0
H447 H 0.30818 0.13641 0.91899 0.0
H448 H 0.26026 0.08802 0.89863 0.0
H449 H 0.41859 0.42126 0.72273 0.0
H450 H 0.20524 0.07068 0.86175 0.0
N451 N 0.2759 0.20309 0.84497 0.0
C452 C 0.30198 0.21476 0.86909 0.0
C453 C 0.29872 0.15483 0.89836 0.0
C454 C 0.27018 0.14323 0.87528 0.0
C455 C 0.31408 0.19086 0.89567 0.0
C456 C 0.25884 0.16836 0.84886 0.0
H457 H 0.15754 0.08905 0.81786 0.0
N458 N 0.21573 0.18412 0.80533 0.0
C459 C 0.16074 0.14279 0.79297 0.0
C460 C 0.22777 0.15853 0.82827 0.0
C461 C 0.18176 0.17716 0.78896 0.0
C462 C 0.17396 0.11563 0.81468 0.0
C463 C 0.20743 0.12347 0.8333 0.0
O464 O 0.21413 0.23178 0.83111 0.0
O465 O 0.26489 0.2783 0.75581 0.0
O466 O 0.32394 0.31287 0.77442 0.0
O467 O 0.29828 0.27701 0.81978 0.0
O468 O 0.21253 0.25341 0.75952 0.0
O469 O 0.24162 0.28385 0.81271 0.0
O470 O 0.34972 0.28154 0.70463 0.0
O471 O 0.30367 0.2359 0.78419 0.0
O472 O 0.24383 0.20246 0.76339 0.0
O473 O 0.26937 0.23924 0.71855 0.0
O474 O 0.35567 0.26164 0.78025 0.0
O475 O 0.32866 0.22994 0.73013 0.0
C476 C 0.23307 0.27745 0.74152 0.0
C477 C 0.22173 0.27519 0.86503 0.0
C478 C 0.20895 0.3117 0.90115 0.0
C479 C 0.20606 0.30267 0.86956 0.0
C480 C 0.2276 0.29268 0.92785 0.0
C481 C 0.23961 0.25661 0.8924 0.0
C482 C 0.24271 0.26547 0.92345 0.0
C483 C 0.31848 0.30662 0.80575 0.0
C484 C 0.21858 0.26527 0.8321 0.0
C485 C 0.22021 0.09785 0.85785 0.0
C486 C 0.25155 0.10773 0.87884 0.0
C487 C 0.33563 0.23768 0.79872 0.0
C488 C 0.34141 0.23359 0.67609 0.0
C489 C 0.35933 0.2075 0.67289 0.0
C490 C 0.35393 0.19405 0.64321 0.0
C491 C 0.32984 0.20675 0.61708 0.0
C492 C 0.31832 0.24636 0.6493 0.0
C493 C 0.31223 0.23269 0.62018 0.0
C494 C 0.24908 0.20945 0.73191 0.0
C495 C 0.34772 0.24778 0.70712 0.0
H496 H 0.19192 0.31699 0.84862 0.0
H497 H 0.22991 0.29833 0.95248 0.0
H498 H 0.2507 0.23479 0.88997 0.0
H499 H 0.25656 0.25085 0.94435 0.0
H500 H 0.37751 0.19782 0.69343 0.0
H501 H 0.32539 0.19744 0.59381 0.0
H502 H 0.30508 0.267 0.65074 0.0
H503 H 0.29418 0.24265 0.59974 0.0
Tb504 Tb 0.81082 0.22999 0.78106 0.0
C505 C 0.74693 0.34827 0.69397 0.0
C506 C 0.79776 0.39665 0.68455 0.0
C507 C 0.74636 0.38998 0.64252 0.0
C508 C 0.78075 0.36585 0.7044 0.0
C509 C 0.7288 0.36061 0.66335 0.0
C510 C 0.78085 0.40799 0.65312 0.0
C511 C 0.67612 0.31675 0.67805 0.0
N512 N 0.73076 0.32056 0.71518 0.0
C513 C 0.69517 0.30581 0.70834 0.0
C514 C 0.69316 0.34392 0.65522 0.0
Tb515 Tb 0.76481 0.30275 0.76332 0.0
N516 N 0.79572 0.35431 0.73512 0.0
C517 C 0.8265 0.37437 0.74855 0.0
C518 C 0.83049 0.41586 0.69741 0.0
C519 C 0.84455 0.40504 0.72979 0.0
H520 H 0.6818 0.28475 0.7258 0.0
H521 H 0.86943 0.42016 0.7403 0.0
H522 H 0.79367 0.43133 0.63732 0.0
H523 H 0.6483 0.30427 0.67237 0.0
H524 H 0.83808 0.36637 0.77338 0.0
H525 H 0.70549 0.11335 0.80504 0.0
H526 H 0.8445 0.43962 0.68296 0.0
H527 H 0.89498 0.24702 0.81608 0.0
H528 H 0.73588 0.16782 0.77222 0.0
H529 H 0.93082 0.22459 0.8668 0.0
H530 H 0.73308 0.39968 0.6187 0.0
H531 H 0.73323 0.09133 0.86062 0.0
H532 H 0.78651 0.09712 0.90411 0.0
H533 H 0.67826 0.35256 0.63191 0.0
H534 H 0.84826 0.12738 0.92095 0.0
N535 N 0.78046 0.17796 0.80904 0.0
C536 C 0.74866 0.15882 0.79631 0.0
C537 C 0.74681 0.11544 0.8463 0.0
C538 C 0.78048 0.1337 0.85827 0.0
C539 C 0.73115 0.12772 0.81491 0.0
C540 C 0.79686 0.16505 0.83867 0.0
H541 H 0.90267 0.17449 0.90678 0.0
N542 N 0.84647 0.21066 0.8274 0.0
C543 C 0.90274 0.2125 0.86199 0.0
C544 C 0.83123 0.18201 0.8482 0.0
C545 C 0.88226 0.22513 0.83319 0.0
C546 C 0.88673 0.1843 0.88455 0.0
C547 C 0.85069 0.16824 0.87752 0.0
O548 O 0.85437 0.22725 0.75826 0.0
O549 O 0.80699 0.28162 0.75205 0.0
O550 O 0.75382 0.27822 0.71938 0.0
O551 O 0.76501 0.2221 0.74216 0.0
O552 O 0.85693 0.27291 0.76964 0.0
O553 O 0.80484 0.18899 0.75384 0.0
O554 O 0.72003 0.31074 0.78105 0.0
O555 O 0.7686 0.25131 0.79233 0.0
O556 O 0.82309 0.25425 0.82537 0.0
O557 O 0.81046 0.30991 0.80264 0.0
O558 O 0.7186 0.26045 0.77681 0.0
O559 O 0.77241 0.34233 0.79238 0.0
C560 C 0.8399 0.29574 0.75184 0.0
C561 C 0.85816 0.1709 0.75084 0.0
C562 C 0.89557 0.14236 0.72772 0.0
C563 C 0.87454 0.16785 0.72429 0.0
C564 C 0.89996 0.12006 0.7583 0.0
C565 C 0.86269 0.14826 0.78099 0.0
C566 C 0.88357 0.12302 0.78467 0.0
C567 C 0.75097 0.2444 0.71829 0.0
C568 C 0.83762 0.19874 0.74677 0.0
C569 C 0.83393 0.13816 0.89811 0.0
C570 C 0.7988 0.12093 0.88852 0.0
C571 C 0.7358 0.23742 0.79395 0.0
C572 C 0.72333 0.36933 0.78831 0.0
C573 C 0.71232 0.38049 0.81416 0.0
C574 C 0.69807 0.4113 0.80825 0.0
C575 C 0.69473 0.43042 0.77599 0.0
C576 C 0.71996 0.38905 0.75651 0.0
C577 C 0.70566 0.41934 0.7504 0.0
C578 C 0.82557 0.28815 0.82648 0.0
C579 C 0.73846 0.3373 0.79486 0.0
H580 H 0.87122 0.18563 0.70108 0.0
H581 H 0.91547 0.0998 0.76169 0.0
H582 H 0.85018 0.15009 0.80164 0.0
H583 H 0.88696 0.10556 0.808 0.0
H584 H 0.71536 0.3655 0.83884 0.0
H585 H 0.68329 0.4538 0.77041 0.0
H586 H 0.72832 0.38112 0.73639 0.0
H587 H 0.70298 0.43427 0.7257 0.0
Tb588 Tb 0.77166 0.72572 0.73858 0.0
C589 C 0.87696 0.80968 0.83542 0.0
C590 C 0.88332 0.76617 0.88457 0.0
C591 C 0.93232 0.81653 0.87281 0.0
C592 C 0.86316 0.77865 0.85511 0.0
C593 C 0.91124 0.8297 0.84448 0.0
C594 C 0.91838 0.78472 0.89282 0.0
C595 C 0.89932 0.87604 0.79935 0.0
N596 N 0.85543 0.82171 0.80872 0.0
C597 C 0.86546 0.85519 0.7915 0.0
C598 C 0.92259 0.86298 0.82561 0.0
Tb599 Tb 0.80064 0.78574 0.7971 0.0
N600 N 0.82906 0.76193 0.8464 0.0
C601 C 0.81254 0.73392 0.86771 0.0
C602 C 0.86723 0.73615 0.90533 0.0
C603 C 0.83148 0.72032 0.8971 0.0
H604 H 0.84778 0.8655 0.77104 0.0
H605 H 0.81848 0.69752 0.91331 0.0
H606 H 0.93446 0.77533 0.91513 0.0
H607 H 0.90744 0.90213 0.78509 0.0
H608 H 0.78504 0.72099 0.86196 0.0
H609 H 0.75389 0.81261 0.62159 0.0
H610 H 0.88181 0.7256 0.92811 0.0
H611 H 0.72386 0.64602 0.76401 0.0
H612 H 0.78786 0.78825 0.67237 0.0
H613 H 0.66246 0.61149 0.75202 0.0
H614 H 0.95891 0.83128 0.88001 0.0
H615 H 0.68924 0.78772 0.6092 0.0
H616 H 0.63526 0.74055 0.62423 0.0
H617 H 0.94871 0.87925 0.83176 0.0
H618 H 0.6101 0.68539 0.66002 0.0
N619 N 0.74285 0.75008 0.68977 0.0
C620 C 0.75975 0.77675 0.66755 0.0
C621 C 0.70403 0.77681 0.63169 0.0
C622 C 0.68745 0.74787 0.65327 0.0
C623 C 0.74054 0.79081 0.63853 0.0
C624 C 0.70796 0.7348 0.68224 0.0
H625 H 0.62032 0.63651 0.70746 0.0
N626 N 0.71589 0.69091 0.72789 0.0
C627 C 0.67084 0.63763 0.73794 0.0
C628 C 0.69387 0.704 0.70214 0.0
C629 C 0.70559 0.65725 0.74467 0.0
C630 C 0.64709 0.6519 0.71287 0.0
C631 C 0.6588 0.68512 0.69401 0.0
O632 O 0.78327 0.677 0.7352 0.0
O633 O 0.80671 0.7377 0.78301 0.0
O634 O 0.8472 0.79059 0.77132 0.0
O635 O 0.8183 0.76708 0.72449 0.0
O636 O 0.78401 0.68599 0.7817 0.0
O637 O 0.80055 0.72422 0.70081 0.0
O638 O 0.78638 0.8336 0.79928 0.0
O639 O 0.76606 0.7741 0.75235 0.0
O640 O 0.72577 0.72087 0.76422 0.0
O641 O 0.75443 0.74348 0.81143 0.0
O642 O 0.79057 0.82559 0.75365 0.0
O643 O 0.76997 0.78659 0.83399 0.0
C644 C 0.80605 0.70675 0.7994 0.0
C645 C 0.78829 0.67006 0.68145 0.0
C646 C 0.80477 0.63657 0.64534 0.0
C647 C 0.81344 0.65444 0.67246 0.0
C648 C 0.77044 0.63426 0.62753 0.0
C649 C 0.75418 0.66738 0.6634 0.0
C650 C 0.74529 0.64947 0.63666 0.0
C651 C 0.84683 0.78437 0.74122 0.0
C652 C 0.79873 0.69024 0.70874 0.0
C653 C 0.6373 0.69924 0.66648 0.0
C654 C 0.65163 0.73062 0.64611 0.0
C655 C 0.76841 0.80516 0.73578 0.0
C656 C 0.77855 0.84128 0.85209 0.0
C657 C 0.75101 0.85165 0.8636 0.0
C658 C 0.75892 0.87104 0.8898 0.0
C659 C 0.79482 0.88029 0.90372 0.0
C660 C 0.81393 0.8507 0.86668 0.0
C661 C 0.82198 0.87017 0.89223 0.0
C662 C 0.72637 0.72566 0.79461 0.0
C663 C 0.77014 0.82024 0.82529 0.0
H664 H 0.84002 0.65696 0.68609 0.0
H665 H 0.76297 0.62046 0.6067 0.0
H666 H 0.73453 0.67932 0.6697 0.0
H667 H 0.7189 0.64756 0.62284 0.0
H668 H 0.72355 0.84412 0.85262 0.0
H669 H 0.80202 0.89573 0.9234 0.0
H670 H 0.83539 0.84309 0.85837 0.0
H671 H 0.84943 0.87745 0.90321 0.0
Fe672 Fe 0.04345 0.04061 0.51979 0.0
O673 O 1.02179 0.99358 0.54491 0.0
Fe674 Fe 0.1245 0.02747 0.50495 0.0
Fe675 Fe 0.96977 0.9752 0.54415 0.0
O676 O 0.0725 0.01276 0.5045 0.0
O677 O 0.07251 1.00931 0.50443 0.0
O678 O 1.02189 0.9901 0.54494 0.0
Fe679 Fe 0.0507 0.96224 0.52934 0.0
C680 C 0.98775 0.04936 0.56203 0.0
O681 O 1.00644 0.03268 0.47954 0.0
O682 O 0.95647 1.01026 0.50318 0.0
O683 O 0.08383 0.93932 0.50814 0.0
O684 O 0.11894 0.98741 0.47841 0.0
O685 O 0.10994 0.06573 0.46738 0.0
O686 O 0.06972 0.08629 0.48984 0.0
O687 O 0.96434 0.93786 0.51418 0.0
O688 O 1.01335 0.95404 0.48915 0.0
C689 C 0.09094 0.08859 0.46791 0.0
O690 O 0.08796 0.96999 0.56939 0.0
O691 O 0.13772 0.99168 0.54541 0.0
O692 O 1.00985 0.06353 0.54015 0.0
O693 O 0.97473 0.01565 0.57002 0.0
C694 C 0.9726 0.0234 0.47797 0.0
C695 C 0.9803 0.93996 0.48936 0.0
C696 C 1.00309 0.91452 0.58157 0.0
O697 O 0.9844 0.93764 0.58207 0.0
O698 O 1.02411 0.91648 0.55948 0.0
C699 C 0.10554 0.9537 0.4859 0.0
O700 O 0.13034 0.06417 0.53566 0.0
O701 O 0.08074 0.04978 0.55999 0.0
C702 C 0.12178 0.97932 0.57083 0.0
C703 C 0.11388 0.06373 0.55977 0.0
Fe704 Fe 0.5415 0.97042 0.02853 0.0
O705 O 0.56869 0.01501 0.0449 0.0
Fe706 Fe 0.46009 0.99374 0.99377 0.0
Fe707 Fe 0.62135 0.02886 0.04946 0.0
O708 O 0.51272 1.00401 0.99973 0.0
O709 O 0.51271 1.0084 0.99867 0.0
O710 O 0.56869 0.01937 0.04384 0.0
Fe711 Fe 0.53958 0.05292 1.0154 0.0
C712 C 0.60346 0.95278 0.08536 0.0
O713 O 0.57446 0.97806 0.99219 0.0
O714 O 0.62715 0.99364 1.02158 0.0
O715 O 0.50327 0.0813 0.98189 0.0
O716 O 0.46427 0.03775 0.95652 0.0
O717 O 0.4676 0.95693 0.96817 0.0
O718 O 0.50805 0.92881 1.00475 0.0
O719 O 0.62639 0.06834 1.00834 0.0
O720 O 0.57281 0.06491 0.97833 0.0
C721 C 0.484 0.93083 0.97874 0.0
O722 O 0.50667 0.04439 0.05182 0.0
O723 O 0.45355 0.02737 1.02327 0.0
O724 O 0.57767 0.94207 0.06254 0.0
O725 O 0.61662 0.98594 0.08756 0.0
C726 C 0.60827 0.98077 0.99723 0.0
C727 C 0.60693 0.07504 0.98111 0.0
C728 C 0.59925 0.09346 0.06334 0.0
O729 O 0.61521 0.06708 0.0738 0.0
O730 O 0.57313 0.09459 0.03903 0.0
C731 C 0.47756 0.07084 0.95897 0.0
O732 O 0.45541 0.95283 0.03383 0.0
O733 O 0.50794 0.95937 0.06539 0.0
C734 C 0.47268 0.04037 0.04754 0.0
C735 C 0.474 0.94779 0.06184 0.0
Fe736 Fe 0.04236 0.5534 1.01299 0.0
O737 O 1.00973 0.50847 1.00179 0.0
Fe738 Fe 0.12191 0.52343 0.04424 0.0
Fe739 Fe 0.95737 0.49975 1.00227 0.0
O740 O 0.06993 0.51861 0.04195 0.0
O741 O 0.06955 0.51406 0.04395 0.0
O742 O 1.00931 0.50375 1.00391 0.0
Fe743 Fe 1.03688 0.46894 0.03315 0.0
C744 C 0.98248 0.55416 0.04897 0.0
O745 O 1.00642 0.58309 0.97945 0.0
O746 O 0.96166 0.53882 0.96094 0.0
O747 O 0.06449 0.46915 0.99455 0.0
O748 O 0.12069 0.48404 1.01792 0.0
O749 O 0.12595 0.5596 1.0012 0.0
O750 O 0.07132 0.5588 0.97363 0.0
O751 O 0.95594 0.45646 0.98127 0.0
O752 O 0.99758 0.4273 1.01507 0.0
C753 C 0.10545 0.56623 0.97468 0.0
O754 O 0.07268 0.43935 0.06669 0.0
O755 O 0.11759 0.48359 0.08508 0.0
O756 O 1.01506 0.55206 0.05155 0.0
O757 O 0.95906 0.5404 0.02753 0.0
C758 C 0.97793 0.57194 0.9592 0.0
C759 C 0.96995 0.42882 0.99246 0.0
C760 C 0.97411 0.45751 0.0721 0.0
O761 O 0.9535 0.46454 0.04578 0.0
O762 O 1.00821 0.4642 0.07276 0.0
C763 C 0.09783 0.46989 0.99627 0.0
O764 O 0.12248 0.56581 0.06623 0.0
O765 O 0.08105 0.59492 0.03207 0.0
C766 C 0.10127 0.45049 0.08678 0.0
C767 C 0.10792 0.59315 0.0555 0.0
Fe768 Fe 0.53044 0.51691 0.98908 0.0
O769 O 0.56456 0.54327 1.02128 0.0
Fe770 Fe 0.47177 0.4568 0.03903 0.0
Fe771 Fe 0.61382 0.56663 1.01402 0.0
O772 O 0.52028 0.47943 0.0284 0.0
O773 O 0.52153 0.47867 0.03144 0.0
O774 O 0.56587 0.54245 0.02423 0.0
Fe775 Fe 0.55615 0.50495 0.06344 0.0
C776 C 0.59919 0.50908 0.97077 0.0
O777 O 0.54627 0.56023 0.95174 0.0
O778 O 0.58776 0.60013 0.97941 0.0
O779 O 0.51827 0.52936 0.07151 0.0
O780 O 0.47137 0.48425 0.07663 0.0
O781 O 0.44808 0.49349 1.0066 0.0
O782 O 0.4913 0.5411 0.99563 0.0
O783 O 0.61402 0.588 0.05542 0.0
O784 O 0.59337 0.53784 0.09222 0.0
C785 C 0.45835 0.52637 0.99588 0.0
O786 O 0.54036 0.46196 0.10093 0.0
O787 O 0.49685 0.4229 0.07408 0.0
O788 O 0.56921 0.4932 0.9807 0.0
O789 O 0.61458 0.54022 0.97611 0.0
C790 C 0.56669 0.59157 0.95342 0.0
C791 C 0.60963 0.57087 0.08506 0.0
C792 C 0.62819 0.4964 0.05384 0.0
O793 O 0.63804 0.52977 0.04532 0.0
O794 O 0.59563 0.48112 0.05662 0.0
C795 C 0.48837 0.51495 0.08194 0.0
O796 O 0.47097 0.43436 0.99827 0.0
O797 O 0.49284 0.48341 0.96062 0.0
C798 C 0.51911 0.43101 0.09954 0.0
C799 C 0.4755 0.45073 0.96843 0.0
Fe800 Fe 1.04033 0.47339 0.52982 0.0
O801 O 0.06315 0.51592 0.55103 0.0
Fe802 Fe 1.01393 0.51404 0.44921 0.0
Fe803 Fe 0.06601 0.51489 0.59834 0.0
O804 O 1.01598 0.50839 0.49754 0.0
O805 O 1.01683 0.51257 0.49657 0.0
O806 O 0.06397 0.52017 0.55005 0.0
Fe807 Fe 1.03915 0.55495 0.51806 0.0
C808 C 1.00096 0.45372 0.58929 0.0
O809 O 0.07143 0.44317 0.5673 0.0
O810 O 0.10248 0.48358 0.60041 0.0
O811 O 0.08185 0.56929 0.48991 0.0
O812 O 0.05021 0.56173 0.4415 0.0
O813 O 0.05485 0.48792 0.45138 0.0
O814 O 0.08261 0.48419 0.50282 0.0
O815 O 0.09907 0.56449 0.59004 0.0
O816 O 0.06663 0.59474 0.54684 0.0
C817 C 0.08156 0.48267 0.47257 0.0
O818 O 1.00754 0.58499 0.4809 0.0
O819 O 0.97691 0.54478 0.44745 0.0
O820 O 0.99755 0.45964 0.55788 0.0
O821 O 1.02927 0.46754 0.60623 0.0
C822 C 0.09679 0.45317 0.59065 0.0
C823 C 0.09081 0.59343 0.57278 0.0
C824 C 0.99826 0.54543 0.57525 0.0
O825 O 1.02575 0.54183 0.59596 0.0
O826 O 0.9968 0.54286 0.54522 0.0
C827 C 0.07868 0.57512 0.45851 0.0
O828 O 0.98125 0.4641 0.45726 0.0
O829 O 1.01261 0.43368 0.50131 0.0
C830 C 0.9821 0.57492 0.45762 0.0
C831 C 0.98886 0.43514 0.4751 0.0
Fe832 Fe 0.53804 0.97172 0.53192 0.0
O833 O 0.56544 0.01464 0.55046 0.0
Fe834 Fe 0.50707 1.01009 0.45235 0.0
Fe835 Fe 0.57288 0.01649 0.59753 0.0
O836 O 0.51416 1.00776 0.5005 0.0
O837 O 0.51466 1.01204 0.49936 0.0
O838 O 0.56596 0.01896 0.54931 0.0
Fe839 Fe 0.54196 0.05495 0.51792 0.0
C840 C 0.50343 0.95867 0.59422 0.0
O841 O 0.56935 0.94015 0.56819 0.0
O842 O 0.60505 0.98098 0.59867 0.0
O843 O 0.58124 0.06482 0.48687 0.0
O844 O 0.54716 0.05397 0.44021 0.0
O845 O 0.54229 0.97781 0.45339 0.0
O846 O 0.57672 0.97822 0.50152 0.0
O847 O 0.60891 0.06299 0.58452 0.0
O848 O 0.57551 0.09466 0.54327 0.0
C849 C 0.57043 0.97199 0.4722 0.0
O850 O 0.51059 0.08654 0.48171 0.0
O851 O 0.47512 0.04574 0.45109 0.0
O852 O 0.4987 0.9622 0.5629 0.0
O853 O 0.53304 0.97236 0.60957 0.0
C854 C 0.59696 0.95003 0.58968 0.0
C855 C 0.60282 0.09226 0.56607 0.0
C856 C 0.50865 0.05317 0.5779 0.0
O857 O 0.5371 0.04829 0.59672 0.0
O858 O 0.5032 0.048 0.54827 0.0
C859 C 0.57652 0.06822 0.45556 0.0
O860 O 0.47088 0.96379 0.46551 0.0
O861 O 0.50446 0.93204 0.50652 0.0
C862 C 0.4831 0.07665 0.46011 0.0
C863 C 0.47726 0.93445 0.4836 0.0
H864 H 0.20718 0.26652 0.34381 0.0
H865 H 0.18998 0.17071 0.30344 0.0
H866 H 0.16142 0.23813 0.37994 0.0
H867 H 0.14488 0.14191 0.33977 0.0
H868 H 0.13392 0.15252 0.47332 0.0
H869 H 0.16074 0.1943 0.42817 0.0
H870 H 0.08851 0.13527 0.3585 0.0
H871 H 0.06276 0.09288 0.40415 0.0
C872 C 0.19323 0.23948 0.34231 0.0
C873 C 0.20233 0.22073 0.32082 0.0
C874 C 0.16704 0.22319 0.36308 0.0
C875 C 0.14959 0.18757 0.36313 0.0
C876 C 0.15724 0.16955 0.34016 0.0
C877 C 0.18324 0.18603 0.31918 0.0
C878 C 0.12272 0.1496 0.44829 0.0
C879 C 0.09614 0.1199 0.44204 0.0
C880 C 0.13815 0.17342 0.42229 0.0
C881 C 0.12726 0.16784 0.38957 0.0
C882 C 0.09808 0.13996 0.38336 0.0
C883 C 0.0829 0.11602 0.40941 0.0
H884 H 0.79085 0.03946 0.33635 0.0
H885 H 0.87723 0.08842 0.27804 0.0
H886 H 0.83328 0.02022 0.38201 0.0
H887 H 0.92003 0.0674 0.32301 0.0
H888 H 0.98525 0.07558 0.42493 0.0
H889 H 0.94598 0.08384 0.37341 0.0
H890 H 0.87382 0.98515 0.40626 0.0
H891 H 0.91164 0.97884 0.45863 0.0
C892 C 0.81893 0.04496 0.33307 0.0
C893 C 0.83103 0.06545 0.30405 0.0
C894 C 0.84334 0.03383 0.35913 0.0
C895 C 0.88027 0.04251 0.35637 0.0
C896 C 0.89194 0.06099 0.32628 0.0
C897 C 0.86753 0.07273 0.30046 0.0
C898 C 0.96098 0.05576 0.42092 0.0
C899 C 0.9509 0.02707 0.4458 0.0
C900 C 0.93864 0.06016 0.39128 0.0
C901 C 0.90639 0.03533 0.38575 0.0
C902 C 0.8978 1.00536 0.41001 0.0
C903 C 0.91951 1.00162 0.43996 0.0
H904 H 0.81114 0.86051 0.34118 0.0
H905 H 0.90754 0.84391 0.31398 0.0
H906 H 0.84662 0.89301 0.38362 0.0
H907 H 0.94321 0.87552 0.3567 0.0
H908 H 1.00058 0.95028 0.42775 0.0
H909 H 0.96551 0.92904 0.37895 0.0
H910 H 0.87833 0.87646 0.43575 0.0
H911 H 0.91285 0.89851 0.48406 0.0
C912 C 0.84006 0.8647 0.34375 0.0
C913 C 0.85671 0.85054 0.32376 0.0
C914 C 0.8604 0.88287 0.36833 0.0
C915 C 0.89785 0.88658 0.37396 0.0
C916 C 0.91455 0.87373 0.35285 0.0
C917 C 0.89415 0.85586 0.32803 0.0
C918 C 0.97394 0.9341 0.42982 0.0
C919 C 0.95963 0.92594 0.45992 0.0
C920 C 0.95381 0.92192 0.4018 0.0
C921 C 0.91894 0.90114 0.40323 0.0
C922 C 0.90474 0.89301 0.43341 0.0
C923 C 0.92474 0.90533 0.46131 0.0
H924 H 0.13096 0.8254 0.34418 0.0
H925 H 0.19502 0.93134 0.32492 0.0
H926 H 0.11674 0.83799 0.39518 0.0
H927 H 0.1807 0.9441 0.37502 0.0
H928 H 0.17274 0.9561 0.47484 0.0
H929 H 0.19086 0.92993 0.43407 0.0
H930 H 0.08125 0.87593 0.41133 0.0
H931 H 0.06333 0.9016 0.45326 0.0
C932 C 0.14239 0.85115 0.35111 0.0
C933 C 0.16398 0.87745 0.33054 0.0
C934 C 0.13401 0.85846 0.38012 0.0
C935 C 0.14759 0.89204 0.38931 0.0
C936 C 0.17013 0.91779 0.3691 0.0
C937 C 0.17815 0.91061 0.34017 0.0
C938 C 0.15267 0.93785 0.46176 0.0
C939 C 0.11664 0.93096 0.46709 0.0
C940 C 0.16298 0.92307 0.43818 0.0
C941 C 0.13742 0.90145 0.41882 0.0
C942 C 0.10166 0.89239 0.42584 0.0
C943 C 0.09136 0.90699 0.44988 0.0
H944 H 0.29574 0.97279 0.72556 0.0
H945 H 0.20337 0.94102 0.77813 0.0
H946 H 0.25789 0.98769 0.67453 0.0
H947 H 0.16521 0.95773 0.72746 0.0
H948 H 0.10664 0.9334 0.62734 0.0
H949 H 0.14322 0.93106 0.68068 0.0
H950 H 0.22031 0.02237 0.64086 0.0
H951 H 0.18493 0.02287 0.58715 0.0
C952 C 0.26743 0.97054 0.72623 0.0
C953 C 0.2522 0.9561 0.75536 0.0
C954 C 0.24567 0.97904 0.69708 0.0
C955 C 0.20836 0.97347 0.69679 0.0
C956 C 0.19369 0.96156 0.7267 0.0
C957 C 0.21545 0.95251 0.75573 0.0
C958 C 0.13151 0.95279 0.63011 0.0
C959 C 0.1434 0.97783 0.60315 0.0
C960 C 0.15225 0.95185 0.66074 0.0
C961 C 0.18479 0.97659 0.6651 0.0
C962 C 0.19585 1.00247 0.63824 0.0
C963 C 0.1756 1.00277 0.60748 0.0
H964 H 0.24871 0.21936 0.66551 0.0
H965 H 0.20578 0.14245 0.74613 0.0
H966 H 0.21668 0.18143 0.62722 0.0
H967 H 0.17256 0.10396 0.70691 0.0
H968 H 0.0885 0.0722 0.61486 0.0
H969 H 0.12171 0.10358 0.65913 0.0
H970 H 0.218 0.12473 0.6128 0.0
H971 H 0.18511 0.09417 0.56858 0.0
C972 C 0.2324 0.19439 0.6753 0.0
C973 C 0.22952 0.18456 0.70918 0.0
C974 C 0.21404 0.17237 0.65311 0.0
C975 C 0.19203 0.13959 0.66391 0.0
C976 C 0.18903 0.1293 0.69777 0.0
C977 C 0.20791 0.15143 0.72024 0.0
C978 C 0.1168 0.08343 0.6142 0.0
C979 C 0.13394 0.08111 0.58776 0.0
C980 C 0.13586 0.10115 0.63973 0.0
C981 C 0.17241 0.11697 0.63932 0.0
C982 C 0.18973 0.1134 0.61357 0.0
C983 C 0.17079 0.09583 0.58816 0.0
H984 H 0.8652 0.14354 0.6637 0.0
H985 H 0.96275 0.13119 0.72743 0.0
H986 H 0.88934 0.1301 0.61855 0.0
H987 H 0.9865 0.11683 0.68245 0.0
H988 H 1.02706 0.10664 0.58942 0.0
H989 H 1.00666 0.13729 0.62617 0.0
H990 H 0.9 0.07345 0.61062 0.0
H991 H 0.92029 0.04322 0.57444 0.0
C992 C 0.89204 0.13856 0.66795 0.0
C993 C 0.91186 0.13802 0.69932 0.0
C994 C 0.90578 0.13064 0.64211 0.0
C995 C 0.93974 0.12212 0.64696 0.0
C996 C 0.96037 0.1235 0.67781 0.0
C997 C 0.94655 0.13126 0.70372 0.0
C998 C 0.99912 0.09996 0.59332 0.0
C999 C 0.97523 0.07256 0.57922 0.0
C1000 C 0.9875 0.11721 0.61451 0.0
C1001 C 0.9517 0.10775 0.62137 0.0
C1002 C 0.92759 0.08173 0.60564 0.0
C1003 C 0.93926 0.06424 0.58503 0.0
H1004 H 0.87139 0.74917 0.70341 0.0
H1005 H 0.89572 0.84759 0.74053 0.0
H1006 H 0.91969 0.77178 0.66914 0.0
H1007 H 0.94358 0.87074 0.70595 0.0
H1008 H 1.03052 0.90939 0.64555 0.0
H1009 H 1.00011 0.87071 0.69054 0.0
H1010 H 0.92656 0.81385 0.62013 0.0
H1011 H 0.95786 0.85187 0.57571 0.0
C1012 C 0.8873 0.7756 0.70447 0.0
C1013 C 0.87952 0.79677 0.72452 0.0
C1014 C 0.91503 0.78858 0.68481 0.0
C1015 C 0.93549 0.82325 0.6844 0.0
C1016 C 0.92889 0.84369 0.70589 0.0
C1017 C 0.90131 0.8305 0.72581 0.0
C1018 C 1.00916 0.88723 0.64007 0.0
C1019 C 0.9968 0.88315 0.60732 0.0
C1020 C 0.99122 0.86552 0.66573 0.0
C1021 C 0.96026 0.83966 0.65901 0.0
C1022 C 0.95037 0.83326 0.62644 0.0
C1023 C 0.9685 0.85484 0.60086 0.0
H1024 H 0.39138 0.17569 0.14495 0.0
H1025 H 0.3175 0.07472 0.16017 0.0
H1026 H 0.43037 0.14881 0.12165 0.0
H1027 H 0.35656 0.04759 0.138 0.0
H1028 H 0.40108 0.02634 0.05157 0.0
H1029 H 0.36936 0.05024 0.08394 0.0
H1030 H 0.46983 0.10703 0.12755 0.0
H1031 H 0.50197 0.08343 0.09416 0.0
C1032 C 0.38398 0.14757 0.14411 0.0
C1033 C 0.35119 0.1274 0.154 0.0
C1034 C 0.40631 0.1321 0.13078 0.0
C1035 C 0.39636 0.09609 0.12728 0.0
C1036 C 0.36471 0.07557 0.13938 0.0
C1037 C 0.34237 0.09104 0.15233 0.0
C1038 C 0.41663 0.04373 0.06817 0.0
C1039 C 0.4542 0.05296 0.07006 0.0
C1040 C 0.39834 0.05728 0.08707 0.0
C1041 C 0.41689 0.08053 0.10864 0.0
C1042 C 0.45458 0.08941 0.11106 0.0
C1043 C 0.47304 0.07564 0.0921 0.0
H1044 H 0.87934 0.33304 0.25269 0.0
H1045 H 0.79788 0.33302 0.16913 0.0
H1046 H 0.92397 0.3702 0.21718 0.0
H1047 H 0.84149 0.37035 0.13408 0.0
H1048 H 0.91211 0.46735 0.08677 0.0
H1049 H 0.87519 0.43223 0.12836 0.0
H1050 H 0.95614 0.37098 0.1668 0.0
H1051 H 0.99383 0.40689 0.12466 0.0
C1052 C 0.8711 0.34068 0.22671 0.0
C1053 C 0.8351 0.33009 0.21361 0.0
C1054 C 0.89657 0.36207 0.20639 0.0
C1055 C 0.88637 0.37375 0.17272 0.0
C1056 C 0.85037 0.36258 0.15991 0.0
C1057 C 0.82524 0.34117 0.18 0.0
C1058 C 0.92247 0.44673 0.10429 0.0
C1059 C 0.95593 0.43983 0.10199 0.0
C1060 C 0.90108 0.42637 0.12812 0.0
C1061 C 0.91217 0.39813 0.1506 0.0
C1062 C 0.94667 0.39247 0.14986 0.0
C1063 C 0.96835 0.41312 0.12577 0.0
H1064 H 0.68979 0.77206 0.20477 0.0
H1065 H 0.76826 0.86412 0.22776 0.0
H1066 H 0.6549 0.80949 0.1658 0.0
H1067 H 0.73381 0.90227 0.1876 0.0
H1068 H 0.64424 0.9623 0.14424 0.0
H1069 H 0.68132 0.92466 0.17979 0.0
H1070 H 0.64566 0.84686 0.11555 0.0
H1071 H 0.60762 0.88457 0.08014 0.0
C1072 C 0.70011 0.80047 0.20077 0.0
C1073 C 0.73232 0.81491 0.21897 0.0
C1074 C 0.68 0.82212 0.1782 0.0
C1075 C 0.69097 0.85933 0.17314 0.0
C1076 C 0.72383 0.87386 0.1909 0.0
C1077 C 0.7441 0.852 0.21364 0.0
C1078 C 0.64389 0.937 0.13767 0.0
C1079 C 0.6224 0.92667 0.10909 0.0
C1080 C 0.66577 0.91543 0.15806 0.0
C1081 C 0.66736 0.88251 0.15079 0.0
C1082 C 0.64528 0.87174 0.12251 0.0
C1083 C 0.62314 0.89339 0.10208 0.0
H1084 H 0.19217 0.7574 0.18192 0.0
H1085 H 0.24738 0.67059 0.20905 0.0
H1086 H 0.15677 0.72992 0.13572 0.0
H1087 H 0.21269 0.64384 0.16311 0.0
H1088 H 0.17782 0.62425 0.06091 0.0
H1089 H 0.20984 0.66261 0.10004 0.0
H1090 H 0.10938 0.66859 0.12787 0.0
H1091 H 0.07726 0.62962 0.08867 0.0
C1092 C 0.19675 0.73254 0.17807 0.0
C1093 C 0.2226 0.71618 0.1992 0.0
C1094 C 0.17644 0.71683 0.15171 0.0
C1095 C 0.18226 0.68496 0.14562 0.0
C1096 C 0.20793 0.66865 0.1669 0.0
C1097 C 0.22765 0.6839 0.19341 0.0
C1098 C 0.1625 0.63473 0.07457 0.0
C1099 C 0.12501 0.62423 0.0715 0.0
C1100 C 0.18084 0.65644 0.09715 0.0
C1101 C 0.16214 0.66817 0.11733 0.0
C1102 C 0.12446 0.66007 0.1125 0.0
C1103 C 0.106 0.63806 0.08982 0.0
H1104 H 0.32322 0.78515 0.88362 0.0
H1105 H 0.40834 0.79906 0.82427 0.0
H1106 H 0.36473 0.81744 0.92317 0.0
H1107 H 0.44992 0.8317 0.86393 0.0
H1108 H 0.45237 0.8615 0.99974 0.0
H1109 H 0.41998 0.81796 0.96474 0.0
H1110 H 0.45507 0.89143 0.87899 0.0
H1111 H 0.48674 0.93472 0.91387 0.0
C1112 C 0.35094 0.79455 0.87924 0.0
C1113 C 0.36228 0.78951 0.85057 0.0
C1114 C 0.37485 0.81298 0.90209 0.0
C1115 C 0.41075 0.82734 0.89681 0.0
C1116 C 0.42243 0.82123 0.86872 0.0
C1117 C 0.39859 0.80232 0.84604 0.0
C1118 C 0.4541 0.86774 0.97355 0.0
C1119 C 0.47251 0.9013 0.95958 0.0
C1120 C 0.43519 0.84303 0.95341 0.0
C1121 C 0.43474 0.85117 0.91893 0.0
C1122 C 0.45504 0.88399 0.90536 0.0
C1123 C 0.4733 0.90883 0.92537 0.0
H1124 H 0.239 0.36248 0.93904 0.0
H1125 H 0.14153 0.32519 0.8782 0.0
H1126 H 0.21049 0.40247 0.95701 0.0
H1127 H 0.11296 0.3669 0.89508 0.0
H1128 H 0.06301 0.41083 0.96915 0.0
H1129 H 0.089 0.37603 0.94093 0.0
H1130 H 0.18854 0.45389 0.94478 0.0
H1131 H 0.16306 0.4873 0.97421 0.0
C1132 C 0.2115 0.36321 0.92906 0.0
C1133 C 0.19253 0.3402 0.90741 0.0
C1134 C 0.19511 0.3866 0.93913 0.0
C1135 C 0.15914 0.38821 0.92768 0.0
C1136 C 0.1405 0.36622 0.90488 0.0
C1137 C 0.15702 0.34259 0.8948 0.0
C1138 C 0.09024 0.42069 0.96346 0.0
C1139 C 0.11104 0.45165 0.97428 0.0
C1140 C 0.10523 0.40076 0.94717 0.0
C1141 C 0.1413 0.41156 0.94095 0.0
C1142 C 0.16114 0.44387 0.94993 0.0
C1143 C 0.14639 0.46334 0.96662 0.0
H1144 H 0.66949 0.19564 0.78989 0.0
H1145 H 0.76356 0.21977 0.85902 0.0
H1146 H 0.63866 0.15489 0.83339 0.0
H1147 H 0.73253 0.17989 0.90321 0.0
H1148 H 0.67775 0.08598 0.97314 0.0
H1149 H 0.7092 0.1223 0.92815 0.0
H1150 H 0.61025 0.15066 0.87909 0.0
H1151 H 0.57854 0.11293 0.92369 0.0
C1152 C 0.68364 0.19204 0.81451 0.0
C1153 C 0.71923 0.21042 0.82079 0.0
C1154 C 0.6658 0.16888 0.83969 0.0
C1155 C 0.68265 0.16384 0.87233 0.0
C1156 C 0.7185 0.18233 0.87853 0.0
C1157 C 0.73649 0.20533 0.85314 0.0
C1158 C 0.66256 0.09984 0.9527 0.0
C1159 C 0.62542 0.09641 0.95231 0.0
C1160 C 0.6808 0.12106 0.92682 0.0
C1161 C 0.66272 0.14006 0.89965 0.0
C1162 C 0.62539 0.13626 0.8991 0.0
C1163 C 0.60703 0.11463 0.92488 0.0
H1164 H 0.87959 0.7355 0.81261 0.0
H1165 H 0.79718 0.64495 0.84214 0.0
H1166 H 0.92462 0.70764 0.85116 0.0
H1167 H 0.84166 0.61698 0.8795 0.0
H1168 H 0.93079 0.55649 0.90537 0.0
H1169 H 0.89271 0.59216 0.86888 0.0
H1170 H 0.94342 0.6818 0.91642 0.0
H1171 H 0.98199 0.64526 0.95428 0.0
C1172 C 0.87091 0.71004 0.82772 0.0
C1173 C 0.83438 0.69289 0.82463 0.0
C1174 C 0.8968 0.69394 0.84977 0.0
C1175 C 0.88707 0.65978 0.86859 0.0
C1176 C 0.85051 0.64307 0.86546 0.0
C1177 C 0.82483 0.65923 0.84397 0.0
C1178 C 0.93441 0.58385 0.90829 0.0
C1179 C 0.95973 0.59747 0.93348 0.0
C1180 C 0.91219 0.60443 0.88715 0.0
C1181 C 0.91426 0.6399 0.88973 0.0
C1182 C 0.94089 0.65457 0.91358 0.0
C1183 C 0.96319 0.6336 0.93528 0.0
H1184 H 0.20073 0.28651 0.23169 0.0
H1185 H 0.28243 0.37781 0.20227 0.0
H1186 H 0.15525 0.31432 0.19368 0.0
H1187 H 0.23756 0.40567 0.16546 0.0
H1188 H 0.14818 0.46559 0.14083 0.0
H1189 H 0.1864 0.4298 0.177 0.0
H1190 H 0.13611 0.34073 0.12855 0.0
H1191 H 0.09738 0.37735 0.09108 0.0
C1192 C 0.20915 0.31214 0.21674 0.0
C1193 C 0.24558 0.32955 0.21972 0.0
C1194 C 0.18301 0.3282 0.195 0.0
C1195 C 0.19246 0.36252 0.1764 0.0
C1196 C 0.22894 0.37945 0.17938 0.0
C1197 C 0.25484 0.36336 0.20054 0.0
C1198 C 0.14467 0.43832 0.13768 0.0
C1199 C 0.11946 0.42488 0.11235 0.0
C1200 C 0.16696 0.41768 0.15862 0.0
C1201 C 0.16506 0.38235 0.15564 0.0
C1202 C 0.1385 0.36784 0.13168 0.0
C1203 C 0.11612 0.38886 0.11021 0.0
H1204 H 0.19583 0.69573 0.79465 0.0
H1205 H 0.28229 0.68369 0.87234 0.0
H1206 H 0.15263 0.65881 0.83149 0.0
H1207 H 0.23981 0.64797 0.90923 0.0
H1208 H 0.08649 0.61846 0.92375 0.0
H1209 H 0.12396 0.65458 0.88167 0.0
H1210 H 0.20301 0.59036 0.91699 0.0
H1211 H 0.16653 0.5556 0.95897 0.0
C1212 C 0.20544 0.68579 0.81982 0.0
C1213 C 0.24231 0.69345 0.83102 0.0
C1214 C 0.18076 0.66453 0.84092 0.0
C1215 C 0.19252 0.65004 0.87349 0.0
C1216 C 0.22953 0.65801 0.88432 0.0
C1217 C 0.25399 0.67891 0.86331 0.0
C1218 C 0.11157 0.61177 0.922 0.0
C1219 C 0.1236 0.58428 0.94497 0.0
C1220 C 0.13315 0.63252 0.89794 0.0
C1221 C 0.1671 0.62607 0.89626 0.0
C1222 C 0.17773 0.59707 0.91799 0.0
C1223 C 0.15653 0.57677 0.94198 0.0
H1224 H 0.39294 0.25443 0.84285 0.0
H1225 H 0.31826 0.16363 0.81224 0.0
H1226 H 0.42764 0.21595 0.88066 0.0
H1227 H 0.35216 0.12431 0.85141 0.0
H1228 H 0.43917 0.06284 0.89874 0.0
H1229 H 0.40372 0.10153 0.86233 0.0
H1230 H 0.43598 0.177 0.92906 0.0
H1231 H 0.47266 0.13845 0.96503 0.0
C1232 C 0.38344 0.22599 0.84482 0.0
C1233 C 0.35221 0.21224 0.82501 0.0
C1234 C 0.4034 0.20369 0.86679 0.0
C1235 C 0.39321 0.1665 0.86971 0.0
C1236 C 0.36159 0.15266 0.84991 0.0
C1237 C 0.34157 0.17518 0.82771 0.0
C1238 C 0.43912 0.08788 0.90562 0.0
C1239 C 0.4593 0.09735 0.93504 0.0
C1240 C 0.41817 0.11009 0.88472 0.0
C1241 C 0.41612 0.14272 0.89238 0.0
C1242 C 0.43683 0.1525 0.92163 0.0
C1243 C 0.45814 0.13032 0.94247 0.0
H1244 H 0.86107 0.25431 0.88216 0.0
H1245 H 0.83974 0.35698 0.83571 0.0
H1246 H 0.89908 0.28118 0.92743 0.0
H1247 H 0.87619 0.38294 0.88131 0.0
H1248 H 0.89897 0.40334 0.98585 0.0
H1249 H 0.86486 0.36349 0.94884 0.0
H1250 H 0.96294 0.34355 0.92819 0.0
H1251 H 0.99757 0.38416 0.96545 0.0
C1252 C 0.86473 0.28252 0.88129 0.0
C1253 C 0.84772 0.30347 0.85483 0.0
C1254 C 0.88638 0.29779 0.90729 0.0
C1255 C 0.89061 0.33409 0.90763 0.0
C1256 C 0.87336 0.35487 0.88151 0.0
C1257 C 0.85238 0.33986 0.8554 0.0
C1258 C 0.91329 0.38959 0.97426 0.0
C1259 C 0.95091 0.39699 0.97831 0.0
C1260 C 0.89374 0.36687 0.95307 0.0
C1261 C 0.91133 0.35083 0.93553 0.0
C1262 C 0.94885 0.35557 0.94166 0.0
C1263 C 0.96862 0.37862 0.96301 0.0
H1264 H 0.75151 0.86701 0.95414 0.0
H1265 H 0.70208 0.89976 0.85594 0.0
H1266 H 0.71175 0.89285 0.97668 0.0
H1267 H 0.66155 0.92544 0.87887 0.0
H1268 H 0.57896 0.93962 0.9488 0.0
H1269 H 0.61119 0.91027 0.9202 0.0
H1270 H 0.71139 0.95874 0.97081 0.0
H1271 H 0.68002 0.98797 0.99875 0.0
C1272 C 0.73195 0.87953 0.93733 0.0
C1273 C 0.73054 0.88196 0.90316 0.0
C1274 C 0.7091 0.89428 0.95028 0.0
C1275 C 0.68395 0.91174 0.92952 0.0
C1276 C 0.68071 0.91218 0.89546 0.0
C1277 C 0.70387 0.89745 0.88237 0.0
C1278 C 0.6079 0.94435 0.95342 0.0
C1279 C 0.62676 0.96586 0.97648 0.0
C1280 C 0.6263 0.92753 0.93707 0.0
C1281 C 0.66376 0.93169 0.94376 0.0
C1282 C 0.68249 0.95439 0.96564 0.0
C1283 C 0.66436 0.97127 0.98162 0.0
H1284 H 0.86873 0.68144 0.12536 0.0
H1285 H 0.97989 0.71975 0.15883 0.0
H1286 H 0.88489 0.63618 0.10193 0.0
H1287 H 0.9962 0.67352 0.13737 0.0
H1288 H 1.0201 0.6184 0.06086 0.0
H1289 H 1.00337 0.6594 0.08869 0.0
H1290 H 0.90475 0.5838 0.10754 0.0
H1291 H 0.92154 0.54343 0.0783 0.0
C1292 C 0.89657 0.67963 0.12827 0.0
C1293 C 0.92308 0.70427 0.14364 0.0
C1294 C 0.90595 0.65356 0.11497 0.0
C1295 C 0.94206 0.65112 0.11722 0.0
C1296 C 0.96826 0.67495 0.13409 0.0
C1297 C 0.95893 0.70135 0.14674 0.0
C1298 C 0.99532 0.61028 0.07172 0.0
C1299 C 0.97259 0.57746 0.06811 0.0
C1300 C 0.98551 0.63384 0.08769 0.0
C1301 C 0.95269 0.62512 0.10092 0.0
C1302 C 0.93001 0.59191 0.09745 0.0
C1303 C 0.93969 0.56854 0.08093 0.0
H1304 H 0.33148 0.78705 0.18511 0.0
H1305 H 0.38913 0.85655 0.25227 0.0
H1306 H 0.36444 0.82426 0.14098 0.0
H1307 H 0.42213 0.89439 0.20803 0.0
H1308 H 0.50077 0.931 0.1277 0.0
H1309 H 0.46801 0.89562 0.17303 0.0
H1310 H 0.37049 0.88163 0.10586 0.0
H1311 H 0.40283 0.91627 0.06097 0.0
C1312 C 0.35071 0.81079 0.19022 0.0
C1313 C 0.35673 0.8196 0.22187 0.0
C1314 C 0.36976 0.83219 0.16492 0.0
C1315 C 0.396 0.86272 0.17062 0.0
C1316 C 0.40236 0.87114 0.20256 0.0
C1317 C 0.38315 0.84972 0.22786 0.0
C1318 C 0.47236 0.92036 0.1226 0.0
C1319 C 0.45476 0.92656 0.09035 0.0
C1320 C 0.45344 0.90019 0.1487 0.0
C1321 C 0.41643 0.88536 0.14329 0.0
C1322 C 0.39896 0.89191 0.11111 0.0
C1323 C 0.41768 0.91211 0.08522 0.0
H1324 H 0.75536 0.25144 0.15907 0.0
H1325 H 0.67156 0.21351 0.22183 0.0
H1326 H 0.71722 0.22248 0.11587 0.0
H1327 H 0.63366 0.18261 0.1791 0.0
H1328 H 0.56737 0.13494 0.09111 0.0
H1329 H 0.59866 0.1792 0.12602 0.0
H1330 H 0.7002 0.16434 0.10765 0.0
H1331 H 0.6693 0.12199 0.07271 0.0
C1332 C 0.72865 0.23693 0.16359 0.0
C1333 C 0.71677 0.23433 0.19409 0.0
C1334 C 0.70671 0.22003 0.13883 0.0
C1335 C 0.67244 0.19918 0.14403 0.0
C1336 C 0.65972 0.19837 0.17394 0.0
C1337 C 0.68155 0.21597 0.19858 0.0
C1338 C 0.59634 0.14218 0.09386 0.0
C1339 C 0.61587 0.12513 0.07903 0.0
C1340 C 0.61436 0.16714 0.11422 0.0
C1341 C 0.65221 0.17564 0.1199 0.0
C1342 C 0.67125 0.15944 0.10367 0.0
C1343 C 0.65343 0.13479 0.08363 0.0
H1344 H 0.69751 0.6556 0.80915 0.0
H1345 H 0.68477 0.75855 0.81875 0.0
H1346 H 0.64715 0.62741 0.83969 0.0
H1347 H 0.6334 0.73061 0.84905 0.0
H1348 H 0.5944 0.66263 0.94686 0.0
H1349 H 0.6257 0.69837 0.90197 0.0
H1350 H 0.58507 0.61453 0.84446 0.0
H1351 H 0.55495 0.57792 0.89034 0.0
C1352 C 0.683 0.67218 0.81686 0.0
C1353 C 0.69451 0.7091 0.8113 0.0
C1354 C 0.654 0.65609 0.83437 0.0
C1355 C 0.63581 0.67666 0.84673 0.0
C1356 C 0.64687 0.71388 0.84018 0.0
C1357 C 0.6762 0.72992 0.82287 0.0
C1358 C 0.59121 0.65216 0.92428 0.0
C1359 C 0.57304 0.61701 0.92257 0.0
C1360 C 0.60912 0.67282 0.89832 0.0
C1361 C 0.60892 0.65896 0.86987 0.0
C1362 C 0.58674 0.62559 0.86647 0.0
C1363 C 0.56898 0.60475 0.89262 0.0
H1364 H 0.36549 0.60063 0.81305 0.0
H1365 H 0.27148 0.57662 0.8631 0.0
H1366 H 0.40263 0.59136 0.86543 0.0
H1367 H 0.30887 0.56781 0.91617 0.0
H1368 H 0.38584 0.50314 0.98982 0.0
H1369 H 0.34339 0.52521 0.94597 0.0
H1370 H 0.42594 0.61564 0.91501 0.0
H1371 H 0.46907 0.59275 0.9582 0.0
C1372 C 0.35287 0.59334 0.83543 0.0
C1373 C 0.31572 0.58886 0.8342 0.0
C1374 C 0.37415 0.5886 0.86547 0.0
C1375 C 0.35876 0.57944 0.89502 0.0
C1376 C 0.32145 0.57481 0.89379 0.0
C1377 C 0.30005 0.57945 0.86354 0.0
C1378 C 0.39485 0.52819 0.97418 0.0
C1379 C 0.43115 0.54553 0.97672 0.0
C1380 C 0.37034 0.54099 0.94914 0.0
C1381 C 0.38163 0.57156 0.92642 0.0
C1382 C 0.41681 0.59135 0.9316 0.0
C1383 C 0.44145 0.57839 0.95651 0.0
H1384 H 0.36476 0.37049 0.78914 0.0
H1385 H 0.31732 0.30142 0.87176 0.0
H1386 H 0.40579 0.40603 0.82653 0.0
H1387 H 0.35672 0.3377 0.90875 0.0
H1388 H 0.4569 0.37931 0.97084 0.0
H1389 H 0.41888 0.34707 0.92975 0.0
H1390 H 0.41157 0.44613 0.86472 0.0
H1391 H 0.45073 0.47848 0.9057 0.0
C1392 C 0.36331 0.36262 0.81521 0.0
C1393 C 0.33925 0.33177 0.82747 0.0
C1394 C 0.38643 0.38336 0.83665 0.0
C1395 C 0.38539 0.37404 0.87079 0.0
C1396 C 0.35933 0.3448 0.88273 0.0
C1397 C 0.33657 0.32399 0.86139 0.0
C1398 C 0.44752 0.39423 0.94764 0.0
C1399 C 0.4566 0.43143 0.94161 0.0
C1400 C 0.42545 0.37576 0.92416 0.0
C1401 C 0.41149 0.39403 0.89421 0.0
C1402 C 0.4219 0.43123 0.8875 0.0
C1403 C 0.44438 0.44977 0.91096 0.0
H1404 H 0.66125 0.37161 0.85887 0.0
H1405 H 0.70883 0.47941 0.81886 0.0
H1406 H 0.63976 0.39299 0.90125 0.0
H1407 H 0.68615 0.50081 0.86004 0.0
H1408 H 0.66689 0.52926 0.95309 0.0
H1409 H 0.69309 0.50355 0.91724 0.0
H1410 H 0.5951 0.42477 0.90603 0.0
H1411 H 0.56915 0.44996 0.94265 0.0
C1412 C 0.66735 0.39982 0.85925 0.0
C1413 C 0.68659 0.42379 0.83532 0.0
C1414 C 0.65467 0.41212 0.88331 0.0
C1415 C 0.66107 0.44867 0.88406 0.0
C1416 C 0.68102 0.47248 0.86054 0.0
C1417 C 0.69366 0.46022 0.83659 0.0
C1418 C 0.65095 0.50633 0.94314 0.0
C1419 C 0.61577 0.49191 0.95055 0.0
C1420 C 0.66595 0.49165 0.92244 0.0
C1421 C 0.64613 0.46227 0.90841 0.0
C1422 C 0.61131 0.44716 0.91662 0.0
C1423 C 0.59634 0.46175 0.9375 0.0
H1424 H 0.81237 0.48307 0.17609 0.0
H1425 H 0.76555 0.37153 0.18096 0.0
H1426 H 0.77262 0.49598 0.12556 0.0
H1427 H 0.72717 0.38401 0.13005 0.0
H1428 H 0.62483 0.43363 0.09665 0.0
H1429 H 0.67571 0.41025 0.1269 0.0
H1430 H 0.74723 0.49091 0.06829 0.0
H1431 H 0.69623 0.51452 0.03815 0.0
C1432 C 0.79477 0.46125 0.16558 0.0
C1433 C 0.79161 0.4264 0.18264 0.0
C1434 C 0.77208 0.46853 0.13657 0.0
C1435 C 0.74628 0.44095 0.12425 0.0
C1436 C 0.74628 0.40581 0.1393 0.0
C1437 C 0.76851 0.39866 0.16835 0.0
C1438 C 0.65123 0.44562 0.08949 0.0
C1439 C 0.65672 0.47641 0.06575 0.0
C1440 C 0.68047 0.43218 0.10672 0.0
C1441 C 0.71557 0.44924 0.1003 0.0
C1442 C 0.72058 0.47772 0.07414 0.0
C1443 C 0.69137 0.49116 0.05696 0.0
H1444 H 0.7147 0.65284 0.26664 0.0
H1445 H 0.76473 0.71606 0.1828 0.0
H1446 H 0.67275 0.61635 0.22993 0.0
H1447 H 0.72481 0.67926 0.1472 0.0
H1448 H 0.62647 0.6421 0.08404 0.0
H1449 H 0.66166 0.67364 0.12684 0.0
H1450 H 0.66797 0.57399 0.19111 0.0
H1451 H 0.63162 0.54221 0.14837 0.0
C1452 C 0.71666 0.65914 0.24059 0.0
C1453 C 0.74182 0.68866 0.22762 0.0
C1454 C 0.69297 0.63801 0.21962 0.0
C1455 C 0.69461 0.64587 0.18548 0.0
C1456 C 0.72177 0.67345 0.17315 0.0
C1457 C 0.74494 0.6945 0.19382 0.0
C1458 C 0.63498 0.62688 0.10739 0.0
C1459 C 0.6268 0.58971 0.11261 0.0
C1460 C 0.65525 0.64492 0.13191 0.0
C1461 C 0.66832 0.62624 0.16205 0.0
C1462 C 0.65832 0.58907 0.16812 0.0
C1463 C 0.6376 0.57093 0.14361 0.0
H1464 H 0.46942 0.63754 0.22525 0.0
H1465 H 0.36979 0.63545 0.16105 0.0
H1466 H 0.48498 0.59655 0.19639 0.0
H1467 H 0.38544 0.5941 0.132 0.0
H1468 H 0.42138 0.50009 0.10249 0.0
H1469 H 0.39957 0.53299 0.13614 0.0
H1470 H 0.50191 0.60638 0.14027 0.0
H1471 H 0.52362 0.57397 0.10725 0.0
C1472 C 0.45068 0.62806 0.20511 0.0
C1473 C 0.41866 0.64021 0.19506 0.0
C1474 C 0.4596 0.60458 0.18857 0.0
C1475 C 0.43673 0.59258 0.16154 0.0
C1476 C 0.40358 0.60284 0.15277 0.0
C1477 C 0.39461 0.62648 0.1694 0.0
C1478 C 0.43917 0.52321 0.11068 0.0
C1479 C 0.47426 0.53431 0.10214 0.0
C1480 C 0.42664 0.54209 0.12982 0.0
C1481 C 0.44913 0.57207 0.14113 0.0
C1482 C 0.48408 0.58305 0.13248 0.0
C1483 C 0.49644 0.56454 0.11324 0.0
H1484 H 0.39947 0.26436 0.23214 0.0
H1485 H 0.38376 0.36784 0.23646 0.0
H1486 H 0.45275 0.29185 0.20424 0.0
H1487 H 0.4362 0.3955 0.20862 0.0
H1488 H 0.49361 0.35968 0.10611 0.0
H1489 H 0.46187 0.32355 0.15065 0.0
H1490 H 0.49964 0.4079 0.20787 0.0
H1491 H 0.53038 0.44475 0.16244 0.0
C1492 C 0.40781 0.293 0.22744 0.0
C1493 C 0.38811 0.31414 0.23678 0.0
C1494 C 0.43824 0.30876 0.21158 0.0
C1495 C 0.44911 0.34595 0.20443 0.0
C1496 C 0.42949 0.36684 0.21457 0.0
C1497 C 0.3993 0.35106 0.23052 0.0
C1498 C 0.49621 0.37009 0.12864 0.0
C1499 C 0.51357 0.40544 0.13036 0.0
C1500 C 0.47806 0.34925 0.15436 0.0
C1501 C 0.47717 0.36326 0.18246 0.0
C1502 C 0.49889 0.39675 0.18608 0.0
C1503 C 0.51696 0.41773 0.16021 0.0
H1504 H 0.82213 0.64282 0.58351 0.0
H1505 H 0.84804 0.59513 0.68435 0.0
H1506 H 0.86743 0.61864 0.56692 0.0
H1507 H 0.89265 0.56991 0.66779 0.0
H1508 H 0.99737 0.56719 0.63295 0.0
H1509 H 0.94984 0.58753 0.64969 0.0
H1510 H 0.88283 0.5661 0.55959 0.0
H1511 H 0.93111 0.5469 0.54222 0.0
C1512 C 0.83724 0.62673 0.60205 0.0
C1513 C 0.83167 0.62095 0.63523 0.0
C1514 C 0.86311 0.61271 0.59255 0.0
C1515 C 0.88381 0.59227 0.61598 0.0
C1516 C 0.87773 0.58605 0.64913 0.0
C1517 C 0.85212 0.6004 0.65866 0.0
C1518 C 0.97243 0.56655 0.61675 0.0
C1519 C 0.96814 0.55548 0.58617 0.0
C1520 C 0.945 0.57807 0.62647 0.0
C1521 C 0.91238 0.57852 0.60604 0.0
C1522 C 0.90778 0.5667 0.57573 0.0
C1523 C 0.9354 0.55545 0.56585 0.0
H1524 H 0.38323 0.82827 0.75286 0.0
H1525 H 0.30128 0.84987 0.67331 0.0
H1526 H 0.42943 0.86055 0.71786 0.0
H1527 H 0.34712 0.8829 0.63823 0.0
H1528 H 0.43905 0.91569 0.57398 0.0
H1529 H 0.39311 0.87992 0.60789 0.0
H1530 H 0.45582 0.91832 0.69366 0.0
H1531 H 0.50174 0.95298 0.66023 0.0
C1532 C 0.37519 0.83951 0.72765 0.0
C1533 C 0.33876 0.83547 0.71537 0.0
C1534 C 0.40162 0.85856 0.70764 0.0
C1535 C 0.39229 0.87445 0.67489 0.0
C1536 C 0.3556 0.87053 0.66291 0.0
C1537 C 0.32925 0.85167 0.68302 0.0
C1538 C 0.443 0.9165 0.60007 0.0
C1539 C 0.47436 0.9373 0.61419 0.0
C1540 C 0.41653 0.89603 0.61959 0.0
C1541 C 0.42056 0.89588 0.65378 0.0
C1542 C 0.45183 0.91694 0.66769 0.0
C1543 C 0.47823 0.93719 0.6483 0.0
H1544 H 0.17473 0.26477 0.69727 0.0
H1545 H 0.25515 0.35075 0.73019 0.0
H1546 H 0.14401 0.30679 0.6594 0.0
H1547 H 0.22549 0.39342 0.69103 0.0
H1548 H 0.14228 0.46035 0.64753 0.0
H1549 H 0.17673 0.41962 0.68108 0.0
H1550 H 0.13977 0.34773 0.61125 0.0
H1551 H 0.10357 0.38844 0.57794 0.0
C1552 C 0.18624 0.29286 0.69587 0.0
C1553 C 0.21785 0.30436 0.71621 0.0
C1554 C 0.16871 0.31712 0.67385 0.0
C1555 C 0.18195 0.35396 0.67156 0.0
C1556 C 0.21384 0.36545 0.69207 0.0
C1557 C 0.23134 0.34101 0.7143 0.0
C1558 C 0.14143 0.436 0.63893 0.0
C1559 C 0.11969 0.42797 0.6097 0.0
C1560 C 0.16171 0.41249 0.65834 0.0
C1561 C 0.16153 0.37995 0.64932 0.0
C1562 C 0.14039 0.37212 0.61965 0.0
C1563 C 0.11966 0.39565 0.60026 0.0
H1564 H 0.77736 0.22918 0.66817 0.0
H1565 H 0.67883 0.22803 0.70365 0.0
H1566 H 0.74351 0.20214 0.62158 0.0
H1567 H 0.64463 0.19973 0.65804 0.0
H1568 H 0.58661 0.15524 0.57029 0.0
H1569 H 0.62433 0.20044 0.60086 0.0
H1570 H 0.71115 0.14518 0.61547 0.0
H1571 H 0.67411 0.10138 0.58433 0.0
C1572 C 0.74836 0.22326 0.66572 0.0
C1573 C 0.73051 0.23048 0.68922 0.0
C1574 C 0.72891 0.2077 0.63917 0.0
C1575 C 0.6912 0.19843 0.636 0.0
C1576 C 0.67351 0.20696 0.65919 0.0
C1577 C 0.69302 0.22292 0.6855 0.0
C1578 C 0.61424 0.15376 0.57891 0.0
C1579 C 0.62739 0.12473 0.57513 0.0
C1580 C 0.63571 0.17929 0.5969 0.0
C1581 C 0.67068 0.17622 0.61127 0.0
C1582 C 0.6846 0.14881 0.60475 0.0
C1583 C 0.66325 0.12348 0.58691 0.0
H1584 H 0.81774 0.29926 0.3794 0.0
H1585 H 0.90679 0.28494 0.33742 0.0
H1586 H 0.85867 0.33059 0.41915 0.0
H1587 H 0.94825 0.31616 0.37806 0.0
H1588 H 0.93792 0.37709 0.49788 0.0
H1589 H 0.90301 0.33107 0.46655 0.0
H1590 H 0.96686 0.37655 0.38678 0.0
H1591 H 1.00155 0.42165 0.41825 0.0
C1592 C 0.84608 0.30198 0.37899 0.0
C1593 C 0.85867 0.2894 0.35483 0.0
C1594 C 0.86976 0.31997 0.40217 0.0
C1595 C 0.907 0.32621 0.40204 0.0
C1596 C 0.91976 0.3123 0.3788 0.0
C1597 C 0.89594 0.29409 0.35556 0.0
C1598 C 0.94507 0.37639 0.47411 0.0
C1599 C 0.97262 0.4027 0.46061 0.0
C1600 C 0.92484 0.35032 0.4559 0.0
C1601 C 0.9318 0.35004 0.42383 0.0
C1602 C 0.9608 0.37537 0.41137 0.0
C1603 C 0.98072 0.40137 0.42942 0.0
H1604 H 0.66822 0.85967 0.36378 0.0
H1605 H 0.68358 0.81033 0.46574 0.0
H1606 H 0.64637 0.90586 0.37975 0.0
H1607 H 0.65916 0.85506 0.48144 0.0
H1608 H 0.63194 0.95149 0.50494 0.0
H1609 H 0.66577 0.91475 0.48781 0.0
H1610 H 0.5939 0.91127 0.39721 0.0
H1611 H 0.56132 0.94885 0.41358 0.0
C1612 C 0.66726 0.85873 0.38965 0.0
C1613 C 0.67748 0.8309 0.41338 0.0
C1614 C 0.65416 0.88505 0.3988 0.0
C1615 C 0.65046 0.8841 0.43189 0.0
C1616 C 0.66181 0.85696 0.45575 0.0
C1617 C 0.6753 0.83085 0.44664 0.0
C1618 C 0.62379 0.94338 0.48111 0.0
C1619 C 0.59378 0.95312 0.46073 0.0
C1620 C 0.64301 0.92201 0.47139 0.0
C1621 C 0.63255 0.90973 0.44115 0.0
C1622 C 0.60326 0.92054 0.42041 0.0
C1623 C 0.5843 0.94203 0.42997 0.0
H1624 H 0.26948 0.72192 0.38301 0.0
H1625 H 0.19888 0.69293 0.29753 0.0
H1626 H 0.22783 0.68149 0.41871 0.0
H1627 H 0.15799 0.65096 0.33275 0.0
H1628 H 0.07047 0.61535 0.39808 0.0
H1629 H 0.11577 0.65166 0.36504 0.0
H1630 H 0.19845 0.62481 0.44254 0.0
H1631 H 0.1522 0.58932 0.47652 0.0
C1632 C 0.24553 0.70586 0.37193 0.0
C1633 C 0.23793 0.70974 0.33753 0.0
C1634 C 0.22154 0.68259 0.39239 0.0
C1635 C 0.18898 0.66288 0.37895 0.0
C1636 C 0.18217 0.6661 0.34434 0.0
C1637 C 0.20597 0.68967 0.32397 0.0
C1638 C 0.09831 0.61722 0.40826 0.0
C1639 C 0.10757 0.59928 0.44006 0.0
C1640 C 0.12454 0.63786 0.389 0.0
C1641 C 0.16123 0.64093 0.40049 0.0
C1642 C 0.17061 0.62343 0.43267 0.0
C1643 C 0.1441 0.60303 0.45228 0.0
H1644 H 0.38701 0.24202 0.32194 0.0
H1645 H 0.29823 0.16215 0.35704 0.0
H1646 H 0.42888 0.21113 0.36149 0.0
H1647 H 0.33911 0.13225 0.39693 0.0
H1648 H 0.4158 0.05884 0.42853 0.0
H1649 H 0.37777 0.09612 0.39534 0.0
H1650 H 0.45514 0.18934 0.41812 0.0
H1651 H 0.49473 0.15107 0.45131 0.0
C1652 C 0.37638 0.2184 0.33864 0.0
C1653 C 0.33913 0.20475 0.33648 0.0
C1654 C 0.40041 0.20058 0.3614 0.0
C1655 C 0.3878 0.16851 0.38238 0.0
C1656 C 0.35037 0.15611 0.38085 0.0
C1657 C 0.32667 0.17352 0.35807 0.0
C1658 C 0.42506 0.08726 0.4269 0.0
C1659 C 0.4588 0.10154 0.44297 0.0
C1660 C 0.40275 0.10893 0.40781 0.0
C1661 C 0.41273 0.14618 0.40388 0.0
C1662 C 0.44633 0.16085 0.42024 0.0
C1663 C 0.46896 0.13885 0.43965 0.0
H1664 H 0.78221 0.86274 0.689 0.0
H1665 H 0.69382 0.7831 0.72516 0.0
H1666 H 0.74088 0.89359 0.65063 0.0
H1667 H 0.65157 0.81477 0.68695 0.0
H1668 H 0.58537 0.87572 0.59755 0.0
H1669 H 0.62499 0.8371 0.63003 0.0
H1670 H 0.70236 0.92973 0.65414 0.0
H1671 H 0.66418 0.96742 0.62177 0.0
C1672 C 0.75376 0.85162 0.68853 0.0
C1673 C 0.74155 0.82013 0.70994 0.0
C1674 C 0.72983 0.86956 0.6666 0.0
C1675 C 0.69243 0.85736 0.6657 0.0
C1676 C 0.68002 0.82514 0.68657 0.0
C1677 C 0.70426 0.80687 0.70855 0.0
C1678 C 0.6111 0.88776 0.6094 0.0
C1679 C 0.62123 0.92503 0.60667 0.0
C1680 C 0.63376 0.86554 0.62839 0.0
C1681 C 0.66737 0.87996 0.64487 0.0
C1682 C 0.67732 0.91716 0.64158 0.0
C1683 C 0.65494 0.93906 0.62295 0.0
H1684 H 0.69587 0.19881 0.29614 0.0
H1685 H 0.77737 0.18393 0.37799 0.0
H1686 H 0.64962 0.16598 0.33089 0.0
H1687 H 0.73162 0.15007 0.41268 0.0
H1688 H 0.63896 0.11401 0.47543 0.0
H1689 H 0.68426 0.15105 0.44152 0.0
H1690 H 0.62487 0.10852 0.35645 0.0
H1691 H 0.57943 0.07265 0.3899 0.0
C1692 C 0.70379 0.18891 0.32175 0.0
C1693 C 0.7401 0.19495 0.33468 0.0
C1694 C 0.67735 0.16953 0.34165 0.0
C1695 C 0.68657 0.15519 0.37492 0.0
C1696 C 0.72313 0.16117 0.38757 0.0
C1697 C 0.74947 0.18048 0.36764 0.0
C1698 C 0.63562 0.11254 0.4495 0.0
C1699 C 0.60532 0.09022 0.43558 0.0
C1700 C 0.66172 0.13377 0.42996 0.0
C1701 C 0.65846 0.13313 0.39595 0.0
C1702 C 0.62824 0.11055 0.38224 0.0
C1703 C 0.60214 0.0896 0.40165 0.0
H1704 H 0.82008 0.6765 0.32181 0.0
H1705 H 0.90687 0.76195 0.34595 0.0
H1706 H 0.84882 0.63442 0.36277 0.0
H1707 H 0.93656 0.72037 0.38544 0.0
H1708 H 0.979 0.64175 0.46808 0.0
H1709 H 0.94231 0.68224 0.43533 0.0
H1710 H 0.89579 0.60532 0.37155 0.0
H1711 H 0.9309 0.56485 0.40466 0.0
C1712 C 0.84498 0.68635 0.33629 0.0
C1713 C 0.86068 0.72272 0.33119 0.0
C1714 C 0.86195 0.66216 0.35951 0.0
C1715 C 0.89549 0.67356 0.37781 0.0
C1716 C 0.91066 0.71017 0.37272 0.0
C1717 C 0.89366 0.73417 0.34977 0.0
C1718 C 0.96067 0.63333 0.44729 0.0
C1719 C 0.95838 0.59977 0.4393 0.0
C1720 C 0.93964 0.65676 0.42819 0.0
C1721 C 0.91579 0.64754 0.40027 0.0
C1722 C 0.91307 0.61364 0.3929 0.0
C1723 C 0.93375 0.59028 0.41202 0.0
H1724 H 0.40668 0.80609 0.33852 0.0
H1725 H 0.30737 0.80146 0.37432 0.0
H1726 H 0.44005 0.83256 0.38564 0.0
H1727 H 0.34017 0.82607 0.42227 0.0
H1728 H 0.40594 0.92358 0.46567 0.0
H1729 H 0.37077 0.8818 0.43163 0.0
H1730 H 0.46008 0.83044 0.44267 0.0
H1731 H 0.49597 0.8739 0.47604 0.0
C1732 C 0.39215 0.81028 0.35688 0.0
C1733 C 0.35465 0.80272 0.35265 0.0
C1734 C 0.41116 0.82506 0.38408 0.0
C1735 C 0.3929 0.83196 0.40779 0.0
C1736 C 0.35523 0.82214 0.40422 0.0
C1737 C 0.33636 0.80805 0.37678 0.0
C1738 C 0.4177 0.90263 0.46173 0.0
C1739 C 0.4537 0.90207 0.4734 0.0
C1740 C 0.39746 0.87847 0.44217 0.0
C1741 C 0.41259 0.85284 0.43382 0.0
C1742 C 0.44774 0.85026 0.448 0.0
C1743 C 0.46813 0.87469 0.46766 0.0
H1744 H 0.20727 0.40614 0.35989 0.0
H1745 H 0.2705 0.4062 0.45522 0.0
H1746 H 0.1622 0.42749 0.37956 0.0
H1747 H 0.22717 0.4306 0.47388 0.0
H1748 H 0.12634 0.44155 0.50941 0.0
H1749 H 0.17103 0.4186 0.49065 0.0
H1750 H 0.1493 0.47713 0.39288 0.0
H1751 H 0.10318 0.49833 0.41145 0.0
C1752 C 0.21167 0.41065 0.38505 0.0
C1753 C 0.2428 0.4044 0.40583 0.0
C1754 C 0.18601 0.42362 0.39621 0.0
C1755 C 0.19096 0.43123 0.42833 0.0
C1756 C 0.222 0.42477 0.44913 0.0
C1757 C 0.24732 0.41126 0.43817 0.0
C1758 C 0.13135 0.4497 0.48397 0.0
C1759 C 0.11119 0.47168 0.46188 0.0
C1760 C 0.15713 0.43662 0.47315 0.0
C1761 C 0.1639 0.44575 0.44008 0.0
C1762 C 0.14436 0.46869 0.41829 0.0
C1763 C 0.11811 0.48119 0.42899 0.0
H1764 H 0.42503 0.19419 0.66255 0.0
H1765 H 0.32961 0.13603 0.61261 0.0
H1766 H 0.46017 0.15644 0.64912 0.0
H1767 H 0.36477 0.09824 0.59913 0.0
H1768 H 0.44834 0.07442 0.54377 0.0
H1769 H 0.40956 0.10476 0.56259 0.0
H1770 H 0.47138 0.09692 0.65863 0.0
H1771 H 0.51054 0.06709 0.63977 0.0
C1772 C 0.41141 0.17289 0.6493 0.0
C1773 C 0.37453 0.16835 0.63847 0.0
C1774 C 0.43158 0.15123 0.64153 0.0
C1775 C 0.41537 0.12445 0.62277 0.0
C1776 C 0.37825 0.11904 0.61305 0.0
C1777 C 0.35808 0.14067 0.62083 0.0
C1778 C 0.45348 0.07879 0.56902 0.0
C1779 C 0.4828 0.06847 0.59014 0.0
C1780 C 0.4311 0.09609 0.57987 0.0
C1781 C 0.43745 0.1035 0.61211 0.0
C1782 C 0.46605 0.09216 0.63351 0.0
C1783 C 0.48841 0.07485 0.62269 0.0
H1784 H 0.81704 0.31134 0.68497 0.0
H1785 H 0.90397 0.33942 0.75997 0.0
H1786 H 0.85304 0.34912 0.64249 0.0
H1787 H 0.93919 0.37764 0.71843 0.0
H1788 H 1.01276 0.40462 0.64255 0.0
H1789 H 0.97077 0.36789 0.67898 0.0
H1790 H 0.88411 0.40886 0.61668 0.0
H1791 H 0.92686 0.44522 0.57904 0.0
C1792 C 0.84345 0.32627 0.6924 0.0
C1793 C 0.85765 0.32266 0.72583 0.0
C1794 C 0.86416 0.34787 0.66808 0.0
C1795 C 0.89953 0.36598 0.67677 0.0
C1796 C 0.91265 0.36339 0.71045 0.0
C1797 C 0.89229 0.34173 0.73444 0.0
C1798 C 0.98468 0.40555 0.63629 0.0
C1799 C 0.97326 0.428 0.60793 0.0
C1800 C 0.9605 0.3847 0.65746 0.0
C1801 C 0.92394 0.38596 0.65151 0.0
C1802 C 0.91201 0.40718 0.62221 0.0
C1803 C 0.93645 0.42795 0.60056 0.0
H1804 H 0.25811 0.74074 0.66271 0.0
H1805 H 0.1697 0.74076 0.71338 0.0
H1806 H 0.21747 0.70757 0.62379 0.0
H1807 H 0.12857 0.70787 0.67371 0.0
H1808 H 0.13553 0.65613 0.54811 0.0
H1809 H 0.16912 0.70292 0.57926 0.0
H1810 H 0.11603 0.64801 0.66399 0.0
H1811 H 0.08274 0.60218 0.63288 0.0
C1812 C 0.22985 0.73439 0.66522 0.0
C1813 C 0.21745 0.74334 0.69161 0.0
C1814 C 0.20634 0.71539 0.64257 0.0
C1815 C 0.16954 0.70455 0.6455 0.0
C1816 C 0.15678 0.71518 0.67084 0.0
C1817 C 0.18037 0.73436 0.69352 0.0
C1818 C 0.13046 0.65478 0.57307 0.0
C1819 C 0.1064 0.62561 0.588 0.0
C1820 C 0.14995 0.68134 0.59113 0.0
C1821 C 0.14557 0.6794 0.62441 0.0
C1822 C 0.12 0.65099 0.63848 0.0
C1823 C 0.10094 0.6245 0.62063 0.0
loop_
_geom_bond_atom_site_label_1
_geom_bond_atom_site_label_2
_geom_bond_distance
_geom_bond_site_symmetry_2
_ccdc_geom_bond_type
Tb0 N31 2.660 . S
Tb0 N38 2.600 . S
Tb0 O44 2.546 . S
Tb0 O45 2.610 . S
Tb0 O47 2.320 . S
Tb0 O48 2.552 . S
Tb0 O49 2.413 . S
Tb0 O51 2.362 . S
Tb0 O52 2.421 . S
Tb0 C64 2.833 . S
C1 C4 1.432 . S
C1 C5 1.414 . S
C1 N8 1.359 . S
C2 C4 1.417 . S
C2 C6 1.432 . S
C2 C14 1.410 . S
C3 C5 1.444 . S
C3 C6 1.317 . S
C3 H26 0.929 . S
C4 C1 1.432 . S
C4 C2 1.417 . S
C4 N12 1.360 . S
C5 C1 1.414 . S
C5 C3 1.444 . S
C5 C10 1.385 . S
C6 C2 1.432 . S
C6 C3 1.317 . S
C6 H18 0.930 . S
C7 C9 1.392 . S
C7 C10 1.370 . S
C7 H19 0.931 . S
N8 C1 1.359 . S
N8 C9 1.327 . S
N8 Tb11 2.600 . S
C9 C7 1.392 . S
C9 N8 1.327 . S
C9 H16 0.930 . S
C10 C5 1.385 . S
C10 C7 1.370 . S
C10 H29 0.930 . S
Tb11 N8 2.600 . S
Tb11 N12 2.660 . S
Tb11 O45 2.362 . S
Tb11 O46 2.421 . S
Tb11 O50 2.546 . S
Tb11 O51 2.610 . S
Tb11 O53 2.320 . S
Tb11 O54 2.552 . S
Tb11 O55 2.413 . S
Tb11 C75 2.833 . S
N12 C4 1.360 . S
N12 Tb11 2.660 . S
N12 C13 1.305 . S
C13 N12 1.305 . S
C13 C15 1.407 . S
C13 H20 0.930 . S
C14 C2 1.410 . S
C14 C15 1.345 . S
C14 H22 0.930 . S
C15 C13 1.407 . S
C15 C14 1.345 . S
C15 H17 0.930 . S
H16 C9 0.930 . S
H17 C15 0.930 . S
H18 C6 0.930 . S
H19 C7 0.931 . S
H20 C13 0.930 . S
H21 C35 0.930 . S
H22 C14 0.930 . S
H23 C41 0.930 . S
H24 C32 0.930 . S
H25 C39 0.931 . S
H26 C3 0.929 . S
H27 C33 0.930 . S
H28 C66 0.930 . S
H29 C10 0.930 . S
H30 C65 0.929 . S
N31 Tb0 2.660 . S
N31 C32 1.305 . S
N31 C36 1.360 . S
C32 H24 0.930 . S
C32 N31 1.305 . S
C32 C35 1.407 . S
C33 H27 0.930 . S
C33 C34 1.410 . S
C33 C35 1.345 . S
C34 C33 1.410 . S
C34 C36 1.417 . S
C34 C66 1.432 . S
C35 H21 0.930 . S
C35 C32 1.407 . S
C35 C33 1.345 . S
C36 N31 1.360 . S
C36 C34 1.417 . S
C36 C40 1.432 . S
H37 C42 0.930 . S
N38 Tb0 2.600 . S
N38 C40 1.359 . S
N38 C41 1.327 . S
C39 H25 0.931 . S
C39 C41 1.392 . S
C39 C42 1.370 . S
C40 C36 1.432 . S
C40 N38 1.359 . S
C40 C43 1.414 . S
C41 H23 0.930 . S
C41 N38 1.327 . S
C41 C39 1.392 . S
C42 H37 0.930 . S
C42 C39 1.370 . S
C42 C43 1.385 . S
C43 C40 1.414 . S
C43 C42 1.385 . S
C43 C65 1.444 . S
O44 Tb0 2.546 . S
O44 C64 1.251 . S
O45 Tb0 2.610 . S
O45 Tb11 2.362 . S
O45 C56 1.283 . S
O46 Tb11 2.421 . S
O46 C63 1.262 . S
O47 Tb0 2.320 . S
O47 C63 1.260 . S
O48 Tb0 2.552 . S
O48 C56 1.243 . S
O49 Tb0 2.413 . S
O49 C64 1.256 . S
O50 Tb11 2.546 . S
O50 C75 1.251 . S
O51 Tb0 2.362 . S
O51 Tb11 2.610 . S
O51 C67 1.283 . S
O52 Tb0 2.421 . S
O52 C74 1.262 . S
O53 Tb11 2.320 . S
O53 C74 1.260 . S
O54 Tb11 2.552 . S
O54 C67 1.243 . S
O55 Tb11 2.413 . S
O55 C75 1.256 . S
C56 O45 1.283 . S
C56 O48 1.243 . S
C57 C59 1.382 . S
C57 C61 1.393 . S
C57 C64 1.500 . S
C58 C59 1.400 . S
C58 C60 1.384 . S
C59 C57 1.382 . S
C59 C58 1.400 . S
C59 H76 0.930 . S
C60 C58 1.384 . S
C60 C62 1.392 . S
C60 H77 0.931 . S
C61 C57 1.393 . S
C61 C62 1.401 . S
C61 H78 0.930 . S
C62 C60 1.392 . S
C62 C61 1.401 . S
C62 H79 0.930 . S
C63 O46 1.262 . S
C63 O47 1.260 . S
C64 Tb0 2.833 . S
C64 O44 1.251 . S
C64 O49 1.256 . S
C64 C57 1.500 . S
C65 H30 0.929 . S
C65 C43 1.444 . S
C65 C66 1.317 . S
C66 H28 0.930 . S
C66 C34 1.432 . S
C66 C65 1.317 . S
C67 O51 1.283 . S
C67 O54 1.243 . S
C68 C69 1.382 . S
C68 C72 1.393 . S
C68 C75 1.500 . S
C69 C68 1.382 . S
C69 C70 1.400 . S
C69 H80 0.930 . S
C70 C69 1.400 . S
C70 C71 1.384 . S
C71 C70 1.384 . S
C71 C73 1.392 . S
C71 H81 0.931 . S
C72 C68 1.393 . S
C72 C73 1.401 . S
C72 H82 0.930 . S
C73 C71 1.392 . S
C73 C72 1.401 . S
C73 H83 0.930 . S
C74 O52 1.262 . S
C74 O53 1.260 . S
C75 Tb11 2.833 . S
C75 O50 1.251 . S
C75 O55 1.256 . S
C75 C68 1.500 . S
H76 C59 0.930 . S
H77 C60 0.931 . S
H78 C61 0.930 . S
H79 C62 0.930 . S
H80 C69 0.930 . S
H81 C71 0.931 . S
H82 C72 0.930 . S
H83 C73 0.930 . S
Tb84 N115 2.660 . S
Tb84 N122 2.600 . S
Tb84 O128 2.546 . S
Tb84 O129 2.610 . S
Tb84 O131 2.320 . S
Tb84 O132 2.552 . S
Tb84 O133 2.413 . S
Tb84 O135 2.362 . S
Tb84 O136 2.421 . S
Tb84 C148 2.833 . S
C85 C88 1.432 . S
C85 C89 1.414 . S
C85 N92 1.359 . S
C86 C88 1.417 . S
C86 C90 1.432 . S
C86 C98 1.410 . S
C87 C89 1.444 . S
C87 C90 1.317 . S
C87 H110 0.929 . S
C88 C85 1.432 . S
C88 C86 1.417 . S
C88 N96 1.360 . S
C89 C85 1.414 . S
C89 C87 1.444 . S
C89 C94 1.385 . S
C90 C86 1.432 . S
C90 C87 1.317 . S
C90 H102 0.930 . S
C91 C93 1.392 . S
C91 C94 1.370 . S
C91 H103 0.931 . S
N92 C85 1.359 . S
N92 C93 1.327 . S
N92 Tb95 2.600 . S
C93 C91 1.392 . S
C93 N92 1.327 . S
C93 H100 0.930 . S
C94 C89 1.385 . S
C94 C91 1.370 . S
C94 H113 0.930 . S
Tb95 N92 2.600 . S
Tb95 N96 2.660 . S
Tb95 O129 2.362 . S
Tb95 O130 2.421 . S
Tb95 O134 2.546 . S
Tb95 O135 2.610 . S
Tb95 O137 2.320 . S
Tb95 O138 2.552 . S
Tb95 O139 2.413 . S
Tb95 C159 2.833 . S
N96 C88 1.360 . S
N96 Tb95 2.660 . S
N96 C97 1.305 . S
C97 N96 1.305 . S
C97 C99 1.407 . S
C97 H104 0.930 . S
C98 C86 1.410 . S
C98 C99 1.345 . S
C98 H106 0.930 . S
C99 C97 1.407 . S
C99 C98 1.345 . S
C99 H101 0.930 . S
H100 C93 0.930 . S
H101 C99 0.930 . S
H102 C90 0.930 . S
H103 C91 0.931 . S
H104 C97 0.930 . S
H105 C119 0.930 . S
H106 C98 0.930 . S
H107 C125 0.930 . S
H108 C116 0.930 . S
H109 C123 0.931 . S
H110 C87 0.929 . S
H111 C117 0.930 . S
H112 C150 0.930 . S
H113 C94 0.930 . S
H114 C149 0.929 . S
N115 Tb84 2.660 . S
N115 C116 1.305 . S
N115 C120 1.360 . S
C116 H108 0.930 . S
C116 N115 1.305 . S
C116 C119 1.407 . S
C117 H111 0.930 . S
C117 C118 1.410 . S
C117 C119 1.345 . S
C118 C117 1.410 . S
C118 C120 1.417 . S
C118 C150 1.432 . S
C119 H105 0.930 . S
C119 C116 1.407 . S
C119 C117 1.345 . S
C120 N115 1.360 . S
C120 C118 1.417 . S
C120 C124 1.432 . S
H121 C126 0.930 . S
N122 Tb84 2.600 . S
N122 C124 1.359 . S
N122 C125 1.327 . S
C123 H109 0.931 . S
C123 C125 1.392 . S
C123 C126 1.370 . S
C124 C120 1.432 . S
C124 N122 1.359 . S
C124 C127 1.414 . S
C125 H107 0.930 . S
C125 N122 1.327 . S
C125 C123 1.392 . S
C126 H121 0.930 . S
C126 C123 1.370 . S
C126 C127 1.385 . S
C127 C124 1.414 . S
C127 C126 1.385 . S
C127 C149 1.444 . S
O128 Tb84 2.546 . S
O128 C148 1.251 . S
O129 Tb84 2.610 . S
O129 Tb95 2.362 . S
O129 C140 1.283 . S
O130 Tb95 2.421 . S
O130 C147 1.262 . S
O131 Tb84 2.320 . S
O131 C147 1.260 . S
O132 Tb84 2.552 . S
O132 C140 1.243 . S
O133 Tb84 2.413 . S
O133 C148 1.256 . S
O134 Tb95 2.546 . S
O134 C159 1.251 . S
O135 Tb84 2.362 . S
O135 Tb95 2.610 . S
O135 C151 1.283 . S
O136 Tb84 2.421 . S
O136 C158 1.262 . S
O137 Tb95 2.320 . S
O137 C158 1.260 . S
O138 Tb95 2.552 . S
O138 C151 1.243 . S
O139 Tb95 2.413 . S
O139 C159 1.256 . S
C140 O129 1.283 . S
C140 O132 1.243 . S
C141 C143 1.382 . S
C141 C145 1.393 . S
C141 C148 1.500 . S
C142 C143 1.400 . S
C142 C144 1.384 . S
C143 C141 1.382 . S
C143 C142 1.400 . S
C143 H160 0.930 . S
C144 C142 1.384 . S
C144 C146 1.392 . S
C144 H161 0.931 . S
C145 C141 1.393 . S
C145 C146 1.401 . S
C145 H162 0.930 . S
C146 C144 1.392 . S
C146 C145 1.401 . S
C146 H163 0.930 . S
C147 O130 1.262 . S
C147 O131 1.260 . S
C148 Tb84 2.833 . S
C148 O128 1.251 . S
C148 O133 1.256 . S
C148 C141 1.500 . S
C149 H114 0.929 . S
C149 C127 1.444 . S
C149 C150 1.317 . S
C150 H112 0.930 . S
C150 C118 1.432 . S
C150 C149 1.317 . S
C151 O135 1.283 . S
C151 O138 1.243 . S
C152 C153 1.382 . S
C152 C156 1.393 . S
C152 C159 1.500 . S
C153 C152 1.382 . S
C153 C154 1.400 . S
C153 H164 0.930 . S
C154 C153 1.400 . S
C154 C155 1.384 . S
C155 C154 1.384 . S
C155 C157 1.392 . S
C155 H165 0.931 . S
C156 C152 1.393 . S
C156 C157 1.401 . S
C156 H166 0.930 . S
C157 C155 1.392 . S
C157 C156 1.401 . S
C157 H167 0.930 . S
C158 O136 1.262 . S
C158 O137 1.260 . S
C159 Tb95 2.833 . S
C159 O134 1.251 . S
C159 O139 1.256 . S
C159 C152 1.500 . S
H160 C143 0.930 . S
H161 C144 0.931 . S
H162 C145 0.930 . S
H163 C146 0.930 . S
H164 C153 0.930 . S
H165 C155 0.931 . S
H166 C156 0.930 . S
H167 C157 0.930 . S
Tb168 N199 2.660 . S
Tb168 N206 2.600 . S
Tb168 O212 2.546 . S
Tb168 O213 2.610 . S
Tb168 O215 2.320 . S
Tb168 O216 2.552 . S
Tb168 O217 2.413 . S
Tb168 O219 2.362 . S
Tb168 O220 2.421 . S
Tb168 C232 2.833 . S
C169 C172 1.432 . S
C169 C173 1.414 . S
C169 N176 1.359 . S
C170 C172 1.417 . S
C170 C174 1.432 . S
C170 C182 1.410 . S
C171 C173 1.444 . S
C171 C174 1.317 . S
C171 H194 0.929 . S
C172 C169 1.432 . S
C172 C170 1.417 . S
C172 N180 1.360 . S
C173 C169 1.414 . S
C173 C171 1.444 . S
C173 C178 1.385 . S
C174 C170 1.432 . S
C174 C171 1.317 . S
C174 H186 0.930 . S
C175 C177 1.392 . S
C175 C178 1.370 . S
C175 H187 0.931 . S
N176 C169 1.359 . S
N176 C177 1.327 . S
N176 Tb179 2.600 . S
C177 C175 1.392 . S
C177 N176 1.327 . S
C177 H184 0.930 . S
C178 C173 1.385 . S
C178 C175 1.370 . S
C178 H197 0.930 . S
Tb179 N176 2.600 . S
Tb179 N180 2.660 . S
Tb179 O213 2.362 . S
Tb179 O214 2.421 . S
Tb179 O218 2.546 . S
Tb179 O219 2.610 . S
Tb179 O221 2.320 . S
Tb179 O222 2.552 . S
Tb179 O223 2.413 . S
Tb179 C243 2.833 . S
N180 C172 1.360 . S
N180 Tb179 2.660 . S
N180 C181 1.305 . S
C181 N180 1.305 . S
C181 C183 1.407 . S
C181 H188 0.930 . S
C182 C170 1.410 . S
C182 C183 1.345 . S
C182 H190 0.930 . S
C183 C181 1.407 . S
C183 C182 1.345 . S
C183 H185 0.930 . S
H184 C177 0.930 . S
H185 C183 0.930 . S
H186 C174 0.930 . S
H187 C175 0.931 . S
H188 C181 0.930 . S
H189 C203 0.930 . S
H190 C182 0.930 . S
H191 C209 0.930 . S
H192 C200 0.930 . S
H193 C207 0.931 . S
H194 C171 0.929 . S
H195 C201 0.930 . S
H196 C234 0.930 . S
H197 C178 0.930 . S
H198 C233 0.929 . S
N199 Tb168 2.660 . S
N199 C200 1.305 . S
N199 C204 1.360 . S
C200 H192 0.930 . S
C200 N199 1.305 . S
C200 C203 1.407 . S
C201 H195 0.930 . S
C201 C202 1.410 . S
C201 C203 1.345 . S
C202 C201 1.410 . S
C202 C204 1.417 . S
C202 C234 1.432 . S
C203 H189 0.930 . S
C203 C200 1.407 . S
C203 C201 1.345 . S
C204 N199 1.360 . S
C204 C202 1.417 . S
C204 C208 1.432 . S
H205 C210 0.930 . S
N206 Tb168 2.600 . S
N206 C208 1.359 . S
N206 C209 1.327 . S
C207 H193 0.931 . S
C207 C209 1.392 . S
C207 C210 1.370 . S
C208 C204 1.432 . S
C208 N206 1.359 . S
C208 C211 1.414 . S
C209 H191 0.930 . S
C209 N206 1.327 . S
C209 C207 1.392 . S
C210 H205 0.930 . S
C210 C207 1.370 . S
C210 C211 1.385 . S
C211 C208 1.414 . S
C211 C210 1.385 . S
C211 C233 1.444 . S
O212 Tb168 2.546 . S
O212 C232 1.251 . S
O213 Tb168 2.610 . S
O213 Tb179 2.362 . S
O213 C224 1.283 . S
O214 Tb179 2.421 . S
O214 C231 1.262 . S
O215 Tb168 2.320 . S
O215 C231 1.260 . S
O216 Tb168 2.552 . S
O216 C224 1.243 . S
O217 Tb168 2.413 . S
O217 C232 1.256 . S
O218 Tb179 2.546 . S
O218 C243 1.251 . S
O219 Tb168 2.362 . S
O219 Tb179 2.610 . S
O219 C235 1.283 . S
O220 Tb168 2.421 . S
O220 C242 1.262 . S
O221 Tb179 2.320 . S
O221 C242 1.260 . S
O222 Tb179 2.552 . S
O222 C235 1.243 . S
O223 Tb179 2.413 . S
O223 C243 1.256 . S
C224 O213 1.283 . S
C224 O216 1.243 . S
C225 C227 1.382 . S
C225 C229 1.393 . S
C225 C232 1.500 . S
C226 C227 1.400 . S
C226 C228 1.384 . S
C227 C225 1.382 . S
C227 C226 1.400 . S
C227 H244 0.930 . S
C228 C226 1.384 . S
C228 C230 1.392 . S
C228 H245 0.931 . S
C229 C225 1.393 . S
C229 C230 1.401 . S
C229 H246 0.930 . S
C230 C228 1.392 . S
C230 C229 1.401 . S
C230 H247 0.930 . S
C231 O214 1.262 . S
C231 O215 1.260 . S
C232 Tb168 2.833 . S
C232 O212 1.251 . S
C232 O217 1.256 . S
C232 C225 1.500 . S
C233 H198 0.929 . S
C233 C211 1.444 . S
C233 C234 1.317 . S
C234 H196 0.930 . S
C234 C202 1.432 . S
C234 C233 1.317 . S
C235 O219 1.283 . S
C235 O222 1.243 . S
C236 C237 1.382 . S
C236 C240 1.393 . S
C236 C243 1.500 . S
C237 C236 1.382 . S
C237 C238 1.400 . S
C237 H248 0.930 . S
C238 C237 1.400 . S
C238 C239 1.384 . S
C239 C238 1.384 . S
C239 C241 1.392 . S
C239 H249 0.931 . S
C240 C236 1.393 . S
C240 C241 1.401 . S
C240 H250 0.930 . S
C241 C239 1.392 . S
C241 C240 1.401 . S
C241 H251 0.930 . S
C242 O220 1.262 . S
C242 O221 1.260 . S
C243 Tb179 2.833 . S
C243 O218 1.251 . S
C243 O223 1.256 . S
C243 C236 1.500 . S
H244 C227 0.930 . S
H245 C228 0.931 . S
H246 C229 0.930 . S
H247 C230 0.930 . S
H248 C237 0.930 . S
H249 C239 0.931 . S
H250 C240 0.930 . S
H251 C241 0.930 . S
Tb252 N283 2.660 . S
Tb252 N290 2.600 . S
Tb252 O296 2.546 . S
Tb252 O297 2.610 . S
Tb252 O299 2.320 . S
Tb252 O300 2.552 . S
Tb252 O301 2.413 . S
Tb252 O303 2.362 . S
Tb252 O304 2.421 . S
Tb252 C316 2.833 . S
C253 C256 1.432 . S
C253 C257 1.414 . S
C253 N260 1.359 . S
C254 C256 1.417 . S
C254 C258 1.432 . S
C254 C266 1.410 . S
C255 C257 1.444 . S
C255 C258 1.317 . S
C255 H278 0.929 . S
C256 C253 1.432 . S
C256 C254 1.417 . S
C256 N264 1.360 . S
C257 C253 1.414 . S
C257 C255 1.444 . S
C257 C262 1.385 . S
C258 C254 1.432 . S
C258 C255 1.317 . S
C258 H270 0.930 . S
C259 C261 1.392 . S
C259 C262 1.370 . S
C259 H271 0.931 . S
N260 C253 1.359 . S
N260 C261 1.327 . S
N260 Tb263 2.600 . S
C261 C259 1.392 . S
C261 N260 1.327 . S
C261 H268 0.930 . S
C262 C257 1.385 . S
C262 C259 1.370 . S
C262 H281 0.930 . S
Tb263 N260 2.600 . S
Tb263 N264 2.660 . S
Tb263 O297 2.362 . S
Tb263 O298 2.421 . S
Tb263 O302 2.546 . S
Tb263 O303 2.610 . S
Tb263 O305 2.320 . S
Tb263 O306 2.552 . S
Tb263 O307 2.413 . S
Tb263 C327 2.833 . S
N264 C256 1.360 . S
N264 Tb263 2.660 . S
N264 C265 1.305 . S
C265 N264 1.305 . S
C265 C267 1.407 . S
C265 H272 0.930 . S
C266 C254 1.410 . S
C266 C267 1.345 . S
C266 H274 0.930 . S
C267 C265 1.407 . S
C267 C266 1.345 . S
C267 H269 0.930 . S
H268 C261 0.930 . S
H269 C267 0.930 . S
H270 C258 0.930 . S
H271 C259 0.931 . S
H272 C265 0.930 . S
H273 C287 0.930 . S
H274 C266 0.930 . S
H275 C293 0.930 . S
H276 C284 0.930 . S
H277 C291 0.931 . S
H278 C255 0.929 . S
H279 C285 0.930 . S
H280 C318 0.930 . S
H281 C262 0.930 . S
H282 C317 0.929 . S
N283 Tb252 2.660 . S
N283 C284 1.305 . S
N283 C288 1.360 . S
C284 H276 0.930 . S
C284 N283 1.305 . S
C284 C287 1.407 . S
C285 H279 0.930 . S
C285 C286 1.410 . S
C285 C287 1.345 . S
C286 C285 1.410 . S
C286 C288 1.417 . S
C286 C318 1.432 . S
C287 H273 0.930 . S
C287 C284 1.407 . S
C287 C285 1.345 . S
C288 N283 1.360 . S
C288 C286 1.417 . S
C288 C292 1.432 . S
H289 C294 0.930 . S
N290 Tb252 2.600 . S
N290 C292 1.359 . S
N290 C293 1.327 . S
C291 H277 0.931 . S
C291 C293 1.392 . S
C291 C294 1.370 . S
C292 C288 1.432 . S
C292 N290 1.359 . S
C292 C295 1.414 . S
C293 H275 0.930 . S
C293 N290 1.327 . S
C293 C291 1.392 . S
C294 H289 0.930 . S
C294 C291 1.370 . S
C294 C295 1.385 . S
C295 C292 1.414 . S
C295 C294 1.385 . S
C295 C317 1.444 . S
O296 Tb252 2.546 . S
O296 C316 1.251 . S
O297 Tb252 2.610 . S
O297 Tb263 2.362 . S
O297 C308 1.283 . S
O298 Tb263 2.421 . S
O298 C315 1.262 . S
O299 Tb252 2.320 . S
O299 C315 1.260 . S
O300 Tb252 2.552 . S
O300 C308 1.243 . S
O301 Tb252 2.413 . S
O301 C316 1.256 . S
O302 Tb263 2.546 . S
O302 C327 1.251 . S
O303 Tb252 2.362 . S
O303 Tb263 2.610 . S
O303 C319 1.283 . S
O304 Tb252 2.421 . S
O304 C326 1.262 . S
O305 Tb263 2.320 . S
O305 C326 1.260 . S
O306 Tb263 2.552 . S
O306 C319 1.243 . S
O307 Tb263 2.413 . S
O307 C327 1.256 . S
C308 O297 1.283 . S
C308 O300 1.243 . S
C309 C311 1.382 . S
C309 C313 1.393 . S
C309 C316 1.500 . S
C310 C311 1.400 . S
C310 C312 1.384 . S
C311 C309 1.382 . S
C311 C310 1.400 . S
C311 H328 0.930 . S
C312 C310 1.384 . S
C312 C314 1.392 . S
C312 H329 0.931 . S
C313 C309 1.393 . S
C313 C314 1.401 . S
C313 H330 0.930 . S
C314 C312 1.392 . S
C314 C313 1.401 . S
C314 H331 0.930 . S
C315 O298 1.262 . S
C315 O299 1.260 . S
C316 Tb252 2.833 . S
C316 O296 1.251 . S
C316 O301 1.256 . S
C316 C309 1.500 . S
C317 H282 0.929 . S
C317 C295 1.444 . S
C317 C318 1.317 . S
C318 H280 0.930 . S
C318 C286 1.432 . S
C318 C317 1.317 . S
C319 O303 1.283 . S
C319 O306 1.243 . S
C320 C321 1.382 . S
C320 C324 1.393 . S
C320 C327 1.500 . S
C321 C320 1.382 . S
C321 C322 1.400 . S
C321 H332 0.930 . S
C322 C321 1.400 . S
C322 C323 1.384 . S
C323 C322 1.384 . S
C323 C325 1.392 . S
C323 H333 0.931 . S
C324 C320 1.393 . S
C324 C325 1.401 . S
C324 H334 0.930 . S
C325 C323 1.392 . S
C325 C324 1.401 . S
C325 H335 0.930 . S
C326 O304 1.262 . S
C326 O305 1.260 . S
C327 Tb263 2.833 . S
C327 O302 1.251 . S
C327 O307 1.256 . S
C327 C320 1.500 . S
H328 C311 0.930 . S
H329 C312 0.931 . S
H330 C313 0.930 . S
H331 C314 0.930 . S
H332 C321 0.930 . S
H333 C323 0.931 . S
H334 C324 0.930 . S
H335 C325 0.930 . S
Tb336 N367 2.660 . S
Tb336 N374 2.600 . S
Tb336 O380 2.546 . S
Tb336 O381 2.610 . S
Tb336 O383 2.320 . S
Tb336 O384 2.552 . S
Tb336 O385 2.413 . S
Tb336 O387 2.362 . S
Tb336 O388 2.421 . S
Tb336 C400 2.833 . S
C337 C340 1.432 . S
C337 C341 1.414 . S
C337 N344 1.359 . S
C338 C340 1.417 . S
C338 C342 1.432 . S
C338 C350 1.410 . S
C339 C341 1.444 . S
C339 C342 1.317 . S
C339 H362 0.929 . S
C340 C337 1.432 . S
C340 C338 1.417 . S
C340 N348 1.360 . S
C341 C337 1.414 . S
C341 C339 1.444 . S
C341 C346 1.385 . S
C342 C338 1.432 . S
C342 C339 1.317 . S
C342 H354 0.930 . S
C343 C345 1.392 . S
C343 C346 1.370 . S
C343 H355 0.931 . S
N344 C337 1.359 . S
N344 C345 1.327 . S
N344 Tb347 2.600 . S
C345 C343 1.392 . S
C345 N344 1.327 . S
C345 H352 0.930 . S
C346 C341 1.385 . S
C346 C343 1.370 . S
C346 H365 0.930 . S
Tb347 N344 2.600 . S
Tb347 N348 2.660 . S
Tb347 O381 2.362 . S
Tb347 O382 2.421 . S
Tb347 O386 2.546 . S
Tb347 O387 2.610 . S
Tb347 O389 2.320 . S
Tb347 O390 2.552 . S
Tb347 O391 2.413 . S
Tb347 C411 2.833 . S
N348 C340 1.360 . S
N348 Tb347 2.660 . S
N348 C349 1.305 . S
C349 N348 1.305 . S
C349 C351 1.407 . S
C349 H356 0.930 . S
C350 C338 1.410 . S
C350 C351 1.345 . S
C350 H358 0.930 . S
C351 C349 1.407 . S
C351 C350 1.345 . S
C351 H353 0.930 . S
H352 C345 0.930 . S
H353 C351 0.930 . S
H354 C342 0.930 . S
H355 C343 0.931 . S
H356 C349 0.930 . S
H357 C371 0.930 . S
H358 C350 0.930 . S
H359 C377 0.930 . S
H360 C368 0.930 . S
H361 C375 0.931 . S
H362 C339 0.929 . S
H363 C369 0.930 . S
H364 C402 0.930 . S
H365 C346 0.930 . S
H366 C401 0.929 . S
N367 Tb336 2.660 . S
N367 C368 1.305 . S
N367 C372 1.360 . S
C368 H360 0.930 . S
C368 N367 1.305 . S
C368 C371 1.407 . S
C369 H363 0.930 . S
C369 C370 1.410 . S
C369 C371 1.345 . S
C370 C369 1.410 . S
C370 C372 1.417 . S
C370 C402 1.432 . S
C371 H357 0.930 . S
C371 C368 1.407 . S
C371 C369 1.345 . S
C372 N367 1.360 . S
C372 C370 1.417 . S
C372 C376 1.432 . S
H373 C378 0.930 . S
N374 Tb336 2.600 . S
N374 C376 1.359 . S
N374 C377 1.327 . S
C375 H361 0.931 . S
C375 C377 1.392 . S
C375 C378 1.370 . S
C376 C372 1.432 . S
C376 N374 1.359 . S
C376 C379 1.414 . S
C377 H359 0.930 . S
C377 N374 1.327 . S
C377 C375 1.392 . S
C378 H373 0.930 . S
C378 C375 1.370 . S
C378 C379 1.385 . S
C379 C376 1.414 . S
C379 C378 1.385 . S
C379 C401 1.444 . S
O380 Tb336 2.546 . S
O380 C400 1.251 . S
O381 Tb336 2.610 . S
O381 Tb347 2.362 . S
O381 C392 1.283 . S
O382 Tb347 2.421 . S
O382 C399 1.262 . S
O383 Tb336 2.320 . S
O383 C399 1.260 . S
O384 Tb336 2.552 . S
O384 C392 1.243 . S
O385 Tb336 2.413 . S
O385 C400 1.256 . S
O386 Tb347 2.546 . S
O386 C411 1.251 . S
O387 Tb336 2.362 . S
O387 Tb347 2.610 . S
O387 C403 1.283 . S
O388 Tb336 2.421 . S
O388 C410 1.262 . S
O389 Tb347 2.320 . S
O389 C410 1.260 . S
O390 Tb347 2.552 . S
O390 C403 1.243 . S
O391 Tb347 2.413 . S
O391 C411 1.256 . S
C392 O381 1.283 . S
C392 O384 1.243 . S
C393 C395 1.382 . S
C393 C397 1.393 . S
C393 C400 1.500 . S
C394 C395 1.400 . S
C394 C396 1.384 . S
C395 C393 1.382 . S
C395 C394 1.400 . S
C395 H412 0.930 . S
C396 C394 1.384 . S
C396 C398 1.392 . S
C396 H413 0.931 . S
C397 C393 1.393 . S
C397 C398 1.401 . S
C397 H414 0.930 . S
C398 C396 1.392 . S
C398 C397 1.401 . S
C398 H415 0.930 . S
C399 O382 1.262 . S
C399 O383 1.260 . S
C400 Tb336 2.833 . S
C400 O380 1.251 . S
C400 O385 1.256 . S
C400 C393 1.500 . S
C401 H366 0.929 . S
C401 C379 1.444 . S
C401 C402 1.317 . S
C402 H364 0.930 . S
C402 C370 1.432 . S
C402 C401 1.317 . S
C403 O387 1.283 . S
C403 O390 1.243 . S
C404 C405 1.382 . S
C404 C408 1.393 . S
C404 C411 1.500 . S
C405 C404 1.382 . S
C405 C406 1.400 . S
C405 H416 0.930 . S
C406 C405 1.400 . S
C406 C407 1.384 . S
C407 C406 1.384 . S
C407 C409 1.392 . S
C407 H417 0.931 . S
C408 C404 1.393 . S
C408 C409 1.401 . S
C408 H418 0.930 . S
C409 C407 1.392 . S
C409 C408 1.401 . S
C409 H419 0.930 . S
C410 O388 1.262 . S
C410 O389 1.260 . S
C411 Tb347 2.833 . S
C411 O386 1.251 . S
C411 O391 1.256 . S
C411 C404 1.500 . S
H412 C395 0.930 . S
H413 C396 0.931 . S
H414 C397 0.930 . S
H415 C398 0.930 . S
H416 C405 0.930 . S
H417 C407 0.931 . S
H418 C408 0.930 . S
H419 C409 0.930 . S
Tb420 N451 2.660 . S
Tb420 N458 2.600 . S
Tb420 O464 2.546 . S
Tb420 O465 2.610 . S
Tb420 O467 2.320 . S
Tb420 O468 2.552 . S
Tb420 O469 2.413 . S
Tb420 O471 2.362 . S
Tb420 O472 2.421 . S
Tb420 C484 2.833 . S
C421 C424 1.432 . S
C421 C425 1.414 . S
C421 N428 1.359 . S
C422 C424 1.417 . S
C422 C426 1.432 . S
C422 C434 1.410 . S
C423 C425 1.444 . S
C423 C426 1.317 . S
C423 H446 0.929 . S
C424 C421 1.432 . S
C424 C422 1.417 . S
C424 N432 1.360 . S
C425 C421 1.414 . S
C425 C423 1.444 . S
C425 C430 1.385 . S
C426 C422 1.432 . S
C426 C423 1.317 . S
C426 H438 0.930 . S
C427 C429 1.392 . S
C427 C430 1.370 . S
C427 H439 0.931 . S
N428 C421 1.359 . S
N428 C429 1.327 . S
N428 Tb431 2.600 . S
C429 C427 1.392 . S
C429 N428 1.327 . S
C429 H436 0.930 . S
C430 C425 1.385 . S
C430 C427 1.370 . S
C430 H449 0.930 . S
Tb431 N428 2.600 . S
Tb431 N432 2.660 . S
Tb431 O465 2.362 . S
Tb431 O466 2.421 . S
Tb431 O470 2.546 . S
Tb431 O471 2.610 . S
Tb431 O473 2.320 . S
Tb431 O474 2.552 . S
Tb431 O475 2.413 . S
Tb431 C495 2.833 . S
N432 C424 1.360 . S
N432 Tb431 2.660 . S
N432 C433 1.305 . S
C433 N432 1.305 . S
C433 C435 1.407 . S
C433 H440 0.930 . S
C434 C422 1.410 . S
C434 C435 1.345 . S
C434 H442 0.930 . S
C435 C433 1.407 . S
C435 C434 1.345 . S
C435 H437 0.930 . S
H436 C429 0.930 . S
H437 C435 0.930 . S
H438 C426 0.930 . S
H439 C427 0.931 . S
H440 C433 0.930 . S
H441 C455 0.930 . S
H442 C434 0.930 . S
H443 C461 0.930 . S
H444 C452 0.930 . S
H445 C459 0.931 . S
H446 C423 0.929 . S
H447 C453 0.930 . S
H448 C486 0.930 . S
H449 C430 0.930 . S
H450 C485 0.929 . S
N451 Tb420 2.660 . S
N451 C452 1.305 . S
N451 C456 1.360 . S
C452 H444 0.930 . S
C452 N451 1.305 . S
C452 C455 1.407 . S
C453 H447 0.930 . S
C453 C454 1.410 . S
C453 C455 1.345 . S
C454 C453 1.410 . S
C454 C456 1.417 . S
C454 C486 1.432 . S
C455 H441 0.930 . S
C455 C452 1.407 . S
C455 C453 1.345 . S
C456 N451 1.360 . S
C456 C454 1.417 . S
C456 C460 1.432 . S
H457 C462 0.930 . S
N458 Tb420 2.600 . S
N458 C460 1.359 . S
N458 C461 1.327 . S
C459 H445 0.931 . S
C459 C461 1.392 . S
C459 C462 1.370 . S
C460 C456 1.432 . S
C460 N458 1.359 . S
C460 C463 1.414 . S
C461 H443 0.930 . S
C461 N458 1.327 . S
C461 C459 1.392 . S
C462 H457 0.930 . S
C462 C459 1.370 . S
C462 C463 1.385 . S
C463 C460 1.414 . S
C463 C462 1.385 . S
C463 C485 1.444 . S
O464 Tb420 2.546 . S
O464 C484 1.251 . S
O465 Tb420 2.610 . S
O465 Tb431 2.362 . S
O465 C476 1.283 . S
O466 Tb431 2.421 . S
O466 C483 1.262 . S
O467 Tb420 2.320 . S
O467 C483 1.260 . S
O468 Tb420 2.552 . S
O468 C476 1.243 . S
O469 Tb420 2.413 . S
O469 C484 1.256 . S
O470 Tb431 2.546 . S
O470 C495 1.251 . S
O471 Tb420 2.362 . S
O471 Tb431 2.610 . S
O471 C487 1.283 . S
O472 Tb420 2.421 . S
O472 C494 1.262 . S
O473 Tb431 2.320 . S
O473 C494 1.260 . S
O474 Tb431 2.552 . S
O474 C487 1.243 . S
O475 Tb431 2.413 . S
O475 C495 1.256 . S
C476 O465 1.283 . S
C476 O468 1.243 . S
C477 C479 1.382 . S
C477 C481 1.393 . S
C477 C484 1.500 . S
C478 C479 1.400 . S
C478 C480 1.384 . S
C479 C477 1.382 . S
C479 C478 1.400 . S
C479 H496 0.930 . S
C480 C478 1.384 . S
C480 C482 1.392 . S
C480 H497 0.931 . S
C481 C477 1.393 . S
C481 C482 1.401 . S
C481 H498 0.930 . S
C482 C480 1.392 . S
C482 C481 1.401 . S
C482 H499 0.930 . S
C483 O466 1.262 . S
C483 O467 1.260 . S
C484 Tb420 2.833 . S
C484 O464 1.251 . S
C484 O469 1.256 . S
C484 C477 1.500 . S
C485 H450 0.929 . S
C485 C463 1.444 . S
C485 C486 1.317 . S
C486 H448 0.930 . S
C486 C454 1.432 . S
C486 C485 1.317 . S
C487 O471 1.283 . S
C487 O474 1.243 . S
C488 C489 1.382 . S
C488 C492 1.393 . S
C488 C495 1.500 . S
C489 C488 1.382 . S
C489 C490 1.400 . S
C489 H500 0.930 . S
C490 C489 1.400 . S
C490 C491 1.384 . S
C491 C490 1.384 . S
C491 C493 1.392 . S
C491 H501 0.931 . S
C492 C488 1.393 . S
C492 C493 1.401 . S
C492 H502 0.930 . S
C493 C491 1.392 . S
C493 C492 1.401 . S
C493 H503 0.930 . S
C494 O472 1.262 . S
C494 O473 1.260 . S
C495 Tb431 2.833 . S
C495 O470 1.251 . S
C495 O475 1.256 . S
C495 C488 1.500 . S
H496 C479 0.930 . S
H497 C480 0.931 . S
H498 C481 0.930 . S
H499 C482 0.930 . S
H500 C489 0.930 . S
H501 C491 0.931 . S
H502 C492 0.930 . S
H503 C493 0.930 . S
Tb504 N535 2.660 . S
Tb504 N542 2.600 . S
Tb504 O548 2.546 . S
Tb504 O549 2.610 . S
Tb504 O551 2.320 . S
Tb504 O552 2.552 . S
Tb504 O553 2.413 . S
Tb504 O555 2.362 . S
Tb504 O556 2.421 . S
Tb504 C568 2.833 . S
C505 C508 1.432 . S
C505 C509 1.414 . S
C505 N512 1.359 . S
C506 C508 1.417 . S
C506 C510 1.432 . S
C506 C518 1.410 . S
C507 C509 1.444 . S
C507 C510 1.317 . S
C507 H530 0.929 . S
C508 C505 1.432 . S
C508 C506 1.417 . S
C508 N516 1.360 . S
C509 C505 1.414 . S
C509 C507 1.444 . S
C509 C514 1.385 . S
C510 C506 1.432 . S
C510 C507 1.317 . S
C510 H522 0.930 . S
C511 C513 1.392 . S
C511 C514 1.370 . S
C511 H523 0.931 . S
N512 C505 1.359 . S
N512 C513 1.327 . S
N512 Tb515 2.600 . S
C513 C511 1.392 . S
C513 N512 1.327 . S
C513 H520 0.930 . S
C514 C509 1.385 . S
C514 C511 1.370 . S
C514 H533 0.930 . S
Tb515 N512 2.600 . S
Tb515 N516 2.660 . S
Tb515 O549 2.362 . S
Tb515 O550 2.421 . S
Tb515 O554 2.546 . S
Tb515 O555 2.610 . S
Tb515 O557 2.320 . S
Tb515 O558 2.552 . S
Tb515 O559 2.413 . S
Tb515 C579 2.833 . S
N516 C508 1.360 . S
N516 Tb515 2.660 . S
N516 C517 1.305 . S
C517 N516 1.305 . S
C517 C519 1.407 . S
C517 H524 0.930 . S
C518 C506 1.410 . S
C518 C519 1.345 . S
C518 H526 0.930 . S
C519 C517 1.407 . S
C519 C518 1.345 . S
C519 H521 0.930 . S
H520 C513 0.930 . S
H521 C519 0.930 . S
H522 C510 0.930 . S
H523 C511 0.931 . S
H524 C517 0.930 . S
H525 C539 0.930 . S
H526 C518 0.930 . S
H527 C545 0.930 . S
H528 C536 0.930 . S
H529 C543 0.931 . S
H530 C507 0.929 . S
H531 C537 0.930 . S
H532 C570 0.930 . S
H533 C514 0.930 . S
H534 C569 0.929 . S
N535 Tb504 2.660 . S
N535 C536 1.305 . S
N535 C540 1.360 . S
C536 H528 0.930 . S
C536 N535 1.305 . S
C536 C539 1.407 . S
C537 H531 0.930 . S
C537 C538 1.410 . S
C537 C539 1.345 . S
C538 C537 1.410 . S
C538 C540 1.417 . S
C538 C570 1.432 . S
C539 H525 0.930 . S
C539 C536 1.407 . S
C539 C537 1.345 . S
C540 N535 1.360 . S
C540 C538 1.417 . S
C540 C544 1.432 . S
H541 C546 0.930 . S
N542 Tb504 2.600 . S
N542 C544 1.359 . S
N542 C545 1.327 . S
C543 H529 0.931 . S
C543 C545 1.392 . S
C543 C546 1.370 . S
C544 C540 1.432 . S
C544 N542 1.359 . S
C544 C547 1.414 . S
C545 H527 0.930 . S
C545 N542 1.327 . S
C545 C543 1.392 . S
C546 H541 0.930 . S
C546 C543 1.370 . S
C546 C547 1.385 . S
C547 C544 1.414 . S
C547 C546 1.385 . S
C547 C569 1.444 . S
O548 Tb504 2.546 . S
O548 C568 1.251 . S
O549 Tb504 2.610 . S
O549 Tb515 2.362 . S
O549 C560 1.283 . S
O550 Tb515 2.421 . S
O550 C567 1.262 . S
O551 Tb504 2.320 . S
O551 C567 1.260 . S
O552 Tb504 2.552 . S
O552 C560 1.243 . S
O553 Tb504 2.413 . S
O553 C568 1.256 . S
O554 Tb515 2.546 . S
O554 C579 1.251 . S
O555 Tb504 2.362 . S
O555 Tb515 2.610 . S
O555 C571 1.283 . S
O556 Tb504 2.421 . S
O556 C578 1.262 . S
O557 Tb515 2.320 . S
O557 C578 1.260 . S
O558 Tb515 2.552 . S
O558 C571 1.243 . S
O559 Tb515 2.413 . S
O559 C579 1.256 . S
C560 O549 1.283 . S
C560 O552 1.243 . S
C561 C563 1.382 . S
C561 C565 1.393 . S
C561 C568 1.500 . S
C562 C563 1.400 . S
C562 C564 1.384 . S
C563 C561 1.382 . S
C563 C562 1.400 . S
C563 H580 0.930 . S
C564 C562 1.384 . S
C564 C566 1.392 . S
C564 H581 0.931 . S
C565 C561 1.393 . S
C565 C566 1.401 . S
C565 H582 0.930 . S
C566 C564 1.392 . S
C566 C565 1.401 . S
C566 H583 0.930 . S
C567 O550 1.262 . S
C567 O551 1.260 . S
C568 Tb504 2.833 . S
C568 O548 1.251 . S
C568 O553 1.256 . S
C568 C561 1.500 . S
C569 H534 0.929 . S
C569 C547 1.444 . S
C569 C570 1.317 . S
C570 H532 0.930 . S
C570 C538 1.432 . S
C570 C569 1.317 . S
C571 O555 1.283 . S
C571 O558 1.243 . S
C572 C573 1.382 . S
C572 C576 1.393 . S
C572 C579 1.500 . S
C573 C572 1.382 . S
C573 C574 1.400 . S
C573 H584 0.930 . S
C574 C573 1.400 . S
C574 C575 1.384 . S
C575 C574 1.384 . S
C575 C577 1.392 . S
C575 H585 0.931 . S
C576 C572 1.393 . S
C576 C577 1.401 . S
C576 H586 0.930 . S
C577 C575 1.392 . S
C577 C576 1.401 . S
C577 H587 0.930 . S
C578 O556 1.262 . S
C578 O557 1.260 . S
C579 Tb515 2.833 . S
C579 O554 1.251 . S
C579 O559 1.256 . S
C579 C572 1.500 . S
H580 C563 0.930 . S
H581 C564 0.931 . S
H582 C565 0.930 . S
H583 C566 0.930 . S
H584 C573 0.930 . S
H585 C575 0.931 . S
H586 C576 0.930 . S
H587 C577 0.930 . S
Tb588 N619 2.660 . S
Tb588 N626 2.600 . S
Tb588 O632 2.546 . S
Tb588 O633 2.610 . S
Tb588 O635 2.320 . S
Tb588 O636 2.552 . S
Tb588 O637 2.413 . S
Tb588 O639 2.362 . S
Tb588 O640 2.421 . S
Tb588 C652 2.833 . S
C589 C592 1.432 . S
C589 C593 1.414 . S
C589 N596 1.359 . S
C590 C592 1.417 . S
C590 C594 1.432 . S
C590 C602 1.410 . S
C591 C593 1.444 . S
C591 C594 1.317 . S
C591 H614 0.929 . S
C592 C589 1.432 . S
C592 C590 1.417 . S
C592 N600 1.360 . S
C593 C589 1.414 . S
C593 C591 1.444 . S
C593 C598 1.385 . S
C594 C590 1.432 . S
C594 C591 1.317 . S
C594 H606 0.930 . S
C595 C597 1.392 . S
C595 C598 1.370 . S
C595 H607 0.931 . S
N596 C589 1.359 . S
N596 C597 1.327 . S
N596 Tb599 2.600 . S
C597 C595 1.392 . S
C597 N596 1.327 . S
C597 H604 0.930 . S
C598 C593 1.385 . S
C598 C595 1.370 . S
C598 H617 0.930 . S
Tb599 N596 2.600 . S
Tb599 N600 2.660 . S
Tb599 O633 2.362 . S
Tb599 O634 2.421 . S
Tb599 O638 2.546 . S
Tb599 O639 2.610 . S
Tb599 O641 2.320 . S
Tb599 O642 2.552 . S
Tb599 O643 2.413 . S
Tb599 C663 2.833 . S
N600 C592 1.360 . S
N600 Tb599 2.660 . S
N600 C601 1.305 . S
C601 N600 1.305 . S
C601 C603 1.407 . S
C601 H608 0.930 . S
C602 C590 1.410 . S
C602 C603 1.345 . S
C602 H610 0.930 . S
C603 C601 1.407 . S
C603 C602 1.345 . S
C603 H605 0.930 . S
H604 C597 0.930 . S
H605 C603 0.930 . S
H606 C594 0.930 . S
H607 C595 0.931 . S
H608 C601 0.930 . S
H609 C623 0.930 . S
H610 C602 0.930 . S
H611 C629 0.930 . S
H612 C620 0.930 . S
H613 C627 0.931 . S
H614 C591 0.929 . S
H615 C621 0.930 . S
H616 C654 0.930 . S
H617 C598 0.930 . S
H618 C653 0.929 . S
N619 Tb588 2.660 . S
N619 C620 1.305 . S
N619 C624 1.360 . S
C620 H612 0.930 . S
C620 N619 1.305 . S
C620 C623 1.407 . S
C621 H615 0.930 . S
C621 C622 1.410 . S
C621 C623 1.345 . S
C622 C621 1.410 . S
C622 C624 1.417 . S
C622 C654 1.432 . S
C623 H609 0.930 . S
C623 C620 1.407 . S
C623 C621 1.345 . S
C624 N619 1.360 . S
C624 C622 1.417 . S
C624 C628 1.432 . S
H625 C630 0.930 . S
N626 Tb588 2.600 . S
N626 C628 1.359 . S
N626 C629 1.327 . S
C627 H613 0.931 . S
C627 C629 1.392 . S
C627 C630 1.370 . S
C628 C624 1.432 . S
C628 N626 1.359 . S
C628 C631 1.414 . S
C629 H611 0.930 . S
C629 N626 1.327 . S
C629 C627 1.392 . S
C630 H625 0.930 . S
C630 C627 1.370 . S
C630 C631 1.385 . S
C631 C628 1.414 . S
C631 C630 1.385 . S
C631 C653 1.444 . S
O632 Tb588 2.546 . S
O632 C652 1.251 . S
O633 Tb588 2.610 . S
O633 Tb599 2.362 . S
O633 C644 1.283 . S
O634 Tb599 2.421 . S
O634 C651 1.262 . S
O635 Tb588 2.320 . S
O635 C651 1.260 . S
O636 Tb588 2.552 . S
O636 C644 1.243 . S
O637 Tb588 2.413 . S
O637 C652 1.256 . S
O638 Tb599 2.546 . S
O638 C663 1.251 . S
O639 Tb588 2.362 . S
O639 Tb599 2.610 . S
O639 C655 1.283 . S
O640 Tb588 2.421 . S
O640 C662 1.262 . S
O641 Tb599 2.320 . S
O641 C662 1.260 . S
O642 Tb599 2.552 . S
O642 C655 1.243 . S
O643 Tb599 2.413 . S
O643 C663 1.256 . S
C644 O633 1.283 . S
C644 O636 1.243 . S
C645 C647 1.382 . S
C645 C649 1.393 . S
C645 C652 1.500 . S
C646 C647 1.400 . S
C646 C648 1.384 . S
C647 C645 1.382 . S
C647 C646 1.400 . S
C647 H664 0.930 . S
C648 C646 1.384 . S
C648 C650 1.392 . S
C648 H665 0.931 . S
C649 C645 1.393 . S
C649 C650 1.401 . S
C649 H666 0.930 . S
C650 C648 1.392 . S
C650 C649 1.401 . S
C650 H667 0.930 . S
C651 O634 1.262 . S
C651 O635 1.260 . S
C652 Tb588 2.833 . S
C652 O632 1.251 . S
C652 O637 1.256 . S
C652 C645 1.500 . S
C653 H618 0.929 . S
C653 C631 1.444 . S
C653 C654 1.317 . S
C654 H616 0.930 . S
C654 C622 1.432 . S
C654 C653 1.317 . S
C655 O639 1.283 . S
C655 O642 1.243 . S
C656 C657 1.382 . S
C656 C660 1.393 . S
C656 C663 1.500 . S
C657 C656 1.382 . S
C657 C658 1.400 . S
C657 H668 0.930 . S
C658 C657 1.400 . S
C658 C659 1.384 . S
C659 C658 1.384 . S
C659 C661 1.392 . S
C659 H669 0.931 . S
C660 C656 1.393 . S
C660 C661 1.401 . S
C660 H670 0.930 . S
C661 C659 1.392 . S
C661 C660 1.401 . S
C661 H671 0.930 . S
C662 O640 1.262 . S
C662 O641 1.260 . S
C663 Tb599 2.833 . S
C663 O638 1.251 . S
C663 O643 1.256 . S
C663 C656 1.500 . S
H664 C647 0.930 . S
H665 C648 0.931 . S
H666 C649 0.930 . S
H667 C650 0.930 . S
H668 C657 0.930 . S
H669 C659 0.931 . S
H670 C660 0.930 . S
H671 C661 0.930 . S
Fe672 O673 1.886 1_455 S
Fe672 O676 1.715 . S
Fe672 O681 2.077 1_455 S
Fe672 O686 1.935 . S
Fe672 O692 2.077 1_455 S
Fe672 O701 1.935 . S
O673 Fe672 1.886 1_655 S
O673 Fe675 1.715 1_545 S
Fe674 O676 1.886 . S
Fe674 O677 1.715 1_545 S
Fe674 O684 1.935 1_545 S
Fe674 O685 2.077 . S
Fe674 O691 1.935 1_545 S
Fe674 O700 2.077 . S
Fe675 O673 1.715 1_565 S
Fe675 O678 1.886 . S
Fe675 O682 1.935 1_565 S
Fe675 O687 2.077 . S
Fe675 O693 1.935 1_565 S
Fe675 O697 2.077 . S
O676 Fe672 1.715 . S
O676 Fe674 1.886 . S
O677 Fe674 1.715 1_565 S
O677 Fe679 1.886 1_455 S
O678 Fe675 1.886 . S
O678 Fe679 1.715 . S
Fe679 O677 1.886 1_655 S
Fe679 O678 1.715 . S
Fe679 O683 2.077 1_655 S
Fe679 O688 1.935 . S
Fe679 O690 2.077 1_655 S
Fe679 O698 1.935 . S
C680 O692 1.381 . S
C680 O693 1.421 . S
O681 Fe672 2.077 1_655 S
O681 C694 1.381 . S
O682 Fe675 1.935 1_545 S
O682 C694 1.421 . S
O683 Fe679 2.077 1_455 S
O683 C699 1.381 . S
O684 Fe674 1.935 1_565 S
O684 C699 1.421 . S
O685 Fe674 2.077 . S
O685 C689 1.381 . S
O686 Fe672 1.935 . S
O686 C689 1.421 . S
O687 Fe675 2.077 . S
O687 C695 1.381 . S
O688 Fe679 1.935 . S
O688 C695 1.421 . S
C689 O685 1.381 . S
C689 O686 1.421 . S
O690 Fe679 2.077 1_455 S
O690 C702 1.381 . S
O691 Fe674 1.935 1_565 S
O691 C702 1.421 . S
O692 Fe672 2.077 1_655 S
O692 C680 1.381 . S
O693 Fe675 1.935 1_545 S
O693 C680 1.421 . S
C694 O681 1.381 . S
C694 O682 1.421 . S
C695 O687 1.381 . S
C695 O688 1.421 . S
C696 O697 1.381 . S
C696 O698 1.421 . S
O697 Fe675 2.077 . S
O697 C696 1.381 . S
O698 Fe679 1.935 . S
O698 C696 1.421 . S
C699 O683 1.381 . S
C699 O684 1.421 . S
O700 Fe674 2.077 . S
O700 C703 1.381 . S
O701 Fe672 1.935 . S
O701 C703 1.421 . S
C702 O690 1.381 . S
C702 O691 1.421 . S
C703 O700 1.381 . S
C703 O701 1.421 . S
Fe704 O705 1.886 . S
Fe704 O708 1.714 . S
Fe704 O713 2.077 1_554 S
Fe704 O718 1.935 1_554 S
Fe704 O724 2.077 . S
Fe704 O733 1.935 . S
O705 Fe704 1.886 . S
O705 Fe707 1.715 1_565 S
Fe706 O708 1.886 1_556 S
Fe706 O709 1.715 1_565 S
Fe706 O716 1.935 1_565 S
Fe706 O717 2.077 . S
Fe706 O723 1.935 1_566 S
Fe706 O732 2.077 1_556 S
Fe707 O705 1.715 1_545 S
Fe707 O710 1.886 1_554 S
Fe707 O714 1.935 1_544 S
Fe707 O719 2.077 1_554 S
Fe707 O725 1.935 1_545 S
Fe707 O729 2.077 . S
O708 Fe704 1.714 . S
O708 Fe706 1.886 1_554 S
O709 Fe706 1.715 1_545 S
O709 Fe711 1.886 . S
O710 Fe707 1.886 1_556 S
O710 Fe711 1.715 . S
Fe711 O709 1.886 . S
Fe711 O710 1.715 . S
Fe711 O715 2.077 . S
Fe711 O720 1.935 . S
Fe711 O722 2.077 1_556 S
Fe711 O730 1.935 1_556 S
C712 O724 1.381 . S
C712 O725 1.421 . S
O713 Fe704 2.077 1_556 S
O713 C726 1.381 . S
O714 Fe707 1.935 1_566 S
O714 C726 1.421 . S
O715 Fe711 2.077 . S
O715 C731 1.381 . S
O716 Fe706 1.935 1_545 S
O716 C731 1.421 . S
O717 Fe706 2.077 . S
O717 C721 1.381 . S
O718 Fe704 1.935 1_556 S
O718 C721 1.421 . S
O719 Fe707 2.077 1_556 S
O719 C727 1.381 . S
O720 Fe711 1.935 . S
O720 C727 1.421 . S
C721 O717 1.381 . S
C721 O718 1.421 . S
O722 Fe711 2.077 1_554 S
O722 C734 1.381 . S
O723 Fe706 1.935 1_544 S
O723 C734 1.421 . S
O724 Fe704 2.077 . S
O724 C712 1.381 . S
O725 Fe707 1.935 1_565 S
O725 C712 1.421 . S
C726 O713 1.381 . S
C726 O714 1.421 . S
C727 O719 1.381 . S
C727 O720 1.421 . S
C728 O729 1.381 . S
C728 O730 1.421 . S
O729 Fe707 2.077 . S
O729 C728 1.381 . S
O730 Fe711 1.935 1_554 S
O730 C728 1.421 . S
C731 O715 1.381 . S
C731 O716 1.421 . S
O732 Fe706 2.077 1_554 S
O732 C735 1.381 . S
O733 Fe704 1.935 . S
O733 C735 1.421 . S
C734 O722 1.381 . S
C734 O723 1.421 . S
C735 O732 1.381 . S
C735 O733 1.421 . S
Fe736 O737 1.886 1_455 S
Fe736 O740 1.715 . S
Fe736 O745 2.077 1_455 S
Fe736 O750 1.935 . S
Fe736 O756 2.077 1_456 S
Fe736 O765 1.935 1_556 S
O737 Fe736 1.886 1_655 S
O737 Fe739 1.715 . S
Fe738 O740 1.886 1_554 S
Fe738 O741 1.715 . S
Fe738 O748 1.935 1_554 S
Fe738 O749 2.077 1_554 S
Fe738 O755 1.935 . S
Fe738 O764 2.077 . S
Fe739 O737 1.715 . S
Fe739 O742 1.886 1_556 S
Fe739 O746 1.935 . S
Fe739 O751 2.077 . S
Fe739 O757 1.935 1_556 S
Fe739 O761 2.077 1_556 S
O740 Fe736 1.715 . S
O740 Fe738 1.886 1_556 S
O741 Fe738 1.715 . S
O741 Fe743 1.886 1_455 S
O742 Fe739 1.886 1_554 S
O742 Fe743 1.714 . S
Fe743 O741 1.886 1_655 S
Fe743 O742 1.714 . S
Fe743 O747 2.077 1_654 S
Fe743 O752 1.935 1_554 S
Fe743 O754 2.077 1_655 S
Fe743 O762 1.935 . S
C744 O756 1.381 . S
C744 O757 1.421 . S
O745 Fe736 2.077 1_655 S
O745 C758 1.381 . S
O746 Fe739 1.935 . S
O746 C758 1.421 . S
O747 Fe743 2.077 1_456 S
O747 C763 1.381 . S
O748 Fe738 1.935 1_556 S
O748 C763 1.421 . S
O749 Fe738 2.077 1_556 S
O749 C753 1.381 . S
O750 Fe736 1.935 . S
O750 C753 1.421 . S
O751 Fe739 2.077 . S
O751 C759 1.381 . S
O752 Fe743 1.935 1_556 S
O752 C759 1.421 . S
C753 O749 1.381 . S
C753 O750 1.421 . S
O754 Fe743 2.077 1_455 S
O754 C766 1.381 . S
O755 Fe738 1.935 . S
O755 C766 1.421 . S
O756 Fe736 2.077 1_654 S
O756 C744 1.381 . S
O757 Fe739 1.935 1_554 S
O757 C744 1.421 . S
C758 O745 1.381 . S
C758 O746 1.421 . S
C759 O751 1.381 . S
C759 O752 1.421 . S
C760 O761 1.381 . S
C760 O762 1.421 . S
O761 Fe739 2.077 1_554 S
O761 C760 1.381 . S
O762 Fe743 1.935 . S
O762 C760 1.421 . S
C763 O747 1.381 . S
C763 O748 1.421 . S
O764 Fe738 2.077 . S
O764 C767 1.381 . S
O765 Fe736 1.935 1_554 S
O765 C767 1.421 . S
C766 O754 1.381 . S
C766 O755 1.421 . S
C767 O764 1.381 . S
C767 O765 1.421 . S
Fe768 O769 1.886 . S
Fe768 O772 1.715 . S
Fe768 O777 2.077 . S
Fe768 O782 1.935 . S
Fe768 O788 2.077 . S
Fe768 O797 1.935 . S
O769 Fe768 1.886 . S
O769 Fe771 1.715 1_556 S
Fe770 O772 1.886 . S
Fe770 O773 1.715 1_556 S
Fe770 O780 1.935 1_556 S
Fe770 O781 2.077 . S
Fe770 O787 1.935 1_556 S
Fe770 O796 2.077 . S
Fe771 O769 1.715 1_554 S
Fe771 O774 1.886 . S
Fe771 O778 1.935 1_554 S
Fe771 O783 2.077 . S
Fe771 O789 1.935 1_554 S
Fe771 O793 2.077 . S
O772 Fe768 1.715 . S
O772 Fe770 1.886 . S
O773 Fe770 1.715 1_554 S
O773 Fe775 1.886 . S
O774 Fe771 1.886 . S
O774 Fe775 1.715 . S
Fe775 O773 1.886 . S
Fe775 O774 1.715 . S
Fe775 O779 2.077 . S
Fe775 O784 1.935 . S
Fe775 O786 2.077 . S
Fe775 O794 1.935 . S
C776 O788 1.381 . S
C776 O789 1.421 . S
O777 Fe768 2.077 . S
O777 C790 1.381 . S
O778 Fe771 1.935 1_556 S
O778 C790 1.421 . S
O779 Fe775 2.077 . S
O779 C795 1.381 . S
O780 Fe770 1.935 1_554 S
O780 C795 1.421 . S
O781 Fe770 2.077 . S
O781 C785 1.381 . S
O782 Fe768 1.935 . S
O782 C785 1.421 . S
O783 Fe771 2.077 . S
O783 C791 1.381 . S
O784 Fe775 1.935 . S
O784 C791 1.421 . S
C785 O781 1.381 . S
C785 O782 1.421 . S
O786 Fe775 2.077 . S
O786 C798 1.381 . S
O787 Fe770 1.935 1_554 S
O787 C798 1.421 . S
O788 Fe768 2.077 . S
O788 C776 1.381 . S
O789 Fe771 1.935 1_556 S
O789 C776 1.421 . S
C790 O777 1.381 . S
C790 O778 1.421 . S
C791 O783 1.381 . S
C791 O784 1.421 . S
C792 O793 1.381 . S
C792 O794 1.421 . S
O793 Fe771 2.077 . S
O793 C792 1.381 . S
O794 Fe775 1.935 . S
O794 C792 1.421 . S
C795 O779 1.381 . S
C795 O780 1.421 . S
O796 Fe770 2.077 . S
O796 C799 1.381 . S
O797 Fe768 1.935 . S
O797 C799 1.421 . S
C798 O786 1.381 . S
C798 O787 1.421 . S
C799 O796 1.381 . S
C799 O797 1.421 . S
Fe800 O801 1.886 . S
Fe800 O804 1.715 . S
Fe800 O809 2.077 1_655 S
Fe800 O814 1.935 1_655 S
Fe800 O820 2.077 . S
Fe800 O829 1.935 . S
O801 Fe800 1.886 . S
O801 Fe803 1.715 1_655 S
Fe802 O804 1.886 . S
Fe802 O805 1.715 1_655 S
Fe802 O812 1.935 1_655 S
Fe802 O813 2.077 1_655 S
Fe802 O819 1.935 . S
Fe802 O828 2.077 . S
Fe803 O801 1.715 1_455 S
Fe803 O806 1.886 . S
Fe803 O810 1.935 . S
Fe803 O815 2.077 . S
Fe803 O821 1.935 1_455 S
Fe803 O825 2.077 1_455 S
O804 Fe800 1.715 . S
O804 Fe802 1.886 . S
O805 Fe802 1.715 1_455 S
O805 Fe807 1.886 . S
O806 Fe803 1.886 . S
O806 Fe807 1.715 . S
Fe807 O805 1.886 . S
Fe807 O806 1.715 . S
Fe807 O811 2.077 . S
Fe807 O816 1.935 . S
Fe807 O818 2.077 1_455 S
Fe807 O826 1.935 1_455 S
C808 O820 1.381 . S
C808 O821 1.421 . S
O809 Fe800 2.077 1_455 S
O809 C822 1.381 . S
O810 Fe803 1.935 . S
O810 C822 1.421 . S
O811 Fe807 2.077 . S
O811 C827 1.381 . S
O812 Fe802 1.935 1_455 S
O812 C827 1.421 . S
O813 Fe802 2.077 1_455 S
O813 C817 1.381 . S
O814 Fe800 1.935 1_455 S
O814 C817 1.421 . S
O815 Fe803 2.077 . S
O815 C823 1.381 . S
O816 Fe807 1.935 . S
O816 C823 1.421 . S
C817 O813 1.381 . S
C817 O814 1.421 . S
O818 Fe807 2.077 1_655 S
O818 C830 1.381 . S
O819 Fe802 1.935 . S
O819 C830 1.421 . S
O820 Fe800 2.077 . S
O820 C808 1.381 . S
O821 Fe803 1.935 1_655 S
O821 C808 1.421 . S
C822 O809 1.381 . S
C822 O810 1.421 . S
C823 O815 1.381 . S
C823 O816 1.421 . S
C824 O825 1.381 . S
C824 O826 1.421 . S
O825 Fe803 2.077 1_655 S
O825 C824 1.381 . S
O826 Fe807 1.935 1_655 S
O826 C824 1.421 . S
C827 O811 1.381 . S
C827 O812 1.421 . S
O828 Fe802 2.077 . S
O828 C831 1.381 . S
O829 Fe800 1.935 . S
O829 C831 1.421 . S
C830 O818 1.381 . S
C830 O819 1.421 . S
C831 O828 1.381 . S
C831 O829 1.421 . S
Fe832 O833 1.886 . S
Fe832 O836 1.715 . S
Fe832 O841 2.077 . S
Fe832 O846 1.935 . S
Fe832 O852 2.077 . S
Fe832 O861 1.935 . S
O833 Fe832 1.886 . S
O833 Fe835 1.715 . S
Fe834 O836 1.886 1_545 S
Fe834 O837 1.715 . S
Fe834 O844 1.935 . S
Fe834 O845 2.077 1_545 S
Fe834 O851 1.935 . S
Fe834 O860 2.077 1_545 S
Fe835 O833 1.715 . S
Fe835 O838 1.886 1_565 S
Fe835 O842 1.935 . S
Fe835 O847 2.077 1_565 S
Fe835 O853 1.935 . S
Fe835 O857 2.077 1_565 S
O836 Fe832 1.715 . S
O836 Fe834 1.886 1_565 S
O837 Fe834 1.715 . S
O837 Fe839 1.886 . S
O838 Fe835 1.886 1_545 S
O838 Fe839 1.715 . S
Fe839 O837 1.886 . S
Fe839 O838 1.715 . S
Fe839 O843 2.077 . S
Fe839 O848 1.935 . S
Fe839 O850 2.077 . S
Fe839 O858 1.935 . S
C840 O852 1.381 . S
C840 O853 1.421 . S
O841 Fe832 2.077 . S
O841 C854 1.381 . S
O842 Fe835 1.935 . S
O842 C854 1.421 . S
O843 Fe839 2.077 . S
O843 C859 1.381 . S
O844 Fe834 1.935 . S
O844 C859 1.421 . S
O845 Fe834 2.077 1_565 S
O845 C849 1.381 . S
O846 Fe832 1.935 . S
O846 C849 1.421 . S
O847 Fe835 2.077 1_545 S
O847 C855 1.381 . S
O848 Fe839 1.935 . S
O848 C855 1.421 . S
C849 O845 1.381 . S
C849 O846 1.421 . S
O850 Fe839 2.077 . S
O850 C862 1.381 . S
O851 Fe834 1.935 . S
O851 C862 1.421 . S
O852 Fe832 2.077 . S
O852 C840 1.381 . S
O853 Fe835 1.935 . S
O853 C840 1.421 . S
C854 O841 1.381 . S
C854 O842 1.421 . S
C855 O847 1.381 . S
C855 O848 1.421 . S
C856 O857 1.381 . S
C856 O858 1.421 . S
O857 Fe835 2.077 1_545 S
O857 C856 1.381 . S
O858 Fe839 1.935 . S
O858 C856 1.421 . S
C859 O843 1.381 . S
C859 O844 1.421 . S
O860 Fe834 2.077 1_565 S
O860 C863 1.381 . S
O861 Fe832 1.935 . S
O861 C863 1.421 . S
C862 O850 1.381 . S
C862 O851 1.421 . S
C863 O860 1.381 . S
C863 O861 1.421 . S
H864 C872 0.950 . S
H865 C877 0.950 . S
H866 C874 0.950 . S
H867 C876 0.950 . S
H868 C878 0.950 . S
H869 C880 0.950 . S
H870 C882 0.950 . S
H871 C883 0.950 . S
C872 H864 0.950 . S
C872 C873 1.386 . S
C872 C874 1.391 . S
C873 C872 1.386 . S
C873 C877 1.393 . S
C874 H866 0.950 . S
C874 C872 1.391 . S
C874 C875 1.400 . S
C875 C874 1.400 . S
C875 C876 1.398 . S
C875 C881 1.491 . S
C876 H867 0.950 . S
C876 C875 1.398 . S
C876 C877 1.391 . S
C877 H865 0.950 . S
C877 C873 1.393 . S
C877 C876 1.391 . S
C878 H868 0.950 . S
C878 C879 1.386 . S
C878 C880 1.391 . S
C879 C878 1.386 . S
C879 C883 1.393 . S
C880 H869 0.950 . S
C880 C878 1.391 . S
C880 C881 1.400 . S
C881 C875 1.491 . S
C881 C880 1.400 . S
C881 C882 1.398 . S
C882 H870 0.950 . S
C882 C881 1.398 . S
C882 C883 1.391 . S
C883 H871 0.950 . S
C883 C879 1.393 . S
C883 C882 1.391 . S
H884 C892 0.950 . S
H885 C897 0.950 . S
H886 C894 0.950 . S
H887 C896 0.950 . S
H888 C898 0.950 . S
H889 C900 0.950 . S
H890 C902 0.950 . S
H891 C903 0.950 . S
C892 H884 0.950 . S
C892 C893 1.386 . S
C892 C894 1.391 . S
C893 C892 1.386 . S
C893 C897 1.393 . S
C894 H886 0.950 . S
C894 C892 1.391 . S
C894 C895 1.400 . S
C895 C894 1.400 . S
C895 C896 1.398 . S
C895 C901 1.491 . S
C896 H887 0.950 . S
C896 C895 1.398 . S
C896 C897 1.391 . S
C897 H885 0.950 . S
C897 C893 1.393 . S
C897 C896 1.391 . S
C898 H888 0.950 . S
C898 C899 1.386 . S
C898 C900 1.391 . S
C899 C898 1.386 . S
C899 C903 1.393 . S
C900 H889 0.950 . S
C900 C898 1.391 . S
C900 C901 1.400 . S
C901 C895 1.491 . S
C901 C900 1.400 . S
C901 C902 1.398 . S
C902 H890 0.950 . S
C902 C901 1.398 . S
C902 C903 1.391 . S
C903 H891 0.950 . S
C903 C899 1.393 . S
C903 C902 1.391 . S
H904 C912 0.950 . S
H905 C917 0.950 . S
H906 C914 0.950 . S
H907 C916 0.950 . S
H908 C918 0.950 . S
H909 C920 0.950 . S
H910 C922 0.950 . S
H911 C923 0.950 . S
C912 H904 0.950 . S
C912 C913 1.386 . S
C912 C914 1.391 . S
C913 C912 1.386 . S
C913 C917 1.393 . S
C914 H906 0.950 . S
C914 C912 1.391 . S
C914 C915 1.400 . S
C915 C914 1.400 . S
C915 C916 1.398 . S
C915 C921 1.491 . S
C916 H907 0.950 . S
C916 C915 1.398 . S
C916 C917 1.391 . S
C917 H905 0.950 . S
C917 C913 1.393 . S
C917 C916 1.391 . S
C918 H908 0.950 . S
C918 C919 1.386 . S
C918 C920 1.391 . S
C919 C918 1.386 . S
C919 C923 1.393 . S
C920 H909 0.950 . S
C920 C918 1.391 . S
C920 C921 1.400 . S
C921 C915 1.491 . S
C921 C920 1.400 . S
C921 C922 1.398 . S
C922 H910 0.950 . S
C922 C921 1.398 . S
C922 C923 1.391 . S
C923 H911 0.950 . S
C923 C919 1.393 . S
C923 C922 1.391 . S
H924 C932 0.950 . S
H925 C937 0.950 . S
H926 C934 0.950 . S
H927 C936 0.950 . S
H928 C938 0.950 . S
H929 C940 0.950 . S
H930 C942 0.950 . S
H931 C943 0.950 . S
C932 H924 0.950 . S
C932 C933 1.386 . S
C932 C934 1.391 . S
C933 C932 1.386 . S
C933 C937 1.393 . S
C934 H926 0.950 . S
C934 C932 1.391 . S
C934 C935 1.400 . S
C935 C934 1.400 . S
C935 C936 1.398 . S
C935 C941 1.491 . S
C936 H927 0.950 . S
C936 C935 1.398 . S
C936 C937 1.391 . S
C937 H925 0.950 . S
C937 C933 1.393 . S
C937 C936 1.391 . S
C938 H928 0.950 . S
C938 C939 1.386 . S
C938 C940 1.391 . S
C939 C938 1.386 . S
C939 C943 1.393 . S
C940 H929 0.950 . S
C940 C938 1.391 . S
C940 C941 1.400 . S
C941 C935 1.491 . S
C941 C940 1.400 . S
C941 C942 1.398 . S
C942 H930 0.950 . S
C942 C941 1.398 . S
C942 C943 1.391 . S
C943 H931 0.950 . S
C943 C939 1.393 . S
C943 C942 1.391 . S
H944 C952 0.950 . S
H945 C957 0.950 . S
H946 C954 0.950 . S
H947 C956 0.950 . S
H948 C958 0.950 . S
H949 C960 0.950 . S
H950 C962 0.950 . S
H951 C963 0.950 . S
C952 H944 0.950 . S
C952 C953 1.386 . S
C952 C954 1.391 . S
C953 C952 1.386 . S
C953 C957 1.393 . S
C954 H946 0.950 . S
C954 C952 1.391 . S
C954 C955 1.400 . S
C955 C954 1.400 . S
C955 C956 1.398 . S
C955 C961 1.491 . S
C956 H947 0.950 . S
C956 C955 1.398 . S
C956 C957 1.391 . S
C957 H945 0.950 . S
C957 C953 1.393 . S
C957 C956 1.391 . S
C958 H948 0.950 . S
C958 C959 1.386 . S
C958 C960 1.391 . S
C959 C958 1.386 . S
C959 C963 1.393 . S
C960 H949 0.950 . S
C960 C958 1.391 . S
C960 C961 1.400 . S
C961 C955 1.491 . S
C961 C960 1.400 . S
C961 C962 1.398 . S
C962 H950 0.950 . S
C962 C961 1.398 . S
C962 C963 1.391 . S
C963 H951 0.950 . S
C963 C959 1.393 . S
C963 C962 1.391 . S
H964 C972 0.950 . S
H965 C977 0.950 . S
H966 C974 0.950 . S
H967 C976 0.950 . S
H968 C978 0.950 . S
H969 C980 0.950 . S
H970 C982 0.950 . S
H971 C983 0.950 . S
C972 H964 0.950 . S
C972 C973 1.386 . S
C972 C974 1.391 . S
C973 C972 1.386 . S
C973 C977 1.393 . S
C974 H966 0.950 . S
C974 C972 1.391 . S
C974 C975 1.400 . S
C975 C974 1.400 . S
C975 C976 1.398 . S
C975 C981 1.491 . S
C976 H967 0.950 . S
C976 C975 1.398 . S
C976 C977 1.391 . S
C977 H965 0.950 . S
C977 C973 1.393 . S
C977 C976 1.391 . S
C978 H968 0.950 . S
C978 C979 1.386 . S
C978 C980 1.391 . S
C979 C978 1.386 . S
C979 C983 1.393 . S
C980 H969 0.950 . S
C980 C978 1.391 . S
C980 C981 1.400 . S
C981 C975 1.491 . S
C981 C980 1.400 . S
C981 C982 1.398 . S
C982 H970 0.950 . S
C982 C981 1.398 . S
C982 C983 1.391 . S
C983 H971 0.950 . S
C983 C979 1.393 . S
C983 C982 1.391 . S
H984 C992 0.950 . S
H985 C997 0.950 . S
H986 C994 0.950 . S
H987 C996 0.950 . S
H988 C998 0.950 . S
H989 C1000 0.950 . S
H990 C1002 0.950 . S
H991 C1003 0.950 . S
C992 H984 0.950 . S
C992 C993 1.386 . S
C992 C994 1.391 . S
C993 C992 1.386 . S
C993 C997 1.393 . S
C994 H986 0.950 . S
C994 C992 1.391 . S
C994 C995 1.400 . S
C995 C994 1.400 . S
C995 C996 1.398 . S
C995 C1001 1.491 . S
C996 H987 0.950 . S
C996 C995 1.398 . S
C996 C997 1.391 . S
C997 H985 0.950 . S
C997 C993 1.393 . S
C997 C996 1.391 . S
C998 H988 0.950 . S
C998 C999 1.386 . S
C998 C1000 1.391 . S
C999 C998 1.386 . S
C999 C1003 1.393 . S
C1000 H989 0.950 . S
C1000 C998 1.391 . S
C1000 C1001 1.400 . S
C1001 C995 1.491 . S
C1001 C1000 1.400 . S
C1001 C1002 1.398 . S
C1002 H990 0.950 . S
C1002 C1001 1.398 . S
C1002 C1003 1.391 . S
C1003 H991 0.950 . S
C1003 C999 1.393 . S
C1003 C1002 1.391 . S
H1004 C1012 0.950 . S
H1005 C1017 0.950 . S
H1006 C1014 0.950 . S
H1007 C1016 0.950 . S
H1008 C1018 0.950 . S
H1009 C1020 0.950 . S
H1010 C1022 0.950 . S
H1011 C1023 0.950 . S
C1012 H1004 0.950 . S
C1012 C1013 1.386 . S
C1012 C1014 1.391 . S
C1013 C1012 1.386 . S
C1013 C1017 1.393 . S
C1014 H1006 0.950 . S
C1014 C1012 1.391 . S
C1014 C1015 1.400 . S
C1015 C1014 1.400 . S
C1015 C1016 1.398 . S
C1015 C1021 1.491 . S
C1016 H1007 0.950 . S
C1016 C1015 1.398 . S
C1016 C1017 1.391 . S
C1017 H1005 0.950 . S
C1017 C1013 1.393 . S
C1017 C1016 1.391 . S
C1018 H1008 0.950 . S
C1018 C1019 1.386 . S
C1018 C1020 1.391 . S
C1019 C1018 1.386 . S
C1019 C1023 1.393 . S
C1020 H1009 0.950 . S
C1020 C1018 1.391 . S
C1020 C1021 1.400 . S
C1021 C1015 1.491 . S
C1021 C1020 1.400 . S
C1021 C1022 1.398 . S
C1022 H1010 0.950 . S
C1022 C1021 1.398 . S
C1022 C1023 1.391 . S
C1023 H1011 0.950 . S
C1023 C1019 1.393 . S
C1023 C1022 1.391 . S
H1024 C1032 0.950 . S
H1025 C1037 0.950 . S
H1026 C1034 0.950 . S
H1027 C1036 0.950 . S
H1028 C1038 0.950 . S
H1029 C1040 0.950 . S
H1030 C1042 0.950 . S
H1031 C1043 0.950 . S
C1032 H1024 0.950 . S
C1032 C1033 1.386 . S
C1032 C1034 1.391 . S
C1033 C1032 1.386 . S
C1033 C1037 1.393 . S
C1034 H1026 0.950 . S
C1034 C1032 1.391 . S
C1034 C1035 1.400 . S
C1035 C1034 1.400 . S
C1035 C1036 1.398 . S
C1035 C1041 1.491 . S
C1036 H1027 0.950 . S
C1036 C1035 1.398 . S
C1036 C1037 1.391 . S
C1037 H1025 0.950 . S
C1037 C1033 1.393 . S
C1037 C1036 1.391 . S
C1038 H1028 0.950 . S
C1038 C1039 1.386 . S
C1038 C1040 1.391 . S
C1039 C1038 1.386 . S
C1039 C1043 1.393 . S
C1040 H1029 0.950 . S
C1040 C1038 1.391 . S
C1040 C1041 1.400 . S
C1041 C1035 1.491 . S
C1041 C1040 1.400 . S
C1041 C1042 1.398 . S
C1042 H1030 0.950 . S
C1042 C1041 1.398 . S
C1042 C1043 1.391 . S
C1043 H1031 0.950 . S
C1043 C1039 1.393 . S
C1043 C1042 1.391 . S
H1044 C1052 0.950 . S
H1045 C1057 0.950 . S
H1046 C1054 0.950 . S
H1047 C1056 0.950 . S
H1048 C1058 0.950 . S
H1049 C1060 0.950 . S
H1050 C1062 0.950 . S
H1051 C1063 0.950 . S
C1052 H1044 0.950 . S
C1052 C1053 1.386 . S
C1052 C1054 1.391 . S
C1053 C1052 1.386 . S
C1053 C1057 1.393 . S
C1054 H1046 0.950 . S
C1054 C1052 1.391 . S
C1054 C1055 1.400 . S
C1055 C1054 1.400 . S
C1055 C1056 1.398 . S
C1055 C1061 1.491 . S
C1056 H1047 0.950 . S
C1056 C1055 1.398 . S
C1056 C1057 1.391 . S
C1057 H1045 0.950 . S
C1057 C1053 1.393 . S
C1057 C1056 1.391 . S
C1058 H1048 0.950 . S
C1058 C1059 1.386 . S
C1058 C1060 1.391 . S
C1059 C1058 1.386 . S
C1059 C1063 1.393 . S
C1060 H1049 0.950 . S
C1060 C1058 1.391 . S
C1060 C1061 1.400 . S
C1061 C1055 1.491 . S
C1061 C1060 1.400 . S
C1061 C1062 1.398 . S
C1062 H1050 0.950 . S
C1062 C1061 1.398 . S
C1062 C1063 1.391 . S
C1063 H1051 0.950 . S
C1063 C1059 1.393 . S
C1063 C1062 1.391 . S
H1064 C1072 0.950 . S
H1065 C1077 0.950 . S
H1066 C1074 0.950 . S
H1067 C1076 0.950 . S
H1068 C1078 0.950 . S
H1069 C1080 0.950 . S
H1070 C1082 0.950 . S
H1071 C1083 0.950 . S
C1072 H1064 0.950 . S
C1072 C1073 1.386 . S
C1072 C1074 1.391 . S
C1073 C1072 1.386 . S
C1073 C1077 1.393 . S
C1074 H1066 0.950 . S
C1074 C1072 1.391 . S
C1074 C1075 1.400 . S
C1075 C1074 1.400 . S
C1075 C1076 1.398 . S
C1075 C1081 1.491 . S
C1076 H1067 0.950 . S
C1076 C1075 1.398 . S
C1076 C1077 1.391 . S
C1077 H1065 0.950 . S
C1077 C1073 1.393 . S
C1077 C1076 1.391 . S
C1078 H1068 0.950 . S
C1078 C1079 1.386 . S
C1078 C1080 1.391 . S
C1079 C1078 1.386 . S
C1079 C1083 1.393 . S
C1080 H1069 0.950 . S
C1080 C1078 1.391 . S
C1080 C1081 1.400 . S
C1081 C1075 1.491 . S
C1081 C1080 1.400 . S
C1081 C1082 1.398 . S
C1082 H1070 0.950 . S
C1082 C1081 1.398 . S
C1082 C1083 1.391 . S
C1083 H1071 0.950 . S
C1083 C1079 1.393 . S
C1083 C1082 1.391 . S
H1084 C1092 0.950 . S
H1085 C1097 0.950 . S
H1086 C1094 0.950 . S
H1087 C1096 0.950 . S
H1088 C1098 0.950 . S
H1089 C1100 0.950 . S
H1090 C1102 0.950 . S
H1091 C1103 0.950 . S
C1092 H1084 0.950 . S
C1092 C1093 1.386 . S
C1092 C1094 1.391 . S
C1093 C1092 1.386 . S
C1093 C1097 1.393 . S
C1094 H1086 0.950 . S
C1094 C1092 1.391 . S
C1094 C1095 1.400 . S
C1095 C1094 1.400 . S
C1095 C1096 1.398 . S
C1095 C1101 1.491 . S
C1096 H1087 0.950 . S
C1096 C1095 1.398 . S
C1096 C1097 1.391 . S
C1097 H1085 0.950 . S
C1097 C1093 1.393 . S
C1097 C1096 1.391 . S
C1098 H1088 0.950 . S
C1098 C1099 1.386 . S
C1098 C1100 1.391 . S
C1099 C1098 1.386 . S
C1099 C1103 1.393 . S
C1100 H1089 0.950 . S
C1100 C1098 1.391 . S
C1100 C1101 1.400 . S
C1101 C1095 1.491 . S
C1101 C1100 1.400 . S
C1101 C1102 1.398 . S
C1102 H1090 0.950 . S
C1102 C1101 1.398 . S
C1102 C1103 1.391 . S
C1103 H1091 0.950 . S
C1103 C1099 1.393 . S
C1103 C1102 1.391 . S
H1104 C1112 0.950 . S
H1105 C1117 0.950 . S
H1106 C1114 0.950 . S
H1107 C1116 0.950 . S
H1108 C1118 0.950 . S
H1109 C1120 0.950 . S
H1110 C1122 0.950 . S
H1111 C1123 0.950 . S
C1112 H1104 0.950 . S
C1112 C1113 1.386 . S
C1112 C1114 1.391 . S
C1113 C1112 1.386 . S
C1113 C1117 1.393 . S
C1114 H1106 0.950 . S
C1114 C1112 1.391 . S
C1114 C1115 1.400 . S
C1115 C1114 1.400 . S
C1115 C1116 1.398 . S
C1115 C1121 1.491 . S
C1116 H1107 0.950 . S
C1116 C1115 1.398 . S
C1116 C1117 1.391 . S
C1117 H1105 0.950 . S
C1117 C1113 1.393 . S
C1117 C1116 1.391 . S
C1118 H1108 0.950 . S
C1118 C1119 1.386 . S
C1118 C1120 1.391 . S
C1119 C1118 1.386 . S
C1119 C1123 1.393 . S
C1120 H1109 0.950 . S
C1120 C1118 1.391 . S
C1120 C1121 1.400 . S
C1121 C1115 1.491 . S
C1121 C1120 1.400 . S
C1121 C1122 1.398 . S
C1122 H1110 0.950 . S
C1122 C1121 1.398 . S
C1122 C1123 1.391 . S
C1123 H1111 0.950 . S
C1123 C1119 1.393 . S
C1123 C1122 1.391 . S
H1124 C1132 0.950 . S
H1125 C1137 0.950 . S
H1126 C1134 0.950 . S
H1127 C1136 0.950 . S
H1128 C1138 0.950 . S
H1129 C1140 0.950 . S
H1130 C1142 0.950 . S
H1131 C1143 0.950 . S
C1132 H1124 0.950 . S
C1132 C1133 1.386 . S
C1132 C1134 1.391 . S
C1133 C1132 1.386 . S
C1133 C1137 1.393 . S
C1134 H1126 0.950 . S
C1134 C1132 1.391 . S
C1134 C1135 1.400 . S
C1135 C1134 1.400 . S
C1135 C1136 1.398 . S
C1135 C1141 1.491 . S
C1136 H1127 0.950 . S
C1136 C1135 1.398 . S
C1136 C1137 1.391 . S
C1137 H1125 0.950 . S
C1137 C1133 1.393 . S
C1137 C1136 1.391 . S
C1138 H1128 0.950 . S
C1138 C1139 1.386 . S
C1138 C1140 1.391 . S
C1139 C1138 1.386 . S
C1139 C1143 1.393 . S
C1140 H1129 0.950 . S
C1140 C1138 1.391 . S
C1140 C1141 1.400 . S
C1141 C1135 1.491 . S
C1141 C1140 1.400 . S
C1141 C1142 1.398 . S
C1142 H1130 0.950 . S
C1142 C1141 1.398 . S
C1142 C1143 1.391 . S
C1143 H1131 0.950 . S
C1143 C1139 1.393 . S
C1143 C1142 1.391 . S
H1144 C1152 0.950 . S
H1145 C1157 0.950 . S
H1146 C1154 0.950 . S
H1147 C1156 0.950 . S
H1148 C1158 0.950 . S
H1149 C1160 0.950 . S
H1150 C1162 0.950 . S
H1151 C1163 0.950 . S
C1152 H1144 0.950 . S
C1152 C1153 1.386 . S
C1152 C1154 1.391 . S
C1153 C1152 1.386 . S
C1153 C1157 1.393 . S
C1154 H1146 0.950 . S
C1154 C1152 1.391 . S
C1154 C1155 1.400 . S
C1155 C1154 1.400 . S
C1155 C1156 1.398 . S
C1155 C1161 1.491 . S
C1156 H1147 0.950 . S
C1156 C1155 1.398 . S
C1156 C1157 1.391 . S
C1157 H1145 0.950 . S
C1157 C1153 1.393 . S
C1157 C1156 1.391 . S
C1158 H1148 0.950 . S
C1158 C1159 1.386 . S
C1158 C1160 1.391 . S
C1159 C1158 1.386 . S
C1159 C1163 1.393 . S
C1160 H1149 0.950 . S
C1160 C1158 1.391 . S
C1160 C1161 1.400 . S
C1161 C1155 1.491 . S
C1161 C1160 1.400 . S
C1161 C1162 1.398 . S
C1162 H1150 0.950 . S
C1162 C1161 1.398 . S
C1162 C1163 1.391 . S
C1163 H1151 0.950 . S
C1163 C1159 1.393 . S
C1163 C1162 1.391 . S
H1164 C1172 0.950 . S
H1165 C1177 0.950 . S
H1166 C1174 0.950 . S
H1167 C1176 0.950 . S
H1168 C1178 0.950 . S
H1169 C1180 0.950 . S
H1170 C1182 0.950 . S
H1171 C1183 0.950 . S
C1172 H1164 0.950 . S
C1172 C1173 1.386 . S
C1172 C1174 1.391 . S
C1173 C1172 1.386 . S
C1173 C1177 1.393 . S
C1174 H1166 0.950 . S
C1174 C1172 1.391 . S
C1174 C1175 1.400 . S
C1175 C1174 1.400 . S
C1175 C1176 1.398 . S
C1175 C1181 1.491 . S
C1176 H1167 0.950 . S
C1176 C1175 1.398 . S
C1176 C1177 1.391 . S
C1177 H1165 0.950 . S
C1177 C1173 1.393 . S
C1177 C1176 1.391 . S
C1178 H1168 0.950 . S
C1178 C1179 1.386 . S
C1178 C1180 1.391 . S
C1179 C1178 1.386 . S
C1179 C1183 1.393 . S
C1180 H1169 0.950 . S
C1180 C1178 1.391 . S
C1180 C1181 1.400 . S
C1181 C1175 1.491 . S
C1181 C1180 1.400 . S
C1181 C1182 1.398 . S
C1182 H1170 0.950 . S
C1182 C1181 1.398 . S
C1182 C1183 1.391 . S
C1183 H1171 0.950 . S
C1183 C1179 1.393 . S
C1183 C1182 1.391 . S
H1184 C1192 0.950 . S
H1185 C1197 0.950 . S
H1186 C1194 0.950 . S
H1187 C1196 0.950 . S
H1188 C1198 0.950 . S
H1189 C1200 0.950 . S
H1190 C1202 0.950 . S
H1191 C1203 0.950 . S
C1192 H1184 0.950 . S
C1192 C1193 1.386 . S
C1192 C1194 1.391 . S
C1193 C1192 1.386 . S
C1193 C1197 1.393 . S
C1194 H1186 0.950 . S
C1194 C1192 1.391 . S
C1194 C1195 1.400 . S
C1195 C1194 1.400 . S
C1195 C1196 1.398 . S
C1195 C1201 1.491 . S
C1196 H1187 0.950 . S
C1196 C1195 1.398 . S
C1196 C1197 1.391 . S
C1197 H1185 0.950 . S
C1197 C1193 1.393 . S
C1197 C1196 1.391 . S
C1198 H1188 0.950 . S
C1198 C1199 1.386 . S
C1198 C1200 1.391 . S
C1199 C1198 1.386 . S
C1199 C1203 1.393 . S
C1200 H1189 0.950 . S
C1200 C1198 1.391 . S
C1200 C1201 1.400 . S
C1201 C1195 1.491 . S
C1201 C1200 1.400 . S
C1201 C1202 1.398 . S
C1202 H1190 0.950 . S
C1202 C1201 1.398 . S
C1202 C1203 1.391 . S
C1203 H1191 0.950 . S
C1203 C1199 1.393 . S
C1203 C1202 1.391 . S
H1204 C1212 0.950 . S
H1205 C1217 0.950 . S
H1206 C1214 0.950 . S
H1207 C1216 0.950 . S
H1208 C1218 0.950 . S
H1209 C1220 0.950 . S
H1210 C1222 0.950 . S
H1211 C1223 0.950 . S
C1212 H1204 0.950 . S
C1212 C1213 1.386 . S
C1212 C1214 1.391 . S
C1213 C1212 1.386 . S
C1213 C1217 1.393 . S
C1214 H1206 0.950 . S
C1214 C1212 1.391 . S
C1214 C1215 1.400 . S
C1215 C1214 1.400 . S
C1215 C1216 1.398 . S
C1215 C1221 1.491 . S
C1216 H1207 0.950 . S
C1216 C1215 1.398 . S
C1216 C1217 1.391 . S
C1217 H1205 0.950 . S
C1217 C1213 1.393 . S
C1217 C1216 1.391 . S
C1218 H1208 0.950 . S
C1218 C1219 1.386 . S
C1218 C1220 1.391 . S
C1219 C1218 1.386 . S
C1219 C1223 1.393 . S
C1220 H1209 0.950 . S
C1220 C1218 1.391 . S
C1220 C1221 1.400 . S
C1221 C1215 1.491 . S
C1221 C1220 1.400 . S
C1221 C1222 1.398 . S
C1222 H1210 0.950 . S
C1222 C1221 1.398 . S
C1222 C1223 1.391 . S
C1223 H1211 0.950 . S
C1223 C1219 1.393 . S
C1223 C1222 1.391 . S
H1224 C1232 0.950 . S
H1225 C1237 0.950 . S
H1226 C1234 0.950 . S
H1227 C1236 0.950 . S
H1228 C1238 0.950 . S
H1229 C1240 0.950 . S
H1230 C1242 0.950 . S
H1231 C1243 0.950 . S
C1232 H1224 0.950 . S
C1232 C1233 1.386 . S
C1232 C1234 1.391 . S
C1233 C1232 1.386 . S
C1233 C1237 1.393 . S
C1234 H1226 0.950 . S
C1234 C1232 1.391 . S
C1234 C1235 1.400 . S
C1235 C1234 1.400 . S
C1235 C1236 1.398 . S
C1235 C1241 1.491 . S
C1236 H1227 0.950 . S
C1236 C1235 1.398 . S
C1236 C1237 1.391 . S
C1237 H1225 0.950 . S
C1237 C1233 1.393 . S
C1237 C1236 1.391 . S
C1238 H1228 0.950 . S
C1238 C1239 1.386 . S
C1238 C1240 1.391 . S
C1239 C1238 1.386 . S
C1239 C1243 1.393 . S
C1240 H1229 0.950 . S
C1240 C1238 1.391 . S
C1240 C1241 1.400 . S
C1241 C1235 1.491 . S
C1241 C1240 1.400 . S
C1241 C1242 1.398 . S
C1242 H1230 0.950 . S
C1242 C1241 1.398 . S
C1242 C1243 1.391 . S
C1243 H1231 0.950 . S
C1243 C1239 1.393 . S
C1243 C1242 1.391 . S
H1244 C1252 0.950 . S
H1245 C1257 0.950 . S
H1246 C1254 0.950 . S
H1247 C1256 0.950 . S
H1248 C1258 0.950 . S
H1249 C1260 0.950 . S
H1250 C1262 0.950 . S
H1251 C1263 0.950 . S
C1252 H1244 0.950 . S
C1252 C1253 1.386 . S
C1252 C1254 1.391 . S
C1253 C1252 1.386 . S
C1253 C1257 1.393 . S
C1254 H1246 0.950 . S
C1254 C1252 1.391 . S
C1254 C1255 1.400 . S
C1255 C1254 1.400 . S
C1255 C1256 1.398 . S
C1255 C1261 1.491 . S
C1256 H1247 0.950 . S
C1256 C1255 1.398 . S
C1256 C1257 1.391 . S
C1257 H1245 0.950 . S
C1257 C1253 1.393 . S
C1257 C1256 1.391 . S
C1258 H1248 0.950 . S
C1258 C1259 1.386 . S
C1258 C1260 1.391 . S
C1259 C1258 1.386 . S
C1259 C1263 1.393 . S
C1260 H1249 0.950 . S
C1260 C1258 1.391 . S
C1260 C1261 1.400 . S
C1261 C1255 1.491 . S
C1261 C1260 1.400 . S
C1261 C1262 1.398 . S
C1262 H1250 0.950 . S
C1262 C1261 1.398 . S
C1262 C1263 1.391 . S
C1263 H1251 0.950 . S
C1263 C1259 1.393 . S
C1263 C1262 1.391 . S
H1264 C1272 0.950 . S
H1265 C1277 0.950 . S
H1266 C1274 0.950 . S
H1267 C1276 0.950 . S
H1268 C1278 0.950 . S
H1269 C1280 0.950 . S
H1270 C1282 0.950 . S
H1271 C1283 0.950 . S
C1272 H1264 0.950 . S
C1272 C1273 1.386 . S
C1272 C1274 1.391 . S
C1273 C1272 1.386 . S
C1273 C1277 1.393 . S
C1274 H1266 0.950 . S
C1274 C1272 1.391 . S
C1274 C1275 1.400 . S
C1275 C1274 1.400 . S
C1275 C1276 1.398 . S
C1275 C1281 1.491 . S
C1276 H1267 0.950 . S
C1276 C1275 1.398 . S
C1276 C1277 1.391 . S
C1277 H1265 0.950 . S
C1277 C1273 1.393 . S
C1277 C1276 1.391 . S
C1278 H1268 0.950 . S
C1278 C1279 1.386 . S
C1278 C1280 1.391 . S
C1279 C1278 1.386 . S
C1279 C1283 1.393 . S
C1280 H1269 0.950 . S
C1280 C1278 1.391 . S
C1280 C1281 1.400 . S
C1281 C1275 1.491 . S
C1281 C1280 1.400 . S
C1281 C1282 1.398 . S
C1282 H1270 0.950 . S
C1282 C1281 1.398 . S
C1282 C1283 1.391 . S
C1283 H1271 0.950 . S
C1283 C1279 1.393 . S
C1283 C1282 1.391 . S
H1284 C1292 0.950 . S
H1285 C1297 0.950 . S
H1286 C1294 0.950 . S
H1287 C1296 0.950 . S
H1288 C1298 0.950 . S
H1289 C1300 0.950 . S
H1290 C1302 0.950 . S
H1291 C1303 0.950 . S
C1292 H1284 0.950 . S
C1292 C1293 1.386 . S
C1292 C1294 1.391 . S
C1293 C1292 1.386 . S
C1293 C1297 1.393 . S
C1294 H1286 0.950 . S
C1294 C1292 1.391 . S
C1294 C1295 1.400 . S
C1295 C1294 1.400 . S
C1295 C1296 1.398 . S
C1295 C1301 1.491 . S
C1296 H1287 0.950 . S
C1296 C1295 1.398 . S
C1296 C1297 1.391 . S
C1297 H1285 0.950 . S
C1297 C1293 1.393 . S
C1297 C1296 1.391 . S
C1298 H1288 0.950 . S
C1298 C1299 1.386 . S
C1298 C1300 1.391 . S
C1299 C1298 1.386 . S
C1299 C1303 1.393 . S
C1300 H1289 0.950 . S
C1300 C1298 1.391 . S
C1300 C1301 1.400 . S
C1301 C1295 1.491 . S
C1301 C1300 1.400 . S
C1301 C1302 1.398 . S
C1302 H1290 0.950 . S
C1302 C1301 1.398 . S
C1302 C1303 1.391 . S
C1303 H1291 0.950 . S
C1303 C1299 1.393 . S
C1303 C1302 1.391 . S
H1304 C1312 0.950 . S
H1305 C1317 0.950 . S
H1306 C1314 0.950 . S
H1307 C1316 0.950 . S
H1308 C1318 0.950 . S
H1309 C1320 0.950 . S
H1310 C1322 0.950 . S
H1311 C1323 0.950 . S
C1312 H1304 0.950 . S
C1312 C1313 1.386 . S
C1312 C1314 1.391 . S
C1313 C1312 1.386 . S
C1313 C1317 1.393 . S
C1314 H1306 0.950 . S
C1314 C1312 1.391 . S
C1314 C1315 1.400 . S
C1315 C1314 1.400 . S
C1315 C1316 1.398 . S
C1315 C1321 1.491 . S
C1316 H1307 0.950 . S
C1316 C1315 1.398 . S
C1316 C1317 1.391 . S
C1317 H1305 0.950 . S
C1317 C1313 1.393 . S
C1317 C1316 1.391 . S
C1318 H1308 0.950 . S
C1318 C1319 1.386 . S
C1318 C1320 1.391 . S
C1319 C1318 1.386 . S
C1319 C1323 1.393 . S
C1320 H1309 0.950 . S
C1320 C1318 1.391 . S
C1320 C1321 1.400 . S
C1321 C1315 1.491 . S
C1321 C1320 1.400 . S
C1321 C1322 1.398 . S
C1322 H1310 0.950 . S
C1322 C1321 1.398 . S
C1322 C1323 1.391 . S
C1323 H1311 0.950 . S
C1323 C1319 1.393 . S
C1323 C1322 1.391 . S
H1324 C1332 0.950 . S
H1325 C1337 0.950 . S
H1326 C1334 0.950 . S
H1327 C1336 0.950 . S
H1328 C1338 0.950 . S
H1329 C1340 0.950 . S
H1330 C1342 0.950 . S
H1331 C1343 0.950 . S
C1332 H1324 0.950 . S
C1332 C1333 1.386 . S
C1332 C1334 1.391 . S
C1333 C1332 1.386 . S
C1333 C1337 1.393 . S
C1334 H1326 0.950 . S
C1334 C1332 1.391 . S
C1334 C1335 1.400 . S
C1335 C1334 1.400 . S
C1335 C1336 1.398 . S
C1335 C1341 1.491 . S
C1336 H1327 0.950 . S
C1336 C1335 1.398 . S
C1336 C1337 1.391 . S
C1337 H1325 0.950 . S
C1337 C1333 1.393 . S
C1337 C1336 1.391 . S
C1338 H1328 0.950 . S
C1338 C1339 1.386 . S
C1338 C1340 1.391 . S
C1339 C1338 1.386 . S
C1339 C1343 1.393 . S
C1340 H1329 0.950 . S
C1340 C1338 1.391 . S
C1340 C1341 1.400 . S
C1341 C1335 1.491 . S
C1341 C1340 1.400 . S
C1341 C1342 1.398 . S
C1342 H1330 0.950 . S
C1342 C1341 1.398 . S
C1342 C1343 1.391 . S
C1343 H1331 0.950 . S
C1343 C1339 1.393 . S
C1343 C1342 1.391 . S
H1344 C1352 0.950 . S
H1345 C1357 0.950 . S
H1346 C1354 0.950 . S
H1347 C1356 0.950 . S
H1348 C1358 0.950 . S
H1349 C1360 0.950 . S
H1350 C1362 0.950 . S
H1351 C1363 0.950 . S
C1352 H1344 0.950 . S
C1352 C1353 1.386 . S
C1352 C1354 1.391 . S
C1353 C1352 1.386 . S
C1353 C1357 1.393 . S
C1354 H1346 0.950 . S
C1354 C1352 1.391 . S
C1354 C1355 1.400 . S
C1355 C1354 1.400 . S
C1355 C1356 1.398 . S
C1355 C1361 1.491 . S
C1356 H1347 0.950 . S
C1356 C1355 1.398 . S
C1356 C1357 1.391 . S
C1357 H1345 0.950 . S
C1357 C1353 1.393 . S
C1357 C1356 1.391 . S
C1358 H1348 0.950 . S
C1358 C1359 1.386 . S
C1358 C1360 1.391 . S
C1359 C1358 1.386 . S
C1359 C1363 1.393 . S
C1360 H1349 0.950 . S
C1360 C1358 1.391 . S
C1360 C1361 1.400 . S
C1361 C1355 1.491 . S
C1361 C1360 1.400 . S
C1361 C1362 1.398 . S
C1362 H1350 0.950 . S
C1362 C1361 1.398 . S
C1362 C1363 1.391 . S
C1363 H1351 0.950 . S
C1363 C1359 1.393 . S
C1363 C1362 1.391 . S
H1364 C1372 0.950 . S
H1365 C1377 0.950 . S
H1366 C1374 0.950 . S
H1367 C1376 0.950 . S
H1368 C1378 0.950 . S
H1369 C1380 0.950 . S
H1370 C1382 0.950 . S
H1371 C1383 0.950 . S
C1372 H1364 0.950 . S
C1372 C1373 1.386 . S
C1372 C1374 1.391 . S
C1373 C1372 1.386 . S
C1373 C1377 1.393 . S
C1374 H1366 0.950 . S
C1374 C1372 1.391 . S
C1374 C1375 1.400 . S
C1375 C1374 1.400 . S
C1375 C1376 1.398 . S
C1375 C1381 1.491 . S
C1376 H1367 0.950 . S
C1376 C1375 1.398 . S
C1376 C1377 1.391 . S
C1377 H1365 0.950 . S
C1377 C1373 1.393 . S
C1377 C1376 1.391 . S
C1378 H1368 0.950 . S
C1378 C1379 1.386 . S
C1378 C1380 1.391 . S
C1379 C1378 1.386 . S
C1379 C1383 1.393 . S
C1380 H1369 0.950 . S
C1380 C1378 1.391 . S
C1380 C1381 1.400 . S
C1381 C1375 1.491 . S
C1381 C1380 1.400 . S
C1381 C1382 1.398 . S
C1382 H1370 0.950 . S
C1382 C1381 1.398 . S
C1382 C1383 1.391 . S
C1383 H1371 0.950 . S
C1383 C1379 1.393 . S
C1383 C1382 1.391 . S
H1384 C1392 0.950 . S
H1385 C1397 0.950 . S
H1386 C1394 0.950 . S
H1387 C1396 0.950 . S
H1388 C1398 0.950 . S
H1389 C1400 0.950 . S
H1390 C1402 0.950 . S
H1391 C1403 0.950 . S
C1392 H1384 0.950 . S
C1392 C1393 1.386 . S
C1392 C1394 1.391 . S
C1393 C1392 1.386 . S
C1393 C1397 1.393 . S
C1394 H1386 0.950 . S
C1394 C1392 1.391 . S
C1394 C1395 1.400 . S
C1395 C1394 1.400 . S
C1395 C1396 1.398 . S
C1395 C1401 1.491 . S
C1396 H1387 0.950 . S
C1396 C1395 1.398 . S
C1396 C1397 1.391 . S
C1397 H1385 0.950 . S
C1397 C1393 1.393 . S
C1397 C1396 1.391 . S
C1398 H1388 0.950 . S
C1398 C1399 1.386 . S
C1398 C1400 1.391 . S
C1399 C1398 1.386 . S
C1399 C1403 1.393 . S
C1400 H1389 0.950 . S
C1400 C1398 1.391 . S
C1400 C1401 1.400 . S
C1401 C1395 1.491 . S
C1401 C1400 1.400 . S
C1401 C1402 1.398 . S
C1402 H1390 0.950 . S
C1402 C1401 1.398 . S
C1402 C1403 1.391 . S
C1403 H1391 0.950 . S
C1403 C1399 1.393 . S
C1403 C1402 1.391 . S
H1404 C1412 0.950 . S
H1405 C1417 0.950 . S
H1406 C1414 0.950 . S
H1407 C1416 0.950 . S
H1408 C1418 0.950 . S
H1409 C1420 0.950 . S
H1410 C1422 0.950 . S
H1411 C1423 0.950 . S
C1412 H1404 0.950 . S
C1412 C1413 1.386 . S
C1412 C1414 1.391 . S
C1413 C1412 1.386 . S
C1413 C1417 1.393 . S
C1414 H1406 0.950 . S
C1414 C1412 1.391 . S
C1414 C1415 1.400 . S
C1415 C1414 1.400 . S
C1415 C1416 1.398 . S
C1415 C1421 1.491 . S
C1416 H1407 0.950 . S
C1416 C1415 1.398 . S
C1416 C1417 1.391 . S
C1417 H1405 0.950 . S
C1417 C1413 1.393 . S
C1417 C1416 1.391 . S
C1418 H1408 0.950 . S
C1418 C1419 1.386 . S
C1418 C1420 1.391 . S
C1419 C1418 1.386 . S
C1419 C1423 1.393 . S
C1420 H1409 0.950 . S
C1420 C1418 1.391 . S
C1420 C1421 1.400 . S
C1421 C1415 1.491 . S
C1421 C1420 1.400 . S
C1421 C1422 1.398 . S
C1422 H1410 0.950 . S
C1422 C1421 1.398 . S
C1422 C1423 1.391 . S
C1423 H1411 0.950 . S
C1423 C1419 1.393 . S
C1423 C1422 1.391 . S
H1424 C1432 0.950 . S
H1425 C1437 0.950 . S
H1426 C1434 0.950 . S
H1427 C1436 0.950 . S
H1428 C1438 0.950 . S
H1429 C1440 0.950 . S
H1430 C1442 0.950 . S
H1431 C1443 0.950 . S
C1432 H1424 0.950 . S
C1432 C1433 1.386 . S
C1432 C1434 1.391 . S
C1433 C1432 1.386 . S
C1433 C1437 1.393 . S
C1434 H1426 0.950 . S
C1434 C1432 1.391 . S
C1434 C1435 1.400 . S
C1435 C1434 1.400 . S
C1435 C1436 1.398 . S
C1435 C1441 1.491 . S
C1436 H1427 0.950 . S
C1436 C1435 1.398 . S
C1436 C1437 1.391 . S
C1437 H1425 0.950 . S
C1437 C1433 1.393 . S
C1437 C1436 1.391 . S
C1438 H1428 0.950 . S
C1438 C1439 1.386 . S
C1438 C1440 1.391 . S
C1439 C1438 1.386 . S
C1439 C1443 1.393 . S
C1440 H1429 0.950 . S
C1440 C1438 1.391 . S
C1440 C1441 1.400 . S
C1441 C1435 1.491 . S
C1441 C1440 1.400 . S
C1441 C1442 1.398 . S
C1442 H1430 0.950 . S
C1442 C1441 1.398 . S
C1442 C1443 1.391 . S
C1443 H1431 0.950 . S
C1443 C1439 1.393 . S
C1443 C1442 1.391 . S
H1444 C1452 0.950 . S
H1445 C1457 0.950 . S
H1446 C1454 0.950 . S
H1447 C1456 0.950 . S
H1448 C1458 0.950 . S
H1449 C1460 0.950 . S
H1450 C1462 0.950 . S
H1451 C1463 0.950 . S
C1452 H1444 0.950 . S
C1452 C1453 1.386 . S
C1452 C1454 1.391 . S
C1453 C1452 1.386 . S
C1453 C1457 1.393 . S
C1454 H1446 0.950 . S
C1454 C1452 1.391 . S
C1454 C1455 1.400 . S
C1455 C1454 1.400 . S
C1455 C1456 1.398 . S
C1455 C1461 1.491 . S
C1456 H1447 0.950 . S
C1456 C1455 1.398 . S
C1456 C1457 1.391 . S
C1457 H1445 0.950 . S
C1457 C1453 1.393 . S
C1457 C1456 1.391 . S
C1458 H1448 0.950 . S
C1458 C1459 1.386 . S
C1458 C1460 1.391 . S
C1459 C1458 1.386 . S
C1459 C1463 1.393 . S
C1460 H1449 0.950 . S
C1460 C1458 1.391 . S
C1460 C1461 1.400 . S
C1461 C1455 1.491 . S
C1461 C1460 1.400 . S
C1461 C1462 1.398 . S
C1462 H1450 0.950 . S
C1462 C1461 1.398 . S
C1462 C1463 1.391 . S
C1463 H1451 0.950 . S
C1463 C1459 1.393 . S
C1463 C1462 1.391 . S
H1464 C1472 0.950 . S
H1465 C1477 0.950 . S
H1466 C1474 0.950 . S
H1467 C1476 0.950 . S
H1468 C1478 0.950 . S
H1469 C1480 0.950 . S
H1470 C1482 0.950 . S
H1471 C1483 0.950 . S
C1472 H1464 0.950 . S
C1472 C1473 1.386 . S
C1472 C1474 1.391 . S
C1473 C1472 1.386 . S
C1473 C1477 1.393 . S
C1474 H1466 0.950 . S
C1474 C1472 1.391 . S
C1474 C1475 1.400 . S
C1475 C1474 1.400 . S
C1475 C1476 1.398 . S
C1475 C1481 1.491 . S
C1476 H1467 0.950 . S
C1476 C1475 1.398 . S
C1476 C1477 1.391 . S
C1477 H1465 0.950 . S
C1477 C1473 1.393 . S
C1477 C1476 1.391 . S
C1478 H1468 0.950 . S
C1478 C1479 1.386 . S
C1478 C1480 1.391 . S
C1479 C1478 1.386 . S
C1479 C1483 1.393 . S
C1480 H1469 0.950 . S
C1480 C1478 1.391 . S
C1480 C1481 1.400 . S
C1481 C1475 1.491 . S
C1481 C1480 1.400 . S
C1481 C1482 1.398 . S
C1482 H1470 0.950 . S
C1482 C1481 1.398 . S
C1482 C1483 1.391 . S
C1483 H1471 0.950 . S
C1483 C1479 1.393 . S
C1483 C1482 1.391 . S
H1484 C1492 0.950 . S
H1485 C1497 0.950 . S
H1486 C1494 0.950 . S
H1487 C1496 0.950 . S
H1488 C1498 0.950 . S
H1489 C1500 0.950 . S
H1490 C1502 0.950 . S
H1491 C1503 0.950 . S
C1492 H1484 0.950 . S
C1492 C1493 1.386 . S
C1492 C1494 1.391 . S
C1493 C1492 1.386 . S
C1493 C1497 1.393 . S
C1494 H1486 0.950 . S
C1494 C1492 1.391 . S
C1494 C1495 1.400 . S
C1495 C1494 1.400 . S
C1495 C1496 1.398 . S
C1495 C1501 1.491 . S
C1496 H1487 0.950 . S
C1496 C1495 1.398 . S
C1496 C1497 1.391 . S
C1497 H1485 0.950 . S
C1497 C1493 1.393 . S
C1497 C1496 1.391 . S
C1498 H1488 0.950 . S
C1498 C1499 1.386 . S
C1498 C1500 1.391 . S
C1499 C1498 1.386 . S
C1499 C1503 1.393 . S
C1500 H1489 0.950 . S
C1500 C1498 1.391 . S
C1500 C1501 1.400 . S
C1501 C1495 1.491 . S
C1501 C1500 1.400 . S
C1501 C1502 1.398 . S
C1502 H1490 0.950 . S
C1502 C1501 1.398 . S
C1502 C1503 1.391 . S
C1503 H1491 0.950 . S
C1503 C1499 1.393 . S
C1503 C1502 1.391 . S
H1504 C1512 0.950 . S
H1505 C1517 0.950 . S
H1506 C1514 0.950 . S
H1507 C1516 0.950 . S
H1508 C1518 0.950 . S
H1509 C1520 0.950 . S
H1510 C1522 0.950 . S
H1511 C1523 0.950 . S
C1512 H1504 0.950 . S
C1512 C1513 1.386 . S
C1512 C1514 1.391 . S
C1513 C1512 1.386 . S
C1513 C1517 1.393 . S
C1514 H1506 0.950 . S
C1514 C1512 1.391 . S
C1514 C1515 1.400 . S
C1515 C1514 1.400 . S
C1515 C1516 1.398 . S
C1515 C1521 1.491 . S
C1516 H1507 0.950 . S
C1516 C1515 1.398 . S
C1516 C1517 1.391 . S
C1517 H1505 0.950 . S
C1517 C1513 1.393 . S
C1517 C1516 1.391 . S
C1518 H1508 0.950 . S
C1518 C1519 1.386 . S
C1518 C1520 1.391 . S
C1519 C1518 1.386 . S
C1519 C1523 1.393 . S
C1520 H1509 0.950 . S
C1520 C1518 1.391 . S
C1520 C1521 1.400 . S
C1521 C1515 1.491 . S
C1521 C1520 1.400 . S
C1521 C1522 1.398 . S
C1522 H1510 0.950 . S
C1522 C1521 1.398 . S
C1522 C1523 1.391 . S
C1523 H1511 0.950 . S
C1523 C1519 1.393 . S
C1523 C1522 1.391 . S
H1524 C1532 0.950 . S
H1525 C1537 0.950 . S
H1526 C1534 0.950 . S
H1527 C1536 0.950 . S
H1528 C1538 0.950 . S
H1529 C1540 0.950 . S
H1530 C1542 0.950 . S
H1531 C1543 0.950 . S
C1532 H1524 0.950 . S
C1532 C1533 1.386 . S
C1532 C1534 1.391 . S
C1533 C1532 1.386 . S
C1533 C1537 1.393 . S
C1534 H1526 0.950 . S
C1534 C1532 1.391 . S
C1534 C1535 1.400 . S
C1535 C1534 1.400 . S
C1535 C1536 1.398 . S
C1535 C1541 1.491 . S
C1536 H1527 0.950 . S
C1536 C1535 1.398 . S
C1536 C1537 1.391 . S
C1537 H1525 0.950 . S
C1537 C1533 1.393 . S
C1537 C1536 1.391 . S
C1538 H1528 0.950 . S
C1538 C1539 1.386 . S
C1538 C1540 1.391 . S
C1539 C1538 1.386 . S
C1539 C1543 1.393 . S
C1540 H1529 0.950 . S
C1540 C1538 1.391 . S
C1540 C1541 1.400 . S
C1541 C1535 1.491 . S
C1541 C1540 1.400 . S
C1541 C1542 1.398 . S
C1542 H1530 0.950 . S
C1542 C1541 1.398 . S
C1542 C1543 1.391 . S
C1543 H1531 0.950 . S
C1543 C1539 1.393 . S
C1543 C1542 1.391 . S
H1544 C1552 0.950 . S
H1545 C1557 0.950 . S
H1546 C1554 0.950 . S
H1547 C1556 0.950 . S
H1548 C1558 0.950 . S
H1549 C1560 0.950 . S
H1550 C1562 0.950 . S
H1551 C1563 0.950 . S
C1552 H1544 0.950 . S
C1552 C1553 1.386 . S
C1552 C1554 1.391 . S
C1553 C1552 1.386 . S
C1553 C1557 1.393 . S
C1554 H1546 0.950 . S
C1554 C1552 1.391 . S
C1554 C1555 1.400 . S
C1555 C1554 1.400 . S
C1555 C1556 1.398 . S
C1555 C1561 1.491 . S
C1556 H1547 0.950 . S
C1556 C1555 1.398 . S
C1556 C1557 1.391 . S
C1557 H1545 0.950 . S
C1557 C1553 1.393 . S
C1557 C1556 1.391 . S
C1558 H1548 0.950 . S
C1558 C1559 1.386 . S
C1558 C1560 1.391 . S
C1559 C1558 1.386 . S
C1559 C1563 1.393 . S
C1560 H1549 0.950 . S
C1560 C1558 1.391 . S
C1560 C1561 1.400 . S
C1561 C1555 1.491 . S
C1561 C1560 1.400 . S
C1561 C1562 1.398 . S
C1562 H1550 0.950 . S
C1562 C1561 1.398 . S
C1562 C1563 1.391 . S
C1563 H1551 0.950 . S
C1563 C1559 1.393 . S
C1563 C1562 1.391 . S
H1564 C1572 0.950 . S
H1565 C1577 0.950 . S
H1566 C1574 0.950 . S
H1567 C1576 0.950 . S
H1568 C1578 0.950 . S
H1569 C1580 0.950 . S
H1570 C1582 0.950 . S
H1571 C1583 0.950 . S
C1572 H1564 0.950 . S
C1572 C1573 1.386 . S
C1572 C1574 1.391 . S
C1573 C1572 1.386 . S
C1573 C1577 1.393 . S
C1574 H1566 0.950 . S
C1574 C1572 1.391 . S
C1574 C1575 1.400 . S
C1575 C1574 1.400 . S
C1575 C1576 1.398 . S
C1575 C1581 1.491 . S
C1576 H1567 0.950 . S
C1576 C1575 1.398 . S
C1576 C1577 1.391 . S
C1577 H1565 0.950 . S
C1577 C1573 1.393 . S
C1577 C1576 1.391 . S
C1578 H1568 0.950 . S
C1578 C1579 1.386 . S
C1578 C1580 1.391 . S
C1579 C1578 1.386 . S
C1579 C1583 1.393 . S
C1580 H1569 0.950 . S
C1580 C1578 1.391 . S
C1580 C1581 1.400 . S
C1581 C1575 1.491 . S
C1581 C1580 1.400 . S
C1581 C1582 1.398 . S
C1582 H1570 0.950 . S
C1582 C1581 1.398 . S
C1582 C1583 1.391 . S
C1583 H1571 0.950 . S
C1583 C1579 1.393 . S
C1583 C1582 1.391 . S
H1584 C1592 0.950 . S
H1585 C1597 0.950 . S
H1586 C1594 0.950 . S
H1587 C1596 0.950 . S
H1588 C1598 0.950 . S
H1589 C1600 0.950 . S
H1590 C1602 0.950 . S
H1591 C1603 0.950 . S
C1592 H1584 0.950 . S
C1592 C1593 1.386 . S
C1592 C1594 1.391 . S
C1593 C1592 1.386 . S
C1593 C1597 1.393 . S
C1594 H1586 0.950 . S
C1594 C1592 1.391 . S
C1594 C1595 1.400 . S
C1595 C1594 1.400 . S
C1595 C1596 1.398 . S
C1595 C1601 1.491 . S
C1596 H1587 0.950 . S
C1596 C1595 1.398 . S
C1596 C1597 1.391 . S
C1597 H1585 0.950 . S
C1597 C1593 1.393 . S
C1597 C1596 1.391 . S
C1598 H1588 0.950 . S
C1598 C1599 1.386 . S
C1598 C1600 1.391 . S
C1599 C1598 1.386 . S
C1599 C1603 1.393 . S
C1600 H1589 0.950 . S
C1600 C1598 1.391 . S
C1600 C1601 1.400 . S
C1601 C1595 1.491 . S
C1601 C1600 1.400 . S
C1601 C1602 1.398 . S
C1602 H1590 0.950 . S
C1602 C1601 1.398 . S
C1602 C1603 1.391 . S
C1603 H1591 0.950 . S
C1603 C1599 1.393 . S
C1603 C1602 1.391 . S
H1604 C1612 0.950 . S
H1605 C1617 0.950 . S
H1606 C1614 0.950 . S
H1607 C1616 0.950 . S
H1608 C1618 0.950 . S
H1609 C1620 0.950 . S
H1610 C1622 0.950 . S
H1611 C1623 0.950 . S
C1612 H1604 0.950 . S
C1612 C1613 1.386 . S
C1612 C1614 1.391 . S
C1613 C1612 1.386 . S
C1613 C1617 1.393 . S
C1614 H1606 0.950 . S
C1614 C1612 1.391 . S
C1614 C1615 1.400 . S
C1615 C1614 1.400 . S
C1615 C1616 1.398 . S
C1615 C1621 1.491 . S
C1616 H1607 0.950 . S
C1616 C1615 1.398 . S
C1616 C1617 1.391 . S
C1617 H1605 0.950 . S
C1617 C1613 1.393 . S
C1617 C1616 1.391 . S
C1618 H1608 0.950 . S
C1618 C1619 1.386 . S
C1618 C1620 1.391 . S
C1619 C1618 1.386 . S
C1619 C1623 1.393 . S
C1620 H1609 0.950 . S
C1620 C1618 1.391 . S
C1620 C1621 1.400 . S
C1621 C1615 1.491 . S
C1621 C1620 1.400 . S
C1621 C1622 1.398 . S
C1622 H1610 0.950 . S
C1622 C1621 1.398 . S
C1622 C1623 1.391 . S
C1623 H1611 0.950 . S
C1623 C1619 1.393 . S
C1623 C1622 1.391 . S
H1624 C1632 0.950 . S
H1625 C1637 0.950 . S
H1626 C1634 0.950 . S
H1627 C1636 0.950 . S
H1628 C1638 0.950 . S
H1629 C1640 0.950 . S
H1630 C1642 0.950 . S
H1631 C1643 0.950 . S
C1632 H1624 0.950 . S
C1632 C1633 1.386 . S
C1632 C1634 1.391 . S
C1633 C1632 1.386 . S
C1633 C1637 1.393 . S
C1634 H1626 0.950 . S
C1634 C1632 1.391 . S
C1634 C1635 1.400 . S
C1635 C1634 1.400 . S
C1635 C1636 1.398 . S
C1635 C1641 1.491 . S
C1636 H1627 0.950 . S
C1636 C1635 1.398 . S
C1636 C1637 1.391 . S
C1637 H1625 0.950 . S
C1637 C1633 1.393 . S
C1637 C1636 1.391 . S
C1638 H1628 0.950 . S
C1638 C1639 1.386 . S
C1638 C1640 1.391 . S
C1639 C1638 1.386 . S
C1639 C1643 1.393 . S
C1640 H1629 0.950 . S
C1640 C1638 1.391 . S
C1640 C1641 1.400 . S
C1641 C1635 1.491 . S
C1641 C1640 1.400 . S
C1641 C1642 1.398 . S
C1642 H1630 0.950 . S
C1642 C1641 1.398 . S
C1642 C1643 1.391 . S
C1643 H1631 0.950 . S
C1643 C1639 1.393 . S
C1643 C1642 1.391 . S
H1644 C1652 0.950 . S
H1645 C1657 0.950 . S
H1646 C1654 0.950 . S
H1647 C1656 0.950 . S
H1648 C1658 0.950 . S
H1649 C1660 0.950 . S
H1650 C1662 0.950 . S
H1651 C1663 0.950 . S
C1652 H1644 0.950 . S
C1652 C1653 1.386 . S
C1652 C1654 1.391 . S
C1653 C1652 1.386 . S
C1653 C1657 1.393 . S
C1654 H1646 0.950 . S
C1654 C1652 1.391 . S
C1654 C1655 1.400 . S
C1655 C1654 1.400 . S
C1655 C1656 1.398 . S
C1655 C1661 1.491 . S
C1656 H1647 0.950 . S
C1656 C1655 1.398 . S
C1656 C1657 1.391 . S
C1657 H1645 0.950 . S
C1657 C1653 1.393 . S
C1657 C1656 1.391 . S
C1658 H1648 0.950 . S
C1658 C1659 1.386 . S
C1658 C1660 1.391 . S
C1659 C1658 1.386 . S
C1659 C1663 1.393 . S
C1660 H1649 0.950 . S
C1660 C1658 1.391 . S
C1660 C1661 1.400 . S
C1661 C1655 1.491 . S
C1661 C1660 1.400 . S
C1661 C1662 1.398 . S
C1662 H1650 0.950 . S
C1662 C1661 1.398 . S
C1662 C1663 1.391 . S
C1663 H1651 0.950 . S
C1663 C1659 1.393 . S
C1663 C1662 1.391 . S
H1664 C1672 0.950 . S
H1665 C1677 0.950 . S
H1666 C1674 0.950 . S
H1667 C1676 0.950 . S
H1668 C1678 0.950 . S
H1669 C1680 0.950 . S
H1670 C1682 0.950 . S
H1671 C1683 0.950 . S
C1672 H1664 0.950 . S
C1672 C1673 1.386 . S
C1672 C1674 1.391 . S
C1673 C1672 1.386 . S
C1673 C1677 1.393 . S
C1674 H1666 0.950 . S
C1674 C1672 1.391 . S
C1674 C1675 1.400 . S
C1675 C1674 1.400 . S
C1675 C1676 1.398 . S
C1675 C1681 1.491 . S
C1676 H1667 0.950 . S
C1676 C1675 1.398 . S
C1676 C1677 1.391 . S
C1677 H1665 0.950 . S
C1677 C1673 1.393 . S
C1677 C1676 1.391 . S
C1678 H1668 0.950 . S
C1678 C1679 1.386 . S
C1678 C1680 1.391 . S
C1679 C1678 1.386 . S
C1679 C1683 1.393 . S
C1680 H1669 0.950 . S
C1680 C1678 1.391 . S
C1680 C1681 1.400 . S
C1681 C1675 1.491 . S
C1681 C1680 1.400 . S
C1681 C1682 1.398 . S
C1682 H1670 0.950 . S
C1682 C1681 1.398 . S
C1682 C1683 1.391 . S
C1683 H1671 0.950 . S
C1683 C1679 1.393 . S
C1683 C1682 1.391 . S
H1684 C1692 0.950 . S
H1685 C1697 0.950 . S
H1686 C1694 0.950 . S
H1687 C1696 0.950 . S
H1688 C1698 0.950 . S
H1689 C1700 0.950 . S
H1690 C1702 0.950 . S
H1691 C1703 0.950 . S
C1692 H1684 0.950 . S
C1692 C1693 1.386 . S
C1692 C1694 1.391 . S
C1693 C1692 1.386 . S
C1693 C1697 1.393 . S
C1694 H1686 0.950 . S
C1694 C1692 1.391 . S
C1694 C1695 1.400 . S
C1695 C1694 1.400 . S
C1695 C1696 1.398 . S
C1695 C1701 1.491 . S
C1696 H1687 0.950 . S
C1696 C1695 1.398 . S
C1696 C1697 1.391 . S
C1697 H1685 0.950 . S
C1697 C1693 1.393 . S
C1697 C1696 1.391 . S
C1698 H1688 0.950 . S
C1698 C1699 1.386 . S
C1698 C1700 1.391 . S
C1699 C1698 1.386 . S
C1699 C1703 1.393 . S
C1700 H1689 0.950 . S
C1700 C1698 1.391 . S
C1700 C1701 1.400 . S
C1701 C1695 1.491 . S
C1701 C1700 1.400 . S
C1701 C1702 1.398 . S
C1702 H1690 0.950 . S
C1702 C1701 1.398 . S
C1702 C1703 1.391 . S
C1703 H1691 0.950 . S
C1703 C1699 1.393 . S
C1703 C1702 1.391 . S
H1704 C1712 0.950 . S
H1705 C1717 0.950 . S
H1706 C1714 0.950 . S
H1707 C1716 0.950 . S
H1708 C1718 0.950 . S
H1709 C1720 0.950 . S
H1710 C1722 0.950 . S
H1711 C1723 0.950 . S
C1712 H1704 0.950 . S
C1712 C1713 1.386 . S
C1712 C1714 1.391 . S
C1713 C1712 1.386 . S
C1713 C1717 1.393 . S
C1714 H1706 0.950 . S
C1714 C1712 1.391 . S
C1714 C1715 1.400 . S
C1715 C1714 1.400 . S
C1715 C1716 1.398 . S
C1715 C1721 1.491 . S
C1716 H1707 0.950 . S
C1716 C1715 1.398 . S
C1716 C1717 1.391 . S
C1717 H1705 0.950 . S
C1717 C1713 1.393 . S
C1717 C1716 1.391 . S
C1718 H1708 0.950 . S
C1718 C1719 1.386 . S
C1718 C1720 1.391 . S
C1719 C1718 1.386 . S
C1719 C1723 1.393 . S
C1720 H1709 0.950 . S
C1720 C1718 1.391 . S
C1720 C1721 1.400 . S
C1721 C1715 1.491 . S
C1721 C1720 1.400 . S
C1721 C1722 1.398 . S
C1722 H1710 0.950 . S
C1722 C1721 1.398 . S
C1722 C1723 1.391 . S
C1723 H1711 0.950 . S
C1723 C1719 1.393 . S
C1723 C1722 1.391 . S
H1724 C1732 0.950 . S
H1725 C1737 0.950 . S
H1726 C1734 0.950 . S
H1727 C1736 0.950 . S
H1728 C1738 0.950 . S
H1729 C1740 0.950 . S
H1730 C1742 0.950 . S
H1731 C1743 0.950 . S
C1732 H1724 0.950 . S
C1732 C1733 1.386 . S
C1732 C1734 1.391 . S
C1733 C1732 1.386 . S
C1733 C1737 1.393 . S
C1734 H1726 0.950 . S
C1734 C1732 1.391 . S
C1734 C1735 1.400 . S
C1735 C1734 1.400 . S
C1735 C1736 1.398 . S
C1735 C1741 1.491 . S
C1736 H1727 0.950 . S
C1736 C1735 1.398 . S
C1736 C1737 1.391 . S
C1737 H1725 0.950 . S
C1737 C1733 1.393 . S
C1737 C1736 1.391 . S
C1738 H1728 0.950 . S
C1738 C1739 1.386 . S
C1738 C1740 1.391 . S
C1739 C1738 1.386 . S
C1739 C1743 1.393 . S
C1740 H1729 0.950 . S
C1740 C1738 1.391 . S
C1740 C1741 1.400 . S
C1741 C1735 1.491 . S
C1741 C1740 1.400 . S
C1741 C1742 1.398 . S
C1742 H1730 0.950 . S
C1742 C1741 1.398 . S
C1742 C1743 1.391 . S
C1743 H1731 0.950 . S
C1743 C1739 1.393 . S
C1743 C1742 1.391 . S
H1744 C1752 0.950 . S
H1745 C1757 0.950 . S
H1746 C1754 0.950 . S
H1747 C1756 0.950 . S
H1748 C1758 0.950 . S
H1749 C1760 0.950 . S
H1750 C1762 0.950 . S
H1751 C1763 0.950 . S
C1752 H1744 0.950 . S
C1752 C1753 1.386 . S
C1752 C1754 1.391 . S
C1753 C1752 1.386 . S
C1753 C1757 1.393 . S
C1754 H1746 0.950 . S
C1754 C1752 1.391 . S
C1754 C1755 1.400 . S
C1755 C1754 1.400 . S
C1755 C1756 1.398 . S
C1755 C1761 1.491 . S
C1756 H1747 0.950 . S
C1756 C1755 1.398 . S
C1756 C1757 1.391 . S
C1757 H1745 0.950 . S
C1757 C1753 1.393 . S
C1757 C1756 1.391 . S
C1758 H1748 0.950 . S
C1758 C1759 1.386 . S
C1758 C1760 1.391 . S
C1759 C1758 1.386 . S
C1759 C1763 1.393 . S
C1760 H1749 0.950 . S
C1760 C1758 1.391 . S
C1760 C1761 1.400 . S
C1761 C1755 1.491 . S
C1761 C1760 1.400 . S
C1761 C1762 1.398 . S
C1762 H1750 0.950 . S
C1762 C1761 1.398 . S
C1762 C1763 1.391 . S
C1763 H1751 0.950 . S
C1763 C1759 1.393 . S
C1763 C1762 1.391 . S
H1764 C1772 0.950 . S
H1765 C1777 0.950 . S
H1766 C1774 0.950 . S
H1767 C1776 0.950 . S
H1768 C1778 0.950 . S
H1769 C1780 0.950 . S
H1770 C1782 0.950 . S
H1771 C1783 0.950 . S
C1772 H1764 0.950 . S
C1772 C1773 1.386 . S
C1772 C1774 1.391 . S
C1773 C1772 1.386 . S
C1773 C1777 1.393 . S
C1774 H1766 0.950 . S
C1774 C1772 1.391 . S
C1774 C1775 1.400 . S
C1775 C1774 1.400 . S
C1775 C1776 1.398 . S
C1775 C1781 1.491 . S
C1776 H1767 0.950 . S
C1776 C1775 1.398 . S
C1776 C1777 1.391 . S
C1777 H1765 0.950 . S
C1777 C1773 1.393 . S
C1777 C1776 1.391 . S
C1778 H1768 0.950 . S
C1778 C1779 1.386 . S
C1778 C1780 1.391 . S
C1779 C1778 1.386 . S
C1779 C1783 1.393 . S
C1780 H1769 0.950 . S
C1780 C1778 1.391 . S
C1780 C1781 1.400 . S
C1781 C1775 1.491 . S
C1781 C1780 1.400 . S
C1781 C1782 1.398 . S
C1782 H1770 0.950 . S
C1782 C1781 1.398 . S
C1782 C1783 1.391 . S
C1783 H1771 0.950 . S
C1783 C1779 1.393 . S
C1783 C1782 1.391 . S
H1784 C1792 0.950 . S
H1785 C1797 0.950 . S
H1786 C1794 0.950 . S
H1787 C1796 0.950 . S
H1788 C1798 0.950 . S
H1789 C1800 0.950 . S
H1790 C1802 0.950 . S
H1791 C1803 0.950 . S
C1792 H1784 0.950 . S
C1792 C1793 1.386 . S
C1792 C1794 1.391 . S
C1793 C1792 1.386 . S
C1793 C1797 1.393 . S
C1794 H1786 0.950 . S
C1794 C1792 1.391 . S
C1794 C1795 1.400 . S
C1795 C1794 1.400 . S
C1795 C1796 1.398 . S
C1795 C1801 1.491 . S
C1796 H1787 0.950 . S
C1796 C1795 1.398 . S
C1796 C1797 1.391 . S
C1797 H1785 0.950 . S
C1797 C1793 1.393 . S
C1797 C1796 1.391 . S
C1798 H1788 0.950 . S
C1798 C1799 1.386 . S
C1798 C1800 1.391 . S
C1799 C1798 1.386 . S
C1799 C1803 1.393 . S
C1800 H1789 0.950 . S
C1800 C1798 1.391 . S
C1800 C1801 1.400 . S
C1801 C1795 1.491 . S
C1801 C1800 1.400 . S
C1801 C1802 1.398 . S
C1802 H1790 0.950 . S
C1802 C1801 1.398 . S
C1802 C1803 1.391 . S
C1803 H1791 0.950 . S
C1803 C1799 1.393 . S
C1803 C1802 1.391 . S
H1804 C1812 0.950 . S
H1805 C1817 0.950 . S
H1806 C1814 0.950 . S
H1807 C1816 0.950 . S
H1808 C1818 0.950 . S
H1809 C1820 0.950 . S
H1810 C1822 0.950 . S
H1811 C1823 0.950 . S
C1812 H1804 0.950 . S
C1812 C1813 1.386 . S
C1812 C1814 1.391 . S
C1813 C1812 1.386 . S
C1813 C1817 1.393 . S
C1814 H1806 0.950 . S
C1814 C1812 1.391 . S
C1814 C1815 1.400 . S
C1815 C1814 1.400 . S
C1815 C1816 1.398 . S
C1815 C1821 1.491 . S
C1816 H1807 0.950 . S
C1816 C1815 1.398 . S
C1816 C1817 1.391 . S
C1817 H1805 0.950 . S
C1817 C1813 1.393 . S
C1817 C1816 1.391 . S
C1818 H1808 0.950 . S
C1818 C1819 1.386 . S
C1818 C1820 1.391 . S
C1819 C1818 1.386 . S
C1819 C1823 1.393 . S
C1820 H1809 0.950 . S
C1820 C1818 1.391 . S
C1820 C1821 1.400 . S
C1821 C1815 1.491 . S
C1821 C1820 1.400 . S
C1821 C1822 1.398 . S
C1822 H1810 0.950 . S
C1822 C1821 1.398 . S
C1822 C1823 1.391 . S
C1823 H1811 0.950 . S
C1823 C1819 1.393 . S
C1823 C1822 1.391 . S
C879 C689 1.510 . S
C873 C74 1.406 . S
C899 C694 0.620 . S
C893 C142 0.958 . S
C919 C695 1.523 . S
C913 C231 1.410 . S
C933 C322 1.293 . S
C939 C699 1.383 . S
C953 C406 1.006 . S
C959 C702 0.686 . S
C979 C703 1.519 . S
C973 C494 1.416 . S
C993 C562 1.294 . S
C999 C680 1.381 . S
C1013 C651 1.399 . S
C1019 C696 1.519 . S
C1039 C734 1.346 . S
C1033 C58 1.310 . S
C1053 C151 1.495 . S
C1059 C760 1.508 . S
C1079 C712 2.434 . S
C1073 C224 2.370 . S
C1099 C767 1.408 . S
C1093 C315 1.375 . S
C1113 C399 1.380 . S
C1119 C721 1.413 . S
C1139 C763 1.346 . S
C1133 C478 1.303 . S
C1153 C571 1.475 . S
C1159 C727 1.524 . S
C1173 C644 2.351 . S
C1179 C758 2.436 . S
C1193 C67 2.335 . S
C1199 C766 2.422 . S
C1213 C392 1.496 . S
C1219 C753 1.520 . S
C1239 C731 2.435 . S
C1233 C487 2.355 . S
C1259 C759 1.394 . S
C1253 C578 1.366 . S
C1273 C658 1.292 . S
C1279 C726 1.351 . S
C1293 C238 1.268 . S
C1299 C744 1.359 . S
C1319 C735 1.519 . S
C1313 C308 1.472 . S
C1333 C158 1.373 . S
C1339 C728 1.408 . S
C1353 C662 1.375 . S
C1359 C790 1.438 . S
C1373 C394 1.021 . S
C1379 C785 0.384 . S
C1399 C799 1.432 . S
C1393 C483 1.413 . S
C1419 C776 1.335 . S
C1413 C574 1.269 . S
C1433 C154 1.013 . S
C1439 C792 0.343 . S
C1459 C791 1.409 . S
C1453 C242 1.378 . S
C1473 C310 1.253 . S
C1479 C795 1.351 . S
C1493 C63 1.395 . S
C1499 C798 1.417 . S
C1513 C646 1.320 . S
C1519 C824 1.395 . S
C1539 C840 1.527 . S
C1533 C403 1.505 . S
C1553 C476 2.372 . S
C1559 C822 2.485 . S
C1573 C567 1.373 . S
C1579 C855 1.376 . S
C1599 C831 1.352 . S
C1593 C147 1.374 . S
C1613 C226 1.307 . S
C1619 C849 1.363 . S
C1639 C827 1.485 . S
C1633 C319 1.435 . S
C1659 C862 2.461 . S
C1653 C56 2.367 . S
C1679 C854 2.469 . S
C1673 C655 2.388 . S
C1693 C140 1.496 . S
C1699 C859 1.505 . S
C1713 C235 2.364 . S
C1719 C830 2.490 . S
C1739 C863 1.394 . S
C1733 C326 1.374 . S
C1753 C70 1.321 . S
C1759 C817 1.398 . S
C1773 C490 1.315 . S
C1779 C856 1.356 . S
C1799 C808 1.498 . S
C1793 C560 1.428 . S
C1819 C823 1.363 . S
C1813 C410 1.384 . S
