# Generated by pormake.
# Topology soc, (4,6)-cn, num edge types: 1
# Building blocks:
#     Node 0, Type 0, BuildingBlock: ESEHIV_clean_sbu_0, # of connection points: 4
#     Node 1, Type 0, BuildingBlock: ESEHIV_clean_sbu_0, # of connection points: 4
#     Node 2, Type 0, BuildingBlock: ESEHIV_clean_sbu_0, # of connection points: 4
#     Node 3, Type 0, BuildingBlock: ESEHIV_clean_sbu_0, # of connection points: 4
#     Node 4, Type 0, BuildingBlock: ESEHIV_clean_sbu_0, # of connection points: 4
#     Node 5, Type 0, BuildingBlock: ESEHIV_clean_sbu_0, # of connection points: 4
#     Node 6, Type 0, BuildingBlock: ESEHIV_clean_sbu_0, # of connection points: 4
#     Node 7, Type 0, BuildingBlock: ESEHIV_clean_sbu_0, # of connection points: 4
#     Node 8, Type 0, BuildingBlock: ESEHIV_clean_sbu_0, # of connection points: 4
#     Node 9, Type 0, BuildingBlock: ESEHIV_clean_sbu_0, # of connection points: 4
#     Node 10, Type 0, BuildingBlock: ESEHIV_clean_sbu_0, # of connection points: 4
#     Node 11, Type 0, BuildingBlock: ESEHIV_clean_sbu_0, # of connection points: 4
#     Node 12, Type 1, BuildingBlock: PAMTUU_clean_sbu_0, # of connection points: 6
#     Node 13, Type 1, BuildingBlock: PAMTUU_clean_sbu_0, # of connection points: 6
#     Node 14, Type 1, BuildingBlock: PAMTUU_clean_sbu_0, # of connection points: 6
#     Node 15, Type 1, BuildingBlock: PAMTUU_clean_sbu_0, # of connection points: 6
#     Node 16, Type 1, BuildingBlock: PAMTUU_clean_sbu_0, # of connection points: 6
#     Node 17, Type 1, BuildingBlock: PAMTUU_clean_sbu_0, # of connection points: 6
#     Node 18, Type 1, BuildingBlock: PAMTUU_clean_sbu_0, # of connection points: 6
#     Node 19, Type 1, BuildingBlock: PAMTUU_clean_sbu_0, # of connection points: 6
#     Edge 20, Type (0, 1), BuildingBlock: CIFDUS_clean_linker_0, # of connection points: 2
#     Edge 21, Type (0, 1), BuildingBlock: CIFDUS_clean_linker_0, # of connection points: 2
#     Edge 22, Type (0, 1), BuildingBlock: CIFDUS_clean_linker_0, # of connection points: 2
#     Edge 23, Type (0, 1), BuildingBlock: CIFDUS_clean_linker_0, # of connection points: 2
#     Edge 24, Type (0, 1), BuildingBlock: CIFDUS_clean_linker_0, # of connection points: 2
#     Edge 25, Type (0, 1), BuildingBlock: CIFDUS_clean_linker_0, # of connection points: 2
#     Edge 26, Type (0, 1), BuildingBlock: CIFDUS_clean_linker_0, # of connection points: 2
#     Edge 27, Type (0, 1), BuildingBlock: CIFDUS_clean_linker_0, # of connection points: 2
#     Edge 28, Type (0, 1), BuildingBlock: CIFDUS_clean_linker_0, # of connection points: 2
#     Edge 29, Type (0, 1), BuildingBlock: CIFDUS_clean_linker_0, # of connection points: 2
#     Edge 30, Type (0, 1), BuildingBlock: CIFDUS_clean_linker_0, # of connection points: 2
#     Edge 31, Type (0, 1), BuildingBlock: CIFDUS_clean_linker_0, # of connection points: 2
#     Edge 32, Type (0, 1), BuildingBlock: CIFDUS_clean_linker_0, # of connection points: 2
#     Edge 33, Type (0, 1), BuildingBlock: CIFDUS_clean_linker_0, # of connection points: 2
#     Edge 34, Type (0, 1), BuildingBlock: CIFDUS_clean_linker_0, # of connection points: 2
#     Edge 35, Type (0, 1), BuildingBlock: CIFDUS_clean_linker_0, # of connection points: 2
#     Edge 36, Type (0, 1), BuildingBlock: CIFDUS_clean_linker_0, # of connection points: 2
#     Edge 37, Type (0, 1), BuildingBlock: CIFDUS_clean_linker_0, # of connection points: 2
#     Edge 38, Type (0, 1), BuildingBlock: CIFDUS_clean_linker_0, # of connection points: 2
#     Edge 39, Type (0, 1), BuildingBlock: CIFDUS_clean_linker_0, # of connection points: 2
#     Edge 40, Type (0, 1), BuildingBlock: CIFDUS_clean_linker_0, # of connection points: 2
#     Edge 41, Type (0, 1), BuildingBlock: CIFDUS_clean_linker_0, # of connection points: 2
#     Edge 42, Type (0, 1), BuildingBlock: CIFDUS_clean_linker_0, # of connection points: 2
#     Edge 43, Type (0, 1), BuildingBlock: CIFDUS_clean_linker_0, # of connection points: 2
#     Edge 44, Type (0, 1), BuildingBlock: CIFDUS_clean_linker_0, # of connection points: 2
#     Edge 45, Type (0, 1), BuildingBlock: CIFDUS_clean_linker_0, # of connection points: 2
#     Edge 46, Type (0, 1), BuildingBlock: CIFDUS_clean_linker_0, # of connection points: 2
#     Edge 47, Type (0, 1), BuildingBlock: CIFDUS_clean_linker_0, # of connection points: 2
#     Edge 48, Type (0, 1), BuildingBlock: CIFDUS_clean_linker_0, # of connection points: 2
#     Edge 49, Type (0, 1), BuildingBlock: CIFDUS_clean_linker_0, # of connection points: 2
#     Edge 50, Type (0, 1), BuildingBlock: CIFDUS_clean_linker_0, # of connection points: 2
#     Edge 51, Type (0, 1), BuildingBlock: CIFDUS_clean_linker_0, # of connection points: 2
#     Edge 52, Type (0, 1), BuildingBlock: CIFDUS_clean_linker_0, # of connection points: 2
#     Edge 53, Type (0, 1), BuildingBlock: CIFDUS_clean_linker_0, # of connection points: 2
#     Edge 54, Type (0, 1), BuildingBlock: CIFDUS_clean_linker_0, # of connection points: 2
#     Edge 55, Type (0, 1), BuildingBlock: CIFDUS_clean_linker_0, # of connection points: 2
#     Edge 56, Type (0, 1), BuildingBlock: CIFDUS_clean_linker_0, # of connection points: 2
#     Edge 57, Type (0, 1), BuildingBlock: CIFDUS_clean_linker_0, # of connection points: 2
#     Edge 58, Type (0, 1), BuildingBlock: CIFDUS_clean_linker_0, # of connection points: 2
#     Edge 59, Type (0, 1), BuildingBlock: CIFDUS_clean_linker_0, # of connection points: 2
#     Edge 60, Type (0, 1), BuildingBlock: CIFDUS_clean_linker_0, # of connection points: 2
#     Edge 61, Type (0, 1), BuildingBlock: CIFDUS_clean_linker_0, # of connection points: 2
#     Edge 62, Type (0, 1), BuildingBlock: CIFDUS_clean_linker_0, # of connection points: 2
#     Edge 63, Type (0, 1), BuildingBlock: CIFDUS_clean_linker_0, # of connection points: 2
#     Edge 64, Type (0, 1), BuildingBlock: CIFDUS_clean_linker_0, # of connection points: 2
#     Edge 65, Type (0, 1), BuildingBlock: CIFDUS_clean_linker_0, # of connection points: 2
#     Edge 66, Type (0, 1), BuildingBlock: CIFDUS_clean_linker_0, # of connection points: 2
#     Edge 67, Type (0, 1), BuildingBlock: CIFDUS_clean_linker_0, # of connection points: 2
# Relax obj value: 0.153
# Max RMSD: 0.261
# Mean RMSD: 0.164
data_MOF--net-soc--node1-ESEHIV_clean_sbu_0--node2-PAMTUU_clean_sbu_0--edge1-CIFDUS_clean_linker_0
_symmetry_space_group_name_H-M    P1
_symmetry_Int_Tables_number       1
_symmetry_cell_setting            triclinic
loop_
_symmetry_equiv_pos_as_xyz
'x, y, z'
_cell_length_a     46.43647
_cell_length_b     45.194917
_cell_length_c     38.27561
_cell_angle_alpha  81.348265
_cell_angle_beta   81.232864
_cell_angle_gamma 69.146154
loop_
_atom_site_label
_atom_site_type_symbol
_atom_site_fract_x
_atom_site_fract_y
_atom_site_fract_z
_atom_type_partial_charge
Cu0 Cu 0.04323 0.04628 0.38735 0.0
N1 N 0.06085 0.06677 0.41253 0.0
N2 N 0.0892 0.09485 0.42276 0.0
C3 C 0.08189 0.08064 0.39845 0.0
C4 C 0.07203 0.08973 0.45328 0.0
C5 C 0.05445 0.07258 0.44686 0.0
O6 O 0.0767 0.01606 0.35986 0.0
C7 C 0.99092 0.09786 0.38047 0.0
O8 O 0.99233 0.09293 0.41497 0.0
H9 H 0.09146 0.08047 0.37084 0.0
H10 H 0.03742 0.06588 0.46565 0.0
N11 N 1.02245 0.0221 0.4174 0.0
N12 N 0.99333 0.99115 0.43226 0.0
C13 C 1.00286 0.01046 0.4064 0.0
C14 C 0.02554 0.0097 0.45145 0.0
C15 C 1.0074 0.99074 0.46076 0.0
C16 C 0.09576 0.99518 0.37938 0.0
O17 O 0.09173 0.9976 0.41369 0.0
H18 H 0.99631 0.0156 0.37961 0.0
H19 H 0.041 0.01285 0.46786 0.0
O20 O 1.01209 0.07918 0.36068 0.0
H21 H 0.07133 0.09876 0.47815 0.0
H22 H 1.00591 0.97655 0.48596 0.0
Cu23 Cu 0.05314 0.04222 0.75566 0.0
N24 N 0.04223 0.01926 0.72659 0.0
N25 N 1.01979 0.9881 0.71001 0.0
C26 C 1.01835 0.00824 0.73349 0.0
C27 C 0.04555 0.98651 0.68748 0.0
C28 C 0.0594 0.00562 0.6979 0.0
O29 O 1.01604 0.07054 0.78068 0.0
C30 C 0.11168 1.00166 0.77547 0.0
O31 O 0.12147 0.01538 0.74565 0.0
H32 H 1.00137 0.01339 0.75652 0.0
H33 H 0.08129 0.00814 0.68644 0.0
N34 N 0.07235 0.06919 0.7288 0.0
N35 N 0.09756 0.10393 0.7179 0.0
C36 C 0.08496 0.08647 0.74301 0.0
C37 C 0.07648 0.07626 0.69339 0.0
C38 C 0.09216 0.09769 0.68656 0.0
C39 C 0.99732 0.09143 0.76075 0.0
O40 O 1.00301 0.09017 0.7262 0.0
H41 H 0.08466 0.08619 0.77137 0.0
H42 H 0.06867 0.06662 0.67394 0.0
O43 O 0.08267 0.01066 0.78593 0.0
H44 H 0.05425 0.97191 0.66564 0.0
H45 H 0.09943 0.10743 0.66054 0.0
Cu46 Cu 0.34177 0.05903 0.116 0.0
N47 N 0.37582 0.02765 0.09546 0.0
N48 N 0.4009 0.98746 0.06245 0.0
C49 C 0.37609 0.01418 0.06635 0.0
C50 C 0.41713 0.9842 0.09004 0.0
C51 C 0.40157 0.00903 0.11038 0.0
O52 O 0.3188 0.03515 0.14981 0.0
C53 C 0.33669 0.09769 0.05001 0.0
O54 O 0.36688 0.08354 0.04739 0.0
H55 H 0.35679 0.02202 0.05047 0.0
H56 H 0.40733 0.01189 0.13571 0.0
N57 N 0.35582 0.08176 0.14249 0.0
N58 N 0.35611 0.11546 0.17974 0.0
C59 C 0.33901 0.10143 0.16708 0.0
C60 C 0.38445 0.08344 0.13934 0.0
C61 C 0.38476 0.104 0.16231 0.0
C62 C 0.31596 0.00946 0.14305 0.0
O63 O 0.32292 1.00191 0.11026 0.0
H64 H 0.31452 0.10601 0.17467 0.0
H65 H 0.40367 0.07099 0.12115 0.0
O66 O 0.32027 0.0902 0.07767 0.0
H67 H 0.4376 0.96422 0.09639 0.0
H68 H 0.40465 0.10999 0.16576 0.0
Cu69 Cu 0.08272 0.31021 0.13002 0.0
N70 N 0.0974 0.33344 0.09115 0.0
N71 N 0.12368 0.34012 0.03823 0.0
C72 C 0.11609 0.31919 0.06359 0.0
C73 C 0.10928 0.36888 0.05044 0.0
C74 C 0.09288 0.36471 0.08307 0.0
O75 O 0.11419 0.29523 0.16448 0.0
C76 C 0.05113 0.29384 0.08616 0.0
O77 O 0.04065 0.32509 0.08192 0.0
H78 H 0.12424 0.2937 0.06248 0.0
H79 H 0.07882 0.38317 0.09959 0.0
N80 N 0.04467 0.33291 0.15371 0.0
N81 N 0.99657 0.33948 0.17992 0.0
C82 C 1.02402 0.31863 0.16798 0.0
C83 C 0.03006 0.36408 0.15715 0.0
C84 C 1.00034 0.36819 0.17346 0.0
C85 C 0.12247 0.31688 0.17373 0.0
O86 O 0.10942 0.34638 0.16023 0.0
H87 H 0.02904 0.29328 0.16872 0.0
H88 H 0.0398 0.3826 0.14753 0.0
O89 O 0.07192 0.27957 0.1074 0.0
H90 H 0.1102 0.39131 0.03665 0.0
H91 H 0.9826 0.39072 0.17878 0.0
Cu92 Cu 0.80732 0.00687 1.01108 0.0
N93 N 0.83377 0.02394 0.97999 0.0
N94 N 0.84625 0.06239 0.9441 0.0
C95 C 0.82724 0.05548 0.97185 0.0
C96 C 0.86564 0.03389 0.93433 0.0
C97 C 0.85781 0.01017 0.9565 0.0
O98 O 0.78638 0.03998 0.04343 0.0
C99 C 0.77705 0.97013 0.98502 0.0
O100 O 0.77893 0.95397 1.0166 0.0
H101 H 0.80727 0.07304 0.98429 0.0
H102 H 0.86762 0.98489 0.95413 0.0
N103 N 0.82857 0.97024 0.03918 0.0
N104 N 0.83826 0.9347 0.08708 0.0
C105 C 0.8176 0.96105 0.07205 0.0
C106 C 0.85718 0.94894 0.03304 0.0
C107 C 0.86327 0.92699 0.06263 0.0
C108 C 0.80569 0.04411 0.06115 0.0
O109 O 0.83482 0.02555 0.0567 0.0
H110 H 0.79517 0.97407 0.08504 0.0
H111 H 0.87269 0.94953 1.00905 0.0
O112 O 0.78407 0.99543 0.97964 0.0
H113 H 0.88331 0.03042 0.91186 0.0
H114 H 0.88443 0.90694 0.06588 0.0
Cu115 Cu 0.02857 0.75713 0.03301 0.0
N116 N 1.00687 0.73905 1.00982 0.0
N117 N 0.97081 0.73417 0.98038 0.0
C118 C 0.98543 0.75365 0.98671 0.0
C119 C 0.98358 0.7064 1.00012 0.0
C120 C 1.00569 0.70947 1.01814 0.0
O121 O 0.9974 0.78025 0.07109 0.0
C122 C 0.07717 0.78372 1.00332 0.0
O123 O 0.07975 0.78521 0.03662 0.0
H124 H 0.97931 0.77854 0.97654 0.0
H125 H 1.01884 0.69185 0.03748 0.0
N126 N 0.05956 0.7249 0.05597 0.0
N127 N 0.10135 0.7076 0.0856 0.0
C128 C 0.07313 0.72978 0.08212 0.0
C129 C 0.07943 0.69812 0.04299 0.0
C130 C 0.10521 0.68729 0.06135 0.0
C131 C 0.99058 0.76342 0.09928 0.0
O132 O 1.0055 0.73259 0.10229 0.0
H133 H 0.06424 0.75152 0.09496 0.0
H134 H 0.0769 0.6891 1.01944 0.0
O135 O 0.05392 0.77729 0.99634 0.0
H136 H 0.97665 0.68566 1.00228 0.0
H137 H 0.12618 0.66762 0.05519 0.0
Cu138 Cu 0.54146 0.53655 0.89323 0.0
N139 N 0.55683 0.55909 0.91809 0.0
N140 N 0.58517 0.58718 0.92801 0.0
C141 C 0.57775 0.57297 0.90387 0.0
C142 C 0.56804 0.58214 0.95865 0.0
C143 C 0.55059 0.56469 0.95245 0.0
O144 O 0.5769 0.50717 0.86632 0.0
C145 C 0.48495 0.58343 0.88828 0.0
O146 O 0.48648 0.5769 0.92272 0.0
H147 H 0.58712 0.57278 0.87619 0.0
H148 H 0.53464 0.55655 0.97161 0.0
N149 N 0.52344 0.51041 0.92372 0.0
N150 N 0.49618 0.47778 0.93804 0.0
C151 C 0.5017 0.50086 0.9144 0.0
C152 C 0.53196 0.49292 0.95456 0.0
C153 C 0.51517 0.47253 0.96341 0.0
C154 C 0.59921 0.49085 0.88476 0.0
O155 O 0.59695 0.49648 0.91792 0.0
H156 H 0.49176 0.50909 0.8894 0.0
H157 H 0.55017 0.49368 0.96857 0.0
O158 O 0.508 0.56798 0.86758 0.0
H159 H 0.56842 0.59004 0.98385 0.0
H160 H 0.51753 0.45451 0.98592 0.0
Cu161 Cu 0.55165 0.56178 0.24991 0.0
N162 N 0.53401 0.54394 0.22193 0.0
N163 N 0.50358 0.51985 0.20776 0.0
C164 C 0.51194 0.531 0.23397 0.0
C165 C 0.52115 0.52611 0.17803 0.0
C166 C 0.53996 0.54093 0.18689 0.0
O167 O 0.5172 0.58967 0.2782 0.0
C168 C 0.60297 0.50902 0.25684 0.0
O169 O 0.60321 0.51541 0.22218 0.0
H170 H 0.50203 0.53013 0.26144 0.0
H171 H 0.55696 0.54866 0.16912 0.0
N172 N 0.57299 0.58612 0.22164 0.0
N173 N 0.60555 0.61336 0.20725 0.0
C174 C 0.59771 0.59115 0.23037 0.0
C175 C 0.56498 0.60553 0.19181 0.0
C176 C 0.5851 0.62237 0.1828 0.0
C177 C 0.51556 0.61709 0.28473 0.0
O178 O 0.54042 0.62532 0.27815 0.0
H179 H 0.60828 0.58034 0.2546 0.0
H180 H 0.54507 0.60831 0.17854 0.0
O181 O 0.5812 0.52719 0.27644 0.0
H182 H 0.52089 0.51987 0.15189 0.0
H183 H 0.58409 0.64055 0.16065 0.0
Cu184 Cu 0.80533 0.58094 0.61822 0.0
N185 N 0.78265 0.60567 0.58131 0.0
N186 N 0.77576 0.63755 0.5303 0.0
C187 C 0.78776 0.63099 0.56172 0.0
C188 C 0.76195 0.61583 0.53041 0.0
C189 C 0.76625 0.5962 0.56193 0.0
O190 O 0.81801 0.60749 0.64499 0.0
C191 C 0.84627 0.54537 0.56417 0.0
O192 O 0.84456 0.57314 0.54661 0.0
H193 H 0.80276 0.64227 0.56864 0.0
H194 H 0.76038 0.57477 0.56876 0.0
N195 N 0.78085 0.56302 0.6513 0.0
N196 N 0.7704 0.52303 0.68603 0.0
C197 C 0.78225 0.53251 0.65376 0.0
C198 C 0.76729 0.57328 0.683 0.0
C199 C 0.76097 0.54853 0.70461 0.0
C200 C 0.83505 0.62454 0.63452 0.0
O201 O 0.84987 0.62296 0.60238 0.0
H202 H 0.79481 0.51658 0.63388 0.0
H203 H 0.7651 0.59601 0.691 0.0
O204 O 0.83641 0.54421 0.59713 0.0
H205 H 0.75115 0.61314 0.50852 0.0
H206 H 0.75238 0.54846 0.73254 0.0
Cu207 Cu 0.57238 0.80189 0.62246 0.0
N208 N 0.6073 0.78286 0.58896 0.0
N209 N 0.64398 0.77944 0.5417 0.0
C210 C 0.61982 0.79895 0.56152 0.0
C211 C 0.64675 0.74985 0.55743 0.0
C212 C 0.62443 0.75202 0.5864 0.0
O213 O 0.58898 0.8138 0.66044 0.0
C214 C 0.53821 0.82367 0.56857 0.0
O215 O 0.55222 0.7931 0.56577 0.0
H216 H 0.611 0.82459 0.55588 0.0
H217 H 0.62114 0.73236 0.60438 0.0
N218 N 0.54698 0.77724 0.64469 0.0
N219 N 0.50427 0.76628 0.6718 0.0
C220 C 0.51817 0.7887 0.66265 0.0
C221 C 0.55138 0.74645 0.64269 0.0
C222 C 0.52542 0.7397 0.6592 0.0
C223 C 0.60945 0.82726 0.65494 0.0
O224 O 0.61677 0.83835 0.62238 0.0
H225 H 0.50707 0.81341 0.66754 0.0
H226 H 0.57161 0.73014 0.62919 0.0
O227 O 0.54371 0.83559 0.59393 0.0
H228 H 0.66409 0.72808 0.54903 0.0
H229 H 0.52232 0.71685 0.66138 0.0
Cu230 Cu 0.30128 0.51136 0.53153 0.0
N231 N 0.32233 0.53616 0.50078 0.0
N232 N 0.32987 0.58053 0.47155 0.0
C233 C 0.31145 0.56842 0.49585 0.0
C234 C 0.35329 0.55471 0.46052 0.0
C235 C 0.34863 0.52749 0.47856 0.0
O236 O 0.27501 0.54156 0.56406 0.0
C237 C 0.27734 0.50151 0.47099 0.0
O238 O 0.28448 0.52631 0.45541 0.0
H239 H 0.28984 0.58279 0.50923 0.0
H240 H 0.36316 0.50314 0.47526 0.0
N241 N 0.32623 0.47669 0.5604 0.0
N242 N 0.33925 0.4393 0.60692 0.0
C243 C 0.31601 0.46285 0.59136 0.0
C244 C 0.35698 0.46125 0.55606 0.0
C245 C 0.36505 0.43832 0.58457 0.0
C246 C 0.29209 0.55018 0.58055 0.0
O247 O 0.32221 0.53538 0.57655 0.0
H248 H 0.29201 0.47052 0.60261 0.0
H249 H 0.37252 0.46645 0.53391 0.0
O250 O 0.28034 0.49333 0.50398 0.0
H251 H 0.37253 0.55535 0.44088 0.0
H252 H 0.38822 0.42204 0.58831 0.0
Cu253 Cu 0.5201 0.28376 0.53761 0.0
N254 N 0.55634 0.26379 0.50867 0.0
N255 N 0.60298 0.25753 0.47822 0.0
C256 C 0.57851 0.27684 0.49732 0.0
C257 C 0.59569 0.23132 0.47704 0.0
C258 C 0.56692 0.23522 0.49593 0.0
O259 O 0.53215 0.31218 0.56216 0.0
C260 C 0.4762 0.28156 0.49667 0.0
O261 O 0.49062 0.2512 0.50573 0.0
H262 H 0.57661 0.30024 0.503 0.0
H263 H 0.55482 0.2183 0.50022 0.0
N264 N 0.5092 0.25627 0.57467 0.0
N265 N 0.48698 0.24239 0.62759 0.0
C266 C 0.49194 0.26643 0.60495 0.0
C267 C 0.51562 0.22454 0.57827 0.0
C268 C 0.50169 0.21594 0.61085 0.0
C269 C 0.55508 0.2965 0.58001 0.0
O270 O 0.56629 0.26537 0.58036 0.0
H271 H 0.48268 0.29122 0.60993 0.0
H272 H 0.52923 0.20879 0.55863 0.0
O273 O 0.48528 0.30185 0.5077 0.0
H274 H 0.61032 0.21055 0.46411 0.0
H275 H 0.50245 0.1921 0.62145 0.0
Tb276 Tb 0.31152 0.32707 0.30756 0.0
Tb277 Tb 0.27878 0.2861 0.36919 0.0
C278 C 0.24865 0.31679 0.29702 0.0
C279 C 0.35539 0.37854 0.25787 0.0
C280 C 0.39123 0.4181 0.25364 0.0
C281 C 0.3925 0.40158 0.22476 0.0
C282 C 0.37471 0.38205 0.22688 0.0
C283 C 0.35369 0.39508 0.28676 0.0
C284 C 0.37143 0.41481 0.28462 0.0
C285 C 0.33862 0.35618 0.26001 0.0
O286 O 0.28074 0.3624 0.34175 0.0
O287 O 0.27402 0.32937 0.39174 0.0
O288 O 0.32669 0.27504 0.38048 0.0
O289 O 0.33621 0.3201 0.35396 0.0
O290 O 0.24131 0.28478 0.40712 0.0
O291 O 0.2829 0.24346 0.40175 0.0
O292 O 0.29406 0.25765 0.32466 0.0
O293 O 0.33253 0.2769 0.29875 0.0
O294 O 0.2738 0.32309 0.28293 0.0
O295 O 0.24444 0.3065 0.33085 0.0
C296 C 0.27282 0.35767 0.37603 0.0
O297 O 0.3521 0.32781 0.27537 0.0
O298 O 0.30895 0.36678 0.27007 0.0
C299 C 0.34233 0.2948 0.37729 0.0
C300 C 0.23549 0.23439 0.41934 0.0
C301 C 0.1995 0.1946 0.42612 0.0
C302 C 0.19844 0.21205 0.4541 0.0
C303 C 0.21633 0.23166 0.45074 0.0
C304 C 0.23627 0.2176 0.39099 0.0
C305 C 0.21848 0.19779 0.39439 0.0
C306 C 0.25462 0.25459 0.41703 0.0
C307 C 0.31876 0.25562 0.3021 0.0
H308 H 0.4079 0.40302 0.20079 0.0
H309 H 0.37649 0.36916 0.2045 0.0
H310 H 0.33896 0.39246 0.31101 0.0
H311 H 0.36968 0.42741 0.30722 0.0
H312 H 0.18363 0.21072 0.47861 0.0
H313 H 0.21526 0.24465 0.47278 0.0
H314 H 0.25086 0.21954 0.36642 0.0
H315 H 0.22004 0.18454 0.37242 0.0
Tb316 Tb 0.7928 0.28408 0.28771 0.0
Tb317 Tb 0.79738 0.32257 0.35443 0.0
C318 C 0.74875 0.35372 0.30046 0.0
C319 C 0.79302 0.23045 0.21746 0.0
C320 C 0.80165 0.17775 0.1801 0.0
C321 C 0.78739 0.20907 0.16505 0.0
C322 C 0.78314 0.23508 0.18354 0.0
C323 C 0.80797 0.19929 0.23229 0.0
C324 C 0.81229 0.17324 0.21379 0.0
C325 C 0.78305 0.25794 0.23856 0.0
O326 O 0.83624 0.29351 0.27453 0.0
O327 O 0.82196 0.33705 0.30562 0.0
O328 O 0.83808 0.2795 0.35289 0.0
O329 O 0.82507 0.24759 0.32039 0.0
O330 O 0.79539 0.36661 0.36797 0.0
O331 O 0.80836 0.32409 0.40601 0.0
O332 O 0.76755 0.29551 0.37884 0.0
O333 O 0.7538 0.28536 0.32754 0.0
O334 O 0.76731 0.33473 0.27735 0.0
O335 O 0.75294 0.34861 0.3343 0.0
C336 C 0.84048 0.31915 0.28162 0.0
O337 O 0.77432 0.25277 0.27218 0.0
O338 O 0.79793 0.27814 0.23282 0.0
C339 C 0.84264 0.25175 0.34184 0.0
C340 C 0.80839 0.37418 0.42461 0.0
C341 C 0.82109 0.41135 0.47005 0.0
C342 C 0.82491 0.37902 0.48045 0.0
C343 C 0.8187 0.36064 0.45797 0.0
C344 C 0.80403 0.40659 0.4145 0.0
C345 C 0.81026 0.4249 0.43688 0.0
C346 C 0.80446 0.35438 0.39917 0.0
C347 C 0.75063 0.28525 0.36227 0.0
H348 H 0.77938 0.21353 0.139 0.0
H349 H 0.77118 0.25888 0.17175 0.0
H350 H 0.8154 0.19503 0.25865 0.0
H351 H 0.82315 0.14949 0.22641 0.0
H352 H 0.8334 0.36767 0.50566 0.0
H353 H 0.82256 0.33569 0.46643 0.0
H354 H 0.79618 0.41781 0.38897 0.0
H355 H 0.80641 0.44981 0.42818 0.0
Tb356 Tb 0.82299 0.80747 0.3409 0.0
Tb357 Tb 0.79016 0.78363 0.28501 0.0
C358 C 0.81711 0.73842 0.3537 0.0
C359 C 0.86593 0.84777 0.3821 0.0
C360 C 0.90272 0.88506 0.38503 0.0
C361 C 0.90122 0.86099 0.41245 0.0
C362 C 0.88293 0.8426 0.41101 0.0
C363 C 0.86797 0.87109 0.35408 0.0
C364 C 0.88621 0.88964 0.35556 0.0
C365 C 0.84523 0.82952 0.38281 0.0
O366 O 0.86151 0.78507 0.30127 0.0
O367 O 0.83362 0.78679 0.25577 0.0
O368 O 0.77468 0.83537 0.27972 0.0
O369 O 0.81771 0.84125 0.29384 0.0
O370 O 0.79366 0.75333 0.24684 0.0
O371 O 0.75216 0.7941 0.25625 0.0
O372 O 0.75997 0.7829 0.33445 0.0
O373 O 0.77488 0.81394 0.36561 0.0
O374 O 0.82415 0.76091 0.36464 0.0
O375 O 0.80764 0.74092 0.32218 0.0
C376 C 0.85986 0.78377 0.26737 0.0
O377 O 0.81871 0.84473 0.37004 0.0
O378 O 0.858 0.80075 0.37326 0.0
C379 C 0.79445 0.8506 0.27473 0.0
C380 C 0.74637 0.75109 0.23387 0.0
C381 C 0.70693 0.71905 0.22333 0.0
C382 C 0.71643 0.73859 0.19531 0.0
C383 C 0.73598 0.75445 0.20057 0.0
C384 C 0.73747 0.73125 0.26193 0.0
C385 C 0.71791 0.71519 0.25663 0.0
C386 C 0.76567 0.76941 0.23848 0.0
C387 C 0.75672 0.7977 0.36272 0.0
H388 H 0.91414 0.8564 0.43514 0.0
H389 H 0.88172 0.82459 0.43278 0.0
H390 H 0.85504 0.87535 0.33145 0.0
H391 H 0.88673 0.90809 0.3341 0.0
H392 H 0.70872 0.74164 0.16926 0.0
H393 H 0.74276 0.76964 0.17865 0.0
H394 H 0.74529 0.72855 0.28786 0.0
H395 H 0.71079 0.70041 0.27873 0.0
Tb396 Tb 0.31665 0.82218 0.35227 0.0
Tb397 Tb 0.29051 0.79109 0.29756 0.0
C398 C 0.24645 0.84347 0.34315 0.0
C399 C 0.36157 0.84712 0.41029 0.0
C400 C 0.41261 0.84838 0.44114 0.0
C401 C 0.38581 0.84633 0.4626 0.0
C402 C 0.36051 0.84584 0.44729 0.0
C403 C 0.38834 0.84906 0.38877 0.0
C404 C 0.4135 0.84982 0.40403 0.0
C405 C 0.33371 0.84913 0.39462 0.0
O406 O 0.32665 0.77193 0.3736 0.0
O407 O 0.28711 0.7655 0.35044 0.0
O408 O 0.33886 0.7619 0.30067 0.0
O409 O 0.35839 0.79586 0.32033 0.0
O410 O 0.25819 0.77034 0.29151 0.0
O411 O 0.29481 0.77166 0.24938 0.0
O412 O 0.30414 0.82839 0.26386 0.0
O413 O 0.30343 0.85879 0.30718 0.0
O414 O 0.26716 0.83243 0.36598 0.0
O415 O 0.25287 0.83445 0.31101 0.0
C416 C 0.30857 0.75542 0.37236 0.0
O417 O 0.33346 0.85744 0.36057 0.0
O418 O 0.3219 0.82664 0.40491 0.0
C419 C 0.36239 0.76963 0.30633 0.0
C420 C 0.2505 0.76324 0.23415 0.0
C421 C 0.2072 0.75648 0.19458 0.0
C422 C 0.23665 0.73294 0.19648 0.0
C423 C 0.25806 0.7364 0.21595 0.0
C424 C 0.22179 0.78761 0.23115 0.0
C425 C 0.20033 0.78432 0.2113 0.0
C426 C 0.27109 0.76232 0.26004 0.0
C427 C 0.3043 0.85512 0.27349 0.0
H428 H 0.38451 0.84459 0.49129 0.0
H429 H 0.34 0.84466 0.46438 0.0
H430 H 0.38979 0.8504 0.3601 0.0
H431 H 0.43359 0.85178 0.38665 0.0
H432 H 0.24269 0.71097 0.18455 0.0
H433 H 0.28 0.71718 0.21839 0.0
H434 H 0.21553 0.80847 0.24523 0.0
H435 H 0.17809 0.80317 0.20987 0.0
Tb436 Tb 0.27797 0.77424 0.81086 0.0
Tb437 Tb 0.30182 0.80068 0.87191 0.0
C438 C 0.25483 0.84676 0.82307 0.0
C439 C 0.26281 0.73773 0.73537 0.0
C440 C 0.27369 0.69654 0.68298 0.0
C441 C 0.24421 0.71927 0.68992 0.0
C442 C 0.23885 0.73972 0.71593 0.0
C443 C 0.29256 0.71586 0.72786 0.0
C444 C 0.29798 0.69539 0.70176 0.0
C445 C 0.25527 0.7567 0.76536 0.0
O446 O 0.31957 0.78407 0.78245 0.0
O447 O 0.33801 0.7986 0.82767 0.0
O448 O 0.31351 0.74927 0.8828 0.0
O449 O 0.31978 0.73621 0.82634 0.0
O450 O 0.33769 0.79456 0.90282 0.0
O451 O 0.29278 0.83079 0.9118 0.0
O452 O 0.25556 0.80073 0.89432 0.0
O453 O 0.24788 0.76741 0.85977 0.0
O454 O 0.2472 0.82255 0.81828 0.0
O455 O 0.28082 0.84241 0.83582 0.0
C456 C 0.34079 0.79201 0.79466 0.0
O457 O 0.26161 0.74085 0.79632 0.0
O458 O 0.26197 0.78286 0.76049 0.0
C459 C 0.32737 0.72926 0.85891 0.0
C460 C 0.33646 0.84207 0.92341 0.0
C461 C 0.36352 0.88459 0.93961 0.0
C462 C 0.38064 0.85191 0.93968 0.0
C463 C 0.36718 0.83085 0.93183 0.0
C464 C 0.31982 0.87492 0.92169 0.0
C465 C 0.3332 0.89592 0.92971 0.0
C466 C 0.32127 0.81914 0.91979 0.0
C467 C 0.23944 0.78385 0.88759 0.0
H468 H 0.2252 0.72094 0.67558 0.0
H469 H 0.21572 0.75651 0.72158 0.0
H470 H 0.31123 0.71396 0.74289 0.0
H471 H 0.32088 0.67789 0.69722 0.0
H472 H 0.40417 0.84245 0.94676 0.0
H473 H 0.38049 0.80563 0.93346 0.0
H474 H 0.29604 0.88438 0.91545 0.0
H475 H 0.31914 0.92085 0.92991 0.0
Tb476 Tb 0.32519 0.29384 0.85649 0.0
Tb477 Tb 0.28604 0.26858 0.8112 0.0
C478 C 0.31167 0.22947 0.8816 0.0
C479 C 0.37745 0.32489 0.89708 0.0
C480 C 0.41957 0.35424 0.90631 0.0
C481 C 0.41451 0.33029 0.93181 0.0
C482 C 0.39358 0.31581 0.92723 0.0
C483 C 0.38363 0.34755 0.87056 0.0
C484 C 0.40455 0.36214 0.87518 0.0
C485 C 0.35214 0.31286 0.89622 0.0
O486 O 0.36104 0.26374 0.8205 0.0
O487 O 0.33089 0.25878 0.78045 0.0
O488 O 0.28352 0.31656 0.78713 0.0
O489 O 0.327 0.32086 0.80425 0.0
O490 O 0.28278 0.2361 0.77972 0.0
O491 O 0.24372 0.27864 0.79054 0.0
O492 O 0.25708 0.28258 0.86033 0.0
O493 O 0.27612 0.32109 0.86656 0.0
O494 O 0.31303 0.25569 0.89098 0.0
O495 O 0.30699 0.2278 0.84902 0.0
C496 C 0.3579 0.25511 0.79031 0.0
O497 O 0.32859 0.33141 0.87959 0.0
O498 O 0.35969 0.2831 0.89084 0.0
C499 C 0.30542 0.32943 0.78243 0.0
C500 C 0.23252 0.23371 0.78014 0.0
C501 C 0.19429 0.19782 0.77793 0.0
C502 C 0.18438 0.23059 0.76659 0.0
C503 C 0.20339 0.24831 0.76755 0.0
C504 C 0.24188 0.20132 0.79316 0.0
C505 C 0.22292 0.18352 0.79202 0.0
C506 C 0.25367 0.25199 0.77602 0.0
C507 C 0.25445 0.3082 0.87445 0.0
H508 H 0.4255 0.3239 0.95619 0.0
H509 H 0.38897 0.29845 0.94802 0.0
H510 H 0.37151 0.35477 0.84697 0.0
H511 H 0.40838 0.38021 0.85485 0.0
H512 H 0.16219 0.2424 0.75622 0.0
H513 H 0.19573 0.27326 0.75739 0.0
H514 H 0.26426 0.18945 0.80305 0.0
H515 H 0.23132 0.15829 0.80074 0.0
Tb516 Tb 0.82714 0.30252 0.85763 0.0
Tb517 Tb 0.78617 0.29066 0.79785 0.0
C518 C 0.75505 0.34193 0.85299 0.0
C519 C 0.88052 0.29892 0.92841 0.0
C520 C 0.92415 0.28251 0.9793 0.0
C521 C 0.89379 0.30407 0.98596 0.0
C522 C 0.8724 0.31204 0.96099 0.0
C523 C 0.91056 0.27683 0.92174 0.0
C524 C 0.93207 0.26866 0.94693 0.0
C525 C 0.85866 0.31224 0.90066 0.0
O526 O 0.8068 0.26729 0.88404 0.0
O527 O 0.79929 0.24793 0.835 0.0
O528 O 0.83559 0.26881 0.78103 0.0
O529 O 0.85627 0.25916 0.8343 0.0
O530 O 0.75033 0.27566 0.78808 0.0
O531 O 0.78046 0.28918 0.74477 0.0
O532 O 0.78834 0.33785 0.78192 0.0
O533 O 0.83056 0.33437 0.80944 0.0
O534 O 0.78218 0.34048 0.86101 0.0
O535 O 0.75173 0.32132 0.83436 0.0
C536 C 0.80321 0.24476 0.86884 0.0
O537 O 0.86881 0.3066 0.86775 0.0
O538 O 0.83009 0.31293 0.90868 0.0
C539 C 0.85758 0.25266 0.80163 0.0
C540 C 0.72951 0.29503 0.7319 0.0
C541 C 0.68308 0.31055 0.68496 0.0
C542 C 0.67795 0.29836 0.7205 0.0
C543 C 0.70095 0.29054 0.74361 0.0
C544 C 0.7338 0.3091 0.69702 0.0
C545 C 0.71088 0.31682 0.67393 0.0
C546 C 0.75616 0.28043 0.75363 0.0
C547 C 0.80976 0.34899 0.78695 0.0
H548 H 0.88672 0.31596 1.00996 0.0
H549 H 0.84969 0.3296 0.96664 0.0
H550 H 0.91772 0.26646 0.89674 0.0
H551 H 0.95501 0.25174 0.94081 0.0
H552 H 0.65701 0.29291 0.72983 0.0
H553 H 0.69696 0.27937 0.77011 0.0
H554 H 0.75551 0.31271 0.68688 0.0
H555 H 0.7155 0.32649 0.64686 0.0
Tb556 Tb 0.80626 0.82111 0.78028 0.0
Tb557 Tb 0.77197 0.78391 0.84435 0.0
C558 C 0.73944 0.81896 0.7761 0.0
C559 C 0.85214 0.87064 0.73218 0.0
C560 C 0.89075 0.90703 0.73073 0.0
C561 C 0.8615 0.92095 0.71814 0.0
C562 C 0.84247 0.90287 0.7187 0.0
C563 C 0.88134 0.85667 0.74498 0.0
C564 C 0.90053 0.87469 0.74407 0.0
C565 C 0.8312 0.85237 0.73302 0.0
O566 O 0.79781 0.84736 0.82651 0.0
O567 O 0.75665 0.8336 0.8545 0.0
O568 O 0.81368 0.78277 0.86513 0.0
O569 O 0.84282 0.79267 0.81337 0.0
O570 O 0.73207 0.78685 0.87953 0.0
O571 O 0.77285 0.74464 0.88202 0.0
O572 O 0.79804 0.74786 0.80863 0.0
O573 O 0.8071 0.77903 0.75761 0.0
O574 O 0.75762 0.83622 0.77091 0.0
O575 O 0.74398 0.79427 0.80024 0.0
C576 C 0.77401 0.85149 0.85097 0.0
O577 O 0.84261 0.82153 0.74037 0.0
O578 O 0.80354 0.86437 0.74943 0.0
C579 C 0.84014 0.78363 0.84769 0.0
C580 C 0.72358 0.73808 0.89861 0.0
C581 C 0.68443 0.70111 0.91262 0.0
C582 C 0.71659 0.68661 0.90457 0.0
C583 C 0.736 0.70489 0.89771 0.0
C584 C 0.69142 0.75253 0.90641 0.0
C585 C 0.67207 0.73431 0.91315 0.0
C586 C 0.74376 0.75767 0.89385 0.0
C587 C 0.80618 0.75155 0.77418 0.0
H588 H 0.8535 0.94573 0.7074 0.0
H589 H 0.82007 0.91413 0.70865 0.0
H590 H 0.88936 0.83192 0.75581 0.0
H591 H 0.92286 0.86344 0.75424 0.0
H592 H 0.72687 0.66103 0.90436 0.0
H593 H 0.76073 0.69296 0.89225 0.0
H594 H 0.68118 0.77801 0.90767 0.0
H595 H 0.64736 0.74628 0.91876 0.0
H596 H 0.12296 0.10131 0.47039 0.0
H597 H 0.10134 0.12985 0.36212 0.0
H598 H 0.13432 0.1627 0.35312 0.0
H599 H 0.16762 0.18505 0.3769 0.0
H600 H 0.18994 0.1554 0.48502 0.0
H601 H 0.15787 0.12183 0.49338 0.0
C602 C 0.12538 0.11483 0.44489 0.0
C603 C 0.10961 0.11322 0.41705 0.0
C604 C 0.1443 0.1337 0.43996 0.0
C605 C 0.11343 0.13042 0.38391 0.0
C606 C 0.13215 0.14937 0.37881 0.0
C607 C 0.16581 0.17095 0.40215 0.0
C608 C 0.18098 0.17307 0.43036 0.0
C609 C 0.14754 0.15136 0.40673 0.0
C610 C 0.17804 0.15481 0.46303 0.0
C611 C 0.15986 0.1354 0.46781 0.0
H612 H 0.95495 0.14901 0.41349 0.0
H613 H 0.96822 0.10714 0.31561 0.0
H614 H 0.92256 0.15062 0.29521 0.0
H615 H 0.87826 0.20045 0.3061 0.0
H616 H 0.8678 0.24225 0.40357 0.0
H617 H 0.91285 0.19865 0.42338 0.0
C618 C 0.94793 0.1493 0.38764 0.0
C619 C 0.96483 0.12476 0.3662 0.0
C620 C 0.92201 0.1743 0.37615 0.0
C621 C 0.95563 0.12581 0.33259 0.0
C622 C 0.92945 0.15057 0.32103 0.0
C623 C 0.8858 0.19982 0.33174 0.0
C624 C 0.86958 0.22445 0.35347 0.0
C625 C 0.91231 0.17487 0.34274 0.0
C626 C 0.87988 0.22364 0.38636 0.0
C627 C 0.90564 0.19871 0.39772 0.0
H628 H 0.98852 0.96841 0.37302 0.0
H629 H 0.95561 0.97199 0.48447 0.0
H630 H 0.92427 0.93962 0.47956 0.0
H631 H 0.90629 0.91046 0.44358 0.0
H632 H 0.94003 0.90603 0.3323 0.0
H633 H 0.97037 0.93945 0.33694 0.0
C634 C 0.9742 0.96248 0.39614 0.0
C635 C 0.97434 0.97269 0.42907 0.0
C636 C 0.95633 0.94385 0.39311 0.0
C637 C 0.95612 0.96419 0.45893 0.0
C638 C 0.93811 0.94581 0.45609 0.0
C639 C 0.92052 0.91652 0.4204 0.0
C640 C 0.92096 0.90563 0.38767 0.0
C641 C 0.93816 0.9354 0.42334 0.0
C642 C 0.93901 0.91432 0.35773 0.0
C643 C 0.95651 0.93327 0.36041 0.0
H644 H 0.13148 0.94411 0.41772 0.0
H645 H 0.11784 0.98438 0.30941 0.0
H646 H 0.16207 0.93931 0.28806 0.0
H647 H 0.20654 0.88965 0.30094 0.0
H648 H 0.21904 0.85167 0.41022 0.0
H649 H 0.17307 0.89458 0.43034 0.0
C650 C 0.13803 0.94319 0.38936 0.0
C651 C 0.12152 0.96782 0.36522 0.0
C652 C 0.16329 0.91748 0.37746 0.0
C653 C 0.13023 0.96583 0.32859 0.0
C654 C 0.15552 0.94006 0.3164 0.0
C655 C 0.19884 0.89057 0.32909 0.0
C656 C 0.21627 0.8675 0.35407 0.0
C657 C 0.17246 0.91586 0.34067 0.0
C658 C 0.20621 0.86916 0.39047 0.0
C659 C 0.17993 0.89374 0.40204 0.0
H660 H 0.17368 0.98781 0.77397 0.0
H661 H 0.10002 0.95096 0.81564 0.0
H662 H 0.13814 0.89992 0.83518 0.0
H663 H 0.1925 0.86439 0.83553 0.0
H664 H 0.26623 0.9017 0.79664 0.0
H665 H 0.22799 0.95409 0.7809 0.0
C666 C 0.16596 0.96874 0.78781 0.0
C667 C 0.13406 0.97306 0.79306 0.0
C668 C 0.18803 0.93951 0.79904 0.0
C669 C 0.12438 0.9483 0.81138 0.0
C670 C 0.1462 0.91902 0.82229 0.0
C671 C 0.20016 0.88408 0.82376 0.0
C672 C 0.2321 0.87916 0.81659 0.0
C673 C 0.17807 0.91413 0.81543 0.0
C674 C 0.24177 0.90494 0.80217 0.0
C675 C 0.21992 0.93482 0.79313 0.0
H676 H 0.12628 0.10006 0.77546 0.0
H677 H 0.10604 0.15357 0.67342 0.0
H678 H 0.13406 0.18762 0.68331 0.0
H679 H 0.1647 0.20171 0.7206 0.0
H680 H 0.18288 0.1496 0.82371 0.0
H681 H 0.15484 0.11553 0.81378 0.0
C682 C 0.12749 0.11943 0.75554 0.0
C683 C 0.11391 0.12422 0.72375 0.0
C684 C 0.14326 0.13914 0.76159 0.0
C685 C 0.11653 0.14905 0.69794 0.0
C686 C 0.13238 0.16868 0.70367 0.0
C687 C 0.16209 0.18326 0.74119 0.0
C688 C 0.1758 0.17826 0.7729 0.0
C689 C 0.14583 0.16391 0.73539 0.0
C690 C 0.1728 0.15375 0.79894 0.0
C691 C 0.15669 0.13434 0.79333 0.0
H692 H 0.95666 0.13979 0.7232 0.0
H693 H 0.97983 0.10501 0.83027 0.0
H694 H 0.93913 0.15217 0.85226 0.0
H695 H 0.89746 0.20379 0.84073 0.0
H696 H 0.87487 0.23775 0.73325 0.0
H697 H 0.91512 0.19046 0.71181 0.0
C698 C 0.95284 0.14233 0.75142 0.0
C699 C 0.97141 0.11876 0.77502 0.0
C700 C 0.92966 0.16957 0.76377 0.0
C701 C 0.96592 0.12266 0.81148 0.0
C702 C 0.94271 0.14972 0.82404 0.0
C703 C 0.90153 0.20102 0.81256 0.0
C704 C 0.88326 0.22459 0.7886 0.0
C705 C 0.9246 0.17348 0.80037 0.0
C706 C 0.88857 0.2202 0.75229 0.0
C707 C 0.91157 0.19308 0.73999 0.0
H708 H 0.95917 0.00484 0.73417 0.0
H709 H 0.03586 0.92941 0.68858 0.0
H710 H 1.0027 0.8975 0.69132 0.0
H711 H 0.95188 0.89086 0.7068 0.0
H712 H 0.87495 0.96628 0.75201 0.0
H713 H 0.90819 0.99828 0.74953 0.0
C714 C 0.96862 0.98136 0.72503 0.0
C715 C 0.99993 0.9696 0.71113 0.0
C716 C 0.94938 0.96311 0.72667 0.0
C717 C 1.01176 0.93926 0.69893 0.0
C718 C 0.99285 0.92088 0.70071 0.0
C719 C 0.9425 0.91421 0.71635 0.0
C720 C 0.91107 0.92618 0.72964 0.0
C721 C 0.96165 0.93254 0.71456 0.0
C722 C 0.89905 0.95666 0.74142 0.0
C723 C 0.91804 0.97491 0.7401 0.0
H724 H 0.38245 0.15837 0.18763 0.0
H725 H 0.30625 0.12542 0.22982 0.0
H726 H 0.28832 0.16536 0.27203 0.0
H727 H 0.29385 0.21022 0.29653 0.0
H728 H 0.37068 0.24232 0.25439 0.0
H729 H 0.38903 0.20166 0.21322 0.0
C730 C 0.36216 0.15949 0.20629 0.0
C731 C 0.3458 0.13872 0.20528 0.0
C732 C 0.35208 0.18239 0.23071 0.0
C733 C 0.31917 0.14123 0.22947 0.0
C734 C 0.30896 0.16399 0.25385 0.0
C735 C 0.31475 0.20821 0.27855 0.0
C736 C 0.33081 0.22943 0.2787 0.0
C737 C 0.32517 0.1848 0.25463 0.0
C738 C 0.35778 0.22643 0.255 0.0
C739 C 0.36831 0.20317 0.23132 0.0
H740 H 0.94832 0.37392 0.22295 0.0
H741 H 0.98181 0.28871 0.16921 0.0
H742 H 0.93626 0.27533 0.1949 0.0
H743 H 0.88725 0.28687 0.23406 0.0
H744 H 0.85354 0.37241 0.28739 0.0
H745 H 0.89835 0.3866 0.26011 0.0
C746 C 0.94555 0.3526 0.21654 0.0
C747 C 0.96883 0.33232 0.19434 0.0
C748 C 0.91908 0.34499 0.23138 0.0
C749 C 0.96477 0.3046 0.18667 0.0
C750 C 0.93851 0.29695 0.20122 0.0
C751 C 0.88955 0.30874 0.23951 0.0
C752 C 0.86695 0.32841 0.26286 0.0
C753 C 0.91561 0.31681 0.22386 0.0
C754 C 0.8705 0.35665 0.26962 0.0
C755 C 0.89621 0.36486 0.25405 0.0
H756 H 0.78521 0.93069 0.12408 0.0
H757 H 0.88348 0.90348 0.12967 0.0
H758 H 0.87779 0.87752 0.18974 0.0
H759 H 0.84531 0.8618 0.24001 0.0
H760 H 0.74758 0.88519 0.23366 0.0
H761 H 0.75241 0.91438 0.17488 0.0
C762 C 0.8053 0.91935 0.13862 0.0
C763 C 0.83474 0.91913 0.12242 0.0
C764 C 0.80186 0.9042 0.17312 0.0
C765 C 0.86065 0.90377 0.14134 0.0
C766 C 0.85736 0.88915 0.17581 0.0
C767 C 0.82488 0.87374 0.22613 0.0
C768 C 0.79598 0.8717 0.24144 0.0
C769 C 0.82811 0.88922 0.19192 0.0
C770 C 0.76999 0.88667 0.2226 0.0
C771 C 0.77281 0.90316 0.18892 0.0
H772 H 0.09267 0.73511 0.14568 0.0
H773 H 0.16319 0.68907 0.0649 0.0
H774 H 0.20195 0.70117 0.09087 0.0
H775 H 0.21537 0.727 0.13473 0.0
H776 H 0.14509 0.77223 0.21638 0.0
H777 H 0.10642 0.75969 0.19071 0.0
C778 C 0.11655 0.72764 0.13386 0.0
C779 C 0.12493 0.71113 0.10346 0.0
C780 C 0.13864 0.73521 0.14853 0.0
C781 C 0.15608 0.7013 0.08864 0.0
C782 C 0.17823 0.70859 0.10321 0.0
C783 C 0.19168 0.7339 0.14718 0.0
C784 C 0.18327 0.75066 0.17744 0.0
C785 C 0.16969 0.72585 0.1329 0.0
C786 C 0.15223 0.75989 0.19269 0.0
C787 C 0.13012 0.75236 0.1783 0.0
H788 H 0.38473 0.998 0.99614 0.0
H789 H 0.42315 0.92345 0.07793 0.0
H790 H 0.4186 0.88393 0.04421 0.0
H791 H 0.39658 0.87195 0.99618 0.0
H792 H 0.35738 0.94642 0.91442 0.0
H793 H 0.36902 0.98467 0.94365 0.0
C794 C 0.39251 0.97302 1.00623 0.0
C795 C 0.40392 0.96373 0.03961 0.0
C796 C 0.38919 0.95052 0.98705 0.0
C797 C 0.41444 0.93125 0.05224 0.0
C798 C 0.41154 0.90865 0.03312 0.0
C799 C 0.39138 0.89631 0.98409 0.0
C800 C 0.3757 0.90636 0.9534 0.0
C801 C 0.39797 0.91819 1.00112 0.0
C802 C 0.36885 0.93818 0.93845 0.0
C803 C 0.37558 0.96005 0.95507 0.0
H804 H 0.16078 0.37154 1.00239 0.0
H805 H 0.13135 0.29151 1.00031 0.0
H806 H 0.168 0.27559 0.94801 0.0
H807 H 0.21045 0.28258 0.90481 0.0
H808 H 0.24058 0.36222 0.90706 0.0
H809 H 0.20138 0.38033 0.95678 0.0
C810 C 0.16209 0.35092 0.99017 0.0
C811 C 0.14356 0.33257 1.00556 0.0
C812 C 0.18342 0.34175 0.96008 0.0
C813 C 0.14575 0.30571 0.98949 0.0
C814 C 0.16661 0.29666 0.95943 0.0
C815 C 0.20825 0.30411 0.91586 0.0
C816 C 0.22858 0.3209 0.9022 0.0
C817 C 0.18591 0.3142 0.94482 0.0
C818 C 0.22535 0.34872 0.91704 0.0
C819 C 0.20294 0.3591 0.94557 0.0
H820 H 0.82413 0.11812 0.97288 0.0
H821 H 0.8597 0.07709 0.87367 0.0
H822 H 0.84888 0.13021 0.84172 0.0
H823 H 0.82761 0.18818 0.84164 0.0
H824 H 0.79303 0.22978 0.94063 0.0
H825 H 0.80459 0.17648 0.97305 0.0
C826 C 0.82946 0.12083 0.94427 0.0
C827 C 0.84255 0.09361 0.92571 0.0
C828 C 0.82293 0.1515 0.92603 0.0
C829 C 0.84991 0.09752 0.88869 0.0
C830 C 0.84343 0.12793 0.87035 0.0
C831 C 0.82223 0.18563 0.87029 0.0
C832 C 0.80887 0.21287 0.8887 0.0
C833 C 0.82956 0.15504 0.88869 0.0
C834 C 0.80299 0.20915 0.92589 0.0
C835 C 0.80969 0.17872 0.94439 0.0
H836 H 0.96267 0.76695 0.91533 0.0
H837 H 0.91963 0.71852 1.00123 0.0
H838 H 0.87533 0.72955 0.96801 0.0
H839 H 0.84886 0.75247 0.91425 0.0
H840 H 0.89279 0.79869 0.82661 0.0
H841 H 0.93648 0.78892 0.86039 0.0
C842 C 0.94345 0.75906 0.9267 0.0
C843 C 0.94439 0.74199 0.96071 0.0
C844 C 0.91824 0.76489 0.90698 0.0
C845 C 0.91952 0.73151 0.97504 0.0
C846 C 0.89416 0.73785 0.95605 0.0
C847 C 0.86799 0.76038 0.90246 0.0
C848 C 0.86739 0.77628 0.86783 0.0
C849 C 0.8933 0.75437 0.92192 0.0
C850 C 0.89259 0.78618 0.85306 0.0
C851 C 0.9176 0.78074 0.87247 0.0
H852 H 0.15649 0.35333 0.17911 0.0
H853 H 0.14193 0.26611 0.22547 0.0
H854 H 0.17825 0.25907 0.26916 0.0
H855 H 0.21417 0.27847 0.29463 0.0
H856 H 0.23007 0.36414 0.24431 0.0
H857 H 0.19307 0.37118 0.20218 0.0
C858 C 0.1612 0.33267 0.19871 0.0
C859 C 0.14623 0.31037 0.19899 0.0
C860 C 0.18228 0.32869 0.22336 0.0
C861 C 0.15311 0.2836 0.22442 0.0
C862 C 0.17379 0.2797 0.24957 0.0
C863 C 0.20924 0.29882 0.27463 0.0
C864 C 0.22463 0.32105 0.273 0.0
C865 C 0.18841 0.30224 0.2495 0.0
C866 C 0.21851 0.34683 0.24635 0.0
C867 C 0.19737 0.35083 0.22216 0.0
H868 H 0.12871 0.79686 1.01167 0.0
H869 H 0.08712 0.77168 0.93254 0.0
H870 H 0.13338 0.76827 0.89024 0.0
H871 H 0.18695 0.77149 0.87582 0.0
H872 H 0.22663 0.79765 0.95621 0.0
H873 H 0.18041 0.80116 0.99739 0.0
C874 C 0.12943 0.79087 0.98509 0.0
C875 C 0.10392 0.78473 0.97562 0.0
C876 C 0.15628 0.78873 0.96093 0.0
C877 C 0.10594 0.77686 0.94084 0.0
C878 C 0.13265 0.77469 0.9166 0.0
C879 C 0.18558 0.77774 0.90243 0.0
C880 C 0.21081 0.78409 0.91261 0.0
C881 C 0.15822 0.78029 0.92636 0.0
C882 C 0.208 0.79259 0.94723 0.0
C883 C 0.18137 0.79468 0.97099 0.0
H884 H 0.35197 0.09815 0.9788 0.0
H885 H 0.29302 0.15664 0.05864 0.0
H886 H 0.27976 0.20287 1.01361 0.0
H887 H 0.28843 0.22759 0.95192 0.0
H888 H 0.34407 0.16754 0.87163 0.0
H889 H 0.35509 0.12112 0.91617 0.0
C890 C 0.33571 0.1209 0.9862 0.0
C891 C 0.32349 0.12392 1.02208 0.0
C892 C 0.32795 0.14722 0.96005 0.0
C893 C 0.30245 0.15354 0.03122 0.0
C894 C 0.29514 0.18007 1.00548 0.0
C895 C 0.30278 0.20426 0.9442 0.0
C896 C 0.31579 0.20111 0.9085 0.0
C897 C 0.30831 0.17737 0.96991 0.0
C898 C 0.33386 0.17066 0.89882 0.0
C899 C 0.34022 0.14409 0.92434 0.0
H900 H 0.99814 0.28111 0.10572 0.0
H901 H 0.07123 0.27466 1.02032 0.0
H902 H 0.03898 0.26766 0.9793 0.0
H903 H 0.98701 0.27216 0.96602 0.0
H904 H 0.91405 0.27816 0.05228 0.0
H905 H 0.949 0.27675 0.09436 0.0
C906 C 1.00748 0.27662 0.07853 0.0
C907 C 0.03737 0.27745 0.06632 0.0
C908 C 0.98836 0.27363 0.05489 0.0
C909 C 0.04872 0.27302 0.03062 0.0
C910 C 0.03002 0.26961 1.00702 0.0
C911 C 0.97885 0.27232 0.99409 0.0
C912 C 0.94739 0.27614 1.00548 0.0
C913 C 0.99931 0.27116 1.01854 0.0
C914 C 0.93764 0.27636 0.04221 0.0
C915 C 0.95775 0.27526 0.06653 0.0
H916 H 0.7503 0.92509 0.98649 0.0
H917 H 0.79711 0.98075 0.91471 0.0
H918 H 0.79966 0.94981 0.86639 0.0
H919 H 0.79228 0.90381 0.84559 0.0
H920 H 0.7431 0.85021 0.9172 0.0
H921 H 0.73779 0.88335 0.96406 0.0
C922 C 0.76062 0.93081 0.96013 0.0
C923 C 0.77359 0.95518 0.95442 0.0
C924 C 0.76188 0.91299 0.93233 0.0
C925 C 0.78674 0.9623 0.91996 0.0
C926 C 0.78844 0.9444 0.8923 0.0
C927 C 0.78013 0.89961 0.87134 0.0
C928 C 0.76831 0.87431 0.87776 0.0
C929 C 0.77669 0.9192 0.89833 0.0
C930 C 0.75239 0.86948 0.91128 0.0
C931 C 0.74941 0.88839 0.93828 0.0
H932 H 0.98887 0.74448 0.17018 0.0
H933 H 0.93332 0.81017 0.0924 0.0
H934 H 0.88805 0.82247 0.13743 0.0
H935 H 0.86316 0.81081 0.19807 0.0
H936 H 0.92021 0.74811 0.27654 0.0
H937 H 0.96574 0.73823 0.23226 0.0
C938 C 0.96699 0.76196 0.16316 0.0
C939 C 0.96467 0.77632 0.12769 0.0
C940 C 0.94111 0.76901 0.18934 0.0
C941 C 0.93605 0.79897 0.11934 0.0
C942 C 0.91002 0.80572 0.14511 0.0
C943 C 0.88561 0.79515 0.20557 0.0
C944 C 0.88802 0.77983 0.24074 0.0
C945 C 0.91206 0.79029 0.18002 0.0
C946 C 0.91749 0.76009 0.2499 0.0
C947 C 0.94359 0.75441 0.22447 0.0
H948 H 0.312 0.95175 0.13643 0.0
H949 H 0.30665 0.01261 0.21563 0.0
H950 H 0.30204 0.97087 0.2628 0.0
H951 H 0.30185 0.9158 0.2817 0.0
H952 H 0.30778 0.85554 0.20144 0.0
H953 H 0.30993 0.89813 0.15501 0.0
C954 C 0.30952 0.95617 0.16399 0.0
C955 C 0.30966 0.98559 0.17219 0.0
C956 C 0.30725 0.93187 0.19102 0.0
C957 C 0.3065 0.99046 0.20826 0.0
C958 C 0.30401 0.96643 0.23534 0.0
C959 C 0.30353 0.91195 0.25407 0.0
C960 C 0.30478 0.88209 0.24541 0.0
C961 C 0.30477 0.93682 0.22708 0.0
C962 C 0.30684 0.87795 0.20927 0.0
C963 C 0.30806 0.90242 0.18251 0.0
H964 H 0.84197 0.0516 0.10533 0.0
H965 H 0.75168 0.09624 0.06814 0.0
H966 H 0.74214 0.14147 0.10214 0.0
H967 H 0.76069 0.16904 0.14089 0.0
H968 H 0.8521 0.12357 0.17538 0.0
H969 H 0.85984 0.07793 0.14393 0.0
C970 C 0.82005 0.0711 0.10462 0.0
C971 C 0.7976 0.07048 0.08399 0.0
C972 C 0.81501 0.09699 0.1237 0.0
C973 C 0.76932 0.09597 0.08382 0.0
C974 C 0.76397 0.12192 0.10312 0.0
C975 C 0.78238 0.14922 0.14136 0.0
C976 C 0.80577 0.14989 0.16069 0.0
C977 C 0.78686 0.12287 0.12282 0.0
C978 C 0.83351 0.12369 0.1613 0.0
C979 C 0.83805 0.09758 0.14311 0.0
H980 H 0.58389 0.63502 0.96328 0.0
H981 H 0.63528 0.57767 0.8789 0.0
H982 H 0.6707 0.60778 0.86675 0.0
H983 H 0.68646 0.65118 0.87922 0.0
H984 H 0.63589 0.70767 0.96466 0.0
H985 H 0.60081 0.67712 0.97724 0.0
C986 C 0.60304 0.62886 0.94254 0.0
C987 C 0.60676 0.60423 0.92194 0.0
C988 C 0.62341 0.64623 0.93574 0.0
C989 C 0.63151 0.59685 0.89479 0.0
C990 C 0.65192 0.61395 0.88794 0.0
C991 C 0.668 0.65657 0.90087 0.0
C992 C 0.66375 0.68178 0.92083 0.0
C993 C 0.64798 0.63881 0.9081 0.0
C994 C 0.63941 0.68872 0.94848 0.0
C995 C 0.61943 0.67114 0.95586 0.0
H996 H 0.43306 0.61507 0.92842 0.0
H997 H 0.47286 0.60843 0.81919 0.0
H998 H 0.42643 0.65154 0.80001 0.0
H999 H 0.37534 0.69304 0.81505 0.0
H1000 H 0.33783 0.69932 0.92515 0.0
H1001 H 0.38251 0.65423 0.9431 0.0
C1002 C 0.43175 0.62284 0.90031 0.0
C1003 C 0.45667 0.60852 0.87532 0.0
C1004 C 0.40525 0.64763 0.88964 0.0
C1005 C 0.45416 0.619 0.83905 0.0
C1006 C 0.42758 0.64368 0.8281 0.0
C1007 C 0.37676 0.68419 0.84291 0.0
C1008 C 0.35311 0.69958 0.86874 0.0
C1009 C 0.40305 0.65841 0.85323 0.0
C1010 C 0.35559 0.68806 0.90474 0.0
C1011 C 0.38121 0.66227 0.91506 0.0
H1012 H 0.5102 0.41445 0.95169 0.0
H1013 H 0.44086 0.50052 0.91242 0.0
H1014 H 0.41113 0.4696 0.89827 0.0
H1015 H 0.40538 0.41816 0.89631 0.0
H1016 H 0.47535 0.33162 0.93394 0.0
H1017 H 0.50438 0.3626 0.94968 0.0
C1018 C 0.48833 0.42633 0.94059 0.0
C1019 C 0.47752 0.45962 0.93326 0.0
C1020 C 0.47173 0.40834 0.93193 0.0
C1021 C 0.4495 0.47486 0.91819 0.0
C1022 C 0.43261 0.45723 0.91004 0.0
C1023 C 0.42721 0.40604 0.90746 0.0
C1024 C 0.43832 0.37267 0.91372 0.0
C1025 C 0.44369 0.42395 0.91642 0.0
C1026 C 0.46629 0.35733 0.92898 0.0
C1027 C 0.48287 0.37501 0.93798 0.0
H1028 H 0.65284 0.46251 0.9142 0.0
H1029 H 0.60706 0.45904 0.82572 0.0
H1030 H 0.65079 0.41172 0.80871 0.0
H1031 H 0.70178 0.37046 0.82027 0.0
H1032 H 0.7468 0.37609 0.90855 0.0
H1033 H 0.70334 0.42319 0.92462 0.0
C1034 C 0.65232 0.45155 0.89106 0.0
C1035 C 0.62655 0.4643 0.87137 0.0
C1036 C 0.67732 0.42445 0.88168 0.0
C1037 C 0.62661 0.44987 0.84128 0.0
C1038 C 0.65154 0.42266 0.83172 0.0
C1039 C 0.70188 0.38184 0.84324 0.0
C1040 C 0.72744 0.36947 0.86345 0.0
C1041 C 0.6769 0.4095 0.85201 0.0
C1042 C 0.72747 0.38493 0.89264 0.0
C1043 C 0.70263 0.41196 0.90181 0.0
H1044 H 0.64868 0.46576 0.22011 0.0
H1045 H 0.61337 0.4896 0.32703 0.0
H1046 H 0.65552 0.44358 0.35023 0.0
H1047 H 0.70269 0.39662 0.33966 0.0
H1048 H 0.73658 0.3739 0.23191 0.0
H1049 H 0.69459 0.41956 0.20964 0.0
C1050 C 0.65008 0.46103 0.24855 0.0
C1051 C 0.6279 0.48118 0.27178 0.0
C1052 C 0.67418 0.4347 0.26156 0.0
C1053 C 0.63013 0.47447 0.30854 0.0
C1054 C 0.65425 0.44818 0.32179 0.0
C1055 C 0.70091 0.40169 0.31131 0.0
C1056 C 0.72291 0.38176 0.28755 0.0
C1057 C 0.67647 0.42814 0.2985 0.0
C1058 C 0.7201 0.38868 0.2509 0.0
C1059 C 0.69605 0.41486 0.23806 0.0
H1060 H 0.60279 0.67371 0.18574 0.0
H1061 H 0.65855 0.58513 0.23854 0.0
H1062 H 0.6948 0.61017 0.24906 0.0
H1063 H 0.71044 0.65754 0.24345 0.0
H1064 H 0.65433 0.74587 0.19041 0.0
H1065 H 0.61863 0.72052 0.17937 0.0
C1066 C 0.62311 0.65972 0.19903 0.0
C1067 C 0.62797 0.62759 0.21126 0.0
C1068 C 0.64375 0.67427 0.20504 0.0
C1069 C 0.65414 0.61 0.22913 0.0
C1070 C 0.6749 0.62427 0.23509 0.0
C1071 C 0.69027 0.67122 0.2297 0.0
C1072 C 0.68506 0.70347 0.21768 0.0
C1073 C 0.66981 0.65648 0.22338 0.0
C1074 C 0.65902 0.72089 0.19956 0.0
C1075 C 0.63855 0.70646 0.19333 0.0
H1076 H 0.50253 0.67821 0.2995 0.0
H1077 H 0.45903 0.61126 0.28566 0.0
H1078 H 0.40855 0.65313 0.2887 0.0
H1079 H 0.37719 0.70875 0.29199 0.0
H1080 H 0.4186 0.77572 0.31107 0.0
H1081 H 0.46976 0.73398 0.30779 0.0
C1082 C 0.48196 0.67269 0.29758 0.0
C1083 C 0.48471 0.64158 0.29214 0.0
C1084 C 0.45277 0.69698 0.29943 0.0
C1085 C 0.45774 0.63488 0.28988 0.0
C1086 C 0.42882 0.6589 0.29131 0.0
C1087 C 0.39721 0.71436 0.29586 0.0
C1088 C 0.39388 0.74542 0.30192 0.0
C1089 C 0.42616 0.69006 0.29549 0.0
C1090 C 0.42041 0.75208 0.30626 0.0
C1091 C 0.44966 0.72816 0.30462 0.0
H1092 H 0.48684 0.48545 0.26596 0.0
H1093 H 0.4695 0.51869 0.15688 0.0
H1094 H 0.43213 0.49114 0.16193 0.0
H1095 H 0.40489 0.45713 0.19708 0.0
H1096 H 0.42329 0.42278 0.30576 0.0
H1097 H 0.45889 0.45226 0.30148 0.0
C1098 C 0.47464 0.48702 0.24341 0.0
C1099 C 0.48106 0.5041 0.21105 0.0
C1100 C 0.45317 0.47113 0.24651 0.0
C1101 C 0.46535 0.50538 0.18193 0.0
C1102 C 0.44383 0.48979 0.18487 0.0
C1103 C 0.4168 0.45593 0.2198 0.0
C1104 C 0.41142 0.43765 0.25166 0.0
C1105 C 0.43772 0.47242 0.21696 0.0
C1106 C 0.42662 0.43694 0.28104 0.0
C1107 C 0.44722 0.45358 0.27852 0.0
H1108 H 0.81337 0.62975 0.70481 0.0
H1109 H 0.85622 0.6747 0.61492 0.0
H1110 H 0.85177 0.71745 0.64987 0.0
H1111 H 0.83347 0.74369 0.70544 0.0
H1112 H 0.79211 0.69741 0.79561 0.0
H1113 H 0.79832 0.65395 0.76124 0.0
C1114 C 0.82198 0.64874 0.69288 0.0
C1115 C 0.83501 0.64888 0.65709 0.0
C1116 C 0.81948 0.67331 0.71323 0.0
C1117 C 0.84615 0.67374 0.64234 0.0
C1118 C 0.84349 0.69838 0.66232 0.0
C1119 C 0.82596 0.72402 0.71766 0.0
C1120 C 0.8122 0.72414 0.7532 0.0
C1121 C 0.82984 0.69867 0.69771 0.0
C1122 C 0.80286 0.69818 0.76846 0.0
C1123 C 0.80631 0.67321 0.74874 0.0
H1124 H 0.46964 0.80595 0.72189 0.0
H1125 H 0.46754 0.73389 0.66125 0.0
H1126 H 0.41663 0.73654 0.69158 0.0
H1127 H 0.37257 0.7578 0.73748 0.0
H1128 H 0.37577 0.82824 0.79984 0.0
H1129 H 0.4252 0.82791 0.76697 0.0
C1130 C 0.45796 0.79103 0.71504 0.0
C1131 C 0.47301 0.76958 0.68915 0.0
C1132 C 0.42839 0.79234 0.73315 0.0
C1133 C 0.45718 0.75032 0.68121 0.0
C1134 C 0.42776 0.75192 0.69855 0.0
C1135 C 0.38383 0.77342 0.74357 0.0
C1136 C 0.36989 0.79318 0.77129 0.0
C1137 C 0.41309 0.77262 0.72488 0.0
C1138 C 0.38554 0.81273 0.77887 0.0
C1139 C 0.41406 0.81256 0.76 0.0
H1140 H 0.28938 0.42427 0.64036 0.0
H1141 H 0.38491 0.40979 0.65006 0.0
H1142 H 0.38268 0.3758 0.70555 0.0
H1143 H 0.35402 0.3489 0.75129 0.0
H1144 H 0.25874 0.36267 0.741 0.0
H1145 H 0.26042 0.39826 0.68663 0.0
C1146 C 0.30965 0.41399 0.65471 0.0
C1147 C 0.33733 0.41973 0.64053 0.0
C1148 C 0.30826 0.39422 0.68688 0.0
C1149 C 0.36339 0.40564 0.65967 0.0
C1150 C 0.36209 0.38624 0.69171 0.0
C1151 C 0.33349 0.35997 0.73742 0.0
C1152 C 0.30622 0.35306 0.75063 0.0
C1153 C 0.33471 0.38019 0.70557 0.0
C1154 C 0.28007 0.3674 0.73174 0.0
C1155 C 0.281 0.38782 0.70046 0.0
H1156 H 0.61483 0.29001 0.56528 0.0
H1157 H 0.53381 0.33346 0.63559 0.0
H1158 H 0.56633 0.34383 0.67411 0.0
H1159 H 0.619 0.33427 0.69106 0.0
H1160 H 0.69921 0.29038 0.61913 0.0
H1161 H 0.66593 0.28696 0.57776 0.0
C1162 C 0.6042 0.30284 0.58834 0.0
C1163 C 0.57201 0.31145 0.59733 0.0
C1164 C 0.62305 0.30816 0.61038 0.0
C1165 C 0.55849 0.3273 0.62773 0.0
C1166 C 0.57717 0.33277 0.64998 0.0
C1167 C 0.62912 0.32432 0.66614 0.0
C1168 C 0.66172 0.31254 0.65841 0.0
C1169 C 0.60966 0.32232 0.64217 0.0
C1170 C 0.67435 0.29997 0.62577 0.0
C1171 C 0.6553 0.29779 0.60209 0.0
H1172 H 0.83153 0.4915 0.58711 0.0
H1173 H 0.86943 0.53852 0.49474 0.0
H1174 H 0.86671 0.50011 0.45795 0.0
H1175 H 0.84925 0.45618 0.45083 0.0
H1176 H 0.80861 0.41102 0.54257 0.0
H1177 H 0.81684 0.44549 0.58059 0.0
C1178 C 0.83966 0.49312 0.55907 0.0
C1179 C 0.85047 0.51818 0.54381 0.0
C1180 C 0.83715 0.47144 0.53775 0.0
C1181 C 0.86094 0.51964 0.50732 0.0
C1182 C 0.8592 0.49776 0.48615 0.0
C1183 C 0.84209 0.45388 0.47913 0.0
C1184 C 0.82801 0.4311 0.4936 0.0
C1185 C 0.84651 0.47414 0.50086 0.0
C1186 C 0.81964 0.4281 0.53055 0.0
C1187 C 0.82421 0.44796 0.55237 0.0
H1188 H 0.67244 0.74539 0.48569 0.0
H1189 H 0.65938 0.83317 0.52737 0.0
H1190 H 0.69291 0.84705 0.47646 0.0
H1191 H 0.72716 0.83381 0.41957 0.0
H1192 H 0.73711 0.74687 0.3775 0.0
H1193 H 0.7044 0.73326 0.42857 0.0
C1194 C 0.67694 0.76754 0.48378 0.0
C1195 C 0.66324 0.78807 0.51077 0.0
C1196 C 0.69597 0.77565 0.45398 0.0
C1197 C 0.66922 0.81691 0.50715 0.0
C1198 C 0.68862 0.82483 0.47797 0.0
C1199 C 0.72196 0.81204 0.42143 0.0
C1200 C 0.73465 0.79169 0.39402 0.0
C1201 C 0.70225 0.80439 0.45108 0.0
C1202 C 0.72751 0.76347 0.39743 0.0
C1203 C 0.7088 0.75545 0.42695 0.0
H1204 H 0.34843 0.60563 0.40686 0.0
H1205 H 0.29997 0.63138 0.50917 0.0
H1206 H 0.29025 0.68774 0.48882 0.0
H1207 H 0.29427 0.73061 0.44077 0.0
H1208 H 0.34035 0.70403 0.33807 0.0
H1209 H 0.35277 0.64774 0.35962 0.0
C1210 C 0.33603 0.62349 0.42488 0.0
C1211 C 0.32495 0.61396 0.45957 0.0
C1212 C 0.33024 0.65604 0.41285 0.0
C1213 C 0.30849 0.63779 0.48222 0.0
C1214 C 0.30303 0.67015 0.47062 0.0
C1215 C 0.30737 0.7124 0.42339 0.0
C1216 C 0.31717 0.72153 0.38799 0.0
C1217 C 0.3136 0.67971 0.43586 0.0
C1218 C 0.3334 0.69765 0.36557 0.0
C1219 C 0.34022 0.66538 0.37784 0.0
H1220 H 0.44688 0.24346 0.48188 0.0
H1221 H 0.44676 0.33994 0.46004 0.0
H1222 H 0.40583 0.35256 0.42069 0.0
H1223 H 0.37037 0.33558 0.39175 0.0
H1224 H 0.37076 0.239 0.4162 0.0
H1225 H 0.41128 0.22714 0.45501 0.0
C1226 C 0.43801 0.26735 0.4686 0.0
C1227 C 0.45019 0.29065 0.47392 0.0
C1228 C 0.41448 0.27439 0.44624 0.0
C1229 C 0.43794 0.32149 0.45659 0.0
C1230 C 0.41456 0.32867 0.43396 0.0
C1231 C 0.37942 0.3119 0.40546 0.0
C1232 C 0.36746 0.28816 0.40069 0.0
C1233 C 0.40273 0.30522 0.42839 0.0
C1234 C 0.37932 0.25777 0.41915 0.0
C1235 C 0.40259 0.25092 0.44144 0.0
H1236 H 0.65099 0.85766 0.65378 0.0
H1237 H 0.61109 0.79338 0.72093 0.0
H1238 H 0.64682 0.78591 0.7649 0.0
H1239 H 0.69187 0.79495 0.78267 0.0
H1240 H 0.73075 0.86016 0.71553 0.0
H1241 H 0.69306 0.86987 0.67358 0.0
C1242 C 0.64982 0.84227 0.6782 0.0
C1243 C 0.62836 0.82601 0.68377 0.0
C1244 C 0.67052 0.83802 0.70343 0.0
C1245 C 0.62723 0.8063 0.71578 0.0
C1246 C 0.64782 0.80186 0.74094 0.0
C1247 C 0.69197 0.81148 0.75901 0.0
C1248 C 0.71442 0.82661 0.75238 0.0
C1249 C 0.66997 0.81716 0.7348 0.0
C1250 C 0.71389 0.84812 0.72157 0.0
C1251 C 0.69232 0.85367 0.69738 0.0
H1252 H 0.64018 0.23454 0.41997 0.0
H1253 H 0.62887 0.29506 0.50167 0.0
H1254 H 0.67479 0.30754 0.47461 0.0
H1255 H 0.71734 0.30304 0.42595 0.0
H1256 H 0.72712 0.24378 0.34334 0.0
H1257 H 0.68322 0.22879 0.37266 0.0
C1258 C 0.64796 0.25014 0.43211 0.0
C1259 C 0.63093 0.26383 0.46282 0.0
C1260 C 0.67427 0.25754 0.41613 0.0
C1261 C 0.64121 0.2844 0.47784 0.0
C1262 C 0.66763 0.29149 0.46243 0.0
C1263 C 0.71005 0.28658 0.41465 0.0
C1264 C 0.72547 0.27466 0.38244 0.0
C1265 C 0.68422 0.27846 0.43133 0.0
C1266 C 0.71553 0.25355 0.36796 0.0
C1267 C 0.69039 0.24491 0.38471 0.0
H1268 H 0.78168 0.63149 0.45963 0.0
H1269 H 0.78411 0.69263 0.53479 0.0
H1270 H 0.80017 0.72701 0.48661 0.0
H1271 H 0.81369 0.73958 0.42436 0.0
H1272 H 0.80791 0.68232 0.34674 0.0
H1273 H 0.79338 0.64606 0.39499 0.0
C1274 C 0.78529 0.65257 0.46538 0.0
C1275 C 0.78195 0.6593 0.50095 0.0
C1276 C 0.79445 0.6725 0.4373 0.0
C1277 C 0.78699 0.68662 0.50785 0.0
C1278 C 0.79618 0.70629 0.4803 0.0
C1279 C 0.80984 0.71893 0.4176 0.0
C1280 C 0.81261 0.7134 0.38176 0.0
C1281 C 0.80034 0.69922 0.44509 0.0
C1282 C 0.80653 0.68688 0.37403 0.0
C1283 C 0.79792 0.66635 0.40162 0.0
H1284 H 0.54023 0.81457 0.50106 0.0
H1285 H 0.48202 0.8704 0.58344 0.0
H1286 H 0.43756 0.88607 0.54869 0.0
H1287 H 0.41422 0.87696 0.49893 0.0
H1288 H 0.47326 0.81663 0.42011 0.0
H1289 H 0.51843 0.80984 0.44926 0.0
C1290 C 0.51794 0.83082 0.51101 0.0
C1291 C 0.5142 0.84117 0.54473 0.0
C1292 C 0.49254 0.83842 0.49175 0.0
C1293 C 0.48542 0.86238 0.55736 0.0
C1294 C 0.45996 0.87089 0.53772 0.0
C1295 C 0.43699 0.86242 0.48809 0.0
C1296 C 0.44019 0.84714 0.45744 0.0
C1297 C 0.46302 0.85788 0.5056 0.0
C1298 C 0.46999 0.82895 0.44336 0.0
C1299 C 0.49591 0.82486 0.46016 0.0
H1300 H 0.26515 0.44609 0.49287 0.0
H1301 H 0.27562 0.50923 0.39909 0.0
H1302 H 0.27258 0.47163 0.36157 0.0
H1303 H 0.27164 0.41875 0.35482 0.0
H1304 H 0.26116 0.35548 0.44852 0.0
H1305 H 0.25917 0.39523 0.48624 0.0
C1306 C 0.26631 0.45187 0.46426 0.0
C1307 C 0.2709 0.48046 0.44898 0.0
C1308 C 0.26473 0.42995 0.44261 0.0
C1309 C 0.27223 0.48745 0.41177 0.0
C1310 C 0.27058 0.46586 0.39017 0.0
C1311 C 0.26843 0.41376 0.38348 0.0
C1312 C 0.2668 0.38389 0.3986 0.0
C1313 C 0.26753 0.43671 0.40522 0.0
C1314 C 0.26259 0.37811 0.43591 0.0
C1315 C 0.26155 0.40085 0.45763 0.0
H1316 H 0.4513 0.20752 0.65689 0.0
H1317 H 0.48059 0.28395 0.67454 0.0
H1318 H 0.44566 0.29216 0.72963 0.0
H1319 H 0.40355 0.28041 0.77031 0.0
H1320 H 0.37169 0.20662 0.74992 0.0
H1321 H 0.41121 0.19398 0.69905 0.0
C1322 C 0.45042 0.22555 0.67315 0.0
C1323 C 0.46841 0.24517 0.66157 0.0
C1324 C 0.42982 0.23053 0.70444 0.0
C1325 C 0.46668 0.26881 0.68266 0.0
C1326 C 0.4468 0.27343 0.71424 0.0
C1327 C 0.40589 0.26104 0.75521 0.0
C1328 C 0.38512 0.24416 0.76398 0.0
C1329 C 0.42784 0.25481 0.7251 0.0
C1330 C 0.38768 0.21972 0.7437 0.0
C1331 C 0.41012 0.21262 0.71453 0.0
H1332 H 0.80053 0.49199 0.74208 0.0
H1333 H 0.75204 0.48136 0.6602 0.0
H1334 H 0.76102 0.4254 0.68332 0.0
H1335 H 0.78178 0.38012 0.72788 0.0
H1336 H 0.83326 0.39022 0.80755 0.0
H1337 H 0.82457 0.44561 0.78397 0.0
C1338 C 0.79178 0.47733 0.72964 0.0
C1339 C 0.77506 0.4906 0.70013 0.0
C1340 C 0.79791 0.44513 0.74242 0.0
C1341 C 0.76457 0.47145 0.6833 0.0
C1342 C 0.76982 0.43958 0.69642 0.0
C1343 C 0.79135 0.39436 0.73987 0.0
C1344 C 0.80807 0.38104 0.76952 0.0
C1345 C 0.78639 0.42619 0.72607 0.0
C1346 C 0.82051 0.39975 0.78457 0.0
C1347 C 0.81532 0.43154 0.77129 0.0
H1348 H 0.32194 0.59107 0.57803 0.0
H1349 H 0.2364 0.57573 0.62089 0.0
H1350 H 0.22182 0.62202 0.65483 0.0
H1351 H 0.23642 0.66324 0.67631 0.0
H1352 H 0.32261 0.67719 0.63261 0.0
H1353 H 0.33417 0.63456 0.5949 0.0
C1354 C 0.30002 0.59789 0.59477 0.0
C1355 C 0.28048 0.57981 0.59773 0.0
C1356 C 0.29216 0.62398 0.6141 0.0
C1357 C 0.2518 0.58932 0.61853 0.0
C1358 C 0.24363 0.6156 0.63797 0.0
C1359 C 0.25745 0.6573 0.65806 0.0
C1360 C 0.27886 0.67305 0.65754 0.0
C1361 C 0.26403 0.63261 0.63656 0.0
C1362 C 0.3061 0.665 0.63396 0.0
C1363 C 0.31265 0.64076 0.61232 0.0
loop_
_geom_bond_atom_site_label_1
_geom_bond_atom_site_label_2
_geom_bond_distance
_geom_bond_site_symmetry_2
_ccdc_geom_bond_type
Cu0 N1 1.999 . S
Cu0 O6 1.974 1_545 S
Cu0 N11 1.985 1_545 S
Cu0 O20 1.959 1_455 S
N1 Cu0 1.999 . S
N1 C3 1.263 . S
N1 C5 1.389 . S
N2 C3 1.358 . S
N2 C4 1.400 . S
C3 N1 1.263 . S
C3 N2 1.358 . S
C3 H9 0.930 . S
C4 N2 1.400 . S
C4 C5 1.351 . S
C4 H21 0.930 . S
C5 N1 1.389 . S
C5 C4 1.351 . S
C5 H10 0.930 . S
O6 Cu0 1.974 1_565 S
O6 C16 1.282 . S
C7 O8 1.249 1_655 S
C7 O20 1.251 . S
O8 C7 1.249 1_455 S
H9 C3 0.930 . S
H10 C5 0.930 . S
N11 Cu0 1.985 1_565 S
N11 C13 1.335 1_455 S
N11 C14 1.390 . S
N12 C13 1.345 . S
N12 C15 1.336 1_655 S
C13 N11 1.335 1_655 S
C13 N12 1.345 . S
C13 H18 0.930 1_565 S
C14 N11 1.390 . S
C14 C15 1.346 . S
C14 H19 0.930 . S
C15 N12 1.336 1_455 S
C15 C14 1.346 . S
C15 H22 0.929 . S
C16 O6 1.282 . S
C16 O17 1.216 . S
O17 C16 1.216 . S
H18 C13 0.930 1_545 S
H19 C14 0.930 . S
O20 Cu0 1.959 1_655 S
O20 C7 1.251 . S
H21 C4 0.930 . S
H22 C15 0.929 . S
Cu23 N24 1.999 . S
Cu23 O29 1.974 1_455 S
Cu23 N34 1.985 . S
Cu23 O43 1.959 . S
N24 Cu23 1.999 . S
N24 C26 1.263 1_455 S
N24 C28 1.389 1_545 S
N25 C26 1.358 . S
N25 C27 1.400 1_545 S
C26 N24 1.263 1_655 S
C26 N25 1.358 . S
C26 H32 0.930 . S
C27 N25 1.400 1_565 S
C27 C28 1.351 1_655 S
C27 H44 0.930 . S
C28 N24 1.389 1_565 S
C28 C27 1.351 1_455 S
C28 H33 0.930 . S
O29 Cu23 1.974 1_655 S
O29 C39 1.282 . S
C30 O31 1.261 . S
C30 O43 1.251 . S
O31 C30 1.261 . S
H32 C26 0.930 . S
H33 C28 0.930 . S
N34 Cu23 1.985 . S
N34 C36 1.335 . S
N34 C37 1.390 . S
N35 C36 1.345 . S
N35 C38 1.336 . S
C36 N34 1.335 . S
C36 N35 1.345 . S
C36 H41 0.930 . S
C37 N34 1.390 . S
C37 C38 1.346 . S
C37 H42 0.930 . S
C38 N35 1.336 . S
C38 C37 1.346 . S
C38 H45 0.929 . S
C39 O29 1.282 . S
C39 O40 1.216 . S
O40 C39 1.216 . S
H41 C36 0.930 . S
H42 C37 0.930 . S
O43 Cu23 1.959 . S
O43 C30 1.251 . S
H44 C27 0.930 . S
H45 C38 0.929 . S
Cu46 N47 1.999 . S
Cu46 O52 1.974 . S
Cu46 N57 1.985 . S
Cu46 O66 1.959 . S
N47 Cu46 1.999 . S
N47 C49 1.263 . S
N47 C51 1.389 . S
N48 C49 1.358 . S
N48 C50 1.400 . S
C49 N47 1.263 . S
C49 N48 1.358 . S
C49 H55 0.930 . S
C50 N48 1.400 . S
C50 C51 1.351 . S
C50 H67 0.930 1_554 S
C51 N47 1.389 . S
C51 C50 1.351 . S
C51 H56 0.930 . S
O52 Cu46 1.974 . S
O52 C62 1.282 . S
C53 O54 1.261 . S
C53 O66 1.251 . S
O54 C53 1.261 . S
H55 C49 0.930 . S
H56 C51 0.930 . S
N57 Cu46 1.985 . S
N57 C59 1.335 . S
N57 C60 1.390 . S
N58 C59 1.345 . S
N58 C61 1.336 . S
C59 N57 1.335 . S
C59 N58 1.345 . S
C59 H64 0.930 . S
C60 N57 1.390 . S
C60 C61 1.346 . S
C60 H65 0.930 . S
C61 N58 1.336 . S
C61 C60 1.346 . S
C61 H68 0.929 . S
C62 O52 1.282 . S
C62 O63 1.216 . S
O63 C62 1.216 . S
H64 C59 0.930 . S
H65 C60 0.930 . S
O66 Cu46 1.959 . S
O66 C53 1.251 . S
H67 C50 0.930 1_556 S
H68 C61 0.929 . S
Cu69 N70 1.999 . S
Cu69 O75 1.974 . S
Cu69 N80 1.985 . S
Cu69 O89 1.959 . S
N70 Cu69 1.999 . S
N70 C72 1.263 . S
N70 C74 1.389 . S
N71 C72 1.358 . S
N71 C73 1.400 1_554 S
C72 N70 1.263 . S
C72 N71 1.358 . S
C72 H78 0.930 . S
C73 N71 1.400 1_556 S
C73 C74 1.351 1_556 S
C73 H90 0.930 . S
C74 N70 1.389 . S
C74 C73 1.351 1_554 S
C74 H79 0.930 . S
O75 Cu69 1.974 . S
O75 C85 1.282 . S
C76 O77 1.261 . S
C76 O89 1.251 . S
O77 C76 1.261 . S
H78 C72 0.930 . S
H79 C74 0.930 . S
N80 Cu69 1.985 . S
N80 C82 1.335 1_455 S
N80 C83 1.390 . S
N81 C82 1.345 . S
N81 C84 1.336 1_655 S
C82 N80 1.335 1_655 S
C82 N81 1.345 . S
C82 H87 0.930 . S
C83 N80 1.390 . S
C83 C84 1.346 . S
C83 H88 0.930 . S
C84 N81 1.336 1_455 S
C84 C83 1.346 . S
C84 H91 0.929 . S
C85 O75 1.282 . S
C85 O86 1.216 . S
O86 C85 1.216 . S
H87 C82 0.930 . S
H88 C83 0.930 . S
O89 Cu69 1.959 . S
O89 C76 1.251 . S
H90 C73 0.930 . S
H91 C84 0.929 . S
Cu92 N93 1.999 1_554 S
Cu92 O98 1.974 . S
Cu92 N103 1.985 1_545 S
Cu92 O112 1.959 1_544 S
N93 Cu92 1.999 1_556 S
N93 C95 1.263 . S
N93 C97 1.389 . S
N94 C95 1.358 . S
N94 C96 1.400 . S
C95 N93 1.263 . S
C95 N94 1.358 . S
C95 H101 0.930 . S
C96 N94 1.400 . S
C96 C97 1.351 . S
C96 H113 0.930 . S
C97 N93 1.389 . S
C97 C96 1.351 . S
C97 H102 0.930 . S
O98 Cu92 1.974 . S
O98 C108 1.282 . S
C99 O100 1.261 . S
C99 O112 1.251 . S
O100 C99 1.261 . S
H101 C95 0.930 . S
H102 C97 0.930 . S
N103 Cu92 1.985 1_565 S
N103 C105 1.335 . S
N103 C106 1.390 . S
N104 C105 1.345 . S
N104 C107 1.336 . S
C105 N103 1.335 . S
C105 N104 1.345 . S
C105 H110 0.930 . S
C106 N103 1.390 . S
C106 C107 1.346 . S
C106 H111 0.930 . S
C107 N104 1.336 . S
C107 C106 1.346 . S
C107 H114 0.929 . S
C108 O98 1.282 . S
C108 O109 1.216 . S
O109 C108 1.216 . S
H110 C105 0.930 . S
H111 C106 0.930 . S
O112 Cu92 1.959 1_566 S
O112 C99 1.251 . S
H113 C96 0.930 . S
H114 C107 0.929 . S
Cu115 N116 1.999 1_454 S
Cu115 O121 1.974 1_455 S
Cu115 N126 1.985 . S
Cu115 O135 1.959 1_554 S
N116 Cu115 1.999 1_656 S
N116 C118 1.263 . S
N116 C120 1.389 . S
N117 C118 1.358 . S
N117 C119 1.400 . S
C118 N116 1.263 . S
C118 N117 1.358 . S
C118 H124 0.930 . S
C119 N117 1.400 . S
C119 C120 1.351 . S
C119 H136 0.930 . S
C120 N116 1.389 . S
C120 C119 1.351 . S
C120 H125 0.930 1_655 S
O121 Cu115 1.974 1_655 S
O121 C131 1.282 . S
C122 O123 1.261 . S
C122 O135 1.251 . S
O123 C122 1.261 . S
H124 C118 0.930 . S
H125 C120 0.930 1_455 S
N126 Cu115 1.985 . S
N126 C128 1.335 . S
N126 C129 1.390 . S
N127 C128 1.345 . S
N127 C130 1.336 . S
C128 N126 1.335 . S
C128 N127 1.345 . S
C128 H133 0.930 . S
C129 N126 1.390 . S
C129 C130 1.346 . S
C129 H134 0.900 1_455 S
C130 N127 1.336 . S
C130 C129 1.346 . S
C130 H137 0.929 . S
C131 O121 1.282 . S
C131 O132 1.216 . S
O132 C131 1.216 . S
H133 C128 0.930 . S
H134 C129 0.900 1_655 S
O135 Cu115 1.959 1_556 S
O135 C122 1.251 . S
H136 C119 0.930 . S
H137 C130 0.929 . S
Cu138 N139 1.999 . S
Cu138 O144 1.974 . S
Cu138 N149 1.985 . S
Cu138 O158 1.959 . S
N139 Cu138 1.999 . S
N139 C141 1.263 . S
N139 C143 1.389 . S
N140 C141 1.358 . S
N140 C142 1.400 . S
C141 N139 1.263 . S
C141 N140 1.358 . S
C141 H147 0.930 . S
C142 N140 1.400 . S
C142 C143 1.351 . S
C142 H159 0.930 . S
C143 N139 1.389 . S
C143 C142 1.351 . S
C143 H148 0.930 . S
O144 Cu138 1.974 . S
O144 C154 1.282 . S
C145 O146 1.261 . S
C145 O158 1.251 . S
O146 C145 1.261 . S
H147 C141 0.930 . S
H148 C143 0.930 . S
N149 Cu138 1.985 . S
N149 C151 1.335 . S
N149 C152 1.390 . S
N150 C151 1.345 . S
N150 C153 1.336 . S
C151 N149 1.335 . S
C151 N150 1.345 . S
C151 H156 0.930 . S
C152 N149 1.390 . S
C152 C153 1.346 . S
C152 H157 0.930 . S
C153 N150 1.336 . S
C153 C152 1.346 . S
C153 H160 0.929 . S
C154 O144 1.282 . S
C154 O155 1.216 . S
O155 C154 1.216 . S
H156 C151 0.930 . S
H157 C152 0.930 . S
O158 Cu138 1.959 . S
O158 C145 1.251 . S
H159 C142 0.930 . S
H160 C153 0.929 . S
Cu161 N162 1.999 . S
Cu161 O167 1.974 . S
Cu161 N172 1.985 . S
Cu161 O181 1.959 . S
N162 Cu161 1.999 . S
N162 C164 1.263 . S
N162 C166 1.389 . S
N163 C164 1.358 . S
N163 C165 1.400 . S
C164 N162 1.263 . S
C164 N163 1.358 . S
C164 H170 0.930 . S
C165 N163 1.400 . S
C165 C166 1.351 . S
C165 H182 0.930 . S
C166 N162 1.389 . S
C166 C165 1.351 . S
C166 H171 0.930 . S
O167 Cu161 1.974 . S
O167 C177 1.282 . S
C168 O169 1.261 . S
C168 O181 1.251 . S
O169 C168 1.261 . S
H170 C164 0.930 . S
H171 C166 0.930 . S
N172 Cu161 1.985 . S
N172 C174 1.335 . S
N172 C175 1.390 . S
N173 C174 1.345 . S
N173 C176 1.336 . S
C174 N172 1.335 . S
C174 N173 1.345 . S
C174 H179 0.930 . S
C175 N172 1.390 . S
C175 C176 1.346 . S
C175 H180 0.930 . S
C176 N173 1.336 . S
C176 C175 1.346 . S
C176 H183 0.929 . S
C177 O167 1.282 . S
C177 O178 1.216 . S
O178 C177 1.216 . S
H179 C174 0.930 . S
H180 C175 0.930 . S
O181 Cu161 1.959 . S
O181 C168 1.251 . S
H182 C165 0.930 . S
H183 C176 0.929 . S
Cu184 N185 1.999 . S
Cu184 O190 1.974 . S
Cu184 N195 1.985 . S
Cu184 O204 1.959 . S
N185 Cu184 1.999 . S
N185 C187 1.263 . S
N185 C189 1.389 . S
N186 C187 1.358 . S
N186 C188 1.400 . S
C187 N185 1.263 . S
C187 N186 1.358 . S
C187 H193 0.930 . S
C188 N186 1.400 . S
C188 C189 1.351 . S
C188 H205 0.930 . S
C189 N185 1.389 . S
C189 C188 1.351 . S
C189 H194 0.930 . S
O190 Cu184 1.974 . S
O190 C200 1.282 . S
C191 O192 1.261 . S
C191 O204 1.251 . S
O192 C191 1.261 . S
H193 C187 0.930 . S
H194 C189 0.930 . S
N195 Cu184 1.985 . S
N195 C197 1.335 . S
N195 C198 1.390 . S
N196 C197 1.345 . S
N196 C199 1.336 . S
C197 N195 1.335 . S
C197 N196 1.345 . S
C197 H202 0.930 . S
C198 N195 1.390 . S
C198 C199 1.346 . S
C198 H203 0.930 . S
C199 N196 1.336 . S
C199 C198 1.346 . S
C199 H206 0.929 . S
C200 O190 1.282 . S
C200 O201 1.216 . S
O201 C200 1.216 . S
H202 C197 0.930 . S
H203 C198 0.930 . S
O204 Cu184 1.959 . S
O204 C191 1.251 . S
H205 C188 0.930 . S
H206 C199 0.929 . S
Cu207 N208 1.999 . S
Cu207 O213 1.974 . S
Cu207 N218 1.985 . S
Cu207 O227 1.959 . S
N208 Cu207 1.999 . S
N208 C210 1.263 . S
N208 C212 1.389 . S
N209 C210 1.358 . S
N209 C211 1.400 . S
C210 N208 1.263 . S
C210 N209 1.358 . S
C210 H216 0.930 . S
C211 N209 1.400 . S
C211 C212 1.351 . S
C211 H228 0.930 . S
C212 N208 1.389 . S
C212 C211 1.351 . S
C212 H217 0.930 . S
O213 Cu207 1.974 . S
O213 C223 1.282 . S
C214 O215 1.261 . S
C214 O227 1.251 . S
O215 C214 1.261 . S
H216 C210 0.930 . S
H217 C212 0.930 . S
N218 Cu207 1.985 . S
N218 C220 1.335 . S
N218 C221 1.390 . S
N219 C220 1.345 . S
N219 C222 1.336 . S
C220 N218 1.335 . S
C220 N219 1.345 . S
C220 H225 0.930 . S
C221 N218 1.390 . S
C221 C222 1.346 . S
C221 H226 0.930 . S
C222 N219 1.336 . S
C222 C221 1.346 . S
C222 H229 0.929 . S
C223 O213 1.282 . S
C223 O224 1.216 . S
O224 C223 1.216 . S
H225 C220 0.930 . S
H226 C221 0.930 . S
O227 Cu207 1.959 . S
O227 C214 1.251 . S
H228 C211 0.930 . S
H229 C222 0.929 . S
Cu230 N231 1.999 . S
Cu230 O236 1.974 . S
Cu230 N241 1.985 . S
Cu230 O250 1.959 . S
N231 Cu230 1.999 . S
N231 C233 1.263 . S
N231 C235 1.389 . S
N232 C233 1.358 . S
N232 C234 1.400 . S
C233 N231 1.263 . S
C233 N232 1.358 . S
C233 H239 0.930 . S
C234 N232 1.400 . S
C234 C235 1.351 . S
C234 H251 0.930 . S
C235 N231 1.389 . S
C235 C234 1.351 . S
C235 H240 0.930 . S
O236 Cu230 1.974 . S
O236 C246 1.282 . S
C237 O238 1.261 . S
C237 O250 1.251 . S
O238 C237 1.261 . S
H239 C233 0.930 . S
H240 C235 0.930 . S
N241 Cu230 1.985 . S
N241 C243 1.335 . S
N241 C244 1.390 . S
N242 C243 1.345 . S
N242 C245 1.336 . S
C243 N241 1.335 . S
C243 N242 1.345 . S
C243 H248 0.930 . S
C244 N241 1.390 . S
C244 C245 1.346 . S
C244 H249 0.930 . S
C245 N242 1.336 . S
C245 C244 1.346 . S
C245 H252 0.929 . S
C246 O236 1.282 . S
C246 O247 1.216 . S
O247 C246 1.216 . S
H248 C243 0.930 . S
H249 C244 0.930 . S
O250 Cu230 1.959 . S
O250 C237 1.251 . S
H251 C234 0.930 . S
H252 C245 0.929 . S
Cu253 N254 1.999 . S
Cu253 O259 1.974 . S
Cu253 N264 1.985 . S
Cu253 O273 1.959 . S
N254 Cu253 1.999 . S
N254 C256 1.263 . S
N254 C258 1.389 . S
N255 C256 1.358 . S
N255 C257 1.400 . S
C256 N254 1.263 . S
C256 N255 1.358 . S
C256 H262 0.930 . S
C257 N255 1.400 . S
C257 C258 1.351 . S
C257 H274 0.930 . S
C258 N254 1.389 . S
C258 C257 1.351 . S
C258 H263 0.930 . S
O259 Cu253 1.974 . S
O259 C269 1.282 . S
C260 O261 1.261 . S
C260 O273 1.251 . S
O261 C260 1.261 . S
H262 C256 0.930 . S
H263 C258 0.930 . S
N264 Cu253 1.985 . S
N264 C266 1.335 . S
N264 C267 1.390 . S
N265 C266 1.345 . S
N265 C268 1.336 . S
C266 N264 1.335 . S
C266 N265 1.345 . S
C266 H271 0.930 . S
C267 N264 1.390 . S
C267 C268 1.346 . S
C267 H272 0.930 . S
C268 N265 1.336 . S
C268 C267 1.346 . S
C268 H275 0.929 . S
C269 O259 1.282 . S
C269 O270 1.216 . S
O270 C269 1.216 . S
H271 C266 0.930 . S
H272 C267 0.930 . S
O273 Cu253 1.959 . S
O273 C260 1.251 . S
H274 C257 0.930 . S
H275 C268 0.929 . S
Tb276 C285 2.764 . S
Tb276 O286 2.325 . S
Tb276 O289 2.303 . S
Tb276 O293 2.322 . S
Tb276 O294 2.349 . S
Tb276 O297 2.415 . S
Tb276 O298 2.399 . S
Tb277 O287 2.322 . S
Tb277 O288 2.349 . S
Tb277 O290 2.415 . S
Tb277 O291 2.399 . S
Tb277 O292 2.325 . S
Tb277 O295 2.303 . S
Tb277 C306 2.764 . S
C278 O294 1.261 . S
C278 O295 1.257 . S
C279 C282 1.358 . S
C279 C283 1.332 . S
C279 C285 1.504 . S
C280 C281 1.373 . S
C280 C284 1.308 . S
C281 C280 1.373 . S
C281 C282 1.429 . S
C281 H308 0.932 . S
C282 C279 1.358 . S
C282 C281 1.429 . S
C282 H309 0.930 . S
C283 C279 1.332 . S
C283 C284 1.394 . S
C283 H310 0.932 . S
C284 C280 1.308 . S
C284 C283 1.394 . S
C284 H311 0.929 . S
C285 Tb276 2.764 . S
C285 C279 1.504 . S
C285 O297 1.239 . S
C285 O298 1.263 . S
O286 Tb276 2.325 . S
O286 C296 1.236 . S
O287 Tb277 2.322 . S
O287 C296 1.257 . S
O288 Tb277 2.349 . S
O288 C299 1.261 . S
O289 Tb276 2.303 . S
O289 C299 1.257 . S
O290 Tb277 2.415 . S
O290 C306 1.239 . S
O291 Tb277 2.399 . S
O291 C306 1.263 . S
O292 Tb277 2.325 . S
O292 C307 1.236 . S
O293 Tb276 2.322 . S
O293 C307 1.257 . S
O294 Tb276 2.349 . S
O294 C278 1.261 . S
O295 Tb277 2.303 . S
O295 C278 1.257 . S
C296 O286 1.236 . S
C296 O287 1.257 . S
O297 Tb276 2.415 . S
O297 C285 1.239 . S
O298 Tb276 2.399 . S
O298 C285 1.263 . S
C299 O288 1.261 . S
C299 O289 1.257 . S
C300 C303 1.358 . S
C300 C304 1.332 . S
C300 C306 1.504 . S
C301 C302 1.373 . S
C301 C305 1.308 . S
C302 C301 1.373 . S
C302 C303 1.429 . S
C302 H312 0.932 . S
C303 C300 1.358 . S
C303 C302 1.429 . S
C303 H313 0.930 . S
C304 C300 1.332 . S
C304 C305 1.394 . S
C304 H314 0.932 . S
C305 C301 1.308 . S
C305 C304 1.394 . S
C305 H315 0.929 . S
C306 Tb277 2.764 . S
C306 O290 1.239 . S
C306 O291 1.263 . S
C306 C300 1.504 . S
C307 O292 1.236 . S
C307 O293 1.257 . S
H308 C281 0.932 . S
H309 C282 0.930 . S
H310 C283 0.932 . S
H311 C284 0.929 . S
H312 C302 0.932 . S
H313 C303 0.930 . S
H314 C304 0.932 . S
H315 C305 0.929 . S
Tb316 C325 2.764 . S
Tb316 O326 2.325 . S
Tb316 O329 2.303 . S
Tb316 O333 2.322 . S
Tb316 O334 2.349 . S
Tb316 O337 2.415 . S
Tb316 O338 2.399 . S
Tb317 O327 2.322 . S
Tb317 O328 2.349 . S
Tb317 O330 2.415 . S
Tb317 O331 2.399 . S
Tb317 O332 2.325 . S
Tb317 O335 2.303 . S
Tb317 C346 2.764 . S
C318 O334 1.261 . S
C318 O335 1.257 . S
C319 C322 1.358 . S
C319 C323 1.332 . S
C319 C325 1.504 . S
C320 C321 1.373 . S
C320 C324 1.308 . S
C321 C320 1.373 . S
C321 C322 1.429 . S
C321 H348 0.932 . S
C322 C319 1.358 . S
C322 C321 1.429 . S
C322 H349 0.930 . S
C323 C319 1.332 . S
C323 C324 1.394 . S
C323 H350 0.932 . S
C324 C320 1.308 . S
C324 C323 1.394 . S
C324 H351 0.929 . S
C325 Tb316 2.764 . S
C325 C319 1.504 . S
C325 O337 1.239 . S
C325 O338 1.263 . S
O326 Tb316 2.325 . S
O326 C336 1.236 . S
O327 Tb317 2.322 . S
O327 C336 1.257 . S
O328 Tb317 2.349 . S
O328 C339 1.261 . S
O329 Tb316 2.303 . S
O329 C339 1.257 . S
O330 Tb317 2.415 . S
O330 C346 1.239 . S
O331 Tb317 2.399 . S
O331 C346 1.263 . S
O332 Tb317 2.325 . S
O332 C347 1.236 . S
O333 Tb316 2.322 . S
O333 C347 1.257 . S
O334 Tb316 2.349 . S
O334 C318 1.261 . S
O335 Tb317 2.303 . S
O335 C318 1.257 . S
C336 O326 1.236 . S
C336 O327 1.257 . S
O337 Tb316 2.415 . S
O337 C325 1.239 . S
O338 Tb316 2.399 . S
O338 C325 1.263 . S
C339 O328 1.261 . S
C339 O329 1.257 . S
C340 C343 1.358 . S
C340 C344 1.332 . S
C340 C346 1.504 . S
C341 C342 1.373 . S
C341 C345 1.308 . S
C342 C341 1.373 . S
C342 C343 1.429 . S
C342 H352 0.932 . S
C343 C340 1.358 . S
C343 C342 1.429 . S
C343 H353 0.930 . S
C344 C340 1.332 . S
C344 C345 1.394 . S
C344 H354 0.932 . S
C345 C341 1.308 . S
C345 C344 1.394 . S
C345 H355 0.929 . S
C346 Tb317 2.764 . S
C346 O330 1.239 . S
C346 O331 1.263 . S
C346 C340 1.504 . S
C347 O332 1.236 . S
C347 O333 1.257 . S
H348 C321 0.932 . S
H349 C322 0.930 . S
H350 C323 0.932 . S
H351 C324 0.929 . S
H352 C342 0.932 . S
H353 C343 0.930 . S
H354 C344 0.932 . S
H355 C345 0.929 . S
Tb356 C365 2.764 . S
Tb356 O366 2.325 . S
Tb356 O369 2.303 . S
Tb356 O373 2.322 . S
Tb356 O374 2.349 . S
Tb356 O377 2.415 . S
Tb356 O378 2.399 . S
Tb357 O367 2.322 . S
Tb357 O368 2.349 . S
Tb357 O370 2.415 . S
Tb357 O371 2.399 . S
Tb357 O372 2.325 . S
Tb357 O375 2.303 . S
Tb357 C386 2.764 . S
C358 O374 1.261 . S
C358 O375 1.257 . S
C359 C362 1.358 . S
C359 C363 1.332 . S
C359 C365 1.504 . S
C360 C361 1.373 . S
C360 C364 1.308 . S
C361 C360 1.373 . S
C361 C362 1.429 . S
C361 H388 0.932 . S
C362 C359 1.358 . S
C362 C361 1.429 . S
C362 H389 0.930 . S
C363 C359 1.332 . S
C363 C364 1.394 . S
C363 H390 0.932 . S
C364 C360 1.308 . S
C364 C363 1.394 . S
C364 H391 0.929 . S
C365 Tb356 2.764 . S
C365 C359 1.504 . S
C365 O377 1.239 . S
C365 O378 1.263 . S
O366 Tb356 2.325 . S
O366 C376 1.236 . S
O367 Tb357 2.322 . S
O367 C376 1.257 . S
O368 Tb357 2.349 . S
O368 C379 1.261 . S
O369 Tb356 2.303 . S
O369 C379 1.257 . S
O370 Tb357 2.415 . S
O370 C386 1.239 . S
O371 Tb357 2.399 . S
O371 C386 1.263 . S
O372 Tb357 2.325 . S
O372 C387 1.236 . S
O373 Tb356 2.322 . S
O373 C387 1.257 . S
O374 Tb356 2.349 . S
O374 C358 1.261 . S
O375 Tb357 2.303 . S
O375 C358 1.257 . S
C376 O366 1.236 . S
C376 O367 1.257 . S
O377 Tb356 2.415 . S
O377 C365 1.239 . S
O378 Tb356 2.399 . S
O378 C365 1.263 . S
C379 O368 1.261 . S
C379 O369 1.257 . S
C380 C383 1.358 . S
C380 C384 1.332 . S
C380 C386 1.504 . S
C381 C382 1.373 . S
C381 C385 1.308 . S
C382 C381 1.373 . S
C382 C383 1.429 . S
C382 H392 0.932 . S
C383 C380 1.358 . S
C383 C382 1.429 . S
C383 H393 0.930 . S
C384 C380 1.332 . S
C384 C385 1.394 . S
C384 H394 0.932 . S
C385 C381 1.308 . S
C385 C384 1.394 . S
C385 H395 0.929 . S
C386 Tb357 2.764 . S
C386 O370 1.239 . S
C386 O371 1.263 . S
C386 C380 1.504 . S
C387 O372 1.236 . S
C387 O373 1.257 . S
H388 C361 0.932 . S
H389 C362 0.930 . S
H390 C363 0.932 . S
H391 C364 0.929 . S
H392 C382 0.932 . S
H393 C383 0.930 . S
H394 C384 0.932 . S
H395 C385 0.929 . S
Tb396 C405 2.764 . S
Tb396 O406 2.325 . S
Tb396 O409 2.303 . S
Tb396 O413 2.322 . S
Tb396 O414 2.349 . S
Tb396 O417 2.415 . S
Tb396 O418 2.399 . S
Tb397 O407 2.322 . S
Tb397 O408 2.349 . S
Tb397 O410 2.415 . S
Tb397 O411 2.399 . S
Tb397 O412 2.325 . S
Tb397 O415 2.303 . S
Tb397 C426 2.764 . S
C398 O414 1.261 . S
C398 O415 1.257 . S
C399 C402 1.358 . S
C399 C403 1.332 . S
C399 C405 1.504 . S
C400 C401 1.373 . S
C400 C404 1.308 . S
C401 C400 1.373 . S
C401 C402 1.429 . S
C401 H428 0.932 . S
C402 C399 1.358 . S
C402 C401 1.429 . S
C402 H429 0.930 . S
C403 C399 1.332 . S
C403 C404 1.394 . S
C403 H430 0.932 . S
C404 C400 1.308 . S
C404 C403 1.394 . S
C404 H431 0.929 . S
C405 Tb396 2.764 . S
C405 C399 1.504 . S
C405 O417 1.239 . S
C405 O418 1.263 . S
O406 Tb396 2.325 . S
O406 C416 1.236 . S
O407 Tb397 2.322 . S
O407 C416 1.257 . S
O408 Tb397 2.349 . S
O408 C419 1.261 . S
O409 Tb396 2.303 . S
O409 C419 1.257 . S
O410 Tb397 2.415 . S
O410 C426 1.239 . S
O411 Tb397 2.399 . S
O411 C426 1.263 . S
O412 Tb397 2.325 . S
O412 C427 1.236 . S
O413 Tb396 2.322 . S
O413 C427 1.257 . S
O414 Tb396 2.349 . S
O414 C398 1.261 . S
O415 Tb397 2.303 . S
O415 C398 1.257 . S
C416 O406 1.236 . S
C416 O407 1.257 . S
O417 Tb396 2.415 . S
O417 C405 1.239 . S
O418 Tb396 2.399 . S
O418 C405 1.263 . S
C419 O408 1.261 . S
C419 O409 1.257 . S
C420 C423 1.358 . S
C420 C424 1.332 . S
C420 C426 1.504 . S
C421 C422 1.373 . S
C421 C425 1.308 . S
C422 C421 1.373 . S
C422 C423 1.429 . S
C422 H432 0.932 . S
C423 C420 1.358 . S
C423 C422 1.429 . S
C423 H433 0.930 . S
C424 C420 1.332 . S
C424 C425 1.394 . S
C424 H434 0.932 . S
C425 C421 1.308 . S
C425 C424 1.394 . S
C425 H435 0.929 . S
C426 Tb397 2.764 . S
C426 O410 1.239 . S
C426 O411 1.263 . S
C426 C420 1.504 . S
C427 O412 1.236 . S
C427 O413 1.257 . S
H428 C401 0.932 . S
H429 C402 0.930 . S
H430 C403 0.932 . S
H431 C404 0.929 . S
H432 C422 0.932 . S
H433 C423 0.930 . S
H434 C424 0.932 . S
H435 C425 0.929 . S
Tb436 C445 2.764 . S
Tb436 O446 2.325 . S
Tb436 O449 2.303 . S
Tb436 O453 2.322 . S
Tb436 O454 2.349 . S
Tb436 O457 2.415 . S
Tb436 O458 2.399 . S
Tb437 O447 2.322 . S
Tb437 O448 2.349 . S
Tb437 O450 2.415 . S
Tb437 O451 2.399 . S
Tb437 O452 2.325 . S
Tb437 O455 2.303 . S
Tb437 C466 2.764 . S
C438 O454 1.261 . S
C438 O455 1.257 . S
C439 C442 1.358 . S
C439 C443 1.332 . S
C439 C445 1.504 . S
C440 C441 1.373 . S
C440 C444 1.308 . S
C441 C440 1.373 . S
C441 C442 1.429 . S
C441 H468 0.932 . S
C442 C439 1.358 . S
C442 C441 1.429 . S
C442 H469 0.930 . S
C443 C439 1.332 . S
C443 C444 1.394 . S
C443 H470 0.932 . S
C444 C440 1.308 . S
C444 C443 1.394 . S
C444 H471 0.929 . S
C445 Tb436 2.764 . S
C445 C439 1.504 . S
C445 O457 1.239 . S
C445 O458 1.263 . S
O446 Tb436 2.325 . S
O446 C456 1.236 . S
O447 Tb437 2.322 . S
O447 C456 1.257 . S
O448 Tb437 2.349 . S
O448 C459 1.261 . S
O449 Tb436 2.303 . S
O449 C459 1.257 . S
O450 Tb437 2.415 . S
O450 C466 1.239 . S
O451 Tb437 2.399 . S
O451 C466 1.263 . S
O452 Tb437 2.325 . S
O452 C467 1.236 . S
O453 Tb436 2.322 . S
O453 C467 1.257 . S
O454 Tb436 2.349 . S
O454 C438 1.261 . S
O455 Tb437 2.303 . S
O455 C438 1.257 . S
C456 O446 1.236 . S
C456 O447 1.257 . S
O457 Tb436 2.415 . S
O457 C445 1.239 . S
O458 Tb436 2.399 . S
O458 C445 1.263 . S
C459 O448 1.261 . S
C459 O449 1.257 . S
C460 C463 1.358 . S
C460 C464 1.332 . S
C460 C466 1.504 . S
C461 C462 1.373 . S
C461 C465 1.308 . S
C462 C461 1.373 . S
C462 C463 1.429 . S
C462 H472 0.932 . S
C463 C460 1.358 . S
C463 C462 1.429 . S
C463 H473 0.930 . S
C464 C460 1.332 . S
C464 C465 1.394 . S
C464 H474 0.932 . S
C465 C461 1.308 . S
C465 C464 1.394 . S
C465 H475 0.929 . S
C466 Tb437 2.764 . S
C466 O450 1.239 . S
C466 O451 1.263 . S
C466 C460 1.504 . S
C467 O452 1.236 . S
C467 O453 1.257 . S
H468 C441 0.932 . S
H469 C442 0.930 . S
H470 C443 0.932 . S
H471 C444 0.929 . S
H472 C462 0.932 . S
H473 C463 0.930 . S
H474 C464 0.932 . S
H475 C465 0.929 . S
Tb476 C485 2.764 . S
Tb476 O486 2.325 . S
Tb476 O489 2.303 . S
Tb476 O493 2.322 . S
Tb476 O494 2.349 . S
Tb476 O497 2.415 . S
Tb476 O498 2.399 . S
Tb477 O487 2.322 . S
Tb477 O488 2.349 . S
Tb477 O490 2.415 . S
Tb477 O491 2.399 . S
Tb477 O492 2.325 . S
Tb477 O495 2.303 . S
Tb477 C506 2.764 . S
C478 O494 1.261 . S
C478 O495 1.257 . S
C479 C482 1.358 . S
C479 C483 1.332 . S
C479 C485 1.504 . S
C480 C481 1.373 . S
C480 C484 1.308 . S
C481 C480 1.373 . S
C481 C482 1.429 . S
C481 H508 0.932 . S
C482 C479 1.358 . S
C482 C481 1.429 . S
C482 H509 0.930 . S
C483 C479 1.332 . S
C483 C484 1.394 . S
C483 H510 0.932 . S
C484 C480 1.308 . S
C484 C483 1.394 . S
C484 H511 0.929 . S
C485 Tb476 2.764 . S
C485 C479 1.504 . S
C485 O497 1.239 . S
C485 O498 1.263 . S
O486 Tb476 2.325 . S
O486 C496 1.236 . S
O487 Tb477 2.322 . S
O487 C496 1.257 . S
O488 Tb477 2.349 . S
O488 C499 1.261 . S
O489 Tb476 2.303 . S
O489 C499 1.257 . S
O490 Tb477 2.415 . S
O490 C506 1.239 . S
O491 Tb477 2.399 . S
O491 C506 1.263 . S
O492 Tb477 2.325 . S
O492 C507 1.236 . S
O493 Tb476 2.322 . S
O493 C507 1.257 . S
O494 Tb476 2.349 . S
O494 C478 1.261 . S
O495 Tb477 2.303 . S
O495 C478 1.257 . S
C496 O486 1.236 . S
C496 O487 1.257 . S
O497 Tb476 2.415 . S
O497 C485 1.239 . S
O498 Tb476 2.399 . S
O498 C485 1.263 . S
C499 O488 1.261 . S
C499 O489 1.257 . S
C500 C503 1.358 . S
C500 C504 1.332 . S
C500 C506 1.504 . S
C501 C502 1.373 . S
C501 C505 1.308 . S
C502 C501 1.373 . S
C502 C503 1.429 . S
C502 H512 0.932 . S
C503 C500 1.358 . S
C503 C502 1.429 . S
C503 H513 0.930 . S
C504 C500 1.332 . S
C504 C505 1.394 . S
C504 H514 0.932 . S
C505 C501 1.308 . S
C505 C504 1.394 . S
C505 H515 0.929 . S
C506 Tb477 2.764 . S
C506 O490 1.239 . S
C506 O491 1.263 . S
C506 C500 1.504 . S
C507 O492 1.236 . S
C507 O493 1.257 . S
H508 C481 0.932 . S
H509 C482 0.930 . S
H510 C483 0.932 . S
H511 C484 0.929 . S
H512 C502 0.932 . S
H513 C503 0.930 . S
H514 C504 0.932 . S
H515 C505 0.929 . S
Tb516 C525 2.764 . S
Tb516 O526 2.325 . S
Tb516 O529 2.303 . S
Tb516 O533 2.322 . S
Tb516 O534 2.349 . S
Tb516 O537 2.415 . S
Tb516 O538 2.399 . S
Tb517 O527 2.322 . S
Tb517 O528 2.349 . S
Tb517 O530 2.415 . S
Tb517 O531 2.399 . S
Tb517 O532 2.325 . S
Tb517 O535 2.303 . S
Tb517 C546 2.764 . S
C518 O534 1.261 . S
C518 O535 1.257 . S
C519 C522 1.358 . S
C519 C523 1.332 . S
C519 C525 1.504 . S
C520 C521 1.373 . S
C520 C524 1.308 . S
C521 C520 1.373 . S
C521 C522 1.429 . S
C521 H548 0.932 . S
C522 C519 1.358 . S
C522 C521 1.429 . S
C522 H549 0.930 . S
C523 C519 1.332 . S
C523 C524 1.394 . S
C523 H550 0.932 . S
C524 C520 1.308 . S
C524 C523 1.394 . S
C524 H551 0.929 . S
C525 Tb516 2.764 . S
C525 C519 1.504 . S
C525 O537 1.239 . S
C525 O538 1.263 . S
O526 Tb516 2.325 . S
O526 C536 1.236 . S
O527 Tb517 2.322 . S
O527 C536 1.257 . S
O528 Tb517 2.349 . S
O528 C539 1.261 . S
O529 Tb516 2.303 . S
O529 C539 1.257 . S
O530 Tb517 2.415 . S
O530 C546 1.239 . S
O531 Tb517 2.399 . S
O531 C546 1.263 . S
O532 Tb517 2.325 . S
O532 C547 1.236 . S
O533 Tb516 2.322 . S
O533 C547 1.257 . S
O534 Tb516 2.349 . S
O534 C518 1.261 . S
O535 Tb517 2.303 . S
O535 C518 1.257 . S
C536 O526 1.236 . S
C536 O527 1.257 . S
O537 Tb516 2.415 . S
O537 C525 1.239 . S
O538 Tb516 2.399 . S
O538 C525 1.263 . S
C539 O528 1.261 . S
C539 O529 1.257 . S
C540 C543 1.358 . S
C540 C544 1.332 . S
C540 C546 1.504 . S
C541 C542 1.373 . S
C541 C545 1.308 . S
C542 C541 1.373 . S
C542 C543 1.429 . S
C542 H552 0.932 . S
C543 C540 1.358 . S
C543 C542 1.429 . S
C543 H553 0.930 . S
C544 C540 1.332 . S
C544 C545 1.394 . S
C544 H554 0.932 . S
C545 C541 1.308 . S
C545 C544 1.394 . S
C545 H555 0.929 . S
C546 Tb517 2.764 . S
C546 O530 1.239 . S
C546 O531 1.263 . S
C546 C540 1.504 . S
C547 O532 1.236 . S
C547 O533 1.257 . S
H548 C521 0.932 . S
H549 C522 0.930 . S
H550 C523 0.932 . S
H551 C524 0.929 . S
H552 C542 0.932 . S
H553 C543 0.930 . S
H554 C544 0.932 . S
H555 C545 0.929 . S
Tb556 C565 2.764 . S
Tb556 O566 2.325 . S
Tb556 O569 2.303 . S
Tb556 O573 2.322 . S
Tb556 O574 2.349 . S
Tb556 O577 2.415 . S
Tb556 O578 2.399 . S
Tb557 O567 2.322 . S
Tb557 O568 2.349 . S
Tb557 O570 2.415 . S
Tb557 O571 2.399 . S
Tb557 O572 2.325 . S
Tb557 O575 2.303 . S
Tb557 C586 2.764 . S
C558 O574 1.261 . S
C558 O575 1.257 . S
C559 C562 1.358 . S
C559 C563 1.332 . S
C559 C565 1.504 . S
C560 C561 1.373 . S
C560 C564 1.308 . S
C561 C560 1.373 . S
C561 C562 1.429 . S
C561 H588 0.932 . S
C562 C559 1.358 . S
C562 C561 1.429 . S
C562 H589 0.930 . S
C563 C559 1.332 . S
C563 C564 1.394 . S
C563 H590 0.932 . S
C564 C560 1.308 . S
C564 C563 1.394 . S
C564 H591 0.929 . S
C565 Tb556 2.764 . S
C565 C559 1.504 . S
C565 O577 1.239 . S
C565 O578 1.263 . S
O566 Tb556 2.325 . S
O566 C576 1.236 . S
O567 Tb557 2.322 . S
O567 C576 1.257 . S
O568 Tb557 2.349 . S
O568 C579 1.261 . S
O569 Tb556 2.303 . S
O569 C579 1.257 . S
O570 Tb557 2.415 . S
O570 C586 1.239 . S
O571 Tb557 2.399 . S
O571 C586 1.263 . S
O572 Tb557 2.325 . S
O572 C587 1.236 . S
O573 Tb556 2.322 . S
O573 C587 1.257 . S
O574 Tb556 2.349 . S
O574 C558 1.261 . S
O575 Tb557 2.303 . S
O575 C558 1.257 . S
C576 O566 1.236 . S
C576 O567 1.257 . S
O577 Tb556 2.415 . S
O577 C565 1.239 . S
O578 Tb556 2.399 . S
O578 C565 1.263 . S
C579 O568 1.261 . S
C579 O569 1.257 . S
C580 C583 1.358 . S
C580 C584 1.332 . S
C580 C586 1.504 . S
C581 C582 1.373 . S
C581 C585 1.308 . S
C582 C581 1.373 . S
C582 C583 1.429 . S
C582 H592 0.932 . S
C583 C580 1.358 . S
C583 C582 1.429 . S
C583 H593 0.930 . S
C584 C580 1.332 . S
C584 C585 1.394 . S
C584 H594 0.932 . S
C585 C581 1.308 . S
C585 C584 1.394 . S
C585 H595 0.929 . S
C586 Tb557 2.764 . S
C586 O570 1.239 . S
C586 O571 1.263 . S
C586 C580 1.504 . S
C587 O572 1.236 . S
C587 O573 1.257 . S
H588 C561 0.932 . S
H589 C562 0.930 . S
H590 C563 0.932 . S
H591 C564 0.929 . S
H592 C582 0.932 . S
H593 C583 0.930 . S
H594 C584 0.932 . S
H595 C585 0.929 . S
H596 C602 0.930 . S
H597 C605 0.930 . S
H598 C606 0.930 . S
H599 C607 0.930 . S
H600 C610 0.930 . S
H601 C611 0.930 . S
C602 H596 0.930 . S
C602 C603 1.355 . S
C602 C604 1.415 . S
C603 C602 1.355 . S
C603 C605 1.419 . S
C604 C602 1.415 . S
C604 C609 1.425 . S
C604 C611 1.409 . S
C605 H597 0.930 . S
C605 C603 1.419 . S
C605 C606 1.362 . S
C606 H598 0.930 . S
C606 C605 1.362 . S
C606 C609 1.409 . S
C607 H599 0.930 . S
C607 C608 1.355 . S
C607 C609 1.415 . S
C608 C607 1.355 . S
C608 C610 1.419 . S
C609 C604 1.425 . S
C609 C606 1.409 . S
C609 C607 1.415 . S
C610 H600 0.930 . S
C610 C608 1.419 . S
C610 C611 1.362 . S
C611 H601 0.930 . S
C611 C604 1.409 . S
C611 C610 1.362 . S
H612 C618 0.930 . S
H613 C621 0.930 . S
H614 C622 0.930 . S
H615 C623 0.930 . S
H616 C626 0.930 . S
H617 C627 0.930 . S
C618 H612 0.930 . S
C618 C619 1.355 . S
C618 C620 1.415 . S
C619 C618 1.355 . S
C619 C621 1.419 . S
C620 C618 1.415 . S
C620 C625 1.425 . S
C620 C627 1.409 . S
C621 H613 0.930 . S
C621 C619 1.419 . S
C621 C622 1.362 . S
C622 H614 0.930 . S
C622 C621 1.362 . S
C622 C625 1.409 . S
C623 H615 0.930 . S
C623 C624 1.355 . S
C623 C625 1.415 . S
C624 C623 1.355 . S
C624 C626 1.419 . S
C625 C620 1.425 . S
C625 C622 1.409 . S
C625 C623 1.415 . S
C626 H616 0.930 . S
C626 C624 1.419 . S
C626 C627 1.362 . S
C627 H617 0.930 . S
C627 C620 1.409 . S
C627 C626 1.362 . S
H628 C634 0.930 . S
H629 C637 0.930 . S
H630 C638 0.930 . S
H631 C639 0.930 . S
H632 C642 0.930 . S
H633 C643 0.930 . S
C634 H628 0.930 . S
C634 C635 1.355 . S
C634 C636 1.415 . S
C635 C634 1.355 . S
C635 C637 1.419 . S
C636 C634 1.415 . S
C636 C641 1.425 . S
C636 C643 1.409 . S
C637 H629 0.930 . S
C637 C635 1.419 . S
C637 C638 1.362 . S
C638 H630 0.930 . S
C638 C637 1.362 . S
C638 C641 1.409 . S
C639 H631 0.930 . S
C639 C640 1.355 . S
C639 C641 1.415 . S
C640 C639 1.355 . S
C640 C642 1.419 . S
C641 C636 1.425 . S
C641 C638 1.409 . S
C641 C639 1.415 . S
C642 H632 0.930 . S
C642 C640 1.419 . S
C642 C643 1.362 . S
C643 H633 0.930 . S
C643 C636 1.409 . S
C643 C642 1.362 . S
H644 C650 0.930 . S
H645 C653 0.930 . S
H646 C654 0.930 . S
H647 C655 0.930 . S
H648 C658 0.930 . S
H649 C659 0.930 . S
C650 H644 0.930 . S
C650 C651 1.355 . S
C650 C652 1.415 . S
C651 C650 1.355 . S
C651 C653 1.419 . S
C652 C650 1.415 . S
C652 C657 1.425 . S
C652 C659 1.409 . S
C653 H645 0.930 . S
C653 C651 1.419 . S
C653 C654 1.362 . S
C654 H646 0.930 . S
C654 C653 1.362 . S
C654 C657 1.409 . S
C655 H647 0.930 . S
C655 C656 1.355 . S
C655 C657 1.415 . S
C656 C655 1.355 . S
C656 C658 1.419 . S
C657 C652 1.425 . S
C657 C654 1.409 . S
C657 C655 1.415 . S
C658 H648 0.930 . S
C658 C656 1.419 . S
C658 C659 1.362 . S
C659 H649 0.930 . S
C659 C652 1.409 . S
C659 C658 1.362 . S
H660 C666 0.930 . S
H661 C669 0.930 . S
H662 C670 0.930 . S
H663 C671 0.930 . S
H664 C674 0.930 . S
H665 C675 0.930 . S
C666 H660 0.930 . S
C666 C667 1.355 . S
C666 C668 1.415 . S
C667 C666 1.355 . S
C667 C669 1.419 . S
C668 C666 1.415 . S
C668 C673 1.425 . S
C668 C675 1.409 . S
C669 H661 0.930 . S
C669 C667 1.419 . S
C669 C670 1.362 . S
C670 H662 0.930 . S
C670 C669 1.362 . S
C670 C673 1.409 . S
C671 H663 0.930 . S
C671 C672 1.355 . S
C671 C673 1.415 . S
C672 C671 1.355 . S
C672 C674 1.419 . S
C673 C668 1.425 . S
C673 C670 1.409 . S
C673 C671 1.415 . S
C674 H664 0.930 . S
C674 C672 1.419 . S
C674 C675 1.362 . S
C675 H665 0.930 . S
C675 C668 1.409 . S
C675 C674 1.362 . S
H676 C682 0.930 . S
H677 C685 0.930 . S
H678 C686 0.930 . S
H679 C687 0.930 . S
H680 C690 0.930 . S
H681 C691 0.930 . S
C682 H676 0.930 . S
C682 C683 1.355 . S
C682 C684 1.415 . S
C683 C682 1.355 . S
C683 C685 1.419 . S
C684 C682 1.415 . S
C684 C689 1.425 . S
C684 C691 1.409 . S
C685 H677 0.930 . S
C685 C683 1.419 . S
C685 C686 1.362 . S
C686 H678 0.930 . S
C686 C685 1.362 . S
C686 C689 1.409 . S
C687 H679 0.930 . S
C687 C688 1.355 . S
C687 C689 1.415 . S
C688 C687 1.355 . S
C688 C690 1.419 . S
C689 C684 1.425 . S
C689 C686 1.409 . S
C689 C687 1.415 . S
C690 H680 0.930 . S
C690 C688 1.419 . S
C690 C691 1.362 . S
C691 H681 0.930 . S
C691 C684 1.409 . S
C691 C690 1.362 . S
H692 C698 0.930 . S
H693 C701 0.930 . S
H694 C702 0.930 . S
H695 C703 0.930 . S
H696 C706 0.930 . S
H697 C707 0.930 . S
C698 H692 0.930 . S
C698 C699 1.355 . S
C698 C700 1.415 . S
C699 C698 1.355 . S
C699 C701 1.419 . S
C700 C698 1.415 . S
C700 C705 1.425 . S
C700 C707 1.409 . S
C701 H693 0.930 . S
C701 C699 1.419 . S
C701 C702 1.362 . S
C702 H694 0.930 . S
C702 C701 1.362 . S
C702 C705 1.409 . S
C703 H695 0.930 . S
C703 C704 1.355 . S
C703 C705 1.415 . S
C704 C703 1.355 . S
C704 C706 1.419 . S
C705 C700 1.425 . S
C705 C702 1.409 . S
C705 C703 1.415 . S
C706 H696 0.930 . S
C706 C704 1.419 . S
C706 C707 1.362 . S
C707 H697 0.930 . S
C707 C700 1.409 . S
C707 C706 1.362 . S
H708 C714 0.930 . S
H709 C717 0.930 . S
H710 C718 0.930 . S
H711 C719 0.930 . S
H712 C722 0.930 . S
H713 C723 0.930 1_545 S
C714 H708 0.930 . S
C714 C715 1.355 1_545 S
C714 C716 1.415 1_545 S
C715 C714 1.355 1_565 S
C715 C717 1.419 . S
C716 C714 1.415 1_565 S
C716 C721 1.425 . S
C716 C723 1.409 . S
C717 H709 0.930 . S
C717 C715 1.419 . S
C717 C718 1.362 . S
C718 H710 0.930 . S
C718 C717 1.362 . S
C718 C721 1.409 . S
C719 H711 0.930 . S
C719 C720 1.355 . S
C719 C721 1.415 . S
C720 C719 1.355 . S
C720 C722 1.419 . S
C721 C716 1.425 . S
C721 C718 1.409 . S
C721 C719 1.415 . S
C722 H712 0.930 . S
C722 C720 1.419 . S
C722 C723 1.362 . S
C723 H713 0.930 1_565 S
C723 C716 1.409 . S
C723 C722 1.362 . S
H724 C730 0.930 . S
H725 C733 0.930 . S
H726 C734 0.930 . S
H727 C735 0.930 . S
H728 C738 0.930 . S
H729 C739 0.930 . S
C730 H724 0.930 . S
C730 C731 1.355 . S
C730 C732 1.415 . S
C731 C730 1.355 . S
C731 C733 1.419 . S
C732 C730 1.415 . S
C732 C737 1.425 . S
C732 C739 1.409 . S
C733 H725 0.930 . S
C733 C731 1.419 . S
C733 C734 1.362 . S
C734 H726 0.930 . S
C734 C733 1.362 . S
C734 C737 1.409 . S
C735 H727 0.930 . S
C735 C736 1.355 . S
C735 C737 1.415 . S
C736 C735 1.355 . S
C736 C738 1.419 . S
C737 C732 1.425 . S
C737 C734 1.409 . S
C737 C735 1.415 . S
C738 H728 0.930 . S
C738 C736 1.419 . S
C738 C739 1.362 . S
C739 H729 0.930 . S
C739 C732 1.409 . S
C739 C738 1.362 . S
H740 C746 0.930 . S
H741 C749 0.930 . S
H742 C750 0.930 . S
H743 C751 0.930 . S
H744 C754 0.930 . S
H745 C755 0.930 . S
C746 H740 0.930 . S
C746 C747 1.355 . S
C746 C748 1.415 . S
C747 C746 1.355 . S
C747 C749 1.419 . S
C748 C746 1.415 . S
C748 C753 1.425 . S
C748 C755 1.409 . S
C749 H741 0.930 . S
C749 C747 1.419 . S
C749 C750 1.362 . S
C750 H742 0.930 . S
C750 C749 1.362 . S
C750 C753 1.409 . S
C751 H743 0.930 . S
C751 C752 1.355 . S
C751 C753 1.415 . S
C752 C751 1.355 . S
C752 C754 1.419 . S
C753 C748 1.425 . S
C753 C750 1.409 . S
C753 C751 1.415 . S
C754 H744 0.930 . S
C754 C752 1.419 . S
C754 C755 1.362 . S
C755 H745 0.930 . S
C755 C748 1.409 . S
C755 C754 1.362 . S
H756 C762 0.930 . S
H757 C765 0.930 . S
H758 C766 0.930 . S
H759 C767 0.930 . S
H760 C770 0.930 . S
H761 C771 0.930 . S
C762 H756 0.930 . S
C762 C763 1.355 . S
C762 C764 1.415 . S
C763 C762 1.355 . S
C763 C765 1.419 . S
C764 C762 1.415 . S
C764 C769 1.425 . S
C764 C771 1.409 . S
C765 H757 0.930 . S
C765 C763 1.419 . S
C765 C766 1.362 . S
C766 H758 0.930 . S
C766 C765 1.362 . S
C766 C769 1.409 . S
C767 H759 0.930 . S
C767 C768 1.355 . S
C767 C769 1.415 . S
C768 C767 1.355 . S
C768 C770 1.419 . S
C769 C764 1.425 . S
C769 C766 1.409 . S
C769 C767 1.415 . S
C770 H760 0.930 . S
C770 C768 1.419 . S
C770 C771 1.362 . S
C771 H761 0.930 . S
C771 C764 1.409 . S
C771 C770 1.362 . S
H772 C778 0.930 . S
H773 C781 0.930 . S
H774 C782 0.930 . S
H775 C783 0.930 . S
H776 C786 0.930 . S
H777 C787 0.930 . S
C778 H772 0.930 . S
C778 C779 1.355 . S
C778 C780 1.415 . S
C779 C778 1.355 . S
C779 C781 1.419 . S
C780 C778 1.415 . S
C780 C785 1.425 . S
C780 C787 1.409 . S
C781 H773 0.930 . S
C781 C779 1.419 . S
C781 C782 1.362 . S
C782 H774 0.930 . S
C782 C781 1.362 . S
C782 C785 1.409 . S
C783 H775 0.930 . S
C783 C784 1.355 . S
C783 C785 1.415 . S
C784 C783 1.355 . S
C784 C786 1.419 . S
C785 C780 1.425 . S
C785 C782 1.409 . S
C785 C783 1.415 . S
C786 H776 0.930 . S
C786 C784 1.419 . S
C786 C787 1.362 . S
C787 H777 0.930 . S
C787 C780 1.409 . S
C787 C786 1.362 . S
H788 C794 0.930 1_545 S
H789 C797 0.930 . S
H790 C798 0.930 . S
H791 C799 0.930 . S
H792 C802 0.930 . S
H793 C803 0.929 1_545 S
C794 H788 0.930 1_565 S
C794 C795 1.355 . S
C794 C796 1.413 . S
C795 C794 1.355 . S
C795 C797 1.419 . S
C796 C794 1.413 . S
C796 C801 1.425 . S
C796 C803 1.411 1_554 S
C797 H789 0.930 . S
C797 C795 1.419 . S
C797 C798 1.362 . S
C798 H790 0.930 . S
C798 C797 1.362 . S
C798 C801 1.409 . S
C799 H791 0.930 . S
C799 C800 1.355 . S
C799 C801 1.415 1_556 S
C800 C799 1.355 . S
C800 C802 1.419 . S
C801 C796 1.425 . S
C801 C798 1.409 . S
C801 C799 1.415 1_554 S
C802 H792 0.930 . S
C802 C800 1.419 . S
C802 C803 1.362 . S
C803 H793 0.929 1_565 S
C803 C796 1.411 1_556 S
C803 C802 1.362 . S
H804 C810 0.930 . S
H805 C813 0.930 . S
H806 C814 0.930 . S
H807 C815 0.930 . S
H808 C818 0.930 . S
H809 C819 0.930 . S
C810 H804 0.930 . S
C810 C811 1.355 . S
C810 C812 1.415 . S
C811 C810 1.355 . S
C811 C813 1.419 . S
C812 C810 1.415 . S
C812 C817 1.425 . S
C812 C819 1.409 . S
C813 H805 0.930 . S
C813 C811 1.419 . S
C813 C814 1.362 . S
C814 H806 0.930 . S
C814 C813 1.362 . S
C814 C817 1.409 . S
C815 H807 0.930 . S
C815 C816 1.355 . S
C815 C817 1.415 . S
C816 C815 1.355 . S
C816 C818 1.419 . S
C817 C812 1.425 . S
C817 C814 1.409 . S
C817 C815 1.415 . S
C818 H808 0.930 . S
C818 C816 1.419 . S
C818 C819 1.362 . S
C819 H809 0.930 . S
C819 C812 1.409 . S
C819 C818 1.362 . S
H820 C826 0.930 . S
H821 C829 0.930 . S
H822 C830 0.930 . S
H823 C831 0.930 . S
H824 C834 0.930 . S
H825 C835 0.930 . S
C826 H820 0.930 . S
C826 C827 1.355 . S
C826 C828 1.415 . S
C827 C826 1.355 . S
C827 C829 1.419 . S
C828 C826 1.415 . S
C828 C833 1.425 . S
C828 C835 1.409 . S
C829 H821 0.930 . S
C829 C827 1.419 . S
C829 C830 1.362 . S
C830 H822 0.930 . S
C830 C829 1.362 . S
C830 C833 1.409 . S
C831 H823 0.930 . S
C831 C832 1.355 . S
C831 C833 1.415 . S
C832 C831 1.355 . S
C832 C834 1.419 . S
C833 C828 1.425 . S
C833 C830 1.409 . S
C833 C831 1.415 . S
C834 H824 0.930 . S
C834 C832 1.419 . S
C834 C835 1.362 . S
C835 H825 0.930 . S
C835 C828 1.409 . S
C835 C834 1.362 . S
H836 C842 0.930 . S
H837 C845 0.930 . S
H838 C846 0.930 . S
H839 C847 0.930 . S
H840 C850 0.930 . S
H841 C851 0.930 . S
C842 H836 0.930 . S
C842 C843 1.355 . S
C842 C844 1.415 . S
C843 C842 1.355 . S
C843 C845 1.419 . S
C844 C842 1.415 . S
C844 C849 1.425 . S
C844 C851 1.409 . S
C845 H837 0.930 . S
C845 C843 1.419 . S
C845 C846 1.362 . S
C846 H838 0.930 . S
C846 C845 1.362 . S
C846 C849 1.409 . S
C847 H839 0.930 . S
C847 C848 1.355 . S
C847 C849 1.415 . S
C848 C847 1.355 . S
C848 C850 1.419 . S
C849 C844 1.425 . S
C849 C846 1.409 . S
C849 C847 1.415 . S
C850 H840 0.930 . S
C850 C848 1.419 . S
C850 C851 1.362 . S
C851 H841 0.930 . S
C851 C844 1.409 . S
C851 C850 1.362 . S
H852 C858 0.930 . S
H853 C861 0.930 . S
H854 C862 0.930 . S
H855 C863 0.930 . S
H856 C866 0.930 . S
H857 C867 0.930 . S
C858 H852 0.930 . S
C858 C859 1.355 . S
C858 C860 1.415 . S
C859 C858 1.355 . S
C859 C861 1.419 . S
C860 C858 1.415 . S
C860 C865 1.425 . S
C860 C867 1.409 . S
C861 H853 0.930 . S
C861 C859 1.419 . S
C861 C862 1.362 . S
C862 H854 0.930 . S
C862 C861 1.362 . S
C862 C865 1.409 . S
C863 H855 0.930 . S
C863 C864 1.355 . S
C863 C865 1.415 . S
C864 C863 1.355 . S
C864 C866 1.419 . S
C865 C860 1.425 . S
C865 C862 1.409 . S
C865 C863 1.415 . S
C866 H856 0.930 . S
C866 C864 1.419 . S
C866 C867 1.362 . S
C867 H857 0.930 . S
C867 C860 1.409 . S
C867 C866 1.362 . S
H868 C874 0.930 . S
H869 C877 0.930 . S
H870 C878 0.930 . S
H871 C879 0.930 . S
H872 C882 0.930 . S
H873 C883 0.930 . S
C874 H868 0.930 . S
C874 C875 1.355 . S
C874 C876 1.415 . S
C875 C874 1.355 . S
C875 C877 1.419 . S
C876 C874 1.415 . S
C876 C881 1.425 . S
C876 C883 1.409 . S
C877 H869 0.930 . S
C877 C875 1.419 . S
C877 C878 1.362 . S
C878 H870 0.930 . S
C878 C877 1.362 . S
C878 C881 1.409 . S
C879 H871 0.930 . S
C879 C880 1.355 . S
C879 C881 1.415 . S
C880 C879 1.355 . S
C880 C882 1.419 . S
C881 C876 1.425 . S
C881 C878 1.409 . S
C881 C879 1.415 . S
C882 H872 0.930 . S
C882 C880 1.419 . S
C882 C883 1.362 . S
C883 H873 0.930 . S
C883 C876 1.409 . S
C883 C882 1.362 . S
H884 C890 0.930 . S
H885 C893 0.930 . S
H886 C894 0.930 . S
H887 C895 0.930 . S
H888 C898 0.930 . S
H889 C899 0.930 . S
C890 H884 0.930 . S
C890 C891 1.355 1_556 S
C890 C892 1.415 . S
C891 C890 1.355 1_554 S
C891 C893 1.419 . S
C892 C890 1.415 . S
C892 C897 1.425 . S
C892 C899 1.409 . S
C893 H885 0.930 . S
C893 C891 1.419 . S
C893 C894 1.362 1_554 S
C894 H886 0.930 . S
C894 C893 1.362 1_556 S
C894 C897 1.409 . S
C895 H887 0.930 . S
C895 C896 1.355 . S
C895 C897 1.415 . S
C896 C895 1.355 . S
C896 C898 1.419 . S
C897 C892 1.425 . S
C897 C894 1.409 . S
C897 C895 1.415 . S
C898 H888 0.930 . S
C898 C896 1.419 . S
C898 C899 1.362 . S
C899 H889 0.930 . S
C899 C892 1.409 . S
C899 C898 1.362 . S
H900 C906 0.930 . S
H901 C909 0.930 . S
H902 C910 0.926 1_455 S
H903 C911 0.930 . S
H904 C914 0.930 . S
H905 C915 0.930 . S
C906 H900 0.930 . S
C906 C907 1.355 1_655 S
C906 C908 1.415 . S
C907 C906 1.355 1_455 S
C907 C909 1.419 . S
C908 C906 1.415 . S
C908 C913 1.425 1_554 S
C908 C915 1.409 . S
C909 H901 0.930 . S
C909 C907 1.419 . S
C909 C910 1.332 1_454 S
C910 H902 0.926 1_655 S
C910 C909 1.332 1_656 S
C910 C913 1.445 . S
C911 H903 0.930 . S
C911 C912 1.355 . S
C911 C913 1.415 . S
C912 C911 1.355 . S
C912 C914 1.419 . S
C913 C908 1.425 1_556 S
C913 C910 1.445 . S
C913 C911 1.415 . S
C914 H904 0.930 . S
C914 C912 1.419 . S
C914 C915 1.362 1_556 S
C915 H905 0.930 . S
C915 C908 1.409 . S
C915 C914 1.362 1_554 S
H916 C922 0.930 . S
H917 C925 0.930 . S
H918 C926 0.930 . S
H919 C927 0.930 . S
H920 C930 0.930 . S
H921 C931 0.930 . S
C922 H916 0.930 . S
C922 C923 1.355 . S
C922 C924 1.415 . S
C923 C922 1.355 . S
C923 C925 1.419 . S
C924 C922 1.415 . S
C924 C929 1.425 . S
C924 C931 1.409 . S
C925 H917 0.930 . S
C925 C923 1.419 . S
C925 C926 1.362 . S
C926 H918 0.930 . S
C926 C925 1.362 . S
C926 C929 1.409 . S
C927 H919 0.930 . S
C927 C928 1.355 . S
C927 C929 1.415 . S
C928 C927 1.355 . S
C928 C930 1.419 . S
C929 C924 1.425 . S
C929 C926 1.409 . S
C929 C927 1.415 . S
C930 H920 0.930 . S
C930 C928 1.419 . S
C930 C931 1.362 . S
C931 H921 0.930 . S
C931 C924 1.409 . S
C931 C930 1.362 . S
H932 C938 0.930 . S
H933 C941 0.930 . S
H934 C942 0.930 . S
H935 C943 0.930 . S
H936 C946 0.930 . S
H937 C947 0.930 . S
C938 H932 0.930 . S
C938 C939 1.355 . S
C938 C940 1.415 . S
C939 C938 1.355 . S
C939 C941 1.419 . S
C940 C938 1.415 . S
C940 C945 1.425 . S
C940 C947 1.409 . S
C941 H933 0.930 . S
C941 C939 1.419 . S
C941 C942 1.362 . S
C942 H934 0.930 . S
C942 C941 1.362 . S
C942 C945 1.409 . S
C943 H935 0.930 . S
C943 C944 1.355 . S
C943 C945 1.415 . S
C944 C943 1.355 . S
C944 C946 1.419 . S
C945 C940 1.425 . S
C945 C942 1.409 . S
C945 C943 1.415 . S
C946 H936 0.930 . S
C946 C944 1.419 . S
C946 C947 1.362 . S
C947 H937 0.930 . S
C947 C940 1.409 . S
C947 C946 1.362 . S
H948 C954 0.930 . S
H949 C957 0.930 . S
H950 C958 0.930 . S
H951 C959 0.930 . S
H952 C962 0.930 . S
H953 C963 0.930 . S
C954 H948 0.930 . S
C954 C955 1.355 . S
C954 C956 1.415 . S
C955 C954 1.355 . S
C955 C957 1.419 . S
C956 C954 1.415 . S
C956 C961 1.425 . S
C956 C963 1.409 . S
C957 H949 0.930 . S
C957 C955 1.419 . S
C957 C958 1.362 . S
C958 H950 0.930 . S
C958 C957 1.362 . S
C958 C961 1.409 . S
C959 H951 0.930 . S
C959 C960 1.355 . S
C959 C961 1.415 . S
C960 C959 1.355 . S
C960 C962 1.419 . S
C961 C956 1.425 . S
C961 C958 1.409 . S
C961 C959 1.415 . S
C962 H952 0.930 . S
C962 C960 1.419 . S
C962 C963 1.362 . S
C963 H953 0.930 . S
C963 C956 1.409 . S
C963 C962 1.362 . S
H964 C970 0.930 . S
H965 C973 0.930 . S
H966 C974 0.930 . S
H967 C975 0.930 . S
H968 C978 0.930 . S
H969 C979 0.930 . S
C970 H964 0.930 . S
C970 C971 1.355 . S
C970 C972 1.415 . S
C971 C970 1.355 . S
C971 C973 1.419 . S
C972 C970 1.415 . S
C972 C977 1.425 . S
C972 C979 1.409 . S
C973 H965 0.930 . S
C973 C971 1.419 . S
C973 C974 1.362 . S
C974 H966 0.930 . S
C974 C973 1.362 . S
C974 C977 1.409 . S
C975 H967 0.930 . S
C975 C976 1.355 . S
C975 C977 1.415 . S
C976 C975 1.355 . S
C976 C978 1.419 . S
C977 C972 1.425 . S
C977 C974 1.409 . S
C977 C975 1.415 . S
C978 H968 0.930 . S
C978 C976 1.419 . S
C978 C979 1.362 . S
C979 H969 0.930 . S
C979 C972 1.409 . S
C979 C978 1.362 . S
H980 C986 0.930 . S
H981 C989 0.930 . S
H982 C990 0.930 . S
H983 C991 0.930 . S
H984 C994 0.930 . S
H985 C995 0.930 . S
C986 H980 0.930 . S
C986 C987 1.355 . S
C986 C988 1.415 . S
C987 C986 1.355 . S
C987 C989 1.419 . S
C988 C986 1.415 . S
C988 C993 1.425 . S
C988 C995 1.409 . S
C989 H981 0.930 . S
C989 C987 1.419 . S
C989 C990 1.362 . S
C990 H982 0.930 . S
C990 C989 1.362 . S
C990 C993 1.409 . S
C991 H983 0.930 . S
C991 C992 1.355 . S
C991 C993 1.415 . S
C992 C991 1.355 . S
C992 C994 1.419 . S
C993 C988 1.425 . S
C993 C990 1.409 . S
C993 C991 1.415 . S
C994 H984 0.930 . S
C994 C992 1.419 . S
C994 C995 1.362 . S
C995 H985 0.930 . S
C995 C988 1.409 . S
C995 C994 1.362 . S
H996 C1002 0.930 . S
H997 C1005 0.930 . S
H998 C1006 0.930 . S
H999 C1007 0.930 . S
H1000 C1010 0.930 . S
H1001 C1011 0.930 . S
C1002 H996 0.930 . S
C1002 C1003 1.355 . S
C1002 C1004 1.415 . S
C1003 C1002 1.355 . S
C1003 C1005 1.419 . S
C1004 C1002 1.415 . S
C1004 C1009 1.425 . S
C1004 C1011 1.409 . S
C1005 H997 0.930 . S
C1005 C1003 1.419 . S
C1005 C1006 1.362 . S
C1006 H998 0.930 . S
C1006 C1005 1.362 . S
C1006 C1009 1.409 . S
C1007 H999 0.930 . S
C1007 C1008 1.355 . S
C1007 C1009 1.415 . S
C1008 C1007 1.355 . S
C1008 C1010 1.419 . S
C1009 C1004 1.425 . S
C1009 C1006 1.409 . S
C1009 C1007 1.415 . S
C1010 H1000 0.930 . S
C1010 C1008 1.419 . S
C1010 C1011 1.362 . S
C1011 H1001 0.930 . S
C1011 C1004 1.409 . S
C1011 C1010 1.362 . S
H1012 C1018 0.930 . S
H1013 C1021 0.930 . S
H1014 C1022 0.930 . S
H1015 C1023 0.930 . S
H1016 C1026 0.930 . S
H1017 C1027 0.930 . S
C1018 H1012 0.930 . S
C1018 C1019 1.355 . S
C1018 C1020 1.415 . S
C1019 C1018 1.355 . S
C1019 C1021 1.419 . S
C1020 C1018 1.415 . S
C1020 C1025 1.425 . S
C1020 C1027 1.409 . S
C1021 H1013 0.930 . S
C1021 C1019 1.419 . S
C1021 C1022 1.362 . S
C1022 H1014 0.930 . S
C1022 C1021 1.362 . S
C1022 C1025 1.409 . S
C1023 H1015 0.930 . S
C1023 C1024 1.355 . S
C1023 C1025 1.415 . S
C1024 C1023 1.355 . S
C1024 C1026 1.419 . S
C1025 C1020 1.425 . S
C1025 C1022 1.409 . S
C1025 C1023 1.415 . S
C1026 H1016 0.930 . S
C1026 C1024 1.419 . S
C1026 C1027 1.362 . S
C1027 H1017 0.930 . S
C1027 C1020 1.409 . S
C1027 C1026 1.362 . S
H1028 C1034 0.930 . S
H1029 C1037 0.930 . S
H1030 C1038 0.930 . S
H1031 C1039 0.930 . S
H1032 C1042 0.930 . S
H1033 C1043 0.930 . S
C1034 H1028 0.930 . S
C1034 C1035 1.355 . S
C1034 C1036 1.415 . S
C1035 C1034 1.355 . S
C1035 C1037 1.419 . S
C1036 C1034 1.415 . S
C1036 C1041 1.425 . S
C1036 C1043 1.409 . S
C1037 H1029 0.930 . S
C1037 C1035 1.419 . S
C1037 C1038 1.362 . S
C1038 H1030 0.930 . S
C1038 C1037 1.362 . S
C1038 C1041 1.409 . S
C1039 H1031 0.930 . S
C1039 C1040 1.355 . S
C1039 C1041 1.415 . S
C1040 C1039 1.355 . S
C1040 C1042 1.419 . S
C1041 C1036 1.425 . S
C1041 C1038 1.409 . S
C1041 C1039 1.415 . S
C1042 H1032 0.930 . S
C1042 C1040 1.419 . S
C1042 C1043 1.362 . S
C1043 H1033 0.930 . S
C1043 C1036 1.409 . S
C1043 C1042 1.362 . S
H1044 C1050 0.930 . S
H1045 C1053 0.930 . S
H1046 C1054 0.930 . S
H1047 C1055 0.930 . S
H1048 C1058 0.930 . S
H1049 C1059 0.930 . S
C1050 H1044 0.930 . S
C1050 C1051 1.355 . S
C1050 C1052 1.415 . S
C1051 C1050 1.355 . S
C1051 C1053 1.419 . S
C1052 C1050 1.415 . S
C1052 C1057 1.425 . S
C1052 C1059 1.409 . S
C1053 H1045 0.930 . S
C1053 C1051 1.419 . S
C1053 C1054 1.362 . S
C1054 H1046 0.930 . S
C1054 C1053 1.362 . S
C1054 C1057 1.409 . S
C1055 H1047 0.930 . S
C1055 C1056 1.355 . S
C1055 C1057 1.415 . S
C1056 C1055 1.355 . S
C1056 C1058 1.419 . S
C1057 C1052 1.425 . S
C1057 C1054 1.409 . S
C1057 C1055 1.415 . S
C1058 H1048 0.930 . S
C1058 C1056 1.419 . S
C1058 C1059 1.362 . S
C1059 H1049 0.930 . S
C1059 C1052 1.409 . S
C1059 C1058 1.362 . S
H1060 C1066 0.930 . S
H1061 C1069 0.930 . S
H1062 C1070 0.930 . S
H1063 C1071 0.930 . S
H1064 C1074 0.930 . S
H1065 C1075 0.930 . S
C1066 H1060 0.930 . S
C1066 C1067 1.355 . S
C1066 C1068 1.415 . S
C1067 C1066 1.355 . S
C1067 C1069 1.419 . S
C1068 C1066 1.415 . S
C1068 C1073 1.425 . S
C1068 C1075 1.409 . S
C1069 H1061 0.930 . S
C1069 C1067 1.419 . S
C1069 C1070 1.362 . S
C1070 H1062 0.930 . S
C1070 C1069 1.362 . S
C1070 C1073 1.409 . S
C1071 H1063 0.930 . S
C1071 C1072 1.355 . S
C1071 C1073 1.415 . S
C1072 C1071 1.355 . S
C1072 C1074 1.419 . S
C1073 C1068 1.425 . S
C1073 C1070 1.409 . S
C1073 C1071 1.415 . S
C1074 H1064 0.930 . S
C1074 C1072 1.419 . S
C1074 C1075 1.362 . S
C1075 H1065 0.930 . S
C1075 C1068 1.409 . S
C1075 C1074 1.362 . S
H1076 C1082 0.930 . S
H1077 C1085 0.930 . S
H1078 C1086 0.930 . S
H1079 C1087 0.930 . S
H1080 C1090 0.930 . S
H1081 C1091 0.930 . S
C1082 H1076 0.930 . S
C1082 C1083 1.355 . S
C1082 C1084 1.415 . S
C1083 C1082 1.355 . S
C1083 C1085 1.419 . S
C1084 C1082 1.415 . S
C1084 C1089 1.425 . S
C1084 C1091 1.409 . S
C1085 H1077 0.930 . S
C1085 C1083 1.419 . S
C1085 C1086 1.362 . S
C1086 H1078 0.930 . S
C1086 C1085 1.362 . S
C1086 C1089 1.409 . S
C1087 H1079 0.930 . S
C1087 C1088 1.355 . S
C1087 C1089 1.415 . S
C1088 C1087 1.355 . S
C1088 C1090 1.419 . S
C1089 C1084 1.425 . S
C1089 C1086 1.409 . S
C1089 C1087 1.415 . S
C1090 H1080 0.930 . S
C1090 C1088 1.419 . S
C1090 C1091 1.362 . S
C1091 H1081 0.930 . S
C1091 C1084 1.409 . S
C1091 C1090 1.362 . S
H1092 C1098 0.930 . S
H1093 C1101 0.930 . S
H1094 C1102 0.930 . S
H1095 C1103 0.930 . S
H1096 C1106 0.930 . S
H1097 C1107 0.930 . S
C1098 H1092 0.930 . S
C1098 C1099 1.355 . S
C1098 C1100 1.415 . S
C1099 C1098 1.355 . S
C1099 C1101 1.419 . S
C1100 C1098 1.415 . S
C1100 C1105 1.425 . S
C1100 C1107 1.409 . S
C1101 H1093 0.930 . S
C1101 C1099 1.419 . S
C1101 C1102 1.362 . S
C1102 H1094 0.930 . S
C1102 C1101 1.362 . S
C1102 C1105 1.409 . S
C1103 H1095 0.930 . S
C1103 C1104 1.355 . S
C1103 C1105 1.415 . S
C1104 C1103 1.355 . S
C1104 C1106 1.419 . S
C1105 C1100 1.425 . S
C1105 C1102 1.409 . S
C1105 C1103 1.415 . S
C1106 H1096 0.930 . S
C1106 C1104 1.419 . S
C1106 C1107 1.362 . S
C1107 H1097 0.930 . S
C1107 C1100 1.409 . S
C1107 C1106 1.362 . S
H1108 C1114 0.930 . S
H1109 C1117 0.930 . S
H1110 C1118 0.930 . S
H1111 C1119 0.930 . S
H1112 C1122 0.930 . S
H1113 C1123 0.930 . S
C1114 H1108 0.930 . S
C1114 C1115 1.355 . S
C1114 C1116 1.415 . S
C1115 C1114 1.355 . S
C1115 C1117 1.419 . S
C1116 C1114 1.415 . S
C1116 C1121 1.425 . S
C1116 C1123 1.409 . S
C1117 H1109 0.930 . S
C1117 C1115 1.419 . S
C1117 C1118 1.362 . S
C1118 H1110 0.930 . S
C1118 C1117 1.362 . S
C1118 C1121 1.409 . S
C1119 H1111 0.930 . S
C1119 C1120 1.355 . S
C1119 C1121 1.415 . S
C1120 C1119 1.355 . S
C1120 C1122 1.419 . S
C1121 C1116 1.425 . S
C1121 C1118 1.409 . S
C1121 C1119 1.415 . S
C1122 H1112 0.930 . S
C1122 C1120 1.419 . S
C1122 C1123 1.362 . S
C1123 H1113 0.930 . S
C1123 C1116 1.409 . S
C1123 C1122 1.362 . S
H1124 C1130 0.930 . S
H1125 C1133 0.930 . S
H1126 C1134 0.930 . S
H1127 C1135 0.930 . S
H1128 C1138 0.930 . S
H1129 C1139 0.930 . S
C1130 H1124 0.930 . S
C1130 C1131 1.355 . S
C1130 C1132 1.415 . S
C1131 C1130 1.355 . S
C1131 C1133 1.419 . S
C1132 C1130 1.415 . S
C1132 C1137 1.425 . S
C1132 C1139 1.409 . S
C1133 H1125 0.930 . S
C1133 C1131 1.419 . S
C1133 C1134 1.362 . S
C1134 H1126 0.930 . S
C1134 C1133 1.362 . S
C1134 C1137 1.409 . S
C1135 H1127 0.930 . S
C1135 C1136 1.355 . S
C1135 C1137 1.415 . S
C1136 C1135 1.355 . S
C1136 C1138 1.419 . S
C1137 C1132 1.425 . S
C1137 C1134 1.409 . S
C1137 C1135 1.415 . S
C1138 H1128 0.930 . S
C1138 C1136 1.419 . S
C1138 C1139 1.362 . S
C1139 H1129 0.930 . S
C1139 C1132 1.409 . S
C1139 C1138 1.362 . S
H1140 C1146 0.930 . S
H1141 C1149 0.930 . S
H1142 C1150 0.930 . S
H1143 C1151 0.930 . S
H1144 C1154 0.930 . S
H1145 C1155 0.930 . S
C1146 H1140 0.930 . S
C1146 C1147 1.355 . S
C1146 C1148 1.415 . S
C1147 C1146 1.355 . S
C1147 C1149 1.419 . S
C1148 C1146 1.415 . S
C1148 C1153 1.425 . S
C1148 C1155 1.409 . S
C1149 H1141 0.930 . S
C1149 C1147 1.419 . S
C1149 C1150 1.362 . S
C1150 H1142 0.930 . S
C1150 C1149 1.362 . S
C1150 C1153 1.409 . S
C1151 H1143 0.930 . S
C1151 C1152 1.355 . S
C1151 C1153 1.415 . S
C1152 C1151 1.355 . S
C1152 C1154 1.419 . S
C1153 C1148 1.425 . S
C1153 C1150 1.409 . S
C1153 C1151 1.415 . S
C1154 H1144 0.930 . S
C1154 C1152 1.419 . S
C1154 C1155 1.362 . S
C1155 H1145 0.930 . S
C1155 C1148 1.409 . S
C1155 C1154 1.362 . S
H1156 C1162 0.930 . S
H1157 C1165 0.930 . S
H1158 C1166 0.930 . S
H1159 C1167 0.930 . S
H1160 C1170 0.930 . S
H1161 C1171 0.930 . S
C1162 H1156 0.930 . S
C1162 C1163 1.355 . S
C1162 C1164 1.415 . S
C1163 C1162 1.355 . S
C1163 C1165 1.419 . S
C1164 C1162 1.415 . S
C1164 C1169 1.425 . S
C1164 C1171 1.409 . S
C1165 H1157 0.930 . S
C1165 C1163 1.419 . S
C1165 C1166 1.362 . S
C1166 H1158 0.930 . S
C1166 C1165 1.362 . S
C1166 C1169 1.409 . S
C1167 H1159 0.930 . S
C1167 C1168 1.355 . S
C1167 C1169 1.415 . S
C1168 C1167 1.355 . S
C1168 C1170 1.419 . S
C1169 C1164 1.425 . S
C1169 C1166 1.409 . S
C1169 C1167 1.415 . S
C1170 H1160 0.930 . S
C1170 C1168 1.419 . S
C1170 C1171 1.362 . S
C1171 H1161 0.930 . S
C1171 C1164 1.409 . S
C1171 C1170 1.362 . S
H1172 C1178 0.930 . S
H1173 C1181 0.930 . S
H1174 C1182 0.930 . S
H1175 C1183 0.930 . S
H1176 C1186 0.930 . S
H1177 C1187 0.930 . S
C1178 H1172 0.930 . S
C1178 C1179 1.355 . S
C1178 C1180 1.415 . S
C1179 C1178 1.355 . S
C1179 C1181 1.419 . S
C1180 C1178 1.415 . S
C1180 C1185 1.425 . S
C1180 C1187 1.409 . S
C1181 H1173 0.930 . S
C1181 C1179 1.419 . S
C1181 C1182 1.362 . S
C1182 H1174 0.930 . S
C1182 C1181 1.362 . S
C1182 C1185 1.409 . S
C1183 H1175 0.930 . S
C1183 C1184 1.355 . S
C1183 C1185 1.415 . S
C1184 C1183 1.355 . S
C1184 C1186 1.419 . S
C1185 C1180 1.425 . S
C1185 C1182 1.409 . S
C1185 C1183 1.415 . S
C1186 H1176 0.930 . S
C1186 C1184 1.419 . S
C1186 C1187 1.362 . S
C1187 H1177 0.930 . S
C1187 C1180 1.409 . S
C1187 C1186 1.362 . S
H1188 C1194 0.930 . S
H1189 C1197 0.930 . S
H1190 C1198 0.930 . S
H1191 C1199 0.930 . S
H1192 C1202 0.930 . S
H1193 C1203 0.930 . S
C1194 H1188 0.930 . S
C1194 C1195 1.355 . S
C1194 C1196 1.415 . S
C1195 C1194 1.355 . S
C1195 C1197 1.419 . S
C1196 C1194 1.415 . S
C1196 C1201 1.425 . S
C1196 C1203 1.409 . S
C1197 H1189 0.930 . S
C1197 C1195 1.419 . S
C1197 C1198 1.362 . S
C1198 H1190 0.930 . S
C1198 C1197 1.362 . S
C1198 C1201 1.409 . S
C1199 H1191 0.930 . S
C1199 C1200 1.355 . S
C1199 C1201 1.415 . S
C1200 C1199 1.355 . S
C1200 C1202 1.419 . S
C1201 C1196 1.425 . S
C1201 C1198 1.409 . S
C1201 C1199 1.415 . S
C1202 H1192 0.930 . S
C1202 C1200 1.419 . S
C1202 C1203 1.362 . S
C1203 H1193 0.930 . S
C1203 C1196 1.409 . S
C1203 C1202 1.362 . S
H1204 C1210 0.930 . S
H1205 C1213 0.930 . S
H1206 C1214 0.930 . S
H1207 C1215 0.930 . S
H1208 C1218 0.930 . S
H1209 C1219 0.930 . S
C1210 H1204 0.930 . S
C1210 C1211 1.355 . S
C1210 C1212 1.415 . S
C1211 C1210 1.355 . S
C1211 C1213 1.419 . S
C1212 C1210 1.415 . S
C1212 C1217 1.425 . S
C1212 C1219 1.409 . S
C1213 H1205 0.930 . S
C1213 C1211 1.419 . S
C1213 C1214 1.362 . S
C1214 H1206 0.930 . S
C1214 C1213 1.362 . S
C1214 C1217 1.409 . S
C1215 H1207 0.930 . S
C1215 C1216 1.355 . S
C1215 C1217 1.415 . S
C1216 C1215 1.355 . S
C1216 C1218 1.419 . S
C1217 C1212 1.425 . S
C1217 C1214 1.409 . S
C1217 C1215 1.415 . S
C1218 H1208 0.930 . S
C1218 C1216 1.419 . S
C1218 C1219 1.362 . S
C1219 H1209 0.930 . S
C1219 C1212 1.409 . S
C1219 C1218 1.362 . S
H1220 C1226 0.930 . S
H1221 C1229 0.930 . S
H1222 C1230 0.930 . S
H1223 C1231 0.930 . S
H1224 C1234 0.930 . S
H1225 C1235 0.930 . S
C1226 H1220 0.930 . S
C1226 C1227 1.355 . S
C1226 C1228 1.415 . S
C1227 C1226 1.355 . S
C1227 C1229 1.419 . S
C1228 C1226 1.415 . S
C1228 C1233 1.425 . S
C1228 C1235 1.409 . S
C1229 H1221 0.930 . S
C1229 C1227 1.419 . S
C1229 C1230 1.362 . S
C1230 H1222 0.930 . S
C1230 C1229 1.362 . S
C1230 C1233 1.409 . S
C1231 H1223 0.930 . S
C1231 C1232 1.355 . S
C1231 C1233 1.415 . S
C1232 C1231 1.355 . S
C1232 C1234 1.419 . S
C1233 C1228 1.425 . S
C1233 C1230 1.409 . S
C1233 C1231 1.415 . S
C1234 H1224 0.930 . S
C1234 C1232 1.419 . S
C1234 C1235 1.362 . S
C1235 H1225 0.930 . S
C1235 C1228 1.409 . S
C1235 C1234 1.362 . S
H1236 C1242 0.930 . S
H1237 C1245 0.930 . S
H1238 C1246 0.930 . S
H1239 C1247 0.930 . S
H1240 C1250 0.930 . S
H1241 C1251 0.930 . S
C1242 H1236 0.930 . S
C1242 C1243 1.355 . S
C1242 C1244 1.415 . S
C1243 C1242 1.355 . S
C1243 C1245 1.419 . S
C1244 C1242 1.415 . S
C1244 C1249 1.425 . S
C1244 C1251 1.409 . S
C1245 H1237 0.930 . S
C1245 C1243 1.419 . S
C1245 C1246 1.362 . S
C1246 H1238 0.930 . S
C1246 C1245 1.362 . S
C1246 C1249 1.409 . S
C1247 H1239 0.930 . S
C1247 C1248 1.355 . S
C1247 C1249 1.415 . S
C1248 C1247 1.355 . S
C1248 C1250 1.419 . S
C1249 C1244 1.425 . S
C1249 C1246 1.409 . S
C1249 C1247 1.415 . S
C1250 H1240 0.930 . S
C1250 C1248 1.419 . S
C1250 C1251 1.362 . S
C1251 H1241 0.930 . S
C1251 C1244 1.409 . S
C1251 C1250 1.362 . S
H1252 C1258 0.930 . S
H1253 C1261 0.930 . S
H1254 C1262 0.930 . S
H1255 C1263 0.930 . S
H1256 C1266 0.930 . S
H1257 C1267 0.930 . S
C1258 H1252 0.930 . S
C1258 C1259 1.355 . S
C1258 C1260 1.415 . S
C1259 C1258 1.355 . S
C1259 C1261 1.419 . S
C1260 C1258 1.415 . S
C1260 C1265 1.425 . S
C1260 C1267 1.409 . S
C1261 H1253 0.930 . S
C1261 C1259 1.419 . S
C1261 C1262 1.362 . S
C1262 H1254 0.930 . S
C1262 C1261 1.362 . S
C1262 C1265 1.409 . S
C1263 H1255 0.930 . S
C1263 C1264 1.355 . S
C1263 C1265 1.415 . S
C1264 C1263 1.355 . S
C1264 C1266 1.419 . S
C1265 C1260 1.425 . S
C1265 C1262 1.409 . S
C1265 C1263 1.415 . S
C1266 H1256 0.930 . S
C1266 C1264 1.419 . S
C1266 C1267 1.362 . S
C1267 H1257 0.930 . S
C1267 C1260 1.409 . S
C1267 C1266 1.362 . S
H1268 C1274 0.930 . S
H1269 C1277 0.930 . S
H1270 C1278 0.930 . S
H1271 C1279 0.930 . S
H1272 C1282 0.930 . S
H1273 C1283 0.930 . S
C1274 H1268 0.930 . S
C1274 C1275 1.355 . S
C1274 C1276 1.415 . S
C1275 C1274 1.355 . S
C1275 C1277 1.419 . S
C1276 C1274 1.415 . S
C1276 C1281 1.425 . S
C1276 C1283 1.409 . S
C1277 H1269 0.930 . S
C1277 C1275 1.419 . S
C1277 C1278 1.362 . S
C1278 H1270 0.930 . S
C1278 C1277 1.362 . S
C1278 C1281 1.409 . S
C1279 H1271 0.930 . S
C1279 C1280 1.355 . S
C1279 C1281 1.415 . S
C1280 C1279 1.355 . S
C1280 C1282 1.419 . S
C1281 C1276 1.425 . S
C1281 C1278 1.409 . S
C1281 C1279 1.415 . S
C1282 H1272 0.930 . S
C1282 C1280 1.419 . S
C1282 C1283 1.362 . S
C1283 H1273 0.930 . S
C1283 C1276 1.409 . S
C1283 C1282 1.362 . S
H1284 C1290 0.930 . S
H1285 C1293 0.930 . S
H1286 C1294 0.930 . S
H1287 C1295 0.930 . S
H1288 C1298 0.930 . S
H1289 C1299 0.930 . S
C1290 H1284 0.930 . S
C1290 C1291 1.355 . S
C1290 C1292 1.415 . S
C1291 C1290 1.355 . S
C1291 C1293 1.419 . S
C1292 C1290 1.415 . S
C1292 C1297 1.425 . S
C1292 C1299 1.409 . S
C1293 H1285 0.930 . S
C1293 C1291 1.419 . S
C1293 C1294 1.362 . S
C1294 H1286 0.930 . S
C1294 C1293 1.362 . S
C1294 C1297 1.409 . S
C1295 H1287 0.930 . S
C1295 C1296 1.355 . S
C1295 C1297 1.415 . S
C1296 C1295 1.355 . S
C1296 C1298 1.419 . S
C1297 C1292 1.425 . S
C1297 C1294 1.409 . S
C1297 C1295 1.415 . S
C1298 H1288 0.930 . S
C1298 C1296 1.419 . S
C1298 C1299 1.362 . S
C1299 H1289 0.930 . S
C1299 C1292 1.409 . S
C1299 C1298 1.362 . S
H1300 C1306 0.930 . S
H1301 C1309 0.930 . S
H1302 C1310 0.930 . S
H1303 C1311 0.930 . S
H1304 C1314 0.930 . S
H1305 C1315 0.930 . S
C1306 H1300 0.930 . S
C1306 C1307 1.355 . S
C1306 C1308 1.415 . S
C1307 C1306 1.355 . S
C1307 C1309 1.419 . S
C1308 C1306 1.415 . S
C1308 C1313 1.425 . S
C1308 C1315 1.409 . S
C1309 H1301 0.930 . S
C1309 C1307 1.419 . S
C1309 C1310 1.362 . S
C1310 H1302 0.930 . S
C1310 C1309 1.362 . S
C1310 C1313 1.409 . S
C1311 H1303 0.930 . S
C1311 C1312 1.355 . S
C1311 C1313 1.415 . S
C1312 C1311 1.355 . S
C1312 C1314 1.419 . S
C1313 C1308 1.425 . S
C1313 C1310 1.409 . S
C1313 C1311 1.415 . S
C1314 H1304 0.930 . S
C1314 C1312 1.419 . S
C1314 C1315 1.362 . S
C1315 H1305 0.930 . S
C1315 C1308 1.409 . S
C1315 C1314 1.362 . S
H1316 C1322 0.930 . S
H1317 C1325 0.930 . S
H1318 C1326 0.930 . S
H1319 C1327 0.930 . S
H1320 C1330 0.930 . S
H1321 C1331 0.930 . S
C1322 H1316 0.930 . S
C1322 C1323 1.355 . S
C1322 C1324 1.415 . S
C1323 C1322 1.355 . S
C1323 C1325 1.419 . S
C1324 C1322 1.415 . S
C1324 C1329 1.425 . S
C1324 C1331 1.409 . S
C1325 H1317 0.930 . S
C1325 C1323 1.419 . S
C1325 C1326 1.362 . S
C1326 H1318 0.930 . S
C1326 C1325 1.362 . S
C1326 C1329 1.409 . S
C1327 H1319 0.930 . S
C1327 C1328 1.355 . S
C1327 C1329 1.415 . S
C1328 C1327 1.355 . S
C1328 C1330 1.419 . S
C1329 C1324 1.425 . S
C1329 C1326 1.409 . S
C1329 C1327 1.415 . S
C1330 H1320 0.930 . S
C1330 C1328 1.419 . S
C1330 C1331 1.362 . S
C1331 H1321 0.930 . S
C1331 C1324 1.409 . S
C1331 C1330 1.362 . S
H1332 C1338 0.930 . S
H1333 C1341 0.930 . S
H1334 C1342 0.930 . S
H1335 C1343 0.930 . S
H1336 C1346 0.930 . S
H1337 C1347 0.930 . S
C1338 H1332 0.930 . S
C1338 C1339 1.355 . S
C1338 C1340 1.415 . S
C1339 C1338 1.355 . S
C1339 C1341 1.419 . S
C1340 C1338 1.415 . S
C1340 C1345 1.425 . S
C1340 C1347 1.409 . S
C1341 H1333 0.930 . S
C1341 C1339 1.419 . S
C1341 C1342 1.362 . S
C1342 H1334 0.930 . S
C1342 C1341 1.362 . S
C1342 C1345 1.409 . S
C1343 H1335 0.930 . S
C1343 C1344 1.355 . S
C1343 C1345 1.415 . S
C1344 C1343 1.355 . S
C1344 C1346 1.419 . S
C1345 C1340 1.425 . S
C1345 C1342 1.409 . S
C1345 C1343 1.415 . S
C1346 H1336 0.930 . S
C1346 C1344 1.419 . S
C1346 C1347 1.362 . S
C1347 H1337 0.930 . S
C1347 C1340 1.409 . S
C1347 C1346 1.362 . S
H1348 C1354 0.930 . S
H1349 C1357 0.930 . S
H1350 C1358 0.930 . S
H1351 C1359 0.930 . S
H1352 C1362 0.930 . S
H1353 C1363 0.930 . S
C1354 H1348 0.930 . S
C1354 C1355 1.355 . S
C1354 C1356 1.415 . S
C1355 C1354 1.355 . S
C1355 C1357 1.419 . S
C1356 C1354 1.415 . S
C1356 C1361 1.425 . S
C1356 C1363 1.409 . S
C1357 H1349 0.930 . S
C1357 C1355 1.419 . S
C1357 C1358 1.362 . S
C1358 H1350 0.930 . S
C1358 C1357 1.362 . S
C1358 C1361 1.409 . S
C1359 H1351 0.930 . S
C1359 C1360 1.355 . S
C1359 C1361 1.415 . S
C1360 C1359 1.355 . S
C1360 C1362 1.419 . S
C1361 C1356 1.425 . S
C1361 C1358 1.409 . S
C1361 C1359 1.415 . S
C1362 H1352 0.930 . S
C1362 C1360 1.419 . S
C1362 C1363 1.362 . S
C1363 H1353 0.930 . S
C1363 C1356 1.409 . S
C1363 C1362 1.362 . S
C608 C301 1.278 . S
C603 N2 1.216 . S
C624 C339 2.421 . S
C619 C7 2.447 . S
C640 C360 1.711 . S
C635 N12 1.572 . S
C651 C16 1.873 . S
C656 C398 1.942 . S
C672 C438 2.531 . S
C667 C30 2.536 1_565 S
C688 C501 1.441 . S
C683 N35 1.356 . S
C699 C39 2.104 . S
C704 C539 2.066 . S
C720 C560 1.178 . S
C715 N25 1.055 1_565 S
C736 C307 1.226 . S
C731 N58 1.153 . S
C747 N81 2.023 . S
C752 C336 1.989 . S
C768 C379 1.356 . S
C763 N104 1.293 . S
C779 N127 1.221 . S
C784 C421 1.228 . S
C800 C461 0.982 . S
C795 N48 1.027 1_565 S
C816 C507 1.508 . S
C811 N71 1.438 1_556 S
C827 N94 1.554 . S
C832 C536 1.525 . S
C848 C579 1.808 . S
C843 N117 1.789 . S
C859 C85 2.423 . S
C864 C278 2.351 . S
C875 C122 2.501 . S
C880 C467 2.486 . S
C891 C53 2.027 . S
C896 C478 1.994 . S
C912 C520 1.420 . S
C907 C76 1.445 . S
C928 C576 1.874 . S
C923 C99 1.882 . S
C944 C376 2.005 . S
C939 C131 1.995 . S
C960 C427 1.950 . S
C955 C62 1.961 1_565 S
C971 C108 1.205 . S
C976 C320 1.214 . S
C992 C581 1.322 . S
C987 N140 1.323 . S
C1003 C145 2.433 . S
C1008 C459 2.399 . S
C1024 C480 1.570 . S
C1019 N150 1.447 . S
C1035 C154 1.935 . S
C1040 C518 1.982 . S
C1056 C318 2.523 . S
C1051 C168 2.532 . S
C1067 N173 1.282 . S
C1072 C381 1.313 . S
C1088 C419 2.118 . S
C1083 C177 2.151 . S
C1104 C280 1.186 . S
C1099 N163 1.192 . S
C1120 C587 1.702 . S
C1115 C200 1.690 . S
C1136 C456 2.279 . S
C1131 N219 2.282 . S
C1147 N242 1.530 . S
C1152 C499 1.594 . S
C1168 C541 1.508 . S
C1163 C269 1.553 . S
C1184 C341 1.282 . S
C1179 C191 1.289 . S
C1195 N209 1.738 . S
C1200 C387 1.807 . S
C1211 N232 1.837 . S
C1216 C416 1.790 . S
C1227 C260 2.334 . S
C1232 C299 2.306 . S
C1243 C223 2.113 . S
C1248 C558 2.074 . S
C1259 N255 2.068 . S
C1264 C347 2.064 . S
C1275 N186 1.587 . S
C1280 C358 1.584 . S
C1296 C400 1.168 . S
C1291 C214 1.186 . S
C1312 C296 1.579 . S
C1307 C237 1.581 . S
C1328 C496 1.606 . S
C1323 N265 1.523 . S
C1344 C547 1.530 . S
C1339 N196 1.565 . S
C1360 C440 0.927 . S
C1355 C246 0.939 . S
