# Generated by pormake.
# Topology gar, (4,6)-cn, num edge types: 1
# Building blocks:
#     Node 0, Type 0, BuildingBlock: GALJAG_clean_sbu_0, # of connection points: 4
#     Node 1, Type 0, BuildingBlock: GALJAG_clean_sbu_0, # of connection points: 4
#     Node 2, Type 0, BuildingBlock: GALJAG_clean_sbu_0, # of connection points: 4
#     Node 3, Type 0, BuildingBlock: GALJAG_clean_sbu_0, # of connection points: 4
#     Node 4, Type 0, BuildingBlock: GALJAG_clean_sbu_0, # of connection points: 4
#     Node 5, Type 0, BuildingBlock: GALJAG_clean_sbu_0, # of connection points: 4
#     Node 6, Type 0, BuildingBlock: GALJAG_clean_sbu_0, # of connection points: 4
#     Node 7, Type 0, BuildingBlock: GALJAG_clean_sbu_0, # of connection points: 4
#     Node 8, Type 0, BuildingBlock: GALJAG_clean_sbu_0, # of connection points: 4
#     Node 9, Type 0, BuildingBlock: GALJAG_clean_sbu_0, # of connection points: 4
#     Node 10, Type 0, BuildingBlock: GALJAG_clean_sbu_0, # of connection points: 4
#     Node 11, Type 0, BuildingBlock: GALJAG_clean_sbu_0, # of connection points: 4
#     Node 12, Type 0, BuildingBlock: GALJAG_clean_sbu_0, # of connection points: 4
#     Node 13, Type 0, BuildingBlock: GALJAG_clean_sbu_0, # of connection points: 4
#     Node 14, Type 0, BuildingBlock: GALJAG_clean_sbu_0, # of connection points: 4
#     Node 15, Type 0, BuildingBlock: GALJAG_clean_sbu_0, # of connection points: 4
#     Node 16, Type 0, BuildingBlock: GALJAG_clean_sbu_0, # of connection points: 4
#     Node 17, Type 0, BuildingBlock: GALJAG_clean_sbu_0, # of connection points: 4
#     Node 18, Type 0, BuildingBlock: GALJAG_clean_sbu_0, # of connection points: 4
#     Node 19, Type 0, BuildingBlock: GALJAG_clean_sbu_0, # of connection points: 4
#     Node 20, Type 0, BuildingBlock: GALJAG_clean_sbu_0, # of connection points: 4
#     Node 21, Type 0, BuildingBlock: GALJAG_clean_sbu_0, # of connection points: 4
#     Node 22, Type 0, BuildingBlock: GALJAG_clean_sbu_0, # of connection points: 4
#     Node 23, Type 0, BuildingBlock: GALJAG_clean_sbu_0, # of connection points: 4
#     Node 24, Type 1, BuildingBlock: BETDEL_clean_sbu_0, # of connection points: 6
#     Node 25, Type 1, BuildingBlock: BETDEL_clean_sbu_0, # of connection points: 6
#     Node 26, Type 1, BuildingBlock: BETDEL_clean_sbu_0, # of connection points: 6
#     Node 27, Type 1, BuildingBlock: BETDEL_clean_sbu_0, # of connection points: 6
#     Node 28, Type 1, BuildingBlock: BETDEL_clean_sbu_0, # of connection points: 6
#     Node 29, Type 1, BuildingBlock: BETDEL_clean_sbu_0, # of connection points: 6
#     Node 30, Type 1, BuildingBlock: BETDEL_clean_sbu_0, # of connection points: 6
#     Node 31, Type 1, BuildingBlock: BETDEL_clean_sbu_0, # of connection points: 6
#     Node 32, Type 1, BuildingBlock: BETDEL_clean_sbu_0, # of connection points: 6
#     Node 33, Type 1, BuildingBlock: BETDEL_clean_sbu_0, # of connection points: 6
#     Node 34, Type 1, BuildingBlock: BETDEL_clean_sbu_0, # of connection points: 6
#     Node 35, Type 1, BuildingBlock: BETDEL_clean_sbu_0, # of connection points: 6
#     Node 36, Type 1, BuildingBlock: BETDEL_clean_sbu_0, # of connection points: 6
#     Node 37, Type 1, BuildingBlock: BETDEL_clean_sbu_0, # of connection points: 6
#     Node 38, Type 1, BuildingBlock: BETDEL_clean_sbu_0, # of connection points: 6
#     Node 39, Type 1, BuildingBlock: BETDEL_clean_sbu_0, # of connection points: 6
#     Edge 40, Type (0, 1), BuildingBlock: ZUJKAS_clean_linker_0, # of connection points: 2
#     Edge 41, Type (0, 1), BuildingBlock: ZUJKAS_clean_linker_0, # of connection points: 2
#     Edge 42, Type (0, 1), BuildingBlock: ZUJKAS_clean_linker_0, # of connection points: 2
#     Edge 43, Type (0, 1), BuildingBlock: ZUJKAS_clean_linker_0, # of connection points: 2
#     Edge 44, Type (0, 1), BuildingBlock: ZUJKAS_clean_linker_0, # of connection points: 2
#     Edge 45, Type (0, 1), BuildingBlock: ZUJKAS_clean_linker_0, # of connection points: 2
#     Edge 46, Type (0, 1), BuildingBlock: ZUJKAS_clean_linker_0, # of connection points: 2
#     Edge 47, Type (0, 1), BuildingBlock: ZUJKAS_clean_linker_0, # of connection points: 2
#     Edge 48, Type (0, 1), BuildingBlock: ZUJKAS_clean_linker_0, # of connection points: 2
#     Edge 49, Type (0, 1), BuildingBlock: ZUJKAS_clean_linker_0, # of connection points: 2
#     Edge 50, Type (0, 1), BuildingBlock: ZUJKAS_clean_linker_0, # of connection points: 2
#     Edge 51, Type (0, 1), BuildingBlock: ZUJKAS_clean_linker_0, # of connection points: 2
#     Edge 52, Type (0, 1), BuildingBlock: ZUJKAS_clean_linker_0, # of connection points: 2
#     Edge 53, Type (0, 1), BuildingBlock: ZUJKAS_clean_linker_0, # of connection points: 2
#     Edge 54, Type (0, 1), BuildingBlock: ZUJKAS_clean_linker_0, # of connection points: 2
#     Edge 55, Type (0, 1), BuildingBlock: ZUJKAS_clean_linker_0, # of connection points: 2
#     Edge 56, Type (0, 1), BuildingBlock: ZUJKAS_clean_linker_0, # of connection points: 2
#     Edge 57, Type (0, 1), BuildingBlock: ZUJKAS_clean_linker_0, # of connection points: 2
#     Edge 58, Type (0, 1), BuildingBlock: ZUJKAS_clean_linker_0, # of connection points: 2
#     Edge 59, Type (0, 1), BuildingBlock: ZUJKAS_clean_linker_0, # of connection points: 2
#     Edge 60, Type (0, 1), BuildingBlock: ZUJKAS_clean_linker_0, # of connection points: 2
#     Edge 61, Type (0, 1), BuildingBlock: ZUJKAS_clean_linker_0, # of connection points: 2
#     Edge 62, Type (0, 1), BuildingBlock: ZUJKAS_clean_linker_0, # of connection points: 2
#     Edge 63, Type (0, 1), BuildingBlock: ZUJKAS_clean_linker_0, # of connection points: 2
#     Edge 64, Type (0, 1), BuildingBlock: ZUJKAS_clean_linker_0, # of connection points: 2
#     Edge 65, Type (0, 1), BuildingBlock: ZUJKAS_clean_linker_0, # of connection points: 2
#     Edge 66, Type (0, 1), BuildingBlock: ZUJKAS_clean_linker_0, # of connection points: 2
#     Edge 67, Type (0, 1), BuildingBlock: ZUJKAS_clean_linker_0, # of connection points: 2
#     Edge 68, Type (0, 1), BuildingBlock: ZUJKAS_clean_linker_0, # of connection points: 2
#     Edge 69, Type (0, 1), BuildingBlock: ZUJKAS_clean_linker_0, # of connection points: 2
#     Edge 70, Type (0, 1), BuildingBlock: ZUJKAS_clean_linker_0, # of connection points: 2
#     Edge 71, Type (0, 1), BuildingBlock: ZUJKAS_clean_linker_0, # of connection points: 2
#     Edge 72, Type (0, 1), BuildingBlock: ZUJKAS_clean_linker_0, # of connection points: 2
#     Edge 73, Type (0, 1), BuildingBlock: ZUJKAS_clean_linker_0, # of connection points: 2
#     Edge 74, Type (0, 1), BuildingBlock: ZUJKAS_clean_linker_0, # of connection points: 2
#     Edge 75, Type (0, 1), BuildingBlock: ZUJKAS_clean_linker_0, # of connection points: 2
#     Edge 76, Type (0, 1), BuildingBlock: ZUJKAS_clean_linker_0, # of connection points: 2
#     Edge 77, Type (0, 1), BuildingBlock: ZUJKAS_clean_linker_0, # of connection points: 2
#     Edge 78, Type (0, 1), BuildingBlock: ZUJKAS_clean_linker_0, # of connection points: 2
#     Edge 79, Type (0, 1), BuildingBlock: ZUJKAS_clean_linker_0, # of connection points: 2
#     Edge 80, Type (0, 1), BuildingBlock: ZUJKAS_clean_linker_0, # of connection points: 2
#     Edge 81, Type (0, 1), BuildingBlock: ZUJKAS_clean_linker_0, # of connection points: 2
#     Edge 82, Type (0, 1), BuildingBlock: ZUJKAS_clean_linker_0, # of connection points: 2
#     Edge 83, Type (0, 1), BuildingBlock: ZUJKAS_clean_linker_0, # of connection points: 2
#     Edge 84, Type (0, 1), BuildingBlock: ZUJKAS_clean_linker_0, # of connection points: 2
#     Edge 85, Type (0, 1), BuildingBlock: ZUJKAS_clean_linker_0, # of connection points: 2
#     Edge 86, Type (0, 1), BuildingBlock: ZUJKAS_clean_linker_0, # of connection points: 2
#     Edge 87, Type (0, 1), BuildingBlock: ZUJKAS_clean_linker_0, # of connection points: 2
#     Edge 88, Type (0, 1), BuildingBlock: ZUJKAS_clean_linker_0, # of connection points: 2
#     Edge 89, Type (0, 1), BuildingBlock: ZUJKAS_clean_linker_0, # of connection points: 2
#     Edge 90, Type (0, 1), BuildingBlock: ZUJKAS_clean_linker_0, # of connection points: 2
#     Edge 91, Type (0, 1), BuildingBlock: ZUJKAS_clean_linker_0, # of connection points: 2
#     Edge 92, Type (0, 1), BuildingBlock: ZUJKAS_clean_linker_0, # of connection points: 2
#     Edge 93, Type (0, 1), BuildingBlock: ZUJKAS_clean_linker_0, # of connection points: 2
#     Edge 94, Type (0, 1), BuildingBlock: ZUJKAS_clean_linker_0, # of connection points: 2
#     Edge 95, Type (0, 1), BuildingBlock: ZUJKAS_clean_linker_0, # of connection points: 2
#     Edge 96, Type (0, 1), BuildingBlock: ZUJKAS_clean_linker_0, # of connection points: 2
#     Edge 97, Type (0, 1), BuildingBlock: ZUJKAS_clean_linker_0, # of connection points: 2
#     Edge 98, Type (0, 1), BuildingBlock: ZUJKAS_clean_linker_0, # of connection points: 2
#     Edge 99, Type (0, 1), BuildingBlock: ZUJKAS_clean_linker_0, # of connection points: 2
#     Edge 100, Type (0, 1), BuildingBlock: ZUJKAS_clean_linker_0, # of connection points: 2
#     Edge 101, Type (0, 1), BuildingBlock: ZUJKAS_clean_linker_0, # of connection points: 2
#     Edge 102, Type (0, 1), BuildingBlock: ZUJKAS_clean_linker_0, # of connection points: 2
#     Edge 103, Type (0, 1), BuildingBlock: ZUJKAS_clean_linker_0, # of connection points: 2
#     Edge 104, Type (0, 1), BuildingBlock: ZUJKAS_clean_linker_0, # of connection points: 2
#     Edge 105, Type (0, 1), BuildingBlock: ZUJKAS_clean_linker_0, # of connection points: 2
#     Edge 106, Type (0, 1), BuildingBlock: ZUJKAS_clean_linker_0, # of connection points: 2
#     Edge 107, Type (0, 1), BuildingBlock: ZUJKAS_clean_linker_0, # of connection points: 2
#     Edge 108, Type (0, 1), BuildingBlock: ZUJKAS_clean_linker_0, # of connection points: 2
#     Edge 109, Type (0, 1), BuildingBlock: ZUJKAS_clean_linker_0, # of connection points: 2
#     Edge 110, Type (0, 1), BuildingBlock: ZUJKAS_clean_linker_0, # of connection points: 2
#     Edge 111, Type (0, 1), BuildingBlock: ZUJKAS_clean_linker_0, # of connection points: 2
#     Edge 112, Type (0, 1), BuildingBlock: ZUJKAS_clean_linker_0, # of connection points: 2
#     Edge 113, Type (0, 1), BuildingBlock: ZUJKAS_clean_linker_0, # of connection points: 2
#     Edge 114, Type (0, 1), BuildingBlock: ZUJKAS_clean_linker_0, # of connection points: 2
#     Edge 115, Type (0, 1), BuildingBlock: ZUJKAS_clean_linker_0, # of connection points: 2
#     Edge 116, Type (0, 1), BuildingBlock: ZUJKAS_clean_linker_0, # of connection points: 2
#     Edge 117, Type (0, 1), BuildingBlock: ZUJKAS_clean_linker_0, # of connection points: 2
#     Edge 118, Type (0, 1), BuildingBlock: ZUJKAS_clean_linker_0, # of connection points: 2
#     Edge 119, Type (0, 1), BuildingBlock: ZUJKAS_clean_linker_0, # of connection points: 2
#     Edge 120, Type (0, 1), BuildingBlock: ZUJKAS_clean_linker_0, # of connection points: 2
#     Edge 121, Type (0, 1), BuildingBlock: ZUJKAS_clean_linker_0, # of connection points: 2
#     Edge 122, Type (0, 1), BuildingBlock: ZUJKAS_clean_linker_0, # of connection points: 2
#     Edge 123, Type (0, 1), BuildingBlock: ZUJKAS_clean_linker_0, # of connection points: 2
#     Edge 124, Type (0, 1), BuildingBlock: ZUJKAS_clean_linker_0, # of connection points: 2
#     Edge 125, Type (0, 1), BuildingBlock: ZUJKAS_clean_linker_0, # of connection points: 2
#     Edge 126, Type (0, 1), BuildingBlock: ZUJKAS_clean_linker_0, # of connection points: 2
#     Edge 127, Type (0, 1), BuildingBlock: ZUJKAS_clean_linker_0, # of connection points: 2
#     Edge 128, Type (0, 1), BuildingBlock: ZUJKAS_clean_linker_0, # of connection points: 2
#     Edge 129, Type (0, 1), BuildingBlock: ZUJKAS_clean_linker_0, # of connection points: 2
#     Edge 130, Type (0, 1), BuildingBlock: ZUJKAS_clean_linker_0, # of connection points: 2
#     Edge 131, Type (0, 1), BuildingBlock: ZUJKAS_clean_linker_0, # of connection points: 2
#     Edge 132, Type (0, 1), BuildingBlock: ZUJKAS_clean_linker_0, # of connection points: 2
#     Edge 133, Type (0, 1), BuildingBlock: ZUJKAS_clean_linker_0, # of connection points: 2
#     Edge 134, Type (0, 1), BuildingBlock: ZUJKAS_clean_linker_0, # of connection points: 2
#     Edge 135, Type (0, 1), BuildingBlock: ZUJKAS_clean_linker_0, # of connection points: 2
# Relax obj value: 0.159
# Max RMSD: 0.260
# Mean RMSD: 0.164
data_MOF--net-gar--node1-GALJAG_clean_sbu_0--node2-BETDEL_clean_sbu_0--edge1-ZUJKAS_clean_linker_0
_symmetry_space_group_name_H-M    P1
_symmetry_Int_Tables_number       1
_symmetry_cell_setting            triclinic
loop_
_symmetry_equiv_pos_as_xyz
'x, y, z'
_cell_length_a     71.806837
_cell_length_b     68.922718
_cell_length_c     70.365386
_cell_angle_alpha  95.048412
_cell_angle_beta   92.519119
_cell_angle_gamma 99.889334
loop_
_atom_site_label
_atom_site_type_symbol
_atom_site_fract_x
_atom_site_fract_y
_atom_site_fract_z
_atom_type_partial_charge
In0 In 0.0368 0.27285 0.40006 0.0
O1 O 0.04783 0.26361 0.3713 0.0
O2 O 0.06794 0.27303 0.39477 0.0
C3 C 0.00319 0.27826 0.38458 0.0
C4 C 0.03284 0.23946 0.41799 0.0
C5 C 0.04464 0.30858 0.42059 0.0
O6 O 0.01841 0.2818 0.37622 0.0
O7 O 0.0048 0.27135 0.40047 0.0
O8 O 0.03757 0.29303 0.42772 0.0
O9 O 0.04838 0.30599 0.40332 0.0
C10 C 0.06501 0.26693 0.37728 0.0
O11 O 0.04298 0.2555 0.42502 0.0
O12 O 0.02479 0.24021 0.40182 0.0
In13 In -0.00029 0.76835 0.63307 0.0
O14 O 0.99206 0.78502 0.60807 0.0
O15 O 0.014 0.79971 0.62807 0.0
C16 C 0.98881 0.73498 0.60936 0.0
C17 C 0.03337 0.76488 0.65006 0.0
C18 C 0.97271 0.77077 0.65835 0.0
O19 O 0.00267 0.74813 0.60654 0.0
O20 O 0.98021 0.7387 0.62414 0.0
O21 O 0.98538 0.76041 0.66045 0.0
O22 O 0.97374 0.77998 0.64361 0.0
C23 C 0.00416 0.80038 0.61292 0.0
O24 O 0.02386 0.77761 0.6563 0.0
O25 O 0.0259 0.75406 0.63541 0.0
In26 In 0.53214 0.77028 0.89645 0.0
O27 O 0.54281 0.75877 0.86808 0.0
O28 O 0.56325 0.7721 0.89009 0.0
C29 C 0.50162 0.77687 0.87588 0.0
C30 C 0.52848 0.73964 0.91842 0.0
C31 C 0.53615 0.80432 0.91937 0.0
O32 O 0.51716 0.78878 0.87755 0.0
O33 O 0.5016 0.76131 0.8841 0.0
O34 O 0.54794 0.80109 0.9072 0.0
O35 O 0.52263 0.79013 0.92035 0.0
C36 C 0.5601 0.7639 0.87327 0.0
O37 O 0.53926 0.75592 0.92335 0.0
O38 O 0.51962 0.73878 0.90242 0.0
In39 In 0.5054 0.27085 0.13424 0.0
O40 O 0.49599 0.25473 0.10477 0.0
O41 O 0.49809 0.23734 0.128 0.0
C42 C 0.50956 0.30516 0.11747 0.0
C43 C 0.4763 0.26821 0.15749 0.0
C44 C 0.54012 0.26984 0.15038 0.0
O45 O 0.51826 0.29133 0.11252 0.0
O46 O 0.49908 0.30191 0.13114 0.0
O47 O 0.52925 0.28057 0.1578 0.0
O48 O 0.53348 0.25984 0.13499 0.0
C49 C 0.49449 0.23765 0.11033 0.0
O50 O 0.49315 0.26853 0.16365 0.0
O51 O 0.47422 0.2692 0.13972 0.0
In52 In 0.03503 0.79236 0.15381 0.0
O53 O 0.02858 0.76893 0.12822 0.0
O54 O 0.03654 0.75966 0.15491 0.0
C55 C 0.03778 0.8228 0.13183 0.0
C56 C 0.00211 0.79008 0.17143 0.0
C57 C 0.0685 0.80219 0.17446 0.0
O58 O 0.04051 0.80585 0.1256 0.0
O59 O 0.03393 0.82442 0.14915 0.0
O60 O 0.05339 0.80686 0.18032 0.0
O61 O 0.0668 0.79283 0.15808 0.0
C62 C 0.03195 0.75488 0.13741 0.0
O63 O 0.01716 0.78691 0.17953 0.0
O64 O 0.00355 0.79397 0.15433 0.0
In65 In 0.50544 0.75765 0.38328 0.0
O66 O 0.52103 0.74465 0.35897 0.0
O67 O 0.53226 0.77374 0.37141 0.0
C68 C 0.47321 0.74986 0.36061 0.0
C69 C 0.50826 0.73001 0.40774 0.0
C70 C 0.50574 0.79156 0.40595 0.0
O71 O 0.48607 0.76457 0.35933 0.0
O72 O 0.47684 0.73862 0.37298 0.0
O73 O 0.51862 0.78134 0.40731 0.0
O74 O 0.49289 0.78475 0.39318 0.0
C75 C 0.53391 0.75965 0.35924 0.0
O76 O 0.49443 0.73905 0.40717 0.0
O77 O 0.5205 0.73476 0.3959 0.0
In78 In 0.53754 0.29239 0.65436 0.0
O79 O 0.53565 0.27093 0.62742 0.0
O80 O 0.53562 0.25897 0.65422 0.0
C81 C 0.53679 0.32 0.62945 0.0
C82 C 0.50769 0.29059 0.67667 0.0
C83 C 0.57084 0.30292 0.67517 0.0
O84 O 0.55079 0.31147 0.63178 0.0
O85 O 0.52324 0.31465 0.63969 0.0
O86 O 0.55867 0.31412 0.67471 0.0
O87 O 0.56616 0.28653 0.66521 0.0
C88 C 0.53507 0.25572 0.63626 0.0
O89 O 0.52448 0.29709 0.68313 0.0
O90 O 0.50601 0.28487 0.65906 0.0
In91 In 0.00729 0.25981 0.87861 0.0
O92 O 0.00538 0.24785 0.90789 0.0
O93 O 0.01222 0.22904 0.88475 0.0
C94 C 0.00933 0.29643 0.89651 0.0
C95 C 0.03735 0.2605 0.85658 0.0
C96 C 0.97248 0.25249 0.86055 0.0
O97 O 0.0192 0.28431 0.90213 0.0
O98 O 0.99878 0.29024 0.88164 0.0
O99 O 0.98712 0.25995 0.85267 0.0
O100 O 0.97546 0.24837 0.8774 0.0
C101 C 0.00941 0.23129 0.90229 0.0
O102 O 0.02256 0.24758 0.8536 0.0
O103 O 0.03689 0.27323 0.87047 0.0
In104 In 0.41821 0.04372 0.28303 0.0
O105 O 0.43764 0.06086 0.26303 0.0
O106 O 0.42903 0.02982 0.25628 0.0
C107 C 0.4417 0.05379 0.31469 0.0
C108 C 0.39154 0.06457 0.2729 0.0
C109 C 0.39879 0.00872 0.29129 0.0
O110 O 0.44613 0.0442 0.30001 0.0
O111 O 0.42558 0.05857 0.3133 0.0
O112 O 0.39573 0.02507 0.29881 0.0
O113 O 0.41187 0.01 0.27983 0.0
C114 C 0.43831 0.04579 0.25167 0.0
O115 O 0.39065 0.04656 0.26721 0.0
O116 O 0.40606 0.07218 0.28349 0.0
In117 In 0.27274 0.1487 0.50432 0.0
O118 O 0.27804 0.17784 0.52398 0.0
O119 O 0.27413 0.15084 0.53683 0.0
C120 C 0.27532 0.16922 0.47289 0.0
C121 C 0.30046 0.12673 0.50545 0.0
C122 C 0.23764 0.12645 0.50147 0.0
O123 O 0.26122 0.16789 0.48302 0.0
O124 O 0.28817 0.16049 0.47871 0.0
O125 O 0.2508 0.12196 0.49158 0.0
O126 O 0.24217 0.14212 0.51254 0.0
C127 C 0.27701 0.16947 0.53925 0.0
O128 O 0.28331 0.11917 0.50126 0.0
O129 O 0.30357 0.1453 0.5091 0.0
In130 In 0.14714 0.01322 0.78507 0.0
O131 O 0.11971 0.01133 0.76647 0.0
O132 O 0.14542 0.01157 0.75261 0.0
C133 C 0.12512 0.00978 0.81547 0.0
C134 C 0.168 0.9841 0.78158 0.0
C135 C 0.16897 0.0496 0.78984 0.0
O136 O 0.12804 0.02512 0.80678 0.0
O137 O 0.1331 0.996 0.80873 0.0
O138 O 0.17076 0.03654 0.80097 0.0
O139 O 0.15642 0.0442 0.77648 0.0
C140 C 0.12781 0.01123 0.7509 0.0
O141 O 0.17495 0.00153 0.7884 0.0
O142 O 0.15055 0.98136 0.77671 0.0
In143 In 0.24591 0.88425 0.01159 0.0
O144 O 0.25766 0.86603 0.03294 0.0
O145 O 0.22912 0.87002 0.03523 0.0
C146 C 0.24011 0.85915 0.97941 0.0
C147 C 0.22323 0.9115 0.01556 0.0
C148 C 0.28073 0.90568 0.00982 0.0
O149 O 0.2466 0.85452 0.99498 0.0
O150 O 0.236 0.87626 0.9802 0.0
O151 O 0.27329 0.90257 0.02542 0.0
O152 O 0.27064 0.89791 0.99509 0.0
C153 C 0.24271 0.86264 0.04174 0.0
O154 O 0.24071 0.91526 0.02018 0.0
O155 O 0.21699 0.89379 0.00904 0.0
In156 In 0.26179 0.39138 0.03688 0.0
O157 O 0.24875 0.3641 0.05131 0.0
O158 O 0.26829 0.38645 0.06794 0.0
C159 C 0.26168 0.37256 0.00138 0.0
C160 C 0.23278 0.41162 0.04089 0.0
C161 C 0.29727 0.4124 0.03729 0.0
O162 O 0.2635 0.36401 0.01631 0.0
O163 O 0.25956 0.39032 0.00439 0.0
O164 O 0.28277 0.41923 0.03234 0.0
O165 O 0.29388 0.39507 0.04232 0.0
C166 C 0.25748 0.3699 0.06732 0.0
O167 O 0.24906 0.41788 0.04879 0.0
O168 O 0.23108 0.39511 0.03112 0.0
In169 In 0.78039 0.14114 0.03142 0.0
O170 O 0.789 0.11057 0.02988 0.0
O171 O 0.81083 0.13572 0.0328 0.0
C172 C 0.74459 0.1215 0.02488 0.0
C173 C 0.78573 0.16206 0.06597 0.0
C174 C 0.78132 0.16634 0.00414 0.0
O175 O 0.75612 0.12314 0.01184 0.0
O176 O 0.75124 0.12947 0.04113 0.0
O177 O 0.77236 0.16815 0.01901 0.0
O178 O 0.78988 0.15179 0.00299 0.0
C179 C 0.80653 0.11714 0.03125 0.0
O180 O 0.79349 0.16832 0.05141 0.0
O181 O 0.7757 0.14504 0.06321 0.0
In182 In 0.13931 0.49763 0.25045 0.0
O183 O 0.16321 0.48786 0.26757 0.0
O184 O 0.1567 0.47481 0.23912 0.0
C185 C 0.1591 0.53485 0.25366 0.0
C186 C 0.11808 0.48729 0.21748 0.0
C187 C 0.11213 0.49427 0.27578 0.0
O188 O 0.15758 0.52358 0.23834 0.0
O189 O 0.15067 0.52735 0.26732 0.0
O190 O 0.11389 0.50733 0.26419 0.0
O191 O 0.12401 0.48276 0.27451 0.0
C192 C 0.16698 0.47594 0.25428 0.0
O193 O 0.1184 0.4756 0.23028 0.0
O194 O 0.12848 0.50402 0.22133 0.0
In195 In 0.76033 0.89101 0.53638 0.0
O196 O 0.74721 0.86382 0.55092 0.0
O197 O 0.76815 0.88518 0.56692 0.0
C198 C 0.75938 0.87313 0.50041 0.0
C199 C 0.73126 0.911 0.54117 0.0
C200 C 0.7955 0.91257 0.53629 0.0
O201 O 0.76128 0.86409 0.51502 0.0
O202 O 0.75762 0.89094 0.50398 0.0
O203 O 0.7807 0.91998 0.53451 0.0
O204 O 0.79257 0.89432 0.53842 0.0
C205 C 0.75678 0.86902 0.56656 0.0
O206 O 0.74747 0.91692 0.54937 0.0
O207 O 0.72966 0.89493 0.53067 0.0
In208 In 0.8927 0.04348 0.24388 0.0
O209 O 0.91877 0.05893 0.22994 0.0
O210 O 0.89902 0.03738 0.21268 0.0
C211 C 0.90996 0.03878 0.27771 0.0
C212 C 0.8753 0.07539 0.24547 0.0
C213 C 0.87025 0.00752 0.23942 0.0
O214 O 0.91818 0.03831 0.26223 0.0
O215 O 0.89327 0.04213 0.27619 0.0
O216 O 0.86389 0.02324 0.24354 0.0
O217 O 0.88781 0.01 0.23727 0.0
C218 C 0.91434 0.04959 0.21369 0.0
O219 O 0.86957 0.0601 0.23413 0.0
O220 O 0.88984 0.07464 0.25591 0.0
In221 In 0.27997 0.6357 0.52962 0.0
O222 O 0.29049 0.60763 0.53707 0.0
O223 O 0.30883 0.62841 0.52293 0.0
C224 C 0.2442 0.61546 0.52603 0.0
C225 C 0.2905 0.66123 0.56101 0.0
C226 C 0.27736 0.6578 0.50035 0.0
O227 O 0.25601 0.61339 0.51359 0.0
O228 O 0.25055 0.62741 0.54038 0.0
O229 O 0.27064 0.66149 0.51625 0.0
O230 O 0.28525 0.64274 0.49909 0.0
C231 C 0.30634 0.61212 0.5301 0.0
O232 O 0.29573 0.66484 0.54464 0.0
O233 O 0.28036 0.64446 0.56168 0.0
In234 In 0.39108 0.53962 0.74451 0.0
O235 O 0.36629 0.5546 0.73601 0.0
O236 O 0.38841 0.57134 0.7547 0.0
C237 C 0.37065 0.50262 0.74022 0.0
C238 C 0.41261 0.54574 0.71419 0.0
C239 C 0.40726 0.53653 0.7793 0.0
O240 O 0.36312 0.51779 0.74318 0.0
O241 O 0.38837 0.50617 0.73911 0.0
O242 O 0.41611 0.53573 0.76423 0.0
O243 O 0.39047 0.53935 0.77686 0.0
C244 C 0.37268 0.5708 0.74578 0.0
O245 O 0.4174 0.55457 0.73059 0.0
O246 O 0.39695 0.53407 0.71306 0.0
In247 In 0.63637 0.00134 0.7512 0.0
O248 O 0.66222 0.98822 0.74299 0.0
O249 O 0.64685 0.97681 0.7659 0.0
C250 C 0.65399 0.03942 0.75497 0.0
C251 C 0.61963 0.98845 0.71634 0.0
C252 C 0.61061 0.00144 0.77795 0.0
O253 O 0.66193 0.02548 0.75969 0.0
O254 O 0.63713 0.03418 0.74822 0.0
O255 O 0.606 0.99762 0.76037 0.0
O256 O 0.6282 0.0052 0.78206 0.0
C257 C 0.66075 0.97626 0.75564 0.0
O258 O 0.61755 0.97824 0.73036 0.0
O259 O 0.63043 0.005 0.71984 0.0
In260 In 0.77284 0.64909 0.00499 0.0
O261 O 0.78369 0.61971 0.00412 0.0
O262 O 0.804 0.64629 0.00773 0.0
C263 C 0.73821 0.62599 0.00295 0.0
C264 C 0.77699 0.67163 0.03901 0.0
C265 C 0.77447 0.66857 0.97294 0.0
O266 O 0.75088 0.62253 0.99189 0.0
O267 O 0.74301 0.64103 0.0148 0.0
O268 O 0.76017 0.66651 0.98281 0.0
O269 O 0.78797 0.66108 0.97933 0.0
C270 C 0.80096 0.62762 0.00618 0.0
O271 O 0.77629 0.67901 0.02326 0.0
O272 O 0.77603 0.65313 0.03752 0.0
In273 In 0.92203 0.54545 0.78298 0.0
O274 O 0.89124 0.54803 0.77698 0.0
O275 O 0.91157 0.57449 0.77909 0.0
C276 C 0.90605 0.50851 0.7894 0.0
C277 C 0.94049 0.54853 0.75053 0.0
C278 C 0.94445 0.55562 0.8153 0.0
O279 O 0.90294 0.52374 0.79916 0.0
O280 O 0.91763 0.51186 0.77658 0.0
O281 O 0.94816 0.54371 0.80193 0.0
O282 O 0.92968 0.56271 0.81217 0.0
C283 C 0.89438 0.56648 0.77639 0.0
O284 O 0.94613 0.55952 0.7657 0.0
O285 O 0.92571 0.53598 0.75183 0.0
In286 In 0.74518 0.37833 0.51192 0.0
O287 O 0.72717 0.35683 0.52968 0.0
O288 O 0.75199 0.375 0.54308 0.0
C289 C 0.74199 0.3499 0.48246 0.0
C290 C 0.72281 0.40605 0.51433 0.0
C291 C 0.78054 0.39682 0.50675 0.0
O292 O 0.75049 0.34869 0.49825 0.0
O293 O 0.73485 0.36532 0.48162 0.0
O294 O 0.76634 0.39909 0.49654 0.0
O295 O 0.77691 0.3851 0.51943 0.0
C296 C 0.73786 0.36172 0.54466 0.0
O297 O 0.73943 0.40895 0.52183 0.0
O298 O 0.71734 0.38906 0.50569 0.0
In299 In 0.65036 0.51749 0.28779 0.0
O300 O 0.67832 0.50654 0.28398 0.0
O301 O 0.65427 0.48534 0.2888 0.0
C302 C 0.66869 0.55535 0.29257 0.0
C303 C 0.63286 0.51624 0.25273 0.0
C304 C 0.62982 0.5126 0.31894 0.0
O305 O 0.67555 0.54139 0.299 0.0
O306 O 0.65257 0.55023 0.28399 0.0
O307 O 0.62438 0.50343 0.3028 0.0
O308 O 0.64556 0.52404 0.31934 0.0
C309 C 0.6717 0.48872 0.28593 0.0
O310 O 0.62519 0.52063 0.26793 0.0
O311 O 0.64909 0.51189 0.25523 0.0
Dy312 Dy 0.005 0.02461 0.01727 0.0
C313 C 0.08624 0.03455 0.01984 0.0
C314 C 0.96782 0.02573 0.02227 0.0
Dy315 Dy 0.0487 0.03536 0.02291 0.0
O316 O 0.97398 0.01558 0.00818 0.0
O317 O 0.98192 0.03508 0.0335 0.0
O318 O 0.00735 0.00634 0.98961 0.0
O319 O 0.02813 0.03118 0.99872 0.0
C320 C 0.0238 0.01644 0.98648 0.0
C321 C 0.02949 0.04354 0.05339 0.0
O322 O 0.04358 0.06303 0.011 0.0
O323 O 0.01093 0.05735 0.01382 0.0
O324 O 0.07887 0.04131 0.03505 0.0
O325 O 0.07313 0.02864 0.00628 0.0
O326 O 0.04564 0.05415 0.05013 0.0
O327 O 0.02556 0.02866 0.0413 0.0
O328 O 0.01053 0.99735 0.02974 0.0
O329 O 0.04279 0.00239 0.0251 0.0
C330 C 0.02697 0.06901 0.01041 0.0
C331 C 0.02694 0.991 0.02937 0.0
Dy332 Dy 0.26469 0.77989 0.25993 0.0
C333 C 0.26902 0.76967 0.34019 0.0
C334 C 0.25787 0.78856 0.22359 0.0
Dy335 Dy 0.26386 0.77863 0.30367 0.0
O336 O 0.27129 0.77941 0.22897 0.0
O337 O 0.24829 0.79302 0.23804 0.0
O338 O 0.28772 0.7617 0.25894 0.0
O339 O 0.28582 0.7812 0.28329 0.0
C340 C 0.29416 0.76775 0.27641 0.0
C341 C 0.23419 0.79004 0.2865 0.0
O342 O 0.28016 0.80911 0.30361 0.0
O343 O 0.27495 0.81184 0.27111 0.0
O344 O 0.25375 0.77469 0.33307 0.0
O345 O 0.28152 0.76973 0.32741 0.0
O346 O 0.24063 0.79692 0.3038 0.0
O347 O 0.24291 0.77673 0.28022 0.0
O348 O 0.24806 0.74956 0.26052 0.0
O349 O 0.25573 0.74649 0.29244 0.0
C350 C 0.28119 0.81964 0.28868 0.0
C351 C 0.24861 0.73875 0.27514 0.0
Dy352 Dy 0.53857 0.02095 0.52774 0.0
C353 C 0.45965 0.02726 0.5159 0.0
C354 C 0.57413 0.01296 0.5343 0.0
Dy355 Dy 0.49479 0.0191 0.52447 0.0
O356 O 0.56641 0.01469 0.51765 0.0
O357 O 0.56255 0.01597 0.54746 0.0
O358 O 0.54173 0.04148 0.50463 0.0
O359 O 0.51717 0.01979 0.50464 0.0
C360 C 0.52494 0.03449 0.49665 0.0
C361 C 0.50859 0.00577 0.55566 0.0
O362 O 0.49653 0.99057 0.50765 0.0
O363 O 0.5264 0.98859 0.52066 0.0
O364 O 0.46367 0.01653 0.52928 0.0
O365 O 0.47476 0.03323 0.50705 0.0
O366 O 0.49168 0.99874 0.54802 0.0
O367 O 0.51611 0.02026 0.54733 0.0
O368 O 0.53792 0.05046 0.54319 0.0
O369 O 0.5062 0.05104 0.53487 0.0
C370 C 0.51033 0.98046 0.5108 0.0
C371 C 0.52321 0.05975 0.54245 0.0
Dy372 Dy 0.25287 0.27228 0.76745 0.0
C373 C 0.33415 0.28651 0.76764 0.0
C374 C 0.21484 0.26316 0.77173 0.0
Dy375 Dy 0.29624 0.27666 0.77213 0.0
O376 O 0.2233 0.27875 0.76448 0.0
O377 O 0.22714 0.25234 0.77639 0.0
O378 O 0.25612 0.29816 0.74987 0.0
O379 O 0.27644 0.29711 0.77202 0.0
C380 C 0.27234 0.30649 0.75831 0.0
C381 C 0.27682 0.24233 0.78109 0.0
O382 O 0.29124 0.29214 0.80023 0.0
O383 O 0.25907 0.27933 0.79928 0.0
O384 O 0.32643 0.27294 0.77797 0.0
O385 O 0.32117 0.29489 0.76002 0.0
O386 O 0.29319 0.25041 0.78934 0.0
O387 O 0.27275 0.25191 0.76754 0.0
O388 O 0.25752 0.25749 0.73895 0.0
O389 O 0.29008 0.26859 0.74037 0.0
C390 C 0.27501 0.2886 0.8087 0.0
C391 C 0.27394 0.26016 0.73074 0.0
Dy392 Dy 0.01008 0.00943 0.49228 0.0
C393 C 0.04238 0.03476 0.56817 0.0
C394 C 0.99026 0.00099 0.45765 0.0
Dy395 Dy 0.02292 0.02636 0.53336 0.0
O396 O 0.00782 -0.00077 0.46084 0.0
O397 O 0.98342 0.00687 0.4735 0.0
O398 O 0.03979 0.00521 0.48668 0.0
O399 O 0.03524 0.0287 0.50589 0.0
C400 C 0.04765 0.01964 0.49916 0.0
C401 C 0.98534 0.01622 0.52635 0.0
O402 O 0.02397 0.05505 0.52058 0.0
O403 O 0.00609 0.04126 0.49286 0.0
O404 O 0.02468 0.03592 0.56491 0.0
O405 O 0.04956 0.02954 0.55231 0.0
O406 O 0.99324 0.03077 0.53869 0.0
O407 O 0.99775 0.00707 0.51977 0.0
O408 O 0.00913 0.98078 0.50508 0.0
O409 O 0.02718 0.99462 0.53269 0.0
C410 C 0.0142 0.05688 0.50458 0.0
C411 C 0.01905 0.97898 0.521 0.0
Dy412 Dy 0.29098 0.78867 0.76768 0.0
C413 C 0.21671 0.75628 0.73417 0.0
C414 C 0.32618 0.79988 0.7856 0.0
Dy415 Dy 0.25085 0.76764 0.75418 0.0
O416 O 0.32266 0.79432 0.76754 0.0
O417 O 0.31039 0.79972 0.79398 0.0
O418 O 0.29519 0.79859 0.73836 0.0
O419 O 0.27804 0.77141 0.74166 0.0
C420 C 0.28382 0.78331 0.72975 0.0
C421 C 0.25788 0.77239 0.79206 0.0
O422 O 0.26558 0.7416 0.75164 0.0
O423 O 0.29115 0.75666 0.77214 0.0
O424 O 0.22008 0.75342 0.7519 0.0
O425 O 0.2321 0.76497 0.72728 0.0
O426 O 0.24628 0.75742 0.78325 0.0
O427 O 0.26371 0.78461 0.78041 0.0
O428 O 0.27758 0.81559 0.76871 0.0
O429 O 0.24932 0.79991 0.75247 0.0
C430 C 0.28102 0.74067 0.76233 0.0
C431 C 0.26086 0.81615 0.7602 0.0
Dy432 Dy 0.5095 0.02667 0.02636 0.0
C433 C 0.51018 0.00936 0.94345 0.0
C434 C 0.50489 0.03312 0.06436 0.0
Dy435 Dy 0.50697 0.02339 0.98016 0.0
O436 O 0.49993 0.01621 0.05414 0.0
O437 O 0.51253 0.04658 0.05384 0.0
O438 O 0.5273 0.00281 0.02491 0.0
O439 O 0.50701 0.0036 0.00272 0.0
C440 C 0.52032 0.99519 0.008 0.0
C441 C 0.50157 0.05893 0.99594 0.0
O442 O 0.47793 0.00874 0.9861 0.0
O443 O 0.47828 0.02032 0.01844 0.0
O444 O 0.49757 0.01979 0.949 0.0
O445 O 0.52092 0.00656 0.95796 0.0
O446 O 0.50145 0.05478 0.97751 0.0
O447 O 0.50491 0.04415 0.00366 0.0
O448 O 0.53732 0.04437 0.02067 0.0
O449 O 0.53792 0.03368 0.9882 0.0
C450 C 0.4693 0.01153 0.00218 0.0
C451 C 0.54622 0.04291 0.00459 0.0
Dy452 Dy 0.27131 0.2828 0.26805 0.0
C453 C 0.26699 0.19864 0.25996 0.0
C454 C 0.26898 0.32149 0.26561 0.0
Dy455 Dy 0.26444 0.23755 0.2594 0.0
O456 O 0.27671 0.31477 0.28014 0.0
O457 O 0.2626 0.30712 0.25257 0.0
O458 O 0.2871 0.28058 0.29588 0.0
O459 O 0.26495 0.25781 0.28493 0.0
C460 C 0.27802 0.2629 0.29786 0.0
C461 C 0.25771 0.2579 0.22993 0.0
O462 O 0.23638 0.24029 0.27067 0.0
O463 O 0.23957 0.27434 0.26953 0.0
O464 O 0.26124 0.20652 0.24517 0.0
O465 O 0.27102 0.21197 0.27444 0.0
O466 O 0.24815 0.24044 0.23194 0.0
O467 O 0.27093 0.26255 0.2427 0.0
O468 O 0.29937 0.27975 0.25689 0.0
O469 O 0.29626 0.24592 0.25903 0.0
C470 C 0.22923 0.25683 0.27183 0.0
C471 C 0.30663 0.26329 0.25641 0.0
Dy472 Dy 0.50947 0.51346 0.99542 0.0
C473 C 0.55123 0.54031 0.06908 0.0
C474 C 0.4882 0.50587 0.96161 0.0
Dy475 Dy 0.52637 0.5305 0.03803 0.0
O476 O 0.50526 0.50228 0.96423 0.0
O477 O 0.48262 0.51318 0.97759 0.0
O478 O 0.53875 0.5087 0.98819 0.0
O479 O 0.53543 0.5313 0.00895 0.0
C480 C 0.54733 0.52227 0.00118 0.0
C481 C 0.48888 0.51583 0.03695 0.0
O482 O 0.52432 0.55897 0.0256 0.0
O483 O 0.50798 0.54591 0.9964 0.0
O484 O 0.53556 0.54719 0.06675 0.0
O485 O 0.55351 0.52857 0.05418 0.0
O486 O 0.49852 0.52387 0.05259 0.0
O487 O 0.50001 0.51681 0.02373 0.0
O488 O 0.50704 0.48568 0.01002 0.0
O489 O 0.52974 0.49856 0.03479 0.0
C490 C 0.51532 0.56107 0.00913 0.0
C491 C 0.51867 0.48343 0.02458 0.0
Dy492 Dy 0.79606 0.29427 0.28024 0.0
C493 C 0.72198 0.26619 0.24114 0.0
C494 C 0.82598 0.30796 0.30573 0.0
Dy495 Dy 0.75669 0.27468 0.26031 0.0
O496 O 0.82339 0.31488 0.28935 0.0
O497 O 0.8119 0.29403 0.30833 0.0
O498 O 0.81121 0.28643 0.25433 0.0
O499 O 0.78309 0.29077 0.25125 0.0
C500 C 0.79648 0.285 0.2426 0.0
C501 C 0.76124 0.27204 0.29803 0.0
O502 O 0.77288 0.25005 0.25517 0.0
O503 O 0.79536 0.26149 0.28026 0.0
O504 O 0.72548 0.27439 0.25851 0.0
O505 O 0.73754 0.26223 0.23409 0.0
O506 O 0.75073 0.25838 0.28646 0.0
O507 O 0.76748 0.28652 0.28908 0.0
O508 O 0.78268 0.32125 0.2801 0.0
O509 O 0.75596 0.30714 0.26029 0.0
C510 C 0.78704 0.24747 0.26689 0.0
C511 C 0.76687 0.3226 0.27017 0.0
Dy512 Dy 0.00677 0.52785 0.52643 0.0
C513 C 0.0111 0.5181 0.44241 0.0
C514 C 0.00366 0.54196 0.56318 0.0
Dy515 Dy 0.00525 0.52477 0.48011 0.0
O516 O 0.01769 0.53391 0.5571 0.0
O517 O 0.9913 0.54225 0.54916 0.0
O518 O 0.01305 0.49686 0.52931 0.0
O519 O 0.01009 0.50746 0.50302 0.0
C520 C 0.0136 0.49283 0.51092 0.0
C521 C 0.99326 0.55553 0.49862 0.0
O522 O 0.97782 0.50592 0.48521 0.0
O523 O 0.9761 0.51644 0.5176 0.0
O524 O 0.01467 0.53531 0.45229 0.0
O525 O 0.0041 0.5045 0.45309 0.0
O526 O 0.98656 0.5481 0.48154 0.0
O527 O 0.00669 0.54735 0.50382 0.0
O528 O 0.0356 0.54346 0.52088 0.0
O529 O 0.03636 0.53194 0.48868 0.0
C530 C 0.9685 0.50679 0.50109 0.0
C531 C 0.04481 0.54077 0.50516 0.0
Dy532 Dy 0.74726 0.77884 0.2644 0.0
C533 C 0.82839 0.79409 0.2624 0.0
C534 C 0.7095 0.76866 0.26964 0.0
Dy535 Dy 0.7908 0.78387 0.26826 0.0
O536 O 0.71714 0.78374 0.26109 0.0
O537 O 0.72246 0.75897 0.27505 0.0
O538 O 0.74973 0.80543 0.24773 0.0
O539 O 0.77058 0.80387 0.26916 0.0
C540 C 0.76609 0.81365 0.25593 0.0
C541 C 0.77208 0.74907 0.27677 0.0
O542 O 0.78622 0.79852 0.29689 0.0
O543 O 0.75406 0.78554 0.29619 0.0
O544 O 0.82123 0.78045 0.27293 0.0
O545 O 0.81504 0.80244 0.25546 0.0
O546 O 0.78857 0.75716 0.28475 0.0
O547 O 0.76755 0.75889 0.2636 0.0
O548 O 0.75171 0.76433 0.23565 0.0
O549 O 0.78406 0.77644 0.23653 0.0
C550 C 0.77012 0.79464 0.30554 0.0
C551 C 0.76793 0.76763 0.22713 0.0
Dy552 Dy 0.76185 0.28259 0.76003 0.0
C553 C 0.76611 0.27576 0.84332 0.0
C554 C 0.74944 0.28888 0.72457 0.0
Dy555 Dy 0.76222 0.28318 0.80621 0.0
O556 O 0.75552 0.27293 0.72877 0.0
O557 O 0.75041 0.30142 0.73966 0.0
O558 O 0.79104 0.27448 0.75672 0.0
O559 O 0.77957 0.27708 0.78312 0.0
C560 C 0.79385 0.2732 0.77499 0.0
C561 C 0.73478 0.29781 0.7882 0.0
O562 O 0.7825 0.31083 0.80294 0.0
O563 O 0.7747 0.31393 0.77079 0.0
O564 O 0.75005 0.27386 0.83346 0.0
O565 O 0.78007 0.28198 0.83297 0.0
O566 O 0.74121 0.30433 0.80561 0.0
O567 O 0.74223 0.28338 0.78247 0.0
O568 O 0.74494 0.25297 0.76359 0.0
O569 O 0.75313 0.25096 0.79586 0.0
C570 C 0.78355 0.32091 0.78766 0.0
C571 C 0.74537 0.24292 0.77882 0.0
Dy572 Dy 0.76734 0.7815 0.76831 0.0
C573 C 0.76484 0.69762 0.75734 0.0
C574 C 0.76436 0.82014 0.76664 0.0
Dy575 Dy 0.76148 0.73648 0.75846 0.0
O576 O 0.76913 0.8126 0.78205 0.0
O577 O 0.76136 0.80662 0.7523 0.0
O578 O 0.78353 0.77899 0.79575 0.0
O579 O 0.76165 0.75594 0.78453 0.0
C580 C 0.77477 0.76109 0.79743 0.0
C581 C 0.75425 0.75736 0.72961 0.0
O582 O 0.73257 0.73799 0.76802 0.0
O583 O 0.73568 0.77226 0.76914 0.0
O584 O 0.76487 0.70769 0.74259 0.0
O585 O 0.76255 0.7087 0.77264 0.0
O586 O 0.74499 0.73966 0.73127 0.0
O587 O 0.76743 0.76203 0.74245 0.0
O588 O 0.79593 0.77956 0.75825 0.0
O589 O 0.7933 0.74575 0.7602 0.0
C590 C 0.72535 0.75445 0.77016 0.0
C591 C 0.80347 0.76331 0.75789 0.0
Dy592 Dy 0.50534 0.52222 0.51797 0.0
C593 C 0.5866 0.53158 0.52162 0.0
C594 C 0.46765 0.52156 0.52167 0.0
Dy595 Dy 0.54904 0.53268 0.52442 0.0
O596 O 0.47546 0.51945 0.50548 0.0
O597 O 0.48039 0.52389 0.53569 0.0
O598 O 0.50838 0.5043 0.49032 0.0
O599 O 0.52884 0.5293 0.50001 0.0
C600 C 0.52475 0.51476 0.48748 0.0
C601 C 0.52944 0.54 0.5548 0.0
O602 O 0.54398 0.56074 0.51337 0.0
O603 O 0.51157 0.55545 0.51764 0.0
O604 O 0.57899 0.53723 0.53711 0.0
O605 O 0.57374 0.52705 0.50766 0.0
O606 O 0.5457 0.5507 0.55199 0.0
O607 O 0.52558 0.52547 0.54228 0.0
O608 O 0.51026 0.49359 0.52773 0.0
O609 O 0.54293 0.49954 0.52531 0.0
C610 C 0.52752 0.56703 0.51384 0.0
C611 C 0.52684 0.48761 0.52798 0.0
Dy612 Dy 0.03958 0.52146 0.02796 0.0
C613 C 0.95988 0.52744 0.01787 0.0
C614 C 0.07334 0.51074 0.03771 0.0
Dy615 Dy 0.99559 0.51984 0.02438 0.0
O616 O 0.07153 0.52616 0.02882 0.0
O617 O 0.0568 0.50148 0.04141 0.0
O618 O 0.04469 0.54165 0.00464 0.0
O619 O 0.0186 0.52255 0.00517 0.0
C620 C 0.0272 0.53727 0.99777 0.0
C621 C 0.00946 0.50434 0.05429 0.0
O622 O 0.99664 0.49175 0.00643 0.0
O623 O 0.02828 0.4905 0.01453 0.0
O624 O 0.96669 0.52296 0.03399 0.0
O625 O 0.97248 0.52741 0.00518 0.0
O626 O 0.99282 0.49726 0.04601 0.0
O627 O 0.01679 0.51965 0.04708 0.0
O628 O 0.03737 0.54896 0.04649 0.0
O629 O 0.00739 0.55174 0.03421 0.0
C630 C 0.01137 0.48244 0.00627 0.0
C631 C 0.02352 0.55927 0.04425 0.0
H632 H 0.01832 0.19486 0.89326 0.0
H633 H 0.02078 0.1692 0.91466 0.0
H634 H 0.00624 0.20696 0.96184 0.0
H635 H 0.00395 0.23285 0.94053 0.0
H636 H 0.03726 0.18851 0.97046 0.0
H637 H 0.97601 0.13459 0.93655 0.0
H638 H 0.99309 0.14337 0.91998 0.0
H639 H 0.98014 0.16035 0.93215 0.0
C640 C 0.01559 0.19769 0.90818 0.0
C641 C 0.01083 0.2158 0.91522 0.0
C642 C 0.01693 0.18299 0.92036 0.0
C643 C 0.01341 0.1861 0.93975 0.0
C644 C 0.00891 0.20426 0.94689 0.0
H645 H 0.9965 0.08794 0.01049 0.0
H646 H 0.99337 0.11818 0.99594 0.0
C647 C 0.00757 0.21899 0.9347 0.0
C648 C 0.01461 0.17038 0.95254 0.0
H649 H 0.99651 0.12233 0.95829 0.0
C650 C 0.02826 0.17408 0.96794 0.0
C651 C 0.00264 0.15171 0.94938 0.0
C652 C 0.98701 0.14727 0.93374 0.0
C653 C 0.03069 0.1593 0.97988 0.0
C654 C 0.01935 0.14031 0.97609 0.0
C655 C 0.00529 0.13686 0.96109 0.0
C656 C 0.02211 0.12352 0.98703 0.0
C657 C 0.04531 0.16418 0.99644 0.0
C658 C 0.03941 0.11664 0.98711 0.0
C659 C 0.04129 0.09939 0.9955 0.0
C660 C 0.02581 0.08856 0.00374 0.0
C661 C 0.00869 0.09585 0.00419 0.0
C662 C 0.00686 0.11315 0.99589 0.0
H663 H 0.04852 0.18034 0.00084 0.0
H664 H 0.0405 0.15635 0.00896 0.0
H665 H 0.05864 0.15947 0.99208 0.0
H666 H 0.05125 0.12416 0.97999 0.0
H667 H 0.05464 0.09413 0.9948 0.0
H668 H 0.10131 0.78913 0.16667 0.0
H669 H 0.13 0.79296 0.18764 0.0
H670 H 0.1052 0.8284 0.22977 0.0
H671 H 0.07618 0.82414 0.20905 0.0
H672 H 0.15535 0.82494 0.20349 0.0
H673 H 0.11831 0.7849 0.26019 0.0
H674 H 0.10725 0.78531 0.23676 0.0
H675 H 0.10912 0.80636 0.25419 0.0
C676 C 0.102 0.79784 0.18035 0.0
C677 C 0.08644 0.80616 0.18633 0.0
C678 C 0.11841 0.80004 0.1923 0.0
C679 C 0.11959 0.81065 0.21041 0.0
C680 C 0.10441 0.81976 0.21605 0.0
H681 H 0.21383 0.81883 0.29746 0.0
H682 H 0.18628 0.82715 0.27991 0.0
C683 C 0.0879 0.81741 0.20416 0.0
C684 C 0.13651 0.81143 0.22349 0.0
H685 H 0.15107 0.79622 0.26572 0.0
C686 C 0.15439 0.81886 0.21719 0.0
C687 C 0.13523 0.80343 0.24136 0.0
C688 C 0.11649 0.79439 0.24851 0.0
C689 C 0.17105 0.81798 0.22801 0.0
C690 C 0.16973 0.8095 0.24556 0.0
C691 C 0.15191 0.80285 0.25229 0.0
C692 C 0.18663 0.80526 0.25599 0.0
C693 C 0.18996 0.82552 0.22037 0.0
C694 C 0.1956 0.79006 0.2484 0.0
C695 C 0.21099 0.78512 0.25845 0.0
C696 C 0.21786 0.79547 0.27615 0.0
C697 C 0.20886 0.81071 0.28378 0.0
C698 C 0.19322 0.8155 0.2738 0.0
H699 H 0.18868 0.83584 0.20929 0.0
H700 H 0.2002 0.83318 0.23206 0.0
H701 H 0.19576 0.81279 0.21376 0.0
H702 H 0.19048 0.7818 0.23482 0.0
H703 H 0.21743 0.77306 0.25239 0.0
H704 H 0.53174 0.80919 0.43455 0.0
H705 H 0.53152 0.84015 0.45451 0.0
H706 H 0.47953 0.84671 0.42469 0.0
H707 H 0.47952 0.81574 0.40489 0.0
H708 H 0.53207 0.87754 0.44196 0.0
H709 H 0.46754 0.85478 0.48085 0.0
H710 H 0.47947 0.83716 0.46799 0.0
H711 H 0.46397 0.85017 0.45532 0.0
C712 C 0.52021 0.81718 0.43235 0.0
C713 C 0.50563 0.81005 0.41821 0.0
C714 C 0.52009 0.83482 0.44375 0.0
C715 C 0.50534 0.84552 0.44127 0.0
C716 C 0.49081 0.83844 0.42713 0.0
H717 H 0.48251 0.95984 0.48515 0.0
H718 H 0.48119 0.92662 0.46903 0.0
C719 C 0.4909 0.82082 0.41574 0.0
C720 C 0.50565 0.86463 0.45277 0.0
H721 H 0.48033 0.88925 0.48366 0.0
C722 C 0.52085 0.88007 0.45121 0.0
C723 C 0.49093 0.86787 0.46473 0.0
C724 C 0.47463 0.85158 0.4675 0.0
C725 C 0.52153 0.89884 0.46097 0.0
C726 C 0.50676 0.90211 0.47286 0.0
C727 C 0.4916 0.88666 0.47451 0.0
C728 C 0.50684 0.92158 0.4836 0.0
C729 C 0.53779 0.91514 0.45806 0.0
C730 C 0.5214 0.92945 0.49749 0.0
C731 C 0.52224 0.9484 0.50667 0.0
C732 C 0.50843 0.95978 0.50222 0.0
C733 C 0.4934 0.9515 0.48887 0.0
C734 C 0.49261 0.93253 0.47964 0.0
H735 H 0.54525 0.91163 0.44503 0.0
H736 H 0.53277 0.92939 0.45688 0.0
H737 H 0.54818 0.91713 0.47052 0.0
H738 H 0.53228 0.92103 0.50104 0.0
H739 H 0.53389 0.9542 0.51704 0.0
H740 H 0.50777 0.30184 0.71493 0.0
H741 H 0.48027 0.30154 0.73444 0.0
H742 H 0.44309 0.27863 0.68475 0.0
H743 H 0.47043 0.27859 0.66528 0.0
H744 H 0.4501 0.32138 0.73045 0.0
H745 H 0.42498 0.24036 0.72376 0.0
H746 H 0.44827 0.2513 0.71741 0.0
H747 H 0.42803 0.25002 0.70103 0.0
C748 C 0.49373 0.2966 0.70822 0.0
C749 C 0.49124 0.29012 0.68861 0.0
C750 C 0.47805 0.29647 0.71936 0.0
C751 C 0.45967 0.28977 0.7111 0.0
C752 C 0.45717 0.28344 0.6915 0.0
H753 H 0.35092 0.31119 0.74281 0.0
H754 H 0.38295 0.31324 0.73176 0.0
C755 C 0.47281 0.28353 0.68038 0.0
C756 C 0.44299 0.28993 0.72274 0.0
H757 H 0.40289 0.26054 0.73482 0.0
C758 C 0.43987 0.30805 0.73162 0.0
C759 C 0.42985 0.27249 0.72452 0.0
C760 C 0.43302 0.25241 0.71634 0.0
C761 C 0.4235 0.30931 0.74153 0.0
C762 C 0.40978 0.29205 0.74228 0.0
C763 C 0.41333 0.27381 0.7341 0.0
C764 C 0.39123 0.29258 0.75059 0.0
C765 C 0.42105 0.32911 0.75107 0.0
C766 C 0.3852 0.28023 0.76479 0.0
C767 C 0.36682 0.2789 0.77098 0.0
C768 C 0.35419 0.28984 0.763 0.0
C769 C 0.36043 0.3027 0.74928 0.0
C770 C 0.37877 0.30397 0.74304 0.0
H771 H 0.43493 0.33902 0.75454 0.0
H772 H 0.41264 0.33641 0.74118 0.0
H773 H 0.41348 0.32744 0.76441 0.0
H774 H 0.39455 0.27124 0.77073 0.0
H775 H 0.36233 0.26884 0.78155 0.0
H776 H 0.98501 0.80443 0.57959 0.0
H777 H 0.98888 0.83312 0.56104 0.0
H778 H 0.03229 0.86417 0.60247 0.0
H779 H 0.0287 0.83541 0.62095 0.0
H780 H 0.98371 0.87097 0.5727 0.0
H781 H 0.05741 0.87142 0.55207 0.0
H782 H 0.04344 0.8504 0.56139 0.0
H783 H 0.05485 0.87132 0.57732 0.0
C784 C 0.99547 0.81733 0.58468 0.0
C785 C 0.0066 0.81767 0.60169 0.0
C786 C 0.99766 0.83369 0.57407 0.0
C787 C 0.01108 0.85064 0.5802 0.0
C788 C 0.02216 0.85106 0.59723 0.0
H789 H 0.03964 0.96966 0.55137 0.0
H790 H 0.03775 0.9375 0.56382 0.0
C791 C 0.02 0.83469 0.60785 0.0
C792 C 0.01283 0.86824 0.5693 0.0
H793 H 0.04433 0.90027 0.54698 0.0
C794 C 0.9969 0.87726 0.56688 0.0
C795 C 0.03005 0.87638 0.56171 0.0
C796 C 0.04737 0.86679 0.56307 0.0
C797 C 0.9979 0.89463 0.55767 0.0
C798 C 0.01523 0.90299 0.55042 0.0
C799 C 0.03107 0.89378 0.55253 0.0
C800 C 0.01743 0.92195 0.54167 0.0
C801 C 0.98061 0.90431 0.5564 0.0
C802 C 0.00702 0.92373 0.52475 0.0
C803 C 0.00804 0.94215 0.51755 0.0
C804 C 0.01951 0.95907 0.52717 0.0
C805 C 0.03054 0.95699 0.54365 0.0
C806 C 0.02953 0.93861 0.5508 0.0
H807 H 0.96966 0.89825 0.56602 0.0
H808 H 0.98449 0.92055 0.56011 0.0
H809 H 0.97428 0.9017 0.54153 0.0
H810 H 0.99782 0.91095 0.51733 0.0
H811 H -0.00059 0.94321 0.50479 0.0
H812 H 0.49515 0.81296 0.86723 0.0
H813 H 0.46579 0.82106 0.8537 0.0
H814 H 0.44035 0.75922 0.84862 0.0
H815 H 0.46936 0.75121 0.86305 0.0
H816 H 0.44699 0.81216 0.82109 0.0
H817 H 0.40061 0.78193 0.87589 0.0
H818 H 0.42603 0.78456 0.87853 0.0
H819 H 0.41215 0.76318 0.86486 0.0
C820 C 0.48327 0.8011 0.86321 0.0
C821 C 0.48444 0.78147 0.8663 0.0
C822 C 0.46649 0.80575 0.85552 0.0
C823 C 0.45065 0.79083 0.85059 0.0
C824 C 0.45211 0.77109 0.85295 0.0
H825 H 0.35821 0.79152 0.77047 0.0
H826 H 0.38881 0.79231 0.78711 0.0
C827 C 0.46876 0.76649 0.861 0.0
C828 C 0.43276 0.79583 0.84262 0.0
H829 H 0.38491 0.78742 0.84646 0.0
C830 C 0.43344 0.80696 0.8268 0.0
C831 C 0.4151 0.7896 0.85037 0.0
C832 C 0.41345 0.77937 0.86848 0.0
C833 C 0.41689 0.81121 0.81798 0.0
C834 C 0.39909 0.80345 0.82471 0.0
C835 C 0.39849 0.79314 0.84108 0.0
C836 C 0.3809 0.80467 0.81434 0.0
C837 C 0.41875 0.82407 0.80165 0.0
C838 C 0.36598 0.81089 0.82416 0.0
C839 C 0.34822 0.80993 0.81473 0.0
C840 C 0.34519 0.80291 0.79531 0.0
C841 C 0.36023 0.79724 0.7854 0.0
C842 C 0.37782 0.79786 0.79487 0.0
H843 H 0.43235 0.83472 0.80323 0.0
H844 H 0.41872 0.81461 0.78804 0.0
H845 H 0.40696 0.83252 0.80066 0.0
H846 H 0.36796 0.81608 0.83922 0.0
H847 H 0.33679 0.8143 0.82269 0.0
H848 H 0.49117 0.19953 0.11912 0.0
H849 H 0.48838 0.16972 0.09683 0.0
H850 H 0.48611 0.20481 0.04925 0.0
H851 H 0.48904 0.23478 0.07146 0.0
H852 H 0.46049 0.15287 0.06585 0.0
H853 H 0.53284 0.17722 0.04155 0.0
H854 H 0.52461 0.18838 0.06304 0.0
H855 H 0.51666 0.19433 0.04007 0.0
C856 C 0.48985 0.20088 0.10392 0.0
C857 C 0.4905 0.21948 0.09701 0.0
C858 C 0.48823 0.18385 0.09122 0.0
C859 C 0.48732 0.18517 0.07144 0.0
C860 C 0.48707 0.20358 0.06449 0.0
H861 H 0.50022 0.09378 0.98092 0.0
H862 H 0.49457 0.12475 0.99781 0.0
C863 C 0.48867 0.22064 0.07718 0.0
C864 C 0.48774 0.16739 0.05822 0.0
H865 H 0.51619 0.14642 0.02801 0.0
C866 C 0.47258 0.15147 0.05745 0.0
C867 C 0.50354 0.16571 0.04729 0.0
C868 C 0.52044 0.18222 0.04804 0.0
C869 C 0.4729 0.13373 0.04613 0.0
C870 C 0.48898 0.13182 0.03567 0.0
C871 C 0.50389 0.14796 0.03604 0.0
C872 C 0.4912 0.11287 0.02517 0.0
C873 C 0.45601 0.11724 0.04546 0.0
C874 C 0.49127 0.09602 0.03499 0.0
C875 C 0.49444 0.07841 0.02537 0.0
C876 C 0.49787 0.07743 0.00588 0.0
C877 C 0.49766 0.09422 0.99599 0.0
C878 C 0.49444 0.11186 0.0056 0.0
H879 H 0.44293 0.12302 0.04902 0.0
H880 H 0.4536 0.10876 0.03114 0.0
H881 H 0.45857 0.10694 0.05616 0.0
H882 H 0.48917 0.09656 0.05016 0.0
H883 H 0.4941 0.06554 0.03316 0.0
H884 H 0.1022 0.26804 0.38777 0.0
H885 H 0.12815 0.2655 0.36686 0.0
H886 H 0.08903 0.25863 0.31741 0.0
H887 H 0.06287 0.2605 0.33832 0.0
H888 H 0.11366 0.23362 0.31331 0.0
H889 H 0.15295 0.30879 0.33682 0.0
H890 H 0.14875 0.29409 0.3565 0.0
H891 H 0.12903 0.30042 0.34315 0.0
C892 C 0.09913 0.26594 0.37245 0.0
C893 C 0.08055 0.26461 0.36466 0.0
C894 C 0.11398 0.26464 0.3605 0.0
C895 C 0.11061 0.26237 0.34055 0.0
C896 C 0.09198 0.26054 0.33276 0.0
H897 H 0.2068 0.28488 0.26909 0.0
H898 H 0.17624 0.28552 0.28295 0.0
C899 C 0.07706 0.26162 0.34472 0.0
C900 C 0.12654 0.26186 0.32787 0.0
H901 H 0.17003 0.28709 0.31921 0.0
C902 C 0.12592 0.24539 0.31446 0.0
C903 C 0.14233 0.27743 0.32904 0.0
C904 C 0.14324 0.29627 0.34201 0.0
C905 C 0.14098 0.24374 0.30268 0.0
C906 C 0.15732 0.25871 0.30477 0.0
C907 C 0.15761 0.27549 0.31772 0.0
C908 C 0.17458 0.2571 0.29428 0.0
C909 C 0.13912 0.22605 0.28804 0.0
C910 C 0.18371 0.24079 0.29576 0.0
C911 C 0.20104 0.24026 0.28761 0.0
C912 C 0.20979 0.25624 0.27817 0.0
C913 C 0.20044 0.27236 0.27632 0.0
C914 C 0.18298 0.27275 0.28424 0.0
H915 H 0.12402 0.22006 0.28366 0.0
H916 H 0.14673 0.22982 0.2751 0.0
H917 H 0.1452 0.21415 0.29438 0.0
H918 H 0.17784 0.2288 0.30388 0.0
H919 H 0.20797 0.22773 0.2895 0.0
H920 H 0.90981 0.02749 0.17925 0.0
H921 H 0.93036 0.0306 0.15253 0.0
H922 H 0.9662 0.08094 0.18388 0.0
H923 H 0.94596 0.0775 0.21098 0.0
H924 H 0.93992 0.06024 0.1302 0.0
H925 H 0.00429 0.04623 0.16969 0.0
H926 H 0.98123 0.04214 0.1793 0.0
H927 H 0.99465 0.06679 0.18008 0.0
C928 C 0.92207 0.03922 0.18047 0.0
C929 C 0.92637 0.05216 0.19726 0.0
C930 C 0.93379 0.04101 0.16517 0.0
C931 C 0.95001 0.05579 0.16631 0.0
C932 C 0.95404 0.06911 0.18286 0.0
H933 H 0.0354 0.07517 0.08065 0.0
H934 H 0.01623 0.08056 0.10812 0.0
C935 C 0.9424 0.06721 0.19828 0.0
C936 C 0.9626 0.05702 0.15011 0.0
H937 H 0.00742 0.05331 0.13767 0.0
C938 C 0.9547 0.05883 0.13187 0.0
C939 C 0.98191 0.05519 0.1523 0.0
C940 C 0.99102 0.0523 0.17134 0.0
C941 C 0.96548 0.05851 0.11572 0.0
C942 C 0.98462 0.05626 0.11788 0.0
C943 C 0.99273 0.05512 0.13615 0.0
C944 C 0.99602 0.05346 0.10116 0.0
C945 C 0.95624 0.0603 0.09642 0.0
C946 C 0.99113 0.03632 0.08843 0.0
C947 C 0.0021 0.03313 0.07297 0.0
C948 C 0.01809 0.04711 0.06986 0.0
C949 C 0.02308 0.06423 0.08268 0.0
C950 C 0.01215 0.06733 0.09831 0.0
H951 H 0.94333 0.06707 0.09775 0.0
H952 H 0.96622 0.06929 0.08764 0.0
H953 H 0.952 0.04532 0.08872 0.0
H954 H 0.97894 0.02526 0.09061 0.0
H955 H 0.99808 0.01965 0.06349 0.0
H956 H 0.28941 0.65207 0.46439 0.0
H957 H 0.28846 0.67362 0.4386 0.0
H958 H 0.26246 0.71356 0.47509 0.0
H959 H 0.26338 0.69216 0.50097 0.0
H960 H 0.25494 0.68573 0.42235 0.0
H961 H 0.30922 0.74893 0.45463 0.0
H962 H 0.30718 0.72438 0.46235 0.0
H963 H 0.29061 0.73993 0.46962 0.0
C964 C 0.28352 0.66545 0.46692 0.0
C965 C 0.2765 0.67048 0.48466 0.0
C966 C 0.283 0.67772 0.45221 0.0
C967 C 0.27562 0.69524 0.45511 0.0
C968 C 0.26848 0.70023 0.47274 0.0
H969 H 0.24241 0.76483 0.36651 0.0
H970 H 0.24412 0.74826 0.39581 0.0
C971 C 0.26891 0.68794 0.48743 0.0
C972 C 0.27493 0.70801 0.43944 0.0
H973 H 0.29315 0.75331 0.42562 0.0
C974 C 0.26325 0.70052 0.42304 0.0
C975 C 0.28591 0.72721 0.44047 0.0
C976 C 0.29907 0.73563 0.45763 0.0
C977 C 0.26219 0.71181 0.40756 0.0
C978 C 0.27301 0.73109 0.40865 0.0
C979 C 0.28477 0.73857 0.425 0.0
C980 C 0.27278 0.74327 0.39249 0.0
C981 C 0.2498 0.70293 0.38998 0.0
C982 C 0.28859 0.74649 0.38143 0.0
C983 C 0.28766 0.7559 0.36474 0.0
C984 C 0.27092 0.76228 0.359 0.0
C985 C 0.25545 0.75998 0.37063 0.0
C986 C 0.25638 0.7505 0.38729 0.0
H987 H 0.24498 0.68674 0.39014 0.0
H988 H 0.2371 0.71007 0.38924 0.0
H989 H 0.25749 0.70562 0.37685 0.0
H990 H 0.30137 0.74099 0.38531 0.0
H991 H 0.29978 0.75755 0.356 0.0
H992 H 0.62178 0.0082 0.68449 0.0
H993 H 0.60121 0.00048 0.6553 0.0
H994 H 0.57273 0.94733 0.67694 0.0
H995 H 0.5932 0.95509 0.70643 0.0
H996 H 0.5929 0.96665 0.62762 0.0
H997 H 0.53041 0.97996 0.66807 0.0
H998 H 0.55431 0.98727 0.67839 0.0
H999 H 0.54345 0.96164 0.67563 0.0
C1000 C 0.61132 0.99473 0.68295 0.0
C1001 C 0.60894 0.98236 0.6978 0.0
C1002 C 0.59961 0.99031 0.66625 0.0
C1003 C 0.58532 0.97349 0.66412 0.0
C1004 C 0.58353 0.96052 0.67847 0.0
H1005 H 0.49767 0.97051 0.57068 0.0
H1006 H 0.51496 0.95689 0.59593 0.0
C1007 C 0.59527 0.96494 0.69524 0.0
C1008 C 0.57157 0.9707 0.64745 0.0
H1009 H 0.52703 0.97791 0.63471 0.0
C1010 C 0.57835 0.9686 0.62913 0.0
C1011 C 0.55256 0.97316 0.64951 0.0
C1012 C 0.54466 0.97574 0.66891 0.0
C1013 C 0.567 0.97027 0.61285 0.0
C1014 C 0.54856 0.97436 0.61506 0.0
C1015 C 0.54122 0.97479 0.63318 0.0
C1016 C 0.53815 0.98175 0.5995 0.0
C1017 C 0.57523 0.96887 0.59353 0.0
C1018 C 0.54529 0.00038 0.59369 0.0
C1019 C 0.53536 0.00827 0.57972 0.0
C1020 C 0.51826 0.99755 0.5711 0.0
C1021 C 0.51091 0.97899 0.57709 0.0
C1022 C 0.52078 0.97117 0.59135 0.0
H1023 H 0.58635 0.95947 0.59328 0.0
H1024 H 0.56411 0.96279 0.58206 0.0
H1025 H 0.58188 0.9839 0.59043 0.0
H1026 H 0.55845 0.00896 0.60019 0.0
H1027 H 0.54106 0.02283 0.57573 0.0
H1028 H 0.26344 0.33374 0.99073 0.0
H1029 H 0.26578 0.31833 0.95836 0.0
H1030 H 0.26508 0.37445 0.93584 0.0
H1031 H 0.26222 0.38975 0.96798 0.0
H1032 H 0.2421 0.34516 0.91455 0.0
H1033 H 0.31204 0.32323 0.92727 0.0
H1034 H 0.29467 0.31336 0.94309 0.0
H1035 H 0.30261 0.33968 0.94417 0.0
C1036 C 0.26377 0.34276 0.97885 0.0
C1037 C 0.26269 0.36296 0.98189 0.0
C1038 C 0.26527 0.33398 0.96039 0.0
C1039 C 0.26598 0.34532 0.9447 0.0
C1040 C 0.26465 0.36543 0.94772 0.0
H1041 H 0.30175 0.31512 0.83105 0.0
H1042 H 0.29942 0.32854 0.86409 0.0
C1043 C 0.26301 0.37415 0.96611 0.0
C1044 C 0.26768 0.33628 0.92502 0.0
H1045 H 0.29557 0.3114 0.89735 0.0
C1046 C 0.25381 0.3378 0.91079 0.0
C1047 C 0.28311 0.32693 0.92005 0.0
C1048 C 0.29906 0.32584 0.93439 0.0
C1049 C 0.25487 0.33016 0.89179 0.0
C1050 C 0.26995 0.32023 0.88694 0.0
C1051 C 0.28392 0.31883 0.90112 0.0
C1052 C 0.27163 0.31148 0.86715 0.0
C1053 C 0.24006 0.33329 0.87701 0.0
C1054 C 0.25699 0.29712 0.85803 0.0
C1055 C 0.2582 0.28958 0.83912 0.0
C1056 C 0.27423 0.29601 0.82901 0.0
C1057 C 0.28919 0.30988 0.8384 0.0
C1058 C 0.28789 0.31756 0.85729 0.0
H1059 H 0.23298 0.34584 0.88181 0.0
H1060 H 0.24635 0.33623 0.86319 0.0
H1061 H 0.22903 0.31978 0.87459 0.0
H1062 H 0.24455 0.29179 0.86551 0.0
H1063 H 0.24652 0.27871 0.83243 0.0
H1064 H 0.89496 0.03941 0.31267 0.0
H1065 H 0.90889 0.03112 0.34262 0.0
H1066 H 0.95832 0.01982 0.31387 0.0
H1067 H 0.94462 0.02841 0.28392 0.0
H1068 H 0.91961 0.99562 0.3504 0.0
H1069 H 0.98117 0.05728 0.36029 0.0
H1070 H 0.96138 0.05716 0.34353 0.0
H1071 H 0.97935 0.0428 0.33758 0.0
C1072 C 0.90888 0.03535 0.31277 0.0
C1073 C 0.91876 0.03468 0.29598 0.0
C1074 C 0.91678 0.03055 0.32987 0.0
C1075 C 0.93472 0.02507 0.33052 0.0
C1076 C 0.94462 0.02438 0.31377 0.0
H1077 H 0.00478 0.99366 0.42315 0.0
H1078 H 0.99064 0.99714 0.39157 0.0
C1079 C 0.93675 0.02923 0.29667 0.0
C1080 C 0.94283 0.01963 0.34864 0.0
H1081 H 0.98019 0.03251 0.38166 0.0
C1082 C 0.93284 0.00369 0.35726 0.0
C1083 C 0.96012 0.03016 0.35753 0.0
C1084 C 0.97108 0.04791 0.34939 0.0
C1085 C 0.93975 0.99792 0.37449 0.0
C1086 C 0.95696 0.00853 0.38342 0.0
C1087 C 0.96704 0.02433 0.37471 0.0
C1088 C 0.96449 0.00407 0.40219 0.0
C1089 C 0.92868 0.98039 0.38287 0.0
C1090 C 0.95435 0.00653 0.41858 0.0
C1091 C 0.96238 0.00453 0.43661 0.0
C1092 C 0.98072 0.00012 0.43853 0.0
C1093 C 0.99058 0.99696 0.42206 0.0
C1094 C 0.98256 -0.00099 0.40403 0.0
H1095 H 0.91882 0.97075 0.37195 0.0
H1096 H 0.93832 0.97139 0.38925 0.0
H1097 H 0.92015 0.98576 0.39433 0.0
H1098 H 0.94053 0.01079 0.41752 0.0
H1099 H 0.95453 0.00718 0.44909 0.0
H1100 H 0.30743 0.69986 0.56156 0.0
H1101 H 0.31062 0.72557 0.58845 0.0
H1102 H 0.28517 0.68224 0.6246 0.0
H1103 H 0.28189 0.65649 0.59784 0.0
H1104 H 0.27871 0.73528 0.60863 0.0
H1105 H 0.33304 0.71282 0.65646 0.0
H1106 H 0.32999 0.70478 0.63119 0.0
H1107 H 0.31428 0.69292 0.64756 0.0
C1108 C 0.30281 0.69576 0.57533 0.0
C1109 C 0.29442 0.67619 0.57765 0.0
C1110 C 0.3046 0.71045 0.59062 0.0
C1111 C 0.29828 0.70572 0.60847 0.0
C1112 C 0.2904 0.68609 0.61097 0.0
H1113 H 0.26156 0.75159 0.71014 0.0
H1114 H 0.26597 0.73662 0.67826 0.0
C1115 C 0.28848 0.67142 0.59567 0.0
C1116 C 0.29849 0.72141 0.6242 0.0
H1117 H 0.31378 0.7346 0.67085 0.0
C1118 C 0.28667 0.73544 0.62212 0.0
C1119 C 0.30898 0.72157 0.64169 0.0
C1120 C 0.32244 0.70733 0.64437 0.0
C1121 C 0.28418 0.74887 0.63757 0.0
C1122 C 0.29382 0.74822 0.65532 0.0
C1123 C 0.30643 0.73497 0.65711 0.0
C1124 C 0.28931 0.75936 0.67281 0.0
C1125 C 0.27064 0.76307 0.63522 0.0
C1126 C 0.30067 0.77739 0.67989 0.0
C1127 C 0.29802 0.78614 0.69805 0.0
C1128 C 0.2842 0.77672 0.70934 0.0
C1129 C 0.27225 0.7592 0.70171 0.0
C1130 C 0.27476 0.75062 0.68355 0.0
H1131 H 0.26577 0.76321 0.62004 0.0
H1132 H 0.25809 0.75876 0.6436 0.0
H1133 H 0.2775 0.77827 0.64094 0.0
H1134 H 0.31202 0.78421 0.67172 0.0
H1135 H 0.30747 0.79961 0.70365 0.0
H1136 H 0.57216 0.99104 0.77267 0.0
H1137 H 0.54888 0.99089 0.79718 0.0
H1138 H 0.59401 0.0115 0.8405 0.0
H1139 H 0.61733 0.01168 0.81618 0.0
H1140 H 0.5479 0.96943 0.83144 0.0
H1141 H 0.55585 0.05081 0.84745 0.0
H1142 H 0.56315 0.03941 0.82555 0.0
H1143 H 0.57789 0.04179 0.84724 0.0
C1144 C 0.57709 0.9956 0.78742 0.0
C1145 C 0.59653 0.00143 0.79256 0.0
C1146 C 0.5638 0.99548 0.80135 0.0
C1147 C 0.56978 0.00141 0.82053 0.0
C1148 C 0.58916 0.00716 0.82569 0.0
H1149 H 0.53472 0.98617 0.93041 0.0
H1150 H 0.5447 0.9819 0.89779 0.0
C1151 C 0.60244 0.00717 0.81182 0.0
C1152 C 0.55593 0.00117 0.83541 0.0
H1153 H 0.54122 0.03095 0.87078 0.0
C1154 C 0.54613 0.98288 0.83987 0.0
C1155 C 0.55348 0.01877 0.8461 0.0
C1156 C 0.563 0.03885 0.84127 0.0
C1157 C 0.53484 0.98166 0.85564 0.0
C1158 C 0.53353 -0.00084 0.86719 0.0
C1159 C 0.54234 0.01754 0.86194 0.0
C1160 C 0.52497 0.99874 0.88588 0.0
C1161 C 0.52483 0.96165 0.86012 0.0
C1162 C 0.51044 0.00945 0.88992 0.0
C1163 C 0.50474 0.01194 0.90858 0.0
C1164 C 0.51371 0.00397 0.92343 0.0
C1165 C 0.5276 0.99246 0.91919 0.0
C1166 C 0.5332 0.98988 0.90055 0.0
H1167 H 0.52225 0.95095 0.84711 0.0
H1168 H 0.53383 0.95572 0.87061 0.0
H1169 H 0.51108 0.96269 0.86642 0.0
H1170 H 0.50406 0.01653 0.8788 0.0
H1171 H 0.49402 0.02092 0.91154 0.0
H1172 H 0.27763 0.37777 0.1017 0.0
H1173 H 0.27499 0.35802 0.12899 0.0
H1174 H 0.22978 0.31618 0.09825 0.0
H1175 H 0.23271 0.33562 0.07066 0.0
H1176 H 0.2457 0.34767 0.15133 0.0
H1177 H 0.26526 0.2802 0.11422 0.0
H1178 H 0.2683 0.30355 0.10398 0.0
H1179 H 0.24531 0.2881 0.10295 0.0
C1180 C 0.26716 0.36433 0.10073 0.0
C1181 C 0.25548 0.35816 0.08398 0.0
C1182 C 0.26564 0.35308 0.11635 0.0
C1183 C 0.25241 0.33544 0.11558 0.0
C1184 C 0.24041 0.32947 0.09902 0.0
H1185 H 0.23051 0.24962 0.20051 0.0
H1186 H 0.2275 0.26857 0.17287 0.0
C1187 C 0.24202 0.34065 0.0833 0.0
C1188 C 0.25122 0.32344 0.13218 0.0
H1189 H 0.25585 0.27804 0.14585 0.0
C1190 C 0.2479 0.33244 0.15011 0.0
C1191 C 0.25407 0.30354 0.13059 0.0
C1192 C 0.25861 0.2933 0.11195 0.0
C1193 C 0.24742 0.32214 0.16649 0.0
C1194 C 0.25049 0.30235 0.16492 0.0
C1195 C 0.25342 0.29319 0.14696 0.0
C1196 C 0.25178 0.29125 0.18191 0.0
C1197 C 0.24363 0.33248 0.18537 0.0
C1198 C 0.26654 0.29763 0.19598 0.0
C1199 C 0.26835 0.2868 0.21161 0.0
C1200 C 0.25541 0.26942 0.21352 0.0
C1201 C 0.24063 0.26302 0.19943 0.0
C1202 C 0.23889 0.27381 0.18367 0.0
H1203 H 0.23674 0.34548 0.18337 0.0
H1204 H 0.23448 0.32222 0.1938 0.0
H1205 H 0.25725 0.33782 0.1938 0.0
H1206 H 0.27687 0.31082 0.19469 0.0
H1207 H 0.28005 0.29194 0.2221 0.0
H1208 H 0.23437 0.95055 0.02772 0.0
H1209 H 0.21465 0.97618 0.0304 0.0
H1210 H 0.16551 0.93289 0.00999 0.0
H1211 H 0.18512 0.9071 0.00735 0.0
H1212 H 0.19177 0.98802 0.0009 0.0
H1213 H 0.14991 0.95988 0.06029 0.0
H1214 H 0.17191 0.95211 0.05442 0.0
H1215 H 0.15034 0.94158 0.04057 0.0
C1216 C 0.21934 0.94647 0.02388 0.0
C1217 C 0.21123 0.92682 0.0174 0.0
C1218 C 0.20814 0.96113 0.02539 0.0
C1219 C 0.18864 0.95634 0.0206 0.0
C1220 C 0.18051 0.93677 0.01404 0.0
H1221 H 0.10217 0.01819 0.98954 0.0
H1222 H 0.13054 0.00315 0.99054 0.0
C1223 C 0.19172 0.92209 0.01248 0.0
C1224 C 0.17681 0.97187 0.0221 0.0
H1225 H 0.13818 0.98419 0.04336 0.0
C1226 C 0.18018 0.98737 0.01033 0.0
C1227 C 0.16196 0.97113 0.03468 0.0
C1228 C 0.15838 0.95539 0.04836 0.0
C1229 C 0.16842 0.00166 0.01015 0.0
C1230 C 0.15287 0.00021 0.02189 0.0
C1231 C 0.15009 0.98524 0.03432 0.0
C1232 C 0.13825 0.01279 0.02041 0.0
C1233 C 0.1726 0.01801 0.99723 0.0
C1234 C 0.13338 0.02354 0.03677 0.0
C1235 C 0.1171 0.03208 0.03624 0.0
C1236 C 0.10541 0.0298 0.01938 0.0
C1237 C 0.11099 0.0202 0.0027 0.0
C1238 C 0.12726 0.01169 0.00323 0.0
H1239 H 0.18781 0.02083 0.9941 0.0
H1240 H 0.16418 0.01359 0.98346 0.0
H1241 H 0.16877 0.03197 0.00369 0.0
H1242 H 0.14165 0.02445 0.05017 0.0
H1243 H 0.11306 0.03939 0.04929 0.0
H1244 H 0.70907 0.63168 0.02498 0.0
H1245 H 0.67755 0.6114 0.02402 0.0
H1246 H 0.69266 0.57199 0.97852 0.0
H1247 H 0.72443 0.59222 0.97946 0.0
H1248 H 0.65112 0.60279 0.99184 0.0
H1249 H 0.67037 0.5346 0.01821 0.0
H1250 H 0.6862 0.55819 0.02144 0.0
H1251 H 0.68304 0.54402 0.99852 0.0
C1252 C 0.70574 0.61865 0.01481 0.0
C1253 C 0.71922 0.61352 0.0023 0.0
C1254 C 0.68773 0.60709 0.01429 0.0
C1255 C 0.68286 0.5901 0.00136 0.0
C1256 C 0.69626 0.58488 0.98882 0.0
H1257 H 0.57463 0.50879 0.98047 0.0
H1258 H 0.60805 0.52436 0.98026 0.0
C1259 C 0.71434 0.5965 0.9893 0.0
C1260 C 0.66346 0.57842 0.00063 0.0
H1261 H 0.63807 0.53382 0.0095 0.0
C1262 C 0.64826 0.5877 0.99567 0.0
C1263 C 0.65982 0.5587 0.00551 0.0
C1264 C 0.67566 0.54825 0.01136 0.0
C1265 C 0.62948 0.57784 0.99556 0.0
C1266 C 0.62579 0.55831 0.00095 0.0
C1267 C 0.64098 0.54883 0.00549 0.0
C1268 C 0.60617 0.54777 0.00231 0.0
C1269 C 0.61374 0.58838 0.98954 0.0
C1270 C 0.5943 0.5554 0.01524 0.0
C1271 C 0.57529 0.54661 0.01533 0.0
C1272 C 0.56787 0.52993 0.00262 0.0
C1273 C 0.57999 0.52168 0.99037 0.0
C1274 C 0.59905 0.53054 0.99024 0.0
H1275 H 0.61896 0.60084 0.98104 0.0
H1276 H 0.60225 0.57804 0.98093 0.0
H1277 H 0.60763 0.59455 0.00247 0.0
H1278 H 0.59964 0.56846 0.02494 0.0
H1279 H 0.56628 0.55324 0.02499 0.0
H1280 H 0.66078 0.44956 0.29057 0.0
H1281 H 0.68022 0.42364 0.2884 0.0
H1282 H 0.7285 0.4665 0.27664 0.0
H1283 H 0.70911 0.49251 0.27865 0.0
H1284 H 0.72276 0.43162 0.25165 0.0
H1285 H 0.72182 0.41531 0.32743 0.0
H1286 H 0.6987 0.41455 0.31625 0.0
H1287 H 0.71519 0.43754 0.3195 0.0
C1288 C 0.67555 0.45348 0.2876 0.0
C1289 C 0.68344 0.47307 0.28484 0.0
C1290 C 0.68666 0.43869 0.28648 0.0
C1291 C 0.70586 0.44323 0.28264 0.0
C1292 C 0.71374 0.46274 0.27973 0.0
H1293 H 0.78163 0.35704 0.29244 0.0
H1294 H 0.76907 0.38799 0.29489 0.0
C1295 C 0.70265 0.47756 0.2809 0.0
C1296 C 0.71752 0.42745 0.28105 0.0
H1297 H 0.73266 0.39186 0.30547 0.0
C1298 C 0.72509 0.42304 0.26346 0.0
C1299 C 0.72079 0.41651 0.29657 0.0
C1300 C 0.71387 0.4213 0.31607 0.0
C1301 C 0.73521 0.4074 0.26075 0.0
C1302 C 0.73759 0.39577 0.27597 0.0
C1303 C 0.73069 0.40071 0.29378 0.0
C1304 C 0.74617 0.37772 0.27342 0.0
C1305 C 0.74316 0.40339 0.2416 0.0
C1306 C 0.73747 0.36174 0.26052 0.0
C1307 C 0.74456 0.34407 0.25909 0.0
C1308 C 0.76048 0.34197 0.27062 0.0
C1309 C 0.76941 0.35816 0.28329 0.0
C1310 C 0.76224 0.37585 0.28475 0.0
H1311 H 0.74508 0.41674 0.23362 0.0
H1312 H 0.75699 0.39838 0.24325 0.0
H1313 H 0.73316 0.39153 0.23288 0.0
H1314 H 0.72484 0.36272 0.25192 0.0
H1315 H 0.73728 0.33193 0.24921 0.0
H1316 H 0.81288 0.39465 0.52758 0.0
H1317 H 0.84456 0.41371 0.52501 0.0
H1318 H 0.82347 0.44213 0.47839 0.0
H1319 H 0.79166 0.42328 0.48101 0.0
H1320 H 0.86759 0.41546 0.49362 0.0
H1321 H 0.84909 0.48862 0.51688 0.0
H1322 H 0.83396 0.46553 0.52018 0.0
H1323 H 0.83453 0.47482 0.49711 0.0
C1324 C 0.81499 0.40493 0.51676 0.0
C1325 C 0.7998 0.40759 0.50457 0.0
C1326 C 0.83308 0.41578 0.5153 0.0
C1327 C 0.83625 0.4295 0.5017 0.0
C1328 C 0.82121 0.43186 0.4892 0.0
H1329 H 0.94752 0.48526 0.47043 0.0
H1330 H 0.91525 0.46674 0.46986 0.0
C1331 C 0.80309 0.42102 0.49065 0.0
C1332 C 0.85532 0.44136 0.50071 0.0
H1333 H 0.88012 0.48858 0.5069 0.0
C1334 C 0.87036 0.43145 0.49647 0.0
C1335 C 0.85884 0.46218 0.50468 0.0
C1336 C 0.84332 0.47346 0.51013 0.0
C1337 C 0.8889 0.44185 0.49603 0.0
C1338 C 0.89237 0.4627 0.49967 0.0
C1339 C 0.87733 0.4726 0.50396 0.0
C1340 C 0.91163 0.47445 0.49977 0.0
C1341 C 0.90469 0.4304 0.49216 0.0
C1342 C 0.92004 0.48536 0.51666 0.0
C1343 C 0.93843 0.49606 0.51704 0.0
C1344 C 0.94874 0.49609 0.50049 0.0
C1345 C 0.94007 0.48547 0.48347 0.0
C1346 C 0.92166 0.47479 0.48312 0.0
H1347 H 0.90038 0.41445 0.49405 0.0
H1348 H 0.90866 0.43162 0.47719 0.0
H1349 H 0.91742 0.4365 0.50176 0.0
H1350 H 0.91245 0.48533 0.52964 0.0
H1351 H 0.94461 0.50412 0.53038 0.0
H1352 H 0.39054 0.10334 0.28332 0.0
H1353 H 0.3646 0.12116 0.27705 0.0
H1354 H 0.33238 0.06862 0.24568 0.0
H1355 H 0.35825 0.0506 0.25201 0.0
H1356 H 0.34738 0.12679 0.24071 0.0
H1357 H 0.29694 0.08547 0.28716 0.0
H1358 H 0.32204 0.08515 0.289 0.0
H1359 H 0.30751 0.07115 0.26938 0.0
C1360 C 0.37797 0.0956 0.27503 0.0
C1361 C 0.37636 0.07558 0.26822 0.0
C1362 C 0.36319 0.10578 0.27146 0.0
C1363 C 0.34655 0.09609 0.26111 0.0
C1364 C 0.34503 0.07623 0.25393 0.0
H1365 H 0.26593 0.17172 0.22891 0.0
H1366 H 0.28171 0.1428 0.22691 0.0
C1367 C 0.35984 0.06602 0.25748 0.0
C1368 C 0.33086 0.10699 0.25805 0.0
H1369 H 0.28708 0.11183 0.27275 0.0
C1370 C 0.33405 0.12338 0.24743 0.0
C1371 C 0.3136 0.10244 0.26697 0.0
C1372 C 0.30973 0.08518 0.27889 0.0
C1373 C 0.3207 0.13589 0.24609 0.0
C1374 C 0.30362 0.13165 0.25542 0.0
C1375 C 0.30012 0.11484 0.26547 0.0
C1376 C 0.29057 0.14602 0.25698 0.0
C1377 C 0.32547 0.15418 0.23565 0.0
C1378 C 0.28943 0.15658 0.27474 0.0
C1379 C 0.2804 0.17297 0.27593 0.0
C1380 C 0.27238 0.17898 0.25937 0.0
C1381 C 0.2721 0.1674 0.24187 0.0
C1382 C 0.28116 0.15097 0.24069 0.0
H1383 H 0.34047 0.15683 0.2318 0.0
H1384 H 0.31631 0.15245 0.22228 0.0
H1385 H 0.3228 0.16744 0.24454 0.0
H1386 H 0.29658 0.15292 0.28747 0.0
H1387 H 0.28071 0.18161 0.2896 0.0
H1388 H 0.33829 0.14016 0.51267 0.0
H1389 H 0.36368 0.12065 0.51327 0.0
H1390 H 0.32266 0.06701 0.50036 0.0
H1391 H 0.29717 0.08649 0.49941 0.0
H1392 H 0.36884 0.09173 0.53658 0.0
H1393 H 0.3614 0.06145 0.46028 0.0
H1394 H 0.35031 0.08178 0.46913 0.0
H1395 H 0.3401 0.05682 0.47287 0.0
C1396 C 0.33467 0.12422 0.50988 0.0
C1397 C 0.31575 0.11486 0.50592 0.0
C1398 C 0.34919 0.11309 0.51024 0.0
C1399 C 0.34509 0.09241 0.50661 0.0
C1400 C 0.32618 0.08298 0.50282 0.0
H1401 H 0.42754 0.01778 0.53494 0.0
H1402 H 0.39849 0.03181 0.5322 0.0
C1403 C 0.31163 0.09412 0.5024 0.0
C1404 C 0.36066 0.0808 0.50728 0.0
H1405 H 0.38342 0.04956 0.4803 0.0
C1406 C 0.372 0.08245 0.5243 0.0
C1407 C 0.36484 0.06886 0.49117 0.0
C1408 C 0.35365 0.0672 0.47226 0.0
C1409 C 0.38749 0.07259 0.52565 0.0
C1410 C 0.39152 0.06043 0.50963 0.0
C1411 C 0.38016 0.05872 0.49261 0.0
C1412 C 0.40814 0.0503 0.51001 0.0
C1413 C 0.39976 0.0758 0.54402 0.0
C1414 C 0.42282 0.05539 0.49786 0.0
C1415 C 0.43933 0.04728 0.49929 0.0
C1416 C 0.44139 0.03391 0.51286 0.0
C1417 C 0.42634 0.02814 0.52442 0.0
C1418 C 0.40981 0.03622 0.52295 0.0
H1419 H 0.39737 0.08899 0.55324 0.0
H1420 H 0.39633 0.06268 0.55214 0.0
H1421 H 0.41499 0.0777 0.54107 0.0
H1422 H 0.42178 0.06616 0.48771 0.0
H1423 H 0.4507 0.05195 0.49017 0.0
H1424 H 0.70269 0.57049 0.31185 0.0
H1425 H 0.72023 0.60443 0.31317 0.0
H1426 H 0.6757 0.62029 0.27773 0.0
H1427 H 0.65794 0.58664 0.27675 0.0
H1428 H 0.73382 0.62364 0.28347 0.0
H1429 H 0.68384 0.66525 0.31962 0.0
H1430 H 0.6816 0.63872 0.31923 0.0
H1431 H 0.6728 0.64959 0.29907 0.0
C1432 C 0.69655 0.5813 0.30457 0.0
C1433 C 0.67893 0.57596 0.29426 0.0
C1434 C 0.70657 0.60066 0.30532 0.0
C1435 C 0.69912 0.61498 0.29583 0.0
C1436 C 0.68148 0.60965 0.28561 0.0
H1437 H 0.73923 0.72893 0.25864 0.0
H1438 H 0.72184 0.69656 0.26496 0.0
C1439 C 0.67142 0.59037 0.28494 0.0
C1440 C 0.71031 0.63508 0.29541 0.0
H1441 H 0.70799 0.68423 0.30289 0.0
C1442 C 0.7283 0.63689 0.28799 0.0
C1443 C 0.70307 0.65235 0.30131 0.0
C1444 C 0.68435 0.65141 0.31043 0.0
C1445 C 0.73893 0.6555 0.28563 0.0
C1446 C 0.73139 0.67268 0.29094 0.0
C1447 C 0.71363 0.67095 0.29875 0.0
C1448 C 0.74153 0.69256 0.28784 0.0
C1449 C 0.75786 0.65669 0.2769 0.0
C1450 C 0.75817 0.70103 0.29882 0.0
C1451 C 0.76804 0.71956 0.29534 0.0
C1452 C 0.76139 0.72982 0.28081 0.0
C1453 C 0.74459 0.72138 0.26999 0.0
C1454 C 0.73468 0.70292 0.27356 0.0
H1455 H 0.76041 0.64195 0.27099 0.0
H1456 H 0.75882 0.66669 0.2653 0.0
H1457 H 0.7693 0.66293 0.28799 0.0
H1458 H 0.76356 0.69325 0.30999 0.0
H1459 H 0.78093 0.72578 0.30391 0.0
H1460 H 0.90757 0.47391 0.76788 0.0
H1461 H 0.88729 0.44172 0.76948 0.0
H1462 H 0.86064 0.46597 0.81762 0.0
H1463 H 0.88067 0.49821 0.81599 0.0
H1464 H 0.8812 0.41655 0.79947 0.0
H1465 H 0.81648 0.44506 0.77747 0.0
H1466 H 0.84005 0.45843 0.77513 0.0
H1467 H 0.82989 0.4587 0.79802 0.0
C1468 C 0.89754 0.47231 0.77893 0.0
C1469 C 0.89556 0.48858 0.7917 0.0
C1470 C 0.88598 0.45394 0.77982 0.0
C1471 C 0.87228 0.45162 0.79345 0.0
C1472 C 0.87091 0.4676 0.80678 0.0
H1473 H 0.80486 0.34042 0.8191 0.0
H1474 H 0.82635 0.37221 0.82107 0.0
C1475 C 0.88242 0.48596 0.80588 0.0
C1476 C 0.85892 0.43272 0.79322 0.0
H1477 H 0.8121 0.41223 0.78603 0.0
C1478 C 0.86608 0.41556 0.79656 0.0
C1479 C 0.83926 0.43152 0.78916 0.0
C1480 C 0.83092 0.44935 0.78457 0.0
C1481 C 0.85404 0.39717 0.79612 0.0
C1482 C 0.83433 0.39606 0.79247 0.0
C1483 C 0.8272 0.41321 0.789 0.0
C1484 C 0.82091 0.37711 0.79154 0.0
C1485 C 0.86254 0.37903 0.7991 0.0
C1486 C 0.8103 0.36969 0.77446 0.0
C1487 C 0.79789 0.35161 0.77329 0.0
C1488 C 0.79582 0.34064 0.78924 0.0
C1489 C 0.80616 0.34839 0.8065 0.0
C1490 C 0.81856 0.3665 0.80764 0.0
H1491 H 0.87802 0.38161 0.79723 0.0
H1492 H 0.86026 0.37501 0.81386 0.0
H1493 H 0.85566 0.36626 0.78899 0.0
H1494 H 0.81185 0.37776 0.76191 0.0
H1495 H 0.79013 0.34614 0.75979 0.0
H1496 H 0.03059 0.8597 0.142 0.0
H1497 H 0.02992 0.88655 0.12163 0.0
H1498 H 0.04559 0.85019 0.07398 0.0
H1499 H 0.04598 0.82307 0.09424 0.0
H1500 H 0.05844 0.90625 0.10165 0.0
H1501 H 0.99793 0.86794 0.05258 0.0
H1502 H 0.00382 0.85903 0.07506 0.0
H1503 H 0.01742 0.85488 0.05473 0.0
C1504 C 0.03392 0.85741 0.12719 0.0
C1505 C 0.03825 0.83926 0.11968 0.0
C1506 C 0.03353 0.87276 0.11558 0.0
C1507 C 0.03743 0.87025 0.09624 0.0
C1508 C 0.04217 0.85228 0.08878 0.0
H1509 H 0.05736 0.97188 0.0288 0.0
H1510 H 0.06047 0.94143 0.04306 0.0
C1511 C 0.0425 0.83687 0.10039 0.0
C1512 C 0.0366 0.88658 0.08408 0.0
H1513 H 0.01256 0.89972 0.04566 0.0
C1514 C 0.0485 0.90482 0.08934 0.0
C1515 C 0.02346 0.88467 0.06815 0.0
C1516 C 0.0098 0.86565 0.06232 0.0
C1517 C 0.04747 0.9213 0.07925 0.0
C1518 C 0.03442 0.91936 0.06323 0.0
C1519 C 0.02265 0.90107 0.05784 0.0
C1520 C 0.032 0.93652 0.0527 0.0
C1521 C 0.05986 0.94083 0.08627 0.0
C1522 C 0.01466 0.94331 0.0526 0.0
C1523 C 0.01276 0.96061 0.04431 0.0
C1524 C 0.02819 0.97144 0.03598 0.0
C1525 C 0.04526 0.96404 0.03528 0.0
C1526 C 0.04711 0.94668 0.0435 0.0
H1527 H 0.06581 0.94086 0.10113 0.0
H1528 H 0.07187 0.94367 0.0769 0.0
H1529 H 0.05179 0.95318 0.0858 0.0
H1530 H 0.0028 0.93561 0.05955 0.0
H1531 H -0.00061 0.96584 0.04506 0.0
H1532 H 0.93879 0.24103 0.87634 0.0
H1533 H 0.90696 0.24077 0.86216 0.0
H1534 H 0.93095 0.25941 0.81022 0.0
H1535 H 0.96278 0.25967 0.82425 0.0
H1536 H 0.89499 0.27487 0.84882 0.0
H1537 H 0.88769 0.21286 0.79152 0.0
H1538 H 0.90484 0.21573 0.8116 0.0
H1539 H 0.90932 0.23047 0.79191 0.0
C1540 C 0.93725 0.24477 0.86179 0.0
C1541 C 0.95325 0.25037 0.85139 0.0
C1542 C 0.91909 0.24464 0.85374 0.0
C1543 C 0.91663 0.24988 0.8351 0.0
C1544 C 0.93254 0.25499 0.82451 0.0
H1545 H 0.82815 0.27459 0.76006 0.0
H1546 H 0.85733 0.26814 0.77566 0.0
C1547 C 0.95071 0.25522 0.83258 0.0
C1548 C 0.89759 0.25152 0.82722 0.0
H1549 H 0.86514 0.2344 0.79005 0.0
C1550 C 0.88831 0.26588 0.8361 0.0
C1551 C 0.88904 0.23981 0.8106 0.0
C1552 C 0.89813 0.22372 0.80091 0.0
C1553 C 0.87098 0.26938 0.82838 0.0
C1554 C 0.86255 0.25788 0.81157 0.0
C1555 C 0.87165 0.24321 0.80293 0.0
C1556 C 0.84471 0.26141 0.80223 0.0
C1557 C 0.86226 0.28589 0.83786 0.0
C1558 C 0.82789 0.25949 0.8119 0.0
C1559 C 0.81127 0.26332 0.80304 0.0
C1560 C 0.81121 0.26895 0.78436 0.0
C1561 C 0.82789 0.27037 0.77453 0.0
C1562 C 0.84452 0.26667 0.78341 0.0
H1563 H 0.87269 0.2963 0.84768 0.0
H1564 H 0.8564 0.29438 0.82705 0.0
H1565 H 0.8505 0.27949 0.84639 0.0
H1566 H 0.8276 0.25493 0.82624 0.0
H1567 H 0.79843 0.26156 0.81065 0.0
H1568 H 0.53232 0.24509 0.59782 0.0
H1569 H 0.53057 0.21189 0.58149 0.0
H1570 H 0.53431 0.18817 0.63597 0.0
H1571 H 0.53572 0.22124 0.6524 0.0
H1572 H 0.55618 0.18626 0.58281 0.0
H1573 H 0.48736 0.15302 0.6092 0.0
H1574 H 0.49579 0.17938 0.6113 0.0
H1575 H 0.50469 0.16425 0.62788 0.0
C1576 C 0.53268 0.23278 0.60631 0.0
C1577 C 0.53403 0.23572 0.62638 0.0
C1578 C 0.53172 0.21385 0.59697 0.0
C1579 C 0.53203 0.19755 0.60753 0.0
C1580 C 0.53364 0.20049 0.62756 0.0
H1581 H 0.55328 0.08133 0.56477 0.0
H1582 H 0.55596 0.11503 0.58012 0.0
C1583 C 0.53454 0.2194 0.63692 0.0
C1584 C 0.53089 0.1775 0.59755 0.0
H1585 H 0.50462 0.13094 0.59288 0.0
C1586 C 0.54489 0.17416 0.58495 0.0
C1587 C 0.516 0.16183 0.6002 0.0
C1588 C 0.5 0.16478 0.61273 0.0
C1589 C 0.54454 0.15547 0.57509 0.0
C1590 C 0.52998 0.13964 0.57822 0.0
C1591 C 0.51587 0.14306 0.59065 0.0
C1592 C 0.52879 0.11949 0.56844 0.0
C1593 C 0.55952 0.15294 0.56115 0.0
C1594 C 0.5125 0.1107 0.55705 0.0
C1595 C 0.51083 0.0914 0.54843 0.0
C1596 C 0.52543 0.08047 0.55105 0.0
C1597 C 0.54183 0.08938 0.56234 0.0
C1598 C 0.54344 0.10868 0.57105 0.0
H1599 H 0.5664 0.16736 0.55662 0.0
H1600 H 0.57064 0.14614 0.56809 0.0
H1601 H 0.55342 0.14309 0.54823 0.0
H1602 H 0.50102 0.11876 0.55488 0.0
H1603 H 0.49802 0.08505 0.53979 0.0
H1604 H 0.56336 0.79017 0.35783 0.0
H1605 H 0.59155 0.79034 0.33952 0.0
H1606 H 0.56993 0.73056 0.31544 0.0
H1607 H 0.54154 0.73036 0.33354 0.0
H1608 H 0.61724 0.76498 0.34289 0.0
H1609 H 0.5864 0.75875 0.26837 0.0
H1610 H 0.57377 0.76575 0.28878 0.0
H1611 H 0.57535 0.74023 0.28273 0.0
C1612 C 0.56448 0.77715 0.34844 0.0
C1613 C 0.55024 0.76026 0.3471 0.0
C1614 C 0.5806 0.77727 0.33801 0.0
C1615 C 0.58275 0.76054 0.32598 0.0
C1616 C 0.5684 0.74376 0.32436 0.0
H1617 H 0.69233 0.73872 0.2891 0.0
H1618 H 0.66069 0.73509 0.30155 0.0
C1619 C 0.55224 0.74363 0.33478 0.0
C1620 C 0.60057 0.76029 0.31618 0.0
H1621 H 0.61878 0.75575 0.27229 0.0
C1622 C 0.61758 0.76297 0.32746 0.0
C1623 C 0.60096 0.75779 0.29604 0.0
C1624 C 0.58318 0.75564 0.28322 0.0
C1625 C 0.63501 0.76319 0.31917 0.0
C1626 C 0.63539 0.7603 0.29904 0.0
C1627 C 0.61839 0.75772 0.28772 0.0
C1628 C 0.65347 0.76089 0.28956 0.0
C1629 C 0.65292 0.76703 0.33202 0.0
C1630 C 0.6595 0.77604 0.27797 0.0
C1631 C 0.67748 0.77805 0.27074 0.0
C1632 C 0.68967 0.7649 0.27497 0.0
C1633 C 0.68324 0.74913 0.28573 0.0
C1634 C 0.66524 0.7471 0.29292 0.0
H1635 H 0.65056 0.77344 0.34658 0.0
H1636 H 0.65798 0.75286 0.33341 0.0
H1637 H 0.66426 0.77728 0.32592 0.0
H1638 H 0.6506 0.78679 0.27516 0.0
H1639 H 0.68209 0.79032 0.26245 0.0
H1640 H 0.01126 0.20352 0.40598 0.0
H1641 H 0.00723 0.17353 0.42271 0.0
H1642 H 0.04512 0.2043 0.46916 0.0
H1643 H 0.04903 0.23443 0.45264 0.0
H1644 H 0.03526 0.15282 0.43387 0.0
H1645 H -0.00082 0.17949 0.49672 0.0
H1646 H 0.00135 0.19222 0.47536 0.0
H1647 H 0.02114 0.19491 0.4925 0.0
C1648 C 0.01866 0.20392 0.4198 0.0
C1649 C 0.03042 0.22133 0.42803 0.0
C1650 C 0.01634 0.18679 0.42933 0.0
C1651 C 0.02564 0.18679 0.4473 0.0
C1652 C 0.03748 0.20411 0.4555 0.0
H1653 H 0.0343 0.09258 0.52052 0.0
H1654 H 0.03678 0.12464 0.50736 0.0
C1655 C 0.03981 0.22126 0.44598 0.0
C1656 C 0.02355 0.16838 0.45702 0.0
H1657 H 0.00831 0.14803 0.49739 0.0
C1658 C 0.02931 0.15175 0.44773 0.0
C1659 C 0.01588 0.16709 0.47515 0.0
C1660 C 0.00887 0.18431 0.48549 0.0
C1661 C 0.02773 0.13387 0.45612 0.0
C1662 C 0.01987 0.1325 0.47414 0.0
C1663 C 0.0143 0.14917 0.48357 0.0
C1664 C 0.01704 0.11368 0.48313 0.0
C1665 C 0.0347 0.11665 0.44572 0.0
C1666 C 0.00463 0.09713 0.47421 0.0
C1667 C 0.00317 0.07886 0.48165 0.0
C1668 C 0.01404 0.07679 0.49824 0.0
C1669 C 0.02576 0.09365 0.50771 0.0
C1670 C 0.02722 0.11197 0.50021 0.0
H1671 H 0.0445 0.12149 0.43459 0.0
H1672 H 0.04209 0.1086 0.45584 0.0
H1673 H 0.02242 0.10615 0.43858 0.0
H1674 H 0.99638 0.09826 0.46122 0.0
H1675 H 0.99385 0.06626 0.47409 0.0
H1676 H 0.56679 0.25077 0.13466 0.0
H1677 H 0.59782 0.24809 0.14898 0.0
H1678 H 0.5872 0.28337 0.19971 0.0
H1679 H 0.55609 0.28623 0.18544 0.0
H1680 H 0.62838 0.28125 0.16412 0.0
H1681 H 0.60145 0.23068 0.218 0.0
H1682 H 0.5874 0.23359 0.19684 0.0
H1683 H 0.59067 0.25229 0.21672 0.0
C1684 C 0.57105 0.25798 0.14887 0.0
C1685 C 0.559 0.26867 0.15897 0.0
C1686 C 0.58877 0.25644 0.15699 0.0
C1687 C 0.59466 0.26536 0.17544 0.0
C1688 C 0.58276 0.2762 0.18552 0.0
H1689 H 0.69005 0.27637 0.25482 0.0
H1690 H 0.65954 0.27477 0.2376 0.0
C1691 C 0.56507 0.27789 0.17734 0.0
C1692 C 0.61334 0.26345 0.18407 0.0
H1693 H 0.63428 0.24367 0.22041 0.0
C1694 C 0.62975 0.27294 0.17634 0.0
C1695 C 0.61496 0.25252 0.19994 0.0
C1696 C 0.59772 0.24153 0.20834 0.0
C1697 C 0.64783 0.27244 0.18457 0.0
C1698 C 0.64947 0.26172 0.20064 0.0
C1699 C 0.63301 0.25184 0.20806 0.0
C1700 C 0.66798 0.26179 0.21091 0.0
C1701 C 0.66492 0.28407 0.17646 0.0
C1702 C 0.68283 0.25469 0.20173 0.0
C1703 C 0.70043 0.25571 0.21158 0.0
C1704 C 0.7033 0.26366 0.23077 0.0
C1705 C 0.68825 0.27018 0.24003 0.0
C1706 C 0.67079 0.26926 0.23021 0.0
H1707 H 0.66095 0.29506 0.1671 0.0
H1708 H 0.67512 0.29198 0.18807 0.0
H1709 H 0.67218 0.27375 0.16776 0.0
H1710 H 0.68085 0.24846 0.18696 0.0
H1711 H 0.71181 0.25052 0.20415 0.0
H1712 H 0.50961 0.81644 0.94189 0.0
H1713 H 0.50976 0.84972 0.95722 0.0
H1714 H 0.56515 0.86932 0.93718 0.0
H1715 H 0.56487 0.83617 0.92136 0.0
H1716 H 0.5331 0.8731 0.98459 0.0
H1717 H 0.53501 0.90834 0.91654 0.0
H1718 H 0.53053 0.88185 0.91724 0.0
H1719 H 0.55433 0.89551 0.92071 0.0
C1720 C 0.52188 0.82781 0.94086 0.0
C1721 C 0.53716 0.82377 0.93031 0.0
C1722 C 0.52194 0.84681 0.94961 0.0
C1723 C 0.5373 0.86208 0.948 0.0
C1724 C 0.55295 0.85787 0.93818 0.0
H1725 H 0.54909 0.97599 0.01714 0.0
H1726 H 0.55494 0.94427 0.00223 0.0
C1727 C 0.55283 0.8389 0.92929 0.0
C1728 C 0.53667 0.88243 0.95638 0.0
H1729 H 0.53712 0.92969 0.94508 0.0
C1730 C 0.53404 0.8855 0.97598 0.0
C1731 C 0.53762 0.89851 0.94503 0.0
C1732 C 0.53935 0.89592 0.92368 0.0
C1733 C 0.53223 0.90418 0.98456 0.0
C1734 C 0.53359 0.92035 0.97329 0.0
C1735 C 0.53631 0.91731 0.9537 0.0
C1736 C 0.53118 0.94029 0.98137 0.0
C1737 C 0.5282 0.90625 0.00545 0.0
C1738 C 0.51646 0.94899 0.97399 0.0
C1739 C 0.51327 0.96719 0.98231 0.0
C1740 C 0.52476 0.97696 0.99814 0.0
C1741 C 0.53993 0.96863 0.00506 0.0
C1742 C 0.5432 0.95048 0.99664 0.0
H1743 H 0.52278 0.8917 0.01066 0.0
H1744 H 0.54149 0.91284 0.01399 0.0
H1745 H 0.51766 0.91609 0.00809 0.0
H1746 H 0.5071 0.94143 0.96213 0.0
H1747 H 0.50149 0.97332 0.97668 0.0
H1748 H 0.94302 0.79038 0.65528 0.0
H1749 H 0.91642 0.78968 0.67591 0.0
H1750 H 0.94079 0.75165 0.71162 0.0
H1751 H 0.96754 0.75231 0.69105 0.0
H1752 H 0.89178 0.75401 0.6829 0.0
H1753 H 0.92681 0.79612 0.7498 0.0
H1754 H 0.93708 0.7979 0.7269 0.0
H1755 H 0.938 0.77655 0.73954 0.0
C1756 C 0.94283 0.78204 0.66764 0.0
C1757 C 0.95734 0.77137 0.67155 0.0
C1758 C 0.92764 0.78166 0.6794 0.0
C1759 C 0.92675 0.77075 0.69535 0.0
C1760 C 0.94138 0.76039 0.69953 0.0
H1761 H 0.82295 0.7327 0.75165 0.0
H1762 H 0.85402 0.73405 0.73844 0.0
C1763 C 0.95658 0.7607 0.68772 0.0
C1764 C 0.90984 0.7692 0.70676 0.0
H1765 H 0.8945 0.78166 0.75071 0.0
C1766 C 0.89236 0.75999 0.69774 0.0
C1767 C 0.91071 0.77712 0.72608 0.0
C1768 C 0.92911 0.78763 0.7362 0.0
C1769 C 0.87566 0.75851 0.70751 0.0
C1770 C 0.87652 0.7663 0.72686 0.0
C1771 C 0.89398 0.77555 0.73592 0.0
C1772 C 0.85914 0.76578 0.73745 0.0
C1773 C 0.85713 0.74906 0.69693 0.0
C1774 C 0.85214 0.78329 0.74194 0.0
C1775 C 0.83438 0.7826 0.74947 0.0
C1776 C 0.82337 0.76437 0.7527 0.0
C1777 C 0.83098 0.74698 0.74924 0.0
C1778 C 0.84872 0.74769 0.74166 0.0
H1779 H 0.85846 0.74704 0.68123 0.0
H1780 H 0.85231 0.7343 0.70193 0.0
H1781 H 0.84605 0.75817 0.69985 0.0
H1782 H 0.86004 0.79739 0.73881 0.0
H1783 H 0.82902 0.79629 0.75207 0.0
H1784 H 0.10638 0.03754 0.83185 0.0
H1785 H 0.08871 0.03587 0.86077 0.0
H1786 H 0.10037 0.97726 0.86645 0.0
H1787 H 0.11824 0.97888 0.83756 0.0
H1788 H 0.05683 0.00814 0.86888 0.0
H1789 H 0.11914 0.0082 0.91872 0.0
H1790 H 0.12145 0.01502 0.89463 0.0
H1791 H 0.11564 0.98943 0.89884 0.0
C1792 C 0.10516 0.02428 0.83923 0.0
C1793 C 0.11378 0.00838 0.83249 0.0
C1794 C 0.09504 0.02334 0.85573 0.0
C1795 C 0.09344 0.00655 0.86588 0.0
C1796 C 0.10171 0.99048 0.859 0.0
H1797 H 0.01619 0.98581 0.95828 0.0
H1798 H 0.03291 0.98179 0.92887 0.0
C1799 C 0.11182 0.99139 0.84245 0.0
C1800 C 0.08316 0.00604 0.88369 0.0
H1801 H 0.08929 0.00522 0.93201 0.0
C1802 C 0.06387 0.00739 0.88268 0.0
C1803 C 0.09247 0.00525 0.90168 0.0
C1804 C 0.11335 0.00455 0.90367 0.0
C1805 C 0.05364 0.00809 0.89921 0.0
C1806 C 0.06292 0.00719 0.91718 0.0
C1807 C 0.08219 0.00573 0.91818 0.0
C1808 C 0.05317 0.00897 0.93523 0.0
C1809 C 0.03315 0.01045 0.89739 0.0
C1810 C 0.05932 0.02531 0.94871 0.0
C1811 C 0.04985 0.0276 0.96546 0.0
C1812 C 0.03414 0.0135 0.96909 0.0
C1813 C 0.02821 0.99694 0.95577 0.0
C1814 C 0.03769 0.99466 0.93897 0.0
H1815 H 0.02927 0.01502 0.8832 0.0
H1816 H 0.02398 0.99612 0.89918 0.0
H1817 H 0.03009 0.0216 0.90866 0.0
H1818 H 0.07124 0.0365 0.9461 0.0
H1819 H 0.05466 0.04059 0.9754 0.0
H1820 H 0.75928 0.3703 0.57807 0.0
H1821 H 0.75563 0.3532 0.60696 0.0
H1822 H 0.70598 0.31435 0.58054 0.0
H1823 H 0.70947 0.33154 0.5514 0.0
H1824 H 0.70327 0.33016 0.6204 0.0
H1825 H 0.76682 0.29593 0.60899 0.0
H1826 H 0.77102 0.32216 0.60731 0.0
H1827 H 0.75482 0.30611 0.59014 0.0
C1828 C 0.74751 0.35819 0.5784 0.0
C1829 C 0.73474 0.35213 0.56244 0.0
C1830 C 0.74549 0.34841 0.59488 0.0
C1831 C 0.73073 0.33236 0.5957 0.0
C1832 C 0.71753 0.32666 0.58007 0.0
H1833 H 0.74463 0.26343 0.69213 0.0
H1834 H 0.73568 0.27062 0.65981 0.0
C1835 C 0.71955 0.33645 0.56348 0.0
C1836 C 0.72959 0.32145 0.61285 0.0
H1837 H 0.75592 0.29698 0.64065 0.0
C1838 C 0.71457 0.32258 0.62474 0.0
C1839 C 0.74415 0.31124 0.61821 0.0
C1840 C 0.76003 0.30858 0.60541 0.0
C1841 C 0.7144 0.31484 0.64255 0.0
C1842 C 0.72983 0.30609 0.6486 0.0
C1843 C 0.74417 0.30384 0.6361 0.0
C1844 C 0.73241 0.30075 0.66834 0.0
C1845 C 0.6979 0.31641 0.6548 0.0
C1846 C 0.7334 0.31525 0.68385 0.0
C1847 C 0.73842 0.31114 0.70225 0.0
C1848 C 0.7428 0.29257 0.7054 0.0
C1849 C 0.74138 0.2779 0.69001 0.0
C1850 C 0.73622 0.28196 0.6716 0.0
H1851 H 0.68475 0.31637 0.64585 0.0
H1852 H 0.69535 0.30411 0.66407 0.0
H1853 H 0.70093 0.33061 0.66405 0.0
H1854 H 0.73104 0.33001 0.68164 0.0
H1855 H 0.73943 0.32271 0.71391 0.0
H1856 H 0.43219 0.0677 0.3497 0.0
H1857 H 0.45029 0.06936 0.38014 0.0
H1858 H 0.49641 0.05022 0.3507 0.0
H1859 H 0.47806 0.0479 0.32019 0.0
H1860 H 0.48635 0.0279 0.37829 0.0
H1861 H 0.4945 0.10611 0.40768 0.0
H1862 H 0.47019 0.09587 0.40101 0.0
H1863 H 0.48725 0.09807 0.38294 0.0
C1864 C 0.44634 0.06423 0.34967 0.0
C1865 C 0.4537 0.05757 0.33262 0.0
C1866 C 0.45675 0.06535 0.36708 0.0
C1867 C 0.47482 0.06018 0.36769 0.0
C1868 C 0.48253 0.05437 0.35054 0.0
H1869 H 0.54166 0.06336 0.47566 0.0
H1870 H 0.53072 0.07066 0.44397 0.0
C1871 C 0.47204 0.05304 0.33314 0.0
C1872 C 0.48456 0.05842 0.38628 0.0
H1873 H 0.49777 0.08251 0.43057 0.0
C1874 C 0.48912 0.03996 0.38961 0.0
C1875 C 0.48836 0.07419 0.40099 0.0
C1876 C 0.485 0.09472 0.39791 0.0
C1877 C 0.49662 0.03658 0.40746 0.0
C1878 C 0.49917 0.05193 0.42255 0.0
C1879 C 0.49546 0.07067 0.41904 0.0
C1880 C 0.50521 0.04853 0.44214 0.0
C1881 C 0.50168 0.01655 0.41 0.0
C1882 C 0.49421 0.03407 0.45175 0.0
C1883 C 0.50048 0.02978 0.46967 0.0
C1884 C 0.51772 0.0401 0.47841 0.0
C1885 C 0.52835 0.05515 0.46916 0.0
C1886 C 0.52212 0.05935 0.45112 0.0
H1887 H 0.50431 0.00878 0.39612 0.0
H1888 H 0.51446 0.01786 0.41982 0.0
H1889 H 0.48971 0.00723 0.41616 0.0
H1890 H 0.48091 0.02587 0.44522 0.0
H1891 H 0.49201 0.01811 0.4765 0.0
H1892 H 0.77886 0.71168 0.0463 0.0
H1893 H 0.7787 0.73054 0.07754 0.0
H1894 H 0.77591 0.67674 0.10512 0.0
H1895 H 0.77644 0.65795 0.07414 0.0
H1896 H 0.75157 0.72692 0.10386 0.0
H1897 H 0.81922 0.71297 0.13592 0.0
H1898 H 0.81279 0.7079 0.11066 0.0
H1899 H 0.80356 0.69053 0.12706 0.0
C1900 C 0.77843 0.70394 0.05906 0.0
C1901 C 0.7778 0.68336 0.05778 0.0
C1902 C 0.77828 0.71471 0.07687 0.0
C1903 C 0.77759 0.7051 0.0937 0.0
C1904 C 0.77691 0.68456 0.0924 0.0
H1905 H 0.74058 0.74207 0.20453 0.0
H1906 H 0.74283 0.72832 0.17162 0.0
C1907 C 0.77712 0.67382 0.07465 0.0
C1908 C 0.77684 0.71632 0.11258 0.0
H1909 H 0.79822 0.72523 0.15755 0.0
C1910 C 0.76187 0.72672 0.11557 0.0
C1911 C 0.79042 0.7163 0.12777 0.0
C1912 C 0.80751 0.7065 0.12517 0.0
C1913 C 0.75978 0.73658 0.13349 0.0
C1914 C 0.7728 0.73565 0.14895 0.0
C1915 C 0.78809 0.72575 0.14578 0.0
C1916 C 0.7709 0.74475 0.16856 0.0
C1917 C 0.74376 0.74804 0.13563 0.0
C1918 C 0.78604 0.7583 0.17795 0.0
C1919 C 0.7849 0.76597 0.19683 0.0
C1920 C 0.76857 0.76026 0.20677 0.0
C1921 C 0.75329 0.74691 0.19726 0.0
C1922 C 0.75451 0.73912 0.17838 0.0
H1923 H 0.73884 0.7523 0.12165 0.0
H1924 H 0.73161 0.73863 0.14142 0.0
H1925 H 0.74805 0.76164 0.14561 0.0
H1926 H 0.79884 0.76283 0.17069 0.0
H1927 H 0.79692 0.77627 0.20367 0.0
H1928 H 0.1425 0.01004 0.71588 0.0
H1929 H 0.12713 0.0147 0.68533 0.0
H1930 H 0.07557 0.01972 0.71307 0.0
H1931 H 0.09091 0.01517 0.74381 0.0
H1932 H 0.0934 0.99242 0.66573 0.0
H1933 H 0.08744 0.07094 0.6856 0.0
H1934 H 0.10283 0.05819 0.69893 0.0
H1935 H 0.07778 0.05356 0.70175 0.0
C1936 C 0.12785 0.01201 0.71548 0.0
C1937 C 0.11792 0.01232 0.73225 0.0
C1938 C 0.1191 0.01469 0.69801 0.0
C1939 C 0.10033 0.01787 0.69702 0.0
C1940 C 0.09018 0.01763 0.71363 0.0
H1941 H 0.02718 0.04029 0.60262 0.0
H1942 H 0.04142 0.03677 0.63415 0.0
C1943 C 0.09892 0.01489 0.73113 0.0
C1944 C 0.0915 0.02148 0.67854 0.0
H1945 H 0.07405 0.05659 0.65525 0.0
C1946 C 0.08917 0.00644 0.66341 0.0
C1947 C 0.08599 0.03979 0.67562 0.0
C1948 C 0.08873 0.05665 0.69125 0.0
C1949 C 0.0813 0.00914 0.64543 0.0
C1950 C 0.07604 0.02755 0.6424 0.0
C1951 C 0.07819 0.04254 0.6576 0.0
C1952 C 0.06811 0.03141 0.62357 0.0
C1953 C 0.07836 0.9921 0.62995 0.0
C1954 C 0.07866 0.03031 0.60729 0.0
C1955 C 0.07055 0.03228 0.5893 0.0
C1956 C 0.05183 0.03558 0.58733 0.0
C1957 C 0.04164 0.03774 0.60375 0.0
C1958 C 0.04974 0.0357 0.62174 0.0
H1959 H 0.07836 0.97772 0.63595 0.0
H1960 H 0.06479 0.9913 0.62148 0.0
H1961 H 0.09005 0.99427 0.62013 0.0
H1962 H 0.09302 0.02748 0.60846 0.0
H1963 H 0.07873 0.03064 0.57687 0.0
H1964 H 0.72706 0.35114 0.44646 0.0
H1965 H 0.72942 0.32873 0.4182 0.0
H1966 H 0.75833 0.29291 0.45256 0.0
H1967 H 0.75637 0.31562 0.48093 0.0
H1968 H 0.77721 0.30213 0.42185 0.0
H1969 H 0.7024 0.27414 0.39855 0.0
H1970 H 0.7066 0.30062 0.4023 0.0
H1971 H 0.7095 0.28636 0.42217 0.0
C1972 C 0.73363 0.33831 0.44807 0.0
C1973 C 0.74156 0.33514 0.46588 0.0
C1974 C 0.73482 0.3254 0.43193 0.0
C1975 C 0.74375 0.30893 0.43332 0.0
C1976 C 0.75124 0.30543 0.4512 0.0
H1977 H 0.74433 0.24411 0.32011 0.0
H1978 H 0.74178 0.24799 0.35489 0.0
C1979 C 0.75011 0.31841 0.46737 0.0
C1980 C 0.74697 0.29681 0.41573 0.0
H1981 H 0.72479 0.27517 0.3734 0.0
C1982 C 0.76571 0.29579 0.41143 0.0
C1983 C 0.73198 0.2881 0.4023 0.0
C1984 C 0.71149 0.28717 0.40669 0.0
C1985 C 0.76994 0.28785 0.39343 0.0
C1986 C 0.75507 0.28119 0.37928 0.0
C1987 C 0.73624 0.28058 0.38414 0.0
C1988 C 0.75875 0.27737 0.35887 0.0
C1989 C 0.79035 0.2873 0.38956 0.0
C1990 C 0.76924 0.29251 0.34965 0.0
C1991 C 0.77071 0.29033 0.32994 0.0
C1992 C 0.76155 0.27303 0.31902 0.0
C1993 C 0.75155 0.25758 0.32825 0.0
C1994 C 0.75009 0.25977 0.34807 0.0
H1995 H 0.79856 0.28541 0.40282 0.0
H1996 H 0.79162 0.27512 0.37853 0.0
H1997 H 0.79685 0.30155 0.38445 0.0
H1998 H 0.77558 0.30644 0.35757 0.0
H1999 H 0.77836 0.30255 0.32317 0.0
H2000 H 0.44095 0.01523 0.22538 0.0
H2001 H 0.4554 0.0169 0.19466 0.0
H2002 H 0.47251 0.08005 0.20669 0.0
H2003 H 0.4581 0.07853 0.23765 0.0
H2004 H 0.44386 0.04146 0.16608 0.0
H2005 H 0.52097 0.05904 0.18774 0.0
H2006 H 0.50366 0.0478 0.20321 0.0
H2007 H 0.50553 0.0735 0.1997 0.0
C2008 C 0.44797 0.02945 0.22162 0.0
C2009 C 0.44836 0.04676 0.23386 0.0
C2010 C 0.45621 0.03037 0.20408 0.0
C2011 C 0.46508 0.04856 0.19853 0.0
C2012 C 0.46593 0.06585 0.21088 0.0
H2013 H 0.51189 0.06816 0.08704 0.0
H2014 H 0.50299 0.074 0.12013 0.0
C2015 C 0.45763 0.06495 0.22848 0.0
C2016 C 0.47213 0.04938 0.17919 0.0
H2017 H 0.51239 0.05513 0.15469 0.0
C2018 C 0.45884 0.04459 0.16356 0.0
C2019 C 0.49165 0.05368 0.17606 0.0
C2020 C 0.50638 0.05872 0.1925 0.0
C2021 C 0.46457 0.04345 0.14481 0.0
C2022 C 0.48411 0.04686 0.14167 0.0
C2023 C 0.49743 0.05244 0.15724 0.0
C2024 C 0.49084 0.04337 0.12237 0.0
C2025 C 0.44967 0.03838 0.12849 0.0
C2026 C 0.48734 0.02418 0.113 0.0
C2027 C 0.49236 0.02083 0.09425 0.0
C2028 C 0.50105 0.03663 0.08461 0.0
C2029 C 0.50517 0.05576 0.09421 0.0
C2030 C 0.50013 0.05911 0.11304 0.0
H2031 H 0.43568 0.04139 0.13287 0.0
H2032 H 0.45384 0.04689 0.1162 0.0
H2033 H 0.44804 0.02239 0.12362 0.0
H2034 H 0.48041 0.01183 0.12012 0.0
H2035 H 0.48912 0.00593 0.0872 0.0
H2036 H 0.74665 0.68471 0.95577 0.0
H2037 H 0.74761 0.69999 0.92559 0.0
H2038 H 0.8049 0.69024 0.91971 0.0
H2039 H 0.80396 0.67471 0.94971 0.0
H2040 H 0.77175 0.73286 0.91528 0.0
H2041 H 0.7783 0.66549 0.86851 0.0
H2042 H 0.77157 0.66462 0.89288 0.0
H2043 H 0.79601 0.67177 0.88792 0.0
C2044 C 0.75945 0.68582 0.94803 0.0
C2045 C 0.77519 0.67842 0.95505 0.0
C2046 C 0.75998 0.69455 0.93081 0.0
C2047 C 0.77622 0.69596 0.92024 0.0
C2048 C 0.79208 0.68892 0.92741 0.0
H2049 H 0.80056 0.77149 0.82783 0.0
H2050 H 0.80164 0.75554 0.85757 0.0
C2051 C 0.79156 0.68017 0.94462 0.0
C2052 C 0.77661 0.70504 0.90186 0.0
H2053 H 0.78186 0.69567 0.85407 0.0
C2054 C 0.77395 0.72474 0.90189 0.0
C2055 C 0.77927 0.69433 0.88437 0.0
C2056 C 0.78128 0.67283 0.8833 0.0
C2057 C 0.77405 0.7341 0.88494 0.0
C2058 C 0.77721 0.72356 0.86754 0.0
C2059 C 0.77967 0.70379 0.86747 0.0
C2060 C 0.77736 0.73261 0.84916 0.0
C2061 C 0.77036 0.75505 0.88575 0.0
C2062 C 0.76379 0.7246 0.8343 0.0
C2063 C 0.76323 0.73361 0.81729 0.0
C2064 C 0.7763 0.75073 0.8148 0.0
C2065 C 0.79025 0.75838 0.82943 0.0
C2066 C 0.79081 0.74935 0.84645 0.0
H2067 H 0.76369 0.75927 0.8991 0.0
H2068 H 0.78399 0.76536 0.88532 0.0
H2069 H 0.76102 0.75703 0.87333 0.0
H2070 H 0.75333 0.71164 0.83606 0.0
H2071 H 0.75227 0.72743 0.80629 0.0
H2072 H 0.80071 0.07668 0.02703 0.0
H2073 H 0.82488 0.05548 0.02502 0.0
H2074 H 0.86876 0.10726 0.03216 0.0
H2075 H 0.8448 0.12848 0.03399 0.0
H2076 H 0.87253 0.07944 0.00101 0.0
H2077 H 0.86106 0.04453 0.06895 0.0
H2078 H 0.84058 0.04334 0.05293 0.0
H2079 H 0.85236 0.06683 0.0643 0.0
C2080 C 0.81552 0.08351 0.02828 0.0
C2081 C 0.8209 0.10422 0.03068 0.0
C2082 C 0.82928 0.07139 0.02721 0.0
C2083 C 0.84856 0.07984 0.02861 0.0
C2084 C 0.85393 0.10049 0.03108 0.0
H2085 H 0.95428 0.04703 0.051 0.0
H2086 H 0.92298 0.05631 0.05188 0.0
C2087 C 0.84023 0.11258 0.03215 0.0
C2088 C 0.86334 0.06739 0.0269 0.0
H2089 H 0.88526 0.03546 0.05037 0.0
C2090 C 0.87521 0.06962 0.01165 0.0
C2091 C 0.86675 0.0547 0.04089 0.0
C2092 C 0.85464 0.05222 0.0578 0.0
C2093 C 0.89086 0.06002 0.01034 0.0
C2094 C 0.89449 0.04757 0.02451 0.0
C2095 C 0.88227 0.04485 0.03946 0.0
C2096 C 0.91212 0.03924 0.02519 0.0
C2097 C 0.90393 0.06411 0.99437 0.0
C2098 C 0.91611 0.02597 0.01024 0.0
C2099 C 0.93406 0.0207 0.00968 0.0
C2100 C 0.94813 0.0286 0.0241 0.0
C2101 C 0.94369 0.04084 0.03965 0.0
C2102 C 0.92581 0.0461 0.0402 0.0
H2103 H 0.90096 0.07678 0.98672 0.0
H2104 H 0.91895 0.06734 -1e-05 0.0
H2105 H 0.90208 0.05085 0.98386 0.0
H2106 H 0.90559 0.0203 0.99869 0.0
H2107 H 0.93714 0.01114 0.9976 0.0
H2108 H 0.30834 0.44631 0.02042 0.0
H2109 H 0.34063 0.4641 0.01831 0.0
H2110 H 0.36221 0.42197 0.05126 0.0
H2111 H 0.33002 0.40371 0.05276 0.0
H2112 H 0.36614 0.48261 0.04472 0.0
H2113 H 0.39536 0.4217 0.00705 0.0
H2114 H 0.37033 0.42033 0.00986 0.0
H2115 H 0.38552 0.41482 0.02897 0.0
C2116 C 0.31999 0.44081 0.02715 0.0
C2117 C 0.3167 0.42355 0.03665 0.0
C2118 C 0.33843 0.45098 0.02593 0.0
C2119 C 0.35391 0.44416 0.03427 0.0
C2120 C 0.35058 0.42719 0.04419 0.0
H2121 H 0.46478 0.51344 0.06557 0.0
H2122 H 0.43185 0.49656 0.06403 0.0
C2123 C 0.33216 0.41686 0.04519 0.0
C2124 C 0.37347 0.45513 0.03307 0.0
H2125 H 0.41793 0.4495 0.02103 0.0
C2126 C 0.37743 0.47539 0.03938 0.0
C2127 C 0.38814 0.44584 0.02575 0.0
C2128 C 0.38459 0.42453 0.01733 0.0
C2129 C 0.39572 0.48648 0.03909 0.0
C2130 C 0.41062 0.47691 0.03287 0.0
C2131 C 0.40657 0.45679 0.02603 0.0
C2132 C 0.43057 0.48738 0.03369 0.0
C2133 C 0.39878 0.5084 0.0452 0.0
C2134 C 0.44109 0.48725 0.01731 0.0
C2135 C 0.46006 0.49659 0.01827 0.0
C2136 C 0.46878 0.50631 0.03558 0.0
C2137 C 0.45831 0.5063 0.05197 0.0
C2138 C 0.43944 0.49679 0.05107 0.0
H2139 H 0.38548 0.5144 0.04332 0.0
H2140 H 0.40344 0.51101 0.0606 0.0
H2141 H 0.40978 0.51674 0.03697 0.0
H2142 H 0.43463 0.47987 0.00379 0.0
H2143 H 0.46794 0.49599 0.00556 0.0
H2144 H 0.38357 0.60667 0.76644 0.0
H2145 H 0.36627 0.63433 0.76917 0.0
H2146 H 0.32144 0.60092 0.73065 0.0
H2147 H 0.33856 0.57305 0.72804 0.0
H2148 H 0.3548 0.65569 0.7403 0.0
H2149 H 0.29289 0.61883 0.77631 0.0
H2150 H 0.31455 0.60896 0.77463 0.0
H2151 H 0.2978 0.60578 0.75438 0.0
C2152 C 0.37001 0.60519 0.75858 0.0
C2153 C 0.36239 0.58766 0.74707 0.0
C2154 C 0.36014 0.621 0.76016 0.0
C2155 C 0.34244 0.61957 0.75035 0.0
C2156 C 0.33489 0.60218 0.73866 0.0
H2157 H 0.26665 0.70527 0.74149 0.0
H2158 H 0.28097 0.67541 0.73851 0.0
C2159 C 0.34475 0.58633 0.73708 0.0
C2160 C 0.33219 0.63653 0.75202 0.0
H2161 H 0.29157 0.65084 0.76709 0.0
C2162 C 0.34099 0.65464 0.74618 0.0
C2163 C 0.31414 0.63508 0.75963 0.0
C2164 C 0.30431 0.61618 0.76676 0.0
C2165 C 0.33221 0.67134 0.74768 0.0
C2166 C 0.31428 0.66998 0.75551 0.0
C2167 C 0.30533 0.65181 0.76111 0.0
C2168 C 0.30486 0.68744 0.75835 0.0
C2169 C 0.34211 0.69028 0.74066 0.0
C2170 C 0.31326 0.70382 0.77094 0.0
C2171 C 0.30514 0.72085 0.77271 0.0
C2172 C 0.28838 0.72182 0.76197 0.0
C2173 C 0.27957 0.70505 0.74995 0.0
C2174 C 0.28773 0.68798 0.7482 0.0
H2175 H 0.35327 0.68758 0.73081 0.0
H2176 H 0.33186 0.6978 0.73316 0.0
H2177 H 0.34896 0.70045 0.75307 0.0
H2178 H 0.32631 0.70354 0.77917 0.0
H2179 H 0.31227 0.7334 0.78221 0.0
H2180 H 0.2264 0.59193 0.49495 0.0
H2181 H 0.19253 0.5782 0.4899 0.0
H2182 H 0.18314 0.6031 0.54633 0.0
H2183 H 0.21684 0.61707 0.5514 0.0
H2184 H 0.16829 0.55226 0.51086 0.0
H2185 H 0.14687 0.6259 0.51123 0.0
H2186 H 0.17105 0.62244 0.50884 0.0
H2187 H 0.16134 0.62321 0.53197 0.0
C2188 C 0.21712 0.59436 0.50631 0.0
C2189 C 0.22419 0.6057 0.52351 0.0
C2190 C 0.19781 0.58653 0.5034 0.0
C2191 C 0.18535 0.59 0.5176 0.0
C2192 C 0.19251 0.60065 0.53505 0.0
H2193 H 0.06705 0.56125 0.53541 0.0
H2194 H 0.10127 0.57246 0.53719 0.0
C2195 C 0.21176 0.60852 0.53795 0.0
C2196 C 0.16478 0.58275 0.51417 0.0
H2197 H 0.12218 0.59831 0.51276 0.0
C2198 C 0.15818 0.56229 0.51109 0.0
C2199 C 0.15171 0.59594 0.51438 0.0
C2200 C 0.15807 0.6181 0.5166 0.0
C2201 C 0.13872 0.55461 0.50893 0.0
C2202 C 0.12566 0.56781 0.50966 0.0
C2203 C 0.13228 0.58827 0.51232 0.0
C2204 C 0.105 0.56073 0.50835 0.0
C2205 C 0.13223 0.53248 0.50651 0.0
C2206 C 0.0958 0.55062 0.49144 0.0
C2207 C 0.0762 0.5442 0.49032 0.0
C2208 C 0.0655 0.54784 0.50612 0.0
C2209 C 0.07482 0.55814 0.52298 0.0
C2210 C 0.09438 0.56457 0.52405 0.0
H2211 H 0.14387 0.5244 0.50997 0.0
H2212 H 0.12039 0.52808 0.51575 0.0
H2213 H 0.12701 0.52781 0.49144 0.0
H2214 H 0.10376 0.54782 0.47907 0.0
H2215 H 0.06949 0.53635 0.4771 0.0
H2216 H 0.65973 0.94878 0.78127 0.0
H2217 H 0.68142 0.92539 0.78478 0.0
H2218 H 0.71359 0.94949 0.73929 0.0
H2219 H 0.69203 0.97305 0.73577 0.0
H2220 H 0.68742 0.89733 0.75526 0.0
H2221 H 0.75447 0.94708 0.78209 0.0
H2222 H 0.7316 0.95456 0.78331 0.0
H2223 H 0.74302 0.95403 0.76113 0.0
C2224 C 0.67152 0.94921 0.77213 0.0
C2225 C 0.67419 0.96267 0.75821 0.0
C2226 C 0.68391 0.93591 0.77419 0.0
C2227 C 0.6992 0.93594 0.76247 0.0
C2228 C 0.70206 0.94953 0.74872 0.0
H2229 H 0.75513 0.8371 0.73507 0.0
H2230 H 0.7416 0.86727 0.7341 0.0
C2231 C 0.68966 0.96284 0.74662 0.0
C2232 C 0.71116 0.92064 0.76356 0.0
H2233 H 0.75641 0.91343 0.7729 0.0
C2234 C 0.70249 0.90083 0.75918 0.0
C2235 C 0.73077 0.92534 0.76878 0.0
C2236 C 0.74055 0.94639 0.77426 0.0
C2237 C 0.71295 0.88553 0.75965 0.0
C2238 C 0.73265 0.89023 0.76438 0.0
C2239 C 0.74133 0.91 0.76908 0.0
C2240 C 0.74416 0.87451 0.76475 0.0
C2241 C 0.70284 0.86441 0.75523 0.0
C2242 C 0.75088 0.86927 0.78226 0.0
C2243 C 0.75867 0.85208 0.78285 0.0
C2244 C 0.75977 0.84002 0.76593 0.0
C2245 C 0.75429 0.8461 0.74832 0.0
C2246 C 0.74658 0.86328 0.74774 0.0
H2247 H 0.68724 0.86312 0.75573 0.0
H2248 H 0.70599 0.85882 0.74066 0.0
H2249 H 0.70781 0.85475 0.76548 0.0
H2250 H 0.7491 0.87784 0.79551 0.0
H2251 H 0.76284 0.84768 0.79659 0.0
H2252 H 0.69551 0.90138 0.52431 0.0
H2253 H 0.67008 0.92086 0.52645 0.0
H2254 H 0.70601 0.96541 0.56486 0.0
H2255 H 0.73162 0.94611 0.56263 0.0
H2256 H 0.65193 0.93448 0.55858 0.0
H2257 H 0.68949 0.99653 0.52163 0.0
H2258 H 0.69703 0.97284 0.52123 0.0
H2259 H 0.70219 0.99024 0.54212 0.0
C2260 C 0.69799 0.9153 0.53325 0.0
C2261 C 0.7156 0.92229 0.5432 0.0
C2262 C 0.68344 0.92639 0.53449 0.0
C2263 C 0.68626 0.94469 0.54561 0.0
C2264 C 0.70367 0.95149 0.55594 0.0
H2265 H 0.59174 0.00808 0.56825 0.0
H2266 H 0.61988 0.99279 0.57295 0.0
C2267 C 0.71824 0.9404 0.55472 0.0
C2268 C 0.67102 0.95673 0.54605 0.0
H2269 H 0.65953 -0.00019 0.53259 0.0
C2270 C 0.6536 0.94883 0.55303 0.0
C2271 C 0.67324 0.97537 0.53865 0.0
C2272 C 0.69142 0.98425 0.53033 0.0
C2273 C 0.63822 0.95895 0.55258 0.0
C2274 C 0.64044 0.97758 0.54515 0.0
C2275 C 0.65794 0.98561 0.53842 0.0
C2276 C 0.62432 0.98821 0.54277 0.0
C2277 C 0.61953 0.94929 0.55939 0.0
C2278 C 0.61796 0.99136 0.52434 0.0
C2279 C 0.602 0.0001 0.52167 0.0
C2280 C 0.59216 0.00589 0.53739 0.0
C2281 C 0.59898 0.0035 0.5559 0.0
C2282 C 0.61497 0.99473 0.55858 0.0
H2283 H 0.6191 0.93331 0.56089 0.0
H2284 H 0.61733 0.95665 0.57358 0.0
H2285 H 0.60761 0.95086 0.54938 0.0
H2286 H 0.62502 0.98652 0.51195 0.0
H2287 H 0.59705 0.0018 0.50724 0.0
H2288 H 0.38421 0.46805 0.73508 0.0
H2289 H 0.36665 0.43444 0.73569 0.0
H2290 H 0.31509 0.45753 0.74365 0.0
H2291 H 0.33263 0.49127 0.7433 0.0
H2292 H 0.32148 0.43124 0.76964 0.0
H2293 H 0.32947 0.39972 0.69578 0.0
H2294 H 0.35149 0.41111 0.70832 0.0
H2295 H 0.33408 0.42601 0.70284 0.0
C2296 C 0.36909 0.46596 0.73673 0.0
C2297 C 0.35977 0.48228 0.73913 0.0
C2298 C 0.35906 0.44673 0.73696 0.0
C2299 C 0.33953 0.44348 0.73946 0.0
C2300 C 0.33015 0.45974 0.7416 0.0
H2301 H 0.26382 0.32953 0.73079 0.0
H2302 H 0.2801 0.36284 0.72585 0.0
C2303 C 0.34017 0.47898 0.74137 0.0
C2304 C 0.32917 0.42324 0.74114 0.0
H2305 H 0.31807 0.37675 0.71789 0.0
C2306 C 0.32063 0.41935 0.75828 0.0
C2307 C 0.32794 0.40781 0.72624 0.0
C2308 C 0.33607 0.41136 0.70718 0.0
C2309 C 0.31122 0.40033 0.7611 0.0
C2310 C 0.31062 0.38474 0.74648 0.0
C2311 C 0.31877 0.3887 0.72915 0.0
C2312 C 0.3014 0.36426 0.7489 0.0
C2313 C 0.30185 0.39713 0.77963 0.0
C2314 C 0.30827 0.3539 0.76321 0.0
C2315 C 0.29899 0.33494 0.76608 0.0
C2316 C 0.28276 0.32601 0.75459 0.0
C2317 C 0.27625 0.33614 0.7399 0.0
C2318 C 0.28553 0.35512 0.73705 0.0
H2319 H 0.29948 0.41127 0.78717 0.0
H2320 H 0.28803 0.38693 0.77709 0.0
H2321 H 0.31111 0.3904 0.78918 0.0
H2322 H 0.32071 0.36057 0.77227 0.0
H2323 H 0.30436 0.32741 0.77745 0.0
H2324 H 0.17443 0.55577 0.22523 0.0
H2325 H 0.19112 0.59016 0.2282 0.0
H2326 H 0.18421 0.59443 0.2889 0.0
H2327 H 0.16742 0.56015 0.28608 0.0
H2328 H 0.17471 0.62451 0.24601 0.0
H2329 H 0.24267 0.61394 0.28126 0.0
H2330 H 0.22692 0.59409 0.26715 0.0
H2331 H 0.22122 0.60214 0.29079 0.0
C2332 C 0.17657 0.56401 0.23922 0.0
C2333 C 0.16965 0.55532 0.25543 0.0
C2334 C 0.18607 0.58361 0.24087 0.0
C2335 C 0.18899 0.59466 0.25878 0.0
C2336 C 0.18224 0.58599 0.275 0.0
H2337 H 0.24107 0.71318 0.30253 0.0
H2338 H 0.22659 0.67823 0.29783 0.0
C2339 C 0.17261 0.56647 0.27335 0.0
C2340 C 0.19841 0.61556 0.26044 0.0
H2341 H 0.2384 0.6469 0.27873 0.0
C2342 C 0.18868 0.62947 0.25304 0.0
C2343 C 0.21654 0.62182 0.26975 0.0
C2344 C 0.22759 0.60726 0.27762 0.0
C2345 C 0.19648 0.64969 0.25509 0.0
C2346 C 0.2147 0.656 0.26435 0.0
C2347 C 0.22446 0.642 0.27162 0.0
C2348 C 0.22372 0.67712 0.26699 0.0
C2349 C 0.18486 0.66413 0.24791 0.0
C2350 C 0.22717 0.68799 0.25118 0.0
C2351 C 0.23528 0.70803 0.25381 0.0
C2352 C 0.24035 0.71746 0.27231 0.0
C2353 C 0.23731 0.70638 0.28809 0.0
C2354 C 0.22905 0.6864 0.28544 0.0
H2355 H 0.16955 0.65762 0.2461 0.0
H2356 H 0.18665 0.67786 0.25782 0.0
H2357 H 0.1896 0.66819 0.23376 0.0
H2358 H 0.22361 0.68098 0.23679 0.0
H2359 H 0.23764 0.71608 0.24134 0.0
H2360 H 0.48272 0.7155 0.43293 0.0
H2361 H 0.48585 0.69037 0.45492 0.0
H2362 H 0.54096 0.68578 0.43486 0.0
H2363 H 0.53799 0.71084 0.41291 0.0
H2364 H 0.49185 0.65101 0.44387 0.0
H2365 H 0.54971 0.69299 0.49389 0.0
H2366 H 0.53556 0.7049 0.47824 0.0
H2367 H 0.55437 0.69339 0.46903 0.0
C2368 C 0.49555 0.70921 0.43331 0.0
C2369 C 0.51012 0.71512 0.42123 0.0
C2370 C 0.49731 0.69491 0.44587 0.0
C2371 C 0.51375 0.68649 0.44669 0.0
C2372 C 0.52833 0.69241 0.43469 0.0
H2373 H 0.55427 0.59159 0.49656 0.0
H2374 H 0.55032 0.62174 0.4822 0.0
C2375 C 0.52654 0.70661 0.42208 0.0
C2376 C 0.51526 0.67063 0.45924 0.0
H2377 H 0.54221 0.65819 0.49589 0.0
C2378 C 0.50269 0.65262 0.45541 0.0
C2379 C 0.52951 0.67283 0.47418 0.0
C2380 C 0.54298 0.69212 0.47924 0.0
C2381 C 0.50441 0.63641 0.46568 0.0
C2382 C 0.51882 0.63849 0.4805 0.0
C2383 C 0.53116 0.65667 0.48457 0.0
C2384 C 0.52187 0.62161 0.49118 0.0
C2385 C 0.4913 0.61697 0.45999 0.0
C2386 C 0.50745 0.61199 0.50163 0.0
C2387 C 0.5096 0.59467 0.50975 0.0
C2388 C 0.52632 0.5868 0.50776 0.0
C2389 C 0.5412 0.5972 0.49834 0.0
C2390 C 0.53897 0.61444 0.4901 0.0
H2391 H 0.48426 0.61658 0.44555 0.0
H2392 H 0.49911 0.60439 0.46009 0.0
H2393 H 0.4801 0.61481 0.47036 0.0
H2394 H 0.49433 0.61758 0.50305 0.0
H2395 H 0.49795 0.58716 0.51712 0.0
H2396 H 0.5993 0.28161 0.67671 0.0
H2397 H 0.6289 0.28966 0.69649 0.0
H2398 H 0.61327 0.34439 0.71924 0.0
H2399 H 0.58341 0.33637 0.69947 0.0
H2400 H 0.65844 0.32452 0.69806 0.0
H2401 H 0.62386 0.31504 0.76691 0.0
H2402 H 0.61163 0.30543 0.74418 0.0
H2403 H 0.61568 0.33152 0.75126 0.0
C2404 C 0.60215 0.29539 0.68587 0.0
C2405 C 0.589 0.30831 0.68665 0.0
C2406 C 0.61909 0.29999 0.69711 0.0
C2407 C 0.62317 0.31752 0.7094 0.0
C2408 C 0.61026 0.33068 0.70997 0.0
H2409 H 0.71796 0.33025 0.79661 0.0
H2410 H 0.69239 0.3405 0.77747 0.0
C2411 C 0.59327 0.3261 0.69866 0.0
C2412 C 0.64075 0.32141 0.72193 0.0
H2413 H 0.65692 0.31884 0.7678 0.0
C2414 C 0.65817 0.32367 0.71337 0.0
C2415 C 0.64033 0.3205 0.7419 0.0
C2416 C 0.62192 0.3179 0.75172 0.0
C2417 C 0.67513 0.32395 0.72413 0.0
C2418 C 0.67456 0.3215 0.74387 0.0
C2419 C 0.65731 0.32068 0.75266 0.0
C2420 C 0.69094 0.31671 0.7549 0.0
C2421 C 0.69341 0.32613 0.71407 0.0
C2422 C 0.6983 0.29983 0.74871 0.0
C2423 C 0.71263 0.29396 0.75957 0.0
C2424 C 0.71994 0.30481 0.77691 0.0
C2425 C 0.71262 0.32172 0.78323 0.0
C2426 C 0.69811 0.32759 0.7723 0.0
H2427 H 0.69276 0.33518 0.70182 0.0
H2428 H 0.70571 0.33308 0.72393 0.0
H2429 H 0.69573 0.31129 0.70828 0.0
H2430 H 0.69259 0.29082 0.73568 0.0
H2431 H 0.71777 0.28067 0.75449 0.0
H2432 H 0.98597 0.32267 0.88974 0.0
H2433 H 0.98491 0.35417 0.90821 0.0
H2434 H 0.03179 0.3459 0.94528 0.0
H2435 H 0.03261 0.3141 0.92716 0.0
H2436 H 0.00304 0.35697 0.9652 0.0
H2437 H 0.02024 0.40654 0.90799 0.0
H2438 H 0.00025 0.38717 0.90171 0.0
H2439 H 0.02336 0.38103 0.90573 0.0
C2440 C 0.99617 0.32766 0.90172 0.0
C2441 C 0.00943 0.31598 0.90697 0.0
C2442 C 0.9956 0.34571 0.9122 0.0
C2443 C 0.00847 0.35254 0.92794 0.0
C2444 C 0.02179 0.34094 0.93314 0.0
H2445 H 0.03561 0.45612 0.00813 0.0
H2446 H 0.03337 0.42412 0.98953 0.0
C2447 C 0.02227 0.32281 0.92275 0.0
C2448 C 0.00761 0.37141 0.93943 0.0
H2449 H 0.01057 0.42111 0.93692 0.0
C2450 C 0.00473 0.371 0.95902 0.0
C2451 C 0.00976 0.38969 0.93132 0.0
C2452 C 0.01375 0.39124 0.91058 0.0
C2453 C 0.00392 0.38836 0.9707 0.0
C2454 C 0.00614 0.40659 0.9626 0.0
C2455 C 0.00875 0.40703 0.943 0.0
C2456 C 0.00682 0.42553 0.97444 0.0
C2457 C 0.00061 0.38713 0.99162 0.0
C2458 C 0.99264 0.43694 0.972 0.0
C2459 C 0.99382 0.45527 0.98267 0.0
C2460 C 0.00937 0.46258 0.99573 0.0
C2461 C 0.02346 0.45098 0.99817 0.0
C2462 C 0.02218 0.43263 0.98763 0.0
H2463 H 0.99501 0.37175 0.99472 0.0
H2464 H 0.01422 0.39226 0.00014 0.0
H2465 H 0.99052 0.39683 0.9964 0.0
H2466 H 0.98073 0.43169 0.96178 0.0
H2467 H 0.98277 0.46387 0.98039 0.0
H2468 H 0.96978 0.80164 0.15851 0.0
H2469 H 0.94133 0.80386 0.17588 0.0
H2470 H 0.96608 0.78088 0.22421 0.0
H2471 H 0.9948 0.77914 0.2071 0.0
H2472 H 0.91655 0.77546 0.18996 0.0
H2473 H 0.95054 0.83016 0.24933 0.0
H2474 H 0.96243 0.82467 0.22796 0.0
H2475 H 0.96106 0.80835 0.24664 0.0
C2476 C 0.96915 0.79706 0.17284 0.0
C2477 C 0.98453 0.79032 0.1815 0.0
C2478 C 0.95291 0.79836 0.18275 0.0
C2479 C 0.95174 0.79293 0.20149 0.0
C2480 C 0.96689 0.78568 0.20997 0.0
H2481 H 0.85722 0.77624 0.27449 0.0
H2482 H 0.8881 0.7772 0.26063 0.0
C2483 C 0.98321 0.78452 0.20012 0.0
C2484 C 0.93446 0.79444 0.2119 0.0
H2485 H 0.91846 0.81539 0.2525 0.0
C2486 C 0.91698 0.78426 0.20358 0.0
C2487 C 0.93504 0.80599 0.22968 0.0
C2488 C 0.95324 0.81808 0.23886 0.0
C2489 C 0.9001 0.78514 0.21265 0.0
C2490 C 0.90074 0.79651 0.23044 0.0
C2491 C 0.91814 0.80666 0.23885 0.0
C2492 C 0.88328 0.79793 0.24039 0.0
C2493 C 0.88165 0.77381 0.20327 0.0
C2494 C 0.87073 0.80974 0.23391 0.0
C2495 C 0.85318 0.80933 0.24185 0.0
C2496 C 0.84795 0.79699 0.2563 0.0
C2497 C 0.86093 0.78588 0.26337 0.0
C2498 C 0.87852 0.7864 0.25549 0.0
H2499 H 0.88383 0.76386 0.19057 0.0
H2500 H 0.87373 0.76483 0.21364 0.0
H2501 H 0.87274 0.7844 0.19866 0.0
H2502 H 0.87425 0.81876 0.22228 0.0
H2503 H 0.84342 0.81801 0.23613 0.0
H2504 H 0.48828 0.33421 0.12222 0.0
H2505 H 0.48931 0.36333 0.1045 0.0
H2506 H 0.53495 0.34631 0.07274 0.0
H2507 H 0.53361 0.31685 0.09002 0.0
H2508 H 0.51699 0.39411 0.10255 0.0
H2509 H 0.499 0.35525 0.03005 0.0
H2510 H 0.49648 0.34259 0.05142 0.0
H2511 H 0.5193 0.34835 0.04164 0.0
C2512 C 0.49852 0.33667 0.11144 0.0
C2513 C 0.51081 0.32323 0.10743 0.0
C2514 C 0.49907 0.35329 0.1013 0.0
C2515 C 0.51194 0.35679 0.08701 0.0
C2516 C 0.52454 0.34362 0.08331 0.0
H2517 H 0.54649 0.4711 0.0454 0.0
H2518 H 0.54487 0.43974 0.0594 0.0
C2519 C 0.52388 0.3269 0.09332 0.0
C2520 C 0.51258 0.37461 0.07649 0.0
H2521 H 0.51017 0.39008 0.03176 0.0
C2522 C 0.51541 0.39321 0.08708 0.0
C2523 C 0.5102 0.37341 0.05631 0.0
C2524 C 0.50588 0.35382 0.04419 0.0
C2525 C 0.51627 0.41066 0.07805 0.0
C2526 C 0.51481 0.40953 0.05784 0.0
C2527 C 0.51157 0.39092 0.04724 0.0
C2528 C 0.51653 0.42756 0.04755 0.0
C2529 C 0.51841 0.43011 0.09032 0.0
C2530 C 0.50156 0.43066 0.0353 0.0
C2531 C 0.50257 0.4485 0.02698 0.0
C2532 C 0.51854 0.46351 0.03087 0.0
C2533 C 0.53387 0.45992 0.04235 0.0
C2534 C 0.53294 0.44205 0.05045 0.0
H2535 H 0.51373 0.42799 0.10496 0.0
H2536 H 0.53355 0.43723 0.09166 0.0
H2537 H 0.51011 0.44034 0.0839 0.0
H2538 H 0.48882 0.41958 0.03275 0.0
H2539 H 0.49052 0.45087 0.01823 0.0
H2540 H 0.99735 0.29668 0.35265 0.0
H2541 H 0.96791 0.3062 0.34101 0.0
H2542 H 0.93899 0.27996 0.38745 0.0
H2543 H 0.96847 0.27079 0.39942 0.0
H2544 H 0.93435 0.28293 0.32908 0.0
H2545 H 0.92426 0.33433 0.39137 0.0
H2546 H 0.94628 0.32555 0.38797 0.0
H2547 H 0.92683 0.31023 0.3977 0.0
C2548 C 0.98471 0.29295 0.36038 0.0
C2549 C 0.9852 0.28303 0.37697 0.0
C2550 C 0.96793 0.29845 0.35375 0.0
C2551 C 0.95136 0.29417 0.36359 0.0
C2552 C 0.95173 0.28391 0.37994 0.0
H2553 H 0.83348 0.29324 0.33927 0.0
H2554 H 0.86481 0.29296 0.35436 0.0
C2555 C 0.96853 0.27849 0.38664 0.0
C2556 C 0.93351 0.29966 0.35625 0.0
H2557 H 0.89783 0.32447 0.36862 0.0
C2558 C 0.92648 0.2922 0.33764 0.0
C2559 C 0.92328 0.31179 0.36746 0.0
C2560 C 0.93063 0.32111 0.38717 0.0
C2561 C 0.90921 0.29601 0.33013 0.0
C2562 C 0.89881 0.30779 0.34148 0.0
C2563 C 0.90591 0.31549 0.35999 0.0
C2564 C 0.88 0.31117 0.33456 0.0
C2565 C 0.90189 0.28689 0.31034 0.0
C2566 C 0.87822 0.32229 0.31902 0.0
C2567 C 0.86034 0.32254 0.31042 0.0
C2568 C 0.84408 0.31162 0.31725 0.0
C2569 C 0.84582 0.30174 0.3337 0.0
C2570 C 0.86367 0.30155 0.34232 0.0
H2571 H 0.91002 0.2755 0.30478 0.0
H2572 H 0.88673 0.27998 0.31031 0.0
H2573 H 0.90303 0.29863 0.3004 0.0
H2574 H 0.8907 0.32996 0.31298 0.0
H2575 H 0.85938 0.33028 0.29777 0.0
H2576 H 0.95764 0.70592 0.6099 0.0
H2577 H 0.95071 0.67412 0.59008 0.0
H2578 H 0.00233 0.68995 0.5615 0.0
H2579 H 0.00893 0.72183 0.58068 0.0
H2580 H 0.97363 0.6726 0.53664 0.0
H2581 H 0.97698 0.6281 0.59859 0.0
H2582 H 0.9594 0.64374 0.59916 0.0
H2583 H 0.9841 0.65462 0.60085 0.0
C2584 C 0.96741 0.70261 0.59928 0.0
C2585 C 0.98388 0.71627 0.59689 0.0
C2586 C 0.9635 0.68442 0.58807 0.0
C2587 C 0.97618 0.67951 0.57455 0.0
C2588 C 0.99235 0.6934 0.57185 0.0
H2589 H 0.01117 0.57602 0.53071 0.0
H2590 H 0.0029 0.60485 0.54868 0.0
C2591 C 0.99613 0.71161 0.58286 0.0
C2592 C 0.97322 0.65981 0.56347 0.0
H2593 H 0.97284 0.61086 0.56805 0.0
C2594 C 0.97322 0.65903 0.54346 0.0
C2595 C 0.97274 0.64217 0.57246 0.0
C2596 C 0.97345 0.6421 0.59394 0.0
C2597 C 0.97387 0.64132 0.53224 0.0
C2598 C 0.97389 0.62377 0.54128 0.0
C2599 C 0.97276 0.62434 0.56119 0.0
C2600 C 0.9777 0.60539 0.53079 0.0
C2601 C 0.97579 0.64189 0.51101 0.0
C2602 C 0.9661 0.59585 0.51491 0.0
C2603 C 0.97099 0.57944 0.5044 0.0
C2604 C 0.98735 0.5722 0.50987 0.0
C2605 C 0.9985 0.58132 0.52616 0.0
C2606 C 0.99374 0.59776 0.53648 0.0
H2607 H 0.97945 0.65727 0.50701 0.0
H2608 H 0.98687 0.63353 0.50605 0.0
H2609 H 0.96214 0.63495 0.50329 0.0
H2610 H 0.95341 0.60121 0.51053 0.0
H2611 H 0.96208 0.57249 0.49199 0.0
H2612 H 0.59795 0.77657 0.88079 0.0
H2613 H 0.62348 0.77226 0.85986 0.0
H2614 H 0.58275 0.7397 0.81661 0.0
H2615 H 0.55701 0.74437 0.83738 0.0
H2616 H 0.6341 0.73822 0.84481 0.0
H2617 H 0.61282 0.7813 0.78689 0.0
H2618 H 0.60281 0.78214 0.80996 0.0
H2619 H 0.59493 0.76138 0.7925 0.0
C2620 C 0.5944 0.76854 0.8668 0.0
C2621 C 0.57548 0.76089 0.86067 0.0
C2622 C 0.60901 0.76606 0.85487 0.0
C2623 C 0.605 0.75589 0.83658 0.0
C2624 C 0.58613 0.74796 0.83051 0.0
H2625 H 0.69927 0.72116 0.77411 0.0
H2626 H 0.6684 0.71963 0.78787 0.0
C2627 C 0.57146 0.75053 0.84242 0.0
C2628 C 0.62074 0.75347 0.82414 0.0
H2629 H 0.63946 0.76596 0.78217 0.0
C2630 C 0.63522 0.74416 0.83105 0.0
C2631 C 0.62221 0.76139 0.80627 0.0
C2632 C 0.60747 0.77227 0.79848 0.0
C2633 C 0.65136 0.74292 0.82079 0.0
C2634 C 0.65283 0.75079 0.8029 0.0
C2635 C 0.63818 0.75976 0.7958 0.0
C2636 C 0.67022 0.75139 0.79221 0.0
C2637 C 0.66705 0.73399 0.82964 0.0
C2638 C 0.681 0.76971 0.78915 0.0
C2639 C 0.69852 0.77065 0.7811 0.0
C2640 C 0.70564 0.75326 0.77599 0.0
C2641 C 0.69431 0.73485 0.77808 0.0
C2642 C 0.67671 0.73394 0.78603 0.0
H2643 H 0.66553 0.73272 0.84515 0.0
H2644 H 0.6667 0.71891 0.82251 0.0
H2645 H 0.68112 0.74299 0.82776 0.0
H2646 H 0.6762 0.78336 0.79371 0.0
H2647 H 0.70677 0.78509 0.77961 0.0
H2648 H 0.40791 0.52365 0.67974 0.0
H2649 H 0.42867 0.52631 0.65316 0.0
H2650 H 0.46491 0.57635 0.68455 0.0
H2651 H 0.4445 0.57329 0.71153 0.0
H2652 H 0.4388 0.55508 0.63059 0.0
H2653 H 0.50277 0.54152 0.67104 0.0
H2654 H 0.47965 0.53789 0.68056 0.0
H2655 H 0.49336 0.56239 0.68106 0.0
C2656 C 0.4203 0.53522 0.68099 0.0
C2657 C 0.42468 0.54815 0.69777 0.0
C2658 C 0.43215 0.53675 0.66577 0.0
C2659 C 0.44856 0.5513 0.66697 0.0
C2660 C 0.45263 0.56467 0.68349 0.0
H2661 H 0.53387 0.57204 0.58148 0.0
H2662 H 0.51437 0.57687 0.60881 0.0
C2663 C 0.44088 0.56299 0.69884 0.0
C2664 C 0.46132 0.55226 0.65088 0.0
H2665 H 0.5064 0.5488 0.63908 0.0
C2666 C 0.4536 0.55379 0.63249 0.0
C2667 C 0.48065 0.55054 0.65334 0.0
C2668 C 0.48959 0.54781 0.67252 0.0
C2669 C 0.46458 0.55338 0.61649 0.0
C2670 C 0.48377 0.55139 0.61895 0.0
C2671 C 0.49168 0.55044 0.63734 0.0
C2672 C 0.49546 0.54879 0.60243 0.0
C2673 C 0.45551 0.55474 0.59701 0.0
C2674 C 0.49143 0.5313 0.5901 0.0
C2675 C 0.50264 0.52842 0.57475 0.0
C2676 C 0.51793 0.5431 0.5713 0.0
C2677 C 0.52209 0.56056 0.58377 0.0
C2678 C 0.51097 0.56334 0.59931 0.0
H2679 H 0.4423 0.56103 0.598 0.0
H2680 H 0.46542 0.56395 0.58833 0.0
H2681 H 0.45183 0.53967 0.5894 0.0
H2682 H 0.47974 0.51975 0.59251 0.0
H2683 H 0.4994 0.51461 0.56566 0.0
H2684 H 0.76417 0.19867 0.00395 0.0
H2685 H 0.76259 0.22002 0.97811 0.0
H2686 H 0.79685 0.1861 0.94458 0.0
H2687 H 0.7984 0.16457 0.9703 0.0
H2688 H 0.79251 0.24314 0.95916 0.0
H2689 H 0.74738 0.18367 0.91077 0.0
H2690 H 0.75083 0.18204 0.93611 0.0
H2691 H 0.76892 0.17735 0.92037 0.0
C2692 C 0.77144 0.19582 0.9911 0.0
C2693 C 0.78128 0.17987 0.98904 0.0
C2694 C 0.77057 0.20805 0.97641 0.0
C2695 C 0.77942 0.20445 0.95942 0.0
C2696 C 0.78972 0.18891 0.95753 0.0
H2697 H 0.79893 0.27435 0.86367 0.0
H2698 H 0.80222 0.25899 0.89346 0.0
C2699 C 0.79063 0.17668 0.97222 0.0
C2700 C 0.7773 0.21652 0.9434 0.0
H2701 H 0.7585 0.21367 0.8977 0.0
C2702 C 0.78505 0.23677 0.94571 0.0
C2703 C 0.76732 0.20814 0.92604 0.0
C2704 C 0.75797 0.18665 0.92314 0.0
C2705 C 0.78338 0.24883 0.93088 0.0
C2706 C 0.77385 0.24031 0.91333 0.0
C2707 C 0.76585 0.22013 0.91117 0.0
C2708 C 0.77206 0.25186 0.89682 0.0
C2709 C 0.79159 0.2706 0.93415 0.0
C2710 C 0.75404 0.25299 0.88894 0.0
C2711 C 0.75214 0.26162 0.87191 0.0
C2712 C 0.76824 0.26917 0.86249 0.0
C2713 C 0.7863 0.26873 0.87075 0.0
C2714 C 0.7882 0.26006 0.88779 0.0
H2715 H 0.79409 0.2757 0.94962 0.0
H2716 H 0.80537 0.2734 0.92744 0.0
H2717 H 0.78206 0.27957 0.92755 0.0
H2718 H 0.74143 0.24666 0.89568 0.0
H2719 H 0.73805 0.26176 0.86581 0.0
H2720 H 0.11722 0.50941 0.1875 0.0
H2721 H 0.0966 0.50191 0.15836 0.0
H2722 H 0.07146 0.44612 0.1775 0.0
H2723 H 0.09212 0.45358 0.20695 0.0
H2724 H 0.09216 0.46712 0.13008 0.0
H2725 H 0.02639 0.47614 0.1668 0.0
H2726 H 0.04958 0.48592 0.17805 0.0
H2727 H 0.04109 0.45975 0.17554 0.0
C2728 C 0.10738 0.4955 0.18551 0.0
C2729 C 0.10619 0.48212 0.19953 0.0
C2730 C 0.09566 0.49121 0.16884 0.0
C2731 C 0.08247 0.47354 0.16589 0.0
C2732 C 0.08146 0.45991 0.17964 0.0
H2733 H 0.99761 0.46947 0.06986 0.0
H2734 H 0.0142 0.45596 0.09569 0.0
C2735 C 0.09328 0.46417 0.19638 0.0
C2736 C 0.06951 0.47012 0.14859 0.0
H2737 H 0.02508 0.47552 0.13341 0.0
C2738 C 0.07735 0.46843 0.13075 0.0
C2739 C 0.05018 0.47165 0.14956 0.0
C2740 C 0.04119 0.47353 0.16846 0.0
C2741 C 0.06671 0.46971 0.11389 0.0
C2742 C 0.0479 0.47307 0.11502 0.0
C2743 C 0.03954 0.473 0.13266 0.0
C2744 C 0.03801 0.48019 0.09888 0.0
C2745 C 0.076 0.46854 0.09511 0.0
C2746 C 0.04573 0.49841 0.09256 0.0
C2747 C 0.03627 0.50619 0.07817 0.0
C2748 C 0.01892 0.49585 0.06972 0.0
C2749 C 0.01103 0.47765 0.07611 0.0
C2750 C 0.02049 0.46991 0.09074 0.0
H2751 H 0.08753 0.45969 0.09565 0.0
H2752 H 0.06552 0.46191 0.08323 0.0
H2753 H 0.08236 0.48369 0.092 0.0
H2754 H 0.05898 0.50683 0.09902 0.0
H2755 H 0.04257 0.52037 0.0737 0.0
H2756 H 0.75912 0.89106 0.46744 0.0
H2757 H 0.76087 0.87629 0.43486 0.0
H2758 H 0.76229 0.81965 0.456 0.0
H2759 H 0.761 0.8345 0.4888 0.0
H2760 H 0.78859 0.82806 0.42983 0.0
H2761 H 0.71896 0.8409 0.4017 0.0
H2762 H 0.73378 0.86321 0.41226 0.0
H2763 H 0.72573 0.84367 0.42692 0.0
C2764 C 0.75968 0.87543 0.46516 0.0
C2765 C 0.7598 0.8639 0.48067 0.0
C2766 C 0.76058 0.86698 0.4465 0.0
C2767 C 0.76135 0.84678 0.44293 0.0
C2768 C 0.76159 0.83525 0.45841 0.0
H2769 H 0.7419 0.78388 0.3293 0.0
H2770 H 0.74047 0.79537 0.36291 0.0
C2771 C 0.7608 0.84373 0.47712 0.0
C2772 C 0.76238 0.83787 0.42309 0.0
H2773 H 0.74003 0.83182 0.37859 0.0
C2774 C 0.77791 0.82875 0.41864 0.0
C2775 C 0.74831 0.83851 0.40855 0.0
C2776 C 0.73066 0.84692 0.41261 0.0
C2777 C 0.77996 0.82066 0.39996 0.0
C2778 C 0.76633 0.82215 0.38525 0.0
C2779 C 0.7506 0.83088 0.3898 0.0
C2780 C 0.76787 0.81452 0.36505 0.0
C2781 C 0.79654 0.81034 0.39628 0.0
C2782 C 0.78376 0.82146 0.35499 0.0
C2783 C 0.78471 0.81477 0.33574 0.0
C2784 C 0.76963 0.80125 0.32611 0.0
C2785 C 0.75375 0.79435 0.33624 0.0
C2786 C 0.7529 0.8009 0.35548 0.0
H2787 H 0.80224 0.80534 0.40959 0.0
H2788 H 0.79251 0.79731 0.38554 0.0
H2789 H 0.80807 0.82079 0.39071 0.0
H2790 H 0.79529 0.83235 0.36191 0.0
H2791 H 0.79707 0.8205 0.32833 0.0
H2792 H 0.39099 0.53856 0.81355 0.0
H2793 H 0.404 0.53192 0.84457 0.0
H2794 H 0.45493 0.52057 0.81878 0.0
H2795 H 0.44198 0.52712 0.78763 0.0
H2796 H 0.43815 0.49118 0.84287 0.0
H2797 H 0.44751 0.56781 0.87838 0.0
H2798 H 0.42443 0.55829 0.86705 0.0
H2799 H 0.44459 0.56236 0.85273 0.0
C2800 C 0.40502 0.5348 0.8145 0.0
C2801 C 0.41551 0.53345 0.79818 0.0
C2802 C 0.41244 0.53106 0.83224 0.0
C2803 C 0.43048 0.52595 0.83397 0.0
C2804 C 0.44099 0.52457 0.81772 0.0
H2805 H 0.50068 0.49617 0.92663 0.0
H2806 H 0.4857 0.49936 0.89542 0.0
C2807 C 0.43361 0.52838 0.79997 0.0
C2808 C 0.4382 0.52167 0.8527 0.0
H2809 H 0.45251 0.5427 0.89785 0.0
C2810 C 0.44136 0.50243 0.85491 0.0
C2811 C 0.44226 0.53637 0.86834 0.0
C2812 C 0.43969 0.55742 0.86656 0.0
C2813 C 0.44824 0.49741 0.87249 0.0
C2814 C 0.45241 0.51215 0.88812 0.0
C2815 C 0.44922 0.53139 0.88588 0.0
C2816 C 0.46059 0.50823 0.90683 0.0
C2817 C 0.45059 0.4763 0.87425 0.0
C2818 C 0.4515 0.5122 0.92364 0.0
C2819 C 0.46011 0.51055 0.94149 0.0
C2820 C 0.47799 0.50496 0.94282 0.0
C2821 C 0.48681 0.50035 0.92599 0.0
C2822 C 0.47822 0.50208 0.90814 0.0
H2823 H 0.44167 0.46589 0.86315 0.0
H2824 H 0.46559 0.47497 0.87232 0.0
H2825 H 0.44688 0.47173 0.88855 0.0
H2826 H 0.43792 0.51703 0.92296 0.0
H2827 H 0.45305 0.51425 0.95425 0.0
H2828 H 0.80898 0.19741 0.07626 0.0
H2829 H 0.81023 0.2184 0.10637 0.0
H2830 H 0.76644 0.17571 0.12698 0.0
H2831 H 0.76552 0.1544 0.09716 0.0
H2832 H 0.78249 0.23569 0.12186 0.0
H2833 H 0.806 0.18467 0.17089 0.0
H2834 H 0.80666 0.18052 0.14528 0.0
H2835 H 0.78478 0.17405 0.15662 0.0
C2836 C 0.79979 0.1924 0.08731 0.0
C2837 C 0.78726 0.17423 0.08446 0.0
C2838 C 0.80046 0.20443 0.10445 0.0
C2839 C 0.78859 0.1985 0.11898 0.0
C2840 C 0.77603 0.18036 0.11613 0.0
H2841 H 0.7663 0.2783 0.2162 0.0
H2842 H 0.76322 0.25733 0.18574 0.0
C2843 C 0.77548 0.16824 0.09907 0.0
C2844 C 0.78904 0.21157 0.1369 0.0
H2845 H 0.79641 0.21349 0.18529 0.0
C2846 C 0.78558 0.23089 0.13575 0.0
C2847 C 0.7932 0.20526 0.15495 0.0
C2848 C 0.79805 0.18506 0.15706 0.0
C2849 C 0.78624 0.24414 0.15219 0.0
C2850 C 0.79002 0.23769 0.17026 0.0
C2851 C 0.79337 0.21833 0.1714 0.0
C2852 C 0.79172 0.25103 0.18815 0.0
C2853 C 0.78343 0.26505 0.14999 0.0
C2854 C 0.80863 0.25424 0.19962 0.0
C2855 C 0.81022 0.26578 0.21707 0.0
C2856 C 0.79494 0.27435 0.22338 0.0
C2857 C 0.77817 0.27163 0.2117 0.0
C2858 C 0.77649 0.25986 0.19425 0.0
H2859 H 0.78545 0.26896 0.13515 0.0
H2860 H 0.76879 0.26652 0.15346 0.0
H2861 H 0.79341 0.27583 0.15989 0.0
H2862 H 0.82055 0.24759 0.19517 0.0
H2863 H 0.82334 0.26764 0.22579 0.0
H2864 H 0.08478 0.51695 0.28048 0.0
H2865 H 0.0638 0.51801 0.30692 0.0
H2866 H 0.0868 0.47098 0.3307 0.0
H2867 H 0.10786 0.46979 0.30432 0.0
H2868 H 0.03628 0.48592 0.3226 0.0
H2869 H 0.09829 0.52122 0.37147 0.0
H2870 H 0.09886 0.52044 0.34579 0.0
H2871 H 0.10046 0.49865 0.35751 0.0
C2872 C 0.08519 0.50665 0.29121 0.0
C2873 C 0.09807 0.49342 0.29048 0.0
C2874 C 0.07316 0.50723 0.30622 0.0
C2875 C 0.07392 0.49468 0.32075 0.0
C2876 C 0.08614 0.48084 0.31962 0.0
H2877 H 0.00813 0.48245 0.42127 0.0
H2878 H 0.02137 0.4761 0.39024 0.0
C2879 C 0.09813 0.48019 0.30457 0.0
C2880 C 0.06313 0.49726 0.33787 0.0
H2881 H 0.06875 0.51471 0.385 0.0
C2882 C 0.04331 0.49213 0.33629 0.0
C2883 C 0.07244 0.5056 0.35556 0.0
C2884 C 0.09367 0.51196 0.35779 0.0
C2885 C 0.03251 0.49504 0.35213 0.0
C2886 C 0.04187 0.50324 0.36985 0.0
C2887 C 0.06167 0.50839 0.37136 0.0
C2888 C 0.03153 0.50701 0.38708 0.0
C2889 C 0.01122 0.48974 0.3498 0.0
C2890 C 0.03275 0.52647 0.3954 0.0
C2891 C 0.02528 0.53011 0.41306 0.0
C2892 C 0.01659 0.51432 0.42272 0.0
C2893 C 0.0147 0.49487 0.41404 0.0
C2894 C 0.02217 0.49123 0.39632 0.0
H2895 H 0.00606 0.48702 0.33451 0.0
H2896 H 0.00644 0.4761 0.35681 0.0
H2897 H 0.00462 0.50173 0.35679 0.0
H2898 H 0.04001 0.5388 0.38849 0.0
H2899 H 0.02692 0.54523 0.41946 0.0
H2900 H 0.73196 0.83477 0.5699 0.0
H2901 H 0.72865 0.81561 0.59769 0.0
H2902 H 0.77408 0.85726 0.62832 0.0
H2903 H 0.77721 0.87663 0.6008 0.0
H2904 H 0.75455 0.79731 0.61549 0.0
H2905 H 0.73333 0.85424 0.66653 0.0
H2906 H 0.73326 0.85629 0.64112 0.0
H2907 H 0.75499 0.86301 0.65578 0.0
C2908 C 0.74117 0.83988 0.5826 0.0
C2909 C 0.75478 0.85727 0.58321 0.0
C2910 C 0.73926 0.82893 0.59846 0.0
C2911 C 0.75087 0.8352 0.61522 0.0
C2912 C 0.76463 0.85241 0.61574 0.0
H2913 H 0.77713 0.79096 0.72143 0.0
H2914 H 0.77456 0.80932 0.69351 0.0
C2915 C 0.7665 0.86339 0.59994 0.0
C2916 C 0.74913 0.82339 0.63194 0.0
H2917 H 0.74315 0.82665 0.67996 0.0
C2918 C 0.75182 0.80364 0.62954 0.0
C2919 C 0.74551 0.83166 0.65026 0.0
C2920 C 0.74141 0.8524 0.65358 0.0
C2921 C 0.75173 0.79218 0.6451 0.0
C2922 C 0.74866 0.80064 0.6635 0.0
C2923 C 0.74556 0.82023 0.66584 0.0
C2924 C 0.74955 0.78971 0.68065 0.0
C2925 C 0.75561 0.77134 0.6419 0.0
C2926 C 0.73615 0.77276 0.68281 0.0
C2927 C 0.7375 0.76231 0.69887 0.0
C2928 C 0.75225 0.76869 0.71299 0.0
C2929 C 0.76549 0.7858 0.71088 0.0
C2930 C 0.76409 0.79627 0.69491 0.0
H2931 H 0.76117 0.76832 0.62766 0.0
H2932 H 0.76597 0.76857 0.65309 0.0
H2933 H 0.74226 0.76072 0.6428 0.0
H2934 H 0.72468 0.76762 0.67207 0.0
H2935 H 0.72708 0.74919 0.70017 0.0
H2936 H 0.68644 0.40309 0.49991 0.0
H2937 H 0.66669 0.42875 0.50188 0.0
H2938 H 0.71232 0.46932 0.53342 0.0
H2939 H 0.73222 0.44379 0.5314 0.0
H2940 H 0.65644 0.44856 0.53588 0.0
H2941 H 0.69617 0.50065 0.48968 0.0
H2942 H 0.6991 0.47513 0.4895 0.0
H2943 H 0.70991 0.49295 0.50868 0.0
C2944 C 0.69228 0.41749 0.50719 0.0
C2945 C 0.71086 0.42146 0.51547 0.0
C2946 C 0.68101 0.43212 0.5083 0.0
C2947 C 0.68816 0.45096 0.51758 0.0
C2948 C 0.70668 0.45496 0.52591 0.0
H2949 H 0.61249 0.53276 0.55143 0.0
H2950 H 0.64007 0.51613 0.55141 0.0
C2951 C 0.71796 0.44033 0.52484 0.0
C2952 C 0.67591 0.46613 0.51911 0.0
H2953 H 0.67011 0.51085 0.50463 0.0
C2954 C 0.65946 0.46224 0.52916 0.0
C2955 C 0.67993 0.48388 0.51022 0.0
C2956 C 0.69715 0.48843 0.49877 0.0
C2957 C 0.64674 0.47553 0.53038 0.0
C2958 C 0.65075 0.49331 0.52153 0.0
C2959 C 0.66728 0.49732 0.5116 0.0
C2960 C 0.63696 0.50691 0.52108 0.0
C2961 C 0.62875 0.47011 0.54054 0.0
C2962 C 0.62686 0.50815 0.50384 0.0
C2963 C 0.61121 0.51767 0.50381 0.0
C2964 C 0.60549 0.52609 0.52101 0.0
C2965 C 0.61659 0.52632 0.53799 0.0
C2966 C 0.63226 0.51677 0.53802 0.0
H2967 H 0.62625 0.45436 0.5436 0.0
H2968 H 0.62973 0.47947 0.55434 0.0
H2969 H 0.61633 0.47283 0.53187 0.0
H2970 H 0.63034 0.50067 0.49062 0.0
H2971 H 0.60291 0.51735 0.49051 0.0
H2972 H 0.2245 0.09138 0.47973 0.0
H2973 H 0.19257 0.07144 0.47853 0.0
H2974 H 0.17588 0.114 0.52007 0.0
H2975 H 0.20754 0.13401 0.52125 0.0
H2976 H 0.17246 0.05467 0.50918 0.0
H2977 H 0.13536 0.1085 0.47574 0.0
H2978 H 0.1607 0.10988 0.47571 0.0
H2979 H 0.15015 0.1189 0.49666 0.0
C2980 C 0.21398 0.09651 0.48853 0.0
C2981 C 0.21847 0.11432 0.50049 0.0
C2982 C 0.19579 0.08509 0.48787 0.0
C2983 C 0.18182 0.0914 0.49902 0.0
C2984 C 0.18636 0.10906 0.5111 0.0
H2985 H 0.06527 0.05268 0.52112 0.0
H2986 H 0.09847 0.06859 0.52132 0.0
C2987 C 0.20449 0.12043 0.5118 0.0
C2988 C 0.1625 0.07952 0.4983 0.0
H2989 H 0.11599 0.08196 0.48882 0.0
C2990 C 0.1601 0.06051 0.50456 0.0
C2991 C 0.14644 0.08722 0.49224 0.0
C2992 C 0.14824 0.10717 0.48453 0.0
C2993 C 0.14194 0.04926 0.50558 0.0
C2994 C 0.12588 0.05717 0.49992 0.0
C2995 C 0.12834 0.076 0.49329 0.0
C2996 C 0.1063 0.04639 0.50099 0.0
C2997 C 0.14006 0.02931 0.51326 0.0
C2998 C 0.09975 0.02851 0.48965 0.0
C2999 C 0.08077 0.01936 0.48955 0.0
C3000 C 0.06805 0.02804 0.50068 0.0
C3001 C 0.07476 0.04566 0.51239 0.0
C3002 C 0.0937 0.05477 0.5125 0.0
H3003 H 0.15334 0.02735 0.52098 0.0
H3004 H 0.12835 0.02726 0.5231 0.0
H3005 H 0.13673 0.01753 0.50119 0.0
H3006 H 0.10916 0.02197 0.48043 0.0
H3007 H 0.07594 0.00582 0.48034 0.0
H3008 H 0.15627 0.94621 0.76566 0.0
H3009 H 0.17509 0.91988 0.76153 0.0
H3010 H 0.22425 0.95963 0.78776 0.0
H3011 H 0.20548 0.98608 0.79203 0.0
H3012 H 0.20932 0.9206 0.74125 0.0
H3013 H 0.21994 0.9102 0.81829 0.0
H3014 H 0.20178 0.92285 0.80947 0.0
H3015 H 0.22605 0.93507 0.81181 0.0
C3016 C 0.17107 0.94934 0.77061 0.0
C3017 C 0.17938 0.96818 0.77925 0.0
C3018 C 0.1818 0.9343 0.7682 0.0
C3019 C 0.201 0.93777 0.77451 0.0
C3020 C 0.20939 0.95659 0.78305 0.0
H3021 H 0.27875 0.85271 0.7764 0.0
H3022 H 0.2661 0.88359 0.77868 0.0
C3023 C 0.19867 0.97168 0.78541 0.0
C3024 C 0.21216 0.92164 0.77192 0.0
H3025 H 0.23418 0.89042 0.79631 0.0
C3026 C 0.21484 0.91404 0.75327 0.0
C3027 C 0.21946 0.91325 0.78764 0.0
C3028 C 0.21661 0.9206 0.80796 0.0
C3029 C 0.22448 0.89811 0.74991 0.0
C3030 C 0.23123 0.88926 0.76563 0.0
C3031 C 0.229 0.89722 0.78428 0.0
C3032 C 0.23953 0.87098 0.76307 0.0
C3033 C 0.22738 0.89095 0.72955 0.0
C3034 C 0.2288 0.85364 0.75355 0.0
C3035 C 0.23598 0.83602 0.75216 0.0
C3036 C 0.25401 0.83528 0.76045 0.0
C3037 C 0.26485 0.85274 0.7698 0.0
C3038 C 0.25763 0.87041 0.77115 0.0
H3039 H 0.22708 0.90283 0.7199 0.0
H3040 H 0.24106 0.88561 0.72842 0.0
H3041 H 0.21577 0.87853 0.72445 0.0
H3042 H 0.21462 0.85359 0.7476 0.0
H3043 H 0.22716 0.82289 0.74493 0.0
H3044 H 0.30037 0.91258 0.97809 0.0
H3045 H 0.33203 0.93223 0.97673 0.0
H3046 H 0.33511 0.94594 0.03792 0.0
H3047 H 0.30365 0.92604 0.03945 0.0
H3048 H 0.34535 0.97221 0.98856 0.0
H3049 H 0.38332 0.92344 0.02867 0.0
H3050 H 0.35919 0.91582 0.0191 0.0
H3051 H 0.36435 0.93174 0.04102 0.0
C3052 C 0.30784 0.91974 0.99125 0.0
C3053 C 0.29966 0.91767 0.0089 0.0
C3054 C 0.32586 0.93097 0.99044 0.0
C3055 C 0.33596 0.94025 0.00725 0.0
C3056 C 0.32767 0.93853 0.02484 0.0
H3057 H 0.44706 0.01124 0.03276 0.0
H3058 H 0.41398 0.99553 0.03351 0.0
C3059 C 0.30969 0.92723 0.02568 0.0
C3060 C 0.35519 0.95174 0.00639 0.0
H3061 H 0.4012 0.95409 0.02209 0.0
C3062 C 0.35759 0.96825 0.99582 0.0
C3063 C 0.37108 0.94644 0.01587 0.0
C3064 C 0.36945 0.92829 0.02666 0.0
C3065 C 0.37552 0.97982 0.99472 0.0
C3066 C 0.39135 0.97457 0.00431 0.0
C3067 C 0.38894 0.95809 0.01487 0.0
C3068 C 0.41068 0.98569 0.00333 0.0
C3069 C 0.37741 0.99772 0.98359 0.0
C3070 C 0.41965 0.98541 0.98604 0.0
C3071 C 0.43859 0.9943 0.98553 0.0
C3072 C 0.44886 0.00355 0.00234 0.0
C3073 C 0.43961 0.00424 0.01954 0.0
C3074 C 0.42071 0.99529 0.02003 0.0
H3075 H 0.36351 0.00222 0.98064 0.0
H3076 H 0.38717 0.01042 0.99146 0.0
H3077 H 0.38342 0.99421 0.9697 0.0
H3078 H 0.41217 0.97778 0.97306 0.0
H3079 H 0.44526 0.99351 0.97204 0.0
H3080 H 0.85645 0.55325 0.77658 0.0
H3081 H 0.83098 0.57219 0.77243 0.0
H3082 H 0.87217 0.62381 0.76429 0.0
H3083 H 0.89776 0.6051 0.76909 0.0
H3084 H 0.84714 0.63235 0.78902 0.0
H3085 H 0.80874 0.58928 0.72449 0.0
H3086 H 0.81145 0.57452 0.74386 0.0
H3087 H 0.83205 0.58604 0.73276 0.0
C3088 C 0.86005 0.56861 0.77377 0.0
C3089 C 0.87906 0.57774 0.77314 0.0
C3090 C 0.84548 0.57935 0.77125 0.0
C3091 C 0.84966 0.5993 0.76771 0.0
C3092 C 0.86864 0.60839 0.76693 0.0
H3093 H 0.78018 0.67827 0.72837 0.0
H3094 H 0.79844 0.65173 0.7312 0.0
C3095 C 0.88323 0.59772 0.76967 0.0
C3096 C 0.83437 0.61106 0.76587 0.0
H3097 H 0.79356 0.61372 0.74021 0.0
C3098 C 0.83542 0.62829 0.77834 0.0
C3099 C 0.81919 0.60576 0.75183 0.0
C3100 C 0.81784 0.588 0.73735 0.0
C3101 C 0.82185 0.64054 0.77706 0.0
C3102 C 0.80639 0.63501 0.76334 0.0
C3103 C 0.80524 0.61771 0.75093 0.0
C3104 C 0.7923 0.64802 0.76064 0.0
C3105 C 0.82468 0.65969 0.78992 0.0
C3106 C 0.78192 0.6539 0.77591 0.0
C3107 C 0.77171 0.66928 0.77441 0.0
C3108 C 0.77145 0.67861 0.75748 0.0
C3109 C 0.78022 0.67133 0.7416 0.0
C3110 C 0.79066 0.65618 0.7432 0.0
H3111 H 0.83947 0.66394 0.79612 0.0
H3112 H 0.82121 0.67198 0.78201 0.0
H3113 H 0.81521 0.65791 0.80192 0.0
H3114 H 0.78258 0.64738 0.78932 0.0
H3115 H 0.7649 0.67454 0.7868 0.0
H3116 H 0.83887 0.64139 0.00616 0.0
H3117 H 0.86455 0.62227 0.00676 0.0
H3118 H 0.82384 0.56864 0.0084 0.0
H3119 H 0.79803 0.58765 0.00726 0.0
H3120 H 0.8748 0.60041 0.03371 0.0
H3121 H 0.85552 0.55266 0.96565 0.0
H3122 H 0.84487 0.57405 0.97193 0.0
H3123 H 0.83684 0.55112 0.98187 0.0
C3124 C 0.83538 0.6255 0.00654 0.0
C3125 C 0.81644 0.616 0.00659 0.0
C3126 C 0.85007 0.61459 0.00688 0.0
C3127 C 0.84613 0.59397 0.00732 0.0
C3128 C 0.82721 0.58446 0.00757 0.0
H3129 H 0.93207 0.52714 0.04296 0.0
H3130 H 0.90347 0.54182 0.04006 0.0
C3131 C 0.81248 0.59535 0.00707 0.0
C3132 C 0.86192 0.58266 0.00827 0.0
H3133 H 0.88009 0.54471 0.98573 0.0
C3134 C 0.87596 0.58824 0.0232 0.0
C3135 C 0.86355 0.56694 0.99442 0.0
C3136 C 0.8495 0.56093 0.97745 0.0
C3137 C 0.89153 0.57854 0.02472 0.0
C3138 C 0.89286 0.56242 0.01122 0.0
C3139 C 0.8789 0.5569 0.9962 0.0
C3140 C 0.90901 0.55163 0.01214 0.0
C3141 C 0.90666 0.58601 0.0405 0.0
C3142 C 0.9211 0.55137 0.99699 0.0
C3143 C 0.9373 0.54273 0.99851 0.0
C3144 C 0.94165 0.53425 0.01521 0.0
C3145 C 0.9291 0.53371 0.02999 0.0
C3146 C 0.91284 0.54221 0.0284 0.0
H3147 H 0.90611 0.60142 0.04629 0.0
H3148 H 0.90449 0.57647 0.0524 0.0
H3149 H 0.921 0.58557 0.03537 0.0
H3150 H 0.91834 0.55845 0.98426 0.0
H3151 H 0.94674 0.54333 0.9869 0.0
H3152 H 0.19811 0.06483 0.8164 0.0
H3153 H 0.21695 0.09841 0.81962 0.0
H3154 H 0.18454 0.113 0.77151 0.0
H3155 H 0.16572 0.07976 0.76827 0.0
H3156 H 0.23894 0.11708 0.79148 0.0
H3157 H 0.18231 0.15842 0.81287 0.0
H3158 H 0.18037 0.13212 0.81436 0.0
H3159 H 0.17566 0.14143 0.79188 0.0
C3160 C 0.19497 0.07526 0.8066 0.0
C3161 C 0.18042 0.06971 0.79213 0.0
C3162 C 0.20571 0.0944 0.80846 0.0
C3163 C 0.20188 0.10826 0.79601 0.0
C3164 C 0.18743 0.10266 0.78152 0.0
H3165 H 0.24508 0.22154 0.76149 0.0
H3166 H 0.22751 0.18919 0.7675 0.0
C3167 C 0.17678 0.08361 0.77962 0.0
C3168 C 0.21343 0.12835 0.7974 0.0
H3169 H 0.20986 0.17726 0.80102 0.0
C3170 C 0.23271 0.13029 0.79389 0.0
C3171 C 0.20521 0.14549 0.80056 0.0
C3172 C 0.18479 0.14432 0.80532 0.0
C3173 C 0.24378 0.14892 0.79243 0.0
C3174 C 0.23534 0.16601 0.79485 0.0
C3175 C 0.21624 0.16411 0.79908 0.0
C3176 C 0.24576 0.18587 0.79186 0.0
C3177 C 0.26413 0.15011 0.78739 0.0
C3178 C 0.26165 0.19483 0.80378 0.0
C3179 C 0.2717 0.21333 0.80039 0.0
C3180 C 0.26592 0.22315 0.78509 0.0
C3181 C 0.2498 0.21431 0.77341 0.0
C3182 C 0.23978 0.19585 0.77682 0.0
H3183 H 0.26735 0.13538 0.78235 0.0
H3184 H 0.26746 0.16025 0.77611 0.0
H3185 H 0.27359 0.15606 0.80024 0.0
H3186 H 0.2663 0.1875 0.81566 0.0
H3187 H 0.28402 0.2199 0.80966 0.0
H3188 H 0.3692 0.00263 0.31435 0.0
H3189 H 0.34845 0.97125 0.31811 0.0
H3190 H 0.38095 0.94068 0.27922 0.0
H3191 H 0.40187 0.97191 0.27558 0.0
H3192 H 0.32635 0.94692 0.28925 0.0
H3193 H 0.3768 0.90666 0.32406 0.0
H3194 H 0.38168 0.93311 0.32294 0.0
H3195 H 0.38523 0.91662 0.30267 0.0
C3196 C 0.37207 0.98917 0.30682 0.0
C3197 C 0.38717 0.98968 0.29471 0.0
C3198 C 0.3602 0.97129 0.30895 0.0
C3199 C 0.36332 0.95364 0.29912 0.0
C3200 C 0.37855 0.95408 0.28724 0.0
H3201 H 0.28859 0.84549 0.26146 0.0
H3202 H 0.30708 0.87891 0.26574 0.0
C3203 C 0.39042 0.97194 0.2851 0.0
C3204 C 0.34999 0.93495 0.30028 0.0
H3205 H 0.34788 0.88704 0.30999 0.0
C3206 C 0.33098 0.93388 0.294 0.0
C3207 C 0.35602 0.91806 0.30674 0.0
C3208 C 0.376 0.91867 0.31467 0.0
C3209 C 0.318 0.91609 0.29326 0.0
C3210 C 0.32431 0.89892 0.29865 0.0
C3211 C 0.34312 0.9002 0.30568 0.0
C3212 C 0.31191 0.87928 0.29636 0.0
C3213 C 0.29767 0.91584 0.28666 0.0
C3214 C 0.30866 0.86833 0.31214 0.0
C3215 C 0.29822 0.84913 0.30973 0.0
C3216 C 0.29094 0.84049 0.29146 0.0
C3217 C 0.29392 0.85168 0.27574 0.0
C3218 C 0.30439 0.87086 0.27817 0.0
H3219 H 0.29392 0.93084 0.28869 0.0
H3220 H 0.29561 0.91074 0.27119 0.0
H3221 H 0.28779 0.9056 0.29446 0.0
H3222 H 0.31444 0.87455 0.32628 0.0
H3223 H 0.2962 0.84096 0.32216 0.0
H3224 H 0.5648 0.33491 0.60696 0.0
H3225 H 0.56425 0.36096 0.58546 0.0
H3226 H 0.50734 0.36537 0.60011 0.0
H3227 H 0.50771 0.33929 0.62152 0.0
H3228 H 0.51411 0.36473 0.55951 0.0
H3229 H 0.56648 0.42003 0.6056 0.0
H3230 H 0.57333 0.39656 0.59904 0.0
H3231 H 0.55408 0.39779 0.61427 0.0
C3232 C 0.55216 0.34139 0.60554 0.0
C3233 C 0.53634 0.33519 0.616 0.0
C3234 C 0.55188 0.35627 0.59331 0.0
C3235 C 0.53582 0.36516 0.59139 0.0
C3236 C 0.51987 0.35867 0.60145 0.0
H3237 H 0.4984 0.46071 0.54023 0.0
H3238 H 0.50116 0.42946 0.55291 0.0
C3239 C 0.52013 0.34384 0.61371 0.0
C3240 C 0.53576 0.38169 0.57938 0.0
H3241 H 0.55467 0.43027 0.57721 0.0
C3242 C 0.52304 0.37905 0.56326 0.0
C3243 C 0.5475 0.40027 0.58434 0.0
C3244 C 0.56105 0.404 0.60182 0.0
C3245 C 0.52164 0.39463 0.55201 0.0
C3246 C 0.53297 0.41339 0.5573 0.0
C3247 C 0.54602 0.41586 0.57315 0.0
C3248 C 0.53079 0.43106 0.54745 0.0
C3249 C 0.5081 0.39082 0.53454 0.0
C3250 C 0.54656 0.44241 0.54022 0.0
C3251 C 0.54509 0.46043 0.53314 0.0
C3252 C 0.52782 0.46747 0.53324 0.0
C3253 C 0.51188 0.45571 0.53984 0.0
C3254 C 0.5134 0.43774 0.54699 0.0
H3255 H 0.5053 0.37492 0.52904 0.0
H3256 H 0.49439 0.39499 0.53839 0.0
H3257 H 0.51365 0.3997 0.52294 0.0
H3258 H 0.56014 0.43756 0.54053 0.0
H3259 H 0.55764 0.46908 0.52812 0.0
H3260 H 0.44302 0.71969 0.36106 0.0
H3261 H 0.41144 0.71721 0.34531 0.0
H3262 H 0.42991 0.77205 0.32092 0.0
H3263 H 0.46147 0.77436 0.33615 0.0
H3264 H 0.38696 0.74233 0.35098 0.0
H3265 H 0.40353 0.73793 0.27498 0.0
H3266 H 0.42016 0.73428 0.29375 0.0
H3267 H 0.41801 0.7589 0.28834 0.0
C3268 C 0.44041 0.73101 0.35204 0.0
C3269 C 0.45473 0.74717 0.34975 0.0
C3270 C 0.42237 0.7296 0.3431 0.0
C3271 C 0.41838 0.74429 0.3317 0.0
C3272 C 0.43277 0.76027 0.32922 0.0
H3273 H 0.31502 0.78598 0.30831 0.0
H3274 H 0.34408 0.77764 0.32226 0.0
C3275 C 0.45079 0.76163 0.33804 0.0
C3276 C 0.39892 0.7438 0.32347 0.0
H3277 H 0.37424 0.7488 0.28219 0.0
C3278 C 0.3841 0.74343 0.33588 0.0
C3279 C 0.3951 0.74487 0.30373 0.0
C3280 C 0.41002 0.7438 0.28942 0.0
C3281 C 0.36577 0.7451 0.32924 0.0
C3282 C 0.36233 0.74772 0.30975 0.0
C3283 C 0.37693 0.74709 0.29719 0.0
C3284 C 0.34398 0.75192 0.30215 0.0
C3285 C 0.35034 0.74407 0.34319 0.0
C3286 C 0.33444 0.74053 0.28597 0.0
C3287 C 0.31803 0.74551 0.27778 0.0
C3288 C 0.31086 0.76193 0.28568 0.0
C3289 C 0.32018 0.77313 0.30206 0.0
C3290 C 0.3367 0.76827 0.31012 0.0
H3291 H 0.35336 0.73539 0.35518 0.0
H3292 H 0.34954 0.75926 0.34938 0.0
H3293 H 0.33632 0.73729 0.33611 0.0
H3294 H 0.33984 0.72792 0.27951 0.0
H3295 H 0.31107 0.73662 0.26516 0.0
H3296 H 0.03892 0.72254 0.1544 0.0
H3297 H 0.03899 0.68926 0.13905 0.0
H3298 H 0.02356 0.70811 0.08458 0.0
H3299 H 0.02362 0.74147 0.09979 0.0
H3300 H 0.00926 0.6632 0.11823 0.0
H3301 H 0.07047 0.68282 0.07384 0.0
H3302 H 0.06534 0.69912 0.0937 0.0
H3303 H 0.05219 0.69736 0.0711 0.0
C3304 C 0.03554 0.7196 0.13915 0.0
C3305 C 0.03132 0.73462 0.12828 0.0
C3306 C 0.0356 0.7006 0.13041 0.0
C3307 C 0.03158 0.69633 0.11065 0.0
C3308 C 0.02708 0.71122 0.0998 0.0
H3309 H 0.99748 0.58388 0.04438 0.0
H3310 H 0.00024 0.61686 0.06107 0.0
C3311 C 0.02699 0.73022 0.10853 0.0
C3312 C 0.03164 0.67617 0.10146 0.0
H3313 H 0.05242 0.65035 0.06723 0.0
C3314 C 0.01875 0.66036 0.10715 0.0
C3315 C 0.04423 0.6725 0.0872 0.0
C3316 C 0.05898 0.6888 0.08118 0.0
C3317 C 0.01776 0.64101 0.09858 0.0
C3318 C 0.02983 0.63748 0.0838 0.0
C3319 C 0.04309 0.65318 0.07847 0.0
C3320 C 0.02851 0.61763 0.07339 0.0
C3321 C 0.00383 0.62449 0.10544 0.0
C3322 C 0.04373 0.60735 0.0744 0.0
C3323 C 0.04224 0.58841 0.06482 0.0
C3324 C 0.02555 0.57955 0.05396 0.0
C3325 C 0.01052 0.59016 0.05269 0.0
C3326 C 0.01201 0.609 0.06229 0.0
H3327 H 0.99912 0.62869 0.11982 0.0
H3328 H 0.99115 0.62098 0.09533 0.0
H3329 H 0.01011 0.6109 0.10601 0.0
H3330 H 0.05664 0.61386 0.08282 0.0
H3331 H 0.05411 0.58071 0.06605 0.0
H3332 H 0.06988 0.28784 0.85938 0.0
H3333 H 0.09849 0.28649 0.84205 0.0
H3334 H 0.07186 0.23086 0.81166 0.0
H3335 H 0.04303 0.23233 0.82866 0.0
H3336 H 0.12072 0.2582 0.84288 0.0
H3337 H 0.09323 0.26192 0.76855 0.0
H3338 H 0.08041 0.26795 0.78911 0.0
H3339 H 0.08015 0.24253 0.78059 0.0
C3340 C 0.07004 0.27544 0.84884 0.0
C3341 C 0.05421 0.26022 0.84533 0.0
C3342 C 0.08639 0.27467 0.83898 0.0
C3343 C 0.08724 0.25868 0.82541 0.0
C3344 C 0.07139 0.24353 0.82176 0.0
H3345 H 0.19577 0.23213 0.78862 0.0
H3346 H 0.16381 0.22902 0.80031 0.0
C3347 C 0.05497 0.24434 0.83156 0.0
C3348 C 0.10509 0.25746 0.81593 0.0
H3349 H 0.12449 0.25538 0.77249 0.0
C3350 C 0.12155 0.25756 0.82749 0.0
C3351 C 0.10613 0.25675 0.79585 0.0
C3352 C 0.08909 0.25746 0.78278 0.0
C3353 C 0.13906 0.25711 0.81956 0.0
C3354 C 0.14007 0.25608 0.79946 0.0
C3355 C 0.12361 0.25592 0.78787 0.0
C3356 C 0.15835 0.25648 0.79038 0.0
C3357 C 0.15644 0.2584 0.83282 0.0
C3358 C 0.16545 0.27242 0.78012 0.0
C3359 C 0.18357 0.27411 0.77329 0.0
C3360 C 0.19486 0.25987 0.77659 0.0
C3361 C 0.18738 0.24337 0.78599 0.0
C3362 C 0.1692 0.24165 0.79276 0.0
H3363 H 0.15399 0.26374 0.84771 0.0
H3364 H 0.16027 0.24349 0.833 0.0
H3365 H 0.16866 0.26848 0.82789 0.0
H3366 H 0.15727 0.28397 0.77806 0.0
H3367 H 0.189 0.28695 0.76604 0.0
H3368 H 0.50584 0.70351 0.91068 0.0
H3369 H 0.50283 0.67556 0.93013 0.0
H3370 H 0.54331 0.70987 0.97259 0.0
H3371 H 0.54656 0.73789 0.95307 0.0
H3372 H 0.55075 0.67213 0.96232 0.0
H3373 H 0.47581 0.66857 0.97968 0.0
H3374 H 0.47916 0.66856 0.95455 0.0
H3375 H 0.48943 0.68991 0.97053 0.0
C3376 C 0.51402 0.70515 0.92421 0.0
C3377 C 0.52641 0.72289 0.93037 0.0
C3378 C 0.51218 0.68922 0.93537 0.0
C3379 C 0.52259 0.69077 0.95296 0.0
C3380 C 0.53503 0.70845 0.95913 0.0
H3381 H 0.53377 0.59656 0.0273 0.0
H3382 H 0.53534 0.62943 0.0161 0.0
C3383 C 0.53687 0.72441 0.94797 0.0
C3384 C 0.52119 0.67354 0.96435 0.0
H3385 H 0.48958 0.64007 0.98496 0.0
C3386 C 0.53746 0.66527 0.96755 0.0
C3387 C 0.50382 0.66468 0.97115 0.0
C3388 C 0.48609 0.67349 0.96899 0.0
C3389 C 0.53663 0.64778 0.97656 0.0
C3390 C 0.51912 0.63856 0.9828 0.0
C3391 C 0.50298 0.64719 0.98015 0.0
C3392 C 0.51698 0.61914 0.99071 0.0
C3393 C 0.5543 0.63882 0.97852 0.0
C3394 C 0.50557 0.60263 0.98053 0.0
C3395 C 0.50456 0.58389 0.98689 0.0
C3396 C 0.51489 0.58127 0.00366 0.0
C3397 C 0.52568 0.59801 0.0143 0.0
C3398 C 0.5267 0.61679 0.00787 0.0
H3399 H 0.56567 0.64571 0.96976 0.0
H3400 H 0.55975 0.64103 0.99369 0.0
H3401 H 0.55113 0.62265 0.97417 0.0
H3402 H 0.49788 0.60415 0.9673 0.0
H3403 H 0.49598 0.5714 0.97839 0.0
H3404 H 0.05203 0.7855 0.68235 0.0
H3405 H 0.08298 0.78215 0.69653 0.0
H3406 H 0.08744 0.73649 0.65179 0.0
H3407 H 0.05644 0.73949 0.63778 0.0
H3408 H 0.09784 0.72691 0.68746 0.0
H3409 H 0.13391 0.80233 0.6753 0.0
H3410 H 0.11313 0.80196 0.68865 0.0
H3411 H 0.11094 0.7914 0.66419 0.0
C3412 C 0.05962 0.77476 0.67556 0.0
C3413 C 0.05188 0.76284 0.6589 0.0
C3414 C 0.07733 0.77293 0.68361 0.0
C3415 C 0.08763 0.75929 0.67503 0.0
C3416 C 0.07976 0.74716 0.65859 0.0
H3417 H 0.20791 0.76199 0.69731 0.0
H3418 H 0.17627 0.76068 0.68219 0.0
C3419 C 0.06206 0.74892 0.65059 0.0
C3420 C 0.10662 0.75761 0.68312 0.0
H3421 H 0.15122 0.78371 0.694 0.0
C3422 C 0.10955 0.7393 0.68886 0.0
C3423 C 0.12192 0.77371 0.68463 0.0
C3424 C 0.11993 0.79341 0.67771 0.0
C3425 C 0.12732 0.73675 0.69635 0.0
C3426 C 0.14245 0.75304 0.69845 0.0
C3427 C 0.13957 0.77126 0.69247 0.0
C3428 C 0.16139 0.75169 0.70695 0.0
C3429 C 0.12979 0.71655 0.70163 0.0
C3430 C 0.16351 0.7468 0.72578 0.0
C3431 C 0.18155 0.74736 0.73436 0.0
C3432 C 0.19775 0.75308 0.72432 0.0
C3433 C 0.19563 0.75748 0.70533 0.0
C3434 C 0.17759 0.7568 0.69672 0.0
H3435 H 0.11884 0.70469 0.69408 0.0
H3436 H 0.144 0.71342 0.69821 0.0
H3437 H 0.12837 0.71598 0.71721 0.0
H3438 H 0.15125 0.74324 0.73409 0.0
H3439 H 0.18281 0.74408 0.74909 0.0
H3440 H 0.05525 0.3442 0.40656 0.0
H3441 H 0.05356 0.37695 0.42222 0.0
H3442 H 0.03551 0.35057 0.4732 0.0
H3443 H 0.03719 0.31778 0.45767 0.0
H3444 H 0.01891 0.38615 0.43606 0.0
H3445 H 0.0767 0.39882 0.49325 0.0
H3446 H 0.07606 0.38115 0.47257 0.0
H3447 H 0.06137 0.37514 0.49198 0.0
C3448 C 0.05131 0.34542 0.42124 0.0
C3449 C 0.04631 0.32844 0.4309 0.0
C3450 C 0.05031 0.36411 0.43014 0.0
C3451 C 0.04454 0.36615 0.44888 0.0
C3452 C 0.04028 0.34932 0.45882 0.0
H3453 H 0.01337 0.45782 0.52582 0.0
H3454 H 0.02122 0.42739 0.50999 0.0
C3455 C 0.04118 0.3306 0.44991 0.0
C3456 C 0.04118 0.38553 0.45737 0.0
H3457 H 0.05435 0.4206 0.49505 0.0
C3458 C 0.02676 0.39383 0.44885 0.0
C3459 C 0.05139 0.39534 0.47411 0.0
C3460 C 0.06737 0.38728 0.48347 0.0
C3461 C 0.02187 0.41145 0.45695 0.0
C3462 C 0.03199 0.42123 0.47378 0.0
C3463 C 0.04661 0.41306 0.48215 0.0
C3464 C 0.02731 0.4397 0.48322 0.0
C3465 C 0.00546 0.41902 0.44778 0.0
C3466 C 0.02834 0.45674 0.47347 0.0
C3467 C 0.02368 0.47402 0.48243 0.0
C3468 C 0.01813 0.47456 0.50131 0.0
C3469 C 0.01748 0.45767 0.51119 0.0
C3470 C 0.022 0.44035 0.50219 0.0
H3471 H 0.99618 0.40724 0.4382 0.0
H3472 H 0.99673 0.42497 0.45876 0.0
H3473 H 0.011 0.43113 0.43905 0.0
H3474 H 0.03291 0.45673 0.459 0.0
H3475 H 0.02482 0.48706 0.47476 0.0
H3476 H 0.47662 0.26396 0.19585 0.0
H3477 H 0.44956 0.26138 0.21619 0.0
H3478 H 0.41281 0.26739 0.16771 0.0
H3479 H 0.43958 0.26959 0.14732 0.0
H3480 H 0.42563 0.28769 0.22465 0.0
H3481 H 0.38509 0.21784 0.18812 0.0
H3482 H 0.40968 0.22649 0.18419 0.0
H3483 H 0.39133 0.23618 0.17183 0.0
C3484 C 0.46274 0.26463 0.18954 0.0
C3485 C 0.46018 0.26683 0.16997 0.0
C3486 C 0.44732 0.26318 0.20116 0.0
C3487 C 0.42911 0.26381 0.19338 0.0
C3488 C 0.42663 0.26635 0.17392 0.0
H3489 H 0.33021 0.29406 0.24318 0.0
H3490 H 0.36122 0.29367 0.2305 0.0
C3491 C 0.44198 0.26773 0.1623 0.0
C3492 C 0.41269 0.26233 0.20558 0.0
H3493 H 0.36774 0.23723 0.2083 0.0
C3494 C 0.41305 0.27651 0.22124 0.0
C3495 C 0.39642 0.24751 0.20136 0.0
C3496 C 0.39565 0.23102 0.18558 0.0
C3497 C 0.39722 0.27684 0.23225 0.0
C3498 C 0.38049 0.26285 0.22718 0.0
C3499 C 0.38048 0.24811 0.21207 0.0
C3500 C 0.36254 0.26369 0.23666 0.0
C3501 C 0.3986 0.29217 0.24917 0.0
C3502 C 0.3528 0.24689 0.24418 0.0
C3503 C 0.33489 0.24697 0.25122 0.0
C3504 C 0.32636 0.26385 0.25085 0.0
C3505 C 0.3364 0.28085 0.24383 0.0
C3506 C 0.35423 0.2807 0.23668 0.0
H3507 H 0.4135 0.29699 0.25491 0.0
H3508 H 0.39341 0.30539 0.24459 0.0
H3509 H 0.38992 0.28645 0.26081 0.0
H3510 H 0.35888 0.23356 0.24424 0.0
H3511 H 0.32759 0.23363 0.25655 0.0
H3512 H 0.63747 0.53362 0.35383 0.0
H3513 H 0.61832 0.5313 0.38172 0.0
H3514 H 0.57756 0.48492 0.35055 0.0
H3515 H 0.59663 0.48719 0.32244 0.0
H3516 H 0.57741 0.53563 0.38065 0.0
H3517 H 0.59151 0.46392 0.40363 0.0
H3518 H 0.60752 0.47879 0.38931 0.0
H3519 H 0.58547 0.46513 0.37869 0.0
C3520 C 0.62449 0.52283 0.35293 0.0
C3521 C 0.61853 0.51058 0.33595 0.0
C3522 C 0.61359 0.52154 0.36886 0.0
C3523 C 0.59665 0.50785 0.36819 0.0
C3524 C 0.59072 0.49543 0.35137 0.0
H3525 H 0.51714 0.48533 0.45807 0.0
H3526 H 0.53372 0.48291 0.42838 0.0
C3527 C 0.60158 0.4968 0.33533 0.0
C3528 C 0.58485 0.50732 0.38491 0.0
H3529 H 0.57117 0.48036 0.42194 0.0
C3530 C 0.57596 0.52353 0.38966 0.0
C3531 C 0.58289 0.49141 0.39645 0.0
C3532 C 0.59239 0.4738 0.39194 0.0
C3533 C 0.56526 0.52435 0.40581 0.0
C3534 C 0.56385 0.50878 0.41781 0.0
C3535 C 0.57235 0.49231 0.41277 0.0
C3536 C 0.55418 0.50974 0.43597 0.0
C3537 C 0.55543 0.54185 0.40977 0.0
C3538 C 0.56045 0.52535 0.45022 0.0
C3539 C 0.55095 0.52683 0.46702 0.0
C3540 C 0.53519 0.51253 0.47005 0.0
C3541 C 0.52923 0.49657 0.45606 0.0
C3542 C 0.53869 0.49516 0.43914 0.0
H3543 H 0.55304 0.54903 0.39656 0.0
H3544 H 0.54158 0.53738 0.41599 0.0
H3545 H 0.56446 0.55301 0.42011 0.0
H3546 H 0.57262 0.53651 0.44827 0.0
H3547 H 0.55582 0.53934 0.47751 0.0
H3548 H 0.26928 0.84329 0.05606 0.0
H3549 H 0.26914 0.82779 0.08595 0.0
H3550 H 0.21422 0.84249 0.09639 0.0
H3551 H 0.2141 0.85775 0.06623 0.0
H3552 H 0.2677 0.84802 0.12118 0.0
H3553 H 0.20775 0.78474 0.10835 0.0
H3554 H 0.21847 0.79761 0.08919 0.0
H3555 H 0.20203 0.80828 0.10356 0.0
C3556 C 0.25704 0.84296 0.06457 0.0
C3557 C 0.24171 0.85176 0.05887 0.0
C3558 C 0.25698 0.8341 0.08162 0.0
C3559 C 0.24161 0.83385 0.09327 0.0
C3560 C 0.22606 0.84219 0.08741 0.0
H3561 H 0.22923 0.80595 0.21058 0.0
H3562 H 0.22436 0.81628 0.17851 0.0
C3563 C 0.22605 0.851 0.07025 0.0
C3564 C 0.24275 0.82641 0.11227 0.0
H3565 H 0.22166 0.79174 0.14005 0.0
C3566 C 0.25768 0.83566 0.12527 0.0
C3567 C 0.22956 0.81037 0.11756 0.0
C3568 C 0.21363 0.79953 0.1039 0.0
C3569 C 0.2598 0.82932 0.14347 0.0
C3570 C 0.24673 0.81321 0.1487 0.0
C3571 C 0.23164 0.80407 0.13586 0.0
C3572 C 0.24878 0.80563 0.16747 0.0
C3573 C 0.27588 0.83999 0.15708 0.0
C3574 C 0.26392 0.79595 0.17162 0.0
C3575 C 0.26669 0.79003 0.18984 0.0
C3576 C 0.25437 0.79376 0.20412 0.0
C3577 C 0.23894 0.803 0.19979 0.0
C3578 C 0.23611 0.80883 0.18153 0.0
H3579 H 0.28247 0.85437 0.15225 0.0
H3580 H 0.27086 0.84269 0.17162 0.0
H3581 H 0.28695 0.83063 0.15808 0.0
H3582 H 0.27374 0.79328 0.16084 0.0
H3583 H 0.27865 0.78287 0.19284 0.0
H3584 H 0.93565 0.57554 0.84793 0.0
H3585 H 0.95163 0.57794 0.87973 0.0
H3586 H 0.99379 0.54657 0.85646 0.0
H3587 H 0.97784 0.54395 0.82461 0.0
H3588 H 0.95742 0.54093 0.89622 0.0
H3589 H 0.02375 0.59538 0.89289 0.0
H3590 H 0.00281 0.59517 0.87758 0.0
H3591 H 0.01752 0.57695 0.87282 0.0
C3592 C 0.94854 0.56949 0.84951 0.0
C3593 C 0.95548 0.55947 0.83383 0.0
C3594 C 0.95762 0.57089 0.86767 0.0
C3595 C 0.97391 0.56256 0.87033 0.0
C3596 C 0.98136 0.55331 0.85458 0.0
H3597 H 0.04322 0.53576 0.96369 0.0
H3598 H 0.03007 0.54368 0.93311 0.0
C3599 C 0.97219 0.55175 0.83644 0.0
C3600 C 0.98188 0.5615 0.88982 0.0
H3601 H 0.02122 0.57693 0.91986 0.0
C3602 C 0.97128 0.54894 0.90153 0.0
C3603 C 1e-05 0.57184 0.89646 0.0
C3604 C 0.01172 0.58573 0.88439 0.0
C3605 C 0.97858 0.54592 0.91961 0.0
C3606 C 0.99677 0.55626 0.92635 0.0
C3607 C 0.00726 0.56909 0.9147 0.0
C3608 C 0.00546 0.5532 0.94507 0.0
C3609 C 0.96705 0.53103 0.93093 0.0
C3610 C 0.9963 0.55652 0.96198 0.0
C3611 C 0.00367 0.55174 0.97931 0.0
C3612 C 0.02041 0.54392 0.97998 0.0
C3613 C 0.0302 0.54169 0.96335 0.0
C3614 C 0.02271 0.54622 0.94596 0.0
H3615 H 0.95603 0.52071 0.9217 0.0
H3616 H 0.97622 0.5222 0.93826 0.0
H3617 H 0.95977 0.53895 0.94194 0.0
H3618 H 0.98331 0.56251 0.96172 0.0
H3619 H 0.99635 0.5542 0.99217 0.0
H3620 H 0.28311 0.20963 0.54856 0.0
H3621 H 0.28431 0.22729 0.58058 0.0
H3622 H 0.27436 0.17153 0.60514 0.0
H3623 H 0.27349 0.15388 0.5734 0.0
H3624 H 0.25677 0.22563 0.60668 0.0
H3625 H 0.32028 0.20141 0.63744 0.0
H3626 H 0.31399 0.19843 0.6121 0.0
H3627 H 0.30259 0.18102 0.62742 0.0
C3628 C 0.28136 0.20117 0.56083 0.0
C3629 C 0.27833 0.18037 0.55848 0.0
C3630 C 0.28201 0.21126 0.57908 0.0
C3631 C 0.27973 0.20073 0.59529 0.0
C3632 C 0.27661 0.17998 0.59292 0.0
H3633 H 0.24548 0.23729 0.70728 0.0
H3634 H 0.24714 0.22424 0.67406 0.0
C3635 C 0.27601 0.16991 0.57473 0.0
C3636 C 0.27995 0.21131 0.61464 0.0
H3637 H 0.30091 0.21554 0.65967 0.0
C3638 C 0.26653 0.22358 0.61824 0.0
C3639 C 0.29286 0.20886 0.62965 0.0
C3640 C 0.30837 0.19688 0.62644 0.0
C3641 C 0.26529 0.23296 0.63659 0.0
C3642 C 0.27754 0.22964 0.65182 0.0
C3643 C 0.29135 0.21788 0.64806 0.0
C3644 C 0.27628 0.23811 0.67179 0.0
C3645 C 0.25096 0.24645 0.63942 0.0
C3646 C 0.29222 0.24988 0.68174 0.0
C3647 C 0.2914 0.25716 0.70081 0.0
C3648 C 0.27459 0.2528 0.71036 0.0
C3649 C 0.2586 0.24107 0.70034 0.0
C3650 C 0.25949 0.2337 0.68128 0.0
H3651 H 0.24687 0.25204 0.62578 0.0
H3652 H 0.23798 0.23808 0.64483 0.0
H3653 H 0.25653 0.2593 0.64999 0.0
H3654 H 0.30536 0.25341 0.67474 0.0
H3655 H 0.30398 0.26618 0.70804 0.0
H3656 H 0.60034 0.52995 0.24403 0.0
H3657 H 0.58763 0.53504 0.21231 0.0
H3658 H 0.63355 0.51169 0.18651 0.0
H3659 H 0.64635 0.50654 0.21815 0.0
H3660 H 0.60825 0.55905 0.18514 0.0
H3661 H 0.58455 0.48041 0.15656 0.0
H3662 H 0.5888 0.48802 0.18183 0.0
H3663 H 0.60836 0.48664 0.16704 0.0
C3664 C 0.6076 0.52567 0.23158 0.0
C3665 C 0.6243 0.51778 0.23355 0.0
C3666 C 0.60037 0.52867 0.21351 0.0
C3667 C 0.6096 0.52363 0.19711 0.0
C3668 C 0.62611 0.51546 0.199 0.0
H3669 H 0.58375 0.52615 0.0758 0.0
H3670 H 0.59963 0.52422 0.10691 0.0
C3671 C 0.6334 0.51255 0.21707 0.0
C3672 C 0.6023 0.52749 0.17806 0.0
H3673 H 0.5829 0.50456 0.13505 0.0
C3674 C 0.60266 0.54717 0.17416 0.0
C3675 C 0.59516 0.51194 0.1638 0.0
C3676 C 0.59401 0.49054 0.16746 0.0
C3677 C 0.59624 0.55174 0.15623 0.0
C3678 C 0.58889 0.53617 0.142 0.0
C3679 C 0.58861 0.51649 0.14593 0.0
C3680 C 0.58085 0.53978 0.12311 0.0
C3681 C 0.59772 0.57319 0.15259 0.0
C3682 C 0.56527 0.54955 0.12184 0.0
C3683 C 0.5563 0.55084 0.10406 0.0
C3684 C 0.56261 0.54213 0.0873 0.0
C3685 C 0.57863 0.53303 0.08851 0.0
C3686 C 0.58766 0.53186 0.10626 0.0
H3687 H 0.60869 0.5829 0.1624 0.0
H3688 H 0.60119 0.57543 0.13762 0.0
H3689 H 0.58395 0.57792 0.15507 0.0
H3690 H 0.55951 0.55541 0.13465 0.0
H3691 H 0.54387 0.55777 0.10355 0.0
H3692 H 0.24985 0.82258 0.97415 0.0
H3693 H 0.25245 0.80345 0.94366 0.0
H3694 H 0.23201 0.84816 0.91343 0.0
H3695 H 0.22914 0.86723 0.94383 0.0
H3696 H 0.21644 0.80905 0.89885 0.0
H3697 H 0.29507 0.82125 0.90822 0.0
H3698 H 0.28252 0.81014 0.9272 0.0
H3699 H 0.2809 0.8351 0.92284 0.0
C3700 C 0.24568 0.82819 0.96101 0.0
C3701 C 0.23943 0.84646 0.96132 0.0
C3702 C 0.24729 0.81732 0.94363 0.0
C3703 C 0.24276 0.82461 0.92635 0.0
C3704 C 0.23567 0.84236 0.92666 0.0
H3705 H 0.27498 0.80696 0.81198 0.0
H3706 H 0.27194 0.81743 0.84566 0.0
C3707 C 0.23403 0.85323 0.94401 0.0
C3708 C 0.24604 0.81423 0.90785 0.0
H3709 H 0.28102 0.8023 0.8801 0.0
C3710 C 0.23052 0.80738 0.89477 0.0
C3711 C 0.26449 0.81236 0.90259 0.0
C3712 C 0.28176 0.82022 0.91584 0.0
C3713 C 0.23297 0.79895 0.87639 0.0
C3714 C 0.25141 0.79703 0.87113 0.0
C3715 C 0.26691 0.80362 0.88431 0.0
C3716 C 0.255 0.7897 0.8515 0.0
C3717 C 0.21589 0.79291 0.86249 0.0
C3718 C 0.24706 0.7704 0.84389 0.0
C3719 C 0.24872 0.76442 0.82464 0.0
C3720 C 0.25843 0.77763 0.81283 0.0
C3721 C 0.26733 0.79652 0.82077 0.0
C3722 C 0.26562 0.80251 0.83998 0.0
H3723 H 0.20347 0.79912 0.86748 0.0
H3724 H 0.21911 0.79784 0.8482 0.0
H3725 H 0.21193 0.77654 0.86088 0.0
H3726 H 0.23913 0.76019 0.85269 0.0
H3727 H 0.24188 0.7497 0.81888 0.0
H3728 H 0.93085 0.52603 0.7167 0.0
H3729 H 0.94647 0.52901 0.68672 0.0
H3730 H 0.98756 0.57792 0.71352 0.0
H3731 H 0.97184 0.57514 0.7437 0.0
H3732 H 0.97216 0.58451 0.67732 0.0
H3733 H 0.99762 0.51298 0.67495 0.0
H3734 H 0.97279 0.51048 0.67867 0.0
H3735 H 0.98977 0.52451 0.69648 0.0
C3736 C 0.94325 0.53737 0.71626 0.0
C3737 C 0.95019 0.55028 0.73255 0.0
C3738 C 0.95221 0.53899 0.69915 0.0
C3739 C 0.96833 0.55347 0.69802 0.0
C3740 C 0.97521 0.56656 0.71418 0.0
H3741 H 0.02854 0.54246 0.59359 0.0
H3742 H 0.02305 0.54917 0.62745 0.0
C3743 C 0.96624 0.56493 0.73138 0.0
C3744 C 0.97761 0.55503 0.67975 0.0
H3745 H 0.99636 0.52758 0.64535 0.0
C3746 C 0.97774 0.57222 0.67041 0.0
C3747 C 0.9852 0.53912 0.67097 0.0
C3748 C 0.98654 0.52081 0.68087 0.0
C3749 C 0.9843 0.57344 0.65197 0.0
C3750 C 0.99054 0.55691 0.64261 0.0
C3751 C 0.99139 0.54019 0.65244 0.0
C3752 C 0.99502 0.55592 0.62224 0.0
C3753 C 0.98428 0.59233 0.64264 0.0
C3754 C 0.98121 0.55778 0.60808 0.0
C3755 C 0.98437 0.55408 0.58876 0.0
C3756 C 0.00128 0.54817 0.58333 0.0
C3757 C 0.01536 0.54695 0.59744 0.0
C3758 C 0.01225 0.55079 0.61675 0.0
H3759 H 0.98557 0.60528 0.65351 0.0
H3760 H 0.99602 0.59501 0.63292 0.0
H3761 H 0.97067 0.59126 0.63417 0.0
H3762 H 0.96763 0.56122 0.61195 0.0
H3763 H 0.97328 0.55507 0.57813 0.0
H3764 H 0.2485 0.18729 0.45648 0.0
H3765 H 0.24996 0.20304 0.42656 0.0
H3766 H 0.30622 0.19046 0.41976 0.0
H3767 H 0.30473 0.17442 0.44947 0.0
H3768 H 0.27485 0.23496 0.41606 0.0
H3769 H 0.27869 0.16712 0.36878 0.0
H3770 H 0.27229 0.1664 0.39326 0.0
H3771 H 0.29673 0.17266 0.38792 0.0
C3772 C 0.26118 0.18789 0.44861 0.0
C3773 C 0.27645 0.17952 0.45527 0.0
C3774 C 0.262 0.19689 0.43153 0.0
C3775 C 0.27807 0.19762 0.42075 0.0
C3776 C 0.29351 0.18967 0.42761 0.0
H3777 H 0.3037 0.27323 0.3284 0.0
H3778 H 0.30446 0.25734 0.35821 0.0
C3779 C 0.29269 0.18063 0.44466 0.0
C3780 C 0.2787 0.20684 0.40243 0.0
H3781 H 0.28334 0.19741 0.35454 0.0
C3782 C 0.2767 0.22676 0.4026 0.0
C3783 C 0.28087 0.19604 0.38484 0.0
C3784 C 0.28209 0.17432 0.38358 0.0
C3785 C 0.27698 0.23623 0.38571 0.0
C3786 C 0.27968 0.22558 0.3682 0.0
C3787 C 0.2815 0.20561 0.368 0.0
C3788 C 0.27994 0.2347 0.34983 0.0
C3789 C 0.27392 0.25741 0.3867 0.0
C3790 C 0.26635 0.22681 0.33496 0.0
C3791 C 0.26599 0.23575 0.3179 0.0
C3792 C 0.27928 0.25271 0.31537 0.0
C3793 C 0.29322 0.26026 0.33003 0.0
C3794 C 0.29359 0.25128 0.3471 0.0
H3795 H 0.26736 0.26175 0.40007 0.0
H3796 H 0.28778 0.26734 0.38636 0.0
H3797 H 0.26473 0.25979 0.37432 0.0
H3798 H 0.25575 0.21398 0.33672 0.0
H3799 H 0.25507 0.22961 0.30685 0.0
H3800 H 0.30454 0.57665 0.5452 0.0
H3801 H 0.32951 0.55646 0.54655 0.0
H3802 H 0.3658 0.59889 0.51699 0.0
H3803 H 0.34112 0.61916 0.51572 0.0
H3804 H 0.3487 0.53956 0.51608 0.0
H3805 H 0.39747 0.59374 0.56613 0.0
H3806 H 0.37263 0.59484 0.56246 0.0
H3807 H 0.3892 0.60437 0.54566 0.0
C3808 C 0.31786 0.58164 0.539 0.0
C3809 C 0.32097 0.59954 0.53049 0.0
C3810 C 0.33205 0.5701 0.53976 0.0
C3811 C 0.34954 0.57638 0.53213 0.0
C3812 C 0.3525 0.594 0.52326 0.0
H3813 H 0.44104 0.52396 0.4936 0.0
H3814 H 0.41015 0.53361 0.49783 0.0
C3815 C 0.33837 0.60552 0.52249 0.0
C3816 C 0.36487 0.56468 0.53337 0.0
H3817 H 0.41104 0.56859 0.54905 0.0
C3818 C 0.36227 0.54573 0.52351 0.0
C3819 C 0.38239 0.57264 0.54338 0.0
C3820 C 0.38557 0.59243 0.55517 0.0
C3821 C 0.37717 0.53495 0.52252 0.0
C3822 C 0.3951 0.54355 0.53139 0.0
C3823 C 0.39733 0.56205 0.54211 0.0
C3824 C 0.41217 0.5345 0.52872 0.0
C3825 C 0.37362 0.51459 0.51184 0.0
C3826 C 0.42353 0.53174 0.54465 0.0
C3827 C 0.44127 0.52649 0.54225 0.0
C3828 C 0.4479 0.52396 0.52389 0.0
C3829 C 0.43616 0.52572 0.50789 0.0
C3830 C 0.41846 0.53109 0.5103 0.0
H3831 H 0.35846 0.50761 0.51171 0.0
H3832 H 0.37728 0.51581 0.49678 0.0
H3833 H 0.38238 0.50476 0.51824 0.0
H3834 H 0.419 0.53442 0.55899 0.0
H3835 H 0.45009 0.52518 0.5548 0.0
H3836 H 0.80499 0.95142 0.52982 0.0
H3837 H 0.83677 0.97037 0.52727 0.0
H3838 H 0.86106 0.91901 0.53783 0.0
H3839 H 0.82934 0.89998 0.54051 0.0
H3840 H 0.87887 0.95463 0.55959 0.0
H3841 H 0.871 0.96375 0.48209 0.0
H3842 H 0.85277 0.97123 0.49627 0.0
H3843 H 0.85517 0.94564 0.49349 0.0
C3844 C 0.8171 0.94417 0.53162 0.0
C3845 C 0.81469 0.9242 0.53531 0.0
C3846 C 0.83522 0.95498 0.53004 0.0
C3847 C 0.85121 0.94599 0.53209 0.0
C3848 C 0.84887 0.92616 0.5361 0.0
H3849 H 0.96735 0.98288 0.50492 0.0
H3850 H 0.93426 0.96676 0.5059 0.0
C3851 C 0.83075 0.91532 0.53762 0.0
C3852 C 0.87045 0.95732 0.53034 0.0
H3853 H 0.89921 0.98085 0.4989 0.0
C3854 C 0.88332 0.9604 0.54634 0.0
C3855 C 0.87623 0.96463 0.51297 0.0
C3856 C 0.86316 0.96105 0.49515 0.0
C3857 C 0.90184 0.97074 0.54549 0.0
C3858 C 0.90753 0.97837 0.52822 0.0
C3859 C 0.8947 0.97516 0.51216 0.0
C3860 C 0.92699 0.98908 0.52644 0.0
C3861 C 0.91532 0.97307 0.56294 0.0
C3862 C 0.93365 0.00725 0.53724 0.0
C3863 C 0.95251 0.01651 0.53667 0.0
C3864 C 0.96498 0.0077 0.5253 0.0
C3865 C 0.95806 0.98994 0.51387 0.0
C3866 C 0.93919 0.98073 0.51441 0.0
H3867 H 0.91004 0.96285 0.57365 0.0
H3868 H 0.92949 0.97029 0.55894 0.0
H3869 H 0.91703 0.98845 0.56978 0.0
H3870 H 0.92435 0.01408 0.54638 0.0
H3871 H 0.95746 0.03025 0.54553 0.0
H3872 H 0.88441 0.1092 0.26969 0.0
H3873 H 0.868 0.13756 0.27209 0.0
H3874 H 0.82813 0.10927 0.22617 0.0
H3875 H 0.84429 0.08068 0.22389 0.0
H3876 H 0.86183 0.16257 0.24455 0.0
H3877 H 0.79356 0.12358 0.2678 0.0
H3878 H 0.81485 0.11295 0.26815 0.0
H3879 H 0.80123 0.11266 0.24605 0.0
C3880 C 0.87212 0.10899 0.26014 0.0
C3881 C 0.86558 0.09268 0.24667 0.0
C3882 C 0.86277 0.1252 0.26152 0.0
C3883 C 0.84667 0.12539 0.24952 0.0
C3884 C 0.84027 0.10925 0.23586 0.0
H3885 H 0.77599 0.21601 0.23969 0.0
H3886 H 0.79009 0.18614 0.23469 0.0
C3887 C 0.84959 0.09299 0.23449 0.0
C3888 C 0.83689 0.1427 0.25112 0.0
H3889 H 0.79489 0.15696 0.2615 0.0
C3890 C 0.8472 0.16134 0.24826 0.0
C3891 C 0.81777 0.14104 0.25589 0.0
C3892 C 0.80621 0.12153 0.25982 0.0
C3893 C 0.83891 0.17837 0.25006 0.0
C3894 C 0.8199 0.17676 0.2551 0.0
C3895 C 0.80946 0.1581 0.25763 0.0
C3896 C 0.81088 0.19442 0.25849 0.0
C3897 C 0.85051 0.19798 0.24643 0.0
C3898 C 0.81766 0.20872 0.27376 0.0
C3899 C 0.80962 0.22571 0.27673 0.0
C3900 C 0.79457 0.22874 0.26449 0.0
C3901 C 0.78751 0.21414 0.24943 0.0
C3902 C 0.79557 0.19708 0.24651 0.0
H3903 H 0.86307 0.19603 0.23826 0.0
H3904 H 0.84184 0.2068 0.23844 0.0
H3905 H 0.85562 0.20655 0.26032 0.0
H3906 H 0.82929 0.20677 0.28334 0.0
H3907 H 0.8154 0.23658 0.28849 0.0
H3908 H 0.71763 0.11698 0.05085 0.0
H3909 H 0.68405 0.10293 0.04483 0.0
H3910 H 0.69267 0.09071 0.985 0.0
H3911 H 0.72643 0.10465 0.99092 0.0
H3912 H 0.65877 0.11712 0.01882 0.0
H3913 H 0.66308 0.03778 0.00073 0.0
H3914 H 0.68231 0.05516 0.0133 0.0
H3915 H 0.67785 0.05545 0.98805 0.0
C3916 C 0.71243 0.11112 0.03643 0.0
C3917 C 0.72462 0.11188 0.02134 0.0
C3918 C 0.69326 0.10315 0.03303 0.0
C3919 C 0.68598 0.09569 0.01452 0.0
C3920 C 0.69813 0.09616 0.99943 0.0
H3921 H 0.56986 0.04311 0.97505 0.0
H3922 H 0.60367 0.05682 0.97616 0.0
C3923 C 0.71735 0.10417 0.00282 0.0
C3924 C 0.66547 0.0883 0.01103 0.0
H3925 H 0.63271 0.04646 0.99893 0.0
C3926 C 0.65304 0.10169 0.01442 0.0
C3927 C 0.65815 0.06821 0.00514 0.0
C3928 C 0.67097 0.05322 0.00169 0.0
C3929 C 0.63338 0.09546 0.01226 0.0
C3930 C 0.62603 0.07525 0.00694 0.0
C3931 C 0.63845 0.06195 0.00306 0.0
C3932 C 0.60549 0.06747 0.00614 0.0
C3933 C 0.62067 0.11058 0.01563 0.0
C3934 C 0.59541 0.06882 0.02269 0.0
C3935 C 0.57611 0.06106 0.02214 0.0
C3936 C 0.56655 0.05166 0.00503 0.0
C3937 C 0.57674 0.0503 0.98846 0.0
C3938 C 0.59607 0.0581 0.98905 0.0
H3939 H 0.62822 0.12579 0.0141 0.0
H3940 H 0.60796 0.10726 0.00552 0.0
H3941 H 0.61586 0.1103 0.03039 0.0
H3942 H 0.60255 0.07565 0.03612 0.0
H3943 H 0.56877 0.06227 0.03519 0.0
H3944 H 0.17607 0.44793 0.22829 0.0
H3945 H 0.19978 0.42685 0.23251 0.0
H3946 H 0.21574 0.45619 0.28903 0.0
H3947 H 0.19179 0.47714 0.28505 0.0
H3948 H 0.23947 0.43605 0.24117 0.0
H3949 H 0.20087 0.39767 0.29808 0.0
H3950 H 0.19013 0.41312 0.28307 0.0
H3951 H 0.20698 0.42414 0.30227 0.0
C3952 C 0.18467 0.44994 0.24159 0.0
C3953 C 0.18196 0.464 0.25643 0.0
C3954 C 0.19825 0.43796 0.24394 0.0
C3955 C 0.20931 0.43984 0.26115 0.0
C3956 C 0.20711 0.45433 0.27576 0.0
H3957 H 0.27605 0.35184 0.29403 0.0
H3958 H 0.26594 0.38409 0.29388 0.0
C3959 C 0.19347 0.46628 0.27345 0.0
C3960 C 0.22244 0.42588 0.26399 0.0
H3961 H 0.22833 0.38656 0.2884 0.0
C3962 C 0.23721 0.42536 0.25164 0.0
C3963 C 0.21946 0.41206 0.27773 0.0
C3964 C 0.20344 0.41158 0.29098 0.0
C3965 C 0.24876 0.41093 0.25229 0.0
C3966 C 0.24521 0.39656 0.26544 0.0
C3967 C 0.23104 0.39768 0.27838 0.0
C3968 C 0.25434 0.37888 0.2646 0.0
C3969 C 0.26442 0.41098 0.23868 0.0
C3970 C 0.25139 0.36547 0.2481 0.0
C3971 C 0.25707 0.34712 0.24819 0.0
C3972 C 0.26568 0.34186 0.26481 0.0
C3973 C 0.26945 0.35561 0.28104 0.0
C3974 C 0.26371 0.37399 0.28097 0.0
H3975 H 0.26938 0.42606 0.23442 0.0
H3976 H 0.27666 0.40545 0.24512 0.0
H3977 H 0.25899 0.40118 0.22553 0.0
H3978 H 0.2438 0.36874 0.23547 0.0
H3979 H 0.25399 0.33675 0.23549 0.0
H3980 H 0.197 0.40142 0.02418 0.0
H3981 H 0.17142 0.4207 0.02578 0.0
H3982 H 0.20743 0.46674 0.06253 0.0
H3983 H 0.23311 0.44744 0.06112 0.0
H3984 H 0.17004 0.45662 0.07474 0.0
H3985 H 0.17026 0.47104 0.99841 0.0
H3986 H 0.16817 0.44533 0.00217 0.0
H3987 H 0.18948 0.46227 0.01045 0.0
C3988 C 0.19948 0.41563 0.03263 0.0
C3989 C 0.2171 0.42297 0.04244 0.0
C3990 C 0.18488 0.42667 0.03346 0.0
C3991 C 0.18764 0.44528 0.04403 0.0
C3992 C 0.20506 0.45245 0.05421 0.0
H3993 H 0.10913 0.52772 0.02993 0.0
H3994 H 0.13816 0.51369 0.03343 0.0
C3995 C 0.21971 0.44143 0.05337 0.0
C3996 C 0.17231 0.45721 0.04438 0.0
H3997 H 0.14416 0.47879 0.01544 0.0
C3998 C 0.16446 0.46162 0.06182 0.0
C3999 C 0.16528 0.46399 0.02756 0.0
C4000 C 0.17383 0.46061 0.0086 0.0
C4001 C 0.14926 0.47202 0.06276 0.0
C4002 C 0.14163 0.47796 0.04576 0.0
C4003 C 0.14994 0.47414 0.02845 0.0
C4004 C 0.12453 0.48736 0.04537 0.0
C4005 C 0.14156 0.47659 0.08194 0.0
C4006 C 0.10728 0.47726 0.05097 0.0
C4007 C 0.09077 0.48524 0.049 0.0
C4008 C 0.09117 0.50342 0.0413 0.0
C4009 C 0.10847 0.51372 0.03599 0.0
C4010 C 0.12502 0.50572 0.03797 0.0
H4011 H 0.15227 0.47661 0.09383 0.0
H4012 H 0.13689 0.49118 0.0829 0.0
H4013 H 0.12916 0.46506 0.08393 0.0
H4014 H 0.10643 0.46287 0.05628 0.0
H4015 H 0.07757 0.47688 0.05296 0.0
H4016 H 0.88138 0.97185 0.23225 0.0
H4017 H 0.86219 0.93897 0.23251 0.0
H4018 H 0.81307 0.96536 0.24407 0.0
H4019 H 0.83228 0.99838 0.24411 0.0
H4020 H 0.81854 0.93766 0.26853 0.0
H4021 H 0.82235 0.90727 0.19349 0.0
H4022 H 0.84516 0.91693 0.20527 0.0
H4023 H 0.82876 0.93335 0.2012 0.0
C4024 C 0.86644 0.97066 0.23462 0.0
C4025 C 0.85832 0.98768 0.23815 0.0
C4026 C 0.85547 0.95185 0.23464 0.0
C4027 C 0.83615 0.94972 0.23803 0.0
C4028 C 0.82794 0.96669 0.2413 0.0
H4029 H 0.757 0.83755 0.22939 0.0
H4030 H 0.77358 0.87083 0.22466 0.0
C4031 C 0.83891 0.98553 0.24131 0.0
C4032 C 0.82487 0.92985 0.23951 0.0
H4033 H 0.81112 0.88399 0.21548 0.0
C4034 C 0.81678 0.92597 0.25688 0.0
C4035 C 0.82244 0.91468 0.22423 0.0
C4036 C 0.82998 0.91828 0.20493 0.0
C4037 C 0.80675 0.90719 0.25957 0.0
C4038 C 0.80505 0.89179 0.24458 0.0
C4039 C 0.81266 0.89578 0.22702 0.0
C4040 C 0.79547 0.87142 0.24695 0.0
C4041 C 0.79796 0.90402 0.2784 0.0
C4042 C 0.80254 0.86063 0.26077 0.0
C4043 C 0.79309 0.84172 0.26353 0.0
C4044 C 0.7765 0.83323 0.2524 0.0
C4045 C 0.76972 0.84381 0.23822 0.0
C4046 C 0.77917 0.86277 0.23548 0.0
H4047 H 0.79619 0.91823 0.28626 0.0
H4048 H 0.78392 0.89418 0.27623 0.0
H4049 H 0.80732 0.89691 0.28749 0.0
H4050 H 0.81531 0.8669 0.2695 0.0
H4051 H 0.79867 0.83384 0.2745 0.0
H4052 H 0.64008 0.07184 0.74513 0.0
H4053 H 0.65625 0.10639 0.74926 0.0
H4054 H 0.70561 0.08852 0.77467 0.0
H4055 H 0.68966 0.05396 0.77036 0.0
H4056 H 0.67103 0.1292 0.78334 0.0
H4057 H 0.72697 0.12187 0.73243 0.0
H4058 H 0.70598 0.10329 0.73284 0.0
H4059 H 0.72529 0.10472 0.75034 0.0
C4060 C 0.65441 0.07528 0.75151 0.0
C4061 C 0.66366 0.06023 0.75734 0.0
C4062 C 0.66359 0.09499 0.75388 0.0
C4063 C 0.68218 0.09992 0.76203 0.0
C4064 C 0.69139 0.08494 0.76802 0.0
H4065 H 0.74107 0.21726 0.80662 0.0
H4066 H 0.72584 0.18246 0.80295 0.0
C4067 C 0.68223 0.06524 0.76563 0.0
C4068 C 0.6918 0.1208 0.76459 0.0
H4069 H 0.72995 0.1525 0.75152 0.0
C4070 C 0.6839 0.13434 0.77639 0.0
C4071 C 0.70849 0.12739 0.75534 0.0
C4072 C 0.71713 0.11362 0.74188 0.0
C4073 C 0.69236 0.15435 0.77931 0.0
C4074 C 0.70926 0.16086 0.77038 0.0
C4075 C 0.71708 0.14736 0.75847 0.0
C4076 C 0.7187 0.18179 0.77268 0.0
C4077 C 0.68298 0.16847 0.79161 0.0
C4078 C 0.72004 0.19273 0.75678 0.0
C4079 C 0.72877 0.21256 0.75878 0.0
C4080 C 0.73642 0.22179 0.77674 0.0
C4081 C 0.73527 0.21066 0.79261 0.0
C4082 C 0.72649 0.1908 0.79058 0.0
H4083 H 0.66808 0.16202 0.79399 0.0
H4084 H 0.69089 0.17198 0.80575 0.0
H4085 H 0.68315 0.18254 0.785 0.0
H4086 H 0.71416 0.18596 0.74284 0.0
H4087 H 0.72945 0.22063 0.74623 0.0
loop_
_geom_bond_atom_site_label_1
_geom_bond_atom_site_label_2
_geom_bond_distance
_geom_bond_site_symmetry_2
_ccdc_geom_bond_type
In0 O1 2.294 . S
In0 O2 2.326 . S
In0 O6 2.266 . S
In0 O7 2.326 1_455 S
In0 O8 2.266 . S
In0 O9 2.326 . S
In0 O11 2.294 . S
In0 O12 2.326 . S
O1 In0 2.294 . S
O1 C10 1.240 . S
O2 In0 2.326 . S
O2 C10 1.252 . S
C3 O6 1.252 1_655 S
C3 O7 1.260 . S
C4 O11 1.240 . S
C4 O12 1.252 . S
C5 O8 1.252 . S
C5 O9 1.260 . S
O6 In0 2.266 . S
O6 C3 1.252 1_455 S
O7 In0 2.326 1_655 S
O7 C3 1.260 . S
O8 In0 2.266 . S
O8 C5 1.252 . S
O9 In0 2.326 . S
O9 C5 1.260 . S
C10 O1 1.240 . S
C10 O2 1.252 . S
O11 In0 2.294 . S
O11 C4 1.240 . S
O12 In0 2.326 . S
O12 C4 1.252 . S
In13 O14 2.294 . S
In13 O15 2.326 . S
In13 O19 2.266 . S
In13 O20 2.326 . S
In13 O21 2.266 1_455 S
In13 O22 2.326 1_455 S
In13 O24 2.294 . S
In13 O25 2.326 . S
O14 In13 2.294 . S
O14 C23 1.240 . S
O15 In13 2.326 . S
O15 C23 1.252 . S
C16 O19 1.252 . S
C16 O20 1.260 . S
C17 O24 1.240 . S
C17 O25 1.252 . S
C18 O21 1.252 . S
C18 O22 1.260 . S
O19 In13 2.266 . S
O19 C16 1.252 . S
O20 In13 2.326 . S
O20 C16 1.260 . S
O21 In13 2.266 1_655 S
O21 C18 1.252 . S
O22 In13 2.326 1_655 S
O22 C18 1.260 . S
C23 O14 1.240 . S
C23 O15 1.252 . S
O24 In13 2.294 . S
O24 C17 1.240 . S
O25 In13 2.326 . S
O25 C17 1.252 . S
In26 O27 2.294 . S
In26 O28 2.326 . S
In26 O32 2.266 . S
In26 O33 2.326 . S
In26 O34 2.266 . S
In26 O35 2.326 . S
In26 O37 2.294 . S
In26 O38 2.326 . S
O27 In26 2.294 . S
O27 C36 1.240 . S
O28 In26 2.326 . S
O28 C36 1.252 . S
C29 O32 1.252 . S
C29 O33 1.260 . S
C30 O37 1.240 . S
C30 O38 1.252 . S
C31 O34 1.252 . S
C31 O35 1.260 . S
O32 In26 2.266 . S
O32 C29 1.252 . S
O33 In26 2.326 . S
O33 C29 1.260 . S
O34 In26 2.266 . S
O34 C31 1.252 . S
O35 In26 2.326 . S
O35 C31 1.260 . S
C36 O27 1.240 . S
C36 O28 1.252 . S
O37 In26 2.294 . S
O37 C30 1.240 . S
O38 In26 2.326 . S
O38 C30 1.252 . S
In39 O40 2.294 . S
In39 O41 2.326 . S
In39 O45 2.266 . S
In39 O46 2.326 . S
In39 O47 2.266 . S
In39 O48 2.326 . S
In39 O50 2.294 . S
In39 O51 2.326 . S
O40 In39 2.294 . S
O40 C49 1.240 . S
O41 In39 2.326 . S
O41 C49 1.252 . S
C42 O45 1.252 . S
C42 O46 1.260 . S
C43 O50 1.240 . S
C43 O51 1.252 . S
C44 O47 1.252 . S
C44 O48 1.260 . S
O45 In39 2.266 . S
O45 C42 1.252 . S
O46 In39 2.326 . S
O46 C42 1.260 . S
O47 In39 2.266 . S
O47 C44 1.252 . S
O48 In39 2.326 . S
O48 C44 1.260 . S
C49 O40 1.240 . S
C49 O41 1.252 . S
O50 In39 2.294 . S
O50 C43 1.240 . S
O51 In39 2.326 . S
O51 C43 1.252 . S
In52 O53 2.294 . S
In52 O54 2.326 . S
In52 O58 2.266 . S
In52 O59 2.326 . S
In52 O60 2.266 . S
In52 O61 2.326 . S
In52 O63 2.294 . S
In52 O64 2.326 1_455 S
O53 In52 2.294 . S
O53 C62 1.240 . S
O54 In52 2.326 . S
O54 C62 1.252 . S
C55 O58 1.252 . S
C55 O59 1.260 . S
C56 O63 1.240 1_655 S
C56 O64 1.252 . S
C57 O60 1.252 . S
C57 O61 1.260 . S
O58 In52 2.266 . S
O58 C55 1.252 . S
O59 In52 2.326 . S
O59 C55 1.260 . S
O60 In52 2.266 . S
O60 C57 1.252 . S
O61 In52 2.326 . S
O61 C57 1.260 . S
C62 O53 1.240 . S
C62 O54 1.252 . S
O63 In52 2.294 . S
O63 C56 1.240 1_455 S
O64 In52 2.326 1_655 S
O64 C56 1.252 . S
In65 O66 2.294 . S
In65 O67 2.326 . S
In65 O71 2.266 . S
In65 O72 2.326 . S
In65 O73 2.266 . S
In65 O74 2.326 . S
In65 O76 2.294 . S
In65 O77 2.326 . S
O66 In65 2.294 . S
O66 C75 1.240 . S
O67 In65 2.326 . S
O67 C75 1.252 . S
C68 O71 1.252 . S
C68 O72 1.260 . S
C69 O76 1.240 . S
C69 O77 1.252 . S
C70 O73 1.252 . S
C70 O74 1.260 . S
O71 In65 2.266 . S
O71 C68 1.252 . S
O72 In65 2.326 . S
O72 C68 1.260 . S
O73 In65 2.266 . S
O73 C70 1.252 . S
O74 In65 2.326 . S
O74 C70 1.260 . S
C75 O66 1.240 . S
C75 O67 1.252 . S
O76 In65 2.294 . S
O76 C69 1.240 . S
O77 In65 2.326 . S
O77 C69 1.252 . S
In78 O79 2.294 . S
In78 O80 2.326 . S
In78 O84 2.266 . S
In78 O85 2.326 . S
In78 O86 2.266 . S
In78 O87 2.326 . S
In78 O89 2.294 . S
In78 O90 2.326 . S
O79 In78 2.294 . S
O79 C88 1.240 . S
O80 In78 2.326 . S
O80 C88 1.252 . S
C81 O84 1.252 . S
C81 O85 1.260 . S
C82 O89 1.240 . S
C82 O90 1.252 . S
C83 O86 1.252 . S
C83 O87 1.260 . S
O84 In78 2.266 . S
O84 C81 1.252 . S
O85 In78 2.326 . S
O85 C81 1.260 . S
O86 In78 2.266 . S
O86 C83 1.252 . S
O87 In78 2.326 . S
O87 C83 1.260 . S
C88 O79 1.240 . S
C88 O80 1.252 . S
O89 In78 2.294 . S
O89 C82 1.240 . S
O90 In78 2.326 . S
O90 C82 1.252 . S
In91 O92 2.294 . S
In91 O93 2.326 . S
In91 O97 2.266 . S
In91 O98 2.326 . S
In91 O99 2.266 1_455 S
In91 O100 2.326 1_455 S
In91 O102 2.294 . S
In91 O103 2.326 . S
O92 In91 2.294 . S
O92 C101 1.240 . S
O93 In91 2.326 . S
O93 C101 1.252 . S
C94 O97 1.252 . S
C94 O98 1.260 . S
C95 O102 1.240 . S
C95 O103 1.252 . S
C96 O99 1.252 . S
C96 O100 1.260 . S
O97 In91 2.266 . S
O97 C94 1.252 . S
O98 In91 2.326 . S
O98 C94 1.260 . S
O99 In91 2.266 1_655 S
O99 C96 1.252 . S
O100 In91 2.326 1_655 S
O100 C96 1.260 . S
C101 O92 1.240 . S
C101 O93 1.252 . S
O102 In91 2.294 . S
O102 C95 1.240 . S
O103 In91 2.326 . S
O103 C95 1.252 . S
In104 O105 2.294 . S
In104 O106 2.326 . S
In104 O110 2.266 . S
In104 O111 2.326 . S
In104 O112 2.266 1_545 S
In104 O113 2.326 1_545 S
In104 O115 2.294 . S
In104 O116 2.326 . S
O105 In104 2.294 . S
O105 C114 1.240 . S
O106 In104 2.326 . S
O106 C114 1.252 . S
C107 O110 1.252 . S
C107 O111 1.260 . S
C108 O115 1.240 . S
C108 O116 1.252 . S
C109 O112 1.252 . S
C109 O113 1.260 . S
O110 In104 2.266 . S
O110 C107 1.252 . S
O111 In104 2.326 . S
O111 C107 1.260 . S
O112 In104 2.266 1_565 S
O112 C109 1.252 . S
O113 In104 2.326 1_565 S
O113 C109 1.260 . S
C114 O105 1.240 . S
C114 O106 1.252 . S
O115 In104 2.294 . S
O115 C108 1.240 . S
O116 In104 2.326 . S
O116 C108 1.252 . S
In117 O118 2.294 . S
In117 O119 2.326 . S
In117 O123 2.266 . S
In117 O124 2.326 . S
In117 O125 2.266 . S
In117 O126 2.326 . S
In117 O128 2.294 . S
In117 O129 2.326 . S
O118 In117 2.294 . S
O118 C127 1.240 . S
O119 In117 2.326 . S
O119 C127 1.252 . S
C120 O123 1.252 . S
C120 O124 1.260 . S
C121 O128 1.240 . S
C121 O129 1.252 . S
C122 O125 1.252 . S
C122 O126 1.260 . S
O123 In117 2.266 . S
O123 C120 1.252 . S
O124 In117 2.326 . S
O124 C120 1.260 . S
O125 In117 2.266 . S
O125 C122 1.252 . S
O126 In117 2.326 . S
O126 C122 1.260 . S
C127 O118 1.240 . S
C127 O119 1.252 . S
O128 In117 2.294 . S
O128 C121 1.240 . S
O129 In117 2.326 . S
O129 C121 1.252 . S
In130 O131 2.294 1_545 S
In130 O132 2.326 1_545 S
In130 O136 2.266 . S
In130 O137 2.326 . S
In130 O138 2.264 . S
In130 O139 2.322 . S
In130 O141 2.296 1_545 S
In130 O142 2.330 1_545 S
O131 In130 2.294 1_565 S
O131 C140 1.240 . S
O132 In130 2.326 1_565 S
O132 C140 1.252 . S
C133 O136 1.252 . S
C133 O137 1.260 . S
C134 O141 1.240 . S
C134 O142 1.252 . S
C135 O138 1.252 . S
C135 O139 1.260 . S
O136 In130 2.266 . S
O136 C133 1.252 . S
O137 In130 2.326 . S
O137 C133 1.260 . S
O138 In130 2.264 . S
O138 C135 1.252 . S
O139 In130 2.322 . S
O139 C135 1.260 . S
C140 O131 1.240 . S
C140 O132 1.252 . S
O141 In130 2.296 1_565 S
O141 C134 1.240 . S
O142 In130 2.330 1_565 S
O142 C134 1.252 . S
In143 O144 2.294 . S
In143 O145 2.326 . S
In143 O149 2.266 . S
In143 O150 2.326 1_554 S
In143 O151 2.266 . S
In143 O152 2.326 . S
In143 O154 2.294 . S
In143 O155 2.326 . S
O144 In143 2.294 . S
O144 C153 1.240 . S
O145 In143 2.326 . S
O145 C153 1.252 . S
C146 O149 1.252 1_556 S
C146 O150 1.260 . S
C147 O154 1.240 . S
C147 O155 1.252 . S
C148 O151 1.252 . S
C148 O152 1.260 . S
O149 In143 2.266 . S
O149 C146 1.252 1_554 S
O150 In143 2.326 1_556 S
O150 C146 1.260 . S
O151 In143 2.266 . S
O151 C148 1.252 . S
O152 In143 2.326 . S
O152 C148 1.260 . S
C153 O144 1.240 . S
C153 O145 1.252 . S
O154 In143 2.294 . S
O154 C147 1.240 . S
O155 In143 2.326 . S
O155 C147 1.252 . S
In156 O157 2.294 . S
In156 O158 2.326 . S
In156 O162 2.266 1_554 S
In156 O163 2.326 1_554 S
In156 O164 2.266 . S
In156 O165 2.326 . S
In156 O167 2.294 . S
In156 O168 2.326 . S
O157 In156 2.294 . S
O157 C166 1.240 . S
O158 In156 2.326 . S
O158 C166 1.252 . S
C159 O162 1.252 . S
C159 O163 1.260 . S
C160 O167 1.240 . S
C160 O168 1.252 . S
C161 O164 1.252 . S
C161 O165 1.260 . S
O162 In156 2.266 1_556 S
O162 C159 1.252 . S
O163 In156 2.326 1_556 S
O163 C159 1.260 . S
O164 In156 2.266 . S
O164 C161 1.252 . S
O165 In156 2.326 . S
O165 C161 1.260 . S
C166 O157 1.240 . S
C166 O158 1.252 . S
O167 In156 2.294 . S
O167 C160 1.240 . S
O168 In156 2.326 . S
O168 C160 1.252 . S
In169 O170 2.294 . S
In169 O171 2.326 . S
In169 O175 2.263 1_554 S
In169 O176 2.326 . S
In169 O177 2.266 1_554 S
In169 O178 2.326 1_554 S
In169 O180 2.294 . S
In169 O181 2.326 . S
O170 In169 2.294 . S
O170 C179 1.240 . S
O171 In169 2.326 . S
O171 C179 1.252 . S
C172 O175 1.252 1_554 S
C172 O176 1.260 . S
C173 O180 1.240 . S
C173 O181 1.252 . S
C174 O177 1.252 . S
C174 O178 1.260 . S
O175 In169 2.263 1_556 S
O175 C172 1.252 1_556 S
O176 In169 2.326 . S
O176 C172 1.260 . S
O177 In169 2.266 1_556 S
O177 C174 1.252 . S
O178 In169 2.326 1_556 S
O178 C174 1.260 . S
C179 O170 1.240 . S
C179 O171 1.252 . S
O180 In169 2.294 . S
O180 C173 1.240 . S
O181 In169 2.326 . S
O181 C173 1.252 . S
In182 O183 2.294 . S
In182 O184 2.326 . S
In182 O188 2.266 . S
In182 O189 2.326 . S
In182 O190 2.266 . S
In182 O191 2.326 . S
In182 O193 2.294 . S
In182 O194 2.326 . S
O183 In182 2.294 . S
O183 C192 1.240 . S
O184 In182 2.326 . S
O184 C192 1.252 . S
C185 O188 1.252 . S
C185 O189 1.260 . S
C186 O193 1.240 . S
C186 O194 1.252 . S
C187 O190 1.252 . S
C187 O191 1.260 . S
O188 In182 2.266 . S
O188 C185 1.252 . S
O189 In182 2.326 . S
O189 C185 1.260 . S
O190 In182 2.266 . S
O190 C187 1.252 . S
O191 In182 2.326 . S
O191 C187 1.260 . S
C192 O183 1.240 . S
C192 O184 1.252 . S
O193 In182 2.294 . S
O193 C186 1.240 . S
O194 In182 2.326 . S
O194 C186 1.252 . S
In195 O196 2.294 . S
In195 O197 2.326 . S
In195 O201 2.266 . S
In195 O202 2.326 . S
In195 O203 2.266 . S
In195 O204 2.326 . S
In195 O206 2.294 . S
In195 O207 2.326 . S
O196 In195 2.294 . S
O196 C205 1.240 . S
O197 In195 2.326 . S
O197 C205 1.252 . S
C198 O201 1.252 . S
C198 O202 1.260 . S
C199 O206 1.240 . S
C199 O207 1.252 . S
C200 O203 1.252 . S
C200 O204 1.260 . S
O201 In195 2.266 . S
O201 C198 1.252 . S
O202 In195 2.326 . S
O202 C198 1.260 . S
O203 In195 2.266 . S
O203 C200 1.252 . S
O204 In195 2.326 . S
O204 C200 1.260 . S
C205 O196 1.240 . S
C205 O197 1.252 . S
O206 In195 2.294 . S
O206 C199 1.240 . S
O207 In195 2.326 . S
O207 C199 1.252 . S
In208 O209 2.294 . S
In208 O210 2.326 . S
In208 O214 2.266 . S
In208 O215 2.326 . S
In208 O216 2.266 . S
In208 O217 2.326 . S
In208 O219 2.294 . S
In208 O220 2.326 . S
O209 In208 2.294 . S
O209 C218 1.240 . S
O210 In208 2.326 . S
O210 C218 1.252 . S
C211 O214 1.252 . S
C211 O215 1.260 . S
C212 O219 1.240 . S
C212 O220 1.252 . S
C213 O216 1.252 . S
C213 O217 1.260 . S
O214 In208 2.266 . S
O214 C211 1.252 . S
O215 In208 2.326 . S
O215 C211 1.260 . S
O216 In208 2.266 . S
O216 C213 1.252 . S
O217 In208 2.326 . S
O217 C213 1.260 . S
C218 O209 1.240 . S
C218 O210 1.252 . S
O219 In208 2.294 . S
O219 C212 1.240 . S
O220 In208 2.326 . S
O220 C212 1.252 . S
In221 O222 2.294 . S
In221 O223 2.326 . S
In221 O227 2.266 . S
In221 O228 2.326 . S
In221 O229 2.266 . S
In221 O230 2.326 . S
In221 O232 2.294 . S
In221 O233 2.326 . S
O222 In221 2.294 . S
O222 C231 1.240 . S
O223 In221 2.326 . S
O223 C231 1.252 . S
C224 O227 1.252 . S
C224 O228 1.260 . S
C225 O232 1.240 . S
C225 O233 1.252 . S
C226 O229 1.252 . S
C226 O230 1.260 . S
O227 In221 2.266 . S
O227 C224 1.252 . S
O228 In221 2.326 . S
O228 C224 1.260 . S
O229 In221 2.266 . S
O229 C226 1.252 . S
O230 In221 2.326 . S
O230 C226 1.260 . S
C231 O222 1.240 . S
C231 O223 1.252 . S
O232 In221 2.294 . S
O232 C225 1.240 . S
O233 In221 2.326 . S
O233 C225 1.252 . S
In234 O235 2.294 . S
In234 O236 2.326 . S
In234 O240 2.266 . S
In234 O241 2.326 . S
In234 O242 2.266 . S
In234 O243 2.326 . S
In234 O245 2.294 . S
In234 O246 2.326 . S
O235 In234 2.294 . S
O235 C244 1.240 . S
O236 In234 2.326 . S
O236 C244 1.252 . S
C237 O240 1.252 . S
C237 O241 1.260 . S
C238 O245 1.240 . S
C238 O246 1.252 . S
C239 O242 1.252 . S
C239 O243 1.260 . S
O240 In234 2.266 . S
O240 C237 1.252 . S
O241 In234 2.326 . S
O241 C237 1.260 . S
O242 In234 2.266 . S
O242 C239 1.252 . S
O243 In234 2.326 . S
O243 C239 1.260 . S
C244 O235 1.240 . S
C244 O236 1.252 . S
O245 In234 2.294 . S
O245 C238 1.240 . S
O246 In234 2.326 . S
O246 C238 1.252 . S
In247 O248 2.294 . S
In247 O249 2.326 1_545 S
In247 O253 2.266 . S
In247 O254 2.326 . S
In247 O255 2.266 . S
In247 O256 2.326 . S
In247 O258 2.294 . S
In247 O259 2.326 . S
O248 In247 2.294 . S
O248 C257 1.240 1_545 S
O249 In247 2.326 1_565 S
O249 C257 1.252 . S
C250 O253 1.252 . S
C250 O254 1.260 . S
C251 O258 1.240 . S
C251 O259 1.252 . S
C252 O255 1.252 . S
C252 O256 1.260 . S
O253 In247 2.266 . S
O253 C250 1.252 . S
O254 In247 2.326 . S
O254 C250 1.260 . S
O255 In247 2.266 . S
O255 C252 1.252 . S
O256 In247 2.326 . S
O256 C252 1.260 . S
C257 O248 1.240 1_565 S
C257 O249 1.252 . S
O258 In247 2.294 . S
O258 C251 1.240 . S
O259 In247 2.326 . S
O259 C251 1.252 . S
In260 O261 2.294 . S
In260 O262 2.326 . S
In260 O266 2.266 . S
In260 O267 2.326 . S
In260 O268 2.266 1_554 S
In260 O269 2.326 1_554 S
In260 O271 2.294 . S
In260 O272 2.326 . S
O261 In260 2.294 . S
O261 C270 1.240 . S
O262 In260 2.326 . S
O262 C270 1.252 . S
C263 O266 1.252 . S
C263 O267 1.260 . S
C264 O271 1.240 . S
C264 O272 1.252 . S
C265 O268 1.252 . S
C265 O269 1.260 . S
O266 In260 2.266 . S
O266 C263 1.252 . S
O267 In260 2.326 . S
O267 C263 1.260 . S
O268 In260 2.266 1_556 S
O268 C265 1.252 . S
O269 In260 2.326 1_556 S
O269 C265 1.260 . S
C270 O261 1.240 . S
C270 O262 1.252 . S
O271 In260 2.294 . S
O271 C264 1.240 . S
O272 In260 2.326 . S
O272 C264 1.252 . S
In273 O274 2.294 . S
In273 O275 2.326 . S
In273 O279 2.266 . S
In273 O280 2.326 . S
In273 O281 2.266 . S
In273 O282 2.326 . S
In273 O284 2.294 . S
In273 O285 2.326 . S
O274 In273 2.294 . S
O274 C283 1.240 . S
O275 In273 2.326 . S
O275 C283 1.252 . S
C276 O279 1.252 . S
C276 O280 1.260 . S
C277 O284 1.240 . S
C277 O285 1.252 . S
C278 O281 1.252 . S
C278 O282 1.260 . S
O279 In273 2.266 . S
O279 C276 1.252 . S
O280 In273 2.326 . S
O280 C276 1.260 . S
O281 In273 2.266 . S
O281 C278 1.252 . S
O282 In273 2.326 . S
O282 C278 1.260 . S
C283 O274 1.240 . S
C283 O275 1.252 . S
O284 In273 2.294 . S
O284 C277 1.240 . S
O285 In273 2.326 . S
O285 C277 1.252 . S
In286 O287 2.294 . S
In286 O288 2.326 . S
In286 O292 2.266 . S
In286 O293 2.326 . S
In286 O294 2.266 . S
In286 O295 2.326 . S
In286 O297 2.294 . S
In286 O298 2.326 . S
O287 In286 2.294 . S
O287 C296 1.240 . S
O288 In286 2.326 . S
O288 C296 1.252 . S
C289 O292 1.252 . S
C289 O293 1.260 . S
C290 O297 1.240 . S
C290 O298 1.252 . S
C291 O294 1.252 . S
C291 O295 1.260 . S
O292 In286 2.266 . S
O292 C289 1.252 . S
O293 In286 2.326 . S
O293 C289 1.260 . S
O294 In286 2.266 . S
O294 C291 1.252 . S
O295 In286 2.326 . S
O295 C291 1.260 . S
C296 O287 1.240 . S
C296 O288 1.252 . S
O297 In286 2.294 . S
O297 C290 1.240 . S
O298 In286 2.326 . S
O298 C290 1.252 . S
In299 O300 2.294 . S
In299 O301 2.326 . S
In299 O305 2.266 . S
In299 O306 2.326 . S
In299 O307 2.266 . S
In299 O308 2.326 . S
In299 O310 2.294 . S
In299 O311 2.326 . S
O300 In299 2.294 . S
O300 C309 1.240 . S
O301 In299 2.326 . S
O301 C309 1.252 . S
C302 O305 1.252 . S
C302 O306 1.260 . S
C303 O310 1.240 . S
C303 O311 1.252 . S
C304 O307 1.252 . S
C304 O308 1.260 . S
O305 In299 2.266 . S
O305 C302 1.252 . S
O306 In299 2.326 . S
O306 C302 1.260 . S
O307 In299 2.266 . S
O307 C304 1.252 . S
O308 In299 2.326 . S
O308 C304 1.260 . S
C309 O300 1.240 . S
C309 O301 1.252 . S
O310 In299 2.294 . S
O310 C303 1.240 . S
O311 In299 2.326 . S
O311 C303 1.252 . S
Dy312 O316 2.395 1_454 S
Dy312 O317 2.491 1_455 S
Dy312 O318 2.403 1_554 S
Dy312 O319 2.664 . S
Dy312 O323 2.326 . S
Dy312 O327 2.310 . S
Dy312 O328 2.351 . S
C313 O324 1.185 . S
C313 O325 1.355 . S
C314 O316 1.181 1_554 S
C314 O317 1.355 . S
Dy315 O319 2.310 . S
Dy315 O322 2.351 . S
Dy315 O324 2.398 . S
Dy315 O325 2.491 . S
Dy315 O326 2.403 . S
Dy315 O327 2.664 . S
Dy315 O329 2.326 . S
O316 Dy312 2.395 1_656 S
O316 C314 1.181 1_556 S
O317 Dy312 2.491 1_655 S
O317 C314 1.355 . S
O318 Dy312 2.403 1_556 S
O318 C320 1.254 . S
O319 Dy312 2.664 . S
O319 Dy315 2.310 . S
O319 C320 1.268 1_554 S
C320 O318 1.254 . S
C320 O319 1.268 1_556 S
C321 O326 1.254 . S
C321 O327 1.268 . S
O322 Dy315 2.351 . S
O322 C330 1.249 . S
O323 Dy312 2.326 . S
O323 C330 1.267 . S
O324 C313 1.185 . S
O324 Dy315 2.398 . S
O325 C313 1.355 . S
O325 Dy315 2.491 . S
O326 Dy315 2.403 . S
O326 C321 1.254 . S
O327 Dy312 2.310 . S
O327 Dy315 2.664 . S
O327 C321 1.268 . S
O328 Dy312 2.351 . S
O328 C331 1.234 1_545 S
O329 Dy315 2.326 . S
O329 C331 1.241 1_545 S
C330 O322 1.249 . S
C330 O323 1.267 . S
C331 O328 1.234 1_565 S
C331 O329 1.241 1_565 S
Dy332 O336 2.398 . S
Dy332 O337 2.491 . S
Dy332 O338 2.403 . S
Dy332 O339 2.664 . S
Dy332 O343 2.326 . S
Dy332 O347 2.310 . S
Dy332 O348 2.351 . S
C333 O344 1.185 . S
C333 O345 1.355 . S
C334 O336 1.185 . S
C334 O337 1.355 . S
Dy335 O339 2.310 . S
Dy335 O342 2.351 . S
Dy335 O344 2.398 . S
Dy335 O345 2.491 . S
Dy335 O346 2.403 . S
Dy335 O347 2.664 . S
Dy335 O349 2.326 . S
O336 Dy332 2.398 . S
O336 C334 1.185 . S
O337 Dy332 2.491 . S
O337 C334 1.355 . S
O338 Dy332 2.403 . S
O338 C340 1.254 . S
O339 Dy332 2.664 . S
O339 Dy335 2.310 . S
O339 C340 1.268 . S
C340 O338 1.254 . S
C340 O339 1.268 . S
C341 O346 1.254 . S
C341 O347 1.268 . S
O342 Dy335 2.351 . S
O342 C350 1.249 . S
O343 Dy332 2.326 . S
O343 C350 1.267 . S
O344 C333 1.185 . S
O344 Dy335 2.398 . S
O345 C333 1.355 . S
O345 Dy335 2.491 . S
O346 Dy335 2.403 . S
O346 C341 1.254 . S
O347 Dy332 2.310 . S
O347 Dy335 2.664 . S
O347 C341 1.268 . S
O348 Dy332 2.351 . S
O348 C351 1.249 . S
O349 Dy335 2.326 . S
O349 C351 1.267 . S
C350 O342 1.249 . S
C350 O343 1.267 . S
C351 O348 1.249 . S
C351 O349 1.267 . S
Dy352 O356 2.382 1_545 S
Dy352 O357 2.491 1_545 S
Dy352 O358 2.403 . S
Dy352 O359 2.664 . S
Dy352 O363 2.326 1_545 S
Dy352 O367 2.310 . S
Dy352 O368 2.351 . S
C353 O364 1.185 . S
C353 O365 1.355 . S
C354 O356 1.208 . S
C354 O357 1.355 . S
Dy355 O359 2.310 . S
Dy355 O362 2.351 1_545 S
Dy355 O364 2.398 . S
Dy355 O365 2.491 . S
Dy355 O366 2.403 . S
Dy355 O367 2.664 . S
Dy355 O369 2.326 . S
O356 Dy352 2.382 1_565 S
O356 C354 1.208 . S
O357 Dy352 2.491 1_565 S
O357 C354 1.355 . S
O358 Dy352 2.403 . S
O358 C360 1.254 . S
O359 Dy352 2.664 . S
O359 Dy355 2.310 . S
O359 C360 1.268 . S
C360 O358 1.254 . S
C360 O359 1.268 . S
C361 O366 1.254 . S
C361 O367 1.268 . S
O362 Dy355 2.351 1_565 S
O362 C370 1.249 . S
O363 Dy352 2.326 1_565 S
O363 C370 1.267 . S
O364 C353 1.185 . S
O364 Dy355 2.398 . S
O365 C353 1.355 . S
O365 Dy355 2.491 . S
O366 Dy355 2.403 . S
O366 C361 1.254 . S
O367 Dy352 2.310 . S
O367 Dy355 2.664 . S
O367 C361 1.268 . S
O368 Dy352 2.351 . S
O368 C371 1.249 . S
O369 Dy355 2.326 . S
O369 C371 1.267 . S
C370 O362 1.249 . S
C370 O363 1.267 . S
C371 O368 1.249 . S
C371 O369 1.267 . S
Dy372 O376 2.398 . S
Dy372 O377 2.491 . S
Dy372 O378 2.403 . S
Dy372 O379 2.664 . S
Dy372 O383 2.326 . S
Dy372 O387 2.310 . S
Dy372 O388 2.351 . S
C373 O384 1.185 . S
C373 O385 1.355 . S
C374 O376 1.185 . S
C374 O377 1.355 . S
Dy375 O379 2.310 . S
Dy375 O382 2.351 . S
Dy375 O384 2.398 . S
Dy375 O385 2.491 . S
Dy375 O386 2.403 . S
Dy375 O387 2.664 . S
Dy375 O389 2.326 . S
O376 Dy372 2.398 . S
O376 C374 1.185 . S
O377 Dy372 2.491 . S
O377 C374 1.355 . S
O378 Dy372 2.403 . S
O378 C380 1.254 . S
O379 Dy372 2.664 . S
O379 Dy375 2.310 . S
O379 C380 1.268 . S
C380 O378 1.254 . S
C380 O379 1.268 . S
C381 O386 1.254 . S
C381 O387 1.268 . S
O382 Dy375 2.351 . S
O382 C390 1.249 . S
O383 Dy372 2.326 . S
O383 C390 1.267 . S
O384 C373 1.185 . S
O384 Dy375 2.398 . S
O385 C373 1.355 . S
O385 Dy375 2.491 . S
O386 Dy375 2.403 . S
O386 C381 1.254 . S
O387 Dy372 2.310 . S
O387 Dy375 2.664 . S
O387 C381 1.268 . S
O388 Dy372 2.351 . S
O388 C391 1.249 . S
O389 Dy375 2.326 . S
O389 C391 1.267 . S
C390 O382 1.249 . S
C390 O383 1.267 . S
C391 O388 1.249 . S
C391 O389 1.267 . S
Dy392 O396 2.401 . S
Dy392 O397 2.496 . S
Dy392 O398 2.406 . S
Dy392 O399 2.667 . S
Dy392 O403 2.337 . S
Dy392 O407 2.312 . S
Dy392 O408 2.343 1_545 S
C393 O404 1.185 . S
C393 O405 1.355 . S
C394 O396 1.185 . S
C394 O397 1.355 . S
Dy395 O399 2.310 . S
Dy395 O402 2.351 . S
Dy395 O404 2.398 . S
Dy395 O405 2.491 . S
Dy395 O406 2.403 1_455 S
Dy395 O407 2.664 . S
Dy395 O409 2.326 1_545 S
O396 Dy392 2.401 . S
O396 C394 1.185 . S
O397 Dy392 2.496 . S
O397 C394 1.355 . S
O398 Dy392 2.406 . S
O398 C400 1.254 . S
O399 Dy392 2.667 . S
O399 Dy395 2.310 . S
O399 C400 1.268 . S
C400 O398 1.254 . S
C400 O399 1.268 . S
C401 O406 1.254 . S
C401 O407 1.268 1_655 S
O402 Dy395 2.351 . S
O402 C410 1.249 . S
O403 Dy392 2.337 . S
O403 C410 1.267 . S
O404 C393 1.185 . S
O404 Dy395 2.398 . S
O405 C393 1.355 . S
O405 Dy395 2.491 . S
O406 Dy395 2.403 1_655 S
O406 C401 1.254 . S
O407 Dy392 2.312 . S
O407 Dy395 2.664 . S
O407 C401 1.268 1_455 S
O408 Dy392 2.343 1_565 S
O408 C411 1.249 . S
O409 Dy395 2.326 1_565 S
O409 C411 1.267 . S
C410 O402 1.249 . S
C410 O403 1.267 . S
C411 O408 1.249 . S
C411 O409 1.267 . S
Dy412 O416 2.398 . S
Dy412 O417 2.491 . S
Dy412 O418 2.403 . S
Dy412 O419 2.664 . S
Dy412 O423 2.326 . S
Dy412 O427 2.310 . S
Dy412 O428 2.351 . S
C413 O424 1.185 . S
C413 O425 1.355 . S
C414 O416 1.185 . S
C414 O417 1.355 . S
Dy415 O419 2.310 . S
Dy415 O422 2.351 . S
Dy415 O424 2.398 . S
Dy415 O425 2.491 . S
Dy415 O426 2.403 . S
Dy415 O427 2.664 . S
Dy415 O429 2.326 . S
O416 Dy412 2.398 . S
O416 C414 1.185 . S
O417 Dy412 2.491 . S
O417 C414 1.355 . S
O418 Dy412 2.403 . S
O418 C420 1.254 . S
O419 Dy412 2.664 . S
O419 Dy415 2.310 . S
O419 C420 1.268 . S
C420 O418 1.254 . S
C420 O419 1.268 . S
C421 O426 1.254 . S
C421 O427 1.268 . S
O422 Dy415 2.351 . S
O422 C430 1.249 . S
O423 Dy412 2.326 . S
O423 C430 1.267 . S
O424 C413 1.185 . S
O424 Dy415 2.398 . S
O425 C413 1.355 . S
O425 Dy415 2.491 . S
O426 Dy415 2.403 . S
O426 C421 1.254 . S
O427 Dy412 2.310 . S
O427 Dy415 2.664 . S
O427 C421 1.268 . S
O428 Dy412 2.351 . S
O428 C431 1.249 . S
O429 Dy415 2.326 . S
O429 C431 1.267 . S
C430 O422 1.249 . S
C430 O423 1.267 . S
C431 O428 1.249 . S
C431 O429 1.267 . S
Dy432 O436 2.398 . S
Dy432 O437 2.491 . S
Dy432 O438 2.403 1_545 S
Dy432 O439 2.664 1_554 S
Dy432 O443 2.326 . S
Dy432 O447 2.310 . S
Dy432 O448 2.351 . S
C433 O444 1.185 . S
C433 O445 1.355 . S
C434 O436 1.185 . S
C434 O437 1.355 . S
Dy435 O439 2.310 . S
Dy435 O442 2.351 . S
Dy435 O444 2.398 . S
Dy435 O445 2.491 . S
Dy435 O446 2.403 . S
Dy435 O447 2.664 1_556 S
Dy435 O449 2.326 . S
O436 Dy432 2.398 . S
O436 C434 1.185 . S
O437 Dy432 2.491 . S
O437 C434 1.355 . S
O438 Dy432 2.403 1_565 S
O438 C440 1.306 . S
O439 Dy432 2.664 1_556 S
O439 Dy435 2.310 . S
O439 C440 1.250 1_546 S
C440 O438 1.306 . S
C440 O439 1.250 1_564 S
C441 O446 1.254 1_554 S
C441 O447 1.268 . S
O442 Dy435 2.351 . S
O442 C450 1.249 1_556 S
O443 Dy432 2.326 . S
O443 C450 1.267 . S
O444 C433 1.185 . S
O444 Dy435 2.398 . S
O445 C433 1.355 . S
O445 Dy435 2.491 . S
O446 Dy435 2.403 . S
O446 C441 1.254 1_556 S
O447 Dy432 2.310 . S
O447 Dy435 2.664 1_554 S
O447 C441 1.268 . S
O448 Dy432 2.351 . S
O448 C451 1.249 . S
O449 Dy435 2.326 . S
O449 C451 1.267 1_556 S
C450 O442 1.249 1_554 S
C450 O443 1.267 . S
C451 O448 1.249 . S
C451 O449 1.267 1_554 S
Dy452 O456 2.398 . S
Dy452 O457 2.491 . S
Dy452 O458 2.403 . S
Dy452 O459 2.664 . S
Dy452 O463 2.326 . S
Dy452 O467 2.310 . S
Dy452 O468 2.351 . S
C453 O464 1.185 . S
C453 O465 1.355 . S
C454 O456 1.185 . S
C454 O457 1.355 . S
Dy455 O459 2.310 . S
Dy455 O462 2.351 . S
Dy455 O464 2.398 . S
Dy455 O465 2.491 . S
Dy455 O466 2.403 . S
Dy455 O467 2.664 . S
Dy455 O469 2.326 . S
O456 Dy452 2.398 . S
O456 C454 1.185 . S
O457 Dy452 2.491 . S
O457 C454 1.355 . S
O458 Dy452 2.403 . S
O458 C460 1.254 . S
O459 Dy452 2.664 . S
O459 Dy455 2.310 . S
O459 C460 1.268 . S
C460 O458 1.254 . S
C460 O459 1.268 . S
C461 O466 1.254 . S
C461 O467 1.268 . S
O462 Dy455 2.351 . S
O462 C470 1.249 . S
O463 Dy452 2.326 . S
O463 C470 1.267 . S
O464 C453 1.185 . S
O464 Dy455 2.398 . S
O465 C453 1.355 . S
O465 Dy455 2.491 . S
O466 Dy455 2.403 . S
O466 C461 1.254 . S
O467 Dy452 2.310 . S
O467 Dy455 2.664 . S
O467 C461 1.268 . S
O468 Dy452 2.351 . S
O468 C471 1.249 . S
O469 Dy455 2.326 . S
O469 C471 1.267 . S
C470 O462 1.249 . S
C470 O463 1.267 . S
C471 O468 1.249 . S
C471 O469 1.267 . S
Dy472 O476 2.398 . S
Dy472 O477 2.491 . S
Dy472 O478 2.403 . S
Dy472 O479 2.664 1_556 S
Dy472 O483 2.326 . S
Dy472 O487 2.310 1_556 S
Dy472 O488 2.351 1_556 S
C473 O484 1.185 . S
C473 O485 1.355 . S
C474 O476 1.185 . S
C474 O477 1.355 . S
Dy475 O479 2.310 . S
Dy475 O482 2.351 . S
Dy475 O484 2.398 . S
Dy475 O485 2.491 . S
Dy475 O486 2.403 . S
Dy475 O487 2.664 . S
Dy475 O489 2.326 . S
O476 Dy472 2.398 . S
O476 C474 1.185 . S
O477 Dy472 2.491 . S
O477 C474 1.355 . S
O478 Dy472 2.403 . S
O478 C480 1.302 . S
O479 Dy472 2.664 1_554 S
O479 Dy475 2.310 . S
O479 C480 1.236 1_554 S
C480 O478 1.302 . S
C480 O479 1.236 1_556 S
C481 O486 1.254 . S
C481 O487 1.268 . S
O482 Dy475 2.351 . S
O482 C490 1.249 1_554 S
O483 Dy472 2.326 . S
O483 C490 1.267 . S
O484 C473 1.185 . S
O484 Dy475 2.398 . S
O485 C473 1.355 . S
O485 Dy475 2.491 . S
O486 Dy475 2.403 . S
O486 C481 1.254 . S
O487 Dy472 2.310 1_554 S
O487 Dy475 2.664 . S
O487 C481 1.268 . S
O488 Dy472 2.351 1_554 S
O488 C491 1.249 . S
O489 Dy475 2.326 . S
O489 C491 1.267 . S
C490 O482 1.249 1_556 S
C490 O483 1.267 . S
C491 O488 1.249 . S
C491 O489 1.267 . S
Dy492 O496 2.398 . S
Dy492 O497 2.491 . S
Dy492 O498 2.403 . S
Dy492 O499 2.664 . S
Dy492 O503 2.326 . S
Dy492 O507 2.310 . S
Dy492 O508 2.351 . S
C493 O504 1.185 . S
C493 O505 1.355 . S
C494 O496 1.185 . S
C494 O497 1.355 . S
Dy495 O499 2.310 . S
Dy495 O502 2.351 . S
Dy495 O504 2.398 . S
Dy495 O505 2.491 . S
Dy495 O506 2.403 . S
Dy495 O507 2.664 . S
Dy495 O509 2.326 . S
O496 Dy492 2.398 . S
O496 C494 1.185 . S
O497 Dy492 2.491 . S
O497 C494 1.355 . S
O498 Dy492 2.403 . S
O498 C500 1.254 . S
O499 Dy492 2.664 . S
O499 Dy495 2.310 . S
O499 C500 1.268 . S
C500 O498 1.254 . S
C500 O499 1.268 . S
C501 O506 1.254 . S
C501 O507 1.268 . S
O502 Dy495 2.351 . S
O502 C510 1.249 . S
O503 Dy492 2.326 . S
O503 C510 1.267 . S
O504 C493 1.185 . S
O504 Dy495 2.398 . S
O505 C493 1.355 . S
O505 Dy495 2.491 . S
O506 Dy495 2.403 . S
O506 C501 1.254 . S
O507 Dy492 2.310 . S
O507 Dy495 2.664 . S
O507 C501 1.268 . S
O508 Dy492 2.351 . S
O508 C511 1.249 . S
O509 Dy495 2.326 . S
O509 C511 1.267 . S
C510 O502 1.249 . S
C510 O503 1.267 . S
C511 O508 1.249 . S
C511 O509 1.267 . S
Dy512 O516 2.398 1_455 S
Dy512 O517 2.491 1_455 S
Dy512 O518 2.403 . S
Dy512 O519 2.664 . S
Dy512 O523 2.326 1_455 S
Dy512 O527 2.310 . S
Dy512 O528 2.351 . S
C513 O524 1.185 . S
C513 O525 1.355 . S
C514 O516 1.185 . S
C514 O517 1.355 . S
Dy515 O519 2.310 . S
Dy515 O522 2.351 1_455 S
Dy515 O524 2.398 . S
Dy515 O525 2.491 . S
Dy515 O526 2.403 . S
Dy515 O527 2.664 . S
Dy515 O529 2.326 . S
O516 Dy512 2.398 1_655 S
O516 C514 1.185 . S
O517 Dy512 2.491 1_655 S
O517 C514 1.355 . S
O518 Dy512 2.403 . S
O518 C520 1.254 . S
O519 Dy512 2.664 . S
O519 Dy515 2.310 . S
O519 C520 1.268 . S
C520 O518 1.254 . S
C520 O519 1.268 . S
C521 O526 1.254 . S
C521 O527 1.268 . S
O522 Dy515 2.351 1_655 S
O522 C530 1.249 . S
O523 Dy512 2.326 1_655 S
O523 C530 1.267 . S
O524 C513 1.185 . S
O524 Dy515 2.398 . S
O525 C513 1.355 . S
O525 Dy515 2.491 . S
O526 Dy515 2.403 . S
O526 C521 1.254 . S
O527 Dy512 2.310 . S
O527 Dy515 2.664 . S
O527 C521 1.268 . S
O528 Dy512 2.351 . S
O528 C531 1.249 . S
O529 Dy515 2.326 . S
O529 C531 1.267 . S
C530 O522 1.249 . S
C530 O523 1.267 . S
C531 O528 1.249 . S
C531 O529 1.267 . S
Dy532 O536 2.398 . S
Dy532 O537 2.491 . S
Dy532 O538 2.403 . S
Dy532 O539 2.664 . S
Dy532 O543 2.326 . S
Dy532 O547 2.310 . S
Dy532 O548 2.351 . S
C533 O544 1.185 . S
C533 O545 1.355 . S
C534 O536 1.185 . S
C534 O537 1.355 . S
Dy535 O539 2.310 . S
Dy535 O542 2.351 . S
Dy535 O544 2.398 . S
Dy535 O545 2.491 . S
Dy535 O546 2.403 . S
Dy535 O547 2.664 . S
Dy535 O549 2.326 . S
O536 Dy532 2.398 . S
O536 C534 1.185 . S
O537 Dy532 2.491 . S
O537 C534 1.355 . S
O538 Dy532 2.403 . S
O538 C540 1.254 . S
O539 Dy532 2.664 . S
O539 Dy535 2.310 . S
O539 C540 1.268 . S
C540 O538 1.254 . S
C540 O539 1.268 . S
C541 O546 1.254 . S
C541 O547 1.268 . S
O542 Dy535 2.351 . S
O542 C550 1.249 . S
O543 Dy532 2.326 . S
O543 C550 1.267 . S
O544 C533 1.185 . S
O544 Dy535 2.398 . S
O545 C533 1.355 . S
O545 Dy535 2.491 . S
O546 Dy535 2.403 . S
O546 C541 1.254 . S
O547 Dy532 2.310 . S
O547 Dy535 2.664 . S
O547 C541 1.268 . S
O548 Dy532 2.351 . S
O548 C551 1.249 . S
O549 Dy535 2.326 . S
O549 C551 1.267 . S
C550 O542 1.249 . S
C550 O543 1.267 . S
C551 O548 1.249 . S
C551 O549 1.267 . S
Dy552 O556 2.398 . S
Dy552 O557 2.491 . S
Dy552 O558 2.403 . S
Dy552 O559 2.664 . S
Dy552 O563 2.326 . S
Dy552 O567 2.310 . S
Dy552 O568 2.351 . S
C553 O564 1.185 . S
C553 O565 1.355 . S
C554 O556 1.185 . S
C554 O557 1.355 . S
Dy555 O559 2.310 . S
Dy555 O562 2.351 . S
Dy555 O564 2.398 . S
Dy555 O565 2.491 . S
Dy555 O566 2.403 . S
Dy555 O567 2.664 . S
Dy555 O569 2.326 . S
O556 Dy552 2.398 . S
O556 C554 1.185 . S
O557 Dy552 2.491 . S
O557 C554 1.355 . S
O558 Dy552 2.403 . S
O558 C560 1.254 . S
O559 Dy552 2.664 . S
O559 Dy555 2.310 . S
O559 C560 1.268 . S
C560 O558 1.254 . S
C560 O559 1.268 . S
C561 O566 1.254 . S
C561 O567 1.268 . S
O562 Dy555 2.351 . S
O562 C570 1.249 . S
O563 Dy552 2.326 . S
O563 C570 1.267 . S
O564 C553 1.185 . S
O564 Dy555 2.398 . S
O565 C553 1.355 . S
O565 Dy555 2.491 . S
O566 Dy555 2.403 . S
O566 C561 1.254 . S
O567 Dy552 2.310 . S
O567 Dy555 2.664 . S
O567 C561 1.268 . S
O568 Dy552 2.351 . S
O568 C571 1.249 . S
O569 Dy555 2.326 . S
O569 C571 1.267 . S
C570 O562 1.249 . S
C570 O563 1.267 . S
C571 O568 1.249 . S
C571 O569 1.267 . S
Dy572 O576 2.398 . S
Dy572 O577 2.491 . S
Dy572 O578 2.403 . S
Dy572 O579 2.664 . S
Dy572 O583 2.326 . S
Dy572 O587 2.310 . S
Dy572 O588 2.351 . S
C573 O584 1.185 . S
C573 O585 1.355 . S
C574 O576 1.185 . S
C574 O577 1.355 . S
Dy575 O579 2.310 . S
Dy575 O582 2.351 . S
Dy575 O584 2.398 . S
Dy575 O585 2.491 . S
Dy575 O586 2.403 . S
Dy575 O587 2.664 . S
Dy575 O589 2.326 . S
O576 Dy572 2.398 . S
O576 C574 1.185 . S
O577 Dy572 2.491 . S
O577 C574 1.355 . S
O578 Dy572 2.403 . S
O578 C580 1.254 . S
O579 Dy572 2.664 . S
O579 Dy575 2.310 . S
O579 C580 1.268 . S
C580 O578 1.254 . S
C580 O579 1.268 . S
C581 O586 1.254 . S
C581 O587 1.268 . S
O582 Dy575 2.351 . S
O582 C590 1.249 . S
O583 Dy572 2.326 . S
O583 C590 1.267 . S
O584 C573 1.185 . S
O584 Dy575 2.398 . S
O585 C573 1.355 . S
O585 Dy575 2.491 . S
O586 Dy575 2.403 . S
O586 C581 1.254 . S
O587 Dy572 2.310 . S
O587 Dy575 2.664 . S
O587 C581 1.268 . S
O588 Dy572 2.351 . S
O588 C591 1.249 . S
O589 Dy575 2.326 . S
O589 C591 1.267 . S
C590 O582 1.249 . S
C590 O583 1.267 . S
C591 O588 1.249 . S
C591 O589 1.267 . S
Dy592 O596 2.398 . S
Dy592 O597 2.491 . S
Dy592 O598 2.403 . S
Dy592 O599 2.664 . S
Dy592 O603 2.326 . S
Dy592 O607 2.310 . S
Dy592 O608 2.351 . S
C593 O604 1.185 . S
C593 O605 1.355 . S
C594 O596 1.185 . S
C594 O597 1.355 . S
Dy595 O599 2.310 . S
Dy595 O602 2.351 . S
Dy595 O604 2.398 . S
Dy595 O605 2.491 . S
Dy595 O606 2.403 . S
Dy595 O607 2.664 . S
Dy595 O609 2.326 . S
O596 Dy592 2.398 . S
O596 C594 1.185 . S
O597 Dy592 2.491 . S
O597 C594 1.355 . S
O598 Dy592 2.403 . S
O598 C600 1.254 . S
O599 Dy592 2.664 . S
O599 Dy595 2.310 . S
O599 C600 1.268 . S
C600 O598 1.254 . S
C600 O599 1.268 . S
C601 O606 1.254 . S
C601 O607 1.268 . S
O602 Dy595 2.351 . S
O602 C610 1.249 . S
O603 Dy592 2.326 . S
O603 C610 1.267 . S
O604 C593 1.185 . S
O604 Dy595 2.398 . S
O605 C593 1.355 . S
O605 Dy595 2.491 . S
O606 Dy595 2.403 . S
O606 C601 1.254 . S
O607 Dy592 2.310 . S
O607 Dy595 2.664 . S
O607 C601 1.268 . S
O608 Dy592 2.351 . S
O608 C611 1.249 . S
O609 Dy595 2.326 . S
O609 C611 1.267 . S
C610 O602 1.249 . S
C610 O603 1.267 . S
C611 O608 1.249 . S
C611 O609 1.267 . S
Dy612 O616 2.398 . S
Dy612 O617 2.491 . S
Dy612 O618 2.403 1_554 S
Dy612 O619 2.609 1_455 S
Dy612 O623 2.326 . S
Dy612 O627 2.310 . S
Dy612 O628 2.351 . S
C613 O624 1.185 . S
C613 O625 1.355 . S
C614 O616 1.185 . S
C614 O617 1.355 . S
Dy615 O619 2.341 . S
Dy615 O622 2.351 . S
Dy615 O624 2.398 . S
Dy615 O625 2.491 . S
Dy615 O626 2.403 . S
Dy615 O627 2.664 1_655 S
Dy615 O629 2.326 . S
O616 Dy612 2.398 . S
O616 C614 1.185 . S
O617 Dy612 2.491 . S
O617 C614 1.355 . S
O618 Dy612 2.403 1_556 S
O618 C620 1.254 . S
O619 Dy612 2.609 1_655 S
O619 Dy615 2.341 . S
O619 C620 1.249 1_654 S
C620 O618 1.254 . S
C620 O619 1.249 1_456 S
C621 O626 1.254 1_455 S
C621 O627 1.268 . S
O622 Dy615 2.351 . S
O622 C630 1.249 1_655 S
O623 Dy612 2.326 . S
O623 C630 1.267 . S
O624 C613 1.185 . S
O624 Dy615 2.398 . S
O625 C613 1.355 . S
O625 Dy615 2.491 . S
O626 Dy615 2.403 . S
O626 C621 1.254 1_655 S
O627 Dy612 2.310 . S
O627 Dy615 2.664 1_455 S
O627 C621 1.268 . S
O628 Dy612 2.351 . S
O628 C631 1.249 . S
O629 Dy615 2.326 . S
O629 C631 1.267 1_655 S
C630 O622 1.249 1_455 S
C630 O623 1.267 . S
C631 O628 1.249 . S
C631 O629 1.267 1_455 S
H632 C640 0.929 . S
H633 C642 0.930 . S
H634 C644 0.931 . S
H635 C647 0.929 1_655 S
H636 C650 0.930 . S
H637 C652 0.960 . S
H638 C652 0.960 . S
H639 C652 0.960 . S
C640 H632 0.929 . S
C640 C641 1.377 . S
C640 C642 1.384 . S
C641 C640 1.377 . S
C641 C647 1.390 . S
C642 H633 0.930 . S
C642 C640 1.384 . S
C642 C643 1.372 . S
C643 C642 1.372 . S
C643 C644 1.400 . S
C643 C648 1.490 . S
C644 H634 0.931 . S
C644 C643 1.400 . S
C644 C647 1.386 . S
H645 C661 0.930 . S
H646 C662 0.931 . S
C647 H635 0.929 1_455 S
C647 C641 1.390 . S
C647 C644 1.386 . S
C648 C643 1.490 . S
C648 C650 1.395 . S
C648 C651 1.403 . S
H649 C655 0.913 1_655 S
C650 H636 0.930 . S
C650 C648 1.395 . S
C650 C653 1.403 . S
C651 C648 1.403 . S
C651 C652 1.524 1_455 S
C651 C655 1.400 . S
C652 H637 0.960 . S
C652 H638 0.960 . S
C652 H639 0.960 . S
C652 C651 1.524 1_655 S
C653 C650 1.403 . S
C653 C654 1.392 . S
C653 C657 1.495 . S
C654 C653 1.392 . S
C654 C655 1.385 . S
C654 C656 1.478 . S
C655 H649 0.913 1_455 S
C655 C651 1.400 . S
C655 C654 1.385 . S
C656 C654 1.478 . S
C656 C658 1.381 . S
C656 C662 1.383 1_556 S
C657 C653 1.495 . S
C657 H663 0.959 . S
C657 H664 0.961 1_556 S
C657 H665 0.960 . S
C658 C656 1.381 . S
C658 C659 1.405 . S
C658 H666 0.930 . S
C659 C658 1.405 . S
C659 C660 1.368 1_556 S
C659 H667 0.935 . S
C660 C659 1.368 1_554 S
C660 C661 1.377 . S
C661 H645 0.930 . S
C661 C660 1.377 . S
C661 C662 1.379 . S
C662 H646 0.931 . S
C662 C656 1.383 1_554 S
C662 C661 1.379 . S
H663 C657 0.959 . S
H664 C657 0.961 1_554 S
H665 C657 0.960 . S
H666 C658 0.930 . S
H667 C659 0.935 . S
H668 C676 0.929 . S
H669 C678 0.930 . S
H670 C680 0.930 . S
H671 C683 0.929 . S
H672 C686 0.930 . S
H673 C688 0.960 . S
H674 C688 0.960 . S
H675 C688 0.960 . S
C676 H668 0.929 . S
C676 C677 1.377 . S
C676 C678 1.384 . S
C677 C676 1.377 . S
C677 C683 1.390 . S
C678 H669 0.930 . S
C678 C676 1.384 . S
C678 C679 1.372 . S
C679 C678 1.372 . S
C679 C680 1.400 . S
C679 C684 1.490 . S
C680 H670 0.930 . S
C680 C679 1.400 . S
C680 C683 1.386 . S
H681 C697 0.930 . S
H682 C698 0.931 . S
C683 H671 0.929 . S
C683 C677 1.390 . S
C683 C680 1.386 . S
C684 C679 1.490 . S
C684 C686 1.395 . S
C684 C687 1.403 . S
H685 C691 0.930 . S
C686 H672 0.930 . S
C686 C684 1.395 . S
C686 C689 1.403 . S
C687 C684 1.403 . S
C687 C688 1.524 . S
C687 C691 1.400 . S
C688 H673 0.960 . S
C688 H674 0.960 . S
C688 H675 0.960 . S
C688 C687 1.524 . S
C689 C686 1.403 . S
C689 C690 1.392 . S
C689 C693 1.495 . S
C690 C689 1.392 . S
C690 C691 1.385 . S
C690 C692 1.478 . S
C691 H685 0.930 . S
C691 C687 1.400 . S
C691 C690 1.385 . S
C692 C690 1.478 . S
C692 C694 1.381 . S
C692 C698 1.383 . S
C693 C689 1.495 . S
C693 H699 0.959 . S
C693 H700 0.961 . S
C693 H701 0.960 . S
C694 C692 1.381 . S
C694 C695 1.394 . S
C694 H702 0.930 . S
C695 C694 1.394 . S
C695 C696 1.383 . S
C695 H703 0.929 . S
C696 C695 1.383 . S
C696 C697 1.377 . S
C697 H681 0.930 . S
C697 C696 1.377 . S
C697 C698 1.379 . S
C698 H682 0.931 . S
C698 C692 1.383 . S
C698 C697 1.379 . S
H699 C693 0.959 . S
H700 C693 0.961 . S
H701 C693 0.960 . S
H702 C694 0.930 . S
H703 C695 0.929 . S
H704 C712 0.929 . S
H705 C714 0.930 . S
H706 C716 0.930 . S
H707 C719 0.929 . S
H708 C722 0.930 . S
H709 C724 0.960 . S
H710 C724 0.960 . S
H711 C724 0.960 . S
C712 H704 0.929 . S
C712 C713 1.377 . S
C712 C714 1.384 . S
C713 C712 1.377 . S
C713 C719 1.390 . S
C714 H705 0.930 . S
C714 C712 1.384 . S
C714 C715 1.372 . S
C715 C714 1.372 . S
C715 C716 1.400 . S
C715 C720 1.490 . S
C716 H706 0.930 . S
C716 C715 1.400 . S
C716 C719 1.386 . S
H717 C733 0.930 . S
H718 C734 0.931 . S
C719 H707 0.929 . S
C719 C713 1.390 . S
C719 C716 1.386 . S
C720 C715 1.490 . S
C720 C722 1.395 . S
C720 C723 1.403 . S
H721 C727 0.930 . S
C722 H708 0.930 . S
C722 C720 1.395 . S
C722 C725 1.403 . S
C723 C720 1.403 . S
C723 C724 1.524 . S
C723 C727 1.400 . S
C724 H709 0.960 . S
C724 H710 0.960 . S
C724 H711 0.960 . S
C724 C723 1.524 . S
C725 C722 1.403 . S
C725 C726 1.392 . S
C725 C729 1.495 . S
C726 C725 1.392 . S
C726 C727 1.385 . S
C726 C728 1.478 . S
C727 H721 0.930 . S
C727 C723 1.400 . S
C727 C726 1.385 . S
C728 C726 1.478 . S
C728 C730 1.381 . S
C728 C734 1.383 . S
C729 C725 1.495 . S
C729 H735 0.959 . S
C729 H736 0.961 . S
C729 H737 0.960 . S
C730 C728 1.381 . S
C730 C731 1.394 . S
C730 H738 0.930 . S
C731 C730 1.394 . S
C731 C732 1.383 . S
C731 H739 0.929 . S
C732 C731 1.383 . S
C732 C733 1.377 . S
C733 H717 0.930 . S
C733 C732 1.377 . S
C733 C734 1.379 . S
C734 H718 0.931 . S
C734 C728 1.383 . S
C734 C733 1.379 . S
H735 C729 0.959 . S
H736 C729 0.961 . S
H737 C729 0.960 . S
H738 C730 0.930 . S
H739 C731 0.929 . S
H740 C748 0.929 . S
H741 C750 0.930 . S
H742 C752 0.930 . S
H743 C755 0.929 . S
H744 C758 0.930 . S
H745 C760 0.960 . S
H746 C760 0.960 . S
H747 C760 0.960 . S
C748 H740 0.929 . S
C748 C749 1.377 . S
C748 C750 1.384 . S
C749 C748 1.377 . S
C749 C755 1.390 . S
C750 H741 0.930 . S
C750 C748 1.384 . S
C750 C751 1.372 . S
C751 C750 1.372 . S
C751 C752 1.400 . S
C751 C756 1.490 . S
C752 H742 0.930 . S
C752 C751 1.400 . S
C752 C755 1.386 . S
H753 C769 0.930 . S
H754 C770 0.931 . S
C755 H743 0.929 . S
C755 C749 1.390 . S
C755 C752 1.386 . S
C756 C751 1.490 . S
C756 C758 1.395 . S
C756 C759 1.403 . S
H757 C763 0.930 . S
C758 H744 0.930 . S
C758 C756 1.395 . S
C758 C761 1.403 . S
C759 C756 1.403 . S
C759 C760 1.524 . S
C759 C763 1.400 . S
C760 H745 0.960 . S
C760 H746 0.960 . S
C760 H747 0.960 . S
C760 C759 1.524 . S
C761 C758 1.403 . S
C761 C762 1.392 . S
C761 C765 1.495 . S
C762 C761 1.392 . S
C762 C763 1.385 . S
C762 C764 1.478 . S
C763 H757 0.930 . S
C763 C759 1.400 . S
C763 C762 1.385 . S
C764 C762 1.478 . S
C764 C766 1.381 . S
C764 C770 1.383 . S
C765 C761 1.495 . S
C765 H771 0.959 . S
C765 H772 0.961 . S
C765 H773 0.960 . S
C766 C764 1.381 . S
C766 C767 1.394 . S
C766 H774 0.930 . S
C767 C766 1.394 . S
C767 C768 1.383 . S
C767 H775 0.929 . S
C768 C767 1.383 . S
C768 C769 1.377 . S
C769 H753 0.930 . S
C769 C768 1.377 . S
C769 C770 1.379 . S
C770 H754 0.931 . S
C770 C764 1.383 . S
C770 C769 1.379 . S
H771 C765 0.959 . S
H772 C765 0.961 . S
H773 C765 0.960 . S
H774 C766 0.930 . S
H775 C767 0.929 . S
H776 C784 0.929 . S
H777 C786 0.930 . S
H778 C788 0.930 . S
H779 C791 0.929 . S
H780 C794 0.930 . S
H781 C796 0.960 . S
H782 C796 0.960 . S
H783 C796 0.960 . S
C784 H776 0.929 . S
C784 C785 1.377 . S
C784 C786 1.384 . S
C785 C784 1.377 . S
C785 C791 1.390 . S
C786 H777 0.930 . S
C786 C784 1.384 . S
C786 C787 1.372 . S
C787 C786 1.372 . S
C787 C788 1.400 . S
C787 C792 1.490 . S
C788 H778 0.930 . S
C788 C787 1.400 . S
C788 C791 1.386 . S
H789 C805 0.930 . S
H790 C806 0.931 . S
C791 H779 0.929 . S
C791 C785 1.390 . S
C791 C788 1.386 . S
C792 C787 1.490 . S
C792 C794 1.395 . S
C792 C795 1.403 . S
H793 C799 0.930 . S
C794 H780 0.930 . S
C794 C792 1.395 . S
C794 C797 1.403 . S
C795 C792 1.403 . S
C795 C796 1.524 . S
C795 C799 1.400 . S
C796 H781 0.960 . S
C796 H782 0.960 . S
C796 H783 0.960 . S
C796 C795 1.524 . S
C797 C794 1.403 . S
C797 C798 1.392 . S
C797 C801 1.495 1_455 S
C798 C797 1.392 . S
C798 C799 1.385 . S
C798 C800 1.478 . S
C799 H793 0.930 . S
C799 C795 1.400 . S
C799 C798 1.385 . S
C800 C798 1.478 . S
C800 C802 1.381 . S
C800 C806 1.383 . S
C801 C797 1.495 1_655 S
C801 H807 0.959 . S
C801 H808 0.961 1_655 S
C801 H809 0.960 . S
C802 C800 1.381 . S
C802 C803 1.394 . S
C802 H810 0.930 . S
C803 C802 1.394 . S
C803 C804 1.383 . S
C803 H811 0.929 . S
C804 C803 1.383 . S
C804 C805 1.377 . S
C805 H789 0.930 . S
C805 C804 1.377 . S
C805 C806 1.379 . S
C806 H790 0.931 . S
C806 C800 1.383 . S
C806 C805 1.379 . S
H807 C801 0.959 . S
H808 C801 0.961 1_455 S
H809 C801 0.960 . S
H810 C802 0.930 . S
H811 C803 0.929 . S
H812 C820 0.929 . S
H813 C822 0.930 . S
H814 C824 0.930 . S
H815 C827 0.929 . S
H816 C830 0.930 . S
H817 C832 0.960 . S
H818 C832 0.960 . S
H819 C832 0.960 . S
C820 H812 0.929 . S
C820 C821 1.377 . S
C820 C822 1.384 . S
C821 C820 1.377 . S
C821 C827 1.390 . S
C822 H813 0.930 . S
C822 C820 1.384 . S
C822 C823 1.372 . S
C823 C822 1.372 . S
C823 C824 1.400 . S
C823 C828 1.490 . S
C824 H814 0.930 . S
C824 C823 1.400 . S
C824 C827 1.386 . S
H825 C841 0.930 . S
H826 C842 0.931 . S
C827 H815 0.929 . S
C827 C821 1.390 . S
C827 C824 1.386 . S
C828 C823 1.490 . S
C828 C830 1.395 . S
C828 C831 1.403 . S
H829 C835 0.930 . S
C830 H816 0.930 . S
C830 C828 1.395 . S
C830 C833 1.403 . S
C831 C828 1.403 . S
C831 C832 1.524 . S
C831 C835 1.400 . S
C832 H817 0.960 . S
C832 H818 0.960 . S
C832 H819 0.960 . S
C832 C831 1.524 . S
C833 C830 1.403 . S
C833 C834 1.392 . S
C833 C837 1.495 . S
C834 C833 1.392 . S
C834 C835 1.385 . S
C834 C836 1.478 . S
C835 H829 0.930 . S
C835 C831 1.400 . S
C835 C834 1.385 . S
C836 C834 1.478 . S
C836 C838 1.381 . S
C836 C842 1.383 . S
C837 C833 1.495 . S
C837 H843 0.959 . S
C837 H844 0.961 . S
C837 H845 0.960 . S
C838 C836 1.381 . S
C838 C839 1.394 . S
C838 H846 0.930 . S
C839 C838 1.394 . S
C839 C840 1.383 . S
C839 H847 0.929 . S
C840 C839 1.383 . S
C840 C841 1.377 . S
C841 H825 0.930 . S
C841 C840 1.377 . S
C841 C842 1.379 . S
C842 H826 0.931 . S
C842 C836 1.383 . S
C842 C841 1.379 . S
H843 C837 0.959 . S
H844 C837 0.961 . S
H845 C837 0.960 . S
H846 C838 0.930 . S
H847 C839 0.929 . S
H848 C856 0.929 . S
H849 C858 0.930 . S
H850 C860 0.930 . S
H851 C863 0.929 . S
H852 C866 0.930 . S
H853 C868 0.960 . S
H854 C868 0.960 . S
H855 C868 0.960 . S
C856 H848 0.929 . S
C856 C857 1.377 . S
C856 C858 1.384 . S
C857 C856 1.377 . S
C857 C863 1.390 . S
C858 H849 0.930 . S
C858 C856 1.384 . S
C858 C859 1.372 . S
C859 C858 1.372 . S
C859 C860 1.400 . S
C859 C864 1.490 . S
C860 H850 0.930 . S
C860 C859 1.400 . S
C860 C863 1.386 . S
H861 C877 0.930 . S
H862 C878 0.931 . S
C863 H851 0.929 . S
C863 C857 1.390 . S
C863 C860 1.386 . S
C864 C859 1.490 . S
C864 C866 1.395 . S
C864 C867 1.403 . S
H865 C871 0.930 . S
C866 H852 0.930 . S
C866 C864 1.395 . S
C866 C869 1.403 . S
C867 C864 1.403 . S
C867 C868 1.524 . S
C867 C871 1.400 . S
C868 H853 0.960 . S
C868 H854 0.960 . S
C868 H855 0.960 . S
C868 C867 1.524 . S
C869 C866 1.403 . S
C869 C870 1.392 . S
C869 C873 1.495 . S
C870 C869 1.392 . S
C870 C871 1.385 . S
C870 C872 1.478 . S
C871 H865 0.930 . S
C871 C867 1.400 . S
C871 C870 1.385 . S
C872 C870 1.478 . S
C872 C874 1.381 . S
C872 C878 1.383 . S
C873 C869 1.495 . S
C873 H879 0.959 . S
C873 H880 0.961 . S
C873 H881 0.960 . S
C874 C872 1.381 . S
C874 C875 1.394 . S
C874 H882 0.930 . S
C875 C874 1.394 . S
C875 C876 1.383 . S
C875 H883 0.929 . S
C876 C875 1.383 . S
C876 C877 1.377 . S
C877 H861 0.930 . S
C877 C876 1.377 . S
C877 C878 1.379 . S
C878 H862 0.931 . S
C878 C872 1.383 . S
C878 C877 1.379 . S
H879 C873 0.959 . S
H880 C873 0.961 . S
H881 C873 0.960 . S
H882 C874 0.930 . S
H883 C875 0.929 . S
H884 C892 0.929 . S
H885 C894 0.930 . S
H886 C896 0.930 . S
H887 C899 0.929 . S
H888 C902 0.930 . S
H889 C904 0.960 . S
H890 C904 0.960 . S
H891 C904 0.960 . S
C892 H884 0.929 . S
C892 C893 1.377 . S
C892 C894 1.384 . S
C893 C892 1.377 . S
C893 C899 1.390 . S
C894 H885 0.930 . S
C894 C892 1.384 . S
C894 C895 1.372 . S
C895 C894 1.372 . S
C895 C896 1.400 . S
C895 C900 1.490 . S
C896 H886 0.930 . S
C896 C895 1.400 . S
C896 C899 1.386 . S
H897 C913 0.930 . S
H898 C914 0.931 . S
C899 H887 0.929 . S
C899 C893 1.390 . S
C899 C896 1.386 . S
C900 C895 1.490 . S
C900 C902 1.395 . S
C900 C903 1.403 . S
H901 C907 0.930 . S
C902 H888 0.930 . S
C902 C900 1.395 . S
C902 C905 1.403 . S
C903 C900 1.403 . S
C903 C904 1.524 . S
C903 C907 1.400 . S
C904 H889 0.960 . S
C904 H890 0.960 . S
C904 H891 0.960 . S
C904 C903 1.524 . S
C905 C902 1.403 . S
C905 C906 1.392 . S
C905 C909 1.495 . S
C906 C905 1.392 . S
C906 C907 1.385 . S
C906 C908 1.478 . S
C907 H901 0.930 . S
C907 C903 1.400 . S
C907 C906 1.385 . S
C908 C906 1.478 . S
C908 C910 1.381 . S
C908 C914 1.383 . S
C909 C905 1.495 . S
C909 H915 0.959 . S
C909 H916 0.961 . S
C909 H917 0.960 . S
C910 C908 1.381 . S
C910 C911 1.394 . S
C910 H918 0.930 . S
C911 C910 1.394 . S
C911 C912 1.383 . S
C911 H919 0.929 . S
C912 C911 1.383 . S
C912 C913 1.377 . S
C913 H897 0.930 . S
C913 C912 1.377 . S
C913 C914 1.379 . S
C914 H898 0.931 . S
C914 C908 1.383 . S
C914 C913 1.379 . S
H915 C909 0.959 . S
H916 C909 0.961 . S
H917 C909 0.960 . S
H918 C910 0.930 . S
H919 C911 0.929 . S
H920 C928 0.929 . S
H921 C930 0.930 . S
H922 C932 0.930 . S
H923 C935 0.929 . S
H924 C938 0.930 . S
H925 C940 0.960 1_455 S
H926 C940 0.960 . S
H927 C940 0.960 . S
C928 H920 0.929 . S
C928 C929 1.377 . S
C928 C930 1.384 . S
C929 C928 1.377 . S
C929 C935 1.390 . S
C930 H921 0.930 . S
C930 C928 1.384 . S
C930 C931 1.372 . S
C931 C930 1.372 . S
C931 C932 1.400 . S
C931 C936 1.490 . S
C932 H922 0.930 . S
C932 C931 1.400 . S
C932 C935 1.386 . S
H933 C949 0.930 . S
H934 C950 0.931 . S
C935 H923 0.929 . S
C935 C929 1.390 . S
C935 C932 1.386 . S
C936 C931 1.490 . S
C936 C938 1.395 . S
C936 C939 1.403 . S
H937 C943 0.930 1_455 S
C938 H924 0.930 . S
C938 C936 1.395 . S
C938 C941 1.403 . S
C939 C936 1.403 . S
C939 C940 1.524 . S
C939 C943 1.400 . S
C940 H925 0.960 1_655 S
C940 H926 0.960 . S
C940 H927 0.960 . S
C940 C939 1.524 . S
C941 C938 1.403 . S
C941 C942 1.392 . S
C941 C945 1.495 . S
C942 C941 1.392 . S
C942 C943 1.385 . S
C942 C944 1.478 . S
C943 H937 0.930 1_655 S
C943 C939 1.400 . S
C943 C942 1.385 . S
C944 C942 1.478 . S
C944 C946 1.381 . S
C944 C950 1.383 1_655 S
C945 C941 1.495 . S
C945 H951 0.959 . S
C945 H952 0.961 . S
C945 H953 0.960 . S
C946 C944 1.381 . S
C946 C947 1.394 1_655 S
C946 H954 0.930 . S
C947 C946 1.394 1_455 S
C947 C948 1.383 . S
C947 H955 0.929 . S
C948 C947 1.383 . S
C948 C949 1.377 . S
C949 H933 0.930 . S
C949 C948 1.377 . S
C949 C950 1.379 . S
C950 H934 0.931 . S
C950 C944 1.383 1_455 S
C950 C949 1.379 . S
H951 C945 0.959 . S
H952 C945 0.961 . S
H953 C945 0.960 . S
H954 C946 0.930 . S
H955 C947 0.929 . S
H956 C964 0.929 . S
H957 C966 0.930 . S
H958 C968 0.930 . S
H959 C971 0.929 . S
H960 C974 0.930 . S
H961 C976 0.960 . S
H962 C976 0.960 . S
H963 C976 0.960 . S
C964 H956 0.929 . S
C964 C965 1.377 . S
C964 C966 1.384 . S
C965 C964 1.377 . S
C965 C971 1.390 . S
C966 H957 0.930 . S
C966 C964 1.384 . S
C966 C967 1.372 . S
C967 C966 1.372 . S
C967 C968 1.400 . S
C967 C972 1.490 . S
C968 H958 0.930 . S
C968 C967 1.400 . S
C968 C971 1.386 . S
H969 C985 0.930 . S
H970 C986 0.931 . S
C971 H959 0.929 . S
C971 C965 1.390 . S
C971 C968 1.386 . S
C972 C967 1.490 . S
C972 C974 1.395 . S
C972 C975 1.403 . S
H973 C979 0.930 . S
C974 H960 0.930 . S
C974 C972 1.395 . S
C974 C977 1.403 . S
C975 C972 1.403 . S
C975 C976 1.524 . S
C975 C979 1.400 . S
C976 H961 0.960 . S
C976 H962 0.960 . S
C976 H963 0.960 . S
C976 C975 1.524 . S
C977 C974 1.403 . S
C977 C978 1.392 . S
C977 C981 1.495 . S
C978 C977 1.392 . S
C978 C979 1.385 . S
C978 C980 1.478 . S
C979 H973 0.930 . S
C979 C975 1.400 . S
C979 C978 1.385 . S
C980 C978 1.478 . S
C980 C982 1.381 . S
C980 C986 1.383 . S
C981 C977 1.495 . S
C981 H987 0.959 . S
C981 H988 0.961 . S
C981 H989 0.960 . S
C982 C980 1.381 . S
C982 C983 1.394 . S
C982 H990 0.930 . S
C983 C982 1.394 . S
C983 C984 1.383 . S
C983 H991 0.929 . S
C984 C983 1.383 . S
C984 C985 1.377 . S
C985 H969 0.930 . S
C985 C984 1.377 . S
C985 C986 1.379 . S
C986 H970 0.931 . S
C986 C980 1.383 . S
C986 C985 1.379 . S
H987 C981 0.959 . S
H988 C981 0.961 . S
H989 C981 0.960 . S
H990 C982 0.930 . S
H991 C983 0.929 . S
H992 C1000 0.929 1_565 S
H993 C1002 0.930 1_565 S
H994 C1004 0.930 . S
H995 C1007 0.929 . S
H996 C1010 0.930 . S
H997 C1012 0.960 . S
H998 C1012 0.960 . S
H999 C1012 0.960 . S
C1000 H992 0.929 1_545 S
C1000 C1001 1.377 . S
C1000 C1002 1.384 . S
C1001 C1000 1.377 . S
C1001 C1007 1.390 . S
C1002 H993 0.930 1_545 S
C1002 C1000 1.384 . S
C1002 C1003 1.372 . S
C1003 C1002 1.372 . S
C1003 C1004 1.400 . S
C1003 C1008 1.490 . S
C1004 H994 0.930 . S
C1004 C1003 1.400 . S
C1004 C1007 1.386 . S
H1005 C1021 0.930 . S
H1006 C1022 0.931 . S
C1007 H995 0.929 . S
C1007 C1001 1.390 . S
C1007 C1004 1.386 . S
C1008 C1003 1.490 . S
C1008 C1010 1.395 1_545 S
C1008 C1011 1.403 . S
H1009 C1015 0.930 . S
C1010 H996 0.930 . S
C1010 C1008 1.395 1_565 S
C1010 C1013 1.403 . S
C1011 C1008 1.403 . S
C1011 C1012 1.524 . S
C1011 C1015 1.400 . S
C1012 H997 0.960 . S
C1012 H998 0.960 . S
C1012 H999 0.960 . S
C1012 C1011 1.524 . S
C1013 C1010 1.403 . S
C1013 C1014 1.392 1_565 S
C1013 C1017 1.495 . S
C1014 C1013 1.392 1_545 S
C1014 C1015 1.385 . S
C1014 C1016 1.478 . S
C1015 H1009 0.930 . S
C1015 C1011 1.400 . S
C1015 C1014 1.385 . S
C1016 C1014 1.478 . S
C1016 C1018 1.381 1_545 S
C1016 C1022 1.383 . S
C1017 C1013 1.495 . S
C1017 H1023 0.959 . S
C1017 H1024 0.961 . S
C1017 H1025 0.960 . S
C1018 C1016 1.381 1_565 S
C1018 C1019 1.394 . S
C1018 H1026 0.930 . S
C1019 C1018 1.394 . S
C1019 C1020 1.383 1_565 S
C1019 H1027 0.929 . S
C1020 C1019 1.383 1_545 S
C1020 C1021 1.377 . S
C1021 H1005 0.930 . S
C1021 C1020 1.377 . S
C1021 C1022 1.379 . S
C1022 H1006 0.931 . S
C1022 C1016 1.383 . S
C1022 C1021 1.379 . S
H1023 C1017 0.959 . S
H1024 C1017 0.961 . S
H1025 C1017 0.960 . S
H1026 C1018 0.930 . S
H1027 C1019 0.929 . S
H1028 C1036 0.929 . S
H1029 C1038 0.930 . S
H1030 C1040 0.930 . S
H1031 C1043 0.929 . S
H1032 C1046 0.930 . S
H1033 C1048 0.960 . S
H1034 C1048 0.960 . S
H1035 C1048 0.960 . S
C1036 H1028 0.929 . S
C1036 C1037 1.377 . S
C1036 C1038 1.384 . S
C1037 C1036 1.377 . S
C1037 C1043 1.390 . S
C1038 H1029 0.930 . S
C1038 C1036 1.384 . S
C1038 C1039 1.372 . S
C1039 C1038 1.372 . S
C1039 C1040 1.400 . S
C1039 C1044 1.490 . S
C1040 H1030 0.930 . S
C1040 C1039 1.400 . S
C1040 C1043 1.386 . S
H1041 C1057 0.930 . S
H1042 C1058 0.931 . S
C1043 H1031 0.929 . S
C1043 C1037 1.390 . S
C1043 C1040 1.386 . S
C1044 C1039 1.490 . S
C1044 C1046 1.395 . S
C1044 C1047 1.403 . S
H1045 C1051 0.930 . S
C1046 H1032 0.930 . S
C1046 C1044 1.395 . S
C1046 C1049 1.403 . S
C1047 C1044 1.403 . S
C1047 C1048 1.524 . S
C1047 C1051 1.400 . S
C1048 H1033 0.960 . S
C1048 H1034 0.960 . S
C1048 H1035 0.960 . S
C1048 C1047 1.524 . S
C1049 C1046 1.403 . S
C1049 C1050 1.392 . S
C1049 C1053 1.495 . S
C1050 C1049 1.392 . S
C1050 C1051 1.385 . S
C1050 C1052 1.478 . S
C1051 H1045 0.930 . S
C1051 C1047 1.400 . S
C1051 C1050 1.385 . S
C1052 C1050 1.478 . S
C1052 C1054 1.381 . S
C1052 C1058 1.383 . S
C1053 C1049 1.495 . S
C1053 H1059 0.959 . S
C1053 H1060 0.961 . S
C1053 H1061 0.960 . S
C1054 C1052 1.381 . S
C1054 C1055 1.394 . S
C1054 H1062 0.930 . S
C1055 C1054 1.394 . S
C1055 C1056 1.383 . S
C1055 H1063 0.929 . S
C1056 C1055 1.383 . S
C1056 C1057 1.377 . S
C1057 H1041 0.930 . S
C1057 C1056 1.377 . S
C1057 C1058 1.379 . S
C1058 H1042 0.931 . S
C1058 C1052 1.383 . S
C1058 C1057 1.379 . S
H1059 C1053 0.959 . S
H1060 C1053 0.961 . S
H1061 C1053 0.960 . S
H1062 C1054 0.930 . S
H1063 C1055 0.929 . S
H1064 C1072 0.929 . S
H1065 C1074 0.930 . S
H1066 C1076 0.930 . S
H1067 C1079 0.929 . S
H1068 C1082 0.930 . S
H1069 C1084 0.960 . S
H1070 C1084 0.960 . S
H1071 C1084 0.960 . S
C1072 H1064 0.929 . S
C1072 C1073 1.377 . S
C1072 C1074 1.384 . S
C1073 C1072 1.377 . S
C1073 C1079 1.390 . S
C1074 H1065 0.930 . S
C1074 C1072 1.384 . S
C1074 C1075 1.372 . S
C1075 C1074 1.372 . S
C1075 C1076 1.400 . S
C1075 C1080 1.490 . S
C1076 H1066 0.930 . S
C1076 C1075 1.400 . S
C1076 C1079 1.386 . S
H1077 C1093 0.930 . S
H1078 C1094 0.931 . S
C1079 H1067 0.929 . S
C1079 C1073 1.390 . S
C1079 C1076 1.386 . S
C1080 C1075 1.490 . S
C1080 C1082 1.395 . S
C1080 C1083 1.403 . S
H1081 C1087 0.930 . S
C1082 H1068 0.930 . S
C1082 C1080 1.395 . S
C1082 C1085 1.403 . S
C1083 C1080 1.403 . S
C1083 C1084 1.524 . S
C1083 C1087 1.400 . S
C1084 H1069 0.960 . S
C1084 H1070 0.960 . S
C1084 H1071 0.960 . S
C1084 C1083 1.524 . S
C1085 C1082 1.403 . S
C1085 C1086 1.392 . S
C1085 C1089 1.495 1_545 S
C1086 C1085 1.392 . S
C1086 C1087 1.385 . S
C1086 C1088 1.478 . S
C1087 H1081 0.930 . S
C1087 C1083 1.400 . S
C1087 C1086 1.385 . S
C1088 C1086 1.478 . S
C1088 C1090 1.381 . S
C1088 C1094 1.383 1_655 S
C1089 C1085 1.495 1_565 S
C1089 H1095 0.959 . S
C1089 H1096 0.961 . S
C1089 H1097 0.960 . S
C1090 C1088 1.381 . S
C1090 C1091 1.394 . S
C1090 H1098 0.930 . S
C1091 C1090 1.394 . S
C1091 C1092 1.383 1_655 S
C1091 H1099 0.929 . S
C1092 C1091 1.383 1_455 S
C1092 C1093 1.377 . S
C1093 H1077 0.930 . S
C1093 C1092 1.377 . S
C1093 C1094 1.379 . S
C1094 H1078 0.931 . S
C1094 C1088 1.383 1_455 S
C1094 C1093 1.379 . S
H1095 C1089 0.959 . S
H1096 C1089 0.961 . S
H1097 C1089 0.960 . S
H1098 C1090 0.930 . S
H1099 C1091 0.929 . S
H1100 C1108 0.929 . S
H1101 C1110 0.930 . S
H1102 C1112 0.930 . S
H1103 C1115 0.929 . S
H1104 C1118 0.930 . S
H1105 C1120 0.960 . S
H1106 C1120 0.960 . S
H1107 C1120 0.960 . S
C1108 H1100 0.929 . S
C1108 C1109 1.377 . S
C1108 C1110 1.384 . S
C1109 C1108 1.377 . S
C1109 C1115 1.390 . S
C1110 H1101 0.930 . S
C1110 C1108 1.384 . S
C1110 C1111 1.372 . S
C1111 C1110 1.372 . S
C1111 C1112 1.400 . S
C1111 C1116 1.490 . S
C1112 H1102 0.930 . S
C1112 C1111 1.400 . S
C1112 C1115 1.386 . S
H1113 C1129 0.930 . S
H1114 C1130 0.931 . S
C1115 H1103 0.929 . S
C1115 C1109 1.390 . S
C1115 C1112 1.386 . S
C1116 C1111 1.490 . S
C1116 C1118 1.395 . S
C1116 C1119 1.403 . S
H1117 C1123 0.930 . S
C1118 H1104 0.930 . S
C1118 C1116 1.395 . S
C1118 C1121 1.403 . S
C1119 C1116 1.403 . S
C1119 C1120 1.524 . S
C1119 C1123 1.400 . S
C1120 H1105 0.960 . S
C1120 H1106 0.960 . S
C1120 H1107 0.960 . S
C1120 C1119 1.524 . S
C1121 C1118 1.403 . S
C1121 C1122 1.392 . S
C1121 C1125 1.495 . S
C1122 C1121 1.392 . S
C1122 C1123 1.385 . S
C1122 C1124 1.478 . S
C1123 H1117 0.930 . S
C1123 C1119 1.400 . S
C1123 C1122 1.385 . S
C1124 C1122 1.478 . S
C1124 C1126 1.381 . S
C1124 C1130 1.383 . S
C1125 C1121 1.495 . S
C1125 H1131 0.959 . S
C1125 H1132 0.961 . S
C1125 H1133 0.960 . S
C1126 C1124 1.381 . S
C1126 C1127 1.394 . S
C1126 H1134 0.930 . S
C1127 C1126 1.394 . S
C1127 C1128 1.383 . S
C1127 H1135 0.929 . S
C1128 C1127 1.383 . S
C1128 C1129 1.377 . S
C1129 H1113 0.930 . S
C1129 C1128 1.377 . S
C1129 C1130 1.379 . S
C1130 H1114 0.931 . S
C1130 C1124 1.383 . S
C1130 C1129 1.379 . S
H1131 C1125 0.959 . S
H1132 C1125 0.961 . S
H1133 C1125 0.960 . S
H1134 C1126 0.930 . S
H1135 C1127 0.929 . S
H1136 C1144 0.929 . S
H1137 C1146 0.930 . S
H1138 C1148 0.930 . S
H1139 C1151 0.929 . S
H1140 C1154 0.930 . S
H1141 C1156 0.960 . S
H1142 C1156 0.960 . S
H1143 C1156 0.960 . S
C1144 H1136 0.929 . S
C1144 C1145 1.377 . S
C1144 C1146 1.384 . S
C1145 C1144 1.377 . S
C1145 C1151 1.390 . S
C1146 H1137 0.930 . S
C1146 C1144 1.384 . S
C1146 C1147 1.372 . S
C1147 C1146 1.372 . S
C1147 C1148 1.400 . S
C1147 C1152 1.490 . S
C1148 H1138 0.930 . S
C1148 C1147 1.400 . S
C1148 C1151 1.386 . S
H1149 C1165 0.930 . S
H1150 C1166 0.931 . S
C1151 H1139 0.929 . S
C1151 C1145 1.390 . S
C1151 C1148 1.386 . S
C1152 C1147 1.490 . S
C1152 C1154 1.395 . S
C1152 C1155 1.403 . S
H1153 C1159 0.930 . S
C1154 H1140 0.930 . S
C1154 C1152 1.395 . S
C1154 C1157 1.403 . S
C1155 C1152 1.403 . S
C1155 C1156 1.524 . S
C1155 C1159 1.400 . S
C1156 H1141 0.960 . S
C1156 H1142 0.960 . S
C1156 H1143 0.960 . S
C1156 C1155 1.524 . S
C1157 C1154 1.403 . S
C1157 C1158 1.392 . S
C1157 C1161 1.495 . S
C1158 C1157 1.392 . S
C1158 C1159 1.385 . S
C1158 C1160 1.478 . S
C1159 H1153 0.930 . S
C1159 C1155 1.400 . S
C1159 C1158 1.385 . S
C1160 C1158 1.478 . S
C1160 C1162 1.381 . S
C1160 C1166 1.383 . S
C1161 C1157 1.495 . S
C1161 H1167 0.959 . S
C1161 H1168 0.961 . S
C1161 H1169 0.960 . S
C1162 C1160 1.381 . S
C1162 C1163 1.394 . S
C1162 H1170 0.930 . S
C1163 C1162 1.394 . S
C1163 C1164 1.383 . S
C1163 H1171 0.929 . S
C1164 C1163 1.383 . S
C1164 C1165 1.377 . S
C1165 H1149 0.930 . S
C1165 C1164 1.377 . S
C1165 C1166 1.379 . S
C1166 H1150 0.931 . S
C1166 C1160 1.383 . S
C1166 C1165 1.379 . S
H1167 C1161 0.959 . S
H1168 C1161 0.961 . S
H1169 C1161 0.960 . S
H1170 C1162 0.930 . S
H1171 C1163 0.929 . S
H1172 C1180 0.929 . S
H1173 C1182 0.930 . S
H1174 C1184 0.930 . S
H1175 C1187 0.929 . S
H1176 C1190 0.930 . S
H1177 C1192 0.960 . S
H1178 C1192 0.960 . S
H1179 C1192 0.960 . S
C1180 H1172 0.929 . S
C1180 C1181 1.377 . S
C1180 C1182 1.384 . S
C1181 C1180 1.377 . S
C1181 C1187 1.390 . S
C1182 H1173 0.930 . S
C1182 C1180 1.384 . S
C1182 C1183 1.372 . S
C1183 C1182 1.372 . S
C1183 C1184 1.400 . S
C1183 C1188 1.490 . S
C1184 H1174 0.930 . S
C1184 C1183 1.400 . S
C1184 C1187 1.386 . S
H1185 C1201 0.930 . S
H1186 C1202 0.931 . S
C1187 H1175 0.929 . S
C1187 C1181 1.390 . S
C1187 C1184 1.386 . S
C1188 C1183 1.490 . S
C1188 C1190 1.395 . S
C1188 C1191 1.403 . S
H1189 C1195 0.930 . S
C1190 H1176 0.930 . S
C1190 C1188 1.395 . S
C1190 C1193 1.403 . S
C1191 C1188 1.403 . S
C1191 C1192 1.524 . S
C1191 C1195 1.400 . S
C1192 H1177 0.960 . S
C1192 H1178 0.960 . S
C1192 H1179 0.960 . S
C1192 C1191 1.524 . S
C1193 C1190 1.403 . S
C1193 C1194 1.392 . S
C1193 C1197 1.495 . S
C1194 C1193 1.392 . S
C1194 C1195 1.385 . S
C1194 C1196 1.478 . S
C1195 H1189 0.930 . S
C1195 C1191 1.400 . S
C1195 C1194 1.385 . S
C1196 C1194 1.478 . S
C1196 C1198 1.381 . S
C1196 C1202 1.383 . S
C1197 C1193 1.495 . S
C1197 H1203 0.959 . S
C1197 H1204 0.961 . S
C1197 H1205 0.960 . S
C1198 C1196 1.381 . S
C1198 C1199 1.394 . S
C1198 H1206 0.930 . S
C1199 C1198 1.394 . S
C1199 C1200 1.383 . S
C1199 H1207 0.929 . S
C1200 C1199 1.383 . S
C1200 C1201 1.377 . S
C1201 H1185 0.930 . S
C1201 C1200 1.377 . S
C1201 C1202 1.379 . S
C1202 H1186 0.931 . S
C1202 C1196 1.383 . S
C1202 C1201 1.379 . S
H1203 C1197 0.959 . S
H1204 C1197 0.961 . S
H1205 C1197 0.960 . S
H1206 C1198 0.930 . S
H1207 C1199 0.929 . S
H1208 C1216 0.929 . S
H1209 C1218 0.930 . S
H1210 C1220 0.930 . S
H1211 C1223 0.929 . S
H1212 C1226 0.930 . S
H1213 C1228 0.960 . S
H1214 C1228 0.960 . S
H1215 C1228 0.960 . S
C1216 H1208 0.929 . S
C1216 C1217 1.377 . S
C1216 C1218 1.384 . S
C1217 C1216 1.377 . S
C1217 C1223 1.390 . S
C1218 H1209 0.930 . S
C1218 C1216 1.384 . S
C1218 C1219 1.372 . S
C1219 C1218 1.372 . S
C1219 C1220 1.400 . S
C1219 C1224 1.490 . S
C1220 H1210 0.930 . S
C1220 C1219 1.400 . S
C1220 C1223 1.386 . S
H1221 C1237 0.930 . S
H1222 C1238 0.931 . S
C1223 H1211 0.929 . S
C1223 C1217 1.390 . S
C1223 C1220 1.386 . S
C1224 C1219 1.490 . S
C1224 C1226 1.395 . S
C1224 C1227 1.403 . S
H1225 C1231 0.930 . S
C1226 H1212 0.930 . S
C1226 C1224 1.395 . S
C1226 C1229 1.403 . S
C1227 C1224 1.403 . S
C1227 C1228 1.524 . S
C1227 C1231 1.400 . S
C1228 H1213 0.960 . S
C1228 H1214 0.960 . S
C1228 H1215 0.960 . S
C1228 C1227 1.524 . S
C1229 C1226 1.403 . S
C1229 C1230 1.392 . S
C1229 C1233 1.495 1_565 S
C1230 C1229 1.392 . S
C1230 C1231 1.385 . S
C1230 C1232 1.478 . S
C1231 H1225 0.930 . S
C1231 C1227 1.400 . S
C1231 C1230 1.385 . S
C1232 C1230 1.478 . S
C1232 C1234 1.381 1_565 S
C1232 C1238 1.383 . S
C1233 C1229 1.495 1_545 S
C1233 H1239 0.959 . S
C1233 H1240 0.961 1_545 S
C1233 H1241 0.960 . S
C1234 C1232 1.381 1_545 S
C1234 C1235 1.394 . S
C1234 H1242 0.930 . S
C1235 C1234 1.394 . S
C1235 C1236 1.383 . S
C1235 H1243 0.929 . S
C1236 C1235 1.383 . S
C1236 C1237 1.377 1_545 S
C1237 H1221 0.930 . S
C1237 C1236 1.377 1_565 S
C1237 C1238 1.379 . S
C1238 H1222 0.931 . S
C1238 C1232 1.383 . S
C1238 C1237 1.379 . S
H1239 C1233 0.959 . S
H1240 C1233 0.961 1_565 S
H1241 C1233 0.960 . S
H1242 C1234 0.930 . S
H1243 C1235 0.929 . S
H1244 C1252 0.929 . S
H1245 C1254 0.930 . S
H1246 C1256 0.930 . S
H1247 C1259 0.929 . S
H1248 C1262 0.930 . S
H1249 C1264 0.960 . S
H1250 C1264 0.960 1_554 S
H1251 C1264 0.960 . S
C1252 H1244 0.929 . S
C1252 C1253 1.377 . S
C1252 C1254 1.384 . S
C1253 C1252 1.377 . S
C1253 C1259 1.390 1_554 S
C1254 H1245 0.930 . S
C1254 C1252 1.384 . S
C1254 C1255 1.372 . S
C1255 C1254 1.372 . S
C1255 C1256 1.400 1_554 S
C1255 C1260 1.490 . S
C1256 H1246 0.930 . S
C1256 C1255 1.400 1_556 S
C1256 C1259 1.386 . S
H1257 C1273 0.930 . S
H1258 C1274 0.931 . S
C1259 H1247 0.929 . S
C1259 C1253 1.390 1_556 S
C1259 C1256 1.386 . S
C1260 C1255 1.490 . S
C1260 C1262 1.395 . S
C1260 C1263 1.403 . S
H1261 C1267 0.930 1_556 S
C1262 H1248 0.930 . S
C1262 C1260 1.395 . S
C1262 C1265 1.403 . S
C1263 C1260 1.403 . S
C1263 C1264 1.524 1_554 S
C1263 C1267 1.400 . S
C1264 H1249 0.960 . S
C1264 H1250 0.960 1_556 S
C1264 H1251 0.960 . S
C1264 C1263 1.524 1_556 S
C1265 C1262 1.403 . S
C1265 C1266 1.392 . S
C1265 C1269 1.495 . S
C1266 C1265 1.392 . S
C1266 C1267 1.385 . S
C1266 C1268 1.478 . S
C1267 H1261 0.930 1_554 S
C1267 C1263 1.400 . S
C1267 C1266 1.385 . S
C1268 C1266 1.478 . S
C1268 C1270 1.381 . S
C1268 C1274 1.383 1_554 S
C1269 C1265 1.495 . S
C1269 H1275 0.959 . S
C1269 H1276 0.961 . S
C1269 H1277 0.960 . S
C1270 C1268 1.381 . S
C1270 C1271 1.394 . S
C1270 H1278 0.930 . S
C1271 C1270 1.394 . S
C1271 C1272 1.383 . S
C1271 H1279 0.929 . S
C1272 C1271 1.383 . S
C1272 C1273 1.377 1_554 S
C1273 H1257 0.930 . S
C1273 C1272 1.377 1_556 S
C1273 C1274 1.379 . S
C1274 H1258 0.931 . S
C1274 C1268 1.383 1_556 S
C1274 C1273 1.379 . S
H1275 C1269 0.959 . S
H1276 C1269 0.961 . S
H1277 C1269 0.960 . S
H1278 C1270 0.930 . S
H1279 C1271 0.929 . S
H1280 C1288 0.929 . S
H1281 C1290 0.930 . S
H1282 C1292 0.930 . S
H1283 C1295 0.929 . S
H1284 C1298 0.930 . S
H1285 C1300 0.960 . S
H1286 C1300 0.960 . S
H1287 C1300 0.960 . S
C1288 H1280 0.929 . S
C1288 C1289 1.377 . S
C1288 C1290 1.384 . S
C1289 C1288 1.377 . S
C1289 C1295 1.390 . S
C1290 H1281 0.930 . S
C1290 C1288 1.384 . S
C1290 C1291 1.372 . S
C1291 C1290 1.372 . S
C1291 C1292 1.400 . S
C1291 C1296 1.490 . S
C1292 H1282 0.930 . S
C1292 C1291 1.400 . S
C1292 C1295 1.386 . S
H1293 C1309 0.930 . S
H1294 C1310 0.931 . S
C1295 H1283 0.929 . S
C1295 C1289 1.390 . S
C1295 C1292 1.386 . S
C1296 C1291 1.490 . S
C1296 C1298 1.395 . S
C1296 C1299 1.403 . S
H1297 C1303 0.930 . S
C1298 H1284 0.930 . S
C1298 C1296 1.395 . S
C1298 C1301 1.403 . S
C1299 C1296 1.403 . S
C1299 C1300 1.524 . S
C1299 C1303 1.400 . S
C1300 H1285 0.960 . S
C1300 H1286 0.960 . S
C1300 H1287 0.960 . S
C1300 C1299 1.524 . S
C1301 C1298 1.403 . S
C1301 C1302 1.392 . S
C1301 C1305 1.495 . S
C1302 C1301 1.392 . S
C1302 C1303 1.385 . S
C1302 C1304 1.478 . S
C1303 H1297 0.930 . S
C1303 C1299 1.400 . S
C1303 C1302 1.385 . S
C1304 C1302 1.478 . S
C1304 C1306 1.381 . S
C1304 C1310 1.383 . S
C1305 C1301 1.495 . S
C1305 H1311 0.959 . S
C1305 H1312 0.961 . S
C1305 H1313 0.960 . S
C1306 C1304 1.381 . S
C1306 C1307 1.394 . S
C1306 H1314 0.930 . S
C1307 C1306 1.394 . S
C1307 C1308 1.383 . S
C1307 H1315 0.929 . S
C1308 C1307 1.383 . S
C1308 C1309 1.377 . S
C1309 H1293 0.930 . S
C1309 C1308 1.377 . S
C1309 C1310 1.379 . S
C1310 H1294 0.931 . S
C1310 C1304 1.383 . S
C1310 C1309 1.379 . S
H1311 C1305 0.959 . S
H1312 C1305 0.961 . S
H1313 C1305 0.960 . S
H1314 C1306 0.930 . S
H1315 C1307 0.929 . S
H1316 C1324 0.929 . S
H1317 C1326 0.930 . S
H1318 C1328 0.930 . S
H1319 C1331 0.929 . S
H1320 C1334 0.930 . S
H1321 C1336 0.960 . S
H1322 C1336 0.960 . S
H1323 C1336 0.960 . S
C1324 H1316 0.929 . S
C1324 C1325 1.377 . S
C1324 C1326 1.384 . S
C1325 C1324 1.377 . S
C1325 C1331 1.390 . S
C1326 H1317 0.930 . S
C1326 C1324 1.384 . S
C1326 C1327 1.372 . S
C1327 C1326 1.372 . S
C1327 C1328 1.400 . S
C1327 C1332 1.490 . S
C1328 H1318 0.930 . S
C1328 C1327 1.400 . S
C1328 C1331 1.386 . S
H1329 C1345 0.930 . S
H1330 C1346 0.931 . S
C1331 H1319 0.929 . S
C1331 C1325 1.390 . S
C1331 C1328 1.386 . S
C1332 C1327 1.490 . S
C1332 C1334 1.395 . S
C1332 C1335 1.403 . S
H1333 C1339 0.930 . S
C1334 H1320 0.930 . S
C1334 C1332 1.395 . S
C1334 C1337 1.403 . S
C1335 C1332 1.403 . S
C1335 C1336 1.524 . S
C1335 C1339 1.400 . S
C1336 H1321 0.960 . S
C1336 H1322 0.960 . S
C1336 H1323 0.960 . S
C1336 C1335 1.524 . S
C1337 C1334 1.403 . S
C1337 C1338 1.392 . S
C1337 C1341 1.495 . S
C1338 C1337 1.392 . S
C1338 C1339 1.385 . S
C1338 C1340 1.478 . S
C1339 H1333 0.930 . S
C1339 C1335 1.400 . S
C1339 C1338 1.385 . S
C1340 C1338 1.478 . S
C1340 C1342 1.381 . S
C1340 C1346 1.383 . S
C1341 C1337 1.495 . S
C1341 H1347 0.959 . S
C1341 H1348 0.961 . S
C1341 H1349 0.960 . S
C1342 C1340 1.381 . S
C1342 C1343 1.394 . S
C1342 H1350 0.930 . S
C1343 C1342 1.394 . S
C1343 C1344 1.383 . S
C1343 H1351 0.929 . S
C1344 C1343 1.383 . S
C1344 C1345 1.377 . S
C1345 H1329 0.930 . S
C1345 C1344 1.377 . S
C1345 C1346 1.379 . S
C1346 H1330 0.931 . S
C1346 C1340 1.383 . S
C1346 C1345 1.379 . S
H1347 C1341 0.959 . S
H1348 C1341 0.961 . S
H1349 C1341 0.960 . S
H1350 C1342 0.930 . S
H1351 C1343 0.929 . S
H1352 C1360 0.929 . S
H1353 C1362 0.930 . S
H1354 C1364 0.930 . S
H1355 C1367 0.929 . S
H1356 C1370 0.930 . S
H1357 C1372 0.960 . S
H1358 C1372 0.960 . S
H1359 C1372 0.960 . S
C1360 H1352 0.929 . S
C1360 C1361 1.377 . S
C1360 C1362 1.384 . S
C1361 C1360 1.377 . S
C1361 C1367 1.390 . S
C1362 H1353 0.930 . S
C1362 C1360 1.384 . S
C1362 C1363 1.372 . S
C1363 C1362 1.372 . S
C1363 C1364 1.400 . S
C1363 C1368 1.490 . S
C1364 H1354 0.930 . S
C1364 C1363 1.400 . S
C1364 C1367 1.386 . S
H1365 C1381 0.930 . S
H1366 C1382 0.931 . S
C1367 H1355 0.929 . S
C1367 C1361 1.390 . S
C1367 C1364 1.386 . S
C1368 C1363 1.490 . S
C1368 C1370 1.395 . S
C1368 C1371 1.403 . S
H1369 C1375 0.930 . S
C1370 H1356 0.930 . S
C1370 C1368 1.395 . S
C1370 C1373 1.403 . S
C1371 C1368 1.403 . S
C1371 C1372 1.524 . S
C1371 C1375 1.400 . S
C1372 H1357 0.960 . S
C1372 H1358 0.960 . S
C1372 H1359 0.960 . S
C1372 C1371 1.524 . S
C1373 C1370 1.403 . S
C1373 C1374 1.392 . S
C1373 C1377 1.495 . S
C1374 C1373 1.392 . S
C1374 C1375 1.385 . S
C1374 C1376 1.478 . S
C1375 H1369 0.930 . S
C1375 C1371 1.400 . S
C1375 C1374 1.385 . S
C1376 C1374 1.478 . S
C1376 C1378 1.381 . S
C1376 C1382 1.383 . S
C1377 C1373 1.495 . S
C1377 H1383 0.959 . S
C1377 H1384 0.961 . S
C1377 H1385 0.960 . S
C1378 C1376 1.381 . S
C1378 C1379 1.394 . S
C1378 H1386 0.930 . S
C1379 C1378 1.394 . S
C1379 C1380 1.383 . S
C1379 H1387 0.929 . S
C1380 C1379 1.383 . S
C1380 C1381 1.377 . S
C1381 H1365 0.930 . S
C1381 C1380 1.377 . S
C1381 C1382 1.379 . S
C1382 H1366 0.931 . S
C1382 C1376 1.383 . S
C1382 C1381 1.379 . S
H1383 C1377 0.959 . S
H1384 C1377 0.961 . S
H1385 C1377 0.960 . S
H1386 C1378 0.930 . S
H1387 C1379 0.929 . S
H1388 C1396 0.929 . S
H1389 C1398 0.930 . S
H1390 C1400 0.930 . S
H1391 C1403 0.929 . S
H1392 C1406 0.930 . S
H1393 C1408 0.960 . S
H1394 C1408 0.960 . S
H1395 C1408 0.960 . S
C1396 H1388 0.929 . S
C1396 C1397 1.377 . S
C1396 C1398 1.384 . S
C1397 C1396 1.377 . S
C1397 C1403 1.390 . S
C1398 H1389 0.930 . S
C1398 C1396 1.384 . S
C1398 C1399 1.372 . S
C1399 C1398 1.372 . S
C1399 C1400 1.400 . S
C1399 C1404 1.490 . S
C1400 H1390 0.930 . S
C1400 C1399 1.400 . S
C1400 C1403 1.386 . S
H1401 C1417 0.930 . S
H1402 C1418 0.931 . S
C1403 H1391 0.929 . S
C1403 C1397 1.390 . S
C1403 C1400 1.386 . S
C1404 C1399 1.490 . S
C1404 C1406 1.395 . S
C1404 C1407 1.403 . S
H1405 C1411 0.930 . S
C1406 H1392 0.930 . S
C1406 C1404 1.395 . S
C1406 C1409 1.403 . S
C1407 C1404 1.403 . S
C1407 C1408 1.524 . S
C1407 C1411 1.400 . S
C1408 H1393 0.960 . S
C1408 H1394 0.960 . S
C1408 H1395 0.960 . S
C1408 C1407 1.524 . S
C1409 C1406 1.403 . S
C1409 C1410 1.392 . S
C1409 C1413 1.495 . S
C1410 C1409 1.392 . S
C1410 C1411 1.385 . S
C1410 C1412 1.478 . S
C1411 H1405 0.930 . S
C1411 C1407 1.400 . S
C1411 C1410 1.385 . S
C1412 C1410 1.478 . S
C1412 C1414 1.381 . S
C1412 C1418 1.383 . S
C1413 C1409 1.495 . S
C1413 H1419 0.959 . S
C1413 H1420 0.961 . S
C1413 H1421 0.960 . S
C1414 C1412 1.381 . S
C1414 C1415 1.394 . S
C1414 H1422 0.930 . S
C1415 C1414 1.394 . S
C1415 C1416 1.383 . S
C1415 H1423 0.929 . S
C1416 C1415 1.383 . S
C1416 C1417 1.377 . S
C1417 H1401 0.930 . S
C1417 C1416 1.377 . S
C1417 C1418 1.379 . S
C1418 H1402 0.931 . S
C1418 C1412 1.383 . S
C1418 C1417 1.379 . S
H1419 C1413 0.959 . S
H1420 C1413 0.961 . S
H1421 C1413 0.960 . S
H1422 C1414 0.930 . S
H1423 C1415 0.929 . S
H1424 C1432 0.929 . S
H1425 C1434 0.930 . S
H1426 C1436 0.930 . S
H1427 C1439 0.929 . S
H1428 C1442 0.930 . S
H1429 C1444 0.960 . S
H1430 C1444 0.960 . S
H1431 C1444 0.960 . S
C1432 H1424 0.929 . S
C1432 C1433 1.377 . S
C1432 C1434 1.384 . S
C1433 C1432 1.377 . S
C1433 C1439 1.390 . S
C1434 H1425 0.930 . S
C1434 C1432 1.384 . S
C1434 C1435 1.372 . S
C1435 C1434 1.372 . S
C1435 C1436 1.400 . S
C1435 C1440 1.490 . S
C1436 H1426 0.930 . S
C1436 C1435 1.400 . S
C1436 C1439 1.386 . S
H1437 C1453 0.930 . S
H1438 C1454 0.931 . S
C1439 H1427 0.929 . S
C1439 C1433 1.390 . S
C1439 C1436 1.386 . S
C1440 C1435 1.490 . S
C1440 C1442 1.395 . S
C1440 C1443 1.403 . S
H1441 C1447 0.930 . S
C1442 H1428 0.930 . S
C1442 C1440 1.395 . S
C1442 C1445 1.403 . S
C1443 C1440 1.403 . S
C1443 C1444 1.524 . S
C1443 C1447 1.400 . S
C1444 H1429 0.960 . S
C1444 H1430 0.960 . S
C1444 H1431 0.960 . S
C1444 C1443 1.524 . S
C1445 C1442 1.403 . S
C1445 C1446 1.392 . S
C1445 C1449 1.495 . S
C1446 C1445 1.392 . S
C1446 C1447 1.385 . S
C1446 C1448 1.478 . S
C1447 H1441 0.930 . S
C1447 C1443 1.400 . S
C1447 C1446 1.385 . S
C1448 C1446 1.478 . S
C1448 C1450 1.381 . S
C1448 C1454 1.383 . S
C1449 C1445 1.495 . S
C1449 H1455 0.959 . S
C1449 H1456 0.961 . S
C1449 H1457 0.960 . S
C1450 C1448 1.381 . S
C1450 C1451 1.394 . S
C1450 H1458 0.930 . S
C1451 C1450 1.394 . S
C1451 C1452 1.383 . S
C1451 H1459 0.929 . S
C1452 C1451 1.383 . S
C1452 C1453 1.377 . S
C1453 H1437 0.930 . S
C1453 C1452 1.377 . S
C1453 C1454 1.379 . S
C1454 H1438 0.931 . S
C1454 C1448 1.383 . S
C1454 C1453 1.379 . S
H1455 C1449 0.959 . S
H1456 C1449 0.961 . S
H1457 C1449 0.960 . S
H1458 C1450 0.930 . S
H1459 C1451 0.929 . S
H1460 C1468 0.929 . S
H1461 C1470 0.930 . S
H1462 C1472 0.930 . S
H1463 C1475 0.929 . S
H1464 C1478 0.930 . S
H1465 C1480 0.960 . S
H1466 C1480 0.960 . S
H1467 C1480 0.960 . S
C1468 H1460 0.929 . S
C1468 C1469 1.377 . S
C1468 C1470 1.384 . S
C1469 C1468 1.377 . S
C1469 C1475 1.390 . S
C1470 H1461 0.930 . S
C1470 C1468 1.384 . S
C1470 C1471 1.372 . S
C1471 C1470 1.372 . S
C1471 C1472 1.400 . S
C1471 C1476 1.490 . S
C1472 H1462 0.930 . S
C1472 C1471 1.400 . S
C1472 C1475 1.386 . S
H1473 C1489 0.930 . S
H1474 C1490 0.931 . S
C1475 H1463 0.929 . S
C1475 C1469 1.390 . S
C1475 C1472 1.386 . S
C1476 C1471 1.490 . S
C1476 C1478 1.395 . S
C1476 C1479 1.403 . S
H1477 C1483 0.930 . S
C1478 H1464 0.930 . S
C1478 C1476 1.395 . S
C1478 C1481 1.403 . S
C1479 C1476 1.403 . S
C1479 C1480 1.524 . S
C1479 C1483 1.400 . S
C1480 H1465 0.960 . S
C1480 H1466 0.960 . S
C1480 H1467 0.960 . S
C1480 C1479 1.524 . S
C1481 C1478 1.403 . S
C1481 C1482 1.392 . S
C1481 C1485 1.495 . S
C1482 C1481 1.392 . S
C1482 C1483 1.385 . S
C1482 C1484 1.478 . S
C1483 H1477 0.930 . S
C1483 C1479 1.400 . S
C1483 C1482 1.385 . S
C1484 C1482 1.478 . S
C1484 C1486 1.381 . S
C1484 C1490 1.383 . S
C1485 C1481 1.495 . S
C1485 H1491 0.959 . S
C1485 H1492 0.961 . S
C1485 H1493 0.960 . S
C1486 C1484 1.381 . S
C1486 C1487 1.394 . S
C1486 H1494 0.930 . S
C1487 C1486 1.394 . S
C1487 C1488 1.383 . S
C1487 H1495 0.929 . S
C1488 C1487 1.383 . S
C1488 C1489 1.377 . S
C1489 H1473 0.930 . S
C1489 C1488 1.377 . S
C1489 C1490 1.379 . S
C1490 H1474 0.931 . S
C1490 C1484 1.383 . S
C1490 C1489 1.379 . S
H1491 C1485 0.959 . S
H1492 C1485 0.961 . S
H1493 C1485 0.960 . S
H1494 C1486 0.930 . S
H1495 C1487 0.929 . S
H1496 C1504 0.929 . S
H1497 C1506 0.930 . S
H1498 C1508 0.930 . S
H1499 C1511 0.929 . S
H1500 C1514 0.930 . S
H1501 C1516 0.960 . S
H1502 C1516 0.960 . S
H1503 C1516 0.960 . S
C1504 H1496 0.929 . S
C1504 C1505 1.377 . S
C1504 C1506 1.384 . S
C1505 C1504 1.377 . S
C1505 C1511 1.390 . S
C1506 H1497 0.930 . S
C1506 C1504 1.384 . S
C1506 C1507 1.372 . S
C1507 C1506 1.372 . S
C1507 C1508 1.400 . S
C1507 C1512 1.490 . S
C1508 H1498 0.930 . S
C1508 C1507 1.400 . S
C1508 C1511 1.386 . S
H1509 C1525 0.930 . S
H1510 C1526 0.931 . S
C1511 H1499 0.929 . S
C1511 C1505 1.390 . S
C1511 C1508 1.386 . S
C1512 C1507 1.490 . S
C1512 C1514 1.395 . S
C1512 C1515 1.403 . S
H1513 C1519 0.930 . S
C1514 H1500 0.930 . S
C1514 C1512 1.395 . S
C1514 C1517 1.403 . S
C1515 C1512 1.403 . S
C1515 C1516 1.524 . S
C1515 C1519 1.400 . S
C1516 H1501 0.960 . S
C1516 H1502 0.960 . S
C1516 H1503 0.960 . S
C1516 C1515 1.524 . S
C1517 C1514 1.403 . S
C1517 C1518 1.392 . S
C1517 C1521 1.495 . S
C1518 C1517 1.392 . S
C1518 C1519 1.385 . S
C1518 C1520 1.478 . S
C1519 H1513 0.930 . S
C1519 C1515 1.400 . S
C1519 C1518 1.385 . S
C1520 C1518 1.478 . S
C1520 C1522 1.381 . S
C1520 C1526 1.383 . S
C1521 C1517 1.495 . S
C1521 H1527 0.959 . S
C1521 H1528 0.961 . S
C1521 H1529 0.960 . S
C1522 C1520 1.381 . S
C1522 C1523 1.394 . S
C1522 H1530 0.930 . S
C1523 C1522 1.394 . S
C1523 C1524 1.383 . S
C1523 H1531 0.929 . S
C1524 C1523 1.383 . S
C1524 C1525 1.377 . S
C1525 H1509 0.930 . S
C1525 C1524 1.377 . S
C1525 C1526 1.379 . S
C1526 H1510 0.931 . S
C1526 C1520 1.383 . S
C1526 C1525 1.379 . S
H1527 C1521 0.959 . S
H1528 C1521 0.961 . S
H1529 C1521 0.960 . S
H1530 C1522 0.930 . S
H1531 C1523 0.929 . S
H1532 C1540 0.929 . S
H1533 C1542 0.930 . S
H1534 C1544 0.930 . S
H1535 C1547 0.929 . S
H1536 C1550 0.930 . S
H1537 C1552 0.960 . S
H1538 C1552 0.960 . S
H1539 C1552 0.960 . S
C1540 H1532 0.929 . S
C1540 C1541 1.377 . S
C1540 C1542 1.384 . S
C1541 C1540 1.377 . S
C1541 C1547 1.390 . S
C1542 H1533 0.930 . S
C1542 C1540 1.384 . S
C1542 C1543 1.372 . S
C1543 C1542 1.372 . S
C1543 C1544 1.400 . S
C1543 C1548 1.490 . S
C1544 H1534 0.930 . S
C1544 C1543 1.400 . S
C1544 C1547 1.386 . S
H1545 C1561 0.930 . S
H1546 C1562 0.931 . S
C1547 H1535 0.929 . S
C1547 C1541 1.390 . S
C1547 C1544 1.386 . S
C1548 C1543 1.490 . S
C1548 C1550 1.395 . S
C1548 C1551 1.403 . S
H1549 C1555 0.930 . S
C1550 H1536 0.930 . S
C1550 C1548 1.395 . S
C1550 C1553 1.403 . S
C1551 C1548 1.403 . S
C1551 C1552 1.524 . S
C1551 C1555 1.400 . S
C1552 H1537 0.960 . S
C1552 H1538 0.960 . S
C1552 H1539 0.960 . S
C1552 C1551 1.524 . S
C1553 C1550 1.403 . S
C1553 C1554 1.392 . S
C1553 C1557 1.495 . S
C1554 C1553 1.392 . S
C1554 C1555 1.385 . S
C1554 C1556 1.478 . S
C1555 H1549 0.930 . S
C1555 C1551 1.400 . S
C1555 C1554 1.385 . S
C1556 C1554 1.478 . S
C1556 C1558 1.381 . S
C1556 C1562 1.383 . S
C1557 C1553 1.495 . S
C1557 H1563 0.959 . S
C1557 H1564 0.961 . S
C1557 H1565 0.960 . S
C1558 C1556 1.381 . S
C1558 C1559 1.394 . S
C1558 H1566 0.930 . S
C1559 C1558 1.394 . S
C1559 C1560 1.383 . S
C1559 H1567 0.929 . S
C1560 C1559 1.383 . S
C1560 C1561 1.377 . S
C1561 H1545 0.930 . S
C1561 C1560 1.377 . S
C1561 C1562 1.379 . S
C1562 H1546 0.931 . S
C1562 C1556 1.383 . S
C1562 C1561 1.379 . S
H1563 C1557 0.959 . S
H1564 C1557 0.961 . S
H1565 C1557 0.960 . S
H1566 C1558 0.930 . S
H1567 C1559 0.929 . S
H1568 C1576 0.929 . S
H1569 C1578 0.930 . S
H1570 C1580 0.930 . S
H1571 C1583 0.929 . S
H1572 C1586 0.930 . S
H1573 C1588 0.960 . S
H1574 C1588 0.960 . S
H1575 C1588 0.960 . S
C1576 H1568 0.929 . S
C1576 C1577 1.377 . S
C1576 C1578 1.384 . S
C1577 C1576 1.377 . S
C1577 C1583 1.390 . S
C1578 H1569 0.930 . S
C1578 C1576 1.384 . S
C1578 C1579 1.372 . S
C1579 C1578 1.372 . S
C1579 C1580 1.400 . S
C1579 C1584 1.490 . S
C1580 H1570 0.930 . S
C1580 C1579 1.400 . S
C1580 C1583 1.386 . S
H1581 C1597 0.930 . S
H1582 C1598 0.931 . S
C1583 H1571 0.929 . S
C1583 C1577 1.390 . S
C1583 C1580 1.386 . S
C1584 C1579 1.490 . S
C1584 C1586 1.395 . S
C1584 C1587 1.403 . S
H1585 C1591 0.930 . S
C1586 H1572 0.930 . S
C1586 C1584 1.395 . S
C1586 C1589 1.403 . S
C1587 C1584 1.403 . S
C1587 C1588 1.524 . S
C1587 C1591 1.400 . S
C1588 H1573 0.960 . S
C1588 H1574 0.960 . S
C1588 H1575 0.960 . S
C1588 C1587 1.524 . S
C1589 C1586 1.403 . S
C1589 C1590 1.392 . S
C1589 C1593 1.495 . S
C1590 C1589 1.392 . S
C1590 C1591 1.385 . S
C1590 C1592 1.478 . S
C1591 H1585 0.930 . S
C1591 C1587 1.400 . S
C1591 C1590 1.385 . S
C1592 C1590 1.478 . S
C1592 C1594 1.381 . S
C1592 C1598 1.383 . S
C1593 C1589 1.495 . S
C1593 H1599 0.959 . S
C1593 H1600 0.961 . S
C1593 H1601 0.960 . S
C1594 C1592 1.381 . S
C1594 C1595 1.394 . S
C1594 H1602 0.930 . S
C1595 C1594 1.394 . S
C1595 C1596 1.383 . S
C1595 H1603 0.929 . S
C1596 C1595 1.383 . S
C1596 C1597 1.377 . S
C1597 H1581 0.930 . S
C1597 C1596 1.377 . S
C1597 C1598 1.379 . S
C1598 H1582 0.931 . S
C1598 C1592 1.383 . S
C1598 C1597 1.379 . S
H1599 C1593 0.959 . S
H1600 C1593 0.961 . S
H1601 C1593 0.960 . S
H1602 C1594 0.930 . S
H1603 C1595 0.929 . S
H1604 C1612 0.929 . S
H1605 C1614 0.930 . S
H1606 C1616 0.930 . S
H1607 C1619 0.929 . S
H1608 C1622 0.930 . S
H1609 C1624 0.960 . S
H1610 C1624 0.960 . S
H1611 C1624 0.960 . S
C1612 H1604 0.929 . S
C1612 C1613 1.377 . S
C1612 C1614 1.384 . S
C1613 C1612 1.377 . S
C1613 C1619 1.390 . S
C1614 H1605 0.930 . S
C1614 C1612 1.384 . S
C1614 C1615 1.372 . S
C1615 C1614 1.372 . S
C1615 C1616 1.400 . S
C1615 C1620 1.490 . S
C1616 H1606 0.930 . S
C1616 C1615 1.400 . S
C1616 C1619 1.386 . S
H1617 C1633 0.930 . S
H1618 C1634 0.931 . S
C1619 H1607 0.929 . S
C1619 C1613 1.390 . S
C1619 C1616 1.386 . S
C1620 C1615 1.490 . S
C1620 C1622 1.395 . S
C1620 C1623 1.403 . S
H1621 C1627 0.930 . S
C1622 H1608 0.930 . S
C1622 C1620 1.395 . S
C1622 C1625 1.403 . S
C1623 C1620 1.403 . S
C1623 C1624 1.524 . S
C1623 C1627 1.400 . S
C1624 H1609 0.960 . S
C1624 H1610 0.960 . S
C1624 H1611 0.960 . S
C1624 C1623 1.524 . S
C1625 C1622 1.403 . S
C1625 C1626 1.392 . S
C1625 C1629 1.495 . S
C1626 C1625 1.392 . S
C1626 C1627 1.385 . S
C1626 C1628 1.478 . S
C1627 H1621 0.930 . S
C1627 C1623 1.400 . S
C1627 C1626 1.385 . S
C1628 C1626 1.478 . S
C1628 C1630 1.381 . S
C1628 C1634 1.383 . S
C1629 C1625 1.495 . S
C1629 H1635 0.959 . S
C1629 H1636 0.961 . S
C1629 H1637 0.960 . S
C1630 C1628 1.381 . S
C1630 C1631 1.394 . S
C1630 H1638 0.930 . S
C1631 C1630 1.394 . S
C1631 C1632 1.383 . S
C1631 H1639 0.929 . S
C1632 C1631 1.383 . S
C1632 C1633 1.377 . S
C1633 H1617 0.930 . S
C1633 C1632 1.377 . S
C1633 C1634 1.379 . S
C1634 H1618 0.931 . S
C1634 C1628 1.383 . S
C1634 C1633 1.379 . S
H1635 C1629 0.959 . S
H1636 C1629 0.961 . S
H1637 C1629 0.960 . S
H1638 C1630 0.930 . S
H1639 C1631 0.929 . S
H1640 C1648 0.929 . S
H1641 C1650 0.930 . S
H1642 C1652 0.930 . S
H1643 C1655 0.929 . S
H1644 C1658 0.930 . S
H1645 C1660 0.960 . S
H1646 C1660 0.960 1_655 S
H1647 C1660 0.960 . S
C1648 H1640 0.929 . S
C1648 C1649 1.377 . S
C1648 C1650 1.384 . S
C1649 C1648 1.377 . S
C1649 C1655 1.390 . S
C1650 H1641 0.930 . S
C1650 C1648 1.384 . S
C1650 C1651 1.372 . S
C1651 C1650 1.372 . S
C1651 C1652 1.400 . S
C1651 C1656 1.490 . S
C1652 H1642 0.930 . S
C1652 C1651 1.400 . S
C1652 C1655 1.386 . S
H1653 C1669 0.930 . S
H1654 C1670 0.931 . S
C1655 H1643 0.929 . S
C1655 C1649 1.390 . S
C1655 C1652 1.386 . S
C1656 C1651 1.490 . S
C1656 C1658 1.395 . S
C1656 C1659 1.403 . S
H1657 C1663 0.930 . S
C1658 H1644 0.930 . S
C1658 C1656 1.395 . S
C1658 C1661 1.403 . S
C1659 C1656 1.403 . S
C1659 C1660 1.524 . S
C1659 C1663 1.400 . S
C1660 H1645 0.960 . S
C1660 H1646 0.960 1_455 S
C1660 H1647 0.960 . S
C1660 C1659 1.524 . S
C1661 C1658 1.403 . S
C1661 C1662 1.392 . S
C1661 C1665 1.495 . S
C1662 C1661 1.392 . S
C1662 C1663 1.385 . S
C1662 C1664 1.478 . S
C1663 H1657 0.930 . S
C1663 C1659 1.400 . S
C1663 C1662 1.385 . S
C1664 C1662 1.478 . S
C1664 C1666 1.381 . S
C1664 C1670 1.383 . S
C1665 C1661 1.495 . S
C1665 H1671 0.959 . S
C1665 H1672 0.961 . S
C1665 H1673 0.960 . S
C1666 C1664 1.381 . S
C1666 C1667 1.394 . S
C1666 H1674 0.930 1_455 S
C1667 C1666 1.394 . S
C1667 C1668 1.383 . S
C1667 H1675 0.929 1_455 S
C1668 C1667 1.383 . S
C1668 C1669 1.377 . S
C1669 H1653 0.930 . S
C1669 C1668 1.377 . S
C1669 C1670 1.379 . S
C1670 H1654 0.931 . S
C1670 C1664 1.383 . S
C1670 C1669 1.379 . S
H1671 C1665 0.959 . S
H1672 C1665 0.961 . S
H1673 C1665 0.960 . S
H1674 C1666 0.930 1_655 S
H1675 C1667 0.929 1_655 S
H1676 C1684 0.929 . S
H1677 C1686 0.930 . S
H1678 C1688 0.930 . S
H1679 C1691 0.929 . S
H1680 C1694 0.930 . S
H1681 C1696 0.960 . S
H1682 C1696 0.960 . S
H1683 C1696 0.960 . S
C1684 H1676 0.929 . S
C1684 C1685 1.377 . S
C1684 C1686 1.384 . S
C1685 C1684 1.377 . S
C1685 C1691 1.390 . S
C1686 H1677 0.930 . S
C1686 C1684 1.384 . S
C1686 C1687 1.372 . S
C1687 C1686 1.372 . S
C1687 C1688 1.400 . S
C1687 C1692 1.490 . S
C1688 H1678 0.930 . S
C1688 C1687 1.400 . S
C1688 C1691 1.386 . S
H1689 C1705 0.930 . S
H1690 C1706 0.931 . S
C1691 H1679 0.929 . S
C1691 C1685 1.390 . S
C1691 C1688 1.386 . S
C1692 C1687 1.490 . S
C1692 C1694 1.395 . S
C1692 C1695 1.403 . S
H1693 C1699 0.930 . S
C1694 H1680 0.930 . S
C1694 C1692 1.395 . S
C1694 C1697 1.403 . S
C1695 C1692 1.403 . S
C1695 C1696 1.524 . S
C1695 C1699 1.400 . S
C1696 H1681 0.960 . S
C1696 H1682 0.960 . S
C1696 H1683 0.960 . S
C1696 C1695 1.524 . S
C1697 C1694 1.403 . S
C1697 C1698 1.392 . S
C1697 C1701 1.495 . S
C1698 C1697 1.392 . S
C1698 C1699 1.385 . S
C1698 C1700 1.478 . S
C1699 H1693 0.930 . S
C1699 C1695 1.400 . S
C1699 C1698 1.385 . S
C1700 C1698 1.478 . S
C1700 C1702 1.381 . S
C1700 C1706 1.383 . S
C1701 C1697 1.495 . S
C1701 H1707 0.959 . S
C1701 H1708 0.961 . S
C1701 H1709 0.960 . S
C1702 C1700 1.381 . S
C1702 C1703 1.394 . S
C1702 H1710 0.930 . S
C1703 C1702 1.394 . S
C1703 C1704 1.383 . S
C1703 H1711 0.929 . S
C1704 C1703 1.383 . S
C1704 C1705 1.377 . S
C1705 H1689 0.930 . S
C1705 C1704 1.377 . S
C1705 C1706 1.379 . S
C1706 H1690 0.931 . S
C1706 C1700 1.383 . S
C1706 C1705 1.379 . S
H1707 C1701 0.959 . S
H1708 C1701 0.961 . S
H1709 C1701 0.960 . S
H1710 C1702 0.930 . S
H1711 C1703 0.929 . S
H1712 C1720 0.929 . S
H1713 C1722 0.930 . S
H1714 C1724 0.930 . S
H1715 C1727 0.929 . S
H1716 C1730 0.930 . S
H1717 C1732 0.960 . S
H1718 C1732 0.960 . S
H1719 C1732 0.960 . S
C1720 H1712 0.929 . S
C1720 C1721 1.377 . S
C1720 C1722 1.384 . S
C1721 C1720 1.377 . S
C1721 C1727 1.390 . S
C1722 H1713 0.930 . S
C1722 C1720 1.384 . S
C1722 C1723 1.372 . S
C1723 C1722 1.372 . S
C1723 C1724 1.400 . S
C1723 C1728 1.490 . S
C1724 H1714 0.930 . S
C1724 C1723 1.400 . S
C1724 C1727 1.386 . S
H1725 C1741 0.963 . S
H1726 C1742 0.931 . S
C1727 H1715 0.929 . S
C1727 C1721 1.390 . S
C1727 C1724 1.386 . S
C1728 C1723 1.490 . S
C1728 C1730 1.395 . S
C1728 C1731 1.403 . S
H1729 C1735 0.930 . S
C1730 H1716 0.930 . S
C1730 C1728 1.395 . S
C1730 C1733 1.403 . S
C1731 C1728 1.403 . S
C1731 C1732 1.524 . S
C1731 C1735 1.400 . S
C1732 H1717 0.960 . S
C1732 H1718 0.960 . S
C1732 H1719 0.960 . S
C1732 C1731 1.524 . S
C1733 C1730 1.403 . S
C1733 C1734 1.392 . S
C1733 C1737 1.495 . S
C1734 C1733 1.392 . S
C1734 C1735 1.385 . S
C1734 C1736 1.478 . S
C1735 H1729 0.930 . S
C1735 C1731 1.400 . S
C1735 C1734 1.385 . S
C1736 C1734 1.478 . S
C1736 C1738 1.381 . S
C1736 C1742 1.383 . S
C1737 C1733 1.495 . S
C1737 H1743 0.959 . S
C1737 H1744 0.961 . S
C1737 H1745 0.960 . S
C1738 C1736 1.381 . S
C1738 C1739 1.394 . S
C1738 H1746 0.930 . S
C1739 C1738 1.394 . S
C1739 C1740 1.383 . S
C1739 H1747 0.929 . S
C1740 C1739 1.383 . S
C1740 C1741 1.377 . S
C1741 H1725 0.963 . S
C1741 C1740 1.377 . S
C1741 C1742 1.379 . S
C1742 H1726 0.931 . S
C1742 C1736 1.383 . S
C1742 C1741 1.379 . S
H1743 C1737 0.959 . S
H1744 C1737 0.961 . S
H1745 C1737 0.960 . S
H1746 C1738 0.930 . S
H1747 C1739 0.929 . S
H1748 C1756 0.929 . S
H1749 C1758 0.930 . S
H1750 C1760 0.930 . S
H1751 C1763 0.929 . S
H1752 C1766 0.930 . S
H1753 C1768 0.960 . S
H1754 C1768 0.960 . S
H1755 C1768 0.960 . S
C1756 H1748 0.929 . S
C1756 C1757 1.377 . S
C1756 C1758 1.384 . S
C1757 C1756 1.377 . S
C1757 C1763 1.390 . S
C1758 H1749 0.930 . S
C1758 C1756 1.384 . S
C1758 C1759 1.372 . S
C1759 C1758 1.372 . S
C1759 C1760 1.400 . S
C1759 C1764 1.490 . S
C1760 H1750 0.930 . S
C1760 C1759 1.400 . S
C1760 C1763 1.386 . S
H1761 C1777 0.930 . S
H1762 C1778 0.931 . S
C1763 H1751 0.929 . S
C1763 C1757 1.390 . S
C1763 C1760 1.386 . S
C1764 C1759 1.490 . S
C1764 C1766 1.395 . S
C1764 C1767 1.403 . S
H1765 C1771 0.930 . S
C1766 H1752 0.930 . S
C1766 C1764 1.395 . S
C1766 C1769 1.403 . S
C1767 C1764 1.403 . S
C1767 C1768 1.524 . S
C1767 C1771 1.400 . S
C1768 H1753 0.960 . S
C1768 H1754 0.960 . S
C1768 H1755 0.960 . S
C1768 C1767 1.524 . S
C1769 C1766 1.403 . S
C1769 C1770 1.392 . S
C1769 C1773 1.495 . S
C1770 C1769 1.392 . S
C1770 C1771 1.385 . S
C1770 C1772 1.478 . S
C1771 H1765 0.930 . S
C1771 C1767 1.400 . S
C1771 C1770 1.385 . S
C1772 C1770 1.478 . S
C1772 C1774 1.381 . S
C1772 C1778 1.383 . S
C1773 C1769 1.495 . S
C1773 H1779 0.959 . S
C1773 H1780 0.961 . S
C1773 H1781 0.960 . S
C1774 C1772 1.381 . S
C1774 C1775 1.394 . S
C1774 H1782 0.930 . S
C1775 C1774 1.394 . S
C1775 C1776 1.383 . S
C1775 H1783 0.929 . S
C1776 C1775 1.383 . S
C1776 C1777 1.377 . S
C1777 H1761 0.930 . S
C1777 C1776 1.377 . S
C1777 C1778 1.379 . S
C1778 H1762 0.931 . S
C1778 C1772 1.383 . S
C1778 C1777 1.379 . S
H1779 C1773 0.959 . S
H1780 C1773 0.961 . S
H1781 C1773 0.960 . S
H1782 C1774 0.930 . S
H1783 C1775 0.929 . S
H1784 C1792 0.929 . S
H1785 C1794 0.930 . S
H1786 C1796 0.930 . S
H1787 C1799 0.929 . S
H1788 C1802 0.930 . S
H1789 C1804 0.960 . S
H1790 C1804 0.960 . S
H1791 C1804 0.960 . S
C1792 H1784 0.929 . S
C1792 C1793 1.377 . S
C1792 C1794 1.384 . S
C1793 C1792 1.377 . S
C1793 C1799 1.390 1_545 S
C1794 H1785 0.930 . S
C1794 C1792 1.384 . S
C1794 C1795 1.372 . S
C1795 C1794 1.372 . S
C1795 C1796 1.400 1_545 S
C1795 C1800 1.490 . S
C1796 H1786 0.930 . S
C1796 C1795 1.400 1_565 S
C1796 C1799 1.386 . S
H1797 C1813 0.930 1_565 S
H1798 C1814 0.931 1_565 S
C1799 H1787 0.929 . S
C1799 C1793 1.390 1_565 S
C1799 C1796 1.386 . S
C1800 C1795 1.490 . S
C1800 C1802 1.395 . S
C1800 C1803 1.403 . S
H1801 C1807 0.930 . S
C1802 H1788 0.930 . S
C1802 C1800 1.395 . S
C1802 C1805 1.403 . S
C1803 C1800 1.403 . S
C1803 C1804 1.524 . S
C1803 C1807 1.400 . S
C1804 H1789 0.960 . S
C1804 H1790 0.960 . S
C1804 H1791 0.960 . S
C1804 C1803 1.524 . S
C1805 C1802 1.403 . S
C1805 C1806 1.392 . S
C1805 C1809 1.495 . S
C1806 C1805 1.392 . S
C1806 C1807 1.385 . S
C1806 C1808 1.478 . S
C1807 H1801 0.930 . S
C1807 C1803 1.400 . S
C1807 C1806 1.385 . S
C1808 C1806 1.478 . S
C1808 C1810 1.381 . S
C1808 C1814 1.383 . S
C1809 C1805 1.495 . S
C1809 H1815 0.959 . S
C1809 H1816 0.961 . S
C1809 H1817 0.960 . S
C1810 C1808 1.381 . S
C1810 C1811 1.394 . S
C1810 H1818 0.930 . S
C1811 C1810 1.394 . S
C1811 C1812 1.383 . S
C1811 H1819 0.929 . S
C1812 C1811 1.383 . S
C1812 C1813 1.377 . S
C1813 H1797 0.930 1_545 S
C1813 C1812 1.377 . S
C1813 C1814 1.379 . S
C1814 H1798 0.931 1_545 S
C1814 C1808 1.383 . S
C1814 C1813 1.379 . S
H1815 C1809 0.959 . S
H1816 C1809 0.961 . S
H1817 C1809 0.960 . S
H1818 C1810 0.930 . S
H1819 C1811 0.929 . S
H1820 C1828 0.929 . S
H1821 C1830 0.930 . S
H1822 C1832 0.930 . S
H1823 C1835 0.929 . S
H1824 C1838 0.930 . S
H1825 C1840 0.960 . S
H1826 C1840 0.960 . S
H1827 C1840 0.960 . S
C1828 H1820 0.929 . S
C1828 C1829 1.377 . S
C1828 C1830 1.384 . S
C1829 C1828 1.377 . S
C1829 C1835 1.390 . S
C1830 H1821 0.930 . S
C1830 C1828 1.384 . S
C1830 C1831 1.372 . S
C1831 C1830 1.372 . S
C1831 C1832 1.400 . S
C1831 C1836 1.490 . S
C1832 H1822 0.930 . S
C1832 C1831 1.400 . S
C1832 C1835 1.386 . S
H1833 C1849 0.930 . S
H1834 C1850 0.931 . S
C1835 H1823 0.929 . S
C1835 C1829 1.390 . S
C1835 C1832 1.386 . S
C1836 C1831 1.490 . S
C1836 C1838 1.395 . S
C1836 C1839 1.403 . S
H1837 C1843 0.930 . S
C1838 H1824 0.930 . S
C1838 C1836 1.395 . S
C1838 C1841 1.403 . S
C1839 C1836 1.403 . S
C1839 C1840 1.524 . S
C1839 C1843 1.400 . S
C1840 H1825 0.960 . S
C1840 H1826 0.960 . S
C1840 H1827 0.960 . S
C1840 C1839 1.524 . S
C1841 C1838 1.403 . S
C1841 C1842 1.392 . S
C1841 C1845 1.495 . S
C1842 C1841 1.392 . S
C1842 C1843 1.385 . S
C1842 C1844 1.478 . S
C1843 H1837 0.930 . S
C1843 C1839 1.400 . S
C1843 C1842 1.385 . S
C1844 C1842 1.478 . S
C1844 C1846 1.381 . S
C1844 C1850 1.383 . S
C1845 C1841 1.495 . S
C1845 H1851 0.959 . S
C1845 H1852 0.961 . S
C1845 H1853 0.960 . S
C1846 C1844 1.381 . S
C1846 C1847 1.394 . S
C1846 H1854 0.930 . S
C1847 C1846 1.394 . S
C1847 C1848 1.383 . S
C1847 H1855 0.929 . S
C1848 C1847 1.383 . S
C1848 C1849 1.377 . S
C1849 H1833 0.930 . S
C1849 C1848 1.377 . S
C1849 C1850 1.379 . S
C1850 H1834 0.931 . S
C1850 C1844 1.383 . S
C1850 C1849 1.379 . S
H1851 C1845 0.959 . S
H1852 C1845 0.961 . S
H1853 C1845 0.960 . S
H1854 C1846 0.930 . S
H1855 C1847 0.929 . S
H1856 C1864 0.929 1_565 S
H1857 C1866 0.930 1_565 S
H1858 C1868 0.930 . S
H1859 C1871 0.929 . S
H1860 C1874 0.930 1_565 S
H1861 C1876 0.960 . S
H1862 C1876 0.960 . S
H1863 C1876 0.960 . S
C1864 H1856 0.929 1_545 S
C1864 C1865 1.377 . S
C1864 C1866 1.384 . S
C1865 C1864 1.377 . S
C1865 C1871 1.390 . S
C1866 H1857 0.930 1_545 S
C1866 C1864 1.384 . S
C1866 C1867 1.372 . S
C1867 C1866 1.372 . S
C1867 C1868 1.400 . S
C1867 C1872 1.490 . S
C1868 H1858 0.930 . S
C1868 C1867 1.400 . S
C1868 C1871 1.386 . S
H1869 C1885 0.930 . S
H1870 C1886 0.931 . S
C1871 H1859 0.929 . S
C1871 C1865 1.390 . S
C1871 C1868 1.386 . S
C1872 C1867 1.490 . S
C1872 C1874 1.395 . S
C1872 C1875 1.403 . S
H1873 C1879 0.930 . S
C1874 H1860 0.930 1_545 S
C1874 C1872 1.395 . S
C1874 C1877 1.403 . S
C1875 C1872 1.403 . S
C1875 C1876 1.524 . S
C1875 C1879 1.400 . S
C1876 H1861 0.960 . S
C1876 H1862 0.960 . S
C1876 H1863 0.960 . S
C1876 C1875 1.524 . S
C1877 C1874 1.403 . S
C1877 C1878 1.392 . S
C1877 C1881 1.495 1_545 S
C1878 C1877 1.392 . S
C1878 C1879 1.385 . S
C1878 C1880 1.478 . S
C1879 H1873 0.930 . S
C1879 C1875 1.400 . S
C1879 C1878 1.385 . S
C1880 C1878 1.478 . S
C1880 C1882 1.365 1_545 S
C1880 C1886 1.383 . S
C1881 C1877 1.495 1_565 S
C1881 H1887 0.959 . S
C1881 H1888 0.961 . S
C1881 H1889 0.960 . S
C1882 C1880 1.365 1_565 S
C1882 C1883 1.397 1_565 S
C1882 H1890 0.944 . S
C1883 C1882 1.397 1_545 S
C1883 C1884 1.382 . S
C1883 H1891 0.931 1_545 S
C1884 C1883 1.382 . S
C1884 C1885 1.377 . S
C1885 H1869 0.930 . S
C1885 C1884 1.377 . S
C1885 C1886 1.379 . S
C1886 H1870 0.931 . S
C1886 C1880 1.383 . S
C1886 C1885 1.379 . S
H1887 C1881 0.959 . S
H1888 C1881 0.961 . S
H1889 C1881 0.960 . S
H1890 C1882 0.944 . S
H1891 C1883 0.931 1_565 S
H1892 C1900 0.929 . S
H1893 C1902 0.930 . S
H1894 C1904 0.930 . S
H1895 C1907 0.929 . S
H1896 C1910 0.930 . S
H1897 C1912 0.960 . S
H1898 C1912 0.960 . S
H1899 C1912 0.960 . S
C1900 H1892 0.929 . S
C1900 C1901 1.377 . S
C1900 C1902 1.384 . S
C1901 C1900 1.377 . S
C1901 C1907 1.390 . S
C1902 H1893 0.930 . S
C1902 C1900 1.384 . S
C1902 C1903 1.372 . S
C1903 C1902 1.372 . S
C1903 C1904 1.400 . S
C1903 C1908 1.490 . S
C1904 H1894 0.930 . S
C1904 C1903 1.400 . S
C1904 C1907 1.386 . S
H1905 C1921 0.930 . S
H1906 C1922 0.931 . S
C1907 H1895 0.929 . S
C1907 C1901 1.390 . S
C1907 C1904 1.386 . S
C1908 C1903 1.490 . S
C1908 C1910 1.395 . S
C1908 C1911 1.403 . S
H1909 C1915 0.930 . S
C1910 H1896 0.930 . S
C1910 C1908 1.395 . S
C1910 C1913 1.403 . S
C1911 C1908 1.403 . S
C1911 C1912 1.524 . S
C1911 C1915 1.400 . S
C1912 H1897 0.960 . S
C1912 H1898 0.960 . S
C1912 H1899 0.960 . S
C1912 C1911 1.524 . S
C1913 C1910 1.403 . S
C1913 C1914 1.392 . S
C1913 C1917 1.495 . S
C1914 C1913 1.392 . S
C1914 C1915 1.385 . S
C1914 C1916 1.478 . S
C1915 H1909 0.930 . S
C1915 C1911 1.400 . S
C1915 C1914 1.385 . S
C1916 C1914 1.478 . S
C1916 C1918 1.381 . S
C1916 C1922 1.383 . S
C1917 C1913 1.495 . S
C1917 H1923 0.959 . S
C1917 H1924 0.961 . S
C1917 H1925 0.960 . S
C1918 C1916 1.381 . S
C1918 C1919 1.394 . S
C1918 H1926 0.930 . S
C1919 C1918 1.394 . S
C1919 C1920 1.383 . S
C1919 H1927 0.929 . S
C1920 C1919 1.383 . S
C1920 C1921 1.377 . S
C1921 H1905 0.930 . S
C1921 C1920 1.377 . S
C1921 C1922 1.379 . S
C1922 H1906 0.931 . S
C1922 C1916 1.383 . S
C1922 C1921 1.379 . S
H1923 C1917 0.959 . S
H1924 C1917 0.961 . S
H1925 C1917 0.960 . S
H1926 C1918 0.930 . S
H1927 C1919 0.929 . S
H1928 C1936 0.929 . S
H1929 C1938 0.930 . S
H1930 C1940 0.930 . S
H1931 C1943 0.929 . S
H1932 C1946 0.945 . S
H1933 C1948 0.960 . S
H1934 C1948 0.960 . S
H1935 C1948 0.960 1_565 S
C1936 H1928 0.929 . S
C1936 C1937 1.377 1_545 S
C1936 C1938 1.384 . S
C1937 C1936 1.377 1_565 S
C1937 C1943 1.390 . S
C1938 H1929 0.930 . S
C1938 C1936 1.384 . S
C1938 C1939 1.372 1_545 S
C1939 C1938 1.372 1_565 S
C1939 C1940 1.400 . S
C1939 C1944 1.497 . S
C1940 H1930 0.930 . S
C1940 C1939 1.400 . S
C1940 C1943 1.386 . S
H1941 C1957 0.930 . S
H1942 C1958 0.931 . S
C1943 H1931 0.929 . S
C1943 C1937 1.390 . S
C1943 C1940 1.386 . S
C1944 C1939 1.497 . S
C1944 C1946 1.394 . S
C1944 C1947 1.395 1_565 S
H1945 C1951 0.930 . S
C1946 H1932 0.945 . S
C1946 C1944 1.394 . S
C1946 C1949 1.393 1_565 S
C1947 C1944 1.395 1_545 S
C1947 C1948 1.524 . S
C1947 C1951 1.400 . S
C1948 H1933 0.960 . S
C1948 H1934 0.960 . S
C1948 H1935 0.960 1_545 S
C1948 C1947 1.524 . S
C1949 C1946 1.393 1_545 S
C1949 C1950 1.392 . S
C1949 C1953 1.497 . S
C1950 C1949 1.392 . S
C1950 C1951 1.385 . S
C1950 C1952 1.478 . S
C1951 H1945 0.930 . S
C1951 C1947 1.400 . S
C1951 C1950 1.385 . S
C1952 C1950 1.478 . S
C1952 C1954 1.381 . S
C1952 C1958 1.383 1_545 S
C1953 C1949 1.497 . S
C1953 H1959 0.954 1_545 S
C1953 H1960 0.950 1_545 S
C1953 H1961 0.975 . S
C1954 C1952 1.381 . S
C1954 C1955 1.394 . S
C1954 H1962 0.930 . S
C1955 C1954 1.394 . S
C1955 C1956 1.383 . S
C1955 H1963 0.929 . S
C1956 C1955 1.383 . S
C1956 C1957 1.377 1_545 S
C1957 H1941 0.930 . S
C1957 C1956 1.377 1_565 S
C1957 C1958 1.379 . S
C1958 H1942 0.931 . S
C1958 C1952 1.383 1_565 S
C1958 C1957 1.379 . S
H1959 C1953 0.954 1_565 S
H1960 C1953 0.950 1_565 S
H1961 C1953 0.975 . S
H1962 C1954 0.930 . S
H1963 C1955 0.929 . S
H1964 C1972 0.929 . S
H1965 C1974 0.930 . S
H1966 C1976 0.930 . S
H1967 C1979 0.929 . S
H1968 C1982 0.930 . S
H1969 C1984 0.960 . S
H1970 C1984 0.960 . S
H1971 C1984 0.960 . S
C1972 H1964 0.929 . S
C1972 C1973 1.377 . S
C1972 C1974 1.384 . S
C1973 C1972 1.377 . S
C1973 C1979 1.390 . S
C1974 H1965 0.930 . S
C1974 C1972 1.384 . S
C1974 C1975 1.372 . S
C1975 C1974 1.372 . S
C1975 C1976 1.400 . S
C1975 C1980 1.490 . S
C1976 H1966 0.930 . S
C1976 C1975 1.400 . S
C1976 C1979 1.386 . S
H1977 C1993 0.930 . S
H1978 C1994 0.931 . S
C1979 H1967 0.929 . S
C1979 C1973 1.390 . S
C1979 C1976 1.386 . S
C1980 C1975 1.490 . S
C1980 C1982 1.395 . S
C1980 C1983 1.403 . S
H1981 C1987 0.930 . S
C1982 H1968 0.930 . S
C1982 C1980 1.395 . S
C1982 C1985 1.403 . S
C1983 C1980 1.403 . S
C1983 C1984 1.524 . S
C1983 C1987 1.400 . S
C1984 H1969 0.960 . S
C1984 H1970 0.960 . S
C1984 H1971 0.960 . S
C1984 C1983 1.524 . S
C1985 C1982 1.403 . S
C1985 C1986 1.392 . S
C1985 C1989 1.495 . S
C1986 C1985 1.392 . S
C1986 C1987 1.385 . S
C1986 C1988 1.478 . S
C1987 H1981 0.930 . S
C1987 C1983 1.400 . S
C1987 C1986 1.385 . S
C1988 C1986 1.478 . S
C1988 C1990 1.381 . S
C1988 C1994 1.383 . S
C1989 C1985 1.495 . S
C1989 H1995 0.959 . S
C1989 H1996 0.961 . S
C1989 H1997 0.960 . S
C1990 C1988 1.381 . S
C1990 C1991 1.394 . S
C1990 H1998 0.930 . S
C1991 C1990 1.394 . S
C1991 C1992 1.383 . S
C1991 H1999 0.929 . S
C1992 C1991 1.383 . S
C1992 C1993 1.377 . S
C1993 H1977 0.930 . S
C1993 C1992 1.377 . S
C1993 C1994 1.379 . S
C1994 H1978 0.931 . S
C1994 C1988 1.383 . S
C1994 C1993 1.379 . S
H1995 C1989 0.959 . S
H1996 C1989 0.961 . S
H1997 C1989 0.960 . S
H1998 C1990 0.930 . S
H1999 C1991 0.929 . S
H2000 C2008 0.929 1_565 S
H2001 C2010 0.930 1_565 S
H2002 C2012 0.930 . S
H2003 C2015 0.929 . S
H2004 C2018 0.930 . S
H2005 C2020 0.960 . S
H2006 C2020 0.960 . S
H2007 C2020 0.960 . S
C2008 H2000 0.929 1_545 S
C2008 C2009 1.377 . S
C2008 C2010 1.384 . S
C2009 C2008 1.377 . S
C2009 C2015 1.390 . S
C2010 H2001 0.930 1_545 S
C2010 C2008 1.384 . S
C2010 C2011 1.372 . S
C2011 C2010 1.372 . S
C2011 C2012 1.400 . S
C2011 C2016 1.490 . S
C2012 H2002 0.930 . S
C2012 C2011 1.400 . S
C2012 C2015 1.386 . S
H2013 C2029 0.930 . S
H2014 C2030 0.931 . S
C2015 H2003 0.929 . S
C2015 C2009 1.390 . S
C2015 C2012 1.386 . S
C2016 C2011 1.490 . S
C2016 C2018 1.395 . S
C2016 C2019 1.403 . S
H2017 C2023 0.930 . S
C2018 H2004 0.930 . S
C2018 C2016 1.395 . S
C2018 C2021 1.403 . S
C2019 C2016 1.403 . S
C2019 C2020 1.524 . S
C2019 C2023 1.400 . S
C2020 H2005 0.960 . S
C2020 H2006 0.960 . S
C2020 H2007 0.960 . S
C2020 C2019 1.524 . S
C2021 C2018 1.403 . S
C2021 C2022 1.392 . S
C2021 C2025 1.495 . S
C2022 C2021 1.392 . S
C2022 C2023 1.385 . S
C2022 C2024 1.478 . S
C2023 H2017 0.930 . S
C2023 C2019 1.400 . S
C2023 C2022 1.385 . S
C2024 C2022 1.478 . S
C2024 C2026 1.336 1_545 S
C2024 C2030 1.383 . S
C2025 C2021 1.495 . S
C2025 H2031 0.959 . S
C2025 H2032 0.961 . S
C2025 H2033 0.915 1_545 S
C2026 C2024 1.336 1_565 S
C2026 C2027 1.399 . S
C2026 H2034 0.973 . S
C2027 C2026 1.399 . S
C2027 C2028 1.383 1_565 S
C2027 H2035 0.929 . S
C2028 C2027 1.383 1_545 S
C2028 C2029 1.377 . S
C2029 H2013 0.930 . S
C2029 C2028 1.377 . S
C2029 C2030 1.379 . S
C2030 H2014 0.931 . S
C2030 C2024 1.383 . S
C2030 C2029 1.379 . S
H2031 C2025 0.959 . S
H2032 C2025 0.961 . S
H2033 C2025 0.915 1_565 S
H2034 C2026 0.973 . S
H2035 C2027 0.929 . S
H2036 C2044 0.929 . S
H2037 C2046 0.930 . S
H2038 C2048 0.930 . S
H2039 C2051 0.929 . S
H2040 C2054 0.930 . S
H2041 C2056 0.960 . S
H2042 C2056 0.960 . S
H2043 C2056 0.960 . S
C2044 H2036 0.929 . S
C2044 C2045 1.377 . S
C2044 C2046 1.384 . S
C2045 C2044 1.377 . S
C2045 C2051 1.390 . S
C2046 H2037 0.930 . S
C2046 C2044 1.384 . S
C2046 C2047 1.372 . S
C2047 C2046 1.372 . S
C2047 C2048 1.400 . S
C2047 C2052 1.490 . S
C2048 H2038 0.930 . S
C2048 C2047 1.400 . S
C2048 C2051 1.386 . S
H2049 C2065 0.930 . S
H2050 C2066 0.931 . S
C2051 H2039 0.929 . S
C2051 C2045 1.390 . S
C2051 C2048 1.386 . S
C2052 C2047 1.490 . S
C2052 C2054 1.395 . S
C2052 C2055 1.403 . S
H2053 C2059 0.930 . S
C2054 H2040 0.930 . S
C2054 C2052 1.395 . S
C2054 C2057 1.403 . S
C2055 C2052 1.403 . S
C2055 C2056 1.524 . S
C2055 C2059 1.400 . S
C2056 H2041 0.960 . S
C2056 H2042 0.960 . S
C2056 H2043 0.960 . S
C2056 C2055 1.524 . S
C2057 C2054 1.403 . S
C2057 C2058 1.392 . S
C2057 C2061 1.495 . S
C2058 C2057 1.392 . S
C2058 C2059 1.385 . S
C2058 C2060 1.478 . S
C2059 H2053 0.930 . S
C2059 C2055 1.400 . S
C2059 C2058 1.385 . S
C2060 C2058 1.478 . S
C2060 C2062 1.381 . S
C2060 C2066 1.383 . S
C2061 C2057 1.495 . S
C2061 H2067 0.959 . S
C2061 H2068 0.961 . S
C2061 H2069 0.960 . S
C2062 C2060 1.381 . S
C2062 C2063 1.394 . S
C2062 H2070 0.930 . S
C2063 C2062 1.394 . S
C2063 C2064 1.383 . S
C2063 H2071 0.929 . S
C2064 C2063 1.383 . S
C2064 C2065 1.377 . S
C2065 H2049 0.930 . S
C2065 C2064 1.377 . S
C2065 C2066 1.379 . S
C2066 H2050 0.931 . S
C2066 C2060 1.383 . S
C2066 C2065 1.379 . S
H2067 C2061 0.959 . S
H2068 C2061 0.961 . S
H2069 C2061 0.960 . S
H2070 C2062 0.930 . S
H2071 C2063 0.929 . S
H2072 C2080 0.929 . S
H2073 C2082 0.930 . S
H2074 C2084 0.930 . S
H2075 C2087 0.929 . S
H2076 C2090 0.930 . S
H2077 C2092 0.960 . S
H2078 C2092 0.960 . S
H2079 C2092 0.960 . S
C2080 H2072 0.929 . S
C2080 C2081 1.377 1_556 S
C2080 C2082 1.384 . S
C2081 C2080 1.377 1_554 S
C2081 C2087 1.390 . S
C2082 H2073 0.930 . S
C2082 C2080 1.384 . S
C2082 C2083 1.372 1_556 S
C2083 C2082 1.372 1_554 S
C2083 C2084 1.400 . S
C2083 C2088 1.490 . S
C2084 H2074 0.930 . S
C2084 C2083 1.400 . S
C2084 C2087 1.386 . S
H2085 C2101 0.930 . S
H2086 C2102 0.931 . S
C2087 H2075 0.929 . S
C2087 C2081 1.390 . S
C2087 C2084 1.386 . S
C2088 C2083 1.490 . S
C2088 C2090 1.395 1_554 S
C2088 C2091 1.403 . S
H2089 C2095 0.930 . S
C2090 H2076 0.930 . S
C2090 C2088 1.395 1_556 S
C2090 C2093 1.403 . S
C2091 C2088 1.403 . S
C2091 C2092 1.524 . S
C2091 C2095 1.400 . S
C2092 H2077 0.960 . S
C2092 H2078 0.960 . S
C2092 H2079 0.960 . S
C2092 C2091 1.524 . S
C2093 C2090 1.403 . S
C2093 C2094 1.392 1_556 S
C2093 C2097 1.495 . S
C2094 C2093 1.392 1_554 S
C2094 C2095 1.385 . S
C2094 C2096 1.478 . S
C2095 H2089 0.930 . S
C2095 C2091 1.400 . S
C2095 C2094 1.385 . S
C2096 C2094 1.478 . S
C2096 C2098 1.381 1_554 S
C2096 C2102 1.383 . S
C2097 C2093 1.495 . S
C2097 H2103 0.959 . S
C2097 H2104 0.961 . S
C2097 H2105 0.960 . S
C2098 C2096 1.381 1_556 S
C2098 C2099 1.394 . S
C2098 H2106 0.930 . S
C2099 C2098 1.394 . S
C2099 C2100 1.383 1_556 S
C2099 H2107 0.929 . S
C2100 C2099 1.383 1_554 S
C2100 C2101 1.377 . S
C2101 H2085 0.930 . S
C2101 C2100 1.377 . S
C2101 C2102 1.379 . S
C2102 H2086 0.931 . S
C2102 C2096 1.383 . S
C2102 C2101 1.379 . S
H2103 C2097 0.959 . S
H2104 C2097 0.961 . S
H2105 C2097 0.960 . S
H2106 C2098 0.930 . S
H2107 C2099 0.929 . S
H2108 C2116 0.940 . S
H2109 C2118 0.930 . S
H2110 C2120 0.930 . S
H2111 C2123 0.929 . S
H2112 C2126 0.930 . S
H2113 C2128 0.960 . S
H2114 C2128 0.999 . S
H2115 C2128 0.960 . S
C2116 H2108 0.940 . S
C2116 C2117 1.366 1_556 S
C2116 C2118 1.386 . S
C2117 C2116 1.366 1_554 S
C2117 C2123 1.390 . S
C2118 H2109 0.930 . S
C2118 C2116 1.386 . S
C2118 C2119 1.372 1_556 S
C2119 C2118 1.372 1_554 S
C2119 C2120 1.400 . S
C2119 C2124 1.490 . S
C2120 H2110 0.930 . S
C2120 C2119 1.400 . S
C2120 C2123 1.386 . S
H2121 C2137 0.930 . S
H2122 C2138 0.931 . S
C2123 H2111 0.929 . S
C2123 C2117 1.390 . S
C2123 C2120 1.386 . S
C2124 C2119 1.490 . S
C2124 C2126 1.395 . S
C2124 C2127 1.403 . S
H2125 C2131 0.930 . S
C2126 H2112 0.930 . S
C2126 C2124 1.395 . S
C2126 C2129 1.403 . S
C2127 C2124 1.403 . S
C2127 C2128 1.524 . S
C2127 C2131 1.400 . S
C2128 H2113 0.960 . S
C2128 H2114 0.999 . S
C2128 H2115 0.960 . S
C2128 C2127 1.524 . S
C2129 C2126 1.403 . S
C2129 C2130 1.392 . S
C2129 C2133 1.495 . S
C2130 C2129 1.392 . S
C2130 C2131 1.385 . S
C2130 C2132 1.478 . S
C2131 H2125 0.930 . S
C2131 C2127 1.400 . S
C2131 C2130 1.385 . S
C2132 C2130 1.478 . S
C2132 C2134 1.381 1_554 S
C2132 C2138 1.383 . S
C2133 C2129 1.495 . S
C2133 H2139 0.959 . S
C2133 H2140 0.961 . S
C2133 H2141 0.968 . S
C2134 C2132 1.381 1_556 S
C2134 C2135 1.394 . S
C2134 H2142 0.930 . S
C2135 C2134 1.394 . S
C2135 C2136 1.383 1_556 S
C2135 H2143 0.929 . S
C2136 C2135 1.383 1_554 S
C2136 C2137 1.377 . S
C2137 H2121 0.930 . S
C2137 C2136 1.377 . S
C2137 C2138 1.379 . S
C2138 H2122 0.931 . S
C2138 C2132 1.383 . S
C2138 C2137 1.379 . S
H2139 C2133 0.959 . S
H2140 C2133 0.961 . S
H2141 C2133 0.968 . S
H2142 C2134 0.930 . S
H2143 C2135 0.929 . S
H2144 C2152 0.929 . S
H2145 C2154 0.930 . S
H2146 C2156 0.930 . S
H2147 C2159 0.929 . S
H2148 C2162 0.930 . S
H2149 C2164 0.960 . S
H2150 C2164 0.960 . S
H2151 C2164 0.960 . S
C2152 H2144 0.929 . S
C2152 C2153 1.377 . S
C2152 C2154 1.384 . S
C2153 C2152 1.377 . S
C2153 C2159 1.390 . S
C2154 H2145 0.930 . S
C2154 C2152 1.384 . S
C2154 C2155 1.372 . S
C2155 C2154 1.372 . S
C2155 C2156 1.400 . S
C2155 C2160 1.490 . S
C2156 H2146 0.930 . S
C2156 C2155 1.400 . S
C2156 C2159 1.386 . S
H2157 C2173 0.930 . S
H2158 C2174 0.931 . S
C2159 H2147 0.929 . S
C2159 C2153 1.390 . S
C2159 C2156 1.386 . S
C2160 C2155 1.490 . S
C2160 C2162 1.395 . S
C2160 C2163 1.403 . S
H2161 C2167 0.930 . S
C2162 H2148 0.930 . S
C2162 C2160 1.395 . S
C2162 C2165 1.403 . S
C2163 C2160 1.403 . S
C2163 C2164 1.524 . S
C2163 C2167 1.400 . S
C2164 H2149 0.960 . S
C2164 H2150 0.960 . S
C2164 H2151 0.960 . S
C2164 C2163 1.524 . S
C2165 C2162 1.403 . S
C2165 C2166 1.392 . S
C2165 C2169 1.495 . S
C2166 C2165 1.392 . S
C2166 C2167 1.385 . S
C2166 C2168 1.478 . S
C2167 H2161 0.930 . S
C2167 C2163 1.400 . S
C2167 C2166 1.385 . S
C2168 C2166 1.478 . S
C2168 C2170 1.381 . S
C2168 C2174 1.383 . S
C2169 C2165 1.495 . S
C2169 H2175 0.959 . S
C2169 H2176 0.961 . S
C2169 H2177 0.960 . S
C2170 C2168 1.381 . S
C2170 C2171 1.394 . S
C2170 H2178 0.930 . S
C2171 C2170 1.394 . S
C2171 C2172 1.383 . S
C2171 H2179 0.929 . S
C2172 C2171 1.383 . S
C2172 C2173 1.377 . S
C2173 H2157 0.930 . S
C2173 C2172 1.377 . S
C2173 C2174 1.379 . S
C2174 H2158 0.931 . S
C2174 C2168 1.383 . S
C2174 C2173 1.379 . S
H2175 C2169 0.959 . S
H2176 C2169 0.961 . S
H2177 C2169 0.960 . S
H2178 C2170 0.930 . S
H2179 C2171 0.929 . S
H2180 C2188 0.929 . S
H2181 C2190 0.930 . S
H2182 C2192 0.930 . S
H2183 C2195 0.929 . S
H2184 C2198 0.930 . S
H2185 C2200 0.960 . S
H2186 C2200 0.960 . S
H2187 C2200 0.960 . S
C2188 H2180 0.929 . S
C2188 C2189 1.377 . S
C2188 C2190 1.384 . S
C2189 C2188 1.377 . S
C2189 C2195 1.390 . S
C2190 H2181 0.930 . S
C2190 C2188 1.384 . S
C2190 C2191 1.372 . S
C2191 C2190 1.372 . S
C2191 C2192 1.400 . S
C2191 C2196 1.490 . S
C2192 H2182 0.930 . S
C2192 C2191 1.400 . S
C2192 C2195 1.386 . S
H2193 C2209 0.930 . S
H2194 C2210 0.931 . S
C2195 H2183 0.929 . S
C2195 C2189 1.390 . S
C2195 C2192 1.386 . S
C2196 C2191 1.490 . S
C2196 C2198 1.395 . S
C2196 C2199 1.403 . S
H2197 C2203 0.930 . S
C2198 H2184 0.930 . S
C2198 C2196 1.395 . S
C2198 C2201 1.403 . S
C2199 C2196 1.403 . S
C2199 C2200 1.524 . S
C2199 C2203 1.400 . S
C2200 H2185 0.960 . S
C2200 H2186 0.960 . S
C2200 H2187 0.960 . S
C2200 C2199 1.524 . S
C2201 C2198 1.403 . S
C2201 C2202 1.392 . S
C2201 C2205 1.495 . S
C2202 C2201 1.392 . S
C2202 C2203 1.385 . S
C2202 C2204 1.478 . S
C2203 H2197 0.930 . S
C2203 C2199 1.400 . S
C2203 C2202 1.385 . S
C2204 C2202 1.478 . S
C2204 C2206 1.381 . S
C2204 C2210 1.383 . S
C2205 C2201 1.495 . S
C2205 H2211 0.959 . S
C2205 H2212 0.961 . S
C2205 H2213 0.960 . S
C2206 C2204 1.381 . S
C2206 C2207 1.394 . S
C2206 H2214 0.930 . S
C2207 C2206 1.394 . S
C2207 C2208 1.383 . S
C2207 H2215 0.929 . S
C2208 C2207 1.383 . S
C2208 C2209 1.377 . S
C2209 H2193 0.930 . S
C2209 C2208 1.377 . S
C2209 C2210 1.379 . S
C2210 H2194 0.931 . S
C2210 C2204 1.383 . S
C2210 C2209 1.379 . S
H2211 C2205 0.959 . S
H2212 C2205 0.961 . S
H2213 C2205 0.960 . S
H2214 C2206 0.930 . S
H2215 C2207 0.929 . S
H2216 C2224 0.929 . S
H2217 C2226 0.930 . S
H2218 C2228 0.930 . S
H2219 C2231 0.929 . S
H2220 C2234 0.930 . S
H2221 C2236 0.960 . S
H2222 C2236 0.960 . S
H2223 C2236 0.960 . S
C2224 H2216 0.929 . S
C2224 C2225 1.377 . S
C2224 C2226 1.384 . S
C2225 C2224 1.377 . S
C2225 C2231 1.390 . S
C2226 H2217 0.930 . S
C2226 C2224 1.384 . S
C2226 C2227 1.372 . S
C2227 C2226 1.372 . S
C2227 C2228 1.400 . S
C2227 C2232 1.490 . S
C2228 H2218 0.930 . S
C2228 C2227 1.400 . S
C2228 C2231 1.386 . S
H2229 C2245 0.930 . S
H2230 C2246 0.931 . S
C2231 H2219 0.929 . S
C2231 C2225 1.390 . S
C2231 C2228 1.386 . S
C2232 C2227 1.490 . S
C2232 C2234 1.395 . S
C2232 C2235 1.403 . S
H2233 C2239 0.930 . S
C2234 H2220 0.930 . S
C2234 C2232 1.395 . S
C2234 C2237 1.403 . S
C2235 C2232 1.403 . S
C2235 C2236 1.524 . S
C2235 C2239 1.400 . S
C2236 H2221 0.960 . S
C2236 H2222 0.960 . S
C2236 H2223 0.960 . S
C2236 C2235 1.524 . S
C2237 C2234 1.403 . S
C2237 C2238 1.392 . S
C2237 C2241 1.495 . S
C2238 C2237 1.392 . S
C2238 C2239 1.385 . S
C2238 C2240 1.478 . S
C2239 H2233 0.930 . S
C2239 C2235 1.400 . S
C2239 C2238 1.385 . S
C2240 C2238 1.478 . S
C2240 C2242 1.381 . S
C2240 C2246 1.383 . S
C2241 C2237 1.495 . S
C2241 H2247 0.959 . S
C2241 H2248 0.961 . S
C2241 H2249 0.960 . S
C2242 C2240 1.381 . S
C2242 C2243 1.394 . S
C2242 H2250 0.930 . S
C2243 C2242 1.394 . S
C2243 C2244 1.383 . S
C2243 H2251 0.929 . S
C2244 C2243 1.383 . S
C2244 C2245 1.377 . S
C2245 H2229 0.930 . S
C2245 C2244 1.377 . S
C2245 C2246 1.379 . S
C2246 H2230 0.931 . S
C2246 C2240 1.383 . S
C2246 C2245 1.379 . S
H2247 C2241 0.959 . S
H2248 C2241 0.961 . S
H2249 C2241 0.960 . S
H2250 C2242 0.930 . S
H2251 C2243 0.929 . S
H2252 C2260 0.929 . S
H2253 C2262 0.930 . S
H2254 C2264 0.930 . S
H2255 C2267 0.929 . S
H2256 C2270 0.930 . S
H2257 C2272 0.960 . S
H2258 C2272 0.960 . S
H2259 C2272 0.960 . S
C2260 H2252 0.929 . S
C2260 C2261 1.377 . S
C2260 C2262 1.384 . S
C2261 C2260 1.377 . S
C2261 C2267 1.390 . S
C2262 H2253 0.930 . S
C2262 C2260 1.384 . S
C2262 C2263 1.372 . S
C2263 C2262 1.372 . S
C2263 C2264 1.400 . S
C2263 C2268 1.490 . S
C2264 H2254 0.930 . S
C2264 C2263 1.400 . S
C2264 C2267 1.386 . S
H2265 C2281 0.930 . S
H2266 C2282 0.931 . S
C2267 H2255 0.929 . S
C2267 C2261 1.390 . S
C2267 C2264 1.386 . S
C2268 C2263 1.490 . S
C2268 C2270 1.395 . S
C2268 C2271 1.403 . S
H2269 C2275 0.930 . S
C2270 H2256 0.930 . S
C2270 C2268 1.395 . S
C2270 C2273 1.403 . S
C2271 C2268 1.403 . S
C2271 C2272 1.524 . S
C2271 C2275 1.400 . S
C2272 H2257 0.960 . S
C2272 H2258 0.960 . S
C2272 H2259 0.960 . S
C2272 C2271 1.524 . S
C2273 C2270 1.403 . S
C2273 C2274 1.392 . S
C2273 C2277 1.495 . S
C2274 C2273 1.392 . S
C2274 C2275 1.385 . S
C2274 C2276 1.478 . S
C2275 H2269 0.930 . S
C2275 C2271 1.400 . S
C2275 C2274 1.385 . S
C2276 C2274 1.478 . S
C2276 C2278 1.381 . S
C2276 C2282 1.383 . S
C2277 C2273 1.495 . S
C2277 H2283 0.959 . S
C2277 H2284 0.961 . S
C2277 H2285 0.960 . S
C2278 C2276 1.381 . S
C2278 C2279 1.394 . S
C2278 H2286 0.930 . S
C2279 C2278 1.394 . S
C2279 C2280 1.383 . S
C2279 H2287 0.929 . S
C2280 C2279 1.383 . S
C2280 C2281 1.377 . S
C2281 H2265 0.930 . S
C2281 C2280 1.377 . S
C2281 C2282 1.379 . S
C2282 H2266 0.931 . S
C2282 C2276 1.383 . S
C2282 C2281 1.379 . S
H2283 C2277 0.959 . S
H2284 C2277 0.961 . S
H2285 C2277 0.960 . S
H2286 C2278 0.930 . S
H2287 C2279 0.929 . S
H2288 C2296 0.929 . S
H2289 C2298 0.930 . S
H2290 C2300 0.930 . S
H2291 C2303 0.929 . S
H2292 C2306 0.930 . S
H2293 C2308 0.960 . S
H2294 C2308 0.960 . S
H2295 C2308 0.960 . S
C2296 H2288 0.929 . S
C2296 C2297 1.377 . S
C2296 C2298 1.384 . S
C2297 C2296 1.377 . S
C2297 C2303 1.390 . S
C2298 H2289 0.930 . S
C2298 C2296 1.384 . S
C2298 C2299 1.372 . S
C2299 C2298 1.372 . S
C2299 C2300 1.400 . S
C2299 C2304 1.490 . S
C2300 H2290 0.930 . S
C2300 C2299 1.400 . S
C2300 C2303 1.386 . S
H2301 C2317 0.930 . S
H2302 C2318 0.931 . S
C2303 H2291 0.929 . S
C2303 C2297 1.390 . S
C2303 C2300 1.386 . S
C2304 C2299 1.490 . S
C2304 C2306 1.395 . S
C2304 C2307 1.403 . S
H2305 C2311 0.930 . S
C2306 H2292 0.930 . S
C2306 C2304 1.395 . S
C2306 C2309 1.403 . S
C2307 C2304 1.403 . S
C2307 C2308 1.524 . S
C2307 C2311 1.400 . S
C2308 H2293 0.960 . S
C2308 H2294 0.960 . S
C2308 H2295 0.960 . S
C2308 C2307 1.524 . S
C2309 C2306 1.403 . S
C2309 C2310 1.392 . S
C2309 C2313 1.495 . S
C2310 C2309 1.392 . S
C2310 C2311 1.385 . S
C2310 C2312 1.478 . S
C2311 H2305 0.930 . S
C2311 C2307 1.400 . S
C2311 C2310 1.385 . S
C2312 C2310 1.478 . S
C2312 C2314 1.381 . S
C2312 C2318 1.383 . S
C2313 C2309 1.495 . S
C2313 H2319 0.959 . S
C2313 H2320 0.961 . S
C2313 H2321 0.960 . S
C2314 C2312 1.381 . S
C2314 C2315 1.394 . S
C2314 H2322 0.930 . S
C2315 C2314 1.394 . S
C2315 C2316 1.383 . S
C2315 H2323 0.929 . S
C2316 C2315 1.383 . S
C2316 C2317 1.377 . S
C2317 H2301 0.930 . S
C2317 C2316 1.377 . S
C2317 C2318 1.379 . S
C2318 H2302 0.931 . S
C2318 C2312 1.383 . S
C2318 C2317 1.379 . S
H2319 C2313 0.959 . S
H2320 C2313 0.961 . S
H2321 C2313 0.960 . S
H2322 C2314 0.930 . S
H2323 C2315 0.929 . S
H2324 C2332 0.929 . S
H2325 C2334 0.930 . S
H2326 C2336 0.930 . S
H2327 C2339 0.929 . S
H2328 C2342 0.930 . S
H2329 C2344 0.960 . S
H2330 C2344 0.960 . S
H2331 C2344 0.960 . S
C2332 H2324 0.929 . S
C2332 C2333 1.377 . S
C2332 C2334 1.384 . S
C2333 C2332 1.377 . S
C2333 C2339 1.390 . S
C2334 H2325 0.930 . S
C2334 C2332 1.384 . S
C2334 C2335 1.372 . S
C2335 C2334 1.372 . S
C2335 C2336 1.400 . S
C2335 C2340 1.490 . S
C2336 H2326 0.930 . S
C2336 C2335 1.400 . S
C2336 C2339 1.386 . S
H2337 C2353 0.930 . S
H2338 C2354 0.931 . S
C2339 H2327 0.929 . S
C2339 C2333 1.390 . S
C2339 C2336 1.386 . S
C2340 C2335 1.490 . S
C2340 C2342 1.395 . S
C2340 C2343 1.403 . S
H2341 C2347 0.930 . S
C2342 H2328 0.930 . S
C2342 C2340 1.395 . S
C2342 C2345 1.403 . S
C2343 C2340 1.403 . S
C2343 C2344 1.524 . S
C2343 C2347 1.400 . S
C2344 H2329 0.960 . S
C2344 H2330 0.960 . S
C2344 H2331 0.960 . S
C2344 C2343 1.524 . S
C2345 C2342 1.403 . S
C2345 C2346 1.392 . S
C2345 C2349 1.495 . S
C2346 C2345 1.392 . S
C2346 C2347 1.385 . S
C2346 C2348 1.478 . S
C2347 H2341 0.930 . S
C2347 C2343 1.400 . S
C2347 C2346 1.385 . S
C2348 C2346 1.478 . S
C2348 C2350 1.381 . S
C2348 C2354 1.383 . S
C2349 C2345 1.495 . S
C2349 H2355 0.959 . S
C2349 H2356 0.961 . S
C2349 H2357 0.960 . S
C2350 C2348 1.381 . S
C2350 C2351 1.394 . S
C2350 H2358 0.930 . S
C2351 C2350 1.394 . S
C2351 C2352 1.383 . S
C2351 H2359 0.929 . S
C2352 C2351 1.383 . S
C2352 C2353 1.377 . S
C2353 H2337 0.930 . S
C2353 C2352 1.377 . S
C2353 C2354 1.379 . S
C2354 H2338 0.931 . S
C2354 C2348 1.383 . S
C2354 C2353 1.379 . S
H2355 C2349 0.959 . S
H2356 C2349 0.961 . S
H2357 C2349 0.960 . S
H2358 C2350 0.930 . S
H2359 C2351 0.929 . S
H2360 C2368 0.929 . S
H2361 C2370 0.930 . S
H2362 C2372 0.930 . S
H2363 C2375 0.929 . S
H2364 C2378 0.930 . S
H2365 C2380 0.960 . S
H2366 C2380 0.960 . S
H2367 C2380 0.960 . S
C2368 H2360 0.929 . S
C2368 C2369 1.377 . S
C2368 C2370 1.384 . S
C2369 C2368 1.377 . S
C2369 C2375 1.390 . S
C2370 H2361 0.930 . S
C2370 C2368 1.384 . S
C2370 C2371 1.372 . S
C2371 C2370 1.372 . S
C2371 C2372 1.400 . S
C2371 C2376 1.490 . S
C2372 H2362 0.930 . S
C2372 C2371 1.400 . S
C2372 C2375 1.386 . S
H2373 C2389 0.930 . S
H2374 C2390 0.931 . S
C2375 H2363 0.929 . S
C2375 C2369 1.390 . S
C2375 C2372 1.386 . S
C2376 C2371 1.490 . S
C2376 C2378 1.395 . S
C2376 C2379 1.403 . S
H2377 C2383 0.930 . S
C2378 H2364 0.930 . S
C2378 C2376 1.395 . S
C2378 C2381 1.403 . S
C2379 C2376 1.403 . S
C2379 C2380 1.524 . S
C2379 C2383 1.400 . S
C2380 H2365 0.960 . S
C2380 H2366 0.960 . S
C2380 H2367 0.960 . S
C2380 C2379 1.524 . S
C2381 C2378 1.403 . S
C2381 C2382 1.392 . S
C2381 C2385 1.495 . S
C2382 C2381 1.392 . S
C2382 C2383 1.385 . S
C2382 C2384 1.478 . S
C2383 H2377 0.930 . S
C2383 C2379 1.400 . S
C2383 C2382 1.385 . S
C2384 C2382 1.478 . S
C2384 C2386 1.381 . S
C2384 C2390 1.383 . S
C2385 C2381 1.495 . S
C2385 H2391 0.959 . S
C2385 H2392 0.961 . S
C2385 H2393 0.960 . S
C2386 C2384 1.381 . S
C2386 C2387 1.394 . S
C2386 H2394 0.930 . S
C2387 C2386 1.394 . S
C2387 C2388 1.383 . S
C2387 H2395 0.929 . S
C2388 C2387 1.383 . S
C2388 C2389 1.377 . S
C2389 H2373 0.930 . S
C2389 C2388 1.377 . S
C2389 C2390 1.379 . S
C2390 H2374 0.931 . S
C2390 C2384 1.383 . S
C2390 C2389 1.379 . S
H2391 C2385 0.959 . S
H2392 C2385 0.961 . S
H2393 C2385 0.960 . S
H2394 C2386 0.930 . S
H2395 C2387 0.929 . S
H2396 C2404 0.929 . S
H2397 C2406 0.930 . S
H2398 C2408 0.930 . S
H2399 C2411 0.929 . S
H2400 C2414 0.930 . S
H2401 C2416 0.960 . S
H2402 C2416 0.960 . S
H2403 C2416 0.960 . S
C2404 H2396 0.929 . S
C2404 C2405 1.377 . S
C2404 C2406 1.384 . S
C2405 C2404 1.377 . S
C2405 C2411 1.390 . S
C2406 H2397 0.930 . S
C2406 C2404 1.384 . S
C2406 C2407 1.372 . S
C2407 C2406 1.372 . S
C2407 C2408 1.400 . S
C2407 C2412 1.490 . S
C2408 H2398 0.930 . S
C2408 C2407 1.400 . S
C2408 C2411 1.386 . S
H2409 C2425 0.930 . S
H2410 C2426 0.931 . S
C2411 H2399 0.929 . S
C2411 C2405 1.390 . S
C2411 C2408 1.386 . S
C2412 C2407 1.490 . S
C2412 C2414 1.395 . S
C2412 C2415 1.403 . S
H2413 C2419 0.930 . S
C2414 H2400 0.930 . S
C2414 C2412 1.395 . S
C2414 C2417 1.403 . S
C2415 C2412 1.403 . S
C2415 C2416 1.524 . S
C2415 C2419 1.400 . S
C2416 H2401 0.960 . S
C2416 H2402 0.960 . S
C2416 H2403 0.960 . S
C2416 C2415 1.524 . S
C2417 C2414 1.403 . S
C2417 C2418 1.392 . S
C2417 C2421 1.495 . S
C2418 C2417 1.392 . S
C2418 C2419 1.385 . S
C2418 C2420 1.478 . S
C2419 H2413 0.930 . S
C2419 C2415 1.400 . S
C2419 C2418 1.385 . S
C2420 C2418 1.478 . S
C2420 C2422 1.381 . S
C2420 C2426 1.383 . S
C2421 C2417 1.495 . S
C2421 H2427 0.959 . S
C2421 H2428 0.961 . S
C2421 H2429 0.960 . S
C2422 C2420 1.381 . S
C2422 C2423 1.394 . S
C2422 H2430 0.930 . S
C2423 C2422 1.394 . S
C2423 C2424 1.383 . S
C2423 H2431 0.929 . S
C2424 C2423 1.383 . S
C2424 C2425 1.377 . S
C2425 H2409 0.930 . S
C2425 C2424 1.377 . S
C2425 C2426 1.379 . S
C2426 H2410 0.931 . S
C2426 C2420 1.383 . S
C2426 C2425 1.379 . S
H2427 C2421 0.959 . S
H2428 C2421 0.961 . S
H2429 C2421 0.960 . S
H2430 C2422 0.930 . S
H2431 C2423 0.929 . S
H2432 C2440 0.929 . S
H2433 C2442 0.930 . S
H2434 C2444 0.930 . S
H2435 C2447 0.929 . S
H2436 C2450 0.930 . S
H2437 C2452 0.960 . S
H2438 C2452 0.960 . S
H2439 C2452 0.960 . S
C2440 H2432 0.929 . S
C2440 C2441 1.377 1_655 S
C2440 C2442 1.384 . S
C2441 C2440 1.377 1_455 S
C2441 C2447 1.390 . S
C2442 H2433 0.930 . S
C2442 C2440 1.384 . S
C2442 C2443 1.372 1_655 S
C2443 C2442 1.372 1_455 S
C2443 C2444 1.400 . S
C2443 C2448 1.490 . S
C2444 H2434 0.930 . S
C2444 C2443 1.400 . S
C2444 C2447 1.386 . S
H2445 C2461 0.930 . S
H2446 C2462 0.931 . S
C2447 H2435 0.929 . S
C2447 C2441 1.390 . S
C2447 C2444 1.386 . S
C2448 C2443 1.490 . S
C2448 C2450 1.395 1_455 S
C2448 C2451 1.403 . S
H2449 C2455 0.930 . S
C2450 H2436 0.930 . S
C2450 C2448 1.395 1_655 S
C2450 C2453 1.403 . S
C2451 C2448 1.403 . S
C2451 C2452 1.524 . S
C2451 C2455 1.400 . S
C2452 H2437 0.960 . S
C2452 H2438 0.960 . S
C2452 H2439 0.960 . S
C2452 C2451 1.524 . S
C2453 C2450 1.403 . S
C2453 C2454 1.392 1_655 S
C2453 C2457 1.495 1_556 S
C2454 C2453 1.392 1_455 S
C2454 C2455 1.385 . S
C2454 C2456 1.478 . S
C2455 H2449 0.930 . S
C2455 C2451 1.400 . S
C2455 C2454 1.385 . S
C2456 C2454 1.478 . S
C2456 C2458 1.381 1_456 S
C2456 C2462 1.383 1_556 S
C2457 C2453 1.495 1_554 S
C2457 H2463 0.959 . S
C2457 H2464 0.961 . S
C2457 H2465 0.960 . S
C2458 C2456 1.381 1_654 S
C2458 C2459 1.394 . S
C2458 H2466 0.930 1_554 S
C2459 C2458 1.394 . S
C2459 C2460 1.383 1_655 S
C2459 H2467 0.929 . S
C2460 C2459 1.383 1_455 S
C2460 C2461 1.377 . S
C2461 H2445 0.930 . S
C2461 C2460 1.377 . S
C2461 C2462 1.379 . S
C2462 H2446 0.931 . S
C2462 C2456 1.383 1_554 S
C2462 C2461 1.379 . S
H2463 C2457 0.959 . S
H2464 C2457 0.961 . S
H2465 C2457 0.960 . S
H2466 C2458 0.930 1_556 S
H2467 C2459 0.929 . S
H2468 C2476 0.929 . S
H2469 C2478 0.930 . S
H2470 C2480 0.930 . S
H2471 C2483 0.929 . S
H2472 C2486 0.930 . S
H2473 C2488 0.960 . S
H2474 C2488 0.960 . S
H2475 C2488 0.960 . S
C2476 H2468 0.929 . S
C2476 C2477 1.377 . S
C2476 C2478 1.384 . S
C2477 C2476 1.377 . S
C2477 C2483 1.390 . S
C2478 H2469 0.930 . S
C2478 C2476 1.384 . S
C2478 C2479 1.372 . S
C2479 C2478 1.372 . S
C2479 C2480 1.400 . S
C2479 C2484 1.490 . S
C2480 H2470 0.930 . S
C2480 C2479 1.400 . S
C2480 C2483 1.386 . S
H2481 C2497 0.930 . S
H2482 C2498 0.931 . S
C2483 H2471 0.929 . S
C2483 C2477 1.390 . S
C2483 C2480 1.386 . S
C2484 C2479 1.490 . S
C2484 C2486 1.395 . S
C2484 C2487 1.403 . S
H2485 C2491 0.930 . S
C2486 H2472 0.930 . S
C2486 C2484 1.395 . S
C2486 C2489 1.403 . S
C2487 C2484 1.403 . S
C2487 C2488 1.524 . S
C2487 C2491 1.400 . S
C2488 H2473 0.960 . S
C2488 H2474 0.960 . S
C2488 H2475 0.960 . S
C2488 C2487 1.524 . S
C2489 C2486 1.403 . S
C2489 C2490 1.392 . S
C2489 C2493 1.495 . S
C2490 C2489 1.392 . S
C2490 C2491 1.385 . S
C2490 C2492 1.478 . S
C2491 H2485 0.930 . S
C2491 C2487 1.400 . S
C2491 C2490 1.385 . S
C2492 C2490 1.478 . S
C2492 C2494 1.381 . S
C2492 C2498 1.383 . S
C2493 C2489 1.495 . S
C2493 H2499 0.959 . S
C2493 H2500 0.961 . S
C2493 H2501 0.960 . S
C2494 C2492 1.381 . S
C2494 C2495 1.394 . S
C2494 H2502 0.930 . S
C2495 C2494 1.394 . S
C2495 C2496 1.383 . S
C2495 H2503 0.929 . S
C2496 C2495 1.383 . S
C2496 C2497 1.377 . S
C2497 H2481 0.930 . S
C2497 C2496 1.377 . S
C2497 C2498 1.379 . S
C2498 H2482 0.931 . S
C2498 C2492 1.383 . S
C2498 C2497 1.379 . S
H2499 C2493 0.959 . S
H2500 C2493 0.961 . S
H2501 C2493 0.960 . S
H2502 C2494 0.930 . S
H2503 C2495 0.929 . S
H2504 C2512 0.929 . S
H2505 C2514 0.930 . S
H2506 C2516 0.930 . S
H2507 C2519 0.929 . S
H2508 C2522 0.930 . S
H2509 C2524 0.960 . S
H2510 C2524 0.960 . S
H2511 C2524 0.960 . S
C2512 H2504 0.929 . S
C2512 C2513 1.377 . S
C2512 C2514 1.384 . S
C2513 C2512 1.377 . S
C2513 C2519 1.390 . S
C2514 H2505 0.930 . S
C2514 C2512 1.384 . S
C2514 C2515 1.372 . S
C2515 C2514 1.372 . S
C2515 C2516 1.400 . S
C2515 C2520 1.490 . S
C2516 H2506 0.930 . S
C2516 C2515 1.400 . S
C2516 C2519 1.386 . S
H2517 C2533 0.930 . S
H2518 C2534 0.931 . S
C2519 H2507 0.929 . S
C2519 C2513 1.390 . S
C2519 C2516 1.386 . S
C2520 C2515 1.490 . S
C2520 C2522 1.395 . S
C2520 C2523 1.403 . S
H2521 C2527 0.930 . S
C2522 H2508 0.930 . S
C2522 C2520 1.395 . S
C2522 C2525 1.403 . S
C2523 C2520 1.403 . S
C2523 C2524 1.524 . S
C2523 C2527 1.400 . S
C2524 H2509 0.960 . S
C2524 H2510 0.960 . S
C2524 H2511 0.960 . S
C2524 C2523 1.524 . S
C2525 C2522 1.403 . S
C2525 C2526 1.392 . S
C2525 C2529 1.495 . S
C2526 C2525 1.392 . S
C2526 C2527 1.385 . S
C2526 C2528 1.478 . S
C2527 H2521 0.930 . S
C2527 C2523 1.400 . S
C2527 C2526 1.385 . S
C2528 C2526 1.478 . S
C2528 C2530 1.381 . S
C2528 C2534 1.383 . S
C2529 C2525 1.495 . S
C2529 H2535 0.959 . S
C2529 H2536 0.961 . S
C2529 H2537 0.960 . S
C2530 C2528 1.381 . S
C2530 C2531 1.394 . S
C2530 H2538 0.930 . S
C2531 C2530 1.394 . S
C2531 C2532 1.383 . S
C2531 H2539 0.929 . S
C2532 C2531 1.383 . S
C2532 C2533 1.377 . S
C2533 H2517 0.930 . S
C2533 C2532 1.377 . S
C2533 C2534 1.379 . S
C2534 H2518 0.931 . S
C2534 C2528 1.383 . S
C2534 C2533 1.379 . S
H2535 C2529 0.959 . S
H2536 C2529 0.961 . S
H2537 C2529 0.960 . S
H2538 C2530 0.930 . S
H2539 C2531 0.929 . S
H2540 C2548 0.929 . S
H2541 C2550 0.930 . S
H2542 C2552 0.930 . S
H2543 C2555 0.929 . S
H2544 C2558 0.930 . S
H2545 C2560 0.960 . S
H2546 C2560 0.960 . S
H2547 C2560 0.960 . S
C2548 H2540 0.929 . S
C2548 C2549 1.377 . S
C2548 C2550 1.384 . S
C2549 C2548 1.377 . S
C2549 C2555 1.390 . S
C2550 H2541 0.930 . S
C2550 C2548 1.384 . S
C2550 C2551 1.372 . S
C2551 C2550 1.372 . S
C2551 C2552 1.400 . S
C2551 C2556 1.490 . S
C2552 H2542 0.930 . S
C2552 C2551 1.400 . S
C2552 C2555 1.386 . S
H2553 C2569 0.930 . S
H2554 C2570 0.931 . S
C2555 H2543 0.929 . S
C2555 C2549 1.390 . S
C2555 C2552 1.386 . S
C2556 C2551 1.490 . S
C2556 C2558 1.395 . S
C2556 C2559 1.403 . S
H2557 C2563 0.930 . S
C2558 H2544 0.930 . S
C2558 C2556 1.395 . S
C2558 C2561 1.403 . S
C2559 C2556 1.403 . S
C2559 C2560 1.524 . S
C2559 C2563 1.400 . S
C2560 H2545 0.960 . S
C2560 H2546 0.960 . S
C2560 H2547 0.960 . S
C2560 C2559 1.524 . S
C2561 C2558 1.403 . S
C2561 C2562 1.392 . S
C2561 C2565 1.495 . S
C2562 C2561 1.392 . S
C2562 C2563 1.385 . S
C2562 C2564 1.478 . S
C2563 H2557 0.930 . S
C2563 C2559 1.400 . S
C2563 C2562 1.385 . S
C2564 C2562 1.478 . S
C2564 C2566 1.381 . S
C2564 C2570 1.383 . S
C2565 C2561 1.495 . S
C2565 H2571 0.959 . S
C2565 H2572 0.961 . S
C2565 H2573 0.960 . S
C2566 C2564 1.381 . S
C2566 C2567 1.394 . S
C2566 H2574 0.930 . S
C2567 C2566 1.394 . S
C2567 C2568 1.383 . S
C2567 H2575 0.929 . S
C2568 C2567 1.383 . S
C2568 C2569 1.377 . S
C2569 H2553 0.930 . S
C2569 C2568 1.377 . S
C2569 C2570 1.379 . S
C2570 H2554 0.931 . S
C2570 C2564 1.383 . S
C2570 C2569 1.379 . S
H2571 C2565 0.959 . S
H2572 C2565 0.961 . S
H2573 C2565 0.960 . S
H2574 C2566 0.930 . S
H2575 C2567 0.929 . S
H2576 C2584 0.929 . S
H2577 C2586 0.930 . S
H2578 C2588 0.930 . S
H2579 C2591 0.929 . S
H2580 C2594 0.930 . S
H2581 C2596 0.960 . S
H2582 C2596 0.960 . S
H2583 C2596 0.960 . S
C2584 H2576 0.929 . S
C2584 C2585 1.377 1_655 S
C2584 C2586 1.384 . S
C2585 C2584 1.377 1_455 S
C2585 C2591 1.390 . S
C2586 H2577 0.930 . S
C2586 C2584 1.384 . S
C2586 C2587 1.372 1_655 S
C2587 C2586 1.372 1_455 S
C2587 C2588 1.400 . S
C2587 C2592 1.490 . S
C2588 H2578 0.930 . S
C2588 C2587 1.400 . S
C2588 C2591 1.386 . S
H2589 C2605 0.930 . S
H2590 C2606 0.931 . S
C2591 H2579 0.929 . S
C2591 C2585 1.390 . S
C2591 C2588 1.386 . S
C2592 C2587 1.490 . S
C2592 C2594 1.395 1_455 S
C2592 C2595 1.403 . S
H2593 C2599 0.930 . S
C2594 H2580 0.930 . S
C2594 C2592 1.395 1_655 S
C2594 C2597 1.403 . S
C2595 C2592 1.403 . S
C2595 C2596 1.524 . S
C2595 C2599 1.400 . S
C2596 H2581 0.960 . S
C2596 H2582 0.960 . S
C2596 H2583 0.960 . S
C2596 C2595 1.524 . S
C2597 C2594 1.403 . S
C2597 C2598 1.392 1_655 S
C2597 C2601 1.495 . S
C2598 C2597 1.392 1_455 S
C2598 C2599 1.385 . S
C2598 C2600 1.468 . S
C2599 H2593 0.930 . S
C2599 C2595 1.400 . S
C2599 C2598 1.385 . S
C2600 C2598 1.468 . S
C2600 C2602 1.342 1_455 S
C2600 C2606 1.436 . S
C2601 C2597 1.495 . S
C2601 H2607 0.959 . S
C2601 H2608 0.961 . S
C2601 H2609 0.960 . S
C2602 C2600 1.342 1_655 S
C2602 C2603 1.394 . S
C2602 H2610 0.930 . S
C2603 C2602 1.394 . S
C2603 C2604 1.383 1_655 S
C2603 H2611 0.929 . S
C2604 C2603 1.383 1_455 S
C2604 C2605 1.377 . S
C2605 H2589 0.930 . S
C2605 C2604 1.377 . S
C2605 C2606 1.379 . S
C2606 H2590 0.931 . S
C2606 C2600 1.436 . S
C2606 C2605 1.379 . S
H2607 C2601 0.959 . S
H2608 C2601 0.961 . S
H2609 C2601 0.960 . S
H2610 C2602 0.930 . S
H2611 C2603 0.929 . S
H2612 C2620 0.929 . S
H2613 C2622 0.930 . S
H2614 C2624 0.930 . S
H2615 C2627 0.929 . S
H2616 C2630 0.930 . S
H2617 C2632 0.960 . S
H2618 C2632 0.960 . S
H2619 C2632 0.960 . S
C2620 H2612 0.929 . S
C2620 C2621 1.377 . S
C2620 C2622 1.384 . S
C2621 C2620 1.377 . S
C2621 C2627 1.390 . S
C2622 H2613 0.930 . S
C2622 C2620 1.384 . S
C2622 C2623 1.372 . S
C2623 C2622 1.372 . S
C2623 C2624 1.400 . S
C2623 C2628 1.490 . S
C2624 H2614 0.930 . S
C2624 C2623 1.400 . S
C2624 C2627 1.386 . S
H2625 C2641 0.930 . S
H2626 C2642 0.931 . S
C2627 H2615 0.929 . S
C2627 C2621 1.390 . S
C2627 C2624 1.386 . S
C2628 C2623 1.490 . S
C2628 C2630 1.395 . S
C2628 C2631 1.403 . S
H2629 C2635 0.930 . S
C2630 H2616 0.930 . S
C2630 C2628 1.395 . S
C2630 C2633 1.403 . S
C2631 C2628 1.403 . S
C2631 C2632 1.524 . S
C2631 C2635 1.400 . S
C2632 H2617 0.960 . S
C2632 H2618 0.960 . S
C2632 H2619 0.960 . S
C2632 C2631 1.524 . S
C2633 C2630 1.403 . S
C2633 C2634 1.392 . S
C2633 C2637 1.495 . S
C2634 C2633 1.392 . S
C2634 C2635 1.385 . S
C2634 C2636 1.478 . S
C2635 H2629 0.930 . S
C2635 C2631 1.400 . S
C2635 C2634 1.385 . S
C2636 C2634 1.478 . S
C2636 C2638 1.381 . S
C2636 C2642 1.383 . S
C2637 C2633 1.495 . S
C2637 H2643 0.959 . S
C2637 H2644 0.961 . S
C2637 H2645 0.960 . S
C2638 C2636 1.381 . S
C2638 C2639 1.394 . S
C2638 H2646 0.930 . S
C2639 C2638 1.394 . S
C2639 C2640 1.383 . S
C2639 H2647 0.929 . S
C2640 C2639 1.383 . S
C2640 C2641 1.377 . S
C2641 H2625 0.930 . S
C2641 C2640 1.377 . S
C2641 C2642 1.379 . S
C2642 H2626 0.931 . S
C2642 C2636 1.383 . S
C2642 C2641 1.379 . S
H2643 C2637 0.959 . S
H2644 C2637 0.961 . S
H2645 C2637 0.960 . S
H2646 C2638 0.930 . S
H2647 C2639 0.929 . S
H2648 C2656 0.929 . S
H2649 C2658 0.930 . S
H2650 C2660 0.930 . S
H2651 C2663 0.929 . S
H2652 C2666 0.930 . S
H2653 C2668 0.960 . S
H2654 C2668 0.960 . S
H2655 C2668 0.960 . S
C2656 H2648 0.929 . S
C2656 C2657 1.377 . S
C2656 C2658 1.384 . S
C2657 C2656 1.377 . S
C2657 C2663 1.390 . S
C2658 H2649 0.930 . S
C2658 C2656 1.384 . S
C2658 C2659 1.372 . S
C2659 C2658 1.372 . S
C2659 C2660 1.400 . S
C2659 C2664 1.490 . S
C2660 H2650 0.930 . S
C2660 C2659 1.400 . S
C2660 C2663 1.386 . S
H2661 C2677 0.930 . S
H2662 C2678 0.931 . S
C2663 H2651 0.929 . S
C2663 C2657 1.390 . S
C2663 C2660 1.386 . S
C2664 C2659 1.490 . S
C2664 C2666 1.395 . S
C2664 C2667 1.403 . S
H2665 C2671 0.930 . S
C2666 H2652 0.930 . S
C2666 C2664 1.395 . S
C2666 C2669 1.403 . S
C2667 C2664 1.403 . S
C2667 C2668 1.524 . S
C2667 C2671 1.400 . S
C2668 H2653 0.960 . S
C2668 H2654 0.960 . S
C2668 H2655 0.960 . S
C2668 C2667 1.524 . S
C2669 C2666 1.403 . S
C2669 C2670 1.392 . S
C2669 C2673 1.495 . S
C2670 C2669 1.392 . S
C2670 C2671 1.385 . S
C2670 C2672 1.478 . S
C2671 H2665 0.930 . S
C2671 C2667 1.400 . S
C2671 C2670 1.385 . S
C2672 C2670 1.478 . S
C2672 C2674 1.381 . S
C2672 C2678 1.383 . S
C2673 C2669 1.495 . S
C2673 H2679 0.959 . S
C2673 H2680 0.961 . S
C2673 H2681 0.960 . S
C2674 C2672 1.381 . S
C2674 C2675 1.394 . S
C2674 H2682 0.930 . S
C2675 C2674 1.394 . S
C2675 C2676 1.383 . S
C2675 H2683 0.929 . S
C2676 C2675 1.383 . S
C2676 C2677 1.377 . S
C2677 H2661 0.930 . S
C2677 C2676 1.377 . S
C2677 C2678 1.379 . S
C2678 H2662 0.931 . S
C2678 C2672 1.383 . S
C2678 C2677 1.379 . S
H2679 C2673 0.959 . S
H2680 C2673 0.961 . S
H2681 C2673 0.960 . S
H2682 C2674 0.930 . S
H2683 C2675 0.929 . S
H2684 C2692 0.929 . S
H2685 C2694 0.930 . S
H2686 C2696 0.930 . S
H2687 C2699 0.929 . S
H2688 C2702 0.930 . S
H2689 C2704 0.960 . S
H2690 C2704 0.960 . S
H2691 C2704 0.960 . S
C2692 H2684 0.929 . S
C2692 C2693 1.377 . S
C2692 C2694 1.384 . S
C2693 C2692 1.377 . S
C2693 C2699 1.390 . S
C2694 H2685 0.930 . S
C2694 C2692 1.384 . S
C2694 C2695 1.372 . S
C2695 C2694 1.372 . S
C2695 C2696 1.400 . S
C2695 C2700 1.490 . S
C2696 H2686 0.930 . S
C2696 C2695 1.400 . S
C2696 C2699 1.386 . S
H2697 C2713 0.930 . S
H2698 C2714 0.931 . S
C2699 H2687 0.929 . S
C2699 C2693 1.390 . S
C2699 C2696 1.386 . S
C2700 C2695 1.490 . S
C2700 C2702 1.395 . S
C2700 C2703 1.403 . S
H2701 C2707 0.930 . S
C2702 H2688 0.930 . S
C2702 C2700 1.395 . S
C2702 C2705 1.403 . S
C2703 C2700 1.403 . S
C2703 C2704 1.524 . S
C2703 C2707 1.400 . S
C2704 H2689 0.960 . S
C2704 H2690 0.960 . S
C2704 H2691 0.960 . S
C2704 C2703 1.524 . S
C2705 C2702 1.403 . S
C2705 C2706 1.392 . S
C2705 C2709 1.495 . S
C2706 C2705 1.392 . S
C2706 C2707 1.385 . S
C2706 C2708 1.478 . S
C2707 H2701 0.930 . S
C2707 C2703 1.400 . S
C2707 C2706 1.385 . S
C2708 C2706 1.478 . S
C2708 C2710 1.381 . S
C2708 C2714 1.383 . S
C2709 C2705 1.495 . S
C2709 H2715 0.959 . S
C2709 H2716 0.961 . S
C2709 H2717 0.960 . S
C2710 C2708 1.381 . S
C2710 C2711 1.394 . S
C2710 H2718 0.930 . S
C2711 C2710 1.394 . S
C2711 C2712 1.383 . S
C2711 H2719 0.929 . S
C2712 C2711 1.383 . S
C2712 C2713 1.377 . S
C2713 H2697 0.930 . S
C2713 C2712 1.377 . S
C2713 C2714 1.379 . S
C2714 H2698 0.931 . S
C2714 C2708 1.383 . S
C2714 C2713 1.379 . S
H2715 C2709 0.959 . S
H2716 C2709 0.961 . S
H2717 C2709 0.960 . S
H2718 C2710 0.930 . S
H2719 C2711 0.929 . S
H2720 C2728 0.929 . S
H2721 C2730 0.930 . S
H2722 C2732 0.930 . S
H2723 C2735 0.929 . S
H2724 C2738 0.930 . S
H2725 C2740 0.960 . S
H2726 C2740 0.960 . S
H2727 C2740 0.960 . S
C2728 H2720 0.929 . S
C2728 C2729 1.377 . S
C2728 C2730 1.384 . S
C2729 C2728 1.377 . S
C2729 C2735 1.390 . S
C2730 H2721 0.930 . S
C2730 C2728 1.384 . S
C2730 C2731 1.372 . S
C2731 C2730 1.372 . S
C2731 C2732 1.400 . S
C2731 C2736 1.490 . S
C2732 H2722 0.930 . S
C2732 C2731 1.400 . S
C2732 C2735 1.386 . S
H2733 C2749 0.930 . S
H2734 C2750 0.931 . S
C2735 H2723 0.929 . S
C2735 C2729 1.390 . S
C2735 C2732 1.386 . S
C2736 C2731 1.490 . S
C2736 C2738 1.395 . S
C2736 C2739 1.403 . S
H2737 C2743 0.930 . S
C2738 H2724 0.930 . S
C2738 C2736 1.395 . S
C2738 C2741 1.403 . S
C2739 C2736 1.403 . S
C2739 C2740 1.524 . S
C2739 C2743 1.400 . S
C2740 H2725 0.960 . S
C2740 H2726 0.960 . S
C2740 H2727 0.960 . S
C2740 C2739 1.524 . S
C2741 C2738 1.403 . S
C2741 C2742 1.392 . S
C2741 C2745 1.495 . S
C2742 C2741 1.392 . S
C2742 C2743 1.385 . S
C2742 C2744 1.478 . S
C2743 H2737 0.930 . S
C2743 C2739 1.400 . S
C2743 C2742 1.385 . S
C2744 C2742 1.478 . S
C2744 C2746 1.381 . S
C2744 C2750 1.383 . S
C2745 C2741 1.495 . S
C2745 H2751 0.959 . S
C2745 H2752 0.961 . S
C2745 H2753 0.960 . S
C2746 C2744 1.381 . S
C2746 C2747 1.394 . S
C2746 H2754 0.930 . S
C2747 C2746 1.394 . S
C2747 C2748 1.383 . S
C2747 H2755 0.929 . S
C2748 C2747 1.383 . S
C2748 C2749 1.377 . S
C2749 H2733 0.930 . S
C2749 C2748 1.377 . S
C2749 C2750 1.379 . S
C2750 H2734 0.931 . S
C2750 C2744 1.383 . S
C2750 C2749 1.379 . S
H2751 C2745 0.959 . S
H2752 C2745 0.961 . S
H2753 C2745 0.960 . S
H2754 C2746 0.930 . S
H2755 C2747 0.929 . S
H2756 C2764 0.929 . S
H2757 C2766 0.930 . S
H2758 C2768 0.930 . S
H2759 C2771 0.929 . S
H2760 C2774 0.930 . S
H2761 C2776 0.960 . S
H2762 C2776 0.960 . S
H2763 C2776 0.960 . S
C2764 H2756 0.929 . S
C2764 C2765 1.377 . S
C2764 C2766 1.384 . S
C2765 C2764 1.377 . S
C2765 C2771 1.390 . S
C2766 H2757 0.930 . S
C2766 C2764 1.384 . S
C2766 C2767 1.372 . S
C2767 C2766 1.372 . S
C2767 C2768 1.400 . S
C2767 C2772 1.490 . S
C2768 H2758 0.930 . S
C2768 C2767 1.400 . S
C2768 C2771 1.386 . S
H2769 C2785 0.930 . S
H2770 C2786 0.931 . S
C2771 H2759 0.929 . S
C2771 C2765 1.390 . S
C2771 C2768 1.386 . S
C2772 C2767 1.490 . S
C2772 C2774 1.395 . S
C2772 C2775 1.403 . S
H2773 C2779 0.930 . S
C2774 H2760 0.930 . S
C2774 C2772 1.395 . S
C2774 C2777 1.403 . S
C2775 C2772 1.403 . S
C2775 C2776 1.524 . S
C2775 C2779 1.400 . S
C2776 H2761 0.960 . S
C2776 H2762 0.960 . S
C2776 H2763 0.960 . S
C2776 C2775 1.524 . S
C2777 C2774 1.403 . S
C2777 C2778 1.392 . S
C2777 C2781 1.495 . S
C2778 C2777 1.392 . S
C2778 C2779 1.385 . S
C2778 C2780 1.478 . S
C2779 H2773 0.930 . S
C2779 C2775 1.400 . S
C2779 C2778 1.385 . S
C2780 C2778 1.478 . S
C2780 C2782 1.381 . S
C2780 C2786 1.383 . S
C2781 C2777 1.495 . S
C2781 H2787 0.959 . S
C2781 H2788 0.961 . S
C2781 H2789 0.960 . S
C2782 C2780 1.381 . S
C2782 C2783 1.394 . S
C2782 H2790 0.930 . S
C2783 C2782 1.394 . S
C2783 C2784 1.383 . S
C2783 H2791 0.929 . S
C2784 C2783 1.383 . S
C2784 C2785 1.377 . S
C2785 H2769 0.930 . S
C2785 C2784 1.377 . S
C2785 C2786 1.379 . S
C2786 H2770 0.931 . S
C2786 C2780 1.383 . S
C2786 C2785 1.379 . S
H2787 C2781 0.959 . S
H2788 C2781 0.961 . S
H2789 C2781 0.960 . S
H2790 C2782 0.930 . S
H2791 C2783 0.929 . S
H2792 C2800 0.929 . S
H2793 C2802 0.930 . S
H2794 C2804 0.930 . S
H2795 C2807 0.929 . S
H2796 C2810 0.930 . S
H2797 C2812 0.960 . S
H2798 C2812 0.960 . S
H2799 C2812 0.960 . S
C2800 H2792 0.929 . S
C2800 C2801 1.377 . S
C2800 C2802 1.384 . S
C2801 C2800 1.377 . S
C2801 C2807 1.390 . S
C2802 H2793 0.930 . S
C2802 C2800 1.384 . S
C2802 C2803 1.372 . S
C2803 C2802 1.372 . S
C2803 C2804 1.400 . S
C2803 C2808 1.490 . S
C2804 H2794 0.930 . S
C2804 C2803 1.400 . S
C2804 C2807 1.386 . S
H2805 C2821 0.930 . S
H2806 C2822 0.931 . S
C2807 H2795 0.929 . S
C2807 C2801 1.390 . S
C2807 C2804 1.386 . S
C2808 C2803 1.490 . S
C2808 C2810 1.395 . S
C2808 C2811 1.403 . S
H2809 C2815 0.930 . S
C2810 H2796 0.930 . S
C2810 C2808 1.395 . S
C2810 C2813 1.403 . S
C2811 C2808 1.403 . S
C2811 C2812 1.524 . S
C2811 C2815 1.400 . S
C2812 H2797 0.960 . S
C2812 H2798 0.960 . S
C2812 H2799 0.960 . S
C2812 C2811 1.524 . S
C2813 C2810 1.403 . S
C2813 C2814 1.392 . S
C2813 C2817 1.495 . S
C2814 C2813 1.392 . S
C2814 C2815 1.385 . S
C2814 C2816 1.478 . S
C2815 H2809 0.930 . S
C2815 C2811 1.400 . S
C2815 C2814 1.385 . S
C2816 C2814 1.478 . S
C2816 C2818 1.381 . S
C2816 C2822 1.383 . S
C2817 C2813 1.495 . S
C2817 H2823 0.959 . S
C2817 H2824 0.961 . S
C2817 H2825 0.960 . S
C2818 C2816 1.381 . S
C2818 C2819 1.394 . S
C2818 H2826 0.930 . S
C2819 C2818 1.394 . S
C2819 C2820 1.383 . S
C2819 H2827 0.929 . S
C2820 C2819 1.383 . S
C2820 C2821 1.377 . S
C2821 H2805 0.930 . S
C2821 C2820 1.377 . S
C2821 C2822 1.379 . S
C2822 H2806 0.931 . S
C2822 C2816 1.383 . S
C2822 C2821 1.379 . S
H2823 C2817 0.959 . S
H2824 C2817 0.961 . S
H2825 C2817 0.960 . S
H2826 C2818 0.930 . S
H2827 C2819 0.929 . S
H2828 C2836 0.929 . S
H2829 C2838 0.930 . S
H2830 C2840 0.930 . S
H2831 C2843 0.929 . S
H2832 C2846 0.930 . S
H2833 C2848 0.960 . S
H2834 C2848 0.960 . S
H2835 C2848 0.960 . S
C2836 H2828 0.929 . S
C2836 C2837 1.377 . S
C2836 C2838 1.384 . S
C2837 C2836 1.377 . S
C2837 C2843 1.390 . S
C2838 H2829 0.930 . S
C2838 C2836 1.384 . S
C2838 C2839 1.372 . S
C2839 C2838 1.372 . S
C2839 C2840 1.400 . S
C2839 C2844 1.490 . S
C2840 H2830 0.930 . S
C2840 C2839 1.400 . S
C2840 C2843 1.386 . S
H2841 C2857 0.930 . S
H2842 C2858 0.931 . S
C2843 H2831 0.929 . S
C2843 C2837 1.390 . S
C2843 C2840 1.386 . S
C2844 C2839 1.490 . S
C2844 C2846 1.395 . S
C2844 C2847 1.403 . S
H2845 C2851 0.930 . S
C2846 H2832 0.930 . S
C2846 C2844 1.395 . S
C2846 C2849 1.403 . S
C2847 C2844 1.403 . S
C2847 C2848 1.524 . S
C2847 C2851 1.400 . S
C2848 H2833 0.960 . S
C2848 H2834 0.960 . S
C2848 H2835 0.960 . S
C2848 C2847 1.524 . S
C2849 C2846 1.403 . S
C2849 C2850 1.392 . S
C2849 C2853 1.495 . S
C2850 C2849 1.392 . S
C2850 C2851 1.385 . S
C2850 C2852 1.478 . S
C2851 H2845 0.930 . S
C2851 C2847 1.400 . S
C2851 C2850 1.385 . S
C2852 C2850 1.478 . S
C2852 C2854 1.381 . S
C2852 C2858 1.383 . S
C2853 C2849 1.495 . S
C2853 H2859 0.959 . S
C2853 H2860 0.961 . S
C2853 H2861 0.960 . S
C2854 C2852 1.381 . S
C2854 C2855 1.394 . S
C2854 H2862 0.930 . S
C2855 C2854 1.394 . S
C2855 C2856 1.383 . S
C2855 H2863 0.929 . S
C2856 C2855 1.383 . S
C2856 C2857 1.377 . S
C2857 H2841 0.930 . S
C2857 C2856 1.377 . S
C2857 C2858 1.379 . S
C2858 H2842 0.931 . S
C2858 C2852 1.383 . S
C2858 C2857 1.379 . S
H2859 C2853 0.959 . S
H2860 C2853 0.961 . S
H2861 C2853 0.960 . S
H2862 C2854 0.930 . S
H2863 C2855 0.929 . S
H2864 C2872 0.929 . S
H2865 C2874 0.930 . S
H2866 C2876 0.930 . S
H2867 C2879 0.929 . S
H2868 C2882 0.930 . S
H2869 C2884 0.960 . S
H2870 C2884 0.960 . S
H2871 C2884 0.960 . S
C2872 H2864 0.929 . S
C2872 C2873 1.377 . S
C2872 C2874 1.384 . S
C2873 C2872 1.377 . S
C2873 C2879 1.390 . S
C2874 H2865 0.930 . S
C2874 C2872 1.384 . S
C2874 C2875 1.372 . S
C2875 C2874 1.372 . S
C2875 C2876 1.400 . S
C2875 C2880 1.490 . S
C2876 H2866 0.930 . S
C2876 C2875 1.400 . S
C2876 C2879 1.386 . S
H2877 C2893 0.930 . S
H2878 C2894 0.931 . S
C2879 H2867 0.929 . S
C2879 C2873 1.390 . S
C2879 C2876 1.386 . S
C2880 C2875 1.490 . S
C2880 C2882 1.395 . S
C2880 C2883 1.403 . S
H2881 C2887 0.930 . S
C2882 H2868 0.930 . S
C2882 C2880 1.395 . S
C2882 C2885 1.403 . S
C2883 C2880 1.403 . S
C2883 C2884 1.524 . S
C2883 C2887 1.400 . S
C2884 H2869 0.960 . S
C2884 H2870 0.960 . S
C2884 H2871 0.960 . S
C2884 C2883 1.524 . S
C2885 C2882 1.403 . S
C2885 C2886 1.392 . S
C2885 C2889 1.495 . S
C2886 C2885 1.392 . S
C2886 C2887 1.385 . S
C2886 C2888 1.478 . S
C2887 H2881 0.930 . S
C2887 C2883 1.400 . S
C2887 C2886 1.385 . S
C2888 C2886 1.478 . S
C2888 C2890 1.381 . S
C2888 C2894 1.383 . S
C2889 C2885 1.495 . S
C2889 H2895 0.959 . S
C2889 H2896 0.961 . S
C2889 H2897 0.960 . S
C2890 C2888 1.381 . S
C2890 C2891 1.394 . S
C2890 H2898 0.930 . S
C2891 C2890 1.394 . S
C2891 C2892 1.383 . S
C2891 H2899 0.929 . S
C2892 C2891 1.383 . S
C2892 C2893 1.377 . S
C2893 H2877 0.930 . S
C2893 C2892 1.377 . S
C2893 C2894 1.379 . S
C2894 H2878 0.931 . S
C2894 C2888 1.383 . S
C2894 C2893 1.379 . S
H2895 C2889 0.959 . S
H2896 C2889 0.961 . S
H2897 C2889 0.960 . S
H2898 C2890 0.930 . S
H2899 C2891 0.929 . S
H2900 C2908 0.929 . S
H2901 C2910 0.930 . S
H2902 C2912 0.930 . S
H2903 C2915 0.929 . S
H2904 C2918 0.930 . S
H2905 C2920 0.960 . S
H2906 C2920 0.960 . S
H2907 C2920 0.960 . S
C2908 H2900 0.929 . S
C2908 C2909 1.377 . S
C2908 C2910 1.384 . S
C2909 C2908 1.377 . S
C2909 C2915 1.390 . S
C2910 H2901 0.930 . S
C2910 C2908 1.384 . S
C2910 C2911 1.372 . S
C2911 C2910 1.372 . S
C2911 C2912 1.400 . S
C2911 C2916 1.490 . S
C2912 H2902 0.930 . S
C2912 C2911 1.400 . S
C2912 C2915 1.386 . S
H2913 C2929 0.930 . S
H2914 C2930 0.931 . S
C2915 H2903 0.929 . S
C2915 C2909 1.390 . S
C2915 C2912 1.386 . S
C2916 C2911 1.490 . S
C2916 C2918 1.395 . S
C2916 C2919 1.403 . S
H2917 C2923 0.930 . S
C2918 H2904 0.930 . S
C2918 C2916 1.395 . S
C2918 C2921 1.403 . S
C2919 C2916 1.403 . S
C2919 C2920 1.524 . S
C2919 C2923 1.400 . S
C2920 H2905 0.960 . S
C2920 H2906 0.960 . S
C2920 H2907 0.960 . S
C2920 C2919 1.524 . S
C2921 C2918 1.403 . S
C2921 C2922 1.392 . S
C2921 C2925 1.495 . S
C2922 C2921 1.392 . S
C2922 C2923 1.385 . S
C2922 C2924 1.478 . S
C2923 H2917 0.930 . S
C2923 C2919 1.400 . S
C2923 C2922 1.385 . S
C2924 C2922 1.478 . S
C2924 C2926 1.381 . S
C2924 C2930 1.383 . S
C2925 C2921 1.495 . S
C2925 H2931 0.959 . S
C2925 H2932 0.961 . S
C2925 H2933 0.960 . S
C2926 C2924 1.381 . S
C2926 C2927 1.394 . S
C2926 H2934 0.930 . S
C2927 C2926 1.394 . S
C2927 C2928 1.383 . S
C2927 H2935 0.929 . S
C2928 C2927 1.383 . S
C2928 C2929 1.377 . S
C2929 H2913 0.930 . S
C2929 C2928 1.377 . S
C2929 C2930 1.379 . S
C2930 H2914 0.931 . S
C2930 C2924 1.383 . S
C2930 C2929 1.379 . S
H2931 C2925 0.959 . S
H2932 C2925 0.961 . S
H2933 C2925 0.960 . S
H2934 C2926 0.930 . S
H2935 C2927 0.929 . S
H2936 C2944 0.929 . S
H2937 C2946 0.930 . S
H2938 C2948 0.930 . S
H2939 C2951 0.929 . S
H2940 C2954 0.930 . S
H2941 C2956 0.960 . S
H2942 C2956 0.960 . S
H2943 C2956 0.960 . S
C2944 H2936 0.929 . S
C2944 C2945 1.377 . S
C2944 C2946 1.384 . S
C2945 C2944 1.377 . S
C2945 C2951 1.390 . S
C2946 H2937 0.930 . S
C2946 C2944 1.384 . S
C2946 C2947 1.372 . S
C2947 C2946 1.372 . S
C2947 C2948 1.400 . S
C2947 C2952 1.490 . S
C2948 H2938 0.930 . S
C2948 C2947 1.400 . S
C2948 C2951 1.386 . S
H2949 C2965 0.930 . S
H2950 C2966 0.931 . S
C2951 H2939 0.929 . S
C2951 C2945 1.390 . S
C2951 C2948 1.386 . S
C2952 C2947 1.490 . S
C2952 C2954 1.395 . S
C2952 C2955 1.403 . S
H2953 C2959 0.930 . S
C2954 H2940 0.930 . S
C2954 C2952 1.395 . S
C2954 C2957 1.403 . S
C2955 C2952 1.403 . S
C2955 C2956 1.524 . S
C2955 C2959 1.400 . S
C2956 H2941 0.960 . S
C2956 H2942 0.960 . S
C2956 H2943 0.960 . S
C2956 C2955 1.524 . S
C2957 C2954 1.403 . S
C2957 C2958 1.392 . S
C2957 C2961 1.495 . S
C2958 C2957 1.392 . S
C2958 C2959 1.385 . S
C2958 C2960 1.478 . S
C2959 H2953 0.930 . S
C2959 C2955 1.400 . S
C2959 C2958 1.385 . S
C2960 C2958 1.478 . S
C2960 C2962 1.381 . S
C2960 C2966 1.383 . S
C2961 C2957 1.495 . S
C2961 H2967 0.959 . S
C2961 H2968 0.961 . S
C2961 H2969 0.960 . S
C2962 C2960 1.381 . S
C2962 C2963 1.394 . S
C2962 H2970 0.930 . S
C2963 C2962 1.394 . S
C2963 C2964 1.383 . S
C2963 H2971 0.929 . S
C2964 C2963 1.383 . S
C2964 C2965 1.377 . S
C2965 H2949 0.930 . S
C2965 C2964 1.377 . S
C2965 C2966 1.379 . S
C2966 H2950 0.931 . S
C2966 C2960 1.383 . S
C2966 C2965 1.379 . S
H2967 C2961 0.959 . S
H2968 C2961 0.961 . S
H2969 C2961 0.960 . S
H2970 C2962 0.930 . S
H2971 C2963 0.929 . S
H2972 C2980 0.929 . S
H2973 C2982 0.930 . S
H2974 C2984 0.930 . S
H2975 C2987 0.929 . S
H2976 C2990 0.930 . S
H2977 C2992 0.960 . S
H2978 C2992 0.960 . S
H2979 C2992 0.960 . S
C2980 H2972 0.929 . S
C2980 C2981 1.377 . S
C2980 C2982 1.384 . S
C2981 C2980 1.377 . S
C2981 C2987 1.390 . S
C2982 H2973 0.930 . S
C2982 C2980 1.384 . S
C2982 C2983 1.372 . S
C2983 C2982 1.372 . S
C2983 C2984 1.400 . S
C2983 C2988 1.490 . S
C2984 H2974 0.930 . S
C2984 C2983 1.400 . S
C2984 C2987 1.386 . S
H2985 C3001 0.930 . S
H2986 C3002 0.931 . S
C2987 H2975 0.929 . S
C2987 C2981 1.390 . S
C2987 C2984 1.386 . S
C2988 C2983 1.490 . S
C2988 C2990 1.395 . S
C2988 C2991 1.403 . S
H2989 C2995 0.930 . S
C2990 H2976 0.930 . S
C2990 C2988 1.395 . S
C2990 C2993 1.403 . S
C2991 C2988 1.403 . S
C2991 C2992 1.524 . S
C2991 C2995 1.400 . S
C2992 H2977 0.960 . S
C2992 H2978 0.960 . S
C2992 H2979 0.960 . S
C2992 C2991 1.524 . S
C2993 C2990 1.403 . S
C2993 C2994 1.392 . S
C2993 C2997 1.495 . S
C2994 C2993 1.392 . S
C2994 C2995 1.385 . S
C2994 C2996 1.478 . S
C2995 H2989 0.930 . S
C2995 C2991 1.400 . S
C2995 C2994 1.385 . S
C2996 C2994 1.478 . S
C2996 C2998 1.381 . S
C2996 C3002 1.383 . S
C2997 C2993 1.495 . S
C2997 H3003 0.959 . S
C2997 H3004 0.961 . S
C2997 H3005 0.960 . S
C2998 C2996 1.381 . S
C2998 C2999 1.394 . S
C2998 H3006 0.930 . S
C2999 C2998 1.394 . S
C2999 C3000 1.383 . S
C2999 H3007 0.929 . S
C3000 C2999 1.383 . S
C3000 C3001 1.377 . S
C3001 H2985 0.930 . S
C3001 C3000 1.377 . S
C3001 C3002 1.379 . S
C3002 H2986 0.931 . S
C3002 C2996 1.383 . S
C3002 C3001 1.379 . S
H3003 C2997 0.959 . S
H3004 C2997 0.961 . S
H3005 C2997 0.960 . S
H3006 C2998 0.930 . S
H3007 C2999 0.929 . S
H3008 C3016 0.929 . S
H3009 C3018 0.930 . S
H3010 C3020 0.930 . S
H3011 C3023 0.929 . S
H3012 C3026 0.930 . S
H3013 C3028 0.960 . S
H3014 C3028 0.960 . S
H3015 C3028 0.960 . S
C3016 H3008 0.929 . S
C3016 C3017 1.377 . S
C3016 C3018 1.384 . S
C3017 C3016 1.377 . S
C3017 C3023 1.390 . S
C3018 H3009 0.930 . S
C3018 C3016 1.384 . S
C3018 C3019 1.372 . S
C3019 C3018 1.372 . S
C3019 C3020 1.400 . S
C3019 C3024 1.490 . S
C3020 H3010 0.930 . S
C3020 C3019 1.400 . S
C3020 C3023 1.386 . S
H3021 C3037 0.930 . S
H3022 C3038 0.931 . S
C3023 H3011 0.929 . S
C3023 C3017 1.390 . S
C3023 C3020 1.386 . S
C3024 C3019 1.490 . S
C3024 C3026 1.395 . S
C3024 C3027 1.403 . S
H3025 C3031 0.930 . S
C3026 H3012 0.930 . S
C3026 C3024 1.395 . S
C3026 C3029 1.403 . S
C3027 C3024 1.403 . S
C3027 C3028 1.524 . S
C3027 C3031 1.400 . S
C3028 H3013 0.960 . S
C3028 H3014 0.960 . S
C3028 H3015 0.960 . S
C3028 C3027 1.524 . S
C3029 C3026 1.403 . S
C3029 C3030 1.392 . S
C3029 C3033 1.495 . S
C3030 C3029 1.392 . S
C3030 C3031 1.385 . S
C3030 C3032 1.478 . S
C3031 H3025 0.930 . S
C3031 C3027 1.400 . S
C3031 C3030 1.385 . S
C3032 C3030 1.478 . S
C3032 C3034 1.381 . S
C3032 C3038 1.383 . S
C3033 C3029 1.495 . S
C3033 H3039 0.959 . S
C3033 H3040 0.961 . S
C3033 H3041 0.960 . S
C3034 C3032 1.381 . S
C3034 C3035 1.394 . S
C3034 H3042 0.930 . S
C3035 C3034 1.394 . S
C3035 C3036 1.383 . S
C3035 H3043 0.929 . S
C3036 C3035 1.383 . S
C3036 C3037 1.377 . S
C3037 H3021 0.930 . S
C3037 C3036 1.377 . S
C3037 C3038 1.379 . S
C3038 H3022 0.931 . S
C3038 C3032 1.383 . S
C3038 C3037 1.379 . S
H3039 C3033 0.959 . S
H3040 C3033 0.961 . S
H3041 C3033 0.960 . S
H3042 C3034 0.930 . S
H3043 C3035 0.929 . S
H3044 C3052 0.929 . S
H3045 C3054 0.930 1_556 S
H3046 C3056 0.930 . S
H3047 C3059 0.929 . S
H3048 C3062 0.930 1_556 S
H3049 C3064 0.960 . S
H3050 C3064 0.960 . S
H3051 C3064 0.960 . S
C3052 H3044 0.929 . S
C3052 C3053 1.377 . S
C3052 C3054 1.384 . S
C3053 C3052 1.377 . S
C3053 C3059 1.390 . S
C3054 H3045 0.930 1_554 S
C3054 C3052 1.384 . S
C3054 C3055 1.372 . S
C3055 C3054 1.372 . S
C3055 C3056 1.400 . S
C3055 C3060 1.490 . S
C3056 H3046 0.930 . S
C3056 C3055 1.400 . S
C3056 C3059 1.386 . S
H3057 C3073 0.930 . S
H3058 C3074 0.931 . S
C3059 H3047 0.929 . S
C3059 C3053 1.390 . S
C3059 C3056 1.386 . S
C3060 C3055 1.490 . S
C3060 C3062 1.395 . S
C3060 C3063 1.403 . S
H3061 C3067 0.930 . S
C3062 H3048 0.930 1_554 S
C3062 C3060 1.395 . S
C3062 C3065 1.403 1_554 S
C3063 C3060 1.403 . S
C3063 C3064 1.524 . S
C3063 C3067 1.400 . S
C3064 H3049 0.960 . S
C3064 H3050 0.960 . S
C3064 H3051 0.960 . S
C3064 C3063 1.524 . S
C3065 C3062 1.403 1_556 S
C3065 C3066 1.392 1_556 S
C3065 C3069 1.495 . S
C3066 C3065 1.392 1_554 S
C3066 C3067 1.385 . S
C3066 C3068 1.478 . S
C3067 H3061 0.930 . S
C3067 C3063 1.400 . S
C3067 C3066 1.385 . S
C3068 C3066 1.478 . S
C3068 C3070 1.381 1_554 S
C3068 C3074 1.383 1_565 S
C3069 C3065 1.495 . S
C3069 H3075 0.959 . S
C3069 H3076 0.961 1_565 S
C3069 H3077 0.960 . S
C3070 C3068 1.381 1_556 S
C3070 C3071 1.394 1_565 S
C3070 H3078 0.930 . S
C3071 C3070 1.394 1_545 S
C3071 C3072 1.383 1_556 S
C3071 H3079 0.934 . S
C3072 C3071 1.383 1_554 S
C3072 C3073 1.377 . S
C3073 H3057 0.930 . S
C3073 C3072 1.377 . S
C3073 C3074 1.379 . S
C3074 H3058 0.931 . S
C3074 C3068 1.383 1_545 S
C3074 C3073 1.379 . S
H3075 C3069 0.959 . S
H3076 C3069 0.961 1_545 S
H3077 C3069 0.960 . S
H3078 C3070 0.930 . S
H3079 C3071 0.934 . S
H3080 C3088 0.929 . S
H3081 C3090 0.930 . S
H3082 C3092 0.930 . S
H3083 C3095 0.929 . S
H3084 C3098 0.930 . S
H3085 C3100 0.960 . S
H3086 C3100 0.960 . S
H3087 C3100 0.960 . S
C3088 H3080 0.929 . S
C3088 C3089 1.377 . S
C3088 C3090 1.384 . S
C3089 C3088 1.377 . S
C3089 C3095 1.390 . S
C3090 H3081 0.930 . S
C3090 C3088 1.384 . S
C3090 C3091 1.372 . S
C3091 C3090 1.372 . S
C3091 C3092 1.400 . S
C3091 C3096 1.490 . S
C3092 H3082 0.930 . S
C3092 C3091 1.400 . S
C3092 C3095 1.386 . S
H3093 C3109 0.930 . S
H3094 C3110 0.931 . S
C3095 H3083 0.929 . S
C3095 C3089 1.390 . S
C3095 C3092 1.386 . S
C3096 C3091 1.490 . S
C3096 C3098 1.395 . S
C3096 C3099 1.403 . S
H3097 C3103 0.930 . S
C3098 H3084 0.930 . S
C3098 C3096 1.395 . S
C3098 C3101 1.403 . S
C3099 C3096 1.403 . S
C3099 C3100 1.524 . S
C3099 C3103 1.400 . S
C3100 H3085 0.960 . S
C3100 H3086 0.960 . S
C3100 H3087 0.960 . S
C3100 C3099 1.524 . S
C3101 C3098 1.403 . S
C3101 C3102 1.392 . S
C3101 C3105 1.495 . S
C3102 C3101 1.392 . S
C3102 C3103 1.385 . S
C3102 C3104 1.478 . S
C3103 H3097 0.930 . S
C3103 C3099 1.400 . S
C3103 C3102 1.385 . S
C3104 C3102 1.478 . S
C3104 C3106 1.381 . S
C3104 C3110 1.383 . S
C3105 C3101 1.495 . S
C3105 H3111 0.959 . S
C3105 H3112 0.961 . S
C3105 H3113 0.960 . S
C3106 C3104 1.381 . S
C3106 C3107 1.394 . S
C3106 H3114 0.930 . S
C3107 C3106 1.394 . S
C3107 C3108 1.383 . S
C3107 H3115 0.929 . S
C3108 C3107 1.383 . S
C3108 C3109 1.377 . S
C3109 H3093 0.930 . S
C3109 C3108 1.377 . S
C3109 C3110 1.379 . S
C3110 H3094 0.931 . S
C3110 C3104 1.383 . S
C3110 C3109 1.379 . S
H3111 C3105 0.959 . S
H3112 C3105 0.961 . S
H3113 C3105 0.960 . S
H3114 C3106 0.930 . S
H3115 C3107 0.929 . S
H3116 C3124 0.929 1_556 S
H3117 C3126 0.930 . S
H3118 C3128 0.930 . S
H3119 C3131 0.929 . S
H3120 C3134 0.930 . S
H3121 C3136 0.960 . S
H3122 C3136 0.960 . S
H3123 C3136 0.960 . S
C3124 H3116 0.929 1_554 S
C3124 C3125 1.377 . S
C3124 C3126 1.384 . S
C3125 C3124 1.377 . S
C3125 C3131 1.390 . S
C3126 H3117 0.930 . S
C3126 C3124 1.384 . S
C3126 C3127 1.372 . S
C3127 C3126 1.372 . S
C3127 C3128 1.400 . S
C3127 C3132 1.490 . S
C3128 H3118 0.930 . S
C3128 C3127 1.400 . S
C3128 C3131 1.386 . S
H3129 C3145 0.930 . S
H3130 C3146 0.931 . S
C3131 H3119 0.929 . S
C3131 C3125 1.390 . S
C3131 C3128 1.386 . S
C3132 C3127 1.490 . S
C3132 C3134 1.395 . S
C3132 C3135 1.403 . S
H3133 C3139 0.930 . S
C3134 H3120 0.930 . S
C3134 C3132 1.395 . S
C3134 C3137 1.403 . S
C3135 C3132 1.403 . S
C3135 C3136 1.524 . S
C3135 C3139 1.400 . S
C3136 H3121 0.960 . S
C3136 H3122 0.960 . S
C3136 H3123 0.960 . S
C3136 C3135 1.524 . S
C3137 C3134 1.403 . S
C3137 C3138 1.392 . S
C3137 C3141 1.495 . S
C3138 C3137 1.392 . S
C3138 C3139 1.385 . S
C3138 C3140 1.478 . S
C3139 H3133 0.930 . S
C3139 C3135 1.400 . S
C3139 C3138 1.385 . S
C3140 C3138 1.478 . S
C3140 C3142 1.381 . S
C3140 C3146 1.383 . S
C3141 C3137 1.495 . S
C3141 H3147 0.959 . S
C3141 H3148 0.961 . S
C3141 H3149 0.960 . S
C3142 C3140 1.381 . S
C3142 C3143 1.394 . S
C3142 H3150 0.930 . S
C3143 C3142 1.394 . S
C3143 C3144 1.383 . S
C3143 H3151 0.929 . S
C3144 C3143 1.383 . S
C3144 C3145 1.377 . S
C3145 H3129 0.930 . S
C3145 C3144 1.377 . S
C3145 C3146 1.379 . S
C3146 H3130 0.931 . S
C3146 C3140 1.383 . S
C3146 C3145 1.379 . S
H3147 C3141 0.959 . S
H3148 C3141 0.961 . S
H3149 C3141 0.960 . S
H3150 C3142 0.930 . S
H3151 C3143 0.929 . S
H3152 C3160 0.929 . S
H3153 C3162 0.930 . S
H3154 C3164 0.930 . S
H3155 C3167 0.929 . S
H3156 C3170 0.930 . S
H3157 C3172 0.960 . S
H3158 C3172 0.960 . S
H3159 C3172 0.960 . S
C3160 H3152 0.929 . S
C3160 C3161 1.377 . S
C3160 C3162 1.384 . S
C3161 C3160 1.377 . S
C3161 C3167 1.390 . S
C3162 H3153 0.930 . S
C3162 C3160 1.384 . S
C3162 C3163 1.372 . S
C3163 C3162 1.372 . S
C3163 C3164 1.400 . S
C3163 C3168 1.490 . S
C3164 H3154 0.930 . S
C3164 C3163 1.400 . S
C3164 C3167 1.386 . S
H3165 C3181 0.930 . S
H3166 C3182 0.931 . S
C3167 H3155 0.929 . S
C3167 C3161 1.390 . S
C3167 C3164 1.386 . S
C3168 C3163 1.490 . S
C3168 C3170 1.395 . S
C3168 C3171 1.403 . S
H3169 C3175 0.930 . S
C3170 H3156 0.930 . S
C3170 C3168 1.395 . S
C3170 C3173 1.403 . S
C3171 C3168 1.403 . S
C3171 C3172 1.524 . S
C3171 C3175 1.400 . S
C3172 H3157 0.960 . S
C3172 H3158 0.960 . S
C3172 H3159 0.960 . S
C3172 C3171 1.524 . S
C3173 C3170 1.403 . S
C3173 C3174 1.392 . S
C3173 C3177 1.495 . S
C3174 C3173 1.392 . S
C3174 C3175 1.385 . S
C3174 C3176 1.478 . S
C3175 H3169 0.930 . S
C3175 C3171 1.400 . S
C3175 C3174 1.385 . S
C3176 C3174 1.478 . S
C3176 C3178 1.381 . S
C3176 C3182 1.383 . S
C3177 C3173 1.495 . S
C3177 H3183 0.959 . S
C3177 H3184 0.961 . S
C3177 H3185 0.960 . S
C3178 C3176 1.381 . S
C3178 C3179 1.394 . S
C3178 H3186 0.930 . S
C3179 C3178 1.394 . S
C3179 C3180 1.383 . S
C3179 H3187 0.929 . S
C3180 C3179 1.383 . S
C3180 C3181 1.377 . S
C3181 H3165 0.930 . S
C3181 C3180 1.377 . S
C3181 C3182 1.379 . S
C3182 H3166 0.931 . S
C3182 C3176 1.383 . S
C3182 C3181 1.379 . S
H3183 C3177 0.959 . S
H3184 C3177 0.961 . S
H3185 C3177 0.960 . S
H3186 C3178 0.930 . S
H3187 C3179 0.929 . S
H3188 C3196 0.929 . S
H3189 C3198 0.930 . S
H3190 C3200 0.930 . S
H3191 C3203 0.929 . S
H3192 C3206 0.930 . S
H3193 C3208 0.960 . S
H3194 C3208 0.960 . S
H3195 C3208 0.960 . S
C3196 H3188 0.929 . S
C3196 C3197 1.377 . S
C3196 C3198 1.384 . S
C3197 C3196 1.377 . S
C3197 C3203 1.390 . S
C3198 H3189 0.930 . S
C3198 C3196 1.384 . S
C3198 C3199 1.372 . S
C3199 C3198 1.372 . S
C3199 C3200 1.400 . S
C3199 C3204 1.490 . S
C3200 H3190 0.930 . S
C3200 C3199 1.400 . S
C3200 C3203 1.386 . S
H3201 C3217 0.930 . S
H3202 C3218 0.931 . S
C3203 H3191 0.929 . S
C3203 C3197 1.390 . S
C3203 C3200 1.386 . S
C3204 C3199 1.490 . S
C3204 C3206 1.395 . S
C3204 C3207 1.403 . S
H3205 C3211 0.930 . S
C3206 H3192 0.930 . S
C3206 C3204 1.395 . S
C3206 C3209 1.403 . S
C3207 C3204 1.403 . S
C3207 C3208 1.524 . S
C3207 C3211 1.400 . S
C3208 H3193 0.960 . S
C3208 H3194 0.960 . S
C3208 H3195 0.960 . S
C3208 C3207 1.524 . S
C3209 C3206 1.403 . S
C3209 C3210 1.392 . S
C3209 C3213 1.495 . S
C3210 C3209 1.392 . S
C3210 C3211 1.385 . S
C3210 C3212 1.478 . S
C3211 H3205 0.930 . S
C3211 C3207 1.400 . S
C3211 C3210 1.385 . S
C3212 C3210 1.478 . S
C3212 C3214 1.381 . S
C3212 C3218 1.383 . S
C3213 C3209 1.495 . S
C3213 H3219 0.959 . S
C3213 H3220 0.961 . S
C3213 H3221 0.960 . S
C3214 C3212 1.381 . S
C3214 C3215 1.394 . S
C3214 H3222 0.930 . S
C3215 C3214 1.394 . S
C3215 C3216 1.383 . S
C3215 H3223 0.929 . S
C3216 C3215 1.383 . S
C3216 C3217 1.377 . S
C3217 H3201 0.930 . S
C3217 C3216 1.377 . S
C3217 C3218 1.379 . S
C3218 H3202 0.931 . S
C3218 C3212 1.383 . S
C3218 C3217 1.379 . S
H3219 C3213 0.959 . S
H3220 C3213 0.961 . S
H3221 C3213 0.960 . S
H3222 C3214 0.930 . S
H3223 C3215 0.929 . S
H3224 C3232 0.929 . S
H3225 C3234 0.930 . S
H3226 C3236 0.930 . S
H3227 C3239 0.929 . S
H3228 C3242 0.930 . S
H3229 C3244 0.960 . S
H3230 C3244 0.960 . S
H3231 C3244 0.960 . S
C3232 H3224 0.929 . S
C3232 C3233 1.377 . S
C3232 C3234 1.384 . S
C3233 C3232 1.377 . S
C3233 C3239 1.390 . S
C3234 H3225 0.930 . S
C3234 C3232 1.384 . S
C3234 C3235 1.372 . S
C3235 C3234 1.372 . S
C3235 C3236 1.400 . S
C3235 C3240 1.490 . S
C3236 H3226 0.930 . S
C3236 C3235 1.400 . S
C3236 C3239 1.386 . S
H3237 C3253 0.930 . S
H3238 C3254 0.931 . S
C3239 H3227 0.929 . S
C3239 C3233 1.390 . S
C3239 C3236 1.386 . S
C3240 C3235 1.490 . S
C3240 C3242 1.395 . S
C3240 C3243 1.403 . S
H3241 C3247 0.930 . S
C3242 H3228 0.930 . S
C3242 C3240 1.395 . S
C3242 C3245 1.403 . S
C3243 C3240 1.403 . S
C3243 C3244 1.524 . S
C3243 C3247 1.400 . S
C3244 H3229 0.960 . S
C3244 H3230 0.960 . S
C3244 H3231 0.960 . S
C3244 C3243 1.524 . S
C3245 C3242 1.403 . S
C3245 C3246 1.392 . S
C3245 C3249 1.495 . S
C3246 C3245 1.392 . S
C3246 C3247 1.385 . S
C3246 C3248 1.478 . S
C3247 H3241 0.930 . S
C3247 C3243 1.400 . S
C3247 C3246 1.385 . S
C3248 C3246 1.478 . S
C3248 C3250 1.381 . S
C3248 C3254 1.383 . S
C3249 C3245 1.495 . S
C3249 H3255 0.959 . S
C3249 H3256 0.961 . S
C3249 H3257 0.960 . S
C3250 C3248 1.381 . S
C3250 C3251 1.394 . S
C3250 H3258 0.930 . S
C3251 C3250 1.394 . S
C3251 C3252 1.383 . S
C3251 H3259 0.929 . S
C3252 C3251 1.383 . S
C3252 C3253 1.377 . S
C3253 H3237 0.930 . S
C3253 C3252 1.377 . S
C3253 C3254 1.379 . S
C3254 H3238 0.931 . S
C3254 C3248 1.383 . S
C3254 C3253 1.379 . S
H3255 C3249 0.959 . S
H3256 C3249 0.961 . S
H3257 C3249 0.960 . S
H3258 C3250 0.930 . S
H3259 C3251 0.929 . S
H3260 C3268 0.929 . S
H3261 C3270 0.930 . S
H3262 C3272 0.930 . S
H3263 C3275 0.929 . S
H3264 C3278 0.930 . S
H3265 C3280 0.960 . S
H3266 C3280 0.960 . S
H3267 C3280 0.960 . S
C3268 H3260 0.929 . S
C3268 C3269 1.377 . S
C3268 C3270 1.384 . S
C3269 C3268 1.377 . S
C3269 C3275 1.390 . S
C3270 H3261 0.930 . S
C3270 C3268 1.384 . S
C3270 C3271 1.372 . S
C3271 C3270 1.372 . S
C3271 C3272 1.400 . S
C3271 C3276 1.490 . S
C3272 H3262 0.930 . S
C3272 C3271 1.400 . S
C3272 C3275 1.386 . S
H3273 C3289 0.930 . S
H3274 C3290 0.931 . S
C3275 H3263 0.929 . S
C3275 C3269 1.390 . S
C3275 C3272 1.386 . S
C3276 C3271 1.490 . S
C3276 C3278 1.395 . S
C3276 C3279 1.403 . S
H3277 C3283 0.930 . S
C3278 H3264 0.930 . S
C3278 C3276 1.395 . S
C3278 C3281 1.403 . S
C3279 C3276 1.403 . S
C3279 C3280 1.524 . S
C3279 C3283 1.400 . S
C3280 H3265 0.960 . S
C3280 H3266 0.960 . S
C3280 H3267 0.960 . S
C3280 C3279 1.524 . S
C3281 C3278 1.403 . S
C3281 C3282 1.392 . S
C3281 C3285 1.495 . S
C3282 C3281 1.392 . S
C3282 C3283 1.385 . S
C3282 C3284 1.478 . S
C3283 H3277 0.930 . S
C3283 C3279 1.400 . S
C3283 C3282 1.385 . S
C3284 C3282 1.478 . S
C3284 C3286 1.381 . S
C3284 C3290 1.383 . S
C3285 C3281 1.495 . S
C3285 H3291 0.959 . S
C3285 H3292 0.961 . S
C3285 H3293 0.960 . S
C3286 C3284 1.381 . S
C3286 C3287 1.394 . S
C3286 H3294 0.930 . S
C3287 C3286 1.394 . S
C3287 C3288 1.383 . S
C3287 H3295 0.929 . S
C3288 C3287 1.383 . S
C3288 C3289 1.377 . S
C3289 H3273 0.930 . S
C3289 C3288 1.377 . S
C3289 C3290 1.379 . S
C3290 H3274 0.931 . S
C3290 C3284 1.383 . S
C3290 C3289 1.379 . S
H3291 C3285 0.959 . S
H3292 C3285 0.961 . S
H3293 C3285 0.960 . S
H3294 C3286 0.930 . S
H3295 C3287 0.929 . S
H3296 C3304 0.929 . S
H3297 C3306 0.930 . S
H3298 C3308 0.930 . S
H3299 C3311 0.929 . S
H3300 C3314 0.930 . S
H3301 C3316 0.960 . S
H3302 C3316 0.960 . S
H3303 C3316 0.960 . S
C3304 H3296 0.929 . S
C3304 C3305 1.377 . S
C3304 C3306 1.384 . S
C3305 C3304 1.377 . S
C3305 C3311 1.390 . S
C3306 H3297 0.930 . S
C3306 C3304 1.384 . S
C3306 C3307 1.372 . S
C3307 C3306 1.372 . S
C3307 C3308 1.400 . S
C3307 C3312 1.490 . S
C3308 H3298 0.930 . S
C3308 C3307 1.400 . S
C3308 C3311 1.386 . S
H3309 C3325 0.930 . S
H3310 C3326 0.931 . S
C3311 H3299 0.929 . S
C3311 C3305 1.390 . S
C3311 C3308 1.386 . S
C3312 C3307 1.490 . S
C3312 C3314 1.395 1_455 S
C3312 C3315 1.403 . S
H3313 C3319 0.930 . S
C3314 H3300 0.930 . S
C3314 C3312 1.395 1_655 S
C3314 C3317 1.403 . S
C3315 C3312 1.403 . S
C3315 C3316 1.524 . S
C3315 C3319 1.400 . S
C3316 H3301 0.960 . S
C3316 H3302 0.960 . S
C3316 H3303 0.960 . S
C3316 C3315 1.524 . S
C3317 C3314 1.403 . S
C3317 C3318 1.392 1_655 S
C3317 C3321 1.495 . S
C3318 C3317 1.392 1_455 S
C3318 C3319 1.385 . S
C3318 C3320 1.478 . S
C3319 H3313 0.930 . S
C3319 C3315 1.400 . S
C3319 C3318 1.385 . S
C3320 C3318 1.478 . S
C3320 C3322 1.381 . S
C3320 C3326 1.383 . S
C3321 C3317 1.495 . S
C3321 H3327 0.959 . S
C3321 H3328 0.961 . S
C3321 H3329 0.960 . S
C3322 C3320 1.381 . S
C3322 C3323 1.394 . S
C3322 H3330 0.930 . S
C3323 C3322 1.394 . S
C3323 C3324 1.383 . S
C3323 H3331 0.929 . S
C3324 C3323 1.383 . S
C3324 C3325 1.377 . S
C3325 H3309 0.930 . S
C3325 C3324 1.377 . S
C3325 C3326 1.379 . S
C3326 H3310 0.931 . S
C3326 C3320 1.383 . S
C3326 C3325 1.379 . S
H3327 C3321 0.959 . S
H3328 C3321 0.961 . S
H3329 C3321 0.960 . S
H3330 C3322 0.930 . S
H3331 C3323 0.929 . S
H3332 C3340 0.929 . S
H3333 C3342 0.930 . S
H3334 C3344 0.930 . S
H3335 C3347 0.929 . S
H3336 C3350 0.930 . S
H3337 C3352 0.960 . S
H3338 C3352 0.960 . S
H3339 C3352 0.960 . S
C3340 H3332 0.929 . S
C3340 C3341 1.377 . S
C3340 C3342 1.384 . S
C3341 C3340 1.377 . S
C3341 C3347 1.390 . S
C3342 H3333 0.930 . S
C3342 C3340 1.384 . S
C3342 C3343 1.372 . S
C3343 C3342 1.372 . S
C3343 C3344 1.400 . S
C3343 C3348 1.490 . S
C3344 H3334 0.930 . S
C3344 C3343 1.400 . S
C3344 C3347 1.386 . S
H3345 C3361 0.930 . S
H3346 C3362 0.931 . S
C3347 H3335 0.929 . S
C3347 C3341 1.390 . S
C3347 C3344 1.386 . S
C3348 C3343 1.490 . S
C3348 C3350 1.395 . S
C3348 C3351 1.403 . S
H3349 C3355 0.930 . S
C3350 H3336 0.930 . S
C3350 C3348 1.395 . S
C3350 C3353 1.403 . S
C3351 C3348 1.403 . S
C3351 C3352 1.524 . S
C3351 C3355 1.400 . S
C3352 H3337 0.960 . S
C3352 H3338 0.960 . S
C3352 H3339 0.960 . S
C3352 C3351 1.524 . S
C3353 C3350 1.403 . S
C3353 C3354 1.392 . S
C3353 C3357 1.495 . S
C3354 C3353 1.392 . S
C3354 C3355 1.385 . S
C3354 C3356 1.478 . S
C3355 H3349 0.930 . S
C3355 C3351 1.400 . S
C3355 C3354 1.385 . S
C3356 C3354 1.478 . S
C3356 C3358 1.381 . S
C3356 C3362 1.383 . S
C3357 C3353 1.495 . S
C3357 H3363 0.959 . S
C3357 H3364 0.961 . S
C3357 H3365 0.960 . S
C3358 C3356 1.381 . S
C3358 C3359 1.394 . S
C3358 H3366 0.930 . S
C3359 C3358 1.394 . S
C3359 C3360 1.383 . S
C3359 H3367 0.929 . S
C3360 C3359 1.383 . S
C3360 C3361 1.377 . S
C3361 H3345 0.930 . S
C3361 C3360 1.377 . S
C3361 C3362 1.379 . S
C3362 H3346 0.931 . S
C3362 C3356 1.383 . S
C3362 C3361 1.379 . S
H3363 C3357 0.959 . S
H3364 C3357 0.961 . S
H3365 C3357 0.960 . S
H3366 C3358 0.930 . S
H3367 C3359 0.929 . S
H3368 C3376 0.929 . S
H3369 C3378 0.930 . S
H3370 C3380 0.930 . S
H3371 C3383 0.929 . S
H3372 C3386 0.930 . S
H3373 C3388 0.960 . S
H3374 C3388 0.960 . S
H3375 C3388 0.960 . S
C3376 H3368 0.929 . S
C3376 C3377 1.377 . S
C3376 C3378 1.384 . S
C3377 C3376 1.377 . S
C3377 C3383 1.390 . S
C3378 H3369 0.930 . S
C3378 C3376 1.384 . S
C3378 C3379 1.372 . S
C3379 C3378 1.372 . S
C3379 C3380 1.400 . S
C3379 C3384 1.490 . S
C3380 H3370 0.930 . S
C3380 C3379 1.400 . S
C3380 C3383 1.386 . S
H3381 C3397 0.930 1_554 S
H3382 C3398 0.931 . S
C3383 H3371 0.929 . S
C3383 C3377 1.390 . S
C3383 C3380 1.386 . S
C3384 C3379 1.490 . S
C3384 C3386 1.395 . S
C3384 C3387 1.403 . S
H3385 C3391 0.930 . S
C3386 H3372 0.930 . S
C3386 C3384 1.395 . S
C3386 C3389 1.403 . S
C3387 C3384 1.403 . S
C3387 C3388 1.524 . S
C3387 C3391 1.400 . S
C3388 H3373 0.960 . S
C3388 H3374 0.960 . S
C3388 H3375 0.960 . S
C3388 C3387 1.524 . S
C3389 C3386 1.403 . S
C3389 C3390 1.392 . S
C3389 C3393 1.495 . S
C3390 C3389 1.392 . S
C3390 C3391 1.385 . S
C3390 C3392 1.478 . S
C3391 H3385 0.930 . S
C3391 C3387 1.400 . S
C3391 C3390 1.385 . S
C3392 C3390 1.478 . S
C3392 C3394 1.381 . S
C3392 C3398 1.383 . S
C3393 C3389 1.495 . S
C3393 H3399 0.959 . S
C3393 H3400 0.961 . S
C3393 H3401 0.960 . S
C3394 C3392 1.381 . S
C3394 C3395 1.394 . S
C3394 H3402 0.930 . S
C3395 C3394 1.394 . S
C3395 C3396 1.383 . S
C3395 H3403 0.929 . S
C3396 C3395 1.383 . S
C3396 C3397 1.377 . S
C3397 H3381 0.930 1_556 S
C3397 C3396 1.377 . S
C3397 C3398 1.379 . S
C3398 H3382 0.931 . S
C3398 C3392 1.383 . S
C3398 C3397 1.379 . S
H3399 C3393 0.959 . S
H3400 C3393 0.961 . S
H3401 C3393 0.960 . S
H3402 C3394 0.930 . S
H3403 C3395 0.929 . S
H3404 C3412 0.929 . S
H3405 C3414 0.930 . S
H3406 C3416 0.930 . S
H3407 C3419 0.929 . S
H3408 C3422 0.930 . S
H3409 C3424 0.960 . S
H3410 C3424 0.960 . S
H3411 C3424 0.960 . S
C3412 H3404 0.929 . S
C3412 C3413 1.377 . S
C3412 C3414 1.384 . S
C3413 C3412 1.377 . S
C3413 C3419 1.390 . S
C3414 H3405 0.930 . S
C3414 C3412 1.384 . S
C3414 C3415 1.372 . S
C3415 C3414 1.372 . S
C3415 C3416 1.400 . S
C3415 C3420 1.490 . S
C3416 H3406 0.930 . S
C3416 C3415 1.400 . S
C3416 C3419 1.386 . S
H3417 C3433 0.930 . S
H3418 C3434 0.931 . S
C3419 H3407 0.929 . S
C3419 C3413 1.390 . S
C3419 C3416 1.386 . S
C3420 C3415 1.490 . S
C3420 C3422 1.395 . S
C3420 C3423 1.403 . S
H3421 C3427 0.930 . S
C3422 H3408 0.930 . S
C3422 C3420 1.395 . S
C3422 C3425 1.403 . S
C3423 C3420 1.403 . S
C3423 C3424 1.524 . S
C3423 C3427 1.400 . S
C3424 H3409 0.960 . S
C3424 H3410 0.960 . S
C3424 H3411 0.960 . S
C3424 C3423 1.524 . S
C3425 C3422 1.403 . S
C3425 C3426 1.392 . S
C3425 C3429 1.495 . S
C3426 C3425 1.392 . S
C3426 C3427 1.385 . S
C3426 C3428 1.478 . S
C3427 H3421 0.930 . S
C3427 C3423 1.400 . S
C3427 C3426 1.385 . S
C3428 C3426 1.478 . S
C3428 C3430 1.381 . S
C3428 C3434 1.383 . S
C3429 C3425 1.495 . S
C3429 H3435 0.959 . S
C3429 H3436 0.961 . S
C3429 H3437 0.960 . S
C3430 C3428 1.381 . S
C3430 C3431 1.394 . S
C3430 H3438 0.930 . S
C3431 C3430 1.394 . S
C3431 C3432 1.383 . S
C3431 H3439 0.929 . S
C3432 C3431 1.383 . S
C3432 C3433 1.377 . S
C3433 H3417 0.930 . S
C3433 C3432 1.377 . S
C3433 C3434 1.379 . S
C3434 H3418 0.931 . S
C3434 C3428 1.383 . S
C3434 C3433 1.379 . S
H3435 C3429 0.959 . S
H3436 C3429 0.961 . S
H3437 C3429 0.960 . S
H3438 C3430 0.930 . S
H3439 C3431 0.929 . S
H3440 C3448 0.929 . S
H3441 C3450 0.930 . S
H3442 C3452 0.930 . S
H3443 C3455 0.929 . S
H3444 C3458 0.930 . S
H3445 C3460 0.960 . S
H3446 C3460 0.960 . S
H3447 C3460 0.960 . S
C3448 H3440 0.929 . S
C3448 C3449 1.377 . S
C3448 C3450 1.384 . S
C3449 C3448 1.377 . S
C3449 C3455 1.390 . S
C3450 H3441 0.930 . S
C3450 C3448 1.384 . S
C3450 C3451 1.372 . S
C3451 C3450 1.372 . S
C3451 C3452 1.400 . S
C3451 C3456 1.490 . S
C3452 H3442 0.930 . S
C3452 C3451 1.400 . S
C3452 C3455 1.386 . S
H3453 C3469 0.930 1_655 S
H3454 C3470 0.931 1_655 S
C3455 H3443 0.929 . S
C3455 C3449 1.390 . S
C3455 C3452 1.386 . S
C3456 C3451 1.490 . S
C3456 C3458 1.395 . S
C3456 C3459 1.403 . S
H3457 C3463 0.930 . S
C3458 H3444 0.930 . S
C3458 C3456 1.395 . S
C3458 C3461 1.403 . S
C3459 C3456 1.403 . S
C3459 C3460 1.524 . S
C3459 C3463 1.400 . S
C3460 H3445 0.960 . S
C3460 H3446 0.960 . S
C3460 H3447 0.960 . S
C3460 C3459 1.524 . S
C3461 C3458 1.403 . S
C3461 C3462 1.392 . S
C3461 C3465 1.495 . S
C3462 C3461 1.392 . S
C3462 C3463 1.385 . S
C3462 C3464 1.478 . S
C3463 H3457 0.930 . S
C3463 C3459 1.400 . S
C3463 C3462 1.385 . S
C3464 C3462 1.478 . S
C3464 C3466 1.381 . S
C3464 C3470 1.383 . S
C3465 C3461 1.495 . S
C3465 H3471 0.959 1_455 S
C3465 H3472 0.961 1_455 S
C3465 H3473 0.960 . S
C3466 C3464 1.381 . S
C3466 C3467 1.394 . S
C3466 H3474 0.930 . S
C3467 C3466 1.394 . S
C3467 C3468 1.383 . S
C3467 H3475 0.929 . S
C3468 C3467 1.383 . S
C3468 C3469 1.377 . S
C3469 H3453 0.930 1_455 S
C3469 C3468 1.377 . S
C3469 C3470 1.379 . S
C3470 H3454 0.931 1_455 S
C3470 C3464 1.383 . S
C3470 C3469 1.379 . S
H3471 C3465 0.959 1_655 S
H3472 C3465 0.961 1_655 S
H3473 C3465 0.960 . S
H3474 C3466 0.930 . S
H3475 C3467 0.929 . S
H3476 C3484 0.929 . S
H3477 C3486 0.930 . S
H3478 C3488 0.930 . S
H3479 C3491 0.929 . S
H3480 C3494 0.930 . S
H3481 C3496 0.960 . S
H3482 C3496 0.960 . S
H3483 C3496 0.960 . S
C3484 H3476 0.929 . S
C3484 C3485 1.377 . S
C3484 C3486 1.384 . S
C3485 C3484 1.377 . S
C3485 C3491 1.390 . S
C3486 H3477 0.930 . S
C3486 C3484 1.384 . S
C3486 C3487 1.372 . S
C3487 C3486 1.372 . S
C3487 C3488 1.400 . S
C3487 C3492 1.490 . S
C3488 H3478 0.930 . S
C3488 C3487 1.400 . S
C3488 C3491 1.386 . S
H3489 C3505 0.930 . S
H3490 C3506 0.931 . S
C3491 H3479 0.929 . S
C3491 C3485 1.390 . S
C3491 C3488 1.386 . S
C3492 C3487 1.490 . S
C3492 C3494 1.395 . S
C3492 C3495 1.403 . S
H3493 C3499 0.930 . S
C3494 H3480 0.930 . S
C3494 C3492 1.395 . S
C3494 C3497 1.403 . S
C3495 C3492 1.403 . S
C3495 C3496 1.524 . S
C3495 C3499 1.400 . S
C3496 H3481 0.960 . S
C3496 H3482 0.960 . S
C3496 H3483 0.960 . S
C3496 C3495 1.524 . S
C3497 C3494 1.403 . S
C3497 C3498 1.392 . S
C3497 C3501 1.495 . S
C3498 C3497 1.392 . S
C3498 C3499 1.385 . S
C3498 C3500 1.478 . S
C3499 H3493 0.930 . S
C3499 C3495 1.400 . S
C3499 C3498 1.385 . S
C3500 C3498 1.478 . S
C3500 C3502 1.381 . S
C3500 C3506 1.383 . S
C3501 C3497 1.495 . S
C3501 H3507 0.959 . S
C3501 H3508 0.961 . S
C3501 H3509 0.960 . S
C3502 C3500 1.381 . S
C3502 C3503 1.394 . S
C3502 H3510 0.930 . S
C3503 C3502 1.394 . S
C3503 C3504 1.383 . S
C3503 H3511 0.929 . S
C3504 C3503 1.383 . S
C3504 C3505 1.377 . S
C3505 H3489 0.930 . S
C3505 C3504 1.377 . S
C3505 C3506 1.379 . S
C3506 H3490 0.931 . S
C3506 C3500 1.383 . S
C3506 C3505 1.379 . S
H3507 C3501 0.959 . S
H3508 C3501 0.961 . S
H3509 C3501 0.960 . S
H3510 C3502 0.930 . S
H3511 C3503 0.929 . S
H3512 C3520 0.929 . S
H3513 C3522 0.930 . S
H3514 C3524 0.930 . S
H3515 C3527 0.929 . S
H3516 C3530 0.930 . S
H3517 C3532 0.960 . S
H3518 C3532 0.960 . S
H3519 C3532 0.960 . S
C3520 H3512 0.929 . S
C3520 C3521 1.377 . S
C3520 C3522 1.384 . S
C3521 C3520 1.377 . S
C3521 C3527 1.390 . S
C3522 H3513 0.930 . S
C3522 C3520 1.384 . S
C3522 C3523 1.372 . S
C3523 C3522 1.372 . S
C3523 C3524 1.400 . S
C3523 C3528 1.490 . S
C3524 H3514 0.930 . S
C3524 C3523 1.400 . S
C3524 C3527 1.386 . S
H3525 C3541 0.930 . S
H3526 C3542 0.931 . S
C3527 H3515 0.929 . S
C3527 C3521 1.390 . S
C3527 C3524 1.386 . S
C3528 C3523 1.490 . S
C3528 C3530 1.395 . S
C3528 C3531 1.403 . S
H3529 C3535 0.930 . S
C3530 H3516 0.930 . S
C3530 C3528 1.395 . S
C3530 C3533 1.403 . S
C3531 C3528 1.403 . S
C3531 C3532 1.524 . S
C3531 C3535 1.400 . S
C3532 H3517 0.960 . S
C3532 H3518 0.960 . S
C3532 H3519 0.960 . S
C3532 C3531 1.524 . S
C3533 C3530 1.403 . S
C3533 C3534 1.392 . S
C3533 C3537 1.495 . S
C3534 C3533 1.392 . S
C3534 C3535 1.385 . S
C3534 C3536 1.478 . S
C3535 H3529 0.930 . S
C3535 C3531 1.400 . S
C3535 C3534 1.385 . S
C3536 C3534 1.478 . S
C3536 C3538 1.381 . S
C3536 C3542 1.383 . S
C3537 C3533 1.495 . S
C3537 H3543 0.959 . S
C3537 H3544 0.961 . S
C3537 H3545 0.960 . S
C3538 C3536 1.381 . S
C3538 C3539 1.394 . S
C3538 H3546 0.930 . S
C3539 C3538 1.394 . S
C3539 C3540 1.383 . S
C3539 H3547 0.929 . S
C3540 C3539 1.383 . S
C3540 C3541 1.377 . S
C3541 H3525 0.930 . S
C3541 C3540 1.377 . S
C3541 C3542 1.379 . S
C3542 H3526 0.931 . S
C3542 C3536 1.383 . S
C3542 C3541 1.379 . S
H3543 C3537 0.959 . S
H3544 C3537 0.961 . S
H3545 C3537 0.960 . S
H3546 C3538 0.930 . S
H3547 C3539 0.929 . S
H3548 C3556 0.929 . S
H3549 C3558 0.930 . S
H3550 C3560 0.930 . S
H3551 C3563 0.929 . S
H3552 C3566 0.930 . S
H3553 C3568 0.960 . S
H3554 C3568 0.960 . S
H3555 C3568 0.960 . S
C3556 H3548 0.929 . S
C3556 C3557 1.377 . S
C3556 C3558 1.384 . S
C3557 C3556 1.377 . S
C3557 C3563 1.390 . S
C3558 H3549 0.930 . S
C3558 C3556 1.384 . S
C3558 C3559 1.372 . S
C3559 C3558 1.372 . S
C3559 C3560 1.400 . S
C3559 C3564 1.490 . S
C3560 H3550 0.930 . S
C3560 C3559 1.400 . S
C3560 C3563 1.386 . S
H3561 C3577 0.930 . S
H3562 C3578 0.931 . S
C3563 H3551 0.929 . S
C3563 C3557 1.390 . S
C3563 C3560 1.386 . S
C3564 C3559 1.490 . S
C3564 C3566 1.395 . S
C3564 C3567 1.403 . S
H3565 C3571 0.930 . S
C3566 H3552 0.930 . S
C3566 C3564 1.395 . S
C3566 C3569 1.403 . S
C3567 C3564 1.403 . S
C3567 C3568 1.524 . S
C3567 C3571 1.400 . S
C3568 H3553 0.960 . S
C3568 H3554 0.960 . S
C3568 H3555 0.960 . S
C3568 C3567 1.524 . S
C3569 C3566 1.403 . S
C3569 C3570 1.392 . S
C3569 C3573 1.495 . S
C3570 C3569 1.392 . S
C3570 C3571 1.385 . S
C3570 C3572 1.478 . S
C3571 H3565 0.930 . S
C3571 C3567 1.400 . S
C3571 C3570 1.385 . S
C3572 C3570 1.478 . S
C3572 C3574 1.381 . S
C3572 C3578 1.383 . S
C3573 C3569 1.495 . S
C3573 H3579 0.959 . S
C3573 H3580 0.961 . S
C3573 H3581 0.960 . S
C3574 C3572 1.381 . S
C3574 C3575 1.394 . S
C3574 H3582 0.930 . S
C3575 C3574 1.394 . S
C3575 C3576 1.383 . S
C3575 H3583 0.929 . S
C3576 C3575 1.383 . S
C3576 C3577 1.377 . S
C3577 H3561 0.930 . S
C3577 C3576 1.377 . S
C3577 C3578 1.379 . S
C3578 H3562 0.931 . S
C3578 C3572 1.383 . S
C3578 C3577 1.379 . S
H3579 C3573 0.959 . S
H3580 C3573 0.961 . S
H3581 C3573 0.960 . S
H3582 C3574 0.930 . S
H3583 C3575 0.929 . S
H3584 C3592 0.929 . S
H3585 C3594 0.930 . S
H3586 C3596 0.930 . S
H3587 C3599 0.929 . S
H3588 C3602 0.930 . S
H3589 C3604 0.960 . S
H3590 C3604 0.960 . S
H3591 C3604 0.960 . S
C3592 H3584 0.929 . S
C3592 C3593 1.377 . S
C3592 C3594 1.384 . S
C3593 C3592 1.377 . S
C3593 C3599 1.390 . S
C3594 H3585 0.930 . S
C3594 C3592 1.384 . S
C3594 C3595 1.372 . S
C3595 C3594 1.372 . S
C3595 C3596 1.400 . S
C3595 C3600 1.490 . S
C3596 H3586 0.930 . S
C3596 C3595 1.400 . S
C3596 C3599 1.386 . S
H3597 C3613 0.930 . S
H3598 C3614 0.931 . S
C3599 H3587 0.929 . S
C3599 C3593 1.390 . S
C3599 C3596 1.386 . S
C3600 C3595 1.490 . S
C3600 C3602 1.395 . S
C3600 C3603 1.403 . S
H3601 C3607 0.930 . S
C3602 H3588 0.930 . S
C3602 C3600 1.395 . S
C3602 C3605 1.403 . S
C3603 C3600 1.403 . S
C3603 C3604 1.524 . S
C3603 C3607 1.400 . S
C3604 H3589 0.960 . S
C3604 H3590 0.960 . S
C3604 H3591 0.960 . S
C3604 C3603 1.524 . S
C3605 C3602 1.403 . S
C3605 C3606 1.392 . S
C3605 C3609 1.495 . S
C3606 C3605 1.392 . S
C3606 C3607 1.385 . S
C3606 C3608 1.478 . S
C3607 H3601 0.930 . S
C3607 C3603 1.400 . S
C3607 C3606 1.385 . S
C3608 C3606 1.478 . S
C3608 C3610 1.381 . S
C3608 C3614 1.383 . S
C3609 C3605 1.495 . S
C3609 H3615 0.959 . S
C3609 H3616 0.961 . S
C3609 H3617 0.960 . S
C3610 C3608 1.381 . S
C3610 C3611 1.394 . S
C3610 H3618 0.930 . S
C3611 C3610 1.394 . S
C3611 C3612 1.383 . S
C3611 H3619 0.929 . S
C3612 C3611 1.383 . S
C3612 C3613 1.377 . S
C3613 H3597 0.930 . S
C3613 C3612 1.377 . S
C3613 C3614 1.379 . S
C3614 H3598 0.931 . S
C3614 C3608 1.383 . S
C3614 C3613 1.379 . S
H3615 C3609 0.959 . S
H3616 C3609 0.961 . S
H3617 C3609 0.960 . S
H3618 C3610 0.930 . S
H3619 C3611 0.929 . S
H3620 C3628 0.929 . S
H3621 C3630 0.930 . S
H3622 C3632 0.930 . S
H3623 C3635 0.929 . S
H3624 C3638 0.930 . S
H3625 C3640 0.960 . S
H3626 C3640 0.960 . S
H3627 C3640 0.960 . S
C3628 H3620 0.929 . S
C3628 C3629 1.377 . S
C3628 C3630 1.384 . S
C3629 C3628 1.377 . S
C3629 C3635 1.390 . S
C3630 H3621 0.930 . S
C3630 C3628 1.384 . S
C3630 C3631 1.372 . S
C3631 C3630 1.372 . S
C3631 C3632 1.400 . S
C3631 C3636 1.490 . S
C3632 H3622 0.930 . S
C3632 C3631 1.400 . S
C3632 C3635 1.386 . S
H3633 C3649 0.930 . S
H3634 C3650 0.931 . S
C3635 H3623 0.929 . S
C3635 C3629 1.390 . S
C3635 C3632 1.386 . S
C3636 C3631 1.490 . S
C3636 C3638 1.395 . S
C3636 C3639 1.403 . S
H3637 C3643 0.930 . S
C3638 H3624 0.930 . S
C3638 C3636 1.395 . S
C3638 C3641 1.403 . S
C3639 C3636 1.403 . S
C3639 C3640 1.524 . S
C3639 C3643 1.400 . S
C3640 H3625 0.960 . S
C3640 H3626 0.960 . S
C3640 H3627 0.960 . S
C3640 C3639 1.524 . S
C3641 C3638 1.403 . S
C3641 C3642 1.392 . S
C3641 C3645 1.495 . S
C3642 C3641 1.392 . S
C3642 C3643 1.385 . S
C3642 C3644 1.478 . S
C3643 H3637 0.930 . S
C3643 C3639 1.400 . S
C3643 C3642 1.385 . S
C3644 C3642 1.478 . S
C3644 C3646 1.381 . S
C3644 C3650 1.383 . S
C3645 C3641 1.495 . S
C3645 H3651 0.959 . S
C3645 H3652 0.961 . S
C3645 H3653 0.960 . S
C3646 C3644 1.381 . S
C3646 C3647 1.394 . S
C3646 H3654 0.930 . S
C3647 C3646 1.394 . S
C3647 C3648 1.383 . S
C3647 H3655 0.929 . S
C3648 C3647 1.383 . S
C3648 C3649 1.377 . S
C3649 H3633 0.930 . S
C3649 C3648 1.377 . S
C3649 C3650 1.379 . S
C3650 H3634 0.931 . S
C3650 C3644 1.383 . S
C3650 C3649 1.379 . S
H3651 C3645 0.959 . S
H3652 C3645 0.961 . S
H3653 C3645 0.960 . S
H3654 C3646 0.930 . S
H3655 C3647 0.929 . S
H3656 C3664 0.929 . S
H3657 C3666 0.930 . S
H3658 C3668 0.930 . S
H3659 C3671 0.929 . S
H3660 C3674 0.930 . S
H3661 C3676 0.960 . S
H3662 C3676 0.960 . S
H3663 C3676 0.960 . S
C3664 H3656 0.929 . S
C3664 C3665 1.377 . S
C3664 C3666 1.384 . S
C3665 C3664 1.377 . S
C3665 C3671 1.390 . S
C3666 H3657 0.930 . S
C3666 C3664 1.384 . S
C3666 C3667 1.372 . S
C3667 C3666 1.372 . S
C3667 C3668 1.400 . S
C3667 C3672 1.490 . S
C3668 H3658 0.930 . S
C3668 C3667 1.400 . S
C3668 C3671 1.386 . S
H3669 C3685 0.930 . S
H3670 C3686 0.931 . S
C3671 H3659 0.929 . S
C3671 C3665 1.390 . S
C3671 C3668 1.386 . S
C3672 C3667 1.490 . S
C3672 C3674 1.395 . S
C3672 C3675 1.403 . S
H3673 C3679 0.930 . S
C3674 H3660 0.930 . S
C3674 C3672 1.395 . S
C3674 C3677 1.403 . S
C3675 C3672 1.403 . S
C3675 C3676 1.524 . S
C3675 C3679 1.400 . S
C3676 H3661 0.960 . S
C3676 H3662 0.960 . S
C3676 H3663 0.960 . S
C3676 C3675 1.524 . S
C3677 C3674 1.403 . S
C3677 C3678 1.392 . S
C3677 C3681 1.495 . S
C3678 C3677 1.392 . S
C3678 C3679 1.385 . S
C3678 C3680 1.478 . S
C3679 H3673 0.930 . S
C3679 C3675 1.400 . S
C3679 C3678 1.385 . S
C3680 C3678 1.478 . S
C3680 C3682 1.381 . S
C3680 C3686 1.383 . S
C3681 C3677 1.495 . S
C3681 H3687 0.959 . S
C3681 H3688 0.961 . S
C3681 H3689 0.960 . S
C3682 C3680 1.381 . S
C3682 C3683 1.394 . S
C3682 H3690 0.930 . S
C3683 C3682 1.394 . S
C3683 C3684 1.383 . S
C3683 H3691 0.929 . S
C3684 C3683 1.383 . S
C3684 C3685 1.377 . S
C3685 H3669 0.930 . S
C3685 C3684 1.377 . S
C3685 C3686 1.379 . S
C3686 H3670 0.931 . S
C3686 C3680 1.383 . S
C3686 C3685 1.379 . S
H3687 C3681 0.959 . S
H3688 C3681 0.961 . S
H3689 C3681 0.960 . S
H3690 C3682 0.930 . S
H3691 C3683 0.929 . S
H3692 C3700 0.929 . S
H3693 C3702 0.930 . S
H3694 C3704 0.930 . S
H3695 C3707 0.929 . S
H3696 C3710 0.930 . S
H3697 C3712 0.960 . S
H3698 C3712 0.960 . S
H3699 C3712 0.960 . S
C3700 H3692 0.929 . S
C3700 C3701 1.377 . S
C3700 C3702 1.384 . S
C3701 C3700 1.377 . S
C3701 C3707 1.390 . S
C3702 H3693 0.930 . S
C3702 C3700 1.384 . S
C3702 C3703 1.372 . S
C3703 C3702 1.372 . S
C3703 C3704 1.400 . S
C3703 C3708 1.490 . S
C3704 H3694 0.930 . S
C3704 C3703 1.400 . S
C3704 C3707 1.386 . S
H3705 C3721 0.930 . S
H3706 C3722 0.931 . S
C3707 H3695 0.929 . S
C3707 C3701 1.390 . S
C3707 C3704 1.386 . S
C3708 C3703 1.490 . S
C3708 C3710 1.395 . S
C3708 C3711 1.403 . S
H3709 C3715 0.930 . S
C3710 H3696 0.930 . S
C3710 C3708 1.395 . S
C3710 C3713 1.403 . S
C3711 C3708 1.403 . S
C3711 C3712 1.524 . S
C3711 C3715 1.400 . S
C3712 H3697 0.960 . S
C3712 H3698 0.960 . S
C3712 H3699 0.960 . S
C3712 C3711 1.524 . S
C3713 C3710 1.403 . S
C3713 C3714 1.392 . S
C3713 C3717 1.495 . S
C3714 C3713 1.392 . S
C3714 C3715 1.385 . S
C3714 C3716 1.478 . S
C3715 H3709 0.930 . S
C3715 C3711 1.400 . S
C3715 C3714 1.385 . S
C3716 C3714 1.478 . S
C3716 C3718 1.381 . S
C3716 C3722 1.383 . S
C3717 C3713 1.495 . S
C3717 H3723 0.959 . S
C3717 H3724 0.961 . S
C3717 H3725 0.960 . S
C3718 C3716 1.381 . S
C3718 C3719 1.394 . S
C3718 H3726 0.930 . S
C3719 C3718 1.394 . S
C3719 C3720 1.383 . S
C3719 H3727 0.929 . S
C3720 C3719 1.383 . S
C3720 C3721 1.377 . S
C3721 H3705 0.930 . S
C3721 C3720 1.377 . S
C3721 C3722 1.379 . S
C3722 H3706 0.931 . S
C3722 C3716 1.383 . S
C3722 C3721 1.379 . S
H3723 C3717 0.959 . S
H3724 C3717 0.961 . S
H3725 C3717 0.960 . S
H3726 C3718 0.930 . S
H3727 C3719 0.929 . S
H3728 C3736 0.929 . S
H3729 C3738 0.930 . S
H3730 C3740 0.930 . S
H3731 C3743 0.929 . S
H3732 C3746 0.930 . S
H3733 C3748 0.960 . S
H3734 C3748 0.960 . S
H3735 C3748 0.960 . S
C3736 H3728 0.929 . S
C3736 C3737 1.377 . S
C3736 C3738 1.384 . S
C3737 C3736 1.377 . S
C3737 C3743 1.390 . S
C3738 H3729 0.930 . S
C3738 C3736 1.384 . S
C3738 C3739 1.372 . S
C3739 C3738 1.372 . S
C3739 C3740 1.400 . S
C3739 C3744 1.490 . S
C3740 H3730 0.930 . S
C3740 C3739 1.400 . S
C3740 C3743 1.386 . S
H3741 C3757 0.930 1_455 S
H3742 C3758 0.931 . S
C3743 H3731 0.929 . S
C3743 C3737 1.390 . S
C3743 C3740 1.386 . S
C3744 C3739 1.490 . S
C3744 C3746 1.395 . S
C3744 C3747 1.403 . S
H3745 C3751 0.930 . S
C3746 H3732 0.930 . S
C3746 C3744 1.395 . S
C3746 C3749 1.403 . S
C3747 C3744 1.403 . S
C3747 C3748 1.524 . S
C3747 C3751 1.400 . S
C3748 H3733 0.960 . S
C3748 H3734 0.960 . S
C3748 H3735 0.960 . S
C3748 C3747 1.524 . S
C3749 C3746 1.403 . S
C3749 C3750 1.392 . S
C3749 C3753 1.495 . S
C3750 C3749 1.392 . S
C3750 C3751 1.385 . S
C3750 C3752 1.478 . S
C3751 H3745 0.930 . S
C3751 C3747 1.400 . S
C3751 C3750 1.385 . S
C3752 C3750 1.478 . S
C3752 C3754 1.381 . S
C3752 C3758 1.383 . S
C3753 C3749 1.495 . S
C3753 H3759 0.959 . S
C3753 H3760 0.961 . S
C3753 H3761 0.960 . S
C3754 C3752 1.381 . S
C3754 C3755 1.394 . S
C3754 H3762 0.930 . S
C3755 C3754 1.394 . S
C3755 C3756 1.383 . S
C3755 H3763 0.929 . S
C3756 C3755 1.383 . S
C3756 C3757 1.377 . S
C3757 H3741 0.930 1_655 S
C3757 C3756 1.377 . S
C3757 C3758 1.379 . S
C3758 H3742 0.931 . S
C3758 C3752 1.383 . S
C3758 C3757 1.379 . S
H3759 C3753 0.959 . S
H3760 C3753 0.961 . S
H3761 C3753 0.960 . S
H3762 C3754 0.930 . S
H3763 C3755 0.929 . S
H3764 C3772 0.929 . S
H3765 C3774 0.930 . S
H3766 C3776 0.930 . S
H3767 C3779 0.929 . S
H3768 C3782 0.930 . S
H3769 C3784 0.960 . S
H3770 C3784 0.960 . S
H3771 C3784 0.960 . S
C3772 H3764 0.929 . S
C3772 C3773 1.377 . S
C3772 C3774 1.384 . S
C3773 C3772 1.377 . S
C3773 C3779 1.390 . S
C3774 H3765 0.930 . S
C3774 C3772 1.384 . S
C3774 C3775 1.372 . S
C3775 C3774 1.372 . S
C3775 C3776 1.400 . S
C3775 C3780 1.490 . S
C3776 H3766 0.930 . S
C3776 C3775 1.400 . S
C3776 C3779 1.386 . S
H3777 C3793 0.930 . S
H3778 C3794 0.931 . S
C3779 H3767 0.929 . S
C3779 C3773 1.390 . S
C3779 C3776 1.386 . S
C3780 C3775 1.490 . S
C3780 C3782 1.395 . S
C3780 C3783 1.403 . S
H3781 C3787 0.930 . S
C3782 H3768 0.930 . S
C3782 C3780 1.395 . S
C3782 C3785 1.403 . S
C3783 C3780 1.403 . S
C3783 C3784 1.524 . S
C3783 C3787 1.400 . S
C3784 H3769 0.960 . S
C3784 H3770 0.960 . S
C3784 H3771 0.960 . S
C3784 C3783 1.524 . S
C3785 C3782 1.403 . S
C3785 C3786 1.392 . S
C3785 C3789 1.495 . S
C3786 C3785 1.392 . S
C3786 C3787 1.385 . S
C3786 C3788 1.478 . S
C3787 H3781 0.930 . S
C3787 C3783 1.400 . S
C3787 C3786 1.385 . S
C3788 C3786 1.478 . S
C3788 C3790 1.381 . S
C3788 C3794 1.383 . S
C3789 C3785 1.495 . S
C3789 H3795 0.959 . S
C3789 H3796 0.961 . S
C3789 H3797 0.960 . S
C3790 C3788 1.381 . S
C3790 C3791 1.394 . S
C3790 H3798 0.930 . S
C3791 C3790 1.394 . S
C3791 C3792 1.383 . S
C3791 H3799 0.929 . S
C3792 C3791 1.383 . S
C3792 C3793 1.377 . S
C3793 H3777 0.930 . S
C3793 C3792 1.377 . S
C3793 C3794 1.379 . S
C3794 H3778 0.931 . S
C3794 C3788 1.383 . S
C3794 C3793 1.379 . S
H3795 C3789 0.959 . S
H3796 C3789 0.961 . S
H3797 C3789 0.960 . S
H3798 C3790 0.930 . S
H3799 C3791 0.929 . S
H3800 C3808 0.929 . S
H3801 C3810 0.930 . S
H3802 C3812 0.930 . S
H3803 C3815 0.929 . S
H3804 C3818 0.930 . S
H3805 C3820 0.960 . S
H3806 C3820 0.960 . S
H3807 C3820 0.960 . S
C3808 H3800 0.929 . S
C3808 C3809 1.377 . S
C3808 C3810 1.384 . S
C3809 C3808 1.377 . S
C3809 C3815 1.390 . S
C3810 H3801 0.930 . S
C3810 C3808 1.384 . S
C3810 C3811 1.372 . S
C3811 C3810 1.372 . S
C3811 C3812 1.400 . S
C3811 C3816 1.490 . S
C3812 H3802 0.930 . S
C3812 C3811 1.400 . S
C3812 C3815 1.386 . S
H3813 C3829 0.930 . S
H3814 C3830 0.931 . S
C3815 H3803 0.929 . S
C3815 C3809 1.390 . S
C3815 C3812 1.386 . S
C3816 C3811 1.490 . S
C3816 C3818 1.395 . S
C3816 C3819 1.403 . S
H3817 C3823 0.930 . S
C3818 H3804 0.930 . S
C3818 C3816 1.395 . S
C3818 C3821 1.403 . S
C3819 C3816 1.403 . S
C3819 C3820 1.524 . S
C3819 C3823 1.400 . S
C3820 H3805 0.960 . S
C3820 H3806 0.960 . S
C3820 H3807 0.960 . S
C3820 C3819 1.524 . S
C3821 C3818 1.403 . S
C3821 C3822 1.392 . S
C3821 C3825 1.495 . S
C3822 C3821 1.392 . S
C3822 C3823 1.385 . S
C3822 C3824 1.478 . S
C3823 H3817 0.930 . S
C3823 C3819 1.400 . S
C3823 C3822 1.385 . S
C3824 C3822 1.478 . S
C3824 C3826 1.381 . S
C3824 C3830 1.383 . S
C3825 C3821 1.495 . S
C3825 H3831 0.959 . S
C3825 H3832 0.961 . S
C3825 H3833 0.960 . S
C3826 C3824 1.381 . S
C3826 C3827 1.394 . S
C3826 H3834 0.930 . S
C3827 C3826 1.394 . S
C3827 C3828 1.383 . S
C3827 H3835 0.929 . S
C3828 C3827 1.383 . S
C3828 C3829 1.377 . S
C3829 H3813 0.930 . S
C3829 C3828 1.377 . S
C3829 C3830 1.379 . S
C3830 H3814 0.931 . S
C3830 C3824 1.383 . S
C3830 C3829 1.379 . S
H3831 C3825 0.959 . S
H3832 C3825 0.961 . S
H3833 C3825 0.960 . S
H3834 C3826 0.930 . S
H3835 C3827 0.929 . S
H3836 C3844 0.929 . S
H3837 C3846 0.930 . S
H3838 C3848 0.930 . S
H3839 C3851 0.929 . S
H3840 C3854 0.930 . S
H3841 C3856 0.960 . S
H3842 C3856 0.960 . S
H3843 C3856 0.960 . S
C3844 H3836 0.929 . S
C3844 C3845 1.377 . S
C3844 C3846 1.384 . S
C3845 C3844 1.377 . S
C3845 C3851 1.390 . S
C3846 H3837 0.930 . S
C3846 C3844 1.384 . S
C3846 C3847 1.372 . S
C3847 C3846 1.372 . S
C3847 C3848 1.400 . S
C3847 C3852 1.490 . S
C3848 H3838 0.930 . S
C3848 C3847 1.400 . S
C3848 C3851 1.386 . S
H3849 C3865 0.930 . S
H3850 C3866 0.931 . S
C3851 H3839 0.929 . S
C3851 C3845 1.390 . S
C3851 C3848 1.386 . S
C3852 C3847 1.490 . S
C3852 C3854 1.395 . S
C3852 C3855 1.403 . S
H3853 C3859 0.930 . S
C3854 H3840 0.930 . S
C3854 C3852 1.395 . S
C3854 C3857 1.403 . S
C3855 C3852 1.403 . S
C3855 C3856 1.524 . S
C3855 C3859 1.400 . S
C3856 H3841 0.960 . S
C3856 H3842 0.960 . S
C3856 H3843 0.960 . S
C3856 C3855 1.524 . S
C3857 C3854 1.403 . S
C3857 C3858 1.392 . S
C3857 C3861 1.495 . S
C3858 C3857 1.392 . S
C3858 C3859 1.385 . S
C3858 C3860 1.478 . S
C3859 H3853 0.930 . S
C3859 C3855 1.400 . S
C3859 C3858 1.385 . S
C3860 C3858 1.478 . S
C3860 C3862 1.381 . S
C3860 C3866 1.383 . S
C3861 C3857 1.495 . S
C3861 H3867 0.959 . S
C3861 H3868 0.961 . S
C3861 H3869 0.960 . S
C3862 C3860 1.381 . S
C3862 C3863 1.394 . S
C3862 H3870 0.930 . S
C3863 C3862 1.394 . S
C3863 C3864 1.383 . S
C3863 H3871 0.929 1_565 S
C3864 C3863 1.383 . S
C3864 C3865 1.377 . S
C3865 H3849 0.930 . S
C3865 C3864 1.377 . S
C3865 C3866 1.379 . S
C3866 H3850 0.931 . S
C3866 C3860 1.383 . S
C3866 C3865 1.379 . S
H3867 C3861 0.959 . S
H3868 C3861 0.961 . S
H3869 C3861 0.960 . S
H3870 C3862 0.930 . S
H3871 C3863 0.929 1_545 S
H3872 C3880 0.929 . S
H3873 C3882 0.930 . S
H3874 C3884 0.930 . S
H3875 C3887 0.929 . S
H3876 C3890 0.930 . S
H3877 C3892 0.960 . S
H3878 C3892 0.960 . S
H3879 C3892 0.960 . S
C3880 H3872 0.929 . S
C3880 C3881 1.377 . S
C3880 C3882 1.384 . S
C3881 C3880 1.377 . S
C3881 C3887 1.390 . S
C3882 H3873 0.930 . S
C3882 C3880 1.384 . S
C3882 C3883 1.372 . S
C3883 C3882 1.372 . S
C3883 C3884 1.400 . S
C3883 C3888 1.490 . S
C3884 H3874 0.930 . S
C3884 C3883 1.400 . S
C3884 C3887 1.386 . S
H3885 C3901 0.930 . S
H3886 C3902 0.931 . S
C3887 H3875 0.929 . S
C3887 C3881 1.390 . S
C3887 C3884 1.386 . S
C3888 C3883 1.490 . S
C3888 C3890 1.395 . S
C3888 C3891 1.403 . S
H3889 C3895 0.930 . S
C3890 H3876 0.930 . S
C3890 C3888 1.395 . S
C3890 C3893 1.403 . S
C3891 C3888 1.403 . S
C3891 C3892 1.524 . S
C3891 C3895 1.400 . S
C3892 H3877 0.960 . S
C3892 H3878 0.960 . S
C3892 H3879 0.960 . S
C3892 C3891 1.524 . S
C3893 C3890 1.403 . S
C3893 C3894 1.392 . S
C3893 C3897 1.495 . S
C3894 C3893 1.392 . S
C3894 C3895 1.385 . S
C3894 C3896 1.478 . S
C3895 H3889 0.930 . S
C3895 C3891 1.400 . S
C3895 C3894 1.385 . S
C3896 C3894 1.478 . S
C3896 C3898 1.381 . S
C3896 C3902 1.383 . S
C3897 C3893 1.495 . S
C3897 H3903 0.959 . S
C3897 H3904 0.961 . S
C3897 H3905 0.960 . S
C3898 C3896 1.381 . S
C3898 C3899 1.394 . S
C3898 H3906 0.930 . S
C3899 C3898 1.394 . S
C3899 C3900 1.383 . S
C3899 H3907 0.929 . S
C3900 C3899 1.383 . S
C3900 C3901 1.377 . S
C3901 H3885 0.930 . S
C3901 C3900 1.377 . S
C3901 C3902 1.379 . S
C3902 H3886 0.931 . S
C3902 C3896 1.383 . S
C3902 C3901 1.379 . S
H3903 C3897 0.959 . S
H3904 C3897 0.961 . S
H3905 C3897 0.960 . S
H3906 C3898 0.930 . S
H3907 C3899 0.929 . S
H3908 C3916 0.929 . S
H3909 C3918 0.930 . S
H3910 C3920 0.930 . S
H3911 C3923 0.929 . S
H3912 C3926 0.930 . S
H3913 C3928 0.960 . S
H3914 C3928 0.960 . S
H3915 C3928 0.960 1_556 S
C3916 H3908 0.929 . S
C3916 C3917 1.336 1_554 S
C3916 C3918 1.384 . S
C3917 C3916 1.336 1_556 S
C3917 C3923 1.425 . S
C3918 H3909 0.930 . S
C3918 C3916 1.384 . S
C3918 C3919 1.372 . S
C3919 C3918 1.372 . S
C3919 C3920 1.400 1_554 S
C3919 C3924 1.490 . S
C3920 H3910 0.930 . S
C3920 C3919 1.400 1_556 S
C3920 C3923 1.386 . S
H3921 C3937 0.930 . S
H3922 C3938 0.931 . S
C3923 H3911 0.929 . S
C3923 C3917 1.425 . S
C3923 C3920 1.386 . S
C3924 C3919 1.490 . S
C3924 C3926 1.395 . S
C3924 C3927 1.403 . S
H3925 C3931 0.930 . S
C3926 H3912 0.930 . S
C3926 C3924 1.395 . S
C3926 C3929 1.403 . S
C3927 C3924 1.403 . S
C3927 C3928 1.524 . S
C3927 C3931 1.400 . S
C3928 H3913 0.960 . S
C3928 H3914 0.960 . S
C3928 H3915 0.960 1_554 S
C3928 C3927 1.524 . S
C3929 C3926 1.403 . S
C3929 C3930 1.392 . S
C3929 C3933 1.495 . S
C3930 C3929 1.392 . S
C3930 C3931 1.385 . S
C3930 C3932 1.478 . S
C3931 H3925 0.930 . S
C3931 C3927 1.400 . S
C3931 C3930 1.385 . S
C3932 C3930 1.478 . S
C3932 C3934 1.381 . S
C3932 C3938 1.383 1_554 S
C3933 C3929 1.495 . S
C3933 H3939 0.959 . S
C3933 H3940 0.961 1_554 S
C3933 H3941 0.960 . S
C3934 C3932 1.381 . S
C3934 C3935 1.394 . S
C3934 H3942 0.930 . S
C3935 C3934 1.394 . S
C3935 C3936 1.383 . S
C3935 H3943 0.929 . S
C3936 C3935 1.383 . S
C3936 C3937 1.377 1_554 S
C3937 H3921 0.930 . S
C3937 C3936 1.377 1_556 S
C3937 C3938 1.379 . S
C3938 H3922 0.931 . S
C3938 C3932 1.383 1_556 S
C3938 C3937 1.379 . S
H3939 C3933 0.959 . S
H3940 C3933 0.961 1_556 S
H3941 C3933 0.960 . S
H3942 C3934 0.930 . S
H3943 C3935 0.929 . S
H3944 C3952 0.929 . S
H3945 C3954 0.930 . S
H3946 C3956 0.930 . S
H3947 C3959 0.929 . S
H3948 C3962 0.930 . S
H3949 C3964 0.960 . S
H3950 C3964 0.960 . S
H3951 C3964 0.960 . S
C3952 H3944 0.929 . S
C3952 C3953 1.377 . S
C3952 C3954 1.384 . S
C3953 C3952 1.377 . S
C3953 C3959 1.390 . S
C3954 H3945 0.930 . S
C3954 C3952 1.384 . S
C3954 C3955 1.372 . S
C3955 C3954 1.372 . S
C3955 C3956 1.400 . S
C3955 C3960 1.490 . S
C3956 H3946 0.930 . S
C3956 C3955 1.400 . S
C3956 C3959 1.386 . S
H3957 C3973 0.930 . S
H3958 C3974 0.931 . S
C3959 H3947 0.929 . S
C3959 C3953 1.390 . S
C3959 C3956 1.386 . S
C3960 C3955 1.490 . S
C3960 C3962 1.395 . S
C3960 C3963 1.403 . S
H3961 C3967 0.930 . S
C3962 H3948 0.930 . S
C3962 C3960 1.395 . S
C3962 C3965 1.403 . S
C3963 C3960 1.403 . S
C3963 C3964 1.524 . S
C3963 C3967 1.400 . S
C3964 H3949 0.960 . S
C3964 H3950 0.960 . S
C3964 H3951 0.960 . S
C3964 C3963 1.524 . S
C3965 C3962 1.403 . S
C3965 C3966 1.392 . S
C3965 C3969 1.495 . S
C3966 C3965 1.392 . S
C3966 C3967 1.385 . S
C3966 C3968 1.478 . S
C3967 H3961 0.930 . S
C3967 C3963 1.400 . S
C3967 C3966 1.385 . S
C3968 C3966 1.478 . S
C3968 C3970 1.381 . S
C3968 C3974 1.383 . S
C3969 C3965 1.495 . S
C3969 H3975 0.959 . S
C3969 H3976 0.961 . S
C3969 H3977 0.960 . S
C3970 C3968 1.381 . S
C3970 C3971 1.394 . S
C3970 H3978 0.930 . S
C3971 C3970 1.394 . S
C3971 C3972 1.383 . S
C3971 H3979 0.929 . S
C3972 C3971 1.383 . S
C3972 C3973 1.377 . S
C3973 H3957 0.930 . S
C3973 C3972 1.377 . S
C3973 C3974 1.379 . S
C3974 H3958 0.931 . S
C3974 C3968 1.383 . S
C3974 C3973 1.379 . S
H3975 C3969 0.959 . S
H3976 C3969 0.961 . S
H3977 C3969 0.960 . S
H3978 C3970 0.930 . S
H3979 C3971 0.929 . S
H3980 C3988 0.929 . S
H3981 C3990 0.930 . S
H3982 C3992 0.930 . S
H3983 C3995 0.929 . S
H3984 C3998 0.930 . S
H3985 C4000 0.960 . S
H3986 C4000 0.960 . S
H3987 C4000 0.960 . S
C3988 H3980 0.929 . S
C3988 C3989 1.377 . S
C3988 C3990 1.384 . S
C3989 C3988 1.377 . S
C3989 C3995 1.390 . S
C3990 H3981 0.930 . S
C3990 C3988 1.384 . S
C3990 C3991 1.372 . S
C3991 C3990 1.372 . S
C3991 C3992 1.400 . S
C3991 C3996 1.490 . S
C3992 H3982 0.930 . S
C3992 C3991 1.400 . S
C3992 C3995 1.386 . S
H3993 C4009 0.930 . S
H3994 C4010 0.931 . S
C3995 H3983 0.929 . S
C3995 C3989 1.390 . S
C3995 C3992 1.386 . S
C3996 C3991 1.490 . S
C3996 C3998 1.395 . S
C3996 C3999 1.403 . S
H3997 C4003 0.930 1_556 S
C3998 H3984 0.930 . S
C3998 C3996 1.395 . S
C3998 C4001 1.403 . S
C3999 C3996 1.403 . S
C3999 C4000 1.524 1_554 S
C3999 C4003 1.400 . S
C4000 H3985 0.960 . S
C4000 H3986 0.960 . S
C4000 H3987 0.960 . S
C4000 C3999 1.524 1_556 S
C4001 C3998 1.403 . S
C4001 C4002 1.392 . S
C4001 C4005 1.495 . S
C4002 C4001 1.392 . S
C4002 C4003 1.385 . S
C4002 C4004 1.478 . S
C4003 H3997 0.930 1_554 S
C4003 C3999 1.400 . S
C4003 C4002 1.385 . S
C4004 C4002 1.478 . S
C4004 C4006 1.381 . S
C4004 C4010 1.383 . S
C4005 C4001 1.495 . S
C4005 H4011 0.959 . S
C4005 H4012 0.961 . S
C4005 H4013 0.960 . S
C4006 C4004 1.381 . S
C4006 C4007 1.394 . S
C4006 H4014 0.930 . S
C4007 C4006 1.394 . S
C4007 C4008 1.383 . S
C4007 H4015 0.929 . S
C4008 C4007 1.383 . S
C4008 C4009 1.377 . S
C4009 H3993 0.930 . S
C4009 C4008 1.377 . S
C4009 C4010 1.379 . S
C4010 H3994 0.931 . S
C4010 C4004 1.383 . S
C4010 C4009 1.379 . S
H4011 C4005 0.959 . S
H4012 C4005 0.961 . S
H4013 C4005 0.960 . S
H4014 C4006 0.930 . S
H4015 C4007 0.929 . S
H4016 C4024 0.929 . S
H4017 C4026 0.930 . S
H4018 C4028 0.930 . S
H4019 C4031 0.929 . S
H4020 C4034 0.930 . S
H4021 C4036 0.960 . S
H4022 C4036 0.960 . S
H4023 C4036 0.960 . S
C4024 H4016 0.929 . S
C4024 C4025 1.377 . S
C4024 C4026 1.384 . S
C4025 C4024 1.377 . S
C4025 C4031 1.390 . S
C4026 H4017 0.930 . S
C4026 C4024 1.384 . S
C4026 C4027 1.372 . S
C4027 C4026 1.372 . S
C4027 C4028 1.400 . S
C4027 C4032 1.490 . S
C4028 H4018 0.930 . S
C4028 C4027 1.400 . S
C4028 C4031 1.386 . S
H4029 C4045 0.930 . S
H4030 C4046 0.931 . S
C4031 H4019 0.929 . S
C4031 C4025 1.390 . S
C4031 C4028 1.386 . S
C4032 C4027 1.490 . S
C4032 C4034 1.395 . S
C4032 C4035 1.403 . S
H4033 C4039 0.930 . S
C4034 H4020 0.930 . S
C4034 C4032 1.395 . S
C4034 C4037 1.403 . S
C4035 C4032 1.403 . S
C4035 C4036 1.524 . S
C4035 C4039 1.400 . S
C4036 H4021 0.960 . S
C4036 H4022 0.960 . S
C4036 H4023 0.960 . S
C4036 C4035 1.524 . S
C4037 C4034 1.403 . S
C4037 C4038 1.392 . S
C4037 C4041 1.495 . S
C4038 C4037 1.392 . S
C4038 C4039 1.385 . S
C4038 C4040 1.478 . S
C4039 H4033 0.930 . S
C4039 C4035 1.400 . S
C4039 C4038 1.385 . S
C4040 C4038 1.478 . S
C4040 C4042 1.381 . S
C4040 C4046 1.383 . S
C4041 C4037 1.495 . S
C4041 H4047 0.959 . S
C4041 H4048 0.961 . S
C4041 H4049 0.960 . S
C4042 C4040 1.381 . S
C4042 C4043 1.394 . S
C4042 H4050 0.930 . S
C4043 C4042 1.394 . S
C4043 C4044 1.383 . S
C4043 H4051 0.929 . S
C4044 C4043 1.383 . S
C4044 C4045 1.377 . S
C4045 H4029 0.930 . S
C4045 C4044 1.377 . S
C4045 C4046 1.379 . S
C4046 H4030 0.931 . S
C4046 C4040 1.383 . S
C4046 C4045 1.379 . S
H4047 C4041 0.959 . S
H4048 C4041 0.961 . S
H4049 C4041 0.960 . S
H4050 C4042 0.930 . S
H4051 C4043 0.929 . S
H4052 C4060 0.929 . S
H4053 C4062 0.930 . S
H4054 C4064 0.930 . S
H4055 C4067 0.929 . S
H4056 C4070 0.930 . S
H4057 C4072 0.960 . S
H4058 C4072 0.960 . S
H4059 C4072 0.960 . S
C4060 H4052 0.929 . S
C4060 C4061 1.377 . S
C4060 C4062 1.384 . S
C4061 C4060 1.377 . S
C4061 C4067 1.390 . S
C4062 H4053 0.930 . S
C4062 C4060 1.384 . S
C4062 C4063 1.372 . S
C4063 C4062 1.372 . S
C4063 C4064 1.400 . S
C4063 C4068 1.490 . S
C4064 H4054 0.930 . S
C4064 C4063 1.400 . S
C4064 C4067 1.386 . S
H4065 C4081 0.930 . S
H4066 C4082 0.931 . S
C4067 H4055 0.929 . S
C4067 C4061 1.390 . S
C4067 C4064 1.386 . S
C4068 C4063 1.490 . S
C4068 C4070 1.395 . S
C4068 C4071 1.403 . S
H4069 C4075 0.930 . S
C4070 H4056 0.930 . S
C4070 C4068 1.395 . S
C4070 C4073 1.403 . S
C4071 C4068 1.403 . S
C4071 C4072 1.524 . S
C4071 C4075 1.400 . S
C4072 H4057 0.960 . S
C4072 H4058 0.960 . S
C4072 H4059 0.960 . S
C4072 C4071 1.524 . S
C4073 C4070 1.403 . S
C4073 C4074 1.392 . S
C4073 C4077 1.495 . S
C4074 C4073 1.392 . S
C4074 C4075 1.385 . S
C4074 C4076 1.478 . S
C4075 H4069 0.930 . S
C4075 C4071 1.400 . S
C4075 C4074 1.385 . S
C4076 C4074 1.478 . S
C4076 C4078 1.381 . S
C4076 C4082 1.383 . S
C4077 C4073 1.495 . S
C4077 H4083 0.959 . S
C4077 H4084 0.961 . S
C4077 H4085 0.960 . S
C4078 C4076 1.381 . S
C4078 C4079 1.394 . S
C4078 H4086 0.930 . S
C4079 C4078 1.394 . S
C4079 C4080 1.383 . S
C4079 H4087 0.929 . S
C4080 C4079 1.383 . S
C4080 C4081 1.377 . S
C4081 H4065 0.930 . S
C4081 C4080 1.377 . S
C4081 C4082 1.379 . S
C4082 H4066 0.931 . S
C4082 C4076 1.383 . S
C4082 C4081 1.379 . S
H4083 C4077 0.959 . S
H4084 C4077 0.961 . S
H4085 C4077 0.960 . S
H4086 C4078 0.930 . S
H4087 C4079 0.929 . S
C641 C101 1.401 . S
C660 C330 1.352 . S
C677 C57 1.525 . S
C696 C341 1.541 . S
C713 C70 0.669 . S
C732 C370 0.709 . S
C768 C373 1.410 . S
C749 C82 1.424 . S
C785 C23 1.561 . S
C804 C411 1.482 . S
C840 C414 0.720 . S
C821 C29 0.689 . S
C876 C441 1.315 . S
C857 C49 1.311 . S
C893 C10 1.562 . S
C912 C470 1.498 . S
C948 C321 1.426 . S
C929 C218 1.415 . S
C965 C226 0.672 . S
C984 C333 0.706 . S
C1020 C361 1.559 . S
C1001 C251 1.559 . S
C1056 C390 0.814 . S
C1037 C159 0.794 . S
C1073 C211 0.782 . S
C1092 C394 0.758 . S
C1128 C420 1.592 . S
C1109 C225 1.597 . S
C1164 C433 0.527 . S
C1145 C252 0.540 . S
C1200 C461 1.483 . S
C1181 C166 1.480 . S
C1236 C313 1.476 . S
C1217 C147 1.505 . S
C1253 C263 1.683 . S
C1272 C480 1.658 1_554 S
C1308 C511 1.488 . S
C1289 C309 1.521 . S
C1344 C530 0.609 . S
C1325 C291 0.648 . S
C1361 C108 1.312 . S
C1380 C453 1.317 . S
C1397 C121 1.417 . S
C1416 C353 1.416 . S
C1433 C302 1.493 . S
C1452 C541 1.477 . S
C1488 C570 0.618 . S
C1469 C276 0.669 . S
C1524 C331 1.697 . S
C1505 C55 1.700 . S
C1560 C560 1.793 . S
C1541 C96 1.798 . S
C1577 C88 1.080 . S
C1596 C371 1.048 . S
C1613 C75 1.665 . S
C1632 C534 1.657 . S
C1668 C410 1.753 . S
C1649 C4 1.817 . S
C1685 C44 0.997 . S
C1704 C493 0.999 . S
C1740 C440 1.602 1_556 S
C1721 C31 1.652 . S
C1776 C591 1.749 . S
C1757 C18 1.824 . S
C1812 C320 1.664 . S
C1793 C133 1.694 . S
C1848 C554 0.927 . S
C1829 C296 0.943 . S
C1865 C107 1.817 . S
C1884 C360 1.785 . S
C1901 C264 1.243 . S
C1920 C551 1.224 . S
C1937 C140 1.079 . S
C1956 C393 1.080 . S
C1992 C501 1.814 . S
C1973 C289 1.836 . S
C2009 C114 0.861 . S
C2028 C434 0.880 . S
C2045 C265 1.780 . S
C2064 C580 1.745 . S
C2081 C179 1.700 . S
C2100 C314 1.689 . S
C2117 C161 1.934 . S
C2136 C481 1.898 . S
C2153 C244 1.737 . S
C2172 C430 1.670 . S
C2189 C224 1.106 . S
C2208 C531 1.113 . S
C2244 C574 1.490 . S
C2225 C257 1.499 . S
C2261 C199 1.611 . S
C2280 C354 1.606 . S
C2316 C380 1.774 . S
C2297 C237 1.795 . S
C2352 C351 1.004 . S
C2333 C185 1.051 . S
C2369 C69 1.398 . S
C2388 C610 1.363 . S
C2424 C561 1.540 . S
C2405 C83 1.523 . S
C2441 C94 0.675 . S
C2460 C630 0.738 . S
C2477 C56 1.425 . S
C2496 C533 1.430 . S
C2513 C42 1.573 . S
C2532 C491 1.504 . S
C2568 C494 0.721 . S
C2549 C3 0.690 . S
C2604 C521 1.321 . S
C2585 C16 1.322 . S
C2640 C590 1.467 . S
C2621 C36 1.561 . S
C2676 C601 1.426 . S
C2657 C238 1.415 . S
C2693 C174 0.663 . S
C2712 C553 0.644 . S
C2748 C621 1.560 . S
C2729 C186 1.556 . S
C2784 C550 0.762 . S
C2765 C198 0.799 . S
C2820 C474 0.794 . S
C2801 C239 0.779 . S
C2837 C173 1.598 . S
C2856 C500 1.579 . S
C2892 C513 0.540 . S
C2873 C187 0.544 . S
C2909 C205 1.482 . S
C2928 C581 1.464 . S
C2964 C593 1.502 . S
C2945 C290 1.505 . S
C2981 C122 1.686 . S
C3000 C400 1.678 . S
C3036 C431 1.464 . S
C3017 C134 1.529 . S
C3072 C450 0.690 . S
C3053 C148 0.653 . S
C3108 C573 1.297 . S
C3089 C283 1.304 . S
C3125 C270 1.417 . S
C3144 C613 1.420 . S
C3180 C381 1.477 . S
C3161 C135 1.486 . S
C3216 C350 0.746 . S
C3197 C109 0.669 . S
C3233 C81 1.703 . S
C3252 C611 1.677 . S
C3288 C340 1.792 . S
C3269 C68 1.797 . S
C3305 C62 1.080 . S
C3324 C631 1.064 . S
C3341 C95 1.664 . S
C3360 C374 1.658 . S
C3377 C30 1.818 . S
C3396 C490 1.743 . S
C3432 C413 0.992 . S
C3413 C17 0.995 . S
C3449 C5 1.653 . S
C3468 C520 1.646 . S
C3485 C43 1.816 . S
C3504 C471 1.779 . S
C3540 C600 1.675 . S
C3521 C304 1.695 . S
C3557 C153 0.941 . S
C3576 C334 0.961 . S
C3612 C620 1.807 1_655 S
C3593 C278 1.818 . S
C3629 C127 1.241 . S
C3648 C391 1.220 . S
C3665 C303 1.081 . S
C3684 C473 1.076 . S
C3720 C421 1.786 . S
C3701 C146 1.834 . S
C3737 C277 0.857 . S
C3756 C514 0.848 . S
C3792 C460 1.743 . S
C3773 C120 1.778 . S
C3828 C594 1.669 . S
C3809 C231 1.701 . S
C3864 C401 1.887 1_565 S
C3845 C200 1.933 . S
C3881 C212 1.740 . S
C3900 C510 1.680 . S
C3936 C451 1.063 . S
C3917 C172 1.104 1_556 S
C3953 C192 1.499 . S
C3972 C454 1.467 . S
C3989 C160 1.612 . S
C4008 C614 1.593 . S
C4044 C540 1.776 . S
C4025 C213 1.797 1_565 S
C4080 C571 1.011 . S
C4061 C250 1.051 . S
