# Generated by pormake.
# Topology zzz, (3,6)-cn, num edge types: 1
# Building blocks:
#     Node 0, Type 0, BuildingBlock: WUSLED_clean_sbu_0, # of connection points: 3
#     Node 1, Type 0, BuildingBlock: WUSLED_clean_sbu_0, # of connection points: 3
#     Node 2, Type 0, BuildingBlock: WUSLED_clean_sbu_0, # of connection points: 3
#     Node 3, Type 0, BuildingBlock: WUSLED_clean_sbu_0, # of connection points: 3
#     Node 4, Type 0, BuildingBlock: WUSLED_clean_sbu_0, # of connection points: 3
#     Node 5, Type 0, BuildingBlock: WUSLED_clean_sbu_0, # of connection points: 3
#     Node 6, Type 0, BuildingBlock: WUSLED_clean_sbu_0, # of connection points: 3
#     Node 7, Type 0, BuildingBlock: WUSLED_clean_sbu_0, # of connection points: 3
#     Node 8, Type 1, BuildingBlock: PAMTUU_clean_sbu_0, # of connection points: 6
#     Node 9, Type 1, BuildingBlock: PAMTUU_clean_sbu_0, # of connection points: 6
#     Node 10, Type 1, BuildingBlock: PAMTUU_clean_sbu_0, # of connection points: 6
#     Node 11, Type 1, BuildingBlock: PAMTUU_clean_sbu_0, # of connection points: 6
#     Edge 12, Type (0, 1), BuildingBlock: AJUNOK_clean_linker_0, # of connection points: 2
#     Edge 13, Type (0, 1), BuildingBlock: AJUNOK_clean_linker_0, # of connection points: 2
#     Edge 14, Type (0, 1), BuildingBlock: AJUNOK_clean_linker_0, # of connection points: 2
#     Edge 15, Type (0, 1), BuildingBlock: AJUNOK_clean_linker_0, # of connection points: 2
#     Edge 16, Type (0, 1), BuildingBlock: AJUNOK_clean_linker_0, # of connection points: 2
#     Edge 17, Type (0, 1), BuildingBlock: AJUNOK_clean_linker_0, # of connection points: 2
#     Edge 18, Type (0, 1), BuildingBlock: AJUNOK_clean_linker_0, # of connection points: 2
#     Edge 19, Type (0, 1), BuildingBlock: AJUNOK_clean_linker_0, # of connection points: 2
#     Edge 20, Type (0, 1), BuildingBlock: AJUNOK_clean_linker_0, # of connection points: 2
#     Edge 21, Type (0, 1), BuildingBlock: AJUNOK_clean_linker_0, # of connection points: 2
#     Edge 22, Type (0, 1), BuildingBlock: AJUNOK_clean_linker_0, # of connection points: 2
#     Edge 23, Type (0, 1), BuildingBlock: AJUNOK_clean_linker_0, # of connection points: 2
#     Edge 24, Type (0, 1), BuildingBlock: AJUNOK_clean_linker_0, # of connection points: 2
#     Edge 25, Type (0, 1), BuildingBlock: AJUNOK_clean_linker_0, # of connection points: 2
#     Edge 26, Type (0, 1), BuildingBlock: AJUNOK_clean_linker_0, # of connection points: 2
#     Edge 27, Type (0, 1), BuildingBlock: AJUNOK_clean_linker_0, # of connection points: 2
#     Edge 28, Type (0, 1), BuildingBlock: AJUNOK_clean_linker_0, # of connection points: 2
#     Edge 29, Type (0, 1), BuildingBlock: AJUNOK_clean_linker_0, # of connection points: 2
#     Edge 30, Type (0, 1), BuildingBlock: AJUNOK_clean_linker_0, # of connection points: 2
#     Edge 31, Type (0, 1), BuildingBlock: AJUNOK_clean_linker_0, # of connection points: 2
#     Edge 32, Type (0, 1), BuildingBlock: AJUNOK_clean_linker_0, # of connection points: 2
#     Edge 33, Type (0, 1), BuildingBlock: AJUNOK_clean_linker_0, # of connection points: 2
#     Edge 34, Type (0, 1), BuildingBlock: AJUNOK_clean_linker_0, # of connection points: 2
#     Edge 35, Type (0, 1), BuildingBlock: AJUNOK_clean_linker_0, # of connection points: 2
# Relax obj value: 0.385
# Max RMSD: 0.275
# Mean RMSD: 0.214
data_MOF--net-zzz--node1-WUSLED_clean_sbu_0--node2-PAMTUU_clean_sbu_0--edge1-AJUNOK_clean_linker_0
_symmetry_space_group_name_H-M    P1
_symmetry_Int_Tables_number       1
_symmetry_cell_setting            triclinic
loop_
_symmetry_equiv_pos_as_xyz
'x, y, z'
_cell_length_a     48.978474
_cell_length_b     53.562757
_cell_length_c     17.823578
_cell_angle_alpha  100.13651
_cell_angle_beta   90.251179
_cell_angle_gamma 89.49931
loop_
_atom_site_label
_atom_site_type_symbol
_atom_site_fract_x
_atom_site_fract_y
_atom_site_fract_z
_atom_type_partial_charge
C0 C 0.82199 0.49115 0.50031 0.0
C1 C 0.83937 0.46991 0.49641 0.0
C2 C 0.87265 0.49459 0.58073 0.0
C3 C 0.86426 0.47156 0.53635 0.0
C4 C 0.85532 0.5159 0.58444 0.0
C5 C 0.83024 0.51416 0.5453 0.0
U6 U 0.76814 0.50903 0.35755 0.0
O7 O 0.74273 0.48287 0.27801 0.0
O8 O 0.72302 0.51207 0.36247 0.0
C9 C 0.71968 0.49416 0.3023 0.0
C10 C 0.79501 0.48838 0.46023 0.0
C11 C 0.69944 0.49883 0.24296 0.0
C12 C 0.65397 0.51315 0.21095 0.0
C13 C 0.67472 0.51161 0.26465 0.0
C14 C 0.68222 0.48965 0.11175 0.0
C15 C 0.65714 0.50165 0.13401 0.0
C16 C 0.70301 0.48815 0.16542 0.0
C17 C 0.82336 0.5528 0.31994 0.0
C18 C 0.86795 0.55518 0.26385 0.0
C19 C 0.86431 0.5511 0.39661 0.0
C20 C 0.83584 0.55181 0.39052 0.0
C21 C 0.88057 0.55098 0.33177 0.0
C22 C 0.83957 0.55606 0.25805 0.0
C23 C 0.79508 0.54428 0.30532 0.0
O24 O 0.77708 0.50692 0.47774 0.0
O25 O 0.79555 0.47917 0.38685 0.0
O26 O 0.79348 0.52077 0.26902 0.0
O27 O 0.77793 0.54943 0.36271 0.0
H28 H 0.83353 0.45185 0.46293 0.0
H29 H 0.87709 0.4548 0.53207 0.0
H30 H 0.86088 0.53384 0.61913 0.0
H31 H 0.81721 0.53081 0.55109 0.0
H32 H 0.63521 0.52308 0.23001 0.0
H33 H 0.6711 0.51988 0.32375 0.0
H34 H 0.68542 0.48056 0.05316 0.0
H35 H 0.72158 0.47791 0.14628 0.0
H36 H 0.8798 0.55516 0.21266 0.0
H37 H 0.87345 0.54858 0.45026 0.0
H38 H 0.82365 0.54951 0.43921 0.0
H39 H 0.83034 0.55677 0.20308 0.0
C40 C 1.00098 0.79185 0.55964 0.0
C41 C 1.01766 0.80769 0.52485 0.0
C42 C 1.00717 0.84343 0.62585 0.0
C43 C 1.0205 0.83337 0.5573 0.0
C44 C 0.99058 0.82748 0.6605 0.0
C45 C 0.98744 0.80197 0.6275 0.0
U46 U 1.00154 0.73461 0.39409 0.0
O47 O 0.97268 0.70285 0.37202 0.0
O48 O 1.01569 0.69559 0.39569 0.0
C49 C 0.99195 0.68568 0.37302 0.0
C50 C 0.99753 0.76475 0.52716 0.0
C51 C 0.99289 0.66534 0.30563 0.0
C52 C 0.98744 0.62096 0.24868 0.0
C53 C 0.98609 0.64046 0.31226 0.0
C54 C 1.00227 0.65109 0.17093 0.0
C55 C 0.99557 0.62606 0.17727 0.0
C56 C 1.00088 0.67056 0.23449 0.0
C57 C 1.02283 0.77919 0.2579 0.0
C58 C 0.04288 0.80354 0.17011 0.0
C59 C 1.02168 0.82524 0.28655 0.0
C60 C 1.01528 0.8018 0.30617 0.0
C61 C 0.03524 0.82616 0.21793 0.0
C62 C 0.03684 0.7802 0.19021 0.0
C63 C 1.01578 0.75432 0.27553 0.0
O64 O 0.97674 0.75924 0.48045 0.0
O65 O 1.01986 0.75199 0.50359 0.0
O66 O 0.03344 0.74453 0.31813 0.0
O67 O 0.99024 0.75156 0.29466 0.0
H68 H 0.02865 0.80018 0.47313 0.0
H69 H 0.0335 0.84525 0.52966 0.0
H70 H 0.97986 0.83482 0.7129 0.0
H71 H 0.97449 0.79006 0.65526 0.0
H72 H 0.98269 0.6018 0.25578 0.0
H73 H 0.97999 0.63606 0.3668 0.0
H74 H 1.00855 0.65561 0.11671 0.0
H75 H 1.0062 0.68969 0.22829 0.0
H76 H 0.05328 0.80399 0.11681 0.0
H77 H 1.01543 0.84257 0.32366 0.0
H78 H 1.00402 0.8013 0.35798 0.0
H79 H 0.04273 0.76291 0.15229 0.0
C80 C 0.73304 0.00933 0.51401 0.0
C81 C 0.7082 0.0167 0.48371 0.0
C82 C 0.68243 0.00572 0.59084 0.0
C83 C 0.68332 0.01484 0.52137 0.0
C84 C 0.70728 0.99868 0.62164 0.0
C85 C 0.73217 1.00043 0.58378 0.0
U86 U 0.78749 0.98959 0.35545 0.0
O87 O 0.8327 0.9876 0.35864 0.0
O88 O 0.81218 0.0148 0.29847 0.0
C89 C 0.83554 0.00446 0.31363 0.0
C90 C 0.7599 0.01216 0.47612 0.0
C91 C 0.8559 0.9991 0.25003 0.0
C92 C 0.90071 0.98286 0.20302 0.0
C93 C 0.87984 0.98503 0.25784 0.0
C94 C 0.87415 0.00836 0.13006 0.0
C95 C 0.89846 0.99498 0.13913 0.0
C96 C 0.85328 0.0105 0.18475 0.0
C97 C 0.73315 0.94415 0.27989 0.0
C98 C 0.69265 0.92392 0.21959 0.0
C99 C 0.68836 0.95839 0.32675 0.0
C100 C 0.71663 0.95919 0.33404 0.0
C101 C 0.67602 0.94204 0.26575 0.0
C102 C 0.72116 0.92544 0.22525 0.0
C103 C 0.76146 0.952 0.27214 0.0
O104 O 0.77848 0.99444 0.47875 0.0
O105 O 0.75924 0.01967 0.40972 0.0
O106 O 0.76313 0.97471 0.25428 0.0
O107 O 0.77822 0.94871 0.32746 0.0
H108 H 0.7079 0.02401 0.43081 0.0
H109 H 0.66478 0.02101 0.49657 0.0
H110 H 0.70747 0.9916 0.67494 0.0
H111 H 0.75085 0.99494 0.60954 0.0
H112 H 0.91881 0.9719 0.21125 0.0
H113 H 0.8828 0.97619 0.30748 0.0
H114 H 0.87166 0.01802 0.08192 0.0
H115 H 0.83541 0.02181 0.17684 0.0
H116 H 0.68381 0.90998 0.17497 0.0
H117 H 0.67657 0.97254 0.3643 0.0
H118 H 0.72567 0.97348 0.37709 0.0
H119 H 0.73368 0.91332 0.18371 0.0
C120 C 0.56115 0.72404 0.32469 0.0
C121 C 0.54113 0.70542 0.30406 0.0
C122 C 0.56104 0.67998 0.39157 0.0
C123 C 0.54123 0.68342 0.33682 0.0
C124 C 0.58125 0.69846 0.41089 0.0
C125 C 0.58131 0.72023 0.37769 0.0
U126 U 0.5464 0.76757 0.17534 0.0
O127 O 0.53266 0.80755 0.19847 0.0
O128 O 0.57313 0.79762 0.14905 0.0
C129 C 0.55484 0.81562 0.16936 0.0
C130 C 0.56111 0.74811 0.29515 0.0
C131 C 0.55101 0.83437 0.1182 0.0
C132 C 0.5406 0.8779 0.10523 0.0
C133 C 0.54213 0.85891 0.14979 0.0
C134 C 0.55637 0.84806 0.99564 0.0
C135 C 0.54795 0.87283 0.02781 0.0
C136 C 0.55786 0.82898 0.0404 0.0
C137 C 0.51654 0.71061 0.04155 0.0
C138 C 0.49492 0.67624 0.95553 0.0
C139 C 0.52257 0.66709 0.06067 0.0
C140 C 0.52761 0.693 0.08322 0.0
C141 C 0.50656 0.65845 0.99577 0.0
C142 C 0.49978 0.70214 0.97848 0.0
C143 C 0.52349 0.73762 0.06032 0.0
O144 O 0.57751 0.74927 0.23775 0.0
O145 O 0.53724 0.75898 0.28878 0.0
O146 O 0.50942 0.75116 0.11594 0.0
O147 O 0.54977 0.74252 0.06414 0.0
H148 H 0.52521 0.70807 0.26378 0.0
H149 H 0.52545 0.66942 0.32093 0.0
H150 H 0.59701 0.6961 0.45199 0.0
H151 H 0.59694 0.73434 0.39437 0.0
H152 H 0.53381 0.89669 0.1316 0.0
H153 H 0.53686 0.86356 0.20965 0.0
H154 H 0.56255 0.84362 0.9365 0.0
H155 H 0.56492 0.81022 0.0146 0.0
H156 H 0.48261 0.67003 0.90515 0.0
H157 H 0.53224 0.65374 0.09174 0.0
H158 H 0.5409 0.69923 0.13146 0.0
H159 H 0.49112 0.71549 0.94562 0.0
C160 C 0.2316 0.51021 0.12186 0.0
C161 C 0.21014 0.49704 0.14859 0.0
C162 C 0.17994 0.50573 0.04584 0.0
C163 C 0.18484 0.49442 0.11045 0.0
C164 C 0.20169 0.51874 0.01877 0.0
C165 C 0.22716 0.52086 0.05615 0.0
U166 U 0.28812 0.49455 0.26301 0.0
O167 O 0.3105 0.52304 0.34397 0.0
O168 O 0.33319 0.49638 0.25882 0.0
C169 C 0.33461 0.51445 0.31924 0.0
C170 C 0.25818 0.51415 0.16331 0.0
C171 C 0.35524 0.5119 0.37929 0.0
C172 C 0.38558 0.53287 0.4796 0.0
C173 C 0.36556 0.53407 0.4239 0.0
C174 C 0.38528 0.48709 0.44879 0.0
C175 C 0.39611 0.50942 0.49215 0.0
C176 C 0.36511 0.4883 0.39276 0.0
C177 C 0.24088 0.44346 0.30688 0.0
C178 C 0.20004 0.43684 0.37649 0.0
C179 C 0.19661 0.44228 0.24477 0.0
C180 C 0.22509 0.44341 0.24089 0.0
C181 C 0.18392 0.44124 0.31464 0.0
C182 C 0.22841 0.43803 0.37265 0.0
C183 C 0.26761 0.45587 0.31521 0.0
O184 O 0.25688 0.52175 0.23746 0.0
O185 O 0.27744 0.49701 0.14359 0.0
O186 O 0.28335 0.45316 0.25464 0.0
O187 O 0.26623 0.47938 0.35172 0.0
H188 H 0.2129 0.48914 0.19976 0.0
H189 H 0.16906 0.48354 0.13179 0.0
H190 H 0.19888 0.5278 0.96954 0.0
H191 H 0.24329 0.53132 0.03445 0.0
H192 H 0.39285 0.55043 0.51302 0.0
H193 H 0.3582 0.5525 0.41531 0.0
H194 H 0.39283 0.46871 0.45707 0.0
H195 H 0.35743 0.47085 0.35969 0.0
H196 H 0.19077 0.43584 0.43098 0.0
H197 H 0.18454 0.44525 0.19599 0.0
H198 H 0.23442 0.44717 0.18907 0.0
H199 H 0.24029 0.43781 0.42398 0.0
C200 C 0.06263 0.20387 0.09853 0.0
C201 C 0.08333 0.19088 0.053 0.0
C202 C 0.05564 0.15271 0.02785 0.0
C203 C 0.07988 0.1656 0.01792 0.0
C204 C 0.03482 0.16578 0.07333 0.0
C205 C 0.0383 0.19113 0.10853 0.0
U206 U 0.05455 0.26196 0.2597 0.0
O207 O 0.04679 0.30192 0.25132 0.0
O208 O 0.08511 0.2911 0.30146 0.0
C209 C 0.06913 0.30979 0.2891 0.0
C210 C 0.06681 0.23077 0.13303 0.0
C211 C 0.06543 0.3305 0.35481 0.0
C212 C 0.07901 0.37161 0.4253 0.0
C213 C 0.08226 0.35184 0.36308 0.0
C214 C 0.04205 0.34885 0.47208 0.0
C215 C 0.05885 0.37037 0.48059 0.0
C216 C 0.04541 0.32904 0.41001 0.0
C217 C 1.01628 0.21927 0.37404 0.0
C218 C 0.99045 0.1949 0.4511 0.0
C219 C 1.01613 0.17331 0.3424 0.0
C220 C 0.0246 0.19673 0.32683 0.0
C221 C 0.99926 0.17218 0.40535 0.0
C222 C 0.99884 0.21825 0.43534 0.0
C223 C 0.02709 0.24385 0.36381 0.0
O224 O 0.04503 0.24553 0.14059 0.0
O225 O 0.08319 0.23497 0.19246 0.0
O226 O 0.05386 0.24526 0.36346 0.0
O227 O 1.01527 0.25442 0.31077 0.0
H228 H 0.10216 0.20039 0.04401 0.0
H229 H 0.09606 0.15624 0.98206 0.0
H230 H 1.01595 0.15633 0.08215 0.0
H231 H 1.02197 0.20074 0.14329 0.0
H232 H 0.09231 0.38787 0.43025 0.0
H233 H 0.09792 0.35325 0.32131 0.0
H234 H 0.02592 0.34754 0.51252 0.0
H235 H 0.03224 0.31268 0.40475 0.0
H236 H 0.97806 0.19463 0.50113 0.0
H237 H 1.02329 0.15607 0.30646 0.0
H238 H 0.03827 0.19725 0.27955 0.0
H239 H 0.99245 0.2355 0.47265 0.0
C240 C 0.32308 0.99612 0.12986 0.0
C241 C 0.34805 0.99682 0.16988 0.0
C242 C 0.3739 0.00141 0.05543 0.0
C243 C 0.37303 0.99948 0.1333 0.0
C244 C 0.34892 0.00081 0.01567 0.0
C245 C 0.32396 0.99821 0.05225 0.0
U246 U 0.26081 0.01432 0.26593 0.0
O247 O 0.24096 0.98936 0.33425 0.0
O248 O 0.21633 0.00673 0.25399 0.0
C249 C 0.21628 0.99349 0.30972 0.0
C250 C 0.29646 0.99102 0.16578 0.0
C251 C 0.1946 0.99926 0.36934 0.0
C252 C 0.14653 0.99769 0.40509 0.0
C253 C 0.167 0.99524 0.34908 0.0
C254 C 0.1807 0.00856 0.50329 0.0
C255 C 0.1531 0.00412 0.48313 0.0
C256 C 0.20114 0.00628 0.44728 0.0
C257 C 0.30175 0.07216 0.33084 0.0
C258 C 0.33771 0.08677 0.42069 0.0
C259 C 0.34848 0.0588 0.30239 0.0
C260 C 0.32134 0.06011 0.2791 0.0
C261 C 0.35583 0.06963 0.37705 0.0
C262 C 0.31049 0.08786 0.39776 0.0
C263 C 0.27527 0.0598 0.33253 0.0
O264 O 0.29675 0.98928 0.23848 0.0
O265 O 0.27464 0.00302 0.14665 0.0
O266 O 0.26104 0.05578 0.26883 0.0
O267 O 0.27709 0.03972 0.36518 0.0
H268 H 0.34842 0.99491 0.22936 0.0
H269 H 0.39175 0.99928 0.16571 0.0
H270 H 0.34864 0.00229 0.95585 0.0
H271 H 0.30528 0.99739 0.01918 0.0
H272 H 0.12562 0.99368 0.38733 0.0
H273 H 0.16131 0.98948 0.28979 0.0
H274 H 0.18653 0.01364 0.56268 0.0
H275 H 0.22216 0.00947 0.46531 0.0
H276 H 0.34326 0.09575 0.47797 0.0
H277 H 0.36234 0.04594 0.26713 0.0
H278 H 0.31501 0.04814 0.22657 0.0
H279 H 0.29571 0.09748 0.43812 0.0
C280 C 0.50377 0.27736 0.29405 0.0
C281 C 0.50313 0.30105 0.34276 0.0
C282 C 0.49922 0.32252 0.23297 0.0
C283 C 0.50102 0.3235 0.31234 0.0
C284 C 0.50078 0.29878 0.18477 0.0
C285 C 0.50298 0.27648 0.21503 0.0
U286 U 0.51017 0.23494 0.44991 0.0
O287 O 0.4842 0.20231 0.46025 0.0
O288 O 0.52803 0.19658 0.4378 0.0
C289 C 0.50494 0.18635 0.45397 0.0
C290 C 0.50379 0.25319 0.32307 0.0
C291 C 0.50598 0.16868 0.50947 0.0
C292 C 0.48437 0.13473 0.56185 0.0
C293 C 0.48327 0.15338 0.51592 0.0
C294 C 0.53077 0.14666 0.59788 0.0
C295 C 0.50834 0.13071 0.60191 0.0
C296 C 0.52964 0.16542 0.55196 0.0
C297 C 0.52508 0.29415 0.59938 0.0
C298 C 0.51791 0.33209 0.69398 0.0
C299 C 0.54412 0.33435 0.58043 0.0
C300 C 0.53997 0.30842 0.55483 0.0
C301 C 0.53341 0.34637 0.65079 0.0
C302 C 0.51396 0.30621 0.66873 0.0
C303 C 0.52102 0.26671 0.57574 0.0
O304 O 0.5274 0.24511 0.34521 0.0
O305 O 0.48353 0.24991 0.36833 0.0
O306 O 0.54001 0.25424 0.53205 0.0
O307 O 0.49608 0.25977 0.55453 0.0
H308 H 0.50373 0.30213 0.40401 0.0
H309 H 0.49996 0.34155 0.3508 0.0
H310 H 0.50003 0.29744 0.12344 0.0
H311 H 0.50356 0.25841 0.17649 0.0
H312 H 0.46654 0.12314 0.56503 0.0
H313 H 0.46478 0.15546 0.4839 0.0
H314 H 0.54951 0.14403 0.6281 0.0
H315 H 0.54752 0.17691 0.54837 0.0
H316 H 0.50861 0.34097 0.74716 0.0
H317 H 0.55597 0.34493 0.54571 0.0
H318 H 0.54853 0.29954 0.50062 0.0
H319 H 0.50218 0.29558 0.7035 0.0
Tb320 Tb 1.00623 0.00764 0.75967 0.0
Tb321 Tb 0.05062 0.99029 0.87669 0.0
C322 C 0.98763 0.99609 0.91771 0.0
C323 C 0.97594 0.04325 0.62265 0.0
C324 C 0.98157 0.08244 0.53777 0.0
C325 C 0.96073 0.06445 0.52013 0.0
C326 C 0.95794 0.04495 0.56243 0.0
C327 C 0.99687 0.06105 0.63997 0.0
C328 C 0.99965 0.08048 0.59794 0.0
C329 C 0.9739 0.02235 0.66536 0.0
O330 O 1.01613 0.04158 0.84261 0.0
O331 O 0.05855 0.03021 0.87986 0.0
O332 O 0.07236 0.98876 0.76854 0.0
O333 O 0.04594 0.01703 0.71749 0.0
O334 O 0.06929 0.99603 0.98462 0.0
O335 O 0.08031 0.96394 0.89878 0.0
O336 O 0.02635 0.95708 0.83405 0.0
O337 O 1.01463 0.96747 0.71977 0.0
O338 O 0.98168 0.99311 0.84459 0.0
O339 O 1.01296 1.00011 0.9413 0.0
C340 C 0.03968 0.04753 0.87666 0.0
O341 O 0.99198 0.00439 0.64719 0.0
O342 O 0.97165 0.02895 0.73902 0.0
C343 C 0.06853 0.00358 0.71765 0.0
C344 C 0.07526 0.95654 0.02319 0.0
C345 C 0.06099 0.91792 0.10387 0.0
C346 C 0.08831 0.92093 0.08336 0.0
C347 C 0.09538 0.94011 0.04305 0.0
C348 C 0.0482 0.95423 0.04661 0.0
C349 C 0.04118 0.93526 0.08725 0.0
C350 C 0.08158 0.97401 0.97079 0.0
C351 C 1.01892 0.95032 0.76279 0.0
H352 H 0.94682 0.06529 0.47321 0.0
H353 H 0.94191 0.03111 0.54782 0.0
H354 H 1.01112 0.05985 0.68593 0.0
H355 H 1.0158 0.09416 0.61299 0.0
H356 H 0.10394 0.90772 0.09529 0.0
H357 H 0.1163 0.94146 0.02475 0.0
H358 H 0.03226 0.96648 0.03103 0.0
H359 H 1.02007 0.93363 0.1035 0.0
Tb360 Tb 0.51427 0.98654 0.74608 0.0
Tb361 Tb 0.54059 0.0204 0.8998 0.0
C362 C 0.5394 0.95952 0.87119 0.0
C363 C 0.46838 0.97839 0.58668 0.0
C364 C 0.43148 0.0076 0.51657 0.0
C365 C 0.44829 0.98943 0.472 0.0
C366 C 0.46672 0.97492 0.50696 0.0
C367 C 0.4513 0.99628 0.63103 0.0
C368 C 0.43313 0.01081 0.59633 0.0
C369 C 0.49098 0.9672 0.62384 0.0
O370 O 0.48369 0.98649 0.83516 0.0
O371 O 0.49614 0.02316 0.91294 0.0
O372 O 0.53688 0.04725 0.82213 0.0
O373 O 0.50268 0.02616 0.75018 0.0
O374 O 0.53344 0.0441 1.00565 0.0
O375 O 0.57399 0.0316 0.97144 0.0
O376 O 0.576 0.01314 0.82401 0.0
O377 O 0.55669 0.99072 0.71492 0.0
O378 O 0.53483 0.95782 0.79785 0.0
O379 O 0.53854 0.98132 0.91851 0.0
C380 C 0.4784 0.00492 0.89241 0.0
O381 O 0.5134 0.98013 0.6266 0.0
O382 O 0.48559 0.96076 0.68942 0.0
C383 C 0.51827 0.04615 0.76853 0.0
C384 C 0.5624 0.03011 0.09634 0.0
C385 C 0.58386 0.99694 0.18718 0.0
C386 C 0.59538 0.021 0.18964 0.0
C387 C 0.58477 0.03748 0.144 0.0
C388 C 0.54867 0.00755 0.10206 0.0
C389 C 0.55949 0.99093 0.14696 0.0
C390 C 0.55848 0.04157 0.02802 0.0
C391 C 0.57779 0.0017 0.75239 0.0
H392 H 0.44737 0.98668 0.41036 0.0
H393 H 0.48027 0.96166 0.47197 0.0
H394 H 0.45287 0.99987 0.69266 0.0
H395 H 0.42092 0.02512 0.63201 0.0
H396 H 0.61443 0.02578 0.21966 0.0
H397 H 0.59577 0.05465 0.1399 0.0
H398 H 0.53132 0.0015 0.06571 0.0
H399 H 0.55053 0.97235 0.14381 0.0
Tb400 Tb 0.50401 0.49317 0.87806 0.0
Tb401 Tb 0.54577 0.51156 0.75319 0.0
C402 C 0.48311 0.50662 0.72083 0.0
C403 C 0.47892 0.45441 0.01646 0.0
C404 C 0.48555 0.41323 0.09502 0.0
C405 C 0.46018 0.42573 0.09433 0.0
C406 C 0.45691 0.44608 0.05529 0.0
C407 C 0.50451 0.44249 0.01876 0.0
C408 C 0.50784 0.42215 0.05805 0.0
C409 C 0.47455 0.47442 0.97021 0.0
O410 O 0.5312 0.46191 0.83576 0.0
O411 O 0.53862 0.47112 0.71763 0.0
O412 O 0.57282 0.49988 0.83939 0.0
O413 O 0.5422 0.50363 0.93845 0.0
O414 O 0.55587 0.50961 0.63778 0.0
O415 O 0.57924 0.53261 0.72611 0.0
O416 O 0.53474 0.54543 0.83321 0.0
O417 O 0.49542 0.53356 0.88863 0.0
O418 O 0.48107 0.49121 0.77062 0.0
O419 O 0.50467 0.52094 0.72047 0.0
C420 C 0.53727 0.45466 0.76388 0.0
O421 O 0.48867 0.49511 0.98918 0.0
O422 O 0.47455 0.4667 0.89671 0.0
C423 C 0.56742 0.5015 0.91261 0.0
C424 C 0.57116 0.54885 0.61345 0.0
C425 C 0.56527 0.59097 0.53892 0.0
C426 C 0.58627 0.57302 0.51811 0.0
C427 C 0.58923 0.55217 0.55529 0.0
C428 C 0.54981 0.5664 0.63317 0.0
C429 C 0.54688 0.58727 0.59628 0.0
C430 C 0.57439 0.52707 0.65312 0.0
C431 C 0.51258 0.55091 0.87436 0.0
H432 H 0.44277 0.41958 0.12339 0.0
H433 H 0.43701 0.45503 0.05426 0.0
H434 H 0.52175 0.44857 0.98882 0.0
H435 H 0.5276 0.41288 0.05747 0.0
H436 H 0.60073 0.57542 0.47416 0.0
H437 H 0.60573 0.53873 0.53898 0.0
H438 H 0.53544 0.56396 0.67728 0.0
H439 H 0.5302 0.6005 0.61253 0.0
Tb440 Tb 0.03571 0.51723 0.76605 0.0
Tb441 Tb 1.01221 0.48203 0.88039 0.0
C442 C 1.01109 0.542 0.924 0.0
C443 C 0.07107 0.52593 0.60007 0.0
C444 C 0.09674 0.49457 0.47672 0.0
C445 C 0.07862 0.5139 0.46374 0.0
C446 C 0.06579 0.52946 0.52517 0.0
C447 C 0.08913 0.50657 0.61265 0.0
C448 C 0.10187 0.49116 0.55177 0.0
C449 C 0.05428 0.53878 0.66361 0.0
O450 O 0.07112 0.50153 0.81806 0.0
O451 O 0.05003 0.49909 0.92952 0.0
O452 O 0.0335 0.45492 0.79429 0.0
O453 O 0.03497 0.47911 0.70048 0.0
O454 O 1.01984 0.45764 0.95868 0.0
O455 O 0.97871 0.46849 0.93365 0.0
O456 O 0.9831 0.47984 0.78571 0.0
O457 O 0.99124 0.51949 0.76274 0.0
O458 O 0.02921 0.544 0.87122 0.0
O459 O 0.99868 0.52051 0.92686 0.0
C460 C 0.07257 0.50064 0.8912 0.0
O461 O 0.02949 0.53023 0.66279 0.0
O462 O 0.06522 0.54114 0.73145 0.0
C463 C 0.03754 0.45719 0.72296 0.0
C464 C 0.98896 0.46783 0.06097 0.0
C465 C 0.96948 0.49423 0.20158 0.0
C466 C 0.99371 0.50179 0.17035 0.0
C467 C 1.00327 0.48881 0.10032 0.0
C468 C 0.96618 0.45896 0.09492 0.0
C469 C 0.95644 0.47206 0.16441 0.0
C470 C 0.99435 0.45844 0.97986 0.0
C471 C 0.97555 0.49945 0.75511 0.0
H472 H 0.07424 0.51681 0.40627 0.0
H473 H 0.05124 0.54374 0.51417 0.0
H474 H 0.09296 0.50288 0.66961 0.0
H475 H 0.11605 0.4767 0.56362 0.0
H476 H 1.00417 0.51878 0.19731 0.0
H477 H 1.02075 0.49621 0.07459 0.0
H478 H 0.95464 0.44308 0.06488 0.0
H479 H 0.93728 0.46604 0.18516 0.0
C480 C 0.13551 0.99225 0.60526 0.0
C481 C 0.13152 0.0051 0.54345 0.0
C482 C 0.11527 0.99205 0.66117 0.0
C483 C 0.09009 0.00491 0.65855 0.0
H484 H 0.15429 0.98177 0.60973 0.0
H485 H 0.11943 0.98154 0.70665 0.0
S486 S 0.07001 0.04283 0.51078 0.0
N487 N 0.10082 0.03194 0.4848 0.0
N488 N 0.06293 0.03169 0.58908 0.0
C489 C 0.08607 0.01828 0.59765 0.0
C490 C 0.10666 0.01831 0.54044 0.0
C491 C 0.52057 0.11275 0.71968 0.0
C492 C 0.51033 0.10914 0.64459 0.0
C493 C 0.52282 0.09243 0.75993 0.0
C494 C 0.51481 0.06774 0.72674 0.0
H495 H 0.52676 0.13146 0.7477 0.0
H496 H 0.53082 0.09613 0.81754 0.0
S497 S 0.48973 0.04772 0.52848 0.0
N498 N 0.49416 0.07858 0.53678 0.0
N499 N 0.49807 0.04063 0.61207 0.0
C500 C 0.50493 0.06386 0.65126 0.0
C501 C 0.50277 0.08446 0.61034 0.0
C502 C 0.41694 0.49263 0.6044 0.0
C503 C 0.41862 0.50852 0.54936 0.0
C504 C 0.43758 0.49228 0.65987 0.0
C505 C 0.46095 0.50768 0.66258 0.0
H506 H 0.39932 0.48062 0.60536 0.0
H507 H 0.43514 0.47977 0.70089 0.0
S508 S 0.47607 0.55147 0.52758 0.0
N509 N 0.44627 0.5391 0.49883 0.0
N510 N 0.48466 0.5387 0.60216 0.0
C511 C 0.46297 0.52339 0.60689 0.0
C512 C 0.44198 0.52374 0.55072 0.0
C513 C 0.0535 0.41694 0.52975 0.0
C514 C 0.05456 0.39204 0.54467 0.0
C515 C 0.04843 0.43768 0.58791 0.0
C516 C 0.04413 0.43454 0.66395 0.0
H517 H 0.05603 0.42045 0.47215 0.0
H518 H 0.04758 0.45634 0.57243 0.0
S519 S 0.04696 0.37326 0.73426 0.0
N520 N 0.05259 0.36543 0.6418 0.0
N521 N 0.04266 0.40435 0.75122 0.0
C522 C 0.04578 0.40974 0.68007 0.0
C523 C 0.05101 0.38855 0.62052 0.0
C524 C 0.91678 0.98991 1.00428 0.0
C525 C 0.92163 0.99455 0.08358 0.0
C526 C 0.9381 0.99021 0.95141 0.0
C527 C 0.96532 0.99535 0.9752 0.0
H528 H 0.89629 0.98586 0.98271 0.0
H529 H 0.93308 0.98646 0.89126 0.0
S530 S 0.98881 0.01002 0.17697 0.0
N531 N 0.95571 0.00528 0.18317 0.0
N532 N 0.99555 0.00582 0.08496 0.0
C533 C 0.97039 1.00013 0.05456 0.0
C534 C 0.94869 0.99973 0.10825 0.0
C535 C 0.5589 0.9174 0.01363 0.0
C536 C 0.54755 0.89376 0.98247 0.0
C537 C 0.55702 0.93811 0.97554 0.0
C538 C 0.54381 0.93619 0.90451 0.0
H539 H 0.56908 0.92003 0.06853 0.0
H540 H 0.56568 0.95596 1.00261 0.0
S541 S 0.51116 0.87838 0.7972 0.0
N542 N 0.52301 0.86949 0.87541 0.0
N543 N 0.51975 0.90843 0.8034 0.0
C544 C 0.53318 0.91245 0.87127 0.0
C545 C 0.53499 0.89127 0.91033 0.0
C546 C 0.63863 0.50708 1.00458 0.0
C547 C 0.63409 0.50135 0.07782 0.0
C548 C 0.61719 0.50683 0.95124 0.0
C549 C 0.59023 0.50088 0.96876 0.0
H550 H 0.65889 0.51214 0.98862 0.0
H551 H 0.62175 0.51173 0.89625 0.0
S552 S 0.56797 0.48169 0.1495 0.0
N553 N 0.60084 0.48756 0.16238 0.0
N554 N 0.56077 0.48739 0.06355 0.0
C555 C 0.58558 0.49455 0.04126 0.0
C556 C 0.60739 0.49473 0.09527 0.0
C557 C 1.02213 0.60289 0.06596 0.0
C558 C 0.99822 0.60519 0.11027 0.0
C559 C 0.02575 0.58282 1.00455 0.0
C560 C 1.00566 0.56415 0.98512 0.0
H561 H 0.03852 0.61638 0.08001 0.0
H562 H 0.04483 0.58156 0.97353 0.0
S563 S 0.93788 0.5632 0.07708 0.0
N564 N 0.95309 0.58834 0.12608 0.0
N565 N 0.96004 0.55037 1.01164 0.0
C566 C 0.98129 0.56661 0.02758 0.0
C567 C 0.97755 0.58716 0.08986 0.0
C568 C 1.0148 0.13063 0.43601 0.0
C569 C 0.99324 0.14755 0.42854 0.0
C570 C 1.01058 0.10906 0.46866 0.0
C571 C 0.98464 0.10355 0.49479 0.0
H572 H 0.03536 0.13469 0.4198 0.0
H573 H 0.02793 0.09694 0.47538 0.0
S574 S 0.92096 0.14057 0.48185 0.0
N575 N 0.94461 0.15629 0.44413 0.0
N576 N 0.93676 0.11595 0.50708 0.0
C577 C 0.96264 0.11962 0.48428 0.0
C578 C 0.96694 0.1416 0.45096 0.0
C579 C 0.40321 0.05271 0.39203 0.0
C580 C 0.37599 0.05588 0.41667 0.0
C581 C 0.42119 0.03687 0.42409 0.0
C582 C 0.41232 0.02355 0.4809 0.0
H583 H 0.41049 0.0623 0.3474 0.0
H584 H 0.44214 0.0351 0.40455 0.0
S585 S 0.34207 0.02281 0.55696 0.0
N586 N 0.34049 0.04276 0.49632 0.0
N587 N 0.3741 0.01296 0.55549 0.0
C588 C 0.38499 0.02611 0.50429 0.0
C589 C 0.36686 0.04227 0.47239 0.0
C590 C 0.53293 0.39146 0.62974 0.0
C591 C 0.53765 0.37388 0.67856 0.0
C592 C 0.53416 0.41765 0.65689 0.0
C593 C 0.54001 0.42718 0.73392 0.0
H594 H 0.52716 0.38498 0.57083 0.0
H595 H 0.52928 0.43047 0.61795 0.0
S596 S 0.55791 0.38906 0.88234 0.0
N597 N 0.55151 0.36783 0.8054 0.0
N598 N 0.55331 0.41696 0.85678 0.0
C599 C 0.54617 0.40979 0.78235 0.0
C600 C 0.5451 0.38317 0.75461 0.0
C601 C 0.13758 0.43959 0.37146 0.0
C602 C 0.15622 0.45201 0.33122 0.0
C603 C 0.11605 0.45301 0.41215 0.0
C604 C 0.11267 0.47929 0.41433 0.0
H605 H 0.14106 0.41998 0.37687 0.0
H606 H 0.1034 0.44325 0.44729 0.0
S607 S 0.15409 0.51984 0.31137 0.0
N608 N 0.16821 0.49142 0.29005 0.0
N609 N 0.12778 0.5165 0.3661 0.0
C610 C 0.12939 0.49125 0.36796 0.0
C611 C 0.15123 0.47762 0.32652 0.0
C612 C 0.06059 0.86689 0.22763 0.0
C613 C 0.04009 0.85055 0.19316 0.0
C614 C 0.06703 0.88899 0.19935 0.0
C615 C 0.05284 0.89552 0.1366 0.0
H616 H 0.07217 0.86218 0.27522 0.0
H617 H 0.08332 0.90093 0.22628 0.0
S618 S 0.99683 0.85899 0.02855 0.0
N619 N 1.00535 0.84233 0.0948 0.0
N620 N 1.01703 0.88391 0.04206 0.0
C621 C 0.0318 0.87953 0.10321 0.0
C622 C 0.02555 0.85699 0.13139 0.0
C623 C 0.62848 0.95855 0.29804 0.0
C624 C 0.64777 0.94814 0.24217 0.0
C625 C 0.60613 0.973 0.27992 0.0
C626 C 0.60172 0.97648 0.20475 0.0
H627 H 0.63196 0.95729 0.35723 0.0
H628 H 0.59327 0.98272 0.32535 0.0
S629 S 0.64248 0.94983 0.03467 0.0
N630 N 0.6585 0.94027 0.10627 0.0
N631 N 0.61566 0.96601 0.07272 0.0
C632 C 0.61872 0.96378 0.14714 0.0
C633 C 0.64187 0.94974 0.16553 0.0
C634 C 0.51302 0.62209 0.8892 0.0
C635 C 0.50478 0.63096 0.96468 0.0
C636 C 0.5145 0.59613 0.85996 0.0
C637 C 0.50736 0.578 0.90458 0.0
H638 H 0.51945 0.63531 0.85332 0.0
H639 H 0.52181 0.59019 0.80226 0.0
S640 S 0.4828 0.59138 0.10415 0.0
N641 N 0.48824 0.6197 0.08263 0.0
N642 N 0.4906 0.57066 0.02692 0.0
C643 C 0.49796 0.58656 0.97911 0.0
C644 C 0.49687 0.6131 1.00943 0.0
C645 C 0.92848 0.5517 0.28483 0.0
C646 C 0.9091 0.54114 0.32792 0.0
C647 C 0.95079 0.53732 0.25206 0.0
C648 C 0.9544 0.51192 0.26126 0.0
H649 H 0.92481 0.57016 0.26963 0.0
H650 H 0.96338 0.54529 0.21258 0.0
S651 S 0.91515 0.47877 0.39085 0.0
N652 N 0.89894 0.50606 0.39362 0.0
N653 N 0.94149 0.47952 0.33381 0.0
C654 C 0.93804 0.50288 0.31507 0.0
C655 C 0.91518 0.51741 0.34811 0.0
C656 C 0.02833 0.1184 0.94719 0.0
C657 C 0.05201 0.12579 0.99007 0.0
C658 C 0.02474 0.09324 0.91 0.0
C659 C 0.0446 0.07431 0.91445 0.0
H660 H 1.01256 0.13226 0.94158 0.0
H661 H 1.00613 0.08864 0.87765 0.0
S662 S 0.10982 0.08379 0.0231 0.0
N663 N 0.09523 0.11211 0.03713 0.0
N664 N 0.08872 0.06497 0.96746 0.0
C665 C 0.06836 0.08152 0.95773 0.0
C666 C 0.07199 0.10716 0.99539 0.0
C667 C 0.40549 0.9879 0.94293 0.0
C668 C 0.40065 0.0031 0.01481 0.0
C669 C 0.43042 0.98872 0.90408 0.0
C670 C 0.45178 0.00498 0.93463 0.0
H671 H 0.38998 0.97487 0.91677 0.0
H672 H 0.43291 0.97642 0.84938 0.0
S673 S 0.44945 0.04931 0.12035 0.0
N674 N 0.41937 0.03541 0.11412 0.0
N675 N 0.46601 0.03691 0.04191 0.0
C676 C 0.44712 0.02049 1.00624 0.0
C677 C 0.42175 0.01952 0.04603 0.0
C678 C 0.51262 0.36676 0.21823 0.0
C679 C 0.49495 0.34597 0.19985 0.0
C680 C 0.50957 0.38844 0.18411 0.0
C681 C 0.48844 0.39029 0.13141 0.0
H682 H 0.52926 0.36605 0.25807 0.0
H683 H 0.52377 0.40391 0.19936 0.0
S684 S 0.43639 0.34131 0.06539 0.0
N685 N 0.45526 0.32889 0.12666 0.0
N686 N 0.44963 0.36937 0.0626 0.0
C687 C 0.47047 0.36975 0.11341 0.0
C688 C 0.47369 0.34768 0.14755 0.0
C689 C 0.14998 0.50002 0.92724 0.0
C690 C 0.15229 0.50437 1.0075 0.0
C691 C 0.12435 0.4989 0.89025 0.0
C692 C 0.0997 0.50198 0.93165 0.0
H693 H 0.16818 0.49718 0.89239 0.0
H694 H 0.1239 0.49539 0.82853 0.0
S695 S 0.09415 0.51558 0.14309 0.0
N696 N 0.1273 0.51321 0.12696 0.0
N697 N 0.07952 0.51055 0.05825 0.0
C698 C 0.1017 0.50655 1.01198 0.0
C699 C 0.12779 0.50786 0.04956 0.0
C700 C 1.00447 0.88988 0.62019 0.0
C701 C 1.01058 0.87048 0.66156 0.0
C702 C 1.00692 0.91556 0.65362 0.0
C703 C 1.01582 0.92289 0.72966 0.0
H704 H 0.9974 0.88516 0.56176 0.0
H705 H 1.00182 0.92974 0.61928 0.0
S706 S 0.03646 0.87895 0.86008 0.0
N707 N 0.02709 0.86007 0.78092 0.0
N708 N 0.03197 0.90813 0.84398 0.0
C709 C 1.0224 0.90351 0.77119 0.0
C710 C 1.01972 0.87739 0.73712 0.0
C711 C 0.65326 0.01316 0.71026 0.0
C712 C 0.65579 0.00386 0.63143 0.0
C713 C 0.62825 0.01222 0.74888 0.0
C714 C 0.60456 0.00172 0.71074 0.0
H715 H 0.67066 0.0217 0.74231 0.0
H716 H 0.62753 0.01998 0.8092 0.0
S717 S 0.60068 0.97332 0.50471 0.0
N718 N 0.63261 0.98276 0.51737 0.0
N719 N 0.58594 0.98104 0.58871 0.0
C720 C 0.60704 0.99193 0.63195 0.0
C721 C 0.63245 0.99301 0.59275 0.0
C722 C 0.56139 0.63277 0.38656 0.0
C723 C 0.56062 0.65743 0.42976 0.0
C724 C 0.56281 0.61134 0.42213 0.0
C725 C 0.56303 0.61381 0.50214 0.0
H726 H 0.56155 0.63006 0.32488 0.0
H727 H 0.56371 0.5927 0.38679 0.0
S728 S 0.56032 0.67419 0.64076 0.0
N729 N 0.5594 0.68304 0.55657 0.0
N730 N 0.56202 0.64291 0.62328 0.0
C731 C 0.56171 0.63836 0.54581 0.0
C732 C 0.56054 0.66012 0.50968 0.0
C733 C 0.90559 0.47821 0.67073 0.0
C734 C 0.89908 0.49618 0.62425 0.0
C735 C 0.93013 0.47949 0.71288 0.0
C736 C 0.94938 0.49877 0.71044 0.0
H737 H 0.89141 0.46315 0.67536 0.0
H738 H 0.93393 0.46524 0.74799 0.0
S739 S 0.94321 0.54918 0.59174 0.0
N740 N 0.91468 0.53296 0.57473 0.0
N741 N 0.96054 0.53553 0.65343 0.0
C742 C 0.94326 0.51664 0.66302 0.0
C743 C 0.91825 0.51531 0.62021 0.0
loop_
_geom_bond_atom_site_label_1
_geom_bond_atom_site_label_2
_geom_bond_distance
_geom_bond_site_symmetry_2
_ccdc_geom_bond_type
C0 C1 1.264 . S
C0 C5 1.479 . S
C0 C10 1.465 . S
C1 C0 1.264 . S
C1 C3 1.339 . S
C1 H28 0.931 . S
C2 C3 1.395 . S
C2 C4 1.320 . S
C3 C1 1.339 . S
C3 C2 1.395 . S
C3 H29 0.929 . S
C4 C2 1.320 . S
C4 C5 1.405 . S
C4 H30 0.930 . S
C5 C0 1.479 . S
C5 C4 1.405 . S
C5 H31 0.931 . S
U6 O7 2.454 . S
U6 O8 2.458 . S
U6 C9 2.984 . S
U6 C10 2.847 . S
U6 C23 2.882 . S
U6 O24 2.441 . S
U6 O25 2.420 . S
U6 O26 2.455 . S
U6 O27 2.449 . S
O7 U6 2.454 . S
O7 C9 1.353 . S
O8 U6 2.458 . S
O8 C9 1.286 . S
C9 U6 2.984 . S
C9 O7 1.353 . S
C9 O8 1.286 . S
C9 C11 1.363 . S
C10 C0 1.465 . S
C10 U6 2.847 . S
C10 O24 1.249 . S
C10 O25 1.202 . S
C11 C9 1.363 . S
C11 C13 1.408 . S
C11 C16 1.342 . S
C12 C13 1.310 . S
C12 C15 1.461 . S
C12 H32 0.932 . S
C13 C11 1.408 . S
C13 C12 1.310 . S
C13 H33 0.930 . S
C14 C15 1.474 . S
C14 C16 1.285 . S
C14 H34 0.929 . S
C15 C12 1.461 . S
C15 C14 1.474 . S
C16 C11 1.342 . S
C16 C14 1.285 . S
C16 H35 0.930 . S
C17 C20 1.424 . S
C17 C22 1.245 . S
C17 C23 1.428 . S
C18 C21 1.260 . S
C18 C22 1.477 . S
C18 H36 0.932 . S
C19 C20 1.384 . S
C19 C21 1.479 . S
C19 H37 0.929 . S
C20 C17 1.424 . S
C20 C19 1.384 . S
C20 H38 0.928 . S
C21 C18 1.260 . S
C21 C19 1.479 . S
C22 C17 1.245 . S
C22 C18 1.477 . S
C22 H39 0.932 . S
C23 U6 2.882 . S
C23 C17 1.428 . S
C23 O26 1.301 . S
C23 O27 1.282 . S
O24 U6 2.441 . S
O24 C10 1.249 . S
O25 U6 2.420 . S
O25 C10 1.202 . S
O26 U6 2.455 . S
O26 C23 1.301 . S
O27 U6 2.449 . S
O27 C23 1.282 . S
H28 C1 0.931 . S
H29 C3 0.929 . S
H30 C4 0.930 . S
H31 C5 0.931 . S
H32 C12 0.932 . S
H33 C13 0.930 . S
H34 C14 0.929 . S
H35 C16 0.930 . S
H36 C18 0.932 . S
H37 C19 0.929 . S
H38 C20 0.928 . S
H39 C22 0.932 . S
C40 C41 1.264 . S
C40 C45 1.479 . S
C40 C50 1.465 . S
C41 C40 1.264 . S
C41 C43 1.339 . S
C41 H68 0.931 . S
C42 C43 1.395 1_655 S
C42 C44 1.320 . S
C43 C41 1.339 . S
C43 C42 1.395 1_455 S
C43 H69 0.929 . S
C44 C42 1.320 . S
C44 C45 1.405 1_655 S
C44 H70 0.930 . S
C45 C40 1.479 . S
C45 C44 1.405 1_455 S
C45 H71 0.931 . S
U46 O47 2.454 . S
U46 O48 2.458 . S
U46 C49 2.984 . S
U46 C50 2.847 . S
U46 C63 2.882 . S
U46 O64 2.441 . S
U46 O65 2.420 . S
U46 O66 2.455 . S
U46 O67 2.449 . S
O47 U46 2.454 . S
O47 C49 1.353 . S
O48 U46 2.458 . S
O48 C49 1.286 . S
C49 U46 2.984 . S
C49 O47 1.353 . S
C49 O48 1.286 . S
C49 C51 1.363 1_455 S
C50 C40 1.465 . S
C50 U46 2.847 . S
C50 O64 1.249 . S
C50 O65 1.202 . S
C51 C49 1.363 1_655 S
C51 C53 1.408 . S
C51 C56 1.342 . S
C52 C53 1.310 . S
C52 C55 1.461 . S
C52 H72 0.932 . S
C53 C51 1.408 . S
C53 C52 1.310 . S
C53 H73 0.931 . S
C54 C55 1.474 . S
C54 C56 1.285 . S
C54 H74 0.929 . S
C55 C52 1.461 . S
C55 C54 1.474 . S
C56 C51 1.342 . S
C56 C54 1.285 . S
C56 H75 0.930 . S
C57 C60 1.424 . S
C57 C62 1.245 . S
C57 C63 1.428 . S
C58 C61 1.260 1_455 S
C58 C62 1.477 . S
C58 H76 0.932 . S
C59 C60 1.384 . S
C59 C61 1.479 1_455 S
C59 H77 0.929 . S
C60 C57 1.424 . S
C60 C59 1.384 . S
C60 H78 0.928 . S
C61 C58 1.260 1_655 S
C61 C59 1.479 1_655 S
C62 C57 1.245 . S
C62 C58 1.477 . S
C62 H79 0.932 . S
C63 U46 2.882 . S
C63 C57 1.428 . S
C63 O66 1.301 . S
C63 O67 1.282 . S
O64 U46 2.441 . S
O64 C50 1.249 . S
O65 U46 2.420 . S
O65 C50 1.202 . S
O66 U46 2.455 . S
O66 C63 1.301 . S
O67 U46 2.449 . S
O67 C63 1.282 . S
H68 C41 0.931 . S
H69 C43 0.929 . S
H70 C44 0.930 . S
H71 C45 0.931 . S
H72 C52 0.932 . S
H73 C53 0.931 . S
H74 C54 0.929 . S
H75 C56 0.930 . S
H76 C58 0.932 . S
H77 C59 0.929 . S
H78 C60 0.928 . S
H79 C62 0.932 . S
C80 C81 1.264 . S
C80 C85 1.479 . S
C80 C90 1.465 . S
C81 C80 1.264 . S
C81 C83 1.339 . S
C81 H108 0.931 . S
C82 C83 1.395 . S
C82 C84 1.320 . S
C83 C81 1.339 . S
C83 C82 1.395 . S
C83 H109 0.929 . S
C84 C82 1.320 . S
C84 C85 1.405 . S
C84 H110 0.915 1_545 S
C85 C80 1.479 . S
C85 C84 1.405 . S
C85 H111 0.931 . S
U86 O87 2.454 . S
U86 O88 2.458 . S
U86 C89 2.984 . S
U86 C90 2.847 . S
U86 C103 2.882 . S
U86 O104 2.441 . S
U86 O105 2.420 . S
U86 O106 2.455 . S
U86 O107 2.449 . S
O87 U86 2.454 . S
O87 C89 1.353 . S
O88 U86 2.458 . S
O88 C89 1.286 . S
C89 U86 2.984 . S
C89 O87 1.353 . S
C89 O88 1.286 . S
C89 C91 1.363 . S
C90 C80 1.465 . S
C90 U86 2.847 . S
C90 O104 1.249 . S
C90 O105 1.202 . S
C91 C89 1.363 . S
C91 C93 1.408 . S
C91 C96 1.342 . S
C92 C93 1.310 . S
C92 C95 1.460 . S
C92 H112 0.932 . S
C93 C91 1.408 . S
C93 C92 1.310 . S
C93 H113 0.930 . S
C94 C95 1.475 1_565 S
C94 C96 1.285 1_565 S
C94 H114 0.929 . S
C95 C92 1.460 . S
C95 C94 1.475 1_545 S
C96 C91 1.342 . S
C96 C94 1.285 1_545 S
C96 H115 0.928 . S
C97 C100 1.424 . S
C97 C102 1.245 . S
C97 C103 1.428 . S
C98 C101 1.260 . S
C98 C102 1.477 . S
C98 H116 0.932 . S
C99 C100 1.384 . S
C99 C101 1.479 . S
C99 H117 0.929 . S
C100 C97 1.424 . S
C100 C99 1.384 . S
C100 H118 0.928 . S
C101 C98 1.260 . S
C101 C99 1.479 . S
C102 C97 1.245 . S
C102 C98 1.477 . S
C102 H119 0.932 . S
C103 U86 2.882 . S
C103 C97 1.428 . S
C103 O106 1.301 . S
C103 O107 1.282 . S
O104 U86 2.441 . S
O104 C90 1.249 . S
O105 U86 2.420 . S
O105 C90 1.202 . S
O106 U86 2.455 . S
O106 C103 1.301 . S
O107 U86 2.449 . S
O107 C103 1.282 . S
H108 C81 0.931 . S
H109 C83 0.929 . S
H110 C84 0.915 1_565 S
H111 C85 0.931 . S
H112 C92 0.932 . S
H113 C93 0.930 . S
H114 C94 0.929 . S
H115 C96 0.928 . S
H116 C98 0.932 . S
H117 C99 0.929 . S
H118 C100 0.928 . S
H119 C102 0.932 . S
C120 C121 1.264 . S
C120 C125 1.479 . S
C120 C130 1.465 . S
C121 C120 1.264 . S
C121 C123 1.339 . S
C121 H148 0.931 . S
C122 C123 1.395 . S
C122 C124 1.320 . S
C123 C121 1.339 . S
C123 C122 1.395 . S
C123 H149 0.929 . S
C124 C122 1.320 . S
C124 C125 1.405 . S
C124 H150 0.930 . S
C125 C120 1.479 . S
C125 C124 1.405 . S
C125 H151 0.931 . S
U126 O127 2.454 . S
U126 O128 2.458 1_554 S
U126 C129 2.984 1_554 S
U126 C130 2.847 . S
U126 C143 2.882 1_554 S
U126 O144 2.441 . S
U126 O145 2.420 . S
U126 O146 2.455 1_554 S
U126 O147 2.449 1_554 S
O127 U126 2.454 . S
O127 C129 1.353 1_554 S
O128 U126 2.458 1_556 S
O128 C129 1.286 . S
C129 U126 2.984 1_556 S
C129 O127 1.353 1_556 S
C129 O128 1.286 . S
C129 C131 1.363 . S
C130 C120 1.465 . S
C130 U126 2.847 . S
C130 O144 1.249 . S
C130 O145 1.202 . S
C131 C129 1.363 . S
C131 C133 1.408 1_556 S
C131 C136 1.342 . S
C132 C133 1.310 . S
C132 C135 1.461 1_554 S
C132 H152 0.932 . S
C133 C131 1.408 1_554 S
C133 C132 1.310 . S
C133 H153 0.930 . S
C134 C135 1.474 . S
C134 C136 1.285 . S
C134 H154 0.929 . S
C135 C132 1.461 1_556 S
C135 C134 1.474 . S
C136 C131 1.342 . S
C136 C134 1.285 . S
C136 H155 0.930 . S
C137 C140 1.424 . S
C137 C142 1.245 . S
C137 C143 1.428 . S
C138 C141 1.260 . S
C138 C142 1.477 . S
C138 H156 0.932 . S
C139 C140 1.384 . S
C139 C141 1.479 . S
C139 H157 0.929 . S
C140 C137 1.424 . S
C140 C139 1.384 . S
C140 H158 0.928 . S
C141 C138 1.260 . S
C141 C139 1.479 . S
C142 C137 1.245 . S
C142 C138 1.477 . S
C142 H159 0.932 . S
C143 U126 2.882 1_556 S
C143 C137 1.428 . S
C143 O146 1.301 . S
C143 O147 1.282 . S
O144 U126 2.441 . S
O144 C130 1.249 . S
O145 U126 2.420 . S
O145 C130 1.202 . S
O146 U126 2.455 1_556 S
O146 C143 1.301 . S
O147 U126 2.449 1_556 S
O147 C143 1.282 . S
H148 C121 0.931 . S
H149 C123 0.929 . S
H150 C124 0.930 . S
H151 C125 0.931 . S
H152 C132 0.932 . S
H153 C133 0.930 . S
H154 C134 0.929 . S
H155 C136 0.930 . S
H156 C138 0.932 . S
H157 C139 0.929 . S
H158 C140 0.928 . S
H159 C142 0.932 . S
C160 C161 1.264 . S
C160 C165 1.479 . S
C160 C170 1.465 1_556 S
C161 C160 1.264 . S
C161 C163 1.339 . S
C161 H188 0.931 . S
C162 C163 1.395 . S
C162 C164 1.320 . S
C163 C161 1.339 . S
C163 C162 1.395 . S
C163 H189 0.929 . S
C164 C162 1.320 . S
C164 C165 1.405 . S
C164 H190 0.930 . S
C165 C160 1.479 . S
C165 C164 1.405 . S
C165 H191 0.931 . S
U166 O167 2.454 . S
U166 O168 2.458 . S
U166 C169 2.984 . S
U166 C170 2.847 . S
U166 C183 2.882 . S
U166 O184 2.441 . S
U166 O185 2.420 . S
U166 O186 2.455 . S
U166 O187 2.449 . S
O167 U166 2.454 . S
O167 C169 1.353 . S
O168 U166 2.458 . S
O168 C169 1.286 . S
C169 U166 2.984 . S
C169 O167 1.353 . S
C169 O168 1.286 . S
C169 C171 1.363 . S
C170 C160 1.465 1_554 S
C170 U166 2.847 . S
C170 O184 1.249 . S
C170 O185 1.202 . S
C171 C169 1.363 . S
C171 C173 1.408 . S
C171 C176 1.342 . S
C172 C173 1.310 . S
C172 C175 1.461 . S
C172 H192 0.932 . S
C173 C171 1.408 . S
C173 C172 1.310 . S
C173 H193 0.930 . S
C174 C175 1.474 . S
C174 C176 1.285 . S
C174 H194 0.929 . S
C175 C172 1.461 . S
C175 C174 1.474 . S
C176 C171 1.342 . S
C176 C174 1.285 . S
C176 H195 0.930 . S
C177 C180 1.424 . S
C177 C182 1.245 . S
C177 C183 1.428 . S
C178 C181 1.260 . S
C178 C182 1.477 . S
C178 H196 0.932 . S
C179 C180 1.384 . S
C179 C181 1.479 . S
C179 H197 0.929 . S
C180 C177 1.424 . S
C180 C179 1.384 . S
C180 H198 0.928 . S
C181 C178 1.260 . S
C181 C179 1.479 . S
C182 C177 1.245 . S
C182 C178 1.477 . S
C182 H199 0.932 . S
C183 U166 2.882 . S
C183 C177 1.428 . S
C183 O186 1.301 . S
C183 O187 1.282 . S
O184 U166 2.441 . S
O184 C170 1.249 . S
O185 U166 2.420 . S
O185 C170 1.202 . S
O186 U166 2.455 . S
O186 C183 1.301 . S
O187 U166 2.449 . S
O187 C183 1.282 . S
H188 C161 0.931 . S
H189 C163 0.929 . S
H190 C164 0.930 . S
H191 C165 0.931 . S
H192 C172 0.932 . S
H193 C173 0.930 . S
H194 C174 0.929 . S
H195 C176 0.930 . S
H196 C178 0.932 . S
H197 C179 0.929 . S
H198 C180 0.928 . S
H199 C182 0.932 . S
C200 C201 1.264 . S
C200 C205 1.479 . S
C200 C210 1.465 1_556 S
C201 C200 1.264 . S
C201 C203 1.339 . S
C201 H228 0.931 1_556 S
C202 C203 1.395 . S
C202 C204 1.320 . S
C203 C201 1.339 . S
C203 C202 1.395 . S
C203 H229 0.929 . S
C204 C202 1.320 . S
C204 C205 1.405 . S
C204 H230 0.930 . S
C205 C200 1.479 . S
C205 C204 1.405 . S
C205 H231 0.931 . S
U206 O207 2.454 . S
U206 O208 2.458 . S
U206 C209 2.984 . S
U206 C210 2.847 . S
U206 C223 2.882 . S
U206 O224 2.441 . S
U206 O225 2.420 . S
U206 O226 2.455 . S
U206 O227 2.449 . S
O207 U206 2.454 . S
O207 C209 1.353 . S
O208 U206 2.458 . S
O208 C209 1.286 . S
C209 U206 2.984 . S
C209 O207 1.353 . S
C209 O208 1.286 . S
C209 C211 1.363 . S
C210 C200 1.465 1_554 S
C210 U206 2.847 . S
C210 O224 1.249 . S
C210 O225 1.202 . S
C211 C209 1.363 . S
C211 C213 1.408 . S
C211 C216 1.342 . S
C212 C213 1.310 . S
C212 C215 1.461 . S
C212 H232 0.932 . S
C213 C211 1.408 . S
C213 C212 1.310 . S
C213 H233 0.930 . S
C214 C215 1.474 . S
C214 C216 1.285 . S
C214 H234 0.929 . S
C215 C212 1.461 . S
C215 C214 1.474 . S
C216 C211 1.342 . S
C216 C214 1.285 . S
C216 H235 0.930 . S
C217 C220 1.424 . S
C217 C222 1.245 . S
C217 C223 1.428 . S
C218 C221 1.260 . S
C218 C222 1.477 . S
C218 H236 0.932 . S
C219 C220 1.384 . S
C219 C221 1.479 . S
C219 H237 0.929 . S
C220 C217 1.424 . S
C220 C219 1.384 . S
C220 H238 0.928 . S
C221 C218 1.260 . S
C221 C219 1.479 . S
C222 C217 1.245 . S
C222 C218 1.477 . S
C222 H239 0.932 . S
C223 U206 2.882 . S
C223 C217 1.428 . S
C223 O226 1.301 . S
C223 O227 1.282 . S
O224 U206 2.441 . S
O224 C210 1.249 . S
O225 U206 2.420 . S
O225 C210 1.202 . S
O226 U206 2.455 . S
O226 C223 1.301 . S
O227 U206 2.449 . S
O227 C223 1.282 . S
H228 C201 0.931 1_554 S
H229 C203 0.929 . S
H230 C204 0.930 . S
H231 C205 0.931 . S
H232 C212 0.932 . S
H233 C213 0.930 . S
H234 C214 0.929 . S
H235 C216 0.930 . S
H236 C218 0.932 . S
H237 C219 0.929 . S
H238 C220 0.928 . S
H239 C222 0.932 . S
C240 C241 1.264 . S
C240 C245 1.479 . S
C240 C250 1.465 1_556 S
C241 C240 1.264 . S
C241 C243 1.339 . S
C241 H268 0.931 . S
C242 C243 1.395 . S
C242 C244 1.320 . S
C243 C241 1.339 . S
C243 C242 1.395 . S
C243 H269 0.929 . S
C244 C242 1.320 . S
C244 C245 1.405 . S
C244 H270 0.928 1_545 S
C245 C240 1.479 . S
C245 C244 1.405 . S
C245 H271 0.931 . S
U246 O247 2.454 . S
U246 O248 2.458 . S
U246 C249 2.984 . S
U246 C250 2.847 . S
U246 C263 2.882 . S
U246 O264 2.441 . S
U246 O265 2.420 . S
U246 O266 2.455 . S
U246 O267 2.449 . S
O247 U246 2.454 . S
O247 C249 1.353 . S
O248 U246 2.458 . S
O248 C249 1.286 . S
C249 U246 2.984 . S
C249 O247 1.353 . S
C249 O248 1.286 . S
C249 C251 1.363 . S
C250 C240 1.465 1_554 S
C250 U246 2.847 . S
C250 O264 1.249 . S
C250 O265 1.202 . S
C251 C249 1.363 . S
C251 C253 1.408 . S
C251 C256 1.342 . S
C252 C253 1.310 . S
C252 C255 1.465 . S
C252 H272 0.932 . S
C253 C251 1.408 . S
C253 C252 1.310 . S
C253 H273 0.930 . S
C254 C255 1.472 1_565 S
C254 C256 1.286 1_565 S
C254 H274 0.929 . S
C255 C252 1.465 . S
C255 C254 1.472 1_545 S
C256 C251 1.342 . S
C256 C254 1.286 1_545 S
C256 H275 0.930 . S
C257 C260 1.424 . S
C257 C262 1.245 . S
C257 C263 1.428 . S
C258 C261 1.260 . S
C258 C262 1.477 . S
C258 H276 0.932 . S
C259 C260 1.384 . S
C259 C261 1.479 . S
C259 H277 0.929 . S
C260 C257 1.424 . S
C260 C259 1.384 . S
C260 H278 0.928 . S
C261 C258 1.260 . S
C261 C259 1.479 . S
C262 C257 1.245 . S
C262 C258 1.477 . S
C262 H279 0.932 . S
C263 U246 2.882 . S
C263 C257 1.428 . S
C263 O266 1.301 . S
C263 O267 1.282 . S
O264 U246 2.441 . S
O264 C250 1.249 . S
O265 U246 2.420 . S
O265 C250 1.202 . S
O266 U246 2.455 . S
O266 C263 1.301 . S
O267 U246 2.449 . S
O267 C263 1.282 . S
H268 C241 0.931 . S
H269 C243 0.929 . S
H270 C244 0.928 1_565 S
H271 C245 0.931 . S
H272 C252 0.932 . S
H273 C253 0.930 . S
H274 C254 0.929 . S
H275 C256 0.930 . S
H276 C258 0.932 . S
H277 C259 0.929 . S
H278 C260 0.928 . S
H279 C262 0.932 . S
C280 C281 1.264 . S
C280 C285 1.479 . S
C280 C290 1.465 . S
C281 C280 1.264 . S
C281 C283 1.339 . S
C281 H308 0.931 . S
C282 C283 1.395 . S
C282 C284 1.320 . S
C283 C281 1.339 . S
C283 C282 1.395 . S
C283 H309 0.929 . S
C284 C282 1.320 . S
C284 C285 1.405 . S
C284 H310 0.930 . S
C285 C280 1.479 . S
C285 C284 1.405 . S
C285 H311 0.931 . S
U286 O287 2.454 . S
U286 O288 2.458 . S
U286 C289 2.984 . S
U286 C290 2.847 . S
U286 C303 2.882 . S
U286 O304 2.441 . S
U286 O305 2.420 . S
U286 O306 2.455 . S
U286 O307 2.449 . S
O287 U286 2.454 . S
O287 C289 1.353 . S
O288 U286 2.458 . S
O288 C289 1.286 . S
C289 U286 2.984 . S
C289 O287 1.353 . S
C289 O288 1.286 . S
C289 C291 1.363 . S
C290 C280 1.465 . S
C290 U286 2.847 . S
C290 O304 1.249 . S
C290 O305 1.202 . S
C291 C289 1.363 . S
C291 C293 1.408 . S
C291 C296 1.342 . S
C292 C293 1.310 . S
C292 C295 1.461 . S
C292 H312 0.932 . S
C293 C291 1.408 . S
C293 C292 1.310 . S
C293 H313 0.930 . S
C294 C295 1.474 . S
C294 C296 1.285 . S
C294 H314 0.929 . S
C295 C292 1.461 . S
C295 C294 1.474 . S
C296 C291 1.342 . S
C296 C294 1.285 . S
C296 H315 0.930 . S
C297 C300 1.424 . S
C297 C302 1.245 . S
C297 C303 1.428 . S
C298 C301 1.260 . S
C298 C302 1.477 . S
C298 H316 0.932 . S
C299 C300 1.384 . S
C299 C301 1.479 . S
C299 H317 0.929 . S
C300 C297 1.424 . S
C300 C299 1.384 . S
C300 H318 0.928 . S
C301 C298 1.260 . S
C301 C299 1.479 . S
C302 C297 1.245 . S
C302 C298 1.477 . S
C302 H319 0.932 . S
C303 U286 2.882 . S
C303 C297 1.428 . S
C303 O306 1.301 . S
C303 O307 1.282 . S
O304 U286 2.441 . S
O304 C290 1.249 . S
O305 U286 2.420 . S
O305 C290 1.202 . S
O306 U286 2.455 . S
O306 C303 1.301 . S
O307 U286 2.449 . S
O307 C303 1.282 . S
H308 C281 0.931 . S
H309 C283 0.929 . S
H310 C284 0.930 . S
H311 C285 0.931 . S
H312 C292 0.932 . S
H313 C293 0.930 . S
H314 C294 0.929 . S
H315 C296 0.930 . S
H316 C298 0.932 . S
H317 C299 0.929 . S
H318 C300 0.928 . S
H319 C302 0.932 . S
Tb320 C329 2.764 . S
Tb320 O330 2.325 . S
Tb320 O333 2.303 1_655 S
Tb320 O337 2.322 1_545 S
Tb320 O338 2.349 . S
Tb320 O341 2.415 . S
Tb320 O342 2.399 . S
Tb321 O331 2.322 1_565 S
Tb321 O332 2.349 . S
Tb321 O334 2.415 . S
Tb321 O335 2.399 . S
Tb321 O336 2.325 . S
Tb321 O339 2.303 1_455 S
Tb321 C350 2.764 . S
C322 O338 1.261 . S
C322 O339 1.257 1_545 S
C323 C326 1.358 . S
C323 C327 1.332 . S
C323 C329 1.504 . S
C324 C325 1.373 . S
C324 C328 1.308 . S
C325 C324 1.373 . S
C325 C326 1.429 . S
C325 H352 0.932 . S
C326 C323 1.358 . S
C326 C325 1.429 . S
C326 H353 0.930 . S
C327 C323 1.332 . S
C327 C328 1.394 . S
C327 H354 0.932 1_655 S
C328 C324 1.308 . S
C328 C327 1.394 . S
C328 H355 0.919 1_655 S
C329 Tb320 2.764 . S
C329 C323 1.504 . S
C329 O341 1.239 . S
C329 O342 1.263 . S
O330 Tb320 2.325 . S
O330 C340 1.236 1_655 S
O331 Tb321 2.322 1_545 S
O331 C340 1.257 . S
O332 Tb321 2.349 . S
O332 C343 1.261 . S
O333 Tb320 2.303 1_455 S
O333 C343 1.257 1_545 S
O334 Tb321 2.415 . S
O334 C350 1.239 . S
O335 Tb321 2.399 . S
O335 C350 1.263 . S
O336 Tb321 2.325 . S
O336 C351 1.236 1_455 S
O337 Tb320 2.322 1_565 S
O337 C351 1.257 . S
O338 Tb320 2.349 . S
O338 C322 1.261 . S
O339 Tb321 2.303 1_655 S
O339 C322 1.257 1_565 S
C340 O330 1.236 1_455 S
C340 O331 1.257 . S
O341 Tb320 2.415 . S
O341 C329 1.239 . S
O342 Tb320 2.399 . S
O342 C329 1.263 . S
C343 O332 1.261 . S
C343 O333 1.257 1_565 S
C344 C347 1.358 . S
C344 C348 1.332 . S
C344 C350 1.504 . S
C345 C346 1.373 . S
C345 C349 1.308 . S
C346 C345 1.373 . S
C346 C347 1.429 1_554 S
C346 H356 0.932 . S
C347 C344 1.358 . S
C347 C346 1.429 1_556 S
C347 H357 0.930 . S
C348 C344 1.332 . S
C348 C349 1.394 1_556 S
C348 H358 0.932 1_455 S
C349 C345 1.308 . S
C349 C348 1.394 1_554 S
C349 H359 0.929 . S
C350 Tb321 2.764 . S
C350 O334 1.239 . S
C350 O335 1.263 . S
C350 C344 1.504 . S
C351 O336 1.236 1_655 S
C351 O337 1.257 . S
H352 C325 0.932 . S
H353 C326 0.930 . S
H354 C327 0.932 1_455 S
H355 C328 0.919 1_455 S
H356 C346 0.932 . S
H357 C347 0.930 . S
H358 C348 0.932 1_655 S
H359 C349 0.929 . S
Tb360 C369 2.764 . S
Tb360 O370 2.325 . S
Tb360 O373 2.303 1_565 S
Tb360 O377 2.322 . S
Tb360 O378 2.349 . S
Tb360 O381 2.415 1_565 S
Tb360 O382 2.399 . S
Tb361 O371 2.322 . S
Tb361 O372 2.349 . S
Tb361 O374 2.415 1_545 S
Tb361 O375 2.399 . S
Tb361 O376 2.325 . S
Tb361 O379 2.303 1_545 S
Tb361 C390 2.764 . S
C362 O378 1.261 . S
C362 O379 1.257 . S
C363 C366 1.358 . S
C363 C367 1.332 1_565 S
C363 C369 1.504 . S
C364 C365 1.373 . S
C364 C368 1.325 . S
C365 C364 1.373 . S
C365 C366 1.429 . S
C365 H392 0.932 . S
C366 C363 1.358 . S
C366 C365 1.429 . S
C366 H393 0.930 . S
C367 C363 1.332 1_545 S
C367 C368 1.395 1_545 S
C367 H394 0.932 . S
C368 C364 1.325 . S
C368 C367 1.395 1_565 S
C368 H395 0.911 1_565 S
C369 Tb360 2.764 . S
C369 C363 1.504 . S
C369 O381 1.239 1_565 S
C369 O382 1.263 . S
O370 Tb360 2.325 . S
O370 C380 1.236 1_565 S
O371 Tb361 2.322 . S
O371 C380 1.257 . S
O372 Tb361 2.349 . S
O372 C383 1.261 . S
O373 Tb360 2.303 1_545 S
O373 C383 1.257 . S
O374 Tb361 2.415 1_565 S
O374 C390 1.239 1_565 S
O375 Tb361 2.399 . S
O375 C390 1.263 . S
O376 Tb361 2.325 . S
O376 C391 1.236 1_545 S
O377 Tb360 2.322 . S
O377 C391 1.257 . S
O378 Tb360 2.349 . S
O378 C362 1.261 . S
O379 Tb361 2.303 1_565 S
O379 C362 1.257 . S
C380 O370 1.236 1_545 S
C380 O371 1.257 . S
O381 Tb360 2.415 1_545 S
O381 C369 1.239 1_545 S
O382 Tb360 2.399 . S
O382 C369 1.263 . S
C383 O372 1.261 . S
C383 O373 1.257 . S
C384 C387 1.358 . S
C384 C388 1.299 1_545 S
C384 C390 1.504 1_554 S
C385 C386 1.373 . S
C385 C389 1.333 . S
C386 C385 1.373 . S
C386 C387 1.429 . S
C386 H396 0.932 . S
C387 C384 1.358 . S
C387 C386 1.429 . S
C387 H397 0.930 . S
C388 C384 1.299 1_565 S
C388 C389 1.398 1_565 S
C388 H398 0.965 1_554 S
C389 C385 1.333 . S
C389 C388 1.398 1_545 S
C389 H399 0.902 1_545 S
C390 Tb361 2.764 . S
C390 O374 1.239 1_545 S
C390 O375 1.263 . S
C390 C384 1.504 1_556 S
C391 O376 1.236 1_565 S
C391 O377 1.257 . S
H392 C365 0.932 . S
H393 C366 0.930 . S
H394 C367 0.932 . S
H395 C368 0.911 1_545 S
H396 C386 0.932 . S
H397 C387 0.930 . S
H398 C388 0.965 1_556 S
H399 C389 0.902 1_565 S
Tb400 C409 2.764 . S
Tb400 O410 2.325 . S
Tb400 O413 2.303 . S
Tb400 O417 2.322 . S
Tb400 O418 2.349 . S
Tb400 O421 2.415 . S
Tb400 O422 2.399 . S
Tb401 O411 2.322 . S
Tb401 O412 2.349 . S
Tb401 O414 2.415 . S
Tb401 O415 2.399 . S
Tb401 O416 2.325 . S
Tb401 O419 2.303 . S
Tb401 C430 2.764 . S
C402 O418 1.261 . S
C402 O419 1.257 . S
C403 C406 1.358 . S
C403 C407 1.332 . S
C403 C409 1.504 1_554 S
C404 C405 1.373 . S
C404 C408 1.308 . S
C405 C404 1.373 . S
C405 C406 1.429 . S
C405 H432 0.932 . S
C406 C403 1.358 . S
C406 C405 1.429 . S
C406 H433 0.930 . S
C407 C403 1.332 . S
C407 C408 1.394 . S
C407 H434 0.932 . S
C408 C404 1.308 . S
C408 C407 1.394 . S
C408 H435 0.929 . S
C409 Tb400 2.764 . S
C409 C403 1.504 1_556 S
C409 O421 1.239 . S
C409 O422 1.263 . S
O410 Tb400 2.325 . S
O410 C420 1.236 . S
O411 Tb401 2.322 . S
O411 C420 1.257 . S
O412 Tb401 2.349 . S
O412 C423 1.261 . S
O413 Tb400 2.303 . S
O413 C423 1.257 . S
O414 Tb401 2.415 . S
O414 C430 1.239 . S
O415 Tb401 2.399 . S
O415 C430 1.263 . S
O416 Tb401 2.325 . S
O416 C431 1.236 . S
O417 Tb400 2.322 . S
O417 C431 1.257 . S
O418 Tb400 2.349 . S
O418 C402 1.261 . S
O419 Tb401 2.303 . S
O419 C402 1.257 . S
C420 O410 1.236 . S
C420 O411 1.257 . S
O421 Tb400 2.415 . S
O421 C409 1.239 . S
O422 Tb400 2.399 . S
O422 C409 1.263 . S
C423 O412 1.261 . S
C423 O413 1.257 . S
C424 C427 1.358 . S
C424 C428 1.332 . S
C424 C430 1.504 . S
C425 C426 1.373 . S
C425 C429 1.308 . S
C426 C425 1.373 . S
C426 C427 1.429 . S
C426 H436 0.932 . S
C427 C424 1.358 . S
C427 C426 1.429 . S
C427 H437 0.930 . S
C428 C424 1.332 . S
C428 C429 1.394 . S
C428 H438 0.932 . S
C429 C425 1.308 . S
C429 C428 1.394 . S
C429 H439 0.929 . S
C430 Tb401 2.764 . S
C430 O414 1.239 . S
C430 O415 1.263 . S
C430 C424 1.504 . S
C431 O416 1.236 . S
C431 O417 1.257 . S
H432 C405 0.932 . S
H433 C406 0.930 . S
H434 C407 0.932 . S
H435 C408 0.929 . S
H436 C426 0.932 . S
H437 C427 0.930 . S
H438 C428 0.932 . S
H439 C429 0.929 . S
Tb440 C449 2.764 . S
Tb440 O450 2.325 . S
Tb440 O453 2.303 . S
Tb440 O457 2.322 1_455 S
Tb440 O458 2.349 . S
Tb440 O461 2.415 . S
Tb440 O462 2.399 . S
Tb441 O451 2.322 1_655 S
Tb441 O452 2.349 . S
Tb441 O454 2.415 . S
Tb441 O455 2.399 . S
Tb441 O456 2.325 . S
Tb441 O459 2.303 . S
Tb441 C470 2.764 . S
C442 O458 1.261 . S
C442 O459 1.257 1_455 S
C443 C446 1.358 . S
C443 C447 1.332 . S
C443 C449 1.504 . S
C444 C445 1.373 . S
C444 C448 1.308 . S
C445 C444 1.373 . S
C445 C446 1.429 . S
C445 H472 0.932 . S
C446 C443 1.358 . S
C446 C445 1.429 . S
C446 H473 0.930 . S
C447 C443 1.332 . S
C447 C448 1.394 . S
C447 H474 0.932 . S
C448 C444 1.308 . S
C448 C447 1.394 . S
C448 H475 0.929 . S
C449 Tb440 2.764 . S
C449 C443 1.504 . S
C449 O461 1.239 . S
C449 O462 1.263 . S
O450 Tb440 2.325 . S
O450 C460 1.236 . S
O451 Tb441 2.322 1_455 S
O451 C460 1.257 . S
O452 Tb441 2.349 . S
O452 C463 1.262 . S
O453 Tb440 2.303 . S
O453 C463 1.256 1_455 S
O454 Tb441 2.415 . S
O454 C470 1.239 . S
O455 Tb441 2.399 . S
O455 C470 1.263 . S
O456 Tb441 2.325 . S
O456 C471 1.236 . S
O457 Tb440 2.322 1_655 S
O457 C471 1.257 . S
O458 Tb440 2.349 . S
O458 C442 1.261 . S
O459 Tb441 2.303 . S
O459 C442 1.257 1_655 S
C460 O450 1.236 . S
C460 O451 1.257 . S
O461 Tb440 2.415 . S
O461 C449 1.239 . S
O462 Tb440 2.399 . S
O462 C449 1.263 . S
C463 O452 1.262 . S
C463 O453 1.256 1_655 S
C464 C467 1.359 . S
C464 C468 1.332 1_556 S
C464 C470 1.504 . S
C465 C466 1.373 . S
C465 C469 1.308 . S
C466 C465 1.373 . S
C466 C467 1.426 1_554 S
C466 H476 0.932 . S
C467 C464 1.359 . S
C467 C466 1.426 1_556 S
C467 H477 0.932 . S
C468 C464 1.332 1_554 S
C468 C469 1.394 . S
C468 H478 0.932 . S
C469 C465 1.308 . S
C469 C468 1.394 . S
C469 H479 0.929 . S
C470 Tb441 2.764 . S
C470 O454 1.239 . S
C470 O455 1.263 . S
C470 C464 1.504 . S
C471 O456 1.236 . S
C471 O457 1.257 . S
H472 C445 0.932 . S
H473 C446 0.930 . S
H474 C447 0.932 . S
H475 C448 0.929 . S
H476 C466 0.932 . S
H477 C467 0.932 . S
H478 C468 0.932 . S
H479 C469 0.929 . S
C480 C481 1.369 1_565 S
C480 C482 1.419 . S
C480 H484 0.930 . S
C481 C480 1.369 1_545 S
C481 C490 1.429 . S
C482 C480 1.419 . S
C482 C483 1.363 1_565 S
C482 H485 0.929 . S
C483 C482 1.363 1_545 S
C483 C489 1.428 . S
H484 C480 0.930 . S
H485 C482 0.929 . S
S486 N487 1.613 . S
S486 N488 1.610 . S
N487 S486 1.613 . S
N487 C490 1.350 . S
N488 S486 1.610 . S
N488 C489 1.351 . S
C489 C483 1.428 . S
C489 N488 1.351 . S
C489 C490 1.434 . S
C490 C481 1.429 . S
C490 N487 1.350 . S
C490 C489 1.434 . S
C491 C492 1.369 . S
C491 C493 1.419 . S
C491 H495 0.930 . S
C492 C491 1.369 . S
C492 C501 1.429 . S
C493 C491 1.419 . S
C493 C494 1.363 . S
C493 H496 0.929 . S
C494 C493 1.363 . S
C494 C500 1.428 . S
H495 C491 0.930 . S
H496 C493 0.929 . S
S497 N498 1.613 . S
S497 N499 1.610 . S
N498 S497 1.613 . S
N498 C501 1.350 . S
N499 S497 1.610 . S
N499 C500 1.351 . S
C500 C494 1.428 . S
C500 N499 1.351 . S
C500 C501 1.434 . S
C501 C492 1.429 . S
C501 N498 1.350 . S
C501 C500 1.434 . S
C502 C503 1.369 . S
C502 C504 1.419 . S
C502 H506 0.930 . S
C503 C502 1.369 . S
C503 C512 1.429 . S
C504 C502 1.419 . S
C504 C505 1.363 . S
C504 H507 0.929 . S
C505 C504 1.363 . S
C505 C511 1.428 . S
H506 C502 0.930 . S
H507 C504 0.929 . S
S508 N509 1.613 . S
S508 N510 1.610 . S
N509 S508 1.613 . S
N509 C512 1.350 . S
N510 S508 1.610 . S
N510 C511 1.351 . S
C511 C505 1.428 . S
C511 N510 1.351 . S
C511 C512 1.434 . S
C512 C503 1.429 . S
C512 N509 1.350 . S
C512 C511 1.434 . S
C513 C514 1.380 . S
C513 C515 1.417 1_455 S
C513 H517 0.923 1_455 S
C514 C513 1.380 . S
C514 C523 1.429 . S
C515 C513 1.417 1_655 S
C515 C516 1.363 1_655 S
C515 H518 0.930 . S
C516 C515 1.363 1_455 S
C516 C522 1.428 . S
H517 C513 0.923 1_655 S
H518 C515 0.930 . S
S519 N520 1.613 . S
S519 N521 1.610 . S
N520 S519 1.613 . S
N520 C523 1.350 . S
N521 S519 1.610 . S
N521 C522 1.351 . S
C522 C516 1.428 . S
C522 N521 1.351 . S
C522 C523 1.434 . S
C523 C514 1.429 . S
C523 N520 1.350 . S
C523 C522 1.434 . S
C524 C525 1.377 . S
C524 C526 1.419 . S
C524 H528 0.930 . S
C525 C524 1.377 . S
C525 C534 1.418 1_565 S
C526 C524 1.419 . S
C526 C527 1.363 . S
C526 H529 0.929 . S
C527 C526 1.363 . S
C527 C533 1.428 1_565 S
H528 C524 0.930 . S
H529 C526 0.929 . S
S530 N531 1.613 . S
S530 N532 1.610 . S
N531 S530 1.613 . S
N531 C534 1.350 . S
N532 S530 1.610 . S
N532 C533 1.351 . S
C533 C527 1.428 1_545 S
C533 N532 1.351 . S
C533 C534 1.434 . S
C534 C525 1.418 1_545 S
C534 N531 1.350 . S
C534 C533 1.434 . S
C535 C536 1.369 . S
C535 C537 1.419 . S
C535 H539 0.930 . S
C536 C535 1.369 . S
C536 C545 1.429 . S
C537 C535 1.419 . S
C537 C538 1.363 . S
C537 H540 0.929 . S
C538 C537 1.363 . S
C538 C544 1.428 . S
H539 C535 0.930 . S
H540 C537 0.929 . S
S541 N542 1.613 . S
S541 N543 1.610 . S
N542 S541 1.613 . S
N542 C545 1.350 . S
N543 S541 1.610 . S
N543 C544 1.351 . S
C544 C538 1.428 . S
C544 N543 1.351 . S
C544 C545 1.434 . S
C545 C536 1.429 . S
C545 N542 1.350 . S
C545 C544 1.434 . S
C546 C547 1.369 . S
C546 C548 1.419 . S
C546 H550 0.930 . S
C547 C546 1.369 . S
C547 C556 1.429 . S
C548 C546 1.419 . S
C548 C549 1.363 . S
C548 H551 0.929 . S
C549 C548 1.363 . S
C549 C555 1.428 . S
H550 C546 0.930 . S
H551 C548 0.929 . S
S552 N553 1.613 . S
S552 N554 1.610 . S
N553 S552 1.613 . S
N553 C556 1.350 . S
N554 S552 1.610 . S
N554 C555 1.351 . S
C555 C549 1.428 . S
C555 N554 1.351 . S
C555 C556 1.434 . S
C556 C547 1.429 . S
C556 N553 1.350 . S
C556 C555 1.434 . S
C557 C558 1.369 1_455 S
C557 C559 1.419 . S
C557 H561 0.930 . S
C558 C557 1.369 1_655 S
C558 C567 1.429 . S
C559 C557 1.419 . S
C559 C560 1.363 1_455 S
C559 H562 0.929 . S
C560 C559 1.363 1_655 S
C560 C566 1.428 . S
H561 C557 0.930 . S
H562 C559 0.929 . S
S563 N564 1.613 . S
S563 N565 1.610 . S
N564 S563 1.613 . S
N564 C567 1.350 . S
N565 S563 1.610 . S
N565 C566 1.351 . S
C566 C560 1.428 . S
C566 N565 1.351 . S
C566 C567 1.434 . S
C567 C558 1.429 . S
C567 N564 1.350 . S
C567 C566 1.434 . S
C568 C569 1.369 . S
C568 C570 1.419 1_455 S
C568 H572 0.930 . S
C569 C568 1.369 . S
C569 C578 1.429 1_455 S
C570 C568 1.419 1_655 S
C570 C571 1.363 . S
C570 H573 0.929 . S
C571 C570 1.363 . S
C571 C577 1.428 . S
H572 C568 0.930 . S
H573 C570 0.929 . S
S574 N575 1.613 . S
S574 N576 1.610 . S
N575 S574 1.613 . S
N575 C578 1.350 . S
N576 S574 1.610 . S
N576 C577 1.351 . S
C577 C571 1.428 . S
C577 N576 1.351 . S
C577 C578 1.434 . S
C578 C569 1.429 1_655 S
C578 N575 1.350 . S
C578 C577 1.434 . S
C579 C580 1.369 . S
C579 C581 1.419 1_545 S
C579 H583 0.930 . S
C580 C579 1.369 . S
C580 C589 1.429 1_545 S
C581 C579 1.419 1_565 S
C581 C582 1.363 . S
C581 H584 0.911 1_565 S
C582 C581 1.363 . S
C582 C588 1.428 . S
H583 C579 0.930 . S
H584 C581 0.911 1_545 S
S585 N586 1.613 . S
S585 N587 1.610 . S
N586 S585 1.613 . S
N586 C589 1.350 . S
N587 S585 1.610 . S
N587 C588 1.351 . S
C588 C582 1.428 . S
C588 N587 1.351 . S
C588 C589 1.434 . S
C589 C580 1.429 1_565 S
C589 N586 1.350 . S
C589 C588 1.434 . S
C590 C591 1.369 . S
C590 C592 1.419 . S
C590 H594 0.930 . S
C591 C590 1.369 . S
C591 C600 1.429 . S
C592 C590 1.419 . S
C592 C593 1.363 . S
C592 H595 0.929 . S
C593 C592 1.363 . S
C593 C599 1.428 . S
H594 C590 0.930 . S
H595 C592 0.929 . S
S596 N597 1.613 . S
S596 N598 1.610 . S
N597 S596 1.613 . S
N597 C600 1.350 . S
N598 S596 1.610 . S
N598 C599 1.351 . S
C599 C593 1.428 . S
C599 N598 1.351 . S
C599 C600 1.434 . S
C600 C591 1.429 . S
C600 N597 1.350 . S
C600 C599 1.434 . S
C601 C602 1.369 . S
C601 C603 1.419 . S
C601 H605 0.930 . S
C602 C601 1.369 . S
C602 C611 1.429 . S
C603 C601 1.419 . S
C603 C604 1.363 . S
C603 H606 0.929 . S
C604 C603 1.363 . S
C604 C610 1.428 . S
H605 C601 0.930 . S
H606 C603 0.929 . S
S607 N608 1.613 . S
S607 N609 1.610 . S
N608 S607 1.613 . S
N608 C611 1.350 . S
N609 S607 1.610 . S
N609 C610 1.351 . S
C610 C604 1.428 . S
C610 N609 1.351 . S
C610 C611 1.434 . S
C611 C602 1.429 . S
C611 N608 1.350 . S
C611 C610 1.434 . S
C612 C613 1.342 1_455 S
C612 C614 1.419 . S
C612 H616 0.930 . S
C613 C612 1.342 1_655 S
C613 C622 1.433 . S
C614 C612 1.419 . S
C614 C615 1.363 . S
C614 H617 0.929 . S
C615 C614 1.363 . S
C615 C621 1.428 . S
H616 C612 0.930 . S
H617 C614 0.929 . S
S618 N619 1.613 . S
S618 N620 1.610 1_655 S
N619 S618 1.613 . S
N619 C622 1.350 1_556 S
N620 S618 1.610 1_455 S
N620 C621 1.351 1_556 S
C621 C615 1.428 . S
C621 N620 1.351 1_554 S
C621 C622 1.434 1_455 S
C622 C613 1.433 . S
C622 N619 1.350 1_554 S
C622 C621 1.434 1_655 S
C623 C624 1.369 . S
C623 C625 1.419 1_565 S
C623 H627 0.930 . S
C624 C623 1.369 . S
C624 C633 1.429 1_565 S
C625 C623 1.419 1_545 S
C625 C626 1.363 . S
C625 H628 0.929 . S
C626 C625 1.363 . S
C626 C632 1.428 . S
H627 C623 0.930 . S
H628 C625 0.929 . S
S629 N630 1.613 . S
S629 N631 1.610 . S
N630 S629 1.613 . S
N630 C633 1.350 . S
N631 S629 1.610 . S
N631 C632 1.351 . S
C632 C626 1.428 . S
C632 N631 1.351 . S
C632 C633 1.434 . S
C633 C624 1.429 1_545 S
C633 N630 1.350 . S
C633 C632 1.434 . S
C634 C635 1.369 . S
C634 C636 1.419 . S
C634 H638 0.930 . S
C635 C634 1.369 . S
C635 C644 1.429 . S
C636 C634 1.419 . S
C636 C637 1.363 . S
C636 H639 0.929 . S
C637 C636 1.363 . S
C637 C643 1.428 . S
H638 C634 0.930 . S
H639 C636 0.929 . S
S640 N641 1.613 . S
S640 N642 1.610 . S
N641 S640 1.613 . S
N641 C644 1.350 . S
N642 S640 1.610 . S
N642 C643 1.351 . S
C643 C637 1.428 . S
C643 N642 1.351 . S
C643 C644 1.434 . S
C644 C635 1.429 . S
C644 N641 1.350 . S
C644 C643 1.434 . S
C645 C646 1.369 . S
C645 C647 1.419 . S
C645 H649 0.930 . S
C646 C645 1.369 . S
C646 C655 1.429 . S
C647 C645 1.419 . S
C647 C648 1.363 . S
C647 H650 0.929 . S
C648 C647 1.363 . S
C648 C654 1.428 . S
H649 C645 0.930 . S
H650 C647 0.929 . S
S651 N652 1.613 . S
S651 N653 1.610 . S
N652 S651 1.613 . S
N652 C655 1.350 . S
N653 S651 1.610 . S
N653 C654 1.351 . S
C654 C648 1.428 . S
C654 N653 1.351 . S
C654 C655 1.434 . S
C655 C646 1.429 . S
C655 N652 1.350 . S
C655 C654 1.434 . S
C656 C657 1.369 . S
C656 C658 1.419 . S
C656 H660 0.930 . S
C657 C656 1.369 . S
C657 C666 1.429 . S
C658 C656 1.419 . S
C658 C659 1.363 . S
C658 H661 0.929 . S
C659 C658 1.363 . S
C659 C665 1.428 . S
H660 C656 0.930 . S
H661 C658 0.929 . S
S662 N663 1.613 1_554 S
S662 N664 1.610 1_554 S
N663 S662 1.613 1_556 S
N663 C666 1.350 . S
N664 S662 1.610 1_556 S
N664 C665 1.351 . S
C665 C659 1.428 . S
C665 N664 1.351 . S
C665 C666 1.434 . S
C666 C657 1.429 . S
C666 N663 1.350 . S
C666 C665 1.434 . S
C667 C668 1.369 1_565 S
C667 C669 1.419 . S
C667 H671 0.930 . S
C668 C667 1.369 1_545 S
C668 C677 1.429 . S
C669 C667 1.419 . S
C669 C670 1.363 1_565 S
C669 H672 0.929 . S
C670 C669 1.363 1_545 S
C670 C676 1.428 . S
H671 C667 0.930 . S
H672 C669 0.929 . S
S673 N674 1.613 . S
S673 N675 1.610 . S
N674 S673 1.613 . S
N674 C677 1.350 . S
N675 S673 1.610 . S
N675 C676 1.351 . S
C676 C670 1.428 . S
C676 N675 1.351 . S
C676 C677 1.434 . S
C677 C668 1.429 . S
C677 N674 1.350 . S
C677 C676 1.434 . S
C678 C679 1.369 . S
C678 C680 1.419 . S
C678 H682 0.930 . S
C679 C678 1.369 . S
C679 C688 1.429 . S
C680 C678 1.419 . S
C680 C681 1.363 . S
C680 H683 0.929 . S
C681 C680 1.363 . S
C681 C687 1.428 . S
H682 C678 0.930 . S
H683 C680 0.929 . S
S684 N685 1.613 1_556 S
S684 N686 1.610 1_556 S
N685 S684 1.613 1_554 S
N685 C688 1.350 . S
N686 S684 1.610 1_554 S
N686 C687 1.351 . S
C687 C681 1.428 . S
C687 N686 1.351 . S
C687 C688 1.434 . S
C688 C679 1.429 . S
C688 N685 1.350 . S
C688 C687 1.434 . S
C689 C690 1.369 . S
C689 C691 1.419 . S
C689 H693 0.930 . S
C690 C689 1.369 . S
C690 C699 1.429 . S
C691 C689 1.419 . S
C691 C692 1.363 . S
C691 H694 0.929 . S
C692 C691 1.363 . S
C692 C698 1.428 . S
H693 C689 0.930 . S
H694 C691 0.929 . S
S695 N696 1.613 1_554 S
S695 N697 1.610 1_554 S
N696 S695 1.613 1_556 S
N696 C699 1.350 . S
N697 S695 1.610 1_556 S
N697 C698 1.351 . S
C698 C692 1.428 . S
C698 N697 1.351 . S
C698 C699 1.434 . S
C699 C690 1.429 . S
C699 N696 1.350 . S
C699 C698 1.434 . S
C700 C701 1.369 . S
C700 C702 1.419 . S
C700 H704 0.930 . S
C701 C700 1.369 . S
C701 C710 1.429 1_655 S
C702 C700 1.419 . S
C702 C703 1.363 . S
C702 H705 0.929 . S
C703 C702 1.363 . S
C703 C709 1.428 1_655 S
H704 C700 0.930 . S
H705 C702 0.929 . S
S706 N707 1.613 . S
S706 N708 1.610 . S
N707 S706 1.613 . S
N707 C710 1.350 . S
N708 S706 1.610 . S
N708 C709 1.351 . S
C709 C703 1.428 1_455 S
C709 N708 1.351 . S
C709 C710 1.434 . S
C710 C701 1.429 1_455 S
C710 N707 1.350 . S
C710 C709 1.434 . S
C711 C712 1.369 . S
C711 C713 1.419 . S
C711 H715 0.930 . S
C712 C711 1.369 . S
C712 C721 1.429 . S
C713 C711 1.419 . S
C713 C714 1.363 . S
C713 H716 0.929 . S
C714 C713 1.363 . S
C714 C720 1.428 . S
H715 C711 0.930 . S
H716 C713 0.929 . S
S717 N718 1.610 . S
S717 N719 1.604 1_545 S
N718 S717 1.610 . S
N718 C721 1.346 1_545 S
N719 S717 1.604 1_565 S
N719 C720 1.351 . S
C720 C714 1.428 . S
C720 N719 1.351 . S
C720 C721 1.434 . S
C721 C712 1.429 . S
C721 N718 1.346 1_565 S
C721 C720 1.434 . S
C722 C723 1.369 . S
C722 C724 1.419 . S
C722 H726 0.930 . S
C723 C722 1.369 . S
C723 C732 1.429 . S
C724 C722 1.419 . S
C724 C725 1.363 . S
C724 H727 0.929 . S
C725 C724 1.363 . S
C725 C731 1.428 . S
H726 C722 0.930 . S
H727 C724 0.929 . S
S728 N729 1.613 . S
S728 N730 1.610 . S
N729 S728 1.613 . S
N729 C732 1.350 . S
N730 S728 1.610 . S
N730 C731 1.351 . S
C731 C725 1.428 . S
C731 N730 1.351 . S
C731 C732 1.434 . S
C732 C723 1.429 . S
C732 N729 1.350 . S
C732 C731 1.434 . S
C733 C734 1.369 . S
C733 C735 1.419 . S
C733 H737 0.930 . S
C734 C733 1.369 . S
C734 C743 1.429 . S
C735 C733 1.419 . S
C735 C736 1.363 . S
C735 H738 0.929 . S
C736 C735 1.363 . S
C736 C742 1.428 . S
H737 C733 0.930 . S
H738 C735 0.929 . S
S739 N740 1.613 . S
S739 N741 1.610 . S
N740 S739 1.613 . S
N740 C743 1.350 . S
N741 S739 1.610 . S
N741 C742 1.351 . S
C742 C736 1.428 . S
C742 N741 1.351 . S
C742 C743 1.434 . S
C743 C734 1.429 . S
C743 N740 1.350 . S
C743 C742 1.434 . S
C481 C255 2.717 . S
C483 C343 3.024 1_545 S
C494 C383 1.767 . S
C492 C295 1.705 . S
C505 C402 3.088 . S
C503 C175 2.779 . S
C516 C463 2.324 1_455 S
C514 C215 2.057 . S
C527 C322 3.023 1_564 S
C525 C95 2.724 1_565 S
C536 C135 1.695 . S
C538 C362 1.772 . S
C547 C15 2.773 . S
C549 C423 3.089 1_554 S
C558 C55 2.067 . S
C560 C442 2.320 1_654 S
C571 C324 1.018 . S
C569 C221 1.091 . S
C582 C364 0.612 . S
C580 C261 0.567 . S
C593 C420 1.863 . S
C591 C301 1.626 . S
C602 C181 0.761 . S
C604 C444 0.763 . S
C613 C61 1.014 . S
C615 C345 1.009 . S
C626 C385 0.620 . S
C624 C101 0.653 1_565 S
C637 C431 1.860 . S
C635 C141 1.442 . S
C646 C21 0.744 . S
C648 C465 0.766 . S
C657 C202 2.833 . S
C659 C340 3.211 . S
C668 C242 3.482 . S
C670 C380 3.865 . S
C681 C404 2.204 . S
C679 C282 2.168 . S
C692 C460 3.862 . S
C690 C162 3.486 . S
C701 C42 2.857 . S
C703 C351 3.218 . S
C714 C391 3.865 . S
C712 C82 3.488 1_565 S
C725 C425 2.204 . S
C723 C122 2.193 . S
C734 C2 3.474 . S
C736 C471 3.862 . S
