# Generated by pormake.
# Topology gar, (4,6)-cn, num edge types: 1
# Building blocks:
#     Node 0, Type 0, BuildingBlock: GALJAG_clean_sbu_0, # of connection points: 4
#     Node 1, Type 0, BuildingBlock: GALJAG_clean_sbu_0, # of connection points: 4
#     Node 2, Type 0, BuildingBlock: GALJAG_clean_sbu_0, # of connection points: 4
#     Node 3, Type 0, BuildingBlock: GALJAG_clean_sbu_0, # of connection points: 4
#     Node 4, Type 0, BuildingBlock: GALJAG_clean_sbu_0, # of connection points: 4
#     Node 5, Type 0, BuildingBlock: GALJAG_clean_sbu_0, # of connection points: 4
#     Node 6, Type 0, BuildingBlock: GALJAG_clean_sbu_0, # of connection points: 4
#     Node 7, Type 0, BuildingBlock: GALJAG_clean_sbu_0, # of connection points: 4
#     Node 8, Type 0, BuildingBlock: GALJAG_clean_sbu_0, # of connection points: 4
#     Node 9, Type 0, BuildingBlock: GALJAG_clean_sbu_0, # of connection points: 4
#     Node 10, Type 0, BuildingBlock: GALJAG_clean_sbu_0, # of connection points: 4
#     Node 11, Type 0, BuildingBlock: GALJAG_clean_sbu_0, # of connection points: 4
#     Node 12, Type 0, BuildingBlock: GALJAG_clean_sbu_0, # of connection points: 4
#     Node 13, Type 0, BuildingBlock: GALJAG_clean_sbu_0, # of connection points: 4
#     Node 14, Type 0, BuildingBlock: GALJAG_clean_sbu_0, # of connection points: 4
#     Node 15, Type 0, BuildingBlock: GALJAG_clean_sbu_0, # of connection points: 4
#     Node 16, Type 0, BuildingBlock: GALJAG_clean_sbu_0, # of connection points: 4
#     Node 17, Type 0, BuildingBlock: GALJAG_clean_sbu_0, # of connection points: 4
#     Node 18, Type 0, BuildingBlock: GALJAG_clean_sbu_0, # of connection points: 4
#     Node 19, Type 0, BuildingBlock: GALJAG_clean_sbu_0, # of connection points: 4
#     Node 20, Type 0, BuildingBlock: GALJAG_clean_sbu_0, # of connection points: 4
#     Node 21, Type 0, BuildingBlock: GALJAG_clean_sbu_0, # of connection points: 4
#     Node 22, Type 0, BuildingBlock: GALJAG_clean_sbu_0, # of connection points: 4
#     Node 23, Type 0, BuildingBlock: GALJAG_clean_sbu_0, # of connection points: 4
#     Node 24, Type 1, BuildingBlock: BETDIP_clean_sbu_0, # of connection points: 6
#     Node 25, Type 1, BuildingBlock: BETDIP_clean_sbu_0, # of connection points: 6
#     Node 26, Type 1, BuildingBlock: BETDIP_clean_sbu_0, # of connection points: 6
#     Node 27, Type 1, BuildingBlock: BETDIP_clean_sbu_0, # of connection points: 6
#     Node 28, Type 1, BuildingBlock: BETDIP_clean_sbu_0, # of connection points: 6
#     Node 29, Type 1, BuildingBlock: BETDIP_clean_sbu_0, # of connection points: 6
#     Node 30, Type 1, BuildingBlock: BETDIP_clean_sbu_0, # of connection points: 6
#     Node 31, Type 1, BuildingBlock: BETDIP_clean_sbu_0, # of connection points: 6
#     Node 32, Type 1, BuildingBlock: BETDIP_clean_sbu_0, # of connection points: 6
#     Node 33, Type 1, BuildingBlock: BETDIP_clean_sbu_0, # of connection points: 6
#     Node 34, Type 1, BuildingBlock: BETDIP_clean_sbu_0, # of connection points: 6
#     Node 35, Type 1, BuildingBlock: BETDIP_clean_sbu_0, # of connection points: 6
#     Node 36, Type 1, BuildingBlock: BETDIP_clean_sbu_0, # of connection points: 6
#     Node 37, Type 1, BuildingBlock: BETDIP_clean_sbu_0, # of connection points: 6
#     Node 38, Type 1, BuildingBlock: BETDIP_clean_sbu_0, # of connection points: 6
#     Node 39, Type 1, BuildingBlock: BETDIP_clean_sbu_0, # of connection points: 6
#     Edge 40, Type (0, 1), BuildingBlock: AJUNOK_clean_linker_0, # of connection points: 2
#     Edge 41, Type (0, 1), BuildingBlock: AJUNOK_clean_linker_0, # of connection points: 2
#     Edge 42, Type (0, 1), BuildingBlock: AJUNOK_clean_linker_0, # of connection points: 2
#     Edge 43, Type (0, 1), BuildingBlock: AJUNOK_clean_linker_0, # of connection points: 2
#     Edge 44, Type (0, 1), BuildingBlock: AJUNOK_clean_linker_0, # of connection points: 2
#     Edge 45, Type (0, 1), BuildingBlock: AJUNOK_clean_linker_0, # of connection points: 2
#     Edge 46, Type (0, 1), BuildingBlock: AJUNOK_clean_linker_0, # of connection points: 2
#     Edge 47, Type (0, 1), BuildingBlock: AJUNOK_clean_linker_0, # of connection points: 2
#     Edge 48, Type (0, 1), BuildingBlock: AJUNOK_clean_linker_0, # of connection points: 2
#     Edge 49, Type (0, 1), BuildingBlock: AJUNOK_clean_linker_0, # of connection points: 2
#     Edge 50, Type (0, 1), BuildingBlock: AJUNOK_clean_linker_0, # of connection points: 2
#     Edge 51, Type (0, 1), BuildingBlock: AJUNOK_clean_linker_0, # of connection points: 2
#     Edge 52, Type (0, 1), BuildingBlock: AJUNOK_clean_linker_0, # of connection points: 2
#     Edge 53, Type (0, 1), BuildingBlock: AJUNOK_clean_linker_0, # of connection points: 2
#     Edge 54, Type (0, 1), BuildingBlock: AJUNOK_clean_linker_0, # of connection points: 2
#     Edge 55, Type (0, 1), BuildingBlock: AJUNOK_clean_linker_0, # of connection points: 2
#     Edge 56, Type (0, 1), BuildingBlock: AJUNOK_clean_linker_0, # of connection points: 2
#     Edge 57, Type (0, 1), BuildingBlock: AJUNOK_clean_linker_0, # of connection points: 2
#     Edge 58, Type (0, 1), BuildingBlock: AJUNOK_clean_linker_0, # of connection points: 2
#     Edge 59, Type (0, 1), BuildingBlock: AJUNOK_clean_linker_0, # of connection points: 2
#     Edge 60, Type (0, 1), BuildingBlock: AJUNOK_clean_linker_0, # of connection points: 2
#     Edge 61, Type (0, 1), BuildingBlock: AJUNOK_clean_linker_0, # of connection points: 2
#     Edge 62, Type (0, 1), BuildingBlock: AJUNOK_clean_linker_0, # of connection points: 2
#     Edge 63, Type (0, 1), BuildingBlock: AJUNOK_clean_linker_0, # of connection points: 2
#     Edge 64, Type (0, 1), BuildingBlock: AJUNOK_clean_linker_0, # of connection points: 2
#     Edge 65, Type (0, 1), BuildingBlock: AJUNOK_clean_linker_0, # of connection points: 2
#     Edge 66, Type (0, 1), BuildingBlock: AJUNOK_clean_linker_0, # of connection points: 2
#     Edge 67, Type (0, 1), BuildingBlock: AJUNOK_clean_linker_0, # of connection points: 2
#     Edge 68, Type (0, 1), BuildingBlock: AJUNOK_clean_linker_0, # of connection points: 2
#     Edge 69, Type (0, 1), BuildingBlock: AJUNOK_clean_linker_0, # of connection points: 2
#     Edge 70, Type (0, 1), BuildingBlock: AJUNOK_clean_linker_0, # of connection points: 2
#     Edge 71, Type (0, 1), BuildingBlock: AJUNOK_clean_linker_0, # of connection points: 2
#     Edge 72, Type (0, 1), BuildingBlock: AJUNOK_clean_linker_0, # of connection points: 2
#     Edge 73, Type (0, 1), BuildingBlock: AJUNOK_clean_linker_0, # of connection points: 2
#     Edge 74, Type (0, 1), BuildingBlock: AJUNOK_clean_linker_0, # of connection points: 2
#     Edge 75, Type (0, 1), BuildingBlock: AJUNOK_clean_linker_0, # of connection points: 2
#     Edge 76, Type (0, 1), BuildingBlock: AJUNOK_clean_linker_0, # of connection points: 2
#     Edge 77, Type (0, 1), BuildingBlock: AJUNOK_clean_linker_0, # of connection points: 2
#     Edge 78, Type (0, 1), BuildingBlock: AJUNOK_clean_linker_0, # of connection points: 2
#     Edge 79, Type (0, 1), BuildingBlock: AJUNOK_clean_linker_0, # of connection points: 2
#     Edge 80, Type (0, 1), BuildingBlock: AJUNOK_clean_linker_0, # of connection points: 2
#     Edge 81, Type (0, 1), BuildingBlock: AJUNOK_clean_linker_0, # of connection points: 2
#     Edge 82, Type (0, 1), BuildingBlock: AJUNOK_clean_linker_0, # of connection points: 2
#     Edge 83, Type (0, 1), BuildingBlock: AJUNOK_clean_linker_0, # of connection points: 2
#     Edge 84, Type (0, 1), BuildingBlock: AJUNOK_clean_linker_0, # of connection points: 2
#     Edge 85, Type (0, 1), BuildingBlock: AJUNOK_clean_linker_0, # of connection points: 2
#     Edge 86, Type (0, 1), BuildingBlock: AJUNOK_clean_linker_0, # of connection points: 2
#     Edge 87, Type (0, 1), BuildingBlock: AJUNOK_clean_linker_0, # of connection points: 2
#     Edge 88, Type (0, 1), BuildingBlock: AJUNOK_clean_linker_0, # of connection points: 2
#     Edge 89, Type (0, 1), BuildingBlock: AJUNOK_clean_linker_0, # of connection points: 2
#     Edge 90, Type (0, 1), BuildingBlock: AJUNOK_clean_linker_0, # of connection points: 2
#     Edge 91, Type (0, 1), BuildingBlock: AJUNOK_clean_linker_0, # of connection points: 2
#     Edge 92, Type (0, 1), BuildingBlock: AJUNOK_clean_linker_0, # of connection points: 2
#     Edge 93, Type (0, 1), BuildingBlock: AJUNOK_clean_linker_0, # of connection points: 2
#     Edge 94, Type (0, 1), BuildingBlock: AJUNOK_clean_linker_0, # of connection points: 2
#     Edge 95, Type (0, 1), BuildingBlock: AJUNOK_clean_linker_0, # of connection points: 2
#     Edge 96, Type (0, 1), BuildingBlock: AJUNOK_clean_linker_0, # of connection points: 2
#     Edge 97, Type (0, 1), BuildingBlock: AJUNOK_clean_linker_0, # of connection points: 2
#     Edge 98, Type (0, 1), BuildingBlock: AJUNOK_clean_linker_0, # of connection points: 2
#     Edge 99, Type (0, 1), BuildingBlock: AJUNOK_clean_linker_0, # of connection points: 2
#     Edge 100, Type (0, 1), BuildingBlock: AJUNOK_clean_linker_0, # of connection points: 2
#     Edge 101, Type (0, 1), BuildingBlock: AJUNOK_clean_linker_0, # of connection points: 2
#     Edge 102, Type (0, 1), BuildingBlock: AJUNOK_clean_linker_0, # of connection points: 2
#     Edge 103, Type (0, 1), BuildingBlock: AJUNOK_clean_linker_0, # of connection points: 2
#     Edge 104, Type (0, 1), BuildingBlock: AJUNOK_clean_linker_0, # of connection points: 2
#     Edge 105, Type (0, 1), BuildingBlock: AJUNOK_clean_linker_0, # of connection points: 2
#     Edge 106, Type (0, 1), BuildingBlock: AJUNOK_clean_linker_0, # of connection points: 2
#     Edge 107, Type (0, 1), BuildingBlock: AJUNOK_clean_linker_0, # of connection points: 2
#     Edge 108, Type (0, 1), BuildingBlock: AJUNOK_clean_linker_0, # of connection points: 2
#     Edge 109, Type (0, 1), BuildingBlock: AJUNOK_clean_linker_0, # of connection points: 2
#     Edge 110, Type (0, 1), BuildingBlock: AJUNOK_clean_linker_0, # of connection points: 2
#     Edge 111, Type (0, 1), BuildingBlock: AJUNOK_clean_linker_0, # of connection points: 2
#     Edge 112, Type (0, 1), BuildingBlock: AJUNOK_clean_linker_0, # of connection points: 2
#     Edge 113, Type (0, 1), BuildingBlock: AJUNOK_clean_linker_0, # of connection points: 2
#     Edge 114, Type (0, 1), BuildingBlock: AJUNOK_clean_linker_0, # of connection points: 2
#     Edge 115, Type (0, 1), BuildingBlock: AJUNOK_clean_linker_0, # of connection points: 2
#     Edge 116, Type (0, 1), BuildingBlock: AJUNOK_clean_linker_0, # of connection points: 2
#     Edge 117, Type (0, 1), BuildingBlock: AJUNOK_clean_linker_0, # of connection points: 2
#     Edge 118, Type (0, 1), BuildingBlock: AJUNOK_clean_linker_0, # of connection points: 2
#     Edge 119, Type (0, 1), BuildingBlock: AJUNOK_clean_linker_0, # of connection points: 2
#     Edge 120, Type (0, 1), BuildingBlock: AJUNOK_clean_linker_0, # of connection points: 2
#     Edge 121, Type (0, 1), BuildingBlock: AJUNOK_clean_linker_0, # of connection points: 2
#     Edge 122, Type (0, 1), BuildingBlock: AJUNOK_clean_linker_0, # of connection points: 2
#     Edge 123, Type (0, 1), BuildingBlock: AJUNOK_clean_linker_0, # of connection points: 2
#     Edge 124, Type (0, 1), BuildingBlock: AJUNOK_clean_linker_0, # of connection points: 2
#     Edge 125, Type (0, 1), BuildingBlock: AJUNOK_clean_linker_0, # of connection points: 2
#     Edge 126, Type (0, 1), BuildingBlock: AJUNOK_clean_linker_0, # of connection points: 2
#     Edge 127, Type (0, 1), BuildingBlock: AJUNOK_clean_linker_0, # of connection points: 2
#     Edge 128, Type (0, 1), BuildingBlock: AJUNOK_clean_linker_0, # of connection points: 2
#     Edge 129, Type (0, 1), BuildingBlock: AJUNOK_clean_linker_0, # of connection points: 2
#     Edge 130, Type (0, 1), BuildingBlock: AJUNOK_clean_linker_0, # of connection points: 2
#     Edge 131, Type (0, 1), BuildingBlock: AJUNOK_clean_linker_0, # of connection points: 2
#     Edge 132, Type (0, 1), BuildingBlock: AJUNOK_clean_linker_0, # of connection points: 2
#     Edge 133, Type (0, 1), BuildingBlock: AJUNOK_clean_linker_0, # of connection points: 2
#     Edge 134, Type (0, 1), BuildingBlock: AJUNOK_clean_linker_0, # of connection points: 2
#     Edge 135, Type (0, 1), BuildingBlock: AJUNOK_clean_linker_0, # of connection points: 2
# Relax obj value: 0.252
# Max RMSD: 0.359
# Mean RMSD: 0.181
data_MOF--net-gar--node1-GALJAG_clean_sbu_0--node2-BETDIP_clean_sbu_0--edge1-AJUNOK_clean_linker_0
_symmetry_space_group_name_H-M    P1
_symmetry_Int_Tables_number       1
_symmetry_cell_setting            triclinic
loop_
_symmetry_equiv_pos_as_xyz
'x, y, z'
_cell_length_a     49.434115
_cell_length_b     42.378326
_cell_length_c     39.812246
_cell_angle_alpha  97.328441
_cell_angle_beta   99.600846
_cell_angle_gamma 101.56999
loop_
_atom_site_label
_atom_site_type_symbol
_atom_site_fract_x
_atom_site_fract_y
_atom_site_fract_z
_atom_type_partial_charge
In0 In 0.04802 0.34825 0.4262 0.0
O1 O 0.07824 0.35237 0.38792 0.0
O2 O 0.0915 0.33766 0.43552 0.0
C3 C 1.00348 0.33981 0.37474 0.0
C4 C 1.02502 0.30037 0.45761 0.0
C5 C 0.05625 0.40101 0.47555 0.0
O6 O 1.01731 0.36777 0.39001 0.0
O7 O 1.01336 0.31643 0.38411 0.0
O8 O 0.06116 0.37406 0.48159 0.0
O9 O 0.0492 0.40243 0.44386 0.0
C10 C 0.09694 0.34252 0.40665 0.0
O11 O 1.02015 0.32852 0.46209 0.0
O12 O 0.04076 0.29614 0.43629 0.0
In13 In 0.10072 0.77329 0.78946 0.0
O14 O 0.07225 0.7879 0.74662 0.0
O15 O 0.09888 0.82557 0.7856 0.0
C16 C 0.10807 0.72847 0.73964 0.0
C17 C 0.15451 0.79216 0.82177 0.0
C18 C 0.05987 0.76495 0.8263 0.0
O19 O 0.10994 0.75806 0.73684 0.0
O20 O 0.10217 0.72116 0.76785 0.0
O21 O 0.08387 0.78316 0.83864 0.0
O22 O 0.05817 0.74739 0.79765 0.0
C23 C 0.08018 0.81807 0.75834 0.0
O24 O 0.14232 0.8097 0.80404 0.0
O25 O 0.13899 0.76544 0.82474 0.0
In26 In 0.5639 0.85619 0.9207 0.0
O27 O 0.57139 0.8358 0.86863 0.0
O28 O 0.60293 0.87541 0.89843 0.0
C29 C 0.50933 0.84072 0.89047 0.0
C30 C 0.58555 0.81367 0.95472 0.0
C31 C 0.56153 0.90542 0.96983 0.0
O32 O 0.52616 0.86596 0.88633 0.0
O33 O 0.52024 0.82322 0.90965 0.0
O34 O 0.55806 0.87606 0.97408 0.0
O35 O 0.56706 0.91045 0.94078 0.0
C36 C 0.59539 0.85398 0.87144 0.0
O37 O 0.59835 0.84319 0.95811 0.0
O38 O 0.56187 0.80596 0.93445 0.0
In39 In 0.59751 0.27434 0.29141 0.0
O40 O 0.61553 0.25523 0.24591 0.0
O41 O 0.58534 0.22141 0.26379 0.0
C42 C 0.57604 0.31688 0.25648 0.0
C43 C 0.56323 0.27077 0.33759 0.0
C44 C 0.65168 0.28911 0.32234 0.0
O45 O 0.56705 0.28644 0.248 0.0
O46 O 0.596 0.32566 0.28226 0.0
O47 O 0.6403 0.30826 0.30605 0.0
O48 O 0.63515 0.26277 0.32454 0.0
C49 C 0.60139 0.22637 0.24244 0.0
O50 O 0.58678 0.29064 0.34332 0.0
O51 O 0.55826 0.25063 0.30989 0.0
In52 In 0.12457 0.84013 0.2089 0.0
O53 O 0.12729 0.79994 0.16417 0.0
O54 O 0.10516 0.7851 0.20264 0.0
C55 C 0.12363 0.89565 0.17784 0.0
C56 C 0.07856 0.83691 0.24002 0.0
C57 C 0.17778 0.84381 0.24686 0.0
O58 O 0.11277 0.86683 0.16224 0.0
O59 O 0.13605 0.89649 0.20842 0.0
O60 O 0.1589 0.85478 0.25929 0.0
O61 O 0.1702 0.83181 0.21518 0.0
C62 C 0.11364 0.77635 0.17553 0.0
O63 O 0.10319 0.83902 0.2567 0.0
O64 O 0.07738 0.8369 0.20811 0.0
In65 In 0.53481 0.79849 0.49632 0.0
O66 O 0.55604 0.79682 0.44842 0.0
O67 O 0.58279 0.80867 0.49737 0.0
C68 C 0.48048 0.79211 0.4597 0.0
C69 C 0.53602 0.74322 0.52802 0.0
C70 C 0.54498 0.86258 0.52855 0.0
O71 O 0.5 0.78341 0.44663 0.0
O72 O 0.48775 0.80256 0.49186 0.0
O73 O 0.55026 0.83988 0.54457 0.0
O74 O 0.53443 0.85298 0.49692 0.0
C75 C 0.58109 0.80422 0.46516 0.0
O76 O 0.53965 0.77174 0.54458 0.0
O77 O 0.53015 0.74221 0.49577 0.0
In78 In 0.62476 0.34315 0.70846 0.0
O79 O 0.62619 0.30145 0.66425 0.0
O80 O 0.6052 0.2885 0.70428 0.0
C81 C 0.62181 0.39772 0.67607 0.0
C82 C 0.58018 0.34023 0.7419 0.0
C83 C 0.67839 0.34611 0.74481 0.0
O84 O 0.61183 0.36854 0.6611 0.0
O85 O 0.6346 0.39947 0.70667 0.0
O86 O 0.66018 0.3577 0.75804 0.0
O87 O 0.67007 0.33437 0.71312 0.0
C88 C 0.61262 0.27863 0.67676 0.0
O89 O 0.60548 0.34555 0.75775 0.0
O90 O 0.57752 0.33695 0.70948 0.0
In91 In 0.03422 0.29549 0.9962 0.0
O92 O 0.04355 0.26747 0.04302 0.0
O93 O 1.02627 0.23896 0.99429 0.0
C94 C 0.04609 0.35923 0.02997 0.0
C95 C 0.08026 0.29897 0.96548 0.0
C96 C 0.98145 0.29351 0.95718 0.0
O97 O 1.03201 0.33577 0.04111 0.0
O98 O 0.05435 0.35038 1.00272 0.0
O99 O 1.0011 0.28445 0.94478 0.0
O100 O 0.9879 0.30268 0.9895 0.0
C101 C 0.03604 0.23896 0.02563 0.0
O102 O 0.05524 0.29236 0.94845 0.0
O103 O 0.08198 0.30373 0.99781 0.0
In104 In 0.45254 0.08989 0.34039 0.0
O105 O 0.49319 0.08512 0.31244 0.0
O106 O 0.4576 0.08834 0.27917 0.0
C107 C 0.48888 0.09143 0.40721 0.0
C108 C 0.42312 0.14678 0.34211 0.0
C109 C 0.41787 1.02451 0.33834 0.0
O110 O 0.49708 0.10461 0.38257 0.0
O111 O 0.46279 0.07873 0.39877 0.0
O112 O 0.43356 0.03186 0.31706 0.0
O113 O 0.41818 0.04999 0.35888 0.0
C114 C 0.48286 0.08523 0.281 0.0
O115 O 0.41333 0.11826 0.32456 0.0
O116 O 0.44773 0.14721 0.35829 0.0
In117 In 0.28711 0.19894 0.57515 0.0
O118 O 0.3105 0.21066 0.6318 0.0
O119 O 0.28385 0.24144 0.61527 0.0
C120 C 0.29027 0.23299 0.52043 0.0
C121 C 0.33057 0.16717 0.57775 0.0
C122 C 0.23331 0.16319 0.57429 0.0
O123 O 0.29588 0.24643 0.55164 0.0
O124 O 0.28189 0.20234 0.51645 0.0
O125 O 0.24954 0.15314 0.55614 0.0
O126 O 0.24375 0.19128 0.59152 0.0
C127 C 0.30031 0.2349 0.63992 0.0
O128 O 0.30596 0.15348 0.58024 0.0
O129 O 0.33309 0.19657 0.57359 0.0
In130 In 0.18394 0.10672 0.88596 0.0
O131 O 0.16799 0.07857 0.83115 0.0
O132 O 0.14682 0.11507 0.8468 0.0
C133 C 0.15696 0.09429 0.93931 0.0
C134 C 0.21927 0.06612 0.88722 0.0
C135 C 0.22098 0.16404 0.88601 0.0
O136 O 0.16067 0.12201 0.92999 0.0
O137 O 0.16548 0.07359 0.92093 0.0
O138 O 0.22085 0.15031 0.91235 0.0
O139 O 0.20162 0.14982 0.86071 0.0
C140 C 0.14907 0.09367 0.82275 0.0
O141 O 0.22694 0.09546 0.90218 0.0
O142 O 0.194 0.05765 0.8713 0.0
In143 In 0.28455 0.97232 0.02758 0.0
O144 O 0.26954 0.93133 0.0569 0.0
O145 O 0.31223 0.95779 0.07147 0.0
C146 C 0.29126 0.93007 0.97523 0.0
C147 C 0.24104 1.00116 0.02765 0.0
C148 C 0.32484 1.02717 0.04308 0.0
O149 O 0.26754 0.9291 0.98342 0.0
O150 O 0.3105 0.9537 0.99163 0.0
O151 O 0.31178 1.01573 1.0125 0.0
O152 O 0.31678 1.01137 0.06582 0.0
C153 C 0.29334 0.93494 0.07628 0.0
O154 O 0.25447 1.00148 1.00338 0.0
O155 O 0.24804 0.98383 0.04959 0.0
In156 In 0.37358 0.43587 0.1347 0.0
O157 O 0.36407 0.38861 0.15836 0.0
O158 O 0.37861 0.43281 0.19338 0.0
C159 C 0.36117 0.39943 0.07009 0.0
C160 C 0.33001 0.46773 0.13083 0.0
C161 C 0.42764 0.4727 0.1391 0.0
O162 O 0.37759 0.39327 0.09501 0.0
O163 O 0.35081 0.42362 0.07783 0.0
O164 O 0.40976 0.4823 0.1547 0.0
O165 O 0.41861 0.4443 0.12202 0.0
C166 C 0.36998 0.40221 0.18954 0.0
O167 O 0.35418 0.48038 0.126 0.0
O168 O 0.32794 0.43929 0.13805 0.0
In169 In 0.84469 0.14898 0.13353 0.0
O170 O 0.85434 0.1294 0.08313 0.0
O171 O 0.8891 0.14684 0.12533 0.0
C172 C 0.82387 0.09201 0.15186 0.0
C173 C 0.84815 0.19074 0.19099 0.0
C174 C 0.81671 0.18484 0.0969 0.0
O175 O 0.84656 0.11072 0.16876 0.0
O176 O 0.81245 0.10183 0.12561 0.0
O177 O 0.8413 0.19576 0.11442 0.0
O178 O 0.80607 0.1551 0.09682 0.0
C179 C 0.88046 0.13411 0.09381 0.0
O180 O 0.8694 0.1902 0.17707 0.0
O181 O 0.82639 0.16887 0.17704 0.0
In182 In 0.21073 0.54714 0.36903 0.0
O183 O 0.25108 0.51972 0.38246 0.0
O184 O 0.21458 0.48873 0.35564 0.0
C185 C 0.24407 0.61304 0.36931 0.0
C186 C 0.17395 0.54592 0.3022 0.0
C187 C 0.18108 0.5516 0.42903 0.0
O188 O 0.24371 0.58744 0.3489 0.0
O189 O 0.22899 0.60566 0.39122 0.0
O190 O 0.16946 0.54337 0.39721 0.0
O191 O 0.20766 0.55709 0.4312 0.0
C192 C 0.24021 0.4901 0.36869 0.0
O193 O 0.16539 0.53744 0.3288 0.0
O194 O 0.20057 0.5536 0.30861 0.0
In195 In 0.87225 0.93763 0.63548 0.0
O196 O 0.86124 0.89027 0.65776 0.0
O197 O 0.8766 0.93308 0.69447 0.0
C198 C 0.86318 0.90411 0.56982 0.0
C199 C 0.82596 0.96462 0.63292 0.0
C200 C 0.92463 0.97708 0.63642 0.0
O201 O 0.87785 0.89642 0.59527 0.0
O202 O 0.85331 0.92872 0.57742 0.0
O203 O 0.90315 0.98775 0.64066 0.0
O204 O 0.92025 0.9464 0.63333 0.0
C205 C 0.86691 0.90257 0.68928 0.0
O206 O 0.85076 0.98109 0.64531 0.0
O207 O 0.8247 0.93491 0.62232 0.0
In208 In 0.97926 1.0212 0.32176 0.0
O209 O 1.00842 0.05407 0.29567 0.0
O210 O 0.99828 1.00398 0.27464 0.0
C211 C 1.00766 0.03433 0.38837 0.0
C212 C 0.94544 0.06299 0.31322 0.0
C213 C 0.94148 0.96379 0.31825 0.0
O214 O 1.01484 1.01639 0.36498 0.0
O215 O 0.98642 0.04532 0.378 0.0
O216 O 0.93876 0.98312 0.29702 0.0
O217 O 0.96426 0.97238 0.3403 0.0
C218 C 1.01027 0.03255 0.27196 0.0
O219 O 0.93846 0.03366 0.29839 0.0
O220 O 0.96935 0.07108 0.33292 0.0
In221 In 0.34396 0.65395 0.63421 0.0
O222 O 0.38789 0.65288 0.62373 0.0
O223 O 0.35258 0.63847 0.58192 0.0
C224 C 0.32508 0.59463 0.64881 0.0
C225 C 0.34773 0.69388 0.69301 0.0
C226 C 0.31427 0.69131 0.60249 0.0
O227 O 0.31331 0.60535 0.62342 0.0
O228 O 0.34708 0.61381 0.66692 0.0
O229 O 0.33985 0.70113 0.61696 0.0
O230 O 0.30351 0.66156 0.60235 0.0
C231 C 0.37872 0.64232 0.59175 0.0
O232 O 0.36886 0.69443 0.67863 0.0
O233 O 0.32642 0.67135 0.67926 0.0
In234 In 0.48036 0.52571 0.82688 0.0
O235 O 0.44342 0.54175 0.79714 0.0
O236 O 0.47476 0.57751 0.83319 0.0
C237 C 0.4398 0.47315 0.83038 0.0
C238 C 0.50979 0.53289 0.7752 0.0
C239 C 0.51158 0.53742 0.89211 0.0
O240 O 0.43935 0.50227 0.84121 0.0
O241 O 0.46128 0.47005 0.81792 0.0
O242 O 0.51355 0.51464 0.86936 0.0
O243 O 0.49426 0.55383 0.88168 0.0
C244 C 0.45209 0.57129 0.81121 0.0
O245 O 0.51707 0.55045 0.80461 0.0
O246 O 0.48893 0.50936 0.77256 0.0
In247 In 0.71007 0.04861 0.86857 0.0
O248 O 0.75043 1.02132 0.88121 0.0
O249 O 0.71382 0.99007 0.85506 0.0
C250 C 0.74363 0.11426 0.86888 0.0
C251 C 0.67283 0.04673 0.80211 0.0
C252 C 0.68115 0.05401 0.92911 0.0
O253 O 0.72749 0.10725 0.88979 0.0
O254 O 0.74422 0.08839 0.84949 0.0
O255 O 0.66928 0.04822 0.89736 0.0
O256 O 0.70748 0.0566 0.93084 0.0
C257 C 0.73955 0.99163 0.86775 0.0
O258 O 0.66515 0.03446 0.82748 0.0
O259 O 0.69905 0.05873 0.80949 0.0
In260 In 0.78874 0.69876 0.07512 0.0
O261 O 0.8081 0.65316 0.07069 0.0
O262 O 0.83616 0.69955 0.08257 0.0
C263 C 0.73496 0.66261 0.07391 0.0
C264 C 0.79987 0.73187 0.14109 0.0
C265 C 0.79274 0.73361 0.02099 0.0
O266 O 0.75312 0.65089 0.06074 0.0
O267 O 0.74345 0.69255 0.08623 0.0
O268 O 0.79899 0.74646 0.05236 0.0
O269 O 0.78345 0.70307 1.01646 0.0
C270 C 0.83347 0.66898 0.07734 0.0
O271 O 0.80843 0.70635 0.13294 0.0
O272 O 0.7858 0.7408 0.116 0.0
In273 In 0.95153 0.59081 0.83994 0.0
O274 O 0.91117 0.61826 0.82582 0.0
O275 O 0.94659 0.64857 0.8559 0.0
C276 C 0.9174 0.52532 0.8382 0.0
C277 C 0.9826 0.58572 0.7811 0.0
C278 C 0.98851 0.5913 0.90633 0.0
O279 O 0.9197 0.55015 0.8607 0.0
O280 O 0.93103 0.53336 0.81512 0.0
O281 O 0.99623 0.60465 0.88156 0.0
O282 O 0.96237 0.57872 0.89834 0.0
C283 C 0.9213 0.6474 0.84157 0.0
O284 O 0.99356 0.59293 0.81316 0.0
O285 O 0.95603 0.58172 0.77812 0.0
In286 In 0.78402 0.47083 0.52354 0.0
O287 O 0.77657 0.42228 0.54371 0.0
O288 O 0.79648 0.46556 0.57959 0.0
C289 C 0.79594 0.43157 0.47236 0.0
C290 C 0.73808 0.49631 0.51797 0.0
C291 C 0.82629 0.52413 0.54236 0.0
O292 O 0.7709 0.43119 0.47562 0.0
O293 O 0.81445 0.45261 0.49386 0.0
O294 O 0.81221 0.51574 0.51182 0.0
O295 O 0.81872 0.5057 0.56319 0.0
C296 C 0.7881 0.43489 0.57455 0.0
O297 O 0.75677 0.50338 0.50055 0.0
O298 O 0.74135 0.47401 0.53528 0.0
In299 In 0.684 0.60876 0.39103 0.0
O300 O 0.72689 0.59589 0.40255 0.0
O301 O 0.69061 0.55722 0.38406 0.0
C302 C 0.72114 0.66612 0.39236 0.0
C303 C 0.65186 0.59584 0.32609 0.0
C304 C 0.65624 0.59808 0.44401 0.0
O305 O 0.72368 0.64908 0.41606 0.0
O306 O 0.69896 0.65537 0.36965 0.0
O307 O 0.66062 0.5762 0.42269 0.0
O308 O 0.6645 0.62662 0.43788 0.0
C309 C 0.7169 0.56551 0.3946 0.0
O310 O 0.6464 0.61416 0.35057 0.0
O311 O 0.67291 0.58399 0.33468 0.0
Tb312 Tb 0.05702 0.04518 0.07983 0.0
Tb313 Tb 0.10291 0.09037 0.12693 0.0
C314 C 1.00977 1.01326 0.04618 0.0
C315 C 0.98567 1.02419 0.02885 0.0
C316 C 0.95915 1.01228 0.03619 0.0
C317 C 0.93903 0.03107 0.03333 0.0
C318 C 0.94553 0.06191 0.02343 0.0
C319 C 0.97031 0.07135 1.01106 0.0
C320 C 0.99027 0.05232 1.01349 0.0
C321 C 0.10298 0.0596 0.05345 0.0
C322 C 0.06162 0.12217 0.08094 0.0
C323 C 0.15144 0.12323 0.15476 0.0
C324 C 0.1742 0.13334 0.13643 0.0
C325 C 0.16673 0.13439 0.10094 0.0
C326 C 0.18234 0.12257 0.0781 0.0
C327 C 0.20516 0.1097 0.09082 0.0
C328 C 0.21611 0.11583 0.12656 0.0
C329 C 0.20059 0.12772 0.14944 0.0
C330 C 0.0586 0.07417 0.15617 0.0
C331 C 0.09898 1.0125 0.12233 0.0
O332 O 1.01543 1.02223 0.07975 0.0
O333 O 0.03244 1.0182 0.03295 0.0
O334 O 0.09315 0.07905 0.07196 0.0
O335 O 0.08678 0.03074 0.04939 0.0
O336 O 0.04477 0.09246 0.07362 0.0
O337 O 0.08755 0.12632 0.09842 0.0
O338 O 0.12969 0.13624 0.14904 0.0
O339 O 0.14386 0.09158 0.15206 0.0
O340 O 0.06756 0.05597 0.13526 0.0
O341 O 0.07584 0.10246 0.16232 0.0
O342 O 0.11537 0.04259 0.13062 0.0
O343 O 0.07323 1.00787 0.10421 0.0
H344 H 0.95523 0.99055 0.04796 0.0
H345 H 0.91991 1.02336 0.04294 0.0
H346 H 0.9754 0.09494 1.00303 0.0
H347 H 1.01046 0.06138 1.00699 0.0
H348 H 0.14656 0.13909 0.09029 0.0
H349 H 0.17417 0.11889 0.05062 0.0
H350 H 0.23416 0.1066 0.13682 0.0
H351 H 0.20683 0.12701 0.17671 0.0
Tb352 Tb 0.33491 0.80665 0.31983 0.0
Tb353 Tb 0.32436 0.83136 0.38355 0.0
C354 C 0.33617 0.79562 0.2565 0.0
C355 C 0.33316 0.81471 0.22829 0.0
C356 C 0.31578 0.79973 0.19639 0.0
C357 C 0.30961 0.81832 0.17076 0.0
C358 C 0.32057 0.85226 0.17682 0.0
C359 C 0.33879 0.86699 0.20835 0.0
C360 C 0.34503 0.84837 0.23385 0.0
C361 C 0.37266 0.7972 0.37167 0.0
C362 C 0.35785 0.88543 0.3485 0.0
C363 C 0.31802 0.84225 0.44494 0.0
C364 C 0.30918 0.82024 0.4685 0.0
C365 C 0.31548 0.78933 0.46586 0.0
C366 C 0.3066 0.768 0.48759 0.0
C367 C 0.29146 0.77727 0.51257 0.0
C368 C 0.28451 0.80792 0.51472 0.0
C369 C 0.29326 0.82928 0.4926 0.0
C370 C 0.2874 0.84076 0.33111 0.0
C371 C 0.30264 0.75217 0.35632 0.0
O372 O 0.31347 0.78771 0.26906 0.0
O373 O 0.35877 0.80571 0.28082 0.0
O374 O 0.36286 0.82263 0.37007 0.0
O375 O 0.36183 0.77709 0.34311 0.0
O376 O 0.35054 0.86123 0.32133 0.0
O377 O 0.35162 0.87831 0.37824 0.0
O378 O 0.34231 0.84135 0.43637 0.0
O379 O 0.2986 0.84189 0.41831 0.0
O380 O 0.29661 0.81509 0.33356 0.0
O381 O 0.29938 0.86191 0.35854 0.0
O382 O 0.30748 0.77715 0.38231 0.0
O383 O 0.3107 0.75851 0.32721 0.0
H384 H 0.30638 0.77377 0.19164 0.0
H385 H 0.29605 0.80623 0.14637 0.0
H386 H 0.34756 0.89309 0.21369 0.0
H387 H 0.35853 0.86047 0.25817 0.0
H388 H 0.32774 0.78181 0.44746 0.0
H389 H 0.31272 0.74478 0.48591 0.0
H390 H 0.27294 0.81554 0.53393 0.0
H391 H 0.28792 0.85294 0.49456 0.0
Tb392 Tb 0.60871 0.07355 0.59293 0.0
Tb393 Tb 0.55178 0.06592 0.61764 0.0
C394 C 0.65957 0.07348 0.59072 0.0
C395 C 0.68172 0.05486 0.59996 0.0
C396 C 0.70064 0.06329 0.63206 0.0
C397 C 0.72321 0.04788 0.63897 0.0
C398 C 0.72747 1.02361 0.61401 0.0
C399 C 0.70847 1.01517 0.58203 0.0
C400 C 0.686 0.03053 0.57512 0.0
C401 C 0.56757 0.08137 0.54008 0.0
C402 C 0.5685 1.00264 0.58495 0.0
C403 C 0.50112 0.06556 0.62151 0.0
C404 C 0.47751 0.08142 0.61021 0.0
C405 C 0.45221 0.06248 0.58937 0.0
C406 C 0.42852 0.07583 0.58187 0.0
C407 C 0.42925 0.1084 0.59558 0.0
C408 C 0.45485 0.12762 0.61563 0.0
C409 C 0.47861 0.11433 0.62289 0.0
C410 C 0.59287 0.05736 0.67025 0.0
C411 C 0.59104 0.13733 0.62367 0.0
O412 O 0.6518 0.09074 0.61566 0.0
O413 O 0.6382 0.05899 0.56573 0.0
O414 O 0.56574 0.07552 0.57063 0.0
O415 O 0.59417 0.08396 0.54001 0.0
O416 O 0.59456 1.02023 0.58863 0.0
O417 O 0.54752 1.01609 0.59135 0.0
O418 O 0.50842 0.04586 0.59826 0.0
O419 O 0.52298 0.08328 0.64402 0.0
O420 O 0.59465 0.06361 0.63984 0.0
O421 O 0.56627 0.05477 0.67015 0.0
O422 O 0.56547 0.11899 0.62136 0.0
O423 O 0.61209 0.12453 0.61593 0.0
H424 H 0.69837 0.08226 0.65165 0.0
H425 H 0.73743 0.05506 0.66386 0.0
H426 H 0.71143 0.99728 0.56181 0.0
H427 H 0.67235 1.02385 0.54983 0.0
H428 H 0.45056 0.03701 0.57937 0.0
H429 H 0.40952 0.06047 0.56552 0.0
H430 H 0.45628 0.15275 0.62671 0.0
H431 H 0.49758 0.12968 0.63928 0.0
Tb432 Tb 0.30235 0.32705 0.85022 0.0
Tb433 Tb 0.35977 0.30676 0.86047 0.0
C434 C 0.25208 0.3307 0.85185 0.0
C435 C 0.22955 0.32413 0.87258 0.0
C436 C 0.21044 0.29348 0.8662 0.0
C437 C 0.1869 0.28848 0.88194 0.0
C438 C 0.18163 0.31399 0.9044 0.0
C439 C 0.20123 0.34429 0.91177 0.0
C440 C 0.22475 0.34937 0.89589 0.0
C441 C 0.34536 0.3685 0.83709 0.0
C442 C 0.34009 0.33564 0.92618 0.0
C443 C 0.41052 0.30478 0.8599 0.0
C444 C 0.43343 0.31153 0.8398 0.0
C445 C 0.45572 0.33924 0.85176 0.0
C446 C 0.47898 0.3447 0.83561 0.0
C447 C 0.48092 0.32239 0.80724 0.0
C448 C 0.45829 0.29507 0.79463 0.0
C449 C 0.43491 0.2896 0.8108 0.0
C450 C 0.31639 0.26454 0.87203 0.0
C451 C 0.32147 0.29725 0.7844 0.0
O452 O 0.25922 0.30541 0.83629 0.0
O453 O 0.2739 0.35517 0.86399 0.0
O454 O 0.3459 0.35087 0.86013 0.0
O455 O 0.31921 0.36711 0.82384 0.0
O456 O 0.31472 0.33194 0.90671 0.0
O457 O 0.36185 0.32981 0.91306 0.0
O458 O 0.40256 0.33013 0.87405 0.0
O459 O 0.38926 0.27954 0.84821 0.0
O460 O 0.3164 0.28288 0.84965 0.0
O461 O 0.34234 0.26709 0.8873 0.0
O462 O 0.3468 0.30026 0.80383 0.0
O463 O 0.29993 0.30379 0.79761 0.0
H464 H 0.2132 0.27348 0.84824 0.0
H465 H 0.1726 0.26464 0.87621 0.0
H466 H 0.19783 0.36447 0.92893 0.0
H467 H 0.23873 0.37339 0.90113 0.0
H468 H 0.45541 0.35659 0.87408 0.0
H469 H 0.49555 0.36645 0.8455 0.0
H470 H 0.45904 0.27739 0.77282 0.0
H471 H 0.4183 0.26788 0.80098 0.0
Tb472 Tb 0.07627 0.10349 0.61032 0.0
Tb473 Tb 0.08516 0.03428 0.60058 0.0
C474 C 0.08204 0.16361 0.61268 0.0
C475 C 0.06328 0.18222 0.59651 0.0
C476 C 0.07128 0.21628 0.60175 0.0
C477 C 0.05552 0.23371 0.58204 0.0
C478 C 1.03172 0.21712 0.55684 0.0
C479 C 1.02273 0.1831 0.55337 0.0
C480 C 0.03841 0.16573 0.57322 0.0
C481 C 1.02885 0.06215 0.61575 0.0
C482 C 0.05782 0.05949 0.5356 0.0
C483 C 0.08371 0.97497 0.60014 0.0
C484 C 0.07505 0.95194 0.62252 0.0
C485 C 0.06307 0.9615 0.65062 0.0
C486 C 0.05668 0.93991 0.6733 0.0
C487 C 0.06224 0.90868 0.66792 0.0
C488 C 0.07288 0.89872 0.63871 0.0
C489 C 0.0793 0.92031 0.61614 0.0
C490 C 0.12572 0.07952 0.58636 0.0
C491 C 0.09849 0.07575 0.67616 0.0
O492 O 0.09204 0.14536 0.59084 0.0
O493 O 0.07288 0.14814 0.63649 0.0
O494 O 0.05165 0.05581 0.60984 0.0
O495 O 0.03229 0.09342 0.61767 0.0
O496 O 0.06413 0.08937 0.55382 0.0
O497 O 0.06119 0.03377 0.54983 0.0
O498 O 0.06324 0.98589 0.58368 0.0
O499 O 0.10626 0.99809 0.6137 0.0
O500 O 0.11225 0.08246 0.61049 0.0
O501 O 0.11766 0.04954 0.57071 0.0
O502 O 0.09134 0.04619 0.65713 0.0
O503 O 0.09803 0.10225 0.66207 0.0
H504 H 0.09047 0.22921 0.61965 0.0
H505 H 0.06321 0.25988 0.58463 0.0
H506 H 1.00462 0.16987 0.53388 0.0
H507 H 1.03201 0.13931 0.56904 0.0
H508 H 0.05932 0.98584 0.65545 0.0
H509 H 0.04831 0.9479 0.69556 0.0
H510 H 0.07757 0.87481 0.63431 0.0
H511 H 0.08833 0.91266 0.59432 0.0
Tb512 Tb 0.32614 0.77882 0.8495 0.0
Tb513 Tb 0.33684 0.85015 0.83767 0.0
C514 C 0.32353 0.7189 0.84484 0.0
C515 C 0.34258 0.69817 0.83542 0.0
C516 C 0.33894 0.68222 0.8012 0.0
C517 C 0.35798 0.66413 0.79187 0.0
C518 C 0.3807 0.66144 0.81673 0.0
C519 C 0.3839 0.67662 0.85106 0.0
C520 C 0.36509 0.69489 0.86032 0.0
C521 C 0.32407 0.82186 0.902 0.0
C522 C 0.38857 0.82002 0.85341 0.0
C523 C 0.3403 0.91025 0.84 0.0
C524 C 0.32441 0.9333 0.85247 0.0
C525 C 0.30186 0.92289 0.86862 0.0
C526 C 0.28622 0.94477 0.8795 0.0
C527 C 0.29307 0.97737 0.87447 0.0
C528 C 0.31614 0.98791 0.85907 0.0
C529 C 0.33174 0.96595 0.84816 0.0
C530 C 0.33702 0.80578 0.7852 0.0
C531 C 0.27459 0.80951 0.83575 0.0
O532 O 0.31194 0.7322 0.81989 0.0
O533 O 0.33234 0.7394 0.87411 0.0
O534 O 0.34037 0.8256 0.88095 0.0
O535 O 0.30995 0.79176 0.89589 0.0
O536 O 0.37133 0.79076 0.84837 0.0
O537 O 0.37957 0.8473 0.85511 0.0
O538 O 0.35398 0.89771 0.86403 0.0
O539 O 0.32694 0.88833 0.81294 0.0
O540 O 0.32136 0.80359 0.80681 0.0
O541 O 0.3529 0.83499 0.79111 0.0
O542 O 0.2922 0.83858 0.84133 0.0
O543 O 0.28329 0.782 0.83271 0.0
H544 H 0.32145 0.68383 0.78164 0.0
H545 H 0.355 0.65229 0.76533 0.0
H546 H 0.40074 0.67393 0.87094 0.0
H547 H 0.36825 0.70642 0.887 0.0
H548 H 0.29619 0.89782 0.87249 0.0
H549 H 0.26852 0.93614 0.89132 0.0
H550 H 0.32145 1.0128 0.85432 0.0
H551 H 0.34918 0.9743 0.8358 0.0
Tb552 Tb 0.56183 0.08079 0.08129 0.0
Tb553 Tb 0.60112 0.05561 0.12772 0.0
C554 C 0.51916 0.08516 0.03976 0.0
C555 C 0.49181 0.09299 0.04048 0.0
C556 C 0.46989 0.07991 1.01201 0.0
C557 C 0.44228 0.08069 1.01455 0.0
C558 C 0.43633 0.09459 0.04567 0.0
C559 C 0.45868 0.11063 0.07296 0.0
C560 C 0.48632 0.10947 0.07052 0.0
C561 C 0.5984 0.12733 0.12705 0.0
C562 C 0.54647 0.06953 0.15845 0.0
C563 C 0.64235 0.04794 0.16949 0.0
C564 C 0.66832 0.03648 0.16941 0.0
C565 C 0.68287 0.03004 0.20019 0.0
C566 C 0.7102 1.02519 0.20228 0.0
C567 C 0.72335 1.02744 0.17372 0.0
C568 C 0.70746 0.0306 0.14198 0.0
C569 C 0.6801 0.03497 0.13984 0.0
C570 C 0.5646 1.00961 0.08101 0.0
C571 C 0.61717 0.06865 0.05132 0.0
O572 O 0.52218 0.05822 0.05137 0.0
O573 O 0.54147 0.10915 0.05066 0.0
O574 O 0.58658 0.09938 0.13134 0.0
O575 O 0.58911 0.12976 0.0952 0.0
O576 O 0.53756 0.07505 0.1261 0.0
O577 O 0.57203 0.06289 0.16506 0.0
O578 O 0.64152 0.07516 0.15726 0.0
O579 O 0.61883 1.02577 0.15895 0.0
O580 O 0.57685 0.0375 0.07743 0.0
O581 O 0.5734 1.00653 0.11273 0.0
O582 O 0.62593 0.06277 0.08358 0.0
O583 O 0.59152 0.075 0.04446 0.0
H584 H 0.47388 0.06708 0.98864 0.0
H585 H 0.42542 0.06796 0.9932 0.0
H586 H 0.45454 0.122 0.09692 0.0
H587 H 0.50309 0.11965 0.09268 0.0
H588 H 0.67374 0.03061 0.22313 0.0
H589 H 0.7217 1.02206 0.22681 0.0
H590 H 0.71692 0.03256 0.11946 0.0
H591 H 0.66887 0.03932 0.11576 0.0
Tb592 Tb 0.30717 0.29688 0.33442 0.0
Tb593 Tb 0.35584 0.3395 0.37755 0.0
C594 C 0.25653 0.26702 0.31649 0.0
C595 C 0.23267 0.27707 0.329 0.0
C596 C 0.2374 0.29578 0.36207 0.0
C597 C 0.21568 0.30714 0.37404 0.0
C598 C 0.18852 0.29952 0.35354 0.0
C599 C 0.18374 0.28109 0.32022 0.0
C600 C 0.20575 0.26996 0.30798 0.0
C601 C 0.34123 0.32679 0.29798 0.0
C602 C 0.30346 0.37408 0.36394 0.0
C603 C 0.40666 0.36791 0.39754 0.0
C604 C 0.43152 0.35463 0.39284 0.0
C605 C 0.4349 0.343 0.35943 0.0
C606 C 0.45608 0.32662 0.3548 0.0
C607 C 0.47432 0.32114 0.38336 0.0
C608 C 0.47175 0.33378 0.4168 0.0
C609 C 0.45039 0.35026 0.4215 0.0
C610 C 0.32119 0.30928 0.41338 0.0
C611 C 0.35991 0.2626 0.34779 0.0
O612 O 0.27455 0.25919 0.34009 0.0
O613 O 0.26913 0.2862 0.29782 0.0
O614 O 0.33529 0.33892 0.32584 0.0
O615 O 0.327 0.29664 0.28928 0.0
O616 O 0.29041 0.34308 0.34911 0.0
O617 O 0.33112 0.37926 0.37687 0.0
O618 O 0.39101 0.37206 0.36928 0.0
O619 O 0.39144 0.3544 0.41802 0.0
O620 O 0.32777 0.29741 0.38592 0.0
O621 O 0.33496 0.33963 0.42203 0.0
O622 O 0.37262 0.29309 0.36452 0.0
O623 O 0.33265 0.25783 0.33301 0.0
H624 H 0.25806 0.30195 0.37871 0.0
H625 H 0.22023 0.32213 0.39935 0.0
H626 H 0.16296 0.27499 0.30387 0.0
H627 H 0.20179 0.2559 0.28225 0.0
H628 H 0.42077 0.34579 0.33665 0.0
H629 H 0.45816 0.31815 0.3287 0.0
H630 H 0.48576 0.33015 0.43924 0.0
H631 H 0.44815 0.35881 0.4475 0.0
Tb632 Tb 0.57568 0.60417 0.1141 0.0
Tb633 Tb 0.58724 0.53286 0.10433 0.0
C634 C 0.58162 0.66456 0.11831 0.0
C635 C 0.59457 0.68804 0.09866 0.0
C636 C 0.60601 0.67731 0.07049 0.0
C637 C 0.6131 0.69832 0.04751 0.0
C638 C 0.60851 0.73007 0.05239 0.0
C639 C 0.59938 0.7415 0.08229 0.0
C640 C 0.59235 0.7205 0.10528 0.0
C641 C 0.53259 0.55986 0.12586 0.0
C642 C 0.56338 0.56119 0.03874 0.0
C643 C 0.57884 0.47212 0.09796 0.0
C644 C 0.56697 0.44785 0.11744 0.0
C645 C 0.55495 0.45711 0.1456 0.0
C646 C 0.5482 0.43505 0.16773 0.0
C647 C 0.55376 0.40379 0.16201 0.0
C648 C 0.56374 0.39394 0.13223 0.0
C649 C 0.57036 0.41592 0.11009 0.0
C650 C 0.63069 0.57709 0.09286 0.0
C651 C 0.60042 0.57564 0.17955 0.0
O652 O 0.59886 0.65104 0.13725 0.0
O653 O 0.55907 0.64338 0.10058 0.0
O654 O 0.55519 0.55591 0.11707 0.0
O655 O 0.53397 0.59091 0.1284 0.0
O656 O 0.56807 0.59079 0.0575 0.0
O657 O 0.56696 0.53517 0.05244 0.0
O658 O 0.56105 0.48725 0.08231 0.0
O659 O 0.60269 0.49193 0.11425 0.0
O660 O 0.60795 0.58128 0.10131 0.0
O661 O 0.62908 0.54593 0.09013 0.0
O662 O 0.5955 0.54605 0.16075 0.0
O663 O 0.59675 0.60185 0.16603 0.0
H664 H 0.6079 0.6522 0.0652 0.0
H665 H 0.62039 0.68917 0.02479 0.0
H666 H 0.59553 0.76586 0.08644 0.0
H667 H 0.58354 0.72901 0.12697 0.0
H668 H 0.5522 0.48181 0.15143 0.0
H669 H 0.54019 0.44297 0.19032 0.0
H670 H 0.56837 0.37002 0.12742 0.0
H671 H 0.57961 0.40857 0.08836 0.0
Tb672 Tb 0.82525 0.27894 0.34247 0.0
Tb673 Tb 0.83064 0.3486 0.32637 0.0
C674 C 0.82374 0.21949 0.34203 0.0
C675 C 0.83924 0.19617 0.32942 0.0
C676 C 0.86187 0.20602 0.31318 0.0
C677 C 0.87795 0.18398 0.304 0.0
C678 C 0.87125 0.15187 0.31062 0.0
C679 C 0.84774 0.14177 0.32537 0.0
C680 C 0.83183 0.16385 0.33473 0.0
C681 C 0.82693 0.32449 0.39481 0.0
C682 C 0.88458 0.32178 0.33587 0.0
C683 C 0.83014 0.4076 0.32811 0.0
C684 C 0.81361 0.4289 0.34321 0.0
C685 C 0.82695 0.45387 0.37122 0.0
C686 C 0.81167 0.47429 0.38598 0.0
C687 C 0.78285 0.47031 0.37267 0.0
C688 C 0.76944 0.44511 0.34487 0.0
C689 C 0.78463 0.42445 0.33041 0.0
C690 C 0.82932 0.30285 0.27449 0.0
C691 C 0.77157 0.30624 0.33413 0.0
O692 O 0.80861 0.23065 0.31808 0.0
O693 O 0.83791 0.24244 0.36778 0.0
O694 O 0.84027 0.32702 0.37075 0.0
O695 O 0.81324 0.29445 0.39145 0.0
O696 O 0.86846 0.29216 0.33353 0.0
O697 O 0.87453 0.34836 0.33852 0.0
O698 O 0.8472 0.39698 0.35053 0.0
O699 O 0.81681 0.38488 0.30166 0.0
O700 O 0.81567 0.3006 0.29827 0.0
O701 O 0.84289 0.33293 0.27745 0.0
O702 O 0.78773 0.33573 0.3362 0.0
O703 O 0.78137 0.27954 0.33078 0.0
H704 H 0.86752 0.23085 0.30844 0.0
H705 H 0.89601 0.19218 0.29262 0.0
H706 H 0.84248 0.11724 0.33117 0.0
H707 H 0.81426 0.15596 0.34707 0.0
H708 H 0.84928 0.45774 0.38154 0.0
H709 H 0.82247 0.49356 0.40739 0.0
H710 H 0.74741 0.44204 0.33346 0.0
H711 H 0.7737 0.40538 0.30888 0.0
Tb712 Tb 0.063 0.57944 0.58321 0.0
Tb713 Tb 0.10311 0.55488 0.62954 0.0
C714 C 1.02018 0.58502 0.543 0.0
C715 C 0.99306 0.5928 0.54532 0.0
C716 C 0.97105 0.58167 0.5167 0.0
C717 C 0.94362 0.58241 0.51994 0.0
C718 C 0.9378 0.5944 0.55194 0.0
C719 C 0.96034 0.6084 0.5798 0.0
C720 C 0.98789 0.60727 0.57662 0.0
C721 C 0.10108 0.62558 0.62719 0.0
C722 C 0.04867 0.56934 0.66078 0.0
C723 C 0.14545 0.54769 0.66979 0.0
C724 C 0.17154 0.53697 0.6675 0.0
C725 C 0.18339 0.53946 0.63813 0.0
C726 C 0.21045 0.5347 0.63845 0.0
C727 C 0.22612 0.52712 0.66807 0.0
C728 C 0.21305 0.5215 0.6962 0.0
C729 C 0.18595 0.52667 0.69599 0.0
C730 C 0.06534 0.5085 0.58543 0.0
C731 C 0.11708 0.56586 0.55155 0.0
O732 O 1.02335 0.55746 0.55302 0.0
O733 O 0.04257 0.60882 0.5542 0.0
O734 O 0.08875 0.59836 0.63247 0.0
O735 O 0.09124 0.62813 0.59556 0.0
O736 O 0.03906 0.57348 0.62814 0.0
O737 O 0.07466 0.56369 0.66741 0.0
O738 O 0.14355 0.57517 0.65863 0.0
O739 O 0.12209 0.52516 0.65979 0.0
O740 O 0.0776 0.53578 0.58014 0.0
O741 O 0.07469 0.50649 0.61733 0.0
O742 O 0.12667 0.56104 0.58402 0.0
O743 O 0.09128 0.57187 0.54521 0.0
H744 H 0.97481 0.57039 0.49242 0.0
H745 H 0.92677 0.57115 0.49805 0.0
H746 H 0.95652 0.6184 0.60454 0.0
H747 H 1.00484 0.61607 0.59897 0.0
H748 H 0.17248 0.54703 0.61574 0.0
H749 H 0.21983 0.53955 0.61637 0.0
H750 H 0.22434 0.51498 0.71906 0.0
H751 H 0.17682 0.52418 0.71871 0.0
Tb752 Tb 0.80273 0.82622 0.35066 0.0
Tb753 Tb 0.85995 0.80579 0.36141 0.0
C754 C 0.75258 0.83112 0.35113 0.0
C755 C 0.73018 0.82941 0.372 0.0
C756 C 0.72696 0.80761 0.3957 0.0
C757 C 0.70336 0.80377 0.4116 0.0
C758 C 0.68232 0.82126 0.40375 0.0
C759 C 0.68616 0.84372 0.38086 0.0
C760 C 0.70974 0.84771 0.36522 0.0
C761 C 0.84571 0.86692 0.33657 0.0
C762 C 0.84147 0.83782 0.42662 0.0
C763 C 0.91009 0.8013 0.35994 0.0
C764 C 0.93206 0.80535 0.33834 0.0
C765 C 0.93533 0.83021 0.31804 0.0
C766 C 0.9583 0.83572 0.30117 0.0
C767 C 0.97856 0.81649 0.30415 0.0
C768 C 0.97486 0.79134 0.32405 0.0
C769 C 0.95194 0.78585 0.34084 0.0
C770 C 0.81656 0.76454 0.37441 0.0
C771 C 0.82138 0.79487 0.28539 0.0
O772 O 0.75983 0.80384 0.34152 0.0
O773 O 0.77424 0.85617 0.35927 0.0
O774 O 0.84626 0.85008 0.36035 0.0
O775 O 0.81968 0.86371 0.32141 0.0
O776 O 0.81601 0.83424 0.40732 0.0
O777 O 0.86287 0.83069 0.41353 0.0
O778 O 0.90302 0.82781 0.37263 0.0
O779 O 0.88831 0.77647 0.35005 0.0
O780 O 0.81651 0.78195 0.35116 0.0
O781 O 0.84249 0.76763 0.38998 0.0
O782 O 0.84688 0.79869 0.3047 0.0
O783 O 0.79983 0.80135 0.29858 0.0
H784 H 0.74227 0.79297 0.40124 0.0
H785 H 0.70109 0.78634 0.42918 0.0
H786 H 0.67071 0.85806 0.37475 0.0
H787 H 0.71162 0.86453 0.34695 0.0
H788 H 0.92051 0.84588 0.31585 0.0
H789 H 0.96063 0.85566 0.2866 0.0
H790 H 0.98984 0.77591 0.32679 0.0
H791 H 0.95011 0.76673 0.35654 0.0
Tb792 Tb 0.83478 0.30746 0.81877 0.0
Tb793 Tb 0.82434 0.3321 0.88257 0.0
C794 C 0.83595 0.29787 0.75539 0.0
C795 C 0.82839 0.31724 0.7288 0.0
C796 C 0.81431 0.34213 0.73628 0.0
C797 C 0.80689 0.36078 0.71135 0.0
C798 C 0.81363 0.35505 0.67858 0.0
C799 C 0.82736 0.32977 0.67092 0.0
C800 C 0.83476 0.31099 0.69596 0.0
C801 C 0.87336 0.29882 0.86998 0.0
C802 C 0.85718 0.38614 0.84724 0.0
C803 C 0.81949 0.34401 0.94447 0.0
C804 C 0.80961 0.32381 0.96916 0.0
C805 C 0.82698 0.32705 1.00151 0.0
C806 C 0.82049 0.30484 0.02345 0.0
C807 C 0.79633 0.27915 1.01352 0.0
C808 C 0.77788 0.27729 0.98206 0.0
C809 C 0.78461 0.29931 0.95984 0.0
C810 C 0.78681 0.3406 0.83002 0.0
C811 C 0.80259 0.25308 0.85579 0.0
O812 O 0.81496 0.2844 0.76855 0.0
O813 O 0.85809 0.31192 0.77928 0.0
O814 O 0.86301 0.32392 0.86869 0.0
O815 O 0.86271 0.27878 0.84136 0.0
O816 O 0.84904 0.36218 0.81987 0.0
O817 O 0.85191 0.37869 0.87722 0.0
O818 O 0.84268 0.33928 0.93515 0.0
O819 O 0.80059 0.34626 0.91833 0.0
O820 O 0.79649 0.31531 0.83268 0.0
O821 O 0.79823 0.36186 0.85757 0.0
O822 O 0.80704 0.27813 0.88163 0.0
O823 O 0.81097 0.25927 0.82676 0.0
H824 H 0.80897 0.34709 0.76141 0.0
H825 H 0.79581 0.37966 0.71767 0.0
H826 H 0.83277 0.32494 0.64578 0.0
H827 H 0.84552 0.29175 0.68978 0.0
H828 H 0.84636 0.34576 1.00907 0.0
H829 H 0.83531 0.30673 0.04736 0.0
H830 H 0.75886 0.25812 0.97408 0.0
H831 H 0.77082 0.29634 0.93491 0.0
Tb832 Tb 0.80199 0.79543 0.83665 0.0
Tb833 Tb 0.85586 0.84138 0.87696 0.0
C834 C 0.7524 0.7631 0.82776 0.0
C835 C 0.72569 0.77259 0.81718 0.0
C836 C 0.70134 0.75624 0.82673 0.0
C837 C 0.67789 0.7701 0.82547 0.0
C838 C 0.67865 0.80068 0.81501 0.0
C839 C 0.70235 0.81594 0.80323 0.0
C840 C 0.72567 0.80186 0.80408 0.0
C841 C 0.8273 0.82803 0.79318 0.0
C842 C 0.80167 0.87463 0.86234 0.0
C843 C 0.90661 0.87063 0.8908 0.0
C844 C 0.92997 0.85784 0.88028 0.0
C845 C 0.92434 0.83447 0.85022 0.0
C846 C 0.94471 0.81814 0.84219 0.0
C847 C 0.97181 0.82597 0.86298 0.0
C848 C 0.97773 0.85003 0.89275 0.0
C849 C 0.9568 0.86564 0.90154 0.0
C850 C 0.82308 0.81153 0.91492 0.0
C851 C 0.85709 0.76274 0.84906 0.0
O852 O 0.76683 0.77932 0.85777 0.0
O853 O 0.76816 0.76076 0.80445 0.0
O854 O 0.83469 0.83017 0.82541 0.0
O855 O 0.80446 0.80515 0.78392 0.0
O856 O 0.78749 0.84365 0.84857 0.0
O857 O 0.82955 0.87962 0.87447 0.0
O858 O 0.88832 0.87573 0.86537 0.0
O859 O 0.89436 0.8551 0.91258 0.0
O860 O 0.82789 0.79984 0.88623 0.0
O861 O 0.83787 0.84152 0.92377 0.0
O862 O 0.8707 0.79356 0.86431 0.0
O863 O 0.82915 0.7575 0.83642 0.0
H864 H 0.70114 0.73392 0.83738 0.0
H865 H 0.65999 0.7581 0.83515 0.0
H866 H 0.70334 0.8395 0.79506 0.0
H867 H 0.74435 0.81492 0.7967 0.0
H868 H 0.90378 0.82791 0.83336 0.0
H869 H 0.93886 0.79878 0.82 0.0
H870 H 0.99844 0.85668 0.90926 0.0
H871 H 0.96142 0.88337 0.92505 0.0
Tb872 Tb 0.55421 0.55015 0.5832 0.0
Tb873 Tb 0.60144 0.5931 0.63035 0.0
C874 C 0.50632 0.52103 0.54907 0.0
C875 C 0.484 0.53388 0.53037 0.0
C876 C 0.45618 0.52182 0.53342 0.0
C877 C 0.43662 0.54118 0.52866 0.0
C878 C 0.44497 0.57284 0.52131 0.0
C879 C 0.47165 0.58294 0.51359 0.0
C880 C 0.49105 0.56329 0.51773 0.0
C881 C 0.59992 0.56321 0.55615 0.0
C882 C 0.56093 0.62768 0.58651 0.0
C883 C 0.651 0.62296 0.65738 0.0
C884 C 0.67431 0.62691 0.63865 0.0
C885 C 0.66864 0.63097 0.60378 0.0
C886 C 0.68242 0.61677 0.58015 0.0
C887 C 0.70164 0.59836 0.59127 0.0
C888 C 0.71113 0.59991 0.62688 0.0
C889 C 0.69758 0.61433 0.65059 0.0
C890 C 0.55745 0.57817 0.66043 0.0
C891 C 0.59541 0.51493 0.62269 0.0
O892 O 0.51167 0.53093 0.58249 0.0
O893 O 0.5293 0.5231 0.53655 0.0
O894 O 0.59097 0.58296 0.57541 0.0
O895 O 0.58285 0.53485 0.55147 0.0
O896 O 0.54364 0.59832 0.57808 0.0
O897 O 0.58661 0.63089 0.60439 0.0
O898 O 0.63103 0.63789 0.64817 0.0
O899 O 0.64075 0.59261 0.65948 0.0
O900 O 0.56539 0.55968 0.63866 0.0
O901 O 0.57551 0.60591 0.66687 0.0
O902 O 0.6129 0.54436 0.62987 0.0
O903 O 0.56905 0.51181 0.60718 0.0
H904 H 0.45043 0.49919 0.54319 0.0
H905 H 0.41613 0.53307 0.53498 0.0
H906 H 0.4783 0.60725 0.50778 0.0
H907 H 0.51239 0.57269 0.51471 0.0
H908 H 0.65098 0.64098 0.59387 0.0
H909 H 0.6755 0.61665 0.55291 0.0
H910 H 0.72658 0.58646 0.63602 0.0
H911 H 0.70244 0.61115 0.67734 0.0
Tb912 Tb 0.10938 0.57092 0.0905 0.0
Tb913 Tb 0.05351 0.56464 0.1169 0.0
C914 C 0.16012 0.57117 0.08698 0.0
C915 C 0.18373 0.55519 0.09802 0.0
C916 C 0.20993 0.57457 0.11591 0.0
C917 C 0.23348 0.56091 0.12315 0.0
C918 C 0.23169 0.52748 0.11211 0.0
C919 C 0.20519 0.50787 0.09511 0.0
C920 C 0.18155 0.52151 0.08811 0.0
C921 C 0.06811 0.57934 0.03822 0.0
C922 C 0.0695 0.49997 0.08553 0.0
C923 C 1.00274 0.56472 0.11985 0.0
C924 C 0.97999 0.58238 0.11002 0.0
C925 C 0.96062 0.5723 0.07834 0.0
C926 C 0.93729 0.58643 0.07114 0.0
C927 C 0.93253 0.61085 0.09553 0.0
C928 C 0.9523 0.62147 0.12679 0.0
C929 C 0.97555 0.60736 0.13399 0.0
C930 C 0.09496 0.55678 0.16937 0.0
C931 C 0.09314 0.63554 0.12192 0.0
O932 O 0.15274 0.59047 0.11053 0.0
O933 O 0.13833 0.5538 0.06413 0.0
O934 O 0.06642 0.57365 0.06893 0.0
O935 O 0.09455 0.5811 0.03779 0.0
O936 O 0.0949 0.51771 0.08561 0.0
O937 O 0.04928 0.51345 0.09473 0.0
O938 O 1.01029 0.54667 0.09536 0.0
O939 O 1.02435 0.58028 0.14404 0.0
O940 O 0.09657 0.56213 0.13853 0.0
O941 O 0.06849 0.55486 0.16987 0.0
O942 O 0.06777 0.61773 0.12166 0.0
O943 O 0.11351 0.62214 0.11299 0.0
H944 H 0.21236 0.60057 0.12385 0.0
H945 H 0.25318 0.57669 0.13725 0.0
H946 H 0.20289 0.48206 0.0862 0.0
H947 H 0.16177 0.50577 0.07414 0.0
H948 H 0.96312 0.55298 0.05932 0.0
H949 H 0.92288 0.57807 0.0465 0.0
H950 H 0.94931 0.64008 0.14625 0.0
H951 H 0.98967 0.61548 0.15888 0.0
C952 C 0.05241 0.20978 0.07503 0.0
C953 C 0.04033 0.20834 0.03992 0.0
C954 C 0.05861 0.18186 0.08814 0.0
C955 C 0.05271 0.1509 0.06701 0.0
H956 H 0.05768 0.23286 0.0925 0.0
H957 H 0.06835 0.18462 0.11514 0.0
S958 S 1.02313 0.13383 0.97285 0.0
N959 N 1.02372 0.17287 0.98411 0.0
N960 N 0.03562 0.12129 1.00865 0.0
C961 C 0.04066 0.14911 0.03199 0.0
C962 C 0.03443 0.17747 0.01854 0.0
C963 C 0.22214 0.82176 0.2574 0.0
C964 C 0.20613 0.84401 0.26793 0.0
C965 C 0.24824 0.82065 0.27775 0.0
C966 C 0.25987 0.84226 0.30915 0.0
H967 H 0.21416 0.80454 0.23354 0.0
H968 H 0.25942 0.80277 0.26873 0.0
S969 S 0.22706 0.90617 0.34771 0.0
N970 N 0.20432 0.88846 0.31178 0.0
N971 N 0.25323 0.88724 0.34914 0.0
C972 C 0.2443 0.86508 0.31949 0.0
C973 C 0.21756 0.86572 0.29919 0.0
C974 C 0.5322 0.91741 0.53434 0.0
C975 C 0.55083 0.89774 0.54489 0.0
C976 C 0.53765 0.95094 0.54819 0.0
C977 C 0.56248 0.96659 0.57231 0.0
H978 H 0.51312 0.90675 0.51524 0.0
H979 H 0.52263 0.96492 0.53916 0.0
S980 S 0.6184 0.92635 0.60819 0.0
N981 N 0.59498 0.89648 0.5815 0.0
N982 N 0.60587 0.95955 0.6062 0.0
C983 C 0.58137 0.94724 0.58296 0.0
C984 C 0.57537 0.91286 0.56965 0.0
C985 C 0.52773 0.3286 0.73954 0.0
C986 C 0.55537 0.33658 0.75938 0.0
C987 C 0.50392 0.324 0.75507 0.0
C988 C 0.50661 0.32738 0.79121 0.0
H989 H 0.52436 0.32568 0.71162 0.0
H990 H 0.4832 0.31804 0.73858 0.0
S991 S 0.57412 0.3469 0.85505 0.0
N992 N 0.58384 0.34706 0.81735 0.0
N993 N 0.53934 0.33825 0.84639 0.0
C994 C 0.53412 0.33528 0.81138 0.0
C995 C 0.55836 0.33988 0.79556 0.0
C996 C 0.05211 0.8323 0.7071 0.0
C997 C 0.0706 0.84263 0.73932 0.0
C998 C 0.04736 0.85452 0.68498 0.0
C999 C 0.06076 0.88772 0.69456 0.0
H1000 H 0.04259 0.80663 0.69794 0.0
H1001 H 0.03454 0.84539 0.65939 0.0
S1002 S 0.1074 0.92791 0.77829 0.0
N1003 N 0.09937 0.88883 0.78158 0.0
N1004 N 0.09061 0.93059 0.73965 0.0
C1005 C 0.07714 0.89884 0.72792 0.0
C1006 C 0.08204 0.87623 0.75046 0.0
C1007 C 0.46104 0.80566 0.88344 0.0
C1008 C 0.47878 0.83345 0.87641 0.0
C1009 C 0.43168 0.80039 0.87427 0.0
C1010 C 0.41917 0.82292 0.85809 0.0
H1011 H 0.46983 0.78841 0.89719 0.0
H1012 H 0.41877 0.77943 0.88139 0.0
S1013 S 0.45615 0.89676 0.8292 0.0
N1014 N 0.48164 0.88169 0.84873 0.0
N1015 N 0.42652 0.87183 0.83161 0.0
C1016 C 0.43664 0.84964 0.84894 0.0
C1017 C 0.46646 0.8549 0.85807 0.0
C1018 C 0.6261 0.19394 0.20566 0.0
C1019 C 0.601 0.20158 0.21287 0.0
C1020 C 0.62557 0.17034 0.17709 0.0
C1021 C 0.60006 0.15485 0.15443 0.0
H1022 H 0.64607 0.20568 0.22263 0.0
H1023 H 0.64503 0.16392 0.17296 0.0
S1024 S 0.52928 0.16915 0.16035 0.0
N1025 N 0.55047 0.19324 0.19441 0.0
N1026 N 0.54953 0.15019 0.14006 0.0
C1027 C 0.57511 0.16334 0.16084 0.0
C1028 C 0.57556 0.18645 0.19026 0.0
C1029 C 0.12599 0.33777 0.36111 0.0
C1030 C 0.12148 0.33349 0.39438 0.0
C1031 C 0.14756 0.32651 0.34784 0.0
C1032 C 0.16537 0.31064 0.36743 0.0
H1033 H 0.11256 0.34952 0.34497 0.0
H1034 H 0.15041 0.33043 0.32218 0.0
S1035 S 0.16177 0.29216 0.45543 0.0
N1036 N 0.13654 0.31182 0.44643 0.0
N1037 N 0.17648 0.29016 0.42119 0.0
C1038 C 0.16104 0.30614 0.40067 0.0
C1039 C 0.13928 0.31773 0.41424 0.0
C1040 C 1.03136 0.07483 0.23973 0.0
C1041 C 1.02262 0.0415 0.24185 0.0
C1042 C 0.04177 0.08489 0.21126 0.0
C1043 C 0.04413 0.06216 0.18356 0.0
H1044 H 1.03009 0.09356 0.26026 0.0
H1045 H 0.04847 0.11086 0.21131 0.0
S1046 S 1.02359 0.97186 0.17564 0.0
N1047 N 1.01642 0.98561 0.21313 0.0
N1048 N 0.03628 1.00454 0.15963 0.0
C1049 C 0.03511 1.02867 0.18493 0.0
C1050 C 1.02436 1.01836 0.21406 0.0
C1051 C 0.28275 0.70097 0.55139 0.0
C1052 C 0.29958 0.71284 0.58435 0.0
C1053 C 0.27678 0.72264 0.52895 0.0
C1054 C 0.28731 0.75657 0.53915 0.0
H1055 H 0.27673 0.67497 0.54164 0.0
H1056 H 0.26629 0.71274 0.50246 0.0
S1057 S 0.32639 0.79937 0.62597 0.0
N1058 N 0.32196 0.76015 0.62855 0.0
N1059 N 0.31089 0.80098 0.58633 0.0
C1060 C 0.30079 0.76863 0.57363 0.0
C1061 C 0.30698 0.74662 0.59631 0.0
C1062 C 0.66274 0.06146 0.73924 0.0
C1063 C 0.65289 0.0481 0.76742 0.0
C1064 C 0.64425 0.06373 0.70776 0.0
C1065 C 0.61442 0.05301 0.70218 0.0
H1066 H 0.68515 0.07065 0.74157 0.0
H1067 H 0.6535 0.07465 0.68798 0.0
S1068 S 0.57704 1.01513 0.76643 0.0
N1069 N 0.61048 1.02328 0.78576 0.0
N1070 N 0.57666 1.02755 0.72874 0.0
C1071 C 0.60455 0.03929 0.73003 0.0
C1072 C 0.62327 0.03684 0.76169 0.0
C1073 C 0.33223 0.38417 1.00994 0.0
C1074 C 0.35519 0.38081 0.03431 0.0
C1075 C 0.32691 0.36844 0.97546 0.0
C1076 C 0.34462 0.3491 0.96367 0.0
H1077 H 0.31834 0.39938 1.01745 0.0
H1078 H 0.30927 0.3724 0.95767 0.0
S1079 S 0.40689 0.33114 1.01744 0.0
N1080 N 0.39511 0.35543 0.04452 0.0
N1081 N 0.38546 0.32637 0.9797 0.0
C1082 C 0.36733 0.34496 0.98794 0.0
C1083 C 0.3725 0.36063 0.02322 0.0
C1084 C 1.01697 0.06703 0.44804 0.0
C1085 C 1.02216 0.04148 0.42535 0.0
C1086 C 1.02922 0.07346 0.48345 0.0
C1087 C 0.04668 0.05415 0.49773 0.0
H1088 H 1.00316 0.08214 0.43841 0.0
H1089 H 1.02432 0.09308 0.49991 0.0
S1090 S 0.06825 0.98548 0.44938 0.0
N1091 N 0.04715 0.99783 0.41968 0.0
N1092 N 0.0697 1.00941 0.48608 0.0
C1093 C 0.05248 1.02895 0.47524 0.0
C1094 C 0.04038 1.02276 0.43913 0.0
C1095 C 0.36887 0.74748 0.7323 0.0
C1096 C 0.34563 0.72107 0.71897 0.0
C1097 C 0.36602 0.7754 0.75331 0.0
C1098 C 0.33985 0.77764 0.76155 0.0
H1099 H 0.38926 0.74683 0.72602 0.0
H1100 H 0.38439 0.79513 0.76343 0.0
S1101 S 0.27232 0.7162 0.73247 0.0
N1102 N 0.29543 0.69951 0.7155 0.0
N1103 N 0.29026 0.75213 0.7542 0.0
C1104 C 0.31653 0.75164 0.74836 0.0
C1105 C 0.31937 0.72326 0.72732 0.0
C1106 C 0.63662 0.0595 0.95699 0.0
C1107 C 0.66554 0.05781 0.96105 0.0
C1108 C 0.622 0.06334 0.98546 0.0
C1109 C 0.63457 0.06531 0.021 0.0
H1110 H 0.62485 0.05808 0.93113 0.0
H1111 H 0.60013 0.06456 0.97921 0.0
S1112 S 0.71003 0.0626 0.04801 0.0
N1113 N 0.70603 0.05915 1.00554 0.0
N1114 N 0.67916 0.06538 0.05738 0.0
C1115 C 0.66349 0.06355 0.0255 0.0
C1116 C 0.67855 0.06013 0.99646 0.0
C1117 C 0.35769 0.34928 0.2123 0.0
C1118 C 0.36532 0.38373 0.21866 0.0
C1119 C 0.35101 0.3312 0.23835 0.0
C1120 C 0.3514 0.34664 0.27202 0.0
H1121 H 0.35639 0.33606 0.18672 0.0
H1122 H 0.3448 0.30482 0.23173 0.0
S1123 S 0.37082 0.43624 0.30282 0.0
N1124 N 0.37377 0.4325 0.26186 0.0
N1125 N 0.36091 0.39868 0.31044 0.0
C1126 C 0.35968 0.38104 0.27902 0.0
C1127 C 0.36667 0.39948 0.25251 0.0
C1128 C 0.21212 1.02385 0.06484 0.0
C1129 C 0.22487 1.02573 0.03597 0.0
C1130 C 0.20516 0.05112 0.08149 0.0
C1131 C 0.21055 0.08127 0.06983 0.0
H1132 H 0.20926 1.00178 0.07618 0.0
H1133 H 0.19639 0.04889 0.10451 0.0
S1134 S 0.23655 0.09684 0.99022 0.0
N1135 N 0.23776 0.05846 0.99252 0.0
N1136 N 0.22407 0.10999 0.02407 0.0
C1137 C 0.22007 0.08261 0.03869 0.0
C1138 C 0.22736 0.05468 0.02163 0.0
C1139 C 0.69765 0.60978 0.06012 0.0
C1140 C 0.7069 0.64249 0.07688 0.0
C1141 C 0.67255 0.58963 0.06469 0.0
C1142 C 0.65533 0.60104 0.0862 0.0
H1143 H 0.71015 0.59938 0.04372 0.0
H1144 H 0.66682 0.56451 0.05157 0.0
S1145 S 0.6705 0.68425 0.13743 0.0
N1146 N 0.69663 0.68528 0.11631 0.0
N1147 N 0.65032 0.64704 0.12556 0.0
C1148 C 0.6642 0.63371 0.10293 0.0
C1149 C 0.68969 0.65444 0.09811 0.0
C1150 C 0.76296 0.55118 0.39222 0.0
C1151 C 0.73466 0.54154 0.39502 0.0
C1152 C 0.77903 0.528 0.38706 0.0
C1153 C 0.76738 0.4945 0.38491 0.0
H1154 H 0.77229 0.57657 0.39204 0.0
H1155 H 0.80018 0.53624 0.38273 0.0
S1156 S 0.69616 0.45767 0.39824 0.0
N1157 N 0.69686 0.49701 0.40037 0.0
N1158 N 0.72739 0.45342 0.39143 0.0
C1159 C 0.73989 0.48491 0.3907 0.0
C1160 C 0.72343 0.50846 0.3956 0.0
C1161 C 0.85897 0.57062 0.52752 0.0
C1162 C 0.85241 0.54993 0.55134 0.0
C1163 C 0.88645 0.58875 0.53041 0.0
C1164 C 0.90831 0.58633 0.55688 0.0
H1165 H 0.84331 0.57101 0.50511 0.0
H1166 H 0.89111 0.60246 0.51008 0.0
S1167 S 0.90061 0.54068 0.6297 0.0
N1168 N 0.86865 0.53262 0.60568 0.0
N1169 N 0.92057 0.56553 0.61032 0.0
C1170 C 0.90126 0.56875 0.5831 0.0
C1171 C 0.87317 0.55072 0.58045 0.0
C1172 C 0.3811 0.17619 0.32147 0.0
C1173 C 0.40722 0.17664 0.34376 0.0
C1174 C 0.36648 0.20296 0.32279 0.0
C1175 C 0.37646 0.23329 0.34638 0.0
H1176 H 0.37151 0.15458 0.30233 0.0
H1177 H 0.34686 0.19966 0.30458 0.0
S1178 S 0.44239 0.2479 0.41338 0.0
N1179 N 0.44096 0.21123 0.39226 0.0
N1180 N 0.41474 0.25989 0.39436 0.0
C1181 C 0.40238 0.23388 0.36911 0.0
C1182 C 0.41713 0.20652 0.36794 0.0
C1183 C 0.38162 0.16786 0.57724 0.0
C1184 C 0.35495 0.15092 0.58098 0.0
C1185 C 0.40527 0.15388 0.58156 0.0
C1186 C 0.40341 0.12223 0.58979 0.0
H1187 H 0.38438 0.19235 0.57113 0.0
H1188 H 0.42521 0.16804 0.57834 0.0
S1189 S 0.33864 0.06766 0.60335 0.0
N1190 N 0.32823 0.10063 0.59366 0.0
N1191 N 0.37255 0.07465 0.6023 0.0
C1192 C 0.37682 0.10493 0.59346 0.0
C1193 C 0.3527 0.11917 0.58898 0.0
C1194 C 0.76851 0.70477 0.41487 0.0
C1195 C 0.7441 0.69352 0.38874 0.0
C1196 C 0.79177 0.72795 0.41024 0.0
C1197 C 0.79158 0.74071 0.37928 0.0
H1198 H 0.76989 0.69516 0.43888 0.0
H1199 H 0.81012 0.73576 0.43097 0.0
S1200 S 0.73352 0.71841 0.30217 0.0
N1201 N 0.72149 0.69703 0.33058 0.0
N1202 N 0.76537 0.73935 0.32157 0.0
C1203 C 0.76735 0.72973 0.353 0.0
C1204 C 0.74359 0.70651 0.35782 0.0
C1205 C 0.8965 0.46305 0.81268 0.0
C1206 C 0.90136 0.48993 0.84006 0.0
C1207 C 0.88222 0.43036 0.81477 0.0
C1208 C 0.87204 0.42184 0.8446 0.0
H1209 H 0.90381 0.46724 0.78911 0.0
H1210 H 0.87943 0.41143 0.79266 0.0
S1211 S 0.87888 0.48236 0.92405 0.0
N1212 N 0.89399 0.50459 0.89821 0.0
N1213 N 0.86828 0.44475 0.90232 0.0
C1214 C 0.8768 0.44856 0.87208 0.0
C1215 C 0.891 0.48178 0.86979 0.0
C1216 C 0.0991 0.92339 0.13283 0.0
C1217 C 0.11987 0.92586 0.1626 0.0
C1218 C 0.09324 0.95131 0.11972 0.0
C1219 C 0.10811 0.98337 0.13525 0.0
H1220 H 0.08655 0.89962 0.12 0.0
H1221 H 0.07648 0.94762 0.09731 0.0
S1222 S 0.1658 1.00371 0.21277 0.0
N1223 N 0.15611 0.96343 0.2066 0.0
N1224 N 0.14552 1.01549 0.18169 0.0
C1225 C 0.12963 0.98619 0.16436 0.0
C1226 C 0.13535 0.95769 0.17806 0.0
C1227 C 0.93668 0.31517 0.94645 0.0
C1228 C 0.95355 0.29418 0.93535 0.0
C1229 C 0.91106 0.317 0.92535 0.0
C1230 C 0.90078 0.29737 0.8925 0.0
H1231 H 0.94359 0.33081 0.97144 0.0
H1232 H 0.89914 0.33377 0.93498 0.0
S1233 S 0.93645 0.23757 0.85166 0.0
N1234 N 0.95771 0.25326 0.88919 0.0
N1235 N 0.90981 0.25574 0.85041 0.0
C1236 C 0.91731 0.27593 0.88147 0.0
C1237 C 0.94354 0.27459 0.90257 0.0
C1238 C 0.62342 0.23011 0.64097 0.0
C1239 C 0.60623 0.24298 0.6615 0.0
C1240 C 0.61858 0.19612 0.62886 0.0
C1241 C 0.59595 0.17356 0.63611 0.0
H1242 H 0.64121 0.24631 0.63492 0.0
H1243 H 0.63266 0.1875 0.61361 0.0
S1244 S 0.54414 0.19486 0.68795 0.0
N1245 N 0.56538 0.23028 0.68797 0.0
N1246 N 0.55601 0.16728 0.66508 0.0
C1247 C 0.57834 0.18637 0.65609 0.0
C1248 C 0.58354 0.22073 0.66878 0.0
C1249 C 0.63373 0.81374 0.46935 0.0
C1250 C 0.60647 0.80769 0.44873 0.0
C1251 C 0.65803 0.81754 0.45471 0.0
C1252 C 0.65621 0.81587 0.41882 0.0
H1253 H 0.63638 0.81566 0.49715 0.0
H1254 H 0.67846 0.82245 0.47171 0.0
S1255 S 0.59005 0.79887 0.35304 0.0
N1256 N 0.57932 0.79904 0.39017 0.0
N1257 N 0.62477 0.8063 0.36287 0.0
C1258 C 0.62911 0.80942 0.39787 0.0
C1259 C 0.60437 0.80529 0.41272 0.0
C1260 C 1.0208 0.24433 0.47096 0.0
C1261 C 1.01754 0.27629 0.47995 0.0
C1262 C 1.02216 0.22365 0.49551 0.0
C1263 C 1.02055 0.23445 0.52984 0.0
H1264 H 1.02447 0.23608 0.44556 0.0
H1265 H 1.02717 0.20027 0.48832 0.0
S1266 S 1.00611 0.31332 0.56456 0.0
N1267 N 1.00802 0.31583 0.52393 0.0
N1268 N 1.011 0.2768 0.57027 0.0
C1269 C 1.0142 0.26493 0.53817 0.0
C1270 C 1.01251 0.28593 0.51307 0.0
C1271 C 0.69933 0.32461 0.3279 0.0
C1272 C 0.68257 0.29495 0.33226 0.0
C1273 C 0.72835 0.32856 0.32988 0.0
C1274 C 0.74159 0.30288 0.33604 0.0
H1275 H 0.68982 0.3445 0.32135 0.0
H1276 H 0.74019 0.35139 0.32505 0.0
S1277 S 0.70785 0.22225 0.35501 0.0
N1278 N 0.68179 0.24094 0.34718 0.0
N1279 N 0.73638 0.24827 0.35107 0.0
C1280 C 0.72541 0.27394 0.34299 0.0
C1281 C 0.69587 0.27002 0.34113 0.0
C1282 C 0.56161 0.92596 0.03164 0.0
C1283 C 0.55945 0.93152 0.99724 0.0
C1284 C 0.56128 0.95067 0.05853 0.0
C1285 C 0.55856 0.98185 0.05201 0.0
H1286 H 0.56457 0.90264 0.03808 0.0
H1287 H 0.56447 0.9457 0.08475 0.0
S1288 S 0.54746 1.00716 0.96574 0.0
N1289 N 0.5514 0.96933 0.95767 0.0
N1290 N 0.55022 1.01557 1.00799 0.0
C1291 C 0.55447 0.98698 1.01742 0.0
C1292 C 0.55515 0.96193 0.99011 0.0
C1293 C 0.03244 0.78237 0.86987 0.0
C1294 C 0.03486 0.77508 0.83526 0.0
C1295 C 1.01177 0.79847 0.87874 0.0
C1296 C 0.99352 0.80876 0.85337 0.0
H1297 H 0.04694 0.77616 0.89018 0.0
H1298 H 1.01025 0.80313 0.90567 0.0
S1299 S 0.99417 0.7991 0.75943 0.0
N1300 N 1.01827 0.78042 0.77569 0.0
N1301 N 0.98124 0.8129 0.79251 0.0
C1302 C 0.99632 0.80215 0.81873 0.0
C1303 C 1.01652 0.78474 0.80965 0.0
C1304 C 0.13102 0.10772 0.98693 0.0
C1305 C 0.14445 0.08618 0.96964 0.0
C1306 C 0.1184 0.09954 1.01485 0.0
C1307 C 0.1189 0.06959 0.02661 0.0
H1308 H 0.12981 0.13079 0.9785 0.0
H1309 H 0.10766 0.11649 0.02678 0.0
S1310 S 0.15271 1.00552 0.99188 0.0
N1311 N 0.15848 0.03411 0.96773 0.0
N1312 N 0.13481 1.0191 0.01986 0.0
C1313 C 0.13281 0.0483 1.01018 0.0
C1314 C 0.1456 0.05651 0.98185 0.0
C1315 C 0.78526 0.38083 0.59429 0.0
C1316 C 0.79342 0.41515 0.60202 0.0
C1317 C 0.79187 0.3615 0.61917 0.0
C1318 C 0.80671 0.37582 0.65269 0.0
H1319 H 0.77402 0.36873 0.5687 0.0
H1320 H 0.78524 0.33517 0.61218 0.0
S1321 S 0.83343 0.4644 0.68599 0.0
N1322 N 0.81737 0.46258 0.64573 0.0
N1323 N 0.82986 0.42615 0.69225 0.0
C1324 C 0.81485 0.41004 0.66085 0.0
C1325 C 0.80818 0.42974 0.63558 0.0
C1326 C 0.53779 0.10051 0.44857 0.0
C1327 C 0.50805 0.08981 0.44234 0.0
C1328 C 0.55585 0.09802 0.47989 0.0
C1329 C 0.54587 0.08503 0.50805 0.0
H1330 H 0.5475 0.11061 0.42867 0.0
H1331 H 0.57833 0.10639 0.48189 0.0
S1332 S 0.46974 0.05331 0.50647 0.0
N1333 N 0.46965 0.06531 0.46855 0.0
N1334 N 0.50308 0.0613 0.52644 0.0
C1335 C 0.51612 0.0746 0.5025 0.0
C1336 C 0.49761 0.07679 0.47028 0.0
C1337 C 0.82798 0.74494 0.20172 0.0
C1338 C 0.80561 0.74948 0.17726 0.0
C1339 C 0.83348 0.76057 0.23628 0.0
C1340 C 0.81647 0.78089 0.24801 0.0
H1341 H 0.8414 0.72912 0.19413 0.0
H1342 H 0.85075 0.75593 0.25412 0.0
S1343 S 0.75552 0.80134 0.19416 0.0
N1344 N 0.76674 0.77649 0.16704 0.0
N1345 N 0.77665 0.80528 0.23197 0.0
C1346 C 0.79418 0.78588 0.22372 0.0
C1347 C 0.78888 0.77037 0.18839 0.0
C1348 C 0.13219 0.05957 0.76379 0.0
C1349 C 0.13303 0.08828 0.78655 0.0
C1350 C 0.12006 0.05518 0.72848 0.0
C1351 C 0.10873 0.07959 0.71424 0.0
H1352 H 0.14147 0.04049 0.7732 0.0
H1353 H 0.12049 0.03292 0.71204 0.0
S1354 S 0.10412 0.15856 0.76307 0.0
N1355 N 0.12009 0.14075 0.79256 0.0
N1356 N 0.09771 0.13287 0.72632 0.0
C1357 C 0.10867 0.10802 0.73694 0.0
C1358 C 0.12066 0.11225 0.77301 0.0
C1359 C 0.78392 0.37607 0.43703 0.0
C1360 C 0.80348 0.40599 0.44947 0.0
C1361 C 0.79189 0.34946 0.42004 0.0
C1362 C 0.81945 0.35219 0.41422 0.0
H1363 H 0.76259 0.37274 0.44154 0.0
H1364 H 0.77629 0.32669 0.41122 0.0
S1365 S 0.8784 0.42519 0.44085 0.0
N1366 N 0.85156 0.43686 0.45437 0.0
N1367 N 0.86624 0.38679 0.42178 0.0
C1368 C 0.83902 0.38206 0.42575 0.0
C1369 C 0.83107 0.40904 0.44348 0.0
C1370 C 0.52437 0.07048 0.2514 0.0
C1371 C 0.49873 0.08148 0.24929 0.0
C1372 C 0.53885 0.06657 0.22275 0.0
C1373 C 0.52927 0.07328 0.18896 0.0
H1374 H 0.53357 0.06454 0.27576 0.0
H1375 H 0.55816 0.05806 0.22743 0.0
S1376 S 0.46465 0.10578 0.16885 0.0
N1377 N 0.46567 0.1008 0.20944 0.0
N1378 N 0.49187 0.09349 0.1571 0.0
C1379 C 0.50381 0.08472 0.18665 0.0
C1380 C 0.48907 0.08871 0.2159 0.0
C1381 C 0.80675 0.7872 1.00003 0.0
C1382 C 0.7978 0.75283 0.99249 0.0
C1383 C 0.81387 0.80591 0.97459 0.0
C1384 C 0.81256 0.79122 0.94037 0.0
H1385 H 0.80878 0.79985 0.02605 0.0
H1386 H 0.82111 0.83215 0.98211 0.0
S1387 S 0.78955 0.70222 0.90649 0.0
N1388 N 0.78717 0.70503 0.94761 0.0
N1389 N 0.80077 0.73999 0.90016 0.0
C1390 C 0.80299 0.75695 0.93221 0.0
C1391 C 0.79558 0.73787 0.95811 0.0
C1392 C 0.88535 0.09795 0.04215 0.0
C1393 C 0.89834 0.12143 0.07181 0.0
C1394 C 0.90111 0.08041 0.02425 0.0
C1395 C 0.93038 0.08643 0.03491 0.0
H1396 H 0.86263 0.09137 0.03403 0.0
H1397 H 0.89021 0.0607 1.00332 0.0
S1398 S 0.97499 0.14887 0.1073 0.0
N1399 N 0.94246 0.15235 0.10855 0.0
N1400 N 0.97227 0.11974 0.07433 0.0
C1401 C 0.94393 0.11187 0.06249 0.0
C1402 C 0.92782 0.12933 0.08115 0.0
C1403 C 0.47414 0.4827 0.11823 0.0
C1404 C 0.45605 0.4937 0.13886 0.0
C1405 C 0.49974 0.50331 0.11527 0.0
C1406 C 0.50826 0.5358 0.13275 0.0
H1407 H 0.4681 0.45825 0.10338 0.0
H1408 H 0.51219 0.49418 0.09801 0.0
S1409 S 0.47033 0.57572 0.19274 0.0
N1410 N 0.45006 0.53878 0.17903 0.0
N1411 N 0.49751 0.57707 0.17344 0.0
C1412 C 0.49098 0.54653 0.15453 0.0
C1413 C 0.46513 0.52566 0.15762 0.0
C1414 C 0.40641 0.58577 0.79148 0.0
C1415 C 0.43537 0.59588 0.8058 0.0
C1416 C 0.38891 0.60788 0.79268 0.0
C1417 C 0.39995 0.64069 0.80808 0.0
H1418 H 0.39686 0.56027 0.78137 0.0
H1419 H 0.36641 0.59874 0.7837 0.0
S1420 S 0.47512 0.68068 0.84225 0.0
N1421 N 0.47493 0.64176 0.83087 0.0
N1422 N 0.44194 0.68338 0.83267 0.0
C1423 C 0.4292 0.6517 0.81936 0.0
C1424 C 0.44698 0.62923 0.81832 0.0
C1425 C 0.29323 0.54012 0.63631 0.0
C1426 C 0.30936 0.5667 0.66102 0.0
C1427 C 0.26763 0.52246 0.6416 0.0
C1428 C 0.25706 0.53187 0.67113 0.0
H1429 H 0.29863 0.53558 0.61112 0.0
H1430 H 0.2543 0.50454 0.62039 0.0
S1431 S 0.2959 0.59366 0.74753 0.0
N1432 N 0.31699 0.59606 0.71945 0.0
N1433 N 0.26809 0.56433 0.72887 0.0
C1434 C 0.27544 0.55459 0.69845 0.0
C1435 C 0.30192 0.57183 0.6934 0.0
C1436 C 0.74201 0.9284 0.8523 0.0
C1437 C 0.75552 0.96178 0.86672 0.0
C1438 C 0.75637 0.90138 0.85113 0.0
C1439 C 0.78588 0.90468 0.86412 0.0
H1440 H 0.71965 0.92276 0.84156 0.0
H1441 H 0.74385 0.87727 0.83964 0.0
S1442 S 0.83255 0.9861 0.90504 0.0
N1443 N 0.80156 0.99513 0.89466 0.0
N1444 N 0.82758 0.94635 0.8924 0.0
C1445 C 0.79959 0.93794 0.87862 0.0
C1446 C 0.78496 0.9654 0.87991 0.0
C1447 C 0.80315 1.01292 0.63876 0.0
C1448 C 0.80046 0.979 0.62969 0.0
C1449 C 0.77952 1.02703 0.6344 0.0
C1450 C 0.75212 1.00789 0.62064 0.0
H1451 H 0.82376 1.02885 0.64883 0.0
H1452 H 0.78285 0.0533 0.64104 0.0
S1453 S 0.73309 0.91761 0.5955 0.0
N1454 N 0.76769 0.92648 0.60799 0.0
N1455 N 0.72362 0.95286 0.6002 0.0
C1456 C 0.74906 0.97387 0.61236 0.0
C1457 C 0.77307 0.95951 0.61679 0.0
C1458 C 0.39523 0.45143 0.85011 0.0
C1459 C 0.41633 0.44548 0.83185 0.0
C1460 C 0.37223 0.4264 0.8514 0.0
C1461 C 0.36944 0.39445 0.83456 0.0
H1462 H 0.39641 0.47569 0.86358 0.0
H1463 H 0.35659 0.43206 0.86587 0.0
S1464 S 0.41747 0.36594 0.78151 0.0
N1465 N 0.43209 0.40506 0.79545 0.0
N1466 N 0.38884 0.35809 0.79811 0.0
C1467 C 0.39011 0.388 0.81608 0.0
C1468 C 0.41358 0.4135 0.81467 0.0
C1469 C 0.2622 0.67634 0.39183 0.0
C1470 C 0.25964 0.64844 0.36639 0.0
C1471 C 0.27601 0.70897 0.38877 0.0
C1472 C 0.28807 0.71648 0.3598 0.0
H1473 H 0.25343 0.67303 0.41464 0.0
H1474 H 0.27696 0.72865 0.40945 0.0
S1475 S 0.28737 0.65312 0.2852 0.0
N1476 N 0.27102 0.63181 0.31082 0.0
N1477 N 0.29592 0.69148 0.30493 0.0
C1478 C 0.28556 0.68875 0.33421 0.0
C1479 C 0.27179 0.6556 0.3375 0.0
C1480 C 0.5313 0.68183 0.52536 0.0
C1481 C 0.5405 0.71382 0.54454 0.0
C1482 C 0.53706 0.65418 0.53938 0.0
C1483 C 0.55268 0.65701 0.57314 0.0
H1484 H 0.51984 0.67808 0.49897 0.0
H1485 H 0.53019 0.63053 0.52302 0.0
S1486 S 0.58153 0.73482 0.6347 0.0
N1487 N 0.5657 0.74616 0.59983 0.0
N1488 N 0.57692 0.69475 0.62553 0.0
C1489 C 0.56182 0.68877 0.59268 0.0
C1490 C 0.55559 0.71687 0.57865 0.0
C1491 C 0.71883 0.36707 0.79608 0.0
C1492 C 0.70662 0.34497 0.76519 0.0
C1493 C 0.74487 0.36581 0.81619 0.0
C1494 C 0.75967 0.34179 0.807 0.0
H1495 H 0.70823 0.38568 0.80478 0.0
H1496 H 0.75321 0.38356 0.8396 0.0
S1497 S 0.7367 0.27764 0.72889 0.0
N1498 N 0.71173 0.29843 0.72623 0.0
N1499 N 0.75963 0.29513 0.76477 0.0
C1500 C 0.74759 0.31941 0.7763 0.0
C1501 C 0.72143 0.32124 0.75528 0.0
C1502 C 0.07448 0.41711 0.03868 0.0
C1503 C 0.05223 0.39451 0.04642 0.0
C1504 C 0.08017 0.45071 0.05207 0.0
C1505 C 0.06355 0.46365 0.07338 0.0
H1506 H 0.0877 0.40879 0.02192 0.0
H1507 H 0.09747 0.46678 0.0449 0.0
S1508 S 1.00287 0.415 0.10209 0.0
N1509 N 1.0138 0.38756 0.07765 0.0
N1510 N 1.02396 0.45058 0.10213 0.0
C1511 C 0.04129 0.44129 0.08157 0.0
C1512 C 0.03581 0.40686 0.06837 0.0
C1513 C 0.05495 0.82907 0.29097 0.0
C1514 C 0.05295 0.83313 0.25612 0.0
C1515 C 1.03097 0.82392 0.3062 0.0
C1516 C 1.00384 0.82285 0.2874 0.0
H1517 H 0.0752 0.82947 0.30663 0.0
H1518 H 0.03375 0.82088 0.33307 0.0
S1519 S 0.98683 0.83198 0.19523 0.0
N1520 N 1.0213 0.83578 0.20326 0.0
N1521 N 0.97654 0.82606 0.23176 0.0
C1522 C 1.00157 0.82721 0.25263 0.0
C1523 C 1.02596 0.83229 0.23706 0.0
C1524 C 0.54758 0.32843 0.20366 0.0
C1525 C 0.56597 0.34017 0.23578 0.0
C1526 C 0.54174 0.34966 0.18069 0.0
C1527 C 0.5539 0.38329 0.18926 0.0
H1528 H 0.53887 0.30248 0.19533 0.0
H1529 H 0.52885 0.33951 0.15534 0.0
S1530 S 0.60059 0.42674 0.27194 0.0
N1531 N 0.59387 0.38794 0.27652 0.0
N1532 N 0.58318 0.42778 0.2331 0.0
C1533 C 0.57056 0.39564 0.22233 0.0
C1534 C 0.57655 0.37405 0.24569 0.0
C1535 C 0.9567 0.30308 0.3498 0.0
C1536 C 0.97458 0.33432 0.35482 0.0
C1537 C 0.92745 0.29877 0.34135 0.0
C1538 C 0.91516 0.32561 0.3375 0.0
H1539 H 0.96512 0.28208 0.35513 0.0
H1540 H 0.91452 0.27465 0.34005 0.0
S1541 S 0.95332 0.41094 0.3387 0.0
N1542 N 0.97839 0.3913 0.34882 0.0
N1543 N 0.9234 0.38338 0.33236 0.0
C1544 C 0.93299 0.35626 0.33828 0.0
C1545 C 0.96277 0.36063 0.34703 0.0
C1546 C 0.11192 0.67223 0.71714 0.0
C1547 C 0.11111 0.70404 0.71133 0.0
C1548 C 0.11141 0.64762 0.68993 0.0
C1549 C 0.10954 0.65371 0.65573 0.0
H1550 H 0.11196 0.66595 0.74269 0.0
H1551 H 0.11084 0.62317 0.69551 0.0
S1552 S 0.11101 0.73398 0.62755 0.0
N1553 N 0.11182 0.74132 0.66949 0.0
N1554 N 0.11026 0.69468 0.6182 0.0
C1555 C 0.11088 0.68592 0.64994 0.0
C1556 C 0.1117 0.71116 0.67777 0.0
C1557 C 0.64392 0.86146 0.85872 0.0
C1558 C 0.61523 0.84555 0.8495 0.0
C1559 C 0.66432 0.84817 0.84495 0.0
C1560 C 0.6567 0.81847 0.82168 0.0
H1561 H 0.65093 0.88299 0.87853 0.0
H1562 H 0.68635 0.85988 0.85461 0.0
S1563 S 0.58425 0.77075 0.78393 0.0
N1564 N 0.58001 0.80126 0.81128 0.0
N1565 N 0.61856 0.77617 0.78614 0.0
C1566 C 0.62802 0.80403 0.8098 0.0
C1567 C 0.6072 0.81768 0.82345 0.0
C1568 C 0.53653 0.57539 0.74772 0.0
C1569 C 0.5219 0.5428 0.74531 0.0
C1570 C 0.54677 0.58676 0.71967 0.0
C1571 C 0.54331 0.56594 0.68801 0.0
H1572 H 0.53983 0.59258 0.77142 0.0
H1573 H 0.55799 0.61205 0.72319 0.0
S1574 S 0.50638 0.47837 0.66788 0.0
N1575 N 0.50392 0.48989 0.7083 0.0
N1576 N 0.52394 0.51103 0.65577 0.0
C1577 C 0.52859 0.53327 0.68506 0.0
C1578 C 0.51774 0.52177 0.71362 0.0
C1579 C 0.8044 0.23762 0.09125 0.0
C1580 C 0.80296 0.20539 0.07627 0.0
C1581 C 0.79899 0.26082 0.07068 0.0
C1582 C 0.79284 0.25269 0.03442 0.0
H1583 H 0.81145 0.24539 0.1189 0.0
H1584 H 0.80176 0.28585 0.0831 0.0
S1585 S 0.78394 0.17028 0.98334 0.0
N1586 N 0.79196 0.16525 0.02396 0.0
N1587 N 0.78311 0.20918 0.98468 0.0
C1588 C 0.78906 0.21975 0.01936 0.0
C1589 C 0.79391 0.19597 0.04052 0.0
C1590 C 0.12493 0.54173 0.26281 0.0
C1591 C 0.15469 0.54789 0.26715 0.0
C1592 C 0.10685 0.54439 0.23155 0.0
C1593 C 0.11671 0.55324 0.20156 0.0
H1594 H 0.11524 0.535 0.28411 0.0
H1595 H 0.08443 0.53948 0.2311 0.0
S1596 S 0.19287 0.57192 0.19766 0.0
N1597 N 0.193 0.56342 0.23706 0.0
N1598 N 0.15951 0.56793 0.1794 0.0
C1599 C 0.14646 0.55918 0.20526 0.0
C1600 C 0.16504 0.55667 0.23738 0.0
C1601 C 0.8352 0.88979 0.50916 0.0
C1602 C 0.85762 0.8858 0.53394 0.0
C1603 C 0.82963 0.87335 0.47493 0.0
C1604 C 0.84655 0.85265 0.46379 0.0
H1605 H 0.82178 0.9058 0.51623 0.0
H1606 H 0.81233 0.87765 0.45685 0.0
S1607 S 0.90744 0.83311 0.51871 0.0
N1608 N 0.89636 0.85874 0.54516 0.0
N1609 N 0.88629 0.8284 0.48077 0.0
C1610 C 0.86887 0.84816 0.4884 0.0
C1611 C 0.87428 0.86454 0.52344 0.0
C1612 C 0.52577 0.57224 0.95084 0.0
C1613 C 0.52717 0.54413 0.9286 0.0
C1614 C 0.53843 0.57827 0.98606 0.0
C1615 C 0.55278 0.55627 1.00067 0.0
H1616 H 0.51436 0.58957 0.94111 0.0
H1617 H 0.53611 0.59982 1.00214 0.0
S1618 S 0.56462 0.48038 0.95307 0.0
N1619 N 0.54566 0.49518 0.92339 0.0
N1620 N 0.56934 0.50624 0.98937 0.0
C1621 C 0.5552 0.52863 0.97843 0.0
C1622 C 0.54246 0.52265 0.9425 0.0
C1623 C 0.82083 0.2172 0.2283 0.0
C1624 C 0.8463 0.21824 0.21662 0.0
C1625 C 0.81558 0.24489 0.2467 0.0
C1626 C 0.83567 0.27458 0.25447 0.0
H1627 H 0.80425 0.19512 0.22208 0.0
H1628 H 0.79534 0.2432 0.25424 0.0
S1629 S 0.90703 0.28957 0.23362 0.0
N1630 N 0.8928 0.25094 0.21664 0.0
N1631 N 0.88288 0.30313 0.25167 0.0
C1632 C 0.86172 0.27581 0.24437 0.0
C1633 C 0.86714 0.2475 0.22556 0.0
C1634 C 0.17824 0.56046 0.4963 0.0
C1635 C 0.16487 0.55496 0.46055 0.0
C1636 C 0.16342 0.56353 0.5249 0.0
C1637 C 0.13381 0.56205 0.52057 0.0
H1638 H 0.20073 0.56231 0.50254 0.0
H1639 H 0.17561 0.56751 0.55092 0.0
S1640 S 0.08753 0.54726 0.43301 0.0
N1641 N 0.11895 0.54747 0.4239 0.0
N1642 N 0.09212 0.55373 0.47557 0.0
C1643 C 0.12031 0.55652 0.48494 0.0
C1644 C 0.13529 0.55292 0.45598 0.0
C1645 C 0.8645 0.89743 0.75202 0.0
C1646 C 0.8602 0.88283 0.71697 0.0
C1647 C 0.85543 0.87939 0.77737 0.0
C1648 C 0.84142 0.84615 0.76856 0.0
H1649 H 0.87419 0.9232 0.75976 0.0
H1650 H 0.85816 0.89193 0.80358 0.0
S1651 S 0.82723 0.79546 0.68159 0.0
N1652 N 0.8428 0.83211 0.67595 0.0
N1653 N 0.82556 0.79897 0.7229 0.0
C1654 C 0.83806 0.8311 0.73405 0.0
C1655 C 0.84749 0.84917 0.7085 0.0
C1656 C 0.70662 0.51393 0.55477 0.0
C1657 C 0.72072 0.51922 0.52744 0.0
C1658 C 0.69961 0.53969 0.57424 0.0
C1659 C 0.70618 0.57159 0.5669 0.0
H1660 H 0.70306 0.49035 0.56313 0.0
H1661 H 0.69006 0.53484 0.59621 0.0
S1662 S 0.73495 0.59627 0.4917 0.0
N1663 N 0.73529 0.55713 0.48922 0.0
N1664 N 0.72175 0.60581 0.52612 0.0
C1665 C 0.71666 0.57642 0.53687 0.0
C1666 C 0.72396 0.55007 0.51695 0.0
C1667 C 0.19348 0.11279 0.55511 0.0
C1668 C 0.20506 0.14319 0.5767 0.0
C1669 C 0.16767 0.09294 0.55803 0.0
C1670 C 0.15224 0.10234 0.58292 0.0
H1671 H 0.20455 0.10403 0.53583 0.0
H1672 H 0.15994 0.06973 0.54086 0.0
S1673 S 0.17289 0.17971 0.6458 0.0
N1674 N 0.19848 0.18191 0.62369 0.0
N1675 N 0.15054 0.14445 0.62944 0.0
C1676 C 0.16338 0.13279 0.60447 0.0
C1677 C 0.18957 0.1532 0.60134 0.0
C1678 C 0.22781 1.0111 0.86994 0.0
C1679 C 0.23829 0.04342 0.88734 0.0
C1680 C 0.24556 0.98949 0.86725 0.0
C1681 C 0.27444 0.99945 0.88178 0.0
H1682 H 0.20583 1.00256 0.85751 0.0
H1683 H 0.23681 0.9652 0.8525 0.0
S1684 S 0.31186 0.08019 0.93315 0.0
N1685 N 0.27902 0.08356 0.92167 0.0
N1686 N 0.31244 0.04263 0.91655 0.0
C1687 C 0.28503 0.03117 0.90055 0.0
C1688 C 0.26692 0.05323 0.9034 0.0
C1689 C 0.35712 0.07224 0.02557 0.0
C1690 C 0.35125 0.05229 0.05027 0.0
C1691 C 0.38469 0.08901 0.02619 0.0
C1692 C 0.40719 0.08607 0.0514 0.0
H1693 H 0.34065 0.07306 1.00428 0.0
H1694 H 0.38871 0.10232 1.00537 0.0
S1695 S 0.40237 0.03897 0.12349 0.0
N1696 N 0.36956 0.03326 0.10267 0.0
N1697 N 0.42149 0.06327 0.10276 0.0
C1698 C 0.40119 0.06831 0.07781 0.0
C1699 C 0.3731 0.05179 0.07756 0.0
C1700 C 0.87668 0.67456 0.82597 0.0
C1701 C 0.90511 0.67711 0.84342 0.0
C1702 C 0.86182 0.70115 0.82775 0.0
C1703 C 0.87372 0.73339 0.8471 0.0
H1704 H 0.86539 0.65134 0.81043 0.0
H1705 H 0.84038 0.69612 0.8134 0.0
S1706 S 0.947 0.75472 0.89976 0.0
N1707 N 0.94376 0.71638 0.88205 0.0
N1708 N 0.91689 0.76439 0.88552 0.0
C1709 C 0.90206 0.73614 0.8649 0.0
C1710 C 0.91717 0.70909 0.86307 0.0
C1711 C 0.88579 0.67288 0.09185 0.0
C1712 C 0.85826 0.65338 0.08028 0.0
C1713 C 0.90951 0.65903 0.09626 0.0
C1714 C 0.90693 0.625 0.08902 0.0
H1715 H 0.88911 0.69918 0.09802 0.0
H1716 H 0.93012 0.6752 0.10543 0.0
S1717 S 0.83968 0.56284 0.05804 0.0
N1718 N 0.82995 0.598 0.06149 0.0
N1719 N 0.87435 0.57208 0.06984 0.0
C1720 C 0.87956 0.60519 0.07703 0.0
C1721 C 0.85535 0.61931 0.07271 0.0
C1722 C 0.26793 0.20302 0.91008 0.0
C1723 C 0.24392 0.19188 0.88336 0.0
C1724 C 0.29124 0.22665 0.90638 0.0
C1725 C 0.29138 0.2402 0.87593 0.0
H1726 H 0.26905 0.19283 0.93375 0.0
H1727 H 0.30935 0.23424 0.92746 0.0
S1728 S 0.23406 0.21932 0.79805 0.0
N1729 N 0.22184 0.19672 0.82543 0.0
N1730 N 0.26568 0.24026 0.81831 0.0
C1731 C 0.26743 0.22958 0.8492 0.0
C1732 C 0.24371 0.20568 0.85297 0.0
C1733 C 0.39928 0.96162 0.31471 0.0
C1734 C 0.40185 0.98918 0.34053 0.0
C1735 C 0.38513 0.92897 0.31708 0.0
C1736 C 0.37275 0.92112 0.3457 0.0
H1737 H 0.40835 0.96521 0.29217 0.0
H1738 H 0.3843 0.90956 0.29623 0.0
S1739 S 0.37339 0.98355 0.4211 0.0
N1740 N 0.39017 1.0052 0.39608 0.0
N1741 N 0.36464 0.9454 0.40073 0.0
C1742 C 0.37531 0.94851 0.37171 0.0
C1743 C 0.3894 0.98171 0.3691 0.0
C1744 C 0.63112 0.45943 0.67672 0.0
C1745 C 0.61691 0.42737 0.66027 0.0
C1746 C 0.62518 0.48754 0.66372 0.0
C1747 C 0.60434 0.48506 0.63395 0.0
H1748 H 0.64673 0.46293 0.70025 0.0
H1749 H 0.6363 0.51142 0.67791 0.0
S1750 S 0.56192 0.40711 0.57996 0.0
N1751 N 0.58187 0.39533 0.61131 0.0
N1752 N 0.57043 0.44743 0.58757 0.0
C1753 C 0.59049 0.45316 0.61686 0.0
C1754 C 0.59682 0.42464 0.62976 0.0
C1755 C 0.43612 0.81446 0.44821 0.0
C1756 C 0.45215 0.79196 0.43836 0.0
C1757 C 0.41061 0.81625 0.4268 0.0
C1758 C 0.3996 0.79515 0.39489 0.0
H1759 H 0.44374 0.83148 0.47225 0.0
H1760 H 0.39946 0.83434 0.43533 0.0
S1761 S 0.4326 0.73063 0.35793 0.0
N1762 N 0.45451 0.7477 0.39467 0.0
N1763 N 0.40678 0.75013 0.35542 0.0
C1764 C 0.41514 0.772 0.38532 0.0
C1765 C 0.44126 0.77067 0.4067 0.0
C1766 C 0.08649 0.71806 0.16755 0.0
C1767 C 0.10836 0.74103 0.15961 0.0
C1768 C 0.08159 0.68445 0.15474 0.0
C1769 C 0.09867 0.67184 0.13385 0.0
H1770 H 0.07293 0.72611 0.18397 0.0
H1771 H 0.0645 0.66812 0.16198 0.0
S1772 S 0.15879 0.72149 0.10509 0.0
N1773 N 0.14707 0.74868 0.12883 0.0
N1774 N 0.13835 0.68557 0.10543 0.0
C1775 C 0.12062 0.69454 0.12556 0.0
C1776 C 0.1253 0.729 0.13817 0.0
C1777 C 0.13282 0.31508 0.96966 0.0
C1778 C 0.1057 0.30195 0.94923 0.0
C1779 C 0.15713 0.31891 0.95508 0.0
C1780 C 0.15549 0.30936 0.91945 0.0
H1781 H 0.13535 0.32281 0.99722 0.0
H1782 H 0.17744 0.32922 0.97193 0.0
S1783 S 0.08968 0.27396 0.85432 0.0
N1784 N 0.07882 0.27961 0.89121 0.0
N1785 N 0.12431 0.28663 0.86397 0.0
C1786 C 0.12853 0.29605 0.89872 0.0
C1787 C 0.10375 0.29244 0.91352 0.0
C1788 C 0.61576 0.80294 1.00665 0.0
C1789 C 0.59583 0.79079 0.97578 0.0
C1790 C 0.62159 0.7825 0.03056 0.0
C1791 C 0.608 0.74925 0.02401 0.0
H1792 H 0.62556 0.82877 1.01346 0.0
H1793 H 0.63563 0.79307 0.05509 0.0
S1794 S 0.557 0.70473 0.94487 0.0
N1795 N 0.56485 0.74287 0.93822 0.0
N1796 N 0.57572 0.70446 0.98321 0.0
C1797 C 0.58976 0.73632 0.99203 0.0
C1798 C 0.58367 0.75714 0.96785 0.0
C1799 C 0.19855 0.77343 0.83724 0.0
C1800 C 0.18539 0.79922 0.83168 0.0
C1801 C 0.22744 0.77728 0.83884 0.0
C1802 C 0.24434 0.80718 0.83528 0.0
H1803 H 0.18629 0.74953 0.83857 0.0
H1804 H 0.23643 0.75635 0.84236 0.0
S1805 S 0.22041 0.88362 0.82504 0.0
N1806 N 0.19154 0.85661 0.82606 0.0
N1807 N 0.2461 0.86394 0.82916 0.0
C1808 C 0.2317 0.83381 0.8319 0.0
C1809 C 0.20215 0.82981 0.83012 0.0
C1810 C 0.05565 0.45906 0.4965 0.0
C1811 C 0.05655 0.42763 0.50364 0.0
C1812 C 0.05654 0.48466 0.52298 0.0
C1813 C 0.05827 0.47978 0.55757 0.0
H1814 H 0.05497 0.46415 0.47043 0.0
H1815 H 0.05692 0.50877 0.51643 0.0
S1816 S 0.05741 0.401 0.58916 0.0
N1817 N 0.05655 0.39226 0.54734 0.0
N1818 N 0.05811 0.44039 0.59694 0.0
C1819 C 0.05752 0.44804 0.56473 0.0
C1820 C 0.0568 0.42201 0.53783 0.0
C1821 C 0.54652 0.30426 0.38257 0.0
C1822 C 0.54074 0.2769 0.35617 0.0
C1823 C 0.52474 0.31715 0.39318 0.0
C1824 C 0.49646 0.30322 0.37762 0.0
H1825 H 0.56805 0.31732 0.39334 0.0
H1826 H 0.5302 0.33954 0.41179 0.0
S1827 S 0.46985 0.22737 0.3128 0.0
N1828 N 0.50446 0.23312 0.31904 0.0
N1829 N 0.46361 0.25776 0.33845 0.0
C1830 C 0.49031 0.27404 0.35371 0.0
C1831 C 0.51244 0.26068 0.34323 0.0
C1832 C 0.63193 0.61265 0.49294 0.0
C1833 C 0.64339 0.59003 0.47406 0.0
C1834 C 0.61863 0.60428 0.5203 0.0
C1835 C 0.61653 0.57308 0.52988 0.0
H1836 H 0.6327 0.6367 0.4861 0.0
H1837 H 0.60941 0.62213 0.53351 0.0
S1838 S 0.64495 0.50592 0.49063 0.0
N1839 N 0.65307 0.53562 0.46847 0.0
N1840 N 0.62821 0.52027 0.51957 0.0
C1841 C 0.62862 0.5507 0.51194 0.0
C1842 C 0.64204 0.55909 0.48416 0.0
C1843 C 0.32739 0.91576 0.11792 0.0
C1844 C 0.29931 0.91354 0.10183 0.0
C1845 C 0.33404 0.89564 0.14183 0.0
C1846 C 0.31289 0.87255 0.15065 0.0
H1847 H 0.34449 0.93304 0.11186 0.0
H1848 H 0.35597 0.89805 0.15334 0.0
S1849 S 0.23597 0.8581 0.11735 0.0
N1850 N 0.25009 0.88691 0.09707 0.0
N1851 N 0.26262 0.84944 0.14258 0.0
C1852 C 0.28469 0.87019 0.13501 0.0
C1853 C 0.2779 0.89063 0.11049 0.0
C1854 C 0.99837 0.57574 0.96897 0.0
C1855 C 1.00832 0.58952 0.94105 0.0
C1856 C 1.01674 0.57323 1.00048 0.0
C1857 C 0.04659 0.58405 1.00637 0.0
H1858 H 0.97594 0.56643 0.96642 0.0
H1859 H 1.00739 0.56199 0.02003 0.0
S1860 S 0.08425 0.62291 0.94285 0.0
N1861 N 0.05087 0.61481 0.92331 0.0
N1862 N 0.08447 0.61005 0.9803 0.0
C1863 C 0.05656 0.59815 0.97875 0.0
C1864 C 0.03795 0.6009 0.94709 0.0
C1865 C 0.32983 0.25055 0.69976 0.0
C1866 C 0.30623 0.25303 0.67589 0.0
C1867 C 0.33511 0.2659 0.73439 0.0
C1868 C 0.31671 0.2839 0.74682 0.0
H1869 H 0.3443 0.23639 0.69172 0.0
H1870 H 0.35337 0.26275 0.75175 0.0
S1871 S 0.2522 0.29861 0.6945 0.0
N1872 N 0.2647 0.27577 0.66685 0.0
N1873 N 0.27426 0.30412 0.73187 0.0
C1874 C 0.29324 0.28702 0.72302 0.0
C1875 C 0.28811 0.27176 0.68762 0.0
C1876 C 0.63934 0.56346 0.26623 0.0
C1877 C 0.63627 0.58979 0.28965 0.0
C1878 C 0.62691 0.55844 0.231 0.0
C1879 C 0.6113 0.57991 0.2175 0.0
H1880 H 0.6518 0.54672 0.2751 0.0
H1881 H 0.63037 0.53815 0.21405 0.0
S1882 S 0.59556 0.65162 0.26814 0.0
N1883 N 0.6152 0.63667 0.29703 0.0
N1884 N 0.59222 0.62767 0.23086 0.0
C1885 C 0.60746 0.6059 0.24079 0.0
C1886 C 0.6198 0.61071 0.2768 0.0
C1887 C 0.3254 0.90596 0.94729 0.0
C1888 C 0.29781 0.903 0.95336 0.0
C1889 C 0.3338 0.87935 0.93112 0.0
C1890 C 0.315 0.84883 0.92063 0.0
H1891 H 0.34086 0.92888 0.95561 0.0
H1892 H 0.35528 0.88259 0.92719 0.0
S1893 S 0.24027 0.82818 0.92983 0.0
N1894 N 0.25146 0.86725 0.94674 0.0
N1895 N 0.26753 0.81688 0.91714 0.0
C1896 C 0.28732 0.84542 0.92637 0.0
C1897 C 0.2786 0.87269 0.94235 0.0
C1898 C 0.98673 0.57666 0.71427 0.0
C1899 C 0.99943 0.58179 0.75023 0.0
C1900 C 1.00206 0.57302 0.68624 0.0
C1901 C 1.03155 0.57354 0.69134 0.0
H1902 H 0.96439 0.57555 0.7074 0.0
H1903 H 0.99034 0.56943 0.66 0.0
S1904 S 0.0762 0.58701 0.77976 0.0
N1905 N 0.04466 0.58784 0.78797 0.0
N1906 N 0.07238 0.5806 0.73727 0.0
C1907 C 0.0444 0.57871 0.72717 0.0
C1908 C 1.02891 0.58285 0.75559 0.0
C1909 C 0.30229 0.28616 0.49791 0.0
C1910 C 0.29534 0.25168 0.49155 0.0
C1911 C 0.30958 0.30446 0.47221 0.0
C1912 C 0.31053 0.28922 0.43895 0.0
H1913 H 0.30259 0.29924 0.52323 0.0
H1914 H 0.31521 0.33085 0.47881 0.0
S1915 S 0.29358 0.1996 0.4084 0.0
N1916 N 0.28909 0.2031 0.44878 0.0
N1917 N 0.30319 0.23727 0.40098 0.0
C1918 C 0.303 0.25477 0.43196 0.0
C1919 C 0.29533 0.23612 0.45806 0.0
C1920 C 0.42561 0.63715 0.57973 0.0
C1921 C 0.39629 0.63091 0.56845 0.0
C1922 C 0.44196 0.62071 0.56157 0.0
C1923 C 0.4294 0.59726 0.53187 0.0
H1924 H 0.43576 0.65327 0.60383 0.0
H1925 H 0.46415 0.62425 0.57256 0.0
S1926 S 0.35446 0.57613 0.48833 0.0
N1927 N 0.35603 0.60324 0.52272 0.0
N1928 N 0.38699 0.5716 0.48946 0.0
C1929 C 0.40065 0.59296 0.5186 0.0
C1930 C 0.38401 0.61005 0.53669 0.0
C1931 C 0.97413 0.98553 0.62312 0.0
C1932 C 0.95192 0.99869 0.63301 0.0
C1933 C 0.99912 1.00575 0.61774 0.0
C1934 C 1.00291 0.04 0.62193 0.0
H1935 H 0.97207 0.95932 0.61899 0.0
H1936 H 1.01535 0.99445 0.60989 0.0
S1937 S 0.952 0.08699 0.64927 0.0
N1938 N 0.9363 0.04852 0.64795 0.0
N1939 N 0.98246 0.08603 0.63791 0.0
C1940 C 0.98106 0.05335 0.63241 0.0
C1941 C 0.95585 0.03291 0.63792 0.0
C1942 C 0.93664 0.1187 0.32492 0.0
C1943 C 0.92683 0.08589 0.30882 0.0
C1944 C 0.91882 0.14044 0.32363 0.0
C1945 C 0.89057 0.13004 0.30641 0.0
H1946 H 0.95803 0.1275 0.33942 0.0
H1947 H 0.92684 0.16516 0.33758 0.0
S1948 S 0.85528 0.04776 0.25712 0.0
N1949 N 0.88763 0.04477 0.27265 0.0
N1950 N 0.85407 0.0858 0.27083 0.0
C1951 C 0.88081 0.09778 0.28894 0.0
C1952 C 0.89899 0.07565 0.28995 0.0
C1953 C 0.79199 0.0379 0.1449 0.0
C1954 C 0.80701 0.06699 0.16664 0.0
C1955 C 0.76622 1.02125 0.15079 0.0
C1956 C 0.75443 0.03395 0.17791 0.0
H1957 H 0.79856 0.03008 0.12115 0.0
H1958 H 0.75385 1.00081 0.13153 0.0
S1959 S 0.78875 0.10613 0.24568 0.0
N1960 N 0.81116 0.10467 0.21942 0.0
N1961 N 0.76237 0.07418 0.23018 0.0
C1962 C 0.77136 0.06034 0.20261 0.0
C1963 C 0.79783 0.07684 0.19691 0.0
C1964 C 0.28528 0.46346 0.38201 0.0
C1965 C 0.25601 0.46009 0.36764 0.0
C1966 C 0.29987 0.43665 0.38093 0.0
C1967 C 0.28686 0.4034 0.36543 0.0
H1968 H 0.29747 0.4875 0.39442 0.0
H1969 H 0.32206 0.44238 0.39257 0.0
S1970 S 0.21054 0.37909 0.32334 0.0
N1971 N 0.21502 0.41864 0.33693 0.0
N1972 N 0.24142 0.37014 0.3349 0.0
C1973 C 0.25759 0.3997 0.35099 0.0
C1974 C 0.24274 0.427 0.35207 0.0
C1975 C 0.27945 0.46861 0.13354 0.0
C1976 C 0.30564 0.48406 0.12695 0.0
C1977 C 0.25588 0.48279 0.12895 0.0
C1978 C 0.25734 0.51318 0.1176 0.0
H1979 H 0.27701 0.44518 0.1422 0.0
H1980 H 0.23636 0.46985 0.13454 0.0
S1981 S 0.32064 0.56332 0.0954 0.0
N1982 N 0.33136 0.53144 0.10792 0.0
N1983 N 0.28724 0.5577 0.09878 0.0
C1984 C 0.28342 0.52889 0.11087 0.0
C1985 C 0.30743 0.51447 0.11563 0.0
C1986 C 0.9193 0.92095 0.3496 0.0
C1987 C 0.91811 0.93622 0.32015 0.0
C1988 C 0.89594 0.89823 0.35442 0.0
C1989 C 0.87055 0.88958 0.32986 0.0
H1990 H 0.93804 0.92751 0.36978 0.0
H1991 H 0.89753 0.88822 0.37819 0.0
S1992 S 0.85705 0.92034 0.24696 0.0
N1993 N 0.88971 0.9396 0.26512 0.0
N1994 N 0.84609 0.89661 0.2741 0.0
C1995 C 0.86935 0.90371 0.29974 0.0
C1996 C 0.89308 0.927 0.29488 0.0
C1997 C 0.76008 0.17782 0.88998 0.0
C1998 C 0.75931 0.14957 0.86591 0.0
C1999 C 0.77407 0.21037 0.88701 0.0
C2000 C 0.78795 0.21746 0.8593 0.0
H2001 H 0.74964 0.17484 0.91157 0.0
H2002 H 0.77363 0.23033 0.90665 0.0
S2003 S 0.79222 0.15313 0.78836 0.0
N2004 N 0.77431 0.13215 0.81295 0.0
N2005 N 0.79937 0.19176 0.807 0.0
C2006 C 0.78713 0.18942 0.83497 0.0
C2007 C 0.77329 0.15631 0.8383 0.0
loop_
_geom_bond_atom_site_label_1
_geom_bond_atom_site_label_2
_geom_bond_distance
_geom_bond_site_symmetry_2
_ccdc_geom_bond_type
In0 O1 2.294 . S
In0 O2 2.326 . S
In0 O6 2.266 1_455 S
In0 O7 2.326 1_455 S
In0 O8 2.266 . S
In0 O9 2.326 . S
In0 O11 2.294 . S
In0 O12 2.326 . S
O1 In0 2.294 . S
O1 C10 1.240 . S
O2 In0 2.326 . S
O2 C10 1.252 . S
C3 O6 1.252 . S
C3 O7 1.260 . S
C4 O11 1.240 . S
C4 O12 1.252 . S
C5 O8 1.252 . S
C5 O9 1.260 . S
O6 In0 2.266 1_655 S
O6 C3 1.252 . S
O7 In0 2.326 1_655 S
O7 C3 1.260 . S
O8 In0 2.266 . S
O8 C5 1.252 . S
O9 In0 2.326 . S
O9 C5 1.260 . S
C10 O1 1.240 . S
C10 O2 1.252 . S
O11 In0 2.294 . S
O11 C4 1.240 . S
O12 In0 2.326 . S
O12 C4 1.252 . S
In13 O14 2.294 . S
In13 O15 2.326 . S
In13 O19 2.266 . S
In13 O20 2.326 . S
In13 O21 2.266 . S
In13 O22 2.326 . S
In13 O24 2.294 . S
In13 O25 2.326 . S
O14 In13 2.294 . S
O14 C23 1.240 . S
O15 In13 2.326 . S
O15 C23 1.252 . S
C16 O19 1.252 . S
C16 O20 1.260 . S
C17 O24 1.240 . S
C17 O25 1.252 . S
C18 O21 1.252 . S
C18 O22 1.260 . S
O19 In13 2.266 . S
O19 C16 1.252 . S
O20 In13 2.326 . S
O20 C16 1.260 . S
O21 In13 2.266 . S
O21 C18 1.252 . S
O22 In13 2.326 . S
O22 C18 1.260 . S
C23 O14 1.240 . S
C23 O15 1.252 . S
O24 In13 2.294 . S
O24 C17 1.240 . S
O25 In13 2.326 . S
O25 C17 1.252 . S
In26 O27 2.294 . S
In26 O28 2.326 . S
In26 O32 2.266 . S
In26 O33 2.326 . S
In26 O34 2.266 . S
In26 O35 2.326 . S
In26 O37 2.294 . S
In26 O38 2.326 . S
O27 In26 2.294 . S
O27 C36 1.240 . S
O28 In26 2.326 . S
O28 C36 1.252 . S
C29 O32 1.252 . S
C29 O33 1.260 . S
C30 O37 1.240 . S
C30 O38 1.252 . S
C31 O34 1.252 . S
C31 O35 1.260 . S
O32 In26 2.266 . S
O32 C29 1.252 . S
O33 In26 2.326 . S
O33 C29 1.260 . S
O34 In26 2.266 . S
O34 C31 1.252 . S
O35 In26 2.326 . S
O35 C31 1.260 . S
C36 O27 1.240 . S
C36 O28 1.252 . S
O37 In26 2.294 . S
O37 C30 1.240 . S
O38 In26 2.326 . S
O38 C30 1.252 . S
In39 O40 2.294 . S
In39 O41 2.326 . S
In39 O45 2.266 . S
In39 O46 2.326 . S
In39 O47 2.266 . S
In39 O48 2.326 . S
In39 O50 2.294 . S
In39 O51 2.326 . S
O40 In39 2.294 . S
O40 C49 1.240 . S
O41 In39 2.326 . S
O41 C49 1.252 . S
C42 O45 1.252 . S
C42 O46 1.260 . S
C43 O50 1.240 . S
C43 O51 1.252 . S
C44 O47 1.252 . S
C44 O48 1.260 . S
O45 In39 2.266 . S
O45 C42 1.252 . S
O46 In39 2.326 . S
O46 C42 1.260 . S
O47 In39 2.266 . S
O47 C44 1.252 . S
O48 In39 2.326 . S
O48 C44 1.260 . S
C49 O40 1.240 . S
C49 O41 1.252 . S
O50 In39 2.294 . S
O50 C43 1.240 . S
O51 In39 2.326 . S
O51 C43 1.252 . S
In52 O53 2.294 . S
In52 O54 2.326 . S
In52 O58 2.266 . S
In52 O59 2.326 . S
In52 O60 2.266 . S
In52 O61 2.326 . S
In52 O63 2.294 . S
In52 O64 2.326 . S
O53 In52 2.294 . S
O53 C62 1.240 . S
O54 In52 2.326 . S
O54 C62 1.252 . S
C55 O58 1.252 . S
C55 O59 1.260 . S
C56 O63 1.240 . S
C56 O64 1.252 . S
C57 O60 1.252 . S
C57 O61 1.260 . S
O58 In52 2.266 . S
O58 C55 1.252 . S
O59 In52 2.326 . S
O59 C55 1.260 . S
O60 In52 2.266 . S
O60 C57 1.252 . S
O61 In52 2.326 . S
O61 C57 1.260 . S
C62 O53 1.240 . S
C62 O54 1.252 . S
O63 In52 2.294 . S
O63 C56 1.240 . S
O64 In52 2.326 . S
O64 C56 1.252 . S
In65 O66 2.294 . S
In65 O67 2.326 . S
In65 O71 2.266 . S
In65 O72 2.326 . S
In65 O73 2.266 . S
In65 O74 2.326 . S
In65 O76 2.294 . S
In65 O77 2.326 . S
O66 In65 2.294 . S
O66 C75 1.240 . S
O67 In65 2.326 . S
O67 C75 1.252 . S
C68 O71 1.252 . S
C68 O72 1.260 . S
C69 O76 1.240 . S
C69 O77 1.252 . S
C70 O73 1.252 . S
C70 O74 1.260 . S
O71 In65 2.266 . S
O71 C68 1.252 . S
O72 In65 2.326 . S
O72 C68 1.260 . S
O73 In65 2.266 . S
O73 C70 1.252 . S
O74 In65 2.326 . S
O74 C70 1.260 . S
C75 O66 1.240 . S
C75 O67 1.252 . S
O76 In65 2.294 . S
O76 C69 1.240 . S
O77 In65 2.326 . S
O77 C69 1.252 . S
In78 O79 2.294 . S
In78 O80 2.326 . S
In78 O84 2.266 . S
In78 O85 2.326 . S
In78 O86 2.266 . S
In78 O87 2.326 . S
In78 O89 2.294 . S
In78 O90 2.326 . S
O79 In78 2.294 . S
O79 C88 1.240 . S
O80 In78 2.326 . S
O80 C88 1.252 . S
C81 O84 1.252 . S
C81 O85 1.260 . S
C82 O89 1.240 . S
C82 O90 1.252 . S
C83 O86 1.252 . S
C83 O87 1.260 . S
O84 In78 2.266 . S
O84 C81 1.252 . S
O85 In78 2.326 . S
O85 C81 1.260 . S
O86 In78 2.266 . S
O86 C83 1.252 . S
O87 In78 2.326 . S
O87 C83 1.260 . S
C88 O79 1.240 . S
C88 O80 1.252 . S
O89 In78 2.294 . S
O89 C82 1.240 . S
O90 In78 2.326 . S
O90 C82 1.252 . S
In91 O92 2.294 1_556 S
In91 O93 2.326 . S
In91 O97 2.266 1_556 S
In91 O98 2.326 . S
In91 O99 2.266 1_455 S
In91 O100 2.326 1_455 S
In91 O102 2.294 . S
In91 O103 2.326 . S
O92 In91 2.294 1_554 S
O92 C101 1.240 . S
O93 In91 2.326 . S
O93 C101 1.252 1_556 S
C94 O97 1.252 . S
C94 O98 1.260 1_554 S
C95 O102 1.240 . S
C95 O103 1.252 . S
C96 O99 1.252 . S
C96 O100 1.260 . S
O97 In91 2.266 1_554 S
O97 C94 1.252 . S
O98 In91 2.326 . S
O98 C94 1.260 1_556 S
O99 In91 2.266 1_655 S
O99 C96 1.252 . S
O100 In91 2.326 1_655 S
O100 C96 1.260 . S
C101 O92 1.240 . S
C101 O93 1.252 1_554 S
O102 In91 2.294 . S
O102 C95 1.240 . S
O103 In91 2.326 . S
O103 C95 1.252 . S
In104 O105 2.294 . S
In104 O106 2.326 . S
In104 O110 2.266 . S
In104 O111 2.326 . S
In104 O112 2.266 1_545 S
In104 O113 2.326 1_545 S
In104 O115 2.294 . S
In104 O116 2.326 . S
O105 In104 2.294 . S
O105 C114 1.240 . S
O106 In104 2.326 . S
O106 C114 1.252 . S
C107 O110 1.252 . S
C107 O111 1.260 . S
C108 O115 1.240 . S
C108 O116 1.252 . S
C109 O112 1.252 . S
C109 O113 1.260 . S
O110 In104 2.266 . S
O110 C107 1.252 . S
O111 In104 2.326 . S
O111 C107 1.260 . S
O112 In104 2.266 1_565 S
O112 C109 1.252 . S
O113 In104 2.326 1_565 S
O113 C109 1.260 . S
C114 O105 1.240 . S
C114 O106 1.252 . S
O115 In104 2.294 . S
O115 C108 1.240 . S
O116 In104 2.326 . S
O116 C108 1.252 . S
In117 O118 2.294 . S
In117 O119 2.326 . S
In117 O123 2.266 . S
In117 O124 2.326 . S
In117 O125 2.266 . S
In117 O126 2.326 . S
In117 O128 2.294 . S
In117 O129 2.326 . S
O118 In117 2.294 . S
O118 C127 1.240 . S
O119 In117 2.326 . S
O119 C127 1.252 . S
C120 O123 1.252 . S
C120 O124 1.260 . S
C121 O128 1.240 . S
C121 O129 1.252 . S
C122 O125 1.252 . S
C122 O126 1.260 . S
O123 In117 2.266 . S
O123 C120 1.252 . S
O124 In117 2.326 . S
O124 C120 1.260 . S
O125 In117 2.266 . S
O125 C122 1.252 . S
O126 In117 2.326 . S
O126 C122 1.260 . S
C127 O118 1.240 . S
C127 O119 1.252 . S
O128 In117 2.294 . S
O128 C121 1.240 . S
O129 In117 2.326 . S
O129 C121 1.252 . S
In130 O131 2.294 . S
In130 O132 2.326 . S
In130 O136 2.266 . S
In130 O137 2.326 . S
In130 O138 2.266 . S
In130 O139 2.326 . S
In130 O141 2.294 . S
In130 O142 2.326 . S
O131 In130 2.294 . S
O131 C140 1.240 . S
O132 In130 2.326 . S
O132 C140 1.252 . S
C133 O136 1.252 . S
C133 O137 1.260 . S
C134 O141 1.240 . S
C134 O142 1.252 . S
C135 O138 1.252 . S
C135 O139 1.260 . S
O136 In130 2.266 . S
O136 C133 1.252 . S
O137 In130 2.326 . S
O137 C133 1.260 . S
O138 In130 2.266 . S
O138 C135 1.252 . S
O139 In130 2.326 . S
O139 C135 1.260 . S
C140 O131 1.240 . S
C140 O132 1.252 . S
O141 In130 2.294 . S
O141 C134 1.240 . S
O142 In130 2.326 . S
O142 C134 1.252 . S
In143 O144 2.296 . S
In143 O145 2.329 . S
In143 O149 2.264 1_554 S
In143 O150 2.322 1_554 S
In143 O151 2.265 . S
In143 O152 2.331 . S
In143 O154 2.294 . S
In143 O155 2.334 1_554 S
O144 In143 2.296 . S
O144 C153 1.240 . S
O145 In143 2.329 . S
O145 C153 1.252 . S
C146 O149 1.252 . S
C146 O150 1.260 . S
C147 O154 1.240 . S
C147 O155 1.252 1_554 S
C148 O151 1.252 . S
C148 O152 1.255 . S
O149 In143 2.264 1_556 S
O149 C146 1.252 . S
O150 In143 2.322 1_556 S
O150 C146 1.260 . S
O151 In143 2.265 . S
O151 C148 1.252 . S
O152 In143 2.331 . S
O152 C148 1.255 . S
C153 O144 1.240 . S
C153 O145 1.252 . S
O154 In143 2.294 . S
O154 C147 1.240 . S
O155 In143 2.334 1_556 S
O155 C147 1.252 1_556 S
In156 O157 2.294 . S
In156 O158 2.326 . S
In156 O162 2.266 . S
In156 O163 2.326 . S
In156 O164 2.266 . S
In156 O165 2.326 . S
In156 O167 2.294 . S
In156 O168 2.326 . S
O157 In156 2.294 . S
O157 C166 1.240 . S
O158 In156 2.326 . S
O158 C166 1.252 . S
C159 O162 1.252 . S
C159 O163 1.260 . S
C160 O167 1.240 . S
C160 O168 1.252 . S
C161 O164 1.252 . S
C161 O165 1.260 . S
O162 In156 2.266 . S
O162 C159 1.252 . S
O163 In156 2.326 . S
O163 C159 1.260 . S
O164 In156 2.266 . S
O164 C161 1.252 . S
O165 In156 2.326 . S
O165 C161 1.260 . S
C166 O157 1.240 . S
C166 O158 1.252 . S
O167 In156 2.294 . S
O167 C160 1.240 . S
O168 In156 2.326 . S
O168 C160 1.252 . S
In169 O170 2.294 . S
In169 O171 2.326 . S
In169 O175 2.266 . S
In169 O176 2.326 . S
In169 O177 2.266 . S
In169 O178 2.326 . S
In169 O180 2.294 . S
In169 O181 2.326 . S
O170 In169 2.294 . S
O170 C179 1.240 . S
O171 In169 2.326 . S
O171 C179 1.252 . S
C172 O175 1.252 . S
C172 O176 1.260 . S
C173 O180 1.240 . S
C173 O181 1.252 . S
C174 O177 1.252 . S
C174 O178 1.260 . S
O175 In169 2.266 . S
O175 C172 1.252 . S
O176 In169 2.326 . S
O176 C172 1.260 . S
O177 In169 2.266 . S
O177 C174 1.252 . S
O178 In169 2.326 . S
O178 C174 1.260 . S
C179 O170 1.240 . S
C179 O171 1.252 . S
O180 In169 2.294 . S
O180 C173 1.240 . S
O181 In169 2.326 . S
O181 C173 1.252 . S
In182 O183 2.294 . S
In182 O184 2.326 . S
In182 O188 2.266 . S
In182 O189 2.326 . S
In182 O190 2.266 . S
In182 O191 2.326 . S
In182 O193 2.294 . S
In182 O194 2.326 . S
O183 In182 2.294 . S
O183 C192 1.240 . S
O184 In182 2.326 . S
O184 C192 1.252 . S
C185 O188 1.252 . S
C185 O189 1.260 . S
C186 O193 1.240 . S
C186 O194 1.252 . S
C187 O190 1.252 . S
C187 O191 1.260 . S
O188 In182 2.266 . S
O188 C185 1.252 . S
O189 In182 2.326 . S
O189 C185 1.260 . S
O190 In182 2.266 . S
O190 C187 1.252 . S
O191 In182 2.326 . S
O191 C187 1.260 . S
C192 O183 1.240 . S
C192 O184 1.252 . S
O193 In182 2.294 . S
O193 C186 1.240 . S
O194 In182 2.326 . S
O194 C186 1.252 . S
In195 O196 2.294 . S
In195 O197 2.326 . S
In195 O201 2.266 . S
In195 O202 2.326 . S
In195 O203 2.266 . S
In195 O204 2.326 . S
In195 O206 2.294 . S
In195 O207 2.326 . S
O196 In195 2.294 . S
O196 C205 1.240 . S
O197 In195 2.326 . S
O197 C205 1.252 . S
C198 O201 1.252 . S
C198 O202 1.260 . S
C199 O206 1.240 . S
C199 O207 1.252 . S
C200 O203 1.252 . S
C200 O204 1.260 . S
O201 In195 2.266 . S
O201 C198 1.252 . S
O202 In195 2.326 . S
O202 C198 1.260 . S
O203 In195 2.266 . S
O203 C200 1.252 . S
O204 In195 2.326 . S
O204 C200 1.260 . S
C205 O196 1.240 . S
C205 O197 1.252 . S
O206 In195 2.294 . S
O206 C199 1.240 . S
O207 In195 2.326 . S
O207 C199 1.252 . S
In208 O209 2.297 . S
In208 O210 2.331 1_545 S
In208 O214 2.259 . S
In208 O215 2.322 . S
In208 O216 2.250 1_545 S
In208 O217 2.297 1_545 S
In208 O219 2.314 . S
In208 O220 2.354 . S
O209 In208 2.297 . S
O209 C218 1.240 . S
O210 In208 2.331 1_565 S
O210 C218 1.252 1_565 S
C211 O214 1.252 . S
C211 O215 1.260 . S
C212 O219 1.240 . S
C212 O220 1.252 . S
C213 O216 1.252 . S
C213 O217 1.260 . S
O214 In208 2.259 . S
O214 C211 1.252 . S
O215 In208 2.322 . S
O215 C211 1.260 . S
O216 In208 2.250 1_565 S
O216 C213 1.252 . S
O217 In208 2.297 1_565 S
O217 C213 1.260 . S
C218 O209 1.240 . S
C218 O210 1.252 1_545 S
O219 In208 2.314 . S
O219 C212 1.240 . S
O220 In208 2.354 . S
O220 C212 1.252 . S
In221 O222 2.294 . S
In221 O223 2.326 . S
In221 O227 2.266 . S
In221 O228 2.326 . S
In221 O229 2.266 . S
In221 O230 2.326 . S
In221 O232 2.294 . S
In221 O233 2.326 . S
O222 In221 2.294 . S
O222 C231 1.240 . S
O223 In221 2.326 . S
O223 C231 1.252 . S
C224 O227 1.252 . S
C224 O228 1.260 . S
C225 O232 1.240 . S
C225 O233 1.252 . S
C226 O229 1.252 . S
C226 O230 1.260 . S
O227 In221 2.266 . S
O227 C224 1.252 . S
O228 In221 2.326 . S
O228 C224 1.260 . S
O229 In221 2.266 . S
O229 C226 1.252 . S
O230 In221 2.326 . S
O230 C226 1.260 . S
C231 O222 1.240 . S
C231 O223 1.252 . S
O232 In221 2.294 . S
O232 C225 1.240 . S
O233 In221 2.326 . S
O233 C225 1.252 . S
In234 O235 2.294 . S
In234 O236 2.326 . S
In234 O240 2.266 . S
In234 O241 2.326 . S
In234 O242 2.266 . S
In234 O243 2.326 . S
In234 O245 2.294 . S
In234 O246 2.326 . S
O235 In234 2.294 . S
O235 C244 1.240 . S
O236 In234 2.326 . S
O236 C244 1.252 . S
C237 O240 1.252 . S
C237 O241 1.260 . S
C238 O245 1.240 . S
C238 O246 1.252 . S
C239 O242 1.252 . S
C239 O243 1.260 . S
O240 In234 2.266 . S
O240 C237 1.252 . S
O241 In234 2.326 . S
O241 C237 1.260 . S
O242 In234 2.266 . S
O242 C239 1.252 . S
O243 In234 2.326 . S
O243 C239 1.260 . S
C244 O235 1.240 . S
C244 O236 1.252 . S
O245 In234 2.294 . S
O245 C238 1.240 . S
O246 In234 2.326 . S
O246 C238 1.252 . S
In247 O248 2.294 . S
In247 O249 2.326 1_545 S
In247 O253 2.266 . S
In247 O254 2.326 . S
In247 O255 2.266 . S
In247 O256 2.326 . S
In247 O258 2.294 . S
In247 O259 2.326 . S
O248 In247 2.294 . S
O248 C257 1.240 1_545 S
O249 In247 2.326 1_565 S
O249 C257 1.252 . S
C250 O253 1.252 . S
C250 O254 1.260 . S
C251 O258 1.240 . S
C251 O259 1.252 . S
C252 O255 1.252 . S
C252 O256 1.260 . S
O253 In247 2.266 . S
O253 C250 1.252 . S
O254 In247 2.326 . S
O254 C250 1.260 . S
O255 In247 2.266 . S
O255 C252 1.252 . S
O256 In247 2.326 . S
O256 C252 1.260 . S
C257 O248 1.240 1_565 S
C257 O249 1.252 . S
O258 In247 2.294 . S
O258 C251 1.240 . S
O259 In247 2.326 . S
O259 C251 1.252 . S
In260 O261 2.294 . S
In260 O262 2.326 . S
In260 O266 2.266 . S
In260 O267 2.326 . S
In260 O268 2.266 . S
In260 O269 2.326 . S
In260 O271 2.294 . S
In260 O272 2.326 . S
O261 In260 2.294 . S
O261 C270 1.240 . S
O262 In260 2.326 . S
O262 C270 1.252 . S
C263 O266 1.252 . S
C263 O267 1.260 . S
C264 O271 1.240 . S
C264 O272 1.252 . S
C265 O268 1.252 . S
C265 O269 1.260 . S
O266 In260 2.266 . S
O266 C263 1.252 . S
O267 In260 2.326 . S
O267 C263 1.260 . S
O268 In260 2.266 . S
O268 C265 1.252 . S
O269 In260 2.326 . S
O269 C265 1.260 . S
C270 O261 1.240 . S
C270 O262 1.252 . S
O271 In260 2.294 . S
O271 C264 1.240 . S
O272 In260 2.326 . S
O272 C264 1.252 . S
In273 O274 2.294 . S
In273 O275 2.326 . S
In273 O279 2.266 . S
In273 O280 2.326 . S
In273 O281 2.266 . S
In273 O282 2.326 . S
In273 O284 2.294 . S
In273 O285 2.326 . S
O274 In273 2.294 . S
O274 C283 1.240 . S
O275 In273 2.326 . S
O275 C283 1.252 . S
C276 O279 1.252 . S
C276 O280 1.260 . S
C277 O284 1.240 . S
C277 O285 1.252 . S
C278 O281 1.252 . S
C278 O282 1.260 . S
O279 In273 2.266 . S
O279 C276 1.252 . S
O280 In273 2.326 . S
O280 C276 1.260 . S
O281 In273 2.266 . S
O281 C278 1.252 . S
O282 In273 2.326 . S
O282 C278 1.260 . S
C283 O274 1.240 . S
C283 O275 1.252 . S
O284 In273 2.294 . S
O284 C277 1.240 . S
O285 In273 2.326 . S
O285 C277 1.252 . S
In286 O287 2.294 . S
In286 O288 2.326 . S
In286 O292 2.266 . S
In286 O293 2.326 . S
In286 O294 2.266 . S
In286 O295 2.326 . S
In286 O297 2.294 . S
In286 O298 2.326 . S
O287 In286 2.294 . S
O287 C296 1.240 . S
O288 In286 2.326 . S
O288 C296 1.252 . S
C289 O292 1.252 . S
C289 O293 1.260 . S
C290 O297 1.240 . S
C290 O298 1.252 . S
C291 O294 1.252 . S
C291 O295 1.260 . S
O292 In286 2.266 . S
O292 C289 1.252 . S
O293 In286 2.326 . S
O293 C289 1.260 . S
O294 In286 2.266 . S
O294 C291 1.252 . S
O295 In286 2.326 . S
O295 C291 1.260 . S
C296 O287 1.240 . S
C296 O288 1.252 . S
O297 In286 2.294 . S
O297 C290 1.240 . S
O298 In286 2.326 . S
O298 C290 1.252 . S
In299 O300 2.294 . S
In299 O301 2.326 . S
In299 O305 2.266 . S
In299 O306 2.326 . S
In299 O307 2.266 . S
In299 O308 2.326 . S
In299 O310 2.294 . S
In299 O311 2.326 . S
O300 In299 2.294 . S
O300 C309 1.240 . S
O301 In299 2.326 . S
O301 C309 1.252 . S
C302 O305 1.252 . S
C302 O306 1.260 . S
C303 O310 1.240 . S
C303 O311 1.252 . S
C304 O307 1.252 . S
C304 O308 1.260 . S
O305 In299 2.266 . S
O305 C302 1.252 . S
O306 In299 2.326 . S
O306 C302 1.260 . S
O307 In299 2.266 . S
O307 C304 1.252 . S
O308 In299 2.326 . S
O308 C304 1.260 . S
C309 O300 1.240 . S
C309 O301 1.252 . S
O310 In299 2.294 . S
O310 C303 1.240 . S
O311 In299 2.326 . S
O311 C303 1.252 . S
Tb312 C314 2.809 1_455 S
Tb312 O332 2.484 1_455 S
Tb312 O333 2.440 1_455 S
Tb312 O334 2.658 . S
Tb312 O335 2.409 . S
Tb312 O336 2.378 . S
Tb312 O340 2.325 . S
Tb312 O343 2.341 1_545 S
Tb313 C323 2.809 . S
Tb313 O334 2.325 . S
Tb313 O337 2.341 . S
Tb313 O338 2.484 . S
Tb313 O339 2.440 . S
Tb313 O340 2.658 . S
Tb313 O341 2.409 . S
Tb313 O342 2.378 . S
C314 Tb312 2.809 1_655 S
C314 C315 1.514 . S
C314 O332 1.248 . S
C314 O333 1.266 . S
C315 C314 1.514 . S
C315 C316 1.359 . S
C315 C320 1.348 . S
C316 C315 1.359 . S
C316 C317 1.380 . S
C316 H344 0.929 . S
C317 C316 1.380 . S
C317 C318 1.347 . S
C317 H345 0.931 . S
C318 C317 1.347 . S
C318 C319 1.369 . S
C319 C318 1.369 . S
C319 C320 1.408 . S
C319 H346 0.930 . S
C320 C315 1.348 . S
C320 C319 1.408 . S
C320 H347 0.930 . S
C321 O334 1.281 . S
C321 O335 1.254 . S
C322 O336 1.236 . S
C322 O337 1.266 . S
C323 Tb313 2.809 . S
C323 C324 1.514 . S
C323 O338 1.248 . S
C323 O339 1.266 . S
C324 C323 1.514 . S
C324 C325 1.359 1_545 S
C324 C329 1.348 . S
C325 C324 1.359 1_565 S
C325 C326 1.380 . S
C325 H348 0.929 . S
C326 C325 1.380 . S
C326 C327 1.347 . S
C326 H349 0.931 . S
C327 C326 1.347 . S
C327 C328 1.369 . S
C328 C327 1.369 . S
C328 C329 1.408 1_565 S
C328 H350 0.930 . S
C329 C324 1.348 . S
C329 C328 1.408 1_545 S
C329 H351 0.930 . S
C330 O340 1.281 . S
C330 O341 1.254 . S
C331 O342 1.236 1_565 S
C331 O343 1.266 . S
O332 Tb312 2.484 1_655 S
O332 C314 1.248 . S
O333 Tb312 2.440 1_655 S
O333 C314 1.266 . S
O334 Tb312 2.658 . S
O334 Tb313 2.325 . S
O334 C321 1.281 . S
O335 Tb312 2.409 . S
O335 C321 1.254 . S
O336 Tb312 2.378 . S
O336 C322 1.236 . S
O337 Tb313 2.341 . S
O337 C322 1.266 . S
O338 Tb313 2.484 . S
O338 C323 1.248 . S
O339 Tb313 2.440 . S
O339 C323 1.266 . S
O340 Tb312 2.325 . S
O340 Tb313 2.658 . S
O340 C330 1.281 . S
O341 Tb313 2.409 . S
O341 C330 1.254 . S
O342 Tb313 2.378 . S
O342 C331 1.236 1_545 S
O343 Tb312 2.341 1_565 S
O343 C331 1.266 . S
H344 C316 0.929 . S
H345 C317 0.931 . S
H346 C319 0.930 . S
H347 C320 0.930 . S
H348 C325 0.929 . S
H349 C326 0.931 . S
H350 C328 0.930 . S
H351 C329 0.930 . S
Tb352 C354 2.809 . S
Tb352 O372 2.484 . S
Tb352 O373 2.440 . S
Tb352 O374 2.658 . S
Tb352 O375 2.409 . S
Tb352 O376 2.378 . S
Tb352 O380 2.325 . S
Tb352 O383 2.341 . S
Tb353 C363 2.809 . S
Tb353 O374 2.325 . S
Tb353 O377 2.341 . S
Tb353 O378 2.484 . S
Tb353 O379 2.440 . S
Tb353 O380 2.658 . S
Tb353 O381 2.409 . S
Tb353 O382 2.378 . S
C354 Tb352 2.809 . S
C354 C355 1.514 . S
C354 O372 1.248 . S
C354 O373 1.266 . S
C355 C354 1.514 . S
C355 C356 1.359 . S
C355 C360 1.348 . S
C356 C355 1.359 . S
C356 C357 1.380 . S
C356 H384 0.929 . S
C357 C356 1.380 . S
C357 C358 1.347 . S
C357 H385 0.931 . S
C358 C357 1.347 . S
C358 C359 1.369 . S
C359 C358 1.369 . S
C359 C360 1.408 . S
C359 H386 0.930 . S
C360 C355 1.348 . S
C360 C359 1.408 . S
C360 H387 0.930 . S
C361 O374 1.281 . S
C361 O375 1.254 . S
C362 O376 1.236 . S
C362 O377 1.266 . S
C363 Tb353 2.809 . S
C363 C364 1.514 . S
C363 O378 1.248 . S
C363 O379 1.266 . S
C364 C363 1.514 . S
C364 C365 1.359 . S
C364 C369 1.348 . S
C365 C364 1.359 . S
C365 C366 1.380 . S
C365 H388 0.929 . S
C366 C365 1.380 . S
C366 C367 1.347 . S
C366 H389 0.931 . S
C367 C366 1.347 . S
C367 C368 1.369 . S
C368 C367 1.369 . S
C368 C369 1.408 . S
C368 H390 0.930 . S
C369 C364 1.348 . S
C369 C368 1.408 . S
C369 H391 0.930 . S
C370 O380 1.281 . S
C370 O381 1.254 . S
C371 O382 1.236 . S
C371 O383 1.266 . S
O372 Tb352 2.484 . S
O372 C354 1.248 . S
O373 Tb352 2.440 . S
O373 C354 1.266 . S
O374 Tb352 2.658 . S
O374 Tb353 2.325 . S
O374 C361 1.281 . S
O375 Tb352 2.409 . S
O375 C361 1.254 . S
O376 Tb352 2.378 . S
O376 C362 1.236 . S
O377 Tb353 2.341 . S
O377 C362 1.266 . S
O378 Tb353 2.484 . S
O378 C363 1.248 . S
O379 Tb353 2.440 . S
O379 C363 1.266 . S
O380 Tb352 2.325 . S
O380 Tb353 2.658 . S
O380 C370 1.281 . S
O381 Tb353 2.409 . S
O381 C370 1.254 . S
O382 Tb353 2.378 . S
O382 C371 1.236 . S
O383 Tb352 2.341 . S
O383 C371 1.266 . S
H384 C356 0.929 . S
H385 C357 0.931 . S
H386 C359 0.930 . S
H387 C360 0.930 . S
H388 C365 0.929 . S
H389 C366 0.931 . S
H390 C368 0.930 . S
H391 C369 0.930 . S
Tb392 C394 2.809 . S
Tb392 O412 2.484 . S
Tb392 O413 2.440 . S
Tb392 O414 2.658 . S
Tb392 O415 2.409 . S
Tb392 O416 2.378 1_545 S
Tb392 O420 2.325 . S
Tb392 O423 2.341 . S
Tb393 C403 2.809 . S
Tb393 O414 2.325 . S
Tb393 O417 2.341 1_545 S
Tb393 O418 2.484 . S
Tb393 O419 2.440 . S
Tb393 O420 2.658 . S
Tb393 O421 2.409 . S
Tb393 O422 2.378 . S
C394 Tb392 2.809 . S
C394 C395 1.514 1_545 S
C394 O412 1.248 . S
C394 O413 1.266 . S
C395 C394 1.514 1_565 S
C395 C396 1.359 . S
C395 C400 1.348 . S
C396 C395 1.359 . S
C396 C397 1.380 . S
C396 H424 0.929 . S
C397 C396 1.380 . S
C397 C398 1.347 . S
C397 H425 0.931 . S
C398 C397 1.347 . S
C398 C399 1.369 . S
C399 C398 1.369 . S
C399 C400 1.408 . S
C399 H426 0.930 . S
C400 C395 1.348 . S
C400 C399 1.408 . S
C400 H427 0.930 . S
C401 O414 1.281 . S
C401 O415 1.254 . S
C402 O416 1.236 . S
C402 O417 1.266 . S
C403 Tb393 2.809 . S
C403 C404 1.514 . S
C403 O418 1.248 . S
C403 O419 1.266 . S
C404 C403 1.514 . S
C404 C405 1.359 . S
C404 C409 1.348 . S
C405 C404 1.359 . S
C405 C406 1.380 . S
C405 H428 0.929 . S
C406 C405 1.380 . S
C406 C407 1.347 . S
C406 H429 0.931 . S
C407 C406 1.347 . S
C407 C408 1.369 . S
C408 C407 1.369 . S
C408 C409 1.408 . S
C408 H430 0.930 . S
C409 C404 1.348 . S
C409 C408 1.408 . S
C409 H431 0.930 . S
C410 O420 1.281 . S
C410 O421 1.254 . S
C411 O422 1.236 . S
C411 O423 1.266 . S
O412 Tb392 2.484 . S
O412 C394 1.248 . S
O413 Tb392 2.440 . S
O413 C394 1.266 . S
O414 Tb392 2.658 . S
O414 Tb393 2.325 . S
O414 C401 1.281 . S
O415 Tb392 2.409 . S
O415 C401 1.254 . S
O416 Tb392 2.378 1_565 S
O416 C402 1.236 . S
O417 Tb393 2.341 1_565 S
O417 C402 1.266 . S
O418 Tb393 2.484 . S
O418 C403 1.248 . S
O419 Tb393 2.440 . S
O419 C403 1.266 . S
O420 Tb392 2.325 . S
O420 Tb393 2.658 . S
O420 C410 1.281 . S
O421 Tb393 2.409 . S
O421 C410 1.254 . S
O422 Tb393 2.378 . S
O422 C411 1.236 . S
O423 Tb392 2.341 . S
O423 C411 1.266 . S
H424 C396 0.929 . S
H425 C397 0.931 . S
H426 C399 0.930 . S
H427 C400 0.930 . S
H428 C405 0.929 . S
H429 C406 0.931 . S
H430 C408 0.930 . S
H431 C409 0.930 . S
Tb432 C434 2.809 . S
Tb432 O452 2.484 . S
Tb432 O453 2.440 . S
Tb432 O454 2.658 . S
Tb432 O455 2.409 . S
Tb432 O456 2.378 . S
Tb432 O460 2.325 . S
Tb432 O463 2.341 . S
Tb433 C443 2.809 . S
Tb433 O454 2.325 . S
Tb433 O457 2.341 . S
Tb433 O458 2.484 . S
Tb433 O459 2.440 . S
Tb433 O460 2.658 . S
Tb433 O461 2.409 . S
Tb433 O462 2.378 . S
C434 Tb432 2.809 . S
C434 C435 1.514 . S
C434 O452 1.248 . S
C434 O453 1.266 . S
C435 C434 1.514 . S
C435 C436 1.359 . S
C435 C440 1.348 . S
C436 C435 1.359 . S
C436 C437 1.380 . S
C436 H464 0.929 . S
C437 C436 1.380 . S
C437 C438 1.347 . S
C437 H465 0.931 . S
C438 C437 1.347 . S
C438 C439 1.369 . S
C439 C438 1.369 . S
C439 C440 1.408 . S
C439 H466 0.930 . S
C440 C435 1.348 . S
C440 C439 1.408 . S
C440 H467 0.930 . S
C441 O454 1.281 . S
C441 O455 1.254 . S
C442 O456 1.236 . S
C442 O457 1.266 . S
C443 Tb433 2.809 . S
C443 C444 1.514 . S
C443 O458 1.248 . S
C443 O459 1.266 . S
C444 C443 1.514 . S
C444 C445 1.359 . S
C444 C449 1.348 . S
C445 C444 1.359 . S
C445 C446 1.380 . S
C445 H468 0.929 . S
C446 C445 1.380 . S
C446 C447 1.347 . S
C446 H469 0.931 . S
C447 C446 1.347 . S
C447 C448 1.369 . S
C448 C447 1.369 . S
C448 C449 1.408 . S
C448 H470 0.930 . S
C449 C444 1.348 . S
C449 C448 1.408 . S
C449 H471 0.930 . S
C450 O460 1.281 . S
C450 O461 1.254 . S
C451 O462 1.236 . S
C451 O463 1.266 . S
O452 Tb432 2.484 . S
O452 C434 1.248 . S
O453 Tb432 2.440 . S
O453 C434 1.266 . S
O454 Tb432 2.658 . S
O454 Tb433 2.325 . S
O454 C441 1.281 . S
O455 Tb432 2.409 . S
O455 C441 1.254 . S
O456 Tb432 2.378 . S
O456 C442 1.236 . S
O457 Tb433 2.341 . S
O457 C442 1.266 . S
O458 Tb433 2.484 . S
O458 C443 1.248 . S
O459 Tb433 2.440 . S
O459 C443 1.266 . S
O460 Tb432 2.325 . S
O460 Tb433 2.658 . S
O460 C450 1.281 . S
O461 Tb433 2.409 . S
O461 C450 1.254 . S
O462 Tb433 2.378 . S
O462 C451 1.236 . S
O463 Tb432 2.341 . S
O463 C451 1.266 . S
H464 C436 0.929 . S
H465 C437 0.931 . S
H466 C439 0.930 . S
H467 C440 0.930 . S
H468 C445 0.929 . S
H469 C446 0.931 . S
H470 C448 0.930 . S
H471 C449 0.930 . S
Tb472 C474 2.809 . S
Tb472 O492 2.484 . S
Tb472 O493 2.440 . S
Tb472 O494 2.658 . S
Tb472 O495 2.409 . S
Tb472 O496 2.378 . S
Tb472 O500 2.325 . S
Tb472 O503 2.341 . S
Tb473 C483 2.809 . S
Tb473 O494 2.325 1_565 S
Tb473 O497 2.341 1_565 S
Tb473 O498 2.484 . S
Tb473 O499 2.440 . S
Tb473 O500 2.658 1_565 S
Tb473 O501 2.409 1_565 S
Tb473 O502 2.378 1_565 S
C474 Tb472 2.809 . S
C474 C475 1.514 . S
C474 O492 1.248 . S
C474 O493 1.266 . S
C475 C474 1.514 . S
C475 C476 1.359 . S
C475 C480 1.387 . S
C476 C475 1.359 . S
C476 C477 1.380 . S
C476 H504 0.929 . S
C477 C476 1.380 . S
C477 C478 1.347 . S
C477 H505 0.931 . S
C478 C477 1.347 . S
C478 C479 1.369 1_455 S
C479 C478 1.369 1_655 S
C479 C480 1.398 1_655 S
C479 H506 0.930 . S
C480 C475 1.387 . S
C480 C479 1.398 1_455 S
C480 H507 0.903 1_455 S
C481 O494 1.281 . S
C481 O495 1.254 . S
C482 O496 1.236 . S
C482 O497 1.266 . S
C483 Tb473 2.809 . S
C483 C484 1.514 . S
C483 O498 1.248 . S
C483 O499 1.266 . S
C484 C483 1.514 . S
C484 C485 1.359 . S
C484 C489 1.348 . S
C485 C484 1.359 . S
C485 C486 1.380 . S
C485 H508 0.929 . S
C486 C485 1.380 . S
C486 C487 1.347 . S
C486 H509 0.931 . S
C487 C486 1.347 . S
C487 C488 1.369 . S
C488 C487 1.369 . S
C488 C489 1.408 . S
C488 H510 0.930 . S
C489 C484 1.348 . S
C489 C488 1.408 . S
C489 H511 0.930 . S
C490 O500 1.281 . S
C490 O501 1.254 . S
C491 O502 1.236 . S
C491 O503 1.266 . S
O492 Tb472 2.484 . S
O492 C474 1.248 . S
O493 Tb472 2.440 . S
O493 C474 1.266 . S
O494 Tb472 2.658 . S
O494 Tb473 2.325 1_545 S
O494 C481 1.281 . S
O495 Tb472 2.409 . S
O495 C481 1.254 . S
O496 Tb472 2.378 . S
O496 C482 1.236 . S
O497 Tb473 2.341 1_545 S
O497 C482 1.266 . S
O498 Tb473 2.484 . S
O498 C483 1.248 . S
O499 Tb473 2.440 . S
O499 C483 1.266 . S
O500 Tb472 2.325 . S
O500 Tb473 2.658 1_545 S
O500 C490 1.281 . S
O501 Tb473 2.409 1_545 S
O501 C490 1.254 . S
O502 Tb473 2.378 1_545 S
O502 C491 1.236 . S
O503 Tb472 2.341 . S
O503 C491 1.266 . S
H504 C476 0.929 . S
H505 C477 0.931 . S
H506 C479 0.930 . S
H507 C480 0.903 1_655 S
H508 C485 0.929 . S
H509 C486 0.931 . S
H510 C488 0.930 . S
H511 C489 0.930 . S
Tb512 C514 2.809 . S
Tb512 O532 2.484 . S
Tb512 O533 2.440 . S
Tb512 O534 2.658 . S
Tb512 O535 2.409 . S
Tb512 O536 2.378 . S
Tb512 O540 2.325 . S
Tb512 O543 2.341 . S
Tb513 C523 2.809 . S
Tb513 O534 2.325 . S
Tb513 O537 2.341 . S
Tb513 O538 2.484 . S
Tb513 O539 2.440 . S
Tb513 O540 2.658 . S
Tb513 O541 2.409 . S
Tb513 O542 2.378 . S
C514 Tb512 2.809 . S
C514 C515 1.514 . S
C514 O532 1.248 . S
C514 O533 1.266 . S
C515 C514 1.514 . S
C515 C516 1.359 . S
C515 C520 1.348 . S
C516 C515 1.359 . S
C516 C517 1.380 . S
C516 H544 0.929 . S
C517 C516 1.380 . S
C517 C518 1.347 . S
C517 H545 0.931 . S
C518 C517 1.347 . S
C518 C519 1.369 . S
C519 C518 1.369 . S
C519 C520 1.408 . S
C519 H546 0.930 . S
C520 C515 1.348 . S
C520 C519 1.408 . S
C520 H547 0.930 . S
C521 O534 1.281 . S
C521 O535 1.254 . S
C522 O536 1.236 . S
C522 O537 1.266 . S
C523 Tb513 2.809 . S
C523 C524 1.514 . S
C523 O538 1.248 . S
C523 O539 1.266 . S
C524 C523 1.514 . S
C524 C525 1.359 . S
C524 C529 1.348 . S
C525 C524 1.359 . S
C525 C526 1.380 . S
C525 H548 0.929 . S
C526 C525 1.380 . S
C526 C527 1.347 . S
C526 H549 0.931 . S
C527 C526 1.347 . S
C527 C528 1.369 . S
C528 C527 1.369 . S
C528 C529 1.408 . S
C528 H550 0.930 . S
C529 C524 1.348 . S
C529 C528 1.408 . S
C529 H551 0.930 . S
C530 O540 1.281 . S
C530 O541 1.254 . S
C531 O542 1.236 . S
C531 O543 1.266 . S
O532 Tb512 2.484 . S
O532 C514 1.248 . S
O533 Tb512 2.440 . S
O533 C514 1.266 . S
O534 Tb512 2.658 . S
O534 Tb513 2.325 . S
O534 C521 1.281 . S
O535 Tb512 2.409 . S
O535 C521 1.254 . S
O536 Tb512 2.378 . S
O536 C522 1.236 . S
O537 Tb513 2.341 . S
O537 C522 1.266 . S
O538 Tb513 2.484 . S
O538 C523 1.248 . S
O539 Tb513 2.440 . S
O539 C523 1.266 . S
O540 Tb512 2.325 . S
O540 Tb513 2.658 . S
O540 C530 1.281 . S
O541 Tb513 2.409 . S
O541 C530 1.254 . S
O542 Tb513 2.378 . S
O542 C531 1.236 . S
O543 Tb512 2.341 . S
O543 C531 1.266 . S
H544 C516 0.929 . S
H545 C517 0.931 . S
H546 C519 0.930 . S
H547 C520 0.930 . S
H548 C525 0.929 . S
H549 C526 0.931 . S
H550 C528 0.930 . S
H551 C529 0.930 . S
Tb552 C554 2.809 . S
Tb552 O572 2.484 . S
Tb552 O573 2.440 . S
Tb552 O574 2.658 . S
Tb552 O575 2.409 . S
Tb552 O576 2.378 . S
Tb552 O580 2.325 . S
Tb552 O583 2.341 . S
Tb553 C563 2.809 . S
Tb553 O574 2.325 . S
Tb553 O577 2.341 . S
Tb553 O578 2.484 . S
Tb553 O579 2.440 . S
Tb553 O580 2.658 . S
Tb553 O581 2.409 1_545 S
Tb553 O582 2.378 . S
C554 Tb552 2.809 . S
C554 C555 1.514 . S
C554 O572 1.248 . S
C554 O573 1.266 . S
C555 C554 1.514 . S
C555 C556 1.359 1_545 S
C555 C560 1.348 . S
C556 C555 1.359 1_565 S
C556 C557 1.380 . S
C556 H584 0.929 . S
C557 C556 1.380 . S
C557 C558 1.347 . S
C557 H585 0.931 . S
C558 C557 1.347 . S
C558 C559 1.369 1_565 S
C559 C558 1.369 1_545 S
C559 C560 1.408 . S
C559 H586 0.930 . S
C560 C555 1.348 . S
C560 C559 1.408 . S
C560 H587 0.930 . S
C561 O574 1.281 . S
C561 O575 1.254 . S
C562 O576 1.236 . S
C562 O577 1.266 . S
C563 Tb553 2.809 . S
C563 C564 1.514 . S
C563 O578 1.248 . S
C563 O579 1.266 . S
C564 C563 1.514 . S
C564 C565 1.359 . S
C564 C569 1.348 . S
C565 C564 1.359 . S
C565 C566 1.380 . S
C565 H588 0.929 . S
C566 C565 1.380 . S
C566 C567 1.347 . S
C566 H589 0.931 . S
C567 C566 1.347 . S
C567 C568 1.369 . S
C568 C567 1.369 . S
C568 C569 1.408 . S
C568 H590 0.930 . S
C569 C564 1.348 . S
C569 C568 1.408 . S
C569 H591 0.930 . S
C570 O580 1.281 1_565 S
C570 O581 1.254 . S
C571 O582 1.236 . S
C571 O583 1.266 . S
O572 Tb552 2.484 . S
O572 C554 1.248 . S
O573 Tb552 2.440 . S
O573 C554 1.266 . S
O574 Tb552 2.658 . S
O574 Tb553 2.325 . S
O574 C561 1.281 . S
O575 Tb552 2.409 . S
O575 C561 1.254 . S
O576 Tb552 2.378 . S
O576 C562 1.236 . S
O577 Tb553 2.341 . S
O577 C562 1.266 . S
O578 Tb553 2.484 . S
O578 C563 1.248 . S
O579 Tb553 2.440 . S
O579 C563 1.266 . S
O580 Tb552 2.325 . S
O580 Tb553 2.658 . S
O580 C570 1.281 1_545 S
O581 Tb553 2.409 1_565 S
O581 C570 1.254 . S
O582 Tb553 2.378 . S
O582 C571 1.236 . S
O583 Tb552 2.341 . S
O583 C571 1.266 . S
H584 C556 0.929 . S
H585 C557 0.931 . S
H586 C559 0.930 . S
H587 C560 0.930 . S
H588 C565 0.929 . S
H589 C566 0.931 . S
H590 C568 0.930 . S
H591 C569 0.930 . S
Tb592 C594 2.809 . S
Tb592 O612 2.484 . S
Tb592 O613 2.440 . S
Tb592 O614 2.658 . S
Tb592 O615 2.409 . S
Tb592 O616 2.378 . S
Tb592 O620 2.325 . S
Tb592 O623 2.341 . S
Tb593 C603 2.809 . S
Tb593 O614 2.325 . S
Tb593 O617 2.341 . S
Tb593 O618 2.484 . S
Tb593 O619 2.440 . S
Tb593 O620 2.658 . S
Tb593 O621 2.409 . S
Tb593 O622 2.378 . S
C594 Tb592 2.809 . S
C594 C595 1.514 . S
C594 O612 1.248 . S
C594 O613 1.266 . S
C595 C594 1.514 . S
C595 C596 1.359 . S
C595 C600 1.348 . S
C596 C595 1.359 . S
C596 C597 1.380 . S
C596 H624 0.929 . S
C597 C596 1.380 . S
C597 C598 1.347 . S
C597 H625 0.931 . S
C598 C597 1.347 . S
C598 C599 1.369 . S
C599 C598 1.369 . S
C599 C600 1.408 . S
C599 H626 0.930 . S
C600 C595 1.348 . S
C600 C599 1.408 . S
C600 H627 0.930 . S
C601 O614 1.281 . S
C601 O615 1.254 . S
C602 O616 1.236 . S
C602 O617 1.266 . S
C603 Tb593 2.809 . S
C603 C604 1.514 . S
C603 O618 1.248 . S
C603 O619 1.266 . S
C604 C603 1.514 . S
C604 C605 1.359 . S
C604 C609 1.348 . S
C605 C604 1.359 . S
C605 C606 1.380 . S
C605 H628 0.929 . S
C606 C605 1.380 . S
C606 C607 1.347 . S
C606 H629 0.931 . S
C607 C606 1.347 . S
C607 C608 1.369 . S
C608 C607 1.369 . S
C608 C609 1.408 . S
C608 H630 0.930 . S
C609 C604 1.348 . S
C609 C608 1.408 . S
C609 H631 0.930 . S
C610 O620 1.281 . S
C610 O621 1.254 . S
C611 O622 1.236 . S
C611 O623 1.266 . S
O612 Tb592 2.484 . S
O612 C594 1.248 . S
O613 Tb592 2.440 . S
O613 C594 1.266 . S
O614 Tb592 2.658 . S
O614 Tb593 2.325 . S
O614 C601 1.281 . S
O615 Tb592 2.409 . S
O615 C601 1.254 . S
O616 Tb592 2.378 . S
O616 C602 1.236 . S
O617 Tb593 2.341 . S
O617 C602 1.266 . S
O618 Tb593 2.484 . S
O618 C603 1.248 . S
O619 Tb593 2.440 . S
O619 C603 1.266 . S
O620 Tb592 2.325 . S
O620 Tb593 2.658 . S
O620 C610 1.281 . S
O621 Tb593 2.409 . S
O621 C610 1.254 . S
O622 Tb593 2.378 . S
O622 C611 1.236 . S
O623 Tb592 2.341 . S
O623 C611 1.266 . S
H624 C596 0.929 . S
H625 C597 0.931 . S
H626 C599 0.930 . S
H627 C600 0.930 . S
H628 C605 0.929 . S
H629 C606 0.931 . S
H630 C608 0.930 . S
H631 C609 0.930 . S
Tb632 C634 2.809 . S
Tb632 O652 2.484 . S
Tb632 O653 2.440 . S
Tb632 O654 2.658 . S
Tb632 O655 2.409 . S
Tb632 O656 2.378 . S
Tb632 O660 2.325 . S
Tb632 O663 2.341 . S
Tb633 C643 2.809 . S
Tb633 O654 2.325 . S
Tb633 O657 2.341 . S
Tb633 O658 2.484 . S
Tb633 O659 2.440 . S
Tb633 O660 2.658 . S
Tb633 O661 2.409 . S
Tb633 O662 2.378 . S
C634 Tb632 2.809 . S
C634 C635 1.514 . S
C634 O652 1.248 . S
C634 O653 1.266 . S
C635 C634 1.514 . S
C635 C636 1.359 . S
C635 C640 1.348 . S
C636 C635 1.359 . S
C636 C637 1.380 1_554 S
C636 H664 0.929 . S
C637 C636 1.380 1_556 S
C637 C638 1.347 . S
C637 H665 0.931 . S
C638 C637 1.347 . S
C638 C639 1.369 1_556 S
C639 C638 1.369 1_554 S
C639 C640 1.408 . S
C639 H666 0.931 . S
C640 C635 1.348 . S
C640 C639 1.408 . S
C640 H667 0.930 . S
C641 O654 1.281 . S
C641 O655 1.254 . S
C642 O656 1.236 . S
C642 O657 1.266 . S
C643 Tb633 2.809 . S
C643 C644 1.514 . S
C643 O658 1.248 . S
C643 O659 1.266 . S
C644 C643 1.514 . S
C644 C645 1.359 . S
C644 C649 1.348 . S
C645 C644 1.359 . S
C645 C646 1.380 . S
C645 H668 0.929 . S
C646 C645 1.380 . S
C646 C647 1.347 . S
C646 H669 0.931 . S
C647 C646 1.347 . S
C647 C648 1.369 . S
C648 C647 1.369 . S
C648 C649 1.408 . S
C648 H670 0.930 . S
C649 C644 1.348 . S
C649 C648 1.408 . S
C649 H671 0.930 . S
C650 O660 1.281 . S
C650 O661 1.254 . S
C651 O662 1.236 . S
C651 O663 1.266 . S
O652 Tb632 2.484 . S
O652 C634 1.248 . S
O653 Tb632 2.440 . S
O653 C634 1.266 . S
O654 Tb632 2.658 . S
O654 Tb633 2.325 . S
O654 C641 1.281 . S
O655 Tb632 2.409 . S
O655 C641 1.254 . S
O656 Tb632 2.378 . S
O656 C642 1.236 . S
O657 Tb633 2.341 . S
O657 C642 1.266 . S
O658 Tb633 2.484 . S
O658 C643 1.248 . S
O659 Tb633 2.440 . S
O659 C643 1.266 . S
O660 Tb632 2.325 . S
O660 Tb633 2.658 . S
O660 C650 1.281 . S
O661 Tb633 2.409 . S
O661 C650 1.254 . S
O662 Tb633 2.378 . S
O662 C651 1.236 . S
O663 Tb632 2.341 . S
O663 C651 1.266 . S
H664 C636 0.929 . S
H665 C637 0.931 . S
H666 C639 0.931 . S
H667 C640 0.930 . S
H668 C645 0.929 . S
H669 C646 0.931 . S
H670 C648 0.930 . S
H671 C649 0.930 . S
Tb672 C674 2.809 . S
Tb672 O692 2.484 . S
Tb672 O693 2.440 . S
Tb672 O694 2.658 . S
Tb672 O695 2.409 . S
Tb672 O696 2.378 . S
Tb672 O700 2.325 . S
Tb672 O703 2.341 . S
Tb673 C683 2.809 . S
Tb673 O694 2.325 . S
Tb673 O697 2.341 . S
Tb673 O698 2.484 . S
Tb673 O699 2.440 . S
Tb673 O700 2.658 . S
Tb673 O701 2.409 . S
Tb673 O702 2.378 . S
C674 Tb672 2.809 . S
C674 C675 1.514 . S
C674 O692 1.248 . S
C674 O693 1.266 . S
C675 C674 1.514 . S
C675 C676 1.359 . S
C675 C680 1.348 . S
C676 C675 1.359 . S
C676 C677 1.380 . S
C676 H704 0.929 . S
C677 C676 1.380 . S
C677 C678 1.347 . S
C677 H705 0.931 . S
C678 C677 1.347 . S
C678 C679 1.369 . S
C679 C678 1.369 . S
C679 C680 1.408 . S
C679 H706 0.930 . S
C680 C675 1.348 . S
C680 C679 1.408 . S
C680 H707 0.930 . S
C681 O694 1.281 . S
C681 O695 1.254 . S
C682 O696 1.236 . S
C682 O697 1.266 . S
C683 Tb673 2.809 . S
C683 C684 1.514 . S
C683 O698 1.248 . S
C683 O699 1.266 . S
C684 C683 1.514 . S
C684 C685 1.359 . S
C684 C689 1.348 . S
C685 C684 1.359 . S
C685 C686 1.380 . S
C685 H708 0.929 . S
C686 C685 1.380 . S
C686 C687 1.347 . S
C686 H709 0.931 . S
C687 C686 1.347 . S
C687 C688 1.369 . S
C688 C687 1.369 . S
C688 C689 1.408 . S
C688 H710 0.930 . S
C689 C684 1.348 . S
C689 C688 1.408 . S
C689 H711 0.930 . S
C690 O700 1.281 . S
C690 O701 1.254 . S
C691 O702 1.236 . S
C691 O703 1.266 . S
O692 Tb672 2.484 . S
O692 C674 1.248 . S
O693 Tb672 2.440 . S
O693 C674 1.266 . S
O694 Tb672 2.658 . S
O694 Tb673 2.325 . S
O694 C681 1.281 . S
O695 Tb672 2.409 . S
O695 C681 1.254 . S
O696 Tb672 2.378 . S
O696 C682 1.236 . S
O697 Tb673 2.341 . S
O697 C682 1.266 . S
O698 Tb673 2.484 . S
O698 C683 1.248 . S
O699 Tb673 2.440 . S
O699 C683 1.266 . S
O700 Tb672 2.325 . S
O700 Tb673 2.658 . S
O700 C690 1.281 . S
O701 Tb673 2.409 . S
O701 C690 1.254 . S
O702 Tb673 2.378 . S
O702 C691 1.236 . S
O703 Tb672 2.341 . S
O703 C691 1.266 . S
H704 C676 0.929 . S
H705 C677 0.931 . S
H706 C679 0.930 . S
H707 C680 0.930 . S
H708 C685 0.929 . S
H709 C686 0.931 . S
H710 C688 0.930 . S
H711 C689 0.930 . S
Tb712 C714 2.809 . S
Tb712 O732 2.484 . S
Tb712 O733 2.440 . S
Tb712 O734 2.658 1_655 S
Tb712 O735 2.409 1_655 S
Tb712 O736 2.378 . S
Tb712 O740 2.325 1_655 S
Tb712 O743 2.341 1_655 S
Tb713 C723 2.809 . S
Tb713 O734 2.325 . S
Tb713 O737 2.341 . S
Tb713 O738 2.484 . S
Tb713 O739 2.440 . S
Tb713 O740 2.658 . S
Tb713 O741 2.409 . S
Tb713 O742 2.378 . S
C714 Tb712 2.809 . S
C714 C715 1.514 . S
C714 O732 1.248 . S
C714 O733 1.266 . S
C715 C714 1.514 . S
C715 C716 1.359 . S
C715 C720 1.348 . S
C716 C715 1.359 . S
C716 C717 1.380 . S
C716 H744 0.929 . S
C717 C716 1.380 . S
C717 C718 1.347 . S
C717 H745 0.931 . S
C718 C717 1.347 . S
C718 C719 1.369 . S
C719 C718 1.369 . S
C719 C720 1.408 . S
C719 H746 0.930 . S
C720 C715 1.348 . S
C720 C719 1.408 . S
C720 H747 0.930 . S
C721 O734 1.281 . S
C721 O735 1.254 . S
C722 O736 1.236 1_455 S
C722 O737 1.266 . S
C723 Tb713 2.809 . S
C723 C724 1.514 . S
C723 O738 1.248 . S
C723 O739 1.266 . S
C724 C723 1.514 . S
C724 C725 1.359 . S
C724 C729 1.348 . S
C725 C724 1.359 . S
C725 C726 1.380 . S
C725 H748 0.929 . S
C726 C725 1.380 . S
C726 C727 1.347 . S
C726 H749 0.931 . S
C727 C726 1.347 . S
C727 C728 1.369 . S
C728 C727 1.369 . S
C728 C729 1.408 . S
C728 H750 0.930 . S
C729 C724 1.348 . S
C729 C728 1.408 . S
C729 H751 0.930 . S
C730 O740 1.281 . S
C730 O741 1.254 . S
C731 O742 1.236 . S
C731 O743 1.266 . S
O732 Tb712 2.484 . S
O732 C714 1.248 . S
O733 Tb712 2.440 . S
O733 C714 1.266 . S
O734 Tb712 2.658 1_455 S
O734 Tb713 2.325 . S
O734 C721 1.281 . S
O735 Tb712 2.409 1_455 S
O735 C721 1.254 . S
O736 Tb712 2.378 . S
O736 C722 1.236 1_655 S
O737 Tb713 2.341 . S
O737 C722 1.266 . S
O738 Tb713 2.484 . S
O738 C723 1.248 . S
O739 Tb713 2.440 . S
O739 C723 1.266 . S
O740 Tb712 2.325 1_455 S
O740 Tb713 2.658 . S
O740 C730 1.281 . S
O741 Tb713 2.409 . S
O741 C730 1.254 . S
O742 Tb713 2.378 . S
O742 C731 1.236 . S
O743 Tb712 2.341 1_455 S
O743 C731 1.266 . S
H744 C716 0.929 . S
H745 C717 0.931 . S
H746 C719 0.930 . S
H747 C720 0.930 . S
H748 C725 0.929 . S
H749 C726 0.931 . S
H750 C728 0.930 . S
H751 C729 0.930 . S
Tb752 C754 2.809 . S
Tb752 O772 2.484 . S
Tb752 O773 2.440 . S
Tb752 O774 2.658 . S
Tb752 O775 2.409 . S
Tb752 O776 2.378 . S
Tb752 O780 2.325 . S
Tb752 O783 2.341 . S
Tb753 C763 2.809 . S
Tb753 O774 2.325 . S
Tb753 O777 2.341 . S
Tb753 O778 2.484 . S
Tb753 O779 2.440 . S
Tb753 O780 2.658 . S
Tb753 O781 2.409 . S
Tb753 O782 2.378 . S
C754 Tb752 2.809 . S
C754 C755 1.514 . S
C754 O772 1.248 . S
C754 O773 1.266 . S
C755 C754 1.514 . S
C755 C756 1.359 . S
C755 C760 1.348 . S
C756 C755 1.359 . S
C756 C757 1.380 . S
C756 H784 0.929 . S
C757 C756 1.380 . S
C757 C758 1.347 . S
C757 H785 0.931 . S
C758 C757 1.347 . S
C758 C759 1.369 . S
C759 C758 1.369 . S
C759 C760 1.408 . S
C759 H786 0.930 . S
C760 C755 1.348 . S
C760 C759 1.408 . S
C760 H787 0.930 . S
C761 O774 1.281 . S
C761 O775 1.254 . S
C762 O776 1.236 . S
C762 O777 1.266 . S
C763 Tb753 2.809 . S
C763 C764 1.514 . S
C763 O778 1.248 . S
C763 O779 1.266 . S
C764 C763 1.514 . S
C764 C765 1.359 . S
C764 C769 1.348 . S
C765 C764 1.359 . S
C765 C766 1.380 . S
C765 H788 0.929 . S
C766 C765 1.380 . S
C766 C767 1.347 . S
C766 H789 0.931 . S
C767 C766 1.347 . S
C767 C768 1.369 . S
C768 C767 1.369 . S
C768 C769 1.408 . S
C768 H790 0.930 . S
C769 C764 1.348 . S
C769 C768 1.408 . S
C769 H791 0.930 . S
C770 O780 1.281 . S
C770 O781 1.254 . S
C771 O782 1.236 . S
C771 O783 1.266 . S
O772 Tb752 2.484 . S
O772 C754 1.248 . S
O773 Tb752 2.440 . S
O773 C754 1.266 . S
O774 Tb752 2.658 . S
O774 Tb753 2.325 . S
O774 C761 1.281 . S
O775 Tb752 2.409 . S
O775 C761 1.254 . S
O776 Tb752 2.378 . S
O776 C762 1.236 . S
O777 Tb753 2.341 . S
O777 C762 1.266 . S
O778 Tb753 2.484 . S
O778 C763 1.248 . S
O779 Tb753 2.440 . S
O779 C763 1.266 . S
O780 Tb752 2.325 . S
O780 Tb753 2.658 . S
O780 C770 1.281 . S
O781 Tb753 2.409 . S
O781 C770 1.254 . S
O782 Tb753 2.378 . S
O782 C771 1.236 . S
O783 Tb752 2.341 . S
O783 C771 1.266 . S
H784 C756 0.929 . S
H785 C757 0.931 . S
H786 C759 0.930 . S
H787 C760 0.930 . S
H788 C765 0.929 . S
H789 C766 0.931 . S
H790 C768 0.930 . S
H791 C769 0.930 . S
Tb792 C794 2.809 . S
Tb792 O812 2.484 . S
Tb792 O813 2.440 . S
Tb792 O814 2.658 . S
Tb792 O815 2.409 . S
Tb792 O816 2.378 . S
Tb792 O820 2.325 . S
Tb792 O823 2.341 . S
Tb793 C803 2.809 . S
Tb793 O814 2.325 . S
Tb793 O817 2.341 . S
Tb793 O818 2.484 . S
Tb793 O819 2.440 . S
Tb793 O820 2.658 . S
Tb793 O821 2.409 . S
Tb793 O822 2.378 . S
C794 Tb792 2.809 . S
C794 C795 1.514 . S
C794 O812 1.248 . S
C794 O813 1.266 . S
C795 C794 1.514 . S
C795 C796 1.359 . S
C795 C800 1.348 . S
C796 C795 1.359 . S
C796 C797 1.380 . S
C796 H824 0.929 . S
C797 C796 1.380 . S
C797 C798 1.347 . S
C797 H825 0.931 . S
C798 C797 1.347 . S
C798 C799 1.369 . S
C799 C798 1.369 . S
C799 C800 1.408 . S
C799 H826 0.930 . S
C800 C795 1.348 . S
C800 C799 1.408 . S
C800 H827 0.930 . S
C801 O814 1.281 . S
C801 O815 1.254 . S
C802 O816 1.236 . S
C802 O817 1.266 . S
C803 Tb793 2.809 . S
C803 C804 1.514 . S
C803 O818 1.248 . S
C803 O819 1.266 . S
C804 C803 1.514 . S
C804 C805 1.359 . S
C804 C809 1.348 . S
C805 C804 1.359 . S
C805 C806 1.380 1_556 S
C805 H828 0.929 . S
C806 C805 1.380 1_554 S
C806 C807 1.347 . S
C806 H829 0.931 . S
C807 C806 1.347 . S
C807 C808 1.369 . S
C808 C807 1.369 . S
C808 C809 1.408 1_554 S
C808 H830 0.930 . S
C809 C804 1.348 . S
C809 C808 1.408 1_556 S
C809 H831 0.930 . S
C810 O820 1.281 . S
C810 O821 1.254 . S
C811 O822 1.236 . S
C811 O823 1.266 . S
O812 Tb792 2.484 . S
O812 C794 1.248 . S
O813 Tb792 2.440 . S
O813 C794 1.266 . S
O814 Tb792 2.658 . S
O814 Tb793 2.325 . S
O814 C801 1.281 . S
O815 Tb792 2.409 . S
O815 C801 1.254 . S
O816 Tb792 2.378 . S
O816 C802 1.236 . S
O817 Tb793 2.341 . S
O817 C802 1.266 . S
O818 Tb793 2.484 . S
O818 C803 1.248 . S
O819 Tb793 2.440 . S
O819 C803 1.266 . S
O820 Tb792 2.325 . S
O820 Tb793 2.658 . S
O820 C810 1.281 . S
O821 Tb793 2.409 . S
O821 C810 1.254 . S
O822 Tb793 2.378 . S
O822 C811 1.236 . S
O823 Tb792 2.341 . S
O823 C811 1.266 . S
H824 C796 0.929 . S
H825 C797 0.931 . S
H826 C799 0.930 . S
H827 C800 0.930 . S
H828 C805 0.929 . S
H829 C806 0.931 . S
H830 C808 0.930 . S
H831 C809 0.930 . S
Tb832 C834 2.809 . S
Tb832 O852 2.484 . S
Tb832 O853 2.440 . S
Tb832 O854 2.658 . S
Tb832 O855 2.409 . S
Tb832 O856 2.378 . S
Tb832 O860 2.325 . S
Tb832 O863 2.341 . S
Tb833 C843 2.809 . S
Tb833 O854 2.325 . S
Tb833 O857 2.341 . S
Tb833 O858 2.484 . S
Tb833 O859 2.440 . S
Tb833 O860 2.658 . S
Tb833 O861 2.409 . S
Tb833 O862 2.378 . S
C834 Tb832 2.809 . S
C834 C835 1.514 . S
C834 O852 1.248 . S
C834 O853 1.266 . S
C835 C834 1.514 . S
C835 C836 1.359 . S
C835 C840 1.348 . S
C836 C835 1.359 . S
C836 C837 1.380 . S
C836 H864 0.929 . S
C837 C836 1.380 . S
C837 C838 1.347 . S
C837 H865 0.931 . S
C838 C837 1.347 . S
C838 C839 1.369 . S
C839 C838 1.369 . S
C839 C840 1.408 . S
C839 H866 0.930 . S
C840 C835 1.348 . S
C840 C839 1.408 . S
C840 H867 0.930 . S
C841 O854 1.281 . S
C841 O855 1.254 . S
C842 O856 1.236 . S
C842 O857 1.266 . S
C843 Tb833 2.809 . S
C843 C844 1.514 . S
C843 O858 1.248 . S
C843 O859 1.266 . S
C844 C843 1.514 . S
C844 C845 1.359 . S
C844 C849 1.348 . S
C845 C844 1.359 . S
C845 C846 1.380 . S
C845 H868 0.929 . S
C846 C845 1.380 . S
C846 C847 1.347 . S
C846 H869 0.931 . S
C847 C846 1.347 . S
C847 C848 1.369 . S
C848 C847 1.369 . S
C848 C849 1.408 . S
C848 H870 0.930 . S
C849 C844 1.348 . S
C849 C848 1.408 . S
C849 H871 0.930 . S
C850 O860 1.281 . S
C850 O861 1.254 . S
C851 O862 1.236 . S
C851 O863 1.266 . S
O852 Tb832 2.484 . S
O852 C834 1.248 . S
O853 Tb832 2.440 . S
O853 C834 1.266 . S
O854 Tb832 2.658 . S
O854 Tb833 2.325 . S
O854 C841 1.281 . S
O855 Tb832 2.409 . S
O855 C841 1.254 . S
O856 Tb832 2.378 . S
O856 C842 1.236 . S
O857 Tb833 2.341 . S
O857 C842 1.266 . S
O858 Tb833 2.484 . S
O858 C843 1.248 . S
O859 Tb833 2.440 . S
O859 C843 1.266 . S
O860 Tb832 2.325 . S
O860 Tb833 2.658 . S
O860 C850 1.281 . S
O861 Tb833 2.409 . S
O861 C850 1.254 . S
O862 Tb833 2.378 . S
O862 C851 1.236 . S
O863 Tb832 2.341 . S
O863 C851 1.266 . S
H864 C836 0.929 . S
H865 C837 0.931 . S
H866 C839 0.930 . S
H867 C840 0.930 . S
H868 C845 0.929 . S
H869 C846 0.931 . S
H870 C848 0.930 . S
H871 C849 0.930 . S
Tb872 C874 2.809 . S
Tb872 O892 2.484 . S
Tb872 O893 2.440 . S
Tb872 O894 2.658 . S
Tb872 O895 2.409 . S
Tb872 O896 2.378 . S
Tb872 O900 2.325 . S
Tb872 O903 2.341 . S
Tb873 C883 2.809 . S
Tb873 O894 2.325 . S
Tb873 O897 2.341 . S
Tb873 O898 2.484 . S
Tb873 O899 2.440 . S
Tb873 O900 2.658 . S
Tb873 O901 2.409 . S
Tb873 O902 2.378 . S
C874 Tb872 2.809 . S
C874 C875 1.514 . S
C874 O892 1.248 . S
C874 O893 1.266 . S
C875 C874 1.514 . S
C875 C876 1.359 . S
C875 C880 1.348 . S
C876 C875 1.359 . S
C876 C877 1.380 . S
C876 H904 0.929 . S
C877 C876 1.380 . S
C877 C878 1.347 . S
C877 H905 0.931 . S
C878 C877 1.347 . S
C878 C879 1.369 . S
C879 C878 1.369 . S
C879 C880 1.408 . S
C879 H906 0.930 . S
C880 C875 1.348 . S
C880 C879 1.408 . S
C880 H907 0.930 . S
C881 O894 1.281 . S
C881 O895 1.254 . S
C882 O896 1.236 . S
C882 O897 1.266 . S
C883 Tb873 2.809 . S
C883 C884 1.514 . S
C883 O898 1.248 . S
C883 O899 1.266 . S
C884 C883 1.514 . S
C884 C885 1.359 . S
C884 C889 1.348 . S
C885 C884 1.359 . S
C885 C886 1.380 . S
C885 H908 0.929 . S
C886 C885 1.380 . S
C886 C887 1.347 . S
C886 H909 0.931 . S
C887 C886 1.347 . S
C887 C888 1.369 . S
C888 C887 1.369 . S
C888 C889 1.408 . S
C888 H910 0.930 . S
C889 C884 1.348 . S
C889 C888 1.408 . S
C889 H911 0.930 . S
C890 O900 1.281 . S
C890 O901 1.254 . S
C891 O902 1.236 . S
C891 O903 1.266 . S
O892 Tb872 2.484 . S
O892 C874 1.248 . S
O893 Tb872 2.440 . S
O893 C874 1.266 . S
O894 Tb872 2.658 . S
O894 Tb873 2.325 . S
O894 C881 1.281 . S
O895 Tb872 2.409 . S
O895 C881 1.254 . S
O896 Tb872 2.378 . S
O896 C882 1.236 . S
O897 Tb873 2.341 . S
O897 C882 1.266 . S
O898 Tb873 2.484 . S
O898 C883 1.248 . S
O899 Tb873 2.440 . S
O899 C883 1.266 . S
O900 Tb872 2.325 . S
O900 Tb873 2.658 . S
O900 C890 1.281 . S
O901 Tb873 2.409 . S
O901 C890 1.254 . S
O902 Tb873 2.378 . S
O902 C891 1.236 . S
O903 Tb872 2.341 . S
O903 C891 1.266 . S
H904 C876 0.929 . S
H905 C877 0.931 . S
H906 C879 0.930 . S
H907 C880 0.930 . S
H908 C885 0.929 . S
H909 C886 0.931 . S
H910 C888 0.930 . S
H911 C889 0.930 . S
Tb912 C914 2.809 . S
Tb912 O932 2.484 . S
Tb912 O933 2.440 . S
Tb912 O934 2.658 . S
Tb912 O935 2.409 . S
Tb912 O936 2.378 . S
Tb912 O940 2.325 . S
Tb912 O943 2.341 . S
Tb913 C923 2.809 1_455 S
Tb913 O934 2.325 . S
Tb913 O937 2.341 . S
Tb913 O938 2.484 1_455 S
Tb913 O939 2.440 1_455 S
Tb913 O940 2.658 . S
Tb913 O941 2.409 . S
Tb913 O942 2.378 . S
C914 Tb912 2.809 . S
C914 C915 1.514 . S
C914 O932 1.248 . S
C914 O933 1.266 . S
C915 C914 1.514 . S
C915 C916 1.359 . S
C915 C920 1.348 . S
C916 C915 1.359 . S
C916 C917 1.380 . S
C916 H944 0.929 . S
C917 C916 1.380 . S
C917 C918 1.347 . S
C917 H945 0.931 . S
C918 C917 1.347 . S
C918 C919 1.369 . S
C919 C918 1.369 . S
C919 C920 1.408 . S
C919 H946 0.930 . S
C920 C915 1.348 . S
C920 C919 1.408 . S
C920 H947 0.930 . S
C921 O934 1.281 . S
C921 O935 1.254 . S
C922 O936 1.236 . S
C922 O937 1.266 . S
C923 Tb913 2.809 1_655 S
C923 C924 1.514 . S
C923 O938 1.248 . S
C923 O939 1.266 . S
C924 C923 1.514 . S
C924 C925 1.359 . S
C924 C929 1.348 . S
C925 C924 1.359 . S
C925 C926 1.380 . S
C925 H948 0.929 . S
C926 C925 1.380 . S
C926 C927 1.347 . S
C926 H949 0.931 . S
C927 C926 1.347 . S
C927 C928 1.369 . S
C928 C927 1.369 . S
C928 C929 1.408 . S
C928 H950 0.930 . S
C929 C924 1.348 . S
C929 C928 1.408 . S
C929 H951 0.930 . S
C930 O940 1.281 . S
C930 O941 1.254 . S
C931 O942 1.236 . S
C931 O943 1.266 . S
O932 Tb912 2.484 . S
O932 C914 1.248 . S
O933 Tb912 2.440 . S
O933 C914 1.266 . S
O934 Tb912 2.658 . S
O934 Tb913 2.325 . S
O934 C921 1.281 . S
O935 Tb912 2.409 . S
O935 C921 1.254 . S
O936 Tb912 2.378 . S
O936 C922 1.236 . S
O937 Tb913 2.341 . S
O937 C922 1.266 . S
O938 Tb913 2.484 1_655 S
O938 C923 1.248 . S
O939 Tb913 2.440 1_655 S
O939 C923 1.266 . S
O940 Tb912 2.325 . S
O940 Tb913 2.658 . S
O940 C930 1.281 . S
O941 Tb913 2.409 . S
O941 C930 1.254 . S
O942 Tb913 2.378 . S
O942 C931 1.236 . S
O943 Tb912 2.341 . S
O943 C931 1.266 . S
H944 C916 0.929 . S
H945 C917 0.931 . S
H946 C919 0.930 . S
H947 C920 0.930 . S
H948 C925 0.929 . S
H949 C926 0.931 . S
H950 C928 0.930 . S
H951 C929 0.930 . S
C952 C953 1.369 . S
C952 C954 1.419 . S
C952 H956 0.930 . S
C953 C952 1.369 . S
C953 C962 1.429 . S
C954 C952 1.419 . S
C954 C955 1.363 . S
C954 H957 0.929 . S
C955 C954 1.363 . S
C955 C961 1.428 . S
H956 C952 0.930 . S
H957 C954 0.929 . S
S958 N959 1.613 . S
S958 N960 1.610 1_655 S
N959 S958 1.613 . S
N959 C962 1.350 1_655 S
N960 S958 1.610 1_455 S
N960 C961 1.351 . S
C961 C955 1.428 . S
C961 N960 1.351 . S
C961 C962 1.434 . S
C962 C953 1.429 . S
C962 N959 1.350 1_455 S
C962 C961 1.434 . S
C963 C964 1.369 . S
C963 C965 1.419 . S
C963 H967 0.930 . S
C964 C963 1.369 . S
C964 C973 1.429 . S
C965 C963 1.419 . S
C965 C966 1.363 . S
C965 H968 0.929 . S
C966 C965 1.363 . S
C966 C972 1.428 . S
H967 C963 0.930 . S
H968 C965 0.929 . S
S969 N970 1.613 . S
S969 N971 1.610 . S
N970 S969 1.613 . S
N970 C973 1.350 . S
N971 S969 1.610 . S
N971 C972 1.351 . S
C972 C966 1.428 . S
C972 N971 1.351 . S
C972 C973 1.434 . S
C973 C964 1.429 . S
C973 N970 1.350 . S
C973 C972 1.434 . S
C974 C975 1.369 . S
C974 C976 1.419 . S
C974 H978 0.930 . S
C975 C974 1.369 . S
C975 C984 1.429 . S
C976 C974 1.419 . S
C976 C977 1.363 . S
C976 H979 0.929 . S
C977 C976 1.363 . S
C977 C983 1.428 . S
H978 C974 0.930 . S
H979 C976 0.929 . S
S980 N981 1.613 . S
S980 N982 1.610 . S
N981 S980 1.613 . S
N981 C984 1.350 . S
N982 S980 1.610 . S
N982 C983 1.351 . S
C983 C977 1.428 . S
C983 N982 1.351 . S
C983 C984 1.434 . S
C984 C975 1.429 . S
C984 N981 1.350 . S
C984 C983 1.434 . S
C985 C986 1.369 . S
C985 C987 1.419 . S
C985 H989 0.930 . S
C986 C985 1.369 . S
C986 C995 1.429 . S
C987 C985 1.419 . S
C987 C988 1.363 . S
C987 H990 0.929 . S
C988 C987 1.363 . S
C988 C994 1.428 . S
H989 C985 0.930 . S
H990 C987 0.929 . S
S991 N992 1.613 . S
S991 N993 1.610 . S
N992 S991 1.613 . S
N992 C995 1.350 . S
N993 S991 1.610 . S
N993 C994 1.351 . S
C994 C988 1.428 . S
C994 N993 1.351 . S
C994 C995 1.434 . S
C995 C986 1.429 . S
C995 N992 1.350 . S
C995 C994 1.434 . S
C996 C997 1.369 . S
C996 C998 1.419 . S
C996 H1000 0.930 . S
C997 C996 1.369 . S
C997 C1006 1.429 . S
C998 C996 1.419 . S
C998 C999 1.363 . S
C998 H1001 0.929 . S
C999 C998 1.363 . S
C999 C1005 1.428 . S
H1000 C996 0.930 . S
H1001 C998 0.929 . S
S1002 N1003 1.613 . S
S1002 N1004 1.610 . S
N1003 S1002 1.613 . S
N1003 C1006 1.350 . S
N1004 S1002 1.610 . S
N1004 C1005 1.351 . S
C1005 C999 1.428 . S
C1005 N1004 1.351 . S
C1005 C1006 1.434 . S
C1006 C997 1.429 . S
C1006 N1003 1.350 . S
C1006 C1005 1.434 . S
C1007 C1008 1.369 . S
C1007 C1009 1.419 . S
C1007 H1011 0.930 . S
C1008 C1007 1.369 . S
C1008 C1017 1.429 . S
C1009 C1007 1.419 . S
C1009 C1010 1.363 . S
C1009 H1012 0.929 . S
C1010 C1009 1.363 . S
C1010 C1016 1.428 . S
H1011 C1007 0.930 . S
H1012 C1009 0.929 . S
S1013 N1014 1.613 . S
S1013 N1015 1.610 . S
N1014 S1013 1.613 . S
N1014 C1017 1.350 . S
N1015 S1013 1.610 . S
N1015 C1016 1.351 . S
C1016 C1010 1.428 . S
C1016 N1015 1.351 . S
C1016 C1017 1.434 . S
C1017 C1008 1.429 . S
C1017 N1014 1.350 . S
C1017 C1016 1.434 . S
C1018 C1019 1.369 . S
C1018 C1020 1.419 . S
C1018 H1022 0.930 . S
C1019 C1018 1.369 . S
C1019 C1028 1.429 . S
C1020 C1018 1.419 . S
C1020 C1021 1.363 . S
C1020 H1023 0.929 . S
C1021 C1020 1.363 . S
C1021 C1027 1.428 . S
H1022 C1018 0.930 . S
H1023 C1020 0.929 . S
S1024 N1025 1.613 . S
S1024 N1026 1.610 . S
N1025 S1024 1.613 . S
N1025 C1028 1.350 . S
N1026 S1024 1.610 . S
N1026 C1027 1.351 . S
C1027 C1021 1.428 . S
C1027 N1026 1.351 . S
C1027 C1028 1.434 . S
C1028 C1019 1.429 . S
C1028 N1025 1.350 . S
C1028 C1027 1.434 . S
C1029 C1030 1.369 . S
C1029 C1031 1.419 . S
C1029 H1033 0.930 . S
C1030 C1029 1.369 . S
C1030 C1039 1.429 . S
C1031 C1029 1.419 . S
C1031 C1032 1.363 . S
C1031 H1034 0.929 . S
C1032 C1031 1.363 . S
C1032 C1038 1.428 . S
H1033 C1029 0.930 . S
H1034 C1031 0.929 . S
S1035 N1036 1.613 . S
S1035 N1037 1.610 . S
N1036 S1035 1.613 . S
N1036 C1039 1.350 . S
N1037 S1035 1.610 . S
N1037 C1038 1.351 . S
C1038 C1032 1.428 . S
C1038 N1037 1.351 . S
C1038 C1039 1.434 . S
C1039 C1030 1.429 . S
C1039 N1036 1.350 . S
C1039 C1038 1.434 . S
C1040 C1041 1.369 1_455 S
C1040 C1042 1.419 . S
C1040 H1044 0.930 . S
C1041 C1040 1.369 1_655 S
C1041 C1050 1.429 . S
C1042 C1040 1.419 . S
C1042 C1043 1.363 . S
C1042 H1045 0.929 . S
C1043 C1042 1.363 . S
C1043 C1049 1.428 . S
H1044 C1040 0.930 . S
H1045 C1042 0.929 . S
S1046 N1047 1.613 . S
S1046 N1048 1.610 1_655 S
N1047 S1046 1.613 . S
N1047 C1050 1.350 1_565 S
N1048 S1046 1.610 1_455 S
N1048 C1049 1.351 1_565 S
C1049 C1043 1.428 . S
C1049 N1048 1.351 1_545 S
C1049 C1050 1.434 1_455 S
C1050 C1041 1.429 . S
C1050 N1047 1.350 1_545 S
C1050 C1049 1.434 1_655 S
C1051 C1052 1.369 . S
C1051 C1053 1.419 . S
C1051 H1055 0.930 . S
C1052 C1051 1.369 . S
C1052 C1061 1.429 . S
C1053 C1051 1.419 . S
C1053 C1054 1.363 . S
C1053 H1056 0.929 . S
C1054 C1053 1.363 . S
C1054 C1060 1.428 . S
H1055 C1051 0.930 . S
H1056 C1053 0.929 . S
S1057 N1058 1.613 . S
S1057 N1059 1.610 . S
N1058 S1057 1.613 . S
N1058 C1061 1.350 . S
N1059 S1057 1.610 . S
N1059 C1060 1.351 . S
C1060 C1054 1.428 . S
C1060 N1059 1.351 . S
C1060 C1061 1.434 . S
C1061 C1052 1.429 . S
C1061 N1058 1.350 . S
C1061 C1060 1.434 . S
C1062 C1063 1.369 . S
C1062 C1064 1.419 . S
C1062 H1066 0.930 . S
C1063 C1062 1.369 . S
C1063 C1072 1.429 . S
C1064 C1062 1.419 . S
C1064 C1065 1.363 . S
C1064 H1067 0.929 . S
C1065 C1064 1.363 . S
C1065 C1071 1.428 . S
H1066 C1062 0.930 . S
H1067 C1064 0.929 . S
S1068 N1069 1.613 . S
S1068 N1070 1.610 1_565 S
N1069 S1068 1.613 . S
N1069 C1072 1.350 1_565 S
N1070 S1068 1.610 1_545 S
N1070 C1071 1.351 . S
C1071 C1065 1.428 . S
C1071 N1070 1.351 . S
C1071 C1072 1.434 . S
C1072 C1063 1.429 . S
C1072 N1069 1.350 1_545 S
C1072 C1071 1.434 . S
C1073 C1074 1.369 1_556 S
C1073 C1075 1.419 . S
C1073 H1077 0.930 . S
C1074 C1073 1.369 1_554 S
C1074 C1083 1.428 . S
C1075 C1073 1.419 . S
C1075 C1076 1.363 . S
C1075 H1078 0.929 . S
C1076 C1075 1.363 . S
C1076 C1082 1.428 . S
H1077 C1073 0.930 . S
H1078 C1075 0.929 . S
S1079 N1080 1.613 . S
S1079 N1081 1.610 1_554 S
N1080 S1079 1.613 . S
N1080 C1083 1.362 . S
N1081 S1079 1.610 1_556 S
N1081 C1082 1.351 . S
C1082 C1076 1.428 . S
C1082 N1081 1.351 . S
C1082 C1083 1.422 1_556 S
C1083 C1074 1.428 . S
C1083 N1080 1.362 . S
C1083 C1082 1.422 1_554 S
C1084 C1085 1.369 . S
C1084 C1086 1.419 1_655 S
C1084 H1088 0.930 . S
C1085 C1084 1.369 . S
C1085 C1094 1.429 1_645 S
C1086 C1084 1.419 1_455 S
C1086 C1087 1.363 . S
C1086 H1089 0.942 . S
C1087 C1086 1.363 . S
C1087 C1093 1.428 1_545 S
H1088 C1084 0.930 . S
H1089 C1086 0.942 . S
S1090 N1091 1.613 . S
S1090 N1092 1.610 . S
N1091 S1090 1.613 . S
N1091 C1094 1.350 . S
N1092 S1090 1.610 . S
N1092 C1093 1.351 . S
C1093 C1087 1.428 1_565 S
C1093 N1092 1.351 . S
C1093 C1094 1.434 . S
C1094 C1085 1.429 1_465 S
C1094 N1091 1.350 . S
C1094 C1093 1.434 . S
C1095 C1096 1.369 . S
C1095 C1097 1.419 . S
C1095 H1099 0.930 . S
C1096 C1095 1.369 . S
C1096 C1105 1.429 . S
C1097 C1095 1.419 . S
C1097 C1098 1.363 . S
C1097 H1100 0.929 . S
C1098 C1097 1.363 . S
C1098 C1104 1.428 . S
H1099 C1095 0.930 . S
H1100 C1097 0.929 . S
S1101 N1102 1.613 . S
S1101 N1103 1.610 . S
N1102 S1101 1.613 . S
N1102 C1105 1.350 . S
N1103 S1101 1.610 . S
N1103 C1104 1.351 . S
C1104 C1098 1.428 . S
C1104 N1103 1.351 . S
C1104 C1105 1.434 . S
C1105 C1096 1.429 . S
C1105 N1102 1.350 . S
C1105 C1104 1.434 . S
C1106 C1107 1.369 . S
C1106 C1108 1.419 . S
C1106 H1110 0.930 . S
C1107 C1106 1.369 . S
C1107 C1116 1.429 . S
C1108 C1106 1.419 . S
C1108 C1109 1.363 . S
C1108 H1111 0.929 . S
C1109 C1108 1.363 . S
C1109 C1115 1.428 1_556 S
H1110 C1106 0.930 . S
H1111 C1108 0.929 . S
S1112 N1113 1.613 . S
S1112 N1114 1.610 . S
N1113 S1112 1.613 . S
N1113 C1116 1.350 1_554 S
N1114 S1112 1.610 . S
N1114 C1115 1.351 . S
C1115 C1109 1.428 1_554 S
C1115 N1114 1.351 . S
C1115 C1116 1.434 1_554 S
C1116 C1107 1.429 . S
C1116 N1113 1.350 1_556 S
C1116 C1115 1.434 1_556 S
C1117 C1118 1.369 . S
C1117 C1119 1.419 . S
C1117 H1121 0.930 . S
C1118 C1117 1.369 . S
C1118 C1127 1.429 . S
C1119 C1117 1.419 . S
C1119 C1120 1.363 . S
C1119 H1122 0.929 . S
C1120 C1119 1.363 . S
C1120 C1126 1.428 . S
H1121 C1117 0.930 . S
H1122 C1119 0.929 . S
S1123 N1124 1.613 . S
S1123 N1125 1.610 . S
N1124 S1123 1.613 . S
N1124 C1127 1.350 . S
N1125 S1123 1.610 . S
N1125 C1126 1.351 . S
C1126 C1120 1.428 . S
C1126 N1125 1.351 . S
C1126 C1127 1.434 . S
C1127 C1118 1.429 . S
C1127 N1124 1.350 . S
C1127 C1126 1.434 . S
C1128 C1129 1.369 . S
C1128 C1130 1.419 . S
C1128 H1132 0.930 . S
C1129 C1128 1.369 . S
C1129 C1138 1.429 . S
C1130 C1128 1.419 . S
C1130 C1131 1.363 . S
C1130 H1133 0.929 . S
C1131 C1130 1.363 . S
C1131 C1137 1.428 . S
H1132 C1128 0.930 . S
H1133 C1130 0.929 . S
S1134 N1135 1.613 . S
S1134 N1136 1.610 . S
N1135 S1134 1.613 . S
N1135 C1138 1.350 . S
N1136 S1134 1.610 . S
N1136 C1137 1.351 . S
C1137 C1131 1.428 . S
C1137 N1136 1.351 . S
C1137 C1138 1.434 . S
C1138 C1129 1.429 . S
C1138 N1135 1.350 . S
C1138 C1137 1.434 . S
C1139 C1140 1.369 . S
C1139 C1141 1.419 . S
C1139 H1143 0.930 . S
C1140 C1139 1.369 . S
C1140 C1149 1.429 . S
C1141 C1139 1.419 . S
C1141 C1142 1.363 . S
C1141 H1144 0.929 . S
C1142 C1141 1.363 . S
C1142 C1148 1.428 . S
H1143 C1139 0.930 . S
H1144 C1141 0.929 . S
S1145 N1146 1.613 . S
S1145 N1147 1.610 . S
N1146 S1145 1.613 . S
N1146 C1149 1.350 . S
N1147 S1145 1.610 . S
N1147 C1148 1.351 . S
C1148 C1142 1.428 . S
C1148 N1147 1.351 . S
C1148 C1149 1.434 . S
C1149 C1140 1.429 . S
C1149 N1146 1.350 . S
C1149 C1148 1.434 . S
C1150 C1151 1.369 . S
C1150 C1152 1.419 . S
C1150 H1154 0.930 . S
C1151 C1150 1.369 . S
C1151 C1160 1.429 . S
C1152 C1150 1.419 . S
C1152 C1153 1.363 . S
C1152 H1155 0.929 . S
C1153 C1152 1.363 . S
C1153 C1159 1.428 . S
H1154 C1150 0.930 . S
H1155 C1152 0.929 . S
S1156 N1157 1.613 . S
S1156 N1158 1.610 . S
N1157 S1156 1.613 . S
N1157 C1160 1.350 . S
N1158 S1156 1.610 . S
N1158 C1159 1.351 . S
C1159 C1153 1.428 . S
C1159 N1158 1.351 . S
C1159 C1160 1.434 . S
C1160 C1151 1.429 . S
C1160 N1157 1.350 . S
C1160 C1159 1.434 . S
C1161 C1162 1.369 . S
C1161 C1163 1.419 . S
C1161 H1165 0.930 . S
C1162 C1161 1.369 . S
C1162 C1171 1.429 . S
C1163 C1161 1.419 . S
C1163 C1164 1.363 . S
C1163 H1166 0.929 . S
C1164 C1163 1.363 . S
C1164 C1170 1.428 . S
H1165 C1161 0.930 . S
H1166 C1163 0.929 . S
S1167 N1168 1.613 . S
S1167 N1169 1.610 . S
N1168 S1167 1.613 . S
N1168 C1171 1.350 . S
N1169 S1167 1.610 . S
N1169 C1170 1.351 . S
C1170 C1164 1.428 . S
C1170 N1169 1.351 . S
C1170 C1171 1.434 . S
C1171 C1162 1.429 . S
C1171 N1168 1.350 . S
C1171 C1170 1.434 . S
C1172 C1173 1.369 . S
C1172 C1174 1.419 . S
C1172 H1176 0.930 . S
C1173 C1172 1.369 . S
C1173 C1182 1.429 . S
C1174 C1172 1.419 . S
C1174 C1175 1.363 . S
C1174 H1177 0.929 . S
C1175 C1174 1.363 . S
C1175 C1181 1.428 . S
H1176 C1172 0.930 . S
H1177 C1174 0.929 . S
S1178 N1179 1.613 . S
S1178 N1180 1.610 . S
N1179 S1178 1.613 . S
N1179 C1182 1.350 . S
N1180 S1178 1.610 . S
N1180 C1181 1.351 . S
C1181 C1175 1.428 . S
C1181 N1180 1.351 . S
C1181 C1182 1.434 . S
C1182 C1173 1.429 . S
C1182 N1179 1.350 . S
C1182 C1181 1.434 . S
C1183 C1184 1.369 . S
C1183 C1185 1.419 . S
C1183 H1187 0.930 . S
C1184 C1183 1.369 . S
C1184 C1193 1.429 . S
C1185 C1183 1.419 . S
C1185 C1186 1.363 . S
C1185 H1188 0.929 . S
C1186 C1185 1.363 . S
C1186 C1192 1.428 . S
H1187 C1183 0.930 . S
H1188 C1185 0.929 . S
S1189 N1190 1.613 . S
S1189 N1191 1.610 . S
N1190 S1189 1.613 . S
N1190 C1193 1.350 . S
N1191 S1189 1.610 . S
N1191 C1192 1.351 . S
C1192 C1186 1.428 . S
C1192 N1191 1.351 . S
C1192 C1193 1.434 . S
C1193 C1184 1.429 . S
C1193 N1190 1.350 . S
C1193 C1192 1.434 . S
C1194 C1195 1.369 . S
C1194 C1196 1.419 . S
C1194 H1198 0.930 . S
C1195 C1194 1.369 . S
C1195 C1204 1.429 . S
C1196 C1194 1.419 . S
C1196 C1197 1.363 . S
C1196 H1199 0.929 . S
C1197 C1196 1.363 . S
C1197 C1203 1.428 . S
H1198 C1194 0.930 . S
H1199 C1196 0.929 . S
S1200 N1201 1.613 . S
S1200 N1202 1.610 . S
N1201 S1200 1.613 . S
N1201 C1204 1.350 . S
N1202 S1200 1.610 . S
N1202 C1203 1.351 . S
C1203 C1197 1.428 . S
C1203 N1202 1.351 . S
C1203 C1204 1.434 . S
C1204 C1195 1.429 . S
C1204 N1201 1.350 . S
C1204 C1203 1.434 . S
C1205 C1206 1.369 . S
C1205 C1207 1.419 . S
C1205 H1209 0.930 . S
C1206 C1205 1.369 . S
C1206 C1215 1.429 . S
C1207 C1205 1.419 . S
C1207 C1208 1.363 . S
C1207 H1210 0.929 . S
C1208 C1207 1.363 . S
C1208 C1214 1.428 . S
H1209 C1205 0.930 . S
H1210 C1207 0.929 . S
S1211 N1212 1.613 . S
S1211 N1213 1.610 . S
N1212 S1211 1.613 . S
N1212 C1215 1.350 . S
N1213 S1211 1.610 . S
N1213 C1214 1.351 . S
C1214 C1208 1.428 . S
C1214 N1213 1.351 . S
C1214 C1215 1.434 . S
C1215 C1206 1.429 . S
C1215 N1212 1.350 . S
C1215 C1214 1.434 . S
C1216 C1217 1.369 . S
C1216 C1218 1.419 . S
C1216 H1220 0.930 . S
C1217 C1216 1.369 . S
C1217 C1226 1.429 . S
C1218 C1216 1.419 . S
C1218 C1219 1.363 . S
C1218 H1221 0.929 . S
C1219 C1218 1.363 . S
C1219 C1225 1.428 . S
H1220 C1216 0.930 . S
H1221 C1218 0.929 . S
S1222 N1223 1.613 . S
S1222 N1224 1.610 . S
N1223 S1222 1.613 . S
N1223 C1226 1.350 . S
N1224 S1222 1.610 . S
N1224 C1225 1.351 . S
C1225 C1219 1.428 . S
C1225 N1224 1.351 . S
C1225 C1226 1.434 . S
C1226 C1217 1.429 . S
C1226 N1223 1.350 . S
C1226 C1225 1.434 . S
C1227 C1228 1.369 . S
C1227 C1229 1.419 . S
C1227 H1231 0.930 . S
C1228 C1227 1.369 . S
C1228 C1237 1.429 . S
C1229 C1227 1.419 . S
C1229 C1230 1.363 . S
C1229 H1232 0.929 . S
C1230 C1229 1.363 . S
C1230 C1236 1.428 . S
H1231 C1227 0.930 . S
H1232 C1229 0.929 . S
S1233 N1234 1.613 . S
S1233 N1235 1.610 . S
N1234 S1233 1.613 . S
N1234 C1237 1.350 . S
N1235 S1233 1.610 . S
N1235 C1236 1.351 . S
C1236 C1230 1.428 . S
C1236 N1235 1.351 . S
C1236 C1237 1.434 . S
C1237 C1228 1.429 . S
C1237 N1234 1.350 . S
C1237 C1236 1.434 . S
C1238 C1239 1.369 . S
C1238 C1240 1.419 . S
C1238 H1242 0.930 . S
C1239 C1238 1.369 . S
C1239 C1248 1.429 . S
C1240 C1238 1.419 . S
C1240 C1241 1.363 . S
C1240 H1243 0.929 . S
C1241 C1240 1.363 . S
C1241 C1247 1.428 . S
H1242 C1238 0.930 . S
H1243 C1240 0.929 . S
S1244 N1245 1.613 . S
S1244 N1246 1.610 . S
N1245 S1244 1.613 . S
N1245 C1248 1.350 . S
N1246 S1244 1.610 . S
N1246 C1247 1.351 . S
C1247 C1241 1.428 . S
C1247 N1246 1.351 . S
C1247 C1248 1.434 . S
C1248 C1239 1.429 . S
C1248 N1245 1.350 . S
C1248 C1247 1.434 . S
C1249 C1250 1.369 . S
C1249 C1251 1.419 . S
C1249 H1253 0.930 . S
C1250 C1249 1.369 . S
C1250 C1259 1.429 . S
C1251 C1249 1.419 . S
C1251 C1252 1.363 . S
C1251 H1254 0.929 . S
C1252 C1251 1.363 . S
C1252 C1258 1.428 . S
H1253 C1249 0.930 . S
H1254 C1251 0.929 . S
S1255 N1256 1.613 . S
S1255 N1257 1.610 . S
N1256 S1255 1.613 . S
N1256 C1259 1.350 . S
N1257 S1255 1.610 . S
N1257 C1258 1.351 . S
C1258 C1252 1.428 . S
C1258 N1257 1.351 . S
C1258 C1259 1.434 . S
C1259 C1250 1.429 . S
C1259 N1256 1.350 . S
C1259 C1258 1.434 . S
C1260 C1261 1.369 . S
C1260 C1262 1.419 . S
C1260 H1264 0.930 . S
C1261 C1260 1.369 . S
C1261 C1270 1.415 1_455 S
C1262 C1260 1.419 . S
C1262 C1263 1.363 . S
C1262 H1265 0.929 . S
C1263 C1262 1.363 . S
C1263 C1269 1.408 1_455 S
H1264 C1260 0.930 . S
H1265 C1262 0.929 . S
S1266 N1267 1.613 . S
S1266 N1268 1.610 . S
N1267 S1266 1.613 . S
N1267 C1270 1.367 . S
N1268 S1266 1.610 . S
N1268 C1269 1.368 . S
C1269 C1263 1.408 1_655 S
C1269 N1268 1.368 . S
C1269 C1270 1.435 . S
C1270 C1261 1.415 1_655 S
C1270 N1267 1.367 . S
C1270 C1269 1.435 . S
C1271 C1272 1.369 . S
C1271 C1273 1.419 . S
C1271 H1275 0.930 . S
C1272 C1271 1.369 . S
C1272 C1281 1.429 . S
C1273 C1271 1.419 . S
C1273 C1274 1.363 . S
C1273 H1276 0.929 . S
C1274 C1273 1.363 . S
C1274 C1280 1.428 . S
H1275 C1271 0.930 . S
H1276 C1273 0.929 . S
S1277 N1278 1.613 . S
S1277 N1279 1.610 . S
N1278 S1277 1.613 . S
N1278 C1281 1.350 . S
N1279 S1277 1.610 . S
N1279 C1280 1.351 . S
C1280 C1274 1.428 . S
C1280 N1279 1.351 . S
C1280 C1281 1.434 . S
C1281 C1272 1.429 . S
C1281 N1278 1.350 . S
C1281 C1280 1.434 . S
C1282 C1283 1.369 . S
C1282 C1284 1.419 1_556 S
C1282 H1286 0.930 . S
C1283 C1282 1.369 . S
C1283 C1292 1.429 . S
C1284 C1282 1.419 1_554 S
C1284 C1285 1.363 . S
C1284 H1287 0.929 . S
C1285 C1284 1.363 . S
C1285 C1291 1.428 1_554 S
H1286 C1282 0.930 . S
H1287 C1284 0.929 . S
S1288 N1289 1.613 . S
S1288 N1290 1.610 . S
N1289 S1288 1.613 . S
N1289 C1292 1.350 . S
N1290 S1288 1.610 . S
N1290 C1291 1.351 . S
C1291 C1285 1.428 1_556 S
C1291 N1290 1.351 . S
C1291 C1292 1.434 . S
C1292 C1283 1.429 . S
C1292 N1289 1.350 . S
C1292 C1291 1.434 . S
C1293 C1294 1.369 . S
C1293 C1295 1.419 1_455 S
C1293 H1297 0.930 . S
C1294 C1293 1.369 . S
C1294 C1303 1.429 . S
C1295 C1293 1.419 1_655 S
C1295 C1296 1.363 . S
C1295 H1298 0.929 . S
C1296 C1295 1.363 . S
C1296 C1302 1.428 . S
H1297 C1293 0.930 . S
H1298 C1295 0.929 . S
S1299 N1300 1.613 1_655 S
S1299 N1301 1.610 . S
N1300 S1299 1.613 1_455 S
N1300 C1303 1.350 . S
N1301 S1299 1.610 . S
N1301 C1302 1.351 . S
C1302 C1296 1.428 . S
C1302 N1301 1.351 . S
C1302 C1303 1.434 1_655 S
C1303 C1294 1.429 . S
C1303 N1300 1.350 . S
C1303 C1302 1.434 1_455 S
C1304 C1305 1.369 . S
C1304 C1306 1.419 . S
C1304 H1308 0.930 . S
C1305 C1304 1.369 . S
C1305 C1314 1.429 . S
C1306 C1304 1.419 . S
C1306 C1307 1.363 1_556 S
C1306 H1309 0.929 1_556 S
C1307 C1306 1.363 1_554 S
C1307 C1313 1.428 1_554 S
H1308 C1304 0.930 . S
H1309 C1306 0.929 1_554 S
S1310 N1311 1.613 1_565 S
S1310 N1312 1.610 1_565 S
N1311 S1310 1.613 1_545 S
N1311 C1314 1.350 . S
N1312 S1310 1.610 1_545 S
N1312 C1313 1.351 . S
C1313 C1307 1.428 1_556 S
C1313 N1312 1.351 . S
C1313 C1314 1.434 . S
C1314 C1305 1.429 . S
C1314 N1311 1.350 . S
C1314 C1313 1.434 . S
C1315 C1316 1.369 . S
C1315 C1317 1.419 . S
C1315 H1319 0.930 . S
C1316 C1315 1.369 . S
C1316 C1325 1.429 . S
C1317 C1315 1.419 . S
C1317 C1318 1.363 . S
C1317 H1320 0.929 . S
C1318 C1317 1.363 . S
C1318 C1324 1.428 . S
H1319 C1315 0.930 . S
H1320 C1317 0.929 . S
S1321 N1322 1.613 . S
S1321 N1323 1.610 . S
N1322 S1321 1.613 . S
N1322 C1325 1.350 . S
N1323 S1321 1.610 . S
N1323 C1324 1.351 . S
C1324 C1318 1.428 . S
C1324 N1323 1.351 . S
C1324 C1325 1.434 . S
C1325 C1316 1.429 . S
C1325 N1322 1.350 . S
C1325 C1324 1.434 . S
C1326 C1327 1.369 . S
C1326 C1328 1.419 . S
C1326 H1330 0.930 1_545 S
C1327 C1326 1.369 . S
C1327 C1336 1.429 . S
C1328 C1326 1.419 . S
C1328 C1329 1.363 . S
C1328 H1331 0.929 1_545 S
C1329 C1328 1.363 . S
C1329 C1335 1.428 . S
H1330 C1326 0.930 1_565 S
H1331 C1328 0.929 1_565 S
S1332 N1333 1.613 . S
S1332 N1334 1.610 . S
N1333 S1332 1.613 . S
N1333 C1336 1.350 . S
N1334 S1332 1.610 . S
N1334 C1335 1.351 . S
C1335 C1329 1.428 . S
C1335 N1334 1.351 . S
C1335 C1336 1.434 . S
C1336 C1327 1.429 . S
C1336 N1333 1.350 . S
C1336 C1335 1.434 . S
C1337 C1338 1.369 . S
C1337 C1339 1.419 . S
C1337 H1341 0.930 . S
C1338 C1337 1.369 . S
C1338 C1347 1.429 . S
C1339 C1337 1.419 . S
C1339 C1340 1.363 . S
C1339 H1342 0.929 . S
C1340 C1339 1.363 . S
C1340 C1346 1.428 . S
H1341 C1337 0.930 . S
H1342 C1339 0.929 . S
S1343 N1344 1.613 . S
S1343 N1345 1.610 . S
N1344 S1343 1.613 . S
N1344 C1347 1.350 . S
N1345 S1343 1.610 . S
N1345 C1346 1.351 . S
C1346 C1340 1.428 . S
C1346 N1345 1.351 . S
C1346 C1347 1.434 . S
C1347 C1338 1.429 . S
C1347 N1344 1.350 . S
C1347 C1346 1.434 . S
C1348 C1349 1.369 . S
C1348 C1350 1.419 . S
C1348 H1352 0.930 . S
C1349 C1348 1.369 . S
C1349 C1358 1.429 . S
C1350 C1348 1.419 . S
C1350 C1351 1.363 . S
C1350 H1353 0.945 . S
C1351 C1350 1.363 . S
C1351 C1357 1.428 . S
H1352 C1348 0.930 . S
H1353 C1350 0.945 . S
S1354 N1355 1.613 . S
S1354 N1356 1.610 . S
N1355 S1354 1.613 . S
N1355 C1358 1.350 . S
N1356 S1354 1.610 . S
N1356 C1357 1.351 . S
C1357 C1351 1.428 . S
C1357 N1356 1.351 . S
C1357 C1358 1.434 . S
C1358 C1349 1.429 . S
C1358 N1355 1.350 . S
C1358 C1357 1.434 . S
C1359 C1360 1.369 . S
C1359 C1361 1.419 . S
C1359 H1363 0.930 . S
C1360 C1359 1.369 . S
C1360 C1369 1.429 . S
C1361 C1359 1.419 . S
C1361 C1362 1.363 . S
C1361 H1364 0.929 . S
C1362 C1361 1.363 . S
C1362 C1368 1.428 . S
H1363 C1359 0.930 . S
H1364 C1361 0.929 . S
S1365 N1366 1.613 . S
S1365 N1367 1.610 . S
N1366 S1365 1.613 . S
N1366 C1369 1.350 . S
N1367 S1365 1.610 . S
N1367 C1368 1.351 . S
C1368 C1362 1.428 . S
C1368 N1367 1.351 . S
C1368 C1369 1.434 . S
C1369 C1360 1.429 . S
C1369 N1366 1.350 . S
C1369 C1368 1.434 . S
C1370 C1371 1.369 . S
C1370 C1372 1.419 . S
C1370 H1374 0.930 . S
C1371 C1370 1.369 . S
C1371 C1380 1.429 . S
C1372 C1370 1.419 . S
C1372 C1373 1.363 . S
C1372 H1375 0.929 . S
C1373 C1372 1.363 . S
C1373 C1379 1.428 . S
H1374 C1370 0.930 . S
H1375 C1372 0.929 . S
S1376 N1377 1.613 1_565 S
S1376 N1378 1.610 . S
N1377 S1376 1.613 1_545 S
N1377 C1380 1.350 . S
N1378 S1376 1.610 . S
N1378 C1379 1.351 1_565 S
C1379 C1373 1.428 . S
C1379 N1378 1.351 1_545 S
C1379 C1380 1.434 . S
C1380 C1371 1.429 . S
C1380 N1377 1.350 . S
C1380 C1379 1.434 . S
C1381 C1382 1.369 . S
C1381 C1383 1.419 . S
C1381 H1385 0.930 . S
C1382 C1381 1.369 . S
C1382 C1391 1.429 . S
C1383 C1381 1.419 . S
C1383 C1384 1.363 . S
C1383 H1386 0.929 . S
C1384 C1383 1.363 . S
C1384 C1390 1.428 . S
H1385 C1381 0.930 . S
H1386 C1383 0.929 . S
S1387 N1388 1.613 . S
S1387 N1389 1.610 . S
N1388 S1387 1.613 . S
N1388 C1391 1.350 . S
N1389 S1387 1.610 . S
N1389 C1390 1.351 . S
C1390 C1384 1.428 . S
C1390 N1389 1.351 . S
C1390 C1391 1.434 . S
C1391 C1382 1.429 . S
C1391 N1388 1.350 . S
C1391 C1390 1.434 . S
C1392 C1393 1.369 . S
C1392 C1394 1.419 . S
C1392 H1396 0.930 . S
C1393 C1392 1.369 . S
C1393 C1402 1.429 . S
C1394 C1392 1.419 . S
C1394 C1395 1.363 . S
C1394 H1397 0.929 . S
C1395 C1394 1.363 . S
C1395 C1401 1.428 . S
H1396 C1392 0.930 . S
H1397 C1394 0.929 . S
S1398 N1399 1.613 . S
S1398 N1400 1.610 . S
N1399 S1398 1.613 . S
N1399 C1402 1.350 . S
N1400 S1398 1.610 . S
N1400 C1401 1.351 . S
C1401 C1395 1.428 . S
C1401 N1400 1.351 . S
C1401 C1402 1.434 . S
C1402 C1393 1.429 . S
C1402 N1399 1.350 . S
C1402 C1401 1.434 . S
C1403 C1404 1.369 . S
C1403 C1405 1.419 . S
C1403 H1407 0.930 . S
C1404 C1403 1.369 . S
C1404 C1413 1.429 . S
C1405 C1403 1.419 . S
C1405 C1406 1.363 . S
C1405 H1408 0.929 . S
C1406 C1405 1.363 . S
C1406 C1412 1.428 . S
H1407 C1403 0.930 . S
H1408 C1405 0.929 . S
S1409 N1410 1.613 . S
S1409 N1411 1.610 . S
N1410 S1409 1.613 . S
N1410 C1413 1.350 . S
N1411 S1409 1.610 . S
N1411 C1412 1.351 . S
C1412 C1406 1.428 . S
C1412 N1411 1.351 . S
C1412 C1413 1.434 . S
C1413 C1404 1.429 . S
C1413 N1410 1.350 . S
C1413 C1412 1.434 . S
C1414 C1415 1.369 . S
C1414 C1416 1.419 . S
C1414 H1418 0.930 . S
C1415 C1414 1.369 . S
C1415 C1424 1.429 . S
C1416 C1414 1.419 . S
C1416 C1417 1.363 . S
C1416 H1419 0.929 . S
C1417 C1416 1.363 . S
C1417 C1423 1.428 . S
H1418 C1414 0.930 . S
H1419 C1416 0.929 . S
S1420 N1421 1.613 . S
S1420 N1422 1.610 . S
N1421 S1420 1.613 . S
N1421 C1424 1.350 . S
N1422 S1420 1.610 . S
N1422 C1423 1.351 . S
C1423 C1417 1.428 . S
C1423 N1422 1.351 . S
C1423 C1424 1.434 . S
C1424 C1415 1.429 . S
C1424 N1421 1.350 . S
C1424 C1423 1.434 . S
C1425 C1426 1.369 . S
C1425 C1427 1.419 . S
C1425 H1429 0.930 . S
C1426 C1425 1.369 . S
C1426 C1435 1.429 . S
C1427 C1425 1.419 . S
C1427 C1428 1.363 . S
C1427 H1430 0.929 . S
C1428 C1427 1.363 . S
C1428 C1434 1.428 . S
H1429 C1425 0.930 . S
H1430 C1427 0.929 . S
S1431 N1432 1.613 . S
S1431 N1433 1.610 . S
N1432 S1431 1.613 . S
N1432 C1435 1.350 . S
N1433 S1431 1.610 . S
N1433 C1434 1.351 . S
C1434 C1428 1.428 . S
C1434 N1433 1.351 . S
C1434 C1435 1.434 . S
C1435 C1426 1.429 . S
C1435 N1432 1.350 . S
C1435 C1434 1.434 . S
C1436 C1437 1.369 . S
C1436 C1438 1.419 . S
C1436 H1440 0.930 . S
C1437 C1436 1.369 . S
C1437 C1446 1.429 . S
C1438 C1436 1.419 . S
C1438 C1439 1.363 . S
C1438 H1441 0.929 . S
C1439 C1438 1.363 . S
C1439 C1445 1.428 . S
H1440 C1436 0.930 . S
H1441 C1438 0.929 . S
S1442 N1443 1.613 . S
S1442 N1444 1.610 . S
N1443 S1442 1.613 . S
N1443 C1446 1.350 . S
N1444 S1442 1.610 . S
N1444 C1445 1.351 . S
C1445 C1439 1.428 . S
C1445 N1444 1.351 . S
C1445 C1446 1.434 . S
C1446 C1437 1.429 . S
C1446 N1443 1.350 . S
C1446 C1445 1.434 . S
C1447 C1448 1.369 . S
C1447 C1449 1.419 . S
C1447 H1451 0.930 . S
C1448 C1447 1.369 . S
C1448 C1457 1.429 . S
C1449 C1447 1.419 . S
C1449 C1450 1.363 . S
C1449 H1452 0.929 . S
C1450 C1449 1.363 . S
C1450 C1456 1.428 . S
H1451 C1447 0.930 . S
H1452 C1449 0.929 . S
S1453 N1454 1.613 . S
S1453 N1455 1.610 . S
N1454 S1453 1.613 . S
N1454 C1457 1.350 . S
N1455 S1453 1.610 . S
N1455 C1456 1.351 . S
C1456 C1450 1.428 . S
C1456 N1455 1.351 . S
C1456 C1457 1.434 . S
C1457 C1448 1.429 . S
C1457 N1454 1.350 . S
C1457 C1456 1.434 . S
C1458 C1459 1.369 . S
C1458 C1460 1.419 . S
C1458 H1462 0.930 . S
C1459 C1458 1.369 . S
C1459 C1468 1.429 . S
C1460 C1458 1.419 . S
C1460 C1461 1.363 . S
C1460 H1463 0.929 . S
C1461 C1460 1.363 . S
C1461 C1467 1.428 . S
H1462 C1458 0.930 . S
H1463 C1460 0.929 . S
S1464 N1465 1.613 . S
S1464 N1466 1.610 . S
N1465 S1464 1.613 . S
N1465 C1468 1.350 . S
N1466 S1464 1.610 . S
N1466 C1467 1.351 . S
C1467 C1461 1.428 . S
C1467 N1466 1.351 . S
C1467 C1468 1.434 . S
C1468 C1459 1.429 . S
C1468 N1465 1.350 . S
C1468 C1467 1.434 . S
C1469 C1470 1.369 . S
C1469 C1471 1.419 . S
C1469 H1473 0.930 . S
C1470 C1469 1.369 . S
C1470 C1479 1.429 . S
C1471 C1469 1.419 . S
C1471 C1472 1.363 . S
C1471 H1474 0.929 . S
C1472 C1471 1.363 . S
C1472 C1478 1.428 . S
H1473 C1469 0.930 . S
H1474 C1471 0.929 . S
S1475 N1476 1.613 . S
S1475 N1477 1.610 . S
N1476 S1475 1.613 . S
N1476 C1479 1.350 . S
N1477 S1475 1.610 . S
N1477 C1478 1.351 . S
C1478 C1472 1.428 . S
C1478 N1477 1.351 . S
C1478 C1479 1.434 . S
C1479 C1470 1.429 . S
C1479 N1476 1.350 . S
C1479 C1478 1.434 . S
C1480 C1481 1.369 . S
C1480 C1482 1.419 . S
C1480 H1484 0.930 . S
C1481 C1480 1.369 . S
C1481 C1490 1.429 . S
C1482 C1480 1.419 . S
C1482 C1483 1.363 . S
C1482 H1485 0.929 . S
C1483 C1482 1.363 . S
C1483 C1489 1.428 . S
H1484 C1480 0.930 . S
H1485 C1482 0.929 . S
S1486 N1487 1.613 . S
S1486 N1488 1.610 . S
N1487 S1486 1.613 . S
N1487 C1490 1.350 . S
N1488 S1486 1.610 . S
N1488 C1489 1.351 . S
C1489 C1483 1.428 . S
C1489 N1488 1.351 . S
C1489 C1490 1.434 . S
C1490 C1481 1.429 . S
C1490 N1487 1.350 . S
C1490 C1489 1.434 . S
C1491 C1492 1.369 . S
C1491 C1493 1.419 . S
C1491 H1495 0.930 . S
C1492 C1491 1.369 . S
C1492 C1501 1.429 . S
C1493 C1491 1.419 . S
C1493 C1494 1.363 . S
C1493 H1496 0.929 . S
C1494 C1493 1.363 . S
C1494 C1500 1.428 . S
H1495 C1491 0.930 . S
H1496 C1493 0.929 . S
S1497 N1498 1.613 . S
S1497 N1499 1.610 . S
N1498 S1497 1.613 . S
N1498 C1501 1.350 . S
N1499 S1497 1.610 . S
N1499 C1500 1.351 . S
C1500 C1494 1.428 . S
C1500 N1499 1.351 . S
C1500 C1501 1.434 . S
C1501 C1492 1.429 . S
C1501 N1498 1.350 . S
C1501 C1500 1.434 . S
C1502 C1503 1.369 . S
C1502 C1504 1.419 . S
C1502 H1506 0.930 1_554 S
C1503 C1502 1.369 . S
C1503 C1512 1.429 . S
C1504 C1502 1.419 . S
C1504 C1505 1.363 . S
C1504 H1507 0.929 . S
C1505 C1504 1.363 . S
C1505 C1511 1.428 . S
H1506 C1502 0.930 1_556 S
H1507 C1504 0.929 . S
S1508 N1509 1.613 . S
S1508 N1510 1.610 . S
N1509 S1508 1.613 . S
N1509 C1512 1.350 . S
N1510 S1508 1.610 . S
N1510 C1511 1.351 . S
C1511 C1505 1.428 . S
C1511 N1510 1.351 . S
C1511 C1512 1.434 . S
C1512 C1503 1.429 . S
C1512 N1509 1.350 . S
C1512 C1511 1.434 . S
C1513 C1514 1.369 1_455 S
C1513 C1515 1.419 1_455 S
C1513 H1517 0.930 . S
C1514 C1513 1.369 1_655 S
C1514 C1523 1.428 . S
C1515 C1513 1.419 1_655 S
C1515 C1516 1.363 . S
C1515 H1518 0.929 . S
C1516 C1515 1.363 . S
C1516 C1522 1.428 . S
H1517 C1513 0.930 . S
H1518 C1515 0.929 . S
S1519 N1520 1.613 . S
S1519 N1521 1.610 . S
N1520 S1519 1.613 . S
N1520 C1523 1.350 . S
N1521 S1519 1.610 . S
N1521 C1522 1.351 . S
C1522 C1516 1.428 . S
C1522 N1521 1.351 . S
C1522 C1523 1.434 . S
C1523 C1514 1.428 . S
C1523 N1520 1.350 . S
C1523 C1522 1.434 . S
C1524 C1525 1.369 . S
C1524 C1526 1.419 . S
C1524 H1528 0.930 . S
C1525 C1524 1.369 . S
C1525 C1534 1.429 . S
C1526 C1524 1.419 . S
C1526 C1527 1.363 . S
C1526 H1529 0.929 . S
C1527 C1526 1.363 . S
C1527 C1533 1.428 . S
H1528 C1524 0.930 . S
H1529 C1526 0.929 . S
S1530 N1531 1.613 . S
S1530 N1532 1.610 . S
N1531 S1530 1.613 . S
N1531 C1534 1.350 . S
N1532 S1530 1.610 . S
N1532 C1533 1.351 . S
C1533 C1527 1.428 . S
C1533 N1532 1.351 . S
C1533 C1534 1.434 . S
C1534 C1525 1.429 . S
C1534 N1531 1.350 . S
C1534 C1533 1.434 . S
C1535 C1536 1.369 . S
C1535 C1537 1.419 . S
C1535 H1539 0.930 . S
C1536 C1535 1.369 . S
C1536 C1545 1.429 . S
C1537 C1535 1.419 . S
C1537 C1538 1.363 . S
C1537 H1540 0.929 . S
C1538 C1537 1.363 . S
C1538 C1544 1.428 . S
H1539 C1535 0.930 . S
H1540 C1537 0.929 . S
S1541 N1542 1.613 . S
S1541 N1543 1.610 . S
N1542 S1541 1.613 . S
N1542 C1545 1.350 . S
N1543 S1541 1.610 . S
N1543 C1544 1.351 . S
C1544 C1538 1.428 . S
C1544 N1543 1.351 . S
C1544 C1545 1.434 . S
C1545 C1536 1.429 . S
C1545 N1542 1.350 . S
C1545 C1544 1.434 . S
C1546 C1547 1.369 . S
C1546 C1548 1.419 . S
C1546 H1550 0.930 . S
C1547 C1546 1.369 . S
C1547 C1556 1.429 . S
C1548 C1546 1.419 . S
C1548 C1549 1.363 . S
C1548 H1551 0.929 . S
C1549 C1548 1.363 . S
C1549 C1555 1.428 . S
H1550 C1546 0.930 . S
H1551 C1548 0.929 . S
S1552 N1553 1.613 . S
S1552 N1554 1.610 . S
N1553 S1552 1.613 . S
N1553 C1556 1.350 . S
N1554 S1552 1.610 . S
N1554 C1555 1.351 . S
C1555 C1549 1.428 . S
C1555 N1554 1.351 . S
C1555 C1556 1.434 . S
C1556 C1547 1.429 . S
C1556 N1553 1.350 . S
C1556 C1555 1.434 . S
C1557 C1558 1.369 . S
C1557 C1559 1.419 . S
C1557 H1561 0.930 . S
C1558 C1557 1.369 . S
C1558 C1567 1.429 . S
C1559 C1557 1.419 . S
C1559 C1560 1.363 . S
C1559 H1562 0.929 . S
C1560 C1559 1.363 . S
C1560 C1566 1.428 . S
H1561 C1557 0.930 . S
H1562 C1559 0.929 . S
S1563 N1564 1.613 . S
S1563 N1565 1.610 . S
N1564 S1563 1.613 . S
N1564 C1567 1.350 . S
N1565 S1563 1.610 . S
N1565 C1566 1.351 . S
C1566 C1560 1.428 . S
C1566 N1565 1.351 . S
C1566 C1567 1.434 . S
C1567 C1558 1.429 . S
C1567 N1564 1.350 . S
C1567 C1566 1.434 . S
C1568 C1569 1.369 . S
C1568 C1570 1.419 . S
C1568 H1572 0.930 . S
C1569 C1568 1.369 . S
C1569 C1578 1.429 . S
C1570 C1568 1.419 . S
C1570 C1571 1.363 . S
C1570 H1573 0.929 . S
C1571 C1570 1.363 . S
C1571 C1577 1.428 . S
H1572 C1568 0.930 . S
H1573 C1570 0.929 . S
S1574 N1575 1.613 . S
S1574 N1576 1.610 . S
N1575 S1574 1.613 . S
N1575 C1578 1.350 . S
N1576 S1574 1.610 . S
N1576 C1577 1.351 . S
C1577 C1571 1.428 . S
C1577 N1576 1.351 . S
C1577 C1578 1.434 . S
C1578 C1569 1.429 . S
C1578 N1575 1.350 . S
C1578 C1577 1.434 . S
C1579 C1580 1.369 . S
C1579 C1581 1.419 . S
C1579 H1583 0.930 . S
C1580 C1579 1.369 . S
C1580 C1589 1.429 . S
C1581 C1579 1.419 . S
C1581 C1582 1.363 . S
C1581 H1584 0.929 . S
C1582 C1581 1.363 . S
C1582 C1588 1.428 . S
H1583 C1579 0.930 . S
H1584 C1581 0.929 . S
S1585 N1586 1.613 1_556 S
S1585 N1587 1.610 1_556 S
N1586 S1585 1.613 1_554 S
N1586 C1589 1.350 . S
N1587 S1585 1.610 1_554 S
N1587 C1588 1.351 . S
C1588 C1582 1.428 . S
C1588 N1587 1.351 . S
C1588 C1589 1.434 . S
C1589 C1580 1.429 . S
C1589 N1586 1.350 . S
C1589 C1588 1.434 . S
C1590 C1591 1.369 . S
C1590 C1592 1.419 . S
C1590 H1594 0.930 . S
C1591 C1590 1.369 . S
C1591 C1600 1.429 . S
C1592 C1590 1.419 . S
C1592 C1593 1.363 . S
C1592 H1595 0.929 . S
C1593 C1592 1.363 . S
C1593 C1599 1.428 . S
H1594 C1590 0.930 . S
H1595 C1592 0.929 . S
S1596 N1597 1.613 . S
S1596 N1598 1.610 . S
N1597 S1596 1.613 . S
N1597 C1600 1.350 . S
N1598 S1596 1.610 . S
N1598 C1599 1.351 . S
C1599 C1593 1.428 . S
C1599 N1598 1.351 . S
C1599 C1600 1.434 . S
C1600 C1591 1.429 . S
C1600 N1597 1.350 . S
C1600 C1599 1.434 . S
C1601 C1602 1.369 . S
C1601 C1603 1.419 . S
C1601 H1605 0.930 . S
C1602 C1601 1.369 . S
C1602 C1611 1.429 . S
C1603 C1601 1.419 . S
C1603 C1604 1.363 . S
C1603 H1606 0.929 . S
C1604 C1603 1.363 . S
C1604 C1610 1.428 . S
H1605 C1601 0.930 . S
H1606 C1603 0.929 . S
S1607 N1608 1.613 . S
S1607 N1609 1.610 . S
N1608 S1607 1.613 . S
N1608 C1611 1.350 . S
N1609 S1607 1.610 . S
N1609 C1610 1.351 . S
C1610 C1604 1.428 . S
C1610 N1609 1.351 . S
C1610 C1611 1.434 . S
C1611 C1602 1.429 . S
C1611 N1608 1.350 . S
C1611 C1610 1.434 . S
C1612 C1613 1.369 . S
C1612 C1614 1.419 . S
C1612 H1616 0.930 . S
C1613 C1612 1.369 . S
C1613 C1622 1.429 . S
C1614 C1612 1.419 . S
C1614 C1615 1.363 . S
C1614 H1617 0.929 . S
C1615 C1614 1.363 . S
C1615 C1621 1.428 . S
H1616 C1612 0.930 . S
H1617 C1614 0.929 . S
S1618 N1619 1.613 . S
S1618 N1620 1.610 . S
N1619 S1618 1.613 . S
N1619 C1622 1.350 . S
N1620 S1618 1.610 . S
N1620 C1621 1.351 . S
C1621 C1615 1.428 . S
C1621 N1620 1.351 . S
C1621 C1622 1.434 . S
C1622 C1613 1.429 . S
C1622 N1619 1.350 . S
C1622 C1621 1.434 . S
C1623 C1624 1.369 . S
C1623 C1625 1.419 . S
C1623 H1627 0.930 . S
C1624 C1623 1.369 . S
C1624 C1633 1.429 . S
C1625 C1623 1.419 . S
C1625 C1626 1.363 . S
C1625 H1628 0.929 . S
C1626 C1625 1.363 . S
C1626 C1632 1.428 . S
H1627 C1623 0.930 . S
H1628 C1625 0.929 . S
S1629 N1630 1.613 . S
S1629 N1631 1.610 . S
N1630 S1629 1.613 . S
N1630 C1633 1.350 . S
N1631 S1629 1.610 . S
N1631 C1632 1.351 . S
C1632 C1626 1.428 . S
C1632 N1631 1.351 . S
C1632 C1633 1.434 . S
C1633 C1624 1.429 . S
C1633 N1630 1.350 . S
C1633 C1632 1.434 . S
C1634 C1635 1.369 . S
C1634 C1636 1.419 . S
C1634 H1638 0.930 . S
C1635 C1634 1.369 . S
C1635 C1644 1.429 . S
C1636 C1634 1.419 . S
C1636 C1637 1.363 . S
C1636 H1639 0.929 . S
C1637 C1636 1.363 . S
C1637 C1643 1.428 . S
H1638 C1634 0.930 . S
H1639 C1636 0.929 . S
S1640 N1641 1.613 . S
S1640 N1642 1.610 . S
N1641 S1640 1.613 . S
N1641 C1644 1.350 . S
N1642 S1640 1.610 . S
N1642 C1643 1.351 . S
C1643 C1637 1.428 . S
C1643 N1642 1.351 . S
C1643 C1644 1.434 . S
C1644 C1635 1.429 . S
C1644 N1641 1.350 . S
C1644 C1643 1.434 . S
C1645 C1646 1.369 . S
C1645 C1647 1.419 . S
C1645 H1649 0.930 . S
C1646 C1645 1.369 . S
C1646 C1655 1.429 . S
C1647 C1645 1.419 . S
C1647 C1648 1.363 . S
C1647 H1650 0.929 . S
C1648 C1647 1.363 . S
C1648 C1654 1.428 . S
H1649 C1645 0.930 . S
H1650 C1647 0.929 . S
S1651 N1652 1.613 . S
S1651 N1653 1.610 . S
N1652 S1651 1.613 . S
N1652 C1655 1.350 . S
N1653 S1651 1.610 . S
N1653 C1654 1.351 . S
C1654 C1648 1.428 . S
C1654 N1653 1.351 . S
C1654 C1655 1.434 . S
C1655 C1646 1.429 . S
C1655 N1652 1.350 . S
C1655 C1654 1.434 . S
C1656 C1657 1.369 . S
C1656 C1658 1.419 . S
C1656 H1660 0.930 . S
C1657 C1656 1.369 . S
C1657 C1666 1.429 . S
C1658 C1656 1.419 . S
C1658 C1659 1.363 . S
C1658 H1661 0.929 . S
C1659 C1658 1.363 . S
C1659 C1665 1.428 . S
H1660 C1656 0.930 . S
H1661 C1658 0.929 . S
S1662 N1663 1.613 . S
S1662 N1664 1.610 . S
N1663 S1662 1.613 . S
N1663 C1666 1.350 . S
N1664 S1662 1.610 . S
N1664 C1665 1.351 . S
C1665 C1659 1.428 . S
C1665 N1664 1.351 . S
C1665 C1666 1.434 . S
C1666 C1657 1.429 . S
C1666 N1663 1.350 . S
C1666 C1665 1.434 . S
C1667 C1668 1.369 . S
C1667 C1669 1.419 . S
C1667 H1671 0.930 . S
C1668 C1667 1.369 . S
C1668 C1677 1.429 . S
C1669 C1667 1.419 . S
C1669 C1670 1.363 . S
C1669 H1672 0.929 . S
C1670 C1669 1.363 . S
C1670 C1676 1.428 . S
H1671 C1667 0.930 . S
H1672 C1669 0.929 . S
S1673 N1674 1.613 . S
S1673 N1675 1.610 . S
N1674 S1673 1.613 . S
N1674 C1677 1.350 . S
N1675 S1673 1.610 . S
N1675 C1676 1.351 . S
C1676 C1670 1.428 . S
C1676 N1675 1.351 . S
C1676 C1677 1.434 . S
C1677 C1668 1.429 . S
C1677 N1674 1.350 . S
C1677 C1676 1.434 . S
C1678 C1679 1.369 . S
C1678 C1680 1.419 . S
C1678 H1682 0.930 . S
C1679 C1678 1.369 . S
C1679 C1688 1.429 1_565 S
C1680 C1678 1.419 . S
C1680 C1681 1.363 . S
C1680 H1683 0.929 . S
C1681 C1680 1.363 . S
C1681 C1687 1.428 . S
H1682 C1678 0.930 . S
H1683 C1680 0.929 . S
S1684 N1685 1.613 . S
S1684 N1686 1.610 . S
N1685 S1684 1.613 . S
N1685 C1688 1.350 . S
N1686 S1684 1.610 . S
N1686 C1687 1.351 1_545 S
C1687 C1681 1.428 . S
C1687 N1686 1.351 1_565 S
C1687 C1688 1.434 1_565 S
C1688 C1679 1.429 1_545 S
C1688 N1685 1.350 . S
C1688 C1687 1.434 1_545 S
C1689 C1690 1.369 1_556 S
C1689 C1691 1.419 . S
C1689 H1693 0.930 . S
C1690 C1689 1.369 1_554 S
C1690 C1699 1.429 . S
C1691 C1689 1.419 . S
C1691 C1692 1.363 1_556 S
C1691 H1694 0.929 . S
C1692 C1691 1.363 1_554 S
C1692 C1698 1.428 . S
H1693 C1689 0.930 . S
H1694 C1691 0.929 . S
S1695 N1696 1.613 . S
S1695 N1697 1.610 . S
N1696 S1695 1.613 . S
N1696 C1699 1.350 . S
N1697 S1695 1.610 . S
N1697 C1698 1.351 . S
C1698 C1692 1.428 . S
C1698 N1697 1.351 . S
C1698 C1699 1.434 . S
C1699 C1690 1.429 . S
C1699 N1696 1.350 . S
C1699 C1698 1.434 . S
C1700 C1701 1.369 . S
C1700 C1702 1.419 . S
C1700 H1704 0.930 . S
C1701 C1700 1.369 . S
C1701 C1710 1.429 . S
C1702 C1700 1.419 . S
C1702 C1703 1.363 . S
C1702 H1705 0.929 . S
C1703 C1702 1.363 . S
C1703 C1709 1.428 . S
H1704 C1700 0.930 . S
H1705 C1702 0.929 . S
S1706 N1707 1.613 . S
S1706 N1708 1.610 . S
N1707 S1706 1.613 . S
N1707 C1710 1.350 . S
N1708 S1706 1.610 . S
N1708 C1709 1.351 . S
C1709 C1703 1.428 . S
C1709 N1708 1.351 . S
C1709 C1710 1.434 . S
C1710 C1701 1.429 . S
C1710 N1707 1.350 . S
C1710 C1709 1.434 . S
C1711 C1712 1.369 . S
C1711 C1713 1.419 . S
C1711 H1715 0.930 . S
C1712 C1711 1.369 . S
C1712 C1721 1.429 . S
C1713 C1711 1.419 . S
C1713 C1714 1.363 . S
C1713 H1716 0.929 . S
C1714 C1713 1.363 . S
C1714 C1720 1.428 . S
H1715 C1711 0.930 . S
H1716 C1713 0.929 . S
S1717 N1718 1.613 . S
S1717 N1719 1.610 . S
N1718 S1717 1.613 . S
N1718 C1721 1.350 . S
N1719 S1717 1.610 . S
N1719 C1720 1.351 . S
C1720 C1714 1.428 . S
C1720 N1719 1.351 . S
C1720 C1721 1.434 . S
C1721 C1712 1.429 . S
C1721 N1718 1.350 . S
C1721 C1720 1.434 . S
C1722 C1723 1.369 . S
C1722 C1724 1.419 . S
C1722 H1726 0.930 . S
C1723 C1722 1.369 . S
C1723 C1732 1.429 . S
C1724 C1722 1.419 . S
C1724 C1725 1.363 . S
C1724 H1727 0.929 . S
C1725 C1724 1.363 . S
C1725 C1731 1.428 . S
H1726 C1722 0.930 . S
H1727 C1724 0.929 . S
S1728 N1729 1.613 . S
S1728 N1730 1.610 . S
N1729 S1728 1.613 . S
N1729 C1732 1.350 . S
N1730 S1728 1.610 . S
N1730 C1731 1.351 . S
C1731 C1725 1.428 . S
C1731 N1730 1.351 . S
C1731 C1732 1.434 . S
C1732 C1723 1.429 . S
C1732 N1729 1.350 . S
C1732 C1731 1.434 . S
C1733 C1734 1.369 . S
C1733 C1735 1.419 . S
C1733 H1737 0.930 . S
C1734 C1733 1.369 . S
C1734 C1743 1.429 . S
C1735 C1733 1.419 . S
C1735 C1736 1.363 . S
C1735 H1738 0.929 . S
C1736 C1735 1.363 . S
C1736 C1742 1.428 . S
H1737 C1733 0.930 . S
H1738 C1735 0.929 . S
S1739 N1740 1.613 . S
S1739 N1741 1.610 . S
N1740 S1739 1.613 . S
N1740 C1743 1.350 . S
N1741 S1739 1.610 . S
N1741 C1742 1.351 . S
C1742 C1736 1.428 . S
C1742 N1741 1.351 . S
C1742 C1743 1.434 . S
C1743 C1734 1.429 . S
C1743 N1740 1.350 . S
C1743 C1742 1.434 . S
C1744 C1745 1.369 . S
C1744 C1746 1.419 . S
C1744 H1748 0.930 . S
C1745 C1744 1.369 . S
C1745 C1754 1.429 . S
C1746 C1744 1.419 . S
C1746 C1747 1.363 . S
C1746 H1749 0.929 . S
C1747 C1746 1.363 . S
C1747 C1753 1.428 . S
H1748 C1744 0.930 . S
H1749 C1746 0.929 . S
S1750 N1751 1.613 . S
S1750 N1752 1.610 . S
N1751 S1750 1.613 . S
N1751 C1754 1.350 . S
N1752 S1750 1.610 . S
N1752 C1753 1.351 . S
C1753 C1747 1.428 . S
C1753 N1752 1.351 . S
C1753 C1754 1.434 . S
C1754 C1745 1.429 . S
C1754 N1751 1.350 . S
C1754 C1753 1.434 . S
C1755 C1756 1.369 . S
C1755 C1757 1.419 . S
C1755 H1759 0.930 . S
C1756 C1755 1.369 . S
C1756 C1765 1.429 . S
C1757 C1755 1.419 . S
C1757 C1758 1.363 . S
C1757 H1760 0.929 . S
C1758 C1757 1.363 . S
C1758 C1764 1.428 . S
H1759 C1755 0.930 . S
H1760 C1757 0.929 . S
S1761 N1762 1.613 . S
S1761 N1763 1.610 . S
N1762 S1761 1.613 . S
N1762 C1765 1.350 . S
N1763 S1761 1.610 . S
N1763 C1764 1.351 . S
C1764 C1758 1.428 . S
C1764 N1763 1.351 . S
C1764 C1765 1.434 . S
C1765 C1756 1.429 . S
C1765 N1762 1.350 . S
C1765 C1764 1.434 . S
C1766 C1767 1.369 . S
C1766 C1768 1.419 . S
C1766 H1770 0.930 . S
C1767 C1766 1.369 . S
C1767 C1776 1.429 . S
C1768 C1766 1.419 . S
C1768 C1769 1.363 . S
C1768 H1771 0.929 . S
C1769 C1768 1.363 . S
C1769 C1775 1.428 . S
H1770 C1766 0.930 . S
H1771 C1768 0.929 . S
S1772 N1773 1.613 . S
S1772 N1774 1.610 . S
N1773 S1772 1.613 . S
N1773 C1776 1.350 . S
N1774 S1772 1.610 . S
N1774 C1775 1.351 . S
C1775 C1769 1.428 . S
C1775 N1774 1.351 . S
C1775 C1776 1.434 . S
C1776 C1767 1.429 . S
C1776 N1773 1.350 . S
C1776 C1775 1.434 . S
C1777 C1778 1.369 . S
C1777 C1779 1.419 . S
C1777 H1781 0.930 . S
C1778 C1777 1.369 . S
C1778 C1787 1.429 . S
C1779 C1777 1.419 . S
C1779 C1780 1.363 . S
C1779 H1782 0.929 . S
C1780 C1779 1.363 . S
C1780 C1786 1.428 . S
H1781 C1777 0.930 . S
H1782 C1779 0.929 . S
S1783 N1784 1.613 . S
S1783 N1785 1.610 . S
N1784 S1783 1.613 . S
N1784 C1787 1.350 . S
N1785 S1783 1.610 . S
N1785 C1786 1.351 . S
C1786 C1780 1.428 . S
C1786 N1785 1.351 . S
C1786 C1787 1.434 . S
C1787 C1778 1.429 . S
C1787 N1784 1.350 . S
C1787 C1786 1.434 . S
C1788 C1789 1.369 . S
C1788 C1790 1.419 . S
C1788 H1792 0.930 . S
C1789 C1788 1.369 . S
C1789 C1798 1.429 . S
C1790 C1788 1.419 . S
C1790 C1791 1.363 . S
C1790 H1793 0.929 1_556 S
C1791 C1790 1.363 . S
C1791 C1797 1.428 . S
H1792 C1788 0.930 . S
H1793 C1790 0.929 1_554 S
S1794 N1795 1.613 . S
S1794 N1796 1.610 . S
N1795 S1794 1.613 . S
N1795 C1798 1.350 . S
N1796 S1794 1.610 . S
N1796 C1797 1.351 . S
C1797 C1791 1.428 . S
C1797 N1796 1.351 . S
C1797 C1798 1.434 . S
C1798 C1789 1.429 . S
C1798 N1795 1.350 . S
C1798 C1797 1.434 . S
C1799 C1800 1.369 . S
C1799 C1801 1.419 . S
C1799 H1803 0.930 . S
C1800 C1799 1.369 . S
C1800 C1809 1.429 . S
C1801 C1799 1.419 . S
C1801 C1802 1.363 . S
C1801 H1804 0.929 . S
C1802 C1801 1.363 . S
C1802 C1808 1.428 . S
H1803 C1799 0.930 . S
H1804 C1801 0.929 . S
S1805 N1806 1.613 . S
S1805 N1807 1.610 . S
N1806 S1805 1.613 . S
N1806 C1809 1.350 . S
N1807 S1805 1.610 . S
N1807 C1808 1.351 . S
C1808 C1802 1.428 . S
C1808 N1807 1.351 . S
C1808 C1809 1.434 . S
C1809 C1800 1.429 . S
C1809 N1806 1.350 . S
C1809 C1808 1.434 . S
C1810 C1811 1.369 1_655 S
C1810 C1812 1.419 1_655 S
C1810 H1814 0.930 . S
C1811 C1810 1.369 1_455 S
C1811 C1820 1.429 . S
C1812 C1810 1.419 1_455 S
C1812 C1813 1.363 . S
C1812 H1815 0.929 1_455 S
C1813 C1812 1.363 . S
C1813 C1819 1.428 . S
H1814 C1810 0.930 . S
H1815 C1812 0.929 1_655 S
S1816 N1817 1.613 . S
S1816 N1818 1.610 . S
N1817 S1816 1.613 . S
N1817 C1820 1.350 . S
N1818 S1816 1.610 . S
N1818 C1819 1.351 . S
C1819 C1813 1.428 . S
C1819 N1818 1.351 . S
C1819 C1820 1.434 . S
C1820 C1811 1.429 . S
C1820 N1817 1.350 . S
C1820 C1819 1.434 . S
C1821 C1822 1.369 . S
C1821 C1823 1.419 . S
C1821 H1825 0.930 . S
C1822 C1821 1.369 . S
C1822 C1831 1.429 . S
C1823 C1821 1.419 . S
C1823 C1824 1.363 . S
C1823 H1826 0.929 . S
C1824 C1823 1.363 . S
C1824 C1830 1.428 . S
H1825 C1821 0.930 . S
H1826 C1823 0.929 . S
S1827 N1828 1.613 . S
S1827 N1829 1.610 . S
N1828 S1827 1.613 . S
N1828 C1831 1.350 . S
N1829 S1827 1.610 . S
N1829 C1830 1.351 . S
C1830 C1824 1.428 . S
C1830 N1829 1.351 . S
C1830 C1831 1.434 . S
C1831 C1822 1.429 . S
C1831 N1828 1.350 . S
C1831 C1830 1.434 . S
C1832 C1833 1.369 . S
C1832 C1834 1.419 . S
C1832 H1836 0.930 . S
C1833 C1832 1.369 . S
C1833 C1842 1.429 . S
C1834 C1832 1.419 . S
C1834 C1835 1.363 . S
C1834 H1837 0.929 . S
C1835 C1834 1.363 . S
C1835 C1841 1.428 . S
H1836 C1832 0.930 . S
H1837 C1834 0.929 . S
S1838 N1839 1.613 . S
S1838 N1840 1.610 . S
N1839 S1838 1.613 . S
N1839 C1842 1.350 . S
N1840 S1838 1.610 . S
N1840 C1841 1.351 . S
C1841 C1835 1.428 . S
C1841 N1840 1.351 . S
C1841 C1842 1.434 . S
C1842 C1833 1.429 . S
C1842 N1839 1.350 . S
C1842 C1841 1.434 . S
C1843 C1844 1.369 . S
C1843 C1845 1.419 . S
C1843 H1847 0.930 . S
C1844 C1843 1.369 . S
C1844 C1853 1.429 . S
C1845 C1843 1.419 . S
C1845 C1846 1.363 . S
C1845 H1848 0.929 . S
C1846 C1845 1.363 . S
C1846 C1852 1.428 . S
H1847 C1843 0.930 . S
H1848 C1845 0.929 . S
S1849 N1850 1.613 . S
S1849 N1851 1.610 . S
N1850 S1849 1.613 . S
N1850 C1853 1.350 . S
N1851 S1849 1.610 . S
N1851 C1852 1.351 . S
C1852 C1846 1.428 . S
C1852 N1851 1.351 . S
C1852 C1853 1.434 . S
C1853 C1844 1.429 . S
C1853 N1850 1.350 . S
C1853 C1852 1.434 . S
C1854 C1855 1.369 . S
C1854 C1856 1.419 . S
C1854 H1858 0.930 . S
C1855 C1854 1.369 . S
C1855 C1864 1.429 . S
C1856 C1854 1.419 . S
C1856 C1857 1.363 . S
C1856 H1859 0.929 . S
C1857 C1856 1.363 . S
C1857 C1863 1.428 1_655 S
H1858 C1854 0.930 . S
H1859 C1856 0.929 . S
S1860 N1861 1.609 . S
S1860 N1862 1.610 . S
N1861 S1860 1.609 . S
N1861 C1864 1.353 1_455 S
N1862 S1860 1.610 . S
N1862 C1863 1.351 . S
C1863 C1857 1.428 1_455 S
C1863 N1862 1.351 . S
C1863 C1864 1.434 1_455 S
C1864 C1855 1.429 . S
C1864 N1861 1.353 1_655 S
C1864 C1863 1.434 1_655 S
C1865 C1866 1.369 . S
C1865 C1867 1.419 . S
C1865 H1869 0.930 . S
C1866 C1865 1.369 . S
C1866 C1875 1.429 . S
C1867 C1865 1.419 . S
C1867 C1868 1.363 . S
C1867 H1870 0.929 . S
C1868 C1867 1.363 . S
C1868 C1874 1.428 . S
H1869 C1865 0.930 . S
H1870 C1867 0.929 . S
S1871 N1872 1.613 . S
S1871 N1873 1.610 . S
N1872 S1871 1.613 . S
N1872 C1875 1.350 . S
N1873 S1871 1.610 . S
N1873 C1874 1.351 . S
C1874 C1868 1.428 . S
C1874 N1873 1.351 . S
C1874 C1875 1.434 . S
C1875 C1866 1.429 . S
C1875 N1872 1.350 . S
C1875 C1874 1.434 . S
C1876 C1877 1.369 . S
C1876 C1878 1.419 . S
C1876 H1880 0.930 . S
C1877 C1876 1.369 . S
C1877 C1886 1.429 . S
C1878 C1876 1.419 . S
C1878 C1879 1.363 . S
C1878 H1881 0.929 . S
C1879 C1878 1.363 . S
C1879 C1885 1.428 . S
H1880 C1876 0.930 . S
H1881 C1878 0.929 . S
S1882 N1883 1.613 . S
S1882 N1884 1.610 . S
N1883 S1882 1.613 . S
N1883 C1886 1.350 . S
N1884 S1882 1.610 . S
N1884 C1885 1.351 . S
C1885 C1879 1.428 . S
C1885 N1884 1.351 . S
C1885 C1886 1.434 . S
C1886 C1877 1.429 . S
C1886 N1883 1.350 . S
C1886 C1885 1.434 . S
C1887 C1888 1.369 . S
C1887 C1889 1.419 . S
C1887 H1891 0.930 . S
C1888 C1887 1.369 . S
C1888 C1897 1.429 . S
C1889 C1887 1.419 . S
C1889 C1890 1.363 . S
C1889 H1892 0.929 . S
C1890 C1889 1.363 . S
C1890 C1896 1.428 . S
H1891 C1887 0.930 . S
H1892 C1889 0.929 . S
S1893 N1894 1.613 . S
S1893 N1895 1.610 . S
N1894 S1893 1.613 . S
N1894 C1897 1.350 . S
N1895 S1893 1.610 . S
N1895 C1896 1.351 . S
C1896 C1890 1.428 . S
C1896 N1895 1.351 . S
C1896 C1897 1.434 . S
C1897 C1888 1.429 . S
C1897 N1894 1.350 . S
C1897 C1896 1.434 . S
C1898 C1899 1.369 . S
C1898 C1900 1.419 . S
C1898 H1902 0.930 . S
C1899 C1898 1.369 . S
C1899 C1908 1.429 . S
C1900 C1898 1.419 . S
C1900 C1901 1.363 . S
C1900 H1903 0.929 . S
C1901 C1900 1.363 . S
C1901 C1907 1.428 . S
H1902 C1898 0.930 . S
H1903 C1900 0.929 . S
S1904 N1905 1.613 1_455 S
S1904 N1906 1.610 . S
N1905 S1904 1.613 1_655 S
N1905 C1908 1.350 . S
N1906 S1904 1.610 . S
N1906 C1907 1.351 1_455 S
C1907 C1901 1.428 . S
C1907 N1906 1.351 1_655 S
C1907 C1908 1.434 . S
C1908 C1899 1.429 . S
C1908 N1905 1.350 . S
C1908 C1907 1.434 . S
C1909 C1910 1.369 . S
C1909 C1911 1.419 . S
C1909 H1913 0.930 . S
C1910 C1909 1.369 . S
C1910 C1919 1.429 . S
C1911 C1909 1.419 . S
C1911 C1912 1.363 . S
C1911 H1914 0.929 . S
C1912 C1911 1.363 . S
C1912 C1918 1.428 . S
H1913 C1909 0.930 . S
H1914 C1911 0.929 . S
S1915 N1916 1.613 . S
S1915 N1917 1.610 . S
N1916 S1915 1.613 . S
N1916 C1919 1.350 . S
N1917 S1915 1.610 . S
N1917 C1918 1.351 . S
C1918 C1912 1.428 . S
C1918 N1917 1.351 . S
C1918 C1919 1.434 . S
C1919 C1910 1.429 . S
C1919 N1916 1.350 . S
C1919 C1918 1.434 . S
C1920 C1921 1.369 . S
C1920 C1922 1.419 . S
C1920 H1924 0.930 . S
C1921 C1920 1.369 . S
C1921 C1930 1.429 . S
C1922 C1920 1.419 . S
C1922 C1923 1.363 . S
C1922 H1925 0.929 . S
C1923 C1922 1.363 . S
C1923 C1929 1.428 . S
H1924 C1920 0.930 . S
H1925 C1922 0.929 . S
S1926 N1927 1.613 . S
S1926 N1928 1.610 . S
N1927 S1926 1.613 . S
N1927 C1930 1.350 . S
N1928 S1926 1.610 . S
N1928 C1929 1.351 . S
C1929 C1923 1.428 . S
C1929 N1928 1.351 . S
C1929 C1930 1.434 . S
C1930 C1921 1.429 . S
C1930 N1927 1.350 . S
C1930 C1929 1.434 . S
C1931 C1932 1.369 . S
C1931 C1933 1.419 . S
C1931 H1935 0.930 . S
C1932 C1931 1.369 . S
C1932 C1941 1.429 . S
C1933 C1931 1.419 . S
C1933 C1934 1.363 . S
C1933 H1936 0.929 . S
C1934 C1933 1.363 . S
C1934 C1940 1.428 . S
H1935 C1931 0.930 . S
H1936 C1933 0.929 . S
S1937 N1938 1.613 1_545 S
S1937 N1939 1.610 . S
N1938 S1937 1.613 1_565 S
N1938 C1941 1.350 . S
N1939 S1937 1.610 . S
N1939 C1940 1.351 1_545 S
C1940 C1934 1.428 . S
C1940 N1939 1.351 1_565 S
C1940 C1941 1.434 . S
C1941 C1932 1.429 . S
C1941 N1938 1.350 . S
C1941 C1940 1.434 . S
C1942 C1943 1.369 . S
C1942 C1944 1.419 . S
C1942 H1946 0.930 . S
C1943 C1942 1.369 . S
C1943 C1952 1.429 . S
C1944 C1942 1.419 . S
C1944 C1945 1.363 . S
C1944 H1947 0.929 . S
C1945 C1944 1.363 . S
C1945 C1951 1.428 . S
H1946 C1942 0.930 . S
H1947 C1944 0.929 . S
S1948 N1949 1.613 . S
S1948 N1950 1.610 . S
N1949 S1948 1.613 . S
N1949 C1952 1.350 . S
N1950 S1948 1.610 . S
N1950 C1951 1.351 . S
C1951 C1945 1.428 . S
C1951 N1950 1.351 . S
C1951 C1952 1.434 . S
C1952 C1943 1.429 . S
C1952 N1949 1.350 . S
C1952 C1951 1.434 . S
C1953 C1954 1.369 . S
C1953 C1955 1.419 . S
C1953 H1957 0.930 . S
C1954 C1953 1.369 . S
C1954 C1963 1.429 . S
C1955 C1953 1.419 . S
C1955 C1956 1.363 . S
C1955 H1958 0.929 . S
C1956 C1955 1.363 . S
C1956 C1962 1.428 . S
H1957 C1953 0.930 . S
H1958 C1955 0.929 . S
S1959 N1960 1.613 . S
S1959 N1961 1.610 . S
N1960 S1959 1.613 . S
N1960 C1963 1.350 . S
N1961 S1959 1.610 . S
N1961 C1962 1.351 . S
C1962 C1956 1.428 . S
C1962 N1961 1.351 . S
C1962 C1963 1.434 . S
C1963 C1954 1.429 . S
C1963 N1960 1.350 . S
C1963 C1962 1.434 . S
C1964 C1965 1.369 . S
C1964 C1966 1.419 . S
C1964 H1968 0.930 . S
C1965 C1964 1.369 . S
C1965 C1974 1.429 . S
C1966 C1964 1.419 . S
C1966 C1967 1.363 . S
C1966 H1969 0.929 . S
C1967 C1966 1.363 . S
C1967 C1973 1.428 . S
H1968 C1964 0.930 . S
H1969 C1966 0.929 . S
S1970 N1971 1.613 . S
S1970 N1972 1.610 . S
N1971 S1970 1.613 . S
N1971 C1974 1.350 . S
N1972 S1970 1.610 . S
N1972 C1973 1.351 . S
C1973 C1967 1.428 . S
C1973 N1972 1.351 . S
C1973 C1974 1.434 . S
C1974 C1965 1.429 . S
C1974 N1971 1.350 . S
C1974 C1973 1.434 . S
C1975 C1976 1.369 . S
C1975 C1977 1.419 . S
C1975 H1979 0.930 . S
C1976 C1975 1.369 . S
C1976 C1985 1.429 . S
C1977 C1975 1.419 . S
C1977 C1978 1.363 . S
C1977 H1980 0.929 . S
C1978 C1977 1.363 . S
C1978 C1984 1.428 . S
H1979 C1975 0.930 . S
H1980 C1977 0.929 . S
S1981 N1982 1.613 . S
S1981 N1983 1.610 . S
N1982 S1981 1.613 . S
N1982 C1985 1.350 . S
N1983 S1981 1.610 . S
N1983 C1984 1.351 . S
C1984 C1978 1.428 . S
C1984 N1983 1.351 . S
C1984 C1985 1.434 . S
C1985 C1976 1.429 . S
C1985 N1982 1.350 . S
C1985 C1984 1.434 . S
C1986 C1987 1.369 . S
C1986 C1988 1.419 . S
C1986 H1990 0.930 . S
C1987 C1986 1.369 . S
C1987 C1996 1.429 . S
C1988 C1986 1.419 . S
C1988 C1989 1.363 . S
C1988 H1991 0.929 . S
C1989 C1988 1.363 . S
C1989 C1995 1.428 . S
H1990 C1986 0.930 . S
H1991 C1988 0.929 . S
S1992 N1993 1.613 . S
S1992 N1994 1.610 . S
N1993 S1992 1.613 . S
N1993 C1996 1.350 . S
N1994 S1992 1.610 . S
N1994 C1995 1.351 . S
C1995 C1989 1.428 . S
C1995 N1994 1.351 . S
C1995 C1996 1.434 . S
C1996 C1987 1.429 . S
C1996 N1993 1.350 . S
C1996 C1995 1.434 . S
C1997 C1998 1.369 . S
C1997 C1999 1.419 . S
C1997 H2001 0.930 . S
C1998 C1997 1.369 . S
C1998 C2007 1.429 . S
C1999 C1997 1.419 . S
C1999 C2000 1.363 . S
C1999 H2002 0.929 . S
C2000 C1999 1.363 . S
C2000 C2006 1.428 . S
H2001 C1997 0.930 . S
H2002 C1999 0.929 . S
S2003 N2004 1.613 . S
S2003 N2005 1.610 . S
N2004 S2003 1.613 . S
N2004 C2007 1.350 . S
N2005 S2003 1.610 . S
N2005 C2006 1.351 . S
C2006 C2000 1.428 . S
C2006 N2005 1.351 . S
C2006 C2007 1.434 . S
C2007 C1998 1.429 . S
C2007 N2004 1.350 . S
C2007 C2006 1.434 . S
C953 C101 2.476 . S
C955 C322 2.320 . S
C964 C57 1.963 . S
C966 C370 1.995 . S
C975 C70 1.371 . S
C977 C402 1.344 . S
C988 C447 1.695 . S
C986 C82 1.789 . S
C997 C23 0.939 . S
C999 C487 0.933 . S
C1010 C522 0.967 . S
C1008 C29 0.971 . S
C1021 C561 1.538 . S
C1019 C49 1.474 . S
C1030 C10 1.369 . S
C1032 C598 1.340 . S
C1043 C330 2.207 . S
C1041 C218 2.159 . S
C1052 C226 0.844 . S
C1054 C367 0.831 . S
C1065 C410 2.334 . S
C1063 C251 2.297 . S
C1076 C442 1.095 . S
C1074 C159 1.124 . S
C1085 C211 1.377 . S
C1087 C482 1.330 . S
C1098 C530 0.689 . S
C1096 C225 0.787 . S
C1109 C571 2.145 1_556 S
C1107 C252 2.241 . S
C1120 C601 2.109 . S
C1118 C166 2.096 . S
C1131 C327 2.200 . S
C1129 C147 2.235 . S
C1140 C263 2.069 . S
C1142 C650 2.096 . S
C1153 C687 1.400 . S
C1151 C309 1.427 . S
C1164 C718 1.296 . S
C1162 C291 1.368 . S
C1173 C108 2.739 . S
C1175 C611 2.702 . S
C1184 C121 1.485 . S
C1186 C407 1.438 . S
C1195 C302 1.741 . S
C1197 C770 1.877 . S
C1208 C802 1.876 . S
C1206 C276 1.898 . S
C1219 C331 2.310 . S
C1217 C55 2.390 . S
C1230 C801 2.275 . S
C1228 C96 2.286 . S
C1239 C88 1.634 . S
C1241 C411 1.624 . S
C1250 C75 1.868 . S
C1252 C758 1.788 . S
C1263 C478 1.079 . S
C1261 C4 1.088 . S
C1272 C44 1.480 . S
C1274 C691 1.504 . S
C1285 C570 1.334 . S
C1283 C31 1.323 . S
C1296 C847 1.440 . S
C1294 C18 1.436 . S
C1307 C321 2.294 . S
C1305 C133 2.266 . S
C1318 C798 0.878 . S
C1316 C296 0.901 . S
C1327 C107 2.508 . S
C1329 C401 2.491 . S
C1338 C264 1.416 . S
C1340 C771 1.409 . S
C1349 C140 1.632 . S
C1351 C491 1.610 . S
C1362 C681 0.749 . S
C1360 C289 0.759 . S
C1371 C114 2.449 . S
C1373 C562 2.372 . S
C1382 C265 2.130 1_556 S
C1384 C850 2.132 . S
C1393 C179 1.837 . S
C1395 C318 1.829 . S
C1404 C161 2.351 . S
C1406 C641 2.320 . S
C1415 C244 1.372 . S
C1417 C518 1.367 . S
C1426 C224 1.106 . S
C1428 C727 1.067 . S
C1439 C842 2.822 . S
C1437 C257 2.868 . S
C1448 C199 1.629 . S
C1450 C398 1.591 . S
C1461 C441 1.944 . S
C1459 C237 1.902 . S
C1472 C371 2.080 . S
C1470 C185 2.056 . S
C1481 C69 2.473 . S
C1483 C882 2.324 . S
C1494 C810 1.998 . S
C1492 C83 1.958 . S
C1503 C94 1.373 . S
C1505 C922 1.345 . S
C1514 C56 1.795 1_655 S
C1516 C767 1.689 . S
C1525 C42 0.945 . S
C1527 C647 0.940 . S
C1538 C682 0.969 . S
C1536 C3 0.972 . S
C1549 C721 1.552 . S
C1547 C16 1.476 . S
C1560 C838 1.347 . S
C1558 C36 1.365 . S
C1571 C890 2.208 . S
C1569 C238 2.160 . S
C1580 C174 0.866 . S
C1582 C807 0.809 . S
C1593 C930 2.335 . S
C1591 C186 2.300 . S
C1604 C762 1.095 . S
C1602 C198 1.122 . S
C1615 C642 1.327 1_556 S
C1613 C239 1.379 . S
C1624 C173 0.788 . S
C1626 C690 0.686 . S
C1637 C731 2.150 . S
C1635 C187 2.238 . S
C1646 C205 2.093 . S
C1648 C841 2.108 . S
C1659 C887 2.194 . S
C1657 C290 2.240 . S
C1668 C122 2.070 . S
C1670 C490 2.096 . S
C1681 C527 1.405 . S
C1679 C134 1.417 1_565 S
C1692 C558 1.293 . S
C1690 C148 1.364 . S
C1703 C851 2.695 . S
C1701 C283 2.734 . S
C1712 C270 1.484 . S
C1714 C927 1.437 . S
C1725 C450 1.874 . S
C1723 C135 1.745 . S
C1736 C362 1.873 . S
C1734 C109 1.899 . S
C1745 C81 2.391 . S
C1747 C891 2.313 . S
C1758 C361 2.274 . S
C1756 C68 2.285 . S
C1767 C62 1.637 . S
C1769 C931 1.627 . S
C1778 C95 1.871 . S
C1780 C438 1.783 . S
C1789 C30 1.087 . S
C1791 C638 1.080 . S
C1802 C531 1.498 . S
C1800 C17 1.477 . S
C1811 C5 1.317 . S
C1813 C730 1.334 . S
C1822 C43 1.439 . S
C1824 C607 1.431 . S
C1835 C881 2.294 . S
C1833 C304 2.267 . S
C1844 C153 0.899 . S
C1846 C358 0.875 . S
C1857 C921 2.492 1_656 S
C1855 C278 2.507 . S
C1866 C127 1.416 . S
C1868 C451 1.409 . S
C1877 C303 1.631 . S
C1879 C651 1.610 . S
C1890 C521 0.740 . S
C1888 C146 0.769 . S
C1899 C277 2.444 . S
C1901 C722 2.363 1_655 S
C1912 C610 2.130 . S
C1910 C120 2.128 . S
C1923 C878 1.827 . S
C1921 C231 1.842 . S
C1934 C481 2.319 1_665 S
C1932 C200 2.350 . S
C1943 C212 1.380 . S
C1945 C678 1.363 . S
C1956 C567 1.062 . S
C1954 C172 1.116 . S
C1965 C192 2.868 . S
C1967 C602 2.820 . S
C1976 C160 1.634 . S
C1978 C918 1.585 . S
C1989 C761 1.945 . S
C1987 C213 1.900 . S
C2000 C811 2.078 . S
C1998 C250 2.056 . S
