# Generated by pormake.
# Topology zzz, (3,6)-cn, num edge types: 1
# Building blocks:
#     Node 0, Type 0, BuildingBlock: WUSLED_clean_sbu_0, # of connection points: 3
#     Node 1, Type 0, BuildingBlock: WUSLED_clean_sbu_0, # of connection points: 3
#     Node 2, Type 0, BuildingBlock: WUSLED_clean_sbu_0, # of connection points: 3
#     Node 3, Type 0, BuildingBlock: WUSLED_clean_sbu_0, # of connection points: 3
#     Node 4, Type 0, BuildingBlock: WUSLED_clean_sbu_0, # of connection points: 3
#     Node 5, Type 0, BuildingBlock: WUSLED_clean_sbu_0, # of connection points: 3
#     Node 6, Type 0, BuildingBlock: WUSLED_clean_sbu_0, # of connection points: 3
#     Node 7, Type 0, BuildingBlock: WUSLED_clean_sbu_0, # of connection points: 3
#     Node 8, Type 1, BuildingBlock: HISSIN_clean_sbu_0, # of connection points: 6
#     Node 9, Type 1, BuildingBlock: HISSIN_clean_sbu_0, # of connection points: 6
#     Node 10, Type 1, BuildingBlock: HISSIN_clean_sbu_0, # of connection points: 6
#     Node 11, Type 1, BuildingBlock: HISSIN_clean_sbu_0, # of connection points: 6
#     Edge 12, Type (0, 1), BuildingBlock: XIVTED_clean_linker_0, # of connection points: 2
#     Edge 13, Type (0, 1), BuildingBlock: XIVTED_clean_linker_0, # of connection points: 2
#     Edge 14, Type (0, 1), BuildingBlock: XIVTED_clean_linker_0, # of connection points: 2
#     Edge 15, Type (0, 1), BuildingBlock: XIVTED_clean_linker_0, # of connection points: 2
#     Edge 16, Type (0, 1), BuildingBlock: XIVTED_clean_linker_0, # of connection points: 2
#     Edge 17, Type (0, 1), BuildingBlock: XIVTED_clean_linker_0, # of connection points: 2
#     Edge 18, Type (0, 1), BuildingBlock: XIVTED_clean_linker_0, # of connection points: 2
#     Edge 19, Type (0, 1), BuildingBlock: XIVTED_clean_linker_0, # of connection points: 2
#     Edge 20, Type (0, 1), BuildingBlock: XIVTED_clean_linker_0, # of connection points: 2
#     Edge 21, Type (0, 1), BuildingBlock: XIVTED_clean_linker_0, # of connection points: 2
#     Edge 22, Type (0, 1), BuildingBlock: XIVTED_clean_linker_0, # of connection points: 2
#     Edge 23, Type (0, 1), BuildingBlock: XIVTED_clean_linker_0, # of connection points: 2
#     Edge 24, Type (0, 1), BuildingBlock: XIVTED_clean_linker_0, # of connection points: 2
#     Edge 25, Type (0, 1), BuildingBlock: XIVTED_clean_linker_0, # of connection points: 2
#     Edge 26, Type (0, 1), BuildingBlock: XIVTED_clean_linker_0, # of connection points: 2
#     Edge 27, Type (0, 1), BuildingBlock: XIVTED_clean_linker_0, # of connection points: 2
#     Edge 28, Type (0, 1), BuildingBlock: XIVTED_clean_linker_0, # of connection points: 2
#     Edge 29, Type (0, 1), BuildingBlock: XIVTED_clean_linker_0, # of connection points: 2
#     Edge 30, Type (0, 1), BuildingBlock: XIVTED_clean_linker_0, # of connection points: 2
#     Edge 31, Type (0, 1), BuildingBlock: XIVTED_clean_linker_0, # of connection points: 2
#     Edge 32, Type (0, 1), BuildingBlock: XIVTED_clean_linker_0, # of connection points: 2
#     Edge 33, Type (0, 1), BuildingBlock: XIVTED_clean_linker_0, # of connection points: 2
#     Edge 34, Type (0, 1), BuildingBlock: XIVTED_clean_linker_0, # of connection points: 2
#     Edge 35, Type (0, 1), BuildingBlock: XIVTED_clean_linker_0, # of connection points: 2
# Relax obj value: 0.362
# Max RMSD: 0.215
# Mean RMSD: 0.183
data_MOF--net-zzz--node1-WUSLED_clean_sbu_0--node2-HISSIN_clean_sbu_0--edge1-XIVTED_clean_linker_0
_symmetry_space_group_name_H-M    P1
_symmetry_Int_Tables_number       1
_symmetry_cell_setting            triclinic
loop_
_symmetry_equiv_pos_as_xyz
'x, y, z'
_cell_length_a     60.451446
_cell_length_b     61.018942
_cell_length_c     23.203608
_cell_angle_alpha  89.524145
_cell_angle_beta   91.597698
_cell_angle_gamma 91.484802
loop_
_atom_site_label
_atom_site_type_symbol
_atom_site_fract_x
_atom_site_fract_y
_atom_site_fract_z
_atom_type_partial_charge
C0 C 0.77922 0.5444 0.38443 0.0
C1 C 0.79631 0.54081 0.34613 0.0
C2 C 0.82347 0.54009 0.42644 0.0
C3 C 0.81822 0.53867 0.36691 0.0
C4 C 0.80618 0.54388 0.46432 0.0
C5 C 0.78436 0.54597 0.44354 0.0
U6 U 0.73332 0.54596 0.26544 0.0
O7 O 0.69947 0.5317 0.26677 0.0
O8 O 0.70446 0.56719 0.25691 0.0
C9 C 0.69029 0.55048 0.25405 0.0
C10 C 0.75595 0.54649 0.3641 0.0
C11 C 0.67518 0.5501 0.20281 0.0
C12 C 0.63789 0.54732 0.16051 0.0
C13 C 0.6522 0.54852 0.20915 0.0
C14 C 0.66943 0.54943 0.09852 0.0
C15 C 0.64632 0.54762 0.10444 0.0
C16 C 0.68368 0.5506 0.14711 0.0
C17 C 0.77743 0.53608 0.15186 0.0
C18 C 0.80423 0.54099 0.0769 0.0
C19 C 0.81067 0.51452 0.15365 0.0
C20 C 0.79092 0.52036 0.17871 0.0
C21 C 0.81706 0.52425 0.10139 0.0
C22 C 0.78456 0.54681 0.1019 0.0
C23 C 0.75494 0.53999 0.17094 0.0
O24 O 0.7514 0.56428 0.33417 0.0
O25 O 0.74632 0.5287 0.34247 0.0
O26 O 0.74524 0.52395 0.19969 0.0
O27 O 0.75135 0.55955 0.19151 0.0
H28 H 0.7927 0.53961 0.30029 0.0
H29 H 0.83096 0.53555 0.33636 0.0
H30 H 0.8095 0.54551 0.5102 0.0
H31 H 0.77144 0.54885 0.47382 0.0
H32 H 0.62026 0.54565 0.16695 0.0
H33 H 0.6453 0.54797 0.25175 0.0
H34 H 0.67658 0.55005 0.05625 0.0
H35 H 0.7014 0.55176 0.14121 0.0
H36 H 0.809 0.54903 0.03716 0.0
H37 H 0.82024 0.50155 0.17335 0.0
H38 H 0.78575 0.51191 0.21751 0.0
H39 H 0.77442 0.55904 0.08075 0.0
C40 C 0.02016 0.78754 0.32672 0.0
C41 C 0.02483 0.80749 0.29811 0.0
C42 C 0.01767 0.82823 0.38528 0.0
C43 C 0.02354 0.82754 0.32693 0.0
C44 C 1.01286 0.80821 0.41356 0.0
C45 C 0.01411 0.78818 0.38469 0.0
U46 U 1.00711 0.74648 0.20346 0.0
O47 O 0.02999 0.72424 0.16296 0.0
O48 O 1.00044 0.71063 0.20439 0.0
C49 C 0.0174 0.70672 0.17195 0.0
C50 C 0.02227 0.76594 0.29807 0.0
C51 C 0.0134 0.69172 0.12212 0.0
C52 C 1.00179 0.65558 0.08633 0.0
C53 C 1.0037 0.67085 0.13118 0.0
C54 C 0.01891 0.68181 0.02173 0.0
C55 C 1.00971 0.66067 0.0311 0.0
C56 C 0.02073 0.69712 0.06655 0.0
C57 C 0.97525 0.79332 0.14086 0.0
C58 C 0.96742 0.82731 0.09078 0.0
C59 C 0.97956 0.82794 0.19125 0.0
C60 C 0.98002 0.80506 0.19164 0.0
C61 C 0.97418 0.83932 0.14005 0.0
C62 C 0.96809 0.80446 0.09114 0.0
C63 C 0.98156 0.77038 0.1368 0.0
O64 O 1.00452 0.75301 0.29656 0.0
O65 O 0.03311 0.76583 0.2497 0.0
O66 O 1.00274 0.76804 0.12815 0.0
O67 O 0.97377 0.757 0.17651 0.0
H68 H 0.02958 0.80765 0.25344 0.0
H69 H 0.0276 0.84249 0.30362 0.0
H70 H 1.00794 0.80797 0.45807 0.0
H71 H 1.01046 0.7731 0.40792 0.0
H72 H 0.99422 0.63968 0.09523 0.0
H73 H 0.99796 0.66616 0.17346 0.0
H74 H 0.02544 0.68636 0.9802 0.0
H75 H 0.0284 0.71299 0.05788 0.0
H76 H 0.96345 0.83557 0.05046 0.0
H77 H 0.98467 0.83675 0.22992 0.0
H78 H 0.98548 0.79661 0.23047 0.0
H79 H 0.96451 0.79562 0.0515 0.0
C80 C 0.74121 0.0194 0.30883 0.0
C81 C 0.72055 0.02045 0.27944 0.0
C82 C 0.70091 0.01478 0.3696 0.0
C83 C 0.70072 0.01816 0.30936 0.0
C84 C 0.72164 0.01341 0.39863 0.0
C85 C 0.74145 0.01575 0.36872 0.0
U86 U 0.78398 1.00465 0.19522 0.0
O87 O 0.80278 0.0274 0.13981 0.0
O88 O 0.82058 1.00473 0.19709 0.0
C89 C 0.822 0.01913 0.15463 0.0
C90 C 0.76253 0.02308 0.2787 0.0
C91 C 0.83692 0.01442 0.10621 0.0
C92 C 0.86557 0.99296 0.06247 0.0
C93 C 0.85066 0.99613 0.1069 0.0
C94 C 0.85325 0.02611 0.01534 0.0
C95 C 0.86719 1.00798 0.01614 0.0
C96 C 0.83844 0.02931 0.05976 0.0
C97 C 0.74057 0.96234 0.15556 0.0
C98 C 0.70655 0.94975 0.10802 0.0
C99 C 0.7054 0.96726 0.20122 0.0
C100 C 0.7285 0.96906 0.20284 0.0
C101 C 0.69412 0.95886 0.15203 0.0
C102 C 0.72959 0.95156 0.10977 0.0
C103 C 0.76299 0.97121 0.14723 0.0
O104 O 0.77789 0.00848 0.28809 0.0
O105 O 0.76127 0.02963 0.22459 0.0
O106 O 0.76317 0.99104 0.12483 0.0
O107 O 0.77721 0.969 0.19071 0.0
H108 H 0.71963 0.02325 0.2333 0.0
H109 H 0.68523 0.01956 0.28521 0.0
H110 H 0.72265 0.01043 0.44467 0.0
H111 H 0.75705 0.0149 0.39266 0.0
H112 H 0.87584 0.97868 0.06445 0.0
H113 H 0.85009 0.98436 0.14204 0.0
H114 H 0.8542 0.03825 0.98116 0.0
H115 H 0.82838 0.04375 0.05821 0.0
H116 H 0.69856 0.9433 0.06918 0.0
H117 H 0.69636 0.97405 0.23626 0.0
H118 H 0.73679 0.97742 0.23867 0.0
H119 H 0.73866 0.94643 0.07277 0.0
C120 C 0.53714 0.74181 0.33968 0.0
C121 C 0.54244 0.72208 0.31294 0.0
C122 C 0.53138 0.70109 0.39786 0.0
C123 C 0.53962 0.70198 0.34172 0.0
C124 C 0.52559 0.72079 0.42396 0.0
C125 C 0.52853 0.7409 0.39527 0.0
U126 U 0.53004 0.78398 0.2162 0.0
O127 O 0.55561 0.80545 0.17847 0.0
O128 O 0.52705 0.81996 0.21861 0.0
C129 C 0.54456 0.82336 0.18704 0.0
C130 C 0.54158 0.76345 0.312 0.0
C131 C 0.54177 0.83826 0.13672 0.0
C132 C 0.53526 0.87496 0.09913 0.0
C133 C 0.53698 0.86031 0.14569 0.0
C134 C 0.54294 0.84572 0.0334 0.0
C135 C 0.53848 0.86796 0.04231 0.0
C136 C 0.54449 0.83103 0.08 0.0
C137 C 0.49197 0.74096 0.14552 0.0
C138 C 0.46925 0.71352 0.09557 0.0
C139 C 0.48696 0.70467 0.1876 0.0
C140 C 0.49597 0.72599 0.19058 0.0
C141 C 0.47377 0.69811 0.13955 0.0
C142 C 0.47831 0.73475 0.09857 0.0
C143 C 0.50281 0.7627 0.14548 0.0
O144 O 0.5534 0.76352 0.26526 0.0
O145 O 0.52494 0.77691 0.30845 0.0
O146 O 0.49611 0.7763 0.18458 0.0
O147 O 0.52444 0.76268 0.14114 0.0
H148 H 0.54901 0.72213 0.26999 0.0
H149 H 0.54394 0.6871 0.32002 0.0
H150 H 0.51941 0.72074 0.46732 0.0
H151 H 0.52444 0.75585 0.41706 0.0
H152 H 0.53134 0.89181 0.10781 0.0
H153 H 0.53472 0.86627 0.18894 0.0
H154 H 0.54575 0.83969 0.99054 0.0
H155 H 0.54814 0.81408 0.07158 0.0
H156 H 0.45952 0.70894 0.05746 0.0
H157 H 0.49062 0.69323 0.22231 0.0
H158 H 0.50643 0.73066 0.22731 0.0
H159 H 0.47513 0.74615 0.06341 0.0
C160 C 0.25686 0.48046 0.91434 0.0
C161 C 0.23747 0.47804 0.94607 0.0
C162 C 0.21471 0.48421 0.85914 0.0
C163 C 0.21662 0.47978 0.91871 0.0
C164 C 0.2342 0.48664 0.82761 0.0
C165 C 0.25504 0.48474 0.85495 0.0
U166 U 0.29383 0.48666 0.04872 0.0
O167 O 0.32139 0.46688 0.0818 0.0
O168 O 0.32732 0.50157 0.0598 0.0
C169 C 0.33553 0.48364 0.0827 0.0
C170 C 0.27897 0.4793 0.94295 0.0
C171 C 0.34956 0.48648 0.13562 0.0
C172 C 0.385 0.49806 0.17933 0.0
C173 C 0.37065 0.49635 0.1311 0.0
C174 C 0.35726 0.48032 0.23813 0.0
C175 C 0.37866 0.48981 0.23345 0.0
C176 C 0.34285 0.47869 0.18976 0.0
C177 C 0.26273 0.50505 0.18447 0.0
C178 C 0.26486 0.53355 0.2572 0.0
C179 C 0.2411 0.50147 0.27076 0.0
C180 C 0.24802 0.49297 0.21885 0.0
C181 C 0.24864 0.52232 0.28916 0.0
C182 C 0.27185 0.525 0.20523 0.0
C183 C 0.265 0.49842 0.124 0.0
O184 O 0.28777 0.4982 0.95954 0.0
O185 O 0.28139 0.4637 0.98191 0.0
O186 O 0.26951 0.47782 0.11455 0.0
O187 O 0.27519 0.51234 0.08956 0.0
H188 H 0.23846 0.47499 0.99213 0.0
H189 H 0.202 0.47812 0.94448 0.0
H190 H 0.23336 0.48984 0.78164 0.0
H191 H 0.26978 0.48674 0.8297 0.0
H192 H 0.40109 0.50591 0.17407 0.0
H193 H 0.37617 0.50255 0.08988 0.0
H194 H 0.35181 0.47363 0.27885 0.0
H195 H 0.32664 0.47102 0.19453 0.0
H196 H 0.2712 0.54952 0.27071 0.0
H197 H 0.22843 0.49245 0.29387 0.0
H198 H 0.24065 0.47764 0.20362 0.0
H199 H 0.28333 0.53465 0.1798 0.0
C200 C 0.02746 0.24478 0.93962 0.0
C201 C 0.04722 0.2362 0.91963 0.0
C202 C 0.02761 0.2028 0.88675 0.0
C203 C 0.0473 0.21548 0.8937 0.0
C204 C 1.00793 0.21132 0.90748 0.0
C205 C 1.00785 0.23201 0.93326 0.0
U206 U 0.03773 0.2851 0.06521 0.0
O207 O 0.01564 0.31065 0.09376 0.0
O208 O 0.0494 0.31972 0.06897 0.0
C209 C 0.03105 0.32623 0.09207 0.0
C210 C 0.0268 0.2671 0.96533 0.0
C211 C 0.03304 0.34081 0.14344 0.0
C212 C 0.05385 0.36748 0.20317 0.0
C213 C 0.05279 0.35264 0.1571 0.0
C214 C 0.01551 0.35905 0.22293 0.0
C215 C 0.03519 0.37093 0.2367 0.0
C216 C 0.01443 0.34431 0.17696 0.0
C217 C 0.05718 0.23409 0.13854 0.0
C218 C 0.06435 0.19958 0.18687 0.0
C219 C 0.04929 0.19978 0.0889 0.0
C220 C 0.05004 0.22266 0.0889 0.0
C221 C 0.05577 0.18802 0.13857 0.0
C222 C 0.06495 0.22249 0.1869 0.0
C223 C 0.05407 0.25778 0.14172 0.0
O224 O 1.01274 0.2695 1.00689 0.0
O225 O 0.04584 0.2775 0.97553 0.0
O226 O 0.06657 0.26991 0.10792 0.0
O227 O 0.03321 0.26333 0.13987 0.0
H228 H 0.06265 0.24556 0.92341 0.0
H229 H 0.06274 0.20967 0.8778 0.0
H230 H 0.99249 0.20198 0.90394 0.0
H231 H 0.99232 0.23808 0.94795 0.0
H232 H 0.06934 0.37619 0.21263 0.0
H233 H 0.06738 0.35063 0.13184 0.0
H234 H 1.00065 0.36153 0.2468 0.0
H235 H 0.9988 0.3359 0.16711 0.0
H236 H 0.06919 0.19097 0.22604 0.0
H237 H 0.04274 0.19131 0.05102 0.0
H238 H 0.04398 0.23145 0.05124 0.0
H239 H 0.07042 0.2311 0.2256 0.0
C240 C 0.29159 0.02438 0.95532 0.0
C241 C 0.30506 0.04348 0.95155 0.0
C242 C 0.33284 0.02382 0.89847 0.0
C243 C 0.32549 0.04314 0.92406 0.0
C244 C 0.31908 1.00486 0.9018 0.0
C245 C 0.29886 1.00514 0.92997 0.0
U246 U 0.25311 0.0346 0.08332 0.0
O247 O 0.22608 0.01312 0.11405 0.0
O248 O 0.21886 0.04648 0.08463 0.0
C249 C 0.21119 0.02839 0.10904 0.0
C250 C 0.26971 0.02409 0.98356 0.0
C251 C 0.19672 0.03097 0.15905 0.0
C252 C 0.1595 0.03415 0.19551 0.0
C253 C 0.17388 0.03322 0.14927 0.0
C254 C 0.1906 0.03088 0.26263 0.0
C255 C 0.16758 0.03281 0.25296 0.0
C256 C 0.20501 0.03 0.2162 0.0
C257 C 0.30571 0.05401 0.15732 0.0
C258 C 0.34116 0.06024 0.20636 0.0
C259 C 0.33967 0.04807 0.10708 0.0
C260 C 0.31662 0.04831 0.10735 0.0
C261 C 0.35218 0.05326 0.15728 0.0
C262 C 0.31804 0.06057 0.20635 0.0
C263 C 0.28168 0.05066 0.15973 0.0
O264 O 0.26725 0.01008 0.02639 0.0
O265 O 0.26073 0.04308 0.99329 0.0
O266 O 0.27521 0.02994 0.1588 0.0
O267 O 0.26994 0.06307 0.12455 0.0
H268 H 0.29995 0.05866 0.97031 0.0
H269 H 0.33557 0.05805 0.92346 0.0
H270 H 0.32366 0.98975 0.88175 0.0
H271 H 0.28872 0.99025 0.93141 0.0
H272 H 0.14193 0.03532 0.18604 0.0
H273 H 0.16707 0.03384 0.10562 0.0
H274 H 0.19752 0.03008 0.30611 0.0
H275 H 0.22258 0.02829 0.22496 0.0
H276 H 0.35028 0.06403 0.24601 0.0
H277 H 0.34764 0.0428 0.0685 0.0
H278 H 0.30721 0.04293 0.0696 0.0
H279 H 0.30982 0.06487 0.24543 0.0
C280 C 0.50016 0.28473 0.95179 0.0
C281 C 0.49176 0.30344 0.97769 0.0
C282 C 0.5062 0.32688 0.90076 0.0
C283 C 0.49472 0.32421 0.95248 0.0
C284 C 0.51501 0.30818 0.87569 0.0
C285 C 0.51193 0.28739 0.90075 0.0
U286 U 0.50549 0.23895 0.06722 0.0
O287 O 0.50874 0.20331 0.05746 0.0
O288 O 0.47935 0.2162 0.0974 0.0
C289 C 0.49069 0.19875 0.08615 0.0
C290 C 0.49551 0.26233 0.97485 0.0
C291 C 0.49296 0.18297 0.13441 0.0
C292 C 0.47764 0.15247 0.18991 0.0
C293 C 0.47624 0.16705 0.14312 0.0
C294 C 0.51266 0.16949 0.21997 0.0
C295 C 0.49587 0.15346 0.22908 0.0
C296 C 0.51117 0.18414 0.17329 0.0
C297 C 0.54135 0.27965 0.15444 0.0
C298 C 0.56243 0.30479 0.21612 0.0
C299 C 0.54537 0.31799 0.12704 0.0
C300 C 0.53726 0.29678 0.11518 0.0
C301 C 0.55765 0.32231 0.17832 0.0
C302 C 0.55432 0.28366 0.20423 0.0
C303 C 0.53089 0.25795 0.14642 0.0
O304 O 0.51223 0.24894 0.97762 0.0
O305 O 0.48286 0.26076 0.01998 0.0
O306 O 0.50917 0.25754 0.14754 0.0
O307 O 0.53868 0.24609 0.10492 0.0
H308 H 0.4825 0.30205 0.01689 0.0
H309 H 0.48741 0.33808 0.97282 0.0
H310 H 0.52427 0.30954 0.8365 0.0
H311 H 0.51851 0.27329 0.87964 0.0
H312 H 0.4642 0.14068 0.1959 0.0
H313 H 0.46193 0.16604 0.11399 0.0
H314 H 0.52708 0.17062 0.24862 0.0
H315 H 0.5242 0.19643 0.16766 0.0
H316 H 0.57148 0.30755 0.25644 0.0
H317 H 0.54159 0.33107 0.0968 0.0
H318 H 0.52727 0.29386 0.07638 0.0
H319 H 0.55753 0.27059 0.235 0.0
Eu320 Eu 1.00275 0.02391 0.59178 0.0
Eu321 Eu 0.03714 1.00556 0.69057 0.0
C322 C 0.02433 0.05578 0.6873 0.0
C323 C 0.98647 0.0477 0.44988 0.0
C324 C 1.00754 0.05766 0.44601 0.0
C325 C 0.98079 0.05282 0.34658 0.0
C326 C 0.01514 0.06527 0.39335 0.0
C327 C 0.97319 0.04507 0.39977 0.0
C328 C 1.00185 0.06311 0.34296 0.0
C329 C 0.97904 0.03959 0.50619 0.0
O330 O 1.00429 1.00756 0.73397 0.0
O331 O 0.97958 0.00874 0.65709 0.0
C332 C 0.98392 1.00642 0.71273 0.0
O333 O 0.0135 0.99089 0.56177 0.0
O334 O 0.05398 0.01121 0.77369 0.0
O335 O 0.05868 0.98085 0.72891 0.0
O336 O 0.02095 0.97532 0.64951 0.0
C337 C 0.01655 0.97341 0.59394 0.0
O338 O 0.03711 0.03348 0.56137 0.0
O339 O 0.05836 0.00895 0.61224 0.0
O340 O 0.04116 0.04259 0.68972 0.0
O341 O 0.9811 0.01865 0.51559 0.0
O342 O 0.98594 0.05121 0.55036 0.0
O343 O 1.0057 0.04951 0.66139 0.0
C344 C 0.0526 0.97917 0.82854 0.0
C345 C 0.03191 0.96827 0.82479 0.0
C346 C 0.05461 0.97108 0.93117 0.0
C347 C 0.02264 0.95885 0.87361 0.0
C348 C 0.06393 0.98056 0.88196 0.0
C349 C 0.03375 0.96027 0.92753 0.0
C350 C 0.0607 0.99115 0.77793 0.0
C351 C 0.05563 0.02278 0.56898 0.0
H352 H 0.01808 0.05994 0.48405 0.0
H353 H 0.97018 0.0509 0.30849 0.0
H354 H 0.03117 0.0736 0.39271 0.0
H355 H 0.95696 0.03721 0.40185 0.0
H356 H 0.0227 0.96732 0.78409 0.0
H357 H 0.06354 0.97252 0.97214 0.0
H358 H 1.00679 0.95026 0.86888 0.0
H359 H 0.07972 0.98931 0.88577 0.0
Eu360 Eu 0.52748 0.0294 0.68209 0.0
Eu361 Eu 0.50684 0.99281 0.59276 0.0
C362 C 0.52526 0.97771 0.7168 0.0
C363 C 0.56038 0.04393 0.80932 0.0
C364 C 0.56597 0.02189 0.8052 0.0
C365 C 0.57813 0.04523 0.90448 0.0
C366 C 0.57681 0.01137 0.8506 0.0
C367 C 0.5665 0.05564 0.85917 0.0
C368 C 0.5833 0.02283 0.90087 0.0
C369 C 0.54641 0.05317 0.7629 0.0
O370 O 0.48205 0.99669 0.66325 0.0
O371 O 0.49022 0.03258 0.68329 0.0
C372 C 0.47655 0.01548 0.68547 0.0
O373 O 0.52174 0.04948 0.60137 0.0
O374 O 0.47843 0.97826 0.5461 0.0
O375 O 0.51111 0.96545 0.53443 0.0
O376 O 0.49831 0.0254 0.55199 0.0
C377 C 0.50819 0.04478 0.55759 0.0
O378 O 0.55642 0.0129 0.64132 0.0
O379 O 0.53898 1.00513 0.55573 0.0
O380 O 0.5233 0.97228 0.66225 0.0
O381 O 0.5543 0.05172 0.71133 0.0
O382 O 0.52576 0.04656 0.76402 0.0
O383 O 0.52338 0.99806 0.73317 0.0
C384 C 0.48802 0.97036 0.45229 0.0
C385 C 0.50066 0.9872 0.42645 0.0
C386 C 0.46417 0.9686 0.36676 0.0
C387 C 0.49459 0.99524 0.37202 0.0
C388 C 0.47028 0.96054 0.42131 0.0
C389 C 0.47567 0.9867 0.34277 0.0
C390 C 0.49074 0.96622 0.51438 0.0
C391 C 0.5573 0.00876 0.58596 0.0
H392 H 0.56146 0.01254 0.76706 0.0
H393 H 0.5831 0.05476 0.942 0.0
H394 H 0.57968 0.99405 0.84618 0.0
H395 H 0.56218 0.07267 0.86321 0.0
H396 H 0.51432 0.99517 0.44996 0.0
H397 H 0.44934 0.96183 0.34571 0.0
H398 H 0.50386 0.00907 0.35447 0.0
H399 H 0.4602 0.94773 0.44092 0.0
Eu400 Eu 0.49503 0.52428 0.70139 0.0
Eu401 Eu 0.53645 0.50955 0.62327 0.0
C402 C 0.5452 0.52787 0.75339 0.0
C403 C 0.46009 0.54289 0.82509 0.0
C404 C 0.47866 0.55007 0.85786 0.0
C405 C 0.43631 0.55393 0.90157 0.0
C406 C 0.47603 0.55996 0.91113 0.0
C407 C 0.43898 0.54421 0.84793 0.0
C408 C 0.45475 0.56271 0.9328 0.0
C409 C 0.46249 0.53608 0.7652 0.0
O410 O 0.5195 0.47836 0.65443 0.0
O411 O 0.50783 0.4926 0.73843 0.0
C412 C 0.51315 0.47566 0.70774 0.0
O413 O 0.47854 0.50668 0.62587 0.0
O414 O 0.56411 0.48838 0.60688 0.0
O415 O 0.55701 0.51538 0.54878 0.0
O416 O 0.5068 0.50887 0.56174 0.0
C417 C 0.48579 0.50544 0.57313 0.0
O418 O 0.49996 0.55013 0.63231 0.0
O419 O 0.53711 0.54647 0.62537 0.0
O420 O 0.55161 0.51497 0.71221 0.0
O421 O 0.47403 0.54958 0.73333 0.0
O422 O 0.46737 0.51568 0.75692 0.0
O423 O 0.52537 0.53633 0.75237 0.0
C424 C 0.57009 0.48335 0.50838 0.0
C425 C 0.55112 0.4722 0.48675 0.0
C426 C 0.59187 0.46658 0.43526 0.0
C427 C 0.55252 0.45821 0.43984 0.0
C428 C 0.59043 0.48061 0.48229 0.0
C429 C 0.57293 0.45514 0.41368 0.0
C430 C 0.5686 0.49791 0.55789 0.0
C431 C 0.51932 0.55803 0.61696 0.0
H432 H 0.49511 0.54909 0.84085 0.0
H433 H 0.41974 0.55538 0.91742 0.0
H434 H 0.49062 0.56671 0.93331 0.0
H435 H 0.42448 0.53857 0.82325 0.0
H436 H 0.53527 0.47418 0.50654 0.0
H437 H 0.60778 0.4647 0.41578 0.0
H438 H 0.5377 0.44937 0.42502 0.0
H439 H 0.60519 0.48924 0.49841 0.0
Eu440 Eu 0.03136 0.53504 0.59101 0.0
Eu441 Eu 1.0119 0.49687 0.67672 0.0
C442 C 0.06387 0.50681 0.67414 0.0
C443 C 0.07444 0.5688 0.5166 0.0
C444 C 0.09054 0.56597 0.56074 0.0
C445 C 0.10368 0.57334 0.44764 0.0
C446 C 0.11298 0.56635 0.54825 0.0
C447 C 0.08118 0.57295 0.46021 0.0
C448 C 0.11979 0.5695 0.49134 0.0
C449 C 0.05081 0.56507 0.52823 0.0
O450 O 0.01788 0.52711 0.73112 0.0
O451 O 0.01381 0.55303 0.66063 0.0
C452 C 0.01446 0.54747 0.71541 0.0
O453 O 0.99596 0.52959 0.55947 0.0
O454 O 1.01138 0.48151 0.76208 0.0
O455 O 0.99014 0.46863 0.69315 0.0
O456 O 0.98202 0.5152 0.64303 0.0
C457 C 0.97906 0.52377 0.5912 0.0
O458 O 0.04001 0.50303 0.54887 0.0
O459 O 0.01438 0.48019 0.59104 0.0
O460 O 0.04859 0.49116 0.67609 0.0
O461 O 0.04183 0.54716 0.50676 0.0
O462 O 0.04503 0.5682 0.58117 0.0
O463 O 0.05933 0.52628 0.65306 0.0
C464 C 0.97556 0.46986 0.7857 0.0
C465 C 0.95818 0.48368 0.77008 0.0
C466 C 0.95754 0.46116 0.87554 0.0
C467 C 0.94056 0.48611 0.80658 0.0
C468 C 0.97518 0.45858 0.83856 0.0
C469 C 0.94007 0.47495 0.85972 0.0
C470 C 0.99465 0.46849 0.74844 0.0
C471 C 0.02861 0.48438 0.55042 0.0
H472 H 0.08578 0.56273 0.60469 0.0
H473 H 0.10836 0.57554 0.40321 0.0
H474 H 0.12498 0.56359 0.58294 0.0
H475 H 0.06902 0.575 0.42552 0.0
H476 H 0.95837 0.49287 0.72996 0.0
H477 H 0.95752 0.45237 0.91629 0.0
H478 H 0.92756 0.49719 0.79378 0.0
H479 H 0.98862 0.44805 0.85149 0.0
H480 H 0.13008 0.05707 0.26415 0.0
H481 H 0.09541 1.00183 0.56504 0.0
H482 H 0.16914 0.00878 0.35437 0.0
H483 H 0.05678 0.05032 0.47433 0.0
H484 H 0.12329 1.00521 0.49077 0.0
H485 H 0.10377 0.05563 0.34225 0.0
C486 C 0.13316 0.04611 0.30026 0.0
C487 C 0.15194 0.03294 0.30212 0.0
C488 C 0.10875 0.01518 0.48721 0.0
C489 C 0.12173 0.03137 0.39267 0.0
C490 C 0.09279 0.01331 0.5298 0.0
C491 C 0.07353 0.02575 0.52617 0.0
C492 C 0.10554 0.02959 0.44029 0.0
C493 C 0.0712 0.04029 0.47912 0.0
C494 C 0.11813 0.04539 0.34514 0.0
C495 C 0.15511 0.01941 0.35096 0.0
N496 N 0.0869 0.04173 0.43814 0.0
N497 N 0.14016 0.01891 0.39395 0.0
H498 H 0.51206 0.16144 0.33948 0.0
H499 H 0.48493 0.03982 0.45504 0.0
H500 H 0.48286 0.10989 0.23357 0.0
H501 H 0.52371 0.08759 0.55336 0.0
H502 H 0.48128 0.06651 0.37665 0.0
H503 H 0.51433 0.13562 0.42041 0.0
C504 C 0.50624 0.14469 0.33296 0.0
C505 C 0.49729 0.13793 0.27918 0.0
C506 C 0.49056 0.07116 0.41539 0.0
C507 C 0.4995 0.10829 0.37249 0.0
C508 C 0.49257 0.05596 0.46047 0.0
C509 C 0.50466 0.06141 0.5112 0.0
C510 C 0.50068 0.09204 0.42072 0.0
C511 C 0.51424 0.0826 0.5152 0.0
C512 C 0.50741 0.12998 0.37945 0.0
C513 C 0.4896 0.11605 0.27415 0.0
N514 N 0.51207 0.09711 0.47059 0.0
N515 N 0.49089 0.10208 0.32006 0.0
H516 H 0.42371 0.48422 0.23556 0.0
H517 H 0.44033 0.50293 0.57595 0.0
H518 H 0.36994 0.49751 0.34772 0.0
H519 H 0.49434 0.49835 0.45914 0.0
H520 H 0.41415 0.49809 0.49446 0.0
H521 H 0.4495 0.48687 0.31808 0.0
C522 C 0.41727 0.48784 0.27741 0.0
C523 C 0.3945 0.49083 0.28421 0.0
C524 C 0.43172 0.49808 0.48669 0.0
C525 C 0.42416 0.49351 0.37972 0.0
C526 C 0.44673 0.50077 0.5333 0.0
C527 C 0.46966 0.50114 0.5246 0.0
C528 C 0.43962 0.49564 0.43077 0.0
C529 C 0.47686 0.49829 0.46812 0.0
C530 C 0.43206 0.4892 0.32471 0.0
C531 C 0.38725 0.4949 0.34014 0.0
N532 N 0.46193 0.4957 0.42351 0.0
N533 N 0.40201 0.49616 0.38557 0.0
H534 H 0.01567 0.36716 0.3421 0.0
H535 H 0.05379 0.48711 0.45281 0.0
H536 H 0.05635 0.41162 0.24244 0.0
H537 H 1.0098 0.44308 0.54418 0.0
H538 H 0.0568 0.45931 0.37772 0.0
H539 H 0.01516 0.39432 0.41852 0.0
C540 C 0.02447 0.38265 0.33607 0.0
C541 C 0.03592 0.38705 0.28518 0.0
C542 C 0.04655 0.45574 0.41432 0.0
C543 C 0.03558 0.41841 0.37357 0.0
C544 C 0.04484 0.47161 0.45733 0.0
C545 C 0.03147 0.46755 0.50508 0.0
C546 C 0.03485 0.4356 0.41903 0.0
C547 C 0.02026 0.4471 0.5083 0.0
C548 C 0.02426 0.39817 0.38003 0.0
C549 C 0.04742 0.40734 0.28088 0.0
N550 N 0.02219 0.43201 0.46603 0.0
N551 N 0.04687 0.42227 0.32425 0.0
H552 H 0.90997 0.99363 0.0273 0.0
H553 H 0.93901 0.01208 0.69382 0.0
H554 H 0.8626 0.01632 0.89916 0.0
H555 H 0.98689 0.99513 0.82719 0.0
H556 H 0.91 0.01071 0.76594 0.0
H557 H 0.93737 0.991 0.9524 0.0
C558 C 0.90519 0.99786 0.98337 0.0
C559 C 0.88382 1.00528 0.96996 0.0
C560 C 0.92685 1.00718 0.77928 0.0
C561 C 0.91547 1.00255 0.88337 0.0
C562 C 0.94343 1.00787 0.73801 0.0
C563 C 0.96554 1.00384 0.75422 0.0
C564 C 0.93234 1.00231 0.83728 0.0
C565 C 0.97017 0.99853 0.81241 0.0
C566 C 0.92096 0.9965 0.94052 0.0
C567 C 0.8789 0.01083 0.91201 0.0
N568 N 0.95381 0.99799 0.85158 0.0
N569 N 0.89455 0.00939 0.87107 0.0
H570 H 0.55285 0.91109 0.04034 0.0
H571 H 0.52299 0.9326 0.70642 0.0
H572 H 0.52237 0.86129 0.93091 0.0
H573 H 0.53485 0.98393 0.83128 0.0
H574 H 0.52705 0.90532 0.7843 0.0
H575 H 0.5506 0.93712 0.96034 0.0
C576 C 0.54552 0.90559 0.99971 0.0
C577 C 0.53758 0.88388 0.99295 0.0
C578 C 0.52884 0.92258 0.79439 0.0
C579 C 0.5354 0.91373 0.90018 0.0
C580 C 0.52661 0.93816 0.74996 0.0
C581 C 0.52862 0.96065 0.76213 0.0
C582 C 0.53337 0.92955 0.85123 0.0
C583 C 0.53322 0.96684 0.81954 0.0
C584 C 0.54438 0.92049 0.95381 0.0
C585 C 0.52888 0.87773 0.93833 0.0
N586 N 0.53548 0.95143 0.86171 0.0
N587 N 0.52801 0.89257 0.89413 0.0
H588 H 0.60519 0.5655 0.08547 0.0
H589 H 0.58749 0.51346 0.77048 0.0
H590 H 0.65272 0.52508 1.00427 0.0
H591 H 0.53815 0.55174 0.85154 0.0
H592 H 0.61194 0.51884 0.85472 0.0
H593 H 0.58072 0.56155 1.00008 0.0
C594 C 0.6105 0.55572 0.04991 0.0
C595 C 0.63118 0.54564 0.05242 0.0
C596 C 0.5958 0.52613 0.85416 0.0
C597 C 0.6032 0.54125 0.95387 0.0
C598 C 0.58177 0.52309 0.80584 0.0
C599 C 0.5606 0.53212 0.80362 0.0
C600 C 0.58874 0.53829 0.90109 0.0
C601 C 0.55427 0.54445 0.85112 0.0
C602 C 0.59653 0.55359 1.00094 0.0
C603 C 0.63717 0.53347 1.00431 0.0
N604 N 0.56823 0.54712 0.89786 0.0
N605 N 0.62329 0.53161 0.95732 0.0
H606 H 0.01605 0.61623 0.04135 0.0
H607 H 1.00794 0.59187 0.70174 0.0
H608 H 1.00244 0.66626 0.9135 0.0
H609 H 0.01599 0.54193 0.83292 0.0
H610 H 1.00582 0.61941 0.77769 0.0
H611 H 0.01586 0.589 0.96509 0.0
C612 C 1.01278 0.62155 0.99737 0.0
C613 C 1.00916 0.64375 0.98436 0.0
C614 C 1.00798 0.60241 0.78981 0.0
C615 C 1.00936 0.61236 0.89583 0.0
C616 C 1.00918 0.58664 0.74641 0.0
C617 C 1.01219 0.56445 0.76069 0.0
C618 C 1.00988 0.59603 0.84811 0.0
C619 C 0.01369 0.55877 0.81952 0.0
C620 C 1.01284 0.60592 0.9536 0.0
C621 C 1.00557 0.64947 0.92594 0.0
N622 N 1.01259 0.5744 0.86081 0.0
N623 N 1.0058 0.63393 0.88402 0.0
H624 H 0.08185 0.15564 0.18404 0.0
H625 H 0.9774 0.08655 0.26383 0.0
H626 H 0.01737 0.16655 0.10634 0.0
H627 H 0.04364 0.06428 0.29923 0.0
H628 H 0.99191 0.11174 0.19134 0.0
H629 H 0.06931 0.11883 0.21271 0.0
C630 C 0.06521 0.15008 0.17194 0.0
C631 C 0.05051 0.16426 0.14372 0.0
C632 C 1.00325 0.101 0.21398 0.0
C633 C 0.03591 0.1224 0.17704 0.0
C634 C 0.99491 0.08647 0.25524 0.0
C635 C 1.0094 0.07375 0.28893 0.0
C636 C 0.02624 0.10306 0.20715 0.0
C637 C 0.03196 0.07439 0.2757 0.0
C638 C 0.05806 0.12905 0.1881 0.0
C639 C 0.02923 0.15618 0.12828 0.0
N640 N 0.03978 0.08923 0.23689 0.0
N641 N 0.0224 0.13596 0.14632 0.0
H642 H 0.38614 0.07703 0.21038 0.0
H643 H 0.45587 0.97034 0.24339 0.0
H644 H 0.37244 0.01747 0.1153 0.0
H645 H 0.47176 0.03094 0.33153 0.0
H646 H 0.43113 0.99018 0.17753 0.0
H647 H 0.42289 0.06367 0.23638 0.0
C648 C 0.39103 0.06134 0.19407 0.0
C649 C 0.37602 0.04815 0.16171 0.0
C650 C 0.44044 0.99925 0.21043 0.0
C651 C 0.4179 0.03266 0.19162 0.0
C652 C 0.45453 0.9879 0.24805 0.0
C653 C 0.46554 0.99892 0.29371 0.0
C654 C 0.43708 0.02168 0.21924 0.0
C655 C 0.46355 0.02175 0.29711 0.0
C656 C 0.41203 0.05373 0.20873 0.0
C657 C 0.38338 0.02818 0.14058 0.0
N658 N 0.44919 0.03229 0.26124 0.0
N659 N 0.40362 0.02085 0.15692 0.0
H660 H 0.53251 0.35883 0.16539 0.0
H661 H 0.60551 0.42561 0.3967 0.0
H662 H 0.59593 0.33779 0.23224 0.0
H663 H 0.54383 0.44817 0.32245 0.0
H664 H 0.60528 0.3964 0.32552 0.0
H665 H 0.53943 0.39445 0.20992 0.0
C666 C 0.54813 0.36184 0.18831 0.0
C667 C 0.56351 0.34513 0.19585 0.0
C668 C 0.59193 0.4079 0.32429 0.0
C669 C 0.57129 0.38579 0.2483 0.0
C670 C 0.59211 0.42468 0.36479 0.0
C671 C 0.57447 0.43917 0.36615 0.0
C672 C 0.57392 0.40549 0.28508 0.0
C673 C 0.55748 0.43703 0.32392 0.0
C674 C 0.552 0.38217 0.21419 0.0
C675 C 0.58336 0.35 0.22654 0.0
N676 N 0.55749 0.42034 0.28558 0.0
N677 N 0.58653 0.36977 0.25235 0.0
H678 H 0.23531 0.56477 0.28998 0.0
H679 H 0.14821 0.53856 0.53283 0.0
H680 H 0.23421 0.50533 0.39218 0.0
H681 H 0.1448 0.5938 0.41575 0.0
H682 H 0.18493 0.53089 0.49834 0.0
H683 H 0.20827 0.5802 0.35293 0.0
C684 C 0.2299 0.55517 0.32667 0.0
C685 C 0.23679 0.53355 0.33522 0.0
C686 C 0.17631 0.54488 0.48079 0.0
C687 C 0.20529 0.55097 0.40655 0.0
C688 C 0.15536 0.54938 0.50071 0.0
C689 C 0.14327 0.56671 0.47658 0.0
C690 C 0.18522 0.55775 0.43627 0.0
C691 C 0.15334 0.58 0.43466 0.0
C692 C 0.21424 0.56394 0.36228 0.0
C693 C 0.22897 0.52188 0.38324 0.0
N694 N 0.17363 0.57509 0.41537 0.0
N695 N 0.21335 0.5306 0.41655 0.0
H696 H 1.01121 0.8615 0.1798 0.0
H697 H 0.9902 0.95915 0.95813 0.0
H698 H 0.94966 0.871 0.08526 0.0
H699 H 0.0546 0.93675 0.01346 0.0
H700 H 0.9733 0.93512 0.03028 0.0
H701 H 0.0245 0.89739 0.14658 0.0
C702 C 1.00017 0.87144 0.15363 0.0
C703 C 0.97944 0.86307 0.13423 0.0
C704 C 0.99116 0.93581 0.0273 0.0
C705 C 0.99478 0.90393 0.09528 0.0
C706 C 1.00082 0.9494 0.98593 0.0
C707 C 0.02382 0.94947 0.97858 0.0
C708 C 1.00459 0.92226 0.0617 0.0
C709 C 0.03681 0.9371 0.01718 0.0
C710 C 1.00788 0.89185 0.13427 0.0
C711 C 0.96594 0.87666 0.10011 0.0
N712 N 0.02697 0.9237 0.05646 0.0
N713 N 0.974 0.89629 0.08083 0.0
H714 H 0.67239 0.99627 0.1784 0.0
H715 H 0.61206 0.98896 0.89137 0.0
H716 H 0.66204 0.93347 0.09601 0.0
H717 H 0.58336 0.03016 0.01894 0.0
H718 H 0.63121 0.96938 0.96762 0.0
H719 H 0.63938 0.00949 0.12802 0.0
C720 C 0.66277 0.98491 0.15157 0.0
C721 C 0.67051 0.96388 0.1399 0.0
C722 C 0.62041 0.98246 0.97902 0.0
C723 C 0.63318 0.97931 0.08097 0.0
C724 C 0.60931 0.99374 0.93534 0.0
C725 C 0.5956 0.01122 0.94818 0.0
C726 C 0.61863 0.98908 0.03624 0.0
C727 C 0.59389 0.01705 1.00649 0.0
C728 C 0.64395 0.9926 0.12251 0.0
C729 C 0.6572 0.95006 0.10456 0.0
N730 N 0.60559 1.00623 0.04841 0.0
N731 N 0.63959 0.95825 0.0748 0.0
H732 H 0.49724 0.66116 0.16391 0.0
H733 H 0.4219 0.59208 0.94825 0.0
H734 H 0.43381 0.68205 0.0969 0.0
H735 H 0.48108 0.56723 0.03129 0.0
H736 H 0.42194 0.62146 0.01804 0.0
H737 H 0.48799 0.62395 0.13232 0.0
C738 C 0.48112 0.65784 0.14386 0.0
C739 C 0.46647 0.67487 0.13187 0.0
C740 C 0.43472 0.60938 0.02179 0.0
C741 C 0.45598 0.63235 0.09439 0.0
C742 C 0.43461 0.59237 0.98206 0.0
C743 C 0.45182 0.57733 0.98287 0.0
C744 C 0.45235 0.61163 0.06214 0.0
C745 C 0.46788 0.57885 0.02774 0.0
C746 C 0.47589 0.63656 0.12549 0.0
C747 C 0.44587 0.66954 0.10551 0.0
N748 N 0.46803 0.59598 0.06481 0.0
N749 N 0.44141 0.64884 0.08673 0.0
H750 H 0.85861 0.51345 0.14226 0.0
H751 H 0.89608 0.47516 0.8314 0.0
H752 H 0.81739 0.51463 0.98745 0.0
H753 H 0.94196 0.48278 0.97608 0.0
H754 H 0.86602 0.48532 0.89269 0.0
H755 H 0.88859 0.49848 0.08628 0.0
C756 C 0.8559 0.51055 0.09659 0.0
C757 C 0.83564 0.51554 0.06921 0.0
C758 C 0.88262 0.48468 0.91129 0.0
C759 C 0.86954 0.49834 1.00542 0.0
C760 C 0.89977 0.47888 0.87627 0.0
C761 C 0.92153 0.4784 0.89859 0.0
C762 C 0.88721 0.49011 0.96915 0.0
C763 C 0.92537 0.48294 0.95729 0.0
C764 C 0.87296 0.50205 0.06474 0.0
C765 C 0.83291 0.51146 1.01003 0.0
N766 N 0.90836 0.48882 0.99057 0.0
N767 N 0.84964 0.50313 0.98021 0.0
H768 H 0.99562 0.18531 0.81263 0.0
H769 H 0.05874 0.07377 0.75354 0.0
H770 H 0.05909 0.17062 0.89146 0.0
H771 H 0.99333 0.08781 0.68612 0.0
H772 H 0.06002 0.10944 0.80181 0.0
H773 H 0.9952 0.14997 0.7644 0.0
C774 C 1.00943 0.17463 0.82028 0.0
C775 C 0.02737 0.1811 0.85672 0.0
C776 C 0.04541 0.10471 0.77636 0.0
C777 C 0.02714 0.14036 0.80025 0.0
C778 C 0.04468 0.08434 0.74862 0.0
C779 C 0.02589 0.07766 0.71555 0.0
C780 C 0.02725 0.11861 0.77097 0.0
C781 C 1.00818 0.09213 0.71107 0.0
C782 C 1.00925 0.15442 0.79226 0.0
C783 C 0.04499 0.16656 0.86347 0.0
N784 N 1.0093 0.1118 0.73835 0.0
N785 N 0.04442 0.14693 0.83565 0.0
H786 H 0.35395 0.05707 0.83682 0.0
H787 H 0.44947 0.98176 0.7222 0.0
H788 H 0.36175 0.9896 0.8898 0.0
H789 H 0.45495 0.05239 0.71924 0.0
H790 H 0.41507 0.9841 0.77457 0.0
H791 H 0.38885 0.05555 0.7863 0.0
C792 C 0.36295 0.04196 0.83844 0.0
C793 C 0.35452 0.02341 0.86796 0.0
C794 C 0.42377 0.9991 0.76248 0.0
C795 C 0.39455 0.0215 0.80835 0.0
C796 C 0.44341 0.9978 0.73224 0.0
C797 C 0.45523 0.01692 0.71606 0.0
C798 C 0.41554 0.01969 0.77622 0.0
C799 C 0.44649 0.03721 0.73083 0.0
C800 C 0.38289 0.04111 0.8091 0.0
C801 C 0.36704 1.00425 0.86693 0.0
N802 N 0.42716 0.03806 0.75972 0.0
N803 N 0.38623 1.00378 0.83751 0.0
H804 H 0.51209 0.36734 0.95193 0.0
H805 H 0.51761 0.43563 0.65585 0.0
H806 H 0.50533 0.33705 0.78457 0.0
H807 H 0.50759 0.46502 0.82136 0.0
H808 H 0.51672 0.39936 0.70225 0.0
H809 H 0.51399 0.40323 0.90482 0.0
C810 C 0.51091 0.36815 0.90532 0.0
C811 C 0.50841 0.34895 0.87243 0.0
C812 C 0.5147 0.41376 0.72833 0.0
C813 C 0.51099 0.39026 0.81795 0.0
C814 C 0.51524 0.43449 0.70188 0.0
C815 C 0.5126 0.45346 0.73464 0.0
C816 C 0.51174 0.41197 0.78809 0.0
C817 C 0.50959 0.45091 0.7942 0.0
C818 C 0.51211 0.38871 0.8784 0.0
C819 C 0.50754 0.35124 0.81197 0.0
N820 N 0.50931 0.43062 0.81893 0.0
N821 N 0.50881 0.37146 0.78678 0.0
H822 H 0.17666 0.45939 0.87493 0.0
H823 H 0.1013 0.5328 0.66408 0.0
H824 H 0.202 0.51463 0.77751 0.0
H825 H 0.07819 0.47182 0.73953 0.0
H826 H 0.13799 0.52684 0.70703 0.0
H827 H 0.14024 0.46421 0.82835 0.0
C828 C 0.17457 0.47258 0.84387 0.0
C829 C 0.1925 0.48663 0.83025 0.0
C830 C 0.12494 0.51471 0.7141 0.0
C831 C 0.15074 0.4922 0.77646 0.0
C832 C 0.10391 0.51812 0.68959 0.0
C833 C 0.08651 0.50283 0.6982 0.0
C834 C 0.12869 0.49593 0.74809 0.0
C835 C 0.09105 0.48406 0.73157 0.0
C836 C 0.15379 0.47523 0.81701 0.0
C837 C 0.18879 0.50324 0.789 0.0
N838 N 0.11162 0.48121 0.75552 0.0
N839 N 0.16837 0.50562 0.76387 0.0
H840 H 1.00361 0.86821 0.34384 0.0
H841 H 0.02615 0.93288 0.64141 0.0
H842 H 0.02965 0.83739 0.49858 0.0
H843 H 1.00535 0.96374 0.48159 0.0
H844 H 0.02596 0.89746 0.59184 0.0
H845 H 1.00288 0.90297 0.39511 0.0
C846 C 1.00929 0.86869 0.38849 0.0
C847 C 0.01676 0.84964 0.41658 0.0
C848 C 0.0214 0.91199 0.5677 0.0
C849 C 0.01568 0.8897 0.47626 0.0
C850 C 0.02145 0.93225 0.59606 0.0
C851 C 0.01579 0.95145 0.56581 0.0
C852 C 0.01557 0.91084 0.5086 0.0
C853 C 1.0099 0.94949 0.50692 0.0
C854 C 1.00874 0.88861 0.41795 0.0
C855 C 0.02348 0.85144 0.47504 0.0
N856 N 1.00996 0.92966 0.48045 0.0
N857 N 0.0228 0.87103 0.50277 0.0
H858 H 0.66055 0.99616 0.33462 0.0
H859 H 0.59892 0.02054 0.62928 0.0
H860 H 0.69244 0.02942 0.47922 0.0
H861 H 0.56523 0.99705 0.47456 0.0
H862 H 0.63387 0.02152 0.57781 0.0
H863 H 0.62613 0.99429 0.38744 0.0
C864 C 0.6604 1.00319 0.37729 0.0
C865 C 0.67969 0.01303 0.40204 0.0
C866 C 0.61883 0.01611 0.55517 0.0
C867 C 0.64001 0.01057 0.46364 0.0
C868 C 0.59884 0.01549 0.58464 0.0
C869 C 0.57897 0.00872 0.5564 0.0
C870 C 0.6191 0.0098 0.49698 0.0
C871 C 0.58002 1.00243 0.49832 0.0
C872 C 0.64067 1.00198 0.40767 0.0
C873 C 0.67827 0.02137 0.45828 0.0
N874 N 0.59965 1.00311 0.47073 0.0
N875 N 0.65888 0.01996 0.48697 0.0
H876 H 0.56108 0.66785 0.40297 0.0
H877 H 0.487 0.58849 0.60079 0.0
H878 H 0.49763 0.68585 0.46594 0.0
H879 H 0.55527 0.57676 0.56406 0.0
H880 H 0.48971 0.62328 0.54782 0.0
H881 H 0.55821 0.63334 0.45686 0.0
C882 C 0.54645 0.66449 0.42779 0.0
C883 C 0.52955 0.67981 0.42975 0.0
C884 C 0.50412 0.61313 0.55154 0.0
C885 C 0.52623 0.64027 0.49216 0.0
C886 C 0.50259 0.59324 0.58179 0.0
C887 C 0.52094 0.57962 0.58704 0.0
C888 C 0.52409 0.61944 0.5258 0.0
C889 C 0.5407 0.5867 0.56139 0.0
C890 C 0.54491 0.64483 0.45895 0.0
C891 C 0.51115 0.67464 0.46351 0.0
N892 N 0.54171 0.60602 0.53174 0.0
N893 N 0.50995 0.65531 0.49317 0.0
H894 H 0.86259 0.55466 0.37845 0.0
H895 H 0.93976 0.51213 0.6415 0.0
H896 H 0.83775 0.51984 0.52688 0.0
H897 H 0.96567 0.54193 0.48722 0.0
H898 H 0.90228 0.516 0.6013 0.0
H899 H 0.9003 0.55089 0.41788 0.0
C900 C 0.86499 0.5461 0.4191 0.0
C901 C 0.84675 0.53763 0.44927 0.0
C902 C 0.91614 0.52173 0.57619 0.0
C903 C 0.89012 0.53352 0.49524 0.0
C904 C 0.93763 0.51956 0.59924 0.0
C905 C 0.95606 0.5267 0.56785 0.0
C906 C 0.91287 0.53116 0.52122 0.0
C907 C 0.95206 0.53617 0.51315 0.0
C908 C 0.88658 0.54408 0.44181 0.0
C909 C 0.8511 0.527 0.50232 0.0
N910 N 0.93097 0.53811 0.49167 0.0
N911 N 0.87223 0.52529 0.52348 0.0
loop_
_geom_bond_atom_site_label_1
_geom_bond_atom_site_label_2
_geom_bond_distance
_geom_bond_site_symmetry_2
_ccdc_geom_bond_type
C0 C1 1.264 . S
C0 C5 1.479 . S
C0 C10 1.465 . S
C1 C0 1.264 . S
C1 C3 1.339 . S
C1 H28 0.931 . S
C2 C3 1.395 . S
C2 C4 1.320 . S
C3 C1 1.339 . S
C3 C2 1.395 . S
C3 H29 0.929 . S
C4 C2 1.320 . S
C4 C5 1.405 . S
C4 H30 0.930 . S
C5 C0 1.479 . S
C5 C4 1.405 . S
C5 H31 0.931 . S
U6 O7 2.454 . S
U6 O8 2.458 . S
U6 C9 2.984 . S
U6 C10 2.847 . S
U6 C23 2.882 . S
U6 O24 2.441 . S
U6 O25 2.420 . S
U6 O26 2.455 . S
U6 O27 2.449 . S
O7 U6 2.454 . S
O7 C9 1.353 . S
O8 U6 2.458 . S
O8 C9 1.286 . S
C9 U6 2.984 . S
C9 O7 1.353 . S
C9 O8 1.286 . S
C9 C11 1.363 . S
C10 C0 1.465 . S
C10 U6 2.847 . S
C10 O24 1.249 . S
C10 O25 1.202 . S
C11 C9 1.363 . S
C11 C13 1.408 . S
C11 C16 1.342 . S
C12 C13 1.310 . S
C12 C15 1.461 . S
C12 H32 0.932 . S
C13 C11 1.408 . S
C13 C12 1.310 . S
C13 H33 0.930 . S
C14 C15 1.474 . S
C14 C16 1.285 . S
C14 H34 0.929 . S
C15 C12 1.461 . S
C15 C14 1.474 . S
C16 C11 1.342 . S
C16 C14 1.285 . S
C16 H35 0.930 . S
C17 C20 1.424 . S
C17 C22 1.245 . S
C17 C23 1.428 . S
C18 C21 1.260 . S
C18 C22 1.477 1_556 S
C18 H36 0.932 . S
C19 C20 1.384 . S
C19 C21 1.479 1_554 S
C19 H37 0.929 . S
C20 C17 1.424 . S
C20 C19 1.384 . S
C20 H38 0.928 . S
C21 C18 1.260 . S
C21 C19 1.479 1_556 S
C22 C17 1.245 . S
C22 C18 1.477 1_554 S
C22 H39 0.932 1_554 S
C23 U6 2.882 . S
C23 C17 1.428 . S
C23 O26 1.301 . S
C23 O27 1.282 . S
O24 U6 2.441 . S
O24 C10 1.249 . S
O25 U6 2.420 . S
O25 C10 1.202 . S
O26 U6 2.455 . S
O26 C23 1.301 . S
O27 U6 2.449 . S
O27 C23 1.282 . S
H28 C1 0.931 . S
H29 C3 0.929 . S
H30 C4 0.930 . S
H31 C5 0.931 . S
H32 C12 0.932 . S
H33 C13 0.930 . S
H34 C14 0.929 . S
H35 C16 0.930 . S
H36 C18 0.932 . S
H37 C19 0.929 . S
H38 C20 0.928 . S
H39 C22 0.932 1_556 S
C40 C41 1.264 . S
C40 C45 1.479 . S
C40 C50 1.465 . S
C41 C40 1.264 . S
C41 C43 1.339 . S
C41 H68 0.931 . S
C42 C43 1.395 . S
C42 C44 1.320 . S
C43 C41 1.339 . S
C43 C42 1.395 . S
C43 H69 0.929 . S
C44 C42 1.320 . S
C44 C45 1.405 . S
C44 H70 0.930 . S
C45 C40 1.479 . S
C45 C44 1.405 . S
C45 H71 0.931 . S
U46 O47 2.454 . S
U46 O48 2.458 . S
U46 C49 2.984 . S
U46 C50 2.847 . S
U46 C63 2.882 . S
U46 O64 2.441 . S
U46 O65 2.420 . S
U46 O66 2.455 . S
U46 O67 2.449 . S
O47 U46 2.454 . S
O47 C49 1.353 . S
O48 U46 2.458 . S
O48 C49 1.286 . S
C49 U46 2.984 . S
C49 O47 1.353 . S
C49 O48 1.286 . S
C49 C51 1.363 . S
C50 C40 1.465 . S
C50 U46 2.847 . S
C50 O64 1.249 . S
C50 O65 1.202 . S
C51 C49 1.363 . S
C51 C53 1.408 . S
C51 C56 1.342 . S
C52 C53 1.310 . S
C52 C55 1.461 . S
C52 H72 0.932 . S
C53 C51 1.408 . S
C53 C52 1.310 . S
C53 H73 0.930 . S
C54 C55 1.474 . S
C54 C56 1.285 . S
C54 H74 0.929 . S
C55 C52 1.461 . S
C55 C54 1.474 . S
C56 C51 1.342 . S
C56 C54 1.285 . S
C56 H75 0.930 . S
C57 C60 1.424 . S
C57 C62 1.245 . S
C57 C63 1.428 . S
C58 C61 1.260 . S
C58 C62 1.477 . S
C58 H76 0.932 1_554 S
C59 C60 1.384 . S
C59 C61 1.479 . S
C59 H77 0.929 . S
C60 C57 1.424 . S
C60 C59 1.384 . S
C60 H78 0.928 . S
C61 C58 1.260 . S
C61 C59 1.479 . S
C62 C57 1.245 . S
C62 C58 1.477 . S
C62 H79 0.932 . S
C63 U46 2.882 . S
C63 C57 1.428 . S
C63 O66 1.301 . S
C63 O67 1.282 . S
O64 U46 2.441 . S
O64 C50 1.249 . S
O65 U46 2.420 . S
O65 C50 1.202 . S
O66 U46 2.455 . S
O66 C63 1.301 . S
O67 U46 2.449 . S
O67 C63 1.282 . S
H68 C41 0.931 . S
H69 C43 0.929 . S
H70 C44 0.930 . S
H71 C45 0.931 . S
H72 C52 0.932 . S
H73 C53 0.930 . S
H74 C54 0.929 . S
H75 C56 0.930 . S
H76 C58 0.932 1_556 S
H77 C59 0.929 . S
H78 C60 0.928 . S
H79 C62 0.932 . S
C80 C81 1.264 . S
C80 C85 1.479 . S
C80 C90 1.465 . S
C81 C80 1.264 . S
C81 C83 1.339 . S
C81 H108 0.931 . S
C82 C83 1.395 . S
C82 C84 1.320 . S
C83 C81 1.339 . S
C83 C82 1.395 . S
C83 H109 0.929 . S
C84 C82 1.320 . S
C84 C85 1.405 . S
C84 H110 0.930 . S
C85 C80 1.479 . S
C85 C84 1.405 . S
C85 H111 0.931 . S
U86 O87 2.454 . S
U86 O88 2.458 . S
U86 C89 2.984 . S
U86 C90 2.847 . S
U86 C103 2.882 . S
U86 O104 2.441 . S
U86 O105 2.420 . S
U86 O106 2.455 . S
U86 O107 2.449 . S
O87 U86 2.454 . S
O87 C89 1.353 . S
O88 U86 2.458 . S
O88 C89 1.286 . S
C89 U86 2.984 . S
C89 O87 1.353 . S
C89 O88 1.286 . S
C89 C91 1.363 . S
C90 C80 1.465 . S
C90 U86 2.847 . S
C90 O104 1.249 . S
C90 O105 1.202 . S
C91 C89 1.363 . S
C91 C93 1.408 . S
C91 C96 1.342 . S
C92 C93 1.310 . S
C92 C95 1.461 . S
C92 H112 0.932 . S
C93 C91 1.408 . S
C93 C92 1.310 . S
C93 H113 0.930 . S
C94 C95 1.474 . S
C94 C96 1.285 . S
C94 H114 0.929 . S
C95 C92 1.461 . S
C95 C94 1.474 . S
C96 C91 1.342 . S
C96 C94 1.285 . S
C96 H115 0.930 . S
C97 C100 1.424 . S
C97 C102 1.245 . S
C97 C103 1.428 . S
C98 C101 1.260 . S
C98 C102 1.477 . S
C98 H116 0.932 1_554 S
C99 C100 1.384 . S
C99 C101 1.479 . S
C99 H117 0.929 . S
C100 C97 1.424 . S
C100 C99 1.384 . S
C100 H118 0.928 . S
C101 C98 1.260 . S
C101 C99 1.479 . S
C102 C97 1.245 . S
C102 C98 1.477 . S
C102 H119 0.932 . S
C103 U86 2.882 . S
C103 C97 1.428 . S
C103 O106 1.301 . S
C103 O107 1.282 . S
O104 U86 2.441 . S
O104 C90 1.249 . S
O105 U86 2.420 . S
O105 C90 1.202 . S
O106 U86 2.455 . S
O106 C103 1.301 . S
O107 U86 2.449 . S
O107 C103 1.282 . S
H108 C81 0.931 . S
H109 C83 0.929 . S
H110 C84 0.930 . S
H111 C85 0.931 . S
H112 C92 0.932 . S
H113 C93 0.930 . S
H114 C94 0.929 . S
H115 C96 0.930 . S
H116 C98 0.932 1_556 S
H117 C99 0.929 . S
H118 C100 0.928 . S
H119 C102 0.932 . S
C120 C121 1.264 . S
C120 C125 1.479 . S
C120 C130 1.465 . S
C121 C120 1.264 . S
C121 C123 1.339 . S
C121 H148 0.931 . S
C122 C123 1.395 . S
C122 C124 1.320 . S
C123 C121 1.339 . S
C123 C122 1.395 . S
C123 H149 0.929 . S
C124 C122 1.320 . S
C124 C125 1.405 . S
C124 H150 0.930 . S
C125 C120 1.479 . S
C125 C124 1.405 . S
C125 H151 0.931 . S
U126 O127 2.454 . S
U126 O128 2.458 . S
U126 C129 2.984 . S
U126 C130 2.847 . S
U126 C143 2.882 . S
U126 O144 2.441 . S
U126 O145 2.420 . S
U126 O146 2.455 . S
U126 O147 2.449 . S
O127 U126 2.454 . S
O127 C129 1.353 . S
O128 U126 2.458 . S
O128 C129 1.286 . S
C129 U126 2.984 . S
C129 O127 1.353 . S
C129 O128 1.286 . S
C129 C131 1.363 . S
C130 C120 1.465 . S
C130 U126 2.847 . S
C130 O144 1.249 . S
C130 O145 1.202 . S
C131 C129 1.363 . S
C131 C133 1.408 . S
C131 C136 1.342 . S
C132 C133 1.310 . S
C132 C135 1.461 . S
C132 H152 0.932 . S
C133 C131 1.408 . S
C133 C132 1.310 . S
C133 H153 0.930 . S
C134 C135 1.474 . S
C134 C136 1.285 . S
C134 H154 0.929 . S
C135 C132 1.461 . S
C135 C134 1.474 . S
C136 C131 1.342 . S
C136 C134 1.285 . S
C136 H155 0.930 . S
C137 C140 1.424 . S
C137 C142 1.245 . S
C137 C143 1.428 . S
C138 C141 1.260 . S
C138 C142 1.477 1_556 S
C138 H156 0.932 . S
C139 C140 1.384 . S
C139 C141 1.479 1_554 S
C139 H157 0.929 . S
C140 C137 1.424 . S
C140 C139 1.384 . S
C140 H158 0.928 . S
C141 C138 1.260 . S
C141 C139 1.479 1_556 S
C142 C137 1.245 . S
C142 C138 1.477 1_554 S
C142 H159 0.932 . S
C143 U126 2.882 . S
C143 C137 1.428 . S
C143 O146 1.301 . S
C143 O147 1.282 . S
O144 U126 2.441 . S
O144 C130 1.249 . S
O145 U126 2.420 . S
O145 C130 1.202 . S
O146 U126 2.455 . S
O146 C143 1.301 . S
O147 U126 2.449 . S
O147 C143 1.282 . S
H148 C121 0.931 . S
H149 C123 0.929 . S
H150 C124 0.930 . S
H151 C125 0.931 . S
H152 C132 0.932 . S
H153 C133 0.930 . S
H154 C134 0.929 . S
H155 C136 0.930 . S
H156 C138 0.932 . S
H157 C139 0.929 . S
H158 C140 0.928 . S
H159 C142 0.932 . S
C160 C161 1.264 . S
C160 C165 1.479 . S
C160 C170 1.465 . S
C161 C160 1.264 . S
C161 C163 1.339 . S
C161 H188 0.931 . S
C162 C163 1.395 . S
C162 C164 1.320 . S
C163 C161 1.339 . S
C163 C162 1.395 . S
C163 H189 0.929 . S
C164 C162 1.320 . S
C164 C165 1.405 . S
C164 H190 0.930 . S
C165 C160 1.479 . S
C165 C164 1.405 . S
C165 H191 0.931 . S
U166 O167 2.454 . S
U166 O168 2.458 . S
U166 C169 2.984 . S
U166 C170 2.847 1_554 S
U166 C183 2.882 . S
U166 O184 2.441 1_554 S
U166 O185 2.421 . S
U166 O186 2.455 . S
U166 O187 2.449 . S
O167 U166 2.454 . S
O167 C169 1.353 . S
O168 U166 2.458 . S
O168 C169 1.286 . S
C169 U166 2.984 . S
C169 O167 1.353 . S
C169 O168 1.286 . S
C169 C171 1.363 . S
C170 C160 1.465 . S
C170 U166 2.847 1_556 S
C170 O184 1.249 . S
C170 O185 1.201 1_556 S
C171 C169 1.363 . S
C171 C173 1.408 . S
C171 C176 1.342 . S
C172 C173 1.310 . S
C172 C175 1.461 . S
C172 H192 0.932 . S
C173 C171 1.408 . S
C173 C172 1.310 . S
C173 H193 0.930 . S
C174 C175 1.474 . S
C174 C176 1.285 . S
C174 H194 0.929 . S
C175 C172 1.461 . S
C175 C174 1.474 . S
C176 C171 1.342 . S
C176 C174 1.285 . S
C176 H195 0.930 . S
C177 C180 1.424 . S
C177 C182 1.245 . S
C177 C183 1.428 . S
C178 C181 1.260 . S
C178 C182 1.477 . S
C178 H196 0.932 . S
C179 C180 1.384 . S
C179 C181 1.479 . S
C179 H197 0.929 . S
C180 C177 1.424 . S
C180 C179 1.384 . S
C180 H198 0.928 . S
C181 C178 1.260 . S
C181 C179 1.479 . S
C182 C177 1.245 . S
C182 C178 1.477 . S
C182 H199 0.932 . S
C183 U166 2.882 . S
C183 C177 1.428 . S
C183 O186 1.301 . S
C183 O187 1.282 . S
O184 U166 2.441 1_556 S
O184 C170 1.249 . S
O185 U166 2.421 . S
O185 C170 1.201 1_554 S
O186 U166 2.455 . S
O186 C183 1.301 . S
O187 U166 2.449 . S
O187 C183 1.282 . S
H188 C161 0.931 . S
H189 C163 0.929 . S
H190 C164 0.930 . S
H191 C165 0.931 . S
H192 C172 0.932 . S
H193 C173 0.930 . S
H194 C174 0.929 . S
H195 C176 0.930 . S
H196 C178 0.932 . S
H197 C179 0.929 . S
H198 C180 0.928 . S
H199 C182 0.932 . S
C200 C201 1.264 . S
C200 C205 1.479 . S
C200 C210 1.465 . S
C201 C200 1.264 . S
C201 C203 1.339 . S
C201 H228 0.931 . S
C202 C203 1.395 . S
C202 C204 1.320 . S
C203 C201 1.339 . S
C203 C202 1.395 . S
C203 H229 0.929 . S
C204 C202 1.320 . S
C204 C205 1.405 . S
C204 H230 0.930 . S
C205 C200 1.479 . S
C205 C204 1.405 . S
C205 H231 0.931 . S
U206 O207 2.454 . S
U206 O208 2.458 . S
U206 C209 2.984 . S
U206 C210 2.847 1_554 S
U206 C223 2.882 . S
U206 O224 2.441 1_554 S
U206 O225 2.420 1_554 S
U206 O226 2.455 . S
U206 O227 2.449 . S
O207 U206 2.454 . S
O207 C209 1.353 . S
O208 U206 2.458 . S
O208 C209 1.286 . S
C209 U206 2.984 . S
C209 O207 1.353 . S
C209 O208 1.286 . S
C209 C211 1.363 . S
C210 C200 1.465 . S
C210 U206 2.847 1_556 S
C210 O224 1.249 . S
C210 O225 1.202 . S
C211 C209 1.363 . S
C211 C213 1.408 . S
C211 C216 1.342 . S
C212 C213 1.310 . S
C212 C215 1.461 . S
C212 H232 0.932 . S
C213 C211 1.408 . S
C213 C212 1.310 . S
C213 H233 0.930 1_554 S
C214 C215 1.474 . S
C214 C216 1.285 . S
C214 H234 0.929 . S
C215 C212 1.461 . S
C215 C214 1.474 . S
C216 C211 1.342 . S
C216 C214 1.285 . S
C216 H235 0.930 . S
C217 C220 1.424 . S
C217 C222 1.245 . S
C217 C223 1.428 . S
C218 C221 1.260 . S
C218 C222 1.477 . S
C218 H236 0.932 . S
C219 C220 1.384 . S
C219 C221 1.479 . S
C219 H237 0.929 . S
C220 C217 1.424 . S
C220 C219 1.384 . S
C220 H238 0.928 . S
C221 C218 1.260 . S
C221 C219 1.479 . S
C222 C217 1.245 . S
C222 C218 1.477 . S
C222 H239 0.932 . S
C223 U206 2.882 . S
C223 C217 1.428 . S
C223 O226 1.301 . S
C223 O227 1.282 . S
O224 U206 2.441 1_556 S
O224 C210 1.249 . S
O225 U206 2.420 1_556 S
O225 C210 1.202 . S
O226 U206 2.455 . S
O226 C223 1.301 . S
O227 U206 2.449 . S
O227 C223 1.282 . S
H228 C201 0.931 . S
H229 C203 0.929 . S
H230 C204 0.930 . S
H231 C205 0.931 . S
H232 C212 0.932 . S
H233 C213 0.930 1_556 S
H234 C214 0.929 . S
H235 C216 0.930 . S
H236 C218 0.932 . S
H237 C219 0.929 . S
H238 C220 0.928 . S
H239 C222 0.932 . S
C240 C241 1.264 . S
C240 C245 1.479 . S
C240 C250 1.465 . S
C241 C240 1.264 . S
C241 C243 1.339 . S
C241 H268 0.931 . S
C242 C243 1.395 . S
C242 C244 1.320 . S
C243 C241 1.339 . S
C243 C242 1.395 . S
C243 H269 0.929 . S
C244 C242 1.320 . S
C244 C245 1.405 . S
C244 H270 0.930 . S
C245 C240 1.479 . S
C245 C244 1.405 . S
C245 H271 0.931 . S
U246 O247 2.454 1_554 S
U246 O248 2.458 . S
U246 C249 2.984 . S
U246 C250 2.847 1_554 S
U246 C263 2.882 . S
U246 O264 2.441 1_554 S
U246 O265 2.420 1_554 S
U246 O266 2.455 . S
U246 O267 2.449 . S
O247 U246 2.454 1_556 S
O247 C249 1.353 1_556 S
O248 U246 2.458 . S
O248 C249 1.286 . S
C249 U246 2.984 . S
C249 O247 1.353 1_554 S
C249 O248 1.286 . S
C249 C251 1.363 . S
C250 C240 1.465 . S
C250 U246 2.847 1_556 S
C250 O264 1.249 . S
C250 O265 1.202 . S
C251 C249 1.363 . S
C251 C253 1.408 . S
C251 C256 1.342 . S
C252 C253 1.310 . S
C252 C255 1.461 . S
C252 H272 0.932 1_554 S
C253 C251 1.408 . S
C253 C252 1.310 . S
C253 H273 0.930 1_554 S
C254 C255 1.474 . S
C254 C256 1.285 . S
C254 H274 0.929 . S
C255 C252 1.461 . S
C255 C254 1.474 . S
C256 C251 1.342 . S
C256 C254 1.285 . S
C256 H275 0.930 . S
C257 C260 1.424 . S
C257 C262 1.245 . S
C257 C263 1.428 . S
C258 C261 1.260 . S
C258 C262 1.477 . S
C258 H276 0.932 . S
C259 C260 1.384 . S
C259 C261 1.479 . S
C259 H277 0.929 . S
C260 C257 1.424 . S
C260 C259 1.384 . S
C260 H278 0.928 . S
C261 C258 1.260 . S
C261 C259 1.479 . S
C262 C257 1.245 . S
C262 C258 1.477 . S
C262 H279 0.932 . S
C263 U246 2.882 . S
C263 C257 1.428 . S
C263 O266 1.301 . S
C263 O267 1.282 . S
O264 U246 2.441 1_556 S
O264 C250 1.249 . S
O265 U246 2.420 1_556 S
O265 C250 1.202 . S
O266 U246 2.455 . S
O266 C263 1.301 . S
O267 U246 2.449 . S
O267 C263 1.282 . S
H268 C241 0.931 . S
H269 C243 0.929 . S
H270 C244 0.930 . S
H271 C245 0.931 . S
H272 C252 0.932 1_556 S
H273 C253 0.930 1_556 S
H274 C254 0.929 . S
H275 C256 0.930 . S
H276 C258 0.932 . S
H277 C259 0.929 . S
H278 C260 0.928 . S
H279 C262 0.932 . S
C280 C281 1.264 . S
C280 C285 1.479 . S
C280 C290 1.465 . S
C281 C280 1.264 . S
C281 C283 1.339 . S
C281 H308 0.931 . S
C282 C283 1.395 . S
C282 C284 1.320 . S
C283 C281 1.339 . S
C283 C282 1.395 . S
C283 H309 0.929 . S
C284 C282 1.320 . S
C284 C285 1.405 . S
C284 H310 0.930 . S
C285 C280 1.479 . S
C285 C284 1.405 . S
C285 H311 0.931 . S
U286 O287 2.454 . S
U286 O288 2.458 . S
U286 C289 2.984 . S
U286 C290 2.847 1_554 S
U286 C303 2.882 . S
U286 O304 2.441 1_554 S
U286 O305 2.420 1_554 S
U286 O306 2.455 . S
U286 O307 2.449 . S
O287 U286 2.454 . S
O287 C289 1.353 . S
O288 U286 2.458 . S
O288 C289 1.286 . S
C289 U286 2.984 . S
C289 O287 1.353 . S
C289 O288 1.286 . S
C289 C291 1.363 . S
C290 C280 1.465 . S
C290 U286 2.847 1_556 S
C290 O304 1.249 . S
C290 O305 1.202 . S
C291 C289 1.363 . S
C291 C293 1.408 . S
C291 C296 1.342 . S
C292 C293 1.310 . S
C292 C295 1.461 . S
C292 H312 0.932 . S
C293 C291 1.408 . S
C293 C292 1.310 . S
C293 H313 0.930 . S
C294 C295 1.474 . S
C294 C296 1.285 . S
C294 H314 0.929 . S
C295 C292 1.461 . S
C295 C294 1.474 . S
C296 C291 1.342 . S
C296 C294 1.285 . S
C296 H315 0.930 . S
C297 C300 1.424 . S
C297 C302 1.245 . S
C297 C303 1.428 . S
C298 C301 1.260 . S
C298 C302 1.477 . S
C298 H316 0.932 . S
C299 C300 1.384 . S
C299 C301 1.479 . S
C299 H317 0.929 . S
C300 C297 1.424 . S
C300 C299 1.384 . S
C300 H318 0.928 . S
C301 C298 1.260 . S
C301 C299 1.479 . S
C302 C297 1.245 . S
C302 C298 1.477 . S
C302 H319 0.932 . S
C303 U286 2.882 . S
C303 C297 1.428 . S
C303 O306 1.301 . S
C303 O307 1.282 . S
O304 U286 2.441 1_556 S
O304 C290 1.249 . S
O305 U286 2.420 1_556 S
O305 C290 1.202 . S
O306 U286 2.455 . S
O306 C303 1.301 . S
O307 U286 2.449 . S
O307 C303 1.282 . S
H308 C281 0.931 . S
H309 C283 0.929 . S
H310 C284 0.930 . S
H311 C285 0.931 . S
H312 C292 0.932 . S
H313 C293 0.930 . S
H314 C294 0.929 . S
H315 C296 0.930 . S
H316 C298 0.932 . S
H317 C299 0.929 . S
H318 C300 0.928 . S
H319 C302 0.932 . S
Eu320 C329 2.828 . S
Eu320 O331 2.392 . S
Eu320 O333 2.418 1_545 S
Eu320 O338 2.373 1_655 S
Eu320 O341 2.488 . S
Eu320 O342 2.471 . S
Eu320 O343 2.349 1_655 S
Eu321 O330 2.373 1_455 S
Eu321 O334 2.488 . S
Eu321 O335 2.471 . S
Eu321 O336 2.349 . S
Eu321 O339 2.392 1_565 S
Eu321 O340 2.418 1_565 S
Eu321 C350 2.828 . S
C322 O340 1.244 . S
C322 O343 1.265 . S
C323 C324 1.379 1_655 S
C323 C327 1.373 . S
C323 C329 1.505 . S
C324 C323 1.379 1_455 S
C324 C326 1.369 . S
C324 H352 0.930 . S
C325 C327 1.383 . S
C325 C328 1.382 1_655 S
C325 H353 0.930 . S
C326 C324 1.369 . S
C326 C328 1.392 . S
C326 H354 0.930 . S
C327 C323 1.373 . S
C327 C325 1.383 . S
C327 H355 0.931 . S
C328 C325 1.382 1_455 S
C328 C326 1.392 . S
C329 Eu320 2.828 . S
C329 C323 1.505 . S
C329 O341 1.249 . S
C329 O342 1.244 . S
O330 Eu321 2.373 1_655 S
O330 C332 1.258 . S
O331 Eu320 2.392 . S
O331 C332 1.242 1_545 S
C332 O330 1.258 . S
C332 O331 1.242 1_565 S
O333 Eu320 2.418 1_565 S
O333 C337 1.244 . S
O334 Eu321 2.488 . S
O334 C350 1.249 . S
O335 Eu321 2.471 . S
O335 C350 1.244 . S
O336 Eu321 2.349 . S
O336 C337 1.265 1_455 S
C337 O333 1.244 . S
C337 O336 1.265 1_655 S
O338 Eu320 2.373 1_455 S
O338 C351 1.258 . S
O339 Eu321 2.392 1_545 S
O339 C351 1.242 . S
O340 Eu321 2.418 1_545 S
O340 C322 1.244 . S
O341 Eu320 2.488 . S
O341 C329 1.249 . S
O342 Eu320 2.471 . S
O342 C329 1.244 . S
O343 Eu320 2.349 1_455 S
O343 C322 1.265 . S
C344 C345 1.379 . S
C344 C348 1.373 . S
C344 C350 1.505 . S
C345 C344 1.379 . S
C345 C347 1.369 . S
C345 H356 0.930 1_455 S
C346 C348 1.383 . S
C346 C349 1.382 . S
C346 H357 0.930 . S
C347 C345 1.369 . S
C347 C349 1.392 . S
C347 H358 0.930 1_455 S
C348 C344 1.373 . S
C348 C346 1.383 . S
C348 H359 0.931 . S
C349 C346 1.382 . S
C349 C347 1.392 . S
C350 Eu321 2.828 . S
C350 O334 1.249 . S
C350 O335 1.244 . S
C350 C344 1.505 . S
C351 O338 1.258 . S
C351 O339 1.242 . S
H352 C324 0.930 . S
H353 C325 0.930 . S
H354 C326 0.930 . S
H355 C327 0.931 . S
H356 C345 0.930 1_655 S
H357 C346 0.930 . S
H358 C347 0.930 1_655 S
H359 C348 0.931 . S
Eu360 C369 2.828 . S
Eu360 O371 2.392 . S
Eu360 O373 2.418 . S
Eu360 O378 2.373 . S
Eu360 O381 2.488 . S
Eu360 O382 2.471 . S
Eu360 O383 2.349 1_545 S
Eu361 O370 2.373 1_565 S
Eu361 O374 2.488 . S
Eu361 O375 2.471 1_565 S
Eu361 O376 2.349 1_565 S
Eu361 O379 2.392 . S
Eu361 O380 2.418 . S
Eu361 C390 2.828 . S
C362 O380 1.244 . S
C362 O383 1.265 . S
C363 C364 1.379 1_545 S
C363 C367 1.373 . S
C363 C369 1.505 . S
C364 C363 1.379 1_565 S
C364 C366 1.369 . S
C364 H392 0.930 . S
C365 C367 1.383 . S
C365 C368 1.382 . S
C365 H393 0.930 . S
C366 C364 1.369 . S
C366 C368 1.392 1_565 S
C366 H394 0.930 . S
C367 C363 1.373 . S
C367 C365 1.383 . S
C367 H395 0.931 . S
C368 C365 1.382 . S
C368 C366 1.392 1_545 S
C369 Eu360 2.828 . S
C369 C363 1.505 . S
C369 O381 1.249 . S
C369 O382 1.244 . S
O370 Eu361 2.373 1_545 S
O370 C372 1.258 . S
O371 Eu360 2.392 . S
O371 C372 1.242 . S
C372 O370 1.258 . S
C372 O371 1.242 . S
O373 Eu360 2.418 . S
O373 C377 1.244 . S
O374 Eu361 2.488 . S
O374 C390 1.249 . S
O375 Eu361 2.471 1_545 S
O375 C390 1.244 1_545 S
O376 Eu361 2.349 1_545 S
O376 C377 1.265 . S
C377 O373 1.244 . S
C377 O376 1.265 . S
O378 Eu360 2.373 . S
O378 C391 1.258 1_545 S
O379 Eu361 2.392 . S
O379 C391 1.242 . S
O380 Eu361 2.418 . S
O380 C362 1.244 . S
O381 Eu360 2.488 . S
O381 C369 1.249 . S
O382 Eu360 2.471 . S
O382 C369 1.244 . S
O383 Eu360 2.349 1_565 S
O383 C362 1.265 . S
C384 C385 1.379 1_565 S
C384 C388 1.373 . S
C384 C390 1.505 . S
C385 C384 1.379 1_545 S
C385 C387 1.369 . S
C385 H396 0.930 . S
C386 C388 1.383 . S
C386 C389 1.382 1_565 S
C386 H397 0.930 . S
C387 C385 1.369 . S
C387 C389 1.392 . S
C387 H398 0.930 . S
C388 C384 1.373 . S
C388 C386 1.383 . S
C388 H399 0.931 . S
C389 C386 1.382 1_545 S
C389 C387 1.392 . S
C390 Eu361 2.828 . S
C390 O374 1.249 . S
C390 O375 1.244 1_565 S
C390 C384 1.505 . S
C391 O378 1.258 1_565 S
C391 O379 1.242 . S
H392 C364 0.930 . S
H393 C365 0.930 . S
H394 C366 0.930 . S
H395 C367 0.931 . S
H396 C385 0.930 . S
H397 C386 0.930 . S
H398 C387 0.930 . S
H399 C388 0.931 . S
Eu400 C409 2.828 . S
Eu400 O411 2.392 . S
Eu400 O413 2.418 . S
Eu400 O418 2.373 . S
Eu400 O421 2.488 . S
Eu400 O422 2.471 . S
Eu400 O423 2.349 . S
Eu401 O410 2.373 . S
Eu401 O414 2.488 . S
Eu401 O415 2.471 . S
Eu401 O416 2.349 . S
Eu401 O419 2.392 . S
Eu401 O420 2.418 . S
Eu401 C430 2.828 . S
C402 O420 1.244 . S
C402 O423 1.265 . S
C403 C404 1.379 . S
C403 C407 1.373 . S
C403 C409 1.505 . S
C404 C403 1.379 . S
C404 C406 1.369 . S
C404 H432 0.930 . S
C405 C407 1.383 . S
C405 C408 1.382 . S
C405 H433 0.930 . S
C406 C404 1.369 . S
C406 C408 1.392 . S
C406 H434 0.930 . S
C407 C403 1.373 . S
C407 C405 1.383 . S
C407 H435 0.931 . S
C408 C405 1.382 . S
C408 C406 1.392 . S
C409 Eu400 2.828 . S
C409 C403 1.505 . S
C409 O421 1.249 . S
C409 O422 1.244 . S
O410 Eu401 2.373 . S
O410 C412 1.258 . S
O411 Eu400 2.392 . S
O411 C412 1.242 . S
C412 O410 1.258 . S
C412 O411 1.242 . S
O413 Eu400 2.418 . S
O413 C417 1.244 . S
O414 Eu401 2.488 . S
O414 C430 1.249 . S
O415 Eu401 2.471 . S
O415 C430 1.244 . S
O416 Eu401 2.349 . S
O416 C417 1.265 . S
C417 O413 1.244 . S
C417 O416 1.265 . S
O418 Eu400 2.373 . S
O418 C431 1.258 . S
O419 Eu401 2.392 . S
O419 C431 1.242 . S
O420 Eu401 2.418 . S
O420 C402 1.244 . S
O421 Eu400 2.488 . S
O421 C409 1.249 . S
O422 Eu400 2.471 . S
O422 C409 1.244 . S
O423 Eu400 2.349 . S
O423 C402 1.265 . S
C424 C425 1.379 . S
C424 C428 1.373 . S
C424 C430 1.505 . S
C425 C424 1.379 . S
C425 C427 1.369 . S
C425 H436 0.930 . S
C426 C428 1.383 . S
C426 C429 1.382 . S
C426 H437 0.930 . S
C427 C425 1.369 . S
C427 C429 1.392 . S
C427 H438 0.930 . S
C428 C424 1.373 . S
C428 C426 1.383 . S
C428 H439 0.931 . S
C429 C426 1.382 . S
C429 C427 1.392 . S
C430 Eu401 2.828 . S
C430 O414 1.249 . S
C430 O415 1.244 . S
C430 C424 1.505 . S
C431 O418 1.258 . S
C431 O419 1.242 . S
H432 C404 0.930 . S
H433 C405 0.930 . S
H434 C406 0.930 . S
H435 C407 0.931 . S
H436 C425 0.930 . S
H437 C426 0.930 . S
H438 C427 0.930 . S
H439 C428 0.931 . S
Eu440 C449 2.828 . S
Eu440 O451 2.392 . S
Eu440 O453 2.418 1_455 S
Eu440 O458 2.373 . S
Eu440 O461 2.488 . S
Eu440 O462 2.471 . S
Eu440 O463 2.349 . S
Eu441 O450 2.373 . S
Eu441 O454 2.488 . S
Eu441 O455 2.471 . S
Eu441 O456 2.349 . S
Eu441 O459 2.392 1_655 S
Eu441 O460 2.418 1_655 S
Eu441 C470 2.828 . S
C442 O460 1.244 . S
C442 O463 1.265 . S
C443 C444 1.379 . S
C443 C447 1.373 . S
C443 C449 1.505 . S
C444 C443 1.379 . S
C444 C446 1.369 . S
C444 H472 0.930 . S
C445 C447 1.383 . S
C445 C448 1.382 . S
C445 H473 0.930 . S
C446 C444 1.369 . S
C446 C448 1.392 . S
C446 H474 0.930 . S
C447 C443 1.373 . S
C447 C445 1.383 . S
C447 H475 0.931 . S
C448 C445 1.382 . S
C448 C446 1.392 . S
C449 Eu440 2.828 . S
C449 C443 1.505 . S
C449 O461 1.249 . S
C449 O462 1.244 . S
O450 Eu441 2.373 . S
O450 C452 1.246 1_655 S
O451 Eu440 2.392 . S
O451 C452 1.266 . S
C452 O450 1.246 1_455 S
C452 O451 1.266 . S
O453 Eu440 2.418 1_655 S
O453 C457 1.244 . S
O454 Eu441 2.488 . S
O454 C470 1.249 . S
O455 Eu441 2.471 . S
O455 C470 1.244 . S
O456 Eu441 2.349 . S
O456 C457 1.265 . S
C457 O453 1.244 . S
C457 O456 1.265 . S
O458 Eu440 2.373 . S
O458 C471 1.258 . S
O459 Eu441 2.392 1_455 S
O459 C471 1.242 . S
O460 Eu441 2.418 1_455 S
O460 C442 1.244 . S
O461 Eu440 2.488 . S
O461 C449 1.249 . S
O462 Eu440 2.471 . S
O462 C449 1.244 . S
O463 Eu440 2.349 . S
O463 C442 1.265 . S
C464 C465 1.379 . S
C464 C468 1.373 . S
C464 C470 1.505 . S
C465 C464 1.379 . S
C465 C467 1.369 . S
C465 H476 0.930 . S
C466 C468 1.383 . S
C466 C469 1.382 . S
C466 H477 0.930 . S
C467 C465 1.369 . S
C467 C469 1.392 . S
C467 H478 0.930 . S
C468 C464 1.373 . S
C468 C466 1.383 . S
C468 H479 0.931 . S
C469 C466 1.382 . S
C469 C467 1.392 . S
C470 Eu441 2.828 . S
C470 O454 1.249 . S
C470 O455 1.244 . S
C470 C464 1.505 . S
C471 O458 1.258 . S
C471 O459 1.242 . S
H472 C444 0.930 . S
H473 C445 0.930 . S
H474 C446 0.930 . S
H475 C447 0.931 . S
H476 C465 0.930 . S
H477 C466 0.930 . S
H478 C467 0.930 . S
H479 C468 0.931 . S
H480 C486 0.930 . S
H481 C490 0.930 1_565 S
H482 C495 0.929 . S
H483 C493 0.929 . S
H484 C488 0.929 . S
H485 C494 0.929 . S
C486 H480 0.930 . S
C486 C487 1.367 . S
C486 C494 1.378 . S
C487 C486 1.367 . S
C487 C495 1.433 . S
C488 H484 0.929 . S
C488 C490 1.378 . S
C488 C492 1.350 . S
C489 C492 1.463 . S
C489 C494 1.350 . S
C489 N497 1.427 . S
C490 H481 0.930 1_545 S
C490 C488 1.378 . S
C490 C491 1.367 . S
C491 C490 1.367 . S
C491 C493 1.433 . S
C492 C488 1.350 . S
C492 C489 1.463 . S
C492 N496 1.427 . S
C493 H483 0.929 . S
C493 C491 1.433 . S
C493 N496 1.384 . S
C494 H485 0.929 . S
C494 C486 1.378 . S
C494 C489 1.350 . S
C495 H482 0.929 . S
C495 C487 1.433 . S
C495 N497 1.384 . S
N496 C492 1.427 . S
N496 C493 1.384 . S
N497 C489 1.427 . S
N497 C495 1.384 . S
H498 C504 0.930 . S
H499 C508 0.930 . S
H500 C513 0.929 . S
H501 C511 0.929 . S
H502 C506 0.929 . S
H503 C512 0.929 . S
C504 H498 0.930 . S
C504 C505 1.367 . S
C504 C512 1.378 . S
C505 C504 1.367 . S
C505 C513 1.433 . S
C506 H502 0.929 . S
C506 C508 1.378 . S
C506 C510 1.350 . S
C507 C510 1.463 . S
C507 C512 1.350 . S
C507 N515 1.427 . S
C508 H499 0.930 . S
C508 C506 1.378 . S
C508 C509 1.367 . S
C509 C508 1.367 . S
C509 C511 1.433 . S
C510 C506 1.350 . S
C510 C507 1.463 . S
C510 N514 1.427 . S
C511 H501 0.929 . S
C511 C509 1.433 . S
C511 N514 1.384 . S
C512 H503 0.929 . S
C512 C504 1.378 . S
C512 C507 1.350 . S
C513 H500 0.929 . S
C513 C505 1.433 . S
C513 N515 1.384 . S
N514 C510 1.427 . S
N514 C511 1.384 . S
N515 C507 1.427 . S
N515 C513 1.384 . S
H516 C522 0.930 . S
H517 C526 0.930 . S
H518 C531 0.929 . S
H519 C529 0.929 . S
H520 C524 0.929 . S
H521 C530 0.929 . S
C522 H516 0.930 . S
C522 C523 1.367 . S
C522 C530 1.378 . S
C523 C522 1.367 . S
C523 C531 1.433 . S
C524 H520 0.929 . S
C524 C526 1.378 . S
C524 C528 1.350 . S
C525 C528 1.463 . S
C525 C530 1.350 . S
C525 N533 1.427 . S
C526 H517 0.930 . S
C526 C524 1.378 . S
C526 C527 1.367 . S
C527 C526 1.367 . S
C527 C529 1.433 . S
C528 C524 1.350 . S
C528 C525 1.463 . S
C528 N532 1.427 . S
C529 H519 0.929 . S
C529 C527 1.433 . S
C529 N532 1.384 . S
C530 H521 0.929 . S
C530 C522 1.378 . S
C530 C525 1.350 . S
C531 H518 0.929 . S
C531 C523 1.433 . S
C531 N533 1.384 . S
N532 C528 1.427 . S
N532 C529 1.384 . S
N533 C525 1.427 . S
N533 C531 1.384 . S
H534 C540 0.930 . S
H535 C544 0.900 1_655 S
H536 C549 0.929 . S
H537 C547 0.929 . S
H538 C542 0.929 . S
H539 C548 0.929 . S
C540 H534 0.930 . S
C540 C541 1.367 . S
C540 C548 1.378 . S
C541 C540 1.367 . S
C541 C549 1.433 . S
C542 H538 0.929 . S
C542 C544 1.378 . S
C542 C546 1.350 . S
C543 C546 1.463 . S
C543 C548 1.350 . S
C543 N551 1.427 . S
C544 H535 0.900 1_455 S
C544 C542 1.378 . S
C544 C545 1.367 . S
C545 C544 1.367 . S
C545 C547 1.433 . S
C546 C542 1.350 . S
C546 C543 1.463 . S
C546 N550 1.427 . S
C547 H537 0.929 . S
C547 C545 1.433 . S
C547 N550 1.384 . S
C548 H539 0.929 . S
C548 C540 1.378 . S
C548 C543 1.350 . S
C549 H536 0.929 . S
C549 C541 1.433 . S
C549 N551 1.384 . S
N550 C546 1.427 . S
N550 C547 1.384 . S
N551 C543 1.427 . S
N551 C549 1.384 . S
H552 C558 0.930 . S
H553 C562 0.930 . S
H554 C567 0.929 . S
H555 C565 0.929 . S
H556 C560 0.929 . S
H557 C566 0.926 1_545 S
C558 H552 0.930 . S
C558 C559 1.367 . S
C558 C566 1.378 . S
C559 C558 1.367 . S
C559 C567 1.433 . S
C560 H556 0.929 . S
C560 C562 1.378 . S
C560 C564 1.350 . S
C561 C564 1.463 . S
C561 C566 1.350 1_556 S
C561 N569 1.427 . S
C562 H553 0.930 . S
C562 C560 1.378 . S
C562 C563 1.367 . S
C563 C562 1.367 . S
C563 C565 1.433 1_565 S
C564 C560 1.350 . S
C564 C561 1.463 . S
C564 N568 1.427 . S
C565 H555 0.929 . S
C565 C563 1.433 1_545 S
C565 N568 1.384 1_545 S
C566 H557 0.926 1_565 S
C566 C558 1.378 . S
C566 C561 1.350 1_554 S
C567 H554 0.929 . S
C567 C559 1.433 . S
C567 N569 1.384 1_554 S
N568 C564 1.427 . S
N568 C565 1.384 1_565 S
N569 C561 1.427 . S
N569 C567 1.384 1_556 S
H570 C576 0.930 . S
H571 C580 0.930 . S
H572 C585 0.929 . S
H573 C583 0.929 . S
H574 C578 0.929 . S
H575 C584 0.929 . S
C576 H570 0.930 . S
C576 C577 1.367 . S
C576 C584 1.378 1_554 S
C577 C576 1.367 . S
C577 C585 1.433 . S
C578 H574 0.929 . S
C578 C580 1.378 . S
C578 C582 1.350 . S
C579 C582 1.463 . S
C579 C584 1.350 . S
C579 N587 1.427 . S
C580 H571 0.930 . S
C580 C578 1.378 . S
C580 C581 1.367 . S
C581 C580 1.367 . S
C581 C583 1.433 . S
C582 C578 1.350 . S
C582 C579 1.463 . S
C582 N586 1.427 . S
C583 H573 0.929 . S
C583 C581 1.433 . S
C583 N586 1.384 . S
C584 H575 0.929 . S
C584 C576 1.378 1_556 S
C584 C579 1.350 . S
C585 H572 0.929 . S
C585 C577 1.433 . S
C585 N587 1.384 1_554 S
N586 C582 1.427 . S
N586 C583 1.384 . S
N587 C579 1.427 . S
N587 C585 1.384 1_556 S
H588 C594 0.930 . S
H589 C598 0.930 . S
H590 C603 0.929 . S
H591 C601 0.929 . S
H592 C596 0.929 . S
H593 C602 0.929 . S
C594 H588 0.930 . S
C594 C595 1.367 . S
C594 C602 1.378 1_554 S
C595 C594 1.367 . S
C595 C603 1.433 . S
C596 H592 0.929 . S
C596 C598 1.378 . S
C596 C600 1.350 . S
C597 C600 1.463 . S
C597 C602 1.350 . S
C597 N605 1.427 . S
C598 H589 0.930 . S
C598 C596 1.378 . S
C598 C599 1.367 . S
C599 C598 1.367 . S
C599 C601 1.433 . S
C600 C596 1.350 . S
C600 C597 1.463 . S
C600 N604 1.427 . S
C601 H591 0.929 . S
C601 C599 1.433 . S
C601 N604 1.384 . S
C602 H593 0.929 . S
C602 C594 1.378 1_556 S
C602 C597 1.350 . S
C603 H590 0.929 . S
C603 C595 1.433 . S
C603 N605 1.384 1_554 S
N604 C600 1.427 . S
N604 C601 1.384 . S
N605 C597 1.427 . S
N605 C603 1.384 1_556 S
H606 C612 0.930 . S
H607 C616 0.930 . S
H608 C621 0.929 . S
H609 C619 0.929 . S
H610 C614 0.929 . S
H611 C620 0.929 1_455 S
C612 H606 0.930 . S
C612 C613 1.367 . S
C612 C620 1.378 . S
C613 C612 1.367 . S
C613 C621 1.433 . S
C614 H610 0.929 . S
C614 C616 1.378 . S
C614 C618 1.350 . S
C615 C618 1.463 . S
C615 C620 1.350 1_556 S
C615 N623 1.427 . S
C616 H607 0.930 . S
C616 C614 1.378 . S
C616 C617 1.367 . S
C617 C616 1.367 . S
C617 C619 1.433 1_655 S
C618 C614 1.350 . S
C618 C615 1.463 . S
C618 N622 1.411 1_655 S
C619 H609 0.929 . S
C619 C617 1.433 1_455 S
C619 N622 1.389 . S
C620 H611 0.929 1_655 S
C620 C612 1.378 . S
C620 C615 1.350 1_554 S
C621 H608 0.929 . S
C621 C613 1.433 . S
C621 N623 1.384 1_554 S
N622 C618 1.411 1_455 S
N622 C619 1.389 . S
N623 C615 1.427 . S
N623 C621 1.384 1_556 S
H624 C630 0.930 . S
H625 C634 0.930 . S
H626 C639 0.929 . S
H627 C637 0.929 . S
H628 C632 0.928 1_655 S
H629 C638 0.929 . S
C630 H624 0.930 . S
C630 C631 1.367 . S
C630 C638 1.378 . S
C631 C630 1.367 . S
C631 C639 1.433 . S
C632 H628 0.928 1_455 S
C632 C634 1.378 1_455 S
C632 C636 1.350 . S
C633 C636 1.463 . S
C633 C638 1.350 . S
C633 N641 1.427 . S
C634 H625 0.930 . S
C634 C632 1.378 1_655 S
C634 C635 1.380 . S
C635 C634 1.380 . S
C635 C637 1.396 1_655 S
C636 C632 1.350 . S
C636 C633 1.463 . S
C636 N640 1.427 . S
C637 H627 0.929 . S
C637 C635 1.396 1_455 S
C637 N640 1.384 . S
C638 H629 0.929 . S
C638 C630 1.378 . S
C638 C633 1.350 . S
C639 H626 0.929 . S
C639 C631 1.433 . S
C639 N641 1.384 . S
N640 C636 1.427 . S
N640 C637 1.384 . S
N641 C633 1.427 . S
N641 C639 1.384 . S
H642 C648 0.930 . S
H643 C652 0.930 . S
H644 C657 0.929 . S
H645 C655 0.929 . S
H646 C650 0.929 1_565 S
H647 C656 0.929 . S
C648 H642 0.930 . S
C648 C649 1.367 . S
C648 C656 1.378 . S
C649 C648 1.367 . S
C649 C657 1.433 . S
C650 H646 0.929 1_545 S
C650 C652 1.378 1_545 S
C650 C654 1.350 . S
C651 C654 1.463 . S
C651 C656 1.350 . S
C651 N659 1.427 . S
C652 H643 0.930 . S
C652 C650 1.378 1_565 S
C652 C653 1.367 1_565 S
C653 C652 1.367 1_545 S
C653 C655 1.433 . S
C654 C650 1.350 . S
C654 C651 1.463 . S
C654 N658 1.427 . S
C655 H645 0.929 . S
C655 C653 1.433 . S
C655 N658 1.384 . S
C656 H647 0.929 . S
C656 C648 1.378 . S
C656 C651 1.350 . S
C657 H644 0.929 . S
C657 C649 1.433 . S
C657 N659 1.384 . S
N658 C654 1.427 . S
N658 C655 1.384 . S
N659 C651 1.427 . S
N659 C657 1.384 . S
H660 C666 0.930 . S
H661 C670 0.930 . S
H662 C675 0.929 . S
H663 C673 0.929 . S
H664 C668 0.929 . S
H665 C674 0.929 . S
C666 H660 0.930 . S
C666 C667 1.367 . S
C666 C674 1.378 . S
C667 C666 1.367 . S
C667 C675 1.433 . S
C668 H664 0.929 . S
C668 C670 1.378 . S
C668 C672 1.350 . S
C669 C672 1.463 . S
C669 C674 1.350 . S
C669 N677 1.427 . S
C670 H661 0.930 . S
C670 C668 1.378 . S
C670 C671 1.367 . S
C671 C670 1.367 . S
C671 C673 1.433 . S
C672 C668 1.350 . S
C672 C669 1.463 . S
C672 N676 1.427 . S
C673 H663 0.929 . S
C673 C671 1.433 . S
C673 N676 1.384 . S
C674 H665 0.929 . S
C674 C666 1.378 . S
C674 C669 1.350 . S
C675 H662 0.929 . S
C675 C667 1.433 . S
C675 N677 1.384 . S
N676 C672 1.427 . S
N676 C673 1.384 . S
N677 C669 1.427 . S
N677 C675 1.384 . S
H678 C684 0.930 . S
H679 C688 0.930 . S
H680 C693 0.929 . S
H681 C691 0.929 . S
H682 C686 0.929 . S
H683 C692 0.929 . S
C684 H678 0.930 . S
C684 C685 1.367 . S
C684 C692 1.378 . S
C685 C684 1.367 . S
C685 C693 1.433 . S
C686 H682 0.929 . S
C686 C688 1.378 . S
C686 C690 1.350 . S
C687 C690 1.463 . S
C687 C692 1.350 . S
C687 N695 1.427 . S
C688 H679 0.930 . S
C688 C686 1.378 . S
C688 C689 1.367 . S
C689 C688 1.367 . S
C689 C691 1.433 . S
C690 C686 1.350 . S
C690 C687 1.463 . S
C690 N694 1.427 . S
C691 H681 0.929 . S
C691 C689 1.433 . S
C691 N694 1.384 . S
C692 H683 0.929 . S
C692 C684 1.378 . S
C692 C687 1.350 . S
C693 H680 0.929 . S
C693 C685 1.433 . S
C693 N695 1.384 . S
N694 C690 1.427 . S
N694 C691 1.384 . S
N695 C687 1.427 . S
N695 C693 1.384 . S
H696 C702 0.930 . S
H697 C706 0.930 . S
H698 C711 0.929 . S
H699 C709 0.929 . S
H700 C704 0.929 . S
H701 C710 0.929 . S
C702 H696 0.930 . S
C702 C703 1.367 . S
C702 C710 1.378 . S
C703 C702 1.367 . S
C703 C711 1.433 1_554 S
C704 H700 0.929 . S
C704 C706 1.378 . S
C704 C708 1.350 . S
C705 C708 1.463 . S
C705 C710 1.350 1_556 S
C705 N713 1.427 . S
C706 H697 0.930 . S
C706 C704 1.378 . S
C706 C707 1.367 1_655 S
C707 C706 1.367 1_455 S
C707 C709 1.433 . S
C708 C704 1.350 . S
C708 C705 1.463 . S
C708 N712 1.427 1_655 S
C709 H699 0.929 . S
C709 C707 1.433 . S
C709 N712 1.384 . S
C710 H701 0.929 . S
C710 C702 1.378 . S
C710 C705 1.350 1_554 S
C711 H698 0.929 . S
C711 C703 1.433 1_556 S
C711 N713 1.384 . S
N712 C708 1.427 1_455 S
N712 C709 1.384 . S
N713 C705 1.427 . S
N713 C711 1.384 . S
H714 C720 0.930 . S
H715 C724 0.930 . S
H716 C729 0.929 . S
H717 C727 0.929 . S
H718 C722 0.929 . S
H719 C728 0.929 . S
C720 H714 0.930 . S
C720 C721 1.367 . S
C720 C728 1.378 . S
C721 C720 1.367 . S
C721 C729 1.433 1_554 S
C722 H718 0.929 . S
C722 C724 1.378 . S
C722 C726 1.350 . S
C723 C726 1.463 . S
C723 C728 1.350 1_556 S
C723 N731 1.427 . S
C724 H715 0.930 . S
C724 C722 1.378 . S
C724 C725 1.367 1_565 S
C725 C724 1.367 1_545 S
C725 C727 1.433 . S
C726 C722 1.350 . S
C726 C723 1.463 . S
C726 N730 1.427 1_565 S
C727 H717 0.929 . S
C727 C725 1.433 . S
C727 N730 1.384 . S
C728 H719 0.929 . S
C728 C720 1.378 . S
C728 C723 1.350 1_554 S
C729 H716 0.929 . S
C729 C721 1.433 1_556 S
C729 N731 1.384 . S
N730 C726 1.427 1_545 S
N730 C727 1.384 . S
N731 C723 1.427 . S
N731 C729 1.384 . S
H732 C738 0.930 1_554 S
H733 C742 0.930 . S
H734 C747 0.929 . S
H735 C745 0.929 . S
H736 C740 0.929 . S
H737 C746 0.929 . S
C738 H732 0.930 1_556 S
C738 C739 1.367 . S
C738 C746 1.378 . S
C739 C738 1.367 . S
C739 C747 1.433 . S
C740 H736 0.929 . S
C740 C742 1.378 . S
C740 C744 1.350 . S
C741 C744 1.463 . S
C741 C746 1.350 . S
C741 N749 1.427 . S
C742 H733 0.930 . S
C742 C740 1.378 . S
C742 C743 1.367 . S
C743 C742 1.367 . S
C743 C745 1.433 . S
C744 C740 1.350 . S
C744 C741 1.463 . S
C744 N748 1.427 . S
C745 H735 0.929 . S
C745 C743 1.433 . S
C745 N748 1.384 . S
C746 H737 0.929 . S
C746 C738 1.378 . S
C746 C741 1.350 . S
C747 H734 0.929 . S
C747 C739 1.433 . S
C747 N749 1.384 . S
N748 C744 1.427 . S
N748 C745 1.384 . S
N749 C741 1.427 . S
N749 C747 1.384 . S
H750 C756 0.930 . S
H751 C760 0.930 . S
H752 C765 0.929 . S
H753 C763 0.929 . S
H754 C758 0.929 . S
H755 C764 0.929 1_554 S
C756 H750 0.930 . S
C756 C757 1.367 1_554 S
C756 C764 1.378 1_554 S
C757 C756 1.367 1_556 S
C757 C765 1.433 . S
C758 H754 0.929 . S
C758 C760 1.378 . S
C758 C762 1.350 . S
C759 C762 1.463 . S
C759 C764 1.350 . S
C759 N767 1.427 . S
C760 H751 0.930 . S
C760 C758 1.378 . S
C760 C761 1.367 . S
C761 C760 1.367 . S
C761 C763 1.433 . S
C762 C758 1.350 . S
C762 C759 1.463 . S
C762 N766 1.427 . S
C763 H753 0.929 . S
C763 C761 1.433 . S
C763 N766 1.384 . S
C764 H755 0.929 1_556 S
C764 C756 1.378 1_556 S
C764 C759 1.350 . S
C765 H752 0.929 . S
C765 C757 1.433 . S
C765 N767 1.384 . S
N766 C762 1.427 . S
N766 C763 1.384 . S
N767 C759 1.427 . S
N767 C765 1.384 . S
H768 C774 0.930 . S
H769 C778 0.930 . S
H770 C783 0.929 . S
H771 C781 0.929 . S
H772 C776 0.929 . S
H773 C782 0.929 . S
C774 H768 0.930 . S
C774 C775 1.367 . S
C774 C782 1.378 . S
C775 C774 1.367 . S
C775 C783 1.433 . S
C776 H772 0.929 . S
C776 C778 1.378 . S
C776 C780 1.350 . S
C777 C780 1.463 . S
C777 C782 1.350 . S
C777 N785 1.427 . S
C778 H769 0.930 . S
C778 C776 1.378 . S
C778 C779 1.367 . S
C779 C778 1.367 . S
C779 C781 1.433 . S
C780 C776 1.350 . S
C780 C777 1.463 . S
C780 N784 1.427 . S
C781 H771 0.929 . S
C781 C779 1.433 . S
C781 N784 1.384 . S
C782 H773 0.929 . S
C782 C774 1.378 . S
C782 C777 1.350 . S
C783 H770 0.929 . S
C783 C775 1.433 . S
C783 N785 1.384 . S
N784 C780 1.427 . S
N784 C781 1.384 . S
N785 C777 1.427 . S
N785 C783 1.384 . S
H786 C792 0.930 . S
H787 C796 0.930 . S
H788 C801 0.929 . S
H789 C799 0.929 . S
H790 C794 0.929 . S
H791 C800 0.929 . S
C792 H786 0.930 . S
C792 C793 1.367 . S
C792 C800 1.378 . S
C793 C792 1.367 . S
C793 C801 1.433 . S
C794 H790 0.929 . S
C794 C796 1.378 . S
C794 C798 1.350 . S
C795 C798 1.463 . S
C795 C800 1.350 . S
C795 N803 1.427 . S
C796 H787 0.930 . S
C796 C794 1.378 . S
C796 C797 1.367 . S
C797 C796 1.367 . S
C797 C799 1.433 . S
C798 C794 1.350 . S
C798 C795 1.463 . S
C798 N802 1.427 . S
C799 H789 0.929 . S
C799 C797 1.433 . S
C799 N802 1.384 . S
C800 H791 0.929 . S
C800 C792 1.378 . S
C800 C795 1.350 . S
C801 H788 0.929 . S
C801 C793 1.433 . S
C801 N803 1.384 . S
N802 C798 1.427 . S
N802 C799 1.384 . S
N803 C795 1.427 . S
N803 C801 1.384 . S
H804 C810 0.930 . S
H805 C814 0.930 . S
H806 C819 0.929 . S
H807 C817 0.929 . S
H808 C812 0.929 . S
H809 C818 0.929 . S
C810 H804 0.930 . S
C810 C811 1.367 . S
C810 C818 1.378 . S
C811 C810 1.367 . S
C811 C819 1.433 . S
C812 H808 0.929 . S
C812 C814 1.378 . S
C812 C816 1.350 . S
C813 C816 1.463 . S
C813 C818 1.350 . S
C813 N821 1.427 . S
C814 H805 0.930 . S
C814 C812 1.378 . S
C814 C815 1.367 . S
C815 C814 1.367 . S
C815 C817 1.433 . S
C816 C812 1.350 . S
C816 C813 1.463 . S
C816 N820 1.427 . S
C817 H807 0.929 . S
C817 C815 1.433 . S
C817 N820 1.384 . S
C818 H809 0.929 . S
C818 C810 1.378 . S
C818 C813 1.350 . S
C819 H806 0.929 . S
C819 C811 1.433 . S
C819 N821 1.384 . S
N820 C816 1.427 . S
N820 C817 1.384 . S
N821 C813 1.427 . S
N821 C819 1.384 . S
H822 C828 0.930 . S
H823 C832 0.930 . S
H824 C837 0.929 . S
H825 C835 0.929 . S
H826 C830 0.929 . S
H827 C836 0.929 . S
C828 H822 0.930 . S
C828 C829 1.367 . S
C828 C836 1.378 . S
C829 C828 1.367 . S
C829 C837 1.433 . S
C830 H826 0.929 . S
C830 C832 1.378 . S
C830 C834 1.350 . S
C831 C834 1.463 . S
C831 C836 1.350 . S
C831 N839 1.427 . S
C832 H823 0.930 . S
C832 C830 1.378 . S
C832 C833 1.367 . S
C833 C832 1.367 . S
C833 C835 1.433 . S
C834 C830 1.350 . S
C834 C831 1.463 . S
C834 N838 1.427 . S
C835 H825 0.929 . S
C835 C833 1.433 . S
C835 N838 1.384 . S
C836 H827 0.929 . S
C836 C828 1.378 . S
C836 C831 1.350 . S
C837 H824 0.929 . S
C837 C829 1.433 . S
C837 N839 1.384 . S
N838 C834 1.427 . S
N838 C835 1.384 . S
N839 C831 1.427 . S
N839 C837 1.384 . S
H840 C846 0.930 . S
H841 C850 0.930 . S
H842 C855 0.929 . S
H843 C853 0.929 . S
H844 C848 0.929 . S
H845 C854 0.929 . S
C846 H840 0.930 . S
C846 C847 1.367 . S
C846 C854 1.378 . S
C847 C846 1.367 . S
C847 C855 1.433 . S
C848 H844 0.929 . S
C848 C850 1.378 . S
C848 C852 1.350 . S
C849 C852 1.463 . S
C849 C854 1.350 . S
C849 N857 1.427 . S
C850 H841 0.930 . S
C850 C848 1.378 . S
C850 C851 1.367 . S
C851 C850 1.367 . S
C851 C853 1.433 . S
C852 C848 1.350 . S
C852 C849 1.463 . S
C852 N856 1.427 . S
C853 H843 0.929 . S
C853 C851 1.433 . S
C853 N856 1.384 . S
C854 H845 0.929 . S
C854 C846 1.378 . S
C854 C849 1.350 . S
C855 H842 0.929 . S
C855 C847 1.433 . S
C855 N857 1.384 . S
N856 C852 1.427 . S
N856 C853 1.384 . S
N857 C849 1.427 . S
N857 C855 1.384 . S
H858 C864 0.930 . S
H859 C868 0.930 1_545 S
H860 C873 0.929 . S
H861 C871 0.929 . S
H862 C866 0.925 . S
H863 C872 0.929 . S
C864 H858 0.930 . S
C864 C865 1.367 . S
C864 C872 1.378 . S
C865 C864 1.367 . S
C865 C873 1.433 . S
C866 H862 0.925 . S
C866 C868 1.378 . S
C866 C870 1.350 . S
C867 C870 1.463 . S
C867 C872 1.350 . S
C867 N875 1.427 . S
C868 H859 0.930 1_565 S
C868 C866 1.378 . S
C868 C869 1.367 . S
C869 C868 1.367 . S
C869 C871 1.433 . S
C870 C866 1.350 . S
C870 C867 1.463 . S
C870 N874 1.427 . S
C871 H861 0.929 . S
C871 C869 1.433 . S
C871 N874 1.384 . S
C872 H863 0.929 . S
C872 C864 1.378 . S
C872 C867 1.350 . S
C873 H860 0.929 . S
C873 C865 1.433 . S
C873 N875 1.384 . S
N874 C870 1.427 . S
N874 C871 1.384 . S
N875 C867 1.427 . S
N875 C873 1.384 . S
H876 C882 0.930 . S
H877 C886 0.930 . S
H878 C891 0.929 . S
H879 C889 0.929 . S
H880 C884 0.929 . S
H881 C890 0.929 . S
C882 H876 0.930 . S
C882 C883 1.367 . S
C882 C890 1.378 . S
C883 C882 1.367 . S
C883 C891 1.433 . S
C884 H880 0.929 . S
C884 C886 1.378 . S
C884 C888 1.350 . S
C885 C888 1.463 . S
C885 C890 1.350 . S
C885 N893 1.427 . S
C886 H877 0.930 . S
C886 C884 1.378 . S
C886 C887 1.367 . S
C887 C886 1.367 . S
C887 C889 1.433 . S
C888 C884 1.350 . S
C888 C885 1.463 . S
C888 N892 1.427 . S
C889 H879 0.929 . S
C889 C887 1.433 . S
C889 N892 1.384 . S
C890 H881 0.929 . S
C890 C882 1.378 . S
C890 C885 1.350 . S
C891 H878 0.929 . S
C891 C883 1.433 . S
C891 N893 1.384 . S
N892 C888 1.427 . S
N892 C889 1.384 . S
N893 C885 1.427 . S
N893 C891 1.384 . S
H894 C900 0.930 . S
H895 C904 0.930 . S
H896 C909 0.929 . S
H897 C907 0.929 . S
H898 C902 0.929 . S
H899 C908 0.929 . S
C900 H894 0.930 . S
C900 C901 1.367 . S
C900 C908 1.378 . S
C901 C900 1.367 . S
C901 C909 1.433 . S
C902 H898 0.929 . S
C902 C904 1.378 . S
C902 C906 1.350 . S
C903 C906 1.463 . S
C903 C908 1.350 . S
C903 N911 1.427 . S
C904 H895 0.930 . S
C904 C902 1.378 . S
C904 C905 1.367 . S
C905 C904 1.367 . S
C905 C907 1.433 . S
C906 C902 1.350 . S
C906 C903 1.463 . S
C906 N910 1.427 . S
C907 H897 0.929 . S
C907 C905 1.433 . S
C907 N910 1.384 . S
C908 H899 0.929 . S
C908 C900 1.378 . S
C908 C903 1.350 . S
C909 H896 0.929 . S
C909 C901 1.433 . S
C909 N911 1.384 . S
N910 C906 1.427 . S
N910 C907 1.384 . S
N911 C903 1.427 . S
N911 C909 1.384 . S
C487 C255 2.910 . S
C491 C351 3.116 . S
C509 C377 2.481 . S
C505 C295 2.250 . S
C527 C417 2.475 . S
C523 C175 2.274 . S
C545 C471 2.997 . S
C541 C215 2.823 . S
C563 C332 3.116 . S
C559 C95 2.901 . S
C577 C135 2.270 . S
C581 C362 2.485 . S
C595 C15 2.268 . S
C599 C402 2.475 . S
C613 C55 2.825 . S
C617 C452 2.989 1_655 S
C635 C328 0.426 1_655 S
C631 C221 0.418 . S
C653 C389 0.694 . S
C649 C261 0.684 . S
C671 C429 0.369 . S
C667 C301 0.346 . S
C685 C181 0.401 . S
C689 C448 0.380 . S
C703 C61 0.554 . S
C707 C349 0.385 . S
C725 C368 0.681 . S
C721 C101 0.680 . S
C743 C408 0.367 . S
C739 C141 0.363 . S
C757 C21 0.617 . S
C761 C469 0.364 . S
C775 C202 2.839 . S
C779 C322 3.130 . S
C793 C242 3.503 . S
C797 C372 3.783 . S
C815 C412 3.452 . S
C811 C282 3.139 . S
C833 C442 2.812 . S
C829 C162 2.562 . S
C847 C42 2.779 . S
C851 C337 3.127 . S
C869 C391 3.782 . S
C865 C82 3.453 . S
C887 C431 3.451 . S
C883 C122 3.204 . S
C901 C2 2.493 . S
C905 C457 2.809 . S
