# Generated by pormake.
# Topology anh, (6,3)-cn, num edge types: 1
# Building blocks:
#     Node 0, Type 0, BuildingBlock: PAMTUU_clean_sbu_0, # of connection points: 6
#     Node 1, Type 0, BuildingBlock: PAMTUU_clean_sbu_0, # of connection points: 6
#     Node 2, Type 0, BuildingBlock: PAMTUU_clean_sbu_0, # of connection points: 6
#     Node 3, Type 1, BuildingBlock: WUSLED_clean_sbu_0, # of connection points: 3
#     Node 4, Type 1, BuildingBlock: WUSLED_clean_sbu_0, # of connection points: 3
#     Node 5, Type 1, BuildingBlock: WUSLED_clean_sbu_0, # of connection points: 3
#     Node 6, Type 1, BuildingBlock: WUSLED_clean_sbu_0, # of connection points: 3
#     Node 7, Type 1, BuildingBlock: WUSLED_clean_sbu_0, # of connection points: 3
#     Node 8, Type 1, BuildingBlock: WUSLED_clean_sbu_0, # of connection points: 3
#     Edge 9, Type (0, 1), None
#     Edge 10, Type (0, 1), None
#     Edge 11, Type (0, 1), None
#     Edge 12, Type (0, 1), None
#     Edge 13, Type (0, 1), None
#     Edge 14, Type (0, 1), None
#     Edge 15, Type (0, 1), None
#     Edge 16, Type (0, 1), None
#     Edge 17, Type (0, 1), None
#     Edge 18, Type (0, 1), None
#     Edge 19, Type (0, 1), None
#     Edge 20, Type (0, 1), None
#     Edge 21, Type (0, 1), None
#     Edge 22, Type (0, 1), None
#     Edge 23, Type (0, 1), None
#     Edge 24, Type (0, 1), None
#     Edge 25, Type (0, 1), None
#     Edge 26, Type (0, 1), None
# Relax obj value: 0.389
# Max RMSD: 0.209
# Mean RMSD: 0.170
data_MOF--net-anh--node1-PAMTUU_clean_sbu_0--node2-WUSLED_clean_sbu_0--edge1-none
_symmetry_space_group_name_H-M    P1
_symmetry_Int_Tables_number       1
_symmetry_cell_setting            triclinic
loop_
_symmetry_equiv_pos_as_xyz
'x, y, z'
_cell_length_a     21.717375
_cell_length_b     21.792916
_cell_length_c     40.530986
_cell_angle_alpha  90.026175
_cell_angle_beta   94.116604
_cell_angle_gamma 119.96656
loop_
_atom_site_label
_atom_site_type_symbol
_atom_site_fract_x
_atom_site_fract_y
_atom_site_fract_z
_atom_type_partial_charge
Tb0 Tb 0.22562 0.75132 0.18395 0.0
Tb1 Tb 0.30541 0.65926 0.19267 0.0
C2 C 0.27243 0.70154 0.12058 0.0
C3 C 1.0827 0.78251 0.195 0.0
C4 C 0.9397 0.68484 0.20236 0.0
C5 C 0.95782 0.74062 0.18071 0.0
C6 C 1.02921 0.78914 0.1769 0.0
C7 C 1.06434 0.73213 0.21964 0.0
C8 C 0.99297 0.68296 0.22308 0.0
C9 C 1.15239 0.81114 0.18189 0.0
O10 O 1.14114 0.64441 0.19656 0.0
O11 O 1.19349 0.57703 0.18951 0.0
O12 O 0.27329 0.66584 0.24103 0.0
O13 O 0.26822 0.7675 0.2351 0.0
O14 O 0.30086 0.56112 0.19586 0.0
O15 O 0.40111 0.65845 0.20326 0.0
O16 O 0.38852 0.77087 0.20386 0.0
O17 O 0.33667 0.83085 0.17929 0.0
O18 O 0.24289 0.73536 0.13306 0.0
O19 O 0.29869 0.66913 0.1391 0.0
C20 C 1.13776 0.58223 0.19561 0.0
O21 O 1.20613 0.82869 0.20368 0.0
O22 O 1.15245 0.77259 0.15733 0.0
C23 C 0.27212 0.72041 0.25365 0.0
C24 C 0.39507 0.56663 0.17028 0.0
C25 C 0.42153 0.51494 0.11273 0.0
C26 C 0.38844 0.46928 0.13834 0.0
C27 C 0.37551 0.49507 0.16697 0.0
C28 C 0.42826 0.61237 0.14482 0.0
C29 C 0.44189 0.58693 0.11648 0.0
C30 C 0.36973 0.5903 0.19722 0.0
C31 C 0.39277 0.8302 0.19349 0.0
H32 H 0.91712 0.74183 0.16407 0.0
H33 H 1.04238 0.82673 0.15744 0.0
H34 H 1.10498 0.72574 0.23371 0.0
H35 H 0.97976 0.63978 0.23959 0.0
H36 H 0.37217 0.41359 0.13618 0.0
H37 H 0.34825 0.45876 0.18607 0.0
H38 H 0.44247 0.66761 0.14644 0.0
H39 H 0.46947 0.62415 0.09776 0.0
Tb40 Tb 0.68821 0.13851 0.51354 0.0
Tb41 Tb 0.85881 0.21547 0.52628 0.0
C42 C 0.78126 0.19465 0.45259 0.0
C43 C 0.50789 1.01009 0.5291 0.0
C44 C 0.40952 0.87832 0.55159 0.0
C45 C 0.4796 0.89408 0.54787 0.0
C46 C 0.52846 0.95966 0.53656 0.0
C47 C 0.44129 0.99802 0.53672 0.0
C48 C 0.39236 0.93258 0.54814 0.0
C49 C 0.55512 1.07417 0.51259 0.0
O50 O 0.70947 1.04962 0.52109 0.0
O51 O 0.83172 1.10451 0.52096 0.0
O52 O 0.81936 0.15271 0.56935 0.0
O53 O 0.72235 0.16516 0.56546 0.0
O54 O 0.96035 0.24395 0.51174 0.0
O55 O 0.94855 0.28409 0.55803 0.0
O56 O 0.82702 0.29433 0.53929 0.0
O57 O 0.72069 0.25012 0.50835 0.0
O58 O 0.71787 0.15798 0.46337 0.0
O59 O 0.84021 0.22322 0.47263 0.0
C60 C 0.76896 1.04656 0.52206 0.0
O61 O 0.59639 1.12874 0.53234 0.0
O62 O 0.58933 1.06559 0.4895 0.0
C63 C 0.76171 0.14372 0.58163 0.0
C64 C 1.0203 0.36753 0.52085 0.0
C65 C 0.98883 0.45936 0.48448 0.0
C66 C 0.99362 0.46335 0.51921 0.0
C67 C 1.01014 0.41831 0.53735 0.0
C68 C 1.0301 0.37423 0.48689 0.0
C69 C 1.01332 0.41893 0.46877 0.0
C70 C 0.98999 0.29594 0.53415 0.0
C71 C 0.77393 0.3022 0.52637 0.0
H72 H 0.49445 0.85358 0.55058 0.0
H73 H 0.58064 0.96913 0.53166 0.0
H74 H 0.42556 1.0374 0.53189 0.0
H75 H 0.33877 0.92233 0.55067 0.0
H76 H 0.97936 0.49703 0.53235 0.0
H77 H 1.00504 0.41665 0.56378 0.0
H78 H 1.04079 0.33793 0.47352 0.0
H79 H 1.01586 0.41874 0.44219 0.0
Tb80 Tb 0.73355 0.61818 0.85315 0.0
Tb81 Tb 0.82895 0.78603 0.85691 0.0
C82 C 0.77606 0.70291 0.78802 0.0
C83 C 0.64617 0.42521 0.86467 0.0
C84 C 0.64231 0.30593 0.84042 0.0
C85 C 0.70836 0.36426 0.85225 0.0
C86 C 0.71022 0.42464 0.86451 0.0
C87 C 0.58113 0.36161 0.86197 0.0
C88 C 0.57931 0.30069 0.85038 0.0
C89 C 0.64536 0.48878 0.85539 0.0
O90 O 0.84072 0.63074 0.85029 0.0
O91 O 0.90857 0.75249 0.85821 0.0
O92 O 0.80233 0.74704 0.90622 0.0
O93 O 0.80135 0.64413 0.89817 0.0
O94 O 0.86041 0.88826 0.84097 0.0
O95 O 0.9112 0.8724 0.88539 0.0
O96 O 0.71837 0.76714 0.85403 0.0
O97 O 0.66708 0.65551 0.87277 0.0
O98 O 0.72416 0.65186 0.80309 0.0
O99 O 0.82934 0.75666 0.80529 0.0
C100 C 0.90355 0.6899 0.85495 0.0
O101 O 0.65908 0.53443 0.8794 0.0
O102 O 0.67882 0.51836 0.82918 0.0
C103 C 0.81398 0.69733 0.91755 0.0
C104 C 0.8756 0.95712 0.88763 0.0
C105 C 0.77142 0.99377 0.8926 0.0
C106 C 0.76725 0.93705 0.91033 0.0
C107 C 0.81989 0.91898 0.90809 0.0
C108 C 0.88734 1.02223 0.87613 0.0
C109 C 0.83544 1.04121 0.87911 0.0
C110 C 0.89963 0.91719 0.86867 0.0
C111 C 0.66357 0.71217 0.8659 0.0
H112 H 0.75837 0.36904 0.84635 0.0
H113 H 0.76101 0.4736 0.86777 0.0
H114 H 0.53136 0.36138 0.86336 0.0
H115 H 0.52797 0.25436 0.84331 0.0
H116 H 0.7185 0.90039 0.92117 0.0
H117 H 0.81042 0.86896 0.91773 0.0
H118 H 0.93013 1.05242 0.86046 0.0
H119 H 0.83936 1.08556 0.8654 0.0
C120 C 0.94051 0.386 0.21376 0.0
C121 C 0.94119 0.45075 0.20987 0.0
C122 C 1.06978 0.51525 0.20255 0.0
C123 C 1.00489 0.51431 0.20477 0.0
C124 C 1.0693 0.45082 0.20725 0.0
C125 C 1.00604 0.38756 0.21273 0.0
U126 U 0.77207 0.20901 0.24415 0.0
O127 O 0.66318 0.15945 0.21898 0.0
O128 O 0.72282 1.10309 0.21858 0.0
C129 C 0.66226 1.10104 0.20991 0.0
C130 C 0.87118 0.31628 0.21283 0.0
C131 C 0.59327 1.03163 0.21033 0.0
C132 C 0.4634 0.96448 0.19746 0.0
C133 C 0.52778 1.02936 0.20272 0.0
C134 C 0.5271 0.90121 0.20804 0.0
C135 C 0.46194 0.89924 0.19963 0.0
C136 C 0.5918 0.96632 0.21299 0.0
C137 C 0.78363 0.20899 0.34593 0.0
C138 C 0.72834 0.20377 0.39696 0.0
C139 C 0.84154 0.20707 0.39974 0.0
C140 C 0.84048 0.20894 0.36497 0.0
C141 C 0.78486 0.2034 0.41612 0.0
C142 C 0.72808 0.20723 0.36242 0.0
C143 C 0.78069 0.20905 0.30907 0.0
O144 O 0.87315 0.25837 0.21995 0.0
O145 O 0.8137 0.31465 0.22228 0.0
O146 O 0.74628 0.23547 0.29188 0.0
O147 O 0.81131 0.18292 0.29131 0.0
H148 H 0.89195 0.452 0.20977 0.0
H149 H 1.0032 0.56265 0.20178 0.0
H150 H 1.11794 0.44878 0.20627 0.0
H151 H 1.00825 0.33918 0.21503 0.0
H152 H 0.4146 0.96563 0.19142 0.0
H153 H 0.52643 1.07808 0.19979 0.0
H154 H 0.52847 0.85234 0.20998 0.0
H155 H 0.64093 0.96534 0.21806 0.0
H156 H 0.68387 0.20114 0.40871 0.0
H157 H 0.88553 0.20622 0.41371 0.0
H158 H 0.88402 0.21013 0.35296 0.0
H159 H 0.68341 0.20694 0.34853 0.0
C160 C 0.76494 0.84641 0.54249 0.0
C161 C 0.70111 0.84879 0.53752 0.0
C162 C 0.76679 0.9771 0.52867 0.0
C163 C 0.70203 0.91299 0.53095 0.0
C164 C 0.83047 0.97474 0.53423 0.0
C165 C 0.82955 0.91079 0.54088 0.0
U166 U 0.76804 0.67521 0.57865 0.0
O167 O 0.70936 0.56755 0.55419 0.0
O168 O 0.82602 0.62586 0.55821 0.0
C169 C 0.7676 0.56707 0.54769 0.0
C170 C 0.76427 0.77667 0.54347 0.0
C171 C 0.76741 0.49751 0.54665 0.0
C172 C 0.7115 0.37513 0.52343 0.0
C173 C 0.70931 0.43768 0.52982 0.0
C174 C 0.82914 0.42847 0.55163 0.0
C175 C 0.77188 0.3695 0.53374 0.0
C176 C 0.82751 0.49175 0.55751 0.0
C177 C 0.77311 0.68822 0.68052 0.0
C178 C 0.7157 0.64409 0.73191 0.0
C179 C 0.83304 0.74805 0.7341 0.0
C180 C 0.83236 0.74264 0.69943 0.0
C181 C 0.77472 0.69879 0.75093 0.0
C182 C 0.71476 0.63917 0.69725 0.0
C183 C 0.77135 0.68358 0.64358 0.0
O184 O 0.8233 0.77703 0.55371 0.0
O185 O 0.70693 0.71928 0.55169 0.0
O186 O 0.71147 0.64945 0.62449 0.0
O187 O 0.82956 0.71233 0.62767 0.0
H188 H 0.65006 0.80051 0.5378 0.0
H189 H 0.6517 0.91196 0.52714 0.0
H190 H 0.88167 1.02249 0.53314 0.0
H191 H 0.87993 0.91163 0.54382 0.0
H192 H 0.66565 0.33118 0.51004 0.0
H193 H 0.66247 0.43995 0.52055 0.0
H194 H 0.87581 0.42607 0.56087 0.0
H195 H 0.87393 0.53655 0.5701 0.0
H196 H 0.66988 0.60483 0.74378 0.0
H197 H 0.87963 0.79072 0.74772 0.0
H198 H 0.87808 0.7816 0.68738 0.0
H199 H 0.6683 0.59652 0.68353 0.0
C200 C 1.10308 0.68676 0.87452 0.0
C201 C 1.03775 0.62312 0.86724 0.0
C202 C 0.97168 0.68739 0.86089 0.0
C203 C 0.97296 0.62334 0.86075 0.0
C204 C 1.037 0.75067 0.86867 0.0
C205 C 1.10124 0.75039 0.87526 0.0
U206 U 0.2835 0.69541 0.91229 0.0
O207 O 0.33579 0.643 0.88945 0.0
O208 O 0.389 0.75883 0.89212 0.0
C209 C 0.39232 0.70284 0.88273 0.0
C210 C 1.17337 0.6883 0.8757 0.0
C211 C 0.4637 0.70656 0.88352 0.0
C212 C 0.53243 0.64656 0.87639 0.0
C213 C 0.46786 0.64416 0.88172 0.0
C214 C 0.5918 0.77367 0.8751 0.0
C215 C 0.59544 0.71138 0.87233 0.0
C216 C 0.52707 0.77154 0.88027 0.0
C217 C 0.28279 0.69866 1.0139 0.0
C218 C 0.28179 0.64648 0.06747 0.0
C219 C 0.27532 0.75395 0.06482 0.0
C220 C 0.27903 0.75336 0.03037 0.0
C221 C 0.27669 0.70058 0.0839 0.0
C222 C 0.28396 0.64509 0.03286 0.0
C223 C 0.28311 0.69665 0.97709 0.0
O224 O 0.23159 0.74784 0.8855 0.0
O225 O 1.17659 0.63211 0.88504 0.0
O226 O 0.2589 0.63762 0.9591 0.0
O227 O 0.3085 0.75473 0.96023 0.0
H228 H 1.03687 0.57307 0.86573 0.0
H229 H 0.92408 0.57337 0.85532 0.0
H230 H 1.03902 0.80132 0.86947 0.0
H231 H 1.15 0.80074 0.88007 0.0
H232 H 0.53234 0.59692 0.87466 0.0
H233 H 0.42051 0.59286 0.88334 0.0
H234 H 0.63931 0.82395 0.87343 0.0
H235 H 0.52642 0.8209 0.88089 0.0
H236 H 0.28282 0.60442 0.08129 0.0
H237 H 0.27191 0.7967 0.07655 0.0
H238 H 0.27772 0.79525 0.01652 0.0
H239 H 0.2867 0.60213 0.02094 0.0
C240 C 0.96198 0.59012 0.41684 0.0
C241 C 0.92476 0.51709 0.40886 0.0
C242 C 0.96044 0.49794 0.4643 0.0
C243 C 0.92589 0.47096 0.43252 0.0
C244 C 0.9761 0.56627 0.47427 0.0
C245 C 0.97319 0.61138 0.4506 0.0
U246 U 1.1514 0.69334 0.42691 0.0
O247 O 1.15626 0.73514 0.47691 0.0
O248 O 1.14813 0.63126 0.47014 0.0
C249 C 1.15961 0.68249 0.49117 0.0
C250 C 1.02357 0.63252 0.39763 0.0
C251 C 0.22112 0.70571 0.51523 0.0
C252 C 0.2868 0.78511 0.56246 0.0
C253 C 0.22181 0.73645 0.54569 0.0
C254 C 0.34952 0.7626 0.52129 0.0
C255 C 0.3507 0.80419 0.54815 0.0
C256 C 0.2848 0.71408 0.50461 0.0
C257 C 0.27171 0.7401 0.35852 0.0
C258 C 0.29659 0.79451 0.30525 0.0
C259 C 0.25123 0.66821 0.30871 0.0
C260 C 0.24997 0.674 0.34271 0.0
C261 C 0.27382 0.72813 0.28966 0.0
C262 C 0.29599 0.80052 0.33954 0.0
C263 C 0.26495 0.74456 0.39425 0.0
O264 O 1.06503 0.60465 0.39679 0.0
O265 O 1.05944 0.70123 0.40499 0.0
O266 O 0.23842 0.78397 0.40361 0.0
O267 O 0.23819 0.68354 0.4086 0.0
H268 H 0.91059 0.49819 0.38319 0.0
H269 H 0.90753 0.41652 0.42479 0.0
H270 H 0.99924 0.58823 0.49897 0.0
H271 H 0.99647 0.66688 0.45796 0.0
H272 H 0.28664 0.81535 0.58364 0.0
H273 H 1.17283 0.72971 0.55434 0.0
H274 H 0.39778 0.77523 0.50979 0.0
H275 H 0.28531 0.69031 0.48121 0.0
H276 H 0.31479 0.84163 0.29097 0.0
H277 H 0.23281 0.61633 0.29726 0.0
H278 H 0.23059 0.62601 0.35639 0.0
H279 H 0.31322 0.85199 0.35113 0.0
C280 C 0.6189 1.0032 0.82738 0.0
C281 C 0.63846 0.95245 0.82146 0.0
C282 C 0.70622 0.98482 0.875 0.0
C283 C 0.68317 0.94436 0.84499 0.0
C284 C 0.67893 1.0286 0.88263 0.0
C285 C 0.63467 1.03742 0.85878 0.0
U286 U 0.62363 1.05337 0.73585 0.0
O287 O 0.57444 1.11423 0.71513 0.0
O288 O 0.69055 0.16019 0.71788 0.0
C289 C 0.63749 0.17246 0.71864 0.0
C290 C 0.60951 1.04013 0.79951 0.0
C291 C 0.64694 0.22083 0.74628 0.0
C292 C 0.69321 0.25436 0.80392 0.0
C293 C 0.69826 0.2324 0.7727 0.0
C294 C 0.59046 0.26222 0.78246 0.0
C295 C 0.63935 0.2695 0.80925 0.0
C296 C 0.5937 0.23718 0.75134 0.0
C297 C 0.67247 1.00886 0.66253 0.0
C298 C 0.66998 1.08935 0.62177 0.0
C299 C 0.76518 1.06157 0.6243 0.0
C300 C 0.7351 1.01704 0.65053 0.0
C301 C 0.73342 1.09912 0.61017 0.0
C302 C 0.63992 1.04483 0.64751 0.0
C303 C 0.65218 0.98151 0.6955 0.0
O304 O 0.66989 1.08137 0.78665 0.0
O305 O 0.5556 1.00437 0.77717 0.0
O306 O 0.5856 0.96131 0.7012 0.0
O307 O 0.69936 1.02307 0.71931 0.0
H308 H 0.62804 0.92704 0.7971 0.0
H309 H 0.7061 0.91235 0.83823 0.0
H310 H 0.69756 1.06116 0.90533 0.0
H311 H 0.62081 1.0779 0.86329 0.0
H312 H 0.73191 0.25993 0.82385 0.0
H313 H 0.74023 0.22008 0.77011 0.0
H314 H 0.54994 0.27649 0.78532 0.0
H315 H 0.55301 0.22775 0.73172 0.0
H316 H 0.64375 1.11697 0.61134 0.0
H317 H 0.81355 1.06726 0.61541 0.0
H318 H 0.76243 0.99178 0.66243 0.0
H319 H 0.5931 1.04198 0.65687 0.0
C320 C 0.74274 0.52973 0.15852 0.0
C321 C 0.80229 0.52093 0.15706 0.0
C322 C 0.86985 0.62089 0.19594 0.0
C323 C 0.86568 0.56673 0.17554 0.0
C324 C 0.80782 0.62259 0.20131 0.0
C325 C 0.74397 0.57623 0.18299 0.0
U326 U 0.71256 0.55134 0.06884 0.0
O327 O 0.63367 0.48132 0.02886 0.0
O328 O 0.6418 0.58277 0.04253 0.0
C329 C 0.60243 0.51995 0.02769 0.0
C330 C 0.69078 0.50928 0.12948 0.0
C331 C 0.52963 0.48568 0.03764 0.0
C332 C 0.47361 0.44759 0.08897 0.0
C333 C 0.51595 0.44437 0.06569 0.0
C334 C 0.44552 0.52047 0.05294 0.0
C335 C 0.44283 0.49049 0.08394 0.0
C336 C 0.48906 0.51821 0.02983 0.0
C337 C 0.85464 0.67289 0.0193 0.0
C338 C 0.81869 0.73016 0.97674 0.0
C339 C 0.87062 0.65912 0.96183 0.0
C340 C 0.88025 0.64744 0.99509 0.0
C341 C 0.83639 0.69741 0.95244 0.0
C342 C 0.82764 0.71793 1.01 0.0
C343 C 0.83941 0.63867 0.05138 0.0
O344 O 0.68384 0.56229 0.11831 0.0
O345 O 0.69591 0.47122 0.10568 0.0
O346 O 0.81226 0.56934 0.04956 0.0
O347 O 0.80571 0.6586 0.07055 0.0
H348 H 0.80307 0.48522 0.1387 0.0
H349 H 0.91336 0.56586 0.17029 0.0
H350 H 0.81046 0.66447 0.21682 0.0
H351 H 0.69837 0.58338 0.18476 0.0
H352 H 0.47267 0.42367 0.11248 0.0
H353 H 0.54682 0.41896 0.07241 0.0
H354 H 0.42026 0.552 0.048 0.0
H355 H 0.49901 0.55054 1.00837 0.0
H356 H 0.793 0.76061 0.97 0.0
H357 H 0.88645 0.63494 0.94334 0.0
H358 H 0.90179 0.61324 1.00157 0.0
H359 H 0.8078 0.73905 0.028 0.0
loop_
_geom_bond_atom_site_label_1
_geom_bond_atom_site_label_2
_geom_bond_distance
_geom_bond_site_symmetry_2
_ccdc_geom_bond_type
Tb0 C9 2.764 . S
Tb0 O10 2.325 . S
Tb0 O13 2.303 1_655 S
Tb0 O17 2.322 1_655 S
Tb0 O18 2.349 1_655 S
Tb0 O21 2.415 . S
Tb0 O22 2.399 . S
Tb1 O11 2.322 1_455 S
Tb1 O12 2.349 . S
Tb1 O14 2.415 . S
Tb1 O15 2.399 . S
Tb1 O16 2.325 . S
Tb1 O19 2.303 . S
Tb1 C30 2.764 . S
C2 O18 1.261 . S
C2 O19 1.257 . S
C3 C6 1.358 . S
C3 C7 1.332 . S
C3 C9 1.504 . S
C4 C5 1.373 . S
C4 C8 1.308 . S
C5 C4 1.373 . S
C5 C6 1.429 . S
C5 H32 0.932 . S
C6 C3 1.358 . S
C6 C5 1.429 . S
C6 H33 0.930 . S
C7 C3 1.332 . S
C7 C8 1.394 . S
C7 H34 0.932 . S
C8 C4 1.308 . S
C8 C7 1.394 . S
C8 H35 0.929 . S
C9 Tb0 2.764 . S
C9 C3 1.504 . S
C9 O21 1.239 . S
C9 O22 1.263 . S
O10 Tb0 2.325 . S
O10 C20 1.236 . S
O11 Tb1 2.322 1_655 S
O11 C20 1.257 . S
O12 Tb1 2.349 . S
O12 C23 1.261 . S
O13 Tb0 2.303 1_455 S
O13 C23 1.257 . S
O14 Tb1 2.415 . S
O14 C30 1.239 . S
O15 Tb1 2.399 . S
O15 C30 1.263 . S
O16 Tb1 2.325 . S
O16 C31 1.236 . S
O17 Tb0 2.322 1_455 S
O17 C31 1.257 . S
O18 Tb0 2.349 1_455 S
O18 C2 1.261 . S
O19 Tb1 2.303 . S
O19 C2 1.257 . S
C20 O10 1.236 . S
C20 O11 1.257 . S
O21 Tb0 2.415 . S
O21 C9 1.239 . S
O22 Tb0 2.399 . S
O22 C9 1.263 . S
C23 O12 1.261 . S
C23 O13 1.257 . S
C24 C27 1.358 . S
C24 C28 1.332 . S
C24 C30 1.504 . S
C25 C26 1.373 . S
C25 C29 1.308 . S
C26 C25 1.373 . S
C26 C27 1.429 . S
C26 H36 0.932 . S
C27 C24 1.358 . S
C27 C26 1.429 . S
C27 H37 0.930 . S
C28 C24 1.332 . S
C28 C29 1.394 . S
C28 H38 0.932 . S
C29 C25 1.308 . S
C29 C28 1.394 . S
C29 H39 0.929 . S
C30 Tb1 2.764 . S
C30 O14 1.239 . S
C30 O15 1.263 . S
C30 C24 1.504 . S
C31 O16 1.236 . S
C31 O17 1.257 . S
H32 C5 0.932 . S
H33 C6 0.930 . S
H34 C7 0.932 . S
H35 C8 0.929 . S
H36 C26 0.932 . S
H37 C27 0.930 . S
H38 C28 0.932 . S
H39 C29 0.929 . S
Tb40 C49 2.764 . S
Tb40 O50 2.325 . S
Tb40 O53 2.303 1_565 S
Tb40 O57 2.322 1_565 S
Tb40 O58 2.349 1_565 S
Tb40 O61 2.415 . S
Tb40 O62 2.399 . S
Tb41 O51 2.322 1_545 S
Tb41 O52 2.349 . S
Tb41 O54 2.415 . S
Tb41 O55 2.399 . S
Tb41 O56 2.325 . S
Tb41 O59 2.303 . S
Tb41 C70 2.764 . S
C42 O58 1.261 . S
C42 O59 1.257 . S
C43 C46 1.358 . S
C43 C47 1.332 . S
C43 C49 1.504 . S
C44 C45 1.373 . S
C44 C48 1.308 . S
C45 C44 1.373 . S
C45 C46 1.429 . S
C45 H72 0.932 . S
C46 C43 1.358 . S
C46 C45 1.429 . S
C46 H73 0.930 . S
C47 C43 1.332 . S
C47 C48 1.394 . S
C47 H74 0.932 . S
C48 C44 1.308 . S
C48 C47 1.394 . S
C48 H75 0.929 . S
C49 Tb40 2.764 . S
C49 C43 1.504 . S
C49 O61 1.239 . S
C49 O62 1.263 . S
O50 Tb40 2.325 . S
O50 C60 1.236 . S
O51 Tb41 2.322 1_565 S
O51 C60 1.257 . S
O52 Tb41 2.349 . S
O52 C63 1.261 . S
O53 Tb40 2.303 1_545 S
O53 C63 1.257 . S
O54 Tb41 2.415 . S
O54 C70 1.239 . S
O55 Tb41 2.399 . S
O55 C70 1.263 . S
O56 Tb41 2.325 . S
O56 C71 1.236 . S
O57 Tb40 2.322 1_545 S
O57 C71 1.257 . S
O58 Tb40 2.349 1_545 S
O58 C42 1.261 . S
O59 Tb41 2.303 . S
O59 C42 1.257 . S
C60 O50 1.236 . S
C60 O51 1.257 . S
O61 Tb40 2.415 . S
O61 C49 1.239 . S
O62 Tb40 2.399 . S
O62 C49 1.263 . S
C63 O52 1.261 . S
C63 O53 1.257 . S
C64 C67 1.358 . S
C64 C68 1.332 . S
C64 C70 1.504 . S
C65 C66 1.373 . S
C65 C69 1.308 . S
C66 C65 1.373 . S
C66 C67 1.429 . S
C66 H76 0.932 . S
C67 C64 1.358 . S
C67 C66 1.429 . S
C67 H77 0.930 . S
C68 C64 1.332 . S
C68 C69 1.394 . S
C68 H78 0.932 . S
C69 C65 1.308 . S
C69 C68 1.394 . S
C69 H79 0.929 . S
C70 Tb41 2.764 . S
C70 O54 1.239 . S
C70 O55 1.263 . S
C70 C64 1.504 . S
C71 O56 1.236 . S
C71 O57 1.257 . S
H72 C45 0.932 . S
H73 C46 0.930 . S
H74 C47 0.932 . S
H75 C48 0.929 . S
H76 C66 0.932 . S
H77 C67 0.930 . S
H78 C68 0.932 . S
H79 C69 0.929 . S
Tb80 C89 2.764 . S
Tb80 O90 2.325 . S
Tb80 O93 2.303 . S
Tb80 O97 2.322 . S
Tb80 O98 2.349 . S
Tb80 O101 2.415 . S
Tb80 O102 2.399 . S
Tb81 O91 2.322 . S
Tb81 O92 2.349 . S
Tb81 O94 2.415 . S
Tb81 O95 2.399 . S
Tb81 O96 2.325 . S
Tb81 O99 2.303 . S
Tb81 C110 2.764 . S
C82 O98 1.261 . S
C82 O99 1.257 . S
C83 C86 1.358 . S
C83 C87 1.332 . S
C83 C89 1.504 . S
C84 C85 1.373 . S
C84 C88 1.308 . S
C85 C84 1.373 . S
C85 C86 1.429 . S
C85 H112 0.932 . S
C86 C83 1.358 . S
C86 C85 1.429 . S
C86 H113 0.930 . S
C87 C83 1.332 . S
C87 C88 1.394 . S
C87 H114 0.932 . S
C88 C84 1.308 . S
C88 C87 1.394 . S
C88 H115 0.929 . S
C89 Tb80 2.764 . S
C89 C83 1.504 . S
C89 O101 1.239 . S
C89 O102 1.263 . S
O90 Tb80 2.325 . S
O90 C100 1.236 . S
O91 Tb81 2.322 . S
O91 C100 1.257 . S
O92 Tb81 2.349 . S
O92 C103 1.261 . S
O93 Tb80 2.303 . S
O93 C103 1.257 . S
O94 Tb81 2.415 . S
O94 C110 1.239 . S
O95 Tb81 2.399 . S
O95 C110 1.263 . S
O96 Tb81 2.325 . S
O96 C111 1.236 . S
O97 Tb80 2.322 . S
O97 C111 1.257 . S
O98 Tb80 2.349 . S
O98 C82 1.261 . S
O99 Tb81 2.303 . S
O99 C82 1.257 . S
C100 O90 1.236 . S
C100 O91 1.257 . S
O101 Tb80 2.415 . S
O101 C89 1.239 . S
O102 Tb80 2.399 . S
O102 C89 1.263 . S
C103 O92 1.261 . S
C103 O93 1.257 . S
C104 C107 1.358 . S
C104 C108 1.332 . S
C104 C110 1.504 . S
C105 C106 1.373 . S
C105 C109 1.308 . S
C106 C105 1.373 . S
C106 C107 1.429 . S
C106 H116 0.932 . S
C107 C104 1.358 . S
C107 C106 1.429 . S
C107 H117 0.930 . S
C108 C104 1.332 . S
C108 C109 1.394 . S
C108 H118 0.932 . S
C109 C105 1.308 . S
C109 C108 1.394 . S
C109 H119 0.929 . S
C110 Tb81 2.764 . S
C110 O94 1.239 . S
C110 O95 1.263 . S
C110 C104 1.504 . S
C111 O96 1.236 . S
C111 O97 1.257 . S
H112 C85 0.932 . S
H113 C86 0.930 . S
H114 C87 0.932 . S
H115 C88 0.929 . S
H116 C106 0.932 . S
H117 C107 0.930 . S
H118 C108 0.932 . S
H119 C109 0.929 . S
C120 C121 1.264 . S
C120 C125 1.479 . S
C120 C130 1.465 . S
C121 C120 1.264 . S
C121 C123 1.339 . S
C121 H148 0.931 . S
C122 C123 1.395 . S
C122 C124 1.320 . S
C123 C121 1.339 . S
C123 C122 1.395 . S
C123 H149 0.929 . S
C124 C122 1.320 . S
C124 C125 1.405 . S
C124 H150 0.930 . S
C125 C120 1.479 . S
C125 C124 1.405 . S
C125 H151 0.931 . S
U126 O127 2.454 1_545 S
U126 O128 2.458 1_545 S
U126 C129 2.984 1_545 S
U126 C130 2.847 . S
U126 C143 2.882 . S
U126 O144 2.441 . S
U126 O145 2.420 . S
U126 O146 2.455 . S
U126 O147 2.449 . S
O127 U126 2.454 1_565 S
O127 C129 1.353 . S
O128 U126 2.458 1_565 S
O128 C129 1.286 . S
C129 U126 2.984 1_565 S
C129 O127 1.353 . S
C129 O128 1.286 . S
C129 C131 1.363 . S
C130 C120 1.465 . S
C130 U126 2.847 . S
C130 O144 1.249 . S
C130 O145 1.202 . S
C131 C129 1.363 . S
C131 C133 1.408 . S
C131 C136 1.342 . S
C132 C133 1.310 . S
C132 C135 1.461 . S
C132 H152 0.932 . S
C133 C131 1.408 . S
C133 C132 1.310 . S
C133 H153 0.930 . S
C134 C135 1.474 . S
C134 C136 1.285 . S
C134 H154 0.929 . S
C135 C132 1.461 . S
C135 C134 1.474 . S
C136 C131 1.342 . S
C136 C134 1.285 . S
C136 H155 0.930 . S
C137 C140 1.424 . S
C137 C142 1.245 . S
C137 C143 1.428 . S
C138 C141 1.260 . S
C138 C142 1.477 . S
C138 H156 0.932 . S
C139 C140 1.384 . S
C139 C141 1.479 . S
C139 H157 0.929 . S
C140 C137 1.424 . S
C140 C139 1.384 . S
C140 H158 0.928 . S
C141 C138 1.260 . S
C141 C139 1.479 . S
C142 C137 1.245 . S
C142 C138 1.477 . S
C142 H159 0.932 1_545 S
C143 U126 2.882 . S
C143 C137 1.428 . S
C143 O146 1.301 . S
C143 O147 1.282 . S
O144 U126 2.441 . S
O144 C130 1.249 . S
O145 U126 2.420 . S
O145 C130 1.202 . S
O146 U126 2.455 . S
O146 C143 1.301 . S
O147 U126 2.449 . S
O147 C143 1.282 . S
H148 C121 0.931 . S
H149 C123 0.929 . S
H150 C124 0.930 . S
H151 C125 0.931 . S
H152 C132 0.932 . S
H153 C133 0.930 . S
H154 C134 0.929 . S
H155 C136 0.930 . S
H156 C138 0.932 . S
H157 C139 0.929 . S
H158 C140 0.928 . S
H159 C142 0.932 1_565 S
C160 C161 1.264 . S
C160 C165 1.479 . S
C160 C170 1.465 . S
C161 C160 1.264 . S
C161 C163 1.339 . S
C161 H188 0.931 . S
C162 C163 1.395 . S
C162 C164 1.320 . S
C163 C161 1.339 . S
C163 C162 1.395 . S
C163 H189 0.929 . S
C164 C162 1.320 . S
C164 C165 1.405 . S
C164 H190 0.930 . S
C165 C160 1.479 . S
C165 C164 1.405 . S
C165 H191 0.931 . S
U166 O167 2.454 . S
U166 O168 2.458 . S
U166 C169 2.984 . S
U166 C170 2.847 . S
U166 C183 2.882 . S
U166 O184 2.441 . S
U166 O185 2.420 . S
U166 O186 2.455 . S
U166 O187 2.449 . S
O167 U166 2.454 . S
O167 C169 1.353 . S
O168 U166 2.458 . S
O168 C169 1.286 . S
C169 U166 2.984 . S
C169 O167 1.353 . S
C169 O168 1.286 . S
C169 C171 1.363 . S
C170 C160 1.465 . S
C170 U166 2.847 . S
C170 O184 1.249 . S
C170 O185 1.202 . S
C171 C169 1.363 . S
C171 C173 1.408 . S
C171 C176 1.342 . S
C172 C173 1.310 . S
C172 C175 1.461 . S
C172 H192 0.932 . S
C173 C171 1.408 . S
C173 C172 1.310 . S
C173 H193 0.930 . S
C174 C175 1.474 . S
C174 C176 1.285 . S
C174 H194 0.929 . S
C175 C172 1.461 . S
C175 C174 1.474 . S
C176 C171 1.342 . S
C176 C174 1.285 . S
C176 H195 0.930 . S
C177 C180 1.424 . S
C177 C182 1.245 . S
C177 C183 1.428 . S
C178 C181 1.260 . S
C178 C182 1.477 . S
C178 H196 0.932 . S
C179 C180 1.384 . S
C179 C181 1.479 . S
C179 H197 0.929 . S
C180 C177 1.424 . S
C180 C179 1.384 . S
C180 H198 0.928 . S
C181 C178 1.260 . S
C181 C179 1.479 . S
C182 C177 1.245 . S
C182 C178 1.477 . S
C182 H199 0.932 . S
C183 U166 2.882 . S
C183 C177 1.428 . S
C183 O186 1.301 . S
C183 O187 1.282 . S
O184 U166 2.441 . S
O184 C170 1.249 . S
O185 U166 2.420 . S
O185 C170 1.202 . S
O186 U166 2.455 . S
O186 C183 1.301 . S
O187 U166 2.449 . S
O187 C183 1.282 . S
H188 C161 0.931 . S
H189 C163 0.929 . S
H190 C164 0.930 . S
H191 C165 0.931 . S
H192 C172 0.932 . S
H193 C173 0.930 . S
H194 C174 0.929 . S
H195 C176 0.930 . S
H196 C178 0.932 . S
H197 C179 0.929 . S
H198 C180 0.928 . S
H199 C182 0.932 . S
C200 C201 1.264 . S
C200 C205 1.479 . S
C200 C210 1.465 . S
C201 C200 1.264 . S
C201 C203 1.339 . S
C201 H228 0.931 . S
C202 C203 1.395 . S
C202 C204 1.320 . S
C203 C201 1.339 . S
C203 C202 1.395 . S
C203 H229 0.929 . S
C204 C202 1.320 . S
C204 C205 1.405 . S
C204 H230 0.930 . S
C205 C200 1.479 . S
C205 C204 1.405 . S
C205 H231 0.931 . S
U206 O207 2.454 . S
U206 O208 2.458 . S
U206 C209 2.984 . S
U206 C210 2.847 1_455 S
U206 C223 2.882 . S
U206 O224 2.441 . S
U206 O225 2.420 1_455 S
U206 O226 2.455 . S
U206 O227 2.449 . S
O207 U206 2.454 . S
O207 C209 1.353 . S
O208 U206 2.458 . S
O208 C209 1.286 . S
C209 U206 2.984 . S
C209 O207 1.353 . S
C209 O208 1.286 . S
C209 C211 1.363 . S
C210 C200 1.465 . S
C210 U206 2.847 1_655 S
C210 O224 1.249 1_655 S
C210 O225 1.202 . S
C211 C209 1.363 . S
C211 C213 1.408 . S
C211 C216 1.342 . S
C212 C213 1.310 . S
C212 C215 1.461 . S
C212 H232 0.932 . S
C213 C211 1.408 . S
C213 C212 1.310 . S
C213 H233 0.930 . S
C214 C215 1.474 . S
C214 C216 1.285 . S
C214 H234 0.929 . S
C215 C212 1.461 . S
C215 C214 1.474 . S
C216 C211 1.342 . S
C216 C214 1.285 . S
C216 H235 0.930 . S
C217 C220 1.440 . S
C217 C222 1.264 . S
C217 C223 1.392 1_554 S
C218 C221 1.260 . S
C218 C222 1.477 . S
C218 H236 0.932 . S
C219 C220 1.384 . S
C219 C221 1.479 . S
C219 H237 0.929 1_455 S
C220 C217 1.440 . S
C220 C219 1.384 . S
C220 H238 0.928 1_455 S
C221 C218 1.260 . S
C221 C219 1.479 . S
C222 C217 1.264 . S
C222 C218 1.477 . S
C222 H239 0.932 . S
C223 U206 2.882 . S
C223 C217 1.392 1_556 S
C223 O226 1.301 . S
C223 O227 1.282 . S
O224 U206 2.441 . S
O224 C210 1.249 1_455 S
O225 U206 2.420 1_655 S
O225 C210 1.202 . S
O226 U206 2.455 . S
O226 C223 1.301 . S
O227 U206 2.449 . S
O227 C223 1.282 . S
H228 C201 0.931 . S
H229 C203 0.929 . S
H230 C204 0.930 . S
H231 C205 0.931 . S
H232 C212 0.932 . S
H233 C213 0.930 . S
H234 C214 0.929 . S
H235 C216 0.930 . S
H236 C218 0.932 . S
H237 C219 0.929 1_655 S
H238 C220 0.928 1_655 S
H239 C222 0.932 . S
C240 C241 1.264 . S
C240 C245 1.479 . S
C240 C250 1.465 . S
C241 C240 1.264 . S
C241 C243 1.339 . S
C241 H268 0.931 . S
C242 C243 1.395 . S
C242 C244 1.320 . S
C243 C241 1.339 . S
C243 C242 1.395 . S
C243 H269 0.929 . S
C244 C242 1.320 . S
C244 C245 1.405 . S
C244 H270 0.930 . S
C245 C240 1.479 . S
C245 C244 1.405 . S
C245 H271 0.931 . S
U246 O247 2.454 1_655 S
U246 O248 2.458 1_655 S
U246 C249 2.984 1_655 S
U246 C250 2.847 . S
U246 C263 2.882 . S
U246 O264 2.441 . S
U246 O265 2.420 . S
U246 O266 2.455 1_655 S
U246 O267 2.449 . S
O247 U246 2.454 1_455 S
O247 C249 1.353 . S
O248 U246 2.458 1_455 S
O248 C249 1.286 . S
C249 U246 2.984 1_455 S
C249 O247 1.353 . S
C249 O248 1.286 . S
C249 C251 1.363 . S
C250 C240 1.465 . S
C250 U246 2.847 . S
C250 O264 1.249 . S
C250 O265 1.202 . S
C251 C249 1.363 . S
C251 C253 1.408 . S
C251 C256 1.342 . S
C252 C253 1.310 . S
C252 C255 1.461 . S
C252 H272 0.932 . S
C253 C251 1.408 . S
C253 C252 1.310 . S
C253 H273 0.930 . S
C254 C255 1.474 . S
C254 C256 1.285 . S
C254 H274 0.929 . S
C255 C252 1.461 . S
C255 C254 1.474 . S
C256 C251 1.342 . S
C256 C254 1.285 . S
C256 H275 0.930 . S
C257 C260 1.424 . S
C257 C262 1.245 1_655 S
C257 C263 1.428 . S
C258 C261 1.260 1_455 S
C258 C262 1.477 . S
C258 H276 0.932 . S
C259 C260 1.384 . S
C259 C261 1.479 . S
C259 H277 0.929 . S
C260 C257 1.424 . S
C260 C259 1.384 . S
C260 H278 0.928 . S
C261 C258 1.260 1_655 S
C261 C259 1.479 . S
C262 C257 1.245 1_455 S
C262 C258 1.477 . S
C262 H279 0.932 . S
C263 U246 2.882 . S
C263 C257 1.428 . S
C263 O266 1.301 1_655 S
C263 O267 1.282 . S
O264 U246 2.441 . S
O264 C250 1.249 . S
O265 U246 2.420 . S
O265 C250 1.202 . S
O266 U246 2.455 1_455 S
O266 C263 1.301 1_455 S
O267 U246 2.449 . S
O267 C263 1.282 . S
H268 C241 0.931 . S
H269 C243 0.929 . S
H270 C244 0.930 . S
H271 C245 0.931 . S
H272 C252 0.932 . S
H273 C253 0.930 . S
H274 C254 0.929 . S
H275 C256 0.930 . S
H276 C258 0.932 . S
H277 C259 0.929 . S
H278 C260 0.928 . S
H279 C262 0.932 . S
C280 C281 1.264 . S
C280 C285 1.479 . S
C280 C290 1.465 . S
C281 C280 1.264 . S
C281 C283 1.339 . S
C281 H308 0.931 . S
C282 C283 1.395 . S
C282 C284 1.320 . S
C283 C281 1.339 . S
C283 C282 1.395 . S
C283 H309 0.929 . S
C284 C282 1.320 . S
C284 C285 1.405 . S
C284 H310 0.930 . S
C285 C280 1.479 . S
C285 C284 1.405 . S
C285 H311 0.931 . S
U286 O287 2.454 1_565 S
U286 O288 2.458 1_565 S
U286 C289 2.984 1_565 S
U286 C290 2.847 . S
U286 C303 2.882 . S
U286 O304 2.441 . S
U286 O305 2.420 . S
U286 O306 2.455 1_565 S
U286 O307 2.449 . S
O287 U286 2.454 1_545 S
O287 C289 1.353 . S
O288 U286 2.458 1_545 S
O288 C289 1.286 . S
C289 U286 2.984 1_545 S
C289 O287 1.353 . S
C289 O288 1.286 . S
C289 C291 1.363 . S
C290 C280 1.465 . S
C290 U286 2.847 . S
C290 O304 1.249 . S
C290 O305 1.202 . S
C291 C289 1.363 . S
C291 C293 1.408 . S
C291 C296 1.342 . S
C292 C293 1.310 . S
C292 C295 1.461 . S
C292 H312 0.932 . S
C293 C291 1.408 . S
C293 C292 1.310 . S
C293 H313 0.930 . S
C294 C295 1.474 . S
C294 C296 1.285 . S
C294 H314 0.929 . S
C295 C292 1.461 . S
C295 C294 1.474 . S
C296 C291 1.342 . S
C296 C294 1.285 . S
C296 H315 0.930 . S
C297 C300 1.424 . S
C297 C302 1.245 1_565 S
C297 C303 1.428 . S
C298 C301 1.260 1_545 S
C298 C302 1.477 . S
C298 H316 0.932 . S
C299 C300 1.384 . S
C299 C301 1.479 . S
C299 H317 0.929 . S
C300 C297 1.424 . S
C300 C299 1.384 . S
C300 H318 0.928 . S
C301 C298 1.260 1_565 S
C301 C299 1.479 . S
C302 C297 1.245 1_545 S
C302 C298 1.477 . S
C302 H319 0.932 . S
C303 U286 2.882 . S
C303 C297 1.428 . S
C303 O306 1.301 1_565 S
C303 O307 1.282 . S
O304 U286 2.441 . S
O304 C290 1.249 . S
O305 U286 2.420 . S
O305 C290 1.202 . S
O306 U286 2.455 1_545 S
O306 C303 1.301 1_545 S
O307 U286 2.449 . S
O307 C303 1.282 . S
H308 C281 0.931 . S
H309 C283 0.929 . S
H310 C284 0.930 . S
H311 C285 0.931 . S
H312 C292 0.932 . S
H313 C293 0.930 . S
H314 C294 0.929 . S
H315 C296 0.930 . S
H316 C298 0.932 . S
H317 C299 0.929 . S
H318 C300 0.928 . S
H319 C302 0.932 . S
C320 C321 1.264 . S
C320 C325 1.479 . S
C320 C330 1.465 . S
C321 C320 1.264 . S
C321 C323 1.339 . S
C321 H348 0.931 . S
C322 C323 1.395 . S
C322 C324 1.320 . S
C323 C321 1.339 . S
C323 C322 1.395 . S
C323 H349 0.929 . S
C324 C322 1.320 . S
C324 C325 1.405 . S
C324 H350 0.930 . S
C325 C320 1.479 . S
C325 C324 1.405 . S
C325 H351 0.931 . S
U326 O327 2.454 . S
U326 O328 2.458 . S
U326 C329 2.984 . S
U326 C330 2.847 . S
U326 C343 2.882 . S
U326 O344 2.441 . S
U326 O345 2.420 . S
U326 O346 2.455 . S
U326 O347 2.449 . S
O327 U326 2.454 . S
O327 C329 1.353 . S
O328 U326 2.458 . S
O328 C329 1.286 . S
C329 U326 2.984 . S
C329 O327 1.353 . S
C329 O328 1.286 . S
C329 C331 1.363 . S
C330 C320 1.465 . S
C330 U326 2.847 . S
C330 O344 1.249 . S
C330 O345 1.202 . S
C331 C329 1.363 . S
C331 C333 1.408 . S
C331 C336 1.342 . S
C332 C333 1.310 . S
C332 C335 1.461 . S
C332 H352 0.932 . S
C333 C331 1.408 . S
C333 C332 1.310 . S
C333 H353 0.930 . S
C334 C335 1.474 . S
C334 C336 1.285 . S
C334 H354 0.929 . S
C335 C332 1.461 . S
C335 C334 1.474 . S
C336 C331 1.342 . S
C336 C334 1.285 . S
C336 H355 0.930 . S
C337 C340 1.424 . S
C337 C342 1.245 . S
C337 C343 1.428 1_556 S
C338 C341 1.260 . S
C338 C342 1.477 . S
C338 H356 0.932 . S
C339 C340 1.384 . S
C339 C341 1.479 . S
C339 H357 0.929 . S
C340 C337 1.424 . S
C340 C339 1.384 . S
C340 H358 0.928 . S
C341 C338 1.260 . S
C341 C339 1.479 . S
C342 C337 1.245 . S
C342 C338 1.477 . S
C342 H359 0.932 . S
C343 U326 2.882 . S
C343 C337 1.428 1_554 S
C343 O346 1.301 . S
C343 O347 1.282 . S
O344 U326 2.441 . S
O344 C330 1.249 . S
O345 U326 2.420 . S
O345 C330 1.202 . S
O346 U326 2.455 . S
O346 C343 1.301 . S
O347 U326 2.449 . S
O347 C343 1.282 . S
H348 C321 0.931 . S
H349 C323 0.929 . S
H350 C324 0.930 . S
H351 C325 0.931 . S
H352 C332 0.932 . S
H353 C333 0.930 . S
H354 C334 0.929 . S
H355 C336 0.930 . S
H356 C338 0.932 . S
H357 C339 0.929 . S
H358 C340 0.928 . S
H359 C342 0.932 . S
C25 C335 1.911 . S
C65 C242 2.034 . S
C105 C282 2.444 . S
C4 C322 2.404 . S
C255 C44 1.506 . S
C295 C84 1.794 . S
C60 C162 4.909 . S
C100 C202 5.253 . S
C31 C135 5.314 . S
C175 C71 5.299 . S
C215 C111 4.968 . S
C20 C122 4.903 . S
C221 C2 2.051 . S
C42 C141 2.156 . S
C82 C181 2.126 . S
C301 C63 1.864 1_565 S
C341 C103 2.016 . S
C23 C261 1.552 1_455 S
