# Generated by pormake.
# Topology ctn, (3,4)-cn, num edge types: 1
# Building blocks:
#     Node 0, Type 0, BuildingBlock: WUSLED_clean_sbu_0, # of connection points: 3
#     Node 1, Type 0, BuildingBlock: WUSLED_clean_sbu_0, # of connection points: 3
#     Node 2, Type 0, BuildingBlock: WUSLED_clean_sbu_0, # of connection points: 3
#     Node 3, Type 0, BuildingBlock: WUSLED_clean_sbu_0, # of connection points: 3
#     Node 4, Type 0, BuildingBlock: WUSLED_clean_sbu_0, # of connection points: 3
#     Node 5, Type 0, BuildingBlock: WUSLED_clean_sbu_0, # of connection points: 3
#     Node 6, Type 0, BuildingBlock: WUSLED_clean_sbu_0, # of connection points: 3
#     Node 7, Type 0, BuildingBlock: WUSLED_clean_sbu_0, # of connection points: 3
#     Node 8, Type 0, BuildingBlock: WUSLED_clean_sbu_0, # of connection points: 3
#     Node 9, Type 0, BuildingBlock: WUSLED_clean_sbu_0, # of connection points: 3
#     Node 10, Type 0, BuildingBlock: WUSLED_clean_sbu_0, # of connection points: 3
#     Node 11, Type 0, BuildingBlock: WUSLED_clean_sbu_0, # of connection points: 3
#     Node 12, Type 0, BuildingBlock: WUSLED_clean_sbu_0, # of connection points: 3
#     Node 13, Type 0, BuildingBlock: WUSLED_clean_sbu_0, # of connection points: 3
#     Node 14, Type 0, BuildingBlock: WUSLED_clean_sbu_0, # of connection points: 3
#     Node 15, Type 0, BuildingBlock: WUSLED_clean_sbu_0, # of connection points: 3
#     Node 16, Type 1, BuildingBlock: TATPOV_clean_sbu_0, # of connection points: 4
#     Node 17, Type 1, BuildingBlock: TATPOV_clean_sbu_0, # of connection points: 4
#     Node 18, Type 1, BuildingBlock: TATPOV_clean_sbu_0, # of connection points: 4
#     Node 19, Type 1, BuildingBlock: TATPOV_clean_sbu_0, # of connection points: 4
#     Node 20, Type 1, BuildingBlock: TATPOV_clean_sbu_0, # of connection points: 4
#     Node 21, Type 1, BuildingBlock: TATPOV_clean_sbu_0, # of connection points: 4
#     Node 22, Type 1, BuildingBlock: TATPOV_clean_sbu_0, # of connection points: 4
#     Node 23, Type 1, BuildingBlock: TATPOV_clean_sbu_0, # of connection points: 4
#     Node 24, Type 1, BuildingBlock: TATPOV_clean_sbu_0, # of connection points: 4
#     Node 25, Type 1, BuildingBlock: TATPOV_clean_sbu_0, # of connection points: 4
#     Node 26, Type 1, BuildingBlock: TATPOV_clean_sbu_0, # of connection points: 4
#     Node 27, Type 1, BuildingBlock: TATPOV_clean_sbu_0, # of connection points: 4
#     Edge 28, Type (0, 1), BuildingBlock: CIFDUS_clean_linker_0, # of connection points: 2
#     Edge 29, Type (0, 1), BuildingBlock: CIFDUS_clean_linker_0, # of connection points: 2
#     Edge 30, Type (0, 1), BuildingBlock: CIFDUS_clean_linker_0, # of connection points: 2
#     Edge 31, Type (0, 1), BuildingBlock: CIFDUS_clean_linker_0, # of connection points: 2
#     Edge 32, Type (0, 1), BuildingBlock: CIFDUS_clean_linker_0, # of connection points: 2
#     Edge 33, Type (0, 1), BuildingBlock: CIFDUS_clean_linker_0, # of connection points: 2
#     Edge 34, Type (0, 1), BuildingBlock: CIFDUS_clean_linker_0, # of connection points: 2
#     Edge 35, Type (0, 1), BuildingBlock: CIFDUS_clean_linker_0, # of connection points: 2
#     Edge 36, Type (0, 1), BuildingBlock: CIFDUS_clean_linker_0, # of connection points: 2
#     Edge 37, Type (0, 1), BuildingBlock: CIFDUS_clean_linker_0, # of connection points: 2
#     Edge 38, Type (0, 1), BuildingBlock: CIFDUS_clean_linker_0, # of connection points: 2
#     Edge 39, Type (0, 1), BuildingBlock: CIFDUS_clean_linker_0, # of connection points: 2
#     Edge 40, Type (0, 1), BuildingBlock: CIFDUS_clean_linker_0, # of connection points: 2
#     Edge 41, Type (0, 1), BuildingBlock: CIFDUS_clean_linker_0, # of connection points: 2
#     Edge 42, Type (0, 1), BuildingBlock: CIFDUS_clean_linker_0, # of connection points: 2
#     Edge 43, Type (0, 1), BuildingBlock: CIFDUS_clean_linker_0, # of connection points: 2
#     Edge 44, Type (0, 1), BuildingBlock: CIFDUS_clean_linker_0, # of connection points: 2
#     Edge 45, Type (0, 1), BuildingBlock: CIFDUS_clean_linker_0, # of connection points: 2
#     Edge 46, Type (0, 1), BuildingBlock: CIFDUS_clean_linker_0, # of connection points: 2
#     Edge 47, Type (0, 1), BuildingBlock: CIFDUS_clean_linker_0, # of connection points: 2
#     Edge 48, Type (0, 1), BuildingBlock: CIFDUS_clean_linker_0, # of connection points: 2
#     Edge 49, Type (0, 1), BuildingBlock: CIFDUS_clean_linker_0, # of connection points: 2
#     Edge 50, Type (0, 1), BuildingBlock: CIFDUS_clean_linker_0, # of connection points: 2
#     Edge 51, Type (0, 1), BuildingBlock: CIFDUS_clean_linker_0, # of connection points: 2
#     Edge 52, Type (0, 1), BuildingBlock: CIFDUS_clean_linker_0, # of connection points: 2
#     Edge 53, Type (0, 1), BuildingBlock: CIFDUS_clean_linker_0, # of connection points: 2
#     Edge 54, Type (0, 1), BuildingBlock: CIFDUS_clean_linker_0, # of connection points: 2
#     Edge 55, Type (0, 1), BuildingBlock: CIFDUS_clean_linker_0, # of connection points: 2
#     Edge 56, Type (0, 1), BuildingBlock: CIFDUS_clean_linker_0, # of connection points: 2
#     Edge 57, Type (0, 1), BuildingBlock: CIFDUS_clean_linker_0, # of connection points: 2
#     Edge 58, Type (0, 1), BuildingBlock: CIFDUS_clean_linker_0, # of connection points: 2
#     Edge 59, Type (0, 1), BuildingBlock: CIFDUS_clean_linker_0, # of connection points: 2
#     Edge 60, Type (0, 1), BuildingBlock: CIFDUS_clean_linker_0, # of connection points: 2
#     Edge 61, Type (0, 1), BuildingBlock: CIFDUS_clean_linker_0, # of connection points: 2
#     Edge 62, Type (0, 1), BuildingBlock: CIFDUS_clean_linker_0, # of connection points: 2
#     Edge 63, Type (0, 1), BuildingBlock: CIFDUS_clean_linker_0, # of connection points: 2
#     Edge 64, Type (0, 1), BuildingBlock: CIFDUS_clean_linker_0, # of connection points: 2
#     Edge 65, Type (0, 1), BuildingBlock: CIFDUS_clean_linker_0, # of connection points: 2
#     Edge 66, Type (0, 1), BuildingBlock: CIFDUS_clean_linker_0, # of connection points: 2
#     Edge 67, Type (0, 1), BuildingBlock: CIFDUS_clean_linker_0, # of connection points: 2
#     Edge 68, Type (0, 1), BuildingBlock: CIFDUS_clean_linker_0, # of connection points: 2
#     Edge 69, Type (0, 1), BuildingBlock: CIFDUS_clean_linker_0, # of connection points: 2
#     Edge 70, Type (0, 1), BuildingBlock: CIFDUS_clean_linker_0, # of connection points: 2
#     Edge 71, Type (0, 1), BuildingBlock: CIFDUS_clean_linker_0, # of connection points: 2
#     Edge 72, Type (0, 1), BuildingBlock: CIFDUS_clean_linker_0, # of connection points: 2
#     Edge 73, Type (0, 1), BuildingBlock: CIFDUS_clean_linker_0, # of connection points: 2
#     Edge 74, Type (0, 1), BuildingBlock: CIFDUS_clean_linker_0, # of connection points: 2
#     Edge 75, Type (0, 1), BuildingBlock: CIFDUS_clean_linker_0, # of connection points: 2
# Relax obj value: 0.004
# Max RMSD: 0.048
# Mean RMSD: 0.024
data_MOF--net-ctn--node1-WUSLED_clean_sbu_0--node2-TATPOV_clean_sbu_0--edge1-CIFDUS_clean_linker_0
_symmetry_space_group_name_H-M    P1
_symmetry_Int_Tables_number       1
_symmetry_cell_setting            triclinic
loop_
_symmetry_equiv_pos_as_xyz
'x, y, z'
_cell_length_a     63.716552
_cell_length_b     64.189912
_cell_length_c     63.973673
_cell_angle_alpha  91.483482
_cell_angle_beta   90.780871
_cell_angle_gamma 90.778387
loop_
_atom_site_label
_atom_site_type_symbol
_atom_site_fract_x
_atom_site_fract_y
_atom_site_fract_z
_atom_type_partial_charge
C0 C 1.00523 0.05322 0.09291 0.0
C1 C 0.0133 0.03987 0.10801 0.0
C2 C 0.98094 0.04271 0.12805 0.0
C3 C 1.00128 0.03469 0.12545 0.0
C4 C 0.97303 0.05603 0.11277 0.0
C5 C 0.98503 0.06119 0.09544 0.0
U6 U 0.05053 0.04796 0.05307 0.0
O7 O 0.04923 0.05235 0.01899 0.0
O8 O 0.06923 0.07288 0.03893 0.0
C9 C 0.06178 0.06876 0.01998 0.0
C10 C 0.01746 0.05944 0.07455 0.0
C11 C 0.05539 0.08677 1.00752 0.0
C12 C 0.03895 0.12057 1.00393 0.0
C13 C 0.04392 0.10337 0.01611 0.0
C14 C 0.05658 0.10463 0.97444 0.0
C15 C 0.04529 0.12147 0.98292 0.0
C16 C 0.06154 0.08752 0.9866 0.0
C17 C 0.09104 1.00403 0.05636 0.0
C18 C 0.12456 1.00295 0.03853 0.0
C19 C 0.11046 0.97166 0.05368 0.0
C20 C 0.09294 0.98277 0.06046 0.0
C21 C 0.12658 0.98158 0.04263 0.0
C22 C 0.10696 0.01404 0.04526 0.0
C23 C 0.07244 0.01537 0.06392 0.0
O24 O 0.03649 0.06692 0.07829 0.0
O25 O 0.01637 0.04676 0.05811 0.0
O26 O 0.05563 0.01403 0.0518 0.0
O27 O 0.07587 0.03428 0.07174 0.0
H28 H 0.02886 0.03349 0.10634 0.0
H29 H 1.00782 0.02425 0.13677 0.0
H30 H 0.95764 0.06281 0.11434 0.0
H31 H 0.97854 0.07159 0.08403 0.0
H32 H 0.03005 0.13313 1.01094 0.0
H33 H 0.03894 0.10309 0.03222 0.0
H34 H 0.06203 0.10484 0.95849 0.0
H35 H 0.07049 0.07493 0.97969 0.0
H36 H 0.13671 1.01123 0.03031 0.0
H37 H 0.11121 0.9552 0.05684 0.0
H38 H 0.08079 0.97472 0.06892 0.0
H39 H 0.10584 0.03044 0.04188 0.0
C40 C 0.2678 0.74592 0.18261 0.0
C41 C 0.28514 0.75901 0.17909 0.0
C42 C 0.26566 0.77648 0.15158 0.0
C43 C 0.28409 0.77413 0.16369 0.0
C44 C 0.24818 0.76364 0.15561 0.0
C45 C 0.24928 0.74851 0.17094 0.0
U46 U 0.29238 0.71888 0.23002 0.0
O47 O 0.27664 0.70321 0.25581 0.0
O48 O 0.29725 0.68548 0.23494 0.0
C49 C 0.28402 0.68483 0.25049 0.0
C50 C 0.26882 0.72911 0.19788 0.0
C51 C 0.26864 0.66752 0.24957 0.0
C52 C 0.23826 0.64961 0.2338 0.0
C53 C 0.25257 0.66641 0.23435 0.0
C54 C 0.25598 0.63498 0.26366 0.0
C55 C 0.23978 0.63369 0.24848 0.0
C56 C 0.27023 0.65173 0.26418 0.0
C57 C 0.34065 0.74302 0.2594 0.0
C58 C 0.37554 0.73417 0.27247 0.0
C59 C 0.35447 0.75883 0.29187 0.0
C60 C 0.33834 0.75637 0.27695 0.0
C61 C 0.37348 0.74817 0.28956 0.0
C62 C 0.35934 0.73168 0.25749 0.0
C63 C 0.32436 0.74255 0.24251 0.0
O64 O 0.28498 0.71667 0.19634 0.0
O65 O 0.26452 0.73444 0.21731 0.0
O66 O 0.30494 0.74582 0.24835 0.0
O67 O 0.32575 0.72794 0.2278 0.0
H68 H 0.29955 0.75736 0.18804 0.0
H69 H 0.29776 0.78392 0.1612 0.0
H70 H 0.23384 0.76482 0.14646 0.0
H71 H 0.23573 0.73854 0.17344 0.0
H72 H 0.22588 0.64921 0.22202 0.0
H73 H 0.25111 0.67851 0.22294 0.0
H74 H 0.25786 0.62286 0.27498 0.0
H75 H 0.28261 0.6523 0.27598 0.0
H76 H 0.39005 0.72589 0.27012 0.0
H77 H 0.35226 0.76957 0.30497 0.0
H78 H 0.32425 0.76544 0.27888 0.0
H79 H 0.36177 0.72138 0.2441 0.0
C80 C 1.00756 0.41514 0.03067 0.0
C81 C 1.00319 0.39399 0.03411 0.0
C82 C 1.00695 0.38561 0.99695 0.0
C83 C 1.00283 0.37938 0.01743 0.0
C84 C 1.01169 0.40675 0.99365 0.0
C85 C 0.01191 0.42133 1.01024 0.0
U86 U 0.98671 0.46394 0.05867 0.0
O87 O 0.95356 0.46223 0.04875 0.0
O88 O 0.97589 0.48128 0.03139 0.0
C89 C 0.95617 0.47572 0.03387 0.0
C90 C 1.00786 0.43043 0.04847 0.0
C91 C 0.94085 0.49263 0.03319 0.0
C92 C 0.91507 0.51163 0.01332 0.0
C93 C 0.92992 0.4959 0.01448 0.0
C94 C 0.92182 0.52111 0.04972 0.0
C95 C 0.91085 0.52448 0.03088 0.0
C96 C 0.93679 0.50534 0.05085 0.0
C97 C 1.01157 0.48409 0.11 0.0
C98 C 0.02785 0.49864 0.14177 0.0
C99 C 0.03796 0.46454 0.12858 0.0
C100 C 0.02393 0.46629 0.11173 0.0
C101 C 0.03989 0.48059 0.14394 0.0
C102 C 0.01378 0.50034 0.12494 0.0
C103 C 0.99608 0.48571 0.09292 0.0
O104 O 0.99146 0.43005 0.06073 0.0
O105 O 0.01425 0.44945 0.0444 0.0
O106 O 0.98153 0.47097 0.092 0.0
O107 O 1.00385 0.48994 0.07457 0.0
H108 H 0.9999 0.38878 0.04972 0.0
H109 H 0.99896 0.36329 0.02055 0.0
H110 H 0.01538 0.41209 0.97819 0.0
H111 H 0.01551 0.43745 1.00698 0.0
H112 H 0.90665 0.51351 0.99868 0.0
H113 H 0.93278 0.48618 1.00074 0.0
H114 H 0.91901 0.5308 0.06348 0.0
H115 H 0.94515 0.50302 0.06545 0.0
H116 H 0.02879 0.51116 0.15344 0.0
H117 H 0.04718 0.45056 0.12968 0.0
H118 H 0.02252 0.45366 0.10021 0.0
H119 H 1.00436 0.5142 0.12379 0.0
C120 C 0.72144 0.7468 0.17187 0.0
C121 C 0.74239 0.74504 0.1655 0.0
C122 C 0.73094 0.72633 0.13356 0.0
C123 C 0.7471 0.7348 0.14654 0.0
C124 C 0.71004 0.72816 0.14008 0.0
C125 C 0.70537 0.73825 0.15903 0.0
U126 U 0.72874 0.78969 0.21473 0.0
O127 O 0.70488 0.80892 0.2301 0.0
O128 O 0.72401 0.78793 0.24876 0.0
C129 C 0.70796 0.80061 0.24843 0.0
C130 C 0.71579 0.75743 0.19169 0.0
C131 C 0.68866 0.79432 0.25948 0.0
C132 C 0.6542 0.80386 0.27215 0.0
C133 C 0.67278 0.80904 0.2621 0.0
C134 C 0.66712 0.76917 0.27795 0.0
C135 C 0.65101 0.78383 0.28001 0.0
C136 C 0.68577 0.77434 0.26768 0.0
C137 C 0.77176 0.83159 0.21086 0.0
C138 C 0.78093 0.85633 0.23901 0.0
C139 C 0.7906 0.86377 0.20348 0.0
C140 C 0.78144 0.84479 0.19663 0.0
C141 C 0.79024 0.86992 0.22474 0.0
C142 C 0.77167 0.83744 0.23213 0.0
C143 C 0.76105 0.81231 0.20312 0.0
O144 O 0.72912 0.756 0.20745 0.0
O145 O 0.70806 0.77618 0.18992 0.0
O146 O 0.74188 0.81482 0.1959 0.0
O147 O 0.76283 0.79587 0.21485 0.0
H148 H 0.75506 0.75164 0.17511 0.0
H149 H 0.76334 0.73381 0.14187 0.0
H150 H 0.69725 0.72159 0.1306 0.0
H151 H 0.68912 0.73939 0.16367 0.0
H152 H 0.64226 0.81563 0.27379 0.0
H153 H 0.67469 0.82463 0.25622 0.0
H154 H 0.66508 0.75362 0.28384 0.0
H155 H 0.69779 0.76267 0.26602 0.0
H156 H 0.78065 0.86033 0.25555 0.0
H157 H 0.79739 0.87389 0.19201 0.0
H158 H 0.78156 0.8406 0.18011 0.0
H159 H 0.76423 0.82753 0.2434 0.0
C160 C 0.01212 0.9695 0.41818 0.0
C161 C 0.02031 0.98274 0.40306 0.0
C162 C 0.98674 0.98182 0.38422 0.0
C163 C 1.00774 0.98878 0.38616 0.0
C164 C 0.97871 0.96852 0.39944 0.0
C165 C 0.99129 0.96243 0.41621 0.0
U166 U 0.06024 0.97482 0.45463 0.0
O167 O 0.06324 0.97118 0.48858 0.0
O168 O 0.08042 0.9504 0.46734 0.0
C169 C 0.07529 0.95479 0.48677 0.0
C170 C 0.02498 0.96274 0.43601 0.0
C171 C 0.06938 0.93697 0.49957 0.0
C172 C 0.04325 0.91273 0.51239 0.0
C173 C 0.04885 0.9288 0.49909 0.0
C174 C 0.07877 0.91247 0.52639 0.0
C175 C 0.05808 0.90453 0.52638 0.0
C176 C 0.08432 0.92857 0.51312 0.0
C177 C 0.10116 0.01765 0.44774 0.0
C178 C 0.13713 0.01597 0.46061 0.0
C179 C 0.12295 0.04903 0.45019 0.0
C180 C 0.10372 0.03917 0.44523 0.0
C181 C 0.13996 0.03743 0.45754 0.0
C182 C 0.11786 1.00619 0.45589 0.0
C183 C 0.08121 1.00727 0.44146 0.0
O184 O 0.04335 0.95495 0.43131 0.0
O185 O 0.02572 0.97552 0.45241 0.0
O186 O 0.06599 1.00878 0.45505 0.0
O187 O 0.08287 0.98843 0.43311 0.0
H188 H 0.03638 0.98841 0.40436 0.0
H189 H 0.01433 0.99915 0.3748 0.0
H190 H 0.96272 0.96262 0.39826 0.0
H191 H 0.98472 0.95213 0.42767 0.0
H192 H 0.02727 0.90674 0.51175 0.0
H193 H 0.03711 0.93504 0.48865 0.0
H194 H 0.09051 0.90663 0.53705 0.0
H195 H 0.10024 0.93474 0.51372 0.0
H196 H 0.14991 1.00672 0.46648 0.0
H197 H 0.12476 0.06556 0.44756 0.0
H198 H 0.09096 0.04829 0.43908 0.0
H199 H 0.11614 0.9896 0.45825 0.0
C200 C 0.21068 0.77429 0.83354 0.0
C201 C 0.22569 0.76414 0.84569 0.0
C202 C 0.22639 0.79317 0.87116 0.0
C203 C 0.2334 0.77343 0.86433 0.0
C204 C 0.21112 0.80315 0.85902 0.0
C205 C 0.20336 0.79378 0.84038 0.0
U206 U 0.21526 0.73437 0.78863 0.0
O207 O 0.19091 0.71526 0.77216 0.0
O208 O 0.21003 0.73746 0.75482 0.0
C209 C 0.19406 0.72425 0.75422 0.0
C210 C 0.20285 0.76484 0.81362 0.0
C211 C 0.17512 0.73099 0.74291 0.0
C212 C 0.14935 0.75721 0.73435 0.0
C213 C 0.16697 0.75105 0.7459 0.0
C214 C 0.14765 0.72323 0.717 0.0
C215 C 0.13949 0.74337 0.71971 0.0
C216 C 0.16527 0.71714 0.72847 0.0
C217 C 0.26221 0.69666 0.79059 0.0
C218 C 0.26601 0.66364 0.77148 0.0
C219 C 0.29536 0.67841 0.79152 0.0
C220 C 0.28316 0.69549 0.79731 0.0
C221 C 0.28684 0.66205 0.77887 0.0
C222 C 0.25377 0.6808 0.77732 0.0
C223 C 0.24938 0.71403 0.79857 0.0
O224 O 0.21482 0.7678 0.79737 0.0
O225 O 0.19573 0.74557 0.81459 0.0
O226 O 0.23061 0.70907 0.80528 0.0
O227 O 0.24966 0.73112 0.7877 0.0
H228 H 0.23153 0.74906 0.8407 0.0
H229 H 0.24488 0.76511 0.8734 0.0
H230 H 0.20554 0.81842 0.86363 0.0
H231 H 0.19181 0.80188 0.83118 0.0
H232 H 0.14334 0.77274 0.737 0.0
H233 H 0.1743 0.76196 0.75705 0.0
H234 H 0.14066 0.71226 0.7057 0.0
H235 H 0.17136 0.70161 0.7259 0.0
H236 H 0.25892 0.65126 0.76184 0.0
H237 H 0.31143 0.67787 0.79721 0.0
H238 H 0.29 0.70762 0.80747 0.0
H239 H 0.23761 0.68144 0.77191 0.0
C240 C 0.96343 0.59981 0.53057 0.0
C241 C 0.98465 0.60609 0.53152 0.0
C242 C 0.97523 0.63837 0.54974 0.0
C243 C 0.99052 0.62519 0.54116 0.0
C244 C 0.95406 0.63188 0.54883 0.0
C245 C 0.94825 0.6128 0.53937 0.0
U246 U 0.96786 0.55636 0.48849 0.0
O247 O 0.9637 0.52247 0.49076 0.0
O248 O 0.94249 0.53999 0.47062 0.0
C249 C 0.94652 0.52202 0.47911 0.0
C250 C 0.95657 0.57998 0.52037 0.0
C251 C 0.92825 0.51035 0.48718 0.0
C252 C 0.91176 0.48989 0.51411 0.0
C253 C 0.92814 0.50282 0.50763 0.0
C254 C 0.89471 0.49263 0.48027 0.0
C255 C 0.89508 0.48431 0.50037 0.0
C256 C 0.9112 0.50543 0.47371 0.0
C257 C 1.01103 0.55753 0.44776 0.0
C258 C 0.0221 0.52715 0.42754 0.0
C259 C 0.03154 0.56175 0.41633 0.0
C260 C 0.02107 0.57041 0.43351 0.0
C261 C 0.03222 0.53998 0.41313 0.0
C262 C 1.01152 0.53583 0.44459 0.0
C263 C 1.00022 0.56688 0.46586 0.0
O264 O 0.94841 0.5815 0.5015 0.0
O265 O 0.9693 0.56415 0.52216 0.0
O266 O 1.00188 0.55674 0.4834 0.0
O267 O 0.98111 0.57348 0.46217 0.0
H268 H 0.99664 0.59632 0.52471 0.0
H269 H 1.00693 0.62986 0.5415 0.0
H270 H 0.94195 0.64155 0.55555 0.0
H271 H 0.93182 0.6082 0.53884 0.0
H272 H 0.91236 0.48387 0.52977 0.0
H273 H 0.94096 0.50643 0.51846 0.0
H274 H 0.88219 0.48844 0.46926 0.0
H275 H 0.91094 0.51097 0.45786 0.0
H276 H 0.02254 0.51034 0.42581 0.0
H277 H 0.03885 0.57212 0.40542 0.0
H278 H 0.02077 0.58721 0.43564 0.0
H279 H 1.00382 0.52557 0.45537 0.0
C280 C 0.79957 0.79106 0.8666 0.0
C281 C 0.81538 0.77633 0.86377 0.0
C282 C 0.8001 0.75494 0.89072 0.0
C283 C 0.81566 0.75842 0.87574 0.0
C284 C 0.7847 0.77013 0.89397 0.0
C285 C 0.78442 0.78804 0.88194 0.0
U286 U 0.81956 0.82196 0.82083 0.0
O287 O 0.80215 0.83506 0.79449 0.0
O288 O 0.82035 0.8558 0.81588 0.0
C289 C 0.80669 0.8544 0.80029 0.0
C290 C 0.79801 0.80888 0.85275 0.0
C291 C 0.78843 0.86804 0.80203 0.0
C292 C 0.75527 0.87672 0.81808 0.0
C293 C 0.77349 0.86486 0.81755 0.0
C294 C 0.767 0.89549 0.7879 0.0
C295 C 0.75165 0.89197 0.80306 0.0
C296 C 0.78523 0.88357 0.78737 0.0
C297 C 0.86745 0.8037 0.79103 0.0
C298 C 0.87905 0.82183 0.76033 0.0
C299 C 0.89422 0.78863 0.76882 0.0
C300 C 0.88159 0.78772 0.78651 0.0
C301 C 0.89283 0.80552 0.75531 0.0
C302 C 0.86644 0.82089 0.77799 0.0
C303 C 0.85289 0.80168 0.80849 0.0
O304 O 0.81322 0.82289 0.85461 0.0
O305 O 0.79319 0.80392 0.8332 0.0
O306 O 0.83364 0.79615 0.80295 0.0
O307 O 0.85363 0.81685 0.82271 0.0
H308 H 0.82722 0.77845 0.85197 0.0
H309 H 0.82789 0.74715 0.87306 0.0
H310 H 0.7724 0.76782 0.90523 0.0
H311 H 0.77205 0.79925 0.88424 0.0
H312 H 0.74389 0.87382 0.83012 0.0
H313 H 0.77573 0.8529 0.829 0.0
H314 H 0.7646 0.90694 0.77599 0.0
H315 H 0.79659 0.88613 0.77522 0.0
H316 H 0.8778 0.83519 0.75042 0.0
H317 H 0.90446 0.77571 0.76529 0.0
H318 H 0.88246 0.77428 0.79637 0.0
H319 H 0.85556 0.83336 0.78124 0.0
C320 C 0.30319 0.29919 0.3754 0.0
C321 C 0.31926 0.28452 0.37637 0.0
C322 C 0.30075 0.26628 0.40374 0.0
C323 C 0.31808 0.26824 0.39045 0.0
C324 C 0.28488 0.28129 0.40291 0.0
C325 C 0.2861 0.29758 0.38884 0.0
U326 U 0.32773 0.32515 0.32843 0.0
O327 O 0.31258 0.33795 0.30058 0.0
O328 O 0.33156 0.35842 0.32154 0.0
C329 C 0.3186 0.35716 0.30537 0.0
C330 C 0.30367 0.31572 0.35994 0.0
C331 C 0.30176 0.37259 0.30517 0.0
C332 C 0.26934 0.3863 0.31914 0.0
C333 C 0.28588 0.37224 0.32013 0.0
C334 C 0.28457 0.40144 0.28843 0.0
C335 C 0.26836 0.40095 0.30315 0.0
C336 C 0.3011 0.38735 0.28944 0.0
C337 C 0.37639 0.30177 0.30315 0.0
C338 C 0.39587 0.3189 0.27592 0.0
C339 C 0.40115 0.28225 0.28204 0.0
C340 C 0.38657 0.28311 0.29818 0.0
C341 C 0.40584 0.30009 0.27054 0.0
C342 C 0.38121 0.31971 0.292 0.0
C343 C 0.36024 0.30201 0.31939 0.0
O344 O 0.31959 0.32893 0.36163 0.0
O345 O 0.29969 0.30947 0.34055 0.0
O346 O 0.34108 0.29757 0.31268 0.0
O347 O 0.36111 0.31783 0.33288 0.0
H348 H 0.33259 0.28555 0.36608 0.0
H349 H 0.33071 0.25712 0.39085 0.0
H350 H 0.2712 0.28011 0.4127 0.0
H351 H 0.27351 0.30873 0.38821 0.0
H352 H 0.25728 0.38567 0.33089 0.0
H353 H 0.28617 0.36092 0.33241 0.0
H354 H 0.28418 0.41233 0.27578 0.0
H355 H 0.3132 0.38777 0.27771 0.0
H356 H 0.39928 0.33301 0.26761 0.0
H357 H 0.40823 0.26743 0.27816 0.0
H358 H 0.38294 0.26907 0.30655 0.0
H359 H 0.37346 0.33427 0.29557 0.0
C360 C 0.48203 0.9313 0.50817 0.0
C361 C 0.48062 0.93264 0.48639 0.0
C362 C 0.49744 0.89896 0.48202 0.0
C363 C 0.48822 0.91669 0.47346 0.0
C364 C 0.49873 0.89754 0.50391 0.0
C365 C 0.49117 0.91365 0.51691 0.0
U366 U 0.48087 0.96715 0.55754 0.0
O367 O 0.47507 1.00075 0.56029 0.0
O368 O 0.45337 0.9787 0.57467 0.0
C369 C 0.45707 0.99815 0.56975 0.0
C370 C 0.47341 0.94837 0.52117 0.0
C371 C 0.43916 1.00925 0.56067 0.0
C372 C 0.41967 0.0212 0.53048 0.0
C373 C 0.43654 1.01039 0.53893 0.0
C374 C 0.4076 0.02967 0.56538 0.0
C375 C 0.40488 0.03088 0.54357 0.0
C376 C 0.42461 0.01896 0.57383 0.0
C377 C 0.52027 0.96199 0.60246 0.0
C378 C 0.55 0.96627 0.6265 0.0
C379 C 0.51482 0.97313 0.63855 0.0
C380 C 0.5068 0.96838 0.61852 0.0
C381 C 0.53646 0.97183 0.64282 0.0
C382 C 0.54194 0.9613 0.6065 0.0
C383 C 0.51195 0.95549 0.58165 0.0
O384 O 0.46417 0.94302 0.53852 0.0
O385 O 0.48527 0.96522 0.52343 0.0
O386 O 0.51431 0.96909 0.56683 0.0
O387 O 0.4933 0.94642 0.58135 0.0
H388 H 0.4735 0.94605 0.47934 0.0
H389 H 0.48664 0.91815 0.45668 0.0
H390 H 0.50584 0.88415 0.51097 0.0
H391 H 0.49245 0.91231 0.53372 0.0
H392 H 0.41834 0.02208 0.51364 0.0
H393 H 0.44759 1.00301 0.52847 0.0
H394 H 0.39641 0.03669 0.57593 0.0
H395 H 0.42636 0.0182 0.59066 0.0
H396 H 0.56672 0.96499 0.62939 0.0
H397 H 0.50406 0.97758 0.6508 0.0
H398 H 0.49004 0.96931 0.61571 0.0
H399 H 0.55259 0.9565 0.59428 0.0
C400 C 0.23215 0.25085 0.67611 0.0
C401 C 0.24673 0.26136 0.6638 0.0
C402 C 0.24884 0.23098 0.64016 0.0
C403 C 0.25499 0.25152 0.64598 0.0
C404 C 0.23425 0.22057 0.65267 0.0
C405 C 0.22599 0.23042 0.67044 0.0
U406 U 0.23071 0.29486 0.71774 0.0
O407 O 0.20392 0.31071 0.73197 0.0
O408 O 0.22521 0.29283 0.75167 0.0
C409 C 0.20757 0.30317 0.75057 0.0
C410 C 0.22331 0.26081 0.69496 0.0
C411 C 0.18924 0.294 0.7611 0.0
C412 C 0.1544 0.27795 0.75965 0.0
C413 C 0.17277 0.28418 0.74963 0.0
C414 C 0.16914 0.29008 0.79293 0.0
C415 C 0.15217 0.28126 0.78135 0.0
C416 C 0.18745 0.29646 0.78287 0.0
C417 C 0.26988 0.34093 0.71485 0.0
C418 C 0.27959 0.36547 0.74304 0.0
C419 C 0.2861 0.37439 0.70714 0.0
C420 C 0.27755 0.35511 0.70038 0.0
C421 C 0.2872 0.37986 0.72858 0.0
C422 C 0.27093 0.34626 0.73625 0.0
C423 C 0.26091 0.32074 0.70724 0.0
O424 O 0.23563 0.26138 0.71161 0.0
O425 O 0.21348 0.27841 0.69209 0.0
O426 O 0.24177 0.32136 0.6994 0.0
O427 O 0.26394 0.30467 0.71921 0.0
H428 H 0.25169 0.27716 0.66797 0.0
H429 H 0.26601 0.2601 0.63662 0.0
H430 H 0.2294 0.20466 0.64892 0.0
H431 H 0.21484 0.22203 0.67983 0.0
H432 H 0.1417 0.27099 0.75032 0.0
H433 H 0.17382 0.28192 0.73284 0.0
H434 H 0.16786 0.29301 0.80961 0.0
H435 H 0.19996 0.304 0.79202 0.0
H436 H 0.28045 0.36894 0.75968 0.0
H437 H 0.2915 0.38512 0.69553 0.0
H438 H 0.27682 0.35132 0.68378 0.0
H439 H 0.2651 0.33559 0.74773 0.0
C440 C 0.77372 0.24536 0.68146 0.0
C441 C 0.78487 0.24034 0.66324 0.0
C442 C 0.77712 0.27424 0.64876 0.0
C443 C 0.78658 0.25458 0.64717 0.0
C444 C 0.76573 0.27921 0.66685 0.0
C445 C 0.76402 0.26492 0.68299 0.0
U446 U 0.79025 0.21761 0.73212 0.0
O447 O 0.77031 0.20598 0.75738 0.0
O448 O 0.78963 0.18431 0.73911 0.0
C449 C 0.77491 0.18641 0.75319 0.0
C450 C 0.77095 0.22966 0.69795 0.0
C451 C 0.75704 0.17141 0.75166 0.0
C452 C 0.73819 0.14268 0.73385 0.0
C453 C 0.75409 0.15794 0.73415 0.0
C454 C 0.72744 0.15443 0.76827 0.0
C455 C 0.72477 0.14056 0.751 0.0
C456 C 0.74344 0.1696 0.76861 0.0
C457 C 0.84082 0.23548 0.7624 0.0
C458 C 0.87676 0.22896 0.77398 0.0
C459 C 0.85277 0.24633 0.79742 0.0
C460 C 0.83686 0.24461 0.78216 0.0
C461 C 0.87306 0.23902 0.79333 0.0
C462 C 0.86085 0.22732 0.75865 0.0
C463 C 0.82513 0.23648 0.74504 0.0
O464 O 0.78445 0.21433 0.69822 0.0
O465 O 0.76634 0.23672 0.7168 0.0
O466 O 0.80629 0.24311 0.74982 0.0
O467 O 0.82472 0.2209 0.73127 0.0
H468 H 0.79212 0.22527 0.66123 0.0
H469 H 0.7951 0.25001 0.63328 0.0
H470 H 0.75832 0.29422 0.66864 0.0
H471 H 0.75498 0.26917 0.69663 0.0
H472 H 0.73685 0.13214 0.72039 0.0
H473 H 0.76433 0.15886 0.72082 0.0
H474 H 0.71721 0.15354 0.7816 0.0
H475 H 0.74539 0.17976 0.78231 0.0
H476 H 0.89227 0.22338 0.77026 0.0
H477 H 0.84937 0.25402 0.81224 0.0
H478 H 0.82168 0.25114 0.78565 0.0
H479 H 0.8645 0.22041 0.74353 0.0
C480 C 0.50628 0.5545 0.59132 0.0
C481 C 0.51653 0.543 0.6067 0.0
C482 C 0.48428 0.54118 0.62697 0.0
C483 C 0.50566 0.53645 0.62435 0.0
C484 C 0.47413 0.55261 0.61139 0.0
C485 C 0.48502 0.55919 0.5938 0.0
U486 U 0.55099 0.55181 0.55136 0.0
O487 O 0.54986 0.55603 0.51724 0.0
O488 O 0.56902 0.57723 0.5373 0.0
C489 C 0.56184 0.57287 0.5183 0.0
C490 C 0.51741 0.5619 0.57272 0.0
C491 C 0.5549 0.5907 0.50585 0.0
C492 C 0.53718 0.62387 0.5023 0.0
C493 C 0.54254 0.60668 0.51435 0.0
C494 C 0.55619 0.60913 0.47309 0.0
C495 C 0.54403 0.62538 0.4815 0.0
C496 C 0.56154 0.59203 0.48512 0.0
C497 C 0.59274 0.50857 0.55756 0.0
C498 C 0.61659 0.494 0.53172 0.0
C499 C 0.62154 0.48653 0.56834 0.0
C500 C 0.60416 0.49872 0.57328 0.0
C501 C 0.62794 0.48386 0.54748 0.0
C502 C 0.59918 0.50626 0.53672 0.0
C503 C 0.57372 0.5202 0.56341 0.0
O504 O 0.53601 0.57054 0.57616 0.0
O505 O 0.51685 0.54928 0.55621 0.0
O506 O 0.55741 0.51821 0.55067 0.0
O507 O 0.57666 0.53937 0.57069 0.0
H508 H 0.53295 0.53919 0.60511 0.0
H509 H 0.51412 0.52791 0.63608 0.0
H510 H 0.45764 0.55626 0.6126 0.0
H511 H 0.47678 0.56796 0.58208 0.0
H512 H 0.52761 0.63594 0.50925 0.0
H513 H 0.53719 0.60596 0.53032 0.0
H514 H 0.56206 0.60982 0.45731 0.0
H515 H 0.57118 0.57994 0.47828 0.0
H516 H 0.6212 0.4925 0.51553 0.0
H517 H 0.62962 0.47876 0.58086 0.0
H518 H 0.59941 0.50018 0.58945 0.0
H519 H 0.59063 0.51376 0.5243 0.0
C520 C 0.51307 0.47547 0.92497 0.0
C521 C 0.50898 0.46354 0.90659 0.0
C522 C 0.48562 0.49018 0.89364 0.0
C523 C 0.4955 0.47087 0.89101 0.0
C524 C 0.49035 0.50246 0.91167 0.0
C525 C 0.50393 0.49523 0.92714 0.0
U526 U 0.56086 0.4743 0.96262 0.0
O527 O 0.56229 0.46811 0.99627 0.0
O528 O 0.57848 0.4475 0.97407 0.0
C529 C 0.57274 0.45077 0.99354 0.0
C530 C 0.52545 0.46643 0.94225 0.0
C531 C 0.56412 0.43266 1.00437 0.0
C532 C 0.53987 0.40324 1.00584 0.0
C533 C 0.54885 0.41956 0.99478 0.0
C534 C 0.5615 0.41279 0.0361 0.0
C535 C 0.54583 0.39984 0.02676 0.0
C536 C 0.57054 0.42904 0.02499 0.0
C537 C 0.60477 0.51532 0.95957 0.0
C538 C 0.64114 0.51141 0.97056 0.0
C539 C 0.62752 0.54582 0.96449 0.0
C540 C 0.60785 0.53699 0.95939 0.0
C541 C 0.64449 0.53307 0.96968 0.0
C542 C 0.62143 0.50262 0.96567 0.0
C543 C 0.58443 0.50622 0.9525 0.0
O544 O 0.5433 0.45776 0.93713 0.0
O545 O 0.52664 0.4773 0.95995 0.0
O546 O 0.56898 0.50776 0.96583 0.0
O547 O 0.58521 0.48785 0.94297 0.0
H548 H 0.51571 0.44822 0.90455 0.0
H549 H 0.49201 0.46097 0.8774 0.0
H550 H 0.48312 0.5175 0.91403 0.0
H551 H 0.50677 0.5049 0.94103 0.0
H552 H 0.52809 0.3934 0.99803 0.0
H553 H 0.54364 0.42214 0.97888 0.0
H554 H 0.56628 0.41083 0.05223 0.0
H555 H 0.58224 0.43909 0.03268 0.0
H556 H 0.65388 0.50124 0.97472 0.0
H557 H 0.62968 0.56253 0.96351 0.0
H558 H 0.59517 0.54705 0.95479 0.0
H559 H 0.61936 0.48586 0.96618 0.0
C560 C 0.71623 0.27326 0.33396 0.0
C561 C 0.72927 0.26225 0.3475 0.0
C562 C 0.73082 0.29207 0.37202 0.0
C563 C 0.73643 0.27153 0.36637 0.0
C564 C 0.71772 0.30299 0.35835 0.0
C565 C 0.7105 0.29365 0.33952 0.0
U566 U 0.71834 0.23236 0.28911 0.0
O567 O 0.69244 0.21467 0.27365 0.0
O568 O 0.71192 0.23579 0.25546 0.0
C569 C 0.69513 0.22368 0.25564 0.0
C570 C 0.70826 0.26366 0.31418 0.0
C571 C 0.67611 0.23221 0.24588 0.0
C572 C 0.64504 0.25376 0.24744 0.0
C573 C 0.66305 0.24585 0.25701 0.0
C574 C 0.65305 0.23463 0.21548 0.0
C575 C 0.63979 0.24827 0.22652 0.0
C576 C 0.671 0.22669 0.22508 0.0
C577 C 0.76172 0.1911 0.28889 0.0
C578 C 0.79227 0.16873 0.288 0.0
C579 C 0.76017 0.15773 0.27 0.0
C580 C 0.75066 0.17638 0.27624 0.0
C581 C 0.78094 0.15345 0.27621 0.0
C582 C 0.78271 0.18733 0.29432 0.0
C583 C 0.7513 0.20969 0.2977 0.0
O584 O 0.72033 0.2658 0.29785 0.0
O585 O 0.70019 0.24479 0.31548 0.0
O586 O 0.73264 0.2064 0.3056 0.0
O587 O 0.75233 0.22664 0.28665 0.0
H588 H 0.73384 0.24645 0.34352 0.0
H589 H 0.74624 0.26252 0.37661 0.0
H590 H 0.71332 0.31889 0.362 0.0
H591 H 0.70047 0.3024 0.32924 0.0
H592 H 0.6351 0.26402 0.25652 0.0
H593 H 0.66676 0.25031 0.2731 0.0
H594 H 0.64974 0.23031 0.19928 0.0
H595 H 0.68097 0.21627 0.21621 0.0
H596 H 0.80819 0.16587 0.29322 0.0
H597 H 0.75109 0.1464 0.26072 0.0
H598 H 0.73449 0.17904 0.27173 0.0
H599 H 0.79151 0.1985 0.30407 0.0
C600 C 0.45068 0.09688 0.03001 0.0
C601 C 0.46957 0.10732 0.02568 0.0
C602 C 0.46281 0.13296 0.05347 0.0
C603 C 0.47563 0.12521 0.03738 0.0
C604 C 0.44419 0.12205 0.05803 0.0
C605 C 0.4382 0.10419 0.04639 0.0
U606 U 0.45593 0.05968 0.98289 0.0
O607 O 0.45001 0.02591 0.97988 0.0
O608 O 0.43141 0.04729 0.96114 0.0
C609 C 0.43384 0.02804 0.96716 0.0
C610 C 0.44331 0.07893 0.01707 0.0
C611 C 0.41442 0.01686 0.9728 0.0
C612 C 0.38995 1.0045 0.99876 0.0
C613 C 0.40795 0.01597 0.99366 0.0
C614 C 0.38426 0.99533 0.96214 0.0
C615 C 0.37799 0.99388 0.98307 0.0
C616 C 0.40233 1.00667 0.95708 0.0
C617 C 0.50287 0.06649 0.94651 0.0
C618 C 0.50939 0.04352 0.91661 0.0
C619 C 0.53376 0.07182 0.92533 0.0
C620 C 0.52127 0.0777 0.94224 0.0
C621 C 0.52806 0.05456 0.91238 0.0
C622 C 0.4969 0.04944 0.93354 0.0
C623 C 0.49042 0.07252 0.96483 0.0
O624 O 0.43653 0.08344 0.99826 0.0
O625 O 0.45531 0.06244 0.01724 0.0
O626 O 0.49027 0.0591 0.98 0.0
O627 O 0.47182 0.08019 0.96082 0.0
H628 H 0.47937 0.10189 0.01301 0.0
H629 H 0.48996 0.13336 0.03338 0.0
H630 H 0.43413 0.12747 0.07049 0.0
H631 H 0.4236 0.09627 0.04996 0.0
H632 H 0.38543 1.00387 0.01499 0.0
H633 H 0.41694 0.02392 1.00603 0.0
H634 H 0.37558 0.98714 0.94971 0.0
H635 H 0.40704 1.00721 0.94089 0.0
H636 H 0.50437 0.03034 0.90679 0.0
H637 H 0.54813 0.08051 0.9227 0.0
H638 H 0.52613 0.09089 0.95216 0.0
H639 H 0.48269 0.04063 0.9366 0.0
Zn640 Zn 0.29339 0.85802 1.00958 0.0
Zn641 Zn 0.2594 0.878 0.02031 0.0
O642 O 0.26472 0.85779 0.04533 0.0
O643 O 0.29269 0.84083 0.03508 0.0
O644 O 0.23329 0.89401 0.02927 0.0
O645 O 0.31086 0.88409 1.01046 0.0
O646 O 0.28217 0.90169 0.01729 0.0
C647 C 0.27867 0.84403 0.04855 0.0
C648 C 0.26068 0.85162 0.97902 0.0
O649 O 0.25047 0.86291 0.99203 0.0
O650 O 0.27971 0.84755 0.98281 0.0
C651 C 0.2254 0.90843 0.01845 0.0
O652 O 0.23414 0.91305 1.00064 0.0
C653 C 0.30186 0.90126 0.01381 0.0
Zn654 Zn 0.1146 0.46811 0.28963 0.0
Zn655 Zn 0.13854 0.50212 0.2847 0.0
O656 O 0.12001 0.50974 0.31012 0.0
O657 O 0.09934 0.4823 0.31333 0.0
O658 O 0.15684 0.52808 0.28224 0.0
O659 O 0.14035 0.45119 0.29526 0.0
O660 O 0.16021 0.47875 0.28969 0.0
C661 C 0.10503 0.50049 0.31933 0.0
C662 C 0.10893 0.48582 0.24919 0.0
O663 O 0.12196 0.4995 0.25655 0.0
O664 O 0.10363 0.47052 0.26016 0.0
C665 C 0.16379 0.53512 0.2652 0.0
O666 O 0.15905 0.52524 0.24749 0.0
C667 C 0.15841 0.45948 0.29392 0.0
Zn668 Zn 0.78887 0.61205 0.96629 0.0
Zn669 Zn 0.78437 0.63006 1.0036 0.0
O670 O 0.81145 0.61244 1.00753 0.0
O671 O 0.81626 0.60021 0.97547 0.0
O672 O 0.78047 0.64472 0.03176 0.0
O673 O 0.78899 0.63963 0.95234 0.0
O674 O 0.7874 0.65484 0.98347 0.0
C675 C 0.82231 0.60208 0.99435 0.0
C676 C 0.75063 0.59947 0.98537 0.0
O677 O 0.75682 0.61265 0.99949 0.0
O678 O 0.76195 0.5958 0.96962 0.0
C679 C 0.76612 0.65823 0.03359 0.0
O680 O 0.75425 0.66206 0.01722 0.0
C681 C 0.78875 0.65609 0.96365 0.0
Zn682 Zn 0.8529 1.01039 0.2864 0.0
Zn683 Zn 0.88089 0.0152 0.25778 0.0
O684 O 0.86347 0.04305 0.2579 0.0
O685 O 0.83872 0.03708 0.28073 0.0
O686 O 0.90172 0.01936 0.23399 0.0
O687 O 0.87532 1.00921 0.30853 0.0
O688 O 0.89969 1.01153 0.28463 0.0
C689 C 0.84702 0.04889 0.26758 0.0
C690 C 0.8492 0.97756 0.2565 0.0
O691 O 0.86438 0.9877 0.24845 0.0
O692 O 0.84129 0.98416 0.27339 0.0
C693 C 0.89443 0.01989 0.21537 0.0
O694 O 0.87406 0.0177 0.21242 0.0
C695 C 0.89453 1.0096 0.30375 0.0
Zn696 Zn 0.28694 0.11283 0.46702 0.0
Zn697 Zn 0.27685 0.13547 0.50057 0.0
O698 O 0.30189 0.11774 0.51132 0.0
O699 O 0.30944 0.09878 0.48331 0.0
O700 O 0.26749 0.15216 0.52611 0.0
O701 O 0.29325 0.13896 0.45149 0.0
O702 O 0.28466 0.15801 0.47907 0.0
C703 C 0.31283 0.10365 0.50237 0.0
C704 C 0.24493 0.10471 0.4787 0.0
O705 O 0.24972 0.11833 0.49292 0.0
O706 O 0.25835 0.09945 0.46523 0.0
C707 C 0.27915 0.16437 0.53731 0.0
O708 O 0.299 0.16673 0.53246 0.0
C709 C 0.2909 0.15669 0.4602 0.0
Zn710 Zn 0.35836 0.51511 0.79342 0.0
Zn711 Zn 0.38092 0.52294 0.7604 0.0
O712 O 0.36346 0.55024 0.76585 0.0
O713 O 0.34605 0.54346 0.79446 0.0
O714 O 0.39798 0.53044 0.73469 0.0
O715 O 0.38415 0.51029 0.81064 0.0
O716 O 0.40372 0.51709 0.78346 0.0
C717 C 0.35079 0.55586 0.7802 0.0
C718 C 0.34907 0.48592 0.7601 0.0
O719 O 0.36342 0.49632 0.75104 0.0
O720 O 0.34357 0.49124 0.77838 0.0
C721 C 0.41199 0.51902 0.72641 0.0
O722 O 0.416 0.50089 0.73454 0.0
C723 C 0.40211 0.51233 0.80267 0.0
Zn724 Zn 0.79025 0.35965 0.5128 0.0
Zn725 Zn 0.75665 0.38242 0.519 0.0
O726 O 0.75821 0.36384 0.54565 0.0
O727 O 0.78638 0.34522 0.53977 0.0
O728 O 0.73118 0.40096 0.52394 0.0
O729 O 0.80913 0.38471 0.51239 0.0
O730 O 0.78122 0.40422 0.51616 0.0
C731 C 0.77116 0.34995 0.55137 0.0
C732 C 0.7596 0.35272 0.48017 0.0
O733 O 0.74929 0.36583 0.49122 0.0
O734 O 0.77781 0.34755 0.48604 0.0
C735 C 0.73178 0.41438 0.53896 0.0
O736 O 0.74864 0.41553 0.55101 0.0
C737 C 0.80104 0.40255 0.51394 0.0
Zn738 Zn 0.60764 0.96953 0.79089 0.0
Zn739 Zn 0.62682 1.0065 0.78678 0.0
O740 O 0.60742 1.0111 0.81249 0.0
O741 O 0.59325 0.98004 0.81669 0.0
O742 O 0.64306 0.03392 0.78512 0.0
O743 O 0.63533 0.95504 0.79339 0.0
O744 O 0.651 0.98557 0.79072 0.0
C745 C 0.5954 0.99894 0.82255 0.0
C746 C 0.59803 0.98851 0.7516 0.0
O747 O 0.61076 1.00268 0.75847 0.0
O748 O 0.59384 0.97295 0.76267 0.0
C749 C 0.64757 0.04299 0.76825 0.0
O750 O 0.6408 0.03488 0.75031 0.0
C751 C 0.65203 0.96591 0.79297 0.0
Zn752 Zn 0.01304 0.28585 0.8649 0.0
Zn753 Zn 0.01988 0.25222 0.88636 0.0
O754 O 0.04669 0.25436 0.86773 0.0
O755 O 0.03926 0.2813 0.84846 0.0
O756 O 0.02471 0.22667 0.90429 0.0
O757 O 0.01322 0.30425 0.89058 0.0
O758 O 0.01772 0.27619 0.90906 0.0
C759 C 0.05151 0.26672 0.85311 0.0
C760 C 0.98004 0.25632 0.85807 0.0
O761 O 0.99173 0.24526 0.86969 0.0
O762 O 0.98556 0.27476 0.85402 0.0
C763 C 0.02231 0.20808 0.89714 0.0
O764 O 0.0168 0.20514 0.87741 0.0
C765 C 0.01517 0.29587 0.90816 0.0
Zn766 Zn 0.51463 0.78922 0.36358 0.0
Zn767 Zn 0.51877 0.7568 0.38552 0.0
O768 O 0.54613 0.75721 0.36712 0.0
O769 O 0.53929 0.78283 0.346 0.0
O770 O 0.52249 0.73138 0.40398 0.0
O771 O 0.51764 0.80906 0.3879 0.0
O772 O 0.51653 0.78155 0.40765 0.0
C773 C 0.55113 0.76826 0.35152 0.0
C774 C 0.47957 0.76241 0.35703 0.0
O775 O 0.49066 0.75058 0.36845 0.0
O776 O 0.48609 0.78063 0.35339 0.0
C777 C 0.52123 0.71283 0.39647 0.0
O778 O 0.5174 0.71004 0.37635 0.0
C779 C 0.51705 0.80136 0.40587 0.0
Zn780 Zn 0.97002 0.7952 0.61174 0.0
Zn781 Zn 1.00599 0.78445 0.62864 0.0
O782 O 0.01401 0.81073 0.61145 0.0
O783 O 0.98311 0.82055 0.59972 0.0
O784 O 0.03305 0.77661 0.64362 0.0
O785 O 0.95578 0.79749 0.63927 0.0
O786 O 0.98596 0.7895 0.65382 0.0
C787 C 1.00274 0.82346 0.6013 0.0
C788 C 0.98279 0.75464 0.59742 0.0
O789 O 0.99817 0.75827 0.61006 0.0
O790 O 0.96881 0.76826 0.59512 0.0
C791 C 0.03319 0.75981 0.65376 0.0
O792 O 0.01616 0.74803 0.65353 0.0
C793 C 0.96667 0.79433 0.65552 0.0
Zn794 Zn 0.46476 0.29016 0.11541 0.0
Zn795 Zn 0.49888 0.27706 0.13431 0.0
O796 O 0.51009 0.30066 0.11528 0.0
O797 O 0.48145 0.31032 0.09879 0.0
O798 O 0.52503 0.2666 0.14902 0.0
O799 O 0.45232 0.29937 0.14259 0.0
O800 O 0.47967 0.28656 0.15895 0.0
C801 C 0.50106 0.31209 0.10188 0.0
C802 C 0.47131 0.24692 0.10689 0.0
O803 O 0.48788 0.25057 0.1179 0.0
O804 O 0.45841 0.26138 0.10381 0.0
C805 C 0.536 0.27784 0.16183 0.0
O806 O 0.5304 0.29717 0.16571 0.0
C807 C 0.46183 0.29542 0.15948 0.0
H808 H 0.20645 0.81634 0.90158 0.0
H809 H 0.26739 0.79362 0.88397 0.0
H810 H 0.28297 0.80964 0.91547 0.0
H811 H 0.2796 0.82977 0.94795 0.0
H812 H 0.21926 0.85348 0.96606 0.0
H813 H 0.20326 0.83769 0.93425 0.0
C814 C 0.22317 0.81504 0.90454 0.0
C815 C 0.23564 0.80352 0.89041 0.0
C816 C 0.23218 0.82451 0.92275 0.0
C817 C 0.25726 0.80193 0.89468 0.0
C818 C 0.26626 0.81124 0.91266 0.0
C819 C 0.26292 0.83157 0.94503 0.0
C820 C 0.25067 0.84278 0.95951 0.0
C821 C 0.25388 0.82247 0.92682 0.0
C822 C 0.22911 0.84495 0.95525 0.0
C823 C 0.21994 0.83589 0.93706 0.0
H824 H 0.06916 0.55283 0.39575 0.0
H825 H 0.02 0.50603 0.38903 0.0
H826 H 0.03835 0.48971 0.35992 0.0
H827 H 0.06823 0.48849 0.33642 0.0
H828 H 0.1168 0.53593 0.34168 0.0
H829 H 0.09857 0.55242 0.37106 0.0
C830 C 0.0623 0.53921 0.38778 0.0
C831 C 0.04326 0.53061 0.39482 0.0
C832 C 0.07281 0.53001 0.37075 0.0
C833 C 0.03482 0.51278 0.38435 0.0
C834 C 0.04523 0.50349 0.36756 0.0
C835 C 0.07489 0.50243 0.34398 0.0
C836 C 0.09395 0.51087 0.33691 0.0
C837 C 0.06427 0.5119 0.3607 0.0
C838 C 0.10218 0.52908 0.3468 0.0
C839 C 0.09177 0.5385 0.36362 0.0
H840 H 0.79242 0.74886 0.93217 0.0
H841 H 0.80543 0.71597 0.87417 0.0
H842 H 0.80324 0.6828 0.8917 0.0
H843 H 0.79716 0.66307 0.92306 0.0
H844 H 0.7841 0.6952 0.98145 0.0
H845 H 0.78661 0.72874 0.96414 0.0
C846 C 0.7947 0.73441 0.92339 0.0
C847 C 0.7992 0.73493 0.90189 0.0
C848 C 0.79335 0.71528 0.93358 0.0
C849 C 0.80231 0.71607 0.89077 0.0
C850 C 0.80091 0.69707 0.90075 0.0
C851 C 0.79482 0.67737 0.93208 0.0
C852 C 0.79036 0.67658 0.95353 0.0
C853 C 0.79639 0.69649 0.9221 0.0
C854 C 0.78754 0.69534 0.96492 0.0
C855 C 0.78897 0.71452 0.95502 0.0
H856 H 0.9465 0.99464 0.38642 0.0
H857 H 0.99618 0.98405 0.3425 0.0
H858 H 0.9726 0.99295 0.31356 0.0
H859 H 0.93691 1.00182 0.30058 0.0
H860 H 0.88775 0.01175 0.34548 0.0
H861 H 0.91198 1.00493 0.37395 0.0
C862 C 0.95217 0.99419 0.37051 0.0
C863 C 0.97299 0.98845 0.36664 0.0
C864 C 0.93854 0.99915 0.35401 0.0
C865 C 0.98022 0.98846 0.34595 0.0
C866 C 0.9667 0.99345 0.32937 0.0
C867 C 0.93159 1.00268 0.3166 0.0
C868 C 0.91042 1.00713 0.32074 0.0
C869 C 0.9457 0.99857 0.33317 0.0
C870 C 0.90385 1.00818 0.34167 0.0
C871 C 0.91771 1.00429 0.35807 0.0
H872 H 0.22831 0.20562 0.61146 0.0
H873 H 0.28937 0.23239 0.62631 0.0
H874 H 0.304 0.2146 0.59573 0.0
H875 H 0.29966 0.19083 0.56509 0.0
H876 H 0.23866 0.16352 0.55084 0.0
H877 H 0.22397 0.18187 0.58099 0.0
C878 C 0.24486 0.20744 0.60815 0.0
C879 C 0.25768 0.22036 0.62127 0.0
C880 C 0.25325 0.19698 0.59064 0.0
C881 C 0.27903 0.22279 0.6164 0.0
C882 C 0.28747 0.21249 0.59897 0.0
C883 C 0.28315 0.18889 0.56855 0.0
C884 C 0.27034 0.17574 0.55565 0.0
C885 C 0.27475 0.19949 0.586 0.0
C886 C 0.24895 0.17348 0.56045 0.0
C887 C 0.2405 0.18399 0.57771 0.0
H888 H 0.45453 0.56226 0.64938 0.0
H889 H 0.48756 0.50399 0.64691 0.0
H890 H 0.46852 0.49223 0.67737 0.0
H891 H 0.44213 0.49818 0.70455 0.0
H892 H 0.40849 0.55611 0.7065 0.0
H893 H 0.42786 0.56805 0.67629 0.0
C894 C 0.45745 0.54689 0.65533 0.0
C895 C 0.47258 0.5341 0.64573 0.0
C896 C 0.44625 0.54008 0.6728 0.0
C897 C 0.47631 0.51437 0.65405 0.0
C898 C 0.46529 0.50754 0.67143 0.0
C899 C 0.439 0.51343 0.6984 0.0
C900 C 0.4238 0.52618 0.70789 0.0
C901 C 0.45021 0.52024 0.68093 0.0
C902 C 0.42004 0.5459 0.69959 0.0
C903 C 0.43114 0.55278 0.68228 0.0
H904 H 0.7473 0.29998 0.63218 0.0
H905 H 0.81232 0.28273 0.6267 0.0
H906 H 0.81612 0.30512 0.59685 0.0
H907 H 0.80093 0.32823 0.57139 0.0
H908 H 0.73628 0.3466 0.5763 0.0
H909 H 0.73252 0.32548 0.60754 0.0
C910 C 0.76237 0.30134 0.62462 0.0
C911 C 0.77942 0.28935 0.63155 0.0
C912 C 0.76452 0.31442 0.60735 0.0
C913 C 0.79879 0.29131 0.62146 0.0
C914 C 0.80103 0.30423 0.60443 0.0
C915 C 0.78597 0.32772 0.57928 0.0
C916 C 0.76883 0.33883 0.57133 0.0
C917 C 0.78395 0.31558 0.59706 0.0
C918 C 0.74971 0.33819 0.58203 0.0
C919 C 0.74756 0.32605 0.59985 0.0
H920 H 0.57038 0.99517 0.65664 0.0
H921 H 0.52092 0.95455 0.67771 0.0
H922 H 0.53513 0.95695 0.71329 0.0
H923 H 0.56237 0.96908 0.73803 0.0
H924 H 0.61166 1.01036 0.7179 0.0
H925 H 0.59671 1.00934 0.68235 0.0
C926 C 0.56273 0.98693 0.66908 0.0
C927 C 0.54465 0.97467 0.66456 0.0
C928 C 0.57096 0.98845 0.68961 0.0
C929 C 0.53473 0.96423 0.68083 0.0
C930 C 0.54291 0.9655 0.70115 0.0
C931 C 0.56983 0.97794 0.7259 0.0
C932 C 0.58823 0.9896 0.73054 0.0
C933 C 0.56112 0.97735 0.70566 0.0
C934 C 0.59749 1.00125 0.71472 0.0
C935 C 0.589 1.00059 0.69439 0.0
H936 H 0.90455 0.21353 0.80702 0.0
H937 H 0.88153 0.27636 0.81252 0.0
H938 H 0.9117 0.28655 0.83433 0.0
H939 H 0.94571 0.27857 0.84973 0.0
H940 H 0.96949 0.21611 0.84539 0.0
H941 H 0.93789 0.20473 0.82547 0.0
C942 C 0.90613 0.22939 0.81315 0.0
C943 C 0.89075 0.24415 0.80812 0.0
C944 C 0.92365 0.23523 0.82583 0.0
C945 C 0.89293 0.26461 0.81631 0.0
C946 C 0.91027 0.27052 0.8287 0.0
C947 C 0.94391 0.26239 0.84459 0.0
C948 C 0.95999 0.24824 0.84881 0.0
C949 C 0.92585 0.25607 0.83326 0.0
C950 C 0.9573 0.22728 0.84235 0.0
C951 C 0.93931 0.22084 0.83085 0.0
H952 H 0.49272 0.85652 0.48493 0.0
H953 H 0.52076 0.90396 0.44721 0.0
H954 H 0.53087 0.87758 0.42138 0.0
H955 H 0.5292 0.84174 0.40801 0.0
H956 H 0.50136 0.79363 0.44489 0.0
H957 H 0.49419 0.81946 0.47278 0.0
C958 C 0.50135 0.86101 0.47123 0.0
C959 C 0.50563 0.88228 0.46784 0.0
C960 C 0.50711 0.84566 0.45627 0.0
C961 C 0.51683 0.88781 0.44998 0.0
C962 C 0.52271 0.87271 0.43523 0.0
C963 C 0.52174 0.83681 0.42224 0.0
C964 C 0.51559 0.81583 0.42425 0.0
C965 C 0.51748 0.8517 0.43796 0.0
C966 C 0.50625 0.80968 0.44293 0.0
C967 C 0.50203 0.82448 0.45881 0.0
H968 H 0.14415 0.26228 0.81852 0.0
H969 H 0.11378 0.29235 0.76691 0.0
H970 H 0.08001 0.28924 0.78399 0.0
H971 H 0.05936 0.28007 0.81432 0.0
H972 H 0.08866 0.24944 0.86609 0.0
H973 H 0.1225 0.25051 0.8482 0.0
C974 C 0.13009 0.26803 0.81101 0.0
C975 C 0.13154 0.27755 0.79143 0.0
C976 C 0.11055 0.26615 0.82097 0.0
C977 C 0.11314 0.28475 0.78181 0.0
C978 C 0.0938 0.28311 0.79164 0.0
C979 C 0.07312 0.27348 0.82168 0.0
C980 C 0.07153 0.26488 0.84162 0.0
C981 C 0.09237 0.27412 0.81131 0.0
C982 C 0.08944 0.25614 0.85075 0.0
C983 C 0.10881 0.25686 0.84056 0.0
H984 H 0.53336 0.62619 0.43996 0.0
H985 H 0.54359 0.66659 0.4942 0.0
H986 H 0.53701 0.69705 0.47305 0.0
H987 H 0.52943 0.71244 0.43876 0.0
H988 H 0.51985 0.67171 0.3846 0.0
H989 H 0.52537 0.64139 0.40602 0.0
C990 C 0.53429 0.64165 0.44718 0.0
C991 C 0.53906 0.64396 0.46872 0.0
C992 C 0.5307 0.65916 0.43487 0.0
C993 C 0.53974 0.6642 0.47776 0.0
C994 C 0.53613 0.68169 0.46562 0.0
C995 C 0.52851 0.69694 0.43163 0.0
C996 C 0.52428 0.69449 0.40999 0.0
C997 C 0.53173 0.6794 0.4441 0.0
C998 C 0.52312 0.6742 0.40114 0.0
C999 C 0.52627 0.65677 0.4134 0.0
H1000 H 0.93357 0.79414 0.74852 0.0
H1001 H 0.87822 0.81654 0.71706 0.0
H1002 H 0.89646 0.81569 0.68388 0.0
H1003 H 0.92745 0.80772 0.66358 0.0
H1004 H 0.98304 0.78477 0.69411 0.0
H1005 H 0.96531 0.78659 0.72785 0.0
C1006 C 0.92551 0.79878 0.73438 0.0
C1007 C 0.90456 0.80551 0.73535 0.0
C1008 C 0.93608 0.79809 0.71519 0.0
C1009 C 0.89442 0.81166 0.71689 0.0
C1010 C 0.90479 0.81102 0.69785 0.0
C1011 C 0.93579 0.80312 0.67758 0.0
C1012 C 0.95655 0.79604 0.67625 0.0
C1013 C 0.92554 0.80418 0.6968 0.0
C1014 C 0.96706 0.79029 0.69464 0.0
C1015 C 0.95691 0.79129 0.71394 0.0
H1016 H 0.0226 0.90289 0.54923 0.0
H1017 H 0.07968 0.86957 0.53725 0.0
H1018 H 0.06875 0.8424 0.56113 0.0
H1019 H 0.04169 0.82697 0.58386 0.0
H1020 H 0.9842 0.86023 0.5942 0.0
H1021 H 0.99657 0.88847 0.57267 0.0
C1022 C 0.0326 0.88962 0.55172 0.0
C1023 C 0.05181 0.88818 0.54127 0.0
C1024 C 0.02615 0.87401 0.56528 0.0
C1025 C 0.06482 0.87111 0.54512 0.0
C1026 C 0.05855 0.85552 0.55873 0.0
C1027 C 0.03208 0.84057 0.58165 0.0
C1028 C 0.01204 0.84146 0.59057 0.0
C1029 C 0.03911 0.85668 0.56876 0.0
C1030 C 0.99964 0.8591 0.5874 0.0
C1031 C 1.00667 0.87526 0.57505 0.0
H1032 H 0.10396 0.72076 0.71019 0.0
H1033 H 0.13331 0.78068 0.7008 0.0
H1034 H 0.1033 0.79106 0.67943 0.0
H1035 H 0.06871 0.78296 0.66306 0.0
H1036 H 0.03961 0.72292 0.67277 0.0
H1037 H 0.0696 0.71271 0.69401 0.0
C1038 C 0.10389 0.73604 0.70334 0.0
C1039 C 0.12094 0.74988 0.7071 0.0
C1040 C 0.08662 0.74188 0.69101 0.0
C1041 C 0.12034 0.76977 0.69839 0.0
C1042 C 0.10322 0.77567 0.68603 0.0
C1043 C 0.06897 0.76761 0.66975 0.0
C1044 C 0.05189 0.75373 0.66623 0.0
C1045 C 0.08628 0.76184 0.68218 0.0
C1046 C 0.05247 0.73396 0.67518 0.0
C1047 C 0.06965 0.72807 0.68737 0.0
H1048 H 0.9562 0.67503 0.54323 0.0
H1049 H 1.00736 0.64812 0.57751 0.0
H1050 H 0.01513 0.68199 0.59474 0.0
H1051 H 1.00595 0.71902 0.60137 0.0
H1052 H 0.95423 0.74494 0.56672 0.0
H1053 H 0.94813 0.71174 0.54851 0.0
C1054 C 0.96902 0.67655 0.55452 0.0
C1055 C 0.98102 0.65906 0.55927 0.0
C1056 C 0.97326 0.69593 0.5644 0.0
C1057 C 0.9979 0.66139 0.57357 0.0
C1058 C 1.00227 0.68072 0.58349 0.0
C1059 C 0.99346 0.71742 0.58973 0.0
C1060 C 0.98049 0.7345 0.58562 0.0
C1061 C 0.98987 0.69808 0.57922 0.0
C1062 C 0.96439 0.73211 0.57041 0.0
C1063 C 0.96084 0.71309 0.55992 0.0
H1064 H 0.82569 0.89075 0.21184 0.0
H1065 H 0.77334 0.89639 0.25374 0.0
H1066 H 0.78683 0.92996 0.26664 0.0
H1067 H 0.81342 0.95743 0.26666 0.0
H1068 H 0.86565 0.95326 0.22461 0.0
H1069 H 0.85198 0.91962 0.2108 0.0
C1070 C 0.81713 0.8994 0.22366 0.0
C1071 C 0.79863 0.89076 0.23199 0.0
C1072 C 0.82489 0.91901 0.23093 0.0
C1073 C 0.78786 0.90226 0.24738 0.0
C1074 C 0.79547 0.92161 0.25467 0.0
C1075 C 0.82189 0.94926 0.25444 0.0
C1076 C 0.84066 0.95785 0.24681 0.0
C1077 C 0.81401 0.93004 0.24669 0.0
C1078 C 0.85119 0.94704 0.23079 0.0
C1079 C 0.8434 0.92777 0.22295 0.0
H1080 H 0.82067 0.14345 0.26323 0.0
H1081 H 0.76148 0.11601 0.28092 0.0
H1082 H 0.77634 0.08136 0.278 0.0
H1083 H 0.80657 0.05898 0.27314 0.0
H1084 H 0.86608 0.08531 0.25531 0.0
H1085 H 0.85067 0.12021 0.25537 0.0
C1086 C 0.81103 0.12985 0.26631 0.0
C1087 C 0.78995 0.1324 0.27231 0.0
C1088 C 0.81974 0.10979 0.26465 0.0
C1089 C 0.77762 0.11458 0.27603 0.0
C1090 C 0.78615 0.09472 0.27451 0.0
C1091 C 0.81617 0.07232 0.26907 0.0
C1092 C 0.8375 0.06959 0.26445 0.0
C1093 C 0.80724 0.09217 0.2692 0.0
C1094 C 0.84962 0.08699 0.2589 0.0
C1095 C 0.84083 0.10695 0.25908 0.0
H1096 H 0.37578 0.96646 0.01459 0.0
H1097 H 0.33946 0.99059 0.9635 0.0
H1098 H 0.31106 0.96571 0.9703 0.0
H1099 H 0.29796 0.93475 0.98883 0.0
H1100 H 0.33573 0.90961 0.03825 0.0
H1101 H 0.36181 0.93749 0.03452 0.0
C1102 C 0.36148 0.96659 1.00521 0.0
C1103 C 0.35981 0.98033 0.98852 0.0
C1104 C 0.3454 0.95203 1.00899 0.0
C1105 C 0.34127 0.98001 0.9763 0.0
C1106 C 0.32498 0.96583 0.98022 0.0
C1107 C 0.31165 0.93581 0.99909 0.0
C1108 C 0.3149 0.9204 0.01396 0.0
C1109 C 0.32704 0.95145 0.99626 0.0
C1110 C 0.33291 0.92149 0.02685 0.0
C1111 C 0.34787 0.93732 0.02462 0.0
H1112 H 0.22717 0.39126 0.30839 0.0
H1113 H 0.26849 0.44241 0.29357 0.0
H1114 H 0.2383 0.46519 0.28955 0.0
H1115 H 0.19993 0.47045 0.28993 0.0
H1116 H 0.15912 0.41884 0.30502 0.0
H1117 H 0.18933 0.3966 0.30952 0.0
C1118 C 0.22963 0.40747 0.30457 0.0
C1119 C 0.2501 0.41509 0.30135 0.0
C1120 C 0.21224 0.42046 0.30231 0.0
C1121 C 0.2529 0.43605 0.29596 0.0
C1122 C 0.23564 0.44912 0.29374 0.0
C1123 C 0.19766 0.45436 0.29428 0.0
C1124 C 0.1772 0.44641 0.29709 0.0
C1125 C 0.2152 0.44148 0.2968 0.0
C1126 C 0.17461 0.42547 0.30269 0.0
C1127 C 0.19191 0.41267 0.30529 0.0
H1128 H 0.15011 0.07366 0.479 0.0
H1129 H 0.17695 0.02329 0.44279 0.0
H1130 H 0.21166 0.03957 0.44643 0.0
H1131 H 0.23423 0.06829 0.45907 0.0
H1132 H 0.20836 0.11844 0.49631 0.0
H1133 H 0.17341 0.10208 0.49315 0.0
C1134 C 0.1636 0.06631 0.47194 0.0
C1135 C 0.16099 0.04731 0.46064 0.0
C1136 C 0.18362 0.07571 0.47424 0.0
C1137 C 0.1786 0.03781 0.45173 0.0
C1138 C 0.19842 0.04715 0.45371 0.0
C1139 C 0.22096 0.0757 0.46651 0.0
C1140 C 0.22385 0.09466 0.47774 0.0
C1141 C 0.20109 0.06612 0.46482 0.0
C1142 C 0.20654 0.10385 0.48755 0.0
C1143 C 0.18656 0.09452 0.4857 0.0
H1144 H 0.71286 0.11692 0.78387 0.0
H1145 H 0.70006 0.12572 0.71826 0.0
H1146 H 0.67503 0.09661 0.71787 0.0
H1147 H 0.65729 0.0681 0.73592 0.0
H1148 H 0.66927 0.06011 0.80179 0.0
H1149 H 0.69371 0.08973 0.80234 0.0
C1150 C 0.70437 0.11275 0.76953 0.0
C1151 C 0.70854 0.12354 0.75109 0.0
C1152 C 0.68979 0.0961 0.76944 0.0
C1153 C 0.69754 0.11754 0.73262 0.0
C1154 C 0.68309 0.10095 0.7324 0.0
C1155 C 0.66517 0.07287 0.75043 0.0
C1156 C 0.66148 0.06177 0.76876 0.0
C1157 C 0.67922 0.08999 0.75067 0.0
C1158 C 0.67177 0.06832 0.78743 0.0
C1159 C 0.68581 0.08525 0.78776 0.0
H1160 H 0.38664 0.06728 0.55724 0.0
H1161 H 0.38155 0.01885 0.50918 0.0
H1162 H 0.35288 0.03711 0.4926 0.0
H1163 H 0.32976 0.06684 0.49111 0.0
H1164 H 0.33302 0.11498 0.53942 0.0
H1165 H 0.36163 0.09654 0.55679 0.0
C1166 C 0.3791 0.06058 0.54329 0.0
C1167 C 0.38657 0.04181 0.53434 0.0
C1168 C 0.36228 0.07107 0.53388 0.0
C1169 C 0.3766 0.03349 0.51616 0.0
C1170 C 0.36005 0.04385 0.50672 0.0
C1171 C 0.33669 0.07339 0.50545 0.0
C1172 C 0.3294 0.09239 0.51383 0.0
C1173 C 0.35293 0.06271 0.51531 0.0
C1174 C 0.33836 0.1004 0.53261 0.0
C1175 C 0.35475 0.08988 0.5425 0.0
H1176 H 0.66511 0.4806 0.5689 0.0
H1177 H 0.63163 0.45608 0.51438 0.0
H1178 H 0.66062 0.43265 0.50672 0.0
H1179 H 0.69531 0.41838 0.51602 0.0
H1180 H 0.72825 0.44294 0.57091 0.0
H1181 H 0.69959 0.46671 0.57798 0.0
C1182 C 0.66404 0.47004 0.5554 0.0
C1183 C 0.64608 0.47015 0.5423 0.0
C1184 C 0.6807 0.45645 0.55118 0.0
C1185 C 0.64529 0.45658 0.52465 0.0
C1186 C 0.66183 0.44303 0.52033 0.0
C1187 C 0.69621 0.42891 0.52954 0.0
C1188 C 0.71399 0.42873 0.54292 0.0
C1189 C 0.67959 0.44272 0.53355 0.0
C1190 C 0.71484 0.44262 0.56031 0.0
C1191 C 0.69842 0.45629 0.5644 0.0
H1192 H 0.71023 0.31802 0.39949 0.0
H1193 H 0.77013 0.28905 0.38913 0.0
H1194 H 0.78388 0.30497 0.42152 0.0
H1195 H 0.77924 0.3271 0.45259 0.0
H1196 H 0.71999 0.35715 0.46315 0.0
H1197 H 0.7058 0.34107 0.43069 0.0
C1198 C 0.72635 0.31533 0.40421 0.0
C1199 C 0.73903 0.30216 0.39184 0.0
C1200 C 0.73433 0.32477 0.42286 0.0
C1201 C 0.75983 0.29872 0.39843 0.0
C1202 C 0.76779 0.30796 0.41692 0.0
C1203 C 0.76319 0.33019 0.44788 0.0
C1204 C 0.75071 0.34333 0.46041 0.0
C1205 C 0.75519 0.32096 0.42925 0.0
C1206 C 0.72998 0.34713 0.45387 0.0
C1207 C 0.72185 0.33791 0.4353 0.0
H1208 H 0.53828 0.01496 0.90095 0.0
H1209 H 0.54897 0.07897 0.88458 0.0
H1210 H 0.57166 0.06767 0.85603 0.0
H1211 H 0.58775 0.03935 0.83499 0.0
H1212 H 0.57581 0.97545 0.85133 0.0
H1213 H 0.5543 0.98699 0.88039 0.0
C1214 C 0.54538 0.02646 0.89102 0.0
C1215 C 0.5418 0.04777 0.89488 0.0
C1216 C 0.55825 0.01987 0.87456 0.0
C1217 C 0.55156 0.06245 0.8821 0.0
C1218 C 0.56448 0.056 0.86569 0.0
C1219 C 0.58056 0.02799 0.84501 0.0
C1220 C 0.58339 1.00656 0.84087 0.0
C1221 C 0.56791 0.03472 0.86171 0.0
C1222 C 0.57385 0.99204 0.85399 0.0
C1223 C 0.56151 0.99861 0.87067 0.0
H1224 H 0.30988 0.2259 0.39459 0.0
H1225 H 0.28682 0.26583 0.4442 0.0
H1226 H 0.28211 0.23566 0.46635 0.0
H1227 H 0.28389 0.19761 0.47131 0.0
H1228 H 0.30724 0.15829 0.42122 0.0
H1229 H 0.31279 0.18855 0.39986 0.0
C1230 C 0.30414 0.2281 0.41037 0.0
C1231 C 0.29876 0.24814 0.41768 0.0
C1232 C 0.30149 0.21073 0.423 0.0
C1233 C 0.2909 0.25056 0.43805 0.0
C1234 C 0.28828 0.23331 0.45078 0.0
C1235 C 0.2903 0.19569 0.45578 0.0
C1236 C 0.29504 0.17561 0.44794 0.0
C1237 C 0.2934 0.21327 0.44336 0.0
C1238 C 0.30333 0.17347 0.42772 0.0
C1239 C 0.30653 0.1908 0.41542 0.0
H1240 H 0.48629 0.48983 0.85066 0.0
H1241 H 0.44715 0.50464 0.90339 0.0
H1242 H 0.41848 0.51352 0.87987 0.0
H1243 H 0.40392 0.51576 0.84468 0.0
H1244 H 0.4423 0.5019 0.79123 0.0
H1245 H 0.47193 0.49411 0.81463 0.0
C1246 C 0.47149 0.49507 0.85693 0.0
C1247 C 0.46889 0.49661 0.87878 0.0
C1248 C 0.45495 0.50028 0.84322 0.0
C1249 C 0.44968 0.50357 0.88669 0.0
C1250 C 0.43321 0.50854 0.87324 0.0
C1251 C 0.41878 0.51108 0.83807 0.0
C1252 C 0.42083 0.50919 0.81624 0.0
C1253 C 0.43561 0.50677 0.85154 0.0
C1254 C 0.44031 0.50346 0.80799 0.0
C1255 C 0.4572 0.49892 0.82137 0.0
H1256 H 0.76162 0.69807 0.12509 0.0
H1257 H 0.71077 0.73101 0.09617 0.0
H1258 H 0.71722 0.71298 0.06288 0.0
H1259 H 0.73686 0.68757 0.04205 0.0
H1260 H 0.78775 0.65436 0.07063 0.0
H1261 H 0.78181 0.67286 0.10388 0.0
C1262 C 0.7521 0.70143 0.11144 0.0
C1263 C 0.73566 0.71581 0.11318 0.0
C1264 C 0.75585 0.69092 0.09228 0.0
C1265 C 0.72332 0.71982 0.09537 0.0
C1266 C 0.72705 0.70957 0.07629 0.0
C1267 C 0.7467 0.68435 0.05552 0.0
C1268 C 0.76271 0.66953 0.05379 0.0
C1269 C 0.74317 0.695 0.07459 0.0
C1270 C 0.77529 0.66564 0.07148 0.0
C1271 C 0.77191 0.67624 0.09052 0.0
H1272 H 0.93887 0.03421 0.12895 0.0
H1273 H 0.99376 0.03941 0.16906 0.0
H1274 H 0.97222 0.03236 0.19952 0.0
H1275 H 0.93735 0.02579 0.21503 0.0
H1276 H 0.88272 0.02131 0.17437 0.0
H1277 H 0.90452 0.02726 0.14413 0.0
C1278 C 0.94616 0.03396 0.14436 0.0
C1279 C 0.96797 0.03748 0.1466 0.0
C1280 C 0.93365 0.0301 0.16184 0.0
C1281 C 0.97709 0.03659 0.16673 0.0
C1282 C 0.96473 0.03269 0.18422 0.0
C1283 C 0.93023 0.02608 0.19955 0.0
C1284 C 0.90832 0.02316 0.19713 0.0
C1285 C 0.94293 0.02957 0.18201 0.0
C1286 C 0.89946 0.02355 0.17687 0.0
C1287 C 0.91193 0.02696 0.15947 0.0
H1288 H 0.296 0.78394 0.12323 0.0
H1289 H 0.23362 0.80245 0.14035 0.0
H1290 H 0.23205 0.82549 0.11046 0.0
H1291 H 0.24828 0.83976 0.07862 0.0
H1292 H 0.31069 0.82028 0.06217 0.0
H1293 H 0.31237 0.79865 0.09263 0.0
C1294 C 0.28217 0.79324 0.12066 0.0
C1295 C 0.265 0.79145 0.1341 0.0
C1296 C 0.28132 0.80634 0.10342 0.0
C1297 C 0.24703 0.80335 0.13018 0.0
C1298 C 0.24614 0.8166 0.1131 0.0
C1299 C 0.26226 0.83087 0.08179 0.0
C1300 C 0.27925 0.83166 0.06793 0.0
C1301 C 0.26315 0.81812 0.09946 0.0
C1302 C 0.29725 0.81994 0.07234 0.0
C1303 C 0.2983 0.80752 0.08985 0.0
H1304 H 0.06652 0.50923 0.16305 0.0
H1305 H 0.0433 0.44602 0.16739 0.0
H1306 H 0.06356 0.44183 0.19954 0.0
H1307 H 0.08625 0.4565 0.22732 0.0
H1308 H 0.10961 0.51972 0.2238 0.0
H1309 H 0.09092 0.52352 0.19042 0.0
C1310 C 0.06592 0.49456 0.17106 0.0
C1311 C 0.05338 0.47797 0.16281 0.0
C1312 C 0.07755 0.49227 0.1897 0.0
C1313 C 0.053 0.45895 0.17322 0.0
C1314 C 0.06447 0.45658 0.1917 0.0
C1315 C 0.08736 0.47112 0.21926 0.0
C1316 C 0.09917 0.48786 0.22818 0.0
C1317 C 0.07658 0.47319 0.2002 0.0
C1318 C 0.10061 0.50659 0.21733 0.0
C1319 C 0.08986 0.50879 0.19827 0.0
H1320 H 0.40162 0.72158 0.30773 0.0
H1321 H 0.38652 0.78669 0.30294 0.0
H1322 H 0.41693 0.79636 0.32457 0.0
H1323 H 0.44865 0.78687 0.34322 0.0
H1324 H 0.46505 0.72226 0.34859 0.0
H1325 H 0.43322 0.71184 0.32857 0.0
C1326 C 0.40501 0.73786 0.3115 0.0
C1327 C 0.39168 0.75337 0.30374 0.0
C1328 C 0.42274 0.74342 0.32403 0.0
C1329 C 0.39623 0.77439 0.30891 0.0
C1330 C 0.41372 0.77998 0.32119 0.0
C1331 C 0.44528 0.77045 0.34014 0.0
C1332 C 0.45934 0.75537 0.34722 0.0
C1333 C 0.42717 0.76468 0.32862 0.0
C1334 C 0.45449 0.73418 0.34334 0.0
C1335 C 0.43636 0.72825 0.33178 0.0
H1336 H 0.02046 0.34508 0.99532 0.0
H1337 H 0.99092 0.39179 0.95789 0.0
H1338 H 0.99093 0.36817 0.92756 0.0
H1339 H 0.99987 0.33483 0.91131 0.0
H1340 H 0.02806 0.28706 0.94822 0.0
H1341 H 0.02764 0.31041 0.9792 0.0
C1342 C 0.01379 0.35001 0.9806 0.0
C1343 C 1.00601 0.3704 0.97891 0.0
C1344 C 0.01358 0.33618 0.96312 0.0
C1345 C 0.99753 0.37646 0.95961 0.0
C1346 C 0.99737 0.3629 0.94224 0.0
C1347 C 1.00595 0.32945 0.92611 0.0
C1348 C 0.01418 0.30928 0.92738 0.0
C1349 C 1.00554 0.34284 0.94376 0.0
C1350 C 0.02167 0.30252 0.94679 0.0
C1351 C 0.02147 0.31589 0.96449 0.0
H1352 H 0.64369 0.76425 0.31707 0.0
H1353 H 0.61226 0.79139 0.26436 0.0
H1354 H 0.5785 0.78695 0.28115 0.0
H1355 H 0.55827 0.77844 0.31176 0.0
H1356 H 0.58851 0.75166 0.36522 0.0
H1357 H 0.62228 0.75242 0.34706 0.0
C1358 C 0.62939 0.76886 0.30918 0.0
C1359 C 0.63054 0.77849 0.28963 0.0
C1360 C 0.60985 0.76641 0.31908 0.0
C1361 C 0.61187 0.78436 0.27957 0.0
C1362 C 0.59253 0.78177 0.28913 0.0
C1363 C 0.5722 0.77255 0.31942 0.0
C1364 C 0.57093 0.76525 0.33992 0.0
C1365 C 0.59141 0.77333 0.30906 0.0
C1366 C 0.58906 0.75737 0.34945 0.0
C1367 C 0.60838 0.75795 0.33911 0.0
H1368 H 0.03336 0.12187 0.94171 0.0
H1369 H 0.04684 0.16288 0.99484 0.0
H1370 H 0.04068 0.19316 0.97332 0.0
H1371 H 0.03237 0.20816 0.93903 0.0
H1372 H 0.01943 0.16683 0.88596 0.0
H1373 H 0.02478 0.13671 0.90773 0.0
C1374 C 0.0351 0.13742 0.9486 0.0
C1375 C 0.04064 0.13997 0.96993 0.0
C1376 C 0.03173 0.15482 0.93606 0.0
C1377 C 0.04237 0.16033 0.97857 0.0
C1378 C 0.039 0.17771 0.96621 0.0
C1379 C 0.03072 0.19257 0.93221 0.0
C1380 C 0.02556 0.18988 0.91078 0.0
C1381 C 0.0338 0.17517 0.94488 0.0
C1382 C 0.02342 0.16949 0.90233 0.0
C1383 C 0.02647 0.15219 0.91479 0.0
H1384 H 0.40122 0.31859 0.23306 0.0
H1385 H 0.44258 0.27832 0.26685 0.0
H1386 H 0.46444 0.2742 0.23592 0.0
H1387 H 0.47078 0.28072 0.19851 0.0
H1388 H 0.42891 0.32117 0.16543 0.0
H1389 H 0.40872 0.32689 0.19696 0.0
C1390 C 0.41524 0.30923 0.23387 0.0
C1391 C 0.42015 0.29876 0.25231 0.0
C1392 C 0.42772 0.30694 0.21608 0.0
C1393 C 0.4382 0.28635 0.2528 0.0
C1394 C 0.45079 0.28406 0.23513 0.0
C1395 C 0.45741 0.29099 0.1983 0.0
C1396 C 0.45133 0.30036 0.17954 0.0
C1397 C 0.44555 0.29407 0.21656 0.0
C1398 C 0.43389 0.31358 0.17956 0.0
C1399 C 0.42227 0.31688 0.19761 0.0
H1400 H 0.56271 0.37349 0.05552 0.0
H1401 H 0.50406 0.39009 0.02609 0.0
H1402 H 0.48551 0.36435 0.04639 0.0
H1403 H 0.48555 0.33773 0.0727 0.0
H1404 H 0.54353 0.32102 0.10325 0.0
H1405 H 0.56265 0.34646 0.0825 0.0
C1406 C 0.54586 0.37155 0.05363 0.0
C1407 C 0.53488 0.38368 0.0391 0.0
C1408 C 0.53513 0.3568 0.06562 0.0
C1409 C 0.51304 0.38075 0.03677 0.0
C1410 C 0.50235 0.36614 0.04852 0.0
C1411 C 0.50239 0.33957 0.07491 0.0
C1412 C 0.51306 0.32744 0.08958 0.0
C1413 C 0.51321 0.35414 0.06299 0.0
C1414 C 0.53489 0.33014 0.09211 0.0
C1415 C 0.54583 0.34468 0.08022 0.0
H1416 H 0.61218 0.22813 0.19956 0.0
H1417 H 0.62446 0.28787 0.23015 0.0
H1418 H 0.59345 0.30209 0.21321 0.0
H1419 H 0.56306 0.29781 0.18931 0.0
H1420 H 0.55125 0.23828 0.1581 0.0
H1421 H 0.582 0.22393 0.17541 0.0
C1422 C 0.60822 0.24432 0.20239 0.0
C1423 C 0.62073 0.25685 0.21619 0.0
C1424 C 0.59044 0.25251 0.19241 0.0
C1425 C 0.61503 0.27772 0.21989 0.0
C1426 C 0.59735 0.28594 0.21007 0.0
C1427 C 0.56718 0.28169 0.18627 0.0
C1428 C 0.55479 0.26919 0.17237 0.0
C1429 C 0.58495 0.27349 0.19628 0.0
C1430 C 0.56045 0.24832 0.16867 0.0
C1431 C 0.57806 0.24006 0.17859 0.0
H1432 H 0.43652 0.16457 0.06238 0.0
H1433 H 0.50108 0.1464 0.06937 0.0
H1434 H 0.5095 0.17979 0.08721 0.0
H1435 H 0.49838 0.21455 0.10041 0.0
H1436 H 0.43368 0.2322 0.09225 0.0
H1437 H 0.42545 0.19855 0.07562 0.0
C1438 C 0.45239 0.16778 0.06804 0.0
C1439 C 0.4681 0.15296 0.06468 0.0
C1440 C 0.45711 0.18697 0.07811 0.0
C1441 C 0.4887 0.1576 0.07168 0.0
C1442 C 0.4935 0.17665 0.08195 0.0
C1443 C 0.48248 0.21094 0.0951 0.0
C1444 C 0.4667 0.22594 0.09757 0.0
C1445 C 0.47783 0.19152 0.0852 0.0
C1446 C 0.44618 0.22106 0.09047 0.0
C1447 C 0.44141 0.20178 0.08095 0.0
H1448 H 0.32082 0.40175 0.71325 0.0
H1449 H 0.27286 0.40497 0.76027 0.0
H1450 H 0.28743 0.43805 0.77349 0.0
H1451 H 0.31406 0.46559 0.77248 0.0
H1452 H 0.36175 0.46358 0.72525 0.0
H1453 H 0.34663 0.43077 0.71101 0.0
C1454 C 0.31338 0.40979 0.72623 0.0
C1455 C 0.29587 0.40059 0.73589 0.0
C1456 C 0.32173 0.42908 0.73368 0.0
C1457 C 0.28662 0.41128 0.75281 0.0
C1458 C 0.29484 0.43034 0.7603 0.0
C1459 C 0.32117 0.45808 0.759 0.0
C1460 C 0.33914 0.46702 0.75005 0.0
C1461 C 0.31247 0.43927 0.751 0.0
C1462 C 0.34792 0.45709 0.73245 0.0
C1463 C 0.33932 0.43827 0.72437 0.0
H1464 H 0.31105 0.64142 0.8064 0.0
H1465 H 0.29028 0.63935 0.74195 0.0
H1466 H 0.30982 0.60714 0.73585 0.0
H1467 H 0.33175 0.57849 0.74954 0.0
H1468 H 0.35051 0.58065 0.81458 0.0
H1469 H 0.33338 0.61409 0.81959 0.0
C1470 C 0.31105 0.63416 0.7909 0.0
C1471 C 0.29928 0.64289 0.77465 0.0
C1472 C 0.3221 0.61562 0.7876 0.0
C1473 C 0.29909 0.6329 0.7548 0.0
C1474 C 0.31034 0.61453 0.75128 0.0
C1475 C 0.33233 0.58654 0.76466 0.0
C1476 C 0.34246 0.57722 0.78166 0.0
C1477 C 0.32179 0.6056 0.76763 0.0
C1478 C 0.34281 0.58756 0.80129 0.0
C1479 C 0.33297 0.60664 0.80419 0.0
H1480 H 0.85225 0.48509 0.49537 0.0
H1481 H 0.90269 0.4473 0.51827 0.0
H1482 H 0.87783 0.41935 0.52559 0.0
H1483 H 0.84232 0.40474 0.52356 0.0
H1484 H 0.79119 0.44198 0.50146 0.0
H1485 H 0.81568 0.47112 0.4959 0.0
C1486 C 0.85771 0.47076 0.50206 0.0
C1487 C 0.87931 0.46828 0.50625 0.0
C1488 C 0.84325 0.45466 0.50631 0.0
C1489 C 0.88616 0.44971 0.51512 0.0
C1490 C 0.87197 0.43365 0.51919 0.0
C1491 C 0.83647 0.41927 0.51764 0.0
C1492 C 0.81501 0.42112 0.51269 0.0
C1493 C 0.85056 0.43584 0.51458 0.0
C1494 C 0.80764 0.44017 0.50537 0.0
C1495 C 0.82167 0.45677 0.50209 0.0
H1496 H 0.74541 0.93341 0.79652 0.0
H1497 H 0.71237 0.8758 0.80818 0.0
H1498 H 0.67893 0.89369 0.80656 0.0
H1499 H 0.65897 0.9253 0.8011 0.0
H1500 H 0.69144 0.98315 0.78915 0.0
H1501 H 0.72517 0.96551 0.79148 0.0
C1502 C 0.73088 0.92478 0.79863 0.0
C1503 C 0.73144 0.90329 0.80255 0.0
C1504 C 0.71159 0.93517 0.79757 0.0
C1505 C 0.71246 0.89239 0.80547 0.0
C1506 C 0.69329 0.90258 0.8044 0.0
C1507 C 0.67339 0.93412 0.79901 0.0
C1508 C 0.67261 0.95553 0.79488 0.0
C1509 C 0.69267 0.92392 0.80039 0.0
C1510 C 0.69153 0.96666 0.79234 0.0
C1511 C 0.71084 0.95657 0.79364 0.0
H1512 H 0.65682 0.56733 0.99331 0.0
H1513 H 0.68025 0.51918 0.95188 0.0
H1514 H 0.71526 0.53497 0.95391 0.0
H1515 H 0.73878 0.5633 0.96587 0.0
H1516 H 0.71624 0.61135 1.0079 0.0
H1517 H 0.68135 0.59474 1.00734 0.0
C1518 C 0.66965 0.5603 0.98482 0.0
C1519 C 0.66594 0.54213 0.97243 0.0
C1520 C 0.68984 0.56947 0.98611 0.0
C1521 C 0.68273 0.53303 0.96168 0.0
C1522 C 0.70273 0.54212 0.96273 0.0
C1523 C 0.72627 0.57012 0.97499 0.0
C1524 C 0.73003 0.58865 0.98673 0.0
C1525 C 0.70639 0.56045 0.97467 0.0
C1526 C 0.71374 0.5971 0.99872 0.0
C1527 C 0.69377 0.58765 0.99833 0.0
H1528 H 0.22143 0.615 0.28151 0.0
H1529 H 0.22441 0.61172 0.21416 0.0
H1530 H 0.20085 0.58134 0.21333 0.0
H1531 H 0.18022 0.55502 0.2318 0.0
H1532 H 0.1778 0.55817 0.29923 0.0
H1533 H 0.20052 0.58906 0.29991 0.0
C1534 C 0.21705 0.60757 0.26664 0.0
C1535 C 0.22479 0.61564 0.24794 0.0
C1536 C 0.20366 0.58999 0.26628 0.0
C1537 C 0.21856 0.60602 0.2288 0.0
C1538 C 0.20519 0.58853 0.22831 0.0
C1539 C 0.18463 0.56246 0.24665 0.0
C1540 C 0.17732 0.55417 0.26543 0.0
C1541 C 0.19775 0.58029 0.24696 0.0
C1542 C 0.18317 0.56412 0.28452 0.0
C1543 C 0.19619 0.58183 0.28494 0.0
H1544 H 0.90546 0.55121 0.99926 0.0
H1545 H 0.88028 0.53505 0.05901 0.0
H1546 H 0.85174 0.55977 0.0543 0.0
H1547 H 0.8319 0.58341 0.0313 0.0
H1548 H 0.85667 0.59727 0.97071 0.0
H1549 H 0.8873 0.57612 0.97762 0.0
C1550 C 0.89374 0.55309 1.01128 0.0
C1551 C 0.89485 0.54107 0.0293 0.0
C1552 C 0.87719 0.56691 1.00825 0.0
C1553 C 0.87983 0.54412 0.04497 0.0
C1554 C 0.86342 0.55816 0.04222 0.0
C1555 C 0.84423 0.58207 0.01984 0.0
C1556 C 0.84199 0.59178 1.00048 0.0
C1557 C 0.86165 0.56931 0.02369 0.0
C1558 C 0.85797 0.5898 0.98566 0.0
C1559 C 0.87548 0.57768 0.98957 0.0
H1560 H 0.1479 0.95092 0.06279 0.0
H1561 H 0.14737 0.98519 1.0056 0.0
H1562 H 0.17776 0.96595 0.99335 0.0
H1563 H 0.20438 0.93915 0.99856 0.0
H1564 H 0.20446 0.90418 0.05529 0.0
H1565 H 0.17422 0.92367 0.06776 0.0
C1566 C 0.15426 0.95407 0.04755 0.0
C1567 C 0.14524 0.96964 0.03523 0.0
C1568 C 0.17168 0.94274 0.04043 0.0
C1569 C 0.15406 0.97363 0.01565 0.0
C1570 C 0.17141 0.96249 1.00852 0.0
C1571 C 0.19781 0.93574 0.01366 0.0
C1572 C 0.20679 0.92015 0.02593 0.0
C1573 C 0.18035 0.94701 0.02076 0.0
C1574 C 0.19794 0.91603 0.04545 0.0
C1575 C 0.18062 0.9272 0.05263 0.0
loop_
_geom_bond_atom_site_label_1
_geom_bond_atom_site_label_2
_geom_bond_distance
_geom_bond_site_symmetry_2
_ccdc_geom_bond_type
C0 C1 1.268 . S
C0 C5 1.479 . S
C0 C10 1.465 1_655 S
C1 C0 1.268 . S
C1 C3 1.350 . S
C1 H28 0.917 1_655 S
C2 C3 1.395 . S
C2 C4 1.320 . S
C3 C1 1.350 . S
C3 C2 1.395 . S
C3 H29 0.929 1_545 S
C4 C2 1.320 . S
C4 C5 1.405 . S
C4 H30 0.930 . S
C5 C0 1.479 . S
C5 C4 1.405 . S
C5 H31 0.931 . S
U6 O7 2.454 . S
U6 O8 2.458 . S
U6 C9 2.984 . S
U6 C10 2.847 . S
U6 C23 2.882 . S
U6 O24 2.441 . S
U6 O25 2.420 . S
U6 O26 2.455 . S
U6 O27 2.449 . S
O7 U6 2.454 . S
O7 C9 1.353 . S
O8 U6 2.458 . S
O8 C9 1.286 . S
C9 U6 2.984 . S
C9 O7 1.353 . S
C9 O8 1.286 . S
C9 C11 1.363 1_554 S
C10 C0 1.465 1_455 S
C10 U6 2.847 . S
C10 O24 1.249 . S
C10 O25 1.202 . S
C11 C9 1.363 1_556 S
C11 C13 1.408 1_556 S
C11 C16 1.342 . S
C12 C13 1.310 1_556 S
C12 C15 1.461 . S
C12 H32 0.932 . S
C13 C11 1.408 1_554 S
C13 C12 1.310 1_554 S
C13 H33 0.930 . S
C14 C15 1.474 . S
C14 C16 1.285 . S
C14 H34 0.929 . S
C15 C12 1.461 . S
C15 C14 1.474 . S
C16 C11 1.342 . S
C16 C14 1.285 . S
C16 H35 0.930 . S
C17 C20 1.424 . S
C17 C22 1.241 1_565 S
C17 C23 1.428 1_565 S
C18 C21 1.260 . S
C18 C22 1.466 1_565 S
C18 H36 0.927 1_554 S
C19 C20 1.384 . S
C19 C21 1.479 . S
C19 H37 0.929 . S
C20 C17 1.424 . S
C20 C19 1.384 . S
C20 H38 0.928 . S
C21 C18 1.260 . S
C21 C19 1.479 . S
C22 C17 1.241 1_545 S
C22 C18 1.466 1_545 S
C22 H39 0.946 . S
C23 U6 2.882 . S
C23 C17 1.428 1_545 S
C23 O26 1.301 . S
C23 O27 1.282 . S
O24 U6 2.441 . S
O24 C10 1.249 . S
O25 U6 2.420 . S
O25 C10 1.202 . S
O26 U6 2.455 . S
O26 C23 1.301 . S
O27 U6 2.449 . S
O27 C23 1.282 . S
H28 C1 0.917 1_455 S
H29 C3 0.929 1_565 S
H30 C4 0.930 . S
H31 C5 0.931 . S
H32 C12 0.932 . S
H33 C13 0.930 . S
H34 C14 0.929 . S
H35 C16 0.930 . S
H36 C18 0.927 1_556 S
H37 C19 0.929 . S
H38 C20 0.928 . S
H39 C22 0.946 . S
C40 C41 1.264 . S
C40 C45 1.479 . S
C40 C50 1.465 . S
C41 C40 1.264 . S
C41 C43 1.339 . S
C41 H68 0.931 . S
C42 C43 1.395 . S
C42 C44 1.320 . S
C43 C41 1.339 . S
C43 C42 1.395 . S
C43 H69 0.929 . S
C44 C42 1.320 . S
C44 C45 1.405 . S
C44 H70 0.930 . S
C45 C40 1.479 . S
C45 C44 1.405 . S
C45 H71 0.931 . S
U46 O47 2.454 . S
U46 O48 2.458 . S
U46 C49 2.984 . S
U46 C50 2.847 . S
U46 C63 2.882 . S
U46 O64 2.441 . S
U46 O65 2.420 . S
U46 O66 2.455 . S
U46 O67 2.449 . S
O47 U46 2.454 . S
O47 C49 1.353 . S
O48 U46 2.458 . S
O48 C49 1.286 . S
C49 U46 2.984 . S
C49 O47 1.353 . S
C49 O48 1.286 . S
C49 C51 1.363 . S
C50 C40 1.465 . S
C50 U46 2.847 . S
C50 O64 1.249 . S
C50 O65 1.202 . S
C51 C49 1.363 . S
C51 C53 1.408 . S
C51 C56 1.342 . S
C52 C53 1.310 . S
C52 C55 1.461 . S
C52 H72 0.932 . S
C53 C51 1.408 . S
C53 C52 1.310 . S
C53 H73 0.930 . S
C54 C55 1.474 . S
C54 C56 1.285 . S
C54 H74 0.929 . S
C55 C52 1.461 . S
C55 C54 1.474 . S
C56 C51 1.342 . S
C56 C54 1.285 . S
C56 H75 0.930 . S
C57 C60 1.424 . S
C57 C62 1.245 . S
C57 C63 1.428 . S
C58 C61 1.260 . S
C58 C62 1.477 . S
C58 H76 0.932 . S
C59 C60 1.384 . S
C59 C61 1.479 . S
C59 H77 0.929 . S
C60 C57 1.424 . S
C60 C59 1.384 . S
C60 H78 0.928 . S
C61 C58 1.260 . S
C61 C59 1.479 . S
C62 C57 1.245 . S
C62 C58 1.477 . S
C62 H79 0.932 . S
C63 U46 2.882 . S
C63 C57 1.428 . S
C63 O66 1.301 . S
C63 O67 1.282 . S
O64 U46 2.441 . S
O64 C50 1.249 . S
O65 U46 2.420 . S
O65 C50 1.202 . S
O66 U46 2.455 . S
O66 C63 1.301 . S
O67 U46 2.449 . S
O67 C63 1.282 . S
H68 C41 0.931 . S
H69 C43 0.929 . S
H70 C44 0.930 . S
H71 C45 0.931 . S
H72 C52 0.932 . S
H73 C53 0.930 . S
H74 C54 0.929 . S
H75 C56 0.930 . S
H76 C58 0.932 . S
H77 C59 0.929 . S
H78 C60 0.928 . S
H79 C62 0.932 . S
C80 C81 1.264 . S
C80 C85 1.479 1_554 S
C80 C90 1.465 . S
C81 C80 1.264 . S
C81 C83 1.335 1_554 S
C81 H108 0.931 . S
C82 C83 1.400 . S
C82 C84 1.320 . S
C83 C81 1.335 1_556 S
C83 C82 1.400 . S
C83 H109 0.927 1_556 S
C84 C82 1.320 . S
C84 C85 1.405 . S
C84 H110 0.930 . S
C85 C80 1.479 1_556 S
C85 C84 1.405 . S
C85 H111 0.931 . S
U86 O87 2.454 . S
U86 O88 2.458 . S
U86 C89 2.984 . S
U86 C90 2.847 . S
U86 C103 2.882 . S
U86 O104 2.441 . S
U86 O105 2.420 . S
U86 O106 2.455 . S
U86 O107 2.449 . S
O87 U86 2.454 . S
O87 C89 1.353 . S
O88 U86 2.458 . S
O88 C89 1.286 . S
C89 U86 2.984 . S
C89 O87 1.353 . S
C89 O88 1.286 . S
C89 C91 1.363 . S
C90 C80 1.465 . S
C90 U86 2.847 . S
C90 O104 1.249 . S
C90 O105 1.202 . S
C91 C89 1.363 . S
C91 C93 1.408 . S
C91 C96 1.342 . S
C92 C93 1.310 . S
C92 C95 1.461 . S
C92 H112 0.932 . S
C93 C91 1.408 . S
C93 C92 1.310 . S
C93 H113 0.930 . S
C94 C95 1.474 . S
C94 C96 1.285 . S
C94 H114 0.929 . S
C95 C92 1.461 . S
C95 C94 1.474 . S
C96 C91 1.342 . S
C96 C94 1.285 . S
C96 H115 0.930 . S
C97 C100 1.424 1_655 S
C97 C102 1.245 . S
C97 C103 1.428 . S
C98 C101 1.260 . S
C98 C102 1.477 1_455 S
C98 H116 0.932 . S
C99 C100 1.384 . S
C99 C101 1.479 . S
C99 H117 0.929 . S
C100 C97 1.424 1_455 S
C100 C99 1.384 . S
C100 H118 0.928 . S
C101 C98 1.260 . S
C101 C99 1.479 . S
C102 C97 1.245 . S
C102 C98 1.477 1_655 S
C102 H119 0.932 . S
C103 U86 2.882 . S
C103 C97 1.428 . S
C103 O106 1.301 . S
C103 O107 1.282 . S
O104 U86 2.441 . S
O104 C90 1.249 . S
O105 U86 2.420 . S
O105 C90 1.202 . S
O106 U86 2.455 . S
O106 C103 1.301 . S
O107 U86 2.449 . S
O107 C103 1.282 . S
H108 C81 0.931 . S
H109 C83 0.927 1_554 S
H110 C84 0.930 . S
H111 C85 0.931 . S
H112 C92 0.932 . S
H113 C93 0.930 . S
H114 C94 0.929 . S
H115 C96 0.930 . S
H116 C98 0.932 . S
H117 C99 0.929 . S
H118 C100 0.928 . S
H119 C102 0.932 . S
C120 C121 1.264 . S
C120 C125 1.479 . S
C120 C130 1.465 . S
C121 C120 1.264 . S
C121 C123 1.339 . S
C121 H148 0.931 . S
C122 C123 1.395 . S
C122 C124 1.320 . S
C123 C121 1.339 . S
C123 C122 1.395 . S
C123 H149 0.929 . S
C124 C122 1.320 . S
C124 C125 1.405 . S
C124 H150 0.930 . S
C125 C120 1.479 . S
C125 C124 1.405 . S
C125 H151 0.931 . S
U126 O127 2.454 . S
U126 O128 2.458 . S
U126 C129 2.984 . S
U126 C130 2.847 . S
U126 C143 2.882 . S
U126 O144 2.441 . S
U126 O145 2.420 . S
U126 O146 2.455 . S
U126 O147 2.449 . S
O127 U126 2.454 . S
O127 C129 1.353 . S
O128 U126 2.458 . S
O128 C129 1.286 . S
C129 U126 2.984 . S
C129 O127 1.353 . S
C129 O128 1.286 . S
C129 C131 1.363 . S
C130 C120 1.465 . S
C130 U126 2.847 . S
C130 O144 1.249 . S
C130 O145 1.202 . S
C131 C129 1.363 . S
C131 C133 1.408 . S
C131 C136 1.342 . S
C132 C133 1.310 . S
C132 C135 1.461 . S
C132 H152 0.932 . S
C133 C131 1.408 . S
C133 C132 1.310 . S
C133 H153 0.930 . S
C134 C135 1.474 . S
C134 C136 1.285 . S
C134 H154 0.929 . S
C135 C132 1.461 . S
C135 C134 1.474 . S
C136 C131 1.342 . S
C136 C134 1.285 . S
C136 H155 0.930 . S
C137 C140 1.424 . S
C137 C142 1.245 . S
C137 C143 1.428 . S
C138 C141 1.260 . S
C138 C142 1.477 . S
C138 H156 0.932 . S
C139 C140 1.384 . S
C139 C141 1.479 . S
C139 H157 0.929 . S
C140 C137 1.424 . S
C140 C139 1.384 . S
C140 H158 0.928 . S
C141 C138 1.260 . S
C141 C139 1.479 . S
C142 C137 1.245 . S
C142 C138 1.477 . S
C142 H159 0.932 . S
C143 U126 2.882 . S
C143 C137 1.428 . S
C143 O146 1.301 . S
C143 O147 1.282 . S
O144 U126 2.441 . S
O144 C130 1.249 . S
O145 U126 2.420 . S
O145 C130 1.202 . S
O146 U126 2.455 . S
O146 C143 1.301 . S
O147 U126 2.449 . S
O147 C143 1.282 . S
H148 C121 0.931 . S
H149 C123 0.929 . S
H150 C124 0.930 . S
H151 C125 0.931 . S
H152 C132 0.932 . S
H153 C133 0.930 . S
H154 C134 0.929 . S
H155 C136 0.930 . S
H156 C138 0.932 . S
H157 C139 0.929 . S
H158 C140 0.928 . S
H159 C142 0.932 . S
C160 C161 1.264 . S
C160 C165 1.479 1_455 S
C160 C170 1.465 . S
C161 C160 1.264 . S
C161 C163 1.349 . S
C161 H188 0.931 . S
C162 C163 1.382 1_655 S
C162 C164 1.320 . S
C163 C161 1.349 . S
C163 C162 1.382 1_455 S
C163 H189 0.932 . S
C164 C162 1.320 . S
C164 C165 1.405 . S
C164 H190 0.930 . S
C165 C160 1.479 1_655 S
C165 C164 1.405 . S
C165 H191 0.931 . S
U166 O167 2.454 . S
U166 O168 2.458 . S
U166 C169 2.984 . S
U166 C170 2.847 . S
U166 C183 2.882 . S
U166 O184 2.441 . S
U166 O185 2.420 . S
U166 O186 2.455 . S
U166 O187 2.449 . S
O167 U166 2.454 . S
O167 C169 1.353 . S
O168 U166 2.458 . S
O168 C169 1.286 . S
C169 U166 2.984 . S
C169 O167 1.353 . S
C169 O168 1.286 . S
C169 C171 1.363 . S
C170 C160 1.465 . S
C170 U166 2.847 . S
C170 O184 1.249 . S
C170 O185 1.202 . S
C171 C169 1.363 . S
C171 C173 1.408 . S
C171 C176 1.342 . S
C172 C173 1.310 . S
C172 C175 1.461 . S
C172 H192 0.932 . S
C173 C171 1.408 . S
C173 C172 1.310 . S
C173 H193 0.930 . S
C174 C175 1.474 . S
C174 C176 1.285 . S
C174 H194 0.929 . S
C175 C172 1.461 . S
C175 C174 1.474 . S
C176 C171 1.342 . S
C176 C174 1.285 . S
C176 H195 0.930 . S
C177 C180 1.424 1_565 S
C177 C182 1.245 . S
C177 C183 1.428 . S
C178 C181 1.260 . S
C178 C182 1.477 1_545 S
C178 H196 0.932 . S
C179 C180 1.384 . S
C179 C181 1.479 . S
C179 H197 0.929 . S
C180 C177 1.424 1_545 S
C180 C179 1.384 . S
C180 H198 0.928 . S
C181 C178 1.260 . S
C181 C179 1.479 . S
C182 C177 1.245 . S
C182 C178 1.477 1_565 S
C182 H199 0.932 . S
C183 U166 2.882 . S
C183 C177 1.428 . S
C183 O186 1.301 . S
C183 O187 1.282 . S
O184 U166 2.441 . S
O184 C170 1.249 . S
O185 U166 2.420 . S
O185 C170 1.202 . S
O186 U166 2.455 . S
O186 C183 1.301 . S
O187 U166 2.449 . S
O187 C183 1.282 . S
H188 C161 0.931 . S
H189 C163 0.932 . S
H190 C164 0.930 . S
H191 C165 0.931 . S
H192 C172 0.932 . S
H193 C173 0.930 . S
H194 C174 0.929 . S
H195 C176 0.930 . S
H196 C178 0.932 . S
H197 C179 0.929 . S
H198 C180 0.928 . S
H199 C182 0.932 . S
C200 C201 1.264 . S
C200 C205 1.479 . S
C200 C210 1.465 . S
C201 C200 1.264 . S
C201 C203 1.339 . S
C201 H228 0.931 . S
C202 C203 1.395 . S
C202 C204 1.320 . S
C203 C201 1.339 . S
C203 C202 1.395 . S
C203 H229 0.929 . S
C204 C202 1.320 . S
C204 C205 1.405 . S
C204 H230 0.930 . S
C205 C200 1.479 . S
C205 C204 1.405 . S
C205 H231 0.931 . S
U206 O207 2.454 . S
U206 O208 2.458 . S
U206 C209 2.984 . S
U206 C210 2.847 . S
U206 C223 2.882 . S
U206 O224 2.441 . S
U206 O225 2.420 . S
U206 O226 2.455 . S
U206 O227 2.449 . S
O207 U206 2.454 . S
O207 C209 1.353 . S
O208 U206 2.458 . S
O208 C209 1.286 . S
C209 U206 2.984 . S
C209 O207 1.353 . S
C209 O208 1.286 . S
C209 C211 1.363 . S
C210 C200 1.465 . S
C210 U206 2.847 . S
C210 O224 1.249 . S
C210 O225 1.202 . S
C211 C209 1.363 . S
C211 C213 1.408 . S
C211 C216 1.342 . S
C212 C213 1.310 . S
C212 C215 1.461 . S
C212 H232 0.932 . S
C213 C211 1.408 . S
C213 C212 1.310 . S
C213 H233 0.930 . S
C214 C215 1.474 . S
C214 C216 1.285 . S
C214 H234 0.929 . S
C215 C212 1.461 . S
C215 C214 1.474 . S
C216 C211 1.342 . S
C216 C214 1.285 . S
C216 H235 0.930 . S
C217 C220 1.424 . S
C217 C222 1.245 . S
C217 C223 1.428 . S
C218 C221 1.260 . S
C218 C222 1.477 . S
C218 H236 0.932 . S
C219 C220 1.384 . S
C219 C221 1.479 . S
C219 H237 0.929 . S
C220 C217 1.424 . S
C220 C219 1.384 . S
C220 H238 0.928 . S
C221 C218 1.260 . S
C221 C219 1.479 . S
C222 C217 1.245 . S
C222 C218 1.477 . S
C222 H239 0.932 . S
C223 U206 2.882 . S
C223 C217 1.428 . S
C223 O226 1.301 . S
C223 O227 1.282 . S
O224 U206 2.441 . S
O224 C210 1.249 . S
O225 U206 2.420 . S
O225 C210 1.202 . S
O226 U206 2.455 . S
O226 C223 1.301 . S
O227 U206 2.449 . S
O227 C223 1.282 . S
H228 C201 0.931 . S
H229 C203 0.929 . S
H230 C204 0.930 . S
H231 C205 0.931 . S
H232 C212 0.932 . S
H233 C213 0.930 . S
H234 C214 0.929 . S
H235 C216 0.930 . S
H236 C218 0.932 . S
H237 C219 0.929 . S
H238 C220 0.928 . S
H239 C222 0.932 . S
C240 C241 1.264 . S
C240 C245 1.479 . S
C240 C250 1.465 . S
C241 C240 1.264 . S
C241 C243 1.339 . S
C241 H268 0.938 . S
C242 C243 1.395 . S
C242 C244 1.320 . S
C243 C241 1.339 . S
C243 C242 1.395 . S
C243 H269 0.929 1_655 S
C244 C242 1.320 . S
C244 C245 1.405 . S
C244 H270 0.930 . S
C245 C240 1.479 . S
C245 C244 1.405 . S
C245 H271 0.931 . S
U246 O247 2.454 . S
U246 O248 2.458 . S
U246 C249 2.984 . S
U246 C250 2.847 . S
U246 C263 2.882 . S
U246 O264 2.441 . S
U246 O265 2.420 . S
U246 O266 2.455 . S
U246 O267 2.449 . S
O247 U246 2.454 . S
O247 C249 1.353 . S
O248 U246 2.458 . S
O248 C249 1.286 . S
C249 U246 2.984 . S
C249 O247 1.353 . S
C249 O248 1.286 . S
C249 C251 1.363 . S
C250 C240 1.465 . S
C250 U246 2.847 . S
C250 O264 1.249 . S
C250 O265 1.202 . S
C251 C249 1.363 . S
C251 C253 1.408 . S
C251 C256 1.342 . S
C252 C253 1.310 . S
C252 C255 1.461 . S
C252 H272 0.932 . S
C253 C251 1.408 . S
C253 C252 1.310 . S
C253 H273 0.930 . S
C254 C255 1.474 . S
C254 C256 1.285 . S
C254 H274 0.929 . S
C255 C252 1.461 . S
C255 C254 1.474 . S
C256 C251 1.342 . S
C256 C254 1.285 . S
C256 H275 0.930 . S
C257 C260 1.424 . S
C257 C262 1.245 1_455 S
C257 C263 1.428 1_455 S
C258 C261 1.260 . S
C258 C262 1.477 1_455 S
C258 H276 0.932 . S
C259 C260 1.384 . S
C259 C261 1.479 . S
C259 H277 0.929 . S
C260 C257 1.424 . S
C260 C259 1.384 . S
C260 H278 0.928 . S
C261 C258 1.260 . S
C261 C259 1.479 . S
C262 C257 1.245 1_655 S
C262 C258 1.477 1_655 S
C262 H279 0.932 . S
C263 U246 2.882 . S
C263 C257 1.428 1_655 S
C263 O266 1.301 . S
C263 O267 1.282 . S
O264 U246 2.441 . S
O264 C250 1.249 . S
O265 U246 2.420 . S
O265 C250 1.202 . S
O266 U246 2.455 . S
O266 C263 1.301 . S
O267 U246 2.449 . S
O267 C263 1.282 . S
H268 C241 0.938 . S
H269 C243 0.929 1_455 S
H270 C244 0.930 . S
H271 C245 0.931 . S
H272 C252 0.932 . S
H273 C253 0.930 . S
H274 C254 0.929 . S
H275 C256 0.930 . S
H276 C258 0.932 . S
H277 C259 0.929 . S
H278 C260 0.928 . S
H279 C262 0.932 . S
C280 C281 1.264 . S
C280 C285 1.479 . S
C280 C290 1.465 . S
C281 C280 1.264 . S
C281 C283 1.339 . S
C281 H308 0.931 . S
C282 C283 1.395 . S
C282 C284 1.320 . S
C283 C281 1.339 . S
C283 C282 1.395 . S
C283 H309 0.929 . S
C284 C282 1.320 . S
C284 C285 1.405 . S
C284 H310 0.930 . S
C285 C280 1.479 . S
C285 C284 1.405 . S
C285 H311 0.931 . S
U286 O287 2.454 . S
U286 O288 2.458 . S
U286 C289 2.984 . S
U286 C290 2.847 . S
U286 C303 2.882 . S
U286 O304 2.441 . S
U286 O305 2.420 . S
U286 O306 2.455 . S
U286 O307 2.449 . S
O287 U286 2.454 . S
O287 C289 1.353 . S
O288 U286 2.458 . S
O288 C289 1.286 . S
C289 U286 2.984 . S
C289 O287 1.353 . S
C289 O288 1.286 . S
C289 C291 1.363 . S
C290 C280 1.465 . S
C290 U286 2.847 . S
C290 O304 1.249 . S
C290 O305 1.202 . S
C291 C289 1.363 . S
C291 C293 1.408 . S
C291 C296 1.342 . S
C292 C293 1.310 . S
C292 C295 1.461 . S
C292 H312 0.932 . S
C293 C291 1.408 . S
C293 C292 1.310 . S
C293 H313 0.930 . S
C294 C295 1.474 . S
C294 C296 1.285 . S
C294 H314 0.929 . S
C295 C292 1.461 . S
C295 C294 1.474 . S
C296 C291 1.342 . S
C296 C294 1.285 . S
C296 H315 0.930 . S
C297 C300 1.424 . S
C297 C302 1.245 . S
C297 C303 1.428 . S
C298 C301 1.260 . S
C298 C302 1.477 . S
C298 H316 0.932 . S
C299 C300 1.384 . S
C299 C301 1.479 . S
C299 H317 0.929 . S
C300 C297 1.424 . S
C300 C299 1.384 . S
C300 H318 0.928 . S
C301 C298 1.260 . S
C301 C299 1.479 . S
C302 C297 1.245 . S
C302 C298 1.477 . S
C302 H319 0.932 . S
C303 U286 2.882 . S
C303 C297 1.428 . S
C303 O306 1.301 . S
C303 O307 1.282 . S
O304 U286 2.441 . S
O304 C290 1.249 . S
O305 U286 2.420 . S
O305 C290 1.202 . S
O306 U286 2.455 . S
O306 C303 1.301 . S
O307 U286 2.449 . S
O307 C303 1.282 . S
H308 C281 0.931 . S
H309 C283 0.929 . S
H310 C284 0.930 . S
H311 C285 0.931 . S
H312 C292 0.932 . S
H313 C293 0.930 . S
H314 C294 0.929 . S
H315 C296 0.930 . S
H316 C298 0.932 . S
H317 C299 0.929 . S
H318 C300 0.928 . S
H319 C302 0.932 . S
C320 C321 1.264 . S
C320 C325 1.479 . S
C320 C330 1.465 . S
C321 C320 1.264 . S
C321 C323 1.339 . S
C321 H348 0.931 . S
C322 C323 1.395 . S
C322 C324 1.320 . S
C323 C321 1.339 . S
C323 C322 1.395 . S
C323 H349 0.929 . S
C324 C322 1.320 . S
C324 C325 1.405 . S
C324 H350 0.930 . S
C325 C320 1.479 . S
C325 C324 1.405 . S
C325 H351 0.931 . S
U326 O327 2.454 . S
U326 O328 2.458 . S
U326 C329 2.984 . S
U326 C330 2.847 . S
U326 C343 2.882 . S
U326 O344 2.441 . S
U326 O345 2.420 . S
U326 O346 2.455 . S
U326 O347 2.449 . S
O327 U326 2.454 . S
O327 C329 1.353 . S
O328 U326 2.458 . S
O328 C329 1.286 . S
C329 U326 2.984 . S
C329 O327 1.353 . S
C329 O328 1.286 . S
C329 C331 1.363 . S
C330 C320 1.465 . S
C330 U326 2.847 . S
C330 O344 1.249 . S
C330 O345 1.202 . S
C331 C329 1.363 . S
C331 C333 1.408 . S
C331 C336 1.342 . S
C332 C333 1.310 . S
C332 C335 1.461 . S
C332 H352 0.932 . S
C333 C331 1.408 . S
C333 C332 1.310 . S
C333 H353 0.930 . S
C334 C335 1.474 . S
C334 C336 1.285 . S
C334 H354 0.929 . S
C335 C332 1.461 . S
C335 C334 1.474 . S
C336 C331 1.342 . S
C336 C334 1.285 . S
C336 H355 0.930 . S
C337 C340 1.424 . S
C337 C342 1.245 . S
C337 C343 1.428 . S
C338 C341 1.260 . S
C338 C342 1.477 . S
C338 H356 0.932 . S
C339 C340 1.384 . S
C339 C341 1.479 . S
C339 H357 0.929 . S
C340 C337 1.424 . S
C340 C339 1.384 . S
C340 H358 0.928 . S
C341 C338 1.260 . S
C341 C339 1.479 . S
C342 C337 1.245 . S
C342 C338 1.477 . S
C342 H359 0.932 . S
C343 U326 2.882 . S
C343 C337 1.428 . S
C343 O346 1.301 . S
C343 O347 1.282 . S
O344 U326 2.441 . S
O344 C330 1.249 . S
O345 U326 2.420 . S
O345 C330 1.202 . S
O346 U326 2.455 . S
O346 C343 1.301 . S
O347 U326 2.449 . S
O347 C343 1.282 . S
H348 C321 0.931 . S
H349 C323 0.929 . S
H350 C324 0.930 . S
H351 C325 0.931 . S
H352 C332 0.932 . S
H353 C333 0.930 . S
H354 C334 0.929 . S
H355 C336 0.930 . S
H356 C338 0.932 . S
H357 C339 0.929 . S
H358 C340 0.928 . S
H359 C342 0.932 . S
C360 C361 1.264 . S
C360 C365 1.479 . S
C360 C370 1.465 . S
C361 C360 1.264 . S
C361 C363 1.339 . S
C361 H388 0.931 . S
C362 C363 1.395 . S
C362 C364 1.320 . S
C363 C361 1.339 . S
C363 C362 1.395 . S
C363 H389 0.929 . S
C364 C362 1.320 . S
C364 C365 1.405 . S
C364 H390 0.930 . S
C365 C360 1.479 . S
C365 C364 1.405 . S
C365 H391 0.931 . S
U366 O367 2.454 . S
U366 O368 2.458 . S
U366 C369 2.984 . S
U366 C370 2.847 . S
U366 C383 2.882 . S
U366 O384 2.441 . S
U366 O385 2.420 . S
U366 O386 2.455 . S
U366 O387 2.449 . S
O367 U366 2.454 . S
O367 C369 1.353 . S
O368 U366 2.458 . S
O368 C369 1.286 . S
C369 U366 2.984 . S
C369 O367 1.353 . S
C369 O368 1.286 . S
C369 C371 1.351 1_565 S
C370 C360 1.465 . S
C370 U366 2.847 . S
C370 O384 1.249 . S
C370 O385 1.202 . S
C371 C369 1.351 1_545 S
C371 C373 1.405 1_545 S
C371 C376 1.356 . S
C372 C373 1.310 1_545 S
C372 C375 1.461 . S
C372 H392 0.932 . S
C373 C371 1.405 1_565 S
C373 C372 1.310 1_565 S
C373 H393 0.930 . S
C374 C375 1.474 . S
C374 C376 1.285 . S
C374 H394 0.929 . S
C375 C372 1.461 . S
C375 C374 1.474 . S
C376 C371 1.356 . S
C376 C374 1.285 . S
C376 H395 0.930 . S
C377 C380 1.424 . S
C377 C382 1.245 . S
C377 C383 1.428 . S
C378 C381 1.260 . S
C378 C382 1.477 . S
C378 H396 0.924 1_565 S
C379 C380 1.384 . S
C379 C381 1.479 . S
C379 H397 0.929 . S
C380 C377 1.424 . S
C380 C379 1.384 . S
C380 H398 0.928 . S
C381 C378 1.260 . S
C381 C379 1.479 . S
C382 C377 1.245 . S
C382 C378 1.477 . S
C382 H399 0.932 . S
C383 U366 2.882 . S
C383 C377 1.428 . S
C383 O386 1.301 . S
C383 O387 1.282 . S
O384 U366 2.441 . S
O384 C370 1.249 . S
O385 U366 2.420 . S
O385 C370 1.202 . S
O386 U366 2.455 . S
O386 C383 1.301 . S
O387 U366 2.449 . S
O387 C383 1.282 . S
H388 C361 0.931 . S
H389 C363 0.929 . S
H390 C364 0.930 . S
H391 C365 0.931 . S
H392 C372 0.932 . S
H393 C373 0.930 . S
H394 C374 0.929 . S
H395 C376 0.930 . S
H396 C378 0.924 1_545 S
H397 C379 0.929 . S
H398 C380 0.928 . S
H399 C382 0.932 . S
C400 C401 1.264 . S
C400 C405 1.479 . S
C400 C410 1.465 . S
C401 C400 1.264 . S
C401 C403 1.339 . S
C401 H428 0.931 . S
C402 C403 1.395 . S
C402 C404 1.320 . S
C403 C401 1.339 . S
C403 C402 1.395 . S
C403 H429 0.929 . S
C404 C402 1.320 . S
C404 C405 1.405 . S
C404 H430 0.930 . S
C405 C400 1.479 . S
C405 C404 1.405 . S
C405 H431 0.931 . S
U406 O407 2.454 . S
U406 O408 2.458 . S
U406 C409 2.984 . S
U406 C410 2.847 . S
U406 C423 2.882 . S
U406 O424 2.441 . S
U406 O425 2.420 . S
U406 O426 2.455 . S
U406 O427 2.449 . S
O407 U406 2.454 . S
O407 C409 1.353 . S
O408 U406 2.458 . S
O408 C409 1.286 . S
C409 U406 2.984 . S
C409 O407 1.353 . S
C409 O408 1.286 . S
C409 C411 1.363 . S
C410 C400 1.465 . S
C410 U406 2.847 . S
C410 O424 1.249 . S
C410 O425 1.202 . S
C411 C409 1.363 . S
C411 C413 1.408 . S
C411 C416 1.342 . S
C412 C413 1.310 . S
C412 C415 1.461 . S
C412 H432 0.932 . S
C413 C411 1.408 . S
C413 C412 1.310 . S
C413 H433 0.930 . S
C414 C415 1.474 . S
C414 C416 1.285 . S
C414 H434 0.929 . S
C415 C412 1.461 . S
C415 C414 1.474 . S
C416 C411 1.342 . S
C416 C414 1.285 . S
C416 H435 0.930 . S
C417 C420 1.424 . S
C417 C422 1.245 . S
C417 C423 1.428 . S
C418 C421 1.260 . S
C418 C422 1.477 . S
C418 H436 0.932 . S
C419 C420 1.384 . S
C419 C421 1.479 . S
C419 H437 0.929 . S
C420 C417 1.424 . S
C420 C419 1.384 . S
C420 H438 0.928 . S
C421 C418 1.260 . S
C421 C419 1.479 . S
C422 C417 1.245 . S
C422 C418 1.477 . S
C422 H439 0.932 . S
C423 U406 2.882 . S
C423 C417 1.428 . S
C423 O426 1.301 . S
C423 O427 1.282 . S
O424 U406 2.441 . S
O424 C410 1.249 . S
O425 U406 2.420 . S
O425 C410 1.202 . S
O426 U406 2.455 . S
O426 C423 1.301 . S
O427 U406 2.449 . S
O427 C423 1.282 . S
H428 C401 0.931 . S
H429 C403 0.929 . S
H430 C404 0.930 . S
H431 C405 0.931 . S
H432 C412 0.932 . S
H433 C413 0.930 . S
H434 C414 0.929 . S
H435 C416 0.930 . S
H436 C418 0.932 . S
H437 C419 0.929 . S
H438 C420 0.928 . S
H439 C422 0.932 . S
C440 C441 1.264 . S
C440 C445 1.479 . S
C440 C450 1.465 . S
C441 C440 1.264 . S
C441 C443 1.339 . S
C441 H468 0.931 . S
C442 C443 1.395 . S
C442 C444 1.320 . S
C443 C441 1.339 . S
C443 C442 1.395 . S
C443 H469 0.929 . S
C444 C442 1.320 . S
C444 C445 1.405 . S
C444 H470 0.930 . S
C445 C440 1.479 . S
C445 C444 1.405 . S
C445 H471 0.931 . S
U446 O447 2.454 . S
U446 O448 2.458 . S
U446 C449 2.984 . S
U446 C450 2.847 . S
U446 C463 2.882 . S
U446 O464 2.441 . S
U446 O465 2.420 . S
U446 O466 2.455 . S
U446 O467 2.449 . S
O447 U446 2.454 . S
O447 C449 1.353 . S
O448 U446 2.458 . S
O448 C449 1.286 . S
C449 U446 2.984 . S
C449 O447 1.353 . S
C449 O448 1.286 . S
C449 C451 1.363 . S
C450 C440 1.465 . S
C450 U446 2.847 . S
C450 O464 1.249 . S
C450 O465 1.202 . S
C451 C449 1.363 . S
C451 C453 1.408 . S
C451 C456 1.342 . S
C452 C453 1.310 . S
C452 C455 1.461 . S
C452 H472 0.932 . S
C453 C451 1.408 . S
C453 C452 1.310 . S
C453 H473 0.930 . S
C454 C455 1.474 . S
C454 C456 1.285 . S
C454 H474 0.929 . S
C455 C452 1.461 . S
C455 C454 1.474 . S
C456 C451 1.342 . S
C456 C454 1.285 . S
C456 H475 0.930 . S
C457 C460 1.424 . S
C457 C462 1.245 . S
C457 C463 1.428 . S
C458 C461 1.260 . S
C458 C462 1.477 . S
C458 H476 0.932 . S
C459 C460 1.384 . S
C459 C461 1.479 . S
C459 H477 0.929 . S
C460 C457 1.424 . S
C460 C459 1.384 . S
C460 H478 0.928 . S
C461 C458 1.260 . S
C461 C459 1.479 . S
C462 C457 1.245 . S
C462 C458 1.477 . S
C462 H479 0.932 . S
C463 U446 2.882 . S
C463 C457 1.428 . S
C463 O466 1.301 . S
C463 O467 1.282 . S
O464 U446 2.441 . S
O464 C450 1.249 . S
O465 U446 2.420 . S
O465 C450 1.202 . S
O466 U446 2.455 . S
O466 C463 1.301 . S
O467 U446 2.449 . S
O467 C463 1.282 . S
H468 C441 0.931 . S
H469 C443 0.929 . S
H470 C444 0.930 . S
H471 C445 0.931 . S
H472 C452 0.932 . S
H473 C453 0.930 . S
H474 C454 0.929 . S
H475 C456 0.930 . S
H476 C458 0.932 . S
H477 C459 0.929 . S
H478 C460 0.928 . S
H479 C462 0.932 . S
C480 C481 1.264 . S
C480 C485 1.479 . S
C480 C490 1.465 . S
C481 C480 1.264 . S
C481 C483 1.339 . S
C481 H508 0.931 . S
C482 C483 1.395 . S
C482 C484 1.320 . S
C483 C481 1.339 . S
C483 C482 1.395 . S
C483 H509 0.929 . S
C484 C482 1.320 . S
C484 C485 1.405 . S
C484 H510 0.930 . S
C485 C480 1.479 . S
C485 C484 1.405 . S
C485 H511 0.931 . S
U486 O487 2.454 . S
U486 O488 2.458 . S
U486 C489 2.984 . S
U486 C490 2.847 . S
U486 C503 2.882 . S
U486 O504 2.441 . S
U486 O505 2.420 . S
U486 O506 2.455 . S
U486 O507 2.449 . S
O487 U486 2.454 . S
O487 C489 1.353 . S
O488 U486 2.458 . S
O488 C489 1.286 . S
C489 U486 2.984 . S
C489 O487 1.353 . S
C489 O488 1.286 . S
C489 C491 1.363 . S
C490 C480 1.465 . S
C490 U486 2.847 . S
C490 O504 1.249 . S
C490 O505 1.202 . S
C491 C489 1.363 . S
C491 C493 1.408 . S
C491 C496 1.342 . S
C492 C493 1.310 . S
C492 C495 1.461 . S
C492 H512 0.932 . S
C493 C491 1.408 . S
C493 C492 1.310 . S
C493 H513 0.930 . S
C494 C495 1.474 . S
C494 C496 1.285 . S
C494 H514 0.929 . S
C495 C492 1.461 . S
C495 C494 1.474 . S
C496 C491 1.342 . S
C496 C494 1.285 . S
C496 H515 0.930 . S
C497 C500 1.424 . S
C497 C502 1.245 . S
C497 C503 1.428 . S
C498 C501 1.260 . S
C498 C502 1.477 . S
C498 H516 0.932 . S
C499 C500 1.384 . S
C499 C501 1.479 . S
C499 H517 0.929 . S
C500 C497 1.424 . S
C500 C499 1.384 . S
C500 H518 0.928 . S
C501 C498 1.260 . S
C501 C499 1.479 . S
C502 C497 1.245 . S
C502 C498 1.477 . S
C502 H519 0.932 . S
C503 U486 2.882 . S
C503 C497 1.428 . S
C503 O506 1.301 . S
C503 O507 1.282 . S
O504 U486 2.441 . S
O504 C490 1.249 . S
O505 U486 2.420 . S
O505 C490 1.202 . S
O506 U486 2.455 . S
O506 C503 1.301 . S
O507 U486 2.449 . S
O507 C503 1.282 . S
H508 C481 0.931 . S
H509 C483 0.929 . S
H510 C484 0.930 . S
H511 C485 0.931 . S
H512 C492 0.932 . S
H513 C493 0.930 . S
H514 C494 0.929 . S
H515 C496 0.930 . S
H516 C498 0.932 . S
H517 C499 0.929 . S
H518 C500 0.928 . S
H519 C502 0.932 . S
C520 C521 1.264 . S
C520 C525 1.479 . S
C520 C530 1.465 . S
C521 C520 1.264 . S
C521 C523 1.339 . S
C521 H548 0.931 . S
C522 C523 1.395 . S
C522 C524 1.320 . S
C523 C521 1.339 . S
C523 C522 1.395 . S
C523 H549 0.929 . S
C524 C522 1.320 . S
C524 C525 1.405 . S
C524 H550 0.930 . S
C525 C520 1.479 . S
C525 C524 1.405 . S
C525 H551 0.931 . S
U526 O527 2.454 . S
U526 O528 2.458 . S
U526 C529 2.984 . S
U526 C530 2.847 . S
U526 C543 2.882 . S
U526 O544 2.441 . S
U526 O545 2.420 . S
U526 O546 2.455 . S
U526 O547 2.449 . S
O527 U526 2.454 . S
O527 C529 1.353 . S
O528 U526 2.458 . S
O528 C529 1.286 . S
C529 U526 2.984 . S
C529 O527 1.353 . S
C529 O528 1.286 . S
C529 C531 1.365 . S
C530 C520 1.465 . S
C530 U526 2.847 . S
C530 O544 1.249 . S
C530 O545 1.202 . S
C531 C529 1.365 . S
C531 C533 1.408 . S
C531 C536 1.340 1_556 S
C532 C533 1.310 1_554 S
C532 C535 1.461 . S
C532 H552 0.932 . S
C533 C531 1.408 . S
C533 C532 1.310 1_556 S
C533 H553 0.930 . S
C534 C535 1.474 . S
C534 C536 1.285 . S
C534 H554 0.929 . S
C535 C532 1.461 . S
C535 C534 1.474 . S
C536 C531 1.340 1_554 S
C536 C534 1.285 . S
C536 H555 0.930 . S
C537 C540 1.424 . S
C537 C542 1.245 . S
C537 C543 1.428 . S
C538 C541 1.260 . S
C538 C542 1.477 . S
C538 H556 0.940 . S
C539 C540 1.384 . S
C539 C541 1.479 . S
C539 H557 0.929 . S
C540 C537 1.424 . S
C540 C539 1.384 . S
C540 H558 0.928 . S
C541 C538 1.260 . S
C541 C539 1.479 . S
C542 C537 1.245 . S
C542 C538 1.477 . S
C542 H559 0.932 . S
C543 U526 2.882 . S
C543 C537 1.428 . S
C543 O546 1.301 . S
C543 O547 1.282 . S
O544 U526 2.441 . S
O544 C530 1.249 . S
O545 U526 2.420 . S
O545 C530 1.202 . S
O546 U526 2.455 . S
O546 C543 1.301 . S
O547 U526 2.449 . S
O547 C543 1.282 . S
H548 C521 0.931 . S
H549 C523 0.929 . S
H550 C524 0.930 . S
H551 C525 0.931 . S
H552 C532 0.932 . S
H553 C533 0.930 . S
H554 C534 0.929 . S
H555 C536 0.930 . S
H556 C538 0.940 . S
H557 C539 0.929 . S
H558 C540 0.928 . S
H559 C542 0.932 . S
C560 C561 1.264 . S
C560 C565 1.479 . S
C560 C570 1.465 . S
C561 C560 1.264 . S
C561 C563 1.339 . S
C561 H588 0.931 . S
C562 C563 1.395 . S
C562 C564 1.320 . S
C563 C561 1.339 . S
C563 C562 1.395 . S
C563 H589 0.929 . S
C564 C562 1.320 . S
C564 C565 1.405 . S
C564 H590 0.930 . S
C565 C560 1.479 . S
C565 C564 1.405 . S
C565 H591 0.931 . S
U566 O567 2.454 . S
U566 O568 2.458 . S
U566 C569 2.984 . S
U566 C570 2.847 . S
U566 C583 2.882 . S
U566 O584 2.441 . S
U566 O585 2.420 . S
U566 O586 2.455 . S
U566 O587 2.449 . S
O567 U566 2.454 . S
O567 C569 1.353 . S
O568 U566 2.458 . S
O568 C569 1.286 . S
C569 U566 2.984 . S
C569 O567 1.353 . S
C569 O568 1.286 . S
C569 C571 1.363 . S
C570 C560 1.465 . S
C570 U566 2.847 . S
C570 O584 1.249 . S
C570 O585 1.202 . S
C571 C569 1.363 . S
C571 C573 1.408 . S
C571 C576 1.342 . S
C572 C573 1.310 . S
C572 C575 1.461 . S
C572 H592 0.932 . S
C573 C571 1.408 . S
C573 C572 1.310 . S
C573 H593 0.930 . S
C574 C575 1.474 . S
C574 C576 1.285 . S
C574 H594 0.929 . S
C575 C572 1.461 . S
C575 C574 1.474 . S
C576 C571 1.342 . S
C576 C574 1.285 . S
C576 H595 0.930 . S
C577 C580 1.424 . S
C577 C582 1.245 . S
C577 C583 1.428 . S
C578 C581 1.260 . S
C578 C582 1.477 . S
C578 H596 0.932 . S
C579 C580 1.384 . S
C579 C581 1.479 . S
C579 H597 0.929 . S
C580 C577 1.424 . S
C580 C579 1.384 . S
C580 H598 0.928 . S
C581 C578 1.260 . S
C581 C579 1.479 . S
C582 C577 1.245 . S
C582 C578 1.477 . S
C582 H599 0.932 . S
C583 U566 2.882 . S
C583 C577 1.428 . S
C583 O586 1.301 . S
C583 O587 1.282 . S
O584 U566 2.441 . S
O584 C570 1.249 . S
O585 U566 2.420 . S
O585 C570 1.202 . S
O586 U566 2.455 . S
O586 C583 1.301 . S
O587 U566 2.449 . S
O587 C583 1.282 . S
H588 C561 0.931 . S
H589 C563 0.929 . S
H590 C564 0.930 . S
H591 C565 0.931 . S
H592 C572 0.932 . S
H593 C573 0.930 . S
H594 C574 0.929 . S
H595 C576 0.930 . S
H596 C578 0.932 . S
H597 C579 0.929 . S
H598 C580 0.928 . S
H599 C582 0.932 . S
C600 C601 1.264 . S
C600 C605 1.479 1_556 S
C600 C610 1.465 . S
C601 C600 1.264 . S
C601 C603 1.339 1_556 S
C601 H628 0.931 . S
C602 C603 1.395 . S
C602 C604 1.320 . S
C603 C601 1.339 1_554 S
C603 C602 1.395 . S
C603 H629 0.929 . S
C604 C602 1.320 . S
C604 C605 1.405 . S
C604 H630 0.930 . S
C605 C600 1.479 1_554 S
C605 C604 1.405 . S
C605 H631 0.931 . S
U606 O607 2.454 . S
U606 O608 2.458 . S
U606 C609 2.984 . S
U606 C610 2.847 . S
U606 C623 2.882 . S
U606 O624 2.441 . S
U606 O625 2.420 . S
U606 O626 2.455 . S
U606 O627 2.449 . S
O607 U606 2.454 . S
O607 C609 1.353 . S
O608 U606 2.458 . S
O608 C609 1.286 . S
C609 U606 2.984 . S
C609 O607 1.353 . S
C609 O608 1.286 . S
C609 C611 1.363 . S
C610 C600 1.465 . S
C610 U606 2.847 . S
C610 O624 1.249 . S
C610 O625 1.202 . S
C611 C609 1.363 . S
C611 C613 1.408 . S
C611 C616 1.342 1_545 S
C612 C613 1.321 . S
C612 C615 1.447 1_545 S
C612 H632 0.935 . S
C613 C611 1.408 . S
C613 C612 1.321 . S
C613 H633 0.930 . S
C614 C615 1.474 . S
C614 C616 1.285 . S
C614 H634 0.929 . S
C615 C612 1.447 1_565 S
C615 C614 1.474 . S
C616 C611 1.342 1_565 S
C616 C614 1.285 . S
C616 H635 0.930 . S
C617 C620 1.424 . S
C617 C622 1.245 . S
C617 C623 1.428 . S
C618 C621 1.260 . S
C618 C622 1.477 . S
C618 H636 0.932 . S
C619 C620 1.384 . S
C619 C621 1.479 . S
C619 H637 0.929 . S
C620 C617 1.424 . S
C620 C619 1.384 . S
C620 H638 0.928 . S
C621 C618 1.260 . S
C621 C619 1.479 . S
C622 C617 1.245 . S
C622 C618 1.477 . S
C622 H639 0.932 . S
C623 U606 2.882 . S
C623 C617 1.428 . S
C623 O626 1.301 . S
C623 O627 1.282 . S
O624 U606 2.441 . S
O624 C610 1.249 . S
O625 U606 2.420 . S
O625 C610 1.202 . S
O626 U606 2.455 . S
O626 C623 1.301 . S
O627 U606 2.449 . S
O627 C623 1.282 . S
H628 C601 0.931 . S
H629 C603 0.929 . S
H630 C604 0.930 . S
H631 C605 0.931 . S
H632 C612 0.935 . S
H633 C613 0.930 . S
H634 C614 0.929 . S
H635 C616 0.930 . S
H636 C618 0.932 . S
H637 C619 0.929 . S
H638 C620 0.928 . S
H639 C622 0.932 . S
Zn640 O643 2.031 . S
Zn640 O645 2.049 1_554 S
Zn640 O650 2.067 1_554 S
Zn641 O642 1.962 . S
Zn641 O644 1.986 . S
Zn641 O646 1.996 . S
Zn641 O649 1.943 1_554 S
O642 Zn641 1.962 . S
O642 C647 1.254 . S
O643 Zn640 2.031 . S
O643 C647 1.269 . S
O644 Zn641 1.986 . S
O644 C651 1.262 . S
O645 Zn640 2.049 1_556 S
O645 C653 1.260 . S
O646 Zn641 1.996 . S
O646 C653 1.257 1_554 S
C647 O642 1.254 . S
C647 O643 1.269 . S
C648 O649 1.249 . S
C648 O650 1.270 . S
O649 Zn641 1.943 1_556 S
O649 C648 1.249 . S
O650 Zn640 2.067 1_556 S
O650 C648 1.270 . S
C651 O644 1.262 . S
C651 O652 1.232 . S
O652 C651 1.232 . S
C653 O645 1.260 . S
C653 O646 1.257 1_556 S
Zn654 O657 2.031 . S
Zn654 O659 2.049 . S
Zn654 O664 2.067 . S
Zn655 O656 1.962 . S
Zn655 O658 1.986 . S
Zn655 O660 1.996 . S
Zn655 O663 1.943 . S
O656 Zn655 1.962 . S
O656 C661 1.254 . S
O657 Zn654 2.031 . S
O657 C661 1.269 . S
O658 Zn655 1.986 . S
O658 C665 1.262 . S
O659 Zn654 2.049 . S
O659 C667 1.260 . S
O660 Zn655 1.996 . S
O660 C667 1.257 . S
C661 O656 1.254 . S
C661 O657 1.269 . S
C662 O663 1.249 . S
C662 O664 1.270 . S
O663 Zn655 1.943 . S
O663 C662 1.249 . S
O664 Zn654 2.067 . S
O664 C662 1.270 . S
C665 O658 1.262 . S
C665 O666 1.232 . S
O666 C665 1.232 . S
C667 O659 1.260 . S
C667 O660 1.257 . S
Zn668 O671 2.031 . S
Zn668 O673 2.049 . S
Zn668 O678 2.067 . S
Zn669 O670 1.962 . S
Zn669 O672 1.986 . S
Zn669 O674 1.996 1_554 S
Zn669 O677 1.943 . S
O670 Zn669 1.962 . S
O670 C675 1.254 . S
O671 Zn668 2.031 . S
O671 C675 1.269 1_556 S
O672 Zn669 1.986 . S
O672 C679 1.262 . S
O673 Zn668 2.049 . S
O673 C681 1.260 . S
O674 Zn669 1.996 1_556 S
O674 C681 1.257 . S
C675 O670 1.254 . S
C675 O671 1.269 1_554 S
C676 O677 1.249 1_556 S
C676 O678 1.270 . S
O677 Zn669 1.943 . S
O677 C676 1.249 1_554 S
O678 Zn668 2.067 . S
O678 C676 1.270 . S
C679 O672 1.262 . S
C679 O680 1.232 . S
O680 C679 1.232 . S
C681 O673 1.260 . S
C681 O674 1.257 . S
Zn682 O685 2.029 . S
Zn682 O687 2.051 1_545 S
Zn682 O692 2.070 1_545 S
Zn683 O684 1.962 . S
Zn683 O686 1.986 . S
Zn683 O688 1.996 . S
Zn683 O691 1.943 1_545 S
O684 Zn683 1.962 . S
O684 C689 1.254 . S
O685 Zn682 2.029 . S
O685 C689 1.269 . S
O686 Zn683 1.986 . S
O686 C693 1.262 . S
O687 Zn682 2.051 1_565 S
O687 C695 1.260 . S
O688 Zn683 1.996 . S
O688 C695 1.257 1_545 S
C689 O684 1.254 . S
C689 O685 1.269 . S
C690 O691 1.249 . S
C690 O692 1.270 . S
O691 Zn683 1.943 1_565 S
O691 C690 1.249 . S
O692 Zn682 2.070 1_565 S
O692 C690 1.270 . S
C693 O686 1.262 . S
C693 O694 1.232 . S
O694 C693 1.232 . S
C695 O687 1.260 . S
C695 O688 1.257 1_565 S
Zn696 O699 2.031 . S
Zn696 O701 2.049 . S
Zn696 O706 2.067 . S
Zn697 O698 1.962 . S
Zn697 O700 1.986 . S
Zn697 O702 1.996 . S
Zn697 O705 1.943 . S
O698 Zn697 1.962 . S
O698 C703 1.254 . S
O699 Zn696 2.031 . S
O699 C703 1.269 . S
O700 Zn697 1.986 . S
O700 C707 1.262 . S
O701 Zn696 2.049 . S
O701 C709 1.260 . S
O702 Zn697 1.996 . S
O702 C709 1.257 . S
C703 O698 1.254 . S
C703 O699 1.269 . S
C704 O705 1.249 . S
C704 O706 1.270 . S
O705 Zn697 1.943 . S
O705 C704 1.249 . S
O706 Zn696 2.067 . S
O706 C704 1.270 . S
C707 O700 1.262 . S
C707 O708 1.232 . S
O708 C707 1.232 . S
C709 O701 1.260 . S
C709 O702 1.257 . S
Zn710 O713 2.031 . S
Zn710 O715 2.049 . S
Zn710 O720 2.067 . S
Zn711 O712 1.962 . S
Zn711 O714 1.986 . S
Zn711 O716 1.996 . S
Zn711 O719 1.943 . S
O712 Zn711 1.962 . S
O712 C717 1.254 . S
O713 Zn710 2.031 . S
O713 C717 1.269 . S
O714 Zn711 1.986 . S
O714 C721 1.262 . S
O715 Zn710 2.049 . S
O715 C723 1.260 . S
O716 Zn711 1.996 . S
O716 C723 1.257 . S
C717 O712 1.254 . S
C717 O713 1.269 . S
C718 O719 1.249 . S
C718 O720 1.270 . S
O719 Zn711 1.943 . S
O719 C718 1.249 . S
O720 Zn710 2.067 . S
O720 C718 1.270 . S
C721 O714 1.262 . S
C721 O722 1.232 . S
O722 C721 1.232 . S
C723 O715 1.260 . S
C723 O716 1.257 . S
Zn724 O727 2.031 . S
Zn724 O729 2.049 . S
Zn724 O734 2.067 . S
Zn725 O726 1.962 . S
Zn725 O728 1.986 . S
Zn725 O730 1.996 . S
Zn725 O733 1.943 . S
O726 Zn725 1.962 . S
O726 C731 1.254 . S
O727 Zn724 2.031 . S
O727 C731 1.269 . S
O728 Zn725 1.986 . S
O728 C735 1.262 . S
O729 Zn724 2.049 . S
O729 C737 1.260 . S
O730 Zn725 1.996 . S
O730 C737 1.257 . S
C731 O726 1.254 . S
C731 O727 1.269 . S
C732 O733 1.249 . S
C732 O734 1.270 . S
O733 Zn725 1.943 . S
O733 C732 1.249 . S
O734 Zn724 2.067 . S
O734 C732 1.270 . S
C735 O728 1.262 . S
C735 O736 1.232 . S
O736 C735 1.232 . S
C737 O729 1.260 . S
C737 O730 1.257 . S
Zn738 O741 2.031 . S
Zn738 O743 2.049 . S
Zn738 O748 2.067 . S
Zn739 O740 1.962 . S
Zn739 O742 1.986 . S
Zn739 O744 1.996 1_545 S
Zn739 O747 1.943 . S
O740 Zn739 1.962 . S
O740 C745 1.254 . S
O741 Zn738 2.031 . S
O741 C745 1.269 1_565 S
O742 Zn739 1.986 . S
O742 C749 1.262 . S
O743 Zn738 2.049 . S
O743 C751 1.260 . S
O744 Zn739 1.996 1_565 S
O744 C751 1.257 . S
C745 O740 1.254 . S
C745 O741 1.269 1_545 S
C746 O747 1.249 1_565 S
C746 O748 1.270 . S
O747 Zn739 1.943 . S
O747 C746 1.249 1_545 S
O748 Zn738 2.067 . S
O748 C746 1.270 . S
C749 O742 1.262 . S
C749 O750 1.232 . S
O750 C749 1.232 . S
C751 O743 1.260 . S
C751 O744 1.257 . S
Zn752 O755 2.031 . S
Zn752 O757 2.049 1_455 S
Zn752 O762 2.067 1_455 S
Zn753 O754 1.962 . S
Zn753 O756 1.986 . S
Zn753 O758 1.996 . S
Zn753 O761 1.943 1_455 S
O754 Zn753 1.962 . S
O754 C759 1.254 . S
O755 Zn752 2.031 . S
O755 C759 1.269 . S
O756 Zn753 1.986 . S
O756 C763 1.262 . S
O757 Zn752 2.049 1_655 S
O757 C765 1.260 . S
O758 Zn753 1.996 . S
O758 C765 1.257 1_455 S
C759 O754 1.254 . S
C759 O755 1.269 . S
C760 O761 1.249 . S
C760 O762 1.270 . S
O761 Zn753 1.943 1_655 S
O761 C760 1.249 . S
O762 Zn752 2.067 1_655 S
O762 C760 1.270 . S
C763 O756 1.262 . S
C763 O764 1.232 . S
O764 C763 1.232 . S
C765 O757 1.260 . S
C765 O758 1.257 1_655 S
Zn766 O769 2.031 . S
Zn766 O771 2.049 . S
Zn766 O776 2.067 . S
Zn767 O768 1.962 . S
Zn767 O770 1.986 . S
Zn767 O772 1.996 . S
Zn767 O775 1.943 . S
O768 Zn767 1.962 . S
O768 C773 1.254 . S
O769 Zn766 2.031 . S
O769 C773 1.269 . S
O770 Zn767 1.986 . S
O770 C777 1.262 . S
O771 Zn766 2.049 . S
O771 C779 1.260 . S
O772 Zn767 1.996 . S
O772 C779 1.257 . S
C773 O768 1.254 . S
C773 O769 1.269 . S
C774 O775 1.249 . S
C774 O776 1.270 . S
O775 Zn767 1.943 . S
O775 C774 1.249 . S
O776 Zn766 2.067 . S
O776 C774 1.270 . S
C777 O770 1.262 . S
C777 O778 1.232 . S
O778 C777 1.232 . S
C779 O771 1.260 . S
C779 O772 1.257 . S
Zn780 O783 2.031 . S
Zn780 O785 2.049 . S
Zn780 O790 2.067 . S
Zn781 O782 1.962 . S
Zn781 O784 1.986 . S
Zn781 O786 1.996 1_455 S
Zn781 O789 1.943 . S
O782 Zn781 1.962 . S
O782 C787 1.254 . S
O783 Zn780 2.031 . S
O783 C787 1.269 1_655 S
O784 Zn781 1.986 . S
O784 C791 1.262 . S
O785 Zn780 2.049 . S
O785 C793 1.260 . S
O786 Zn781 1.996 1_655 S
O786 C793 1.257 . S
C787 O782 1.254 . S
C787 O783 1.269 1_455 S
C788 O789 1.249 1_655 S
C788 O790 1.270 . S
O789 Zn781 1.943 . S
O789 C788 1.249 1_455 S
O790 Zn780 2.067 . S
O790 C788 1.270 . S
C791 O784 1.262 . S
C791 O792 1.232 . S
O792 C791 1.232 . S
C793 O785 1.260 . S
C793 O786 1.257 . S
Zn794 O797 2.031 . S
Zn794 O799 2.049 . S
Zn794 O804 2.067 . S
Zn795 O796 1.962 . S
Zn795 O798 1.986 . S
Zn795 O800 1.996 . S
Zn795 O803 1.943 . S
O796 Zn795 1.962 . S
O796 C801 1.254 . S
O797 Zn794 2.031 . S
O797 C801 1.269 . S
O798 Zn795 1.986 . S
O798 C805 1.262 . S
O799 Zn794 2.049 . S
O799 C807 1.260 . S
O800 Zn795 1.996 . S
O800 C807 1.257 . S
C801 O796 1.254 . S
C801 O797 1.269 . S
C802 O803 1.249 . S
C802 O804 1.270 . S
O803 Zn795 1.943 . S
O803 C802 1.249 . S
O804 Zn794 2.067 . S
O804 C802 1.270 . S
C805 O798 1.262 . S
C805 O806 1.232 . S
O806 C805 1.232 . S
C807 O799 1.260 . S
C807 O800 1.257 . S
H808 C814 0.930 . S
H809 C817 0.930 . S
H810 C818 0.930 . S
H811 C819 0.930 . S
H812 C822 0.930 . S
H813 C823 0.930 . S
C814 H808 0.930 . S
C814 C815 1.355 . S
C814 C816 1.415 . S
C815 C814 1.355 . S
C815 C817 1.419 . S
C816 C814 1.415 . S
C816 C821 1.425 . S
C816 C823 1.409 . S
C817 H809 0.930 . S
C817 C815 1.419 . S
C817 C818 1.362 . S
C818 H810 0.930 . S
C818 C817 1.362 . S
C818 C821 1.409 . S
C819 H811 0.930 . S
C819 C820 1.355 . S
C819 C821 1.415 . S
C820 C819 1.355 . S
C820 C822 1.419 . S
C821 C816 1.425 . S
C821 C818 1.409 . S
C821 C819 1.415 . S
C822 H812 0.930 . S
C822 C820 1.419 . S
C822 C823 1.362 . S
C823 H813 0.930 . S
C823 C816 1.409 . S
C823 C822 1.362 . S
H824 C830 0.930 . S
H825 C833 0.930 . S
H826 C834 0.930 . S
H827 C835 0.930 . S
H828 C838 0.930 . S
H829 C839 0.930 . S
C830 H824 0.930 . S
C830 C831 1.355 . S
C830 C832 1.415 . S
C831 C830 1.355 . S
C831 C833 1.419 . S
C832 C830 1.415 . S
C832 C837 1.425 . S
C832 C839 1.409 . S
C833 H825 0.930 . S
C833 C831 1.419 . S
C833 C834 1.362 . S
C834 H826 0.930 . S
C834 C833 1.362 . S
C834 C837 1.409 . S
C835 H827 0.930 . S
C835 C836 1.355 . S
C835 C837 1.415 . S
C836 C835 1.355 . S
C836 C838 1.419 . S
C837 C832 1.425 . S
C837 C834 1.409 . S
C837 C835 1.415 . S
C838 H828 0.930 . S
C838 C836 1.419 . S
C838 C839 1.362 . S
C839 H829 0.930 . S
C839 C832 1.409 . S
C839 C838 1.362 . S
H840 C846 0.930 . S
H841 C849 0.930 . S
H842 C850 0.930 . S
H843 C851 0.930 . S
H844 C854 0.930 . S
H845 C855 0.930 . S
C846 H840 0.930 . S
C846 C847 1.355 . S
C846 C848 1.415 . S
C847 C846 1.355 . S
C847 C849 1.419 . S
C848 C846 1.415 . S
C848 C853 1.425 . S
C848 C855 1.409 . S
C849 H841 0.930 . S
C849 C847 1.419 . S
C849 C850 1.362 . S
C850 H842 0.930 . S
C850 C849 1.362 . S
C850 C853 1.409 . S
C851 H843 0.930 . S
C851 C852 1.355 . S
C851 C853 1.415 . S
C852 C851 1.355 . S
C852 C854 1.419 . S
C853 C848 1.425 . S
C853 C850 1.409 . S
C853 C851 1.415 . S
C854 H844 0.930 . S
C854 C852 1.419 . S
C854 C855 1.362 . S
C855 H845 0.930 . S
C855 C848 1.409 . S
C855 C854 1.362 . S
H856 C862 0.930 . S
H857 C865 0.951 . S
H858 C866 0.930 . S
H859 C867 0.919 1_545 S
H860 C870 0.930 . S
H861 C871 0.930 . S
C862 H856 0.930 . S
C862 C863 1.355 . S
C862 C864 1.415 . S
C863 C862 1.355 . S
C863 C865 1.419 . S
C864 C862 1.415 . S
C864 C869 1.425 . S
C864 C871 1.409 . S
C865 H857 0.951 . S
C865 C863 1.419 . S
C865 C866 1.362 . S
C866 H858 0.930 . S
C866 C865 1.362 . S
C866 C869 1.409 . S
C867 H859 0.919 1_565 S
C867 C868 1.355 . S
C867 C869 1.415 . S
C868 C867 1.355 . S
C868 C870 1.419 . S
C869 C864 1.425 . S
C869 C866 1.409 . S
C869 C867 1.415 . S
C870 H860 0.930 . S
C870 C868 1.419 . S
C870 C871 1.362 . S
C871 H861 0.930 . S
C871 C864 1.409 . S
C871 C870 1.362 . S
H872 C878 0.930 . S
H873 C881 0.930 . S
H874 C882 0.930 . S
H875 C883 0.930 . S
H876 C886 0.930 . S
H877 C887 0.930 . S
C878 H872 0.930 . S
C878 C879 1.355 . S
C878 C880 1.415 . S
C879 C878 1.355 . S
C879 C881 1.419 . S
C880 C878 1.415 . S
C880 C885 1.425 . S
C880 C887 1.409 . S
C881 H873 0.930 . S
C881 C879 1.419 . S
C881 C882 1.362 . S
C882 H874 0.930 . S
C882 C881 1.362 . S
C882 C885 1.409 . S
C883 H875 0.930 . S
C883 C884 1.355 . S
C883 C885 1.415 . S
C884 C883 1.355 . S
C884 C886 1.419 . S
C885 C880 1.425 . S
C885 C882 1.409 . S
C885 C883 1.415 . S
C886 H876 0.930 . S
C886 C884 1.419 . S
C886 C887 1.362 . S
C887 H877 0.930 . S
C887 C880 1.409 . S
C887 C886 1.362 . S
H888 C894 0.930 . S
H889 C897 0.930 . S
H890 C898 0.930 . S
H891 C899 0.930 . S
H892 C902 0.930 . S
H893 C903 0.930 . S
C894 H888 0.930 . S
C894 C895 1.355 . S
C894 C896 1.415 . S
C895 C894 1.355 . S
C895 C897 1.419 . S
C896 C894 1.415 . S
C896 C901 1.425 . S
C896 C903 1.409 . S
C897 H889 0.930 . S
C897 C895 1.419 . S
C897 C898 1.362 . S
C898 H890 0.930 . S
C898 C897 1.362 . S
C898 C901 1.409 . S
C899 H891 0.930 . S
C899 C900 1.355 . S
C899 C901 1.415 . S
C900 C899 1.355 . S
C900 C902 1.419 . S
C901 C896 1.425 . S
C901 C898 1.409 . S
C901 C899 1.415 . S
C902 H892 0.930 . S
C902 C900 1.419 . S
C902 C903 1.362 . S
C903 H893 0.930 . S
C903 C896 1.409 . S
C903 C902 1.362 . S
H904 C910 0.930 . S
H905 C913 0.930 . S
H906 C914 0.930 . S
H907 C915 0.930 . S
H908 C918 0.930 . S
H909 C919 0.930 . S
C910 H904 0.930 . S
C910 C911 1.355 . S
C910 C912 1.415 . S
C911 C910 1.355 . S
C911 C913 1.419 . S
C912 C910 1.415 . S
C912 C917 1.425 . S
C912 C919 1.409 . S
C913 H905 0.930 . S
C913 C911 1.419 . S
C913 C914 1.362 . S
C914 H906 0.930 . S
C914 C913 1.362 . S
C914 C917 1.409 . S
C915 H907 0.930 . S
C915 C916 1.355 . S
C915 C917 1.415 . S
C916 C915 1.355 . S
C916 C918 1.419 . S
C917 C912 1.425 . S
C917 C914 1.409 . S
C917 C915 1.415 . S
C918 H908 0.930 . S
C918 C916 1.419 . S
C918 C919 1.362 . S
C919 H909 0.930 . S
C919 C912 1.409 . S
C919 C918 1.362 . S
H920 C926 0.930 . S
H921 C929 0.930 . S
H922 C930 0.930 . S
H923 C931 0.930 . S
H924 C934 0.930 . S
H925 C935 0.930 . S
C926 H920 0.930 . S
C926 C927 1.355 . S
C926 C928 1.415 . S
C927 C926 1.355 . S
C927 C929 1.419 . S
C928 C926 1.415 . S
C928 C933 1.425 . S
C928 C935 1.409 1_565 S
C929 H921 0.930 . S
C929 C927 1.419 . S
C929 C930 1.362 . S
C930 H922 0.930 . S
C930 C929 1.362 . S
C930 C933 1.409 . S
C931 H923 0.930 . S
C931 C932 1.355 . S
C931 C933 1.415 . S
C932 C931 1.355 . S
C932 C934 1.419 1_565 S
C933 C928 1.425 . S
C933 C930 1.409 . S
C933 C931 1.415 . S
C934 H924 0.930 . S
C934 C932 1.419 1_545 S
C934 C935 1.362 . S
C935 H925 0.930 . S
C935 C928 1.409 1_545 S
C935 C934 1.362 . S
H936 C942 0.930 . S
H937 C945 0.930 . S
H938 C946 0.930 . S
H939 C947 0.930 . S
H940 C950 0.930 . S
H941 C951 0.930 . S
C942 H936 0.930 . S
C942 C943 1.355 . S
C942 C944 1.415 . S
C943 C942 1.355 . S
C943 C945 1.419 . S
C944 C942 1.415 . S
C944 C949 1.425 . S
C944 C951 1.409 . S
C945 H937 0.930 . S
C945 C943 1.419 . S
C945 C946 1.362 . S
C946 H938 0.930 . S
C946 C945 1.362 . S
C946 C949 1.409 . S
C947 H939 0.930 . S
C947 C948 1.355 . S
C947 C949 1.415 . S
C948 C947 1.355 . S
C948 C950 1.419 . S
C949 C944 1.425 . S
C949 C946 1.409 . S
C949 C947 1.415 . S
C950 H940 0.930 . S
C950 C948 1.419 . S
C950 C951 1.362 . S
C951 H941 0.930 . S
C951 C944 1.409 . S
C951 C950 1.362 . S
H952 C958 0.930 . S
H953 C961 0.930 . S
H954 C962 0.930 . S
H955 C963 0.930 . S
H956 C966 0.930 . S
H957 C967 0.930 . S
C958 H952 0.930 . S
C958 C959 1.355 . S
C958 C960 1.415 . S
C959 C958 1.355 . S
C959 C961 1.419 . S
C960 C958 1.415 . S
C960 C965 1.425 . S
C960 C967 1.409 . S
C961 H953 0.930 . S
C961 C959 1.419 . S
C961 C962 1.362 . S
C962 H954 0.930 . S
C962 C961 1.362 . S
C962 C965 1.409 . S
C963 H955 0.930 . S
C963 C964 1.355 . S
C963 C965 1.415 . S
C964 C963 1.355 . S
C964 C966 1.419 . S
C965 C960 1.425 . S
C965 C962 1.409 . S
C965 C963 1.415 . S
C966 H956 0.930 . S
C966 C964 1.419 . S
C966 C967 1.362 . S
C967 H957 0.930 . S
C967 C960 1.409 . S
C967 C966 1.362 . S
H968 C974 0.930 . S
H969 C977 0.930 . S
H970 C978 0.930 . S
H971 C979 0.930 . S
H972 C982 0.930 . S
H973 C983 0.930 . S
C974 H968 0.930 . S
C974 C975 1.355 . S
C974 C976 1.415 . S
C975 C974 1.355 . S
C975 C977 1.419 . S
C976 C974 1.415 . S
C976 C981 1.425 . S
C976 C983 1.409 . S
C977 H969 0.930 . S
C977 C975 1.419 . S
C977 C978 1.362 . S
C978 H970 0.930 . S
C978 C977 1.362 . S
C978 C981 1.409 . S
C979 H971 0.930 . S
C979 C980 1.355 . S
C979 C981 1.415 . S
C980 C979 1.355 . S
C980 C982 1.419 . S
C981 C976 1.425 . S
C981 C978 1.409 . S
C981 C979 1.415 . S
C982 H972 0.930 . S
C982 C980 1.419 . S
C982 C983 1.362 . S
C983 H973 0.930 . S
C983 C976 1.409 . S
C983 C982 1.362 . S
H984 C990 0.930 . S
H985 C993 0.930 . S
H986 C994 0.930 . S
H987 C995 0.930 . S
H988 C998 0.930 . S
H989 C999 0.930 . S
C990 H984 0.930 . S
C990 C991 1.355 . S
C990 C992 1.415 . S
C991 C990 1.355 . S
C991 C993 1.419 . S
C992 C990 1.415 . S
C992 C997 1.425 . S
C992 C999 1.409 . S
C993 H985 0.930 . S
C993 C991 1.419 . S
C993 C994 1.362 . S
C994 H986 0.930 . S
C994 C993 1.362 . S
C994 C997 1.409 . S
C995 H987 0.930 . S
C995 C996 1.355 . S
C995 C997 1.415 . S
C996 C995 1.355 . S
C996 C998 1.419 . S
C997 C992 1.425 . S
C997 C994 1.409 . S
C997 C995 1.415 . S
C998 H988 0.930 . S
C998 C996 1.419 . S
C998 C999 1.362 . S
C999 H989 0.930 . S
C999 C992 1.409 . S
C999 C998 1.362 . S
H1000 C1006 0.930 . S
H1001 C1009 0.930 . S
H1002 C1010 0.930 . S
H1003 C1011 0.930 . S
H1004 C1014 0.930 . S
H1005 C1015 0.930 . S
C1006 H1000 0.930 . S
C1006 C1007 1.355 . S
C1006 C1008 1.415 . S
C1007 C1006 1.355 . S
C1007 C1009 1.419 . S
C1008 C1006 1.415 . S
C1008 C1013 1.425 . S
C1008 C1015 1.409 . S
C1009 H1001 0.930 . S
C1009 C1007 1.419 . S
C1009 C1010 1.362 . S
C1010 H1002 0.930 . S
C1010 C1009 1.362 . S
C1010 C1013 1.409 . S
C1011 H1003 0.930 . S
C1011 C1012 1.355 . S
C1011 C1013 1.415 . S
C1012 C1011 1.355 . S
C1012 C1014 1.419 . S
C1013 C1008 1.425 . S
C1013 C1010 1.409 . S
C1013 C1011 1.415 . S
C1014 H1004 0.930 . S
C1014 C1012 1.419 . S
C1014 C1015 1.362 . S
C1015 H1005 0.930 . S
C1015 C1008 1.409 . S
C1015 C1014 1.362 . S
H1016 C1022 0.930 . S
H1017 C1025 0.930 . S
H1018 C1026 0.930 . S
H1019 C1027 0.930 . S
H1020 C1030 0.930 . S
H1021 C1031 0.979 . S
C1022 H1016 0.930 . S
C1022 C1023 1.355 . S
C1022 C1024 1.415 . S
C1023 C1022 1.355 . S
C1023 C1025 1.419 . S
C1024 C1022 1.415 . S
C1024 C1029 1.425 . S
C1024 C1031 1.360 1_455 S
C1025 H1017 0.930 . S
C1025 C1023 1.419 . S
C1025 C1026 1.362 . S
C1026 H1018 0.930 . S
C1026 C1025 1.362 . S
C1026 C1029 1.409 . S
C1027 H1019 0.930 . S
C1027 C1028 1.355 . S
C1027 C1029 1.415 . S
C1028 C1027 1.355 . S
C1028 C1030 1.419 1_455 S
C1029 C1024 1.425 . S
C1029 C1026 1.409 . S
C1029 C1027 1.415 . S
C1030 H1020 0.930 . S
C1030 C1028 1.419 1_655 S
C1030 C1031 1.366 . S
C1031 H1021 0.979 . S
C1031 C1024 1.360 1_655 S
C1031 C1030 1.366 . S
H1032 C1038 0.930 . S
H1033 C1041 0.930 . S
H1034 C1042 0.930 . S
H1035 C1043 0.930 . S
H1036 C1046 0.930 . S
H1037 C1047 0.930 . S
C1038 H1032 0.930 . S
C1038 C1039 1.355 . S
C1038 C1040 1.415 . S
C1039 C1038 1.355 . S
C1039 C1041 1.419 . S
C1040 C1038 1.415 . S
C1040 C1045 1.425 . S
C1040 C1047 1.409 . S
C1041 H1033 0.930 . S
C1041 C1039 1.419 . S
C1041 C1042 1.362 . S
C1042 H1034 0.930 . S
C1042 C1041 1.362 . S
C1042 C1045 1.409 . S
C1043 H1035 0.930 . S
C1043 C1044 1.355 . S
C1043 C1045 1.415 . S
C1044 C1043 1.355 . S
C1044 C1046 1.419 . S
C1045 C1040 1.425 . S
C1045 C1042 1.409 . S
C1045 C1043 1.415 . S
C1046 H1036 0.930 . S
C1046 C1044 1.419 . S
C1046 C1047 1.362 . S
C1047 H1037 0.930 . S
C1047 C1040 1.409 . S
C1047 C1046 1.362 . S
H1048 C1054 0.930 . S
H1049 C1057 0.930 1_455 S
H1050 C1058 0.930 . S
H1051 C1059 0.930 . S
H1052 C1062 0.930 . S
H1053 C1063 0.930 . S
C1054 H1048 0.930 . S
C1054 C1055 1.355 . S
C1054 C1056 1.415 . S
C1055 C1054 1.355 . S
C1055 C1057 1.419 . S
C1056 C1054 1.415 . S
C1056 C1061 1.425 . S
C1056 C1063 1.409 . S
C1057 H1049 0.930 1_655 S
C1057 C1055 1.419 . S
C1057 C1058 1.362 1_655 S
C1058 H1050 0.930 . S
C1058 C1057 1.362 1_455 S
C1058 C1061 1.409 1_455 S
C1059 H1051 0.930 . S
C1059 C1060 1.355 1_455 S
C1059 C1061 1.415 1_455 S
C1060 C1059 1.355 1_655 S
C1060 C1062 1.419 . S
C1061 C1056 1.425 . S
C1061 C1058 1.409 1_655 S
C1061 C1059 1.415 1_655 S
C1062 H1052 0.930 . S
C1062 C1060 1.419 . S
C1062 C1063 1.362 . S
C1063 H1053 0.930 . S
C1063 C1056 1.409 . S
C1063 C1062 1.362 . S
H1064 C1070 0.930 . S
H1065 C1073 0.930 . S
H1066 C1074 0.930 . S
H1067 C1075 0.930 . S
H1068 C1078 0.930 . S
H1069 C1079 0.930 . S
C1070 H1064 0.930 . S
C1070 C1071 1.355 . S
C1070 C1072 1.415 . S
C1071 C1070 1.355 . S
C1071 C1073 1.419 . S
C1072 C1070 1.415 . S
C1072 C1077 1.425 . S
C1072 C1079 1.409 . S
C1073 H1065 0.930 . S
C1073 C1071 1.419 . S
C1073 C1074 1.362 . S
C1074 H1066 0.930 . S
C1074 C1073 1.362 . S
C1074 C1077 1.409 . S
C1075 H1067 0.930 . S
C1075 C1076 1.355 . S
C1075 C1077 1.415 . S
C1076 C1075 1.355 . S
C1076 C1078 1.419 . S
C1077 C1072 1.425 . S
C1077 C1074 1.409 . S
C1077 C1075 1.415 . S
C1078 H1068 0.930 . S
C1078 C1076 1.419 . S
C1078 C1079 1.362 . S
C1079 H1069 0.930 . S
C1079 C1072 1.409 . S
C1079 C1078 1.362 . S
H1080 C1086 0.930 . S
H1081 C1089 0.930 . S
H1082 C1090 0.930 . S
H1083 C1091 0.930 . S
H1084 C1094 0.930 . S
H1085 C1095 0.930 . S
C1086 H1080 0.930 . S
C1086 C1087 1.355 . S
C1086 C1088 1.415 . S
C1087 C1086 1.355 . S
C1087 C1089 1.419 . S
C1088 C1086 1.415 . S
C1088 C1093 1.425 . S
C1088 C1095 1.409 . S
C1089 H1081 0.930 . S
C1089 C1087 1.419 . S
C1089 C1090 1.362 . S
C1090 H1082 0.930 . S
C1090 C1089 1.362 . S
C1090 C1093 1.409 . S
C1091 H1083 0.930 . S
C1091 C1092 1.355 . S
C1091 C1093 1.415 . S
C1092 C1091 1.355 . S
C1092 C1094 1.419 . S
C1093 C1088 1.425 . S
C1093 C1090 1.409 . S
C1093 C1091 1.415 . S
C1094 H1084 0.930 . S
C1094 C1092 1.419 . S
C1094 C1095 1.362 . S
C1095 H1085 0.930 . S
C1095 C1088 1.409 . S
C1095 C1094 1.362 . S
H1096 C1102 0.930 . S
H1097 C1105 0.930 . S
H1098 C1106 0.930 . S
H1099 C1107 0.930 . S
H1100 C1110 0.930 . S
H1101 C1111 0.956 . S
C1102 H1096 0.930 . S
C1102 C1103 1.355 . S
C1102 C1104 1.415 . S
C1103 C1102 1.355 . S
C1103 C1105 1.419 . S
C1104 C1102 1.415 . S
C1104 C1109 1.425 . S
C1104 C1111 1.376 1_556 S
C1105 H1097 0.930 . S
C1105 C1103 1.419 . S
C1105 C1106 1.362 . S
C1106 H1098 0.930 . S
C1106 C1105 1.362 . S
C1106 C1109 1.409 . S
C1107 H1099 0.930 . S
C1107 C1108 1.355 . S
C1107 C1109 1.415 . S
C1108 C1107 1.355 . S
C1108 C1110 1.419 1_556 S
C1109 C1104 1.425 . S
C1109 C1106 1.409 . S
C1109 C1107 1.415 . S
C1110 H1100 0.930 . S
C1110 C1108 1.419 1_554 S
C1110 C1111 1.372 . S
C1111 H1101 0.956 . S
C1111 C1104 1.376 1_554 S
C1111 C1110 1.372 . S
H1112 C1118 0.930 . S
H1113 C1121 0.930 . S
H1114 C1122 0.930 . S
H1115 C1123 0.930 . S
H1116 C1126 0.930 . S
H1117 C1127 0.930 . S
C1118 H1112 0.930 . S
C1118 C1119 1.355 . S
C1118 C1120 1.415 . S
C1119 C1118 1.355 . S
C1119 C1121 1.419 . S
C1120 C1118 1.415 . S
C1120 C1125 1.425 . S
C1120 C1127 1.409 . S
C1121 H1113 0.930 . S
C1121 C1119 1.419 . S
C1121 C1122 1.362 . S
C1122 H1114 0.930 . S
C1122 C1121 1.362 . S
C1122 C1125 1.409 . S
C1123 H1115 0.930 . S
C1123 C1124 1.355 . S
C1123 C1125 1.415 . S
C1124 C1123 1.355 . S
C1124 C1126 1.419 . S
C1125 C1120 1.425 . S
C1125 C1122 1.409 . S
C1125 C1123 1.415 . S
C1126 H1116 0.930 . S
C1126 C1124 1.419 . S
C1126 C1127 1.362 . S
C1127 H1117 0.930 . S
C1127 C1120 1.409 . S
C1127 C1126 1.362 . S
H1128 C1134 0.930 . S
H1129 C1137 0.930 . S
H1130 C1138 0.930 . S
H1131 C1139 0.930 . S
H1132 C1142 0.930 . S
H1133 C1143 0.930 . S
C1134 H1128 0.930 . S
C1134 C1135 1.355 . S
C1134 C1136 1.415 . S
C1135 C1134 1.355 . S
C1135 C1137 1.419 . S
C1136 C1134 1.415 . S
C1136 C1141 1.425 . S
C1136 C1143 1.409 . S
C1137 H1129 0.930 . S
C1137 C1135 1.419 . S
C1137 C1138 1.362 . S
C1138 H1130 0.930 . S
C1138 C1137 1.362 . S
C1138 C1141 1.409 . S
C1139 H1131 0.930 . S
C1139 C1140 1.355 . S
C1139 C1141 1.415 . S
C1140 C1139 1.355 . S
C1140 C1142 1.419 . S
C1141 C1136 1.425 . S
C1141 C1138 1.409 . S
C1141 C1139 1.415 . S
C1142 H1132 0.930 . S
C1142 C1140 1.419 . S
C1142 C1143 1.362 . S
C1143 H1133 0.930 . S
C1143 C1136 1.409 . S
C1143 C1142 1.362 . S
H1144 C1150 0.930 . S
H1145 C1153 0.930 . S
H1146 C1154 0.930 . S
H1147 C1155 0.930 . S
H1148 C1158 0.930 . S
H1149 C1159 0.930 . S
C1150 H1144 0.930 . S
C1150 C1151 1.355 . S
C1150 C1152 1.415 . S
C1151 C1150 1.355 . S
C1151 C1153 1.419 . S
C1152 C1150 1.415 . S
C1152 C1157 1.425 . S
C1152 C1159 1.409 . S
C1153 H1145 0.930 . S
C1153 C1151 1.419 . S
C1153 C1154 1.362 . S
C1154 H1146 0.930 . S
C1154 C1153 1.362 . S
C1154 C1157 1.409 . S
C1155 H1147 0.930 . S
C1155 C1156 1.355 . S
C1155 C1157 1.415 . S
C1156 C1155 1.355 . S
C1156 C1158 1.419 . S
C1157 C1152 1.425 . S
C1157 C1154 1.409 . S
C1157 C1155 1.415 . S
C1158 H1148 0.930 . S
C1158 C1156 1.419 . S
C1158 C1159 1.362 . S
C1159 H1149 0.930 . S
C1159 C1152 1.409 . S
C1159 C1158 1.362 . S
H1160 C1166 0.930 . S
H1161 C1169 0.930 . S
H1162 C1170 0.930 . S
H1163 C1171 0.930 . S
H1164 C1174 0.930 . S
H1165 C1175 0.930 . S
C1166 H1160 0.930 . S
C1166 C1167 1.355 . S
C1166 C1168 1.415 . S
C1167 C1166 1.355 . S
C1167 C1169 1.419 . S
C1168 C1166 1.415 . S
C1168 C1173 1.425 . S
C1168 C1175 1.409 . S
C1169 H1161 0.930 . S
C1169 C1167 1.419 . S
C1169 C1170 1.362 . S
C1170 H1162 0.930 . S
C1170 C1169 1.362 . S
C1170 C1173 1.409 . S
C1171 H1163 0.930 . S
C1171 C1172 1.355 . S
C1171 C1173 1.415 . S
C1172 C1171 1.355 . S
C1172 C1174 1.419 . S
C1173 C1168 1.425 . S
C1173 C1170 1.409 . S
C1173 C1171 1.415 . S
C1174 H1164 0.930 . S
C1174 C1172 1.419 . S
C1174 C1175 1.362 . S
C1175 H1165 0.930 . S
C1175 C1168 1.409 . S
C1175 C1174 1.362 . S
H1176 C1182 0.930 . S
H1177 C1185 0.930 . S
H1178 C1186 0.930 . S
H1179 C1187 0.930 . S
H1180 C1190 0.930 . S
H1181 C1191 0.930 . S
C1182 H1176 0.930 . S
C1182 C1183 1.355 . S
C1182 C1184 1.415 . S
C1183 C1182 1.355 . S
C1183 C1185 1.419 . S
C1184 C1182 1.415 . S
C1184 C1189 1.425 . S
C1184 C1191 1.409 . S
C1185 H1177 0.930 . S
C1185 C1183 1.419 . S
C1185 C1186 1.362 . S
C1186 H1178 0.930 . S
C1186 C1185 1.362 . S
C1186 C1189 1.409 . S
C1187 H1179 0.930 . S
C1187 C1188 1.355 . S
C1187 C1189 1.415 . S
C1188 C1187 1.355 . S
C1188 C1190 1.419 . S
C1189 C1184 1.425 . S
C1189 C1186 1.409 . S
C1189 C1187 1.415 . S
C1190 H1180 0.930 . S
C1190 C1188 1.419 . S
C1190 C1191 1.362 . S
C1191 H1181 0.930 . S
C1191 C1184 1.409 . S
C1191 C1190 1.362 . S
H1192 C1198 0.930 . S
H1193 C1201 0.930 . S
H1194 C1202 0.930 . S
H1195 C1203 0.930 . S
H1196 C1206 0.930 . S
H1197 C1207 0.930 . S
C1198 H1192 0.930 . S
C1198 C1199 1.355 . S
C1198 C1200 1.415 . S
C1199 C1198 1.355 . S
C1199 C1201 1.419 . S
C1200 C1198 1.415 . S
C1200 C1205 1.425 . S
C1200 C1207 1.409 . S
C1201 H1193 0.930 . S
C1201 C1199 1.419 . S
C1201 C1202 1.362 . S
C1202 H1194 0.930 . S
C1202 C1201 1.362 . S
C1202 C1205 1.409 . S
C1203 H1195 0.930 . S
C1203 C1204 1.355 . S
C1203 C1205 1.415 . S
C1204 C1203 1.355 . S
C1204 C1206 1.419 . S
C1205 C1200 1.425 . S
C1205 C1202 1.409 . S
C1205 C1203 1.415 . S
C1206 H1196 0.930 . S
C1206 C1204 1.419 . S
C1206 C1207 1.362 . S
C1207 H1197 0.930 . S
C1207 C1200 1.409 . S
C1207 C1206 1.362 . S
H1208 C1214 0.930 . S
H1209 C1217 0.930 . S
H1210 C1218 0.930 . S
H1211 C1219 0.930 . S
H1212 C1222 0.930 . S
H1213 C1223 0.930 . S
C1214 H1208 0.930 . S
C1214 C1215 1.355 . S
C1214 C1216 1.415 . S
C1215 C1214 1.355 . S
C1215 C1217 1.419 . S
C1216 C1214 1.415 . S
C1216 C1221 1.425 . S
C1216 C1223 1.409 1_545 S
C1217 H1209 0.930 . S
C1217 C1215 1.419 . S
C1217 C1218 1.362 . S
C1218 H1210 0.930 . S
C1218 C1217 1.362 . S
C1218 C1221 1.409 . S
C1219 H1211 0.930 . S
C1219 C1220 1.355 . S
C1219 C1221 1.415 . S
C1220 C1219 1.355 . S
C1220 C1222 1.419 1_545 S
C1221 C1216 1.425 . S
C1221 C1218 1.409 . S
C1221 C1219 1.415 . S
C1222 H1212 0.930 . S
C1222 C1220 1.419 1_565 S
C1222 C1223 1.362 . S
C1223 H1213 0.930 . S
C1223 C1216 1.409 1_565 S
C1223 C1222 1.362 . S
H1224 C1230 0.930 . S
H1225 C1233 0.930 . S
H1226 C1234 0.930 . S
H1227 C1235 0.930 . S
H1228 C1238 0.930 . S
H1229 C1239 0.930 . S
C1230 H1224 0.930 . S
C1230 C1231 1.355 . S
C1230 C1232 1.415 . S
C1231 C1230 1.355 . S
C1231 C1233 1.419 . S
C1232 C1230 1.415 . S
C1232 C1237 1.425 . S
C1232 C1239 1.409 . S
C1233 H1225 0.930 . S
C1233 C1231 1.419 . S
C1233 C1234 1.362 . S
C1234 H1226 0.930 . S
C1234 C1233 1.362 . S
C1234 C1237 1.409 . S
C1235 H1227 0.930 . S
C1235 C1236 1.355 . S
C1235 C1237 1.415 . S
C1236 C1235 1.355 . S
C1236 C1238 1.419 . S
C1237 C1232 1.425 . S
C1237 C1234 1.409 . S
C1237 C1235 1.415 . S
C1238 H1228 0.930 . S
C1238 C1236 1.419 . S
C1238 C1239 1.362 . S
C1239 H1229 0.930 . S
C1239 C1232 1.409 . S
C1239 C1238 1.362 . S
H1240 C1246 0.930 . S
H1241 C1249 0.930 . S
H1242 C1250 0.930 . S
H1243 C1251 0.930 . S
H1244 C1254 0.930 . S
H1245 C1255 0.930 . S
C1246 H1240 0.930 . S
C1246 C1247 1.355 . S
C1246 C1248 1.415 . S
C1247 C1246 1.355 . S
C1247 C1249 1.419 . S
C1248 C1246 1.415 . S
C1248 C1253 1.425 . S
C1248 C1255 1.409 . S
C1249 H1241 0.930 . S
C1249 C1247 1.419 . S
C1249 C1250 1.362 . S
C1250 H1242 0.930 . S
C1250 C1249 1.362 . S
C1250 C1253 1.409 . S
C1251 H1243 0.930 . S
C1251 C1252 1.355 . S
C1251 C1253 1.415 . S
C1252 C1251 1.355 . S
C1252 C1254 1.419 . S
C1253 C1248 1.425 . S
C1253 C1250 1.409 . S
C1253 C1251 1.415 . S
C1254 H1244 0.930 . S
C1254 C1252 1.419 . S
C1254 C1255 1.362 . S
C1255 H1245 0.930 . S
C1255 C1248 1.409 . S
C1255 C1254 1.362 . S
H1256 C1262 0.930 . S
H1257 C1265 0.930 . S
H1258 C1266 0.930 . S
H1259 C1267 0.930 . S
H1260 C1270 0.930 . S
H1261 C1271 0.930 . S
C1262 H1256 0.930 . S
C1262 C1263 1.355 . S
C1262 C1264 1.415 . S
C1263 C1262 1.355 . S
C1263 C1265 1.419 . S
C1264 C1262 1.415 . S
C1264 C1269 1.425 . S
C1264 C1271 1.409 . S
C1265 H1257 0.930 . S
C1265 C1263 1.419 . S
C1265 C1266 1.362 . S
C1266 H1258 0.930 . S
C1266 C1265 1.362 . S
C1266 C1269 1.409 . S
C1267 H1259 0.930 . S
C1267 C1268 1.355 . S
C1267 C1269 1.415 . S
C1268 C1267 1.355 . S
C1268 C1270 1.419 . S
C1269 C1264 1.425 . S
C1269 C1266 1.409 . S
C1269 C1267 1.415 . S
C1270 H1260 0.930 . S
C1270 C1268 1.419 . S
C1270 C1271 1.362 . S
C1271 H1261 0.930 . S
C1271 C1264 1.409 . S
C1271 C1270 1.362 . S
H1272 C1278 0.930 . S
H1273 C1281 0.930 . S
H1274 C1282 0.930 . S
H1275 C1283 0.930 . S
H1276 C1286 0.962 . S
H1277 C1287 0.930 . S
C1278 H1272 0.930 . S
C1278 C1279 1.355 . S
C1278 C1280 1.415 . S
C1279 C1278 1.355 . S
C1279 C1281 1.419 . S
C1280 C1278 1.415 . S
C1280 C1285 1.425 . S
C1280 C1287 1.409 1_545 S
C1281 H1273 0.930 . S
C1281 C1279 1.419 . S
C1281 C1282 1.362 . S
C1282 H1274 0.930 . S
C1282 C1281 1.362 . S
C1282 C1285 1.409 . S
C1283 H1275 0.930 . S
C1283 C1284 1.355 . S
C1283 C1285 1.415 . S
C1284 C1283 1.355 . S
C1284 C1286 1.389 1_545 S
C1285 C1280 1.425 . S
C1285 C1282 1.409 . S
C1285 C1283 1.415 . S
C1286 H1276 0.962 . S
C1286 C1284 1.389 1_565 S
C1286 C1287 1.364 . S
C1287 H1277 0.930 . S
C1287 C1280 1.409 1_565 S
C1287 C1286 1.364 . S
H1288 C1294 0.930 . S
H1289 C1297 0.930 . S
H1290 C1298 0.930 . S
H1291 C1299 0.930 . S
H1292 C1302 0.930 . S
H1293 C1303 0.930 . S
C1294 H1288 0.930 . S
C1294 C1295 1.355 . S
C1294 C1296 1.415 . S
C1295 C1294 1.355 . S
C1295 C1297 1.419 . S
C1296 C1294 1.415 . S
C1296 C1301 1.425 . S
C1296 C1303 1.409 . S
C1297 H1289 0.930 . S
C1297 C1295 1.419 . S
C1297 C1298 1.362 . S
C1298 H1290 0.930 . S
C1298 C1297 1.362 . S
C1298 C1301 1.409 . S
C1299 H1291 0.930 . S
C1299 C1300 1.355 . S
C1299 C1301 1.415 . S
C1300 C1299 1.355 . S
C1300 C1302 1.419 . S
C1301 C1296 1.425 . S
C1301 C1298 1.409 . S
C1301 C1299 1.415 . S
C1302 H1292 0.930 . S
C1302 C1300 1.419 . S
C1302 C1303 1.362 . S
C1303 H1293 0.930 . S
C1303 C1296 1.409 . S
C1303 C1302 1.362 . S
H1304 C1310 0.930 . S
H1305 C1313 0.930 . S
H1306 C1314 0.930 . S
H1307 C1315 0.930 . S
H1308 C1318 0.930 . S
H1309 C1319 0.930 . S
C1310 H1304 0.930 . S
C1310 C1311 1.355 . S
C1310 C1312 1.415 . S
C1311 C1310 1.355 . S
C1311 C1313 1.419 . S
C1312 C1310 1.415 . S
C1312 C1317 1.425 . S
C1312 C1319 1.409 . S
C1313 H1305 0.930 . S
C1313 C1311 1.419 . S
C1313 C1314 1.362 . S
C1314 H1306 0.930 . S
C1314 C1313 1.362 . S
C1314 C1317 1.409 . S
C1315 H1307 0.930 . S
C1315 C1316 1.355 . S
C1315 C1317 1.415 . S
C1316 C1315 1.355 . S
C1316 C1318 1.419 . S
C1317 C1312 1.425 . S
C1317 C1314 1.409 . S
C1317 C1315 1.415 . S
C1318 H1308 0.930 . S
C1318 C1316 1.419 . S
C1318 C1319 1.362 . S
C1319 H1309 0.930 . S
C1319 C1312 1.409 . S
C1319 C1318 1.362 . S
H1320 C1326 0.930 . S
H1321 C1329 0.930 . S
H1322 C1330 0.930 . S
H1323 C1331 0.930 . S
H1324 C1334 0.930 . S
H1325 C1335 0.930 . S
C1326 H1320 0.930 . S
C1326 C1327 1.355 . S
C1326 C1328 1.415 . S
C1327 C1326 1.355 . S
C1327 C1329 1.419 . S
C1328 C1326 1.415 . S
C1328 C1333 1.425 . S
C1328 C1335 1.409 . S
C1329 H1321 0.930 . S
C1329 C1327 1.419 . S
C1329 C1330 1.362 . S
C1330 H1322 0.930 . S
C1330 C1329 1.362 . S
C1330 C1333 1.409 . S
C1331 H1323 0.930 . S
C1331 C1332 1.355 . S
C1331 C1333 1.415 . S
C1332 C1331 1.355 . S
C1332 C1334 1.419 . S
C1333 C1328 1.425 . S
C1333 C1330 1.409 . S
C1333 C1331 1.415 . S
C1334 H1324 0.930 . S
C1334 C1332 1.419 . S
C1334 C1335 1.362 . S
C1335 H1325 0.930 . S
C1335 C1328 1.409 . S
C1335 C1334 1.362 . S
H1336 C1342 0.930 . S
H1337 C1345 0.930 . S
H1338 C1346 0.930 . S
H1339 C1347 0.930 . S
H1340 C1350 0.930 . S
H1341 C1351 0.930 . S
C1342 H1336 0.930 . S
C1342 C1343 1.355 . S
C1342 C1344 1.415 . S
C1343 C1342 1.355 . S
C1343 C1345 1.419 . S
C1344 C1342 1.415 . S
C1344 C1349 1.425 . S
C1344 C1351 1.409 1_655 S
C1345 H1337 0.930 . S
C1345 C1343 1.419 . S
C1345 C1346 1.362 . S
C1346 H1338 0.930 . S
C1346 C1345 1.362 . S
C1346 C1349 1.409 . S
C1347 H1339 0.930 . S
C1347 C1348 1.355 . S
C1347 C1349 1.415 . S
C1348 C1347 1.355 . S
C1348 C1350 1.419 1_655 S
C1349 C1344 1.425 . S
C1349 C1346 1.409 . S
C1349 C1347 1.415 . S
C1350 H1340 0.930 . S
C1350 C1348 1.419 1_455 S
C1350 C1351 1.362 . S
C1351 H1341 0.930 . S
C1351 C1344 1.409 1_455 S
C1351 C1350 1.362 . S
H1352 C1358 0.930 . S
H1353 C1361 0.930 . S
H1354 C1362 0.930 . S
H1355 C1363 0.930 . S
H1356 C1366 0.930 . S
H1357 C1367 0.930 . S
C1358 H1352 0.930 . S
C1358 C1359 1.355 . S
C1358 C1360 1.415 . S
C1359 C1358 1.355 . S
C1359 C1361 1.419 . S
C1360 C1358 1.415 . S
C1360 C1365 1.425 . S
C1360 C1367 1.409 . S
C1361 H1353 0.930 . S
C1361 C1359 1.419 . S
C1361 C1362 1.362 . S
C1362 H1354 0.930 . S
C1362 C1361 1.362 . S
C1362 C1365 1.409 . S
C1363 H1355 0.930 . S
C1363 C1364 1.355 . S
C1363 C1365 1.415 . S
C1364 C1363 1.355 . S
C1364 C1366 1.419 . S
C1365 C1360 1.425 . S
C1365 C1362 1.409 . S
C1365 C1363 1.415 . S
C1366 H1356 0.930 . S
C1366 C1364 1.419 . S
C1366 C1367 1.362 . S
C1367 H1357 0.930 . S
C1367 C1360 1.409 . S
C1367 C1366 1.362 . S
H1368 C1374 0.930 . S
H1369 C1377 0.930 . S
H1370 C1378 0.930 . S
H1371 C1379 0.930 . S
H1372 C1382 0.930 1_655 S
H1373 C1383 0.930 1_655 S
C1374 H1368 0.930 . S
C1374 C1375 1.355 . S
C1374 C1376 1.415 . S
C1375 C1374 1.355 . S
C1375 C1377 1.419 . S
C1376 C1374 1.415 . S
C1376 C1381 1.425 . S
C1376 C1383 1.409 . S
C1377 H1369 0.930 . S
C1377 C1375 1.419 . S
C1377 C1378 1.362 . S
C1378 H1370 0.930 . S
C1378 C1377 1.362 . S
C1378 C1381 1.409 . S
C1379 H1371 0.930 . S
C1379 C1380 1.355 . S
C1379 C1381 1.415 . S
C1380 C1379 1.355 . S
C1380 C1382 1.419 . S
C1381 C1376 1.425 . S
C1381 C1378 1.409 . S
C1381 C1379 1.415 . S
C1382 H1372 0.930 1_455 S
C1382 C1380 1.419 . S
C1382 C1383 1.362 . S
C1383 H1373 0.930 1_455 S
C1383 C1376 1.409 . S
C1383 C1382 1.362 . S
H1384 C1390 0.930 . S
H1385 C1393 0.930 . S
H1386 C1394 0.930 . S
H1387 C1395 0.930 . S
H1388 C1398 0.930 . S
H1389 C1399 0.930 . S
C1390 H1384 0.930 . S
C1390 C1391 1.355 . S
C1390 C1392 1.415 . S
C1391 C1390 1.355 . S
C1391 C1393 1.419 . S
C1392 C1390 1.415 . S
C1392 C1397 1.425 . S
C1392 C1399 1.409 . S
C1393 H1385 0.930 . S
C1393 C1391 1.419 . S
C1393 C1394 1.362 . S
C1394 H1386 0.930 . S
C1394 C1393 1.362 . S
C1394 C1397 1.409 . S
C1395 H1387 0.930 . S
C1395 C1396 1.355 . S
C1395 C1397 1.415 . S
C1396 C1395 1.355 . S
C1396 C1398 1.419 . S
C1397 C1392 1.425 . S
C1397 C1394 1.409 . S
C1397 C1395 1.415 . S
C1398 H1388 0.930 . S
C1398 C1396 1.419 . S
C1398 C1399 1.362 . S
C1399 H1389 0.930 . S
C1399 C1392 1.409 . S
C1399 C1398 1.362 . S
H1400 C1406 0.930 . S
H1401 C1409 0.930 . S
H1402 C1410 0.930 . S
H1403 C1411 0.930 . S
H1404 C1414 0.930 . S
H1405 C1415 0.930 . S
C1406 H1400 0.930 . S
C1406 C1407 1.355 . S
C1406 C1408 1.415 . S
C1407 C1406 1.355 . S
C1407 C1409 1.419 . S
C1408 C1406 1.415 . S
C1408 C1413 1.425 . S
C1408 C1415 1.409 . S
C1409 H1401 0.930 . S
C1409 C1407 1.419 . S
C1409 C1410 1.362 . S
C1410 H1402 0.930 . S
C1410 C1409 1.362 . S
C1410 C1413 1.409 . S
C1411 H1403 0.930 . S
C1411 C1412 1.355 . S
C1411 C1413 1.415 . S
C1412 C1411 1.355 . S
C1412 C1414 1.419 . S
C1413 C1408 1.425 . S
C1413 C1410 1.409 . S
C1413 C1411 1.415 . S
C1414 H1404 0.930 . S
C1414 C1412 1.419 . S
C1414 C1415 1.362 . S
C1415 H1405 0.930 . S
C1415 C1408 1.409 . S
C1415 C1414 1.362 . S
H1416 C1422 0.930 . S
H1417 C1425 0.930 . S
H1418 C1426 0.930 . S
H1419 C1427 0.930 . S
H1420 C1430 0.930 . S
H1421 C1431 0.930 . S
C1422 H1416 0.930 . S
C1422 C1423 1.355 . S
C1422 C1424 1.415 . S
C1423 C1422 1.355 . S
C1423 C1425 1.419 . S
C1424 C1422 1.415 . S
C1424 C1429 1.425 . S
C1424 C1431 1.409 . S
C1425 H1417 0.930 . S
C1425 C1423 1.419 . S
C1425 C1426 1.362 . S
C1426 H1418 0.930 . S
C1426 C1425 1.362 . S
C1426 C1429 1.409 . S
C1427 H1419 0.930 . S
C1427 C1428 1.355 . S
C1427 C1429 1.415 . S
C1428 C1427 1.355 . S
C1428 C1430 1.419 . S
C1429 C1424 1.425 . S
C1429 C1426 1.409 . S
C1429 C1427 1.415 . S
C1430 H1420 0.930 . S
C1430 C1428 1.419 . S
C1430 C1431 1.362 . S
C1431 H1421 0.930 . S
C1431 C1424 1.409 . S
C1431 C1430 1.362 . S
H1432 C1438 0.930 . S
H1433 C1441 0.930 . S
H1434 C1442 0.930 . S
H1435 C1443 0.930 . S
H1436 C1446 0.930 . S
H1437 C1447 0.930 . S
C1438 H1432 0.930 . S
C1438 C1439 1.355 . S
C1438 C1440 1.415 . S
C1439 C1438 1.355 . S
C1439 C1441 1.419 . S
C1440 C1438 1.415 . S
C1440 C1445 1.425 . S
C1440 C1447 1.409 . S
C1441 H1433 0.930 . S
C1441 C1439 1.419 . S
C1441 C1442 1.362 . S
C1442 H1434 0.930 . S
C1442 C1441 1.362 . S
C1442 C1445 1.409 . S
C1443 H1435 0.930 . S
C1443 C1444 1.355 . S
C1443 C1445 1.415 . S
C1444 C1443 1.355 . S
C1444 C1446 1.419 . S
C1445 C1440 1.425 . S
C1445 C1442 1.409 . S
C1445 C1443 1.415 . S
C1446 H1436 0.930 . S
C1446 C1444 1.419 . S
C1446 C1447 1.362 . S
C1447 H1437 0.930 . S
C1447 C1440 1.409 . S
C1447 C1446 1.362 . S
H1448 C1454 0.930 . S
H1449 C1457 0.930 . S
H1450 C1458 0.930 . S
H1451 C1459 0.930 . S
H1452 C1462 0.930 . S
H1453 C1463 0.930 . S
C1454 H1448 0.930 . S
C1454 C1455 1.355 . S
C1454 C1456 1.415 . S
C1455 C1454 1.355 . S
C1455 C1457 1.419 . S
C1456 C1454 1.415 . S
C1456 C1461 1.425 . S
C1456 C1463 1.409 . S
C1457 H1449 0.930 . S
C1457 C1455 1.419 . S
C1457 C1458 1.362 . S
C1458 H1450 0.930 . S
C1458 C1457 1.362 . S
C1458 C1461 1.409 . S
C1459 H1451 0.930 . S
C1459 C1460 1.355 . S
C1459 C1461 1.415 . S
C1460 C1459 1.355 . S
C1460 C1462 1.419 . S
C1461 C1456 1.425 . S
C1461 C1458 1.409 . S
C1461 C1459 1.415 . S
C1462 H1452 0.930 . S
C1462 C1460 1.419 . S
C1462 C1463 1.362 . S
C1463 H1453 0.930 . S
C1463 C1456 1.409 . S
C1463 C1462 1.362 . S
H1464 C1470 0.930 . S
H1465 C1473 0.930 . S
H1466 C1474 0.930 . S
H1467 C1475 0.930 . S
H1468 C1478 0.930 . S
H1469 C1479 0.930 . S
C1470 H1464 0.930 . S
C1470 C1471 1.355 . S
C1470 C1472 1.415 . S
C1471 C1470 1.355 . S
C1471 C1473 1.419 . S
C1472 C1470 1.415 . S
C1472 C1477 1.425 . S
C1472 C1479 1.409 . S
C1473 H1465 0.930 . S
C1473 C1471 1.419 . S
C1473 C1474 1.362 . S
C1474 H1466 0.930 . S
C1474 C1473 1.362 . S
C1474 C1477 1.409 . S
C1475 H1467 0.930 . S
C1475 C1476 1.355 . S
C1475 C1477 1.415 . S
C1476 C1475 1.355 . S
C1476 C1478 1.419 . S
C1477 C1472 1.425 . S
C1477 C1474 1.409 . S
C1477 C1475 1.415 . S
C1478 H1468 0.930 . S
C1478 C1476 1.419 . S
C1478 C1479 1.362 . S
C1479 H1469 0.930 . S
C1479 C1472 1.409 . S
C1479 C1478 1.362 . S
H1480 C1486 0.930 . S
H1481 C1489 0.930 . S
H1482 C1490 0.930 . S
H1483 C1491 0.930 . S
H1484 C1494 0.930 . S
H1485 C1495 0.930 . S
C1486 H1480 0.930 . S
C1486 C1487 1.355 . S
C1486 C1488 1.415 . S
C1487 C1486 1.355 . S
C1487 C1489 1.419 . S
C1488 C1486 1.415 . S
C1488 C1493 1.425 . S
C1488 C1495 1.409 . S
C1489 H1481 0.930 . S
C1489 C1487 1.419 . S
C1489 C1490 1.362 . S
C1490 H1482 0.930 . S
C1490 C1489 1.362 . S
C1490 C1493 1.409 . S
C1491 H1483 0.930 . S
C1491 C1492 1.355 . S
C1491 C1493 1.415 . S
C1492 C1491 1.355 . S
C1492 C1494 1.419 . S
C1493 C1488 1.425 . S
C1493 C1490 1.409 . S
C1493 C1491 1.415 . S
C1494 H1484 0.930 . S
C1494 C1492 1.419 . S
C1494 C1495 1.362 . S
C1495 H1485 0.930 . S
C1495 C1488 1.409 . S
C1495 C1494 1.362 . S
H1496 C1502 0.930 . S
H1497 C1505 0.930 . S
H1498 C1506 0.930 . S
H1499 C1507 0.930 . S
H1500 C1510 0.930 . S
H1501 C1511 0.930 . S
C1502 H1496 0.930 . S
C1502 C1503 1.355 . S
C1502 C1504 1.415 . S
C1503 C1502 1.355 . S
C1503 C1505 1.419 . S
C1504 C1502 1.415 . S
C1504 C1509 1.425 . S
C1504 C1511 1.409 . S
C1505 H1497 0.930 . S
C1505 C1503 1.419 . S
C1505 C1506 1.362 . S
C1506 H1498 0.930 . S
C1506 C1505 1.362 . S
C1506 C1509 1.409 . S
C1507 H1499 0.930 . S
C1507 C1508 1.355 . S
C1507 C1509 1.415 . S
C1508 C1507 1.355 . S
C1508 C1510 1.419 . S
C1509 C1504 1.425 . S
C1509 C1506 1.409 . S
C1509 C1507 1.415 . S
C1510 H1500 0.930 . S
C1510 C1508 1.419 . S
C1510 C1511 1.362 . S
C1511 H1501 0.930 . S
C1511 C1504 1.409 . S
C1511 C1510 1.362 . S
H1512 C1518 0.930 1_554 S
H1513 C1521 0.930 . S
H1514 C1522 0.930 . S
H1515 C1523 0.930 . S
H1516 C1526 0.930 . S
H1517 C1527 0.930 . S
C1518 H1512 0.930 1_556 S
C1518 C1519 1.355 . S
C1518 C1520 1.415 . S
C1519 C1518 1.355 . S
C1519 C1521 1.419 . S
C1520 C1518 1.415 . S
C1520 C1525 1.425 . S
C1520 C1527 1.409 1_556 S
C1521 H1513 0.930 . S
C1521 C1519 1.419 . S
C1521 C1522 1.362 . S
C1522 H1514 0.930 . S
C1522 C1521 1.362 . S
C1522 C1525 1.409 . S
C1523 H1515 0.930 . S
C1523 C1524 1.355 . S
C1523 C1525 1.415 . S
C1524 C1523 1.355 . S
C1524 C1526 1.419 1_556 S
C1525 C1520 1.425 . S
C1525 C1522 1.409 . S
C1525 C1523 1.415 . S
C1526 H1516 0.930 . S
C1526 C1524 1.419 1_554 S
C1526 C1527 1.362 . S
C1527 H1517 0.930 . S
C1527 C1520 1.409 1_554 S
C1527 C1526 1.362 . S
H1528 C1534 0.930 . S
H1529 C1537 0.930 . S
H1530 C1538 0.930 . S
H1531 C1539 0.930 . S
H1532 C1542 0.930 . S
H1533 C1543 0.930 . S
C1534 H1528 0.930 . S
C1534 C1535 1.355 . S
C1534 C1536 1.415 . S
C1535 C1534 1.355 . S
C1535 C1537 1.419 . S
C1536 C1534 1.415 . S
C1536 C1541 1.425 . S
C1536 C1543 1.409 . S
C1537 H1529 0.930 . S
C1537 C1535 1.419 . S
C1537 C1538 1.362 . S
C1538 H1530 0.930 . S
C1538 C1537 1.362 . S
C1538 C1541 1.409 . S
C1539 H1531 0.930 . S
C1539 C1540 1.355 . S
C1539 C1541 1.415 . S
C1540 C1539 1.355 . S
C1540 C1542 1.419 . S
C1541 C1536 1.425 . S
C1541 C1538 1.409 . S
C1541 C1539 1.415 . S
C1542 H1532 0.930 . S
C1542 C1540 1.419 . S
C1542 C1543 1.362 . S
C1543 H1533 0.930 . S
C1543 C1536 1.409 . S
C1543 C1542 1.362 . S
H1544 C1550 0.930 . S
H1545 C1553 0.930 . S
H1546 C1554 0.930 . S
H1547 C1555 0.930 . S
H1548 C1558 0.930 . S
H1549 C1559 0.930 . S
C1550 H1544 0.930 . S
C1550 C1551 1.355 . S
C1550 C1552 1.415 . S
C1551 C1550 1.355 . S
C1551 C1553 1.419 . S
C1552 C1550 1.415 . S
C1552 C1557 1.425 . S
C1552 C1559 1.409 1_554 S
C1553 H1545 0.930 . S
C1553 C1551 1.419 . S
C1553 C1554 1.362 . S
C1554 H1546 0.930 . S
C1554 C1553 1.362 . S
C1554 C1557 1.409 . S
C1555 H1547 0.930 . S
C1555 C1556 1.355 . S
C1555 C1557 1.415 . S
C1556 C1555 1.355 . S
C1556 C1558 1.419 1_554 S
C1557 C1552 1.425 . S
C1557 C1554 1.409 . S
C1557 C1555 1.415 . S
C1558 H1548 0.930 . S
C1558 C1556 1.419 1_556 S
C1558 C1559 1.362 . S
C1559 H1549 0.930 . S
C1559 C1552 1.409 1_556 S
C1559 C1558 1.362 . S
H1560 C1566 0.930 . S
H1561 C1569 0.930 . S
H1562 C1570 0.930 . S
H1563 C1571 0.930 . S
H1564 C1574 0.930 . S
H1565 C1575 0.930 . S
C1566 H1560 0.930 . S
C1566 C1567 1.355 . S
C1566 C1568 1.415 . S
C1567 C1566 1.355 . S
C1567 C1569 1.419 . S
C1568 C1566 1.415 . S
C1568 C1573 1.425 . S
C1568 C1575 1.409 . S
C1569 H1561 0.930 . S
C1569 C1567 1.419 . S
C1569 C1570 1.362 . S
C1570 H1562 0.930 . S
C1570 C1569 1.362 . S
C1570 C1573 1.409 . S
C1571 H1563 0.930 . S
C1571 C1572 1.355 . S
C1571 C1573 1.415 . S
C1572 C1571 1.355 . S
C1572 C1574 1.419 . S
C1573 C1568 1.425 . S
C1573 C1570 1.409 . S
C1573 C1571 1.415 . S
C1574 H1564 0.930 . S
C1574 C1572 1.419 . S
C1574 C1575 1.362 . S
C1575 H1565 0.930 . S
C1575 C1568 1.409 . S
C1575 C1574 1.362 . S
C820 C648 1.502 . S
C815 C202 1.508 . S
C836 C661 1.489 . S
C831 C261 1.499 . S
C847 C282 1.682 . S
C852 C681 1.586 . S
C868 C695 1.336 . S
C863 C162 1.443 . S
C884 C707 1.501 . S
C879 C402 1.503 . S
C900 C721 1.419 . S
C895 C482 1.432 . S
C911 C442 1.484 . S
C916 C731 1.493 . S
C932 C746 1.528 . S
C927 C381 1.513 . S
C943 C461 1.555 . S
C948 C760 1.513 . S
C964 C779 1.312 . S
C959 C362 1.417 . S
C975 C415 1.443 . S
C980 C759 1.419 . S
C996 C777 1.433 . S
C991 C495 1.438 . S
C1007 C301 1.712 . S
C1012 C793 1.623 . S
C1023 C175 1.509 . S
C1028 C787 1.488 . S
C1039 C215 1.474 . S
C1044 C791 1.481 . S
C1055 C242 1.478 . S
C1060 C788 1.465 . S
C1071 C141 1.529 . S
C1076 C690 1.510 . S
C1087 C581 1.526 . S
C1092 C689 1.514 . S
C1108 C653 1.321 . S
C1103 C615 1.414 . S
C1124 C667 1.489 . S
C1119 C335 1.638 . S
C1135 C181 1.593 . S
C1140 C704 1.573 . S
C1156 C749 1.499 . S
C1151 C455 1.496 . S
C1172 C703 1.438 . S
C1167 C375 1.448 . S
C1188 C735 1.464 . S
C1183 C501 1.471 . S
C1204 C732 1.500 . S
C1199 C562 1.505 . S
C1215 C621 1.477 . S
C1220 C745 1.481 . S
C1231 C322 1.666 . S
C1236 C709 1.500 . S
C1252 C723 1.343 . S
C1247 C522 1.442 . S
C1263 C122 1.473 . S
C1268 C679 1.488 . S
C1284 C693 1.428 . S
C1279 C2 1.425 . S
C1300 C647 1.470 . S
C1295 C42 1.456 . S
C1316 C662 1.540 . S
C1311 C101 1.523 . S
C1327 C61 1.542 . S
C1332 C774 1.536 . S
C1343 C82 1.379 . S
C1348 C765 1.381 . S
C1359 C135 1.448 . S
C1364 C773 1.426 . S
C1375 C15 1.438 . S
C1380 C763 1.439 . S
C1396 C807 1.537 . S
C1391 C341 1.711 . S
C1412 C801 1.504 . S
C1407 C535 1.494 . S
C1428 C805 1.483 . S
C1423 C575 1.475 . S
C1439 C602 1.506 . S
C1444 C802 1.471 . S
C1455 C421 1.539 . S
C1460 C718 1.529 . S
C1476 C717 1.503 . S
C1471 C221 1.529 . S
C1492 C737 1.326 . S
C1487 C255 1.393 . S
C1508 C751 1.579 . S
C1503 C295 1.656 . S
C1519 C541 1.567 . S
C1524 C676 1.583 . S
C1540 C665 1.483 . S
C1535 C55 1.500 . S
C1551 C95 1.443 . S
C1556 C675 1.427 . S
C1572 C651 1.473 . S
C1567 C21 1.458 . S
