# Generated by pormake.
# Topology pto, (3,4)-cn, num edge types: 1
# Building blocks:
#     Node 0, Type 0, BuildingBlock: OLANEW_clean_sbu_2, # of connection points: 3
#     Node 1, Type 0, BuildingBlock: OLANEW_clean_sbu_2, # of connection points: 3
#     Node 2, Type 0, BuildingBlock: OLANEW_clean_sbu_2, # of connection points: 3
#     Node 3, Type 0, BuildingBlock: OLANEW_clean_sbu_2, # of connection points: 3
#     Node 4, Type 0, BuildingBlock: OLANEW_clean_sbu_2, # of connection points: 3
#     Node 5, Type 0, BuildingBlock: OLANEW_clean_sbu_2, # of connection points: 3
#     Node 6, Type 0, BuildingBlock: OLANEW_clean_sbu_2, # of connection points: 3
#     Node 7, Type 0, BuildingBlock: OLANEW_clean_sbu_2, # of connection points: 3
#     Node 8, Type 1, BuildingBlock: NAWXER_clean_sbu_0, # of connection points: 4
#     Node 9, Type 1, BuildingBlock: NAWXER_clean_sbu_0, # of connection points: 4
#     Node 10, Type 1, BuildingBlock: NAWXER_clean_sbu_0, # of connection points: 4
#     Node 11, Type 1, BuildingBlock: NAWXER_clean_sbu_0, # of connection points: 4
#     Node 12, Type 1, BuildingBlock: NAWXER_clean_sbu_0, # of connection points: 4
#     Node 13, Type 1, BuildingBlock: NAWXER_clean_sbu_0, # of connection points: 4
#     Edge 14, Type (0, 1), BuildingBlock: OJICUG_clean_linker_0, # of connection points: 2
#     Edge 15, Type (0, 1), BuildingBlock: OJICUG_clean_linker_0, # of connection points: 2
#     Edge 16, Type (0, 1), BuildingBlock: OJICUG_clean_linker_0, # of connection points: 2
#     Edge 17, Type (0, 1), BuildingBlock: OJICUG_clean_linker_0, # of connection points: 2
#     Edge 18, Type (0, 1), BuildingBlock: OJICUG_clean_linker_0, # of connection points: 2
#     Edge 19, Type (0, 1), BuildingBlock: OJICUG_clean_linker_0, # of connection points: 2
#     Edge 20, Type (0, 1), BuildingBlock: OJICUG_clean_linker_0, # of connection points: 2
#     Edge 21, Type (0, 1), BuildingBlock: OJICUG_clean_linker_0, # of connection points: 2
#     Edge 22, Type (0, 1), BuildingBlock: OJICUG_clean_linker_0, # of connection points: 2
#     Edge 23, Type (0, 1), BuildingBlock: OJICUG_clean_linker_0, # of connection points: 2
#     Edge 24, Type (0, 1), BuildingBlock: OJICUG_clean_linker_0, # of connection points: 2
#     Edge 25, Type (0, 1), BuildingBlock: OJICUG_clean_linker_0, # of connection points: 2
#     Edge 26, Type (0, 1), BuildingBlock: OJICUG_clean_linker_0, # of connection points: 2
#     Edge 27, Type (0, 1), BuildingBlock: OJICUG_clean_linker_0, # of connection points: 2
#     Edge 28, Type (0, 1), BuildingBlock: OJICUG_clean_linker_0, # of connection points: 2
#     Edge 29, Type (0, 1), BuildingBlock: OJICUG_clean_linker_0, # of connection points: 2
#     Edge 30, Type (0, 1), BuildingBlock: OJICUG_clean_linker_0, # of connection points: 2
#     Edge 31, Type (0, 1), BuildingBlock: OJICUG_clean_linker_0, # of connection points: 2
#     Edge 32, Type (0, 1), BuildingBlock: OJICUG_clean_linker_0, # of connection points: 2
#     Edge 33, Type (0, 1), BuildingBlock: OJICUG_clean_linker_0, # of connection points: 2
#     Edge 34, Type (0, 1), BuildingBlock: OJICUG_clean_linker_0, # of connection points: 2
#     Edge 35, Type (0, 1), BuildingBlock: OJICUG_clean_linker_0, # of connection points: 2
#     Edge 36, Type (0, 1), BuildingBlock: OJICUG_clean_linker_0, # of connection points: 2
#     Edge 37, Type (0, 1), BuildingBlock: OJICUG_clean_linker_0, # of connection points: 2
# Relax obj value: 0.014
# Max RMSD: 0.127
# Mean RMSD: 0.054
data_MOF--net-pto--node1-OLANEW_clean_sbu_2--node2-NAWXER_clean_sbu_0--edge1-OJICUG_clean_linker_0
_symmetry_space_group_name_H-M    P1
_symmetry_Int_Tables_number       1
_symmetry_cell_setting            triclinic
loop_
_symmetry_equiv_pos_as_xyz
'x, y, z'
_cell_length_a     32.787313
_cell_length_b     32.599802
_cell_length_c     29.82576
_cell_angle_alpha  93.178182
_cell_angle_beta   90.541074
_cell_angle_gamma 104.19531
loop_
_atom_site_label
_atom_site_type_symbol
_atom_site_fract_x
_atom_site_fract_y
_atom_site_fract_z
_atom_type_partial_charge
O0 O 0.3591 0.4256 0.25763 0.0
Cd1 Cd 0.33008 0.41996 0.33208 0.0
O2 O 0.35407 0.48963 0.24313 0.0
Cd3 Cd 0.31228 0.49175 0.29949 0.0
O4 O 0.24822 0.49257 0.31863 0.0
C5 C 0.2189 0.46377 0.29957 0.0
O6 O 0.22916 0.43426 0.2734 0.0
C7 C 0.3662 0.45639 0.23214 0.0
C8 C 0.34646 0.34692 0.36476 0.0
O9 O 0.31206 0.3458 0.3434 0.0
O10 O 0.3728 0.38295 0.37189 0.0
O11 O 0.39966 0.99725 0.87158 0.0
Cd12 Cd 0.35765 0.04025 0.83858 0.0
O13 O 0.34512 0.94334 0.87523 0.0
Cd14 Cd 0.30167 0.88176 0.88685 0.0
O15 O 0.24562 0.82891 0.8737 0.0
C16 C 0.2145 0.81909 0.89962 0.0
O17 O 0.21548 0.84033 0.93851 0.0
C18 C 0.38437 0.95943 0.88226 0.0
C19 C 0.37657 0.05494 0.74904 0.0
O20 O 0.39692 0.07993 0.78082 0.0
O21 O 0.34782 0.02287 0.75977 0.0
O22 O 0.86331 0.84605 0.26357 0.0
Cd23 Cd 0.84788 0.79092 0.20205 0.0
O24 O 0.80786 0.81105 0.29844 0.0
Cd25 Cd 0.78079 0.7694 0.24049 0.0
O26 O 0.73474 0.7689 0.18714 0.0
C27 C 0.73193 0.80568 0.17771 0.0
O28 O 0.75738 0.83882 0.19867 0.0
C29 C 0.84023 0.84198 0.2979 0.0
C30 C 0.88307 0.72235 0.21443 0.0
O31 O 0.90012 0.75169 0.18871 0.0
O32 O 0.84967 0.72555 0.23481 0.0
O33 O 0.85868 0.36104 0.73817 0.0
Cd34 Cd 0.80271 0.30297 0.70431 0.0
O35 O 0.80697 0.38263 0.7687 0.0
Cd36 Cd 0.76911 0.42079 0.8028 0.0
O37 O 0.70921 0.42165 0.83345 0.0
C38 C 0.69408 0.4538 0.83969 0.0
O39 O 0.71575 0.49098 0.82794 0.0
C40 C 0.84622 0.38894 0.76212 0.0
C41 C 0.82458 0.23544 0.65678 0.0
O42 O 0.82867 0.27126 0.6394 0.0
O43 O 0.81181 0.23198 0.69721 0.0
O44 O 0.75381 0.78735 0.62537 0.0
Cd45 Cd 0.75171 0.72438 0.66709 0.0
O46 O 0.76437 0.831 0.6858 0.0
Cd47 Cd 0.74399 0.78152 0.73307 0.0
O48 O 0.70494 0.77073 0.79241 0.0
C49 C 0.66642 0.75044 0.79136 0.0
O50 O 0.6493 0.73113 0.75345 0.0
C51 C 0.76189 0.82483 0.64334 0.0
C52 C 0.83163 0.71165 0.68535 0.0
O53 O 0.81181 0.69682 0.64843 0.0
O54 O 0.81397 0.73289 0.71314 0.0
O55 O 0.78564 0.28378 0.20823 0.0
Cd56 Cd 0.72085 0.22953 0.22014 0.0
O57 O 0.76139 0.32937 0.25075 0.0
Cd58 Cd 0.69607 0.29467 0.23824 0.0
O59 O 0.64385 0.29705 0.19318 0.0
C60 C 0.64768 0.33299 0.17687 0.0
O61 O 0.68056 0.36379 0.18926 0.0
C62 C 0.79159 0.31966 0.22971 0.0
C63 C 0.73374 0.1749 0.28487 0.0
O64 O 0.73118 0.163 0.24306 0.0
O65 O 0.72996 0.21224 0.29613 0.0
O66 O 0.2232 0.36608 0.89598 0.0
Cd67 Cd 0.15306 0.36464 0.867 0.0
O68 O 0.24168 0.3658 0.82589 0.0
Cd69 Cd 0.28108 0.3556 0.7705 0.0
O70 O 0.29306 0.31947 0.71079 0.0
C71 C 0.26318 0.28993 0.69374 0.0
O72 O 0.22609 0.28282 0.71225 0.0
C73 C 0.25134 0.36577 0.86719 0.0
C74 C 0.14667 0.44075 0.83274 0.0
O75 O 0.14426 0.43484 0.87486 0.0
O76 O 0.15285 0.41066 0.80623 0.0
O77 O 0.38664 0.8282 0.25512 0.0
Cd78 Cd 0.34421 0.82921 0.32211 0.0
O79 O 0.33103 0.78755 0.22065 0.0
Cd80 Cd 0.29083 0.75129 0.16612 0.0
O81 O 0.22668 0.71407 0.15346 0.0
C82 C 0.21497 0.68031 0.12841 0.0
O83 O 0.24295 0.66641 0.10475 0.0
C84 C 0.36979 0.80645 0.22009 0.0
C85 C 0.34045 0.90985 0.35566 0.0
O86 O 0.37149 0.89427 0.36546 0.0
O87 O 0.3113 0.88758 0.32923 0.0
C88 C 0.94156 0.45384 0.21305 0.0
C89 C 0.05838 0.56713 0.16961 0.0
O90 O 0.95575 0.48041 0.24621 0.0
Zn91 Zn 0.00464 0.53727 0.25771 0.0
O92 O 0.95831 0.45955 0.17501 0.0
Zn93 Zn 1.00038 0.51105 0.19094 0.0
O94 O 0.04413 0.49167 0.23416 0.0
O95 O 0.04263 0.52341 0.30115 0.0
O96 O 0.03811 0.53552 0.14488 0.0
O97 O 0.04886 0.57126 0.211 0.0
O98 O 0.97436 0.57872 0.27604 0.0
O99 O 0.96653 0.55982 0.20357 0.0
C100 C 0.05778 0.49915 0.27496 0.0
C101 C 0.95953 0.58291 0.23755 0.0
C102 C 0.96179 0.55132 0.80655 0.0
C103 C 0.06973 0.68424 0.84048 0.0
O104 O 0.96616 0.57278 0.8441 0.0
Zn105 Zn 0.01189 0.62003 0.82567 0.0
O106 O 0.98415 0.56605 0.77346 0.0
Zn107 Zn 0.03244 0.61872 0.75674 0.0
O108 O 0.07506 0.58827 0.73977 0.0
O109 O 0.0597 0.58735 0.81186 0.0
O110 O 0.06838 0.66975 0.79949 0.0
O111 O 0.04209 0.66598 0.86742 0.0
O112 O 0.97963 0.65037 0.78113 0.0
O113 O 0.0038 0.645 0.71287 0.0
C114 C 0.08086 0.57697 0.77911 0.0
C115 C 0.97858 0.65752 0.73941 0.0
C116 C 0.38195 0.10895 0.56954 0.0
C117 C 0.3691 0.19811 0.44659 0.0
O118 O 0.3448 0.10115 0.55202 0.0
Zn119 Zn 0.31208 0.12223 0.49894 0.0
O120 O 0.41179 0.13596 0.55269 0.0
Zn121 Zn 0.3783 0.15074 0.50497 0.0
O122 O 0.33876 0.1807 0.54465 0.0
O123 O 0.27231 0.14568 0.53389 0.0
O124 O 0.40297 0.19595 0.46639 0.0
O125 O 0.33443 0.17201 0.45535 0.0
O126 O 0.29259 0.07198 0.45952 0.0
O127 O 0.36184 0.09383 0.46238 0.0
C128 C 0.29976 0.17636 0.55309 0.0
C129 C 0.32828 0.06684 0.4479 0.0
C130 C 0.60033 0.83039 0.0593 0.0
C131 C 0.49852 0.87396 0.96498 0.0
O132 O 0.57111 0.7986 0.04399 0.0
Zn133 Zn 0.51533 0.78814 0.00052 0.0
O134 O 0.5999 0.86752 0.04873 0.0
Zn135 Zn 0.55049 0.85182 0.01103 0.0
O136 O 0.50268 0.83134 0.05867 0.0
O137 O 0.47071 0.76446 0.04113 0.0
O138 O 0.53253 0.89608 0.98324 0.0
O139 O 0.48865 0.8337 0.9685 0.0
O140 O 0.52879 0.75295 0.95038 0.0
O141 O 0.57119 0.81704 0.95713 0.0
C142 C 0.4745 0.79785 0.06667 0.0
C143 C 0.56081 0.77993 0.93747 0.0
C144 C 0.77393 0.9672 0.53374 0.0
C145 C 0.76631 0.06519 0.41867 0.0
O146 O 0.74137 0.97315 0.51431 0.0
Zn147 Zn 0.77004 0.01667 0.47743 0.0
O148 O 0.81059 0.98975 0.52468 0.0
Zn149 Zn 0.83651 0.03887 0.47878 0.0
O150 O 0.86418 0.08668 0.51851 0.0
O151 O 0.79505 0.06907 0.5252 0.0
O152 O 0.80431 0.06888 0.43228 0.0
O153 O 0.7366 0.03794 0.43503 0.0
O154 O 0.80229 0.98043 0.436 0.0
O155 O 0.87037 0.01053 0.43975 0.0
C156 C 0.83128 0.09281 0.53712 0.0
C157 C 0.83987 0.98067 0.42464 0.0
C158 C 0.5277 0.36381 0.04722 0.0
C159 C 0.41385 0.37185 0.9447 0.0
O160 O 0.50053 0.33345 0.02737 0.0
Zn161 Zn 0.47278 0.36814 0.99428 0.0
O162 O 0.52784 0.40225 0.03948 0.0
Zn163 Zn 0.49121 0.43483 -0.00086 0.0
O164 O 0.47001 0.46769 0.04515 0.0
O165 O 0.44649 0.39848 0.04871 0.0
O166 O 0.43624 0.40898 0.95683 0.0
O167 O 0.42421 0.33951 0.95814 0.0
O168 O 0.52101 0.39591 0.94869 0.0
O169 O 0.53252 0.46526 0.95987 0.0
C170 C 0.44811 0.43624 0.06457 0.0
C171 C 0.54122 0.43336 0.9395 0.0
C172 C 0.1632 0.49933 0.32726 0.0
C173 C 0.17478 0.46756 0.3001 0.0
H174 H 0.11632 0.53371 0.34133 0.0
C175 C 0.14479 0.44215 0.26969 0.0
H176 H 0.18548 0.51924 0.35126 0.0
C177 C 0.10545 0.45066 0.26377 0.0
C178 C 0.09496 0.48434 0.2886 0.0
H179 H 0.15248 0.41717 0.24848 0.0
H180 H 0.08398 0.4321 0.23818 0.0
C181 C 0.12349 0.50747 0.32177 0.0
C182 C 0.17332 0.76733 0.84074 0.0
C183 C 0.17688 0.78502 0.88503 0.0
H184 H 0.13687 0.72255 0.79204 0.0
C185 C 0.14405 0.77015 0.91467 0.0
H186 H 0.19779 0.77811 0.81688 0.0
C187 C 0.10877 0.73783 0.90037 0.0
C188 C 0.10547 0.72005 0.85603 0.0
H189 H 0.14576 0.78316 0.94903 0.0
H190 H 0.0843 0.72662 0.92408 0.0
C191 C 0.13811 0.73548 0.82641 0.0
C192 C 0.89625 0.6645 0.26016 0.0
C193 C 0.90128 0.6857 0.22006 0.0
H194 H 0.91144 0.61555 0.2975 0.0
C195 C 0.92409 0.67173 0.18529 0.0
H196 H 0.87883 0.67468 0.28751 0.0
C197 C 0.9416 0.63724 0.1905 0.0
C198 C 0.93766 0.61679 0.23105 0.0
H199 H 0.92821 0.68735 0.15393 0.0
H200 H 0.95936 0.6274 0.16325 0.0
C201 C 0.91487 0.63074 0.26588 0.0
C202 C 0.86793 0.45615 0.81284 0.0
C203 C 0.8766 0.4291 0.77761 0.0
H204 H 0.88841 0.51628 0.85046 0.0
C205 C 0.91467 0.44146 0.75517 0.0
H206 H 0.83946 0.44706 0.83168 0.0
C207 C 0.94235 0.48061 0.76587 0.0
C208 C 0.93313 0.50852 0.79971 0.0
H209 H 0.92262 0.42144 0.72812 0.0
H210 H 0.97093 0.48927 0.74695 0.0
C211 C 0.89614 0.49555 0.82399 0.0
C212 C 0.32481 0.269 0.37459 0.0
C213 C 0.35498 0.30778 0.38133 0.0
H214 H 0.30618 0.2037 0.38906 0.0
C215 C 0.3926 0.3088 0.40497 0.0
H216 H 0.29574 0.26694 0.35606 0.0
C217 C 0.39883 0.27223 0.42361 0.0
C218 C 0.36742 0.23409 0.41911 0.0
H219 H 0.41668 0.33813 0.41031 0.0
H220 H 0.42716 0.27444 0.44353 0.0
C221 C 0.33093 0.23264 0.39332 0.0
C222 C 0.40165 0.89214 0.90593 0.0
C223 C 0.41279 0.93634 0.90297 0.0
H224 H 0.42015 0.83751 0.92751 0.0
C225 C 0.45274 0.95933 0.91932 0.0
H226 H 0.37164 0.87332 0.89287 0.0
C227 C 0.48062 0.93892 0.93865 0.0
C228 C 0.46944 0.89486 0.94213 0.0
H229 H 0.46255 0.99343 0.91759 0.0
H230 H 0.51087 0.9579 0.95122 0.0
C231 C 0.42972 0.87158 0.92536 0.0
C232 C 0.87617 0.91497 0.33135 0.0
C233 C 0.84687 0.87564 0.33468 0.0
H234 H 0.89739 0.97968 0.35785 0.0
C235 C 0.81963 0.87039 0.37112 0.0
H236 H 0.89765 0.92 0.30369 0.0
C237 C 0.81915 0.90437 0.40127 0.0
C238 C 0.84628 0.94436 0.39628 0.0
H239 H 0.797 0.84052 0.3752 0.0
H240 H 0.7964 0.89963 0.42783 0.0
C241 C 0.87605 0.94912 0.36221 0.0
C242 C 0.63897 0.48467 0.87688 0.0
C243 C 0.65296 0.44905 0.8615 0.0
H244 H 0.5924 0.50774 0.91347 0.0
C245 C 0.62788 0.4084 0.86855 0.0
H246 H 0.65748 0.51641 0.87178 0.0
C247 C 0.59054 0.40342 0.89199 0.0
C248 C 0.57746 0.43897 0.90925 0.0
H249 H 0.63749 0.38026 0.85671 0.0
H250 H 0.5727 0.3716 0.89787 0.0
C251 C 0.60163 0.47968 0.90067 0.0
C252 C 0.35664 0.04029 0.66767 0.0
C253 C 0.38362 0.06455 0.7014 0.0
H254 H 0.33557 0.03513 0.59909 0.0
C255 C 0.41477 0.10004 0.68946 0.0
H256 H 0.33259 0.01253 0.67558 0.0
C257 C 0.41683 0.11272 0.64525 0.0
C258 C 0.38747 0.09034 0.6125 0.0
H259 H 0.43628 0.11918 0.71465 0.0
H260 H 0.43942 0.14161 0.63754 0.0
C261 C 0.35842 0.05317 0.62377 0.0
C262 C 0.66856 0.7766 0.12711 0.0
C263 C 0.69911 0.81152 0.14598 0.0
H264 H 0.61327 0.75513 0.08509 0.0
C265 C 0.69725 0.85255 0.13552 0.0
H266 H 0.66909 0.74459 0.13457 0.0
C267 C 0.66533 0.8586 0.10724 0.0
C268 C 0.63442 0.82378 0.08882 0.0
H269 H 0.72031 0.88016 0.14944 0.0
H270 H 0.66476 0.89068 0.10011 0.0
C271 C 0.6365 0.78267 0.09887 0.0
C272 C 0.85839 0.2032 0.59346 0.0
C273 C 0.83066 0.19822 0.62954 0.0
H274 H 0.88132 0.17307 0.53652 0.0
C275 C 0.80582 0.15761 0.63703 0.0
H276 H 0.87787 0.23419 0.58697 0.0
C277 C 0.8069 0.12307 0.60752 0.0
C278 C 0.83386 0.12822 0.57087 0.0
H279 H 0.78396 0.1529 0.66438 0.0
H280 H 0.7861 0.09243 0.61289 0.0
C281 C 0.86048 0.1683 0.56476 0.0
C282 C 0.40232 0.48732 0.16314 0.0
C283 C 0.38722 0.45225 0.18908 0.0
H284 H 0.4338 0.50996 0.10321 0.0
C285 C 0.39177 0.41226 0.17326 0.0
H286 H 0.39922 0.51854 0.17447 0.0
C287 C 0.4109 0.40731 0.13256 0.0
C288 C 0.42644 0.44227 0.10673 0.0
H289 H 0.3803 0.3845 0.1922 0.0
H290 H 0.41395 0.37596 0.12168 0.0
C291 C 0.42207 0.48242 0.1224 0.0
C292 C 0.88997 0.71287 0.74044 0.0
C293 C 0.8725 0.70247 0.69689 0.0
H294 H 0.93737 0.70715 0.78772 0.0
C295 C 0.89315 0.68104 0.66569 0.0
H296 H 0.8751 0.72954 0.76526 0.0
C297 C 0.9294 0.66858 0.6785 0.0
C298 C 0.94529 0.67688 0.72287 0.0
H299 H 0.88061 0.67278 0.63176 0.0
H300 H 0.94365 0.65063 0.65435 0.0
C301 C 0.92575 0.70003 0.75333 0.0
C302 C 0.84253 0.38584 0.25987 0.0
C303 C 0.83217 0.35157 0.22768 0.0
H304 H 0.88544 0.44468 0.28076 0.0
C305 C 0.85935 0.34998 0.19181 0.0
H306 H 0.82226 0.38787 0.28795 0.0
C307 C 0.89524 0.38296 0.18724 0.0
C308 C 0.90502 0.41773 0.21891 0.0
H309 H 0.85207 0.32405 0.16638 0.0
H310 H 0.91507 0.38146 0.15866 0.0
C311 C 0.87875 0.41837 0.25576 0.0
C312 C 0.12708 0.4817 0.77028 0.0
C313 C 0.139 0.47995 0.81549 0.0
H314 H 0.09943 0.51475 0.72264 0.0
C315 C 0.13901 0.51451 0.84567 0.0
H316 H 0.12699 0.45556 0.7462 0.0
C317 C 0.12374 0.54823 0.83215 0.0
C318 C 0.10796 0.54816 0.78818 0.0
H319 H 0.1487 0.5145 0.8805 0.0
H320 H 0.12178 0.57316 0.85703 0.0
C321 C 0.11158 0.51567 0.75668 0.0
C322 C 0.15852 0.61374 0.10928 0.0
C323 C 0.17167 0.65375 0.13236 0.0
H324 H 0.11151 0.55473 0.10257 0.0
C325 C 0.14441 0.66667 0.16315 0.0
H326 H 0.17869 0.60299 0.08514 0.0
C327 C 0.10649 0.63905 0.17335 0.0
C328 C 0.09459 0.59812 0.15252 0.0
H329 H 0.15322 0.69742 0.18118 0.0
H330 H 0.08714 0.64925 0.19881 0.0
C331 C 0.12006 0.58618 0.11911 0.0
C332 C 0.79395 0.90031 0.62728 0.0
C333 C 0.76571 0.86125 0.61514 0.0
H334 H 0.8193 0.96462 0.61025 0.0
C335 C 0.73966 0.85767 0.57678 0.0
H336 H 0.81428 0.90381 0.65682 0.0
C337 C 0.74141 0.89271 0.5513 0.0
C338 C 0.77014 0.93155 0.56293 0.0
H339 H 0.71736 0.82799 0.56699 0.0
H340 H 0.72099 0.88914 0.52181 0.0
C341 C 0.79673 0.93501 0.60085 0.0
C342 C 0.58407 0.30678 0.1257 0.0
C343 C 0.61657 0.34032 0.14386 0.0
H344 H 0.53063 0.28774 0.08058 0.0
C345 C 0.6197 0.38135 0.12965 0.0
H346 H 0.5809 0.27478 0.13586 0.0
C347 C 0.59096 0.38878 0.0982 0.0
C348 C 0.55849 0.35533 0.07991 0.0
H349 H 0.64434 0.40794 0.14292 0.0
H350 H 0.5943 0.42086 0.08819 0.0
C351 C 0.55539 0.31419 0.09391 0.0
C352 C 0.31066 0.27032 0.636 0.0
C353 C 0.27086 0.26238 0.65531 0.0
H354 H 0.35062 0.24978 0.5885 0.0
C355 C 0.2393 0.22709 0.63866 0.0
H356 H 0.33558 0.29735 0.64772 0.0
C357 C 0.24794 0.19951 0.60436 0.0
C358 C 0.2883 0.20678 0.58629 0.0
H359 H 0.20821 0.22023 0.65277 0.0
H360 H 0.22346 0.17199 0.59293 0.0
C361 C 0.31925 0.24291 0.60197 0.0
C362 C 0.43003 0.83749 0.17237 0.0
C363 C 0.39521 0.804 0.17984 0.0
H364 H 0.48197 0.86185 0.13096 0.0
C365 C 0.38653 0.76788 0.14991 0.0
H366 H 0.43762 0.86564 0.19496 0.0
C367 C 0.41224 0.76547 0.11306 0.0
C368 C 0.44697 0.79921 0.10552 0.0
H369 H 0.36068 0.741 0.15561 0.0
H370 H 0.40498 0.73723 0.09063 0.0
C371 C 0.45544 0.83525 0.13558 0.0
C372 C 0.76886 0.16324 0.35592 0.0
C373 C 0.74157 0.1467 0.31919 0.0
H374 H 0.79896 0.14984 0.41567 0.0
C375 C 0.72212 0.10313 0.31549 0.0
H376 H 0.78433 0.19672 0.35936 0.0
C377 C 0.72935 0.07663 0.34848 0.0
C378 C 0.75737 0.09308 0.38465 0.0
H379 H 0.70086 0.08973 0.28748 0.0
H380 H 0.71377 0.04317 0.34525 0.0
C381 C 0.77731 0.1365 0.38794 0.0
C382 C 0.32947 0.3937 0.86848 0.0
C383 C 0.29377 0.36392 0.88202 0.0
H384 H 0.39591 0.42022 0.87867 0.0
C385 C 0.29847 0.33471 0.91329 0.0
H386 H 0.3264 0.41671 0.84463 0.0
C387 C 0.33816 0.33574 0.93148 0.0
C388 C 0.37359 0.36703 0.91997 0.0
H389 H 0.27129 0.31156 0.92425 0.0
H390 H 0.34073 0.31348 0.95638 0.0
C391 C 0.36904 0.39576 0.88797 0.0
C392 C 0.37339 0.97923 0.39661 0.0
C393 C 0.33774 0.95158 0.37581 0.0
H394 H 0.39847 0.03748 0.43494 0.0
C395 C 0.29924 0.96334 0.37647 0.0
H396 H 0.40355 0.97119 0.39648 0.0
C397 C 0.29615 0.00125 0.39905 0.0
C398 C 0.33167 0.02842 0.42076 0.0
H399 H 0.27118 0.94264 0.36076 0.0
H400 H 0.26585 0.00896 0.40007 0.0
C401 C 0.37047 0.01734 0.41853 0.0
C402 C 0.5979 0.73041 0.83198 0.0
C403 C 0.63996 0.7542 0.83067 0.0
H404 H 0.53964 0.71941 0.86729 0.0
C405 C 0.65591 0.78433 0.86601 0.0
H406 H 0.58472 0.70688 0.80528 0.0
C407 C 0.63009 0.79191 0.90071 0.0
C408 C 0.58778 0.76913 0.90149 0.0
H409 H 0.6881 0.80322 0.86622 0.0
H410 H 0.6433 0.81606 0.92687 0.0
C411 C 0.5721 0.73754 0.86739 0.0
loop_
_geom_bond_atom_site_label_1
_geom_bond_atom_site_label_2
_geom_bond_distance
_geom_bond_site_symmetry_2
_ccdc_geom_bond_type
O0 Cd1 2.300 . S
O0 C7 1.275 . S
Cd1 O0 2.300 . S
Cd1 O9 2.381 . S
Cd1 O10 2.378 . S
O2 Cd3 2.385 . S
O2 C7 1.255 . S
Cd3 O2 2.385 . S
Cd3 O4 2.317 . S
O4 Cd3 2.317 . S
O4 C5 1.232 . S
C5 O4 1.232 . S
C5 O6 1.218 . S
O6 C5 1.218 . S
C7 O0 1.275 . S
C7 O2 1.255 . S
C8 O9 1.258 . S
C8 O10 1.256 . S
O9 Cd1 2.381 . S
O9 C8 1.258 . S
O10 Cd1 2.378 . S
O10 C8 1.256 . S
O11 Cd12 2.300 . S
O11 C18 1.275 . S
Cd12 O11 2.300 . S
Cd12 O20 2.381 . S
Cd12 O21 2.378 . S
O13 Cd14 2.385 . S
O13 C18 1.255 . S
Cd14 O13 2.385 . S
Cd14 O15 2.317 . S
O15 Cd14 2.317 . S
O15 C16 1.232 . S
C16 O15 1.232 . S
C16 O17 1.218 . S
O17 C16 1.218 . S
C18 O11 1.275 . S
C18 O13 1.255 . S
C19 O20 1.258 . S
C19 O21 1.256 . S
O20 Cd12 2.381 . S
O20 C19 1.258 . S
O21 Cd12 2.378 . S
O21 C19 1.256 . S
O22 Cd23 2.300 . S
O22 C29 1.275 . S
Cd23 O22 2.300 . S
Cd23 O31 2.381 . S
Cd23 O32 2.378 . S
O24 Cd25 2.385 . S
O24 C29 1.255 . S
Cd25 O24 2.385 . S
Cd25 O26 2.317 . S
O26 Cd25 2.317 . S
O26 C27 1.232 . S
C27 O26 1.232 . S
C27 O28 1.218 . S
O28 C27 1.218 . S
C29 O22 1.275 . S
C29 O24 1.255 . S
C30 O31 1.258 . S
C30 O32 1.256 . S
O31 Cd23 2.381 . S
O31 C30 1.258 . S
O32 Cd23 2.378 . S
O32 C30 1.256 . S
O33 Cd34 2.300 . S
O33 C40 1.275 . S
Cd34 O33 2.300 . S
Cd34 O42 2.381 . S
Cd34 O43 2.378 . S
O35 Cd36 2.385 . S
O35 C40 1.255 . S
Cd36 O35 2.385 . S
Cd36 O37 2.317 . S
O37 Cd36 2.317 . S
O37 C38 1.232 . S
C38 O37 1.232 . S
C38 O39 1.218 . S
O39 C38 1.218 . S
C40 O33 1.275 . S
C40 O35 1.255 . S
C41 O42 1.258 . S
C41 O43 1.256 . S
O42 Cd34 2.381 . S
O42 C41 1.258 . S
O43 Cd34 2.378 . S
O43 C41 1.256 . S
O44 Cd45 2.300 . S
O44 C51 1.275 . S
Cd45 O44 2.300 . S
Cd45 O53 2.381 . S
Cd45 O54 2.378 . S
O46 Cd47 2.385 . S
O46 C51 1.255 . S
Cd47 O46 2.385 . S
Cd47 O48 2.317 . S
O48 Cd47 2.317 . S
O48 C49 1.232 . S
C49 O48 1.232 . S
C49 O50 1.218 . S
O50 C49 1.218 . S
C51 O44 1.275 . S
C51 O46 1.255 . S
C52 O53 1.258 . S
C52 O54 1.256 . S
O53 Cd45 2.381 . S
O53 C52 1.258 . S
O54 Cd45 2.378 . S
O54 C52 1.256 . S
O55 Cd56 2.300 . S
O55 C62 1.275 . S
Cd56 O55 2.300 . S
Cd56 O64 2.381 . S
Cd56 O65 2.378 . S
O57 Cd58 2.385 . S
O57 C62 1.255 . S
Cd58 O57 2.385 . S
Cd58 O59 2.317 . S
O59 Cd58 2.317 . S
O59 C60 1.232 . S
C60 O59 1.232 . S
C60 O61 1.218 . S
O61 C60 1.218 . S
C62 O55 1.275 . S
C62 O57 1.255 . S
C63 O64 1.258 . S
C63 O65 1.256 . S
O64 Cd56 2.381 . S
O64 C63 1.258 . S
O65 Cd56 2.378 . S
O65 C63 1.256 . S
O66 Cd67 2.300 . S
O66 C73 1.275 . S
Cd67 O66 2.300 . S
Cd67 O75 2.381 . S
Cd67 O76 2.378 . S
O68 Cd69 2.385 . S
O68 C73 1.255 . S
Cd69 O68 2.385 . S
Cd69 O70 2.317 . S
O70 Cd69 2.317 . S
O70 C71 1.232 . S
C71 O70 1.232 . S
C71 O72 1.218 . S
O72 C71 1.218 . S
C73 O66 1.275 . S
C73 O68 1.255 . S
C74 O75 1.258 . S
C74 O76 1.256 . S
O75 Cd67 2.381 . S
O75 C74 1.258 . S
O76 Cd67 2.378 . S
O76 C74 1.256 . S
O77 Cd78 2.300 . S
O77 C84 1.275 . S
Cd78 O77 2.300 . S
Cd78 O86 2.381 . S
Cd78 O87 2.378 . S
O79 Cd80 2.385 . S
O79 C84 1.255 . S
Cd80 O79 2.385 . S
Cd80 O81 2.317 . S
O81 Cd80 2.317 . S
O81 C82 1.232 . S
C82 O81 1.232 . S
C82 O83 1.218 . S
O83 C82 1.218 . S
C84 O77 1.275 . S
C84 O79 1.255 . S
C85 O86 1.258 . S
C85 O87 1.256 . S
O86 Cd78 2.381 . S
O86 C85 1.258 . S
O87 Cd78 2.378 . S
O87 C85 1.256 . S
C88 O90 1.247 . S
C88 O92 1.258 . S
C89 O96 1.247 . S
C89 O97 1.258 . S
O90 C88 1.247 . S
O90 Zn91 2.028 1_655 S
Zn91 O90 2.028 1_455 S
Zn91 O95 2.035 . S
Zn91 O97 2.035 . S
Zn91 O98 2.028 1_455 S
O92 C88 1.258 . S
O92 Zn93 2.035 1_655 S
Zn93 O92 2.035 1_455 S
Zn93 O94 2.028 . S
Zn93 O96 2.028 . S
Zn93 O99 2.035 1_455 S
O94 Zn93 2.028 . S
O94 C100 1.247 . S
O95 Zn91 2.035 . S
O95 C100 1.258 . S
O96 C89 1.247 . S
O96 Zn93 2.028 . S
O97 C89 1.258 . S
O97 Zn91 2.035 . S
O98 Zn91 2.028 1_655 S
O98 C101 1.247 . S
O99 Zn93 2.035 1_655 S
O99 C101 1.258 . S
C100 O94 1.247 . S
C100 O95 1.258 . S
C101 O98 1.247 . S
C101 O99 1.258 . S
C102 O104 1.247 . S
C102 O106 1.258 . S
C103 O110 1.247 . S
C103 O111 1.258 . S
O104 C102 1.247 . S
O104 Zn105 2.028 1_655 S
Zn105 O104 2.028 1_455 S
Zn105 O109 2.035 . S
Zn105 O111 2.035 . S
Zn105 O112 2.028 1_455 S
O106 C102 1.258 . S
O106 Zn107 2.035 1_655 S
Zn107 O106 2.035 1_455 S
Zn107 O108 2.028 . S
Zn107 O110 2.028 . S
Zn107 O113 2.035 1_455 S
O108 Zn107 2.028 . S
O108 C114 1.247 . S
O109 Zn105 2.035 . S
O109 C114 1.258 . S
O110 C103 1.247 . S
O110 Zn107 2.028 . S
O111 C103 1.258 . S
O111 Zn105 2.035 . S
O112 Zn105 2.028 1_655 S
O112 C115 1.247 . S
O113 Zn107 2.035 1_655 S
O113 C115 1.258 . S
C114 O108 1.247 . S
C114 O109 1.258 . S
C115 O112 1.247 . S
C115 O113 1.258 . S
C116 O118 1.247 . S
C116 O120 1.258 . S
C117 O124 1.247 . S
C117 O125 1.258 . S
O118 C116 1.247 . S
O118 Zn119 2.028 . S
Zn119 O118 2.028 . S
Zn119 O123 2.035 . S
Zn119 O125 2.035 . S
Zn119 O126 2.028 . S
O120 C116 1.258 . S
O120 Zn121 2.035 . S
Zn121 O120 2.035 . S
Zn121 O122 2.028 . S
Zn121 O124 2.028 . S
Zn121 O127 2.035 . S
O122 Zn121 2.028 . S
O122 C128 1.247 . S
O123 Zn119 2.035 . S
O123 C128 1.258 . S
O124 C117 1.247 . S
O124 Zn121 2.028 . S
O125 C117 1.258 . S
O125 Zn119 2.035 . S
O126 Zn119 2.028 . S
O126 C129 1.247 . S
O127 Zn121 2.035 . S
O127 C129 1.258 . S
C128 O122 1.247 . S
C128 O123 1.258 . S
C129 O126 1.247 . S
C129 O127 1.258 . S
C130 O132 1.247 . S
C130 O134 1.258 . S
C131 O138 1.247 . S
C131 O139 1.258 . S
O132 C130 1.247 . S
O132 Zn133 2.028 . S
Zn133 O132 2.028 . S
Zn133 O137 2.035 . S
Zn133 O139 2.035 1_554 S
Zn133 O140 2.028 1_554 S
O134 C130 1.258 . S
O134 Zn135 2.035 . S
Zn135 O134 2.035 . S
Zn135 O136 2.028 . S
Zn135 O138 2.028 1_554 S
Zn135 O141 2.035 1_554 S
O136 Zn135 2.028 . S
O136 C142 1.247 . S
O137 Zn133 2.035 . S
O137 C142 1.258 . S
O138 C131 1.247 . S
O138 Zn135 2.028 1_556 S
O139 C131 1.258 . S
O139 Zn133 2.035 1_556 S
O140 Zn133 2.028 1_556 S
O140 C143 1.247 . S
O141 Zn135 2.035 1_556 S
O141 C143 1.258 . S
C142 O136 1.247 . S
C142 O137 1.258 . S
C143 O140 1.247 . S
C143 O141 1.258 . S
C144 O146 1.247 . S
C144 O148 1.258 . S
C145 O152 1.247 . S
C145 O153 1.258 . S
O146 C144 1.247 . S
O146 Zn147 2.042 . S
Zn147 O146 2.042 . S
Zn147 O151 2.021 1_565 S
Zn147 O153 2.021 1_565 S
Zn147 O154 2.042 . S
O148 C144 1.258 . S
O148 Zn149 2.035 1_565 S
Zn149 O148 2.035 1_545 S
Zn149 O150 2.028 . S
Zn149 O152 2.028 . S
Zn149 O155 2.035 1_545 S
O150 Zn149 2.028 . S
O150 C156 1.247 . S
O151 Zn147 2.021 1_545 S
O151 C156 1.258 . S
O152 C145 1.247 . S
O152 Zn149 2.028 . S
O153 C145 1.258 . S
O153 Zn147 2.021 1_545 S
O154 Zn147 2.042 . S
O154 C157 1.247 . S
O155 Zn149 2.035 1_565 S
O155 C157 1.258 . S
C156 O150 1.247 . S
C156 O151 1.258 . S
C157 O154 1.247 . S
C157 O155 1.258 . S
C158 O160 1.247 . S
C158 O162 1.258 . S
C159 O166 1.247 . S
C159 O167 1.258 . S
O160 C158 1.247 . S
O160 Zn161 2.028 . S
Zn161 O160 2.028 . S
Zn161 O165 2.035 . S
Zn161 O167 2.035 1_554 S
Zn161 O168 2.028 1_554 S
O162 C158 1.258 . S
O162 Zn163 2.035 . S
Zn163 O162 2.035 . S
Zn163 O164 2.028 . S
Zn163 O166 2.028 1_554 S
Zn163 O169 2.035 1_554 S
O164 Zn163 2.028 . S
O164 C170 1.247 . S
O165 Zn161 2.035 . S
O165 C170 1.258 . S
O166 C159 1.247 . S
O166 Zn163 2.028 1_556 S
O167 C159 1.258 . S
O167 Zn161 2.035 1_556 S
O168 Zn161 2.028 1_556 S
O168 C171 1.247 . S
O169 Zn163 2.035 1_556 S
O169 C171 1.258 . S
C170 O164 1.247 . S
C170 O165 1.258 . S
C171 O168 1.247 . S
C171 O169 1.258 . S
C172 C173 1.387 . S
C172 H176 0.950 . S
C172 C181 1.390 . S
C173 C172 1.387 . S
C173 C175 1.387 . S
H174 C181 0.950 . S
C175 C173 1.387 . S
C175 C177 1.390 . S
C175 H179 0.950 . S
H176 C172 0.950 . S
C177 C175 1.390 . S
C177 C178 1.387 . S
C177 H180 0.950 . S
C178 C177 1.387 . S
C178 C181 1.387 . S
H179 C175 0.950 . S
H180 C177 0.950 . S
C181 C172 1.390 . S
C181 H174 0.950 . S
C181 C178 1.387 . S
C182 C183 1.387 . S
C182 H186 0.950 . S
C182 C191 1.390 . S
C183 C182 1.387 . S
C183 C185 1.387 . S
H184 C191 0.950 . S
C185 C183 1.387 . S
C185 C187 1.390 . S
C185 H189 0.950 . S
H186 C182 0.950 . S
C187 C185 1.390 . S
C187 C188 1.387 . S
C187 H190 0.950 . S
C188 C187 1.387 . S
C188 C191 1.387 . S
H189 C185 0.950 . S
H190 C187 0.950 . S
C191 C182 1.390 . S
C191 H184 0.950 . S
C191 C188 1.387 . S
C192 C193 1.387 . S
C192 H196 0.950 . S
C192 C201 1.390 . S
C193 C192 1.387 . S
C193 C195 1.387 . S
H194 C201 0.950 . S
C195 C193 1.387 . S
C195 C197 1.390 . S
C195 H199 0.950 . S
H196 C192 0.950 . S
C197 C195 1.390 . S
C197 C198 1.387 . S
C197 H200 0.950 . S
C198 C197 1.387 . S
C198 C201 1.387 . S
H199 C195 0.950 . S
H200 C197 0.950 . S
C201 C192 1.390 . S
C201 H194 0.950 . S
C201 C198 1.387 . S
C202 C203 1.387 . S
C202 H206 0.950 . S
C202 C211 1.390 . S
C203 C202 1.387 . S
C203 C205 1.387 . S
H204 C211 0.950 . S
C205 C203 1.387 . S
C205 C207 1.390 . S
C205 H209 0.950 . S
H206 C202 0.950 . S
C207 C205 1.390 . S
C207 C208 1.387 . S
C207 H210 0.950 . S
C208 C207 1.387 . S
C208 C211 1.387 . S
H209 C205 0.950 . S
H210 C207 0.950 . S
C211 C202 1.390 . S
C211 H204 0.950 . S
C211 C208 1.387 . S
C212 C213 1.387 . S
C212 H216 0.950 . S
C212 C221 1.390 . S
C213 C212 1.387 . S
C213 C215 1.387 . S
H214 C221 0.950 . S
C215 C213 1.387 . S
C215 C217 1.390 . S
C215 H219 0.950 . S
H216 C212 0.950 . S
C217 C215 1.390 . S
C217 C218 1.387 . S
C217 H220 0.950 . S
C218 C217 1.387 . S
C218 C221 1.387 . S
H219 C215 0.950 . S
H220 C217 0.950 . S
C221 C212 1.390 . S
C221 H214 0.950 . S
C221 C218 1.387 . S
C222 C223 1.387 . S
C222 H226 0.950 . S
C222 C231 1.390 . S
C223 C222 1.387 . S
C223 C225 1.387 . S
H224 C231 0.950 . S
C225 C223 1.387 . S
C225 C227 1.390 . S
C225 H229 0.950 . S
H226 C222 0.950 . S
C227 C225 1.390 . S
C227 C228 1.387 . S
C227 H230 0.950 . S
C228 C227 1.387 . S
C228 C231 1.387 . S
H229 C225 0.950 . S
H230 C227 0.950 . S
C231 C222 1.390 . S
C231 H224 0.950 . S
C231 C228 1.387 . S
C232 C233 1.387 . S
C232 H236 0.950 . S
C232 C241 1.390 . S
C233 C232 1.387 . S
C233 C235 1.387 . S
H234 C241 0.950 . S
C235 C233 1.387 . S
C235 C237 1.390 . S
C235 H239 0.950 . S
H236 C232 0.950 . S
C237 C235 1.390 . S
C237 C238 1.387 . S
C237 H240 0.950 . S
C238 C237 1.387 . S
C238 C241 1.387 . S
H239 C235 0.950 . S
H240 C237 0.950 . S
C241 C232 1.390 . S
C241 H234 0.950 . S
C241 C238 1.387 . S
C242 C243 1.387 . S
C242 H246 0.950 . S
C242 C251 1.390 . S
C243 C242 1.387 . S
C243 C245 1.387 . S
H244 C251 0.950 . S
C245 C243 1.387 . S
C245 C247 1.390 . S
C245 H249 0.950 . S
H246 C242 0.950 . S
C247 C245 1.390 . S
C247 C248 1.387 . S
C247 H250 0.950 . S
C248 C247 1.387 . S
C248 C251 1.387 . S
H249 C245 0.950 . S
H250 C247 0.950 . S
C251 C242 1.390 . S
C251 H244 0.950 . S
C251 C248 1.387 . S
C252 C253 1.387 . S
C252 H256 0.950 1_545 S
C252 C261 1.390 . S
C253 C252 1.387 . S
C253 C255 1.387 . S
H254 C261 0.950 . S
C255 C253 1.387 . S
C255 C257 1.390 . S
C255 H259 0.950 . S
H256 C252 0.950 1_565 S
C257 C255 1.390 . S
C257 C258 1.387 . S
C257 H260 0.950 . S
C258 C257 1.387 . S
C258 C261 1.387 . S
H259 C255 0.950 . S
H260 C257 0.950 . S
C261 C252 1.390 . S
C261 H254 0.950 . S
C261 C258 1.387 . S
C262 C263 1.387 . S
C262 H266 0.950 . S
C262 C271 1.390 . S
C263 C262 1.387 . S
C263 C265 1.387 . S
H264 C271 0.950 . S
C265 C263 1.387 . S
C265 C267 1.390 . S
C265 H269 0.950 . S
H266 C262 0.950 . S
C267 C265 1.390 . S
C267 C268 1.387 . S
C267 H270 0.950 . S
C268 C267 1.387 . S
C268 C271 1.387 . S
H269 C265 0.950 . S
H270 C267 0.950 . S
C271 C262 1.390 . S
C271 H264 0.950 . S
C271 C268 1.387 . S
C272 C273 1.387 . S
C272 H276 0.950 . S
C272 C281 1.390 . S
C273 C272 1.387 . S
C273 C275 1.387 . S
H274 C281 0.950 . S
C275 C273 1.387 . S
C275 C277 1.390 . S
C275 H279 0.950 . S
H276 C272 0.950 . S
C277 C275 1.390 . S
C277 C278 1.387 . S
C277 H280 0.950 . S
C278 C277 1.387 . S
C278 C281 1.387 . S
H279 C275 0.950 . S
H280 C277 0.950 . S
C281 C272 1.390 . S
C281 H274 0.950 . S
C281 C278 1.387 . S
C282 C283 1.387 . S
C282 H286 0.950 . S
C282 C291 1.390 . S
C283 C282 1.387 . S
C283 C285 1.387 . S
H284 C291 0.950 . S
C285 C283 1.387 . S
C285 C287 1.390 . S
C285 H289 0.950 . S
H286 C282 0.950 . S
C287 C285 1.390 . S
C287 C288 1.387 . S
C287 H290 0.950 . S
C288 C287 1.387 . S
C288 C291 1.387 . S
H289 C285 0.950 . S
H290 C287 0.950 . S
C291 C282 1.390 . S
C291 H284 0.950 . S
C291 C288 1.387 . S
C292 C293 1.387 . S
C292 H296 0.950 . S
C292 C301 1.390 . S
C293 C292 1.387 . S
C293 C295 1.387 . S
H294 C301 0.950 . S
C295 C293 1.387 . S
C295 C297 1.390 . S
C295 H299 0.950 . S
H296 C292 0.950 . S
C297 C295 1.390 . S
C297 C298 1.387 . S
C297 H300 0.950 . S
C298 C297 1.387 . S
C298 C301 1.387 . S
H299 C295 0.950 . S
H300 C297 0.950 . S
C301 C292 1.390 . S
C301 H294 0.950 . S
C301 C298 1.387 . S
C302 C303 1.387 . S
C302 H306 0.950 . S
C302 C311 1.390 . S
C303 C302 1.387 . S
C303 C305 1.387 . S
H304 C311 0.950 . S
C305 C303 1.387 . S
C305 C307 1.390 . S
C305 H309 0.950 . S
H306 C302 0.950 . S
C307 C305 1.390 . S
C307 C308 1.387 . S
C307 H310 0.950 . S
C308 C307 1.387 . S
C308 C311 1.387 . S
H309 C305 0.950 . S
H310 C307 0.950 . S
C311 C302 1.390 . S
C311 H304 0.950 . S
C311 C308 1.387 . S
C312 C313 1.387 . S
C312 H316 0.950 . S
C312 C321 1.390 . S
C313 C312 1.387 . S
C313 C315 1.387 . S
H314 C321 0.950 . S
C315 C313 1.387 . S
C315 C317 1.390 . S
C315 H319 0.950 . S
H316 C312 0.950 . S
C317 C315 1.390 . S
C317 C318 1.387 . S
C317 H320 0.950 . S
C318 C317 1.387 . S
C318 C321 1.387 . S
H319 C315 0.950 . S
H320 C317 0.950 . S
C321 C312 1.390 . S
C321 H314 0.950 . S
C321 C318 1.387 . S
C322 C323 1.387 . S
C322 H326 0.950 . S
C322 C331 1.390 . S
C323 C322 1.387 . S
C323 C325 1.387 . S
H324 C331 0.950 . S
C325 C323 1.387 . S
C325 C327 1.390 . S
C325 H329 0.950 . S
H326 C322 0.950 . S
C327 C325 1.390 . S
C327 C328 1.387 . S
C327 H330 0.950 . S
C328 C327 1.387 . S
C328 C331 1.387 . S
H329 C325 0.950 . S
H330 C327 0.950 . S
C331 C322 1.390 . S
C331 H324 0.950 . S
C331 C328 1.387 . S
C332 C333 1.387 . S
C332 H336 0.950 . S
C332 C341 1.390 . S
C333 C332 1.387 . S
C333 C335 1.387 . S
H334 C341 0.950 . S
C335 C333 1.387 . S
C335 C337 1.390 . S
C335 H339 0.950 . S
H336 C332 0.950 . S
C337 C335 1.390 . S
C337 C338 1.387 . S
C337 H340 0.950 . S
C338 C337 1.387 . S
C338 C341 1.387 . S
H339 C335 0.950 . S
H340 C337 0.950 . S
C341 C332 1.390 . S
C341 H334 0.950 . S
C341 C338 1.387 . S
C342 C343 1.387 . S
C342 H346 0.950 . S
C342 C351 1.390 . S
C343 C342 1.387 . S
C343 C345 1.387 . S
H344 C351 0.950 . S
C345 C343 1.387 . S
C345 C347 1.390 . S
C345 H349 0.950 . S
H346 C342 0.950 . S
C347 C345 1.390 . S
C347 C348 1.387 . S
C347 H350 0.950 . S
C348 C347 1.387 . S
C348 C351 1.387 . S
H349 C345 0.950 . S
H350 C347 0.950 . S
C351 C342 1.390 . S
C351 H344 0.950 . S
C351 C348 1.387 . S
C352 C353 1.387 . S
C352 H356 0.950 . S
C352 C361 1.390 . S
C353 C352 1.387 . S
C353 C355 1.387 . S
H354 C361 0.950 . S
C355 C353 1.387 . S
C355 C357 1.390 . S
C355 H359 0.950 . S
H356 C352 0.950 . S
C357 C355 1.390 . S
C357 C358 1.387 . S
C357 H360 0.950 . S
C358 C357 1.387 . S
C358 C361 1.387 . S
H359 C355 0.950 . S
H360 C357 0.950 . S
C361 C352 1.390 . S
C361 H354 0.950 . S
C361 C358 1.387 . S
C362 C363 1.387 . S
C362 H366 0.950 . S
C362 C371 1.390 . S
C363 C362 1.387 . S
C363 C365 1.387 . S
H364 C371 0.950 . S
C365 C363 1.387 . S
C365 C367 1.390 . S
C365 H369 0.950 . S
H366 C362 0.950 . S
C367 C365 1.390 . S
C367 C368 1.387 . S
C367 H370 0.950 . S
C368 C367 1.387 . S
C368 C371 1.387 . S
H369 C365 0.950 . S
H370 C367 0.950 . S
C371 C362 1.390 . S
C371 H364 0.950 . S
C371 C368 1.387 . S
C372 C373 1.387 . S
C372 H376 0.950 . S
C372 C381 1.390 . S
C373 C372 1.387 . S
C373 C375 1.387 . S
H374 C381 0.950 . S
C375 C373 1.387 . S
C375 C377 1.390 . S
C375 H379 0.950 . S
H376 C372 0.950 . S
C377 C375 1.390 . S
C377 C378 1.387 . S
C377 H380 0.950 . S
C378 C377 1.387 . S
C378 C381 1.387 . S
H379 C375 0.950 . S
H380 C377 0.950 . S
C381 C372 1.390 . S
C381 H374 0.950 . S
C381 C378 1.387 . S
C382 C383 1.387 . S
C382 H386 0.950 . S
C382 C391 1.390 . S
C383 C382 1.387 . S
C383 C385 1.387 . S
H384 C391 0.950 . S
C385 C383 1.387 . S
C385 C387 1.390 . S
C385 H389 0.950 . S
H386 C382 0.950 . S
C387 C385 1.390 . S
C387 C388 1.387 . S
C387 H390 0.950 . S
C388 C387 1.387 . S
C388 C391 1.387 . S
H389 C385 0.950 . S
H390 C387 0.950 . S
C391 C382 1.390 . S
C391 H384 0.950 . S
C391 C388 1.387 . S
C392 C393 1.387 . S
C392 H396 0.950 . S
C392 C401 1.390 1_565 S
C393 C392 1.387 . S
C393 C395 1.387 1_565 S
H394 C401 0.950 . S
C395 C393 1.387 1_545 S
C395 C397 1.390 . S
C395 H399 0.950 . S
H396 C392 0.950 . S
C397 C395 1.390 . S
C397 C398 1.387 . S
C397 H400 0.950 . S
C398 C397 1.387 . S
C398 C401 1.387 . S
H399 C395 0.950 . S
H400 C397 0.950 . S
C401 C392 1.390 1_545 S
C401 H394 0.950 . S
C401 C398 1.387 . S
C402 C403 1.387 . S
C402 H406 0.950 . S
C402 C411 1.390 . S
C403 C402 1.387 . S
C403 C405 1.387 . S
H404 C411 0.950 . S
C405 C403 1.387 . S
C405 C407 1.390 . S
C405 H409 0.950 . S
H406 C402 0.950 . S
C407 C405 1.390 . S
C407 C408 1.387 . S
C407 H410 0.950 . S
C408 C407 1.387 . S
C408 C411 1.387 . S
H409 C405 0.950 . S
H410 C407 0.950 . S
C411 C402 1.390 . S
C411 H404 0.950 . S
C411 C408 1.387 . S
C178 C100 1.646 . S
C173 C5 1.517 . S
C188 C103 1.463 . S
C183 C16 1.236 . S
C198 C101 1.699 . S
C193 C30 1.728 . S
C208 C102 1.572 . S
C203 C40 1.534 . S
C218 C117 1.471 . S
C213 C8 1.472 . S
C228 C131 1.401 . S
C223 C18 1.332 . S
C233 C29 1.680 . S
C238 C157 1.703 . S
C248 C171 1.552 . S
C243 C38 1.364 . S
C258 C116 1.454 . S
C253 C19 1.444 1_545 S
C263 C27 1.452 . S
C268 C130 1.573 . S
C278 C156 1.530 . S
C273 C41 1.516 . S
C288 C170 1.621 . S
C283 C7 1.565 . S
C293 C52 1.582 . S
C298 C115 1.618 . S
C308 C88 1.681 . S
C303 C62 1.674 . S
C313 C74 1.441 . S
C318 C114 1.435 . S
C323 C82 1.244 . S
C328 C89 1.479 . S
C338 C144 1.773 . S
C333 C51 1.659 . S
C348 C158 1.651 . S
C343 C60 1.364 . S
C358 C128 1.469 . S
C353 C71 1.280 . S
C363 C84 1.396 . S
C368 C142 1.449 . S
C378 C145 1.624 . S
C373 C63 1.611 . S
C388 C159 1.504 . S
C383 C73 1.478 . S
C398 C129 1.501 . S
C393 C85 1.510 . S
C403 C49 1.300 . S
C408 C143 1.606 . S
