# Generated by pormake.
# Topology eea, (3,6)-cn, num edge types: 1
# Building blocks:
#     Node 0, Type 0, BuildingBlock: OLANEW_clean_sbu_2, # of connection points: 3
#     Node 1, Type 0, BuildingBlock: OLANEW_clean_sbu_2, # of connection points: 3
#     Node 2, Type 0, BuildingBlock: OLANEW_clean_sbu_2, # of connection points: 3
#     Node 3, Type 0, BuildingBlock: OLANEW_clean_sbu_2, # of connection points: 3
#     Node 4, Type 0, BuildingBlock: OLANEW_clean_sbu_2, # of connection points: 3
#     Node 5, Type 0, BuildingBlock: OLANEW_clean_sbu_2, # of connection points: 3
#     Node 6, Type 0, BuildingBlock: OLANEW_clean_sbu_2, # of connection points: 3
#     Node 7, Type 0, BuildingBlock: OLANEW_clean_sbu_2, # of connection points: 3
#     Node 8, Type 0, BuildingBlock: OLANEW_clean_sbu_2, # of connection points: 3
#     Node 9, Type 0, BuildingBlock: OLANEW_clean_sbu_2, # of connection points: 3
#     Node 10, Type 0, BuildingBlock: OLANEW_clean_sbu_2, # of connection points: 3
#     Node 11, Type 0, BuildingBlock: OLANEW_clean_sbu_2, # of connection points: 3
#     Node 12, Type 0, BuildingBlock: OLANEW_clean_sbu_2, # of connection points: 3
#     Node 13, Type 0, BuildingBlock: OLANEW_clean_sbu_2, # of connection points: 3
#     Node 14, Type 0, BuildingBlock: OLANEW_clean_sbu_2, # of connection points: 3
#     Node 15, Type 0, BuildingBlock: OLANEW_clean_sbu_2, # of connection points: 3
#     Node 16, Type 0, BuildingBlock: OLANEW_clean_sbu_2, # of connection points: 3
#     Node 17, Type 0, BuildingBlock: OLANEW_clean_sbu_2, # of connection points: 3
#     Node 18, Type 1, BuildingBlock: KUMBUR_clean_sbu_0, # of connection points: 6
#     Node 19, Type 1, BuildingBlock: KUMBUR_clean_sbu_0, # of connection points: 6
#     Node 20, Type 1, BuildingBlock: KUMBUR_clean_sbu_0, # of connection points: 6
#     Node 21, Type 1, BuildingBlock: KUMBUR_clean_sbu_0, # of connection points: 6
#     Node 22, Type 1, BuildingBlock: KUMBUR_clean_sbu_0, # of connection points: 6
#     Node 23, Type 1, BuildingBlock: KUMBUR_clean_sbu_0, # of connection points: 6
#     Node 24, Type 1, BuildingBlock: KUMBUR_clean_sbu_0, # of connection points: 6
#     Node 25, Type 1, BuildingBlock: KUMBUR_clean_sbu_0, # of connection points: 6
#     Node 26, Type 1, BuildingBlock: KUMBUR_clean_sbu_0, # of connection points: 6
#     Edge 27, Type (0, 1), BuildingBlock: CIFDUS_clean_linker_0, # of connection points: 2
#     Edge 28, Type (0, 1), BuildingBlock: CIFDUS_clean_linker_0, # of connection points: 2
#     Edge 29, Type (0, 1), BuildingBlock: CIFDUS_clean_linker_0, # of connection points: 2
#     Edge 30, Type (0, 1), BuildingBlock: CIFDUS_clean_linker_0, # of connection points: 2
#     Edge 31, Type (0, 1), BuildingBlock: CIFDUS_clean_linker_0, # of connection points: 2
#     Edge 32, Type (0, 1), BuildingBlock: CIFDUS_clean_linker_0, # of connection points: 2
#     Edge 33, Type (0, 1), BuildingBlock: CIFDUS_clean_linker_0, # of connection points: 2
#     Edge 34, Type (0, 1), BuildingBlock: CIFDUS_clean_linker_0, # of connection points: 2
#     Edge 35, Type (0, 1), BuildingBlock: CIFDUS_clean_linker_0, # of connection points: 2
#     Edge 36, Type (0, 1), BuildingBlock: CIFDUS_clean_linker_0, # of connection points: 2
#     Edge 37, Type (0, 1), BuildingBlock: CIFDUS_clean_linker_0, # of connection points: 2
#     Edge 38, Type (0, 1), BuildingBlock: CIFDUS_clean_linker_0, # of connection points: 2
#     Edge 39, Type (0, 1), BuildingBlock: CIFDUS_clean_linker_0, # of connection points: 2
#     Edge 40, Type (0, 1), BuildingBlock: CIFDUS_clean_linker_0, # of connection points: 2
#     Edge 41, Type (0, 1), BuildingBlock: CIFDUS_clean_linker_0, # of connection points: 2
#     Edge 42, Type (0, 1), BuildingBlock: CIFDUS_clean_linker_0, # of connection points: 2
#     Edge 43, Type (0, 1), BuildingBlock: CIFDUS_clean_linker_0, # of connection points: 2
#     Edge 44, Type (0, 1), BuildingBlock: CIFDUS_clean_linker_0, # of connection points: 2
#     Edge 45, Type (0, 1), BuildingBlock: CIFDUS_clean_linker_0, # of connection points: 2
#     Edge 46, Type (0, 1), BuildingBlock: CIFDUS_clean_linker_0, # of connection points: 2
#     Edge 47, Type (0, 1), BuildingBlock: CIFDUS_clean_linker_0, # of connection points: 2
#     Edge 48, Type (0, 1), BuildingBlock: CIFDUS_clean_linker_0, # of connection points: 2
#     Edge 49, Type (0, 1), BuildingBlock: CIFDUS_clean_linker_0, # of connection points: 2
#     Edge 50, Type (0, 1), BuildingBlock: CIFDUS_clean_linker_0, # of connection points: 2
#     Edge 51, Type (0, 1), BuildingBlock: CIFDUS_clean_linker_0, # of connection points: 2
#     Edge 52, Type (0, 1), BuildingBlock: CIFDUS_clean_linker_0, # of connection points: 2
#     Edge 53, Type (0, 1), BuildingBlock: CIFDUS_clean_linker_0, # of connection points: 2
#     Edge 54, Type (0, 1), BuildingBlock: CIFDUS_clean_linker_0, # of connection points: 2
#     Edge 55, Type (0, 1), BuildingBlock: CIFDUS_clean_linker_0, # of connection points: 2
#     Edge 56, Type (0, 1), BuildingBlock: CIFDUS_clean_linker_0, # of connection points: 2
#     Edge 57, Type (0, 1), BuildingBlock: CIFDUS_clean_linker_0, # of connection points: 2
#     Edge 58, Type (0, 1), BuildingBlock: CIFDUS_clean_linker_0, # of connection points: 2
#     Edge 59, Type (0, 1), BuildingBlock: CIFDUS_clean_linker_0, # of connection points: 2
#     Edge 60, Type (0, 1), BuildingBlock: CIFDUS_clean_linker_0, # of connection points: 2
#     Edge 61, Type (0, 1), BuildingBlock: CIFDUS_clean_linker_0, # of connection points: 2
#     Edge 62, Type (0, 1), BuildingBlock: CIFDUS_clean_linker_0, # of connection points: 2
#     Edge 63, Type (0, 1), BuildingBlock: CIFDUS_clean_linker_0, # of connection points: 2
#     Edge 64, Type (0, 1), BuildingBlock: CIFDUS_clean_linker_0, # of connection points: 2
#     Edge 65, Type (0, 1), BuildingBlock: CIFDUS_clean_linker_0, # of connection points: 2
#     Edge 66, Type (0, 1), BuildingBlock: CIFDUS_clean_linker_0, # of connection points: 2
#     Edge 67, Type (0, 1), BuildingBlock: CIFDUS_clean_linker_0, # of connection points: 2
#     Edge 68, Type (0, 1), BuildingBlock: CIFDUS_clean_linker_0, # of connection points: 2
#     Edge 69, Type (0, 1), BuildingBlock: CIFDUS_clean_linker_0, # of connection points: 2
#     Edge 70, Type (0, 1), BuildingBlock: CIFDUS_clean_linker_0, # of connection points: 2
#     Edge 71, Type (0, 1), BuildingBlock: CIFDUS_clean_linker_0, # of connection points: 2
#     Edge 72, Type (0, 1), BuildingBlock: CIFDUS_clean_linker_0, # of connection points: 2
#     Edge 73, Type (0, 1), BuildingBlock: CIFDUS_clean_linker_0, # of connection points: 2
#     Edge 74, Type (0, 1), BuildingBlock: CIFDUS_clean_linker_0, # of connection points: 2
#     Edge 75, Type (0, 1), BuildingBlock: CIFDUS_clean_linker_0, # of connection points: 2
#     Edge 76, Type (0, 1), BuildingBlock: CIFDUS_clean_linker_0, # of connection points: 2
#     Edge 77, Type (0, 1), BuildingBlock: CIFDUS_clean_linker_0, # of connection points: 2
#     Edge 78, Type (0, 1), BuildingBlock: CIFDUS_clean_linker_0, # of connection points: 2
#     Edge 79, Type (0, 1), BuildingBlock: CIFDUS_clean_linker_0, # of connection points: 2
#     Edge 80, Type (0, 1), BuildingBlock: CIFDUS_clean_linker_0, # of connection points: 2
# Relax obj value: 0.012
# Max RMSD: 0.165
# Mean RMSD: 0.114
data_MOF--net-eea--node1-OLANEW_clean_sbu_2--node2-KUMBUR_clean_sbu_0--edge1-CIFDUS_clean_linker_0
_symmetry_space_group_name_H-M    P1
_symmetry_Int_Tables_number       1
_symmetry_cell_setting            triclinic
loop_
_symmetry_equiv_pos_as_xyz
'x, y, z'
_cell_length_a     53.579968
_cell_length_b     53.223616
_cell_length_c     62.08067
_cell_angle_alpha  94.430402
_cell_angle_beta   90.209455
_cell_angle_gamma 120.83352
loop_
_atom_site_label
_atom_site_type_symbol
_atom_site_fract_x
_atom_site_fract_y
_atom_site_fract_z
_atom_type_partial_charge
O0 O 0.23405 0.13631 0.44289 0.0
Cd1 Cd 0.2024 0.12086 0.41003 0.0
O2 O 0.25936 0.11924 0.42644 0.0
Cd3 Cd 0.22882 0.09409 0.39904 0.0
O4 O 0.21314 0.04933 0.38517 0.0
C5 C 0.18794 0.03053 0.37699 0.0
O6 O 0.1682 0.03798 0.37513 0.0
C7 C 0.25589 0.13292 0.44275 0.0
C8 C 0.191 0.16346 0.39772 0.0
O9 O 0.17218 0.14184 0.40761 0.0
O10 O 0.21524 0.16511 0.39383 0.0
O11 O 0.93356 0.16796 0.45468 0.0
Cd12 Cd 0.94278 0.14847 0.42047 0.0
O13 O 0.89116 0.12872 0.44681 0.0
Cd14 Cd 0.84636 0.09386 0.45036 0.0
O15 O 0.80919 0.05095 0.43947 0.0
C16 C 0.81545 0.03558 0.42648 0.0
O17 O 0.84271 0.04643 0.42152 0.0
C18 C 0.9073 0.15162 0.45943 0.0
C19 C 0.99303 0.1881 0.40116 0.0
O20 O 0.96935 0.18826 0.3987 0.0
O21 O 0.99302 0.16936 0.41295 0.0
O22 O 0.90247 0.74734 0.43084 0.0
Cd23 Cd 0.91869 0.76827 0.39579 0.0
O24 O 0.86412 0.75145 0.43863 0.0
Cd25 Cd 0.85564 0.77051 0.41099 0.0
O26 O 0.82525 0.77894 0.39273 0.0
C27 C 0.83068 0.80447 0.38911 0.0
O28 O 0.85619 0.82734 0.39558 0.0
C29 C 0.88227 0.7437 0.4434 0.0
C30 C 0.9753 0.78121 0.38541 0.0
O31 O 0.9708 0.80121 0.39384 0.0
O32 O 0.9533 0.75503 0.38216 0.0
O33 O 0.15191 0.26393 0.58421 0.0
Cd34 Cd 0.14623 0.24417 0.61976 0.0
O35 O 0.10771 0.25639 0.57775 0.0
Cd36 Cd 0.08307 0.23707 0.60639 0.0
O37 O 0.04397 0.2268 0.62465 0.0
C38 C 0.04058 0.24844 0.6298 0.0
O39 O 0.06091 0.27463 0.62502 0.0
C40 C 0.13366 0.26562 0.57207 0.0
C41 C 0.19346 0.23899 0.63381 0.0
O42 O 0.17044 0.21678 0.62456 0.0
O43 O 0.19432 0.26356 0.63624 0.0
O44 O 0.72126 0.82623 0.59154 0.0
Cd45 Cd 0.745 0.8382 0.62759 0.0
O46 O 0.74349 0.87333 0.58824 0.0
Cd47 Cd 0.75276 0.91439 0.57571 0.0
O48 O 0.76675 0.96073 0.58229 0.0
C49 C 0.7689 0.9685 0.6024 0.0
O50 O 0.76245 0.94861 0.61609 0.0
C51 C 0.72571 0.84712 0.58048 0.0
C52 C 0.7637 0.79998 0.63663 0.0
O53 O 0.73711 0.79284 0.63852 0.0
O54 O 0.78163 0.82532 0.63047 0.0
O55 O 0.12079 0.83835 0.59912 0.0
Cd56 Cd 0.1091 0.8507 0.63502 0.0
O57 O 0.12305 0.87571 0.58438 0.0
Cd58 Cd 0.12313 0.89918 0.61471 0.0
O59 O 0.1531 0.94275 0.6307 0.0
C60 C 0.14582 0.96031 0.63936 0.0
O61 O 0.1181 0.95171 0.64029 0.0
C62 C 0.12391 0.85221 0.58259 0.0
C63 C 0.05543 0.80505 0.64652 0.0
O64 O 0.05742 0.82748 0.63853 0.0
O65 O 0.07879 0.80439 0.64929 0.0
O66 O 0.90423 0.47391 0.7833 0.0
Cd67 Cd 0.8692 0.45148 0.75206 0.0
O68 O 0.94139 0.48954 0.76232 0.0
Cd69 Cd 0.91369 0.46185 0.73426 0.0
O70 O 0.89071 0.41672 0.71929 0.0
C71 C 0.89818 0.40054 0.72797 0.0
O72 O 0.91802 0.41236 0.74402 0.0
C73 C 0.93159 0.48837 0.78109 0.0
C74 C 0.8583 0.4914 0.73366 0.0
O75 O 0.84023 0.47323 0.74621 0.0
O76 O 0.88147 0.49078 0.72985 0.0
O77 O 0.5987 0.48529 0.77381 0.0
Cd78 Cd 0.6068 0.46828 0.738 0.0
O79 O 0.57948 0.44151 0.78561 0.0
Cd80 Cd 0.57924 0.41847 0.75505 0.0
O81 O 0.54727 0.37929 0.73509 0.0
C82 C 0.52115 0.37074 0.73965 0.0
O83 O 0.51639 0.38631 0.75474 0.0
C84 C 0.58739 0.4685 0.78889 0.0
C85 C 0.65882 0.50912 0.72072 0.0
O86 O 0.63581 0.51062 0.71882 0.0
O87 O 0.65734 0.48836 0.73088 0.0
O88 O 0.56185 0.08847 0.76504 0.0
Cd89 Cd 0.5795 0.11208 0.73126 0.0
O90 O 0.52359 0.09293 0.77201 0.0
Cd91 Cd 0.51769 0.11362 0.7446 0.0
O92 O 0.48621 0.12177 0.72808 0.0
C93 C 0.49123 0.14721 0.72472 0.0
O94 O 0.5171 0.17016 0.73019 0.0
C95 C 0.54103 0.08445 0.777 0.0
C96 C 0.6331 0.11755 0.72048 0.0
O97 O 0.63222 0.13925 0.73011 0.0
O98 O 0.60888 0.09347 0.71596 0.0
O99 O 0.81443 0.58174 0.92299 0.0
Cd100 Cd 0.8025 0.55926 0.95742 0.0
O101 O 0.77442 0.58087 0.91241 0.0
Cd102 Cd 0.74529 0.56087 0.93898 0.0
O103 O 0.70521 0.54947 0.95621 0.0
C104 C 0.69999 0.57012 0.96013 0.0
O105 O 0.71912 0.5964 0.95467 0.0
C106 C 0.8005 0.58732 0.90935 0.0
C107 C 0.84102 0.54065 0.96878 0.0
O108 O 0.81602 0.5226 0.95942 0.0
O109 O 0.84789 0.56747 0.97284 0.0
O110 O 0.42067 0.20587 0.92359 0.0
Cd111 Cd 0.44638 0.21924 0.95927 0.0
O112 O 0.45863 0.21824 0.90389 0.0
Cd113 Cd 0.48623 0.24361 0.93261 0.0
O114 O 0.49578 0.28184 0.95468 0.0
C115 C 0.47655 0.289 0.95359 0.0
O116 O 0.45358 0.27283 0.94036 0.0
C117 C 0.4313 0.2068 0.90517 0.0
C118 C 0.46451 0.18074 0.96993 0.0
O119 O 0.43811 0.17426 0.9719 0.0
O120 O 0.48246 0.20541 0.96282 0.0
O121 O 0.75241 0.19141 0.91225 0.0
Cd122 Cd 0.74061 0.20755 0.94698 0.0
O123 O 0.79677 0.20804 0.92563 0.0
Cd124 Cd 0.79501 0.23167 0.9552 0.0
O125 O 0.82353 0.2768 0.96895 0.0
C126 C 0.83264 0.29573 0.95518 0.0
O127 O 0.82279 0.28694 0.93494 0.0
C128 C 0.77759 0.19489 0.91019 0.0
C129 C 0.68773 0.16642 0.96313 0.0
O130 O 0.71077 0.16517 0.96597 0.0
O131 O 0.68955 0.1869 0.95241 0.0
O132 O 0.56552 0.81568 0.11437 0.0
Cd133 Cd 0.53288 0.80022 0.08205 0.0
O134 O 0.58252 0.79485 0.09238 0.0
Cd135 Cd 0.60759 0.77538 0.08034 0.0
O136 O 0.6042 0.73427 0.06835 0.0
C137 C 0.57975 0.71583 0.05885 0.0
O138 O 0.56036 0.72368 0.0565 0.0
C139 C 0.58334 0.80692 0.11109 0.0
C140 C 0.52064 0.84092 0.06738 0.0
O141 O 0.50271 0.82094 0.07893 0.0
O142 O 0.54463 0.8421 0.06329 0.0
O143 O 0.22336 0.84243 0.08829 0.0
Cd144 Cd 0.23487 0.83395 0.05122 0.0
O145 O 0.22262 0.80375 0.09924 0.0
Cd146 Cd 0.22127 0.78366 0.06705 0.0
O147 O 0.18811 0.7399 0.05326 0.0
C148 C 0.18211 0.73043 0.0334 0.0
O149 O 0.19749 0.74769 0.01861 0.0
C150 C 0.22112 0.82667 0.10341 0.0
C151 C 0.28983 0.87891 0.04109 0.0
O152 O 0.26735 0.88135 0.03925 0.0
O153 O 0.28637 0.85512 0.04765 0.0
O154 O 0.2197 0.4004 0.10397 0.0
Cd155 Cd 0.23852 0.4223 0.06951 0.0
O156 O 0.17653 0.39592 0.099 0.0
Cd157 Cd 0.17671 0.41727 0.07002 0.0
O158 O 0.14804 0.42699 0.05121 0.0
C159 C 0.14623 0.4495 0.05685 0.0
O160 O 0.16332 0.46794 0.07299 0.0
C161 C 0.194 0.39173 0.11001 0.0
C162 C 0.29745 0.44308 0.06104 0.0
O163 O 0.28926 0.46018 0.06969 0.0
O164 O 0.27805 0.41582 0.05704 0.0
O165 O 0.48993 0.92371 0.25088 0.0
Cd166 Cd 0.48276 0.89942 0.28452 0.0
O167 O 0.44925 0.92391 0.24418 0.0
Cd168 Cd 0.42078 0.90284 0.27092 0.0
O169 O 0.38051 0.89084 0.28824 0.0
C170 C 0.37402 0.91071 0.29129 0.0
O171 O 0.392 0.93677 0.2849 0.0
C172 C 0.47479 0.93022 0.23918 0.0
C173 C 0.53072 0.8942 0.29666 0.0
O174 O 0.50821 0.87262 0.28637 0.0
O175 O 0.53063 0.91806 0.30116 0.0
O176 O 0.09505 0.53047 0.25189 0.0
Cd177 Cd 0.12198 0.5458 0.28719 0.0
O178 O 0.13335 0.54957 0.23208 0.0
Cd179 Cd 0.15854 0.57757 0.26084 0.0
O180 O 0.1613 0.61599 0.27878 0.0
C181 C 0.14112 0.62075 0.27377 0.0
O182 O 0.12072 0.60233 0.25924 0.0
C183 C 0.10594 0.53404 0.2334 0.0
C184 C 0.14 0.50778 0.29947 0.0
O185 O 0.11392 0.50204 0.30199 0.0
O186 O 0.15765 0.53141 0.29095 0.0
O187 O 0.40353 0.51174 0.22823 0.0
Cd188 Cd 0.38556 0.5331 0.25592 0.0
O189 O 0.43839 0.53022 0.25317 0.0
Cd190 Cd 0.47984 0.54724 0.27103 0.0
O191 O 0.5143 0.5869 0.28888 0.0
C192 C 0.52353 0.61009 0.27929 0.0
O193 O 0.51318 0.60788 0.25956 0.0
C194 C 0.42875 0.51751 0.23424 0.0
C195 C 0.3408 0.4929 0.27946 0.0
O196 O 0.33553 0.50443 0.264 0.0
O197 O 0.36718 0.50002 0.28361 0.0
Tb198 Tb 0.48605 0.98917 0.98232 0.0
C199 C 0.55134 0.09995 0.04595 0.0
C200 C 0.60175 0.11337 0.04595 0.0
C201 C 0.58946 0.15135 0.05194 0.0
C202 C 0.57186 0.09196 0.04351 0.0
C203 C 0.55974 0.12966 0.0506 0.0
C204 C 0.61046 0.1432 0.04963 0.0
C205 C 0.50898 0.11387 0.05393 0.0
N206 N 0.52301 0.07828 0.0447 0.0
C207 C 0.50181 0.08469 0.04942 0.0
C208 C 0.53806 0.13651 0.05427 0.0
Tb209 Tb 0.513 0.03138 0.0351 0.0
N210 N 0.56241 0.06293 0.04007 0.0
C211 C 0.58192 0.05366 0.04094 0.0
C212 C 0.62186 0.10404 0.04537 0.0
C213 C 0.61185 0.07402 0.04328 0.0
H214 H 0.47924 0.0674 0.0489 0.0
H215 H 0.62718 0.0665 0.04334 0.0
H216 H 0.63333 0.16003 0.05129 0.0
H217 H 0.49206 0.11887 0.05708 0.0
H218 H 0.57477 0.03062 0.03922 0.0
H219 H 0.37123 0.9512 0.97365 0.0
H220 H 0.64504 0.11976 0.04715 0.0
H221 H 0.5219 0.9546 0.96963 0.0
H222 H 0.42328 0.98796 0.9792 0.0
H223 H 0.51039 0.90396 0.96012 0.0
H224 H 0.59641 0.17436 0.05529 0.0
H225 H 0.35484 0.8984 0.96741 0.0
H226 H 0.36802 0.85936 0.9618 0.0
H227 H 0.54357 0.15908 0.05784 0.0
H228 H 0.40597 0.84648 0.95803 0.0
N229 N 0.43688 0.95663 0.97676 0.0
C230 C 0.41675 0.96514 0.97646 0.0
C231 C 0.37786 0.91452 0.96983 0.0
C232 C 0.3986 0.90602 0.96894 0.0
C233 C 0.38703 0.94428 0.9733 0.0
C234 C 0.42827 0.92791 0.97232 0.0
H235 H 0.45916 0.86302 0.95712 0.0
N236 N 0.4776 0.94278 0.97261 0.0
C237 C 0.493 0.90833 0.96299 0.0
C238 C 0.44942 0.9207 0.97017 0.0
C239 C 0.49942 0.93712 0.96833 0.0
C240 C 0.46407 0.88528 0.96136 0.0
C241 C 0.44181 0.89135 0.96465 0.0
O242 O 0.50971 0.99916 0.95418 0.0
O243 O 0.52123 0.02581 1.00174 0.0
O244 O 0.50939 0.05918 0.01256 0.0
O245 O 0.47396 0.02307 0.9877 0.0
O246 O 0.5322 0.00375 0.97916 0.0
O247 O 0.47022 0.00033 0.95571 0.0
O248 O 0.49373 0.0272 0.06521 0.0
O249 O 0.47779 0.99565 0.0155 0.0
O250 O 0.48849 0.96088 0.00489 0.0
O251 O 0.52436 0.99701 0.02955 0.0
O252 O 0.46665 0.01592 0.03931 0.0
O253 O 0.52534 0.01417 0.05955 0.0
C254 C 0.54264 0.02552 0.99375 0.0
C255 C 0.48372 0.99028 0.92123 0.0
C256 C 0.48757 0.99722 0.88269 0.0
C257 C 0.49188 0.00884 0.90443 0.0
C258 C 0.47463 0.96671 0.87797 0.0
C259 C 0.47052 0.95985 0.91623 0.0
C260 C 0.46596 0.94816 0.89467 0.0
C261 C 0.4886 0.05033 0.99721 0.0
C262 C 0.49133 0.00341 0.94372 0.0
C263 C 0.41229 0.8692 0.96211 0.0
C264 C 0.3907 0.87654 0.96426 0.0
C265 C 0.45625 0.99483 0.02418 0.0
C266 C 0.52111 0.02817 0.09565 0.0
C267 C 0.50846 0.01028 0.11265 0.0
C268 C 0.52097 0.01981 0.13388 0.0
C269 C 0.54628 0.04769 0.13781 0.0
C270 C 0.5462 0.05596 0.09993 0.0
C271 C 0.55867 0.06563 0.12095 0.0
C272 C 0.50897 0.9696 0.02046 0.0
C273 C 0.50851 0.01672 0.0735 0.0
H274 H 0.50236 0.0324 0.9083 0.0
H275 H 0.47095 0.95721 0.86136 0.0
H276 H 0.4642 0.94524 0.92895 0.0
H277 H 0.4559 0.92467 0.89088 0.0
H278 H 0.48922 0.98866 0.10924 0.0
H279 H 0.55628 0.05577 0.15398 0.0
H280 H 0.55623 0.06999 0.08703 0.0
H281 H 0.57807 0.08709 0.12419 0.0
Tb282 Tb 0.01798 0.50991 0.98522 0.0
C283 C 0.92343 0.48031 0.04554 0.0
C284 C 0.9118 0.51812 0.04204 0.0
C285 C 0.87377 0.46919 0.04953 0.0
C286 C 0.93196 0.50857 0.04146 0.0
C287 C 0.89451 0.46058 0.05054 0.0
C288 C 0.88242 0.49797 0.04527 0.0
C289 C 0.91007 0.4277 0.06089 0.0
N290 N 0.94433 0.47327 0.04695 0.0
C291 C 0.93854 0.4483 0.05609 0.0
C292 C 0.8878 0.43357 0.05763 0.0
Tb293 Tb 0.99019 0.50794 0.03802 0.0
N294 N 0.96058 0.52734 0.03869 0.0
C295 C 0.97089 0.55667 0.03799 0.0
C296 C 0.92202 0.54786 0.04027 0.0
C297 C 0.9518 0.56733 0.03873 0.0
H298 H 0.95578 0.44388 0.05888 0.0
H299 H 0.96003 0.59048 0.03778 0.0
H300 H 0.86648 0.50474 0.04539 0.0
H301 H 0.90537 0.40744 0.06726 0.0
H302 H 0.99374 0.57198 0.03648 0.0
H303 H 0.96666 0.42057 0.9222 0.0
H304 H 0.90728 0.55613 0.04067 0.0
H305 H 0.08621 0.54631 0.00578 0.0
H306 H 0.97301 0.46343 0.94554 0.0
H307 H 0.12831 0.53965 0.00646 0.0
H308 H 0.85131 0.45421 0.05297 0.0
H309 H 0.00259 0.40474 0.92518 0.0
H310 H 0.05057 0.41489 0.94115 0.0
H311 H 0.86584 0.41777 0.06164 0.0
H312 H 0.09508 0.44784 0.96395 0.0
N313 N 0.01064 0.47013 0.96283 0.0
C314 C 0.98842 0.45627 0.94726 0.0
C315 C 0.00516 0.42323 0.93569 0.0
C316 C 0.02939 0.43935 0.95015 0.0
C317 C 0.98487 0.43211 0.93393 0.0
C318 C 0.03165 0.46319 0.96344 0.0
H319 H 0.12466 0.49498 0.98787 0.0
N320 N 0.05834 0.50552 0.98722 0.0
C321 C 0.10819 0.52307 0.9979 0.0
C322 C 0.05652 0.48167 0.97608 0.0
C323 C 0.08414 0.52676 0.99745 0.0
C324 C 0.10603 0.49781 0.98745 0.0
C325 C 0.08011 0.47693 0.97602 0.0
O326 O 0.05178 0.54052 0.96737 0.0
O327 O 0.99199 0.52158 0.00585 0.0
O328 O 0.9594 0.46706 0.01851 0.0
O329 O 0.98667 0.46368 0.99002 0.0
O330 O 0.97471 0.50015 0.97552 0.0
O331 O 0.00733 0.5241 0.95771 0.0
O332 O 0.00654 0.50121 0.06661 0.0
O333 O 0.02429 0.50791 0.01927 0.0
O334 O 0.04565 0.55349 1.00208 0.0
O335 O 0.02612 0.55301 0.03567 0.0
O336 O 0.00428 0.47643 0.04055 0.0
O337 O 0.99795 0.53613 0.06627 0.0
C338 C 0.96997 0.51162 0.99279 0.0
C339 C 0.03919 0.5315 0.92972 0.0
C340 C 0.02362 0.52016 0.89134 0.0
C341 C 0.02004 0.52823 0.91271 0.0
C342 C 0.04696 0.51578 0.88714 0.0
C343 C 0.0623 0.5269 0.92512 0.0
C344 C 0.06614 0.51918 0.90394 0.0
C345 C 0.96366 0.45237 1.00214 0.0
C346 C 0.03405 0.5386 0.95214 0.0
C347 C 0.07737 0.45212 0.96396 0.0
C348 C 0.05202 0.43333 0.95101 0.0
C349 C 0.02444 0.48656 0.02693 0.0
C350 C 0.99069 0.51327 0.09872 0.0
C351 C 0.00679 0.51521 0.11734 0.0
C352 C 0.99299 0.50541 0.13684 0.0
C353 C 0.96261 0.4931 0.13709 0.0
C354 C 0.96073 0.50222 0.09976 0.0
C355 C 0.94676 0.49188 0.11876 0.0
C356 C 0.04543 0.5664 0.02106 0.0
C357 C 0.00525 0.52174 0.07821 0.0
H358 H 0.00225 0.53186 0.91615 0.0
H359 H 0.05006 0.50912 0.87092 0.0
H360 H 0.07728 0.52898 0.93787 0.0
H361 H 0.08388 0.5155 0.90055 0.0
H362 H 0.0301 0.52477 0.11657 0.0
H363 H 0.95094 0.4844 0.15145 0.0
H364 H 0.94808 0.50145 0.08592 0.0
H365 H 0.92351 0.48283 0.11928 0.0
Tb366 Tb 0.51062 0.48945 0.03619 0.0
C367 C 0.4463 0.52329 0.97726 0.0
C368 C 0.3953 0.48917 0.98211 0.0
C369 C 0.41121 0.53909 0.97432 0.0
C370 C 0.42441 0.49587 0.982 0.0
C371 C 0.43982 0.54496 0.97272 0.0
C372 C 0.38896 0.51122 0.97901 0.0
C373 C 0.48951 0.57525 0.9629 0.0
N374 N 0.47369 0.52807 0.97576 0.0
C375 C 0.49488 0.55307 0.96746 0.0
C376 C 0.46203 0.57143 0.96594 0.0
Tb377 Tb 0.47983 0.49028 0.98484 0.0
N378 N 0.4313 0.47502 0.9846 0.0
C379 C 0.40969 0.44626 0.98493 0.0
C380 C 0.3733 0.46019 0.98426 0.0
C381 C 0.38048 0.43851 0.98508 0.0
H382 H 0.51623 0.55653 0.9648 0.0
H383 H 0.36355 0.41583 0.98597 0.0
H384 H 0.36679 0.50661 0.97938 0.0
H385 H 0.50659 0.59528 0.95699 0.0
H386 H 0.41472 0.42914 0.9855 0.0
H387 H 0.6265 0.56939 0.03968 0.0
H388 H 0.35067 0.45412 0.98442 0.0
H389 H 0.47415 0.42023 0.05023 0.0
H390 H 0.57494 0.55373 0.03759 0.0
H391 H 0.48594 0.3827 0.05847 0.0
H392 H 0.40587 0.55559 0.97119 0.0
H393 H 0.64149 0.53299 0.04305 0.0
H394 H 0.62739 0.48112 0.04764 0.0
H395 H 0.45793 0.58862 0.9623 0.0
H396 H 0.58928 0.43046 0.05281 0.0
N397 N 0.55979 0.50814 0.03873 0.0
C398 C 0.58063 0.53727 0.03891 0.0
C399 C 0.61855 0.5258 0.04203 0.0
C400 C 0.59728 0.4963 0.04329 0.0
C401 C 0.61018 0.54641 0.04018 0.0
C402 C 0.56767 0.488 0.04175 0.0
H403 H 0.53668 0.39377 0.05722 0.0
N404 N 0.51786 0.45212 0.04388 0.0
C405 C 0.50302 0.40406 0.05446 0.0
C406 C 0.54614 0.45925 0.04452 0.0
C407 C 0.49648 0.42543 0.04995 0.0
C408 C 0.53169 0.41038 0.05368 0.0
C409 C 0.55373 0.43837 0.04908 0.0
O410 O 0.48718 0.47184 0.06359 0.0
O411 O 0.47022 0.47515 0.0168 0.0
O412 O 0.49065 0.53049 0.0053 0.0
O413 O 0.52545 0.53517 0.03085 0.0
O414 O 0.47509 0.49557 0.04683 0.0
O415 O 0.52902 0.5134 0.06615 0.0
O416 O 0.4992 0.47908 0.9591 0.0
O417 O 0.51705 0.49573 0.0026 0.0
O418 O 0.50199 0.45066 0.01468 0.0
O419 O 0.4646 0.44512 0.99231 0.0
O420 O 0.52529 0.52168 0.97805 0.0
O421 O 0.45593 0.47048 0.95521 0.0
C422 C 0.45775 0.48348 0.03024 0.0
C423 C 0.5137 0.48667 0.09732 0.0
C424 C 0.50207 0.48009 0.13518 0.0
C425 C 0.49596 0.48482 0.11438 0.0
C426 C 0.52607 0.47671 0.13866 0.0
C427 C 0.53751 0.48311 0.10092 0.0
C428 C 0.54351 0.47796 0.12153 0.0
C429 C 0.51164 0.54585 0.02056 0.0
C430 C 0.50718 0.49375 0.07645 0.0
C431 C 0.58308 0.4463 0.04959 0.0
C432 C 0.60479 0.47516 0.04666 0.0
C433 C 0.53751 0.5155 0.99293 0.0
C434 C 0.48515 0.48528 0.92494 0.0
C435 C 0.50183 0.47921 0.91041 0.0
C436 C 0.50926 0.49212 0.89066 0.0
C437 C 0.50001 0.5116 0.88586 0.0
C438 C 0.47611 0.50472 0.91973 0.0
C439 C 0.48366 0.51787 0.90035 0.0
C440 C 0.48065 0.43506 0.99983 0.0
C441 C 0.47768 0.47141 0.94548 0.0
H442 H 0.47788 0.48814 0.1116 0.0
H443 H 0.53129 0.47309 0.15456 0.0
H444 H 0.55159 0.48471 0.08799 0.0
H445 H 0.56196 0.47533 0.12432 0.0
H446 H 0.50905 0.46446 0.91459 0.0
H447 H 0.50477 0.52148 0.87067 0.0
H448 H 0.46311 0.50971 0.93055 0.0
H449 H 0.47651 0.53274 0.89643 0.0
Tb450 Tb 0.16008 0.31758 0.32184 0.0
C451 C 0.22985 0.43227 0.38071 0.0
C452 C 0.27979 0.4448 0.37794 0.0
C453 C 0.26858 0.48355 0.38404 0.0
C454 C 0.24981 0.4237 0.37735 0.0
C455 C 0.23889 0.46225 0.38452 0.0
C456 C 0.28904 0.47483 0.38077 0.0
C457 C 0.18893 0.44758 0.3907 0.0
N458 N 0.20154 0.41095 0.38124 0.0
C459 C 0.18113 0.41812 0.38696 0.0
C460 C 0.21789 0.46978 0.38923 0.0
Tb461 Tb 0.19026 0.36338 0.37293 0.0
N462 N 0.23987 0.39452 0.37487 0.0
C463 C 0.25916 0.38491 0.37475 0.0
C464 C 0.29953 0.43503 0.37646 0.0
C465 C 0.28917 0.40494 0.37528 0.0
H466 H 0.15863 0.40118 0.38791 0.0
H467 H 0.30426 0.39712 0.37462 0.0
H468 H 0.31196 0.49141 0.38104 0.0
H469 H 0.17258 0.45313 0.39469 0.0
H470 H 0.25166 0.36179 0.37363 0.0
H471 H 0.04554 0.28162 0.31651 0.0
H472 H 0.32276 0.45049 0.37684 0.0
H473 H 0.19363 0.28074 0.30937 0.0
H474 H 0.09796 0.3177 0.3188 0.0
H475 H 0.18074 0.22912 0.30315 0.0
H476 H 0.276 0.50674 0.38674 0.0
H477 H 0.02795 0.22845 0.31437 0.0
H478 H 0.03983 0.18829 0.31125 0.0
H479 H 0.2239 0.49257 0.39222 0.0
H480 H 0.07673 0.17393 0.30739 0.0
N481 N 0.1106 0.28569 0.31847 0.0
C482 C 0.09089 0.29471 0.31777 0.0
C483 C 0.05113 0.24427 0.31533 0.0
C484 C 0.07134 0.23508 0.31469 0.0
C485 C 0.06097 0.27423 0.31647 0.0
C486 C 0.10123 0.25662 0.31605 0.0
H487 H 0.1294 0.18905 0.30403 0.0
N488 N 0.15005 0.27027 0.31416 0.0
C489 C 0.16391 0.23428 0.30618 0.0
C490 C 0.12174 0.24858 0.31373 0.0
C491 C 0.17111 0.26358 0.30962 0.0
C492 C 0.13492 0.21172 0.30674 0.0
C493 C 0.11333 0.21874 0.31023 0.0
O494 O 0.18109 0.32248 0.29254 0.0
O495 O 0.19619 0.35509 0.33956 0.0
O496 O 0.18468 0.38964 0.35002 0.0
O497 O 0.14898 0.35235 0.32578 0.0
O498 O 0.20602 0.3314 0.31796 0.0
O499 O 0.1446 0.32881 0.29521 0.0
O500 O 0.17218 0.3604 0.4034 0.0
O501 O 0.15387 0.32677 0.35499 0.0
O502 O 0.16283 0.29078 0.34551 0.0
O503 O 0.20016 0.32768 0.36872 0.0
O504 O 0.14454 0.34948 0.3781 0.0
O505 O 0.20543 0.34961 0.3981 0.0
C506 C 0.21729 0.35444 0.33144 0.0
C507 C 0.15283 0.31333 0.26061 0.0
C508 C 0.15526 0.31529 0.22139 0.0
C509 C 0.16536 0.32892 0.24251 0.0
C510 C 0.13265 0.28567 0.21872 0.0
C511 C 0.1304 0.28383 0.2576 0.0
C512 C 0.12042 0.2701 0.23671 0.0
C513 C 0.16369 0.37997 0.33468 0.0
C514 C 0.16359 0.32828 0.28243 0.0
C515 C 0.08367 0.19702 0.30987 0.0
C516 C 0.06268 0.20519 0.31209 0.0
C517 C 0.13308 0.32744 0.36372 0.0
C518 C 0.2021 0.3661 0.43369 0.0
C519 C 0.19326 0.34917 0.45151 0.0
C520 C 0.20659 0.36165 0.47227 0.0
C521 C 0.22876 0.39146 0.47486 0.0
C522 C 0.22417 0.39575 0.43664 0.0
C523 C 0.23737 0.40833 0.45718 0.0
C524 C 0.18381 0.29981 0.36068 0.0
C525 C 0.18862 0.3521 0.41211 0.0
H526 H 0.18257 0.35181 0.2449 0.0
H527 H 0.12456 0.27446 0.2027 0.0
H528 H 0.12062 0.27149 0.27134 0.0
H529 H 0.1031 0.2473 0.23444 0.0
H530 H 0.1764 0.32615 0.44911 0.0
H531 H 0.23924 0.40183 0.49063 0.0
H532 H 0.23125 0.40905 0.42309 0.0
H533 H 0.25439 0.43125 0.4594 0.0
Tb534 Tb 0.69076 0.83909 0.31562 0.0
C535 C 0.58239 0.7923 0.369 0.0
C536 C 0.57003 0.82999 0.36891 0.0
C537 C 0.53188 0.77915 0.37108 0.0
C538 C 0.59076 0.82118 0.36779 0.0
C539 C 0.55299 0.77097 0.37135 0.0
C540 C 0.54041 0.80867 0.36986 0.0
C541 C 0.5682 0.73627 0.37687 0.0
N542 N 0.60356 0.78563 0.3697 0.0
C543 C 0.59709 0.7584 0.37473 0.0
C544 C 0.54596 0.74244 0.37481 0.0
Tb545 Tb 0.65015 0.82247 0.36446 0.0
N546 N 0.6196 0.84095 0.36723 0.0
C547 C 0.62935 0.8704 0.36972 0.0
C548 C 0.57982 0.85999 0.36992 0.0
C549 C 0.60966 0.8803 0.37078 0.0
H550 H 0.61415 0.75345 0.37637 0.0
H551 H 0.61755 0.90361 0.37209 0.0
H552 H 0.52408 0.81492 0.37042 0.0
H553 H 0.56313 0.7145 0.38015 0.0
H554 H 0.65226 0.88654 0.3702 0.0
H555 H 0.7247 0.75922 0.30448 0.0
H556 H 0.56462 0.86771 0.37074 0.0
H557 H 0.72635 0.91041 0.30956 0.0
H558 H 0.68945 0.77542 0.30843 0.0
H559 H 0.77701 0.94991 0.30563 0.0
H560 H 0.5091 0.76304 0.3726 0.0
H561 H 0.77731 0.7958 0.30422 0.0
H562 H 0.8171 0.84881 0.30455 0.0
H563 H 0.52362 0.72536 0.37667 0.0
H564 H 0.83138 0.9008 0.30465 0.0
N565 N 0.72153 0.82119 0.311 0.0
C566 C 0.71221 0.79186 0.30827 0.0
C567 C 0.76188 0.80314 0.30594 0.0
C568 C 0.77117 0.83305 0.30742 0.0
C569 C 0.73221 0.78246 0.30603 0.0
C570 C 0.75017 0.84139 0.30974 0.0
H571 H 0.81649 0.93869 0.30469 0.0
N572 N 0.73697 0.8771 0.31119 0.0
C573 C 0.77203 0.92764 0.30685 0.0
C574 C 0.75817 0.87042 0.30975 0.0
C575 C 0.7433 0.90515 0.309 0.0
C576 C 0.79426 0.92124 0.30638 0.0
C577 C 0.78743 0.89226 0.30755 0.0
O578 O 0.68444 0.85548 0.28763 0.0
O579 O 0.65409 0.83592 0.33225 0.0
O580 O 0.62246 0.78715 0.33968 0.0
O581 O 0.65654 0.79241 0.31401 0.0
O582 O 0.67597 0.87065 0.31442 0.0
O583 O 0.67738 0.8116 0.28663 0.0
O584 O 0.65671 0.80808 0.39344 0.0
O585 O 0.68586 0.82426 0.34741 0.0
O586 O 0.71975 0.87002 0.34191 0.0
O587 O 0.68517 0.86914 0.36494 0.0
O588 O 0.66503 0.79119 0.36689 0.0
O589 O 0.66424 0.85176 0.39259 0.0
C590 C 0.65376 0.85768 0.32597 0.0
C591 C 0.69048 0.83527 0.25438 0.0
C592 C 0.6855 0.83832 0.21582 0.0
C593 C 0.67502 0.83652 0.23666 0.0
C594 C 0.71194 0.83924 0.21291 0.0
C595 C 0.71705 0.8366 0.25138 0.0
C596 C 0.72773 0.83865 0.23068 0.0
C597 C 0.63069 0.77757 0.32237 0.0
C598 C 0.67763 0.83154 0.27554 0.0
C599 C 0.80871 0.88433 0.30615 0.0
C600 C 0.80059 0.85475 0.3061 0.0
C601 C 0.68615 0.80267 0.35418 0.0
C602 C 0.64919 0.82988 0.4252 0.0
C603 C 0.66562 0.83652 0.44462 0.0
C604 C 0.65267 0.83404 0.4646 0.0
C605 C 0.62293 0.82479 0.46484 0.0
C606 C 0.61962 0.82086 0.42569 0.0
C607 C 0.60657 0.81832 0.44546 0.0
C608 C 0.71219 0.88156 0.35839 0.0
C609 C 0.66345 0.83253 0.40471 0.0
H610 H 0.65433 0.83519 0.239 0.0
H611 H 0.72038 0.84053 0.19695 0.0
H612 H 0.72928 0.83572 0.26492 0.0
H613 H 0.74815 0.8395 0.22835 0.0
H614 H 0.68843 0.84323 0.44415 0.0
H615 H 0.61242 0.82289 0.48 0.0
H616 H 0.60668 0.81585 0.41088 0.0
H617 H 0.58373 0.81137 0.44578 0.0
Tb618 Tb 0.18468 0.82178 0.3694 0.0
C619 C 0.10989 0.8445 0.30903 0.0
C620 C 0.06145 0.80232 0.31033 0.0
C621 C 0.06785 0.84981 0.30423 0.0
C622 C 0.09193 0.81522 0.3119 0.0
C623 C 0.09815 0.86204 0.30457 0.0
C624 C 0.04951 0.81996 0.30712 0.0
C625 C 0.1469 0.90134 0.29895 0.0
N626 N 0.13895 0.85531 0.30932 0.0
C627 C 0.15745 0.88297 0.30339 0.0
C628 C 0.11716 0.89099 0.29989 0.0
Tb629 Tb 0.15433 0.82408 0.31786 0.0
N630 N 0.1044 0.79899 0.31476 0.0
C631 C 0.08741 0.76907 0.31434 0.0
C632 C 0.04397 0.77196 0.31127 0.0
C633 C 0.05703 0.7552 0.31285 0.0
H634 H 0.1805 0.89126 0.30282 0.0
H635 H 0.04373 0.7316 0.31312 0.0
H636 H 0.02614 0.81055 0.30618 0.0
H637 H 0.16172 0.92349 0.2949 0.0
H638 H 0.09705 0.75575 0.31579 0.0
H639 H 0.29626 0.91236 0.37301 0.0
H640 H 0.02045 0.76117 0.31017 0.0
H641 H 0.15671 0.75406 0.38405 0.0
H642 H 0.24316 0.88927 0.36993 0.0
H643 H 0.1743 0.72139 0.39319 0.0
H644 H 0.05837 0.86299 0.30111 0.0
H645 H 0.31839 0.88219 0.37822 0.0
H646 H 0.31143 0.83284 0.38433 0.0
H647 H 0.10903 0.90524 0.2964 0.0
H648 H 0.27819 0.78078 0.38997 0.0
N649 N 0.23461 0.84591 0.37281 0.0
C650 C 0.2522 0.87565 0.37233 0.0
C651 C 0.29492 0.87184 0.37689 0.0
C652 C 0.27685 0.84174 0.37866 0.0
C653 C 0.28251 0.88894 0.37402 0.0
C654 C 0.24645 0.82938 0.37668 0.0
H655 H 0.22697 0.7391 0.39363 0.0
N656 N 0.19893 0.78993 0.37876 0.0
C657 C 0.18963 0.74352 0.38937 0.0
C658 C 0.22793 0.80031 0.37984 0.0
C659 C 0.17975 0.76219 0.38422 0.0
C660 C 0.21937 0.75357 0.38956 0.0
C661 C 0.23899 0.78244 0.38507 0.0
O662 O 0.1633 0.80991 0.39846 0.0
O663 O 0.14721 0.81533 0.35114 0.0
O664 O 0.15485 0.85801 0.34028 0.0
O665 O 0.19129 0.86563 0.36522 0.0
O666 O 0.13977 0.78595 0.37287 0.0
O667 O 0.19936 0.85382 0.39596 0.0
O668 O 0.1759 0.83726 0.289 0.0
O669 O 0.19174 0.83044 0.33605 0.0
O670 O 0.18517 0.78853 0.34707 0.0
O671 O 0.14934 0.78045 0.32125 0.0
O672 O 0.19927 0.8598 0.31426 0.0
O673 O 0.13952 0.79326 0.29049 0.0
C674 C 0.12716 0.79314 0.35909 0.0
C675 C 0.1917 0.83529 0.43023 0.0
C676 C 0.18718 0.83787 0.46929 0.0
C677 C 0.17802 0.83902 0.44834 0.0
C678 C 0.21024 0.83272 0.47184 0.0
C679 C 0.21483 0.83045 0.43303 0.0
C680 C 0.224 0.82912 0.45378 0.0
C681 C 0.17478 0.87417 0.35598 0.0
C682 C 0.18067 0.83555 0.40866 0.0
C683 C 0.26922 0.79421 0.38616 0.0
C684 C 0.28814 0.82383 0.38294 0.0
C685 C 0.21188 0.85243 0.32795 0.0
C686 C 0.14706 0.81424 0.25711 0.0
C687 C 0.1626 0.81533 0.23875 0.0
C688 C 0.15351 0.81865 0.21844 0.0
C689 C 0.12866 0.82109 0.2168 0.0
C690 C 0.12215 0.81639 0.25518 0.0
C691 C 0.11307 0.81988 0.23509 0.0
C692 C 0.16636 0.77259 0.33069 0.0
C693 C 0.15818 0.81225 0.27814 0.0
H694 H 0.15994 0.84246 0.44607 0.0
H695 H 0.21796 0.832 0.4878 0.0
H696 H 0.22571 0.82764 0.41928 0.0
H697 H 0.24186 0.82537 0.45588 0.0
H698 H 0.18203 0.81397 0.24035 0.0
H699 H 0.12097 0.82336 0.20133 0.0
H700 H 0.10981 0.81546 0.26911 0.0
H701 H 0.09385 0.82156 0.23368 0.0
Tb702 Tb 0.83436 0.64808 0.65048 0.0
C703 C 0.89839 0.75467 0.71869 0.0
C704 C 0.94853 0.76709 0.7197 0.0
C705 C 0.937 0.8053 0.72789 0.0
C706 C 0.9186 0.7463 0.71594 0.0
C707 C 0.90718 0.78414 0.72511 0.0
C708 C 0.95767 0.79677 0.72519 0.0
C709 C 0.85645 0.76902 0.72725 0.0
N710 N 0.86992 0.73349 0.71607 0.0
C711 C 0.84888 0.74005 0.72103 0.0
C712 C 0.88573 0.79126 0.72907 0.0
Tb713 Tb 0.85931 0.68687 0.7045 0.0
N714 N 0.90874 0.71741 0.7108 0.0
C715 C 0.92782 0.70752 0.71091 0.0
C716 C 0.96823 0.75726 0.71848 0.0
C717 C 0.95776 0.72726 0.71443 0.0
H718 H 0.82616 0.72312 0.71951 0.0
H719 H 0.97274 0.71931 0.7139 0.0
H720 H 0.98058 0.81314 0.72792 0.0
H721 H 0.83968 0.77418 0.73062 0.0
H722 H 0.92038 0.68452 0.70775 0.0
H723 H 0.71944 0.60941 0.64177 0.0
H724 H 0.99141 0.7725 0.72118 0.0
H725 H 0.87084 0.61474 0.63617 0.0
H726 H 0.77151 0.64651 0.64731 0.0
H727 H 0.85985 0.5644 0.62572 0.0
H728 H 0.94425 0.82813 0.73264 0.0
H729 H 0.70347 0.55673 0.63519 0.0
H730 H 0.71712 0.51808 0.62888 0.0
H731 H 0.89156 0.81366 0.73399 0.0
H732 H 0.75544 0.50582 0.62424 0.0
N733 N 0.78534 0.61541 0.64449 0.0
C734 C 0.76506 0.62373 0.64437 0.0
C735 C 0.72645 0.57299 0.6376 0.0
C736 C 0.74738 0.56475 0.63637 0.0
C737 C 0.73539 0.60269 0.64124 0.0
C738 C 0.77698 0.58681 0.63971 0.0
H739 H 0.8088 0.52305 0.6227 0.0
N740 N 0.82644 0.60223 0.63952 0.0
C741 C 0.84232 0.56845 0.62895 0.0
C742 C 0.79833 0.57995 0.63704 0.0
C743 C 0.84845 0.59704 0.63481 0.0
C744 C 0.81348 0.54516 0.62731 0.0
C745 C 0.79101 0.55079 0.63108 0.0
O746 O 0.85825 0.65925 0.62244 0.0
O747 O 0.86862 0.68344 0.67121 0.0
O748 O 0.85663 0.71644 0.68326 0.0
O749 O 0.82265 0.68213 0.65667 0.0
O750 O 0.88095 0.66373 0.64782 0.0
O751 O 0.81876 0.66035 0.62439 0.0
O752 O 0.83734 0.67971 0.73355 0.0
O753 O 0.8246 0.65223 0.68371 0.0
O754 O 0.83546 0.61799 0.67196 0.0
O755 O 0.87032 0.65231 0.69796 0.0
O756 O 0.81312 0.67241 0.70737 0.0
O757 O 0.87059 0.66877 0.72895 0.0
C758 C 0.89059 0.68445 0.66323 0.0
C759 C 0.83239 0.65164 0.58954 0.0
C760 C 0.83571 0.65965 0.55109 0.0
C761 C 0.84031 0.67072 0.57303 0.0
C762 C 0.8227 0.62919 0.54595 0.0
C763 C 0.81914 0.62131 0.58403 0.0
C764 C 0.81429 0.61019 0.56232 0.0
C765 C 0.83675 0.70871 0.66736 0.0
C766 C 0.83995 0.66394 0.61229 0.0
C767 C 0.76156 0.52843 0.62864 0.0
C768 C 0.73975 0.53541 0.6313 0.0
C769 C 0.80294 0.65189 0.69182 0.0
C770 C 0.86344 0.6811 0.76478 0.0
C771 C 0.84855 0.66373 0.78157 0.0
C772 C 0.85922 0.67332 0.80323 0.0
C773 C 0.88494 0.70072 0.8078 0.0
C774 C 0.88892 0.70842 0.76968 0.0
C775 C 0.89957 0.71814 0.79112 0.0
C776 C 0.85503 0.62539 0.68798 0.0
C777 C 0.85239 0.66987 0.74228 0.0
H778 H 0.85075 0.69421 0.57725 0.0
H779 H 0.81873 0.62006 0.52923 0.0
H780 H 0.81294 0.6063 0.59647 0.0
H781 H 0.80417 0.58676 0.55817 0.0
H782 H 0.82897 0.6425 0.77771 0.0
H783 H 0.89355 0.70885 0.8243 0.0
H784 H 0.90064 0.72209 0.75698 0.0
H785 H 0.91927 0.73924 0.79483 0.0
Tb786 Tb 0.34697 0.17786 0.65716 0.0
C787 C 0.24404 0.13946 0.71512 0.0
C788 C 0.23279 0.17796 0.71457 0.0
C789 C 0.19425 0.12794 0.71904 0.0
C790 C 0.25292 0.1684 0.71314 0.0
C791 C 0.21476 0.11896 0.71867 0.0
C792 C 0.20325 0.15743 0.71697 0.0
C793 C 0.22891 0.08323 0.72334 0.0
N794 N 0.26461 0.13185 0.71488 0.0
C795 C 0.25772 0.10446 0.71987 0.0
C796 C 0.20724 0.09038 0.72242 0.0
Tb797 Tb 0.31092 0.16769 0.70794 0.0
N798 N 0.28166 0.18749 0.71107 0.0
C799 C 0.29204 0.21703 0.71203 0.0
C800 C 0.2431 0.20796 0.71421 0.0
C801 C 0.27293 0.22762 0.71331 0.0
H802 H 0.27425 0.09864 0.72048 0.0
H803 H 0.28123 0.25095 0.71345 0.0
H804 H 0.18738 0.16427 0.71786 0.0
H805 H 0.22343 0.06136 0.72666 0.0
H806 H 0.31498 0.23257 0.71116 0.0
H807 H 0.37718 0.095 0.64871 0.0
H808 H 0.22835 0.21622 0.71519 0.0
H809 H 0.38363 0.24785 0.64663 0.0
H810 H 0.34333 0.11311 0.65233 0.0
H811 H 0.43438 0.28559 0.64086 0.0
H812 H 0.17156 0.11247 0.7215 0.0
H813 H 0.42997 0.13003 0.64689 0.0
H814 H 0.47078 0.18227 0.64522 0.0
H815 H 0.18496 0.07392 0.72517 0.0
H816 H 0.48643 0.23432 0.64306 0.0
N817 N 0.3764 0.15832 0.65294 0.0
C818 C 0.36618 0.12879 0.65138 0.0
C819 C 0.41515 0.13817 0.64839 0.0
C820 C 0.42533 0.16821 0.64876 0.0
C821 C 0.38538 0.11835 0.64936 0.0
C822 C 0.4051 0.17761 0.65085 0.0
H823 H 0.4729 0.27301 0.64104 0.0
N824 N 0.39326 0.21422 0.6506 0.0
C825 C 0.42893 0.26348 0.6434 0.0
C826 C 0.41389 0.20668 0.64964 0.0
C827 C 0.40014 0.24197 0.64662 0.0
C828 C 0.45063 0.25632 0.64356 0.0
C829 C 0.44316 0.22748 0.64633 0.0
O830 O 0.33708 0.19116 0.62898 0.0
O831 O 0.31298 0.17861 0.67512 0.0
O832 O 0.2798 0.1333 0.68421 0.0
O833 O 0.31126 0.13176 0.65884 0.0
O834 O 0.33397 0.21069 0.65504 0.0
O835 O 0.33355 0.14895 0.62873 0.0
O836 O 0.32137 0.15539 0.73642 0.0
O837 O 0.34442 0.16634 0.68981 0.0
O838 O 0.37845 0.21079 0.68143 0.0
O839 O 0.34715 0.21351 0.70626 0.0
O840 O 0.32397 0.13498 0.71063 0.0
O841 O 0.32377 0.19698 0.73615 0.0
C842 C 0.31309 0.2002 0.66802 0.0
C843 C 0.34578 0.17255 0.59636 0.0
C844 C 0.34245 0.17595 0.55755 0.0
C845 C 0.32943 0.16955 0.57763 0.0
C846 C 0.37227 0.18557 0.55667 0.0
C847 C 0.37529 0.18164 0.59504 0.0
C848 C 0.38846 0.1882 0.57528 0.0
C849 C 0.28556 0.11997 0.66779 0.0
C850 C 0.33194 0.16756 0.6172 0.0
C851 C 0.46375 0.21861 0.64533 0.0
C852 C 0.45484 0.18899 0.64655 0.0
C853 C 0.34426 0.14484 0.69713 0.0
C854 C 0.31247 0.17422 0.76889 0.0
C855 C 0.3296 0.17985 0.78783 0.0
C856 C 0.31686 0.17332 0.80802 0.0
C857 C 0.28652 0.16105 0.80877 0.0
C858 C 0.28248 0.16264 0.77013 0.0
C859 C 0.26959 0.15603 0.78998 0.0
C860 C 0.37316 0.22433 0.69795 0.0
C861 C 0.32609 0.179 0.74794 0.0
H862 H 0.30649 0.16196 0.57874 0.0
H863 H 0.3832 0.19126 0.54163 0.0
H864 H 0.38817 0.18387 0.60923 0.0
H865 H 0.41133 0.1955 0.57441 0.0
H866 H 0.35288 0.18943 0.78672 0.0
H867 H 0.2757 0.15501 0.82381 0.0
H868 H 0.26899 0.15843 0.75581 0.0
H869 H 0.24634 0.14673 0.79079 0.0
Tb870 Tb 0.8505 0.17282 0.70666 0.0
C871 C 0.7911 0.21816 0.64907 0.0
C872 C 0.73985 0.18181 0.64899 0.0
C873 C 0.75528 0.23264 0.64447 0.0
C874 C 0.76927 0.18968 0.65093 0.0
C875 C 0.78446 0.2399 0.64522 0.0
C876 C 0.73298 0.20361 0.64637 0.0
C877 C 0.83563 0.27329 0.64085 0.0
N878 N 0.81888 0.22406 0.64959 0.0
C879 C 0.84105 0.25091 0.64467 0.0
C880 C 0.80725 0.26791 0.64146 0.0
Tb881 Tb 0.82591 0.18635 0.65655 0.0
N882 N 0.7769 0.1693 0.65313 0.0
C883 C 0.7559 0.1401 0.65165 0.0
C884 C 0.71829 0.15217 0.64893 0.0
C885 C 0.72639 0.13118 0.64986 0.0
H886 H 0.86311 0.25543 0.6443 0.0
H887 H 0.70991 0.1081 0.64934 0.0
H888 H 0.71052 0.19808 0.6451 0.0
H889 H 0.85334 0.2947 0.63753 0.0
H890 H 0.76154 0.12346 0.65249 0.0
H891 H 0.96639 0.25227 0.71135 0.0
H892 H 0.69543 0.14519 0.64753 0.0
H893 H 0.81671 0.10664 0.72372 0.0
H894 H 0.91456 0.2363 0.71037 0.0
H895 H 0.82743 0.06774 0.72993 0.0
H896 H 0.74971 0.24909 0.64176 0.0
H897 H 0.9817 0.2156 0.7108 0.0
H898 H 0.96756 0.16279 0.71238 0.0
H899 H 0.80309 0.28525 0.63845 0.0
H900 H 0.92932 0.11192 0.71736 0.0
N901 N 0.89982 0.19051 0.70857 0.0
C902 C 0.92055 0.21982 0.71022 0.0
C903 C 0.95875 0.20835 0.71032 0.0
C904 C 0.93758 0.17859 0.71033 0.0
C905 C 0.95019 0.2291 0.71076 0.0
C906 C 0.90802 0.17039 0.70962 0.0
H907 H 0.87688 0.07631 0.72453 0.0
N908 N 0.85912 0.13621 0.71368 0.0
C909 C 0.8443 0.08844 0.72473 0.0
C910 C 0.88675 0.142 0.71223 0.0
C911 C 0.8383 0.11053 0.72121 0.0
C912 C 0.87218 0.0933 0.72157 0.0
C913 C 0.89408 0.1207 0.71586 0.0
O914 O 0.82833 0.1612 0.73552 0.0
O915 O 0.81703 0.17528 0.68932 0.0
O916 O 0.83244 0.22156 0.68071 0.0
O917 O 0.86412 0.21951 0.70548 0.0
O918 O 0.80358 0.14296 0.70968 0.0
O919 O 0.86892 0.20185 0.73487 0.0
O920 O 0.84807 0.19898 0.6278 0.0
O921 O 0.85952 0.18351 0.67363 0.0
O922 O 0.84004 0.13506 0.68381 0.0
O923 O 0.81182 0.13949 0.657 0.0
O924 O 0.8725 0.21705 0.65436 0.0
O925 O 0.80881 0.15684 0.62856 0.0
C926 C 0.79459 0.15465 0.69668 0.0
C927 C 0.85854 0.17825 0.76713 0.0
C928 C 0.85509 0.17428 0.80608 0.0
C929 C 0.84645 0.18051 0.78671 0.0
C930 C 0.87551 0.16509 0.80538 0.0
C931 C 0.87936 0.16976 0.76696 0.0
C932 C 0.88758 0.16296 0.78596 0.0
C933 C 0.85201 0.23327 0.69717 0.0
C934 C 0.84875 0.18413 0.74698 0.0
C935 C 0.92324 0.12807 0.71494 0.0
C936 C 0.945 0.15703 0.71214 0.0
C937 C 0.88175 0.20486 0.66659 0.0
C938 C 0.81909 0.17851 0.59551 0.0
C939 C 0.83065 0.17308 0.57671 0.0
C940 C 0.82188 0.17635 0.55624 0.0
C941 C 0.80139 0.18532 0.55494 0.0
C942 C 0.79862 0.18729 0.59391 0.0
C943 C 0.78989 0.19073 0.57368 0.0
C944 C 0.8218 0.12463 0.66652 0.0
C945 C 0.82888 0.17494 0.61655 0.0
H946 H 0.83082 0.18769 0.78688 0.0
H947 H 0.88224 0.15959 0.81989 0.0
H948 H 0.8893 0.1684 0.75221 0.0
H949 H 0.90346 0.15615 0.78564 0.0
H950 H 0.84614 0.16584 0.57804 0.0
H951 H 0.79444 0.18838 0.53946 0.0
H952 H 0.78938 0.19142 0.60819 0.0
H953 H 0.77414 0.19762 0.57252 0.0
H954 H 0.33873 0.87644 0.03403 0.0
H955 H 0.30635 0.93598 0.03738 0.0
H956 H 0.3549 0.97687 0.03157 0.0
H957 H 0.40711 0.99624 0.02725 0.0
H958 H 0.4394 0.93683 0.02314 0.0
H959 H 0.39045 0.89536 0.02736 0.0
C960 C 0.3423 0.89836 0.03342 0.0
C961 C 0.319 0.9032 0.03634 0.0
C962 C 0.37025 0.92177 0.02988 0.0
C963 C 0.3239 0.93165 0.03523 0.0
C964 C 0.35167 0.95508 0.03195 0.0
C965 C 0.40322 0.9741 0.02704 0.0
C966 C 0.42654 0.96937 0.0244 0.0
C967 C 0.37505 0.95046 0.02951 0.0
C968 C 0.42159 0.94081 0.02451 0.0
C969 C 0.39365 0.91716 0.02714 0.0
H970 H 0.13912 0.49655 0.06347 0.0
H971 H 0.10115 0.4109 0.02824 0.0
H972 H 0.06056 0.41522 0.01507 0.0
H973 H 0.03404 0.44211 0.01553 0.0
H974 H 0.07265 0.52791 0.05026 0.0
H975 H 0.11455 0.52466 0.06192 0.0
C976 C 0.1221 0.47888 0.05279 0.0
C977 C 0.12314 0.45332 0.04704 0.0
C978 C 0.09876 0.48145 0.04534 0.0
C979 C 0.10094 0.43079 0.03301 0.0
C980 C 0.0776 0.43317 0.02554 0.0
C981 C 0.05193 0.46018 0.02537 0.0
C982 C 0.05083 0.48551 0.03162 0.0
C983 C 0.07602 0.45818 0.03189 0.0
C984 C 0.07357 0.50855 0.04486 0.0
C985 C 0.0974 0.50662 0.05158 0.0
H986 H 0.52968 0.6724 0.03819 0.0
H987 H 0.61296 0.691 0.06408 0.0
H988 H 0.59921 0.63998 0.05445 0.0
H989 H 0.5631 0.58998 0.03951 0.0
H990 H 0.47974 0.57147 0.01401 0.0
H991 H 0.49407 0.62272 0.02259 0.0
C992 C 0.54491 0.66538 0.04166 0.0
C993 C 0.57227 0.68547 0.05191 0.0
C994 C 0.53684 0.63604 0.03619 0.0
C995 C 0.59175 0.67598 0.05621 0.0
C996 C 0.58388 0.64679 0.05076 0.0
C997 C 0.54803 0.59708 0.03587 0.0
C998 C 0.52045 0.5769 0.02601 0.0
C999 C 0.55638 0.62659 0.04093 0.0
C1000 C 0.50126 0.58661 0.0213 0.0
C1001 C 0.50938 0.6159 0.02631 0.0
H1002 H 0.86462 0.31904 0.99335 0.0
H1003 H 0.85292 0.34172 0.93033 0.0
H1004 H 0.89292 0.39205 0.93916 0.0
H1005 H 0.93125 0.42976 0.96481 0.0
H1006 H 0.94401 0.40709 0.0273 0.0
H1007 H 0.90333 0.3567 0.01886 0.0
C1008 C 0.87068 0.33503 0.9816 0.0
C1009 C 0.85575 0.3266 0.96122 0.0
C1010 C 0.89392 0.36391 0.98669 0.0
C1011 C 0.86403 0.34759 0.94614 0.0
C1012 C 0.88695 0.37639 0.95114 0.0
C1013 C 0.9254 0.41356 0.97634 0.0
C1014 C 0.94051 0.42179 0.99653 0.0
C1015 C 0.90216 0.38473 0.97129 0.0
C1016 C 0.93234 0.40109 0.01172 0.0
C1017 C 0.90922 0.37233 0.00686 0.0
H1018 H 0.65433 0.51849 0.97261 0.0
H1019 H 0.68249 0.60964 0.96741 0.0
H1020 H 0.63548 0.60098 0.97858 0.0
H1021 H 0.5851 0.56708 0.98729 0.0
H1022 H 0.55595 0.47605 0.9927 0.0
H1023 H 0.60444 0.48502 0.98422 0.0
C1024 C 0.65026 0.5365 0.97411 0.0
C1025 C 0.67197 0.56463 0.96891 0.0
C1026 C 0.62292 0.53138 0.98058 0.0
C1027 C 0.66628 0.58772 0.97111 0.0
C1028 C 0.63931 0.58282 0.9775 0.0
C1029 C 0.58961 0.54937 0.98692 0.0
C1030 C 0.56735 0.52115 0.99099 0.0
C1031 C 0.61734 0.55469 0.98189 0.0
C1032 C 0.57307 0.49813 0.99012 0.0
C1033 C 0.6007 0.50323 0.98509 0.0
H1034 H 0.4309 0.12178 0.97061 0.0
H1035 H 0.51927 0.19397 0.98209 0.0
H1036 H 0.53456 0.16014 0.99231 0.0
H1037 H 0.52266 0.10976 0.99781 0.0
H1038 H 0.43472 0.03758 0.98386 0.0
H1039 H 0.41943 0.07158 0.97473 0.0
C1040 C 0.45349 0.1301 0.97538 0.0
C1041 C 0.47389 0.1603 0.97572 0.0
C1042 C 0.46221 0.11048 0.98072 0.0
C1043 C 0.50317 0.17076 0.98166 0.0
C1044 C 0.51191 0.15146 0.98755 0.0
C1045 C 0.50017 0.10156 0.99275 0.0
C1046 C 0.47986 0.07121 0.99142 0.0
C1047 C 0.49161 0.12124 0.98711 0.0
C1048 C 0.45084 0.06079 0.98474 0.0
C1049 C 0.44203 0.08024 0.97963 0.0
H1050 H 0.67277 0.11264 0.97491 0.0
H1051 H 0.63985 0.17103 0.97024 0.0
H1052 H 0.59275 0.13372 0.98241 0.0
H1053 H 0.55963 0.08285 0.99123 0.0
H1054 H 0.59155 0.02332 0.99231 0.0
H1055 H 0.64038 0.06267 0.98486 0.0
C1056 C 0.65538 0.11731 0.97674 0.0
C1057 C 0.65974 0.14448 0.97157 0.0
C1058 C 0.62815 0.09548 0.98309 0.0
C1059 C 0.63694 0.15014 0.97392 0.0
C1060 C 0.61002 0.12886 0.98091 0.0
C1061 C 0.5775 0.07882 0.99035 0.0
C1062 C 0.5724 0.05057 0.99279 0.0
C1063 C 0.60519 0.10124 0.98514 0.0
C1064 C 0.59531 0.04513 0.99079 0.0
C1065 C 0.62312 0.06754 0.98644 0.0
H1066 H 0.89971 0.57436 0.97677 0.0
H1067 H 0.82805 0.48473 0.97351 0.0
H1068 H 0.86149 0.46812 0.98229 0.0
H1069 H 0.91151 0.47881 0.98951 0.0
H1070 H 0.98338 0.56774 0.99027 0.0
H1071 H 0.94969 0.58496 0.9836 0.0
C1072 C 0.8914 0.55122 0.97809 0.0
C1073 C 0.8614 0.53083 0.97452 0.0
C1074 C 0.91085 0.54173 0.98266 0.0
C1075 C 0.85104 0.50087 0.97609 0.0
C1076 C 0.87014 0.49135 0.98113 0.0
C1077 C 0.91958 0.502 0.98861 0.0
C1078 C 0.94958 0.52228 0.99146 0.0
C1079 C 0.90011 0.51153 0.9843 0.0
C1080 C 0.96017 0.55205 0.9891 0.0
C1081 C 0.94095 0.5618 0.9851 0.0
H1082 H 0.44 0.30999 0.95296 0.0
H1083 H 0.52215 0.32881 0.98136 0.0
H1084 H 0.52987 0.37505 0.99923 0.0
H1085 H 0.51461 0.41137 0.00484 0.0
H1086 H 0.4327 0.39245 0.97582 0.0
H1087 H 0.4237 0.34499 0.96 0.0
C1088 C 0.45955 0.32407 0.96315 0.0
C1089 C 0.48055 0.31601 0.96569 0.0
C1090 C 0.46397 0.35068 0.97315 0.0
C1091 C 0.50568 0.33453 0.97905 0.0
C1092 C 0.51013 0.36099 0.98924 0.0
C1093 C 0.49456 0.39668 0.99537 0.0
C1094 C 0.47431 0.40545 0.99161 0.0
C1095 C 0.4896 0.36946 0.98615 0.0
C1096 C 0.44869 0.38632 0.97896 0.0
C1097 C 0.4435 0.35915 0.96989 0.0
H1098 H 0.14188 0.6934 0.05967 0.0
H1099 H 0.16673 0.69977 0.99333 0.0
H1100 H 0.12623 0.64974 0.98359 0.0
H1101 H 0.08437 0.60403 0.99409 0.0
H1102 H 0.05931 0.59836 0.06043 0.0
H1103 H 0.09934 0.64846 0.06992 0.0
C1104 C 0.13852 0.68389 0.04306 0.0
C1105 C 0.15746 0.70028 0.02727 0.0
C1106 C 0.11514 0.65527 0.03756 0.0
C1107 C 0.15255 0.68765 0.00581 0.0
C1108 C 0.1294 0.65903 1.00023 0.0
C1109 C 0.08758 0.61373 0.01063 0.0
C1110 C 0.06884 0.59733 0.02652 0.0
C1111 C 0.11063 0.64262 0.016 0.0
C1112 C 0.07328 0.61041 0.04783 0.0
C1113 C 0.09625 0.63907 0.05331 0.0
H1114 H 0.32433 0.4123 0.04946 0.0
H1115 H 0.3397 0.50041 0.05913 0.0
H1116 H 0.38981 0.5203 0.04872 0.0
H1117 H 0.42998 0.51303 0.03782 0.0
H1118 H 0.4161 0.42565 0.0303 0.0
H1119 H 0.36488 0.40506 0.03891 0.0
C1120 C 0.33864 0.43585 0.04929 0.0
C1121 C 0.32816 0.4548 0.05514 0.0
C1122 C 0.36772 0.44726 0.04356 0.0
C1123 C 0.34713 0.48528 0.05488 0.0
C1124 C 0.37582 0.49671 0.04884 0.0
C1125 C 0.41548 0.48945 0.03772 0.0
C1126 C 0.42624 0.47071 0.03256 0.0
C1127 C 0.38639 0.47796 0.04322 0.0
C1128 C 0.40783 0.44031 0.03342 0.0
C1129 C 0.37868 0.42862 0.03853 0.0
H1130 H 0.55849 0.89543 0.05603 0.0
H1131 H 0.46683 0.83247 0.05878 0.0
H1132 H 0.45499 0.86595 0.04282 0.0
H1133 H 0.47085 0.9136 0.02855 0.0
H1134 H 0.56243 0.97811 0.02906 0.0
H1135 H 0.57428 0.94354 0.04305 0.0
C1136 C 0.53594 0.88908 0.05311 0.0
C1137 C 0.51357 0.86157 0.05849 0.0
C1138 C 0.52933 0.90868 0.04444 0.0
C1139 C 0.48443 0.85365 0.05486 0.0
C1140 C 0.47765 0.87271 0.04566 0.0
C1141 C 0.49335 0.91988 0.03163 0.0
C1142 C 0.51579 0.94815 0.02781 0.0
C1143 C 0.49993 0.90029 0.04041 0.0
C1144 C 0.54488 0.9564 0.03205 0.0
C1145 C 0.55164 0.93669 0.04001 0.0
H1146 H 0.00519 0.23999 0.38723 0.0
H1147 H 0.04097 0.18418 0.39293 0.0
H1148 H 0.08662 0.22117 0.37873 0.0
H1149 H 0.11777 0.27123 0.36828 0.0
H1150 H 0.08356 0.32868 0.36588 0.0
H1151 H 0.03571 0.2892 0.37521 0.0
C1152 C 0.02287 0.23581 0.38514 0.0
C1153 C 0.01983 0.20953 0.39122 0.0
C1154 C 0.0493 0.2575 0.37764 0.0
C1155 C 0.04294 0.20442 0.38855 0.0
C1156 C 0.06901 0.22551 0.38041 0.0
C1157 C 0.09961 0.27475 0.36916 0.0
C1158 C 0.10373 0.30238 0.36584 0.0
C1159 C 0.07263 0.25238 0.37536 0.0
C1160 C 0.08049 0.30728 0.36805 0.0
C1161 C 0.05328 0.28481 0.37346 0.0
H1162 H 0.77439 0.7626 0.37672 0.0
H1163 H 0.83512 0.85607 0.37984 0.0
H1164 H 0.7965 0.86383 0.36735 0.0
H1165 H 0.74437 0.84451 0.35884 0.0
H1166 H 0.68374 0.75125 0.35624 0.0
H1167 H 0.72327 0.74301 0.36533 0.0
C1168 C 0.7793 0.78466 0.3745 0.0
C1169 C 0.80767 0.8087 0.37949 0.0
C1170 C 0.75688 0.78906 0.36753 0.0
C1171 C 0.81351 0.83711 0.37634 0.0
C1172 C 0.79138 0.84162 0.36922 0.0
C1173 C 0.73997 0.82237 0.35969 0.0
C1174 C 0.71125 0.79844 0.35644 0.0
C1175 C 0.76283 0.81783 0.36521 0.0
C1176 C 0.70576 0.76995 0.3584 0.0
C1177 C 0.72833 0.76524 0.36366 0.0
H1178 H 0.22023 0.00672 0.38658 0.0
H1179 H 0.13925 0.98549 0.3545 0.0
H1180 H 0.12758 0.93482 0.34559 0.0
H1181 H 0.14048 0.89668 0.34725 0.0
H1182 H 0.22164 0.91885 0.37965 0.0
H1183 H 0.23275 0.96894 0.38855 0.0
C1184 C 0.20004 0.99111 0.37756 0.0
C1185 C 0.18072 -5e-05 0.37111 0.0
C1186 C 0.19338 0.96212 0.37274 0.0
C1187 C 0.15454 0.97927 0.35963 0.0
C1188 C 0.14784 0.95031 0.35457 0.0
C1189 C 0.16072 0.91253 0.35608 0.0
C1190 C 0.18041 0.90404 0.36243 0.0
C1191 C 0.16712 0.9415 0.36107 0.0
C1192 C 0.20613 0.92469 0.37442 0.0
C1193 C 0.21259 0.95344 0.37948 0.0
H1194 H 0.55107 0.6623 0.26187 0.0
H1195 H 0.54119 0.62353 0.32217 0.0
H1196 H 0.57254 0.67224 0.34108 0.0
H1197 H 0.60317 0.72587 0.34033 0.0
H1198 H 0.61412 0.76429 0.27996 0.0
H1199 H 0.58198 0.7156 0.26108 0.0
C1200 C 0.5558 0.66446 0.27914 0.0
C1201 C 0.54377 0.63933 0.29059 0.0
C1202 C 0.5739 0.69246 0.28988 0.0
C1203 C 0.55026 0.64252 0.31295 0.0
C1204 C 0.56809 0.67037 0.3238 0.0
C1205 C 0.59791 0.72354 0.32317 0.0
C1206 C 0.61023 0.74844 0.31156 0.0
C1207 C 0.57991 0.69549 0.31244 0.0
C1208 C 0.60449 0.74524 0.28915 0.0
C1209 C 0.58623 0.71749 0.27839 0.0
H1210 H 0.33005 0.85901 0.30512 0.0
H1211 H 0.35454 0.94877 0.29786 0.0
H1212 H 0.30745 0.93893 0.30984 0.0
H1213 H 0.25802 0.90432 0.32019 0.0
H1214 H 0.23262 0.81453 0.32723 0.0
H1215 H 0.28111 0.82489 0.31789 0.0
C1216 C 0.32517 0.87647 0.30633 0.0
C1217 C 0.3459 0.90455 0.30036 0.0
C1218 C 0.29777 0.87066 0.31324 0.0
C1219 C 0.33912 0.9269 0.30217 0.0
C1220 C 0.3121 0.92132 0.30903 0.0
C1221 C 0.26329 0.88715 0.31992 0.0
C1222 C 0.24194 0.85888 0.32478 0.0
C1223 C 0.2911 0.89321 0.31426 0.0
C1224 C 0.24883 0.83666 0.32409 0.0
C1225 C 0.27654 0.84254 0.31854 0.0
H1226 H 0.10591 0.44975 0.30437 0.0
H1227 H 0.19527 0.52097 0.30996 0.0
H1228 H 0.21058 0.48804 0.32225 0.0
H1229 H 0.19838 0.43867 0.33134 0.0
H1230 H 0.10926 0.36715 0.32316 0.0
H1231 H 0.09403 0.40041 0.312 0.0
C1232 C 0.12873 0.45806 0.3083 0.0
C1233 C 0.1494 0.48776 0.30637 0.0
C1234 C 0.13741 0.4389 0.31487 0.0
C1235 C 0.17895 0.49815 0.31126 0.0
C1236 C 0.1877 0.47936 0.31835 0.0
C1237 C 0.17565 0.43047 0.3271 0.0
C1238 C 0.15497 0.40049 0.32795 0.0
C1239 C 0.16711 0.44967 0.32021 0.0
C1240 C 0.12563 0.39003 0.32233 0.0
C1241 C 0.11688 0.40908 0.31605 0.0
H1242 H 0.33751 0.44661 0.2974 0.0
H1243 H 0.29069 0.49149 0.28903 0.0
H1244 H 0.24972 0.45456 0.30778 0.0
H1245 H 0.22557 0.40718 0.32313 0.0
H1246 H 0.26952 0.35882 0.32719 0.0
H1247 H 0.31353 0.39949 0.31367 0.0
C1248 C 0.31844 0.44841 0.29994 0.0
C1249 C 0.31696 0.47158 0.29187 0.0
C1250 C 0.29456 0.42648 0.30991 0.0
C1251 C 0.2921 0.47363 0.29498 0.0
C1252 C 0.26876 0.4526 0.30572 0.0
C1253 C 0.24505 0.40594 0.32167 0.0
C1254 C 0.24477 0.38055 0.32668 0.0
C1255 C 0.26952 0.42863 0.31284 0.0
C1256 C 0.26963 0.37851 0.32371 0.0
C1257 C 0.29464 0.40164 0.31591 0.0
H1258 H 0.53268 0.8444 0.3007 0.0
H1259 H 0.58618 0.93901 0.30702 0.0
H1260 H 0.62872 0.93596 0.31665 0.0
H1261 H 0.65115 0.90647 0.32269 0.0
H1262 H 0.5976 0.81207 0.31808 0.0
H1263 H 0.55478 0.81488 0.30847 0.0
C1264 C 0.55366 0.86433 0.30417 0.0
C1265 C 0.55623 0.8919 0.30297 0.0
C1266 C 0.57805 0.86244 0.31007 0.0
C1267 C 0.58353 0.91751 0.3078 0.0
C1268 C 0.60792 0.9158 0.31328 0.0
C1269 C 0.63002 0.88657 0.31968 0.0
C1270 C 0.6274 0.85916 0.32147 0.0
C1271 C 0.60548 0.88841 0.31438 0.0
C1272 C 0.60004 0.83346 0.31729 0.0
C1273 C 0.57559 0.83507 0.31165 0.0
H1274 H 0.18044 0.66391 0.30327 0.0
H1275 H 0.10159 0.63702 0.2654 0.0
H1276 H 0.10215 0.6813 0.27971 0.0
H1277 H 0.1255 0.72825 0.30249 0.0
H1278 H 0.2047 0.75516 0.33998 0.0
H1279 H 0.20332 0.71037 0.32644 0.0
C1280 C 0.16331 0.66766 0.2982 0.0
C1281 C 0.14107 0.64716 0.28324 0.0
C1282 C 0.16377 0.69325 0.30645 0.0
C1283 C 0.11903 0.65241 0.27688 0.0
C1284 C 0.11933 0.67778 0.28503 0.0
C1285 C 0.14244 0.72431 0.30771 0.0
C1286 C 0.165 0.74503 0.32238 0.0
C1287 C 0.14169 0.69846 0.29973 0.0
C1288 C 0.18679 0.7395 0.32895 0.0
C1289 C 0.18615 0.71389 0.32112 0.0
H1290 H 0.82255 0.99918 0.3976 0.0
H1291 H 0.75689 0.00687 0.43253 0.0
H1292 H 0.71911 0.95965 0.4147 0.0
H1293 H 0.70474 0.91678 0.38865 0.0
H1294 H 0.77086 0.90934 0.3541 0.0
H1295 H 0.8084 0.95605 0.37225 0.0
C1296 C 0.79999 0.99054 0.40139 0.0
C1297 C 0.79256 0.00658 0.41634 0.0
C1298 C 0.77843 0.96353 0.39104 0.0
C1299 C 0.76321 0.99499 0.42106 0.0
C1300 C 0.74159 0.96801 0.41085 0.0
C1301 C 0.72735 0.92532 0.3851 0.0
C1302 C 0.73486 0.9097 0.36979 0.0
C1303 C 0.74895 0.95218 0.39572 0.0
C1304 C 0.76433 0.92109 0.3655 0.0
C1305 C 0.78589 0.94776 0.37598 0.0
H1306 H 0.99507 0.74329 0.37856 0.0
H1307 H 0.02226 0.8349 0.37891 0.0
H1308 H 0.07109 0.84663 0.36927 0.0
H1309 H 0.10679 0.8311 0.36216 0.0
H1310 H 0.08031 0.74005 0.36417 0.0
H1311 H 0.03069 0.72787 0.37162 0.0
C1312 C 0.01165 0.76581 0.37647 0.0
C1313 C 0.00495 0.78817 0.3795 0.0
C1314 C 0.03991 0.77251 0.37141 0.0
C1315 C 0.02682 0.81727 0.37685 0.0
C1316 C 0.05478 0.82401 0.3713 0.0
C1317 C 0.09002 0.80856 0.36388 0.0
C1318 C 0.09694 0.78632 0.36201 0.0
C1319 C 0.06166 0.80185 0.3687 0.0
C1320 C 0.07529 0.7574 0.36517 0.0
C1321 C 0.04696 0.75045 0.36947 0.0
H1322 H 0.22972 0.22098 0.3939 0.0
H1323 H 0.13831 0.15554 0.38587 0.0
H1324 H 0.12807 0.19181 0.37293 0.0
H1325 H 0.14525 0.24211 0.36379 0.0
H1326 H 0.23605 0.30853 0.37483 0.0
H1327 H 0.24646 0.27197 0.38676 0.0
C1328 C 0.20758 0.21473 0.38931 0.0
C1329 C 0.18481 0.18567 0.39067 0.0
C1330 C 0.20178 0.23586 0.38248 0.0
C1331 C 0.15616 0.17785 0.38499 0.0
C1332 C 0.15032 0.19853 0.37755 0.0
C1333 C 0.1673 0.24854 0.36884 0.0
C1334 C 0.18989 0.27789 0.3684 0.0
C1335 C 0.17297 0.22758 0.3762 0.0
C1336 C 0.2183 0.28607 0.37516 0.0
C1337 C 0.22427 0.26517 0.38191 0.0
H1338 H 0.67297 0.56287 0.70941 0.0
H1339 H 0.70693 0.50517 0.71278 0.0
H1340 H 0.75384 0.54322 0.70087 0.0
H1341 H 0.78649 0.59455 0.69299 0.0
H1342 H 0.75361 0.65335 0.69323 0.0
H1343 H 0.70487 0.61323 0.70005 0.0
C1344 C 0.69052 0.55849 0.70731 0.0
C1345 C 0.68653 0.53131 0.71208 0.0
C1346 C 0.71763 0.58073 0.70112 0.0
C1347 C 0.70955 0.52603 0.7094 0.0
C1348 C 0.73635 0.54775 0.70256 0.0
C1349 C 0.76844 0.59826 0.69395 0.0
C1350 C 0.77326 0.62653 0.69213 0.0
C1351 C 0.74083 0.57539 0.69881 0.0
C1352 C 0.75007 0.63153 0.69428 0.0
C1353 C 0.72233 0.60869 0.69828 0.0
H1354 H 0.43395 0.10531 0.71647 0.0
H1355 H 0.49474 0.19824 0.71506 0.0
H1356 H 0.45495 0.20566 0.70513 0.0
H1357 H 0.40241 0.18632 0.69966 0.0
H1358 H 0.34172 0.09364 0.70134 0.0
H1359 H 0.38188 0.08561 0.70873 0.0
C1360 C 0.4386 0.12717 0.71382 0.0
C1361 C 0.46736 0.15119 0.71672 0.0
C1362 C 0.41556 0.13138 0.70839 0.0
C1363 C 0.47284 0.17934 0.71312 0.0
C1364 C 0.45007 0.18365 0.7075 0.0
C1365 C 0.39805 0.16431 0.70112 0.0
C1366 C 0.36921 0.14046 0.6994 0.0
C1367 C 0.42128 0.15992 0.70548 0.0
C1368 C 0.36382 0.11222 0.70227 0.0
C1369 C 0.38676 0.10765 0.70651 0.0
H1370 H 0.9147 0.36341 0.74043 0.0
H1371 H 0.85257 0.36701 0.69829 0.0
H1372 H 0.83168 0.315 0.68585 0.0
H1373 H 0.83135 0.26868 0.68703 0.0
H1374 H 0.89552 0.26666 0.728 0.0
H1375 H 0.91468 0.31769 0.7413 0.0
C1376 C 0.89654 0.35288 0.72855 0.0
C1377 C 0.88523 0.3691 0.72031 0.0
C1378 C 0.88487 0.32319 0.72137 0.0
C1379 C 0.86175 0.35505 0.70487 0.0
C1380 C 0.84975 0.32531 0.69778 0.0
C1381 C 0.84981 0.27948 0.69858 0.0
C1382 C 0.86232 0.26386 0.70604 0.0
C1383 C 0.86124 0.30919 0.70588 0.0
C1384 C 0.88555 0.27804 0.72171 0.0
C1385 C 0.89662 0.30733 0.72934 0.0
H1386 H 0.20325 0.98773 0.63145 0.0
H1387 H 0.13949 0.00175 0.66358 0.0
H1388 H 0.17709 0.05267 0.67476 0.0
H1389 H 0.22781 0.09314 0.67497 0.0
H1390 H 0.29134 0.07894 0.64263 0.0
H1391 H 0.25378 0.02821 0.63149 0.0
C1392 C 0.19754 0.00183 0.64099 0.0
C1393 C 0.1686 0.99088 0.64676 0.0
C1394 C 0.21913 0.0311 0.64711 0.0
C1395 C 0.16159 0.0096 0.65894 0.0
C1396 C 0.18305 0.03872 0.6653 0.0
C1397 C 0.23354 0.07891 0.66565 0.0
C1398 C 0.26249 0.08977 0.65992 0.0
C1399 C 0.21186 0.0497 0.65941 0.0
C1400 C 0.2693 0.0712 0.64733 0.0
C1401 C 0.24785 0.04212 0.64102 0.0
H1402 H 0.99157 0.19712 0.63935 0.0
H1403 H 0.02837 0.29102 0.64164 0.0
H1404 H 0.98311 0.28557 0.65419 0.0
H1405 H 0.93214 0.25434 0.66243 0.0
H1406 H 0.89417 0.16064 0.66059 0.0
H1407 H 0.94063 0.16572 0.6501 0.0
C1408 C 0.98975 0.21639 0.64278 0.0
C1409 C 0.01343 0.24444 0.63931 0.0
C1410 C 0.96337 0.21314 0.65003 0.0
C1411 C 0.01061 0.26914 0.64397 0.0
C1412 C 0.98465 0.26609 0.65115 0.0
C1413 C 0.93421 0.23509 0.65994 0.0
C1414 C 0.91007 0.20727 0.66262 0.0
C1415 C 0.96079 0.23823 0.65388 0.0
C1416 C 0.91272 0.18237 0.65907 0.0
C1417 C 0.93921 0.18529 0.65294 0.0
H1418 H 0.81779 0.81328 0.65012 0.0
H1419 H 0.73076 0.74048 0.63382 0.0
H1420 H 0.74609 0.70586 0.64126 0.0
H1421 H 0.7839 0.69632 0.6526 0.0
H1422 H 0.87017 0.76865 0.67159 0.0
H1423 H 0.85546 0.80358 0.66307 0.0
C1424 C 0.80227 0.78983 0.64815 0.0
C1425 C 0.77326 0.77937 0.64131 0.0
C1426 C 0.81107 0.77006 0.65297 0.0
C1427 C 0.7532 0.74899 0.63911 0.0
C1428 C 0.76195 0.72921 0.64331 0.0
C1429 C 0.79957 0.7197 0.65467 0.0
C1430 C 0.82817 0.72993 0.66233 0.0
C1431 C 0.79079 0.7395 0.65023 0.0
C1432 C 0.84805 0.76031 0.66555 0.0
C1433 C 0.83966 0.78024 0.66068 0.0
H1434 H 0.00564 0.80542 0.65418 0.0
H1435 H 0.04127 0.74868 0.65027 0.0
H1436 H 0.99342 0.70647 0.65589 0.0
H1437 H 0.94084 0.68516 0.6599 0.0
H1438 H 0.90552 0.74199 0.66507 0.0
H1439 H 0.95374 0.78467 0.66117 0.0
C1440 C 0.00292 0.78383 0.65467 0.0
C1441 C 0.02687 0.78012 0.65158 0.0
C1442 C 0.97541 0.75969 0.65816 0.0
C1443 C 0.02316 0.75211 0.65257 0.0
C1444 C 0.99579 0.72793 0.65571 0.0
C1445 C 0.9439 0.707 0.6604 0.0
C1446 C 0.91992 0.7106 0.66317 0.0
C1447 C 0.97171 0.7314 0.65821 0.0
C1448 C 0.92383 0.73881 0.66353 0.0
C1449 C 0.95137 0.76318 0.6611 0.0
H1450 H 0.1934 0.18932 0.64222 0.0
H1451 H 0.24966 0.28325 0.64255 0.0
H1452 H 0.2913 0.27956 0.65388 0.0
H1453 H 0.31223 0.24945 0.66247 0.0
H1454 H 0.25586 0.15584 0.66319 0.0
H1455 H 0.21388 0.15955 0.653 0.0
C1456 C 0.21477 0.20897 0.64479 0.0
C1457 C 0.21842 0.2365 0.64132 0.0
C1458 C 0.23862 0.20675 0.65163 0.0
C1459 C 0.24621 0.26179 0.64503 0.0
C1460 C 0.27007 0.2597 0.6515 0.0
C1461 C 0.29065 0.22995 0.66059 0.0
C1462 C 0.28709 0.20251 0.66398 0.0
C1463 C 0.26659 0.2323 0.65469 0.0
C1464 C 0.25914 0.17731 0.66123 0.0
C1465 C 0.23512 0.17941 0.65519 0.0
H1466 H 0.77482 0.99012 0.64413 0.0
H1467 H 0.78538 0.01594 0.57901 0.0
H1468 H 0.80245 0.06673 0.59309 0.0
H1469 H 0.81494 0.10395 0.62421 0.0
H1470 H 0.80262 0.07666 0.68876 0.0
H1471 H 0.78608 0.02641 0.67468 0.0
C1472 C 0.78082 0.00679 0.63295 0.0
C1473 C 0.77886 0.99923 0.61056 0.0
C1474 C 0.79062 0.03578 0.64111 0.0
C1475 C 0.78669 0.02117 0.59634 0.0
C1476 C 0.79647 0.05021 0.60438 0.0
C1477 C 0.80861 0.08691 0.63512 0.0
C1478 C 0.811 0.09415 0.6576 0.0
C1479 C 0.79859 0.05779 0.62676 0.0
C1480 C 0.80245 0.07195 0.67156 0.0
C1481 C 0.79249 0.04307 0.66345 0.0
H1482 H 0.4637 0.34748 0.74637 0.0
H1483 H 0.52324 0.33169 0.70941 0.0
H1484 H 0.48256 0.285 0.69331 0.0
H1485 H 0.43056 0.24824 0.69067 0.0
H1486 H 0.37082 0.26427 0.72713 0.0
H1487 H 0.41141 0.31123 0.74287 0.0
C1488 C 0.46783 0.33391 0.73474 0.0
C1489 C 0.49651 0.34306 0.72914 0.0
C1490 C 0.44439 0.3071 0.72561 0.0
C1491 C 0.5014 0.32519 0.71401 0.0
C1492 C 0.47817 0.29846 0.70484 0.0
C1493 C 0.42627 0.26214 0.70179 0.0
C1494 C 0.39759 0.25284 0.70749 0.0
C1495 C 0.44963 0.28916 0.71063 0.0
C1496 C 0.39264 0.27087 0.72241 0.0
C1497 C 0.41583 0.29776 0.73138 0.0
H1498 H 0.68547 0.16733 0.7159 0.0
H1499 H 0.6437 0.07291 0.71272 0.0
H1500 H 0.68986 0.07617 0.70491 0.0
H1501 H 0.74249 0.10586 0.69984 0.0
H1502 H 0.78402 0.19997 0.70131 0.0
H1503 H 0.73778 0.19693 0.7088 0.0
C1504 C 0.6865 0.14749 0.71349 0.0
C1505 C 0.66118 0.11992 0.71507 0.0
C1506 C 0.7131 0.14948 0.70863 0.0
C1507 C 0.66282 0.0944 0.71161 0.0
C1508 C 0.68924 0.09624 0.70719 0.0
C1509 C 0.74126 0.12563 0.70166 0.0
C1510 C 0.76643 0.15302 0.69959 0.0
C1511 C 0.71454 0.12364 0.70578 0.0
C1512 C 0.76479 0.17858 0.70227 0.0
C1513 C 0.73838 0.17684 0.70672 0.0
H1514 H 0.89831 0.54571 0.72326 0.0
H1515 H 0.80582 0.4847 0.7226 0.0
H1516 H 0.79663 0.52002 0.70656 0.0
H1517 H 0.81503 0.56893 0.6937 0.0
H1518 H 0.90725 0.63169 0.69823 0.0
H1519 H 0.91658 0.59503 0.71158 0.0
C1520 C 0.87617 0.54015 0.7195 0.0
C1521 C 0.85277 0.51267 0.72397 0.0
C1522 C 0.87107 0.56088 0.71097 0.0
C1523 C 0.82416 0.50581 0.71934 0.0
C1524 C 0.81891 0.52593 0.71013 0.0
C1525 C 0.83713 0.57442 0.69752 0.0
C1526 C 0.86047 0.6028 0.69502 0.0
C1527 C 0.84219 0.55361 0.706 0.0
C1528 C 0.889 0.60993 0.70019 0.0
C1529 C 0.89432 0.58901 0.70779 0.0
H1530 H 0.44683 0.93977 0.2067 0.0
H1531 H 0.53158 0.95742 0.22801 0.0
H1532 H 0.55315 0.98628 0.19739 0.0
H1533 H 0.54832 0.00767 0.16497 0.0
H1534 H 0.46357 0.98924 0.14319 0.0
H1535 H 0.44169 0.95942 0.17342 0.0
C1536 C 0.47002 0.94985 0.20465 0.0
C1537 C 0.48751 0.94647 0.21981 0.0
C1538 C 0.48234 0.96635 0.18688 0.0
C1539 C 0.5175 0.95955 0.21668 0.0
C1540 C 0.52992 0.97617 0.19917 0.0
C1541 C 0.52508 0.99719 0.1669 0.0
C1542 C 0.50765 0.00085 0.1519 0.0
C1543 C 0.51261 0.97993 0.18427 0.0
C1544 C 0.47747 0.98668 0.15441 0.0
C1545 C 0.46496 0.96972 0.17176 0.0
H1546 H 0.05283 0.52752 0.22984 0.0
H1547 H 0.11642 0.5193 0.19256 0.0
H1548 H 0.08605 0.50765 0.15938 0.0
H1549 H 0.04243 0.50209 0.14098 0.0
H1550 H 0.98261 0.51697 0.17855 0.0
H1551 H 0.0102 0.52304 0.21157 0.0
C1552 C 0.05984 0.5227 0.2145 0.0
C1553 C 0.08664 0.52394 0.21364 0.0
C1554 C 0.04294 0.51728 0.19551 0.0
C1555 C 0.09577 0.51833 0.1936 0.0
C1556 C 0.07847 0.51178 0.17465 0.0
C1557 C 0.0355 0.50696 0.15631 0.0
C1558 C 0.01012 0.50875 0.15703 0.0
C1559 C 0.05222 0.5117 0.17537 0.0
C1560 C 1.00147 0.51461 0.17729 0.0
C1561 C 0.01744 0.51842 0.19629 0.0
H1562 H 0.40962 0.47879 0.19839 0.0
H1563 H 0.48822 0.54326 0.23508 0.0
H1564 H 0.51742 0.53469 0.20908 0.0
H1565 H 0.52108 0.51173 0.17427 0.0
H1566 H 0.44289 0.44987 0.13613 0.0
H1567 H 0.41318 0.45467 0.16411 0.0
C1568 C 0.43314 0.49078 0.2008 0.0
C1569 C 0.44656 0.51116 0.21905 0.0
C1570 C 0.44995 0.48639 0.18533 0.0
C1571 C 0.47708 0.52665 0.22178 0.0
C1572 C 0.49392 0.52206 0.20666 0.0
C1573 C 0.49753 0.49891 0.17232 0.0
C1574 C 0.48417 0.48045 0.15323 0.0
C1575 C 0.48063 0.50225 0.18825 0.0
C1576 C 0.45363 0.46432 0.15068 0.0
C1577 C 0.43666 0.46708 0.16665 0.0
H1578 H 0.91911 0.47989 0.8234 0.0
H1579 H 0.99053 0.52507 0.78194 0.0
H1580 H 0.02521 0.54044 0.81272 0.0
H1581 H 0.03548 0.53791 0.85078 0.0
H1582 H 0.96427 0.49119 0.892 0.0
H1583 H 0.92937 0.47994 0.86204 0.0
C1584 C 0.94224 0.49347 0.82114 0.0
C1585 C 0.95216 0.50111 0.80032 0.0
C1586 C 0.96216 0.50181 0.83886 0.0
C1587 C 0.98225 0.51869 0.79773 0.0
C1588 C 0.00214 0.52744 0.81532 0.0
C1589 C 0.01231 0.52527 0.8532 0.0
C1590 C 0.00252 0.51525 0.87355 0.0
C1591 C 0.99237 0.51853 0.83584 0.0
C1592 C 0.97242 0.49937 0.87654 0.0
C1593 C 0.95243 0.49277 0.85938 0.0
H1594 H 0.55601 0.43596 0.82093 0.0
H1595 H 0.60171 0.52483 0.80261 0.0
H1596 H 0.58349 0.54052 0.83374 0.0
H1597 H 0.55135 0.52806 0.86435 0.0
H1598 H 0.50305 0.43819 0.88057 0.0
H1599 H 0.52605 0.42406 0.85232 0.0
C1600 C 0.56238 0.45888 0.82384 0.0
C1601 C 0.58008 0.47913 0.80931 0.0
C1602 C 0.55123 0.46757 0.84139 0.0
C1603 C 0.58804 0.50873 0.81345 0.0
C1604 C 0.57753 0.5177 0.83121 0.0
C1605 C 0.54578 0.50536 0.86169 0.0
C1606 C 0.5253 0.48424 0.87458 0.0
C1607 C 0.55851 0.49714 0.84496 0.0
C1608 C 0.51893 0.45506 0.87116 0.0
C1609 C 0.53191 0.44686 0.85485 0.0
H1610 H 0.51002 0.08448 0.81167 0.0
H1611 H 0.56026 0.04752 0.78603 0.0
H1612 H 0.54832 0.01742 0.81647 0.0
H1613 H 0.5219 4e-05 0.84971 0.0
H1614 H 0.47354 0.03859 0.87615 0.0
H1615 H 0.48646 0.06966 0.84614 0.0
C1616 C 0.51847 0.06994 0.81278 0.0
C1617 C 0.53583 0.06812 0.79646 0.0
C1618 C 0.51174 0.05287 0.83045 0.0
C1619 C 0.54689 0.04942 0.79834 0.0
C1620 C 0.53996 0.03208 0.81571 0.0
C1621 C 0.51424 0.01528 0.84884 0.0
C1622 C 0.49657 0.01687 0.86496 0.0
C1623 C 0.52211 0.03335 0.83171 0.0
C1624 C 0.48716 0.03702 0.86391 0.0
C1625 C 0.49449 0.0547 0.84674 0.0
H1626 H 0.18895 0.29928 0.55855 0.0
H1627 H 0.09875 0.26391 0.5391 0.0
H1628 H 0.11319 0.28927 0.50625 0.0
H1629 H 0.15143 0.32337 0.48367 0.0
H1630 H 0.2416 0.35986 0.5035 0.0
H1631 H 0.22719 0.33238 0.53545 0.0
C1632 C 0.17243 0.29689 0.54705 0.0
C1633 C 0.14278 0.27967 0.55142 0.0
C1634 C 0.18088 0.31197 0.52825 0.0
C1635 C 0.12174 0.27706 0.5363 0.0
C1636 C 0.12996 0.29159 0.51745 0.0
C1637 C 0.16792 0.32505 0.49486 0.0
C1638 C 0.19756 0.34377 0.4912 0.0
C1639 C 0.15947 0.30937 0.51336 0.0
C1640 C 0.21864 0.34593 0.50604 0.0
C1641 C 0.21041 0.33011 0.52429 0.0
H1642 H 0.74177 0.8789 0.54537 0.0
H1643 H 0.67216 0.80009 0.56898 0.0
H1644 H 0.64335 0.78913 0.53531 0.0
H1645 H 0.63768 0.80213 0.49933 0.0
H1646 H 0.70703 0.88104 0.47564 0.0
H1647 H 0.73609 0.89198 0.50926 0.0
C1648 C 0.72009 0.85968 0.54331 0.0
C1649 C 0.70888 0.8407 0.55982 0.0
C1650 C 0.70362 0.85349 0.52389 0.0
C1651 C 0.68124 0.81513 0.55653 0.0
C1652 C 0.6647 0.80887 0.53732 0.0
C1653 C 0.65904 0.82187 0.50163 0.0
C1654 C 0.67013 0.84081 0.48509 0.0
C1655 C 0.67561 0.82797 0.52094 0.0
C1656 C 0.69809 0.86601 0.4881 0.0
C1657 C 0.71467 0.87233 0.50734 0.0
H1658 H 0.134 0.87829 0.54509 0.0
H1659 H 0.13132 0.80533 0.5733 0.0
H1660 H 0.14978 0.79383 0.5404 0.0
H1661 H 0.16956 0.80641 0.50445 0.0
H1662 H 0.17304 0.88005 0.47686 0.0
H1663 H 0.15126 0.88924 0.50867 0.0
C1664 C 0.13715 0.85966 0.54402 0.0
C1665 C 0.13148 0.84286 0.56175 0.0
C1666 C 0.14814 0.85342 0.5252 0.0
C1667 C 0.13557 0.81872 0.55995 0.0
C1668 C 0.14626 0.81219 0.54117 0.0
C1669 C 0.1656 0.8245 0.50547 0.0
C1670 C 0.17305 0.84261 0.48839 0.0
C1671 C 0.15318 0.82977 0.52387 0.0
C1672 C 0.16733 0.86566 0.48973 0.0
C1673 C 0.15498 0.87101 0.50794 0.0
H1674 H 0.60502 0.84738 0.14603 0.0
H1675 H 0.60515 0.77125 0.11686 0.0
H1676 H 0.639 0.77619 0.14535 0.0
H1677 H 0.66728 0.80091 0.1795 0.0
H1678 H 0.6638 0.87408 0.21083 0.0
H1679 H 0.63238 0.87141 0.18086 0.0
C1680 C 0.61259 0.83198 0.14589 0.0
C1681 C 0.60353 0.80976 0.12875 0.0
C1682 C 0.63132 0.83431 0.16286 0.0
C1683 C 0.61306 0.78961 0.12903 0.0
C1684 C 0.63206 0.79208 0.14561 0.0
C1685 C 0.6599 0.81647 0.17957 0.0
C1686 C 0.66798 0.83782 0.19713 0.0
C1687 C 0.64136 0.81434 0.16258 0.0
C1688 C 0.65784 0.85751 0.19737 0.0
C1689 C 0.63989 0.85596 0.18028 0.0
H1690 H 0.21429 0.79682 0.13856 0.0
H1691 H 0.20963 0.86974 0.11733 0.0
H1692 H 0.18943 0.87457 0.15158 0.0
H1693 H 0.16957 0.85554 0.18641 0.0
H1694 H 0.17331 0.7818 0.20682 0.0
H1695 H 0.19751 0.77995 0.17405 0.0
C1696 C 0.20921 0.81403 0.14146 0.0
C1697 C 0.21323 0.8327 0.12527 0.0
C1698 C 0.19716 0.81636 0.16099 0.0
C1699 C 0.20669 0.85499 0.12946 0.0
C1700 C 0.19497 0.85767 0.149 0.0
C1701 C 0.17569 0.83908 0.18364 0.0
C1702 C 0.16949 0.81873 0.19895 0.0
C1703 C 0.18946 0.83801 0.16466 0.0
C1704 C 0.178 0.79784 0.19536 0.0
C1705 C 0.19173 0.79668 0.17658 0.0
H1706 H 0.2255 0.39123 0.14507 0.0
H1707 H 0.13772 0.35588 0.11917 0.0
H1708 H 0.11835 0.32939 0.15094 0.0
H1709 H 0.12575 0.31622 0.18621 0.0
H1710 H 0.21279 0.352 0.21343 0.0
H1711 H 0.2329 0.37849 0.18133 0.0
C1712 C 0.20217 0.37764 0.14638 0.0
C1713 C 0.18317 0.37561 0.12965 0.0
C1714 C 0.19095 0.3626 0.16503 0.0
C1715 C 0.15294 0.35807 0.13176 0.0
C1716 C 0.14175 0.3428 0.14995 0.0
C1717 C 0.14914 0.32965 0.18506 0.0
C1718 C 0.16771 0.33193 0.20213 0.0
C1719 C 0.16049 0.34491 0.16668 0.0
C1720 C 0.19798 0.34994 0.20056 0.0
C1721 C 0.20949 0.36499 0.18215 0.0
H1722 H 0.77639 0.59685 0.87426 0.0
H1723 H 0.85813 0.61241 0.90108 0.0
H1724 H 0.88322 0.63982 0.87063 0.0
H1725 H 0.8824 0.66063 0.83682 0.0
H1726 H 0.80084 0.64464 0.80958 0.0
H1727 H 0.77529 0.61598 0.83959 0.0
C1728 C 0.79968 0.60615 0.87344 0.0
C1729 C 0.81529 0.60264 0.8901 0.0
C1730 C 0.81407 0.62186 0.85577 0.0
C1731 C 0.84546 0.6147 0.88858 0.0
C1732 C 0.8599 0.63048 0.87116 0.0
C1733 C 0.85904 0.65094 0.8375 0.0
C1734 C 0.84359 0.65495 0.82106 0.0
C1735 C 0.84449 0.63443 0.85477 0.0
C1736 C 0.81324 0.64178 0.82197 0.0
C1737 C 0.79863 0.6255 0.83918 0.0
H1738 H 0.38035 0.2051 0.9007 0.0
H1739 H 0.43979 0.18795 0.86504 0.0
H1740 H 0.40899 0.17486 0.83192 0.0
H1741 H 0.36558 0.16919 0.81317 0.0
H1742 H 0.30936 0.19166 0.84867 0.0
H1743 H 0.33822 0.20115 0.88184 0.0
C1744 C 0.38642 0.19819 0.88573 0.0
C1745 C 0.41214 0.19721 0.88534 0.0
C1746 C 0.36916 0.19163 0.86672 0.0
C1747 C 0.42003 0.18878 0.86574 0.0
C1748 C 0.40245 0.18135 0.84682 0.0
C1749 C 0.35976 0.17653 0.82806 0.0
C1750 C 0.33501 0.17942 0.82824 0.0
C1751 C 0.37709 0.18297 0.84709 0.0
C1752 C 0.32775 0.18849 0.84793 0.0
C1753 C 0.34444 0.19422 0.86697 0.0
H1754 H 0.83053 0.20348 0.90105 0.0
H1755 H 0.74389 0.16714 0.87252 0.0
H1756 H 0.75998 0.15694 0.83773 0.0
H1757 H 0.79942 0.15996 0.81521 0.0
H1758 H 0.88611 0.19866 0.84442 0.0
H1759 H 0.86907 0.20615 0.87918 0.0
C1760 C 0.81497 0.19312 0.88732 0.0
C1761 C 0.78601 0.18612 0.88946 0.0
C1762 C 0.82443 0.18781 0.86743 0.0
C1763 C 0.7663 0.17274 0.87138 0.0
C1764 C 0.77553 0.167 0.85146 0.0
C1765 C 0.81458 0.17015 0.82917 0.0
C1766 C 0.84401 0.17853 0.82717 0.0
C1767 C 0.80468 0.17479 0.84923 0.0
C1768 C 0.86328 0.19147 0.8455 0.0
C1769 C 0.85359 0.19595 0.86541 0.0
H1770 H 0.25397 0.15924 0.48196 0.0
H1771 H 0.3039 0.12826 0.44671 0.0
H1772 H 0.33516 0.13945 0.47879 0.0
H1773 H 0.34663 0.15497 0.51725 0.0
H1774 H 0.29847 0.18775 0.55281 0.0
H1775 H 0.26799 0.17838 0.52033 0.0
C1776 C 0.27187 0.15522 0.48124 0.0
C1777 C 0.27635 0.14271 0.46192 0.0
C1778 C 0.2899 0.16164 0.49988 0.0
C1779 C 0.29974 0.13773 0.46132 0.0
C1780 C 0.31767 0.14406 0.47971 0.0
C1781 C 0.32987 0.16065 0.51789 0.0
C1782 C 0.32486 0.17191 0.53755 0.0
C1783 C 0.3127 0.1556 0.49913 0.0
C1784 C 0.30255 0.17853 0.53802 0.0
C1785 C 0.2852 0.17338 0.5194 0.0
H1786 H 0.85204 0.13885 0.46564 0.0
H1787 H 0.93769 0.18223 0.49711 0.0
H1788 H 0.91898 0.19406 0.52985 0.0
H1789 H 0.87804 0.19149 0.54957 0.0
H1790 H 0.79221 0.14678 0.51807 0.0
H1791 H 0.81119 0.13575 0.48533 0.0
C1792 C 0.86647 0.15023 0.47981 0.0
C1793 C 0.89602 0.15893 0.47915 0.0
C1794 C 0.85556 0.15685 0.49853 0.0
C1795 C 0.91478 0.17508 0.4973 0.0
C1796 C 0.90409 0.1818 0.51602 0.0
C1797 C 0.86344 0.17912 0.5356 0.0
C1798 C 0.83373 0.16999 0.5363 0.0
C1799 C 0.87447 0.17266 0.51684 0.0
C1800 C 0.81522 0.15441 0.5179 0.0
C1801 C 0.82602 0.14793 0.49921 0.0
H1802 H 0.85332 0.74491 0.47933 0.0
H1803 H 0.90279 0.70784 0.45222 0.0
H1804 H 0.89336 0.67921 0.48325 0.0
H1805 H 0.86905 0.66272 0.51733 0.0
H1806 H 0.82152 0.70126 0.54541 0.0
H1807 H 0.83233 0.73138 0.51494 0.0
C1808 C 0.86218 0.7307 0.48026 0.0
C1809 C 0.87855 0.7284 0.4633 0.0
C1810 C 0.85694 0.71446 0.49834 0.0
C1811 C 0.89015 0.71012 0.46498 0.0
C1812 C 0.88467 0.69361 0.48271 0.0
C1813 C 0.86118 0.67782 0.51678 0.0
C1814 C 0.84429 0.67959 0.53348 0.0
C1815 C 0.86778 0.69529 0.49934 0.0
C1816 C 0.83459 0.69956 0.53276 0.0
C1817 C 0.84067 0.71668 0.5153 0.0
loop_
_geom_bond_atom_site_label_1
_geom_bond_atom_site_label_2
_geom_bond_distance
_geom_bond_site_symmetry_2
_ccdc_geom_bond_type
O0 Cd1 2.300 . S
O0 C7 1.275 . S
Cd1 O0 2.300 . S
Cd1 O9 2.381 . S
Cd1 O10 2.378 . S
O2 Cd3 2.385 . S
O2 C7 1.255 . S
Cd3 O2 2.385 . S
Cd3 O4 2.317 . S
O4 Cd3 2.317 . S
O4 C5 1.232 . S
C5 O4 1.232 . S
C5 O6 1.218 . S
O6 C5 1.218 . S
C7 O0 1.275 . S
C7 O2 1.255 . S
C8 O9 1.258 . S
C8 O10 1.256 . S
O9 Cd1 2.381 . S
O9 C8 1.258 . S
O10 Cd1 2.378 . S
O10 C8 1.256 . S
O11 Cd12 2.300 . S
O11 C18 1.275 . S
Cd12 O11 2.300 . S
Cd12 O20 2.381 . S
Cd12 O21 2.378 . S
O13 Cd14 2.385 . S
O13 C18 1.255 . S
Cd14 O13 2.385 . S
Cd14 O15 2.317 . S
O15 Cd14 2.317 . S
O15 C16 1.232 . S
C16 O15 1.232 . S
C16 O17 1.218 . S
O17 C16 1.218 . S
C18 O11 1.275 . S
C18 O13 1.255 . S
C19 O20 1.258 . S
C19 O21 1.256 . S
O20 Cd12 2.381 . S
O20 C19 1.258 . S
O21 Cd12 2.378 . S
O21 C19 1.256 . S
O22 Cd23 2.300 . S
O22 C29 1.275 . S
Cd23 O22 2.300 . S
Cd23 O31 2.381 . S
Cd23 O32 2.378 . S
O24 Cd25 2.385 . S
O24 C29 1.255 . S
Cd25 O24 2.385 . S
Cd25 O26 2.317 . S
O26 Cd25 2.317 . S
O26 C27 1.232 . S
C27 O26 1.232 . S
C27 O28 1.218 . S
O28 C27 1.218 . S
C29 O22 1.275 . S
C29 O24 1.255 . S
C30 O31 1.258 . S
C30 O32 1.256 . S
O31 Cd23 2.381 . S
O31 C30 1.258 . S
O32 Cd23 2.378 . S
O32 C30 1.256 . S
O33 Cd34 2.300 . S
O33 C40 1.275 . S
Cd34 O33 2.300 . S
Cd34 O42 2.381 . S
Cd34 O43 2.378 . S
O35 Cd36 2.385 . S
O35 C40 1.255 . S
Cd36 O35 2.385 . S
Cd36 O37 2.317 . S
O37 Cd36 2.317 . S
O37 C38 1.232 . S
C38 O37 1.232 . S
C38 O39 1.218 . S
O39 C38 1.218 . S
C40 O33 1.275 . S
C40 O35 1.255 . S
C41 O42 1.258 . S
C41 O43 1.256 . S
O42 Cd34 2.381 . S
O42 C41 1.258 . S
O43 Cd34 2.378 . S
O43 C41 1.256 . S
O44 Cd45 2.300 . S
O44 C51 1.275 . S
Cd45 O44 2.300 . S
Cd45 O53 2.381 . S
Cd45 O54 2.378 . S
O46 Cd47 2.385 . S
O46 C51 1.255 . S
Cd47 O46 2.385 . S
Cd47 O48 2.317 . S
O48 Cd47 2.317 . S
O48 C49 1.232 . S
C49 O48 1.232 . S
C49 O50 1.218 . S
O50 C49 1.218 . S
C51 O44 1.275 . S
C51 O46 1.255 . S
C52 O53 1.258 . S
C52 O54 1.256 . S
O53 Cd45 2.381 . S
O53 C52 1.258 . S
O54 Cd45 2.378 . S
O54 C52 1.256 . S
O55 Cd56 2.300 . S
O55 C62 1.275 . S
Cd56 O55 2.300 . S
Cd56 O64 2.381 . S
Cd56 O65 2.378 . S
O57 Cd58 2.385 . S
O57 C62 1.255 . S
Cd58 O57 2.385 . S
Cd58 O59 2.317 . S
O59 Cd58 2.317 . S
O59 C60 1.232 . S
C60 O59 1.232 . S
C60 O61 1.218 . S
O61 C60 1.218 . S
C62 O55 1.275 . S
C62 O57 1.255 . S
C63 O64 1.258 . S
C63 O65 1.256 . S
O64 Cd56 2.381 . S
O64 C63 1.258 . S
O65 Cd56 2.378 . S
O65 C63 1.256 . S
O66 Cd67 2.300 . S
O66 C73 1.275 . S
Cd67 O66 2.300 . S
Cd67 O75 2.381 . S
Cd67 O76 2.378 . S
O68 Cd69 2.385 . S
O68 C73 1.255 . S
Cd69 O68 2.385 . S
Cd69 O70 2.317 . S
O70 Cd69 2.317 . S
O70 C71 1.232 . S
C71 O70 1.232 . S
C71 O72 1.218 . S
O72 C71 1.218 . S
C73 O66 1.275 . S
C73 O68 1.255 . S
C74 O75 1.258 . S
C74 O76 1.256 . S
O75 Cd67 2.381 . S
O75 C74 1.258 . S
O76 Cd67 2.378 . S
O76 C74 1.256 . S
O77 Cd78 2.300 . S
O77 C84 1.275 . S
Cd78 O77 2.300 . S
Cd78 O86 2.381 . S
Cd78 O87 2.378 . S
O79 Cd80 2.385 . S
O79 C84 1.255 . S
Cd80 O79 2.385 . S
Cd80 O81 2.317 . S
O81 Cd80 2.317 . S
O81 C82 1.232 . S
C82 O81 1.232 . S
C82 O83 1.218 . S
O83 C82 1.218 . S
C84 O77 1.275 . S
C84 O79 1.255 . S
C85 O86 1.258 . S
C85 O87 1.256 . S
O86 Cd78 2.381 . S
O86 C85 1.258 . S
O87 Cd78 2.378 . S
O87 C85 1.256 . S
O88 Cd89 2.300 . S
O88 C95 1.275 . S
Cd89 O88 2.300 . S
Cd89 O97 2.381 . S
Cd89 O98 2.378 . S
O90 Cd91 2.385 . S
O90 C95 1.255 . S
Cd91 O90 2.385 . S
Cd91 O92 2.317 . S
O92 Cd91 2.317 . S
O92 C93 1.232 . S
C93 O92 1.232 . S
C93 O94 1.218 . S
O94 C93 1.218 . S
C95 O88 1.275 . S
C95 O90 1.255 . S
C96 O97 1.258 . S
C96 O98 1.256 . S
O97 Cd89 2.381 . S
O97 C96 1.258 . S
O98 Cd89 2.378 . S
O98 C96 1.256 . S
O99 Cd100 2.300 . S
O99 C106 1.275 . S
Cd100 O99 2.300 . S
Cd100 O108 2.381 . S
Cd100 O109 2.378 . S
O101 Cd102 2.385 . S
O101 C106 1.255 . S
Cd102 O101 2.385 . S
Cd102 O103 2.317 . S
O103 Cd102 2.317 . S
O103 C104 1.232 . S
C104 O103 1.232 . S
C104 O105 1.218 . S
O105 C104 1.218 . S
C106 O99 1.275 . S
C106 O101 1.255 . S
C107 O108 1.258 . S
C107 O109 1.256 . S
O108 Cd100 2.381 . S
O108 C107 1.258 . S
O109 Cd100 2.378 . S
O109 C107 1.256 . S
O110 Cd111 2.300 . S
O110 C117 1.275 . S
Cd111 O110 2.300 . S
Cd111 O119 2.381 . S
Cd111 O120 2.378 . S
O112 Cd113 2.385 . S
O112 C117 1.255 . S
Cd113 O112 2.385 . S
Cd113 O114 2.317 . S
O114 Cd113 2.317 . S
O114 C115 1.232 . S
C115 O114 1.232 . S
C115 O116 1.218 . S
O116 C115 1.218 . S
C117 O110 1.275 . S
C117 O112 1.255 . S
C118 O119 1.258 . S
C118 O120 1.256 . S
O119 Cd111 2.381 . S
O119 C118 1.258 . S
O120 Cd111 2.378 . S
O120 C118 1.256 . S
O121 Cd122 2.300 . S
O121 C128 1.275 . S
Cd122 O121 2.300 . S
Cd122 O130 2.381 . S
Cd122 O131 2.378 . S
O123 Cd124 2.385 . S
O123 C128 1.255 . S
Cd124 O123 2.385 . S
Cd124 O125 2.317 . S
O125 Cd124 2.317 . S
O125 C126 1.232 . S
C126 O125 1.232 . S
C126 O127 1.218 . S
O127 C126 1.218 . S
C128 O121 1.275 . S
C128 O123 1.255 . S
C129 O130 1.258 . S
C129 O131 1.256 . S
O130 Cd122 2.381 . S
O130 C129 1.258 . S
O131 Cd122 2.378 . S
O131 C129 1.256 . S
O132 Cd133 2.300 . S
O132 C139 1.275 . S
Cd133 O132 2.300 . S
Cd133 O141 2.381 . S
Cd133 O142 2.378 . S
O134 Cd135 2.385 . S
O134 C139 1.255 . S
Cd135 O134 2.385 . S
Cd135 O136 2.317 . S
O136 Cd135 2.317 . S
O136 C137 1.232 . S
C137 O136 1.232 . S
C137 O138 1.218 . S
O138 C137 1.218 . S
C139 O132 1.275 . S
C139 O134 1.255 . S
C140 O141 1.258 . S
C140 O142 1.256 . S
O141 Cd133 2.381 . S
O141 C140 1.258 . S
O142 Cd133 2.378 . S
O142 C140 1.256 . S
O143 Cd144 2.300 . S
O143 C150 1.275 . S
Cd144 O143 2.300 . S
Cd144 O152 2.381 . S
Cd144 O153 2.378 . S
O145 Cd146 2.385 . S
O145 C150 1.255 . S
Cd146 O145 2.385 . S
Cd146 O147 2.317 . S
O147 Cd146 2.317 . S
O147 C148 1.232 . S
C148 O147 1.232 . S
C148 O149 1.218 . S
O149 C148 1.218 . S
C150 O143 1.275 . S
C150 O145 1.255 . S
C151 O152 1.258 . S
C151 O153 1.256 . S
O152 Cd144 2.381 . S
O152 C151 1.258 . S
O153 Cd144 2.378 . S
O153 C151 1.256 . S
O154 Cd155 2.300 . S
O154 C161 1.275 . S
Cd155 O154 2.300 . S
Cd155 O163 2.381 . S
Cd155 O164 2.378 . S
O156 Cd157 2.385 . S
O156 C161 1.255 . S
Cd157 O156 2.385 . S
Cd157 O158 2.317 . S
O158 Cd157 2.317 . S
O158 C159 1.232 . S
C159 O158 1.232 . S
C159 O160 1.218 . S
O160 C159 1.218 . S
C161 O154 1.275 . S
C161 O156 1.255 . S
C162 O163 1.258 . S
C162 O164 1.256 . S
O163 Cd155 2.381 . S
O163 C162 1.258 . S
O164 Cd155 2.378 . S
O164 C162 1.256 . S
O165 Cd166 2.300 . S
O165 C172 1.275 . S
Cd166 O165 2.300 . S
Cd166 O174 2.381 . S
Cd166 O175 2.378 . S
O167 Cd168 2.385 . S
O167 C172 1.255 . S
Cd168 O167 2.385 . S
Cd168 O169 2.317 . S
O169 Cd168 2.317 . S
O169 C170 1.232 . S
C170 O169 1.232 . S
C170 O171 1.218 . S
O171 C170 1.218 . S
C172 O165 1.275 . S
C172 O167 1.255 . S
C173 O174 1.258 . S
C173 O175 1.256 . S
O174 Cd166 2.381 . S
O174 C173 1.258 . S
O175 Cd166 2.378 . S
O175 C173 1.256 . S
O176 Cd177 2.300 . S
O176 C183 1.275 . S
Cd177 O176 2.300 . S
Cd177 O185 2.381 . S
Cd177 O186 2.378 . S
O178 Cd179 2.385 . S
O178 C183 1.255 . S
Cd179 O178 2.385 . S
Cd179 O180 2.317 . S
O180 Cd179 2.317 . S
O180 C181 1.232 . S
C181 O180 1.232 . S
C181 O182 1.218 . S
O182 C181 1.218 . S
C183 O176 1.275 . S
C183 O178 1.255 . S
C184 O185 1.258 . S
C184 O186 1.256 . S
O185 Cd177 2.381 . S
O185 C184 1.258 . S
O186 Cd177 2.378 . S
O186 C184 1.256 . S
O187 Cd188 2.300 . S
O187 C194 1.275 . S
Cd188 O187 2.300 . S
Cd188 O196 2.381 . S
Cd188 O197 2.378 . S
O189 Cd190 2.385 . S
O189 C194 1.255 . S
Cd190 O189 2.385 . S
Cd190 O191 2.317 . S
O191 Cd190 2.317 . S
O191 C192 1.232 . S
C192 O191 1.232 . S
C192 O193 1.218 . S
O193 C192 1.218 . S
C194 O187 1.275 . S
C194 O189 1.255 . S
C195 O196 1.258 . S
C195 O197 1.256 . S
O196 Cd188 2.381 . S
O196 C195 1.258 . S
O197 Cd188 2.378 . S
O197 C195 1.256 . S
Tb198 N229 2.660 . S
Tb198 N236 2.600 . S
Tb198 O242 2.546 . S
Tb198 O243 2.610 1_566 S
Tb198 O245 2.320 1_565 S
Tb198 O246 2.552 1_565 S
Tb198 O247 2.413 1_565 S
Tb198 O249 2.362 1_556 S
Tb198 O250 2.421 . S
Tb198 C262 2.833 . S
C199 C202 1.432 . S
C199 C203 1.414 . S
C199 N206 1.359 . S
C200 C202 1.417 . S
C200 C204 1.432 . S
C200 C212 1.410 . S
C201 C203 1.444 . S
C201 C204 1.317 . S
C201 H224 0.929 . S
C202 C199 1.432 . S
C202 C200 1.417 . S
C202 N210 1.360 . S
C203 C199 1.414 . S
C203 C201 1.444 . S
C203 C208 1.385 . S
C204 C200 1.432 . S
C204 C201 1.317 . S
C204 H216 0.930 . S
C205 C207 1.392 . S
C205 C208 1.370 . S
C205 H217 0.931 . S
N206 C199 1.359 . S
N206 C207 1.327 . S
N206 Tb209 2.600 . S
C207 C205 1.392 . S
C207 N206 1.327 . S
C207 H214 0.930 . S
C208 C203 1.385 . S
C208 C205 1.370 . S
C208 H227 0.930 . S
Tb209 N206 2.600 . S
Tb209 N210 2.660 . S
Tb209 O243 2.362 . S
Tb209 O244 2.421 . S
Tb209 O248 2.546 . S
Tb209 O249 2.610 1_545 S
Tb209 O251 2.320 1_545 S
Tb209 O252 2.552 1_545 S
Tb209 O253 2.413 . S
Tb209 C273 2.833 . S
N210 C202 1.360 . S
N210 Tb209 2.660 . S
N210 C211 1.305 . S
C211 N210 1.305 . S
C211 C213 1.407 . S
C211 H218 0.930 . S
C212 C200 1.410 . S
C212 C213 1.345 . S
C212 H220 0.930 . S
C213 C211 1.407 . S
C213 C212 1.345 . S
C213 H215 0.930 . S
H214 C207 0.930 . S
H215 C213 0.930 . S
H216 C204 0.930 . S
H217 C205 0.931 . S
H218 C211 0.930 . S
H219 C233 0.930 . S
H220 C212 0.930 . S
H221 C239 0.930 . S
H222 C230 0.930 . S
H223 C237 0.931 . S
H224 C201 0.929 . S
H225 C231 0.930 . S
H226 C264 0.930 . S
H227 C208 0.930 . S
H228 C263 0.929 . S
N229 Tb198 2.660 . S
N229 C230 1.305 . S
N229 C234 1.360 . S
C230 H222 0.930 . S
C230 N229 1.305 . S
C230 C233 1.407 . S
C231 H225 0.930 . S
C231 C232 1.410 . S
C231 C233 1.345 . S
C232 C231 1.410 . S
C232 C234 1.417 . S
C232 C264 1.432 . S
C233 H219 0.930 . S
C233 C230 1.407 . S
C233 C231 1.345 . S
C234 N229 1.360 . S
C234 C232 1.417 . S
C234 C238 1.432 . S
H235 C240 0.930 . S
N236 Tb198 2.600 . S
N236 C238 1.359 . S
N236 C239 1.327 . S
C237 H223 0.931 . S
C237 C239 1.392 . S
C237 C240 1.370 . S
C238 C234 1.432 . S
C238 N236 1.359 . S
C238 C241 1.414 . S
C239 H221 0.930 . S
C239 N236 1.327 . S
C239 C237 1.392 . S
C240 H235 0.930 . S
C240 C237 1.370 . S
C240 C241 1.385 . S
C241 C238 1.414 . S
C241 C240 1.385 . S
C241 C263 1.444 . S
O242 Tb198 2.546 . S
O242 C262 1.251 . S
O243 Tb198 2.610 1_544 S
O243 Tb209 2.362 . S
O243 C254 1.283 1_554 S
O244 Tb209 2.421 . S
O244 C261 1.294 . S
O245 Tb198 2.320 1_545 S
O245 C261 1.239 1_556 S
O246 Tb198 2.552 1_545 S
O246 C254 1.243 . S
O247 Tb198 2.413 1_545 S
O247 C262 1.256 1_545 S
O248 Tb209 2.546 . S
O248 C273 1.251 . S
O249 Tb198 2.362 1_554 S
O249 Tb209 2.610 1_565 S
O249 C265 1.283 . S
O250 Tb198 2.421 . S
O250 C272 1.262 1_556 S
O251 Tb209 2.320 1_565 S
O251 C272 1.260 . S
O252 Tb209 2.552 1_565 S
O252 C265 1.243 . S
O253 Tb209 2.413 . S
O253 C273 1.256 . S
C254 O243 1.283 1_556 S
C254 O246 1.243 . S
C255 C257 1.382 1_565 S
C255 C259 1.393 . S
C255 C262 1.500 . S
C256 C257 1.400 . S
C256 C258 1.384 . S
C257 C255 1.382 1_545 S
C257 C256 1.400 . S
C257 H274 0.930 . S
C258 C256 1.384 . S
C258 C260 1.392 1_545 S
C258 H275 0.931 . S
C259 C255 1.393 . S
C259 C260 1.401 . S
C259 H276 0.930 . S
C260 C258 1.392 1_565 S
C260 C259 1.401 . S
C260 H277 0.930 . S
C261 O244 1.294 . S
C261 O245 1.239 1_554 S
C262 Tb198 2.833 . S
C262 O242 1.251 . S
C262 O247 1.256 1_565 S
C262 C255 1.500 . S
C263 H228 0.929 . S
C263 C241 1.444 . S
C263 C264 1.317 . S
C264 H226 0.930 . S
C264 C232 1.432 . S
C264 C263 1.317 . S
C265 O249 1.283 . S
C265 O252 1.243 . S
C266 C267 1.382 1_545 S
C266 C270 1.393 . S
C266 C273 1.500 . S
C267 C266 1.382 1_565 S
C267 C268 1.400 . S
C267 H278 0.930 . S
C268 C267 1.400 . S
C268 C269 1.384 . S
C269 C268 1.384 . S
C269 C271 1.392 1_565 S
C269 H279 0.931 . S
C270 C266 1.393 . S
C270 C271 1.401 . S
C270 H280 0.930 . S
C271 C269 1.392 1_545 S
C271 C270 1.401 . S
C271 H281 0.930 . S
C272 O250 1.262 1_554 S
C272 O251 1.260 . S
C273 Tb209 2.833 . S
C273 O248 1.251 . S
C273 O253 1.256 . S
C273 C266 1.500 . S
H274 C257 0.930 . S
H275 C258 0.931 . S
H276 C259 0.930 . S
H277 C260 0.930 . S
H278 C267 0.930 . S
H279 C269 0.931 . S
H280 C270 0.930 . S
H281 C271 0.930 . S
Tb282 N313 2.660 . S
Tb282 N320 2.600 . S
Tb282 O326 2.546 . S
Tb282 O327 2.610 1_456 S
Tb282 O329 2.320 1_455 S
Tb282 O330 2.552 1_455 S
Tb282 O331 2.413 1_455 S
Tb282 O333 2.362 1_556 S
Tb282 O334 2.421 1_556 S
Tb282 C346 2.833 . S
C283 C286 1.432 . S
C283 C287 1.414 . S
C283 N290 1.359 . S
C284 C286 1.417 . S
C284 C288 1.432 . S
C284 C296 1.410 . S
C285 C287 1.444 . S
C285 C288 1.317 . S
C285 H308 0.929 . S
C286 C283 1.432 . S
C286 C284 1.417 . S
C286 N294 1.360 . S
C287 C283 1.414 . S
C287 C285 1.444 . S
C287 C292 1.385 . S
C288 C284 1.432 . S
C288 C285 1.317 . S
C288 H300 0.930 . S
C289 C291 1.392 . S
C289 C292 1.370 . S
C289 H301 0.931 . S
N290 C283 1.359 . S
N290 C291 1.327 . S
N290 Tb293 2.600 . S
C291 C289 1.392 . S
C291 N290 1.327 . S
C291 H298 0.930 . S
C292 C287 1.385 . S
C292 C289 1.370 . S
C292 H311 0.930 . S
Tb293 N290 2.600 . S
Tb293 N294 2.660 . S
Tb293 O327 2.362 . S
Tb293 O328 2.421 . S
Tb293 O332 2.546 . S
Tb293 O333 2.610 1_655 S
Tb293 O335 2.320 1_655 S
Tb293 O336 2.552 1_655 S
Tb293 O337 2.413 1_655 S
Tb293 C357 2.833 1_655 S
N294 C286 1.360 . S
N294 Tb293 2.660 . S
N294 C295 1.305 . S
C295 N294 1.305 . S
C295 C297 1.407 . S
C295 H302 0.930 1_655 S
C296 C284 1.410 . S
C296 C297 1.345 . S
C296 H304 0.930 . S
C297 C295 1.407 . S
C297 C296 1.345 . S
C297 H299 0.930 . S
H298 C291 0.930 . S
H299 C297 0.930 . S
H300 C288 0.930 . S
H301 C289 0.931 . S
H302 C295 0.930 1_455 S
H303 C317 0.930 . S
H304 C296 0.930 . S
H305 C323 0.930 . S
H306 C314 0.891 1_655 S
H307 C321 0.931 . S
H308 C285 0.929 . S
H309 C315 0.930 . S
H310 C348 0.930 . S
H311 C292 0.930 . S
H312 C347 0.929 . S
N313 Tb282 2.660 . S
N313 C314 1.305 . S
N313 C318 1.360 . S
C314 H306 0.891 1_455 S
C314 N313 1.305 . S
C314 C317 1.407 . S
C315 H309 0.930 . S
C315 C316 1.410 . S
C315 C317 1.345 . S
C316 C315 1.410 . S
C316 C318 1.417 . S
C316 C348 1.432 . S
C317 H303 0.930 . S
C317 C314 1.407 . S
C317 C315 1.345 . S
C318 N313 1.360 . S
C318 C316 1.417 . S
C318 C322 1.432 . S
H319 C324 0.930 . S
N320 Tb282 2.600 . S
N320 C322 1.359 . S
N320 C323 1.327 . S
C321 H307 0.931 . S
C321 C323 1.392 . S
C321 C324 1.370 . S
C322 C318 1.432 . S
C322 N320 1.359 . S
C322 C325 1.414 . S
C323 H305 0.930 . S
C323 N320 1.327 . S
C323 C321 1.392 . S
C324 H319 0.930 . S
C324 C321 1.370 . S
C324 C325 1.385 . S
C325 C322 1.414 . S
C325 C324 1.385 . S
C325 C347 1.444 . S
O326 Tb282 2.546 . S
O326 C346 1.251 . S
O327 Tb282 2.610 1_654 S
O327 Tb293 2.362 . S
O327 C338 1.283 1_554 S
O328 Tb293 2.421 . S
O328 C345 1.262 . S
O329 Tb282 2.320 1_655 S
O329 C345 1.260 1_556 S
O330 Tb282 2.552 1_655 S
O330 C338 1.243 . S
O331 Tb282 2.413 1_655 S
O331 C346 1.256 1_655 S
O332 Tb293 2.546 . S
O332 C357 1.250 1_655 S
O333 Tb282 2.362 1_554 S
O333 Tb293 2.610 1_455 S
O333 C349 1.283 . S
O334 Tb282 2.421 1_554 S
O334 C356 1.262 . S
O335 Tb293 2.320 1_455 S
O335 C356 1.260 . S
O336 Tb293 2.552 1_455 S
O336 C349 1.243 . S
O337 Tb293 2.413 1_455 S
O337 C357 1.256 . S
C338 O327 1.283 1_556 S
C338 O330 1.243 . S
C339 C341 1.382 . S
C339 C343 1.393 1_655 S
C339 C346 1.500 1_655 S
C340 C341 1.400 . S
C340 C342 1.384 . S
C341 C339 1.382 . S
C341 C340 1.400 . S
C341 H358 0.930 . S
C342 C340 1.384 . S
C342 C344 1.392 1_655 S
C342 H359 0.931 . S
C343 C339 1.393 1_455 S
C343 C344 1.401 . S
C343 H360 0.930 . S
C344 C342 1.392 1_455 S
C344 C343 1.401 . S
C344 H361 0.930 . S
C345 O328 1.262 . S
C345 O329 1.260 1_554 S
C346 Tb282 2.833 . S
C346 O326 1.251 . S
C346 O331 1.256 1_455 S
C346 C339 1.500 1_455 S
C347 H312 0.929 . S
C347 C325 1.444 . S
C347 C348 1.317 . S
C348 H310 0.930 . S
C348 C316 1.432 . S
C348 C347 1.317 . S
C349 O333 1.283 . S
C349 O336 1.243 . S
C350 C351 1.382 . S
C350 C354 1.393 1_455 S
C350 C357 1.500 . S
C351 C350 1.382 . S
C351 C352 1.400 . S
C351 H362 0.930 . S
C352 C351 1.400 . S
C352 C353 1.384 . S
C353 C352 1.384 . S
C353 C355 1.392 1_455 S
C353 H363 0.931 . S
C354 C350 1.393 1_655 S
C354 C355 1.401 . S
C354 H364 0.930 . S
C355 C353 1.392 1_655 S
C355 C354 1.401 . S
C355 H365 0.930 . S
C356 O334 1.262 . S
C356 O335 1.260 . S
C357 Tb293 2.833 1_455 S
C357 O332 1.250 1_455 S
C357 O337 1.256 . S
C357 C350 1.500 . S
H358 C341 0.930 . S
H359 C342 0.931 . S
H360 C343 0.930 . S
H361 C344 0.930 . S
H362 C351 0.930 . S
H363 C353 0.931 . S
H364 C354 0.930 . S
H365 C355 0.930 . S
Tb366 N397 2.660 . S
Tb366 N404 2.600 . S
Tb366 O410 2.546 . S
Tb366 O411 2.610 . S
Tb366 O413 2.320 . S
Tb366 O414 2.552 . S
Tb366 O415 2.413 . S
Tb366 O417 2.362 . S
Tb366 O418 2.421 . S
Tb366 C430 2.833 . S
C367 C370 1.432 . S
C367 C371 1.414 . S
C367 N374 1.359 . S
C368 C370 1.417 . S
C368 C372 1.432 . S
C368 C380 1.410 . S
C369 C371 1.444 . S
C369 C372 1.317 . S
C369 H392 0.929 . S
C370 C367 1.432 . S
C370 C368 1.417 . S
C370 N378 1.360 . S
C371 C367 1.414 . S
C371 C369 1.444 . S
C371 C376 1.385 . S
C372 C368 1.432 . S
C372 C369 1.317 . S
C372 H384 0.930 . S
C373 C375 1.392 . S
C373 C376 1.370 . S
C373 H385 0.931 . S
N374 C367 1.359 . S
N374 C375 1.327 . S
N374 Tb377 2.600 . S
C375 C373 1.392 . S
C375 N374 1.327 . S
C375 H382 0.930 . S
C376 C371 1.385 . S
C376 C373 1.370 . S
C376 H395 0.930 . S
Tb377 N374 2.600 . S
Tb377 N378 2.660 . S
Tb377 O411 2.362 1_556 S
Tb377 O412 2.421 . S
Tb377 O416 2.546 . S
Tb377 O417 2.610 1_556 S
Tb377 O419 2.320 . S
Tb377 O420 2.552 . S
Tb377 O421 2.413 . S
Tb377 C441 2.833 . S
N378 C370 1.360 . S
N378 Tb377 2.660 . S
N378 C379 1.305 . S
C379 N378 1.305 . S
C379 C381 1.407 . S
C379 H386 0.930 . S
C380 C368 1.410 . S
C380 C381 1.345 . S
C380 H388 0.930 . S
C381 C379 1.407 . S
C381 C380 1.345 . S
C381 H383 0.930 . S
H382 C375 0.930 . S
H383 C381 0.930 . S
H384 C372 0.930 . S
H385 C373 0.931 . S
H386 C379 0.930 . S
H387 C401 0.930 . S
H388 C380 0.930 . S
H389 C407 0.930 . S
H390 C398 0.930 . S
H391 C405 0.931 . S
H392 C369 0.929 . S
H393 C399 0.930 . S
H394 C432 0.930 . S
H395 C376 0.930 . S
H396 C431 0.929 . S
N397 Tb366 2.660 . S
N397 C398 1.305 . S
N397 C402 1.360 . S
C398 H390 0.930 . S
C398 N397 1.305 . S
C398 C401 1.407 . S
C399 H393 0.930 . S
C399 C400 1.410 . S
C399 C401 1.345 . S
C400 C399 1.410 . S
C400 C402 1.417 . S
C400 C432 1.432 . S
C401 H387 0.930 . S
C401 C398 1.407 . S
C401 C399 1.345 . S
C402 N397 1.360 . S
C402 C400 1.417 . S
C402 C406 1.432 . S
H403 C408 0.930 . S
N404 Tb366 2.600 . S
N404 C406 1.359 . S
N404 C407 1.327 . S
C405 H391 0.931 . S
C405 C407 1.392 . S
C405 C408 1.370 . S
C406 C402 1.432 . S
C406 N404 1.359 . S
C406 C409 1.414 . S
C407 H389 0.930 . S
C407 N404 1.327 . S
C407 C405 1.392 . S
C408 H403 0.930 . S
C408 C405 1.370 . S
C408 C409 1.385 . S
C409 C406 1.414 . S
C409 C408 1.385 . S
C409 C431 1.444 . S
O410 Tb366 2.546 . S
O410 C430 1.251 . S
O411 Tb366 2.610 . S
O411 Tb377 2.362 1_554 S
O411 C422 1.283 . S
O412 Tb377 2.421 . S
O412 C429 1.262 1_556 S
O413 Tb366 2.320 . S
O413 C429 1.260 . S
O414 Tb366 2.552 . S
O414 C422 1.243 . S
O415 Tb366 2.413 . S
O415 C430 1.256 . S
O416 Tb377 2.546 . S
O416 C441 1.251 . S
O417 Tb366 2.362 . S
O417 Tb377 2.610 1_554 S
O417 C433 1.283 1_554 S
O418 Tb366 2.421 . S
O418 C440 1.262 1_554 S
O419 Tb377 2.320 . S
O419 C440 1.260 . S
O420 Tb377 2.552 . S
O420 C433 1.243 . S
O421 Tb377 2.413 . S
O421 C441 1.256 . S
C422 O411 1.283 . S
C422 O414 1.243 . S
C423 C425 1.382 . S
C423 C427 1.393 . S
C423 C430 1.500 . S
C424 C425 1.400 . S
C424 C426 1.384 . S
C425 C423 1.382 . S
C425 C424 1.400 . S
C425 H442 0.930 . S
C426 C424 1.384 . S
C426 C428 1.392 . S
C426 H443 0.931 . S
C427 C423 1.393 . S
C427 C428 1.401 . S
C427 H444 0.930 . S
C428 C426 1.392 . S
C428 C427 1.401 . S
C428 H445 0.930 . S
C429 O412 1.262 1_554 S
C429 O413 1.260 . S
C430 Tb366 2.833 . S
C430 O410 1.251 . S
C430 O415 1.256 . S
C430 C423 1.500 . S
C431 H396 0.929 . S
C431 C409 1.444 . S
C431 C432 1.317 . S
C432 H394 0.930 . S
C432 C400 1.432 . S
C432 C431 1.317 . S
C433 O417 1.283 1_556 S
C433 O420 1.243 . S
C434 C435 1.382 . S
C434 C438 1.393 . S
C434 C441 1.500 . S
C435 C434 1.382 . S
C435 C436 1.400 . S
C435 H446 0.930 . S
C436 C435 1.400 . S
C436 C437 1.384 . S
C437 C436 1.384 . S
C437 C439 1.392 . S
C437 H447 0.931 . S
C438 C434 1.393 . S
C438 C439 1.401 . S
C438 H448 0.930 . S
C439 C437 1.392 . S
C439 C438 1.401 . S
C439 H449 0.930 . S
C440 O418 1.262 1_556 S
C440 O419 1.260 . S
C441 Tb377 2.833 . S
C441 O416 1.251 . S
C441 O421 1.256 . S
C441 C434 1.500 . S
H442 C425 0.930 . S
H443 C426 0.931 . S
H444 C427 0.930 . S
H445 C428 0.930 . S
H446 C435 0.930 . S
H447 C437 0.931 . S
H448 C438 0.930 . S
H449 C439 0.930 . S
Tb450 N481 2.660 . S
Tb450 N488 2.600 . S
Tb450 O494 2.546 . S
Tb450 O495 2.610 . S
Tb450 O497 2.320 . S
Tb450 O498 2.552 . S
Tb450 O499 2.413 . S
Tb450 O501 2.362 . S
Tb450 O502 2.421 . S
Tb450 C514 2.833 . S
C451 C454 1.432 . S
C451 C455 1.414 . S
C451 N458 1.359 . S
C452 C454 1.417 . S
C452 C456 1.432 . S
C452 C464 1.410 . S
C453 C455 1.444 . S
C453 C456 1.317 . S
C453 H476 0.929 . S
C454 C451 1.432 . S
C454 C452 1.417 . S
C454 N462 1.360 . S
C455 C451 1.414 . S
C455 C453 1.444 . S
C455 C460 1.385 . S
C456 C452 1.432 . S
C456 C453 1.317 . S
C456 H468 0.930 . S
C457 C459 1.392 . S
C457 C460 1.370 . S
C457 H469 0.931 . S
N458 C451 1.359 . S
N458 C459 1.327 . S
N458 Tb461 2.600 . S
C459 C457 1.392 . S
C459 N458 1.327 . S
C459 H466 0.930 . S
C460 C455 1.385 . S
C460 C457 1.370 . S
C460 H479 0.930 . S
Tb461 N458 2.600 . S
Tb461 N462 2.660 . S
Tb461 O495 2.362 . S
Tb461 O496 2.421 . S
Tb461 O500 2.546 . S
Tb461 O501 2.610 . S
Tb461 O503 2.320 . S
Tb461 O504 2.552 . S
Tb461 O505 2.413 . S
Tb461 C525 2.833 . S
N462 C454 1.360 . S
N462 Tb461 2.660 . S
N462 C463 1.305 . S
C463 N462 1.305 . S
C463 C465 1.407 . S
C463 H470 0.930 . S
C464 C452 1.410 . S
C464 C465 1.345 . S
C464 H472 0.930 . S
C465 C463 1.407 . S
C465 C464 1.345 . S
C465 H467 0.930 . S
H466 C459 0.930 . S
H467 C465 0.930 . S
H468 C456 0.930 . S
H469 C457 0.931 . S
H470 C463 0.930 . S
H471 C485 0.930 . S
H472 C464 0.930 . S
H473 C491 0.930 . S
H474 C482 0.930 . S
H475 C489 0.931 . S
H476 C453 0.929 . S
H477 C483 0.930 . S
H478 C516 0.930 . S
H479 C460 0.930 . S
H480 C515 0.929 . S
N481 Tb450 2.660 . S
N481 C482 1.305 . S
N481 C486 1.360 . S
C482 H474 0.930 . S
C482 N481 1.305 . S
C482 C485 1.407 . S
C483 H477 0.930 . S
C483 C484 1.410 . S
C483 C485 1.345 . S
C484 C483 1.410 . S
C484 C486 1.417 . S
C484 C516 1.432 . S
C485 H471 0.930 . S
C485 C482 1.407 . S
C485 C483 1.345 . S
C486 N481 1.360 . S
C486 C484 1.417 . S
C486 C490 1.432 . S
H487 C492 0.930 . S
N488 Tb450 2.600 . S
N488 C490 1.359 . S
N488 C491 1.327 . S
C489 H475 0.931 . S
C489 C491 1.392 . S
C489 C492 1.370 . S
C490 C486 1.432 . S
C490 N488 1.359 . S
C490 C493 1.414 . S
C491 H473 0.930 . S
C491 N488 1.327 . S
C491 C489 1.392 . S
C492 H487 0.930 . S
C492 C489 1.370 . S
C492 C493 1.385 . S
C493 C490 1.414 . S
C493 C492 1.385 . S
C493 C515 1.444 . S
O494 Tb450 2.546 . S
O494 C514 1.251 . S
O495 Tb450 2.610 . S
O495 Tb461 2.362 . S
O495 C506 1.283 . S
O496 Tb461 2.421 . S
O496 C513 1.262 . S
O497 Tb450 2.320 . S
O497 C513 1.260 . S
O498 Tb450 2.552 . S
O498 C506 1.243 . S
O499 Tb450 2.413 . S
O499 C514 1.256 . S
O500 Tb461 2.546 . S
O500 C525 1.251 . S
O501 Tb450 2.362 . S
O501 Tb461 2.610 . S
O501 C517 1.283 . S
O502 Tb450 2.421 . S
O502 C524 1.262 . S
O503 Tb461 2.320 . S
O503 C524 1.260 . S
O504 Tb461 2.552 . S
O504 C517 1.243 . S
O505 Tb461 2.413 . S
O505 C525 1.256 . S
C506 O495 1.283 . S
C506 O498 1.243 . S
C507 C509 1.382 . S
C507 C511 1.393 . S
C507 C514 1.500 . S
C508 C509 1.400 . S
C508 C510 1.384 . S
C509 C507 1.382 . S
C509 C508 1.400 . S
C509 H526 0.930 . S
C510 C508 1.384 . S
C510 C512 1.392 . S
C510 H527 0.931 . S
C511 C507 1.393 . S
C511 C512 1.401 . S
C511 H528 0.930 . S
C512 C510 1.392 . S
C512 C511 1.401 . S
C512 H529 0.930 . S
C513 O496 1.262 . S
C513 O497 1.260 . S
C514 Tb450 2.833 . S
C514 O494 1.251 . S
C514 O499 1.256 . S
C514 C507 1.500 . S
C515 H480 0.929 . S
C515 C493 1.444 . S
C515 C516 1.317 . S
C516 H478 0.930 . S
C516 C484 1.432 . S
C516 C515 1.317 . S
C517 O501 1.283 . S
C517 O504 1.243 . S
C518 C519 1.382 . S
C518 C522 1.393 . S
C518 C525 1.500 . S
C519 C518 1.382 . S
C519 C520 1.400 . S
C519 H530 0.930 . S
C520 C519 1.400 . S
C520 C521 1.384 . S
C521 C520 1.384 . S
C521 C523 1.392 . S
C521 H531 0.931 . S
C522 C518 1.393 . S
C522 C523 1.401 . S
C522 H532 0.930 . S
C523 C521 1.392 . S
C523 C522 1.401 . S
C523 H533 0.930 . S
C524 O502 1.262 . S
C524 O503 1.260 . S
C525 Tb461 2.833 . S
C525 O500 1.251 . S
C525 O505 1.256 . S
C525 C518 1.500 . S
H526 C509 0.930 . S
H527 C510 0.931 . S
H528 C511 0.930 . S
H529 C512 0.930 . S
H530 C519 0.930 . S
H531 C521 0.931 . S
H532 C522 0.930 . S
H533 C523 0.930 . S
Tb534 N565 2.660 . S
Tb534 N572 2.600 . S
Tb534 O578 2.546 . S
Tb534 O579 2.610 . S
Tb534 O581 2.320 . S
Tb534 O582 2.552 . S
Tb534 O583 2.413 . S
Tb534 O585 2.362 . S
Tb534 O586 2.421 . S
Tb534 C598 2.833 . S
C535 C538 1.432 . S
C535 C539 1.414 . S
C535 N542 1.359 . S
C536 C538 1.417 . S
C536 C540 1.432 . S
C536 C548 1.410 . S
C537 C539 1.444 . S
C537 C540 1.317 . S
C537 H560 0.929 . S
C538 C535 1.432 . S
C538 C536 1.417 . S
C538 N546 1.360 . S
C539 C535 1.414 . S
C539 C537 1.444 . S
C539 C544 1.385 . S
C540 C536 1.432 . S
C540 C537 1.317 . S
C540 H552 0.930 . S
C541 C543 1.392 . S
C541 C544 1.370 . S
C541 H553 0.931 . S
N542 C535 1.359 . S
N542 C543 1.327 . S
N542 Tb545 2.600 . S
C543 C541 1.392 . S
C543 N542 1.327 . S
C543 H550 0.930 . S
C544 C539 1.385 . S
C544 C541 1.370 . S
C544 H563 0.930 . S
Tb545 N542 2.600 . S
Tb545 N546 2.660 . S
Tb545 O579 2.362 . S
Tb545 O580 2.421 . S
Tb545 O584 2.546 . S
Tb545 O585 2.610 . S
Tb545 O587 2.320 . S
Tb545 O588 2.552 . S
Tb545 O589 2.413 . S
Tb545 C609 2.833 . S
N546 C538 1.360 . S
N546 Tb545 2.660 . S
N546 C547 1.305 . S
C547 N546 1.305 . S
C547 C549 1.407 . S
C547 H554 0.930 . S
C548 C536 1.410 . S
C548 C549 1.345 . S
C548 H556 0.930 . S
C549 C547 1.407 . S
C549 C548 1.345 . S
C549 H551 0.930 . S
H550 C543 0.930 . S
H551 C549 0.930 . S
H552 C540 0.930 . S
H553 C541 0.931 . S
H554 C547 0.930 . S
H555 C569 0.930 . S
H556 C548 0.930 . S
H557 C575 0.930 . S
H558 C566 0.930 . S
H559 C573 0.931 . S
H560 C537 0.929 . S
H561 C567 0.930 . S
H562 C600 0.930 . S
H563 C544 0.930 . S
H564 C599 0.929 . S
N565 Tb534 2.660 . S
N565 C566 1.305 . S
N565 C570 1.360 . S
C566 H558 0.930 . S
C566 N565 1.305 . S
C566 C569 1.407 . S
C567 H561 0.930 . S
C567 C568 1.410 . S
C567 C569 1.345 . S
C568 C567 1.410 . S
C568 C570 1.417 . S
C568 C600 1.432 . S
C569 H555 0.930 . S
C569 C566 1.407 . S
C569 C567 1.345 . S
C570 N565 1.360 . S
C570 C568 1.417 . S
C570 C574 1.432 . S
H571 C576 0.930 . S
N572 Tb534 2.600 . S
N572 C574 1.359 . S
N572 C575 1.327 . S
C573 H559 0.931 . S
C573 C575 1.392 . S
C573 C576 1.370 . S
C574 C570 1.432 . S
C574 N572 1.359 . S
C574 C577 1.414 . S
C575 H557 0.930 . S
C575 N572 1.327 . S
C575 C573 1.392 . S
C576 H571 0.930 . S
C576 C573 1.370 . S
C576 C577 1.385 . S
C577 C574 1.414 . S
C577 C576 1.385 . S
C577 C599 1.444 . S
O578 Tb534 2.546 . S
O578 C598 1.251 . S
O579 Tb534 2.610 . S
O579 Tb545 2.362 . S
O579 C590 1.283 . S
O580 Tb545 2.421 . S
O580 C597 1.262 . S
O581 Tb534 2.320 . S
O581 C597 1.260 . S
O582 Tb534 2.552 . S
O582 C590 1.243 . S
O583 Tb534 2.413 . S
O583 C598 1.256 . S
O584 Tb545 2.546 . S
O584 C609 1.251 . S
O585 Tb534 2.362 . S
O585 Tb545 2.610 . S
O585 C601 1.283 . S
O586 Tb534 2.421 . S
O586 C608 1.262 . S
O587 Tb545 2.320 . S
O587 C608 1.260 . S
O588 Tb545 2.552 . S
O588 C601 1.243 . S
O589 Tb545 2.413 . S
O589 C609 1.256 . S
C590 O579 1.283 . S
C590 O582 1.243 . S
C591 C593 1.382 . S
C591 C595 1.393 . S
C591 C598 1.500 . S
C592 C593 1.400 . S
C592 C594 1.384 . S
C593 C591 1.382 . S
C593 C592 1.400 . S
C593 H610 0.930 . S
C594 C592 1.384 . S
C594 C596 1.392 . S
C594 H611 0.931 . S
C595 C591 1.393 . S
C595 C596 1.401 . S
C595 H612 0.930 . S
C596 C594 1.392 . S
C596 C595 1.401 . S
C596 H613 0.930 . S
C597 O580 1.262 . S
C597 O581 1.260 . S
C598 Tb534 2.833 . S
C598 O578 1.251 . S
C598 O583 1.256 . S
C598 C591 1.500 . S
C599 H564 0.929 . S
C599 C577 1.444 . S
C599 C600 1.317 . S
C600 H562 0.930 . S
C600 C568 1.432 . S
C600 C599 1.317 . S
C601 O585 1.283 . S
C601 O588 1.243 . S
C602 C603 1.382 . S
C602 C606 1.393 . S
C602 C609 1.500 . S
C603 C602 1.382 . S
C603 C604 1.400 . S
C603 H614 0.930 . S
C604 C603 1.400 . S
C604 C605 1.384 . S
C605 C604 1.384 . S
C605 C607 1.392 . S
C605 H615 0.931 . S
C606 C602 1.393 . S
C606 C607 1.401 . S
C606 H616 0.930 . S
C607 C605 1.392 . S
C607 C606 1.401 . S
C607 H617 0.930 . S
C608 O586 1.262 . S
C608 O587 1.260 . S
C609 Tb545 2.833 . S
C609 O584 1.251 . S
C609 O589 1.256 . S
C609 C602 1.500 . S
H610 C593 0.930 . S
H611 C594 0.931 . S
H612 C595 0.930 . S
H613 C596 0.930 . S
H614 C603 0.930 . S
H615 C605 0.931 . S
H616 C606 0.930 . S
H617 C607 0.930 . S
Tb618 N649 2.660 . S
Tb618 N656 2.600 . S
Tb618 O662 2.546 . S
Tb618 O663 2.610 . S
Tb618 O665 2.320 . S
Tb618 O666 2.552 . S
Tb618 O667 2.413 . S
Tb618 O669 2.362 . S
Tb618 O670 2.421 . S
Tb618 C682 2.833 . S
C619 C622 1.432 . S
C619 C623 1.414 . S
C619 N626 1.359 . S
C620 C622 1.417 . S
C620 C624 1.432 . S
C620 C632 1.410 . S
C621 C623 1.444 . S
C621 C624 1.317 . S
C621 H644 0.929 . S
C622 C619 1.432 . S
C622 C620 1.417 . S
C622 N630 1.360 . S
C623 C619 1.414 . S
C623 C621 1.444 . S
C623 C628 1.385 . S
C624 C620 1.432 . S
C624 C621 1.317 . S
C624 H636 0.930 . S
C625 C627 1.392 . S
C625 C628 1.370 . S
C625 H637 0.931 . S
N626 C619 1.359 . S
N626 C627 1.327 . S
N626 Tb629 2.600 . S
C627 C625 1.392 . S
C627 N626 1.327 . S
C627 H634 0.930 . S
C628 C623 1.385 . S
C628 C625 1.370 . S
C628 H647 0.930 . S
Tb629 N626 2.600 . S
Tb629 N630 2.660 . S
Tb629 O663 2.362 . S
Tb629 O664 2.421 . S
Tb629 O668 2.546 . S
Tb629 O669 2.610 . S
Tb629 O671 2.320 . S
Tb629 O672 2.552 . S
Tb629 O673 2.413 . S
Tb629 C693 2.833 . S
N630 C622 1.360 . S
N630 Tb629 2.660 . S
N630 C631 1.305 . S
C631 N630 1.305 . S
C631 C633 1.407 . S
C631 H638 0.930 . S
C632 C620 1.410 . S
C632 C633 1.345 . S
C632 H640 0.930 . S
C633 C631 1.407 . S
C633 C632 1.345 . S
C633 H635 0.930 . S
H634 C627 0.930 . S
H635 C633 0.930 . S
H636 C624 0.930 . S
H637 C625 0.931 . S
H638 C631 0.930 . S
H639 C653 0.930 . S
H640 C632 0.930 . S
H641 C659 0.930 . S
H642 C650 0.930 . S
H643 C657 0.931 . S
H644 C621 0.929 . S
H645 C651 0.930 . S
H646 C684 0.930 . S
H647 C628 0.930 . S
H648 C683 0.929 . S
N649 Tb618 2.660 . S
N649 C650 1.305 . S
N649 C654 1.360 . S
C650 H642 0.930 . S
C650 N649 1.305 . S
C650 C653 1.407 . S
C651 H645 0.930 . S
C651 C652 1.410 . S
C651 C653 1.345 . S
C652 C651 1.410 . S
C652 C654 1.417 . S
C652 C684 1.432 . S
C653 H639 0.930 . S
C653 C650 1.407 . S
C653 C651 1.345 . S
C654 N649 1.360 . S
C654 C652 1.417 . S
C654 C658 1.432 . S
H655 C660 0.930 . S
N656 Tb618 2.600 . S
N656 C658 1.359 . S
N656 C659 1.327 . S
C657 H643 0.931 . S
C657 C659 1.392 . S
C657 C660 1.370 . S
C658 C654 1.432 . S
C658 N656 1.359 . S
C658 C661 1.414 . S
C659 H641 0.930 . S
C659 N656 1.327 . S
C659 C657 1.392 . S
C660 H655 0.930 . S
C660 C657 1.370 . S
C660 C661 1.385 . S
C661 C658 1.414 . S
C661 C660 1.385 . S
C661 C683 1.444 . S
O662 Tb618 2.546 . S
O662 C682 1.251 . S
O663 Tb618 2.610 . S
O663 Tb629 2.362 . S
O663 C674 1.283 . S
O664 Tb629 2.421 . S
O664 C681 1.262 . S
O665 Tb618 2.320 . S
O665 C681 1.260 . S
O666 Tb618 2.552 . S
O666 C674 1.243 . S
O667 Tb618 2.413 . S
O667 C682 1.256 . S
O668 Tb629 2.546 . S
O668 C693 1.251 . S
O669 Tb618 2.362 . S
O669 Tb629 2.610 . S
O669 C685 1.283 . S
O670 Tb618 2.421 . S
O670 C692 1.262 . S
O671 Tb629 2.320 . S
O671 C692 1.260 . S
O672 Tb629 2.552 . S
O672 C685 1.243 . S
O673 Tb629 2.413 . S
O673 C693 1.256 . S
C674 O663 1.283 . S
C674 O666 1.243 . S
C675 C677 1.382 . S
C675 C679 1.393 . S
C675 C682 1.500 . S
C676 C677 1.400 . S
C676 C678 1.384 . S
C677 C675 1.382 . S
C677 C676 1.400 . S
C677 H694 0.930 . S
C678 C676 1.384 . S
C678 C680 1.392 . S
C678 H695 0.931 . S
C679 C675 1.393 . S
C679 C680 1.401 . S
C679 H696 0.930 . S
C680 C678 1.392 . S
C680 C679 1.401 . S
C680 H697 0.930 . S
C681 O664 1.262 . S
C681 O665 1.260 . S
C682 Tb618 2.833 . S
C682 O662 1.251 . S
C682 O667 1.256 . S
C682 C675 1.500 . S
C683 H648 0.929 . S
C683 C661 1.444 . S
C683 C684 1.317 . S
C684 H646 0.930 . S
C684 C652 1.432 . S
C684 C683 1.317 . S
C685 O669 1.283 . S
C685 O672 1.243 . S
C686 C687 1.382 . S
C686 C690 1.393 . S
C686 C693 1.500 . S
C687 C686 1.382 . S
C687 C688 1.400 . S
C687 H698 0.930 . S
C688 C687 1.400 . S
C688 C689 1.384 . S
C689 C688 1.384 . S
C689 C691 1.392 . S
C689 H699 0.931 . S
C690 C686 1.393 . S
C690 C691 1.401 . S
C690 H700 0.930 . S
C691 C689 1.392 . S
C691 C690 1.401 . S
C691 H701 0.930 . S
C692 O670 1.262 . S
C692 O671 1.260 . S
C693 Tb629 2.833 . S
C693 O668 1.251 . S
C693 O673 1.256 . S
C693 C686 1.500 . S
H694 C677 0.930 . S
H695 C678 0.931 . S
H696 C679 0.930 . S
H697 C680 0.930 . S
H698 C687 0.930 . S
H699 C689 0.931 . S
H700 C690 0.930 . S
H701 C691 0.930 . S
Tb702 N733 2.660 . S
Tb702 N740 2.600 . S
Tb702 O746 2.546 . S
Tb702 O747 2.610 . S
Tb702 O749 2.320 . S
Tb702 O750 2.552 . S
Tb702 O751 2.413 . S
Tb702 O753 2.362 . S
Tb702 O754 2.421 . S
Tb702 C766 2.833 . S
C703 C706 1.432 . S
C703 C707 1.414 . S
C703 N710 1.359 . S
C704 C706 1.417 . S
C704 C708 1.432 . S
C704 C716 1.410 . S
C705 C707 1.444 . S
C705 C708 1.317 . S
C705 H728 0.929 . S
C706 C703 1.432 . S
C706 C704 1.417 . S
C706 N714 1.360 . S
C707 C703 1.414 . S
C707 C705 1.444 . S
C707 C712 1.385 . S
C708 C704 1.432 . S
C708 C705 1.317 . S
C708 H720 0.930 . S
C709 C711 1.392 . S
C709 C712 1.370 . S
C709 H721 0.931 . S
N710 C703 1.359 . S
N710 C711 1.327 . S
N710 Tb713 2.600 . S
C711 C709 1.392 . S
C711 N710 1.327 . S
C711 H718 0.930 . S
C712 C707 1.385 . S
C712 C709 1.370 . S
C712 H731 0.930 . S
Tb713 N710 2.600 . S
Tb713 N714 2.660 . S
Tb713 O747 2.362 . S
Tb713 O748 2.421 . S
Tb713 O752 2.546 . S
Tb713 O753 2.610 . S
Tb713 O755 2.320 . S
Tb713 O756 2.552 . S
Tb713 O757 2.413 . S
Tb713 C777 2.833 . S
N714 C706 1.360 . S
N714 Tb713 2.660 . S
N714 C715 1.305 . S
C715 N714 1.305 . S
C715 C717 1.407 . S
C715 H722 0.930 . S
C716 C704 1.410 . S
C716 C717 1.345 . S
C716 H724 0.930 . S
C717 C715 1.407 . S
C717 C716 1.345 . S
C717 H719 0.930 . S
H718 C711 0.930 . S
H719 C717 0.930 . S
H720 C708 0.930 . S
H721 C709 0.931 . S
H722 C715 0.930 . S
H723 C737 0.930 . S
H724 C716 0.930 . S
H725 C743 0.930 . S
H726 C734 0.930 . S
H727 C741 0.931 . S
H728 C705 0.929 . S
H729 C735 0.930 . S
H730 C768 0.930 . S
H731 C712 0.930 . S
H732 C767 0.929 . S
N733 Tb702 2.660 . S
N733 C734 1.305 . S
N733 C738 1.360 . S
C734 H726 0.930 . S
C734 N733 1.305 . S
C734 C737 1.407 . S
C735 H729 0.930 . S
C735 C736 1.410 . S
C735 C737 1.345 . S
C736 C735 1.410 . S
C736 C738 1.417 . S
C736 C768 1.432 . S
C737 H723 0.930 . S
C737 C734 1.407 . S
C737 C735 1.345 . S
C738 N733 1.360 . S
C738 C736 1.417 . S
C738 C742 1.432 . S
H739 C744 0.930 . S
N740 Tb702 2.600 . S
N740 C742 1.359 . S
N740 C743 1.327 . S
C741 H727 0.931 . S
C741 C743 1.392 . S
C741 C744 1.370 . S
C742 C738 1.432 . S
C742 N740 1.359 . S
C742 C745 1.414 . S
C743 H725 0.930 . S
C743 N740 1.327 . S
C743 C741 1.392 . S
C744 H739 0.930 . S
C744 C741 1.370 . S
C744 C745 1.385 . S
C745 C742 1.414 . S
C745 C744 1.385 . S
C745 C767 1.444 . S
O746 Tb702 2.546 . S
O746 C766 1.251 . S
O747 Tb702 2.610 . S
O747 Tb713 2.362 . S
O747 C758 1.283 . S
O748 Tb713 2.421 . S
O748 C765 1.262 . S
O749 Tb702 2.320 . S
O749 C765 1.260 . S
O750 Tb702 2.552 . S
O750 C758 1.243 . S
O751 Tb702 2.413 . S
O751 C766 1.256 . S
O752 Tb713 2.546 . S
O752 C777 1.251 . S
O753 Tb702 2.362 . S
O753 Tb713 2.610 . S
O753 C769 1.283 . S
O754 Tb702 2.421 . S
O754 C776 1.262 . S
O755 Tb713 2.320 . S
O755 C776 1.260 . S
O756 Tb713 2.552 . S
O756 C769 1.243 . S
O757 Tb713 2.413 . S
O757 C777 1.256 . S
C758 O747 1.283 . S
C758 O750 1.243 . S
C759 C761 1.382 . S
C759 C763 1.393 . S
C759 C766 1.500 . S
C760 C761 1.400 . S
C760 C762 1.384 . S
C761 C759 1.382 . S
C761 C760 1.400 . S
C761 H778 0.930 . S
C762 C760 1.384 . S
C762 C764 1.392 . S
C762 H779 0.931 . S
C763 C759 1.393 . S
C763 C764 1.401 . S
C763 H780 0.930 . S
C764 C762 1.392 . S
C764 C763 1.401 . S
C764 H781 0.930 . S
C765 O748 1.262 . S
C765 O749 1.260 . S
C766 Tb702 2.833 . S
C766 O746 1.251 . S
C766 O751 1.256 . S
C766 C759 1.500 . S
C767 H732 0.929 . S
C767 C745 1.444 . S
C767 C768 1.317 . S
C768 H730 0.930 . S
C768 C736 1.432 . S
C768 C767 1.317 . S
C769 O753 1.283 . S
C769 O756 1.243 . S
C770 C771 1.382 . S
C770 C774 1.393 . S
C770 C777 1.500 . S
C771 C770 1.382 . S
C771 C772 1.400 . S
C771 H782 0.930 . S
C772 C771 1.400 . S
C772 C773 1.384 . S
C773 C772 1.384 . S
C773 C775 1.392 . S
C773 H783 0.931 . S
C774 C770 1.393 . S
C774 C775 1.401 . S
C774 H784 0.930 . S
C775 C773 1.392 . S
C775 C774 1.401 . S
C775 H785 0.930 . S
C776 O754 1.262 . S
C776 O755 1.260 . S
C777 Tb713 2.833 . S
C777 O752 1.251 . S
C777 O757 1.256 . S
C777 C770 1.500 . S
H778 C761 0.930 . S
H779 C762 0.931 . S
H780 C763 0.930 . S
H781 C764 0.930 . S
H782 C771 0.930 . S
H783 C773 0.931 . S
H784 C774 0.930 . S
H785 C775 0.930 . S
Tb786 N817 2.660 . S
Tb786 N824 2.600 . S
Tb786 O830 2.546 . S
Tb786 O831 2.610 . S
Tb786 O833 2.320 . S
Tb786 O834 2.552 . S
Tb786 O835 2.413 . S
Tb786 O837 2.362 . S
Tb786 O838 2.421 . S
Tb786 C850 2.833 . S
C787 C790 1.432 . S
C787 C791 1.414 . S
C787 N794 1.359 . S
C788 C790 1.417 . S
C788 C792 1.432 . S
C788 C800 1.410 . S
C789 C791 1.444 . S
C789 C792 1.317 . S
C789 H812 0.929 . S
C790 C787 1.432 . S
C790 C788 1.417 . S
C790 N798 1.360 . S
C791 C787 1.414 . S
C791 C789 1.444 . S
C791 C796 1.385 . S
C792 C788 1.432 . S
C792 C789 1.317 . S
C792 H804 0.930 . S
C793 C795 1.392 . S
C793 C796 1.370 . S
C793 H805 0.931 . S
N794 C787 1.359 . S
N794 C795 1.327 . S
N794 Tb797 2.600 . S
C795 C793 1.392 . S
C795 N794 1.327 . S
C795 H802 0.930 . S
C796 C791 1.385 . S
C796 C793 1.370 . S
C796 H815 0.930 . S
Tb797 N794 2.600 . S
Tb797 N798 2.660 . S
Tb797 O831 2.362 . S
Tb797 O832 2.421 . S
Tb797 O836 2.546 . S
Tb797 O837 2.610 . S
Tb797 O839 2.320 . S
Tb797 O840 2.552 . S
Tb797 O841 2.413 . S
Tb797 C861 2.833 . S
N798 C790 1.360 . S
N798 Tb797 2.660 . S
N798 C799 1.305 . S
C799 N798 1.305 . S
C799 C801 1.407 . S
C799 H806 0.930 . S
C800 C788 1.410 . S
C800 C801 1.345 . S
C800 H808 0.930 . S
C801 C799 1.407 . S
C801 C800 1.345 . S
C801 H803 0.930 . S
H802 C795 0.930 . S
H803 C801 0.930 . S
H804 C792 0.930 . S
H805 C793 0.931 . S
H806 C799 0.930 . S
H807 C821 0.930 . S
H808 C800 0.930 . S
H809 C827 0.930 . S
H810 C818 0.930 . S
H811 C825 0.931 . S
H812 C789 0.929 . S
H813 C819 0.930 . S
H814 C852 0.930 . S
H815 C796 0.930 . S
H816 C851 0.929 . S
N817 Tb786 2.660 . S
N817 C818 1.305 . S
N817 C822 1.360 . S
C818 H810 0.930 . S
C818 N817 1.305 . S
C818 C821 1.407 . S
C819 H813 0.930 . S
C819 C820 1.410 . S
C819 C821 1.345 . S
C820 C819 1.410 . S
C820 C822 1.417 . S
C820 C852 1.432 . S
C821 H807 0.930 . S
C821 C818 1.407 . S
C821 C819 1.345 . S
C822 N817 1.360 . S
C822 C820 1.417 . S
C822 C826 1.432 . S
H823 C828 0.930 . S
N824 Tb786 2.600 . S
N824 C826 1.359 . S
N824 C827 1.327 . S
C825 H811 0.931 . S
C825 C827 1.392 . S
C825 C828 1.370 . S
C826 C822 1.432 . S
C826 N824 1.359 . S
C826 C829 1.414 . S
C827 H809 0.930 . S
C827 N824 1.327 . S
C827 C825 1.392 . S
C828 H823 0.930 . S
C828 C825 1.370 . S
C828 C829 1.385 . S
C829 C826 1.414 . S
C829 C828 1.385 . S
C829 C851 1.444 . S
O830 Tb786 2.546 . S
O830 C850 1.251 . S
O831 Tb786 2.610 . S
O831 Tb797 2.362 . S
O831 C842 1.283 . S
O832 Tb797 2.421 . S
O832 C849 1.262 . S
O833 Tb786 2.320 . S
O833 C849 1.260 . S
O834 Tb786 2.552 . S
O834 C842 1.243 . S
O835 Tb786 2.413 . S
O835 C850 1.256 . S
O836 Tb797 2.546 . S
O836 C861 1.251 . S
O837 Tb786 2.362 . S
O837 Tb797 2.610 . S
O837 C853 1.283 . S
O838 Tb786 2.421 . S
O838 C860 1.262 . S
O839 Tb797 2.320 . S
O839 C860 1.260 . S
O840 Tb797 2.552 . S
O840 C853 1.243 . S
O841 Tb797 2.413 . S
O841 C861 1.256 . S
C842 O831 1.283 . S
C842 O834 1.243 . S
C843 C845 1.382 . S
C843 C847 1.393 . S
C843 C850 1.500 . S
C844 C845 1.400 . S
C844 C846 1.384 . S
C845 C843 1.382 . S
C845 C844 1.400 . S
C845 H862 0.930 . S
C846 C844 1.384 . S
C846 C848 1.392 . S
C846 H863 0.931 . S
C847 C843 1.393 . S
C847 C848 1.401 . S
C847 H864 0.930 . S
C848 C846 1.392 . S
C848 C847 1.401 . S
C848 H865 0.930 . S
C849 O832 1.262 . S
C849 O833 1.260 . S
C850 Tb786 2.833 . S
C850 O830 1.251 . S
C850 O835 1.256 . S
C850 C843 1.500 . S
C851 H816 0.929 . S
C851 C829 1.444 . S
C851 C852 1.317 . S
C852 H814 0.930 . S
C852 C820 1.432 . S
C852 C851 1.317 . S
C853 O837 1.283 . S
C853 O840 1.243 . S
C854 C855 1.382 . S
C854 C858 1.393 . S
C854 C861 1.500 . S
C855 C854 1.382 . S
C855 C856 1.400 . S
C855 H866 0.930 . S
C856 C855 1.400 . S
C856 C857 1.384 . S
C857 C856 1.384 . S
C857 C859 1.392 . S
C857 H867 0.931 . S
C858 C854 1.393 . S
C858 C859 1.401 . S
C858 H868 0.930 . S
C859 C857 1.392 . S
C859 C858 1.401 . S
C859 H869 0.930 . S
C860 O838 1.262 . S
C860 O839 1.260 . S
C861 Tb797 2.833 . S
C861 O836 1.251 . S
C861 O841 1.256 . S
C861 C854 1.500 . S
H862 C845 0.930 . S
H863 C846 0.931 . S
H864 C847 0.930 . S
H865 C848 0.930 . S
H866 C855 0.930 . S
H867 C857 0.931 . S
H868 C858 0.930 . S
H869 C859 0.930 . S
Tb870 N901 2.660 . S
Tb870 N908 2.600 . S
Tb870 O914 2.546 . S
Tb870 O915 2.610 . S
Tb870 O917 2.320 . S
Tb870 O918 2.552 . S
Tb870 O919 2.413 . S
Tb870 O921 2.362 . S
Tb870 O922 2.421 . S
Tb870 C934 2.833 . S
C871 C874 1.432 . S
C871 C875 1.414 . S
C871 N878 1.359 . S
C872 C874 1.417 . S
C872 C876 1.432 . S
C872 C884 1.410 . S
C873 C875 1.444 . S
C873 C876 1.317 . S
C873 H896 0.929 . S
C874 C871 1.432 . S
C874 C872 1.417 . S
C874 N882 1.360 . S
C875 C871 1.414 . S
C875 C873 1.444 . S
C875 C880 1.385 . S
C876 C872 1.432 . S
C876 C873 1.317 . S
C876 H888 0.930 . S
C877 C879 1.392 . S
C877 C880 1.370 . S
C877 H889 0.931 . S
N878 C871 1.359 . S
N878 C879 1.327 . S
N878 Tb881 2.600 . S
C879 C877 1.392 . S
C879 N878 1.327 . S
C879 H886 0.930 . S
C880 C875 1.385 . S
C880 C877 1.370 . S
C880 H899 0.930 . S
Tb881 N878 2.600 . S
Tb881 N882 2.660 . S
Tb881 O915 2.362 . S
Tb881 O916 2.421 . S
Tb881 O920 2.546 . S
Tb881 O921 2.610 . S
Tb881 O923 2.320 . S
Tb881 O924 2.552 . S
Tb881 O925 2.413 . S
Tb881 C945 2.833 . S
N882 C874 1.360 . S
N882 Tb881 2.660 . S
N882 C883 1.305 . S
C883 N882 1.305 . S
C883 C885 1.407 . S
C883 H890 0.930 . S
C884 C872 1.410 . S
C884 C885 1.345 . S
C884 H892 0.930 . S
C885 C883 1.407 . S
C885 C884 1.345 . S
C885 H887 0.930 . S
H886 C879 0.930 . S
H887 C885 0.930 . S
H888 C876 0.930 . S
H889 C877 0.931 . S
H890 C883 0.930 . S
H891 C905 0.930 . S
H892 C884 0.930 . S
H893 C911 0.930 . S
H894 C902 0.930 . S
H895 C909 0.931 . S
H896 C873 0.929 . S
H897 C903 0.930 . S
H898 C936 0.930 . S
H899 C880 0.930 . S
H900 C935 0.929 . S
N901 Tb870 2.660 . S
N901 C902 1.305 . S
N901 C906 1.360 . S
C902 H894 0.930 . S
C902 N901 1.305 . S
C902 C905 1.407 . S
C903 H897 0.930 . S
C903 C904 1.410 . S
C903 C905 1.345 . S
C904 C903 1.410 . S
C904 C906 1.417 . S
C904 C936 1.432 . S
C905 H891 0.930 . S
C905 C902 1.407 . S
C905 C903 1.345 . S
C906 N901 1.360 . S
C906 C904 1.417 . S
C906 C910 1.432 . S
H907 C912 0.930 . S
N908 Tb870 2.600 . S
N908 C910 1.359 . S
N908 C911 1.327 . S
C909 H895 0.931 . S
C909 C911 1.392 . S
C909 C912 1.370 . S
C910 C906 1.432 . S
C910 N908 1.359 . S
C910 C913 1.414 . S
C911 H893 0.930 . S
C911 N908 1.327 . S
C911 C909 1.392 . S
C912 H907 0.930 . S
C912 C909 1.370 . S
C912 C913 1.385 . S
C913 C910 1.414 . S
C913 C912 1.385 . S
C913 C935 1.444 . S
O914 Tb870 2.546 . S
O914 C934 1.251 . S
O915 Tb870 2.610 . S
O915 Tb881 2.362 . S
O915 C926 1.283 . S
O916 Tb881 2.421 . S
O916 C933 1.262 . S
O917 Tb870 2.320 . S
O917 C933 1.260 . S
O918 Tb870 2.552 . S
O918 C926 1.243 . S
O919 Tb870 2.413 . S
O919 C934 1.256 . S
O920 Tb881 2.546 . S
O920 C945 1.251 . S
O921 Tb870 2.362 . S
O921 Tb881 2.610 . S
O921 C937 1.283 . S
O922 Tb870 2.421 . S
O922 C944 1.262 . S
O923 Tb881 2.320 . S
O923 C944 1.260 . S
O924 Tb881 2.552 . S
O924 C937 1.243 . S
O925 Tb881 2.413 . S
O925 C945 1.256 . S
C926 O915 1.283 . S
C926 O918 1.243 . S
C927 C929 1.382 . S
C927 C931 1.393 . S
C927 C934 1.500 . S
C928 C929 1.400 . S
C928 C930 1.384 . S
C929 C927 1.382 . S
C929 C928 1.400 . S
C929 H946 0.930 . S
C930 C928 1.384 . S
C930 C932 1.392 . S
C930 H947 0.931 . S
C931 C927 1.393 . S
C931 C932 1.401 . S
C931 H948 0.930 . S
C932 C930 1.392 . S
C932 C931 1.401 . S
C932 H949 0.930 . S
C933 O916 1.262 . S
C933 O917 1.260 . S
C934 Tb870 2.833 . S
C934 O914 1.251 . S
C934 O919 1.256 . S
C934 C927 1.500 . S
C935 H900 0.929 . S
C935 C913 1.444 . S
C935 C936 1.317 . S
C936 H898 0.930 . S
C936 C904 1.432 . S
C936 C935 1.317 . S
C937 O921 1.283 . S
C937 O924 1.243 . S
C938 C939 1.382 . S
C938 C942 1.393 . S
C938 C945 1.500 . S
C939 C938 1.382 . S
C939 C940 1.400 . S
C939 H950 0.930 . S
C940 C939 1.400 . S
C940 C941 1.384 . S
C941 C940 1.384 . S
C941 C943 1.392 . S
C941 H951 0.931 . S
C942 C938 1.393 . S
C942 C943 1.401 . S
C942 H952 0.930 . S
C943 C941 1.392 . S
C943 C942 1.401 . S
C943 H953 0.930 . S
C944 O922 1.262 . S
C944 O923 1.260 . S
C945 Tb881 2.833 . S
C945 O920 1.251 . S
C945 O925 1.256 . S
C945 C938 1.500 . S
H946 C929 0.930 . S
H947 C930 0.931 . S
H948 C931 0.930 . S
H949 C932 0.930 . S
H950 C939 0.930 . S
H951 C941 0.931 . S
H952 C942 0.930 . S
H953 C943 0.930 . S
H954 C960 0.930 . S
H955 C963 0.930 . S
H956 C964 0.930 . S
H957 C965 0.930 . S
H958 C968 0.930 . S
H959 C969 0.930 . S
C960 H954 0.930 . S
C960 C961 1.355 . S
C960 C962 1.415 . S
C961 C960 1.355 . S
C961 C963 1.419 . S
C962 C960 1.415 . S
C962 C967 1.425 . S
C962 C969 1.409 . S
C963 H955 0.930 . S
C963 C961 1.419 . S
C963 C964 1.362 . S
C964 H956 0.930 . S
C964 C963 1.362 . S
C964 C967 1.409 . S
C965 H957 0.930 . S
C965 C966 1.355 . S
C965 C967 1.415 . S
C966 C965 1.355 . S
C966 C968 1.419 . S
C967 C962 1.425 . S
C967 C964 1.409 . S
C967 C965 1.415 . S
C968 H958 0.930 . S
C968 C966 1.419 . S
C968 C969 1.362 . S
C969 H959 0.930 . S
C969 C962 1.409 . S
C969 C968 1.362 . S
H970 C976 0.930 . S
H971 C979 0.930 . S
H972 C980 0.930 . S
H973 C981 0.930 . S
H974 C984 0.930 . S
H975 C985 0.930 . S
C976 H970 0.930 . S
C976 C977 1.355 . S
C976 C978 1.415 . S
C977 C976 1.355 . S
C977 C979 1.419 . S
C978 C976 1.415 . S
C978 C983 1.425 . S
C978 C985 1.409 . S
C979 H971 0.930 . S
C979 C977 1.419 . S
C979 C980 1.362 . S
C980 H972 0.930 . S
C980 C979 1.362 . S
C980 C983 1.409 . S
C981 H973 0.930 . S
C981 C982 1.355 . S
C981 C983 1.415 . S
C982 C981 1.355 . S
C982 C984 1.419 . S
C983 C978 1.425 . S
C983 C980 1.409 . S
C983 C981 1.415 . S
C984 H974 0.930 . S
C984 C982 1.419 . S
C984 C985 1.362 . S
C985 H975 0.930 . S
C985 C978 1.409 . S
C985 C984 1.362 . S
H986 C992 0.930 . S
H987 C995 0.930 . S
H988 C996 0.930 . S
H989 C997 0.930 . S
H990 C1000 0.930 . S
H991 C1001 0.930 . S
C992 H986 0.930 . S
C992 C993 1.355 . S
C992 C994 1.415 . S
C993 C992 1.355 . S
C993 C995 1.419 . S
C994 C992 1.415 . S
C994 C999 1.425 . S
C994 C1001 1.409 . S
C995 H987 0.930 . S
C995 C993 1.419 . S
C995 C996 1.362 . S
C996 H988 0.930 . S
C996 C995 1.362 . S
C996 C999 1.409 . S
C997 H989 0.930 . S
C997 C998 1.355 . S
C997 C999 1.415 . S
C998 C997 1.355 . S
C998 C1000 1.419 . S
C999 C994 1.425 . S
C999 C996 1.409 . S
C999 C997 1.415 . S
C1000 H990 0.930 . S
C1000 C998 1.419 . S
C1000 C1001 1.362 . S
C1001 H991 0.930 . S
C1001 C994 1.409 . S
C1001 C1000 1.362 . S
H1002 C1008 0.930 . S
H1003 C1011 0.930 . S
H1004 C1012 0.930 . S
H1005 C1013 0.930 . S
H1006 C1016 0.930 . S
H1007 C1017 0.930 . S
C1008 H1002 0.930 . S
C1008 C1009 1.355 . S
C1008 C1010 1.415 . S
C1009 C1008 1.355 . S
C1009 C1011 1.419 . S
C1010 C1008 1.415 . S
C1010 C1015 1.425 . S
C1010 C1017 1.409 1_556 S
C1011 H1003 0.930 . S
C1011 C1009 1.419 . S
C1011 C1012 1.362 . S
C1012 H1004 0.930 . S
C1012 C1011 1.362 . S
C1012 C1015 1.409 . S
C1013 H1005 0.930 . S
C1013 C1014 1.355 . S
C1013 C1015 1.415 . S
C1014 C1013 1.355 . S
C1014 C1016 1.419 1_556 S
C1015 C1010 1.425 . S
C1015 C1012 1.409 . S
C1015 C1013 1.415 . S
C1016 H1006 0.930 . S
C1016 C1014 1.419 1_554 S
C1016 C1017 1.362 . S
C1017 H1007 0.930 . S
C1017 C1010 1.409 1_554 S
C1017 C1016 1.362 . S
H1018 C1024 0.930 . S
H1019 C1027 0.930 . S
H1020 C1028 0.930 . S
H1021 C1029 0.930 . S
H1022 C1032 0.930 . S
H1023 C1033 0.930 . S
C1024 H1018 0.930 . S
C1024 C1025 1.355 . S
C1024 C1026 1.415 . S
C1025 C1024 1.355 . S
C1025 C1027 1.419 . S
C1026 C1024 1.415 . S
C1026 C1031 1.425 . S
C1026 C1033 1.409 1_556 S
C1027 H1019 0.930 . S
C1027 C1025 1.419 . S
C1027 C1028 1.362 . S
C1028 H1020 0.930 . S
C1028 C1027 1.362 . S
C1028 C1031 1.409 . S
C1029 H1021 0.930 . S
C1029 C1030 1.355 . S
C1029 C1031 1.415 . S
C1030 C1029 1.355 . S
C1030 C1032 1.419 1_556 S
C1031 C1026 1.425 . S
C1031 C1028 1.409 . S
C1031 C1029 1.415 . S
C1032 H1022 0.930 . S
C1032 C1030 1.419 1_554 S
C1032 C1033 1.362 . S
C1033 H1023 0.930 . S
C1033 C1026 1.409 1_554 S
C1033 C1032 1.362 . S
H1034 C1040 0.930 . S
H1035 C1043 0.930 . S
H1036 C1044 0.930 . S
H1037 C1045 0.930 . S
H1038 C1048 0.930 . S
H1039 C1049 0.930 . S
C1040 H1034 0.930 . S
C1040 C1041 1.355 . S
C1040 C1042 1.415 . S
C1041 C1040 1.355 . S
C1041 C1043 1.419 1_556 S
C1042 C1040 1.415 . S
C1042 C1047 1.425 . S
C1042 C1049 1.409 . S
C1043 H1035 0.930 . S
C1043 C1041 1.419 1_554 S
C1043 C1044 1.362 . S
C1044 H1036 0.930 . S
C1044 C1043 1.362 . S
C1044 C1047 1.409 1_554 S
C1045 H1037 0.930 . S
C1045 C1046 1.355 1_554 S
C1045 C1047 1.415 1_554 S
C1046 C1045 1.355 1_556 S
C1046 C1048 1.419 . S
C1047 C1042 1.425 . S
C1047 C1044 1.409 1_556 S
C1047 C1045 1.415 1_556 S
C1048 H1038 0.930 . S
C1048 C1046 1.419 . S
C1048 C1049 1.362 . S
C1049 H1039 0.930 . S
C1049 C1042 1.409 . S
C1049 C1048 1.362 . S
H1050 C1056 0.930 . S
H1051 C1059 0.929 . S
H1052 C1060 0.930 . S
H1053 C1061 0.930 . S
H1054 C1064 0.930 . S
H1055 C1065 0.930 . S
C1056 H1050 0.930 . S
C1056 C1057 1.355 . S
C1056 C1058 1.415 . S
C1057 C1056 1.355 . S
C1057 C1059 1.419 . S
C1058 C1056 1.415 . S
C1058 C1063 1.425 . S
C1058 C1065 1.409 . S
C1059 H1051 0.929 . S
C1059 C1057 1.419 . S
C1059 C1060 1.362 1_556 S
C1060 H1052 0.930 . S
C1060 C1059 1.362 1_554 S
C1060 C1063 1.409 1_554 S
C1061 H1053 0.930 . S
C1061 C1062 1.355 1_554 S
C1061 C1063 1.415 1_554 S
C1062 C1061 1.355 1_556 S
C1062 C1064 1.419 . S
C1063 C1058 1.425 . S
C1063 C1060 1.409 1_556 S
C1063 C1061 1.415 1_556 S
C1064 H1054 0.930 . S
C1064 C1062 1.419 . S
C1064 C1065 1.362 . S
C1065 H1055 0.930 . S
C1065 C1058 1.409 . S
C1065 C1064 1.362 . S
H1066 C1072 0.930 . S
H1067 C1075 0.930 . S
H1068 C1076 0.930 . S
H1069 C1077 0.930 1_554 S
H1070 C1080 0.930 . S
H1071 C1081 0.930 . S
C1072 H1066 0.930 . S
C1072 C1073 1.355 . S
C1072 C1074 1.415 . S
C1073 C1072 1.355 . S
C1073 C1075 1.419 . S
C1074 C1072 1.415 . S
C1074 C1079 1.425 . S
C1074 C1081 1.409 . S
C1075 H1067 0.930 . S
C1075 C1073 1.419 . S
C1075 C1076 1.362 . S
C1076 H1068 0.930 . S
C1076 C1075 1.362 . S
C1076 C1079 1.409 . S
C1077 H1069 0.930 1_556 S
C1077 C1078 1.355 . S
C1077 C1079 1.415 . S
C1078 C1077 1.355 . S
C1078 C1080 1.419 . S
C1079 C1074 1.425 . S
C1079 C1076 1.409 . S
C1079 C1077 1.415 . S
C1080 H1070 0.930 . S
C1080 C1078 1.419 . S
C1080 C1081 1.362 . S
C1081 H1071 0.930 . S
C1081 C1074 1.409 . S
C1081 C1080 1.362 . S
H1082 C1088 0.930 . S
H1083 C1091 0.930 . S
H1084 C1092 0.930 1_554 S
H1085 C1093 0.930 1_554 S
H1086 C1096 0.930 . S
H1087 C1097 0.930 . S
C1088 H1082 0.930 . S
C1088 C1089 1.355 . S
C1088 C1090 1.415 . S
C1089 C1088 1.355 . S
C1089 C1091 1.419 . S
C1090 C1088 1.415 . S
C1090 C1095 1.425 . S
C1090 C1097 1.409 . S
C1091 H1083 0.930 . S
C1091 C1089 1.419 . S
C1091 C1092 1.362 . S
C1092 H1084 0.930 1_556 S
C1092 C1091 1.362 . S
C1092 C1095 1.409 . S
C1093 H1085 0.930 1_556 S
C1093 C1094 1.355 . S
C1093 C1095 1.415 . S
C1094 C1093 1.355 . S
C1094 C1096 1.419 . S
C1095 C1090 1.425 . S
C1095 C1092 1.409 . S
C1095 C1093 1.415 . S
C1096 H1086 0.930 . S
C1096 C1094 1.419 . S
C1096 C1097 1.362 . S
C1097 H1087 0.930 . S
C1097 C1090 1.409 . S
C1097 C1096 1.362 . S
H1098 C1104 0.930 . S
H1099 C1107 0.930 . S
H1100 C1108 0.930 . S
H1101 C1109 0.930 . S
H1102 C1112 0.930 . S
H1103 C1113 0.930 . S
C1104 H1098 0.930 . S
C1104 C1105 1.355 . S
C1104 C1106 1.415 . S
C1105 C1104 1.355 . S
C1105 C1107 1.419 . S
C1106 C1104 1.415 . S
C1106 C1111 1.425 . S
C1106 C1113 1.409 . S
C1107 H1099 0.930 . S
C1107 C1105 1.419 . S
C1107 C1108 1.362 . S
C1108 H1100 0.930 . S
C1108 C1107 1.362 . S
C1108 C1111 1.409 . S
C1109 H1101 0.930 . S
C1109 C1110 1.355 . S
C1109 C1111 1.415 . S
C1110 C1109 1.355 . S
C1110 C1112 1.419 . S
C1111 C1106 1.425 . S
C1111 C1108 1.409 . S
C1111 C1109 1.415 . S
C1112 H1102 0.930 . S
C1112 C1110 1.419 . S
C1112 C1113 1.362 . S
C1113 H1103 0.930 . S
C1113 C1106 1.409 . S
C1113 C1112 1.362 . S
H1114 C1120 0.930 . S
H1115 C1123 0.930 . S
H1116 C1124 0.930 . S
H1117 C1125 0.930 . S
H1118 C1128 0.930 . S
H1119 C1129 0.930 . S
C1120 H1114 0.930 . S
C1120 C1121 1.355 . S
C1120 C1122 1.415 . S
C1121 C1120 1.355 . S
C1121 C1123 1.419 . S
C1122 C1120 1.415 . S
C1122 C1127 1.425 . S
C1122 C1129 1.409 . S
C1123 H1115 0.930 . S
C1123 C1121 1.419 . S
C1123 C1124 1.362 . S
C1124 H1116 0.930 . S
C1124 C1123 1.362 . S
C1124 C1127 1.409 . S
C1125 H1117 0.930 . S
C1125 C1126 1.355 . S
C1125 C1127 1.415 . S
C1126 C1125 1.355 . S
C1126 C1128 1.419 . S
C1127 C1122 1.425 . S
C1127 C1124 1.409 . S
C1127 C1125 1.415 . S
C1128 H1118 0.930 . S
C1128 C1126 1.419 . S
C1128 C1129 1.362 . S
C1129 H1119 0.930 . S
C1129 C1122 1.409 . S
C1129 C1128 1.362 . S
H1130 C1136 0.930 . S
H1131 C1139 0.930 . S
H1132 C1140 0.930 . S
H1133 C1141 0.930 . S
H1134 C1144 0.930 . S
H1135 C1145 0.930 . S
C1136 H1130 0.930 . S
C1136 C1137 1.355 . S
C1136 C1138 1.415 . S
C1137 C1136 1.355 . S
C1137 C1139 1.419 . S
C1138 C1136 1.415 . S
C1138 C1143 1.425 . S
C1138 C1145 1.409 . S
C1139 H1131 0.930 . S
C1139 C1137 1.419 . S
C1139 C1140 1.362 . S
C1140 H1132 0.930 . S
C1140 C1139 1.362 . S
C1140 C1143 1.409 . S
C1141 H1133 0.930 . S
C1141 C1142 1.355 . S
C1141 C1143 1.415 . S
C1142 C1141 1.355 . S
C1142 C1144 1.419 . S
C1143 C1138 1.425 . S
C1143 C1140 1.409 . S
C1143 C1141 1.415 . S
C1144 H1134 0.930 . S
C1144 C1142 1.419 . S
C1144 C1145 1.362 . S
C1145 H1135 0.930 . S
C1145 C1138 1.409 . S
C1145 C1144 1.362 . S
H1146 C1152 0.930 1_655 S
H1147 C1155 0.930 . S
H1148 C1156 0.930 . S
H1149 C1157 0.930 . S
H1150 C1160 0.930 . S
H1151 C1161 0.930 . S
C1152 H1146 0.930 1_455 S
C1152 C1153 1.355 1_455 S
C1152 C1154 1.415 . S
C1153 C1152 1.355 1_655 S
C1153 C1155 1.419 1_655 S
C1154 C1152 1.415 . S
C1154 C1159 1.425 . S
C1154 C1161 1.409 . S
C1155 H1147 0.930 . S
C1155 C1153 1.419 1_455 S
C1155 C1156 1.362 . S
C1156 H1148 0.930 . S
C1156 C1155 1.362 . S
C1156 C1159 1.409 . S
C1157 H1149 0.930 . S
C1157 C1158 1.355 . S
C1157 C1159 1.415 . S
C1158 C1157 1.355 . S
C1158 C1160 1.419 . S
C1159 C1154 1.425 . S
C1159 C1156 1.409 . S
C1159 C1157 1.415 . S
C1160 H1150 0.930 . S
C1160 C1158 1.419 . S
C1160 C1161 1.362 . S
C1161 H1151 0.930 . S
C1161 C1154 1.409 . S
C1161 C1160 1.362 . S
H1162 C1168 0.930 . S
H1163 C1171 0.930 . S
H1164 C1172 0.930 . S
H1165 C1173 0.930 . S
H1166 C1176 0.930 . S
H1167 C1177 0.930 . S
C1168 H1162 0.930 . S
C1168 C1169 1.355 . S
C1168 C1170 1.415 . S
C1169 C1168 1.355 . S
C1169 C1171 1.419 . S
C1170 C1168 1.415 . S
C1170 C1175 1.425 . S
C1170 C1177 1.409 . S
C1171 H1163 0.930 . S
C1171 C1169 1.419 . S
C1171 C1172 1.362 . S
C1172 H1164 0.930 . S
C1172 C1171 1.362 . S
C1172 C1175 1.409 . S
C1173 H1165 0.930 . S
C1173 C1174 1.355 . S
C1173 C1175 1.415 . S
C1174 C1173 1.355 . S
C1174 C1176 1.419 . S
C1175 C1170 1.425 . S
C1175 C1172 1.409 . S
C1175 C1173 1.415 . S
C1176 H1166 0.930 . S
C1176 C1174 1.419 . S
C1176 C1177 1.362 . S
C1177 H1167 0.930 . S
C1177 C1170 1.409 . S
C1177 C1176 1.362 . S
H1178 C1184 0.930 . S
H1179 C1187 0.930 . S
H1180 C1188 0.930 . S
H1181 C1189 0.930 . S
H1182 C1192 0.930 . S
H1183 C1193 0.930 . S
C1184 H1178 0.930 . S
C1184 C1185 1.355 . S
C1184 C1186 1.415 1_545 S
C1185 C1184 1.355 . S
C1185 C1187 1.419 . S
C1186 C1184 1.415 1_565 S
C1186 C1191 1.425 . S
C1186 C1193 1.409 . S
C1187 H1179 0.930 . S
C1187 C1185 1.419 . S
C1187 C1188 1.362 1_545 S
C1188 H1180 0.930 . S
C1188 C1187 1.362 1_565 S
C1188 C1191 1.409 . S
C1189 H1181 0.930 . S
C1189 C1190 1.355 . S
C1189 C1191 1.415 . S
C1190 C1189 1.355 . S
C1190 C1192 1.419 . S
C1191 C1186 1.425 . S
C1191 C1188 1.409 . S
C1191 C1189 1.415 . S
C1192 H1182 0.930 . S
C1192 C1190 1.419 . S
C1192 C1193 1.362 . S
C1193 H1183 0.930 . S
C1193 C1186 1.409 . S
C1193 C1192 1.362 . S
H1194 C1200 0.930 . S
H1195 C1203 0.930 . S
H1196 C1204 0.930 . S
H1197 C1205 0.930 . S
H1198 C1208 0.930 . S
H1199 C1209 0.930 . S
C1200 H1194 0.930 . S
C1200 C1201 1.355 . S
C1200 C1202 1.415 . S
C1201 C1200 1.355 . S
C1201 C1203 1.419 . S
C1202 C1200 1.415 . S
C1202 C1207 1.425 . S
C1202 C1209 1.409 . S
C1203 H1195 0.930 . S
C1203 C1201 1.419 . S
C1203 C1204 1.362 . S
C1204 H1196 0.930 . S
C1204 C1203 1.362 . S
C1204 C1207 1.409 . S
C1205 H1197 0.930 . S
C1205 C1206 1.355 . S
C1205 C1207 1.415 . S
C1206 C1205 1.355 . S
C1206 C1208 1.419 . S
C1207 C1202 1.425 . S
C1207 C1204 1.409 . S
C1207 C1205 1.415 . S
C1208 H1198 0.930 . S
C1208 C1206 1.419 . S
C1208 C1209 1.362 . S
C1209 H1199 0.930 . S
C1209 C1202 1.409 . S
C1209 C1208 1.362 . S
H1210 C1216 0.930 . S
H1211 C1219 0.930 . S
H1212 C1220 0.930 . S
H1213 C1221 0.930 . S
H1214 C1224 0.930 . S
H1215 C1225 0.930 . S
C1216 H1210 0.930 . S
C1216 C1217 1.355 . S
C1216 C1218 1.415 . S
C1217 C1216 1.355 . S
C1217 C1219 1.419 . S
C1218 C1216 1.415 . S
C1218 C1223 1.425 . S
C1218 C1225 1.409 . S
C1219 H1211 0.930 . S
C1219 C1217 1.419 . S
C1219 C1220 1.362 . S
C1220 H1212 0.930 . S
C1220 C1219 1.362 . S
C1220 C1223 1.409 . S
C1221 H1213 0.930 . S
C1221 C1222 1.355 . S
C1221 C1223 1.415 . S
C1222 C1221 1.355 . S
C1222 C1224 1.419 . S
C1223 C1218 1.425 . S
C1223 C1220 1.409 . S
C1223 C1221 1.415 . S
C1224 H1214 0.930 . S
C1224 C1222 1.419 . S
C1224 C1225 1.362 . S
C1225 H1215 0.930 . S
C1225 C1218 1.409 . S
C1225 C1224 1.362 . S
H1226 C1232 0.930 . S
H1227 C1235 0.930 . S
H1228 C1236 0.930 . S
H1229 C1237 0.930 . S
H1230 C1240 0.930 . S
H1231 C1241 0.930 . S
C1232 H1226 0.930 . S
C1232 C1233 1.355 . S
C1232 C1234 1.415 . S
C1233 C1232 1.355 . S
C1233 C1235 1.419 . S
C1234 C1232 1.415 . S
C1234 C1239 1.425 . S
C1234 C1241 1.409 . S
C1235 H1227 0.930 . S
C1235 C1233 1.419 . S
C1235 C1236 1.362 . S
C1236 H1228 0.930 . S
C1236 C1235 1.362 . S
C1236 C1239 1.409 . S
C1237 H1229 0.930 . S
C1237 C1238 1.355 . S
C1237 C1239 1.415 . S
C1238 C1237 1.355 . S
C1238 C1240 1.419 . S
C1239 C1234 1.425 . S
C1239 C1236 1.409 . S
C1239 C1237 1.415 . S
C1240 H1230 0.930 . S
C1240 C1238 1.419 . S
C1240 C1241 1.362 . S
C1241 H1231 0.930 . S
C1241 C1234 1.409 . S
C1241 C1240 1.362 . S
H1242 C1248 0.930 . S
H1243 C1251 0.930 . S
H1244 C1252 0.930 . S
H1245 C1253 0.930 . S
H1246 C1256 0.930 . S
H1247 C1257 0.930 . S
C1248 H1242 0.930 . S
C1248 C1249 1.355 . S
C1248 C1250 1.415 . S
C1249 C1248 1.355 . S
C1249 C1251 1.419 . S
C1250 C1248 1.415 . S
C1250 C1255 1.425 . S
C1250 C1257 1.409 . S
C1251 H1243 0.930 . S
C1251 C1249 1.419 . S
C1251 C1252 1.362 . S
C1252 H1244 0.930 . S
C1252 C1251 1.362 . S
C1252 C1255 1.409 . S
C1253 H1245 0.930 . S
C1253 C1254 1.355 . S
C1253 C1255 1.415 . S
C1254 C1253 1.355 . S
C1254 C1256 1.419 . S
C1255 C1250 1.425 . S
C1255 C1252 1.409 . S
C1255 C1253 1.415 . S
C1256 H1246 0.930 . S
C1256 C1254 1.419 . S
C1256 C1257 1.362 . S
C1257 H1247 0.930 . S
C1257 C1250 1.409 . S
C1257 C1256 1.362 . S
H1258 C1264 0.930 . S
H1259 C1267 0.930 . S
H1260 C1268 0.930 . S
H1261 C1269 0.930 . S
H1262 C1272 0.930 . S
H1263 C1273 0.930 . S
C1264 H1258 0.930 . S
C1264 C1265 1.355 . S
C1264 C1266 1.415 . S
C1265 C1264 1.355 . S
C1265 C1267 1.419 . S
C1266 C1264 1.415 . S
C1266 C1271 1.425 . S
C1266 C1273 1.409 . S
C1267 H1259 0.930 . S
C1267 C1265 1.419 . S
C1267 C1268 1.362 . S
C1268 H1260 0.930 . S
C1268 C1267 1.362 . S
C1268 C1271 1.409 . S
C1269 H1261 0.930 . S
C1269 C1270 1.355 . S
C1269 C1271 1.415 . S
C1270 C1269 1.355 . S
C1270 C1272 1.419 . S
C1271 C1266 1.425 . S
C1271 C1268 1.409 . S
C1271 C1269 1.415 . S
C1272 H1262 0.930 . S
C1272 C1270 1.419 . S
C1272 C1273 1.362 . S
C1273 H1263 0.930 . S
C1273 C1266 1.409 . S
C1273 C1272 1.362 . S
H1274 C1280 0.930 . S
H1275 C1283 0.930 . S
H1276 C1284 0.930 . S
H1277 C1285 0.930 . S
H1278 C1288 0.930 . S
H1279 C1289 0.930 . S
C1280 H1274 0.930 . S
C1280 C1281 1.355 . S
C1280 C1282 1.415 . S
C1281 C1280 1.355 . S
C1281 C1283 1.419 . S
C1282 C1280 1.415 . S
C1282 C1287 1.425 . S
C1282 C1289 1.409 . S
C1283 H1275 0.930 . S
C1283 C1281 1.419 . S
C1283 C1284 1.362 . S
C1284 H1276 0.930 . S
C1284 C1283 1.362 . S
C1284 C1287 1.409 . S
C1285 H1277 0.930 . S
C1285 C1286 1.355 . S
C1285 C1287 1.415 . S
C1286 C1285 1.355 . S
C1286 C1288 1.419 . S
C1287 C1282 1.425 . S
C1287 C1284 1.409 . S
C1287 C1285 1.415 . S
C1288 H1278 0.930 . S
C1288 C1286 1.419 . S
C1288 C1289 1.362 . S
C1289 H1279 0.930 . S
C1289 C1282 1.409 . S
C1289 C1288 1.362 . S
H1290 C1296 0.930 . S
H1291 C1299 0.930 . S
H1292 C1300 0.930 . S
H1293 C1301 0.930 . S
H1294 C1304 0.930 . S
H1295 C1305 0.930 . S
C1296 H1290 0.930 . S
C1296 C1297 1.355 . S
C1296 C1298 1.415 1_545 S
C1297 C1296 1.355 . S
C1297 C1299 1.419 1_545 S
C1298 C1296 1.415 1_565 S
C1298 C1303 1.425 . S
C1298 C1305 1.409 . S
C1299 H1291 0.930 . S
C1299 C1297 1.419 1_565 S
C1299 C1300 1.362 . S
C1300 H1292 0.930 . S
C1300 C1299 1.362 . S
C1300 C1303 1.409 . S
C1301 H1293 0.930 . S
C1301 C1302 1.355 . S
C1301 C1303 1.415 . S
C1302 C1301 1.355 . S
C1302 C1304 1.419 . S
C1303 C1298 1.425 . S
C1303 C1300 1.409 . S
C1303 C1301 1.415 . S
C1304 H1294 0.930 . S
C1304 C1302 1.419 . S
C1304 C1305 1.362 . S
C1305 H1295 0.930 . S
C1305 C1298 1.409 . S
C1305 C1304 1.362 . S
H1306 C1312 0.930 . S
H1307 C1315 0.930 . S
H1308 C1316 0.930 . S
H1309 C1317 0.930 . S
H1310 C1320 0.930 . S
H1311 C1321 0.930 . S
C1312 H1306 0.930 . S
C1312 C1313 1.355 1_455 S
C1312 C1314 1.415 . S
C1313 C1312 1.355 1_655 S
C1313 C1315 1.419 . S
C1314 C1312 1.415 . S
C1314 C1319 1.425 . S
C1314 C1321 1.409 . S
C1315 H1307 0.930 . S
C1315 C1313 1.419 . S
C1315 C1316 1.362 1_655 S
C1316 H1308 0.930 . S
C1316 C1315 1.362 1_455 S
C1316 C1319 1.409 . S
C1317 H1309 0.930 . S
C1317 C1318 1.355 . S
C1317 C1319 1.415 . S
C1318 C1317 1.355 . S
C1318 C1320 1.419 . S
C1319 C1314 1.425 . S
C1319 C1316 1.409 . S
C1319 C1317 1.415 . S
C1320 H1310 0.930 . S
C1320 C1318 1.419 . S
C1320 C1321 1.362 . S
C1321 H1311 0.930 . S
C1321 C1314 1.409 . S
C1321 C1320 1.362 . S
H1322 C1328 0.930 . S
H1323 C1331 0.930 . S
H1324 C1332 0.930 . S
H1325 C1333 0.930 . S
H1326 C1336 0.930 . S
H1327 C1337 0.930 . S
C1328 H1322 0.930 . S
C1328 C1329 1.355 . S
C1328 C1330 1.415 . S
C1329 C1328 1.355 . S
C1329 C1331 1.419 . S
C1330 C1328 1.415 . S
C1330 C1335 1.425 . S
C1330 C1337 1.409 . S
C1331 H1323 0.930 . S
C1331 C1329 1.419 . S
C1331 C1332 1.362 . S
C1332 H1324 0.930 . S
C1332 C1331 1.362 . S
C1332 C1335 1.409 . S
C1333 H1325 0.930 . S
C1333 C1334 1.355 . S
C1333 C1335 1.415 . S
C1334 C1333 1.355 . S
C1334 C1336 1.419 . S
C1335 C1330 1.425 . S
C1335 C1332 1.409 . S
C1335 C1333 1.415 . S
C1336 H1326 0.930 . S
C1336 C1334 1.419 . S
C1336 C1337 1.362 . S
C1337 H1327 0.930 . S
C1337 C1330 1.409 . S
C1337 C1336 1.362 . S
H1338 C1344 0.930 . S
H1339 C1347 0.930 . S
H1340 C1348 0.930 . S
H1341 C1349 0.930 . S
H1342 C1352 0.930 . S
H1343 C1353 0.930 . S
C1344 H1338 0.930 . S
C1344 C1345 1.355 . S
C1344 C1346 1.415 . S
C1345 C1344 1.355 . S
C1345 C1347 1.419 . S
C1346 C1344 1.415 . S
C1346 C1351 1.425 . S
C1346 C1353 1.409 . S
C1347 H1339 0.930 . S
C1347 C1345 1.419 . S
C1347 C1348 1.362 . S
C1348 H1340 0.930 . S
C1348 C1347 1.362 . S
C1348 C1351 1.409 . S
C1349 H1341 0.930 . S
C1349 C1350 1.355 . S
C1349 C1351 1.415 . S
C1350 C1349 1.355 . S
C1350 C1352 1.419 . S
C1351 C1346 1.425 . S
C1351 C1348 1.409 . S
C1351 C1349 1.415 . S
C1352 H1342 0.930 . S
C1352 C1350 1.419 . S
C1352 C1353 1.362 . S
C1353 H1343 0.930 . S
C1353 C1346 1.409 . S
C1353 C1352 1.362 . S
H1354 C1360 0.930 . S
H1355 C1363 0.930 . S
H1356 C1364 0.930 . S
H1357 C1365 0.930 . S
H1358 C1368 0.930 . S
H1359 C1369 0.930 . S
C1360 H1354 0.930 . S
C1360 C1361 1.355 . S
C1360 C1362 1.415 . S
C1361 C1360 1.355 . S
C1361 C1363 1.419 . S
C1362 C1360 1.415 . S
C1362 C1367 1.425 . S
C1362 C1369 1.409 . S
C1363 H1355 0.930 . S
C1363 C1361 1.419 . S
C1363 C1364 1.362 . S
C1364 H1356 0.930 . S
C1364 C1363 1.362 . S
C1364 C1367 1.409 . S
C1365 H1357 0.930 . S
C1365 C1366 1.355 . S
C1365 C1367 1.415 . S
C1366 C1365 1.355 . S
C1366 C1368 1.419 . S
C1367 C1362 1.425 . S
C1367 C1364 1.409 . S
C1367 C1365 1.415 . S
C1368 H1358 0.930 . S
C1368 C1366 1.419 . S
C1368 C1369 1.362 . S
C1369 H1359 0.930 . S
C1369 C1362 1.409 . S
C1369 C1368 1.362 . S
H1370 C1376 0.930 . S
H1371 C1379 0.930 . S
H1372 C1380 0.930 . S
H1373 C1381 0.930 . S
H1374 C1384 0.930 . S
H1375 C1385 0.930 . S
C1376 H1370 0.930 . S
C1376 C1377 1.355 . S
C1376 C1378 1.415 . S
C1377 C1376 1.355 . S
C1377 C1379 1.419 . S
C1378 C1376 1.415 . S
C1378 C1383 1.425 . S
C1378 C1385 1.409 . S
C1379 H1371 0.930 . S
C1379 C1377 1.419 . S
C1379 C1380 1.362 . S
C1380 H1372 0.930 . S
C1380 C1379 1.362 . S
C1380 C1383 1.409 . S
C1381 H1373 0.930 . S
C1381 C1382 1.355 . S
C1381 C1383 1.415 . S
C1382 C1381 1.355 . S
C1382 C1384 1.419 . S
C1383 C1378 1.425 . S
C1383 C1380 1.409 . S
C1383 C1381 1.415 . S
C1384 H1374 0.930 . S
C1384 C1382 1.419 . S
C1384 C1385 1.362 . S
C1385 H1375 0.930 . S
C1385 C1378 1.409 . S
C1385 C1384 1.362 . S
H1386 C1392 0.930 . S
H1387 C1395 0.928 . S
H1388 C1396 0.930 . S
H1389 C1397 0.930 . S
H1390 C1400 0.930 . S
H1391 C1401 0.930 . S
C1392 H1386 0.930 . S
C1392 C1393 1.355 . S
C1392 C1394 1.415 1_565 S
C1393 C1392 1.355 . S
C1393 C1395 1.419 1_565 S
C1394 C1392 1.415 1_545 S
C1394 C1399 1.425 . S
C1394 C1401 1.409 . S
C1395 H1387 0.928 . S
C1395 C1393 1.419 1_545 S
C1395 C1396 1.362 . S
C1396 H1388 0.930 . S
C1396 C1395 1.362 . S
C1396 C1399 1.409 . S
C1397 H1389 0.930 . S
C1397 C1398 1.355 . S
C1397 C1399 1.415 . S
C1398 C1397 1.355 . S
C1398 C1400 1.419 . S
C1399 C1394 1.425 . S
C1399 C1396 1.409 . S
C1399 C1397 1.415 . S
C1400 H1390 0.930 . S
C1400 C1398 1.419 . S
C1400 C1401 1.362 . S
C1401 H1391 0.930 . S
C1401 C1394 1.409 . S
C1401 C1400 1.362 . S
H1402 C1408 0.930 . S
H1403 C1411 0.930 . S
H1404 C1412 0.930 . S
H1405 C1413 0.930 . S
H1406 C1416 0.930 . S
H1407 C1417 0.930 . S
C1408 H1402 0.930 . S
C1408 C1409 1.355 . S
C1408 C1410 1.415 1_455 S
C1409 C1408 1.355 . S
C1409 C1411 1.419 . S
C1410 C1408 1.415 1_655 S
C1410 C1415 1.425 . S
C1410 C1417 1.409 . S
C1411 H1403 0.930 . S
C1411 C1409 1.419 . S
C1411 C1412 1.362 1_455 S
C1412 H1404 0.930 . S
C1412 C1411 1.362 1_655 S
C1412 C1415 1.409 . S
C1413 H1405 0.930 . S
C1413 C1414 1.355 . S
C1413 C1415 1.415 . S
C1414 C1413 1.355 . S
C1414 C1416 1.419 . S
C1415 C1410 1.425 . S
C1415 C1412 1.409 . S
C1415 C1413 1.415 . S
C1416 H1406 0.930 . S
C1416 C1414 1.419 . S
C1416 C1417 1.362 . S
C1417 H1407 0.930 . S
C1417 C1410 1.409 . S
C1417 C1416 1.362 . S
H1418 C1424 0.930 . S
H1419 C1427 0.930 . S
H1420 C1428 0.930 . S
H1421 C1429 0.930 . S
H1422 C1432 0.930 . S
H1423 C1433 0.930 . S
C1424 H1418 0.930 . S
C1424 C1425 1.355 . S
C1424 C1426 1.415 . S
C1425 C1424 1.355 . S
C1425 C1427 1.419 . S
C1426 C1424 1.415 . S
C1426 C1431 1.425 . S
C1426 C1433 1.409 . S
C1427 H1419 0.930 . S
C1427 C1425 1.419 . S
C1427 C1428 1.362 . S
C1428 H1420 0.930 . S
C1428 C1427 1.362 . S
C1428 C1431 1.409 . S
C1429 H1421 0.930 . S
C1429 C1430 1.355 . S
C1429 C1431 1.415 . S
C1430 C1429 1.355 . S
C1430 C1432 1.419 . S
C1431 C1426 1.425 . S
C1431 C1428 1.409 . S
C1431 C1429 1.415 . S
C1432 H1422 0.930 . S
C1432 C1430 1.419 . S
C1432 C1433 1.362 . S
C1433 H1423 0.930 . S
C1433 C1426 1.409 . S
C1433 C1432 1.362 . S
H1434 C1440 0.930 . S
H1435 C1443 0.911 1_455 S
H1436 C1444 0.930 . S
H1437 C1445 0.930 . S
H1438 C1448 0.930 . S
H1439 C1449 0.930 . S
C1440 H1434 0.930 . S
C1440 C1441 1.355 . S
C1440 C1442 1.415 . S
C1441 C1440 1.355 . S
C1441 C1443 1.429 . S
C1442 C1440 1.415 . S
C1442 C1447 1.425 . S
C1442 C1449 1.409 . S
C1443 H1435 0.911 1_655 S
C1443 C1441 1.429 . S
C1443 C1444 1.371 . S
C1444 H1436 0.930 . S
C1444 C1443 1.371 . S
C1444 C1447 1.409 . S
C1445 H1437 0.930 . S
C1445 C1446 1.355 . S
C1445 C1447 1.415 . S
C1446 C1445 1.355 . S
C1446 C1448 1.419 . S
C1447 C1442 1.425 . S
C1447 C1444 1.409 . S
C1447 C1445 1.415 . S
C1448 H1438 0.930 . S
C1448 C1446 1.419 . S
C1448 C1449 1.362 . S
C1449 H1439 0.930 . S
C1449 C1442 1.409 . S
C1449 C1448 1.362 . S
H1450 C1456 0.930 . S
H1451 C1459 0.930 . S
H1452 C1460 0.930 . S
H1453 C1461 0.930 . S
H1454 C1464 0.930 . S
H1455 C1465 0.930 . S
C1456 H1450 0.930 . S
C1456 C1457 1.355 . S
C1456 C1458 1.415 . S
C1457 C1456 1.355 . S
C1457 C1459 1.419 . S
C1458 C1456 1.415 . S
C1458 C1463 1.425 . S
C1458 C1465 1.409 . S
C1459 H1451 0.930 . S
C1459 C1457 1.419 . S
C1459 C1460 1.362 . S
C1460 H1452 0.930 . S
C1460 C1459 1.362 . S
C1460 C1463 1.409 . S
C1461 H1453 0.930 . S
C1461 C1462 1.355 . S
C1461 C1463 1.415 . S
C1462 C1461 1.355 . S
C1462 C1464 1.419 . S
C1463 C1458 1.425 . S
C1463 C1460 1.409 . S
C1463 C1461 1.415 . S
C1464 H1454 0.930 . S
C1464 C1462 1.419 . S
C1464 C1465 1.362 . S
C1465 H1455 0.930 . S
C1465 C1458 1.409 . S
C1465 C1464 1.362 . S
H1466 C1472 0.930 1_565 S
H1467 C1475 0.930 . S
H1468 C1476 0.930 . S
H1469 C1477 0.930 . S
H1470 C1480 0.930 . S
H1471 C1481 0.930 . S
C1472 H1466 0.930 1_545 S
C1472 C1473 1.355 1_545 S
C1472 C1474 1.415 . S
C1473 C1472 1.355 1_565 S
C1473 C1475 1.419 1_565 S
C1474 C1472 1.415 . S
C1474 C1479 1.425 . S
C1474 C1481 1.409 . S
C1475 H1467 0.930 . S
C1475 C1473 1.419 1_545 S
C1475 C1476 1.362 . S
C1476 H1468 0.930 . S
C1476 C1475 1.362 . S
C1476 C1479 1.409 . S
C1477 H1469 0.930 . S
C1477 C1478 1.355 . S
C1477 C1479 1.415 . S
C1478 C1477 1.355 . S
C1478 C1480 1.419 . S
C1479 C1474 1.425 . S
C1479 C1476 1.409 . S
C1479 C1477 1.415 . S
C1480 H1470 0.930 . S
C1480 C1478 1.419 . S
C1480 C1481 1.362 . S
C1481 H1471 0.930 . S
C1481 C1474 1.409 . S
C1481 C1480 1.362 . S
H1482 C1488 0.930 . S
H1483 C1491 0.930 . S
H1484 C1492 0.930 . S
H1485 C1493 0.930 . S
H1486 C1496 0.930 . S
H1487 C1497 0.930 . S
C1488 H1482 0.930 . S
C1488 C1489 1.355 . S
C1488 C1490 1.415 . S
C1489 C1488 1.355 . S
C1489 C1491 1.419 . S
C1490 C1488 1.415 . S
C1490 C1495 1.425 . S
C1490 C1497 1.409 . S
C1491 H1483 0.930 . S
C1491 C1489 1.419 . S
C1491 C1492 1.362 . S
C1492 H1484 0.930 . S
C1492 C1491 1.362 . S
C1492 C1495 1.409 . S
C1493 H1485 0.930 . S
C1493 C1494 1.355 . S
C1493 C1495 1.415 . S
C1494 C1493 1.355 . S
C1494 C1496 1.419 . S
C1495 C1490 1.425 . S
C1495 C1492 1.409 . S
C1495 C1493 1.415 . S
C1496 H1486 0.930 . S
C1496 C1494 1.419 . S
C1496 C1497 1.362 . S
C1497 H1487 0.930 . S
C1497 C1490 1.409 . S
C1497 C1496 1.362 . S
H1498 C1504 0.930 . S
H1499 C1507 0.930 . S
H1500 C1508 0.930 . S
H1501 C1509 0.930 . S
H1502 C1512 0.930 . S
H1503 C1513 0.930 . S
C1504 H1498 0.930 . S
C1504 C1505 1.355 . S
C1504 C1506 1.415 . S
C1505 C1504 1.355 . S
C1505 C1507 1.419 . S
C1506 C1504 1.415 . S
C1506 C1511 1.425 . S
C1506 C1513 1.409 . S
C1507 H1499 0.930 . S
C1507 C1505 1.419 . S
C1507 C1508 1.362 . S
C1508 H1500 0.930 . S
C1508 C1507 1.362 . S
C1508 C1511 1.409 . S
C1509 H1501 0.930 . S
C1509 C1510 1.355 . S
C1509 C1511 1.415 . S
C1510 C1509 1.355 . S
C1510 C1512 1.419 . S
C1511 C1506 1.425 . S
C1511 C1508 1.409 . S
C1511 C1509 1.415 . S
C1512 H1502 0.930 . S
C1512 C1510 1.419 . S
C1512 C1513 1.362 . S
C1513 H1503 0.930 . S
C1513 C1506 1.409 . S
C1513 C1512 1.362 . S
H1514 C1520 0.930 . S
H1515 C1523 0.930 . S
H1516 C1524 0.930 . S
H1517 C1525 0.930 . S
H1518 C1528 0.930 . S
H1519 C1529 0.930 . S
C1520 H1514 0.930 . S
C1520 C1521 1.355 . S
C1520 C1522 1.415 . S
C1521 C1520 1.355 . S
C1521 C1523 1.419 . S
C1522 C1520 1.415 . S
C1522 C1527 1.425 . S
C1522 C1529 1.409 . S
C1523 H1515 0.930 . S
C1523 C1521 1.419 . S
C1523 C1524 1.362 . S
C1524 H1516 0.930 . S
C1524 C1523 1.362 . S
C1524 C1527 1.409 . S
C1525 H1517 0.930 . S
C1525 C1526 1.355 . S
C1525 C1527 1.415 . S
C1526 C1525 1.355 . S
C1526 C1528 1.419 . S
C1527 C1522 1.425 . S
C1527 C1524 1.409 . S
C1527 C1525 1.415 . S
C1528 H1518 0.930 . S
C1528 C1526 1.419 . S
C1528 C1529 1.362 . S
C1529 H1519 0.930 . S
C1529 C1522 1.409 . S
C1529 C1528 1.362 . S
H1530 C1536 0.930 . S
H1531 C1539 0.930 . S
H1532 C1540 0.930 . S
H1533 C1541 0.930 . S
H1534 C1544 0.930 . S
H1535 C1545 0.930 . S
C1536 H1530 0.930 . S
C1536 C1537 1.355 . S
C1536 C1538 1.415 . S
C1537 C1536 1.355 . S
C1537 C1539 1.419 . S
C1538 C1536 1.415 . S
C1538 C1543 1.425 . S
C1538 C1545 1.409 . S
C1539 H1531 0.930 . S
C1539 C1537 1.419 . S
C1539 C1540 1.362 . S
C1540 H1532 0.930 . S
C1540 C1539 1.362 . S
C1540 C1543 1.409 . S
C1541 H1533 0.930 . S
C1541 C1542 1.355 . S
C1541 C1543 1.415 . S
C1542 C1541 1.355 . S
C1542 C1544 1.419 . S
C1543 C1538 1.425 . S
C1543 C1540 1.409 . S
C1543 C1541 1.415 . S
C1544 H1534 0.930 . S
C1544 C1542 1.419 . S
C1544 C1545 1.362 . S
C1545 H1535 0.930 . S
C1545 C1538 1.409 . S
C1545 C1544 1.362 . S
H1546 C1552 0.930 . S
H1547 C1555 0.930 . S
H1548 C1556 0.930 . S
H1549 C1557 0.930 . S
H1550 C1560 0.930 . S
H1551 C1561 0.930 . S
C1552 H1546 0.930 . S
C1552 C1553 1.355 . S
C1552 C1554 1.415 . S
C1553 C1552 1.355 . S
C1553 C1555 1.419 . S
C1554 C1552 1.415 . S
C1554 C1559 1.425 . S
C1554 C1561 1.409 . S
C1555 H1547 0.930 . S
C1555 C1553 1.419 . S
C1555 C1556 1.362 . S
C1556 H1548 0.930 . S
C1556 C1555 1.362 . S
C1556 C1559 1.409 . S
C1557 H1549 0.930 . S
C1557 C1558 1.355 . S
C1557 C1559 1.415 . S
C1558 C1557 1.355 . S
C1558 C1560 1.419 . S
C1559 C1554 1.425 . S
C1559 C1556 1.409 . S
C1559 C1557 1.415 . S
C1560 H1550 0.930 . S
C1560 C1558 1.419 . S
C1560 C1561 1.362 . S
C1561 H1551 0.930 . S
C1561 C1554 1.409 . S
C1561 C1560 1.362 . S
H1562 C1568 0.930 . S
H1563 C1571 0.930 . S
H1564 C1572 0.930 . S
H1565 C1573 0.930 . S
H1566 C1576 0.930 . S
H1567 C1577 0.930 . S
C1568 H1562 0.930 . S
C1568 C1569 1.355 . S
C1568 C1570 1.415 . S
C1569 C1568 1.355 . S
C1569 C1571 1.419 . S
C1570 C1568 1.415 . S
C1570 C1575 1.425 . S
C1570 C1577 1.409 . S
C1571 H1563 0.930 . S
C1571 C1569 1.419 . S
C1571 C1572 1.362 . S
C1572 H1564 0.930 . S
C1572 C1571 1.362 . S
C1572 C1575 1.409 . S
C1573 H1565 0.930 . S
C1573 C1574 1.355 . S
C1573 C1575 1.415 . S
C1574 C1573 1.355 . S
C1574 C1576 1.419 . S
C1575 C1570 1.425 . S
C1575 C1572 1.409 . S
C1575 C1573 1.415 . S
C1576 H1566 0.930 . S
C1576 C1574 1.419 . S
C1576 C1577 1.362 . S
C1577 H1567 0.930 . S
C1577 C1570 1.409 . S
C1577 C1576 1.362 . S
H1578 C1584 0.930 . S
H1579 C1587 0.930 . S
H1580 C1588 0.930 . S
H1581 C1589 0.930 . S
H1582 C1592 0.930 . S
H1583 C1593 0.930 . S
C1584 H1578 0.930 . S
C1584 C1585 1.355 . S
C1584 C1586 1.415 . S
C1585 C1584 1.355 . S
C1585 C1587 1.419 . S
C1586 C1584 1.415 . S
C1586 C1591 1.425 . S
C1586 C1593 1.409 . S
C1587 H1579 0.930 . S
C1587 C1585 1.419 . S
C1587 C1588 1.362 . S
C1588 H1580 0.930 . S
C1588 C1587 1.362 . S
C1588 C1591 1.409 . S
C1589 H1581 0.930 . S
C1589 C1590 1.355 . S
C1589 C1591 1.415 . S
C1590 C1589 1.355 . S
C1590 C1592 1.419 . S
C1591 C1586 1.425 . S
C1591 C1588 1.409 . S
C1591 C1589 1.415 . S
C1592 H1582 0.930 . S
C1592 C1590 1.419 . S
C1592 C1593 1.362 . S
C1593 H1583 0.930 . S
C1593 C1586 1.409 . S
C1593 C1592 1.362 . S
H1594 C1600 0.930 . S
H1595 C1603 0.930 . S
H1596 C1604 0.930 . S
H1597 C1605 0.930 . S
H1598 C1608 0.930 . S
H1599 C1609 0.930 . S
C1600 H1594 0.930 . S
C1600 C1601 1.355 . S
C1600 C1602 1.415 . S
C1601 C1600 1.355 . S
C1601 C1603 1.419 . S
C1602 C1600 1.415 . S
C1602 C1607 1.425 . S
C1602 C1609 1.409 . S
C1603 H1595 0.930 . S
C1603 C1601 1.419 . S
C1603 C1604 1.362 . S
C1604 H1596 0.930 . S
C1604 C1603 1.362 . S
C1604 C1607 1.409 . S
C1605 H1597 0.930 . S
C1605 C1606 1.355 . S
C1605 C1607 1.415 . S
C1606 C1605 1.355 . S
C1606 C1608 1.419 . S
C1607 C1602 1.425 . S
C1607 C1604 1.409 . S
C1607 C1605 1.415 . S
C1608 H1598 0.930 . S
C1608 C1606 1.419 . S
C1608 C1609 1.362 . S
C1609 H1599 0.930 . S
C1609 C1602 1.409 . S
C1609 C1608 1.362 . S
H1610 C1616 0.930 . S
H1611 C1619 0.930 . S
H1612 C1620 0.930 . S
H1613 C1621 0.930 . S
H1614 C1624 0.930 . S
H1615 C1625 0.930 . S
C1616 H1610 0.930 . S
C1616 C1617 1.355 . S
C1616 C1618 1.415 . S
C1617 C1616 1.355 . S
C1617 C1619 1.419 . S
C1618 C1616 1.415 . S
C1618 C1623 1.425 . S
C1618 C1625 1.409 . S
C1619 H1611 0.930 . S
C1619 C1617 1.419 . S
C1619 C1620 1.362 . S
C1620 H1612 0.930 . S
C1620 C1619 1.362 . S
C1620 C1623 1.409 . S
C1621 H1613 0.930 . S
C1621 C1622 1.355 . S
C1621 C1623 1.415 . S
C1622 C1621 1.355 . S
C1622 C1624 1.419 . S
C1623 C1618 1.425 . S
C1623 C1620 1.409 . S
C1623 C1621 1.415 . S
C1624 H1614 0.930 . S
C1624 C1622 1.419 . S
C1624 C1625 1.362 . S
C1625 H1615 0.930 . S
C1625 C1618 1.409 . S
C1625 C1624 1.362 . S
H1626 C1632 0.930 . S
H1627 C1635 0.930 . S
H1628 C1636 0.930 . S
H1629 C1637 0.930 . S
H1630 C1640 0.930 . S
H1631 C1641 0.930 . S
C1632 H1626 0.930 . S
C1632 C1633 1.355 . S
C1632 C1634 1.415 . S
C1633 C1632 1.355 . S
C1633 C1635 1.419 . S
C1634 C1632 1.415 . S
C1634 C1639 1.425 . S
C1634 C1641 1.409 . S
C1635 H1627 0.930 . S
C1635 C1633 1.419 . S
C1635 C1636 1.362 . S
C1636 H1628 0.930 . S
C1636 C1635 1.362 . S
C1636 C1639 1.409 . S
C1637 H1629 0.930 . S
C1637 C1638 1.355 . S
C1637 C1639 1.415 . S
C1638 C1637 1.355 . S
C1638 C1640 1.419 . S
C1639 C1634 1.425 . S
C1639 C1636 1.409 . S
C1639 C1637 1.415 . S
C1640 H1630 0.930 . S
C1640 C1638 1.419 . S
C1640 C1641 1.362 . S
C1641 H1631 0.930 . S
C1641 C1634 1.409 . S
C1641 C1640 1.362 . S
H1642 C1648 0.930 . S
H1643 C1651 0.930 . S
H1644 C1652 0.930 . S
H1645 C1653 0.930 . S
H1646 C1656 0.930 . S
H1647 C1657 0.930 . S
C1648 H1642 0.930 . S
C1648 C1649 1.355 . S
C1648 C1650 1.415 . S
C1649 C1648 1.355 . S
C1649 C1651 1.419 . S
C1650 C1648 1.415 . S
C1650 C1655 1.425 . S
C1650 C1657 1.409 . S
C1651 H1643 0.930 . S
C1651 C1649 1.419 . S
C1651 C1652 1.362 . S
C1652 H1644 0.930 . S
C1652 C1651 1.362 . S
C1652 C1655 1.409 . S
C1653 H1645 0.930 . S
C1653 C1654 1.355 . S
C1653 C1655 1.415 . S
C1654 C1653 1.355 . S
C1654 C1656 1.419 . S
C1655 C1650 1.425 . S
C1655 C1652 1.409 . S
C1655 C1653 1.415 . S
C1656 H1646 0.930 . S
C1656 C1654 1.419 . S
C1656 C1657 1.362 . S
C1657 H1647 0.930 . S
C1657 C1650 1.409 . S
C1657 C1656 1.362 . S
H1658 C1664 0.930 . S
H1659 C1667 0.930 . S
H1660 C1668 0.930 . S
H1661 C1669 0.930 . S
H1662 C1672 0.930 . S
H1663 C1673 0.930 . S
C1664 H1658 0.930 . S
C1664 C1665 1.355 . S
C1664 C1666 1.415 . S
C1665 C1664 1.355 . S
C1665 C1667 1.419 . S
C1666 C1664 1.415 . S
C1666 C1671 1.425 . S
C1666 C1673 1.409 . S
C1667 H1659 0.930 . S
C1667 C1665 1.419 . S
C1667 C1668 1.362 . S
C1668 H1660 0.930 . S
C1668 C1667 1.362 . S
C1668 C1671 1.409 . S
C1669 H1661 0.930 . S
C1669 C1670 1.355 . S
C1669 C1671 1.415 . S
C1670 C1669 1.355 . S
C1670 C1672 1.419 . S
C1671 C1666 1.425 . S
C1671 C1668 1.409 . S
C1671 C1669 1.415 . S
C1672 H1662 0.930 . S
C1672 C1670 1.419 . S
C1672 C1673 1.362 . S
C1673 H1663 0.930 . S
C1673 C1666 1.409 . S
C1673 C1672 1.362 . S
H1674 C1680 0.930 . S
H1675 C1683 0.930 . S
H1676 C1684 0.930 . S
H1677 C1685 0.930 . S
H1678 C1688 0.930 . S
H1679 C1689 0.930 . S
C1680 H1674 0.930 . S
C1680 C1681 1.355 . S
C1680 C1682 1.415 . S
C1681 C1680 1.355 . S
C1681 C1683 1.419 . S
C1682 C1680 1.415 . S
C1682 C1687 1.425 . S
C1682 C1689 1.409 . S
C1683 H1675 0.930 . S
C1683 C1681 1.419 . S
C1683 C1684 1.362 . S
C1684 H1676 0.930 . S
C1684 C1683 1.362 . S
C1684 C1687 1.409 . S
C1685 H1677 0.930 . S
C1685 C1686 1.355 . S
C1685 C1687 1.415 . S
C1686 C1685 1.355 . S
C1686 C1688 1.419 . S
C1687 C1682 1.425 . S
C1687 C1684 1.409 . S
C1687 C1685 1.415 . S
C1688 H1678 0.930 . S
C1688 C1686 1.419 . S
C1688 C1689 1.362 . S
C1689 H1679 0.930 . S
C1689 C1682 1.409 . S
C1689 C1688 1.362 . S
H1690 C1696 0.930 . S
H1691 C1699 0.930 . S
H1692 C1700 0.930 . S
H1693 C1701 0.930 . S
H1694 C1704 0.930 . S
H1695 C1705 0.930 . S
C1696 H1690 0.930 . S
C1696 C1697 1.355 . S
C1696 C1698 1.415 . S
C1697 C1696 1.355 . S
C1697 C1699 1.419 . S
C1698 C1696 1.415 . S
C1698 C1703 1.425 . S
C1698 C1705 1.409 . S
C1699 H1691 0.930 . S
C1699 C1697 1.419 . S
C1699 C1700 1.362 . S
C1700 H1692 0.930 . S
C1700 C1699 1.362 . S
C1700 C1703 1.409 . S
C1701 H1693 0.930 . S
C1701 C1702 1.355 . S
C1701 C1703 1.415 . S
C1702 C1701 1.355 . S
C1702 C1704 1.419 . S
C1703 C1698 1.425 . S
C1703 C1700 1.409 . S
C1703 C1701 1.415 . S
C1704 H1694 0.930 . S
C1704 C1702 1.419 . S
C1704 C1705 1.362 . S
C1705 H1695 0.930 . S
C1705 C1698 1.409 . S
C1705 C1704 1.362 . S
H1706 C1712 0.930 . S
H1707 C1715 0.930 . S
H1708 C1716 0.930 . S
H1709 C1717 0.930 . S
H1710 C1720 0.930 . S
H1711 C1721 0.930 . S
C1712 H1706 0.930 . S
C1712 C1713 1.355 . S
C1712 C1714 1.415 . S
C1713 C1712 1.355 . S
C1713 C1715 1.419 . S
C1714 C1712 1.415 . S
C1714 C1719 1.425 . S
C1714 C1721 1.409 . S
C1715 H1707 0.930 . S
C1715 C1713 1.419 . S
C1715 C1716 1.362 . S
C1716 H1708 0.930 . S
C1716 C1715 1.362 . S
C1716 C1719 1.409 . S
C1717 H1709 0.930 . S
C1717 C1718 1.355 . S
C1717 C1719 1.415 . S
C1718 C1717 1.355 . S
C1718 C1720 1.419 . S
C1719 C1714 1.425 . S
C1719 C1716 1.409 . S
C1719 C1717 1.415 . S
C1720 H1710 0.930 . S
C1720 C1718 1.419 . S
C1720 C1721 1.362 . S
C1721 H1711 0.930 . S
C1721 C1714 1.409 . S
C1721 C1720 1.362 . S
H1722 C1728 0.930 . S
H1723 C1731 0.930 . S
H1724 C1732 0.930 . S
H1725 C1733 0.930 . S
H1726 C1736 0.930 . S
H1727 C1737 0.930 . S
C1728 H1722 0.930 . S
C1728 C1729 1.355 . S
C1728 C1730 1.415 . S
C1729 C1728 1.355 . S
C1729 C1731 1.419 . S
C1730 C1728 1.415 . S
C1730 C1735 1.425 . S
C1730 C1737 1.409 . S
C1731 H1723 0.930 . S
C1731 C1729 1.419 . S
C1731 C1732 1.362 . S
C1732 H1724 0.930 . S
C1732 C1731 1.362 . S
C1732 C1735 1.409 . S
C1733 H1725 0.930 . S
C1733 C1734 1.355 . S
C1733 C1735 1.415 . S
C1734 C1733 1.355 . S
C1734 C1736 1.419 . S
C1735 C1730 1.425 . S
C1735 C1732 1.409 . S
C1735 C1733 1.415 . S
C1736 H1726 0.930 . S
C1736 C1734 1.419 . S
C1736 C1737 1.362 . S
C1737 H1727 0.930 . S
C1737 C1730 1.409 . S
C1737 C1736 1.362 . S
H1738 C1744 0.930 . S
H1739 C1747 0.930 . S
H1740 C1748 0.930 . S
H1741 C1749 0.930 . S
H1742 C1752 0.930 . S
H1743 C1753 0.930 . S
C1744 H1738 0.930 . S
C1744 C1745 1.355 . S
C1744 C1746 1.415 . S
C1745 C1744 1.355 . S
C1745 C1747 1.419 . S
C1746 C1744 1.415 . S
C1746 C1751 1.425 . S
C1746 C1753 1.409 . S
C1747 H1739 0.930 . S
C1747 C1745 1.419 . S
C1747 C1748 1.362 . S
C1748 H1740 0.930 . S
C1748 C1747 1.362 . S
C1748 C1751 1.409 . S
C1749 H1741 0.930 . S
C1749 C1750 1.355 . S
C1749 C1751 1.415 . S
C1750 C1749 1.355 . S
C1750 C1752 1.419 . S
C1751 C1746 1.425 . S
C1751 C1748 1.409 . S
C1751 C1749 1.415 . S
C1752 H1742 0.930 . S
C1752 C1750 1.419 . S
C1752 C1753 1.362 . S
C1753 H1743 0.930 . S
C1753 C1746 1.409 . S
C1753 C1752 1.362 . S
H1754 C1760 0.930 . S
H1755 C1763 0.930 . S
H1756 C1764 0.930 . S
H1757 C1765 0.930 . S
H1758 C1768 0.930 . S
H1759 C1769 0.930 . S
C1760 H1754 0.930 . S
C1760 C1761 1.355 . S
C1760 C1762 1.415 . S
C1761 C1760 1.355 . S
C1761 C1763 1.419 . S
C1762 C1760 1.415 . S
C1762 C1767 1.425 . S
C1762 C1769 1.409 . S
C1763 H1755 0.930 . S
C1763 C1761 1.419 . S
C1763 C1764 1.362 . S
C1764 H1756 0.930 . S
C1764 C1763 1.362 . S
C1764 C1767 1.409 . S
C1765 H1757 0.930 . S
C1765 C1766 1.355 . S
C1765 C1767 1.415 . S
C1766 C1765 1.355 . S
C1766 C1768 1.419 . S
C1767 C1762 1.425 . S
C1767 C1764 1.409 . S
C1767 C1765 1.415 . S
C1768 H1758 0.930 . S
C1768 C1766 1.419 . S
C1768 C1769 1.362 . S
C1769 H1759 0.930 . S
C1769 C1762 1.409 . S
C1769 C1768 1.362 . S
H1770 C1776 0.930 . S
H1771 C1779 0.930 . S
H1772 C1780 0.930 . S
H1773 C1781 0.930 . S
H1774 C1784 0.930 . S
H1775 C1785 0.930 . S
C1776 H1770 0.930 . S
C1776 C1777 1.355 . S
C1776 C1778 1.415 . S
C1777 C1776 1.355 . S
C1777 C1779 1.419 . S
C1778 C1776 1.415 . S
C1778 C1783 1.425 . S
C1778 C1785 1.409 . S
C1779 H1771 0.930 . S
C1779 C1777 1.419 . S
C1779 C1780 1.362 . S
C1780 H1772 0.930 . S
C1780 C1779 1.362 . S
C1780 C1783 1.409 . S
C1781 H1773 0.930 . S
C1781 C1782 1.355 . S
C1781 C1783 1.415 . S
C1782 C1781 1.355 . S
C1782 C1784 1.419 . S
C1783 C1778 1.425 . S
C1783 C1780 1.409 . S
C1783 C1781 1.415 . S
C1784 H1774 0.930 . S
C1784 C1782 1.419 . S
C1784 C1785 1.362 . S
C1785 H1775 0.930 . S
C1785 C1778 1.409 . S
C1785 C1784 1.362 . S
H1786 C1792 0.930 . S
H1787 C1795 0.930 . S
H1788 C1796 0.930 . S
H1789 C1797 0.930 . S
H1790 C1800 0.930 . S
H1791 C1801 0.930 . S
C1792 H1786 0.930 . S
C1792 C1793 1.355 . S
C1792 C1794 1.415 . S
C1793 C1792 1.355 . S
C1793 C1795 1.419 . S
C1794 C1792 1.415 . S
C1794 C1799 1.425 . S
C1794 C1801 1.409 . S
C1795 H1787 0.930 . S
C1795 C1793 1.419 . S
C1795 C1796 1.362 . S
C1796 H1788 0.930 . S
C1796 C1795 1.362 . S
C1796 C1799 1.409 . S
C1797 H1789 0.930 . S
C1797 C1798 1.355 . S
C1797 C1799 1.415 . S
C1798 C1797 1.355 . S
C1798 C1800 1.419 . S
C1799 C1794 1.425 . S
C1799 C1796 1.409 . S
C1799 C1797 1.415 . S
C1800 H1790 0.930 . S
C1800 C1798 1.419 . S
C1800 C1801 1.362 . S
C1801 H1791 0.930 . S
C1801 C1794 1.409 . S
C1801 C1800 1.362 . S
H1802 C1808 0.930 . S
H1803 C1811 0.930 . S
H1804 C1812 0.930 . S
H1805 C1813 0.930 . S
H1806 C1816 0.930 . S
H1807 C1817 0.930 . S
C1808 H1802 0.930 . S
C1808 C1809 1.355 . S
C1808 C1810 1.415 . S
C1809 C1808 1.355 . S
C1809 C1811 1.419 . S
C1810 C1808 1.415 . S
C1810 C1815 1.425 . S
C1810 C1817 1.409 . S
C1811 H1803 0.930 . S
C1811 C1809 1.419 . S
C1811 C1812 1.362 . S
C1812 H1804 0.930 . S
C1812 C1811 1.362 . S
C1812 C1815 1.409 . S
C1813 H1805 0.930 . S
C1813 C1814 1.355 . S
C1813 C1815 1.415 . S
C1814 C1813 1.355 . S
C1814 C1816 1.419 . S
C1815 C1810 1.425 . S
C1815 C1812 1.409 . S
C1815 C1813 1.415 . S
C1816 H1806 0.930 . S
C1816 C1814 1.419 . S
C1816 C1817 1.362 . S
C1817 H1807 0.930 . S
C1817 C1810 1.409 . S
C1817 C1816 1.362 . S
C961 C151 1.164 . S
C966 C265 1.146 . S
C977 C159 1.618 . S
C982 C349 1.772 . S
C993 C137 1.248 . S
C998 C429 1.473 . S
C1009 C126 1.329 . S
C1014 C345 1.393 1_556 S
C1030 C433 1.741 . S
C1025 C104 1.632 . S
C1041 C118 1.146 . S
C1046 C261 1.118 1_556 S
C1062 C254 1.321 . S
C1057 C129 1.431 . S
C1078 C338 1.521 . S
C1073 C107 1.617 . S
C1089 C115 1.218 . S
C1094 C440 1.418 . S
C1105 C148 1.317 . S
C1110 C356 1.443 . S
C1121 C162 1.573 . S
C1126 C422 1.468 . S
C1142 C272 1.330 . S
C1137 C140 1.398 . S
C1158 C517 1.105 . S
C1153 C19 1.162 . S
C1169 C27 1.709 . S
C1174 C601 1.752 . S
C1185 C5 1.375 . S
C1190 C681 1.415 . S
C1201 C192 1.267 . S
C1206 C597 1.433 . S
C1217 C170 1.639 . S
C1222 C685 1.739 . S
C1233 C184 1.124 . S
C1238 C513 1.109 . S
C1249 C195 1.431 . S
C1254 C506 1.346 . S
C1265 C173 1.620 . S
C1270 C590 1.502 . S
C1286 C692 1.473 . S
C1281 C181 1.323 . S
C1297 C16 1.177 . S
C1302 C608 1.388 . S
C1318 C674 1.449 . S
C1313 C30 1.575 . S
C1329 C8 1.396 . S
C1334 C524 1.328 . S
C1350 C769 1.124 . S
C1345 C85 1.151 . S
C1361 C93 1.704 . S
C1366 C853 1.760 . S
C1382 C933 1.468 . S
C1377 C71 1.278 . S
C1398 C849 1.399 . S
C1393 C60 1.334 . S
C1414 C937 1.742 . S
C1409 C38 1.627 . S
C1425 C52 1.123 . S
C1430 C765 1.141 . S
C1441 C63 1.408 1_655 S
C1446 C758 1.352 . S
C1457 C41 1.603 . S
C1462 C842 1.575 . S
C1478 C944 1.410 . S
C1473 C49 1.178 . S
C1489 C82 1.228 . S
C1494 C860 1.399 . S
C1505 C96 1.574 . S
C1510 C926 1.452 . S
C1521 C74 1.396 . S
C1526 C776 1.328 . S
C1537 C172 1.561 . S
C1542 C268 1.442 . S
C1558 C352 1.239 . S
C1553 C183 1.279 . S
C1569 C194 1.463 . S
C1574 C424 1.367 . S
C1585 C73 1.467 . S
C1590 C340 1.388 . S
C1601 C84 1.258 . S
C1606 C436 1.223 . S
C1622 C256 1.435 . S
C1617 C95 1.560 . S
C1633 C40 1.609 . S
C1638 C520 1.473 . S
C1649 C51 1.292 . S
C1654 C604 1.264 . S
C1665 C62 1.435 . S
C1670 C676 1.367 . S
C1681 C139 1.501 . S
C1686 C592 1.382 . S
C1702 C688 1.232 . S
C1697 C150 1.261 . S
C1713 C161 1.536 . S
C1718 C508 1.507 . S
C1729 C106 1.549 . S
C1734 C772 1.496 . S
C1745 C117 1.272 . S
C1750 C856 1.202 . S
C1766 C928 1.290 . S
C1761 C128 1.471 . S
C1777 C7 1.521 . S
C1782 C844 1.339 . S
C1793 C18 1.255 . S
C1798 C940 1.170 . S
C1809 C29 1.549 . S
C1814 C760 1.456 . S
