# Generated by pormake.
# Topology gar, (4,6)-cn, num edge types: 1
# Building blocks:
#     Node 0, Type 0, BuildingBlock: KUFVIS_clean_sbu_0, # of connection points: 4
#     Node 1, Type 0, BuildingBlock: KUFVIS_clean_sbu_0, # of connection points: 4
#     Node 2, Type 0, BuildingBlock: KUFVIS_clean_sbu_0, # of connection points: 4
#     Node 3, Type 0, BuildingBlock: KUFVIS_clean_sbu_0, # of connection points: 4
#     Node 4, Type 0, BuildingBlock: KUFVIS_clean_sbu_0, # of connection points: 4
#     Node 5, Type 0, BuildingBlock: KUFVIS_clean_sbu_0, # of connection points: 4
#     Node 6, Type 0, BuildingBlock: KUFVIS_clean_sbu_0, # of connection points: 4
#     Node 7, Type 0, BuildingBlock: KUFVIS_clean_sbu_0, # of connection points: 4
#     Node 8, Type 0, BuildingBlock: KUFVIS_clean_sbu_0, # of connection points: 4
#     Node 9, Type 0, BuildingBlock: KUFVIS_clean_sbu_0, # of connection points: 4
#     Node 10, Type 0, BuildingBlock: KUFVIS_clean_sbu_0, # of connection points: 4
#     Node 11, Type 0, BuildingBlock: KUFVIS_clean_sbu_0, # of connection points: 4
#     Node 12, Type 0, BuildingBlock: KUFVIS_clean_sbu_0, # of connection points: 4
#     Node 13, Type 0, BuildingBlock: KUFVIS_clean_sbu_0, # of connection points: 4
#     Node 14, Type 0, BuildingBlock: KUFVIS_clean_sbu_0, # of connection points: 4
#     Node 15, Type 0, BuildingBlock: KUFVIS_clean_sbu_0, # of connection points: 4
#     Node 16, Type 0, BuildingBlock: KUFVIS_clean_sbu_0, # of connection points: 4
#     Node 17, Type 0, BuildingBlock: KUFVIS_clean_sbu_0, # of connection points: 4
#     Node 18, Type 0, BuildingBlock: KUFVIS_clean_sbu_0, # of connection points: 4
#     Node 19, Type 0, BuildingBlock: KUFVIS_clean_sbu_0, # of connection points: 4
#     Node 20, Type 0, BuildingBlock: KUFVIS_clean_sbu_0, # of connection points: 4
#     Node 21, Type 0, BuildingBlock: KUFVIS_clean_sbu_0, # of connection points: 4
#     Node 22, Type 0, BuildingBlock: KUFVIS_clean_sbu_0, # of connection points: 4
#     Node 23, Type 0, BuildingBlock: KUFVIS_clean_sbu_0, # of connection points: 4
#     Node 24, Type 1, BuildingBlock: KUMBOL_clean_sbu_1, # of connection points: 6
#     Node 25, Type 1, BuildingBlock: KUMBOL_clean_sbu_1, # of connection points: 6
#     Node 26, Type 1, BuildingBlock: KUMBOL_clean_sbu_1, # of connection points: 6
#     Node 27, Type 1, BuildingBlock: KUMBOL_clean_sbu_1, # of connection points: 6
#     Node 28, Type 1, BuildingBlock: KUMBOL_clean_sbu_1, # of connection points: 6
#     Node 29, Type 1, BuildingBlock: KUMBOL_clean_sbu_1, # of connection points: 6
#     Node 30, Type 1, BuildingBlock: KUMBOL_clean_sbu_1, # of connection points: 6
#     Node 31, Type 1, BuildingBlock: KUMBOL_clean_sbu_1, # of connection points: 6
#     Node 32, Type 1, BuildingBlock: KUMBOL_clean_sbu_1, # of connection points: 6
#     Node 33, Type 1, BuildingBlock: KUMBOL_clean_sbu_1, # of connection points: 6
#     Node 34, Type 1, BuildingBlock: KUMBOL_clean_sbu_1, # of connection points: 6
#     Node 35, Type 1, BuildingBlock: KUMBOL_clean_sbu_1, # of connection points: 6
#     Node 36, Type 1, BuildingBlock: KUMBOL_clean_sbu_1, # of connection points: 6
#     Node 37, Type 1, BuildingBlock: KUMBOL_clean_sbu_1, # of connection points: 6
#     Node 38, Type 1, BuildingBlock: KUMBOL_clean_sbu_1, # of connection points: 6
#     Node 39, Type 1, BuildingBlock: KUMBOL_clean_sbu_1, # of connection points: 6
#     Edge 40, Type (0, 1), BuildingBlock: ZUJKAS_clean_linker_0, # of connection points: 2
#     Edge 41, Type (0, 1), BuildingBlock: ZUJKAS_clean_linker_0, # of connection points: 2
#     Edge 42, Type (0, 1), BuildingBlock: ZUJKAS_clean_linker_0, # of connection points: 2
#     Edge 43, Type (0, 1), BuildingBlock: ZUJKAS_clean_linker_0, # of connection points: 2
#     Edge 44, Type (0, 1), BuildingBlock: ZUJKAS_clean_linker_0, # of connection points: 2
#     Edge 45, Type (0, 1), BuildingBlock: ZUJKAS_clean_linker_0, # of connection points: 2
#     Edge 46, Type (0, 1), BuildingBlock: ZUJKAS_clean_linker_0, # of connection points: 2
#     Edge 47, Type (0, 1), BuildingBlock: ZUJKAS_clean_linker_0, # of connection points: 2
#     Edge 48, Type (0, 1), BuildingBlock: ZUJKAS_clean_linker_0, # of connection points: 2
#     Edge 49, Type (0, 1), BuildingBlock: ZUJKAS_clean_linker_0, # of connection points: 2
#     Edge 50, Type (0, 1), BuildingBlock: ZUJKAS_clean_linker_0, # of connection points: 2
#     Edge 51, Type (0, 1), BuildingBlock: ZUJKAS_clean_linker_0, # of connection points: 2
#     Edge 52, Type (0, 1), BuildingBlock: ZUJKAS_clean_linker_0, # of connection points: 2
#     Edge 53, Type (0, 1), BuildingBlock: ZUJKAS_clean_linker_0, # of connection points: 2
#     Edge 54, Type (0, 1), BuildingBlock: ZUJKAS_clean_linker_0, # of connection points: 2
#     Edge 55, Type (0, 1), BuildingBlock: ZUJKAS_clean_linker_0, # of connection points: 2
#     Edge 56, Type (0, 1), BuildingBlock: ZUJKAS_clean_linker_0, # of connection points: 2
#     Edge 57, Type (0, 1), BuildingBlock: ZUJKAS_clean_linker_0, # of connection points: 2
#     Edge 58, Type (0, 1), BuildingBlock: ZUJKAS_clean_linker_0, # of connection points: 2
#     Edge 59, Type (0, 1), BuildingBlock: ZUJKAS_clean_linker_0, # of connection points: 2
#     Edge 60, Type (0, 1), BuildingBlock: ZUJKAS_clean_linker_0, # of connection points: 2
#     Edge 61, Type (0, 1), BuildingBlock: ZUJKAS_clean_linker_0, # of connection points: 2
#     Edge 62, Type (0, 1), BuildingBlock: ZUJKAS_clean_linker_0, # of connection points: 2
#     Edge 63, Type (0, 1), BuildingBlock: ZUJKAS_clean_linker_0, # of connection points: 2
#     Edge 64, Type (0, 1), BuildingBlock: ZUJKAS_clean_linker_0, # of connection points: 2
#     Edge 65, Type (0, 1), BuildingBlock: ZUJKAS_clean_linker_0, # of connection points: 2
#     Edge 66, Type (0, 1), BuildingBlock: ZUJKAS_clean_linker_0, # of connection points: 2
#     Edge 67, Type (0, 1), BuildingBlock: ZUJKAS_clean_linker_0, # of connection points: 2
#     Edge 68, Type (0, 1), BuildingBlock: ZUJKAS_clean_linker_0, # of connection points: 2
#     Edge 69, Type (0, 1), BuildingBlock: ZUJKAS_clean_linker_0, # of connection points: 2
#     Edge 70, Type (0, 1), BuildingBlock: ZUJKAS_clean_linker_0, # of connection points: 2
#     Edge 71, Type (0, 1), BuildingBlock: ZUJKAS_clean_linker_0, # of connection points: 2
#     Edge 72, Type (0, 1), BuildingBlock: ZUJKAS_clean_linker_0, # of connection points: 2
#     Edge 73, Type (0, 1), BuildingBlock: ZUJKAS_clean_linker_0, # of connection points: 2
#     Edge 74, Type (0, 1), BuildingBlock: ZUJKAS_clean_linker_0, # of connection points: 2
#     Edge 75, Type (0, 1), BuildingBlock: ZUJKAS_clean_linker_0, # of connection points: 2
#     Edge 76, Type (0, 1), BuildingBlock: ZUJKAS_clean_linker_0, # of connection points: 2
#     Edge 77, Type (0, 1), BuildingBlock: ZUJKAS_clean_linker_0, # of connection points: 2
#     Edge 78, Type (0, 1), BuildingBlock: ZUJKAS_clean_linker_0, # of connection points: 2
#     Edge 79, Type (0, 1), BuildingBlock: ZUJKAS_clean_linker_0, # of connection points: 2
#     Edge 80, Type (0, 1), BuildingBlock: ZUJKAS_clean_linker_0, # of connection points: 2
#     Edge 81, Type (0, 1), BuildingBlock: ZUJKAS_clean_linker_0, # of connection points: 2
#     Edge 82, Type (0, 1), BuildingBlock: ZUJKAS_clean_linker_0, # of connection points: 2
#     Edge 83, Type (0, 1), BuildingBlock: ZUJKAS_clean_linker_0, # of connection points: 2
#     Edge 84, Type (0, 1), BuildingBlock: ZUJKAS_clean_linker_0, # of connection points: 2
#     Edge 85, Type (0, 1), BuildingBlock: ZUJKAS_clean_linker_0, # of connection points: 2
#     Edge 86, Type (0, 1), BuildingBlock: ZUJKAS_clean_linker_0, # of connection points: 2
#     Edge 87, Type (0, 1), BuildingBlock: ZUJKAS_clean_linker_0, # of connection points: 2
#     Edge 88, Type (0, 1), BuildingBlock: ZUJKAS_clean_linker_0, # of connection points: 2
#     Edge 89, Type (0, 1), BuildingBlock: ZUJKAS_clean_linker_0, # of connection points: 2
#     Edge 90, Type (0, 1), BuildingBlock: ZUJKAS_clean_linker_0, # of connection points: 2
#     Edge 91, Type (0, 1), BuildingBlock: ZUJKAS_clean_linker_0, # of connection points: 2
#     Edge 92, Type (0, 1), BuildingBlock: ZUJKAS_clean_linker_0, # of connection points: 2
#     Edge 93, Type (0, 1), BuildingBlock: ZUJKAS_clean_linker_0, # of connection points: 2
#     Edge 94, Type (0, 1), BuildingBlock: ZUJKAS_clean_linker_0, # of connection points: 2
#     Edge 95, Type (0, 1), BuildingBlock: ZUJKAS_clean_linker_0, # of connection points: 2
#     Edge 96, Type (0, 1), BuildingBlock: ZUJKAS_clean_linker_0, # of connection points: 2
#     Edge 97, Type (0, 1), BuildingBlock: ZUJKAS_clean_linker_0, # of connection points: 2
#     Edge 98, Type (0, 1), BuildingBlock: ZUJKAS_clean_linker_0, # of connection points: 2
#     Edge 99, Type (0, 1), BuildingBlock: ZUJKAS_clean_linker_0, # of connection points: 2
#     Edge 100, Type (0, 1), BuildingBlock: ZUJKAS_clean_linker_0, # of connection points: 2
#     Edge 101, Type (0, 1), BuildingBlock: ZUJKAS_clean_linker_0, # of connection points: 2
#     Edge 102, Type (0, 1), BuildingBlock: ZUJKAS_clean_linker_0, # of connection points: 2
#     Edge 103, Type (0, 1), BuildingBlock: ZUJKAS_clean_linker_0, # of connection points: 2
#     Edge 104, Type (0, 1), BuildingBlock: ZUJKAS_clean_linker_0, # of connection points: 2
#     Edge 105, Type (0, 1), BuildingBlock: ZUJKAS_clean_linker_0, # of connection points: 2
#     Edge 106, Type (0, 1), BuildingBlock: ZUJKAS_clean_linker_0, # of connection points: 2
#     Edge 107, Type (0, 1), BuildingBlock: ZUJKAS_clean_linker_0, # of connection points: 2
#     Edge 108, Type (0, 1), BuildingBlock: ZUJKAS_clean_linker_0, # of connection points: 2
#     Edge 109, Type (0, 1), BuildingBlock: ZUJKAS_clean_linker_0, # of connection points: 2
#     Edge 110, Type (0, 1), BuildingBlock: ZUJKAS_clean_linker_0, # of connection points: 2
#     Edge 111, Type (0, 1), BuildingBlock: ZUJKAS_clean_linker_0, # of connection points: 2
#     Edge 112, Type (0, 1), BuildingBlock: ZUJKAS_clean_linker_0, # of connection points: 2
#     Edge 113, Type (0, 1), BuildingBlock: ZUJKAS_clean_linker_0, # of connection points: 2
#     Edge 114, Type (0, 1), BuildingBlock: ZUJKAS_clean_linker_0, # of connection points: 2
#     Edge 115, Type (0, 1), BuildingBlock: ZUJKAS_clean_linker_0, # of connection points: 2
#     Edge 116, Type (0, 1), BuildingBlock: ZUJKAS_clean_linker_0, # of connection points: 2
#     Edge 117, Type (0, 1), BuildingBlock: ZUJKAS_clean_linker_0, # of connection points: 2
#     Edge 118, Type (0, 1), BuildingBlock: ZUJKAS_clean_linker_0, # of connection points: 2
#     Edge 119, Type (0, 1), BuildingBlock: ZUJKAS_clean_linker_0, # of connection points: 2
#     Edge 120, Type (0, 1), BuildingBlock: ZUJKAS_clean_linker_0, # of connection points: 2
#     Edge 121, Type (0, 1), BuildingBlock: ZUJKAS_clean_linker_0, # of connection points: 2
#     Edge 122, Type (0, 1), BuildingBlock: ZUJKAS_clean_linker_0, # of connection points: 2
#     Edge 123, Type (0, 1), BuildingBlock: ZUJKAS_clean_linker_0, # of connection points: 2
#     Edge 124, Type (0, 1), BuildingBlock: ZUJKAS_clean_linker_0, # of connection points: 2
#     Edge 125, Type (0, 1), BuildingBlock: ZUJKAS_clean_linker_0, # of connection points: 2
#     Edge 126, Type (0, 1), BuildingBlock: ZUJKAS_clean_linker_0, # of connection points: 2
#     Edge 127, Type (0, 1), BuildingBlock: ZUJKAS_clean_linker_0, # of connection points: 2
#     Edge 128, Type (0, 1), BuildingBlock: ZUJKAS_clean_linker_0, # of connection points: 2
#     Edge 129, Type (0, 1), BuildingBlock: ZUJKAS_clean_linker_0, # of connection points: 2
#     Edge 130, Type (0, 1), BuildingBlock: ZUJKAS_clean_linker_0, # of connection points: 2
#     Edge 131, Type (0, 1), BuildingBlock: ZUJKAS_clean_linker_0, # of connection points: 2
#     Edge 132, Type (0, 1), BuildingBlock: ZUJKAS_clean_linker_0, # of connection points: 2
#     Edge 133, Type (0, 1), BuildingBlock: ZUJKAS_clean_linker_0, # of connection points: 2
#     Edge 134, Type (0, 1), BuildingBlock: ZUJKAS_clean_linker_0, # of connection points: 2
#     Edge 135, Type (0, 1), BuildingBlock: ZUJKAS_clean_linker_0, # of connection points: 2
# Relax obj value: 0.054
# Max RMSD: 0.176
# Mean RMSD: 0.104
data_MOF--net-gar--node1-KUFVIS_clean_sbu_0--node2-KUMBOL_clean_sbu_1--edge1-ZUJKAS_clean_linker_0
_symmetry_space_group_name_H-M    P1
_symmetry_Int_Tables_number       1
_symmetry_cell_setting            triclinic
loop_
_symmetry_equiv_pos_as_xyz
'x, y, z'
_cell_length_a     75.610638
_cell_length_b     75.903743
_cell_length_c     72.98207
_cell_angle_alpha  95.510814
_cell_angle_beta   95.609335
_cell_angle_gamma 100.69582
loop_
_atom_site_label
_atom_site_type_symbol
_atom_site_fract_x
_atom_site_fract_y
_atom_site_fract_z
_atom_type_partial_charge
Mn0 Mn 0.03808 0.29918 0.36855 0.0
Mn1 Mn 0.0373 0.32722 0.33545 0.0
C2 C 0.00971 0.30307 0.35425 0.0
C3 C 0.03944 0.27154 0.38069 0.0
C4 C 0.0452 0.34081 0.37663 0.0
O5 O 0.06402 0.30152 0.36015 0.0
O6 O 0.06149 0.3192 0.33737 0.0
C7 C 0.03864 0.30237 0.30196 0.0
N8 N 0.03007 0.31396 0.31143 0.0
C9 C 0.0067 0.31101 0.28581 0.0
C10 C 0.01532 0.2991 0.27576 0.0
C11 C 0.03134 0.29475 0.28388 0.0
C12 C 0.01467 0.3183 0.30371 0.0
H13 H 0.05097 0.299 0.30812 0.0
C14 C 0.07051 0.30959 0.34682 0.0
O15 O 0.04495 0.28708 0.39042 0.0
O16 O 0.03368 0.27184 0.36333 0.0
N17 N 0.01504 0.33572 0.33181 0.0
C18 C 0.00787 0.34668 0.3437 0.0
C19 C 0.99146 0.35174 0.33796 0.0
C20 C 0.98266 0.34563 0.32002 0.0
C21 C 0.99035 0.33447 0.30799 0.0
C22 C 0.00674 0.32984 0.31449 0.0
H23 H 0.01449 0.35141 0.35754 0.0
O24 O 0.01145 0.29768 0.37056 0.0
O25 O 0.0248 0.30601 0.34654 0.0
O26 O 0.04329 0.32515 0.38197 0.0
O27 O 0.04435 0.34307 0.35948 0.0
C28 C 0.9822 0.32745 0.28994 0.0
C29 C 0.99039 0.31576 0.27884 0.0
H30 H 0.00972 0.29315 0.26183 0.0
H31 H 0.03807 0.28555 0.27621 0.0
H32 H 0.98558 0.36029 0.34736 0.0
H33 H 0.96992 0.34946 0.31568 0.0
H34 H 0.96953 0.3308 0.28454 0.0
H35 H 0.98392 0.31035 0.26504 0.0
Mn36 Mn 0.02045 0.7502 0.6816 0.0
Mn37 Mn 0.03134 0.7835 0.7176 0.0
C38 C 0.05116 0.75986 0.69549 0.0
C39 C 0.01386 0.71994 0.66609 0.0
C40 C 0.02339 0.79095 0.67787 0.0
O41 O 0.99499 0.75051 0.69142 0.0
O42 O 1.00457 0.77315 0.71465 0.0
C43 C 0.02331 0.76248 0.74894 0.0
N44 N 0.0353 0.77366 0.74043 0.0
C45 C 0.0585 0.77651 0.76619 0.0
C46 C 0.04639 0.76503 0.77524 0.0
C47 C 0.02873 0.75797 0.76656 0.0
C48 C 0.05231 0.78059 0.74869 0.0
H49 H 0.00967 0.75717 0.7424 0.0
C50 C 0.99177 0.76132 0.70502 0.0
O51 O 0.01015 0.7336 0.65825 0.0
O52 O 0.01965 0.72339 0.6837 0.0
N53 N 0.05647 0.79467 0.72208 0.0
C54 C 0.0666 0.80521 0.7113 0.0
C55 C 0.08477 0.8129 0.71772 0.0
C56 C 0.09226 0.80986 0.73524 0.0
C57 C 0.0815 0.79912 0.74616 0.0
C58 C 0.06351 0.79174 0.73899 0.0
H59 H 0.06094 0.80758 0.69781 0.0
O60 O 0.0471 0.75261 0.67843 0.0
O61 O 0.0371 0.76173 0.70407 0.0
O62 O 0.01975 0.77443 0.67097 0.0
O63 O 0.02808 0.79576 0.69514 0.0
C64 C 0.08799 0.79527 0.76379 0.0
C65 C 0.07649 0.78402 0.77382 0.0
H66 H 0.05051 0.76153 0.78884 0.0
H67 H 0.0193 0.74915 0.77349 0.0
H68 H 0.09299 0.82113 0.70918 0.0
H69 H 0.1063 0.81576 0.74012 0.0
H70 H 0.10184 0.80082 0.76972 0.0
H71 H 0.08164 0.78114 0.78736 0.0
Mn72 Mn 0.53731 0.79912 0.86918 0.0
Mn73 Mn 0.53721 0.82775 0.83657 0.0
C74 C 0.50882 0.80299 0.85466 0.0
C75 C 0.5385 0.77129 0.88121 0.0
C76 C 0.54439 0.84079 0.87788 0.0
O77 O 0.56343 0.80145 0.86107 0.0
O78 O 0.56145 0.81967 0.83874 0.0
C79 C 0.53928 0.80378 0.80266 0.0
N80 N 0.53068 0.81537 0.8121 0.0
C81 C 0.50925 0.81496 0.78534 0.0
C82 C 0.51794 0.8031 0.77529 0.0
C83 C 0.53299 0.79745 0.78401 0.0
C84 C 0.51624 0.82096 0.80382 0.0
H85 H 0.55092 0.7995 0.80927 0.0
C86 C 0.57024 0.8098 0.84807 0.0
O87 O 0.5439 0.78678 0.89103 0.0
O88 O 0.53297 0.77172 0.86381 0.0
N89 N 0.51519 0.83653 0.83259 0.0
C90 C 0.50738 0.84665 0.8447 0.0
C91 C 0.49156 0.85256 0.83849 0.0
C92 C 0.48403 0.84816 0.81988 0.0
C93 C 0.49228 0.8377 0.80769 0.0
C94 C 0.50802 0.83216 0.81469 0.0
H95 H 0.51308 0.85009 0.85902 0.0
O96 O 0.51071 0.79752 0.87092 0.0
O97 O 0.52402 0.80617 0.84699 0.0
O98 O 0.54235 0.82505 0.88307 0.0
O99 O 0.54378 0.84315 0.8608 0.0
C100 C 0.48525 0.83216 0.78901 0.0
C101 C 0.49375 0.82083 0.77783 0.0
H102 H 0.51309 0.79814 0.76093 0.0
H103 H 0.53974 0.78828 0.77635 0.0
H104 H 0.48521 0.86051 0.84802 0.0
H105 H 0.47177 0.85268 0.81516 0.0
H106 H 0.47314 0.83629 0.78319 0.0
H107 H 0.48808 0.81648 0.76355 0.0
Mn108 Mn 0.51922 0.24893 0.18476 0.0
Mn109 Mn 0.48535 0.23945 0.14909 0.0
C110 C 0.50987 0.21917 0.16895 0.0
C111 C 0.5511 0.25584 0.19643 0.0
C112 C 0.47836 0.24889 0.18916 0.0
O113 O 0.51915 0.27397 0.17528 0.0
O114 O 0.49747 0.26514 0.15074 0.0
C115 C 0.50488 0.24459 0.1162 0.0
N116 N 0.49376 0.23371 0.12584 0.0
C117 C 0.4887 0.20931 0.10112 0.0
C118 C 0.50014 0.22025 0.09094 0.0
C119 C 0.50826 0.23796 0.09852 0.0
C120 C 0.48566 0.21673 0.11857 0.0
H121 H 0.51108 0.25824 0.12194 0.0
C122 C 0.50966 0.27722 0.16076 0.0
O123 O 0.5387 0.25916 0.20662 0.0
O124 O 0.54518 0.24941 0.17941 0.0
N125 N 0.47321 0.21474 0.14638 0.0
C126 C 0.4637 0.20558 0.15861 0.0
C127 C 0.45553 0.18735 0.15361 0.0
C128 C 0.45719 0.17877 0.13611 0.0
C129 C 0.46712 0.18847 0.1238 0.0
C130 C 0.47497 0.2066 0.12955 0.0
H131 H 0.46247 0.21211 0.1721 0.0
O132 O 0.51707 0.22184 0.18614 0.0
O133 O 0.50708 0.23375 0.16225 0.0
O134 O 0.49476 0.25013 0.19673 0.0
O135 O 0.47419 0.24503 0.17172 0.0
C136 C 0.46982 0.18078 0.10619 0.0
C137 C 0.48052 0.19122 0.09482 0.0
H138 H 0.50288 0.21514 0.07734 0.0
H139 H 0.5171 0.24648 0.09074 0.0
H140 H 0.44799 0.17992 0.16324 0.0
H141 H 0.45092 0.16468 0.13233 0.0
H142 H 0.46388 0.1668 0.10134 0.0
H143 H 0.48264 0.18511 0.08138 0.0
Mn144 Mn 0.05892 0.78781 0.11788 0.0
Mn145 Mn 0.02339 0.7776 0.08394 0.0
C146 C 0.04892 0.75728 0.10443 0.0
C147 C 0.08984 0.79493 0.1317 0.0
C148 C 0.0187 0.7854 0.12439 0.0
O149 O 0.05818 0.81301 0.10831 0.0
O150 O 0.03412 0.8041 0.08642 0.0
C151 C 0.04193 0.78514 0.05085 0.0
N152 N 0.03085 0.77362 0.05992 0.0
C153 C 0.02283 0.75187 0.03275 0.0
C154 C 0.03413 0.76351 0.02307 0.0
C155 C 0.04378 0.78018 0.03219 0.0
C156 C 0.02146 0.75758 0.05127 0.0
H157 H 0.04913 0.79807 0.05776 0.0
C158 C 0.04671 0.81646 0.09549 0.0
O159 O 0.07656 0.79849 0.14031 0.0
O160 O 0.08552 0.78874 0.11425 0.0
N161 N 0.01136 0.75288 0.07981 0.0
C162 C 1.00235 0.74268 0.09163 0.0
C163 C 0.99277 0.72518 0.08504 0.0
C164 C 0.9924 0.71848 0.06634 0.0
C165 C 1.0018 0.72926 0.05446 0.0
C166 C 0.01113 0.74656 0.06183 0.0
H167 H 1.00247 0.74788 0.10596 0.0
O168 O 0.05708 0.7617 0.12116 0.0
O169 O 0.04608 0.77111 0.09574 0.0
O170 O 0.0355 0.78827 0.13035 0.0
O171 O 0.01281 0.78126 0.10733 0.0
C172 C 1.00258 0.72342 0.03569 0.0
C173 C 0.01307 0.73472 0.02483 0.0
H174 H 0.0356 0.75974 0.00869 0.0
H175 H 0.05252 0.78924 0.02481 0.0
H176 H 0.98561 0.71693 0.09431 0.0
H177 H 0.985 0.70497 0.06131 0.0
H178 H 0.99538 0.71015 0.02954 0.0
H179 H 0.01374 0.72998 0.01049 0.0
Mn180 Mn 0.50153 0.76341 0.43681 0.0
Mn181 Mn 0.50114 0.79193 0.40313 0.0
C182 C 0.47374 0.76507 0.41884 0.0
C183 C 0.5047 0.73425 0.44749 0.0
C184 C 0.50661 0.80568 0.44434 0.0
O185 O 0.52797 0.76811 0.43036 0.0
O186 O 0.52525 0.78497 0.4066 0.0
C187 C 0.50592 0.7697 0.36904 0.0
N188 N 0.49624 0.78031 0.37831 0.0
C189 C 0.47733 0.78206 0.35026 0.0
C190 C 0.48707 0.77111 0.34041 0.0
C191 C 0.50138 0.76486 0.34985 0.0
C192 C 0.48256 0.78657 0.3693 0.0
H193 H 0.51714 0.76518 0.3762 0.0
C194 C 0.53431 0.77635 0.41709 0.0
O195 O 0.508 0.74931 0.45837 0.0
O196 O 0.49952 0.73597 0.43036 0.0
N197 N 0.47859 0.79954 0.39836 0.0
C198 C 0.46896 0.80755 0.41038 0.0
C199 C 0.45336 0.81345 0.40348 0.0
C200 C 0.44783 0.81104 0.38431 0.0
C201 C 0.45774 0.80236 0.37227 0.0
C202 C 0.47314 0.79671 0.37998 0.0
H203 H 0.47298 0.80911 0.42513 0.0
O204 O 0.47394 0.75951 0.43517 0.0
O205 O 0.48972 0.76992 0.4136 0.0
O206 O 0.50471 0.79023 0.4507 0.0
O207 O 0.50625 0.80688 0.42711 0.0
C208 C 0.45256 0.79845 0.35302 0.0
C209 C 0.46241 0.78839 0.342 0.0
H210 H 0.48359 0.7673 0.32562 0.0
H211 H 0.50898 0.75645 0.34231 0.0
H212 H 0.44558 0.81977 0.41291 0.0
H213 H 0.43571 0.81549 0.37904 0.0
H214 H 0.44078 0.80274 0.34662 0.0
H215 H 0.4581 0.7852 0.32727 0.0
Mn216 Mn 0.55989 0.288 0.619 0.0
Mn217 Mn 0.52432 0.27766 0.58508 0.0
C218 C 0.54933 0.25753 0.60549 0.0
C219 C 0.59095 0.29439 0.6327 0.0
C220 C 0.51955 0.28549 0.62542 0.0
O221 O 0.55951 0.31318 0.60904 0.0
O222 O 0.5347 0.30435 0.58801 0.0
C223 C 0.54327 0.28606 0.55241 0.0
N224 N 0.53242 0.27412 0.56127 0.0
C225 C 0.52683 0.25182 0.53452 0.0
C226 C 0.53791 0.26391 0.52508 0.0
C227 C 0.5462 0.28108 0.53409 0.0
C228 C 0.52432 0.25758 0.55271 0.0
H229 H 0.54953 0.29932 0.55923 0.0
C230 C 0.54759 0.31671 0.59667 0.0
O231 O 0.57794 0.29863 0.64137 0.0
O232 O 0.58632 0.28799 0.61535 0.0
N233 N 0.51289 0.25273 0.58062 0.0
C234 C 0.5036 0.2423 0.59211 0.0
C235 C 0.4952 0.22442 0.58555 0.0
C236 C 0.49624 0.21753 0.5672 0.0
C237 C 0.5058 0.22856 0.55563 0.0
C238 C 0.51397 0.24625 0.56296 0.0
H239 H 0.50273 0.24755 0.6062 0.0
O240 O 0.55738 0.26161 0.6223 0.0
O241 O 0.54692 0.2715 0.597 0.0
O242 O 0.53642 0.28922 0.63128 0.0
O243 O 0.51355 0.28058 0.60847 0.0
C244 C 0.50788 0.22258 0.53723 0.0
C245 C 0.51836 0.23422 0.52667 0.0
H246 H 0.54022 0.26011 0.51095 0.0
H247 H 0.55476 0.29047 0.52689 0.0
H248 H 0.48791 0.21598 0.59459 0.0
H249 H 0.48978 0.20371 0.5622 0.0
H250 H 0.50167 0.20899 0.53114 0.0
H251 H 0.51999 0.22941 0.51259 0.0
Mn252 Mn 1.00165 0.26267 0.93755 0.0
Mn253 Mn 0.99936 0.29191 0.90487 0.0
C254 C 0.9732 0.2644 0.92094 0.0
C255 C 1.00551 0.23347 0.94739 0.0
C256 C 0.00732 0.30465 0.94621 0.0
O257 O 0.02793 0.26808 0.93005 0.0
O258 O 0.02292 0.2844 0.90643 0.0
C259 C 1.0017 0.26998 0.86973 0.0
N260 N 0.99275 0.28055 0.88004 0.0
C261 C 0.97196 0.28243 0.85347 0.0
C262 C 0.98088 0.27147 0.84257 0.0
C263 C 0.99579 0.26519 0.85075 0.0
C264 C 0.9785 0.28681 0.87227 0.0
H265 H 0.01338 0.26543 0.8759 0.0
C266 C 0.03302 0.27608 0.91609 0.0
O267 O 0.00877 0.24834 0.95855 0.0
O268 O 1.00011 0.23543 0.93037 0.0
N269 N 0.97692 0.30002 0.902 0.0
C270 C 0.96902 0.30923 0.91479 0.0
C271 C 0.95348 0.31584 0.90908 0.0
C272 C 0.94638 0.31309 0.89027 0.0
C273 C 0.95462 0.30334 0.87743 0.0
C274 C 0.97005 0.29706 0.88395 0.0
H275 H 0.97458 0.31159 0.92921 0.0
O276 O 0.97406 0.25829 0.93698 0.0
O277 O 0.98883 0.26964 0.91524 0.0
O278 O 1.00474 0.28899 0.95203 0.0
O279 O 0.00648 0.30649 0.92906 0.0
C280 C 0.94797 0.29938 0.85847 0.0
C281 C 0.95666 0.28897 0.84649 0.0
H282 H 0.97637 0.26774 0.82793 0.0
H283 H 1.00279 0.2568 0.8424 0.0
H284 H 0.94707 0.32318 0.9191 0.0
H285 H 0.93449 0.31836 0.88588 0.0
H286 H 0.93604 0.30405 0.85302 0.0
H287 H 0.9513 0.28583 0.83199 0.0
Mn288 Mn 0.38571 0.01312 0.29314 0.0
Mn289 Mn 0.35423 0.00652 0.3228 0.0
C290 C 0.37277 0.98456 0.29754 0.0
C291 C 0.39449 0.01888 0.26468 0.0
C292 C 0.39421 0.01831 0.3347 0.0
O293 O 0.37835 0.0372 0.29718 0.0
O294 O 0.35523 0.03067 0.31438 0.0
C295 C 0.32079 0.00535 0.29763 0.0
N296 N 0.33067 0.99738 0.30979 0.0
C297 C 0.30613 0.97195 0.30871 0.0
C298 C 0.29565 0.97989 0.2962 0.0
C299 C 0.30305 0.99662 0.29056 0.0
C300 C 0.32376 0.9812 0.31514 0.0
H301 H 0.3264 0.01829 0.29343 0.0
C302 C 0.36539 0.04137 0.30547 0.0
O303 O 0.40566 0.02352 0.27975 0.0
O304 O 0.37795 0.01099 0.26608 0.0
N305 N 0.35204 0.98351 0.3319 0.0
C306 C 0.36431 0.97721 0.34318 0.0
C307 C 0.35927 0.96036 0.34961 0.0
C308 C 0.3416 0.9503 0.34461 0.0
C309 C 0.3292 0.95711 0.33306 0.0
C310 C 0.33506 0.97388 0.32691 0.0
H311 H 0.37783 0.98499 0.34728 0.0
O312 O 0.38822 0.9876 0.29084 0.0
O313 O 0.3651 0.99828 0.30097 0.0
O314 O 0.39928 0.01698 0.31871 0.0
O315 O 0.37775 0.0156 0.33791 0.0
C316 C 0.31126 0.94791 0.32737 0.0
C317 C 0.29978 0.95523 0.31505 0.0
H318 H 0.28193 0.97325 0.2908 0.0
H319 H 0.29506 1.00282 0.28088 0.0
H320 H 0.36893 0.9552 0.35851 0.0
H321 H 0.33773 0.93735 0.34968 0.0
H322 H 0.30621 0.93507 0.33218 0.0
H323 H 0.28613 0.94784 0.3105 0.0
Mn324 Mn 0.26372 0.17522 0.51448 0.0
Mn325 Mn 0.25599 0.14106 0.47922 0.0
C326 C 0.23415 0.15885 0.50512 0.0
C327 C 0.2693 0.18692 0.54646 0.0
C328 C 0.26501 0.1806 0.47302 0.0
O329 O 0.28869 0.16818 0.51392 0.0
O330 O 0.28158 0.14509 0.49073 0.0
C331 C 0.26105 0.10928 0.49818 0.0
N332 N 0.2505 0.11758 0.48704 0.0
C333 C 0.22779 0.09036 0.47962 0.0
C334 C 0.23842 0.08151 0.49102 0.0
C335 C 0.25509 0.09103 0.50038 0.0
C336 C 0.23451 0.10849 0.47782 0.0
H337 H 0.27398 0.1165 0.5052 0.0
C338 C 0.2928 0.15534 0.50343 0.0
O339 O 0.27344 0.1969 0.53345 0.0
O340 O 0.26274 0.16999 0.54102 0.0
N341 N 0.23172 0.13585 0.46713 0.0
C342 C 0.22248 0.14683 0.45804 0.0
C343 C 0.20507 0.13973 0.44882 0.0
C344 C 0.19742 0.12141 0.44894 0.0
C345 C 0.20718 0.1104 0.45848 0.0
C346 C 0.22446 0.11824 0.46744 0.0
H347 H 0.22836 0.1609 0.45784 0.0
O348 O 0.23712 0.17546 0.51279 0.0
O349 O 0.24863 0.15253 0.50207 0.0
O350 O 0.26633 0.18736 0.48998 0.0
O351 O 0.26131 0.16368 0.46825 0.0
C352 C 0.20035 0.09203 0.4597 0.0
C353 C 0.21066 0.082 0.47023 0.0
H354 H 0.23385 0.06746 0.49281 0.0
H355 H 0.26336 0.08428 0.50919 0.0
H356 H 0.19759 0.14834 0.44157 0.0
H357 H 0.18398 0.11597 0.44181 0.0
H358 H 0.18707 0.08554 0.4528 0.0
H359 H 0.20516 0.06795 0.47126 0.0
Mn360 Mn 0.13293 0.04273 0.78207 0.0
Mn361 Mn 0.16804 0.05156 0.81633 0.0
C362 C 0.14886 0.07244 0.79122 0.0
C363 C 0.12069 0.03649 0.75029 0.0
C364 C 0.12875 0.04059 0.82349 0.0
O365 O 0.14072 0.01808 0.78301 0.0
O366 O 0.16526 0.02637 0.80463 0.0
C367 C 0.19953 0.04921 0.7958 0.0
N368 N 0.19078 0.05892 0.80727 0.0
C369 C 0.2161 0.08397 0.81219 0.0
C370 C 0.22537 0.07426 0.80038 0.0
C371 C 0.21703 0.05681 0.79213 0.0
C372 C 0.19872 0.07567 0.81538 0.0
H373 H 0.19323 0.03572 0.78961 0.0
C374 C 0.15454 0.01466 0.79274 0.0
O375 O 0.11098 0.03247 0.76357 0.0
O376 O 0.1377 0.04336 0.75539 0.0
N377 N 0.17188 0.07566 0.82845 0.0
C378 C 0.16068 0.08354 0.83866 0.0
C379 C 0.16671 0.10123 0.84741 0.0
C380 C 0.18423 0.11055 0.84569 0.0
C381 C 0.19546 0.10219 0.83499 0.0
C382 C 0.18868 0.08456 0.82654 0.0
H383 H 0.14725 0.07638 0.84013 0.0
O384 O 0.13219 0.06934 0.78348 0.0
O385 O 0.15534 0.05814 0.79402 0.0
O386 O 0.1215 0.04021 0.80682 0.0
O387 O 0.14583 0.04436 0.82793 0.0
C388 C 0.21305 0.11069 0.83222 0.0
C389 C 0.22335 0.1016 0.82081 0.0
H390 H 0.23887 0.08007 0.79751 0.0
H391 H 0.22413 0.04921 0.78305 0.0
H392 H 0.15792 0.10763 0.85554 0.0
H393 H 0.18887 0.12416 0.85255 0.0
H394 H 0.21874 0.12428 0.83868 0.0
H395 H 0.23679 0.10835 0.81866 0.0
Mn396 Mn 0.29439 0.9188 0.00424 0.0
Mn397 Mn 0.3001 0.95155 0.97599 0.0
C398 C 0.32267 0.93305 1.00038 0.0
C399 C 0.28972 0.90835 0.03205 0.0
C400 C 0.28927 0.91208 0.96272 0.0
O401 O 0.2698 0.92544 1.0007 0.0
O402 O 0.27594 0.94946 0.98455 0.0
C403 C 0.30073 0.98378 1.00245 0.0
N404 N 0.30892 0.97465 0.98989 0.0
C405 C 0.33453 0.99927 0.99258 0.0
C406 C 0.32635 0.00898 0.00552 0.0
C407 C 0.30941 1.00117 0.01052 0.0
C408 C 0.32527 0.98198 0.98507 0.0
H409 H 0.28767 0.97783 0.00624 0.0
C410 C 0.2654 0.93864 0.993 0.0
O411 O 0.28517 0.89786 0.01657 0.0
O412 O 0.29633 0.92535 0.03143 0.0
N413 N 0.32324 0.95463 0.96691 0.0
C414 C 0.32974 0.94305 0.95505 0.0
C415 C 0.34681 0.94855 0.94913 0.0
C416 C 0.35693 0.96593 0.95529 0.0
C417 C 0.3499 0.97763 0.96738 0.0
C418 C 0.33283 0.97139 0.97285 0.0
H419 H 0.32198 0.92972 0.95016 0.0
O420 O 0.32036 0.91729 0.00631 0.0
O421 O 0.30846 0.94008 0.99726 0.0
O422 O 0.29093 0.90645 0.9784 0.0
O423 O 0.29141 0.92861 0.96009 0.0
C424 C 0.35921 0.99519 0.97432 0.0
C425 C 0.35158 0.00597 0.987 0.0
H426 H 0.33299 0.02239 0.01177 0.0
H427 H 0.30304 0.00856 0.02054 0.0
H428 H 0.35212 0.93943 0.93979 0.0
H429 H 0.3701 0.97012 0.9507 0.0
H430 H 0.37239 1.00044 0.97024 0.0
H431 H 0.35903 0.01934 0.9925 0.0
Mn432 Mn 0.29438 0.37985 0.03741 0.0
Mn433 Mn 0.30066 0.4126 0.00863 0.0
C434 C 0.3239 0.39479 0.03378 0.0
C435 C 0.28906 0.36947 0.0666 0.0
C436 C 0.28939 0.37264 0.99469 0.0
O437 O 0.26941 0.38749 0.03426 0.0
O438 O 0.27689 0.41089 0.01783 0.0
C439 C 0.30164 0.44507 0.03504 0.0
N440 N 0.3093 0.43605 0.0219 0.0
C441 C 0.33293 0.46196 0.02129 0.0
C442 C 0.32517 0.47162 0.03465 0.0
C443 C 0.30953 0.46309 0.04165 0.0
C444 C 0.32451 0.44403 0.0153 0.0
H445 H 0.28961 0.43855 0.04042 0.0
C446 C 0.26588 0.40135 0.02691 0.0
O447 O 0.2845 0.35908 0.05106 0.0
O448 O 0.29655 0.38609 0.06532 0.0
N449 N 0.32338 0.416 0.99876 0.0
C450 C 0.32973 0.40446 0.98676 0.0
C451 C 0.34533 0.4108 0.97852 0.0
C452 C 0.35414 0.42896 0.98259 0.0
C453 C 0.34763 0.44045 0.99535 0.0
C454 C 0.33189 0.43343 0.00293 0.0
H455 H 0.32277 0.39062 0.98324 0.0
O456 O 0.32113 0.37895 0.03956 0.0
O457 O 0.30944 0.40133 0.03013 0.0
O458 O 0.29051 0.3668 0.01052 0.0
O459 O 0.29197 0.38938 0.99272 0.0
C460 C 0.35612 0.4586 1.00082 0.0
C461 C 0.34883 0.46932 0.01387 0.0
H462 H 0.33119 0.48552 0.03976 0.0
H463 H 0.30353 0.47041 0.05205 0.0
H464 H 0.35041 0.40179 0.96885 0.0
H465 H 0.36604 0.43387 0.97602 0.0
H466 H 0.36837 0.46439 0.99524 0.0
H467 H 0.35562 0.48318 0.01817 0.0
Mn468 Mn 0.76744 0.13798 0.0471 0.0
Mn469 Mn 0.75633 0.10256 0.01384 0.0
C470 C 0.73789 0.12592 0.03722 0.0
C471 C 0.77506 0.14948 0.07765 0.0
C472 C 0.77054 0.14081 0.00644 0.0
O473 O 0.79044 0.12861 0.04646 0.0
O474 O 0.781 0.10342 0.02614 0.0
C475 C 0.75482 0.07226 0.03669 0.0
N476 N 0.74655 0.08112 0.02408 0.0
C477 C 0.71979 0.05767 0.01935 0.0
C478 C 0.72802 0.04827 0.03228 0.0
C479 C 0.74556 0.05567 0.0411 0.0
C480 C 0.72951 0.07434 0.01587 0.0
H481 H 0.76844 0.07775 0.04321 0.0
C482 C 0.79298 0.11415 0.03772 0.0
O483 O 0.77986 0.15903 0.06448 0.0
O484 O 0.76612 0.13306 0.07307 0.0
N485 N 0.73258 0.10029 1.00095 0.0
C486 C 0.72656 0.11106 0.98883 0.0
C487 C 0.70901 0.10588 0.97929 0.0
C488 C 0.69802 0.08948 0.98196 0.0
C489 C 0.70467 0.07843 0.99419 0.0
C490 C 0.72212 0.08447 0.0036 0.0
H491 H 0.73505 0.12353 0.98646 0.0
O492 O 0.74234 0.1423 0.04552 0.0
O493 O 0.75079 0.1171 0.03525 0.0
O494 O 0.77102 0.14824 0.02288 0.0
O495 O 0.76583 0.12383 1.00173 0.0
C496 C 0.69479 0.06151 0.99718 0.0
C497 C 0.70241 0.05108 0.00965 0.0
H498 H 0.72101 0.03536 0.03553 0.0
H499 H 0.752 0.04849 0.05109 0.0
H500 H 0.70404 0.11443 0.96977 0.0
H501 H 0.68457 0.08544 0.97443 0.0
H502 H 0.68131 0.05641 0.99 0.0
H503 H 0.69464 0.03813 0.01191 0.0
Mn504 Mn 0.16962 0.54117 0.25217 0.0
Mn505 Mn 0.20477 0.54861 0.28583 0.0
C506 C 0.18379 0.56987 0.26297 0.0
C507 C 0.15825 0.53492 0.22162 0.0
C508 C 0.16575 0.53769 0.29243 0.0
O509 O 0.17687 0.51705 0.25199 0.0
O510 O 0.20188 0.5239 0.27301 0.0
C511 C 0.23515 0.54764 0.2633 0.0
N512 N 0.22715 0.55648 0.27627 0.0
C513 C 0.2534 0.58041 0.28315 0.0
C514 C 0.26196 0.57158 0.26987 0.0
C515 C 0.25272 0.55521 0.25977 0.0
C516 C 0.23572 0.57246 0.2857 0.0
H517 H 0.22821 0.53486 0.25582 0.0
C518 C 0.19066 0.51314 0.2608 0.0
O519 O 0.14816 0.53067 0.23456 0.0
O520 O 0.17509 0.54268 0.22642 0.0
N521 N 0.20907 0.57225 0.29916 0.0
C522 C 0.19825 0.57983 0.31014 0.0
C523 C 0.20505 0.59677 0.3204 0.0
C524 C 0.22303 0.60546 0.31967 0.0
C525 C 0.23389 0.59734 0.30829 0.0
C526 C 0.22616 0.58078 0.29788 0.0
H527 H 0.18457 0.57298 0.31108 0.0
O528 O 0.16738 0.5668 0.25455 0.0
O529 O 0.19144 0.55606 0.26455 0.0
O530 O 0.15868 0.538 0.27604 0.0
O531 O 0.18273 0.5409 0.29757 0.0
C532 C 0.25208 0.605 0.30684 0.0
C533 C 0.26176 0.59669 0.29408 0.0
H534 H 0.27561 0.57724 0.26731 0.0
H535 H 0.25923 0.54831 0.2495 0.0
H536 H 0.19654 0.60298 0.32908 0.0
H537 H 0.22832 0.6184 0.32781 0.0
H538 H 0.2586 0.61759 0.31507 0.0
H539 H 0.27555 0.60302 0.29267 0.0
Mn540 Mn 0.79318 0.88087 0.5384 0.0
Mn541 Mn 0.79716 0.91273 0.50852 0.0
C542 C 0.82189 0.89714 0.53488 0.0
C543 C 0.78867 0.87104 0.56793 0.0
C544 C 0.78795 0.87246 0.49585 0.0
O545 O 0.76772 0.88695 0.53486 0.0
O546 O 0.773 0.91016 0.5175 0.0
C547 C 0.79574 0.94636 0.53199 0.0
N548 N 0.80452 0.93691 0.5203 0.0
C549 C 0.82712 0.96338 0.51843 0.0
C550 C 0.81832 0.9734 0.53046 0.0
C551 C 0.8026 0.96484 0.53731 0.0
C552 C 0.81956 0.94506 0.51348 0.0
H553 H 0.78353 0.93987 0.53708 0.0
C554 C 0.76287 0.89991 0.52685 0.0
O555 O 0.78478 0.86016 0.55267 0.0
O556 O 0.79489 0.88786 0.56611 0.0
N557 N 0.82006 0.91653 0.499 0.0
C558 C 0.82789 0.9045 0.48917 0.0
C559 C 0.8444 0.91059 0.48235 0.0
C560 C 0.85257 0.92899 0.48553 0.0
C561 C 0.84429 0.94108 0.49578 0.0
C562 C 0.82788 0.93421 0.5023 0.0
H563 H 0.82162 0.89037 0.48662 0.0
O564 O 0.81995 0.8814 0.54088 0.0
O565 O 0.80694 0.90288 0.53077 0.0
O566 O 0.78997 0.86702 0.51181 0.0
O567 O 0.7895 0.88905 0.49364 0.0
C568 C 0.85191 0.95958 0.50021 0.0
C569 C 0.84329 0.97074 0.51146 0.0
H570 H 0.82359 0.98764 0.53466 0.0
H571 H 0.79573 0.9725 0.54658 0.0
H572 H 0.8508 0.90114 0.47461 0.0
H573 H 0.86531 0.93363 0.48027 0.0
H574 H 0.86456 0.9653 0.49531 0.0
H575 H 0.84942 0.98489 0.515 0.0
Mn576 Mn 0.92718 0.01033 0.2578 0.0
Mn577 Mn 0.89507 0.00539 0.28759 0.0
C578 C 0.91099 0.98145 0.26131 0.0
C579 C 0.93697 0.0149 0.22817 0.0
C580 C 0.93545 0.01467 0.30051 0.0
O581 O 0.92095 0.03582 0.2617 0.0
O582 O 0.89806 0.02951 0.27923 0.0
C583 C 0.86195 0.00733 0.26326 0.0
N584 N 0.87101 0.99838 0.27515 0.0
C585 C 0.84412 0.976 0.27613 0.0
C586 C 0.8345 0.98495 0.26384 0.0
C587 C 0.84347 1.00064 0.25733 0.0
C588 C 0.8625 0.98329 0.28152 0.0
H589 H 0.86876 0.01955 0.25848 0.0
C590 C 0.90806 0.04025 0.27025 0.0
O591 O 0.94797 0.01883 0.24337 0.0
O592 O 0.92011 0.0087 0.23002 0.0
N593 N 0.89075 0.98245 0.29681 0.0
C594 C 0.90226 0.97494 0.30775 0.0
C595 C 0.8955 0.95906 0.31528 0.0
C596 C 0.87699 0.95119 0.31162 0.0
C597 C 0.86548 0.959 0.30005 0.0
C598 C 0.87296 0.97489 0.29306 0.0
H599 H 0.91643 0.98113 0.31087 0.0
O600 O 0.92673 0.98352 0.25519 0.0
O601 O 0.90522 0.99626 0.26543 0.0
O602 O 0.94098 0.01344 0.2845 0.0
O603 O 0.91877 0.0126 0.30278 0.0
C604 C 0.84693 0.95158 0.29509 0.0
C605 C 0.83626 0.96006 0.2831 0.0
H606 H 0.82024 0.97985 0.25926 0.0
H607 H 0.83612 0.00764 0.24789 0.0
H608 H 0.9045 0.95299 0.32404 0.0
H609 H 0.87178 0.93904 0.31761 0.0
H610 H 0.84077 0.93926 0.30025 0.0
H611 H 0.82206 0.95412 0.27922 0.0
Mn612 Mn 0.26812 0.63731 0.54539 0.0
Mn613 Mn 0.2554 0.60246 0.51146 0.0
C614 C 0.23847 0.62439 0.53917 0.0
C615 C 0.27776 0.6496 0.57519 0.0
C616 C 0.26649 0.64119 0.50449 0.0
O617 O 0.29108 0.62871 0.54254 0.0
O618 O 0.28141 0.60453 0.52091 0.0
C619 C 0.25922 0.57068 0.53094 0.0
N620 N 0.24877 0.57963 0.52045 0.0
C621 C 0.22401 0.55401 0.51555 0.0
C622 C 0.23452 0.54451 0.5263 0.0
C623 C 0.25217 0.5529 0.53406 0.0
C624 C 0.23183 0.5716 0.51273 0.0
H625 H 0.27287 0.57701 0.53672 0.0
C626 C 0.29359 0.61498 0.53257 0.0
O627 O 0.28106 0.65876 0.56138 0.0
O628 O 0.26953 0.63281 0.57163 0.0
N629 N 0.23051 0.59902 0.50148 0.0
C630 C 0.22164 0.6107 0.49309 0.0
C631 C 0.20342 0.60488 0.48563 0.0
C632 C 0.19457 0.58709 0.48677 0.0
C633 C 0.20397 0.57535 0.49556 0.0
C634 C 0.22209 0.58195 0.50279 0.0
H635 H 0.22842 0.62438 0.49217 0.0
O636 O 0.24338 0.64107 0.54656 0.0
O637 O 0.25117 0.6157 0.53492 0.0
O638 O 0.26911 0.64804 0.52124 0.0
O639 O 0.26155 0.62438 0.49948 0.0
C640 C 0.19594 0.55754 0.49789 0.0
C641 C 0.20599 0.54684 0.5078 0.0
H642 H 0.22912 0.53082 0.5288 0.0
H643 H 0.26037 0.54564 0.54235 0.0
H644 H 0.1962 0.61407 0.47904 0.0
H645 H 0.18047 0.58268 0.48111 0.0
H646 H 0.18197 0.55203 0.49238 0.0
H647 H 0.1996 0.53324 0.50969 0.0
Mn648 Mn 0.42647 0.51075 0.75881 0.0
Mn649 Mn 0.39429 0.50591 0.78854 0.0
C650 C 0.40986 0.48197 0.76251 0.0
C651 C 0.43677 0.51508 0.72921 0.0
C652 C 0.43461 0.51454 0.80162 0.0
O653 O 0.42043 0.53638 0.76255 0.0
O654 O 0.39795 0.53022 0.78059 0.0
C655 C 0.3619 0.5087 0.76352 0.0
N656 N 0.37041 0.49949 0.77559 0.0
C657 C 0.34288 0.47797 0.77642 0.0
C658 C 0.3338 0.48719 0.76396 0.0
C659 C 0.34339 0.50253 0.75736 0.0
C660 C 0.36141 0.4845 0.78171 0.0
H661 H 0.36915 0.52075 0.7588 0.0
C662 C 0.40777 0.54092 0.77143 0.0
O663 O 0.44752 0.51883 0.74459 0.0
O664 O 0.41979 0.50924 0.7309 0.0
N665 N 0.38923 0.48282 0.79737 0.0
C666 C 0.40022 0.47497 0.80856 0.0
C667 C 0.39291 0.45909 0.8158 0.0
C668 C 0.37429 0.45175 0.81191 0.0
C669 C 0.36322 0.46022 0.80057 0.0
C670 C 0.37136 0.47573 0.79335 0.0
H671 H 0.41442 0.48082 0.81197 0.0
O672 O 0.42557 0.48372 0.75636 0.0
O673 O 0.40437 0.49692 0.76642 0.0
O674 O 0.44008 0.51388 0.78557 0.0
O675 O 0.41794 0.51228 0.80403 0.0
C676 C 0.3444 0.45397 0.79624 0.0
C677 C 0.33427 0.46267 0.78395 0.0
H678 H 0.31947 0.48262 0.75939 0.0
H679 H 0.33646 0.50974 0.74778 0.0
H680 H 0.40155 0.45267 0.82458 0.0
H681 H 0.36865 0.43961 0.8177 0.0
H682 H 0.33764 0.4422 0.80191 0.0
H683 H 0.31989 0.45744 0.78035 0.0
Mn684 Mn 0.67273 0.04176 0.75051 0.0
Mn685 Mn 0.70678 0.05361 0.78549 0.0
C686 C 0.68537 0.07139 0.75806 0.0
C687 C 0.66278 0.03297 0.71994 0.0
C688 C 0.6673 0.04126 0.79075 0.0
O689 O 0.68095 0.01862 0.75385 0.0
O690 O 0.70607 0.02851 0.77442 0.0
C691 C 0.73972 0.05283 0.76683 0.0
N692 N 0.72996 0.06196 0.77769 0.0
C693 C 0.75466 0.08756 0.78434 0.0
C694 C 0.76501 0.07837 0.77329 0.0
C695 C 0.75748 0.06095 0.76445 0.0
C696 C 0.73714 0.07867 0.78641 0.0
H697 H 0.73403 0.03941 0.76014 0.0
C698 C 0.69524 0.01633 0.76316 0.0
O699 O 0.65221 0.02908 0.73257 0.0
O700 O 0.67938 0.04124 0.72507 0.0
N701 N 0.70894 0.07783 0.79686 0.0
C702 C 0.69644 0.08554 0.80519 0.0
C703 C 0.70127 0.10353 0.81344 0.0
C704 C 0.71893 0.11331 0.81318 0.0
C705 C 0.73154 0.10509 0.80446 0.0
C706 C 0.72592 0.08717 0.7964 0.0
H707 H 0.68286 0.07806 0.80544 0.0
O708 O 0.66909 0.06656 0.74939 0.0
O709 O 0.69387 0.05862 0.76233 0.0
O710 O 0.66064 0.04035 0.77398 0.0
O711 O 0.68421 0.04544 0.79616 0.0
C712 C 0.7493 0.11414 0.80299 0.0
C713 C 0.76089 0.10535 0.79301 0.0
H714 H 0.77867 0.08464 0.77133 0.0
H715 H 0.76536 0.05378 0.75587 0.0
H716 H 0.69142 0.10983 0.82001 0.0
H717 H 0.72259 0.1272 0.81949 0.0
H718 H 0.75407 0.12798 0.80918 0.0
H719 H 0.77441 0.11254 0.79173 0.0
Mn720 Mn 0.76431 0.67563 0.01487 0.0
Mn721 Mn 0.75532 0.64122 0.97991 0.0
C722 C 0.73457 0.6598 0.00561 0.0
C723 C 0.77032 0.6872 0.04679 0.0
C724 C 0.76608 0.6806 0.97353 0.0
O725 O 0.78909 0.66793 0.0137 0.0
O726 O 0.7806 0.64402 0.9915 0.0
C727 C 0.75825 0.60936 0.99956 0.0
N728 N 0.74827 0.61823 0.98845 0.0
C729 C 0.72341 0.59273 0.98308 0.0
C730 C 0.7334 0.58334 0.99452 0.0
C731 C 0.75089 0.5917 1.0028 0.0
C732 C 0.73151 0.61024 0.98024 0.0
H733 H 0.77177 0.61568 0.0058 0.0
C734 C 0.79242 0.65431 0.00362 0.0
O735 O 0.77443 0.69722 0.03381 0.0
O736 O 0.76355 0.67031 0.0414 0.0
N737 N 0.73103 0.63733 0.96798 0.0
C738 C 0.72284 0.64866 0.95825 0.0
C739 C 0.70505 0.64261 0.94956 0.0
C740 C 0.69594 0.62497 0.95089 0.0
C741 C 0.70458 0.61363 0.96117 0.0
C742 C 0.72233 0.62041 0.96949 0.0
H743 H 0.72984 0.6622 0.95711 0.0
O744 O 0.73762 0.67631 0.01357 0.0
O745 O 0.74891 0.65344 1.00255 0.0
O746 O 0.76673 0.68751 0.99034 0.0
O747 O 0.76224 0.66365 0.96873 0.0
C748 C 0.69623 0.59597 0.96366 0.0
C749 C 0.70565 0.58551 0.97458 0.0
H750 H 0.72775 0.56974 0.9971 0.0
H751 H 0.7587 0.58451 0.0116 0.0
H752 H 0.69841 0.65149 0.9418 0.0
H753 H 0.68226 0.62033 0.94406 0.0
H754 H 0.68251 0.59035 0.95739 0.0
H755 H 0.69903 0.572 0.97651 0.0
Mn756 Mn 0.88794 0.51628 0.79196 0.0
Mn757 Mn 0.85685 0.50775 0.8219 0.0
C758 C 0.8751 0.48732 0.79454 0.0
C759 C 0.89742 0.52261 0.76408 0.0
C760 C 0.89681 0.51956 0.83325 0.0
O761 O 0.88046 0.54008 0.79751 0.0
O762 O 0.8575 0.53232 0.81469 0.0
C763 C 0.82235 0.50761 0.79891 0.0
N764 N 0.83284 0.49905 0.80983 0.0
C765 C 0.80826 0.47373 0.80933 0.0
C766 C 0.79718 0.48228 0.79808 0.0
C767 C 0.80428 0.49927 0.79282 0.0
C768 C 0.82611 0.48276 0.81509 0.0
H769 H 0.82774 0.52075 0.79502 0.0
C770 C 0.86749 0.54364 0.80623 0.0
O771 O 0.90815 0.5271 0.77942 0.0
O772 O 0.88052 0.51549 0.76491 0.0
N773 N 0.85513 0.48425 0.8298 0.0
C774 C 0.86805 0.47725 0.83939 0.0
C775 C 0.86343 0.45997 0.84502 0.0
C776 C 0.84557 0.45017 0.84087 0.0
C777 C 0.83256 0.4576 0.83084 0.0
C778 C 0.83795 0.47489 0.82563 0.0
H779 H 0.88177 0.48477 0.84271 0.0
O780 O 0.89063 0.49097 0.78814 0.0
O781 O 0.86729 0.50076 0.7991 0.0
O782 O 0.90164 0.51897 0.81719 0.0
O783 O 0.88046 0.51641 0.83663 0.0
C784 C 0.81455 0.44842 0.82551 0.0
C785 C 0.8024 0.45649 0.81479 0.0
H786 H 0.78325 0.47587 0.7933 0.0
H787 H 0.7958 0.50595 0.78415 0.0
H788 H 0.8736 0.45426 0.8526 0.0
H789 H 0.84204 0.43688 0.84529 0.0
H790 H 0.80998 0.43504 0.82936 0.0
H791 H 0.78865 0.4492 0.81059 0.0
Mn792 Mn 0.79357 0.41935 0.50563 0.0
Mn793 Mn 0.80225 0.451 0.47637 0.0
C794 C 0.82255 0.43124 0.50181 0.0
C795 C 0.78745 0.41093 0.53415 0.0
C796 C 0.7891 0.41141 0.46402 0.0
O797 O 0.77004 0.42774 0.50115 0.0
O798 O 0.77782 0.45063 0.48402 0.0
C799 C 0.80378 0.48426 0.5017 0.0
N800 N 0.81185 0.4742 0.48984 0.0
C801 C 0.83856 0.49762 0.4928 0.0
C802 C 0.8305 0.50827 0.50499 0.0
C803 C 0.81306 0.50153 0.50949 0.0
C804 C 0.82863 0.48055 0.48541 0.0
H805 H 0.79035 0.47913 0.50513 0.0
C806 C 0.76653 0.44081 0.49266 0.0
O807 O 0.78226 0.39982 0.51912 0.0
O808 O 0.79579 0.42721 0.5326 0.0
N809 N 0.82567 0.4526 0.46803 0.0
C810 C 0.83186 0.44028 0.45678 0.0
C811 C 0.84933 0.44468 0.45142 0.0
C812 C 0.86019 0.46173 0.45754 0.0
C813 C 0.85348 0.47424 0.46899 0.0
C814 C 0.83594 0.46912 0.47384 0.0
H815 H 0.82356 0.42717 0.45198 0.0
O816 O 0.81894 0.4158 0.50833 0.0
O817 O 0.8092 0.43935 0.4981 0.0
O818 O 0.78951 0.40609 0.47995 0.0
O819 O 0.79286 0.42785 0.46102 0.0
C820 C 0.86359 0.4915 0.47598 0.0
C821 C 0.85614 0.50318 0.4879 0.0
H822 H 0.83763 0.52158 0.51107 0.0
H823 H 0.80678 0.50966 0.51893 0.0
H824 H 0.85441 0.43494 0.44259 0.0
H825 H 0.87369 0.46505 0.45344 0.0
H826 H 0.87718 0.49586 0.47246 0.0
H827 H 0.86413 0.51633 0.49336 0.0
Mn828 Mn 0.63273 0.54271 0.28148 0.0
Mn829 Mn 0.66662 0.55227 0.3171 0.0
C830 C 0.64808 0.57273 0.29137 0.0
C831 C 0.62113 0.53673 0.2494 0.0
C832 C 0.627 0.54135 0.32293 0.0
O833 O 0.64107 0.51826 0.28225 0.0
O834 O 0.66355 0.52691 0.30592 0.0
C835 C 0.69793 0.54863 0.29653 0.0
N836 N 0.68974 0.55853 0.30843 0.0
C837 C 0.71695 0.5812 0.31618 0.0
C838 C 0.72571 0.57127 0.30402 0.0
C839 C 0.71609 0.55501 0.294 0.0
C840 C 0.6987 0.57446 0.31767 0.0
H841 H 0.69071 0.53592 0.28916 0.0
C842 C 0.6543 0.51513 0.29311 0.0
O843 O 0.61125 0.53219 0.26239 0.0
O844 O 0.63797 0.54402 0.25493 0.0
N845 N 0.67136 0.57652 0.3289 0.0
C846 C 0.66041 0.5853 0.33854 0.0
C847 C 0.66765 0.60219 0.3487 0.0
C848 C 0.68615 0.60969 0.34912 0.0
C849 C 0.69711 0.60043 0.33894 0.0
C850 C 0.68898 0.58393 0.32863 0.0
H851 H 0.6463 0.57941 0.33845 0.0
O852 O 0.63154 0.56934 0.28324 0.0
O853 O 0.65473 0.55858 0.29425 0.0
O854 O 0.62066 0.53925 0.30578 0.0
O855 O 0.64385 0.54639 0.32847 0.0
C856 C 0.71578 0.60686 0.33866 0.0
C857 C 0.72564 0.59741 0.32705 0.0
H858 H 0.7398 0.576 0.30227 0.0
H859 H 0.72275 0.54727 0.28458 0.0
H860 H 0.65906 0.60928 0.35642 0.0
H861 H 0.69177 0.62259 0.3572 0.0
H862 H 0.72257 0.61939 0.34683 0.0
H863 H 0.73985 0.60282 0.32648 0.0
C864 C 0.98851 0.97471 0.99252 0.0
C865 C 0.97081 0.96018 0.01494 0.0
C866 C 0.98196 0.97547 0.00967 0.0
C867 C 0.96643 0.94409 1.00281 0.0
C868 C 0.98376 0.95865 0.98015 0.0
C869 C 0.97285 0.94334 0.98546 0.0
N870 N 0.99887 0.98984 0.98765 0.0
C871 C 1.00397 0.98996 0.9702 0.0
C872 C 0.9897 0.95855 0.9626 0.0
C873 C 0.99971 0.97432 0.95756 0.0
Gd874 Gd 0.05215 0.03636 0.03492 0.0
Gd875 Gd 1.00349 0.01575 0.00952 0.0
N876 N 0.9864 0.99122 0.02117 0.0
C877 C 0.96419 0.96159 0.03218 0.0
C878 C 0.97914 0.99294 0.03748 0.0
C879 C 0.96827 0.9781 0.04342 0.0
H880 H 0.98124 0.00584 0.04568 0.0
H881 H 0.96277 0.97949 0.05651 0.0
H882 H 0.06859 0.0496 0.99568 0.0
H883 H 0.0106 1.00219 0.96555 0.0
H884 H 0.08284 0.07764 0.9846 0.0
H885 H 0.95562 0.95015 0.03674 0.0
H886 H 0.95788 0.93222 0.00663 0.0
H887 H 0.04316 0.0482 0.07846 0.0
H888 H 0.98623 0.94653 0.95267 0.0
H889 H 1.00382 0.97457 0.94378 0.0
H890 H 0.08815 0.12246 0.03674 0.0
H891 H 0.96909 0.93091 0.97612 0.0
H892 H 0.06456 0.10456 0.09202 0.0
H893 H 0.04889 0.07555 0.10075 0.0
N894 N 0.05416 0.06168 0.05661 0.0
C895 C 0.06308 0.07746 0.05157 0.0
C896 C 0.04913 0.06087 0.07404 0.0
C897 C 0.06166 0.09264 0.08194 0.0
C898 C 0.05272 0.07632 0.0869 0.0
C899 C 0.06695 0.09339 0.06414 0.0
H900 H 0.07929 0.12183 0.0682 0.0
N901 N 0.06471 0.06218 0.02185 0.0
C902 C 0.06837 0.07775 0.03375 0.0
C903 C 0.08223 0.09401 0.01022 0.0
C904 C 0.07729 0.09406 0.0282 0.0
C905 C 0.07017 0.06198 0.00458 0.0
C906 C 0.07868 0.0779 0.99838 0.0
O907 O 0.01621 0.99431 0.02334 0.0
O908 O 0.04625 0.00578 0.03486 0.0
O909 O 0.08034 0.03523 0.03247 0.0
O910 O 0.07098 0.03782 0.0595 0.0
O911 O 0.0063 0.03058 0.03875 0.0
O912 O 0.03197 0.02389 0.05325 0.0
O913 O 0.03316 0.0561 0.02792 0.0
O914 O 0.01698 0.04261 1.00063 0.0
O915 O 0.98055 0.02811 0.01464 0.0
O916 O 0.98162 0.01346 0.98734 0.0
O917 O 0.05202 0.0218 0.006 0.0
O918 O 0.02464 0.02414 0.99065 0.0
C919 C 0.03217 0.99227 0.03104 0.0
C920 C 0.01536 0.02661 0.05364 0.0
C921 C 0.09308 0.02014 0.05566 0.0
C922 C 0.11691 1.00315 0.05196 0.0
C923 C 0.09592 0.99577 0.0744 0.0
C924 C 0.08698 0.00941 0.06937 0.0
C925 C 0.11092 0.99269 0.06582 0.0
C926 C 0.108 0.01684 0.04694 0.0
C927 C 0.08409 0.03473 0.05022 0.0
C928 C 0.08116 0.10987 0.04074 0.0
C929 C 0.07609 0.10952 0.05866 0.0
H930 H 0.08904 0.10628 0.00543 0.0
C931 C 0.02443 0.05742 0.01168 0.0
C932 C 0.04135 0.02166 0.99055 0.0
C933 C 0.9552 0.02643 0.99105 0.0
C934 C 0.92808 0.03706 0.99796 0.0
C935 C 0.9326 0.02899 0.966 0.0
C936 C 0.9492 0.02465 0.97202 0.0
C937 C 0.92204 0.03524 0.97891 0.0
C938 C 0.94449 0.03234 0.00389 0.0
C939 C 0.97271 0.02257 0.99779 0.0
H940 H 0.09119 0.98755 0.08493 0.0
H941 H 0.07533 0.01149 0.0762 0.0
H942 H 0.11767 0.98197 0.06974 0.0
H943 H 0.11275 0.02498 0.03631 0.0
H944 H 0.92805 0.02779 0.95133 0.0
H945 H 0.9574 0.02012 0.96185 0.0
H946 H 0.90947 0.03909 0.97402 0.0
H947 H 0.94901 0.03346 0.01861 0.0
C948 C 0.31316 0.74294 0.22835 0.0
C949 C 0.28784 0.72416 0.20832 0.0
C950 C 0.29515 0.73977 0.22082 0.0
C951 C 0.29905 0.71221 0.20305 0.0
C952 C 0.32442 0.73085 0.22331 0.0
C953 C 0.31731 0.71557 0.21049 0.0
N954 N 0.31957 0.75758 0.24101 0.0
C955 C 0.33716 0.76126 0.24884 0.0
C956 C 0.34247 0.73441 0.23143 0.0
C957 C 0.34886 0.74971 0.24425 0.0
Gd958 Gd 0.27 0.78026 0.29411 0.0
Gd959 Gd 0.29961 0.77682 0.24726 0.0
N960 N 0.28459 0.75146 0.22645 0.0
C961 C 0.26937 0.72077 0.20183 0.0
C962 C 0.26643 0.74787 0.22051 0.0
C963 C 0.25861 0.73261 0.20809 0.0
H964 H 0.25766 0.75634 0.22551 0.0
H965 H 0.24421 0.7299 0.20348 0.0
H966 H 0.30717 0.78948 0.32637 0.0
H967 H 0.34229 0.77325 0.25846 0.0
H968 H 0.32067 0.81237 0.35231 0.0
H969 H 0.26322 0.7089 0.19229 0.0
H970 H 0.29368 0.70021 0.1934 0.0
H971 H 0.22734 0.78575 0.28476 0.0
H972 H 0.35155 0.72546 0.22791 0.0
H973 H 0.36282 0.75265 0.25052 0.0
H974 H 0.27648 0.84979 0.35831 0.0
H975 H 0.32576 0.70615 0.20641 0.0
H976 H 0.22052 0.83298 0.31818 0.0
H977 H 0.20831 0.80766 0.29358 0.0
N978 N 0.25042 0.79941 0.30289 0.0
C979 C 0.25701 0.81256 0.31718 0.0
C980 C 0.23299 0.79722 0.29486 0.0
C981 C 0.229 0.8236 0.31409 0.0
C982 C 0.22209 0.80938 0.30014 0.0
C983 C 0.24656 0.82518 0.32301 0.0
H984 H 0.24604 0.84862 0.34227 0.0
N985 N 0.28364 0.80056 0.32051 0.0
C986 C 0.27405 0.81309 0.32637 0.0
C987 C 0.29833 0.82631 0.35061 0.0
C988 C 0.28124 0.82643 0.34142 0.0
C989 C 0.29994 0.79991 0.33005 0.0
C990 C 0.30761 0.81285 0.34503 0.0
O991 O 0.29249 0.75157 0.25973 0.0
O992 O 0.26777 0.76114 0.26807 0.0
O993 O 0.27125 0.75878 0.31137 0.0
O994 O 0.24537 0.76532 0.30238 0.0
O995 O 0.27176 0.78502 0.24089 0.0
O996 O 0.25382 0.78326 0.26598 0.0
O997 O 0.28631 0.80798 0.29264 0.0
O998 O 0.28877 0.79047 0.26906 0.0
O999 O 0.30086 0.78936 0.22216 0.0
O1000 O 0.32379 0.79669 0.2444 0.0
O1001 O 0.29793 0.77168 0.29744 0.0
O1002 O 0.31716 0.78188 0.27541 0.0
C1003 C 0.27723 0.74837 0.26687 0.0
C1004 C 0.2563 0.78578 0.24833 0.0
C1005 C 0.24921 0.75586 0.33211 0.0
C1006 C 0.25542 0.74746 0.36291 0.0
C1007 C 0.23081 0.76315 0.35616 0.0
C1008 C 0.23483 0.76355 0.33793 0.0
C1009 C 0.24113 0.75524 0.36869 0.0
C1010 C 0.25926 0.7476 0.34462 0.0
C1011 C 0.25401 0.75628 0.31315 0.0
C1012 C 0.27112 0.83937 0.34687 0.0
C1013 C 0.25381 0.83872 0.33772 0.0
H1014 H 0.30433 0.83634 0.3622 0.0
C1015 C 0.29328 0.80654 0.27744 0.0
C1016 C 0.31427 0.77585 0.29164 0.0
C1017 C 0.32649 0.8111 0.21618 0.0
C1018 C 0.3253 0.82582 0.18827 0.0
C1019 C 0.35426 0.82656 0.20614 0.0
C1020 C 0.34542 0.8166 0.21888 0.0
C1021 C 0.34426 0.831 0.19072 0.0
C1022 C 0.31649 0.81609 0.20109 0.0
C1023 C 0.31712 0.79867 0.22773 0.0
H1024 H 0.21969 0.76897 0.36059 0.0
H1025 H 0.22672 0.76987 0.32847 0.0
H1026 H 0.23778 0.75487 0.38276 0.0
H1027 H 0.27022 0.74143 0.34021 0.0
H1028 H 0.36888 0.83061 0.20805 0.0
H1029 H 0.35336 0.81274 0.23045 0.0
H1030 H 0.35126 0.83861 0.18084 0.0
H1031 H 0.30184 0.81192 0.19892 0.0
C1032 C 0.5753 0.06993 0.50067 0.0
C1033 C 0.59429 0.08885 0.52679 0.0
C1034 C 0.58221 0.07271 0.51948 0.0
C1035 C 0.59962 0.10199 0.51505 0.0
C1036 C 0.58057 0.0832 0.48895 0.0
C1037 C 0.59281 0.09917 0.49621 0.0
N1038 N 0.56316 0.05449 0.49397 0.0
C1039 C 0.55639 0.05115 0.47568 0.0
C1040 C 0.57332 0.08005 0.47024 0.0
C1041 C 0.56124 0.06394 0.46358 0.0
Gd1042 Gd 0.50824 0.03142 0.53527 0.0
Gd1043 Gd 0.55749 0.03393 0.5155 0.0
N1044 N 0.57649 0.05997 0.53074 0.0
C1045 C 0.60056 0.09137 0.54574 0.0
C1046 C 0.58278 0.06215 0.5491 0.0
C1047 C 0.59481 0.07796 0.55692 0.0
H1048 H 0.57871 0.05166 0.55764 0.0
H1049 H 0.59973 0.07975 0.57154 0.0
H1050 H 0.48211 0.01589 0.49544 0.0
H1051 H 0.54764 0.03845 0.47022 0.0
H1052 H 0.4593 0.98877 0.48211 0.0
H1053 H 0.60987 0.1036 0.55188 0.0
H1054 H 0.60896 0.11446 0.52042 0.0
H1055 H 0.51615 0.02829 0.58097 0.0
H1056 H 0.57706 0.08992 0.4608 0.0
H1057 H 0.5558 0.06128 0.44909 0.0
H1058 H 0.45181 0.95337 0.53304 0.0
H1059 H 0.59702 0.10949 0.48739 0.0
H1060 H 0.4859 0.97768 0.59185 0.0
H1061 H 0.50769 0.00619 0.60279 0.0
N1062 N 0.50028 0.01197 0.5576 0.0
C1063 C 0.48765 0.99678 0.5515 0.0
C1064 C 0.50706 0.01568 0.57588 0.0
C1065 C 0.48973 0.98724 0.58214 0.0
C1066 C 0.50208 1.00329 0.58836 0.0
C1067 C 0.48218 0.98389 0.56355 0.0
H1068 H 0.46503 0.95809 0.56575 0.0
N1069 N 0.48572 0.0068 0.52188 0.0
C1070 C 0.47998 0.99419 0.53315 0.0
C1071 C 0.45963 0.97654 0.50759 0.0
C1072 C 0.46696 0.97857 0.52624 0.0
C1073 C 0.47806 0.00535 0.50396 0.0
C1074 C 0.46508 0.99008 0.49646 0.0
O1075 O 0.54647 0.06037 0.5215 0.0
O1076 O 0.53098 0.05512 0.54636 0.0
O1077 O 0.48742 0.04627 0.52528 0.0
O1078 O 0.49422 0.04508 0.55457 0.0
O1079 O 0.5543 0.02239 0.54237 0.0
O1080 O 0.53338 0.03658 0.55542 0.0
O1081 O 0.51282 1.00399 0.52174 0.0
O1082 O 0.54296 0.00502 0.51645 0.0
O1083 O 0.58415 0.027 0.52278 0.0
O1084 O 0.57148 0.02327 0.49391 0.0
O1085 O 0.51493 0.04153 0.50849 0.0
O1086 O 0.53286 0.02407 0.4951 0.0
C1087 C 0.53937 0.06649 0.5361 0.0
C1088 C 0.54617 0.0271 0.55655 0.0
C1089 C 0.46536 0.05172 0.54606 0.0
C1090 C 0.43957 0.06704 0.54391 0.0
C1091 C 0.44227 0.04643 0.56701 0.0
C1092 C 0.45824 0.04297 0.56068 0.0
C1093 C 0.43306 0.05849 0.5588 0.0
C1094 C 0.45575 0.06362 0.5375 0.0
C1095 C 0.48408 0.05098 0.54207 0.0
C1096 C 0.46174 0.96553 0.5381 0.0
C1097 C 0.4693 0.9682 0.55672 0.0
H1098 H 0.44964 0.96469 0.50172 0.0
C1099 C 0.52639 0.99611 0.51747 0.0
C1100 C 0.51867 0.03165 0.49424 0.0
C1101 C 0.60107 0.01556 0.49861 0.0
C1102 C 0.62499 0.99781 0.50073 0.0
C1103 C 0.62023 0.01387 0.47394 0.0
C1104 C 0.60599 0.02016 0.48138 0.0
C1105 C 0.62959 1.00272 0.48345 0.0
C1106 C 0.61083 1.00458 0.50851 0.0
C1107 C 0.58527 0.0218 0.50545 0.0
H1108 H 0.43715 0.03995 0.57854 0.0
H1109 H 0.46535 0.03393 0.56771 0.0
H1110 H 0.42077 0.06113 0.56405 0.0
H1111 H 0.46117 0.0707 0.52644 0.0
H1112 H 0.62392 0.01751 0.46065 0.0
H1113 H 0.59876 0.02863 0.4736 0.0
H1114 H 0.64052 0.99788 0.47728 0.0
H1115 H 0.60702 1.00078 0.52173 0.0
C1116 C 0.23663 0.29557 0.72927 0.0
C1117 C 0.21716 0.26914 0.71136 0.0
C1118 C 0.22848 0.27737 0.72759 0.0
C1119 C 0.21493 0.27915 0.69639 0.0
C1120 C 0.23362 0.30584 0.71455 0.0
C1121 C 0.22318 0.29743 0.69796 0.0
N1122 N 0.24617 0.30351 0.74573 0.0
C1123 C 0.25121 0.32192 0.74891 0.0
C1124 C 0.24044 0.32446 0.71722 0.0
C1125 C 0.24896 0.33256 0.73459 0.0
Gd1126 Gd 0.30056 0.27235 0.77095 0.0
Gd1127 Gd 0.24953 0.28371 0.76831 0.0
N1128 N 0.23096 0.2679 0.7422 0.0
C1129 C 0.20792 0.25127 0.71091 0.0
C1130 C 0.22105 0.25094 0.74239 0.0
C1131 C 0.20963 0.24224 0.72662 0.0
H1132 H 0.22234 0.24409 0.75461 0.0
H1133 H 0.20214 0.22862 0.72658 0.0
H1134 H 0.32373 0.31469 0.78355 0.0
H1135 H 0.25666 0.32866 0.76254 0.0
H1136 H 0.34535 0.33155 0.80963 0.0
H1137 H 0.19904 0.24452 0.69872 0.0
H1138 H 0.20642 0.27302 0.68373 0.0
H1139 H 0.29593 0.22832 0.77752 0.0
H1140 H 0.23842 0.3328 0.70625 0.0
H1141 H 0.25342 0.34707 0.73709 0.0
H1142 H 0.35515 0.28654 0.84932 0.0
H1143 H 0.22086 0.30511 0.68649 0.0
H1144 H 0.32481 0.22542 0.83007 0.0
H1145 H 0.30484 0.21038 0.80189 0.0
N1146 N 0.309 0.25354 0.79251 0.0
C1147 C 0.32086 0.26198 0.80735 0.0
C1148 C 0.30384 0.23519 0.7901 0.0
C1149 C 0.32057 0.23344 0.81958 0.0
C1150 C 0.30923 0.22491 0.80374 0.0
C1151 C 0.32683 0.25215 0.82138 0.0
H1152 H 0.34365 0.25385 0.84754 0.0
N1153 N 0.32121 0.28974 0.79481 0.0
C1154 C 0.32736 0.2805 0.80838 0.0
C1155 C 0.34633 0.30812 0.82391 0.0
C1156 C 0.33998 0.28952 0.82341 0.0
C1157 C 0.32776 0.30773 0.79491 0.0
C1158 C 0.34027 0.31723 0.80954 0.0
O1159 O 0.2568 0.26483 0.74505 0.0
O1160 O 0.28564 0.27907 0.74508 0.0
O1161 O 0.32697 0.28051 0.76138 0.0
O1162 O 0.31149 0.25346 0.75298 0.0
O1163 O 0.25633 0.26022 0.7825 0.0
O1164 O 0.27693 0.24802 0.76682 0.0
O1165 O 0.29024 0.28025 0.79897 0.0
O1166 O 0.26831 0.29767 0.79353 0.0
O1167 O 0.23009 0.2739 0.78729 0.0
O1168 O 0.22569 0.29522 0.77109 0.0
O1169 O 0.29644 0.29835 0.76007 0.0
O1170 O 0.27317 0.30815 0.77404 0.0
C1171 C 0.27124 0.2682 0.73641 0.0
C1172 C 0.26189 0.24612 0.77495 0.0
C1173 C 0.34348 0.25848 0.75063 0.0
C1174 C 0.37169 0.25853 0.73641 0.0
C1175 C 0.36271 0.23738 0.75845 0.0
C1176 C 0.34713 0.24441 0.76059 0.0
C1177 C 0.3748 0.24424 0.74637 0.0
C1178 C 0.35598 0.26573 0.73871 0.0
C1179 C 0.3263 0.26507 0.75165 0.0
C1180 C 0.34563 0.27979 0.83757 0.0
C1181 C 0.33904 0.26118 0.83658 0.0
H1182 H 0.35597 0.31554 0.83525 0.0
C1183 C 0.27945 0.29108 0.80486 0.0
C1184 C 0.28877 0.3113 0.76695 0.0
C1185 C 0.21174 0.29411 0.7987 0.0
C1186 C 0.18746 0.29373 0.8187 0.0
C1187 C 0.20854 0.32169 0.81679 0.0
C1188 C 0.21767 0.31267 0.80437 0.0
C1189 C 0.19347 0.31235 0.82378 0.0
C1190 C 0.1967 0.28457 0.80616 0.0
C1191 C 0.21966 0.28519 0.78345 0.0
H1192 H 0.36535 0.22641 0.76608 0.0
H1193 H 0.33782 0.23869 0.76982 0.0
H1194 H 0.3867 0.23843 0.74485 0.0
H1195 H 0.35326 0.27657 0.73089 0.0
H1196 H 0.21302 0.33605 0.82082 0.0
H1197 H 0.22909 0.32031 0.7988 0.0
H1198 H 0.18646 0.31967 0.83326 0.0
H1199 H 0.19186 0.27029 0.80175 0.0
C1200 C 0.00966 0.06942 0.56563 0.0
C1201 C 0.03726 0.08818 0.58205 0.0
C1202 C 0.02813 0.07644 0.56647 0.0
C1203 C 0.02767 0.09258 0.59683 0.0
C1204 C 0.99999 0.07386 0.58041 0.0
C1205 C 0.0091 0.08543 0.59601 0.0
N1206 N 1.00122 0.05812 0.55043 0.0
C1207 C 0.98306 0.05126 0.54886 0.0
C1208 C 0.98143 0.06654 0.57907 0.0
C1209 C 0.97292 0.05526 0.56318 0.0
Gd1210 Gd 0.0369 0.00513 0.52398 0.0
Gd1211 Gd 0.0195 0.05233 0.5273 0.0
N1212 N 0.03716 0.07162 0.55212 0.0
C1213 C 0.05575 0.09526 0.58225 0.0
C1214 C 0.05489 0.07926 0.5518 0.0
C1215 C 0.06455 0.09094 0.56696 0.0
H1216 H 0.0615 0.07681 0.53972 0.0
H1217 H 0.0787 0.09679 0.56672 0.0
H1218 H 0.99464 0.98125 0.511 0.0
H1219 H 0.97624 0.04302 0.53641 0.0
H1220 H 0.97826 0.95933 0.48515 0.0
H1221 H 0.06325 0.10436 0.59394 0.0
H1222 H 0.03448 0.10156 0.60892 0.0
H1223 H 0.08024 0.01515 0.51495 0.0
H1224 H 0.97352 0.06963 0.59013 0.0
H1225 H 0.95853 0.04974 0.5619 0.0
H1226 H 0.02386 0.95094 0.44564 0.0
H1227 H 1.00189 0.08899 0.60751 0.0
H1228 H 0.08419 0.98475 0.46359 0.0
H1229 H 0.09845 0.00687 0.49049 0.0
N1230 N 0.0556 0.99871 0.50152 0.0
C1231 C 0.04752 0.98631 0.487 0.0
C1232 C 0.07368 0.00595 0.503 0.0
C1233 C 0.07603 0.98854 0.47415 0.0
C1234 C 0.08412 1.00108 0.48928 0.0
C1235 C 0.05755 0.98092 0.4729 0.0
H1236 H 0.05637 0.96381 0.44709 0.0
N1237 N 0.01959 0.98508 0.49955 0.0
C1238 C 0.02908 0.97913 0.4861 0.0
C1239 C 1.00181 0.9593 0.47075 0.0
C1240 C 0.02035 0.96626 0.47119 0.0
C1241 C 1.00173 0.97775 0.4996 0.0
C1242 C 0.9925 0.96498 0.4851 0.0
O1243 O 0.02636 0.04049 0.55447 0.0
O1244 O 0.04934 0.02558 0.54849 0.0
O1245 O 0.02844 0.98224 0.54019 0.0
O1246 O 0.05571 0.98847 0.53202 0.0
O1247 O 0.0455 0.05098 0.51426 0.0
O1248 O 0.0587 0.03054 0.5295 0.0
O1249 O 0.02927 0.01555 0.49616 0.0
O1250 O 0.00774 0.0324 0.50227 0.0
O1251 O 0.02743 0.07596 0.51196 0.0
O1252 O 1.00002 0.06839 0.51941 0.0
O1253 O 0.01082 0.00674 0.53663 0.0
O1254 O 0.9976 0.02711 0.52138 0.0
C1255 C 0.04039 0.03355 0.56018 0.0
C1256 C 0.05986 0.04474 0.52029 0.0
C1257 C 0.05001 0.96234 0.54882 0.0
C1258 C 0.04556 0.93662 0.56721 0.0
C1259 C 0.07341 0.94447 0.55324 0.0
C1260 C 0.06715 0.95868 0.54582 0.0
C1261 C 0.06277 0.93357 0.56385 0.0
C1262 C 0.03903 0.95106 0.55955 0.0
C1263 C 0.04432 0.97782 0.54023 0.0
C1264 C 0.03035 0.9608 0.4572 0.0
C1265 C 0.04887 0.96813 0.45803 0.0
H1266 H 0.99462 0.94938 0.45955 0.0
C1267 C 0.01653 0.02428 0.49049 0.0
C1268 C 0.99639 0.01276 0.53035 0.0
C1269 C 1.005 0.09477 0.50286 0.0
C1270 C 0.00928 0.12128 0.4856 0.0
C1271 C 0.98052 0.11111 0.49718 0.0
C1272 C 0.98719 0.09713 0.50466 0.0
C1273 C 0.99145 0.1231 0.4878 0.0
C1274 C 0.01611 0.10694 0.49309 0.0
C1275 C 0.01117 0.07952 0.51145 0.0
H1276 H 0.08663 0.94189 0.55075 0.0
H1277 H 0.07588 0.96682 0.5376 0.0
H1278 H 0.06801 0.92261 0.5695 0.0
H1279 H 0.02578 0.95355 0.56205 0.0
H1280 H 0.96679 0.11269 0.49872 0.0
H1281 H 0.97826 0.08815 0.51196 0.0
H1282 H 0.98591 0.13389 0.48214 0.0
H1283 H 0.02987 0.10542 0.4915 0.0
C1284 C 0.23828 0.73366 0.80431 0.0
C1285 C 0.21668 0.71502 0.77989 0.0
C1286 C 0.23375 0.72619 0.78581 0.0
C1287 C 0.20425 0.71129 0.79276 0.0
C1288 C 0.22578 0.72985 0.81722 0.0
C1289 C 0.20877 0.71868 0.81134 0.0
N1290 N 0.25485 0.7445 0.80969 0.0
C1291 C 0.26003 0.75115 0.82789 0.0
C1292 C 0.23076 0.73726 0.83573 0.0
C1293 C 0.24799 0.74786 0.84109 0.0
Gd1294 Gd 0.27962 0.79869 0.76604 0.0
Gd1295 Gd 0.2737 0.74809 0.78606 0.0
N1296 N 0.24578 0.73048 0.77344 0.0
C1297 C 0.21254 0.70808 0.76115 0.0
C1298 C 0.24206 0.72343 0.75528 0.0
C1299 C 0.22531 0.71226 0.74881 0.0
H1300 H 0.25196 0.72649 0.74576 0.0
H1301 H 0.22226 0.70683 0.73435 0.0
H1302 H 0.29858 0.82239 0.8066 0.0
H1303 H 0.27356 0.75862 0.83251 0.0
H1304 H 0.32657 0.84419 0.8191 0.0
H1305 H 0.19955 0.69946 0.75607 0.0
H1306 H 0.19106 0.70273 0.78846 0.0
H1307 H 0.27583 0.79858 0.71993 0.0
H1308 H 0.22153 0.73465 0.84605 0.0
H1309 H 0.25211 0.75329 0.85545 0.0
H1310 H 0.35632 0.85666 0.76522 0.0
H1311 H 0.19902 0.71563 0.82109 0.0
H1312 H 0.32462 0.83035 0.70593 0.0
H1313 H 0.2946 0.81055 0.69623 0.0
N1314 N 0.29558 0.81054 0.74256 0.0
C1315 C 0.31154 0.82218 0.7482 0.0
C1316 C 0.28911 0.8069 0.72421 0.0
C1317 C 0.31654 0.82496 0.71633 0.0
C1318 C 0.29961 0.81378 0.7108 0.0
C1319 C 0.32256 0.82959 0.73524 0.0
H1320 H 0.34767 0.8474 0.7318 0.0
N1321 N 0.30509 0.82056 0.77902 0.0
C1322 C 0.31637 0.82748 0.76699 0.0
C1323 C 0.33629 0.84594 0.7924 0.0
C1324 C 0.33241 0.84021 0.77338 0.0
C1325 C 0.30824 0.82691 0.7974 0.0
C1326 C 0.32399 0.83945 0.80443 0.0
O1327 O 0.2479 0.75912 0.7766 0.0
O1328 O 0.25555 0.77677 0.75353 0.0
O1329 O 0.26831 0.8205 0.77954 0.0
O1330 O 0.26078 0.81134 0.75039 0.0
O1331 O 0.28024 0.75015 0.75737 0.0
O1332 O 0.28182 0.77697 0.74375 0.0
O1333 O 0.30692 0.79213 0.77778 0.0
O1334 O 0.30316 0.76419 0.7899 0.0
O1335 O 0.28442 0.72484 0.77531 0.0
O1336 O 0.27846 0.72761 0.80361 0.0
O1337 O 0.26923 0.78783 0.79106 0.0
O1338 O 0.28555 0.77138 0.80688 0.0
C1339 C 0.24319 0.76806 0.76271 0.0
C1340 C 0.28284 0.75981 0.74357 0.0
C1341 C 0.25971 0.84164 0.75968 0.0
C1342 C 0.24573 0.86826 0.75974 0.0
C1343 C 0.2699 0.86534 0.74074 0.0
C1344 C 0.27123 0.84882 0.74709 0.0
C1345 C 0.25716 0.87495 0.7469 0.0
C1346 C 0.24706 0.85157 0.76619 0.0
C1347 C 0.25927 0.82298 0.76415 0.0
C1348 C 0.34384 0.84702 0.76057 0.0
C1349 C 0.33893 0.84172 0.74154 0.0
H1350 H 0.34848 0.85568 0.79787 0.0
C1351 C 0.31348 0.77928 0.78587 0.0
C1352 C 0.27994 0.78643 0.80566 0.0
C1353 C 0.30254 0.7128 0.79751 0.0
C1354 C 0.32331 0.69179 0.79465 0.0
C1355 C 0.32918 0.71603 0.82004 0.0
C1356 C 0.31361 0.72195 0.81348 0.0
C1357 C 0.334 0.70104 0.81072 0.0
C1358 C 0.3075 0.69766 0.78806 0.0
C1359 C 0.28547 0.71845 0.79122 0.0
H1360 H 0.27861 0.87059 0.73079 0.0
H1361 H 0.2809 0.84143 0.74173 0.0
H1362 H 0.25621 0.88766 0.74165 0.0
H1363 H 0.23793 0.84609 0.7757 0.0
H1364 H 0.33751 0.72305 0.83245 0.0
H1365 H 0.31015 0.73359 0.82102 0.0
H1366 H 0.34612 0.6966 0.81608 0.0
H1367 H 0.29908 0.69044 0.77576 0.0
C1368 C 0.56301 0.99845 0.07057 0.0
C1369 C 0.57903 0.02117 0.09528 0.0
C1370 C 0.56487 0.01524 0.08067 0.0
C1371 C 0.59119 0.00988 0.09967 0.0
C1372 C 0.57494 0.98689 0.07524 0.0
C1373 C 0.58911 0.99275 0.08973 0.0
N1374 N 0.54941 0.99332 0.05636 0.0
C1375 C 0.54618 0.97628 0.04725 0.0
C1376 C 0.57218 0.96972 0.06532 0.0
C1377 C 0.55759 0.96431 0.05142 0.0
Gd1378 Gd 0.53226 0.04501 1.00155 0.0
Gd1379 Gd 0.53131 0.0146 0.04983 0.0
N1380 N 0.55317 0.02605 0.07572 0.0
C1381 C 0.58063 0.03833 0.10494 0.0
C1382 C 0.55428 0.04253 0.08563 0.0
C1383 C 0.56811 0.049 0.10018 0.0
H1384 H 0.54483 0.05096 0.08217 0.0
H1385 H 0.56915 0.06224 0.10765 0.0
H1386 H 0.52243 0.00753 0.96879 0.0
H1387 H 0.53455 0.97169 0.03705 0.0
H1388 H 0.49758 0.99274 0.94544 0.0
H1389 H 0.5914 0.04343 0.11615 0.0
H1390 H 0.6022 0.01423 0.11078 0.0
H1391 H 0.52617 0.08692 0.0104 0.0
H1392 H 0.58101 0.96042 0.06851 0.0
H1393 H 0.55503 0.95087 0.04401 0.0
H1394 H 0.45784 0.03498 0.94224 0.0
H1395 H 0.59848 0.98411 0.0934 0.0
H1396 H 0.47681 0.09231 0.97936 0.0
H1397 H 0.50354 0.1054 1.00221 0.0
N1398 N 0.51235 0.06372 0.99263 0.0
C1399 C 0.49819 0.05652 0.97959 0.0
C1400 C 0.51453 0.08112 1.00052 0.0
C1401 C 0.48674 0.08419 0.98291 0.0
C1402 C 0.50178 0.09162 0.99583 0.0
C1403 C 0.48483 0.06646 0.97453 0.0
H1404 H 0.45965 0.06581 0.95727 0.0
N1405 N 0.51074 0.03038 0.97613 0.0
C1406 C 0.49725 0.03923 0.97118 0.0
C1407 C 0.48272 0.01421 0.9484 0.0
C1408 C 0.4828 0.03134 0.95736 0.0
C1409 C 0.51122 0.01414 0.96647 0.0
C1410 C 0.49716 0.00573 0.95276 0.0
O1411 O 0.5593 0.03018 0.04932 0.0
O1412 O 0.54385 0.03346 0.02437 0.0
O1413 O 0.55211 0.04551 0.98239 0.0
O1414 O 0.55126 0.07003 0.99981 0.0
O1415 O 0.52555 0.04361 0.0533 0.0
O1416 O 0.53429 0.06214 0.0299 0.0
O1417 O 0.50548 0.03925 0.01191 0.0
O1418 O 0.51336 0.01531 0.0236 0.0
O1419 O 0.51137 0.01746 0.06872 0.0
O1420 O 0.51446 0.99086 0.0576 0.0
O1421 O 0.53897 0.01638 0.99739 0.0
O1422 O 0.53167 0.99817 0.02137 0.0
C1423 C 0.55923 0.03774 0.03445 0.0
C1424 C 0.52887 0.05956 0.04657 0.0
C1425 C 0.55932 0.07242 0.96924 0.0
C1426 C 0.56753 0.07244 0.93781 0.0
C1427 C 0.55574 0.09752 0.95194 0.0
C1428 C 0.55425 0.08921 0.96816 0.0
C1429 C 0.56236 0.08922 0.93682 0.0
C1430 C 0.56587 0.06419 0.95404 0.0
C1431 C 0.55792 0.06288 0.98576 0.0
C1432 C 0.46911 0.04091 0.95268 0.0
C1433 C 0.47015 0.05846 0.96122 0.0
H1434 H 0.47187 0.00767 0.93774 0.0
C1435 C 0.50203 0.02627 0.02224 0.0
C1436 C 0.5364 1.00053 0.00441 0.0
C1437 C 0.50674 0.99444 0.08802 0.0
C1438 C 0.49399 0.99538 0.11712 0.0
C1439 C 0.51703 0.97766 0.11229 0.0
C1440 C 0.51798 0.98299 0.09456 0.0
C1441 C 0.505 0.98378 0.12357 0.0
C1442 C 0.49486 1.00067 0.09941 0.0
C1443 C 0.50704 1.00015 0.06946 0.0
H1444 H 0.55188 0.11048 0.95113 0.0
H1445 H 0.54911 0.09585 0.97973 0.0
H1446 H 0.56375 0.09609 0.92454 0.0
H1447 H 0.56954 0.05111 0.95484 0.0
H1448 H 0.5256 0.96877 0.11729 0.0
H1449 H 0.52742 0.97814 0.08603 0.0
H1450 H 0.50433 0.97959 0.13731 0.0
H1451 H 0.48623 0.00958 0.09447 0.0
C1452 C 0.33213 0.31443 0.3045 0.0
C1453 C 0.34901 0.33241 0.28377 0.0
C1454 C 0.33252 0.3225 0.28813 0.0
C1455 C 0.36506 0.33355 0.29561 0.0
C1456 C 0.3482 0.31612 0.3167 0.0
C1457 C 0.36466 0.32547 0.31203 0.0
N1458 N 0.31598 0.30559 0.30889 0.0
C1459 C 0.31488 0.29939 0.32579 0.0
C1460 C 0.34722 0.30887 0.33356 0.0
C1461 C 0.33045 0.30066 0.33821 0.0
Gd1462 Gd 0.26774 0.25716 0.26168 0.0
Gd1463 Gd 0.29057 0.30524 0.28742 0.0
N1464 N 0.31671 0.32164 0.27709 0.0
C1465 C 0.34884 0.34156 0.26803 0.0
C1466 C 0.31637 0.33189 0.26264 0.0
C1467 C 0.3324 0.34152 0.2576 0.0
H1468 H 0.30373 0.33316 0.25514 0.0
H1469 H 0.33199 0.34926 0.24591 0.0
H1470 H 0.25716 0.23557 0.29816 0.0
H1471 H 0.30199 0.29419 0.33021 0.0
H1472 H 0.23056 0.21708 0.30867 0.0
H1473 H 0.36121 0.34932 0.26428 0.0
H1474 H 0.37781 0.3411 0.29244 0.0
H1475 H 0.25632 0.25973 0.21602 0.0
H1476 H 0.35924 0.31004 0.34334 0.0
H1477 H 0.32945 0.29565 0.35154 0.0
H1478 H 0.18444 0.20957 0.25703 0.0
H1479 H 0.3771 0.32688 0.32124 0.0
H1480 H 0.20081 0.23387 0.20159 0.0
H1481 H 0.2294 0.25069 0.19286 0.0
N1482 N 0.24277 0.24962 0.23828 0.0
C1483 C 0.2274 0.2397 0.24312 0.0
C1484 C 0.24371 0.2531 0.22028 0.0
C1485 C 0.21247 0.23822 0.21198 0.0
C1486 C 0.22856 0.24773 0.207 0.0
C1487 C 0.2118 0.23383 0.23011 0.0
H1488 H 0.18417 0.21868 0.22559 0.0
N1489 N 0.2431 0.23938 0.27269 0.0
C1490 C 0.22758 0.23441 0.26081 0.0
C1491 C 0.21316 0.21744 0.28357 0.0
C1492 C 0.21215 0.22333 0.26598 0.0
C1493 C 0.24447 0.23277 0.28941 0.0
C1494 C 0.22946 0.22203 0.29526 0.0
O1495 O 0.30952 0.28546 0.28163 0.0
O1496 O 0.29529 0.2706 0.25396 0.0
O1497 O 0.27861 0.23311 0.26692 0.0
O1498 O 0.27036 0.23821 0.23856 0.0
O1499 O 0.28737 0.30377 0.25613 0.0
O1500 O 0.26381 0.28027 0.2449 0.0
O1501 O 0.24852 0.26877 0.2795 0.0
O1502 O 0.25906 0.29965 0.28146 0.0
O1503 O 0.28711 0.33256 0.28537 0.0
O1504 O 0.29157 0.3236 0.31242 0.0
O1505 O 0.28317 0.25957 0.29067 0.0
O1506 O 0.2771 0.28537 0.30526 0.0
C1507 C 0.3103 0.27661 0.26536 0.0
C1508 C 0.2751 0.29511 0.24274 0.0
C1509 C 0.28142 0.21073 0.24156 0.0
C1510 C 0.29644 0.18554 0.24546 0.0
C1511 C 0.28155 0.18857 0.21528 0.0
C1512 C 0.2765 0.20428 0.22269 0.0
C1513 C 0.29158 0.17926 0.22657 0.0
C1514 C 0.29123 0.2012 0.25292 0.0
C1515 C 0.27664 0.22753 0.24923 0.0
C1516 C 0.19642 0.21805 0.25328 0.0
C1517 C 0.19626 0.22325 0.23539 0.0
H1518 H 0.2016 0.20893 0.28805 0.0
C1519 C 0.24602 0.28551 0.28282 0.0
C1520 C 0.27968 0.26879 0.30568 0.0
C1521 C 0.27571 0.34763 0.31021 0.0
C1522 C 0.25521 0.36823 0.30442 0.0
C1523 C 0.26603 0.36454 0.33602 0.0
C1524 C 0.27615 0.35223 0.32936 0.0
C1525 C 0.25574 0.37266 0.32365 0.0
C1526 C 0.2649 0.35538 0.29785 0.0
C1527 C 0.28832 0.33673 0.30323 0.0
H1528 H 0.2777 0.18363 0.20075 0.0
H1529 H 0.26878 0.21137 0.21367 0.0
H1530 H 0.29532 0.16703 0.22063 0.0
H1531 H 0.29513 0.20611 0.26748 0.0
H1532 H 0.26662 0.36823 0.35079 0.0
H1533 H 0.28469 0.34668 0.33915 0.0
H1534 H 0.24872 0.38283 0.32916 0.0
H1535 H 0.26447 0.35189 0.28304 0.0
C1536 C 0.50745 0.5673 0.06262 0.0
C1537 C 0.53365 0.5862 0.08148 0.0
C1538 C 0.52595 0.57472 0.06519 0.0
C1539 C 0.5226 0.59014 0.09509 0.0
C1540 C 0.4963 0.57148 0.07616 0.0
C1541 C 0.50399 0.58283 0.09242 0.0
N1542 N 0.50034 0.55619 0.04683 0.0
C1543 C 0.48209 0.54984 0.04318 0.0
C1544 C 0.47769 0.56429 0.07287 0.0
C1545 C 0.47054 0.55357 0.05623 0.0
Gd1546 Gd 0.53686 0.50242 0.02243 0.0
Gd1547 Gd 0.52093 0.55132 0.02584 0.0
N1548 N 0.53641 0.57054 0.05187 0.0
C1549 C 0.55226 0.59343 0.08361 0.0
C1550 C 0.55448 0.57785 0.05372 0.0
C1551 C 0.56268 0.58931 0.06963 0.0
H1552 H 0.56268 0.57498 0.04301 0.0
H1553 H 0.57705 0.59497 0.07109 0.0
H1554 H 0.49611 0.47549 0.01376 0.0
H1555 H 0.47629 0.54217 0.03006 0.0
H1556 H 0.47805 0.45371 0.98833 0.0
H1557 H 0.55867 0.60229 0.09593 0.0
H1558 H 0.5283 0.59893 0.10769 0.0
H1559 H 0.58003 0.50804 0.01234 0.0
H1560 H 0.46868 0.56721 0.08292 0.0
H1561 H 0.45611 0.54833 0.05335 0.0
H1562 H 0.51871 0.45072 0.94201 0.0
H1563 H 0.49562 0.58614 0.10299 0.0
H1564 H 0.57991 0.48295 0.95744 0.0
H1565 H 0.59648 0.50133 0.98589 0.0
N1566 N 0.55406 0.49608 0.99823 0.0
C1567 C 0.54495 0.48477 0.98331 0.0
C1568 C 0.57247 0.50127 0.99957 0.0
C1569 C 0.57252 0.48649 0.96879 0.0
C1570 C 0.58191 0.49695 0.98477 0.0
C1571 C 0.5539 0.47986 0.96809 0.0
H1572 H 0.5508 0.46411 0.94117 0.0
N1573 N 0.51887 0.48155 0.999 0.0
C1574 C 0.52692 0.47703 0.98384 0.0
C1575 C 0.49939 0.45627 0.97065 0.0
C1576 C 0.5173 0.46444 0.96912 0.0
C1577 C 0.50184 0.4728 1.00109 0.0
C1578 C 0.49171 0.46031 0.98681 0.0
O1579 O 0.52812 0.5394 0.05284 0.0
O1580 O 0.55043 0.5238 0.04581 0.0
O1581 O 0.52961 0.48233 0.0423 0.0
O1582 O 0.55383 0.48351 0.02826 0.0
O1583 O 0.54872 0.55252 0.01696 0.0
O1584 O 0.56028 0.52691 0.0234 0.0
O1585 O 0.51811 0.50843 0.99819 0.0
O1586 O 0.52859 0.53854 0.99929 0.0
O1587 O 0.52626 0.57926 0.01858 0.0
O1588 O 0.50034 0.56096 0.00898 0.0
O1589 O 0.51229 0.50642 0.03658 0.0
O1590 O 0.49902 0.52587 0.02002 0.0
C1591 C 0.54202 0.53195 0.05795 0.0
C1592 C 0.56215 0.54371 0.01895 0.0
C1593 C 0.54972 0.4604 0.04884 0.0
C1594 C 0.54546 0.4352 0.06787 0.0
C1595 C 0.57323 0.44271 0.05374 0.0
C1596 C 0.5669 0.45672 0.04598 0.0
C1597 C 0.56264 0.43206 0.06458 0.0
C1598 C 0.53886 0.44945 0.05992 0.0
C1599 C 0.54389 0.47551 0.03969 0.0
C1600 C 0.52592 0.46022 0.95355 0.0
C1601 C 0.54418 0.4679 0.95304 0.0
H1602 H 0.49154 0.44655 0.95962 0.0
C1603 C 0.51963 0.52334 0.99015 0.0
C1604 C 0.49779 0.51161 0.0292 0.0
C1605 C 0.50325 0.59123 0.99967 0.0
C1606 C 0.50674 0.61827 0.98311 0.0
C1607 C 0.47712 0.60424 0.99064 0.0
C1608 C 0.48461 0.59112 0.99894 0.0
C1609 C 0.48804 0.6177 0.98286 0.0
C1610 C 0.51443 0.60491 0.99161 0.0
C1611 C 0.51037 0.57694 0.00902 0.0
H1612 H 0.58646 0.4401 0.05133 0.0
H1613 H 0.57562 0.4647 0.03764 0.0
H1614 H 0.56791 0.42123 0.07047 0.0
H1615 H 0.52559 0.45196 0.06233 0.0
H1616 H 0.46273 0.604 0.99027 0.0
H1617 H 0.47577 0.58091 0.005 0.0
H1618 H 0.48182 0.6277 0.97644 0.0
H1619 H 0.52883 0.60519 0.99197 0.0
C1620 C 0.74212 0.23478 0.30016 0.0
C1621 C 0.72292 0.2132 0.27609 0.0
C1622 C 0.73881 0.22629 0.28195 0.0
C1623 C 0.70995 0.20933 0.28838 0.0
C1624 C 0.72926 0.23043 0.31264 0.0
C1625 C 0.71306 0.21799 0.30655 0.0
N1626 N 0.75822 0.24635 0.30596 0.0
C1627 C 0.76276 0.2527 0.32436 0.0
C1628 C 0.7333 0.23819 0.33111 0.0
C1629 C 0.75021 0.24916 0.33702 0.0
Gd1630 Gd 0.78351 0.30235 0.26381 0.0
Gd1631 Gd 0.77763 0.25074 0.28269 0.0
N1632 N 0.75132 0.23052 0.27004 0.0
C1633 C 0.7207 0.2041 0.25811 0.0
C1634 C 0.74972 0.22111 0.25289 0.0
C1635 C 0.73426 0.20794 0.24654 0.0
H1636 H 0.76049 0.22367 0.24426 0.0
H1637 H 0.73287 0.20066 0.23282 0.0
H1638 H 0.79999 0.32709 0.30443 0.0
H1639 H 0.77615 0.26014 0.32965 0.0
H1640 H 0.8282 0.34799 0.31822 0.0
H1641 H 0.70872 0.19388 0.25315 0.0
H1642 H 0.69759 0.19943 0.28406 0.0
H1643 H 0.78814 0.29251 0.21783 0.0
H1644 H 0.72375 0.23522 0.34106 0.0
H1645 H 0.75377 0.25455 0.35147 0.0
H1646 H 0.86512 0.3523 0.26839 0.0
H1647 H 0.70304 0.21459 0.31595 0.0
H1648 H 0.84103 0.31909 0.20947 0.0
H1649 H 0.8117 0.29919 0.19742 0.0
N1650 N 0.80441 0.30709 0.24214 0.0
C1651 C 0.82015 0.3189 0.24886 0.0
C1652 C 0.80109 0.30052 0.22375 0.0
C1653 C 0.83085 0.31592 0.21875 0.0
C1654 C 0.81434 0.30459 0.21191 0.0
C1655 C 0.83385 0.32342 0.23733 0.0
H1656 H 0.86069 0.33893 0.23587 0.0
N1657 N 0.80945 0.3221 0.27845 0.0
C1658 C 0.82264 0.32675 0.26734 0.0
C1659 C 0.84094 0.34634 0.29311 0.0
C1660 C 0.83888 0.33886 0.27454 0.0
C1661 C 0.81104 0.3299 0.29628 0.0
C1662 C 0.82689 0.34196 0.30398 0.0
O1663 O 0.75145 0.25723 0.2674 0.0
O1664 O 0.75432 0.28745 0.26168 0.0
O1665 O 0.77411 0.32717 0.27382 0.0
O1666 O 0.77397 0.31871 0.24415 0.0
O1667 O 0.78943 0.26199 0.25848 0.0
O1668 O 0.77464 0.27908 0.24169 0.0
O1669 O 0.80973 0.29331 0.27595 0.0
O1670 O 0.80564 0.26819 0.29281 0.0
O1671 O 0.79215 0.23075 0.2708 0.0
O1672 O 0.78234 0.22853 0.2975 0.0
O1673 O 0.771 0.29207 0.28817 0.0
O1674 O 0.78556 0.27421 0.30453 0.0
C1675 C 0.74453 0.27118 0.26226 0.0
C1676 C 0.77946 0.26367 0.24348 0.0
C1677 C 0.7634 0.34643 0.25118 0.0
C1678 C 0.74575 0.3702 0.25559 0.0
C1679 C 0.75894 0.3656 0.22693 0.0
C1680 C 0.76619 0.35152 0.23349 0.0
C1681 C 0.74874 0.37483 0.23785 0.0
C1682 C 0.7532 0.35598 0.26239 0.0
C1683 C 0.77033 0.33044 0.25676 0.0
C1684 C 0.85255 0.34307 0.26307 0.0
C1685 C 0.85004 0.33541 0.24455 0.0
H1686 H 0.85323 0.35567 0.29913 0.0
C1687 C 0.81609 0.28203 0.2867 0.0
C1688 C 0.78041 0.28957 0.30323 0.0
C1689 C 0.80804 0.21616 0.29288 0.0
C1690 C 0.82726 0.19365 0.29277 0.0
C1691 C 0.83152 0.2174 0.31849 0.0
C1692 C 0.81753 0.22454 0.30998 0.0
C1693 C 0.83628 0.20196 0.31002 0.0
C1694 C 0.81313 0.2008 0.28417 0.0
C1695 C 0.79151 0.22195 0.28529 0.0
H1696 H 0.76109 0.36927 0.21323 0.0
H1697 H 0.77391 0.34449 0.22455 0.0
H1698 H 0.74307 0.38564 0.23239 0.0
H1699 H 0.7507 0.35213 0.27597 0.0
H1700 H 0.83854 0.22372 0.33181 0.0
H1701 H 0.81379 0.23629 0.31702 0.0
H1702 H 0.84707 0.19651 0.3169 0.0
H1703 H 0.8058 0.19412 0.27109 0.0
C1704 C 0.06398 0.49794 0.57396 0.0
C1705 C 0.078 0.52134 0.59889 0.0
C1706 C 0.06461 0.51471 0.5837 0.0
C1707 C 0.09068 0.51085 0.60415 0.0
C1708 C 0.0765 0.48722 0.57943 0.0
C1709 C 0.0899 0.49381 0.59448 0.0
N1710 N 0.05121 0.49215 0.5591 0.0
C1711 C 0.04947 0.47528 0.54991 0.0
C1712 C 0.07516 0.47017 0.56961 0.0
C1713 C 0.06145 0.4641 0.55492 0.0
Gd1714 Gd 0.03338 0.54262 0.5033 0.0
Gd1715 Gd 0.03224 0.5122 0.55108 0.0
N1716 N 0.05251 0.52481 0.57784 0.0
C1717 C 0.07835 0.53839 0.60824 0.0
C1718 C 0.05241 0.54115 0.58742 0.0
C1719 C 0.06538 0.54825 0.60259 0.0
H1720 H 0.04241 0.54888 0.5836 0.0
H1721 H 0.06535 0.56134 0.60991 0.0
H1722 H 0.02156 0.50423 0.4718 0.0
H1723 H 0.03864 0.47024 0.53891 0.0
H1724 H 0.99645 0.49014 0.44851 0.0
H1725 H 0.08846 0.54399 0.61993 0.0
H1726 H 0.10113 0.51577 0.6157 0.0
H1727 H 0.02715 0.58422 0.51416 0.0
H1728 H 0.08448 0.46152 0.57341 0.0
H1729 H 0.06005 0.45079 0.54748 0.0
H1730 H 0.95895 0.53433 0.44448 0.0
H1731 H 0.09972 0.48583 0.59877 0.0
H1732 H 0.97861 0.59102 0.48259 0.0
H1733 H 1.00491 0.60318 0.50624 0.0
N1734 N 0.0137 0.56174 0.49512 0.0
C1735 C 0.99965 0.55497 0.48179 0.0
C1736 C 0.01578 0.57885 0.50378 0.0
C1737 C 0.98842 0.58271 0.48592 0.0
C1738 C 1.00322 0.58961 0.4993 0.0
C1739 C 0.98647 0.56518 0.47698 0.0
H1740 H 0.96143 0.56517 0.45976 0.0
N1741 N 0.01138 0.52826 0.47822 0.0
C1742 C 0.99835 0.53764 0.47319 0.0
C1743 C 0.98288 0.51264 0.4508 0.0
C1744 C 0.98369 0.53004 0.45949 0.0
C1745 C 0.01098 0.51156 0.46907 0.0
C1746 C 0.99671 0.50347 0.45546 0.0
O1747 O 0.06101 0.52576 0.5497 0.0
O1748 O 0.04437 0.53197 0.52701 0.0
O1749 O 0.05356 0.54272 0.48442 0.0
O1750 O 0.05203 0.56759 0.50093 0.0
O1751 O 0.02528 0.54093 0.55419 0.0
O1752 O 0.03685 0.55942 0.53191 0.0
O1753 O 0.0062 0.53621 0.51294 0.0
O1754 O 0.01511 0.51264 0.52428 0.0
O1755 O 0.01132 0.5129 0.5693 0.0
O1756 O 0.01582 0.48732 0.55677 0.0
O1757 O 0.04061 0.51434 0.49875 0.0
O1758 O 0.03374 0.49607 0.52279 0.0
C1759 C 0.0605 0.53382 0.53514 0.0
C1760 C 0.03007 0.55701 0.54796 0.0
C1761 C 0.06057 0.56918 0.47057 0.0
C1762 C 0.07087 0.56941 0.44017 0.0
C1763 C 0.05363 0.59153 0.45077 0.0
C1764 C 0.05234 0.58395 0.46744 0.0
C1765 C 0.06293 0.58433 0.43715 0.0
C1766 C 0.06986 0.56208 0.45692 0.0
C1767 C 0.05911 0.56015 0.48737 0.0
C1768 C 0.97035 0.54002 0.45486 0.0
C1769 C 0.97177 0.55758 0.46354 0.0
H1770 H 0.97183 0.5063 0.44028 0.0
C1771 C 1.00299 0.52271 0.52266 0.0
C1772 C 0.03855 0.49856 0.50588 0.0
C1773 C 0.00625 0.48795 0.58659 0.0
C1774 C 0.99612 0.48973 0.6172 0.0
C1775 C 0.00841 0.46391 0.60588 0.0
C1776 C 0.01097 0.47123 0.5893 0.0
C1777 C 1.00094 0.47304 0.61977 0.0
C1778 C 0.99905 0.49717 0.60066 0.0
C1779 C 0.00752 0.49537 0.5688 0.0
H1780 H 0.04727 0.60287 0.44833 0.0
H1781 H 0.04484 0.58951 0.4777 0.0
H1782 H 0.0636 0.59012 0.42417 0.0
H1783 H 0.07615 0.55061 0.45923 0.0
H1784 H 0.01187 0.45095 0.60783 0.0
H1785 H 0.01639 0.46369 0.57857 0.0
H1786 H 0.99845 0.46678 0.63223 0.0
H1787 H 0.9954 0.51005 0.59858 0.0
C1788 C 0.73328 0.79532 0.23412 0.0
C1789 C 0.71434 0.76769 0.2182 0.0
C1790 C 0.72661 0.77694 0.23338 0.0
C1791 C 0.70911 0.77716 0.20364 0.0
C1792 C 0.72795 0.80492 0.21961 0.0
C1793 C 0.71592 0.79572 0.20433 0.0
N1794 N 0.745 0.8038 0.24902 0.0
C1795 C 0.7513 0.822 0.25065 0.0
C1796 C 0.73484 0.82349 0.22091 0.0
C1797 C 0.74647 0.83208 0.23656 0.0
Gd1798 Gd 0.8018 0.76987 0.27537 0.0
Gd1799 Gd 0.75312 0.78549 0.27132 0.0
N1800 N 0.73238 0.76805 0.2474 0.0
C1801 C 0.70774 0.74919 0.21811 0.0
C1802 C 0.72532 0.75025 0.24782 0.0
C1803 C 0.7131 0.74047 0.2331 0.0
H1804 H 0.72875 0.74365 0.25962 0.0
H1805 H 0.70771 0.72627 0.23341 0.0
H1806 H 0.82121 0.81297 0.29103 0.0
H1807 H 0.75989 0.82886 0.26288 0.0
H1808 H 0.8405 0.82977 0.31868 0.0
H1809 H 0.6983 0.74159 0.2067 0.0
H1810 H 0.69978 0.77027 0.19181 0.0
H1811 H 0.79455 0.72602 0.28247 0.0
H1812 H 0.73112 0.83133 0.21003 0.0
H1813 H 0.75165 0.84648 0.23783 0.0
H1814 H 0.85033 0.78391 0.35726 0.0
H1815 H 0.71173 0.80286 0.19302 0.0
H1816 H 0.82222 0.72257 0.3356 0.0
H1817 H 0.80274 0.70782 0.307 0.0
N1818 N 0.80849 0.75099 0.29745 0.0
C1819 C 0.81947 0.75939 0.31293 0.0
C1820 C 0.80262 0.7327 0.2951 0.0
C1821 C 0.8185 0.73069 0.32497 0.0
C1822 C 0.80744 0.72231 0.30887 0.0
C1823 C 0.82472 0.74942 0.32714 0.0
H1824 H 0.84006 0.75096 0.35412 0.0
N1825 N 0.81925 0.78756 0.30124 0.0
C1826 C 0.82525 0.77812 0.31475 0.0
C1827 C 0.8418 0.80595 0.3322 0.0
C1828 C 0.83644 0.78715 0.33075 0.0
C1829 C 0.82498 0.80577 0.30225 0.0
C1830 C 0.83614 0.81527 0.31783 0.0
O1831 O 0.76313 0.77635 0.24357 0.0
O1832 O 0.78273 0.75691 0.24994 0.0
O1833 O 0.82437 0.78028 0.26007 0.0
O1834 O 0.82239 0.75426 0.27006 0.0
O1835 O 0.75675 0.76007 0.28429 0.0
O1836 O 0.77731 0.74689 0.26929 0.0
O1837 O 0.78988 0.77693 0.30235 0.0
O1838 O 0.77433 0.79866 0.29482 0.0
O1839 O 0.7306 0.77613 0.28743 0.0
O1840 O 0.73832 0.80431 0.28362 0.0
O1841 O 0.79905 0.79474 0.26112 0.0
O1842 O 0.77793 0.80804 0.27496 0.0
C1843 C 0.77272 0.7642 0.23813 0.0
C1844 C 0.76219 0.74567 0.27716 0.0
C1845 C 0.83866 0.75862 0.24405 0.0
C1846 C 0.86316 0.75894 0.22411 0.0
C1847 C 0.83726 0.73393 0.21981 0.0
C1848 C 0.82987 0.74187 0.23448 0.0
C1849 C 0.8538 0.74229 0.21474 0.0
C1850 C 0.85536 0.76727 0.23867 0.0
C1851 C 0.8315 0.76596 0.26084 0.0
C1852 C 0.84176 0.77719 0.34485 0.0
C1853 C 0.8359 0.75842 0.34306 0.0
H1854 H 0.8504 0.81337 0.34428 0.0
C1855 C 0.78141 0.78997 0.30734 0.0
C1856 C 0.79253 0.80908 0.26631 0.0
C1857 C 0.70891 0.79557 0.29309 0.0
C1858 C 0.68287 0.79399 0.31114 0.0
C1859 C 0.68643 0.81416 0.28726 0.0
C1860 C 0.70223 0.80842 0.28316 0.0
C1861 C 0.67691 0.80713 0.3012 0.0
C1862 C 0.69896 0.78817 0.30704 0.0
C1863 C 0.72755 0.79239 0.29115 0.0
H1864 H 0.83034 0.721 0.21258 0.0
H1865 H 0.81747 0.73463 0.23867 0.0
H1866 H 0.85941 0.73563 0.20352 0.0
H1867 H 0.86256 0.77997 0.24623 0.0
H1868 H 0.68169 0.82437 0.27979 0.0
H1869 H 0.70956 0.81455 0.2726 0.0
H1870 H 0.66479 0.81198 0.30426 0.0
H1871 H 0.70404 0.77851 0.31509 0.0
C1872 C 0.8147 0.24397 0.72574 0.0
C1873 C 0.79236 0.23074 0.6995 0.0
C1874 C 0.79849 0.24384 0.71497 0.0
C1875 C 0.80275 0.21774 0.69505 0.0
C1876 C 0.82536 0.23117 0.72106 0.0
C1877 C 0.81923 0.21799 0.70578 0.0
N1878 N 0.8201 0.25667 0.74071 0.0
C1879 C 0.83666 0.2581 0.75067 0.0
C1880 C 0.84195 0.23209 0.7318 0.0
C1881 C 0.84771 0.24576 0.74652 0.0
Gd1882 Gd 0.76942 0.27473 0.79478 0.0
Gd1883 Gd 0.80016 0.27637 0.74686 0.0
N1884 N 0.78847 0.25628 0.71995 0.0
C1885 C 0.77596 0.23108 0.68897 0.0
C1886 C 0.77297 0.25725 0.70915 0.0
C1887 C 0.76634 0.24453 0.69371 0.0
H1888 H 0.76569 0.26789 0.71218 0.0
H1889 H 0.75385 0.24517 0.6854 0.0
H1890 H 0.80599 0.28292 0.82851 0.0
H1891 H 0.84167 0.26898 0.76158 0.0
H1892 H 0.82059 0.30689 0.85288 0.0
H1893 H 0.77076 0.22121 0.67703 0.0
H1894 H 0.79821 0.2075 0.68328 0.0
H1895 H 0.72839 0.28269 0.78331 0.0
H1896 H 0.85054 0.22254 0.72863 0.0
H1897 H 0.86075 0.24689 0.7546 0.0
H1898 H 0.77896 0.34734 0.85576 0.0
H1899 H 0.82717 0.20797 0.70207 0.0
H1900 H 0.72284 0.33103 0.81574 0.0
H1901 H 0.71022 0.3056 0.79136 0.0
N1902 N 0.7509 0.29496 0.80305 0.0
C1903 C 0.7579 0.30852 0.81676 0.0
C1904 C 0.73396 0.29367 0.79405 0.0
C1905 C 0.73081 0.32094 0.81235 0.0
C1906 C 0.72364 0.30662 0.79857 0.0
C1907 C 0.74813 0.32202 0.82166 0.0
H1908 H 0.74872 0.34671 0.83951 0.0
N1909 N 0.7837 0.29535 0.82085 0.0
C1910 C 0.77491 0.30884 0.82582 0.0
C1911 C 0.79948 0.32223 0.84967 0.0
C1912 C 0.78263 0.32273 0.8402 0.0
C1913 C 0.79959 0.29425 0.83094 0.0
C1914 C 0.80784 0.30776 0.84521 0.0
O1915 O 0.78577 0.2479 0.74792 0.0
O1916 O 0.7809 0.26425 0.77147 0.0
O1917 O 0.76895 0.2538 0.81273 0.0
O1918 O 0.74404 0.25645 0.79693 0.0
O1919 O 0.77081 0.28194 0.74324 0.0
O1920 O 0.75243 0.27166 0.76632 0.0
O1921 O 0.7751 0.30169 0.78474 0.0
O1922 O 0.79933 0.29415 0.77316 0.0
O1923 O 0.79914 0.29686 0.72813 0.0
O1924 O 0.82498 0.29177 0.73962 0.0
O1925 O 0.79797 0.26795 0.79893 0.0
O1926 O 0.81654 0.27671 0.77564 0.0
C1927 C 0.77825 0.24833 0.76282 0.0
C1928 C 0.75486 0.27758 0.7499 0.0
C1929 C 0.74271 0.24784 0.82735 0.0
C1930 C 0.74427 0.24054 0.85916 0.0
C1931 C 0.71937 0.25354 0.84642 0.0
C1932 C 0.72659 0.25408 0.82952 0.0
C1933 C 0.72816 0.24686 0.86121 0.0
C1934 C 0.75136 0.24102 0.84217 0.0
C1935 C 0.75138 0.24892 0.81023 0.0
C1936 C 0.77317 0.33649 0.84487 0.0
C1937 C 0.75594 0.33611 0.83564 0.0
H1938 H 0.80589 0.33266 0.86076 0.0
C1939 C 0.78834 0.30545 0.77469 0.0
C1940 C 0.81397 0.27109 0.79223 0.0
C1941 C 0.82262 0.29903 0.7089 0.0
C1942 C 0.82201 0.30984 0.67867 0.0
C1943 C 0.84127 0.28876 0.68639 0.0
C1944 C 0.83522 0.28845 0.70385 0.0
C1945 C 0.83482 0.29954 0.67386 0.0
C1946 C 0.81594 0.30952 0.69616 0.0
C1947 C 0.81658 0.29968 0.72743 0.0
H1948 H 0.70693 0.25832 0.84807 0.0
H1949 H 0.71966 0.25948 0.81831 0.0
H1950 H 0.72219 0.24635 0.87409 0.0
H1951 H 0.76391 0.23639 0.84056 0.0
H1952 H 0.85105 0.28071 0.68261 0.0
H1953 H 0.84049 0.28006 0.71338 0.0
H1954 H 0.83968 0.29971 0.66038 0.0
H1955 H 0.80627 0.31775 0.69998 0.0
C1956 C 0.83355 0.81691 0.80655 0.0
C1957 C 0.85093 0.8307 0.78347 0.0
C1958 C 0.83433 0.82198 0.78869 0.0
C1959 C 0.86652 0.8347 0.79643 0.0
C1960 C 0.84929 0.8208 0.8195 0.0
C1961 C 0.86569 0.82983 0.81439 0.0
N1962 N 0.8175 0.80813 0.81122 0.0
C1963 C 0.81624 0.80331 0.82867 0.0
C1964 C 0.84809 0.81562 0.8373 0.0
C1965 C 0.8315 0.80684 0.84189 0.0
Gd1966 Gd 0.77018 0.7585 0.76293 0.0
Gd1967 Gd 0.79253 0.80636 0.78891 0.0
N1968 N 0.81904 0.81792 0.77629 0.0
C1969 C 0.85144 0.83508 0.76532 0.0
C1970 C 0.81942 0.8226 0.75874 0.0
C1971 C 0.83563 0.83097 0.75291 0.0
H1972 H 0.80731 0.82038 0.74928 0.0
H1973 H 0.83583 0.83454 0.73891 0.0
H1974 H 0.76065 0.73672 0.79974 0.0
H1975 H 0.80335 0.79765 0.83285 0.0
H1976 H 0.73443 0.71881 0.81123 0.0
H1977 H 0.86395 0.84171 0.76078 0.0
H1978 H 0.87933 0.84153 0.79269 0.0
H1979 H 0.75553 0.76609 0.71954 0.0
H1980 H 0.85985 0.81849 0.84765 0.0
H1981 H 0.83035 0.80313 0.85575 0.0
H1982 H 0.68655 0.71287 0.76158 0.0
H1983 H 0.87785 0.83303 0.82421 0.0
H1984 H 0.69994 0.74058 0.70706 0.0
H1985 H 0.72763 0.75872 0.69793 0.0
N1986 N 0.74379 0.75371 0.74155 0.0
C1987 C 0.72882 0.74324 0.74663 0.0
C1988 C 0.74349 0.75904 0.72419 0.0
C1989 C 0.71212 0.74421 0.71686 0.0
C1990 C 0.72769 0.75452 0.71169 0.0
C1991 C 0.71256 0.73833 0.73445 0.0
H1992 H 0.68479 0.72353 0.73082 0.0
N1993 N 0.74581 0.7416 0.77523 0.0
C1994 C 0.72988 0.73696 0.7639 0.0
C1995 C 0.71621 0.71978 0.78692 0.0
C1996 C 0.71462 0.72596 0.7695 0.0
C1997 C 0.74768 0.73467 0.7917 0.0
C1998 C 0.73287 0.72404 0.798 0.0
O1999 O 0.81198 0.78714 0.78141 0.0
O2000 O 0.79754 0.77112 0.75434 0.0
O2001 O 0.78193 0.73485 0.76723 0.0
O2002 O 0.76779 0.73754 0.74015 0.0
O2003 O 0.77769 0.80702 0.76029 0.0
O2004 O 0.77873 0.77974 0.74407 0.0
O2005 O 0.74853 0.77243 0.77513 0.0
O2006 O 0.76202 0.80017 0.79161 0.0
O2007 O 0.79226 0.83438 0.78579 0.0
O2008 O 0.79459 0.82573 0.81315 0.0
O2009 O 0.78514 0.76051 0.79209 0.0
O2010 O 0.77957 0.78646 0.80687 0.0
C2011 C 0.81264 0.77754 0.76545 0.0
C2012 C 0.77713 0.79673 0.74454 0.0
C2013 C 0.78018 0.71069 0.74212 0.0
C2014 C 0.79467 0.68508 0.74532 0.0
C2015 C 0.7795 0.68868 0.71548 0.0
C2016 C 0.77486 0.70447 0.72325 0.0
C2017 C 0.78949 0.67904 0.72643 0.0
C2018 C 0.7899 0.70082 0.75313 0.0
C2019 C 0.77671 0.728 0.75001 0.0
C2020 C 0.69837 0.72134 0.75752 0.0
C2021 C 0.69736 0.72744 0.74002 0.0
H2022 H 0.7048 0.71136 0.79174 0.0
C2023 C 0.74751 0.78746 0.78552 0.0
C2024 C 0.78207 0.76989 0.8072 0.0
C2025 C 0.77802 0.84855 0.80897 0.0
C2026 C 0.75537 0.86628 0.80087 0.0
C2027 C 0.76143 0.8602 0.8327 0.0
C2028 C 0.77457 0.85061 0.82756 0.0
C2029 C 0.75191 0.8681 0.81947 0.0
C2030 C 0.76821 0.85623 0.79571 0.0
C2031 C 0.79205 0.83872 0.8035 0.0
H2032 H 0.77545 0.68397 0.70093 0.0
H2033 H 0.76736 0.71193 0.71444 0.0
H2034 H 0.79299 0.66678 0.72024 0.0
H2035 H 0.79418 0.70558 0.76767 0.0
H2036 H 0.75887 0.86182 0.84704 0.0
H2037 H 0.78206 0.84488 0.83811 0.0
H2038 H 0.74232 0.87611 0.82391 0.0
H2039 H 0.77073 0.85466 0.78133 0.0
C2040 C 0.48728 0.47337 0.49232 0.0
C2041 C 0.47054 0.45853 0.5152 0.0
C2042 C 0.4813 0.47395 0.50973 0.0
C2043 C 0.46627 0.44239 0.50314 0.0
C2044 C 0.48231 0.45736 0.47987 0.0
C2045 C 0.4721 0.44182 0.4855 0.0
N2046 N 0.49688 0.48869 0.4871 0.0
C2047 C 0.50058 0.48919 0.46913 0.0
C2048 C 0.48714 0.45758 0.46186 0.0
C2049 C 0.49608 0.47364 0.4564 0.0
Gd2050 Gd 0.55093 0.53543 0.5354 0.0
Gd2051 Gd 0.50304 0.51426 0.50967 0.0
N2052 N 0.48536 0.48981 0.52104 0.0
C2053 C 0.46394 0.4599 0.53244 0.0
C2054 C 0.47798 0.49151 0.53731 0.0
C2055 C 0.46751 0.47653 0.54345 0.0
H2056 H 0.48005 0.50442 0.5455 0.0
H2057 H 0.46201 0.47788 0.55655 0.0
H2058 H 0.5809 0.54563 0.50445 0.0
H2059 H 0.50672 0.50174 0.46444 0.0
H2060 H 0.60094 0.57251 0.4966 0.0
H2061 H 0.45567 0.44835 0.53714 0.0
H2062 H 0.45808 0.4304 0.50713 0.0
H2063 H 0.54043 0.5472 0.57855 0.0
H2064 H 0.48347 0.44559 0.45189 0.0
H2065 H 0.49928 0.47414 0.4423 0.0
H2066 H 0.59728 0.61918 0.54424 0.0
H2067 H 0.46825 0.42941 0.47615 0.0
H2068 H 0.56288 0.60305 0.59375 0.0
H2069 H 0.54477 0.5744 0.60069 0.0
N2070 N 0.55443 0.56036 0.55814 0.0
C2071 C 0.56521 0.57577 0.55444 0.0
C2072 C 0.54754 0.55967 0.57474 0.0
C2073 C 0.56061 0.59118 0.58366 0.0
C2074 C 0.55033 0.57506 0.5876 0.0
C2075 C 0.56842 0.59164 0.56707 0.0
H2076 H 0.58225 0.61963 0.57258 0.0
N2077 N 0.57135 0.55981 0.52695 0.0
C2078 C 0.5738 0.5755 0.5384 0.0
C2079 C 0.59508 0.59009 0.51919 0.0
C2080 C 0.58567 0.59111 0.53471 0.0
C2081 C 0.58158 0.55844 0.5126 0.0
C2082 C 0.59322 0.57361 0.50825 0.0
O2083 O 0.51381 0.4955 0.52869 0.0
O2084 O 0.54413 0.50444 0.52722 0.0
O2085 O 0.57509 0.52506 0.53174 0.0
O2086 O 0.56955 0.53418 0.55985 0.0
O2087 O 0.50486 0.53057 0.53812 0.0
O2088 O 0.53001 0.52374 0.55331 0.0
O2089 O 0.53386 0.55675 0.52868 0.0
O2090 O 0.51509 0.5426 0.50262 0.0
O2091 O 0.47759 0.52263 0.51333 0.0
O2092 O 0.48489 0.51641 0.48537 0.0
O2093 O 0.54878 0.53555 0.5043 0.0
O2094 O 0.52681 0.51079 0.49347 0.0
C2095 C 0.53035 0.49228 0.53091 0.0
C2096 C 0.51364 0.52714 0.55346 0.0
C2097 C 0.59709 0.52232 0.557 0.0
C2098 C 0.62148 0.50638 0.55214 0.0
C2099 C 0.61894 0.52018 0.58291 0.0
C2100 C 0.60355 0.52623 0.57592 0.0
C2101 C 0.62784 0.51018 0.57111 0.0
C2102 C 0.60621 0.51255 0.54518 0.0
C2103 C 0.58028 0.52728 0.54953 0.0
C2104 C 0.58828 0.60707 0.54692 0.0
C2105 C 0.57972 0.60732 0.56306 0.0
H2106 H 0.60428 0.60179 0.5159 0.0
C2107 C 0.52335 0.55756 0.51326 0.0
C2108 C 0.54096 0.52289 0.49101 0.0
C2109 C 0.45581 0.52483 0.48741 0.0
C2110 C 0.42896 0.53715 0.49163 0.0
C2111 C 0.43265 0.52278 0.46143 0.0
C2112 C 0.44931 0.51934 0.46866 0.0
C2113 C 0.42245 0.53162 0.47286 0.0
C2114 C 0.44569 0.53381 0.49872 0.0
C2115 C 0.47293 0.521 0.49548 0.0
H2116 H 0.62391 0.52317 0.59751 0.0
H2117 H 0.59664 0.53375 0.5853 0.0
H2118 H 0.6398 0.50563 0.5767 0.0
H2119 H 0.60121 0.50928 0.53056 0.0
H2120 H 0.42759 0.51848 0.447 0.0
H2121 H 0.45698 0.5123 0.45969 0.0
H2122 H 0.40946 0.53397 0.46708 0.0
H2123 H 0.45098 0.53843 0.51308 0.0
C2124 C 0.07236 0.57054 1.00144 0.0
C2125 C 0.09478 0.58794 0.02589 0.0
C2126 C 0.08171 0.57228 0.01916 0.0
C2127 C 0.09809 0.60202 0.01477 0.0
C2128 C 0.07616 0.58447 0.99005 0.0
C2129 C 0.08879 0.60031 0.99693 0.0
N2130 N 0.06038 0.55491 0.99498 0.0
C2131 C 0.05343 0.55173 0.97668 0.0
C2132 C 0.06765 0.58184 0.97182 0.0
C2133 C 0.05649 0.56527 0.96503 0.0
Gd2134 Gd 0.0066 0.52997 0.03413 0.0
Gd2135 Gd 0.05686 0.53329 0.01617 0.0
N2136 N 0.07807 0.5586 0.02983 0.0
C2137 C 0.10428 0.58888 0.04354 0.0
C2138 C 0.08774 0.55907 0.04671 0.0
C2139 C 0.10084 0.57432 0.05393 0.0
H2140 H 0.08525 0.54766 0.05453 0.0
H2141 H 0.10833 0.57482 0.06745 0.0
H2142 H 0.98224 0.51457 0.9929 0.0
H2143 H 0.04608 0.5386 0.97066 0.0
H2144 H 0.95924 0.48784 0.97919 0.0
H2145 H 0.11446 0.60067 0.04918 0.0
H2146 H 0.10801 0.6142 0.01974 0.0
H2147 H 0.01648 0.52443 0.07943 0.0
H2148 H 0.07022 0.5922 0.96265 0.0
H2149 H 0.05061 0.56275 0.95067 0.0
H2150 H 0.9502 0.45214 0.02954 0.0
H2151 H 0.09178 0.61115 0.98838 0.0
H2152 H 0.98493 0.47392 0.0884 0.0
H2153 H 0.00761 0.50156 0.10013 0.0
N2154 N 1.00018 0.50928 0.05552 0.0
C2155 C 0.98702 0.49456 0.04893 0.0
C2156 C 0.00717 0.51213 0.07377 0.0
C2157 C 0.98901 0.48379 0.07906 0.0
C2158 C 1.0019 0.49932 0.08572 0.0
C2159 C 0.98127 0.48132 0.06054 0.0
H2160 H 0.96343 0.45578 0.06212 0.0
N2161 N 0.9854 0.50523 0.01924 0.0
C2162 C 0.97936 0.49254 0.0304 0.0
C2163 C 0.95891 0.47547 0.00456 0.0
C2164 C 0.96606 0.47719 0.02324 0.0
C2165 C 0.97816 0.5039 1.00121 0.0
C2166 C 0.96492 0.48892 0.99354 0.0
O2167 O 0.0512 0.55835 0.03373 0.0
O2168 O 0.0208 0.55679 0.02584 0.0
O2169 O 0.98013 0.53753 0.02776 0.0
O2170 O 0.99514 0.54416 0.05567 0.0
O2171 O 0.04877 0.52119 0.0416 0.0
O2172 O 0.03079 0.53838 0.05538 0.0
O2173 O 0.01501 0.50248 0.02604 0.0
O2174 O 0.03841 0.50584 0.00729 0.0
O2175 O 0.07924 0.51938 0.02474 0.0
O2176 O 0.07463 0.52685 0.99668 0.0
O2177 O 0.01283 0.54041 0.00754 0.0
O2178 O 0.03272 0.52479 0.99492 0.0
C2179 C 0.03697 0.56623 0.03251 0.0
C2180 C 0.04492 0.53068 0.05603 0.0
C2181 C 0.96594 0.55304 0.05176 0.0
C2182 C 0.94173 0.57028 0.0481 0.0
C2183 C 0.94943 0.55967 0.07766 0.0
C2184 C 0.96288 0.5519 0.07031 0.0
C2185 C 0.939 0.56888 0.06671 0.0
C2186 C 0.95509 0.56206 0.04048 0.0
C2187 C 0.98062 0.54487 0.04473 0.0
C2188 C 0.96041 0.46402 0.03482 0.0
C2189 C 0.96797 0.46608 0.05339 0.0
H2190 H 0.94866 0.46387 0.99856 0.0
C2191 C 0.02545 0.49564 0.0147 0.0
C2192 C 0.018 0.53148 0.99357 0.0
C2193 C 0.09964 0.51177 1.00169 0.0
C2194 C 0.1244 0.4954 0.00595 0.0
C2195 C 0.11766 0.50657 0.97653 0.0
C2196 C 0.10363 0.51367 0.98343 0.0
C2197 C 0.12802 0.49754 0.9877 0.0
C2198 C 0.11006 0.50242 0.01297 0.0
C2199 C 0.08426 0.51928 0.00811 0.0
H2200 H 0.94716 0.55867 0.09198 0.0
H2201 H 0.97089 0.54491 0.07916 0.0
H2202 H 0.92874 0.57499 0.07278 0.0
H2203 H 0.95736 0.56314 0.02616 0.0
H2204 H 0.12049 0.50806 0.96244 0.0
H2205 H 0.09584 0.52063 0.97432 0.0
H2206 H 0.13884 0.49205 0.98202 0.0
H2207 H 0.10715 0.50069 0.027 0.0
H2208 H 0.00657 0.20088 0.92666 0.0
H2209 H 0.01018 0.17189 0.93761 0.0
H2210 H 0.01294 0.19554 0.99408 0.0
H2211 H 0.0096 0.2245 0.98324 0.0
H2212 H 0.0381 0.16171 0.96127 0.0
H2213 H 0.97391 0.14977 0.9929 0.0
H2214 H 0.9785 0.16625 0.97684 0.0
H2215 H 0.98824 0.17139 1.00067 0.0
C2216 C 0.0079 0.19997 0.94143 0.0
C2217 C 0.00768 0.21535 0.95394 0.0
C2218 C 0.01004 0.18325 0.94775 0.0
C2219 C 0.01164 0.18103 0.96683 0.0
C2220 C 0.01147 0.19641 0.97931 0.0
H2221 H 0.03127 0.09136 0.03241 0.0
H2222 H 0.02862 0.12078 0.02199 0.0
C2223 C 0.00963 0.21318 0.97302 0.0
C2224 C 0.01361 0.16289 0.97367 0.0
H2225 H 0.99401 0.1299 0.99896 0.0
C2226 C 0.02835 0.15481 0.96943 0.0
C2227 C 1.00108 0.15345 0.98445 0.0
C2228 C 0.98444 0.16051 0.98889 0.0
C2229 C 0.03096 0.13817 0.97577 0.0
C2230 C 0.01848 0.12882 0.98658 0.0
C2231 C 1.00376 0.13685 0.99082 0.0
C2232 C 0.02031 0.1106 0.99313 0.0
C2233 C 0.04736 0.13075 0.97118 0.0
C2234 C 0.01658 0.09462 0.98064 0.0
C2235 C 0.01789 0.07763 0.98664 0.0
C2236 C 0.02321 0.07586 0.0054 0.0
C2237 C 0.02716 0.09191 0.01788 0.0
C2238 C 0.02559 0.10889 0.01189 0.0
H2239 H 0.05711 0.14057 0.96493 0.0
H2240 H 0.05439 0.12699 0.98388 0.0
H2241 H 0.04298 0.11833 0.96123 0.0
H2242 H 0.01246 0.09524 0.96612 0.0
H2243 H 0.01479 0.06582 0.97645 0.0
H2244 H 0.1209 0.78593 0.11896 0.0
H2245 H 0.14955 0.78444 0.13745 0.0
H2246 H 0.12884 0.80345 0.18699 0.0
H2247 H 0.10045 0.80503 0.16876 0.0
H2248 H 0.17545 0.81134 0.16177 0.0
H2249 H 0.14438 0.75694 0.20089 0.0
H2250 H 0.1329 0.76244 0.17995 0.0
H2251 H 0.13354 0.77609 0.20164 0.0
C2252 C 0.12252 0.79 0.13375 0.0
C2253 C 0.10821 0.79566 0.14223 0.0
C2254 C 0.13894 0.78907 0.14438 0.0
C2255 C 0.14143 0.79351 0.1638 0.0
C2256 C 0.12732 0.79958 0.17216 0.0
H2257 H 0.22359 0.79398 0.25693 0.0
H2258 H 0.19681 0.79547 0.23627 0.0
C2259 C 0.11104 0.80063 0.16159 0.0
C2260 C 0.15863 0.7919 0.17541 0.0
H2261 H 0.17469 0.77144 0.21176 0.0
C2262 C 0.17529 0.80248 0.17259 0.0
C2263 C 0.15862 0.78047 0.18971 0.0
C2264 C 0.14145 0.7682 0.19318 0.0
C2265 C 0.19162 0.80238 0.18388 0.0
C2266 C 0.19162 0.79097 0.19824 0.0
C2267 C 0.17495 0.78024 0.20089 0.0
C2268 C 0.20854 0.79023 0.21092 0.0
C2269 C 0.20859 0.81513 0.18074 0.0
C2270 C 0.22445 0.78673 0.20395 0.0
C2271 C 0.24 0.78585 0.21597 0.0
C2272 C 0.24011 0.78808 0.23543 0.0
C2273 C 0.22419 0.79171 0.24227 0.0
C2274 C 0.20871 0.79268 0.2303 0.0
H2275 H 0.20539 0.82655 0.17345 0.0
H2276 H 0.2171 0.82072 0.19403 0.0
H2277 H 0.21663 0.80772 0.17195 0.0
H2278 H 0.22481 0.78435 0.18914 0.0
H2279 H 0.25182 0.78301 0.20991 0.0
H2280 H 0.4956 0.83554 0.43333 0.0
H2281 H 0.4987 0.86545 0.44941 0.0
H2282 H 0.52471 0.8488 0.49811 0.0
H2283 H 0.52109 0.81781 0.48191 0.0
H2284 H 0.48556 0.87726 0.48423 0.0
H2285 H 0.56044 0.89594 0.48617 0.0
H2286 H 0.54714 0.87743 0.47029 0.0
H2287 H 0.55087 0.87505 0.49447 0.0
C2288 C 0.50175 0.83781 0.44758 0.0
C2289 C 0.50787 0.82369 0.45616 0.0
C2290 C 0.50359 0.85526 0.45681 0.0
C2291 C 0.51206 0.8598 0.47503 0.0
C2292 C 0.51818 0.84587 0.48398 0.0
H2293 H 0.54548 0.97211 0.53167 0.0
H2294 H 0.54135 0.93943 0.52312 0.0
C2295 C 0.51598 0.82801 0.47473 0.0
C2296 C 0.51424 0.87917 0.484 0.0
H2297 H 0.5453 0.91885 0.49585 0.0
C2298 C 0.49868 0.88628 0.48699 0.0
C2299 C 0.53124 0.89124 0.48763 0.0
C2300 C 0.54846 0.88471 0.48445 0.0
C2301 C 0.49959 0.90474 0.49344 0.0
C2302 C 0.51656 0.9171 0.49635 0.0
C2303 C 0.53218 0.90983 0.49366 0.0
C2304 C 0.51849 0.9374 0.50215 0.0
C2305 C 0.48219 0.91053 0.49746 0.0
C2306 C 0.50715 0.94788 0.4935 0.0
C2307 C 0.50914 0.96664 0.49895 0.0
C2308 C 0.52299 0.97583 0.51275 0.0
C2309 C 0.53457 0.96555 0.52109 0.0
C2310 C 0.53225 0.94672 0.51606 0.0
H2311 H 0.4722 0.89908 0.50107 0.0
H2312 H 0.48455 0.9216 0.50906 0.0
H2313 H 0.47601 0.91524 0.48487 0.0
H2314 H 0.49691 0.94168 0.48218 0.0
H2315 H 0.50025 0.9741 0.49182 0.0
H2316 H 0.50463 0.25809 0.64391 0.0
H2317 H 0.47952 0.25725 0.66299 0.0
H2318 H 0.47828 0.31273 0.65567 0.0
H2319 H 0.50325 0.31342 0.6363 0.0
H2320 H 0.47552 0.27712 0.69568 0.0
H2321 H 0.42583 0.28829 0.63878 0.0
H2322 H 0.44742 0.2828 0.6346 0.0
H2323 H 0.44614 0.30532 0.64373 0.0
C2324 C 0.49914 0.27016 0.64661 0.0
C2325 C 0.50599 0.28587 0.6388 0.0
C2326 C 0.48473 0.26968 0.65746 0.0
C2327 C 0.47669 0.28483 0.66062 0.0
C2328 C 0.48391 0.30072 0.6532 0.0
H2329 H 0.39524 0.29121 0.73956 0.0
H2330 H 0.4205 0.29972 0.72112 0.0
C2331 C 0.49832 0.30119 0.6423 0.0
C2332 C 0.46069 0.28375 0.67145 0.0
H2333 H 0.41546 0.28548 0.66807 0.0
C2334 C 0.46245 0.2791 0.68965 0.0
C2335 C 0.44349 0.28624 0.66367 0.0
C2336 C 0.44046 0.2908 0.64408 0.0
C2337 C 0.44761 0.27675 0.70011 0.0
C2338 C 0.43043 0.27902 0.69225 0.0
C2339 C 0.42864 0.28385 0.67415 0.0
C2340 C 0.414 0.27505 0.70223 0.0
C2341 C 0.45022 0.27134 0.71939 0.0
C2342 C 0.40167 0.25857 0.69752 0.0
C2343 C 0.38739 0.25366 0.70811 0.0
C2344 C 0.38489 0.26523 0.72348 0.0
C2345 C 0.39669 0.28212 0.72767 0.0
C2346 C 0.41118 0.28694 0.7172 0.0
H2347 H 0.46404 0.26874 0.72302 0.0
H2348 H 0.44792 0.28226 0.72959 0.0
H2349 H 0.44012 0.25899 0.72065 0.0
H2350 H 0.40353 0.24916 0.68607 0.0
H2351 H 0.37859 0.24052 0.70464 0.0
H2352 H 0.00686 0.78787 0.64186 0.0
H2353 H 1.00607 0.81196 0.62168 0.0
H2354 H 0.03747 0.8508 0.66517 0.0
H2355 H 0.03818 0.82706 0.68546 0.0
H2356 H 0.99624 0.85341 0.63627 0.0
H2357 H 0.062 0.8477 0.6102 0.0
H2358 H 0.04699 0.82841 0.61658 0.0
H2359 H 0.0597 0.84528 0.63425 0.0
C2360 C 0.01357 0.80154 0.64717 0.0
C2361 C 0.02258 0.80543 0.66538 0.0
C2362 C 0.01304 0.81531 0.63562 0.0
C2363 C 0.02165 0.83322 0.64193 0.0
C2364 C 0.03063 0.83713 0.66003 0.0
H2365 H 0.0523 0.93664 0.60434 0.0
H2366 H 0.04362 0.91111 0.62197 0.0
C2367 C 0.03102 0.82347 0.67163 0.0
C2368 C 0.02192 0.84787 0.62961 0.0
H2369 H 0.04911 0.87245 0.60249 0.0
C2370 C 0.00767 0.85743 0.62868 0.0
C2371 C 0.03684 0.85315 0.61974 0.0
C2372 C 0.0523 0.84314 0.62007 0.0
C2373 C 0.00825 0.87242 0.61849 0.0
C2374 C 0.02344 0.87802 0.6091 0.0
C2375 C 0.03746 0.86818 0.60971 0.0
C2376 C 0.02567 0.89461 0.59936 0.0
C2377 C 0.99292 0.88259 0.61823 0.0
C2378 C 0.01794 0.89415 0.58094 0.0
C2379 C 0.0228 0.90887 0.57085 0.0
C2380 C 0.03542 0.92432 0.57903 0.0
C2381 C 0.04219 0.92514 0.59782 0.0
C2382 C 0.03739 0.91046 0.60784 0.0
H2383 H 0.98205 0.87664 0.6263 0.0
H2384 H 0.9982 0.89687 0.62407 0.0
H2385 H 0.987 0.8826 0.6037 0.0
H2386 H 0.00899 0.88201 0.57404 0.0
H2387 H 0.01779 0.90762 0.55627 0.0
H2388 H 0.47892 0.8069 0.87167 0.0
H2389 H 0.44733 0.80244 0.85883 0.0
H2390 H 0.46295 0.79474 0.80375 0.0
H2391 H 0.49397 0.79543 0.81721 0.0
H2392 H 0.42622 0.81556 0.84281 0.0
H2393 H 0.4229 0.75719 0.79009 0.0
H2394 H 0.44276 0.76531 0.80646 0.0
H2395 H 0.43909 0.7762 0.78577 0.0
C2396 C 0.47568 0.80414 0.85676 0.0
C2397 C 0.48963 0.80254 0.84553 0.0
C2398 C 0.45729 0.80168 0.84925 0.0
C2399 C 0.45174 0.7979 0.82995 0.0
C2400 C 0.46587 0.7968 0.81865 0.0
H2401 H 0.34166 0.80476 0.77626 0.0
H2402 H 0.37433 0.80961 0.78647 0.0
C2403 C 0.48417 0.79818 0.82634 0.0
C2404 C 0.43146 0.7953 0.82225 0.0
H2405 H 0.39744 0.77103 0.78925 0.0
C2406 C 0.42021 0.80558 0.83119 0.0
C2407 C 0.42264 0.78241 0.80691 0.0
C2408 C 0.43243 0.76955 0.79689 0.0
C2409 C 0.40126 0.80334 0.82564 0.0
C2410 C 0.39277 0.7909 0.81017 0.0
C2411 C 0.40378 0.78074 0.801 0.0
C2412 C 0.37247 0.78794 0.8038 0.0
C2413 C 0.39016 0.81406 0.83664 0.0
C2414 C 0.36005 0.77414 0.80995 0.0
C2415 C 0.34119 0.7714 0.80419 0.0
C2416 C 0.33387 0.78234 0.79199 0.0
C2417 C 0.3464 0.79614 0.78581 0.0
C2418 C 0.36529 0.79889 0.7916 0.0
H2419 H 0.3985 0.82317 0.84843 0.0
H2420 H 0.38332 0.82224 0.82746 0.0
H2421 H 0.37941 0.80468 0.84215 0.0
H2422 H 0.36495 0.76545 0.81937 0.0
H2423 H 0.33229 0.76068 0.80947 0.0
H2424 H 0.50229 0.18324 0.17541 0.0
H2425 H 0.50578 0.15656 0.15509 0.0
H2426 H 0.52309 0.19087 0.11378 0.0
H2427 H 0.52172 0.2173 0.13485 0.0
H2428 H 0.4911 0.13978 0.12411 0.0
H2429 H 0.5616 0.16444 0.1109 0.0
H2430 H 0.55106 0.17661 0.12768 0.0
H2431 H 0.54717 0.17913 0.10333 0.0
C2432 C 0.50698 0.18504 0.16204 0.0
C2433 C 0.51104 0.20248 0.15654 0.0
C2434 C 0.50893 0.16972 0.1503 0.0
C2435 C 0.51509 0.17135 0.13273 0.0
C2436 C 0.51899 0.18885 0.12733 0.0
H2437 H 0.53564 0.09586 0.04096 0.0
H2438 H 0.53085 0.12186 0.06091 0.0
C2439 C 0.51761 0.2041 0.13926 0.0
C2440 C 0.51716 0.15489 0.12006 0.0
H2441 H 0.54549 0.13832 0.09169 0.0
C2442 C 0.50311 0.1395 0.11719 0.0
C2443 C 0.53271 0.15417 0.11064 0.0
C2444 C 0.54904 0.16941 0.11344 0.0
C2445 C 0.50393 0.12387 0.10521 0.0
C2446 C 0.51946 0.12316 0.09579 0.0
C2447 C 0.53349 0.13858 0.09864 0.0
C2448 C 0.52161 0.10676 0.08306 0.0
C2449 C 0.4877 0.10854 0.10245 0.0
C2450 C 0.51819 0.0892 0.08843 0.0
C2451 C 0.52016 0.07409 0.07655 0.0
C2452 C 0.52645 0.07591 0.05908 0.0
C2453 C 0.53041 0.09356 0.05396 0.0
C2454 C 0.52787 0.10863 0.06561 0.0
H2455 H 0.47511 0.1134 0.10514 0.0
H2456 H 0.48566 0.10142 0.08817 0.0
H2457 H 0.48975 0.09877 0.11244 0.0
H2458 H 0.51414 0.08708 0.10198 0.0
H2459 H 0.51685 0.06091 0.08125 0.0
H2460 H 0.09376 0.33158 0.3276 0.0
H2461 H 0.12284 0.32739 0.31735 0.0
H2462 H 0.11849 0.27774 0.34201 0.0
H2463 H 0.08954 0.28209 0.35278 0.0
H2464 H 0.1571 0.32052 0.34187 0.0
H2465 H 0.12785 0.26629 0.28448 0.0
H2466 H 0.11497 0.28244 0.29317 0.0
H2467 H 0.11931 0.26483 0.30662 0.0
C2468 C 0.09895 0.31978 0.33103 0.0
C2469 C 0.08902 0.30729 0.34127 0.0
C2470 C 0.11574 0.31738 0.32508 0.0
C2471 C 0.12318 0.30217 0.32868 0.0
C2472 C 0.1133 0.28962 0.33887 0.0
H2473 H 0.21712 0.25998 0.2904 0.0
H2474 H 0.18851 0.26417 0.30137 0.0
C2475 C 0.09665 0.2922 0.34517 0.0
C2476 C 0.14115 0.29955 0.32191 0.0
H2477 H 0.15965 0.27471 0.28952 0.0
C2478 C 0.15759 0.31051 0.33038 0.0
C2479 C 0.14221 0.28641 0.30703 0.0
C2480 C 0.12521 0.2743 0.29713 0.0
C2481 C 0.17472 0.30857 0.32472 0.0
C2482 C 0.17583 0.29573 0.30946 0.0
C2483 C 0.15929 0.2847 0.30107 0.0
C2484 C 0.19383 0.29329 0.3023 0.0
C2485 C 0.19153 0.31995 0.33582 0.0
C2486 C 0.20693 0.30804 0.29856 0.0
C2487 C 0.22364 0.30564 0.2923 0.0
C2488 C 0.22792 0.28834 0.28916 0.0
C2489 C 0.21464 0.27357 0.29249 0.0
C2490 C 0.19803 0.27598 0.29886 0.0
H2491 H 0.18898 0.32426 0.35015 0.0
H2492 H 0.20287 0.31252 0.33668 0.0
H2493 H 0.19575 0.33233 0.32912 0.0
H2494 H 0.20423 0.32156 0.3003 0.0
H2495 H 0.23321 0.31745 0.28988 0.0
H2496 H 0.95132 0.99008 0.20803 0.0
H2497 H 0.96416 0.99262 0.1785 0.0
H2498 H 0.95084 0.04532 0.17694 0.0
H2499 H 0.93815 0.04278 0.20661 0.0
H2500 H 0.95019 0.99644 0.14373 0.0
H2501 H 1.00378 0.05646 0.1693 0.0
H2502 H 0.99062 0.04374 0.1847 0.0
H2503 H 0.98138 0.06 0.17232 0.0
C2504 C 0.95109 1.00217 0.20133 0.0
C2505 C 0.94371 0.01621 0.20965 0.0
C2506 C 0.95845 1.00364 0.1844 0.0
C2507 C 0.95887 0.01931 0.17541 0.0
C2508 C 0.95115 0.03323 0.18362 0.0
H2509 H 0.98784 0.0429 0.06484 0.0
H2510 H 0.97426 0.04133 0.09409 0.0
C2511 C 0.94372 0.03172 0.20054 0.0
C2512 C 0.9673 0.02095 0.15752 0.0
H2513 H 0.99995 0.04719 0.13686 0.0
C2514 C 0.96107 0.00756 0.14232 0.0
C2515 C 0.9817 0.03532 0.15545 0.0
C2516 C 0.98992 0.04961 0.17134 0.0
C2517 C 0.96853 0.00834 0.1253 0.0
C2518 C 0.98267 0.02282 0.1232 0.0
C2519 C 0.98901 0.03615 0.13834 0.0
C2520 C 0.99121 0.02407 0.10547 0.0
C2521 C 0.96129 0.99366 0.10951 0.0
C2522 C 1.0054 0.01502 0.10205 0.0
C2523 C 0.01331 0.01604 0.0854 0.0
C2524 C 0.00715 0.026 0.07159 0.0
C2525 C 0.99293 0.03506 0.07507 0.0
C2526 C 0.98514 0.03419 0.09183 0.0
H2527 H 0.94958 0.98381 0.11285 0.0
H2528 H 0.95704 0.99971 0.09694 0.0
H2529 H 0.9722 0.98634 0.10613 0.0
H2530 H 0.01032 0.00709 0.11227 0.0
H2531 H 0.02412 0.00877 0.08322 0.0
H2532 H 0.28273 0.67685 0.50915 0.0
H2533 H 0.28705 0.69691 0.48496 0.0
H2534 H 0.261 0.65304 0.44347 0.0
H2535 H 0.25651 0.63286 0.46738 0.0
H2536 H 0.30456 0.68907 0.44818 0.0
H2537 H 0.23257 0.69732 0.44199 0.0
H2538 H 0.2437 0.69103 0.46272 0.0
H2539 H 0.23638 0.67467 0.44271 0.0
C2540 C 0.27796 0.67146 0.49487 0.0
C2541 C 0.26929 0.65329 0.49011 0.0
C2542 C 0.28056 0.68288 0.48115 0.0
C2543 C 0.2744 0.67626 0.46264 0.0
C2544 C 0.26587 0.65819 0.4578 0.0
H2545 H 0.25989 0.71278 0.35841 0.0
H2546 H 0.27112 0.69608 0.38267 0.0
C2547 C 0.26332 0.64675 0.47145 0.0
C2548 C 0.27594 0.68837 0.4483 0.0
H2549 H 0.25029 0.70842 0.41912 0.0
C2550 C 0.29281 0.69351 0.44186 0.0
C2551 C 0.26049 0.69399 0.44036 0.0
C2552 C 0.24225 0.68912 0.44733 0.0
C2553 C 0.29445 0.70389 0.42704 0.0
C2554 C 0.27886 0.70902 0.4188 0.0
C2555 C 0.26214 0.70421 0.42556 0.0
C2556 C 0.2791 0.71956 0.40311 0.0
C2557 C 0.31253 0.70907 0.41998 0.0
C2558 C 0.28056 0.73825 0.40664 0.0
C2559 C 0.27384 0.74769 0.39301 0.0
C2560 C 0.26577 0.73846 0.3758 0.0
C2561 C 0.26606 0.72008 0.37167 0.0
C2562 C 0.27262 0.71061 0.38537 0.0
H2563 H 0.32347 0.70426 0.42819 0.0
H2564 H 0.31158 0.70328 0.40527 0.0
H2565 H 0.3162 0.72399 0.42046 0.0
H2566 H 0.28532 0.74519 0.42041 0.0
H2567 H 0.27392 0.76194 0.39625 0.0
H2568 H 0.64412 1.00295 0.69854 0.0
H2569 H 0.62553 1.00237 0.66894 0.0
H2570 H 0.64332 0.0601 0.67093 0.0
H2571 H 0.66299 0.06032 0.69953 0.0
H2572 H 0.59806 0.01825 0.66679 0.0
H2573 H 0.64443 0.04647 0.61772 0.0
H2574 H 0.65276 0.03963 0.6394 0.0
H2575 H 0.64618 0.06122 0.63877 0.0
C2576 C 0.64459 0.01528 0.69208 0.0
C2577 C 0.65505 0.03159 0.7008 0.0
C2578 C 0.63395 0.01502 0.67537 0.0
C2579 C 0.63322 0.03118 0.66769 0.0
C2580 C 0.64416 0.04741 0.67624 0.0
H2581 H 0.549 0.05136 0.58711 0.0
H2582 H 0.56911 0.05294 0.61588 0.0
C2583 C 0.65532 0.04754 0.69256 0.0
C2584 C 0.61938 0.03132 0.65216 0.0
H2585 H 0.61277 0.04391 0.60886 0.0
C2586 C 0.60132 0.02376 0.65408 0.0
C2587 C 0.62368 0.03885 0.63577 0.0
C2588 C 0.64285 0.04685 0.63272 0.0
C2589 C 0.58747 0.02307 0.63979 0.0
C2590 C 0.59187 0.03035 0.62346 0.0
C2591 C 0.60971 0.0384 0.62163 0.0
C2592 C 0.57834 0.02842 0.60746 0.0
C2593 C 0.56831 0.01422 0.64188 0.0
C2594 C 0.57687 0.01388 0.59373 0.0
C2595 C 0.56551 0.01292 0.5774 0.0
C2596 C 0.55555 0.02649 0.57478 0.0
C2597 C 0.5564 0.0406 0.58898 0.0
C2598 C 0.56789 0.04161 0.60528 0.0
H2599 H 0.56703 0.00976 0.65584 0.0
H2600 H 0.55907 0.02376 0.63943 0.0
H2601 H 0.56378 1.0023 0.63127 0.0
H2602 H 0.58497 1.00364 0.59544 0.0
H2603 H 0.56497 1.00193 0.56658 0.0
H2604 H 0.25906 0.36255 0.96954 0.0
H2605 H 0.25636 0.34572 0.93859 0.0
H2606 H 0.31198 0.33969 0.94877 0.0
H2607 H 0.31417 0.35542 0.98005 0.0
H2608 H 0.27174 0.3541 0.91044 0.0
H2609 H 0.29251 0.29044 0.92534 0.0
H2610 H 0.28783 0.30623 0.94343 0.0
H2611 H 0.30965 0.30958 0.93485 0.0
C2612 C 0.27046 0.35702 0.96535 0.0
C2613 C 0.28665 0.35985 0.9774 0.0
C2614 C 0.26901 0.34753 0.94755 0.0
C2615 C 0.28384 0.34097 0.94113 0.0
C2616 C 0.30003 0.34383 0.95333 0.0
H2617 H 0.30822 0.29678 0.83275 0.0
H2618 H 0.30898 0.30855 0.86534 0.0
C2619 C 0.30133 0.35294 0.97129 0.0
C2620 C 0.28279 0.33254 0.92133 0.0
H2621 H 0.29241 0.297 0.89392 0.0
C2622 C 0.27609 0.34149 0.90693 0.0
C2623 C 0.28854 0.3161 0.91641 0.0
C2624 C 0.29485 0.30495 0.93084 0.0
C2625 C 0.27535 0.33485 0.88806 0.0
C2626 C 0.28127 0.31853 0.88313 0.0
C2627 C 0.28793 0.30952 0.8975 0.0
C2628 C 0.28069 0.31065 0.86324 0.0
C2629 C 0.2687 0.34582 0.87361 0.0
C2630 C 0.26454 0.30736 0.851 0.0
C2631 C 0.26426 0.3009 0.83225 0.0
C2632 C 0.27998 0.29701 0.82518 0.0
C2633 C 0.29592 0.29952 0.83759 0.0
C2634 C 0.29631 0.30632 0.85632 0.0
H2635 H 0.26999 0.36018 0.87925 0.0
H2636 H 0.27629 0.34528 0.86136 0.0
H2637 H 0.25413 0.34033 0.86897 0.0
H2638 H 0.25207 0.30984 0.85591 0.0
H2639 H 0.2516 0.29886 0.82325 0.0
H2640 H 0.93701 0.04007 0.32967 0.0
H2641 H 0.95356 0.04229 0.36056 0.0
H2642 H 0.9779 0.99756 0.34238 0.0
H2643 H 0.96189 0.99595 0.3111 0.0
H2644 H 0.94932 0.01874 0.38393 0.0
H2645 H 0.02147 0.02858 0.37174 0.0
H2646 H 1.00383 0.03078 0.35409 0.0
H2647 H 0.00772 0.0088 0.35851 0.0
C2648 C 0.94638 0.03111 0.3321 0.0
C2649 C 0.94841 0.01808 0.31781 0.0
C2650 C 0.95575 0.03227 0.34987 0.0
C2651 C 0.96724 0.02022 0.35405 0.0
C2652 C 0.96962 0.00741 0.33961 0.0
H2653 H 0.02361 1.00221 0.46049 0.0
H2654 H 0.01144 1.00049 0.42786 0.0
C2655 C 0.96045 0.00648 0.32164 0.0
C2656 C 0.97531 0.02027 0.3738 0.0
H2657 H 0.01492 0.0223 0.40191 0.0
C2658 C 0.96371 0.01962 0.38779 0.0
C2659 C 0.99406 0.02119 0.3791 0.0
C2660 C 0.00753 0.02255 0.36511 0.0
C2661 C 0.97015 0.01979 0.40662 0.0
C2662 C 0.98895 0.02103 0.41199 0.0
C2663 C 1.00055 0.0214 0.39799 0.0
C2664 C 0.99677 0.02222 0.43199 0.0
C2665 C 0.95651 0.01819 0.42046 0.0
C2666 C 0.99311 0.03524 0.4454 0.0
C2667 C 0.99959 0.03582 0.46419 0.0
C2668 C 0.0104 0.02373 0.47019 0.0
C2669 C 0.01494 0.01137 0.45663 0.0
C2670 C 0.00808 0.01051 0.43783 0.0
H2671 H 0.94279 0.01143 0.41377 0.0
H2672 H 0.9605 0.0105 0.43185 0.0
H2673 H 0.95553 0.03191 0.42653 0.0
H2674 H 0.98517 0.04503 0.44139 0.0
H2675 H 0.99616 0.0459 0.47403 0.0
H2676 H 0.29596 0.6837 0.58595 0.0
H2677 H 0.29636 0.70134 0.61568 0.0
H2678 H 0.26666 0.65471 0.63641 0.0
H2679 H 0.26596 0.63673 0.60643 0.0
H2680 H 0.25643 0.69835 0.63519 0.0
H2681 H 0.32032 0.68457 0.67089 0.0
H2682 H 0.31783 0.68496 0.64608 0.0
H2683 H 0.30434 0.66716 0.65598 0.0
C2684 C 0.28976 0.67707 0.59689 0.0
C2685 C 0.28091 0.65889 0.59397 0.0
C2686 C 0.28991 0.68719 0.61373 0.0
C2687 C 0.28137 0.6792 0.62782 0.0
C2688 C 0.27317 0.66091 0.62539 0.0
H2689 H 0.28627 0.72479 0.73876 0.0
H2690 H 0.28488 0.70601 0.71005 0.0
C2691 C 0.27297 0.65071 0.60844 0.0
C2692 C 0.2812 0.69036 0.64506 0.0
H2693 H 0.30766 0.7075 0.68533 0.0
C2694 C 0.26743 0.70028 0.64637 0.0
C2695 C 0.29569 0.69265 0.65922 0.0
C2696 C 0.31045 0.68179 0.65815 0.0
C2697 C 0.26784 0.71275 0.66185 0.0
C2698 C 0.28274 0.71554 0.67579 0.0
C2699 C 0.29642 0.70543 0.6744 0.0
C2700 C 0.28372 0.72757 0.69287 0.0
C2701 C 0.25227 0.72253 0.66327 0.0
C2702 C 0.28386 0.74604 0.69265 0.0
C2703 C 0.2842 0.75695 0.70923 0.0
C2704 C 0.28471 0.74945 0.72608 0.0
C2705 C 0.28558 0.7311 0.7261 0.0
C2706 C 0.28484 0.72025 0.70966 0.0
H2707 H 0.24008 0.71566 0.65372 0.0
H2708 H 0.24857 0.72358 0.67763 0.0
H2709 H 0.25635 0.7364 0.6595 0.0
H2710 H 0.28351 0.75194 0.67972 0.0
H2711 H 0.28367 0.771 0.70873 0.0
H2712 H 0.67524 0.0321 0.82524 0.0
H2713 H 0.65563 0.02984 0.84988 0.0
H2714 H 0.61211 0.04144 0.81307 0.0
H2715 H 0.63151 0.04333 0.78816 0.0
H2716 H 0.64276 0.05925 0.86255 0.0
H2717 H 0.58578 1.00138 0.83989 0.0
H2718 H 0.6069 1.00407 0.82984 0.0
H2719 H 0.59 0.01666 0.82277 0.0
C2720 C 0.66138 0.03383 0.82229 0.0
C2721 C 0.6549 0.038 0.80486 0.0
C2722 C 0.6502 0.03241 0.83632 0.0
C2723 C 0.63241 0.03522 0.83315 0.0
C2724 C 0.62566 0.03874 0.81558 0.0
H2725 H 0.55694 0.07043 0.90052 0.0
H2726 H 0.57168 0.058 0.8752 0.0
C2727 C 0.6368 0.03998 0.80145 0.0
C2728 C 0.622 0.03727 0.84892 0.0
H2729 H 0.58155 0.02265 0.86489 0.0
C2730 C 0.62949 0.05107 0.86322 0.0
C2731 C 0.60468 0.02664 0.84955 0.0
C2732 C 0.59641 0.01124 0.83477 0.0
C2733 C 0.61988 0.05496 0.87796 0.0
C2734 C 0.60243 0.04455 0.87847 0.0
C2735 C 0.59498 0.03053 0.86435 0.0
C2736 C 0.59161 0.04885 0.89331 0.0
C2737 C 0.62826 0.07057 0.89253 0.0
C2738 C 0.59777 0.04731 0.91168 0.0
C2739 C 0.58981 0.05483 0.92609 0.0
C2740 C 0.57525 0.06365 0.92234 0.0
C2741 C 0.56839 0.06411 0.90383 0.0
C2742 C 0.57656 0.05677 0.88938 0.0
H2743 H 0.63998 0.07949 0.88795 0.0
H2744 H 0.61812 0.07883 0.89608 0.0
H2745 H 0.63316 0.06525 0.90532 0.0
H2746 H 0.60936 0.04114 0.91487 0.0
H2747 H 0.59556 0.05434 0.94017 0.0
H2748 H 0.3071 0.38254 0.10136 0.0
H2749 H 0.30377 0.36916 0.13047 0.0
H2750 H 0.26029 0.32751 0.10232 0.0
H2751 H 0.2644 0.34016 0.07312 0.0
H2752 H 0.2797 0.36358 0.15254 0.0
H2753 H 0.28811 0.29539 0.12567 0.0
H2754 H 0.29186 0.31413 0.1122 0.0
H2755 H 0.26922 0.30165 0.11296 0.0
C2756 C 0.29687 0.37048 0.10138 0.0
C2757 C 0.2862 0.36232 0.08478 0.0
C2758 C 0.29495 0.36279 0.11809 0.0
C2759 C 0.28212 0.34684 0.11876 0.0
C2760 C 0.27086 0.33926 0.1023 0.0
H2761 H 0.2467 0.29215 0.21485 0.0
H2762 H 0.24767 0.30399 0.18458 0.0
C2763 C 0.27308 0.34668 0.08554 0.0
C2764 C 0.28041 0.33835 0.1366 0.0
H2765 H 0.27778 0.29823 0.15542 0.0
C2766 C 0.27936 0.34929 0.15305 0.0
C2767 C 0.28006 0.31964 0.13767 0.0
C2768 C 0.28257 0.30708 0.12123 0.0
C2769 C 0.27781 0.34215 0.17014 0.0
C2770 C 0.27705 0.3235 0.17102 0.0
C2771 C 0.27805 0.31249 0.15472 0.0
C2772 C 0.27636 0.31551 0.18903 0.0
C2773 C 0.27703 0.3546 0.18731 0.0
C2774 C 0.29217 0.31765 0.20149 0.0
C2775 C 0.29167 0.31077 0.21865 0.0
C2776 C 0.2753 0.30171 0.22401 0.0
C2777 C 0.25952 0.29913 0.21129 0.0
C2778 C 0.26005 0.30594 0.19398 0.0
H2779 H 0.27584 0.36838 0.18412 0.0
H2780 H 0.26535 0.34899 0.19454 0.0
H2781 H 0.28955 0.35562 0.197 0.0
H2782 H 0.30497 0.3247 0.19794 0.0
H2783 H 0.30424 0.31237 0.22764 0.0
H2784 H 0.2466 0.93459 0.02257 0.0
H2785 H 0.21886 0.94578 0.02749 0.0
H2786 H 0.21668 0.96305 0.97282 0.0
H2787 H 0.24447 0.952 0.96782 0.0
H2788 H 0.21833 0.99027 0.00793 0.0
H2789 H 0.16434 0.92812 0.99932 0.0
H2790 H 0.18609 0.92732 0.01139 0.0
H2791 H 0.18419 0.92975 0.98714 0.0
C2792 C 0.23989 0.94032 0.01145 0.0
C2793 C 0.24751 0.94256 0.99486 0.0
C2794 C 0.22417 0.9467 0.01427 0.0
C2795 C 0.21594 0.95509 1.00043 0.0
C2796 C 0.22302 0.95655 0.98354 0.0
H2797 H 0.1171 0.99511 0.01501 0.0
H2798 H 0.14189 0.98614 0.99934 0.0
C2799 C 0.23879 0.95031 0.98076 0.0
C2800 C 0.20099 0.96393 0.00439 0.0
H2801 H 0.15681 0.95529 0.01212 0.0
C2802 C 0.20476 0.98275 0.00858 0.0
C2803 C 0.18351 0.95387 0.00512 0.0
C2804 C 0.17913 0.93363 1.00042 0.0
C2805 C 0.19144 0.99181 0.01435 0.0
C2806 C 0.17414 0.98166 0.01585 0.0
C2807 C 0.17017 0.96293 0.01082 0.0
C2808 C 0.16049 0.98978 0.0245 0.0
C2809 C 0.19604 0.01201 0.01932 0.0
C2810 C 0.16304 0.99482 0.04369 0.0
C2811 C 0.14891 0.99961 0.05264 0.0
C2812 C 0.13222 0.99952 0.0424 0.0
C2813 C 0.12996 0.99526 0.02307 0.0
C2814 C 0.14402 0.99023 0.01415 0.0
H2815 H 0.20831 0.0182 0.01327 0.0
H2816 H 0.18454 0.01827 0.01446 0.0
H2817 H 0.19873 0.01514 0.03462 0.0
H2818 H 0.17566 0.99426 0.05182 0.0
H2819 H 0.15087 1.00302 0.06755 0.0
H2820 H 0.72861 0.62631 0.01642 0.0
H2821 H 0.69987 0.60553 0.01626 0.0
H2822 H 0.67134 0.6466 0.9992 0.0
H2823 H 0.70043 0.66669 0.9973 0.0
H2824 H 0.67459 0.60535 0.03536 0.0
H2825 H 0.64324 0.6071 0.96402 0.0
H2826 H 0.66636 0.61791 0.97184 0.0
H2827 H 0.64807 0.62904 0.977 0.0
C2828 C 0.7162 0.6306 0.01181 0.0
C2829 C 0.71678 0.64767 0.00571 0.0
C2830 C 0.69969 0.61882 0.01208 0.0
C2831 C 0.68319 0.62411 0.00712 0.0
C2832 C 0.68374 0.64171 1.00218 0.0
H2833 H 0.57027 0.57749 0.00816 0.0
H2834 H 0.59968 0.59568 0.0059 0.0
C2835 C 0.70038 0.65331 1.00132 0.0
C2836 C 0.66564 0.61144 0.00815 0.0
H2837 H 0.62393 0.59311 0.98454 0.0
C2838 C 0.66359 0.6026 0.02414 0.0
C2839 C 0.65112 0.6077 0.9936 0.0
C2840 C 0.65236 0.61581 0.97559 0.0
C2841 C 0.64749 0.59064 0.02621 0.0
C2842 C 0.6329 0.58712 0.01176 0.0
C2843 C 0.63501 0.59577 0.99569 0.0
C2844 C 0.61495 0.57544 0.01333 0.0
C2845 C 0.64619 0.58242 0.04419 0.0
C2846 C 0.61343 0.55778 0.01826 0.0
C2847 C 0.59645 0.54744 0.02035 0.0
C2848 C 0.58048 0.55414 0.01664 0.0
C2849 C 0.5821 0.57164 0.01112 0.0
C2850 C 0.59904 0.58214 0.0097 0.0
H2851 H 0.65621 0.59034 0.05554 0.0
H2852 H 0.63244 0.5815 0.0486 0.0
H2853 H 0.64915 0.56863 0.04228 0.0
H2854 H 0.62536 0.55197 0.02064 0.0
H2855 H 0.59599 0.53439 0.02518 0.0
H2856 H 0.6858 0.50768 0.30896 0.0
H2857 H 0.69801 0.4806 0.30419 0.0
H2858 H 0.65021 0.45519 0.26711 0.0
H2859 H 0.638 0.48301 0.27121 0.0
H2860 H 0.68815 0.448 0.31183 0.0
H2861 H 0.68821 0.44539 0.23558 0.0
H2862 H 0.68335 0.46449 0.24943 0.0
H2863 H 0.66612 0.44445 0.24291 0.0
C2864 C 0.6777 0.49643 0.29973 0.0
C2865 C 0.66079 0.4977 0.29044 0.0
C2866 C 0.6848 0.48081 0.29705 0.0
C2867 C 0.67525 0.46578 0.28511 0.0
C2868 C 0.65813 0.46672 0.27607 0.0
H2869 H 0.70906 0.36419 0.2525 0.0
H2870 H 0.6905 0.38609 0.2618 0.0
C2871 C 0.65105 0.4826 0.27854 0.0
C2872 C 0.68354 0.44941 0.28241 0.0
H2873 H 0.69771 0.42149 0.24969 0.0
C2874 C 0.69015 0.44219 0.2982 0.0
C2875 C 0.68638 0.44181 0.26468 0.0
C2876 C 0.68082 0.44951 0.24719 0.0
C2877 C 0.69954 0.42784 0.29676 0.0
C2878 C 0.70233 0.4203 0.27906 0.0
C2879 C 0.69542 0.42719 0.26326 0.0
C2880 C 0.71302 0.40579 0.2765 0.0
C2881 C 0.70647 0.42084 0.31417 0.0
C2882 C 0.73178 0.40931 0.2822 0.0
C2883 C 0.74236 0.39672 0.27701 0.0
C2884 C 0.73435 0.3804 0.2661 0.0
C2885 C 0.71547 0.37647 0.26131 0.0
C2886 C 0.7049 0.38905 0.26645 0.0
H2887 H 0.69997 0.42535 0.32632 0.0
H2888 H 0.70405 0.40585 0.31233 0.0
H2889 H 0.7213 0.42596 0.31722 0.0
H2890 H 0.73841 0.42224 0.28965 0.0
H2891 H 0.75695 0.40029 0.28036 0.0
H2892 H 0.85189 0.42026 0.48944 0.0
H2893 H 0.88327 0.43759 0.49477 0.0
H2894 H 0.86513 0.48136 0.52499 0.0
H2895 H 0.83421 0.46394 0.52033 0.0
H2896 H 0.89681 0.47309 0.48531 0.0
H2897 H 0.90452 0.46847 0.56112 0.0
H2898 H 0.8866 0.45412 0.54532 0.0
H2899 H 0.88487 0.4769 0.55301 0.0
C2900 C 0.85481 0.43358 0.4972 0.0
C2901 C 0.84097 0.44117 0.50414 0.0
C2902 C 0.87251 0.44339 0.50015 0.0
C2903 C 0.87623 0.46055 0.51034 0.0
C2904 C 0.86235 0.46801 0.51729 0.0
H2905 H 0.9753 0.54084 0.52241 0.0
H2906 H 0.94312 0.52712 0.52116 0.0
C2907 C 0.84481 0.4582 0.51448 0.0
C2908 C 0.89471 0.47068 0.51423 0.0
H2909 H 0.92751 0.48886 0.54974 0.0
C2910 C 0.90357 0.47662 0.49935 0.0
C2911 C 0.90326 0.47496 0.53261 0.0
C2912 C 0.8944 0.46815 0.54893 0.0
C2913 C 0.92104 0.48704 0.50247 0.0
C2914 C 0.92942 0.49153 0.52089 0.0
C2915 C 0.92061 0.48556 0.53573 0.0
C2916 C 0.94824 0.50049 0.52474 0.0
C2917 C 0.93068 0.49274 0.48619 0.0
C2918 C 0.96128 0.48996 0.52798 0.0
C2919 C 0.97943 0.49763 0.52866 0.0
C2920 C 0.98458 0.51587 0.52614 0.0
C2921 C 0.97151 0.52671 0.5243 0.0
C2922 C 0.95328 0.51897 0.52356 0.0
H2923 H 0.92233 0.48756 0.47269 0.0
H2924 H 0.93409 0.5077 0.48722 0.0
H2925 H 0.9436 0.48776 0.48641 0.0
H2926 H 0.95734 0.47562 0.52885 0.0
H2927 H 0.98924 0.48895 0.52982 0.0
H2928 H 0.34824 0.06029 0.3292 0.0
H2929 H 0.33911 0.08913 0.32515 0.0
H2930 H 0.3641 0.09152 0.27457 0.0
H2931 H 0.37338 0.06279 0.27845 0.0
H2932 H 0.36673 0.12672 0.30975 0.0
H2933 H 0.3016 0.08758 0.27134 0.0
H2934 H 0.31331 0.07883 0.29014 0.0
H2935 H 0.32248 0.07993 0.26847 0.0
C2936 C 0.35196 0.06709 0.31734 0.0
C2937 C 0.36138 0.05934 0.30406 0.0
C2938 C 0.34689 0.08353 0.31516 0.0
C2939 C 0.3511 0.09224 0.29966 0.0
C2940 C 0.36102 0.08492 0.28672 0.0
H2941 H 0.32778 0.17461 0.23949 0.0
H2942 H 0.34271 0.15465 0.25739 0.0
C2943 C 0.36623 0.06856 0.28894 0.0
C2944 C 0.34337 0.10789 0.29576 0.0
H2945 H 0.30701 0.11916 0.27186 0.0
C2946 C 0.35359 0.1252 0.30169 0.0
C2947 C 0.32626 0.10554 0.28526 0.0
C2948 C 0.31515 0.087 0.27839 0.0
C2949 C 0.34718 0.14048 0.29682 0.0
C2950 C 0.33031 0.13809 0.28586 0.0
C2951 C 0.31988 0.12077 0.28048 0.0
C2952 C 0.32392 0.15309 0.27799 0.0
C2953 C 0.35851 0.15901 0.30297 0.0
C2954 C 0.30867 0.15883 0.28397 0.0
C2955 C 0.30017 0.17018 0.27381 0.0
C2956 C 0.30669 0.17553 0.25743 0.0
C2957 C 0.32247 0.17043 0.25199 0.0
C2958 C 0.33108 0.15927 0.26227 0.0
H2959 H 0.36994 0.15869 0.31365 0.0
H2960 H 0.36413 0.16471 0.29084 0.0
H2961 H 0.34997 0.16816 0.30864 0.0
H2962 H 0.3029 0.15385 0.29595 0.0
H2963 H 0.28796 0.17397 0.27819 0.0
H2964 H 0.31199 0.14231 0.47742 0.0
H2965 H 0.33963 0.13012 0.48251 0.0
H2966 H 0.34207 0.14473 0.54137 0.0
H2967 H 0.31446 0.15729 0.53634 0.0
H2968 H 0.37727 0.14832 0.50626 0.0
H2969 H 0.33733 0.08609 0.52801 0.0
H2970 H 0.32706 0.10044 0.51364 0.0
H2971 H 0.33353 0.10757 0.53789 0.0
C2972 C 0.31861 0.14328 0.49143 0.0
C2973 C 0.31108 0.15085 0.50648 0.0
C2974 C 0.3344 0.1363 0.4943 0.0
C2975 C 0.34284 0.13646 0.5123 0.0
C2976 C 0.33576 0.14453 0.52735 0.0
H2977 H 0.43866 0.10141 0.55766 0.0
H2978 H 0.41639 0.11946 0.5478 0.0
C2979 C 0.32007 0.15181 0.52446 0.0
C2980 C 0.35828 0.12708 0.51533 0.0
H2981 H 0.3689 0.08817 0.52913 0.0
C2982 C 0.3755 0.1352 0.51132 0.0
C2983 C 0.35582 0.10982 0.52155 0.0
C2984 C 0.33745 0.10031 0.52546 0.0
C2985 C 0.39043 0.12663 0.51381 0.0
C2986 C 0.38804 0.10955 0.52047 0.0
C2987 C 0.37072 0.10129 0.52407 0.0
C2988 C 0.40336 0.10018 0.52443 0.0
C2989 C 0.40864 0.13577 0.50918 0.0
C2990 C 0.40369 0.08354 0.51432 0.0
C2991 C 0.41656 0.07336 0.51979 0.0
C2992 C 0.42915 0.07957 0.53557 0.0
C2993 C 0.42928 0.09653 0.54524 0.0
C2994 C 0.41656 0.1068 0.53965 0.0
H2995 H 0.40754 0.14713 0.50088 0.0
H2996 H 0.41763 0.14117 0.52222 0.0
H2997 H 0.41513 0.12593 0.50135 0.0
H2998 H 0.39354 0.07811 0.50263 0.0
H2999 H 0.416 0.06018 0.51236 0.0
H3000 H 0.68136 0.57934 0.27962 0.0
H3001 H 0.70055 0.60836 0.27683 0.0
H3002 H 0.66102 0.63598 0.29909 0.0
H3003 H 0.64146 0.60663 0.30152 0.0
H3004 H 0.67377 0.65073 0.26847 0.0
H3005 H 0.73261 0.64339 0.31689 0.0
H3006 H 0.72343 0.624 0.30029 0.0
H3007 H 0.70976 0.63134 0.31731 0.0
C3008 C 0.67692 0.59159 0.28436 0.0
C3009 C 0.6601 0.59068 0.2913 0.0
C3010 C 0.68794 0.60825 0.28271 0.0
C3011 C 0.68253 0.62454 0.2881 0.0
C3012 C 0.66561 0.62367 0.29491 0.0
H3013 H 0.73712 0.737 0.30111 0.0
H3014 H 0.71751 0.70772 0.30247 0.0
C3015 C 0.65446 0.60691 0.29639 0.0
C3016 C 0.69438 0.64234 0.28618 0.0
H3017 H 0.73703 0.66776 0.29921 0.0
C3018 C 0.68757 0.65443 0.27525 0.0
C3019 C 0.71246 0.64739 0.29498 0.0
C3020 C 0.72009 0.63595 0.30817 0.0
C3021 C 0.69837 0.67116 0.27282 0.0
C3022 C 0.71644 0.67593 0.28146 0.0
C3023 C 0.72326 0.66394 0.29234 0.0
C3024 C 0.72821 0.69372 0.2802 0.0
C3025 C 0.69053 0.68371 0.261 0.0
C3026 C 0.74102 0.69551 0.26745 0.0
C3027 C 0.75241 0.71225 0.26673 0.0
C3028 C 0.75119 0.72752 0.27875 0.0
C3029 C 0.73844 0.72557 0.29163 0.0
C3030 C 0.72714 0.70885 0.29237 0.0
H3031 H 0.6765 0.67778 0.25453 0.0
H3032 H 0.69039 0.69654 0.26963 0.0
H3033 H 0.69922 0.68705 0.24991 0.0
H3034 H 0.74213 0.68397 0.258 0.0
H3035 H 0.7619 0.71332 0.2565 0.0
H3036 H 0.83975 0.47554 0.78276 0.0
H3037 H 0.82287 0.4447 0.77981 0.0
H3038 H 0.87318 0.42621 0.79115 0.0
H3039 H 0.88936 0.4575 0.79797 0.0
H3040 H 0.82158 0.41943 0.75745 0.0
H3041 H 0.84678 0.39674 0.82321 0.0
H3042 H 0.85283 0.41988 0.81888 0.0
H3043 H 0.86527 0.40338 0.81023 0.0
C3044 C 0.84688 0.4649 0.78595 0.0
C3045 C 0.86538 0.46876 0.79226 0.0
C3046 C 0.8374 0.44725 0.78366 0.0
C3047 C 0.84664 0.43308 0.78602 0.0
C3048 C 0.86556 0.43691 0.7905 0.0
H3049 H 0.81972 0.3199 0.76212 0.0
H3050 H 0.83168 0.35178 0.76147 0.0
C3051 C 0.87483 0.45471 0.7941 0.0
C3052 C 0.8365 0.41437 0.78264 0.0
H3053 H 0.83173 0.37351 0.79913 0.0
C3054 C 0.82363 0.40954 0.7668 0.0
C3055 C 0.83913 0.40139 0.79482 0.0
C3056 C 0.85161 0.40571 0.81281 0.0
C3057 C 0.81346 0.39205 0.76275 0.0
C3058 C 0.81685 0.3791 0.77438 0.0
C3059 C 0.82951 0.38375 0.79021 0.0
C3060 C 0.80781 0.36033 0.77027 0.0
C3061 C 0.79931 0.38739 0.74606 0.0
C3062 C 0.7902 0.35493 0.77471 0.0
C3063 C 0.78314 0.33668 0.7747 0.0
C3064 C 0.79388 0.3239 0.77058 0.0
C3065 C 0.81105 0.32941 0.76497 0.0
C3066 C 0.81796 0.34759 0.76473 0.0
H3067 H 0.79929 0.39879 0.73759 0.0
H3068 H 0.80161 0.37546 0.73723 0.0
H3069 H 0.78571 0.38374 0.75074 0.0
H3070 H 0.78241 0.36482 0.77926 0.0
H3071 H 0.76984 0.33271 0.77908 0.0
H3072 H 0.07595 0.8442 0.09195 0.0
H3073 H 0.07479 0.87393 0.08114 0.0
H3074 H 0.01653 0.86166 0.07703 0.0
H3075 H 0.0176 0.83207 0.08728 0.0
H3076 H 0.05465 0.88204 0.04566 0.0
H3077 H 0.03146 0.91254 0.10884 0.0
H3078 H 0.04259 0.89345 0.10892 0.0
H3079 H 0.01914 0.89028 0.09983 0.0
C3080 C 0.0629 0.84792 0.08898 0.0
C3081 C 0.04688 0.83557 0.09073 0.0
C3082 C 0.06223 0.86496 0.08262 0.0
C3083 C 0.04554 0.8704 0.07826 0.0
C3084 C 0.02963 0.85814 0.08033 0.0
H3085 H 1.0056 0.96337 0.03682 0.0
H3086 H 0.00915 0.93441 0.04753 0.0
C3087 C 0.03028 0.84108 0.08625 0.0
C3088 C 0.04447 0.8886 0.07143 0.0
H3089 H 0.03031 0.92848 0.08249 0.0
C3090 C 0.04953 0.89223 0.05386 0.0
C3091 C 0.03758 0.90211 0.0818 0.0
C3092 C 0.03249 0.89957 0.10097 0.0
C3093 C 0.04759 0.90855 0.04643 0.0
C3094 C 0.04062 0.922 0.05679 0.0
C3095 C 0.03563 0.91838 0.07436 0.0
C3096 C 0.03843 0.93981 0.04965 0.0
C3097 C 0.05248 0.91108 0.02719 0.0
C3098 C 0.05358 0.95296 0.04717 0.0
C3099 C 0.05155 0.96972 0.04108 0.0
C3100 C 0.03426 0.97398 0.037 0.0
C3101 C 0.01912 0.96073 0.0394 0.0
C3102 C 0.02116 0.94406 0.04572 0.0
H3103 H 0.05475 0.89839 0.0197 0.0
H3104 H 0.04158 0.91594 0.01898 0.0
H3105 H 0.06508 0.92146 0.02812 0.0
H3106 H 0.06711 0.95039 0.05023 0.0
H3107 H 0.06363 0.97939 0.03956 0.0
H3108 H 0.96613 0.25351 0.88384 0.0
H3109 H 0.93981 0.25528 0.86284 0.0
H3110 H 0.91146 0.26625 0.90995 0.0
H3111 H 0.93946 0.26832 0.93058 0.0
H3112 H 0.91175 0.24298 0.85027 0.0
H3113 H 0.89247 0.30192 0.8881 0.0
H3114 H 0.91255 0.29435 0.89624 0.0
H3115 H 0.89071 0.28372 0.90204 0.0
C3116 C 0.95459 0.25739 0.88962 0.0
C3117 C 0.9556 0.26259 0.90873 0.0
C3118 C 0.93907 0.25788 0.87754 0.0
C3119 C 0.9233 0.26225 0.88422 0.0
C3120 C 0.92356 0.26471 0.90376 0.0
H3121 H 0.81519 0.25211 0.82252 0.0
H3122 H 0.84151 0.25027 0.84415 0.0
C3123 C 0.93958 0.2654 0.91578 0.0
C3124 C 0.90692 0.26369 0.8707 0.0
H3125 H 0.87112 0.28553 0.86365 0.0
C3126 C 0.90337 0.25274 0.85337 0.0
C3127 C 0.89515 0.27612 0.87402 0.0
C3128 C 0.89804 0.28978 0.891 0.0
C3129 C 0.88909 0.25391 0.83977 0.0
C3130 C 0.8771 0.26563 0.8436 0.0
C3131 C 0.88023 0.2764 0.86076 0.0
C3132 C 0.8611 0.26669 0.83004 0.0
C3133 C 0.88683 0.24258 0.82124 0.0
C3134 C 0.86317 0.27657 0.81477 0.0
C3135 C 0.84803 0.27787 0.80241 0.0
C3136 C 0.83037 0.26917 0.80487 0.0
C3137 C 0.82845 0.25909 0.82009 0.0
C3138 C 0.84355 0.25798 0.83253 0.0
H3139 H 0.89647 0.23319 0.82068 0.0
H3140 H 0.87277 0.23466 0.81813 0.0
H3141 H 0.88913 0.25158 0.81022 0.0
H3142 H 0.87651 0.28353 0.81255 0.0
H3143 H 0.85016 0.28605 0.79118 0.0
H3144 H 0.54263 0.22621 0.62163 0.0
H3145 H 0.54161 0.19523 0.60832 0.0
H3146 H 0.5484 0.2137 0.55488 0.0
H3147 H 0.55223 0.24491 0.56904 0.0
H3148 H 0.52205 0.17167 0.58708 0.0
H3149 H 0.58263 0.18319 0.54966 0.0
H3150 H 0.57714 0.20096 0.56486 0.0
H3151 H 0.56592 0.19532 0.54144 0.0
C3152 C 0.54398 0.2237 0.60702 0.0
C3153 C 0.54672 0.23827 0.59631 0.0
C3154 C 0.54332 0.20577 0.59928 0.0
C3155 C 0.5452 0.20147 0.58037 0.0
C3156 C 0.54757 0.21608 0.56957 0.0
H3157 H 0.54147 0.09475 0.51432 0.0
H3158 H 0.54227 0.1269 0.5242 0.0
C3159 C 0.54903 0.23414 0.57756 0.0
C3160 C 0.54444 0.18185 0.57239 0.0
H3161 H 0.5645 0.15393 0.54449 0.0
C3162 C 0.53155 0.16799 0.57791 0.0
C3163 C 0.55647 0.17637 0.56003 0.0
C3164 C 0.57141 0.18972 0.55379 0.0
C3165 C 0.5304 0.14943 0.57183 0.0
C3166 C 0.54258 0.14398 0.55975 0.0
C3167 C 0.55514 0.15777 0.55376 0.0
C3168 C 0.54269 0.1242 0.55352 0.0
C3169 C 0.51573 0.13589 0.57825 0.0
C3170 C 0.54321 0.11158 0.56646 0.0
C3171 C 0.54233 0.09312 0.56076 0.0
C3172 C 0.54153 0.08653 0.5419 0.0
C3173 C 0.54202 0.09921 0.52895 0.0
C3174 C 0.54247 0.11771 0.53465 0.0
H3175 H 0.50416 0.14213 0.58189 0.0
H3176 H 0.51051 0.12424 0.56749 0.0
H3177 H 0.52131 0.13085 0.59092 0.0
H3178 H 0.54427 0.11597 0.58114 0.0
H3179 H 0.54237 0.08394 0.57124 0.0
H3180 H 0.56406 0.80316 0.41863 0.0
H3181 H 0.59146 0.8019 0.40336 0.0
H3182 H 0.57186 0.74516 0.38603 0.0
H3183 H 0.54465 0.74631 0.40175 0.0
H3184 H 0.61868 0.7745 0.406 0.0
H3185 H 0.57876 0.77405 0.33758 0.0
H3186 H 0.57156 0.78264 0.35898 0.0
H3187 H 0.56958 0.75881 0.35329 0.0
C3188 C 0.56594 0.79029 0.41215 0.0
C3189 C 0.55248 0.77473 0.41184 0.0
C3190 C 0.58153 0.78961 0.40329 0.0
C3191 C 0.58375 0.77345 0.3935 0.0
C3192 C 0.57053 0.75776 0.39358 0.0
H3193 H 0.65788 0.76266 0.30907 0.0
H3194 H 0.63483 0.75521 0.33014 0.0
C3195 C 0.55509 0.75838 0.40274 0.0
C3196 C 0.59921 0.7734 0.38218 0.0
H3197 H 0.60989 0.77456 0.33776 0.0
C3198 C 0.61677 0.77441 0.39107 0.0
C3199 C 0.59674 0.77312 0.36267 0.0
C3200 C 0.5782 0.77217 0.35243 0.0
C3201 C 0.63189 0.77529 0.381 0.0
C3202 C 0.62954 0.77573 0.36152 0.0
C3203 C 0.61185 0.77426 0.35264 0.0
C3204 C 0.64517 0.77871 0.35018 0.0
C3205 C 0.65019 0.77551 0.39137 0.0
C3206 C 0.65902 0.79418 0.35446 0.0
C3207 C 0.67224 0.79835 0.34245 0.0
C3208 C 0.67202 0.78713 0.3259 0.0
C3209 C 0.65866 0.77129 0.32195 0.0
C3210 C 0.64537 0.76714 0.33392 0.0
H3211 H 0.64886 0.76879 0.40418 0.0
H3212 H 0.65874 0.76867 0.38264 0.0
H3213 H 0.65725 0.7897 0.39555 0.0
H3214 H 0.65905 0.80361 0.36658 0.0
H3215 H 0.68208 0.81088 0.34561 0.0
H3216 H 0.04291 0.26878 0.41765 0.0
H3217 H 0.0407 0.24169 0.4334 0.0
H3218 H 0.03221 0.20867 0.3807 0.0
H3219 H 0.03413 0.236 0.3646 0.0
H3220 H 0.00846 0.21048 0.42618 0.0
H3221 H 0.07508 0.19245 0.41531 0.0
H3222 H 0.07133 0.21525 0.41488 0.0
H3223 H 0.06165 0.19839 0.39588 0.0
C3224 C 0.04072 0.25581 0.40929 0.0
C3225 C 0.03876 0.25464 0.38978 0.0
C3226 C 0.03943 0.24029 0.41839 0.0
C3227 C 0.03644 0.22312 0.4083 0.0
C3228 C 0.03469 0.22179 0.3888 0.0
H3229 H 0.01861 0.11692 0.4503 0.0
H3230 H 0.02686 0.14123 0.43078 0.0
C3231 C 0.03573 0.23741 0.3796 0.0
C3232 C 0.03435 0.20678 0.41843 0.0
H3233 H 0.05627 0.17394 0.43277 0.0
C3234 C 0.01886 0.20243 0.4275 0.0
C3235 C 0.04794 0.19629 0.42023 0.0
C3236 C 0.06504 0.20075 0.41117 0.0
C3237 C 0.01659 0.18795 0.43832 0.0
C3238 C 0.03037 0.17768 0.44053 0.0
C3239 C 0.04574 0.1818 0.43116 0.0
C3240 C 0.02893 0.16293 0.45286 0.0
C3241 C 0.99937 0.18371 0.44727 0.0
C3242 C 0.02832 0.16696 0.47196 0.0
C3243 C 0.02379 0.15314 0.48309 0.0
C3244 C 0.01994 0.13491 0.47546 0.0
C3245 C 0.02191 0.13081 0.45665 0.0
C3246 C 0.02645 0.14471 0.44546 0.0
H3247 H 0.98843 0.18979 0.44066 0.0
H3248 H 0.99445 0.1689 0.44646 0.0
H3249 H 1.00208 0.18927 0.46212 0.0
H3250 H 0.03037 0.18088 0.47807 0.0
H3251 H 0.02206 0.15672 0.49745 0.0
H3252 H 0.57458 0.28473 0.21762 0.0
H3253 H 0.60683 0.28709 0.22876 0.0
H3254 H 0.60355 0.23198 0.20556 0.0
H3255 H 0.57207 0.23035 0.19299 0.0
H3256 H 0.62629 0.27463 0.25137 0.0
H3257 H 0.6475 0.24947 0.18524 0.0
H3258 H 0.62512 0.25401 0.18653 0.0
H3259 H 0.63034 0.23271 0.19213 0.0
C3260 C 0.58087 0.27322 0.21468 0.0
C3261 C 0.57071 0.25746 0.20404 0.0
C3262 C 0.59942 0.27452 0.22114 0.0
C3263 C 0.60838 0.25994 0.2176 0.0
C3264 C 0.59778 0.2439 0.20778 0.0
H3265 H 0.71835 0.23984 0.25154 0.0
H3266 H 0.68576 0.23697 0.24212 0.0
C3267 C 0.57951 0.24286 0.20074 0.0
C3268 C 0.62845 0.26136 0.22444 0.0
H3269 H 0.6684 0.25073 0.21212 0.0
C3270 C 0.6354 0.2695 0.24259 0.0
C3271 C 0.64092 0.25483 0.21332 0.0
C3272 C 0.63562 0.24747 0.19318 0.0
C3273 C 0.65383 0.27097 0.24983 0.0
C3274 C 0.66604 0.26404 0.23882 0.0
C3275 C 0.65918 0.25587 0.22078 0.0
C3276 C 0.68604 0.26566 0.24545 0.0
C3277 C 0.66 0.27972 0.26941 0.0
C3278 C 0.69749 0.28267 0.25044 0.0
C3279 C 0.71619 0.28428 0.25592 0.0
C3280 C 0.72429 0.26895 0.25665 0.0
C3281 C 0.7128 0.25193 0.25161 0.0
C3282 C 0.69404 0.2503 0.24603 0.0
H3283 H 0.64842 0.27997 0.27763 0.0
H3284 H 0.6697 0.27258 0.27659 0.0
H3285 H 0.66697 0.29388 0.26907 0.0
H3286 H 0.69204 0.29484 0.2498 0.0
H3287 H 0.72435 0.29771 0.25958 0.0
H3288 H 0.53728 0.84207 0.91449 0.0
H3289 H 0.53628 0.86867 0.93601 0.0
H3290 H 0.55405 0.90324 0.89513 0.0
H3291 H 0.55439 0.87678 0.8734 0.0
H3292 H 0.55916 0.89709 0.95309 0.0
H3293 H 0.51106 0.92327 0.9061 0.0
H3294 H 0.51642 0.90128 0.90106 0.0
H3295 H 0.53116 0.92117 0.89566 0.0
C3296 C 0.54109 0.85533 0.91007 0.0
C3297 C 0.54583 0.85708 0.892 0.0
C3298 C 0.54046 0.87064 0.92246 0.0
C3299 C 0.54456 0.88823 0.91723 0.0
C3300 C 0.55011 0.88998 0.8995 0.0
H3301 H 0.55362 0.99845 0.9727 0.0
H3302 H 0.55551 0.97148 0.95212 0.0
C3303 C 0.55053 0.87472 0.88706 0.0
C3304 C 0.5431 0.90464 0.9302 0.0
H3305 H 0.52569 0.94344 0.9326 0.0
C3306 C 0.55172 0.90711 0.94855 0.0
C3307 C 0.53328 0.9179 0.92464 0.0
C3308 C 0.5223 0.91569 0.90587 0.0
C3309 C 0.55121 0.92243 0.96108 0.0
C3310 C 0.54182 0.93586 0.95532 0.0
C3311 C 0.5331 0.93337 0.93707 0.0
C3312 C 0.5407 0.95243 0.96806 0.0
C3313 C 0.56105 0.92433 0.98038 0.0
C3314 C 0.53147 0.95099 0.98384 0.0
C3315 C 0.53007 0.96646 0.9955 0.0
C3316 C 0.53811 0.98395 0.99197 0.0
C3317 C 0.5473 0.98534 0.97608 0.0
C3318 C 0.54843 0.96985 0.96424 0.0
H3319 H 0.57076 0.91504 0.98152 0.0
H3320 H 0.56853 0.93841 0.98455 0.0
H3321 H 0.55102 0.92112 0.9903 0.0
H3322 H 0.52499 0.93784 0.98699 0.0
H3323 H 0.52224 0.96467 0.00703 0.0
H3324 H 0.95803 0.7386 0.69095 0.0
H3325 H 0.92772 0.74006 0.70033 0.0
H3326 H 0.95153 0.78505 0.7412 0.0
H3327 H 0.98131 0.78382 0.73201 0.0
H3328 H 0.91153 0.73713 0.73318 0.0
H3329 H 0.91258 0.80636 0.7154 0.0
H3330 H 0.92889 0.79335 0.70816 0.0
H3331 H 0.93191 0.80517 0.73121 0.0
C3332 C 0.95686 0.74886 0.7019 0.0
C3333 C 0.97259 0.76116 0.71043 0.0
C3334 C 0.93936 0.74968 0.70735 0.0
C3335 C 0.93681 0.76298 0.72136 0.0
C3336 C 0.95256 0.77493 0.73006 0.0
H3337 H 0.84797 0.7914 0.78242 0.0
H3338 H 0.87692 0.78799 0.77146 0.0
C3339 C 0.9699 0.77407 0.72475 0.0
C3340 C 0.91805 0.7646 0.72707 0.0
H3341 H 0.88988 0.79497 0.73412 0.0
C3342 C 0.90682 0.74977 0.73313 0.0
C3343 C 0.9114 0.78101 0.72729 0.0
C3344 C 0.92172 0.79732 0.72 0.0
C3345 C 0.88983 0.75104 0.73967 0.0
C3346 C 0.88339 0.76753 0.74015 0.0
C3347 C 0.89454 0.78229 0.73398 0.0
C3348 C 0.86524 0.76971 0.74691 0.0
C3349 C 0.87903 0.73478 0.74657 0.0
C3350 C 0.84848 0.76085 0.73694 0.0
C3351 C 0.83169 0.76337 0.74291 0.0
C3352 C 0.83084 0.77465 0.75929 0.0
C3353 C 0.84766 0.78309 0.7695 0.0
C3354 C 0.86445 0.78095 0.76327 0.0
H3355 H 0.88706 0.72408 0.74846 0.0
H3356 H 0.87417 0.7387 0.75996 0.0
H3357 H 0.86695 0.72907 0.7364 0.0
H3358 H 0.84835 0.75211 0.72428 0.0
H3359 H 0.81929 0.75637 0.73458 0.0
H3360 H 0.09153 0.03824 0.82417 0.0
H3361 H 0.07441 0.03386 0.85106 0.0
H3362 H 0.12325 0.02928 0.8844 0.0
H3363 H 0.14026 0.0338 0.85818 0.0
H3364 H 0.06913 0.00598 0.87509 0.0
H3365 H 0.10679 0.0702 0.91421 0.0
H3366 H 0.10729 0.0649 0.88965 0.0
H3367 H 0.12161 0.05602 0.90611 0.0
C3368 C 0.09858 0.03624 0.83722 0.0
C3369 C 0.1174 0.0367 0.83894 0.0
C3370 C 0.08878 0.03373 0.8526 0.0
C3371 C 0.09761 0.03166 0.86997 0.0
C3372 C 0.11616 0.03133 0.87138 0.0
H3373 H 0.07386 0.01316 0.98194 0.0
H3374 H 0.08654 0.01463 0.95219 0.0
C3375 C 0.12589 0.03389 0.85621 0.0
C3376 C 0.08792 0.03023 0.88691 0.0
H3377 H 0.09027 0.04925 0.93183 0.0
C3378 C 0.07361 0.01556 0.88741 0.0
C3379 C 0.09365 0.04273 0.90308 0.0
C3380 C 0.10805 0.05945 0.90323 0.0
C3381 C 0.06543 0.01278 0.90378 0.0
C3382 C 0.0717 0.02492 0.92009 0.0
C3383 C 0.08568 0.03976 0.91945 0.0
C3384 C 0.06358 0.02286 0.93782 0.0
C3385 C 0.05038 0.99667 0.90375 0.0
C3386 C 0.04656 0.02716 0.93974 0.0
C3387 C 0.03943 0.02661 0.95674 0.0
C3388 C 0.04899 0.02147 0.97231 0.0
C3389 C 0.06602 0.01702 0.9703 0.0
C3390 C 0.07328 0.01782 0.95327 0.0
H3391 H 0.04849 0.98733 0.89072 0.0
H3392 H 0.05324 0.98916 0.91568 0.0
H3393 H 0.03749 1.00136 0.90536 0.0
H3394 H 0.03895 0.03141 0.92817 0.0
H3395 H 0.02648 0.03057 0.95771 0.0
H3396 H 0.7606 0.38542 0.54302 0.0
H3397 H 0.76059 0.37063 0.57134 0.0
H3398 H 0.81147 0.4058 0.59328 0.0
H3399 H 0.8109 0.42127 0.56548 0.0
H3400 H 0.78426 0.35181 0.58038 0.0
H3401 H 0.78763 0.40431 0.63917 0.0
H3402 H 0.78175 0.40813 0.61551 0.0
H3403 H 0.80518 0.41095 0.62498 0.0
C3404 C 0.77141 0.39036 0.55422 0.0
C3405 C 0.78568 0.40449 0.55226 0.0
C3406 C 0.77142 0.38191 0.57034 0.0
C3407 C 0.7859 0.38724 0.58454 0.0
C3408 C 0.79984 0.40184 0.58283 0.0
H3409 H 0.84176 0.33667 0.66304 0.0
H3410 H 0.83039 0.35584 0.64127 0.0
C3411 C 0.79957 0.41061 0.5669 0.0
C3412 C 0.78781 0.37592 0.59971 0.0
H3413 H 0.79947 0.37773 0.64631 0.0
C3414 C 0.78714 0.35742 0.59484 0.0
C3415 C 0.79163 0.38325 0.61857 0.0
C3416 C 0.79139 0.40272 0.62485 0.0
C3417 C 0.79107 0.34625 0.6082 0.0
C3418 C 0.79583 0.35382 0.62683 0.0
C3419 C 0.79587 0.3721 0.6319 0.0
C3420 C 0.80223 0.34317 0.6409 0.0
C3421 C 0.79088 0.3266 0.60227 0.0
C3422 C 0.79003 0.32994 0.64785 0.0
C3423 C 0.79648 0.31909 0.66028 0.0
C3424 C 0.81518 0.32128 0.66564 0.0
C3425 C 0.82732 0.33467 0.65882 0.0
C3426 C 0.82085 0.34565 0.64659 0.0
H3427 H 0.78864 0.32326 0.58696 0.0
H3428 H 0.8039 0.32304 0.60754 0.0
H3429 H 0.77989 0.31808 0.60832 0.0
H3430 H 0.77561 0.3279 0.64348 0.0
H3431 H 0.78694 0.30882 0.66548 0.0
H3432 H 0.42102 1.00005 0.33983 0.0
H3433 H 0.44443 1.00467 0.36636 0.0
H3434 H 0.42289 0.04937 0.39026 0.0
H3435 H 0.39874 0.044 0.36413 0.0
H3436 H 0.47081 0.03279 0.37955 0.0
H3437 H 0.42277 0.01827 0.43164 0.0
H3438 H 0.41568 0.01408 0.40705 0.0
H3439 H 0.4189 0.03654 0.41895 0.0
C3440 C 0.42135 0.01081 0.35083 0.0
C3441 C 0.40823 0.02163 0.35031 0.0
C3442 C 0.43467 0.01347 0.36585 0.0
C3443 C 0.43513 0.02717 0.38028 0.0
C3444 C 0.42237 0.03843 0.37942 0.0
H3445 H 0.50161 0.05815 0.48412 0.0
H3446 H 0.48357 0.05849 0.45465 0.0
C3447 C 0.40871 0.03544 0.36459 0.0
C3448 C 0.44878 0.02929 0.3964 0.0
H3449 H 0.45367 0.02851 0.44311 0.0
C3450 C 0.46712 0.03189 0.39347 0.0
C3451 C 0.44375 0.02783 0.41442 0.0
C3452 C 0.4242 0.02384 0.41821 0.0
C3453 C 0.48068 0.03326 0.40827 0.0
C3454 C 0.4756 0.03209 0.42622 0.0
C3455 C 0.45733 0.02955 0.42918 0.0
C3456 C 0.48888 0.0332 0.44237 0.0
C3457 C 0.50027 0.03599 0.4047 0.0
C3458 C 0.4979 0.01891 0.44485 0.0
C3459 C 0.50821 0.01865 0.46165 0.0
C3460 C 0.5093 0.03257 0.47606 0.0
C3461 C 0.50076 0.04716 0.47325 0.0
C3462 C 0.49062 0.04747 0.45645 0.0
H3463 H 0.50211 0.0399 0.39062 0.0
H3464 H 0.5088 0.04653 0.41516 0.0
H3465 H 0.50519 0.02321 0.40594 0.0
H3466 H 0.49631 0.00764 0.43412 0.0
H3467 H 0.51466 0.00726 0.46366 0.0
H3468 H 0.74236 0.69632 0.06367 0.0
H3469 H 0.74276 0.71039 0.09545 0.0
H3470 H 0.79964 0.70925 0.10626 0.0
H3471 H 0.79931 0.6959 0.07411 0.0
H3472 H 0.7484 0.70037 0.12801 0.0
H3473 H 0.80217 0.7602 0.12561 0.0
H3474 H 0.7923 0.74504 0.10513 0.0
H3475 H 0.80989 0.7395 0.12075 0.0
C3476 C 0.75496 0.69918 0.07284 0.0
C3477 C 0.77083 0.69514 0.06638 0.0
C3478 C 0.7552 0.70722 0.09107 0.0
C3479 C 0.77131 0.71139 0.10343 0.0
C3480 C 0.78712 0.70685 0.09703 0.0
H3481 H 0.79259 0.74156 0.22239 0.0
H3482 H 0.7919 0.72997 0.19 0.0
C3483 C 0.78692 0.69902 0.07867 0.0
C3484 C 0.77133 0.72008 0.12297 0.0
H3485 H 0.79316 0.75513 0.15542 0.0
C3486 C 0.75813 0.71245 0.13384 0.0
C3487 C 0.7839 0.73596 0.13088 0.0
C3488 C 0.79774 0.74576 0.11993 0.0
C3489 C 0.7574 0.71993 0.15219 0.0
C3490 C 0.77016 0.7355 0.16012 0.0
C3491 C 0.78331 0.74322 0.14936 0.0
C3492 C 0.77064 0.74327 0.17991 0.0
C3493 C 0.74317 0.71099 0.16324 0.0
C3494 C 0.75907 0.75492 0.18525 0.0
C3495 C 0.75972 0.76199 0.204 0.0
C3496 C 0.7717 0.75726 0.21791 0.0
C3497 C 0.78318 0.74558 0.21231 0.0
C3498 C 0.78279 0.73885 0.19367 0.0
H3499 H 0.73465 0.6985 0.15546 0.0
H3500 H 0.74974 0.70755 0.17635 0.0
H3501 H 0.73426 0.72054 0.167 0.0
H3502 H 0.74958 0.75861 0.17491 0.0
H3503 H 0.75086 0.7711 0.20752 0.0
H3504 H 0.08625 0.01968 0.73508 0.0
H3505 H 0.07226 0.01835 0.70309 0.0
H3506 H 0.12205 0.04877 0.68884 0.0
H3507 H 0.13623 0.04962 0.7206 0.0
H3508 H 0.06509 0.04427 0.6833 0.0
H3509 H 0.11188 0.00957 0.64665 0.0
H3510 H 0.11213 0.01115 0.6715 0.0
H3511 H 0.12354 0.02978 0.66079 0.0
C3512 C 0.09432 0.02587 0.72507 0.0
C3513 C 0.11247 0.03462 0.73048 0.0
C3514 C 0.08626 0.02516 0.70673 0.0
C3515 C 0.09608 0.03319 0.69323 0.0
C3516 C 0.11421 0.04197 0.69866 0.0
H3517 H 0.07438 0.04849 0.5767 0.0
H3518 H 0.08675 0.04895 0.60909 0.0
C3519 C 0.12233 0.04254 0.71695 0.0
C3520 C 0.08716 0.03305 0.6738 0.0
H3521 H 0.09185 0.02313 0.62794 0.0
C3522 C 0.07091 0.03953 0.67121 0.0
C3523 C 0.09459 0.02688 0.65784 0.0
C3524 C 0.11139 0.01878 0.6593 0.0
C3525 C 0.06231 0.04058 0.65336 0.0
C3526 C 0.06988 0.03462 0.63737 0.0
C3527 C 0.08599 0.02788 0.64 0.0
C3528 C 0.06167 0.03546 0.61784 0.0
C3529 C 0.04552 0.04868 0.65195 0.0
C3530 C 0.04329 0.02798 0.61164 0.0
C3531 C 0.03607 0.02826 0.59316 0.0
C3532 C 0.04717 0.03547 0.58026 0.0
C3533 C 0.06548 0.04291 0.58636 0.0
C3534 C 0.07258 0.04307 0.6049 0.0
H3535 H 0.04483 0.05756 0.66477 0.0
H3536 H 0.04498 0.05668 0.64002 0.0
H3537 H 0.03336 0.03767 0.65005 0.0
H3538 H 0.03459 0.02143 0.62093 0.0
H3539 H 0.022 0.02208 0.58873 0.0
H3540 H 0.76893 0.41136 0.43122 0.0
H3541 H 0.76538 0.38881 0.404 0.0
H3542 H 0.79995 0.3593 0.43411 0.0
H3543 H 0.80267 0.38115 0.46146 0.0
H3544 H 0.7924 0.3818 0.3855 0.0
H3545 H 0.75932 0.31926 0.41185 0.0
H3546 H 0.76074 0.34138 0.4241 0.0
H3547 H 0.77978 0.33023 0.42611 0.0
C3548 C 0.77541 0.39981 0.43199 0.0
C3549 C 0.78586 0.39767 0.44823 0.0
C3550 C 0.7734 0.38703 0.41659 0.0
C3551 C 0.78212 0.3723 0.41732 0.0
C3552 C 0.79261 0.37024 0.43357 0.0
H3553 H 0.8033 0.2924 0.33478 0.0
H3554 H 0.80453 0.3132 0.36293 0.0
C3555 C 0.79424 0.38273 0.44908 0.0
C3556 C 0.78163 0.35994 0.40061 0.0
H3557 H 0.77255 0.31548 0.38361 0.0
C3558 C 0.78788 0.36732 0.38499 0.0
C3559 C 0.7759 0.34109 0.40024 0.0
C3560 C 0.7684 0.33255 0.41643 0.0
C3561 C 0.78869 0.35621 0.36888 0.0
C3562 C 0.78308 0.33742 0.36862 0.0
C3563 C 0.77693 0.32999 0.38418 0.0
C3564 C 0.7826 0.32526 0.35189 0.0
C3565 C 0.79562 0.36453 0.35233 0.0
C3566 C 0.7697 0.32532 0.33683 0.0
C3567 C 0.7689 0.31353 0.32094 0.0
C3568 C 0.78096 0.30157 0.32009 0.0
C3569 C 0.79379 0.30145 0.33529 0.0
C3570 C 0.79458 0.31329 0.35122 0.0
H3571 H 0.80286 0.37876 0.35609 0.0
H3572 H 0.80491 0.35665 0.34596 0.0
H3573 H 0.784 0.36436 0.34173 0.0
H3574 H 0.76024 0.33442 0.33745 0.0
H3575 H 0.75885 0.31379 0.30937 0.0
H3576 H 0.38235 0.99838 0.23156 0.0
H3577 H 0.3975 0.99946 0.20333 0.0
H3578 H 0.43627 0.0464 0.22933 0.0
H3579 H 0.42167 0.04495 0.2577 0.0
H3580 H 0.4072 0.02503 0.17901 0.0
H3581 H 0.46756 0.0093 0.21915 0.0
H3582 H 0.44605 0.00795 0.22816 0.0
H3583 H 0.46093 0.02947 0.22855 0.0
C3584 C 0.39386 0.00913 0.23104 0.0
C3585 C 0.40104 0.02147 0.24674 0.0
C3586 C 0.40248 0.00973 0.21499 0.0
C3587 C 0.41817 0.02279 0.2145 0.0
C3588 C 0.42441 0.036 0.22966 0.0
H3589 H 0.49982 0.02746 0.13847 0.0
H3590 H 0.47984 0.03764 0.16014 0.0
C3591 C 0.41604 0.0352 0.24578 0.0
C3592 C 0.42897 0.02162 0.19888 0.0
H3593 H 0.47018 0.01461 0.18825 0.0
C3594 C 0.421 0.02284 0.18098 0.0
C3595 C 0.44692 0.01864 0.20161 0.0
C3596 C 0.45583 0.01608 0.22036 0.0
C3597 C 0.43059 0.02111 0.16563 0.0
C3598 C 0.44845 0.01806 0.16842 0.0
C3599 C 0.45652 0.01721 0.18633 0.0
C3600 C 0.45861 0.01386 0.15298 0.0
C3601 C 0.4216 0.0224 0.14657 0.0
C3602 C 0.45308 0.99725 0.14185 0.0
C3603 C 0.46453 0.99136 0.1298 0.0
C3604 C 0.48153 1.00206 0.12884 0.0
C3605 C 0.48673 0.01905 0.13928 0.0
C3606 C 0.47533 0.02489 0.15143 0.0
H3607 H 0.40977 0.02909 0.14724 0.0
H3608 H 0.43137 0.02997 0.13832 0.0
H3609 H 0.41676 0.0086 0.13921 0.0
H3610 H 0.44036 0.98845 0.14319 0.0
H3611 H 0.46037 0.97828 0.12163 0.0
H3612 H 0.76424 0.71681 0.9721 0.0
H3613 H 0.76764 0.73392 0.94512 0.0
H3614 H 0.78018 0.68768 0.91376 0.0
H3615 H 0.7765 0.67063 0.94009 0.0
H3616 H 0.79561 0.74347 0.92324 0.0
H3617 H 0.73812 0.69725 0.88034 0.0
H3618 H 0.74246 0.69695 0.90504 0.0
H3619 H 0.7548 0.68542 0.88949 0.0
C3620 C 0.76782 0.71036 0.95948 0.0
C3621 C 0.76978 0.6922 0.95828 0.0
C3622 C 0.76974 0.72014 0.94403 0.0
C3623 C 0.77367 0.71196 0.92712 0.0
C3624 C 0.77656 0.69419 0.92633 0.0
H3625 H 0.7935 0.739 0.81647 0.0
H3626 H 0.792 0.72593 0.84593 0.0
C3627 C 0.77451 0.68445 0.94156 0.0
C3628 C 0.77455 0.72157 0.91008 0.0
H3629 H 0.75783 0.71691 0.86411 0.0
C3630 C 0.7872 0.73776 0.91038 0.0
C3631 C 0.76358 0.71424 0.89318 0.0
C3632 C 0.74885 0.69761 0.892 0.0
C3633 C 0.78955 0.74638 0.89421 0.0
C3634 C 0.77897 0.73868 0.87724 0.0
C3635 C 0.76613 0.7227 0.87702 0.0
C3636 C 0.78071 0.74711 0.85962 0.0
C3637 C 0.80365 0.76344 0.89519 0.0
C3638 C 0.77475 0.7633 0.85737 0.0
C3639 C 0.77531 0.77064 0.84046 0.0
C3640 C 0.78199 0.76207 0.82532 0.0
C3641 C 0.78823 0.74597 0.82772 0.0
C3642 C 0.78741 0.73849 0.8446 0.0
H3643 H 0.81277 0.76606 0.90846 0.0
H3644 H 0.81196 0.76266 0.88351 0.0
H3645 H 0.7968 0.77506 0.89395 0.0
H3646 H 0.76929 0.77009 0.86862 0.0
H3647 H 0.77029 0.78299 0.8392 0.0
H3648 H 0.81799 0.12537 0.06807 0.0
H3649 H 0.84789 0.11728 0.07331 0.0
H3650 H 0.83786 0.08501 0.02001 0.0
H3651 H 0.80811 0.09281 0.01464 0.0
H3652 H 0.85152 0.07481 0.06681 0.0
H3653 H 0.88972 0.12411 0.02625 0.0
H3654 H 0.87068 0.12863 0.03789 0.0
H3655 H 0.86692 0.11416 0.01633 0.0
C3656 C 0.82226 0.11662 0.05746 0.0
C3657 C 0.81083 0.1096 0.04098 0.0
C3658 C 0.83921 0.11206 0.0605 0.0
C3659 C 0.84482 0.10074 0.04697 0.0
C3660 C 0.83355 0.09388 0.03049 0.0
H3661 H 0.89176 0.02933 1.0002 0.0
H3662 H 0.87511 0.04538 0.02111 0.0
C3663 C 0.81661 0.09824 0.02751 0.0
C3664 C 0.86212 0.0951 0.04988 0.0
H3665 H 0.89979 0.09598 0.0281 0.0
C3666 C 0.86258 0.0798 0.05908 0.0
C3667 C 0.87626 0.10179 0.0397 0.0
C3668 C 0.876 0.11818 0.02957 0.0
C3669 C 0.87597 0.06968 0.05646 0.0
C3670 C 0.88899 0.07531 0.04459 0.0
C3671 C 0.88974 0.09182 0.03729 0.0
C3672 C 0.89917 0.06281 0.0361 0.0
C3673 C 0.8752 0.05228 0.06497 0.0
C3674 C 0.91806 0.06737 0.03784 0.0
C3675 C 0.9275 0.05848 0.02577 0.0
C3676 C 0.91809 0.04502 0.01178 0.0
C3677 C 0.89922 0.03981 0.01074 0.0
C3678 C 0.88979 0.04869 0.02287 0.0
H3679 H 0.86794 0.05238 0.07749 0.0
H3680 H 0.86779 0.04091 0.05474 0.0
H3681 H 0.88905 0.04984 0.06877 0.0
H3682 H 0.92536 0.07851 0.04774 0.0
H3683 H 0.94208 0.06283 0.02675 0.0
H3684 H 0.33512 0.42997 0.04785 0.0
H3685 H 0.36445 0.44948 0.04705 0.0
H3686 H 0.38541 0.40325 0.02625 0.0
H3687 H 0.3551 0.38427 0.02462 0.0
H3688 H 0.39498 0.45429 0.06232 0.0
H3689 H 0.4033 0.4328 0.98965 0.0
H3690 H 0.3841 0.42232 1.00003 0.0
H3691 H 0.40527 0.41497 0.00364 0.0
C3692 C 0.3458 0.42415 0.04232 0.0
C3693 C 0.34245 0.40593 0.03493 0.0
C3694 C 0.36279 0.43526 0.04226 0.0
C3695 C 0.37727 0.42822 0.03571 0.0
C3696 C 0.37438 0.40945 0.03026 0.0
H3697 H 0.48962 0.48687 0.05351 0.0
H3698 H 0.46036 0.46756 0.05566 0.0
C3699 C 0.35708 0.39849 0.02957 0.0
C3700 C 0.3952 0.4406 0.03502 0.0
H3701 H 0.42892 0.45233 0.00764 0.0
C3702 C 0.4022 0.45383 0.05021 0.0
C3703 C 0.40507 0.44024 0.01937 0.0
C3704 C 0.39893 0.42691 1.00223 0.0
C3705 C 0.41838 0.46651 0.05016 0.0
C3706 C 0.42814 0.46592 0.03464 0.0
C3707 C 0.42134 0.45281 0.0195 0.0
C3708 C 0.44568 0.4785 0.03399 0.0
C3709 C 0.42481 0.48067 0.0666 0.0
C3710 C 0.44726 0.49106 0.02099 0.0
C3711 C 0.46403 0.5022 0.01973 0.0
C3712 C 0.47963 0.50086 0.0313 0.0
C3713 C 0.47792 0.48835 0.0444 0.0
C3714 C 0.46116 0.47732 0.04572 0.0
H3715 H 0.41409 0.48155 0.07584 0.0
H3716 H 0.43661 0.47726 0.07479 0.0
H3717 H 0.42927 0.49412 0.06193 0.0
H3718 H 0.43552 0.49213 0.01171 0.0
H3719 H 0.46486 0.51154 0.00937 0.0
H3720 H 0.3911 0.55756 0.79709 0.0
H3721 H 0.37779 0.58397 0.79521 0.0
H3722 H 0.39976 0.59266 0.74371 0.0
H3723 H 0.41266 0.56514 0.74507 0.0
H3724 H 0.39204 0.61808 0.79548 0.0
H3725 H 0.34718 0.59469 0.72915 0.0
H3726 H 0.35908 0.57983 0.74111 0.0
H3727 H 0.37103 0.59609 0.72806 0.0
C3728 C 0.39326 0.56502 0.78531 0.0
C3729 C 0.40291 0.55905 0.77114 0.0
C3730 C 0.38559 0.58024 0.78428 0.0
C3731 C 0.38742 0.59025 0.76918 0.0
C3732 C 0.39776 0.58494 0.75532 0.0
H3733 H 0.34807 0.6921 0.77013 0.0
H3734 H 0.36312 0.66721 0.76056 0.0
C3735 C 0.40541 0.5694 0.75625 0.0
C3736 C 0.37839 0.60614 0.76863 0.0
H3737 H 0.34441 0.62235 0.74522 0.0
C3738 C 0.38179 0.61907 0.78435 0.0
C3739 C 0.36486 0.60745 0.7542 0.0
C3740 C 0.36015 0.59374 0.73721 0.0
C3741 C 0.37172 0.63277 0.78633 0.0
C3742 C 0.35798 0.63382 0.77215 0.0
C3743 C 0.35494 0.62142 0.75608 0.0
C3744 C 0.34647 0.64756 0.77441 0.0
C3745 C 0.3754 0.64578 0.80388 0.0
C3746 C 0.33178 0.64457 0.78488 0.0
C3747 C 0.32315 0.65872 0.79026 0.0
C3748 C 0.32909 0.67604 0.78522 0.0
C3749 C 0.3431 0.67876 0.77389 0.0
C3750 C 0.35169 0.66459 0.76846 0.0
H3751 H 0.38747 0.64404 0.81299 0.0
H3752 H 0.37753 0.6599 0.80046 0.0
H3753 H 0.36346 0.64363 0.81171 0.0
H3754 H 0.3277 0.63156 0.78977 0.0
H3755 H 0.31259 0.65643 0.79928 0.0
H3756 H 0.22707 0.5893 0.54402 0.0
H3757 H 0.19577 0.57294 0.53936 0.0
H3758 H 0.17799 0.62395 0.5427 0.0
H3759 H 0.20905 0.63963 0.54201 0.0
H3760 H 0.16851 0.56714 0.55174 0.0
H3761 H 0.15089 0.60703 0.49547 0.0
H3762 H 0.17368 0.61031 0.5066 0.0
H3763 H 0.1573 0.62164 0.51668 0.0
C3764 C 0.21628 0.5967 0.54203 0.0
C3765 C 0.22003 0.61514 0.54032 0.0
C3766 C 0.19843 0.58754 0.5403 0.0
C3767 C 0.18432 0.5972 0.53882 0.0
C3768 C 0.1885 0.61612 0.54163 0.0
H3769 H 0.07663 0.56672 0.55093 0.0
H3770 H 0.10693 0.58245 0.54636 0.0
C3771 C 0.20623 0.62506 0.54152 0.0
C3772 C 0.16547 0.58757 0.53359 0.0
H3773 H 0.12591 0.58952 0.50774 0.0
C3774 C 0.15944 0.57184 0.54172 0.0
C3775 C 0.15354 0.59344 0.52023 0.0
C3776 C 0.15931 0.60889 0.50913 0.0
C3777 C 0.14167 0.56233 0.53748 0.0
C3778 C 0.12957 0.56928 0.52557 0.0
C3779 C 0.1355 0.5845 0.51693 0.0
C3780 C 0.11026 0.56243 0.52442 0.0
C3781 C 0.13566 0.54528 0.54619 0.0
C3782 C 0.10225 0.54657 0.51294 0.0
C3783 C 0.08504 0.53769 0.51551 0.0
C3784 C 0.0761 0.54479 0.52951 0.0
C3785 C 0.08355 0.56131 0.54001 0.0
C3786 C 0.10065 0.57023 0.53737 0.0
H3787 H 0.14695 0.54152 0.55491 0.0
H3788 H 0.1247 0.547 0.55488 0.0
H3789 H 0.13006 0.53395 0.53515 0.0
H3790 H 0.10977 0.54049 0.50302 0.0
H3791 H 0.07927 0.52477 0.5075 0.0
H3792 H 0.67659 0.98447 0.77047 0.0
H3793 H 0.68577 0.95511 0.76599 0.0
H3794 H 0.73281 0.97992 0.7419 0.0
H3795 H 0.72397 0.00927 0.74699 0.0
H3796 H 0.69543 0.93316 0.73559 0.0
H3797 H 0.75283 0.96302 0.7902 0.0
H3798 H 0.7339 0.97383 0.78519 0.0
H3799 H 0.75142 0.97488 0.77014 0.0
C3800 C 0.68884 0.98348 0.7642 0.0
C3801 C 0.70007 0.99889 0.75971 0.0
C3802 C 0.69391 0.96683 0.76141 0.0
C3803 C 0.71003 0.9656 0.75384 0.0
C3804 C 0.72046 0.98082 0.74801 0.0
H3805 H 0.77179 0.88452 0.77478 0.0
H3806 H 0.75965 0.90522 0.75595 0.0
C3807 C 0.7156 0.9975 0.75114 0.0
C3808 C 0.7173 0.94915 0.75477 0.0
H3809 H 0.75017 0.93275 0.77885 0.0
C3810 C 0.70755 0.933 0.74479 0.0
C3811 C 0.733 0.94921 0.76699 0.0
C3812 C 0.74334 0.9661 0.77888 0.0
C3813 C 0.71297 0.91661 0.74709 0.0
C3814 C 0.72838 0.91666 0.75964 0.0
C3815 C 0.73849 0.93293 0.76902 0.0
C3816 C 0.73319 0.90008 0.76546 0.0
C3817 C 0.70204 0.89938 0.73652 0.0
C3818 C 0.72199 0.88995 0.77646 0.0
C3819 C 0.72883 0.87799 0.78722 0.0
C3820 C 0.74697 0.87623 0.78716 0.0
C3821 C 0.75767 0.8854 0.77498 0.0
C3822 C 0.75078 0.8972 0.76415 0.0
H3823 H 0.69374 0.90204 0.72404 0.0
H3824 H 0.71101 0.89009 0.73221 0.0
H3825 H 0.69272 0.8925 0.74562 0.0
H3826 H 0.70848 0.89236 0.77792 0.0
H3827 H 0.72024 0.87086 0.79628 0.0
H3828 H 0.75248 0.9145 0.55851 0.0
H3829 H 0.72643 0.92948 0.56098 0.0
H3830 H 0.7083 0.91252 0.50304 0.0
H3831 H 0.73456 0.89803 0.50046 0.0
H3832 H 0.72008 0.95783 0.53436 0.0
H3833 H 0.66213 0.90075 0.53379 0.0
H3834 H 0.68514 0.89966 0.54228 0.0
H3835 H 0.67828 0.89758 0.5178 0.0
C3836 C 0.74254 0.91345 0.54651 0.0
C3837 C 0.74519 0.90474 0.5294 0.0
C3838 C 0.7278 0.92214 0.54788 0.0
C3839 C 0.71535 0.92195 0.53223 0.0
C3840 C 0.71761 0.91261 0.51533 0.0
H3841 H 0.62908 0.96493 0.48588 0.0
H3842 H 0.65023 0.94677 0.49748 0.0
C3843 C 0.73251 0.90424 0.51388 0.0
C3844 C 0.70093 0.93282 0.53288 0.0
H3845 H 0.65496 0.92895 0.52744 0.0
C3846 C 0.70583 0.95162 0.53322 0.0
C3847 C 0.68241 0.92464 0.53133 0.0
C3848 C 0.67656 0.90455 0.5314 0.0
C3849 C 0.69263 0.96235 0.53091 0.0
C3850 C 0.674 0.95407 0.52865 0.0
C3851 C 0.66918 0.93534 0.52923 0.0
C3852 C 0.65948 0.96413 0.52324 0.0
C3853 C 0.6988 0.98226 0.52973 0.0
C3854 C 0.65695 0.97959 0.53419 0.0
C3855 C 0.64476 0.99006 0.52751 0.0
C3856 C 0.63494 0.9852 0.5098 0.0
C3857 C 0.63661 0.96908 0.49951 0.0
C3858 C 0.64869 0.95867 0.50615 0.0
H3859 H 0.71344 0.98577 0.52805 0.0
H3860 H 0.69093 0.98659 0.51791 0.0
H3861 H 0.69656 0.99005 0.54266 0.0
H3862 H 0.66481 0.98387 0.54761 0.0
H3863 H 0.64375 1.00243 0.53571 0.0
H3864 H 0.41724 0.45154 0.77659 0.0
H3865 H 0.39621 0.42268 0.77661 0.0
H3866 H 0.35435 0.44301 0.74551 0.0
H3867 H 0.37516 0.47196 0.74618 0.0
H3868 H 0.33993 0.42676 0.77038 0.0
H3869 H 0.37942 0.38083 0.73821 0.0
H3870 H 0.3923 0.39375 0.75862 0.0
H3871 H 0.38581 0.40502 0.73912 0.0
C3872 C 0.40358 0.44972 0.76965 0.0
C3873 C 0.39771 0.46406 0.76169 0.0
C3874 C 0.39156 0.43316 0.76952 0.0
C3875 C 0.37362 0.43037 0.7608 0.0
C3876 C 0.36802 0.44464 0.75235 0.0
H3877 H 0.30294 0.32428 0.73716 0.0
H3878 H 0.32261 0.35349 0.7359 0.0
C3879 C 0.37993 0.46123 0.75275 0.0
C3880 C 0.36042 0.41301 0.76121 0.0
H3881 H 0.35463 0.36701 0.75325 0.0
C3882 C 0.34337 0.41377 0.76705 0.0
C3883 C 0.36425 0.39583 0.7557 0.0
C3884 C 0.38135 0.39378 0.74735 0.0
C3885 C 0.3305 0.39812 0.76843 0.0
C3886 C 0.33465 0.38094 0.76371 0.0
C3887 C 0.35147 0.38011 0.75725 0.0
C3888 C 0.32147 0.36369 0.76441 0.0
C3889 C 0.31243 0.40028 0.77452 0.0
C3890 C 0.31381 0.35964 0.78074 0.0
C3891 C 0.30202 0.34307 0.78128 0.0
C3892 C 0.2981 0.33004 0.76566 0.0
C3893 C 0.30561 0.33416 0.74935 0.0
C3894 C 0.317 0.3508 0.74868 0.0
H3895 H 0.30948 0.4138 0.77243 0.0
H3896 H 0.30122 0.38982 0.76689 0.0
H3897 H 0.31271 0.39892 0.78955 0.0
H3898 H 0.31738 0.36903 0.79326 0.0
H3899 H 0.29685 0.34001 0.79418 0.0
H3900 H 0.21584 0.57901 0.25021 0.0
H3901 H 0.232 0.60949 0.24775 0.0
H3902 H 0.19118 0.63161 0.27455 0.0
H3903 H 0.17481 0.60089 0.27693 0.0
H3904 H 0.20098 0.64537 0.23954 0.0
H3905 H 0.26012 0.64564 0.29173 0.0
H3906 H 0.25241 0.62585 0.27525 0.0
H3907 H 0.23804 0.63182 0.2922 0.0
C3908 C 0.21068 0.59041 0.25612 0.0
C3909 C 0.19457 0.5879 0.26436 0.0
C3910 C 0.21973 0.60769 0.25448 0.0
C3911 C 0.21271 0.62254 0.26109 0.0
C3912 C 0.19665 0.62011 0.26943 0.0
H3913 H 0.24323 0.73584 0.27494 0.0
H3914 H 0.22661 0.70469 0.26923 0.0
C3915 C 0.1875 0.60275 0.27095 0.0
C3916 C 0.22224 0.64068 0.25932 0.0
H3917 H 0.26067 0.67093 0.27604 0.0
C3918 C 0.21407 0.65104 0.24741 0.0
C3919 C 0.23927 0.64772 0.26954 0.0
C3920 C 0.24805 0.63727 0.28302 0.0
C3921 C 0.22263 0.66866 0.2457 0.0
C3922 C 0.23948 0.67572 0.25632 0.0
C3923 C 0.24778 0.66519 0.26781 0.0
C3924 C 0.24831 0.69449 0.25718 0.0
C3925 C 0.21368 0.6796 0.23274 0.0
C3926 C 0.26611 0.69859 0.25289 0.0
C3927 C 0.27585 0.71607 0.25683 0.0
C3928 C 0.26769 0.7297 0.26472 0.0
C3929 C 0.24979 0.72554 0.2689 0.0
C3930 C 0.24017 0.70793 0.26526 0.0
H3931 H 0.20354 0.67082 0.22205 0.0
H3932 H 0.20655 0.68864 0.24083 0.0
H3933 H 0.2239 0.68815 0.22574 0.0
H3934 H 0.2726 0.68813 0.24701 0.0
H3935 H 0.28966 0.71888 0.2535 0.0
H3936 H 0.4907 0.69912 0.43085 0.0
H3937 H 0.49363 0.67031 0.44237 0.0
H3938 H 0.52781 0.69922 0.49069 0.0
H3939 H 0.52388 0.72788 0.47976 0.0
H3940 H 0.51702 0.6517 0.44838 0.0
H3941 H 0.49939 0.6667 0.51897 0.0
H3942 H 0.49704 0.68167 0.5016 0.0
H3943 H 0.51875 0.68264 0.51482 0.0
C3944 C 0.4987 0.6994 0.44405 0.0
C3945 C 0.50682 0.71618 0.45435 0.0
C3946 C 0.50045 0.68271 0.45073 0.0
C3947 C 0.51057 0.68192 0.46794 0.0
C3948 C 0.51917 0.69879 0.47789 0.0
H3949 H 0.54135 0.59241 0.52813 0.0
H3950 H 0.53859 0.62151 0.51718 0.0
C3951 C 0.5171 0.71545 0.47142 0.0
C3952 C 0.51249 0.6637 0.47502 0.0
H3953 H 0.51225 0.64065 0.51367 0.0
C3954 C 0.51578 0.64943 0.46267 0.0
C3955 C 0.51103 0.66 0.49373 0.0
C3956 C 0.50617 0.67349 0.50798 0.0
C3957 C 0.51791 0.63235 0.46829 0.0
C3958 C 0.51661 0.62876 0.48699 0.0
C3959 C 0.51341 0.64299 0.49938 0.0
C3960 C 0.51832 0.61048 0.49386 0.0
C3961 C 0.52209 0.61846 0.45401 0.0
C3962 C 0.50777 0.59397 0.48494 0.0
C3963 C 0.50943 0.57713 0.49119 0.0
C3964 C 0.52156 0.5759 0.50685 0.0
C3965 C 0.53187 0.59244 0.51603 0.0
C3966 C 0.53026 0.6093 0.50971 0.0
H3967 H 0.52824 0.62482 0.44244 0.0
H3968 H 0.53148 0.61044 0.46025 0.0
H3969 H 0.5093 0.60913 0.44804 0.0
H3970 H 0.49796 0.59402 0.47313 0.0
H3971 H 0.501 0.56498 0.4837 0.0
H3972 H 0.61484 0.27175 0.62587 0.0
H3973 H 0.64213 0.26891 0.64563 0.0
H3974 H 0.63627 0.31472 0.68266 0.0
H3975 H 0.60835 0.31666 0.66367 0.0
H3976 H 0.67374 0.28589 0.65629 0.0
H3977 H 0.6422 0.28396 0.72131 0.0
H3978 H 0.62904 0.28355 0.6993 0.0
H3979 H 0.64113 0.30469 0.71189 0.0
C3980 C 0.61944 0.28131 0.63817 0.0
C3981 C 0.60924 0.29444 0.64308 0.0
C3982 C 0.63511 0.27963 0.64962 0.0
C3983 C 0.64132 0.29117 0.66629 0.0
C3984 C 0.63164 0.30496 0.67055 0.0
H3985 H 0.73659 0.3056 0.75103 0.0
H3986 H 0.70949 0.30869 0.73087 0.0
C3987 C 0.61571 0.30632 0.6594 0.0
C3988 C 0.65787 0.2889 0.67893 0.0
H3989 H 0.67439 0.28797 0.72444 0.0
C3990 C 0.67368 0.28621 0.67116 0.0
C3991 C 0.65826 0.28915 0.69854 0.0
C3992 C 0.64168 0.29029 0.70821 0.0
C3993 C 0.68959 0.28424 0.68216 0.0
C3994 C 0.69005 0.28493 0.70172 0.0
C3995 C 0.67431 0.28758 0.70954 0.0
C3996 C 0.70662 0.28289 0.71426 0.0
C3997 C 0.70597 0.28182 0.67268 0.0
C3998 C 0.71415 0.26723 0.71215 0.0
C3999 C 0.72967 0.26548 0.72371 0.0
C4000 C 0.73817 0.2793 0.73779 0.0
C4001 C 0.73048 0.29477 0.74022 0.0
C4002 C 0.71492 0.29652 0.72867 0.0
H4003 H 0.70517 0.28619 0.65857 0.0
H4004 H 0.71863 0.28955 0.68092 0.0
H4005 H 0.7068 0.26732 0.67126 0.0
H4006 H 0.70791 0.25622 0.70161 0.0
H4007 H 0.73502 0.25325 0.72165 0.0
H4008 H 0.98946 0.31578 0.97584 0.0
H4009 H 0.99163 0.34716 0.99007 0.0
H4010 H 0.03528 0.36516 0.95837 0.0
H4011 H 0.03303 0.33425 0.94418 0.0
H4012 H 0.01972 0.37594 0.01043 0.0
H4013 H 0.99802 0.39474 0.9416 0.0
H4014 H 0.99599 0.37154 0.94613 0.0
H4015 H 0.01742 0.38425 0.94176 0.0
C4016 C 0.99989 0.32634 0.97236 0.0
C4017 C 0.01117 0.32226 0.95889 0.0
C4018 C 1.00102 0.34441 0.98039 0.0
C4019 C 0.01336 0.35892 0.97507 0.0
C4020 C 0.02532 0.35456 0.96253 0.0
H4021 H 0.04132 0.47688 0.98875 0.0
H4022 H 0.03767 0.44437 0.98058 0.0
C4023 C 0.02416 0.33669 0.95454 0.0
C4024 C 0.01336 0.37861 0.98159 0.0
H4025 H 0.00966 0.41897 0.96531 0.0
C4026 C 0.01731 0.38528 1.00055 0.0
C4027 C 0.01027 0.39113 0.96892 0.0
C4028 C 1.00501 0.38507 0.94849 0.0
C4029 C 0.01893 0.40391 0.00695 0.0
C4030 C 0.01619 0.41649 0.99418 0.0
C4031 C 0.01189 0.40967 0.97529 0.0
C4032 C 0.01836 0.43675 0.9998 0.0
C4033 C 0.02434 0.41005 0.02733 0.0
C4034 C 0.00867 0.44395 0.01335 0.0
C4035 C 0.01081 0.46284 0.01818 0.0
C4036 C 0.02257 0.4753 0.00952 0.0
C4037 C 0.03209 0.46802 0.99587 0.0
C4038 C 0.02998 0.44921 0.99109 0.0
H4039 H 0.03062 0.40001 0.03441 0.0
H4040 H 0.03404 0.42318 0.02953 0.0
H4041 H 0.01209 0.41177 0.03398 0.0
H4042 H 0.99926 0.43497 0.02014 0.0
H4043 H 1.00334 0.46761 0.02887 0.0
H4044 H 0.99167 0.80459 0.12263 0.0
H4045 H 0.96758 0.8048 0.14273 0.0
H4046 H 0.98953 0.76719 0.17472 0.0
H4047 H 0.0144 0.76817 0.15542 0.0
H4048 H 0.94145 0.7812 0.14735 0.0
H4049 H 0.9802 0.79823 0.21685 0.0
H4050 H 0.99114 0.79993 0.19606 0.0
H4051 H 0.98587 0.77855 0.20523 0.0
C4052 C 0.99156 0.79672 0.13426 0.0
C4053 C 1.00508 0.7866 0.13764 0.0
C4054 C 0.9777 0.79675 0.14573 0.0
C4055 C 0.97667 0.78627 0.16067 0.0
C4056 C 0.9902 0.77601 0.16391 0.0
H4057 H 0.89303 0.7438 0.22569 0.0
H4058 H 0.92087 0.75283 0.2115 0.0
C4059 C 1.00441 0.77644 0.15275 0.0
C4060 C 0.9608 0.78514 0.17183 0.0
H4061 H 0.94869 0.78463 0.21591 0.0
C4062 C 0.94316 0.78227 0.16236 0.0
C4063 C 0.96272 0.78657 0.19152 0.0
C4064 C 0.98102 0.79119 0.20298 0.0
C4065 C 0.92762 0.78014 0.1718 0.0
C4066 C 0.92956 0.78083 0.19136 0.0
C4067 C 0.94712 0.78403 0.20091 0.0
C4068 C 0.91351 0.77688 0.20194 0.0
C4069 C 0.90917 0.77655 0.16064 0.0
C4070 C 0.90028 0.78776 0.20204 0.0
C4071 C 0.88435 0.78268 0.21039 0.0
C4072 C 0.88134 0.7666 0.21873 0.0
C4073 C 0.895 0.75628 0.21941 0.0
C4074 C 0.91091 0.76142 0.21125 0.0
H4075 H 0.90986 0.77303 0.14563 0.0
H4076 H 0.89989 0.7654 0.16566 0.0
H4077 H 0.90324 0.78885 0.16226 0.0
H4078 H 0.90203 0.7999 0.19521 0.0
H4079 H 0.87401 0.79081 0.20951 0.0
H4080 H 0.49259 0.2872 0.12987 0.0
H4081 H 0.49757 0.31583 0.11745 0.0
H4082 H 0.53815 0.33832 0.16356 0.0
H4083 H 0.53362 0.309 0.17606 0.0
H4084 H 0.49268 0.34788 0.12945 0.0
H4085 H 0.56554 0.3527 0.12118 0.0
H4086 H 0.55167 0.33245 0.12694 0.0
H4087 H 0.56051 0.35111 0.14456 0.0
C4088 C 0.50266 0.2981 0.13756 0.0
C4089 C 0.51275 0.29554 0.1541 0.0
C4090 C 0.50545 0.31463 0.13033 0.0
C4091 C 0.51838 0.32935 0.13932 0.0
C4092 C 0.52834 0.32711 0.15605 0.0
H4093 H 0.55084 0.43715 0.10531 0.0
H4094 H 0.54267 0.41229 0.12395 0.0
C4095 C 0.52563 0.31035 0.16331 0.0
C4096 C 0.52106 0.3468 0.13088 0.0
H4097 H 0.55242 0.37729 0.11336 0.0
C4098 C 0.50579 0.35431 0.12601 0.0
C4099 C 0.5381 0.35524 0.12615 0.0
C4100 C 0.55487 0.34741 0.12979 0.0
C4101 C 0.50705 0.36979 0.1166 0.0
C4102 C 0.52405 0.37818 0.11192 0.0
C4103 C 0.53938 0.37093 0.11704 0.0
C4104 C 0.52627 0.39423 0.10135 0.0
C4105 C 0.4902 0.37712 0.1117 0.0
C4106 C 0.51924 0.39265 0.08255 0.0
C4107 C 0.52381 0.40696 0.0719 0.0
C4108 C 0.53537 0.42315 0.07988 0.0
C4109 C 0.54148 0.42505 0.09893 0.0
C4110 C 0.53702 0.41075 0.10953 0.0
H4111 H 0.47883 0.37122 0.11919 0.0
H4112 H 0.49298 0.39204 0.11496 0.0
H4113 H 0.48587 0.37387 0.09659 0.0
H4114 H 0.51116 0.37997 0.07582 0.0
H4115 H 0.51943 0.40488 0.05713 0.0
H4116 H 0.98213 0.3157 0.36937 0.0
H4117 H 0.95049 0.31279 0.35623 0.0
H4118 H 0.96234 0.28681 0.305 0.0
H4119 H 0.99385 0.28894 0.31858 0.0
H4120 H 0.93279 0.32494 0.3289 0.0
H4121 H 0.91947 0.25054 0.31223 0.0
H4122 H 0.94019 0.2628 0.32552 0.0
H4123 H 0.93724 0.26206 0.30065 0.0
C4124 C 0.97806 0.30948 0.35523 0.0
C4125 C 0.99088 0.30307 0.34493 0.0
C4126 C 0.95981 0.3078 0.34765 0.0
C4127 C 0.95347 0.29929 0.32955 0.0
C4128 C 0.96637 0.29305 0.31912 0.0
H4129 H 0.84455 0.30053 0.27037 0.0
H4130 H 0.87724 0.30541 0.28012 0.0
C4131 C 0.98466 0.29464 0.32678 0.0
C4132 C 0.93346 0.29686 0.32201 0.0
H4133 H 0.89565 0.26523 0.30311 0.0
C4134 C 0.92479 0.31184 0.3232 0.0
C4135 C 0.92252 0.27982 0.31458 0.0
C4136 C 0.93025 0.26285 0.31329 0.0
C4137 C 0.90602 0.31029 0.31731 0.0
C4138 C 0.89518 0.29329 0.30993 0.0
C4139 C 0.90376 0.27832 0.30867 0.0
C4140 C 0.8749 0.29071 0.30402 0.0
C4141 C 0.89768 0.32682 0.31954 0.0
C4142 C 0.86223 0.28069 0.31392 0.0
C4143 C 0.84336 0.27809 0.30847 0.0
C4144 C 0.83637 0.28534 0.29282 0.0
C4145 C 0.84911 0.29522 0.28282 0.0
C4146 C 0.86799 0.29791 0.28834 0.0
H4147 H 0.90736 0.33867 0.32716 0.0
H4148 H 0.89312 0.33032 0.30567 0.0
H4149 H 0.88558 0.32401 0.32707 0.0
H4150 H 0.86696 0.27491 0.32604 0.0
H4151 H 0.83421 0.27037 0.31662 0.0
H4152 H 0.01364 0.71363 0.6285 0.0
H4153 H 0.01631 0.68601 0.60961 0.0
H4154 H 0.01743 0.65823 0.65828 0.0
H4155 H 0.01519 0.68615 0.67752 0.0
H4156 H 0.04775 0.66168 0.62087 0.0
H4157 H 0.97469 0.62909 0.61097 0.0
H4158 H 0.98184 0.65338 0.6142 0.0
H4159 H 0.98494 0.6407 0.63332 0.0
C4160 C 0.01424 0.70164 0.63528 0.0
C4161 C 0.014 0.70226 0.65467 0.0
C4162 C 0.01588 0.6858 0.62438 0.0
C4163 C 0.01705 0.66987 0.63236 0.0
C4164 C 0.01656 0.67027 0.65168 0.0
H4165 H 0.01238 0.55925 0.57937 0.0
H4166 H 0.01003 0.5861 0.59966 0.0
C4167 C 0.01521 0.68628 0.6627 0.0
C4168 C 0.01899 0.65304 0.62046 0.0
H4169 H 0.99461 0.61353 0.59641 0.0
C4170 C 0.03613 0.65112 0.61556 0.0
C4171 C 1.00394 0.63915 0.61347 0.0
C4172 C 0.98523 0.64051 0.61813 0.0
C4173 C 0.03863 0.63578 0.60414 0.0
C4174 C 0.02348 0.62195 0.59675 0.0
C4175 C 0.00633 0.62391 0.60181 0.0
C4176 C 0.02508 0.60534 0.58403 0.0
C4177 C 0.05769 0.6344 0.60062 0.0
C4178 C 0.03409 0.60672 0.56803 0.0
C4179 C 0.03576 0.59122 0.55649 0.0
C4180 C 0.02813 0.57369 0.56023 0.0
C4181 C 0.01867 0.57235 0.57596 0.0
C4182 C 0.01721 0.58784 0.58763 0.0
H4183 H 0.06785 0.64252 0.61174 0.0
H4184 H 0.05958 0.62019 0.5997 0.0
H4185 H 0.06051 0.63975 0.58737 0.0
H4186 H 0.03983 0.61986 0.56431 0.0
H4187 H 0.0432 0.59306 0.54465 0.0
H4188 H 0.59742 0.83501 0.83695 0.0
H4189 H 0.62673 0.83101 0.82691 0.0
H4190 H 0.61459 0.77499 0.83551 0.0
H4191 H 0.5855 0.77908 0.84621 0.0
H4192 H 0.65677 0.81009 0.85004 0.0
H4193 H 0.62939 0.78359 0.77715 0.0
H4194 H 0.61872 0.79894 0.7907 0.0
H4195 H 0.6169 0.77609 0.79576 0.0
C4196 C 0.60097 0.82183 0.83689 0.0
C4197 C 0.58885 0.80747 0.84272 0.0
C4198 C 0.61788 0.81953 0.83105 0.0
C4199 C 0.62326 0.80265 0.83027 0.0
C4200 C 0.61113 0.78823 0.83595 0.0
H4201 H 0.7139 0.76368 0.77942 0.0
H4202 H 0.68505 0.76714 0.79041 0.0
C4203 C 0.59439 0.79063 0.84222 0.0
C4204 C 0.64138 0.80015 0.82359 0.0
H4205 H 0.66069 0.78607 0.78529 0.0
C4206 C 0.65757 0.80488 0.83585 0.0
C4207 C 0.64283 0.79311 0.80516 0.0
C4208 C 0.62613 0.78762 0.79127 0.0
C4209 C 0.67474 0.8027 0.83037 0.0
C4210 C 0.67637 0.79615 0.81171 0.0
C4211 C 0.66003 0.79125 0.79952 0.0
C4212 C 0.69462 0.79409 0.8047 0.0
C4213 C 0.69086 0.80685 0.84508 0.0
C4214 C 0.71027 0.808 0.8084 0.0
C4215 C 0.72711 0.80588 0.80223 0.0
C4216 C 0.72914 0.78986 0.79171 0.0
C4217 C 0.71335 0.77617 0.78753 0.0
C4218 C 0.69655 0.77822 0.79386 0.0
H4219 H 0.68663 0.80556 0.85912 0.0
H4220 H 0.70049 0.79772 0.84262 0.0
H4221 H 0.69801 0.82099 0.84501 0.0
H4222 H 0.70955 0.82075 0.81598 0.0
H4223 H 0.7386 0.81698 0.80573 0.0
H4224 H 0.47088 0.51324 0.72061 0.0
H4225 H 0.48285 0.5155 0.69066 0.0
H4226 H 0.43119 0.52317 0.66589 0.0
H4227 H 0.41893 0.52046 0.69583 0.0
H4228 H 0.45963 0.49232 0.64991 0.0
H4229 H 0.48105 0.56717 0.65857 0.0
H4230 H 0.48109 0.55444 0.67826 0.0
H4231 H 0.45999 0.55689 0.66634 0.0
C4232 C 0.46202 0.51546 0.70883 0.0
C4233 C 0.44389 0.51669 0.71075 0.0
C4234 C 0.46891 0.5167 0.69164 0.0
C4235 C 0.458 0.51956 0.6759 0.0
C4236 C 0.43992 0.52092 0.67775 0.0
H4237 H 0.48428 0.5414 0.5636 0.0
H4238 H 0.47059 0.53966 0.59282 0.0
C4239 C 0.4329 0.51935 0.69491 0.0
C4240 C 0.46555 0.52103 0.65761 0.0
H4241 H 0.48634 0.55153 0.63078 0.0
C4242 C 0.46543 0.50527 0.64573 0.0
C4243 C 0.47319 0.53788 0.65203 0.0
C4244 C 0.47397 0.55516 0.66438 0.0
C4245 C 0.47262 0.50593 0.62855 0.0
C4246 C 0.48043 0.5228 0.62299 0.0
C4247 C 0.48039 0.53857 0.63484 0.0
C4248 C 0.48897 0.52422 0.60517 0.0
C4249 C 0.47157 0.4885 0.6163 0.0
C4250 C 0.50409 0.5164 0.60225 0.0
C4251 C 0.51199 0.51748 0.58562 0.0
C4252 C 0.50505 0.52639 0.57125 0.0
C4253 C 0.48999 0.53436 0.57423 0.0
C4254 C 0.48216 0.53341 0.591 0.0
H4255 H 0.46131 0.4774 0.62013 0.0
H4256 H 0.46817 0.49017 0.6015 0.0
H4257 H 0.48494 0.48442 0.61783 0.0
H4258 H 0.50988 0.50948 0.61293 0.0
H4259 H 0.52354 0.51116 0.58397 0.0
H4260 H 0.77529 0.13055 0.97071 0.0
H4261 H 0.77858 0.14966 0.94575 0.0
H4262 H 0.77786 0.1964 0.98407 0.0
H4263 H 0.77485 0.17753 0.00923 0.0
H4264 H 0.75118 0.1684 0.93695 0.0
H4265 H 0.81815 0.21499 0.95246 0.0
H4266 H 0.81302 0.19388 0.96224 0.0
H4267 H 0.80482 0.2132 0.97154 0.0
C4268 C 0.77621 0.14495 0.97393 0.0
C4269 C 0.77469 0.15252 0.9919 0.0
C4270 C 0.7782 0.15583 0.95969 0.0
C4271 C 0.77872 0.1744 0.96321 0.0
C4272 C 0.77795 0.18214 0.98124 0.0
H4273 H 0.75005 0.25319 0.8961 0.0
H4274 H 0.76226 0.23831 0.92147 0.0
C4275 C 0.77606 0.1713 0.99554 0.0
C4276 C 0.7771 0.18505 0.94762 0.0
H4277 H 0.79704 0.22228 0.92911 0.0
C4278 C 0.76131 0.18004 0.93508 0.0
C4279 C 0.79028 0.20032 0.94552 0.0
C4280 C 0.80761 0.20588 0.95856 0.0
C4281 C 0.75813 0.19009 0.92053 0.0
C4282 C 0.77125 0.20539 0.9184 0.0
C4283 C 0.78713 0.21045 0.93087 0.0
C4284 C 0.76805 0.21634 0.9034 0.0
C4285 C 0.74056 0.18454 0.90778 0.0
C4286 C 0.76783 0.20903 0.88502 0.0
C4287 C 0.76051 0.21718 0.87061 0.0
C4288 C 0.7535 0.2329 0.87441 0.0
C4289 C 0.75495 0.24087 0.89283 0.0
C4290 C 0.76218 0.2326 0.90727 0.0
H4291 H 0.73053 0.17446 0.9134 0.0
H4292 H 0.73443 0.19645 0.90538 0.0
H4293 H 0.74332 0.17844 0.89417 0.0
H4294 H 0.77226 0.1964 0.88191 0.0
H4295 H 0.75952 0.21065 0.85659 0.0
H4296 H 0.12955 0.50954 0.20587 0.0
H4297 H 0.11245 0.50909 0.17561 0.0
H4298 H 0.15115 0.55514 0.1645 0.0
H4299 H 0.16871 0.55519 0.1945 0.0
H4300 H 0.09738 0.53813 0.16867 0.0
H4301 H 0.14181 0.52324 0.11513 0.0
H4302 H 0.14616 0.51886 0.13887 0.0
H4303 H 0.1519 0.54144 0.13278 0.0
C4304 C 0.13465 0.51921 0.1967 0.0
C4305 C 0.15027 0.53246 0.20236 0.0
C4306 C 0.12492 0.51896 0.17952 0.0
C4307 C 0.13061 0.5321 0.16799 0.0
C4308 C 0.14679 0.54472 0.17315 0.0
H4309 H 0.05504 0.55967 0.08205 0.0
H4310 H 0.07641 0.56205 0.11021 0.0
C4311 C 0.15674 0.54476 0.19025 0.0
C4312 C 0.1184 0.53384 0.15174 0.0
H4313 H 0.11432 0.53183 0.10475 0.0
C4314 C 0.10104 0.53677 0.15466 0.0
C4315 C 0.12343 0.53218 0.13365 0.0
C4316 C 0.14179 0.52861 0.12984 0.0
C4317 C 0.08825 0.53749 0.13978 0.0
C4318 C 0.09325 0.53565 0.12171 0.0
C4319 C 0.11076 0.5333 0.11879 0.0
C4320 C 0.08003 0.53441 0.10548 0.0
C4321 C 0.06933 0.53942 0.14338 0.0
C4322 C 0.07529 0.51812 0.09379 0.0
C4323 C 0.06346 0.51685 0.07777 0.0
C4324 C 0.05614 0.53179 0.0735 0.0
C4325 C 0.06046 0.54797 0.08542 0.0
C4326 C 0.07258 0.54934 0.10135 0.0
H4327 H 0.06703 0.53805 0.15802 0.0
H4328 H 0.0671 0.5529 0.14023 0.0
H4329 H 0.05911 0.52908 0.13421 0.0
H4330 H 0.08092 0.50649 0.09697 0.0
H4331 H 0.06011 0.50424 0.06869 0.0
H4332 H 0.80409 0.84349 0.48666 0.0
H4333 H 0.80275 0.8272 0.45548 0.0
H4334 H 0.76296 0.85655 0.43461 0.0
H4335 H 0.76468 0.87309 0.46535 0.0
H4336 H 0.77574 0.80561 0.42919 0.0
H4337 H 0.80243 0.86965 0.40195 0.0
H4338 H 0.80246 0.86798 0.42644 0.0
H4339 H 0.78213 0.87024 0.4126 0.0
C4340 C 0.79477 0.84613 0.47549 0.0
C4341 C 0.78452 0.85962 0.47849 0.0
C4342 C 0.79409 0.83691 0.45761 0.0
C4343 C 0.78312 0.84097 0.44245 0.0
C4344 C 0.77196 0.85351 0.44583 0.0
H4345 H 0.76469 0.81606 0.3225 0.0
H4346 H 0.76508 0.82698 0.35513 0.0
C4347 C 0.77281 0.86284 0.46351 0.0
C4348 C 0.78379 0.83286 0.42297 0.0
H4349 H 0.79119 0.84418 0.37965 0.0
C4350 C 0.77924 0.81403 0.41838 0.0
C4351 C 0.78838 0.84376 0.40873 0.0
C4352 C 0.7943 0.86401 0.41268 0.0
C4353 C 0.77848 0.8059 0.39996 0.0
C4354 C 0.78283 0.81685 0.38566 0.0
C4355 C 0.78771 0.83567 0.3904 0.0
C4356 C 0.78212 0.80933 0.36566 0.0
C4357 C 0.77234 0.7857 0.39599 0.0
C4358 C 0.79151 0.79565 0.36033 0.0
C4359 C 0.79099 0.78907 0.34155 0.0
C4360 C 0.78158 0.7964 0.32747 0.0
C4361 C 0.77225 0.81014 0.33283 0.0
C4362 C 0.77248 0.81645 0.35159 0.0
H4363 H 0.76434 0.78011 0.40683 0.0
H4364 H 0.76397 0.78183 0.38233 0.0
H4365 H 0.78441 0.77933 0.39585 0.0
H4366 H 0.79948 0.79015 0.37066 0.0
H4367 H 0.79806 0.7783 0.33812 0.0
H4368 H 0.44816 0.48852 0.81831 0.0
H4369 H 0.46368 0.49115 0.84985 0.0
H4370 H 0.46578 0.54863 0.85541 0.0
H4371 H 0.44931 0.54573 0.82421 0.0
H4372 H 0.49441 0.50662 0.86829 0.0
H4373 H 0.44262 0.538 0.90025 0.0
H4374 H 0.43974 0.52935 0.87607 0.0
H4375 H 0.45328 0.55142 0.884 0.0
C4376 C 0.45222 0.50175 0.82618 0.0
C4377 C 0.4477 0.51695 0.8187 0.0
C4378 C 0.46104 0.50327 0.84431 0.0
C4379 C 0.46557 0.52004 0.85549 0.0
C4380 C 0.46196 0.53541 0.84753 0.0
H4381 H 0.52029 0.55173 0.96924 0.0
H4382 H 0.5076 0.55112 0.9369 0.0
C4383 C 0.45285 0.53383 0.8295 0.0
C4384 C 0.47371 0.52123 0.87541 0.0
H4385 H 0.46903 0.53668 0.92014 0.0
C4386 C 0.48875 0.51315 0.87956 0.0
C4387 C 0.46642 0.52963 0.89042 0.0
C4388 C 0.44952 0.53742 0.88751 0.0
C4389 C 0.49668 0.51341 0.89797 0.0
C4390 C 0.48952 0.522 0.91283 0.0
C4391 C 0.47463 0.53019 0.90878 0.0
C4392 C 0.49714 0.52234 0.93268 0.0
C4393 C 0.51282 0.50462 0.90143 0.0
C4394 C 0.49523 0.50645 0.94136 0.0
C4395 C 0.50225 0.5068 0.95999 0.0
C4396 C 0.51168 0.52298 0.9704 0.0
C4397 C 0.51335 0.53893 0.96171 0.0
C4398 C 0.50607 0.53863 0.94315 0.0
H4399 H 0.51883 0.50153 0.88848 0.0
H4400 H 0.52341 0.51345 0.91162 0.0
H4401 H 0.50852 0.49178 0.90734 0.0
H4402 H 0.48811 0.49375 0.93376 0.0
H4403 H 0.50015 0.49438 0.96624 0.0
H4404 H 0.75538 0.13954 0.10545 0.0
H4405 H 0.75608 0.15728 0.13541 0.0
H4406 H 0.80203 0.19547 0.12319 0.0
H4407 H 0.80095 0.17818 0.09292 0.0
H4408 H 0.78081 0.16987 0.16592 0.0
H4409 H 0.76376 0.2261 0.12882 0.0
H4410 H 0.76301 0.20388 0.11714 0.0
H4411 H 0.78428 0.21957 0.12286 0.0
C4412 C 0.76585 0.15152 0.10935 0.0
C4413 C 0.77793 0.15775 0.09689 0.0
C4414 C 0.7662 0.16162 0.12639 0.0
C4415 C 0.77877 0.17788 0.13114 0.0
C4416 C 0.79191 0.1832 0.11943 0.0
H4417 H 0.80475 0.24445 0.23478 0.0
H4418 H 0.8032 0.22285 0.20743 0.0
C4419 C 0.79135 0.1733 0.10226 0.0
C4420 C 0.7773 0.18994 0.14764 0.0
H4421 H 0.77183 0.23254 0.16143 0.0
C4422 C 0.77874 0.18354 0.16499 0.0
C4423 C 0.77409 0.20755 0.14619 0.0
C4424 C 0.77099 0.21463 0.12773 0.0
C4425 C 0.77769 0.19462 0.18114 0.0
C4426 C 0.77562 0.21259 0.17977 0.0
C4427 C 0.77359 0.21877 0.16236 0.0
C4428 C 0.77633 0.22549 0.19625 0.0
C4429 C 0.77869 0.18695 0.19947 0.0
C4430 C 0.76204 0.23465 0.19849 0.0
C4431 C 0.76312 0.24738 0.21384 0.0
C4432 C 0.77839 0.2508 0.22712 0.0
C4433 C 0.79271 0.24173 0.22479 0.0
C4434 C 0.79178 0.22933 0.20931 0.0
H4435 H 0.77448 0.17201 0.19757 0.0
H4436 H 0.79288 0.19036 0.20622 0.0
H4437 H 0.76997 0.19264 0.20892 0.0
H4438 H 0.75008 0.23191 0.18839 0.0
H4439 H 0.75195 0.25427 0.21554 0.0
H4440 H 0.16037 0.50976 0.31298 0.0
H4441 H 0.14049 0.50637 0.33771 0.0
H4442 H 0.12557 0.5574 0.32871 0.0
H4443 H 0.14462 0.56025 0.30356 0.0
H4444 H 0.14411 0.52838 0.3692 0.0
H4445 H 0.07689 0.52696 0.33128 0.0
H4446 H 0.0961 0.52348 0.31947 0.0
H4447 H 0.09295 0.546 0.32659 0.0
C4448 C 0.15253 0.52 0.31623 0.0
C4449 C 0.15366 0.53514 0.30656 0.0
C4450 C 0.14123 0.51807 0.33019 0.0
C4451 C 0.13125 0.5314 0.33464 0.0
C4452 C 0.1326 0.54662 0.32497 0.0
H4453 H 0.09996 0.58493 0.42441 0.0
H4454 H 0.1149 0.57055 0.40034 0.0
C4455 C 0.14356 0.54835 0.3108 0.0
C4456 C 0.12082 0.53056 0.35059 0.0
H4457 H 0.08096 0.53857 0.36414 0.0
C4458 C 0.13013 0.53008 0.36808 0.0
C4459 C 0.10254 0.53255 0.34902 0.0
C4460 C 0.09152 0.53208 0.33052 0.0
C4461 C 0.12208 0.5332 0.38422 0.0
C4462 C 0.10446 0.53694 0.38262 0.0
C4463 C 0.09459 0.53584 0.36516 0.0
C4464 C 0.09695 0.54451 0.39862 0.0
C4465 C 0.13269 0.53342 0.40286 0.0
C4466 C 0.08204 0.53448 0.40537 0.0
C4467 C 0.07361 0.54262 0.41908 0.0
C4468 C 0.07982 0.56093 0.42579 0.0
C4469 C 0.09488 0.57087 0.41916 0.0
C4470 C 0.10349 0.56265 0.40568 0.0
H4471 H 0.14433 0.5265 0.40174 0.0
H4472 H 0.13802 0.54762 0.40891 0.0
H4473 H 0.12381 0.5268 0.41251 0.0
H4474 H 0.07678 0.52052 0.39982 0.0
H4475 H 0.06202 0.53476 0.42418 0.0
H4476 H 0.7946 0.8905 0.60274 0.0
H4477 H 0.79209 0.87883 0.63289 0.0
H4478 H 0.77574 0.82464 0.60521 0.0
H4479 H 0.77814 0.83613 0.57517 0.0
H4480 H 0.76038 0.85572 0.64592 0.0
H4481 H 0.81986 0.82258 0.64364 0.0
H4482 H 0.81627 0.83995 0.62921 0.0
H4483 H 0.8033 0.8174 0.62349 0.0
C4484 C 0.79041 0.8761 0.60305 0.0
C4485 C 0.78664 0.86429 0.58642 0.0
C4486 C 0.78897 0.86944 0.62033 0.0
C4487 C 0.78392 0.8508 0.62144 0.0
C4488 C 0.7799 0.83904 0.60484 0.0
H4489 H 0.78118 0.78129 0.70982 0.0
H4490 H 0.7811 0.79447 0.68082 0.0
C4491 C 0.78122 0.84568 0.5876 0.0
C4492 C 0.78294 0.84355 0.63984 0.0
H4493 H 0.80241 0.81737 0.66829 0.0
C4494 C 0.7696 0.84738 0.65088 0.0
C4495 C 0.7948 0.83248 0.64628 0.0
C4496 C 0.80947 0.82791 0.63516 0.0
C4497 C 0.76746 0.84009 0.66785 0.0
C4498 C 0.77955 0.82921 0.67453 0.0
C4499 C 0.79304 0.82562 0.66346 0.0
C4500 C 0.77832 0.82099 0.69257 0.0
C4501 C 0.7517 0.84357 0.67789 0.0
C4502 C 0.77669 0.83121 0.70931 0.0
C4503 C 0.77573 0.8233 0.72599 0.0
C4504 C 0.77702 0.80508 0.72662 0.0
C4505 C 0.77933 0.7951 0.70999 0.0
C4506 C 0.77965 0.8028 0.69327 0.0
H4507 H 0.74062 0.84653 0.66823 0.0
H4508 H 0.74608 0.83184 0.68498 0.0
H4509 H 0.75631 0.85555 0.68837 0.0
H4510 H 0.77648 0.84544 0.70966 0.0
H4511 H 0.77442 0.83164 0.73849 0.0
H4512 H 0.75107 0.4633 0.47196 0.0
H4513 H 0.72208 0.47249 0.47529 0.0
H4514 H 0.71259 0.4375 0.51798 0.0
H4515 H 0.74141 0.42824 0.51495 0.0
H4516 H 0.68276 0.44765 0.47715 0.0
H4517 H 0.71765 0.49428 0.5391 0.0
H4518 H 0.72977 0.48604 0.52102 0.0
H4519 H 0.72161 0.47156 0.53769 0.0
C4520 C 0.74271 0.45741 0.48191 0.0
C4521 C 0.74854 0.4452 0.49334 0.0
C4522 C 0.72617 0.46255 0.48363 0.0
C4523 C 0.71545 0.45554 0.49679 0.0
C4524 C 0.72082 0.44283 0.50766 0.0
H4525 H 0.63087 0.47401 0.55595 0.0
H4526 H 0.65037 0.45941 0.5371 0.0
C4527 C 0.73728 0.43765 0.50594 0.0
C4528 C 0.69973 0.46304 0.50092 0.0
H4529 H 0.68566 0.4897 0.53431 0.0
C4530 C 0.6833 0.45702 0.48948 0.0
C4531 C 0.70084 0.47529 0.51696 0.0
C4532 C 0.71843 0.48232 0.52938 0.0
C4533 C 0.6675 0.46252 0.49426 0.0
C4534 C 0.66852 0.47413 0.51074 0.0
C4535 C 0.68511 0.48065 0.52173 0.0
C4536 C 0.6526 0.47934 0.51772 0.0
C4537 C 0.64979 0.45558 0.48218 0.0
C4538 C 0.64722 0.49499 0.51256 0.0
C4539 C 0.63627 0.50338 0.52333 0.0
C4540 C 0.63089 0.49625 0.53945 0.0
C4541 C 0.63522 0.47986 0.54377 0.0
C4542 C 0.64603 0.4714 0.5329 0.0
H4543 H 0.65137 0.44673 0.46964 0.0
H4544 H 0.63996 0.44785 0.49025 0.0
H4545 H 0.64399 0.46713 0.47778 0.0
H4546 H 0.65257 0.50139 0.50106 0.0
H4547 H 0.63298 0.51602 0.51976 0.0
H4548 H 0.20097 0.16843 0.50619 0.0
H4549 H 0.17241 0.14949 0.51097 0.0
H4550 H 0.19776 0.10287 0.5075 0.0
H4551 H 0.22688 0.12286 0.50887 0.0
H4552 H 0.14885 0.1281 0.49631 0.0
H4553 H 0.17416 0.08642 0.54662 0.0
H4554 H 0.18908 0.10525 0.53975 0.0
H4555 H 0.18495 0.0832 0.52625 0.0
C4556 C 0.20041 0.15413 0.5067 0.0
C4557 C 0.21614 0.1469 0.50558 0.0
C4558 C 0.18391 0.14312 0.50926 0.0
C4559 C 0.18237 0.12433 0.5099 0.0
C4560 C 0.19811 0.11719 0.50806 0.0
H4561 H 0.07161 0.0591 0.48974 0.0
H4562 H 0.10124 0.0775 0.48705 0.0
C4563 C 0.21485 0.1285 0.5074 0.0
C4564 C 0.16446 0.11244 0.51224 0.0
H4565 H 0.14506 0.07415 0.52988 0.0
C4566 C 0.14825 0.11661 0.50411 0.0
C4567 C 0.16292 0.09733 0.52262 0.0
C4568 C 0.17872 0.09298 0.53446 0.0
C4569 C 0.13106 0.10648 0.50603 0.0
C4570 C 0.12974 0.09039 0.51467 0.0
C4571 C 0.14582 0.08617 0.52284 0.0
C4572 C 0.11192 0.07804 0.51584 0.0
C4573 C 0.11459 0.11382 0.49951 0.0
C4574 C 0.1082 0.07084 0.53248 0.0
C4575 C 0.0916 0.05939 0.53366 0.0
C4576 C 0.07805 0.05533 0.51843 0.0
C4577 C 0.08174 0.06223 0.50176 0.0
C4578 C 0.09864 0.07303 0.50033 0.0
H4579 H 0.11785 0.12878 0.50027 0.0
H4580 H 0.10994 0.10848 0.4848 0.0
H4581 H 0.10333 0.11008 0.50797 0.0
H4582 H 0.11802 0.07429 0.54473 0.0
H4583 H 0.08907 0.05432 0.54673 0.0
H4584 H 0.17408 0.9992 0.81768 0.0
H4585 H 0.18608 0.97171 0.81259 0.0
H4586 H 0.15837 0.96128 0.75699 0.0
H4587 H 0.14636 0.98913 0.76193 0.0
H4588 H 0.17066 0.93546 0.80288 0.0
H4589 H 0.21172 0.96288 0.74924 0.0
H4590 H 0.20084 0.97675 0.76421 0.0
H4591 H 0.18787 0.96249 0.74451 0.0
C4592 C 0.17036 0.99102 0.80437 0.0
C4593 C 0.15938 0.99651 0.79012 0.0
C4594 C 0.17722 0.97523 0.80152 0.0
C4595 C 0.17342 0.96456 0.78432 0.0
C4596 C 0.16174 0.96948 0.7703 0.0
H4597 H 0.21416 0.87117 0.74023 0.0
H4598 H 0.19504 0.89325 0.74724 0.0
C4599 C 0.15474 0.98531 0.77318 0.0
C4600 C 0.18244 0.94886 0.78097 0.0
H4601 H 0.21246 0.93286 0.7548 0.0
C4602 C 0.17975 0.93486 0.79232 0.0
C4603 C 0.19458 0.94822 0.76743 0.0
C4604 C 0.19912 0.96344 0.75575 0.0
C4605 C 0.18862 0.92014 0.79026 0.0
C4606 C 0.20047 0.9194 0.77651 0.0
C4607 C 0.20319 0.93338 0.7652 0.0
C4608 C 0.21044 0.90439 0.77368 0.0
C4609 C 0.18517 0.90535 0.80261 0.0
C4610 C 0.22521 0.90308 0.78641 0.0
C4611 C 0.23605 0.89039 0.78246 0.0
C4612 C 0.2323 0.87888 0.76572 0.0
C4613 C 0.21715 0.87976 0.75333 0.0
C4614 C 0.2063 0.8924 0.75728 0.0
H4615 H 0.17412 0.9069 0.81124 0.0
H4616 H 0.18158 0.89198 0.7941 0.0
H4617 H 0.19771 0.90553 0.81195 0.0
H4618 H 0.22882 0.9124 0.799 0.0
H4619 H 0.2479 0.8902 0.79201 0.0
H4620 H 0.35285 0.92546 0.98684 0.0
H4621 H 0.38352 0.94412 0.99369 0.0
H4622 H 0.36276 0.98357 0.02767 0.0
H4623 H 0.33229 0.96515 0.02069 0.0
H4624 H 0.38616 0.99826 0.00369 0.0
H4625 H 0.41397 0.94951 0.04465 0.0
H4626 H 0.40366 0.94004 0.02174 0.0
H4627 H 0.38995 0.94783 0.03837 0.0
C4628 C 0.355 0.93819 0.99562 0.0
C4629 C 0.34054 0.94426 0.00301 0.0
C4630 C 0.37234 0.9487 0.99959 0.0
C4631 C 0.37517 0.96494 0.01138 0.0
C4632 C 0.36065 0.971 0.01861 0.0
H4633 H 0.4836 0.02755 0.05217 0.0
H4634 H 0.45136 0.01426 0.05265 0.0
C4635 C 0.34338 0.9606 0.01455 0.0
C4636 C 0.39334 0.97567 0.01634 0.0
H4637 H 0.43538 0.97404 0.03649 0.0
C4638 C 0.39689 0.99306 0.01095 0.0
C4639 C 0.40702 0.96889 0.02636 0.0
C4640 C 0.40345 0.9506 0.03329 0.0
C4641 C 0.41429 1.00353 0.01425 0.0
C4642 C 0.42815 0.99629 0.02324 0.0
C4643 C 0.42445 0.97938 0.02965 0.0
C4644 C 0.44696 0.00473 0.02333 0.0
C4645 C 0.41798 0.02185 0.00741 0.0
C4646 C 0.45466 1.00334 0.00673 0.0
C4647 C 0.4728 0.0105 0.00654 0.0
C4648 C 0.48322 0.01905 0.02294 0.0
C4649 C 0.47558 0.02063 0.03955 0.0
C4650 C 0.45735 0.01328 0.03979 0.0
H4651 H 0.40532 0.02706 0.00448 0.0
H4652 H 0.42752 0.03171 0.01773 0.0
H4653 H 0.42437 0.0208 0.99439 0.0
H4654 H 0.44666 0.99653 0.99403 0.0
H4655 H 0.47875 0.00926 0.99366 0.0
H4656 H 0.87854 0.56801 0.78268 0.0
H4657 H 0.86835 0.59627 0.77924 0.0
H4658 H 0.83623 0.58799 0.82447 0.0
H4659 H 0.84634 0.55959 0.82819 0.0
H4660 H 0.82301 0.5917 0.77774 0.0
H4661 H 0.87096 0.64554 0.82511 0.0
H4662 H 0.87878 0.62649 0.81417 0.0
H4663 H 0.86396 0.62318 0.83176 0.0
C4664 C 0.86965 0.57237 0.7922 0.0
C4665 C 0.86311 0.56157 0.80562 0.0
C4666 C 0.86393 0.58849 0.79024 0.0
C4667 C 0.85179 0.59404 0.80175 0.0
C4668 C 0.8458 0.5838 0.81567 0.0
H4669 H 0.78626 0.6731 0.77782 0.0
H4670 H 0.80139 0.65296 0.79534 0.0
C4671 C 0.85147 0.5676 0.81764 0.0
C4672 C 0.84345 0.60914 0.79734 0.0
H4673 H 0.84922 0.65492 0.80446 0.0
C4674 C 0.82849 0.60552 0.78374 0.0
C4675 C 0.85093 0.62694 0.80526 0.0
C4676 C 0.86706 0.63095 0.81993 0.0
C4677 C 0.821 0.61954 0.77735 0.0
C4678 C 0.82874 0.63744 0.78489 0.0
C4679 C 0.84341 0.64106 0.79889 0.0
C4680 C 0.82227 0.65241 0.77718 0.0
C4681 C 0.80527 0.61528 0.76213 0.0
C4682 C 0.82943 0.65881 0.76156 0.0
C4683 C 0.82072 0.66998 0.75143 0.0
C4684 C 0.8049 0.67489 0.75698 0.0
C4685 C 0.79846 0.6694 0.77335 0.0
C4686 C 0.80709 0.65808 0.78339 0.0
H4687 H 0.80075 0.60054 0.75794 0.0
H4688 H 0.79366 0.62081 0.76682 0.0
H4689 H 0.80922 0.62183 0.74977 0.0
H4690 H 0.8411 0.65432 0.75664 0.0
H4691 H 0.826 0.67436 0.73899 0.0
H4692 H 0.8048 0.62928 0.98161 0.0
H4693 H 0.83226 0.6175 0.98706 0.0
H4694 H 0.84919 0.6554 0.03633 0.0
H4695 H 0.82107 0.66704 0.03132 0.0
H4696 H 0.86752 0.63085 0.9892 0.0
H4697 H 0.85126 0.60826 0.05677 0.0
H4698 H 0.83517 0.61627 0.04137 0.0
H4699 H 0.85278 0.63206 0.05606 0.0
C4700 C 0.81429 0.63526 0.99366 0.0
C4701 C 0.81048 0.64904 0.00619 0.0
C4702 C 0.83012 0.62848 0.99668 0.0
C4703 C 0.8427 0.63525 0.01229 0.0
C4704 C 0.83947 0.64962 0.02441 0.0
H4705 H 0.94296 0.60619 0.05408 0.0
H4706 H 0.91984 0.62262 0.04288 0.0
C4707 C 0.82347 0.65641 0.02144 0.0
C4708 C 0.85874 0.62668 0.01596 0.0
H4709 H 0.87966 0.60457 0.04768 0.0
C4710 C 0.87017 0.62513 1.00201 0.0
C4711 C 0.86205 0.61886 0.03251 0.0
C4712 C 0.84958 0.61875 0.04746 0.0
C4713 C 0.8849 0.61628 0.00432 0.0
C4714 C 0.88838 0.6089 0.02102 0.0
C4715 C 0.87699 0.61038 0.03492 0.0
C4716 C 0.90396 0.59985 0.02469 0.0
C4717 C 0.8968 0.61492 0.98904 0.0
C4718 C 0.903 0.58174 0.01766 0.0
C4719 C 0.91631 0.57233 0.024 0.0
C4720 C 0.93066 0.58093 0.03747 0.0
C4721 C 0.93212 0.59934 0.04356 0.0
C4722 C 0.9189 0.60869 0.03724 0.0
H4723 H 0.89292 0.62223 0.97727 0.0
H4724 H 0.91117 0.62051 0.99455 0.0
H4725 H 0.89581 0.60051 0.98381 0.0
H4726 H 0.89146 0.57463 0.00811 0.0
H4727 H 0.91471 0.55807 0.01937 0.0
H4728 H 0.18181 0.07915 0.77872 0.0
H4729 H 0.20162 0.10826 0.77746 0.0
H4730 H 0.16173 0.13552 0.79956 0.0
H4731 H 0.14233 0.10616 0.80185 0.0
H4732 H 0.19678 0.13455 0.7579 0.0
H4733 H 0.20588 0.16241 0.83184 0.0
H4734 H 0.19448 0.13955 0.82394 0.0
H4735 H 0.18257 0.15781 0.82202 0.0
C4736 C 0.17753 0.09135 0.78389 0.0
C4737 C 0.16087 0.09035 0.79117 0.0
C4738 C 0.18877 0.10804 0.78292 0.0
C4739 C 0.18348 0.12428 0.78877 0.0
C4740 C 0.16651 0.1233 0.79551 0.0
H4741 H 0.23041 0.23806 0.79067 0.0
H4742 H 0.21203 0.20871 0.79293 0.0
C4743 C 0.15533 0.10651 0.7967 0.0
C4744 C 0.19536 0.14204 0.78685 0.0
H4745 H 0.21674 0.18267 0.81063 0.0
C4746 C 0.20121 0.14504 0.76948 0.0
C4747 C 0.20113 0.15591 0.80184 0.0
C4748 C 0.19583 0.15373 0.821 0.0
C4749 C 0.21217 0.16148 0.76657 0.0
C4750 C 0.2181 0.1753 0.78162 0.0
C4751 C 0.21235 0.17222 0.79902 0.0
C4752 C 0.22959 0.19329 0.77962 0.0
C4753 C 0.21666 0.16399 0.74717 0.0
C4754 C 0.24582 0.19479 0.77137 0.0
C4755 C 0.25623 0.2118 0.76951 0.0
C4756 C 0.25105 0.22779 0.77652 0.0
C4757 C 0.23501 0.22619 0.78511 0.0
C4758 C 0.22441 0.20928 0.7865 0.0
H4759 H 0.20666 0.15489 0.7366 0.0
H4760 H 0.21702 0.17812 0.7442 0.0
H4761 H 0.23014 0.16063 0.74562 0.0
H4762 H 0.25057 0.18281 0.76641 0.0
H4763 H 0.2683 0.21236 0.76261 0.0
H4764 H 0.33876 0.97179 0.28105 0.0
H4765 H 0.32426 0.93994 0.27301 0.0
H4766 H 0.37085 0.9242 0.30095 0.0
H4767 H 0.38524 0.95609 0.30936 0.0
H4768 H 0.35658 0.91116 0.25779 0.0
H4769 H 0.30866 0.89917 0.31091 0.0
H4770 H 0.3101 0.91919 0.29924 0.0
H4771 H 0.3288 0.91669 0.31529 0.0
C4772 C 0.34553 0.96149 0.28607 0.0
C4773 C 0.36282 0.96612 0.29615 0.0
C4774 C 0.33739 0.94343 0.28127 0.0
C4775 C 0.34669 0.93002 0.28629 0.0
C4776 C 0.36366 0.93459 0.29696 0.0
H4777 H 0.32557 0.82268 0.29572 0.0
H4778 H 0.34227 0.85239 0.291 0.0
C4779 C 0.37176 0.95264 0.30182 0.0
C4780 C 0.33927 0.91113 0.27959 0.0
H4781 H 0.31119 0.87429 0.29041 0.0
C4782 C 0.34653 0.90302 0.26471 0.0
C4783 C 0.32607 0.90092 0.28865 0.0
C4784 C 0.31789 0.90932 0.30448 0.0
C4785 C 0.34136 0.88444 0.2592 0.0
C4786 C 0.32893 0.87415 0.26901 0.0
C4787 C 0.32096 0.88246 0.28316 0.0
C4788 C 0.32484 0.8545 0.26629 0.0
C4789 C 0.34954 0.87574 0.24354 0.0
C4790 C 0.31046 0.84564 0.25312 0.0
C4791 C 0.3011 0.82864 0.2557 0.0
C4792 C 0.30607 0.82082 0.27155 0.0
C4793 C 0.32168 0.82875 0.28348 0.0
C4794 C 0.33126 0.84551 0.28067 0.0
H4795 H 0.35866 0.88581 0.23691 0.0
H4796 H 0.35734 0.86588 0.24885 0.0
H4797 H 0.33859 0.86814 0.23289 0.0
H4798 H 0.30527 0.85262 0.24213 0.0
H4799 H 0.28896 0.82251 0.24646 0.0
H4800 H 0.51844 0.33253 0.58879 0.0
H4801 H 0.51729 0.36204 0.57833 0.0
H4802 H 0.5755 0.37406 0.58161 0.0
H4803 H 0.57674 0.34446 0.59262 0.0
H4804 H 0.5332 0.39825 0.59543 0.0
H4805 H 0.55837 0.38418 0.52771 0.0
H4806 H 0.54966 0.36646 0.54119 0.0
H4807 H 0.57198 0.37981 0.54779 0.0
C4808 C 0.5311 0.34145 0.58748 0.0
C4809 C 0.54771 0.33585 0.59178 0.0
C4810 C 0.5304 0.35848 0.5814 0.0
C4811 C 0.54624 0.37059 0.57881 0.0
C4812 C 0.56294 0.36514 0.5832 0.0
H4813 H 0.56198 0.47814 0.53502 0.0
H4814 H 0.56617 0.44949 0.54639 0.0
C4815 C 0.56368 0.34816 0.58973 0.0
C4816 C 0.54505 0.38876 0.57173 0.0
H4817 H 0.55265 0.41343 0.53498 0.0
C4818 C 0.53751 0.40149 0.58221 0.0
C4819 C 0.55054 0.3934 0.55443 0.0
C4820 C 0.55798 0.38026 0.54197 0.0
C4821 C 0.53562 0.41842 0.57618 0.0
C4822 C 0.54088 0.42301 0.55874 0.0
C4823 C 0.54855 0.4103 0.54831 0.0
C4824 C 0.53826 0.44065 0.55114 0.0
C4825 C 0.52837 0.43147 0.58895 0.0
C4826 C 0.52114 0.44564 0.54943 0.0
C4827 C 0.51871 0.46209 0.54286 0.0
C4828 C 0.53324 0.47438 0.53752 0.0
C4829 C 0.55036 0.46928 0.53892 0.0
C4830 C 0.55278 0.45272 0.54547 0.0
H4831 H 0.53036 0.42867 0.6036 0.0
H4832 H 0.53505 0.44564 0.5881 0.0
H4833 H 0.5136 0.43007 0.58492 0.0
H4834 H 0.50945 0.43672 0.55312 0.0
H4835 H 0.5053 0.46523 0.54214 0.0
H4836 H 0.43952 0.76864 0.42733 0.0
H4837 H 0.41201 0.76663 0.40601 0.0
H4838 H 0.44237 0.75761 0.35994 0.0
H4839 H 0.4679 0.75516 0.38147 0.0
H4840 H 0.39876 0.78243 0.38609 0.0
H4841 H 0.40341 0.72801 0.33218 0.0
H4842 H 0.41812 0.7317 0.35356 0.0
H4843 H 0.42388 0.74443 0.33437 0.0
C4844 C 0.44005 0.76573 0.4126 0.0
C4845 C 0.45641 0.76323 0.40606 0.0
C4846 C 0.42425 0.76485 0.40017 0.0
C4847 C 0.42431 0.762 0.38065 0.0
C4848 C 0.44076 0.75901 0.37447 0.0
H4849 H 0.35082 0.78916 0.29043 0.0
H4850 H 0.3768 0.78548 0.31168 0.0
C4851 C 0.45603 0.75855 0.38694 0.0
C4852 C 0.4077 0.76306 0.36716 0.0
H4853 H 0.38547 0.74898 0.32311 0.0
C4854 C 0.3959 0.77459 0.37259 0.0
C4855 C 0.40315 0.75316 0.34903 0.0
C4856 C 0.41272 0.73851 0.34209 0.0
C4857 C 0.3804 0.77645 0.36092 0.0
C4858 C 0.37679 0.76751 0.34265 0.0
C4859 C 0.3884 0.75617 0.33698 0.0
C4860 C 0.36082 0.76947 0.32941 0.0
C4861 C 0.36785 0.78802 0.36825 0.0
C4862 C 0.34302 0.76152 0.33194 0.0
C4863 C 0.3281 0.7634 0.31964 0.0
C4864 C 0.33043 0.77342 0.3044 0.0
C4865 C 0.34833 0.78123 0.3018 0.0
C4866 C 0.36327 0.77921 0.31406 0.0
H4867 H 0.37365 0.79603 0.38175 0.0
H4868 H 0.36468 0.79733 0.35812 0.0
H4869 H 0.3549 0.77919 0.37026 0.0
H4870 H 0.34064 0.75375 0.34347 0.0
H4871 H 0.31465 0.757 0.32215 0.0
H4872 H 0.04608 0.74258 0.06716 0.0
H4873 H 0.04143 0.71084 0.05445 0.0
H4874 H 0.05203 0.69725 0.10997 0.0
H4875 H 0.0514 0.72776 0.12235 0.0
H4876 H 0.05583 0.68714 0.04855 0.0
H4877 H 0.0162 0.65577 0.10057 0.0
H4878 H 0.02036 0.67978 0.10021 0.0
H4879 H 0.03688 0.66902 0.11223 0.0
C4880 C 0.04536 0.73251 0.07662 0.0
C4881 C 0.04686 0.73781 0.09582 0.0
C4882 C 0.04364 0.71416 0.06935 0.0
C4883 C 0.04512 0.70049 0.08106 0.0
C4884 C 0.04886 0.70639 0.10025 0.0
H4885 H 0.06665 0.59058 0.0516 0.0
H4886 H 0.06918 0.62287 0.06187 0.0
C4887 C 0.04898 0.72433 0.10744 0.0
C4888 C 0.04378 0.6806 0.07335 0.0
H4889 H 0.03106 0.63656 0.08267 0.0
C4890 C 0.05013 0.6763 0.05613 0.0
C4891 C 0.03622 0.66562 0.08259 0.0
C4892 C 0.02687 0.66782 0.09978 0.0
C4893 C 0.04939 0.65821 0.04839 0.0
C4894 C 0.04289 0.64363 0.05824 0.0
C4895 C 0.03645 0.64767 0.07523 0.0
C4896 C 0.04188 0.62406 0.05083 0.0
C4897 C 0.05524 0.65465 0.02946 0.0
C4898 C 0.02576 0.61366 0.04108 0.0
C4899 C 0.02434 0.59515 0.03502 0.0
C4900 C 0.03898 0.58628 0.03854 0.0
C4901 C 0.05517 0.59678 0.04825 0.0
C4902 C 0.0566 0.61535 0.05426 0.0
H4903 H 0.05975 0.66729 0.02326 0.0
H4904 H 0.06646 0.64707 0.03037 0.0
H4905 H 0.04377 0.64607 0.02007 0.0
H4906 H 0.01413 0.61985 0.03827 0.0
H4907 H 0.0116 0.58775 0.02765 0.0
H4908 H 0.05912 0.2559 0.9264 0.0
H4909 H 0.08725 0.2543 0.91212 0.0
H4910 H 0.07455 0.2923 0.87508 0.0
H4911 H 0.04754 0.29455 0.88926 0.0
H4912 H 0.09236 0.24462 0.87392 0.0
H4913 H 0.12559 0.31551 0.89711 0.0
H4914 H 0.10636 0.30433 0.90728 0.0
H4915 H 0.10311 0.31399 0.88588 0.0
C4916 C 0.06255 0.26414 0.91545 0.0
C4917 C 0.05098 0.27548 0.90925 0.0
C4918 C 0.07853 0.2631 0.90718 0.0
C4919 C 0.0832 0.27343 0.89268 0.0
C4920 C 0.07158 0.28452 0.88649 0.0
H4921 H 0.15238 0.29628 0.80981 0.0
H4922 H 0.12701 0.28758 0.82779 0.0
C4923 C 0.05594 0.2857 0.89471 0.0
C4924 C 0.1 0.27302 0.88356 0.0
H4925 H 0.13574 0.30147 0.87009 0.0
C4926 C 0.10212 0.25695 0.87344 0.0
C4927 C 0.11275 0.2891 0.8828 0.0
C4928 C 0.11194 0.30665 0.89401 0.0
C4929 C 0.11606 0.25683 0.86188 0.0
C4930 C 0.12806 0.27316 0.86038 0.0
C4931 C 0.1264 0.28899 0.87108 0.0
C4932 C 0.14209 0.27458 0.84733 0.0
C4933 C 0.11746 0.23952 0.85069 0.0
C4934 C 0.15885 0.26968 0.85199 0.0
C4935 C 0.17335 0.27456 0.84162 0.0
C4936 C 0.1713 0.28449 0.82652 0.0
C4937 C 0.15423 0.28846 0.82127 0.0
C4938 C 0.13976 0.28353 0.83155 0.0
H4939 H 0.10701 0.22793 0.85325 0.0
H4940 H 0.11594 0.24116 0.83569 0.0
H4941 H 0.13108 0.23639 0.85416 0.0
H4942 H 0.16104 0.26303 0.86426 0.0
H4943 H 0.18647 0.27165 0.84614 0.0
H4944 H 0.5387 0.76802 0.91796 0.0
H4945 H 0.53655 0.74082 0.93359 0.0
H4946 H 0.53438 0.70864 0.8812 0.0
H4947 H 0.53616 0.73606 0.8652 0.0
H4948 H 0.50528 0.70604 0.92092 0.0
H4949 H 0.57696 0.69728 0.92328 0.0
H4950 H 0.57106 0.71926 0.92279 0.0
H4951 H 0.56579 0.70325 0.9024 0.0
C4952 C 0.53789 0.75521 0.90966 0.0
C4953 C 0.53765 0.75431 0.89025 0.0
C4954 C 0.53664 0.73963 0.91869 0.0
C4955 C 0.53545 0.72266 0.90866 0.0
C4956 C 0.53539 0.7216 0.88927 0.0
H4957 H 0.52182 0.61603 0.9504 0.0
H4958 H 0.53063 0.64103 0.93185 0.0
C4959 C 0.53636 0.73727 0.88012 0.0
C4960 C 0.53342 0.70619 0.91862 0.0
H4961 H 0.55714 0.6769 0.93809 0.0
C4962 C 0.51658 0.69959 0.92453 0.0
C4963 C 0.54818 0.69778 0.92344 0.0
C4964 C 0.5666 0.70467 0.91776 0.0
C4965 C 0.51412 0.68494 0.93514 0.0
C4966 C 0.52896 0.67676 0.94039 0.0
C4967 C 0.54576 0.68313 0.93417 0.0
C4968 C 0.52708 0.66194 0.9527 0.0
C4969 C 0.49554 0.67827 0.94066 0.0
C4970 C 0.52304 0.66537 0.97094 0.0
C4971 C 0.51814 0.65115 0.98154 0.0
C4972 C 0.51733 0.63312 0.97427 0.0
C4973 C 0.52267 0.62978 0.95653 0.0
C4974 C 0.52756 0.64407 0.94586 0.0
H4975 H 0.48481 0.68306 0.9321 0.0
H4976 H 0.49231 0.66328 0.93931 0.0
H4977 H 0.49525 0.68337 0.95537 0.0
H4978 H 0.52274 0.679 0.97666 0.0
H4979 H 0.51386 0.65414 0.99504 0.0
H4980 H 0.08242 0.77446 0.68173 0.0
H4981 H 0.11406 0.77667 0.69481 0.0
H4982 H 0.09581 0.75291 0.74261 0.0
H4983 H 0.06412 0.75046 0.72934 0.0
H4984 H 0.13492 0.79417 0.72801 0.0
H4985 H 0.12986 0.72015 0.72605 0.0
H4986 H 0.11279 0.72988 0.71387 0.0
H4987 H 0.11357 0.72921 0.73847 0.0
C4988 C 0.08512 0.76985 0.69512 0.0
C4989 C 0.07053 0.7627 0.70461 0.0
C4990 C 0.10333 0.77112 0.70265 0.0
C4991 C 0.10771 0.7648 0.71974 0.0
C4992 C 0.09312 0.75769 0.7293 0.0
H4993 H 0.21291 0.75304 0.77882 0.0
H4994 H 0.18085 0.75258 0.76919 0.0
C4995 C 0.07487 0.75652 0.72181 0.0
C4996 C 0.12741 0.76534 0.72716 0.0
H4997 H 0.15775 0.73851 0.73911 0.0
C4998 C 0.13985 0.78195 0.73038 0.0
C4999 C 0.1342 0.74954 0.73054 0.0
C5000 C 0.12201 0.73114 0.72694 0.0
C5001 C 0.15845 0.7832 0.73688 0.0
C5002 C 0.16535 0.76733 0.73982 0.0
C5003 C 0.15283 0.75076 0.73686 0.0
C5004 C 0.18537 0.7676 0.74576 0.0
C5005 C 0.17041 0.8017 0.74103 0.0
C5006 C 0.19915 0.77588 0.73585 0.0
C5007 C 0.21766 0.77598 0.74127 0.0
C5008 C 0.22323 0.76768 0.75678 0.0
C5009 C 0.20943 0.75933 0.76665 0.0
C5010 C 0.1909 0.75915 0.76116 0.0
H5011 H 0.16237 0.81226 0.74403 0.0
H5012 H 0.18081 0.80232 0.75306 0.0
H5013 H 0.17744 0.80493 0.72876 0.0
H5014 H 0.19561 0.78215 0.72367 0.0
H5015 H 0.22764 0.78258 0.73319 0.0
H5016 H 0.03947 0.34167 0.41349 0.0
H5017 H 0.0387 0.36791 0.43549 0.0
H5018 H 0.05398 0.40313 0.39435 0.0
H5019 H 0.05406 0.37695 0.37208 0.0
H5020 H 0.06163 0.39626 0.45206 0.0
H5021 H 0.01106 0.42208 0.40778 0.0
H5022 H 0.01667 0.40032 0.40202 0.0
H5023 H 0.03071 0.42051 0.39633 0.0
C5024 C 0.04277 0.355 0.40908 0.0
C5025 C 0.04675 0.35701 0.39081 0.0
C5026 C 0.04228 0.37009 0.42176 0.0
C5027 C 0.04578 0.38773 0.41664 0.0
C5028 C 0.05055 0.38979 0.39865 0.0
H5029 H 0.05481 0.49696 0.47361 0.0
H5030 H 0.05654 0.47021 0.45265 0.0
C5031 C 0.05082 0.37471 0.3859 0.0
C5032 C 0.04453 0.40386 0.43002 0.0
H5033 H 0.02638 0.44214 0.43409 0.0
C5034 C 0.05381 0.40618 0.44808 0.0
C5035 C 0.03417 0.41693 0.4252 0.0
C5036 C 0.02243 0.41475 0.40686 0.0
C5037 C 0.05347 0.42124 0.46101 0.0
C5038 C 0.0436 0.43454 0.45593 0.0
C5039 C 0.03417 0.43216 0.438 0.0
C5040 C 0.04276 0.45091 0.46902 0.0
C5041 C 0.06396 0.42299 0.47998 0.0
C5042 C 0.03421 0.4492 0.48521 0.0
C5043 C 0.03295 0.46454 0.49713 0.0
C5044 C 0.04042 0.48212 0.49341 0.0
C5045 C 0.04898 0.48376 0.47714 0.0
C5046 C 0.05 0.46841 0.46508 0.0
H5047 H 0.07381 0.41382 0.48053 0.0
H5048 H 0.07138 0.43709 0.48415 0.0
H5049 H 0.05436 0.41952 0.49025 0.0
H5050 H 0.02812 0.43596 0.48846 0.0
H5051 H 0.02563 0.46255 0.509 0.0
H5052 H 0.44404 0.25123 0.17525 0.0
H5053 H 0.41829 0.25601 0.19091 0.0
H5054 H 0.44998 0.25876 0.24381 0.0
H5055 H 0.4765 0.25423 0.22793 0.0
H5056 H 0.39874 0.23619 0.2121 0.0
H5057 H 0.42706 0.30186 0.25448 0.0
H5058 H 0.43871 0.29284 0.23642 0.0
H5059 H 0.43907 0.28401 0.2584 0.0
C5060 C 0.44586 0.25287 0.19026 0.0
C5061 C 0.4628 0.25222 0.2001 0.0
C5062 C 0.43083 0.25565 0.1993 0.0
C5063 C 0.43176 0.25799 0.21874 0.0
C5064 C 0.44864 0.25742 0.22882 0.0
H5065 H 0.34376 0.28025 0.28656 0.0
H5066 H 0.37268 0.27521 0.27648 0.0
C5067 C 0.46392 0.25467 0.21967 0.0
C5068 C 0.41473 0.2603 0.22775 0.0
H5069 H 0.39668 0.28887 0.25692 0.0
C5070 C 0.39843 0.24776 0.22193 0.0
C5071 C 0.41389 0.27515 0.24089 0.0
C5072 C 0.43054 0.28935 0.24787 0.0
C5073 C 0.38171 0.24958 0.22851 0.0
C5074 C 0.38061 0.2649 0.24096 0.0
C5075 C 0.39704 0.27721 0.24725 0.0
C5076 C 0.36267 0.26841 0.24732 0.0
C5077 C 0.36552 0.23457 0.22229 0.0
C5078 C 0.34695 0.26684 0.23459 0.0
C5079 C 0.33021 0.26937 0.24045 0.0
C5080 C 0.32847 0.27415 0.25926 0.0
C5081 C 0.34432 0.27649 0.27197 0.0
C5082 C 0.36104 0.27362 0.26613 0.0
H5083 H 0.36976 0.22149 0.21894 0.0
H5084 H 0.35614 0.2329 0.23307 0.0
H5085 H 0.35811 0.23763 0.20947 0.0
H5086 H 0.34756 0.26374 0.21992 0.0
H5087 H 0.31859 0.26774 0.23007 0.0
H5088 H 0.62195 0.56548 0.35118 0.0
H5089 H 0.605 0.55978 0.37752 0.0
H5090 H 0.58747 0.50395 0.35496 0.0
H5091 H 0.60456 0.50974 0.32832 0.0
H5092 H 0.56829 0.54698 0.37983 0.0
H5093 H 0.60984 0.50033 0.40787 0.0
H5094 H 0.61678 0.51421 0.39009 0.0
H5095 H 0.59964 0.49408 0.38428 0.0
C5096 C 0.6144 0.55201 0.35168 0.0
C5097 C 0.61459 0.53811 0.33753 0.0
C5098 C 0.60466 0.54875 0.36683 0.0
C5099 C 0.59509 0.53136 0.36855 0.0
C5100 C 0.59491 0.51745 0.35421 0.0
H5101 H 0.5389 0.49451 0.46352 0.0
H5102 H 0.55042 0.49552 0.43318 0.0
C5103 C 0.6045 0.5208 0.33884 0.0
C5104 C 0.58554 0.52808 0.38544 0.0
H5105 H 0.58576 0.50599 0.42432 0.0
C5106 C 0.57208 0.53794 0.38948 0.0
C5107 C 0.59033 0.51625 0.39816 0.0
C5108 C 0.60503 0.50569 0.39505 0.0
C5109 C 0.56347 0.53641 0.40574 0.0
C5110 C 0.56865 0.52501 0.41875 0.0
C5111 C 0.58175 0.51477 0.41449 0.0
C5112 C 0.56128 0.52426 0.43716 0.0
C5113 C 0.54874 0.54696 0.40875 0.0
C5114 C 0.5636 0.53996 0.44977 0.0
C5115 C 0.55697 0.53942 0.46706 0.0
C5116 C 0.54784 0.52312 0.4724 0.0
C5117 C 0.54559 0.50734 0.45984 0.0
C5118 C 0.55231 0.50789 0.4425 0.0
H5119 H 0.54256 0.55041 0.39545 0.0
H5120 H 0.53789 0.53928 0.41572 0.0
H5121 H 0.55465 0.55979 0.41767 0.0
H5122 H 0.57074 0.55272 0.44631 0.0
H5123 H 0.55887 0.55189 0.47622 0.0
H5124 H 0.285 0.92456 0.06587 0.0
H5125 H 0.28486 0.91075 0.09512 0.0
H5126 H 0.29374 0.86133 0.06643 0.0
H5127 H 0.29364 0.87476 0.03743 0.0
H5128 H 0.26248 0.86281 0.09495 0.0
H5129 H 0.33534 0.89323 0.11758 0.0
H5130 H 0.32059 0.9054 0.10519 0.0
H5131 H 0.32786 0.88675 0.09324 0.0
C5132 C 0.28675 0.91072 0.06591 0.0
C5133 C 0.28907 0.90057 0.04953 0.0
C5134 C 0.28659 0.90289 0.08246 0.0
C5135 C 0.28902 0.88505 0.08261 0.0
C5136 C 0.29147 0.87501 0.06631 0.0
H5137 H 0.32789 0.81711 0.15192 0.0
H5138 H 0.31312 0.82898 0.1257 0.0
C5139 C 0.29141 0.88269 0.04984 0.0
C5140 C 0.29031 0.87688 0.09985 0.0
H5141 H 0.32181 0.86958 0.13322 0.0
C5142 C 0.27528 0.86451 0.10368 0.0
C5143 C 0.30716 0.87908 0.11075 0.0
C5144 C 0.32373 0.89185 0.10661 0.0
C5145 C 0.27693 0.85369 0.11802 0.0
C5146 C 0.294 0.85545 0.12841 0.0
C5147 C 0.30878 0.86834 0.12501 0.0
C5148 C 0.2975 0.84378 0.14258 0.0
C5149 C 0.26086 0.83992 0.12144 0.0
C5150 C 0.29287 0.84767 0.16041 0.0
C5151 C 0.30128 0.84094 0.17531 0.0
C5152 C 0.31454 0.83059 0.1724 0.0
C5153 C 0.318 0.82546 0.15436 0.0
C5154 C 0.30941 0.83197 0.13947 0.0
H5155 H 0.2486 0.83998 0.11172 0.0
H5156 H 0.26416 0.82623 0.11994 0.0
H5157 H 0.25773 0.84271 0.13586 0.0
H5158 H 0.28389 0.85699 0.16298 0.0
H5159 H 0.29835 0.84481 0.18921 0.0
H5160 H 0.92815 0.50762 0.83432 0.0
H5161 H 0.95128 0.51122 0.86088 0.0
H5162 H 0.92079 0.54311 0.89288 0.0
H5163 H 0.89712 0.53885 0.86649 0.0
H5164 H 0.97248 0.54116 0.88098 0.0
H5165 H 0.92576 0.50222 0.92365 0.0
H5166 H 0.91997 0.50294 0.8992 0.0
H5167 H 0.91801 0.52144 0.91574 0.0
C5168 C 0.9265 0.51549 0.84702 0.0
C5169 C 0.91098 0.52286 0.84868 0.0
C5170 C 0.93964 0.51754 0.86205 0.0
C5171 C 0.93742 0.52716 0.8787 0.0
C5172 C 0.92235 0.53529 0.88013 0.0
H5173 H 0.99872 0.55615 0.98316 0.0
H5174 H 0.98115 0.55541 0.95319 0.0
C5175 C 0.90897 0.5329 0.86519 0.0
C5176 C 0.9506 0.52799 0.89479 0.0
H5177 H 0.9549 0.51644 0.93859 0.0
C5178 C 0.96873 0.53571 0.89358 0.0
C5179 C 0.94544 0.52054 0.91092 0.0
C5180 C 0.92627 0.51116 0.91244 0.0
C5181 C 0.98194 0.53658 0.90851 0.0
C5182 C 0.97662 0.52965 0.92471 0.0
C5183 C 0.95862 0.5217 0.92588 0.0
C5184 C 0.98929 0.53141 0.9412 0.0
C5185 C 1.00139 0.54506 0.90718 0.0
C5186 C 0.99956 0.51815 0.94382 0.0
C5187 C 0.0095 0.51844 0.96089 0.0
C5188 C 0.00899 0.53194 0.97525 0.0
C5189 C 0.99914 0.54554 0.97226 0.0
C5190 C 0.98929 0.54525 0.95523 0.0
H5191 H 1.00323 0.55005 0.89353 0.0
H5192 H 1.00606 0.55651 0.9183 0.0
H5193 H 0.01012 0.53501 0.90936 0.0
H5194 H 0.9993 0.50729 0.93295 0.0
H5195 H 0.017 0.50781 0.96309 0.0
H5196 H 0.29121 0.21819 0.56417 0.0
H5197 H 0.29243 0.23142 0.5964 0.0
H5198 H 0.25011 0.18759 0.60536 0.0
H5199 H 0.24982 0.1738 0.57364 0.0
H5200 H 0.27103 0.24523 0.61503 0.0
H5201 H 0.28169 0.18631 0.65042 0.0
H5202 H 0.28286 0.18659 0.62592 0.0
H5203 H 0.26127 0.18075 0.63468 0.0
C5204 C 0.2824 0.21121 0.57314 0.0
C5205 C 0.27064 0.19474 0.56633 0.0
C5206 C 0.28303 0.21885 0.59162 0.0
C5207 C 0.27169 0.21041 0.60382 0.0
C5208 C 0.25962 0.19415 0.59679 0.0
H5209 H 0.24543 0.24163 0.71533 0.0
H5210 H 0.24554 0.2285 0.68334 0.0
C5211 C 0.25934 0.18627 0.57848 0.0
C5212 C 0.27203 0.21895 0.6235 0.0
H5213 H 0.27251 0.21005 0.66879 0.0
C5214 C 0.27155 0.23748 0.62673 0.0
C5215 C 0.27276 0.20911 0.63911 0.0
C5216 C 0.27487 0.18966 0.63738 0.0
C5217 C 0.27139 0.24616 0.64473 0.0
C5218 C 0.27162 0.23617 0.66015 0.0
C5219 C 0.27215 0.21773 0.65702 0.0
C5220 C 0.27143 0.24459 0.67962 0.0
C5221 C 0.27063 0.26596 0.6471 0.0
C5222 C 0.28599 0.25797 0.68846 0.0
C5223 C 0.28592 0.26557 0.70681 0.0
C5224 C 0.27126 0.26002 0.71686 0.0
C5225 C 0.25679 0.24651 0.70803 0.0
C5226 C 0.25689 0.23888 0.68969 0.0
H5227 H 0.26679 0.27088 0.6337 0.0
H5228 H 0.26079 0.26865 0.65685 0.0
H5229 H 0.28418 0.27386 0.65301 0.0
H5230 H 0.29755 0.26243 0.68122 0.0
H5231 H 0.2974 0.27582 0.71311 0.0
H5232 H 0.58876 0.51597 0.23265 0.0
H5233 H 0.57528 0.51395 0.20038 0.0
H5234 H 0.62134 0.55239 0.18899 0.0
H5235 H 0.63521 0.55368 0.22091 0.0
H5236 H 0.56317 0.53625 0.18066 0.0
H5237 H 0.61936 0.51723 0.14543 0.0
H5238 H 0.61914 0.51748 0.17012 0.0
H5239 H 0.6269 0.53803 0.16025 0.0
C5240 C 0.59616 0.52377 0.22319 0.0
C5241 C 0.61324 0.5348 0.22943 0.0
C5242 C 0.58838 0.52267 0.20465 0.0
C5243 C 0.59733 0.5327 0.19179 0.0
C5244 C 0.61429 0.54393 0.19816 0.0
H5245 H 0.57236 0.5536 0.0771 0.0
H5246 H 0.58462 0.55375 0.10957 0.0
C5247 C 0.62222 0.54477 0.21659 0.0
C5248 C 0.58864 0.53195 0.17206 0.0
H5249 H 0.59679 0.52773 0.12654 0.0
C5250 C 0.57055 0.53422 0.16887 0.0
C5251 C 0.59799 0.52919 0.15637 0.0
C5252 C 0.61684 0.52515 0.15819 0.0
C5253 C 0.56189 0.53442 0.15081 0.0
C5254 C 0.57143 0.53219 0.13521 0.0
C5255 C 0.58941 0.52967 0.13836 0.0
C5256 C 0.56323 0.53263 0.11557 0.0
C5257 C 0.5427 0.53756 0.14873 0.0
C5258 C 0.54701 0.52077 0.1078 0.0
C5259 C 0.53978 0.52101 0.0893 0.0
C5260 C 0.54873 0.53288 0.07798 0.0
C5261 C 0.565 0.54455 0.08559 0.0
C5262 C 0.57209 0.54452 0.10415 0.0
H5263 H 0.53909 0.54385 0.16187 0.0
H5264 H 0.54064 0.54633 0.1377 0.0
H5265 H 0.53322 0.5244 0.14486 0.0
H5266 H 0.54012 0.51101 0.1159 0.0
H5267 H 0.52746 0.51154 0.08366 0.0
H5268 H 0.30894 0.88667 0.95772 0.0
H5269 H 0.30583 0.86411 0.93085 0.0
H5270 H 0.26053 0.88439 0.90595 0.0
H5271 H 0.26427 0.90772 0.9326 0.0
H5272 H 0.27749 0.83749 0.91696 0.0
H5273 H 0.29434 0.88646 0.86622 0.0
H5274 H 0.2977 0.89302 0.89092 0.0
H5275 H 0.27545 0.88977 0.87832 0.0
C5276 C 0.29836 0.88625 0.94644 0.0
C5277 C 0.28686 0.89872 0.94683 0.0
C5278 C 0.29658 0.87344 0.93124 0.0
C5279 C 0.28311 0.87288 0.91653 0.0
C5280 C 0.27124 0.88504 0.91713 0.0
H5281 H 0.25484 0.80629 0.81346 0.0
H5282 H 0.25529 0.82632 0.84173 0.0
C5283 C 0.27332 0.8982 0.9322 0.0
C5284 C 0.28184 0.85966 0.90044 0.0
H5285 H 0.28537 0.85566 0.85427 0.0
C5286 C 0.27917 0.84138 0.90321 0.0
C5287 C 0.28435 0.86506 0.88276 0.0
C5288 C 0.2883 0.88465 0.87936 0.0
C5289 C 0.27872 0.82814 0.88849 0.0
C5290 C 0.28094 0.83357 0.87082 0.0
C5291 C 0.28361 0.8518 0.86802 0.0
C5292 C 0.28019 0.82053 0.85478 0.0
C5293 C 0.27577 0.80854 0.89182 0.0
C5294 C 0.29412 0.81086 0.85317 0.0
C5295 C 0.29387 0.79937 0.83714 0.0
C5296 C 0.27984 0.7978 0.82269 0.0
C5297 C 0.26586 0.80743 0.82446 0.0
C5298 C 0.26603 0.81875 0.84051 0.0
H5299 H 0.27099 0.80647 0.90552 0.0
H5300 H 0.26574 0.8001 0.8808 0.0
H5301 H 0.28874 0.80375 0.89142 0.0
H5302 H 0.30529 0.81252 0.86408 0.0
H5303 H 0.30483 0.79211 0.83582 0.0
H5304 H 0.92824 0.51195 0.75836 0.0
H5305 H 0.94268 0.51133 0.72998 0.0
H5306 H 0.89913 0.53186 0.70212 0.0
H5307 H 0.88421 0.53223 0.73083 0.0
H5308 H 0.91593 0.4947 0.68741 0.0
H5309 H 0.96167 0.5622 0.7042 0.0
H5310 H 0.95586 0.549 0.72279 0.0
H5311 H 0.93871 0.558 0.71019 0.0
C5312 C 0.9218 0.5165 0.74623 0.0
C5313 C 0.90533 0.52242 0.74666 0.0
C5314 C 0.93002 0.51608 0.73011 0.0
C5315 C 0.92202 0.52181 0.71426 0.0
C5316 C 0.90542 0.52753 0.71443 0.0
H5317 H 0.96741 0.5063 0.61064 0.0
H5318 H 0.94972 0.5181 0.63338 0.0
C5319 C 0.89696 0.5277 0.73066 0.0
C5320 C 0.93126 0.52122 0.69761 0.0
H5321 H 0.96904 0.54204 0.6805 0.0
C5322 C 0.9272 0.50523 0.68546 0.0
C5323 C 0.94619 0.53486 0.69569 0.0
C5324 C 0.95095 0.55207 0.70884 0.0
C5325 C 0.93826 0.50221 0.6717 0.0
C5326 C 0.9535 0.51563 0.67011 0.0
C5327 C 0.95722 0.53191 0.68183 0.0
C5328 C 0.96624 0.5122 0.65698 0.0
C5329 C 0.93425 0.48432 0.6596 0.0
C5330 C 0.98164 0.50559 0.66301 0.0
C5331 C 0.99189 0.49891 0.6501 0.0
C5332 C 0.98675 0.49876 0.63105 0.0
C5333 C 0.97184 0.50638 0.62521 0.0
C5334 C 0.96169 0.51311 0.63813 0.0
H5335 H 0.92241 0.47492 0.66335 0.0
H5336 H 0.93145 0.48656 0.64488 0.0
H5337 H 0.94624 0.47781 0.66078 0.0
H5338 H 0.98519 0.50478 0.67762 0.0
H5339 H 1.00349 0.49342 0.65497 0.0
H5340 H 0.27778 0.21785 0.47423 0.0
H5341 H 0.28163 0.23542 0.44756 0.0
H5342 H 0.26182 0.18686 0.41002 0.0
H5343 H 0.25787 0.16949 0.43596 0.0
H5344 H 0.30261 0.22934 0.41477 0.0
H5345 H 0.22881 0.22243 0.39436 0.0
H5346 H 0.23803 0.21921 0.4173 0.0
H5347 H 0.23586 0.20166 0.39838 0.0
C5348 C 0.27419 0.21095 0.4603 0.0
C5349 C 0.26743 0.19217 0.45747 0.0
C5350 C 0.27648 0.221 0.44504 0.0
C5351 C 0.27186 0.2125 0.42669 0.0
C5352 C 0.26529 0.19382 0.42394 0.0
H5353 H 0.29339 0.23939 0.31603 0.0
H5354 H 0.29257 0.22689 0.34587 0.0
C5355 C 0.2631 0.18387 0.43898 0.0
C5356 C 0.27348 0.22274 0.41014 0.0
H5357 H 0.24825 0.23217 0.37203 0.0
C5358 C 0.29072 0.23015 0.40554 0.0
C5359 C 0.25801 0.2238 0.39797 0.0
C5360 C 0.2391 0.2165 0.40227 0.0
C5361 C 0.29286 0.2381 0.38893 0.0
C5362 C 0.27738 0.23862 0.37649 0.0
C5363 C 0.26016 0.23168 0.38139 0.0
C5364 C 0.27863 0.24652 0.35845 0.0
C5365 C 0.31167 0.24598 0.38481 0.0
C5366 C 0.27084 0.26155 0.35532 0.0
C5367 C 0.27128 0.26869 0.3383 0.0
C5368 C 0.27935 0.2609 0.32376 0.0
C5369 C 0.28708 0.24576 0.32686 0.0
C5370 C 0.28674 0.23868 0.344 0.0
H5371 H 0.32179 0.24786 0.3973 0.0
H5372 H 0.31576 0.23673 0.37402 0.0
H5373 H 0.31195 0.2592 0.37939 0.0
H5374 H 0.2644 0.26781 0.36613 0.0
H5375 H 0.26512 0.2803 0.33648 0.0
H5376 H 0.31231 0.61561 0.56603 0.0
H5377 H 0.3411 0.6056 0.57254 0.0
H5378 H 0.34294 0.59371 0.51381 0.0
H5379 H 0.31391 0.60322 0.50721 0.0
H5380 H 0.34368 0.56505 0.54725 0.0
H5381 H 0.39533 0.628 0.55003 0.0
H5382 H 0.37348 0.62755 0.55835 0.0
H5383 H 0.3752 0.62588 0.53391 0.0
C5384 C 0.31906 0.61106 0.55455 0.0
C5385 C 0.31114 0.61006 0.53612 0.0
C5386 C 0.33538 0.60544 0.5583 0.0
C5387 C 0.34395 0.59919 0.54363 0.0
C5388 C 0.33634 0.59868 0.52522 0.0
H5389 H 0.41116 0.564 0.48383 0.0
H5390 H 0.39403 0.57974 0.50429 0.0
C5391 C 0.31985 0.60395 0.52146 0.0
C5392 C 0.35997 0.59141 0.54705 0.0
H5393 H 0.40417 0.6002 0.53964 0.0
C5394 C 0.35718 0.57263 0.5464 0.0
C5395 C 0.37732 0.60163 0.54613 0.0
C5396 C 0.38064 0.62193 0.54727 0.0
C5397 C 0.37088 0.56347 0.54206 0.0
C5398 C 0.38771 0.57363 0.53881 0.0
C5399 C 0.39117 0.59255 0.54208 0.0
C5400 C 0.39969 0.56526 0.52769 0.0
C5401 C 0.36651 0.5431 0.53871 0.0
C5402 C 0.40841 0.55199 0.53419 0.0
C5403 C 0.41773 0.54262 0.52235 0.0
C5404 C 0.41866 0.54668 0.50399 0.0
C5405 C 0.41032 0.56036 0.49775 0.0
C5406 C 0.40085 0.56955 0.50952 0.0
H5407 H 0.35222 0.53745 0.54052 0.0
H5408 H 0.36893 0.53843 0.52445 0.0
H5409 H 0.37548 0.53751 0.5486 0.0
H5410 H 0.40765 0.54861 0.54822 0.0
H5411 H 0.42398 0.53204 0.52747 0.0
H5412 H 0.83144 0.93342 0.5451 0.0
H5413 H 0.8603 0.95317 0.54332 0.0
H5414 H 0.88434 0.90618 0.53404 0.0
H5415 H 0.85436 0.88685 0.53137 0.0
H5416 H 0.88866 0.96356 0.55797 0.0
H5417 H 0.90782 0.92686 0.49613 0.0
H5418 H 0.88595 0.92017 0.50368 0.0
H5419 H 0.90546 0.91242 0.514 0.0
C5420 C 0.84265 0.92747 0.54123 0.0
C5421 C 0.84018 0.90882 0.53618 0.0
C5422 C 0.8595 0.93874 0.54091 0.0
C5423 C 0.87484 0.9315 0.53719 0.0
C5424 C 0.87277 0.91252 0.53505 0.0
H5425 H 0.98814 0.98585 0.5524 0.0
H5426 H 0.95848 0.967 0.55418 0.0
C5427 C 0.85558 0.90135 0.53395 0.0
C5428 C 0.89278 0.94383 0.53612 0.0
H5429 H 0.93116 0.94888 0.51398 0.0
C5430 C 0.89758 0.96028 0.54797 0.0
C5431 C 0.90498 0.94007 0.52319 0.0
C5432 C 0.90066 0.92403 0.50844 0.0
C5433 C 0.91376 0.97269 0.54726 0.0
C5434 C 0.92613 0.96829 0.53518 0.0
C5435 C 0.92166 0.95204 0.52343 0.0
C5436 C 0.94389 0.98038 0.53465 0.0
C5437 C 0.91758 0.9906 0.55927 0.0
C5438 C 0.94548 0.99423 0.52312 0.0
C5439 C 0.96244 0.00505 0.52203 0.0
C5440 C 0.97815 1.00222 0.53246 0.0
C5441 C 0.97638 0.98846 0.54419 0.0
C5442 C 0.95944 0.97765 0.54524 0.0
H5443 H 0.90666 0.99205 0.5681 0.0
H5444 H 0.93062 0.99218 0.56827 0.0
H5445 H 0.91899 1.0017 0.55033 0.0
H5446 H 0.93363 0.99648 0.51477 0.0
H5447 H 0.96329 0.01536 0.5127 0.0
H5448 H 0.89106 0.05687 0.29563 0.0
H5449 H 0.87858 0.08382 0.29386 0.0
H5450 H 0.90162 0.09252 0.24292 0.0
H5451 H 0.91381 0.06459 0.24421 0.0
H5452 H 0.89452 0.11812 0.29427 0.0
H5453 H 0.84883 0.09534 0.22833 0.0
H5454 H 0.86002 0.0801 0.24051 0.0
H5455 H 0.87256 0.09574 0.22726 0.0
C5456 C 0.89361 0.06444 0.28399 0.0
C5457 C 0.90337 0.05841 0.26996 0.0
C5458 C 0.88643 0.07995 0.28304 0.0
C5459 C 0.88885 0.09011 0.26812 0.0
C5460 C 0.89923 0.08468 0.25438 0.0
H5461 H 0.84902 0.19172 0.26545 0.0
H5462 H 0.8636 0.16633 0.25629 0.0
C5463 C 0.90644 0.06889 0.25527 0.0
C5464 C 0.88037 0.1063 0.2676 0.0
H5465 H 0.84671 0.12315 0.2445 0.0
C5466 C 0.88424 0.1193 0.28324 0.0
C5467 C 0.86682 0.10781 0.25328 0.0
C5468 C 0.86164 0.09398 0.23643 0.0
C5469 C 0.87461 0.13333 0.28528 0.0
C5470 C 0.86077 0.13454 0.27127 0.0
C5471 C 0.85732 0.12209 0.25523 0.0
C5472 C 0.84946 0.14839 0.27374 0.0
C5473 C 0.8789 0.14652 0.3027 0.0
C5474 C 0.83632 0.14645 0.28611 0.0
C5475 C 0.8281 0.1609 0.29139 0.0
C5476 C 0.83279 0.17741 0.2842 0.0
C5477 C 0.84506 0.17899 0.27094 0.0
C5478 C 0.85337 0.16454 0.26573 0.0
H5479 H 0.89166 0.14532 0.311 0.0
H5480 H 0.8801 0.16058 0.29922 0.0
H5481 H 0.86767 0.14392 0.31142 0.0
H5482 H 0.83319 0.13409 0.29247 0.0
H5483 H 0.81877 0.15949 0.30176 0.0
H5484 H 0.72579 0.10058 0.05845 0.0
H5485 H 0.69409 0.08766 0.06087 0.0
H5486 H 0.67748 0.11645 0.01588 0.0
H5487 H 0.70899 0.13122 0.01542 0.0
H5488 H 0.65804 0.12024 0.04157 0.0
H5489 H 0.66157 0.04745 0.03111 0.0
H5490 H 0.67321 0.05884 0.05284 0.0
H5491 H 0.68126 0.06492 0.03155 0.0
C5492 C 0.71522 0.10393 0.04906 0.0
C5493 C 0.71943 0.11643 0.03645 0.0
C5494 C 0.69723 0.09651 0.05035 0.0
C5495 C 0.68347 0.10083 0.03831 0.0
C5496 C 0.68791 0.11299 0.02534 0.0
H5497 H 0.57917 0.03867 0.00599 0.0
H5498 H 0.60879 0.0583 0.00616 0.0
C5499 C 0.70579 0.12122 0.02485 0.0
C5500 C 0.6643 0.09354 0.03946 0.0
H5501 H 0.63295 0.05456 0.03529 0.0
C5502 C 0.65254 0.10585 0.04 0.0
C5503 C 0.65727 0.07479 0.03819 0.0
C5504 C 0.66898 0.06073 0.03828 0.0
C5505 C 0.6338 0.0999 0.03762 0.0
C5506 C 0.62687 0.08121 0.03533 0.0
C5507 C 0.63855 0.06892 0.03633 0.0
C5508 C 0.60749 0.07377 0.03239 0.0
C5509 C 0.62168 0.11359 0.03696 0.0
C5510 C 0.59686 0.07685 0.04656 0.0
C5511 C 0.57991 0.06601 0.04618 0.0
C5512 C 0.57373 0.05205 0.03174 0.0
C5513 C 0.58369 0.04982 0.01688 0.0
C5514 C 0.60054 0.06086 0.01708 0.0
H5515 H 0.629 0.12679 0.03369 0.0
H5516 H 0.60964 0.10876 0.02649 0.0
H5517 H 0.61687 0.1158 0.05072 0.0
H5518 H 0.60225 0.08648 0.05864 0.0
H5519 H 0.57226 0.06758 0.05784 0.0
H5520 H 0.18254 0.48544 0.28064 0.0
H5521 H 0.19128 0.45598 0.27569 0.0
H5522 H 0.21537 0.47157 0.22694 0.0
H5523 H 0.20649 0.50113 0.2319 0.0
H5524 H 0.18583 0.42796 0.24223 0.0
H5525 H 0.25697 0.46355 0.26674 0.0
H5526 H 0.23794 0.47409 0.27062 0.0
H5527 H 0.24458 0.47127 0.24777 0.0
C5528 C 0.18939 0.48232 0.26871 0.0
C5529 C 0.19402 0.49517 0.25664 0.0
C5530 C 0.19424 0.4656 0.26582 0.0
C5531 C 0.20389 0.46179 0.25096 0.0
C5532 C 0.20783 0.4744 0.2384 0.0
H5533 H 0.26696 0.38042 0.27277 0.0
H5534 H 0.25321 0.39934 0.25279 0.0
C5535 C 0.20286 0.49113 0.24124 0.0
C5536 C 0.21177 0.44559 0.25041 0.0
H5537 H 0.25023 0.43229 0.26673 0.0
C5538 C 0.20003 0.42874 0.24703 0.0
C5539 C 0.23027 0.44688 0.25666 0.0
C5540 C 0.24326 0.46487 0.26075 0.0
C5541 C 0.20612 0.41308 0.25105 0.0
C5542 C 0.22424 0.41458 0.25889 0.0
C5543 C 0.23633 0.43124 0.2607 0.0
C5544 C 0.23027 0.40002 0.26818 0.0
C5545 C 0.19292 0.39528 0.24774 0.0
C5546 C 0.22172 0.39394 0.28327 0.0
C5547 C 0.22938 0.38292 0.2946 0.0
C5548 C 0.24588 0.37806 0.29119 0.0
C5549 C 0.25407 0.38365 0.27563 0.0
C5550 C 0.24628 0.39451 0.2642 0.0
H5551 H 0.18241 0.39514 0.23593 0.0
H5552 H 0.19992 0.38385 0.24487 0.0
H5553 H 0.18589 0.39323 0.26025 0.0
H5554 H 0.20963 0.39851 0.28691 0.0
H5555 H 0.22268 0.37869 0.30635 0.0
H5556 H 0.25997 0.43486 0.02241 0.0
H5557 H 0.23269 0.4466 0.02443 0.0
H5558 H 0.20509 0.39566 0.03868 0.0
H5559 H 0.23318 0.38355 0.03714 0.0
H5560 H 0.20062 0.43171 1.00145 0.0
H5561 H 0.19093 0.43467 0.07634 0.0
H5562 H 0.21257 0.43324 0.06841 0.0
H5563 H 0.19452 0.41383 0.06466 0.0
C5564 C 0.24829 0.42598 0.02616 0.0
C5565 C 0.24885 0.40806 0.02942 0.0
C5566 C 0.2326 0.43284 0.02734 0.0
C5567 C 0.21682 0.42206 0.03167 0.0
C5568 C 0.21722 0.40429 0.03548 0.0
H5569 H 0.11468 0.46211 0.01735 0.0
H5570 H 0.13563 0.44236 0.02647 0.0
C5571 C 0.23321 0.39735 0.0345 0.0
C5572 C 0.19999 0.42957 0.0306 0.0
H5573 H 0.1716 0.44804 0.05707 0.0
C5574 C 0.19405 0.43495 0.01355 0.0
C5575 C 0.19154 0.43394 0.04643 0.0
C5576 C 0.19767 0.42875 0.06508 0.0
C5577 C 0.18048 0.4452 0.01205 0.0
C5578 C 0.17256 0.45024 0.02801 0.0
C5579 C 0.17777 0.44415 0.0449 0.0
C5580 C 0.15981 0.46287 0.02723 0.0
C5581 C 0.17522 0.45126 0.99352 0.0
C5582 C 0.16649 0.48107 0.02548 0.0
C5583 C 0.15462 0.49227 0.02031 0.0
C5584 C 0.13587 0.48549 0.01694 0.0
C5585 C 0.12906 0.4677 0.02021 0.0
C5586 C 0.141 0.45642 0.02532 0.0
H5587 H 0.17999 0.44347 0.98195 0.0
H5588 H 0.16029 0.44983 0.9908 0.0
H5589 H 0.1814 0.46574 0.99366 0.0
H5590 H 0.18096 0.48626 0.02682 0.0
H5591 H 0.16016 0.50587 0.01762 0.0
H5592 H 0.87503 0.9717 0.24917 0.0
H5593 H 0.85482 0.94301 0.25064 0.0
H5594 H 0.90116 0.91983 0.26689 0.0
H5595 H 0.92089 0.94957 0.26846 0.0
H5596 H 0.84706 0.91348 0.23544 0.0
H5597 H 0.87498 0.90052 0.30463 0.0
H5598 H 0.88438 0.92052 0.29493 0.0
H5599 H 0.89147 0.89961 0.28875 0.0
C5600 C 0.88073 0.96068 0.25401 0.0
C5601 C 0.89926 0.96328 0.26029 0.0
C5602 C 0.86921 0.94403 0.25439 0.0
C5603 C 0.8761 0.92909 0.25992 0.0
C5604 C 0.89507 0.93122 0.26395 0.0
H5605 H 0.82055 0.81681 0.2454 0.0
H5606 H 0.83978 0.84619 0.24364 0.0
C5607 C 0.90647 0.9482 0.26453 0.0
C5608 C 0.86338 0.91144 0.2609 0.0
H5609 H 0.85407 0.87598 0.28662 0.0
C5610 C 0.84863 0.90557 0.24687 0.0
C5611 C 0.86508 0.90062 0.27566 0.0
C5612 C 0.87973 0.90576 0.29189 0.0
C5613 C 0.83587 0.88955 0.24716 0.0
C5614 C 0.838 0.87872 0.26155 0.0
C5615 C 0.85253 0.88437 0.27557 0.0
C5616 C 0.82558 0.86114 0.26195 0.0
C5617 C 0.82005 0.88421 0.23215 0.0
C5618 C 0.81114 0.85983 0.27277 0.0
C5619 C 0.80002 0.84303 0.27378 0.0
C5620 C 0.80322 0.82718 0.26404 0.0
C5621 C 0.81761 0.82867 0.25304 0.0
C5622 C 0.82864 0.84546 0.252 0.0
H5623 H 0.81961 0.8946 0.22247 0.0
H5624 H 0.82093 0.87127 0.22412 0.0
H5625 H 0.80717 0.88198 0.23849 0.0
H5626 H 0.80861 0.87178 0.28063 0.0
H5627 H 0.78926 0.84241 0.28259 0.0
H5628 H 0.67011 0.10084 0.75797 0.0
H5629 H 0.68551 0.13186 0.7574 0.0
H5630 H 0.73693 0.11432 0.75956 0.0
H5631 H 0.72067 0.08323 0.75433 0.0
H5632 H 0.70345 0.15079 0.78229 0.0
H5633 H 0.75113 0.1502 0.72938 0.0
H5634 H 0.73409 0.13062 0.73085 0.0
H5635 H 0.75556 0.1349 0.7455 0.0
C5636 C 0.68469 0.10373 0.75797 0.0
C5637 C 0.69468 0.08997 0.75824 0.0
C5638 C 0.69352 0.12143 0.75775 0.0
C5639 C 0.71254 0.12569 0.759 0.0
C5640 C 0.7223 0.11169 0.75833 0.0
H5641 H 0.78579 0.22807 0.78954 0.0
H5642 H 0.76777 0.19859 0.79376 0.0
C5643 C 0.71319 0.09389 0.75659 0.0
C5644 C 0.72191 0.14473 0.76269 0.0
H5645 H 0.75741 0.17552 0.75261 0.0
C5646 C 0.71503 0.15612 0.77542 0.0
C5647 C 0.7373 0.15183 0.75409 0.0
C5648 C 0.74476 0.14123 0.73908 0.0
C5649 C 0.72263 0.17444 0.77921 0.0
C5650 C 0.73815 0.18113 0.77109 0.0
C5651 C 0.74558 0.16987 0.75901 0.0
C5652 C 0.74586 0.20024 0.77297 0.0
C5653 C 0.71382 0.18668 0.7913 0.0
C5654 C 0.73898 0.21067 0.76028 0.0
C5655 C 0.74929 0.22712 0.75766 0.0
C5656 C 0.76627 0.23312 0.76794 0.0
C5657 C 0.77255 0.2234 0.78166 0.0
C5658 C 0.76231 0.20682 0.78416 0.0
H5659 H 0.7028 0.17903 0.7981 0.0
H5660 H 0.72408 0.19515 0.80208 0.0
H5661 H 0.70796 0.19593 0.78264 0.0
H5662 H 0.72639 0.20542 0.75138 0.0
H5663 H 0.7445 0.23465 0.74696 0.0
loop_
_geom_bond_atom_site_label_1
_geom_bond_atom_site_label_2
_geom_bond_distance
_geom_bond_site_symmetry_2
_ccdc_geom_bond_type
Mn0 O5 2.095 . S
Mn0 O15 2.162 . S
Mn0 O16 2.297 . S
Mn0 O24 2.385 . S
Mn0 O25 2.209 . S
Mn0 O26 2.094 . S
Mn1 O6 2.121 . S
Mn1 N8 2.257 . S
Mn1 N17 2.282 . S
Mn1 O25 2.215 . S
Mn1 O27 2.117 . S
C2 O24 1.234 . S
C2 O25 1.283 . S
C3 O15 1.281 . S
C3 O16 1.236 . S
C4 O26 1.240 . S
C4 O27 1.264 . S
O5 Mn0 2.095 . S
O5 C14 1.250 . S
O6 Mn1 2.121 . S
O6 C14 1.258 . S
C7 N8 1.326 . S
C7 C11 1.460 . S
C7 H13 0.929 . S
N8 Mn1 2.257 . S
N8 C7 1.326 . S
N8 C12 1.362 . S
C9 C10 1.270 . S
C9 C12 1.436 . S
C9 C29 1.431 1_455 S
C10 C9 1.270 . S
C10 C11 1.477 . S
C10 H30 0.931 . S
C11 C7 1.460 . S
C11 C10 1.477 . S
C11 H31 0.930 . S
C12 N8 1.362 . S
C12 C9 1.436 . S
C12 C22 1.476 1_455 S
H13 C7 0.929 . S
C14 O5 1.250 . S
C14 O6 1.258 . S
O15 Mn0 2.162 . S
O15 C3 1.281 . S
O16 Mn0 2.297 . S
O16 C3 1.236 . S
N17 Mn1 2.282 . S
N17 C18 1.328 1_455 S
N17 C22 1.318 1_455 S
C18 N17 1.328 1_655 S
C18 C19 1.457 . S
C18 H23 0.929 1_655 S
C19 C18 1.457 . S
C19 C20 1.291 . S
C19 H32 0.931 . S
C20 C19 1.291 . S
C20 C21 1.373 . S
C20 H33 0.929 . S
C21 C20 1.373 . S
C21 C22 1.396 . S
C21 C28 1.403 . S
C22 C12 1.476 1_655 S
C22 N17 1.318 1_655 S
C22 C21 1.396 . S
H23 C18 0.929 1_455 S
O24 Mn0 2.385 . S
O24 C2 1.234 . S
O25 Mn0 2.209 . S
O25 Mn1 2.215 . S
O25 C2 1.283 . S
O26 Mn0 2.094 . S
O26 C4 1.240 . S
O27 Mn1 2.117 . S
O27 C4 1.264 . S
C28 C21 1.403 . S
C28 C29 1.399 . S
C28 H34 0.929 . S
C29 C9 1.431 1_655 S
C29 C28 1.399 . S
C29 H35 0.930 . S
H30 C10 0.931 . S
H31 C11 0.930 . S
H32 C19 0.931 . S
H33 C20 0.929 . S
H34 C28 0.929 . S
H35 C29 0.930 . S
Mn36 O41 2.095 1_455 S
Mn36 O51 2.162 . S
Mn36 O52 2.297 . S
Mn36 O60 2.385 . S
Mn36 O61 2.209 . S
Mn36 O62 2.094 . S
Mn37 O42 2.121 1_455 S
Mn37 N44 2.257 . S
Mn37 N53 2.282 . S
Mn37 O61 2.215 . S
Mn37 O63 2.117 . S
C38 O60 1.234 . S
C38 O61 1.283 . S
C39 O51 1.281 . S
C39 O52 1.236 . S
C40 O62 1.240 . S
C40 O63 1.264 . S
O41 Mn36 2.095 1_655 S
O41 C50 1.250 . S
O42 Mn37 2.121 1_655 S
O42 C50 1.258 . S
C43 N44 1.326 . S
C43 C47 1.460 . S
C43 H49 0.929 . S
N44 Mn37 2.257 . S
N44 C43 1.326 . S
N44 C48 1.362 . S
C45 C46 1.258 . S
C45 C48 1.431 . S
C45 C65 1.449 . S
C46 C45 1.258 . S
C46 C47 1.477 . S
C46 H66 0.931 . S
C47 C43 1.460 . S
C47 C46 1.477 . S
C47 H67 0.930 . S
C48 N44 1.362 . S
C48 C45 1.431 . S
C48 C58 1.476 . S
H49 C43 0.929 . S
C50 O41 1.250 . S
C50 O42 1.258 . S
O51 Mn36 2.162 . S
O51 C39 1.281 . S
O52 Mn36 2.297 . S
O52 C39 1.236 . S
N53 Mn37 2.282 . S
N53 C54 1.328 . S
N53 C58 1.318 . S
C54 N53 1.328 . S
C54 C55 1.457 . S
C54 H59 0.929 . S
C55 C54 1.457 . S
C55 C56 1.291 . S
C55 H68 0.931 . S
C56 C55 1.291 . S
C56 C57 1.373 . S
C56 H69 0.929 . S
C57 C56 1.373 . S
C57 C58 1.396 . S
C57 C64 1.403 . S
C58 C48 1.476 . S
C58 N53 1.318 . S
C58 C57 1.396 . S
H59 C54 0.929 . S
O60 Mn36 2.385 . S
O60 C38 1.234 . S
O61 Mn36 2.209 . S
O61 Mn37 2.215 . S
O61 C38 1.283 . S
O62 Mn36 2.094 . S
O62 C40 1.240 . S
O63 Mn37 2.117 . S
O63 C40 1.264 . S
C64 C57 1.403 . S
C64 C65 1.399 . S
C64 H70 0.929 . S
C65 C45 1.449 . S
C65 C64 1.399 . S
C65 H71 0.930 . S
H66 C46 0.931 . S
H67 C47 0.930 . S
H68 C55 0.931 . S
H69 C56 0.929 . S
H70 C64 0.929 . S
H71 C65 0.930 . S
Mn72 O77 2.095 . S
Mn72 O87 2.162 . S
Mn72 O88 2.297 . S
Mn72 O96 2.385 . S
Mn72 O97 2.209 . S
Mn72 O98 2.094 . S
Mn73 O78 2.121 . S
Mn73 N80 2.257 . S
Mn73 N89 2.282 . S
Mn73 O97 2.215 . S
Mn73 O99 2.117 . S
C74 O96 1.234 . S
C74 O97 1.283 . S
C75 O87 1.281 . S
C75 O88 1.236 . S
C76 O98 1.240 . S
C76 O99 1.264 . S
O77 Mn72 2.095 . S
O77 C86 1.250 . S
O78 Mn73 2.121 . S
O78 C86 1.258 . S
C79 N80 1.326 . S
C79 C83 1.460 . S
C79 H85 0.929 . S
N80 Mn73 2.257 . S
N80 C79 1.326 . S
N80 C84 1.362 . S
C81 C82 1.258 . S
C81 C84 1.431 . S
C81 C101 1.449 . S
C82 C81 1.258 . S
C82 C83 1.477 . S
C82 H102 0.931 . S
C83 C79 1.460 . S
C83 C82 1.477 . S
C83 H103 0.930 . S
C84 N80 1.362 . S
C84 C81 1.431 . S
C84 C94 1.476 . S
H85 C79 0.929 . S
C86 O77 1.250 . S
C86 O78 1.258 . S
O87 Mn72 2.162 . S
O87 C75 1.281 . S
O88 Mn72 2.297 . S
O88 C75 1.236 . S
N89 Mn73 2.282 . S
N89 C90 1.328 . S
N89 C94 1.318 . S
C90 N89 1.328 . S
C90 C91 1.457 . S
C90 H95 0.929 . S
C91 C90 1.457 . S
C91 C92 1.291 . S
C91 H104 0.931 . S
C92 C91 1.291 . S
C92 C93 1.373 . S
C92 H105 0.929 . S
C93 C92 1.373 . S
C93 C94 1.396 . S
C93 C100 1.403 . S
C94 C84 1.476 . S
C94 N89 1.318 . S
C94 C93 1.396 . S
H95 C90 0.929 . S
O96 Mn72 2.385 . S
O96 C74 1.234 . S
O97 Mn72 2.209 . S
O97 Mn73 2.215 . S
O97 C74 1.283 . S
O98 Mn72 2.094 . S
O98 C76 1.240 . S
O99 Mn73 2.117 . S
O99 C76 1.264 . S
C100 C93 1.403 . S
C100 C101 1.399 . S
C100 H106 0.929 . S
C101 C81 1.449 . S
C101 C100 1.399 . S
C101 H107 0.930 . S
H102 C82 0.931 . S
H103 C83 0.930 . S
H104 C91 0.931 . S
H105 C92 0.929 . S
H106 C100 0.929 . S
H107 C101 0.930 . S
Mn108 O113 2.095 . S
Mn108 O123 2.162 . S
Mn108 O124 2.297 . S
Mn108 O132 2.385 . S
Mn108 O133 2.209 . S
Mn108 O134 2.094 . S
Mn109 O114 2.121 . S
Mn109 N116 2.257 . S
Mn109 N125 2.282 . S
Mn109 O133 2.215 . S
Mn109 O135 2.117 . S
C110 O132 1.234 . S
C110 O133 1.283 . S
C111 O123 1.281 . S
C111 O124 1.236 . S
C112 O134 1.240 . S
C112 O135 1.264 . S
O113 Mn108 2.095 . S
O113 C122 1.250 . S
O114 Mn109 2.121 . S
O114 C122 1.258 . S
C115 N116 1.326 . S
C115 C119 1.460 . S
C115 H121 0.929 . S
N116 Mn109 2.257 . S
N116 C115 1.326 . S
N116 C120 1.362 . S
C117 C118 1.258 . S
C117 C120 1.431 . S
C117 C137 1.449 . S
C118 C117 1.258 . S
C118 C119 1.477 . S
C118 H138 0.931 . S
C119 C115 1.460 . S
C119 C118 1.477 . S
C119 H139 0.930 . S
C120 N116 1.362 . S
C120 C117 1.431 . S
C120 C130 1.476 . S
H121 C115 0.929 . S
C122 O113 1.250 . S
C122 O114 1.258 . S
O123 Mn108 2.162 . S
O123 C111 1.281 . S
O124 Mn108 2.297 . S
O124 C111 1.236 . S
N125 Mn109 2.282 . S
N125 C126 1.328 . S
N125 C130 1.318 . S
C126 N125 1.328 . S
C126 C127 1.457 . S
C126 H131 0.929 . S
C127 C126 1.457 . S
C127 C128 1.291 . S
C127 H140 0.931 . S
C128 C127 1.291 . S
C128 C129 1.373 . S
C128 H141 0.929 . S
C129 C128 1.373 . S
C129 C130 1.396 . S
C129 C136 1.403 . S
C130 C120 1.476 . S
C130 N125 1.318 . S
C130 C129 1.396 . S
H131 C126 0.929 . S
O132 Mn108 2.385 . S
O132 C110 1.234 . S
O133 Mn108 2.209 . S
O133 Mn109 2.215 . S
O133 C110 1.283 . S
O134 Mn108 2.094 . S
O134 C112 1.240 . S
O135 Mn109 2.117 . S
O135 C112 1.264 . S
C136 C129 1.403 . S
C136 C137 1.399 . S
C136 H142 0.929 . S
C137 C117 1.449 . S
C137 C136 1.399 . S
C137 H143 0.930 . S
H138 C118 0.931 . S
H139 C119 0.930 . S
H140 C127 0.931 . S
H141 C128 0.929 . S
H142 C136 0.929 . S
H143 C137 0.930 . S
Mn144 O149 2.095 . S
Mn144 O159 2.162 . S
Mn144 O160 2.297 . S
Mn144 O168 2.385 . S
Mn144 O169 2.209 . S
Mn144 O170 2.094 . S
Mn145 O150 2.121 . S
Mn145 N152 2.257 . S
Mn145 N161 2.282 . S
Mn145 O169 2.215 . S
Mn145 O171 2.117 . S
C146 O168 1.234 . S
C146 O169 1.283 . S
C147 O159 1.281 . S
C147 O160 1.236 . S
C148 O170 1.240 . S
C148 O171 1.264 . S
O149 Mn144 2.095 . S
O149 C158 1.250 . S
O150 Mn145 2.121 . S
O150 C158 1.258 . S
C151 N152 1.326 . S
C151 C155 1.460 . S
C151 H157 0.929 . S
N152 Mn145 2.257 . S
N152 C151 1.326 . S
N152 C156 1.362 . S
C153 C154 1.258 . S
C153 C156 1.431 . S
C153 C173 1.449 1_455 S
C154 C153 1.258 . S
C154 C155 1.477 . S
C154 H174 0.931 . S
C155 C151 1.460 . S
C155 C154 1.477 . S
C155 H175 0.930 . S
C156 N152 1.362 . S
C156 C153 1.431 . S
C156 C166 1.476 . S
H157 C151 0.929 . S
C158 O149 1.250 . S
C158 O150 1.258 . S
O159 Mn144 2.162 . S
O159 C147 1.281 . S
O160 Mn144 2.297 . S
O160 C147 1.236 . S
N161 Mn145 2.282 . S
N161 C162 1.328 1_455 S
N161 C166 1.318 . S
C162 N161 1.328 1_655 S
C162 C163 1.457 . S
C162 H167 0.929 . S
C163 C162 1.457 . S
C163 C164 1.291 . S
C163 H176 0.931 . S
C164 C163 1.291 . S
C164 C165 1.373 . S
C164 H177 0.929 . S
C165 C164 1.373 . S
C165 C166 1.396 1_655 S
C165 C172 1.403 . S
C166 C156 1.476 . S
C166 N161 1.318 . S
C166 C165 1.396 1_455 S
H167 C162 0.929 . S
O168 Mn144 2.385 . S
O168 C146 1.234 . S
O169 Mn144 2.209 . S
O169 Mn145 2.215 . S
O169 C146 1.283 . S
O170 Mn144 2.094 . S
O170 C148 1.240 . S
O171 Mn145 2.117 . S
O171 C148 1.264 . S
C172 C165 1.403 . S
C172 C173 1.399 . S
C172 H178 0.929 . S
C173 C153 1.449 1_655 S
C173 C172 1.399 . S
C173 H179 0.930 . S
H174 C154 0.931 . S
H175 C155 0.930 . S
H176 C163 0.931 . S
H177 C164 0.929 . S
H178 C172 0.929 . S
H179 C173 0.930 . S
Mn180 O185 2.095 . S
Mn180 O195 2.162 . S
Mn180 O196 2.297 . S
Mn180 O204 2.385 . S
Mn180 O205 2.209 . S
Mn180 O206 2.094 . S
Mn181 O186 2.121 . S
Mn181 N188 2.257 . S
Mn181 N197 2.282 . S
Mn181 O205 2.215 . S
Mn181 O207 2.117 . S
C182 O204 1.234 . S
C182 O205 1.283 . S
C183 O195 1.281 . S
C183 O196 1.236 . S
C184 O206 1.240 . S
C184 O207 1.264 . S
O185 Mn180 2.095 . S
O185 C194 1.250 . S
O186 Mn181 2.121 . S
O186 C194 1.258 . S
C187 N188 1.326 . S
C187 C191 1.460 . S
C187 H193 0.929 . S
N188 Mn181 2.257 . S
N188 C187 1.326 . S
N188 C192 1.362 . S
C189 C190 1.258 . S
C189 C192 1.431 . S
C189 C209 1.449 . S
C190 C189 1.258 . S
C190 C191 1.477 . S
C190 H210 0.931 . S
C191 C187 1.460 . S
C191 C190 1.477 . S
C191 H211 0.930 . S
C192 N188 1.362 . S
C192 C189 1.431 . S
C192 C202 1.476 . S
H193 C187 0.929 . S
C194 O185 1.250 . S
C194 O186 1.258 . S
O195 Mn180 2.162 . S
O195 C183 1.281 . S
O196 Mn180 2.297 . S
O196 C183 1.236 . S
N197 Mn181 2.282 . S
N197 C198 1.328 . S
N197 C202 1.318 . S
C198 N197 1.328 . S
C198 C199 1.457 . S
C198 H203 0.929 . S
C199 C198 1.457 . S
C199 C200 1.291 . S
C199 H212 0.931 . S
C200 C199 1.291 . S
C200 C201 1.373 . S
C200 H213 0.929 . S
C201 C200 1.373 . S
C201 C202 1.396 . S
C201 C208 1.403 . S
C202 C192 1.476 . S
C202 N197 1.318 . S
C202 C201 1.396 . S
H203 C198 0.929 . S
O204 Mn180 2.385 . S
O204 C182 1.234 . S
O205 Mn180 2.209 . S
O205 Mn181 2.215 . S
O205 C182 1.283 . S
O206 Mn180 2.094 . S
O206 C184 1.240 . S
O207 Mn181 2.117 . S
O207 C184 1.264 . S
C208 C201 1.403 . S
C208 C209 1.399 . S
C208 H214 0.929 . S
C209 C189 1.449 . S
C209 C208 1.399 . S
C209 H215 0.930 . S
H210 C190 0.931 . S
H211 C191 0.930 . S
H212 C199 0.931 . S
H213 C200 0.929 . S
H214 C208 0.929 . S
H215 C209 0.930 . S
Mn216 O221 2.095 . S
Mn216 O231 2.162 . S
Mn216 O232 2.297 . S
Mn216 O240 2.385 . S
Mn216 O241 2.209 . S
Mn216 O242 2.094 . S
Mn217 O222 2.121 . S
Mn217 N224 2.257 . S
Mn217 N233 2.282 . S
Mn217 O241 2.215 . S
Mn217 O243 2.117 . S
C218 O240 1.234 . S
C218 O241 1.283 . S
C219 O231 1.281 . S
C219 O232 1.236 . S
C220 O242 1.240 . S
C220 O243 1.264 . S
O221 Mn216 2.095 . S
O221 C230 1.250 . S
O222 Mn217 2.121 . S
O222 C230 1.258 . S
C223 N224 1.326 . S
C223 C227 1.460 . S
C223 H229 0.929 . S
N224 Mn217 2.257 . S
N224 C223 1.326 . S
N224 C228 1.362 . S
C225 C226 1.258 . S
C225 C228 1.431 . S
C225 C245 1.449 . S
C226 C225 1.258 . S
C226 C227 1.477 . S
C226 H246 0.931 . S
C227 C223 1.460 . S
C227 C226 1.477 . S
C227 H247 0.930 . S
C228 N224 1.362 . S
C228 C225 1.431 . S
C228 C238 1.476 . S
H229 C223 0.929 . S
C230 O221 1.250 . S
C230 O222 1.258 . S
O231 Mn216 2.162 . S
O231 C219 1.281 . S
O232 Mn216 2.297 . S
O232 C219 1.236 . S
N233 Mn217 2.282 . S
N233 C234 1.328 . S
N233 C238 1.318 . S
C234 N233 1.328 . S
C234 C235 1.457 . S
C234 H239 0.929 . S
C235 C234 1.457 . S
C235 C236 1.291 . S
C235 H248 0.931 . S
C236 C235 1.291 . S
C236 C237 1.373 . S
C236 H249 0.929 . S
C237 C236 1.373 . S
C237 C238 1.396 . S
C237 C244 1.403 . S
C238 C228 1.476 . S
C238 N233 1.318 . S
C238 C237 1.396 . S
H239 C234 0.929 . S
O240 Mn216 2.385 . S
O240 C218 1.234 . S
O241 Mn216 2.209 . S
O241 Mn217 2.215 . S
O241 C218 1.283 . S
O242 Mn216 2.094 . S
O242 C220 1.240 . S
O243 Mn217 2.117 . S
O243 C220 1.264 . S
C244 C237 1.403 . S
C244 C245 1.399 . S
C244 H250 0.929 . S
C245 C225 1.449 . S
C245 C244 1.399 . S
C245 H251 0.930 . S
H246 C226 0.931 . S
H247 C227 0.930 . S
H248 C235 0.931 . S
H249 C236 0.929 . S
H250 C244 0.929 . S
H251 C245 0.930 . S
Mn252 O257 2.064 1_655 S
Mn252 O267 2.155 1_655 S
Mn252 O268 2.294 . S
Mn252 O276 2.419 . S
Mn252 O277 2.224 . S
Mn252 O278 2.098 1_655 S
Mn253 O258 2.121 1_655 S
Mn253 N260 2.257 . S
Mn253 N269 2.282 . S
Mn253 O277 2.215 . S
Mn253 O279 2.117 1_655 S
C254 O276 1.234 . S
C254 O277 1.283 . S
C255 O267 1.283 1_655 S
C255 O268 1.236 . S
C256 O278 1.240 . S
C256 O279 1.264 . S
O257 Mn252 2.064 1_455 S
O257 C266 1.250 . S
O258 Mn253 2.121 1_455 S
O258 C266 1.258 . S
C259 N260 1.326 . S
C259 C263 1.460 . S
C259 H265 0.929 1_655 S
N260 Mn253 2.257 . S
N260 C259 1.326 . S
N260 C264 1.362 . S
C261 C262 1.258 . S
C261 C264 1.431 . S
C261 C281 1.449 . S
C262 C261 1.258 . S
C262 C263 1.477 . S
C262 H282 0.931 . S
C263 C259 1.460 . S
C263 C262 1.477 . S
C263 H283 0.930 . S
C264 N260 1.362 . S
C264 C261 1.431 . S
C264 C274 1.476 . S
H265 C259 0.929 1_455 S
C266 O257 1.250 . S
C266 O258 1.258 . S
O267 Mn252 2.155 1_455 S
O267 C255 1.283 1_455 S
O268 Mn252 2.294 . S
O268 C255 1.236 . S
N269 Mn253 2.282 . S
N269 C270 1.328 . S
N269 C274 1.318 . S
C270 N269 1.328 . S
C270 C271 1.457 . S
C270 H275 0.929 . S
C271 C270 1.457 . S
C271 C272 1.291 . S
C271 H284 0.931 . S
C272 C271 1.291 . S
C272 C273 1.373 . S
C272 H285 0.929 . S
C273 C272 1.373 . S
C273 C274 1.396 . S
C273 C280 1.403 . S
C274 C264 1.476 . S
C274 N269 1.318 . S
C274 C273 1.396 . S
H275 C270 0.929 . S
O276 Mn252 2.419 . S
O276 C254 1.234 . S
O277 Mn252 2.224 . S
O277 Mn253 2.215 . S
O277 C254 1.283 . S
O278 Mn252 2.098 1_455 S
O278 C256 1.240 . S
O279 Mn253 2.117 1_455 S
O279 C256 1.264 . S
C280 C273 1.403 . S
C280 C281 1.399 . S
C280 H286 0.929 . S
C281 C261 1.449 . S
C281 C280 1.399 . S
C281 H287 0.930 . S
H282 C262 0.931 . S
H283 C263 0.930 . S
H284 C271 0.931 . S
H285 C272 0.929 . S
H286 C280 0.929 . S
H287 C281 0.930 . S
Mn288 O293 2.095 . S
Mn288 O303 2.162 . S
Mn288 O304 2.297 . S
Mn288 O312 2.385 1_545 S
Mn288 O313 2.209 1_545 S
Mn288 O314 2.094 . S
Mn289 O294 2.121 . S
Mn289 N296 2.257 1_545 S
Mn289 N305 2.282 1_545 S
Mn289 O313 2.215 1_545 S
Mn289 O315 2.117 . S
C290 O312 1.234 . S
C290 O313 1.283 . S
C291 O303 1.281 . S
C291 O304 1.236 . S
C292 O314 1.240 . S
C292 O315 1.264 . S
O293 Mn288 2.095 . S
O293 C302 1.250 . S
O294 Mn289 2.121 . S
O294 C302 1.258 . S
C295 N296 1.289 1_545 S
C295 C299 1.447 1_545 S
C295 H301 0.982 . S
N296 Mn289 2.257 1_565 S
N296 C295 1.289 1_565 S
N296 C300 1.362 . S
C297 C298 1.258 . S
C297 C300 1.431 . S
C297 C317 1.449 . S
C298 C297 1.258 . S
C298 C299 1.477 . S
C298 H318 0.931 . S
C299 C295 1.447 1_565 S
C299 C298 1.477 . S
C299 H319 0.930 . S
C300 N296 1.362 . S
C300 C297 1.431 . S
C300 C310 1.476 . S
H301 C295 0.982 . S
C302 O293 1.250 . S
C302 O294 1.258 . S
O303 Mn288 2.162 . S
O303 C291 1.281 . S
O304 Mn288 2.297 . S
O304 C291 1.236 . S
N305 Mn289 2.282 1_565 S
N305 C306 1.328 . S
N305 C310 1.318 . S
C306 N305 1.328 . S
C306 C307 1.457 . S
C306 H311 0.929 . S
C307 C306 1.457 . S
C307 C308 1.291 . S
C307 H320 0.931 . S
C308 C307 1.291 . S
C308 C309 1.373 . S
C308 H321 0.929 . S
C309 C308 1.373 . S
C309 C310 1.396 . S
C309 C316 1.403 . S
C310 C300 1.476 . S
C310 N305 1.318 . S
C310 C309 1.396 . S
H311 C306 0.929 . S
O312 Mn288 2.385 1_565 S
O312 C290 1.234 . S
O313 Mn288 2.209 1_565 S
O313 Mn289 2.215 1_565 S
O313 C290 1.283 . S
O314 Mn288 2.094 . S
O314 C292 1.240 . S
O315 Mn289 2.117 . S
O315 C292 1.264 . S
C316 C309 1.403 . S
C316 C317 1.399 . S
C316 H322 0.929 . S
C317 C297 1.449 . S
C317 C316 1.399 . S
C317 H323 0.930 . S
H318 C298 0.931 . S
H319 C299 0.930 . S
H320 C307 0.931 . S
H321 C308 0.929 . S
H322 C316 0.929 . S
H323 C317 0.930 . S
Mn324 O329 2.095 . S
Mn324 O339 2.162 . S
Mn324 O340 2.297 . S
Mn324 O348 2.385 . S
Mn324 O349 2.209 . S
Mn324 O350 2.094 . S
Mn325 O330 2.121 . S
Mn325 N332 2.257 . S
Mn325 N341 2.282 . S
Mn325 O349 2.215 . S
Mn325 O351 2.117 . S
C326 O348 1.234 . S
C326 O349 1.283 . S
C327 O339 1.281 . S
C327 O340 1.236 . S
C328 O350 1.240 . S
C328 O351 1.264 . S
O329 Mn324 2.095 . S
O329 C338 1.250 . S
O330 Mn325 2.121 . S
O330 C338 1.258 . S
C331 N332 1.326 . S
C331 C335 1.460 . S
C331 H337 0.929 . S
N332 Mn325 2.257 . S
N332 C331 1.326 . S
N332 C336 1.362 . S
C333 C334 1.258 . S
C333 C336 1.431 . S
C333 C353 1.449 . S
C334 C333 1.258 . S
C334 C335 1.477 . S
C334 H354 0.931 . S
C335 C331 1.460 . S
C335 C334 1.477 . S
C335 H355 0.930 . S
C336 N332 1.362 . S
C336 C333 1.431 . S
C336 C346 1.476 . S
H337 C331 0.929 . S
C338 O329 1.250 . S
C338 O330 1.258 . S
O339 Mn324 2.162 . S
O339 C327 1.281 . S
O340 Mn324 2.297 . S
O340 C327 1.236 . S
N341 Mn325 2.282 . S
N341 C342 1.328 . S
N341 C346 1.318 . S
C342 N341 1.328 . S
C342 C343 1.457 . S
C342 H347 0.929 . S
C343 C342 1.457 . S
C343 C344 1.291 . S
C343 H356 0.931 . S
C344 C343 1.291 . S
C344 C345 1.373 . S
C344 H357 0.929 . S
C345 C344 1.373 . S
C345 C346 1.396 . S
C345 C352 1.403 . S
C346 C336 1.476 . S
C346 N341 1.318 . S
C346 C345 1.396 . S
H347 C342 0.929 . S
O348 Mn324 2.385 . S
O348 C326 1.234 . S
O349 Mn324 2.209 . S
O349 Mn325 2.215 . S
O349 C326 1.283 . S
O350 Mn324 2.094 . S
O350 C328 1.240 . S
O351 Mn325 2.117 . S
O351 C328 1.264 . S
C352 C345 1.403 . S
C352 C353 1.399 . S
C352 H358 0.929 . S
C353 C333 1.449 . S
C353 C352 1.399 . S
C353 H359 0.930 . S
H354 C334 0.931 . S
H355 C335 0.930 . S
H356 C343 0.931 . S
H357 C344 0.929 . S
H358 C352 0.929 . S
H359 C353 0.930 . S
Mn360 O365 2.095 . S
Mn360 O375 2.162 . S
Mn360 O376 2.297 . S
Mn360 O384 2.385 . S
Mn360 O385 2.209 . S
Mn360 O386 2.094 . S
Mn361 O366 2.121 . S
Mn361 N368 2.257 . S
Mn361 N377 2.282 . S
Mn361 O385 2.215 . S
Mn361 O387 2.117 . S
C362 O384 1.234 . S
C362 O385 1.283 . S
C363 O375 1.281 . S
C363 O376 1.236 . S
C364 O386 1.240 . S
C364 O387 1.264 . S
O365 Mn360 2.095 . S
O365 C374 1.250 . S
O366 Mn361 2.121 . S
O366 C374 1.258 . S
C367 N368 1.326 . S
C367 C371 1.460 . S
C367 H373 0.929 . S
N368 Mn361 2.257 . S
N368 C367 1.326 . S
N368 C372 1.362 . S
C369 C370 1.258 . S
C369 C372 1.431 . S
C369 C389 1.449 . S
C370 C369 1.258 . S
C370 C371 1.477 . S
C370 H390 0.931 . S
C371 C367 1.460 . S
C371 C370 1.477 . S
C371 H391 0.930 . S
C372 N368 1.362 . S
C372 C369 1.431 . S
C372 C382 1.476 . S
H373 C367 0.929 . S
C374 O365 1.250 . S
C374 O366 1.258 . S
O375 Mn360 2.162 . S
O375 C363 1.281 . S
O376 Mn360 2.297 . S
O376 C363 1.236 . S
N377 Mn361 2.282 . S
N377 C378 1.328 . S
N377 C382 1.318 . S
C378 N377 1.328 . S
C378 C379 1.457 . S
C378 H383 0.929 . S
C379 C378 1.457 . S
C379 C380 1.291 . S
C379 H392 0.931 . S
C380 C379 1.291 . S
C380 C381 1.373 . S
C380 H393 0.929 . S
C381 C380 1.373 . S
C381 C382 1.396 . S
C381 C388 1.403 . S
C382 C372 1.476 . S
C382 N377 1.318 . S
C382 C381 1.396 . S
H383 C378 0.929 . S
O384 Mn360 2.385 . S
O384 C362 1.234 . S
O385 Mn360 2.209 . S
O385 Mn361 2.215 . S
O385 C362 1.283 . S
O386 Mn360 2.094 . S
O386 C364 1.240 . S
O387 Mn361 2.117 . S
O387 C364 1.264 . S
C388 C381 1.403 . S
C388 C389 1.399 . S
C388 H394 0.929 . S
C389 C369 1.449 . S
C389 C388 1.399 . S
C389 H395 0.930 . S
H390 C370 0.931 . S
H391 C371 0.930 . S
H392 C379 0.931 . S
H393 C380 0.929 . S
H394 C388 0.929 . S
H395 C389 0.930 . S
Mn396 O401 2.095 1_554 S
Mn396 O411 2.162 . S
Mn396 O412 2.297 . S
Mn396 O420 2.385 . S
Mn396 O421 2.203 1_554 S
Mn396 O422 2.094 1_554 S
Mn397 O402 2.121 . S
Mn397 N404 2.257 . S
Mn397 N413 2.282 . S
Mn397 O421 2.236 . S
Mn397 O423 2.117 . S
C398 O420 1.234 . S
C398 O421 1.280 1_554 S
C399 O411 1.281 . S
C399 O412 1.236 . S
C400 O422 1.240 . S
C400 O423 1.264 . S
O401 Mn396 2.095 1_556 S
O401 C410 1.250 . S
O402 Mn397 2.121 . S
O402 C410 1.258 . S
C403 N404 1.326 . S
C403 C407 1.460 1_565 S
C403 H409 0.929 . S
N404 Mn397 2.257 . S
N404 C403 1.326 . S
N404 C408 1.362 . S
C405 C406 1.258 1_565 S
C405 C408 1.431 . S
C405 C425 1.449 1_565 S
C406 C405 1.258 1_545 S
C406 C407 1.477 . S
C406 H426 0.931 . S
C407 C403 1.460 1_545 S
C407 C406 1.477 . S
C407 H427 0.930 . S
C408 N404 1.362 . S
C408 C405 1.431 . S
C408 C418 1.476 . S
H409 C403 0.929 . S
C410 O401 1.250 . S
C410 O402 1.258 . S
O411 Mn396 2.162 . S
O411 C399 1.281 . S
O412 Mn396 2.297 . S
O412 C399 1.236 . S
N413 Mn397 2.282 . S
N413 C414 1.328 . S
N413 C418 1.318 . S
C414 N413 1.328 . S
C414 C415 1.457 . S
C414 H419 0.929 . S
C415 C414 1.457 . S
C415 C416 1.291 . S
C415 H428 0.931 . S
C416 C415 1.291 . S
C416 C417 1.373 . S
C416 H429 0.929 . S
C417 C416 1.373 . S
C417 C418 1.396 . S
C417 C424 1.403 . S
C418 C408 1.476 . S
C418 N413 1.318 . S
C418 C417 1.396 . S
H419 C414 0.929 . S
O420 Mn396 2.385 . S
O420 C398 1.234 . S
O421 Mn396 2.203 1_556 S
O421 Mn397 2.236 . S
O421 C398 1.280 1_556 S
O422 Mn396 2.094 1_556 S
O422 C400 1.240 . S
O423 Mn397 2.117 . S
O423 C400 1.264 . S
C424 C417 1.403 . S
C424 C425 1.399 1_565 S
C424 H430 0.929 . S
C425 C405 1.449 1_545 S
C425 C424 1.399 1_545 S
C425 H431 0.930 . S
H426 C406 0.931 . S
H427 C407 0.930 . S
H428 C415 0.931 . S
H429 C416 0.929 . S
H430 C424 0.929 . S
H431 C425 0.930 . S
Mn432 O437 2.095 . S
Mn432 O447 2.162 . S
Mn432 O448 2.297 . S
Mn432 O456 2.385 . S
Mn432 O457 2.209 . S
Mn432 O458 2.094 . S
Mn433 O438 2.121 . S
Mn433 N440 2.257 . S
Mn433 N449 2.282 1_554 S
Mn433 O457 2.215 . S
Mn433 O459 2.117 1_554 S
C434 O456 1.234 . S
C434 O457 1.283 . S
C435 O447 1.281 . S
C435 O448 1.236 . S
C436 O458 1.240 1_556 S
C436 O459 1.264 . S
O437 Mn432 2.095 . S
O437 C446 1.250 . S
O438 Mn433 2.121 . S
O438 C446 1.258 . S
C439 N440 1.326 . S
C439 C443 1.460 . S
C439 H445 0.929 . S
N440 Mn433 2.257 . S
N440 C439 1.326 . S
N440 C444 1.362 . S
C441 C442 1.258 . S
C441 C444 1.431 . S
C441 C461 1.449 . S
C442 C441 1.258 . S
C442 C443 1.477 . S
C442 H462 0.931 . S
C443 C439 1.460 . S
C443 C442 1.477 . S
C443 H463 0.930 . S
C444 N440 1.362 . S
C444 C441 1.431 . S
C444 C454 1.476 1_554 S
H445 C439 0.929 . S
C446 O437 1.250 . S
C446 O438 1.258 . S
O447 Mn432 2.162 . S
O447 C435 1.281 . S
O448 Mn432 2.297 . S
O448 C435 1.236 . S
N449 Mn433 2.282 1_556 S
N449 C450 1.328 . S
N449 C454 1.318 . S
C450 N449 1.328 . S
C450 C451 1.457 . S
C450 H455 0.929 . S
C451 C450 1.457 . S
C451 C452 1.291 . S
C451 H464 0.931 . S
C452 C451 1.291 . S
C452 C453 1.373 . S
C452 H465 0.929 . S
C453 C452 1.373 . S
C453 C454 1.396 . S
C453 C460 1.403 . S
C454 C444 1.476 1_556 S
C454 N449 1.318 . S
C454 C453 1.396 . S
H455 C450 0.929 . S
O456 Mn432 2.385 . S
O456 C434 1.234 . S
O457 Mn432 2.209 . S
O457 Mn433 2.215 . S
O457 C434 1.283 . S
O458 Mn432 2.094 . S
O458 C436 1.240 1_554 S
O459 Mn433 2.117 1_556 S
O459 C436 1.264 . S
C460 C453 1.403 . S
C460 C461 1.399 1_556 S
C460 H466 0.929 . S
C461 C441 1.449 . S
C461 C460 1.399 1_554 S
C461 H467 0.930 . S
H462 C442 0.931 . S
H463 C443 0.930 . S
H464 C451 0.931 . S
H465 C452 0.929 . S
H466 C460 0.929 . S
H467 C461 0.930 . S
Mn468 O473 2.095 . S
Mn468 O483 2.162 . S
Mn468 O484 2.297 . S
Mn468 O492 2.385 . S
Mn468 O493 2.209 . S
Mn468 O494 2.094 . S
Mn469 O474 2.121 . S
Mn469 N476 2.257 . S
Mn469 N485 2.282 1_554 S
Mn469 O493 2.215 . S
Mn469 O495 2.117 . S
C470 O492 1.234 . S
C470 O493 1.283 . S
C471 O483 1.281 . S
C471 O484 1.236 . S
C472 O494 1.240 . S
C472 O495 1.264 . S
O473 Mn468 2.095 . S
O473 C482 1.250 . S
O474 Mn469 2.121 . S
O474 C482 1.258 . S
C475 N476 1.326 . S
C475 C479 1.460 . S
C475 H481 0.929 . S
N476 Mn469 2.257 . S
N476 C475 1.326 . S
N476 C480 1.362 . S
C477 C478 1.258 . S
C477 C480 1.431 . S
C477 C497 1.449 1_554 S
C478 C477 1.258 . S
C478 C479 1.477 . S
C478 H498 0.931 . S
C479 C475 1.460 . S
C479 C478 1.477 . S
C479 H499 0.930 . S
C480 N476 1.362 . S
C480 C477 1.431 . S
C480 C490 1.476 1_554 S
H481 C475 0.929 . S
C482 O473 1.250 . S
C482 O474 1.258 . S
O483 Mn468 2.162 . S
O483 C471 1.281 . S
O484 Mn468 2.297 . S
O484 C471 1.236 . S
N485 Mn469 2.282 1_556 S
N485 C486 1.328 . S
N485 C490 1.318 . S
C486 N485 1.328 . S
C486 C487 1.457 . S
C486 H491 0.929 . S
C487 C486 1.457 . S
C487 C488 1.291 . S
C487 H500 0.931 . S
C488 C487 1.291 . S
C488 C489 1.373 . S
C488 H501 0.929 . S
C489 C488 1.373 . S
C489 C490 1.396 . S
C489 C496 1.403 . S
C490 C480 1.476 1_556 S
C490 N485 1.318 . S
C490 C489 1.396 . S
H491 C486 0.929 . S
O492 Mn468 2.385 . S
O492 C470 1.234 . S
O493 Mn468 2.209 . S
O493 Mn469 2.215 . S
O493 C470 1.283 . S
O494 Mn468 2.094 . S
O494 C472 1.240 . S
O495 Mn469 2.117 . S
O495 C472 1.264 . S
C496 C489 1.403 . S
C496 C497 1.399 . S
C496 H502 0.929 . S
C497 C477 1.449 1_556 S
C497 C496 1.399 . S
C497 H503 0.930 . S
H498 C478 0.931 . S
H499 C479 0.930 . S
H500 C487 0.931 . S
H501 C488 0.929 . S
H502 C496 0.929 . S
H503 C497 0.930 . S
Mn504 O509 2.095 . S
Mn504 O519 2.162 . S
Mn504 O520 2.297 . S
Mn504 O528 2.385 . S
Mn504 O529 2.209 . S
Mn504 O530 2.094 . S
Mn505 O510 2.121 . S
Mn505 N512 2.257 . S
Mn505 N521 2.282 . S
Mn505 O529 2.215 . S
Mn505 O531 2.117 . S
C506 O528 1.234 . S
C506 O529 1.283 . S
C507 O519 1.281 . S
C507 O520 1.236 . S
C508 O530 1.240 . S
C508 O531 1.264 . S
O509 Mn504 2.095 . S
O509 C518 1.250 . S
O510 Mn505 2.121 . S
O510 C518 1.258 . S
C511 N512 1.326 . S
C511 C515 1.460 . S
C511 H517 0.929 . S
N512 Mn505 2.257 . S
N512 C511 1.326 . S
N512 C516 1.362 . S
C513 C514 1.258 . S
C513 C516 1.431 . S
C513 C533 1.449 . S
C514 C513 1.258 . S
C514 C515 1.477 . S
C514 H534 0.931 . S
C515 C511 1.460 . S
C515 C514 1.477 . S
C515 H535 0.930 . S
C516 N512 1.362 . S
C516 C513 1.431 . S
C516 C526 1.476 . S
H517 C511 0.929 . S
C518 O509 1.250 . S
C518 O510 1.258 . S
O519 Mn504 2.162 . S
O519 C507 1.281 . S
O520 Mn504 2.297 . S
O520 C507 1.236 . S
N521 Mn505 2.282 . S
N521 C522 1.328 . S
N521 C526 1.318 . S
C522 N521 1.328 . S
C522 C523 1.457 . S
C522 H527 0.929 . S
C523 C522 1.457 . S
C523 C524 1.291 . S
C523 H536 0.931 . S
C524 C523 1.291 . S
C524 C525 1.373 . S
C524 H537 0.929 . S
C525 C524 1.373 . S
C525 C526 1.396 . S
C525 C532 1.403 . S
C526 C516 1.476 . S
C526 N521 1.318 . S
C526 C525 1.396 . S
H527 C522 0.929 . S
O528 Mn504 2.385 . S
O528 C506 1.234 . S
O529 Mn504 2.209 . S
O529 Mn505 2.215 . S
O529 C506 1.283 . S
O530 Mn504 2.094 . S
O530 C508 1.240 . S
O531 Mn505 2.117 . S
O531 C508 1.264 . S
C532 C525 1.403 . S
C532 C533 1.399 . S
C532 H538 0.929 . S
C533 C513 1.449 . S
C533 C532 1.399 . S
C533 H539 0.930 . S
H534 C514 0.931 . S
H535 C515 0.930 . S
H536 C523 0.931 . S
H537 C524 0.929 . S
H538 C532 0.929 . S
H539 C533 0.930 . S
Mn540 O545 2.095 . S
Mn540 O555 2.162 . S
Mn540 O556 2.297 . S
Mn540 O564 2.385 . S
Mn540 O565 2.209 . S
Mn540 O566 2.094 . S
Mn541 O546 2.121 . S
Mn541 N548 2.257 . S
Mn541 N557 2.282 . S
Mn541 O565 2.215 . S
Mn541 O567 2.117 . S
C542 O564 1.234 . S
C542 O565 1.283 . S
C543 O555 1.281 . S
C543 O556 1.236 . S
C544 O566 1.240 . S
C544 O567 1.264 . S
O545 Mn540 2.095 . S
O545 C554 1.250 . S
O546 Mn541 2.121 . S
O546 C554 1.258 . S
C547 N548 1.326 . S
C547 C551 1.460 . S
C547 H553 0.929 . S
N548 Mn541 2.257 . S
N548 C547 1.326 . S
N548 C552 1.362 . S
C549 C550 1.258 . S
C549 C552 1.431 . S
C549 C569 1.449 . S
C550 C549 1.258 . S
C550 C551 1.477 . S
C550 H570 0.931 . S
C551 C547 1.460 . S
C551 C550 1.477 . S
C551 H571 0.930 . S
C552 N548 1.362 . S
C552 C549 1.431 . S
C552 C562 1.476 . S
H553 C547 0.929 . S
C554 O545 1.250 . S
C554 O546 1.258 . S
O555 Mn540 2.162 . S
O555 C543 1.281 . S
O556 Mn540 2.297 . S
O556 C543 1.236 . S
N557 Mn541 2.282 . S
N557 C558 1.328 . S
N557 C562 1.318 . S
C558 N557 1.328 . S
C558 C559 1.457 . S
C558 H563 0.929 . S
C559 C558 1.457 . S
C559 C560 1.291 . S
C559 H572 0.931 . S
C560 C559 1.291 . S
C560 C561 1.373 . S
C560 H573 0.929 . S
C561 C560 1.373 . S
C561 C562 1.396 . S
C561 C568 1.403 . S
C562 C552 1.476 . S
C562 N557 1.318 . S
C562 C561 1.396 . S
H563 C558 0.929 . S
O564 Mn540 2.385 . S
O564 C542 1.234 . S
O565 Mn540 2.209 . S
O565 Mn541 2.215 . S
O565 C542 1.283 . S
O566 Mn540 2.094 . S
O566 C544 1.240 . S
O567 Mn541 2.117 . S
O567 C544 1.264 . S
C568 C561 1.403 . S
C568 C569 1.399 . S
C568 H574 0.929 . S
C569 C549 1.449 . S
C569 C568 1.399 . S
C569 H575 0.930 . S
H570 C550 0.931 . S
H571 C551 0.930 . S
H572 C559 0.931 . S
H573 C560 0.929 . S
H574 C568 0.929 . S
H575 C569 0.930 . S
Mn576 O581 2.095 . S
Mn576 O591 2.162 . S
Mn576 O592 2.297 . S
Mn576 O600 2.385 1_545 S
Mn576 O601 2.209 1_545 S
Mn576 O602 2.094 . S
Mn577 O582 2.121 . S
Mn577 N584 2.257 1_545 S
Mn577 N593 2.282 1_545 S
Mn577 O601 2.215 1_545 S
Mn577 O603 2.117 . S
C578 O600 1.234 . S
C578 O601 1.283 . S
C579 O591 1.281 . S
C579 O592 1.236 . S
C580 O602 1.240 . S
C580 O603 1.264 . S
O581 Mn576 2.095 . S
O581 C590 1.250 . S
O582 Mn577 2.121 . S
O582 C590 1.258 . S
C583 N584 1.326 1_545 S
C583 C587 1.460 1_545 S
C583 H589 0.929 . S
N584 Mn577 2.257 1_565 S
N584 C583 1.326 1_565 S
N584 C588 1.362 . S
C585 C586 1.258 . S
C585 C588 1.431 . S
C585 C605 1.449 . S
C586 C585 1.258 . S
C586 C587 1.477 . S
C586 H606 0.931 . S
C587 C583 1.460 1_565 S
C587 C586 1.477 . S
C587 H607 0.930 1_565 S
C588 N584 1.362 . S
C588 C585 1.431 . S
C588 C598 1.476 . S
H589 C583 0.929 . S
C590 O581 1.250 . S
C590 O582 1.258 . S
O591 Mn576 2.162 . S
O591 C579 1.281 . S
O592 Mn576 2.297 . S
O592 C579 1.236 . S
N593 Mn577 2.282 1_565 S
N593 C594 1.328 . S
N593 C598 1.318 . S
C594 N593 1.328 . S
C594 C595 1.457 . S
C594 H599 0.929 . S
C595 C594 1.457 . S
C595 C596 1.291 . S
C595 H608 0.931 . S
C596 C595 1.291 . S
C596 C597 1.373 . S
C596 H609 0.929 . S
C597 C596 1.373 . S
C597 C598 1.396 . S
C597 C604 1.403 . S
C598 C588 1.476 . S
C598 N593 1.318 . S
C598 C597 1.396 . S
H599 C594 0.929 . S
O600 Mn576 2.385 1_565 S
O600 C578 1.234 . S
O601 Mn576 2.209 1_565 S
O601 Mn577 2.215 1_565 S
O601 C578 1.283 . S
O602 Mn576 2.094 . S
O602 C580 1.240 . S
O603 Mn577 2.117 . S
O603 C580 1.264 . S
C604 C597 1.403 . S
C604 C605 1.399 . S
C604 H610 0.929 . S
C605 C585 1.449 . S
C605 C604 1.399 . S
C605 H611 0.930 . S
H606 C586 0.931 . S
H607 C587 0.930 1_545 S
H608 C595 0.931 . S
H609 C596 0.929 . S
H610 C604 0.929 . S
H611 C605 0.930 . S
Mn612 O617 2.095 . S
Mn612 O627 2.162 . S
Mn612 O628 2.297 . S
Mn612 O636 2.385 . S
Mn612 O637 2.209 . S
Mn612 O638 2.094 . S
Mn613 O618 2.121 . S
Mn613 N620 2.257 . S
Mn613 N629 2.282 . S
Mn613 O637 2.215 . S
Mn613 O639 2.117 . S
C614 O636 1.234 . S
C614 O637 1.283 . S
C615 O627 1.281 . S
C615 O628 1.236 . S
C616 O638 1.240 . S
C616 O639 1.264 . S
O617 Mn612 2.095 . S
O617 C626 1.250 . S
O618 Mn613 2.121 . S
O618 C626 1.258 . S
C619 N620 1.326 . S
C619 C623 1.460 . S
C619 H625 0.929 . S
N620 Mn613 2.257 . S
N620 C619 1.326 . S
N620 C624 1.362 . S
C621 C622 1.258 . S
C621 C624 1.431 . S
C621 C641 1.449 . S
C622 C621 1.258 . S
C622 C623 1.477 . S
C622 H642 0.931 . S
C623 C619 1.460 . S
C623 C622 1.477 . S
C623 H643 0.930 . S
C624 N620 1.362 . S
C624 C621 1.431 . S
C624 C634 1.476 . S
H625 C619 0.929 . S
C626 O617 1.250 . S
C626 O618 1.258 . S
O627 Mn612 2.162 . S
O627 C615 1.281 . S
O628 Mn612 2.297 . S
O628 C615 1.236 . S
N629 Mn613 2.282 . S
N629 C630 1.328 . S
N629 C634 1.318 . S
C630 N629 1.328 . S
C630 C631 1.457 . S
C630 H635 0.929 . S
C631 C630 1.457 . S
C631 C632 1.291 . S
C631 H644 0.931 . S
C632 C631 1.291 . S
C632 C633 1.373 . S
C632 H645 0.929 . S
C633 C632 1.373 . S
C633 C634 1.396 . S
C633 C640 1.403 . S
C634 C624 1.476 . S
C634 N629 1.318 . S
C634 C633 1.396 . S
H635 C630 0.929 . S
O636 Mn612 2.385 . S
O636 C614 1.234 . S
O637 Mn612 2.209 . S
O637 Mn613 2.215 . S
O637 C614 1.283 . S
O638 Mn612 2.094 . S
O638 C616 1.240 . S
O639 Mn613 2.117 . S
O639 C616 1.264 . S
C640 C633 1.403 . S
C640 C641 1.399 . S
C640 H646 0.929 . S
C641 C621 1.449 . S
C641 C640 1.399 . S
C641 H647 0.930 . S
H642 C622 0.931 . S
H643 C623 0.930 . S
H644 C631 0.931 . S
H645 C632 0.929 . S
H646 C640 0.929 . S
H647 C641 0.930 . S
Mn648 O653 2.095 . S
Mn648 O663 2.162 . S
Mn648 O664 2.297 . S
Mn648 O672 2.385 . S
Mn648 O673 2.209 . S
Mn648 O674 2.094 . S
Mn649 O654 2.121 . S
Mn649 N656 2.257 . S
Mn649 N665 2.282 . S
Mn649 O673 2.215 . S
Mn649 O675 2.117 . S
C650 O672 1.234 . S
C650 O673 1.283 . S
C651 O663 1.281 . S
C651 O664 1.236 . S
C652 O674 1.240 . S
C652 O675 1.264 . S
O653 Mn648 2.095 . S
O653 C662 1.250 . S
O654 Mn649 2.121 . S
O654 C662 1.258 . S
C655 N656 1.326 . S
C655 C659 1.460 . S
C655 H661 0.929 . S
N656 Mn649 2.257 . S
N656 C655 1.326 . S
N656 C660 1.362 . S
C657 C658 1.258 . S
C657 C660 1.431 . S
C657 C677 1.449 . S
C658 C657 1.258 . S
C658 C659 1.477 . S
C658 H678 0.931 . S
C659 C655 1.460 . S
C659 C658 1.477 . S
C659 H679 0.930 . S
C660 N656 1.362 . S
C660 C657 1.431 . S
C660 C670 1.476 . S
H661 C655 0.929 . S
C662 O653 1.250 . S
C662 O654 1.258 . S
O663 Mn648 2.162 . S
O663 C651 1.281 . S
O664 Mn648 2.297 . S
O664 C651 1.236 . S
N665 Mn649 2.282 . S
N665 C666 1.328 . S
N665 C670 1.318 . S
C666 N665 1.328 . S
C666 C667 1.457 . S
C666 H671 0.929 . S
C667 C666 1.457 . S
C667 C668 1.291 . S
C667 H680 0.931 . S
C668 C667 1.291 . S
C668 C669 1.373 . S
C668 H681 0.929 . S
C669 C668 1.373 . S
C669 C670 1.396 . S
C669 C676 1.403 . S
C670 C660 1.476 . S
C670 N665 1.318 . S
C670 C669 1.396 . S
H671 C666 0.929 . S
O672 Mn648 2.385 . S
O672 C650 1.234 . S
O673 Mn648 2.209 . S
O673 Mn649 2.215 . S
O673 C650 1.283 . S
O674 Mn648 2.094 . S
O674 C652 1.240 . S
O675 Mn649 2.117 . S
O675 C652 1.264 . S
C676 C669 1.403 . S
C676 C677 1.399 . S
C676 H682 0.929 . S
C677 C657 1.449 . S
C677 C676 1.399 . S
C677 H683 0.930 . S
H678 C658 0.931 . S
H679 C659 0.930 . S
H680 C667 0.931 . S
H681 C668 0.929 . S
H682 C676 0.929 . S
H683 C677 0.930 . S
Mn684 O689 2.095 . S
Mn684 O699 2.162 . S
Mn684 O700 2.297 . S
Mn684 O708 2.385 . S
Mn684 O709 2.209 . S
Mn684 O710 2.094 . S
Mn685 O690 2.121 . S
Mn685 N692 2.257 . S
Mn685 N701 2.282 . S
Mn685 O709 2.215 . S
Mn685 O711 2.117 . S
C686 O708 1.234 . S
C686 O709 1.283 . S
C687 O699 1.281 . S
C687 O700 1.236 . S
C688 O710 1.240 . S
C688 O711 1.264 . S
O689 Mn684 2.095 . S
O689 C698 1.250 . S
O690 Mn685 2.121 . S
O690 C698 1.258 . S
C691 N692 1.326 . S
C691 C695 1.460 . S
C691 H697 0.929 . S
N692 Mn685 2.257 . S
N692 C691 1.326 . S
N692 C696 1.362 . S
C693 C694 1.258 . S
C693 C696 1.431 . S
C693 C713 1.449 . S
C694 C693 1.258 . S
C694 C695 1.477 . S
C694 H714 0.931 . S
C695 C691 1.460 . S
C695 C694 1.477 . S
C695 H715 0.930 . S
C696 N692 1.362 . S
C696 C693 1.431 . S
C696 C706 1.476 . S
H697 C691 0.929 . S
C698 O689 1.250 . S
C698 O690 1.258 . S
O699 Mn684 2.162 . S
O699 C687 1.281 . S
O700 Mn684 2.297 . S
O700 C687 1.236 . S
N701 Mn685 2.282 . S
N701 C702 1.328 . S
N701 C706 1.318 . S
C702 N701 1.328 . S
C702 C703 1.457 . S
C702 H707 0.929 . S
C703 C702 1.457 . S
C703 C704 1.291 . S
C703 H716 0.931 . S
C704 C703 1.291 . S
C704 C705 1.373 . S
C704 H717 0.929 . S
C705 C704 1.373 . S
C705 C706 1.396 . S
C705 C712 1.403 . S
C706 C696 1.476 . S
C706 N701 1.318 . S
C706 C705 1.396 . S
H707 C702 0.929 . S
O708 Mn684 2.385 . S
O708 C686 1.234 . S
O709 Mn684 2.209 . S
O709 Mn685 2.215 . S
O709 C686 1.283 . S
O710 Mn684 2.094 . S
O710 C688 1.240 . S
O711 Mn685 2.117 . S
O711 C688 1.264 . S
C712 C705 1.403 . S
C712 C713 1.399 . S
C712 H718 0.929 . S
C713 C693 1.449 . S
C713 C712 1.399 . S
C713 H719 0.930 . S
H714 C694 0.931 . S
H715 C695 0.930 . S
H716 C703 0.931 . S
H717 C704 0.929 . S
H718 C712 0.929 . S
H719 C713 0.930 . S
Mn720 O725 2.095 . S
Mn720 O735 2.162 . S
Mn720 O736 2.297 . S
Mn720 O744 2.385 . S
Mn720 O745 2.209 . S
Mn720 O746 2.094 1_554 S
Mn721 O726 2.121 . S
Mn721 N728 2.257 . S
Mn721 N737 2.282 . S
Mn721 O745 2.215 1_556 S
Mn721 O747 2.117 . S
C722 O744 1.234 . S
C722 O745 1.283 . S
C723 O735 1.281 . S
C723 O736 1.236 . S
C724 O746 1.240 . S
C724 O747 1.264 . S
O725 Mn720 2.095 . S
O725 C734 1.250 . S
O726 Mn721 2.121 . S
O726 C734 1.258 1_556 S
C727 N728 1.326 . S
C727 C731 1.460 . S
C727 H733 0.929 . S
N728 Mn721 2.257 . S
N728 C727 1.326 . S
N728 C732 1.362 . S
C729 C730 1.258 . S
C729 C732 1.431 . S
C729 C749 1.449 . S
C730 C729 1.258 . S
C730 C731 1.477 . S
C730 H750 0.931 . S
C731 C727 1.460 . S
C731 C730 1.477 . S
C731 H751 0.930 . S
C732 N728 1.362 . S
C732 C729 1.431 . S
C732 C742 1.476 . S
H733 C727 0.929 . S
C734 O725 1.250 . S
C734 O726 1.258 1_554 S
O735 Mn720 2.162 . S
O735 C723 1.281 . S
O736 Mn720 2.297 . S
O736 C723 1.236 . S
N737 Mn721 2.282 . S
N737 C738 1.328 . S
N737 C742 1.318 . S
C738 N737 1.328 . S
C738 C739 1.457 . S
C738 H743 0.929 . S
C739 C738 1.457 . S
C739 C740 1.291 . S
C739 H752 0.931 . S
C740 C739 1.291 . S
C740 C741 1.373 . S
C740 H753 0.929 . S
C741 C740 1.373 . S
C741 C742 1.396 . S
C741 C748 1.403 . S
C742 C732 1.476 . S
C742 N737 1.318 . S
C742 C741 1.396 . S
H743 C738 0.929 . S
O744 Mn720 2.385 . S
O744 C722 1.234 . S
O745 Mn720 2.209 . S
O745 Mn721 2.215 1_554 S
O745 C722 1.283 . S
O746 Mn720 2.094 1_556 S
O746 C724 1.240 . S
O747 Mn721 2.117 . S
O747 C724 1.264 . S
C748 C741 1.403 . S
C748 C749 1.399 . S
C748 H754 0.929 . S
C749 C729 1.449 . S
C749 C748 1.399 . S
C749 H755 0.930 . S
H750 C730 0.931 . S
H751 C731 0.930 . S
H752 C739 0.931 . S
H753 C740 0.929 . S
H754 C748 0.929 . S
H755 C749 0.930 . S
Mn756 O761 2.095 . S
Mn756 O771 2.162 . S
Mn756 O772 2.297 . S
Mn756 O780 2.385 . S
Mn756 O781 2.209 . S
Mn756 O782 2.094 . S
Mn757 O762 2.121 . S
Mn757 N764 2.257 . S
Mn757 N773 2.282 . S
Mn757 O781 2.215 . S
Mn757 O783 2.117 . S
C758 O780 1.234 . S
C758 O781 1.283 . S
C759 O771 1.281 . S
C759 O772 1.236 . S
C760 O782 1.240 . S
C760 O783 1.264 . S
O761 Mn756 2.095 . S
O761 C770 1.250 . S
O762 Mn757 2.121 . S
O762 C770 1.258 . S
C763 N764 1.326 . S
C763 C767 1.460 . S
C763 H769 0.929 . S
N764 Mn757 2.257 . S
N764 C763 1.326 . S
N764 C768 1.362 . S
C765 C766 1.258 . S
C765 C768 1.431 . S
C765 C785 1.449 . S
C766 C765 1.258 . S
C766 C767 1.477 . S
C766 H786 0.931 . S
C767 C763 1.460 . S
C767 C766 1.477 . S
C767 H787 0.930 . S
C768 N764 1.362 . S
C768 C765 1.431 . S
C768 C778 1.476 . S
H769 C763 0.929 . S
C770 O761 1.250 . S
C770 O762 1.258 . S
O771 Mn756 2.162 . S
O771 C759 1.281 . S
O772 Mn756 2.297 . S
O772 C759 1.236 . S
N773 Mn757 2.282 . S
N773 C774 1.328 . S
N773 C778 1.318 . S
C774 N773 1.328 . S
C774 C775 1.457 . S
C774 H779 0.929 . S
C775 C774 1.457 . S
C775 C776 1.291 . S
C775 H788 0.931 . S
C776 C775 1.291 . S
C776 C777 1.373 . S
C776 H789 0.929 . S
C777 C776 1.373 . S
C777 C778 1.396 . S
C777 C784 1.403 . S
C778 C768 1.476 . S
C778 N773 1.318 . S
C778 C777 1.396 . S
H779 C774 0.929 . S
O780 Mn756 2.385 . S
O780 C758 1.234 . S
O781 Mn756 2.209 . S
O781 Mn757 2.215 . S
O781 C758 1.283 . S
O782 Mn756 2.094 . S
O782 C760 1.240 . S
O783 Mn757 2.117 . S
O783 C760 1.264 . S
C784 C777 1.403 . S
C784 C785 1.399 . S
C784 H790 0.929 . S
C785 C765 1.449 . S
C785 C784 1.399 . S
C785 H791 0.930 . S
H786 C766 0.931 . S
H787 C767 0.930 . S
H788 C775 0.931 . S
H789 C776 0.929 . S
H790 C784 0.929 . S
H791 C785 0.930 . S
Mn792 O797 2.095 . S
Mn792 O807 2.162 . S
Mn792 O808 2.297 . S
Mn792 O816 2.385 . S
Mn792 O817 2.209 . S
Mn792 O818 2.094 . S
Mn793 O798 2.121 . S
Mn793 N800 2.257 . S
Mn793 N809 2.282 . S
Mn793 O817 2.215 . S
Mn793 O819 2.117 . S
C794 O816 1.234 . S
C794 O817 1.283 . S
C795 O807 1.281 . S
C795 O808 1.236 . S
C796 O818 1.240 . S
C796 O819 1.264 . S
O797 Mn792 2.095 . S
O797 C806 1.250 . S
O798 Mn793 2.121 . S
O798 C806 1.258 . S
C799 N800 1.326 . S
C799 C803 1.460 . S
C799 H805 0.929 . S
N800 Mn793 2.257 . S
N800 C799 1.326 . S
N800 C804 1.362 . S
C801 C802 1.258 . S
C801 C804 1.431 . S
C801 C821 1.449 . S
C802 C801 1.258 . S
C802 C803 1.477 . S
C802 H822 0.931 . S
C803 C799 1.460 . S
C803 C802 1.477 . S
C803 H823 0.930 . S
C804 N800 1.362 . S
C804 C801 1.431 . S
C804 C814 1.476 . S
H805 C799 0.929 . S
C806 O797 1.250 . S
C806 O798 1.258 . S
O807 Mn792 2.162 . S
O807 C795 1.281 . S
O808 Mn792 2.297 . S
O808 C795 1.236 . S
N809 Mn793 2.282 . S
N809 C810 1.328 . S
N809 C814 1.318 . S
C810 N809 1.328 . S
C810 C811 1.457 . S
C810 H815 0.929 . S
C811 C810 1.457 . S
C811 C812 1.291 . S
C811 H824 0.931 . S
C812 C811 1.291 . S
C812 C813 1.373 . S
C812 H825 0.929 . S
C813 C812 1.373 . S
C813 C814 1.396 . S
C813 C820 1.403 . S
C814 C804 1.476 . S
C814 N809 1.318 . S
C814 C813 1.396 . S
H815 C810 0.929 . S
O816 Mn792 2.385 . S
O816 C794 1.234 . S
O817 Mn792 2.209 . S
O817 Mn793 2.215 . S
O817 C794 1.283 . S
O818 Mn792 2.094 . S
O818 C796 1.240 . S
O819 Mn793 2.117 . S
O819 C796 1.264 . S
C820 C813 1.403 . S
C820 C821 1.399 . S
C820 H826 0.929 . S
C821 C801 1.449 . S
C821 C820 1.399 . S
C821 H827 0.930 . S
H822 C802 0.931 . S
H823 C803 0.930 . S
H824 C811 0.931 . S
H825 C812 0.929 . S
H826 C820 0.929 . S
H827 C821 0.930 . S
Mn828 O833 2.095 . S
Mn828 O843 2.162 . S
Mn828 O844 2.297 . S
Mn828 O852 2.385 . S
Mn828 O853 2.209 . S
Mn828 O854 2.094 . S
Mn829 O834 2.121 . S
Mn829 N836 2.257 . S
Mn829 N845 2.282 . S
Mn829 O853 2.215 . S
Mn829 O855 2.117 . S
C830 O852 1.234 . S
C830 O853 1.283 . S
C831 O843 1.281 . S
C831 O844 1.236 . S
C832 O854 1.240 . S
C832 O855 1.264 . S
O833 Mn828 2.095 . S
O833 C842 1.250 . S
O834 Mn829 2.121 . S
O834 C842 1.258 . S
C835 N836 1.326 . S
C835 C839 1.460 . S
C835 H841 0.929 . S
N836 Mn829 2.257 . S
N836 C835 1.326 . S
N836 C840 1.362 . S
C837 C838 1.258 . S
C837 C840 1.431 . S
C837 C857 1.449 . S
C838 C837 1.258 . S
C838 C839 1.477 . S
C838 H858 0.931 . S
C839 C835 1.460 . S
C839 C838 1.477 . S
C839 H859 0.930 . S
C840 N836 1.362 . S
C840 C837 1.431 . S
C840 C850 1.476 . S
H841 C835 0.929 . S
C842 O833 1.250 . S
C842 O834 1.258 . S
O843 Mn828 2.162 . S
O843 C831 1.281 . S
O844 Mn828 2.297 . S
O844 C831 1.236 . S
N845 Mn829 2.282 . S
N845 C846 1.328 . S
N845 C850 1.318 . S
C846 N845 1.328 . S
C846 C847 1.457 . S
C846 H851 0.929 . S
C847 C846 1.457 . S
C847 C848 1.291 . S
C847 H860 0.931 . S
C848 C847 1.291 . S
C848 C849 1.373 . S
C848 H861 0.929 . S
C849 C848 1.373 . S
C849 C850 1.396 . S
C849 C856 1.403 . S
C850 C840 1.476 . S
C850 N845 1.318 . S
C850 C849 1.396 . S
H851 C846 0.929 . S
O852 Mn828 2.385 . S
O852 C830 1.234 . S
O853 Mn828 2.209 . S
O853 Mn829 2.215 . S
O853 C830 1.283 . S
O854 Mn828 2.094 . S
O854 C832 1.240 . S
O855 Mn829 2.117 . S
O855 C832 1.264 . S
C856 C849 1.403 . S
C856 C857 1.399 . S
C856 H862 0.929 . S
C857 C837 1.449 . S
C857 C856 1.399 . S
C857 H863 0.930 . S
H858 C838 0.931 . S
H859 C839 0.930 . S
H860 C847 0.931 . S
H861 C848 0.929 . S
H862 C856 0.929 . S
H863 C857 0.930 . S
C864 C866 1.422 1_556 S
C864 C868 1.415 . S
C864 N870 1.369 . S
C865 C866 1.421 . S
C865 C867 1.417 1_554 S
C865 C877 1.422 . S
C866 C864 1.422 1_554 S
C866 C865 1.421 . S
C866 N876 1.359 . S
C867 C865 1.417 1_556 S
C867 C869 1.329 . S
C867 H886 0.930 . S
C868 C864 1.415 . S
C868 C869 1.437 . S
C868 C872 1.413 . S
C869 C867 1.329 . S
C869 C868 1.437 . S
C869 H891 0.929 . S
N870 C864 1.369 . S
N870 C871 1.338 . S
N870 Gd875 2.622 1_566 S
C871 N870 1.338 . S
C871 C873 1.378 . S
C871 H883 0.929 . S
C872 C868 1.413 . S
C872 C873 1.348 . S
C872 H888 0.931 . S
C873 C871 1.378 . S
C873 C872 1.348 . S
C873 H889 0.930 . S
Gd874 N894 2.622 . S
Gd874 N901 2.570 . S
Gd874 O908 2.353 1_545 S
Gd874 O909 2.468 . S
Gd874 O910 2.427 . S
Gd874 O912 2.388 . S
Gd874 O913 2.386 . S
Gd874 O917 2.346 . S
Gd874 C927 2.805 . S
Gd875 N870 2.622 1_544 S
Gd875 N876 2.570 1_545 S
Gd875 O907 2.386 1_645 S
Gd875 O911 2.307 1_655 S
Gd875 O914 2.353 1_655 S
Gd875 O915 2.468 . S
Gd875 O916 2.427 1_554 S
Gd875 O918 2.388 1_654 S
Gd875 C939 2.803 1_554 S
N876 C866 1.359 . S
N876 Gd875 2.570 1_565 S
N876 C878 1.343 . S
C877 C865 1.422 . S
C877 C879 1.321 . S
C877 H885 0.931 . S
C878 N876 1.343 . S
C878 C879 1.390 . S
C878 H880 0.931 . S
C879 C877 1.321 . S
C879 C878 1.390 . S
C879 H881 0.930 . S
H880 C878 0.931 . S
H881 C879 0.930 . S
H882 C905 0.931 1_556 S
H883 C871 0.929 . S
H884 C906 0.930 . S
H885 C877 0.931 . S
H886 C867 0.930 . S
H887 C896 0.929 . S
H888 C872 0.931 . S
H889 C873 0.930 . S
H890 C928 0.930 . S
H891 C869 0.929 . S
H892 C897 0.931 . S
H893 C898 0.930 . S
N894 Gd874 2.622 . S
N894 C895 1.369 . S
N894 C896 1.338 . S
C895 N894 1.369 . S
C895 C899 1.415 . S
C895 C902 1.422 . S
C896 H887 0.929 . S
C896 N894 1.338 . S
C896 C898 1.378 . S
C897 H892 0.931 . S
C897 C898 1.348 . S
C897 C899 1.413 . S
C898 H893 0.930 . S
C898 C896 1.378 . S
C898 C897 1.348 . S
C899 C895 1.415 . S
C899 C897 1.413 . S
C899 C929 1.437 . S
H900 C929 0.929 . S
N901 Gd874 2.570 . S
N901 C902 1.359 . S
N901 C905 1.343 . S
C902 C895 1.422 . S
C902 N901 1.359 . S
C902 C904 1.421 . S
C903 C904 1.422 . S
C903 C906 1.321 1_554 S
C903 H930 0.931 . S
C904 C902 1.421 . S
C904 C903 1.422 . S
C904 C928 1.417 . S
C905 H882 0.931 1_554 S
C905 N901 1.343 . S
C905 C906 1.390 1_554 S
C906 H884 0.930 . S
C906 C903 1.321 1_556 S
C906 C905 1.390 1_556 S
O907 Gd875 2.386 1_465 S
O907 C919 1.265 . S
O908 Gd874 2.353 1_565 S
O908 C919 1.242 . S
O909 Gd874 2.468 . S
O909 C927 1.263 . S
O910 Gd874 2.427 . S
O910 C927 1.252 . S
O911 Gd875 2.307 1_455 S
O911 C920 1.261 . S
O912 Gd874 2.388 . S
O912 C920 1.252 . S
O913 Gd874 2.386 . S
O913 C931 1.265 . S
O914 Gd875 2.353 1_455 S
O914 C931 1.242 . S
O915 Gd875 2.468 . S
O915 C939 1.240 1_554 S
O916 Gd875 2.427 1_556 S
O916 C939 1.273 . S
O917 Gd874 2.346 . S
O917 C932 1.227 1_554 S
O918 Gd875 2.388 1_456 S
O918 C932 1.252 . S
C919 O907 1.265 . S
C919 O908 1.242 . S
C920 O911 1.261 . S
C920 O912 1.252 . S
C921 C924 1.394 . S
C921 C926 1.387 . S
C921 C927 1.500 . S
C922 C925 1.383 . S
C922 C926 1.373 1_565 S
C923 C924 1.396 . S
C923 C925 1.365 1_545 S
C923 H940 0.929 . S
C924 C921 1.394 . S
C924 C923 1.396 . S
C924 H941 0.930 . S
C925 C922 1.383 . S
C925 C923 1.365 1_565 S
C925 H942 0.931 . S
C926 C921 1.387 . S
C926 C922 1.373 1_545 S
C926 H943 0.935 . S
C927 Gd874 2.805 . S
C927 O909 1.263 . S
C927 O910 1.252 . S
C927 C921 1.500 . S
C928 H890 0.930 . S
C928 C904 1.417 . S
C928 C929 1.329 . S
C929 C899 1.437 . S
C929 H900 0.929 . S
C929 C928 1.329 . S
H930 C903 0.931 . S
C931 O913 1.265 . S
C931 O914 1.242 . S
C932 O917 1.227 1_556 S
C932 O918 1.252 . S
C933 C936 1.394 . S
C933 C938 1.370 1_556 S
C933 C939 1.503 . S
C934 C937 1.383 1_554 S
C934 C938 1.395 . S
C935 C936 1.396 . S
C935 C937 1.365 . S
C935 H944 0.929 . S
C936 C933 1.394 . S
C936 C935 1.396 . S
C936 H945 0.930 . S
C937 C934 1.383 1_556 S
C937 C935 1.365 . S
C937 H946 0.931 . S
C938 C933 1.370 1_554 S
C938 C934 1.395 . S
C938 H947 0.930 . S
C939 Gd875 2.803 1_556 S
C939 O915 1.240 1_556 S
C939 O916 1.273 . S
C939 C933 1.503 . S
H940 C923 0.929 . S
H941 C924 0.930 . S
H942 C925 0.931 . S
H943 C926 0.935 . S
H944 C935 0.929 . S
H945 C936 0.930 . S
H946 C937 0.931 . S
H947 C938 0.930 . S
C948 C950 1.422 . S
C948 C952 1.415 . S
C948 N954 1.369 . S
C949 C950 1.421 . S
C949 C951 1.417 . S
C949 C961 1.422 . S
C950 C948 1.422 . S
C950 C949 1.421 . S
C950 N960 1.359 . S
C951 C949 1.417 . S
C951 C953 1.329 . S
C951 H970 0.930 . S
C952 C948 1.415 . S
C952 C953 1.437 . S
C952 C956 1.413 . S
C953 C951 1.329 . S
C953 C952 1.437 . S
C953 H975 0.929 . S
N954 C948 1.369 . S
N954 C955 1.338 . S
N954 Gd959 2.622 . S
C955 N954 1.338 . S
C955 C957 1.378 . S
C955 H967 0.929 . S
C956 C952 1.413 . S
C956 C957 1.348 . S
C956 H972 0.931 . S
C957 C955 1.378 . S
C957 C956 1.348 . S
C957 H973 0.930 . S
Gd958 N978 2.622 . S
Gd958 N985 2.570 . S
Gd958 O992 2.353 . S
Gd958 O993 2.468 . S
Gd958 O994 2.427 . S
Gd958 O996 2.388 . S
Gd958 O997 2.386 . S
Gd958 O1001 2.307 . S
Gd958 C1011 2.805 . S
Gd959 N954 2.622 . S
Gd959 N960 2.570 . S
Gd959 O991 2.386 . S
Gd959 O995 2.307 . S
Gd959 O998 2.353 . S
Gd959 O999 2.468 . S
Gd959 O1000 2.427 . S
Gd959 O1002 2.388 . S
Gd959 C1023 2.805 . S
N960 C950 1.359 . S
N960 Gd959 2.570 . S
N960 C962 1.343 . S
C961 C949 1.422 . S
C961 C963 1.321 . S
C961 H969 0.931 . S
C962 N960 1.343 . S
C962 C963 1.390 . S
C962 H964 0.931 . S
C963 C961 1.321 . S
C963 C962 1.390 . S
C963 H965 0.930 . S
H964 C962 0.931 . S
H965 C963 0.930 . S
H966 C989 0.931 . S
H967 C955 0.929 . S
H968 C990 0.930 . S
H969 C961 0.931 . S
H970 C951 0.930 . S
H971 C980 0.929 . S
H972 C956 0.931 . S
H973 C957 0.930 . S
H974 C1012 0.930 . S
H975 C953 0.929 . S
H976 C981 0.931 . S
H977 C982 0.930 . S
N978 Gd958 2.622 . S
N978 C979 1.369 . S
N978 C980 1.338 . S
C979 N978 1.369 . S
C979 C983 1.415 . S
C979 C986 1.422 . S
C980 H971 0.929 . S
C980 N978 1.338 . S
C980 C982 1.378 . S
C981 H976 0.931 . S
C981 C982 1.348 . S
C981 C983 1.413 . S
C982 H977 0.930 . S
C982 C980 1.378 . S
C982 C981 1.348 . S
C983 C979 1.415 . S
C983 C981 1.413 . S
C983 C1013 1.437 . S
H984 C1013 0.929 . S
N985 Gd958 2.570 . S
N985 C986 1.359 . S
N985 C989 1.343 . S
C986 C979 1.422 . S
C986 N985 1.359 . S
C986 C988 1.421 . S
C987 C988 1.422 . S
C987 C990 1.321 . S
C987 H1014 0.931 . S
C988 C986 1.421 . S
C988 C987 1.422 . S
C988 C1012 1.417 . S
C989 H966 0.931 . S
C989 N985 1.343 . S
C989 C990 1.390 . S
C990 H968 0.930 . S
C990 C987 1.321 . S
C990 C989 1.390 . S
O991 Gd959 2.386 . S
O991 C1003 1.265 . S
O992 Gd958 2.353 . S
O992 C1003 1.242 . S
O993 Gd958 2.468 . S
O993 C1011 1.263 . S
O994 Gd958 2.427 . S
O994 C1011 1.252 . S
O995 Gd959 2.307 . S
O995 C1004 1.261 . S
O996 Gd958 2.388 . S
O996 C1004 1.252 . S
O997 Gd958 2.386 . S
O997 C1015 1.265 . S
O998 Gd959 2.353 . S
O998 C1015 1.242 . S
O999 Gd959 2.468 . S
O999 C1023 1.263 . S
O1000 Gd959 2.427 . S
O1000 C1023 1.252 . S
O1001 Gd958 2.307 . S
O1001 C1016 1.261 . S
O1002 Gd959 2.388 . S
O1002 C1016 1.252 . S
C1003 O991 1.265 . S
C1003 O992 1.242 . S
C1004 O995 1.261 . S
C1004 O996 1.252 . S
C1005 C1008 1.394 . S
C1005 C1010 1.370 . S
C1005 C1011 1.500 . S
C1006 C1009 1.383 . S
C1006 C1010 1.395 . S
C1007 C1008 1.396 . S
C1007 C1009 1.365 . S
C1007 H1024 0.929 . S
C1008 C1005 1.394 . S
C1008 C1007 1.396 . S
C1008 H1025 0.930 . S
C1009 C1006 1.383 . S
C1009 C1007 1.365 . S
C1009 H1026 0.931 . S
C1010 C1005 1.370 . S
C1010 C1006 1.395 . S
C1010 H1027 0.930 . S
C1011 Gd958 2.805 . S
C1011 O993 1.263 . S
C1011 O994 1.252 . S
C1011 C1005 1.500 . S
C1012 H974 0.930 . S
C1012 C988 1.417 . S
C1012 C1013 1.329 . S
C1013 C983 1.437 . S
C1013 H984 0.929 . S
C1013 C1012 1.329 . S
H1014 C987 0.931 . S
C1015 O997 1.265 . S
C1015 O998 1.242 . S
C1016 O1001 1.261 . S
C1016 O1002 1.252 . S
C1017 C1020 1.394 . S
C1017 C1022 1.370 . S
C1017 C1023 1.500 . S
C1018 C1021 1.383 . S
C1018 C1022 1.395 . S
C1019 C1020 1.396 . S
C1019 C1021 1.365 . S
C1019 H1028 0.929 . S
C1020 C1017 1.394 . S
C1020 C1019 1.396 . S
C1020 H1029 0.930 . S
C1021 C1018 1.383 . S
C1021 C1019 1.365 . S
C1021 H1030 0.931 . S
C1022 C1017 1.370 . S
C1022 C1018 1.395 . S
C1022 H1031 0.930 . S
C1023 Gd959 2.805 . S
C1023 O999 1.263 . S
C1023 O1000 1.252 . S
C1023 C1017 1.500 . S
H1024 C1007 0.929 . S
H1025 C1008 0.930 . S
H1026 C1009 0.931 . S
H1027 C1010 0.930 . S
H1028 C1019 0.929 . S
H1029 C1020 0.930 . S
H1030 C1021 0.931 . S
H1031 C1022 0.930 . S
C1032 C1034 1.422 . S
C1032 C1036 1.415 . S
C1032 N1038 1.369 . S
C1033 C1034 1.421 . S
C1033 C1035 1.417 . S
C1033 C1045 1.422 . S
C1034 C1032 1.422 . S
C1034 C1033 1.421 . S
C1034 N1044 1.359 . S
C1035 C1033 1.417 . S
C1035 C1037 1.329 . S
C1035 H1054 0.930 . S
C1036 C1032 1.415 . S
C1036 C1037 1.437 . S
C1036 C1040 1.413 . S
C1037 C1035 1.329 . S
C1037 C1036 1.437 . S
C1037 H1059 0.929 . S
N1038 C1032 1.369 . S
N1038 C1039 1.338 . S
N1038 Gd1043 2.622 . S
C1039 N1038 1.338 . S
C1039 C1041 1.378 . S
C1039 H1051 0.929 . S
C1040 C1036 1.413 . S
C1040 C1041 1.348 . S
C1040 H1056 0.931 . S
C1041 C1039 1.378 . S
C1041 C1040 1.348 . S
C1041 H1057 0.930 . S
Gd1042 N1062 2.622 . S
Gd1042 N1069 2.570 1_545 S
Gd1042 O1076 2.353 . S
Gd1042 O1077 2.468 . S
Gd1042 O1078 2.427 . S
Gd1042 O1080 2.388 . S
Gd1042 O1081 2.386 1_545 S
Gd1042 O1085 2.307 . S
Gd1042 C1095 2.805 . S
Gd1043 N1038 2.622 . S
Gd1043 N1044 2.570 . S
Gd1043 O1075 2.386 . S
Gd1043 O1079 2.307 . S
Gd1043 O1082 2.353 . S
Gd1043 O1083 2.468 . S
Gd1043 O1084 2.427 . S
Gd1043 O1086 2.388 . S
Gd1043 C1107 2.805 . S
N1044 C1034 1.359 . S
N1044 Gd1043 2.570 . S
N1044 C1046 1.343 . S
C1045 C1033 1.422 . S
C1045 C1047 1.321 . S
C1045 H1053 0.931 . S
C1046 N1044 1.343 . S
C1046 C1047 1.390 . S
C1046 H1048 0.931 . S
C1047 C1045 1.321 . S
C1047 C1046 1.390 . S
C1047 H1049 0.930 . S
H1048 C1046 0.931 . S
H1049 C1047 0.930 . S
H1050 C1073 0.931 1_545 S
H1051 C1039 0.929 . S
H1052 C1074 0.930 . S
H1053 C1045 0.931 . S
H1054 C1035 0.930 . S
H1055 C1064 0.929 . S
H1056 C1040 0.931 . S
H1057 C1041 0.930 . S
H1058 C1096 0.930 . S
H1059 C1037 0.929 . S
H1060 C1065 0.931 . S
H1061 C1066 0.930 . S
N1062 Gd1042 2.622 . S
N1062 C1063 1.369 1_545 S
N1062 C1064 1.338 . S
C1063 N1062 1.369 1_565 S
C1063 C1067 1.415 . S
C1063 C1070 1.422 . S
C1064 H1055 0.929 . S
C1064 N1062 1.338 . S
C1064 C1066 1.378 1_545 S
C1065 H1060 0.931 . S
C1065 C1066 1.348 . S
C1065 C1067 1.413 . S
C1066 H1061 0.930 . S
C1066 C1064 1.378 1_565 S
C1066 C1065 1.348 . S
C1067 C1063 1.415 . S
C1067 C1065 1.413 . S
C1067 C1097 1.437 . S
H1068 C1097 0.929 . S
N1069 Gd1042 2.570 1_565 S
N1069 C1070 1.359 . S
N1069 C1073 1.343 . S
C1070 C1063 1.422 . S
C1070 N1069 1.359 . S
C1070 C1072 1.421 . S
C1071 C1072 1.422 . S
C1071 C1074 1.321 . S
C1071 H1098 0.931 . S
C1072 C1070 1.421 . S
C1072 C1071 1.422 . S
C1072 C1096 1.417 . S
C1073 H1050 0.931 1_565 S
C1073 N1069 1.343 . S
C1073 C1074 1.390 . S
C1074 H1052 0.930 . S
C1074 C1071 1.321 . S
C1074 C1073 1.390 . S
O1075 Gd1043 2.386 . S
O1075 C1087 1.265 . S
O1076 Gd1042 2.353 . S
O1076 C1087 1.242 . S
O1077 Gd1042 2.468 . S
O1077 C1095 1.263 . S
O1078 Gd1042 2.427 . S
O1078 C1095 1.252 . S
O1079 Gd1043 2.307 . S
O1079 C1088 1.261 . S
O1080 Gd1042 2.388 . S
O1080 C1088 1.252 . S
O1081 Gd1042 2.386 1_565 S
O1081 C1099 1.265 . S
O1082 Gd1043 2.353 . S
O1082 C1099 1.242 1_545 S
O1083 Gd1043 2.468 . S
O1083 C1107 1.263 . S
O1084 Gd1043 2.427 . S
O1084 C1107 1.252 . S
O1085 Gd1042 2.307 . S
O1085 C1100 1.261 . S
O1086 Gd1043 2.388 . S
O1086 C1100 1.252 . S
C1087 O1075 1.265 . S
C1087 O1076 1.242 . S
C1088 O1079 1.261 . S
C1088 O1080 1.252 . S
C1089 C1092 1.394 . S
C1089 C1094 1.370 . S
C1089 C1095 1.500 . S
C1090 C1093 1.383 . S
C1090 C1094 1.395 . S
C1091 C1092 1.396 . S
C1091 C1093 1.365 . S
C1091 H1108 0.929 . S
C1092 C1089 1.394 . S
C1092 C1091 1.396 . S
C1092 H1109 0.930 . S
C1093 C1090 1.383 . S
C1093 C1091 1.365 . S
C1093 H1110 0.931 . S
C1094 C1089 1.370 . S
C1094 C1090 1.395 . S
C1094 H1111 0.930 . S
C1095 Gd1042 2.805 . S
C1095 O1077 1.263 . S
C1095 O1078 1.252 . S
C1095 C1089 1.500 . S
C1096 H1058 0.930 . S
C1096 C1072 1.417 . S
C1096 C1097 1.329 . S
C1097 C1067 1.437 . S
C1097 H1068 0.929 . S
C1097 C1096 1.329 . S
H1098 C1071 0.931 . S
C1099 O1081 1.265 . S
C1099 O1082 1.242 1_565 S
C1100 O1085 1.261 . S
C1100 O1086 1.252 . S
C1101 C1104 1.394 1_545 S
C1101 C1106 1.370 1_545 S
C1101 C1107 1.500 . S
C1102 C1105 1.383 . S
C1102 C1106 1.395 . S
C1103 C1104 1.396 . S
C1103 C1105 1.365 . S
C1103 H1112 0.929 . S
C1104 C1101 1.394 1_565 S
C1104 C1103 1.396 . S
C1104 H1113 0.930 1_565 S
C1105 C1102 1.383 . S
C1105 C1103 1.365 . S
C1105 H1114 0.931 . S
C1106 C1101 1.370 1_565 S
C1106 C1102 1.395 . S
C1106 H1115 0.935 . S
C1107 Gd1043 2.805 . S
C1107 O1083 1.263 . S
C1107 O1084 1.252 . S
C1107 C1101 1.500 . S
H1108 C1091 0.929 . S
H1109 C1092 0.930 . S
H1110 C1093 0.931 . S
H1111 C1094 0.930 . S
H1112 C1103 0.929 . S
H1113 C1104 0.930 1_545 S
H1114 C1105 0.931 . S
H1115 C1106 0.935 . S
C1116 C1118 1.422 . S
C1116 C1120 1.415 . S
C1116 N1122 1.369 . S
C1117 C1118 1.421 . S
C1117 C1119 1.417 . S
C1117 C1129 1.422 . S
C1118 C1116 1.422 . S
C1118 C1117 1.421 . S
C1118 N1128 1.359 . S
C1119 C1117 1.417 . S
C1119 C1121 1.329 . S
C1119 H1138 0.930 . S
C1120 C1116 1.415 . S
C1120 C1121 1.437 . S
C1120 C1124 1.413 . S
C1121 C1119 1.329 . S
C1121 C1120 1.437 . S
C1121 H1143 0.929 . S
N1122 C1116 1.369 . S
N1122 C1123 1.338 . S
N1122 Gd1127 2.622 . S
C1123 N1122 1.338 . S
C1123 C1125 1.378 . S
C1123 H1135 0.929 . S
C1124 C1120 1.413 . S
C1124 C1125 1.348 . S
C1124 H1140 0.931 . S
C1125 C1123 1.378 . S
C1125 C1124 1.348 . S
C1125 H1141 0.930 . S
Gd1126 N1146 2.622 . S
Gd1126 N1153 2.570 . S
Gd1126 O1160 2.353 . S
Gd1126 O1161 2.468 . S
Gd1126 O1162 2.427 . S
Gd1126 O1164 2.388 . S
Gd1126 O1165 2.386 . S
Gd1126 O1169 2.307 . S
Gd1126 C1179 2.805 . S
Gd1127 N1122 2.622 . S
Gd1127 N1128 2.570 . S
Gd1127 O1159 2.386 . S
Gd1127 O1163 2.307 . S
Gd1127 O1166 2.353 . S
Gd1127 O1167 2.468 . S
Gd1127 O1168 2.427 . S
Gd1127 O1170 2.388 . S
Gd1127 C1191 2.805 . S
N1128 C1118 1.359 . S
N1128 Gd1127 2.570 . S
N1128 C1130 1.343 . S
C1129 C1117 1.422 . S
C1129 C1131 1.321 . S
C1129 H1137 0.931 . S
C1130 N1128 1.343 . S
C1130 C1131 1.390 . S
C1130 H1132 0.931 . S
C1131 C1129 1.321 . S
C1131 C1130 1.390 . S
C1131 H1133 0.930 . S
H1132 C1130 0.931 . S
H1133 C1131 0.930 . S
H1134 C1157 0.931 . S
H1135 C1123 0.929 . S
H1136 C1158 0.930 . S
H1137 C1129 0.931 . S
H1138 C1119 0.930 . S
H1139 C1148 0.929 . S
H1140 C1124 0.931 . S
H1141 C1125 0.930 . S
H1142 C1180 0.930 . S
H1143 C1121 0.929 . S
H1144 C1149 0.931 . S
H1145 C1150 0.930 . S
N1146 Gd1126 2.622 . S
N1146 C1147 1.369 . S
N1146 C1148 1.338 . S
C1147 N1146 1.369 . S
C1147 C1151 1.415 . S
C1147 C1154 1.422 . S
C1148 H1139 0.929 . S
C1148 N1146 1.338 . S
C1148 C1150 1.378 . S
C1149 H1144 0.931 . S
C1149 C1150 1.348 . S
C1149 C1151 1.413 . S
C1150 H1145 0.930 . S
C1150 C1148 1.378 . S
C1150 C1149 1.348 . S
C1151 C1147 1.415 . S
C1151 C1149 1.413 . S
C1151 C1181 1.437 . S
H1152 C1181 0.929 . S
N1153 Gd1126 2.570 . S
N1153 C1154 1.359 . S
N1153 C1157 1.343 . S
C1154 C1147 1.422 . S
C1154 N1153 1.359 . S
C1154 C1156 1.421 . S
C1155 C1156 1.422 . S
C1155 C1158 1.321 . S
C1155 H1182 0.931 . S
C1156 C1154 1.421 . S
C1156 C1155 1.422 . S
C1156 C1180 1.417 . S
C1157 H1134 0.931 . S
C1157 N1153 1.343 . S
C1157 C1158 1.390 . S
C1158 H1136 0.930 . S
C1158 C1155 1.321 . S
C1158 C1157 1.390 . S
O1159 Gd1127 2.386 . S
O1159 C1171 1.265 . S
O1160 Gd1126 2.353 . S
O1160 C1171 1.242 . S
O1161 Gd1126 2.468 . S
O1161 C1179 1.263 . S
O1162 Gd1126 2.427 . S
O1162 C1179 1.252 . S
O1163 Gd1127 2.307 . S
O1163 C1172 1.261 . S
O1164 Gd1126 2.388 . S
O1164 C1172 1.252 . S
O1165 Gd1126 2.386 . S
O1165 C1183 1.265 . S
O1166 Gd1127 2.353 . S
O1166 C1183 1.242 . S
O1167 Gd1127 2.468 . S
O1167 C1191 1.263 . S
O1168 Gd1127 2.427 . S
O1168 C1191 1.252 . S
O1169 Gd1126 2.307 . S
O1169 C1184 1.261 . S
O1170 Gd1127 2.388 . S
O1170 C1184 1.252 . S
C1171 O1159 1.265 . S
C1171 O1160 1.242 . S
C1172 O1163 1.261 . S
C1172 O1164 1.252 . S
C1173 C1176 1.394 . S
C1173 C1178 1.370 . S
C1173 C1179 1.500 . S
C1174 C1177 1.383 . S
C1174 C1178 1.395 . S
C1175 C1176 1.396 . S
C1175 C1177 1.365 . S
C1175 H1192 0.929 . S
C1176 C1173 1.394 . S
C1176 C1175 1.396 . S
C1176 H1193 0.930 . S
C1177 C1174 1.383 . S
C1177 C1175 1.365 . S
C1177 H1194 0.931 . S
C1178 C1173 1.370 . S
C1178 C1174 1.395 . S
C1178 H1195 0.930 . S
C1179 Gd1126 2.805 . S
C1179 O1161 1.263 . S
C1179 O1162 1.252 . S
C1179 C1173 1.500 . S
C1180 H1142 0.930 . S
C1180 C1156 1.417 . S
C1180 C1181 1.329 . S
C1181 C1151 1.437 . S
C1181 H1152 0.929 . S
C1181 C1180 1.329 . S
H1182 C1155 0.931 . S
C1183 O1165 1.265 . S
C1183 O1166 1.242 . S
C1184 O1169 1.261 . S
C1184 O1170 1.252 . S
C1185 C1188 1.394 . S
C1185 C1190 1.370 . S
C1185 C1191 1.500 . S
C1186 C1189 1.383 . S
C1186 C1190 1.395 . S
C1187 C1188 1.396 . S
C1187 C1189 1.365 . S
C1187 H1196 0.929 . S
C1188 C1185 1.394 . S
C1188 C1187 1.396 . S
C1188 H1197 0.930 . S
C1189 C1186 1.383 . S
C1189 C1187 1.365 . S
C1189 H1198 0.931 . S
C1190 C1185 1.370 . S
C1190 C1186 1.395 . S
C1190 H1199 0.930 . S
C1191 Gd1127 2.805 . S
C1191 O1167 1.263 . S
C1191 O1168 1.252 . S
C1191 C1185 1.500 . S
H1192 C1175 0.929 . S
H1193 C1176 0.930 . S
H1194 C1177 0.931 . S
H1195 C1178 0.930 . S
H1196 C1187 0.929 . S
H1197 C1188 0.930 . S
H1198 C1189 0.931 . S
H1199 C1190 0.930 . S
C1200 C1202 1.422 . S
C1200 C1204 1.415 1_455 S
C1200 N1206 1.369 1_455 S
C1201 C1202 1.421 . S
C1201 C1203 1.417 . S
C1201 C1213 1.422 . S
C1202 C1200 1.422 . S
C1202 C1201 1.421 . S
C1202 N1212 1.359 . S
C1203 C1201 1.417 . S
C1203 C1205 1.385 . S
C1203 H1222 0.930 . S
C1204 C1200 1.415 1_655 S
C1204 C1205 1.421 1_655 S
C1204 C1208 1.413 . S
C1205 C1203 1.385 . S
C1205 C1204 1.421 1_455 S
C1205 H1227 0.892 1_455 S
N1206 C1200 1.369 1_655 S
N1206 C1207 1.338 . S
N1206 Gd1211 2.622 1_655 S
C1207 N1206 1.338 . S
C1207 C1209 1.378 . S
C1207 H1219 0.929 . S
C1208 C1204 1.413 . S
C1208 C1209 1.348 . S
C1208 H1224 0.931 . S
C1209 C1207 1.378 . S
C1209 C1208 1.348 . S
C1209 H1225 0.930 . S
Gd1210 N1230 2.639 . S
Gd1210 N1237 2.600 . S
Gd1210 O1244 2.338 1_565 S
Gd1210 O1245 2.506 . S
Gd1210 O1246 2.463 . S
Gd1210 O1248 2.358 1_565 S
Gd1210 O1249 2.360 1_565 S
Gd1210 O1253 2.293 1_565 S
Gd1210 C1263 2.847 . S
Gd1211 N1206 2.622 1_455 S
Gd1211 N1212 2.570 . S
Gd1211 O1243 2.386 . S
Gd1211 O1247 2.307 . S
Gd1211 O1250 2.353 . S
Gd1211 O1251 2.468 . S
Gd1211 O1252 2.427 1_455 S
Gd1211 O1254 2.388 1_455 S
Gd1211 C1275 2.805 . S
N1212 C1202 1.359 . S
N1212 Gd1211 2.570 . S
N1212 C1214 1.343 . S
C1213 C1201 1.422 . S
C1213 C1215 1.321 . S
C1213 H1221 0.931 . S
C1214 N1212 1.343 . S
C1214 C1215 1.390 . S
C1214 H1216 0.931 . S
C1215 C1213 1.321 . S
C1215 C1214 1.390 . S
C1215 H1217 0.930 . S
H1216 C1214 0.931 . S
H1217 C1215 0.930 . S
H1218 C1241 0.931 . S
H1219 C1207 0.929 . S
H1220 C1242 0.930 . S
H1221 C1213 0.931 . S
H1222 C1203 0.930 . S
H1223 C1232 0.929 1_545 S
H1224 C1208 0.931 . S
H1225 C1209 0.930 . S
H1226 C1264 0.930 . S
H1227 C1205 0.892 1_655 S
H1228 C1233 0.931 . S
H1229 C1234 0.930 . S
N1230 Gd1210 2.639 . S
N1230 C1231 1.369 . S
N1230 C1232 1.338 . S
C1231 N1230 1.369 . S
C1231 C1235 1.415 . S
C1231 C1238 1.422 . S
C1232 H1223 0.929 1_565 S
C1232 N1230 1.338 . S
C1232 C1234 1.378 . S
C1233 H1228 0.931 . S
C1233 C1234 1.348 . S
C1233 C1235 1.413 . S
C1234 H1229 0.930 . S
C1234 C1232 1.378 . S
C1234 C1233 1.348 . S
C1235 C1231 1.415 . S
C1235 C1233 1.413 . S
C1235 C1265 1.437 . S
H1236 C1265 0.929 . S
N1237 Gd1210 2.600 . S
N1237 C1238 1.359 . S
N1237 C1241 1.343 1_455 S
C1238 C1231 1.422 . S
C1238 N1237 1.359 . S
C1238 C1240 1.421 . S
C1239 C1240 1.422 1_655 S
C1239 C1242 1.321 . S
C1239 H1266 0.931 . S
C1240 C1238 1.421 . S
C1240 C1239 1.422 1_455 S
C1240 C1264 1.417 . S
C1241 H1218 0.931 . S
C1241 N1237 1.343 1_655 S
C1241 C1242 1.390 . S
C1242 H1220 0.930 . S
C1242 C1239 1.321 . S
C1242 C1241 1.390 . S
O1243 Gd1211 2.386 . S
O1243 C1255 1.265 . S
O1244 Gd1210 2.338 1_545 S
O1244 C1255 1.242 . S
O1245 Gd1210 2.506 . S
O1245 C1263 1.263 . S
O1246 Gd1210 2.463 . S
O1246 C1263 1.252 . S
O1247 Gd1211 2.307 . S
O1247 C1256 1.261 . S
O1248 Gd1210 2.358 1_545 S
O1248 C1256 1.252 . S
O1249 Gd1210 2.360 1_545 S
O1249 C1267 1.265 . S
O1250 Gd1211 2.353 . S
O1250 C1267 1.242 . S
O1251 Gd1211 2.468 . S
O1251 C1275 1.263 . S
O1252 Gd1211 2.427 1_655 S
O1252 C1275 1.252 1_655 S
O1253 Gd1210 2.293 1_545 S
O1253 C1268 1.261 1_455 S
O1254 Gd1211 2.388 1_655 S
O1254 C1268 1.252 . S
C1255 O1243 1.265 . S
C1255 O1244 1.242 . S
C1256 O1247 1.261 . S
C1256 O1248 1.252 . S
C1257 C1260 1.394 . S
C1257 C1262 1.370 . S
C1257 C1263 1.500 . S
C1258 C1261 1.383 . S
C1258 C1262 1.395 . S
C1259 C1260 1.396 . S
C1259 C1261 1.365 . S
C1259 H1276 0.929 . S
C1260 C1257 1.394 . S
C1260 C1259 1.396 . S
C1260 H1277 0.930 . S
C1261 C1258 1.383 . S
C1261 C1259 1.365 . S
C1261 H1278 0.931 . S
C1262 C1257 1.370 . S
C1262 C1258 1.395 . S
C1262 H1279 0.930 . S
C1263 Gd1210 2.847 . S
C1263 O1245 1.263 . S
C1263 O1246 1.252 . S
C1263 C1257 1.500 . S
C1264 H1226 0.930 . S
C1264 C1240 1.417 . S
C1264 C1265 1.329 . S
C1265 C1235 1.437 . S
C1265 H1236 0.929 . S
C1265 C1264 1.329 . S
H1266 C1239 0.931 . S
C1267 O1249 1.265 . S
C1267 O1250 1.242 . S
C1268 O1253 1.261 1_655 S
C1268 O1254 1.252 . S
C1269 C1272 1.394 1_455 S
C1269 C1274 1.370 . S
C1269 C1275 1.500 . S
C1270 C1273 1.383 1_455 S
C1270 C1274 1.395 . S
C1271 C1272 1.396 . S
C1271 C1273 1.365 . S
C1271 H1280 0.929 . S
C1272 C1269 1.394 1_655 S
C1272 C1271 1.396 . S
C1272 H1281 0.930 . S
C1273 C1270 1.383 1_655 S
C1273 C1271 1.365 . S
C1273 H1282 0.931 . S
C1274 C1269 1.370 . S
C1274 C1270 1.395 . S
C1274 H1283 0.930 . S
C1275 Gd1211 2.805 . S
C1275 O1251 1.263 . S
C1275 O1252 1.252 1_455 S
C1275 C1269 1.500 . S
H1276 C1259 0.929 . S
H1277 C1260 0.930 . S
H1278 C1261 0.931 . S
H1279 C1262 0.930 . S
H1280 C1271 0.929 . S
H1281 C1272 0.930 . S
H1282 C1273 0.931 . S
H1283 C1274 0.930 . S
C1284 C1286 1.422 . S
C1284 C1288 1.415 . S
C1284 N1290 1.369 . S
C1285 C1286 1.421 . S
C1285 C1287 1.417 . S
C1285 C1297 1.422 . S
C1286 C1284 1.422 . S
C1286 C1285 1.421 . S
C1286 N1296 1.359 . S
C1287 C1285 1.417 . S
C1287 C1289 1.329 . S
C1287 H1306 0.930 . S
C1288 C1284 1.415 . S
C1288 C1289 1.437 . S
C1288 C1292 1.413 . S
C1289 C1287 1.329 . S
C1289 C1288 1.437 . S
C1289 H1311 0.929 . S
N1290 C1284 1.369 . S
N1290 C1291 1.338 . S
N1290 Gd1295 2.622 . S
C1291 N1290 1.338 . S
C1291 C1293 1.378 . S
C1291 H1303 0.929 . S
C1292 C1288 1.413 . S
C1292 C1293 1.348 . S
C1292 H1308 0.931 . S
C1293 C1291 1.378 . S
C1293 C1292 1.348 . S
C1293 H1309 0.930 . S
Gd1294 N1314 2.622 . S
Gd1294 N1321 2.570 . S
Gd1294 O1328 2.353 . S
Gd1294 O1329 2.468 . S
Gd1294 O1330 2.427 . S
Gd1294 O1332 2.388 . S
Gd1294 O1333 2.386 . S
Gd1294 O1337 2.307 . S
Gd1294 C1347 2.805 . S
Gd1295 N1290 2.622 . S
Gd1295 N1296 2.570 . S
Gd1295 O1327 2.386 . S
Gd1295 O1331 2.307 . S
Gd1295 O1334 2.353 . S
Gd1295 O1335 2.468 . S
Gd1295 O1336 2.427 . S
Gd1295 O1338 2.388 . S
Gd1295 C1359 2.805 . S
N1296 C1286 1.359 . S
N1296 Gd1295 2.570 . S
N1296 C1298 1.343 . S
C1297 C1285 1.422 . S
C1297 C1299 1.321 . S
C1297 H1305 0.931 . S
C1298 N1296 1.343 . S
C1298 C1299 1.390 . S
C1298 H1300 0.931 . S
C1299 C1297 1.321 . S
C1299 C1298 1.390 . S
C1299 H1301 0.930 . S
H1300 C1298 0.931 . S
H1301 C1299 0.930 . S
H1302 C1325 0.931 . S
H1303 C1291 0.929 . S
H1304 C1326 0.930 . S
H1305 C1297 0.931 . S
H1306 C1287 0.930 . S
H1307 C1316 0.929 . S
H1308 C1292 0.931 . S
H1309 C1293 0.930 . S
H1310 C1348 0.930 . S
H1311 C1289 0.929 . S
H1312 C1317 0.931 . S
H1313 C1318 0.930 . S
N1314 Gd1294 2.622 . S
N1314 C1315 1.369 . S
N1314 C1316 1.338 . S
C1315 N1314 1.369 . S
C1315 C1319 1.415 . S
C1315 C1322 1.422 . S
C1316 H1307 0.929 . S
C1316 N1314 1.338 . S
C1316 C1318 1.378 . S
C1317 H1312 0.931 . S
C1317 C1318 1.348 . S
C1317 C1319 1.413 . S
C1318 H1313 0.930 . S
C1318 C1316 1.378 . S
C1318 C1317 1.348 . S
C1319 C1315 1.415 . S
C1319 C1317 1.413 . S
C1319 C1349 1.437 . S
H1320 C1349 0.929 . S
N1321 Gd1294 2.570 . S
N1321 C1322 1.359 . S
N1321 C1325 1.343 . S
C1322 C1315 1.422 . S
C1322 N1321 1.359 . S
C1322 C1324 1.421 . S
C1323 C1324 1.422 . S
C1323 C1326 1.321 . S
C1323 H1350 0.931 . S
C1324 C1322 1.421 . S
C1324 C1323 1.422 . S
C1324 C1348 1.417 . S
C1325 H1302 0.931 . S
C1325 N1321 1.343 . S
C1325 C1326 1.390 . S
C1326 H1304 0.930 . S
C1326 C1323 1.321 . S
C1326 C1325 1.390 . S
O1327 Gd1295 2.386 . S
O1327 C1339 1.265 . S
O1328 Gd1294 2.353 . S
O1328 C1339 1.242 . S
O1329 Gd1294 2.468 . S
O1329 C1347 1.263 . S
O1330 Gd1294 2.427 . S
O1330 C1347 1.252 . S
O1331 Gd1295 2.307 . S
O1331 C1340 1.261 . S
O1332 Gd1294 2.388 . S
O1332 C1340 1.252 . S
O1333 Gd1294 2.386 . S
O1333 C1351 1.265 . S
O1334 Gd1295 2.353 . S
O1334 C1351 1.242 . S
O1335 Gd1295 2.468 . S
O1335 C1359 1.263 . S
O1336 Gd1295 2.427 . S
O1336 C1359 1.252 . S
O1337 Gd1294 2.307 . S
O1337 C1352 1.261 . S
O1338 Gd1295 2.388 . S
O1338 C1352 1.252 . S
C1339 O1327 1.265 . S
C1339 O1328 1.242 . S
C1340 O1331 1.261 . S
C1340 O1332 1.252 . S
C1341 C1344 1.394 . S
C1341 C1346 1.370 . S
C1341 C1347 1.500 . S
C1342 C1345 1.383 . S
C1342 C1346 1.395 . S
C1343 C1344 1.396 . S
C1343 C1345 1.365 . S
C1343 H1360 0.929 . S
C1344 C1341 1.394 . S
C1344 C1343 1.396 . S
C1344 H1361 0.930 . S
C1345 C1342 1.383 . S
C1345 C1343 1.365 . S
C1345 H1362 0.931 . S
C1346 C1341 1.370 . S
C1346 C1342 1.395 . S
C1346 H1363 0.930 . S
C1347 Gd1294 2.805 . S
C1347 O1329 1.263 . S
C1347 O1330 1.252 . S
C1347 C1341 1.500 . S
C1348 H1310 0.930 . S
C1348 C1324 1.417 . S
C1348 C1349 1.329 . S
C1349 C1319 1.437 . S
C1349 H1320 0.929 . S
C1349 C1348 1.329 . S
H1350 C1323 0.931 . S
C1351 O1333 1.265 . S
C1351 O1334 1.242 . S
C1352 O1337 1.261 . S
C1352 O1338 1.252 . S
C1353 C1356 1.394 . S
C1353 C1358 1.370 . S
C1353 C1359 1.500 . S
C1354 C1357 1.383 . S
C1354 C1358 1.395 . S
C1355 C1356 1.396 . S
C1355 C1357 1.365 . S
C1355 H1364 0.929 . S
C1356 C1353 1.394 . S
C1356 C1355 1.396 . S
C1356 H1365 0.930 . S
C1357 C1354 1.383 . S
C1357 C1355 1.365 . S
C1357 H1366 0.931 . S
C1358 C1353 1.370 . S
C1358 C1354 1.395 . S
C1358 H1367 0.930 . S
C1359 Gd1295 2.805 . S
C1359 O1335 1.263 . S
C1359 O1336 1.252 . S
C1359 C1353 1.500 . S
H1360 C1343 0.929 . S
H1361 C1344 0.930 . S
H1362 C1345 0.931 . S
H1363 C1346 0.930 . S
H1364 C1355 0.929 . S
H1365 C1356 0.930 . S
H1366 C1357 0.931 . S
H1367 C1358 0.930 . S
C1368 C1370 1.422 . S
C1368 C1372 1.415 1_545 S
C1368 N1374 1.369 1_545 S
C1369 C1370 1.421 . S
C1369 C1371 1.417 . S
C1369 C1381 1.422 . S
C1370 C1368 1.422 . S
C1370 C1369 1.421 . S
C1370 N1380 1.359 . S
C1371 C1369 1.417 . S
C1371 C1373 1.329 . S
C1371 H1390 0.930 . S
C1372 C1368 1.415 1_565 S
C1372 C1373 1.437 1_565 S
C1372 C1376 1.413 . S
C1373 C1371 1.329 . S
C1373 C1372 1.437 1_545 S
C1373 H1395 0.929 1_545 S
N1374 C1368 1.369 1_565 S
N1374 C1375 1.338 . S
N1374 Gd1379 2.622 1_565 S
C1375 N1374 1.338 . S
C1375 C1377 1.378 . S
C1375 H1387 0.929 . S
C1376 C1372 1.413 . S
C1376 C1377 1.348 . S
C1376 H1392 0.931 . S
C1377 C1375 1.378 . S
C1377 C1376 1.348 . S
C1377 H1393 0.930 . S
Gd1378 N1398 2.622 . S
Gd1378 N1405 2.570 . S
Gd1378 O1412 2.353 1_556 S
Gd1378 O1413 2.468 . S
Gd1378 O1414 2.427 . S
Gd1378 O1416 2.388 1_556 S
Gd1378 O1417 2.386 1_556 S
Gd1378 O1421 2.303 1_556 S
Gd1378 C1431 2.805 . S
Gd1379 N1374 2.622 1_545 S
Gd1379 N1380 2.570 . S
Gd1379 O1411 2.386 . S
Gd1379 O1415 2.307 . S
Gd1379 O1418 2.353 . S
Gd1379 O1419 2.468 . S
Gd1379 O1420 2.427 1_545 S
Gd1379 O1422 2.388 1_545 S
Gd1379 C1443 2.805 . S
N1380 C1370 1.359 . S
N1380 Gd1379 2.570 . S
N1380 C1382 1.343 . S
C1381 C1369 1.422 . S
C1381 C1383 1.321 . S
C1381 H1389 0.931 . S
C1382 N1380 1.343 . S
C1382 C1383 1.390 . S
C1382 H1384 0.931 . S
C1383 C1381 1.321 . S
C1383 C1382 1.390 . S
C1383 H1385 0.930 . S
H1384 C1382 0.931 . S
H1385 C1383 0.930 . S
H1386 C1409 0.931 . S
H1387 C1375 0.929 . S
H1388 C1410 0.973 . S
H1389 C1381 0.931 . S
H1390 C1371 0.930 . S
H1391 C1400 0.929 1_554 S
H1392 C1376 0.931 . S
H1393 C1377 0.930 . S
H1394 C1432 0.930 . S
H1395 C1373 0.929 1_565 S
H1396 C1401 0.931 . S
H1397 C1402 0.930 . S
N1398 Gd1378 2.622 . S
N1398 C1399 1.369 . S
N1398 C1400 1.338 . S
C1399 N1398 1.369 . S
C1399 C1403 1.415 . S
C1399 C1406 1.422 . S
C1400 H1391 0.929 1_556 S
C1400 N1398 1.338 . S
C1400 C1402 1.378 . S
C1401 H1396 0.931 . S
C1401 C1402 1.348 . S
C1401 C1403 1.413 . S
C1402 H1397 0.930 . S
C1402 C1400 1.378 . S
C1402 C1401 1.348 . S
C1403 C1399 1.415 . S
C1403 C1401 1.413 . S
C1403 C1433 1.437 . S
H1404 C1433 0.929 . S
N1405 Gd1378 2.570 . S
N1405 C1406 1.359 . S
N1405 C1409 1.343 . S
C1406 C1399 1.422 . S
C1406 N1405 1.359 . S
C1406 C1408 1.421 . S
C1407 C1408 1.422 . S
C1407 C1410 1.292 1_545 S
C1407 H1434 0.931 . S
C1408 C1406 1.421 . S
C1408 C1407 1.422 . S
C1408 C1432 1.417 . S
C1409 H1386 0.931 . S
C1409 N1405 1.343 . S
C1409 C1410 1.379 1_545 S
C1410 H1388 0.973 . S
C1410 C1407 1.292 1_565 S
C1410 C1409 1.379 1_565 S
O1411 Gd1379 2.386 . S
O1411 C1423 1.265 . S
O1412 Gd1378 2.353 1_554 S
O1412 C1423 1.242 . S
O1413 Gd1378 2.468 . S
O1413 C1431 1.263 . S
O1414 Gd1378 2.427 . S
O1414 C1431 1.252 . S
O1415 Gd1379 2.307 . S
O1415 C1424 1.261 . S
O1416 Gd1378 2.388 1_554 S
O1416 C1424 1.252 . S
O1417 Gd1378 2.386 1_554 S
O1417 C1435 1.265 . S
O1418 Gd1379 2.353 . S
O1418 C1435 1.242 . S
O1419 Gd1379 2.468 . S
O1419 C1443 1.263 . S
O1420 Gd1379 2.427 1_565 S
O1420 C1443 1.252 1_565 S
O1421 Gd1378 2.303 1_554 S
O1421 C1436 1.268 1_545 S
O1422 Gd1379 2.388 1_565 S
O1422 C1436 1.252 . S
C1423 O1411 1.265 . S
C1423 O1412 1.242 . S
C1424 O1415 1.261 . S
C1424 O1416 1.252 . S
C1425 C1428 1.394 . S
C1425 C1430 1.370 . S
C1425 C1431 1.500 . S
C1426 C1429 1.383 . S
C1426 C1430 1.395 . S
C1427 C1428 1.396 . S
C1427 C1429 1.365 . S
C1427 H1444 0.929 . S
C1428 C1425 1.394 . S
C1428 C1427 1.396 . S
C1428 H1445 0.930 . S
C1429 C1426 1.383 . S
C1429 C1427 1.365 . S
C1429 H1446 0.931 . S
C1430 C1425 1.370 . S
C1430 C1426 1.395 . S
C1430 H1447 0.930 . S
C1431 Gd1378 2.805 . S
C1431 O1413 1.263 . S
C1431 O1414 1.252 . S
C1431 C1425 1.500 . S
C1432 H1394 0.930 . S
C1432 C1408 1.417 . S
C1432 C1433 1.329 . S
C1433 C1403 1.437 . S
C1433 H1404 0.929 . S
C1433 C1432 1.329 . S
H1434 C1407 0.931 . S
C1435 O1417 1.265 . S
C1435 O1418 1.242 . S
C1436 O1421 1.268 1_565 S
C1436 O1422 1.252 . S
C1437 C1440 1.445 . S
C1437 C1442 1.334 1_565 S
C1437 C1443 1.488 1_565 S
C1438 C1441 1.383 1_545 S
C1438 C1442 1.395 . S
C1439 C1440 1.396 . S
C1439 C1441 1.365 . S
C1439 H1448 0.929 . S
C1440 C1437 1.445 . S
C1440 C1439 1.396 . S
C1440 H1449 0.930 . S
C1441 C1438 1.383 1_565 S
C1441 C1439 1.365 . S
C1441 H1450 0.931 . S
C1442 C1437 1.334 1_545 S
C1442 C1438 1.395 . S
C1442 H1451 0.930 . S
C1443 Gd1379 2.805 . S
C1443 O1419 1.263 . S
C1443 O1420 1.252 1_545 S
C1443 C1437 1.488 1_545 S
H1444 C1427 0.929 . S
H1445 C1428 0.930 . S
H1446 C1429 0.931 . S
H1447 C1430 0.930 . S
H1448 C1439 0.929 . S
H1449 C1440 0.930 . S
H1450 C1441 0.931 . S
H1451 C1442 0.930 . S
C1452 C1454 1.422 . S
C1452 C1456 1.415 . S
C1452 N1458 1.369 . S
C1453 C1454 1.421 . S
C1453 C1455 1.417 . S
C1453 C1465 1.422 . S
C1454 C1452 1.422 . S
C1454 C1453 1.421 . S
C1454 N1464 1.359 . S
C1455 C1453 1.417 . S
C1455 C1457 1.329 . S
C1455 H1474 0.930 . S
C1456 C1452 1.415 . S
C1456 C1457 1.437 . S
C1456 C1460 1.413 . S
C1457 C1455 1.329 . S
C1457 C1456 1.437 . S
C1457 H1479 0.929 . S
N1458 C1452 1.369 . S
N1458 C1459 1.338 . S
N1458 Gd1463 2.622 . S
C1459 N1458 1.338 . S
C1459 C1461 1.378 . S
C1459 H1471 0.929 . S
C1460 C1456 1.413 . S
C1460 C1461 1.348 . S
C1460 H1476 0.931 . S
C1461 C1459 1.378 . S
C1461 C1460 1.348 . S
C1461 H1477 0.930 . S
Gd1462 N1482 2.622 . S
Gd1462 N1489 2.570 . S
Gd1462 O1496 2.353 . S
Gd1462 O1497 2.468 . S
Gd1462 O1498 2.427 . S
Gd1462 O1500 2.388 . S
Gd1462 O1501 2.386 . S
Gd1462 O1505 2.307 . S
Gd1462 C1515 2.805 . S
Gd1463 N1458 2.622 . S
Gd1463 N1464 2.570 . S
Gd1463 O1495 2.386 . S
Gd1463 O1499 2.307 . S
Gd1463 O1502 2.353 . S
Gd1463 O1503 2.468 . S
Gd1463 O1504 2.427 . S
Gd1463 O1506 2.388 . S
Gd1463 C1527 2.805 . S
N1464 C1454 1.359 . S
N1464 Gd1463 2.570 . S
N1464 C1466 1.343 . S
C1465 C1453 1.422 . S
C1465 C1467 1.321 . S
C1465 H1473 0.931 . S
C1466 N1464 1.343 . S
C1466 C1467 1.390 . S
C1466 H1468 0.931 . S
C1467 C1465 1.321 . S
C1467 C1466 1.390 . S
C1467 H1469 0.930 . S
H1468 C1466 0.931 . S
H1469 C1467 0.930 . S
H1470 C1493 0.931 . S
H1471 C1459 0.929 . S
H1472 C1494 0.930 . S
H1473 C1465 0.931 . S
H1474 C1455 0.930 . S
H1475 C1484 0.929 . S
H1476 C1460 0.931 . S
H1477 C1461 0.930 . S
H1478 C1516 0.930 . S
H1479 C1457 0.929 . S
H1480 C1485 0.931 . S
H1481 C1486 0.930 . S
N1482 Gd1462 2.622 . S
N1482 C1483 1.369 . S
N1482 C1484 1.338 . S
C1483 N1482 1.369 . S
C1483 C1487 1.415 . S
C1483 C1490 1.422 . S
C1484 H1475 0.929 . S
C1484 N1482 1.338 . S
C1484 C1486 1.378 . S
C1485 H1480 0.931 . S
C1485 C1486 1.348 . S
C1485 C1487 1.413 . S
C1486 H1481 0.930 . S
C1486 C1484 1.378 . S
C1486 C1485 1.348 . S
C1487 C1483 1.415 . S
C1487 C1485 1.413 . S
C1487 C1517 1.437 . S
H1488 C1517 0.929 . S
N1489 Gd1462 2.570 . S
N1489 C1490 1.359 . S
N1489 C1493 1.343 . S
C1490 C1483 1.422 . S
C1490 N1489 1.359 . S
C1490 C1492 1.421 . S
C1491 C1492 1.422 . S
C1491 C1494 1.321 . S
C1491 H1518 0.931 . S
C1492 C1490 1.421 . S
C1492 C1491 1.422 . S
C1492 C1516 1.417 . S
C1493 H1470 0.931 . S
C1493 N1489 1.343 . S
C1493 C1494 1.390 . S
C1494 H1472 0.930 . S
C1494 C1491 1.321 . S
C1494 C1493 1.390 . S
O1495 Gd1463 2.386 . S
O1495 C1507 1.265 . S
O1496 Gd1462 2.353 . S
O1496 C1507 1.242 . S
O1497 Gd1462 2.468 . S
O1497 C1515 1.263 . S
O1498 Gd1462 2.427 . S
O1498 C1515 1.252 . S
O1499 Gd1463 2.307 . S
O1499 C1508 1.261 . S
O1500 Gd1462 2.388 . S
O1500 C1508 1.252 . S
O1501 Gd1462 2.386 . S
O1501 C1519 1.265 . S
O1502 Gd1463 2.353 . S
O1502 C1519 1.242 . S
O1503 Gd1463 2.468 . S
O1503 C1527 1.263 . S
O1504 Gd1463 2.427 . S
O1504 C1527 1.252 . S
O1505 Gd1462 2.307 . S
O1505 C1520 1.261 . S
O1506 Gd1463 2.388 . S
O1506 C1520 1.252 . S
C1507 O1495 1.265 . S
C1507 O1496 1.242 . S
C1508 O1499 1.261 . S
C1508 O1500 1.252 . S
C1509 C1512 1.394 . S
C1509 C1514 1.370 . S
C1509 C1515 1.500 . S
C1510 C1513 1.383 . S
C1510 C1514 1.395 . S
C1511 C1512 1.396 . S
C1511 C1513 1.365 . S
C1511 H1528 0.929 . S
C1512 C1509 1.394 . S
C1512 C1511 1.396 . S
C1512 H1529 0.930 . S
C1513 C1510 1.383 . S
C1513 C1511 1.365 . S
C1513 H1530 0.931 . S
C1514 C1509 1.370 . S
C1514 C1510 1.395 . S
C1514 H1531 0.930 . S
C1515 Gd1462 2.805 . S
C1515 O1497 1.263 . S
C1515 O1498 1.252 . S
C1515 C1509 1.500 . S
C1516 H1478 0.930 . S
C1516 C1492 1.417 . S
C1516 C1517 1.329 . S
C1517 C1487 1.437 . S
C1517 H1488 0.929 . S
C1517 C1516 1.329 . S
H1518 C1491 0.931 . S
C1519 O1501 1.265 . S
C1519 O1502 1.242 . S
C1520 O1505 1.261 . S
C1520 O1506 1.252 . S
C1521 C1524 1.394 . S
C1521 C1526 1.370 . S
C1521 C1527 1.500 . S
C1522 C1525 1.383 . S
C1522 C1526 1.395 . S
C1523 C1524 1.396 . S
C1523 C1525 1.365 . S
C1523 H1532 0.929 . S
C1524 C1521 1.394 . S
C1524 C1523 1.396 . S
C1524 H1533 0.930 . S
C1525 C1522 1.383 . S
C1525 C1523 1.365 . S
C1525 H1534 0.931 . S
C1526 C1521 1.370 . S
C1526 C1522 1.395 . S
C1526 H1535 0.930 . S
C1527 Gd1463 2.805 . S
C1527 O1503 1.263 . S
C1527 O1504 1.252 . S
C1527 C1521 1.500 . S
H1528 C1511 0.929 . S
H1529 C1512 0.930 . S
H1530 C1513 0.931 . S
H1531 C1514 0.930 . S
H1532 C1523 0.929 . S
H1533 C1524 0.930 . S
H1534 C1525 0.931 . S
H1535 C1526 0.930 . S
C1536 C1538 1.422 . S
C1536 C1540 1.415 . S
C1536 N1542 1.369 . S
C1537 C1538 1.421 . S
C1537 C1539 1.417 . S
C1537 C1549 1.422 . S
C1538 C1536 1.422 . S
C1538 C1537 1.421 . S
C1538 N1548 1.359 . S
C1539 C1537 1.417 . S
C1539 C1541 1.329 . S
C1539 H1558 0.930 . S
C1540 C1536 1.415 . S
C1540 C1541 1.437 . S
C1540 C1544 1.413 . S
C1541 C1539 1.329 . S
C1541 C1540 1.437 . S
C1541 H1563 0.929 . S
N1542 C1536 1.369 . S
N1542 C1543 1.338 . S
N1542 Gd1547 2.622 . S
C1543 N1542 1.338 . S
C1543 C1545 1.378 . S
C1543 H1555 0.929 . S
C1544 C1540 1.413 . S
C1544 C1545 1.348 . S
C1544 H1560 0.931 . S
C1545 C1543 1.378 . S
C1545 C1544 1.348 . S
C1545 H1561 0.930 . S
Gd1546 N1566 2.622 1_554 S
Gd1546 N1573 2.570 1_554 S
Gd1546 O1580 2.353 . S
Gd1546 O1581 2.468 . S
Gd1546 O1582 2.427 . S
Gd1546 O1584 2.388 . S
Gd1546 O1585 2.386 1_554 S
Gd1546 O1589 2.307 . S
Gd1546 C1599 2.805 . S
Gd1547 N1542 2.622 . S
Gd1547 N1548 2.570 . S
Gd1547 O1579 2.386 . S
Gd1547 O1583 2.307 . S
Gd1547 O1586 2.353 1_554 S
Gd1547 O1587 2.468 . S
Gd1547 O1588 2.427 . S
Gd1547 O1590 2.388 . S
Gd1547 C1611 2.805 . S
N1548 C1538 1.359 . S
N1548 Gd1547 2.570 . S
N1548 C1550 1.343 . S
C1549 C1537 1.422 . S
C1549 C1551 1.321 . S
C1549 H1557 0.931 . S
C1550 N1548 1.343 . S
C1550 C1551 1.390 . S
C1550 H1552 0.931 . S
C1551 C1549 1.321 . S
C1551 C1550 1.390 . S
C1551 H1553 0.930 . S
H1552 C1550 0.931 . S
H1553 C1551 0.930 . S
H1554 C1577 0.882 1_554 S
H1555 C1543 0.929 . S
H1556 C1578 0.930 . S
H1557 C1549 0.931 . S
H1558 C1539 0.930 . S
H1559 C1568 0.929 1_554 S
H1560 C1544 0.931 . S
H1561 C1545 0.930 . S
H1562 C1600 0.930 . S
H1563 C1541 0.929 . S
H1564 C1569 0.931 . S
H1565 C1570 0.930 . S
N1566 Gd1546 2.622 1_556 S
N1566 C1567 1.369 . S
N1566 C1568 1.338 . S
C1567 N1566 1.369 . S
C1567 C1571 1.415 . S
C1567 C1574 1.422 . S
C1568 H1559 0.929 1_556 S
C1568 N1566 1.338 . S
C1568 C1570 1.378 . S
C1569 H1564 0.931 . S
C1569 C1570 1.348 . S
C1569 C1571 1.413 . S
C1570 H1565 0.930 . S
C1570 C1568 1.378 . S
C1570 C1569 1.348 . S
C1571 C1567 1.415 . S
C1571 C1569 1.413 . S
C1571 C1601 1.437 . S
H1572 C1601 0.929 . S
N1573 Gd1546 2.570 1_556 S
N1573 C1574 1.359 . S
N1573 C1577 1.343 . S
C1574 C1567 1.422 . S
C1574 N1573 1.359 . S
C1574 C1576 1.421 . S
C1575 C1576 1.422 . S
C1575 C1578 1.321 . S
C1575 H1602 0.931 . S
C1576 C1574 1.421 . S
C1576 C1575 1.422 . S
C1576 C1600 1.417 . S
C1577 H1554 0.882 1_556 S
C1577 N1573 1.343 . S
C1577 C1578 1.390 . S
C1578 H1556 0.930 . S
C1578 C1575 1.321 . S
C1578 C1577 1.390 . S
O1579 Gd1547 2.386 . S
O1579 C1591 1.265 . S
O1580 Gd1546 2.353 . S
O1580 C1591 1.242 . S
O1581 Gd1546 2.468 . S
O1581 C1599 1.263 . S
O1582 Gd1546 2.427 . S
O1582 C1599 1.252 . S
O1583 Gd1547 2.307 . S
O1583 C1592 1.261 . S
O1584 Gd1546 2.388 . S
O1584 C1592 1.252 . S
O1585 Gd1546 2.386 1_556 S
O1585 C1603 1.265 . S
O1586 Gd1547 2.353 1_556 S
O1586 C1603 1.242 . S
O1587 Gd1547 2.468 . S
O1587 C1611 1.263 . S
O1588 Gd1547 2.427 . S
O1588 C1611 1.252 . S
O1589 Gd1546 2.307 . S
O1589 C1604 1.261 . S
O1590 Gd1547 2.388 . S
O1590 C1604 1.252 . S
C1591 O1579 1.265 . S
C1591 O1580 1.242 . S
C1592 O1583 1.261 . S
C1592 O1584 1.252 . S
C1593 C1596 1.394 . S
C1593 C1598 1.370 . S
C1593 C1599 1.500 . S
C1594 C1597 1.383 . S
C1594 C1598 1.395 . S
C1595 C1596 1.396 . S
C1595 C1597 1.365 . S
C1595 H1612 0.929 . S
C1596 C1593 1.394 . S
C1596 C1595 1.396 . S
C1596 H1613 0.930 . S
C1597 C1594 1.383 . S
C1597 C1595 1.365 . S
C1597 H1614 0.931 . S
C1598 C1593 1.370 . S
C1598 C1594 1.395 . S
C1598 H1615 0.930 . S
C1599 Gd1546 2.805 . S
C1599 O1581 1.263 . S
C1599 O1582 1.252 . S
C1599 C1593 1.500 . S
C1600 H1562 0.930 . S
C1600 C1576 1.417 . S
C1600 C1601 1.329 . S
C1601 C1571 1.437 . S
C1601 H1572 0.929 . S
C1601 C1600 1.329 . S
H1602 C1575 0.931 . S
C1603 O1585 1.265 . S
C1603 O1586 1.242 . S
C1604 O1589 1.261 . S
C1604 O1590 1.252 . S
C1605 C1608 1.394 . S
C1605 C1610 1.370 . S
C1605 C1611 1.500 1_556 S
C1606 C1609 1.383 . S
C1606 C1610 1.395 . S
C1607 C1608 1.396 . S
C1607 C1609 1.365 . S
C1607 H1616 0.929 . S
C1608 C1605 1.394 . S
C1608 C1607 1.396 . S
C1608 H1617 0.930 . S
C1609 C1606 1.383 . S
C1609 C1607 1.365 . S
C1609 H1618 0.931 . S
C1610 C1605 1.370 . S
C1610 C1606 1.395 . S
C1610 H1619 0.930 . S
C1611 Gd1547 2.805 . S
C1611 O1587 1.263 . S
C1611 O1588 1.252 . S
C1611 C1605 1.500 1_554 S
H1612 C1595 0.929 . S
H1613 C1596 0.930 . S
H1614 C1597 0.931 . S
H1615 C1598 0.930 . S
H1616 C1607 0.929 . S
H1617 C1608 0.930 . S
H1618 C1609 0.931 . S
H1619 C1610 0.930 . S
C1620 C1622 1.422 . S
C1620 C1624 1.415 . S
C1620 N1626 1.369 . S
C1621 C1622 1.421 . S
C1621 C1623 1.417 . S
C1621 C1633 1.422 . S
C1622 C1620 1.422 . S
C1622 C1621 1.421 . S
C1622 N1632 1.359 . S
C1623 C1621 1.417 . S
C1623 C1625 1.329 . S
C1623 H1642 0.930 . S
C1624 C1620 1.415 . S
C1624 C1625 1.437 . S
C1624 C1628 1.413 . S
C1625 C1623 1.329 . S
C1625 C1624 1.437 . S
C1625 H1647 0.929 . S
N1626 C1620 1.369 . S
N1626 C1627 1.338 . S
N1626 Gd1631 2.622 . S
C1627 N1626 1.338 . S
C1627 C1629 1.378 . S
C1627 H1639 0.929 . S
C1628 C1624 1.413 . S
C1628 C1629 1.348 . S
C1628 H1644 0.931 . S
C1629 C1627 1.378 . S
C1629 C1628 1.348 . S
C1629 H1645 0.930 . S
Gd1630 N1650 2.622 . S
Gd1630 N1657 2.570 . S
Gd1630 O1664 2.353 . S
Gd1630 O1665 2.468 . S
Gd1630 O1666 2.427 . S
Gd1630 O1668 2.388 . S
Gd1630 O1669 2.386 . S
Gd1630 O1673 2.307 . S
Gd1630 C1683 2.805 . S
Gd1631 N1626 2.622 . S
Gd1631 N1632 2.570 . S
Gd1631 O1663 2.386 . S
Gd1631 O1667 2.307 . S
Gd1631 O1670 2.353 . S
Gd1631 O1671 2.468 . S
Gd1631 O1672 2.427 . S
Gd1631 O1674 2.388 . S
Gd1631 C1695 2.805 . S
N1632 C1622 1.359 . S
N1632 Gd1631 2.570 . S
N1632 C1634 1.343 . S
C1633 C1621 1.422 . S
C1633 C1635 1.321 . S
C1633 H1641 0.931 . S
C1634 N1632 1.343 . S
C1634 C1635 1.390 . S
C1634 H1636 0.931 . S
C1635 C1633 1.321 . S
C1635 C1634 1.390 . S
C1635 H1637 0.930 . S
H1636 C1634 0.931 . S
H1637 C1635 0.930 . S
H1638 C1661 0.931 . S
H1639 C1627 0.929 . S
H1640 C1662 0.930 . S
H1641 C1633 0.931 . S
H1642 C1623 0.930 . S
H1643 C1652 0.929 . S
H1644 C1628 0.931 . S
H1645 C1629 0.930 . S
H1646 C1684 0.930 . S
H1647 C1625 0.929 . S
H1648 C1653 0.931 . S
H1649 C1654 0.930 . S
N1650 Gd1630 2.622 . S
N1650 C1651 1.369 . S
N1650 C1652 1.338 . S
C1651 N1650 1.369 . S
C1651 C1655 1.415 . S
C1651 C1658 1.422 . S
C1652 H1643 0.929 . S
C1652 N1650 1.338 . S
C1652 C1654 1.378 . S
C1653 H1648 0.931 . S
C1653 C1654 1.348 . S
C1653 C1655 1.413 . S
C1654 H1649 0.930 . S
C1654 C1652 1.378 . S
C1654 C1653 1.348 . S
C1655 C1651 1.415 . S
C1655 C1653 1.413 . S
C1655 C1685 1.437 . S
H1656 C1685 0.929 . S
N1657 Gd1630 2.570 . S
N1657 C1658 1.359 . S
N1657 C1661 1.343 . S
C1658 C1651 1.422 . S
C1658 N1657 1.359 . S
C1658 C1660 1.421 . S
C1659 C1660 1.422 . S
C1659 C1662 1.321 . S
C1659 H1686 0.931 . S
C1660 C1658 1.421 . S
C1660 C1659 1.422 . S
C1660 C1684 1.417 . S
C1661 H1638 0.931 . S
C1661 N1657 1.343 . S
C1661 C1662 1.390 . S
C1662 H1640 0.930 . S
C1662 C1659 1.321 . S
C1662 C1661 1.390 . S
O1663 Gd1631 2.386 . S
O1663 C1675 1.265 . S
O1664 Gd1630 2.353 . S
O1664 C1675 1.242 . S
O1665 Gd1630 2.468 . S
O1665 C1683 1.263 . S
O1666 Gd1630 2.427 . S
O1666 C1683 1.252 . S
O1667 Gd1631 2.307 . S
O1667 C1676 1.261 . S
O1668 Gd1630 2.388 . S
O1668 C1676 1.252 . S
O1669 Gd1630 2.386 . S
O1669 C1687 1.265 . S
O1670 Gd1631 2.353 . S
O1670 C1687 1.242 . S
O1671 Gd1631 2.468 . S
O1671 C1695 1.263 . S
O1672 Gd1631 2.427 . S
O1672 C1695 1.252 . S
O1673 Gd1630 2.307 . S
O1673 C1688 1.261 . S
O1674 Gd1631 2.388 . S
O1674 C1688 1.252 . S
C1675 O1663 1.265 . S
C1675 O1664 1.242 . S
C1676 O1667 1.261 . S
C1676 O1668 1.252 . S
C1677 C1680 1.394 . S
C1677 C1682 1.370 . S
C1677 C1683 1.500 . S
C1678 C1681 1.383 . S
C1678 C1682 1.395 . S
C1679 C1680 1.396 . S
C1679 C1681 1.365 . S
C1679 H1696 0.929 . S
C1680 C1677 1.394 . S
C1680 C1679 1.396 . S
C1680 H1697 0.930 . S
C1681 C1678 1.383 . S
C1681 C1679 1.365 . S
C1681 H1698 0.931 . S
C1682 C1677 1.370 . S
C1682 C1678 1.395 . S
C1682 H1699 0.930 . S
C1683 Gd1630 2.805 . S
C1683 O1665 1.263 . S
C1683 O1666 1.252 . S
C1683 C1677 1.500 . S
C1684 H1646 0.930 . S
C1684 C1660 1.417 . S
C1684 C1685 1.329 . S
C1685 C1655 1.437 . S
C1685 H1656 0.929 . S
C1685 C1684 1.329 . S
H1686 C1659 0.931 . S
C1687 O1669 1.265 . S
C1687 O1670 1.242 . S
C1688 O1673 1.261 . S
C1688 O1674 1.252 . S
C1689 C1692 1.394 . S
C1689 C1694 1.370 . S
C1689 C1695 1.500 . S
C1690 C1693 1.383 . S
C1690 C1694 1.395 . S
C1691 C1692 1.396 . S
C1691 C1693 1.365 . S
C1691 H1700 0.929 . S
C1692 C1689 1.394 . S
C1692 C1691 1.396 . S
C1692 H1701 0.930 . S
C1693 C1690 1.383 . S
C1693 C1691 1.365 . S
C1693 H1702 0.931 . S
C1694 C1689 1.370 . S
C1694 C1690 1.395 . S
C1694 H1703 0.930 . S
C1695 Gd1631 2.805 . S
C1695 O1671 1.263 . S
C1695 O1672 1.252 . S
C1695 C1689 1.500 . S
H1696 C1679 0.929 . S
H1697 C1680 0.930 . S
H1698 C1681 0.931 . S
H1699 C1682 0.930 . S
H1700 C1691 0.929 . S
H1701 C1692 0.930 . S
H1702 C1693 0.931 . S
H1703 C1694 0.930 . S
C1704 C1706 1.422 . S
C1704 C1708 1.415 . S
C1704 N1710 1.369 . S
C1705 C1706 1.421 . S
C1705 C1707 1.417 . S
C1705 C1717 1.422 . S
C1706 C1704 1.422 . S
C1706 C1705 1.421 . S
C1706 N1716 1.359 . S
C1707 C1705 1.417 . S
C1707 C1709 1.329 . S
C1707 H1726 0.930 . S
C1708 C1704 1.415 . S
C1708 C1709 1.437 . S
C1708 C1712 1.413 . S
C1709 C1707 1.329 . S
C1709 C1708 1.437 . S
C1709 H1731 0.929 . S
N1710 C1704 1.369 . S
N1710 C1711 1.338 . S
N1710 Gd1715 2.622 . S
C1711 N1710 1.338 . S
C1711 C1713 1.378 . S
C1711 H1723 0.929 . S
C1712 C1708 1.413 . S
C1712 C1713 1.348 . S
C1712 H1728 0.931 . S
C1713 C1711 1.378 . S
C1713 C1712 1.348 . S
C1713 H1729 0.930 . S
Gd1714 N1734 2.620 1_455 S
Gd1714 N1741 2.570 1_455 S
Gd1714 O1748 2.353 . S
Gd1714 O1749 2.468 . S
Gd1714 O1750 2.427 . S
Gd1714 O1752 2.388 . S
Gd1714 O1753 2.386 1_455 S
Gd1714 O1757 2.307 . S
Gd1714 C1767 2.805 . S
Gd1715 N1710 2.622 . S
Gd1715 N1716 2.570 . S
Gd1715 O1747 2.386 . S
Gd1715 O1751 2.307 . S
Gd1715 O1754 2.295 1_455 S
Gd1715 O1755 2.468 . S
Gd1715 O1756 2.427 . S
Gd1715 O1758 2.388 . S
Gd1715 C1779 2.805 . S
N1716 C1706 1.359 . S
N1716 Gd1715 2.570 . S
N1716 C1718 1.343 . S
C1717 C1705 1.422 . S
C1717 C1719 1.321 . S
C1717 H1725 0.931 . S
C1718 N1716 1.343 . S
C1718 C1719 1.390 . S
C1718 H1720 0.931 . S
C1719 C1717 1.321 . S
C1719 C1718 1.390 . S
C1719 H1721 0.930 . S
H1720 C1718 0.931 . S
H1721 C1719 0.930 . S
H1722 C1745 0.931 1_455 S
H1723 C1711 0.929 . S
H1724 C1746 0.930 . S
H1725 C1717 0.931 . S
H1726 C1707 0.930 . S
H1727 C1736 0.960 . S
H1728 C1712 0.931 . S
H1729 C1713 0.930 . S
H1730 C1768 0.930 . S
H1731 C1709 0.929 . S
H1732 C1737 0.931 . S
H1733 C1738 0.930 . S
N1734 Gd1714 2.620 1_655 S
N1734 C1735 1.371 . S
N1734 C1736 1.347 1_655 S
C1735 N1734 1.371 . S
C1735 C1739 1.415 . S
C1735 C1742 1.422 . S
C1736 H1727 0.960 . S
C1736 N1734 1.347 1_455 S
C1736 C1738 1.341 1_455 S
C1737 H1732 0.931 . S
C1737 C1738 1.348 . S
C1737 C1739 1.413 . S
C1738 H1733 0.930 . S
C1738 C1736 1.341 1_655 S
C1738 C1737 1.348 . S
C1739 C1735 1.415 . S
C1739 C1737 1.413 . S
C1739 C1769 1.437 . S
H1740 C1769 0.929 . S
N1741 Gd1714 2.570 1_655 S
N1741 C1742 1.359 . S
N1741 C1745 1.343 . S
C1742 C1735 1.422 . S
C1742 N1741 1.359 . S
C1742 C1744 1.421 . S
C1743 C1744 1.422 . S
C1743 C1746 1.321 . S
C1743 H1770 0.931 . S
C1744 C1742 1.421 . S
C1744 C1743 1.422 . S
C1744 C1768 1.417 . S
C1745 H1722 0.931 1_655 S
C1745 N1741 1.343 . S
C1745 C1746 1.390 . S
C1746 H1724 0.930 . S
C1746 C1743 1.321 . S
C1746 C1745 1.390 . S
O1747 Gd1715 2.386 . S
O1747 C1759 1.265 . S
O1748 Gd1714 2.353 . S
O1748 C1759 1.242 . S
O1749 Gd1714 2.468 . S
O1749 C1767 1.263 . S
O1750 Gd1714 2.427 . S
O1750 C1767 1.252 . S
O1751 Gd1715 2.307 . S
O1751 C1760 1.261 . S
O1752 Gd1714 2.388 . S
O1752 C1760 1.252 . S
O1753 Gd1714 2.386 1_655 S
O1753 C1771 1.265 . S
O1754 Gd1715 2.295 1_655 S
O1754 C1771 1.278 . S
O1755 Gd1715 2.468 . S
O1755 C1779 1.263 . S
O1756 Gd1715 2.427 . S
O1756 C1779 1.252 . S
O1757 Gd1714 2.307 . S
O1757 C1772 1.261 . S
O1758 Gd1715 2.388 . S
O1758 C1772 1.252 . S
C1759 O1747 1.265 . S
C1759 O1748 1.242 . S
C1760 O1751 1.261 . S
C1760 O1752 1.252 . S
C1761 C1764 1.394 . S
C1761 C1766 1.370 . S
C1761 C1767 1.500 . S
C1762 C1765 1.383 . S
C1762 C1766 1.395 . S
C1763 C1764 1.396 . S
C1763 C1765 1.365 . S
C1763 H1780 0.929 . S
C1764 C1761 1.394 . S
C1764 C1763 1.396 . S
C1764 H1781 0.930 . S
C1765 C1762 1.383 . S
C1765 C1763 1.365 . S
C1765 H1782 0.931 . S
C1766 C1761 1.370 . S
C1766 C1762 1.395 . S
C1766 H1783 0.930 . S
C1767 Gd1714 2.805 . S
C1767 O1749 1.263 . S
C1767 O1750 1.252 . S
C1767 C1761 1.500 . S
C1768 H1730 0.930 . S
C1768 C1744 1.417 . S
C1768 C1769 1.329 . S
C1769 C1739 1.437 . S
C1769 H1740 0.929 . S
C1769 C1768 1.329 . S
H1770 C1743 0.931 . S
C1771 O1753 1.265 . S
C1771 O1754 1.278 . S
C1772 O1757 1.261 . S
C1772 O1758 1.252 . S
C1773 C1776 1.394 . S
C1773 C1778 1.370 . S
C1773 C1779 1.500 1_655 S
C1774 C1777 1.383 . S
C1774 C1778 1.395 . S
C1775 C1776 1.396 . S
C1775 C1777 1.365 . S
C1775 H1784 0.929 . S
C1776 C1773 1.394 . S
C1776 C1775 1.396 . S
C1776 H1785 0.938 . S
C1777 C1774 1.383 . S
C1777 C1775 1.365 . S
C1777 H1786 0.931 . S
C1778 C1773 1.370 . S
C1778 C1774 1.395 . S
C1778 H1787 0.930 . S
C1779 Gd1715 2.805 . S
C1779 O1755 1.263 . S
C1779 O1756 1.252 . S
C1779 C1773 1.500 1_455 S
H1780 C1763 0.929 . S
H1781 C1764 0.930 . S
H1782 C1765 0.931 . S
H1783 C1766 0.930 . S
H1784 C1775 0.929 . S
H1785 C1776 0.938 . S
H1786 C1777 0.931 . S
H1787 C1778 0.930 . S
C1788 C1790 1.422 . S
C1788 C1792 1.415 . S
C1788 N1794 1.369 . S
C1789 C1790 1.421 . S
C1789 C1791 1.417 . S
C1789 C1801 1.422 . S
C1790 C1788 1.422 . S
C1790 C1789 1.421 . S
C1790 N1800 1.359 . S
C1791 C1789 1.417 . S
C1791 C1793 1.329 . S
C1791 H1810 0.930 . S
C1792 C1788 1.415 . S
C1792 C1793 1.437 . S
C1792 C1796 1.413 . S
C1793 C1791 1.329 . S
C1793 C1792 1.437 . S
C1793 H1815 0.929 . S
N1794 C1788 1.369 . S
N1794 C1795 1.338 . S
N1794 Gd1799 2.622 . S
C1795 N1794 1.338 . S
C1795 C1797 1.378 . S
C1795 H1807 0.929 . S
C1796 C1792 1.413 . S
C1796 C1797 1.348 . S
C1796 H1812 0.931 . S
C1797 C1795 1.378 . S
C1797 C1796 1.348 . S
C1797 H1813 0.930 . S
Gd1798 N1818 2.622 . S
Gd1798 N1825 2.570 . S
Gd1798 O1832 2.353 . S
Gd1798 O1833 2.468 . S
Gd1798 O1834 2.427 . S
Gd1798 O1836 2.388 . S
Gd1798 O1837 2.386 . S
Gd1798 O1841 2.307 . S
Gd1798 C1851 2.805 . S
Gd1799 N1794 2.622 . S
Gd1799 N1800 2.570 . S
Gd1799 O1831 2.386 . S
Gd1799 O1835 2.307 . S
Gd1799 O1838 2.353 . S
Gd1799 O1839 2.468 . S
Gd1799 O1840 2.427 . S
Gd1799 O1842 2.388 . S
Gd1799 C1863 2.805 . S
N1800 C1790 1.359 . S
N1800 Gd1799 2.570 . S
N1800 C1802 1.343 . S
C1801 C1789 1.422 . S
C1801 C1803 1.321 . S
C1801 H1809 0.931 . S
C1802 N1800 1.343 . S
C1802 C1803 1.390 . S
C1802 H1804 0.931 . S
C1803 C1801 1.321 . S
C1803 C1802 1.390 . S
C1803 H1805 0.930 . S
H1804 C1802 0.931 . S
H1805 C1803 0.930 . S
H1806 C1829 0.931 . S
H1807 C1795 0.929 . S
H1808 C1830 0.930 . S
H1809 C1801 0.931 . S
H1810 C1791 0.930 . S
H1811 C1820 0.929 . S
H1812 C1796 0.931 . S
H1813 C1797 0.930 . S
H1814 C1852 0.930 . S
H1815 C1793 0.929 . S
H1816 C1821 0.931 . S
H1817 C1822 0.930 . S
N1818 Gd1798 2.622 . S
N1818 C1819 1.369 . S
N1818 C1820 1.338 . S
C1819 N1818 1.369 . S
C1819 C1823 1.415 . S
C1819 C1826 1.422 . S
C1820 H1811 0.929 . S
C1820 N1818 1.338 . S
C1820 C1822 1.378 . S
C1821 H1816 0.931 . S
C1821 C1822 1.348 . S
C1821 C1823 1.413 . S
C1822 H1817 0.930 . S
C1822 C1820 1.378 . S
C1822 C1821 1.348 . S
C1823 C1819 1.415 . S
C1823 C1821 1.413 . S
C1823 C1853 1.437 . S
H1824 C1853 0.929 . S
N1825 Gd1798 2.570 . S
N1825 C1826 1.359 . S
N1825 C1829 1.343 . S
C1826 C1819 1.422 . S
C1826 N1825 1.359 . S
C1826 C1828 1.421 . S
C1827 C1828 1.422 . S
C1827 C1830 1.321 . S
C1827 H1854 0.931 . S
C1828 C1826 1.421 . S
C1828 C1827 1.422 . S
C1828 C1852 1.417 . S
C1829 H1806 0.931 . S
C1829 N1825 1.343 . S
C1829 C1830 1.390 . S
C1830 H1808 0.930 . S
C1830 C1827 1.321 . S
C1830 C1829 1.390 . S
O1831 Gd1799 2.386 . S
O1831 C1843 1.265 . S
O1832 Gd1798 2.353 . S
O1832 C1843 1.242 . S
O1833 Gd1798 2.468 . S
O1833 C1851 1.263 . S
O1834 Gd1798 2.427 . S
O1834 C1851 1.252 . S
O1835 Gd1799 2.307 . S
O1835 C1844 1.261 . S
O1836 Gd1798 2.388 . S
O1836 C1844 1.252 . S
O1837 Gd1798 2.386 . S
O1837 C1855 1.265 . S
O1838 Gd1799 2.353 . S
O1838 C1855 1.242 . S
O1839 Gd1799 2.468 . S
O1839 C1863 1.263 . S
O1840 Gd1799 2.427 . S
O1840 C1863 1.252 . S
O1841 Gd1798 2.307 . S
O1841 C1856 1.261 . S
O1842 Gd1799 2.388 . S
O1842 C1856 1.252 . S
C1843 O1831 1.265 . S
C1843 O1832 1.242 . S
C1844 O1835 1.261 . S
C1844 O1836 1.252 . S
C1845 C1848 1.394 . S
C1845 C1850 1.370 . S
C1845 C1851 1.500 . S
C1846 C1849 1.383 . S
C1846 C1850 1.395 . S
C1847 C1848 1.396 . S
C1847 C1849 1.365 . S
C1847 H1864 0.929 . S
C1848 C1845 1.394 . S
C1848 C1847 1.396 . S
C1848 H1865 0.930 . S
C1849 C1846 1.383 . S
C1849 C1847 1.365 . S
C1849 H1866 0.931 . S
C1850 C1845 1.370 . S
C1850 C1846 1.395 . S
C1850 H1867 0.930 . S
C1851 Gd1798 2.805 . S
C1851 O1833 1.263 . S
C1851 O1834 1.252 . S
C1851 C1845 1.500 . S
C1852 H1814 0.930 . S
C1852 C1828 1.417 . S
C1852 C1853 1.329 . S
C1853 C1823 1.437 . S
C1853 H1824 0.929 . S
C1853 C1852 1.329 . S
H1854 C1827 0.931 . S
C1855 O1837 1.265 . S
C1855 O1838 1.242 . S
C1856 O1841 1.261 . S
C1856 O1842 1.252 . S
C1857 C1860 1.394 . S
C1857 C1862 1.370 . S
C1857 C1863 1.500 . S
C1858 C1861 1.383 . S
C1858 C1862 1.395 . S
C1859 C1860 1.396 . S
C1859 C1861 1.365 . S
C1859 H1868 0.929 . S
C1860 C1857 1.394 . S
C1860 C1859 1.396 . S
C1860 H1869 0.930 . S
C1861 C1858 1.383 . S
C1861 C1859 1.365 . S
C1861 H1870 0.931 . S
C1862 C1857 1.370 . S
C1862 C1858 1.395 . S
C1862 H1871 0.930 . S
C1863 Gd1799 2.805 . S
C1863 O1839 1.263 . S
C1863 O1840 1.252 . S
C1863 C1857 1.500 . S
H1864 C1847 0.929 . S
H1865 C1848 0.930 . S
H1866 C1849 0.931 . S
H1867 C1850 0.930 . S
H1868 C1859 0.929 . S
H1869 C1860 0.930 . S
H1870 C1861 0.931 . S
H1871 C1862 0.930 . S
C1872 C1874 1.422 . S
C1872 C1876 1.415 . S
C1872 N1878 1.369 . S
C1873 C1874 1.421 . S
C1873 C1875 1.417 . S
C1873 C1885 1.422 . S
C1874 C1872 1.422 . S
C1874 C1873 1.421 . S
C1874 N1884 1.359 . S
C1875 C1873 1.417 . S
C1875 C1877 1.329 . S
C1875 H1894 0.930 . S
C1876 C1872 1.415 . S
C1876 C1877 1.437 . S
C1876 C1880 1.413 . S
C1877 C1875 1.329 . S
C1877 C1876 1.437 . S
C1877 H1899 0.929 . S
N1878 C1872 1.369 . S
N1878 C1879 1.338 . S
N1878 Gd1883 2.622 . S
C1879 N1878 1.338 . S
C1879 C1881 1.378 . S
C1879 H1891 0.929 . S
C1880 C1876 1.413 . S
C1880 C1881 1.348 . S
C1880 H1896 0.931 . S
C1881 C1879 1.378 . S
C1881 C1880 1.348 . S
C1881 H1897 0.930 . S
Gd1882 N1902 2.622 . S
Gd1882 N1909 2.570 . S
Gd1882 O1916 2.353 . S
Gd1882 O1917 2.468 . S
Gd1882 O1918 2.427 . S
Gd1882 O1920 2.388 . S
Gd1882 O1921 2.386 . S
Gd1882 O1925 2.307 . S
Gd1882 C1935 2.805 . S
Gd1883 N1878 2.622 . S
Gd1883 N1884 2.570 . S
Gd1883 O1915 2.386 . S
Gd1883 O1919 2.307 . S
Gd1883 O1922 2.353 . S
Gd1883 O1923 2.468 . S
Gd1883 O1924 2.427 . S
Gd1883 O1926 2.388 . S
Gd1883 C1947 2.805 . S
N1884 C1874 1.359 . S
N1884 Gd1883 2.570 . S
N1884 C1886 1.343 . S
C1885 C1873 1.422 . S
C1885 C1887 1.321 . S
C1885 H1893 0.931 . S
C1886 N1884 1.343 . S
C1886 C1887 1.390 . S
C1886 H1888 0.931 . S
C1887 C1885 1.321 . S
C1887 C1886 1.390 . S
C1887 H1889 0.930 . S
H1888 C1886 0.931 . S
H1889 C1887 0.930 . S
H1890 C1913 0.931 . S
H1891 C1879 0.929 . S
H1892 C1914 0.930 . S
H1893 C1885 0.931 . S
H1894 C1875 0.930 . S
H1895 C1904 0.929 . S
H1896 C1880 0.931 . S
H1897 C1881 0.930 . S
H1898 C1936 0.930 . S
H1899 C1877 0.929 . S
H1900 C1905 0.931 . S
H1901 C1906 0.930 . S
N1902 Gd1882 2.622 . S
N1902 C1903 1.369 . S
N1902 C1904 1.338 . S
C1903 N1902 1.369 . S
C1903 C1907 1.415 . S
C1903 C1910 1.422 . S
C1904 H1895 0.929 . S
C1904 N1902 1.338 . S
C1904 C1906 1.378 . S
C1905 H1900 0.931 . S
C1905 C1906 1.348 . S
C1905 C1907 1.413 . S
C1906 H1901 0.930 . S
C1906 C1904 1.378 . S
C1906 C1905 1.348 . S
C1907 C1903 1.415 . S
C1907 C1905 1.413 . S
C1907 C1937 1.437 . S
H1908 C1937 0.929 . S
N1909 Gd1882 2.570 . S
N1909 C1910 1.359 . S
N1909 C1913 1.343 . S
C1910 C1903 1.422 . S
C1910 N1909 1.359 . S
C1910 C1912 1.421 . S
C1911 C1912 1.422 . S
C1911 C1914 1.321 . S
C1911 H1938 0.931 . S
C1912 C1910 1.421 . S
C1912 C1911 1.422 . S
C1912 C1936 1.417 . S
C1913 H1890 0.931 . S
C1913 N1909 1.343 . S
C1913 C1914 1.390 . S
C1914 H1892 0.930 . S
C1914 C1911 1.321 . S
C1914 C1913 1.390 . S
O1915 Gd1883 2.386 . S
O1915 C1927 1.265 . S
O1916 Gd1882 2.353 . S
O1916 C1927 1.242 . S
O1917 Gd1882 2.468 . S
O1917 C1935 1.263 . S
O1918 Gd1882 2.427 . S
O1918 C1935 1.252 . S
O1919 Gd1883 2.307 . S
O1919 C1928 1.261 . S
O1920 Gd1882 2.388 . S
O1920 C1928 1.252 . S
O1921 Gd1882 2.386 . S
O1921 C1939 1.265 . S
O1922 Gd1883 2.353 . S
O1922 C1939 1.242 . S
O1923 Gd1883 2.468 . S
O1923 C1947 1.263 . S
O1924 Gd1883 2.427 . S
O1924 C1947 1.252 . S
O1925 Gd1882 2.307 . S
O1925 C1940 1.261 . S
O1926 Gd1883 2.388 . S
O1926 C1940 1.252 . S
C1927 O1915 1.265 . S
C1927 O1916 1.242 . S
C1928 O1919 1.261 . S
C1928 O1920 1.252 . S
C1929 C1932 1.394 . S
C1929 C1934 1.370 . S
C1929 C1935 1.500 . S
C1930 C1933 1.383 . S
C1930 C1934 1.395 . S
C1931 C1932 1.396 . S
C1931 C1933 1.365 . S
C1931 H1948 0.929 . S
C1932 C1929 1.394 . S
C1932 C1931 1.396 . S
C1932 H1949 0.930 . S
C1933 C1930 1.383 . S
C1933 C1931 1.365 . S
C1933 H1950 0.931 . S
C1934 C1929 1.370 . S
C1934 C1930 1.395 . S
C1934 H1951 0.930 . S
C1935 Gd1882 2.805 . S
C1935 O1917 1.263 . S
C1935 O1918 1.252 . S
C1935 C1929 1.500 . S
C1936 H1898 0.930 . S
C1936 C1912 1.417 . S
C1936 C1937 1.329 . S
C1937 C1907 1.437 . S
C1937 H1908 0.929 . S
C1937 C1936 1.329 . S
H1938 C1911 0.931 . S
C1939 O1921 1.265 . S
C1939 O1922 1.242 . S
C1940 O1925 1.261 . S
C1940 O1926 1.252 . S
C1941 C1944 1.394 . S
C1941 C1946 1.370 . S
C1941 C1947 1.500 . S
C1942 C1945 1.383 . S
C1942 C1946 1.395 . S
C1943 C1944 1.396 . S
C1943 C1945 1.365 . S
C1943 H1952 0.929 . S
C1944 C1941 1.394 . S
C1944 C1943 1.396 . S
C1944 H1953 0.930 . S
C1945 C1942 1.383 . S
C1945 C1943 1.365 . S
C1945 H1954 0.931 . S
C1946 C1941 1.370 . S
C1946 C1942 1.395 . S
C1946 H1955 0.930 . S
C1947 Gd1883 2.805 . S
C1947 O1923 1.263 . S
C1947 O1924 1.252 . S
C1947 C1941 1.500 . S
H1948 C1931 0.929 . S
H1949 C1932 0.930 . S
H1950 C1933 0.931 . S
H1951 C1934 0.930 . S
H1952 C1943 0.929 . S
H1953 C1944 0.930 . S
H1954 C1945 0.931 . S
H1955 C1946 0.930 . S
C1956 C1958 1.422 . S
C1956 C1960 1.415 . S
C1956 N1962 1.369 . S
C1957 C1958 1.421 . S
C1957 C1959 1.417 . S
C1957 C1969 1.422 . S
C1958 C1956 1.422 . S
C1958 C1957 1.421 . S
C1958 N1968 1.359 . S
C1959 C1957 1.417 . S
C1959 C1961 1.329 . S
C1959 H1978 0.930 . S
C1960 C1956 1.415 . S
C1960 C1961 1.437 . S
C1960 C1964 1.413 . S
C1961 C1959 1.329 . S
C1961 C1960 1.437 . S
C1961 H1983 0.929 . S
N1962 C1956 1.369 . S
N1962 C1963 1.338 . S
N1962 Gd1967 2.622 . S
C1963 N1962 1.338 . S
C1963 C1965 1.378 . S
C1963 H1975 0.929 . S
C1964 C1960 1.413 . S
C1964 C1965 1.348 . S
C1964 H1980 0.931 . S
C1965 C1963 1.378 . S
C1965 C1964 1.348 . S
C1965 H1981 0.930 . S
Gd1966 N1986 2.622 . S
Gd1966 N1993 2.570 . S
Gd1966 O2000 2.353 . S
Gd1966 O2001 2.468 . S
Gd1966 O2002 2.427 . S
Gd1966 O2004 2.388 . S
Gd1966 O2005 2.386 . S
Gd1966 O2009 2.307 . S
Gd1966 C2019 2.805 . S
Gd1967 N1962 2.622 . S
Gd1967 N1968 2.570 . S
Gd1967 O1999 2.386 . S
Gd1967 O2003 2.307 . S
Gd1967 O2006 2.353 . S
Gd1967 O2007 2.468 . S
Gd1967 O2008 2.427 . S
Gd1967 O2010 2.388 . S
Gd1967 C2031 2.805 . S
N1968 C1958 1.359 . S
N1968 Gd1967 2.570 . S
N1968 C1970 1.343 . S
C1969 C1957 1.422 . S
C1969 C1971 1.321 . S
C1969 H1977 0.931 . S
C1970 N1968 1.343 . S
C1970 C1971 1.390 . S
C1970 H1972 0.931 . S
C1971 C1969 1.321 . S
C1971 C1970 1.390 . S
C1971 H1973 0.930 . S
H1972 C1970 0.931 . S
H1973 C1971 0.930 . S
H1974 C1997 0.931 . S
H1975 C1963 0.929 . S
H1976 C1998 0.930 . S
H1977 C1969 0.931 . S
H1978 C1959 0.930 . S
H1979 C1988 0.929 . S
H1980 C1964 0.931 . S
H1981 C1965 0.930 . S
H1982 C2020 0.930 . S
H1983 C1961 0.929 . S
H1984 C1989 0.931 . S
H1985 C1990 0.930 . S
N1986 Gd1966 2.622 . S
N1986 C1987 1.369 . S
N1986 C1988 1.338 . S
C1987 N1986 1.369 . S
C1987 C1991 1.415 . S
C1987 C1994 1.422 . S
C1988 H1979 0.929 . S
C1988 N1986 1.338 . S
C1988 C1990 1.378 . S
C1989 H1984 0.931 . S
C1989 C1990 1.348 . S
C1989 C1991 1.413 . S
C1990 H1985 0.930 . S
C1990 C1988 1.378 . S
C1990 C1989 1.348 . S
C1991 C1987 1.415 . S
C1991 C1989 1.413 . S
C1991 C2021 1.437 . S
H1992 C2021 0.929 . S
N1993 Gd1966 2.570 . S
N1993 C1994 1.359 . S
N1993 C1997 1.343 . S
C1994 C1987 1.422 . S
C1994 N1993 1.359 . S
C1994 C1996 1.421 . S
C1995 C1996 1.422 . S
C1995 C1998 1.321 . S
C1995 H2022 0.931 . S
C1996 C1994 1.421 . S
C1996 C1995 1.422 . S
C1996 C2020 1.417 . S
C1997 H1974 0.931 . S
C1997 N1993 1.343 . S
C1997 C1998 1.390 . S
C1998 H1976 0.930 . S
C1998 C1995 1.321 . S
C1998 C1997 1.390 . S
O1999 Gd1967 2.386 . S
O1999 C2011 1.265 . S
O2000 Gd1966 2.353 . S
O2000 C2011 1.242 . S
O2001 Gd1966 2.468 . S
O2001 C2019 1.263 . S
O2002 Gd1966 2.427 . S
O2002 C2019 1.252 . S
O2003 Gd1967 2.307 . S
O2003 C2012 1.261 . S
O2004 Gd1966 2.388 . S
O2004 C2012 1.252 . S
O2005 Gd1966 2.386 . S
O2005 C2023 1.265 . S
O2006 Gd1967 2.353 . S
O2006 C2023 1.242 . S
O2007 Gd1967 2.468 . S
O2007 C2031 1.263 . S
O2008 Gd1967 2.427 . S
O2008 C2031 1.252 . S
O2009 Gd1966 2.307 . S
O2009 C2024 1.261 . S
O2010 Gd1967 2.388 . S
O2010 C2024 1.252 . S
C2011 O1999 1.265 . S
C2011 O2000 1.242 . S
C2012 O2003 1.261 . S
C2012 O2004 1.252 . S
C2013 C2016 1.394 . S
C2013 C2018 1.370 . S
C2013 C2019 1.500 . S
C2014 C2017 1.383 . S
C2014 C2018 1.395 . S
C2015 C2016 1.396 . S
C2015 C2017 1.365 . S
C2015 H2032 0.929 . S
C2016 C2013 1.394 . S
C2016 C2015 1.396 . S
C2016 H2033 0.930 . S
C2017 C2014 1.383 . S
C2017 C2015 1.365 . S
C2017 H2034 0.931 . S
C2018 C2013 1.370 . S
C2018 C2014 1.395 . S
C2018 H2035 0.930 . S
C2019 Gd1966 2.805 . S
C2019 O2001 1.263 . S
C2019 O2002 1.252 . S
C2019 C2013 1.500 . S
C2020 H1982 0.930 . S
C2020 C1996 1.417 . S
C2020 C2021 1.329 . S
C2021 C1991 1.437 . S
C2021 H1992 0.929 . S
C2021 C2020 1.329 . S
H2022 C1995 0.931 . S
C2023 O2005 1.265 . S
C2023 O2006 1.242 . S
C2024 O2009 1.261 . S
C2024 O2010 1.252 . S
C2025 C2028 1.394 . S
C2025 C2030 1.370 . S
C2025 C2031 1.500 . S
C2026 C2029 1.383 . S
C2026 C2030 1.395 . S
C2027 C2028 1.396 . S
C2027 C2029 1.365 . S
C2027 H2036 0.929 . S
C2028 C2025 1.394 . S
C2028 C2027 1.396 . S
C2028 H2037 0.930 . S
C2029 C2026 1.383 . S
C2029 C2027 1.365 . S
C2029 H2038 0.931 . S
C2030 C2025 1.370 . S
C2030 C2026 1.395 . S
C2030 H2039 0.930 . S
C2031 Gd1967 2.805 . S
C2031 O2007 1.263 . S
C2031 O2008 1.252 . S
C2031 C2025 1.500 . S
H2032 C2015 0.929 . S
H2033 C2016 0.930 . S
H2034 C2017 0.931 . S
H2035 C2018 0.930 . S
H2036 C2027 0.929 . S
H2037 C2028 0.930 . S
H2038 C2029 0.931 . S
H2039 C2030 0.930 . S
C2040 C2042 1.422 . S
C2040 C2044 1.415 . S
C2040 N2046 1.369 . S
C2041 C2042 1.421 . S
C2041 C2043 1.417 . S
C2041 C2053 1.422 . S
C2042 C2040 1.422 . S
C2042 C2041 1.421 . S
C2042 N2052 1.359 . S
C2043 C2041 1.417 . S
C2043 C2045 1.329 . S
C2043 H2062 0.930 . S
C2044 C2040 1.415 . S
C2044 C2045 1.437 . S
C2044 C2048 1.413 . S
C2045 C2043 1.329 . S
C2045 C2044 1.437 . S
C2045 H2067 0.929 . S
N2046 C2040 1.369 . S
N2046 C2047 1.338 . S
N2046 Gd2051 2.622 . S
C2047 N2046 1.338 . S
C2047 C2049 1.378 . S
C2047 H2059 0.929 . S
C2048 C2044 1.413 . S
C2048 C2049 1.348 . S
C2048 H2064 0.931 . S
C2049 C2047 1.378 . S
C2049 C2048 1.348 . S
C2049 H2065 0.930 . S
Gd2050 N2070 2.622 . S
Gd2050 N2077 2.570 . S
Gd2050 O2084 2.353 . S
Gd2050 O2085 2.468 . S
Gd2050 O2086 2.427 . S
Gd2050 O2088 2.388 . S
Gd2050 O2089 2.386 . S
Gd2050 O2093 2.307 . S
Gd2050 C2103 2.805 . S
Gd2051 N2046 2.622 . S
Gd2051 N2052 2.570 . S
Gd2051 O2083 2.386 . S
Gd2051 O2087 2.307 . S
Gd2051 O2090 2.353 . S
Gd2051 O2091 2.468 . S
Gd2051 O2092 2.427 . S
Gd2051 O2094 2.388 . S
Gd2051 C2115 2.805 . S
N2052 C2042 1.359 . S
N2052 Gd2051 2.570 . S
N2052 C2054 1.343 . S
C2053 C2041 1.422 . S
C2053 C2055 1.321 . S
C2053 H2061 0.931 . S
C2054 N2052 1.343 . S
C2054 C2055 1.390 . S
C2054 H2056 0.931 . S
C2055 C2053 1.321 . S
C2055 C2054 1.390 . S
C2055 H2057 0.930 . S
H2056 C2054 0.931 . S
H2057 C2055 0.930 . S
H2058 C2081 0.931 . S
H2059 C2047 0.929 . S
H2060 C2082 0.930 . S
H2061 C2053 0.931 . S
H2062 C2043 0.930 . S
H2063 C2072 0.929 . S
H2064 C2048 0.931 . S
H2065 C2049 0.930 . S
H2066 C2104 0.930 . S
H2067 C2045 0.929 . S
H2068 C2073 0.931 . S
H2069 C2074 0.930 . S
N2070 Gd2050 2.622 . S
N2070 C2071 1.369 . S
N2070 C2072 1.338 . S
C2071 N2070 1.369 . S
C2071 C2075 1.415 . S
C2071 C2078 1.422 . S
C2072 H2063 0.929 . S
C2072 N2070 1.338 . S
C2072 C2074 1.378 . S
C2073 H2068 0.931 . S
C2073 C2074 1.348 . S
C2073 C2075 1.413 . S
C2074 H2069 0.930 . S
C2074 C2072 1.378 . S
C2074 C2073 1.348 . S
C2075 C2071 1.415 . S
C2075 C2073 1.413 . S
C2075 C2105 1.437 . S
H2076 C2105 0.929 . S
N2077 Gd2050 2.570 . S
N2077 C2078 1.359 . S
N2077 C2081 1.343 . S
C2078 C2071 1.422 . S
C2078 N2077 1.359 . S
C2078 C2080 1.421 . S
C2079 C2080 1.422 . S
C2079 C2082 1.321 . S
C2079 H2106 0.931 . S
C2080 C2078 1.421 . S
C2080 C2079 1.422 . S
C2080 C2104 1.417 . S
C2081 H2058 0.931 . S
C2081 N2077 1.343 . S
C2081 C2082 1.390 . S
C2082 H2060 0.930 . S
C2082 C2079 1.321 . S
C2082 C2081 1.390 . S
O2083 Gd2051 2.386 . S
O2083 C2095 1.265 . S
O2084 Gd2050 2.353 . S
O2084 C2095 1.242 . S
O2085 Gd2050 2.468 . S
O2085 C2103 1.263 . S
O2086 Gd2050 2.427 . S
O2086 C2103 1.252 . S
O2087 Gd2051 2.307 . S
O2087 C2096 1.261 . S
O2088 Gd2050 2.388 . S
O2088 C2096 1.252 . S
O2089 Gd2050 2.386 . S
O2089 C2107 1.265 . S
O2090 Gd2051 2.353 . S
O2090 C2107 1.242 . S
O2091 Gd2051 2.468 . S
O2091 C2115 1.263 . S
O2092 Gd2051 2.427 . S
O2092 C2115 1.252 . S
O2093 Gd2050 2.307 . S
O2093 C2108 1.261 . S
O2094 Gd2051 2.388 . S
O2094 C2108 1.252 . S
C2095 O2083 1.265 . S
C2095 O2084 1.242 . S
C2096 O2087 1.261 . S
C2096 O2088 1.252 . S
C2097 C2100 1.394 . S
C2097 C2102 1.370 . S
C2097 C2103 1.500 . S
C2098 C2101 1.383 . S
C2098 C2102 1.395 . S
C2099 C2100 1.396 . S
C2099 C2101 1.365 . S
C2099 H2116 0.929 . S
C2100 C2097 1.394 . S
C2100 C2099 1.396 . S
C2100 H2117 0.930 . S
C2101 C2098 1.383 . S
C2101 C2099 1.365 . S
C2101 H2118 0.931 . S
C2102 C2097 1.370 . S
C2102 C2098 1.395 . S
C2102 H2119 0.930 . S
C2103 Gd2050 2.805 . S
C2103 O2085 1.263 . S
C2103 O2086 1.252 . S
C2103 C2097 1.500 . S
C2104 H2066 0.930 . S
C2104 C2080 1.417 . S
C2104 C2105 1.329 . S
C2105 C2075 1.437 . S
C2105 H2076 0.929 . S
C2105 C2104 1.329 . S
H2106 C2079 0.931 . S
C2107 O2089 1.265 . S
C2107 O2090 1.242 . S
C2108 O2093 1.261 . S
C2108 O2094 1.252 . S
C2109 C2112 1.394 . S
C2109 C2114 1.370 . S
C2109 C2115 1.500 . S
C2110 C2113 1.383 . S
C2110 C2114 1.395 . S
C2111 C2112 1.396 . S
C2111 C2113 1.365 . S
C2111 H2120 0.929 . S
C2112 C2109 1.394 . S
C2112 C2111 1.396 . S
C2112 H2121 0.930 . S
C2113 C2110 1.383 . S
C2113 C2111 1.365 . S
C2113 H2122 0.931 . S
C2114 C2109 1.370 . S
C2114 C2110 1.395 . S
C2114 H2123 0.930 . S
C2115 Gd2051 2.805 . S
C2115 O2091 1.263 . S
C2115 O2092 1.252 . S
C2115 C2109 1.500 . S
H2116 C2099 0.929 . S
H2117 C2100 0.930 . S
H2118 C2101 0.931 . S
H2119 C2102 0.930 . S
H2120 C2111 0.929 . S
H2121 C2112 0.930 . S
H2122 C2113 0.931 . S
H2123 C2114 0.930 . S
C2124 C2126 1.422 1_556 S
C2124 C2128 1.415 . S
C2124 N2130 1.369 . S
C2125 C2126 1.421 . S
C2125 C2127 1.417 . S
C2125 C2137 1.422 . S
C2126 C2124 1.422 1_554 S
C2126 C2125 1.421 . S
C2126 N2136 1.359 . S
C2127 C2125 1.417 . S
C2127 C2129 1.329 1_554 S
C2127 H2146 0.930 . S
C2128 C2124 1.415 . S
C2128 C2129 1.437 . S
C2128 C2132 1.413 . S
C2129 C2127 1.329 1_556 S
C2129 C2128 1.437 . S
C2129 H2151 0.929 . S
N2130 C2124 1.369 . S
N2130 C2131 1.338 . S
N2130 Gd2135 2.622 1_556 S
C2131 N2130 1.338 . S
C2131 C2133 1.378 . S
C2131 H2143 0.929 . S
C2132 C2128 1.413 . S
C2132 C2133 1.348 . S
C2132 H2148 0.931 . S
C2133 C2131 1.378 . S
C2133 C2132 1.348 . S
C2133 H2149 0.930 . S
Gd2134 N2154 2.610 1_455 S
Gd2134 N2161 2.544 1_455 S
Gd2134 O2168 2.366 . S
Gd2134 O2169 2.433 1_455 S
Gd2134 O2170 2.398 1_455 S
Gd2134 O2172 2.416 . S
Gd2134 O2173 2.409 . S
Gd2134 O2177 2.316 . S
Gd2134 C2187 2.769 1_455 S
Gd2135 N2130 2.622 1_554 S
Gd2135 N2136 2.570 . S
Gd2135 O2167 2.386 . S
Gd2135 O2171 2.307 . S
Gd2135 O2174 2.353 . S
Gd2135 O2175 2.468 . S
Gd2135 O2176 2.427 1_554 S
Gd2135 O2178 2.388 1_554 S
Gd2135 C2199 2.805 . S
N2136 C2126 1.359 . S
N2136 Gd2135 2.570 . S
N2136 C2138 1.343 . S
C2137 C2125 1.422 . S
C2137 C2139 1.321 . S
C2137 H2145 0.931 . S
C2138 N2136 1.343 . S
C2138 C2139 1.390 . S
C2138 H2140 0.931 . S
C2139 C2137 1.321 . S
C2139 C2138 1.390 . S
C2139 H2141 0.930 . S
H2140 C2138 0.931 . S
H2141 C2139 0.930 . S
H2142 C2165 0.931 1_556 S
H2143 C2131 0.929 . S
H2144 C2166 0.930 . S
H2145 C2137 0.931 . S
H2146 C2127 0.930 . S
H2147 C2156 0.929 1_455 S
H2148 C2132 0.931 . S
H2149 C2133 0.930 . S
H2150 C2188 0.930 . S
H2151 C2129 0.929 . S
H2152 C2157 0.931 . S
H2153 C2158 0.930 . S
N2154 Gd2134 2.610 1_655 S
N2154 C2155 1.369 . S
N2154 C2156 1.338 . S
C2155 N2154 1.369 . S
C2155 C2159 1.415 . S
C2155 C2162 1.422 . S
C2156 H2147 0.929 1_655 S
C2156 N2154 1.338 . S
C2156 C2158 1.378 . S
C2157 H2152 0.931 . S
C2157 C2158 1.348 . S
C2157 C2159 1.413 . S
C2158 H2153 0.930 . S
C2158 C2156 1.378 . S
C2158 C2157 1.348 . S
C2159 C2155 1.415 . S
C2159 C2157 1.413 . S
C2159 C2189 1.437 . S
H2160 C2189 0.929 . S
N2161 Gd2134 2.544 1_655 S
N2161 C2162 1.359 . S
N2161 C2165 1.343 . S
C2162 C2155 1.422 . S
C2162 N2161 1.359 . S
C2162 C2164 1.421 . S
C2163 C2164 1.422 . S
C2163 C2166 1.321 1_554 S
C2163 H2190 0.931 . S
C2164 C2162 1.421 . S
C2164 C2163 1.422 . S
C2164 C2188 1.417 . S
C2165 H2142 0.931 1_554 S
C2165 N2161 1.343 . S
C2165 C2166 1.390 1_554 S
C2166 H2144 0.930 . S
C2166 C2163 1.321 1_556 S
C2166 C2165 1.390 1_556 S
O2167 Gd2135 2.386 . S
O2167 C2179 1.265 . S
O2168 Gd2134 2.366 . S
O2168 C2179 1.242 . S
O2169 Gd2134 2.433 1_655 S
O2169 C2187 1.263 . S
O2170 Gd2134 2.398 1_655 S
O2170 C2187 1.252 . S
O2171 Gd2135 2.307 . S
O2171 C2180 1.261 . S
O2172 Gd2134 2.416 . S
O2172 C2180 1.252 . S
O2173 Gd2134 2.409 . S
O2173 C2191 1.265 . S
O2174 Gd2135 2.353 . S
O2174 C2191 1.242 . S
O2175 Gd2135 2.468 . S
O2175 C2199 1.263 . S
O2176 Gd2135 2.427 1_556 S
O2176 C2199 1.252 1_556 S
O2177 Gd2134 2.316 . S
O2177 C2192 1.261 1_554 S
O2178 Gd2135 2.388 1_556 S
O2178 C2192 1.252 . S
C2179 O2167 1.265 . S
C2179 O2168 1.242 . S
C2180 O2171 1.261 . S
C2180 O2172 1.252 . S
C2181 C2184 1.394 . S
C2181 C2186 1.370 . S
C2181 C2187 1.500 . S
C2182 C2185 1.383 . S
C2182 C2186 1.395 . S
C2183 C2184 1.396 . S
C2183 C2185 1.365 . S
C2183 H2200 0.929 . S
C2184 C2181 1.394 . S
C2184 C2183 1.396 . S
C2184 H2201 0.930 . S
C2185 C2182 1.383 . S
C2185 C2183 1.365 . S
C2185 H2202 0.931 . S
C2186 C2181 1.370 . S
C2186 C2182 1.395 . S
C2186 H2203 0.930 . S
C2187 Gd2134 2.769 1_655 S
C2187 O2169 1.263 . S
C2187 O2170 1.252 . S
C2187 C2181 1.500 . S
C2188 H2150 0.930 . S
C2188 C2164 1.417 . S
C2188 C2189 1.329 . S
C2189 C2159 1.437 . S
C2189 H2160 0.929 . S
C2189 C2188 1.329 . S
H2190 C2163 0.931 . S
C2191 O2173 1.265 . S
C2191 O2174 1.242 . S
C2192 O2177 1.261 1_556 S
C2192 O2178 1.252 . S
C2193 C2196 1.394 . S
C2193 C2198 1.370 1_556 S
C2193 C2199 1.500 1_556 S
C2194 C2197 1.383 1_554 S
C2194 C2198 1.395 . S
C2195 C2196 1.396 . S
C2195 C2197 1.365 . S
C2195 H2204 0.929 . S
C2196 C2193 1.394 . S
C2196 C2195 1.396 . S
C2196 H2205 0.930 . S
C2197 C2194 1.383 1_556 S
C2197 C2195 1.365 . S
C2197 H2206 0.931 . S
C2198 C2193 1.370 1_554 S
C2198 C2194 1.395 . S
C2198 H2207 0.930 . S
C2199 Gd2135 2.805 . S
C2199 O2175 1.263 . S
C2199 O2176 1.252 1_554 S
C2199 C2193 1.500 1_554 S
H2200 C2183 0.929 . S
H2201 C2184 0.930 . S
H2202 C2185 0.931 . S
H2203 C2186 0.930 . S
H2204 C2195 0.929 . S
H2205 C2196 0.930 . S
H2206 C2197 0.931 . S
H2207 C2198 0.930 . S
H2208 C2216 0.929 . S
H2209 C2218 0.930 . S
H2210 C2220 0.930 . S
H2211 C2223 0.929 . S
H2212 C2226 0.930 . S
H2213 C2228 0.960 . S
H2214 C2228 0.960 . S
H2215 C2228 0.960 . S
C2216 H2208 0.929 . S
C2216 C2217 1.377 1_455 S
C2216 C2218 1.384 . S
C2217 C2216 1.377 1_655 S
C2217 C2223 1.390 . S
C2218 H2209 0.930 . S
C2218 C2216 1.384 . S
C2218 C2219 1.372 . S
C2219 C2218 1.372 . S
C2219 C2220 1.400 1_455 S
C2219 C2224 1.490 . S
C2220 H2210 0.930 . S
C2220 C2219 1.400 1_655 S
C2220 C2223 1.386 . S
H2221 C2237 0.930 . S
H2222 C2238 0.931 . S
C2223 H2211 0.929 . S
C2223 C2217 1.390 . S
C2223 C2220 1.386 . S
C2224 C2219 1.490 . S
C2224 C2226 1.395 . S
C2224 C2227 1.403 1_455 S
H2225 C2231 0.930 . S
C2226 H2212 0.930 . S
C2226 C2224 1.395 . S
C2226 C2229 1.403 . S
C2227 C2224 1.403 1_655 S
C2227 C2228 1.524 . S
C2227 C2231 1.400 . S
C2228 H2213 0.960 . S
C2228 H2214 0.960 . S
C2228 H2215 0.960 . S
C2228 C2227 1.524 . S
C2229 C2226 1.403 . S
C2229 C2230 1.392 . S
C2229 C2233 1.495 . S
C2230 C2229 1.392 . S
C2230 C2231 1.385 1_455 S
C2230 C2232 1.478 . S
C2231 H2225 0.930 . S
C2231 C2227 1.400 . S
C2231 C2230 1.385 1_655 S
C2232 C2230 1.478 . S
C2232 C2234 1.381 . S
C2232 C2238 1.383 1_556 S
C2233 C2229 1.495 . S
C2233 H2239 0.959 . S
C2233 H2240 0.961 . S
C2233 H2241 0.960 . S
C2234 C2232 1.381 . S
C2234 C2235 1.394 . S
C2234 H2242 0.930 . S
C2235 C2234 1.394 . S
C2235 C2236 1.383 1_556 S
C2235 H2243 0.929 . S
C2236 C2235 1.383 1_554 S
C2236 C2237 1.377 . S
C2237 H2221 0.930 . S
C2237 C2236 1.377 . S
C2237 C2238 1.379 . S
C2238 H2222 0.931 . S
C2238 C2232 1.383 1_554 S
C2238 C2237 1.379 . S
H2239 C2233 0.959 . S
H2240 C2233 0.961 . S
H2241 C2233 0.960 . S
H2242 C2234 0.930 . S
H2243 C2235 0.929 . S
H2244 C2252 0.929 . S
H2245 C2254 0.930 . S
H2246 C2256 0.930 . S
H2247 C2259 0.929 . S
H2248 C2262 0.930 . S
H2249 C2264 0.960 . S
H2250 C2264 0.960 . S
H2251 C2264 0.960 . S
C2252 H2244 0.929 . S
C2252 C2253 1.377 . S
C2252 C2254 1.384 . S
C2253 C2252 1.377 . S
C2253 C2259 1.390 . S
C2254 H2245 0.930 . S
C2254 C2252 1.384 . S
C2254 C2255 1.372 . S
C2255 C2254 1.372 . S
C2255 C2256 1.400 . S
C2255 C2260 1.490 . S
C2256 H2246 0.930 . S
C2256 C2255 1.400 . S
C2256 C2259 1.386 . S
H2257 C2273 0.930 . S
H2258 C2274 0.931 . S
C2259 H2247 0.929 . S
C2259 C2253 1.390 . S
C2259 C2256 1.386 . S
C2260 C2255 1.490 . S
C2260 C2262 1.395 . S
C2260 C2263 1.403 . S
H2261 C2267 0.930 . S
C2262 H2248 0.930 . S
C2262 C2260 1.395 . S
C2262 C2265 1.403 . S
C2263 C2260 1.403 . S
C2263 C2264 1.524 . S
C2263 C2267 1.400 . S
C2264 H2249 0.960 . S
C2264 H2250 0.960 . S
C2264 H2251 0.960 . S
C2264 C2263 1.524 . S
C2265 C2262 1.403 . S
C2265 C2266 1.392 . S
C2265 C2269 1.495 . S
C2266 C2265 1.392 . S
C2266 C2267 1.385 . S
C2266 C2268 1.478 . S
C2267 H2261 0.930 . S
C2267 C2263 1.400 . S
C2267 C2266 1.385 . S
C2268 C2266 1.478 . S
C2268 C2270 1.381 . S
C2268 C2274 1.383 . S
C2269 C2265 1.495 . S
C2269 H2275 0.959 . S
C2269 H2276 0.961 . S
C2269 H2277 0.960 . S
C2270 C2268 1.381 . S
C2270 C2271 1.394 . S
C2270 H2278 0.930 . S
C2271 C2270 1.394 . S
C2271 C2272 1.383 . S
C2271 H2279 0.929 . S
C2272 C2271 1.383 . S
C2272 C2273 1.377 . S
C2273 H2257 0.930 . S
C2273 C2272 1.377 . S
C2273 C2274 1.379 . S
C2274 H2258 0.931 . S
C2274 C2268 1.383 . S
C2274 C2273 1.379 . S
H2275 C2269 0.959 . S
H2276 C2269 0.961 . S
H2277 C2269 0.960 . S
H2278 C2270 0.930 . S
H2279 C2271 0.929 . S
H2280 C2288 0.929 . S
H2281 C2290 0.930 . S
H2282 C2292 0.930 . S
H2283 C2295 0.929 . S
H2284 C2298 0.930 . S
H2285 C2300 0.960 . S
H2286 C2300 0.960 . S
H2287 C2300 0.960 . S
C2288 H2280 0.929 . S
C2288 C2289 1.377 . S
C2288 C2290 1.384 . S
C2289 C2288 1.377 . S
C2289 C2295 1.390 . S
C2290 H2281 0.930 . S
C2290 C2288 1.384 . S
C2290 C2291 1.372 . S
C2291 C2290 1.372 . S
C2291 C2292 1.400 . S
C2291 C2296 1.490 . S
C2292 H2282 0.930 . S
C2292 C2291 1.400 . S
C2292 C2295 1.386 . S
H2293 C2309 0.930 . S
H2294 C2310 0.931 . S
C2295 H2283 0.929 . S
C2295 C2289 1.390 . S
C2295 C2292 1.386 . S
C2296 C2291 1.490 . S
C2296 C2298 1.395 . S
C2296 C2299 1.403 . S
H2297 C2303 0.930 . S
C2298 H2284 0.930 . S
C2298 C2296 1.395 . S
C2298 C2301 1.403 . S
C2299 C2296 1.403 . S
C2299 C2300 1.524 . S
C2299 C2303 1.400 . S
C2300 H2285 0.960 . S
C2300 H2286 0.960 . S
C2300 H2287 0.960 . S
C2300 C2299 1.524 . S
C2301 C2298 1.403 . S
C2301 C2302 1.392 . S
C2301 C2305 1.495 . S
C2302 C2301 1.392 . S
C2302 C2303 1.385 . S
C2302 C2304 1.478 . S
C2303 H2297 0.930 . S
C2303 C2299 1.400 . S
C2303 C2302 1.385 . S
C2304 C2302 1.478 . S
C2304 C2306 1.381 . S
C2304 C2310 1.383 . S
C2305 C2301 1.495 . S
C2305 H2311 0.959 . S
C2305 H2312 0.961 . S
C2305 H2313 0.960 . S
C2306 C2304 1.381 . S
C2306 C2307 1.394 . S
C2306 H2314 0.930 . S
C2307 C2306 1.394 . S
C2307 C2308 1.383 . S
C2307 H2315 0.929 . S
C2308 C2307 1.383 . S
C2308 C2309 1.377 . S
C2309 H2293 0.930 . S
C2309 C2308 1.377 . S
C2309 C2310 1.379 . S
C2310 H2294 0.931 . S
C2310 C2304 1.383 . S
C2310 C2309 1.379 . S
H2311 C2305 0.959 . S
H2312 C2305 0.961 . S
H2313 C2305 0.960 . S
H2314 C2306 0.930 . S
H2315 C2307 0.929 . S
H2316 C2324 0.929 . S
H2317 C2326 0.930 . S
H2318 C2328 0.930 . S
H2319 C2331 0.929 . S
H2320 C2334 0.930 . S
H2321 C2336 0.960 . S
H2322 C2336 0.960 . S
H2323 C2336 0.960 . S
C2324 H2316 0.929 . S
C2324 C2325 1.377 . S
C2324 C2326 1.384 . S
C2325 C2324 1.377 . S
C2325 C2331 1.390 . S
C2326 H2317 0.930 . S
C2326 C2324 1.384 . S
C2326 C2327 1.372 . S
C2327 C2326 1.372 . S
C2327 C2328 1.400 . S
C2327 C2332 1.490 . S
C2328 H2318 0.930 . S
C2328 C2327 1.400 . S
C2328 C2331 1.386 . S
H2329 C2345 0.930 . S
H2330 C2346 0.931 . S
C2331 H2319 0.929 . S
C2331 C2325 1.390 . S
C2331 C2328 1.386 . S
C2332 C2327 1.490 . S
C2332 C2334 1.395 . S
C2332 C2335 1.403 . S
H2333 C2339 0.930 . S
C2334 H2320 0.930 . S
C2334 C2332 1.395 . S
C2334 C2337 1.403 . S
C2335 C2332 1.403 . S
C2335 C2336 1.524 . S
C2335 C2339 1.400 . S
C2336 H2321 0.960 . S
C2336 H2322 0.960 . S
C2336 H2323 0.960 . S
C2336 C2335 1.524 . S
C2337 C2334 1.403 . S
C2337 C2338 1.392 . S
C2337 C2341 1.495 . S
C2338 C2337 1.392 . S
C2338 C2339 1.385 . S
C2338 C2340 1.478 . S
C2339 H2333 0.930 . S
C2339 C2335 1.400 . S
C2339 C2338 1.385 . S
C2340 C2338 1.478 . S
C2340 C2342 1.381 . S
C2340 C2346 1.383 . S
C2341 C2337 1.495 . S
C2341 H2347 0.959 . S
C2341 H2348 0.961 . S
C2341 H2349 0.960 . S
C2342 C2340 1.381 . S
C2342 C2343 1.394 . S
C2342 H2350 0.930 . S
C2343 C2342 1.394 . S
C2343 C2344 1.383 . S
C2343 H2351 0.929 . S
C2344 C2343 1.383 . S
C2344 C2345 1.377 . S
C2345 H2329 0.930 . S
C2345 C2344 1.377 . S
C2345 C2346 1.379 . S
C2346 H2330 0.931 . S
C2346 C2340 1.383 . S
C2346 C2345 1.379 . S
H2347 C2341 0.959 . S
H2348 C2341 0.961 . S
H2349 C2341 0.960 . S
H2350 C2342 0.930 . S
H2351 C2343 0.929 . S
H2352 C2360 0.929 1_655 S
H2353 C2362 0.930 1_655 S
H2354 C2364 0.930 . S
H2355 C2367 0.929 . S
H2356 C2370 0.930 1_655 S
H2357 C2372 0.960 . S
H2358 C2372 0.960 . S
H2359 C2372 0.960 . S
C2360 H2352 0.929 1_455 S
C2360 C2361 1.377 . S
C2360 C2362 1.384 . S
C2361 C2360 1.377 . S
C2361 C2367 1.390 . S
C2362 H2353 0.930 1_455 S
C2362 C2360 1.384 . S
C2362 C2363 1.372 . S
C2363 C2362 1.372 . S
C2363 C2364 1.400 . S
C2363 C2368 1.490 . S
C2364 H2354 0.930 . S
C2364 C2363 1.400 . S
C2364 C2367 1.386 . S
H2365 C2381 0.930 . S
H2366 C2382 0.931 . S
C2367 H2355 0.929 . S
C2367 C2361 1.390 . S
C2367 C2364 1.386 . S
C2368 C2363 1.490 . S
C2368 C2370 1.395 . S
C2368 C2371 1.403 . S
H2369 C2375 0.930 . S
C2370 H2356 0.930 1_455 S
C2370 C2368 1.395 . S
C2370 C2373 1.403 . S
C2371 C2368 1.403 . S
C2371 C2372 1.524 . S
C2371 C2375 1.400 . S
C2372 H2357 0.960 . S
C2372 H2358 0.960 . S
C2372 H2359 0.960 . S
C2372 C2371 1.524 . S
C2373 C2370 1.403 . S
C2373 C2374 1.392 . S
C2373 C2377 1.495 1_455 S
C2374 C2373 1.392 . S
C2374 C2375 1.385 . S
C2374 C2376 1.478 . S
C2375 H2369 0.930 . S
C2375 C2371 1.400 . S
C2375 C2374 1.385 . S
C2376 C2374 1.478 . S
C2376 C2378 1.381 . S
C2376 C2382 1.383 . S
C2377 C2373 1.495 1_655 S
C2377 H2383 0.959 . S
C2377 H2384 0.961 . S
C2377 H2385 0.960 . S
C2378 C2376 1.381 . S
C2378 C2379 1.394 . S
C2378 H2386 0.930 1_455 S
C2379 C2378 1.394 . S
C2379 C2380 1.383 . S
C2379 H2387 0.929 1_455 S
C2380 C2379 1.383 . S
C2380 C2381 1.377 . S
C2381 H2365 0.930 . S
C2381 C2380 1.377 . S
C2381 C2382 1.379 . S
C2382 H2366 0.931 . S
C2382 C2376 1.383 . S
C2382 C2381 1.379 . S
H2383 C2377 0.959 . S
H2384 C2377 0.961 . S
H2385 C2377 0.960 . S
H2386 C2378 0.930 1_655 S
H2387 C2379 0.929 1_655 S
H2388 C2396 0.929 . S
H2389 C2398 0.930 . S
H2390 C2400 0.930 . S
H2391 C2403 0.929 . S
H2392 C2406 0.930 . S
H2393 C2408 0.960 . S
H2394 C2408 0.960 . S
H2395 C2408 0.960 . S
C2396 H2388 0.929 . S
C2396 C2397 1.377 . S
C2396 C2398 1.384 . S
C2397 C2396 1.377 . S
C2397 C2403 1.390 . S
C2398 H2389 0.930 . S
C2398 C2396 1.384 . S
C2398 C2399 1.372 . S
C2399 C2398 1.372 . S
C2399 C2400 1.400 . S
C2399 C2404 1.490 . S
C2400 H2390 0.930 . S
C2400 C2399 1.400 . S
C2400 C2403 1.386 . S
H2401 C2417 0.930 . S
H2402 C2418 0.931 . S
C2403 H2391 0.929 . S
C2403 C2397 1.390 . S
C2403 C2400 1.386 . S
C2404 C2399 1.490 . S
C2404 C2406 1.395 . S
C2404 C2407 1.403 . S
H2405 C2411 0.930 . S
C2406 H2392 0.930 . S
C2406 C2404 1.395 . S
C2406 C2409 1.403 . S
C2407 C2404 1.403 . S
C2407 C2408 1.524 . S
C2407 C2411 1.400 . S
C2408 H2393 0.960 . S
C2408 H2394 0.960 . S
C2408 H2395 0.960 . S
C2408 C2407 1.524 . S
C2409 C2406 1.403 . S
C2409 C2410 1.392 . S
C2409 C2413 1.495 . S
C2410 C2409 1.392 . S
C2410 C2411 1.385 . S
C2410 C2412 1.478 . S
C2411 H2405 0.930 . S
C2411 C2407 1.400 . S
C2411 C2410 1.385 . S
C2412 C2410 1.478 . S
C2412 C2414 1.381 . S
C2412 C2418 1.383 . S
C2413 C2409 1.495 . S
C2413 H2419 0.959 . S
C2413 H2420 0.961 . S
C2413 H2421 0.960 . S
C2414 C2412 1.381 . S
C2414 C2415 1.394 . S
C2414 H2422 0.930 . S
C2415 C2414 1.394 . S
C2415 C2416 1.383 . S
C2415 H2423 0.929 . S
C2416 C2415 1.383 . S
C2416 C2417 1.377 . S
C2417 H2401 0.930 . S
C2417 C2416 1.377 . S
C2417 C2418 1.379 . S
C2418 H2402 0.931 . S
C2418 C2412 1.383 . S
C2418 C2417 1.379 . S
H2419 C2413 0.959 . S
H2420 C2413 0.961 . S
H2421 C2413 0.960 . S
H2422 C2414 0.930 . S
H2423 C2415 0.929 . S
H2424 C2432 0.929 . S
H2425 C2434 0.930 . S
H2426 C2436 0.930 . S
H2427 C2439 0.929 . S
H2428 C2442 0.930 . S
H2429 C2444 0.960 . S
H2430 C2444 0.960 . S
H2431 C2444 0.960 . S
C2432 H2424 0.929 . S
C2432 C2433 1.377 . S
C2432 C2434 1.384 . S
C2433 C2432 1.377 . S
C2433 C2439 1.390 . S
C2434 H2425 0.930 . S
C2434 C2432 1.384 . S
C2434 C2435 1.372 . S
C2435 C2434 1.372 . S
C2435 C2436 1.400 . S
C2435 C2440 1.490 . S
C2436 H2426 0.930 . S
C2436 C2435 1.400 . S
C2436 C2439 1.386 . S
H2437 C2453 0.930 . S
H2438 C2454 0.931 . S
C2439 H2427 0.929 . S
C2439 C2433 1.390 . S
C2439 C2436 1.386 . S
C2440 C2435 1.490 . S
C2440 C2442 1.395 . S
C2440 C2443 1.403 . S
H2441 C2447 0.930 . S
C2442 H2428 0.930 . S
C2442 C2440 1.395 . S
C2442 C2445 1.403 . S
C2443 C2440 1.403 . S
C2443 C2444 1.524 . S
C2443 C2447 1.400 . S
C2444 H2429 0.960 . S
C2444 H2430 0.960 . S
C2444 H2431 0.960 . S
C2444 C2443 1.524 . S
C2445 C2442 1.403 . S
C2445 C2446 1.392 . S
C2445 C2449 1.495 . S
C2446 C2445 1.392 . S
C2446 C2447 1.385 . S
C2446 C2448 1.478 . S
C2447 H2441 0.930 . S
C2447 C2443 1.400 . S
C2447 C2446 1.385 . S
C2448 C2446 1.478 . S
C2448 C2450 1.381 . S
C2448 C2454 1.383 . S
C2449 C2445 1.495 . S
C2449 H2455 0.959 . S
C2449 H2456 0.961 . S
C2449 H2457 0.960 . S
C2450 C2448 1.381 . S
C2450 C2451 1.394 . S
C2450 H2458 0.930 . S
C2451 C2450 1.394 . S
C2451 C2452 1.383 . S
C2451 H2459 0.929 . S
C2452 C2451 1.383 . S
C2452 C2453 1.377 . S
C2453 H2437 0.930 . S
C2453 C2452 1.377 . S
C2453 C2454 1.379 . S
C2454 H2438 0.931 . S
C2454 C2448 1.383 . S
C2454 C2453 1.379 . S
H2455 C2449 0.959 . S
H2456 C2449 0.961 . S
H2457 C2449 0.960 . S
H2458 C2450 0.930 . S
H2459 C2451 0.929 . S
H2460 C2468 0.929 . S
H2461 C2470 0.930 . S
H2462 C2472 0.930 . S
H2463 C2475 0.929 . S
H2464 C2478 0.930 . S
H2465 C2480 0.960 . S
H2466 C2480 0.960 . S
H2467 C2480 0.960 . S
C2468 H2460 0.929 . S
C2468 C2469 1.377 . S
C2468 C2470 1.384 . S
C2469 C2468 1.377 . S
C2469 C2475 1.390 . S
C2470 H2461 0.930 . S
C2470 C2468 1.384 . S
C2470 C2471 1.372 . S
C2471 C2470 1.372 . S
C2471 C2472 1.400 . S
C2471 C2476 1.490 . S
C2472 H2462 0.930 . S
C2472 C2471 1.400 . S
C2472 C2475 1.386 . S
H2473 C2489 0.930 . S
H2474 C2490 0.931 . S
C2475 H2463 0.929 . S
C2475 C2469 1.390 . S
C2475 C2472 1.386 . S
C2476 C2471 1.490 . S
C2476 C2478 1.395 . S
C2476 C2479 1.403 . S
H2477 C2483 0.930 . S
C2478 H2464 0.930 . S
C2478 C2476 1.395 . S
C2478 C2481 1.403 . S
C2479 C2476 1.403 . S
C2479 C2480 1.524 . S
C2479 C2483 1.400 . S
C2480 H2465 0.960 . S
C2480 H2466 0.960 . S
C2480 H2467 0.960 . S
C2480 C2479 1.524 . S
C2481 C2478 1.403 . S
C2481 C2482 1.392 . S
C2481 C2485 1.495 . S
C2482 C2481 1.392 . S
C2482 C2483 1.385 . S
C2482 C2484 1.478 . S
C2483 H2477 0.930 . S
C2483 C2479 1.400 . S
C2483 C2482 1.385 . S
C2484 C2482 1.478 . S
C2484 C2486 1.381 . S
C2484 C2490 1.383 . S
C2485 C2481 1.495 . S
C2485 H2491 0.959 . S
C2485 H2492 0.961 . S
C2485 H2493 0.960 . S
C2486 C2484 1.381 . S
C2486 C2487 1.394 . S
C2486 H2494 0.930 . S
C2487 C2486 1.394 . S
C2487 C2488 1.383 . S
C2487 H2495 0.929 . S
C2488 C2487 1.383 . S
C2488 C2489 1.377 . S
C2489 H2473 0.930 . S
C2489 C2488 1.377 . S
C2489 C2490 1.379 . S
C2490 H2474 0.931 . S
C2490 C2484 1.383 . S
C2490 C2489 1.379 . S
H2491 C2485 0.959 . S
H2492 C2485 0.961 . S
H2493 C2485 0.960 . S
H2494 C2486 0.930 . S
H2495 C2487 0.929 . S
H2496 C2504 0.929 . S
H2497 C2506 0.929 . S
H2498 C2508 0.930 . S
H2499 C2511 0.929 . S
H2500 C2514 0.930 1_565 S
H2501 C2516 0.960 . S
H2502 C2516 0.960 . S
H2503 C2516 0.960 . S
C2504 H2496 0.929 . S
C2504 C2505 1.377 1_565 S
C2504 C2506 1.384 . S
C2505 C2504 1.377 1_545 S
C2505 C2511 1.390 . S
C2506 H2497 0.929 . S
C2506 C2504 1.384 . S
C2506 C2507 1.373 1_565 S
C2507 C2506 1.373 1_545 S
C2507 C2508 1.400 . S
C2507 C2512 1.490 . S
C2508 H2498 0.930 . S
C2508 C2507 1.400 . S
C2508 C2511 1.386 . S
H2509 C2525 0.930 . S
H2510 C2526 0.931 . S
C2511 H2499 0.929 . S
C2511 C2505 1.390 . S
C2511 C2508 1.386 . S
C2512 C2507 1.490 . S
C2512 C2514 1.395 . S
C2512 C2515 1.403 . S
H2513 C2519 0.930 . S
C2514 H2500 0.930 1_545 S
C2514 C2512 1.395 . S
C2514 C2517 1.403 . S
C2515 C2512 1.403 . S
C2515 C2516 1.524 . S
C2515 C2519 1.400 . S
C2516 H2501 0.960 . S
C2516 H2502 0.960 . S
C2516 H2503 0.960 . S
C2516 C2515 1.524 . S
C2517 C2514 1.403 . S
C2517 C2518 1.392 . S
C2517 C2521 1.495 1_545 S
C2518 C2517 1.392 . S
C2518 C2519 1.385 . S
C2518 C2520 1.478 . S
C2519 H2513 0.930 . S
C2519 C2515 1.400 . S
C2519 C2518 1.385 . S
C2520 C2518 1.478 . S
C2520 C2522 1.381 . S
C2520 C2526 1.383 . S
C2521 C2517 1.495 1_565 S
C2521 H2527 0.959 . S
C2521 H2528 0.961 . S
C2521 H2529 0.960 . S
C2522 C2520 1.381 . S
C2522 C2523 1.394 1_655 S
C2522 H2530 0.930 1_545 S
C2523 C2522 1.394 1_455 S
C2523 C2524 1.383 . S
C2523 H2531 0.933 1_545 S
C2524 C2523 1.383 . S
C2524 C2525 1.377 1_455 S
C2525 H2509 0.930 . S
C2525 C2524 1.377 1_655 S
C2525 C2526 1.379 . S
C2526 H2510 0.931 . S
C2526 C2520 1.383 . S
C2526 C2525 1.379 . S
H2527 C2521 0.959 . S
H2528 C2521 0.961 . S
H2529 C2521 0.960 . S
H2530 C2522 0.930 1_565 S
H2531 C2523 0.933 1_565 S
H2532 C2540 0.929 . S
H2533 C2542 0.930 . S
H2534 C2544 0.930 . S
H2535 C2547 0.929 . S
H2536 C2550 0.930 . S
H2537 C2552 0.960 . S
H2538 C2552 0.960 . S
H2539 C2552 0.960 . S
C2540 H2532 0.929 . S
C2540 C2541 1.377 . S
C2540 C2542 1.384 . S
C2541 C2540 1.377 . S
C2541 C2547 1.390 . S
C2542 H2533 0.930 . S
C2542 C2540 1.384 . S
C2542 C2543 1.372 . S
C2543 C2542 1.372 . S
C2543 C2544 1.400 . S
C2543 C2548 1.490 . S
C2544 H2534 0.930 . S
C2544 C2543 1.400 . S
C2544 C2547 1.386 . S
H2545 C2561 0.930 . S
H2546 C2562 0.931 . S
C2547 H2535 0.929 . S
C2547 C2541 1.390 . S
C2547 C2544 1.386 . S
C2548 C2543 1.490 . S
C2548 C2550 1.395 . S
C2548 C2551 1.403 . S
H2549 C2555 0.930 . S
C2550 H2536 0.930 . S
C2550 C2548 1.395 . S
C2550 C2553 1.403 . S
C2551 C2548 1.403 . S
C2551 C2552 1.524 . S
C2551 C2555 1.400 . S
C2552 H2537 0.960 . S
C2552 H2538 0.960 . S
C2552 H2539 0.960 . S
C2552 C2551 1.524 . S
C2553 C2550 1.403 . S
C2553 C2554 1.392 . S
C2553 C2557 1.495 . S
C2554 C2553 1.392 . S
C2554 C2555 1.385 . S
C2554 C2556 1.478 . S
C2555 H2549 0.930 . S
C2555 C2551 1.400 . S
C2555 C2554 1.385 . S
C2556 C2554 1.478 . S
C2556 C2558 1.381 . S
C2556 C2562 1.383 . S
C2557 C2553 1.495 . S
C2557 H2563 0.959 . S
C2557 H2564 0.961 . S
C2557 H2565 0.960 . S
C2558 C2556 1.381 . S
C2558 C2559 1.394 . S
C2558 H2566 0.930 . S
C2559 C2558 1.394 . S
C2559 C2560 1.383 . S
C2559 H2567 0.929 . S
C2560 C2559 1.383 . S
C2560 C2561 1.377 . S
C2561 H2545 0.930 . S
C2561 C2560 1.377 . S
C2561 C2562 1.379 . S
C2562 H2546 0.931 . S
C2562 C2556 1.383 . S
C2562 C2561 1.379 . S
H2563 C2557 0.959 . S
H2564 C2557 0.961 . S
H2565 C2557 0.960 . S
H2566 C2558 0.930 . S
H2567 C2559 0.929 . S
H2568 C2576 0.929 . S
H2569 C2578 0.930 . S
H2570 C2580 0.930 . S
H2571 C2583 0.929 . S
H2572 C2586 0.930 . S
H2573 C2588 0.960 . S
H2574 C2588 0.960 . S
H2575 C2588 0.960 . S
C2576 H2568 0.929 . S
C2576 C2577 1.377 . S
C2576 C2578 1.384 . S
C2577 C2576 1.377 . S
C2577 C2583 1.390 . S
C2578 H2569 0.930 . S
C2578 C2576 1.384 . S
C2578 C2579 1.372 . S
C2579 C2578 1.372 . S
C2579 C2580 1.400 . S
C2579 C2584 1.490 . S
C2580 H2570 0.930 . S
C2580 C2579 1.400 . S
C2580 C2583 1.386 . S
H2581 C2597 0.930 . S
H2582 C2598 0.931 . S
C2583 H2571 0.929 . S
C2583 C2577 1.390 . S
C2583 C2580 1.386 . S
C2584 C2579 1.490 . S
C2584 C2586 1.395 . S
C2584 C2587 1.403 . S
H2585 C2591 0.930 . S
C2586 H2572 0.930 . S
C2586 C2584 1.395 . S
C2586 C2589 1.403 . S
C2587 C2584 1.403 . S
C2587 C2588 1.524 . S
C2587 C2591 1.400 . S
C2588 H2573 0.960 . S
C2588 H2574 0.960 . S
C2588 H2575 0.960 . S
C2588 C2587 1.524 . S
C2589 C2586 1.403 . S
C2589 C2590 1.392 . S
C2589 C2593 1.495 . S
C2590 C2589 1.392 . S
C2590 C2591 1.385 . S
C2590 C2592 1.478 . S
C2591 H2585 0.930 . S
C2591 C2587 1.400 . S
C2591 C2590 1.385 . S
C2592 C2590 1.478 . S
C2592 C2594 1.381 . S
C2592 C2598 1.383 . S
C2593 C2589 1.495 . S
C2593 H2599 0.959 . S
C2593 H2600 0.961 . S
C2593 H2601 0.960 1_545 S
C2594 C2592 1.381 . S
C2594 C2595 1.394 . S
C2594 H2602 0.931 1_545 S
C2595 C2594 1.394 . S
C2595 C2596 1.383 . S
C2595 H2603 0.929 1_545 S
C2596 C2595 1.383 . S
C2596 C2597 1.377 . S
C2597 H2581 0.930 . S
C2597 C2596 1.377 . S
C2597 C2598 1.379 . S
C2598 H2582 0.931 . S
C2598 C2592 1.383 . S
C2598 C2597 1.379 . S
H2599 C2593 0.959 . S
H2600 C2593 0.961 . S
H2601 C2593 0.960 1_565 S
H2602 C2594 0.931 1_565 S
H2603 C2595 0.929 1_565 S
H2604 C2612 0.929 . S
H2605 C2614 0.930 . S
H2606 C2616 0.930 . S
H2607 C2619 0.929 . S
H2608 C2622 0.930 . S
H2609 C2624 0.960 . S
H2610 C2624 0.960 . S
H2611 C2624 0.960 . S
C2612 H2604 0.929 . S
C2612 C2613 1.377 . S
C2612 C2614 1.384 . S
C2613 C2612 1.377 . S
C2613 C2619 1.390 . S
C2614 H2605 0.930 . S
C2614 C2612 1.384 . S
C2614 C2615 1.372 . S
C2615 C2614 1.372 . S
C2615 C2616 1.400 . S
C2615 C2620 1.490 . S
C2616 H2606 0.930 . S
C2616 C2615 1.400 . S
C2616 C2619 1.386 . S
H2617 C2633 0.930 . S
H2618 C2634 0.931 . S
C2619 H2607 0.929 . S
C2619 C2613 1.390 . S
C2619 C2616 1.386 . S
C2620 C2615 1.490 . S
C2620 C2622 1.395 . S
C2620 C2623 1.403 . S
H2621 C2627 0.930 . S
C2622 H2608 0.930 . S
C2622 C2620 1.395 . S
C2622 C2625 1.403 . S
C2623 C2620 1.403 . S
C2623 C2624 1.524 . S
C2623 C2627 1.400 . S
C2624 H2609 0.960 . S
C2624 H2610 0.960 . S
C2624 H2611 0.960 . S
C2624 C2623 1.524 . S
C2625 C2622 1.403 . S
C2625 C2626 1.392 . S
C2625 C2629 1.495 . S
C2626 C2625 1.392 . S
C2626 C2627 1.385 . S
C2626 C2628 1.478 . S
C2627 H2621 0.930 . S
C2627 C2623 1.400 . S
C2627 C2626 1.385 . S
C2628 C2626 1.478 . S
C2628 C2630 1.381 . S
C2628 C2634 1.383 . S
C2629 C2625 1.495 . S
C2629 H2635 0.959 . S
C2629 H2636 0.961 . S
C2629 H2637 0.960 . S
C2630 C2628 1.381 . S
C2630 C2631 1.394 . S
C2630 H2638 0.930 . S
C2631 C2630 1.394 . S
C2631 C2632 1.383 . S
C2631 H2639 0.929 . S
C2632 C2631 1.383 . S
C2632 C2633 1.377 . S
C2633 H2617 0.930 . S
C2633 C2632 1.377 . S
C2633 C2634 1.379 . S
C2634 H2618 0.931 . S
C2634 C2628 1.383 . S
C2634 C2633 1.379 . S
H2635 C2629 0.959 . S
H2636 C2629 0.961 . S
H2637 C2629 0.960 . S
H2638 C2630 0.930 . S
H2639 C2631 0.929 . S
H2640 C2648 0.929 . S
H2641 C2650 0.930 . S
H2642 C2652 0.930 1_565 S
H2643 C2655 0.929 1_565 S
H2644 C2658 0.930 . S
H2645 C2660 0.960 1_455 S
H2646 C2660 0.958 . S
H2647 C2660 0.960 . S
C2648 H2640 0.929 . S
C2648 C2649 1.377 . S
C2648 C2650 1.384 . S
C2649 C2648 1.377 . S
C2649 C2655 1.390 . S
C2650 H2641 0.930 . S
C2650 C2648 1.384 . S
C2650 C2651 1.372 . S
C2651 C2650 1.372 . S
C2651 C2652 1.400 . S
C2651 C2656 1.490 . S
C2652 H2642 0.930 1_545 S
C2652 C2651 1.400 . S
C2652 C2655 1.386 . S
H2653 C2669 0.930 1_565 S
H2654 C2670 0.931 1_565 S
C2655 H2643 0.929 1_545 S
C2655 C2649 1.390 . S
C2655 C2652 1.386 . S
C2656 C2651 1.490 . S
C2656 C2658 1.395 . S
C2656 C2659 1.403 . S
H2657 C2663 0.930 1_455 S
C2658 H2644 0.930 . S
C2658 C2656 1.395 . S
C2658 C2661 1.403 . S
C2659 C2656 1.403 . S
C2659 C2660 1.524 . S
C2659 C2663 1.400 . S
C2660 H2645 0.960 1_655 S
C2660 H2646 0.958 . S
C2660 H2647 0.960 . S
C2660 C2659 1.524 . S
C2661 C2658 1.403 . S
C2661 C2662 1.392 . S
C2661 C2665 1.495 . S
C2662 C2661 1.392 . S
C2662 C2663 1.385 . S
C2662 C2664 1.478 . S
C2663 H2657 0.930 1_655 S
C2663 C2659 1.400 . S
C2663 C2662 1.385 . S
C2664 C2662 1.478 . S
C2664 C2666 1.381 . S
C2664 C2670 1.383 . S
C2665 C2661 1.495 . S
C2665 H2671 0.959 . S
C2665 H2672 0.961 . S
C2665 H2673 0.960 . S
C2666 C2664 1.381 . S
C2666 C2667 1.394 . S
C2666 H2674 0.930 . S
C2667 C2666 1.394 . S
C2667 C2668 1.383 1_655 S
C2667 H2675 0.929 . S
C2668 C2667 1.383 1_455 S
C2668 C2669 1.377 . S
C2669 H2653 0.930 1_545 S
C2669 C2668 1.377 . S
C2669 C2670 1.379 1_455 S
C2670 H2654 0.931 1_545 S
C2670 C2664 1.383 . S
C2670 C2669 1.379 1_655 S
H2671 C2665 0.959 . S
H2672 C2665 0.961 . S
H2673 C2665 0.960 . S
H2674 C2666 0.930 . S
H2675 C2667 0.929 . S
H2676 C2684 0.929 . S
H2677 C2686 0.930 . S
H2678 C2688 0.930 . S
H2679 C2691 0.929 . S
H2680 C2694 0.930 . S
H2681 C2696 0.960 . S
H2682 C2696 0.960 . S
H2683 C2696 0.960 . S
C2684 H2676 0.929 . S
C2684 C2685 1.377 . S
C2684 C2686 1.384 . S
C2685 C2684 1.377 . S
C2685 C2691 1.390 . S
C2686 H2677 0.930 . S
C2686 C2684 1.384 . S
C2686 C2687 1.372 . S
C2687 C2686 1.372 . S
C2687 C2688 1.400 . S
C2687 C2692 1.490 . S
C2688 H2678 0.930 . S
C2688 C2687 1.400 . S
C2688 C2691 1.386 . S
H2689 C2705 0.930 . S
H2690 C2706 0.931 . S
C2691 H2679 0.929 . S
C2691 C2685 1.390 . S
C2691 C2688 1.386 . S
C2692 C2687 1.490 . S
C2692 C2694 1.395 . S
C2692 C2695 1.403 . S
H2693 C2699 0.930 . S
C2694 H2680 0.930 . S
C2694 C2692 1.395 . S
C2694 C2697 1.403 . S
C2695 C2692 1.403 . S
C2695 C2696 1.524 . S
C2695 C2699 1.400 . S
C2696 H2681 0.960 . S
C2696 H2682 0.960 . S
C2696 H2683 0.960 . S
C2696 C2695 1.524 . S
C2697 C2694 1.403 . S
C2697 C2698 1.392 . S
C2697 C2701 1.495 . S
C2698 C2697 1.392 . S
C2698 C2699 1.385 . S
C2698 C2700 1.478 . S
C2699 H2693 0.930 . S
C2699 C2695 1.400 . S
C2699 C2698 1.385 . S
C2700 C2698 1.478 . S
C2700 C2702 1.381 . S
C2700 C2706 1.383 . S
C2701 C2697 1.495 . S
C2701 H2707 0.959 . S
C2701 H2708 0.961 . S
C2701 H2709 0.960 . S
C2702 C2700 1.381 . S
C2702 C2703 1.394 . S
C2702 H2710 0.930 . S
C2703 C2702 1.394 . S
C2703 C2704 1.383 . S
C2703 H2711 0.929 . S
C2704 C2703 1.383 . S
C2704 C2705 1.377 . S
C2705 H2689 0.930 . S
C2705 C2704 1.377 . S
C2705 C2706 1.379 . S
C2706 H2690 0.931 . S
C2706 C2700 1.383 . S
C2706 C2705 1.379 . S
H2707 C2701 0.959 . S
H2708 C2701 0.961 . S
H2709 C2701 0.960 . S
H2710 C2702 0.930 . S
H2711 C2703 0.929 . S
H2712 C2720 0.929 . S
H2713 C2722 0.930 . S
H2714 C2724 0.930 . S
H2715 C2727 0.929 . S
H2716 C2730 0.930 . S
H2717 C2732 0.960 . S
H2718 C2732 0.960 . S
H2719 C2732 0.960 . S
C2720 H2712 0.929 . S
C2720 C2721 1.377 . S
C2720 C2722 1.384 . S
C2721 C2720 1.377 . S
C2721 C2727 1.390 . S
C2722 H2713 0.930 . S
C2722 C2720 1.384 . S
C2722 C2723 1.372 . S
C2723 C2722 1.372 . S
C2723 C2724 1.400 . S
C2723 C2728 1.490 . S
C2724 H2714 0.930 . S
C2724 C2723 1.400 . S
C2724 C2727 1.386 . S
H2725 C2741 0.930 . S
H2726 C2742 0.931 . S
C2727 H2715 0.929 . S
C2727 C2721 1.390 . S
C2727 C2724 1.386 . S
C2728 C2723 1.490 . S
C2728 C2730 1.395 . S
C2728 C2731 1.403 . S
H2729 C2735 0.930 . S
C2730 H2716 0.930 . S
C2730 C2728 1.395 . S
C2730 C2733 1.403 . S
C2731 C2728 1.403 . S
C2731 C2732 1.524 . S
C2731 C2735 1.400 . S
C2732 H2717 0.960 . S
C2732 H2718 0.960 . S
C2732 H2719 0.960 . S
C2732 C2731 1.524 . S
C2733 C2730 1.403 . S
C2733 C2734 1.392 . S
C2733 C2737 1.495 . S
C2734 C2733 1.392 . S
C2734 C2735 1.385 . S
C2734 C2736 1.478 . S
C2735 H2729 0.930 . S
C2735 C2731 1.400 . S
C2735 C2734 1.385 . S
C2736 C2734 1.478 . S
C2736 C2738 1.381 . S
C2736 C2742 1.383 . S
C2737 C2733 1.495 . S
C2737 H2743 0.959 . S
C2737 H2744 0.961 . S
C2737 H2745 0.960 . S
C2738 C2736 1.381 . S
C2738 C2739 1.394 . S
C2738 H2746 0.930 . S
C2739 C2738 1.394 . S
C2739 C2740 1.383 . S
C2739 H2747 0.929 . S
C2740 C2739 1.383 . S
C2740 C2741 1.377 . S
C2741 H2725 0.930 . S
C2741 C2740 1.377 . S
C2741 C2742 1.379 . S
C2742 H2726 0.931 . S
C2742 C2736 1.383 . S
C2742 C2741 1.379 . S
H2743 C2737 0.959 . S
H2744 C2737 0.961 . S
H2745 C2737 0.960 . S
H2746 C2738 0.930 . S
H2747 C2739 0.929 . S
H2748 C2756 0.929 . S
H2749 C2758 0.930 . S
H2750 C2760 0.930 . S
H2751 C2763 0.929 . S
H2752 C2766 0.930 . S
H2753 C2768 0.960 . S
H2754 C2768 0.960 . S
H2755 C2768 0.960 . S
C2756 H2748 0.929 . S
C2756 C2757 1.377 . S
C2756 C2758 1.384 . S
C2757 C2756 1.377 . S
C2757 C2763 1.390 . S
C2758 H2749 0.930 . S
C2758 C2756 1.384 . S
C2758 C2759 1.372 . S
C2759 C2758 1.372 . S
C2759 C2760 1.400 . S
C2759 C2764 1.490 . S
C2760 H2750 0.930 . S
C2760 C2759 1.400 . S
C2760 C2763 1.386 . S
H2761 C2777 0.930 . S
H2762 C2778 0.931 . S
C2763 H2751 0.929 . S
C2763 C2757 1.390 . S
C2763 C2760 1.386 . S
C2764 C2759 1.490 . S
C2764 C2766 1.395 . S
C2764 C2767 1.403 . S
H2765 C2771 0.930 . S
C2766 H2752 0.930 . S
C2766 C2764 1.395 . S
C2766 C2769 1.403 . S
C2767 C2764 1.403 . S
C2767 C2768 1.524 . S
C2767 C2771 1.400 . S
C2768 H2753 0.960 . S
C2768 H2754 0.960 . S
C2768 H2755 0.960 . S
C2768 C2767 1.524 . S
C2769 C2766 1.403 . S
C2769 C2770 1.392 . S
C2769 C2773 1.495 . S
C2770 C2769 1.392 . S
C2770 C2771 1.385 . S
C2770 C2772 1.478 . S
C2771 H2765 0.930 . S
C2771 C2767 1.400 . S
C2771 C2770 1.385 . S
C2772 C2770 1.478 . S
C2772 C2774 1.381 . S
C2772 C2778 1.383 . S
C2773 C2769 1.495 . S
C2773 H2779 0.959 . S
C2773 H2780 0.961 . S
C2773 H2781 0.960 . S
C2774 C2772 1.381 . S
C2774 C2775 1.394 . S
C2774 H2782 0.930 . S
C2775 C2774 1.394 . S
C2775 C2776 1.383 . S
C2775 H2783 0.929 . S
C2776 C2775 1.383 . S
C2776 C2777 1.377 . S
C2777 H2761 0.930 . S
C2777 C2776 1.377 . S
C2777 C2778 1.379 . S
C2778 H2762 0.931 . S
C2778 C2772 1.383 . S
C2778 C2777 1.379 . S
H2779 C2773 0.959 . S
H2780 C2773 0.961 . S
H2781 C2773 0.960 . S
H2782 C2774 0.930 . S
H2783 C2775 0.929 . S
H2784 C2792 0.929 . S
H2785 C2794 0.930 . S
H2786 C2796 0.930 . S
H2787 C2799 0.929 . S
H2788 C2802 0.930 . S
H2789 C2804 0.960 1_556 S
H2790 C2804 0.956 . S
H2791 C2804 0.965 1_556 S
C2792 H2784 0.929 . S
C2792 C2793 1.350 1_554 S
C2792 C2794 1.384 . S
C2793 C2792 1.350 1_556 S
C2793 C2799 1.411 . S
C2794 H2785 0.930 . S
C2794 C2792 1.384 . S
C2794 C2795 1.372 . S
C2795 C2794 1.372 . S
C2795 C2796 1.400 1_554 S
C2795 C2800 1.490 . S
C2796 H2786 0.930 . S
C2796 C2795 1.400 1_556 S
C2796 C2799 1.386 . S
H2797 C2813 0.930 1_556 S
H2798 C2814 0.931 1_556 S
C2799 H2787 0.929 . S
C2799 C2793 1.411 . S
C2799 C2796 1.386 . S
C2800 C2795 1.490 . S
C2800 C2802 1.395 . S
C2800 C2803 1.403 . S
H2801 C2807 0.930 . S
C2802 H2788 0.930 . S
C2802 C2800 1.395 . S
C2802 C2805 1.403 . S
C2803 C2800 1.403 . S
C2803 C2804 1.523 . S
C2803 C2807 1.400 . S
C2804 H2789 0.960 1_554 S
C2804 H2790 0.956 . S
C2804 H2791 0.965 1_554 S
C2804 C2803 1.523 . S
C2805 C2802 1.403 . S
C2805 C2806 1.392 . S
C2805 C2809 1.495 1_565 S
C2806 C2805 1.392 . S
C2806 C2807 1.385 . S
C2806 C2808 1.478 . S
C2807 H2801 0.930 . S
C2807 C2803 1.400 . S
C2807 C2806 1.385 . S
C2808 C2806 1.478 . S
C2808 C2810 1.381 . S
C2808 C2814 1.383 . S
C2809 C2805 1.495 1_545 S
C2809 H2815 0.959 . S
C2809 H2816 0.961 . S
C2809 H2817 0.960 . S
C2810 C2808 1.381 . S
C2810 C2811 1.394 . S
C2810 H2818 0.930 . S
C2811 C2810 1.394 . S
C2811 C2812 1.383 . S
C2811 H2819 0.929 . S
C2812 C2811 1.383 . S
C2812 C2813 1.377 . S
C2813 H2797 0.930 1_554 S
C2813 C2812 1.377 . S
C2813 C2814 1.379 . S
C2814 H2798 0.931 1_554 S
C2814 C2808 1.383 . S
C2814 C2813 1.379 . S
H2815 C2809 0.959 . S
H2816 C2809 0.961 . S
H2817 C2809 0.960 . S
H2818 C2810 0.930 . S
H2819 C2811 0.929 . S
H2820 C2828 0.934 . S
H2821 C2830 0.923 1_556 S
H2822 C2832 0.930 . S
H2823 C2835 0.929 . S
H2824 C2838 0.930 . S
H2825 C2840 0.960 . S
H2826 C2840 0.960 . S
H2827 C2840 0.960 . S
C2828 H2820 0.934 . S
C2828 C2829 1.375 1_556 S
C2828 C2830 1.374 1_556 S
C2829 C2828 1.375 1_554 S
C2829 C2835 1.390 . S
C2830 H2821 0.923 1_554 S
C2830 C2828 1.374 1_554 S
C2830 C2831 1.389 . S
C2831 C2830 1.389 . S
C2831 C2832 1.400 . S
C2831 C2836 1.490 . S
C2832 H2822 0.930 . S
C2832 C2831 1.400 . S
C2832 C2835 1.386 . S
H2833 C2849 0.930 . S
H2834 C2850 0.931 . S
C2835 H2823 0.929 . S
C2835 C2829 1.390 . S
C2835 C2832 1.386 . S
C2836 C2831 1.490 . S
C2836 C2838 1.395 . S
C2836 C2839 1.403 1_554 S
H2837 C2843 0.930 1_556 S
C2838 H2824 0.930 . S
C2838 C2836 1.395 . S
C2838 C2841 1.403 . S
C2839 C2836 1.403 1_556 S
C2839 C2840 1.524 . S
C2839 C2843 1.400 1_556 S
C2840 H2825 0.960 . S
C2840 H2826 0.960 . S
C2840 H2827 0.960 . S
C2840 C2839 1.524 . S
C2841 C2838 1.403 . S
C2841 C2842 1.392 . S
C2841 C2845 1.495 . S
C2842 C2841 1.392 . S
C2842 C2843 1.385 . S
C2842 C2844 1.478 . S
C2843 H2837 0.930 1_554 S
C2843 C2839 1.400 1_554 S
C2843 C2842 1.385 . S
C2844 C2842 1.478 . S
C2844 C2846 1.381 . S
C2844 C2850 1.383 . S
C2845 C2841 1.495 . S
C2845 H2851 0.959 . S
C2845 H2852 0.961 . S
C2845 H2853 0.960 . S
C2846 C2844 1.381 . S
C2846 C2847 1.394 . S
C2846 H2854 0.930 . S
C2847 C2846 1.394 . S
C2847 C2848 1.383 . S
C2847 H2855 0.929 . S
C2848 C2847 1.383 . S
C2848 C2849 1.377 . S
C2849 H2833 0.930 . S
C2849 C2848 1.377 . S
C2849 C2850 1.379 . S
C2850 H2834 0.931 . S
C2850 C2844 1.383 . S
C2850 C2849 1.379 . S
H2851 C2845 0.959 . S
H2852 C2845 0.961 . S
H2853 C2845 0.960 . S
H2854 C2846 0.930 . S
H2855 C2847 0.929 . S
H2856 C2864 0.929 . S
H2857 C2866 0.930 . S
H2858 C2868 0.930 . S
H2859 C2871 0.929 . S
H2860 C2874 0.930 . S
H2861 C2876 0.960 . S
H2862 C2876 0.960 . S
H2863 C2876 0.960 . S
C2864 H2856 0.929 . S
C2864 C2865 1.377 . S
C2864 C2866 1.384 . S
C2865 C2864 1.377 . S
C2865 C2871 1.390 . S
C2866 H2857 0.930 . S
C2866 C2864 1.384 . S
C2866 C2867 1.372 . S
C2867 C2866 1.372 . S
C2867 C2868 1.400 . S
C2867 C2872 1.490 . S
C2868 H2858 0.930 . S
C2868 C2867 1.400 . S
C2868 C2871 1.386 . S
H2869 C2885 0.930 . S
H2870 C2886 0.931 . S
C2871 H2859 0.929 . S
C2871 C2865 1.390 . S
C2871 C2868 1.386 . S
C2872 C2867 1.490 . S
C2872 C2874 1.395 . S
C2872 C2875 1.403 . S
H2873 C2879 0.930 . S
C2874 H2860 0.930 . S
C2874 C2872 1.395 . S
C2874 C2877 1.403 . S
C2875 C2872 1.403 . S
C2875 C2876 1.524 . S
C2875 C2879 1.400 . S
C2876 H2861 0.960 . S
C2876 H2862 0.960 . S
C2876 H2863 0.960 . S
C2876 C2875 1.524 . S
C2877 C2874 1.403 . S
C2877 C2878 1.392 . S
C2877 C2881 1.495 . S
C2878 C2877 1.392 . S
C2878 C2879 1.385 . S
C2878 C2880 1.478 . S
C2879 H2873 0.930 . S
C2879 C2875 1.400 . S
C2879 C2878 1.385 . S
C2880 C2878 1.478 . S
C2880 C2882 1.381 . S
C2880 C2886 1.383 . S
C2881 C2877 1.495 . S
C2881 H2887 0.959 . S
C2881 H2888 0.961 . S
C2881 H2889 0.960 . S
C2882 C2880 1.381 . S
C2882 C2883 1.394 . S
C2882 H2890 0.930 . S
C2883 C2882 1.394 . S
C2883 C2884 1.383 . S
C2883 H2891 0.929 . S
C2884 C2883 1.383 . S
C2884 C2885 1.377 . S
C2885 H2869 0.930 . S
C2885 C2884 1.377 . S
C2885 C2886 1.379 . S
C2886 H2870 0.931 . S
C2886 C2880 1.383 . S
C2886 C2885 1.379 . S
H2887 C2881 0.959 . S
H2888 C2881 0.961 . S
H2889 C2881 0.960 . S
H2890 C2882 0.930 . S
H2891 C2883 0.929 . S
H2892 C2900 0.929 . S
H2893 C2902 0.930 . S
H2894 C2904 0.930 . S
H2895 C2907 0.929 . S
H2896 C2910 0.930 . S
H2897 C2912 0.960 . S
H2898 C2912 0.960 . S
H2899 C2912 0.960 . S
C2900 H2892 0.929 . S
C2900 C2901 1.377 . S
C2900 C2902 1.384 . S
C2901 C2900 1.377 . S
C2901 C2907 1.390 . S
C2902 H2893 0.930 . S
C2902 C2900 1.384 . S
C2902 C2903 1.372 . S
C2903 C2902 1.372 . S
C2903 C2904 1.400 . S
C2903 C2908 1.490 . S
C2904 H2894 0.930 . S
C2904 C2903 1.400 . S
C2904 C2907 1.386 . S
H2905 C2921 0.930 . S
H2906 C2922 0.931 . S
C2907 H2895 0.929 . S
C2907 C2901 1.390 . S
C2907 C2904 1.386 . S
C2908 C2903 1.490 . S
C2908 C2910 1.395 . S
C2908 C2911 1.403 . S
H2909 C2915 0.930 . S
C2910 H2896 0.930 . S
C2910 C2908 1.395 . S
C2910 C2913 1.403 . S
C2911 C2908 1.403 . S
C2911 C2912 1.524 . S
C2911 C2915 1.400 . S
C2912 H2897 0.960 . S
C2912 H2898 0.960 . S
C2912 H2899 0.960 . S
C2912 C2911 1.524 . S
C2913 C2910 1.403 . S
C2913 C2914 1.392 . S
C2913 C2917 1.495 . S
C2914 C2913 1.392 . S
C2914 C2915 1.385 . S
C2914 C2916 1.478 . S
C2915 H2909 0.930 . S
C2915 C2911 1.400 . S
C2915 C2914 1.385 . S
C2916 C2914 1.478 . S
C2916 C2918 1.381 . S
C2916 C2922 1.383 . S
C2917 C2913 1.495 . S
C2917 H2923 0.959 . S
C2917 H2924 0.961 . S
C2917 H2925 0.960 . S
C2918 C2916 1.381 . S
C2918 C2919 1.394 . S
C2918 H2926 0.930 . S
C2919 C2918 1.394 . S
C2919 C2920 1.383 . S
C2919 H2927 0.929 . S
C2920 C2919 1.383 . S
C2920 C2921 1.377 . S
C2921 H2905 0.930 . S
C2921 C2920 1.377 . S
C2921 C2922 1.379 . S
C2922 H2906 0.931 . S
C2922 C2916 1.383 . S
C2922 C2921 1.379 . S
H2923 C2917 0.959 . S
H2924 C2917 0.961 . S
H2925 C2917 0.960 . S
H2926 C2918 0.930 . S
H2927 C2919 0.929 . S
H2928 C2936 0.929 . S
H2929 C2938 0.930 . S
H2930 C2940 0.930 . S
H2931 C2943 0.929 . S
H2932 C2946 0.930 . S
H2933 C2948 0.960 . S
H2934 C2948 0.960 . S
H2935 C2948 0.960 . S
C2936 H2928 0.929 . S
C2936 C2937 1.377 . S
C2936 C2938 1.384 . S
C2937 C2936 1.377 . S
C2937 C2943 1.390 . S
C2938 H2929 0.930 . S
C2938 C2936 1.384 . S
C2938 C2939 1.372 . S
C2939 C2938 1.372 . S
C2939 C2940 1.400 . S
C2939 C2944 1.490 . S
C2940 H2930 0.930 . S
C2940 C2939 1.400 . S
C2940 C2943 1.386 . S
H2941 C2957 0.930 . S
H2942 C2958 0.931 . S
C2943 H2931 0.929 . S
C2943 C2937 1.390 . S
C2943 C2940 1.386 . S
C2944 C2939 1.490 . S
C2944 C2946 1.395 . S
C2944 C2947 1.403 . S
H2945 C2951 0.930 . S
C2946 H2932 0.930 . S
C2946 C2944 1.395 . S
C2946 C2949 1.403 . S
C2947 C2944 1.403 . S
C2947 C2948 1.524 . S
C2947 C2951 1.400 . S
C2948 H2933 0.960 . S
C2948 H2934 0.960 . S
C2948 H2935 0.960 . S
C2948 C2947 1.524 . S
C2949 C2946 1.403 . S
C2949 C2950 1.392 . S
C2949 C2953 1.495 . S
C2950 C2949 1.392 . S
C2950 C2951 1.385 . S
C2950 C2952 1.478 . S
C2951 H2945 0.930 . S
C2951 C2947 1.400 . S
C2951 C2950 1.385 . S
C2952 C2950 1.478 . S
C2952 C2954 1.381 . S
C2952 C2958 1.383 . S
C2953 C2949 1.495 . S
C2953 H2959 0.959 . S
C2953 H2960 0.961 . S
C2953 H2961 0.960 . S
C2954 C2952 1.381 . S
C2954 C2955 1.394 . S
C2954 H2962 0.930 . S
C2955 C2954 1.394 . S
C2955 C2956 1.383 . S
C2955 H2963 0.929 . S
C2956 C2955 1.383 . S
C2956 C2957 1.377 . S
C2957 H2941 0.930 . S
C2957 C2956 1.377 . S
C2957 C2958 1.379 . S
C2958 H2942 0.931 . S
C2958 C2952 1.383 . S
C2958 C2957 1.379 . S
H2959 C2953 0.959 . S
H2960 C2953 0.961 . S
H2961 C2953 0.960 . S
H2962 C2954 0.930 . S
H2963 C2955 0.929 . S
H2964 C2972 0.929 . S
H2965 C2974 0.930 . S
H2966 C2976 0.930 . S
H2967 C2979 0.929 . S
H2968 C2982 0.930 . S
H2969 C2984 0.960 . S
H2970 C2984 0.960 . S
H2971 C2984 0.960 . S
C2972 H2964 0.929 . S
C2972 C2973 1.377 . S
C2972 C2974 1.384 . S
C2973 C2972 1.377 . S
C2973 C2979 1.390 . S
C2974 H2965 0.930 . S
C2974 C2972 1.384 . S
C2974 C2975 1.372 . S
C2975 C2974 1.372 . S
C2975 C2976 1.400 . S
C2975 C2980 1.490 . S
C2976 H2966 0.930 . S
C2976 C2975 1.400 . S
C2976 C2979 1.386 . S
H2977 C2993 0.930 . S
H2978 C2994 0.931 . S
C2979 H2967 0.929 . S
C2979 C2973 1.390 . S
C2979 C2976 1.386 . S
C2980 C2975 1.490 . S
C2980 C2982 1.395 . S
C2980 C2983 1.403 . S
H2981 C2987 0.930 . S
C2982 H2968 0.930 . S
C2982 C2980 1.395 . S
C2982 C2985 1.403 . S
C2983 C2980 1.403 . S
C2983 C2984 1.524 . S
C2983 C2987 1.400 . S
C2984 H2969 0.960 . S
C2984 H2970 0.960 . S
C2984 H2971 0.960 . S
C2984 C2983 1.524 . S
C2985 C2982 1.403 . S
C2985 C2986 1.392 . S
C2985 C2989 1.495 . S
C2986 C2985 1.392 . S
C2986 C2987 1.385 . S
C2986 C2988 1.478 . S
C2987 H2981 0.930 . S
C2987 C2983 1.400 . S
C2987 C2986 1.385 . S
C2988 C2986 1.478 . S
C2988 C2990 1.381 . S
C2988 C2994 1.383 . S
C2989 C2985 1.495 . S
C2989 H2995 0.959 . S
C2989 H2996 0.961 . S
C2989 H2997 0.960 . S
C2990 C2988 1.381 . S
C2990 C2991 1.394 . S
C2990 H2998 0.930 . S
C2991 C2990 1.394 . S
C2991 C2992 1.383 . S
C2991 H2999 0.929 . S
C2992 C2991 1.383 . S
C2992 C2993 1.377 . S
C2993 H2977 0.930 . S
C2993 C2992 1.377 . S
C2993 C2994 1.379 . S
C2994 H2978 0.931 . S
C2994 C2988 1.383 . S
C2994 C2993 1.379 . S
H2995 C2989 0.959 . S
H2996 C2989 0.961 . S
H2997 C2989 0.960 . S
H2998 C2990 0.930 . S
H2999 C2991 0.929 . S
H3000 C3008 0.929 . S
H3001 C3010 0.930 . S
H3002 C3012 0.930 . S
H3003 C3015 0.929 . S
H3004 C3018 0.930 . S
H3005 C3020 0.960 . S
H3006 C3020 0.960 . S
H3007 C3020 0.960 . S
C3008 H3000 0.929 . S
C3008 C3009 1.377 . S
C3008 C3010 1.384 . S
C3009 C3008 1.377 . S
C3009 C3015 1.390 . S
C3010 H3001 0.930 . S
C3010 C3008 1.384 . S
C3010 C3011 1.372 . S
C3011 C3010 1.372 . S
C3011 C3012 1.400 . S
C3011 C3016 1.490 . S
C3012 H3002 0.930 . S
C3012 C3011 1.400 . S
C3012 C3015 1.386 . S
H3013 C3029 0.930 . S
H3014 C3030 0.931 . S
C3015 H3003 0.929 . S
C3015 C3009 1.390 . S
C3015 C3012 1.386 . S
C3016 C3011 1.490 . S
C3016 C3018 1.395 . S
C3016 C3019 1.403 . S
H3017 C3023 0.930 . S
C3018 H3004 0.930 . S
C3018 C3016 1.395 . S
C3018 C3021 1.403 . S
C3019 C3016 1.403 . S
C3019 C3020 1.524 . S
C3019 C3023 1.400 . S
C3020 H3005 0.960 . S
C3020 H3006 0.960 . S
C3020 H3007 0.960 . S
C3020 C3019 1.524 . S
C3021 C3018 1.403 . S
C3021 C3022 1.392 . S
C3021 C3025 1.495 . S
C3022 C3021 1.392 . S
C3022 C3023 1.385 . S
C3022 C3024 1.478 . S
C3023 H3017 0.930 . S
C3023 C3019 1.400 . S
C3023 C3022 1.385 . S
C3024 C3022 1.478 . S
C3024 C3026 1.381 . S
C3024 C3030 1.383 . S
C3025 C3021 1.495 . S
C3025 H3031 0.959 . S
C3025 H3032 0.961 . S
C3025 H3033 0.960 . S
C3026 C3024 1.381 . S
C3026 C3027 1.394 . S
C3026 H3034 0.930 . S
C3027 C3026 1.394 . S
C3027 C3028 1.383 . S
C3027 H3035 0.929 . S
C3028 C3027 1.383 . S
C3028 C3029 1.377 . S
C3029 H3013 0.930 . S
C3029 C3028 1.377 . S
C3029 C3030 1.379 . S
C3030 H3014 0.931 . S
C3030 C3024 1.383 . S
C3030 C3029 1.379 . S
H3031 C3025 0.959 . S
H3032 C3025 0.961 . S
H3033 C3025 0.960 . S
H3034 C3026 0.930 . S
H3035 C3027 0.929 . S
H3036 C3044 0.929 . S
H3037 C3046 0.930 . S
H3038 C3048 0.930 . S
H3039 C3051 0.929 . S
H3040 C3054 0.930 . S
H3041 C3056 0.960 . S
H3042 C3056 0.960 . S
H3043 C3056 0.960 . S
C3044 H3036 0.929 . S
C3044 C3045 1.377 . S
C3044 C3046 1.384 . S
C3045 C3044 1.377 . S
C3045 C3051 1.390 . S
C3046 H3037 0.930 . S
C3046 C3044 1.384 . S
C3046 C3047 1.372 . S
C3047 C3046 1.372 . S
C3047 C3048 1.400 . S
C3047 C3052 1.490 . S
C3048 H3038 0.930 . S
C3048 C3047 1.400 . S
C3048 C3051 1.386 . S
H3049 C3065 0.930 . S
H3050 C3066 0.931 . S
C3051 H3039 0.929 . S
C3051 C3045 1.390 . S
C3051 C3048 1.386 . S
C3052 C3047 1.490 . S
C3052 C3054 1.395 . S
C3052 C3055 1.403 . S
H3053 C3059 0.930 . S
C3054 H3040 0.930 . S
C3054 C3052 1.395 . S
C3054 C3057 1.403 . S
C3055 C3052 1.403 . S
C3055 C3056 1.524 . S
C3055 C3059 1.400 . S
C3056 H3041 0.960 . S
C3056 H3042 0.960 . S
C3056 H3043 0.960 . S
C3056 C3055 1.524 . S
C3057 C3054 1.403 . S
C3057 C3058 1.392 . S
C3057 C3061 1.495 . S
C3058 C3057 1.392 . S
C3058 C3059 1.385 . S
C3058 C3060 1.478 . S
C3059 H3053 0.930 . S
C3059 C3055 1.400 . S
C3059 C3058 1.385 . S
C3060 C3058 1.478 . S
C3060 C3062 1.381 . S
C3060 C3066 1.383 . S
C3061 C3057 1.495 . S
C3061 H3067 0.959 . S
C3061 H3068 0.961 . S
C3061 H3069 0.960 . S
C3062 C3060 1.381 . S
C3062 C3063 1.394 . S
C3062 H3070 0.930 . S
C3063 C3062 1.394 . S
C3063 C3064 1.383 . S
C3063 H3071 0.929 . S
C3064 C3063 1.383 . S
C3064 C3065 1.377 . S
C3065 H3049 0.930 . S
C3065 C3064 1.377 . S
C3065 C3066 1.379 . S
C3066 H3050 0.931 . S
C3066 C3060 1.383 . S
C3066 C3065 1.379 . S
H3067 C3061 0.959 . S
H3068 C3061 0.961 . S
H3069 C3061 0.960 . S
H3070 C3062 0.930 . S
H3071 C3063 0.929 . S
H3072 C3080 0.929 . S
H3073 C3082 0.930 . S
H3074 C3084 0.930 . S
H3075 C3087 0.929 . S
H3076 C3090 0.930 . S
H3077 C3092 0.960 . S
H3078 C3092 0.960 . S
H3079 C3092 0.960 . S
C3080 H3072 0.929 . S
C3080 C3081 1.377 . S
C3080 C3082 1.384 . S
C3081 C3080 1.377 . S
C3081 C3087 1.390 . S
C3082 H3073 0.930 . S
C3082 C3080 1.384 . S
C3082 C3083 1.372 . S
C3083 C3082 1.372 . S
C3083 C3084 1.400 . S
C3083 C3088 1.490 . S
C3084 H3074 0.930 . S
C3084 C3083 1.400 . S
C3084 C3087 1.386 . S
H3085 C3101 0.940 . S
H3086 C3102 0.931 . S
C3087 H3075 0.929 . S
C3087 C3081 1.390 . S
C3087 C3084 1.386 . S
C3088 C3083 1.490 . S
C3088 C3090 1.395 . S
C3088 C3091 1.403 . S
H3089 C3095 0.930 . S
C3090 H3076 0.930 . S
C3090 C3088 1.395 . S
C3090 C3093 1.403 . S
C3091 C3088 1.403 . S
C3091 C3092 1.524 . S
C3091 C3095 1.400 . S
C3092 H3077 0.960 . S
C3092 H3078 0.960 . S
C3092 H3079 0.960 . S
C3092 C3091 1.524 . S
C3093 C3090 1.403 . S
C3093 C3094 1.392 . S
C3093 C3097 1.495 . S
C3094 C3093 1.392 . S
C3094 C3095 1.385 . S
C3094 C3096 1.478 . S
C3095 H3089 0.930 . S
C3095 C3091 1.400 . S
C3095 C3094 1.385 . S
C3096 C3094 1.478 . S
C3096 C3098 1.381 . S
C3096 C3102 1.383 . S
C3097 C3093 1.495 . S
C3097 H3103 0.959 . S
C3097 H3104 0.961 . S
C3097 H3105 0.960 . S
C3098 C3096 1.381 . S
C3098 C3099 1.394 . S
C3098 H3106 0.930 . S
C3099 C3098 1.394 . S
C3099 C3100 1.383 . S
C3099 H3107 0.929 . S
C3100 C3099 1.383 . S
C3100 C3101 1.377 . S
C3101 H3085 0.940 . S
C3101 C3100 1.377 . S
C3101 C3102 1.379 . S
C3102 H3086 0.931 . S
C3102 C3096 1.383 . S
C3102 C3101 1.379 . S
H3103 C3097 0.959 . S
H3104 C3097 0.961 . S
H3105 C3097 0.960 . S
H3106 C3098 0.930 . S
H3107 C3099 0.929 . S
H3108 C3116 0.929 . S
H3109 C3118 0.930 . S
H3110 C3120 0.930 . S
H3111 C3123 0.929 . S
H3112 C3126 0.930 . S
H3113 C3128 0.960 . S
H3114 C3128 0.960 . S
H3115 C3128 0.960 . S
C3116 H3108 0.929 . S
C3116 C3117 1.377 . S
C3116 C3118 1.384 . S
C3117 C3116 1.377 . S
C3117 C3123 1.390 . S
C3118 H3109 0.930 . S
C3118 C3116 1.384 . S
C3118 C3119 1.372 . S
C3119 C3118 1.372 . S
C3119 C3120 1.400 . S
C3119 C3124 1.490 . S
C3120 H3110 0.930 . S
C3120 C3119 1.400 . S
C3120 C3123 1.386 . S
H3121 C3137 0.930 . S
H3122 C3138 0.931 . S
C3123 H3111 0.929 . S
C3123 C3117 1.390 . S
C3123 C3120 1.386 . S
C3124 C3119 1.490 . S
C3124 C3126 1.395 . S
C3124 C3127 1.403 . S
H3125 C3131 0.930 . S
C3126 H3112 0.930 . S
C3126 C3124 1.395 . S
C3126 C3129 1.403 . S
C3127 C3124 1.403 . S
C3127 C3128 1.524 . S
C3127 C3131 1.400 . S
C3128 H3113 0.960 . S
C3128 H3114 0.960 . S
C3128 H3115 0.960 . S
C3128 C3127 1.524 . S
C3129 C3126 1.403 . S
C3129 C3130 1.392 . S
C3129 C3133 1.495 . S
C3130 C3129 1.392 . S
C3130 C3131 1.385 . S
C3130 C3132 1.478 . S
C3131 H3125 0.930 . S
C3131 C3127 1.400 . S
C3131 C3130 1.385 . S
C3132 C3130 1.478 . S
C3132 C3134 1.381 . S
C3132 C3138 1.383 . S
C3133 C3129 1.495 . S
C3133 H3139 0.959 . S
C3133 H3140 0.961 . S
C3133 H3141 0.960 . S
C3134 C3132 1.381 . S
C3134 C3135 1.394 . S
C3134 H3142 0.930 . S
C3135 C3134 1.394 . S
C3135 C3136 1.383 . S
C3135 H3143 0.929 . S
C3136 C3135 1.383 . S
C3136 C3137 1.377 . S
C3137 H3121 0.930 . S
C3137 C3136 1.377 . S
C3137 C3138 1.379 . S
C3138 H3122 0.931 . S
C3138 C3132 1.383 . S
C3138 C3137 1.379 . S
H3139 C3133 0.959 . S
H3140 C3133 0.961 . S
H3141 C3133 0.960 . S
H3142 C3134 0.930 . S
H3143 C3135 0.929 . S
H3144 C3152 0.929 . S
H3145 C3154 0.930 . S
H3146 C3156 0.930 . S
H3147 C3159 0.929 . S
H3148 C3162 0.930 . S
H3149 C3164 0.960 . S
H3150 C3164 0.960 . S
H3151 C3164 0.960 . S
C3152 H3144 0.929 . S
C3152 C3153 1.377 . S
C3152 C3154 1.384 . S
C3153 C3152 1.377 . S
C3153 C3159 1.390 . S
C3154 H3145 0.930 . S
C3154 C3152 1.384 . S
C3154 C3155 1.372 . S
C3155 C3154 1.372 . S
C3155 C3156 1.400 . S
C3155 C3160 1.490 . S
C3156 H3146 0.930 . S
C3156 C3155 1.400 . S
C3156 C3159 1.386 . S
H3157 C3173 0.930 . S
H3158 C3174 0.931 . S
C3159 H3147 0.929 . S
C3159 C3153 1.390 . S
C3159 C3156 1.386 . S
C3160 C3155 1.490 . S
C3160 C3162 1.395 . S
C3160 C3163 1.403 . S
H3161 C3167 0.930 . S
C3162 H3148 0.930 . S
C3162 C3160 1.395 . S
C3162 C3165 1.403 . S
C3163 C3160 1.403 . S
C3163 C3164 1.524 . S
C3163 C3167 1.400 . S
C3164 H3149 0.960 . S
C3164 H3150 0.960 . S
C3164 H3151 0.960 . S
C3164 C3163 1.524 . S
C3165 C3162 1.403 . S
C3165 C3166 1.392 . S
C3165 C3169 1.495 . S
C3166 C3165 1.392 . S
C3166 C3167 1.385 . S
C3166 C3168 1.478 . S
C3167 H3161 0.930 . S
C3167 C3163 1.400 . S
C3167 C3166 1.385 . S
C3168 C3166 1.478 . S
C3168 C3170 1.381 . S
C3168 C3174 1.383 . S
C3169 C3165 1.495 . S
C3169 H3175 0.959 . S
C3169 H3176 0.961 . S
C3169 H3177 0.960 . S
C3170 C3168 1.381 . S
C3170 C3171 1.394 . S
C3170 H3178 0.930 . S
C3171 C3170 1.394 . S
C3171 C3172 1.383 . S
C3171 H3179 0.929 . S
C3172 C3171 1.383 . S
C3172 C3173 1.377 . S
C3173 H3157 0.930 . S
C3173 C3172 1.377 . S
C3173 C3174 1.379 . S
C3174 H3158 0.931 . S
C3174 C3168 1.383 . S
C3174 C3173 1.379 . S
H3175 C3169 0.959 . S
H3176 C3169 0.961 . S
H3177 C3169 0.960 . S
H3178 C3170 0.930 . S
H3179 C3171 0.929 . S
H3180 C3188 0.929 . S
H3181 C3190 0.930 . S
H3182 C3192 0.930 . S
H3183 C3195 0.929 . S
H3184 C3198 0.930 . S
H3185 C3200 0.960 . S
H3186 C3200 0.960 . S
H3187 C3200 0.960 . S
C3188 H3180 0.929 . S
C3188 C3189 1.377 . S
C3188 C3190 1.384 . S
C3189 C3188 1.377 . S
C3189 C3195 1.390 . S
C3190 H3181 0.930 . S
C3190 C3188 1.384 . S
C3190 C3191 1.372 . S
C3191 C3190 1.372 . S
C3191 C3192 1.400 . S
C3191 C3196 1.490 . S
C3192 H3182 0.930 . S
C3192 C3191 1.400 . S
C3192 C3195 1.386 . S
H3193 C3209 0.930 . S
H3194 C3210 0.931 . S
C3195 H3183 0.929 . S
C3195 C3189 1.390 . S
C3195 C3192 1.386 . S
C3196 C3191 1.490 . S
C3196 C3198 1.395 . S
C3196 C3199 1.403 . S
H3197 C3203 0.930 . S
C3198 H3184 0.930 . S
C3198 C3196 1.395 . S
C3198 C3201 1.403 . S
C3199 C3196 1.403 . S
C3199 C3200 1.524 . S
C3199 C3203 1.400 . S
C3200 H3185 0.960 . S
C3200 H3186 0.960 . S
C3200 H3187 0.960 . S
C3200 C3199 1.524 . S
C3201 C3198 1.403 . S
C3201 C3202 1.392 . S
C3201 C3205 1.495 . S
C3202 C3201 1.392 . S
C3202 C3203 1.385 . S
C3202 C3204 1.478 . S
C3203 H3197 0.930 . S
C3203 C3199 1.400 . S
C3203 C3202 1.385 . S
C3204 C3202 1.478 . S
C3204 C3206 1.381 . S
C3204 C3210 1.383 . S
C3205 C3201 1.495 . S
C3205 H3211 0.959 . S
C3205 H3212 0.961 . S
C3205 H3213 0.960 . S
C3206 C3204 1.381 . S
C3206 C3207 1.394 . S
C3206 H3214 0.930 . S
C3207 C3206 1.394 . S
C3207 C3208 1.383 . S
C3207 H3215 0.929 . S
C3208 C3207 1.383 . S
C3208 C3209 1.377 . S
C3209 H3193 0.930 . S
C3209 C3208 1.377 . S
C3209 C3210 1.379 . S
C3210 H3194 0.931 . S
C3210 C3204 1.383 . S
C3210 C3209 1.379 . S
H3211 C3205 0.959 . S
H3212 C3205 0.961 . S
H3213 C3205 0.960 . S
H3214 C3206 0.930 . S
H3215 C3207 0.929 . S
H3216 C3224 0.929 . S
H3217 C3226 0.930 . S
H3218 C3228 0.930 . S
H3219 C3231 0.929 . S
H3220 C3234 0.930 . S
H3221 C3236 0.960 . S
H3222 C3236 0.960 . S
H3223 C3236 0.960 . S
C3224 H3216 0.929 . S
C3224 C3225 1.377 . S
C3224 C3226 1.384 . S
C3225 C3224 1.377 . S
C3225 C3231 1.390 . S
C3226 H3217 0.930 . S
C3226 C3224 1.384 . S
C3226 C3227 1.372 . S
C3227 C3226 1.372 . S
C3227 C3228 1.400 . S
C3227 C3232 1.490 . S
C3228 H3218 0.930 . S
C3228 C3227 1.400 . S
C3228 C3231 1.386 . S
H3229 C3245 0.930 . S
H3230 C3246 0.931 . S
C3231 H3219 0.929 . S
C3231 C3225 1.390 . S
C3231 C3228 1.386 . S
C3232 C3227 1.490 . S
C3232 C3234 1.395 . S
C3232 C3235 1.403 . S
H3233 C3239 0.930 . S
C3234 H3220 0.930 . S
C3234 C3232 1.395 . S
C3234 C3237 1.403 . S
C3235 C3232 1.403 . S
C3235 C3236 1.524 . S
C3235 C3239 1.400 . S
C3236 H3221 0.960 . S
C3236 H3222 0.960 . S
C3236 H3223 0.960 . S
C3236 C3235 1.524 . S
C3237 C3234 1.403 . S
C3237 C3238 1.392 . S
C3237 C3241 1.495 1_455 S
C3238 C3237 1.392 . S
C3238 C3239 1.385 . S
C3238 C3240 1.478 . S
C3239 H3233 0.930 . S
C3239 C3235 1.400 . S
C3239 C3238 1.385 . S
C3240 C3238 1.478 . S
C3240 C3242 1.381 . S
C3240 C3246 1.383 . S
C3241 C3237 1.495 1_655 S
C3241 H3247 0.959 . S
C3241 H3248 0.961 . S
C3241 H3249 0.960 . S
C3242 C3240 1.381 . S
C3242 C3243 1.394 . S
C3242 H3250 0.930 . S
C3243 C3242 1.394 . S
C3243 C3244 1.383 . S
C3243 H3251 0.929 . S
C3244 C3243 1.383 . S
C3244 C3245 1.377 . S
C3245 H3229 0.930 . S
C3245 C3244 1.377 . S
C3245 C3246 1.379 . S
C3246 H3230 0.931 . S
C3246 C3240 1.383 . S
C3246 C3245 1.379 . S
H3247 C3241 0.959 . S
H3248 C3241 0.961 . S
H3249 C3241 0.960 . S
H3250 C3242 0.930 . S
H3251 C3243 0.929 . S
H3252 C3260 0.929 . S
H3253 C3262 0.930 . S
H3254 C3264 0.930 . S
H3255 C3267 0.929 . S
H3256 C3270 0.930 . S
H3257 C3272 0.960 . S
H3258 C3272 0.960 . S
H3259 C3272 0.960 . S
C3260 H3252 0.929 . S
C3260 C3261 1.377 . S
C3260 C3262 1.384 . S
C3261 C3260 1.377 . S
C3261 C3267 1.390 . S
C3262 H3253 0.930 . S
C3262 C3260 1.384 . S
C3262 C3263 1.372 . S
C3263 C3262 1.372 . S
C3263 C3264 1.400 . S
C3263 C3268 1.490 . S
C3264 H3254 0.930 . S
C3264 C3263 1.400 . S
C3264 C3267 1.386 . S
H3265 C3281 0.930 . S
H3266 C3282 0.931 . S
C3267 H3255 0.929 . S
C3267 C3261 1.390 . S
C3267 C3264 1.386 . S
C3268 C3263 1.490 . S
C3268 C3270 1.395 . S
C3268 C3271 1.403 . S
H3269 C3275 0.930 . S
C3270 H3256 0.930 . S
C3270 C3268 1.395 . S
C3270 C3273 1.403 . S
C3271 C3268 1.403 . S
C3271 C3272 1.524 . S
C3271 C3275 1.400 . S
C3272 H3257 0.960 . S
C3272 H3258 0.960 . S
C3272 H3259 0.960 . S
C3272 C3271 1.524 . S
C3273 C3270 1.403 . S
C3273 C3274 1.392 . S
C3273 C3277 1.495 . S
C3274 C3273 1.392 . S
C3274 C3275 1.385 . S
C3274 C3276 1.478 . S
C3275 H3269 0.930 . S
C3275 C3271 1.400 . S
C3275 C3274 1.385 . S
C3276 C3274 1.478 . S
C3276 C3278 1.381 . S
C3276 C3282 1.383 . S
C3277 C3273 1.495 . S
C3277 H3283 0.959 . S
C3277 H3284 0.961 . S
C3277 H3285 0.960 . S
C3278 C3276 1.381 . S
C3278 C3279 1.394 . S
C3278 H3286 0.930 . S
C3279 C3278 1.394 . S
C3279 C3280 1.383 . S
C3279 H3287 0.929 . S
C3280 C3279 1.383 . S
C3280 C3281 1.377 . S
C3281 H3265 0.930 . S
C3281 C3280 1.377 . S
C3281 C3282 1.379 . S
C3282 H3266 0.931 . S
C3282 C3276 1.383 . S
C3282 C3281 1.379 . S
H3283 C3277 0.959 . S
H3284 C3277 0.961 . S
H3285 C3277 0.960 . S
H3286 C3278 0.930 . S
H3287 C3279 0.929 . S
H3288 C3296 0.929 . S
H3289 C3298 0.930 . S
H3290 C3300 0.930 . S
H3291 C3303 0.929 . S
H3292 C3306 0.930 . S
H3293 C3308 0.960 . S
H3294 C3308 0.960 . S
H3295 C3308 0.960 . S
C3296 H3288 0.929 . S
C3296 C3297 1.377 . S
C3296 C3298 1.384 . S
C3297 C3296 1.377 . S
C3297 C3303 1.390 . S
C3298 H3289 0.930 . S
C3298 C3296 1.384 . S
C3298 C3299 1.372 . S
C3299 C3298 1.372 . S
C3299 C3300 1.400 . S
C3299 C3304 1.490 . S
C3300 H3290 0.930 . S
C3300 C3299 1.400 . S
C3300 C3303 1.386 . S
H3301 C3317 0.930 . S
H3302 C3318 0.931 . S
C3303 H3291 0.929 . S
C3303 C3297 1.390 . S
C3303 C3300 1.386 . S
C3304 C3299 1.490 . S
C3304 C3306 1.395 . S
C3304 C3307 1.403 . S
H3305 C3311 0.930 . S
C3306 H3292 0.930 . S
C3306 C3304 1.395 . S
C3306 C3309 1.403 . S
C3307 C3304 1.403 . S
C3307 C3308 1.524 . S
C3307 C3311 1.400 . S
C3308 H3293 0.960 . S
C3308 H3294 0.960 . S
C3308 H3295 0.960 . S
C3308 C3307 1.524 . S
C3309 C3306 1.403 . S
C3309 C3310 1.392 . S
C3309 C3313 1.495 . S
C3310 C3309 1.392 . S
C3310 C3311 1.385 . S
C3310 C3312 1.478 . S
C3311 H3305 0.930 . S
C3311 C3307 1.400 . S
C3311 C3310 1.385 . S
C3312 C3310 1.478 . S
C3312 C3314 1.381 . S
C3312 C3318 1.383 . S
C3313 C3309 1.495 . S
C3313 H3319 0.959 . S
C3313 H3320 0.961 . S
C3313 H3321 0.960 . S
C3314 C3312 1.381 . S
C3314 C3315 1.394 . S
C3314 H3322 0.930 . S
C3315 C3314 1.394 . S
C3315 C3316 1.383 . S
C3315 H3323 0.929 1_556 S
C3316 C3315 1.383 . S
C3316 C3317 1.377 . S
C3317 H3301 0.930 . S
C3317 C3316 1.377 . S
C3317 C3318 1.379 . S
C3318 H3302 0.931 . S
C3318 C3312 1.383 . S
C3318 C3317 1.379 . S
H3319 C3313 0.959 . S
H3320 C3313 0.961 . S
H3321 C3313 0.960 . S
H3322 C3314 0.930 . S
H3323 C3315 0.929 1_554 S
H3324 C3332 0.929 . S
H3325 C3334 0.930 . S
H3326 C3336 0.930 . S
H3327 C3339 0.929 . S
H3328 C3342 0.930 . S
H3329 C3344 0.960 . S
H3330 C3344 0.960 . S
H3331 C3344 0.960 . S
C3332 H3324 0.929 . S
C3332 C3333 1.377 . S
C3332 C3334 1.384 . S
C3333 C3332 1.377 . S
C3333 C3339 1.390 . S
C3334 H3325 0.930 . S
C3334 C3332 1.384 . S
C3334 C3335 1.372 . S
C3335 C3334 1.372 . S
C3335 C3336 1.400 . S
C3335 C3340 1.490 . S
C3336 H3326 0.930 . S
C3336 C3335 1.400 . S
C3336 C3339 1.386 . S
H3337 C3353 0.930 . S
H3338 C3354 0.931 . S
C3339 H3327 0.929 . S
C3339 C3333 1.390 . S
C3339 C3336 1.386 . S
C3340 C3335 1.490 . S
C3340 C3342 1.395 . S
C3340 C3343 1.403 . S
H3341 C3347 0.930 . S
C3342 H3328 0.930 . S
C3342 C3340 1.395 . S
C3342 C3345 1.403 . S
C3343 C3340 1.403 . S
C3343 C3344 1.524 . S
C3343 C3347 1.400 . S
C3344 H3329 0.960 . S
C3344 H3330 0.960 . S
C3344 H3331 0.960 . S
C3344 C3343 1.524 . S
C3345 C3342 1.403 . S
C3345 C3346 1.392 . S
C3345 C3349 1.495 . S
C3346 C3345 1.392 . S
C3346 C3347 1.385 . S
C3346 C3348 1.478 . S
C3347 H3341 0.930 . S
C3347 C3343 1.400 . S
C3347 C3346 1.385 . S
C3348 C3346 1.478 . S
C3348 C3350 1.381 . S
C3348 C3354 1.383 . S
C3349 C3345 1.495 . S
C3349 H3355 0.959 . S
C3349 H3356 0.961 . S
C3349 H3357 0.960 . S
C3350 C3348 1.381 . S
C3350 C3351 1.394 . S
C3350 H3358 0.930 . S
C3351 C3350 1.394 . S
C3351 C3352 1.383 . S
C3351 H3359 0.929 . S
C3352 C3351 1.383 . S
C3352 C3353 1.377 . S
C3353 H3337 0.930 . S
C3353 C3352 1.377 . S
C3353 C3354 1.379 . S
C3354 H3338 0.931 . S
C3354 C3348 1.383 . S
C3354 C3353 1.379 . S
H3355 C3349 0.959 . S
H3356 C3349 0.961 . S
H3357 C3349 0.960 . S
H3358 C3350 0.930 . S
H3359 C3351 0.929 . S
H3360 C3368 0.929 . S
H3361 C3370 0.930 . S
H3362 C3372 0.930 . S
H3363 C3375 0.929 . S
H3364 C3378 0.920 1_565 S
H3365 C3380 0.960 . S
H3366 C3380 0.960 . S
H3367 C3380 0.960 . S
C3368 H3360 0.929 . S
C3368 C3369 1.377 . S
C3368 C3370 1.384 . S
C3369 C3368 1.377 . S
C3369 C3375 1.390 . S
C3370 H3361 0.930 . S
C3370 C3368 1.384 . S
C3370 C3371 1.372 . S
C3371 C3370 1.372 . S
C3371 C3372 1.400 . S
C3371 C3376 1.490 . S
C3372 H3362 0.930 . S
C3372 C3371 1.400 . S
C3372 C3375 1.386 . S
H3373 C3389 0.930 . S
H3374 C3390 0.931 . S
C3375 H3363 0.929 . S
C3375 C3369 1.390 . S
C3375 C3372 1.386 . S
C3376 C3371 1.490 . S
C3376 C3378 1.395 . S
C3376 C3379 1.403 . S
H3377 C3383 0.930 . S
C3378 H3364 0.920 1_545 S
C3378 C3376 1.395 . S
C3378 C3381 1.403 . S
C3379 C3376 1.403 . S
C3379 C3380 1.524 . S
C3379 C3383 1.400 . S
C3380 H3365 0.960 . S
C3380 H3366 0.960 . S
C3380 H3367 0.960 . S
C3380 C3379 1.524 . S
C3381 C3378 1.403 . S
C3381 C3382 1.392 . S
C3381 C3385 1.495 1_545 S
C3382 C3381 1.392 . S
C3382 C3383 1.385 . S
C3382 C3384 1.478 . S
C3383 H3377 0.930 . S
C3383 C3379 1.400 . S
C3383 C3382 1.385 . S
C3384 C3382 1.478 . S
C3384 C3386 1.381 . S
C3384 C3390 1.383 . S
C3385 C3381 1.495 1_565 S
C3385 H3391 0.959 . S
C3385 H3392 0.961 . S
C3385 H3393 0.960 . S
C3386 C3384 1.381 . S
C3386 C3387 1.394 . S
C3386 H3394 0.930 . S
C3387 C3386 1.394 . S
C3387 C3388 1.383 . S
C3387 H3395 0.929 . S
C3388 C3387 1.383 . S
C3388 C3389 1.377 . S
C3389 H3373 0.930 . S
C3389 C3388 1.377 . S
C3389 C3390 1.379 . S
C3390 H3374 0.931 . S
C3390 C3384 1.383 . S
C3390 C3389 1.379 . S
H3391 C3385 0.959 . S
H3392 C3385 0.961 . S
H3393 C3385 0.960 . S
H3394 C3386 0.930 . S
H3395 C3387 0.929 . S
H3396 C3404 0.929 . S
H3397 C3406 0.930 . S
H3398 C3408 0.930 . S
H3399 C3411 0.929 . S
H3400 C3414 0.930 . S
H3401 C3416 0.960 . S
H3402 C3416 0.960 . S
H3403 C3416 0.960 . S
C3404 H3396 0.929 . S
C3404 C3405 1.377 . S
C3404 C3406 1.384 . S
C3405 C3404 1.377 . S
C3405 C3411 1.390 . S
C3406 H3397 0.930 . S
C3406 C3404 1.384 . S
C3406 C3407 1.372 . S
C3407 C3406 1.372 . S
C3407 C3408 1.400 . S
C3407 C3412 1.490 . S
C3408 H3398 0.930 . S
C3408 C3407 1.400 . S
C3408 C3411 1.386 . S
H3409 C3425 0.930 . S
H3410 C3426 0.931 . S
C3411 H3399 0.929 . S
C3411 C3405 1.390 . S
C3411 C3408 1.386 . S
C3412 C3407 1.490 . S
C3412 C3414 1.395 . S
C3412 C3415 1.403 . S
H3413 C3419 0.930 . S
C3414 H3400 0.930 . S
C3414 C3412 1.395 . S
C3414 C3417 1.403 . S
C3415 C3412 1.403 . S
C3415 C3416 1.524 . S
C3415 C3419 1.400 . S
C3416 H3401 0.960 . S
C3416 H3402 0.960 . S
C3416 H3403 0.960 . S
C3416 C3415 1.524 . S
C3417 C3414 1.403 . S
C3417 C3418 1.392 . S
C3417 C3421 1.495 . S
C3418 C3417 1.392 . S
C3418 C3419 1.385 . S
C3418 C3420 1.478 . S
C3419 H3413 0.930 . S
C3419 C3415 1.400 . S
C3419 C3418 1.385 . S
C3420 C3418 1.478 . S
C3420 C3422 1.381 . S
C3420 C3426 1.383 . S
C3421 C3417 1.495 . S
C3421 H3427 0.959 . S
C3421 H3428 0.961 . S
C3421 H3429 0.960 . S
C3422 C3420 1.381 . S
C3422 C3423 1.394 . S
C3422 H3430 0.930 . S
C3423 C3422 1.394 . S
C3423 C3424 1.383 . S
C3423 H3431 0.929 . S
C3424 C3423 1.383 . S
C3424 C3425 1.377 . S
C3425 H3409 0.930 . S
C3425 C3424 1.377 . S
C3425 C3426 1.379 . S
C3426 H3410 0.931 . S
C3426 C3420 1.383 . S
C3426 C3425 1.379 . S
H3427 C3421 0.959 . S
H3428 C3421 0.961 . S
H3429 C3421 0.960 . S
H3430 C3422 0.930 . S
H3431 C3423 0.929 . S
H3432 C3440 0.929 1_565 S
H3433 C3442 0.930 1_565 S
H3434 C3444 0.930 . S
H3435 C3447 0.929 . S
H3436 C3450 0.930 . S
H3437 C3452 0.960 . S
H3438 C3452 0.960 . S
H3439 C3452 0.960 . S
C3440 H3432 0.929 1_545 S
C3440 C3441 1.377 . S
C3440 C3442 1.384 . S
C3441 C3440 1.377 . S
C3441 C3447 1.390 . S
C3442 H3433 0.930 1_545 S
C3442 C3440 1.384 . S
C3442 C3443 1.372 . S
C3443 C3442 1.372 . S
C3443 C3444 1.400 . S
C3443 C3448 1.490 . S
C3444 H3434 0.930 . S
C3444 C3443 1.400 . S
C3444 C3447 1.386 . S
H3445 C3461 0.930 . S
H3446 C3462 0.931 . S
C3447 H3435 0.929 . S
C3447 C3441 1.390 . S
C3447 C3444 1.386 . S
C3448 C3443 1.490 . S
C3448 C3450 1.395 . S
C3448 C3451 1.403 . S
H3449 C3455 0.930 . S
C3450 H3436 0.930 . S
C3450 C3448 1.395 . S
C3450 C3453 1.403 . S
C3451 C3448 1.403 . S
C3451 C3452 1.524 . S
C3451 C3455 1.400 . S
C3452 H3437 0.960 . S
C3452 H3438 0.960 . S
C3452 H3439 0.960 . S
C3452 C3451 1.524 . S
C3453 C3450 1.403 . S
C3453 C3454 1.392 . S
C3453 C3457 1.495 . S
C3454 C3453 1.392 . S
C3454 C3455 1.385 . S
C3454 C3456 1.478 . S
C3455 H3449 0.930 . S
C3455 C3451 1.400 . S
C3455 C3454 1.385 . S
C3456 C3454 1.478 . S
C3456 C3458 1.381 . S
C3456 C3462 1.383 . S
C3457 C3453 1.495 . S
C3457 H3463 0.959 . S
C3457 H3464 0.961 . S
C3457 H3465 0.960 . S
C3458 C3456 1.381 . S
C3458 C3459 1.394 . S
C3458 H3466 0.930 . S
C3459 C3458 1.394 . S
C3459 C3460 1.383 . S
C3459 H3467 0.929 . S
C3460 C3459 1.383 . S
C3460 C3461 1.377 . S
C3461 H3445 0.930 . S
C3461 C3460 1.377 . S
C3461 C3462 1.379 . S
C3462 H3446 0.931 . S
C3462 C3456 1.383 . S
C3462 C3461 1.379 . S
H3463 C3457 0.959 . S
H3464 C3457 0.961 . S
H3465 C3457 0.960 . S
H3466 C3458 0.930 . S
H3467 C3459 0.929 . S
H3468 C3476 0.929 . S
H3469 C3478 0.930 . S
H3470 C3480 0.930 . S
H3471 C3483 0.929 . S
H3472 C3486 0.930 . S
H3473 C3488 0.960 . S
H3474 C3488 0.960 . S
H3475 C3488 0.960 . S
C3476 H3468 0.929 . S
C3476 C3477 1.377 . S
C3476 C3478 1.384 . S
C3477 C3476 1.377 . S
C3477 C3483 1.390 . S
C3478 H3469 0.930 . S
C3478 C3476 1.384 . S
C3478 C3479 1.372 . S
C3479 C3478 1.372 . S
C3479 C3480 1.400 . S
C3479 C3484 1.490 . S
C3480 H3470 0.930 . S
C3480 C3479 1.400 . S
C3480 C3483 1.386 . S
H3481 C3497 0.930 . S
H3482 C3498 0.931 . S
C3483 H3471 0.929 . S
C3483 C3477 1.390 . S
C3483 C3480 1.386 . S
C3484 C3479 1.490 . S
C3484 C3486 1.395 . S
C3484 C3487 1.403 . S
H3485 C3491 0.930 . S
C3486 H3472 0.930 . S
C3486 C3484 1.395 . S
C3486 C3489 1.403 . S
C3487 C3484 1.403 . S
C3487 C3488 1.524 . S
C3487 C3491 1.400 . S
C3488 H3473 0.960 . S
C3488 H3474 0.960 . S
C3488 H3475 0.960 . S
C3488 C3487 1.524 . S
C3489 C3486 1.403 . S
C3489 C3490 1.392 . S
C3489 C3493 1.495 . S
C3490 C3489 1.392 . S
C3490 C3491 1.385 . S
C3490 C3492 1.478 . S
C3491 H3485 0.930 . S
C3491 C3487 1.400 . S
C3491 C3490 1.385 . S
C3492 C3490 1.478 . S
C3492 C3494 1.381 . S
C3492 C3498 1.383 . S
C3493 C3489 1.495 . S
C3493 H3499 0.959 . S
C3493 H3500 0.961 . S
C3493 H3501 0.960 . S
C3494 C3492 1.381 . S
C3494 C3495 1.394 . S
C3494 H3502 0.930 . S
C3495 C3494 1.394 . S
C3495 C3496 1.383 . S
C3495 H3503 0.929 . S
C3496 C3495 1.383 . S
C3496 C3497 1.377 . S
C3497 H3481 0.930 . S
C3497 C3496 1.377 . S
C3497 C3498 1.379 . S
C3498 H3482 0.931 . S
C3498 C3492 1.383 . S
C3498 C3497 1.379 . S
H3499 C3493 0.959 . S
H3500 C3493 0.961 . S
H3501 C3493 0.960 . S
H3502 C3494 0.930 . S
H3503 C3495 0.929 . S
H3504 C3512 0.929 . S
H3505 C3514 0.930 . S
H3506 C3516 0.930 . S
H3507 C3519 0.929 . S
H3508 C3522 0.930 . S
H3509 C3524 0.960 . S
H3510 C3524 0.960 . S
H3511 C3524 0.960 . S
C3512 H3504 0.929 . S
C3512 C3513 1.377 . S
C3512 C3514 1.384 . S
C3513 C3512 1.377 . S
C3513 C3519 1.390 . S
C3514 H3505 0.930 . S
C3514 C3512 1.384 . S
C3514 C3515 1.372 . S
C3515 C3514 1.372 . S
C3515 C3516 1.400 . S
C3515 C3520 1.490 . S
C3516 H3506 0.930 . S
C3516 C3515 1.400 . S
C3516 C3519 1.386 . S
H3517 C3533 0.930 . S
H3518 C3534 0.931 . S
C3519 H3507 0.929 . S
C3519 C3513 1.390 . S
C3519 C3516 1.386 . S
C3520 C3515 1.490 . S
C3520 C3522 1.395 . S
C3520 C3523 1.403 . S
H3521 C3527 0.930 . S
C3522 H3508 0.930 . S
C3522 C3520 1.395 . S
C3522 C3525 1.403 . S
C3523 C3520 1.403 . S
C3523 C3524 1.524 . S
C3523 C3527 1.400 . S
C3524 H3509 0.960 . S
C3524 H3510 0.960 . S
C3524 H3511 0.960 . S
C3524 C3523 1.524 . S
C3525 C3522 1.403 . S
C3525 C3526 1.392 . S
C3525 C3529 1.495 . S
C3526 C3525 1.392 . S
C3526 C3527 1.385 . S
C3526 C3528 1.478 . S
C3527 H3521 0.930 . S
C3527 C3523 1.400 . S
C3527 C3526 1.385 . S
C3528 C3526 1.478 . S
C3528 C3530 1.381 . S
C3528 C3534 1.383 . S
C3529 C3525 1.495 . S
C3529 H3535 0.959 . S
C3529 H3536 0.961 . S
C3529 H3537 0.960 . S
C3530 C3528 1.381 . S
C3530 C3531 1.394 . S
C3530 H3538 0.930 . S
C3531 C3530 1.394 . S
C3531 C3532 1.383 . S
C3531 H3539 0.929 . S
C3532 C3531 1.383 . S
C3532 C3533 1.377 . S
C3533 H3517 0.930 . S
C3533 C3532 1.377 . S
C3533 C3534 1.379 . S
C3534 H3518 0.931 . S
C3534 C3528 1.383 . S
C3534 C3533 1.379 . S
H3535 C3529 0.959 . S
H3536 C3529 0.961 . S
H3537 C3529 0.960 . S
H3538 C3530 0.930 . S
H3539 C3531 0.929 . S
H3540 C3548 0.929 . S
H3541 C3550 0.930 . S
H3542 C3552 0.930 . S
H3543 C3555 0.929 . S
H3544 C3558 0.930 . S
H3545 C3560 0.960 . S
H3546 C3560 0.960 . S
H3547 C3560 0.960 . S
C3548 H3540 0.929 . S
C3548 C3549 1.377 . S
C3548 C3550 1.384 . S
C3549 C3548 1.377 . S
C3549 C3555 1.390 . S
C3550 H3541 0.930 . S
C3550 C3548 1.384 . S
C3550 C3551 1.372 . S
C3551 C3550 1.372 . S
C3551 C3552 1.400 . S
C3551 C3556 1.490 . S
C3552 H3542 0.930 . S
C3552 C3551 1.400 . S
C3552 C3555 1.386 . S
H3553 C3569 0.930 . S
H3554 C3570 0.931 . S
C3555 H3543 0.929 . S
C3555 C3549 1.390 . S
C3555 C3552 1.386 . S
C3556 C3551 1.490 . S
C3556 C3558 1.395 . S
C3556 C3559 1.403 . S
H3557 C3563 0.930 . S
C3558 H3544 0.930 . S
C3558 C3556 1.395 . S
C3558 C3561 1.403 . S
C3559 C3556 1.403 . S
C3559 C3560 1.524 . S
C3559 C3563 1.400 . S
C3560 H3545 0.960 . S
C3560 H3546 0.960 . S
C3560 H3547 0.960 . S
C3560 C3559 1.524 . S
C3561 C3558 1.403 . S
C3561 C3562 1.392 . S
C3561 C3565 1.495 . S
C3562 C3561 1.392 . S
C3562 C3563 1.385 . S
C3562 C3564 1.478 . S
C3563 H3557 0.930 . S
C3563 C3559 1.400 . S
C3563 C3562 1.385 . S
C3564 C3562 1.478 . S
C3564 C3566 1.381 . S
C3564 C3570 1.383 . S
C3565 C3561 1.495 . S
C3565 H3571 0.959 . S
C3565 H3572 0.961 . S
C3565 H3573 0.960 . S
C3566 C3564 1.381 . S
C3566 C3567 1.394 . S
C3566 H3574 0.930 . S
C3567 C3566 1.394 . S
C3567 C3568 1.383 . S
C3567 H3575 0.929 . S
C3568 C3567 1.383 . S
C3568 C3569 1.377 . S
C3569 H3553 0.930 . S
C3569 C3568 1.377 . S
C3569 C3570 1.379 . S
C3570 H3554 0.931 . S
C3570 C3564 1.383 . S
C3570 C3569 1.379 . S
H3571 C3565 0.959 . S
H3572 C3565 0.961 . S
H3573 C3565 0.960 . S
H3574 C3566 0.930 . S
H3575 C3567 0.929 . S
H3576 C3584 0.929 . S
H3577 C3586 0.930 . S
H3578 C3588 0.930 . S
H3579 C3591 0.929 . S
H3580 C3594 0.930 . S
H3581 C3596 0.960 . S
H3582 C3596 0.960 1_565 S
H3583 C3596 0.960 . S
C3584 H3576 0.929 . S
C3584 C3585 1.377 1_565 S
C3584 C3586 1.384 . S
C3585 C3584 1.377 1_545 S
C3585 C3591 1.390 . S
C3586 H3577 0.930 . S
C3586 C3584 1.384 . S
C3586 C3587 1.372 1_565 S
C3587 C3586 1.372 1_545 S
C3587 C3588 1.400 . S
C3587 C3592 1.490 . S
C3588 H3578 0.930 . S
C3588 C3587 1.400 . S
C3588 C3591 1.386 . S
H3589 C3605 0.930 . S
H3590 C3606 0.931 . S
C3591 H3579 0.929 . S
C3591 C3585 1.390 . S
C3591 C3588 1.386 . S
C3592 C3587 1.490 . S
C3592 C3594 1.395 . S
C3592 C3595 1.403 . S
H3593 C3599 0.930 . S
C3594 H3580 0.930 . S
C3594 C3592 1.395 . S
C3594 C3597 1.403 . S
C3595 C3592 1.403 . S
C3595 C3596 1.524 . S
C3595 C3599 1.400 . S
C3596 H3581 0.960 . S
C3596 H3582 0.960 1_545 S
C3596 H3583 0.960 . S
C3596 C3595 1.524 . S
C3597 C3594 1.403 . S
C3597 C3598 1.392 . S
C3597 C3601 1.495 . S
C3598 C3597 1.392 . S
C3598 C3599 1.385 . S
C3598 C3600 1.478 . S
C3599 H3593 0.930 . S
C3599 C3595 1.400 . S
C3599 C3598 1.385 . S
C3600 C3598 1.478 . S
C3600 C3602 1.381 1_545 S
C3600 C3606 1.383 . S
C3601 C3597 1.495 . S
C3601 H3607 0.959 . S
C3601 H3608 0.961 . S
C3601 H3609 0.984 . S
C3602 C3600 1.381 1_565 S
C3602 C3603 1.394 . S
C3602 H3610 0.930 . S
C3603 C3602 1.394 . S
C3603 C3604 1.383 1_565 S
C3603 H3611 0.929 . S
C3604 C3603 1.383 1_545 S
C3604 C3605 1.377 . S
C3605 H3589 0.930 . S
C3605 C3604 1.377 . S
C3605 C3606 1.379 . S
C3606 H3590 0.931 . S
C3606 C3600 1.383 . S
C3606 C3605 1.379 . S
H3607 C3601 0.959 . S
H3608 C3601 0.961 . S
H3609 C3601 0.984 . S
H3610 C3602 0.930 . S
H3611 C3603 0.929 . S
H3612 C3620 0.929 . S
H3613 C3622 0.930 . S
H3614 C3624 0.930 . S
H3615 C3627 0.929 . S
H3616 C3630 0.930 . S
H3617 C3632 0.960 . S
H3618 C3632 0.960 . S
H3619 C3632 0.960 . S
C3620 H3612 0.929 . S
C3620 C3621 1.377 . S
C3620 C3622 1.384 . S
C3621 C3620 1.377 . S
C3621 C3627 1.390 . S
C3622 H3613 0.930 . S
C3622 C3620 1.384 . S
C3622 C3623 1.372 . S
C3623 C3622 1.372 . S
C3623 C3624 1.400 . S
C3623 C3628 1.490 . S
C3624 H3614 0.930 . S
C3624 C3623 1.400 . S
C3624 C3627 1.386 . S
H3625 C3641 0.930 . S
H3626 C3642 0.931 . S
C3627 H3615 0.929 . S
C3627 C3621 1.390 . S
C3627 C3624 1.386 . S
C3628 C3623 1.490 . S
C3628 C3630 1.395 . S
C3628 C3631 1.403 . S
H3629 C3635 0.930 . S
C3630 H3616 0.930 . S
C3630 C3628 1.395 . S
C3630 C3633 1.403 . S
C3631 C3628 1.403 . S
C3631 C3632 1.524 . S
C3631 C3635 1.400 . S
C3632 H3617 0.960 . S
C3632 H3618 0.960 . S
C3632 H3619 0.960 . S
C3632 C3631 1.524 . S
C3633 C3630 1.403 . S
C3633 C3634 1.392 . S
C3633 C3637 1.495 . S
C3634 C3633 1.392 . S
C3634 C3635 1.385 . S
C3634 C3636 1.478 . S
C3635 H3629 0.930 . S
C3635 C3631 1.400 . S
C3635 C3634 1.385 . S
C3636 C3634 1.478 . S
C3636 C3638 1.381 . S
C3636 C3642 1.383 . S
C3637 C3633 1.495 . S
C3637 H3643 0.959 . S
C3637 H3644 0.961 . S
C3637 H3645 0.960 . S
C3638 C3636 1.381 . S
C3638 C3639 1.394 . S
C3638 H3646 0.930 . S
C3639 C3638 1.394 . S
C3639 C3640 1.383 . S
C3639 H3647 0.929 . S
C3640 C3639 1.383 . S
C3640 C3641 1.377 . S
C3641 H3625 0.930 . S
C3641 C3640 1.377 . S
C3641 C3642 1.379 . S
C3642 H3626 0.931 . S
C3642 C3636 1.383 . S
C3642 C3641 1.379 . S
H3643 C3637 0.959 . S
H3644 C3637 0.961 . S
H3645 C3637 0.960 . S
H3646 C3638 0.930 . S
H3647 C3639 0.929 . S
H3648 C3656 0.929 . S
H3649 C3658 0.930 . S
H3650 C3660 0.930 . S
H3651 C3663 0.929 . S
H3652 C3666 0.930 . S
H3653 C3668 0.957 . S
H3654 C3668 0.960 . S
H3655 C3668 0.960 . S
C3656 H3648 0.929 . S
C3656 C3657 1.377 . S
C3656 C3658 1.384 . S
C3657 C3656 1.377 . S
C3657 C3663 1.390 . S
C3658 H3649 0.930 . S
C3658 C3656 1.384 . S
C3658 C3659 1.372 . S
C3659 C3658 1.372 . S
C3659 C3660 1.400 . S
C3659 C3664 1.490 . S
C3660 H3650 0.930 . S
C3660 C3659 1.400 . S
C3660 C3663 1.386 . S
H3661 C3677 0.930 1_556 S
H3662 C3678 0.935 1_556 S
C3663 H3651 0.929 . S
C3663 C3657 1.390 . S
C3663 C3660 1.386 . S
C3664 C3659 1.490 . S
C3664 C3666 1.395 . S
C3664 C3667 1.403 . S
H3665 C3671 0.930 . S
C3666 H3652 0.930 . S
C3666 C3664 1.395 . S
C3666 C3669 1.403 . S
C3667 C3664 1.403 . S
C3667 C3668 1.524 . S
C3667 C3671 1.400 . S
C3668 H3653 0.957 . S
C3668 H3654 0.960 . S
C3668 H3655 0.960 . S
C3668 C3667 1.524 . S
C3669 C3666 1.403 . S
C3669 C3670 1.392 . S
C3669 C3673 1.495 . S
C3670 C3669 1.392 . S
C3670 C3671 1.385 . S
C3670 C3672 1.478 . S
C3671 H3665 0.930 . S
C3671 C3667 1.400 . S
C3671 C3670 1.385 . S
C3672 C3670 1.478 . S
C3672 C3674 1.381 . S
C3672 C3678 1.383 . S
C3673 C3669 1.495 . S
C3673 H3679 0.959 . S
C3673 H3680 0.961 . S
C3673 H3681 0.960 . S
C3674 C3672 1.381 . S
C3674 C3675 1.394 . S
C3674 H3682 0.930 . S
C3675 C3674 1.394 . S
C3675 C3676 1.383 . S
C3675 H3683 0.929 . S
C3676 C3675 1.383 . S
C3676 C3677 1.377 . S
C3677 H3661 0.930 1_554 S
C3677 C3676 1.377 . S
C3677 C3678 1.379 . S
C3678 H3662 0.935 1_554 S
C3678 C3672 1.383 . S
C3678 C3677 1.379 . S
H3679 C3673 0.959 . S
H3680 C3673 0.961 . S
H3681 C3673 0.960 . S
H3682 C3674 0.930 . S
H3683 C3675 0.929 . S
H3684 C3692 0.929 . S
H3685 C3694 0.930 . S
H3686 C3696 0.930 . S
H3687 C3699 0.929 . S
H3688 C3702 0.930 . S
H3689 C3704 0.960 1_556 S
H3690 C3704 0.960 1_556 S
H3691 C3704 0.960 . S
C3692 H3684 0.929 . S
C3692 C3693 1.377 . S
C3692 C3694 1.384 . S
C3693 C3692 1.377 . S
C3693 C3699 1.390 . S
C3694 H3685 0.930 . S
C3694 C3692 1.384 . S
C3694 C3695 1.372 . S
C3695 C3694 1.372 . S
C3695 C3696 1.400 . S
C3695 C3700 1.490 . S
C3696 H3686 0.930 . S
C3696 C3695 1.400 . S
C3696 C3699 1.386 . S
H3697 C3713 0.930 . S
H3698 C3714 0.931 . S
C3699 H3687 0.929 . S
C3699 C3693 1.390 . S
C3699 C3696 1.386 . S
C3700 C3695 1.490 . S
C3700 C3702 1.395 . S
C3700 C3703 1.403 . S
H3701 C3707 0.930 . S
C3702 H3688 0.930 . S
C3702 C3700 1.395 . S
C3702 C3705 1.403 . S
C3703 C3700 1.403 . S
C3703 C3704 1.524 . S
C3703 C3707 1.400 . S
C3704 H3689 0.960 1_554 S
C3704 H3690 0.960 1_554 S
C3704 H3691 0.960 . S
C3704 C3703 1.524 . S
C3705 C3702 1.403 . S
C3705 C3706 1.392 . S
C3705 C3709 1.495 . S
C3706 C3705 1.392 . S
C3706 C3707 1.385 . S
C3706 C3708 1.478 . S
C3707 H3701 0.930 . S
C3707 C3703 1.400 . S
C3707 C3706 1.385 . S
C3708 C3706 1.478 . S
C3708 C3710 1.381 . S
C3708 C3714 1.383 . S
C3709 C3705 1.495 . S
C3709 H3715 0.959 . S
C3709 H3716 0.961 . S
C3709 H3717 0.960 . S
C3710 C3708 1.381 . S
C3710 C3711 1.394 . S
C3710 H3718 0.930 . S
C3711 C3710 1.394 . S
C3711 C3712 1.383 . S
C3711 H3719 0.929 . S
C3712 C3711 1.383 . S
C3712 C3713 1.377 . S
C3713 H3697 0.930 . S
C3713 C3712 1.377 . S
C3713 C3714 1.379 . S
C3714 H3698 0.931 . S
C3714 C3708 1.383 . S
C3714 C3713 1.379 . S
H3715 C3709 0.959 . S
H3716 C3709 0.961 . S
H3717 C3709 0.960 . S
H3718 C3710 0.930 . S
H3719 C3711 0.929 . S
H3720 C3728 0.929 . S
H3721 C3730 0.930 . S
H3722 C3732 0.930 . S
H3723 C3735 0.929 . S
H3724 C3738 0.930 . S
H3725 C3740 0.960 . S
H3726 C3740 0.960 . S
H3727 C3740 0.960 . S
C3728 H3720 0.929 . S
C3728 C3729 1.377 . S
C3728 C3730 1.384 . S
C3729 C3728 1.377 . S
C3729 C3735 1.390 . S
C3730 H3721 0.930 . S
C3730 C3728 1.384 . S
C3730 C3731 1.372 . S
C3731 C3730 1.372 . S
C3731 C3732 1.400 . S
C3731 C3736 1.490 . S
C3732 H3722 0.930 . S
C3732 C3731 1.400 . S
C3732 C3735 1.386 . S
H3733 C3749 0.930 . S
H3734 C3750 0.931 . S
C3735 H3723 0.929 . S
C3735 C3729 1.390 . S
C3735 C3732 1.386 . S
C3736 C3731 1.490 . S
C3736 C3738 1.395 . S
C3736 C3739 1.403 . S
H3737 C3743 0.930 . S
C3738 H3724 0.930 . S
C3738 C3736 1.395 . S
C3738 C3741 1.403 . S
C3739 C3736 1.403 . S
C3739 C3740 1.524 . S
C3739 C3743 1.400 . S
C3740 H3725 0.960 . S
C3740 H3726 0.960 . S
C3740 H3727 0.960 . S
C3740 C3739 1.524 . S
C3741 C3738 1.403 . S
C3741 C3742 1.392 . S
C3741 C3745 1.495 . S
C3742 C3741 1.392 . S
C3742 C3743 1.385 . S
C3742 C3744 1.478 . S
C3743 H3737 0.930 . S
C3743 C3739 1.400 . S
C3743 C3742 1.385 . S
C3744 C3742 1.478 . S
C3744 C3746 1.381 . S
C3744 C3750 1.383 . S
C3745 C3741 1.495 . S
C3745 H3751 0.959 . S
C3745 H3752 0.961 . S
C3745 H3753 0.960 . S
C3746 C3744 1.381 . S
C3746 C3747 1.394 . S
C3746 H3754 0.930 . S
C3747 C3746 1.394 . S
C3747 C3748 1.383 . S
C3747 H3755 0.929 . S
C3748 C3747 1.383 . S
C3748 C3749 1.377 . S
C3749 H3733 0.930 . S
C3749 C3748 1.377 . S
C3749 C3750 1.379 . S
C3750 H3734 0.931 . S
C3750 C3744 1.383 . S
C3750 C3749 1.379 . S
H3751 C3745 0.959 . S
H3752 C3745 0.961 . S
H3753 C3745 0.960 . S
H3754 C3746 0.930 . S
H3755 C3747 0.929 . S
H3756 C3764 0.929 . S
H3757 C3766 0.930 . S
H3758 C3768 0.930 . S
H3759 C3771 0.929 . S
H3760 C3774 0.930 . S
H3761 C3776 0.960 . S
H3762 C3776 0.960 . S
H3763 C3776 0.960 . S
C3764 H3756 0.929 . S
C3764 C3765 1.377 . S
C3764 C3766 1.384 . S
C3765 C3764 1.377 . S
C3765 C3771 1.390 . S
C3766 H3757 0.930 . S
C3766 C3764 1.384 . S
C3766 C3767 1.372 . S
C3767 C3766 1.372 . S
C3767 C3768 1.400 . S
C3767 C3772 1.490 . S
C3768 H3758 0.930 . S
C3768 C3767 1.400 . S
C3768 C3771 1.386 . S
H3769 C3785 0.930 . S
H3770 C3786 0.931 . S
C3771 H3759 0.929 . S
C3771 C3765 1.390 . S
C3771 C3768 1.386 . S
C3772 C3767 1.490 . S
C3772 C3774 1.395 . S
C3772 C3775 1.403 . S
H3773 C3779 0.930 . S
C3774 H3760 0.930 . S
C3774 C3772 1.395 . S
C3774 C3777 1.403 . S
C3775 C3772 1.403 . S
C3775 C3776 1.524 . S
C3775 C3779 1.400 . S
C3776 H3761 0.960 . S
C3776 H3762 0.960 . S
C3776 H3763 0.960 . S
C3776 C3775 1.524 . S
C3777 C3774 1.403 . S
C3777 C3778 1.392 . S
C3777 C3781 1.495 . S
C3778 C3777 1.392 . S
C3778 C3779 1.385 . S
C3778 C3780 1.478 . S
C3779 H3773 0.930 . S
C3779 C3775 1.400 . S
C3779 C3778 1.385 . S
C3780 C3778 1.478 . S
C3780 C3782 1.381 . S
C3780 C3786 1.383 . S
C3781 C3777 1.495 . S
C3781 H3787 0.959 . S
C3781 H3788 0.961 . S
C3781 H3789 0.960 . S
C3782 C3780 1.381 . S
C3782 C3783 1.394 . S
C3782 H3790 0.930 . S
C3783 C3782 1.394 . S
C3783 C3784 1.383 . S
C3783 H3791 0.929 . S
C3784 C3783 1.383 . S
C3784 C3785 1.377 . S
C3785 H3769 0.930 . S
C3785 C3784 1.377 . S
C3785 C3786 1.379 . S
C3786 H3770 0.931 . S
C3786 C3780 1.383 . S
C3786 C3785 1.379 . S
H3787 C3781 0.959 . S
H3788 C3781 0.961 . S
H3789 C3781 0.960 . S
H3790 C3782 0.930 . S
H3791 C3783 0.929 . S
H3792 C3800 0.929 . S
H3793 C3802 0.930 . S
H3794 C3804 0.930 . S
H3795 C3807 0.929 . S
H3796 C3810 0.930 . S
H3797 C3812 0.960 . S
H3798 C3812 0.960 . S
H3799 C3812 0.960 . S
C3800 H3792 0.929 . S
C3800 C3801 1.377 1_565 S
C3800 C3802 1.384 . S
C3801 C3800 1.377 1_545 S
C3801 C3807 1.390 . S
C3802 H3793 0.930 . S
C3802 C3800 1.384 . S
C3802 C3803 1.372 . S
C3803 C3802 1.372 . S
C3803 C3804 1.400 . S
C3803 C3808 1.490 . S
C3804 H3794 0.930 . S
C3804 C3803 1.400 . S
C3804 C3807 1.386 1_565 S
H3805 C3821 0.930 . S
H3806 C3822 0.931 . S
C3807 H3795 0.929 . S
C3807 C3801 1.390 . S
C3807 C3804 1.386 1_545 S
C3808 C3803 1.490 . S
C3808 C3810 1.395 . S
C3808 C3811 1.403 . S
H3809 C3815 0.930 . S
C3810 H3796 0.930 . S
C3810 C3808 1.395 . S
C3810 C3813 1.403 . S
C3811 C3808 1.403 . S
C3811 C3812 1.524 . S
C3811 C3815 1.400 . S
C3812 H3797 0.960 . S
C3812 H3798 0.960 . S
C3812 H3799 0.960 . S
C3812 C3811 1.524 . S
C3813 C3810 1.403 . S
C3813 C3814 1.392 . S
C3813 C3817 1.495 . S
C3814 C3813 1.392 . S
C3814 C3815 1.385 . S
C3814 C3816 1.478 . S
C3815 H3809 0.930 . S
C3815 C3811 1.400 . S
C3815 C3814 1.385 . S
C3816 C3814 1.478 . S
C3816 C3818 1.381 . S
C3816 C3822 1.383 . S
C3817 C3813 1.495 . S
C3817 H3823 0.959 . S
C3817 H3824 0.961 . S
C3817 H3825 0.960 . S
C3818 C3816 1.381 . S
C3818 C3819 1.394 . S
C3818 H3826 0.930 . S
C3819 C3818 1.394 . S
C3819 C3820 1.383 . S
C3819 H3827 0.929 . S
C3820 C3819 1.383 . S
C3820 C3821 1.377 . S
C3821 H3805 0.930 . S
C3821 C3820 1.377 . S
C3821 C3822 1.379 . S
C3822 H3806 0.931 . S
C3822 C3816 1.383 . S
C3822 C3821 1.379 . S
H3823 C3817 0.959 . S
H3824 C3817 0.961 . S
H3825 C3817 0.960 . S
H3826 C3818 0.930 . S
H3827 C3819 0.929 . S
H3828 C3836 0.929 . S
H3829 C3838 0.930 . S
H3830 C3840 0.930 . S
H3831 C3843 0.929 . S
H3832 C3846 0.930 . S
H3833 C3848 0.960 . S
H3834 C3848 0.960 . S
H3835 C3848 0.960 . S
C3836 H3828 0.929 . S
C3836 C3837 1.377 . S
C3836 C3838 1.384 . S
C3837 C3836 1.377 . S
C3837 C3843 1.390 . S
C3838 H3829 0.930 . S
C3838 C3836 1.384 . S
C3838 C3839 1.372 . S
C3839 C3838 1.372 . S
C3839 C3840 1.400 . S
C3839 C3844 1.490 . S
C3840 H3830 0.930 . S
C3840 C3839 1.400 . S
C3840 C3843 1.386 . S
H3841 C3857 0.930 . S
H3842 C3858 0.931 . S
C3843 H3831 0.929 . S
C3843 C3837 1.390 . S
C3843 C3840 1.386 . S
C3844 C3839 1.490 . S
C3844 C3846 1.395 . S
C3844 C3847 1.403 . S
H3845 C3851 0.930 . S
C3846 H3832 0.930 . S
C3846 C3844 1.395 . S
C3846 C3849 1.403 . S
C3847 C3844 1.403 . S
C3847 C3848 1.524 . S
C3847 C3851 1.400 . S
C3848 H3833 0.960 . S
C3848 H3834 0.960 . S
C3848 H3835 0.960 . S
C3848 C3847 1.524 . S
C3849 C3846 1.403 . S
C3849 C3850 1.392 . S
C3849 C3853 1.495 . S
C3850 C3849 1.392 . S
C3850 C3851 1.385 . S
C3850 C3852 1.478 . S
C3851 H3845 0.930 . S
C3851 C3847 1.400 . S
C3851 C3850 1.385 . S
C3852 C3850 1.478 . S
C3852 C3854 1.381 . S
C3852 C3858 1.383 . S
C3853 C3849 1.495 . S
C3853 H3859 0.959 . S
C3853 H3860 0.961 . S
C3853 H3861 0.960 . S
C3854 C3852 1.381 . S
C3854 C3855 1.394 . S
C3854 H3862 0.930 . S
C3855 C3854 1.394 . S
C3855 C3856 1.383 . S
C3855 H3863 0.929 . S
C3856 C3855 1.383 . S
C3856 C3857 1.377 . S
C3857 H3841 0.930 . S
C3857 C3856 1.377 . S
C3857 C3858 1.379 . S
C3858 H3842 0.931 . S
C3858 C3852 1.383 . S
C3858 C3857 1.379 . S
H3859 C3853 0.959 . S
H3860 C3853 0.961 . S
H3861 C3853 0.960 . S
H3862 C3854 0.930 . S
H3863 C3855 0.929 . S
H3864 C3872 0.929 . S
H3865 C3874 0.930 . S
H3866 C3876 0.930 . S
H3867 C3879 0.929 . S
H3868 C3882 0.930 . S
H3869 C3884 0.960 . S
H3870 C3884 0.960 . S
H3871 C3884 0.960 . S
C3872 H3864 0.929 . S
C3872 C3873 1.377 . S
C3872 C3874 1.384 . S
C3873 C3872 1.377 . S
C3873 C3879 1.390 . S
C3874 H3865 0.930 . S
C3874 C3872 1.384 . S
C3874 C3875 1.372 . S
C3875 C3874 1.372 . S
C3875 C3876 1.400 . S
C3875 C3880 1.490 . S
C3876 H3866 0.930 . S
C3876 C3875 1.400 . S
C3876 C3879 1.386 . S
H3877 C3893 0.930 . S
H3878 C3894 0.931 . S
C3879 H3867 0.929 . S
C3879 C3873 1.390 . S
C3879 C3876 1.386 . S
C3880 C3875 1.490 . S
C3880 C3882 1.395 . S
C3880 C3883 1.403 . S
H3881 C3887 0.930 . S
C3882 H3868 0.930 . S
C3882 C3880 1.395 . S
C3882 C3885 1.403 . S
C3883 C3880 1.403 . S
C3883 C3884 1.524 . S
C3883 C3887 1.400 . S
C3884 H3869 0.960 . S
C3884 H3870 0.960 . S
C3884 H3871 0.960 . S
C3884 C3883 1.524 . S
C3885 C3882 1.403 . S
C3885 C3886 1.392 . S
C3885 C3889 1.495 . S
C3886 C3885 1.392 . S
C3886 C3887 1.385 . S
C3886 C3888 1.478 . S
C3887 H3881 0.930 . S
C3887 C3883 1.400 . S
C3887 C3886 1.385 . S
C3888 C3886 1.478 . S
C3888 C3890 1.381 . S
C3888 C3894 1.383 . S
C3889 C3885 1.495 . S
C3889 H3895 0.959 . S
C3889 H3896 0.961 . S
C3889 H3897 0.960 . S
C3890 C3888 1.381 . S
C3890 C3891 1.394 . S
C3890 H3898 0.930 . S
C3891 C3890 1.394 . S
C3891 C3892 1.383 . S
C3891 H3899 0.929 . S
C3892 C3891 1.383 . S
C3892 C3893 1.377 . S
C3893 H3877 0.930 . S
C3893 C3892 1.377 . S
C3893 C3894 1.379 . S
C3894 H3878 0.931 . S
C3894 C3888 1.383 . S
C3894 C3893 1.379 . S
H3895 C3889 0.959 . S
H3896 C3889 0.961 . S
H3897 C3889 0.960 . S
H3898 C3890 0.930 . S
H3899 C3891 0.929 . S
H3900 C3908 0.929 . S
H3901 C3910 0.930 . S
H3902 C3912 0.930 . S
H3903 C3915 0.929 . S
H3904 C3918 0.930 . S
H3905 C3920 0.960 . S
H3906 C3920 0.960 . S
H3907 C3920 0.960 . S
C3908 H3900 0.929 . S
C3908 C3909 1.377 . S
C3908 C3910 1.384 . S
C3909 C3908 1.377 . S
C3909 C3915 1.390 . S
C3910 H3901 0.930 . S
C3910 C3908 1.384 . S
C3910 C3911 1.372 . S
C3911 C3910 1.372 . S
C3911 C3912 1.400 . S
C3911 C3916 1.490 . S
C3912 H3902 0.930 . S
C3912 C3911 1.400 . S
C3912 C3915 1.386 . S
H3913 C3929 0.930 . S
H3914 C3930 0.931 . S
C3915 H3903 0.929 . S
C3915 C3909 1.390 . S
C3915 C3912 1.386 . S
C3916 C3911 1.490 . S
C3916 C3918 1.395 . S
C3916 C3919 1.403 . S
H3917 C3923 0.930 . S
C3918 H3904 0.930 . S
C3918 C3916 1.395 . S
C3918 C3921 1.403 . S
C3919 C3916 1.403 . S
C3919 C3920 1.524 . S
C3919 C3923 1.400 . S
C3920 H3905 0.960 . S
C3920 H3906 0.960 . S
C3920 H3907 0.960 . S
C3920 C3919 1.524 . S
C3921 C3918 1.403 . S
C3921 C3922 1.392 . S
C3921 C3925 1.495 . S
C3922 C3921 1.392 . S
C3922 C3923 1.385 . S
C3922 C3924 1.478 . S
C3923 H3917 0.930 . S
C3923 C3919 1.400 . S
C3923 C3922 1.385 . S
C3924 C3922 1.478 . S
C3924 C3926 1.381 . S
C3924 C3930 1.383 . S
C3925 C3921 1.495 . S
C3925 H3931 0.959 . S
C3925 H3932 0.961 . S
C3925 H3933 0.960 . S
C3926 C3924 1.381 . S
C3926 C3927 1.394 . S
C3926 H3934 0.930 . S
C3927 C3926 1.394 . S
C3927 C3928 1.383 . S
C3927 H3935 0.929 . S
C3928 C3927 1.383 . S
C3928 C3929 1.377 . S
C3929 H3913 0.930 . S
C3929 C3928 1.377 . S
C3929 C3930 1.379 . S
C3930 H3914 0.931 . S
C3930 C3924 1.383 . S
C3930 C3929 1.379 . S
H3931 C3925 0.959 . S
H3932 C3925 0.961 . S
H3933 C3925 0.960 . S
H3934 C3926 0.930 . S
H3935 C3927 0.929 . S
H3936 C3944 0.929 . S
H3937 C3946 0.930 . S
H3938 C3948 0.930 . S
H3939 C3951 0.929 . S
H3940 C3954 0.930 . S
H3941 C3956 0.960 . S
H3942 C3956 0.960 . S
H3943 C3956 0.960 . S
C3944 H3936 0.929 . S
C3944 C3945 1.377 . S
C3944 C3946 1.384 . S
C3945 C3944 1.377 . S
C3945 C3951 1.390 . S
C3946 H3937 0.930 . S
C3946 C3944 1.384 . S
C3946 C3947 1.372 . S
C3947 C3946 1.372 . S
C3947 C3948 1.400 . S
C3947 C3952 1.490 . S
C3948 H3938 0.930 . S
C3948 C3947 1.400 . S
C3948 C3951 1.386 . S
H3949 C3965 0.930 . S
H3950 C3966 0.931 . S
C3951 H3939 0.929 . S
C3951 C3945 1.390 . S
C3951 C3948 1.386 . S
C3952 C3947 1.490 . S
C3952 C3954 1.395 . S
C3952 C3955 1.403 . S
H3953 C3959 0.930 . S
C3954 H3940 0.930 . S
C3954 C3952 1.395 . S
C3954 C3957 1.403 . S
C3955 C3952 1.403 . S
C3955 C3956 1.524 . S
C3955 C3959 1.400 . S
C3956 H3941 0.960 . S
C3956 H3942 0.960 . S
C3956 H3943 0.960 . S
C3956 C3955 1.524 . S
C3957 C3954 1.403 . S
C3957 C3958 1.392 . S
C3957 C3961 1.495 . S
C3958 C3957 1.392 . S
C3958 C3959 1.385 . S
C3958 C3960 1.478 . S
C3959 H3953 0.930 . S
C3959 C3955 1.400 . S
C3959 C3958 1.385 . S
C3960 C3958 1.478 . S
C3960 C3962 1.381 . S
C3960 C3966 1.383 . S
C3961 C3957 1.495 . S
C3961 H3967 0.959 . S
C3961 H3968 0.961 . S
C3961 H3969 0.960 . S
C3962 C3960 1.381 . S
C3962 C3963 1.394 . S
C3962 H3970 0.930 . S
C3963 C3962 1.394 . S
C3963 C3964 1.383 . S
C3963 H3971 0.929 . S
C3964 C3963 1.383 . S
C3964 C3965 1.377 . S
C3965 H3949 0.930 . S
C3965 C3964 1.377 . S
C3965 C3966 1.379 . S
C3966 H3950 0.931 . S
C3966 C3960 1.383 . S
C3966 C3965 1.379 . S
H3967 C3961 0.959 . S
H3968 C3961 0.961 . S
H3969 C3961 0.960 . S
H3970 C3962 0.930 . S
H3971 C3963 0.929 . S
H3972 C3980 0.929 . S
H3973 C3982 0.930 . S
H3974 C3984 0.930 . S
H3975 C3987 0.929 . S
H3976 C3990 0.930 . S
H3977 C3992 0.960 . S
H3978 C3992 0.960 . S
H3979 C3992 0.960 . S
C3980 H3972 0.929 . S
C3980 C3981 1.377 . S
C3980 C3982 1.384 . S
C3981 C3980 1.377 . S
C3981 C3987 1.390 . S
C3982 H3973 0.930 . S
C3982 C3980 1.384 . S
C3982 C3983 1.372 . S
C3983 C3982 1.372 . S
C3983 C3984 1.400 . S
C3983 C3988 1.490 . S
C3984 H3974 0.930 . S
C3984 C3983 1.400 . S
C3984 C3987 1.386 . S
H3985 C4001 0.930 . S
H3986 C4002 0.931 . S
C3987 H3975 0.929 . S
C3987 C3981 1.390 . S
C3987 C3984 1.386 . S
C3988 C3983 1.490 . S
C3988 C3990 1.395 . S
C3988 C3991 1.403 . S
H3989 C3995 0.930 . S
C3990 H3976 0.930 . S
C3990 C3988 1.395 . S
C3990 C3993 1.403 . S
C3991 C3988 1.403 . S
C3991 C3992 1.524 . S
C3991 C3995 1.400 . S
C3992 H3977 0.960 . S
C3992 H3978 0.960 . S
C3992 H3979 0.960 . S
C3992 C3991 1.524 . S
C3993 C3990 1.403 . S
C3993 C3994 1.392 . S
C3993 C3997 1.495 . S
C3994 C3993 1.392 . S
C3994 C3995 1.385 . S
C3994 C3996 1.478 . S
C3995 H3989 0.930 . S
C3995 C3991 1.400 . S
C3995 C3994 1.385 . S
C3996 C3994 1.478 . S
C3996 C3998 1.381 . S
C3996 C4002 1.383 . S
C3997 C3993 1.495 . S
C3997 H4003 0.959 . S
C3997 H4004 0.961 . S
C3997 H4005 0.960 . S
C3998 C3996 1.381 . S
C3998 C3999 1.394 . S
C3998 H4006 0.930 . S
C3999 C3998 1.394 . S
C3999 C4000 1.383 . S
C3999 H4007 0.929 . S
C4000 C3999 1.383 . S
C4000 C4001 1.377 . S
C4001 H3985 0.930 . S
C4001 C4000 1.377 . S
C4001 C4002 1.379 . S
C4002 H3986 0.931 . S
C4002 C3996 1.383 . S
C4002 C4001 1.379 . S
H4003 C3997 0.959 . S
H4004 C3997 0.961 . S
H4005 C3997 0.960 . S
H4006 C3998 0.930 . S
H4007 C3999 0.929 . S
H4008 C4016 0.929 . S
H4009 C4018 0.930 . S
H4010 C4020 0.930 . S
H4011 C4023 0.929 . S
H4012 C4026 0.930 1_554 S
H4013 C4028 0.969 . S
H4014 C4028 0.985 . S
H4015 C4028 0.934 1_455 S
C4016 H4008 0.929 . S
C4016 C4017 1.377 1_655 S
C4016 C4018 1.384 . S
C4017 C4016 1.377 1_455 S
C4017 C4023 1.390 . S
C4018 H4009 0.930 . S
C4018 C4016 1.384 . S
C4018 C4019 1.372 1_655 S
C4019 C4018 1.372 1_455 S
C4019 C4020 1.400 . S
C4019 C4024 1.490 . S
C4020 H4010 0.930 . S
C4020 C4019 1.400 . S
C4020 C4023 1.386 . S
H4021 C4037 0.930 . S
H4022 C4038 0.931 . S
C4023 H4011 0.929 . S
C4023 C4017 1.390 . S
C4023 C4020 1.386 . S
C4024 C4019 1.490 . S
C4024 C4026 1.395 . S
C4024 C4027 1.403 . S
H4025 C4031 0.930 . S
C4026 H4012 0.930 1_556 S
C4026 C4024 1.395 . S
C4026 C4029 1.403 1_556 S
C4027 C4024 1.403 . S
C4027 C4028 1.517 1_455 S
C4027 C4031 1.400 . S
C4028 H4013 0.969 . S
C4028 H4014 0.985 . S
C4028 H4015 0.934 1_655 S
C4028 C4027 1.517 1_655 S
C4029 C4026 1.403 1_554 S
C4029 C4030 1.392 1_554 S
C4029 C4033 1.495 . S
C4030 C4029 1.392 1_556 S
C4030 C4031 1.385 . S
C4030 C4032 1.488 . S
C4031 H4025 0.930 . S
C4031 C4027 1.400 . S
C4031 C4030 1.385 . S
C4032 C4030 1.488 . S
C4032 C4034 1.349 1_556 S
C4032 C4038 1.409 . S
C4033 C4029 1.495 . S
C4033 H4039 0.959 . S
C4033 H4040 0.961 . S
C4033 H4041 0.960 . S
C4034 C4032 1.349 1_554 S
C4034 C4035 1.394 . S
C4034 H4042 0.930 1_455 S
C4035 C4034 1.394 . S
C4035 C4036 1.383 . S
C4035 H4043 0.929 1_455 S
C4036 C4035 1.383 . S
C4036 C4037 1.377 1_554 S
C4037 H4021 0.930 . S
C4037 C4036 1.377 1_556 S
C4037 C4038 1.379 . S
C4038 H4022 0.931 . S
C4038 C4032 1.409 . S
C4038 C4037 1.379 . S
H4039 C4033 0.959 . S
H4040 C4033 0.961 . S
H4041 C4033 0.960 . S
H4042 C4034 0.930 1_655 S
H4043 C4035 0.929 1_655 S
H4044 C4052 0.929 . S
H4045 C4054 0.930 . S
H4046 C4056 0.930 . S
H4047 C4059 0.929 . S
H4048 C4062 0.930 . S
H4049 C4064 0.960 . S
H4050 C4064 0.960 . S
H4051 C4064 0.960 . S
C4052 H4044 0.929 . S
C4052 C4053 1.377 . S
C4052 C4054 1.384 . S
C4053 C4052 1.377 . S
C4053 C4059 1.390 . S
C4054 H4045 0.930 . S
C4054 C4052 1.384 . S
C4054 C4055 1.372 . S
C4055 C4054 1.372 . S
C4055 C4056 1.400 . S
C4055 C4060 1.490 . S
C4056 H4046 0.930 . S
C4056 C4055 1.400 . S
C4056 C4059 1.386 . S
H4057 C4073 0.930 . S
H4058 C4074 0.931 . S
C4059 H4047 0.929 . S
C4059 C4053 1.390 . S
C4059 C4056 1.386 . S
C4060 C4055 1.490 . S
C4060 C4062 1.395 . S
C4060 C4063 1.403 . S
H4061 C4067 0.930 . S
C4062 H4048 0.930 . S
C4062 C4060 1.395 . S
C4062 C4065 1.403 . S
C4063 C4060 1.403 . S
C4063 C4064 1.524 . S
C4063 C4067 1.400 . S
C4064 H4049 0.960 . S
C4064 H4050 0.960 . S
C4064 H4051 0.960 . S
C4064 C4063 1.524 . S
C4065 C4062 1.403 . S
C4065 C4066 1.392 . S
C4065 C4069 1.495 . S
C4066 C4065 1.392 . S
C4066 C4067 1.385 . S
C4066 C4068 1.478 . S
C4067 H4061 0.930 . S
C4067 C4063 1.400 . S
C4067 C4066 1.385 . S
C4068 C4066 1.478 . S
C4068 C4070 1.381 . S
C4068 C4074 1.383 . S
C4069 C4065 1.495 . S
C4069 H4075 0.959 . S
C4069 H4076 0.961 . S
C4069 H4077 0.960 . S
C4070 C4068 1.381 . S
C4070 C4071 1.394 . S
C4070 H4078 0.930 . S
C4071 C4070 1.394 . S
C4071 C4072 1.383 . S
C4071 H4079 0.929 . S
C4072 C4071 1.383 . S
C4072 C4073 1.377 . S
C4073 H4057 0.930 . S
C4073 C4072 1.377 . S
C4073 C4074 1.379 . S
C4074 H4058 0.931 . S
C4074 C4068 1.383 . S
C4074 C4073 1.379 . S
H4075 C4069 0.959 . S
H4076 C4069 0.961 . S
H4077 C4069 0.960 . S
H4078 C4070 0.930 . S
H4079 C4071 0.929 . S
H4080 C4088 0.929 . S
H4081 C4090 0.930 . S
H4082 C4092 0.930 . S
H4083 C4095 0.929 . S
H4084 C4098 0.930 . S
H4085 C4100 0.960 . S
H4086 C4100 0.960 . S
H4087 C4100 0.960 . S
C4088 H4080 0.929 . S
C4088 C4089 1.377 . S
C4088 C4090 1.384 . S
C4089 C4088 1.377 . S
C4089 C4095 1.390 . S
C4090 H4081 0.930 . S
C4090 C4088 1.384 . S
C4090 C4091 1.372 . S
C4091 C4090 1.372 . S
C4091 C4092 1.400 . S
C4091 C4096 1.490 . S
C4092 H4082 0.930 . S
C4092 C4091 1.400 . S
C4092 C4095 1.386 . S
H4093 C4109 0.930 . S
H4094 C4110 0.931 . S
C4095 H4083 0.929 . S
C4095 C4089 1.390 . S
C4095 C4092 1.386 . S
C4096 C4091 1.490 . S
C4096 C4098 1.395 . S
C4096 C4099 1.403 . S
H4097 C4103 0.930 . S
C4098 H4084 0.930 . S
C4098 C4096 1.395 . S
C4098 C4101 1.403 . S
C4099 C4096 1.403 . S
C4099 C4100 1.524 . S
C4099 C4103 1.400 . S
C4100 H4085 0.960 . S
C4100 H4086 0.960 . S
C4100 H4087 0.960 . S
C4100 C4099 1.524 . S
C4101 C4098 1.403 . S
C4101 C4102 1.392 . S
C4101 C4105 1.495 . S
C4102 C4101 1.392 . S
C4102 C4103 1.385 . S
C4102 C4104 1.478 . S
C4103 H4097 0.930 . S
C4103 C4099 1.400 . S
C4103 C4102 1.385 . S
C4104 C4102 1.478 . S
C4104 C4106 1.381 . S
C4104 C4110 1.383 . S
C4105 C4101 1.495 . S
C4105 H4111 0.959 . S
C4105 H4112 0.961 . S
C4105 H4113 0.960 . S
C4106 C4104 1.381 . S
C4106 C4107 1.394 . S
C4106 H4114 0.930 . S
C4107 C4106 1.394 . S
C4107 C4108 1.383 . S
C4107 H4115 0.929 . S
C4108 C4107 1.383 . S
C4108 C4109 1.377 . S
C4109 H4093 0.930 . S
C4109 C4108 1.377 . S
C4109 C4110 1.379 . S
C4110 H4094 0.931 . S
C4110 C4104 1.383 . S
C4110 C4109 1.379 . S
H4111 C4105 0.959 . S
H4112 C4105 0.961 . S
H4113 C4105 0.960 . S
H4114 C4106 0.930 . S
H4115 C4107 0.929 . S
H4116 C4124 0.929 . S
H4117 C4126 0.930 . S
H4118 C4128 0.930 . S
H4119 C4131 0.929 . S
H4120 C4134 0.930 . S
H4121 C4136 0.960 . S
H4122 C4136 0.960 . S
H4123 C4136 0.960 . S
C4124 H4116 0.929 . S
C4124 C4125 1.377 . S
C4124 C4126 1.384 . S
C4125 C4124 1.377 . S
C4125 C4131 1.390 . S
C4126 H4117 0.930 . S
C4126 C4124 1.384 . S
C4126 C4127 1.372 . S
C4127 C4126 1.372 . S
C4127 C4128 1.400 . S
C4127 C4132 1.490 . S
C4128 H4118 0.930 . S
C4128 C4127 1.400 . S
C4128 C4131 1.386 . S
H4129 C4145 0.930 . S
H4130 C4146 0.931 . S
C4131 H4119 0.929 . S
C4131 C4125 1.390 . S
C4131 C4128 1.386 . S
C4132 C4127 1.490 . S
C4132 C4134 1.395 . S
C4132 C4135 1.403 . S
H4133 C4139 0.930 . S
C4134 H4120 0.930 . S
C4134 C4132 1.395 . S
C4134 C4137 1.403 . S
C4135 C4132 1.403 . S
C4135 C4136 1.524 . S
C4135 C4139 1.400 . S
C4136 H4121 0.960 . S
C4136 H4122 0.960 . S
C4136 H4123 0.960 . S
C4136 C4135 1.524 . S
C4137 C4134 1.403 . S
C4137 C4138 1.392 . S
C4137 C4141 1.495 . S
C4138 C4137 1.392 . S
C4138 C4139 1.385 . S
C4138 C4140 1.478 . S
C4139 H4133 0.930 . S
C4139 C4135 1.400 . S
C4139 C4138 1.385 . S
C4140 C4138 1.478 . S
C4140 C4142 1.381 . S
C4140 C4146 1.383 . S
C4141 C4137 1.495 . S
C4141 H4147 0.959 . S
C4141 H4148 0.961 . S
C4141 H4149 0.960 . S
C4142 C4140 1.381 . S
C4142 C4143 1.394 . S
C4142 H4150 0.930 . S
C4143 C4142 1.394 . S
C4143 C4144 1.383 . S
C4143 H4151 0.929 . S
C4144 C4143 1.383 . S
C4144 C4145 1.377 . S
C4145 H4129 0.930 . S
C4145 C4144 1.377 . S
C4145 C4146 1.379 . S
C4146 H4130 0.931 . S
C4146 C4140 1.383 . S
C4146 C4145 1.379 . S
H4147 C4141 0.959 . S
H4148 C4141 0.961 . S
H4149 C4141 0.960 . S
H4150 C4142 0.930 . S
H4151 C4143 0.929 . S
H4152 C4160 0.929 . S
H4153 C4162 0.930 . S
H4154 C4164 0.925 1_655 S
H4155 C4167 0.929 1_655 S
H4156 C4170 0.930 . S
H4157 C4172 0.960 . S
H4158 C4172 0.960 . S
H4159 C4172 0.960 . S
C4160 H4152 0.929 . S
C4160 C4161 1.377 . S
C4160 C4162 1.384 . S
C4161 C4160 1.377 . S
C4161 C4167 1.390 . S
C4162 H4153 0.930 . S
C4162 C4160 1.384 . S
C4162 C4163 1.372 . S
C4163 C4162 1.372 . S
C4163 C4164 1.400 . S
C4163 C4168 1.490 . S
C4164 H4154 0.925 1_455 S
C4164 C4163 1.400 . S
C4164 C4167 1.386 . S
H4165 C4181 0.930 . S
H4166 C4182 0.931 . S
C4167 H4155 0.929 1_455 S
C4167 C4161 1.390 . S
C4167 C4164 1.386 . S
C4168 C4163 1.490 . S
C4168 C4170 1.395 . S
C4168 C4171 1.403 1_455 S
H4169 C4175 0.930 1_655 S
C4170 H4156 0.930 . S
C4170 C4168 1.395 . S
C4170 C4173 1.403 . S
C4171 C4168 1.403 1_655 S
C4171 C4172 1.524 . S
C4171 C4175 1.400 1_655 S
C4172 H4157 0.960 . S
C4172 H4158 0.960 . S
C4172 H4159 0.960 . S
C4172 C4171 1.524 . S
C4173 C4170 1.403 . S
C4173 C4174 1.392 . S
C4173 C4177 1.495 . S
C4174 C4173 1.392 . S
C4174 C4175 1.385 . S
C4174 C4176 1.478 . S
C4175 H4169 0.930 1_455 S
C4175 C4171 1.400 1_455 S
C4175 C4174 1.385 . S
C4176 C4174 1.478 . S
C4176 C4178 1.381 . S
C4176 C4182 1.383 . S
C4177 C4173 1.495 . S
C4177 H4183 0.959 . S
C4177 H4184 0.961 . S
C4177 H4185 0.960 . S
C4178 C4176 1.381 . S
C4178 C4179 1.394 . S
C4178 H4186 0.930 . S
C4179 C4178 1.394 . S
C4179 C4180 1.383 . S
C4179 H4187 0.929 . S
C4180 C4179 1.383 . S
C4180 C4181 1.377 . S
C4181 H4165 0.930 . S
C4181 C4180 1.377 . S
C4181 C4182 1.379 . S
C4182 H4166 0.931 . S
C4182 C4176 1.383 . S
C4182 C4181 1.379 . S
H4183 C4177 0.959 . S
H4184 C4177 0.961 . S
H4185 C4177 0.960 . S
H4186 C4178 0.930 . S
H4187 C4179 0.929 . S
H4188 C4196 0.929 . S
H4189 C4198 0.930 . S
H4190 C4200 0.930 . S
H4191 C4203 0.929 . S
H4192 C4206 0.930 . S
H4193 C4208 0.960 . S
H4194 C4208 0.960 . S
H4195 C4208 0.960 . S
C4196 H4188 0.929 . S
C4196 C4197 1.377 . S
C4196 C4198 1.384 . S
C4197 C4196 1.377 . S
C4197 C4203 1.390 . S
C4198 H4189 0.930 . S
C4198 C4196 1.384 . S
C4198 C4199 1.372 . S
C4199 C4198 1.372 . S
C4199 C4200 1.400 . S
C4199 C4204 1.490 . S
C4200 H4190 0.930 . S
C4200 C4199 1.400 . S
C4200 C4203 1.386 . S
H4201 C4217 0.930 . S
H4202 C4218 0.931 . S
C4203 H4191 0.929 . S
C4203 C4197 1.390 . S
C4203 C4200 1.386 . S
C4204 C4199 1.490 . S
C4204 C4206 1.395 . S
C4204 C4207 1.403 . S
H4205 C4211 0.930 . S
C4206 H4192 0.930 . S
C4206 C4204 1.395 . S
C4206 C4209 1.403 . S
C4207 C4204 1.403 . S
C4207 C4208 1.524 . S
C4207 C4211 1.400 . S
C4208 H4193 0.960 . S
C4208 H4194 0.960 . S
C4208 H4195 0.960 . S
C4208 C4207 1.524 . S
C4209 C4206 1.403 . S
C4209 C4210 1.392 . S
C4209 C4213 1.495 . S
C4210 C4209 1.392 . S
C4210 C4211 1.385 . S
C4210 C4212 1.478 . S
C4211 H4205 0.930 . S
C4211 C4207 1.400 . S
C4211 C4210 1.385 . S
C4212 C4210 1.478 . S
C4212 C4214 1.381 . S
C4212 C4218 1.383 . S
C4213 C4209 1.495 . S
C4213 H4219 0.959 . S
C4213 H4220 0.961 . S
C4213 H4221 0.960 . S
C4214 C4212 1.381 . S
C4214 C4215 1.394 . S
C4214 H4222 0.930 . S
C4215 C4214 1.394 . S
C4215 C4216 1.383 . S
C4215 H4223 0.929 . S
C4216 C4215 1.383 . S
C4216 C4217 1.377 . S
C4217 H4201 0.930 . S
C4217 C4216 1.377 . S
C4217 C4218 1.379 . S
C4218 H4202 0.931 . S
C4218 C4212 1.383 . S
C4218 C4217 1.379 . S
H4219 C4213 0.959 . S
H4220 C4213 0.961 . S
H4221 C4213 0.960 . S
H4222 C4214 0.930 . S
H4223 C4215 0.929 . S
H4224 C4232 0.929 . S
H4225 C4234 0.930 . S
H4226 C4236 0.930 . S
H4227 C4239 0.929 . S
H4228 C4242 0.930 . S
H4229 C4244 0.960 . S
H4230 C4244 0.960 . S
H4231 C4244 0.960 . S
C4232 H4224 0.929 . S
C4232 C4233 1.377 . S
C4232 C4234 1.384 . S
C4233 C4232 1.377 . S
C4233 C4239 1.390 . S
C4234 H4225 0.930 . S
C4234 C4232 1.384 . S
C4234 C4235 1.372 . S
C4235 C4234 1.372 . S
C4235 C4236 1.400 . S
C4235 C4240 1.490 . S
C4236 H4226 0.930 . S
C4236 C4235 1.400 . S
C4236 C4239 1.386 . S
H4237 C4253 0.930 . S
H4238 C4254 0.931 . S
C4239 H4227 0.929 . S
C4239 C4233 1.390 . S
C4239 C4236 1.386 . S
C4240 C4235 1.490 . S
C4240 C4242 1.395 . S
C4240 C4243 1.403 . S
H4241 C4247 0.930 . S
C4242 H4228 0.930 . S
C4242 C4240 1.395 . S
C4242 C4245 1.403 . S
C4243 C4240 1.403 . S
C4243 C4244 1.524 . S
C4243 C4247 1.400 . S
C4244 H4229 0.960 . S
C4244 H4230 0.960 . S
C4244 H4231 0.960 . S
C4244 C4243 1.524 . S
C4245 C4242 1.403 . S
C4245 C4246 1.392 . S
C4245 C4249 1.495 . S
C4246 C4245 1.392 . S
C4246 C4247 1.385 . S
C4246 C4248 1.478 . S
C4247 H4241 0.930 . S
C4247 C4243 1.400 . S
C4247 C4246 1.385 . S
C4248 C4246 1.478 . S
C4248 C4250 1.381 . S
C4248 C4254 1.383 . S
C4249 C4245 1.495 . S
C4249 H4255 0.959 . S
C4249 H4256 0.961 . S
C4249 H4257 0.960 . S
C4250 C4248 1.381 . S
C4250 C4251 1.394 . S
C4250 H4258 0.930 . S
C4251 C4250 1.394 . S
C4251 C4252 1.383 . S
C4251 H4259 0.929 . S
C4252 C4251 1.383 . S
C4252 C4253 1.377 . S
C4253 H4237 0.930 . S
C4253 C4252 1.377 . S
C4253 C4254 1.379 . S
C4254 H4238 0.931 . S
C4254 C4248 1.383 . S
C4254 C4253 1.379 . S
H4255 C4249 0.959 . S
H4256 C4249 0.961 . S
H4257 C4249 0.960 . S
H4258 C4250 0.930 . S
H4259 C4251 0.929 . S
H4260 C4268 0.929 . S
H4261 C4270 0.930 . S
H4262 C4272 0.930 . S
H4263 C4275 0.912 1_554 S
H4264 C4278 0.930 . S
H4265 C4280 0.960 . S
H4266 C4280 0.960 . S
H4267 C4280 0.960 . S
C4268 H4260 0.929 . S
C4268 C4269 1.377 . S
C4268 C4270 1.384 . S
C4269 C4268 1.377 . S
C4269 C4275 1.389 . S
C4270 H4261 0.930 . S
C4270 C4268 1.384 . S
C4270 C4271 1.372 . S
C4271 C4270 1.372 . S
C4271 C4272 1.400 . S
C4271 C4276 1.490 . S
C4272 H4262 0.930 . S
C4272 C4271 1.400 . S
C4272 C4275 1.403 . S
H4273 C4289 0.930 . S
H4274 C4290 0.931 . S
C4275 H4263 0.912 1_556 S
C4275 C4269 1.389 . S
C4275 C4272 1.403 . S
C4276 C4271 1.490 . S
C4276 C4278 1.395 . S
C4276 C4279 1.403 . S
H4277 C4283 0.930 . S
C4278 H4264 0.930 . S
C4278 C4276 1.395 . S
C4278 C4281 1.403 . S
C4279 C4276 1.403 . S
C4279 C4280 1.524 . S
C4279 C4283 1.400 . S
C4280 H4265 0.960 . S
C4280 H4266 0.960 . S
C4280 H4267 0.960 . S
C4280 C4279 1.524 . S
C4281 C4278 1.403 . S
C4281 C4282 1.392 . S
C4281 C4285 1.495 . S
C4282 C4281 1.392 . S
C4282 C4283 1.385 . S
C4282 C4284 1.478 . S
C4283 H4277 0.930 . S
C4283 C4279 1.400 . S
C4283 C4282 1.385 . S
C4284 C4282 1.478 . S
C4284 C4286 1.381 . S
C4284 C4290 1.383 . S
C4285 C4281 1.495 . S
C4285 H4291 0.959 . S
C4285 H4292 0.961 . S
C4285 H4293 0.960 . S
C4286 C4284 1.381 . S
C4286 C4287 1.394 . S
C4286 H4294 0.930 . S
C4287 C4286 1.394 . S
C4287 C4288 1.383 . S
C4287 H4295 0.929 . S
C4288 C4287 1.383 . S
C4288 C4289 1.377 . S
C4289 H4273 0.930 . S
C4289 C4288 1.377 . S
C4289 C4290 1.379 . S
C4290 H4274 0.931 . S
C4290 C4284 1.383 . S
C4290 C4289 1.379 . S
H4291 C4285 0.959 . S
H4292 C4285 0.961 . S
H4293 C4285 0.960 . S
H4294 C4286 0.930 . S
H4295 C4287 0.929 . S
H4296 C4304 0.929 . S
H4297 C4306 0.930 . S
H4298 C4308 0.930 . S
H4299 C4311 0.929 . S
H4300 C4314 0.930 . S
H4301 C4316 0.960 . S
H4302 C4316 0.960 . S
H4303 C4316 0.960 . S
C4304 H4296 0.929 . S
C4304 C4305 1.377 . S
C4304 C4306 1.384 . S
C4305 C4304 1.377 . S
C4305 C4311 1.390 . S
C4306 H4297 0.930 . S
C4306 C4304 1.384 . S
C4306 C4307 1.372 . S
C4307 C4306 1.372 . S
C4307 C4308 1.400 . S
C4307 C4312 1.490 . S
C4308 H4298 0.930 . S
C4308 C4307 1.400 . S
C4308 C4311 1.386 . S
H4309 C4325 0.930 . S
H4310 C4326 0.931 . S
C4311 H4299 0.929 . S
C4311 C4305 1.390 . S
C4311 C4308 1.386 . S
C4312 C4307 1.490 . S
C4312 C4314 1.395 . S
C4312 C4315 1.403 . S
H4313 C4319 0.930 . S
C4314 H4300 0.930 . S
C4314 C4312 1.395 . S
C4314 C4317 1.403 . S
C4315 C4312 1.403 . S
C4315 C4316 1.524 . S
C4315 C4319 1.400 . S
C4316 H4301 0.960 . S
C4316 H4302 0.960 . S
C4316 H4303 0.960 . S
C4316 C4315 1.524 . S
C4317 C4314 1.403 . S
C4317 C4318 1.392 . S
C4317 C4321 1.495 . S
C4318 C4317 1.392 . S
C4318 C4319 1.385 . S
C4318 C4320 1.478 . S
C4319 H4313 0.930 . S
C4319 C4315 1.400 . S
C4319 C4318 1.385 . S
C4320 C4318 1.478 . S
C4320 C4322 1.381 . S
C4320 C4326 1.383 . S
C4321 C4317 1.495 . S
C4321 H4327 0.959 . S
C4321 H4328 0.961 . S
C4321 H4329 0.960 . S
C4322 C4320 1.381 . S
C4322 C4323 1.394 . S
C4322 H4330 0.930 . S
C4323 C4322 1.394 . S
C4323 C4324 1.383 . S
C4323 H4331 0.929 . S
C4324 C4323 1.383 . S
C4324 C4325 1.377 . S
C4325 H4309 0.930 . S
C4325 C4324 1.377 . S
C4325 C4326 1.379 . S
C4326 H4310 0.931 . S
C4326 C4320 1.383 . S
C4326 C4325 1.379 . S
H4327 C4321 0.959 . S
H4328 C4321 0.961 . S
H4329 C4321 0.960 . S
H4330 C4322 0.930 . S
H4331 C4323 0.929 . S
H4332 C4340 0.929 . S
H4333 C4342 0.930 . S
H4334 C4344 0.930 . S
H4335 C4347 0.929 . S
H4336 C4350 0.930 . S
H4337 C4352 0.960 . S
H4338 C4352 0.960 . S
H4339 C4352 0.960 . S
C4340 H4332 0.929 . S
C4340 C4341 1.377 . S
C4340 C4342 1.384 . S
C4341 C4340 1.377 . S
C4341 C4347 1.390 . S
C4342 H4333 0.930 . S
C4342 C4340 1.384 . S
C4342 C4343 1.372 . S
C4343 C4342 1.372 . S
C4343 C4344 1.400 . S
C4343 C4348 1.490 . S
C4344 H4334 0.930 . S
C4344 C4343 1.400 . S
C4344 C4347 1.386 . S
H4345 C4361 0.930 . S
H4346 C4362 0.931 . S
C4347 H4335 0.929 . S
C4347 C4341 1.390 . S
C4347 C4344 1.386 . S
C4348 C4343 1.490 . S
C4348 C4350 1.395 . S
C4348 C4351 1.403 . S
H4349 C4355 0.930 . S
C4350 H4336 0.930 . S
C4350 C4348 1.395 . S
C4350 C4353 1.403 . S
C4351 C4348 1.403 . S
C4351 C4352 1.524 . S
C4351 C4355 1.400 . S
C4352 H4337 0.960 . S
C4352 H4338 0.960 . S
C4352 H4339 0.960 . S
C4352 C4351 1.524 . S
C4353 C4350 1.403 . S
C4353 C4354 1.392 . S
C4353 C4357 1.495 . S
C4354 C4353 1.392 . S
C4354 C4355 1.385 . S
C4354 C4356 1.478 . S
C4355 H4349 0.930 . S
C4355 C4351 1.400 . S
C4355 C4354 1.385 . S
C4356 C4354 1.478 . S
C4356 C4358 1.381 . S
C4356 C4362 1.383 . S
C4357 C4353 1.495 . S
C4357 H4363 0.959 . S
C4357 H4364 0.961 . S
C4357 H4365 0.960 . S
C4358 C4356 1.381 . S
C4358 C4359 1.394 . S
C4358 H4366 0.930 . S
C4359 C4358 1.394 . S
C4359 C4360 1.383 . S
C4359 H4367 0.929 . S
C4360 C4359 1.383 . S
C4360 C4361 1.377 . S
C4361 H4345 0.930 . S
C4361 C4360 1.377 . S
C4361 C4362 1.379 . S
C4362 H4346 0.931 . S
C4362 C4356 1.383 . S
C4362 C4361 1.379 . S
H4363 C4357 0.959 . S
H4364 C4357 0.961 . S
H4365 C4357 0.960 . S
H4366 C4358 0.930 . S
H4367 C4359 0.929 . S
H4368 C4376 0.929 . S
H4369 C4378 0.930 . S
H4370 C4380 0.930 . S
H4371 C4383 0.929 . S
H4372 C4386 0.930 . S
H4373 C4388 0.960 . S
H4374 C4388 0.960 . S
H4375 C4388 0.960 . S
C4376 H4368 0.929 . S
C4376 C4377 1.377 . S
C4376 C4378 1.384 . S
C4377 C4376 1.377 . S
C4377 C4383 1.390 . S
C4378 H4369 0.930 . S
C4378 C4376 1.384 . S
C4378 C4379 1.372 . S
C4379 C4378 1.372 . S
C4379 C4380 1.400 . S
C4379 C4384 1.490 . S
C4380 H4370 0.930 . S
C4380 C4379 1.400 . S
C4380 C4383 1.386 . S
H4381 C4397 0.930 . S
H4382 C4398 0.931 . S
C4383 H4371 0.929 . S
C4383 C4377 1.390 . S
C4383 C4380 1.386 . S
C4384 C4379 1.490 . S
C4384 C4386 1.395 . S
C4384 C4387 1.403 . S
H4385 C4391 0.930 . S
C4386 H4372 0.930 . S
C4386 C4384 1.395 . S
C4386 C4389 1.403 . S
C4387 C4384 1.403 . S
C4387 C4388 1.524 . S
C4387 C4391 1.400 . S
C4388 H4373 0.960 . S
C4388 H4374 0.960 . S
C4388 H4375 0.960 . S
C4388 C4387 1.524 . S
C4389 C4386 1.403 . S
C4389 C4390 1.392 . S
C4389 C4393 1.495 . S
C4390 C4389 1.392 . S
C4390 C4391 1.385 . S
C4390 C4392 1.478 . S
C4391 H4385 0.930 . S
C4391 C4387 1.400 . S
C4391 C4390 1.385 . S
C4392 C4390 1.478 . S
C4392 C4394 1.381 . S
C4392 C4398 1.383 . S
C4393 C4389 1.495 . S
C4393 H4399 0.959 . S
C4393 H4400 0.961 . S
C4393 H4401 0.960 . S
C4394 C4392 1.381 . S
C4394 C4395 1.394 . S
C4394 H4402 0.930 . S
C4395 C4394 1.394 . S
C4395 C4396 1.383 . S
C4395 H4403 0.929 . S
C4396 C4395 1.383 . S
C4396 C4397 1.377 . S
C4397 H4381 0.930 . S
C4397 C4396 1.377 . S
C4397 C4398 1.379 . S
C4398 H4382 0.931 . S
C4398 C4392 1.383 . S
C4398 C4397 1.379 . S
H4399 C4393 0.959 . S
H4400 C4393 0.961 . S
H4401 C4393 0.960 . S
H4402 C4394 0.930 . S
H4403 C4395 0.929 . S
H4404 C4412 0.929 . S
H4405 C4414 0.930 . S
H4406 C4416 0.930 . S
H4407 C4419 0.929 . S
H4408 C4422 0.930 . S
H4409 C4424 0.960 . S
H4410 C4424 0.960 . S
H4411 C4424 0.960 . S
C4412 H4404 0.929 . S
C4412 C4413 1.377 . S
C4412 C4414 1.384 . S
C4413 C4412 1.377 . S
C4413 C4419 1.390 . S
C4414 H4405 0.930 . S
C4414 C4412 1.384 . S
C4414 C4415 1.372 . S
C4415 C4414 1.372 . S
C4415 C4416 1.400 . S
C4415 C4420 1.490 . S
C4416 H4406 0.930 . S
C4416 C4415 1.400 . S
C4416 C4419 1.386 . S
H4417 C4433 0.930 . S
H4418 C4434 0.931 . S
C4419 H4407 0.929 . S
C4419 C4413 1.390 . S
C4419 C4416 1.386 . S
C4420 C4415 1.490 . S
C4420 C4422 1.395 . S
C4420 C4423 1.403 . S
H4421 C4427 0.930 . S
C4422 H4408 0.930 . S
C4422 C4420 1.395 . S
C4422 C4425 1.403 . S
C4423 C4420 1.403 . S
C4423 C4424 1.524 . S
C4423 C4427 1.400 . S
C4424 H4409 0.960 . S
C4424 H4410 0.960 . S
C4424 H4411 0.960 . S
C4424 C4423 1.524 . S
C4425 C4422 1.403 . S
C4425 C4426 1.392 . S
C4425 C4429 1.495 . S
C4426 C4425 1.392 . S
C4426 C4427 1.385 . S
C4426 C4428 1.478 . S
C4427 H4421 0.930 . S
C4427 C4423 1.400 . S
C4427 C4426 1.385 . S
C4428 C4426 1.478 . S
C4428 C4430 1.381 . S
C4428 C4434 1.383 . S
C4429 C4425 1.495 . S
C4429 H4435 0.959 . S
C4429 H4436 0.961 . S
C4429 H4437 0.960 . S
C4430 C4428 1.381 . S
C4430 C4431 1.394 . S
C4430 H4438 0.930 . S
C4431 C4430 1.394 . S
C4431 C4432 1.383 . S
C4431 H4439 0.929 . S
C4432 C4431 1.383 . S
C4432 C4433 1.377 . S
C4433 H4417 0.930 . S
C4433 C4432 1.377 . S
C4433 C4434 1.379 . S
C4434 H4418 0.931 . S
C4434 C4428 1.383 . S
C4434 C4433 1.379 . S
H4435 C4429 0.959 . S
H4436 C4429 0.961 . S
H4437 C4429 0.960 . S
H4438 C4430 0.930 . S
H4439 C4431 0.929 . S
H4440 C4448 0.929 . S
H4441 C4450 0.930 . S
H4442 C4452 0.930 . S
H4443 C4455 0.929 . S
H4444 C4458 0.930 . S
H4445 C4460 0.960 . S
H4446 C4460 0.960 . S
H4447 C4460 0.960 . S
C4448 H4440 0.929 . S
C4448 C4449 1.377 . S
C4448 C4450 1.384 . S
C4449 C4448 1.377 . S
C4449 C4455 1.390 . S
C4450 H4441 0.930 . S
C4450 C4448 1.384 . S
C4450 C4451 1.372 . S
C4451 C4450 1.372 . S
C4451 C4452 1.400 . S
C4451 C4456 1.490 . S
C4452 H4442 0.930 . S
C4452 C4451 1.400 . S
C4452 C4455 1.386 . S
H4453 C4469 0.930 . S
H4454 C4470 0.931 . S
C4455 H4443 0.929 . S
C4455 C4449 1.390 . S
C4455 C4452 1.386 . S
C4456 C4451 1.490 . S
C4456 C4458 1.395 . S
C4456 C4459 1.403 . S
H4457 C4463 0.930 . S
C4458 H4444 0.930 . S
C4458 C4456 1.395 . S
C4458 C4461 1.403 . S
C4459 C4456 1.403 . S
C4459 C4460 1.524 . S
C4459 C4463 1.400 . S
C4460 H4445 0.960 . S
C4460 H4446 0.960 . S
C4460 H4447 0.960 . S
C4460 C4459 1.524 . S
C4461 C4458 1.403 . S
C4461 C4462 1.392 . S
C4461 C4465 1.495 . S
C4462 C4461 1.392 . S
C4462 C4463 1.385 . S
C4462 C4464 1.478 . S
C4463 H4457 0.930 . S
C4463 C4459 1.400 . S
C4463 C4462 1.385 . S
C4464 C4462 1.478 . S
C4464 C4466 1.381 . S
C4464 C4470 1.383 . S
C4465 C4461 1.495 . S
C4465 H4471 0.959 . S
C4465 H4472 0.961 . S
C4465 H4473 0.960 . S
C4466 C4464 1.381 . S
C4466 C4467 1.394 . S
C4466 H4474 0.930 . S
C4467 C4466 1.394 . S
C4467 C4468 1.383 . S
C4467 H4475 0.929 . S
C4468 C4467 1.383 . S
C4468 C4469 1.377 . S
C4469 H4453 0.930 . S
C4469 C4468 1.377 . S
C4469 C4470 1.379 . S
C4470 H4454 0.931 . S
C4470 C4464 1.383 . S
C4470 C4469 1.379 . S
H4471 C4465 0.959 . S
H4472 C4465 0.961 . S
H4473 C4465 0.960 . S
H4474 C4466 0.930 . S
H4475 C4467 0.929 . S
H4476 C4484 0.929 . S
H4477 C4486 0.930 . S
H4478 C4488 0.930 . S
H4479 C4491 0.929 . S
H4480 C4494 0.930 . S
H4481 C4496 0.960 . S
H4482 C4496 0.960 . S
H4483 C4496 0.960 . S
C4484 H4476 0.929 . S
C4484 C4485 1.377 . S
C4484 C4486 1.384 . S
C4485 C4484 1.377 . S
C4485 C4491 1.390 . S
C4486 H4477 0.930 . S
C4486 C4484 1.384 . S
C4486 C4487 1.372 . S
C4487 C4486 1.372 . S
C4487 C4488 1.400 . S
C4487 C4492 1.490 . S
C4488 H4478 0.930 . S
C4488 C4487 1.400 . S
C4488 C4491 1.386 . S
H4489 C4505 0.930 . S
H4490 C4506 0.931 . S
C4491 H4479 0.929 . S
C4491 C4485 1.390 . S
C4491 C4488 1.386 . S
C4492 C4487 1.490 . S
C4492 C4494 1.395 . S
C4492 C4495 1.403 . S
H4493 C4499 0.930 . S
C4494 H4480 0.930 . S
C4494 C4492 1.395 . S
C4494 C4497 1.403 . S
C4495 C4492 1.403 . S
C4495 C4496 1.524 . S
C4495 C4499 1.400 . S
C4496 H4481 0.960 . S
C4496 H4482 0.960 . S
C4496 H4483 0.960 . S
C4496 C4495 1.524 . S
C4497 C4494 1.403 . S
C4497 C4498 1.392 . S
C4497 C4501 1.495 . S
C4498 C4497 1.392 . S
C4498 C4499 1.385 . S
C4498 C4500 1.478 . S
C4499 H4493 0.930 . S
C4499 C4495 1.400 . S
C4499 C4498 1.385 . S
C4500 C4498 1.478 . S
C4500 C4502 1.381 . S
C4500 C4506 1.383 . S
C4501 C4497 1.495 . S
C4501 H4507 0.959 . S
C4501 H4508 0.961 . S
C4501 H4509 0.960 . S
C4502 C4500 1.381 . S
C4502 C4503 1.394 . S
C4502 H4510 0.930 . S
C4503 C4502 1.394 . S
C4503 C4504 1.383 . S
C4503 H4511 0.929 . S
C4504 C4503 1.383 . S
C4504 C4505 1.377 . S
C4505 H4489 0.930 . S
C4505 C4504 1.377 . S
C4505 C4506 1.379 . S
C4506 H4490 0.931 . S
C4506 C4500 1.383 . S
C4506 C4505 1.379 . S
H4507 C4501 0.959 . S
H4508 C4501 0.961 . S
H4509 C4501 0.960 . S
H4510 C4502 0.930 . S
H4511 C4503 0.929 . S
H4512 C4520 0.929 . S
H4513 C4522 0.930 . S
H4514 C4524 0.930 . S
H4515 C4527 0.929 . S
H4516 C4530 0.930 . S
H4517 C4532 0.960 . S
H4518 C4532 0.960 . S
H4519 C4532 0.960 . S
C4520 H4512 0.929 . S
C4520 C4521 1.377 . S
C4520 C4522 1.384 . S
C4521 C4520 1.377 . S
C4521 C4527 1.390 . S
C4522 H4513 0.930 . S
C4522 C4520 1.384 . S
C4522 C4523 1.372 . S
C4523 C4522 1.372 . S
C4523 C4524 1.400 . S
C4523 C4528 1.490 . S
C4524 H4514 0.930 . S
C4524 C4523 1.400 . S
C4524 C4527 1.386 . S
H4525 C4541 0.930 . S
H4526 C4542 0.931 . S
C4527 H4515 0.929 . S
C4527 C4521 1.390 . S
C4527 C4524 1.386 . S
C4528 C4523 1.490 . S
C4528 C4530 1.395 . S
C4528 C4531 1.403 . S
H4529 C4535 0.930 . S
C4530 H4516 0.930 . S
C4530 C4528 1.395 . S
C4530 C4533 1.403 . S
C4531 C4528 1.403 . S
C4531 C4532 1.524 . S
C4531 C4535 1.400 . S
C4532 H4517 0.960 . S
C4532 H4518 0.960 . S
C4532 H4519 0.960 . S
C4532 C4531 1.524 . S
C4533 C4530 1.403 . S
C4533 C4534 1.392 . S
C4533 C4537 1.495 . S
C4534 C4533 1.392 . S
C4534 C4535 1.385 . S
C4534 C4536 1.478 . S
C4535 H4529 0.930 . S
C4535 C4531 1.400 . S
C4535 C4534 1.385 . S
C4536 C4534 1.478 . S
C4536 C4538 1.381 . S
C4536 C4542 1.383 . S
C4537 C4533 1.495 . S
C4537 H4543 0.959 . S
C4537 H4544 0.961 . S
C4537 H4545 0.960 . S
C4538 C4536 1.381 . S
C4538 C4539 1.394 . S
C4538 H4546 0.930 . S
C4539 C4538 1.394 . S
C4539 C4540 1.383 . S
C4539 H4547 0.929 . S
C4540 C4539 1.383 . S
C4540 C4541 1.377 . S
C4541 H4525 0.930 . S
C4541 C4540 1.377 . S
C4541 C4542 1.379 . S
C4542 H4526 0.931 . S
C4542 C4536 1.383 . S
C4542 C4541 1.379 . S
H4543 C4537 0.959 . S
H4544 C4537 0.961 . S
H4545 C4537 0.960 . S
H4546 C4538 0.930 . S
H4547 C4539 0.929 . S
H4548 C4556 0.929 . S
H4549 C4558 0.930 . S
H4550 C4560 0.930 . S
H4551 C4563 0.929 . S
H4552 C4566 0.930 . S
H4553 C4568 0.960 . S
H4554 C4568 0.960 . S
H4555 C4568 0.960 . S
C4556 H4548 0.929 . S
C4556 C4557 1.377 . S
C4556 C4558 1.384 . S
C4557 C4556 1.377 . S
C4557 C4563 1.390 . S
C4558 H4549 0.930 . S
C4558 C4556 1.384 . S
C4558 C4559 1.372 . S
C4559 C4558 1.372 . S
C4559 C4560 1.400 . S
C4559 C4564 1.490 . S
C4560 H4550 0.930 . S
C4560 C4559 1.400 . S
C4560 C4563 1.386 . S
H4561 C4577 0.930 . S
H4562 C4578 0.931 . S
C4563 H4551 0.929 . S
C4563 C4557 1.390 . S
C4563 C4560 1.386 . S
C4564 C4559 1.490 . S
C4564 C4566 1.395 . S
C4564 C4567 1.403 . S
H4565 C4571 0.930 . S
C4566 H4552 0.930 . S
C4566 C4564 1.395 . S
C4566 C4569 1.403 . S
C4567 C4564 1.403 . S
C4567 C4568 1.524 . S
C4567 C4571 1.400 . S
C4568 H4553 0.960 . S
C4568 H4554 0.960 . S
C4568 H4555 0.960 . S
C4568 C4567 1.524 . S
C4569 C4566 1.403 . S
C4569 C4570 1.392 . S
C4569 C4573 1.495 . S
C4570 C4569 1.392 . S
C4570 C4571 1.385 . S
C4570 C4572 1.478 . S
C4571 H4565 0.930 . S
C4571 C4567 1.400 . S
C4571 C4570 1.385 . S
C4572 C4570 1.478 . S
C4572 C4574 1.381 . S
C4572 C4578 1.383 . S
C4573 C4569 1.495 . S
C4573 H4579 0.959 . S
C4573 H4580 0.961 . S
C4573 H4581 0.960 . S
C4574 C4572 1.381 . S
C4574 C4575 1.394 . S
C4574 H4582 0.930 . S
C4575 C4574 1.394 . S
C4575 C4576 1.383 . S
C4575 H4583 0.929 . S
C4576 C4575 1.383 . S
C4576 C4577 1.377 . S
C4577 H4561 0.930 . S
C4577 C4576 1.377 . S
C4577 C4578 1.379 . S
C4578 H4562 0.931 . S
C4578 C4572 1.383 . S
C4578 C4577 1.379 . S
H4579 C4573 0.959 . S
H4580 C4573 0.961 . S
H4581 C4573 0.960 . S
H4582 C4574 0.930 . S
H4583 C4575 0.929 . S
H4584 C4592 0.929 . S
H4585 C4594 0.930 . S
H4586 C4596 0.930 . S
H4587 C4599 0.929 . S
H4588 C4602 0.930 . S
H4589 C4604 0.960 . S
H4590 C4604 0.960 . S
H4591 C4604 0.960 . S
C4592 H4584 0.929 . S
C4592 C4593 1.377 . S
C4592 C4594 1.384 . S
C4593 C4592 1.377 . S
C4593 C4599 1.390 . S
C4594 H4585 0.930 . S
C4594 C4592 1.384 . S
C4594 C4595 1.372 . S
C4595 C4594 1.372 . S
C4595 C4596 1.400 . S
C4595 C4600 1.490 . S
C4596 H4586 0.930 . S
C4596 C4595 1.400 . S
C4596 C4599 1.386 . S
H4597 C4613 0.930 . S
H4598 C4614 0.931 . S
C4599 H4587 0.929 . S
C4599 C4593 1.390 . S
C4599 C4596 1.386 . S
C4600 C4595 1.490 . S
C4600 C4602 1.395 . S
C4600 C4603 1.403 . S
H4601 C4607 0.930 . S
C4602 H4588 0.930 . S
C4602 C4600 1.395 . S
C4602 C4605 1.403 . S
C4603 C4600 1.403 . S
C4603 C4604 1.524 . S
C4603 C4607 1.400 . S
C4604 H4589 0.960 . S
C4604 H4590 0.960 . S
C4604 H4591 0.960 . S
C4604 C4603 1.524 . S
C4605 C4602 1.403 . S
C4605 C4606 1.392 . S
C4605 C4609 1.495 . S
C4606 C4605 1.392 . S
C4606 C4607 1.385 . S
C4606 C4608 1.478 . S
C4607 H4601 0.930 . S
C4607 C4603 1.400 . S
C4607 C4606 1.385 . S
C4608 C4606 1.478 . S
C4608 C4610 1.381 . S
C4608 C4614 1.383 . S
C4609 C4605 1.495 . S
C4609 H4615 0.959 . S
C4609 H4616 0.961 . S
C4609 H4617 0.960 . S
C4610 C4608 1.381 . S
C4610 C4611 1.394 . S
C4610 H4618 0.930 . S
C4611 C4610 1.394 . S
C4611 C4612 1.383 . S
C4611 H4619 0.929 . S
C4612 C4611 1.383 . S
C4612 C4613 1.377 . S
C4613 H4597 0.930 . S
C4613 C4612 1.377 . S
C4613 C4614 1.379 . S
C4614 H4598 0.931 . S
C4614 C4608 1.383 . S
C4614 C4613 1.379 . S
H4615 C4609 0.959 . S
H4616 C4609 0.961 . S
H4617 C4609 0.960 . S
H4618 C4610 0.930 . S
H4619 C4611 0.929 . S
H4620 C4628 0.929 . S
H4621 C4630 0.930 . S
H4622 C4632 0.930 . S
H4623 C4635 0.929 . S
H4624 C4638 0.930 1_556 S
H4625 C4640 0.960 . S
H4626 C4640 0.960 . S
H4627 C4640 0.960 . S
C4628 H4620 0.929 . S
C4628 C4629 1.377 1_556 S
C4628 C4630 1.384 . S
C4629 C4628 1.377 1_554 S
C4629 C4635 1.390 . S
C4630 H4621 0.930 . S
C4630 C4628 1.384 . S
C4630 C4631 1.372 1_556 S
C4631 C4630 1.372 1_554 S
C4631 C4632 1.400 . S
C4631 C4636 1.490 . S
C4632 H4622 0.930 . S
C4632 C4631 1.400 . S
C4632 C4635 1.386 . S
H4633 C4649 0.930 . S
H4634 C4650 0.933 . S
C4635 H4623 0.929 . S
C4635 C4629 1.390 . S
C4635 C4632 1.386 . S
C4636 C4631 1.490 . S
C4636 C4638 1.395 . S
C4636 C4639 1.403 . S
H4637 C4643 0.930 . S
C4638 H4624 0.930 1_554 S
C4638 C4636 1.395 . S
C4638 C4641 1.403 . S
C4639 C4636 1.403 . S
C4639 C4640 1.524 . S
C4639 C4643 1.400 . S
C4640 H4625 0.960 . S
C4640 H4626 0.960 . S
C4640 H4627 0.960 . S
C4640 C4639 1.524 . S
C4641 C4638 1.403 . S
C4641 C4642 1.392 . S
C4641 C4645 1.495 1_564 S
C4642 C4641 1.392 . S
C4642 C4643 1.385 . S
C4642 C4644 1.478 . S
C4643 H4637 0.930 . S
C4643 C4639 1.400 . S
C4643 C4642 1.385 . S
C4644 C4642 1.478 . S
C4644 C4646 1.381 1_554 S
C4644 C4650 1.383 1_565 S
C4645 C4641 1.495 1_546 S
C4645 H4651 0.959 . S
C4645 H4652 0.961 1_556 S
C4645 H4653 0.960 . S
C4646 C4644 1.381 1_556 S
C4646 C4647 1.394 1_565 S
C4646 H4654 0.930 . S
C4647 C4646 1.394 1_545 S
C4647 C4648 1.383 1_556 S
C4647 H4655 0.930 . S
C4648 C4647 1.383 1_554 S
C4648 C4649 1.377 . S
C4649 H4633 0.930 . S
C4649 C4648 1.377 . S
C4649 C4650 1.379 . S
C4650 H4634 0.933 . S
C4650 C4644 1.383 1_545 S
C4650 C4649 1.379 . S
H4651 C4645 0.959 . S
H4652 C4645 0.961 1_554 S
H4653 C4645 0.960 . S
H4654 C4646 0.930 . S
H4655 C4647 0.930 . S
H4656 C4664 0.929 . S
H4657 C4666 0.930 . S
H4658 C4668 0.930 . S
H4659 C4671 0.929 . S
H4660 C4674 0.930 . S
H4661 C4676 0.960 . S
H4662 C4676 0.960 . S
H4663 C4676 0.960 . S
C4664 H4656 0.929 . S
C4664 C4665 1.377 . S
C4664 C4666 1.384 . S
C4665 C4664 1.377 . S
C4665 C4671 1.390 . S
C4666 H4657 0.930 . S
C4666 C4664 1.384 . S
C4666 C4667 1.372 . S
C4667 C4666 1.372 . S
C4667 C4668 1.400 . S
C4667 C4672 1.490 . S
C4668 H4658 0.930 . S
C4668 C4667 1.400 . S
C4668 C4671 1.386 . S
H4669 C4685 0.930 . S
H4670 C4686 0.931 . S
C4671 H4659 0.929 . S
C4671 C4665 1.390 . S
C4671 C4668 1.386 . S
C4672 C4667 1.490 . S
C4672 C4674 1.395 . S
C4672 C4675 1.403 . S
H4673 C4679 0.930 . S
C4674 H4660 0.930 . S
C4674 C4672 1.395 . S
C4674 C4677 1.403 . S
C4675 C4672 1.403 . S
C4675 C4676 1.524 . S
C4675 C4679 1.400 . S
C4676 H4661 0.960 . S
C4676 H4662 0.960 . S
C4676 H4663 0.960 . S
C4676 C4675 1.524 . S
C4677 C4674 1.403 . S
C4677 C4678 1.392 . S
C4677 C4681 1.495 . S
C4678 C4677 1.392 . S
C4678 C4679 1.385 . S
C4678 C4680 1.478 . S
C4679 H4673 0.930 . S
C4679 C4675 1.400 . S
C4679 C4678 1.385 . S
C4680 C4678 1.478 . S
C4680 C4682 1.381 . S
C4680 C4686 1.383 . S
C4681 C4677 1.495 . S
C4681 H4687 0.959 . S
C4681 H4688 0.961 . S
C4681 H4689 0.960 . S
C4682 C4680 1.381 . S
C4682 C4683 1.394 . S
C4682 H4690 0.930 . S
C4683 C4682 1.394 . S
C4683 C4684 1.383 . S
C4683 H4691 0.929 . S
C4684 C4683 1.383 . S
C4684 C4685 1.377 . S
C4685 H4669 0.930 . S
C4685 C4684 1.377 . S
C4685 C4686 1.379 . S
C4686 H4670 0.931 . S
C4686 C4680 1.383 . S
C4686 C4685 1.379 . S
H4687 C4681 0.959 . S
H4688 C4681 0.961 . S
H4689 C4681 0.960 . S
H4690 C4682 0.930 . S
H4691 C4683 0.929 . S
H4692 C4700 0.929 . S
H4693 C4702 0.930 . S
H4694 C4704 0.930 . S
H4695 C4707 0.929 . S
H4696 C4710 0.930 . S
H4697 C4712 0.960 . S
H4698 C4712 0.960 . S
H4699 C4712 0.960 . S
C4700 H4692 0.929 . S
C4700 C4701 1.377 1_556 S
C4700 C4702 1.384 . S
C4701 C4700 1.377 1_554 S
C4701 C4707 1.390 . S
C4702 H4693 0.930 . S
C4702 C4700 1.384 . S
C4702 C4703 1.372 1_556 S
C4703 C4702 1.372 1_554 S
C4703 C4704 1.400 . S
C4703 C4708 1.490 . S
C4704 H4694 0.930 . S
C4704 C4703 1.400 . S
C4704 C4707 1.386 . S
H4705 C4721 0.930 . S
H4706 C4722 0.931 . S
C4707 H4695 0.929 . S
C4707 C4701 1.390 . S
C4707 C4704 1.386 . S
C4708 C4703 1.490 . S
C4708 C4710 1.395 1_554 S
C4708 C4711 1.403 . S
H4709 C4715 0.930 . S
C4710 H4696 0.930 . S
C4710 C4708 1.395 1_556 S
C4710 C4713 1.404 . S
C4711 C4708 1.403 . S
C4711 C4712 1.524 . S
C4711 C4715 1.400 . S
C4712 H4697 0.960 . S
C4712 H4698 0.960 . S
C4712 H4699 0.960 . S
C4712 C4711 1.524 . S
C4713 C4710 1.404 . S
C4713 C4714 1.354 1_556 S
C4713 C4717 1.534 . S
C4714 C4713 1.354 1_554 S
C4714 C4715 1.385 . S
C4714 C4716 1.478 . S
C4715 H4709 0.930 . S
C4715 C4711 1.400 . S
C4715 C4714 1.385 . S
C4716 C4714 1.478 . S
C4716 C4718 1.381 . S
C4716 C4722 1.383 . S
C4717 C4713 1.534 . S
C4717 H4723 0.959 . S
C4717 H4724 0.961 . S
C4717 H4725 0.960 . S
C4718 C4716 1.381 . S
C4718 C4719 1.394 . S
C4718 H4726 0.930 1_554 S
C4719 C4718 1.394 . S
C4719 C4720 1.383 . S
C4719 H4727 0.929 . S
C4720 C4719 1.383 . S
C4720 C4721 1.377 . S
C4721 H4705 0.930 . S
C4721 C4720 1.377 . S
C4721 C4722 1.379 . S
C4722 H4706 0.931 . S
C4722 C4716 1.383 . S
C4722 C4721 1.379 . S
H4723 C4717 0.959 . S
H4724 C4717 0.961 . S
H4725 C4717 0.960 . S
H4726 C4718 0.930 1_556 S
H4727 C4719 0.929 . S
H4728 C4736 0.929 . S
H4729 C4738 0.930 . S
H4730 C4740 0.930 . S
H4731 C4743 0.929 . S
H4732 C4746 0.930 . S
H4733 C4748 0.960 . S
H4734 C4748 0.960 . S
H4735 C4748 0.960 . S
C4736 H4728 0.929 . S
C4736 C4737 1.377 . S
C4736 C4738 1.384 . S
C4737 C4736 1.377 . S
C4737 C4743 1.390 . S
C4738 H4729 0.930 . S
C4738 C4736 1.384 . S
C4738 C4739 1.372 . S
C4739 C4738 1.372 . S
C4739 C4740 1.400 . S
C4739 C4744 1.490 . S
C4740 H4730 0.930 . S
C4740 C4739 1.400 . S
C4740 C4743 1.386 . S
H4741 C4757 0.930 . S
H4742 C4758 0.931 . S
C4743 H4731 0.929 . S
C4743 C4737 1.390 . S
C4743 C4740 1.386 . S
C4744 C4739 1.490 . S
C4744 C4746 1.395 . S
C4744 C4747 1.403 . S
H4745 C4751 0.930 . S
C4746 H4732 0.930 . S
C4746 C4744 1.395 . S
C4746 C4749 1.403 . S
C4747 C4744 1.403 . S
C4747 C4748 1.524 . S
C4747 C4751 1.400 . S
C4748 H4733 0.960 . S
C4748 H4734 0.960 . S
C4748 H4735 0.960 . S
C4748 C4747 1.524 . S
C4749 C4746 1.403 . S
C4749 C4750 1.392 . S
C4749 C4753 1.495 . S
C4750 C4749 1.392 . S
C4750 C4751 1.385 . S
C4750 C4752 1.478 . S
C4751 H4745 0.930 . S
C4751 C4747 1.400 . S
C4751 C4750 1.385 . S
C4752 C4750 1.478 . S
C4752 C4754 1.381 . S
C4752 C4758 1.383 . S
C4753 C4749 1.495 . S
C4753 H4759 0.959 . S
C4753 H4760 0.961 . S
C4753 H4761 0.960 . S
C4754 C4752 1.381 . S
C4754 C4755 1.394 . S
C4754 H4762 0.930 . S
C4755 C4754 1.394 . S
C4755 C4756 1.383 . S
C4755 H4763 0.929 . S
C4756 C4755 1.383 . S
C4756 C4757 1.377 . S
C4757 H4741 0.930 . S
C4757 C4756 1.377 . S
C4757 C4758 1.379 . S
C4758 H4742 0.931 . S
C4758 C4752 1.383 . S
C4758 C4757 1.379 . S
H4759 C4753 0.959 . S
H4760 C4753 0.961 . S
H4761 C4753 0.960 . S
H4762 C4754 0.930 . S
H4763 C4755 0.929 . S
H4764 C4772 0.929 . S
H4765 C4774 0.930 . S
H4766 C4776 0.930 . S
H4767 C4779 0.929 . S
H4768 C4782 0.930 . S
H4769 C4784 0.960 . S
H4770 C4784 0.960 . S
H4771 C4784 0.960 . S
C4772 H4764 0.929 . S
C4772 C4773 1.377 . S
C4772 C4774 1.384 . S
C4773 C4772 1.377 . S
C4773 C4779 1.390 . S
C4774 H4765 0.930 . S
C4774 C4772 1.384 . S
C4774 C4775 1.372 . S
C4775 C4774 1.372 . S
C4775 C4776 1.400 . S
C4775 C4780 1.490 . S
C4776 H4766 0.930 . S
C4776 C4775 1.400 . S
C4776 C4779 1.386 . S
H4777 C4793 0.930 . S
H4778 C4794 0.931 . S
C4779 H4767 0.929 . S
C4779 C4773 1.390 . S
C4779 C4776 1.386 . S
C4780 C4775 1.490 . S
C4780 C4782 1.395 . S
C4780 C4783 1.403 . S
H4781 C4787 0.930 . S
C4782 H4768 0.930 . S
C4782 C4780 1.395 . S
C4782 C4785 1.403 . S
C4783 C4780 1.403 . S
C4783 C4784 1.524 . S
C4783 C4787 1.400 . S
C4784 H4769 0.960 . S
C4784 H4770 0.960 . S
C4784 H4771 0.960 . S
C4784 C4783 1.524 . S
C4785 C4782 1.403 . S
C4785 C4786 1.392 . S
C4785 C4789 1.495 . S
C4786 C4785 1.392 . S
C4786 C4787 1.385 . S
C4786 C4788 1.478 . S
C4787 H4781 0.930 . S
C4787 C4783 1.400 . S
C4787 C4786 1.385 . S
C4788 C4786 1.478 . S
C4788 C4790 1.381 . S
C4788 C4794 1.383 . S
C4789 C4785 1.495 . S
C4789 H4795 0.959 . S
C4789 H4796 0.961 . S
C4789 H4797 0.960 . S
C4790 C4788 1.381 . S
C4790 C4791 1.394 . S
C4790 H4798 0.930 . S
C4791 C4790 1.394 . S
C4791 C4792 1.383 . S
C4791 H4799 0.929 . S
C4792 C4791 1.383 . S
C4792 C4793 1.377 . S
C4793 H4777 0.930 . S
C4793 C4792 1.377 . S
C4793 C4794 1.379 . S
C4794 H4778 0.931 . S
C4794 C4788 1.383 . S
C4794 C4793 1.379 . S
H4795 C4789 0.959 . S
H4796 C4789 0.961 . S
H4797 C4789 0.960 . S
H4798 C4790 0.930 . S
H4799 C4791 0.929 . S
H4800 C4808 0.929 . S
H4801 C4810 0.930 . S
H4802 C4812 0.930 . S
H4803 C4815 0.929 . S
H4804 C4818 0.930 . S
H4805 C4820 0.960 . S
H4806 C4820 0.960 . S
H4807 C4820 0.960 . S
C4808 H4800 0.929 . S
C4808 C4809 1.377 . S
C4808 C4810 1.384 . S
C4809 C4808 1.377 . S
C4809 C4815 1.390 . S
C4810 H4801 0.930 . S
C4810 C4808 1.384 . S
C4810 C4811 1.372 . S
C4811 C4810 1.372 . S
C4811 C4812 1.400 . S
C4811 C4816 1.490 . S
C4812 H4802 0.930 . S
C4812 C4811 1.400 . S
C4812 C4815 1.386 . S
H4813 C4829 0.930 . S
H4814 C4830 0.931 . S
C4815 H4803 0.929 . S
C4815 C4809 1.390 . S
C4815 C4812 1.386 . S
C4816 C4811 1.490 . S
C4816 C4818 1.395 . S
C4816 C4819 1.403 . S
H4817 C4823 0.930 . S
C4818 H4804 0.930 . S
C4818 C4816 1.395 . S
C4818 C4821 1.403 . S
C4819 C4816 1.403 . S
C4819 C4820 1.524 . S
C4819 C4823 1.400 . S
C4820 H4805 0.960 . S
C4820 H4806 0.960 . S
C4820 H4807 0.960 . S
C4820 C4819 1.524 . S
C4821 C4818 1.403 . S
C4821 C4822 1.392 . S
C4821 C4825 1.495 . S
C4822 C4821 1.392 . S
C4822 C4823 1.385 . S
C4822 C4824 1.478 . S
C4823 H4817 0.930 . S
C4823 C4819 1.400 . S
C4823 C4822 1.385 . S
C4824 C4822 1.478 . S
C4824 C4826 1.381 . S
C4824 C4830 1.383 . S
C4825 C4821 1.495 . S
C4825 H4831 0.959 . S
C4825 H4832 0.961 . S
C4825 H4833 0.960 . S
C4826 C4824 1.381 . S
C4826 C4827 1.394 . S
C4826 H4834 0.930 . S
C4827 C4826 1.394 . S
C4827 C4828 1.383 . S
C4827 H4835 0.929 . S
C4828 C4827 1.383 . S
C4828 C4829 1.377 . S
C4829 H4813 0.930 . S
C4829 C4828 1.377 . S
C4829 C4830 1.379 . S
C4830 H4814 0.931 . S
C4830 C4824 1.383 . S
C4830 C4829 1.379 . S
H4831 C4825 0.959 . S
H4832 C4825 0.961 . S
H4833 C4825 0.960 . S
H4834 C4826 0.930 . S
H4835 C4827 0.929 . S
H4836 C4844 0.929 . S
H4837 C4846 0.930 . S
H4838 C4848 0.930 . S
H4839 C4851 0.929 . S
H4840 C4854 0.930 . S
H4841 C4856 0.960 . S
H4842 C4856 0.960 . S
H4843 C4856 0.960 . S
C4844 H4836 0.929 . S
C4844 C4845 1.377 . S
C4844 C4846 1.384 . S
C4845 C4844 1.377 . S
C4845 C4851 1.390 . S
C4846 H4837 0.930 . S
C4846 C4844 1.384 . S
C4846 C4847 1.372 . S
C4847 C4846 1.372 . S
C4847 C4848 1.400 . S
C4847 C4852 1.490 . S
C4848 H4838 0.930 . S
C4848 C4847 1.400 . S
C4848 C4851 1.386 . S
H4849 C4865 0.930 . S
H4850 C4866 0.931 . S
C4851 H4839 0.929 . S
C4851 C4845 1.390 . S
C4851 C4848 1.386 . S
C4852 C4847 1.490 . S
C4852 C4854 1.395 . S
C4852 C4855 1.403 . S
H4853 C4859 0.930 . S
C4854 H4840 0.930 . S
C4854 C4852 1.395 . S
C4854 C4857 1.403 . S
C4855 C4852 1.403 . S
C4855 C4856 1.524 . S
C4855 C4859 1.400 . S
C4856 H4841 0.960 . S
C4856 H4842 0.960 . S
C4856 H4843 0.960 . S
C4856 C4855 1.524 . S
C4857 C4854 1.403 . S
C4857 C4858 1.392 . S
C4857 C4861 1.495 . S
C4858 C4857 1.392 . S
C4858 C4859 1.385 . S
C4858 C4860 1.478 . S
C4859 H4853 0.930 . S
C4859 C4855 1.400 . S
C4859 C4858 1.385 . S
C4860 C4858 1.478 . S
C4860 C4862 1.381 . S
C4860 C4866 1.383 . S
C4861 C4857 1.495 . S
C4861 H4867 0.959 . S
C4861 H4868 0.961 . S
C4861 H4869 0.960 . S
C4862 C4860 1.381 . S
C4862 C4863 1.394 . S
C4862 H4870 0.930 . S
C4863 C4862 1.394 . S
C4863 C4864 1.383 . S
C4863 H4871 0.929 . S
C4864 C4863 1.383 . S
C4864 C4865 1.377 . S
C4865 H4849 0.930 . S
C4865 C4864 1.377 . S
C4865 C4866 1.379 . S
C4866 H4850 0.931 . S
C4866 C4860 1.383 . S
C4866 C4865 1.379 . S
H4867 C4861 0.959 . S
H4868 C4861 0.961 . S
H4869 C4861 0.960 . S
H4870 C4862 0.930 . S
H4871 C4863 0.929 . S
H4872 C4880 0.929 . S
H4873 C4882 0.930 . S
H4874 C4884 0.930 . S
H4875 C4887 0.929 . S
H4876 C4890 0.930 . S
H4877 C4892 0.960 . S
H4878 C4892 0.960 . S
H4879 C4892 0.960 . S
C4880 H4872 0.929 . S
C4880 C4881 1.377 . S
C4880 C4882 1.384 . S
C4881 C4880 1.377 . S
C4881 C4887 1.390 . S
C4882 H4873 0.930 . S
C4882 C4880 1.384 . S
C4882 C4883 1.372 . S
C4883 C4882 1.372 . S
C4883 C4884 1.400 . S
C4883 C4888 1.490 . S
C4884 H4874 0.930 . S
C4884 C4883 1.400 . S
C4884 C4887 1.386 . S
H4885 C4901 0.930 . S
H4886 C4902 0.931 . S
C4887 H4875 0.929 . S
C4887 C4881 1.390 . S
C4887 C4884 1.386 . S
C4888 C4883 1.490 . S
C4888 C4890 1.395 . S
C4888 C4891 1.403 . S
H4889 C4895 0.930 . S
C4890 H4876 0.930 . S
C4890 C4888 1.395 . S
C4890 C4893 1.403 . S
C4891 C4888 1.403 . S
C4891 C4892 1.524 . S
C4891 C4895 1.400 . S
C4892 H4877 0.960 . S
C4892 H4878 0.960 . S
C4892 H4879 0.960 . S
C4892 C4891 1.524 . S
C4893 C4890 1.403 . S
C4893 C4894 1.392 . S
C4893 C4897 1.495 . S
C4894 C4893 1.392 . S
C4894 C4895 1.385 . S
C4894 C4896 1.478 . S
C4895 H4889 0.930 . S
C4895 C4891 1.400 . S
C4895 C4894 1.385 . S
C4896 C4894 1.478 . S
C4896 C4898 1.381 . S
C4896 C4902 1.383 . S
C4897 C4893 1.495 . S
C4897 H4903 0.959 . S
C4897 H4904 0.961 . S
C4897 H4905 0.960 . S
C4898 C4896 1.381 . S
C4898 C4899 1.394 . S
C4898 H4906 0.930 . S
C4899 C4898 1.394 . S
C4899 C4900 1.383 . S
C4899 H4907 0.929 . S
C4900 C4899 1.383 . S
C4900 C4901 1.377 . S
C4901 H4885 0.930 . S
C4901 C4900 1.377 . S
C4901 C4902 1.379 . S
C4902 H4886 0.931 . S
C4902 C4896 1.383 . S
C4902 C4901 1.379 . S
H4903 C4897 0.959 . S
H4904 C4897 0.961 . S
H4905 C4897 0.960 . S
H4906 C4898 0.930 . S
H4907 C4899 0.929 . S
H4908 C4916 0.929 . S
H4909 C4918 0.930 . S
H4910 C4920 0.930 . S
H4911 C4923 0.929 . S
H4912 C4926 0.930 . S
H4913 C4928 0.960 . S
H4914 C4928 0.960 . S
H4915 C4928 0.960 . S
C4916 H4908 0.929 . S
C4916 C4917 1.377 . S
C4916 C4918 1.384 . S
C4917 C4916 1.377 . S
C4917 C4923 1.390 . S
C4918 H4909 0.930 . S
C4918 C4916 1.384 . S
C4918 C4919 1.372 . S
C4919 C4918 1.372 . S
C4919 C4920 1.400 . S
C4919 C4924 1.490 . S
C4920 H4910 0.930 . S
C4920 C4919 1.400 . S
C4920 C4923 1.386 . S
H4921 C4937 0.930 . S
H4922 C4938 0.931 . S
C4923 H4911 0.929 . S
C4923 C4917 1.390 . S
C4923 C4920 1.386 . S
C4924 C4919 1.490 . S
C4924 C4926 1.395 . S
C4924 C4927 1.403 . S
H4925 C4931 0.930 . S
C4926 H4912 0.930 . S
C4926 C4924 1.395 . S
C4926 C4929 1.403 . S
C4927 C4924 1.403 . S
C4927 C4928 1.524 . S
C4927 C4931 1.400 . S
C4928 H4913 0.960 . S
C4928 H4914 0.960 . S
C4928 H4915 0.960 . S
C4928 C4927 1.524 . S
C4929 C4926 1.403 . S
C4929 C4930 1.392 . S
C4929 C4933 1.495 . S
C4930 C4929 1.392 . S
C4930 C4931 1.385 . S
C4930 C4932 1.478 . S
C4931 H4925 0.930 . S
C4931 C4927 1.400 . S
C4931 C4930 1.385 . S
C4932 C4930 1.478 . S
C4932 C4934 1.381 . S
C4932 C4938 1.383 . S
C4933 C4929 1.495 . S
C4933 H4939 0.959 . S
C4933 H4940 0.961 . S
C4933 H4941 0.960 . S
C4934 C4932 1.381 . S
C4934 C4935 1.394 . S
C4934 H4942 0.930 . S
C4935 C4934 1.394 . S
C4935 C4936 1.383 . S
C4935 H4943 0.929 . S
C4936 C4935 1.383 . S
C4936 C4937 1.377 . S
C4937 H4921 0.930 . S
C4937 C4936 1.377 . S
C4937 C4938 1.379 . S
C4938 H4922 0.931 . S
C4938 C4932 1.383 . S
C4938 C4937 1.379 . S
H4939 C4933 0.959 . S
H4940 C4933 0.961 . S
H4941 C4933 0.960 . S
H4942 C4934 0.930 . S
H4943 C4935 0.929 . S
H4944 C4952 0.929 . S
H4945 C4954 0.930 . S
H4946 C4956 0.930 . S
H4947 C4959 0.929 . S
H4948 C4962 0.930 . S
H4949 C4964 0.960 . S
H4950 C4964 0.960 . S
H4951 C4964 0.960 . S
C4952 H4944 0.929 . S
C4952 C4953 1.377 . S
C4952 C4954 1.384 . S
C4953 C4952 1.377 . S
C4953 C4959 1.390 . S
C4954 H4945 0.930 . S
C4954 C4952 1.384 . S
C4954 C4955 1.372 . S
C4955 C4954 1.372 . S
C4955 C4956 1.400 . S
C4955 C4960 1.490 . S
C4956 H4946 0.930 . S
C4956 C4955 1.400 . S
C4956 C4959 1.386 . S
H4957 C4973 0.930 . S
H4958 C4974 0.931 . S
C4959 H4947 0.929 . S
C4959 C4953 1.390 . S
C4959 C4956 1.386 . S
C4960 C4955 1.490 . S
C4960 C4962 1.395 . S
C4960 C4963 1.403 . S
H4961 C4967 0.930 . S
C4962 H4948 0.930 . S
C4962 C4960 1.395 . S
C4962 C4965 1.403 . S
C4963 C4960 1.403 . S
C4963 C4964 1.524 . S
C4963 C4967 1.400 . S
C4964 H4949 0.960 . S
C4964 H4950 0.960 . S
C4964 H4951 0.960 . S
C4964 C4963 1.524 . S
C4965 C4962 1.403 . S
C4965 C4966 1.392 . S
C4965 C4969 1.495 . S
C4966 C4965 1.392 . S
C4966 C4967 1.385 . S
C4966 C4968 1.478 . S
C4967 H4961 0.930 . S
C4967 C4963 1.400 . S
C4967 C4966 1.385 . S
C4968 C4966 1.478 . S
C4968 C4970 1.381 . S
C4968 C4974 1.383 . S
C4969 C4965 1.495 . S
C4969 H4975 0.959 . S
C4969 H4976 0.961 . S
C4969 H4977 0.960 . S
C4970 C4968 1.381 . S
C4970 C4971 1.394 . S
C4970 H4978 0.930 . S
C4971 C4970 1.394 . S
C4971 C4972 1.383 . S
C4971 H4979 0.929 . S
C4972 C4971 1.383 . S
C4972 C4973 1.377 . S
C4973 H4957 0.930 . S
C4973 C4972 1.377 . S
C4973 C4974 1.379 . S
C4974 H4958 0.931 . S
C4974 C4968 1.383 . S
C4974 C4973 1.379 . S
H4975 C4969 0.959 . S
H4976 C4969 0.961 . S
H4977 C4969 0.960 . S
H4978 C4970 0.930 . S
H4979 C4971 0.929 . S
H4980 C4988 0.929 . S
H4981 C4990 0.930 . S
H4982 C4992 0.930 . S
H4983 C4995 0.929 . S
H4984 C4998 0.930 . S
H4985 C5000 0.960 . S
H4986 C5000 0.960 . S
H4987 C5000 0.960 . S
C4988 H4980 0.929 . S
C4988 C4989 1.377 . S
C4988 C4990 1.384 . S
C4989 C4988 1.377 . S
C4989 C4995 1.390 . S
C4990 H4981 0.930 . S
C4990 C4988 1.384 . S
C4990 C4991 1.372 . S
C4991 C4990 1.372 . S
C4991 C4992 1.400 . S
C4991 C4996 1.490 . S
C4992 H4982 0.930 . S
C4992 C4991 1.400 . S
C4992 C4995 1.386 . S
H4993 C5009 0.930 . S
H4994 C5010 0.931 . S
C4995 H4983 0.929 . S
C4995 C4989 1.390 . S
C4995 C4992 1.386 . S
C4996 C4991 1.490 . S
C4996 C4998 1.395 . S
C4996 C4999 1.403 . S
H4997 C5003 0.930 . S
C4998 H4984 0.930 . S
C4998 C4996 1.395 . S
C4998 C5001 1.403 . S
C4999 C4996 1.403 . S
C4999 C5000 1.524 . S
C4999 C5003 1.400 . S
C5000 H4985 0.960 . S
C5000 H4986 0.960 . S
C5000 H4987 0.960 . S
C5000 C4999 1.524 . S
C5001 C4998 1.403 . S
C5001 C5002 1.392 . S
C5001 C5005 1.495 . S
C5002 C5001 1.392 . S
C5002 C5003 1.385 . S
C5002 C5004 1.478 . S
C5003 H4997 0.930 . S
C5003 C4999 1.400 . S
C5003 C5002 1.385 . S
C5004 C5002 1.478 . S
C5004 C5006 1.381 . S
C5004 C5010 1.383 . S
C5005 C5001 1.495 . S
C5005 H5011 0.959 . S
C5005 H5012 0.961 . S
C5005 H5013 0.960 . S
C5006 C5004 1.381 . S
C5006 C5007 1.394 . S
C5006 H5014 0.930 . S
C5007 C5006 1.394 . S
C5007 C5008 1.383 . S
C5007 H5015 0.929 . S
C5008 C5007 1.383 . S
C5008 C5009 1.377 . S
C5009 H4993 0.930 . S
C5009 C5008 1.377 . S
C5009 C5010 1.379 . S
C5010 H4994 0.931 . S
C5010 C5004 1.383 . S
C5010 C5009 1.379 . S
H5011 C5005 0.959 . S
H5012 C5005 0.961 . S
H5013 C5005 0.960 . S
H5014 C5006 0.930 . S
H5015 C5007 0.929 . S
H5016 C5024 0.929 . S
H5017 C5026 0.930 . S
H5018 C5028 0.930 . S
H5019 C5031 0.929 . S
H5020 C5034 0.930 . S
H5021 C5036 0.960 . S
H5022 C5036 0.960 . S
H5023 C5036 0.960 . S
C5024 H5016 0.929 . S
C5024 C5025 1.377 . S
C5024 C5026 1.384 . S
C5025 C5024 1.377 . S
C5025 C5031 1.390 . S
C5026 H5017 0.930 . S
C5026 C5024 1.384 . S
C5026 C5027 1.372 . S
C5027 C5026 1.372 . S
C5027 C5028 1.400 . S
C5027 C5032 1.490 . S
C5028 H5018 0.930 . S
C5028 C5027 1.400 . S
C5028 C5031 1.386 . S
H5029 C5045 0.930 . S
H5030 C5046 0.931 . S
C5031 H5019 0.929 . S
C5031 C5025 1.390 . S
C5031 C5028 1.386 . S
C5032 C5027 1.490 . S
C5032 C5034 1.395 . S
C5032 C5035 1.403 . S
H5033 C5039 0.930 . S
C5034 H5020 0.930 . S
C5034 C5032 1.395 . S
C5034 C5037 1.403 . S
C5035 C5032 1.403 . S
C5035 C5036 1.524 . S
C5035 C5039 1.400 . S
C5036 H5021 0.960 . S
C5036 H5022 0.960 . S
C5036 H5023 0.960 . S
C5036 C5035 1.524 . S
C5037 C5034 1.403 . S
C5037 C5038 1.392 . S
C5037 C5041 1.495 . S
C5038 C5037 1.392 . S
C5038 C5039 1.385 . S
C5038 C5040 1.478 . S
C5039 H5033 0.930 . S
C5039 C5035 1.400 . S
C5039 C5038 1.385 . S
C5040 C5038 1.478 . S
C5040 C5042 1.381 . S
C5040 C5046 1.383 . S
C5041 C5037 1.495 . S
C5041 H5047 0.959 . S
C5041 H5048 0.961 . S
C5041 H5049 0.960 . S
C5042 C5040 1.381 . S
C5042 C5043 1.394 . S
C5042 H5050 0.930 . S
C5043 C5042 1.394 . S
C5043 C5044 1.383 . S
C5043 H5051 0.929 . S
C5044 C5043 1.383 . S
C5044 C5045 1.377 . S
C5045 H5029 0.930 . S
C5045 C5044 1.377 . S
C5045 C5046 1.379 . S
C5046 H5030 0.931 . S
C5046 C5040 1.383 . S
C5046 C5045 1.379 . S
H5047 C5041 0.959 . S
H5048 C5041 0.961 . S
H5049 C5041 0.960 . S
H5050 C5042 0.930 . S
H5051 C5043 0.929 . S
H5052 C5060 0.929 . S
H5053 C5062 0.930 . S
H5054 C5064 0.930 . S
H5055 C5067 0.929 . S
H5056 C5070 0.930 . S
H5057 C5072 0.960 . S
H5058 C5072 0.960 . S
H5059 C5072 0.960 . S
C5060 H5052 0.929 . S
C5060 C5061 1.377 . S
C5060 C5062 1.384 . S
C5061 C5060 1.377 . S
C5061 C5067 1.390 . S
C5062 H5053 0.930 . S
C5062 C5060 1.384 . S
C5062 C5063 1.372 . S
C5063 C5062 1.372 . S
C5063 C5064 1.400 . S
C5063 C5068 1.490 . S
C5064 H5054 0.930 . S
C5064 C5063 1.400 . S
C5064 C5067 1.386 . S
H5065 C5081 0.930 . S
H5066 C5082 0.931 . S
C5067 H5055 0.929 . S
C5067 C5061 1.390 . S
C5067 C5064 1.386 . S
C5068 C5063 1.490 . S
C5068 C5070 1.395 . S
C5068 C5071 1.403 . S
H5069 C5075 0.930 . S
C5070 H5056 0.930 . S
C5070 C5068 1.395 . S
C5070 C5073 1.403 . S
C5071 C5068 1.403 . S
C5071 C5072 1.524 . S
C5071 C5075 1.400 . S
C5072 H5057 0.960 . S
C5072 H5058 0.960 . S
C5072 H5059 0.960 . S
C5072 C5071 1.524 . S
C5073 C5070 1.403 . S
C5073 C5074 1.392 . S
C5073 C5077 1.495 . S
C5074 C5073 1.392 . S
C5074 C5075 1.385 . S
C5074 C5076 1.478 . S
C5075 H5069 0.930 . S
C5075 C5071 1.400 . S
C5075 C5074 1.385 . S
C5076 C5074 1.478 . S
C5076 C5078 1.381 . S
C5076 C5082 1.383 . S
C5077 C5073 1.495 . S
C5077 H5083 0.959 . S
C5077 H5084 0.961 . S
C5077 H5085 0.960 . S
C5078 C5076 1.381 . S
C5078 C5079 1.394 . S
C5078 H5086 0.930 . S
C5079 C5078 1.394 . S
C5079 C5080 1.383 . S
C5079 H5087 0.929 . S
C5080 C5079 1.383 . S
C5080 C5081 1.377 . S
C5081 H5065 0.930 . S
C5081 C5080 1.377 . S
C5081 C5082 1.379 . S
C5082 H5066 0.931 . S
C5082 C5076 1.383 . S
C5082 C5081 1.379 . S
H5083 C5077 0.959 . S
H5084 C5077 0.961 . S
H5085 C5077 0.960 . S
H5086 C5078 0.930 . S
H5087 C5079 0.929 . S
H5088 C5096 0.929 . S
H5089 C5098 0.930 . S
H5090 C5100 0.930 . S
H5091 C5103 0.929 . S
H5092 C5106 0.930 . S
H5093 C5108 0.960 . S
H5094 C5108 0.960 . S
H5095 C5108 0.960 . S
C5096 H5088 0.929 . S
C5096 C5097 1.377 . S
C5096 C5098 1.384 . S
C5097 C5096 1.377 . S
C5097 C5103 1.390 . S
C5098 H5089 0.930 . S
C5098 C5096 1.384 . S
C5098 C5099 1.372 . S
C5099 C5098 1.372 . S
C5099 C5100 1.400 . S
C5099 C5104 1.490 . S
C5100 H5090 0.930 . S
C5100 C5099 1.400 . S
C5100 C5103 1.386 . S
H5101 C5117 0.930 . S
H5102 C5118 0.931 . S
C5103 H5091 0.929 . S
C5103 C5097 1.390 . S
C5103 C5100 1.386 . S
C5104 C5099 1.490 . S
C5104 C5106 1.395 . S
C5104 C5107 1.403 . S
H5105 C5111 0.930 . S
C5106 H5092 0.930 . S
C5106 C5104 1.395 . S
C5106 C5109 1.403 . S
C5107 C5104 1.403 . S
C5107 C5108 1.524 . S
C5107 C5111 1.400 . S
C5108 H5093 0.960 . S
C5108 H5094 0.960 . S
C5108 H5095 0.960 . S
C5108 C5107 1.524 . S
C5109 C5106 1.403 . S
C5109 C5110 1.392 . S
C5109 C5113 1.495 . S
C5110 C5109 1.392 . S
C5110 C5111 1.385 . S
C5110 C5112 1.478 . S
C5111 H5105 0.930 . S
C5111 C5107 1.400 . S
C5111 C5110 1.385 . S
C5112 C5110 1.478 . S
C5112 C5114 1.381 . S
C5112 C5118 1.383 . S
C5113 C5109 1.495 . S
C5113 H5119 0.959 . S
C5113 H5120 0.961 . S
C5113 H5121 0.960 . S
C5114 C5112 1.381 . S
C5114 C5115 1.394 . S
C5114 H5122 0.930 . S
C5115 C5114 1.394 . S
C5115 C5116 1.383 . S
C5115 H5123 0.929 . S
C5116 C5115 1.383 . S
C5116 C5117 1.377 . S
C5117 H5101 0.930 . S
C5117 C5116 1.377 . S
C5117 C5118 1.379 . S
C5118 H5102 0.931 . S
C5118 C5112 1.383 . S
C5118 C5117 1.379 . S
H5119 C5113 0.959 . S
H5120 C5113 0.961 . S
H5121 C5113 0.960 . S
H5122 C5114 0.930 . S
H5123 C5115 0.929 . S
H5124 C5132 0.929 . S
H5125 C5134 0.930 . S
H5126 C5136 0.930 . S
H5127 C5139 0.929 . S
H5128 C5142 0.930 . S
H5129 C5144 0.960 . S
H5130 C5144 0.960 . S
H5131 C5144 0.960 . S
C5132 H5124 0.929 . S
C5132 C5133 1.377 . S
C5132 C5134 1.384 . S
C5133 C5132 1.377 . S
C5133 C5139 1.390 . S
C5134 H5125 0.930 . S
C5134 C5132 1.384 . S
C5134 C5135 1.372 . S
C5135 C5134 1.372 . S
C5135 C5136 1.400 . S
C5135 C5140 1.490 . S
C5136 H5126 0.930 . S
C5136 C5135 1.400 . S
C5136 C5139 1.386 . S
H5137 C5153 0.930 . S
H5138 C5154 0.931 . S
C5139 H5127 0.929 . S
C5139 C5133 1.390 . S
C5139 C5136 1.386 . S
C5140 C5135 1.490 . S
C5140 C5142 1.395 . S
C5140 C5143 1.403 . S
H5141 C5147 0.930 . S
C5142 H5128 0.930 . S
C5142 C5140 1.395 . S
C5142 C5145 1.403 . S
C5143 C5140 1.403 . S
C5143 C5144 1.524 . S
C5143 C5147 1.400 . S
C5144 H5129 0.960 . S
C5144 H5130 0.960 . S
C5144 H5131 0.960 . S
C5144 C5143 1.524 . S
C5145 C5142 1.403 . S
C5145 C5146 1.392 . S
C5145 C5149 1.495 . S
C5146 C5145 1.392 . S
C5146 C5147 1.385 . S
C5146 C5148 1.478 . S
C5147 H5141 0.930 . S
C5147 C5143 1.400 . S
C5147 C5146 1.385 . S
C5148 C5146 1.478 . S
C5148 C5150 1.381 . S
C5148 C5154 1.383 . S
C5149 C5145 1.495 . S
C5149 H5155 0.959 . S
C5149 H5156 0.961 . S
C5149 H5157 0.960 . S
C5150 C5148 1.381 . S
C5150 C5151 1.394 . S
C5150 H5158 0.930 . S
C5151 C5150 1.394 . S
C5151 C5152 1.383 . S
C5151 H5159 0.929 . S
C5152 C5151 1.383 . S
C5152 C5153 1.377 . S
C5153 H5137 0.930 . S
C5153 C5152 1.377 . S
C5153 C5154 1.379 . S
C5154 H5138 0.931 . S
C5154 C5148 1.383 . S
C5154 C5153 1.379 . S
H5155 C5149 0.959 . S
H5156 C5149 0.961 . S
H5157 C5149 0.960 . S
H5158 C5150 0.930 . S
H5159 C5151 0.929 . S
H5160 C5168 0.929 . S
H5161 C5170 0.930 . S
H5162 C5172 0.930 . S
H5163 C5175 0.929 . S
H5164 C5178 0.930 . S
H5165 C5180 0.960 . S
H5166 C5180 0.960 . S
H5167 C5180 0.960 . S
C5168 H5160 0.929 . S
C5168 C5169 1.377 . S
C5168 C5170 1.384 . S
C5169 C5168 1.377 . S
C5169 C5175 1.390 . S
C5170 H5161 0.930 . S
C5170 C5168 1.384 . S
C5170 C5171 1.372 . S
C5171 C5170 1.372 . S
C5171 C5172 1.400 . S
C5171 C5176 1.490 . S
C5172 H5162 0.930 . S
C5172 C5171 1.400 . S
C5172 C5175 1.386 . S
H5173 C5189 0.930 . S
H5174 C5190 0.931 . S
C5175 H5163 0.929 . S
C5175 C5169 1.390 . S
C5175 C5172 1.386 . S
C5176 C5171 1.490 . S
C5176 C5178 1.395 . S
C5176 C5179 1.403 . S
H5177 C5183 0.930 . S
C5178 H5164 0.930 . S
C5178 C5176 1.395 . S
C5178 C5181 1.403 . S
C5179 C5176 1.403 . S
C5179 C5180 1.524 . S
C5179 C5183 1.400 . S
C5180 H5165 0.960 . S
C5180 H5166 0.960 . S
C5180 H5167 0.960 . S
C5180 C5179 1.524 . S
C5181 C5178 1.403 . S
C5181 C5182 1.392 . S
C5181 C5185 1.495 . S
C5182 C5181 1.392 . S
C5182 C5183 1.385 . S
C5182 C5184 1.478 . S
C5183 H5177 0.930 . S
C5183 C5179 1.400 . S
C5183 C5182 1.385 . S
C5184 C5182 1.478 . S
C5184 C5186 1.381 . S
C5184 C5190 1.383 . S
C5185 C5181 1.495 . S
C5185 H5191 0.959 . S
C5185 H5192 0.961 . S
C5185 H5193 0.974 . S
C5186 C5184 1.381 . S
C5186 C5187 1.394 1_655 S
C5186 H5194 0.930 . S
C5187 C5186 1.394 1_455 S
C5187 C5188 1.383 . S
C5187 H5195 0.929 . S
C5188 C5187 1.383 . S
C5188 C5189 1.377 1_455 S
C5189 H5173 0.930 . S
C5189 C5188 1.377 1_655 S
C5189 C5190 1.379 . S
C5190 H5174 0.931 . S
C5190 C5184 1.383 . S
C5190 C5189 1.379 . S
H5191 C5185 0.959 . S
H5192 C5185 0.961 . S
H5193 C5185 0.974 . S
H5194 C5186 0.930 . S
H5195 C5187 0.929 . S
H5196 C5204 0.929 . S
H5197 C5206 0.930 . S
H5198 C5208 0.930 . S
H5199 C5211 0.929 . S
H5200 C5214 0.930 . S
H5201 C5216 0.960 . S
H5202 C5216 0.960 . S
H5203 C5216 0.960 . S
C5204 H5196 0.929 . S
C5204 C5205 1.377 . S
C5204 C5206 1.384 . S
C5205 C5204 1.377 . S
C5205 C5211 1.390 . S
C5206 H5197 0.930 . S
C5206 C5204 1.384 . S
C5206 C5207 1.372 . S
C5207 C5206 1.372 . S
C5207 C5208 1.400 . S
C5207 C5212 1.490 . S
C5208 H5198 0.930 . S
C5208 C5207 1.400 . S
C5208 C5211 1.386 . S
H5209 C5225 0.930 . S
H5210 C5226 0.931 . S
C5211 H5199 0.929 . S
C5211 C5205 1.390 . S
C5211 C5208 1.386 . S
C5212 C5207 1.490 . S
C5212 C5214 1.395 . S
C5212 C5215 1.403 . S
H5213 C5219 0.930 . S
C5214 H5200 0.930 . S
C5214 C5212 1.395 . S
C5214 C5217 1.403 . S
C5215 C5212 1.403 . S
C5215 C5216 1.524 . S
C5215 C5219 1.400 . S
C5216 H5201 0.960 . S
C5216 H5202 0.960 . S
C5216 H5203 0.960 . S
C5216 C5215 1.524 . S
C5217 C5214 1.403 . S
C5217 C5218 1.392 . S
C5217 C5221 1.495 . S
C5218 C5217 1.392 . S
C5218 C5219 1.385 . S
C5218 C5220 1.478 . S
C5219 H5213 0.930 . S
C5219 C5215 1.400 . S
C5219 C5218 1.385 . S
C5220 C5218 1.478 . S
C5220 C5222 1.381 . S
C5220 C5226 1.383 . S
C5221 C5217 1.495 . S
C5221 H5227 0.959 . S
C5221 H5228 0.961 . S
C5221 H5229 0.960 . S
C5222 C5220 1.381 . S
C5222 C5223 1.394 . S
C5222 H5230 0.930 . S
C5223 C5222 1.394 . S
C5223 C5224 1.383 . S
C5223 H5231 0.929 . S
C5224 C5223 1.383 . S
C5224 C5225 1.377 . S
C5225 H5209 0.930 . S
C5225 C5224 1.377 . S
C5225 C5226 1.379 . S
C5226 H5210 0.931 . S
C5226 C5220 1.383 . S
C5226 C5225 1.379 . S
H5227 C5221 0.959 . S
H5228 C5221 0.961 . S
H5229 C5221 0.960 . S
H5230 C5222 0.930 . S
H5231 C5223 0.929 . S
H5232 C5240 0.929 . S
H5233 C5242 0.930 . S
H5234 C5244 0.930 . S
H5235 C5247 0.929 . S
H5236 C5250 0.930 . S
H5237 C5252 0.960 . S
H5238 C5252 0.960 . S
H5239 C5252 0.960 . S
C5240 H5232 0.929 . S
C5240 C5241 1.377 . S
C5240 C5242 1.384 . S
C5241 C5240 1.377 . S
C5241 C5247 1.390 . S
C5242 H5233 0.930 . S
C5242 C5240 1.384 . S
C5242 C5243 1.372 . S
C5243 C5242 1.372 . S
C5243 C5244 1.400 . S
C5243 C5248 1.490 . S
C5244 H5234 0.930 . S
C5244 C5243 1.400 . S
C5244 C5247 1.386 . S
H5245 C5261 0.930 . S
H5246 C5262 0.931 . S
C5247 H5235 0.929 . S
C5247 C5241 1.390 . S
C5247 C5244 1.386 . S
C5248 C5243 1.490 . S
C5248 C5250 1.395 . S
C5248 C5251 1.403 . S
H5249 C5255 0.930 . S
C5250 H5236 0.930 . S
C5250 C5248 1.395 . S
C5250 C5253 1.403 . S
C5251 C5248 1.403 . S
C5251 C5252 1.524 . S
C5251 C5255 1.400 . S
C5252 H5237 0.960 . S
C5252 H5238 0.960 . S
C5252 H5239 0.960 . S
C5252 C5251 1.524 . S
C5253 C5250 1.403 . S
C5253 C5254 1.392 . S
C5253 C5257 1.495 . S
C5254 C5253 1.392 . S
C5254 C5255 1.385 . S
C5254 C5256 1.478 . S
C5255 H5249 0.930 . S
C5255 C5251 1.400 . S
C5255 C5254 1.385 . S
C5256 C5254 1.478 . S
C5256 C5258 1.381 . S
C5256 C5262 1.383 . S
C5257 C5253 1.495 . S
C5257 H5263 0.959 . S
C5257 H5264 0.961 . S
C5257 H5265 0.960 . S
C5258 C5256 1.381 . S
C5258 C5259 1.394 . S
C5258 H5266 0.930 . S
C5259 C5258 1.394 . S
C5259 C5260 1.383 . S
C5259 H5267 0.929 . S
C5260 C5259 1.383 . S
C5260 C5261 1.377 . S
C5261 H5245 0.930 . S
C5261 C5260 1.377 . S
C5261 C5262 1.379 . S
C5262 H5246 0.931 . S
C5262 C5256 1.383 . S
C5262 C5261 1.379 . S
H5263 C5257 0.959 . S
H5264 C5257 0.961 . S
H5265 C5257 0.960 . S
H5266 C5258 0.930 . S
H5267 C5259 0.929 . S
H5268 C5276 0.929 . S
H5269 C5278 0.930 . S
H5270 C5280 0.930 . S
H5271 C5283 0.929 . S
H5272 C5286 0.930 . S
H5273 C5288 0.960 . S
H5274 C5288 0.960 . S
H5275 C5288 0.960 . S
C5276 H5268 0.929 . S
C5276 C5277 1.377 . S
C5276 C5278 1.384 . S
C5277 C5276 1.377 . S
C5277 C5283 1.390 . S
C5278 H5269 0.930 . S
C5278 C5276 1.384 . S
C5278 C5279 1.372 . S
C5279 C5278 1.372 . S
C5279 C5280 1.400 . S
C5279 C5284 1.490 . S
C5280 H5270 0.930 . S
C5280 C5279 1.400 . S
C5280 C5283 1.386 . S
H5281 C5297 0.930 . S
H5282 C5298 0.931 . S
C5283 H5271 0.929 . S
C5283 C5277 1.390 . S
C5283 C5280 1.386 . S
C5284 C5279 1.490 . S
C5284 C5286 1.395 . S
C5284 C5287 1.403 . S
H5285 C5291 0.930 . S
C5286 H5272 0.930 . S
C5286 C5284 1.395 . S
C5286 C5289 1.403 . S
C5287 C5284 1.403 . S
C5287 C5288 1.524 . S
C5287 C5291 1.400 . S
C5288 H5273 0.960 . S
C5288 H5274 0.960 . S
C5288 H5275 0.960 . S
C5288 C5287 1.524 . S
C5289 C5286 1.403 . S
C5289 C5290 1.392 . S
C5289 C5293 1.495 . S
C5290 C5289 1.392 . S
C5290 C5291 1.385 . S
C5290 C5292 1.478 . S
C5291 H5285 0.930 . S
C5291 C5287 1.400 . S
C5291 C5290 1.385 . S
C5292 C5290 1.478 . S
C5292 C5294 1.381 . S
C5292 C5298 1.383 . S
C5293 C5289 1.495 . S
C5293 H5299 0.959 . S
C5293 H5300 0.961 . S
C5293 H5301 0.960 . S
C5294 C5292 1.381 . S
C5294 C5295 1.394 . S
C5294 H5302 0.930 . S
C5295 C5294 1.394 . S
C5295 C5296 1.383 . S
C5295 H5303 0.929 . S
C5296 C5295 1.383 . S
C5296 C5297 1.377 . S
C5297 H5281 0.930 . S
C5297 C5296 1.377 . S
C5297 C5298 1.379 . S
C5298 H5282 0.931 . S
C5298 C5292 1.383 . S
C5298 C5297 1.379 . S
H5299 C5293 0.959 . S
H5300 C5293 0.961 . S
H5301 C5293 0.960 . S
H5302 C5294 0.930 . S
H5303 C5295 0.929 . S
H5304 C5312 0.929 . S
H5305 C5314 0.930 . S
H5306 C5316 0.930 . S
H5307 C5319 0.929 . S
H5308 C5322 0.930 . S
H5309 C5324 0.960 . S
H5310 C5324 0.960 . S
H5311 C5324 0.960 . S
C5312 H5304 0.929 . S
C5312 C5313 1.377 . S
C5312 C5314 1.384 . S
C5313 C5312 1.377 . S
C5313 C5319 1.390 . S
C5314 H5305 0.930 . S
C5314 C5312 1.384 . S
C5314 C5315 1.372 . S
C5315 C5314 1.372 . S
C5315 C5316 1.400 . S
C5315 C5320 1.490 . S
C5316 H5306 0.930 . S
C5316 C5315 1.400 . S
C5316 C5319 1.386 . S
H5317 C5333 0.930 . S
H5318 C5334 0.931 . S
C5319 H5307 0.929 . S
C5319 C5313 1.390 . S
C5319 C5316 1.386 . S
C5320 C5315 1.490 . S
C5320 C5322 1.395 . S
C5320 C5323 1.403 . S
H5321 C5327 0.930 . S
C5322 H5308 0.930 . S
C5322 C5320 1.395 . S
C5322 C5325 1.403 . S
C5323 C5320 1.403 . S
C5323 C5324 1.524 . S
C5323 C5327 1.400 . S
C5324 H5309 0.960 . S
C5324 H5310 0.960 . S
C5324 H5311 0.960 . S
C5324 C5323 1.524 . S
C5325 C5322 1.403 . S
C5325 C5326 1.392 . S
C5325 C5329 1.495 . S
C5326 C5325 1.392 . S
C5326 C5327 1.385 . S
C5326 C5328 1.478 . S
C5327 H5321 0.930 . S
C5327 C5323 1.400 . S
C5327 C5326 1.385 . S
C5328 C5326 1.478 . S
C5328 C5330 1.381 . S
C5328 C5334 1.383 . S
C5329 C5325 1.495 . S
C5329 H5335 0.959 . S
C5329 H5336 0.961 . S
C5329 H5337 0.960 . S
C5330 C5328 1.381 . S
C5330 C5331 1.394 . S
C5330 H5338 0.930 . S
C5331 C5330 1.394 . S
C5331 C5332 1.383 . S
C5331 H5339 0.929 . S
C5332 C5331 1.383 . S
C5332 C5333 1.377 . S
C5333 H5317 0.930 . S
C5333 C5332 1.377 . S
C5333 C5334 1.379 . S
C5334 H5318 0.931 . S
C5334 C5328 1.383 . S
C5334 C5333 1.379 . S
H5335 C5329 0.959 . S
H5336 C5329 0.961 . S
H5337 C5329 0.960 . S
H5338 C5330 0.930 . S
H5339 C5331 0.929 . S
H5340 C5348 0.929 . S
H5341 C5350 0.930 . S
H5342 C5352 0.930 . S
H5343 C5355 0.929 . S
H5344 C5358 0.930 . S
H5345 C5360 0.960 . S
H5346 C5360 0.960 . S
H5347 C5360 0.960 . S
C5348 H5340 0.929 . S
C5348 C5349 1.377 . S
C5348 C5350 1.384 . S
C5349 C5348 1.377 . S
C5349 C5355 1.390 . S
C5350 H5341 0.930 . S
C5350 C5348 1.384 . S
C5350 C5351 1.372 . S
C5351 C5350 1.372 . S
C5351 C5352 1.400 . S
C5351 C5356 1.490 . S
C5352 H5342 0.930 . S
C5352 C5351 1.400 . S
C5352 C5355 1.386 . S
H5353 C5369 0.930 . S
H5354 C5370 0.931 . S
C5355 H5343 0.929 . S
C5355 C5349 1.390 . S
C5355 C5352 1.386 . S
C5356 C5351 1.490 . S
C5356 C5358 1.395 . S
C5356 C5359 1.403 . S
H5357 C5363 0.930 . S
C5358 H5344 0.930 . S
C5358 C5356 1.395 . S
C5358 C5361 1.403 . S
C5359 C5356 1.403 . S
C5359 C5360 1.524 . S
C5359 C5363 1.400 . S
C5360 H5345 0.960 . S
C5360 H5346 0.960 . S
C5360 H5347 0.960 . S
C5360 C5359 1.524 . S
C5361 C5358 1.403 . S
C5361 C5362 1.392 . S
C5361 C5365 1.495 . S
C5362 C5361 1.392 . S
C5362 C5363 1.385 . S
C5362 C5364 1.478 . S
C5363 H5357 0.930 . S
C5363 C5359 1.400 . S
C5363 C5362 1.385 . S
C5364 C5362 1.478 . S
C5364 C5366 1.381 . S
C5364 C5370 1.383 . S
C5365 C5361 1.495 . S
C5365 H5371 0.959 . S
C5365 H5372 0.961 . S
C5365 H5373 0.960 . S
C5366 C5364 1.381 . S
C5366 C5367 1.394 . S
C5366 H5374 0.930 . S
C5367 C5366 1.394 . S
C5367 C5368 1.383 . S
C5367 H5375 0.929 . S
C5368 C5367 1.383 . S
C5368 C5369 1.377 . S
C5369 H5353 0.930 . S
C5369 C5368 1.377 . S
C5369 C5370 1.379 . S
C5370 H5354 0.931 . S
C5370 C5364 1.383 . S
C5370 C5369 1.379 . S
H5371 C5365 0.959 . S
H5372 C5365 0.961 . S
H5373 C5365 0.960 . S
H5374 C5366 0.930 . S
H5375 C5367 0.929 . S
H5376 C5384 0.929 . S
H5377 C5386 0.930 . S
H5378 C5388 0.930 . S
H5379 C5391 0.929 . S
H5380 C5394 0.930 . S
H5381 C5396 0.960 . S
H5382 C5396 0.960 . S
H5383 C5396 0.960 . S
C5384 H5376 0.929 . S
C5384 C5385 1.377 . S
C5384 C5386 1.384 . S
C5385 C5384 1.377 . S
C5385 C5391 1.390 . S
C5386 H5377 0.930 . S
C5386 C5384 1.384 . S
C5386 C5387 1.372 . S
C5387 C5386 1.372 . S
C5387 C5388 1.400 . S
C5387 C5392 1.490 . S
C5388 H5378 0.930 . S
C5388 C5387 1.400 . S
C5388 C5391 1.386 . S
H5389 C5405 0.930 . S
H5390 C5406 0.931 . S
C5391 H5379 0.929 . S
C5391 C5385 1.390 . S
C5391 C5388 1.386 . S
C5392 C5387 1.490 . S
C5392 C5394 1.395 . S
C5392 C5395 1.403 . S
H5393 C5399 0.930 . S
C5394 H5380 0.930 . S
C5394 C5392 1.395 . S
C5394 C5397 1.403 . S
C5395 C5392 1.403 . S
C5395 C5396 1.524 . S
C5395 C5399 1.400 . S
C5396 H5381 0.960 . S
C5396 H5382 0.960 . S
C5396 H5383 0.960 . S
C5396 C5395 1.524 . S
C5397 C5394 1.403 . S
C5397 C5398 1.392 . S
C5397 C5401 1.495 . S
C5398 C5397 1.392 . S
C5398 C5399 1.385 . S
C5398 C5400 1.478 . S
C5399 H5393 0.930 . S
C5399 C5395 1.400 . S
C5399 C5398 1.385 . S
C5400 C5398 1.478 . S
C5400 C5402 1.381 . S
C5400 C5406 1.383 . S
C5401 C5397 1.495 . S
C5401 H5407 0.959 . S
C5401 H5408 0.961 . S
C5401 H5409 0.960 . S
C5402 C5400 1.381 . S
C5402 C5403 1.394 . S
C5402 H5410 0.930 . S
C5403 C5402 1.394 . S
C5403 C5404 1.383 . S
C5403 H5411 0.929 . S
C5404 C5403 1.383 . S
C5404 C5405 1.377 . S
C5405 H5389 0.930 . S
C5405 C5404 1.377 . S
C5405 C5406 1.379 . S
C5406 H5390 0.931 . S
C5406 C5400 1.383 . S
C5406 C5405 1.379 . S
H5407 C5401 0.959 . S
H5408 C5401 0.961 . S
H5409 C5401 0.960 . S
H5410 C5402 0.930 . S
H5411 C5403 0.929 . S
H5412 C5420 0.929 . S
H5413 C5422 0.930 . S
H5414 C5424 0.930 . S
H5415 C5427 0.929 . S
H5416 C5430 0.930 . S
H5417 C5432 0.960 . S
H5418 C5432 0.960 . S
H5419 C5432 0.960 . S
C5420 H5412 0.929 . S
C5420 C5421 1.377 . S
C5420 C5422 1.384 . S
C5421 C5420 1.377 . S
C5421 C5427 1.390 . S
C5422 H5413 0.930 . S
C5422 C5420 1.384 . S
C5422 C5423 1.372 . S
C5423 C5422 1.372 . S
C5423 C5424 1.400 . S
C5423 C5428 1.490 . S
C5424 H5414 0.930 . S
C5424 C5423 1.400 . S
C5424 C5427 1.386 . S
H5425 C5441 0.930 . S
H5426 C5442 0.931 . S
C5427 H5415 0.929 . S
C5427 C5421 1.390 . S
C5427 C5424 1.386 . S
C5428 C5423 1.490 . S
C5428 C5430 1.395 . S
C5428 C5431 1.403 . S
H5429 C5435 0.930 . S
C5430 H5416 0.930 . S
C5430 C5428 1.395 . S
C5430 C5433 1.403 . S
C5431 C5428 1.403 . S
C5431 C5432 1.524 . S
C5431 C5435 1.400 . S
C5432 H5417 0.960 . S
C5432 H5418 0.960 . S
C5432 H5419 0.960 . S
C5432 C5431 1.524 . S
C5433 C5430 1.403 . S
C5433 C5434 1.392 . S
C5433 C5437 1.495 . S
C5434 C5433 1.392 . S
C5434 C5435 1.385 . S
C5434 C5436 1.478 . S
C5435 H5429 0.930 . S
C5435 C5431 1.400 . S
C5435 C5434 1.385 . S
C5436 C5434 1.478 . S
C5436 C5438 1.381 . S
C5436 C5442 1.383 . S
C5437 C5433 1.495 . S
C5437 H5443 0.959 . S
C5437 H5444 0.961 . S
C5437 H5445 0.960 . S
C5438 C5436 1.381 . S
C5438 C5439 1.394 . S
C5438 H5446 0.930 . S
C5439 C5438 1.394 . S
C5439 C5440 1.383 . S
C5439 H5447 0.929 1_565 S
C5440 C5439 1.383 . S
C5440 C5441 1.377 . S
C5441 H5425 0.930 . S
C5441 C5440 1.377 . S
C5441 C5442 1.379 . S
C5442 H5426 0.931 . S
C5442 C5436 1.383 . S
C5442 C5441 1.379 . S
H5443 C5437 0.959 . S
H5444 C5437 0.961 . S
H5445 C5437 0.960 . S
H5446 C5438 0.930 . S
H5447 C5439 0.929 1_545 S
H5448 C5456 0.929 . S
H5449 C5458 0.930 . S
H5450 C5460 0.930 . S
H5451 C5463 0.929 . S
H5452 C5466 0.930 . S
H5453 C5468 0.960 . S
H5454 C5468 0.960 . S
H5455 C5468 0.960 . S
C5456 H5448 0.929 . S
C5456 C5457 1.377 . S
C5456 C5458 1.384 . S
C5457 C5456 1.377 . S
C5457 C5463 1.390 . S
C5458 H5449 0.930 . S
C5458 C5456 1.384 . S
C5458 C5459 1.372 . S
C5459 C5458 1.372 . S
C5459 C5460 1.400 . S
C5459 C5464 1.490 . S
C5460 H5450 0.930 . S
C5460 C5459 1.400 . S
C5460 C5463 1.386 . S
H5461 C5477 0.930 . S
H5462 C5478 0.931 . S
C5463 H5451 0.929 . S
C5463 C5457 1.390 . S
C5463 C5460 1.386 . S
C5464 C5459 1.490 . S
C5464 C5466 1.395 . S
C5464 C5467 1.403 . S
H5465 C5471 0.930 . S
C5466 H5452 0.930 . S
C5466 C5464 1.395 . S
C5466 C5469 1.403 . S
C5467 C5464 1.403 . S
C5467 C5468 1.524 . S
C5467 C5471 1.400 . S
C5468 H5453 0.960 . S
C5468 H5454 0.960 . S
C5468 H5455 0.960 . S
C5468 C5467 1.524 . S
C5469 C5466 1.403 . S
C5469 C5470 1.392 . S
C5469 C5473 1.495 . S
C5470 C5469 1.392 . S
C5470 C5471 1.385 . S
C5470 C5472 1.478 . S
C5471 H5465 0.930 . S
C5471 C5467 1.400 . S
C5471 C5470 1.385 . S
C5472 C5470 1.478 . S
C5472 C5474 1.381 . S
C5472 C5478 1.383 . S
C5473 C5469 1.495 . S
C5473 H5479 0.959 . S
C5473 H5480 0.961 . S
C5473 H5481 0.960 . S
C5474 C5472 1.381 . S
C5474 C5475 1.394 . S
C5474 H5482 0.930 . S
C5475 C5474 1.394 . S
C5475 C5476 1.383 . S
C5475 H5483 0.929 . S
C5476 C5475 1.383 . S
C5476 C5477 1.377 . S
C5477 H5461 0.930 . S
C5477 C5476 1.377 . S
C5477 C5478 1.379 . S
C5478 H5462 0.931 . S
C5478 C5472 1.383 . S
C5478 C5477 1.379 . S
H5479 C5473 0.959 . S
H5480 C5473 0.961 . S
H5481 C5473 0.960 . S
H5482 C5474 0.930 . S
H5483 C5475 0.929 . S
H5484 C5492 0.929 . S
H5485 C5494 0.930 . S
H5486 C5496 0.930 . S
H5487 C5499 0.929 . S
H5488 C5502 0.930 . S
H5489 C5504 0.960 . S
H5490 C5504 0.960 . S
H5491 C5504 0.960 . S
C5492 H5484 0.929 . S
C5492 C5493 1.377 . S
C5492 C5494 1.384 . S
C5493 C5492 1.377 . S
C5493 C5499 1.390 . S
C5494 H5485 0.930 . S
C5494 C5492 1.384 . S
C5494 C5495 1.372 . S
C5495 C5494 1.372 . S
C5495 C5496 1.400 . S
C5495 C5500 1.490 . S
C5496 H5486 0.930 . S
C5496 C5495 1.400 . S
C5496 C5499 1.386 . S
H5497 C5513 0.934 1_556 S
H5498 C5514 0.931 . S
C5499 H5487 0.929 . S
C5499 C5493 1.390 . S
C5499 C5496 1.386 . S
C5500 C5495 1.490 . S
C5500 C5502 1.395 . S
C5500 C5503 1.403 . S
H5501 C5507 0.930 . S
C5502 H5488 0.930 . S
C5502 C5500 1.395 . S
C5502 C5505 1.403 . S
C5503 C5500 1.403 . S
C5503 C5504 1.524 . S
C5503 C5507 1.400 . S
C5504 H5489 0.960 . S
C5504 H5490 0.960 . S
C5504 H5491 0.960 . S
C5504 C5503 1.524 . S
C5505 C5502 1.403 . S
C5505 C5506 1.392 . S
C5505 C5509 1.495 . S
C5506 C5505 1.392 . S
C5506 C5507 1.385 . S
C5506 C5508 1.478 . S
C5507 H5501 0.930 . S
C5507 C5503 1.400 . S
C5507 C5506 1.385 . S
C5508 C5506 1.478 . S
C5508 C5510 1.381 . S
C5508 C5514 1.383 . S
C5509 C5505 1.495 . S
C5509 H5515 0.959 . S
C5509 H5516 0.961 . S
C5509 H5517 0.960 . S
C5510 C5508 1.381 . S
C5510 C5511 1.394 . S
C5510 H5518 0.930 . S
C5511 C5510 1.394 . S
C5511 C5512 1.383 . S
C5511 H5519 0.929 . S
C5512 C5511 1.383 . S
C5512 C5513 1.377 . S
C5513 H5497 0.934 1_554 S
C5513 C5512 1.377 . S
C5513 C5514 1.379 . S
C5514 H5498 0.931 . S
C5514 C5508 1.383 . S
C5514 C5513 1.379 . S
H5515 C5509 0.959 . S
H5516 C5509 0.961 . S
H5517 C5509 0.960 . S
H5518 C5510 0.930 . S
H5519 C5511 0.929 . S
H5520 C5528 0.929 . S
H5521 C5530 0.930 . S
H5522 C5532 0.930 . S
H5523 C5535 0.929 . S
H5524 C5538 0.930 . S
H5525 C5540 0.960 . S
H5526 C5540 0.960 . S
H5527 C5540 0.960 . S
C5528 H5520 0.929 . S
C5528 C5529 1.377 . S
C5528 C5530 1.384 . S
C5529 C5528 1.377 . S
C5529 C5535 1.390 . S
C5530 H5521 0.930 . S
C5530 C5528 1.384 . S
C5530 C5531 1.372 . S
C5531 C5530 1.372 . S
C5531 C5532 1.400 . S
C5531 C5536 1.490 . S
C5532 H5522 0.930 . S
C5532 C5531 1.400 . S
C5532 C5535 1.386 . S
H5533 C5549 0.930 . S
H5534 C5550 0.931 . S
C5535 H5523 0.929 . S
C5535 C5529 1.390 . S
C5535 C5532 1.386 . S
C5536 C5531 1.490 . S
C5536 C5538 1.395 . S
C5536 C5539 1.403 . S
H5537 C5543 0.930 . S
C5538 H5524 0.930 . S
C5538 C5536 1.395 . S
C5538 C5541 1.403 . S
C5539 C5536 1.403 . S
C5539 C5540 1.524 . S
C5539 C5543 1.400 . S
C5540 H5525 0.960 . S
C5540 H5526 0.960 . S
C5540 H5527 0.960 . S
C5540 C5539 1.524 . S
C5541 C5538 1.403 . S
C5541 C5542 1.392 . S
C5541 C5545 1.495 . S
C5542 C5541 1.392 . S
C5542 C5543 1.385 . S
C5542 C5544 1.478 . S
C5543 H5537 0.930 . S
C5543 C5539 1.400 . S
C5543 C5542 1.385 . S
C5544 C5542 1.478 . S
C5544 C5546 1.381 . S
C5544 C5550 1.383 . S
C5545 C5541 1.495 . S
C5545 H5551 0.959 . S
C5545 H5552 0.961 . S
C5545 H5553 0.960 . S
C5546 C5544 1.381 . S
C5546 C5547 1.394 . S
C5546 H5554 0.930 . S
C5547 C5546 1.394 . S
C5547 C5548 1.383 . S
C5547 H5555 0.929 . S
C5548 C5547 1.383 . S
C5548 C5549 1.377 . S
C5549 H5533 0.930 . S
C5549 C5548 1.377 . S
C5549 C5550 1.379 . S
C5550 H5534 0.931 . S
C5550 C5544 1.383 . S
C5550 C5549 1.379 . S
H5551 C5545 0.959 . S
H5552 C5545 0.961 . S
H5553 C5545 0.960 . S
H5554 C5546 0.930 . S
H5555 C5547 0.929 . S
H5556 C5564 0.929 . S
H5557 C5566 0.930 . S
H5558 C5568 0.930 . S
H5559 C5571 0.929 . S
H5560 C5574 0.915 1_556 S
H5561 C5576 0.960 . S
H5562 C5576 0.960 . S
H5563 C5576 0.960 . S
C5564 H5556 0.929 . S
C5564 C5565 1.377 . S
C5564 C5566 1.384 . S
C5565 C5564 1.377 . S
C5565 C5571 1.390 . S
C5566 H5557 0.930 . S
C5566 C5564 1.384 . S
C5566 C5567 1.372 . S
C5567 C5566 1.372 . S
C5567 C5568 1.400 . S
C5567 C5572 1.490 . S
C5568 H5558 0.930 . S
C5568 C5567 1.400 . S
C5568 C5571 1.386 . S
H5569 C5585 0.930 . S
H5570 C5586 0.931 . S
C5571 H5559 0.929 . S
C5571 C5565 1.390 . S
C5571 C5568 1.386 . S
C5572 C5567 1.490 . S
C5572 C5574 1.395 . S
C5572 C5575 1.403 . S
H5573 C5579 0.930 . S
C5574 H5560 0.915 1_554 S
C5574 C5572 1.395 . S
C5574 C5577 1.403 . S
C5575 C5572 1.403 . S
C5575 C5576 1.524 . S
C5575 C5579 1.400 . S
C5576 H5561 0.960 . S
C5576 H5562 0.960 . S
C5576 H5563 0.960 . S
C5576 C5575 1.524 . S
C5577 C5574 1.403 . S
C5577 C5578 1.392 . S
C5577 C5581 1.495 1_554 S
C5578 C5577 1.392 . S
C5578 C5579 1.385 . S
C5578 C5580 1.478 . S
C5579 H5573 0.930 . S
C5579 C5575 1.400 . S
C5579 C5578 1.385 . S
C5580 C5578 1.478 . S
C5580 C5582 1.381 . S
C5580 C5586 1.383 . S
C5581 C5577 1.495 1_556 S
C5581 H5587 0.959 . S
C5581 H5588 0.961 . S
C5581 H5589 0.960 . S
C5582 C5580 1.381 . S
C5582 C5583 1.394 . S
C5582 H5590 0.930 . S
C5583 C5582 1.394 . S
C5583 C5584 1.383 . S
C5583 H5591 0.929 . S
C5584 C5583 1.383 . S
C5584 C5585 1.377 . S
C5585 H5569 0.930 . S
C5585 C5584 1.377 . S
C5585 C5586 1.379 . S
C5586 H5570 0.931 . S
C5586 C5580 1.383 . S
C5586 C5585 1.379 . S
H5587 C5581 0.959 . S
H5588 C5581 0.961 . S
H5589 C5581 0.960 . S
H5590 C5582 0.930 . S
H5591 C5583 0.929 . S
H5592 C5600 0.929 . S
H5593 C5602 0.930 . S
H5594 C5604 0.930 . S
H5595 C5607 0.929 . S
H5596 C5610 0.930 . S
H5597 C5612 0.960 . S
H5598 C5612 0.960 . S
H5599 C5612 0.960 . S
C5600 H5592 0.929 . S
C5600 C5601 1.377 . S
C5600 C5602 1.384 . S
C5601 C5600 1.377 . S
C5601 C5607 1.390 . S
C5602 H5593 0.930 . S
C5602 C5600 1.384 . S
C5602 C5603 1.372 . S
C5603 C5602 1.372 . S
C5603 C5604 1.400 . S
C5603 C5608 1.490 . S
C5604 H5594 0.930 . S
C5604 C5603 1.400 . S
C5604 C5607 1.386 . S
H5605 C5621 0.930 . S
H5606 C5622 0.931 . S
C5607 H5595 0.929 . S
C5607 C5601 1.390 . S
C5607 C5604 1.386 . S
C5608 C5603 1.490 . S
C5608 C5610 1.395 . S
C5608 C5611 1.403 . S
H5609 C5615 0.930 . S
C5610 H5596 0.930 . S
C5610 C5608 1.395 . S
C5610 C5613 1.403 . S
C5611 C5608 1.403 . S
C5611 C5612 1.524 . S
C5611 C5615 1.400 . S
C5612 H5597 0.960 . S
C5612 H5598 0.960 . S
C5612 H5599 0.960 . S
C5612 C5611 1.524 . S
C5613 C5610 1.403 . S
C5613 C5614 1.392 . S
C5613 C5617 1.495 . S
C5614 C5613 1.392 . S
C5614 C5615 1.385 . S
C5614 C5616 1.478 . S
C5615 H5609 0.930 . S
C5615 C5611 1.400 . S
C5615 C5614 1.385 . S
C5616 C5614 1.478 . S
C5616 C5618 1.381 . S
C5616 C5622 1.383 . S
C5617 C5613 1.495 . S
C5617 H5623 0.959 . S
C5617 H5624 0.961 . S
C5617 H5625 0.960 . S
C5618 C5616 1.381 . S
C5618 C5619 1.394 . S
C5618 H5626 0.930 . S
C5619 C5618 1.394 . S
C5619 C5620 1.383 . S
C5619 H5627 0.929 . S
C5620 C5619 1.383 . S
C5620 C5621 1.377 . S
C5621 H5605 0.930 . S
C5621 C5620 1.377 . S
C5621 C5622 1.379 . S
C5622 H5606 0.931 . S
C5622 C5616 1.383 . S
C5622 C5621 1.379 . S
H5623 C5617 0.959 . S
H5624 C5617 0.961 . S
H5625 C5617 0.960 . S
H5626 C5618 0.930 . S
H5627 C5619 0.929 . S
H5628 C5636 0.929 . S
H5629 C5638 0.930 . S
H5630 C5640 0.930 . S
H5631 C5643 0.929 . S
H5632 C5646 0.930 . S
H5633 C5648 0.960 . S
H5634 C5648 0.960 . S
H5635 C5648 0.960 . S
C5636 H5628 0.929 . S
C5636 C5637 1.377 . S
C5636 C5638 1.384 . S
C5637 C5636 1.377 . S
C5637 C5643 1.390 . S
C5638 H5629 0.930 . S
C5638 C5636 1.384 . S
C5638 C5639 1.372 . S
C5639 C5638 1.372 . S
C5639 C5640 1.400 . S
C5639 C5644 1.490 . S
C5640 H5630 0.930 . S
C5640 C5639 1.400 . S
C5640 C5643 1.386 . S
H5641 C5657 0.930 . S
H5642 C5658 0.931 . S
C5643 H5631 0.929 . S
C5643 C5637 1.390 . S
C5643 C5640 1.386 . S
C5644 C5639 1.490 . S
C5644 C5646 1.395 . S
C5644 C5647 1.403 . S
H5645 C5651 0.930 . S
C5646 H5632 0.930 . S
C5646 C5644 1.395 . S
C5646 C5649 1.403 . S
C5647 C5644 1.403 . S
C5647 C5648 1.524 . S
C5647 C5651 1.400 . S
C5648 H5633 0.960 . S
C5648 H5634 0.960 . S
C5648 H5635 0.960 . S
C5648 C5647 1.524 . S
C5649 C5646 1.403 . S
C5649 C5650 1.392 . S
C5649 C5653 1.495 . S
C5650 C5649 1.392 . S
C5650 C5651 1.385 . S
C5650 C5652 1.478 . S
C5651 H5645 0.930 . S
C5651 C5647 1.400 . S
C5651 C5650 1.385 . S
C5652 C5650 1.478 . S
C5652 C5654 1.381 . S
C5652 C5658 1.383 . S
C5653 C5649 1.495 . S
C5653 H5659 0.959 . S
C5653 H5660 0.961 . S
C5653 H5661 0.960 . S
C5654 C5652 1.381 . S
C5654 C5655 1.394 . S
C5654 H5662 0.930 . S
C5655 C5654 1.394 . S
C5655 C5656 1.383 . S
C5655 H5663 0.929 . S
C5656 C5655 1.383 . S
C5656 C5657 1.377 . S
C5657 H5641 0.930 . S
C5657 C5656 1.377 . S
C5657 C5658 1.379 . S
C5658 H5642 0.931 . S
C5658 C5652 1.383 . S
C5658 C5657 1.379 . S
H5659 C5653 0.959 . S
H5660 C5653 0.961 . S
H5661 C5653 0.960 . S
H5662 C5654 0.930 . S
H5663 C5655 0.929 . S
C2217 C255 1.942 . S
C2236 C931 1.953 . S
C2253 C147 1.816 . S
C2272 C1004 1.819 . S
C2289 C184 1.701 . S
C2308 C1099 1.732 . S
C2344 C1174 1.446 . S
C2325 C220 1.588 . S
C2361 C40 1.551 . S
C2380 C1258 1.457 . S
C2416 C1351 1.828 . S
C2397 C74 1.789 . S
C2452 C1424 1.852 . S
C2433 C110 1.857 . S
C2469 C14 1.889 . S
C2488 C1519 1.892 . S
C2524 C920 1.584 . S
C2505 C579 1.629 . S
C2541 C616 0.901 . S
C2560 C1006 0.924 . S
C2596 C1088 1.133 . S
C2577 C687 1.143 . S
C2632 C1183 1.643 . S
C2613 C436 1.638 . S
C2649 C580 1.611 . S
C2668 C1267 1.620 . S
C2704 C1340 1.082 . S
C2685 C615 1.115 . S
C2740 C1426 0.820 . S
C2721 C688 0.895 . S
C2776 C1508 1.578 . S
C2757 C435 1.607 . S
C2812 C922 0.870 . S
C2793 C410 0.922 . S
C2829 C722 1.736 . S
C2848 C1592 1.698 . S
C2884 C1678 1.373 . S
C2865 C842 1.394 . S
C2920 C1771 0.828 . S
C2901 C794 0.813 . S
C2937 C302 0.914 . S
C2956 C1510 0.917 . S
C2973 C338 1.359 . S
C2992 C1090 1.317 . S
C3009 C830 1.769 . S
C3028 C1844 1.747 . S
C3064 C1939 0.875 . S
C3045 C758 0.876 . S
C3100 C919 1.902 . S
C3081 C158 1.815 . S
C3136 C1940 1.772 . S
C3117 C254 1.789 . S
C3153 C218 1.700 . S
C3172 C1087 1.728 . S
C3189 C194 1.491 . S
C3208 C1858 1.440 . S
C3244 C1270 1.373 . S
C3225 C3 1.521 . S
C3261 C111 1.644 . S
C3280 C1675 1.639 . S
C3316 C1436 1.790 1_556 S
C3297 C76 1.796 . S
C3352 C2011 1.962 . S
C3333 C50 1.876 . S
C3388 C932 1.536 . S
C3369 C364 1.566 . S
C3424 C1942 0.825 . S
C3405 C795 0.847 . S
C3441 C292 1.078 . S
C3460 C1100 1.057 . S
C3477 C723 1.574 . S
C3496 C1843 1.571 . S
C3513 C363 1.585 . S
C3532 C1255 1.581 . S
C3568 C1688 1.081 . S
C3549 C796 1.098 . S
C3585 C291 0.866 . S
C3604 C1438 0.856 . S
C3621 C724 1.586 . S
C3640 C2024 1.553 . S
C3657 C482 0.868 . S
C3676 C934 0.901 . S
C3693 C434 1.695 . S
C3712 C1604 1.685 . S
C3729 C662 1.333 . S
C3748 C1354 1.277 . S
C3765 C614 0.801 . S
C3784 C1759 0.805 . S
C3820 C2026 0.924 . S
C3801 C698 0.882 . S
C3837 C554 1.336 . S
C3856 C1102 1.306 . S
C3892 C1184 1.665 . S
C3873 C650 1.695 . S
C3928 C1003 0.812 . S
C3909 C506 0.811 . S
C3945 C183 1.944 . S
C3964 C2107 1.950 . S
C4000 C1928 1.813 . S
C3981 C219 1.815 . S
C4017 C256 1.698 . S
C4036 C2191 1.720 . S
C4053 C148 1.587 1_655 S
C4072 C1846 1.461 . S
C4089 C122 1.545 . S
C4108 C1594 1.513 . S
C4144 C1687 1.756 . S
C4125 C2 1.714 1_655 S
C4180 C1760 1.725 . S
C4161 C39 1.740 . S
C4216 C2023 1.976 . S
C4197 C86 1.969 . S
C4252 C2096 1.587 . S
C4233 C651 1.639 . S
C4269 C472 0.900 1_556 S
C4288 C1930 0.810 . S
C4324 C2180 1.103 . S
C4305 C507 1.127 . S
C4360 C1855 1.652 . S
C4341 C544 1.642 . S
C4396 C1603 1.616 . S
C4377 C652 1.600 . S
C4413 C471 1.102 . S
C4432 C1676 1.102 . S
C4468 C1762 0.878 . S
C4449 C508 0.893 . S
C4485 C543 1.627 . S
C4504 C2012 1.607 . S
C4540 C2098 0.939 . S
C4521 C806 0.921 . S
C4557 C326 1.712 . S
C4576 C1256 1.702 . S
C4612 C1342 1.340 . S
C4593 C374 1.369 1_565 S
C4648 C1435 0.839 . S
C4629 C398 0.828 . S
C4684 C2014 0.856 . S
C4665 C770 0.924 . S
C4701 C734 1.351 . S
C4720 C2182 1.330 . S
C4756 C1172 1.716 . S
C4737 C362 1.755 . S
C4792 C1015 0.899 . S
C4773 C290 0.901 . S
C4809 C230 1.804 . S
C4828 C2095 1.895 . S
C4864 C1016 1.782 . S
C4845 C182 1.796 . S
C4881 C146 1.700 . S
C4900 C2179 1.732 . S
C4917 C266 1.501 . S
C4936 C1186 1.468 . S
C4953 C75 1.567 . S
C4972 C1606 1.414 . S
C5008 C1339 1.792 . S
C4989 C38 1.759 . S
C5025 C4 1.718 . S
C5044 C1772 1.714 . S
C5061 C112 1.868 . S
C5080 C1507 1.872 . S
C5116 C2108 1.507 . S
C5097 C832 1.567 . S
C5133 C399 0.863 . S
C5152 C1018 0.885 . S
C5188 C2192 1.061 . S
C5169 C760 1.073 . S
C5205 C327 1.568 . S
C5224 C1171 1.561 . S
C5241 C831 1.615 . S
C5260 C1591 1.609 . S
C5296 C1352 1.079 . S
C5277 C400 1.107 . S
C5313 C759 0.868 . S
C5332 C1774 0.793 . S
C5368 C1520 1.568 . S
C5349 C328 1.591 . S
C5404 C2110 0.875 . S
C5385 C626 0.881 . S
C5440 C1268 1.677 1_565 S
C5421 C542 1.700 . S
C5457 C590 1.305 . S
C5476 C1690 1.249 . S
C5512 C1423 0.816 . S
C5493 C470 0.814 . S
C5529 C518 0.862 . S
C5548 C1522 0.884 . S
C5565 C446 1.323 . S
C5584 C2194 1.258 . S
C5620 C1856 1.698 . S
C5601 C578 1.711 . S
C5656 C1927 0.780 . S
C5637 C686 0.784 . S
