# Generated by pormake.
# Topology anh, (6,3)-cn, num edge types: 1
# Building blocks:
#     Node 0, Type 0, BuildingBlock: HISSIN_clean_sbu_0, # of connection points: 6
#     Node 1, Type 0, BuildingBlock: HISSIN_clean_sbu_0, # of connection points: 6
#     Node 2, Type 0, BuildingBlock: HISSIN_clean_sbu_0, # of connection points: 6
#     Node 3, Type 1, BuildingBlock: WUSLED_clean_sbu_0, # of connection points: 3
#     Node 4, Type 1, BuildingBlock: WUSLED_clean_sbu_0, # of connection points: 3
#     Node 5, Type 1, BuildingBlock: WUSLED_clean_sbu_0, # of connection points: 3
#     Node 6, Type 1, BuildingBlock: WUSLED_clean_sbu_0, # of connection points: 3
#     Node 7, Type 1, BuildingBlock: WUSLED_clean_sbu_0, # of connection points: 3
#     Node 8, Type 1, BuildingBlock: WUSLED_clean_sbu_0, # of connection points: 3
#     Edge 9, Type (0, 1), BuildingBlock: EZIPEK_clean_linker_0, # of connection points: 2
#     Edge 10, Type (0, 1), BuildingBlock: EZIPEK_clean_linker_0, # of connection points: 2
#     Edge 11, Type (0, 1), BuildingBlock: EZIPEK_clean_linker_0, # of connection points: 2
#     Edge 12, Type (0, 1), BuildingBlock: EZIPEK_clean_linker_0, # of connection points: 2
#     Edge 13, Type (0, 1), BuildingBlock: EZIPEK_clean_linker_0, # of connection points: 2
#     Edge 14, Type (0, 1), BuildingBlock: EZIPEK_clean_linker_0, # of connection points: 2
#     Edge 15, Type (0, 1), BuildingBlock: EZIPEK_clean_linker_0, # of connection points: 2
#     Edge 16, Type (0, 1), BuildingBlock: EZIPEK_clean_linker_0, # of connection points: 2
#     Edge 17, Type (0, 1), BuildingBlock: EZIPEK_clean_linker_0, # of connection points: 2
#     Edge 18, Type (0, 1), BuildingBlock: EZIPEK_clean_linker_0, # of connection points: 2
#     Edge 19, Type (0, 1), BuildingBlock: EZIPEK_clean_linker_0, # of connection points: 2
#     Edge 20, Type (0, 1), BuildingBlock: EZIPEK_clean_linker_0, # of connection points: 2
#     Edge 21, Type (0, 1), BuildingBlock: EZIPEK_clean_linker_0, # of connection points: 2
#     Edge 22, Type (0, 1), BuildingBlock: EZIPEK_clean_linker_0, # of connection points: 2
#     Edge 23, Type (0, 1), BuildingBlock: EZIPEK_clean_linker_0, # of connection points: 2
#     Edge 24, Type (0, 1), BuildingBlock: EZIPEK_clean_linker_0, # of connection points: 2
#     Edge 25, Type (0, 1), BuildingBlock: EZIPEK_clean_linker_0, # of connection points: 2
#     Edge 26, Type (0, 1), BuildingBlock: EZIPEK_clean_linker_0, # of connection points: 2
# Relax obj value: 0.267
# Max RMSD: 0.189
# Mean RMSD: 0.155
data_MOF--net-anh--node1-HISSIN_clean_sbu_0--node2-WUSLED_clean_sbu_0--edge1-EZIPEK_clean_linker_0
_symmetry_space_group_name_H-M    P1
_symmetry_Int_Tables_number       1
_symmetry_cell_setting            triclinic
loop_
_symmetry_equiv_pos_as_xyz
'x, y, z'
_cell_length_a     30.68927
_cell_length_b     30.829648
_cell_length_c     55.927605
_cell_angle_alpha  92.894294
_cell_angle_beta   89.760744
_cell_angle_gamma 120.24431
loop_
_atom_site_label
_atom_site_type_symbol
_atom_site_fract_x
_atom_site_fract_y
_atom_site_fract_z
_atom_type_partial_charge
Eu0 Eu 1.11386 0.52592 0.18525 0.0
Eu1 Eu 0.16419 0.6432 0.19056 0.0
C2 C 0.13656 0.58088 0.23706 0.0
C3 C 1.02552 0.39597 0.16603 0.0
C4 C 0.98847 0.35507 0.17779 0.0
C5 C 0.96165 0.39647 0.14099 0.0
C6 C 0.93805 0.33772 0.1725 0.0
C7 C 1.01218 0.41416 0.1464 0.0
C8 C 0.92493 0.3608 0.1552 0.0
C9 C 1.07222 0.42949 0.17914 0.0
O10 O 0.23356 0.63412 0.18611 0.0
O11 O 0.19547 0.54917 0.179 0.0
C12 C 0.23647 0.59358 0.18058 0.0
O13 O 1.10504 0.5495 0.14891 0.0
O14 O 0.21814 0.71297 0.20976 0.0
O15 O 0.17018 0.71361 0.18129 0.0
O16 O 0.17482 0.62725 0.15216 0.0
C17 C 0.13979 0.58968 0.13905 0.0
O18 O 1.04469 0.53743 0.18567 0.0
O19 O 1.08479 0.6215 0.17907 0.0
O20 O 0.13373 0.61663 0.22696 0.0
O21 O 1.1095 0.46046 0.16626 0.0
O22 O 1.06582 0.45172 0.19826 0.0
O23 O 0.14018 0.54659 0.22396 0.0
C24 C 0.25756 0.76729 0.17911 0.0
C25 C 0.25364 0.76547 0.15391 0.0
C26 C 0.3481 0.81171 0.17665 0.0
C27 C 0.29681 0.78944 0.14035 0.0
C28 C 0.3052 0.789 0.19022 0.0
C29 C 0.34426 0.81554 0.15182 0.0
C30 C 0.21284 0.73894 0.19339 0.0
C31 C 1.04293 0.57812 0.18048 0.0
H32 H 0.99826 0.34102 0.19304 0.0
H33 H 0.95143 0.41347 0.12725 0.0
H34 H 0.90943 0.3095 0.18334 0.0
H35 H 1.04038 0.44589 0.13706 0.0
H36 H 0.21731 0.74655 0.14463 0.0
H37 H 0.38421 0.83076 0.18605 0.0
H38 H 0.29298 0.79096 0.12122 0.0
H39 H 0.30933 0.78888 0.20945 0.0
Eu40 Eu 0.6935 1.08033 0.51535 0.0
Eu41 Eu 0.62161 0.1251 0.52145 0.0
C42 C 0.65899 0.09496 0.56891 0.0
C43 C 0.71597 0.98216 0.49921 0.0
C44 C 0.67151 0.95216 0.51154 0.0
C45 C 0.70789 0.90895 0.47797 0.0
C46 C 0.64765 0.90047 0.50843 0.0
C47 C 0.73172 0.96094 0.481 0.0
C48 C 0.66939 0.87939 0.4935 0.0
C49 C 0.74238 1.03563 0.5043 0.0
O50 O 0.70105 0.19209 0.51299 0.0
O51 O 0.75294 0.16135 0.52112 0.0
C52 C 0.74706 0.19866 0.51547 0.0
O53 O 0.69229 0.11104 0.48038 0.0
O54 O 0.60598 0.18072 0.53836 0.0
O55 O 0.55664 0.12986 0.50962 0.0
O56 O 0.61528 0.1034 0.48234 0.0
C57 C 0.65293 0.10751 0.46999 0.0
O58 O 0.614 1.01186 0.50791 0.0
O59 O 0.56363 1.04193 0.52211 0.0
O60 O 0.63 0.11004 0.55968 0.0
O61 O 0.73191 1.05903 0.48872 0.0
O62 O 0.74008 1.04987 0.52644 0.0
O63 O 0.68705 1.08272 0.55567 0.0
C64 C 0.5873 0.21601 0.50733 0.0
C65 C 0.60786 0.21779 0.48451 0.0
C66 C 0.62435 0.3058 0.50895 0.0
C67 C 0.63812 0.26386 0.47438 0.0
C68 C 0.59387 0.26004 0.51891 0.0
C69 C 0.64842 0.30828 0.48712 0.0
C70 C 0.57275 0.17271 0.52164 0.0
C71 C 0.56896 1.00459 0.51326 0.0
H72 H 0.65768 0.96834 0.52504 0.0
H73 H 0.72411 0.89221 0.46613 0.0
H74 H 0.61765 0.87763 0.52033 0.0
H75 H 0.7642 0.98418 0.47045 0.0
H76 H 0.60374 0.18414 0.4753 0.0
H77 H 0.63146 0.33963 0.5191 0.0
H78 H 0.6555 0.26498 0.45736 0.0
H79 H 0.57927 0.25953 0.53663 0.0
Eu80 Eu 0.58763 0.5629 0.84871 0.0
Eu81 Eu 0.70595 0.63011 0.85314 0.0
C82 C 0.64412 0.598 0.90135 0.0
C83 C 0.45812 0.52812 0.8367 0.0
C84 C 0.4418 0.55038 0.85428 0.0
C85 C 0.4317 0.5635 0.80577 0.0
C86 C 0.42292 0.58046 0.84782 0.0
C87 C 0.45198 0.53398 0.81229 0.0
C88 C 0.41796 0.58742 0.82364 0.0
C89 C 0.49085 0.50914 0.84425 0.0
O90 O 0.69826 0.55245 0.8458 0.0
O91 O 0.61219 0.50422 0.84736 0.0
C92 C 0.65654 0.50789 0.84471 0.0
O93 O 0.60936 0.59061 0.81172 0.0
O94 O 0.78281 0.66063 0.86662 0.0
O95 O 0.76745 0.69529 0.83737 0.0
O96 O 0.68718 0.6007 0.81507 0.0
C97 C 0.651 0.59803 0.80197 0.0
O98 O 0.59825 0.64029 0.84171 0.0
O99 O 0.67912 0.68723 0.8563 0.0
O100 O 0.68718 0.61016 0.89135 0.0
O101 O 0.52072 0.50746 0.82803 0.0
O102 O 0.51424 0.52843 0.86486 0.0
O103 O 0.60368 0.58657 0.88838 0.0
C104 C 0.83367 0.67992 0.83372 0.0
C105 C 0.81081 0.63654 0.81814 0.0
C106 C 0.91143 0.6796 0.83226 0.0
C107 C 0.83664 0.61175 0.81176 0.0
C108 C 0.88502 0.70353 0.83927 0.0
C109 C 0.8858 0.63151 0.82044 0.0
C110 C 0.80142 0.6905 0.84891 0.0
C111 C 0.63819 0.68457 0.84737 0.0
H112 H 0.44615 0.54688 0.87318 0.0
H113 H 0.42721 0.56806 0.78703 0.0
H114 H 0.41195 0.59844 0.8618 0.0
H115 H 0.46457 0.51745 0.79834 0.0
H116 H 0.77139 0.61826 0.81336 0.0
H117 H 0.94993 0.69529 0.83884 0.0
H118 H 0.81671 0.57487 0.80256 0.0
H119 H 0.9031 0.73704 0.85117 0.0
C120 C 0.65126 0.20247 0.2098 0.0
C121 C 0.69904 0.22977 0.22097 0.0
C122 C 0.73084 0.27645 0.18554 0.0
C123 C 0.7389 0.26645 0.20877 0.0
C124 C 0.68198 0.25314 0.17547 0.0
C125 C 0.64215 0.21543 0.18751 0.0
U126 U 0.60317 0.12195 0.26243 0.0
O127 O 0.52556 1.06875 0.273 0.0
O128 O 0.57832 1.04185 0.26463 0.0
C129 C 0.53097 1.03032 0.26589 0.0
C130 C 0.61311 0.1569 0.22004 0.0
C131 C 0.50244 1.00293 0.24409 0.0
C132 C 0.4937 1.01034 0.20163 0.0
C133 C 0.50744 1.03201 0.22461 0.0
C134 C 0.46473 0.92851 0.21732 0.0
C135 C 0.47081 0.95837 0.19791 0.0
C136 C 0.48143 0.95092 0.24037 0.0
C137 C 0.66424 0.16109 0.32216 0.0
C138 C 0.61568 0.11798 0.35622 0.0
C139 C 0.70732 0.16214 0.35838 0.0
C140 C 0.70916 0.17585 0.33487 0.0
C141 C 0.66053 0.13409 0.36919 0.0
C142 C 0.61749 0.13093 0.3327 0.0
C143 C 0.66547 0.17472 0.29753 0.0
O144 O 0.62949 0.12668 0.22581 0.0
O145 O 0.58605 0.1632 0.23662 0.0
O146 O 0.62755 0.18062 0.29126 0.0
O147 O 0.67505 0.14771 0.28174 0.0
H148 H 0.70619 0.22017 0.23834 0.0
H149 H 0.77657 0.28449 0.21672 0.0
H150 H 0.67567 0.26092 0.15754 0.0
H151 H 0.60517 0.19446 0.17886 0.0
H152 H 0.49882 1.03382 0.18687 0.0
H153 H 0.52363 1.07211 0.22705 0.0
H154 H 0.44743 0.88811 0.21462 0.0
H155 H 0.47895 0.92812 0.25501 0.0
H156 H 0.57943 0.09647 0.36449 0.0
H157 H 0.74217 0.17482 0.36842 0.0
H158 H 0.74538 0.19826 0.32672 0.0
H159 H 0.58232 0.11802 0.3229 0.0
C160 C 0.69367 0.63657 0.53857 0.0
C161 C 0.66594 0.65413 0.55156 0.0
C162 C 0.67722 0.70862 0.52015 0.0
C163 C 0.65746 0.68993 0.54227 0.0
C164 C 0.70437 0.69082 0.50689 0.0
C165 C 0.71258 0.65446 0.51615 0.0
U166 U 0.70149 0.58458 0.59498 0.0
O167 O 0.6796 0.50713 0.60293 0.0
O168 O 0.75817 0.56821 0.60934 0.0
C169 C 0.72751 0.51994 0.60393 0.0
C170 C 0.70655 0.60353 0.54994 0.0
C171 C 0.74206 0.49943 0.58312 0.0
C172 C 0.76572 0.51384 0.54133 0.0
C173 C 0.76874 0.53223 0.56488 0.0
C174 C 0.714 0.429 0.55412 0.0
C175 C 0.73718 0.46228 0.53575 0.0
C176 C 0.716 0.44747 0.57766 0.0
C177 C 0.66753 0.62595 0.65195 0.0
C178 C 0.6732 0.58708 0.68727 0.0
C179 C 0.67147 0.66451 0.69108 0.0
C180 C 0.66694 0.66393 0.66625 0.0
C181 C 0.67962 0.6286 0.70204 0.0
C182 C 0.66884 0.58657 0.66254 0.0
C183 C 0.67164 0.62937 0.62613 0.0
O184 O 0.74542 0.62738 0.56489 0.0
O185 O 0.66769 0.56454 0.55883 0.0
O186 O 0.63999 0.58801 0.61354 0.0
O187 O 0.71841 0.64996 0.61892 0.0
H188 H 0.65235 0.64135 0.56922 0.0
H189 H 0.63761 0.70478 0.55276 0.0
H190 H 0.72059 0.70641 0.48998 0.0
H191 H 0.73492 0.64167 0.50635 0.0
H192 H 0.78417 0.53983 0.52738 0.0
H193 H 0.78873 0.57261 0.56833 0.0
H194 H 0.69257 0.3888 0.55006 0.0
H195 H 0.6941 0.42155 0.59114 0.0
H196 H 0.67153 0.55444 0.69446 0.0
H197 H 0.66807 0.6933 0.70114 0.0
H198 H 0.66392 0.69363 0.65824 0.0
H199 H 0.66758 0.55586 0.65163 0.0
C200 C 1.11389 0.58938 0.87192 0.0
C201 C 1.06975 0.57167 0.88493 0.0
C202 C 1.02999 0.58727 0.85158 0.0
C203 C 1.02725 0.56845 0.87441 0.0
C204 C 1.07001 0.59231 0.83711 0.0
C205 C 1.11284 0.59577 0.8475 0.0
U206 U 0.18606 0.63003 0.93011 0.0
O207 O 0.25281 0.62629 0.94119 0.0
O208 O 0.25654 0.6994 0.94103 0.0
C209 C 0.28166 0.6752 0.93941 0.0
C210 C 0.16185 0.60977 0.88459 0.0
C211 C 0.31635 0.68874 0.91929 0.0
C212 C 0.32259 0.70346 0.87669 0.0
C213 C 0.30677 0.70936 0.89934 0.0
C214 C 0.363 0.66152 0.8938 0.0
C215 C 0.34893 0.67772 0.87372 0.0
C216 C 0.34677 0.667 0.91653 0.0
C217 C 1.12323 0.61321 0.98836 0.0
C218 C 0.17659 0.63122 0.02355 0.0
C219 C 1.08643 0.59742 0.02747 0.0
C220 C 1.08099 0.59721 1.00271 0.0
C221 C 0.13405 0.61335 0.03784 0.0
C222 C 0.1712 0.63127 0.99886 0.0
C223 C 1.11744 0.60707 0.9624 0.0
O224 O 0.17664 0.65406 0.89533 0.0
O225 O 0.16626 0.57857 0.89815 0.0
O226 O 1.12927 0.57453 0.95294 0.0
O227 O 0.1371 0.64932 0.95133 0.0
H228 H 1.0692 0.56372 0.90362 0.0
H229 H 0.99369 0.55367 0.88494 0.0
H230 H 1.07011 0.59612 0.81804 0.0
H231 H 0.14596 0.60644 0.83685 0.0
H232 H 0.31147 0.71597 0.86131 0.0
H233 H 0.28284 0.72579 0.90065 0.0
H234 H 0.38361 0.64164 0.89164 0.0
H235 H 0.35384 0.65003 0.93142 0.0
H236 H 0.21349 0.64361 0.03143 0.0
H237 H 1.05341 0.58366 0.03848 0.0
H238 H 1.04382 0.58315 0.99474 0.0
H239 H 0.20409 0.64364 0.98785 0.0
C240 C 1.03453 0.47319 0.49135 0.0
C241 C 0.99531 0.45587 0.474 0.0
C242 C 0.93898 0.38482 0.49815 0.0
C243 C 0.94814 0.41212 0.47734 0.0
C244 C 0.97864 0.40181 0.51514 0.0
C245 C 1.02549 0.44528 0.51181 0.0
U246 U 0.15609 0.59353 0.4655 0.0
O247 O 0.19264 0.66943 0.48406 0.0
O248 O 0.2336 0.6284 0.48101 0.0
C249 C 0.23459 0.66971 0.48906 0.0
C250 C 1.08375 0.52168 0.49014 0.0
C251 C 0.28372 0.71885 0.4898 0.0
C252 C 0.34278 0.79638 0.51311 0.0
C253 C 0.29592 0.7515 0.51037 0.0
C254 C 0.36718 0.77788 0.47456 0.0
C255 C 0.37934 0.81033 0.49534 0.0
C256 C 0.32 0.73264 0.47183 0.0
C257 C 0.14613 0.58705 0.39199 0.0
C258 C 0.14415 0.62447 0.35484 0.0
C259 C 0.13992 0.54385 0.35322 0.0
C260 C 0.14276 0.54582 0.37834 0.0
C261 C 0.14091 0.58331 0.34125 0.0
C262 C 0.14645 0.62619 0.37996 0.0
C263 C 0.14973 0.58943 0.4186 0.0
O264 O 1.1238 0.52046 0.48265 0.0
O265 O 1.08328 0.56204 0.484 0.0
O266 O 1.13239 0.61308 0.43228 0.0
O267 O 0.17055 0.56805 0.43016 0.0
H268 H 1.00087 0.47641 0.45805 0.0
H269 H 0.91861 0.39971 0.46375 0.0
H270 H 0.97315 0.3816 0.53121 0.0
H271 H 1.05468 0.4577 0.5256 0.0
H272 H 0.35068 0.82023 0.52928 0.0
H273 H 0.2692 0.74184 0.52468 0.0
H274 H 0.39435 0.78746 0.46048 0.0
H275 H 0.31214 0.70833 0.45583 0.0
H276 H 0.14516 0.65539 0.34597 0.0
H277 H 0.13737 0.51172 0.34309 0.0
H278 H 0.14212 0.51496 0.38709 0.0
H279 H 0.14924 0.65854 0.38998 0.0
C280 C 0.65029 0.97148 0.82282 0.0
C281 C 0.62888 0.93247 0.80468 0.0
C282 C 0.64414 0.87618 0.82885 0.0
C283 C 0.62602 0.88557 0.80764 0.0
C284 C 0.66602 0.9155 0.84671 0.0
C285 C 0.66896 0.9621 0.84375 0.0
U286 U 0.6535 0.09376 0.79711 0.0
O287 O 0.6119 0.12978 0.81288 0.0
O288 O 0.69439 0.17085 0.81438 0.0
C289 C 0.65311 0.17149 0.8201 0.0
C290 C 0.65067 1.02067 0.82189 0.0
C291 C 0.65351 0.2208 0.82127 0.0
C292 C 0.63643 0.28018 0.84477 0.0
C293 C 0.63421 0.23339 0.84171 0.0
C294 C 0.67712 0.30385 0.80681 0.0
C295 C 0.65804 0.3164 0.82746 0.0
C296 C 0.67508 0.25682 0.80379 0.0
C297 C 0.6583 0.08972 0.72384 0.0
C298 C 0.6538 0.12762 0.68731 0.0
C299 C 0.66549 1.05555 0.68465 0.0
C300 C 0.66474 1.0545 0.70968 0.0
C301 C 0.65996 0.09202 0.67318 0.0
C302 C 0.65284 0.12642 0.71247 0.0
C303 C 0.65678 1.0863 0.75024 0.0
O304 O 0.69263 1.0615 0.8167 0.0
O305 O 0.61038 1.02031 0.81373 0.0
O306 O 0.61422 1.06935 0.76169 0.0
O307 O 0.69781 0.10965 0.76393 0.0
H308 H 0.61388 0.93796 0.78835 0.0
H309 H 0.60925 0.8564 0.7934 0.0
H310 H 0.68048 0.90995 0.86321 0.0
H311 H 0.68526 0.99086 0.8582 0.0
H312 H 0.62126 0.2882 0.86081 0.0
H313 H 0.61781 0.20698 0.85567 0.0
H314 H 0.69384 0.33062 0.79303 0.0
H315 H 0.69064 0.2488 0.7879 0.0
H316 H 0.64945 0.1561 0.67884 0.0
H317 H 0.67024 1.02774 0.67418 0.0
H318 H 0.6689 1.0258 0.71804 0.0
H319 H 0.64779 0.15397 0.72299 0.0
C320 C 0.7629 0.58526 0.15496 0.0
C321 C 0.79022 0.58308 0.13506 0.0
C322 C 0.8539 0.58136 0.16136 0.0
C323 C 0.83526 0.58142 0.13823 0.0
C324 C 0.82609 0.5833 0.18107 0.0
C325 C 0.78171 0.58543 0.17791 0.0
U326 U 0.64057 0.58891 0.12974 0.0
O327 O 0.56521 0.54783 0.14607 0.0
O328 O 0.60814 0.63001 0.14933 0.0
C329 C 0.56654 0.58898 0.15465 0.0
C330 C 0.71464 0.58665 0.1532 0.0
C331 C 0.51824 0.59021 0.15613 0.0
C332 C 0.45222 0.58873 0.18165 0.0
C333 C 0.4968 0.58681 0.17876 0.0
C334 C 0.4488 0.5978 0.1392 0.0
C335 C 0.42745 0.59445 0.162 0.0
C336 C 0.49359 0.59562 0.13628 0.0
C337 C 0.63947 0.5919 0.05641 0.0
C338 C 0.61962 0.61921 0.01983 0.0
C339 C 0.65846 0.56762 0.01724 0.0
C340 C 0.65846 0.56637 0.04232 0.0
C341 C 0.63899 0.59399 1.00577 0.0
C342 C 0.62008 0.61837 0.04493 0.0
C343 C 0.63985 0.59084 0.08293 0.0
O344 O 0.71618 0.62845 0.14787 0.0
O345 O 0.67317 0.54619 0.14515 0.0
O346 O 0.62009 0.54857 0.09398 0.0
O347 O 0.66021 0.63209 0.097 0.0
H348 H 0.77687 0.58275 0.11712 0.0
H349 H 0.85559 0.58018 0.12259 0.0
H350 H 0.83898 0.58347 0.19909 0.0
H351 H 0.76176 0.58709 0.19364 0.0
H352 H 0.43705 0.58588 0.1994 0.0
H353 H 0.51482 0.58278 0.19443 0.0
H354 H 0.43073 0.6021 0.12363 0.0
H355 H 0.50899 0.59834 0.1186 0.0
H356 H 0.6042 0.63957 0.01136 0.0
H357 H 0.67385 0.54816 0.00678 0.0
H358 H 0.67386 0.54595 0.05074 0.0
H359 H 0.60486 0.63802 0.05537 0.0
C360 C 0.28926 0.5646 0.15645 0.0
C361 C 0.28688 0.5971 0.1749 0.0
C362 C 0.3792 0.63481 0.18101 0.0
C363 C 0.3793 0.59655 0.16562 0.0
N364 N 0.32961 0.51798 0.14266 0.0
N365 N 0.33095 0.65745 0.20802 0.0
C366 C 0.33291 0.5594 0.1545 0.0
C367 C 0.33233 0.63092 0.18801 0.0
N368 N 0.25112 0.54073 0.1397 0.0
N369 N 0.42397 0.67578 0.18854 0.0
H370 H 0.29767 0.65356 0.21489 0.0
H371 H 0.36224 0.67898 0.21936 0.0
H372 H 0.45879 0.68062 0.18338 0.0
H373 H 0.4263 0.70719 0.19771 0.0
H374 H 0.25267 0.51965 0.12489 0.0
H375 H 0.22153 0.54794 0.13877 0.0
H376 H 0.29538 0.4874 0.1364 0.0
H377 H 0.36002 0.51187 0.1413 0.0
C378 C 0.81098 0.29156 0.52568 0.0
C379 C 0.79415 0.24792 0.51009 0.0
C380 C 0.87372 0.29309 0.48777 0.0
C381 C 0.88857 0.33789 0.50208 0.0
N382 N 0.86877 0.38136 0.53336 0.0
N383 N 0.80741 0.21044 0.47383 0.0
C384 C 0.85647 0.33742 0.52074 0.0
C385 C 0.82502 0.24977 0.49047 0.0
N386 N 0.7845 0.28865 0.54583 0.0
N387 N 0.90737 0.29084 0.47236 0.0
H388 H 0.77332 0.17758 0.47536 0.0
H389 H 0.82446 0.21198 0.45751 0.0
H390 H 0.94339 0.32127 0.46993 0.0
H391 H 0.9016 0.25764 0.46364 0.0
H392 H 0.79745 0.3167 0.55953 0.0
H393 H 0.75087 0.25639 0.54974 0.0
H394 H 0.84494 0.38526 0.54545 0.0
H395 H 0.90116 0.41542 0.53019 0.0
C396 C 0.67573 0.76863 0.827 0.0
C397 C 0.63883 0.73337 0.84242 0.0
C398 C 0.60357 0.79046 0.84777 0.0
C399 C 0.64076 0.82572 0.8326 0.0
N400 N 0.71566 0.85102 0.80989 0.0
N401 N 0.56567 0.70963 0.86637 0.0
C402 C 0.67754 0.81522 0.82272 0.0
C403 C 0.60217 0.7441 0.85241 0.0
N404 N 0.7078 0.75645 0.81541 0.0
N405 N 0.57054 0.8024 0.85849 0.0
H406 H 0.5659 0.67793 0.87184 0.0
H407 H 0.53409 0.71104 0.87204 0.0
H408 H 0.56877 0.83423 0.85464 0.0
H409 H 0.54596 0.78227 0.87181 0.0
H410 H 0.73173 0.77687 0.80194 0.0
H411 H 0.70763 0.72305 0.81758 0.0
H412 H 0.74733 0.84955 0.80443 0.0
H413 H 0.71747 0.88452 0.80582 0.0
C414 C 0.98489 0.61476 0.18705 0.0
C415 C 0.99308 0.57675 0.17604 0.0
C416 C 0.90837 0.53951 0.1564 0.0
C417 C 0.90272 0.58046 0.16541 0.0
N418 N 0.94346 0.66391 0.18447 0.0
N419 N 0.96662 0.51129 0.14465 0.0
C420 C 0.94334 0.62005 0.17933 0.0
C421 C 0.95586 0.54136 0.15918 0.0
N422 N 1.01569 0.64498 0.20564 0.0
N423 N 0.86796 0.49775 0.14587 0.0
H424 H 1.00099 0.51222 0.14551 0.0
H425 H 0.94324 0.48913 0.13024 0.0
H426 H 0.83246 0.49415 0.14405 0.0
H427 H 0.86857 0.46495 0.14108 0.0
H428 H 1.00884 0.67017 0.21574 0.0
H429 H 1.04472 0.64093 0.21275 0.0
H430 H 0.97439 0.69596 0.19234 0.0
H431 H 0.91499 0.67007 0.17847 0.0
C432 C 0.51022 0.912 0.52192 0.0
C433 C 0.52217 0.95347 0.50772 0.0
C434 C 0.44111 0.90099 0.48511 0.0
C435 C 0.42986 0.85899 0.49875 0.0
N436 N 0.45792 0.82219 0.52751 0.0
N437 N 0.50355 0.98341 0.47241 0.0
C438 C 0.46571 0.86397 0.51644 0.0
C439 C 0.48886 0.94665 0.48834 0.0
N440 N 0.54076 0.91892 0.54117 0.0
N441 N 0.40514 0.8982 0.46974 0.0
H442 H 0.53737 1.01743 0.47434 0.0
H443 H 0.48452 0.97854 0.45624 0.0
H444 H 0.36995 0.86587 0.46683 0.0
H445 H 0.40842 0.92903 0.46132 0.0
H446 H 0.53148 0.89275 0.55412 0.0
H447 H 0.57442 0.95248 0.54503 0.0
H448 H 0.48444 0.82153 0.53878 0.0
H449 H 0.4263 0.78674 0.52388 0.0
C450 C 0.68858 0.4478 0.85451 0.0
C451 C 0.65843 0.45954 0.83982 0.0
C452 C 0.62644 0.37643 0.81764 0.0
C453 C 0.65963 0.36671 0.83105 0.0
N454 N 0.72772 0.39703 0.86012 0.0
N455 N 0.6025 0.43603 0.80521 0.0
C456 C 0.69221 0.40362 0.84886 0.0
C457 C 0.62844 0.42402 0.82082 0.0
N458 N 0.71151 0.47726 0.87481 0.0
N459 N 0.59107 0.33909 0.8025 0.0
H460 H 0.60025 0.46858 0.80722 0.0
H461 H 0.58621 0.41562 0.78913 0.0
H462 H 0.58849 0.30421 0.7995 0.0
H463 H 0.5616 0.34089 0.79439 0.0
H464 H 0.72903 0.46783 0.8878 0.0
H465 H 0.70893 0.50886 0.87991 0.0
H466 H 0.75625 0.4246 0.87134 0.0
H467 H 0.73141 0.36549 0.85661 0.0
C468 C 0.63088 0.78684 0.49225 0.0
C469 C 0.66822 0.83482 0.50137 0.0
C470 C 0.71132 0.7997 0.52256 0.0
C471 C 0.67498 0.75176 0.5127 0.0
N472 N 0.59816 0.69849 0.48908 0.0
N473 N 0.74069 0.88652 0.52853 0.0
C474 C 0.6343 0.74483 0.49795 0.0
C475 C 0.70706 0.84124 0.51748 0.0
N476 N 0.59178 0.78107 0.47823 0.0
N477 N 0.75018 0.80594 0.53704 0.0
H478 H 0.7406 0.91999 0.52687 0.0
H479 H 0.7406 0.91999 0.52687 0.0
H480 H 0.75589 0.77653 0.54117 0.0
H481 H 0.77736 0.84096 0.54462 0.0
H482 H 0.56354 0.74592 0.47129 0.0
H483 H 0.58735 0.81123 0.47397 0.0
H484 H 0.59772 0.66521 0.49231 0.0
H485 H 0.59772 0.66521 0.49231 0.0
C486 C 0.94795 0.60912 0.80873 0.0
C487 C 0.90703 0.59898 0.82323 0.0
C488 C 0.95088 0.59361 0.85766 0.0
C489 C 0.99108 0.59952 0.84288 0.0
N490 N 1.03784 0.65158 0.81057 0.0
N491 N 0.86248 0.56695 0.85949 0.0
C492 C 0.9929 0.61716 0.81963 0.0
C493 C 0.90558 0.58422 0.84677 0.0
N494 N 0.945 0.61537 0.78497 0.0
N495 N 0.95961 0.60878 0.88138 0.0
H496 H 0.8289 0.56118 0.85178 0.0
H497 H 0.85958 0.55424 0.8767 0.0
H498 H 0.99608 0.6281 0.88888 0.0
H499 H 0.9324 0.60958 0.89233 0.0
H500 H 0.97339 0.62036 0.77318 0.0
H501 H 0.91189 0.61055 0.77712 0.0
H502 H 1.04052 0.66876 0.7946 0.0
H503 H 1.07104 0.66901 0.821 0.0
C504 C 0.43387 0.86704 0.14488 0.0
C505 C 0.38549 0.86009 0.14111 0.0
C506 C 0.40586 0.93492 0.16527 0.0
C507 C 0.44932 0.93487 0.17408 0.0
N508 N 0.51301 0.9114 0.1663 0.0
N509 N 0.34198 0.90431 0.13348 0.0
C510 C 0.46692 0.90558 0.16153 0.0
C511 C 0.37913 0.90184 0.14544 0.0
N512 N 0.44505 0.8326 0.13519 0.0
N513 N 0.38664 0.96112 0.17721 0.0
H514 H 0.32084 0.87788 0.11967 0.0
H515 H 0.33585 0.93456 0.13583 0.0
H516 H 0.40298 0.98372 0.19275 0.0
H517 H 0.3518 0.95703 0.17273 0.0
H518 H 0.47954 0.8347 0.1385 0.0
H519 H 0.41914 0.80269 0.12382 0.0
H520 H 0.53929 0.93932 0.17833 0.0
H521 H 0.53929 0.93932 0.17833 0.0
C522 C 0.67031 0.39266 0.47877 0.0
C523 C 0.68738 0.35826 0.47972 0.0
C524 C 0.76009 0.41962 0.50386 0.0
C525 C 0.73128 0.44192 0.51081 0.0
N526 N 0.66387 0.45782 0.50186 0.0
N527 N 0.75824 0.34644 0.4843 0.0
C528 C 0.68884 0.43252 0.49663 0.0
C529 C 0.73685 0.37545 0.48849 0.0
N530 N 0.6315 0.38192 0.46337 0.0
N531 N 0.80792 0.43942 0.51296 0.0
H532 H 0.74077 0.31401 0.47298 0.0
H533 H 0.79269 0.35452 0.49173 0.0
H534 H 0.82425 0.47139 0.52466 0.0
H535 H 0.83251 0.4273 0.50726 0.0
H536 H 0.61719 0.40581 0.46126 0.0
H537 H 0.61669 0.3501 0.45155 0.0
H538 H 0.62962 0.4487 0.49371 0.0
H539 H 0.67728 0.48726 0.51496 0.0
C540 C 0.34178 0.59134 0.82274 0.0
C541 C 0.39383 0.61668 0.81839 0.0
C542 C 0.40507 0.69293 0.83916 0.0
C543 C 0.35778 0.66283 0.84957 0.0
N544 N 0.27543 0.58819 0.84779 0.0
N545 N 0.47162 0.69358 0.81496 0.0
C546 C 0.32356 0.6138 0.83968 0.0
C547 C 0.42371 0.66906 0.82328 0.0
N548 N 0.3125 0.54344 0.81314 0.0
N549 N 0.43247 0.74309 0.84556 0.0
H550 H 0.48468 0.67492 0.80355 0.0
H551 H 0.49777 0.73125 0.8191 0.0
H552 H 0.41869 0.76048 0.85733 0.0
H553 H 0.46695 0.76786 0.83832 0.0
H554 H 0.27418 0.52067 0.81606 0.0
H555 H 0.3274 0.52734 0.80123 0.0
H556 H 0.24899 0.55139 0.84225 0.0
H557 H 0.26161 0.60457 0.86012 0.0
C558 C 0.8367 0.30501 0.14345 0.0
C559 C 0.87316 0.35097 0.15458 0.0
C560 C 0.80853 0.35635 0.17779 0.0
C561 C 0.77504 0.30516 0.17092 0.0
N562 N 0.75916 0.22816 0.14918 0.0
N563 N 0.89596 0.42273 0.18188 0.0
C564 C 0.78889 0.27893 0.15373 0.0
C565 C 0.85954 0.37824 0.17114 0.0
N566 N 0.84918 0.28514 0.12407 0.0
N567 N 0.79182 0.38272 0.19154 0.0
H568 H 0.93378 0.43958 0.17728 0.0
H569 H 0.88931 0.44177 0.19601 0.0
H570 H 0.75443 0.36666 0.19686 0.0
H571 H 0.81355 0.42114 0.19591 0.0
H572 H 0.82291 0.25299 0.11411 0.0
H573 H 0.88491 0.30404 0.11665 0.0
H574 H 0.77111 0.20677 0.1392 0.0
H575 H 0.72437 0.20635 0.15695 0.0
C576 C 0.13706 0.63739 0.10477 0.0
C577 C 0.13764 0.59477 0.11299 0.0
C578 C 0.13574 0.56401 0.0715 0.0
C579 C 0.13864 0.60837 0.06361 0.0
N580 N 0.15241 0.69173 0.07214 0.0
N581 N 0.14297 0.51994 0.1045 0.0
C582 C 0.14262 0.64651 0.08009 0.0
C583 C 0.13835 0.5586 0.09644 0.0
N584 N 1.12799 0.66745 0.12032 0.0
N585 N 1.12927 0.5266 0.05512 0.0
H586 H 0.1422 0.51281 0.12253 0.0
H587 H 0.15066 0.4965 0.09348 0.0
H588 H 1.12915 0.53 0.03666 0.0
H589 H 1.121 0.49096 0.05967 0.0
H590 H 1.12195 0.69586 0.11489 0.0
H591 H 1.12121 0.66081 0.13839 0.0
H592 H 0.16143 0.72302 0.08356 0.0
H593 H 0.15604 0.69942 0.05405 0.0
C594 C 0.67565 0.16259 0.43583 0.0
C595 C 0.65376 0.11355 0.44421 0.0
C596 C 0.64056 1.07763 0.40312 0.0
C597 C 0.6583 0.12643 0.39494 0.0
N598 N 0.6818 0.21334 0.40319 0.0
N599 N 0.61182 1.0236 0.43666 0.0
C600 C 0.67286 0.1684 0.41118 0.0
C601 C 0.63495 1.07067 0.42808 0.0
N602 N 0.70053 0.20383 0.45128 0.0
N603 N 0.63075 1.03859 0.38709 0.0
H604 H 0.60956 1.01743 0.45491 0.0
H605 H 0.59233 0.99065 0.42587 0.0
H606 H 0.63474 1.04264 0.36867 0.0
H607 H 0.6222 1.0031 0.39201 0.0
H608 H 0.72337 0.24005 0.44558 0.0
H609 H 0.70178 0.20152 0.4697 0.0
H610 H 0.68704 0.24341 0.41464 0.0
H611 H 0.67916 0.21923 0.38519 0.0
C612 C 0.67975 0.58014 0.76259 0.0
C613 C 0.66039 0.60679 0.77622 0.0
C614 C 0.68409 0.66525 0.7444 0.0
C615 C 0.68893 0.6308 0.72873 0.0
N616 N 0.73031 0.58226 0.72888 0.0
N617 N 0.64248 0.67532 0.77867 0.0
C618 C 0.69808 0.5954 0.73939 0.0
C619 C 0.66174 0.64935 0.76671 0.0
N620 N 0.67926 0.53937 0.77136 0.0
N621 N 0.7094 0.71512 0.74012 0.0
H622 H 0.6254 0.66578 0.79515 0.0
H623 H 0.64036 0.70443 0.77105 0.0
H624 H 0.73434 0.7288 0.72598 0.0
H625 H 0.71125 0.74266 0.7524 0.0
H626 H 0.68713 0.51524 0.76097 0.0
H627 H 0.6674 0.52749 0.78846 0.0
H628 H 0.74243 0.5602 0.73684 0.0
H629 H 0.74983 0.59913 0.71355 0.0
C630 C 0.70319 0.1296 0.60916 0.0
C631 C 0.66045 0.09265 0.59548 0.0
C632 C 0.61647 1.05704 0.63266 0.0
C633 C 0.66018 0.09232 0.64634 0.0
N634 N 0.74805 0.15651 0.64762 0.0
N635 N 0.57979 1.01621 0.59373 0.0
C636 C 0.70441 0.12699 0.63456 0.0
C637 C 0.61804 1.05492 0.60713 0.0
N638 N 0.74187 0.16838 0.59796 0.0
N639 N 0.57285 1.02662 0.6441 0.0
H640 H 0.5793 1.01406 0.57506 0.0
H641 H 0.55064 0.98431 0.60099 0.0
H642 H 0.57032 1.02676 0.66271 0.0
H643 H 0.53822 1.00401 0.63526 0.0
H644 H 0.77133 0.19968 0.60706 0.0
H645 H 0.7427 0.17124 0.57943 0.0
H646 H 0.78295 0.17843 0.63997 0.0
H647 H 0.75021 0.15612 0.66622 0.0
C648 C 0.67675 0.64042 0.9425 0.0
C649 C 0.64138 0.59759 0.92812 0.0
C650 C 0.60079 0.55498 0.96476 0.0
C651 C 0.63938 0.59556 0.979 0.0
N652 N 0.71852 0.6738 0.98136 0.0
N653 N 0.5752 0.51039 0.92579 0.0
C654 C 0.67866 0.63739 0.96783 0.0
C655 C 0.60463 0.55392 0.93931 0.0
N656 N 0.707 0.68484 0.93213 0.0
N657 N 0.55998 0.51769 0.97555 0.0
H658 H 0.57786 0.50724 0.90727 0.0
H659 H 0.55156 0.47603 0.93314 0.0
H660 H 0.55637 0.51667 0.9941 0.0
H661 H 0.52789 0.49019 0.96612 0.0
H662 H 0.72995 0.71859 0.94189 0.0
H663 H 0.70545 0.6893 0.91385 0.0
H664 H 0.75117 0.70205 0.97401 0.0
H665 H 0.72079 0.67347 0.99995 0.0
C666 C 1.09289 0.54934 0.27591 0.0
C667 C 0.13771 0.58062 0.26365 0.0
C668 C 0.18523 0.61041 0.30202 0.0
C669 C 0.13972 0.58209 0.31444 0.0
N670 N 1.04917 0.52968 0.31365 0.0
N671 N 0.22537 0.64539 0.26469 0.0
C672 C 1.09322 0.55279 0.30148 0.0
C673 C 0.18355 0.6125 0.27663 0.0
N674 N 1.05012 0.51593 0.26307 0.0
N675 N 0.23031 0.63393 0.31445 0.0
H676 H 0.22623 0.64655 0.24608 0.0
H677 H 0.25825 0.67379 0.27321 0.0
H678 H 0.23305 0.6336 0.33302 0.0
H679 H 0.26522 0.65047 0.30632 0.0
H680 H 1.0177 0.48816 0.27075 0.0
H681 H 1.04808 0.51363 0.24439 0.0
H682 H 1.01357 0.51238 0.30541 0.0
H683 H 1.04804 0.53098 0.33231 0.0
loop_
_geom_bond_atom_site_label_1
_geom_bond_atom_site_label_2
_geom_bond_distance
_geom_bond_site_symmetry_2
_ccdc_geom_bond_type
Eu0 C9 2.828 . S
Eu0 O11 2.392 1_655 S
Eu0 O13 2.418 . S
Eu0 O18 2.373 . S
Eu0 O21 2.488 . S
Eu0 O22 2.471 . S
Eu0 O23 2.349 . S
Eu1 O10 2.373 . S
Eu1 O14 2.488 . S
Eu1 O15 2.471 . S
Eu1 O16 2.349 . S
Eu1 O19 2.392 1_455 S
Eu1 O20 2.418 . S
Eu1 C30 2.828 . S
C2 O20 1.244 . S
C2 O23 1.265 1_455 S
C3 C4 1.379 . S
C3 C7 1.373 . S
C3 C9 1.505 . S
C4 C3 1.379 . S
C4 C6 1.369 . S
C4 H32 0.930 . S
C5 C7 1.383 . S
C5 C8 1.382 . S
C5 H33 0.930 . S
C6 C4 1.369 . S
C6 C8 1.392 . S
C6 H34 0.930 . S
C7 C3 1.373 . S
C7 C5 1.383 . S
C7 H35 0.931 . S
C8 C5 1.382 . S
C8 C6 1.392 . S
C9 Eu0 2.828 . S
C9 C3 1.505 . S
C9 O21 1.249 . S
C9 O22 1.244 . S
O10 Eu1 2.373 . S
O10 C12 1.258 . S
O11 Eu0 2.392 1_455 S
O11 C12 1.242 . S
C12 O10 1.258 . S
C12 O11 1.242 . S
O13 Eu0 2.418 . S
O13 C17 1.244 . S
O14 Eu1 2.488 . S
O14 C30 1.249 . S
O15 Eu1 2.471 . S
O15 C30 1.244 . S
O16 Eu1 2.349 . S
O16 C17 1.265 1_455 S
C17 O13 1.244 . S
C17 O16 1.265 1_655 S
O18 Eu0 2.373 . S
O18 C31 1.258 . S
O19 Eu1 2.392 1_655 S
O19 C31 1.242 . S
O20 Eu1 2.418 . S
O20 C2 1.244 . S
O21 Eu0 2.488 . S
O21 C9 1.249 . S
O22 Eu0 2.471 . S
O22 C9 1.244 . S
O23 Eu0 2.349 . S
O23 C2 1.265 1_655 S
C24 C25 1.379 . S
C24 C28 1.373 . S
C24 C30 1.505 . S
C25 C24 1.379 . S
C25 C27 1.369 . S
C25 H36 0.930 . S
C26 C28 1.383 . S
C26 C29 1.382 . S
C26 H37 0.930 . S
C27 C25 1.369 . S
C27 C29 1.392 . S
C27 H38 0.930 . S
C28 C24 1.373 . S
C28 C26 1.383 . S
C28 H39 0.931 . S
C29 C26 1.382 . S
C29 C27 1.392 . S
C30 Eu1 2.828 . S
C30 O14 1.249 . S
C30 O15 1.244 . S
C30 C24 1.505 . S
C31 O18 1.258 . S
C31 O19 1.242 . S
H32 C4 0.930 . S
H33 C5 0.930 . S
H34 C6 0.930 . S
H35 C7 0.931 . S
H36 C25 0.930 . S
H37 C26 0.930 . S
H38 C27 0.930 . S
H39 C28 0.931 . S
Eu40 C49 2.828 . S
Eu40 O51 2.392 1_565 S
Eu40 O53 2.418 . S
Eu40 O58 2.373 . S
Eu40 O61 2.488 . S
Eu40 O62 2.471 . S
Eu40 O63 2.349 . S
Eu41 O50 2.373 . S
Eu41 O54 2.488 . S
Eu41 O55 2.471 . S
Eu41 O56 2.349 . S
Eu41 O59 2.392 1_545 S
Eu41 O60 2.418 . S
Eu41 C70 2.828 . S
C42 O60 1.244 . S
C42 O63 1.265 1_545 S
C43 C44 1.379 . S
C43 C47 1.373 . S
C43 C49 1.505 . S
C44 C43 1.379 . S
C44 C46 1.369 . S
C44 H72 0.930 . S
C45 C47 1.383 . S
C45 C48 1.382 . S
C45 H73 0.930 . S
C46 C44 1.369 . S
C46 C48 1.392 . S
C46 H74 0.930 . S
C47 C43 1.373 . S
C47 C45 1.383 . S
C47 H75 0.931 . S
C48 C45 1.382 . S
C48 C46 1.392 . S
C49 Eu40 2.828 . S
C49 C43 1.505 . S
C49 O61 1.249 . S
C49 O62 1.244 . S
O50 Eu41 2.373 . S
O50 C52 1.258 . S
O51 Eu40 2.392 1_545 S
O51 C52 1.242 . S
C52 O50 1.258 . S
C52 O51 1.242 . S
O53 Eu40 2.418 . S
O53 C57 1.244 1_565 S
O54 Eu41 2.488 . S
O54 C70 1.249 . S
O55 Eu41 2.471 . S
O55 C70 1.244 . S
O56 Eu41 2.349 . S
O56 C57 1.265 . S
C57 O53 1.244 1_545 S
C57 O56 1.265 . S
O58 Eu40 2.373 . S
O58 C71 1.258 . S
O59 Eu41 2.392 1_565 S
O59 C71 1.242 . S
O60 Eu41 2.418 . S
O60 C42 1.244 . S
O61 Eu40 2.488 . S
O61 C49 1.249 . S
O62 Eu40 2.471 . S
O62 C49 1.244 . S
O63 Eu40 2.349 . S
O63 C42 1.265 1_565 S
C64 C65 1.379 . S
C64 C68 1.373 . S
C64 C70 1.505 . S
C65 C64 1.379 . S
C65 C67 1.369 . S
C65 H76 0.930 . S
C66 C68 1.383 . S
C66 C69 1.382 . S
C66 H77 0.930 . S
C67 C65 1.369 . S
C67 C69 1.392 . S
C67 H78 0.930 . S
C68 C64 1.373 . S
C68 C66 1.383 . S
C68 H79 0.931 . S
C69 C66 1.382 . S
C69 C67 1.392 . S
C70 Eu41 2.828 . S
C70 O54 1.249 . S
C70 O55 1.244 . S
C70 C64 1.505 . S
C71 O58 1.258 . S
C71 O59 1.242 . S
H72 C44 0.930 . S
H73 C45 0.930 . S
H74 C46 0.930 . S
H75 C47 0.931 . S
H76 C65 0.930 . S
H77 C66 0.930 . S
H78 C67 0.930 . S
H79 C68 0.931 . S
Eu80 C89 2.828 . S
Eu80 O91 2.392 . S
Eu80 O93 2.418 . S
Eu80 O98 2.373 . S
Eu80 O101 2.488 . S
Eu80 O102 2.471 . S
Eu80 O103 2.349 . S
Eu81 O90 2.373 . S
Eu81 O94 2.488 . S
Eu81 O95 2.471 . S
Eu81 O96 2.349 . S
Eu81 O99 2.392 . S
Eu81 O100 2.418 . S
Eu81 C110 2.828 . S
C82 O100 1.244 . S
C82 O103 1.265 . S
C83 C84 1.379 . S
C83 C87 1.373 . S
C83 C89 1.505 . S
C84 C83 1.379 . S
C84 C86 1.369 . S
C84 H112 0.930 . S
C85 C87 1.383 . S
C85 C88 1.382 . S
C85 H113 0.930 . S
C86 C84 1.369 . S
C86 C88 1.392 . S
C86 H114 0.930 . S
C87 C83 1.373 . S
C87 C85 1.383 . S
C87 H115 0.931 . S
C88 C85 1.382 . S
C88 C86 1.392 . S
C89 Eu80 2.828 . S
C89 C83 1.505 . S
C89 O101 1.249 . S
C89 O102 1.244 . S
O90 Eu81 2.373 . S
O90 C92 1.258 . S
O91 Eu80 2.392 . S
O91 C92 1.242 . S
C92 O90 1.258 . S
C92 O91 1.242 . S
O93 Eu80 2.418 . S
O93 C97 1.244 . S
O94 Eu81 2.488 . S
O94 C110 1.249 . S
O95 Eu81 2.471 . S
O95 C110 1.244 . S
O96 Eu81 2.349 . S
O96 C97 1.265 . S
C97 O93 1.244 . S
C97 O96 1.265 . S
O98 Eu80 2.373 . S
O98 C111 1.258 . S
O99 Eu81 2.392 . S
O99 C111 1.242 . S
O100 Eu81 2.418 . S
O100 C82 1.244 . S
O101 Eu80 2.488 . S
O101 C89 1.249 . S
O102 Eu80 2.471 . S
O102 C89 1.244 . S
O103 Eu80 2.349 . S
O103 C82 1.265 . S
C104 C105 1.379 . S
C104 C108 1.373 . S
C104 C110 1.505 . S
C105 C104 1.379 . S
C105 C107 1.369 . S
C105 H116 0.930 . S
C106 C108 1.383 . S
C106 C109 1.382 . S
C106 H117 0.930 . S
C107 C105 1.369 . S
C107 C109 1.392 . S
C107 H118 0.930 . S
C108 C104 1.373 . S
C108 C106 1.383 . S
C108 H119 0.931 . S
C109 C106 1.382 . S
C109 C107 1.392 . S
C110 Eu81 2.828 . S
C110 O94 1.249 . S
C110 O95 1.244 . S
C110 C104 1.505 . S
C111 O98 1.258 . S
C111 O99 1.242 . S
H112 C84 0.930 . S
H113 C85 0.930 . S
H114 C86 0.930 . S
H115 C87 0.931 . S
H116 C105 0.930 . S
H117 C106 0.930 . S
H118 C107 0.930 . S
H119 C108 0.931 . S
C120 C121 1.264 . S
C120 C125 1.479 . S
C120 C130 1.465 . S
C121 C120 1.264 . S
C121 C123 1.339 . S
C121 H148 0.931 . S
C122 C123 1.395 . S
C122 C124 1.320 . S
C123 C121 1.339 . S
C123 C122 1.395 . S
C123 H149 0.929 . S
C124 C122 1.320 . S
C124 C125 1.405 . S
C124 H150 0.930 . S
C125 C120 1.479 . S
C125 C124 1.405 . S
C125 H151 0.931 . S
U126 O127 2.454 1_545 S
U126 O128 2.458 1_545 S
U126 C129 2.984 1_545 S
U126 C130 2.847 . S
U126 C143 2.882 . S
U126 O144 2.441 . S
U126 O145 2.420 . S
U126 O146 2.455 . S
U126 O147 2.449 . S
O127 U126 2.454 1_565 S
O127 C129 1.353 . S
O128 U126 2.458 1_565 S
O128 C129 1.286 . S
C129 U126 2.984 1_565 S
C129 O127 1.353 . S
C129 O128 1.286 . S
C129 C131 1.363 . S
C130 C120 1.465 . S
C130 U126 2.847 . S
C130 O144 1.249 . S
C130 O145 1.202 . S
C131 C129 1.363 . S
C131 C133 1.408 . S
C131 C136 1.342 . S
C132 C133 1.310 . S
C132 C135 1.461 . S
C132 H152 0.932 . S
C133 C131 1.408 . S
C133 C132 1.310 . S
C133 H153 0.930 . S
C134 C135 1.474 . S
C134 C136 1.285 . S
C134 H154 0.929 . S
C135 C132 1.461 . S
C135 C134 1.474 . S
C136 C131 1.342 . S
C136 C134 1.285 . S
C136 H155 0.930 . S
C137 C140 1.424 . S
C137 C142 1.245 . S
C137 C143 1.428 . S
C138 C141 1.260 . S
C138 C142 1.477 . S
C138 H156 0.932 1_545 S
C139 C140 1.384 . S
C139 C141 1.479 . S
C139 H157 0.929 . S
C140 C137 1.424 . S
C140 C139 1.384 . S
C140 H158 0.928 . S
C141 C138 1.260 . S
C141 C139 1.479 . S
C142 C137 1.245 . S
C142 C138 1.477 . S
C142 H159 0.932 1_545 S
C143 U126 2.882 . S
C143 C137 1.428 . S
C143 O146 1.301 . S
C143 O147 1.282 . S
O144 U126 2.441 . S
O144 C130 1.249 . S
O145 U126 2.420 . S
O145 C130 1.202 . S
O146 U126 2.455 . S
O146 C143 1.301 . S
O147 U126 2.449 . S
O147 C143 1.282 . S
H148 C121 0.931 . S
H149 C123 0.929 . S
H150 C124 0.930 . S
H151 C125 0.931 . S
H152 C132 0.932 . S
H153 C133 0.930 . S
H154 C134 0.929 . S
H155 C136 0.930 . S
H156 C138 0.932 1_565 S
H157 C139 0.929 . S
H158 C140 0.928 . S
H159 C142 0.932 1_565 S
C160 C161 1.264 . S
C160 C165 1.479 . S
C160 C170 1.465 . S
C161 C160 1.264 . S
C161 C163 1.339 . S
C161 H188 0.931 . S
C162 C163 1.395 . S
C162 C164 1.320 . S
C163 C161 1.339 . S
C163 C162 1.395 . S
C163 H189 0.929 . S
C164 C162 1.320 . S
C164 C165 1.405 . S
C164 H190 0.930 . S
C165 C160 1.479 . S
C165 C164 1.405 . S
C165 H191 0.931 . S
U166 O167 2.454 . S
U166 O168 2.458 . S
U166 C169 2.984 . S
U166 C170 2.847 . S
U166 C183 2.882 . S
U166 O184 2.441 . S
U166 O185 2.420 . S
U166 O186 2.455 . S
U166 O187 2.449 . S
O167 U166 2.454 . S
O167 C169 1.353 . S
O168 U166 2.458 . S
O168 C169 1.286 . S
C169 U166 2.984 . S
C169 O167 1.353 . S
C169 O168 1.286 . S
C169 C171 1.363 . S
C170 C160 1.465 . S
C170 U166 2.847 . S
C170 O184 1.249 . S
C170 O185 1.202 . S
C171 C169 1.363 . S
C171 C173 1.408 . S
C171 C176 1.342 . S
C172 C173 1.310 . S
C172 C175 1.461 . S
C172 H192 0.932 . S
C173 C171 1.408 . S
C173 C172 1.310 . S
C173 H193 0.930 . S
C174 C175 1.474 . S
C174 C176 1.285 . S
C174 H194 0.929 . S
C175 C172 1.461 . S
C175 C174 1.474 . S
C176 C171 1.342 . S
C176 C174 1.285 . S
C176 H195 0.930 . S
C177 C180 1.424 . S
C177 C182 1.245 . S
C177 C183 1.428 . S
C178 C181 1.260 . S
C178 C182 1.477 . S
C178 H196 0.932 . S
C179 C180 1.384 . S
C179 C181 1.479 . S
C179 H197 0.929 . S
C180 C177 1.424 . S
C180 C179 1.384 . S
C180 H198 0.928 . S
C181 C178 1.260 . S
C181 C179 1.479 . S
C182 C177 1.245 . S
C182 C178 1.477 . S
C182 H199 0.932 . S
C183 U166 2.882 . S
C183 C177 1.428 . S
C183 O186 1.301 . S
C183 O187 1.282 . S
O184 U166 2.441 . S
O184 C170 1.249 . S
O185 U166 2.420 . S
O185 C170 1.202 . S
O186 U166 2.455 . S
O186 C183 1.301 . S
O187 U166 2.449 . S
O187 C183 1.282 . S
H188 C161 0.931 . S
H189 C163 0.929 . S
H190 C164 0.930 . S
H191 C165 0.931 . S
H192 C172 0.932 . S
H193 C173 0.930 . S
H194 C174 0.929 . S
H195 C176 0.930 . S
H196 C178 0.932 . S
H197 C179 0.929 . S
H198 C180 0.928 . S
H199 C182 0.932 . S
C200 C201 1.264 . S
C200 C205 1.479 . S
C200 C210 1.465 . S
C201 C200 1.264 . S
C201 C203 1.339 . S
C201 H228 0.931 . S
C202 C203 1.395 . S
C202 C204 1.320 . S
C203 C201 1.339 . S
C203 C202 1.395 . S
C203 H229 0.929 . S
C204 C202 1.320 . S
C204 C205 1.405 . S
C204 H230 0.930 . S
C205 C200 1.479 . S
C205 C204 1.405 . S
C205 H231 0.931 . S
U206 O207 2.454 . S
U206 O208 2.458 . S
U206 C209 2.984 . S
U206 C210 2.847 1_455 S
U206 C223 2.882 . S
U206 O224 2.441 1_455 S
U206 O225 2.420 1_455 S
U206 O226 2.455 . S
U206 O227 2.449 1_455 S
O207 U206 2.454 . S
O207 C209 1.353 . S
O208 U206 2.458 . S
O208 C209 1.286 . S
C209 U206 2.984 . S
C209 O207 1.353 . S
C209 O208 1.286 . S
C209 C211 1.363 . S
C210 C200 1.465 . S
C210 U206 2.847 1_655 S
C210 O224 1.249 . S
C210 O225 1.202 . S
C211 C209 1.363 . S
C211 C213 1.408 . S
C211 C216 1.342 . S
C212 C213 1.310 . S
C212 C215 1.461 . S
C212 H232 0.932 . S
C213 C211 1.408 . S
C213 C212 1.310 . S
C213 H233 0.930 . S
C214 C215 1.474 . S
C214 C216 1.285 . S
C214 H234 0.929 . S
C215 C212 1.461 . S
C215 C214 1.474 . S
C216 C211 1.342 . S
C216 C214 1.285 . S
C216 H235 0.930 . S
C217 C220 1.424 1_455 S
C217 C222 1.245 . S
C217 C223 1.428 . S
C218 C221 1.260 . S
C218 C222 1.477 1_554 S
C218 H236 0.932 . S
C219 C220 1.384 1_554 S
C219 C221 1.479 1_655 S
C219 H237 0.929 . S
C220 C217 1.424 1_655 S
C220 C219 1.384 1_556 S
C220 H238 0.928 . S
C221 C218 1.260 . S
C221 C219 1.479 1_455 S
C222 C217 1.245 . S
C222 C218 1.477 1_556 S
C222 H239 0.932 . S
C223 U206 2.882 . S
C223 C217 1.428 . S
C223 O226 1.301 . S
C223 O227 1.282 1_455 S
O224 U206 2.441 1_655 S
O224 C210 1.249 . S
O225 U206 2.420 1_655 S
O225 C210 1.202 . S
O226 U206 2.455 . S
O226 C223 1.301 . S
O227 U206 2.449 1_655 S
O227 C223 1.282 1_655 S
H228 C201 0.931 . S
H229 C203 0.929 . S
H230 C204 0.930 . S
H231 C205 0.931 . S
H232 C212 0.932 . S
H233 C213 0.930 . S
H234 C214 0.929 . S
H235 C216 0.930 . S
H236 C218 0.932 . S
H237 C219 0.929 . S
H238 C220 0.928 . S
H239 C222 0.932 . S
C240 C241 1.264 . S
C240 C245 1.479 . S
C240 C250 1.465 . S
C241 C240 1.264 . S
C241 C243 1.339 . S
C241 H268 0.931 . S
C242 C243 1.395 . S
C242 C244 1.320 . S
C243 C241 1.339 . S
C243 C242 1.395 . S
C243 H269 0.929 . S
C244 C242 1.320 . S
C244 C245 1.405 . S
C244 H270 0.930 . S
C245 C240 1.479 . S
C245 C244 1.405 . S
C245 H271 0.931 . S
U246 O247 2.454 . S
U246 O248 2.458 . S
U246 C249 2.984 . S
U246 C250 2.847 1_455 S
U246 C263 2.882 . S
U246 O264 2.441 1_455 S
U246 O265 2.420 1_455 S
U246 O266 2.455 . S
U246 O267 2.449 1_455 S
O247 U246 2.454 . S
O247 C249 1.353 . S
O248 U246 2.458 . S
O248 C249 1.286 . S
C249 U246 2.984 . S
C249 O247 1.353 . S
C249 O248 1.286 . S
C249 C251 1.363 . S
C250 C240 1.465 . S
C250 U246 2.847 1_655 S
C250 O264 1.249 . S
C250 O265 1.202 . S
C251 C249 1.363 . S
C251 C253 1.408 . S
C251 C256 1.342 . S
C252 C253 1.310 . S
C252 C255 1.461 . S
C252 H272 0.932 . S
C253 C251 1.408 . S
C253 C252 1.310 . S
C253 H273 0.930 . S
C254 C255 1.474 . S
C254 C256 1.285 . S
C254 H274 0.929 . S
C255 C252 1.461 . S
C255 C254 1.474 . S
C256 C251 1.342 . S
C256 C254 1.285 . S
C256 H275 0.930 . S
C257 C260 1.424 1_455 S
C257 C262 1.245 . S
C257 C263 1.428 . S
C258 C261 1.260 . S
C258 C262 1.477 . S
C258 H276 0.932 . S
C259 C260 1.384 . S
C259 C261 1.479 1_655 S
C259 H277 0.929 . S
C260 C257 1.424 1_655 S
C260 C259 1.384 . S
C260 H278 0.928 . S
C261 C258 1.260 . S
C261 C259 1.479 1_455 S
C262 C257 1.245 . S
C262 C258 1.477 . S
C262 H279 0.932 . S
C263 U246 2.882 . S
C263 C257 1.428 . S
C263 O266 1.301 . S
C263 O267 1.282 1_455 S
O264 U246 2.441 1_655 S
O264 C250 1.249 . S
O265 U246 2.420 1_655 S
O265 C250 1.202 . S
O266 U246 2.455 . S
O266 C263 1.301 . S
O267 U246 2.449 1_655 S
O267 C263 1.282 1_655 S
H268 C241 0.931 . S
H269 C243 0.929 . S
H270 C244 0.930 . S
H271 C245 0.931 . S
H272 C252 0.932 . S
H273 C253 0.930 . S
H274 C254 0.929 . S
H275 C256 0.930 . S
H276 C258 0.932 . S
H277 C259 0.929 . S
H278 C260 0.928 . S
H279 C262 0.932 . S
C280 C281 1.264 . S
C280 C285 1.479 . S
C280 C290 1.465 . S
C281 C280 1.264 . S
C281 C283 1.339 . S
C281 H308 0.931 . S
C282 C283 1.395 . S
C282 C284 1.320 . S
C283 C281 1.339 . S
C283 C282 1.395 . S
C283 H309 0.929 . S
C284 C282 1.320 . S
C284 C285 1.405 . S
C284 H310 0.930 . S
C285 C280 1.479 . S
C285 C284 1.405 . S
C285 H311 0.931 . S
U286 O287 2.454 . S
U286 O288 2.458 . S
U286 C289 2.984 . S
U286 C290 2.847 1_545 S
U286 C303 2.882 1_545 S
U286 O304 2.441 1_545 S
U286 O305 2.420 1_545 S
U286 O306 2.455 . S
U286 O307 2.449 1_545 S
O287 U286 2.454 . S
O287 C289 1.353 . S
O288 U286 2.458 . S
O288 C289 1.286 . S
C289 U286 2.984 . S
C289 O287 1.353 . S
C289 O288 1.286 . S
C289 C291 1.363 . S
C290 C280 1.465 . S
C290 U286 2.847 1_565 S
C290 O304 1.249 . S
C290 O305 1.202 . S
C291 C289 1.363 . S
C291 C293 1.408 . S
C291 C296 1.342 . S
C292 C293 1.310 . S
C292 C295 1.461 . S
C292 H312 0.932 . S
C293 C291 1.408 . S
C293 C292 1.310 . S
C293 H313 0.930 . S
C294 C295 1.474 . S
C294 C296 1.285 . S
C294 H314 0.929 . S
C295 C292 1.461 . S
C295 C294 1.474 . S
C296 C291 1.342 . S
C296 C294 1.285 . S
C296 H315 0.930 . S
C297 C300 1.424 . S
C297 C302 1.245 1_565 S
C297 C303 1.428 . S
C298 C301 1.260 . S
C298 C302 1.477 . S
C298 H316 0.932 . S
C299 C300 1.384 . S
C299 C301 1.479 1_565 S
C299 H317 0.929 . S
C300 C297 1.424 . S
C300 C299 1.384 . S
C300 H318 0.928 . S
C301 C298 1.260 . S
C301 C299 1.479 1_545 S
C302 C297 1.245 1_545 S
C302 C298 1.477 . S
C302 H319 0.932 . S
C303 U286 2.882 1_565 S
C303 C297 1.428 . S
C303 O306 1.301 1_565 S
C303 O307 1.282 . S
O304 U286 2.441 1_565 S
O304 C290 1.249 . S
O305 U286 2.420 1_565 S
O305 C290 1.202 . S
O306 U286 2.455 . S
O306 C303 1.301 1_545 S
O307 U286 2.449 1_565 S
O307 C303 1.282 . S
H308 C281 0.931 . S
H309 C283 0.929 . S
H310 C284 0.930 . S
H311 C285 0.931 . S
H312 C292 0.932 . S
H313 C293 0.930 . S
H314 C294 0.929 . S
H315 C296 0.930 . S
H316 C298 0.932 . S
H317 C299 0.929 . S
H318 C300 0.928 . S
H319 C302 0.932 . S
C320 C321 1.264 . S
C320 C325 1.479 . S
C320 C330 1.465 . S
C321 C320 1.264 . S
C321 C323 1.339 . S
C321 H348 0.931 . S
C322 C323 1.395 . S
C322 C324 1.320 . S
C323 C321 1.339 . S
C323 C322 1.395 . S
C323 H349 0.929 . S
C324 C322 1.320 . S
C324 C325 1.405 . S
C324 H350 0.930 . S
C325 C320 1.479 . S
C325 C324 1.405 . S
C325 H351 0.931 . S
U326 O327 2.454 . S
U326 O328 2.458 . S
U326 C329 2.984 . S
U326 C330 2.847 . S
U326 C343 2.882 . S
U326 O344 2.441 . S
U326 O345 2.420 . S
U326 O346 2.455 . S
U326 O347 2.449 . S
O327 U326 2.454 . S
O327 C329 1.353 . S
O328 U326 2.458 . S
O328 C329 1.286 . S
C329 U326 2.984 . S
C329 O327 1.353 . S
C329 O328 1.286 . S
C329 C331 1.363 . S
C330 C320 1.465 . S
C330 U326 2.847 . S
C330 O344 1.249 . S
C330 O345 1.202 . S
C331 C329 1.363 . S
C331 C333 1.408 . S
C331 C336 1.342 . S
C332 C333 1.310 . S
C332 C335 1.461 . S
C332 H352 0.932 . S
C333 C331 1.408 . S
C333 C332 1.310 . S
C333 H353 0.930 . S
C334 C335 1.474 . S
C334 C336 1.285 . S
C334 H354 0.929 . S
C335 C332 1.461 . S
C335 C334 1.474 . S
C336 C331 1.342 . S
C336 C334 1.285 . S
C336 H355 0.930 . S
C337 C340 1.424 . S
C337 C342 1.245 . S
C337 C343 1.428 . S
C338 C341 1.281 . S
C338 C342 1.438 1_556 S
C338 H356 0.954 . S
C339 C340 1.384 . S
C339 C341 1.479 1_554 S
C339 H357 0.929 1_554 S
C340 C337 1.424 . S
C340 C339 1.384 . S
C340 H358 0.928 . S
C341 C338 1.281 . S
C341 C339 1.479 1_556 S
C342 C337 1.245 . S
C342 C338 1.438 1_554 S
C342 H359 0.932 . S
C343 U326 2.882 . S
C343 C337 1.428 . S
C343 O346 1.301 . S
C343 O347 1.282 . S
O344 U326 2.441 . S
O344 C330 1.249 . S
O345 U326 2.420 . S
O345 C330 1.202 . S
O346 U326 2.455 . S
O346 C343 1.301 . S
O347 U326 2.449 . S
O347 C343 1.282 . S
H348 C321 0.931 . S
H349 C323 0.929 . S
H350 C324 0.930 . S
H351 C325 0.931 . S
H352 C332 0.932 . S
H353 C333 0.930 . S
H354 C334 0.929 . S
H355 C336 0.930 . S
H356 C338 0.954 . S
H357 C339 0.929 1_556 S
H358 C340 0.928 . S
H359 C342 0.932 . S
C360 C361 1.363 . S
C360 C366 1.379 . S
C360 N368 1.356 . S
C361 C360 1.363 . S
C361 C367 1.363 . S
C362 C363 1.363 . S
C362 C367 1.379 . S
C362 N369 1.356 . S
C363 C362 1.363 . S
C363 C366 1.363 . S
N364 C366 1.356 . S
N364 H376 0.984 . S
N364 H377 0.985 . S
N365 C367 1.356 . S
N365 H370 0.984 . S
N365 H371 0.985 . S
C366 C360 1.379 . S
C366 C363 1.363 . S
C366 N364 1.356 . S
C367 C361 1.363 . S
C367 C362 1.379 . S
C367 N365 1.356 . S
N368 C360 1.356 . S
N368 H374 0.984 . S
N368 H375 0.984 . S
N369 C362 1.356 . S
N369 H372 0.984 . S
N369 H373 0.985 . S
H370 N365 0.984 . S
H371 N365 0.985 . S
H372 N369 0.984 . S
H373 N369 0.985 . S
H374 N368 0.984 . S
H375 N368 0.984 . S
H376 N364 0.984 . S
H377 N364 0.985 . S
C378 C379 1.363 . S
C378 C384 1.379 . S
C378 N386 1.356 . S
C379 C378 1.363 . S
C379 C385 1.363 . S
C380 C381 1.363 . S
C380 C385 1.379 . S
C380 N387 1.356 . S
C381 C380 1.363 . S
C381 C384 1.363 . S
N382 C384 1.356 . S
N382 H394 0.984 . S
N382 H395 0.985 . S
N383 C385 1.356 . S
N383 H388 0.984 . S
N383 H389 0.985 . S
C384 C378 1.379 . S
C384 C381 1.363 . S
C384 N382 1.356 . S
C385 C379 1.363 . S
C385 C380 1.379 . S
C385 N383 1.356 . S
N386 C378 1.356 . S
N386 H392 0.984 . S
N386 H393 0.984 . S
N387 C380 1.356 . S
N387 H390 0.984 . S
N387 H391 0.985 . S
H388 N383 0.984 . S
H389 N383 0.985 . S
H390 N387 0.984 . S
H391 N387 0.985 . S
H392 N386 0.984 . S
H393 N386 0.984 . S
H394 N382 0.984 . S
H395 N382 0.985 . S
C396 C397 1.363 . S
C396 C402 1.379 . S
C396 N404 1.356 . S
C397 C396 1.363 . S
C397 C403 1.363 . S
C398 C399 1.363 . S
C398 C403 1.379 . S
C398 N405 1.356 . S
C399 C398 1.363 . S
C399 C402 1.363 . S
N400 C402 1.356 . S
N400 H412 0.984 . S
N400 H413 0.985 . S
N401 C403 1.356 . S
N401 H406 0.984 . S
N401 H407 0.985 . S
C402 C396 1.379 . S
C402 C399 1.363 . S
C402 N400 1.356 . S
C403 C397 1.363 . S
C403 C398 1.379 . S
C403 N401 1.356 . S
N404 C396 1.356 . S
N404 H410 0.984 . S
N404 H411 0.984 . S
N405 C398 1.356 . S
N405 H408 0.984 . S
N405 H409 0.985 . S
H406 N401 0.984 . S
H407 N401 0.985 . S
H408 N405 0.984 . S
H409 N405 0.985 . S
H410 N404 0.984 . S
H411 N404 0.984 . S
H412 N400 0.984 . S
H413 N400 0.985 . S
C414 C415 1.363 . S
C414 C420 1.379 . S
C414 N422 1.356 . S
C415 C414 1.363 . S
C415 C421 1.363 . S
C416 C417 1.363 . S
C416 C421 1.379 . S
C416 N423 1.356 . S
C417 C416 1.363 . S
C417 C420 1.363 . S
N418 C420 1.356 . S
N418 H430 0.984 . S
N418 H431 0.985 . S
N419 C421 1.356 . S
N419 H424 0.984 . S
N419 H425 0.985 . S
C420 C414 1.379 . S
C420 C417 1.363 . S
C420 N418 1.356 . S
C421 C415 1.363 . S
C421 C416 1.379 . S
C421 N419 1.356 . S
N422 C414 1.356 . S
N422 H428 0.984 . S
N422 H429 0.984 . S
N423 C416 1.356 . S
N423 H426 0.984 . S
N423 H427 0.985 . S
H424 N419 0.984 . S
H425 N419 0.985 . S
H426 N423 0.984 . S
H427 N423 0.985 . S
H428 N422 0.984 . S
H429 N422 0.984 . S
H430 N418 0.984 . S
H431 N418 0.985 . S
C432 C433 1.363 . S
C432 C438 1.379 . S
C432 N440 1.356 . S
C433 C432 1.363 . S
C433 C439 1.363 . S
C434 C435 1.363 . S
C434 C439 1.379 . S
C434 N441 1.356 . S
C435 C434 1.363 . S
C435 C438 1.363 . S
N436 C438 1.356 . S
N436 H448 0.984 . S
N436 H449 0.985 . S
N437 C439 1.356 . S
N437 H442 0.984 . S
N437 H443 0.985 . S
C438 C432 1.379 . S
C438 C435 1.363 . S
C438 N436 1.356 . S
C439 C433 1.363 . S
C439 C434 1.379 . S
C439 N437 1.356 . S
N440 C432 1.356 . S
N440 H446 0.984 . S
N440 H447 0.984 . S
N441 C434 1.356 . S
N441 H444 0.984 . S
N441 H445 0.985 . S
H442 N437 0.984 . S
H443 N437 0.985 . S
H444 N441 0.984 . S
H445 N441 0.985 . S
H446 N440 0.984 . S
H447 N440 0.984 . S
H448 N436 0.984 . S
H449 N436 0.985 . S
C450 C451 1.363 . S
C450 C456 1.379 . S
C450 N458 1.356 . S
C451 C450 1.363 . S
C451 C457 1.363 . S
C452 C453 1.363 . S
C452 C457 1.379 . S
C452 N459 1.356 . S
C453 C452 1.363 . S
C453 C456 1.363 . S
N454 C456 1.356 . S
N454 H466 0.984 . S
N454 H467 0.985 . S
N455 C457 1.356 . S
N455 H460 0.984 . S
N455 H461 0.985 . S
C456 C450 1.379 . S
C456 C453 1.363 . S
C456 N454 1.356 . S
C457 C451 1.363 . S
C457 C452 1.379 . S
C457 N455 1.356 . S
N458 C450 1.356 . S
N458 H464 0.984 . S
N458 H465 0.984 . S
N459 C452 1.356 . S
N459 H462 0.984 . S
N459 H463 0.985 . S
H460 N455 0.984 . S
H461 N455 0.985 . S
H462 N459 0.984 . S
H463 N459 0.985 . S
H464 N458 0.984 . S
H465 N458 0.984 . S
H466 N454 0.984 . S
H467 N454 0.985 . S
C468 C469 1.363 . S
C468 C474 1.379 . S
C468 N476 1.356 . S
C469 C468 1.363 . S
C469 C475 1.363 . S
C470 C471 1.363 . S
C470 C475 1.379 . S
C470 N477 1.356 . S
C471 C470 1.363 . S
C471 C474 1.363 . S
N472 C474 1.356 . S
N472 H484 0.984 . S
N472 H485 0.985 . S
N473 C475 1.356 . S
N473 H478 0.984 . S
N473 H479 0.985 . S
C474 C468 1.379 . S
C474 C471 1.363 . S
C474 N472 1.356 . S
C475 C469 1.363 . S
C475 C470 1.379 . S
C475 N473 1.356 . S
N476 C468 1.356 . S
N476 H482 0.984 . S
N476 H483 0.984 . S
N477 C470 1.356 . S
N477 H480 0.984 . S
N477 H481 0.985 . S
H478 N473 0.984 . S
H479 N473 0.985 . S
H480 N477 0.984 . S
H481 N477 0.985 . S
H482 N476 0.984 . S
H483 N476 0.984 . S
H484 N472 0.984 . S
H485 N472 0.985 . S
C486 C487 1.363 . S
C486 C492 1.379 . S
C486 N494 1.356 . S
C487 C486 1.363 . S
C487 C493 1.363 . S
C488 C489 1.363 . S
C488 C493 1.379 . S
C488 N495 1.356 . S
C489 C488 1.363 . S
C489 C492 1.363 . S
N490 C492 1.356 . S
N490 H502 0.984 . S
N490 H503 0.985 . S
N491 C493 1.356 . S
N491 H496 0.984 . S
N491 H497 0.985 . S
C492 C486 1.379 . S
C492 C489 1.363 . S
C492 N490 1.356 . S
C493 C487 1.363 . S
C493 C488 1.379 . S
C493 N491 1.356 . S
N494 C486 1.356 . S
N494 H500 0.984 . S
N494 H501 0.984 . S
N495 C488 1.356 . S
N495 H498 0.984 . S
N495 H499 0.985 . S
H496 N491 0.984 . S
H497 N491 0.985 . S
H498 N495 0.984 . S
H499 N495 0.985 . S
H500 N494 0.984 . S
H501 N494 0.984 . S
H502 N490 0.984 . S
H503 N490 0.985 . S
C504 C505 1.363 . S
C504 C510 1.379 . S
C504 N512 1.356 . S
C505 C504 1.363 . S
C505 C511 1.363 . S
C506 C507 1.363 . S
C506 C511 1.379 . S
C506 N513 1.356 . S
C507 C506 1.363 . S
C507 C510 1.363 . S
N508 C510 1.356 . S
N508 H520 0.984 . S
N508 H521 0.985 . S
N509 C511 1.356 . S
N509 H514 0.984 . S
N509 H515 0.985 . S
C510 C504 1.379 . S
C510 C507 1.363 . S
C510 N508 1.356 . S
C511 C505 1.363 . S
C511 C506 1.379 . S
C511 N509 1.356 . S
N512 C504 1.356 . S
N512 H518 0.984 . S
N512 H519 0.984 . S
N513 C506 1.356 . S
N513 H516 0.984 . S
N513 H517 0.985 . S
H514 N509 0.984 . S
H515 N509 0.985 . S
H516 N513 0.984 . S
H517 N513 0.985 . S
H518 N512 0.984 . S
H519 N512 0.984 . S
H520 N508 0.984 . S
H521 N508 0.985 . S
C522 C523 1.363 . S
C522 C528 1.379 . S
C522 N530 1.356 . S
C523 C522 1.363 . S
C523 C529 1.363 . S
C524 C525 1.363 . S
C524 C529 1.379 . S
C524 N531 1.356 . S
C525 C524 1.363 . S
C525 C528 1.363 . S
N526 C528 1.356 . S
N526 H538 0.984 . S
N526 H539 0.985 . S
N527 C529 1.356 . S
N527 H532 0.984 . S
N527 H533 0.985 . S
C528 C522 1.379 . S
C528 C525 1.363 . S
C528 N526 1.356 . S
C529 C523 1.363 . S
C529 C524 1.379 . S
C529 N527 1.356 . S
N530 C522 1.356 . S
N530 H536 0.984 . S
N530 H537 0.984 . S
N531 C524 1.356 . S
N531 H534 0.984 . S
N531 H535 0.985 . S
H532 N527 0.984 . S
H533 N527 0.985 . S
H534 N531 0.984 . S
H535 N531 0.985 . S
H536 N530 0.984 . S
H537 N530 0.984 . S
H538 N526 0.984 . S
H539 N526 0.985 . S
C540 C541 1.363 . S
C540 C546 1.379 . S
C540 N548 1.356 . S
C541 C540 1.363 . S
C541 C547 1.363 . S
C542 C543 1.363 . S
C542 C547 1.379 . S
C542 N549 1.356 . S
C543 C542 1.363 . S
C543 C546 1.363 . S
N544 C546 1.356 . S
N544 H556 0.984 . S
N544 H557 0.985 . S
N545 C547 1.356 . S
N545 H550 0.984 . S
N545 H551 0.985 . S
C546 C540 1.379 . S
C546 C543 1.363 . S
C546 N544 1.356 . S
C547 C541 1.363 . S
C547 C542 1.379 . S
C547 N545 1.356 . S
N548 C540 1.356 . S
N548 H554 0.984 . S
N548 H555 0.984 . S
N549 C542 1.356 . S
N549 H552 0.984 . S
N549 H553 0.985 . S
H550 N545 0.984 . S
H551 N545 0.985 . S
H552 N549 0.984 . S
H553 N549 0.985 . S
H554 N548 0.984 . S
H555 N548 0.984 . S
H556 N544 0.984 . S
H557 N544 0.985 . S
C558 C559 1.363 . S
C558 C564 1.379 . S
C558 N566 1.356 . S
C559 C558 1.363 . S
C559 C565 1.363 . S
C560 C561 1.363 . S
C560 C565 1.379 . S
C560 N567 1.356 . S
C561 C560 1.363 . S
C561 C564 1.363 . S
N562 C564 1.356 . S
N562 H574 0.984 . S
N562 H575 0.985 . S
N563 C565 1.356 . S
N563 H568 0.984 . S
N563 H569 0.985 . S
C564 C558 1.379 . S
C564 C561 1.363 . S
C564 N562 1.356 . S
C565 C559 1.363 . S
C565 C560 1.379 . S
C565 N563 1.356 . S
N566 C558 1.356 . S
N566 H572 0.984 . S
N566 H573 0.984 . S
N567 C560 1.356 . S
N567 H570 0.984 . S
N567 H571 0.985 . S
H568 N563 0.984 . S
H569 N563 0.985 . S
H570 N567 0.984 . S
H571 N567 0.985 . S
H572 N566 0.984 . S
H573 N566 0.984 . S
H574 N562 0.984 . S
H575 N562 0.985 . S
C576 C577 1.363 . S
C576 C582 1.379 . S
C576 N584 1.356 1_455 S
C577 C576 1.363 . S
C577 C583 1.363 . S
C578 C579 1.363 . S
C578 C583 1.379 . S
C578 N585 1.356 . S
C579 C578 1.363 . S
C579 C582 1.363 . S
N580 C582 1.356 . S
N580 H592 0.984 . S
N580 H593 0.985 . S
N581 C583 1.356 . S
N581 H586 0.984 . S
N581 H587 0.985 . S
C582 C576 1.379 . S
C582 C579 1.363 . S
C582 N580 1.356 . S
C583 C577 1.363 . S
C583 C578 1.379 . S
C583 N581 1.356 . S
N584 C576 1.356 1_655 S
N584 H590 0.984 . S
N584 H591 0.984 . S
N585 C578 1.356 . S
N585 H588 0.984 . S
N585 H589 0.985 . S
H586 N581 0.984 . S
H587 N581 0.985 . S
H588 N585 0.984 . S
H589 N585 0.985 . S
H590 N584 0.984 . S
H591 N584 0.984 . S
H592 N580 0.984 . S
H593 N580 0.985 . S
C594 C595 1.363 . S
C594 C600 1.379 . S
C594 N602 1.356 . S
C595 C594 1.363 . S
C595 C601 1.363 1_545 S
C596 C597 1.363 1_565 S
C596 C601 1.379 . S
C596 N603 1.356 . S
C597 C596 1.363 1_545 S
C597 C600 1.363 . S
N598 C600 1.356 . S
N598 H610 0.984 . S
N598 H611 0.985 . S
N599 C601 1.356 . S
N599 H604 0.984 . S
N599 H605 0.985 . S
C600 C594 1.379 . S
C600 C597 1.363 . S
C600 N598 1.356 . S
C601 C595 1.363 1_565 S
C601 C596 1.379 . S
C601 N599 1.356 . S
N602 C594 1.356 . S
N602 H608 0.984 . S
N602 H609 0.984 . S
N603 C596 1.356 . S
N603 H606 0.984 . S
N603 H607 0.985 . S
H604 N599 0.984 . S
H605 N599 0.985 . S
H606 N603 0.984 . S
H607 N603 0.985 . S
H608 N602 0.984 . S
H609 N602 0.984 . S
H610 N598 0.984 . S
H611 N598 0.985 . S
C612 C613 1.363 . S
C612 C618 1.379 . S
C612 N620 1.356 . S
C613 C612 1.363 . S
C613 C619 1.363 . S
C614 C615 1.363 . S
C614 C619 1.379 . S
C614 N621 1.356 . S
C615 C614 1.363 . S
C615 C618 1.363 . S
N616 C618 1.356 . S
N616 H628 0.984 . S
N616 H629 0.985 . S
N617 C619 1.356 . S
N617 H622 0.984 . S
N617 H623 0.985 . S
C618 C612 1.379 . S
C618 C615 1.363 . S
C618 N616 1.356 . S
C619 C613 1.363 . S
C619 C614 1.379 . S
C619 N617 1.356 . S
N620 C612 1.356 . S
N620 H626 0.984 . S
N620 H627 0.984 . S
N621 C614 1.356 . S
N621 H624 0.984 . S
N621 H625 0.985 . S
H622 N617 0.984 . S
H623 N617 0.985 . S
H624 N621 0.984 . S
H625 N621 0.985 . S
H626 N620 0.984 . S
H627 N620 0.984 . S
H628 N616 0.984 . S
H629 N616 0.985 . S
C630 C631 1.363 . S
C630 C636 1.379 . S
C630 N638 1.356 . S
C631 C630 1.363 . S
C631 C637 1.363 1_545 S
C632 C633 1.363 1_565 S
C632 C637 1.379 . S
C632 N639 1.356 . S
C633 C632 1.363 1_545 S
C633 C636 1.363 . S
N634 C636 1.356 . S
N634 H646 0.984 . S
N634 H647 0.985 . S
N635 C637 1.356 . S
N635 H640 0.984 . S
N635 H641 0.985 . S
C636 C630 1.379 . S
C636 C633 1.363 . S
C636 N634 1.356 . S
C637 C631 1.363 1_565 S
C637 C632 1.379 . S
C637 N635 1.356 . S
N638 C630 1.356 . S
N638 H644 0.984 . S
N638 H645 0.984 . S
N639 C632 1.356 . S
N639 H642 0.984 . S
N639 H643 0.985 . S
H640 N635 0.984 . S
H641 N635 0.985 . S
H642 N639 0.984 . S
H643 N639 0.985 . S
H644 N638 0.984 . S
H645 N638 0.984 . S
H646 N634 0.984 . S
H647 N634 0.985 . S
C648 C649 1.363 . S
C648 C654 1.379 . S
C648 N656 1.356 . S
C649 C648 1.363 . S
C649 C655 1.363 . S
C650 C651 1.363 . S
C650 C655 1.379 . S
C650 N657 1.356 . S
C651 C650 1.363 . S
C651 C654 1.363 . S
N652 C654 1.356 . S
N652 H664 0.984 . S
N652 H665 0.985 . S
N653 C655 1.356 . S
N653 H658 0.984 . S
N653 H659 0.985 . S
C654 C648 1.379 . S
C654 C651 1.363 . S
C654 N652 1.356 . S
C655 C649 1.363 . S
C655 C650 1.379 . S
C655 N653 1.356 . S
N656 C648 1.356 . S
N656 H662 0.984 . S
N656 H663 0.984 . S
N657 C650 1.356 . S
N657 H660 0.984 . S
N657 H661 0.985 . S
H658 N653 0.984 . S
H659 N653 0.985 . S
H660 N657 0.984 . S
H661 N657 0.985 . S
H662 N656 0.984 . S
H663 N656 0.984 . S
H664 N652 0.984 . S
H665 N652 0.985 . S
C666 C667 1.361 . S
C666 C672 1.379 . S
C666 N674 1.356 . S
C667 C666 1.361 . S
C667 C673 1.365 1_655 S
C668 C669 1.363 . S
C668 C673 1.379 . S
C668 N675 1.356 . S
C669 C668 1.363 . S
C669 C672 1.363 1_455 S
N670 C672 1.356 . S
N670 H682 0.984 . S
N670 H683 0.985 . S
N671 C673 1.356 . S
N671 H676 0.984 . S
N671 H677 0.985 . S
C672 C666 1.379 . S
C672 C669 1.363 1_655 S
C672 N670 1.356 . S
C673 C667 1.365 1_455 S
C673 C668 1.379 . S
C673 N671 1.356 . S
N674 C666 1.356 . S
N674 H680 0.984 . S
N674 H681 0.984 . S
N675 C668 1.356 . S
N675 H678 0.984 . S
N675 H679 0.985 . S
H676 N671 0.984 . S
H677 N671 0.985 . S
H678 N675 0.984 . S
H679 N675 0.985 . S
H680 N674 0.984 . S
H681 N674 0.984 . S
H682 N670 0.984 . S
H683 N670 0.985 . S
C361 C12 3.112 . S
C363 C335 3.026 . S
C379 C52 3.092 . S
C381 C242 3.031 . S
C397 C111 3.148 . S
C399 C282 3.081 . S
C415 C31 3.293 . S
C417 C322 3.217 . S
C435 C255 3.209 . S
C433 C71 3.315 . S
C453 C295 3.154 . S
C451 C92 3.257 . S
C469 C48 0.686 . S
C471 C162 0.686 . S
C487 C109 0.699 . S
C489 C202 0.683 . S
C505 C29 0.678 . S
C507 C135 0.636 . S
C525 C175 0.496 . S
C523 C69 0.552 . S
C543 C215 0.435 . S
C541 C88 0.412 . S
C559 C8 0.395 . S
C561 C122 0.352 . S
C579 C221 1.058 . S
C577 C17 1.083 1_455 S
C595 C57 1.085 . S
C597 C141 1.090 . S
C613 C97 1.084 . S
C615 C181 1.060 . S
C633 C301 1.796 . S
C631 C42 1.736 . S
C651 C341 1.783 . S
C649 C82 1.746 . S
C667 C2 1.754 1_655 S
C669 C261 1.790 . S
