# Generated by pormake.
# Topology gar, (4,6)-cn, num edge types: 1
# Building blocks:
#     Node 0, Type 0, BuildingBlock: QUQFOY_clean_sbu_1, # of connection points: 4
#     Node 1, Type 0, BuildingBlock: QUQFOY_clean_sbu_1, # of connection points: 4
#     Node 2, Type 0, BuildingBlock: QUQFOY_clean_sbu_1, # of connection points: 4
#     Node 3, Type 0, BuildingBlock: QUQFOY_clean_sbu_1, # of connection points: 4
#     Node 4, Type 0, BuildingBlock: QUQFOY_clean_sbu_1, # of connection points: 4
#     Node 5, Type 0, BuildingBlock: QUQFOY_clean_sbu_1, # of connection points: 4
#     Node 6, Type 0, BuildingBlock: QUQFOY_clean_sbu_1, # of connection points: 4
#     Node 7, Type 0, BuildingBlock: QUQFOY_clean_sbu_1, # of connection points: 4
#     Node 8, Type 0, BuildingBlock: QUQFOY_clean_sbu_1, # of connection points: 4
#     Node 9, Type 0, BuildingBlock: QUQFOY_clean_sbu_1, # of connection points: 4
#     Node 10, Type 0, BuildingBlock: QUQFOY_clean_sbu_1, # of connection points: 4
#     Node 11, Type 0, BuildingBlock: QUQFOY_clean_sbu_1, # of connection points: 4
#     Node 12, Type 0, BuildingBlock: QUQFOY_clean_sbu_1, # of connection points: 4
#     Node 13, Type 0, BuildingBlock: QUQFOY_clean_sbu_1, # of connection points: 4
#     Node 14, Type 0, BuildingBlock: QUQFOY_clean_sbu_1, # of connection points: 4
#     Node 15, Type 0, BuildingBlock: QUQFOY_clean_sbu_1, # of connection points: 4
#     Node 16, Type 0, BuildingBlock: QUQFOY_clean_sbu_1, # of connection points: 4
#     Node 17, Type 0, BuildingBlock: QUQFOY_clean_sbu_1, # of connection points: 4
#     Node 18, Type 0, BuildingBlock: QUQFOY_clean_sbu_1, # of connection points: 4
#     Node 19, Type 0, BuildingBlock: QUQFOY_clean_sbu_1, # of connection points: 4
#     Node 20, Type 0, BuildingBlock: QUQFOY_clean_sbu_1, # of connection points: 4
#     Node 21, Type 0, BuildingBlock: QUQFOY_clean_sbu_1, # of connection points: 4
#     Node 22, Type 0, BuildingBlock: QUQFOY_clean_sbu_1, # of connection points: 4
#     Node 23, Type 0, BuildingBlock: QUQFOY_clean_sbu_1, # of connection points: 4
#     Node 24, Type 1, BuildingBlock: BETGAK_clean_sbu_0, # of connection points: 6
#     Node 25, Type 1, BuildingBlock: BETGAK_clean_sbu_0, # of connection points: 6
#     Node 26, Type 1, BuildingBlock: BETGAK_clean_sbu_0, # of connection points: 6
#     Node 27, Type 1, BuildingBlock: BETGAK_clean_sbu_0, # of connection points: 6
#     Node 28, Type 1, BuildingBlock: BETGAK_clean_sbu_0, # of connection points: 6
#     Node 29, Type 1, BuildingBlock: BETGAK_clean_sbu_0, # of connection points: 6
#     Node 30, Type 1, BuildingBlock: BETGAK_clean_sbu_0, # of connection points: 6
#     Node 31, Type 1, BuildingBlock: BETGAK_clean_sbu_0, # of connection points: 6
#     Node 32, Type 1, BuildingBlock: BETGAK_clean_sbu_0, # of connection points: 6
#     Node 33, Type 1, BuildingBlock: BETGAK_clean_sbu_0, # of connection points: 6
#     Node 34, Type 1, BuildingBlock: BETGAK_clean_sbu_0, # of connection points: 6
#     Node 35, Type 1, BuildingBlock: BETGAK_clean_sbu_0, # of connection points: 6
#     Node 36, Type 1, BuildingBlock: BETGAK_clean_sbu_0, # of connection points: 6
#     Node 37, Type 1, BuildingBlock: BETGAK_clean_sbu_0, # of connection points: 6
#     Node 38, Type 1, BuildingBlock: BETGAK_clean_sbu_0, # of connection points: 6
#     Node 39, Type 1, BuildingBlock: BETGAK_clean_sbu_0, # of connection points: 6
#     Edge 40, Type (0, 1), BuildingBlock: XUDNAN_clean_linker_2, # of connection points: 2
#     Edge 41, Type (0, 1), BuildingBlock: XUDNAN_clean_linker_2, # of connection points: 2
#     Edge 42, Type (0, 1), BuildingBlock: XUDNAN_clean_linker_2, # of connection points: 2
#     Edge 43, Type (0, 1), BuildingBlock: XUDNAN_clean_linker_2, # of connection points: 2
#     Edge 44, Type (0, 1), BuildingBlock: XUDNAN_clean_linker_2, # of connection points: 2
#     Edge 45, Type (0, 1), BuildingBlock: XUDNAN_clean_linker_2, # of connection points: 2
#     Edge 46, Type (0, 1), BuildingBlock: XUDNAN_clean_linker_2, # of connection points: 2
#     Edge 47, Type (0, 1), BuildingBlock: XUDNAN_clean_linker_2, # of connection points: 2
#     Edge 48, Type (0, 1), BuildingBlock: XUDNAN_clean_linker_2, # of connection points: 2
#     Edge 49, Type (0, 1), BuildingBlock: XUDNAN_clean_linker_2, # of connection points: 2
#     Edge 50, Type (0, 1), BuildingBlock: XUDNAN_clean_linker_2, # of connection points: 2
#     Edge 51, Type (0, 1), BuildingBlock: XUDNAN_clean_linker_2, # of connection points: 2
#     Edge 52, Type (0, 1), BuildingBlock: XUDNAN_clean_linker_2, # of connection points: 2
#     Edge 53, Type (0, 1), BuildingBlock: XUDNAN_clean_linker_2, # of connection points: 2
#     Edge 54, Type (0, 1), BuildingBlock: XUDNAN_clean_linker_2, # of connection points: 2
#     Edge 55, Type (0, 1), BuildingBlock: XUDNAN_clean_linker_2, # of connection points: 2
#     Edge 56, Type (0, 1), BuildingBlock: XUDNAN_clean_linker_2, # of connection points: 2
#     Edge 57, Type (0, 1), BuildingBlock: XUDNAN_clean_linker_2, # of connection points: 2
#     Edge 58, Type (0, 1), BuildingBlock: XUDNAN_clean_linker_2, # of connection points: 2
#     Edge 59, Type (0, 1), BuildingBlock: XUDNAN_clean_linker_2, # of connection points: 2
#     Edge 60, Type (0, 1), BuildingBlock: XUDNAN_clean_linker_2, # of connection points: 2
#     Edge 61, Type (0, 1), BuildingBlock: XUDNAN_clean_linker_2, # of connection points: 2
#     Edge 62, Type (0, 1), BuildingBlock: XUDNAN_clean_linker_2, # of connection points: 2
#     Edge 63, Type (0, 1), BuildingBlock: XUDNAN_clean_linker_2, # of connection points: 2
#     Edge 64, Type (0, 1), BuildingBlock: XUDNAN_clean_linker_2, # of connection points: 2
#     Edge 65, Type (0, 1), BuildingBlock: XUDNAN_clean_linker_2, # of connection points: 2
#     Edge 66, Type (0, 1), BuildingBlock: XUDNAN_clean_linker_2, # of connection points: 2
#     Edge 67, Type (0, 1), BuildingBlock: XUDNAN_clean_linker_2, # of connection points: 2
#     Edge 68, Type (0, 1), BuildingBlock: XUDNAN_clean_linker_2, # of connection points: 2
#     Edge 69, Type (0, 1), BuildingBlock: XUDNAN_clean_linker_2, # of connection points: 2
#     Edge 70, Type (0, 1), BuildingBlock: XUDNAN_clean_linker_2, # of connection points: 2
#     Edge 71, Type (0, 1), BuildingBlock: XUDNAN_clean_linker_2, # of connection points: 2
#     Edge 72, Type (0, 1), BuildingBlock: XUDNAN_clean_linker_2, # of connection points: 2
#     Edge 73, Type (0, 1), BuildingBlock: XUDNAN_clean_linker_2, # of connection points: 2
#     Edge 74, Type (0, 1), BuildingBlock: XUDNAN_clean_linker_2, # of connection points: 2
#     Edge 75, Type (0, 1), BuildingBlock: XUDNAN_clean_linker_2, # of connection points: 2
#     Edge 76, Type (0, 1), BuildingBlock: XUDNAN_clean_linker_2, # of connection points: 2
#     Edge 77, Type (0, 1), BuildingBlock: XUDNAN_clean_linker_2, # of connection points: 2
#     Edge 78, Type (0, 1), BuildingBlock: XUDNAN_clean_linker_2, # of connection points: 2
#     Edge 79, Type (0, 1), BuildingBlock: XUDNAN_clean_linker_2, # of connection points: 2
#     Edge 80, Type (0, 1), BuildingBlock: XUDNAN_clean_linker_2, # of connection points: 2
#     Edge 81, Type (0, 1), BuildingBlock: XUDNAN_clean_linker_2, # of connection points: 2
#     Edge 82, Type (0, 1), BuildingBlock: XUDNAN_clean_linker_2, # of connection points: 2
#     Edge 83, Type (0, 1), BuildingBlock: XUDNAN_clean_linker_2, # of connection points: 2
#     Edge 84, Type (0, 1), BuildingBlock: XUDNAN_clean_linker_2, # of connection points: 2
#     Edge 85, Type (0, 1), BuildingBlock: XUDNAN_clean_linker_2, # of connection points: 2
#     Edge 86, Type (0, 1), BuildingBlock: XUDNAN_clean_linker_2, # of connection points: 2
#     Edge 87, Type (0, 1), BuildingBlock: XUDNAN_clean_linker_2, # of connection points: 2
#     Edge 88, Type (0, 1), BuildingBlock: XUDNAN_clean_linker_2, # of connection points: 2
#     Edge 89, Type (0, 1), BuildingBlock: XUDNAN_clean_linker_2, # of connection points: 2
#     Edge 90, Type (0, 1), BuildingBlock: XUDNAN_clean_linker_2, # of connection points: 2
#     Edge 91, Type (0, 1), BuildingBlock: XUDNAN_clean_linker_2, # of connection points: 2
#     Edge 92, Type (0, 1), BuildingBlock: XUDNAN_clean_linker_2, # of connection points: 2
#     Edge 93, Type (0, 1), BuildingBlock: XUDNAN_clean_linker_2, # of connection points: 2
#     Edge 94, Type (0, 1), BuildingBlock: XUDNAN_clean_linker_2, # of connection points: 2
#     Edge 95, Type (0, 1), BuildingBlock: XUDNAN_clean_linker_2, # of connection points: 2
#     Edge 96, Type (0, 1), BuildingBlock: XUDNAN_clean_linker_2, # of connection points: 2
#     Edge 97, Type (0, 1), BuildingBlock: XUDNAN_clean_linker_2, # of connection points: 2
#     Edge 98, Type (0, 1), BuildingBlock: XUDNAN_clean_linker_2, # of connection points: 2
#     Edge 99, Type (0, 1), BuildingBlock: XUDNAN_clean_linker_2, # of connection points: 2
#     Edge 100, Type (0, 1), BuildingBlock: XUDNAN_clean_linker_2, # of connection points: 2
#     Edge 101, Type (0, 1), BuildingBlock: XUDNAN_clean_linker_2, # of connection points: 2
#     Edge 102, Type (0, 1), BuildingBlock: XUDNAN_clean_linker_2, # of connection points: 2
#     Edge 103, Type (0, 1), BuildingBlock: XUDNAN_clean_linker_2, # of connection points: 2
#     Edge 104, Type (0, 1), BuildingBlock: XUDNAN_clean_linker_2, # of connection points: 2
#     Edge 105, Type (0, 1), BuildingBlock: XUDNAN_clean_linker_2, # of connection points: 2
#     Edge 106, Type (0, 1), BuildingBlock: XUDNAN_clean_linker_2, # of connection points: 2
#     Edge 107, Type (0, 1), BuildingBlock: XUDNAN_clean_linker_2, # of connection points: 2
#     Edge 108, Type (0, 1), BuildingBlock: XUDNAN_clean_linker_2, # of connection points: 2
#     Edge 109, Type (0, 1), BuildingBlock: XUDNAN_clean_linker_2, # of connection points: 2
#     Edge 110, Type (0, 1), BuildingBlock: XUDNAN_clean_linker_2, # of connection points: 2
#     Edge 111, Type (0, 1), BuildingBlock: XUDNAN_clean_linker_2, # of connection points: 2
#     Edge 112, Type (0, 1), BuildingBlock: XUDNAN_clean_linker_2, # of connection points: 2
#     Edge 113, Type (0, 1), BuildingBlock: XUDNAN_clean_linker_2, # of connection points: 2
#     Edge 114, Type (0, 1), BuildingBlock: XUDNAN_clean_linker_2, # of connection points: 2
#     Edge 115, Type (0, 1), BuildingBlock: XUDNAN_clean_linker_2, # of connection points: 2
#     Edge 116, Type (0, 1), BuildingBlock: XUDNAN_clean_linker_2, # of connection points: 2
#     Edge 117, Type (0, 1), BuildingBlock: XUDNAN_clean_linker_2, # of connection points: 2
#     Edge 118, Type (0, 1), BuildingBlock: XUDNAN_clean_linker_2, # of connection points: 2
#     Edge 119, Type (0, 1), BuildingBlock: XUDNAN_clean_linker_2, # of connection points: 2
#     Edge 120, Type (0, 1), BuildingBlock: XUDNAN_clean_linker_2, # of connection points: 2
#     Edge 121, Type (0, 1), BuildingBlock: XUDNAN_clean_linker_2, # of connection points: 2
#     Edge 122, Type (0, 1), BuildingBlock: XUDNAN_clean_linker_2, # of connection points: 2
#     Edge 123, Type (0, 1), BuildingBlock: XUDNAN_clean_linker_2, # of connection points: 2
#     Edge 124, Type (0, 1), BuildingBlock: XUDNAN_clean_linker_2, # of connection points: 2
#     Edge 125, Type (0, 1), BuildingBlock: XUDNAN_clean_linker_2, # of connection points: 2
#     Edge 126, Type (0, 1), BuildingBlock: XUDNAN_clean_linker_2, # of connection points: 2
#     Edge 127, Type (0, 1), BuildingBlock: XUDNAN_clean_linker_2, # of connection points: 2
#     Edge 128, Type (0, 1), BuildingBlock: XUDNAN_clean_linker_2, # of connection points: 2
#     Edge 129, Type (0, 1), BuildingBlock: XUDNAN_clean_linker_2, # of connection points: 2
#     Edge 130, Type (0, 1), BuildingBlock: XUDNAN_clean_linker_2, # of connection points: 2
#     Edge 131, Type (0, 1), BuildingBlock: XUDNAN_clean_linker_2, # of connection points: 2
#     Edge 132, Type (0, 1), BuildingBlock: XUDNAN_clean_linker_2, # of connection points: 2
#     Edge 133, Type (0, 1), BuildingBlock: XUDNAN_clean_linker_2, # of connection points: 2
#     Edge 134, Type (0, 1), BuildingBlock: XUDNAN_clean_linker_2, # of connection points: 2
#     Edge 135, Type (0, 1), BuildingBlock: XUDNAN_clean_linker_2, # of connection points: 2
# Relax obj value: 0.212
# Max RMSD: 0.321
# Mean RMSD: 0.184
data_MOF--net-gar--node1-QUQFOY_clean_sbu_1--node2-BETGAK_clean_sbu_0--edge1-XUDNAN_clean_linker_2
_symmetry_space_group_name_H-M    P1
_symmetry_Int_Tables_number       1
_symmetry_cell_setting            triclinic
loop_
_symmetry_equiv_pos_as_xyz
'x, y, z'
_cell_length_a     63.561082
_cell_length_b     57.91142
_cell_length_c     58.14773
_cell_angle_alpha  99.000654
_cell_angle_beta   95.648459
_cell_angle_gamma 104.88606
loop_
_atom_site_label
_atom_site_type_symbol
_atom_site_fract_x
_atom_site_fract_y
_atom_site_fract_z
_atom_type_partial_charge
O0 O 0.12387 0.30199 0.40859 0.0
Cd1 Cd 0.13084 0.32417 0.38503 0.0
Cd2 Cd 0.12245 0.35862 0.42369 0.0
O3 O 0.12047 0.32862 0.43858 0.0
O4 O 0.13921 0.30159 0.36162 0.0
O5 O 0.1619 0.33738 0.37879 0.0
C6 C 0.15832 0.31688 0.36453 0.0
C7 C 0.11731 0.38967 0.4513 0.0
C8 C 0.12044 0.30729 0.42953 0.0
C9 C 0.09427 0.34385 0.37445 0.0
O10 O 0.10022 0.35601 0.39516 0.0
O11 O 0.10427 0.329 0.36604 0.0
O12 O 0.1354 0.39318 0.44243 0.0
O13 O 0.10318 0.36891 0.44502 0.0
O14 O 1.00258 0.70873 0.6663 0.0
Cd15 Cd 1.00633 0.7388 0.69129 0.0
Cd16 Cd 1.01744 0.76542 0.65757 0.0
O17 O 1.0034 0.73118 0.63896 0.0
O18 O 0.98368 0.73684 0.71213 0.0
O19 O 0.9873 0.75958 0.68424 0.0
C20 C 0.97704 0.75182 0.70084 0.0
C21 C 0.02141 0.79435 0.63441 0.0
C22 C 1.00078 0.71054 0.6448 0.0
C23 C 0.0513 0.76813 0.69918 0.0
O24 O 0.04608 0.77368 0.6797 0.0
O25 O 0.03732 0.75414 0.70847 0.0
O26 O 0.03261 0.77883 0.63268 0.0
O27 O 1.00701 0.79293 0.64865 0.0
O28 O 0.66522 0.83829 0.90369 0.0
Cd29 Cd 0.63859 0.83815 0.92093 0.0
Cd30 Cd 0.62352 0.84861 0.88138 0.0
O31 O 0.64906 0.83908 0.86862 0.0
O32 O 0.64047 0.81917 0.94607 0.0
O33 O 0.61388 0.80784 0.91526 0.0
C34 C 0.62266 0.80382 0.93467 0.0
C35 C 0.58958 0.83341 0.85978 0.0
C36 C 0.66534 0.8371 0.88172 0.0
C37 C 0.62975 0.88591 0.9243 0.0
O38 O 0.62804 0.88163 0.90207 0.0
O39 O 0.63291 0.87004 0.93596 0.0
O40 O 0.60425 0.85021 0.85355 0.0
O41 O 0.59436 0.82468 0.87808 0.0
O42 O 0.50341 0.2024 0.16305 0.0
Cd43 Cd 0.50623 0.23269 0.18646 0.0
Cd44 Cd 0.52372 0.25669 0.15358 0.0
O45 O 0.51372 0.22191 0.13467 0.0
O46 O 0.48188 0.2286 0.2046 0.0
O47 O 0.48935 0.25576 0.18095 0.0
C48 C 0.4775 0.24631 0.19581 0.0
C49 C 0.53532 0.28552 0.13074 0.0
C50 C 0.5077 0.2023 0.1423 0.0
C51 C 0.5511 0.25934 0.20077 0.0
O52 O 0.54881 0.26516 0.18082 0.0
O53 O 0.53541 0.2452 0.20777 0.0
O54 O 0.54387 0.26789 0.13155 0.0
O55 O 0.51874 0.28605 0.14172 0.0
O56 O 0.09473 0.7807 0.12733 0.0
Cd57 Cd 0.09737 0.81216 0.14966 0.0
Cd58 Cd 0.11948 0.83103 0.11479 0.0
O59 O 0.10965 0.79362 0.0973 0.0
O60 O 0.07694 0.8 0.17223 0.0
O61 O 0.07068 0.82488 0.14894 0.0
C62 C 0.06394 0.81142 0.16393 0.0
C63 C 0.10747 0.86461 0.10254 0.0
C64 C 0.10083 0.77615 0.10742 0.0
C65 C 0.14665 0.8312 0.16187 0.0
O66 O 0.14692 0.83601 0.14111 0.0
O67 O 0.12839 0.82407 0.1695 0.0
O68 O 0.12276 0.857 0.09332 0.0
O69 O 0.09886 0.85308 0.11822 0.0
O70 O 0.56856 0.77801 0.4235 0.0
Cd71 Cd 0.55087 0.77426 0.4516 0.0
Cd72 Cd 0.525 0.79509 0.40501 0.0
O73 O 0.55412 0.78987 0.39219 0.0
O74 O 0.57073 0.76319 0.4751 0.0
O75 O 0.53861 0.73929 0.4582 0.0
C76 C 0.55662 0.74214 0.47205 0.0
C77 C 0.49054 0.79314 0.38111 0.0
C78 C 0.56972 0.7836 0.40316 0.0
C79 C 0.54089 0.82387 0.45861 0.0
O80 O 0.53304 0.81916 0.43681 0.0
O81 O 0.54755 0.80824 0.46857 0.0
O82 O 0.50757 0.81164 0.38373 0.0
O83 O 0.49311 0.77538 0.39102 0.0
O84 O 0.60346 0.2741 0.62597 0.0
Cd85 Cd 0.60739 0.30313 0.65231 0.0
Cd86 Cd 0.63014 0.32838 0.61971 0.0
O87 O 0.62078 0.29205 0.59959 0.0
O88 O 0.58878 0.28743 0.6748 0.0
O89 O 0.57999 0.31502 0.65674 0.0
C90 C 0.57502 0.29957 0.67044 0.0
C91 C 0.61674 0.36163 0.60758 0.0
C92 C 0.61046 0.27272 0.60627 0.0
C93 C 0.65792 0.32352 0.66518 0.0
O94 O 0.65799 0.33236 0.6462 0.0
O95 O 0.63957 0.3128 0.67111 0.0
O96 O 0.63288 0.3553 0.59899 0.0
O97 O 0.60839 0.34945 0.62297 0.0
O98 O 0.03641 0.23715 0.92979 0.0
Cd99 Cd 0.03763 0.26511 0.90967 0.0
Cd100 Cd 0.02419 0.28467 0.95257 0.0
O101 O 0.03329 0.25511 0.96516 0.0
O102 O 0.05487 0.25515 0.88422 0.0
O103 O 0.06857 0.28854 0.91089 0.0
C104 C 0.07144 0.27357 0.89333 0.0
C105 C 0.03887 0.32595 0.97122 0.0
C106 C 0.03656 0.23699 0.9518 0.0
C107 C 0.99285 0.27736 0.90563 0.0
O108 O 0.99572 0.28024 0.92812 0.0
O109 O 1.00797 0.27226 0.89436 0.0
O110 O 0.02354 0.31156 0.97937 0.0
O111 O 0.04691 0.31645 0.95369 0.0
O112 O 0.4666 0.05067 0.28018 0.0
Cd113 Cd 0.45309 0.05613 0.31027 0.0
Cd114 Cd 0.48727 0.0388 0.31664 0.0
O115 O 0.50103 0.05117 0.28995 0.0
O116 O 0.44253 0.08605 0.31478 0.0
O117 O 0.42395 0.05109 0.29209 0.0
C118 C 0.42572 0.07357 0.29958 0.0
C119 C 0.49983 0.04454 0.35452 0.0
C120 C 0.48538 0.05087 0.27458 0.0
C121 C 0.44518 1.00838 0.31669 0.0
O122 O 0.46158 1.00898 0.30604 0.0
O123 O 0.44258 0.02801 0.32728 0.0
O124 O 0.50629 0.02995 0.33938 0.0
O125 O 0.48814 0.05819 0.34765 0.0
O126 O 0.31631 0.20695 0.55627 0.0
Cd127 Cd 0.3121 0.17749 0.53051 0.0
Cd128 Cd 0.29707 0.21376 0.50319 0.0
O129 O 0.30768 0.23514 0.53834 0.0
O130 O 0.32967 0.15769 0.546 0.0
O131 O 0.33709 0.17155 0.5136 0.0
C132 C 0.34217 0.16025 0.52988 0.0
C133 C 0.30543 0.22723 0.46619 0.0
C134 C 0.31355 0.22799 0.55722 0.0
C135 C 0.26365 0.16519 0.50986 0.0
O136 O 0.26811 0.18489 0.50153 0.0
O137 O 0.27878 0.15848 0.5209 0.0
O138 O 0.29213 0.23528 0.47859 0.0
O139 O 0.31463 0.21243 0.47498 0.0
O140 O 0.17878 1.01308 0.73897 0.0
Cd141 Cd 0.20887 1.01273 0.76197 0.0
Cd142 Cd 0.17546 0.0452 0.79987 0.0
O143 O 0.16032 0.03413 0.76192 0.0
O144 O 0.22752 0.98831 0.74561 0.0
O145 O 0.216 0.98353 0.77841 0.0
C146 C 0.22648 0.97565 0.76222 0.0
C147 C 0.15549 0.0463 0.83775 0.0
C148 C 0.16311 0.02371 0.74119 0.0
C149 C 0.22274 0.07299 0.78555 0.0
O150 O 0.20652 0.07228 0.79769 0.0
O151 O 0.22531 0.05298 0.77355 0.0
O152 O 0.15735 0.06227 0.8242 0.0
O153 O 0.1643 0.02926 0.83026 0.0
O154 O 0.33192 0.93393 0.04578 0.0
Cd155 Cd 0.33057 0.95902 0.02584 0.0
Cd156 Cd 0.33204 0.91981 0.99195 0.0
O157 O 0.32632 0.90124 0.01821 0.0
O158 O 0.31913 0.98268 0.04524 0.0
O159 O 0.30191 0.96082 1.0103 0.0
C160 C 0.3024 0.97652 0.02892 0.0
C161 C 0.32536 0.89638 0.95463 0.0
C162 C 0.3293 0.91136 0.03958 0.0
C163 C 0.37113 0.96562 1.00666 0.0
O164 O 0.36212 0.94397 0.996 0.0
O165 O 0.36085 0.97725 0.01951 0.0
O166 O 0.3391 0.89339 0.97076 0.0
O167 O 0.31431 0.91178 0.95998 0.0
O168 O 0.33716 0.39477 0.0891 0.0
Cd169 Cd 0.34158 0.41915 0.06547 0.0
Cd170 Cd 0.35302 0.37842 0.03745 0.0
O171 O 0.34446 0.36339 0.06766 0.0
O172 O 0.32267 0.44193 0.07413 0.0
O173 O 0.31575 0.41625 0.0403 0.0
C174 C 0.31014 0.43261 0.05424 0.0
C175 C 0.34355 0.35603 0.99782 0.0
C176 C 0.3388 0.37305 0.08659 0.0
C177 C 0.38818 0.42851 0.0509 0.0
O178 O 0.38243 0.40599 0.04144 0.0
O179 O 0.37455 0.4379 0.06119 0.0
O180 O 0.35696 0.35112 0.01319 0.0
O181 O 0.33422 0.37261 1.00511 0.0
O182 O 0.81364 0.15367 0.08088 0.0
Cd183 Cd 0.81053 0.13302 0.04829 0.0
Cd184 Cd 0.80073 0.16801 0.03847 0.0
O185 O 0.81966 0.18816 0.06822 0.0
O186 O 0.83036 0.11254 0.04855 0.0
O187 O 0.83345 0.14276 0.02845 0.0
C188 C 0.84059 0.12537 0.03464 0.0
C189 C 0.79874 0.1804 1.00388 0.0
C190 C 0.81889 0.17674 0.08509 0.0
C191 C 0.76538 0.1246 0.03577 0.0
O192 O 0.77096 0.14747 0.0421 0.0
O193 O 0.77966 0.11308 0.03337 0.0
O194 O 0.79289 0.1918 0.0219 0.0
O195 O 0.80751 0.16297 1.00597 0.0
O196 O 0.19466 0.55653 0.22988 0.0
Cd197 Cd 0.20605 0.55896 0.26439 0.0
Cd198 Cd 0.17264 0.57175 0.26595 0.0
O199 O 0.16098 0.54505 0.23775 0.0
O200 O 0.23269 0.54894 0.2636 0.0
O201 O 0.20252 0.52985 0.27762 0.0
C202 C 0.22259 0.53206 0.27387 0.0
C203 C 0.16242 0.57472 0.30095 0.0
C204 C 0.17454 0.54564 0.22323 0.0
C205 C 0.2119 0.60713 0.27958 0.0
O206 O 0.19553 0.60283 0.26373 0.0
O207 O 0.21578 0.58985 0.28817 0.0
O208 O 0.15185 0.58169 0.2844 0.0
O209 O 0.17671 0.56289 0.29653 0.0
O210 O 0.84184 0.90154 0.59476 0.0
Cd211 Cd 0.84356 0.92091 0.56708 0.0
Cd212 Cd 0.8522 0.8791 0.54439 0.0
O213 O 0.8417 0.86545 0.57533 0.0
O214 O 0.82465 0.94426 0.57117 0.0
O215 O 0.81558 0.91122 0.54346 0.0
C216 C 0.81063 0.9301 0.55389 0.0
C217 C 0.84129 0.85947 0.5039 0.0
C218 C 0.83997 0.87897 0.59442 0.0
C219 C 0.88897 0.92821 0.55278 0.0
O220 O 0.88314 0.90499 0.54742 0.0
O221 O 0.87519 0.9392 0.56016 0.0
O222 O 0.85448 0.85268 0.518 0.0
O223 O 0.83251 0.87584 0.51312 0.0
O224 O 0.95917 0.06936 0.22747 0.0
Cd225 Cd 0.93174 0.06945 0.24972 0.0
Cd226 Cd 0.9731 0.04391 0.27773 0.0
O227 O 0.9843 0.05265 0.24314 0.0
O228 O 0.90927 0.08966 0.23729 0.0
O229 O 0.92835 0.10246 0.27157 0.0
C230 C 0.91417 0.10635 0.25612 0.0
C231 C 0.99508 0.05039 0.31837 0.0
C232 C 0.97694 0.06202 0.22599 0.0
C233 C 0.92144 1.01393 0.26516 0.0
O234 O 0.94167 0.01717 0.27367 0.0
O235 O 0.91556 0.03111 0.25609 0.0
O236 O 0.99382 0.03203 0.30196 0.0
O237 O 0.98543 0.06588 0.3117 0.0
O238 O 0.31068 0.65802 0.57675 0.0
Cd239 Cd 0.30874 0.63153 0.54778 0.0
Cd240 Cd 0.30619 0.66522 0.53001 0.0
O241 O 0.32854 0.68462 0.55787 0.0
O242 O 0.32635 0.61038 0.55544 0.0
O243 O 0.33369 0.63562 0.52985 0.0
C244 C 0.33893 0.61997 0.54125 0.0
C245 C 0.30426 0.67829 0.49557 0.0
C246 C 0.32228 0.67944 0.57686 0.0
C247 C 0.26643 0.62785 0.5301 0.0
O248 O 0.27487 0.65062 0.53545 0.0
O249 O 0.27875 0.61385 0.52974 0.0
O250 O 0.30121 0.69097 0.51453 0.0
O251 O 0.31055 0.65893 0.49659 0.0
O252 O 0.45816 0.56806 0.72996 0.0
Cd253 Cd 0.43055 0.57023 0.75161 0.0
Cd254 Cd 0.47599 0.54783 0.78239 0.0
O255 O 0.48618 0.55644 0.7476 0.0
O256 O 0.40704 0.58992 0.73906 0.0
O257 O 0.42959 0.60573 0.77077 0.0
C258 C 0.41396 0.60847 0.75625 0.0
C259 C 0.49815 0.55213 0.82279 0.0
C260 C 0.47706 0.56291 0.72935 0.0
C261 C 0.42364 0.51667 0.77001 0.0
O262 O 0.44431 0.52199 0.77774 0.0
O263 O 0.41561 0.53255 0.76092 0.0
O264 O 0.49619 0.53411 0.80574 0.0
O265 O 0.48918 0.56847 0.81689 0.0
O266 O 0.69835 0.0552 0.72375 0.0
Cd267 Cd 0.71063 0.06006 0.7575 0.0
Cd268 Cd 0.67328 0.06317 0.761 0.0
O269 O 0.6669 0.03555 0.73277 0.0
O270 O 0.73423 0.0452 0.76251 0.0
O271 O 0.6996 0.03093 0.76992 0.0
C272 C 0.7192 0.02875 0.76898 0.0
C273 C 0.66691 0.0666 0.79831 0.0
C274 C 0.67875 0.04214 0.71732 0.0
C275 C 0.70484 0.10656 0.76733 0.0
O276 O 0.68654 0.09642 0.75453 0.0
O277 O 0.71644 0.09414 0.77564 0.0
O278 O 0.65128 0.06562 0.7818 0.0
O279 O 0.68502 0.06245 0.79322 0.0
O280 O 0.8118 0.7073 0.06265 0.0
Cd281 Cd 0.81073 0.67959 0.03604 0.0
Cd282 Cd 0.79543 0.71482 1.00821 0.0
O283 O 0.80531 0.73589 0.04377 0.0
O284 O 0.82825 0.65922 0.05038 0.0
O285 O 0.83888 0.67972 0.02263 0.0
C286 C 0.84308 0.66643 0.03744 0.0
C287 C 0.80082 0.73267 0.97256 0.0
C288 C 0.80959 0.72851 0.06303 0.0
C289 C 0.76304 0.66509 0.01327 0.0
O290 O 0.76684 0.68523 1.00572 0.0
O291 O 0.77849 0.65875 0.02407 0.0
O292 O 0.78759 0.73764 0.98681 0.0
O293 O 0.81171 0.71797 0.97844 0.0
O294 O 0.96897 0.55585 0.78981 0.0
Cd295 Cd 0.95001 0.56166 0.81541 0.0
Cd296 Cd 0.98352 0.55022 0.83185 0.0
O297 O 1.00217 0.56449 0.80943 0.0
O298 O 0.92392 0.55801 0.79239 0.0
O299 O 0.93974 0.59147 0.81895 0.0
C300 C 0.92495 0.58005 0.80118 0.0
C301 C 0.99292 0.5564 0.8704 0.0
C302 C 0.98954 0.55963 0.79015 0.0
C303 C 0.94261 0.5153 0.8234 0.0
O304 O 0.96151 0.51809 0.81751 0.0
O305 O 0.93666 0.53376 0.83145 0.0
O306 O 1.00163 0.54304 0.85656 0.0
O307 O 0.97968 0.56772 0.8621 0.0
O308 O 0.84102 0.43639 0.54964 0.0
Cd309 Cd 0.83149 0.45629 0.52711 0.0
Cd310 Cd 0.83793 0.41912 0.49927 0.0
O311 O 0.82431 0.40281 0.52489 0.0
O312 O 0.82346 0.47971 0.54992 0.0
O313 O 0.80008 0.45495 0.51973 0.0
C314 C 0.80383 0.47133 0.53861 0.0
C315 C 0.83833 0.39184 0.46609 0.0
C316 C 0.83327 0.41358 0.54548 0.0
C317 C 0.8714 0.46775 0.5118 0.0
O318 O 0.86772 0.44484 0.50849 0.0
O319 O 0.85588 0.47737 0.51432 0.0
O320 O 0.8492 0.39212 0.48594 0.0
O321 O 0.82666 0.40698 0.46496 0.0
O322 O 0.68316 0.51217 0.24513 0.0
Cd323 Cd 0.71298 0.51269 0.26941 0.0
Cd324 Cd 0.67681 0.54154 0.30541 0.0
O325 O 0.66244 0.53094 0.26705 0.0
O326 O 0.73289 0.49075 0.25258 0.0
O327 O 0.7203 0.48143 0.28364 0.0
C328 C 0.73166 0.47595 0.26733 0.0
C329 C 0.65738 0.54159 0.34356 0.0
C330 C 0.66651 0.52138 0.24655 0.0
C331 C 0.72451 0.57225 0.29383 0.0
O332 O 0.70736 0.56929 0.30465 0.0
O333 O 0.72907 0.55351 0.28165 0.0
O334 O 0.65854 0.55773 0.33026 0.0
O335 O 0.66649 0.52497 0.33559 0.0
La336 La 0.05095 0.03812 0.0182 0.0
La337 La 0.08828 0.06574 0.04647 0.0
C338 C 1.01179 0.02297 0.9983 0.0
C339 C 0.99476 0.03575 0.99993 0.0
C340 C 0.98131 0.03606 0.97949 0.0
C341 C 0.96654 0.05018 0.98054 0.0
C342 C 0.96507 0.06398 1.00209 0.0
C343 C 0.97871 0.0639 0.02252 0.0
C344 C 0.9936 0.05003 0.02143 0.0
C345 C 0.08469 0.04241 0.99204 0.0
C346 C 0.06193 0.09632 0.02299 0.0
C347 C 0.12956 0.07854 0.05673 0.0
C348 C 0.1456 0.06504 0.06216 0.0
C349 C 0.16544 0.07735 0.07675 0.0
C350 C 0.1829 0.06687 0.07756 0.0
C351 C 0.18068 0.0439 0.06387 0.0
C352 C 0.16015 0.03047 0.0512 0.0
C353 C 0.14272 0.04102 0.05022 0.0
C354 C 0.05918 0.06224 0.07846 0.0
C355 C 0.07483 1.00791 0.04453 0.0
O356 O 0.02802 0.0331 0.98799 0.0
O357 O 0.01871 1.01669 0.01762 0.0
O358 O 0.06982 0.02245 0.9925 0.0
O359 O 0.08086 0.05865 1.00768 0.0
O360 O 0.04701 0.07488 0.01788 0.0
O361 O 0.08114 0.09814 0.03526 0.0
O362 O 0.11649 0.08201 0.07209 0.0
O363 O 0.11912 0.07208 0.03533 0.0
O364 O 0.07921 0.07613 0.08163 0.0
O365 O 0.05469 0.05243 0.05616 0.0
O366 O 0.09016 0.02881 0.05057 0.0
O367 O 0.05619 1.00701 0.03221 0.0
H368 H 0.98242 0.02562 0.96272 0.0
H369 H 0.95599 0.04997 0.96466 0.0
H370 H 0.97787 0.07462 0.03927 0.0
H371 H 1.00436 0.05073 0.03734 0.0
H372 H 0.16798 0.09578 0.0861 0.0
H373 H 0.19872 0.07751 0.08737 0.0
H374 H 0.15819 1.01285 0.04029 0.0
H375 H 0.12769 0.03111 0.03858 0.0
La376 La 0.32395 0.80605 0.25282 0.0
La377 La 0.30389 0.81228 0.29366 0.0
C378 C 0.33135 0.8054 0.21167 0.0
C379 C 0.34787 0.82254 0.20261 0.0
C380 C 0.35792 0.81414 0.18401 0.0
C381 C 0.36999 0.83075 0.17206 0.0
C382 C 0.37156 0.85557 0.17861 0.0
C383 C 0.3643 0.86414 0.19934 0.0
C384 C 0.35244 0.84762 0.21134 0.0
C385 C 0.35583 0.80766 0.28724 0.0
C386 C 0.33172 0.85766 0.28257 0.0
C387 C 0.2831 0.80852 0.32802 0.0
C388 C 0.27862 0.79061 0.34291 0.0
C389 C 0.26188 0.79027 0.35684 0.0
C390 C 0.25633 0.77194 0.36981 0.0
C391 C 0.26716 0.75366 0.36829 0.0
C392 C 0.28365 0.75379 0.35403 0.0
C393 C 0.28954 0.77239 0.34156 0.0
C394 C 0.28064 0.81666 0.25478 0.0
C395 C 0.3057 0.76111 0.27029 0.0
O396 O 0.33893 0.79246 0.2252 0.0
O397 O 0.3161 0.81431 0.22006 0.0
O398 O 0.35727 0.80627 0.2652 0.0
O399 O 0.33659 0.80926 0.29043 0.0
O400 O 0.32913 0.84483 0.26135 0.0
O401 O 0.32578 0.84782 0.30046 0.0
O402 O 0.27419 0.79997 0.30618 0.0
O403 O 0.30357 0.82143 0.32998 0.0
O404 O 0.28562 0.83236 0.27418 0.0
O405 O 0.29009 0.80031 0.25723 0.0
O406 O 0.30692 0.77568 0.2903 0.0
O407 O 0.30761 0.76903 0.25076 0.0
H408 H 0.35492 0.79482 0.17754 0.0
H409 H 0.37539 0.82394 0.1559 0.0
H410 H 0.36519 0.88324 0.20437 0.0
H411 H 0.3452 0.85456 0.226 0.0
H412 H 0.25325 0.8042 0.35775 0.0
H413 H 0.24399 0.77224 0.38136 0.0
H414 H 0.29264 0.74018 0.35344 0.0
H415 H 0.30273 0.77265 0.33116 0.0
La416 La 0.60202 0.04806 0.54067 0.0
La417 La 0.55334 0.04541 0.54659 0.0
C418 C 0.64056 0.04334 0.54489 0.0
C419 C 0.65315 0.02505 0.54062 0.0
C420 C 0.66902 0.02816 0.5253 0.0
C421 C 0.68318 1.01318 0.52328 0.0
C422 C 0.68185 0.99465 0.53655 0.0
C423 C 0.66544 0.99102 0.5513 0.0
C424 C 0.6513 1.00604 0.55335 0.0
C425 C 0.5753 0.04735 0.50361 0.0
C426 C 0.56576 0.99584 0.53413 0.0
C427 C 0.51493 0.05025 0.54338 0.0
C428 C 0.50285 0.06902 0.54718 0.0
C429 C 0.48712 0.06693 0.56273 0.0
C430 C 0.47208 0.08094 0.56276 0.0
C431 C 0.47245 0.09712 0.54707 0.0
C432 C 0.48947 0.10081 0.53314 0.0
C433 C 0.50454 0.08695 0.5332 0.0
C434 C 0.57925 0.04535 0.58349 0.0
C435 C 0.59045 0.09754 0.55259 0.0
O436 O 0.63145 0.04955 0.52644 0.0
O437 O 0.62809 0.04184 0.56162 0.0
O438 O 0.59608 0.05881 0.50641 0.0
O439 O 0.57112 0.03607 0.51977 0.0
O440 O 0.58681 1.00878 0.53886 0.0
O441 O 0.54954 1.00655 0.53342 0.0
O442 O 0.52473 0.04517 0.56206 0.0
O443 O 0.5265 0.05027 0.52585 0.0
O444 O 0.55851 0.03382 0.58014 0.0
O445 O 0.58407 0.05724 0.56778 0.0
O446 O 0.56914 0.0851 0.54802 0.0
O447 O 0.60625 0.08642 0.5536 0.0
H448 H 0.67091 0.0427 0.51532 0.0
H449 H 0.69536 1.0163 0.51149 0.0
H450 H 0.66402 0.97711 0.56198 0.0
H451 H 0.63938 1.00318 0.56545 0.0
H452 H 0.4855 0.05331 0.57376 0.0
H453 H 0.45908 0.07763 0.57357 0.0
H454 H 0.49016 0.11326 0.52095 0.0
H455 H 0.51659 0.08926 0.5212 0.0
La456 La 0.30019 0.30266 0.77643 0.0
La457 La 0.34361 0.28736 0.77586 0.0
C458 C 0.2609 0.30327 0.78033 0.0
C459 C 0.24467 0.30061 0.79711 0.0
C460 C 0.22774 0.31198 0.79488 0.0
C461 C 0.21159 0.30942 0.80982 0.0
C462 C 0.21193 0.2954 0.82748 0.0
C463 C 0.22962 0.28493 0.83035 0.0
C464 C 0.24578 0.28746 0.81531 0.0
C465 C 0.33424 0.34251 0.7745 0.0
C466 C 0.33022 0.30552 0.82488 0.0
C467 C 0.38306 0.29136 0.76977 0.0
C468 C 0.39678 0.28257 0.75296 0.0
C469 C 0.4064 0.26406 0.75718 0.0
C470 C 0.42361 0.26003 0.74529 0.0
C471 C 0.43171 0.27453 0.72906 0.0
C472 C 0.42064 0.29131 0.72306 0.0
C473 C 0.40339 0.29537 0.73496 0.0
C474 C 0.31048 0.24675 0.77719 0.0
C475 C 0.31369 0.28345 0.72713 0.0
O476 O 0.27793 0.32233 0.78619 0.0
O477 O 0.26634 0.28394 0.77083 0.0
O478 O 0.3136 0.34164 0.77332 0.0
O479 O 0.33417 0.3205 0.77583 0.0
O480 O 0.31068 0.30482 0.81399 0.0
O481 O 0.34628 0.30118 0.81351 0.0
O482 O 0.37253 0.27642 0.78229 0.0
O483 O 0.37152 0.30541 0.76287 0.0
O484 O 0.33104 0.24801 0.77593 0.0
O485 O 0.3093 0.26877 0.77708 0.0
O486 O 0.33113 0.27928 0.73827 0.0
O487 O 0.29938 0.29249 0.7382 0.0
H488 H 0.22675 0.32252 0.78118 0.0
H489 H 0.19833 0.31766 0.80682 0.0
H490 H 0.23086 0.27446 0.84405 0.0
H491 H 0.25894 0.27894 0.81773 0.0
H492 H 0.40173 0.25384 0.77084 0.0
H493 H 0.43175 0.24683 0.75012 0.0
H494 H 0.42658 0.30284 0.71075 0.0
H495 H 0.39637 0.30978 0.73121 0.0
La496 La 0.07357 0.07083 0.54305 0.0
La497 La 0.08173 0.02717 0.52448 0.0
C498 C 0.07313 0.1146 0.55007 0.0
C499 C 0.07502 0.13267 0.53482 0.0
C500 C 0.06178 0.14854 0.53687 0.0
C501 C 0.06328 0.16598 0.52269 0.0
C502 C 0.07801 0.16774 0.50611 0.0
C503 C 0.09103 0.15147 0.50374 0.0
C504 C 0.08949 0.13396 0.51795 0.0
C505 C 0.04012 0.03268 0.54566 0.0
C506 C 0.06151 0.05104 0.48621 0.0
C507 C 0.08401 0.98422 0.51697 0.0
C508 C 0.08392 0.96772 0.53338 0.0
C509 C 0.092 0.94754 0.52798 0.0
C510 C 0.08853 0.92974 0.54186 0.0
C511 C 0.07713 0.93238 0.56109 0.0
C512 C 0.07114 0.95375 0.56786 0.0
C513 C 0.07428 0.97126 0.55389 0.0
C514 C 0.11309 0.06486 0.5187 0.0
C515 C 0.09367 0.04687 0.58173 0.0
O516 O 0.05532 0.09642 0.54486 0.0
O517 O 0.09072 0.10752 0.55488 0.0
O518 O 0.04736 0.0523 0.5616 0.0
O519 O 0.05129 0.03538 0.52891 0.0
O520 O 0.06702 0.07003 0.50405 0.0
O521 O 0.06414 0.03007 0.4905 0.0
O522 O 0.10127 1.00298 0.52062 0.0
O523 O 0.06564 0.9902 0.51342 0.0
O524 O 0.10453 0.04524 0.50313 0.0
O525 O 0.10416 0.06298 0.5372 0.0
O526 O 0.0907 0.02859 0.56359 0.0
O527 O 0.08865 0.06682 0.57759 0.0
H528 H 0.05037 0.14757 0.5496 0.0
H529 H 0.05323 0.17845 0.52513 0.0
H530 H 0.1023 0.1522 0.49088 0.0
H531 H 0.09962 0.12152 0.51579 0.0
H532 H 0.09959 0.94479 0.51227 0.0
H533 H 0.0929 0.91303 0.53637 0.0
H534 H 0.06202 0.95573 0.58252 0.0
H535 H 0.06755 0.98649 0.55813 0.0
La536 La 0.34267 0.81227 0.75952 0.0
La537 La 0.30136 0.7749 0.76005 0.0
C538 C 0.38069 0.84009 0.77194 0.0
C539 C 0.40224 0.83617 0.77837 0.0
C540 C 0.41647 0.83481 0.7615 0.0
C541 C 0.43668 0.83049 0.76748 0.0
C542 C 0.44297 0.82774 0.79045 0.0
C543 C 0.42882 0.82911 0.80732 0.0
C544 C 0.40863 0.83332 0.80136 0.0
C545 C 0.3214 0.79113 0.71818 0.0
C546 C 0.34399 0.75478 0.76222 0.0
C547 C 0.26302 0.74801 0.74778 0.0
C548 C 0.24212 0.75362 0.74242 0.0
C549 C 0.22536 0.74684 0.756 0.0
C550 C 0.20573 0.75291 0.75163 0.0
C551 C 0.20269 0.76579 0.7336 0.0
C552 C 0.21947 0.77269 0.7201 0.0
C553 C 0.23908 0.76669 0.72448 0.0
C554 C 0.32207 0.80042 0.80113 0.0
C555 C 0.2996 0.83222 0.75706 0.0
O556 O 0.37176 0.83227 0.74985 0.0
O557 O 0.36645 0.83496 0.78653 0.0
O558 O 0.3324 0.81394 0.72355 0.0
O559 O 0.32375 0.78085 0.73546 0.0
O560 O 0.35474 0.7787 0.76463 0.0
O561 O 0.32203 0.74857 0.75909 0.0
O562 O 0.2723 0.75466 0.76981 0.0
O563 O 0.27708 0.75314 0.73305 0.0
O564 O 0.31136 0.77752 0.79829 0.0
O565 O 0.31941 0.80717 0.78207 0.0
O566 O 0.28871 0.80844 0.75557 0.0
O567 O 0.32161 0.83819 0.76009 0.0
H568 H 0.41199 0.83708 0.7437 0.0
H569 H 0.44755 0.82974 0.75432 0.0
H570 H 0.43337 0.82683 0.82511 0.0
H571 H 0.39804 0.83428 0.81478 0.0
H572 H 0.22752 0.73704 0.77008 0.0
H573 H 0.19299 0.7477 0.76242 0.0
H574 H 0.21731 0.78242 0.70597 0.0
H575 H 0.25182 0.77239 0.71384 0.0
La576 La 0.57682 0.03642 0.05923 0.0
La577 La 0.56329 0.05127 0.01476 0.0
C578 C 0.57708 0.02528 0.09885 0.0
C579 C 0.55833 0.01865 0.11146 0.0
C580 C 0.55106 0.99476 0.11529 0.0
C581 C 0.53145 0.98726 0.12429 0.0
C582 C 0.519 1.00365 0.12974 0.0
C583 C 0.52639 0.02758 0.1259 0.0
C584 C 0.54578 0.03498 0.11673 0.0
C585 C 0.59089 1.01611 0.02281 0.0
C586 C 0.52948 1.01143 0.0292 0.0
C587 C 0.56242 0.06663 0.97703 0.0
C588 C 0.58133 0.07851 0.9668 0.0
C589 C 0.58043 0.09724 0.9545 0.0
C590 C 0.59859 0.10795 0.94436 0.0
C591 C 0.61767 0.10011 0.9469 0.0
C592 C 0.61929 0.08338 0.96144 0.0
C593 C 0.60107 0.07221 0.97081 0.0
C594 C 0.54978 0.07094 0.05187 0.0
C595 C 0.61139 0.07494 0.04284 0.0
O596 O 0.57632 1.00968 0.07969 0.0
O597 O 0.58274 0.04788 0.09576 0.0
O598 O 0.60127 0.02123 0.04404 0.0
O599 O 0.5725 0.02035 0.02289 0.0
O600 O 0.5408 0.01949 0.05066 0.0
O601 O 0.53721 0.01896 1.01075 0.0
O602 O 0.56011 0.07915 0.99685 0.0
O603 O 0.56028 0.04369 0.97799 0.0
O604 O 0.53803 0.06386 0.03128 0.0
O605 O 0.5683 0.06738 0.05086 0.0
O606 O 0.59835 0.068 0.02253 0.0
O607 O 0.60574 0.06649 0.06173 0.0
H608 H 0.56036 0.98181 0.11093 0.0
H609 H 0.5262 0.96881 0.12737 0.0
H610 H 0.51763 0.04096 0.13074 0.0
H611 H 0.55077 0.05346 0.11366 0.0
H612 H 0.56544 0.10271 0.95185 0.0
H613 H 0.59702 0.12054 0.93277 0.0
H614 H 0.63383 0.07691 0.96325 0.0
H615 H 0.60235 0.05812 0.98057 0.0
La616 La 0.32828 0.31992 0.28421 0.0
La617 La 0.31039 0.26917 0.25783 0.0
C618 C 0.33746 0.36491 0.28859 0.0
C619 C 0.32362 0.38086 0.29377 0.0
C620 C 0.3326 0.40345 0.30855 0.0
C621 C 0.31964 0.41924 0.31249 0.0
C622 C 0.29762 0.41232 0.30177 0.0
C623 C 0.28835 0.38919 0.28791 0.0
C624 C 0.30132 0.37357 0.28382 0.0
C625 C 0.32283 0.29184 0.31671 0.0
C626 C 0.27753 0.29398 0.27858 0.0
C627 C 0.30214 0.22515 0.23994 0.0
C628 C 0.3151 0.20809 0.24168 0.0
C629 C 0.31547 0.19158 0.22157 0.0
C630 C 0.32869 0.17595 0.22266 0.0
C631 C 0.3414 0.17651 0.244 0.0
C632 C 0.3415 0.19369 0.26398 0.0
C633 C 0.3286 0.20958 0.26274 0.0
C634 C 0.3135 0.30343 0.23145 0.0
C635 C 0.36182 0.29186 0.27236 0.0
O636 O 0.34271 0.35421 0.30567 0.0
O637 O 0.33112 0.35008 0.26825 0.0
O638 O 0.33062 0.31532 0.32105 0.0
O639 O 0.31868 0.2849 0.29441 0.0
O640 O 0.29287 0.31484 0.28128 0.0
O641 O 0.28119 0.27305 0.27099 0.0
O642 O 0.31064 0.24265 0.2291 0.0
O643 O 0.29513 0.23296 0.2593 0.0
O644 O 0.29662 0.2847 0.22937 0.0
O645 O 0.32688 0.30242 0.24856 0.0
O646 O 0.34519 0.27182 0.26695 0.0
O647 O 0.35912 0.31347 0.27906 0.0
H648 H 0.34972 0.4091 0.31645 0.0
H649 H 0.3271 0.43722 0.32302 0.0
H650 H 0.27133 0.38354 0.27964 0.0
H651 H 0.294 0.35615 0.27228 0.0
H652 H 0.30562 0.19088 0.20503 0.0
H653 H 0.32875 0.16323 0.20691 0.0
H654 H 0.35099 0.19442 0.28073 0.0
H655 H 0.32904 0.22285 0.27825 0.0
La656 La 0.5766 0.56589 0.04671 0.0
La657 La 0.5827 0.52157 0.02764 0.0
C658 C 0.57748 0.61 0.05359 0.0
C659 C 0.57839 0.6275 0.03763 0.0
C660 C 0.55983 0.63553 0.03226 0.0
C661 C 0.56058 0.65291 0.01812 0.0
C662 C 0.58009 0.66307 1.0095 0.0
C663 C 0.59835 0.65407 0.01378 0.0
C664 C 0.59748 0.63633 0.02766 0.0
C665 C 0.54193 0.52866 0.04842 0.0
C666 C 0.56382 0.54692 0.98972 0.0
C667 C 0.58198 0.47776 0.01967 0.0
C668 C 0.58391 0.46138 0.03604 0.0
C669 C 0.60412 0.45656 0.04173 0.0
C670 C 0.60605 0.44119 0.05745 0.0
C671 C 0.58768 0.43009 0.06734 0.0
C672 C 0.56771 0.43573 0.06237 0.0
C673 C 0.56586 0.45129 0.04691 0.0
C674 C 0.61519 0.55808 0.02171 0.0
C675 C 0.59647 0.54104 0.08497 0.0
O676 O 0.55933 0.59234 0.05048 0.0
O677 O 0.59493 0.60237 0.05721 0.0
O678 O 0.55013 0.54745 0.0652 0.0
O679 O 0.55314 0.5316 0.03178 0.0
O680 O 0.56998 0.56572 1.00778 0.0
O681 O 0.56551 0.52554 0.99379 0.0
O682 O 0.59965 0.49537 0.01987 0.0
O683 O 0.56422 0.48521 0.01919 0.0
O684 O 0.60594 0.53857 1.00618 0.0
O685 O 0.60644 0.55662 0.04038 0.0
O686 O 0.59248 0.52244 0.06677 0.0
O687 O 0.59208 0.56131 0.08084 0.0
H688 H 0.5448 0.62867 0.03936 0.0
H689 H 0.54601 0.65893 0.01452 0.0
H690 H 0.61363 0.6615 1.0074 0.0
H691 H 0.61196 0.63011 0.03108 0.0
H692 H 0.61836 0.46445 0.03385 0.0
H693 H 0.62169 0.43734 0.06126 0.0
H694 H 0.55313 0.42716 0.06938 0.0
H695 H 0.55011 0.45492 0.04314 0.0
La696 La 0.84296 0.30714 0.26929 0.0
La697 La 0.80071 0.27317 0.27528 0.0
C698 C 0.88224 0.33167 0.27924 0.0
C699 C 0.90296 0.32578 0.2851 0.0
C700 C 0.92057 0.33423 0.27311 0.0
C701 C 0.94141 0.33255 0.28098 0.0
C702 C 0.94478 0.32244 0.30093 0.0
C703 C 0.92691 0.31203 0.31174 0.0
C704 C 0.90598 0.31354 0.30376 0.0
C705 C 0.81834 0.28083 0.23078 0.0
C706 C 0.84213 0.2499 0.27404 0.0
C707 C 0.76235 0.24596 0.26586 0.0
C708 C 0.74123 0.24974 0.25797 0.0
C709 C 0.72369 0.24269 0.27047 0.0
C710 C 0.70372 0.24719 0.26391 0.0
C711 C 0.70123 0.25887 0.24487 0.0
C712 C 0.71868 0.26584 0.23224 0.0
C713 C 0.73864 0.2613 0.23875 0.0
C714 C 0.82644 0.29433 0.31393 0.0
C715 C 0.80177 0.33031 0.26887 0.0
O716 O 0.87234 0.3237 0.25751 0.0
O717 O 0.86861 0.32906 0.29477 0.0
O718 O 0.83087 0.30271 0.23145 0.0
O719 O 0.82166 0.27523 0.25031 0.0
O720 O 0.85391 0.27249 0.2724 0.0
O721 O 0.8206 0.24615 0.27533 0.0
O722 O 0.77144 0.25709 0.28733 0.0
O723 O 0.77638 0.24778 0.25071 0.0
O724 O 0.8136 0.27231 0.3107 0.0
O725 O 0.82308 0.30416 0.29655 0.0
O726 O 0.79 0.30763 0.27043 0.0
O727 O 0.8234 0.33434 0.26817 0.0
H728 H 0.91848 0.34345 0.25856 0.0
H729 H 0.95523 0.34091 0.27271 0.0
H730 H 0.92942 0.30451 0.32739 0.0
H731 H 0.89253 0.30646 0.31309 0.0
H732 H 0.72555 0.23401 0.28547 0.0
H733 H 0.69034 0.24197 0.27394 0.0
H734 H 0.71684 0.27476 0.21741 0.0
H735 H 0.75204 0.26709 0.22891 0.0
La736 La 0.07738 0.56151 0.5717 0.0
La737 La 0.06526 0.56543 0.51978 0.0
C738 C 0.07735 0.55534 0.61314 0.0
C739 C 0.0596 0.54072 0.62313 0.0
C740 C 0.06422 0.52545 0.63813 0.0
C741 C 0.0472 0.51117 0.64739 0.0
C742 C 0.02537 0.51169 0.64123 0.0
C743 C 0.02066 0.52451 0.62374 0.0
C744 C 0.0377 0.53976 0.61561 0.0
C745 C 0.08392 0.52918 0.53837 0.0
C746 C 0.02766 0.54238 0.54494 0.0
C747 C 0.068 0.56201 0.47763 0.0
C748 C 0.08552 0.57883 0.46905 0.0
C749 C 0.0804 0.59489 0.45518 0.0
C750 C 0.09717 0.61072 0.44698 0.0
C751 C 0.11904 0.6102 0.45234 0.0
C752 C 0.12441 0.59699 0.46907 0.0
C753 C 0.10774 0.58086 0.47687 0.0
C754 C 0.0651 0.60568 0.54793 0.0
C755 C 0.11367 0.58827 0.54844 0.0
O756 O 0.08505 0.54236 0.59742 0.0
O757 O 0.07414 0.57495 0.60643 0.0
O758 O 0.09673 0.53777 0.55817 0.0
O759 O 0.06763 0.5375 0.53842 0.0
O760 O 0.0415 0.54922 0.56486 0.0
O761 O 0.03353 0.54457 0.52413 0.0
O762 O 0.05365 0.57188 0.48702 0.0
O763 O 0.0746 0.54749 0.49013 0.0
O764 O 0.06034 0.60157 0.5253 0.0
O765 O 0.06988 0.5874 0.55341 0.0
O766 O 0.10072 0.5782 0.52829 0.0
O767 O 0.10686 0.5882 0.56906 0.0
H768 H 0.08102 0.52537 0.64344 0.0
H769 H 0.05145 0.50159 0.66093 0.0
H770 H 1.00396 0.52506 0.61853 0.0
H771 H 0.03368 0.55157 0.60432 0.0
H772 H 0.06344 0.59434 0.44975 0.0
H773 H 0.09281 0.62072 0.43384 0.0
H774 H 0.1412 0.5962 0.47316 0.0
H775 H 0.11241 0.56916 0.48803 0.0
La776 La 0.79682 0.80315 0.28228 0.0
La777 La 0.84005 0.78797 0.28133 0.0
C778 C 0.75772 0.80466 0.28605 0.0
C779 C 0.74098 0.80187 0.30239 0.0
C780 C 0.7332 0.8219 0.31052 0.0
C781 C 0.71645 0.81974 0.32475 0.0
C782 C 0.70683 0.79737 0.33117 0.0
C783 C 0.71484 0.77735 0.3231 0.0
C784 C 0.73171 0.77959 0.30901 0.0
C785 C 0.83035 0.84306 0.27845 0.0
C786 C 0.82711 0.80751 0.33046 0.0
C787 C 0.87985 0.78932 0.27907 0.0
C788 C 0.89417 0.78657 0.26096 0.0
C789 C 0.90794 0.77132 0.26285 0.0
C790 C 0.92307 0.76988 0.24718 0.0
C791 C 0.92488 0.78386 0.22936 0.0
C792 C 0.91044 0.79847 0.22701 0.0
C793 C 0.89517 0.79972 0.24257 0.0
C794 C 0.80696 0.74763 0.28446 0.0
C795 C 0.81118 0.78543 0.23271 0.0
O796 O 0.77511 0.82322 0.29276 0.0
O797 O 0.76269 0.78538 0.27555 0.0
O798 O 0.80967 0.84169 0.27793 0.0
O799 O 0.83078 0.82123 0.28012 0.0
O800 O 0.80703 0.80504 0.31988 0.0
O801 O 0.84301 0.80355 0.31863 0.0
O802 O 0.86478 0.76979 0.2807 0.0
O803 O 0.87245 0.80851 0.2812 0.0
O804 O 0.82757 0.74908 0.28411 0.0
O805 O 0.80585 0.76948 0.28346 0.0
O806 O 0.82998 0.78425 0.24375 0.0
O807 O 0.79539 0.79119 0.24395 0.0
H808 H 0.73997 0.83931 0.30563 0.0
H809 H 0.71115 0.83569 0.33075 0.0
H810 H 0.70773 0.75963 0.32713 0.0
H811 H 0.73721 0.76375 0.30301 0.0
H812 H 0.9073 0.76087 0.27681 0.0
H813 H 0.93356 0.75806 0.24925 0.0
H814 H 0.91146 0.80972 0.21371 0.0
H815 H 0.88461 0.8115 0.24058 0.0
La816 La 0.83875 0.29842 0.76182 0.0
La817 La 0.8184 0.3155 0.80574 0.0
C818 C 0.84969 0.29297 0.72194 0.0
C819 C 0.85573 0.31071 0.70695 0.0
C820 C 0.87575 0.31316 0.6982 0.0
C821 C 0.88223 0.33006 0.68404 0.0
C822 C 0.86851 0.34433 0.67824 0.0
C823 C 0.84954 0.34366 0.68884 0.0
C824 C 0.84319 0.32691 0.70334 0.0
C825 C 0.86555 0.29827 0.80086 0.0
C826 C 0.84652 0.35424 0.78411 0.0
C827 C 0.80565 0.32041 0.84486 0.0
C828 C 0.79819 0.30149 0.85828 0.0
C829 C 0.77699 0.29773 0.86457 0.0
C830 C 0.76753 0.27697 0.87314 0.0
C831 C 0.77918 0.25982 0.87527 0.0
C832 C 0.80017 0.26324 0.86856 0.0
C833 C 0.80967 0.28401 0.8601 0.0
C834 C 0.79152 0.31401 0.76586 0.0
C835 C 0.81059 0.26029 0.78485 0.0
O836 O 0.86359 0.29779 0.74126 0.0
O837 O 0.82904 0.28649 0.72541 0.0
O838 O 0.86785 0.29108 0.7794 0.0
O839 O 0.84754 0.30434 0.79956 0.0
O840 O 0.84555 0.33779 0.76519 0.0
O841 O 0.83949 0.3491 0.80364 0.0
O842 O 0.79274 0.31664 0.82499 0.0
O843 O 0.82661 0.32659 0.84248 0.0
O844 O 0.78873 0.32162 0.78701 0.0
O845 O 0.80972 0.30868 0.76822 0.0
O846 O 0.81444 0.27738 0.80373 0.0
O847 O 0.81683 0.26436 0.76458 0.0
H848 H 0.88607 0.30149 0.70178 0.0
H849 H 0.89691 0.33049 0.67589 0.0
H850 H 0.83871 0.35451 0.68433 0.0
H851 H 0.82819 0.32606 0.71097 0.0
H852 H 0.76766 0.31072 0.8625 0.0
H853 H 0.75165 0.27485 0.87914 0.0
H854 H 0.80959 0.2504 0.87098 0.0
H855 H 0.82573 0.28608 0.85455 0.0
La856 La 0.83066 0.82724 0.79233 0.0
La857 La 0.8033 0.77366 0.76781 0.0
C858 C 0.84177 0.87249 0.80288 0.0
C859 C 0.82777 0.88849 0.79927 0.0
C860 C 0.8211 0.90032 0.81902 0.0
C861 C 0.80379 0.91065 0.81629 0.0
C862 C 0.79319 0.90975 0.79371 0.0
C863 C 0.80037 0.89875 0.77389 0.0
C864 C 0.81745 0.88806 0.77664 0.0
C865 C 0.82693 0.7978 0.82433 0.0
C866 C 0.77833 0.8086 0.78846 0.0
C867 C 0.79215 0.72829 0.76109 0.0
C868 C 0.80695 0.71273 0.76027 0.0
C869 C 0.80104 0.69035 0.74474 0.0
C870 C 0.81573 0.67615 0.74326 0.0
C871 C 0.83663 0.68447 0.75703 0.0
C872 C 0.84283 0.70747 0.77172 0.0
C873 C 0.82801 0.72131 0.77358 0.0
C874 C 0.80831 0.80357 0.73628 0.0
C875 C 0.85552 0.79387 0.76821 0.0
O876 O 0.83529 0.8584 0.8178 0.0
O877 O 0.847 0.86072 0.78411 0.0
O878 O 0.83879 0.8201 0.82756 0.0
O879 O 0.8199 0.7924 0.80229 0.0
O880 O 0.79595 0.82662 0.788 0.0
O881 O 0.77708 0.78547 0.78165 0.0
O882 O 0.79237 0.74043 0.74393 0.0
O883 O 0.79315 0.74193 0.78162 0.0
O884 O 0.79667 0.78097 0.73168 0.0
O885 O 0.81452 0.80815 0.75837 0.0
O886 O 0.83771 0.77525 0.76573 0.0
O887 O 0.85691 0.81647 0.77772 0.0
H888 H 0.82848 0.90038 0.83665 0.0
H889 H 0.79841 0.91888 0.83186 0.0
H890 H 0.79276 0.89834 0.75626 0.0
H891 H 0.82197 0.87883 0.76109 0.0
H892 H 0.78503 0.68378 0.73397 0.0
H893 H 0.81044 0.65837 0.73195 0.0
H894 H 0.85898 0.71458 0.78216 0.0
H895 H 0.83303 0.73868 0.78557 0.0
La896 La 0.5538 0.53537 0.52442 0.0
La897 La 0.59298 0.55862 0.5552 0.0
C898 C 0.51342 0.52301 0.50801 0.0
C899 C 0.49767 0.53731 0.51077 0.0
C900 C 0.47623 0.52872 0.49857 0.0
C901 C 0.46148 0.54279 0.5017 0.0
C902 C 0.46824 0.56557 0.51693 0.0
C903 C 0.49 0.57439 0.52834 0.0
C904 C 0.50437 0.56011 0.52576 0.0
C905 C 0.58748 0.53601 0.49852 0.0
C906 C 0.5716 0.59379 0.53249 0.0
C907 C 0.63331 0.57518 0.57108 0.0
C908 C 0.65119 0.56397 0.56887 0.0
C909 C 0.67124 0.57423 0.58359 0.0
C910 C 0.68724 0.56173 0.58366 0.0
C911 C 0.68305 0.53856 0.56943 0.0
C912 C 0.66303 0.52862 0.55433 0.0
C913 C 0.64733 0.54143 0.55383 0.0
C914 C 0.56135 0.55783 0.58453 0.0
C915 C 0.57732 0.50135 0.54776 0.0
O916 O 0.52906 0.53135 0.49608 0.0
O917 O 0.52122 0.51767 0.52746 0.0
O918 O 0.56949 0.51843 0.49644 0.0
O919 O 0.58628 0.55236 0.51599 0.0
O920 O 0.55611 0.57386 0.52194 0.0
O921 O 0.58787 0.59236 0.54753 0.0
O922 O 0.61856 0.56445 0.58287 0.0
O923 O 0.62439 0.5796 0.55165 0.0
O924 O 0.58225 0.56767 0.59001 0.0
O925 O 0.55855 0.54947 0.56213 0.0
O926 O 0.59433 0.52071 0.55269 0.0
O927 O 0.55831 0.50313 0.53797 0.0
H928 H 0.47081 0.51103 0.48709 0.0
H929 H 0.44465 0.53544 0.49303 0.0
H930 H 0.49566 0.59195 0.54005 0.0
H931 H 0.52058 0.56673 0.53597 0.0
H932 H 0.67436 0.59163 0.59531 0.0
H933 H 0.70281 0.57016 0.59495 0.0
H934 H 0.65928 0.51079 0.54325 0.0
H935 H 0.632 0.53346 0.5421 0.0
La936 La 0.10052 0.55231 0.0519 0.0
La937 La 0.05096 0.54849 0.05502 0.0
C938 C 0.13908 0.54753 0.05768 0.0
C939 C 0.15234 0.53018 0.05122 0.0
C940 C 0.16473 0.53257 0.03253 0.0
C941 C 0.17973 0.51885 0.02843 0.0
C942 C 0.18285 0.50219 0.04285 0.0
C943 C 0.16984 0.49924 0.06107 0.0
C944 C 0.15493 0.5131 0.06526 0.0
C945 C 0.07531 0.55148 0.01345 0.0
C946 C 0.06423 0.49948 0.04192 0.0
C947 C 1.01222 0.55248 0.05085 0.0
C948 C 0.99995 0.57113 0.05389 0.0
C949 C 0.98629 0.57143 0.07151 0.0
C950 C 0.97258 0.58695 0.07292 0.0
C951 C 0.97209 0.60248 0.05663 0.0
C952 C 0.98626 0.60256 0.03941 0.0
C953 C 1.00003 0.58719 0.03811 0.0
C954 C 0.07508 0.54721 0.09305 0.0
C955 C 0.08737 0.60084 0.0627 0.0
O956 O 0.13172 0.5576 0.04103 0.0
O957 O 0.12479 0.54226 0.07224 0.0
O958 O 0.09607 0.56318 0.01732 0.0
O959 O 0.07049 0.54034 0.02953 0.0
O960 O 0.0852 0.51265 0.04736 0.0
O961 O 0.04777 0.50984 0.04137 0.0
O962 O 0.02217 0.54839 0.06999 0.0
O963 O 0.02392 0.55203 0.03346 0.0
O964 O 0.05456 0.53497 0.08757 0.0
O965 O 0.08093 0.56002 0.07816 0.0
O966 O 0.06636 0.58798 0.05627 0.0
O967 O 0.10338 0.59026 0.06582 0.0
H968 H 0.16347 0.54575 0.02152 0.0
H969 H 0.18951 0.52215 0.01445 0.0
H970 H 0.1713 0.48637 0.07235 0.0
H971 H 0.14584 0.51086 0.07995 0.0
H972 H 0.9858 0.55919 0.08388 0.0
H973 H 0.96222 0.58658 0.08664 0.0
H974 H 0.98618 0.61384 0.02624 0.0
H975 H 1.01023 0.58739 0.02423 0.0
H976 H 0.06141 0.23152 0.99338 0.0
H977 H 1.01713 0.19051 0.93027 0.0
H978 H 0.0197 0.15229 0.9421 0.0
H979 H 0.09667 0.1893 0.99179 0.0
H980 H 0.10199 0.1921 0.02327 0.0
H981 H 0.09666 0.21703 1.01083 0.0
H982 H 0.06493 0.21729 0.03527 0.0
H983 H 0.07021 0.1924 0.04779 0.0
H984 H 0.04313 0.18971 0.03308 0.0
H985 H 0.02496 0.11839 0.96033 0.0
H986 H 0.03454 0.08938 0.9827 0.0
H987 H 0.07863 0.1489 0.03439 0.0
C988 C 0.05211 0.21445 0.98221 0.0
C989 C 0.03865 0.2143 0.96083 0.0
C990 C 0.02734 0.19143 0.94662 0.0
C991 C 0.02872 0.16947 0.95325 0.0
C992 C 0.04194 0.17014 0.97411 0.0
C993 C 0.05377 0.19191 0.98836 0.0
C994 C 0.06741 0.18665 1.00938 0.0
C995 C 0.09215 0.19688 1.00878 0.0
C996 C 0.06104 0.19715 0.03277 0.0
C997 C 0.06072 0.15861 1.00494 0.0
C998 C 0.04595 0.14987 0.98439 0.0
C999 C 0.03657 0.12505 0.9764 0.0
C1000 C 0.04211 0.10857 0.98953 0.0
C1001 C 0.05723 0.11632 1.01075 0.0
C1002 C 0.06697 0.14202 0.01839 0.0
H1003 H 0.18751 0.86238 0.18499 0.0
H1004 H 0.14954 0.7867 0.16604 0.0
H1005 H 0.18012 0.77442 0.18544 0.0
H1006 H 0.2418 0.85226 0.17912 0.0
H1007 H 0.25589 0.87518 0.20441 0.0
H1008 H 0.23172 0.8783 0.18758 0.0
H1009 H 0.21338 0.88193 0.22537 0.0
H1010 H 0.23749 0.87886 0.24226 0.0
H1011 H 0.21092 0.85836 0.24268 0.0
H1012 H 0.21521 0.76994 0.20672 0.0
H1013 H 0.25053 0.77432 0.23158 0.0
H1014 H 0.26512 0.85275 0.23999 0.0
C1015 C 0.18578 0.84327 0.18482 0.0
C1016 C 0.1661 0.82545 0.17382 0.0
C1017 C 0.16442 0.80064 0.17429 0.0
C1018 C 0.18177 0.79345 0.18522 0.0
C1019 C 0.20088 0.81129 0.19601 0.0
C1020 C 0.20297 0.83573 0.19616 0.0
C1021 C 0.22493 0.85116 0.21022 0.0
C1022 C 0.23944 0.86506 0.19438 0.0
C1023 C 0.22146 0.86861 0.23139 0.0
C1024 C 0.23459 0.8317 0.21813 0.0
C1025 C 0.22064 0.80876 0.20931 0.0
C1026 C 0.22622 0.78786 0.21374 0.0
C1027 C 0.2464 0.79049 0.22777 0.0
C1028 C 0.26064 0.81385 0.23767 0.0
C1029 C 0.25457 0.83465 0.23264 0.0
H1030 H 0.53619 0.84823 0.50347 0.0
H1031 H 0.56108 0.85947 0.43792 0.0
H1032 H 0.56886 0.90345 0.45038 0.0
H1033 H 0.51001 0.89601 0.50871 0.0
H1034 H 0.51788 0.9067 0.53998 0.0
H1035 H 0.51512 0.87539 0.52742 0.0
H1036 H 0.55507 0.87971 0.54574 0.0
H1037 H 0.55778 0.9109 0.55874 0.0
H1038 H 0.5772 0.90377 0.54015 0.0
H1039 H 0.57189 0.94522 0.46712 0.0
H1040 H 0.57437 0.98519 0.49068 0.0
H1041 H 0.54857 0.95058 0.54693 0.0
C1042 C 0.54359 0.86006 0.49203 0.0
C1043 C 0.54767 0.85024 0.46947 0.0
C1044 C 0.5574 0.8664 0.45504 0.0
C1045 C 0.56195 0.89151 0.46195 0.0
C1046 C 0.55696 0.90064 0.48361 0.0
C1047 C 0.54844 0.88572 0.4988 0.0
C1048 C 0.54488 0.90117 0.52115 0.0
C1049 C 0.52052 0.89441 0.5245 0.0
C1050 C 0.55961 0.89873 0.54272 0.0
C1051 C 0.55224 0.92674 0.51564 0.0
C1052 C 0.55911 0.92567 0.49379 0.0
C1053 C 0.56672 0.94638 0.48435 0.0
C1054 C 0.56797 0.969 0.4978 0.0
C1055 C 0.56161 0.97093 0.52047 0.0
C1056 C 0.55337 0.94952 0.52952 0.0
H1057 H 0.53108 0.28924 0.65049 0.0
H1058 H 0.57401 0.302 0.7167 0.0
H1059 H 0.54179 0.2952 0.73767 0.0
H1060 H 0.49011 0.31667 0.67074 0.0
H1061 H 0.46668 0.29354 0.65388 0.0
H1062 H 0.49288 0.29902 0.64332 0.0
H1063 H 0.49139 0.25364 0.6409 0.0
H1064 H 0.46519 0.24815 0.65156 0.0
H1065 H 0.48767 0.24017 0.66666 0.0
H1066 H 0.50644 0.28781 0.75191 0.0
H1067 H 0.46829 0.28125 0.7596 0.0
H1068 H 0.44598 0.27244 0.68492 0.0
C1069 C 0.53356 0.29084 0.66943 0.0
C1070 C 0.55509 0.29658 0.68217 0.0
C1071 C 0.55773 0.29783 0.70676 0.0
C1072 C 0.53952 0.2939 0.71878 0.0
C1073 C 0.51861 0.28814 0.70592 0.0
C1074 C 0.51531 0.28638 0.68179 0.0
C1075 C 0.4907 0.27934 0.67262 0.0
C1076 C 0.48476 0.29829 0.65937 0.0
C1077 C 0.48331 0.25382 0.65701 0.0
C1078 C 0.48104 0.27911 0.69561 0.0
C1079 C 0.49758 0.28359 0.71437 0.0
C1080 C 0.49328 0.2841 0.73739 0.0
C1081 C 0.47151 0.28019 0.74156 0.0
C1082 C 0.45413 0.27602 0.72289 0.0
C1083 C 0.45895 0.27546 0.69951 0.0
H1084 H 0.06125 0.82419 0.63223 0.0
H1085 H 0.9915 0.80762 0.60703 0.0
H1086 H 0.99915 0.84032 0.58372 0.0
H1087 H 0.07092 0.88895 0.63986 0.0
H1088 H 0.09798 0.89464 0.63125 0.0
H1089 H 0.08764 0.86878 0.64466 0.0
H1090 H 0.09445 0.84017 0.60894 0.0
H1091 H 0.10487 0.86601 0.59552 0.0
H1092 H 0.08251 0.84086 0.57968 0.0
H1093 H 1.01351 0.87408 0.56448 0.0
H1094 H 0.03421 0.91027 0.55078 0.0
H1095 H 0.0948 0.90674 0.58962 0.0
C1096 C 0.04771 0.82748 0.6216 0.0
C1097 C 0.02581 0.8137 0.62104 0.0
C1098 C 1.00829 0.81834 0.6075 0.0
C1099 C 1.01251 0.83664 0.59422 0.0
C1100 C 0.03425 0.85012 0.59522 0.0
C1101 C 0.0516 0.84606 0.60871 0.0
C1102 C 0.07318 0.86446 0.60788 0.0
C1103 C 0.08299 0.88013 0.63237 0.0
C1104 C 0.08971 0.85211 0.59737 0.0
C1105 C 0.06512 0.87919 0.59152 0.0
C1106 C 0.04263 0.87045 0.58446 0.0
C1107 C 0.0311 0.88116 0.5698 0.0
C1108 C 0.0429 0.9016 0.56222 0.0
C1109 C 0.06583 0.91088 0.5694 0.0
C1110 C 0.07723 0.89962 0.58402 0.0
H1111 H 0.55825 0.85494 0.87004 0.0
H1112 H 0.572 0.79753 0.82175 0.0
H1113 H 0.53501 0.78909 0.79853 0.0
H1114 H 0.49999 0.82577 0.86922 0.0
H1115 H 0.4926 0.85391 0.87033 0.0
H1116 H 0.51945 0.85411 0.88369 0.0
H1117 H 0.53736 0.88511 0.85872 0.0
H1118 H 0.51058 0.88477 0.84509 0.0
H1119 H 0.53048 0.87777 0.82711 0.0
H1120 H 0.49781 0.78868 0.77984 0.0
H1121 H 0.46154 0.7949 0.7676 0.0
H1122 H 0.47286 0.85295 0.8283 0.0
C1123 C 0.55314 0.84028 0.85483 0.0
C1124 C 0.56732 0.82644 0.8476 0.0
C1125 C 0.56083 0.80784 0.82745 0.0
C1126 C 0.54004 0.80307 0.81424 0.0
C1127 C 0.52636 0.81723 0.82162 0.0
C1128 C 0.53258 0.83537 0.84151 0.0
C1129 C 0.5152 0.84855 0.84518 0.0
C1130 C 0.50628 0.84537 0.86848 0.0
C1131 C 0.52393 0.87564 0.84394 0.0
C1132 C 0.49823 0.83495 0.82423 0.0
C1133 C 0.50498 0.81704 0.8108 0.0
C1134 C 0.49222 0.80251 0.79025 0.0
C1135 C 0.47181 0.80623 0.78339 0.0
C1136 C 0.46458 0.82422 0.79718 0.0
C1137 C 0.47799 0.83881 0.81772 0.0
H1138 H 0.48905 0.16656 0.1034 0.0
H1139 H 0.54528 0.19506 0.15847 0.0
H1140 H 0.56205 0.16345 0.14186 0.0
H1141 H 0.48648 0.10277 0.10135 0.0
H1142 H 0.47896 0.09451 0.06986 0.0
H1143 H 0.4711 0.11938 0.08605 0.0
H1144 H 0.49045 0.1481 0.0597 0.0
H1145 H 0.49836 0.12334 0.04345 0.0
H1146 H 0.51902 0.15108 0.0571 0.0
H1147 H 0.57296 0.13009 0.1195 0.0
H1148 H 0.57766 0.09567 0.09157 0.0
H1149 H 0.51389 0.0878 0.05177 0.0
C1150 C 0.50473 0.16578 0.11191 0.0
C1151 C 0.51589 0.18256 0.13221 0.0
C1152 C 0.53653 0.18173 0.14301 0.0
C1153 C 0.54616 0.16403 0.13374 0.0
C1154 C 0.53474 0.14739 0.11383 0.0
C1155 C 0.5145 0.14796 0.10303 0.0
C1156 C 0.50594 0.12785 0.08175 0.0
C1157 C 0.48433 0.11008 0.08496 0.0
C1158 C 0.5033 0.13822 0.05917 0.0
C1159 C 0.52456 0.11613 0.08237 0.0
C1160 C 0.541 0.12771 0.101 0.0
C1161 C 0.56014 0.1206 0.10494 0.0
C1162 C 0.56259 0.10104 0.08914 0.0
C1163 C 0.54596 0.08914 0.06987 0.0
C1164 C 0.52666 0.09653 0.0666 0.0
H1165 H 0.19507 0.34679 0.352 0.0
H1166 H 0.15997 0.27121 0.3498 0.0
H1167 H 0.18645 0.25785 0.3269 0.0
H1168 H 0.20759 0.33818 0.29317 0.0
H1169 H 0.2348 0.35903 0.29975 0.0
H1170 H 0.21392 0.36369 0.31733 0.0
H1171 H 0.23924 0.36356 0.35507 0.0
H1172 H 0.26024 0.35924 0.33752 0.0
H1173 H 0.25057 0.3382 0.3565 0.0
H1174 H 0.21403 0.252 0.30284 0.0
H1175 H 0.2452 0.25372 0.28101 0.0
H1176 H 0.26379 0.33287 0.29827 0.0
C1177 C 0.19323 0.32749 0.34688 0.0
C1178 C 0.17546 0.30997 0.3524 0.0
C1179 C 0.17335 0.28487 0.34541 0.0
C1180 C 0.1883 0.27707 0.33248 0.0
C1181 C 0.2052 0.29462 0.32665 0.0
C1182 C 0.20805 0.3193 0.3337 0.0
C1183 C 0.22762 0.334 0.32437 0.0
C1184 C 0.22054 0.34965 0.30766 0.0
C1185 C 0.24547 0.34966 0.34458 0.0
C1186 C 0.23504 0.31359 0.31105 0.0
C1187 C 0.2217 0.29112 0.31256 0.0
C1188 C 0.22475 0.26944 0.30153 0.0
C1189 C 0.24242 0.27067 0.28901 0.0
C1190 C 0.25691 0.29347 0.28792 0.0
C1191 C 0.25292 0.31521 0.29871 0.0
H1192 H 1.00346 0.03415 0.20083 0.0
H1193 H 0.97821 0.09646 0.19759 0.0
H1194 H 0.99488 0.10234 0.16161 0.0
H1195 H 0.05561 0.05703 0.17775 0.0
H1196 H 0.05482 0.02827 0.16 0.0
H1197 H 0.04159 0.02898 0.18604 0.0
H1198 H 1.00508 1.00241 0.16132 0.0
H1199 H 1.0182 1.00171 0.13518 0.0
H1200 H 0.99389 1.01221 0.13605 0.0
H1201 H 1.01519 0.10203 0.12356 0.0
H1202 H 0.03559 0.09537 0.09012 0.0
H1203 H 0.04846 0.03278 0.11453 0.0
C1204 C 1.00151 0.04924 0.1928 0.0
C1205 C 0.98905 0.06496 0.20337 0.0
C1206 C 0.98722 0.08394 0.19096 0.0
C1207 C 0.99684 0.08749 0.17004 0.0
C1208 C 1.00859 0.07179 0.16015 0.0
C1209 C 1.0109 0.05286 0.17116 0.0
C1210 C 0.02384 0.03818 0.15614 0.0
C1211 C 0.04524 0.03811 0.17086 0.0
C1212 C 1.0094 1.01207 0.14662 0.0
C1213 C 0.02886 0.05195 0.13544 0.0
C1214 C 0.01969 0.07127 0.13817 0.0
C1215 C 0.02205 0.08668 0.12149 0.0
C1216 C 0.03372 0.08258 0.10202 0.0
C1217 C 0.04348 0.06298 0.09807 0.0
C1218 C 0.04092 0.04761 0.11575 0.0
H1219 H 0.30673 0.72328 0.48766 0.0
H1220 H 0.28589 0.64705 0.45428 0.0
H1221 H 0.26879 0.65771 0.41872 0.0
H1222 H 0.25927 0.74011 0.46474 0.0
H1223 H 0.27539 0.76935 0.46073 0.0
H1224 H 0.28489 0.75534 0.48372 0.0
H1225 H 0.32176 0.75855 0.46709 0.0
H1226 H 0.31243 0.77284 0.44432 0.0
H1227 H 0.32128 0.74581 0.43664 0.0
H1228 H 0.25626 0.677 0.38657 0.0
H1229 H 0.25181 0.70426 0.35861 0.0
H1230 H 0.27949 0.76703 0.41446 0.0
C1231 C 0.29874 0.70888 0.47275 0.0
C1232 C 0.29777 0.6845 0.47327 0.0
C1233 C 0.28717 0.66596 0.4537 0.0
C1234 C 0.27711 0.67177 0.43374 0.0
C1235 C 0.27795 0.69606 0.43398 0.0
C1236 C 0.28871 0.71433 0.45288 0.0
C1237 C 0.28873 0.73916 0.44826 0.0
C1238 C 0.27632 0.7517 0.46539 0.0
C1239 C 0.31244 0.75501 0.4491 0.0
C1240 C 0.27635 0.73203 0.42366 0.0
C1241 C 0.27011 0.7071 0.41573 0.0
C1242 C 0.26053 0.69649 0.39264 0.0
C1243 C 0.25796 0.71193 0.377 0.0
C1244 C 0.26469 0.73736 0.38494 0.0
C1245 C 0.2734 0.74749 0.40853 0.0
H1246 H 0.64933 1.00862 0.68345 0.0
H1247 H 0.6824 0.08569 0.7056 0.0
H1248 H 0.65943 0.09499 0.67378 0.0
H1249 H 0.64492 1.01125 0.6198 0.0
H1250 H 0.61877 0.98842 0.61303 0.0
H1251 H 0.63867 0.98771 0.63705 0.0
H1252 H 0.60953 0.98828 0.66546 0.0
H1253 H 0.5897 0.98929 0.64159 0.0
H1254 H 0.59637 1.01251 0.6678 0.0
H1255 H 0.6324 0.09624 0.64166 0.0
H1256 H 0.60336 0.0888 0.60772 0.0
H1257 H 0.58829 1.01112 0.60588 0.0
C1258 C 0.65197 0.02728 0.68106 0.0
C1259 C 0.66767 0.04638 0.69627 0.0
C1260 C 0.67069 0.07081 0.69341 0.0
C1261 C 0.65768 0.07631 0.67563 0.0
C1262 C 0.64215 0.05707 0.6609 0.0
C1263 C 0.63946 0.03306 0.66305 0.0
C1264 C 0.62173 1.01595 0.64456 0.0
C1265 C 0.63161 0.99988 0.62761 0.0
C1266 C 0.60324 1.00062 0.65553 0.0
C1267 C 0.61407 0.03421 0.63268 0.0
C1268 C 0.62631 0.05781 0.64221 0.0
C1269 C 0.62269 0.07789 0.63394 0.0
C1270 C 0.60627 0.07355 0.6149 0.0
C1271 C 0.59386 0.04949 0.60494 0.0
C1272 C 0.59745 0.02961 0.61392 0.0
H1273 H 0.33656 0.37521 0.95783 0.0
H1274 H 0.34398 0.30957 0.98057 0.0
H1275 H 0.34163 0.28988 0.93911 0.0
H1276 H 0.29893 0.3475 0.90388 0.0
H1277 H 0.31209 0.36951 0.8873 0.0
H1278 H 0.3134 0.37809 0.91866 0.0
H1279 H 0.35597 0.39218 0.92291 0.0
H1280 H 0.35468 0.38335 0.89156 0.0
H1281 H 0.37057 0.37111 0.91138 0.0
H1282 H 0.33998 0.27764 0.89514 0.0
H1283 H 0.33712 0.27319 0.85177 0.0
H1284 H 0.3305 0.34633 0.85674 0.0
C1285 C 0.33728 0.35655 0.95402 0.0
C1286 C 0.34015 0.34381 0.97255 0.0
C1287 C 0.34167 0.31965 0.96678 0.0
C1288 C 0.34041 0.30833 0.94324 0.0
C1289 C 0.33799 0.32147 0.92546 0.0
C1290 C 0.33646 0.34507 0.93052 0.0
C1291 C 0.33485 0.35542 0.90807 0.0
C1292 C 0.31354 0.36307 0.90426 0.0
C1293 C 0.35522 0.37678 0.90851 0.0
C1294 C 0.33468 0.33361 0.88958 0.0
C1295 C 0.33699 0.31439 0.90008 0.0
C1296 C 0.33808 0.29256 0.88678 0.0
C1297 C 0.33654 0.2902 0.86217 0.0
C1298 C 0.33352 0.30933 0.85098 0.0
C1299 C 0.33264 0.33135 0.8649 0.0
H1300 H 0.99592 1.01659 0.34932 0.0
H1301 H 0.02178 0.09271 0.34611 0.0
H1302 H 0.04137 0.10028 0.38666 0.0
H1303 H 0.98744 0.02969 0.41199 0.0
H1304 H 0.99364 1.00272 0.419 0.0
H1305 H 0.98208 1.00288 0.38945 0.0
H1306 H 1.01474 0.99 0.37357 0.0
H1307 H 0.02632 0.98989 0.4031 0.0
H1308 H 0.04248 1.00804 0.38514 0.0
H1309 H 0.0585 0.10024 0.42891 0.0
H1310 H 0.07057 0.09285 0.46807 0.0
H1311 H 0.03399 0.01682 0.4467 0.0
C1312 C 1.00588 0.03484 0.35702 0.0
C1313 C 1.0073 0.05401 0.34367 0.0
C1314 C 0.02021 0.07759 0.35527 0.0
C1315 C 0.03153 0.08209 0.37857 0.0
C1316 C 0.02974 0.06303 0.39113 0.0
C1317 C 1.01699 0.03984 0.38085 0.0
C1318 C 1.01696 0.02299 0.39898 0.0
C1319 C 0.99365 1.01402 0.40522 0.0
C1320 C 0.02565 1.00145 0.38963 0.0
C1321 C 0.03257 0.03991 0.4205 0.0
C1322 C 0.03939 0.06305 0.41557 0.0
C1323 C 0.05315 0.08211 0.43272 0.0
C1324 C 0.05999 0.07771 0.45521 0.0
C1325 C 0.0536 0.05425 0.46118 0.0
C1326 C 0.03962 0.03502 0.44313 0.0
H1327 H 0.30816 0.67586 0.61962 0.0
H1328 H 0.33822 0.72789 0.57772 0.0
H1329 H 0.33488 0.76137 0.60732 0.0
H1330 H 0.27021 0.70954 0.64261 0.0
H1331 H 0.27368 0.70188 0.67135 0.0
H1332 H 0.27602 0.68123 0.64571 0.0
H1333 H 0.31486 0.68165 0.66454 0.0
H1334 H 0.31243 0.70196 0.69025 0.0
H1335 H 0.33553 0.71033 0.67463 0.0
H1336 H 0.32876 0.78892 0.64006 0.0
H1337 H 0.32803 0.81082 0.67951 0.0
H1338 H 0.3047 0.74199 0.70243 0.0
C1339 C 0.31415 0.69432 0.61679 0.0
C1340 C 0.32339 0.69928 0.59637 0.0
C1341 C 0.33112 0.72364 0.59325 0.0
C1342 C 0.32899 0.74277 0.60976 0.0
C1343 C 0.31922 0.73724 0.62928 0.0
C1344 C 0.31237 0.71375 0.63326 0.0
C1345 C 0.30444 0.7133 0.65695 0.0
C1346 C 0.27962 0.70074 0.65397 0.0
C1347 C 0.31762 0.70112 0.67251 0.0
C1348 C 0.30928 0.74037 0.6661 0.0
C1349 C 0.31677 0.75363 0.64929 0.0
C1350 C 0.32287 0.77888 0.65344 0.0
C1351 C 0.32237 0.79113 0.67587 0.0
C1352 C 0.31646 0.77802 0.69388 0.0
C1353 C 0.30909 0.75236 0.68881 0.0
H1354 H 0.64497 0.04154 0.82775 0.0
H1355 H 0.68586 0.11211 0.82215 0.0
H1356 H 0.68062 0.12939 0.8623 0.0
H1357 H 0.60612 0.06138 0.85588 0.0
H1358 H 0.60218 0.03911 0.87467 0.0
H1359 H 0.61133 0.03239 0.84677 0.0
H1360 H 0.64573 0.02343 0.86751 0.0
H1361 H 0.6365 0.02989 0.89552 0.0
H1362 H 0.66361 0.04606 0.89105 0.0
H1363 H 0.66616 0.13939 0.90071 0.0
H1364 H 0.64633 0.14012 0.93568 0.0
H1365 H 0.61752 0.0622 0.91529 0.0
C1366 C 0.65306 0.06047 0.83529 0.0
C1367 C 0.66552 0.07578 0.8224 0.0
C1368 C 0.67607 0.10045 0.83226 0.0
C1369 C 0.67329 0.11029 0.85491 0.0
C1370 C 0.66034 0.09482 0.86723 0.0
C1371 C 0.65077 0.07035 0.85788 0.0
C1372 C 0.6368 0.05773 0.87396 0.0
C1373 C 0.61269 0.04705 0.86212 0.0
C1374 C 0.64623 0.03812 0.88252 0.0
C1375 C 0.6394 0.07901 0.89347 0.0
C1376 C 0.653 0.10034 0.88951 0.0
C1377 C 0.65598 0.1227 0.90443 0.0
C1378 C 0.64475 0.12304 0.92404 0.0
C1379 C 0.63118 0.10111 0.92817 0.0
C1380 C 0.62856 0.07902 0.91279 0.0
H1381 H 0.30326 0.35704 0.11073 0.0
H1382 H 0.37233 0.36159 0.11021 0.0
H1383 H 0.37329 0.34517 0.14696 0.0
H1384 H 0.30405 0.37189 0.17313 0.0
H1385 H 0.27856 0.34972 0.17407 0.0
H1386 H 0.28294 0.36206 0.14779 0.0
H1387 H 0.27493 0.31855 0.12347 0.0
H1388 H 0.27047 0.30611 0.1497 0.0
H1389 H 0.29048 0.29855 0.13219 0.0
H1390 H 0.36781 0.33161 0.18567 0.0
H1391 H 0.35515 0.31612 0.22054 0.0
H1392 H 0.2884 0.31513 0.19502 0.0
C1393 C 0.31849 0.35431 0.11828 0.0
C1394 C 0.33782 0.36065 0.10748 0.0
C1395 C 0.35735 0.35674 0.11795 0.0
C1396 C 0.35806 0.34753 0.13895 0.0
C1397 C 0.33893 0.34164 0.14927 0.0
C1398 C 0.31932 0.34429 0.13903 0.0
C1399 C 0.30098 0.3354 0.15343 0.0
C1400 C 0.29105 0.35601 0.16264 0.0
C1401 C 0.28316 0.31334 0.13882 0.0
C1402 C 0.3135 0.32809 0.17362 0.0
C1403 C 0.33543 0.33215 0.17091 0.0
C1404 C 0.3506 0.32807 0.18775 0.0
C1405 C 0.34324 0.31938 0.20767 0.0
C1406 C 0.32075 0.3143 0.2107 0.0
C1407 C 0.30568 0.3187 0.19326 0.0
H1408 H 0.26546 0.96288 0.04941 0.0
H1409 H 0.30144 0.01771 0.01402 0.0
H1410 H 0.2741 0.04086 0.01999 0.0
H1411 H 0.21062 0.96391 0.02641 0.0
H1412 H 0.19959 0.96042 0.05346 0.0
H1413 H 0.22189 0.94793 0.04651 0.0
H1414 H 0.24513 0.97199 0.08609 0.0
H1415 H 0.22294 0.98465 0.09316 0.0
H1416 H 0.2499 1.00452 0.09313 0.0
H1417 H 0.24475 0.0585 0.0306 0.0
H1418 H 0.21219 0.06946 0.04323 0.0
H1419 H 0.19325 1.00277 0.07068 0.0
C1420 C 0.26723 0.9796 0.04271 0.0
C1421 C 0.28511 0.98863 0.03097 0.0
C1422 C 0.28752 1.01063 0.02273 0.0
C1423 C 0.27221 0.02385 0.02615 0.0
C1424 C 0.25472 1.01466 0.03784 0.0
C1425 C 0.25195 0.99301 0.0459 0.0
C1426 C 0.23159 0.98753 0.05797 0.0
C1427 C 0.21493 0.96353 0.04532 0.0
C1428 C 0.23777 0.98715 0.08414 0.0
C1429 C 0.22324 1.00935 0.05501 0.0
C1430 C 0.23716 0.02484 0.04369 0.0
C1431 C 0.23365 0.04658 0.03944 0.0
C1432 C 0.21526 0.05271 0.0468 0.0
C1433 C 0.20054 0.03708 0.0581 0.0
C1434 C 0.20443 1.01501 0.06217 0.0
H1435 H 0.73994 0.64766 0.04776 0.0
H1436 H 0.73376 0.64772 0.97288 0.0
H1437 H 0.69533 0.62194 0.96795 0.0
H1438 H 0.70706 0.58704 0.04632 0.0
H1439 H 0.69377 0.59477 0.07128 0.0
H1440 H 0.72081 0.61305 0.06904 0.0
H1441 H 0.70683 0.65141 0.07292 0.0
H1442 H 0.6797 0.63326 0.07515 0.0
H1443 H 0.68345 0.65178 0.05288 0.0
H1444 H 0.65858 0.59487 0.97058 0.0
H1445 H 0.62467 0.56908 0.98023 0.0
H1446 H 0.65203 0.58775 0.05426 0.0
C1447 C 0.73045 0.64207 0.03032 0.0
C1448 C 0.73996 0.64938 1.01054 0.0
C1449 C 0.7269 0.64224 0.98816 0.0
C1450 C 0.70505 0.62761 0.98525 0.0
C1451 C 0.69613 0.62075 1.00501 0.0
C1452 C 0.70826 0.62797 0.02721 0.0
C1453 C 0.69422 0.61865 0.04551 0.0
C1454 C 0.70458 0.6024 0.05881 0.0
C1455 C 0.69085 0.64005 0.06263 0.0
C1456 C 0.67261 0.60406 0.02996 0.0
C1457 C 0.67425 0.60583 1.0067 0.0
C1458 C 0.65704 0.59358 0.98873 0.0
C1459 C 0.63777 0.57891 0.99444 0.0
C1460 C 0.63541 0.57643 0.01798 0.0
C1461 C 0.65308 0.58954 0.03613 0.0
H1462 H 0.73971 0.44268 0.29912 0.0
H1463 H 0.74897 0.45671 0.22925 0.0
H1464 H 0.76596 0.42288 0.22255 0.0
H1465 H 0.79242 0.42631 0.31067 0.0
H1466 H 0.78159 0.40278 0.32674 0.0
H1467 H 0.76975 0.42793 0.3266 0.0
H1468 H 0.73149 0.39785 0.31116 0.0
H1469 H 0.74333 0.37272 0.31139 0.0
H1470 H 0.72795 0.37549 0.28471 0.0
H1471 H 0.78395 0.38621 0.22297 0.0
H1472 H 0.79924 0.35242 0.23039 0.0
H1473 H 0.77933 0.35858 0.29965 0.0
C1474 C 0.74522 0.43876 0.2823 0.0
C1475 C 0.74242 0.45363 0.26473 0.0
C1476 C 0.75045 0.44675 0.24332 0.0
C1477 C 0.76032 0.42709 0.23926 0.0
C1478 C 0.76288 0.41323 0.25667 0.0
C1479 C 0.75555 0.41884 0.27793 0.0
C1480 C 0.76084 0.40101 0.29376 0.0
C1481 C 0.7771 0.41536 0.31577 0.0
C1482 C 0.73963 0.38587 0.30068 0.0
C1483 C 0.7717 0.3843 0.27808 0.0
C1484 C 0.77286 0.39204 0.25678 0.0
C1485 C 0.78278 0.38024 0.23965 0.0
C1486 C 0.79157 0.36063 0.24405 0.0
C1487 C 0.7906 0.35143 0.2654 0.0
C1488 C 0.78028 0.36402 0.28272 0.0
H1489 H 0.90755 0.46125 0.4938 0.0
H1490 H 0.88539 0.50594 0.54808 0.0
H1491 H 0.92393 0.52662 0.5655 0.0
H1492 H 0.95563 0.45553 0.52996 0.0
H1493 H 0.97226 0.45787 0.5066 0.0
H1494 H 0.94289 0.44486 0.49973 0.0
H1495 H 0.9406 0.47613 0.4728 0.0
H1496 H 0.96992 0.48908 0.47951 0.0
H1497 H 0.95184 0.50818 0.48464 0.0
H1498 H 0.96393 0.54243 0.57666 0.0
H1499 H 1.00407 0.55749 0.5774 0.0
H1500 H 1.00001 0.50426 0.51448 0.0
C1501 C 0.91095 0.4756 0.50919 0.0
C1502 C 0.89387 0.48248 0.51948 0.0
C1503 C 0.89853 0.50104 0.5397 0.0
C1504 C 0.92023 0.51248 0.54995 0.0
C1505 C 0.93678 0.50514 0.53953 0.0
C1506 C 0.93247 0.48747 0.51938 0.0
C1507 C 0.95331 0.48457 0.5105 0.0
C1508 C 0.95618 0.4592 0.51179 0.0
C1509 C 0.95396 0.48983 0.48539 0.0
C1510 C 0.96992 0.50404 0.52838 0.0
C1511 C 0.96007 0.51507 0.54542 0.0
C1512 C 0.97195 0.53392 0.56356 0.0
C1513 C 0.99461 0.54224 0.56392 0.0
C1514 C 1.00468 0.53185 0.54601 0.0
C1515 C 0.99238 0.51236 0.52828 0.0
H1516 H 0.42882 0.12192 0.30519 0.0
H1517 H 0.3881 0.05061 0.26906 0.0
H1518 H 0.36399 0.06987 0.24779 0.0
H1519 H 0.38522 0.14877 0.31311 0.0
H1520 H 0.40033 0.17811 0.30831 0.0
H1521 H 0.4148 0.15858 0.31997 0.0
H1522 H 0.43836 0.16095 0.28589 0.0
H1523 H 0.42378 0.18041 0.27416 0.0
H1524 H 0.42482 0.15268 0.25585 0.0
H1525 H 0.34358 0.09617 0.23223 0.0
H1526 H 0.32656 0.12833 0.22459 0.0
H1527 H 0.38187 0.1827 0.26889 0.0
C1528 C 0.41474 0.11037 0.29296 0.0
C1529 C 0.41017 0.08488 0.28889 0.0
C1530 C 0.39175 0.07026 0.27256 0.0
C1531 C 0.37809 0.08098 0.26024 0.0
C1532 C 0.38327 0.10621 0.26442 0.0
C1533 C 0.40105 0.12074 0.2804 0.0
C1534 C 0.40247 0.14737 0.28222 0.0
C1535 C 0.40058 0.15888 0.30739 0.0
C1536 C 0.42362 0.16115 0.27403 0.0
C1537 C 0.38239 0.14544 0.26511 0.0
C1538 C 0.37168 0.12156 0.2549 0.0
C1539 C 0.35194 0.11501 0.23973 0.0
C1540 C 0.34253 0.13342 0.23535 0.0
C1541 C 0.35303 0.15795 0.24602 0.0
C1542 C 0.37348 0.16406 0.26056 0.0
H1543 H 0.37466 0.16151 0.56644 0.0
H1544 H 0.35252 0.13519 0.49166 0.0
H1545 H 0.38326 0.11672 0.48889 0.0
H1546 H 0.43398 0.17652 0.55982 0.0
H1547 H 0.44242 0.16831 0.58718 0.0
H1548 H 0.41863 0.17968 0.58403 0.0
H1549 H 0.39512 0.14111 0.59606 0.0
H1550 H 0.41888 0.12972 0.59911 0.0
H1551 H 0.3942 0.1115 0.57997 0.0
H1552 H 0.41502 0.10071 0.4933 0.0
H1553 H 0.44814 0.08829 0.50462 0.0
H1554 H 0.45226 0.12503 0.57662 0.0
C1555 C 0.37633 0.15173 0.54956 0.0
C1556 C 0.36105 0.14953 0.52918 0.0
C1557 C 0.36398 0.13707 0.50737 0.0
C1558 C 0.38138 0.12651 0.50565 0.0
C1559 C 0.39615 0.12899 0.52582 0.0
C1560 C 0.39415 0.14152 0.54738 0.0
C1561 C 0.4132 0.14203 0.5659 0.0
C1562 C 0.42792 0.16819 0.57475 0.0
C1563 C 0.40483 0.13038 0.58647 0.0
C1564 C 0.42534 0.12677 0.55147 0.0
C1565 C 0.41524 0.11988 0.52835 0.0
C1566 C 0.42321 0.10612 0.5113 0.0
C1567 C 0.4421 0.09925 0.51787 0.0
C1568 C 0.45291 0.10593 0.54136 0.0
C1569 C 0.44432 0.11975 0.55851 0.0
H1570 H 0.73494 0.60165 0.25836 0.0
H1571 H 0.74548 0.60569 0.33375 0.0
H1572 H 0.76471 0.64953 0.33911 0.0
H1573 H 0.78671 0.64552 0.25288 0.0
H1574 H 0.77436 0.65943 0.23154 0.0
H1575 H 0.76194 0.62821 0.23338 0.0
H1576 H 0.72534 0.63826 0.239 0.0
H1577 H 0.73775 0.6696 0.23744 0.0
H1578 H 0.72483 0.66225 0.26259 0.0
H1579 H 0.78309 0.69505 0.33686 0.0
H1580 H 0.80011 0.73513 0.32714 0.0
H1581 H 0.77923 0.70454 0.25309 0.0
C1582 C 0.74175 0.61156 0.27602 0.0
C1583 C 0.73892 0.59904 0.29566 0.0
C1584 C 0.7475 0.61382 0.31827 0.0
C1585 C 0.75847 0.63916 0.32151 0.0
C1586 C 0.76082 0.65081 0.30207 0.0
C1587 C 0.75269 0.63742 0.27964 0.0
C1588 C 0.75692 0.6549 0.26187 0.0
C1589 C 0.77082 0.64651 0.24385 0.0
C1590 C 0.73491 0.65632 0.24947 0.0
C1591 C 0.76957 0.67981 0.27758 0.0
C1592 C 0.7711 0.67697 0.30081 0.0
C1593 C 0.78166 0.69718 0.31866 0.0
C1594 C 0.79117 0.72035 0.31295 0.0
C1595 C 0.79058 0.72435 0.28939 0.0
C1596 C 0.77949 0.70316 0.27146 0.0
H1597 H 0.9206 0.48235 0.84649 0.0
H1598 H 0.92832 0.49932 0.77731 0.0
H1599 H 0.90014 0.4609 0.75893 0.0
H1600 H 0.91697 0.41997 0.8287 0.0
H1601 H 0.89809 0.41026 0.84872 0.0
H1602 H 0.91717 0.4401 0.85576 0.0
H1603 H 0.88426 0.45864 0.8604 0.0
H1604 H 0.86515 0.42875 0.85264 0.0
H1605 H 0.86223 0.45197 0.83621 0.0
H1606 H 0.8743 0.41959 0.74833 0.0
H1607 H 0.85334 0.37667 0.74627 0.0
H1608 H 0.86298 0.38845 0.82272 0.0
C1609 C 0.91594 0.47801 0.82755 0.0
C1610 C 0.92597 0.49326 0.81309 0.0
C1611 C 0.92032 0.48734 0.78835 0.0
C1612 C 0.90439 0.46585 0.77788 0.0
C1613 C 0.89464 0.45091 0.7926 0.0
C1614 C 0.90035 0.45658 0.81686 0.0
C1615 C 0.88933 0.43633 0.82852 0.0
C1616 C 0.9064 0.42607 0.84115 0.0
C1617 C 0.87434 0.44442 0.84542 0.0
C1618 C 0.87635 0.4186 0.80704 0.0
C1619 C 0.8796 0.42716 0.78645 0.0
C1620 C 0.87124 0.41269 0.76429 0.0
C1621 C 0.85958 0.38848 0.76326 0.0
C1622 C 0.85667 0.37959 0.78431 0.0
C1623 C 0.86462 0.39497 0.80632 0.0
H1624 H 0.11706 0.89001 0.06529 0.0
H1625 H 0.08141 0.88868 0.12523 0.0
H1626 H 0.06942 0.92396 0.11646 0.0
H1627 H 0.13559 0.95547 0.0702 0.0
H1628 H 0.13119 0.95505 0.03903 0.0
H1629 H 0.13721 0.92948 0.04959 0.0
H1630 H 0.10159 0.90082 0.02421 0.0
H1631 H 0.09551 0.92641 0.01369 0.0
H1632 H 0.07562 0.90716 0.02753 0.0
H1633 H 0.06092 0.95974 0.1017 0.0
H1634 H 0.05711 0.9937 0.08208 0.0
H1635 H 0.09791 0.97373 0.03128 0.0
C1636 C 0.10673 0.89713 0.07658 0.0
C1637 C 0.10028 0.88618 0.09613 0.0
C1638 C 0.08663 0.89631 0.11019 0.0
C1639 C 0.0797 0.91652 0.10534 0.0
C1640 C 0.08624 0.92676 0.0861 0.0
C1641 C 0.09941 0.91743 0.07181 0.0
C1642 C 0.10366 0.93194 0.052 0.0
C1643 C 0.12839 0.94367 0.05277 0.0
C1644 C 0.0935 0.91561 0.02793 0.0
C1645 C 0.09151 0.95127 0.05794 0.0
C1646 C 0.08134 0.94761 0.07754 0.0
C1647 C 0.06885 0.9627 0.08637 0.0
C1648 C 0.06674 0.982 0.07508 0.0
C1649 C 0.07718 0.98651 0.05519 0.0
C1650 C 0.08976 0.97083 0.0465 0.0
H1651 H 0.9769 0.27094 0.85688 0.0
H1652 H 0.96107 0.29382 0.92619 0.0
H1653 H 0.92778 0.30208 0.90811 0.0
H1654 H 0.95785 0.3154 0.82905 0.0
H1655 H 0.94641 0.29487 0.80144 0.0
H1656 H 0.96923 0.29061 0.81961 0.0
H1657 H 0.94697 0.24651 0.81984 0.0
H1658 H 0.92414 0.25061 0.80155 0.0
H1659 H 0.92021 0.24102 0.82922 0.0
H1660 H 0.8946 0.30822 0.88176 0.0
H1661 H 0.8663 0.31066 0.85 0.0
H1662 H 0.90306 0.28375 0.79808 0.0
C1663 C 0.96644 0.2776 0.86831 0.0
C1664 C 0.97206 0.28149 0.89329 0.0
C1665 C 0.95753 0.29037 0.90717 0.0
C1666 C 0.93837 0.29525 0.89699 0.0
C1667 C 0.9333 0.29121 0.87253 0.0
C1668 C 0.94694 0.2825 0.85834 0.0
C1669 C 0.93757 0.2796 0.83248 0.0
C1670 C 0.95373 0.29611 0.81991 0.0
C1671 C 0.93189 0.25285 0.82004 0.0
C1672 C 0.91671 0.28797 0.8344 0.0
C1673 C 0.91446 0.29467 0.85763 0.0
C1674 C 0.89631 0.30293 0.86351 0.0
C1675 C 0.88017 0.30427 0.84532 0.0
C1676 C 0.88204 0.29735 0.82131 0.0
C1677 C 0.90079 0.28918 0.81614 0.0
H1678 H 0.5882 0.23816 0.56571 0.0
H1679 H 0.63774 0.25197 0.62686 0.0
H1680 H 0.63862 0.20935 0.61873 0.0
H1681 H 0.55767 0.18015 0.5696 0.0
H1682 H 0.55354 0.16643 0.53886 0.0
H1683 H 0.558 0.19876 0.5474 0.0
H1684 H 0.59093 0.20648 0.52395 0.0
H1685 H 0.58647 0.17409 0.51528 0.0
H1686 H 0.61298 0.193 0.52997 0.0
H1687 H 0.63303 0.16548 0.60633 0.0
H1688 H 0.62155 0.1218 0.58941 0.0
H1689 H 0.57473 0.13364 0.5361 0.0
C1690 C 0.59975 0.23231 0.57677 0.0
C1691 C 0.61333 0.24858 0.59668 0.0
C1692 C 0.62766 0.24002 0.61125 0.0
C1693 C 0.62819 0.21577 0.60686 0.0
C1694 C 0.61448 0.20006 0.58752 0.0
C1695 C 0.60076 0.20787 0.57238 0.0
C1696 C 0.58764 0.18655 0.55307 0.0
C1697 C 0.56273 0.18276 0.55221 0.0
C1698 C 0.59492 0.19025 0.52914 0.0
C1699 C 0.59475 0.1655 0.56104 0.0
C1700 C 0.61079 0.17404 0.58053 0.0
C1701 C 0.62052 0.15858 0.59101 0.0
C1702 C 0.61382 0.13372 0.58127 0.0
C1703 C 0.59705 0.12422 0.56161 0.0
C1704 C 0.58735 0.14037 0.55134 0.0
H1705 H 0.59221 0.81218 0.37339 0.0
H1706 H 0.59495 0.7539 0.41142 0.0
H1707 H 0.63101 0.75396 0.39985 0.0
H1708 H 0.61722 0.79223 0.32434 0.0
H1709 H 0.6336 0.82205 0.32217 0.0
H1710 H 0.60821 0.81872 0.33426 0.0
H1711 H 0.62909 0.84896 0.37213 0.0
H1712 H 0.65457 0.85218 0.36012 0.0
H1713 H 0.65227 0.84309 0.38822 0.0
H1714 H 0.66661 0.75973 0.38505 0.0
H1715 H 0.69849 0.76803 0.36396 0.0
H1716 H 0.67345 0.82099 0.33274 0.0
C1717 C 0.60029 0.79922 0.37894 0.0
C1718 C 0.59043 0.78281 0.39318 0.0
C1719 C 0.60192 0.76658 0.4005 0.0
C1720 C 0.62258 0.76655 0.39414 0.0
C1721 C 0.63194 0.78298 0.38046 0.0
C1722 C 0.62128 0.799 0.37279 0.0
C1723 C 0.63537 0.81441 0.35789 0.0
C1724 C 0.62285 0.81167 0.33319 0.0
C1725 C 0.64328 0.84125 0.37033 0.0
C1726 C 0.65465 0.80322 0.35715 0.0
C1727 C 0.65257 0.78576 0.37105 0.0
C1728 C 0.66829 0.77313 0.3738 0.0
C1729 C 0.6863 0.77781 0.36145 0.0
C1730 C 0.68845 0.79464 0.34593 0.0
C1731 C 0.6725 0.80793 0.34429 0.0
H1732 H 0.14123 0.27858 0.45042 0.0
H1733 H 0.07783 0.2915 0.43332 0.0
H1734 H 0.05967 0.25552 0.44927 0.0
H1735 H 0.12341 0.21339 0.43775 0.0
H1736 H 0.14113 0.20989 0.46237 0.0
H1737 H 0.14905 0.23629 0.44902 0.0
H1738 H 0.15302 0.26446 0.48942 0.0
H1739 H 0.1453 0.23819 0.50297 0.0
H1740 H 0.13019 0.26066 0.5059 0.0
H1741 H 0.04851 0.21806 0.46547 0.0
H1742 H 0.04487 0.18306 0.48546 0.0
H1743 H 0.11591 0.19616 0.495 0.0
C1744 C 0.12358 0.27379 0.45032 0.0
C1745 C 0.11074 0.2875 0.44101 0.0
C1746 C 0.08773 0.28106 0.4408 0.0
C1747 C 0.07733 0.26067 0.44959 0.0
C1748 C 0.09036 0.24731 0.45865 0.0
C1749 C 0.11298 0.25375 0.45946 0.0
C1750 C 0.12313 0.23686 0.47115 0.0
C1751 C 0.13487 0.2233 0.45404 0.0
C1752 C 0.13883 0.25087 0.4937 0.0
C1753 C 0.10263 0.21984 0.4766 0.0
C1754 C 0.08394 0.22609 0.46897 0.0
C1755 C 0.06301 0.21306 0.47178 0.0
C1756 C 0.06113 0.19331 0.48322 0.0
C1757 C 0.08011 0.18707 0.49198 0.0
C1758 C 0.10109 0.20034 0.4883 0.0
H1759 H 0.57215 0.22721 0.21184 0.0
H1760 H 0.58009 0.30405 0.21358 0.0
H1761 H 0.62027 0.31255 0.22539 0.0
H1762 H 0.61452 0.23084 0.2596 0.0
H1763 H 0.62333 0.2063 0.24412 0.0
H1764 H 0.59517 0.20695 0.23827 0.0
H1765 H 0.59844 0.20439 0.19387 0.0
H1766 H 0.6267 0.20403 0.19968 0.0
H1767 H 0.61981 0.22677 0.18486 0.0
H1768 H 0.6592 0.31213 0.23442 0.0
H1769 H 0.69495 0.30307 0.24251 0.0
H1770 H 0.66119 0.22624 0.23307 0.0
C1771 C 0.58231 0.2459 0.21579 0.0
C1772 C 0.57331 0.26521 0.213 0.0
C1773 C 0.58695 0.28931 0.21662 0.0
C1774 C 0.60966 0.2942 0.22301 0.0
C1775 C 0.61819 0.27463 0.22503 0.0
C1776 C 0.60497 0.25096 0.22151 0.0
C1777 C 0.61835 0.23302 0.22286 0.0
C1778 C 0.6125 0.21844 0.24239 0.0
C1779 C 0.61566 0.21606 0.1989 0.0
C1780 C 0.64111 0.25044 0.22883 0.0
C1781 C 0.6407 0.2743 0.22954 0.0
C1782 C 0.6598 0.29357 0.23406 0.0
C1783 C 0.6799 0.28831 0.2385 0.0
C1784 C 0.68043 0.26408 0.2385 0.0
C1785 C 0.66092 0.24492 0.23337 0.0
H1786 H 0.62608 0.89894 0.97097 0.0
H1787 H 0.62299 0.92297 0.9038 0.0
H1788 H 0.61125 0.95798 0.92173 0.0
H1789 H 0.57864 0.91621 0.9886 0.0
H1790 H 0.5902 0.92634 0.01921 0.0
H1791 H 0.59833 0.90263 1.00145 0.0
H1792 H 0.63928 0.92758 1.0124 0.0
H1793 H 0.63125 0.95114 0.03044 0.0
H1794 H 0.6475 0.95842 1.00749 0.0
H1795 H 0.59743 0.9884 0.94545 0.0
H1796 H 0.58767 0.01678 0.97619 0.0
H1797 H 0.60269 0.97548 0.02849 0.0
C1798 C 0.62325 0.91176 0.96013 0.0
C1799 C 0.62547 0.90826 0.936 0.0
C1800 C 0.62141 0.9253 0.92234 0.0
C1801 C 0.6146 0.94516 0.93228 0.0
C1802 C 0.61206 0.94776 0.95589 0.0
C1803 C 0.61654 0.93183 0.9698 0.0
C1804 C 0.61277 0.93924 0.99485 0.0
C1805 C 0.59386 0.91996 1.0014 0.0
C1806 C 0.63397 0.94441 1.01232 0.0
C1807 C 0.60623 0.96223 0.99282 0.0
C1808 C 0.60527 0.96635 0.97004 0.0
C1809 C 0.59851 0.98572 0.96349 0.0
C1810 C 0.59309 1.00175 0.98095 0.0
C1811 C 0.59528 0.99861 1.00451 0.0
C1812 C 0.60159 0.97849 1.01054 0.0
H1813 H 0.96869 0.76841 0.74423 0.0
H1814 H 0.94254 0.75235 0.66998 0.0
H1815 H 0.909 0.76369 0.67954 0.0
H1816 H 0.91931 0.74716 0.76676 0.0
H1817 H 0.92557 0.77154 0.79197 0.0
H1818 H 0.94753 0.76252 0.77912 0.0
H1819 H 0.96432 0.807 0.77405 0.0
H1820 H 0.9422 0.81599 0.78669 0.0
H1821 H 0.94766 0.82179 0.75799 0.0
H1822 H 0.87786 0.7732 0.69698 0.0
H1823 H 0.85057 0.78262 0.72161 0.0
H1824 H 0.89798 0.79607 0.7845 0.0
C1825 C 0.95588 0.76746 0.73009 0.0
C1826 C 0.95783 0.75953 0.70646 0.0
C1827 C 0.94111 0.75859 0.68817 0.0
C1828 C 0.92213 0.76495 0.69343 0.0
C1829 C 0.92066 0.77279 0.71694 0.0
C1830 C 0.93715 0.77442 0.73498 0.0
C1831 C 0.93144 0.78363 0.75871 0.0
C1832 C 0.93093 0.76509 0.77509 0.0
C1833 C 0.94735 0.80858 0.77003 0.0
C1834 C 0.9087 0.78577 0.75124 0.0
C1835 C 0.90292 0.77953 0.72703 0.0
C1836 C 0.88224 0.77847 0.71589 0.0
C1837 C 0.86691 0.78366 0.72993 0.0
C1838 C 0.87251 0.78985 0.75464 0.0
C1839 C 0.89366 0.79147 0.76553 0.0
H1840 H 0.13044 1.01072 0.86304 0.0
H1841 H 0.15681 0.08845 0.86824 0.0
H1842 H 0.14301 0.09552 0.90625 0.0
H1843 H 0.07964 1.0162 0.88879 0.0
H1844 H 0.0781 0.99106 0.90391 0.0
H1845 H 0.09038 0.99153 0.87726 0.0
H1846 H 0.12587 0.98667 0.89909 0.0
H1847 H 0.11364 0.98625 0.92577 0.0
H1848 H 0.13957 1.00806 0.9256 0.0
H1849 H 0.12676 0.09475 0.94672 0.0
H1850 H 0.10829 0.08618 0.98128 0.0
H1851 H 0.08903 1.00925 0.95112 0.0
C1852 C 0.13345 0.02932 0.8721 0.0
C1853 C 0.14545 0.04904 0.86167 0.0
C1854 C 0.14808 0.07279 0.87488 0.0
C1855 C 0.14018 0.07705 0.89693 0.0
C1856 C 0.12867 0.05754 0.90658 0.0
C1857 C 0.12493 0.03402 0.89429 0.0
C1858 C 0.11101 1.01642 0.90829 0.0
C1859 C 0.08845 1.00299 0.89369 0.0
C1860 C 0.12325 0.99826 0.91508 0.0
C1861 C 0.10827 0.03345 0.93058 0.0
C1862 C 0.11863 0.05718 0.92913 0.0
C1863 C 0.1186 0.07612 0.9476 0.0
C1864 C 0.10793 0.07103 0.96758 0.0
C1865 C 0.0968 0.047 0.96998 0.0
C1866 C 0.09719 0.02799 0.95064 0.0
H1867 H 0.84951 0.43082 0.59185 0.0
H1868 H 0.83118 0.36544 0.53763 0.0
H1869 H 0.84561 0.34339 0.56538 0.0
H1870 H 0.9001 0.41889 0.62121 0.0
H1871 H 0.89519 0.43083 0.65009 0.0
H1872 H 0.88696 0.44307 0.62509 0.0
H1873 H 0.84708 0.43398 0.63485 0.0
H1874 H 0.85524 0.42187 0.65982 0.0
H1875 H 0.83289 0.4035 0.63759 0.0
H1876 H 0.85923 0.32786 0.59783 0.0
H1877 H 0.86527 0.31665 0.63635 0.0
H1878 H 0.87291 0.39094 0.67101 0.0
C1879 C 0.84866 0.41188 0.58584 0.0
C1880 C 0.83931 0.39975 0.56268 0.0
C1881 C 0.83819 0.37497 0.55538 0.0
C1882 C 0.84671 0.36245 0.57083 0.0
C1883 C 0.85625 0.37505 0.59335 0.0
C1884 C 0.857 0.39907 0.60107 0.0
C1885 C 0.86566 0.4073 0.62706 0.0
C1886 C 0.88832 0.42614 0.63109 0.0
C1887 C 0.84922 0.41721 0.64062 0.0
C1888 C 0.86773 0.38343 0.633 0.0
C1889 C 0.8634 0.36556 0.61297 0.0
C1890 C 0.86312 0.34168 0.61365 0.0
C1891 C 0.86664 0.33555 0.63553 0.0
C1892 C 0.86996 0.35317 0.65627 0.0
C1893 C 0.87091 0.37749 0.65517 0.0
H1894 H 0.52157 0.08073 0.3909 0.0
H1895 H 0.48654 1.00416 0.37206 0.0
H1896 H 0.49665 0.99886 0.41249 0.0
H1897 H 0.56605 0.07389 0.41919 0.0
H1898 H 0.57233 0.09981 0.44291 0.0
H1899 H 0.55662 0.10016 0.41566 0.0
H1900 H 0.525 0.10857 0.43783 0.0
H1901 H 0.54087 0.10857 0.46532 0.0
H1902 H 0.5134 0.08856 0.45696 0.0
H1903 H 0.51555 0.99975 0.45074 0.0
H1904 H 0.54389 1.00623 0.48482 0.0
H1905 H 0.5699 0.08143 0.47817 0.0
C1906 C 0.51536 0.06323 0.39583 0.0
C1907 C 0.50326 0.04288 0.37902 0.0
C1908 C 0.49581 0.01986 0.38519 0.0
C1909 C 0.50122 0.01678 0.40805 0.0
C1910 C 0.51409 0.03695 0.42423 0.0
C1911 C 0.52106 0.0598 0.41853 0.0
C1912 C 0.53815 0.07716 0.4377 0.0
C1913 C 0.55954 0.08838 0.42828 0.0
C1914 C 0.52879 0.09688 0.45019 0.0
C1915 C 0.54137 0.05983 0.45363 0.0
C1916 C 0.52648 0.03712 0.44617 0.0
C1917 C 0.52701 0.01755 0.45705 0.0
C1918 C 0.54329 0.02132 0.47611 0.0
C1919 C 0.55906 0.04419 0.48341 0.0
C1920 C 0.55806 0.06376 0.47237 0.0
H1921 H 0.79522 0.71101 0.10108 0.0
H1922 H 0.82526 0.77867 0.07929 0.0
H1923 H 0.82768 0.80088 0.12021 0.0
H1924 H 0.76233 0.73552 0.14073 0.0
H1925 H 0.76553 0.71607 0.16141 0.0
H1926 H 0.7662 0.70605 0.13061 0.0
H1927 H 0.8043 0.69881 0.14077 0.0
H1928 H 0.80368 0.70869 0.17156 0.0
H1929 H 0.82649 0.72331 0.15794 0.0
H1930 H 0.82815 0.81509 0.16472 0.0
H1931 H 0.82587 0.82021 0.20741 0.0
H1932 H 0.79428 0.74319 0.19944 0.0
C1933 C 0.80226 0.73056 0.10481 0.0
C1934 C 0.81008 0.7431 0.08685 0.0
C1935 C 0.81898 0.76868 0.09258 0.0
C1936 C 0.82049 0.78138 0.11583 0.0
C1937 C 0.81266 0.76832 0.13308 0.0
C1938 C 0.80355 0.74344 0.12769 0.0
C1939 C 0.79612 0.73344 0.14912 0.0
C1940 C 0.77106 0.7221 0.14523 0.0
C1941 C 0.80839 0.71498 0.1552 0.0
C1942 C 0.80279 0.7565 0.16777 0.0
C1943 C 0.81228 0.77646 0.15817 0.0
C1944 C 0.82039 0.79962 0.17218 0.0
C1945 C 0.81887 0.80243 0.19642 0.0
C1946 C 0.8092 0.78233 0.20661 0.0
C1947 C 0.8011 0.75904 0.19201 0.0
H1948 H 0.15602 1.00056 0.69169 0.0
H1949 H 0.13993 0.05758 0.7385 0.0
H1950 H 0.12171 0.06895 0.70446 0.0
H1951 H 0.16561 0.0319 0.6427 0.0
H1952 H 0.15216 1.00607 0.6197 0.0
H1953 H 0.16415 1.00153 0.64746 0.0
H1954 H 0.12679 0.97318 0.65224 0.0
H1955 H 0.11478 0.97759 0.6244 0.0
H1956 H 0.10264 0.98407 0.65053 0.0
H1957 H 0.10639 0.07667 0.66421 0.0
H1958 H 0.09288 0.07707 0.6231 0.0
H1959 H 0.11504 1.01363 0.59974 0.0
C1960 C 0.14845 1.01527 0.69494 0.0
C1961 C 0.14977 0.02791 0.7188 0.0
C1962 C 0.13941 0.0471 0.72122 0.0
C1963 C 0.12894 0.05393 0.70164 0.0
C1964 C 0.12809 0.04139 0.67876 0.0
C1965 C 0.1372 0.02207 0.67525 0.0
C1966 C 0.13316 1.01133 0.64853 0.0
C1967 C 0.15508 1.01279 0.63904 0.0
C1968 C 0.11849 0.98497 0.64364 0.0
C1969 C 0.12099 0.02788 0.6377 0.0
C1970 C 0.11839 0.04518 0.65562 0.0
C1971 C 0.10825 0.06292 0.65026 0.0
C1972 C 0.10053 0.06301 0.62648 0.0
C1973 C 0.1024 0.04538 0.60731 0.0
C1974 C 0.11292 0.02744 0.61346 0.0
H1975 H 0.83468 0.39831 0.42065 0.0
H1976 H 0.84615 0.34797 0.46524 0.0
H1977 H 0.85042 0.31996 0.43059 0.0
H1978 H 0.80303 0.35616 0.37287 0.0
H1979 H 0.81481 0.37178 0.35067 0.0
H1980 H 0.81478 0.38871 0.37932 0.0
H1981 H 0.85713 0.40646 0.38353 0.0
H1982 H 0.85724 0.38923 0.3549 0.0
H1983 H 0.8743 0.38611 0.38024 0.0
H1984 H 0.8492 0.29589 0.39185 0.0
H1985 H 0.84082 0.27583 0.35009 0.0
H1986 H 0.83248 0.34248 0.33037 0.0
C1987 C 0.83814 0.38139 0.423 0.0
C1988 C 0.84001 0.37506 0.44535 0.0
C1989 C 0.84474 0.35301 0.44809 0.0
C1990 C 0.84736 0.33713 0.42863 0.0
C1991 C 0.84569 0.34398 0.4068 0.0
C1992 C 0.84127 0.36557 0.40382 0.0
C1993 C 0.83916 0.36788 0.37823 0.0
C1994 C 0.8166 0.3713 0.36978 0.0
C1995 C 0.85809 0.38865 0.37398 0.0
C1996 C 0.84146 0.34338 0.3672 0.0
C1997 C 0.84579 0.33019 0.3841 0.0
C1998 C 0.84637 0.30615 0.37838 0.0
C1999 C 0.84159 0.29493 0.35473 0.0
C2000 C 0.83632 0.30784 0.33736 0.0
C2001 C 0.83707 0.33256 0.34347 0.0
H2002 H 0.5044 0.01707 0.25587 0.0
H2003 H 0.46536 0.06485 0.23826 0.0
H2004 H 0.45866 0.04439 0.19666 0.0
H2005 H 0.53293 0.01757 0.21156 0.0
H2006 H 0.53225 0.98581 0.20619 0.0
H2007 H 0.52901 1.00008 0.23466 0.0
H2008 H 0.49217 0.96694 0.23215 0.0
H2009 H 0.49512 0.95309 0.20305 0.0
H2010 H 0.47063 0.96224 0.20788 0.0
H2011 H 0.46054 0.02409 0.15779 0.0
H2012 H 0.4799 1.01512 0.12448 0.0
H2013 H 0.51815 0.98064 0.16664 0.0
C2014 C 0.49469 0.02332 0.24308 0.0
C2015 C 0.48585 0.04281 0.2498 0.0
C2016 C 0.47263 0.0502 0.23304 0.0
C2017 C 0.4682 0.03822 0.20963 0.0
C2018 C 0.47665 0.01855 0.20352 0.0
C2019 C 0.48985 1.0113 0.21972 0.0
C2020 C 0.49984 0.99242 0.20799 0.0
C2021 C 0.52498 0.99944 0.2155 0.0
C2022 C 0.48877 0.96719 0.21308 0.0
C2023 C 0.49328 0.99345 0.18253 0.0
C2024 C 0.47823 1.00684 0.18033 0.0
C2025 C 0.47198 1.01322 0.15911 0.0
C2026 C 0.4831 1.00812 0.1403 0.0
C2027 C 0.50076 0.99772 0.14339 0.0
C2028 C 0.50447 0.98828 0.16384 0.0
H2029 H 0.80932 0.71454 0.92692 0.0
H2030 H 0.79882 0.77818 0.96924 0.0
H2031 H 0.80234 0.79921 0.93559 0.0
H2032 H 0.84864 0.74606 0.89264 0.0
H2033 H 0.83744 0.7254 0.86504 0.0
H2034 H 0.83453 0.7147 0.89236 0.0
H2035 H 0.79234 0.69948 0.88002 0.0
H2036 H 0.7952 0.71037 0.85275 0.0
H2037 H 0.77756 0.72048 0.87212 0.0
H2038 H 0.80767 0.81435 0.89866 0.0
H2039 H 0.81539 0.8237 0.86043 0.0
H2040 H 0.82092 0.75073 0.83764 0.0
C2041 C 0.8079 0.73296 0.92909 0.0
C2042 C 0.80384 0.74467 0.95118 0.0
C2043 C 0.80181 0.76865 0.95285 0.0
C2044 C 0.80379 0.78081 0.93369 0.0
C2045 C 0.80742 0.76883 0.91231 0.0
C2046 C 0.80938 0.74541 0.90965 0.0
C2047 C 0.81279 0.73702 0.88413 0.0
C2048 C 0.83466 0.7304 0.88352 0.0
C2049 C 0.79332 0.71555 0.87151 0.0
C2050 C 0.81323 0.75967 0.87329 0.0
C2051 C 0.80981 0.77754 0.89011 0.0
C2052 C 0.80998 0.80032 0.88529 0.0
C2053 C 0.81413 0.80534 0.86311 0.0
C2054 C 0.81795 0.78785 0.84513 0.0
C2055 C 0.8173 0.76438 0.85039 0.0
H2056 H 0.862 0.09479 0.04979 0.0
H2057 H 0.86315 0.14447 1.00088 0.0
H2058 H 0.89612 0.13474 0.98717 0.0
H2059 H 0.91994 0.10888 0.06618 0.0
H2060 H 0.91917 0.07794 0.06825 0.0
H2061 H 0.89583 0.08907 0.0738 0.0
H2062 H 0.87061 0.05379 0.04193 0.0
H2063 H 0.8938 0.04246 0.03625 0.0
H2064 H 0.8775 0.04944 1.01252 0.0
H2065 H 0.92819 0.11815 0.97827 0.0
H2066 H 0.95757 0.09708 0.97579 0.0
H2067 H 0.93472 0.05977 0.03156 0.0
C2068 C 0.86912 0.10366 0.03617 0.0
C2069 C 0.86012 0.12026 0.0263 0.0
C2070 C 0.86994 0.13164 1.00864 0.0
C2071 C 0.88858 0.12624 1.00076 0.0
C2072 C 0.89701 0.10964 1.01092 0.0
C2073 C 0.8876 0.09865 0.0283 0.0
C2074 C 0.89956 0.08148 0.03651 0.0
C2075 C 0.9092 0.08986 0.06274 0.0
C2076 C 0.88447 0.05525 0.03149 0.0
C2077 C 0.9173 0.08444 0.02101 0.0
C2078 C 0.91556 0.10063 1.00625 0.0
C2079 C 0.92983 0.10558 0.98982 0.0
C2080 C 0.94633 0.09357 0.98849 0.0
C2081 C 0.9483 0.07714 1.00365 0.0
C2082 C 0.93368 0.07262 0.02009 0.0
H2083 H 0.42202 0.46382 0.08291 0.0
H2084 H 0.40488 0.42682 1.01 0.0
H2085 H 0.44141 0.44813 1.00186 0.0
H2086 H 0.45563 0.52203 0.07333 0.0
H2087 H 0.47637 0.5263 0.09829 0.0
H2088 H 0.4485 0.50896 0.09867 0.0
H2089 H 0.46238 0.47248 0.10717 0.0
H2090 H 0.4903 0.48965 0.10673 0.0
H2091 H 0.4789 0.46044 0.08759 0.0
H2092 H 0.4803 0.47234 1.00126 0.0
H2093 H 0.51848 0.49859 1.00813 0.0
H2094 H 0.51254 0.52089 0.08142 0.0
C2095 C 0.42588 0.46055 0.06518 0.0
C2096 C 0.41022 0.44369 0.04699 0.0
C2097 C 0.41634 0.43958 0.02421 0.0
C2098 C 0.43717 0.45165 0.0194 0.0
C2099 C 0.4523 0.46778 0.03758 0.0
C2100 C 0.44704 0.47229 0.06007 0.0
C2101 C 0.46699 0.48986 0.07646 0.0
C2102 C 0.46154 0.51318 0.08733 0.0
C2103 C 0.47512 0.47737 0.09563 0.0
C2104 C 0.48387 0.49504 0.05952 0.0
C2105 C 0.475 0.48179 0.03724 0.0
C2106 C 0.48734 0.48285 0.01865 0.0
C2107 C 0.50916 0.49786 0.02276 0.0
C2108 C 0.51879 0.51205 0.04528 0.0
C2109 C 0.5058 0.51045 0.06394 0.0
H2110 H 0.37373 0.61937 0.73591 0.0
H2111 H 0.4343 0.65391 0.78381 0.0
H2112 H 0.4238 0.69236 0.78972 0.0
H2113 H 0.37029 0.67305 0.70989 0.0
H2114 H 0.34094 0.66749 0.70869 0.0
H2115 H 0.35306 0.64244 0.70727 0.0
H2116 H 0.3348 0.62974 0.74275 0.0
H2117 H 0.32261 0.65472 0.74412 0.0
H2118 H 0.33939 0.65166 0.7697 0.0
H2119 H 0.40715 0.73024 0.78952 0.0
H2120 H 0.38563 0.75986 0.78592 0.0
H2121 H 0.33306 0.70287 0.74119 0.0
C2122 C 0.38495 0.63495 0.74767 0.0
C2123 C 0.40549 0.63242 0.75917 0.0
C2124 C 0.41877 0.65414 0.77448 0.0
C2125 C 0.41282 0.67658 0.77799 0.0
C2126 C 0.39287 0.67837 0.76655 0.0
C2127 C 0.37891 0.65791 0.75185 0.0
C2128 C 0.35798 0.6649 0.7424 0.0
C2129 C 0.3554 0.66177 0.71545 0.0
C2130 C 0.33747 0.64932 0.75019 0.0
C2131 C 0.36235 0.69224 0.75384 0.0
C2132 C 0.38285 0.69962 0.76748 0.0
C2133 C 0.39105 0.72415 0.77899 0.0
C2134 C 0.37848 0.74125 0.77678 0.0
C2135 C 0.35703 0.73476 0.76349 0.0
C2136 C 0.34908 0.70929 0.75189 0.0
H2137 H 0.23694 0.65292 0.54037 0.0
H2138 H 0.24285 0.58072 0.51378 0.0
H2139 H 0.20344 0.56337 0.51518 0.0
H2140 H 0.20456 0.63663 0.58158 0.0
H2141 H 0.1873 0.65653 0.57823 0.0
H2142 H 0.21491 0.66463 0.57132 0.0
H2143 H 0.20068 0.66811 0.52894 0.0
H2144 H 0.17308 0.66111 0.5361 0.0
H2145 H 0.17947 0.64314 0.51093 0.0
H2146 H 0.16643 0.55341 0.5246 0.0
H2147 H 0.13002 0.55126 0.53599 0.0
H2148 H 0.14768 0.62982 0.55686 0.0
C2149 C 0.22981 0.63355 0.53421 0.0
C2150 C 0.24273 0.618 0.52716 0.0
C2151 C 0.23306 0.59277 0.51941 0.0
C2152 C 0.21079 0.58281 0.5201 0.0
C2153 C 0.19881 0.5985 0.52845 0.0
C2154 C 0.20773 0.62334 0.53493 0.0
C2155 C 0.19158 0.63582 0.54495 0.0
C2156 C 0.20011 0.64918 0.57053 0.0
C2157 C 0.18586 0.65306 0.52928 0.0
C2158 C 0.17239 0.6139 0.54374 0.0
C2159 C 0.17705 0.59265 0.53414 0.0
C2160 C 0.16241 0.56987 0.53183 0.0
C2161 C 0.14195 0.56884 0.53859 0.0
C2162 C 0.13651 0.59042 0.54729 0.0
C2163 C 0.15187 0.61321 0.55046 0.0
H2164 H 0.7496 0.02463 0.80229 0.0
H2165 H 0.69902 0.98429 0.74416 0.0
H2166 H 0.70903 0.94644 0.74823 0.0
H2167 H 0.78951 0.99861 0.78945 0.0
H2168 H 0.79964 0.99717 0.81912 0.0
H2169 H 0.78596 0.01979 0.81402 0.0
H2170 H 0.75814 1.00443 0.84172 0.0
H2171 H 0.77164 0.98147 0.84684 0.0
H2172 H 0.74258 0.97287 0.83618 0.0
H2173 H 0.728 0.91566 0.75445 0.0
H2174 H 0.75482 0.89281 0.76276 0.0
H2175 H 0.79235 0.95348 0.81748 0.0
C2176 C 0.7404 1.00758 0.79096 0.0
C2177 C 0.72363 1.00667 0.77313 0.0
C2178 C 0.71177 0.98464 0.75814 0.0
C2179 C 0.71724 0.96325 0.7604 0.0
C2180 C 0.73408 0.96453 0.77814 0.0
C2181 C 0.74529 0.98604 0.79338 0.0
C2182 C 0.7638 0.98289 0.80967 0.0
C2183 C 0.78602 1.00065 0.80791 0.0
C2184 C 0.75874 0.98557 0.83511 0.0
C2185 C 0.76257 0.95688 0.79965 0.0
C2186 C 0.74491 0.94639 0.782 0.0
C2187 C 0.74159 0.92332 0.76863 0.0
C2188 C 0.75699 0.91066 0.77326 0.0
C2189 C 0.7755 0.92146 0.79081 0.0
C2190 C 0.77801 0.94457 0.80443 0.0
H2191 H 0.80186 0.97301 0.54734 0.0
H2192 H 0.77033 0.89702 0.54652 0.0
H2193 H 0.73375 0.90457 0.5399 0.0
H2194 H 0.76613 0.99984 0.5758 0.0
H2195 H 0.76574 0.02204 0.55733 0.0
H2196 H 0.78925 1.01034 0.56076 0.0
H2197 H 0.78523 0.99696 0.51548 0.0
H2198 H 0.76168 1.00873 0.51202 0.0
H2199 H 0.75936 0.97751 0.49961 0.0
H2200 H 0.70068 0.9215 0.53741 0.0
H2201 H 0.67377 0.94555 0.536 0.0
H2202 H 0.72662 1.01009 0.53576 0.0
C2203 C 0.78722 0.95795 0.54547 0.0
C2204 C 0.7889 0.93443 0.54752 0.0
C2205 C 0.7694 0.91512 0.54484 0.0
C2206 C 0.74857 0.91926 0.54113 0.0
C2207 C 0.74744 0.9427 0.53943 0.0
C2208 C 0.76626 0.9616 0.54094 0.0
C2209 C 0.76045 0.98493 0.53796 0.0
C2210 C 0.77102 1.00549 0.55925 0.0
C2211 C 0.76708 0.99248 0.51491 0.0
C2212 C 0.73558 0.9767 0.53647 0.0
C2213 C 0.72836 0.95217 0.53696 0.0
C2214 C 0.70616 0.94065 0.53673 0.0
C2215 C 0.69098 0.95453 0.5361 0.0
C2216 C 0.69797 0.97976 0.53575 0.0
C2217 C 0.72061 0.9908 0.53564 0.0
H2218 H 0.39057 0.47601 0.73886 0.0
H2219 H 0.42608 0.49762 0.80979 0.0
H2220 H 0.41004 0.45654 0.81738 0.0
H2221 H 0.33999 0.43541 0.75194 0.0
H2222 H 0.33643 0.41244 0.72598 0.0
H2223 H 0.35044 0.44367 0.72575 0.0
H2224 H 0.38398 0.43041 0.71298 0.0
H2225 H 0.37018 0.39916 0.71354 0.0
H2226 H 0.39687 0.41352 0.73067 0.0
H2227 H 0.39079 0.41049 0.81746 0.0
H2228 H 0.36742 0.36788 0.81117 0.0
H2229 H 0.34167 0.3741 0.7414 0.0
C2230 C 0.39457 0.47241 0.75622 0.0
C2231 C 0.40965 0.49136 0.7739 0.0
C2232 C 0.41461 0.48445 0.79587 0.0
C2233 C 0.40556 0.46071 0.80038 0.0
C2234 C 0.3912 0.44264 0.7828 0.0
C2235 C 0.38554 0.44823 0.76112 0.0
C2236 C 0.36986 0.42495 0.74529 0.0
C2237 C 0.34787 0.42939 0.73673 0.0
C2238 C 0.38087 0.41652 0.72436 0.0
C2239 C 0.36673 0.40605 0.76169 0.0
C2240 C 0.37985 0.41649 0.78305 0.0
C2241 C 0.38051 0.40244 0.80069 0.0
C2242 C 0.36723 0.37777 0.79685 0.0
C2243 C 0.3527 0.36649 0.77557 0.0
C2244 C 0.35272 0.38138 0.75781 0.0
H2245 H 0.20779 0.6522 0.27956 0.0
H2246 H 0.25517 0.61033 0.28539 0.0
H2247 H 0.28499 0.64579 0.28217 0.0
H2248 H 0.22862 0.68355 0.23787 0.0
H2249 H 0.2248 0.71242 0.25046 0.0
H2250 H 0.20711 0.68465 0.25572 0.0
H2251 H 0.21747 0.69961 0.301 0.0
H2252 H 0.23442 0.72785 0.29578 0.0
H2253 H 0.24607 0.71026 0.31373 0.0
H2254 H 0.30849 0.68338 0.2743 0.0
H2255 H 0.32626 0.72557 0.26954 0.0
H2256 H 0.26349 0.74208 0.26933 0.0
C2257 C 0.22455 0.65086 0.28073 0.0
C2258 C 0.22947 0.62903 0.2826 0.0
C2259 C 0.25138 0.62734 0.28416 0.0
C2260 C 0.26832 0.64716 0.28216 0.0
C2261 C 0.26283 0.66824 0.27916 0.0
C2262 C 0.24168 0.67054 0.27922 0.0
C2263 C 0.24029 0.69527 0.2758 0.0
C2264 C 0.22426 0.69386 0.25364 0.0
C2265 C 0.23421 0.70905 0.29789 0.0
C2266 C 0.26377 0.70596 0.2728 0.0
C2267 C 0.27652 0.69012 0.27476 0.0
C2268 C 0.29887 0.69617 0.27291 0.0
C2269 C 0.30872 0.71976 0.27006 0.0
C2270 C 0.29583 0.73608 0.26913 0.0
C2271 C 0.27323 0.72924 0.26989 0.0
H2272 H 0.53701 0.69163 0.46104 0.0
H2273 H 0.58746 0.74735 0.51008 0.0
H2274 H 0.59638 0.71589 0.53019 0.0
H2275 H 0.51806 0.65203 0.50138 0.0
H2276 H 0.515 0.62408 0.48106 0.0
H2277 H 0.51218 0.65075 0.47014 0.0
H2278 H 0.54244 0.64751 0.444 0.0
H2279 H 0.54525 0.62082 0.45492 0.0
H2280 H 0.56894 0.64655 0.45738 0.0
H2281 H 0.60006 0.67865 0.54556 0.0
H2282 H 0.59828 0.63827 0.55494 0.0
H2283 H 0.54592 0.60511 0.49623 0.0
C2284 C 0.54982 0.69722 0.47612 0.0
C2285 C 0.56132 0.72229 0.48405 0.0
C2286 C 0.57827 0.72852 0.5036 0.0
C2287 C 0.58351 0.71069 0.51519 0.0
C2288 C 0.57192 0.68632 0.50702 0.0
C2289 C 0.55553 0.67944 0.48782 0.0
C2290 C 0.54615 0.65174 0.48242 0.0
C2291 C 0.52137 0.64422 0.48384 0.0
C2292 C 0.55098 0.64102 0.45824 0.0
C2293 C 0.55915 0.64436 0.50215 0.0
C2294 C 0.57414 0.66466 0.5159 0.0
C2295 C 0.58829 0.66268 0.53494 0.0
C2296 C 0.58709 0.63951 0.54018 0.0
C2297 C 0.57172 0.61825 0.52666 0.0
C2298 C 0.55761 0.62089 0.50725 0.0
H2299 H 0.69466 0.35592 0.69642 0.0
H2300 H 0.66801 0.28073 0.66128 0.0
H2301 H 0.7002 0.27059 0.68013 0.0
H2302 H 0.75331 0.359 0.69453 0.0
H2303 H 0.76256 0.37757 0.72346 0.0
H2304 H 0.73822 0.37956 0.70605 0.0
H2305 H 0.71575 0.36992 0.7398 0.0
H2306 H 0.74 0.36797 0.75733 0.0
H2307 H 0.71546 0.34276 0.75143 0.0
H2308 H 0.73656 0.26836 0.70323 0.0
H2309 H 0.77033 0.27373 0.73136 0.0
H2310 H 0.77258 0.34922 0.75424 0.0
C2311 C 0.69576 0.3374 0.69248 0.0
C2312 C 0.67869 0.31919 0.67684 0.0
C2313 C 0.68079 0.29511 0.67281 0.0
C2314 C 0.69915 0.28914 0.6835 0.0
C2315 C 0.71569 0.30734 0.6987 0.0
C2316 C 0.71405 0.33098 0.70341 0.0
C2317 C 0.73362 0.34675 0.72147 0.0
C2318 C 0.74776 0.36693 0.71074 0.0
C2319 C 0.72573 0.35748 0.74384 0.0
C2320 C 0.74624 0.32836 0.72637 0.0
C2321 C 0.7359 0.3058 0.71265 0.0
C2322 C 0.74476 0.28608 0.71389 0.0
C2323 C 0.76425 0.28934 0.72975 0.0
C2324 C 0.7748 0.31207 0.74466 0.0
C2325 C 0.76543 0.33173 0.74271 0.0
H2326 H 0.02837 0.35248 1.01071 0.0
H2327 H 0.06414 0.36058 0.9512 0.0
H2328 H 0.0727 0.40505 0.96244 0.0
H2329 H 1.00492 0.40229 1.00903 0.0
H2330 H 1.00871 0.41258 0.04045 0.0
H2331 H 1.00534 0.38099 0.0285 0.0
H2332 H 0.04214 0.38272 0.05316 0.0
H2333 H 0.04537 0.41421 0.06542 0.0
H2334 H 0.06677 0.40562 0.05097 0.0
H2335 H 0.07671 0.44814 0.97862 0.0
H2336 H 0.07897 0.48851 1.00144 0.0
H2337 H 0.04139 0.45465 0.05158 0.0
C2338 C 0.03817 0.36364 1.00019 0.0
C2339 C 0.04558 0.35284 0.97997 0.0
C2340 C 0.05836 0.3682 0.96676 0.0
C2341 C 0.06322 0.39357 0.97294 0.0
C2342 C 0.05543 0.40358 0.9926 0.0
C2343 C 0.04348 0.38925 1.00634 0.0
C2344 C 0.03773 0.40512 0.02697 0.0
C2345 C 1.01268 0.39993 0.02618 0.0
C2346 C 0.04865 0.4017 0.05052 0.0
C2347 C 0.04791 0.43047 0.02228 0.0
C2348 C 0.05803 0.42894 1.00231 0.0
C2349 C 0.06897 0.44957 0.99435 0.0
C2350 C 0.07018 0.47241 1.00743 0.0
C2351 C 0.06049 0.47463 0.02826 0.0
C2352 C 0.04885 0.45339 0.03563 0.0
H2353 H 0.04865 0.79856 0.20412 0.0
H2354 H 0.02791 0.81407 0.13622 0.0
H2355 H 0.98943 0.80444 0.14405 0.0
H2356 H 0.99964 0.74928 0.20584 0.0
H2357 H 0.99932 0.75881 0.2368 0.0
H2358 H 0.02503 0.76465 0.22516 0.0
H2359 H 0.03329 0.81066 0.24247 0.0
H2360 H 1.00773 0.8048 0.2543 0.0
H2361 H 1.01339 0.82662 0.23517 0.0
H2362 H 0.95333 0.79344 0.15913 0.0
H2363 H 0.92273 0.78706 0.1825 0.0
H2364 H 0.96736 0.78226 0.24203 0.0
C2365 C 0.03597 0.7999 0.19092 0.0
C2366 C 0.04124 0.80719 0.1696 0.0
C2367 C 0.02426 0.80884 0.15279 0.0
C2368 C 1.00233 0.80314 0.15696 0.0
C2369 C 0.99766 0.79606 0.17814 0.0
C2370 C 1.01401 0.79475 0.19502 0.0
C2371 C 1.00473 0.78854 0.21705 0.0
C2372 C 1.00734 0.76385 0.22146 0.0
C2373 C 1.01541 0.80887 0.23851 0.0
C2374 C 0.98075 0.78713 0.21006 0.0
C2375 C 0.97695 0.79091 0.18734 0.0
C2376 C 0.95614 0.79066 0.17702 0.0
C2377 C 0.93888 0.78719 0.19052 0.0
C2378 C 0.94258 0.78446 0.21427 0.0
C2379 C 0.96379 0.78398 0.22389 0.0
H2380 H 0.53198 0.33216 0.13831 0.0
H2381 H 0.56361 0.28388 0.099 0.0
H2382 H 0.58525 0.31819 0.08356 0.0
H2383 H 0.52628 0.36658 0.09487 0.0
H2384 H 0.53205 0.39529 0.11487 0.0
H2385 H 0.52046 0.36742 0.12467 0.0
H2386 H 0.55284 0.37889 0.159 0.0
H2387 H 0.56457 0.40678 0.14911 0.0
H2388 H 0.58074 0.38582 0.15262 0.0
H2389 H 0.60086 0.35568 0.06994 0.0
H2390 H 0.60731 0.39422 0.05575 0.0
H2391 H 0.5677 0.41964 0.10554 0.0
C2392 C 0.54336 0.32886 0.12633 0.0
C2393 C 0.54607 0.30547 0.11965 0.0
C2394 C 0.56128 0.30174 0.10421 0.0
C2395 C 0.57381 0.32111 0.09558 0.0
C2396 C 0.57109 0.34403 0.10283 0.0
C2397 C 0.55622 0.34807 0.11774 0.0
C2398 C 0.55551 0.37426 0.12138 0.0
C2399 C 0.5322 0.37598 0.11346 0.0
C2400 C 0.56392 0.38718 0.14706 0.0
C2401 C 0.57152 0.38386 0.10527 0.0
C2402 C 0.58065 0.36622 0.09518 0.0
C2403 C 0.59431 0.36993 0.07808 0.0
C2404 C 0.59805 0.392 0.07031 0.0
C2405 C 0.58815 0.40996 0.07973 0.0
C2406 C 0.57551 0.40621 0.09812 0.0
H2407 H 0.06321 0.30782 0.34334 0.0
H2408 H 0.07919 0.38345 0.37833 0.0
H2409 H 0.04221 0.38519 0.36348 0.0
H2410 H 0.02882 0.31341 0.29105 0.0
H2411 H 1.00916 0.28434 0.28939 0.0
H2412 H 0.03749 0.28911 0.30147 0.0
H2413 H 0.02511 0.27592 0.33967 0.0
H2414 H 0.99676 0.27141 0.32786 0.0
H2415 H 1.00829 0.29151 0.35568 0.0
H2416 H 1.00412 0.37885 0.34772 0.0
H2417 H 0.96578 0.36538 0.32778 0.0
H2418 H 0.97317 0.29377 0.3025 0.0
C2419 C 0.05906 0.3249 0.34716 0.0
C2420 C 0.074 0.34564 0.36163 0.0
C2421 C 0.06794 0.36749 0.36704 0.0
C2422 C 0.04699 0.36862 0.35883 0.0
C2423 C 0.03239 0.34774 0.34527 0.0
C2424 C 0.03805 0.32632 0.33918 0.0
C2425 C 0.0187 0.30645 0.32488 0.0
C2426 C 0.02385 0.29783 0.30023 0.0
C2427 C 1.01182 0.28507 0.33781 0.0
C2428 C 1.00148 0.32027 0.32383 0.0
C2429 C 1.00984 0.34397 0.33596 0.0
C2430 C 0.99734 0.36044 0.33797 0.0
C2431 C 0.97571 0.35267 0.32671 0.0
C2432 C 0.96698 0.32877 0.31371 0.0
C2433 C 0.97977 0.31216 0.31241 0.0
H2434 H 1.01279 0.66922 0.65075 0.0
H2435 H 0.99287 0.70777 0.59775 0.0
H2436 H 1.01066 0.68653 0.56925 0.0
H2437 H 0.06363 0.6687 0.6368 0.0
H2438 H 0.06261 0.6379 0.63967 0.0
H2439 H 0.04645 0.65396 0.65615 0.0
H2440 H 1.01082 0.61982 0.63833 0.0
H2441 H 0.027 0.60323 0.62246 0.0
H2442 H 1.00421 0.61027 0.60683 0.0
H2443 H 0.0379 0.67117 0.55108 0.0
H2444 H 0.05956 0.64541 0.53405 0.0
H2445 H 0.057 0.60966 0.59453 0.0
C2446 C 1.01118 0.67222 0.63282 0.0
C2447 C 1.00196 0.69057 0.62658 0.0
C2448 C 1.00017 0.69407 0.60298 0.0
C2449 C 1.01046 0.68236 0.58675 0.0
C2450 C 0.02145 0.66641 0.59416 0.0
C2451 C 0.02077 0.65999 0.61599 0.0
C2452 C 0.03346 0.64137 0.61862 0.0
C2453 C 0.05267 0.65108 0.63902 0.0
C2454 C 1.01795 0.61723 0.62172 0.0
C2455 C 0.04178 0.63909 0.595 0.0
C2456 C 0.03525 0.65461 0.58184 0.0
C2457 C 0.04234 0.65807 0.56057 0.0
C2458 C 0.05484 0.64354 0.55123 0.0
C2459 C 0.05927 0.62516 0.56269 0.0
C2460 C 0.05361 0.62349 0.58539 0.0
H2461 H 0.66674 0.81833 0.83594 0.0
H2462 H 0.70705 0.84821 0.90423 0.0
H2463 H 0.73978 0.84327 0.8869 0.0
H2464 H 0.69454 0.77278 0.81839 0.0
H2465 H 0.69247 0.7758 0.78792 0.0
H2466 H 0.67189 0.78203 0.80525 0.0
H2467 H 0.67889 0.82505 0.79507 0.0
H2468 H 0.69935 0.8189 0.77751 0.0
H2469 H 0.70644 0.84519 0.8009 0.0
H2470 H 0.76778 0.83857 0.86278 0.0
H2471 H 0.79084 0.83069 0.83266 0.0
H2472 H 0.73287 0.79906 0.78028 0.0
C2473 C 0.6825 0.82381 0.84718 0.0
C2474 C 0.68456 0.83369 0.87137 0.0
C2475 C 0.70525 0.8405 0.88569 0.0
C2476 C 0.72387 0.83783 0.87602 0.0
C2477 C 0.72131 0.82804 0.85217 0.0
C2478 C 0.70123 0.82087 0.83789 0.0
C2479 C 0.70326 0.81049 0.81286 0.0
C2480 C 0.68975 0.78368 0.80569 0.0
C2481 C 0.69659 0.82583 0.79557 0.0
C2482 C 0.72776 0.8132 0.8154 0.0
C2483 C 0.73769 0.82372 0.83824 0.0
C2484 C 0.76026 0.83003 0.84493 0.0
C2485 C 0.77318 0.82557 0.82778 0.0
C2486 C 0.76349 0.81432 0.8045 0.0
C2487 C 0.74048 0.80767 0.79811 0.0
H2488 H 0.52184 0.56589 0.71819 0.0
H2489 H 0.45597 0.55839 0.68429 0.0
H2490 H 0.46898 0.55552 0.64568 0.0
H2491 H 0.55002 0.60405 0.67827 0.0
H2492 H 0.57284 0.59094 0.67775 0.0
H2493 H 0.5586 0.59175 0.70307 0.0
H2494 H 0.55137 0.54534 0.69918 0.0
H2495 H 0.56554 0.54441 0.67382 0.0
H2496 H 0.53773 0.52565 0.67172 0.0
H2497 H 0.48958 0.55126 0.6077 0.0
H2498 H 0.51518 0.5504 0.57806 0.0
H2499 H 0.56911 0.56415 0.63455 0.0
C2500 C 0.51002 0.56368 0.70274 0.0
C2501 C 0.48727 0.56233 0.70544 0.0
C2502 C 0.47321 0.55962 0.68387 0.0
C2503 C 0.48058 0.55784 0.66135 0.0
C2504 C 0.5027 0.55914 0.65935 0.0
C2505 C 0.51736 0.56242 0.67966 0.0
C2506 C 0.54054 0.56424 0.67244 0.0
C2507 C 0.55644 0.58923 0.68355 0.0
C2508 C 0.54932 0.54369 0.67974 0.0
C2509 C 0.5366 0.56119 0.6452 0.0
C2510 C 0.51452 0.55797 0.63797 0.0
C2511 C 0.50687 0.55398 0.6136 0.0
C2512 C 0.52172 0.55341 0.59652 0.0
C2513 C 0.54471 0.55716 0.60306 0.0
C2514 C 0.55187 0.5612 0.62821 0.0
H2515 H 0.81053 0.22475 0.99392 0.0
H2516 H 0.77521 0.14975 0.96436 0.0
H2517 H 0.76161 0.16227 0.92801 0.0
H2518 H 0.77212 0.25318 0.97266 0.0
H2519 H 0.79257 0.2783 0.9661 0.0
H2520 H 0.79936 0.26311 0.98933 0.0
H2521 H 0.83219 0.25422 0.96971 0.0
H2522 H 0.8259 0.27006 0.94685 0.0
H2523 H 0.82744 0.23922 0.93932 0.0
H2524 H 0.75381 0.18362 0.8945 0.0
H2525 H 0.7548 0.21172 0.86596 0.0
H2526 H 0.7931 0.27184 0.92035 0.0
C2527 C 0.80017 0.21101 0.97959 0.0
C2528 C 0.794 0.18649 0.98129 0.0
C2529 C 0.78038 0.16867 0.96265 0.0
C2530 C 0.77238 0.17563 0.94228 0.0
C2531 C 0.77841 0.20029 0.94128 0.0
C2532 C 0.79227 0.21757 0.95936 0.0
C2533 C 0.79746 0.24262 0.9538 0.0
C2534 C 0.7899 0.26032 0.97153 0.0
C2535 C 0.8222 0.25207 0.95232 0.0
C2536 C 0.78379 0.23698 0.93004 0.0
C2537 C 0.77306 0.21249 0.92279 0.0
C2538 C 0.76171 0.2029 0.90008 0.0
C2539 C 0.76219 0.21881 0.88413 0.0
C2540 C 0.77353 0.24365 0.89161 0.0
C2541 C 0.78369 0.25291 0.91483 0.0
H2542 H 0.17294 0.57794 0.19579 0.0
H2543 H 0.15446 0.50109 0.19808 0.0
H2544 H 0.1297 0.49269 0.16049 0.0
H2545 H 0.12126 0.57993 0.18059 0.0
H2546 H 0.12702 0.60205 0.16179 0.0
H2547 H 0.14785 0.60191 0.18496 0.0
H2548 H 0.17481 0.59765 0.15502 0.0
H2549 H 0.1542 0.59843 0.13176 0.0
H2550 H 0.16643 0.57346 0.12954 0.0
H2551 H 0.10191 0.49355 0.12971 0.0
H2552 H 0.07416 0.50304 0.10276 0.0
H2553 H 0.11027 0.57949 0.11999 0.0
C2554 C 0.16468 0.55927 0.1874 0.0
C2555 C 0.1659 0.53987 0.19873 0.0
C2556 C 0.15399 0.51578 0.18874 0.0
C2557 C 0.13993 0.51096 0.16761 0.0
C2558 C 0.1381 0.53059 0.15727 0.0
C2559 C 0.15027 0.5543 0.16661 0.0
C2560 C 0.14249 0.57239 0.15434 0.0
C2561 C 0.13416 0.59008 0.17144 0.0
C2562 C 0.16056 0.58628 0.1419 0.0
C2563 C 0.1238 0.55504 0.137 0.0
C2564 C 0.12155 0.53109 0.13909 0.0
C2565 C 0.10379 0.51206 0.12725 0.0
C2566 C 0.08803 0.51759 0.11238 0.0
C2567 C 0.09053 0.54182 0.10963 0.0
C2568 C 0.10853 0.56077 0.12183 0.0
H2569 H 0.80874 0.82913 0.46748 0.0
H2570 H 0.87482 0.87792 0.48174 0.0
H2571 H 0.87804 0.87022 0.43945 0.0
H2572 H 0.82072 0.78517 0.42195 0.0
H2573 H 0.79452 0.77835 0.40361 0.0
H2574 H 0.79665 0.78779 0.43499 0.0
H2575 H 0.77984 0.82297 0.42851 0.0
H2576 H 0.77762 0.81349 0.39713 0.0
H2577 H 0.79236 0.84429 0.41092 0.0
H2578 H 0.87532 0.85606 0.3962 0.0
H2579 H 0.86578 0.83807 0.35388 0.0
H2580 H 0.80097 0.79891 0.36562 0.0
C2581 C 0.82379 0.83822 0.46158 0.0
C2582 C 0.84164 0.85415 0.47797 0.0
C2583 C 0.86107 0.86558 0.46956 0.0
C2584 C 0.86303 0.86133 0.44555 0.0
C2585 C 0.84545 0.84537 0.42985 0.0
C2586 C 0.82612 0.83397 0.43738 0.0
C2587 C 0.81002 0.81727 0.4165 0.0
C2588 C 0.80519 0.79057 0.41945 0.0
C2589 C 0.7887 0.82498 0.41307 0.0
C2590 C 0.82318 0.82153 0.39624 0.0
C2591 C 0.84369 0.83754 0.40451 0.0
C2592 C 0.85925 0.84359 0.38953 0.0
C2593 C 0.85372 0.83315 0.36548 0.0
C2594 C 0.83264 0.81708 0.35634 0.0
C2595 C 0.81715 0.81128 0.37202 0.0
H2596 H 0.49836 0.51685 0.85258 0.0
H2597 H 0.52577 0.59326 0.85147 0.0
H2598 H 0.54537 0.59925 0.89178 0.0
H2599 H 0.4901 0.52821 0.91535 0.0
H2600 H 0.49587 0.50074 0.92151 0.0
H2601 H 0.4845 0.5019 0.89218 0.0
H2602 H 0.51693 0.48892 0.87585 0.0
H2603 H 0.5283 0.48782 0.90517 0.0
H2604 H 0.54477 0.5064 0.88774 0.0
H2605 H 0.56229 0.59773 0.93361 0.0
H2606 H 0.57387 0.58916 0.97237 0.0
H2607 H 0.53592 0.51375 0.94952 0.0
C2608 C 0.50867 0.53484 0.86067 0.0
C2609 C 0.51047 0.55457 0.84793 0.0
C2610 C 0.52387 0.57773 0.86009 0.0
C2611 C 0.53521 0.58132 0.88328 0.0
C2612 C 0.53301 0.56177 0.89523 0.0
C2613 C 0.51984 0.53893 0.88444 0.0
C2614 C 0.51947 0.52143 0.90206 0.0
C2615 C 0.4961 0.51253 0.90812 0.0
C2616 C 0.52787 0.49986 0.8921 0.0
C2617 C 0.5352 0.53765 0.92391 0.0
C2618 C 0.54252 0.56096 0.91952 0.0
C2619 C 0.55654 0.57948 0.937 0.0
C2620 C 0.56309 0.57439 0.95928 0.0
C2621 C 0.55617 0.55076 0.96477 0.0
C2622 C 0.54195 0.53206 0.94636 0.0
H2623 H 0.81576 0.22314 0.09817 0.0
H2624 H 0.82015 0.15824 0.125 0.0
H2625 H 0.81312 0.17636 0.16353 0.0
H2626 H 0.84382 0.26587 0.14672 0.0
H2627 H 0.82641 0.28599 0.14587 0.0
H2628 H 0.82852 0.26685 0.11923 0.0
H2629 H 0.78609 0.24876 0.11196 0.0
H2630 H 0.78393 0.26771 0.13888 0.0
H2631 H 0.77248 0.23522 0.13433 0.0
H2632 H 0.80637 0.20032 0.19811 0.0
H2633 H 0.80892 0.23275 0.23098 0.0
H2634 H 0.81257 0.28468 0.18398 0.0
C2635 C 0.81545 0.21287 0.11224 0.0
C2636 C 0.81856 0.18933 0.10876 0.0
C2637 C 0.81784 0.17632 0.12742 0.0
C2638 C 0.81348 0.18625 0.14918 0.0
C2639 C 0.8098 0.20909 0.15183 0.0
C2640 C 0.81109 0.22251 0.13414 0.0
C2641 C 0.80851 0.2476 0.14263 0.0
C2642 C 0.828 0.26776 0.13838 0.0
C2643 C 0.78645 0.24995 0.13126 0.0
C2644 C 0.80814 0.24699 0.16844 0.0
C2645 C 0.80735 0.22398 0.1728 0.0
C2646 C 0.80695 0.21841 0.19501 0.0
C2647 C 0.8085 0.23716 0.21361 0.0
C2648 C 0.81142 0.26143 0.21001 0.0
C2649 C 0.81046 0.26633 0.18708 0.0
H2650 H 0.13827 0.55063 0.32948 0.0
H2651 H 0.1837 0.61926 0.32528 0.0
H2652 H 0.18067 0.63609 0.36639 0.0
H2653 H 0.10262 0.57617 0.36011 0.0
H2654 H 0.09616 0.55272 0.37742 0.0
H2655 H 0.10403 0.54587 0.34883 0.0
H2656 H 0.13551 0.53042 0.36721 0.0
H2657 H 0.12775 0.5373 0.39592 0.0
H2658 H 0.15556 0.55013 0.39098 0.0
H2659 H 0.16976 0.64608 0.40648 0.0
H2660 H 0.15139 0.64808 0.44249 0.0
H2661 H 0.114 0.57263 0.41879 0.0
C2662 C 0.14773 0.56903 0.33751 0.0
C2663 C 0.16111 0.58387 0.32495 0.0
C2664 C 0.17329 0.60795 0.33526 0.0
C2665 C 0.17178 0.61752 0.35841 0.0
C2666 C 0.15808 0.60254 0.37053 0.0
C2667 C 0.1463 0.57882 0.3604 0.0
C2668 C 0.13145 0.56704 0.37624 0.0
C2669 C 0.10714 0.56006 0.36498 0.0
C2670 C 0.13798 0.54492 0.38299 0.0
C2671 C 0.13657 0.58785 0.39676 0.0
C2672 C 0.15197 0.60822 0.39338 0.0
C2673 C 0.1579 0.63018 0.40958 0.0
C2674 C 0.14749 0.63126 0.42976 0.0
C2675 C 0.13163 0.61048 0.43293 0.0
C2676 C 0.12639 0.5886 0.41653 0.0
H2677 H 0.81636 0.8331 0.60376 0.0
H2678 H 0.85808 0.90451 0.6379 0.0
H2679 H 0.85475 0.89301 0.67657 0.0
H2680 H 0.77931 0.8281 0.64833 0.0
H2681 H 0.77541 0.79598 0.64721 0.0
H2682 H 0.78146 0.80893 0.62157 0.0
H2683 H 0.81488 0.79138 0.61968 0.0
H2684 H 0.80894 0.77844 0.64536 0.0
H2685 H 0.83572 0.79858 0.64509 0.0
H2686 H 0.84815 0.87414 0.71225 0.0
H2687 H 0.83667 0.84952 0.74216 0.0
H2688 H 0.79672 0.79089 0.68752 0.0
C2689 C 0.82497 0.84619 0.61937 0.0
C2690 C 0.83775 0.86985 0.61742 0.0
C2691 C 0.84826 0.88638 0.63856 0.0
C2692 C 0.8465 0.87999 0.66079 0.0
C2693 C 0.83382 0.85688 0.66221 0.0
C2694 C 0.82301 0.84019 0.64214 0.0
C2695 C 0.80976 0.8169 0.6492 0.0
C2696 C 0.78502 0.8122 0.64109 0.0
C2697 C 0.81781 0.79503 0.63924 0.0
C2698 C 0.81504 0.82319 0.67615 0.0
C2699 C 0.82908 0.84633 0.68313 0.0
C2700 C 0.83684 0.85612 0.70693 0.0
C2701 C 0.83004 0.84211 0.72403 0.0
C2702 C 0.81518 0.81861 0.71775 0.0
C2703 C 0.80775 0.80903 0.69323 0.0
H2704 H 0.76504 0.47118 0.51413 0.0
H2705 H 0.80324 0.49068 0.58392 0.0
H2706 H 0.77353 0.50508 0.60007 0.0
H2707 H 0.74644 0.52323 0.51896 0.0
H2708 H 0.71959 0.50816 0.50239 0.0
H2709 H 0.7425 0.49629 0.4969 0.0
H2710 H 0.72078 0.4545 0.50475 0.0
H2711 H 0.69785 0.46637 0.51054 0.0
H2712 H 0.71013 0.45279 0.53223 0.0
H2713 H 0.74114 0.51834 0.60849 0.0
H2714 H 0.70969 0.53576 0.60809 0.0
H2715 H 0.69409 0.51104 0.53227 0.0
C2716 C 0.76688 0.4781 0.53285 0.0
C2717 C 0.78611 0.47966 0.5479 0.0
C2718 C 0.78846 0.48935 0.57219 0.0
C2719 C 0.77165 0.49731 0.58156 0.0
C2720 C 0.75282 0.4955 0.5663 0.0
C2721 C 0.75043 0.48652 0.54243 0.0
C2722 C 0.72966 0.48925 0.52957 0.0
C2723 C 0.73487 0.50519 0.51087 0.0
C2724 C 0.71366 0.46424 0.51864 0.0
C2725 C 0.72118 0.50187 0.54992 0.0
C2726 C 0.73447 0.5046 0.57098 0.0
C2727 C 0.73054 0.5164 0.59215 0.0
C2728 C 0.71282 0.52643 0.59169 0.0
C2729 C 0.69974 0.52511 0.57011 0.0
C2730 C 0.70365 0.51211 0.54908 0.0
H2731 H 0.24149 0.14358 0.54332 0.0
H2732 H 0.23234 0.15437 0.47129 0.0
H2733 H 0.19306 0.1317 0.46706 0.0
H2734 H 0.20422 0.08352 0.53587 0.0
H2735 H 0.19337 0.08926 0.56304 0.0
H2736 H 0.22089 0.10587 0.56039 0.0
H2737 H 0.21127 0.1464 0.57232 0.0
H2738 H 0.18365 0.12991 0.57487 0.0
H2739 H 0.18812 0.15199 0.5559 0.0
H2740 H 0.15538 0.10676 0.46975 0.0
H2741 H 0.12095 0.08156 0.47916 0.0
H2742 H 0.15206 0.08831 0.55062 0.0
C2743 C 0.2312 0.14091 0.52659 0.0
C2744 C 0.24014 0.15049 0.50743 0.0
C2745 C 0.226 0.14714 0.48609 0.0
C2746 C 0.20362 0.1343 0.48357 0.0
C2747 C 0.19527 0.1253 0.50274 0.0
C2748 C 0.20851 0.1286 0.52396 0.0
C2749 C 0.19494 0.11766 0.54193 0.0
C2750 C 0.20389 0.09789 0.55082 0.0
C2751 C 0.19447 0.13768 0.56248 0.0
C2752 C 0.1722 0.10685 0.52718 0.0
C2753 C 0.17295 0.11173 0.50467 0.0
C2754 C 0.15455 0.1031 0.48738 0.0
C2755 C 0.13499 0.08881 0.49293 0.0
C2756 C 0.13353 0.08325 0.51567 0.0
C2757 C 0.15241 0.09273 0.53322 0.0
H2758 H 0.23698 0.93899 0.72675 0.0
H2759 H 0.24206 0.96158 0.80221 0.0
H2760 H 0.25995 0.9295 0.80829 0.0
H2761 H 0.22475 0.87223 0.72917 0.0
H2762 H 0.23958 0.86497 0.70545 0.0
H2763 H 0.2274 0.88994 0.70618 0.0
H2764 H 0.26517 0.91886 0.7039 0.0
H2765 H 0.27738 0.89393 0.70321 0.0
H2766 H 0.28845 0.9211 0.72537 0.0
H2767 H 0.27901 0.89381 0.80711 0.0
H2768 H 0.29465 0.85908 0.79865 0.0
H2769 H 0.27754 0.85532 0.72398 0.0
C2770 C 0.2419 0.93741 0.74466 0.0
C2771 C 0.23776 0.95417 0.76406 0.0
C2772 C 0.24457 0.94999 0.78682 0.0
C2773 C 0.25499 0.93142 0.79051 0.0
C2774 C 0.25873 0.91555 0.7714 0.0
C2775 C 0.2521 0.91809 0.74876 0.0
C2776 C 0.2574 0.89755 0.73143 0.0
C2777 C 0.23601 0.88015 0.71719 0.0
C2778 C 0.27303 0.90852 0.71499 0.0
C2779 C 0.2687 0.88384 0.74767 0.0
C2780 C 0.26907 0.89464 0.77073 0.0
C2781 C 0.2785 0.88546 0.78899 0.0
C2782 C 0.28756 0.86532 0.78394 0.0
C2783 C 0.28771 0.85328 0.76063 0.0
C2784 C 0.27788 0.86322 0.74219 0.0
H2785 H 0.40357 0.99037 0.0434 0.0
H2786 H 0.39116 0.95992 0.96861 0.0
H2787 H 0.43052 0.9635 0.96866 0.0
H2788 H 0.45641 0.03443 0.04278 0.0
H2789 H 0.46851 0.03032 0.07069 0.0
H2790 H 0.43927 0.02584 0.06471 0.0
H2791 H 0.43313 0.9826 0.07442 0.0
H2792 H 0.46242 0.98673 0.07953 0.0
H2793 H 0.44509 0.96125 0.05825 0.0
H2794 H 0.46913 0.96654 0.97662 0.0
H2795 H 0.50892 0.98012 0.98954 0.0
H2796 H 0.49834 1.01126 0.05895 0.0
C2797 C 0.40938 0.9854 0.02694 0.0
C2798 C 0.39457 0.97509 1.0059 0.0
C2799 C 0.40245 0.96805 0.98477 0.0
C2800 C 0.42464 0.96963 0.98472 0.0
C2801 C 0.43866 0.97842 1.00593 0.0
C2802 C 0.43168 0.98696 0.02653 0.0
C2803 C 0.45074 0.9963 0.04657 0.0
C2804 C 0.45393 0.02334 0.05677 0.0
C2805 C 0.44764 0.98079 0.06583 0.0
C2806 C 0.46948 0.99245 0.03359 0.0
C2807 C 0.46177 0.98117 1.01043 0.0
C2808 C 0.47551 0.97556 0.99463 0.0
C2809 C 0.49804 0.98321 1.0022 0.0
C2810 C 0.50654 0.99684 0.02513 0.0
C2811 C 0.49215 1.00058 0.04144 0.0
H2812 H 0.91144 0.61765 0.8222 0.0
H2813 H 0.90617 0.56966 0.75535 0.0
H2814 H 0.88436 0.59276 0.7359 0.0
H2815 H 0.85584 0.62283 0.81263 0.0
H2816 H 0.86371 0.65399 0.828 0.0
H2817 H 0.87887 0.63341 0.83598 0.0
H2818 H 0.91483 0.66344 0.82938 0.0
H2819 H 0.89969 0.68379 0.82073 0.0
H2820 H 0.91668 0.67255 0.80121 0.0
H2821 H 0.86487 0.62226 0.72374 0.0
H2822 H 0.84436 0.65284 0.72051 0.0
H2823 H 0.86077 0.67906 0.79606 0.0
C2824 C 0.90564 0.61204 0.80349 0.0
C2825 C 0.91052 0.59225 0.79013 0.0
C2826 C 0.90246 0.58494 0.76578 0.0
C2827 C 0.89025 0.59798 0.75459 0.0
C2828 C 0.88613 0.61786 0.7682 0.0
C2829 C 0.89316 0.62451 0.79218 0.0
C2830 C 0.88567 0.64581 0.80302 0.0
C2831 C 0.87009 0.63857 0.82095 0.0
C2832 C 0.9054 0.66769 0.81423 0.0
C2833 C 0.87362 0.65037 0.78129 0.0
C2834 C 0.87422 0.63424 0.76135 0.0
C2835 C 0.86408 0.63491 0.73923 0.0
C2836 C 0.85245 0.65221 0.73758 0.0
C2837 C 0.85097 0.66825 0.75801 0.0
C2838 C 0.86196 0.66743 0.78002 0.0
H2839 H 0.85391 0.62909 0.05631 0.0
H2840 H 0.88163 0.69215 0.0261 0.0
H2841 H 0.91819 0.68491 0.03201 0.0
H2842 H 0.90293 0.63559 0.09976 0.0
H2843 H 0.89951 0.60328 0.09571 0.0
H2844 H 0.8758 0.61468 0.09169 0.0
H2845 H 0.86454 0.58859 0.04962 0.0
H2846 H 0.88812 0.57709 0.05374 0.0
H2847 H 0.88408 0.59159 0.02903 0.0
H2848 H 0.95158 0.67096 0.04045 0.0
H2849 H 0.97884 0.64819 0.04605 0.0
H2850 H 0.92939 0.59169 0.06743 0.0
C2851 C 0.86772 0.64143 0.05107 0.0
C2852 C 0.86484 0.66119 0.04064 0.0
C2853 C 0.88332 0.67679 0.0339 0.0
C2854 C 0.90423 0.67297 0.0374 0.0
C2855 C 0.9065 0.65332 0.04754 0.0
C2856 C 0.88876 0.6376 0.05407 0.0
C2857 C 0.89557 0.6168 0.06287 0.0
C2858 C 0.89331 0.61764 0.08906 0.0
C2859 C 0.88229 0.59206 0.04791 0.0
C2860 C 0.91964 0.62286 0.05935 0.0
C2861 C 0.92569 0.64442 0.05119 0.0
C2862 C 0.94697 0.65391 0.0466 0.0
C2863 C 0.96232 0.64067 0.04964 0.0
C2864 C 0.95631 0.61777 0.05668 0.0
C2865 C 0.93472 0.60913 0.06214 0.0
H2866 H 0.23365 0.12162 0.81405 0.0
H2867 H 0.24399 0.08325 0.74776 0.0
H2868 H 0.26345 0.12233 0.738 0.0
H2869 H 0.22677 0.17633 0.79397 0.0
H2870 H 0.24233 0.19757 0.81978 0.0
H2871 H 0.22855 0.16679 0.82199 0.0
H2872 H 0.26515 0.16106 0.84006 0.0
H2873 H 0.27901 0.19192 0.83823 0.0
H2874 H 0.28868 0.16716 0.8247 0.0
H2875 H 0.28155 0.16696 0.73406 0.0
H2876 H 0.30055 0.21065 0.73875 0.0
H2877 H 0.28283 0.22315 0.80872 0.0
C2878 C 0.24017 0.12129 0.79754 0.0
C2879 C 0.23693 0.09826 0.78184 0.0
C2880 C 0.24604 0.09973 0.7605 0.0
C2881 C 0.25714 0.12224 0.75462 0.0
C2882 C 0.25991 0.14427 0.77022 0.0
C2883 C 0.25209 0.14399 0.79156 0.0
C2884 C 0.25851 0.17049 0.80556 0.0
C2885 C 0.2378 0.17825 0.81064 0.0
C2886 C 0.27374 0.1728 0.82851 0.0
C2887 C 0.27086 0.18566 0.78877 0.0
C2888 C 0.27109 0.16993 0.76833 0.0
C2889 C 0.2813 0.17917 0.75009 0.0
C2890 C 0.29199 0.20447 0.75283 0.0
C2891 C 0.29295 0.22155 0.77366 0.0
C2892 C 0.28197 0.21148 0.79199 0.0
H2893 H 0.43339 0.9686 0.33633 0.0
H2894 H 0.41549 1.00252 0.27883 0.0
H2895 H 0.38291 0.96735 0.26418 0.0
H2896 H 0.41567 0.90615 0.30192 0.0
H2897 H 0.40628 0.89345 0.32669 0.0
H2898 H 0.42877 0.92073 0.3314 0.0
H2899 H 0.4074 0.94254 0.35939 0.0
H2900 H 0.38465 0.91547 0.35409 0.0
H2901 H 0.38018 0.94375 0.34859 0.0
H2902 H 0.35306 0.92954 0.25607 0.0
H2903 H 0.32722 0.88904 0.25406 0.0
H2904 H 0.36369 0.88111 0.31808 0.0
C2905 C 0.42244 0.96846 0.32078 0.0
C2906 C 0.42615 0.98797 0.30885 0.0
C2907 C 0.41217 0.98757 0.28827 0.0
C2908 C 0.39388 0.96777 0.2798 0.0
C2909 C 0.39024 0.94887 0.29223 0.0
C2910 C 0.40416 0.94884 0.31209 0.0
C2911 C 0.39635 0.92623 0.32213 0.0
C2912 C 0.41274 0.91073 0.32042 0.0
C2913 C 0.39187 0.93238 0.34756 0.0
C2914 C 0.3754 0.9142 0.3054 0.0
C2915 C 0.37242 0.92732 0.28802 0.0
C2916 C 0.35496 0.91914 0.26967 0.0
C2917 C 0.3404 0.89642 0.26876 0.0
C2918 C 0.34354 0.88282 0.28627 0.0
C2919 C 0.36077 0.89189 0.30507 0.0
H2920 H 0.62617 0.38818 0.57091 0.0
H2921 H 0.58725 0.38223 0.62808 0.0
H2922 H 0.57244 0.41533 0.618 0.0
H2923 H 0.64013 0.45344 0.57599 0.0
H2924 H 0.63681 0.45318 0.54481 0.0
H2925 H 0.64429 0.42855 0.5558 0.0
H2926 H 0.61072 0.39777 0.52879 0.0
H2927 H 0.60317 0.42245 0.51786 0.0
H2928 H 0.58362 0.40157 0.5306 0.0
H2929 H 0.56105 0.44938 0.60169 0.0
H2930 H 0.55608 0.4829 0.58193 0.0
H2931 H 0.60292 0.46942 0.53587 0.0
C2932 C 0.61455 0.39384 0.58135 0.0
C2933 C 0.60804 0.38218 0.60052 0.0
C2934 C 0.59263 0.39041 0.61339 0.0
C2935 C 0.58403 0.40936 0.60774 0.0
C2936 C 0.59066 0.4203 0.58889 0.0
C2937 C 0.60559 0.41288 0.57581 0.0
C2938 C 0.60974 0.42787 0.5563 0.0
C2939 C 0.6342 0.44157 0.55836 0.0
C2940 C 0.60133 0.41143 0.53195 0.0
C2941 C 0.59574 0.44552 0.56124 0.0
C2942 C 0.58441 0.44032 0.57975 0.0
C2943 C 0.56988 0.4535 0.58719 0.0
C2944 C 0.56704 0.47251 0.57573 0.0
C2945 C 0.5789 0.47888 0.5572 0.0
C2946 C 0.5935 0.46505 0.54991 0.0
H2947 H 0.46347 0.82483 0.38396 0.0
H2948 H 0.46913 0.75746 0.34408 0.0
H2949 H 0.43449 0.75324 0.31837 0.0
H2950 H 0.40218 0.80215 0.37999 0.0
H2951 H 0.39777 0.83143 0.37856 0.0
H2952 H 0.42301 0.82951 0.39427 0.0
H2953 H 0.44542 0.85686 0.36898 0.0
H2954 H 0.42027 0.85887 0.35329 0.0
H2955 H 0.43996 0.84824 0.33733 0.0
H2956 H 0.40001 0.75631 0.29613 0.0
H2957 H 0.36824 0.76696 0.27756 0.0
H2958 H 0.38205 0.83203 0.33125 0.0
C2959 C 0.45737 0.80924 0.36976 0.0
C2960 C 0.46927 0.79145 0.36599 0.0
C2961 C 0.46046 0.77121 0.34743 0.0
C2962 C 0.44071 0.76867 0.33271 0.0
C2963 C 0.42929 0.78621 0.33693 0.0
C2964 C 0.43711 0.80605 0.35511 0.0
C2965 C 0.42093 0.82175 0.35586 0.0
C2966 C 0.41036 0.82119 0.37852 0.0
C2967 C 0.43234 0.84799 0.35372 0.0
C2968 C 0.40373 0.80854 0.3343 0.0
C2969 C 0.4088 0.78776 0.32415 0.0
C2970 C 0.39584 0.77242 0.30408 0.0
C2971 C 0.37764 0.7786 0.29368 0.0
C2972 C 0.37212 0.80006 0.30299 0.0
C2973 C 0.38531 0.81514 0.32394 0.0
H2974 H 0.08703 0.74102 0.06492 0.0
H2975 H 0.12023 0.7545 0.13665 0.0
H2976 H 0.12136 0.71217 0.13203 0.0
H2977 H 0.05309 0.68194 0.0635 0.0
H2978 H 0.05621 0.66864 0.03431 0.0
H2979 H 0.05937 0.70084 0.0418 0.0
H2980 H 0.09813 0.70959 0.02906 0.0
H2981 H 0.09504 0.67735 0.02157 0.0
H2982 H 0.11831 0.69672 0.04204 0.0
H2983 H 0.11786 0.66877 0.12158 0.0
H2984 H 0.10939 0.62501 0.10502 0.0
H2985 H 0.07741 0.63649 0.04005 0.0
C2986 C 0.09499 0.7351 0.07934 0.0
C2987 C 0.10364 0.75126 0.10118 0.0
C2988 C 0.11355 0.7426 0.11977 0.0
C2989 C 0.1143 0.71851 0.11736 0.0
C2990 C 0.10528 0.70291 0.09606 0.0
C2991 C 0.09598 0.71066 0.0772 0.0
C2992 C 0.0872 0.68932 0.05653 0.0
C2993 C 0.06249 0.68494 0.04858 0.0
C2994 C 0.10045 0.6935 0.03608 0.0
C2995 C 0.09174 0.66844 0.06742 0.0
C2996 C 0.10278 0.67705 0.09005 0.0
C2997 C 0.10929 0.66177 0.10383 0.0
C2998 C 0.10442 0.63694 0.09429 0.0
C2999 C 0.09267 0.62741 0.07139 0.0
C3000 C 0.08622 0.64336 0.05772 0.0
H3001 H 0.1035 0.31293 0.88325 0.0
H3002 H 0.08953 0.2364 0.88718 0.0
H3003 H 0.12526 0.2354 0.87482 0.0
H3004 H 0.12785 0.30776 0.83059 0.0
H3005 H 0.14895 0.33634 0.83865 0.0
H3006 H 0.1235 0.3326 0.85069 0.0
H3007 H 0.14515 0.34509 0.89284 0.0
H3008 H 0.17064 0.34889 0.88081 0.0
H3009 H 0.16443 0.32893 0.90158 0.0
H3010 H 0.16097 0.24114 0.86033 0.0
H3011 H 0.19386 0.25247 0.84127 0.0
H3012 H 0.18607 0.32524 0.84423 0.0
C3013 C 0.10818 0.29611 0.88176 0.0
C3014 C 0.09363 0.27465 0.88625 0.0
C3015 C 0.10023 0.25295 0.88373 0.0
C3016 C 0.12061 0.25224 0.87686 0.0
C3017 C 0.13439 0.27335 0.87217 0.0
C3018 C 0.12853 0.29492 0.87429 0.0
C3019 C 0.14598 0.31426 0.86614 0.0
C3020 C 0.13597 0.32326 0.84527 0.0
C3021 C 0.15721 0.33555 0.88657 0.0
C3022 C 0.16201 0.29986 0.85862 0.0
C3023 C 0.15511 0.27649 0.86283 0.0
C3024 C 0.16667 0.25946 0.85711 0.0
C3025 C 0.18556 0.2662 0.8464 0.0
C3026 C 0.19295 0.28984 0.84123 0.0
C3027 C 0.18098 0.30697 0.84776 0.0
H3028 H 0.62763 0.75793 0.92837 0.0
H3029 H 0.5937 0.80519 0.96493 0.0
H3030 H 0.57705 0.77276 0.98604 0.0
H3031 H 0.58305 0.70032 0.92304 0.0
H3032 H 0.60222 0.68281 0.92784 0.0
H3033 H 0.6098 0.70881 0.91384 0.0
H3034 H 0.6444 0.72718 0.94531 0.0
H3035 H 0.63679 0.70138 0.95949 0.0
H3036 H 0.64127 0.73169 0.97604 0.0
H3037 H 0.56715 0.73788 1.00545 0.0
H3038 H 0.56313 0.701 0.02223 0.0
H3039 H 0.60217 0.67456 0.9723 0.0
C3040 C 0.61629 0.76105 0.94047 0.0
C3041 C 0.6115 0.78362 0.94503 0.0
C3042 C 0.59713 0.7877 0.96121 0.0
C3043 C 0.58767 0.76947 0.97319 0.0
C3044 C 0.59279 0.74739 0.96858 0.0
C3045 C 0.60661 0.74293 0.95253 0.0
C3046 C 0.61013 0.71792 0.9519 0.0
C3047 C 0.60074 0.70149 0.92772 0.0
C3048 C 0.6346 0.71967 0.9586 0.0
C3049 C 0.59668 0.70949 0.97067 0.0
C3050 C 0.58673 0.72675 0.97982 0.0
C3051 C 0.5744 0.72391 0.99812 0.0
C3052 C 0.57208 0.70276 1.0074 0.0
C3053 C 0.58192 0.68459 0.99827 0.0
C3054 C 0.59435 0.68803 0.97958 0.0
H3055 H 0.07309 0.73719 0.71211 0.0
H3056 H 0.08152 0.81171 0.70293 0.0
H3057 H 0.12201 0.81953 0.71078 0.0
H3058 H 0.11825 0.74618 0.75736 0.0
H3059 H 0.12562 0.7194 0.74466 0.0
H3060 H 0.09749 0.72043 0.73982 0.0
H3061 H 0.09724 0.71057 0.69469 0.0
H3062 H 0.12539 0.70959 0.69941 0.0
H3063 H 0.11779 0.72963 0.68139 0.0
H3064 H 0.16105 0.81872 0.71895 0.0
H3065 H 0.19663 0.80942 0.72708 0.0
H3066 H 0.1619 0.73467 0.72831 0.0
C3067 C 0.08352 0.75537 0.71268 0.0
C3068 C 0.07456 0.77423 0.70806 0.0
C3069 C 0.08842 0.79741 0.70733 0.0
C3070 C 0.11127 0.80189 0.71149 0.0
C3071 C 0.11967 0.78275 0.71569 0.0
C3072 C 0.10624 0.75991 0.7161 0.0
C3073 C 0.1193 0.74203 0.71937 0.0
C3074 C 0.11491 0.7314 0.74164 0.0
C3075 C 0.11465 0.72177 0.69741 0.0
C3076 C 0.14224 0.75872 0.72201 0.0
C3077 C 0.14213 0.78203 0.71946 0.0
C3078 C 0.16142 0.80056 0.72098 0.0
C3079 C 0.18145 0.79514 0.72551 0.0
C3080 C 0.18177 0.77144 0.72849 0.0
C3081 C 0.16197 0.75303 0.7265 0.0
H3082 H 0.13001 0.43924 0.45309 0.0
H3083 H 0.09086 0.38228 0.48421 0.0
H3084 H 0.07523 0.41192 0.50625 0.0
H3085 H 0.14304 0.48679 0.50441 0.0
H3086 H 0.14036 0.51039 0.48839 0.0
H3087 H 0.14829 0.4846 0.47433 0.0
H3088 H 0.11573 0.47622 0.44077 0.0
H3089 H 0.10747 0.5017 0.45515 0.0
H3090 H 0.08816 0.47189 0.44781 0.0
H3091 H 0.0631 0.44577 0.52398 0.0
H3092 H 0.05983 0.48561 0.54306 0.0
H3093 H 0.10716 0.52188 0.50228 0.0
C3094 C 0.11849 0.43326 0.46493 0.0
C3095 C 0.1116 0.4086 0.46709 0.0
C3096 C 0.09624 0.40115 0.48236 0.0
C3097 C 0.08713 0.41774 0.49475 0.0
C3098 C 0.09352 0.44166 0.49163 0.0
C3099 C 0.1091 0.44969 0.47751 0.0
C3100 C 0.11336 0.47681 0.47821 0.0
C3101 C 0.13771 0.49044 0.48687 0.0
C3102 C 0.10572 0.48195 0.45405 0.0
C3103 C 0.09865 0.48267 0.49595 0.0
C3104 C 0.08679 0.46187 0.50266 0.0
C3105 C 0.07225 0.46228 0.51899 0.0
C3106 C 0.07045 0.4848 0.52965 0.0
C3107 C 0.08339 0.50626 0.52407 0.0
C3108 C 0.09724 0.5054 0.50669 0.0
H3109 H 0.44403 0.22489 0.21789 0.0
H3110 H 0.47293 0.29127 0.19301 0.0
H3111 H 0.44738 0.31089 0.21225 0.0
H3112 H 0.38756 0.2293 0.21005 0.0
H3113 H 0.38101 0.21711 0.23596 0.0
H3114 H 0.40103 0.20786 0.21962 0.0
H3115 H 0.4297 0.22136 0.25751 0.0
H3116 H 0.40974 0.23077 0.27387 0.0
H3117 H 0.43596 0.25209 0.27373 0.0
H3118 H 0.42144 0.32417 0.2367 0.0
H3119 H 0.39138 0.32843 0.25906 0.0
H3120 H 0.37829 0.25272 0.26647 0.0
C3121 C 0.44477 0.24345 0.21625 0.0
C3122 C 0.46041 0.25671 0.20417 0.0
C3123 C 0.46093 0.28086 0.20218 0.0
C3124 C 0.44665 0.29218 0.21316 0.0
C3125 C 0.43195 0.27888 0.22567 0.0
C3126 C 0.4305 0.25488 0.22681 0.0
C3127 C 0.41291 0.24457 0.24104 0.0
C3128 C 0.39454 0.22348 0.22574 0.0
C3129 C 0.42268 0.23675 0.26283 0.0
C3130 C 0.40498 0.2667 0.24798 0.0
C3131 C 0.41639 0.28635 0.23921 0.0
C3132 C 0.4123 0.30893 0.24362 0.0
C3133 C 0.39541 0.31121 0.25663 0.0
C3134 C 0.38274 0.29086 0.26464 0.0
C3135 C 0.38791 0.26854 0.26071 0.0
H3136 H 0.62426 0.50859 0.36382 0.0
H3137 H 0.66991 0.58064 0.38075 0.0
H3138 H 0.65847 0.58655 0.42023 0.0
H3139 H 0.5807 0.52672 0.39458 0.0
H3140 H 0.57133 0.49834 0.4045 0.0
H3141 H 0.58368 0.49906 0.37791 0.0
H3142 H 0.61215 0.47903 0.39447 0.0
H3143 H 0.59994 0.47827 0.42115 0.0
H3144 H 0.62885 0.4929 0.42256 0.0
H3145 H 0.64234 0.58429 0.46104 0.0
H3146 H 0.62184 0.57587 0.49434 0.0
H3147 H 0.58339 0.50672 0.45213 0.0
C3148 C 0.63199 0.52566 0.37577 0.0
C3149 C 0.64865 0.54406 0.36821 0.0
C3150 C 0.65744 0.56603 0.38515 0.0
C3151 C 0.65094 0.56956 0.40806 0.0
C3152 C 0.63474 0.55132 0.41487 0.0
C3153 C 0.62506 0.52985 0.39891 0.0
C3154 C 0.60713 0.5137 0.41038 0.0
C3155 C 0.58435 0.50918 0.39599 0.0
C3156 C 0.61232 0.48953 0.41224 0.0
C3157 C 0.6085 0.52899 0.43528 0.0
C3158 C 0.62475 0.55063 0.43749 0.0
C3159 C 0.62949 0.56742 0.45899 0.0
C3160 C 0.61759 0.56241 0.47822 0.0
C3161 C 0.60051 0.54059 0.47696 0.0
C3162 C 0.59617 0.52371 0.45458 0.0
H3163 H 0.30953 0.8949 0.0751 0.0
H3164 H 0.36923 0.9046 0.04322 0.0
H3165 H 0.38842 0.89478 0.07789 0.0
H3166 H 0.33318 0.92013 0.13328 0.0
H3167 H 0.31487 0.89796 0.14602 0.0
H3168 H 0.30576 0.90481 0.11823 0.0
H3169 H 0.29628 0.85925 0.09872 0.0
H3170 H 0.30489 0.85216 0.12658 0.0
H3171 H 0.31698 0.84319 0.10106 0.0
H3172 H 0.40097 0.8848 0.11577 0.0
H3173 H 0.40506 0.87058 0.15365 0.0
H3174 H 0.33727 0.86844 0.16035 0.0
C3175 C 0.32639 0.8941 0.07528 0.0
C3176 C 0.33793 0.89964 0.05673 0.0
C3177 C 0.36016 0.8994 0.05731 0.0
C3178 C 0.37121 0.89427 0.07693 0.0
C3179 C 0.35955 0.88934 0.09538 0.0
C3180 C 0.33754 0.88869 0.09453 0.0
C3181 C 0.32867 0.88221 0.11637 0.0
C3182 C 0.32013 0.90251 0.12923 0.0
C3183 C 0.31066 0.85775 0.11034 0.0
C3184 C 0.34937 0.88017 0.12994 0.0
C3185 C 0.36699 0.88425 0.11754 0.0
C3186 C 0.38747 0.88183 0.12592 0.0
C3187 C 0.38977 0.87407 0.14737 0.0
C3188 C 0.37176 0.86942 0.1599 0.0
C3189 C 0.35154 0.873 0.1514 0.0
H3190 H 0.02385 0.58977 0.90187 0.0
H3191 H 0.97273 0.5219 0.89251 0.0
H3192 H 0.98627 0.51589 0.93177 0.0
H3193 H 0.06447 0.56981 0.92418 0.0
H3194 H 0.07898 0.59667 0.94557 0.0
H3195 H 0.06225 0.59934 0.91991 0.0
H3196 H 0.0397 0.62117 0.94626 0.0
H3197 H 0.05668 0.61893 0.97211 0.0
H3198 H 0.02721 0.60693 0.96889 0.0
H3199 H 1.00883 0.51329 0.96675 0.0
H3200 H 0.03841 0.51515 0.99799 0.0
H3201 H 0.07572 0.58478 0.9851 0.0
C3202 C 1.01487 0.5745 0.9089 0.0
C3203 C 0.99691 0.55673 0.89517 0.0
C3204 C 0.98606 0.53601 0.90364 0.0
C3205 C 0.99365 0.53247 0.92574 0.0
C3206 C 1.01198 0.54995 0.93876 0.0
C3207 C 0.02234 0.57072 0.93088 0.0
C3208 C 0.04351 0.58476 0.94672 0.0
C3209 C 0.06346 0.5878 0.93327 0.0
C3210 C 0.04166 0.60941 0.95924 0.0
C3211 C 0.04416 0.5678 0.96373 0.0
C3212 C 0.02556 0.54813 0.95908 0.0
C3213 C 0.02316 0.52891 0.97104 0.0
C3214 C 0.0401 0.53007 0.98856 0.0
C3215 C 0.05907 0.55026 0.99377 0.0
C3216 C 0.06126 0.56928 0.98125 0.0
H3217 H 0.31069 0.21018 0.5979 0.0
H3218 H 0.318 0.27759 0.57177 0.0
H3219 H 0.31798 0.2991 0.61235 0.0
H3220 H 0.2735 0.22118 0.63823 0.0
H3221 H 0.28441 0.20643 0.65976 0.0
H3222 H 0.28552 0.19689 0.629 0.0
H3223 H 0.32768 0.20436 0.63794 0.0
H3224 H 0.32668 0.2137 0.66873 0.0
H3225 H 0.34455 0.23371 0.65357 0.0
H3226 H 0.31603 0.31271 0.65662 0.0
H3227 H 0.31453 0.31751 0.69956 0.0
H3228 H 0.30927 0.24096 0.69594 0.0
C3229 C 0.31256 0.22957 0.60054 0.0
C3230 C 0.31456 0.24221 0.58141 0.0
C3231 C 0.31648 0.26747 0.58596 0.0
C3232 C 0.31645 0.27978 0.609 0.0
C3233 C 0.31419 0.26656 0.6273 0.0
C3234 C 0.3123 0.24195 0.62319 0.0
C3235 C 0.30957 0.23151 0.64547 0.0
C3236 C 0.28691 0.2129 0.64296 0.0
C3237 C 0.32824 0.22017 0.6518 0.0
C3238 C 0.31096 0.25425 0.66317 0.0
C3239 C 0.3132 0.27424 0.65232 0.0
C3240 C 0.31423 0.29712 0.66513 0.0
C3241 C 0.31318 0.29966 0.68949 0.0
C3242 C 0.3115 0.27958 0.70099 0.0
C3243 C 0.31039 0.2566 0.68757 0.0
H3244 H 0.65531 0.49409 0.19792 0.0
H3245 H 0.64875 0.55902 0.24171 0.0
H3246 H 0.63152 0.57016 0.20689 0.0
H3247 H 0.66563 0.51829 0.14485 0.0
H3248 H 0.64836 0.49222 0.12419 0.0
H3249 H 0.66043 0.48841 0.15224 0.0
H3250 H 0.62186 0.46737 0.16111 0.0
H3251 H 0.60978 0.47103 0.13298 0.0
H3252 H 0.60056 0.48273 0.15956 0.0
H3253 H 0.61614 0.57642 0.16621 0.0
H3254 H 0.60141 0.57515 0.1252 0.0
H3255 H 0.61379 0.50508 0.10466 0.0
C3256 C 0.65009 0.51057 0.20034 0.0
C3257 C 0.65377 0.5255 0.22363 0.0
C3258 C 0.64631 0.5468 0.22495 0.0
C3259 C 0.63645 0.55349 0.20489 0.0
C3260 C 0.63317 0.53866 0.1826 0.0
C3261 C 0.63933 0.51727 0.18017 0.0
C3262 C 0.63274 0.5043 0.15395 0.0
C3263 C 0.65301 0.50058 0.14317 0.0
C3264 C 0.61521 0.4799 0.15177 0.0
C3265 C 0.62289 0.52211 0.14207 0.0
C3266 C 0.62336 0.54179 0.15918 0.0
C3267 C 0.6156 0.56085 0.15292 0.0
C3268 C 0.60713 0.55993 0.12913 0.0
C3269 C 0.60589 0.54003 0.11066 0.0
C3270 C 0.61408 0.52072 0.11773 0.0
H3271 H 0.32957 0.85109 0.9383 0.0
H3272 H 0.32111 0.91696 0.91665 0.0
H3273 H 0.32507 0.90071 0.87602 0.0
H3274 H 0.36836 0.83957 0.89698 0.0
H3275 H 0.35639 0.80709 0.89098 0.0
H3276 H 0.356 0.82471 0.91933 0.0
H3277 H 0.31356 0.8075 0.91444 0.0
H3278 H 0.31389 0.78969 0.88627 0.0
H3279 H 0.29699 0.8104 0.8886 0.0
H3280 H 0.33133 0.87901 0.83926 0.0
H3281 H 0.32965 0.84881 0.80454 0.0
H3282 H 0.32762 0.79335 0.84735 0.0
C3283 C 0.32847 0.86193 0.92487 0.0
C3284 C 0.32491 0.88514 0.93028 0.0
C3285 C 0.3235 0.89898 0.91256 0.0
C3286 C 0.32613 0.89011 0.88963 0.0
C3287 C 0.32983 0.8673 0.88484 0.0
C3288 C 0.33045 0.85304 0.90168 0.0
C3289 C 0.33224 0.82809 0.89097 0.0
C3290 C 0.35457 0.82467 0.90013 0.0
C3291 C 0.31301 0.80772 0.89532 0.0
C3292 C 0.33103 0.83014 0.86528 0.0
C3293 C 0.33099 0.85345 0.86261 0.0
C3294 C 0.33094 0.86057 0.84101 0.0
C3295 C 0.32984 0.84309 0.82134 0.0
C3296 C 0.32757 0.81843 0.82314 0.0
C3297 C 0.32886 0.81194 0.84549 0.0
H3298 H 0.98965 0.57524 0.74924 0.0
H3299 H 1.00119 0.51794 0.78416 0.0
H3300 H 1.00234 0.49315 0.74574 0.0
H3301 H 0.95641 0.538 0.69569 0.0
H3302 H 0.96943 0.55836 0.67753 0.0
H3303 H 0.96734 0.57008 0.70755 0.0
H3304 H 1.00975 0.58916 0.7165 0.0
H3305 H 1.01169 0.57827 0.68637 0.0
H3306 H 0.02761 0.57019 0.70968 0.0
H3307 H 1.0051 0.47663 0.70432 0.0
H3308 H 1.01653 0.47326 0.6648 0.0
H3309 H 1.00177 0.5412 0.65788 0.0
C3310 C 0.99289 0.55769 0.74867 0.0
C3311 C 0.99616 0.54863 0.7692 0.0
C3312 C 0.99967 0.52538 0.76828 0.0
C3313 C 0.99971 0.51099 0.74663 0.0
C3314 C 0.99603 0.52028 0.72641 0.0
C3315 C 0.99315 0.5433 0.72736 0.0
C3316 C 0.99241 0.55049 0.7037 0.0
C3317 C 0.97005 0.55445 0.69566 0.0
C3318 C 1.01149 0.57334 0.70407 0.0
C3319 C 0.99555 0.52799 0.68921 0.0
C3320 C 0.9972 0.51053 0.70245 0.0
C3321 C 1.0034 0.48986 0.69355 0.0
C3322 C 1.00973 0.488 0.6711 0.0
C3323 C 1.00997 0.50689 0.6583 0.0
C3324 C 1.00114 0.52601 0.66678 0.0
H3325 H 0.30555 0.27009 0.44894 0.0
H3326 H 0.31299 0.19776 0.42812 0.0
H3327 H 0.31672 0.20533 0.38781 0.0
H3328 H 0.27573 0.27453 0.39424 0.0
H3329 H 0.2902 0.30586 0.39505 0.0
H3330 H 0.28719 0.29464 0.42209 0.0
H3331 H 0.32946 0.30899 0.43426 0.0
H3332 H 0.33246 0.32036 0.40729 0.0
H3333 H 0.34691 0.29888 0.41462 0.0
H3334 H 0.3175 0.22023 0.34793 0.0
H3335 H 0.32058 0.24307 0.31501 0.0
H3336 H 0.3168 0.30708 0.36223 0.0
C3337 C 0.30796 0.25583 0.43591 0.0
C3338 C 0.30877 0.23311 0.44199 0.0
C3339 C 0.3123 0.21526 0.42423 0.0
C3340 C 0.31434 0.21938 0.4011 0.0
C3341 C 0.31337 0.24179 0.39565 0.0
C3342 C 0.31074 0.25995 0.41274 0.0
C3343 C 0.31159 0.28293 0.40257 0.0
C3344 C 0.28988 0.28989 0.40355 0.0
C3345 C 0.33128 0.30404 0.41545 0.0
C3346 C 0.3147 0.27473 0.37714 0.0
C3347 C 0.31535 0.25081 0.37335 0.0
C3348 C 0.31726 0.23907 0.35093 0.0
C3349 C 0.31889 0.25213 0.33218 0.0
C3350 C 0.31909 0.27694 0.33582 0.0
C3351 C 0.31687 0.28818 0.35874 0.0
H3352 H 0.35785 0.60682 0.50269 0.0
H3353 H 0.36742 0.62311 0.57904 0.0
H3354 H 0.40379 0.61555 0.58009 0.0
H3355 H 0.37995 0.55685 0.49838 0.0
H3356 H 0.39327 0.56232 0.473 0.0
H3357 H 0.36928 0.57252 0.47754 0.0
H3358 H 0.39089 0.61645 0.47557 0.0
H3359 H 0.41499 0.60636 0.47097 0.0
H3360 H 0.41644 0.63086 0.49492 0.0
H3361 H 0.43666 0.60431 0.57398 0.0
H3362 H 0.46485 0.58548 0.56113 0.0
H3363 H 0.43477 0.57401 0.48828 0.0
C3364 C 0.36792 0.6091 0.51948 0.0
C3365 C 0.36029 0.61559 0.54084 0.0
C3366 C 0.37329 0.61803 0.56262 0.0
C3367 C 0.39393 0.61403 0.56337 0.0
C3368 C 0.40106 0.60737 0.54215 0.0
C3369 C 0.38851 0.60458 0.52057 0.0
C3370 C 0.3994 0.59463 0.50069 0.0
C3371 C 0.38459 0.57012 0.48659 0.0
C3372 C 0.40581 0.61319 0.48459 0.0
C3373 C 0.41957 0.5916 0.51477 0.0
C3374 C 0.4203 0.59974 0.53854 0.0
C3375 C 0.4366 0.59816 0.55541 0.0
C3376 C 0.4526 0.58757 0.54789 0.0
C3377 C 0.45213 0.57862 0.5237 0.0
C3378 C 0.43551 0.58085 0.50686 0.0
H3379 H 0.91798 0.97272 0.57756 0.0
H3380 H 0.9112 0.91486 0.51778 0.0
H3381 H 0.94781 0.93551 0.50925 0.0
H3382 H 0.9485 0.02291 0.55221 0.0
H3383 H 0.96669 0.03821 0.57909 0.0
H3384 H 0.93941 0.01974 0.58025 0.0
H3385 H 0.95577 0.99437 0.60617 0.0
H3386 H 0.98311 1.01278 0.60516 0.0
H3387 H 0.97617 0.98022 0.59595 0.0
H3388 H 0.98544 0.9624 0.5066 0.0
H3389 H 0.02191 0.99226 0.51145 0.0
H3390 H 1.00689 0.03243 0.57419 0.0
C3391 C 0.92417 0.96451 0.56259 0.0
C3392 C 0.9114 0.94198 0.5483 0.0
C3393 C 0.92045 0.93188 0.52911 0.0
C3394 C 0.94132 0.94359 0.52403 0.0
C3395 C 0.95355 0.96548 0.53846 0.0
C3396 C 0.94545 0.97581 0.55751 0.0
C3397 C 0.96265 0.99898 0.57072 0.0
C3398 C 0.95378 0.02129 0.57056 0.0
C3399 C 0.96984 0.99643 0.59601 0.0
C3400 C 0.98152 1.00005 0.55609 0.0
C3401 C 0.97573 0.98058 0.53744 0.0
C3402 C 0.99015 0.9776 0.52126 0.0
C3403 C 1.01097 0.9947 0.5242 0.0
C3404 C 1.01769 1.01469 0.54333 0.0
C3405 C 1.00254 0.0173 0.55947 0.0
H3406 H 0.91805 0.1526 0.23997 0.0
H3407 H 0.88199 0.10823 0.2844 0.0
H3408 H 0.86127 0.13856 0.29328 0.0
H3409 H 0.92173 0.21209 0.27839 0.0
H3410 H 0.91875 0.2278 0.25438 0.0
H3411 H 0.93077 0.20267 0.2509 0.0
H3412 H 0.90189 0.18119 0.21436 0.0
H3413 H 0.88981 0.20628 0.21786 0.0
H3414 H 0.87304 0.17576 0.21681 0.0
H3415 H 0.84201 0.17405 0.29633 0.0
H3416 H 0.82907 0.21063 0.29565 0.0
H3417 H 0.8782 0.23651 0.25205 0.0
C3418 C 0.90578 0.14911 0.25158 0.0
C3419 C 0.90195 0.1269 0.26117 0.0
C3420 C 0.88566 0.12426 0.27647 0.0
C3421 C 0.8736 0.14173 0.28168 0.0
C3422 C 0.87764 0.163 0.27199 0.0
C3423 C 0.89364 0.16698 0.25743 0.0
C3424 C 0.89501 0.192 0.25002 0.0
C3425 C 0.91794 0.20969 0.25894 0.0
C3426 C 0.88963 0.18861 0.22316 0.0
C3427 C 0.87724 0.20124 0.26228 0.0
C3428 C 0.86736 0.18392 0.27471 0.0
C3429 C 0.85003 0.1876 0.28677 0.0
C3430 C 0.84264 0.20886 0.28628 0.0
C3431 C 0.85233 0.22767 0.27422 0.0
C3432 C 0.87024 0.22335 0.26202 0.0
H3433 H 0.74073 0.10366 0.06575 0.0
H3434 H 0.73893 0.1218 0.99619 0.0
H3435 H 0.69876 0.11566 0.99341 0.0
H3436 H 0.68831 0.05663 0.05529 0.0
H3437 H 0.68188 0.06603 0.08421 0.0
H3438 H 0.71012 0.07065 0.07958 0.0
H3439 H 0.71757 0.11649 0.09725 0.0
H3440 H 0.68908 0.11215 0.10094 0.0
H3441 H 0.70181 0.1341 0.0841 0.0
H3442 H 0.66146 0.1146 1.00095 0.0
H3443 H 0.6242 0.10323 1.01131 0.0
H3444 H 0.64883 0.08054 0.07388 0.0
C3445 C 0.73156 0.10511 0.04956 0.0
C3446 C 0.74228 0.11246 0.03087 0.0
C3447 C 0.73044 0.11545 1.01027 0.0
C3448 C 0.70788 0.11255 1.00879 0.0
C3449 C 0.69789 0.1068 0.02817 0.0
C3450 C 0.70904 0.10221 0.04779 0.0
C3451 C 0.69415 0.09605 0.06597 0.0
C3452 C 0.69356 0.07082 0.07156 0.0
C3453 C 0.70108 0.11587 0.08839 0.0
C3454 C 0.6726 0.09653 0.05281 0.0
C3455 C 0.67559 0.1042 0.0317 0.0
C3456 C 0.65867 0.10771 0.01697 0.0
C3457 C 0.63763 0.10108 0.02294 0.0
C3458 C 0.63368 0.08969 0.04253 0.0
C3459 C 0.65144 0.08876 0.05853 0.0
H3460 H 0.23133 0.49408 0.24801 0.0
H3461 H 0.24006 0.53608 0.31853 0.0
H3462 H 0.25981 0.50867 0.33383 0.0
H3463 H 0.22064 0.43593 0.26457 0.0
H3464 H 0.23514 0.42342 0.24289 0.0
H3465 H 0.22256 0.44692 0.2373 0.0
H3466 H 0.25984 0.47377 0.23014 0.0
H3467 H 0.27243 0.45014 0.23515 0.0
H3468 H 0.28369 0.48048 0.25219 0.0
H3469 H 0.27723 0.47711 0.34126 0.0
H3470 H 0.29436 0.44333 0.34059 0.0
H3471 H 0.27381 0.4219 0.26503 0.0
C3472 C 0.23749 0.49729 0.26661 0.0
C3473 C 0.23429 0.51647 0.28243 0.0
C3474 C 0.24241 0.5209 0.30658 0.0
C3475 C 0.25355 0.5056 0.31529 0.0
C3476 C 0.25602 0.48624 0.29941 0.0
C3477 C 0.2484 0.48208 0.27558 0.0
C3478 C 0.25306 0.45985 0.26241 0.0
C3479 C 0.23157 0.44038 0.25114 0.0
C3480 C 0.26817 0.46648 0.2439 0.0
C3481 C 0.26466 0.45233 0.28265 0.0
C3482 C 0.26605 0.46773 0.30379 0.0
C3483 C 0.27632 0.4648 0.32492 0.0
C3484 C 0.28595 0.44572 0.32438 0.0
C3485 C 0.28518 0.43021 0.30285 0.0
C3486 C 0.27417 0.43331 0.2818 0.0
H3487 H 0.28268 0.44837 0.08335 0.0
H3488 H 0.29192 0.43445 1.01012 0.0
H3489 H 0.25968 0.44902 0.99895 0.0
H3490 H 0.22128 0.42822 0.06971 0.0
H3491 H 0.21801 0.45003 0.09384 0.0
H3492 H 0.24126 0.43764 0.09601 0.0
H3493 H 0.26768 0.48132 0.10511 0.0
H3494 H 0.24449 0.4937 0.10293 0.0
H3495 H 0.2658 0.50166 0.08494 0.0
H3496 H 0.22716 0.46707 0.99599 0.0
H3497 H 0.19692 0.48591 1.00128 0.0
H3498 H 0.20849 0.48791 0.07656 0.0
C3499 C 0.2779 0.44839 0.06496 0.0
C3500 C 0.29008 0.44053 0.04761 0.0
C3501 C 0.28296 0.4404 0.02371 0.0
C3502 C 0.26462 0.44865 0.0172 0.0
C3503 C 0.25309 0.45645 0.03471 0.0
C3504 C 0.25923 0.45598 0.05808 0.0
C3505 C 0.24367 0.46483 0.07334 0.0
C3506 C 0.23027 0.44394 0.08385 0.0
C3507 C 0.25617 0.48668 0.09272 0.0
C3508 C 0.22889 0.47203 0.05522 0.0
C3509 C 0.23427 0.46653 0.03297 0.0
C3510 C 0.22288 0.47145 0.01339 0.0
C3511 C 0.20576 0.48244 0.01666 0.0
C3512 C 0.20017 0.48884 0.03941 0.0
C3513 C 0.21193 0.48317 0.05884 0.0
H3514 H 0.91497 0.98321 0.29961 0.0
H3515 H 0.89149 0.98419 0.2274 0.0
H3516 H 0.86939 0.94125 0.22264 0.0
H3517 H 0.91747 0.9209 0.29279 0.0
H3518 H 0.90655 0.91485 0.31938 0.0
H3519 H 0.92092 0.94548 0.31731 0.0
H3520 H 0.88738 0.96019 0.32756 0.0
H3521 H 0.87305 0.92967 0.33001 0.0
H3522 H 0.86075 0.94537 0.31043 0.0
H3523 H 0.85012 0.8957 0.22505 0.0
H3524 H 0.83197 0.85649 0.23562 0.0
H3525 H 0.86409 0.88353 0.30745 0.0
C3526 C 0.90497 0.97457 0.2828 0.0
C3527 C 0.90531 0.98811 0.26386 0.0
C3528 C 0.89172 0.97524 0.2424 0.0
C3529 C 0.8791 0.95041 0.23948 0.0
C3530 C 0.87929 0.93774 0.25827 0.0
C3531 C 0.89148 0.9497 0.2798 0.0
C3532 C 0.88762 0.93222 0.29757 0.0
C3533 C 0.90944 0.92812 0.30735 0.0
C3534 C 0.87655 0.94247 0.31759 0.0
C3535 C 0.87196 0.90835 0.28264 0.0
C3536 C 0.86761 0.91205 0.25991 0.0
C3537 C 0.85367 0.89295 0.24284 0.0
C3538 C 0.84355 0.8702 0.24898 0.0
C3539 C 0.84695 0.8654 0.27213 0.0
C3540 C 0.86155 0.88538 0.28923 0.0
H3541 H 0.73263 0.12701 0.74034 0.0
H3542 H 0.69972 0.14145 0.80063 0.0
H3543 H 0.72495 0.18285 0.81172 0.0
H3544 H 0.78544 0.1559 0.768 0.0
H3545 H 0.79566 0.16867 0.74358 0.0
H3546 H 0.77345 0.14108 0.73825 0.0
H3547 H 0.74873 0.1606 0.71391 0.0
H3548 H 0.77117 0.18794 0.71846 0.0
H3549 H 0.7448 0.18941 0.72653 0.0
H3550 H 0.756 0.21743 0.81986 0.0
H3551 H 0.78687 0.25196 0.81998 0.0
H3552 H 0.79975 0.21721 0.75286 0.0
C3553 C 0.73027 0.13948 0.7552 0.0
C3554 C 0.71447 0.13193 0.76967 0.0
C3555 C 0.71179 0.14765 0.78946 0.0
C3556 C 0.72604 0.1709 0.79587 0.0
C3557 C 0.74235 0.17752 0.78198 0.0
C3558 C 0.74423 0.16275 0.76168 0.0
C3559 C 0.7639 0.1742 0.75065 0.0
C3560 C 0.78059 0.15905 0.7501 0.0
C3561 C 0.75672 0.17831 0.72593 0.0
C3562 C 0.77272 0.19775 0.76813 0.0
C3563 C 0.76026 0.19867 0.78628 0.0
C3564 C 0.76565 0.21738 0.80554 0.0
C3565 C 0.78357 0.23673 0.80559 0.0
C3566 C 0.79564 0.23727 0.78635 0.0
C3567 C 0.79063 0.21725 0.76765 0.0
loop_
_geom_bond_atom_site_label_1
_geom_bond_atom_site_label_2
_geom_bond_distance
_geom_bond_site_symmetry_2
_ccdc_geom_bond_type
O0 Cd1 2.223 . S
O0 C8 1.315 . S
Cd1 O0 2.223 . S
Cd1 O4 2.297 . S
Cd1 O5 2.439 . S
Cd1 O11 2.240 . S
Cd2 O3 2.240 . S
Cd2 O10 2.223 . S
Cd2 O12 2.297 . S
Cd2 O13 2.439 . S
O3 Cd2 2.240 . S
O3 C8 1.279 . S
O4 Cd1 2.297 . S
O4 C6 1.247 . S
O5 Cd1 2.439 . S
O5 C6 1.208 . S
C6 O4 1.247 . S
C6 O5 1.208 . S
C7 O12 1.247 . S
C7 O13 1.208 . S
C8 O0 1.315 . S
C8 O3 1.279 . S
C9 O10 1.315 . S
C9 O11 1.279 . S
O10 Cd2 2.223 . S
O10 C9 1.315 . S
O11 Cd1 2.240 . S
O11 C9 1.279 . S
O12 Cd2 2.297 . S
O12 C7 1.247 . S
O13 Cd2 2.439 . S
O13 C7 1.208 . S
O14 Cd15 2.223 . S
O14 C22 1.315 . S
Cd15 O14 2.223 . S
Cd15 O18 2.297 . S
Cd15 O19 2.439 . S
Cd15 O25 2.240 1_655 S
Cd16 O17 2.240 1_455 S
Cd16 O24 2.223 . S
Cd16 O26 2.297 . S
Cd16 O27 2.450 . S
O17 Cd16 2.240 1_655 S
O17 C22 1.279 . S
O18 Cd15 2.297 . S
O18 C20 1.247 . S
O19 Cd15 2.439 . S
O19 C20 1.208 . S
C20 O18 1.247 . S
C20 O19 1.208 . S
C21 O26 1.247 . S
C21 O27 1.221 . S
C22 O14 1.315 . S
C22 O17 1.279 . S
C23 O24 1.315 . S
C23 O25 1.279 . S
O24 Cd16 2.223 . S
O24 C23 1.315 . S
O25 Cd15 2.240 1_455 S
O25 C23 1.279 . S
O26 Cd16 2.297 . S
O26 C21 1.247 . S
O27 Cd16 2.450 . S
O27 C21 1.221 . S
O28 Cd29 2.223 . S
O28 C36 1.315 . S
Cd29 O28 2.223 . S
Cd29 O32 2.297 . S
Cd29 O33 2.439 . S
Cd29 O39 2.240 . S
Cd30 O31 2.240 . S
Cd30 O38 2.223 . S
Cd30 O40 2.297 . S
Cd30 O41 2.439 . S
O31 Cd30 2.240 . S
O31 C36 1.279 . S
O32 Cd29 2.297 . S
O32 C34 1.247 . S
O33 Cd29 2.439 . S
O33 C34 1.208 . S
C34 O32 1.247 . S
C34 O33 1.208 . S
C35 O40 1.247 . S
C35 O41 1.208 . S
C36 O28 1.315 . S
C36 O31 1.279 . S
C37 O38 1.315 . S
C37 O39 1.279 . S
O38 Cd30 2.223 . S
O38 C37 1.315 . S
O39 Cd29 2.240 . S
O39 C37 1.279 . S
O40 Cd30 2.297 . S
O40 C35 1.247 . S
O41 Cd30 2.439 . S
O41 C35 1.208 . S
O42 Cd43 2.223 . S
O42 C50 1.315 . S
Cd43 O42 2.223 . S
Cd43 O46 2.297 . S
Cd43 O47 2.439 . S
Cd43 O53 2.240 . S
Cd44 O45 2.240 . S
Cd44 O52 2.223 . S
Cd44 O54 2.297 . S
Cd44 O55 2.439 . S
O45 Cd44 2.240 . S
O45 C50 1.279 . S
O46 Cd43 2.297 . S
O46 C48 1.247 . S
O47 Cd43 2.439 . S
O47 C48 1.208 . S
C48 O46 1.247 . S
C48 O47 1.208 . S
C49 O54 1.247 . S
C49 O55 1.208 . S
C50 O42 1.315 . S
C50 O45 1.279 . S
C51 O52 1.315 . S
C51 O53 1.279 . S
O52 Cd44 2.223 . S
O52 C51 1.315 . S
O53 Cd43 2.240 . S
O53 C51 1.279 . S
O54 Cd44 2.297 . S
O54 C49 1.247 . S
O55 Cd44 2.439 . S
O55 C49 1.208 . S
O56 Cd57 2.223 . S
O56 C64 1.315 . S
Cd57 O56 2.223 . S
Cd57 O60 2.297 . S
Cd57 O61 2.439 . S
Cd57 O67 2.240 . S
Cd58 O59 2.240 . S
Cd58 O66 2.223 . S
Cd58 O68 2.297 . S
Cd58 O69 2.439 . S
O59 Cd58 2.240 . S
O59 C64 1.279 . S
O60 Cd57 2.297 . S
O60 C62 1.247 . S
O61 Cd57 2.439 . S
O61 C62 1.208 . S
C62 O60 1.247 . S
C62 O61 1.208 . S
C63 O68 1.247 . S
C63 O69 1.208 . S
C64 O56 1.315 . S
C64 O59 1.279 . S
C65 O66 1.315 . S
C65 O67 1.279 . S
O66 Cd58 2.223 . S
O66 C65 1.315 . S
O67 Cd57 2.240 . S
O67 C65 1.279 . S
O68 Cd58 2.297 . S
O68 C63 1.247 . S
O69 Cd58 2.439 . S
O69 C63 1.208 . S
O70 Cd71 2.223 . S
O70 C78 1.315 . S
Cd71 O70 2.223 . S
Cd71 O74 2.297 . S
Cd71 O75 2.439 . S
Cd71 O81 2.240 . S
Cd72 O73 2.240 . S
Cd72 O80 2.223 . S
Cd72 O82 2.297 . S
Cd72 O83 2.439 . S
O73 Cd72 2.240 . S
O73 C78 1.279 . S
O74 Cd71 2.297 . S
O74 C76 1.247 . S
O75 Cd71 2.439 . S
O75 C76 1.208 . S
C76 O74 1.247 . S
C76 O75 1.208 . S
C77 O82 1.247 . S
C77 O83 1.208 . S
C78 O70 1.315 . S
C78 O73 1.279 . S
C79 O80 1.315 . S
C79 O81 1.279 . S
O80 Cd72 2.223 . S
O80 C79 1.315 . S
O81 Cd71 2.240 . S
O81 C79 1.279 . S
O82 Cd72 2.297 . S
O82 C77 1.247 . S
O83 Cd72 2.439 . S
O83 C77 1.208 . S
O84 Cd85 2.223 . S
O84 C92 1.315 . S
Cd85 O84 2.223 . S
Cd85 O88 2.297 . S
Cd85 O89 2.439 . S
Cd85 O95 2.240 . S
Cd86 O87 2.240 . S
Cd86 O94 2.223 . S
Cd86 O96 2.297 . S
Cd86 O97 2.439 . S
O87 Cd86 2.240 . S
O87 C92 1.279 . S
O88 Cd85 2.297 . S
O88 C90 1.247 . S
O89 Cd85 2.439 . S
O89 C90 1.208 . S
C90 O88 1.247 . S
C90 O89 1.208 . S
C91 O96 1.247 . S
C91 O97 1.208 . S
C92 O84 1.315 . S
C92 O87 1.279 . S
C93 O94 1.315 . S
C93 O95 1.279 . S
O94 Cd86 2.223 . S
O94 C93 1.315 . S
O95 Cd85 2.240 . S
O95 C93 1.279 . S
O96 Cd86 2.297 . S
O96 C91 1.247 . S
O97 Cd86 2.439 . S
O97 C91 1.208 . S
O98 Cd99 2.223 . S
O98 C106 1.315 . S
Cd99 O98 2.223 . S
Cd99 O102 2.297 . S
Cd99 O103 2.439 . S
Cd99 O109 2.240 . S
Cd100 O101 2.240 . S
Cd100 O108 2.223 1_455 S
Cd100 O110 2.297 . S
Cd100 O111 2.439 . S
O101 Cd100 2.240 . S
O101 C106 1.279 . S
O102 Cd99 2.297 . S
O102 C104 1.247 . S
O103 Cd99 2.439 . S
O103 C104 1.208 . S
C104 O102 1.247 . S
C104 O103 1.208 . S
C105 O110 1.247 . S
C105 O111 1.208 . S
C106 O98 1.315 . S
C106 O101 1.279 . S
C107 O108 1.315 . S
C107 O109 1.279 1_655 S
O108 Cd100 2.223 1_655 S
O108 C107 1.315 . S
O109 Cd99 2.240 . S
O109 C107 1.279 1_455 S
O110 Cd100 2.297 . S
O110 C105 1.247 . S
O111 Cd100 2.439 . S
O111 C105 1.208 . S
O112 Cd113 2.223 1_565 S
O112 C120 1.315 1_565 S
Cd113 O112 2.223 1_545 S
Cd113 O116 2.297 . S
Cd113 O117 2.439 . S
Cd113 O123 2.240 1_545 S
Cd114 O115 2.240 1_565 S
Cd114 O122 2.223 . S
Cd114 O124 2.297 . S
Cd114 O125 2.439 1_565 S
O115 Cd114 2.240 1_545 S
O115 C120 1.279 . S
O116 Cd113 2.297 . S
O116 C118 1.247 . S
O117 Cd113 2.439 . S
O117 C118 1.208 . S
C118 O116 1.247 . S
C118 O117 1.208 . S
C119 O124 1.247 1_545 S
C119 O125 1.208 . S
C120 O112 1.315 1_545 S
C120 O115 1.279 . S
C121 O122 1.315 . S
C121 O123 1.279 . S
O122 Cd114 2.223 . S
O122 C121 1.315 . S
O123 Cd113 2.240 1_565 S
O123 C121 1.279 . S
O124 Cd114 2.297 . S
O124 C119 1.247 1_565 S
O125 Cd114 2.439 1_545 S
O125 C119 1.208 . S
O126 Cd127 2.223 . S
O126 C134 1.315 . S
Cd127 O126 2.223 . S
Cd127 O130 2.297 . S
Cd127 O131 2.439 . S
Cd127 O137 2.240 . S
Cd128 O129 2.240 . S
Cd128 O136 2.223 . S
Cd128 O138 2.297 . S
Cd128 O139 2.439 . S
O129 Cd128 2.240 . S
O129 C134 1.279 . S
O130 Cd127 2.297 . S
O130 C132 1.247 . S
O131 Cd127 2.439 . S
O131 C132 1.208 . S
C132 O130 1.247 . S
C132 O131 1.208 . S
C133 O138 1.247 . S
C133 O139 1.208 . S
C134 O126 1.315 . S
C134 O129 1.279 . S
C135 O136 1.315 . S
C135 O137 1.279 . S
O136 Cd128 2.223 . S
O136 C135 1.315 . S
O137 Cd127 2.240 . S
O137 C135 1.279 . S
O138 Cd128 2.297 . S
O138 C133 1.247 . S
O139 Cd128 2.439 . S
O139 C133 1.208 . S
O140 Cd141 2.223 1_545 S
O140 C148 1.315 1_545 S
Cd141 O140 2.223 1_565 S
Cd141 O144 2.297 . S
Cd141 O145 2.439 . S
Cd141 O151 2.240 1_565 S
Cd142 O143 2.240 1_545 S
Cd142 O150 2.223 . S
Cd142 O152 2.297 . S
Cd142 O153 2.439 1_545 S
O143 Cd142 2.240 1_565 S
O143 C148 1.279 . S
O144 Cd141 2.297 . S
O144 C146 1.247 . S
O145 Cd141 2.439 . S
O145 C146 1.208 . S
C146 O144 1.247 . S
C146 O145 1.208 . S
C147 O152 1.247 . S
C147 O153 1.208 1_545 S
C148 O140 1.315 1_565 S
C148 O143 1.279 . S
C149 O150 1.315 . S
C149 O151 1.279 . S
O150 Cd142 2.223 . S
O150 C149 1.315 . S
O151 Cd141 2.240 1_545 S
O151 C149 1.279 . S
O152 Cd142 2.297 . S
O152 C147 1.247 . S
O153 Cd142 2.439 1_565 S
O153 C147 1.208 1_565 S
O154 Cd155 2.223 . S
O154 C162 1.315 . S
Cd155 O154 2.223 . S
Cd155 O158 2.297 . S
Cd155 O159 2.439 1_554 S
Cd155 O165 2.216 1_554 S
Cd156 O157 2.240 1_556 S
Cd156 O164 2.223 1_556 S
Cd156 O166 2.297 . S
Cd156 O167 2.439 . S
O157 Cd156 2.240 1_554 S
O157 C162 1.279 . S
O158 Cd155 2.297 . S
O158 C160 1.247 . S
O159 Cd155 2.439 1_556 S
O159 C160 1.208 1_556 S
C160 O158 1.247 . S
C160 O159 1.208 1_554 S
C161 O166 1.247 . S
C161 O167 1.208 . S
C162 O154 1.315 . S
C162 O157 1.279 . S
C163 O164 1.315 . S
C163 O165 1.265 1_554 S
O164 Cd156 2.223 1_554 S
O164 C163 1.315 . S
O165 Cd155 2.216 1_556 S
O165 C163 1.265 1_556 S
O166 Cd156 2.297 . S
O166 C161 1.247 . S
O167 Cd156 2.439 . S
O167 C161 1.208 . S
O168 Cd169 2.223 . S
O168 C176 1.315 . S
Cd169 O168 2.223 . S
Cd169 O172 2.297 . S
Cd169 O173 2.439 . S
Cd169 O179 2.240 . S
Cd170 O171 2.240 . S
Cd170 O178 2.223 . S
Cd170 O180 2.297 1_554 S
Cd170 O181 2.439 1_554 S
O171 Cd170 2.240 . S
O171 C176 1.279 . S
O172 Cd169 2.297 . S
O172 C174 1.247 . S
O173 Cd169 2.439 . S
O173 C174 1.208 . S
C174 O172 1.247 . S
C174 O173 1.208 . S
C175 O180 1.247 . S
C175 O181 1.208 . S
C176 O168 1.315 . S
C176 O171 1.279 . S
C177 O178 1.315 . S
C177 O179 1.279 . S
O178 Cd170 2.223 . S
O178 C177 1.315 . S
O179 Cd169 2.240 . S
O179 C177 1.279 . S
O180 Cd170 2.297 1_556 S
O180 C175 1.247 . S
O181 Cd170 2.439 1_556 S
O181 C175 1.208 . S
O182 Cd183 2.223 . S
O182 C190 1.315 . S
Cd183 O182 2.223 . S
Cd183 O186 2.297 . S
Cd183 O187 2.439 . S
Cd183 O193 2.240 . S
Cd184 O185 2.240 . S
Cd184 O192 2.223 . S
Cd184 O194 2.297 1_554 S
Cd184 O195 2.439 1_554 S
O185 Cd184 2.240 . S
O185 C190 1.279 . S
O186 Cd183 2.297 . S
O186 C188 1.247 . S
O187 Cd183 2.439 . S
O187 C188 1.208 . S
C188 O186 1.247 . S
C188 O187 1.208 . S
C189 O194 1.247 . S
C189 O195 1.208 . S
C190 O182 1.315 . S
C190 O185 1.279 . S
C191 O192 1.315 . S
C191 O193 1.279 . S
O192 Cd184 2.223 . S
O192 C191 1.315 . S
O193 Cd183 2.240 . S
O193 C191 1.279 . S
O194 Cd184 2.297 1_556 S
O194 C189 1.247 . S
O195 Cd184 2.439 1_556 S
O195 C189 1.208 . S
O196 Cd197 2.223 . S
O196 C204 1.315 . S
Cd197 O196 2.223 . S
Cd197 O200 2.297 . S
Cd197 O201 2.439 . S
Cd197 O207 2.240 . S
Cd198 O199 2.240 . S
Cd198 O206 2.223 . S
Cd198 O208 2.297 . S
Cd198 O209 2.439 . S
O199 Cd198 2.240 . S
O199 C204 1.279 . S
O200 Cd197 2.297 . S
O200 C202 1.247 . S
O201 Cd197 2.439 . S
O201 C202 1.208 . S
C202 O200 1.247 . S
C202 O201 1.208 . S
C203 O208 1.247 . S
C203 O209 1.208 . S
C204 O196 1.315 . S
C204 O199 1.279 . S
C205 O206 1.315 . S
C205 O207 1.279 . S
O206 Cd198 2.223 . S
O206 C205 1.315 . S
O207 Cd197 2.240 . S
O207 C205 1.279 . S
O208 Cd198 2.297 . S
O208 C203 1.247 . S
O209 Cd198 2.439 . S
O209 C203 1.208 . S
O210 Cd211 2.223 . S
O210 C218 1.315 . S
Cd211 O210 2.223 . S
Cd211 O214 2.297 . S
Cd211 O215 2.439 . S
Cd211 O221 2.240 . S
Cd212 O213 2.240 . S
Cd212 O220 2.223 . S
Cd212 O222 2.297 . S
Cd212 O223 2.439 . S
O213 Cd212 2.240 . S
O213 C218 1.279 . S
O214 Cd211 2.297 . S
O214 C216 1.247 . S
O215 Cd211 2.439 . S
O215 C216 1.208 . S
C216 O214 1.247 . S
C216 O215 1.208 . S
C217 O222 1.247 . S
C217 O223 1.208 . S
C218 O210 1.315 . S
C218 O213 1.279 . S
C219 O220 1.315 . S
C219 O221 1.279 . S
O220 Cd212 2.223 . S
O220 C219 1.315 . S
O221 Cd211 2.240 . S
O221 C219 1.279 . S
O222 Cd212 2.297 . S
O222 C217 1.247 . S
O223 Cd212 2.439 . S
O223 C217 1.208 . S
O224 Cd225 2.223 . S
O224 C232 1.315 . S
Cd225 O224 2.223 . S
Cd225 O228 2.297 . S
Cd225 O229 2.439 . S
Cd225 O235 2.240 . S
Cd226 O227 2.240 . S
Cd226 O234 2.223 . S
Cd226 O236 2.297 . S
Cd226 O237 2.439 . S
O227 Cd226 2.240 . S
O227 C232 1.279 . S
O228 Cd225 2.297 . S
O228 C230 1.247 . S
O229 Cd225 2.439 . S
O229 C230 1.208 . S
C230 O228 1.247 . S
C230 O229 1.208 . S
C231 O236 1.247 . S
C231 O237 1.208 . S
C232 O224 1.315 . S
C232 O227 1.279 . S
C233 O234 1.315 . S
C233 O235 1.279 . S
O234 Cd226 2.223 . S
O234 C233 1.315 . S
O235 Cd225 2.240 . S
O235 C233 1.279 . S
O236 Cd226 2.297 . S
O236 C231 1.247 . S
O237 Cd226 2.439 . S
O237 C231 1.208 . S
O238 Cd239 2.223 . S
O238 C246 1.315 . S
Cd239 O238 2.223 . S
Cd239 O242 2.297 . S
Cd239 O243 2.439 . S
Cd239 O249 2.240 . S
Cd240 O241 2.240 . S
Cd240 O248 2.223 . S
Cd240 O250 2.297 . S
Cd240 O251 2.439 . S
O241 Cd240 2.240 . S
O241 C246 1.279 . S
O242 Cd239 2.297 . S
O242 C244 1.247 . S
O243 Cd239 2.439 . S
O243 C244 1.208 . S
C244 O242 1.247 . S
C244 O243 1.208 . S
C245 O250 1.247 . S
C245 O251 1.208 . S
C246 O238 1.315 . S
C246 O241 1.279 . S
C247 O248 1.315 . S
C247 O249 1.279 . S
O248 Cd240 2.223 . S
O248 C247 1.315 . S
O249 Cd239 2.240 . S
O249 C247 1.279 . S
O250 Cd240 2.297 . S
O250 C245 1.247 . S
O251 Cd240 2.439 . S
O251 C245 1.208 . S
O252 Cd253 2.223 . S
O252 C260 1.315 . S
Cd253 O252 2.223 . S
Cd253 O256 2.297 . S
Cd253 O257 2.439 . S
Cd253 O263 2.240 . S
Cd254 O255 2.240 . S
Cd254 O262 2.223 . S
Cd254 O264 2.297 . S
Cd254 O265 2.439 . S
O255 Cd254 2.240 . S
O255 C260 1.279 . S
O256 Cd253 2.297 . S
O256 C258 1.247 . S
O257 Cd253 2.439 . S
O257 C258 1.208 . S
C258 O256 1.247 . S
C258 O257 1.208 . S
C259 O264 1.247 . S
C259 O265 1.208 . S
C260 O252 1.315 . S
C260 O255 1.279 . S
C261 O262 1.315 . S
C261 O263 1.279 . S
O262 Cd254 2.223 . S
O262 C261 1.315 . S
O263 Cd253 2.240 . S
O263 C261 1.279 . S
O264 Cd254 2.297 . S
O264 C259 1.247 . S
O265 Cd254 2.439 . S
O265 C259 1.208 . S
O266 Cd267 2.223 . S
O266 C274 1.315 . S
Cd267 O266 2.223 . S
Cd267 O270 2.297 . S
Cd267 O271 2.439 . S
Cd267 O277 2.240 . S
Cd268 O269 2.240 . S
Cd268 O276 2.223 . S
Cd268 O278 2.297 . S
Cd268 O279 2.439 . S
O269 Cd268 2.240 . S
O269 C274 1.279 . S
O270 Cd267 2.297 . S
O270 C272 1.247 . S
O271 Cd267 2.439 . S
O271 C272 1.208 . S
C272 O270 1.247 . S
C272 O271 1.208 . S
C273 O278 1.247 . S
C273 O279 1.208 . S
C274 O266 1.315 . S
C274 O269 1.279 . S
C275 O276 1.315 . S
C275 O277 1.279 . S
O276 Cd268 2.223 . S
O276 C275 1.315 . S
O277 Cd267 2.240 . S
O277 C275 1.279 . S
O278 Cd268 2.297 . S
O278 C273 1.247 . S
O279 Cd268 2.439 . S
O279 C273 1.208 . S
O280 Cd281 2.223 . S
O280 C288 1.315 . S
Cd281 O280 2.223 . S
Cd281 O284 2.297 . S
Cd281 O285 2.439 . S
Cd281 O291 2.240 . S
Cd282 O283 2.240 . S
Cd282 O290 2.223 . S
Cd282 O292 2.297 1_554 S
Cd282 O293 2.439 1_554 S
O283 Cd282 2.240 . S
O283 C288 1.279 . S
O284 Cd281 2.297 . S
O284 C286 1.247 . S
O285 Cd281 2.439 . S
O285 C286 1.208 . S
C286 O284 1.247 . S
C286 O285 1.208 . S
C287 O292 1.247 . S
C287 O293 1.208 . S
C288 O280 1.315 . S
C288 O283 1.279 . S
C289 O290 1.315 . S
C289 O291 1.279 . S
O290 Cd282 2.223 . S
O290 C289 1.315 . S
O291 Cd281 2.240 . S
O291 C289 1.279 . S
O292 Cd282 2.297 1_556 S
O292 C287 1.247 . S
O293 Cd282 2.439 1_556 S
O293 C287 1.208 . S
O294 Cd295 2.223 . S
O294 C302 1.315 . S
Cd295 O294 2.223 . S
Cd295 O298 2.297 . S
Cd295 O299 2.439 . S
Cd295 O305 2.240 . S
Cd296 O297 2.240 . S
Cd296 O304 2.223 . S
Cd296 O306 2.297 . S
Cd296 O307 2.439 . S
O297 Cd296 2.240 . S
O297 C302 1.279 . S
O298 Cd295 2.297 . S
O298 C300 1.247 . S
O299 Cd295 2.439 . S
O299 C300 1.208 . S
C300 O298 1.247 . S
C300 O299 1.208 . S
C301 O306 1.247 . S
C301 O307 1.208 . S
C302 O294 1.315 . S
C302 O297 1.279 . S
C303 O304 1.315 . S
C303 O305 1.279 . S
O304 Cd296 2.223 . S
O304 C303 1.315 . S
O305 Cd295 2.240 . S
O305 C303 1.279 . S
O306 Cd296 2.297 . S
O306 C301 1.247 . S
O307 Cd296 2.439 . S
O307 C301 1.208 . S
O308 Cd309 2.223 . S
O308 C316 1.315 . S
Cd309 O308 2.223 . S
Cd309 O312 2.297 . S
Cd309 O313 2.439 . S
Cd309 O319 2.240 . S
Cd310 O311 2.240 . S
Cd310 O318 2.223 . S
Cd310 O320 2.297 . S
Cd310 O321 2.439 . S
O311 Cd310 2.240 . S
O311 C316 1.279 . S
O312 Cd309 2.297 . S
O312 C314 1.247 . S
O313 Cd309 2.439 . S
O313 C314 1.208 . S
C314 O312 1.247 . S
C314 O313 1.208 . S
C315 O320 1.247 . S
C315 O321 1.208 . S
C316 O308 1.315 . S
C316 O311 1.279 . S
C317 O318 1.315 . S
C317 O319 1.279 . S
O318 Cd310 2.223 . S
O318 C317 1.315 . S
O319 Cd309 2.240 . S
O319 C317 1.279 . S
O320 Cd310 2.297 . S
O320 C315 1.247 . S
O321 Cd310 2.439 . S
O321 C315 1.208 . S
O322 Cd323 2.223 . S
O322 C330 1.315 . S
Cd323 O322 2.223 . S
Cd323 O326 2.297 . S
Cd323 O327 2.439 . S
Cd323 O333 2.240 . S
Cd324 O325 2.240 . S
Cd324 O332 2.223 . S
Cd324 O334 2.297 . S
Cd324 O335 2.439 . S
O325 Cd324 2.240 . S
O325 C330 1.279 . S
O326 Cd323 2.297 . S
O326 C328 1.247 . S
O327 Cd323 2.439 . S
O327 C328 1.208 . S
C328 O326 1.247 . S
C328 O327 1.208 . S
C329 O334 1.247 . S
C329 O335 1.208 . S
C330 O322 1.315 . S
C330 O325 1.279 . S
C331 O332 1.315 . S
C331 O333 1.279 . S
O332 Cd324 2.223 . S
O332 C331 1.315 . S
O333 Cd323 2.240 . S
O333 C331 1.279 . S
O334 Cd324 2.297 . S
O334 C329 1.247 . S
O335 Cd324 2.439 . S
O335 C329 1.208 . S
La336 C338 2.928 1_455 S
La336 O356 2.521 1_454 S
La336 O357 2.628 1_455 S
La336 O358 2.554 1_554 S
La336 O359 2.755 1_554 S
La336 O360 2.470 . S
La336 O365 2.482 . S
La336 O367 2.503 1_545 S
La337 C347 2.928 . S
La337 O359 2.478 1_554 S
La337 O361 2.503 . S
La337 O362 2.521 . S
La337 O363 2.628 . S
La337 O364 2.554 . S
La337 O365 2.757 . S
La337 O366 2.470 . S
C338 La336 2.928 1_655 S
C338 C339 1.503 1_554 S
C338 O356 1.261 1_554 S
C338 O357 1.243 . S
C339 C338 1.503 1_556 S
C339 C340 1.394 . S
C339 C344 1.373 1_556 S
C340 C339 1.394 . S
C340 C341 1.380 . S
C340 H368 0.930 . S
C341 C340 1.380 . S
C341 C342 1.376 . S
C341 H369 0.930 . S
C342 C341 1.376 . S
C342 C343 1.370 1_556 S
C343 C342 1.370 1_554 S
C343 C344 1.396 . S
C343 H370 0.929 . S
C344 C339 1.373 1_554 S
C344 C343 1.396 . S
C344 H371 0.929 . S
C345 O358 1.240 . S
C345 O359 1.294 . S
C346 O360 1.258 . S
C346 O361 1.256 . S
C347 La337 2.928 . S
C347 C348 1.503 . S
C347 O362 1.261 . S
C347 O363 1.243 . S
C348 C347 1.503 . S
C348 C349 1.394 . S
C348 C353 1.373 . S
C349 C348 1.394 . S
C349 C350 1.380 . S
C349 H372 0.930 . S
C350 C349 1.380 . S
C350 C351 1.376 . S
C350 H373 0.930 . S
C351 C350 1.376 . S
C351 C352 1.370 . S
C352 C351 1.370 . S
C352 C353 1.396 . S
C352 H374 0.929 1_545 S
C353 C348 1.373 . S
C353 C352 1.396 . S
C353 H375 0.929 . S
C354 O364 1.240 . S
C354 O365 1.289 . S
C355 O366 1.258 1_565 S
C355 O367 1.256 . S
O356 La336 2.521 1_656 S
O356 C338 1.261 1_556 S
O357 La336 2.628 1_655 S
O357 C338 1.243 . S
O358 La336 2.554 1_556 S
O358 C345 1.240 . S
O359 La336 2.755 1_556 S
O359 La337 2.478 1_556 S
O359 C345 1.294 . S
O360 La336 2.470 . S
O360 C346 1.258 . S
O361 La337 2.503 . S
O361 C346 1.256 . S
O362 La337 2.521 . S
O362 C347 1.261 . S
O363 La337 2.628 . S
O363 C347 1.243 . S
O364 La337 2.554 . S
O364 C354 1.240 . S
O365 La336 2.482 . S
O365 La337 2.757 . S
O365 C354 1.289 . S
O366 La337 2.470 . S
O366 C355 1.258 1_545 S
O367 La336 2.503 1_565 S
O367 C355 1.256 . S
H368 C340 0.930 . S
H369 C341 0.930 . S
H370 C343 0.929 . S
H371 C344 0.929 . S
H372 C349 0.930 . S
H373 C350 0.930 . S
H374 C352 0.929 1_565 S
H375 C353 0.929 . S
La376 C378 2.928 . S
La376 O396 2.521 . S
La376 O397 2.628 . S
La376 O398 2.554 . S
La376 O399 2.757 . S
La376 O400 2.470 . S
La376 O405 2.482 . S
La376 O407 2.503 . S
La377 C387 2.928 . S
La377 O399 2.482 . S
La377 O401 2.503 . S
La377 O402 2.521 . S
La377 O403 2.628 . S
La377 O404 2.554 . S
La377 O405 2.757 . S
La377 O406 2.470 . S
C378 La376 2.928 . S
C378 C379 1.503 . S
C378 O396 1.261 . S
C378 O397 1.243 . S
C379 C378 1.503 . S
C379 C380 1.394 . S
C379 C384 1.373 . S
C380 C379 1.394 . S
C380 C381 1.380 . S
C380 H408 0.930 . S
C381 C380 1.380 . S
C381 C382 1.376 . S
C381 H409 0.930 . S
C382 C381 1.376 . S
C382 C383 1.370 . S
C383 C382 1.370 . S
C383 C384 1.396 . S
C383 H410 0.929 . S
C384 C379 1.373 . S
C384 C383 1.396 . S
C384 H411 0.929 . S
C385 O398 1.240 . S
C385 O399 1.289 . S
C386 O400 1.258 . S
C386 O401 1.256 . S
C387 La377 2.928 . S
C387 C388 1.503 . S
C387 O402 1.261 . S
C387 O403 1.243 . S
C388 C387 1.503 . S
C388 C389 1.394 . S
C388 C393 1.373 . S
C389 C388 1.394 . S
C389 C390 1.380 . S
C389 H412 0.930 . S
C390 C389 1.380 . S
C390 C391 1.376 . S
C390 H413 0.930 . S
C391 C390 1.376 . S
C391 C392 1.370 . S
C392 C391 1.370 . S
C392 C393 1.396 . S
C392 H414 0.929 . S
C393 C388 1.373 . S
C393 C392 1.396 . S
C393 H415 0.929 . S
C394 O404 1.240 . S
C394 O405 1.289 . S
C395 O406 1.258 . S
C395 O407 1.256 . S
O396 La376 2.521 . S
O396 C378 1.261 . S
O397 La376 2.628 . S
O397 C378 1.243 . S
O398 La376 2.554 . S
O398 C385 1.240 . S
O399 La376 2.757 . S
O399 La377 2.482 . S
O399 C385 1.289 . S
O400 La376 2.470 . S
O400 C386 1.258 . S
O401 La377 2.503 . S
O401 C386 1.256 . S
O402 La377 2.521 . S
O402 C387 1.261 . S
O403 La377 2.628 . S
O403 C387 1.243 . S
O404 La377 2.554 . S
O404 C394 1.240 . S
O405 La376 2.482 . S
O405 La377 2.757 . S
O405 C394 1.289 . S
O406 La377 2.470 . S
O406 C395 1.258 . S
O407 La376 2.503 . S
O407 C395 1.256 . S
H408 C380 0.930 . S
H409 C381 0.930 . S
H410 C383 0.929 . S
H411 C384 0.929 . S
H412 C389 0.930 . S
H413 C390 0.930 . S
H414 C392 0.929 . S
H415 C393 0.929 . S
La416 C418 2.928 . S
La416 O436 2.521 . S
La416 O437 2.628 . S
La416 O438 2.554 . S
La416 O439 2.757 . S
La416 O440 2.470 1_545 S
La416 O445 2.482 . S
La416 O447 2.503 . S
La417 C427 2.928 . S
La417 O439 2.482 . S
La417 O441 2.503 1_545 S
La417 O442 2.521 . S
La417 O443 2.628 . S
La417 O444 2.554 . S
La417 O445 2.757 . S
La417 O446 2.470 . S
C418 La416 2.928 . S
C418 C419 1.503 1_545 S
C418 O436 1.261 . S
C418 O437 1.243 . S
C419 C418 1.503 1_565 S
C419 C420 1.394 . S
C419 C424 1.373 . S
C420 C419 1.394 . S
C420 C421 1.380 . S
C420 H448 0.930 1_565 S
C421 C420 1.380 . S
C421 C422 1.376 . S
C421 H449 0.930 . S
C422 C421 1.376 . S
C422 C423 1.370 . S
C423 C422 1.370 . S
C423 C424 1.396 . S
C423 H450 0.929 . S
C424 C419 1.373 . S
C424 C423 1.396 . S
C424 H451 0.929 . S
C425 O438 1.240 . S
C425 O439 1.289 . S
C426 O440 1.258 . S
C426 O441 1.256 . S
C427 La417 2.928 . S
C427 C428 1.503 . S
C427 O442 1.261 . S
C427 O443 1.243 . S
C428 C427 1.503 . S
C428 C429 1.394 . S
C428 C433 1.373 . S
C429 C428 1.394 . S
C429 C430 1.380 . S
C429 H452 0.930 . S
C430 C429 1.380 . S
C430 C431 1.376 . S
C430 H453 0.930 . S
C431 C430 1.376 . S
C431 C432 1.370 . S
C432 C431 1.370 . S
C432 C433 1.396 . S
C432 H454 0.929 . S
C433 C428 1.373 . S
C433 C432 1.396 . S
C433 H455 0.929 . S
C434 O444 1.240 . S
C434 O445 1.289 . S
C435 O446 1.258 . S
C435 O447 1.256 . S
O436 La416 2.521 . S
O436 C418 1.261 . S
O437 La416 2.628 . S
O437 C418 1.243 . S
O438 La416 2.554 . S
O438 C425 1.240 . S
O439 La416 2.757 . S
O439 La417 2.482 . S
O439 C425 1.289 . S
O440 La416 2.470 1_565 S
O440 C426 1.258 . S
O441 La417 2.503 1_565 S
O441 C426 1.256 . S
O442 La417 2.521 . S
O442 C427 1.261 . S
O443 La417 2.628 . S
O443 C427 1.243 . S
O444 La417 2.554 . S
O444 C434 1.240 . S
O445 La416 2.482 . S
O445 La417 2.757 . S
O445 C434 1.289 . S
O446 La417 2.470 . S
O446 C435 1.258 . S
O447 La416 2.503 . S
O447 C435 1.256 . S
H448 C420 0.930 1_545 S
H449 C421 0.930 . S
H450 C423 0.929 . S
H451 C424 0.929 . S
H452 C429 0.930 . S
H453 C430 0.930 . S
H454 C432 0.929 . S
H455 C433 0.929 . S
La456 C458 2.928 . S
La456 O476 2.521 . S
La456 O477 2.628 . S
La456 O478 2.554 . S
La456 O479 2.757 . S
La456 O480 2.470 . S
La456 O485 2.482 . S
La456 O487 2.503 . S
La457 C467 2.928 . S
La457 O479 2.482 . S
La457 O481 2.503 . S
La457 O482 2.521 . S
La457 O483 2.628 . S
La457 O484 2.554 . S
La457 O485 2.757 . S
La457 O486 2.470 . S
C458 La456 2.928 . S
C458 C459 1.503 . S
C458 O476 1.261 . S
C458 O477 1.243 . S
C459 C458 1.503 . S
C459 C460 1.394 . S
C459 C464 1.373 . S
C460 C459 1.394 . S
C460 C461 1.380 . S
C460 H488 0.930 . S
C461 C460 1.380 . S
C461 C462 1.376 . S
C461 H489 0.930 . S
C462 C461 1.376 . S
C462 C463 1.370 . S
C463 C462 1.370 . S
C463 C464 1.396 . S
C463 H490 0.929 . S
C464 C459 1.373 . S
C464 C463 1.396 . S
C464 H491 0.929 . S
C465 O478 1.240 . S
C465 O479 1.289 . S
C466 O480 1.258 . S
C466 O481 1.256 . S
C467 La457 2.928 . S
C467 C468 1.503 . S
C467 O482 1.261 . S
C467 O483 1.243 . S
C468 C467 1.503 . S
C468 C469 1.394 . S
C468 C473 1.373 . S
C469 C468 1.394 . S
C469 C470 1.380 . S
C469 H492 0.930 . S
C470 C469 1.380 . S
C470 C471 1.376 . S
C470 H493 0.930 . S
C471 C470 1.376 . S
C471 C472 1.370 . S
C472 C471 1.370 . S
C472 C473 1.396 . S
C472 H494 0.929 . S
C473 C468 1.373 . S
C473 C472 1.396 . S
C473 H495 0.929 . S
C474 O484 1.240 . S
C474 O485 1.289 . S
C475 O486 1.258 . S
C475 O487 1.256 . S
O476 La456 2.521 . S
O476 C458 1.261 . S
O477 La456 2.628 . S
O477 C458 1.243 . S
O478 La456 2.554 . S
O478 C465 1.240 . S
O479 La456 2.757 . S
O479 La457 2.482 . S
O479 C465 1.289 . S
O480 La456 2.470 . S
O480 C466 1.258 . S
O481 La457 2.503 . S
O481 C466 1.256 . S
O482 La457 2.521 . S
O482 C467 1.261 . S
O483 La457 2.628 . S
O483 C467 1.243 . S
O484 La457 2.554 . S
O484 C474 1.240 . S
O485 La456 2.482 . S
O485 La457 2.757 . S
O485 C474 1.289 . S
O486 La457 2.470 . S
O486 C475 1.258 . S
O487 La456 2.503 . S
O487 C475 1.256 . S
H488 C460 0.930 . S
H489 C461 0.930 . S
H490 C463 0.929 . S
H491 C464 0.929 . S
H492 C469 0.930 . S
H493 C470 0.930 . S
H494 C472 0.929 . S
H495 C473 0.929 . S
La496 C498 2.928 . S
La496 O516 2.521 . S
La496 O517 2.628 . S
La496 O518 2.554 . S
La496 O519 2.757 . S
La496 O520 2.470 . S
La496 O525 2.482 . S
La496 O527 2.503 . S
La497 C507 2.904 1_545 S
La497 O519 2.498 . S
La497 O521 2.520 . S
La497 O522 2.496 1_545 S
La497 O523 2.608 1_545 S
La497 O524 2.561 . S
La497 O525 2.781 . S
La497 O526 2.475 . S
C498 La496 2.928 . S
C498 C499 1.503 . S
C498 O516 1.261 . S
C498 O517 1.243 . S
C499 C498 1.503 . S
C499 C500 1.394 . S
C499 C504 1.373 . S
C500 C499 1.394 . S
C500 C501 1.380 . S
C500 H528 0.930 . S
C501 C500 1.380 . S
C501 C502 1.376 . S
C501 H529 0.930 . S
C502 C501 1.376 . S
C502 C503 1.370 . S
C503 C502 1.370 . S
C503 C504 1.396 . S
C503 H530 0.929 . S
C504 C499 1.373 . S
C504 C503 1.396 . S
C504 H531 0.929 . S
C505 O518 1.240 . S
C505 O519 1.289 . S
C506 O520 1.258 . S
C506 O521 1.256 . S
C507 La497 2.904 1_565 S
C507 C508 1.503 . S
C507 O522 1.261 . S
C507 O523 1.243 . S
C508 C507 1.503 . S
C508 C509 1.394 . S
C508 C513 1.373 . S
C509 C508 1.394 . S
C509 C510 1.380 . S
C509 H532 0.930 . S
C510 C509 1.380 . S
C510 C511 1.376 . S
C510 H533 0.930 . S
C511 C510 1.376 . S
C511 C512 1.370 . S
C512 C511 1.370 . S
C512 C513 1.396 . S
C512 H534 0.929 . S
C513 C508 1.373 . S
C513 C512 1.396 . S
C513 H535 0.929 . S
C514 O524 1.240 . S
C514 O525 1.289 . S
C515 O526 1.258 . S
C515 O527 1.256 . S
O516 La496 2.521 . S
O516 C498 1.261 . S
O517 La496 2.628 . S
O517 C498 1.243 . S
O518 La496 2.554 . S
O518 C505 1.240 . S
O519 La496 2.757 . S
O519 La497 2.498 . S
O519 C505 1.289 . S
O520 La496 2.470 . S
O520 C506 1.258 . S
O521 La497 2.520 . S
O521 C506 1.256 . S
O522 La497 2.496 1_565 S
O522 C507 1.261 . S
O523 La497 2.608 1_565 S
O523 C507 1.243 . S
O524 La497 2.561 . S
O524 C514 1.240 . S
O525 La496 2.482 . S
O525 La497 2.781 . S
O525 C514 1.289 . S
O526 La497 2.475 . S
O526 C515 1.258 . S
O527 La496 2.503 . S
O527 C515 1.256 . S
H528 C500 0.930 . S
H529 C501 0.930 . S
H530 C503 0.929 . S
H531 C504 0.929 . S
H532 C509 0.930 . S
H533 C510 0.930 . S
H534 C512 0.929 . S
H535 C513 0.929 . S
La536 C538 2.928 . S
La536 O556 2.521 . S
La536 O557 2.628 . S
La536 O558 2.554 . S
La536 O559 2.757 . S
La536 O560 2.470 . S
La536 O565 2.482 . S
La536 O567 2.503 . S
La537 C547 2.928 . S
La537 O559 2.482 . S
La537 O561 2.503 . S
La537 O562 2.521 . S
La537 O563 2.628 . S
La537 O564 2.554 . S
La537 O565 2.757 . S
La537 O566 2.470 . S
C538 La536 2.928 . S
C538 C539 1.503 . S
C538 O556 1.261 . S
C538 O557 1.243 . S
C539 C538 1.503 . S
C539 C540 1.394 . S
C539 C544 1.373 . S
C540 C539 1.394 . S
C540 C541 1.380 . S
C540 H568 0.930 . S
C541 C540 1.380 . S
C541 C542 1.376 . S
C541 H569 0.930 . S
C542 C541 1.376 . S
C542 C543 1.370 . S
C543 C542 1.370 . S
C543 C544 1.396 . S
C543 H570 0.929 . S
C544 C539 1.373 . S
C544 C543 1.396 . S
C544 H571 0.929 . S
C545 O558 1.240 . S
C545 O559 1.289 . S
C546 O560 1.258 . S
C546 O561 1.256 . S
C547 La537 2.928 . S
C547 C548 1.503 . S
C547 O562 1.261 . S
C547 O563 1.243 . S
C548 C547 1.503 . S
C548 C549 1.394 . S
C548 C553 1.373 . S
C549 C548 1.394 . S
C549 C550 1.380 . S
C549 H572 0.930 . S
C550 C549 1.380 . S
C550 C551 1.376 . S
C550 H573 0.930 . S
C551 C550 1.376 . S
C551 C552 1.370 . S
C552 C551 1.370 . S
C552 C553 1.396 . S
C552 H574 0.929 . S
C553 C548 1.373 . S
C553 C552 1.396 . S
C553 H575 0.929 . S
C554 O564 1.240 . S
C554 O565 1.289 . S
C555 O566 1.258 . S
C555 O567 1.256 . S
O556 La536 2.521 . S
O556 C538 1.261 . S
O557 La536 2.628 . S
O557 C538 1.243 . S
O558 La536 2.554 . S
O558 C545 1.240 . S
O559 La536 2.757 . S
O559 La537 2.482 . S
O559 C545 1.289 . S
O560 La536 2.470 . S
O560 C546 1.258 . S
O561 La537 2.503 . S
O561 C546 1.256 . S
O562 La537 2.521 . S
O562 C547 1.261 . S
O563 La537 2.628 . S
O563 C547 1.243 . S
O564 La537 2.554 . S
O564 C554 1.240 . S
O565 La536 2.482 . S
O565 La537 2.757 . S
O565 C554 1.289 . S
O566 La537 2.470 . S
O566 C555 1.258 . S
O567 La536 2.503 . S
O567 C555 1.256 . S
H568 C540 0.930 . S
H569 C541 0.930 . S
H570 C543 0.929 . S
H571 C544 0.929 . S
H572 C549 0.930 . S
H573 C550 0.930 . S
H574 C552 0.929 . S
H575 C553 0.929 . S
La576 C578 2.928 . S
La576 O596 2.521 1_545 S
La576 O597 2.628 . S
La576 O598 2.554 1_545 S
La576 O599 2.757 . S
La576 O600 2.470 . S
La576 O605 2.482 . S
La576 O607 2.503 . S
La577 C587 2.928 . S
La577 O599 2.482 1_556 S
La577 O601 2.503 1_556 S
La577 O602 2.521 . S
La577 O603 2.628 . S
La577 O604 2.554 1_556 S
La577 O605 2.757 1_556 S
La577 O606 2.470 1_556 S
C578 La576 2.928 . S
C578 C579 1.503 . S
C578 O596 1.262 1_545 S
C578 O597 1.243 . S
C579 C578 1.503 . S
C579 C580 1.394 1_545 S
C579 C584 1.373 . S
C580 C579 1.394 1_565 S
C580 C581 1.380 . S
C580 H608 0.930 . S
C581 C580 1.380 . S
C581 C582 1.376 . S
C581 H609 0.930 . S
C582 C581 1.376 . S
C582 C583 1.370 1_565 S
C583 C582 1.370 1_545 S
C583 C584 1.396 . S
C583 H610 0.929 . S
C584 C579 1.373 . S
C584 C583 1.396 . S
C584 H611 0.929 . S
C585 O598 1.240 . S
C585 O599 1.289 1_565 S
C586 O600 1.258 . S
C586 O601 1.256 . S
C587 La577 2.928 . S
C587 C588 1.503 . S
C587 O602 1.261 . S
C587 O603 1.243 . S
C588 C587 1.503 . S
C588 C589 1.394 . S
C588 C593 1.373 . S
C589 C588 1.394 . S
C589 C590 1.380 . S
C589 H612 0.930 . S
C590 C589 1.380 . S
C590 C591 1.376 . S
C590 H613 0.930 . S
C591 C590 1.376 . S
C591 C592 1.370 . S
C592 C591 1.370 . S
C592 C593 1.396 . S
C592 H614 0.929 . S
C593 C588 1.373 . S
C593 C592 1.396 . S
C593 H615 0.929 . S
C594 O604 1.240 . S
C594 O605 1.289 . S
C595 O606 1.258 . S
C595 O607 1.256 . S
O596 La576 2.521 1_565 S
O596 C578 1.262 1_565 S
O597 La576 2.628 . S
O597 C578 1.243 . S
O598 La576 2.554 1_565 S
O598 C585 1.240 . S
O599 La576 2.757 . S
O599 La577 2.482 1_554 S
O599 C585 1.289 1_545 S
O600 La576 2.470 . S
O600 C586 1.258 . S
O601 La577 2.503 1_554 S
O601 C586 1.256 . S
O602 La577 2.521 . S
O602 C587 1.261 . S
O603 La577 2.628 . S
O603 C587 1.243 . S
O604 La577 2.554 1_554 S
O604 C594 1.240 . S
O605 La576 2.482 . S
O605 La577 2.757 1_554 S
O605 C594 1.289 . S
O606 La577 2.470 1_554 S
O606 C595 1.258 . S
O607 La576 2.503 . S
O607 C595 1.256 . S
H608 C580 0.930 . S
H609 C581 0.930 . S
H610 C583 0.929 . S
H611 C584 0.929 . S
H612 C589 0.930 . S
H613 C590 0.930 . S
H614 C592 0.929 . S
H615 C593 0.929 . S
La616 C618 2.928 . S
La616 O636 2.521 . S
La616 O637 2.628 . S
La616 O638 2.554 . S
La616 O639 2.757 . S
La616 O640 2.470 . S
La616 O645 2.482 . S
La616 O647 2.503 . S
La617 C627 2.928 . S
La617 O639 2.482 . S
La617 O641 2.503 . S
La617 O642 2.521 . S
La617 O643 2.628 . S
La617 O644 2.554 . S
La617 O645 2.757 . S
La617 O646 2.470 . S
C618 La616 2.928 . S
C618 C619 1.503 . S
C618 O636 1.261 . S
C618 O637 1.243 . S
C619 C618 1.503 . S
C619 C620 1.394 . S
C619 C624 1.373 . S
C620 C619 1.394 . S
C620 C621 1.380 . S
C620 H648 0.930 . S
C621 C620 1.380 . S
C621 C622 1.376 . S
C621 H649 0.930 . S
C622 C621 1.376 . S
C622 C623 1.370 . S
C623 C622 1.370 . S
C623 C624 1.396 . S
C623 H650 0.929 . S
C624 C619 1.373 . S
C624 C623 1.396 . S
C624 H651 0.929 . S
C625 O638 1.240 . S
C625 O639 1.289 . S
C626 O640 1.258 . S
C626 O641 1.256 . S
C627 La617 2.928 . S
C627 C628 1.503 . S
C627 O642 1.261 . S
C627 O643 1.243 . S
C628 C627 1.503 . S
C628 C629 1.394 . S
C628 C633 1.373 . S
C629 C628 1.394 . S
C629 C630 1.380 . S
C629 H652 0.930 . S
C630 C629 1.380 . S
C630 C631 1.376 . S
C630 H653 0.930 . S
C631 C630 1.376 . S
C631 C632 1.370 . S
C632 C631 1.370 . S
C632 C633 1.396 . S
C632 H654 0.929 . S
C633 C628 1.373 . S
C633 C632 1.396 . S
C633 H655 0.929 . S
C634 O644 1.240 . S
C634 O645 1.289 . S
C635 O646 1.258 . S
C635 O647 1.256 . S
O636 La616 2.521 . S
O636 C618 1.261 . S
O637 La616 2.628 . S
O637 C618 1.243 . S
O638 La616 2.554 . S
O638 C625 1.240 . S
O639 La616 2.757 . S
O639 La617 2.482 . S
O639 C625 1.289 . S
O640 La616 2.470 . S
O640 C626 1.258 . S
O641 La617 2.503 . S
O641 C626 1.256 . S
O642 La617 2.521 . S
O642 C627 1.261 . S
O643 La617 2.628 . S
O643 C627 1.243 . S
O644 La617 2.554 . S
O644 C634 1.240 . S
O645 La616 2.482 . S
O645 La617 2.757 . S
O645 C634 1.289 . S
O646 La617 2.470 . S
O646 C635 1.258 . S
O647 La616 2.503 . S
O647 C635 1.256 . S
H648 C620 0.930 . S
H649 C621 0.930 . S
H650 C623 0.929 . S
H651 C624 0.929 . S
H652 C629 0.930 . S
H653 C630 0.930 . S
H654 C632 0.929 . S
H655 C633 0.929 . S
La656 C658 2.928 . S
La656 O676 2.521 . S
La656 O677 2.628 . S
La656 O678 2.554 . S
La656 O679 2.757 . S
La656 O680 2.470 1_554 S
La656 O685 2.482 . S
La656 O687 2.503 . S
La657 C667 2.928 . S
La657 O679 2.482 . S
La657 O681 2.503 1_554 S
La657 O682 2.521 . S
La657 O683 2.628 . S
La657 O684 2.554 . S
La657 O685 2.757 . S
La657 O686 2.470 . S
C658 La656 2.928 . S
C658 C659 1.503 . S
C658 O676 1.261 . S
C658 O677 1.243 . S
C659 C658 1.503 . S
C659 C660 1.394 . S
C659 C664 1.373 1_554 S
C660 C659 1.394 . S
C660 C661 1.380 1_554 S
C660 H688 0.930 . S
C661 C660 1.380 1_556 S
C661 C662 1.376 . S
C661 H689 0.930 . S
C662 C661 1.376 . S
C662 C663 1.370 . S
C663 C662 1.370 . S
C663 C664 1.396 . S
C663 H690 0.929 . S
C664 C659 1.373 1_556 S
C664 C663 1.396 . S
C664 H691 0.929 . S
C665 O678 1.240 . S
C665 O679 1.289 . S
C666 O680 1.258 . S
C666 O681 1.256 . S
C667 La657 2.928 . S
C667 C668 1.503 . S
C667 O682 1.261 . S
C667 O683 1.243 . S
C668 C667 1.503 . S
C668 C669 1.394 . S
C668 C673 1.373 . S
C669 C668 1.394 . S
C669 C670 1.380 . S
C669 H692 0.930 . S
C670 C669 1.380 . S
C670 C671 1.376 . S
C670 H693 0.930 . S
C671 C670 1.376 . S
C671 C672 1.370 . S
C672 C671 1.370 . S
C672 C673 1.396 . S
C672 H694 0.929 . S
C673 C668 1.373 . S
C673 C672 1.396 . S
C673 H695 0.929 . S
C674 O684 1.240 . S
C674 O685 1.289 . S
C675 O686 1.258 . S
C675 O687 1.256 . S
O676 La656 2.521 . S
O676 C658 1.261 . S
O677 La656 2.628 . S
O677 C658 1.243 . S
O678 La656 2.554 . S
O678 C665 1.240 . S
O679 La656 2.757 . S
O679 La657 2.482 . S
O679 C665 1.289 . S
O680 La656 2.470 1_556 S
O680 C666 1.258 . S
O681 La657 2.503 1_556 S
O681 C666 1.256 . S
O682 La657 2.521 . S
O682 C667 1.261 . S
O683 La657 2.628 . S
O683 C667 1.243 . S
O684 La657 2.554 . S
O684 C674 1.240 . S
O685 La656 2.482 . S
O685 La657 2.757 . S
O685 C674 1.289 . S
O686 La657 2.470 . S
O686 C675 1.258 . S
O687 La656 2.503 . S
O687 C675 1.256 . S
H688 C660 0.930 . S
H689 C661 0.930 . S
H690 C663 0.929 . S
H691 C664 0.929 . S
H692 C669 0.930 . S
H693 C670 0.930 . S
H694 C672 0.929 . S
H695 C673 0.929 . S
La696 C698 2.928 . S
La696 O716 2.521 . S
La696 O717 2.628 . S
La696 O718 2.554 . S
La696 O719 2.757 . S
La696 O720 2.470 . S
La696 O725 2.482 . S
La696 O727 2.503 . S
La697 C707 2.928 . S
La697 O719 2.482 . S
La697 O721 2.503 . S
La697 O722 2.521 . S
La697 O723 2.628 . S
La697 O724 2.554 . S
La697 O725 2.757 . S
La697 O726 2.470 . S
C698 La696 2.928 . S
C698 C699 1.503 . S
C698 O716 1.261 . S
C698 O717 1.243 . S
C699 C698 1.503 . S
C699 C700 1.394 . S
C699 C704 1.373 . S
C700 C699 1.394 . S
C700 C701 1.380 . S
C700 H728 0.930 . S
C701 C700 1.380 . S
C701 C702 1.376 . S
C701 H729 0.930 . S
C702 C701 1.376 . S
C702 C703 1.370 . S
C703 C702 1.370 . S
C703 C704 1.396 . S
C703 H730 0.929 . S
C704 C699 1.373 . S
C704 C703 1.396 . S
C704 H731 0.929 . S
C705 O718 1.240 . S
C705 O719 1.289 . S
C706 O720 1.258 . S
C706 O721 1.256 . S
C707 La697 2.928 . S
C707 C708 1.503 . S
C707 O722 1.261 . S
C707 O723 1.243 . S
C708 C707 1.503 . S
C708 C709 1.394 . S
C708 C713 1.373 . S
C709 C708 1.394 . S
C709 C710 1.380 . S
C709 H732 0.930 . S
C710 C709 1.380 . S
C710 C711 1.376 . S
C710 H733 0.930 . S
C711 C710 1.376 . S
C711 C712 1.370 . S
C712 C711 1.370 . S
C712 C713 1.396 . S
C712 H734 0.929 . S
C713 C708 1.373 . S
C713 C712 1.396 . S
C713 H735 0.929 . S
C714 O724 1.240 . S
C714 O725 1.289 . S
C715 O726 1.258 . S
C715 O727 1.256 . S
O716 La696 2.521 . S
O716 C698 1.261 . S
O717 La696 2.628 . S
O717 C698 1.243 . S
O718 La696 2.554 . S
O718 C705 1.240 . S
O719 La696 2.757 . S
O719 La697 2.482 . S
O719 C705 1.289 . S
O720 La696 2.470 . S
O720 C706 1.258 . S
O721 La697 2.503 . S
O721 C706 1.256 . S
O722 La697 2.521 . S
O722 C707 1.261 . S
O723 La697 2.628 . S
O723 C707 1.243 . S
O724 La697 2.554 . S
O724 C714 1.240 . S
O725 La696 2.482 . S
O725 La697 2.757 . S
O725 C714 1.289 . S
O726 La697 2.470 . S
O726 C715 1.258 . S
O727 La696 2.503 . S
O727 C715 1.256 . S
H728 C700 0.930 . S
H729 C701 0.930 . S
H730 C703 0.929 . S
H731 C704 0.929 . S
H732 C709 0.930 . S
H733 C710 0.930 . S
H734 C712 0.929 . S
H735 C713 0.929 . S
La736 C738 2.928 . S
La736 O756 2.521 . S
La736 O757 2.628 . S
La736 O758 2.554 . S
La736 O759 2.757 . S
La736 O760 2.470 . S
La736 O765 2.482 . S
La736 O767 2.503 . S
La737 C747 2.928 . S
La737 O759 2.482 . S
La737 O761 2.503 . S
La737 O762 2.521 . S
La737 O763 2.628 . S
La737 O764 2.554 . S
La737 O765 2.757 . S
La737 O766 2.470 . S
C738 La736 2.928 . S
C738 C739 1.503 . S
C738 O756 1.261 . S
C738 O757 1.243 . S
C739 C738 1.503 . S
C739 C740 1.394 . S
C739 C744 1.373 . S
C740 C739 1.394 . S
C740 C741 1.380 . S
C740 H768 0.930 . S
C741 C740 1.380 . S
C741 C742 1.376 1_455 S
C741 H769 0.930 . S
C742 C741 1.376 1_655 S
C742 C743 1.370 . S
C743 C742 1.370 . S
C743 C744 1.396 1_655 S
C743 H770 0.929 . S
C744 C739 1.373 . S
C744 C743 1.396 1_455 S
C744 H771 0.929 . S
C745 O758 1.240 . S
C745 O759 1.289 . S
C746 O760 1.258 . S
C746 O761 1.256 . S
C747 La737 2.928 . S
C747 C748 1.503 . S
C747 O762 1.261 . S
C747 O763 1.243 . S
C748 C747 1.503 . S
C748 C749 1.394 . S
C748 C753 1.373 . S
C749 C748 1.394 . S
C749 C750 1.380 . S
C749 H772 0.930 . S
C750 C749 1.380 . S
C750 C751 1.376 . S
C750 H773 0.930 . S
C751 C750 1.376 . S
C751 C752 1.370 . S
C752 C751 1.370 . S
C752 C753 1.396 . S
C752 H774 0.929 . S
C753 C748 1.373 . S
C753 C752 1.396 . S
C753 H775 0.929 . S
C754 O764 1.240 . S
C754 O765 1.289 . S
C755 O766 1.258 . S
C755 O767 1.256 . S
O756 La736 2.521 . S
O756 C738 1.261 . S
O757 La736 2.628 . S
O757 C738 1.243 . S
O758 La736 2.554 . S
O758 C745 1.240 . S
O759 La736 2.757 . S
O759 La737 2.482 . S
O759 C745 1.289 . S
O760 La736 2.470 . S
O760 C746 1.258 . S
O761 La737 2.503 . S
O761 C746 1.256 . S
O762 La737 2.521 . S
O762 C747 1.261 . S
O763 La737 2.628 . S
O763 C747 1.243 . S
O764 La737 2.554 . S
O764 C754 1.240 . S
O765 La736 2.482 . S
O765 La737 2.757 . S
O765 C754 1.289 . S
O766 La737 2.470 . S
O766 C755 1.258 . S
O767 La736 2.503 . S
O767 C755 1.256 . S
H768 C740 0.930 . S
H769 C741 0.930 . S
H770 C743 0.929 . S
H771 C744 0.929 . S
H772 C749 0.930 . S
H773 C750 0.930 . S
H774 C752 0.929 . S
H775 C753 0.929 . S
La776 C778 2.928 . S
La776 O796 2.521 . S
La776 O797 2.628 . S
La776 O798 2.554 . S
La776 O799 2.757 . S
La776 O800 2.470 . S
La776 O805 2.482 . S
La776 O807 2.503 . S
La777 C787 2.928 . S
La777 O799 2.482 . S
La777 O801 2.503 . S
La777 O802 2.521 . S
La777 O803 2.628 . S
La777 O804 2.554 . S
La777 O805 2.757 . S
La777 O806 2.470 . S
C778 La776 2.928 . S
C778 C779 1.503 . S
C778 O796 1.261 . S
C778 O797 1.243 . S
C779 C778 1.503 . S
C779 C780 1.394 . S
C779 C784 1.373 . S
C780 C779 1.394 . S
C780 C781 1.380 . S
C780 H808 0.930 . S
C781 C780 1.380 . S
C781 C782 1.376 . S
C781 H809 0.930 . S
C782 C781 1.376 . S
C782 C783 1.370 . S
C783 C782 1.370 . S
C783 C784 1.396 . S
C783 H810 0.929 . S
C784 C779 1.373 . S
C784 C783 1.396 . S
C784 H811 0.929 . S
C785 O798 1.240 . S
C785 O799 1.289 . S
C786 O800 1.258 . S
C786 O801 1.256 . S
C787 La777 2.928 . S
C787 C788 1.503 . S
C787 O802 1.261 . S
C787 O803 1.243 . S
C788 C787 1.503 . S
C788 C789 1.394 . S
C788 C793 1.373 . S
C789 C788 1.394 . S
C789 C790 1.380 . S
C789 H812 0.930 . S
C790 C789 1.380 . S
C790 C791 1.376 . S
C790 H813 0.930 . S
C791 C790 1.376 . S
C791 C792 1.370 . S
C792 C791 1.370 . S
C792 C793 1.396 . S
C792 H814 0.929 . S
C793 C788 1.373 . S
C793 C792 1.396 . S
C793 H815 0.929 . S
C794 O804 1.240 . S
C794 O805 1.289 . S
C795 O806 1.258 . S
C795 O807 1.256 . S
O796 La776 2.521 . S
O796 C778 1.261 . S
O797 La776 2.628 . S
O797 C778 1.243 . S
O798 La776 2.554 . S
O798 C785 1.240 . S
O799 La776 2.757 . S
O799 La777 2.482 . S
O799 C785 1.289 . S
O800 La776 2.470 . S
O800 C786 1.258 . S
O801 La777 2.503 . S
O801 C786 1.256 . S
O802 La777 2.521 . S
O802 C787 1.261 . S
O803 La777 2.628 . S
O803 C787 1.243 . S
O804 La777 2.554 . S
O804 C794 1.240 . S
O805 La776 2.482 . S
O805 La777 2.757 . S
O805 C794 1.289 . S
O806 La777 2.470 . S
O806 C795 1.258 . S
O807 La776 2.503 . S
O807 C795 1.256 . S
H808 C780 0.930 . S
H809 C781 0.930 . S
H810 C783 0.929 . S
H811 C784 0.929 . S
H812 C789 0.930 . S
H813 C790 0.930 . S
H814 C792 0.929 . S
H815 C793 0.929 . S
La816 C818 2.928 . S
La816 O836 2.521 . S
La816 O837 2.628 . S
La816 O838 2.554 . S
La816 O839 2.757 . S
La816 O840 2.470 . S
La816 O845 2.482 . S
La816 O847 2.503 . S
La817 C827 2.928 . S
La817 O839 2.482 . S
La817 O841 2.503 . S
La817 O842 2.521 . S
La817 O843 2.628 . S
La817 O844 2.554 . S
La817 O845 2.757 . S
La817 O846 2.470 . S
C818 La816 2.928 . S
C818 C819 1.503 . S
C818 O836 1.261 . S
C818 O837 1.243 . S
C819 C818 1.503 . S
C819 C820 1.394 . S
C819 C824 1.373 . S
C820 C819 1.394 . S
C820 C821 1.380 . S
C820 H848 0.930 . S
C821 C820 1.380 . S
C821 C822 1.376 . S
C821 H849 0.930 . S
C822 C821 1.376 . S
C822 C823 1.370 . S
C823 C822 1.370 . S
C823 C824 1.396 . S
C823 H850 0.929 . S
C824 C819 1.373 . S
C824 C823 1.396 . S
C824 H851 0.929 . S
C825 O838 1.240 . S
C825 O839 1.289 . S
C826 O840 1.258 . S
C826 O841 1.256 . S
C827 La817 2.928 . S
C827 C828 1.503 . S
C827 O842 1.261 . S
C827 O843 1.243 . S
C828 C827 1.503 . S
C828 C829 1.394 . S
C828 C833 1.373 . S
C829 C828 1.394 . S
C829 C830 1.380 . S
C829 H852 0.930 . S
C830 C829 1.380 . S
C830 C831 1.376 . S
C830 H853 0.930 . S
C831 C830 1.376 . S
C831 C832 1.370 . S
C832 C831 1.370 . S
C832 C833 1.396 . S
C832 H854 0.929 . S
C833 C828 1.373 . S
C833 C832 1.396 . S
C833 H855 0.929 . S
C834 O844 1.240 . S
C834 O845 1.289 . S
C835 O846 1.258 . S
C835 O847 1.256 . S
O836 La816 2.521 . S
O836 C818 1.261 . S
O837 La816 2.628 . S
O837 C818 1.243 . S
O838 La816 2.554 . S
O838 C825 1.240 . S
O839 La816 2.757 . S
O839 La817 2.482 . S
O839 C825 1.289 . S
O840 La816 2.470 . S
O840 C826 1.258 . S
O841 La817 2.503 . S
O841 C826 1.256 . S
O842 La817 2.521 . S
O842 C827 1.261 . S
O843 La817 2.628 . S
O843 C827 1.243 . S
O844 La817 2.554 . S
O844 C834 1.240 . S
O845 La816 2.482 . S
O845 La817 2.757 . S
O845 C834 1.289 . S
O846 La817 2.470 . S
O846 C835 1.258 . S
O847 La816 2.503 . S
O847 C835 1.256 . S
H848 C820 0.930 . S
H849 C821 0.930 . S
H850 C823 0.929 . S
H851 C824 0.929 . S
H852 C829 0.930 . S
H853 C830 0.930 . S
H854 C832 0.929 . S
H855 C833 0.929 . S
La856 C858 2.928 . S
La856 O876 2.521 . S
La856 O877 2.628 . S
La856 O878 2.554 . S
La856 O879 2.757 . S
La856 O880 2.470 . S
La856 O885 2.482 . S
La856 O887 2.503 . S
La857 C867 2.928 . S
La857 O879 2.482 . S
La857 O881 2.503 . S
La857 O882 2.521 . S
La857 O883 2.628 . S
La857 O884 2.554 . S
La857 O885 2.757 . S
La857 O886 2.470 . S
C858 La856 2.928 . S
C858 C859 1.503 . S
C858 O876 1.261 . S
C858 O877 1.243 . S
C859 C858 1.503 . S
C859 C860 1.394 . S
C859 C864 1.373 . S
C860 C859 1.394 . S
C860 C861 1.380 . S
C860 H888 0.930 . S
C861 C860 1.380 . S
C861 C862 1.376 . S
C861 H889 0.930 . S
C862 C861 1.376 . S
C862 C863 1.370 . S
C863 C862 1.370 . S
C863 C864 1.396 . S
C863 H890 0.929 . S
C864 C859 1.373 . S
C864 C863 1.396 . S
C864 H891 0.929 . S
C865 O878 1.240 . S
C865 O879 1.289 . S
C866 O880 1.258 . S
C866 O881 1.256 . S
C867 La857 2.928 . S
C867 C868 1.503 . S
C867 O882 1.261 . S
C867 O883 1.243 . S
C868 C867 1.503 . S
C868 C869 1.394 . S
C868 C873 1.373 . S
C869 C868 1.394 . S
C869 C870 1.380 . S
C869 H892 0.930 . S
C870 C869 1.380 . S
C870 C871 1.376 . S
C870 H893 0.930 . S
C871 C870 1.376 . S
C871 C872 1.370 . S
C872 C871 1.370 . S
C872 C873 1.396 . S
C872 H894 0.929 . S
C873 C868 1.373 . S
C873 C872 1.396 . S
C873 H895 0.929 . S
C874 O884 1.240 . S
C874 O885 1.289 . S
C875 O886 1.258 . S
C875 O887 1.256 . S
O876 La856 2.521 . S
O876 C858 1.261 . S
O877 La856 2.628 . S
O877 C858 1.243 . S
O878 La856 2.554 . S
O878 C865 1.240 . S
O879 La856 2.757 . S
O879 La857 2.482 . S
O879 C865 1.289 . S
O880 La856 2.470 . S
O880 C866 1.258 . S
O881 La857 2.503 . S
O881 C866 1.256 . S
O882 La857 2.521 . S
O882 C867 1.261 . S
O883 La857 2.628 . S
O883 C867 1.243 . S
O884 La857 2.554 . S
O884 C874 1.240 . S
O885 La856 2.482 . S
O885 La857 2.757 . S
O885 C874 1.289 . S
O886 La857 2.470 . S
O886 C875 1.258 . S
O887 La856 2.503 . S
O887 C875 1.256 . S
H888 C860 0.930 . S
H889 C861 0.930 . S
H890 C863 0.929 . S
H891 C864 0.929 . S
H892 C869 0.930 . S
H893 C870 0.930 . S
H894 C872 0.929 . S
H895 C873 0.929 . S
La896 C898 2.928 . S
La896 O916 2.521 . S
La896 O917 2.628 . S
La896 O918 2.554 . S
La896 O919 2.757 . S
La896 O920 2.470 . S
La896 O925 2.482 . S
La896 O927 2.503 . S
La897 C907 2.928 . S
La897 O919 2.482 . S
La897 O921 2.503 . S
La897 O922 2.521 . S
La897 O923 2.628 . S
La897 O924 2.554 . S
La897 O925 2.757 . S
La897 O926 2.470 . S
C898 La896 2.928 . S
C898 C899 1.503 . S
C898 O916 1.261 . S
C898 O917 1.243 . S
C899 C898 1.503 . S
C899 C900 1.394 . S
C899 C904 1.373 . S
C900 C899 1.394 . S
C900 C901 1.380 . S
C900 H928 0.930 . S
C901 C900 1.380 . S
C901 C902 1.376 . S
C901 H929 0.930 . S
C902 C901 1.376 . S
C902 C903 1.370 . S
C903 C902 1.370 . S
C903 C904 1.396 . S
C903 H930 0.929 . S
C904 C899 1.373 . S
C904 C903 1.396 . S
C904 H931 0.929 . S
C905 O918 1.240 . S
C905 O919 1.289 . S
C906 O920 1.258 . S
C906 O921 1.256 . S
C907 La897 2.928 . S
C907 C908 1.503 . S
C907 O922 1.261 . S
C907 O923 1.243 . S
C908 C907 1.503 . S
C908 C909 1.394 . S
C908 C913 1.373 . S
C909 C908 1.394 . S
C909 C910 1.380 . S
C909 H932 0.930 . S
C910 C909 1.380 . S
C910 C911 1.376 . S
C910 H933 0.930 . S
C911 C910 1.376 . S
C911 C912 1.370 . S
C912 C911 1.370 . S
C912 C913 1.396 . S
C912 H934 0.929 . S
C913 C908 1.373 . S
C913 C912 1.396 . S
C913 H935 0.929 . S
C914 O924 1.240 . S
C914 O925 1.289 . S
C915 O926 1.258 . S
C915 O927 1.256 . S
O916 La896 2.521 . S
O916 C898 1.261 . S
O917 La896 2.628 . S
O917 C898 1.243 . S
O918 La896 2.554 . S
O918 C905 1.240 . S
O919 La896 2.757 . S
O919 La897 2.482 . S
O919 C905 1.289 . S
O920 La896 2.470 . S
O920 C906 1.258 . S
O921 La897 2.503 . S
O921 C906 1.256 . S
O922 La897 2.521 . S
O922 C907 1.261 . S
O923 La897 2.628 . S
O923 C907 1.243 . S
O924 La897 2.554 . S
O924 C914 1.240 . S
O925 La896 2.482 . S
O925 La897 2.757 . S
O925 C914 1.289 . S
O926 La897 2.470 . S
O926 C915 1.258 . S
O927 La896 2.503 . S
O927 C915 1.256 . S
H928 C900 0.930 . S
H929 C901 0.930 . S
H930 C903 0.929 . S
H931 C904 0.929 . S
H932 C909 0.930 . S
H933 C910 0.930 . S
H934 C912 0.929 . S
H935 C913 0.929 . S
La936 C938 2.928 . S
La936 O956 2.521 . S
La936 O957 2.628 . S
La936 O958 2.554 1_554 S
La936 O959 2.757 . S
La936 O960 2.470 . S
La936 O965 2.482 . S
La936 O967 2.503 . S
La937 C947 2.928 1_455 S
La937 O959 2.482 . S
La937 O961 2.503 . S
La937 O962 2.508 1_455 S
La937 O963 2.628 . S
La937 O964 2.554 . S
La937 O965 2.757 . S
La937 O966 2.470 . S
C938 La936 2.928 . S
C938 C939 1.503 . S
C938 O956 1.261 . S
C938 O957 1.243 . S
C939 C938 1.503 . S
C939 C940 1.417 . S
C939 C944 1.373 . S
C940 C939 1.417 . S
C940 C941 1.376 1_554 S
C940 H968 0.912 1_554 S
C941 C940 1.376 1_556 S
C941 C942 1.376 1_556 S
C941 H969 0.930 . S
C942 C941 1.376 1_554 S
C942 C943 1.370 . S
C943 C942 1.370 . S
C943 C944 1.396 . S
C943 H970 0.929 . S
C944 C939 1.373 . S
C944 C943 1.396 . S
C944 H971 0.929 . S
C945 O958 1.240 . S
C945 O959 1.289 1_556 S
C946 O960 1.258 . S
C946 O961 1.256 . S
C947 La937 2.928 1_655 S
C947 C948 1.503 . S
C947 O962 1.266 . S
C947 O963 1.243 1_655 S
C948 C947 1.503 . S
C948 C949 1.394 . S
C948 C953 1.373 . S
C949 C948 1.394 . S
C949 C950 1.380 . S
C949 H972 0.930 . S
C950 C949 1.380 . S
C950 C951 1.376 . S
C950 H973 0.930 . S
C951 C950 1.376 . S
C951 C952 1.370 . S
C952 C951 1.370 . S
C952 C953 1.396 . S
C952 H974 0.929 . S
C953 C948 1.373 . S
C953 C952 1.396 . S
C953 H975 0.929 . S
C954 O964 1.240 . S
C954 O965 1.289 . S
C955 O966 1.258 . S
C955 O967 1.256 . S
O956 La936 2.521 . S
O956 C938 1.261 . S
O957 La936 2.628 . S
O957 C938 1.243 . S
O958 La936 2.554 1_556 S
O958 C945 1.240 . S
O959 La936 2.757 . S
O959 La937 2.482 . S
O959 C945 1.289 1_554 S
O960 La936 2.470 . S
O960 C946 1.258 . S
O961 La937 2.503 . S
O961 C946 1.256 . S
O962 La937 2.508 1_655 S
O962 C947 1.266 . S
O963 La937 2.628 . S
O963 C947 1.243 1_455 S
O964 La937 2.554 . S
O964 C954 1.240 . S
O965 La936 2.482 . S
O965 La937 2.757 . S
O965 C954 1.289 . S
O966 La937 2.470 . S
O966 C955 1.258 . S
O967 La936 2.503 . S
O967 C955 1.256 . S
H968 C940 0.912 1_556 S
H969 C941 0.930 . S
H970 C943 0.929 . S
H971 C944 0.929 . S
H972 C949 0.930 . S
H973 C950 0.930 . S
H974 C952 0.929 . S
H975 C953 0.929 . S
H976 C988 0.930 . S
H977 C990 0.930 1_655 S
H978 C991 0.930 1_655 S
H979 C995 0.959 . S
H980 C995 0.959 1_554 S
H981 C995 0.961 . S
H982 C996 0.960 . S
H983 C996 0.961 . S
H984 C996 0.959 . S
H985 C999 0.929 . S
H986 C1000 0.931 . S
H987 C1002 0.930 . S
C988 H976 0.930 . S
C988 C989 1.399 . S
C988 C993 1.399 . S
C989 C988 1.399 . S
C989 C990 1.376 . S
C990 H977 0.930 1_455 S
C990 C989 1.376 . S
C990 C991 1.388 . S
C991 H978 0.930 1_455 S
C991 C990 1.388 . S
C991 C992 1.390 . S
C992 C991 1.390 . S
C992 C993 1.394 . S
C992 C998 1.465 . S
C993 C988 1.399 . S
C993 C992 1.394 . S
C993 C994 1.516 . S
C994 C993 1.516 . S
C994 C995 1.502 . S
C994 C996 1.561 1_556 S
C994 C997 1.526 . S
C995 H979 0.959 . S
C995 H980 0.959 1_556 S
C995 H981 0.961 . S
C995 C994 1.502 . S
C996 H982 0.960 . S
C996 H983 0.961 . S
C996 H984 0.959 . S
C996 C994 1.561 1_554 S
C997 C994 1.526 . S
C997 C998 1.396 . S
C997 C1002 1.390 1_556 S
C998 C992 1.465 . S
C998 C997 1.396 . S
C998 C999 1.399 . S
C999 H985 0.929 . S
C999 C998 1.399 . S
C999 C1000 1.385 . S
C1000 H986 0.931 . S
C1000 C999 1.385 . S
C1000 C1001 1.373 1_556 S
C1001 C1000 1.373 1_554 S
C1001 C1002 1.387 . S
C1002 H987 0.930 . S
C1002 C997 1.390 1_554 S
C1002 C1001 1.387 . S
H1003 C1015 0.930 . S
H1004 C1017 0.930 . S
H1005 C1018 0.930 . S
H1006 C1022 0.959 . S
H1007 C1022 0.959 . S
H1008 C1022 0.961 . S
H1009 C1023 0.960 . S
H1010 C1023 0.961 . S
H1011 C1023 0.959 . S
H1012 C1026 0.929 . S
H1013 C1027 0.931 . S
H1014 C1029 0.930 . S
C1015 H1003 0.930 . S
C1015 C1016 1.399 . S
C1015 C1020 1.399 . S
C1016 C1015 1.399 . S
C1016 C1017 1.376 . S
C1017 H1004 0.930 . S
C1017 C1016 1.376 . S
C1017 C1018 1.388 . S
C1018 H1005 0.930 . S
C1018 C1017 1.388 . S
C1018 C1019 1.390 . S
C1019 C1018 1.390 . S
C1019 C1020 1.394 . S
C1019 C1025 1.465 . S
C1020 C1015 1.399 . S
C1020 C1019 1.394 . S
C1020 C1021 1.516 . S
C1021 C1020 1.516 . S
C1021 C1022 1.502 . S
C1021 C1023 1.561 . S
C1021 C1024 1.526 . S
C1022 H1006 0.959 . S
C1022 H1007 0.959 . S
C1022 H1008 0.961 . S
C1022 C1021 1.502 . S
C1023 H1009 0.960 . S
C1023 H1010 0.961 . S
C1023 H1011 0.959 . S
C1023 C1021 1.561 . S
C1024 C1021 1.526 . S
C1024 C1025 1.396 . S
C1024 C1029 1.390 . S
C1025 C1019 1.465 . S
C1025 C1024 1.396 . S
C1025 C1026 1.399 . S
C1026 H1012 0.929 . S
C1026 C1025 1.399 . S
C1026 C1027 1.385 . S
C1027 H1013 0.931 . S
C1027 C1026 1.385 . S
C1027 C1028 1.389 . S
C1028 C1027 1.389 . S
C1028 C1029 1.387 . S
C1029 H1014 0.930 . S
C1029 C1024 1.390 . S
C1029 C1028 1.387 . S
H1030 C1042 0.930 . S
H1031 C1044 0.930 . S
H1032 C1045 0.930 . S
H1033 C1049 0.959 . S
H1034 C1049 0.959 . S
H1035 C1049 0.961 . S
H1036 C1050 0.960 . S
H1037 C1050 0.961 . S
H1038 C1050 0.959 . S
H1039 C1053 0.929 . S
H1040 C1054 0.931 . S
H1041 C1056 0.930 . S
C1042 H1030 0.930 . S
C1042 C1043 1.399 . S
C1042 C1047 1.399 . S
C1043 C1042 1.399 . S
C1043 C1044 1.376 . S
C1044 H1031 0.930 . S
C1044 C1043 1.376 . S
C1044 C1045 1.388 . S
C1045 H1032 0.930 . S
C1045 C1044 1.388 . S
C1045 C1046 1.390 . S
C1046 C1045 1.390 . S
C1046 C1047 1.394 . S
C1046 C1052 1.465 . S
C1047 C1042 1.399 . S
C1047 C1046 1.394 . S
C1047 C1048 1.516 . S
C1048 C1047 1.516 . S
C1048 C1049 1.502 . S
C1048 C1050 1.561 . S
C1048 C1051 1.526 . S
C1049 H1033 0.959 . S
C1049 H1034 0.959 . S
C1049 H1035 0.961 . S
C1049 C1048 1.502 . S
C1050 H1036 0.960 . S
C1050 H1037 0.961 . S
C1050 H1038 0.959 . S
C1050 C1048 1.561 . S
C1051 C1048 1.526 . S
C1051 C1052 1.396 . S
C1051 C1056 1.390 . S
C1052 C1046 1.465 . S
C1052 C1051 1.396 . S
C1052 C1053 1.399 . S
C1053 H1039 0.929 . S
C1053 C1052 1.399 . S
C1053 C1054 1.385 . S
C1054 H1040 0.931 . S
C1054 C1053 1.385 . S
C1054 C1055 1.389 . S
C1055 C1054 1.389 . S
C1055 C1056 1.387 . S
C1056 H1041 0.930 . S
C1056 C1051 1.390 . S
C1056 C1055 1.387 . S
H1057 C1069 0.930 . S
H1058 C1071 0.930 . S
H1059 C1072 0.930 . S
H1060 C1076 0.959 . S
H1061 C1076 0.959 . S
H1062 C1076 0.961 . S
H1063 C1077 0.960 . S
H1064 C1077 0.961 . S
H1065 C1077 0.959 . S
H1066 C1080 0.929 . S
H1067 C1081 0.931 . S
H1068 C1083 0.930 . S
C1069 H1057 0.930 . S
C1069 C1070 1.399 . S
C1069 C1074 1.399 . S
C1070 C1069 1.399 . S
C1070 C1071 1.376 . S
C1071 H1058 0.930 . S
C1071 C1070 1.376 . S
C1071 C1072 1.388 . S
C1072 H1059 0.930 . S
C1072 C1071 1.388 . S
C1072 C1073 1.390 . S
C1073 C1072 1.390 . S
C1073 C1074 1.394 . S
C1073 C1079 1.465 . S
C1074 C1069 1.399 . S
C1074 C1073 1.394 . S
C1074 C1075 1.516 . S
C1075 C1074 1.516 . S
C1075 C1076 1.502 . S
C1075 C1077 1.561 . S
C1075 C1078 1.526 . S
C1076 H1060 0.959 . S
C1076 H1061 0.959 . S
C1076 H1062 0.961 . S
C1076 C1075 1.502 . S
C1077 H1063 0.960 . S
C1077 H1064 0.961 . S
C1077 H1065 0.959 . S
C1077 C1075 1.561 . S
C1078 C1075 1.526 . S
C1078 C1079 1.396 . S
C1078 C1083 1.390 . S
C1079 C1073 1.465 . S
C1079 C1078 1.396 . S
C1079 C1080 1.399 . S
C1080 H1066 0.929 . S
C1080 C1079 1.399 . S
C1080 C1081 1.385 . S
C1081 H1067 0.931 . S
C1081 C1080 1.385 . S
C1081 C1082 1.389 . S
C1082 C1081 1.389 . S
C1082 C1083 1.387 . S
C1083 H1068 0.930 . S
C1083 C1078 1.390 . S
C1083 C1082 1.387 . S
H1084 C1096 0.930 . S
H1085 C1098 0.895 1_655 S
H1086 C1099 0.930 1_655 S
H1087 C1103 0.959 . S
H1088 C1103 0.959 . S
H1089 C1103 0.961 . S
H1090 C1104 0.960 . S
H1091 C1104 0.961 . S
H1092 C1104 0.959 . S
H1093 C1107 0.929 . S
H1094 C1108 0.931 . S
H1095 C1110 0.930 . S
C1096 H1084 0.930 . S
C1096 C1097 1.399 . S
C1096 C1101 1.399 . S
C1097 C1096 1.399 . S
C1097 C1098 1.406 . S
C1098 H1085 0.895 1_455 S
C1098 C1097 1.406 . S
C1098 C1099 1.396 . S
C1099 H1086 0.930 1_455 S
C1099 C1098 1.396 . S
C1099 C1100 1.390 . S
C1100 C1099 1.390 . S
C1100 C1101 1.394 . S
C1100 C1106 1.465 . S
C1101 C1096 1.399 . S
C1101 C1100 1.394 . S
C1101 C1102 1.516 . S
C1102 C1101 1.516 . S
C1102 C1103 1.502 . S
C1102 C1104 1.561 . S
C1102 C1105 1.526 . S
C1103 H1087 0.959 . S
C1103 H1088 0.959 . S
C1103 H1089 0.961 . S
C1103 C1102 1.502 . S
C1104 H1090 0.960 . S
C1104 H1091 0.961 . S
C1104 H1092 0.959 . S
C1104 C1102 1.561 . S
C1105 C1102 1.526 . S
C1105 C1106 1.396 . S
C1105 C1110 1.390 . S
C1106 C1100 1.465 . S
C1106 C1105 1.396 . S
C1106 C1107 1.399 . S
C1107 H1093 0.929 . S
C1107 C1106 1.399 . S
C1107 C1108 1.385 . S
C1108 H1094 0.931 . S
C1108 C1107 1.385 . S
C1108 C1109 1.389 . S
C1109 C1108 1.389 . S
C1109 C1110 1.387 . S
C1110 H1095 0.930 . S
C1110 C1105 1.390 . S
C1110 C1109 1.387 . S
H1111 C1123 0.930 . S
H1112 C1125 0.930 . S
H1113 C1126 0.930 . S
H1114 C1130 0.959 . S
H1115 C1130 0.959 . S
H1116 C1130 0.961 . S
H1117 C1131 0.960 . S
H1118 C1131 0.961 . S
H1119 C1131 0.959 . S
H1120 C1134 0.929 . S
H1121 C1135 0.931 . S
H1122 C1137 0.930 . S
C1123 H1111 0.930 . S
C1123 C1124 1.399 . S
C1123 C1128 1.399 . S
C1124 C1123 1.399 . S
C1124 C1125 1.376 . S
C1125 H1112 0.930 . S
C1125 C1124 1.376 . S
C1125 C1126 1.388 . S
C1126 H1113 0.930 . S
C1126 C1125 1.388 . S
C1126 C1127 1.390 . S
C1127 C1126 1.390 . S
C1127 C1128 1.394 . S
C1127 C1133 1.465 . S
C1128 C1123 1.399 . S
C1128 C1127 1.394 . S
C1128 C1129 1.516 . S
C1129 C1128 1.516 . S
C1129 C1130 1.502 . S
C1129 C1131 1.561 . S
C1129 C1132 1.526 . S
C1130 H1114 0.959 . S
C1130 H1115 0.959 . S
C1130 H1116 0.961 . S
C1130 C1129 1.502 . S
C1131 H1117 0.960 . S
C1131 H1118 0.961 . S
C1131 H1119 0.959 . S
C1131 C1129 1.561 . S
C1132 C1129 1.526 . S
C1132 C1133 1.396 . S
C1132 C1137 1.390 . S
C1133 C1127 1.465 . S
C1133 C1132 1.396 . S
C1133 C1134 1.399 . S
C1134 H1120 0.929 . S
C1134 C1133 1.399 . S
C1134 C1135 1.385 . S
C1135 H1121 0.931 . S
C1135 C1134 1.385 . S
C1135 C1136 1.389 . S
C1136 C1135 1.389 . S
C1136 C1137 1.387 . S
C1137 H1122 0.930 . S
C1137 C1132 1.390 . S
C1137 C1136 1.387 . S
H1138 C1150 0.930 . S
H1139 C1152 0.930 . S
H1140 C1153 0.930 . S
H1141 C1157 0.959 . S
H1142 C1157 0.959 . S
H1143 C1157 0.961 . S
H1144 C1158 0.960 . S
H1145 C1158 0.961 . S
H1146 C1158 0.959 . S
H1147 C1161 0.929 . S
H1148 C1162 0.931 . S
H1149 C1164 0.930 . S
C1150 H1138 0.930 . S
C1150 C1151 1.399 . S
C1150 C1155 1.399 . S
C1151 C1150 1.399 . S
C1151 C1152 1.376 . S
C1152 H1139 0.930 . S
C1152 C1151 1.376 . S
C1152 C1153 1.388 . S
C1153 H1140 0.930 . S
C1153 C1152 1.388 . S
C1153 C1154 1.390 . S
C1154 C1153 1.390 . S
C1154 C1155 1.394 . S
C1154 C1160 1.465 . S
C1155 C1150 1.399 . S
C1155 C1154 1.394 . S
C1155 C1156 1.516 . S
C1156 C1155 1.516 . S
C1156 C1157 1.502 . S
C1156 C1158 1.561 . S
C1156 C1159 1.526 . S
C1157 H1141 0.959 . S
C1157 H1142 0.959 . S
C1157 H1143 0.961 . S
C1157 C1156 1.502 . S
C1158 H1144 0.960 . S
C1158 H1145 0.961 . S
C1158 H1146 0.959 . S
C1158 C1156 1.561 . S
C1159 C1156 1.526 . S
C1159 C1160 1.396 . S
C1159 C1164 1.390 . S
C1160 C1154 1.465 . S
C1160 C1159 1.396 . S
C1160 C1161 1.399 . S
C1161 H1147 0.929 . S
C1161 C1160 1.399 . S
C1161 C1162 1.385 . S
C1162 H1148 0.931 . S
C1162 C1161 1.385 . S
C1162 C1163 1.389 . S
C1163 C1162 1.389 . S
C1163 C1164 1.387 . S
C1164 H1149 0.930 . S
C1164 C1159 1.390 . S
C1164 C1163 1.387 . S
H1165 C1177 0.930 . S
H1166 C1179 0.930 . S
H1167 C1180 0.930 . S
H1168 C1184 0.959 . S
H1169 C1184 0.959 . S
H1170 C1184 0.961 . S
H1171 C1185 0.960 . S
H1172 C1185 0.961 . S
H1173 C1185 0.959 . S
H1174 C1188 0.929 . S
H1175 C1189 0.931 . S
H1176 C1191 0.930 . S
C1177 H1165 0.930 . S
C1177 C1178 1.399 . S
C1177 C1182 1.399 . S
C1178 C1177 1.399 . S
C1178 C1179 1.376 . S
C1179 H1166 0.930 . S
C1179 C1178 1.376 . S
C1179 C1180 1.388 . S
C1180 H1167 0.930 . S
C1180 C1179 1.388 . S
C1180 C1181 1.390 . S
C1181 C1180 1.390 . S
C1181 C1182 1.394 . S
C1181 C1187 1.465 . S
C1182 C1177 1.399 . S
C1182 C1181 1.394 . S
C1182 C1183 1.516 . S
C1183 C1182 1.516 . S
C1183 C1184 1.502 . S
C1183 C1185 1.561 . S
C1183 C1186 1.526 . S
C1184 H1168 0.959 . S
C1184 H1169 0.959 . S
C1184 H1170 0.961 . S
C1184 C1183 1.502 . S
C1185 H1171 0.960 . S
C1185 H1172 0.961 . S
C1185 H1173 0.959 . S
C1185 C1183 1.561 . S
C1186 C1183 1.526 . S
C1186 C1187 1.396 . S
C1186 C1191 1.390 . S
C1187 C1181 1.465 . S
C1187 C1186 1.396 . S
C1187 C1188 1.399 . S
C1188 H1174 0.929 . S
C1188 C1187 1.399 . S
C1188 C1189 1.385 . S
C1189 H1175 0.931 . S
C1189 C1188 1.385 . S
C1189 C1190 1.389 . S
C1190 C1189 1.389 . S
C1190 C1191 1.387 . S
C1191 H1176 0.930 . S
C1191 C1186 1.390 . S
C1191 C1190 1.387 . S
H1192 C1204 0.930 . S
H1193 C1206 0.930 . S
H1194 C1207 0.930 . S
H1195 C1211 0.959 . S
H1196 C1211 0.959 . S
H1197 C1211 0.961 . S
H1198 C1212 0.940 1_565 S
H1199 C1212 0.936 1_565 S
H1200 C1212 0.982 . S
H1201 C1215 0.929 . S
H1202 C1216 0.931 . S
H1203 C1218 0.930 . S
C1204 H1192 0.930 . S
C1204 C1205 1.399 . S
C1204 C1209 1.399 . S
C1205 C1204 1.399 . S
C1205 C1206 1.376 . S
C1206 H1193 0.930 . S
C1206 C1205 1.376 . S
C1206 C1207 1.388 . S
C1207 H1194 0.930 . S
C1207 C1206 1.388 . S
C1207 C1208 1.390 . S
C1208 C1207 1.390 . S
C1208 C1209 1.394 . S
C1208 C1214 1.465 1_655 S
C1209 C1204 1.399 . S
C1209 C1208 1.394 . S
C1209 C1210 1.516 1_655 S
C1210 C1209 1.516 1_455 S
C1210 C1211 1.502 . S
C1210 C1212 1.584 1_455 S
C1210 C1213 1.526 . S
C1211 H1195 0.959 . S
C1211 H1196 0.959 . S
C1211 H1197 0.961 . S
C1211 C1210 1.502 . S
C1212 H1198 0.940 1_545 S
C1212 H1199 0.936 1_545 S
C1212 H1200 0.982 . S
C1212 C1210 1.584 1_655 S
C1213 C1210 1.526 . S
C1213 C1214 1.396 . S
C1213 C1218 1.390 . S
C1214 C1208 1.465 1_455 S
C1214 C1213 1.396 . S
C1214 C1215 1.399 . S
C1215 H1201 0.929 . S
C1215 C1214 1.399 . S
C1215 C1216 1.385 . S
C1216 H1202 0.931 . S
C1216 C1215 1.385 . S
C1216 C1217 1.389 . S
C1217 C1216 1.389 . S
C1217 C1218 1.387 . S
C1218 H1203 0.930 . S
C1218 C1213 1.390 . S
C1218 C1217 1.387 . S
H1219 C1231 0.930 . S
H1220 C1233 0.930 . S
H1221 C1234 0.930 . S
H1222 C1238 0.959 . S
H1223 C1238 0.959 . S
H1224 C1238 0.961 . S
H1225 C1239 0.960 . S
H1226 C1239 0.961 . S
H1227 C1239 0.959 . S
H1228 C1242 0.929 . S
H1229 C1243 0.931 . S
H1230 C1245 0.930 . S
C1231 H1219 0.930 . S
C1231 C1232 1.399 . S
C1231 C1236 1.399 . S
C1232 C1231 1.399 . S
C1232 C1233 1.376 . S
C1233 H1220 0.930 . S
C1233 C1232 1.376 . S
C1233 C1234 1.388 . S
C1234 H1221 0.930 . S
C1234 C1233 1.388 . S
C1234 C1235 1.390 . S
C1235 C1234 1.390 . S
C1235 C1236 1.394 . S
C1235 C1241 1.465 . S
C1236 C1231 1.399 . S
C1236 C1235 1.394 . S
C1236 C1237 1.516 . S
C1237 C1236 1.516 . S
C1237 C1238 1.502 . S
C1237 C1239 1.561 . S
C1237 C1240 1.526 . S
C1238 H1222 0.959 . S
C1238 H1223 0.959 . S
C1238 H1224 0.961 . S
C1238 C1237 1.502 . S
C1239 H1225 0.960 . S
C1239 H1226 0.961 . S
C1239 H1227 0.959 . S
C1239 C1237 1.561 . S
C1240 C1237 1.526 . S
C1240 C1241 1.396 . S
C1240 C1245 1.390 . S
C1241 C1235 1.465 . S
C1241 C1240 1.396 . S
C1241 C1242 1.399 . S
C1242 H1228 0.929 . S
C1242 C1241 1.399 . S
C1242 C1243 1.385 . S
C1243 H1229 0.931 . S
C1243 C1242 1.385 . S
C1243 C1244 1.389 . S
C1244 C1243 1.389 . S
C1244 C1245 1.387 . S
C1245 H1230 0.930 . S
C1245 C1240 1.390 . S
C1245 C1244 1.387 . S
H1246 C1258 0.930 . S
H1247 C1260 0.930 . S
H1248 C1261 0.930 . S
H1249 C1265 0.959 . S
H1250 C1265 0.959 1_565 S
H1251 C1265 0.961 1_565 S
H1252 C1266 0.960 1_565 S
H1253 C1266 0.961 1_565 S
H1254 C1266 0.959 . S
H1255 C1269 0.929 . S
H1256 C1270 0.931 . S
H1257 C1272 0.930 . S
C1258 H1246 0.930 . S
C1258 C1259 1.399 . S
C1258 C1263 1.399 . S
C1259 C1258 1.399 . S
C1259 C1260 1.376 . S
C1260 H1247 0.930 . S
C1260 C1259 1.376 . S
C1260 C1261 1.388 . S
C1261 H1248 0.930 . S
C1261 C1260 1.388 . S
C1261 C1262 1.390 . S
C1262 C1261 1.390 . S
C1262 C1263 1.394 . S
C1262 C1268 1.465 . S
C1263 C1258 1.399 . S
C1263 C1262 1.394 . S
C1263 C1264 1.516 . S
C1264 C1263 1.516 . S
C1264 C1265 1.502 . S
C1264 C1266 1.561 . S
C1264 C1267 1.526 . S
C1265 H1249 0.959 . S
C1265 H1250 0.959 1_545 S
C1265 H1251 0.961 1_545 S
C1265 C1264 1.502 . S
C1266 H1252 0.960 1_545 S
C1266 H1253 0.961 1_545 S
C1266 H1254 0.959 . S
C1266 C1264 1.561 . S
C1267 C1264 1.526 . S
C1267 C1268 1.396 . S
C1267 C1272 1.390 . S
C1268 C1262 1.465 . S
C1268 C1267 1.396 . S
C1268 C1269 1.399 . S
C1269 H1255 0.929 . S
C1269 C1268 1.399 . S
C1269 C1270 1.385 . S
C1270 H1256 0.931 . S
C1270 C1269 1.385 . S
C1270 C1271 1.389 . S
C1271 C1270 1.389 . S
C1271 C1272 1.387 . S
C1272 H1257 0.930 . S
C1272 C1267 1.390 . S
C1272 C1271 1.387 . S
H1273 C1285 0.930 . S
H1274 C1287 0.930 . S
H1275 C1288 0.930 . S
H1276 C1292 0.959 . S
H1277 C1292 0.959 . S
H1278 C1292 0.961 . S
H1279 C1293 0.960 . S
H1280 C1293 0.961 . S
H1281 C1293 0.959 . S
H1282 C1296 0.929 . S
H1283 C1297 0.931 . S
H1284 C1299 0.930 . S
C1285 H1273 0.930 . S
C1285 C1286 1.399 . S
C1285 C1290 1.399 . S
C1286 C1285 1.399 . S
C1286 C1287 1.376 . S
C1287 H1274 0.930 . S
C1287 C1286 1.376 . S
C1287 C1288 1.388 . S
C1288 H1275 0.930 . S
C1288 C1287 1.388 . S
C1288 C1289 1.390 . S
C1289 C1288 1.390 . S
C1289 C1290 1.394 . S
C1289 C1295 1.465 . S
C1290 C1285 1.399 . S
C1290 C1289 1.394 . S
C1290 C1291 1.516 . S
C1291 C1290 1.516 . S
C1291 C1292 1.502 . S
C1291 C1293 1.561 . S
C1291 C1294 1.526 . S
C1292 H1276 0.959 . S
C1292 H1277 0.959 . S
C1292 H1278 0.961 . S
C1292 C1291 1.502 . S
C1293 H1279 0.960 . S
C1293 H1280 0.961 . S
C1293 H1281 0.959 . S
C1293 C1291 1.561 . S
C1294 C1291 1.526 . S
C1294 C1295 1.396 . S
C1294 C1299 1.390 . S
C1295 C1289 1.465 . S
C1295 C1294 1.396 . S
C1295 C1296 1.399 . S
C1296 H1282 0.929 . S
C1296 C1295 1.399 . S
C1296 C1297 1.385 . S
C1297 H1283 0.931 . S
C1297 C1296 1.385 . S
C1297 C1298 1.389 . S
C1298 C1297 1.389 . S
C1298 C1299 1.387 . S
C1299 H1284 0.930 . S
C1299 C1294 1.390 . S
C1299 C1298 1.387 . S
H1300 C1312 0.930 . S
H1301 C1314 0.930 . S
H1302 C1315 0.930 . S
H1303 C1319 0.959 . S
H1304 C1319 0.963 . S
H1305 C1319 0.961 . S
H1306 C1320 0.970 1_565 S
H1307 C1320 0.919 1_565 S
H1308 C1320 0.948 1_455 S
H1309 C1323 0.929 . S
H1310 C1324 0.931 . S
H1311 C1326 0.930 . S
C1312 H1300 0.930 . S
C1312 C1313 1.399 . S
C1312 C1317 1.399 . S
C1313 C1312 1.399 . S
C1313 C1314 1.376 1_655 S
C1314 H1301 0.930 . S
C1314 C1313 1.376 1_455 S
C1314 C1315 1.388 . S
C1315 H1302 0.930 . S
C1315 C1314 1.388 . S
C1315 C1316 1.390 . S
C1316 C1315 1.390 . S
C1316 C1317 1.394 1_455 S
C1316 C1322 1.465 . S
C1317 C1312 1.399 . S
C1317 C1316 1.394 1_655 S
C1317 C1318 1.516 . S
C1318 C1317 1.516 . S
C1318 C1319 1.502 . S
C1318 C1320 1.612 . S
C1318 C1321 1.526 1_655 S
C1319 H1303 0.959 . S
C1319 H1304 0.963 . S
C1319 H1305 0.961 . S
C1319 C1318 1.502 . S
C1320 H1306 0.970 1_545 S
C1320 H1307 0.919 1_545 S
C1320 H1308 0.948 1_655 S
C1320 C1318 1.612 . S
C1321 C1318 1.526 1_455 S
C1321 C1322 1.396 . S
C1321 C1326 1.390 . S
C1322 C1316 1.465 . S
C1322 C1321 1.396 . S
C1322 C1323 1.399 . S
C1323 H1309 0.929 . S
C1323 C1322 1.399 . S
C1323 C1324 1.385 . S
C1324 H1310 0.931 . S
C1324 C1323 1.385 . S
C1324 C1325 1.389 . S
C1325 C1324 1.389 . S
C1325 C1326 1.387 . S
C1326 H1311 0.930 . S
C1326 C1321 1.390 . S
C1326 C1325 1.387 . S
H1327 C1339 0.930 . S
H1328 C1341 0.930 . S
H1329 C1342 0.930 . S
H1330 C1346 0.959 . S
H1331 C1346 0.959 . S
H1332 C1346 0.961 . S
H1333 C1347 0.960 . S
H1334 C1347 0.961 . S
H1335 C1347 0.959 . S
H1336 C1350 0.929 . S
H1337 C1351 0.931 . S
H1338 C1353 0.930 . S
C1339 H1327 0.930 . S
C1339 C1340 1.399 . S
C1339 C1344 1.399 . S
C1340 C1339 1.399 . S
C1340 C1341 1.376 . S
C1341 H1328 0.930 . S
C1341 C1340 1.376 . S
C1341 C1342 1.388 . S
C1342 H1329 0.930 . S
C1342 C1341 1.388 . S
C1342 C1343 1.390 . S
C1343 C1342 1.390 . S
C1343 C1344 1.394 . S
C1343 C1349 1.465 . S
C1344 C1339 1.399 . S
C1344 C1343 1.394 . S
C1344 C1345 1.516 . S
C1345 C1344 1.516 . S
C1345 C1346 1.502 . S
C1345 C1347 1.561 . S
C1345 C1348 1.526 . S
C1346 H1330 0.959 . S
C1346 H1331 0.959 . S
C1346 H1332 0.961 . S
C1346 C1345 1.502 . S
C1347 H1333 0.960 . S
C1347 H1334 0.961 . S
C1347 H1335 0.959 . S
C1347 C1345 1.561 . S
C1348 C1345 1.526 . S
C1348 C1349 1.396 . S
C1348 C1353 1.390 . S
C1349 C1343 1.465 . S
C1349 C1348 1.396 . S
C1349 C1350 1.399 . S
C1350 H1336 0.929 . S
C1350 C1349 1.399 . S
C1350 C1351 1.385 . S
C1351 H1337 0.931 . S
C1351 C1350 1.385 . S
C1351 C1352 1.389 . S
C1352 C1351 1.389 . S
C1352 C1353 1.387 . S
C1353 H1338 0.930 . S
C1353 C1348 1.390 . S
C1353 C1352 1.387 . S
H1354 C1366 0.930 . S
H1355 C1368 0.930 . S
H1356 C1369 0.930 . S
H1357 C1373 0.959 . S
H1358 C1373 0.959 . S
H1359 C1373 0.961 . S
H1360 C1374 0.960 . S
H1361 C1374 0.961 . S
H1362 C1374 0.959 . S
H1363 C1377 0.929 . S
H1364 C1378 0.931 . S
H1365 C1380 0.930 . S
C1366 H1354 0.930 . S
C1366 C1367 1.399 . S
C1366 C1371 1.399 . S
C1367 C1366 1.399 . S
C1367 C1368 1.376 . S
C1368 H1355 0.930 . S
C1368 C1367 1.376 . S
C1368 C1369 1.388 . S
C1369 H1356 0.930 . S
C1369 C1368 1.388 . S
C1369 C1370 1.390 . S
C1370 C1369 1.390 . S
C1370 C1371 1.394 . S
C1370 C1376 1.465 . S
C1371 C1366 1.399 . S
C1371 C1370 1.394 . S
C1371 C1372 1.516 . S
C1372 C1371 1.516 . S
C1372 C1373 1.502 . S
C1372 C1374 1.561 . S
C1372 C1375 1.526 . S
C1373 H1357 0.959 . S
C1373 H1358 0.959 . S
C1373 H1359 0.961 . S
C1373 C1372 1.502 . S
C1374 H1360 0.960 . S
C1374 H1361 0.961 . S
C1374 H1362 0.959 . S
C1374 C1372 1.561 . S
C1375 C1372 1.526 . S
C1375 C1376 1.396 . S
C1375 C1380 1.390 . S
C1376 C1370 1.465 . S
C1376 C1375 1.396 . S
C1376 C1377 1.399 . S
C1377 H1363 0.929 . S
C1377 C1376 1.399 . S
C1377 C1378 1.385 . S
C1378 H1364 0.931 . S
C1378 C1377 1.385 . S
C1378 C1379 1.389 . S
C1379 C1378 1.389 . S
C1379 C1380 1.387 . S
C1380 H1365 0.930 . S
C1380 C1375 1.390 . S
C1380 C1379 1.387 . S
H1381 C1393 0.930 . S
H1382 C1395 0.930 . S
H1383 C1396 0.930 . S
H1384 C1400 0.959 . S
H1385 C1400 0.959 . S
H1386 C1400 0.961 . S
H1387 C1401 0.960 . S
H1388 C1401 0.961 . S
H1389 C1401 0.959 . S
H1390 C1404 0.929 . S
H1391 C1405 0.931 . S
H1392 C1407 0.930 . S
C1393 H1381 0.930 . S
C1393 C1394 1.399 . S
C1393 C1398 1.399 . S
C1394 C1393 1.399 . S
C1394 C1395 1.376 . S
C1395 H1382 0.930 . S
C1395 C1394 1.376 . S
C1395 C1396 1.388 . S
C1396 H1383 0.930 . S
C1396 C1395 1.388 . S
C1396 C1397 1.390 . S
C1397 C1396 1.390 . S
C1397 C1398 1.394 . S
C1397 C1403 1.465 . S
C1398 C1393 1.399 . S
C1398 C1397 1.394 . S
C1398 C1399 1.516 . S
C1399 C1398 1.516 . S
C1399 C1400 1.502 . S
C1399 C1401 1.561 . S
C1399 C1402 1.526 . S
C1400 H1384 0.959 . S
C1400 H1385 0.959 . S
C1400 H1386 0.961 . S
C1400 C1399 1.502 . S
C1401 H1387 0.960 . S
C1401 H1388 0.961 . S
C1401 H1389 0.959 . S
C1401 C1399 1.561 . S
C1402 C1399 1.526 . S
C1402 C1403 1.396 . S
C1402 C1407 1.390 . S
C1403 C1397 1.465 . S
C1403 C1402 1.396 . S
C1403 C1404 1.399 . S
C1404 H1390 0.929 . S
C1404 C1403 1.399 . S
C1404 C1405 1.385 . S
C1405 H1391 0.931 . S
C1405 C1404 1.385 . S
C1405 C1406 1.389 . S
C1406 C1405 1.389 . S
C1406 C1407 1.387 . S
C1407 H1392 0.930 . S
C1407 C1402 1.390 . S
C1407 C1406 1.387 . S
H1408 C1420 0.930 . S
H1409 C1422 0.930 1_556 S
H1410 C1423 0.930 1_545 S
H1411 C1427 0.959 . S
H1412 C1427 0.959 . S
H1413 C1427 0.961 . S
H1414 C1428 0.960 . S
H1415 C1428 0.961 . S
H1416 C1428 0.959 . S
H1417 C1431 0.929 . S
H1418 C1432 0.931 . S
H1419 C1434 0.930 . S
C1420 H1408 0.930 . S
C1420 C1421 1.399 . S
C1420 C1425 1.399 . S
C1421 C1420 1.399 . S
C1421 C1422 1.376 . S
C1422 H1409 0.930 1_554 S
C1422 C1421 1.376 . S
C1422 C1423 1.388 . S
C1423 H1410 0.930 1_565 S
C1423 C1422 1.388 . S
C1423 C1424 1.390 . S
C1424 C1423 1.390 . S
C1424 C1425 1.394 . S
C1424 C1430 1.465 . S
C1425 C1420 1.399 . S
C1425 C1424 1.394 . S
C1425 C1426 1.516 . S
C1426 C1425 1.516 . S
C1426 C1427 1.502 . S
C1426 C1428 1.561 . S
C1426 C1429 1.526 . S
C1427 H1411 0.959 . S
C1427 H1412 0.959 . S
C1427 H1413 0.961 . S
C1427 C1426 1.502 . S
C1428 H1414 0.960 . S
C1428 H1415 0.961 . S
C1428 H1416 0.959 . S
C1428 C1426 1.561 . S
C1429 C1426 1.526 . S
C1429 C1430 1.396 . S
C1429 C1434 1.390 . S
C1430 C1424 1.465 . S
C1430 C1429 1.396 . S
C1430 C1431 1.399 1_565 S
C1431 H1417 0.929 . S
C1431 C1430 1.399 1_545 S
C1431 C1432 1.385 . S
C1432 H1418 0.931 . S
C1432 C1431 1.385 . S
C1432 C1433 1.389 . S
C1433 C1432 1.389 . S
C1433 C1434 1.387 1_545 S
C1434 H1419 0.930 . S
C1434 C1429 1.390 . S
C1434 C1433 1.387 1_565 S
H1435 C1447 0.930 . S
H1436 C1449 0.930 . S
H1437 C1450 0.930 . S
H1438 C1454 0.959 . S
H1439 C1454 0.959 . S
H1440 C1454 0.961 . S
H1441 C1455 0.960 . S
H1442 C1455 0.961 . S
H1443 C1455 0.959 . S
H1444 C1458 0.929 . S
H1445 C1459 0.931 . S
H1446 C1461 0.930 . S
C1447 H1435 0.930 . S
C1447 C1448 1.399 . S
C1447 C1452 1.399 . S
C1448 C1447 1.399 . S
C1448 C1449 1.376 1_554 S
C1449 H1436 0.930 . S
C1449 C1448 1.376 1_556 S
C1449 C1450 1.388 . S
C1450 H1437 0.930 . S
C1450 C1449 1.388 . S
C1450 C1451 1.390 1_556 S
C1451 C1450 1.390 1_554 S
C1451 C1452 1.394 . S
C1451 C1457 1.465 . S
C1452 C1447 1.399 . S
C1452 C1451 1.394 . S
C1452 C1453 1.516 . S
C1453 C1452 1.516 . S
C1453 C1454 1.502 . S
C1453 C1455 1.561 . S
C1453 C1456 1.526 . S
C1454 H1438 0.959 . S
C1454 H1439 0.959 . S
C1454 H1440 0.961 . S
C1454 C1453 1.502 . S
C1455 H1441 0.960 . S
C1455 H1442 0.961 . S
C1455 H1443 0.959 . S
C1455 C1453 1.561 . S
C1456 C1453 1.526 . S
C1456 C1457 1.396 . S
C1456 C1461 1.390 . S
C1457 C1451 1.465 . S
C1457 C1456 1.396 . S
C1457 C1458 1.399 1_554 S
C1458 H1444 0.929 . S
C1458 C1457 1.399 1_556 S
C1458 C1459 1.385 . S
C1459 H1445 0.931 . S
C1459 C1458 1.385 . S
C1459 C1460 1.389 1_556 S
C1460 C1459 1.389 1_554 S
C1460 C1461 1.387 . S
C1461 H1446 0.930 . S
C1461 C1456 1.390 . S
C1461 C1460 1.387 . S
H1462 C1474 0.930 . S
H1463 C1476 0.930 . S
H1464 C1477 0.930 . S
H1465 C1481 0.959 . S
H1466 C1481 0.959 . S
H1467 C1481 0.961 . S
H1468 C1482 0.960 . S
H1469 C1482 0.961 . S
H1470 C1482 0.959 . S
H1471 C1485 0.929 . S
H1472 C1486 0.931 . S
H1473 C1488 0.930 . S
C1474 H1462 0.930 . S
C1474 C1475 1.399 . S
C1474 C1479 1.399 . S
C1475 C1474 1.399 . S
C1475 C1476 1.376 . S
C1476 H1463 0.930 . S
C1476 C1475 1.376 . S
C1476 C1477 1.388 . S
C1477 H1464 0.930 . S
C1477 C1476 1.388 . S
C1477 C1478 1.390 . S
C1478 C1477 1.390 . S
C1478 C1479 1.394 . S
C1478 C1484 1.465 . S
C1479 C1474 1.399 . S
C1479 C1478 1.394 . S
C1479 C1480 1.516 . S
C1480 C1479 1.516 . S
C1480 C1481 1.502 . S
C1480 C1482 1.561 . S
C1480 C1483 1.526 . S
C1481 H1465 0.959 . S
C1481 H1466 0.959 . S
C1481 H1467 0.961 . S
C1481 C1480 1.502 . S
C1482 H1468 0.960 . S
C1482 H1469 0.961 . S
C1482 H1470 0.959 . S
C1482 C1480 1.561 . S
C1483 C1480 1.526 . S
C1483 C1484 1.396 . S
C1483 C1488 1.390 . S
C1484 C1478 1.465 . S
C1484 C1483 1.396 . S
C1484 C1485 1.399 . S
C1485 H1471 0.929 . S
C1485 C1484 1.399 . S
C1485 C1486 1.385 . S
C1486 H1472 0.931 . S
C1486 C1485 1.385 . S
C1486 C1487 1.389 . S
C1487 C1486 1.389 . S
C1487 C1488 1.387 . S
C1488 H1473 0.930 . S
C1488 C1483 1.390 . S
C1488 C1487 1.387 . S
H1489 C1501 0.930 . S
H1490 C1503 0.930 . S
H1491 C1504 0.930 . S
H1492 C1508 0.959 . S
H1493 C1508 0.959 . S
H1494 C1508 0.961 . S
H1495 C1509 0.960 . S
H1496 C1509 0.961 . S
H1497 C1509 0.959 . S
H1498 C1512 0.929 . S
H1499 C1513 0.931 . S
H1500 C1515 0.930 . S
C1501 H1489 0.930 . S
C1501 C1502 1.399 . S
C1501 C1506 1.399 . S
C1502 C1501 1.399 . S
C1502 C1503 1.376 . S
C1503 H1490 0.930 . S
C1503 C1502 1.376 . S
C1503 C1504 1.388 . S
C1504 H1491 0.930 . S
C1504 C1503 1.388 . S
C1504 C1505 1.390 . S
C1505 C1504 1.390 . S
C1505 C1506 1.394 . S
C1505 C1511 1.465 . S
C1506 C1501 1.399 . S
C1506 C1505 1.394 . S
C1506 C1507 1.516 . S
C1507 C1506 1.516 . S
C1507 C1508 1.502 . S
C1507 C1509 1.561 . S
C1507 C1510 1.526 . S
C1508 H1492 0.959 . S
C1508 H1493 0.959 . S
C1508 H1494 0.961 . S
C1508 C1507 1.502 . S
C1509 H1495 0.960 . S
C1509 H1496 0.961 . S
C1509 H1497 0.959 . S
C1509 C1507 1.561 . S
C1510 C1507 1.526 . S
C1510 C1511 1.396 . S
C1510 C1515 1.390 . S
C1511 C1505 1.465 . S
C1511 C1510 1.396 . S
C1511 C1512 1.399 . S
C1512 H1498 0.929 . S
C1512 C1511 1.399 . S
C1512 C1513 1.385 . S
C1513 H1499 0.931 . S
C1513 C1512 1.385 . S
C1513 C1514 1.389 . S
C1514 C1513 1.389 . S
C1514 C1515 1.387 . S
C1515 H1500 0.930 . S
C1515 C1510 1.390 . S
C1515 C1514 1.387 . S
H1516 C1528 0.930 . S
H1517 C1530 0.930 . S
H1518 C1531 0.930 . S
H1519 C1535 0.959 . S
H1520 C1535 0.959 . S
H1521 C1535 0.961 . S
H1522 C1536 0.960 . S
H1523 C1536 0.961 . S
H1524 C1536 0.959 . S
H1525 C1539 0.929 . S
H1526 C1540 0.931 . S
H1527 C1542 0.930 . S
C1528 H1516 0.930 . S
C1528 C1529 1.399 . S
C1528 C1533 1.399 . S
C1529 C1528 1.399 . S
C1529 C1530 1.376 . S
C1530 H1517 0.930 . S
C1530 C1529 1.376 . S
C1530 C1531 1.388 . S
C1531 H1518 0.930 . S
C1531 C1530 1.388 . S
C1531 C1532 1.390 . S
C1532 C1531 1.390 . S
C1532 C1533 1.394 . S
C1532 C1538 1.465 . S
C1533 C1528 1.399 . S
C1533 C1532 1.394 . S
C1533 C1534 1.516 . S
C1534 C1533 1.516 . S
C1534 C1535 1.502 . S
C1534 C1536 1.561 . S
C1534 C1537 1.526 . S
C1535 H1519 0.959 . S
C1535 H1520 0.959 . S
C1535 H1521 0.961 . S
C1535 C1534 1.502 . S
C1536 H1522 0.960 . S
C1536 H1523 0.961 . S
C1536 H1524 0.959 . S
C1536 C1534 1.561 . S
C1537 C1534 1.526 . S
C1537 C1538 1.396 . S
C1537 C1542 1.390 . S
C1538 C1532 1.465 . S
C1538 C1537 1.396 . S
C1538 C1539 1.399 . S
C1539 H1525 0.929 . S
C1539 C1538 1.399 . S
C1539 C1540 1.385 . S
C1540 H1526 0.931 . S
C1540 C1539 1.385 . S
C1540 C1541 1.389 . S
C1541 C1540 1.389 . S
C1541 C1542 1.387 . S
C1542 H1527 0.930 . S
C1542 C1537 1.390 . S
C1542 C1541 1.387 . S
H1543 C1555 0.930 . S
H1544 C1557 0.930 . S
H1545 C1558 0.930 . S
H1546 C1562 0.959 . S
H1547 C1562 0.959 . S
H1548 C1562 0.961 . S
H1549 C1563 0.960 . S
H1550 C1563 0.961 . S
H1551 C1563 0.959 . S
H1552 C1566 0.929 . S
H1553 C1567 0.931 . S
H1554 C1569 0.930 . S
C1555 H1543 0.930 . S
C1555 C1556 1.399 . S
C1555 C1560 1.399 . S
C1556 C1555 1.399 . S
C1556 C1557 1.376 . S
C1557 H1544 0.930 . S
C1557 C1556 1.376 . S
C1557 C1558 1.388 . S
C1558 H1545 0.930 . S
C1558 C1557 1.388 . S
C1558 C1559 1.390 . S
C1559 C1558 1.390 . S
C1559 C1560 1.394 . S
C1559 C1565 1.465 . S
C1560 C1555 1.399 . S
C1560 C1559 1.394 . S
C1560 C1561 1.516 . S
C1561 C1560 1.516 . S
C1561 C1562 1.502 . S
C1561 C1563 1.561 . S
C1561 C1564 1.526 . S
C1562 H1546 0.959 . S
C1562 H1547 0.959 . S
C1562 H1548 0.961 . S
C1562 C1561 1.502 . S
C1563 H1549 0.960 . S
C1563 H1550 0.961 . S
C1563 H1551 0.959 . S
C1563 C1561 1.561 . S
C1564 C1561 1.526 . S
C1564 C1565 1.396 . S
C1564 C1569 1.390 . S
C1565 C1559 1.465 . S
C1565 C1564 1.396 . S
C1565 C1566 1.399 . S
C1566 H1552 0.929 . S
C1566 C1565 1.399 . S
C1566 C1567 1.385 . S
C1567 H1553 0.931 . S
C1567 C1566 1.385 . S
C1567 C1568 1.389 . S
C1568 C1567 1.389 . S
C1568 C1569 1.387 . S
C1569 H1554 0.930 . S
C1569 C1564 1.390 . S
C1569 C1568 1.387 . S
H1570 C1582 0.930 . S
H1571 C1584 0.930 . S
H1572 C1585 0.930 . S
H1573 C1589 0.959 . S
H1574 C1589 0.959 . S
H1575 C1589 0.961 . S
H1576 C1590 0.960 . S
H1577 C1590 0.961 . S
H1578 C1590 0.959 . S
H1579 C1593 0.929 . S
H1580 C1594 0.931 . S
H1581 C1596 0.930 . S
C1582 H1570 0.930 . S
C1582 C1583 1.399 . S
C1582 C1587 1.399 . S
C1583 C1582 1.399 . S
C1583 C1584 1.376 . S
C1584 H1571 0.930 . S
C1584 C1583 1.376 . S
C1584 C1585 1.388 . S
C1585 H1572 0.930 . S
C1585 C1584 1.388 . S
C1585 C1586 1.390 . S
C1586 C1585 1.390 . S
C1586 C1587 1.394 . S
C1586 C1592 1.465 . S
C1587 C1582 1.399 . S
C1587 C1586 1.394 . S
C1587 C1588 1.516 . S
C1588 C1587 1.516 . S
C1588 C1589 1.502 . S
C1588 C1590 1.561 . S
C1588 C1591 1.526 . S
C1589 H1573 0.959 . S
C1589 H1574 0.959 . S
C1589 H1575 0.961 . S
C1589 C1588 1.502 . S
C1590 H1576 0.960 . S
C1590 H1577 0.961 . S
C1590 H1578 0.959 . S
C1590 C1588 1.561 . S
C1591 C1588 1.526 . S
C1591 C1592 1.396 . S
C1591 C1596 1.390 . S
C1592 C1586 1.465 . S
C1592 C1591 1.396 . S
C1592 C1593 1.399 . S
C1593 H1579 0.929 . S
C1593 C1592 1.399 . S
C1593 C1594 1.385 . S
C1594 H1580 0.931 . S
C1594 C1593 1.385 . S
C1594 C1595 1.389 . S
C1595 C1594 1.389 . S
C1595 C1596 1.387 . S
C1596 H1581 0.930 . S
C1596 C1591 1.390 . S
C1596 C1595 1.387 . S
H1597 C1609 0.930 . S
H1598 C1611 0.930 . S
H1599 C1612 0.930 . S
H1600 C1616 0.959 . S
H1601 C1616 0.959 . S
H1602 C1616 0.961 . S
H1603 C1617 0.960 . S
H1604 C1617 0.961 . S
H1605 C1617 0.959 . S
H1606 C1620 0.929 . S
H1607 C1621 0.931 . S
H1608 C1623 0.930 . S
C1609 H1597 0.930 . S
C1609 C1610 1.399 . S
C1609 C1614 1.399 . S
C1610 C1609 1.399 . S
C1610 C1611 1.376 . S
C1611 H1598 0.930 . S
C1611 C1610 1.376 . S
C1611 C1612 1.388 . S
C1612 H1599 0.930 . S
C1612 C1611 1.388 . S
C1612 C1613 1.390 . S
C1613 C1612 1.390 . S
C1613 C1614 1.394 . S
C1613 C1619 1.465 . S
C1614 C1609 1.399 . S
C1614 C1613 1.394 . S
C1614 C1615 1.516 . S
C1615 C1614 1.516 . S
C1615 C1616 1.502 . S
C1615 C1617 1.561 . S
C1615 C1618 1.526 . S
C1616 H1600 0.959 . S
C1616 H1601 0.959 . S
C1616 H1602 0.961 . S
C1616 C1615 1.502 . S
C1617 H1603 0.960 . S
C1617 H1604 0.961 . S
C1617 H1605 0.959 . S
C1617 C1615 1.561 . S
C1618 C1615 1.526 . S
C1618 C1619 1.396 . S
C1618 C1623 1.390 . S
C1619 C1613 1.465 . S
C1619 C1618 1.396 . S
C1619 C1620 1.399 . S
C1620 H1606 0.929 . S
C1620 C1619 1.399 . S
C1620 C1621 1.385 . S
C1621 H1607 0.931 . S
C1621 C1620 1.385 . S
C1621 C1622 1.389 . S
C1622 C1621 1.389 . S
C1622 C1623 1.387 . S
C1623 H1608 0.930 . S
C1623 C1618 1.390 . S
C1623 C1622 1.387 . S
H1624 C1636 0.930 . S
H1625 C1638 0.930 . S
H1626 C1639 0.930 . S
H1627 C1643 0.959 . S
H1628 C1643 0.959 . S
H1629 C1643 0.961 . S
H1630 C1644 0.960 . S
H1631 C1644 0.961 . S
H1632 C1644 0.959 . S
H1633 C1647 0.929 . S
H1634 C1648 0.931 . S
H1635 C1650 0.930 . S
C1636 H1624 0.930 . S
C1636 C1637 1.399 . S
C1636 C1641 1.399 . S
C1637 C1636 1.399 . S
C1637 C1638 1.376 . S
C1638 H1625 0.930 . S
C1638 C1637 1.376 . S
C1638 C1639 1.388 . S
C1639 H1626 0.930 . S
C1639 C1638 1.388 . S
C1639 C1640 1.390 . S
C1640 C1639 1.390 . S
C1640 C1641 1.394 . S
C1640 C1646 1.465 . S
C1641 C1636 1.399 . S
C1641 C1640 1.394 . S
C1641 C1642 1.516 . S
C1642 C1641 1.516 . S
C1642 C1643 1.502 . S
C1642 C1644 1.561 . S
C1642 C1645 1.526 . S
C1643 H1627 0.959 . S
C1643 H1628 0.959 . S
C1643 H1629 0.961 . S
C1643 C1642 1.502 . S
C1644 H1630 0.960 . S
C1644 H1631 0.961 . S
C1644 H1632 0.959 . S
C1644 C1642 1.561 . S
C1645 C1642 1.526 . S
C1645 C1646 1.396 . S
C1645 C1650 1.390 . S
C1646 C1640 1.465 . S
C1646 C1645 1.396 . S
C1646 C1647 1.399 . S
C1647 H1633 0.929 . S
C1647 C1646 1.399 . S
C1647 C1648 1.385 . S
C1648 H1634 0.931 . S
C1648 C1647 1.385 . S
C1648 C1649 1.389 . S
C1649 C1648 1.389 . S
C1649 C1650 1.387 . S
C1650 H1635 0.930 . S
C1650 C1645 1.390 . S
C1650 C1649 1.387 . S
H1651 C1663 0.930 . S
H1652 C1665 0.930 . S
H1653 C1666 0.930 . S
H1654 C1670 0.959 . S
H1655 C1670 0.959 . S
H1656 C1670 0.961 . S
H1657 C1671 0.960 . S
H1658 C1671 0.961 . S
H1659 C1671 0.959 . S
H1660 C1674 0.929 . S
H1661 C1675 0.931 . S
H1662 C1677 0.930 . S
C1663 H1651 0.930 . S
C1663 C1664 1.399 . S
C1663 C1668 1.399 . S
C1664 C1663 1.399 . S
C1664 C1665 1.376 . S
C1665 H1652 0.930 . S
C1665 C1664 1.376 . S
C1665 C1666 1.388 . S
C1666 H1653 0.930 . S
C1666 C1665 1.388 . S
C1666 C1667 1.390 . S
C1667 C1666 1.390 . S
C1667 C1668 1.394 . S
C1667 C1673 1.465 . S
C1668 C1663 1.399 . S
C1668 C1667 1.394 . S
C1668 C1669 1.516 . S
C1669 C1668 1.516 . S
C1669 C1670 1.502 . S
C1669 C1671 1.561 . S
C1669 C1672 1.526 . S
C1670 H1654 0.959 . S
C1670 H1655 0.959 . S
C1670 H1656 0.961 . S
C1670 C1669 1.502 . S
C1671 H1657 0.960 . S
C1671 H1658 0.961 . S
C1671 H1659 0.959 . S
C1671 C1669 1.561 . S
C1672 C1669 1.526 . S
C1672 C1673 1.396 . S
C1672 C1677 1.390 . S
C1673 C1667 1.465 . S
C1673 C1672 1.396 . S
C1673 C1674 1.399 . S
C1674 H1660 0.929 . S
C1674 C1673 1.399 . S
C1674 C1675 1.385 . S
C1675 H1661 0.931 . S
C1675 C1674 1.385 . S
C1675 C1676 1.389 . S
C1676 C1675 1.389 . S
C1676 C1677 1.387 . S
C1677 H1662 0.930 . S
C1677 C1672 1.390 . S
C1677 C1676 1.387 . S
H1678 C1690 0.930 . S
H1679 C1692 0.930 . S
H1680 C1693 0.930 . S
H1681 C1697 0.959 . S
H1682 C1697 0.959 . S
H1683 C1697 0.961 . S
H1684 C1698 0.960 . S
H1685 C1698 0.961 . S
H1686 C1698 0.959 . S
H1687 C1701 0.929 . S
H1688 C1702 0.931 . S
H1689 C1704 0.930 . S
C1690 H1678 0.930 . S
C1690 C1691 1.399 . S
C1690 C1695 1.399 . S
C1691 C1690 1.399 . S
C1691 C1692 1.376 . S
C1692 H1679 0.930 . S
C1692 C1691 1.376 . S
C1692 C1693 1.388 . S
C1693 H1680 0.930 . S
C1693 C1692 1.388 . S
C1693 C1694 1.390 . S
C1694 C1693 1.390 . S
C1694 C1695 1.394 . S
C1694 C1700 1.465 . S
C1695 C1690 1.399 . S
C1695 C1694 1.394 . S
C1695 C1696 1.516 . S
C1696 C1695 1.516 . S
C1696 C1697 1.502 . S
C1696 C1698 1.561 . S
C1696 C1699 1.526 . S
C1697 H1681 0.959 . S
C1697 H1682 0.959 . S
C1697 H1683 0.961 . S
C1697 C1696 1.502 . S
C1698 H1684 0.960 . S
C1698 H1685 0.961 . S
C1698 H1686 0.959 . S
C1698 C1696 1.561 . S
C1699 C1696 1.526 . S
C1699 C1700 1.396 . S
C1699 C1704 1.390 . S
C1700 C1694 1.465 . S
C1700 C1699 1.396 . S
C1700 C1701 1.399 . S
C1701 H1687 0.929 . S
C1701 C1700 1.399 . S
C1701 C1702 1.385 . S
C1702 H1688 0.931 . S
C1702 C1701 1.385 . S
C1702 C1703 1.389 . S
C1703 C1702 1.389 . S
C1703 C1704 1.387 . S
C1704 H1689 0.930 . S
C1704 C1699 1.390 . S
C1704 C1703 1.387 . S
H1705 C1717 0.930 . S
H1706 C1719 0.930 . S
H1707 C1720 0.930 . S
H1708 C1724 0.959 . S
H1709 C1724 0.959 . S
H1710 C1724 0.961 . S
H1711 C1725 0.960 . S
H1712 C1725 0.961 . S
H1713 C1725 0.959 . S
H1714 C1728 0.929 . S
H1715 C1729 0.931 . S
H1716 C1731 0.930 . S
C1717 H1705 0.930 . S
C1717 C1718 1.399 . S
C1717 C1722 1.399 . S
C1718 C1717 1.399 . S
C1718 C1719 1.376 . S
C1719 H1706 0.930 . S
C1719 C1718 1.376 . S
C1719 C1720 1.388 . S
C1720 H1707 0.930 . S
C1720 C1719 1.388 . S
C1720 C1721 1.390 . S
C1721 C1720 1.390 . S
C1721 C1722 1.394 . S
C1721 C1727 1.465 . S
C1722 C1717 1.399 . S
C1722 C1721 1.394 . S
C1722 C1723 1.516 . S
C1723 C1722 1.516 . S
C1723 C1724 1.502 . S
C1723 C1725 1.561 . S
C1723 C1726 1.526 . S
C1724 H1708 0.959 . S
C1724 H1709 0.959 . S
C1724 H1710 0.961 . S
C1724 C1723 1.502 . S
C1725 H1711 0.960 . S
C1725 H1712 0.961 . S
C1725 H1713 0.959 . S
C1725 C1723 1.561 . S
C1726 C1723 1.526 . S
C1726 C1727 1.396 . S
C1726 C1731 1.390 . S
C1727 C1721 1.465 . S
C1727 C1726 1.396 . S
C1727 C1728 1.399 . S
C1728 H1714 0.929 . S
C1728 C1727 1.399 . S
C1728 C1729 1.385 . S
C1729 H1715 0.931 . S
C1729 C1728 1.385 . S
C1729 C1730 1.389 . S
C1730 C1729 1.389 . S
C1730 C1731 1.387 . S
C1731 H1716 0.930 . S
C1731 C1726 1.390 . S
C1731 C1730 1.387 . S
H1732 C1744 0.930 . S
H1733 C1746 0.930 . S
H1734 C1747 0.930 . S
H1735 C1751 0.959 . S
H1736 C1751 0.959 . S
H1737 C1751 0.961 . S
H1738 C1752 0.960 . S
H1739 C1752 0.961 . S
H1740 C1752 0.959 . S
H1741 C1755 0.929 . S
H1742 C1756 0.931 . S
H1743 C1758 0.930 . S
C1744 H1732 0.930 . S
C1744 C1745 1.399 . S
C1744 C1749 1.399 . S
C1745 C1744 1.399 . S
C1745 C1746 1.376 . S
C1746 H1733 0.930 . S
C1746 C1745 1.376 . S
C1746 C1747 1.388 . S
C1747 H1734 0.930 . S
C1747 C1746 1.388 . S
C1747 C1748 1.390 . S
C1748 C1747 1.390 . S
C1748 C1749 1.394 . S
C1748 C1754 1.465 . S
C1749 C1744 1.399 . S
C1749 C1748 1.394 . S
C1749 C1750 1.516 . S
C1750 C1749 1.516 . S
C1750 C1751 1.502 . S
C1750 C1752 1.561 . S
C1750 C1753 1.526 . S
C1751 H1735 0.959 . S
C1751 H1736 0.959 . S
C1751 H1737 0.961 . S
C1751 C1750 1.502 . S
C1752 H1738 0.960 . S
C1752 H1739 0.961 . S
C1752 H1740 0.959 . S
C1752 C1750 1.561 . S
C1753 C1750 1.526 . S
C1753 C1754 1.396 . S
C1753 C1758 1.390 . S
C1754 C1748 1.465 . S
C1754 C1753 1.396 . S
C1754 C1755 1.399 . S
C1755 H1741 0.929 . S
C1755 C1754 1.399 . S
C1755 C1756 1.385 . S
C1756 H1742 0.931 . S
C1756 C1755 1.385 . S
C1756 C1757 1.389 . S
C1757 C1756 1.389 . S
C1757 C1758 1.387 . S
C1758 H1743 0.930 . S
C1758 C1753 1.390 . S
C1758 C1757 1.387 . S
H1759 C1771 0.930 . S
H1760 C1773 0.930 . S
H1761 C1774 0.930 . S
H1762 C1778 0.959 . S
H1763 C1778 0.959 . S
H1764 C1778 0.961 . S
H1765 C1779 0.960 . S
H1766 C1779 0.961 . S
H1767 C1779 0.959 . S
H1768 C1782 0.929 . S
H1769 C1783 0.931 . S
H1770 C1785 0.930 . S
C1771 H1759 0.930 . S
C1771 C1772 1.399 . S
C1771 C1776 1.399 . S
C1772 C1771 1.399 . S
C1772 C1773 1.376 . S
C1773 H1760 0.930 . S
C1773 C1772 1.376 . S
C1773 C1774 1.388 . S
C1774 H1761 0.930 . S
C1774 C1773 1.388 . S
C1774 C1775 1.390 . S
C1775 C1774 1.390 . S
C1775 C1776 1.394 . S
C1775 C1781 1.465 . S
C1776 C1771 1.399 . S
C1776 C1775 1.394 . S
C1776 C1777 1.516 . S
C1777 C1776 1.516 . S
C1777 C1778 1.502 . S
C1777 C1779 1.561 . S
C1777 C1780 1.526 . S
C1778 H1762 0.959 . S
C1778 H1763 0.959 . S
C1778 H1764 0.961 . S
C1778 C1777 1.502 . S
C1779 H1765 0.960 . S
C1779 H1766 0.961 . S
C1779 H1767 0.959 . S
C1779 C1777 1.561 . S
C1780 C1777 1.526 . S
C1780 C1781 1.396 . S
C1780 C1785 1.390 . S
C1781 C1775 1.465 . S
C1781 C1780 1.396 . S
C1781 C1782 1.399 . S
C1782 H1768 0.929 . S
C1782 C1781 1.399 . S
C1782 C1783 1.385 . S
C1783 H1769 0.931 . S
C1783 C1782 1.385 . S
C1783 C1784 1.389 . S
C1784 C1783 1.389 . S
C1784 C1785 1.387 . S
C1785 H1770 0.930 . S
C1785 C1780 1.390 . S
C1785 C1784 1.387 . S
H1786 C1798 0.930 . S
H1787 C1800 0.930 . S
H1788 C1801 0.930 . S
H1789 C1805 0.959 . S
H1790 C1805 0.959 . S
H1791 C1805 0.961 . S
H1792 C1806 0.960 . S
H1793 C1806 0.961 1_554 S
H1794 C1806 0.959 . S
H1795 C1809 0.929 . S
H1796 C1810 0.931 . S
H1797 C1812 0.930 1_554 S
C1798 H1786 0.930 . S
C1798 C1799 1.399 . S
C1798 C1803 1.399 . S
C1799 C1798 1.399 . S
C1799 C1800 1.376 . S
C1800 H1787 0.930 . S
C1800 C1799 1.376 . S
C1800 C1801 1.388 . S
C1801 H1788 0.930 . S
C1801 C1800 1.388 . S
C1801 C1802 1.390 . S
C1802 C1801 1.390 . S
C1802 C1803 1.394 . S
C1802 C1808 1.465 . S
C1803 C1798 1.399 . S
C1803 C1802 1.394 . S
C1803 C1804 1.516 . S
C1804 C1803 1.516 . S
C1804 C1805 1.502 . S
C1804 C1806 1.561 . S
C1804 C1807 1.526 . S
C1805 H1789 0.959 . S
C1805 H1790 0.959 . S
C1805 H1791 0.961 . S
C1805 C1804 1.502 . S
C1806 H1792 0.960 . S
C1806 H1793 0.961 1_556 S
C1806 H1794 0.959 . S
C1806 C1804 1.561 . S
C1807 C1804 1.526 . S
C1807 C1808 1.396 . S
C1807 C1812 1.390 . S
C1808 C1802 1.465 . S
C1808 C1807 1.396 . S
C1808 C1809 1.399 . S
C1809 H1795 0.929 . S
C1809 C1808 1.399 . S
C1809 C1810 1.385 . S
C1810 H1796 0.931 . S
C1810 C1809 1.385 . S
C1810 C1811 1.389 . S
C1811 C1810 1.389 . S
C1811 C1812 1.387 . S
C1812 H1797 0.930 1_556 S
C1812 C1807 1.390 . S
C1812 C1811 1.387 . S
H1813 C1825 0.930 . S
H1814 C1827 0.930 . S
H1815 C1828 0.930 . S
H1816 C1832 0.959 . S
H1817 C1832 0.959 . S
H1818 C1832 0.961 . S
H1819 C1833 0.960 . S
H1820 C1833 0.961 . S
H1821 C1833 0.959 . S
H1822 C1836 0.929 . S
H1823 C1837 0.931 . S
H1824 C1839 0.930 . S
C1825 H1813 0.930 . S
C1825 C1826 1.399 . S
C1825 C1830 1.399 . S
C1826 C1825 1.399 . S
C1826 C1827 1.376 . S
C1827 H1814 0.930 . S
C1827 C1826 1.376 . S
C1827 C1828 1.388 . S
C1828 H1815 0.930 . S
C1828 C1827 1.388 . S
C1828 C1829 1.390 . S
C1829 C1828 1.390 . S
C1829 C1830 1.394 . S
C1829 C1835 1.465 . S
C1830 C1825 1.399 . S
C1830 C1829 1.394 . S
C1830 C1831 1.516 . S
C1831 C1830 1.516 . S
C1831 C1832 1.502 . S
C1831 C1833 1.561 . S
C1831 C1834 1.526 . S
C1832 H1816 0.959 . S
C1832 H1817 0.959 . S
C1832 H1818 0.961 . S
C1832 C1831 1.502 . S
C1833 H1819 0.960 . S
C1833 H1820 0.961 . S
C1833 H1821 0.959 . S
C1833 C1831 1.561 . S
C1834 C1831 1.526 . S
C1834 C1835 1.396 . S
C1834 C1839 1.390 . S
C1835 C1829 1.465 . S
C1835 C1834 1.396 . S
C1835 C1836 1.399 . S
C1836 H1822 0.929 . S
C1836 C1835 1.399 . S
C1836 C1837 1.385 . S
C1837 H1823 0.931 . S
C1837 C1836 1.385 . S
C1837 C1838 1.389 . S
C1838 C1837 1.389 . S
C1838 C1839 1.387 . S
C1839 H1824 0.930 . S
C1839 C1834 1.390 . S
C1839 C1838 1.387 . S
H1840 C1852 0.930 . S
H1841 C1854 0.930 . S
H1842 C1855 0.930 . S
H1843 C1859 0.959 . S
H1844 C1859 0.959 . S
H1845 C1859 0.961 . S
H1846 C1860 0.960 . S
H1847 C1860 0.961 . S
H1848 C1860 0.959 . S
H1849 C1863 0.929 . S
H1850 C1864 0.931 . S
H1851 C1866 0.930 1_565 S
C1852 H1840 0.930 . S
C1852 C1853 1.399 1_565 S
C1852 C1857 1.399 1_565 S
C1853 C1852 1.399 1_545 S
C1853 C1854 1.376 . S
C1854 H1841 0.930 . S
C1854 C1853 1.376 . S
C1854 C1855 1.388 . S
C1855 H1842 0.930 . S
C1855 C1854 1.388 . S
C1855 C1856 1.390 . S
C1856 C1855 1.390 . S
C1856 C1857 1.394 . S
C1856 C1862 1.465 . S
C1857 C1852 1.399 1_545 S
C1857 C1856 1.394 . S
C1857 C1858 1.516 1_545 S
C1858 C1857 1.516 1_565 S
C1858 C1859 1.502 . S
C1858 C1860 1.561 . S
C1858 C1861 1.526 1_565 S
C1859 H1843 0.959 . S
C1859 H1844 0.959 . S
C1859 H1845 0.961 . S
C1859 C1858 1.502 . S
C1860 H1846 0.960 . S
C1860 H1847 0.961 . S
C1860 H1848 0.959 . S
C1860 C1858 1.561 . S
C1861 C1858 1.526 1_545 S
C1861 C1862 1.396 . S
C1861 C1866 1.390 . S
C1862 C1856 1.465 . S
C1862 C1861 1.396 . S
C1862 C1863 1.399 . S
C1863 H1849 0.929 . S
C1863 C1862 1.399 . S
C1863 C1864 1.385 . S
C1864 H1850 0.931 . S
C1864 C1863 1.385 . S
C1864 C1865 1.389 . S
C1865 C1864 1.389 . S
C1865 C1866 1.387 . S
C1866 H1851 0.930 1_545 S
C1866 C1861 1.390 . S
C1866 C1865 1.387 . S
H1867 C1879 0.930 . S
H1868 C1881 0.930 . S
H1869 C1882 0.930 . S
H1870 C1886 0.959 . S
H1871 C1886 0.959 . S
H1872 C1886 0.961 . S
H1873 C1887 0.960 . S
H1874 C1887 0.961 . S
H1875 C1887 0.959 . S
H1876 C1890 0.929 . S
H1877 C1891 0.931 . S
H1878 C1893 0.930 . S
C1879 H1867 0.930 . S
C1879 C1880 1.399 . S
C1879 C1884 1.399 . S
C1880 C1879 1.399 . S
C1880 C1881 1.376 . S
C1881 H1868 0.930 . S
C1881 C1880 1.376 . S
C1881 C1882 1.388 . S
C1882 H1869 0.930 . S
C1882 C1881 1.388 . S
C1882 C1883 1.390 . S
C1883 C1882 1.390 . S
C1883 C1884 1.394 . S
C1883 C1889 1.465 . S
C1884 C1879 1.399 . S
C1884 C1883 1.394 . S
C1884 C1885 1.516 . S
C1885 C1884 1.516 . S
C1885 C1886 1.502 . S
C1885 C1887 1.561 . S
C1885 C1888 1.526 . S
C1886 H1870 0.959 . S
C1886 H1871 0.959 . S
C1886 H1872 0.961 . S
C1886 C1885 1.502 . S
C1887 H1873 0.960 . S
C1887 H1874 0.961 . S
C1887 H1875 0.959 . S
C1887 C1885 1.561 . S
C1888 C1885 1.526 . S
C1888 C1889 1.396 . S
C1888 C1893 1.390 . S
C1889 C1883 1.465 . S
C1889 C1888 1.396 . S
C1889 C1890 1.399 . S
C1890 H1876 0.929 . S
C1890 C1889 1.399 . S
C1890 C1891 1.385 . S
C1891 H1877 0.931 . S
C1891 C1890 1.385 . S
C1891 C1892 1.389 . S
C1892 C1891 1.389 . S
C1892 C1893 1.387 . S
C1893 H1878 0.930 . S
C1893 C1888 1.390 . S
C1893 C1892 1.387 . S
H1894 C1906 0.930 . S
H1895 C1908 0.930 . S
H1896 C1909 0.930 . S
H1897 C1913 0.959 . S
H1898 C1913 0.959 . S
H1899 C1913 0.961 . S
H1900 C1914 0.960 . S
H1901 C1914 0.961 . S
H1902 C1914 0.959 . S
H1903 C1917 0.929 . S
H1904 C1918 0.931 1_565 S
H1905 C1920 0.930 . S
C1906 H1894 0.930 . S
C1906 C1907 1.399 . S
C1906 C1911 1.399 . S
C1907 C1906 1.399 . S
C1907 C1908 1.376 1_545 S
C1908 H1895 0.930 . S
C1908 C1907 1.376 1_565 S
C1908 C1909 1.388 . S
C1909 H1896 0.930 . S
C1909 C1908 1.388 . S
C1909 C1910 1.390 1_565 S
C1910 C1909 1.390 1_545 S
C1910 C1911 1.394 . S
C1910 C1916 1.465 . S
C1911 C1906 1.399 . S
C1911 C1910 1.394 . S
C1911 C1912 1.516 . S
C1912 C1911 1.516 . S
C1912 C1913 1.502 . S
C1912 C1914 1.561 . S
C1912 C1915 1.526 . S
C1913 H1897 0.959 . S
C1913 H1898 0.959 . S
C1913 H1899 0.961 . S
C1913 C1912 1.502 . S
C1914 H1900 0.960 . S
C1914 H1901 0.961 . S
C1914 H1902 0.959 . S
C1914 C1912 1.561 . S
C1915 C1912 1.526 . S
C1915 C1916 1.396 . S
C1915 C1920 1.390 . S
C1916 C1910 1.465 . S
C1916 C1915 1.396 . S
C1916 C1917 1.399 1_545 S
C1917 H1903 0.929 . S
C1917 C1916 1.399 1_565 S
C1917 C1918 1.385 1_565 S
C1918 H1904 0.931 1_545 S
C1918 C1917 1.385 1_545 S
C1918 C1919 1.389 . S
C1919 C1918 1.389 . S
C1919 C1920 1.387 . S
C1920 H1905 0.930 . S
C1920 C1915 1.390 . S
C1920 C1919 1.387 . S
H1921 C1933 0.930 . S
H1922 C1935 0.930 . S
H1923 C1936 0.930 . S
H1924 C1940 0.959 . S
H1925 C1940 0.959 . S
H1926 C1940 0.961 . S
H1927 C1941 0.960 . S
H1928 C1941 0.961 . S
H1929 C1941 0.959 . S
H1930 C1944 0.929 . S
H1931 C1945 0.931 . S
H1932 C1947 0.930 . S
C1933 H1921 0.930 . S
C1933 C1934 1.399 . S
C1933 C1938 1.399 . S
C1934 C1933 1.399 . S
C1934 C1935 1.376 . S
C1935 H1922 0.930 . S
C1935 C1934 1.376 . S
C1935 C1936 1.388 . S
C1936 H1923 0.930 . S
C1936 C1935 1.388 . S
C1936 C1937 1.390 . S
C1937 C1936 1.390 . S
C1937 C1938 1.394 . S
C1937 C1943 1.465 . S
C1938 C1933 1.399 . S
C1938 C1937 1.394 . S
C1938 C1939 1.516 . S
C1939 C1938 1.516 . S
C1939 C1940 1.502 . S
C1939 C1941 1.561 . S
C1939 C1942 1.526 . S
C1940 H1924 0.959 . S
C1940 H1925 0.959 . S
C1940 H1926 0.961 . S
C1940 C1939 1.502 . S
C1941 H1927 0.960 . S
C1941 H1928 0.961 . S
C1941 H1929 0.959 . S
C1941 C1939 1.561 . S
C1942 C1939 1.526 . S
C1942 C1943 1.396 . S
C1942 C1947 1.390 . S
C1943 C1937 1.465 . S
C1943 C1942 1.396 . S
C1943 C1944 1.399 . S
C1944 H1930 0.929 . S
C1944 C1943 1.399 . S
C1944 C1945 1.385 . S
C1945 H1931 0.931 . S
C1945 C1944 1.385 . S
C1945 C1946 1.389 . S
C1946 C1945 1.389 . S
C1946 C1947 1.387 . S
C1947 H1932 0.930 . S
C1947 C1942 1.390 . S
C1947 C1946 1.387 . S
H1948 C1960 0.930 . S
H1949 C1962 0.930 . S
H1950 C1963 0.930 . S
H1951 C1967 0.959 1_545 S
H1952 C1967 0.959 . S
H1953 C1967 0.961 . S
H1954 C1968 0.960 . S
H1955 C1968 0.961 . S
H1956 C1968 0.959 . S
H1957 C1971 0.929 . S
H1958 C1972 0.931 . S
H1959 C1974 0.930 1_565 S
C1960 H1948 0.930 . S
C1960 C1961 1.399 1_565 S
C1960 C1965 1.399 . S
C1961 C1960 1.399 1_545 S
C1961 C1962 1.376 . S
C1962 H1949 0.930 . S
C1962 C1961 1.376 . S
C1962 C1963 1.388 . S
C1963 H1950 0.930 . S
C1963 C1962 1.388 . S
C1963 C1964 1.390 . S
C1964 C1963 1.390 . S
C1964 C1965 1.394 1_545 S
C1964 C1970 1.465 . S
C1965 C1960 1.399 . S
C1965 C1964 1.394 1_565 S
C1965 C1966 1.516 . S
C1966 C1965 1.516 . S
C1966 C1967 1.502 . S
C1966 C1968 1.561 . S
C1966 C1969 1.526 1_565 S
C1967 H1951 0.959 1_565 S
C1967 H1952 0.959 . S
C1967 H1953 0.961 . S
C1967 C1966 1.502 . S
C1968 H1954 0.960 . S
C1968 H1955 0.961 . S
C1968 H1956 0.959 . S
C1968 C1966 1.561 . S
C1969 C1966 1.526 1_545 S
C1969 C1970 1.396 . S
C1969 C1974 1.390 . S
C1970 C1964 1.465 . S
C1970 C1969 1.396 . S
C1970 C1971 1.399 . S
C1971 H1957 0.929 . S
C1971 C1970 1.399 . S
C1971 C1972 1.385 . S
C1972 H1958 0.931 . S
C1972 C1971 1.385 . S
C1972 C1973 1.389 . S
C1973 C1972 1.389 . S
C1973 C1974 1.387 . S
C1974 H1959 0.930 1_545 S
C1974 C1969 1.390 . S
C1974 C1973 1.387 . S
H1975 C1987 0.930 . S
H1976 C1989 0.930 . S
H1977 C1990 0.930 . S
H1978 C1994 0.959 . S
H1979 C1994 0.959 . S
H1980 C1994 0.961 . S
H1981 C1995 0.960 . S
H1982 C1995 0.961 . S
H1983 C1995 0.959 . S
H1984 C1998 0.929 . S
H1985 C1999 0.931 . S
H1986 C2001 0.930 . S
C1987 H1975 0.930 . S
C1987 C1988 1.399 . S
C1987 C1992 1.399 . S
C1988 C1987 1.399 . S
C1988 C1989 1.376 . S
C1989 H1976 0.930 . S
C1989 C1988 1.376 . S
C1989 C1990 1.388 . S
C1990 H1977 0.930 . S
C1990 C1989 1.388 . S
C1990 C1991 1.390 . S
C1991 C1990 1.390 . S
C1991 C1992 1.394 . S
C1991 C1997 1.465 . S
C1992 C1987 1.399 . S
C1992 C1991 1.394 . S
C1992 C1993 1.516 . S
C1993 C1992 1.516 . S
C1993 C1994 1.502 . S
C1993 C1995 1.561 . S
C1993 C1996 1.526 . S
C1994 H1978 0.959 . S
C1994 H1979 0.959 . S
C1994 H1980 0.961 . S
C1994 C1993 1.502 . S
C1995 H1981 0.960 . S
C1995 H1982 0.961 . S
C1995 H1983 0.959 . S
C1995 C1993 1.561 . S
C1996 C1993 1.526 . S
C1996 C1997 1.396 . S
C1996 C2001 1.390 . S
C1997 C1991 1.465 . S
C1997 C1996 1.396 . S
C1997 C1998 1.399 . S
C1998 H1984 0.929 . S
C1998 C1997 1.399 . S
C1998 C1999 1.385 . S
C1999 H1985 0.931 . S
C1999 C1998 1.385 . S
C1999 C2000 1.389 . S
C2000 C1999 1.389 . S
C2000 C2001 1.387 . S
C2001 H1986 0.930 . S
C2001 C1996 1.390 . S
C2001 C2000 1.387 . S
H2002 C2014 0.930 . S
H2003 C2016 0.930 . S
H2004 C2017 0.930 . S
H2005 C2021 0.959 . S
H2006 C2021 0.959 . S
H2007 C2021 0.961 . S
H2008 C2022 0.960 . S
H2009 C2022 0.961 . S
H2010 C2022 0.959 . S
H2011 C2025 0.929 . S
H2012 C2026 0.931 . S
H2013 C2028 0.930 . S
C2014 H2002 0.930 . S
C2014 C2015 1.399 1_565 S
C2014 C2019 1.399 . S
C2015 C2014 1.399 1_545 S
C2015 C2016 1.376 . S
C2016 H2003 0.930 . S
C2016 C2015 1.376 . S
C2016 C2017 1.388 . S
C2017 H2004 0.930 . S
C2017 C2016 1.388 . S
C2017 C2018 1.392 . S
C2018 C2017 1.392 . S
C2018 C2019 1.391 1_545 S
C2018 C2024 1.465 1_545 S
C2019 C2014 1.399 . S
C2019 C2018 1.391 1_565 S
C2019 C2020 1.516 . S
C2020 C2019 1.516 . S
C2020 C2021 1.502 . S
C2020 C2022 1.561 . S
C2020 C2023 1.526 . S
C2021 H2005 0.959 . S
C2021 H2006 0.959 . S
C2021 H2007 0.961 . S
C2021 C2020 1.502 . S
C2022 H2008 0.960 . S
C2022 H2009 0.961 . S
C2022 H2010 0.959 . S
C2022 C2020 1.561 . S
C2023 C2020 1.526 . S
C2023 C2024 1.396 . S
C2023 C2028 1.390 . S
C2024 C2018 1.465 1_565 S
C2024 C2023 1.396 . S
C2024 C2025 1.399 1_565 S
C2025 H2011 0.929 . S
C2025 C2024 1.399 1_545 S
C2025 C2026 1.385 . S
C2026 H2012 0.931 . S
C2026 C2025 1.385 . S
C2026 C2027 1.389 1_545 S
C2027 C2026 1.389 1_565 S
C2027 C2028 1.387 . S
C2028 H2013 0.930 . S
C2028 C2023 1.390 . S
C2028 C2027 1.387 . S
H2029 C2041 0.930 . S
H2030 C2043 0.930 . S
H2031 C2044 0.930 . S
H2032 C2048 0.959 . S
H2033 C2048 0.959 . S
H2034 C2048 0.961 . S
H2035 C2049 0.960 . S
H2036 C2049 0.961 . S
H2037 C2049 0.959 . S
H2038 C2052 0.929 . S
H2039 C2053 0.931 . S
H2040 C2055 0.930 . S
C2041 H2029 0.930 . S
C2041 C2042 1.399 . S
C2041 C2046 1.399 . S
C2042 C2041 1.399 . S
C2042 C2043 1.376 . S
C2043 H2030 0.930 . S
C2043 C2042 1.376 . S
C2043 C2044 1.388 . S
C2044 H2031 0.930 . S
C2044 C2043 1.388 . S
C2044 C2045 1.390 . S
C2045 C2044 1.390 . S
C2045 C2046 1.394 . S
C2045 C2051 1.465 . S
C2046 C2041 1.399 . S
C2046 C2045 1.394 . S
C2046 C2047 1.516 . S
C2047 C2046 1.516 . S
C2047 C2048 1.502 . S
C2047 C2049 1.561 . S
C2047 C2050 1.526 . S
C2048 H2032 0.959 . S
C2048 H2033 0.959 . S
C2048 H2034 0.961 . S
C2048 C2047 1.502 . S
C2049 H2035 0.960 . S
C2049 H2036 0.961 . S
C2049 H2037 0.959 . S
C2049 C2047 1.561 . S
C2050 C2047 1.526 . S
C2050 C2051 1.396 . S
C2050 C2055 1.390 . S
C2051 C2045 1.465 . S
C2051 C2050 1.396 . S
C2051 C2052 1.399 . S
C2052 H2038 0.929 . S
C2052 C2051 1.399 . S
C2052 C2053 1.385 . S
C2053 H2039 0.931 . S
C2053 C2052 1.385 . S
C2053 C2054 1.389 . S
C2054 C2053 1.389 . S
C2054 C2055 1.387 . S
C2055 H2040 0.930 . S
C2055 C2050 1.390 . S
C2055 C2054 1.387 . S
H2056 C2068 0.930 . S
H2057 C2070 0.944 . S
H2058 C2071 0.930 . S
H2059 C2075 0.959 . S
H2060 C2075 0.959 . S
H2061 C2075 0.961 . S
H2062 C2076 0.960 . S
H2063 C2076 0.961 . S
H2064 C2076 0.948 1_556 S
H2065 C2079 0.929 . S
H2066 C2080 0.931 . S
H2067 C2082 0.943 . S
C2068 H2056 0.930 . S
C2068 C2069 1.399 . S
C2068 C2073 1.399 . S
C2069 C2068 1.399 . S
C2069 C2070 1.376 . S
C2070 H2057 0.944 . S
C2070 C2069 1.376 . S
C2070 C2071 1.388 1_554 S
C2071 H2058 0.930 . S
C2071 C2070 1.388 1_556 S
C2071 C2072 1.382 1_556 S
C2072 C2071 1.382 1_554 S
C2072 C2073 1.413 . S
C2072 C2078 1.457 1_554 S
C2073 C2068 1.399 . S
C2073 C2072 1.413 . S
C2073 C2074 1.516 . S
C2074 C2073 1.516 . S
C2074 C2075 1.502 . S
C2074 C2076 1.561 . S
C2074 C2077 1.526 . S
C2075 H2059 0.959 . S
C2075 H2060 0.959 . S
C2075 H2061 0.961 . S
C2075 C2074 1.502 . S
C2076 H2062 0.960 . S
C2076 H2063 0.961 . S
C2076 H2064 0.948 1_554 S
C2076 C2074 1.561 . S
C2077 C2074 1.526 . S
C2077 C2078 1.396 1_554 S
C2077 C2082 1.394 . S
C2078 C2072 1.457 1_556 S
C2078 C2077 1.396 1_556 S
C2078 C2079 1.399 . S
C2079 H2065 0.929 . S
C2079 C2078 1.399 . S
C2079 C2080 1.385 . S
C2080 H2066 0.931 . S
C2080 C2079 1.385 . S
C2080 C2081 1.389 . S
C2081 C2080 1.389 . S
C2081 C2082 1.370 1_556 S
C2082 H2067 0.943 . S
C2082 C2077 1.394 . S
C2082 C2081 1.370 1_554 S
H2083 C2095 0.930 . S
H2084 C2097 0.930 1_556 S
H2085 C2098 0.930 1_556 S
H2086 C2102 0.959 . S
H2087 C2102 0.959 . S
H2088 C2102 0.961 . S
H2089 C2103 0.960 . S
H2090 C2103 0.961 . S
H2091 C2103 0.959 . S
H2092 C2106 0.929 1_556 S
H2093 C2107 0.931 1_556 S
H2094 C2109 0.930 . S
C2095 H2083 0.930 . S
C2095 C2096 1.399 . S
C2095 C2100 1.399 . S
C2096 C2095 1.399 . S
C2096 C2097 1.376 . S
C2097 H2084 0.930 1_554 S
C2097 C2096 1.376 . S
C2097 C2098 1.388 . S
C2098 H2085 0.930 1_554 S
C2098 C2097 1.388 . S
C2098 C2099 1.390 . S
C2099 C2098 1.390 . S
C2099 C2100 1.394 . S
C2099 C2105 1.465 . S
C2100 C2095 1.399 . S
C2100 C2099 1.394 . S
C2100 C2101 1.516 . S
C2101 C2100 1.516 . S
C2101 C2102 1.502 . S
C2101 C2103 1.561 . S
C2101 C2104 1.526 . S
C2102 H2086 0.959 . S
C2102 H2087 0.959 . S
C2102 H2088 0.961 . S
C2102 C2101 1.502 . S
C2103 H2089 0.960 . S
C2103 H2090 0.961 . S
C2103 H2091 0.959 . S
C2103 C2101 1.561 . S
C2104 C2101 1.526 . S
C2104 C2105 1.396 . S
C2104 C2109 1.390 . S
C2105 C2099 1.465 . S
C2105 C2104 1.396 . S
C2105 C2106 1.399 . S
C2106 H2092 0.929 1_554 S
C2106 C2105 1.399 . S
C2106 C2107 1.385 . S
C2107 H2093 0.931 1_554 S
C2107 C2106 1.385 . S
C2107 C2108 1.389 . S
C2108 C2107 1.389 . S
C2108 C2109 1.387 . S
C2109 H2094 0.930 . S
C2109 C2104 1.390 . S
C2109 C2108 1.387 . S
H2110 C2122 0.930 . S
H2111 C2124 0.930 . S
H2112 C2125 0.930 . S
H2113 C2129 0.959 . S
H2114 C2129 0.959 . S
H2115 C2129 0.961 . S
H2116 C2130 0.960 . S
H2117 C2130 0.961 . S
H2118 C2130 0.959 . S
H2119 C2133 0.929 . S
H2120 C2134 0.931 . S
H2121 C2136 0.930 . S
C2122 H2110 0.930 . S
C2122 C2123 1.399 . S
C2122 C2127 1.399 . S
C2123 C2122 1.399 . S
C2123 C2124 1.376 . S
C2124 H2111 0.930 . S
C2124 C2123 1.376 . S
C2124 C2125 1.388 . S
C2125 H2112 0.930 . S
C2125 C2124 1.388 . S
C2125 C2126 1.390 . S
C2126 C2125 1.390 . S
C2126 C2127 1.394 . S
C2126 C2132 1.465 . S
C2127 C2122 1.399 . S
C2127 C2126 1.394 . S
C2127 C2128 1.516 . S
C2128 C2127 1.516 . S
C2128 C2129 1.502 . S
C2128 C2130 1.561 . S
C2128 C2131 1.526 . S
C2129 H2113 0.959 . S
C2129 H2114 0.959 . S
C2129 H2115 0.961 . S
C2129 C2128 1.502 . S
C2130 H2116 0.960 . S
C2130 H2117 0.961 . S
C2130 H2118 0.959 . S
C2130 C2128 1.561 . S
C2131 C2128 1.526 . S
C2131 C2132 1.396 . S
C2131 C2136 1.390 . S
C2132 C2126 1.465 . S
C2132 C2131 1.396 . S
C2132 C2133 1.399 . S
C2133 H2119 0.929 . S
C2133 C2132 1.399 . S
C2133 C2134 1.385 . S
C2134 H2120 0.931 . S
C2134 C2133 1.385 . S
C2134 C2135 1.389 . S
C2135 C2134 1.389 . S
C2135 C2136 1.387 . S
C2136 H2121 0.930 . S
C2136 C2131 1.390 . S
C2136 C2135 1.387 . S
H2137 C2149 0.930 . S
H2138 C2151 0.930 . S
H2139 C2152 0.930 . S
H2140 C2156 0.959 . S
H2141 C2156 0.959 . S
H2142 C2156 0.961 . S
H2143 C2157 0.960 . S
H2144 C2157 0.961 . S
H2145 C2157 0.959 . S
H2146 C2160 0.929 . S
H2147 C2161 0.931 . S
H2148 C2163 0.930 . S
C2149 H2137 0.930 . S
C2149 C2150 1.399 . S
C2149 C2154 1.399 . S
C2150 C2149 1.399 . S
C2150 C2151 1.376 . S
C2151 H2138 0.930 . S
C2151 C2150 1.376 . S
C2151 C2152 1.388 . S
C2152 H2139 0.930 . S
C2152 C2151 1.388 . S
C2152 C2153 1.390 . S
C2153 C2152 1.390 . S
C2153 C2154 1.394 . S
C2153 C2159 1.465 . S
C2154 C2149 1.399 . S
C2154 C2153 1.394 . S
C2154 C2155 1.516 . S
C2155 C2154 1.516 . S
C2155 C2156 1.502 . S
C2155 C2157 1.561 . S
C2155 C2158 1.526 . S
C2156 H2140 0.959 . S
C2156 H2141 0.959 . S
C2156 H2142 0.961 . S
C2156 C2155 1.502 . S
C2157 H2143 0.960 . S
C2157 H2144 0.961 . S
C2157 H2145 0.959 . S
C2157 C2155 1.561 . S
C2158 C2155 1.526 . S
C2158 C2159 1.396 . S
C2158 C2163 1.390 . S
C2159 C2153 1.465 . S
C2159 C2158 1.396 . S
C2159 C2160 1.399 . S
C2160 H2146 0.929 . S
C2160 C2159 1.399 . S
C2160 C2161 1.385 . S
C2161 H2147 0.931 . S
C2161 C2160 1.385 . S
C2161 C2162 1.389 . S
C2162 C2161 1.389 . S
C2162 C2163 1.387 . S
C2163 H2148 0.930 . S
C2163 C2158 1.390 . S
C2163 C2162 1.387 . S
H2164 C2176 0.930 . S
H2165 C2178 0.930 . S
H2166 C2179 0.930 . S
H2167 C2183 0.959 . S
H2168 C2183 0.959 . S
H2169 C2183 0.961 . S
H2170 C2184 0.960 . S
H2171 C2184 0.961 . S
H2172 C2184 0.959 . S
H2173 C2187 0.929 . S
H2174 C2188 0.931 . S
H2175 C2190 0.930 . S
C2176 H2164 0.930 . S
C2176 C2177 1.399 1_545 S
C2176 C2181 1.399 1_545 S
C2177 C2176 1.399 1_565 S
C2177 C2178 1.376 . S
C2178 H2165 0.930 . S
C2178 C2177 1.376 . S
C2178 C2179 1.388 . S
C2179 H2166 0.930 . S
C2179 C2178 1.388 . S
C2179 C2180 1.390 . S
C2180 C2179 1.390 . S
C2180 C2181 1.394 . S
C2180 C2186 1.465 . S
C2181 C2176 1.399 1_565 S
C2181 C2180 1.394 . S
C2181 C2182 1.516 . S
C2182 C2181 1.516 . S
C2182 C2183 1.502 1_565 S
C2182 C2184 1.561 . S
C2182 C2185 1.526 . S
C2183 H2167 0.959 . S
C2183 H2168 0.959 . S
C2183 H2169 0.961 . S
C2183 C2182 1.502 1_545 S
C2184 H2170 0.960 . S
C2184 H2171 0.961 . S
C2184 H2172 0.959 . S
C2184 C2182 1.561 . S
C2185 C2182 1.526 . S
C2185 C2186 1.396 . S
C2185 C2190 1.390 . S
C2186 C2180 1.465 . S
C2186 C2185 1.396 . S
C2186 C2187 1.399 . S
C2187 H2173 0.929 . S
C2187 C2186 1.399 . S
C2187 C2188 1.385 . S
C2188 H2174 0.931 . S
C2188 C2187 1.385 . S
C2188 C2189 1.389 . S
C2189 C2188 1.389 . S
C2189 C2190 1.387 . S
C2190 H2175 0.930 . S
C2190 C2185 1.390 . S
C2190 C2189 1.387 . S
H2191 C2203 0.930 . S
H2192 C2205 0.930 . S
H2193 C2206 0.930 . S
H2194 C2210 0.959 . S
H2195 C2210 0.959 . S
H2196 C2210 0.961 . S
H2197 C2211 0.960 . S
H2198 C2211 0.961 . S
H2199 C2211 0.959 . S
H2200 C2214 0.929 . S
H2201 C2215 0.931 . S
H2202 C2217 0.930 . S
C2203 H2191 0.930 . S
C2203 C2204 1.399 . S
C2203 C2208 1.399 . S
C2204 C2203 1.399 . S
C2204 C2205 1.376 . S
C2205 H2192 0.930 . S
C2205 C2204 1.376 . S
C2205 C2206 1.388 . S
C2206 H2193 0.930 . S
C2206 C2205 1.388 . S
C2206 C2207 1.390 . S
C2207 C2206 1.390 . S
C2207 C2208 1.394 . S
C2207 C2213 1.465 . S
C2208 C2203 1.399 . S
C2208 C2207 1.394 . S
C2208 C2209 1.516 . S
C2209 C2208 1.516 . S
C2209 C2210 1.502 . S
C2209 C2211 1.561 . S
C2209 C2212 1.526 . S
C2210 H2194 0.959 . S
C2210 H2195 0.959 . S
C2210 H2196 0.961 . S
C2210 C2209 1.502 . S
C2211 H2197 0.960 . S
C2211 H2198 0.961 . S
C2211 H2199 0.959 . S
C2211 C2209 1.561 . S
C2212 C2209 1.526 . S
C2212 C2213 1.396 . S
C2212 C2217 1.390 . S
C2213 C2207 1.465 . S
C2213 C2212 1.396 . S
C2213 C2214 1.399 . S
C2214 H2200 0.929 . S
C2214 C2213 1.399 . S
C2214 C2215 1.385 . S
C2215 H2201 0.931 . S
C2215 C2214 1.385 . S
C2215 C2216 1.389 . S
C2216 C2215 1.389 . S
C2216 C2217 1.387 . S
C2217 H2202 0.930 . S
C2217 C2212 1.390 . S
C2217 C2216 1.387 . S
H2218 C2230 0.930 . S
H2219 C2232 0.930 . S
H2220 C2233 0.930 . S
H2221 C2237 0.959 . S
H2222 C2237 0.959 . S
H2223 C2237 0.961 . S
H2224 C2238 0.960 . S
H2225 C2238 0.961 . S
H2226 C2238 0.959 . S
H2227 C2241 0.929 . S
H2228 C2242 0.931 . S
H2229 C2244 0.930 . S
C2230 H2218 0.930 . S
C2230 C2231 1.399 . S
C2230 C2235 1.399 . S
C2231 C2230 1.399 . S
C2231 C2232 1.376 . S
C2232 H2219 0.930 . S
C2232 C2231 1.376 . S
C2232 C2233 1.388 . S
C2233 H2220 0.930 . S
C2233 C2232 1.388 . S
C2233 C2234 1.390 . S
C2234 C2233 1.390 . S
C2234 C2235 1.394 . S
C2234 C2240 1.465 . S
C2235 C2230 1.399 . S
C2235 C2234 1.394 . S
C2235 C2236 1.516 . S
C2236 C2235 1.516 . S
C2236 C2237 1.502 . S
C2236 C2238 1.561 . S
C2236 C2239 1.526 . S
C2237 H2221 0.959 . S
C2237 H2222 0.959 . S
C2237 H2223 0.961 . S
C2237 C2236 1.502 . S
C2238 H2224 0.960 . S
C2238 H2225 0.961 . S
C2238 H2226 0.959 . S
C2238 C2236 1.561 . S
C2239 C2236 1.526 . S
C2239 C2240 1.396 . S
C2239 C2244 1.390 . S
C2240 C2234 1.465 . S
C2240 C2239 1.396 . S
C2240 C2241 1.399 . S
C2241 H2227 0.929 . S
C2241 C2240 1.399 . S
C2241 C2242 1.385 . S
C2242 H2228 0.931 . S
C2242 C2241 1.385 . S
C2242 C2243 1.389 . S
C2243 C2242 1.389 . S
C2243 C2244 1.387 . S
C2244 H2229 0.930 . S
C2244 C2239 1.390 . S
C2244 C2243 1.387 . S
H2245 C2257 0.930 . S
H2246 C2259 0.930 . S
H2247 C2260 0.930 . S
H2248 C2264 0.959 . S
H2249 C2264 0.959 . S
H2250 C2264 0.961 . S
H2251 C2265 0.960 . S
H2252 C2265 0.961 . S
H2253 C2265 0.959 . S
H2254 C2268 0.929 . S
H2255 C2269 0.931 . S
H2256 C2271 0.930 . S
C2257 H2245 0.930 . S
C2257 C2258 1.399 . S
C2257 C2262 1.399 . S
C2258 C2257 1.399 . S
C2258 C2259 1.376 . S
C2259 H2246 0.930 . S
C2259 C2258 1.376 . S
C2259 C2260 1.388 . S
C2260 H2247 0.930 . S
C2260 C2259 1.388 . S
C2260 C2261 1.390 . S
C2261 C2260 1.390 . S
C2261 C2262 1.394 . S
C2261 C2267 1.465 . S
C2262 C2257 1.399 . S
C2262 C2261 1.394 . S
C2262 C2263 1.516 . S
C2263 C2262 1.516 . S
C2263 C2264 1.502 . S
C2263 C2265 1.561 . S
C2263 C2266 1.526 . S
C2264 H2248 0.959 . S
C2264 H2249 0.959 . S
C2264 H2250 0.961 . S
C2264 C2263 1.502 . S
C2265 H2251 0.960 . S
C2265 H2252 0.961 . S
C2265 H2253 0.959 . S
C2265 C2263 1.561 . S
C2266 C2263 1.526 . S
C2266 C2267 1.396 . S
C2266 C2271 1.390 . S
C2267 C2261 1.465 . S
C2267 C2266 1.396 . S
C2267 C2268 1.399 . S
C2268 H2254 0.929 . S
C2268 C2267 1.399 . S
C2268 C2269 1.385 . S
C2269 H2255 0.931 . S
C2269 C2268 1.385 . S
C2269 C2270 1.389 . S
C2270 C2269 1.389 . S
C2270 C2271 1.387 . S
C2271 H2256 0.930 . S
C2271 C2266 1.390 . S
C2271 C2270 1.387 . S
H2272 C2284 0.930 . S
H2273 C2286 0.930 . S
H2274 C2287 0.930 . S
H2275 C2291 0.959 . S
H2276 C2291 0.959 . S
H2277 C2291 0.961 . S
H2278 C2292 0.960 . S
H2279 C2292 0.961 . S
H2280 C2292 0.959 . S
H2281 C2295 0.929 . S
H2282 C2296 0.931 . S
H2283 C2298 0.930 . S
C2284 H2272 0.930 . S
C2284 C2285 1.399 . S
C2284 C2289 1.399 . S
C2285 C2284 1.399 . S
C2285 C2286 1.376 . S
C2286 H2273 0.930 . S
C2286 C2285 1.376 . S
C2286 C2287 1.388 . S
C2287 H2274 0.930 . S
C2287 C2286 1.388 . S
C2287 C2288 1.390 . S
C2288 C2287 1.390 . S
C2288 C2289 1.394 . S
C2288 C2294 1.465 . S
C2289 C2284 1.399 . S
C2289 C2288 1.394 . S
C2289 C2290 1.516 . S
C2290 C2289 1.516 . S
C2290 C2291 1.502 . S
C2290 C2292 1.561 . S
C2290 C2293 1.526 . S
C2291 H2275 0.959 . S
C2291 H2276 0.959 . S
C2291 H2277 0.961 . S
C2291 C2290 1.502 . S
C2292 H2278 0.960 . S
C2292 H2279 0.961 . S
C2292 H2280 0.959 . S
C2292 C2290 1.561 . S
C2293 C2290 1.526 . S
C2293 C2294 1.396 . S
C2293 C2298 1.390 . S
C2294 C2288 1.465 . S
C2294 C2293 1.396 . S
C2294 C2295 1.399 . S
C2295 H2281 0.929 . S
C2295 C2294 1.399 . S
C2295 C2296 1.385 . S
C2296 H2282 0.931 . S
C2296 C2295 1.385 . S
C2296 C2297 1.389 . S
C2297 C2296 1.389 . S
C2297 C2298 1.387 . S
C2298 H2283 0.930 . S
C2298 C2293 1.390 . S
C2298 C2297 1.387 . S
H2299 C2311 0.930 . S
H2300 C2313 0.930 . S
H2301 C2314 0.930 . S
H2302 C2318 0.959 . S
H2303 C2318 0.959 . S
H2304 C2318 0.961 . S
H2305 C2319 0.960 . S
H2306 C2319 0.961 . S
H2307 C2319 0.959 . S
H2308 C2322 0.929 . S
H2309 C2323 0.931 . S
H2310 C2325 0.930 . S
C2311 H2299 0.930 . S
C2311 C2312 1.399 . S
C2311 C2316 1.399 . S
C2312 C2311 1.399 . S
C2312 C2313 1.376 . S
C2313 H2300 0.930 . S
C2313 C2312 1.376 . S
C2313 C2314 1.388 . S
C2314 H2301 0.930 . S
C2314 C2313 1.388 . S
C2314 C2315 1.390 . S
C2315 C2314 1.390 . S
C2315 C2316 1.394 . S
C2315 C2321 1.465 . S
C2316 C2311 1.399 . S
C2316 C2315 1.394 . S
C2316 C2317 1.516 . S
C2317 C2316 1.516 . S
C2317 C2318 1.502 . S
C2317 C2319 1.561 . S
C2317 C2320 1.526 . S
C2318 H2302 0.959 . S
C2318 H2303 0.959 . S
C2318 H2304 0.961 . S
C2318 C2317 1.502 . S
C2319 H2305 0.960 . S
C2319 H2306 0.961 . S
C2319 H2307 0.959 . S
C2319 C2317 1.561 . S
C2320 C2317 1.526 . S
C2320 C2321 1.396 . S
C2320 C2325 1.390 . S
C2321 C2315 1.465 . S
C2321 C2320 1.396 . S
C2321 C2322 1.399 . S
C2322 H2308 0.929 . S
C2322 C2321 1.399 . S
C2322 C2323 1.385 . S
C2323 H2309 0.931 . S
C2323 C2322 1.385 . S
C2323 C2324 1.389 . S
C2324 C2323 1.389 . S
C2324 C2325 1.387 . S
C2325 H2310 0.930 . S
C2325 C2320 1.390 . S
C2325 C2324 1.387 . S
H2326 C2338 0.930 . S
H2327 C2340 0.930 . S
H2328 C2341 0.930 . S
H2329 C2345 0.959 1_655 S
H2330 C2345 0.959 . S
H2331 C2345 0.961 1_655 S
H2332 C2346 0.960 . S
H2333 C2346 0.961 . S
H2334 C2346 0.959 . S
H2335 C2349 0.929 . S
H2336 C2350 0.931 . S
H2337 C2352 0.930 . S
C2338 H2326 0.930 . S
C2338 C2339 1.399 . S
C2338 C2343 1.399 . S
C2339 C2338 1.399 . S
C2339 C2340 1.376 . S
C2340 H2327 0.930 . S
C2340 C2339 1.376 . S
C2340 C2341 1.388 . S
C2341 H2328 0.930 . S
C2341 C2340 1.388 . S
C2341 C2342 1.390 . S
C2342 C2341 1.390 . S
C2342 C2343 1.394 . S
C2342 C2348 1.465 . S
C2343 C2338 1.399 . S
C2343 C2342 1.394 . S
C2343 C2344 1.516 1_556 S
C2344 C2343 1.516 1_554 S
C2344 C2345 1.502 . S
C2344 C2346 1.561 . S
C2344 C2347 1.526 . S
C2345 H2329 0.959 1_455 S
C2345 H2330 0.959 . S
C2345 H2331 0.961 1_455 S
C2345 C2344 1.502 . S
C2346 H2332 0.960 . S
C2346 H2333 0.961 . S
C2346 H2334 0.959 . S
C2346 C2344 1.561 . S
C2347 C2344 1.526 . S
C2347 C2348 1.396 1_554 S
C2347 C2352 1.390 . S
C2348 C2342 1.465 . S
C2348 C2347 1.396 1_556 S
C2348 C2349 1.399 . S
C2349 H2335 0.929 . S
C2349 C2348 1.399 . S
C2349 C2350 1.385 1_556 S
C2350 H2336 0.931 . S
C2350 C2349 1.385 1_554 S
C2350 C2351 1.389 . S
C2351 C2350 1.389 . S
C2351 C2352 1.387 . S
C2352 H2337 0.930 . S
C2352 C2347 1.390 . S
C2352 C2351 1.387 . S
H2353 C2365 0.930 . S
H2354 C2367 0.935 . S
H2355 C2368 0.930 . S
H2356 C2372 0.959 . S
H2357 C2372 0.959 . S
H2358 C2372 0.961 1_455 S
H2359 C2373 0.960 1_455 S
H2360 C2373 0.961 . S
H2361 C2373 0.959 . S
H2362 C2376 0.929 . S
H2363 C2377 0.931 . S
H2364 C2379 0.930 . S
C2365 H2353 0.930 . S
C2365 C2366 1.399 . S
C2365 C2370 1.399 1_455 S
C2366 C2365 1.399 . S
C2366 C2367 1.394 . S
C2367 H2354 0.935 . S
C2367 C2366 1.394 . S
C2367 C2368 1.367 1_455 S
C2368 H2355 0.930 . S
C2368 C2367 1.367 1_655 S
C2368 C2369 1.390 . S
C2369 C2368 1.390 . S
C2369 C2370 1.394 . S
C2369 C2375 1.465 . S
C2370 C2365 1.399 1_655 S
C2370 C2369 1.394 . S
C2370 C2371 1.516 . S
C2371 C2370 1.516 . S
C2371 C2372 1.502 . S
C2371 C2373 1.561 . S
C2371 C2374 1.526 . S
C2372 H2356 0.959 . S
C2372 H2357 0.959 . S
C2372 H2358 0.961 1_655 S
C2372 C2371 1.502 . S
C2373 H2359 0.960 1_655 S
C2373 H2360 0.961 . S
C2373 H2361 0.959 . S
C2373 C2371 1.561 . S
C2374 C2371 1.526 . S
C2374 C2375 1.396 . S
C2374 C2379 1.390 . S
C2375 C2369 1.465 . S
C2375 C2374 1.396 . S
C2375 C2376 1.399 . S
C2376 H2362 0.929 . S
C2376 C2375 1.399 . S
C2376 C2377 1.385 . S
C2377 H2363 0.931 . S
C2377 C2376 1.385 . S
C2377 C2378 1.389 . S
C2378 C2377 1.389 . S
C2378 C2379 1.387 . S
C2379 H2364 0.930 . S
C2379 C2374 1.390 . S
C2379 C2378 1.387 . S
H2380 C2392 0.930 . S
H2381 C2394 0.930 . S
H2382 C2395 0.930 . S
H2383 C2399 0.959 . S
H2384 C2399 0.959 . S
H2385 C2399 0.961 . S
H2386 C2400 0.960 . S
H2387 C2400 0.961 . S
H2388 C2400 0.959 . S
H2389 C2403 0.929 . S
H2390 C2404 0.931 . S
H2391 C2406 0.930 . S
C2392 H2380 0.930 . S
C2392 C2393 1.399 . S
C2392 C2397 1.399 . S
C2393 C2392 1.399 . S
C2393 C2394 1.376 . S
C2394 H2381 0.930 . S
C2394 C2393 1.376 . S
C2394 C2395 1.388 . S
C2395 H2382 0.930 . S
C2395 C2394 1.388 . S
C2395 C2396 1.390 . S
C2396 C2395 1.390 . S
C2396 C2397 1.394 . S
C2396 C2402 1.465 . S
C2397 C2392 1.399 . S
C2397 C2396 1.394 . S
C2397 C2398 1.516 . S
C2398 C2397 1.516 . S
C2398 C2399 1.502 . S
C2398 C2400 1.561 . S
C2398 C2401 1.526 . S
C2399 H2383 0.959 . S
C2399 H2384 0.959 . S
C2399 H2385 0.961 . S
C2399 C2398 1.502 . S
C2400 H2386 0.960 . S
C2400 H2387 0.961 . S
C2400 H2388 0.959 . S
C2400 C2398 1.561 . S
C2401 C2398 1.526 . S
C2401 C2402 1.396 . S
C2401 C2406 1.390 . S
C2402 C2396 1.465 . S
C2402 C2401 1.396 . S
C2402 C2403 1.399 . S
C2403 H2389 0.929 . S
C2403 C2402 1.399 . S
C2403 C2404 1.385 . S
C2404 H2390 0.931 . S
C2404 C2403 1.385 . S
C2404 C2405 1.389 . S
C2405 C2404 1.389 . S
C2405 C2406 1.387 . S
C2406 H2391 0.930 . S
C2406 C2401 1.390 . S
C2406 C2405 1.387 . S
H2407 C2419 0.930 . S
H2408 C2421 0.930 . S
H2409 C2422 0.930 . S
H2410 C2426 0.959 . S
H2411 C2426 0.959 . S
H2412 C2426 0.961 . S
H2413 C2427 0.960 1_455 S
H2414 C2427 0.961 . S
H2415 C2427 0.959 . S
H2416 C2430 0.929 . S
H2417 C2431 0.931 . S
H2418 C2433 0.930 . S
C2419 H2407 0.930 . S
C2419 C2420 1.399 . S
C2419 C2424 1.399 . S
C2420 C2419 1.399 . S
C2420 C2421 1.376 . S
C2421 H2408 0.930 . S
C2421 C2420 1.376 . S
C2421 C2422 1.388 . S
C2422 H2409 0.930 . S
C2422 C2421 1.388 . S
C2422 C2423 1.390 . S
C2423 C2422 1.390 . S
C2423 C2424 1.394 . S
C2423 C2429 1.465 1_455 S
C2424 C2419 1.399 . S
C2424 C2423 1.394 . S
C2424 C2425 1.516 . S
C2425 C2424 1.516 . S
C2425 C2426 1.502 . S
C2425 C2427 1.561 1_455 S
C2425 C2428 1.526 1_455 S
C2426 H2410 0.959 . S
C2426 H2411 0.959 . S
C2426 H2412 0.961 . S
C2426 C2425 1.502 . S
C2427 H2413 0.960 1_655 S
C2427 H2414 0.961 . S
C2427 H2415 0.959 . S
C2427 C2425 1.561 1_655 S
C2428 C2425 1.526 1_655 S
C2428 C2429 1.396 . S
C2428 C2433 1.390 . S
C2429 C2423 1.465 1_655 S
C2429 C2428 1.396 . S
C2429 C2430 1.399 . S
C2430 H2416 0.929 . S
C2430 C2429 1.399 . S
C2430 C2431 1.385 . S
C2431 H2417 0.931 . S
C2431 C2430 1.385 . S
C2431 C2432 1.389 . S
C2432 C2431 1.389 . S
C2432 C2433 1.387 . S
C2433 H2418 0.930 . S
C2433 C2428 1.390 . S
C2433 C2432 1.387 . S
H2434 C2446 0.930 . S
H2435 C2448 0.930 . S
H2436 C2449 0.930 1_655 S
H2437 C2453 0.959 . S
H2438 C2453 0.959 . S
H2439 C2453 0.961 . S
H2440 C2454 0.960 1_655 S
H2441 C2454 0.961 . S
H2442 C2454 0.959 1_655 S
H2443 C2457 0.929 . S
H2444 C2458 0.931 . S
H2445 C2460 0.930 . S
C2446 H2434 0.930 . S
C2446 C2447 1.399 1_455 S
C2446 C2451 1.399 . S
C2447 C2446 1.399 1_655 S
C2447 C2448 1.376 . S
C2448 H2435 0.930 . S
C2448 C2447 1.376 . S
C2448 C2449 1.388 1_655 S
C2449 H2436 0.930 1_455 S
C2449 C2448 1.388 1_455 S
C2449 C2450 1.390 . S
C2450 C2449 1.390 . S
C2450 C2451 1.394 . S
C2450 C2456 1.465 . S
C2451 C2446 1.399 . S
C2451 C2450 1.394 . S
C2451 C2452 1.516 . S
C2452 C2451 1.516 . S
C2452 C2453 1.502 . S
C2452 C2454 1.561 . S
C2452 C2455 1.526 . S
C2453 H2437 0.959 . S
C2453 H2438 0.959 . S
C2453 H2439 0.961 . S
C2453 C2452 1.502 . S
C2454 H2440 0.960 1_455 S
C2454 H2441 0.961 . S
C2454 H2442 0.959 1_455 S
C2454 C2452 1.561 . S
C2455 C2452 1.526 . S
C2455 C2456 1.396 . S
C2455 C2460 1.390 . S
C2456 C2450 1.465 . S
C2456 C2455 1.396 . S
C2456 C2457 1.399 . S
C2457 H2443 0.929 . S
C2457 C2456 1.399 . S
C2457 C2458 1.385 . S
C2458 H2444 0.931 . S
C2458 C2457 1.385 . S
C2458 C2459 1.389 . S
C2459 C2458 1.389 . S
C2459 C2460 1.387 . S
C2460 H2445 0.930 . S
C2460 C2455 1.390 . S
C2460 C2459 1.387 . S
H2461 C2473 0.930 . S
H2462 C2475 0.930 . S
H2463 C2476 0.930 . S
H2464 C2480 0.959 . S
H2465 C2480 0.959 . S
H2466 C2480 0.961 . S
H2467 C2481 0.960 . S
H2468 C2481 0.961 . S
H2469 C2481 0.959 . S
H2470 C2484 0.929 . S
H2471 C2485 0.931 . S
H2472 C2487 0.930 . S
C2473 H2461 0.930 . S
C2473 C2474 1.399 . S
C2473 C2478 1.399 . S
C2474 C2473 1.399 . S
C2474 C2475 1.376 . S
C2475 H2462 0.930 . S
C2475 C2474 1.376 . S
C2475 C2476 1.388 . S
C2476 H2463 0.930 . S
C2476 C2475 1.388 . S
C2476 C2477 1.390 . S
C2477 C2476 1.390 . S
C2477 C2478 1.394 . S
C2477 C2483 1.465 . S
C2478 C2473 1.399 . S
C2478 C2477 1.394 . S
C2478 C2479 1.516 . S
C2479 C2478 1.516 . S
C2479 C2480 1.502 . S
C2479 C2481 1.561 . S
C2479 C2482 1.526 . S
C2480 H2464 0.959 . S
C2480 H2465 0.959 . S
C2480 H2466 0.961 . S
C2480 C2479 1.502 . S
C2481 H2467 0.960 . S
C2481 H2468 0.961 . S
C2481 H2469 0.959 . S
C2481 C2479 1.561 . S
C2482 C2479 1.526 . S
C2482 C2483 1.396 . S
C2482 C2487 1.390 . S
C2483 C2477 1.465 . S
C2483 C2482 1.396 . S
C2483 C2484 1.399 . S
C2484 H2470 0.929 . S
C2484 C2483 1.399 . S
C2484 C2485 1.385 . S
C2485 H2471 0.931 . S
C2485 C2484 1.385 . S
C2485 C2486 1.389 . S
C2486 C2485 1.389 . S
C2486 C2487 1.387 . S
C2487 H2472 0.930 . S
C2487 C2482 1.390 . S
C2487 C2486 1.387 . S
H2488 C2500 0.930 . S
H2489 C2502 0.930 . S
H2490 C2503 0.930 . S
H2491 C2507 0.959 . S
H2492 C2507 0.959 . S
H2493 C2507 0.961 . S
H2494 C2508 0.960 . S
H2495 C2508 0.961 . S
H2496 C2508 0.959 . S
H2497 C2511 0.929 . S
H2498 C2512 0.931 . S
H2499 C2514 0.930 . S
C2500 H2488 0.930 . S
C2500 C2501 1.399 . S
C2500 C2505 1.399 . S
C2501 C2500 1.399 . S
C2501 C2502 1.376 . S
C2502 H2489 0.930 . S
C2502 C2501 1.376 . S
C2502 C2503 1.388 . S
C2503 H2490 0.930 . S
C2503 C2502 1.388 . S
C2503 C2504 1.390 . S
C2504 C2503 1.390 . S
C2504 C2505 1.394 . S
C2504 C2510 1.465 . S
C2505 C2500 1.399 . S
C2505 C2504 1.394 . S
C2505 C2506 1.516 . S
C2506 C2505 1.516 . S
C2506 C2507 1.502 . S
C2506 C2508 1.561 . S
C2506 C2509 1.526 . S
C2507 H2491 0.959 . S
C2507 H2492 0.959 . S
C2507 H2493 0.961 . S
C2507 C2506 1.502 . S
C2508 H2494 0.960 . S
C2508 H2495 0.961 . S
C2508 H2496 0.959 . S
C2508 C2506 1.561 . S
C2509 C2506 1.526 . S
C2509 C2510 1.396 . S
C2509 C2514 1.390 . S
C2510 C2504 1.465 . S
C2510 C2509 1.396 . S
C2510 C2511 1.399 . S
C2511 H2497 0.929 . S
C2511 C2510 1.399 . S
C2511 C2512 1.385 . S
C2512 H2498 0.931 . S
C2512 C2511 1.385 . S
C2512 C2513 1.389 . S
C2513 C2512 1.389 . S
C2513 C2514 1.387 . S
C2514 H2499 0.930 . S
C2514 C2509 1.390 . S
C2514 C2513 1.387 . S
H2515 C2527 0.930 . S
H2516 C2529 0.930 . S
H2517 C2530 0.930 . S
H2518 C2534 0.959 . S
H2519 C2534 0.959 . S
H2520 C2534 0.961 . S
H2521 C2535 0.960 . S
H2522 C2535 0.961 . S
H2523 C2535 0.959 . S
H2524 C2538 0.929 . S
H2525 C2539 0.931 . S
H2526 C2541 0.930 . S
C2527 H2515 0.930 . S
C2527 C2528 1.399 . S
C2527 C2532 1.399 . S
C2528 C2527 1.399 . S
C2528 C2529 1.376 . S
C2529 H2516 0.930 . S
C2529 C2528 1.376 . S
C2529 C2530 1.388 . S
C2530 H2517 0.930 . S
C2530 C2529 1.388 . S
C2530 C2531 1.390 . S
C2531 C2530 1.390 . S
C2531 C2532 1.394 . S
C2531 C2537 1.465 . S
C2532 C2527 1.399 . S
C2532 C2531 1.394 . S
C2532 C2533 1.516 . S
C2533 C2532 1.516 . S
C2533 C2534 1.502 . S
C2533 C2535 1.561 . S
C2533 C2536 1.526 . S
C2534 H2518 0.959 . S
C2534 H2519 0.959 . S
C2534 H2520 0.961 . S
C2534 C2533 1.502 . S
C2535 H2521 0.960 . S
C2535 H2522 0.961 . S
C2535 H2523 0.959 . S
C2535 C2533 1.561 . S
C2536 C2533 1.526 . S
C2536 C2537 1.396 . S
C2536 C2541 1.390 . S
C2537 C2531 1.465 . S
C2537 C2536 1.396 . S
C2537 C2538 1.399 . S
C2538 H2524 0.929 . S
C2538 C2537 1.399 . S
C2538 C2539 1.385 . S
C2539 H2525 0.931 . S
C2539 C2538 1.385 . S
C2539 C2540 1.389 . S
C2540 C2539 1.389 . S
C2540 C2541 1.387 . S
C2541 H2526 0.930 . S
C2541 C2536 1.390 . S
C2541 C2540 1.387 . S
H2542 C2554 0.930 . S
H2543 C2556 0.930 . S
H2544 C2557 0.930 . S
H2545 C2561 0.959 . S
H2546 C2561 0.959 . S
H2547 C2561 0.961 . S
H2548 C2562 0.960 . S
H2549 C2562 0.961 . S
H2550 C2562 0.959 . S
H2551 C2565 0.929 . S
H2552 C2566 0.931 . S
H2553 C2568 0.930 . S
C2554 H2542 0.930 . S
C2554 C2555 1.399 . S
C2554 C2559 1.399 . S
C2555 C2554 1.399 . S
C2555 C2556 1.376 . S
C2556 H2543 0.930 . S
C2556 C2555 1.376 . S
C2556 C2557 1.388 . S
C2557 H2544 0.930 . S
C2557 C2556 1.388 . S
C2557 C2558 1.390 . S
C2558 C2557 1.390 . S
C2558 C2559 1.394 . S
C2558 C2564 1.465 . S
C2559 C2554 1.399 . S
C2559 C2558 1.394 . S
C2559 C2560 1.516 . S
C2560 C2559 1.516 . S
C2560 C2561 1.502 . S
C2560 C2562 1.561 . S
C2560 C2563 1.526 . S
C2561 H2545 0.959 . S
C2561 H2546 0.959 . S
C2561 H2547 0.961 . S
C2561 C2560 1.502 . S
C2562 H2548 0.960 . S
C2562 H2549 0.961 . S
C2562 H2550 0.959 . S
C2562 C2560 1.561 . S
C2563 C2560 1.526 . S
C2563 C2564 1.396 . S
C2563 C2568 1.390 . S
C2564 C2558 1.465 . S
C2564 C2563 1.396 . S
C2564 C2565 1.399 . S
C2565 H2551 0.929 . S
C2565 C2564 1.399 . S
C2565 C2566 1.385 . S
C2566 H2552 0.931 . S
C2566 C2565 1.385 . S
C2566 C2567 1.389 . S
C2567 C2566 1.389 . S
C2567 C2568 1.387 . S
C2568 H2553 0.930 . S
C2568 C2563 1.390 . S
C2568 C2567 1.387 . S
H2569 C2581 0.930 . S
H2570 C2583 0.930 . S
H2571 C2584 0.930 . S
H2572 C2588 0.959 . S
H2573 C2588 0.959 . S
H2574 C2588 0.961 . S
H2575 C2589 0.960 . S
H2576 C2589 0.961 . S
H2577 C2589 0.959 . S
H2578 C2592 0.929 . S
H2579 C2593 0.931 . S
H2580 C2595 0.930 . S
C2581 H2569 0.930 . S
C2581 C2582 1.399 . S
C2581 C2586 1.399 . S
C2582 C2581 1.399 . S
C2582 C2583 1.376 . S
C2583 H2570 0.930 . S
C2583 C2582 1.376 . S
C2583 C2584 1.388 . S
C2584 H2571 0.930 . S
C2584 C2583 1.388 . S
C2584 C2585 1.390 . S
C2585 C2584 1.390 . S
C2585 C2586 1.394 . S
C2585 C2591 1.465 . S
C2586 C2581 1.399 . S
C2586 C2585 1.394 . S
C2586 C2587 1.516 . S
C2587 C2586 1.516 . S
C2587 C2588 1.502 . S
C2587 C2589 1.561 . S
C2587 C2590 1.526 . S
C2588 H2572 0.959 . S
C2588 H2573 0.959 . S
C2588 H2574 0.961 . S
C2588 C2587 1.502 . S
C2589 H2575 0.960 . S
C2589 H2576 0.961 . S
C2589 H2577 0.959 . S
C2589 C2587 1.561 . S
C2590 C2587 1.526 . S
C2590 C2591 1.396 . S
C2590 C2595 1.390 . S
C2591 C2585 1.465 . S
C2591 C2590 1.396 . S
C2591 C2592 1.399 . S
C2592 H2578 0.929 . S
C2592 C2591 1.399 . S
C2592 C2593 1.385 . S
C2593 H2579 0.931 . S
C2593 C2592 1.385 . S
C2593 C2594 1.389 . S
C2594 C2593 1.389 . S
C2594 C2595 1.387 . S
C2595 H2580 0.930 . S
C2595 C2590 1.390 . S
C2595 C2594 1.387 . S
H2596 C2608 0.930 . S
H2597 C2610 0.930 . S
H2598 C2611 0.930 . S
H2599 C2615 0.959 . S
H2600 C2615 0.959 . S
H2601 C2615 0.961 . S
H2602 C2616 0.960 . S
H2603 C2616 0.961 . S
H2604 C2616 0.959 . S
H2605 C2619 0.929 . S
H2606 C2620 0.931 . S
H2607 C2622 0.930 . S
C2608 H2596 0.930 . S
C2608 C2609 1.399 . S
C2608 C2613 1.399 . S
C2609 C2608 1.399 . S
C2609 C2610 1.376 . S
C2610 H2597 0.930 . S
C2610 C2609 1.376 . S
C2610 C2611 1.388 . S
C2611 H2598 0.930 . S
C2611 C2610 1.388 . S
C2611 C2612 1.390 . S
C2612 C2611 1.390 . S
C2612 C2613 1.394 . S
C2612 C2618 1.465 . S
C2613 C2608 1.399 . S
C2613 C2612 1.394 . S
C2613 C2614 1.516 . S
C2614 C2613 1.516 . S
C2614 C2615 1.502 . S
C2614 C2616 1.561 . S
C2614 C2617 1.526 . S
C2615 H2599 0.959 . S
C2615 H2600 0.959 . S
C2615 H2601 0.961 . S
C2615 C2614 1.502 . S
C2616 H2602 0.960 . S
C2616 H2603 0.961 . S
C2616 H2604 0.959 . S
C2616 C2614 1.561 . S
C2617 C2614 1.526 . S
C2617 C2618 1.396 . S
C2617 C2622 1.390 . S
C2618 C2612 1.465 . S
C2618 C2617 1.396 . S
C2618 C2619 1.399 . S
C2619 H2605 0.929 . S
C2619 C2618 1.399 . S
C2619 C2620 1.385 . S
C2620 H2606 0.931 . S
C2620 C2619 1.385 . S
C2620 C2621 1.389 . S
C2621 C2620 1.389 . S
C2621 C2622 1.387 . S
C2622 H2607 0.930 . S
C2622 C2617 1.390 . S
C2622 C2621 1.387 . S
H2623 C2635 0.930 . S
H2624 C2637 0.930 . S
H2625 C2638 0.930 . S
H2626 C2642 0.959 . S
H2627 C2642 0.959 . S
H2628 C2642 0.961 . S
H2629 C2643 0.960 . S
H2630 C2643 0.961 . S
H2631 C2643 0.959 . S
H2632 C2646 0.929 . S
H2633 C2647 0.931 . S
H2634 C2649 0.930 . S
C2635 H2623 0.930 . S
C2635 C2636 1.399 . S
C2635 C2640 1.399 . S
C2636 C2635 1.399 . S
C2636 C2637 1.376 . S
C2637 H2624 0.930 . S
C2637 C2636 1.376 . S
C2637 C2638 1.388 . S
C2638 H2625 0.930 . S
C2638 C2637 1.388 . S
C2638 C2639 1.390 . S
C2639 C2638 1.390 . S
C2639 C2640 1.394 . S
C2639 C2645 1.465 . S
C2640 C2635 1.399 . S
C2640 C2639 1.394 . S
C2640 C2641 1.516 . S
C2641 C2640 1.516 . S
C2641 C2642 1.502 . S
C2641 C2643 1.561 . S
C2641 C2644 1.526 . S
C2642 H2626 0.959 . S
C2642 H2627 0.959 . S
C2642 H2628 0.961 . S
C2642 C2641 1.502 . S
C2643 H2629 0.960 . S
C2643 H2630 0.961 . S
C2643 H2631 0.959 . S
C2643 C2641 1.561 . S
C2644 C2641 1.526 . S
C2644 C2645 1.396 . S
C2644 C2649 1.390 . S
C2645 C2639 1.465 . S
C2645 C2644 1.396 . S
C2645 C2646 1.399 . S
C2646 H2632 0.929 . S
C2646 C2645 1.399 . S
C2646 C2647 1.385 . S
C2647 H2633 0.931 . S
C2647 C2646 1.385 . S
C2647 C2648 1.389 . S
C2648 C2647 1.389 . S
C2648 C2649 1.387 . S
C2649 H2634 0.930 . S
C2649 C2644 1.390 . S
C2649 C2648 1.387 . S
H2650 C2662 0.930 . S
H2651 C2664 0.930 . S
H2652 C2665 0.930 . S
H2653 C2669 0.959 . S
H2654 C2669 0.959 . S
H2655 C2669 0.961 . S
H2656 C2670 0.960 . S
H2657 C2670 0.961 . S
H2658 C2670 0.959 . S
H2659 C2673 0.929 . S
H2660 C2674 0.931 . S
H2661 C2676 0.930 . S
C2662 H2650 0.930 . S
C2662 C2663 1.399 . S
C2662 C2667 1.399 . S
C2663 C2662 1.399 . S
C2663 C2664 1.376 . S
C2664 H2651 0.930 . S
C2664 C2663 1.376 . S
C2664 C2665 1.388 . S
C2665 H2652 0.930 . S
C2665 C2664 1.388 . S
C2665 C2666 1.390 . S
C2666 C2665 1.390 . S
C2666 C2667 1.394 . S
C2666 C2672 1.465 . S
C2667 C2662 1.399 . S
C2667 C2666 1.394 . S
C2667 C2668 1.516 . S
C2668 C2667 1.516 . S
C2668 C2669 1.502 . S
C2668 C2670 1.561 . S
C2668 C2671 1.526 . S
C2669 H2653 0.959 . S
C2669 H2654 0.959 . S
C2669 H2655 0.961 . S
C2669 C2668 1.502 . S
C2670 H2656 0.960 . S
C2670 H2657 0.961 . S
C2670 H2658 0.959 . S
C2670 C2668 1.561 . S
C2671 C2668 1.526 . S
C2671 C2672 1.396 . S
C2671 C2676 1.390 . S
C2672 C2666 1.465 . S
C2672 C2671 1.396 . S
C2672 C2673 1.399 . S
C2673 H2659 0.929 . S
C2673 C2672 1.399 . S
C2673 C2674 1.385 . S
C2674 H2660 0.931 . S
C2674 C2673 1.385 . S
C2674 C2675 1.389 . S
C2675 C2674 1.389 . S
C2675 C2676 1.387 . S
C2676 H2661 0.930 . S
C2676 C2671 1.390 . S
C2676 C2675 1.387 . S
H2677 C2689 0.930 . S
H2678 C2691 0.930 . S
H2679 C2692 0.930 . S
H2680 C2696 0.959 . S
H2681 C2696 0.959 . S
H2682 C2696 0.961 . S
H2683 C2697 0.960 . S
H2684 C2697 0.961 . S
H2685 C2697 0.959 . S
H2686 C2700 0.929 . S
H2687 C2701 0.931 . S
H2688 C2703 0.930 . S
C2689 H2677 0.930 . S
C2689 C2690 1.399 . S
C2689 C2694 1.399 . S
C2690 C2689 1.399 . S
C2690 C2691 1.376 . S
C2691 H2678 0.930 . S
C2691 C2690 1.376 . S
C2691 C2692 1.388 . S
C2692 H2679 0.930 . S
C2692 C2691 1.388 . S
C2692 C2693 1.390 . S
C2693 C2692 1.390 . S
C2693 C2694 1.394 . S
C2693 C2699 1.465 . S
C2694 C2689 1.399 . S
C2694 C2693 1.394 . S
C2694 C2695 1.516 . S
C2695 C2694 1.516 . S
C2695 C2696 1.502 . S
C2695 C2697 1.561 . S
C2695 C2698 1.526 . S
C2696 H2680 0.959 . S
C2696 H2681 0.959 . S
C2696 H2682 0.961 . S
C2696 C2695 1.502 . S
C2697 H2683 0.960 . S
C2697 H2684 0.961 . S
C2697 H2685 0.959 . S
C2697 C2695 1.561 . S
C2698 C2695 1.526 . S
C2698 C2699 1.396 . S
C2698 C2703 1.390 . S
C2699 C2693 1.465 . S
C2699 C2698 1.396 . S
C2699 C2700 1.399 . S
C2700 H2686 0.929 . S
C2700 C2699 1.399 . S
C2700 C2701 1.385 . S
C2701 H2687 0.931 . S
C2701 C2700 1.385 . S
C2701 C2702 1.389 . S
C2702 C2701 1.389 . S
C2702 C2703 1.387 . S
C2703 H2688 0.930 . S
C2703 C2698 1.390 . S
C2703 C2702 1.387 . S
H2704 C2716 0.930 . S
H2705 C2718 0.930 . S
H2706 C2719 0.930 . S
H2707 C2723 0.959 . S
H2708 C2723 0.959 . S
H2709 C2723 0.961 . S
H2710 C2724 0.960 . S
H2711 C2724 0.961 . S
H2712 C2724 0.959 . S
H2713 C2727 0.929 . S
H2714 C2728 0.931 . S
H2715 C2730 0.930 . S
C2716 H2704 0.930 . S
C2716 C2717 1.399 . S
C2716 C2721 1.399 . S
C2717 C2716 1.399 . S
C2717 C2718 1.376 . S
C2718 H2705 0.930 . S
C2718 C2717 1.376 . S
C2718 C2719 1.388 . S
C2719 H2706 0.930 . S
C2719 C2718 1.388 . S
C2719 C2720 1.390 . S
C2720 C2719 1.390 . S
C2720 C2721 1.394 . S
C2720 C2726 1.465 . S
C2721 C2716 1.399 . S
C2721 C2720 1.394 . S
C2721 C2722 1.516 . S
C2722 C2721 1.516 . S
C2722 C2723 1.502 . S
C2722 C2724 1.561 . S
C2722 C2725 1.526 . S
C2723 H2707 0.959 . S
C2723 H2708 0.959 . S
C2723 H2709 0.961 . S
C2723 C2722 1.502 . S
C2724 H2710 0.960 . S
C2724 H2711 0.961 . S
C2724 H2712 0.959 . S
C2724 C2722 1.561 . S
C2725 C2722 1.526 . S
C2725 C2726 1.396 . S
C2725 C2730 1.390 . S
C2726 C2720 1.465 . S
C2726 C2725 1.396 . S
C2726 C2727 1.399 . S
C2727 H2713 0.929 . S
C2727 C2726 1.399 . S
C2727 C2728 1.385 . S
C2728 H2714 0.931 . S
C2728 C2727 1.385 . S
C2728 C2729 1.389 . S
C2729 C2728 1.389 . S
C2729 C2730 1.387 . S
C2730 H2715 0.930 . S
C2730 C2725 1.390 . S
C2730 C2729 1.387 . S
H2731 C2743 0.930 . S
H2732 C2745 0.930 . S
H2733 C2746 0.930 . S
H2734 C2750 0.959 . S
H2735 C2750 0.959 . S
H2736 C2750 0.961 . S
H2737 C2751 0.960 . S
H2738 C2751 0.961 . S
H2739 C2751 0.959 . S
H2740 C2754 0.929 . S
H2741 C2755 0.931 . S
H2742 C2757 0.930 . S
C2743 H2731 0.930 . S
C2743 C2744 1.399 . S
C2743 C2748 1.399 . S
C2744 C2743 1.399 . S
C2744 C2745 1.376 . S
C2745 H2732 0.930 . S
C2745 C2744 1.376 . S
C2745 C2746 1.388 . S
C2746 H2733 0.930 . S
C2746 C2745 1.388 . S
C2746 C2747 1.390 . S
C2747 C2746 1.390 . S
C2747 C2748 1.394 . S
C2747 C2753 1.465 . S
C2748 C2743 1.399 . S
C2748 C2747 1.394 . S
C2748 C2749 1.516 . S
C2749 C2748 1.516 . S
C2749 C2750 1.502 . S
C2749 C2751 1.561 . S
C2749 C2752 1.526 . S
C2750 H2734 0.959 . S
C2750 H2735 0.959 . S
C2750 H2736 0.961 . S
C2750 C2749 1.502 . S
C2751 H2737 0.960 . S
C2751 H2738 0.961 . S
C2751 H2739 0.959 . S
C2751 C2749 1.561 . S
C2752 C2749 1.526 . S
C2752 C2753 1.396 . S
C2752 C2757 1.390 . S
C2753 C2747 1.465 . S
C2753 C2752 1.396 . S
C2753 C2754 1.399 . S
C2754 H2740 0.929 . S
C2754 C2753 1.399 . S
C2754 C2755 1.385 . S
C2755 H2741 0.931 . S
C2755 C2754 1.385 . S
C2755 C2756 1.389 . S
C2756 C2755 1.389 . S
C2756 C2757 1.387 . S
C2757 H2742 0.930 . S
C2757 C2752 1.390 . S
C2757 C2756 1.387 . S
H2758 C2770 0.930 . S
H2759 C2772 0.930 . S
H2760 C2773 0.930 . S
H2761 C2777 0.959 . S
H2762 C2777 0.959 . S
H2763 C2777 0.961 . S
H2764 C2778 0.960 . S
H2765 C2778 0.961 . S
H2766 C2778 0.959 . S
H2767 C2781 0.929 . S
H2768 C2782 0.931 . S
H2769 C2784 0.930 . S
C2770 H2758 0.930 . S
C2770 C2771 1.399 . S
C2770 C2775 1.399 . S
C2771 C2770 1.399 . S
C2771 C2772 1.376 . S
C2772 H2759 0.930 . S
C2772 C2771 1.376 . S
C2772 C2773 1.388 . S
C2773 H2760 0.930 . S
C2773 C2772 1.388 . S
C2773 C2774 1.390 . S
C2774 C2773 1.390 . S
C2774 C2775 1.394 . S
C2774 C2780 1.465 . S
C2775 C2770 1.399 . S
C2775 C2774 1.394 . S
C2775 C2776 1.516 . S
C2776 C2775 1.516 . S
C2776 C2777 1.502 . S
C2776 C2778 1.561 . S
C2776 C2779 1.526 . S
C2777 H2761 0.959 . S
C2777 H2762 0.959 . S
C2777 H2763 0.961 . S
C2777 C2776 1.502 . S
C2778 H2764 0.960 . S
C2778 H2765 0.961 . S
C2778 H2766 0.959 . S
C2778 C2776 1.561 . S
C2779 C2776 1.526 . S
C2779 C2780 1.396 . S
C2779 C2784 1.390 . S
C2780 C2774 1.465 . S
C2780 C2779 1.396 . S
C2780 C2781 1.399 . S
C2781 H2767 0.929 . S
C2781 C2780 1.399 . S
C2781 C2782 1.385 . S
C2782 H2768 0.931 . S
C2782 C2781 1.385 . S
C2782 C2783 1.389 . S
C2783 C2782 1.389 . S
C2783 C2784 1.387 . S
C2784 H2769 0.930 . S
C2784 C2779 1.390 . S
C2784 C2783 1.387 . S
H2785 C2797 0.930 . S
H2786 C2799 0.930 . S
H2787 C2800 0.930 . S
H2788 C2804 0.959 . S
H2789 C2804 0.959 . S
H2790 C2804 0.961 1_565 S
H2791 C2805 0.960 . S
H2792 C2805 0.961 . S
H2793 C2805 0.959 . S
H2794 C2808 0.929 . S
H2795 C2809 0.918 1_556 S
H2796 C2811 0.930 . S
C2797 H2785 0.930 . S
C2797 C2798 1.399 . S
C2797 C2802 1.399 . S
C2798 C2797 1.399 . S
C2798 C2799 1.376 1_554 S
C2799 H2786 0.930 . S
C2799 C2798 1.376 1_556 S
C2799 C2800 1.388 . S
C2800 H2787 0.930 . S
C2800 C2799 1.388 . S
C2800 C2801 1.390 1_556 S
C2801 C2800 1.390 1_554 S
C2801 C2802 1.394 . S
C2801 C2807 1.465 . S
C2802 C2797 1.399 . S
C2802 C2801 1.394 . S
C2802 C2803 1.516 . S
C2803 C2802 1.516 . S
C2803 C2804 1.502 1_565 S
C2803 C2805 1.561 . S
C2803 C2806 1.526 . S
C2804 H2788 0.959 . S
C2804 H2789 0.959 . S
C2804 H2790 0.961 1_545 S
C2804 C2803 1.502 1_545 S
C2805 H2791 0.960 . S
C2805 H2792 0.961 . S
C2805 H2793 0.959 . S
C2805 C2803 1.561 . S
C2806 C2803 1.526 . S
C2806 C2807 1.396 . S
C2806 C2811 1.390 1_565 S
C2807 C2801 1.465 . S
C2807 C2806 1.396 . S
C2807 C2808 1.399 1_554 S
C2808 H2794 0.929 . S
C2808 C2807 1.399 1_556 S
C2808 C2809 1.384 1_556 S
C2809 H2795 0.918 1_554 S
C2809 C2808 1.384 1_554 S
C2809 C2810 1.403 1_565 S
C2810 C2809 1.403 1_545 S
C2810 C2811 1.387 . S
C2811 H2796 0.930 . S
C2811 C2806 1.390 1_545 S
C2811 C2810 1.387 . S
H2812 C2824 0.930 . S
H2813 C2826 0.930 . S
H2814 C2827 0.930 . S
H2815 C2831 0.959 . S
H2816 C2831 0.959 . S
H2817 C2831 0.961 . S
H2818 C2832 0.960 . S
H2819 C2832 0.961 . S
H2820 C2832 0.959 . S
H2821 C2835 0.929 . S
H2822 C2836 0.931 . S
H2823 C2838 0.930 . S
C2824 H2812 0.930 . S
C2824 C2825 1.399 . S
C2824 C2829 1.399 . S
C2825 C2824 1.399 . S
C2825 C2826 1.376 . S
C2826 H2813 0.930 . S
C2826 C2825 1.376 . S
C2826 C2827 1.388 . S
C2827 H2814 0.930 . S
C2827 C2826 1.388 . S
C2827 C2828 1.390 . S
C2828 C2827 1.390 . S
C2828 C2829 1.394 . S
C2828 C2834 1.465 . S
C2829 C2824 1.399 . S
C2829 C2828 1.394 . S
C2829 C2830 1.516 . S
C2830 C2829 1.516 . S
C2830 C2831 1.502 . S
C2830 C2832 1.561 . S
C2830 C2833 1.526 . S
C2831 H2815 0.959 . S
C2831 H2816 0.959 . S
C2831 H2817 0.961 . S
C2831 C2830 1.502 . S
C2832 H2818 0.960 . S
C2832 H2819 0.961 . S
C2832 H2820 0.959 . S
C2832 C2830 1.561 . S
C2833 C2830 1.526 . S
C2833 C2834 1.396 . S
C2833 C2838 1.390 . S
C2834 C2828 1.465 . S
C2834 C2833 1.396 . S
C2834 C2835 1.399 . S
C2835 H2821 0.929 . S
C2835 C2834 1.399 . S
C2835 C2836 1.385 . S
C2836 H2822 0.931 . S
C2836 C2835 1.385 . S
C2836 C2837 1.389 . S
C2837 C2836 1.389 . S
C2837 C2838 1.387 . S
C2838 H2823 0.930 . S
C2838 C2833 1.390 . S
C2838 C2837 1.387 . S
H2839 C2851 0.930 . S
H2840 C2853 0.930 . S
H2841 C2854 0.930 . S
H2842 C2858 0.959 . S
H2843 C2858 0.959 . S
H2844 C2858 0.961 . S
H2845 C2859 0.960 . S
H2846 C2859 0.961 . S
H2847 C2859 0.959 . S
H2848 C2862 0.929 . S
H2849 C2863 0.931 . S
H2850 C2865 0.930 . S
C2851 H2839 0.930 . S
C2851 C2852 1.399 . S
C2851 C2856 1.399 . S
C2852 C2851 1.399 . S
C2852 C2853 1.376 . S
C2853 H2840 0.930 . S
C2853 C2852 1.376 . S
C2853 C2854 1.388 . S
C2854 H2841 0.930 . S
C2854 C2853 1.388 . S
C2854 C2855 1.390 . S
C2855 C2854 1.390 . S
C2855 C2856 1.394 . S
C2855 C2861 1.465 . S
C2856 C2851 1.399 . S
C2856 C2855 1.394 . S
C2856 C2857 1.516 . S
C2857 C2856 1.516 . S
C2857 C2858 1.502 . S
C2857 C2859 1.561 . S
C2857 C2860 1.526 . S
C2858 H2842 0.959 . S
C2858 H2843 0.959 . S
C2858 H2844 0.961 . S
C2858 C2857 1.502 . S
C2859 H2845 0.960 . S
C2859 H2846 0.961 . S
C2859 H2847 0.959 . S
C2859 C2857 1.561 . S
C2860 C2857 1.526 . S
C2860 C2861 1.396 . S
C2860 C2865 1.390 . S
C2861 C2855 1.465 . S
C2861 C2860 1.396 . S
C2861 C2862 1.399 . S
C2862 H2848 0.929 . S
C2862 C2861 1.399 . S
C2862 C2863 1.385 . S
C2863 H2849 0.931 . S
C2863 C2862 1.385 . S
C2863 C2864 1.389 . S
C2864 C2863 1.389 . S
C2864 C2865 1.387 . S
C2865 H2850 0.930 . S
C2865 C2860 1.390 . S
C2865 C2864 1.387 . S
H2866 C2878 0.930 . S
H2867 C2880 0.930 . S
H2868 C2881 0.930 . S
H2869 C2885 0.959 . S
H2870 C2885 0.959 . S
H2871 C2885 0.961 . S
H2872 C2886 0.960 . S
H2873 C2886 0.961 . S
H2874 C2886 0.959 . S
H2875 C2889 0.929 . S
H2876 C2890 0.931 . S
H2877 C2892 0.930 . S
C2878 H2866 0.930 . S
C2878 C2879 1.399 . S
C2878 C2883 1.399 . S
C2879 C2878 1.399 . S
C2879 C2880 1.376 . S
C2880 H2867 0.930 . S
C2880 C2879 1.376 . S
C2880 C2881 1.388 . S
C2881 H2868 0.930 . S
C2881 C2880 1.388 . S
C2881 C2882 1.390 . S
C2882 C2881 1.390 . S
C2882 C2883 1.394 . S
C2882 C2888 1.465 . S
C2883 C2878 1.399 . S
C2883 C2882 1.394 . S
C2883 C2884 1.516 . S
C2884 C2883 1.516 . S
C2884 C2885 1.502 . S
C2884 C2886 1.561 . S
C2884 C2887 1.526 . S
C2885 H2869 0.959 . S
C2885 H2870 0.959 . S
C2885 H2871 0.961 . S
C2885 C2884 1.502 . S
C2886 H2872 0.960 . S
C2886 H2873 0.961 . S
C2886 H2874 0.959 . S
C2886 C2884 1.561 . S
C2887 C2884 1.526 . S
C2887 C2888 1.396 . S
C2887 C2892 1.390 . S
C2888 C2882 1.465 . S
C2888 C2887 1.396 . S
C2888 C2889 1.399 . S
C2889 H2875 0.929 . S
C2889 C2888 1.399 . S
C2889 C2890 1.385 . S
C2890 H2876 0.931 . S
C2890 C2889 1.385 . S
C2890 C2891 1.389 . S
C2891 C2890 1.389 . S
C2891 C2892 1.387 . S
C2892 H2877 0.930 . S
C2892 C2887 1.390 . S
C2892 C2891 1.387 . S
H2893 C2905 0.930 . S
H2894 C2907 0.930 . S
H2895 C2908 0.930 . S
H2896 C2912 0.959 . S
H2897 C2912 0.959 . S
H2898 C2912 0.961 . S
H2899 C2913 0.960 . S
H2900 C2913 0.961 . S
H2901 C2913 0.959 . S
H2902 C2916 0.929 . S
H2903 C2917 0.931 . S
H2904 C2919 0.930 . S
C2905 H2893 0.930 . S
C2905 C2906 1.399 . S
C2905 C2910 1.399 . S
C2906 C2905 1.399 . S
C2906 C2907 1.376 . S
C2907 H2894 0.930 . S
C2907 C2906 1.376 . S
C2907 C2908 1.388 . S
C2908 H2895 0.930 . S
C2908 C2907 1.388 . S
C2908 C2909 1.390 . S
C2909 C2908 1.390 . S
C2909 C2910 1.394 . S
C2909 C2915 1.465 . S
C2910 C2905 1.399 . S
C2910 C2909 1.394 . S
C2910 C2911 1.516 . S
C2911 C2910 1.516 . S
C2911 C2912 1.502 . S
C2911 C2913 1.561 . S
C2911 C2914 1.526 . S
C2912 H2896 0.959 . S
C2912 H2897 0.959 . S
C2912 H2898 0.961 . S
C2912 C2911 1.502 . S
C2913 H2899 0.960 . S
C2913 H2900 0.961 . S
C2913 H2901 0.959 . S
C2913 C2911 1.561 . S
C2914 C2911 1.526 . S
C2914 C2915 1.396 . S
C2914 C2919 1.390 . S
C2915 C2909 1.465 . S
C2915 C2914 1.396 . S
C2915 C2916 1.399 . S
C2916 H2902 0.929 . S
C2916 C2915 1.399 . S
C2916 C2917 1.385 . S
C2917 H2903 0.931 . S
C2917 C2916 1.385 . S
C2917 C2918 1.389 . S
C2918 C2917 1.389 . S
C2918 C2919 1.387 . S
C2919 H2904 0.930 . S
C2919 C2914 1.390 . S
C2919 C2918 1.387 . S
H2920 C2932 0.930 . S
H2921 C2934 0.930 . S
H2922 C2935 0.930 . S
H2923 C2939 0.959 . S
H2924 C2939 0.959 . S
H2925 C2939 0.961 . S
H2926 C2940 0.960 . S
H2927 C2940 0.961 . S
H2928 C2940 0.959 . S
H2929 C2943 0.929 . S
H2930 C2944 0.931 . S
H2931 C2946 0.930 . S
C2932 H2920 0.930 . S
C2932 C2933 1.399 . S
C2932 C2937 1.399 . S
C2933 C2932 1.399 . S
C2933 C2934 1.376 . S
C2934 H2921 0.930 . S
C2934 C2933 1.376 . S
C2934 C2935 1.388 . S
C2935 H2922 0.930 . S
C2935 C2934 1.388 . S
C2935 C2936 1.390 . S
C2936 C2935 1.390 . S
C2936 C2937 1.394 . S
C2936 C2942 1.465 . S
C2937 C2932 1.399 . S
C2937 C2936 1.394 . S
C2937 C2938 1.516 . S
C2938 C2937 1.516 . S
C2938 C2939 1.502 . S
C2938 C2940 1.561 . S
C2938 C2941 1.526 . S
C2939 H2923 0.959 . S
C2939 H2924 0.959 . S
C2939 H2925 0.961 . S
C2939 C2938 1.502 . S
C2940 H2926 0.960 . S
C2940 H2927 0.961 . S
C2940 H2928 0.959 . S
C2940 C2938 1.561 . S
C2941 C2938 1.526 . S
C2941 C2942 1.396 . S
C2941 C2946 1.390 . S
C2942 C2936 1.465 . S
C2942 C2941 1.396 . S
C2942 C2943 1.399 . S
C2943 H2929 0.929 . S
C2943 C2942 1.399 . S
C2943 C2944 1.385 . S
C2944 H2930 0.931 . S
C2944 C2943 1.385 . S
C2944 C2945 1.389 . S
C2945 C2944 1.389 . S
C2945 C2946 1.387 . S
C2946 H2931 0.930 . S
C2946 C2941 1.390 . S
C2946 C2945 1.387 . S
H2947 C2959 0.930 . S
H2948 C2961 0.930 . S
H2949 C2962 0.930 . S
H2950 C2966 0.959 . S
H2951 C2966 0.959 . S
H2952 C2966 0.961 . S
H2953 C2967 0.960 . S
H2954 C2967 0.961 . S
H2955 C2967 0.959 . S
H2956 C2970 0.929 . S
H2957 C2971 0.931 . S
H2958 C2973 0.930 . S
C2959 H2947 0.930 . S
C2959 C2960 1.399 . S
C2959 C2964 1.399 . S
C2960 C2959 1.399 . S
C2960 C2961 1.376 . S
C2961 H2948 0.930 . S
C2961 C2960 1.376 . S
C2961 C2962 1.388 . S
C2962 H2949 0.930 . S
C2962 C2961 1.388 . S
C2962 C2963 1.390 . S
C2963 C2962 1.390 . S
C2963 C2964 1.394 . S
C2963 C2969 1.465 . S
C2964 C2959 1.399 . S
C2964 C2963 1.394 . S
C2964 C2965 1.516 . S
C2965 C2964 1.516 . S
C2965 C2966 1.502 . S
C2965 C2967 1.561 . S
C2965 C2968 1.526 . S
C2966 H2950 0.959 . S
C2966 H2951 0.959 . S
C2966 H2952 0.961 . S
C2966 C2965 1.502 . S
C2967 H2953 0.960 . S
C2967 H2954 0.961 . S
C2967 H2955 0.959 . S
C2967 C2965 1.561 . S
C2968 C2965 1.526 . S
C2968 C2969 1.396 . S
C2968 C2973 1.390 . S
C2969 C2963 1.465 . S
C2969 C2968 1.396 . S
C2969 C2970 1.399 . S
C2970 H2956 0.929 . S
C2970 C2969 1.399 . S
C2970 C2971 1.385 . S
C2971 H2957 0.931 . S
C2971 C2970 1.385 . S
C2971 C2972 1.389 . S
C2972 C2971 1.389 . S
C2972 C2973 1.387 . S
C2973 H2958 0.930 . S
C2973 C2968 1.390 . S
C2973 C2972 1.387 . S
H2974 C2986 0.930 . S
H2975 C2988 0.930 . S
H2976 C2989 0.930 . S
H2977 C2993 0.959 . S
H2978 C2993 0.959 . S
H2979 C2993 0.961 . S
H2980 C2994 0.960 . S
H2981 C2994 0.961 . S
H2982 C2994 0.959 . S
H2983 C2997 0.929 . S
H2984 C2998 0.931 . S
H2985 C3000 0.930 . S
C2986 H2974 0.930 . S
C2986 C2987 1.399 . S
C2986 C2991 1.399 . S
C2987 C2986 1.399 . S
C2987 C2988 1.376 . S
C2988 H2975 0.930 . S
C2988 C2987 1.376 . S
C2988 C2989 1.388 . S
C2989 H2976 0.930 . S
C2989 C2988 1.388 . S
C2989 C2990 1.390 . S
C2990 C2989 1.390 . S
C2990 C2991 1.394 . S
C2990 C2996 1.465 . S
C2991 C2986 1.399 . S
C2991 C2990 1.394 . S
C2991 C2992 1.516 . S
C2992 C2991 1.516 . S
C2992 C2993 1.502 . S
C2992 C2994 1.561 . S
C2992 C2995 1.526 . S
C2993 H2977 0.959 . S
C2993 H2978 0.959 . S
C2993 H2979 0.961 . S
C2993 C2992 1.502 . S
C2994 H2980 0.960 . S
C2994 H2981 0.961 . S
C2994 H2982 0.959 . S
C2994 C2992 1.561 . S
C2995 C2992 1.526 . S
C2995 C2996 1.396 . S
C2995 C3000 1.390 . S
C2996 C2990 1.465 . S
C2996 C2995 1.396 . S
C2996 C2997 1.399 . S
C2997 H2983 0.929 . S
C2997 C2996 1.399 . S
C2997 C2998 1.385 . S
C2998 H2984 0.931 . S
C2998 C2997 1.385 . S
C2998 C2999 1.389 . S
C2999 C2998 1.389 . S
C2999 C3000 1.387 . S
C3000 H2985 0.930 . S
C3000 C2995 1.390 . S
C3000 C2999 1.387 . S
H3001 C3013 0.930 . S
H3002 C3015 0.930 . S
H3003 C3016 0.930 . S
H3004 C3020 0.959 . S
H3005 C3020 0.959 . S
H3006 C3020 0.961 . S
H3007 C3021 0.960 . S
H3008 C3021 0.961 . S
H3009 C3021 0.959 . S
H3010 C3024 0.929 . S
H3011 C3025 0.931 . S
H3012 C3027 0.930 . S
C3013 H3001 0.930 . S
C3013 C3014 1.399 . S
C3013 C3018 1.399 . S
C3014 C3013 1.399 . S
C3014 C3015 1.376 . S
C3015 H3002 0.930 . S
C3015 C3014 1.376 . S
C3015 C3016 1.388 . S
C3016 H3003 0.930 . S
C3016 C3015 1.388 . S
C3016 C3017 1.390 . S
C3017 C3016 1.390 . S
C3017 C3018 1.394 . S
C3017 C3023 1.465 . S
C3018 C3013 1.399 . S
C3018 C3017 1.394 . S
C3018 C3019 1.516 . S
C3019 C3018 1.516 . S
C3019 C3020 1.502 . S
C3019 C3021 1.561 . S
C3019 C3022 1.526 . S
C3020 H3004 0.959 . S
C3020 H3005 0.959 . S
C3020 H3006 0.961 . S
C3020 C3019 1.502 . S
C3021 H3007 0.960 . S
C3021 H3008 0.961 . S
C3021 H3009 0.959 . S
C3021 C3019 1.561 . S
C3022 C3019 1.526 . S
C3022 C3023 1.396 . S
C3022 C3027 1.390 . S
C3023 C3017 1.465 . S
C3023 C3022 1.396 . S
C3023 C3024 1.399 . S
C3024 H3010 0.929 . S
C3024 C3023 1.399 . S
C3024 C3025 1.385 . S
C3025 H3011 0.931 . S
C3025 C3024 1.385 . S
C3025 C3026 1.389 . S
C3026 C3025 1.389 . S
C3026 C3027 1.387 . S
C3027 H3012 0.930 . S
C3027 C3022 1.390 . S
C3027 C3026 1.387 . S
H3028 C3040 0.930 . S
H3029 C3042 0.930 . S
H3030 C3043 0.930 . S
H3031 C3047 0.959 . S
H3032 C3047 0.959 . S
H3033 C3047 0.961 . S
H3034 C3048 0.960 . S
H3035 C3048 0.961 . S
H3036 C3048 0.959 . S
H3037 C3051 0.929 . S
H3038 C3052 0.931 . S
H3039 C3054 0.930 . S
C3040 H3028 0.930 . S
C3040 C3041 1.399 . S
C3040 C3045 1.399 . S
C3041 C3040 1.399 . S
C3041 C3042 1.376 . S
C3042 H3029 0.930 . S
C3042 C3041 1.376 . S
C3042 C3043 1.388 . S
C3043 H3030 0.930 . S
C3043 C3042 1.388 . S
C3043 C3044 1.390 . S
C3044 C3043 1.390 . S
C3044 C3045 1.394 . S
C3044 C3050 1.465 . S
C3045 C3040 1.399 . S
C3045 C3044 1.394 . S
C3045 C3046 1.516 . S
C3046 C3045 1.516 . S
C3046 C3047 1.502 . S
C3046 C3048 1.561 . S
C3046 C3049 1.526 . S
C3047 H3031 0.959 . S
C3047 H3032 0.959 . S
C3047 H3033 0.961 . S
C3047 C3046 1.502 . S
C3048 H3034 0.960 . S
C3048 H3035 0.961 . S
C3048 H3036 0.959 . S
C3048 C3046 1.561 . S
C3049 C3046 1.526 . S
C3049 C3050 1.396 . S
C3049 C3054 1.390 . S
C3050 C3044 1.465 . S
C3050 C3049 1.396 . S
C3050 C3051 1.399 . S
C3051 H3037 0.929 . S
C3051 C3050 1.399 . S
C3051 C3052 1.385 . S
C3052 H3038 0.931 . S
C3052 C3051 1.385 . S
C3052 C3053 1.389 . S
C3053 C3052 1.389 . S
C3053 C3054 1.387 . S
C3054 H3039 0.930 . S
C3054 C3049 1.390 . S
C3054 C3053 1.387 . S
H3055 C3067 0.930 . S
H3056 C3069 0.930 . S
H3057 C3070 0.930 . S
H3058 C3074 0.959 . S
H3059 C3074 0.959 . S
H3060 C3074 0.961 . S
H3061 C3075 0.960 . S
H3062 C3075 0.961 . S
H3063 C3075 0.959 . S
H3064 C3078 0.929 . S
H3065 C3079 0.931 . S
H3066 C3081 0.930 . S
C3067 H3055 0.930 . S
C3067 C3068 1.399 . S
C3067 C3072 1.399 . S
C3068 C3067 1.399 . S
C3068 C3069 1.376 . S
C3069 H3056 0.930 . S
C3069 C3068 1.376 . S
C3069 C3070 1.388 . S
C3070 H3057 0.930 . S
C3070 C3069 1.388 . S
C3070 C3071 1.390 . S
C3071 C3070 1.390 . S
C3071 C3072 1.394 . S
C3071 C3077 1.465 . S
C3072 C3067 1.399 . S
C3072 C3071 1.394 . S
C3072 C3073 1.516 . S
C3073 C3072 1.516 . S
C3073 C3074 1.502 . S
C3073 C3075 1.561 . S
C3073 C3076 1.526 . S
C3074 H3058 0.959 . S
C3074 H3059 0.959 . S
C3074 H3060 0.961 . S
C3074 C3073 1.502 . S
C3075 H3061 0.960 . S
C3075 H3062 0.961 . S
C3075 H3063 0.959 . S
C3075 C3073 1.561 . S
C3076 C3073 1.526 . S
C3076 C3077 1.396 . S
C3076 C3081 1.390 . S
C3077 C3071 1.465 . S
C3077 C3076 1.396 . S
C3077 C3078 1.399 . S
C3078 H3064 0.929 . S
C3078 C3077 1.399 . S
C3078 C3079 1.385 . S
C3079 H3065 0.931 . S
C3079 C3078 1.385 . S
C3079 C3080 1.389 . S
C3080 C3079 1.389 . S
C3080 C3081 1.387 . S
C3081 H3066 0.930 . S
C3081 C3076 1.390 . S
C3081 C3080 1.387 . S
H3082 C3094 0.930 . S
H3083 C3096 0.930 . S
H3084 C3097 0.930 . S
H3085 C3101 0.959 . S
H3086 C3101 0.959 . S
H3087 C3101 0.961 . S
H3088 C3102 0.960 . S
H3089 C3102 0.961 . S
H3090 C3102 0.959 . S
H3091 C3105 0.929 . S
H3092 C3106 0.931 . S
H3093 C3108 0.930 . S
C3094 H3082 0.930 . S
C3094 C3095 1.399 . S
C3094 C3099 1.399 . S
C3095 C3094 1.399 . S
C3095 C3096 1.376 . S
C3096 H3083 0.930 . S
C3096 C3095 1.376 . S
C3096 C3097 1.388 . S
C3097 H3084 0.930 . S
C3097 C3096 1.388 . S
C3097 C3098 1.390 . S
C3098 C3097 1.390 . S
C3098 C3099 1.394 . S
C3098 C3104 1.465 . S
C3099 C3094 1.399 . S
C3099 C3098 1.394 . S
C3099 C3100 1.516 . S
C3100 C3099 1.516 . S
C3100 C3101 1.502 . S
C3100 C3102 1.561 . S
C3100 C3103 1.526 . S
C3101 H3085 0.959 . S
C3101 H3086 0.959 . S
C3101 H3087 0.961 . S
C3101 C3100 1.502 . S
C3102 H3088 0.960 . S
C3102 H3089 0.961 . S
C3102 H3090 0.959 . S
C3102 C3100 1.561 . S
C3103 C3100 1.526 . S
C3103 C3104 1.396 . S
C3103 C3108 1.390 . S
C3104 C3098 1.465 . S
C3104 C3103 1.396 . S
C3104 C3105 1.399 . S
C3105 H3091 0.929 . S
C3105 C3104 1.399 . S
C3105 C3106 1.385 . S
C3106 H3092 0.931 . S
C3106 C3105 1.385 . S
C3106 C3107 1.389 . S
C3107 C3106 1.389 . S
C3107 C3108 1.387 . S
C3108 H3093 0.930 . S
C3108 C3103 1.390 . S
C3108 C3107 1.387 . S
H3109 C3121 0.930 . S
H3110 C3123 0.930 . S
H3111 C3124 0.930 . S
H3112 C3128 0.959 . S
H3113 C3128 0.959 . S
H3114 C3128 0.961 . S
H3115 C3129 0.960 . S
H3116 C3129 0.961 . S
H3117 C3129 0.959 . S
H3118 C3132 0.929 . S
H3119 C3133 0.931 . S
H3120 C3135 0.930 . S
C3121 H3109 0.930 . S
C3121 C3122 1.399 . S
C3121 C3126 1.399 . S
C3122 C3121 1.399 . S
C3122 C3123 1.376 . S
C3123 H3110 0.930 . S
C3123 C3122 1.376 . S
C3123 C3124 1.388 . S
C3124 H3111 0.930 . S
C3124 C3123 1.388 . S
C3124 C3125 1.390 . S
C3125 C3124 1.390 . S
C3125 C3126 1.394 . S
C3125 C3131 1.465 . S
C3126 C3121 1.399 . S
C3126 C3125 1.394 . S
C3126 C3127 1.516 . S
C3127 C3126 1.516 . S
C3127 C3128 1.502 . S
C3127 C3129 1.561 . S
C3127 C3130 1.526 . S
C3128 H3112 0.959 . S
C3128 H3113 0.959 . S
C3128 H3114 0.961 . S
C3128 C3127 1.502 . S
C3129 H3115 0.960 . S
C3129 H3116 0.961 . S
C3129 H3117 0.959 . S
C3129 C3127 1.561 . S
C3130 C3127 1.526 . S
C3130 C3131 1.396 . S
C3130 C3135 1.390 . S
C3131 C3125 1.465 . S
C3131 C3130 1.396 . S
C3131 C3132 1.399 . S
C3132 H3118 0.929 . S
C3132 C3131 1.399 . S
C3132 C3133 1.385 . S
C3133 H3119 0.931 . S
C3133 C3132 1.385 . S
C3133 C3134 1.389 . S
C3134 C3133 1.389 . S
C3134 C3135 1.387 . S
C3135 H3120 0.930 . S
C3135 C3130 1.390 . S
C3135 C3134 1.387 . S
H3136 C3148 0.930 . S
H3137 C3150 0.930 . S
H3138 C3151 0.930 . S
H3139 C3155 0.959 . S
H3140 C3155 0.959 . S
H3141 C3155 0.961 . S
H3142 C3156 0.960 . S
H3143 C3156 0.961 . S
H3144 C3156 0.959 . S
H3145 C3159 0.929 . S
H3146 C3160 0.931 . S
H3147 C3162 0.930 . S
C3148 H3136 0.930 . S
C3148 C3149 1.399 . S
C3148 C3153 1.399 . S
C3149 C3148 1.399 . S
C3149 C3150 1.376 . S
C3150 H3137 0.930 . S
C3150 C3149 1.376 . S
C3150 C3151 1.388 . S
C3151 H3138 0.930 . S
C3151 C3150 1.388 . S
C3151 C3152 1.390 . S
C3152 C3151 1.390 . S
C3152 C3153 1.394 . S
C3152 C3158 1.465 . S
C3153 C3148 1.399 . S
C3153 C3152 1.394 . S
C3153 C3154 1.516 . S
C3154 C3153 1.516 . S
C3154 C3155 1.502 . S
C3154 C3156 1.561 . S
C3154 C3157 1.526 . S
C3155 H3139 0.959 . S
C3155 H3140 0.959 . S
C3155 H3141 0.961 . S
C3155 C3154 1.502 . S
C3156 H3142 0.960 . S
C3156 H3143 0.961 . S
C3156 H3144 0.959 . S
C3156 C3154 1.561 . S
C3157 C3154 1.526 . S
C3157 C3158 1.396 . S
C3157 C3162 1.390 . S
C3158 C3152 1.465 . S
C3158 C3157 1.396 . S
C3158 C3159 1.399 . S
C3159 H3145 0.929 . S
C3159 C3158 1.399 . S
C3159 C3160 1.385 . S
C3160 H3146 0.931 . S
C3160 C3159 1.385 . S
C3160 C3161 1.389 . S
C3161 C3160 1.389 . S
C3161 C3162 1.387 . S
C3162 H3147 0.930 . S
C3162 C3157 1.390 . S
C3162 C3161 1.387 . S
H3163 C3175 0.930 . S
H3164 C3177 0.930 . S
H3165 C3178 0.930 . S
H3166 C3182 0.959 . S
H3167 C3182 0.959 . S
H3168 C3182 0.961 . S
H3169 C3183 0.960 . S
H3170 C3183 0.961 . S
H3171 C3183 0.959 . S
H3172 C3186 0.929 . S
H3173 C3187 0.931 . S
H3174 C3189 0.930 . S
C3175 H3163 0.930 . S
C3175 C3176 1.399 . S
C3175 C3180 1.399 . S
C3176 C3175 1.399 . S
C3176 C3177 1.376 . S
C3177 H3164 0.930 . S
C3177 C3176 1.376 . S
C3177 C3178 1.388 . S
C3178 H3165 0.930 . S
C3178 C3177 1.388 . S
C3178 C3179 1.390 . S
C3179 C3178 1.390 . S
C3179 C3180 1.394 . S
C3179 C3185 1.465 . S
C3180 C3175 1.399 . S
C3180 C3179 1.394 . S
C3180 C3181 1.516 . S
C3181 C3180 1.516 . S
C3181 C3182 1.502 . S
C3181 C3183 1.561 . S
C3181 C3184 1.526 . S
C3182 H3166 0.959 . S
C3182 H3167 0.959 . S
C3182 H3168 0.961 . S
C3182 C3181 1.502 . S
C3183 H3169 0.960 . S
C3183 H3170 0.961 . S
C3183 H3171 0.959 . S
C3183 C3181 1.561 . S
C3184 C3181 1.526 . S
C3184 C3185 1.396 . S
C3184 C3189 1.390 . S
C3185 C3179 1.465 . S
C3185 C3184 1.396 . S
C3185 C3186 1.399 . S
C3186 H3172 0.929 . S
C3186 C3185 1.399 . S
C3186 C3187 1.385 . S
C3187 H3173 0.931 . S
C3187 C3186 1.385 . S
C3187 C3188 1.389 . S
C3188 C3187 1.389 . S
C3188 C3189 1.387 . S
C3189 H3174 0.930 . S
C3189 C3184 1.390 . S
C3189 C3188 1.387 . S
H3190 C3202 0.930 . S
H3191 C3204 0.930 . S
H3192 C3205 0.930 . S
H3193 C3209 0.959 . S
H3194 C3209 0.959 . S
H3195 C3209 0.961 . S
H3196 C3210 0.960 . S
H3197 C3210 0.961 . S
H3198 C3210 0.959 1_655 S
H3199 C3213 0.953 . S
H3200 C3214 0.931 . S
H3201 C3216 0.930 . S
C3202 H3190 0.930 . S
C3202 C3203 1.399 . S
C3202 C3207 1.399 . S
C3203 C3202 1.399 . S
C3203 C3204 1.376 . S
C3204 H3191 0.930 . S
C3204 C3203 1.376 . S
C3204 C3205 1.388 . S
C3205 H3192 0.930 . S
C3205 C3204 1.388 . S
C3205 C3206 1.390 . S
C3206 C3205 1.390 . S
C3206 C3207 1.394 . S
C3206 C3212 1.450 1_655 S
C3207 C3202 1.399 . S
C3207 C3206 1.394 . S
C3207 C3208 1.516 1_655 S
C3208 C3207 1.516 1_455 S
C3208 C3209 1.502 . S
C3208 C3210 1.561 . S
C3208 C3211 1.526 . S
C3209 H3193 0.959 . S
C3209 H3194 0.959 . S
C3209 H3195 0.961 . S
C3209 C3208 1.502 . S
C3210 H3196 0.960 . S
C3210 H3197 0.961 . S
C3210 H3198 0.959 1_455 S
C3210 C3208 1.561 . S
C3211 C3208 1.526 . S
C3211 C3212 1.412 . S
C3211 C3216 1.390 . S
C3212 C3206 1.450 1_455 S
C3212 C3211 1.412 . S
C3212 C3213 1.404 1_455 S
C3213 H3199 0.953 . S
C3213 C3212 1.404 1_655 S
C3213 C3214 1.360 1_655 S
C3214 H3200 0.931 . S
C3214 C3213 1.360 1_455 S
C3214 C3215 1.389 . S
C3215 C3214 1.389 . S
C3215 C3216 1.387 . S
C3216 H3201 0.930 . S
C3216 C3211 1.390 . S
C3216 C3215 1.387 . S
H3217 C3229 0.930 . S
H3218 C3231 0.930 . S
H3219 C3232 0.930 . S
H3220 C3236 0.959 . S
H3221 C3236 0.959 . S
H3222 C3236 0.961 . S
H3223 C3237 0.960 . S
H3224 C3237 0.961 . S
H3225 C3237 0.959 . S
H3226 C3240 0.929 . S
H3227 C3241 0.931 . S
H3228 C3243 0.930 . S
C3229 H3217 0.930 . S
C3229 C3230 1.399 . S
C3229 C3234 1.399 . S
C3230 C3229 1.399 . S
C3230 C3231 1.376 . S
C3231 H3218 0.930 . S
C3231 C3230 1.376 . S
C3231 C3232 1.388 . S
C3232 H3219 0.930 . S
C3232 C3231 1.388 . S
C3232 C3233 1.390 . S
C3233 C3232 1.390 . S
C3233 C3234 1.394 . S
C3233 C3239 1.465 . S
C3234 C3229 1.399 . S
C3234 C3233 1.394 . S
C3234 C3235 1.516 . S
C3235 C3234 1.516 . S
C3235 C3236 1.502 . S
C3235 C3237 1.561 . S
C3235 C3238 1.526 . S
C3236 H3220 0.959 . S
C3236 H3221 0.959 . S
C3236 H3222 0.961 . S
C3236 C3235 1.502 . S
C3237 H3223 0.960 . S
C3237 H3224 0.961 . S
C3237 H3225 0.959 . S
C3237 C3235 1.561 . S
C3238 C3235 1.526 . S
C3238 C3239 1.396 . S
C3238 C3243 1.390 . S
C3239 C3233 1.465 . S
C3239 C3238 1.396 . S
C3239 C3240 1.399 . S
C3240 H3226 0.929 . S
C3240 C3239 1.399 . S
C3240 C3241 1.385 . S
C3241 H3227 0.931 . S
C3241 C3240 1.385 . S
C3241 C3242 1.389 . S
C3242 C3241 1.389 . S
C3242 C3243 1.387 . S
C3243 H3228 0.930 . S
C3243 C3238 1.390 . S
C3243 C3242 1.387 . S
H3244 C3256 0.930 . S
H3245 C3258 0.930 . S
H3246 C3259 0.930 . S
H3247 C3263 0.959 . S
H3248 C3263 0.959 . S
H3249 C3263 0.961 . S
H3250 C3264 0.960 . S
H3251 C3264 0.961 . S
H3252 C3264 0.959 . S
H3253 C3267 0.929 . S
H3254 C3268 0.931 . S
H3255 C3270 0.930 . S
C3256 H3244 0.930 . S
C3256 C3257 1.399 . S
C3256 C3261 1.399 . S
C3257 C3256 1.399 . S
C3257 C3258 1.376 . S
C3258 H3245 0.930 . S
C3258 C3257 1.376 . S
C3258 C3259 1.388 . S
C3259 H3246 0.930 . S
C3259 C3258 1.388 . S
C3259 C3260 1.390 . S
C3260 C3259 1.390 . S
C3260 C3261 1.394 . S
C3260 C3266 1.465 . S
C3261 C3256 1.399 . S
C3261 C3260 1.394 . S
C3261 C3262 1.516 . S
C3262 C3261 1.516 . S
C3262 C3263 1.502 . S
C3262 C3264 1.561 . S
C3262 C3265 1.526 . S
C3263 H3247 0.959 . S
C3263 H3248 0.959 . S
C3263 H3249 0.961 . S
C3263 C3262 1.502 . S
C3264 H3250 0.960 . S
C3264 H3251 0.961 . S
C3264 H3252 0.959 . S
C3264 C3262 1.561 . S
C3265 C3262 1.526 . S
C3265 C3266 1.396 . S
C3265 C3270 1.390 . S
C3266 C3260 1.465 . S
C3266 C3265 1.396 . S
C3266 C3267 1.399 . S
C3267 H3253 0.929 . S
C3267 C3266 1.399 . S
C3267 C3268 1.385 . S
C3268 H3254 0.931 . S
C3268 C3267 1.385 . S
C3268 C3269 1.389 . S
C3269 C3268 1.389 . S
C3269 C3270 1.387 . S
C3270 H3255 0.930 . S
C3270 C3265 1.390 . S
C3270 C3269 1.387 . S
H3271 C3283 0.930 . S
H3272 C3285 0.930 . S
H3273 C3286 0.930 . S
H3274 C3290 0.959 . S
H3275 C3290 0.959 . S
H3276 C3290 0.961 . S
H3277 C3291 0.960 . S
H3278 C3291 0.961 . S
H3279 C3291 0.959 . S
H3280 C3294 0.929 . S
H3281 C3295 0.931 . S
H3282 C3297 0.930 . S
C3283 H3271 0.930 . S
C3283 C3284 1.399 . S
C3283 C3288 1.399 . S
C3284 C3283 1.399 . S
C3284 C3285 1.376 . S
C3285 H3272 0.930 . S
C3285 C3284 1.376 . S
C3285 C3286 1.388 . S
C3286 H3273 0.930 . S
C3286 C3285 1.388 . S
C3286 C3287 1.390 . S
C3287 C3286 1.390 . S
C3287 C3288 1.394 . S
C3287 C3293 1.465 . S
C3288 C3283 1.399 . S
C3288 C3287 1.394 . S
C3288 C3289 1.516 . S
C3289 C3288 1.516 . S
C3289 C3290 1.502 . S
C3289 C3291 1.561 . S
C3289 C3292 1.526 . S
C3290 H3274 0.959 . S
C3290 H3275 0.959 . S
C3290 H3276 0.961 . S
C3290 C3289 1.502 . S
C3291 H3277 0.960 . S
C3291 H3278 0.961 . S
C3291 H3279 0.959 . S
C3291 C3289 1.561 . S
C3292 C3289 1.526 . S
C3292 C3293 1.396 . S
C3292 C3297 1.390 . S
C3293 C3287 1.465 . S
C3293 C3292 1.396 . S
C3293 C3294 1.399 . S
C3294 H3280 0.929 . S
C3294 C3293 1.399 . S
C3294 C3295 1.385 . S
C3295 H3281 0.931 . S
C3295 C3294 1.385 . S
C3295 C3296 1.389 . S
C3296 C3295 1.389 . S
C3296 C3297 1.387 . S
C3297 H3282 0.930 . S
C3297 C3292 1.390 . S
C3297 C3296 1.387 . S
H3298 C3310 0.930 . S
H3299 C3312 0.930 . S
H3300 C3313 0.930 . S
H3301 C3317 0.959 . S
H3302 C3317 0.959 . S
H3303 C3317 0.961 . S
H3304 C3318 0.960 . S
H3305 C3318 0.961 . S
H3306 C3318 0.959 1_455 S
H3307 C3321 0.929 . S
H3308 C3322 0.948 . S
H3309 C3324 0.930 . S
C3310 H3298 0.930 . S
C3310 C3311 1.399 . S
C3310 C3315 1.399 . S
C3311 C3310 1.399 . S
C3311 C3312 1.376 . S
C3312 H3299 0.930 . S
C3312 C3311 1.376 . S
C3312 C3313 1.388 . S
C3313 H3300 0.930 . S
C3313 C3312 1.388 . S
C3313 C3314 1.390 . S
C3314 C3313 1.390 . S
C3314 C3315 1.394 . S
C3314 C3320 1.465 . S
C3315 C3310 1.399 . S
C3315 C3314 1.394 . S
C3315 C3316 1.516 . S
C3316 C3315 1.516 . S
C3316 C3317 1.502 . S
C3316 C3318 1.561 . S
C3316 C3319 1.526 . S
C3317 H3301 0.959 . S
C3317 H3302 0.959 . S
C3317 H3303 0.961 . S
C3317 C3316 1.502 . S
C3318 H3304 0.960 . S
C3318 H3305 0.961 . S
C3318 H3306 0.959 1_655 S
C3318 C3316 1.561 . S
C3319 C3316 1.526 . S
C3319 C3320 1.396 . S
C3319 C3324 1.390 . S
C3320 C3314 1.465 . S
C3320 C3319 1.396 . S
C3320 C3321 1.399 . S
C3321 H3307 0.929 . S
C3321 C3320 1.399 . S
C3321 C3322 1.385 . S
C3322 H3308 0.948 . S
C3322 C3321 1.385 . S
C3322 C3323 1.389 . S
C3323 C3322 1.389 . S
C3323 C3324 1.387 . S
C3324 H3309 0.930 . S
C3324 C3319 1.390 . S
C3324 C3323 1.387 . S
H3325 C3337 0.930 . S
H3326 C3339 0.930 . S
H3327 C3340 0.930 . S
H3328 C3344 0.959 . S
H3329 C3344 0.959 . S
H3330 C3344 0.961 . S
H3331 C3345 0.960 . S
H3332 C3345 0.961 . S
H3333 C3345 0.959 . S
H3334 C3348 0.929 . S
H3335 C3349 0.931 . S
H3336 C3351 0.930 . S
C3337 H3325 0.930 . S
C3337 C3338 1.399 . S
C3337 C3342 1.399 . S
C3338 C3337 1.399 . S
C3338 C3339 1.376 . S
C3339 H3326 0.930 . S
C3339 C3338 1.376 . S
C3339 C3340 1.388 . S
C3340 H3327 0.930 . S
C3340 C3339 1.388 . S
C3340 C3341 1.390 . S
C3341 C3340 1.390 . S
C3341 C3342 1.394 . S
C3341 C3347 1.465 . S
C3342 C3337 1.399 . S
C3342 C3341 1.394 . S
C3342 C3343 1.516 . S
C3343 C3342 1.516 . S
C3343 C3344 1.502 . S
C3343 C3345 1.561 . S
C3343 C3346 1.526 . S
C3344 H3328 0.959 . S
C3344 H3329 0.959 . S
C3344 H3330 0.961 . S
C3344 C3343 1.502 . S
C3345 H3331 0.960 . S
C3345 H3332 0.961 . S
C3345 H3333 0.959 . S
C3345 C3343 1.561 . S
C3346 C3343 1.526 . S
C3346 C3347 1.396 . S
C3346 C3351 1.390 . S
C3347 C3341 1.465 . S
C3347 C3346 1.396 . S
C3347 C3348 1.399 . S
C3348 H3334 0.929 . S
C3348 C3347 1.399 . S
C3348 C3349 1.385 . S
C3349 H3335 0.931 . S
C3349 C3348 1.385 . S
C3349 C3350 1.389 . S
C3350 C3349 1.389 . S
C3350 C3351 1.387 . S
C3351 H3336 0.930 . S
C3351 C3346 1.390 . S
C3351 C3350 1.387 . S
H3352 C3364 0.930 . S
H3353 C3366 0.930 . S
H3354 C3367 0.930 . S
H3355 C3371 0.959 . S
H3356 C3371 0.959 . S
H3357 C3371 0.961 . S
H3358 C3372 0.960 . S
H3359 C3372 0.961 . S
H3360 C3372 0.959 . S
H3361 C3375 0.929 . S
H3362 C3376 0.931 . S
H3363 C3378 0.930 . S
C3364 H3352 0.930 . S
C3364 C3365 1.399 . S
C3364 C3369 1.399 . S
C3365 C3364 1.399 . S
C3365 C3366 1.376 . S
C3366 H3353 0.930 . S
C3366 C3365 1.376 . S
C3366 C3367 1.388 . S
C3367 H3354 0.930 . S
C3367 C3366 1.388 . S
C3367 C3368 1.390 . S
C3368 C3367 1.390 . S
C3368 C3369 1.394 . S
C3368 C3374 1.465 . S
C3369 C3364 1.399 . S
C3369 C3368 1.394 . S
C3369 C3370 1.516 . S
C3370 C3369 1.516 . S
C3370 C3371 1.502 . S
C3370 C3372 1.561 . S
C3370 C3373 1.526 . S
C3371 H3355 0.959 . S
C3371 H3356 0.959 . S
C3371 H3357 0.961 . S
C3371 C3370 1.502 . S
C3372 H3358 0.960 . S
C3372 H3359 0.961 . S
C3372 H3360 0.959 . S
C3372 C3370 1.561 . S
C3373 C3370 1.526 . S
C3373 C3374 1.396 . S
C3373 C3378 1.390 . S
C3374 C3368 1.465 . S
C3374 C3373 1.396 . S
C3374 C3375 1.399 . S
C3375 H3361 0.929 . S
C3375 C3374 1.399 . S
C3375 C3376 1.385 . S
C3376 H3362 0.931 . S
C3376 C3375 1.385 . S
C3376 C3377 1.389 . S
C3377 C3376 1.389 . S
C3377 C3378 1.387 . S
C3378 H3363 0.930 . S
C3378 C3373 1.390 . S
C3378 C3377 1.387 . S
H3379 C3391 0.930 . S
H3380 C3393 0.930 . S
H3381 C3394 0.930 . S
H3382 C3398 0.959 . S
H3383 C3398 0.959 1_545 S
H3384 C3398 0.961 . S
H3385 C3399 0.960 . S
H3386 C3399 0.961 . S
H3387 C3399 0.959 . S
H3388 C3402 0.929 . S
H3389 C3403 0.931 . S
H3390 C3405 0.930 1_545 S
C3391 H3379 0.930 . S
C3391 C3392 1.399 . S
C3391 C3396 1.399 . S
C3392 C3391 1.399 . S
C3392 C3393 1.376 . S
C3393 H3380 0.930 . S
C3393 C3392 1.376 . S
C3393 C3394 1.388 . S
C3394 H3381 0.930 . S
C3394 C3393 1.388 . S
C3394 C3395 1.390 . S
C3395 C3394 1.390 . S
C3395 C3396 1.394 . S
C3395 C3401 1.465 . S
C3396 C3391 1.399 . S
C3396 C3395 1.394 . S
C3396 C3397 1.516 . S
C3397 C3396 1.516 . S
C3397 C3398 1.502 . S
C3397 C3399 1.561 . S
C3397 C3400 1.526 . S
C3398 H3382 0.959 . S
C3398 H3383 0.959 1_565 S
C3398 H3384 0.961 . S
C3398 C3397 1.502 . S
C3399 H3385 0.960 . S
C3399 H3386 0.961 . S
C3399 H3387 0.959 . S
C3399 C3397 1.561 . S
C3400 C3397 1.526 . S
C3400 C3401 1.396 . S
C3400 C3405 1.390 . S
C3401 C3395 1.465 . S
C3401 C3400 1.396 . S
C3401 C3402 1.399 . S
C3402 H3388 0.929 . S
C3402 C3401 1.399 . S
C3402 C3403 1.385 . S
C3403 H3389 0.931 . S
C3403 C3402 1.385 . S
C3403 C3404 1.389 . S
C3404 C3403 1.389 . S
C3404 C3405 1.387 . S
C3405 H3390 0.930 1_565 S
C3405 C3400 1.390 . S
C3405 C3404 1.387 . S
H3406 C3418 0.930 . S
H3407 C3420 0.930 . S
H3408 C3421 0.930 . S
H3409 C3425 0.959 . S
H3410 C3425 0.959 . S
H3411 C3425 0.961 . S
H3412 C3426 0.960 . S
H3413 C3426 0.961 . S
H3414 C3426 0.959 . S
H3415 C3429 0.929 . S
H3416 C3430 0.931 . S
H3417 C3432 0.930 . S
C3418 H3406 0.930 . S
C3418 C3419 1.399 . S
C3418 C3423 1.399 . S
C3419 C3418 1.399 . S
C3419 C3420 1.376 . S
C3420 H3407 0.930 . S
C3420 C3419 1.376 . S
C3420 C3421 1.388 . S
C3421 H3408 0.930 . S
C3421 C3420 1.388 . S
C3421 C3422 1.390 . S
C3422 C3421 1.390 . S
C3422 C3423 1.394 . S
C3422 C3428 1.465 . S
C3423 C3418 1.399 . S
C3423 C3422 1.394 . S
C3423 C3424 1.516 . S
C3424 C3423 1.516 . S
C3424 C3425 1.502 . S
C3424 C3426 1.561 . S
C3424 C3427 1.526 . S
C3425 H3409 0.959 . S
C3425 H3410 0.959 . S
C3425 H3411 0.961 . S
C3425 C3424 1.502 . S
C3426 H3412 0.960 . S
C3426 H3413 0.961 . S
C3426 H3414 0.959 . S
C3426 C3424 1.561 . S
C3427 C3424 1.526 . S
C3427 C3428 1.396 . S
C3427 C3432 1.390 . S
C3428 C3422 1.465 . S
C3428 C3427 1.396 . S
C3428 C3429 1.399 . S
C3429 H3415 0.929 . S
C3429 C3428 1.399 . S
C3429 C3430 1.385 . S
C3430 H3416 0.931 . S
C3430 C3429 1.385 . S
C3430 C3431 1.389 . S
C3431 C3430 1.389 . S
C3431 C3432 1.387 . S
C3432 H3417 0.930 . S
C3432 C3427 1.390 . S
C3432 C3431 1.387 . S
H3433 C3445 0.930 . S
H3434 C3447 0.956 . S
H3435 C3448 0.930 . S
H3436 C3452 0.959 . S
H3437 C3452 0.959 . S
H3438 C3452 0.961 . S
H3439 C3453 0.960 . S
H3440 C3453 0.961 . S
H3441 C3453 0.959 . S
H3442 C3456 0.929 . S
H3443 C3457 0.931 1_556 S
H3444 C3459 0.930 . S
C3445 H3433 0.930 . S
C3445 C3446 1.399 . S
C3445 C3450 1.399 . S
C3446 C3445 1.399 . S
C3446 C3447 1.352 1_554 S
C3447 H3434 0.956 . S
C3447 C3446 1.352 1_556 S
C3447 C3448 1.388 . S
C3448 H3435 0.930 . S
C3448 C3447 1.388 . S
C3448 C3449 1.390 1_556 S
C3449 C3448 1.390 1_554 S
C3449 C3450 1.394 . S
C3449 C3455 1.465 . S
C3450 C3445 1.399 . S
C3450 C3449 1.394 . S
C3450 C3451 1.516 . S
C3451 C3450 1.516 . S
C3451 C3452 1.502 . S
C3451 C3453 1.561 . S
C3451 C3454 1.526 . S
C3452 H3436 0.959 . S
C3452 H3437 0.959 . S
C3452 H3438 0.961 . S
C3452 C3451 1.502 . S
C3453 H3439 0.960 . S
C3453 H3440 0.961 . S
C3453 H3441 0.959 . S
C3453 C3451 1.561 . S
C3454 C3451 1.526 . S
C3454 C3455 1.396 . S
C3454 C3459 1.390 . S
C3455 C3449 1.465 . S
C3455 C3454 1.396 . S
C3455 C3456 1.399 1_554 S
C3456 H3442 0.929 . S
C3456 C3455 1.399 1_556 S
C3456 C3457 1.385 1_556 S
C3457 H3443 0.931 1_554 S
C3457 C3456 1.385 1_554 S
C3457 C3458 1.389 . S
C3458 C3457 1.389 . S
C3458 C3459 1.387 . S
C3459 H3444 0.930 . S
C3459 C3454 1.390 . S
C3459 C3458 1.387 . S
H3460 C3472 0.930 . S
H3461 C3474 0.930 . S
H3462 C3475 0.930 . S
H3463 C3479 0.959 . S
H3464 C3479 0.959 . S
H3465 C3479 0.961 . S
H3466 C3480 0.960 . S
H3467 C3480 0.961 . S
H3468 C3480 0.959 . S
H3469 C3483 0.929 . S
H3470 C3484 0.931 . S
H3471 C3486 0.930 . S
C3472 H3460 0.930 . S
C3472 C3473 1.399 . S
C3472 C3477 1.399 . S
C3473 C3472 1.399 . S
C3473 C3474 1.376 . S
C3474 H3461 0.930 . S
C3474 C3473 1.376 . S
C3474 C3475 1.388 . S
C3475 H3462 0.930 . S
C3475 C3474 1.388 . S
C3475 C3476 1.390 . S
C3476 C3475 1.390 . S
C3476 C3477 1.394 . S
C3476 C3482 1.465 . S
C3477 C3472 1.399 . S
C3477 C3476 1.394 . S
C3477 C3478 1.516 . S
C3478 C3477 1.516 . S
C3478 C3479 1.502 . S
C3478 C3480 1.561 . S
C3478 C3481 1.526 . S
C3479 H3463 0.959 . S
C3479 H3464 0.959 . S
C3479 H3465 0.961 . S
C3479 C3478 1.502 . S
C3480 H3466 0.960 . S
C3480 H3467 0.961 . S
C3480 H3468 0.959 . S
C3480 C3478 1.561 . S
C3481 C3478 1.526 . S
C3481 C3482 1.396 . S
C3481 C3486 1.390 . S
C3482 C3476 1.465 . S
C3482 C3481 1.396 . S
C3482 C3483 1.399 . S
C3483 H3469 0.929 . S
C3483 C3482 1.399 . S
C3483 C3484 1.385 . S
C3484 H3470 0.931 . S
C3484 C3483 1.385 . S
C3484 C3485 1.389 . S
C3485 C3484 1.389 . S
C3485 C3486 1.387 . S
C3486 H3471 0.930 . S
C3486 C3481 1.390 . S
C3486 C3485 1.387 . S
H3487 C3499 0.930 . S
H3488 C3501 0.954 . S
H3489 C3502 0.886 1_556 S
H3490 C3506 0.959 . S
H3491 C3506 0.959 . S
H3492 C3506 0.961 . S
H3493 C3507 0.960 . S
H3494 C3507 0.961 . S
H3495 C3507 0.959 . S
H3496 C3510 0.929 . S
H3497 C3511 0.931 . S
H3498 C3513 0.930 . S
C3499 H3487 0.930 . S
C3499 C3500 1.399 . S
C3499 C3504 1.399 . S
C3500 C3499 1.399 . S
C3500 C3501 1.376 . S
C3501 H3488 0.954 . S
C3501 C3500 1.376 . S
C3501 C3502 1.407 . S
C3502 H3489 0.886 1_554 S
C3502 C3501 1.407 . S
C3502 C3503 1.417 . S
C3503 C3502 1.417 . S
C3503 C3504 1.394 . S
C3503 C3509 1.465 . S
C3504 C3499 1.399 . S
C3504 C3503 1.394 . S
C3504 C3505 1.516 . S
C3505 C3504 1.516 . S
C3505 C3506 1.502 . S
C3505 C3507 1.561 . S
C3505 C3508 1.526 . S
C3506 H3490 0.959 . S
C3506 H3491 0.959 . S
C3506 H3492 0.961 . S
C3506 C3505 1.502 . S
C3507 H3493 0.960 . S
C3507 H3494 0.961 . S
C3507 H3495 0.959 . S
C3507 C3505 1.561 . S
C3508 C3505 1.526 . S
C3508 C3509 1.396 . S
C3508 C3513 1.390 . S
C3509 C3503 1.465 . S
C3509 C3508 1.396 . S
C3509 C3510 1.399 1_554 S
C3510 H3496 0.929 . S
C3510 C3509 1.399 1_556 S
C3510 C3511 1.385 . S
C3511 H3497 0.931 . S
C3511 C3510 1.385 . S
C3511 C3512 1.389 1_556 S
C3512 C3511 1.389 1_554 S
C3512 C3513 1.387 . S
C3513 H3498 0.930 . S
C3513 C3508 1.390 . S
C3513 C3512 1.387 . S
H3514 C3526 0.930 . S
H3515 C3528 0.930 . S
H3516 C3529 0.930 . S
H3517 C3533 0.959 . S
H3518 C3533 0.959 . S
H3519 C3533 0.961 . S
H3520 C3534 0.960 . S
H3521 C3534 0.961 . S
H3522 C3534 0.959 . S
H3523 C3537 0.929 . S
H3524 C3538 0.931 . S
H3525 C3540 0.930 . S
C3526 H3514 0.930 . S
C3526 C3527 1.399 . S
C3526 C3531 1.399 . S
C3527 C3526 1.399 . S
C3527 C3528 1.376 . S
C3528 H3515 0.930 . S
C3528 C3527 1.376 . S
C3528 C3529 1.388 . S
C3529 H3516 0.930 . S
C3529 C3528 1.388 . S
C3529 C3530 1.390 . S
C3530 C3529 1.390 . S
C3530 C3531 1.394 . S
C3530 C3536 1.465 . S
C3531 C3526 1.399 . S
C3531 C3530 1.394 . S
C3531 C3532 1.516 . S
C3532 C3531 1.516 . S
C3532 C3533 1.502 . S
C3532 C3534 1.561 . S
C3532 C3535 1.526 . S
C3533 H3517 0.959 . S
C3533 H3518 0.959 . S
C3533 H3519 0.961 . S
C3533 C3532 1.502 . S
C3534 H3520 0.960 . S
C3534 H3521 0.961 . S
C3534 H3522 0.959 . S
C3534 C3532 1.561 . S
C3535 C3532 1.526 . S
C3535 C3536 1.396 . S
C3535 C3540 1.390 . S
C3536 C3530 1.465 . S
C3536 C3535 1.396 . S
C3536 C3537 1.399 . S
C3537 H3523 0.929 . S
C3537 C3536 1.399 . S
C3537 C3538 1.385 . S
C3538 H3524 0.931 . S
C3538 C3537 1.385 . S
C3538 C3539 1.389 . S
C3539 C3538 1.389 . S
C3539 C3540 1.387 . S
C3540 H3525 0.930 . S
C3540 C3535 1.390 . S
C3540 C3539 1.387 . S
H3541 C3553 0.930 . S
H3542 C3555 0.930 . S
H3543 C3556 0.930 . S
H3544 C3560 0.959 . S
H3545 C3560 0.959 . S
H3546 C3560 0.961 . S
H3547 C3561 0.960 . S
H3548 C3561 0.961 . S
H3549 C3561 0.959 . S
H3550 C3564 0.929 . S
H3551 C3565 0.931 . S
H3552 C3567 0.930 . S
C3553 H3541 0.930 . S
C3553 C3554 1.399 . S
C3553 C3558 1.399 . S
C3554 C3553 1.399 . S
C3554 C3555 1.376 . S
C3555 H3542 0.930 . S
C3555 C3554 1.376 . S
C3555 C3556 1.388 . S
C3556 H3543 0.930 . S
C3556 C3555 1.388 . S
C3556 C3557 1.390 . S
C3557 C3556 1.390 . S
C3557 C3558 1.394 . S
C3557 C3563 1.465 . S
C3558 C3553 1.399 . S
C3558 C3557 1.394 . S
C3558 C3559 1.516 . S
C3559 C3558 1.516 . S
C3559 C3560 1.502 . S
C3559 C3561 1.561 . S
C3559 C3562 1.526 . S
C3560 H3544 0.959 . S
C3560 H3545 0.959 . S
C3560 H3546 0.961 . S
C3560 C3559 1.502 . S
C3561 H3547 0.960 . S
C3561 H3548 0.961 . S
C3561 H3549 0.959 . S
C3561 C3559 1.561 . S
C3562 C3559 1.526 . S
C3562 C3563 1.396 . S
C3562 C3567 1.390 . S
C3563 C3557 1.465 . S
C3563 C3562 1.396 . S
C3563 C3564 1.399 . S
C3564 H3550 0.929 . S
C3564 C3563 1.399 . S
C3564 C3565 1.385 . S
C3565 H3551 0.931 . S
C3565 C3564 1.385 . S
C3565 C3566 1.389 . S
C3566 C3565 1.389 . S
C3566 C3567 1.387 . S
C3567 H3552 0.930 . S
C3567 C3562 1.390 . S
C3567 C3566 1.387 . S
C989 C106 2.609 . S
C1001 C346 2.574 . S
C1016 C65 2.093 . S
C1028 C394 2.087 . S
C1043 C79 1.589 . S
C1055 C426 1.493 . S
C1082 C471 1.154 . S
C1070 C90 1.105 . S
C1097 C21 1.105 . S
C1109 C511 1.085 . S
C1136 C542 0.703 . S
C1124 C35 0.547 . S
C1163 C594 1.361 . S
C1151 C50 1.305 . S
C1178 C6 1.857 . S
C1190 C626 1.854 . S
C1217 C354 2.694 . S
C1205 C232 2.678 . S
C1232 C245 0.726 . S
C1244 C391 0.570 . S
C1271 C434 1.317 . S
C1259 C274 1.346 . S
C1298 C466 1.358 . S
C1286 C175 1.318 . S
C1313 C231 1.636 . S
C1325 C506 1.688 . S
C1352 C545 1.399 . S
C1340 C246 1.413 . S
C1379 C591 0.432 . S
C1367 C273 0.435 . S
C1406 C634 2.256 . S
C1394 C176 2.266 . S
C1433 C351 1.491 . S
C1421 C160 1.479 . S
C1448 C289 1.948 . S
C1460 C674 1.944 . S
C1487 C715 2.713 . S
C1475 C328 2.688 . S
C1514 C746 0.905 1_655 S
C1502 C317 0.880 . S
C1529 C118 1.517 . S
C1541 C631 1.658 . S
C1556 C132 1.564 . S
C1568 C431 1.576 . S
C1583 C331 2.331 . S
C1595 C794 2.315 . S
C1622 C826 0.881 . S
C1610 C303 0.852 . S
C1649 C355 2.130 . S
C1637 C63 2.170 . S
C1676 C825 2.558 . S
C1664 C107 2.503 . S
C1691 C92 1.343 . S
C1703 C435 1.307 . S
C1718 C78 1.617 . S
C1730 C782 1.617 . S
C1757 C502 1.513 . S
C1745 C8 1.523 . S
C1772 C51 0.656 . S
C1784 C711 0.668 . S
C1811 C585 1.850 1_556 S
C1799 C37 1.775 . S
C1838 C875 1.695 . S
C1826 C20 1.791 . S
C1865 C345 2.512 . S
C1853 C147 2.469 . S
C1892 C822 0.625 . S
C1880 C316 0.652 . S
C1907 C119 1.240 . S
C1919 C425 1.256 . S
C1934 C288 1.460 . S
C1946 C795 1.483 . S
C1961 C148 2.096 1_545 S
C1973 C515 2.062 . S
C2000 C714 1.397 . S
C1988 C315 1.319 . S
C2015 C120 0.435 . S
C2027 C582 0.440 . S
C2042 C287 2.072 . S
C2054 C865 2.079 . S
C2069 C188 1.407 . S
C2081 C342 1.425 . S
C2096 C177 2.237 . S
C2108 C665 2.285 . S
C2123 C258 2.782 . S
C2135 C546 2.807 . S
C2150 C247 0.874 . S
C2162 C755 0.871 . S
C2189 C862 1.309 . S
C2177 C272 1.409 1_565 S
C2204 C216 1.423 . S
C2216 C422 1.398 . S
C2243 C465 2.547 . S
C2231 C261 2.517 . S
C2270 C395 0.834 . S
C2258 C205 0.761 . S
C2285 C76 2.170 . S
C2297 C906 2.213 . S
C2324 C834 2.190 . S
C2312 C93 2.195 . S
C2339 C105 1.219 . S
C2351 C946 1.128 . S
C2366 C62 1.212 . S
C2378 C791 1.178 . S
C2393 C49 1.056 . S
C2405 C671 1.183 . S
C2432 C702 0.894 . S
C2420 C9 0.920 . S
C2459 C754 1.223 . S
C2447 C22 1.252 . S
C2486 C866 2.182 . S
C2474 C36 2.302 . S
C2513 C914 2.642 . S
C2501 C260 2.633 . S
C2528 C189 0.633 . S
C2540 C831 0.505 . S
C2567 C954 1.222 . S
C2555 C204 1.197 . S
C2594 C786 1.129 . S
C2582 C217 1.211 . S
C2621 C666 1.971 . S
C2609 C259 1.911 . S
C2636 C190 1.507 . S
C2648 C705 1.490 . S
C2675 C751 0.502 . S
C2663 C203 0.530 . S
C2690 C218 2.344 . S
C2702 C874 2.355 . S
C2729 C911 1.532 . S
C2717 C314 1.460 . S
C2744 C135 2.030 . S
C2756 C514 2.026 . S
C2783 C555 2.564 . S
C2771 C146 2.556 . S
C2810 C586 0.811 . S
C2798 C163 0.825 . S
C2837 C871 1.653 . S
C2825 C300 1.547 . S
C2852 C286 1.589 . S
C2864 C951 1.553 . S
C2891 C474 2.226 . S
C2879 C149 2.248 . S
C2918 C386 0.880 . S
C2906 C121 0.802 . S
C2933 C91 2.156 . S
C2945 C915 2.127 . S
C2972 C385 2.134 . S
C2960 C77 2.004 . S
C2987 C64 1.302 . S
C2999 C955 1.292 . S
C3014 C104 1.339 . S
C3026 C462 1.312 . S
C3041 C34 1.147 . S
C3053 C662 1.243 . S
C3080 C551 0.622 . S
C3068 C23 0.592 . S
C3095 C7 1.255 . S
C3107 C745 1.459 . S
C3122 C48 1.717 . S
C3134 C635 1.720 . S
C3161 C905 2.465 . S
C3149 C329 2.430 . S
C3176 C162 0.649 . S
C3188 C382 0.722 . S
C3215 C945 1.254 . S
C3203 C301 1.245 . S
C3230 C134 1.481 . S
C3242 C475 1.496 . S
C3257 C330 2.044 . S
C3269 C675 2.010 . S
C3296 C554 1.385 . S
C3284 C161 1.411 . S
C3311 C302 0.517 . S
C3323 C742 0.564 . S
C3350 C625 2.069 . S
C3338 C133 2.062 . S
C3377 C902 1.487 . S
C3365 C244 1.578 . S
C3404 C505 2.227 1_665 S
C3392 C219 2.173 . S
C3419 C230 2.434 . S
C3431 C706 2.479 . S
C3458 C595 0.842 . S
C3446 C191 0.810 . S
C3473 C202 1.439 . S
C3485 C622 1.521 . S
C3500 C174 1.532 . S
C3512 C942 1.599 . S
C3539 C785 2.513 . S
C3527 C233 2.517 1_565 S
C3566 C835 0.722 . S
C3554 C275 0.785 . S
