# Generated by pormake.
# Topology ocu, (6,8)-cn, num edge types: 1
# Building blocks:
#     Node 0, Type 0, BuildingBlock: JUFBIX_clean_sbu_0, # of connection points: 6
#     Node 1, Type 0, BuildingBlock: JUFBIX_clean_sbu_0, # of connection points: 6
#     Node 2, Type 0, BuildingBlock: JUFBIX_clean_sbu_0, # of connection points: 6
#     Node 3, Type 0, BuildingBlock: JUFBIX_clean_sbu_0, # of connection points: 6
#     Node 4, Type 0, BuildingBlock: JUFBIX_clean_sbu_0, # of connection points: 6
#     Node 5, Type 0, BuildingBlock: JUFBIX_clean_sbu_0, # of connection points: 6
#     Node 6, Type 0, BuildingBlock: JUFBIX_clean_sbu_0, # of connection points: 6
#     Node 7, Type 0, BuildingBlock: JUFBIX_clean_sbu_0, # of connection points: 6
#     Node 8, Type 1, BuildingBlock: VETTIZ_charged_sbu_0, # of connection points: 8
#     Node 9, Type 1, BuildingBlock: VETTIZ_charged_sbu_0, # of connection points: 8
#     Node 10, Type 1, BuildingBlock: VETTIZ_charged_sbu_0, # of connection points: 8
#     Node 11, Type 1, BuildingBlock: VETTIZ_charged_sbu_0, # of connection points: 8
#     Node 12, Type 1, BuildingBlock: VETTIZ_charged_sbu_0, # of connection points: 8
#     Node 13, Type 1, BuildingBlock: VETTIZ_charged_sbu_0, # of connection points: 8
#     Edge 14, Type (0, 1), BuildingBlock: XUDNAN_clean_linker_2, # of connection points: 2
#     Edge 15, Type (0, 1), BuildingBlock: XUDNAN_clean_linker_2, # of connection points: 2
#     Edge 16, Type (0, 1), BuildingBlock: XUDNAN_clean_linker_2, # of connection points: 2
#     Edge 17, Type (0, 1), BuildingBlock: XUDNAN_clean_linker_2, # of connection points: 2
#     Edge 18, Type (0, 1), BuildingBlock: XUDNAN_clean_linker_2, # of connection points: 2
#     Edge 19, Type (0, 1), BuildingBlock: XUDNAN_clean_linker_2, # of connection points: 2
#     Edge 20, Type (0, 1), BuildingBlock: XUDNAN_clean_linker_2, # of connection points: 2
#     Edge 21, Type (0, 1), BuildingBlock: XUDNAN_clean_linker_2, # of connection points: 2
#     Edge 22, Type (0, 1), BuildingBlock: XUDNAN_clean_linker_2, # of connection points: 2
#     Edge 23, Type (0, 1), BuildingBlock: XUDNAN_clean_linker_2, # of connection points: 2
#     Edge 24, Type (0, 1), BuildingBlock: XUDNAN_clean_linker_2, # of connection points: 2
#     Edge 25, Type (0, 1), BuildingBlock: XUDNAN_clean_linker_2, # of connection points: 2
#     Edge 26, Type (0, 1), BuildingBlock: XUDNAN_clean_linker_2, # of connection points: 2
#     Edge 27, Type (0, 1), BuildingBlock: XUDNAN_clean_linker_2, # of connection points: 2
#     Edge 28, Type (0, 1), BuildingBlock: XUDNAN_clean_linker_2, # of connection points: 2
#     Edge 29, Type (0, 1), BuildingBlock: XUDNAN_clean_linker_2, # of connection points: 2
#     Edge 30, Type (0, 1), BuildingBlock: XUDNAN_clean_linker_2, # of connection points: 2
#     Edge 31, Type (0, 1), BuildingBlock: XUDNAN_clean_linker_2, # of connection points: 2
#     Edge 32, Type (0, 1), BuildingBlock: XUDNAN_clean_linker_2, # of connection points: 2
#     Edge 33, Type (0, 1), BuildingBlock: XUDNAN_clean_linker_2, # of connection points: 2
#     Edge 34, Type (0, 1), BuildingBlock: XUDNAN_clean_linker_2, # of connection points: 2
#     Edge 35, Type (0, 1), BuildingBlock: XUDNAN_clean_linker_2, # of connection points: 2
#     Edge 36, Type (0, 1), BuildingBlock: XUDNAN_clean_linker_2, # of connection points: 2
#     Edge 37, Type (0, 1), BuildingBlock: XUDNAN_clean_linker_2, # of connection points: 2
#     Edge 38, Type (0, 1), BuildingBlock: XUDNAN_clean_linker_2, # of connection points: 2
#     Edge 39, Type (0, 1), BuildingBlock: XUDNAN_clean_linker_2, # of connection points: 2
#     Edge 40, Type (0, 1), BuildingBlock: XUDNAN_clean_linker_2, # of connection points: 2
#     Edge 41, Type (0, 1), BuildingBlock: XUDNAN_clean_linker_2, # of connection points: 2
#     Edge 42, Type (0, 1), BuildingBlock: XUDNAN_clean_linker_2, # of connection points: 2
#     Edge 43, Type (0, 1), BuildingBlock: XUDNAN_clean_linker_2, # of connection points: 2
#     Edge 44, Type (0, 1), BuildingBlock: XUDNAN_clean_linker_2, # of connection points: 2
#     Edge 45, Type (0, 1), BuildingBlock: XUDNAN_clean_linker_2, # of connection points: 2
#     Edge 46, Type (0, 1), BuildingBlock: XUDNAN_clean_linker_2, # of connection points: 2
#     Edge 47, Type (0, 1), BuildingBlock: XUDNAN_clean_linker_2, # of connection points: 2
#     Edge 48, Type (0, 1), BuildingBlock: XUDNAN_clean_linker_2, # of connection points: 2
#     Edge 49, Type (0, 1), BuildingBlock: XUDNAN_clean_linker_2, # of connection points: 2
#     Edge 50, Type (0, 1), BuildingBlock: XUDNAN_clean_linker_2, # of connection points: 2
#     Edge 51, Type (0, 1), BuildingBlock: XUDNAN_clean_linker_2, # of connection points: 2
#     Edge 52, Type (0, 1), BuildingBlock: XUDNAN_clean_linker_2, # of connection points: 2
#     Edge 53, Type (0, 1), BuildingBlock: XUDNAN_clean_linker_2, # of connection points: 2
#     Edge 54, Type (0, 1), BuildingBlock: XUDNAN_clean_linker_2, # of connection points: 2
#     Edge 55, Type (0, 1), BuildingBlock: XUDNAN_clean_linker_2, # of connection points: 2
#     Edge 56, Type (0, 1), BuildingBlock: XUDNAN_clean_linker_2, # of connection points: 2
#     Edge 57, Type (0, 1), BuildingBlock: XUDNAN_clean_linker_2, # of connection points: 2
#     Edge 58, Type (0, 1), BuildingBlock: XUDNAN_clean_linker_2, # of connection points: 2
#     Edge 59, Type (0, 1), BuildingBlock: XUDNAN_clean_linker_2, # of connection points: 2
#     Edge 60, Type (0, 1), BuildingBlock: XUDNAN_clean_linker_2, # of connection points: 2
#     Edge 61, Type (0, 1), BuildingBlock: XUDNAN_clean_linker_2, # of connection points: 2
# Relax obj value: 0.158
# Max RMSD: 0.269
# Mean RMSD: 0.151
data_MOF--net-ocu--node1-JUFBIX_clean_sbu_0--node2-VETTIZ_charged_sbu_0--edge1-XUDNAN_clean_linker_2
_symmetry_space_group_name_H-M    P1
_symmetry_Int_Tables_number       1
_symmetry_cell_setting            triclinic
loop_
_symmetry_equiv_pos_as_xyz
'x, y, z'
_cell_length_a     37.157544
_cell_length_b     38.235306
_cell_length_c     37.290954
_cell_angle_alpha  93.537107
_cell_angle_beta   92.228619
_cell_angle_gamma 89.612569
loop_
_atom_site_label
_atom_site_type_symbol
_atom_site_fract_x
_atom_site_fract_y
_atom_site_fract_z
_atom_type_partial_charge
Co0 Co 0.24488 0.23272 0.26184 0.0
C1 C 0.2228 0.27861 0.3179 0.0
Co2 Co 0.27996 0.27865 0.27205 0.0
C3 C 0.20257 0.17373 0.27753 0.0
C4 C 0.20245 0.18062 0.22104 0.0
N5 N 0.21635 0.19372 0.25305 0.0
N6 N 0.18034 0.14893 0.26217 0.0
C7 C 0.17994 0.15318 0.22663 0.0
H8 H 0.20753 0.17823 0.30625 0.0
H9 H 0.20757 0.19101 0.19539 0.0
C10 C 0.3036 0.23332 0.2168 0.0
N11 N 0.30863 0.31833 0.27971 0.0
C12 C 0.30211 0.34997 0.26652 0.0
C13 C 0.34349 0.31957 0.29125 0.0
N14 N 0.33162 0.37018 0.26774 0.0
C15 C 0.35771 0.35124 0.28361 0.0
C16 C 0.3015 0.22232 0.31263 0.0
O17 O 0.27653 0.21547 0.22483 0.0
O18 O 0.30945 0.26269 0.23372 0.0
O19 O 0.31053 0.25318 0.30554 0.0
O20 O 0.27345 0.20895 0.29679 0.0
O21 O 0.25118 0.29461 0.31058 0.0
H22 H 0.35883 0.29759 0.30065 0.0
H23 H 0.27766 0.3567 0.25182 0.0
O24 O 0.21372 0.25074 0.2993 0.0
O25 O 0.21595 0.25591 0.22744 0.0
O26 O 0.24815 0.30298 0.23816 0.0
C27 C 0.22155 0.28762 0.22152 0.0
H28 H 0.16421 0.13784 0.20636 0.0
H29 H 0.38604 0.35786 0.28506 0.0
Co30 Co 0.79359 0.26056 0.24293 0.0
C31 C 0.8083 0.31619 0.2961 0.0
Co32 Co 0.75455 0.26828 0.28544 0.0
C33 C 0.83451 0.29085 0.19294 0.0
C34 C 0.84639 0.23612 0.18938 0.0
N35 N 0.82652 0.26071 0.20729 0.0
N36 N 0.85769 0.28653 0.16646 0.0
C37 C 0.86594 0.25217 0.16401 0.0
H38 H 0.82306 0.31598 0.20152 0.0
H39 H 0.84622 0.20847 0.19401 0.0
C40 C 0.73904 0.21301 0.23238 0.0
N41 N 0.72139 0.26922 0.32099 0.0
C42 C 0.71554 0.24263 0.34201 0.0
C43 C 0.69619 0.29354 0.32992 0.0
N44 N 0.68793 0.24922 0.36357 0.0
C45 C 0.67511 0.28098 0.35594 0.0
C46 C 0.73526 0.30566 0.22654 0.0
O47 O 0.76859 0.22139 0.21902 0.0
O48 O 0.72934 0.22954 0.26112 0.0
O49 O 0.72471 0.3003 0.25782 0.0
O50 O 0.76391 0.29073 0.21636 0.0
O51 O 0.77948 0.30683 0.30991 0.0
H52 H 0.69258 0.31823 0.31754 0.0
H53 H 0.7299 0.21789 0.34027 0.0
O54 O 0.81815 0.30008 0.26723 0.0
O55 O 0.82342 0.2306 0.26901 0.0
O56 O 0.78529 0.23658 0.31229 0.0
C57 C 0.81465 0.22394 0.30038 0.0
H58 H 0.88366 0.23959 0.14473 0.0
H59 H 0.65189 0.29369 0.36774 0.0
Co60 Co 0.76943 0.73571 0.2915 0.0
C61 C 0.8184 0.78574 0.31795 0.0
Co62 Co 0.77212 0.77956 0.25647 0.0
C63 C 0.79117 0.67207 0.32186 0.0
C64 C 0.73791 0.6863 0.33697 0.0
N65 N 0.76618 0.6974 0.31896 0.0
N66 N 0.77959 0.64552 0.34023 0.0
C67 C 0.74637 0.65438 0.3506 0.0
H68 H 0.81763 0.67284 0.31081 0.0
H69 H 0.71248 0.70001 0.33931 0.0
C70 C 0.72287 0.72915 0.23074 0.0
N71 N 0.77424 0.81779 0.22867 0.0
C72 C 0.76251 0.85049 0.23773 0.0
C73 C 0.78129 0.81798 0.19352 0.0
N74 N 0.76025 0.87068 0.2094 0.0
C75 C 0.77271 0.85046 0.1816 0.0
C76 C 0.81945 0.72453 0.23574 0.0
O77 O 0.73279 0.7157 0.25983 0.0
O78 O 0.73632 0.75834 0.22362 0.0
O79 O 0.80973 0.75536 0.22819 0.0
O80 O 0.80544 0.7115 0.26247 0.0
O81 O 0.80773 0.8007 0.28981 0.0
H82 H 0.78903 0.79521 0.17688 0.0
H83 H 0.75302 0.85869 0.26399 0.0
O84 O 0.80616 0.75557 0.3233 0.0
O85 O 0.73413 0.76035 0.32052 0.0
O86 O 0.73437 0.8032 0.28471 0.0
C87 C 0.72277 0.79054 0.3128 0.0
H88 H 0.72938 0.63864 0.36612 0.0
H89 H 0.77185 0.85726 0.15382 0.0
Co90 Co 0.25504 0.78783 0.27583 0.0
C91 C 0.3021 0.79347 0.33234 0.0
Co92 Co 0.29569 0.74631 0.27235 0.0
C93 C 0.18386 0.81637 0.27955 0.0
C94 C 0.22235 0.85569 0.2699 0.0
N95 N 0.2192 0.82123 0.27501 0.0
N96 N 0.16491 0.8464 0.27818 0.0
C97 C 0.189 0.8712 0.27186 0.0
H98 H 0.1723 0.7917 0.28587 0.0
H99 H 0.24741 0.86917 0.26679 0.0
C100 C 0.24749 0.74059 0.21633 0.0
N101 N 0.33265 0.71419 0.27224 0.0
C102 C 0.35548 0.71099 0.24522 0.0
C103 C 0.35114 0.70231 0.30095 0.0
N104 N 0.38842 0.70058 0.25636 0.0
C105 C 0.3857 0.69391 0.29119 0.0
C106 C 0.23653 0.72623 0.31274 0.0
O107 O 0.23531 0.76789 0.23265 0.0
O108 O 0.27477 0.72504 0.22957 0.0
O109 O 0.2671 0.71661 0.30094 0.0
O110 O 0.22474 0.75634 0.30425 0.0
O111 O 0.31592 0.76749 0.31515 0.0
H112 H 0.3417 0.70384 0.32808 0.0
H113 H 0.349 0.71959 0.21862 0.0
O114 O 0.27439 0.80826 0.31927 0.0
O115 O 0.28601 0.8184 0.24834 0.0
O116 O 0.3252 0.77635 0.24352 0.0
C117 C 0.31579 0.80711 0.23606 0.0
H118 H 0.18348 0.89907 0.27221 0.0
H119 H 0.40779 0.68661 0.30903 0.0
Co120 Co 0.27951 0.76264 0.75147 0.0
C121 C 0.29665 0.81843 0.80266 0.0
Co122 Co 0.23883 0.77353 0.7924 0.0
C123 C 0.32387 0.78111 0.69554 0.0
C124 C 0.34037 0.73127 0.71354 0.0
N125 N 0.31532 0.75675 0.71837 0.0
N126 N 0.35281 0.77199 0.67668 0.0
C127 C 0.36388 0.74087 0.68802 0.0
H128 H 0.3104 0.80619 0.69399 0.0
H129 H 0.34224 0.70789 0.72843 0.0
C130 C 0.22278 0.71714 0.74127 0.0
N131 N 0.20192 0.78143 0.82475 0.0
C132 C 0.19856 0.76715 0.85658 0.0
C133 C 0.16989 0.79772 0.81888 0.0
N134 N 0.16585 0.77305 0.87006 0.0
C135 C 0.14759 0.79218 0.84644 0.0
C136 C 0.22466 0.80792 0.73027 0.0
O137 O 0.25322 0.72406 0.72899 0.0
O138 O 0.21183 0.73515 0.76873 0.0
O139 O 0.21548 0.80421 0.76199 0.0
O140 O 0.2532 0.79295 0.71955 0.0
O141 O 0.26663 0.81136 0.81591 0.0
H142 H 0.1618 0.81073 0.79497 0.0
H143 H 0.21827 0.74986 0.86827 0.0
O144 O 0.30583 0.80134 0.77407 0.0
O145 O 0.30474 0.73173 0.78395 0.0
O146 O 0.26246 0.74212 0.82258 0.0
C147 C 0.29153 0.72659 0.81428 0.0
H148 H 0.38747 0.72659 0.67904 0.0
H149 H 0.11939 0.79929 0.84771 0.0
Co150 Co 0.27345 0.24916 0.78145 0.0
C151 C 0.32354 0.29846 0.80916 0.0
Co152 Co 0.2778 0.29415 0.74866 0.0
C153 C 0.28247 0.17782 0.79888 0.0
C154 C 0.26304 0.20954 0.84334 0.0
N155 N 0.27054 0.21036 0.80835 0.0
N156 N 0.2845 0.15716 0.82685 0.0
C157 C 0.2716 0.17688 0.85478 0.0
H158 H 0.29236 0.17011 0.77265 0.0
H159 H 0.25508 0.23206 0.86024 0.0
C160 C 0.22705 0.24593 0.72102 0.0
N161 N 0.28179 0.33287 0.72204 0.0
C162 C 0.25704 0.35844 0.71925 0.0
C163 C 0.30956 0.34301 0.70277 0.0
N164 N 0.2682 0.38413 0.69946 0.0
C165 C 0.30094 0.37448 0.68826 0.0
C166 C 0.32266 0.23847 0.72556 0.0
O167 O 0.23903 0.22891 0.74725 0.0
O168 O 0.23895 0.27663 0.71752 0.0
O169 O 0.311 0.26854 0.71774 0.0
O170 O 0.31196 0.2262 0.75419 0.0
O171 O 0.316 0.31172 0.7794 0.0
H172 H 0.33444 0.32854 0.69946 0.0
H173 H 0.23072 0.35795 0.73066 0.0
O174 O 0.30811 0.27013 0.81601 0.0
O175 O 0.23486 0.27213 0.80814 0.0
O176 O 0.24418 0.31945 0.78 0.0
C177 C 0.2278 0.30431 0.804 0.0
H178 H 0.27219 0.16964 0.88242 0.0
H179 H 0.31718 0.38902 0.6709 0.0
Co180 Co 0.74952 0.28663 0.76566 0.0
C181 C 0.80114 0.2929 0.82005 0.0
Co182 Co 0.78698 0.24257 0.76458 0.0
C183 C 0.6975 0.32851 0.79822 0.0
C184 C 0.69233 0.33165 0.74122 0.0
N185 N 0.71456 0.32063 0.7677 0.0
N186 N 0.66429 0.34145 0.79204 0.0
C187 C 0.66118 0.34444 0.75619 0.0
H188 H 0.70797 0.32118 0.82415 0.0
H189 H 0.69651 0.3268 0.71279 0.0
C190 C 0.73633 0.23662 0.70971 0.0
N191 N 0.82157 0.20849 0.76438 0.0
C192 C 0.85713 0.2149 0.76649 0.0
C193 C 0.81859 0.17342 0.76051 0.0
N194 N 0.87695 0.18543 0.76264 0.0
C195 C 0.85265 0.15913 0.75923 0.0
C196 C 0.72745 0.22829 0.80635 0.0
O197 O 0.72566 0.26514 0.7249 0.0
O198 O 0.76356 0.22104 0.72296 0.0
O199 O 0.75684 0.2144 0.79566 0.0
O200 O 0.72042 0.25901 0.7966 0.0
O201 O 0.81046 0.26355 0.80583 0.0
H202 H 0.79339 0.1594 0.75678 0.0
H203 H 0.86818 0.24108 0.76871 0.0
O204 O 0.77417 0.30866 0.80661 0.0
O205 O 0.7773 0.31365 0.73468 0.0
O206 O 0.81701 0.27133 0.7326 0.0
C207 C 0.80685 0.30155 0.72272 0.0
H208 H 0.63695 0.35187 0.74145 0.0
H209 H 0.85877 0.1318 0.75274 0.0
Co210 Co 0.76303 0.74138 0.76047 0.0
C211 C 0.74088 0.79167 0.81417 0.0
Co212 Co 0.79203 0.79149 0.76254 0.0
C213 C 0.74037 0.68235 0.79576 0.0
C214 C 0.73055 0.67468 0.73891 0.0
N215 N 0.7428 0.69828 0.76478 0.0
N216 N 0.72733 0.64959 0.79048 0.0
C217 C 0.72084 0.64467 0.75469 0.0
H218 H 0.74793 0.69479 0.82179 0.0
H219 H 0.72942 0.67882 0.71045 0.0
C220 C 0.81358 0.7412 0.70858 0.0
N221 N 0.8125 0.8348 0.75473 0.0
C222 C 0.8342 0.8586 0.77325 0.0
C223 C 0.80743 0.84778 0.72197 0.0
N224 N 0.84103 0.88616 0.75333 0.0
C225 C 0.82416 0.87902 0.72126 0.0
C226 C 0.82856 0.74715 0.80501 0.0
O227 O 0.78969 0.72237 0.72115 0.0
O228 O 0.81849 0.77199 0.72259 0.0
O229 O 0.83102 0.77835 0.79494 0.0
O230 O 0.80179 0.72861 0.79317 0.0
O231 O 0.76538 0.81065 0.80228 0.0
H232 H 0.79379 0.83462 0.69887 0.0
H233 H 0.84545 0.8554 0.80006 0.0
O234 O 0.73611 0.76076 0.80006 0.0
O235 O 0.72425 0.75413 0.72762 0.0
O236 O 0.75242 0.80394 0.73127 0.0
C237 C 0.72604 0.78562 0.71883 0.0
H238 H 0.71026 0.621 0.74084 0.0
H239 H 0.82602 0.89428 0.69786 0.0
Fe240 Fe 0.01949 0.05719 0.51576 0.0
O241 O 0.98044 0.02146 0.50904 0.0
Fe242 Fe 0.09756 1.00822 0.52327 0.0
Fe243 Fe 0.93077 0.02968 0.5249 0.0
O244 O 0.04835 0.01893 0.53707 0.0
O245 O 0.04781 0.01601 0.53862 0.0
O246 O 0.97987 0.01875 0.5109 0.0
Fe247 Fe 1.00924 0.97999 0.53065 0.0
C248 C 0.97304 0.08245 0.57484 0.0
O249 O 0.98333 0.09272 0.49165 0.0
O250 O 0.92966 0.06241 0.48274 0.0
O251 O 0.02523 0.96788 0.48004 0.0
O252 O 0.08486 0.96467 0.48928 0.0
O253 O 0.09481 0.03851 0.4797 0.0
O254 O 0.03666 0.04384 0.46507 0.0
O255 O 0.92052 0.98254 0.4953 0.0
O256 O 0.96499 0.94659 0.51792 0.0
C257 C 0.06942 0.04311 0.45661 0.0
O258 O 0.0457 0.94356 0.55282 0.0
O259 O 0.09844 0.97465 0.56414 0.0
O260 O 1.00352 0.07129 0.56568 0.0
O261 O 0.94374 0.07413 0.55759 0.0
C262 C 0.95107 0.08802 0.4768 0.0
C263 C 0.9357 0.95199 0.49847 0.0
C264 C 0.96064 0.99478 0.59206 0.0
O265 O 0.93426 1.00094 0.57037 0.0
O266 O 0.99271 0.99165 0.58172 0.0
C267 C 0.05606 0.95782 0.47053 0.0
O268 O 0.10721 0.0546 0.55335 0.0
O269 O 0.06411 0.09061 0.5283 0.0
C270 C 0.0779 0.9479 0.56779 0.0
C271 C 0.09273 0.08522 0.54887 0.0
Fe272 Fe 0.52462 0.97004 0.02193 0.0
O273 O 0.54906 1.00779 0.99557 0.0
Fe274 Fe 0.44185 1.00903 0.03865 0.0
Fe275 Fe 0.60213 1.01396 0.99653 0.0
O276 O 0.49449 1.01057 0.03939 0.0
O277 O 0.49471 0.01498 0.03901 0.0
O278 O 0.5495 1.01235 0.9955 0.0
Fe279 Fe 0.51948 0.05277 1.01323 0.0
C280 C 0.59297 0.98103 0.06695 0.0
O281 O 0.56206 0.93318 0.99718 0.0
O282 O 0.59752 0.96862 0.96494 0.0
O283 O 0.4855 0.04389 0.96862 0.0
O284 O 0.43339 0.03917 0.99559 0.0
O285 O 0.43755 0.96478 1.00391 0.0
O286 O 0.49009 0.95937 0.97754 0.0
O287 O 0.59415 0.04929 0.95708 0.0
O288 O 0.55176 0.08677 0.9817 0.0
C289 C 0.45621 0.95417 0.97746 0.0
O290 O 0.48248 0.08983 0.03719 0.0
O291 O 0.44597 0.05528 0.06923 0.0
O292 O 0.55877 0.97977 0.06624 0.0
O293 O 0.61037 0.98237 0.03843 0.0
C294 C 0.58596 0.93815 0.97271 0.0
C295 C 0.57831 0.07961 0.95967 0.0
C296 C 0.58723 0.06812 0.05863 0.0
O297 O 0.60646 0.05726 0.03267 0.0
O298 O 0.55338 0.06279 0.05804 0.0
C299 C 0.45125 0.04228 0.96757 0.0
O300 O 0.45069 0.97514 0.07901 0.0
O301 O 0.493 0.93663 0.05537 0.0
C302 C 0.45785 0.08546 0.06089 0.0
C303 C 0.46736 0.94521 0.07816 0.0
Fe304 Fe 0.02862 0.56147 1.01577 0.0
O305 O 0.99619 0.5241 0.99421 0.0
Fe306 Fe 0.1078 0.51277 0.0343 0.0
Fe307 Fe 0.94396 0.52863 0.99582 0.0
O308 O 0.05492 0.52074 0.03724 0.0
O309 O 0.05562 0.51668 0.0359 0.0
O310 O 0.99665 0.51986 0.99341 0.0
Fe311 Fe 0.02219 0.4793 1.01611 0.0
C312 C 0.96438 0.57952 0.06074 0.0
O313 O 0.99672 0.59892 0.98745 0.0
O314 O 0.95191 0.56509 0.9587 0.0
O315 O 0.05209 0.46806 0.97053 0.0
O316 O 0.10796 0.47237 0.99425 0.0
O317 O 0.11392 0.54855 0.99691 0.0
O318 O 0.05997 0.55626 0.97152 0.0
O319 O 0.94353 0.48355 0.96237 0.0
O320 O 0.98227 0.44623 0.99188 0.0
C321 C 0.09343 0.56311 0.97421 0.0
O322 O 0.05388 0.44199 0.04451 0.0
O323 O 0.10096 0.47482 0.07011 0.0
O324 O 0.99741 0.56982 0.06133 0.0
O325 O 0.94373 0.5714 0.0335 0.0
C326 C 0.97007 0.59402 0.96345 0.0
C327 C 0.95592 0.45257 0.96897 0.0
C328 C 0.95834 0.48549 0.06171 0.0
O329 O 0.93803 0.49574 0.03616 0.0
O330 O 0.99249 0.48663 0.06128 0.0
C331 C 0.08574 0.46089 0.96946 0.0
O332 O 0.10712 0.55623 0.0698 0.0
O333 O 0.06751 0.59423 0.04206 0.0
C334 C 0.08189 0.44649 0.06683 0.0
C335 C 0.09425 0.58733 0.06432 0.0
Fe336 Fe 0.50745 0.53258 0.9429 0.0
O337 O 0.51572 0.53691 0.99537 0.0
Fe338 Fe 0.47145 0.52959 0.02665 0.0
Fe339 Fe 0.55171 0.50765 0.022 0.0
O340 O 0.51219 0.53773 0.99525 0.0
O341 O 0.50754 0.50029 0.05321 0.0
O342 O 0.51101 0.49934 0.05328 0.0
Fe343 Fe 0.51474 0.50471 0.1057 0.0
C344 C 0.53331 0.45995 0.95698 0.0
O345 O 0.55785 0.55455 0.94493 0.0
O346 O 0.58971 0.52038 0.98462 0.0
O347 O 0.48598 0.55008 0.10962 0.0
O348 O 0.48719 0.57407 0.05728 0.0
O349 O 0.43885 0.56176 0.99364 0.0
O350 O 0.47658 0.57714 0.94965 0.0
O351 O 0.56756 0.552 0.05285 0.0
O352 O 0.56199 0.53373 0.10799 0.0
C353 C 0.4468 0.58032 0.96665 0.0
O354 O 0.46537 0.48083 0.10203 0.0
O355 O 0.4332 0.51634 0.06389 0.0
O356 O 0.53413 0.48618 0.93777 0.0
O357 O 0.53667 0.46314 0.99111 0.0
C358 C 0.58746 0.54162 0.95855 0.0
C359 C 0.57422 0.5552 0.08666 0.0
C360 C 0.57665 0.45752 0.08254 0.0
O361 O 0.58427 0.47553 0.05504 0.0
O362 O 0.54718 0.46105 0.09999 0.0
C363 C 0.491 0.57635 0.09133 0.0
O364 O 0.45582 0.48509 0.99597 0.0
O365 O 0.45944 0.50507 0.94154 0.0
C366 C 0.43559 0.49271 0.08771 0.0
C367 C 0.44906 0.48213 0.96221 0.0
Fe368 Fe 1.01902 0.46898 0.51751 0.0
O369 O 0.99593 0.51222 0.53952 0.0
Fe370 Fe 0.05442 0.50067 0.43994 0.0
Fe371 Fe 0.98986 0.5203 0.59174 0.0
O372 O 0.04714 0.50434 0.49183 0.0
O373 O 0.04959 0.5088 0.49268 0.0
O374 O 0.99817 0.51644 0.54022 0.0
Fe375 Fe 0.02592 0.55201 0.51458 0.0
C376 C 0.95988 0.44659 0.57207 0.0
O377 O 0.05884 0.4719 0.55668 0.0
O378 O 0.02774 0.48356 0.60591 0.0
O379 O 0.05949 0.58343 0.48169 0.0
O380 O 0.09119 0.54159 0.44839 0.0
O381 O 0.08648 0.45887 0.45363 0.0
O382 O 0.04952 0.42903 0.49015 0.0
O383 O 0.02859 0.55832 0.60169 0.0
O384 O 0.06553 0.5574 0.55585 0.0
C385 C 0.07683 0.43103 0.46913 0.0
O386 O 0.98615 0.54829 0.47556 0.0
O387 O 1.01747 0.53851 0.42646 0.0
O388 O 0.98564 0.43741 0.54996 0.0
O389 O 0.95378 0.47882 0.5834 0.0
C390 C 0.05681 0.47503 0.59061 0.0
C391 C 0.05928 0.5639 0.58912 0.0
C392 C 0.96574 0.58874 0.56107 0.0
O393 O 0.95691 0.56056 0.57648 0.0
O394 O 0.99402 0.59164 0.54135 0.0
C395 C 0.08536 0.57398 0.45967 0.0
O396 O 1.01443 0.46374 0.43006 0.0
O397 O 0.97891 0.46477 0.47698 0.0
C398 C 0.98817 0.54598 0.4417 0.0
C399 C 0.98402 0.45873 0.4435 0.0
Fe400 Fe 0.52 0.97105 0.51911 0.0
O401 O 0.54134 1.01214 0.5479 0.0
Fe402 Fe 0.49856 1.00461 0.43604 0.0
Fe403 Fe 0.53798 0.01739 0.60105 0.0
O404 O 0.49803 1.00718 0.4884 0.0
O405 O 0.4956 1.01064 0.48922 0.0
O406 O 0.53929 0.01574 0.5485 0.0
Fe407 Fe 0.5165 0.05194 0.51808 0.0
C408 C 0.47528 0.96735 0.5817 0.0
O409 O 0.54591 0.93801 0.55576 0.0
O410 O 0.57458 0.97585 0.59797 0.0
O411 O 0.56109 0.04874 0.48752 0.0
O412 O 0.536 0.04383 0.43243 0.0
O413 O 0.53934 0.96657 0.43283 0.0
O414 O 0.56492 0.96421 0.48772 0.0
O415 O 0.57266 0.05837 0.5956 0.0
O416 O 0.54406 0.08986 0.55143 0.0
C417 C 0.56472 0.95631 0.45384 0.0
O418 O 0.48847 0.08465 0.48155 0.0
O419 O 0.46139 0.04523 0.43942 0.0
O420 O 0.47508 0.975 0.54916 0.0
O421 O 0.50005 0.9783 0.60406 0.0
C422 C 0.56922 0.94478 0.58238 0.0
C423 C 0.56872 0.08582 0.57675 0.0
C424 C 0.47248 0.06635 0.58359 0.0
O425 O 0.49786 0.05594 0.60445 0.0
O426 O 0.47181 0.05797 0.54983 0.0
C427 C 0.56104 0.05472 0.4545 0.0
O428 O 0.46393 0.96373 0.44228 0.0
O429 O 0.49286 0.93301 0.48659 0.0
C430 C 0.46477 0.07625 0.45551 0.0
C431 C 0.46772 0.93691 0.46196 0.0
H432 H 0.20221 0.11479 0.31981 0.0
H433 H 0.1106 0.13127 0.24748 0.0
H434 H 0.07187 0.09835 0.28621 0.0
H435 H 0.17564 0.02573 0.34623 0.0
H436 H 0.19261 0.03521 0.39171 0.0
H437 H 0.21356 0.0546 0.35497 0.0
H438 H 0.20384 0.11637 0.38597 0.0
H439 H 0.18263 0.09729 0.42251 0.0
H440 H 0.15903 0.12997 0.39773 0.0
H441 H 0.04185 0.07273 0.33862 0.0
H442 H 0.02419 0.0535 0.39766 0.0
H443 H 0.13681 0.05266 0.43343 0.0
C444 C 0.17419 0.11059 0.31175 0.0
C445 C 0.15921 0.12533 0.2809 0.0
C446 C 0.12248 0.11967 0.27093 0.0
C447 C 0.10038 0.10113 0.29277 0.0
C448 C 0.11578 0.08794 0.3239 0.0
C449 C 0.15206 0.09193 0.33293 0.0
C450 C 0.16171 0.07811 0.36908 0.0
C451 C 0.18739 0.04652 0.36525 0.0
C452 C 0.17772 0.10716 0.39535 0.0
C453 C 0.12493 0.06715 0.37983 0.0
C454 C 0.09871 0.07265 0.35345 0.0
C455 C 0.06226 0.06753 0.35912 0.0
C456 C 0.05247 0.05679 0.39276 0.0
C457 C 0.07911 0.05146 0.42011 0.0
C458 C 0.11574 0.05607 0.41304 0.0
H459 H 0.80078 0.18705 0.35998 0.0
H460 H 0.88708 0.21826 0.29376 0.0
H461 H 0.93146 0.18992 0.3335 0.0
H462 H 0.84908 0.1969 0.44584 0.0
H463 H 0.83014 0.15832 0.46306 0.0
H464 H 0.80487 0.18216 0.43025 0.0
H465 H 0.79853 0.12572 0.38851 0.0
H466 H 0.82349 0.10161 0.42128 0.0
H467 H 0.83837 0.10154 0.37584 0.0
H468 H 0.96711 0.15964 0.38147 0.0
H469 H 0.9904 0.12328 0.43002 0.0
H470 H 0.88113 0.1081 0.46287 0.0
C471 C 0.82901 0.18786 0.35389 0.0
C472 C 0.84042 0.20495 0.32375 0.0
C473 C 0.87761 0.20517 0.31653 0.0
C474 C 0.90312 0.18934 0.33911 0.0
C475 C 0.89112 0.17287 0.36866 0.0
C476 C 0.85491 0.17147 0.3758 0.0
C477 C 0.84914 0.15044 0.40829 0.0
C478 C 0.83232 0.17333 0.43865 0.0
C479 C 0.82602 0.1179 0.39784 0.0
C480 C 0.88771 0.14037 0.41824 0.0
C481 C 0.91156 0.15405 0.39537 0.0
C482 C 0.94867 0.14867 0.39948 0.0
C483 C 0.9617 0.12819 0.42726 0.0
C484 C 0.93765 0.11284 0.4502 0.0
C485 C 0.9002 0.11937 0.44567 0.0
H486 H 0.82794 0.85686 0.3296 0.0
H487 H 0.85981 0.75737 0.37131 0.0
H488 H 0.89337 0.78877 0.42194 0.0
H489 H 0.91091 0.90455 0.35515 0.0
H490 H 0.8874 0.9447 0.36719 0.0
H491 H 0.86833 0.91421 0.33299 0.0
H492 H 0.80979 0.91215 0.36833 0.0
H493 H 0.82884 0.94228 0.40286 0.0
H494 H 0.81226 0.9004 0.41445 0.0
H495 H 0.92297 0.8315 0.46886 0.0
H496 H 0.9455 0.88173 0.50817 0.0
H497 H 0.89141 0.95324 0.43761 0.0
C498 C 0.84259 0.84166 0.34898 0.0
C499 C 0.84164 0.80457 0.34617 0.0
C500 C 0.86037 0.78574 0.37269 0.0
C501 C 0.87947 0.80338 0.40161 0.0
C502 C 0.87931 0.83994 0.40396 0.0
C503 C 0.86133 0.85886 0.37835 0.0
C504 C 0.86398 0.89794 0.38797 0.0
C505 C 0.88384 0.91643 0.35911 0.0
C506 C 0.82649 0.91413 0.39375 0.0
C507 C 0.8862 0.89808 0.42301 0.0
C508 C 0.89502 0.86438 0.43164 0.0
C509 C 0.91607 0.85798 0.46238 0.0
C510 C 0.92872 0.88672 0.48463 0.0
C511 C 0.91997 0.92156 0.47639 0.0
C512 C 0.89814 0.92703 0.44518 0.0
H513 H 0.14527 0.8217 0.33968 0.0
H514 H 0.11211 0.88979 0.25615 0.0
H515 H 0.06596 0.91649 0.29534 0.0
H516 H 0.05443 0.82052 0.38975 0.0
H517 H 0.07985 0.82282 0.43199 0.0
H518 H 0.09739 0.7986 0.39341 0.0
H519 H 0.15587 0.83495 0.40143 0.0
H520 H 0.13843 0.86011 0.43895 0.0
H521 H 0.1533 0.88205 0.40077 0.0
H522 H 0.03715 0.94616 0.34697 0.0
H523 H 0.02911 0.97709 0.40636 0.0
H524 H 0.08762 0.89459 0.45808 0.0
C525 C 0.12653 0.84052 0.32891 0.0
C526 C 0.13145 0.8534 0.29491 0.0
C527 C 0.10801 0.87936 0.28202 0.0
C528 C 0.08177 0.8945 0.3041 0.0
C529 C 0.07975 0.88343 0.33894 0.0
C530 C 0.10138 0.85666 0.3512 0.0
C531 C 0.10112 0.85553 0.39167 0.0
C532 C 0.08204 0.82241 0.40233 0.0
C533 C 0.13943 0.85838 0.40916 0.0
C534 C 0.07898 0.88786 0.40054 0.0
C535 C 0.06529 0.90252 0.36978 0.0
C536 C 0.0469 0.93444 0.3712 0.0
C537 C 0.04278 0.95195 0.40484 0.0
C538 C 0.05817 0.938 0.43612 0.0
C539 C 0.07583 0.90544 0.43415 0.0
H540 H 0.23643 0.85232 0.67578 0.0
H541 H 0.15301 0.79824 0.72852 0.0
H542 H 0.10656 0.8245 0.6896 0.0
H543 H 0.18754 0.93197 0.66934 0.0
H544 H 0.20361 0.94144 0.62601 0.0
H545 H 0.23087 0.91577 0.65558 0.0
H546 H 0.23399 0.86577 0.60561 0.0
H547 H 0.20666 0.89132 0.57586 0.0
H548 H 0.19282 0.84781 0.58517 0.0
H549 H 0.06855 0.85818 0.6468 0.0
H550 H 0.04178 0.90021 0.60525 0.0
H551 H 0.14915 0.93417 0.58173 0.0
C552 C 0.20842 0.8458 0.6787 0.0
C553 C 0.19823 0.82348 0.70523 0.0
C554 C 0.1613 0.81574 0.70865 0.0
C555 C 0.1347 0.83026 0.68647 0.0
C556 C 0.14535 0.85269 0.66099 0.0
C557 C 0.18125 0.86064 0.65704 0.0
C558 C 0.18496 0.88751 0.62922 0.0
C559 C 0.20279 0.92116 0.64606 0.0
C560 C 0.20585 0.87217 0.59706 0.0
C561 C 0.14565 0.89365 0.61874 0.0
C562 C 0.12325 0.87291 0.63694 0.0
C563 C 0.0858 0.87449 0.63219 0.0
C564 C 0.07081 0.89832 0.60851 0.0
C565 C 0.09328 0.92053 0.59037 0.0
C566 C 0.13117 0.9177 0.59536 0.0
H567 H 0.21067 0.17627 0.71126 0.0
H568 H 0.1876 0.27685 0.66741 0.0
H569 H 0.1492 0.24734 0.61898 0.0
H570 H 0.21912 0.12874 0.62781 0.0
H571 H 0.19893 0.08936 0.6419 0.0
H572 H 0.22203 0.11877 0.67447 0.0
H573 H 0.16481 0.12388 0.71214 0.0
H574 H 0.14162 0.09423 0.67981 0.0
H575 H 0.12271 0.13684 0.69109 0.0
H576 H 0.11352 0.20555 0.57435 0.0
H577 H 0.08621 0.15578 0.53728 0.0
H578 H 0.13603 0.08338 0.60965 0.0
C579 C 0.19712 0.19225 0.69185 0.0
C580 C 0.20188 0.22896 0.69339 0.0
C581 C 0.18419 0.24872 0.66693 0.0
C582 C 0.16232 0.23217 0.63931 0.0
C583 C 0.15862 0.19581 0.63834 0.0
C584 C 0.17565 0.17616 0.66396 0.0
C585 C 0.16888 0.1374 0.65618 0.0
C586 C 0.20435 0.1174 0.6497 0.0
C587 C 0.14828 0.12221 0.68661 0.0
C588 C 0.14564 0.13815 0.622 0.0
C589 C 0.13956 0.17202 0.61223 0.0
C590 C 0.11827 0.17894 0.58175 0.0
C591 C 0.10288 0.15051 0.56082 0.0
C592 C 0.1093 0.11558 0.57017 0.0
C593 C 0.13099 0.10964 0.60126 0.0
H594 H 0.92217 0.13031 0.76545 0.0
H595 H 0.9133 0.23598 0.73056 0.0
H596 H 0.95839 0.22306 0.68638 0.0
H597 H 0.02526 0.11564 0.72675 0.0
H598 H 1.01299 0.07066 0.71549 0.0
H599 H 0.99887 0.09234 0.75699 0.0
H600 H 0.93344 0.07553 0.73911 0.0
H601 H 0.94693 0.05502 0.69749 0.0
H602 H 0.91338 0.08936 0.6973 0.0
H603 H 0.97352 0.1939 0.63041 0.0
H604 H 0.97266 0.15313 0.57632 0.0
H605 H 0.97436 0.0649 0.64342 0.0
C606 C 0.93162 0.15109 0.74986 0.0
C607 C 0.91321 0.18342 0.75044 0.0
C608 C 0.92635 0.21063 0.73047 0.0
C609 C 0.95235 0.20354 0.70506 0.0
C610 C 0.96555 0.16947 0.70064 0.0
C611 C 0.95747 0.14399 0.72404 0.0
C612 C 0.96863 0.10795 0.70901 0.0
C613 C 1.00352 0.09597 0.72819 0.0
C614 C 0.93873 0.08044 0.71076 0.0
C615 C 0.97566 0.11626 0.67088 0.0
C616 C 0.97597 0.15207 0.66711 0.0
C617 C 0.97504 0.16594 0.63328 0.0
C618 C 0.97362 0.14279 0.60275 0.0
C619 C 0.97269 0.1064 0.60647 0.0
C620 C 0.97488 0.0929 0.64062 0.0
H621 H 0.82907 0.95223 0.73953 0.0
H622 H 0.91144 0.88039 0.77372 0.0
H623 H 0.95762 0.91594 0.74735 0.0
H624 H 0.85377 0.9445 0.65847 0.0
H625 H 0.84257 0.98778 0.64481 0.0
H626 H 0.81974 0.97039 0.68107 0.0
H627 H 0.83789 0.02375 0.72162 0.0
H628 H 0.8633 0.04235 0.68729 0.0
H629 H 0.88446 0.03441 0.73052 0.0
H630 H 0.98991 0.94461 0.70043 0.0
H631 H 1.00527 0.96324 0.64087 0.0
H632 H 0.89944 1.01047 0.62846 0.0
C633 C 0.85729 0.94585 0.74381 0.0
C634 C 0.86687 0.91387 0.75856 0.0
C635 C 0.90368 0.90515 0.76303 0.0
C636 C 0.92998 0.92504 0.7475 0.0
C637 C 0.91878 0.95328 0.7276 0.0
C638 C 0.88304 0.96382 0.72596 0.0
C639 C 0.8754 0.98721 0.69513 0.0
C640 C 0.8462 0.97149 0.66834 0.0
C641 C 0.8647 0.02418 0.70944 0.0
C642 C 0.91186 0.98677 0.67842 0.0
C643 C 0.93685 0.9681 0.69818 0.0
C644 C 0.97088 0.96007 0.68533 0.0
C645 C 0.97928 0.97056 0.65125 0.0
C646 C 0.95342 0.98813 0.62987 0.0
C647 C 0.91978 0.99718 0.64424 0.0
H648 H 0.30297 0.16877 0.18017 0.0
H649 H 0.36309 0.2659 0.19253 0.0
H650 H 0.40815 0.24094 0.15087 0.0
H651 H 0.37813 0.11241 0.18001 0.0
H652 H 0.35841 0.08068 0.14741 0.0
H653 H 0.3299 0.10745 0.17588 0.0
H654 H 0.29528 0.12913 0.11967 0.0
H655 H 0.32367 0.10232 0.09101 0.0
H656 H 0.31985 0.14868 0.08532 0.0
H657 H 0.44937 0.2024 0.10915 0.0
H658 H 0.48087 0.15484 0.07374 0.0
H659 H 0.39203 0.08511 0.08992 0.0
C660 C 0.32529 0.18505 0.17378 0.0
C661 C 0.32928 0.21936 0.18963 0.0
C662 C 0.35927 0.23953 0.18071 0.0
C663 C 0.38507 0.22557 0.157 0.0
C664 C 0.38059 0.19138 0.14224 0.0
C665 C 0.35124 0.17156 0.1503 0.0
C666 C 0.35306 0.13509 0.13243 0.0
C667 C 0.355 0.10728 0.16061 0.0
C668 C 0.32107 0.12843 0.1055 0.0
C669 C 0.38813 0.13721 0.11338 0.0
C670 C 0.40381 0.16978 0.11897 0.0
C671 C 0.43709 0.17686 0.10451 0.0
C672 C 0.45481 0.14977 0.08433 0.0
C673 C 0.4393 0.11602 0.07915 0.0
C674 C 0.40518 0.11034 0.09351 0.0
H675 H 0.92543 0.30465 0.14872 0.0
H676 H 0.81236 0.33166 0.13682 0.0
H677 H 0.82807 0.38969 0.11761 0.0
H678 H 0.95921 0.38745 0.17989 0.0
H679 H 0.99864 0.38652 0.15314 0.0
H680 H 0.97952 0.34613 0.16588 0.0
H681 H 0.973 0.32324 0.09904 0.0
H682 H 0.99337 0.36302 0.08642 0.0
H683 H 0.94999 0.3499 0.06705 0.0
H684 H 0.85458 0.44587 0.10746 0.0
H685 H 0.8903 0.4926 0.08403 0.0
H686 H 0.98698 0.42902 0.09517 0.0
C687 C 0.90421 0.32249 0.14088 0.0
C688 C 0.86768 0.3143 0.14494 0.0
C689 C 0.84043 0.33803 0.13447 0.0
C690 C 0.84908 0.37108 0.12393 0.0
C691 C 0.88523 0.37953 0.12289 0.0
C692 C 0.91245 0.35559 0.12921 0.0
C693 C 0.94895 0.37121 0.123 0.0
C694 C 0.97299 0.37292 0.15755 0.0
C695 C 0.96741 0.35063 0.09202 0.0
C696 C 0.93764 0.40762 0.11273 0.0
C697 C 0.90079 0.41191 0.11403 0.0
C698 C 0.88344 0.44284 0.10572 0.0
C699 C 0.90398 0.4693 0.09278 0.0
C700 C 0.94118 0.46418 0.08751 0.0
C701 C 0.95864 0.43375 0.09937 0.0
H702 H 0.76749 0.92198 0.16402 0.0
H703 H 0.69933 0.88556 0.24545 0.0
H704 H 0.65104 0.92488 0.22614 0.0
H705 H 0.72347 0.0165 0.16163 0.0
H706 H 0.72868 0.01492 0.11371 0.0
H707 H 0.76217 0.99501 0.14238 0.0
H708 H 0.75428 0.93638 0.10431 0.0
H709 H 0.7206 0.95568 0.07609 0.0
H710 H 0.71017 0.9169 0.09874 0.0
H711 H 0.60508 0.9507 0.18624 0.0
H712 H 0.56802 0.96552 0.13282 0.0
H713 H 0.66528 0.98736 0.07765 0.0
C714 C 0.74302 0.92382 0.17885 0.0
C715 C 0.73721 0.90076 0.20603 0.0
C716 C 0.70475 0.90328 0.22481 0.0
C717 C 0.67698 0.92562 0.21396 0.0
C718 C 0.68236 0.94587 0.18487 0.0
C719 C 0.7151 0.9461 0.16827 0.0
C720 C 0.71218 0.96519 0.13393 0.0
C721 C 0.73285 0.99998 0.13819 0.0
C722 C 0.72502 0.94213 0.1014 0.0
C723 C 0.67202 0.97166 0.1316 0.0
C724 C 0.65536 0.96155 0.16176 0.0
C725 C 0.61788 0.95995 0.16305 0.0
C726 C 0.59701 0.96809 0.13247 0.0
C727 C 0.61381 0.97721 0.10099 0.0
C728 C 0.65164 0.98043 0.10133 0.0
H729 H 0.25172 0.67413 0.18607 0.0
H730 H 0.19723 0.77393 0.17555 0.0
H731 H 0.15512 0.74648 0.12972 0.0
H732 H 0.23632 0.63978 0.08906 0.0
H733 H 0.22944 0.59609 0.103 0.0
H734 H 0.26005 0.62527 0.12859 0.0
H735 H 0.22484 0.61578 0.18587 0.0
H736 H 0.19366 0.58738 0.16045 0.0
H737 H 0.17725 0.62534 0.18599 0.0
H738 H 0.11325 0.70668 0.09303 0.0
H739 H 0.07682 0.65752 0.06545 0.0
H740 H 0.1583 0.58426 0.10204 0.0
C741 C 0.23183 0.69044 0.17307 0.0
C742 C 0.22764 0.72598 0.1842 0.0
C743 C 0.2008 0.7465 0.1673 0.0
C744 C 0.17685 0.73123 0.14116 0.0
C745 C 0.18041 0.6956 0.13214 0.0
C746 C 0.20758 0.67555 0.14717 0.0
C747 C 0.20303 0.63718 0.13616 0.0
C748 C 0.23405 0.6238 0.1128 0.0
C749 C 0.19947 0.61516 0.16908 0.0
C750 C 0.16808 0.63865 0.11435 0.0
C751 C 0.15577 0.67253 0.11163 0.0
C752 C 0.12289 0.68 0.09441 0.0
C753 C 0.10225 0.65195 0.07917 0.0
C754 C 0.11449 0.61702 0.08186 0.0
C755 C 0.14789 0.61056 0.09963 0.0
H756 H 0.29212 0.85312 0.87006 0.0
H757 H 0.36169 0.83882 0.77936 0.0
H758 H 0.40913 0.873 0.81322 0.0
H759 H 0.32204 0.94336 0.89749 0.0
H760 H 0.31942 0.93684 0.94477 0.0
H761 H 0.28967 0.9132 0.91267 0.0
H762 H 0.3117 0.85445 0.93692 0.0
H763 H 0.34159 0.87771 0.96907 0.0
H764 H 0.35918 0.84432 0.93819 0.0
H765 H 0.45141 0.9048 0.85885 0.0
H766 H 0.4832 0.93514 0.91124 0.0
H767 H 0.38621 0.93018 0.97199 0.0
C768 C 0.31704 0.85777 0.85703 0.0
C769 C 0.32292 0.84319 0.82185 0.0
C770 C 0.35625 0.84965 0.80614 0.0
C771 C 0.38353 0.86905 0.82523 0.0
C772 C 0.37725 0.88224 0.86009 0.0
C773 C 0.34465 0.8773 0.87572 0.0
C774 C 0.34524 0.89368 0.91391 0.0
C775 C 0.31744 0.92354 0.91742 0.0
C776 C 0.33907 0.86588 0.94112 0.0
C777 C 0.38346 0.90775 0.91756 0.0
C778 C 0.40146 0.90098 0.88618 0.0
C779 C 0.43742 0.91052 0.88347 0.0
C780 C 0.45537 0.92762 0.91348 0.0
C781 C 0.43742 0.93517 0.94592 0.0
C782 C 0.40087 0.92502 0.94768 0.0
H783 H 0.23444 0.36944 0.84053 0.0
H784 H 0.16021 0.28312 0.81935 0.0
H785 H 0.11464 0.31522 0.85567 0.0
H786 H 0.21136 0.3854 0.93364 0.0
H787 H 0.21692 0.43221 0.93384 0.0
H788 H 0.24241 0.4037 0.90397 0.0
H789 H 0.21765 0.43683 0.84976 0.0
H790 H 0.19188 0.46532 0.87943 0.0
H791 H 0.16965 0.44098 0.84208 0.0
H792 H 0.07577 0.3586 0.8931 0.0
H793 H 0.05089 0.40427 0.93535 0.0
H794 H 0.15253 0.45958 0.93846 0.0
C795 C 0.20846 0.35746 0.84336 0.0
C796 C 0.20073 0.32385 0.82655 0.0
C797 C 0.16673 0.3088 0.83171 0.0
C798 C 0.14059 0.32697 0.85223 0.0
C799 C 0.14896 0.36005 0.8684 0.0
C800 C 0.18241 0.37482 0.86483 0.0
C801 C 0.18557 0.40945 0.88728 0.0
C802 C 0.21586 0.40757 0.91641 0.0
C803 C 0.19154 0.43995 0.8632 0.0
C804 C 0.14868 0.41203 0.90383 0.0
C805 C 0.12768 0.38361 0.89199 0.0
C806 C 0.0922 0.38075 0.90271 0.0
C807 C 0.07813 0.40703 0.9266 0.0
C808 C 0.09956 0.43569 0.94046 0.0
C809 C 0.13534 0.43806 0.92856 0.0
H810 H 0.7307 0.16152 0.8368 0.0
H811 H 0.66175 0.25261 0.82761 0.0
H812 H 0.61756 0.22673 0.86558 0.0
H813 H 0.657 0.09826 0.832 0.0
H814 H 0.67828 0.07004 0.86357 0.0
H815 H 0.70543 0.09626 0.83664 0.0
H816 H 0.73753 0.12375 0.89429 0.0
H817 H 0.71046 0.09761 0.92136 0.0
H818 H 0.71109 0.1446 0.92915 0.0
H819 H 0.57938 0.19015 0.9071 0.0
H820 H 0.55173 0.14611 0.94382 0.0
H821 H 0.64282 0.07702 0.92386 0.0
C822 C 0.7064 0.17613 0.84282 0.0
C823 C 0.70075 0.21004 0.82937 0.0
C824 C 0.66787 0.22739 0.83796 0.0
C825 C 0.64215 0.21261 0.85953 0.0
C826 C 0.64861 0.17959 0.87257 0.0
C827 C 0.67987 0.16138 0.86421 0.0
C828 C 0.67964 0.12581 0.88093 0.0
C829 C 0.68012 0.09581 0.85153 0.0
C830 C 0.71158 0.12277 0.90804 0.0
C831 C 0.64375 0.12697 0.89997 0.0
C832 C 0.62625 0.15831 0.89504 0.0
C833 C 0.59298 0.16545 0.91079 0.0
C834 C 0.57729 0.14014 0.9318 0.0
C835 C 0.59433 0.10741 0.93703 0.0
C836 C 0.62826 0.10129 0.92053 0.0
H837 H 0.83296 0.67902 0.8233 0.0
H838 H 0.88638 0.77916 0.84354 0.0
H839 H 0.93013 0.75174 0.88563 0.0
H840 H 0.84114 0.65091 0.91203 0.0
H841 H 0.849 0.6056 0.89812 0.0
H842 H 0.82291 0.63297 0.86935 0.0
H843 H 0.86529 0.61851 0.81724 0.0
H844 H 0.89152 0.59051 0.84537 0.0
H845 H 0.91305 0.62555 0.82424 0.0
H846 H 0.96748 0.7112 0.92863 0.0
H847 H 0.9934 0.66352 0.96429 0.0
H848 H 0.9153 0.59142 0.91197 0.0
C849 C 0.85384 0.6954 0.83642 0.0
C850 C 0.85599 0.73145 0.82998 0.0
C851 C 0.88403 0.75155 0.84788 0.0
C852 C 0.90902 0.73612 0.87191 0.0
C853 C 0.90593 0.70043 0.87767 0.0
C854 C 0.87899 0.68046 0.86007 0.0
C855 C 0.88095 0.64277 0.8703 0.0
C856 C 0.84646 0.63249 0.88856 0.0
C857 C 0.88814 0.61788 0.83733 0.0
C858 C 0.91303 0.64439 0.89665 0.0
C859 C 0.92726 0.67772 0.90092 0.0
C860 C 0.95648 0.68502 0.92509 0.0
C861 C 0.97117 0.65771 0.94527 0.0
C862 C 0.95686 0.62332 0.94109 0.0
C863 C 0.92748 0.61706 0.91607 0.0
H864 H 0.22236 0.35705 0.20309 0.0
H865 H 0.16307 0.25996 0.18303 0.0
H866 H 0.11994 0.28949 0.1429 0.0
H867 H 0.1449 0.41457 0.20413 0.0
H868 H 0.16674 0.4486 0.18175 0.0
H869 H 0.19307 0.41979 0.20893 0.0
H870 H 0.23266 0.40277 0.1549 0.0
H871 H 0.20659 0.43165 0.1276 0.0
H872 H 0.21156 0.38612 0.11299 0.0
H873 H 0.08233 0.33047 0.1038 0.0
H874 H 0.05614 0.37841 0.06896 0.0
H875 H 0.13961 0.44818 0.11545 0.0
C876 C 0.20038 0.34195 0.19022 0.0
C877 C 0.19638 0.30602 0.19643 0.0
C878 C 0.167 0.28744 0.1789 0.0
C879 C 0.14217 0.30403 0.15598 0.0
C880 C 0.14675 0.33945 0.15059 0.0
C881 C 0.17523 0.35814 0.16718 0.0
C882 C 0.17423 0.39587 0.1567 0.0
C883 C 0.16944 0.4212 0.18985 0.0
C884 C 0.20828 0.4046 0.13686 0.0
C885 C 0.14093 0.39542 0.13165 0.0
C886 C 0.12528 0.36273 0.12841 0.0
C887 C 0.09443 0.35621 0.10624 0.0
C888 C 0.07956 0.38367 0.08659 0.0
C889 C 0.09541 0.41738 0.08921 0.0
C890 C 0.12638 0.42297 0.11251 0.0
H891 H 0.10738 0.73203 0.86082 0.0
H892 H 0.19346 0.7654 0.93641 0.0
H893 H 0.17867 0.71773 0.97503 0.0
H894 H 0.04398 0.69645 0.92889 0.0
H895 H 0.03141 0.66059 0.89724 0.0
H896 H 0.04244 0.7026 0.88132 0.0
H897 H 0.0898 0.67146 0.84107 0.0
H898 H 0.08 0.62986 0.85836 0.0
H899 H 0.1254 0.64638 0.86161 0.0
H900 H 0.16541 0.66112 0.99642 0.0
H901 H 0.14796 0.60157 1.00692 0.0
H902 H 0.0675 0.60301 0.91899 0.0
C903 C 0.12154 0.73035 0.88658 0.0
C904 C 0.15096 0.75253 0.89644 0.0
C905 C 0.17044 0.74884 0.92919 0.0
C906 C 0.16227 0.72188 0.95105 0.0
C907 C 0.13451 0.69905 0.93955 0.0
C908 C 0.11385 0.70327 0.90851 0.0
C909 C 0.08894 0.67231 0.89996 0.0
C910 C 0.04933 0.68368 0.90201 0.0
C911 C 0.09652 0.65394 0.86307 0.0
C912 C 0.09997 0.64943 0.93027 0.0
C913 C 0.12629 0.6656 0.95261 0.0
C914 C 0.14404 0.64857 0.97988 0.0
C915 C 0.13411 0.61437 0.98521 0.0
C916 C 0.10601 0.59747 0.96385 0.0
C917 C 0.08872 0.61534 0.93594 0.0
H918 H 0.27729 0.10505 0.87132 0.0
H919 H 0.34595 0.14338 0.79129 0.0
H920 H 0.39424 0.10383 0.81014 0.0
H921 H 0.33486 0.10887 0.93708 0.0
H922 H 0.32402 0.06962 0.95874 0.0
H923 H 0.29058 0.08983 0.93096 0.0
H924 H 0.28226 0.03204 0.89145 0.0
H925 H 0.3154 1.01129 0.91982 0.0
H926 H 0.32089 1.01062 0.87197 0.0
H927 H 0.44 0.07685 0.84961 0.0
H928 H 0.47669 0.05999 0.90254 0.0
H929 H 0.37887 0.03689 0.95627 0.0
C930 C 0.3019 0.10364 0.85669 0.0
C931 C 0.30779 0.12721 0.83 0.0
C932 C 0.34045 0.12524 0.81151 0.0
C933 C 0.36823 0.10279 0.82211 0.0
C934 C 0.36269 0.08191 0.85068 0.0
C935 C 0.32982 0.08126 0.867 0.0
C936 C 0.3325 0.06132 0.9008 0.0
C937 C 0.31979 0.08378 0.93379 0.0
C938 C 0.31152 0.02676 0.89568 0.0
C939 C 0.37261 0.05452 0.90307 0.0
C940 C 0.3895 0.06551 0.87342 0.0
C941 C 0.42701 0.06692 0.87237 0.0
C942 C 0.44767 0.0576 0.90266 0.0
C943 C 0.43063 0.04743 0.93363 0.0
C944 C 0.39275 0.04453 0.933 0.0
H945 H 0.80008 0.36141 0.84575 0.0
H946 H 0.85473 0.26211 0.85931 0.0
H947 H 0.89895 0.29158 0.90179 0.0
H948 H 0.87701 0.41125 0.84306 0.0
H949 H 0.85967 0.44956 0.86732 0.0
H950 H 0.82928 0.42015 0.84199 0.0
H951 H 0.7931 0.41203 0.89895 0.0
H952 H 0.82305 0.44192 0.92439 0.0
H953 H 0.81625 0.39856 0.93923 0.0
H954 H 0.94052 0.33283 0.93832 0.0
H955 H 0.97468 0.38263 0.96789 0.0
H956 H 0.893 0.45434 0.92872 0.0
C957 C 0.82074 0.34571 0.85841 0.0
C958 C 0.8239 0.30952 0.84941 0.0
C959 C 0.85176 0.28993 0.86597 0.0
C960 C 0.87701 0.3064 0.89013 0.0
C961 C 0.8739 0.34238 0.89747 0.0
C962 C 0.84627 0.36174 0.88238 0.0
C963 C 0.85039 0.40036 0.89268 0.0
C964 C 0.85433 0.42155 0.85927 0.0
C965 C 0.81883 0.41401 0.91516 0.0
C966 C 0.8851 0.39975 0.91512 0.0
C967 C 0.89812 0.36611 0.91794 0.0
C968 C 0.93041 0.35931 0.93662 0.0
C969 C 0.94969 0.38775 0.95317 0.0
C970 C 0.93668 0.42246 0.95057 0.0
C971 C 0.90395 0.42825 0.93119 0.0
H972 H 0.73244 0.8602 0.83904 0.0
H973 H 0.69244 0.75566 0.852 0.0
H974 H 0.64838 0.78012 0.89511 0.0
H975 H 0.7234 0.89427 0.93105 0.0
H976 H 0.70944 0.93698 0.91778 0.0
H977 H 0.73866 0.91038 0.88985 0.0
H978 H 0.69332 0.91543 0.83571 0.0
H979 H 0.66389 0.94181 0.86357 0.0
H980 H 0.64721 0.90237 0.83982 0.0
H981 H 0.60644 0.81847 0.9373 0.0
H982 H 0.57319 0.86558 0.97171 0.0
H983 H 0.6416 0.94272 0.92765 0.0
C984 C 0.71483 0.84231 0.85129 0.0
C985 C 0.71624 0.80595 0.84224 0.0
C986 C 0.69209 0.78365 0.85855 0.0
C987 C 0.66687 0.79732 0.88312 0.0
C988 C 0.66585 0.83346 0.89107 0.0
C989 C 0.68936 0.8555 0.87549 0.0
C990 C 0.68234 0.89337 0.88708 0.0
C991 C 0.71542 0.9097 0.90767 0.0
C992 C 0.67101 0.91447 0.85462 0.0
C993 C 0.65134 0.88937 0.91164 0.0
C994 C 0.64195 0.85481 0.914 0.0
C995 C 0.61372 0.84565 0.93551 0.0
C996 C 0.59488 0.87255 0.955 0.0
C997 C 0.60423 0.90819 0.95263 0.0
C998 C 0.63299 0.91607 0.93044 0.0
H999 H 0.82483 0.71393 0.1612 0.0
H1000 H 0.87512 0.68573 0.26219 0.0
H1001 H 0.91894 0.64832 0.22911 0.0
H1002 H 0.83153 0.62699 0.11818 0.0
H1003 H 0.83948 0.64175 0.0742 0.0
H1004 H 0.8141 0.66878 0.10553 0.0
H1005 H 0.85812 0.72004 0.0995 0.0
H1006 H 0.88363 0.69314 0.06814 0.0
H1007 H 0.9057 0.71336 0.10797 0.0
H1008 H 0.95887 0.61397 0.18414 0.0
H1009 H 0.98632 0.58142 0.13243 0.0
H1010 H 0.90691 0.6265 0.06033 0.0
C1011 C 0.84549 0.70035 0.17629 0.0
C1012 C 0.84689 0.70359 0.21454 0.0
C1013 C 0.87365 0.68423 0.23306 0.0
C1014 C 0.89876 0.66283 0.2144 0.0
C1015 C 0.89663 0.66003 0.17682 0.0
C1016 C 0.87029 0.67789 0.15795 0.0
C1017 C 0.87227 0.66816 0.11772 0.0
C1018 C 0.83727 0.65037 0.10305 0.0
C1019 C 0.88042 0.70061 0.09711 0.0
C1020 C 0.90387 0.64237 0.1169 0.0
C1021 C 0.91792 0.63846 0.15126 0.0
C1022 C 0.94779 0.61674 0.1572 0.0
C1023 C 0.9634 0.59836 0.12754 0.0
C1024 C 0.94893 0.60095 0.09205 0.0
C1025 C 0.91866 0.62349 0.08699 0.0
H1026 H 0.34511 0.79745 0.16713 0.0
H1027 H 0.34412 0.87001 0.26102 0.0
H1028 H 0.38765 0.90774 0.23314 0.0
H1029 H 0.43935 0.80812 0.1446 0.0
H1030 H 0.43052 0.80755 0.0967 0.0
H1031 H 0.40114 0.78451 0.12445 0.0
H1032 H 0.34633 0.81887 0.09991 0.0
H1033 H 0.37546 0.84169 0.07177 0.0
H1034 H 0.34722 0.86611 0.10269 0.0
H1035 H 0.43315 0.9374 0.19604 0.0
H1036 H 0.46751 0.96293 0.14909 0.0
H1037 H 0.43596 0.87662 0.07389 0.0
C1038 C 0.35409 0.82132 0.1818 0.0
C1039 C 0.34097 0.83043 0.21682 0.0
C1040 C 0.35335 0.86221 0.2345 0.0
C1041 C 0.37843 0.88379 0.21881 0.0
C1042 C 0.39089 0.87413 0.1846 0.0
C1043 C 0.37848 0.84407 0.1658 0.0
C1044 C 0.39429 0.84156 0.12815 0.0
C1045 C 0.41771 0.80846 0.12318 0.0
C1046 C 0.36402 0.84209 0.09889 0.0
C1047 C 0.41744 0.87483 0.12871 0.0
C1048 C 0.41556 0.89257 0.16209 0.0
C1049 C 0.43453 0.92367 0.16986 0.0
C1050 C 0.4545 0.9379 0.14285 0.0
C1051 C 0.45569 0.9219 0.10746 0.0
C1052 C 0.43702 0.88931 0.10066 0.0
H1053 H 0.74602 0.17689 0.16604 0.0
H1054 H 0.67433 0.19112 0.25505 0.0
H1055 H 0.62889 0.15422 0.22145 0.0
H1056 H 0.67993 0.18101 0.09635 0.0
H1057 H 0.69936 0.14745 0.0669 0.0
H1058 H 0.72776 0.17272 0.09885 0.0
H1059 H 0.75161 0.11565 0.12553 0.0
H1060 H 0.72338 0.09008 0.09358 0.0
H1061 H 0.72013 0.0848 0.14102 0.0
H1062 H 0.58873 0.11979 0.17617 0.0
H1063 H 0.5588 0.08731 0.12404 0.0
H1064 H 0.6566 0.09376 0.06477 0.0
C1065 C 0.72106 0.1717 0.17875 0.0
C1066 C 0.71397 0.18704 0.21335 0.0
C1067 C 0.68066 0.17977 0.2287 0.0
C1068 C 0.65453 0.1588 0.20977 0.0
C1069 C 0.66198 0.14482 0.17547 0.0
C1070 C 0.69462 0.15054 0.16024 0.0
C1071 C 0.69534 0.13304 0.12256 0.0
C1072 C 0.70092 0.16018 0.09452 0.0
C1073 C 0.72434 0.10418 0.12056 0.0
C1074 C 0.65776 0.11749 0.1187 0.0
C1075 C 0.63899 0.12447 0.14958 0.0
C1076 C 0.60333 0.11386 0.15197 0.0
C1077 C 0.58645 0.09553 0.12211 0.0
C1078 C 0.60517 0.08783 0.09015 0.0
C1079 C 0.64143 0.09896 0.08875 0.0
H1080 H 0.6762 0.59946 0.78694 0.0
H1081 H 0.76001 0.6479 0.85684 0.0
H1082 H 0.73985 0.61492 0.90705 0.0
H1083 H 0.61078 0.60781 0.8445 0.0
H1084 H 0.58834 0.56685 0.83252 0.0
H1085 H 0.61484 0.58671 0.80023 0.0
H1086 H 0.65327 0.53007 0.79251 0.0
H1087 H 0.62658 0.50981 0.82481 0.0
H1088 H 0.67484 0.51201 0.83141 0.0
H1089 H 0.70345 0.58581 0.95198 0.0
H1090 H 0.65324 0.56439 0.98681 0.0
H1091 H 0.59386 0.53569 0.88725 0.0
C1092 C 0.69131 0.60197 0.81233 0.0
C1093 C 0.71965 0.62619 0.81792 0.0
C1094 C 0.73803 0.62962 0.85198 0.0
C1095 C 0.727 0.61071 0.8806 0.0
C1096 C 0.69783 0.58816 0.87461 0.0
C1097 C 0.6805 0.58341 0.84111 0.0
C1098 C 0.64673 0.56192 0.84268 0.0
C1099 C 0.61324 0.58205 0.82922 0.0
C1100 C 0.6506 0.52634 0.82161 0.0
C1101 C 0.64637 0.55752 0.8826 0.0
C1102 C 0.67656 0.57178 0.90059 0.0
C1103 C 0.68011 0.57379 0.93814 0.0
C1104 C 0.65161 0.56169 0.95771 0.0
C1105 C 0.62003 0.54868 0.93944 0.0
C1106 C 0.61797 0.54556 0.90162 0.0
H1107 H 0.36116 0.6996 0.81521 0.0
H1108 H 0.26233 0.70187 0.8737 0.0
H1109 H 0.29142 0.66695 0.91997 0.0
H1110 H 0.38692 0.61072 0.83379 0.0
H1111 H 0.43431 0.62049 0.83869 0.0
H1112 H 0.40549 0.64554 0.80986 0.0
H1113 H 0.42637 0.70277 0.84521 0.0
H1114 H 0.45499 0.67784 0.87434 0.0
H1115 H 0.42163 0.70727 0.89321 0.0
H1116 H 0.33135 0.6312 0.96053 0.0
H1117 H 0.37862 0.59614 0.99046 0.0
H1118 H 0.45161 0.61804 0.90647 0.0
C1119 C 0.3456 0.69255 0.83761 0.0
C1120 C 0.3094 0.70369 0.84068 0.0
C1121 C 0.29013 0.69397 0.87066 0.0
C1122 C 0.30642 0.67405 0.89722 0.0
C1123 C 0.3422 0.66392 0.89372 0.0
C1124 C 0.36156 0.67271 0.86463 0.0
C1125 C 0.39969 0.65845 0.86744 0.0
C1126 C 0.40702 0.63224 0.83555 0.0
C1127 C 0.42729 0.68837 0.87022 0.0
C1128 C 0.39859 0.64023 0.90245 0.0
C1129 C 0.36523 0.64369 0.91726 0.0
C1130 C 0.35767 0.62841 0.94921 0.0
C1131 C 0.38476 0.6086 0.96615 0.0
C1132 C 0.4191 0.60425 0.95119 0.0
C1133 C 0.42591 0.62084 0.91907 0.0
H1134 H 0.3551 0.36213 0.80313 0.0
H1135 H 0.34133 0.28177 0.87865 0.0
H1136 H 0.372 0.31979 0.92654 0.0
H1137 H 0.44228 0.39102 0.83726 0.0
H1138 H 0.43373 0.43666 0.83019 0.0
H1139 H 0.41167 0.40308 0.8014 0.0
H1140 H 0.34914 0.42839 0.81668 0.0
H1141 H 0.37028 0.46276 0.84506 0.0
H1142 H 0.33734 0.43494 0.86306 0.0
H1143 H 0.4018 0.36901 0.9671 0.0
H1144 H 0.43072 0.42257 0.99519 0.0
H1145 H 0.42426 0.46979 0.8922 0.0
C1146 C 0.35894 0.35215 0.82957 0.0
C1147 C 0.34597 0.31874 0.83698 0.0
C1148 C 0.35131 0.30707 0.87216 0.0
C1149 C 0.36852 0.32861 0.8996 0.0
C1150 C 0.38017 0.36176 0.89147 0.0
C1151 C 0.37574 0.37328 0.85718 0.0
C1152 C 0.39006 0.41005 0.85522 0.0
C1153 C 0.4213 0.41026 0.82946 0.0
C1154 C 0.3599 0.43553 0.84437 0.0
C1155 C 0.40313 0.41772 0.89383 0.0
C1156 C 0.39717 0.38965 0.91444 0.0
C1157 C 0.40667 0.39103 0.95108 0.0
C1158 C 0.42296 0.42168 0.96685 0.0
C1159 C 0.42975 0.4506 0.94603 0.0
C1160 C 0.41949 0.44833 0.90902 0.0
H1161 H 0.60341 0.38006 0.78735 0.0
H1162 H 0.66152 0.30893 0.85524 0.0
H1163 H 0.61686 0.31804 0.90088 0.0
H1164 H 0.59093 0.44078 0.8503 0.0
H1165 H 0.54663 0.45493 0.83582 0.0
H1166 H 0.57562 0.43396 0.80391 0.0
H1167 H 0.52741 0.38535 0.78679 0.0
H1168 H 0.49859 0.40931 0.81727 0.0
H1169 H 0.50706 0.36323 0.82219 0.0
H1170 H 0.58037 0.34803 0.94532 0.0
H1171 H 0.55741 0.39775 0.98305 0.0
H1172 H 0.5151 0.44499 0.8874 0.0
C1173 C 0.60583 0.3653 0.81115 0.0
C1174 C 0.63607 0.34394 0.8174 0.0
C1175 C 0.63892 0.32579 0.84948 0.0
C1176 C 0.61318 0.33031 0.8756 0.0
C1177 C 0.58443 0.35282 0.86934 0.0
C1178 C 0.58039 0.36977 0.83764 0.0
C1179 C 0.55186 0.3979 0.84027 0.0
C1180 C 0.56721 0.43395 0.83216 0.0
C1181 C 0.51925 0.38828 0.81518 0.0
C1182 C 0.54293 0.39628 0.87941 0.0
C1183 C 0.56129 0.36945 0.89557 0.0
C1184 C 0.56464 0.36829 0.93297 0.0
C1185 C 0.55157 0.39665 0.95432 0.0
C1186 C 0.53532 0.42533 0.93787 0.0
C1187 C 0.52779 0.4233 0.90045 0.0
H1188 H 0.66893 0.3404 0.23339 0.0
H1189 H 0.75637 0.32139 0.16068 0.0
H1190 H 0.72577 0.35709 0.11635 0.0
H1191 H 0.59771 0.33619 0.16408 0.0
H1192 H 0.57111 0.37065 0.18521 0.0
H1193 H 0.60018 0.34407 0.21228 0.0
H1194 H 0.63203 0.39987 0.24037 0.0
H1195 H 0.60294 0.42659 0.21349 0.0
H1196 H 0.65113 0.43026 0.21135 0.0
H1197 H 0.68616 0.39541 0.07916 0.0
H1198 H 0.6396 0.43348 0.05231 0.0
H1199 H 0.57662 0.42664 0.14738 0.0
C1200 C 0.68165 0.3439 0.20823 0.0
C1201 C 0.71542 0.32817 0.20092 0.0
C1202 C 0.73084 0.3333 0.16736 0.0
C1203 C 0.71356 0.35352 0.14175 0.0
C1204 C 0.68043 0.36854 0.1496 0.0
C1205 C 0.66449 0.36399 0.18194 0.0
C1206 C 0.62845 0.38292 0.18313 0.0
C1207 C 0.59754 0.3569 0.18636 0.0
C1208 C 0.62867 0.41161 0.21391 0.0
C1209 C 0.62688 0.39867 0.1466 0.0
C1210 C 0.65718 0.39012 0.12771 0.0
C1211 C 0.66217 0.4022 0.09364 0.0
C1212 C 0.63555 0.42382 0.07854 0.0
C1213 C 0.60416 0.43304 0.09736 0.0
C1214 C 0.59996 0.41994 0.13183 0.0
H1215 H 0.69717 0.66263 0.23525 0.0
H1216 H 0.69367 0.75014 0.16637 0.0
H1217 H 0.6556 0.71519 0.1216 0.0
H1218 H 0.70263 0.59454 0.16404 0.0
H1219 H 0.67518 0.56463 0.1865 0.0
H1220 H 0.7022 0.59673 0.21245 0.0
H1221 H 0.64572 0.61826 0.24425 0.0
H1222 H 0.61647 0.58884 0.21731 0.0
H1223 H 0.60846 0.63554 0.21861 0.0
H1224 H 0.61915 0.66917 0.08337 0.0
H1225 H 0.58523 0.61785 0.05672 0.0
H1226 H 0.61169 0.56147 0.15179 0.0
C1227 C 0.68828 0.67466 0.21087 0.0
C1228 C 0.69829 0.70932 0.20449 0.0
C1229 C 0.68623 0.72376 0.17201 0.0
C1230 C 0.66471 0.70402 0.14635 0.0
C1231 C 0.65563 0.66981 0.15344 0.0
C1232 C 0.66712 0.65531 0.18494 0.0
C1233 C 0.65369 0.6181 0.18634 0.0
C1234 C 0.68531 0.59196 0.18739 0.0
C1235 C 0.62962 0.61493 0.21853 0.0
C1236 C 0.6323 0.61396 0.15091 0.0
C1237 C 0.63413 0.64387 0.13204 0.0
C1238 C 0.61748 0.64571 0.09802 0.0
C1239 C 0.59841 0.61633 0.083 0.0
C1240 C 0.59577 0.58557 0.1021 0.0
C1241 C 0.61297 0.58462 0.13655 0.0
H1242 H 0.44665 0.65963 0.26371 0.0
H1243 H 0.40194 0.74325 0.20274 0.0
H1244 H 0.44667 0.73178 0.15697 0.0
H1245 H 0.54735 0.66548 0.22474 0.0
H1246 H 0.549 0.61847 0.22763 0.0
H1247 H 0.52703 0.64553 0.26154 0.0
H1248 H 0.47086 0.60577 0.2489 0.0
H1249 H 0.49277 0.58112 0.21403 0.0
H1250 H 0.45034 0.60233 0.20413 0.0
H1251 H 0.47195 0.69581 0.10904 0.0
H1252 H 0.47868 0.6429 0.06865 0.0
H1253 H 0.51713 0.58548 0.15901 0.0
C1254 C 0.44785 0.67664 0.24169 0.0
C1255 C 0.42029 0.70112 0.23592 0.0
C1256 C 0.42206 0.72316 0.20688 0.0
C1257 C 0.44793 0.71732 0.18104 0.0
C1258 C 0.47243 0.69 0.18512 0.0
C1259 C 0.47362 0.67086 0.21564 0.0
C1260 C 0.49651 0.63835 0.21035 0.0
C1261 C 0.53214 0.64228 0.23235 0.0
C1262 C 0.47634 0.60502 0.21982 0.0
C1263 C 0.5026 0.63907 0.17052 0.0
C1264 C 0.48994 0.66982 0.15661 0.0
C1265 C 0.48347 0.67231 0.11959 0.0
C1266 C 0.48709 0.64209 0.09673 0.0
C1267 C 0.49734 0.61019 0.11124 0.0
C1268 C 0.50861 0.60973 0.14767 0.0
H1269 H 0.36539 0.35479 0.20725 0.0
H1270 H 0.30982 0.43791 0.26663 0.0
H1271 H 0.31909 0.47761 0.21722 0.0
H1272 H 0.43278 0.40402 0.17601 0.0
H1273 H 0.4344 0.38015 0.13287 0.0
H1274 H 0.41867 0.3589 0.17079 0.0
H1275 H 0.35925 0.3433 0.13455 0.0
H1276 H 0.37458 0.36559 0.09678 0.0
H1277 H 0.33224 0.37773 0.11616 0.0
H1278 H 0.34281 0.50952 0.1653 0.0
H1279 H 0.38244 0.53144 0.11975 0.0
H1280 H 0.41859 0.42559 0.09331 0.0
C1281 C 0.35521 0.38141 0.20959 0.0
C1282 C 0.33777 0.39397 0.24059 0.0
C1283 C 0.32386 0.42844 0.24302 0.0
C1284 C 0.32858 0.45077 0.21499 0.0
C1285 C 0.34627 0.43758 0.18458 0.0
C1286 C 0.35917 0.40353 0.18182 0.0
C1287 C 0.37993 0.39614 0.14826 0.0
C1288 C 0.41872 0.38415 0.15756 0.0
C1289 C 0.36031 0.36909 0.12241 0.0
C1290 C 0.3789 0.43201 0.13353 0.0
C1291 C 0.35859 0.45549 0.15418 0.0
C1292 C 0.35789 0.49123 0.14833 0.0
C1293 C 0.38016 0.50346 0.12222 0.0
C1294 C 0.40283 0.47991 0.10291 0.0
C1295 C 0.4006 0.44375 0.10722 0.0
H1296 H 0.80976 0.67642 0.67255 0.0
H1297 H 0.87045 0.77328 0.67911 0.0
H1298 H 0.9121 0.74753 0.63446 0.0
H1299 H 0.88296 0.62018 0.66922 0.0
H1300 H 0.86191 0.58774 0.63826 0.0
H1301 H 0.83466 0.61551 0.66697 0.0
H1302 H 0.79828 0.63565 0.6111 0.0
H1303 H 0.82568 0.608 0.58215 0.0
H1304 H 0.82163 0.65413 0.57528 0.0
H1305 H 0.9515 0.70811 0.59389 0.0
H1306 H 0.98475 0.65875 0.56389 0.0
H1307 H 0.89662 0.58923 0.58274 0.0
C1308 C 0.83136 0.69252 0.6641 0.0
C1309 C 0.83669 0.72694 0.67935 0.0
C1310 C 0.86564 0.74689 0.66776 0.0
C1311 C 0.88943 0.73251 0.64228 0.0
C1312 C 0.88375 0.69825 0.62822 0.0
C1313 C 0.8552 0.67865 0.63862 0.0
C1314 C 0.85635 0.64167 0.62174 0.0
C1315 C 0.85916 0.61471 0.65077 0.0
C1316 C 0.82353 0.63445 0.59604 0.0
C1317 C 0.89068 0.64305 0.60128 0.0
C1318 C 0.90599 0.67595 0.60481 0.0
C1319 C 0.93937 0.68241 0.59046 0.0
C1320 C 0.95803 0.65427 0.57321 0.0
C1321 C 0.94336 0.62008 0.5708 0.0
C1322 C 0.90863 0.61503 0.58392 0.0
H1323 H 0.41732 0.80315 0.68777 0.0
H1324 H 0.32413 0.79339 0.61488 0.0
H1325 H 0.34645 0.84186 0.5807 0.0
H1326 H 0.41775 0.89348 0.69518 0.0
H1327 H 0.46595 0.89897 0.6973 0.0
H1328 H 0.44654 0.85966 0.71223 0.0
H1329 H 0.48484 0.82156 0.66801 0.0
H1330 H 0.50507 0.86075 0.65354 0.0
H1331 H 0.48333 0.83026 0.621 0.0
H1332 H 0.37625 0.89414 0.5579 0.0
H1333 H 0.41255 0.94589 0.54656 0.0
H1334 H 0.48448 0.92401 0.63712 0.0
C1335 C 0.40267 0.81039 0.66365 0.0
C1336 C 0.36973 0.79419 0.65296 0.0
C1337 C 0.34994 0.80517 0.62253 0.0
C1338 C 0.3623 0.83269 0.60324 0.0
C1339 C 0.39432 0.84908 0.61514 0.0
C1340 C 0.41444 0.83821 0.64447 0.0
C1341 C 0.44611 0.86231 0.65362 0.0
C1342 C 0.44393 0.87962 0.69184 0.0
C1343 C 0.48195 0.84254 0.64874 0.0
C1344 C 0.44012 0.8888 0.62543 0.0
C1345 C 0.4104 0.88045 0.60323 0.0
C1346 C 0.39961 0.90094 0.57508 0.0
C1347 C 0.42023 0.93041 0.56902 0.0
C1348 C 0.451 0.93929 0.59129 0.0
C1349 C 0.4607 0.91834 0.62008 0.0
H1350 H 0.25083 0.40002 0.6321 0.0
H1351 H 0.2337 0.42936 0.74387 0.0
H1352 H 0.18124 0.46544 0.72652 0.0
H1353 H 0.21199 0.4848 0.59259 0.0
H1354 H 0.19187 0.45897 0.55507 0.0
H1355 H 0.23425 0.44562 0.57525 0.0
H1356 H 0.20674 0.38494 0.58437 0.0
H1357 H 0.164 0.3983 0.56567 0.0
H1358 H 0.16688 0.38239 0.61017 0.0
H1359 H 0.12358 0.4843 0.69926 0.0
H1360 H 0.06732 0.49065 0.66295 0.0
H1361 H 0.12104 0.4483 0.56829 0.0
C1362 C 0.23727 0.41598 0.65248 0.0
C1363 C 0.24626 0.41281 0.68909 0.0
C1364 C 0.22718 0.43229 0.71565 0.0
C1365 C 0.19745 0.45271 0.706 0.0
C1366 C 0.18743 0.45331 0.66968 0.0
C1367 C 0.20719 0.43606 0.64316 0.0
C1368 C 0.18741 0.4358 0.60691 0.0
C1369 C 0.20758 0.45762 0.58092 0.0
C1370 C 0.18088 0.39813 0.59089 0.0
C1371 C 0.15263 0.45345 0.61768 0.0
C1372 C 0.1534 0.46394 0.65381 0.0
C1373 C 0.12297 0.47723 0.67069 0.0
C1374 C 0.09104 0.48034 0.64995 0.0
C1375 C 0.08988 0.47017 0.61278 0.0
C1376 C 0.1212 0.45675 0.59656 0.0
H1377 H 0.73603 0.16833 0.68416 0.0
H1378 H 0.68852 0.26998 0.66615 0.0
H1379 H 0.64612 0.24253 0.62054 0.0
H1380 H 0.72029 0.1282 0.58868 0.0
H1381 H 0.70973 0.08648 0.60562 0.0
H1382 H 0.74211 0.11495 0.62972 0.0
H1383 H 0.70534 0.11261 0.6872 0.0
H1384 H 0.67277 0.08461 0.66333 0.0
H1385 H 0.65847 0.12522 0.68565 0.0
H1386 H 0.60237 0.20353 0.58557 0.0
H1387 H 0.5604 0.15577 0.56513 0.0
H1388 H 0.63574 0.07987 0.60728 0.0
C1389 C 0.71765 0.18491 0.66955 0.0
C1390 C 0.71556 0.22115 0.67844 0.0
C1391 C 0.69051 0.24205 0.65961 0.0
C1392 C 0.6665 0.22676 0.63348 0.0
C1393 C 0.66809 0.19064 0.62641 0.0
C1394 C 0.69326 0.16999 0.64369 0.0
C1395 C 0.68599 0.13148 0.63538 0.0
C1396 C 0.71634 0.11427 0.61354 0.0
C1397 C 0.68028 0.1124 0.66994 0.0
C1398 C 0.65156 0.13373 0.61273 0.0
C1399 C 0.64218 0.16798 0.60689 0.0
C1400 C 0.60977 0.17654 0.58929 0.0
C1401 C 0.58606 0.14932 0.57792 0.0
C1402 C 0.59474 0.11427 0.58499 0.0
C1403 C 0.62829 0.10649 0.60172 0.0
H1404 H 0.82047 0.33375 0.36872 0.0
H1405 H 0.84933 0.36149 0.26253 0.0
H1406 H 0.89221 0.40524 0.28991 0.0
H1407 H 0.83122 0.42277 0.41508 0.0
H1408 H 0.85103 0.40587 0.45541 0.0
H1409 H 0.81883 0.37995 0.42804 0.0
H1410 H 0.86498 0.329 0.42296 0.0
H1411 H 0.89727 0.35479 0.45019 0.0
H1412 H 0.90888 0.33694 0.40626 0.0
H1413 H 0.93496 0.44191 0.32722 0.0
H1414 H 0.978 0.46817 0.37234 0.0
H1415 H 0.92449 0.41732 0.45644 0.0
C1416 C 0.83518 0.34976 0.35137 0.0
C1417 C 0.83118 0.34462 0.31342 0.0
C1418 C 0.85175 0.36517 0.29157 0.0
C1419 C 0.87609 0.39018 0.30691 0.0
C1420 C 0.87993 0.39424 0.34426 0.0
C1421 C 0.86023 0.37462 0.36636 0.0
C1422 C 0.8723 0.38217 0.40562 0.0
C1423 C 0.8415 0.39867 0.42732 0.0
C1424 C 0.88671 0.34873 0.42223 0.0
C1425 C 0.90233 0.40847 0.40194 0.0
C1426 C 0.90569 0.41524 0.36622 0.0
C1427 C 0.93238 0.43707 0.35529 0.0
C1428 C 0.95681 0.45185 0.38127 0.0
C1429 C 0.95471 0.44504 0.4181 0.0
C1430 C 0.92654 0.42349 0.42865 0.0
H1431 H 0.67844 0.84874 0.30047 0.0
H1432 H 0.71525 0.78148 0.38412 0.0
H1433 H 0.68184 0.81778 0.42864 0.0
H1434 H 0.67992 0.93075 0.35423 0.0
H1435 H 0.63887 0.94761 0.33435 0.0
H1436 H 0.66632 0.91706 0.30861 0.0
H1437 H 0.61188 0.87574 0.29671 0.0
H1438 H 0.5841 0.90622 0.32214 0.0
H1439 H 0.58777 0.86135 0.33414 0.0
H1440 H 0.64656 0.86312 0.46547 0.0
H1441 H 0.60574 0.90899 0.49009 0.0
H1442 H 0.58643 0.94524 0.38299 0.0
C1443 C 0.67932 0.84156 0.32812 0.0
C1444 C 0.69977 0.81195 0.33853 0.0
C1445 C 0.69984 0.80366 0.37511 0.0
C1446 C 0.68103 0.82436 0.4008 0.0
C1447 C 0.66144 0.85335 0.38982 0.0
C1448 C 0.65983 0.86164 0.35422 0.0
C1449 C 0.63526 0.89337 0.34953 0.0
C1450 C 0.65636 0.92401 0.33587 0.0
C1451 C 0.60283 0.88358 0.32413 0.0
C1452 C 0.62353 0.90165 0.38801 0.0
C1453 C 0.63951 0.87849 0.41084 0.0
C1454 C 0.63372 0.8812 0.44771 0.0
C1455 C 0.61054 0.90763 0.46157 0.0
C1456 C 0.59257 0.93106 0.43877 0.0
C1457 C 0.59954 0.92789 0.40136 0.0
H1458 H 0.16239 0.72328 0.33218 0.0
H1459 H 0.26706 0.6757 0.35232 0.0
H1460 H 0.2404 0.63718 0.3943 0.0
H1461 H 0.12927 0.71851 0.4238 0.0
H1462 H 0.0839 0.70655 0.40939 0.0
H1463 H 0.11064 0.73229 0.38157 0.0
H1464 H 0.10057 0.68667 0.32828 0.0
H1465 H 0.07357 0.66088 0.35578 0.0
H1466 H 0.11192 0.64137 0.33397 0.0
H1467 H 0.20349 0.60235 0.43431 0.0
H1468 H 0.15794 0.57011 0.46515 0.0
H1469 H 0.07388 0.63548 0.42043 0.0
C1470 C 0.17974 0.70487 0.34555 0.0
C1471 C 0.21744 0.70316 0.33838 0.0
C1472 C 0.23846 0.67807 0.35661 0.0
C1473 C 0.22346 0.65591 0.38093 0.0
C1474 C 0.18671 0.65813 0.38731 0.0
C1475 C 0.16483 0.68164 0.36992 0.0
C1476 C 0.12566 0.6768 0.38084 0.0
C1477 C 0.11152 0.71055 0.40004 0.0
C1478 C 0.10149 0.66578 0.34774 0.0
C1479 C 0.12911 0.64704 0.40688 0.0
C1480 C 0.16488 0.63718 0.41026 0.0
C1481 C 0.17547 0.61007 0.43188 0.0
C1482 C 0.1492 0.5919 0.44967 0.0
C1483 C 0.11197 0.60026 0.44647 0.0
C1484 C 0.10199 0.6288 0.42477 0.0
H1485 H 0.37559 0.21938 0.32884 0.0
H1486 H 0.27279 0.17887 0.35835 0.0
H1487 H 0.30379 0.14294 0.40276 0.0
H1488 H 0.42227 0.13749 0.33253 0.0
H1489 H 0.46437 0.15586 0.35016 0.0
H1490 H 0.43424 0.18158 0.32332 0.0
H1491 H 0.43397 0.23028 0.3747 0.0
H1492 H 0.46396 0.20445 0.40171 0.0
H1493 H 0.42159 0.21961 0.41898 0.0
H1494 H 0.34496 0.10906 0.44181 0.0
H1495 H 0.39438 0.07507 0.46926 0.0
H1496 H 0.47235 0.13379 0.41421 0.0
C1497 C 0.35969 0.20339 0.34517 0.0
C1498 C 0.32156 0.20234 0.34035 0.0
C1499 C 0.30186 0.18031 0.36157 0.0
C1500 C 0.31927 0.15987 0.38706 0.0
C1501 C 0.3567 0.16118 0.39102 0.0
C1502 C 0.37687 0.18203 0.37047 0.0
C1503 C 0.41703 0.1759 0.3782 0.0
C1504 C 0.43556 0.16187 0.34402 0.0
C1505 C 0.43521 0.20957 0.39436 0.0
C1506 C 0.41611 0.14814 0.40587 0.0
C1507 C 0.38089 0.14061 0.41317 0.0
C1508 C 0.37263 0.11502 0.4366 0.0
C1509 C 0.40089 0.09594 0.45225 0.0
C1510 C 0.43717 0.10233 0.44465 0.0
C1511 C 0.44492 0.12914 0.42144 0.0
H1512 H 0.71932 0.85505 0.70644 0.0
H1513 H 0.66969 0.75426 0.67789 0.0
H1514 H 0.62486 0.78344 0.63835 0.0
H1515 H 0.63757 0.90494 0.71044 0.0
H1516 H 0.657 0.94293 0.69254 0.0
H1517 H 0.68501 0.91369 0.71756 0.0
H1518 H 0.72722 0.90552 0.66397 0.0
H1519 H 0.69929 0.93465 0.63871 0.0
H1520 H 0.7087 0.89103 0.62021 0.0
H1521 H 0.58549 0.82508 0.60102 0.0
H1522 H 0.55423 0.8742 0.5726 0.0
H1523 H 0.62982 0.94719 0.62759 0.0
C1524 C 0.69915 0.83889 0.69185 0.0
C1525 C 0.69824 0.80217 0.69521 0.0
C1526 C 0.67103 0.78234 0.6758 0.0
C1527 C 0.64551 0.79874 0.65321 0.0
C1528 C 0.6474 0.83503 0.65048 0.0
C1529 C 0.6735 0.85478 0.66956 0.0
C1530 C 0.66959 0.89337 0.6629 0.0
C1531 C 0.66182 0.915 0.69794 0.0
C1532 C 0.7032 0.90693 0.6454 0.0
C1533 C 0.63718 0.89252 0.63693 0.0
C1534 C 0.62479 0.85867 0.62985 0.0
C1535 C 0.5951 0.85161 0.60647 0.0
C1536 C 0.57757 0.87976 0.59028 0.0
C1537 C 0.58946 0.91478 0.59765 0.0
C1538 C 0.61985 0.9209 0.62127 0.0
H1539 H 0.62083 0.22312 0.35736 0.0
H1540 H 0.7228 0.21747 0.41675 0.0
H1541 H 0.70105 0.16658 0.4477 0.0
H1542 H 0.56217 0.19374 0.42808 0.0
H1543 H 0.53401 0.16848 0.3958 0.0
H1544 H 0.55593 0.20735 0.38281 0.0
H1545 H 0.58469 0.17071 0.33041 0.0
H1546 H 0.56359 0.13162 0.34388 0.0
H1547 H 0.61177 0.13289 0.34006 0.0
H1548 H 0.66931 0.11516 0.46969 0.0
H1549 H 0.62921 0.06633 0.48205 0.0
H1550 H 0.54984 0.10272 0.40421 0.0
C1551 C 0.63783 0.21181 0.3779 0.0
C1552 C 0.67296 0.22436 0.38571 0.0
C1553 C 0.6955 0.2083 0.41134 0.0
C1554 C 0.68344 0.17945 0.42877 0.0
C1555 C 0.64899 0.16688 0.41971 0.0
C1556 C 0.62641 0.18256 0.39497 0.0
C1557 C 0.59187 0.16211 0.38785 0.0
C1558 C 0.55906 0.18423 0.39934 0.0
C1559 C 0.58777 0.14853 0.3482 0.0
C1560 C 0.59874 0.13239 0.41221 0.0
C1561 C 0.63165 0.13584 0.43062 0.0
C1562 C 0.64354 0.11205 0.45535 0.0
C1563 C 0.62076 0.08436 0.46202 0.0
C1564 C 0.58688 0.08052 0.44356 0.0
C1565 C 0.57604 0.10455 0.41799 0.0
H1566 H 0.7949 0.62267 0.4055 0.0
H1567 H 0.81375 0.60359 0.29241 0.0
H1568 H 0.8649 0.56476 0.30679 0.0
H1569 H 0.87782 0.63684 0.43118 0.0
H1570 H 0.87951 0.61618 0.47338 0.0
H1571 H 0.8373 0.63161 0.45539 0.0
H1572 H 0.80946 0.56984 0.45713 0.0
H1573 H 0.85146 0.55431 0.4763 0.0
H1574 H 0.8319 0.53249 0.43602 0.0
H1575 H 0.92206 0.54354 0.3326 0.0
H1576 H 0.97828 0.5353 0.36852 0.0
H1577 H 0.92303 0.56822 0.46551 0.0
C1578 C 0.80851 0.60834 0.384 0.0
C1579 C 0.80052 0.61533 0.34801 0.0
C1580 C 0.81958 0.59785 0.32012 0.0
C1581 C 0.84853 0.57582 0.32808 0.0
C1582 C 0.85776 0.57149 0.36407 0.0
C1583 C 0.83781 0.58659 0.39169 0.0
C1584 C 0.85692 0.58307 0.42786 0.0
C1585 C 0.86326 0.61905 0.44808 0.0
C1586 C 0.8362 0.55844 0.45066 0.0
C1587 C 0.89184 0.56651 0.41592 0.0
C1588 C 0.8915 0.55922 0.37918 0.0
C1589 C 0.92231 0.54799 0.36155 0.0
C1590 C 0.95423 0.54384 0.38209 0.0
C1591 C 0.95498 0.55101 0.41978 0.0
C1592 C 0.92322 0.5621 0.43677 0.0
H1593 H 0.29742 0.85929 0.36307 0.0
H1594 H 0.34712 0.75787 0.37644 0.0
H1595 H 0.38642 0.78347 0.42561 0.0
H1596 H 0.37041 0.90274 0.36317 0.0
H1597 H 0.35718 0.94266 0.38755 0.0
H1598 H 0.32363 0.91552 0.36441 0.0
H1599 H 0.28976 0.91082 0.42335 0.0
H1600 H 0.32307 0.93873 0.44682 0.0
H1601 H 0.31352 0.89639 0.46288 0.0
H1602 H 0.43027 0.82093 0.45947 0.0
H1603 H 0.47508 0.86741 0.47475 0.0
H1604 H 0.39884 0.94506 0.43797 0.0
C1605 C 0.31536 0.8423 0.37768 0.0
C1606 C 0.31949 0.80688 0.36621 0.0
C1607 C 0.3438 0.78526 0.38495 0.0
C1608 C 0.36592 0.79948 0.41318 0.0
C1609 C 0.36316 0.83521 0.42234 0.0
C1610 C 0.33806 0.85634 0.40547 0.0
C1611 C 0.34549 0.89471 0.41453 0.0
C1612 C 0.34945 0.91503 0.38039 0.0
C1613 C 0.31622 0.91112 0.43832 0.0
C1614 C 0.3808 0.89182 0.43556 0.0
C1615 C 0.38968 0.85741 0.44134 0.0
C1616 C 0.4232 0.84806 0.4561 0.0
C1617 C 0.44858 0.8745 0.46434 0.0
C1618 C 0.44038 0.90951 0.45685 0.0
C1619 C 0.40576 0.91832 0.44355 0.0
H1620 H 0.15173 0.29906 0.31798 0.0
H1621 H 0.24795 0.29148 0.38639 0.0
H1622 H 0.21661 0.32176 0.43684 0.0
H1623 H 0.13176 0.3846 0.3469 0.0
H1624 H 0.08347 0.37989 0.34449 0.0
H1625 H 0.11088 0.35185 0.31616 0.0
H1626 H 0.08235 0.29725 0.34134 0.0
H1627 H 0.05488 0.32524 0.3699 0.0
H1628 H 0.08367 0.29263 0.38919 0.0
H1629 H 0.17764 0.35907 0.47756 0.0
H1630 H 0.13559 0.40364 0.50342 0.0
H1631 H 0.06534 0.38935 0.40846 0.0
C1632 C 0.1656 0.30272 0.34402 0.0
C1633 C 0.20191 0.29223 0.34874 0.0
C1634 C 0.21991 0.29884 0.38258 0.0
C1635 C 0.20229 0.31593 0.41137 0.0
C1636 C 0.16668 0.32667 0.40584 0.0
C1637 C 0.14853 0.32046 0.37293 0.0
C1638 C 0.11211 0.33869 0.37266 0.0
C1639 C 0.10942 0.36534 0.34333 0.0
C1640 C 0.08144 0.31184 0.368 0.0
C1641 C 0.11304 0.35684 0.41008 0.0
C1642 C 0.14444 0.34899 0.42909 0.0
C1643 C 0.1526 0.36477 0.46324 0.0
C1644 C 0.12853 0.38985 0.4779 0.0
C1645 C 0.09683 0.39888 0.45842 0.0
C1646 C 0.08879 0.38178 0.42439 0.0
H1647 H 0.36595 0.17979 0.73767 0.0
H1648 H 0.32887 0.24663 0.65377 0.0
H1649 H 0.3601 0.20865 0.60887 0.0
H1650 H 0.4552 0.16381 0.70176 0.0
H1651 H 0.45772 0.11914 0.71458 0.0
H1652 H 0.43164 0.15097 0.7402 0.0
H1653 H 0.37567 0.11129 0.73059 0.0
H1654 H 0.40141 0.07942 0.70464 0.0
H1655 H 0.36045 0.09723 0.68554 0.0
H1656 H 0.39295 0.16135 0.57179 0.0
H1657 H 0.43173 0.11376 0.54705 0.0
H1658 H 0.45259 0.07929 0.65465 0.0
C1659 C 0.3646 0.18656 0.70988 0.0
C1660 C 0.34471 0.2165 0.6995 0.0
C1661 C 0.34392 0.22422 0.66273 0.0
C1662 C 0.36146 0.20255 0.63685 0.0
C1663 C 0.38044 0.17319 0.64783 0.0
C1664 C 0.38275 0.16551 0.6836 0.0
C1665 C 0.40636 0.13314 0.68828 0.0
C1666 C 0.43971 0.14233 0.71265 0.0
C1667 C 0.38467 0.10352 0.70314 0.0
C1668 C 0.41675 0.1238 0.64961 0.0
C1669 C 0.40095 0.14696 0.62667 0.0
C1670 C 0.40567 0.14328 0.58963 0.0
C1671 C 0.42767 0.11588 0.57571 0.0
C1672 C 0.4455 0.09247 0.59864 0.0
C1673 C 0.43955 0.09659 0.6362 0.0
H1674 H 0.8819 0.30622 0.70776 0.0
H1675 H 0.77618 0.34426 0.67475 0.0
H1676 H 0.80363 0.37961 0.63032 0.0
H1677 H 0.92701 0.38974 0.70092 0.0
H1678 H 0.9683 0.37113 0.6843 0.0
H1679 H 0.94076 0.34633 0.71222 0.0
H1680 H 0.93796 0.29562 0.66313 0.0
H1681 H 0.96535 0.32037 0.63496 0.0
H1682 H 0.92207 0.30415 0.6182 0.0
H1683 H 0.84156 0.41287 0.58972 0.0
H1684 H 0.88772 0.44526 0.55968 0.0
H1685 H 0.97165 0.3903 0.61771 0.0
C1686 C 0.86451 0.3217 0.69091 0.0
C1687 C 0.82631 0.32182 0.69514 0.0
C1688 C 0.80517 0.34326 0.67261 0.0
C1689 C 0.82063 0.36354 0.64693 0.0
C1690 C 0.85791 0.36309 0.64355 0.0
C1691 C 0.87982 0.34306 0.66512 0.0
C1692 C 0.91944 0.3495 0.6569 0.0
C1693 C 0.9401 0.3651 0.69059 0.0
C1694 C 0.93727 0.31537 0.64245 0.0
C1695 C 0.9162 0.3762 0.62763 0.0
C1696 C 0.88021 0.38314 0.62026 0.0
C1697 C 0.86978 0.40733 0.59518 0.0
C1698 C 0.89637 0.42556 0.57787 0.0
C1699 C 0.93368 0.42001 0.58502 0.0
C1700 C 0.94357 0.3945 0.61031 0.0
H1701 H 0.21414 0.69754 0.6688 0.0
H1702 H 0.17861 0.67374 0.77398 0.0
H1703 H 0.13836 0.62798 0.74572 0.0
H1704 H 0.12713 0.69011 0.62552 0.0
H1705 H 0.14252 0.67126 0.5833 0.0
H1706 H 0.17182 0.69939 0.61161 0.0
H1707 H 0.22037 0.65051 0.61173 0.0
H1708 H 0.19111 0.62217 0.58349 0.0
H1709 H 0.20896 0.60782 0.62579 0.0
H1710 H 0.10083 0.58688 0.70721 0.0
H1711 H 0.06247 0.55644 0.66062 0.0
H1712 H 0.11811 0.60741 0.57795 0.0
C1713 C 0.19834 0.68216 0.68581 0.0
C1714 C 0.19991 0.68877 0.72372 0.0
C1715 C 0.17803 0.66895 0.74502 0.0
C1716 C 0.15522 0.64279 0.72918 0.0
C1717 C 0.15409 0.63701 0.69185 0.0
C1718 C 0.17466 0.65632 0.67026 0.0
C1719 C 0.16555 0.64674 0.63062 0.0
C1720 C 0.15088 0.67878 0.61165 0.0
C1721 C 0.19847 0.63087 0.6118 0.0
C1722 C 0.13637 0.61934 0.63339 0.0
C1723 C 0.13088 0.61392 0.66911 0.0
C1724 C 0.10492 0.59088 0.67919 0.0
C1725 C 0.08319 0.57366 0.65232 0.0
C1726 C 0.08704 0.57939 0.6154 0.0
C1727 C 0.11469 0.60207 0.60578 0.0
loop_
_geom_bond_atom_site_label_1
_geom_bond_atom_site_label_2
_geom_bond_distance
_geom_bond_site_symmetry_2
_ccdc_geom_bond_type
Co0 N5 2.057 . S
Co0 O17 2.021 . S
Co0 O20 2.062 . S
Co0 O24 2.117 . S
Co0 O25 2.020 . S
C1 O21 1.259 . S
C1 O24 1.258 . S
Co2 N11 2.057 . S
Co2 O18 2.117 . S
Co2 O19 2.020 . S
Co2 O21 2.021 . S
Co2 O26 2.062 . S
C3 N5 1.316 . S
C3 N6 1.347 . S
C3 H8 0.931 . S
C4 N5 1.375 . S
C4 C7 1.350 . S
C4 H9 0.930 . S
N5 Co0 2.057 . S
N5 C3 1.316 . S
N5 C4 1.375 . S
N6 C3 1.347 . S
N6 C7 1.373 . S
C7 C4 1.350 . S
C7 N6 1.373 . S
C7 H28 0.931 . S
H8 C3 0.931 . S
H9 C4 0.930 . S
C10 O17 1.259 . S
C10 O18 1.258 . S
N11 Co2 2.057 . S
N11 C12 1.316 . S
N11 C13 1.375 . S
C12 N11 1.316 . S
C12 N14 1.347 . S
C12 H23 0.931 . S
C13 N11 1.375 . S
C13 C15 1.350 . S
C13 H22 0.930 . S
N14 C12 1.347 . S
N14 C15 1.373 . S
C15 C13 1.350 . S
C15 N14 1.373 . S
C15 H29 0.931 . S
C16 O19 1.256 . S
C16 O20 1.255 . S
O17 Co0 2.021 . S
O17 C10 1.259 . S
O18 Co2 2.117 . S
O18 C10 1.258 . S
O19 Co2 2.020 . S
O19 C16 1.256 . S
O20 Co0 2.062 . S
O20 C16 1.255 . S
O21 C1 1.259 . S
O21 Co2 2.021 . S
H22 C13 0.930 . S
H23 C12 0.931 . S
O24 Co0 2.117 . S
O24 C1 1.258 . S
O25 Co0 2.020 . S
O25 C27 1.256 . S
O26 Co2 2.062 . S
O26 C27 1.255 . S
C27 O25 1.256 . S
C27 O26 1.255 . S
H28 C7 0.931 . S
H29 C15 0.931 . S
Co30 N35 2.057 . S
Co30 O47 2.021 . S
Co30 O50 2.062 . S
Co30 O54 2.117 . S
Co30 O55 2.020 . S
C31 O51 1.259 . S
C31 O54 1.258 . S
Co32 N41 2.057 . S
Co32 O48 2.117 . S
Co32 O49 2.020 . S
Co32 O51 2.021 . S
Co32 O56 2.062 . S
C33 N35 1.316 . S
C33 N36 1.347 . S
C33 H38 0.931 . S
C34 N35 1.375 . S
C34 C37 1.350 . S
C34 H39 0.930 . S
N35 Co30 2.057 . S
N35 C33 1.316 . S
N35 C34 1.375 . S
N36 C33 1.347 . S
N36 C37 1.373 . S
C37 C34 1.350 . S
C37 N36 1.373 . S
C37 H58 0.931 . S
H38 C33 0.931 . S
H39 C34 0.930 . S
C40 O47 1.259 . S
C40 O48 1.258 . S
N41 Co32 2.057 . S
N41 C42 1.316 . S
N41 C43 1.375 . S
C42 N41 1.316 . S
C42 N44 1.347 . S
C42 H53 0.931 . S
C43 N41 1.375 . S
C43 C45 1.350 . S
C43 H52 0.930 . S
N44 C42 1.347 . S
N44 C45 1.373 . S
C45 C43 1.350 . S
C45 N44 1.373 . S
C45 H59 0.931 . S
C46 O49 1.256 . S
C46 O50 1.255 . S
O47 Co30 2.021 . S
O47 C40 1.259 . S
O48 Co32 2.117 . S
O48 C40 1.258 . S
O49 Co32 2.020 . S
O49 C46 1.256 . S
O50 Co30 2.062 . S
O50 C46 1.255 . S
O51 C31 1.259 . S
O51 Co32 2.021 . S
H52 C43 0.930 . S
H53 C42 0.931 . S
O54 Co30 2.117 . S
O54 C31 1.258 . S
O55 Co30 2.020 . S
O55 C57 1.256 . S
O56 Co32 2.062 . S
O56 C57 1.255 . S
C57 O55 1.256 . S
C57 O56 1.255 . S
H58 C37 0.931 . S
H59 C45 0.931 . S
Co60 N65 2.057 . S
Co60 O77 2.021 . S
Co60 O80 2.062 . S
Co60 O84 2.117 . S
Co60 O85 2.020 . S
C61 O81 1.259 . S
C61 O84 1.258 . S
Co62 N71 2.057 . S
Co62 O78 2.117 . S
Co62 O79 2.020 . S
Co62 O81 2.021 . S
Co62 O86 2.062 . S
C63 N65 1.316 . S
C63 N66 1.347 . S
C63 H68 0.931 . S
C64 N65 1.375 . S
C64 C67 1.350 . S
C64 H69 0.930 . S
N65 Co60 2.057 . S
N65 C63 1.316 . S
N65 C64 1.375 . S
N66 C63 1.347 . S
N66 C67 1.373 . S
C67 C64 1.350 . S
C67 N66 1.373 . S
C67 H88 0.931 . S
H68 C63 0.931 . S
H69 C64 0.930 . S
C70 O77 1.259 . S
C70 O78 1.258 . S
N71 Co62 2.057 . S
N71 C72 1.316 . S
N71 C73 1.375 . S
C72 N71 1.316 . S
C72 N74 1.347 . S
C72 H83 0.931 . S
C73 N71 1.375 . S
C73 C75 1.350 . S
C73 H82 0.930 . S
N74 C72 1.347 . S
N74 C75 1.373 . S
C75 C73 1.350 . S
C75 N74 1.373 . S
C75 H89 0.931 . S
C76 O79 1.256 . S
C76 O80 1.255 . S
O77 Co60 2.021 . S
O77 C70 1.259 . S
O78 Co62 2.117 . S
O78 C70 1.258 . S
O79 Co62 2.020 . S
O79 C76 1.256 . S
O80 Co60 2.062 . S
O80 C76 1.255 . S
O81 C61 1.259 . S
O81 Co62 2.021 . S
H82 C73 0.930 . S
H83 C72 0.931 . S
O84 Co60 2.117 . S
O84 C61 1.258 . S
O85 Co60 2.020 . S
O85 C87 1.256 . S
O86 Co62 2.062 . S
O86 C87 1.255 . S
C87 O85 1.256 . S
C87 O86 1.255 . S
H88 C67 0.931 . S
H89 C75 0.931 . S
Co90 N95 2.057 . S
Co90 O107 2.021 . S
Co90 O110 2.062 . S
Co90 O114 2.117 . S
Co90 O115 2.020 . S
C91 O111 1.259 . S
C91 O114 1.258 . S
Co92 N101 2.057 . S
Co92 O108 2.117 . S
Co92 O109 2.020 . S
Co92 O111 2.021 . S
Co92 O116 2.062 . S
C93 N95 1.316 . S
C93 N96 1.347 . S
C93 H98 0.931 . S
C94 N95 1.375 . S
C94 C97 1.350 . S
C94 H99 0.930 . S
N95 Co90 2.057 . S
N95 C93 1.316 . S
N95 C94 1.375 . S
N96 C93 1.347 . S
N96 C97 1.373 . S
C97 C94 1.350 . S
C97 N96 1.373 . S
C97 H118 0.931 . S
H98 C93 0.931 . S
H99 C94 0.930 . S
C100 O107 1.259 . S
C100 O108 1.258 . S
N101 Co92 2.057 . S
N101 C102 1.316 . S
N101 C103 1.375 . S
C102 N101 1.316 . S
C102 N104 1.347 . S
C102 H113 0.931 . S
C103 N101 1.375 . S
C103 C105 1.350 . S
C103 H112 0.930 . S
N104 C102 1.347 . S
N104 C105 1.373 . S
C105 C103 1.350 . S
C105 N104 1.373 . S
C105 H119 0.931 . S
C106 O109 1.256 . S
C106 O110 1.255 . S
O107 Co90 2.021 . S
O107 C100 1.259 . S
O108 Co92 2.117 . S
O108 C100 1.258 . S
O109 Co92 2.020 . S
O109 C106 1.256 . S
O110 Co90 2.062 . S
O110 C106 1.255 . S
O111 C91 1.259 . S
O111 Co92 2.021 . S
H112 C103 0.930 . S
H113 C102 0.931 . S
O114 Co90 2.117 . S
O114 C91 1.258 . S
O115 Co90 2.020 . S
O115 C117 1.256 . S
O116 Co92 2.062 . S
O116 C117 1.255 . S
C117 O115 1.256 . S
C117 O116 1.255 . S
H118 C97 0.931 . S
H119 C105 0.931 . S
Co120 N125 2.057 . S
Co120 O137 2.021 . S
Co120 O140 2.062 . S
Co120 O144 2.117 . S
Co120 O145 2.020 . S
C121 O141 1.259 . S
C121 O144 1.258 . S
Co122 N131 2.057 . S
Co122 O138 2.117 . S
Co122 O139 2.020 . S
Co122 O141 2.021 . S
Co122 O146 2.062 . S
C123 N125 1.316 . S
C123 N126 1.347 . S
C123 H128 0.931 . S
C124 N125 1.375 . S
C124 C127 1.350 . S
C124 H129 0.930 . S
N125 Co120 2.057 . S
N125 C123 1.316 . S
N125 C124 1.375 . S
N126 C123 1.347 . S
N126 C127 1.373 . S
C127 C124 1.350 . S
C127 N126 1.373 . S
C127 H148 0.931 . S
H128 C123 0.931 . S
H129 C124 0.930 . S
C130 O137 1.259 . S
C130 O138 1.258 . S
N131 Co122 2.057 . S
N131 C132 1.316 . S
N131 C133 1.375 . S
C132 N131 1.316 . S
C132 N134 1.347 . S
C132 H143 0.931 . S
C133 N131 1.375 . S
C133 C135 1.350 . S
C133 H142 0.930 . S
N134 C132 1.347 . S
N134 C135 1.373 . S
C135 C133 1.350 . S
C135 N134 1.373 . S
C135 H149 0.931 . S
C136 O139 1.256 . S
C136 O140 1.255 . S
O137 Co120 2.021 . S
O137 C130 1.259 . S
O138 Co122 2.117 . S
O138 C130 1.258 . S
O139 Co122 2.020 . S
O139 C136 1.256 . S
O140 Co120 2.062 . S
O140 C136 1.255 . S
O141 C121 1.259 . S
O141 Co122 2.021 . S
H142 C133 0.930 . S
H143 C132 0.931 . S
O144 Co120 2.117 . S
O144 C121 1.258 . S
O145 Co120 2.020 . S
O145 C147 1.256 . S
O146 Co122 2.062 . S
O146 C147 1.255 . S
C147 O145 1.256 . S
C147 O146 1.255 . S
H148 C127 0.931 . S
H149 C135 0.931 . S
Co150 N155 2.057 . S
Co150 O167 2.021 . S
Co150 O170 2.062 . S
Co150 O174 2.117 . S
Co150 O175 2.020 . S
C151 O171 1.259 . S
C151 O174 1.258 . S
Co152 N161 2.057 . S
Co152 O168 2.117 . S
Co152 O169 2.020 . S
Co152 O171 2.021 . S
Co152 O176 2.062 . S
C153 N155 1.316 . S
C153 N156 1.347 . S
C153 H158 0.931 . S
C154 N155 1.375 . S
C154 C157 1.350 . S
C154 H159 0.930 . S
N155 Co150 2.057 . S
N155 C153 1.316 . S
N155 C154 1.375 . S
N156 C153 1.347 . S
N156 C157 1.373 . S
C157 C154 1.350 . S
C157 N156 1.373 . S
C157 H178 0.931 . S
H158 C153 0.931 . S
H159 C154 0.930 . S
C160 O167 1.259 . S
C160 O168 1.258 . S
N161 Co152 2.057 . S
N161 C162 1.316 . S
N161 C163 1.375 . S
C162 N161 1.316 . S
C162 N164 1.347 . S
C162 H173 0.931 . S
C163 N161 1.375 . S
C163 C165 1.350 . S
C163 H172 0.930 . S
N164 C162 1.347 . S
N164 C165 1.373 . S
C165 C163 1.350 . S
C165 N164 1.373 . S
C165 H179 0.931 . S
C166 O169 1.256 . S
C166 O170 1.255 . S
O167 Co150 2.021 . S
O167 C160 1.259 . S
O168 Co152 2.117 . S
O168 C160 1.258 . S
O169 Co152 2.020 . S
O169 C166 1.256 . S
O170 Co150 2.062 . S
O170 C166 1.255 . S
O171 C151 1.259 . S
O171 Co152 2.021 . S
H172 C163 0.930 . S
H173 C162 0.931 . S
O174 Co150 2.117 . S
O174 C151 1.258 . S
O175 Co150 2.020 . S
O175 C177 1.256 . S
O176 Co152 2.062 . S
O176 C177 1.255 . S
C177 O175 1.256 . S
C177 O176 1.255 . S
H178 C157 0.931 . S
H179 C165 0.931 . S
Co180 N185 2.057 . S
Co180 O197 2.021 . S
Co180 O200 2.062 . S
Co180 O204 2.117 . S
Co180 O205 2.020 . S
C181 O201 1.259 . S
C181 O204 1.258 . S
Co182 N191 2.057 . S
Co182 O198 2.117 . S
Co182 O199 2.020 . S
Co182 O201 2.021 . S
Co182 O206 2.062 . S
C183 N185 1.316 . S
C183 N186 1.347 . S
C183 H188 0.931 . S
C184 N185 1.375 . S
C184 C187 1.350 . S
C184 H189 0.930 . S
N185 Co180 2.057 . S
N185 C183 1.316 . S
N185 C184 1.375 . S
N186 C183 1.347 . S
N186 C187 1.373 . S
C187 C184 1.350 . S
C187 N186 1.373 . S
C187 H208 0.931 . S
H188 C183 0.931 . S
H189 C184 0.930 . S
C190 O197 1.259 . S
C190 O198 1.258 . S
N191 Co182 2.057 . S
N191 C192 1.316 . S
N191 C193 1.375 . S
C192 N191 1.316 . S
C192 N194 1.347 . S
C192 H203 0.931 . S
C193 N191 1.375 . S
C193 C195 1.350 . S
C193 H202 0.930 . S
N194 C192 1.347 . S
N194 C195 1.373 . S
C195 C193 1.350 . S
C195 N194 1.373 . S
C195 H209 0.931 . S
C196 O199 1.256 . S
C196 O200 1.255 . S
O197 Co180 2.021 . S
O197 C190 1.259 . S
O198 Co182 2.117 . S
O198 C190 1.258 . S
O199 Co182 2.020 . S
O199 C196 1.256 . S
O200 Co180 2.062 . S
O200 C196 1.255 . S
O201 C181 1.259 . S
O201 Co182 2.021 . S
H202 C193 0.930 . S
H203 C192 0.931 . S
O204 Co180 2.117 . S
O204 C181 1.258 . S
O205 Co180 2.020 . S
O205 C207 1.256 . S
O206 Co182 2.062 . S
O206 C207 1.255 . S
C207 O205 1.256 . S
C207 O206 1.255 . S
H208 C187 0.931 . S
H209 C195 0.931 . S
Co210 N215 2.057 . S
Co210 O227 2.021 . S
Co210 O230 2.062 . S
Co210 O234 2.117 . S
Co210 O235 2.020 . S
C211 O231 1.259 . S
C211 O234 1.258 . S
Co212 N221 2.057 . S
Co212 O228 2.117 . S
Co212 O229 2.020 . S
Co212 O231 2.021 . S
Co212 O236 2.062 . S
C213 N215 1.316 . S
C213 N216 1.347 . S
C213 H218 0.931 . S
C214 N215 1.375 . S
C214 C217 1.350 . S
C214 H219 0.930 . S
N215 Co210 2.057 . S
N215 C213 1.316 . S
N215 C214 1.375 . S
N216 C213 1.347 . S
N216 C217 1.373 . S
C217 C214 1.350 . S
C217 N216 1.373 . S
C217 H238 0.931 . S
H218 C213 0.931 . S
H219 C214 0.930 . S
C220 O227 1.259 . S
C220 O228 1.258 . S
N221 Co212 2.057 . S
N221 C222 1.316 . S
N221 C223 1.375 . S
C222 N221 1.316 . S
C222 N224 1.347 . S
C222 H233 0.931 . S
C223 N221 1.375 . S
C223 C225 1.350 . S
C223 H232 0.930 . S
N224 C222 1.347 . S
N224 C225 1.373 . S
C225 C223 1.350 . S
C225 N224 1.373 . S
C225 H239 0.931 . S
C226 O229 1.256 . S
C226 O230 1.255 . S
O227 Co210 2.021 . S
O227 C220 1.259 . S
O228 Co212 2.117 . S
O228 C220 1.258 . S
O229 Co212 2.020 . S
O229 C226 1.256 . S
O230 Co210 2.062 . S
O230 C226 1.255 . S
O231 C211 1.259 . S
O231 Co212 2.021 . S
H232 C223 0.930 . S
H233 C222 0.931 . S
O234 Co210 2.117 . S
O234 C211 1.258 . S
O235 Co210 2.020 . S
O235 C237 1.256 . S
O236 Co212 2.062 . S
O236 C237 1.255 . S
C237 O235 1.256 . S
C237 O236 1.255 . S
H238 C217 0.931 . S
H239 C225 0.931 . S
Fe240 O241 1.889 . S
Fe240 O244 1.712 1_655 S
Fe240 O249 2.080 . S
Fe240 O254 1.932 1_655 S
Fe240 O260 2.080 . S
Fe240 O269 1.933 1_655 S
O241 Fe240 1.889 . S
O241 Fe243 1.715 1_545 S
Fe242 O244 1.886 . S
Fe242 O245 1.715 1_545 S
Fe242 O252 1.935 1_545 S
Fe242 O253 2.077 . S
Fe242 O259 1.935 1_545 S
Fe242 O268 2.077 . S
Fe243 O241 1.715 1_565 S
Fe243 O246 1.886 . S
Fe243 O250 1.935 1_565 S
Fe243 O255 2.077 . S
Fe243 O261 1.935 1_565 S
Fe243 O265 2.077 . S
O244 Fe240 1.712 1_455 S
O244 Fe242 1.886 . S
O245 Fe242 1.715 1_565 S
O245 Fe247 1.895 . S
O246 Fe243 1.886 . S
O246 Fe247 1.706 1_655 S
Fe247 O245 1.895 . S
Fe247 O246 1.706 1_455 S
Fe247 O251 2.086 . S
Fe247 O256 1.929 1_455 S
Fe247 O258 2.085 . S
Fe247 O266 1.928 1_455 S
C248 O260 1.381 . S
C248 O261 1.421 . S
O249 Fe240 2.080 . S
O249 C262 1.381 . S
O250 Fe243 1.935 1_545 S
O250 C262 1.421 . S
O251 Fe247 2.086 . S
O251 C267 1.381 . S
O252 Fe242 1.935 1_565 S
O252 C267 1.421 . S
O253 Fe242 2.077 . S
O253 C257 1.381 . S
O254 Fe240 1.932 1_455 S
O254 C257 1.421 . S
O255 Fe243 2.077 . S
O255 C263 1.381 . S
O256 Fe247 1.929 1_655 S
O256 C263 1.421 . S
C257 O253 1.381 . S
C257 O254 1.421 . S
O258 Fe247 2.085 . S
O258 C270 1.381 . S
O259 Fe242 1.935 1_565 S
O259 C270 1.421 . S
O260 Fe240 2.080 . S
O260 C248 1.381 . S
O261 Fe243 1.935 1_545 S
O261 C248 1.421 . S
C262 O249 1.381 . S
C262 O250 1.421 . S
C263 O255 1.381 . S
C263 O256 1.421 . S
C264 O265 1.381 . S
C264 O266 1.421 . S
O265 Fe243 2.077 . S
O265 C264 1.381 . S
O266 Fe247 1.928 1_655 S
O266 C264 1.421 . S
C267 O251 1.381 . S
C267 O252 1.421 . S
O268 Fe242 2.077 . S
O268 C271 1.381 . S
O269 Fe240 1.933 1_455 S
O269 C271 1.421 . S
C270 O258 1.381 . S
C270 O259 1.421 . S
C271 O268 1.381 . S
C271 O269 1.421 . S
Fe272 O273 1.886 1_556 S
Fe272 O276 1.715 . S
Fe272 O281 2.077 . S
Fe272 O286 1.935 . S
Fe272 O292 2.077 1_556 S
Fe272 O301 1.935 1_556 S
O273 Fe272 1.886 1_554 S
O273 Fe275 1.715 1_565 S
Fe274 O276 1.886 . S
Fe274 O277 1.715 1_566 S
Fe274 O284 1.935 1_565 S
Fe274 O285 2.077 . S
Fe274 O291 1.935 1_566 S
Fe274 O300 2.077 1_556 S
Fe275 O273 1.715 1_545 S
Fe275 O278 1.886 . S
Fe275 O282 1.935 1_544 S
Fe275 O287 2.077 1_554 S
Fe275 O293 1.935 1_545 S
Fe275 O297 2.077 . S
O276 Fe272 1.715 . S
O276 Fe274 1.886 . S
O277 Fe274 1.715 1_544 S
O277 Fe279 1.886 . S
O278 Fe275 1.886 . S
O278 Fe279 1.715 . S
Fe279 O277 1.886 . S
Fe279 O278 1.715 . S
Fe279 O283 2.077 1_554 S
Fe279 O288 1.935 1_554 S
Fe279 O290 2.077 . S
Fe279 O298 1.935 . S
C280 O292 1.381 . S
C280 O293 1.421 . S
O281 Fe272 2.077 . S
O281 C294 1.381 . S
O282 Fe275 1.935 1_566 S
O282 C294 1.421 . S
O283 Fe279 2.077 1_556 S
O283 C299 1.381 . S
O284 Fe274 1.935 1_545 S
O284 C299 1.421 . S
O285 Fe274 2.077 . S
O285 C289 1.381 . S
O286 Fe272 1.935 . S
O286 C289 1.421 . S
O287 Fe275 2.077 1_556 S
O287 C295 1.381 . S
O288 Fe279 1.935 1_556 S
O288 C295 1.421 . S
C289 O285 1.381 . S
C289 O286 1.421 . S
O290 Fe279 2.077 . S
O290 C302 1.381 . S
O291 Fe274 1.935 1_544 S
O291 C302 1.421 . S
O292 Fe272 2.077 1_554 S
O292 C280 1.381 . S
O293 Fe275 1.935 1_565 S
O293 C280 1.421 . S
C294 O281 1.381 . S
C294 O282 1.421 . S
C295 O287 1.381 . S
C295 O288 1.421 . S
C296 O297 1.381 . S
C296 O298 1.421 . S
O297 Fe275 2.077 . S
O297 C296 1.381 . S
O298 Fe279 1.935 . S
O298 C296 1.421 . S
C299 O283 1.381 . S
C299 O284 1.421 . S
O300 Fe274 2.077 1_554 S
O300 C303 1.381 . S
O301 Fe272 1.935 1_554 S
O301 C303 1.421 . S
C302 O290 1.381 . S
C302 O291 1.421 . S
C303 O300 1.381 . S
C303 O301 1.421 . S
Fe304 O305 1.889 . S
Fe304 O308 1.712 1_655 S
Fe304 O313 2.080 1_554 S
Fe304 O318 1.933 1_654 S
Fe304 O324 2.080 . S
Fe304 O333 1.933 1_655 S
O305 Fe304 1.889 . S
O305 Fe307 1.715 1_554 S
Fe306 O308 1.886 . S
Fe306 O309 1.715 . S
Fe306 O316 1.935 1_554 S
Fe306 O317 2.077 1_554 S
Fe306 O323 1.935 . S
Fe306 O332 2.077 . S
Fe307 O305 1.715 1_556 S
Fe307 O310 1.886 . S
Fe307 O314 1.935 . S
Fe307 O319 2.077 . S
Fe307 O325 1.935 1_556 S
Fe307 O329 2.077 1_556 S
O308 Fe304 1.712 1_455 S
O308 Fe306 1.886 . S
O309 Fe306 1.715 . S
O309 Fe311 1.894 1_554 S
O310 Fe307 1.886 . S
O310 Fe311 1.706 1_655 S
Fe311 O309 1.894 1_556 S
Fe311 O310 1.706 1_455 S
Fe311 O315 2.085 . S
Fe311 O320 1.929 1_455 S
Fe311 O322 2.085 1_556 S
Fe311 O330 1.928 1_456 S
C312 O324 1.381 . S
C312 O325 1.421 . S
O313 Fe304 2.080 1_556 S
O313 C326 1.381 . S
O314 Fe307 1.935 . S
O314 C326 1.421 . S
O315 Fe311 2.085 . S
O315 C331 1.381 . S
O316 Fe306 1.935 1_556 S
O316 C331 1.421 . S
O317 Fe306 2.077 1_556 S
O317 C321 1.381 . S
O318 Fe304 1.933 1_456 S
O318 C321 1.421 . S
O319 Fe307 2.077 . S
O319 C327 1.381 . S
O320 Fe311 1.929 1_655 S
O320 C327 1.421 . S
C321 O317 1.381 . S
C321 O318 1.421 . S
O322 Fe311 2.085 1_554 S
O322 C334 1.381 . S
O323 Fe306 1.935 . S
O323 C334 1.421 . S
O324 Fe304 2.080 . S
O324 C312 1.381 . S
O325 Fe307 1.935 1_554 S
O325 C312 1.421 . S
C326 O313 1.381 . S
C326 O314 1.421 . S
C327 O319 1.381 . S
C327 O320 1.421 . S
C328 O329 1.381 . S
C328 O330 1.421 . S
O329 Fe307 2.077 1_554 S
O329 C328 1.381 . S
O330 Fe311 1.928 1_654 S
O330 C328 1.421 . S
C331 O315 1.381 . S
C331 O316 1.421 . S
O332 Fe306 2.077 . S
O332 C335 1.381 . S
O333 Fe304 1.933 1_455 S
O333 C335 1.421 . S
C334 O322 1.381 . S
C334 O323 1.421 . S
C335 O332 1.381 . S
C335 O333 1.421 . S
Fe336 O337 1.886 . S
Fe336 O340 1.715 . S
Fe336 O345 2.077 . S
Fe336 O350 1.935 . S
Fe336 O356 2.077 . S
Fe336 O365 1.935 . S
O337 Fe336 1.886 . S
O337 Fe339 1.715 1_556 S
Fe338 O340 1.886 . S
Fe338 O341 1.715 1_556 S
Fe338 O348 1.935 1_556 S
Fe338 O349 2.077 . S
Fe338 O355 1.935 1_556 S
Fe338 O364 2.077 . S
Fe339 O337 1.715 1_554 S
Fe339 O342 1.886 . S
Fe339 O346 1.935 1_554 S
Fe339 O351 2.077 . S
Fe339 O357 1.935 1_554 S
Fe339 O361 2.077 . S
O340 Fe336 1.715 . S
O340 Fe338 1.886 . S
O341 Fe338 1.715 1_554 S
O341 Fe343 1.886 . S
O342 Fe339 1.886 . S
O342 Fe343 1.715 . S
Fe343 O341 1.886 . S
Fe343 O342 1.715 . S
Fe343 O347 2.077 . S
Fe343 O352 1.935 . S
Fe343 O354 2.077 . S
Fe343 O362 1.935 . S
C344 O356 1.381 . S
C344 O357 1.421 . S
O345 Fe336 2.077 . S
O345 C358 1.381 . S
O346 Fe339 1.935 1_556 S
O346 C358 1.421 . S
O347 Fe343 2.077 . S
O347 C363 1.381 . S
O348 Fe338 1.935 1_554 S
O348 C363 1.421 . S
O349 Fe338 2.077 . S
O349 C353 1.381 . S
O350 Fe336 1.935 . S
O350 C353 1.421 . S
O351 Fe339 2.077 . S
O351 C359 1.381 . S
O352 Fe343 1.935 . S
O352 C359 1.421 . S
C353 O349 1.381 . S
C353 O350 1.421 . S
O354 Fe343 2.077 . S
O354 C366 1.381 . S
O355 Fe338 1.935 1_554 S
O355 C366 1.421 . S
O356 Fe336 2.077 . S
O356 C344 1.381 . S
O357 Fe339 1.935 1_556 S
O357 C344 1.421 . S
C358 O345 1.381 . S
C358 O346 1.421 . S
C359 O351 1.381 . S
C359 O352 1.421 . S
C360 O361 1.381 . S
C360 O362 1.421 . S
O361 Fe339 2.077 . S
O361 C360 1.381 . S
O362 Fe343 1.935 . S
O362 C360 1.421 . S
C363 O347 1.381 . S
C363 O348 1.421 . S
O364 Fe338 2.077 . S
O364 C367 1.381 . S
O365 Fe336 1.935 . S
O365 C367 1.421 . S
C366 O354 1.381 . S
C366 O355 1.421 . S
C367 O364 1.381 . S
C367 O365 1.421 . S
Fe368 O369 1.886 1_655 S
Fe368 O372 1.715 . S
Fe368 O377 2.069 1_655 S
Fe368 O382 1.926 1_655 S
Fe368 O388 2.085 . S
Fe368 O397 1.944 . S
O369 Fe368 1.886 1_455 S
O369 Fe371 1.715 . S
Fe370 O372 1.886 . S
Fe370 O373 1.715 . S
Fe370 O380 1.935 1_655 S
Fe370 O381 2.077 1_655 S
Fe370 O387 1.935 . S
Fe370 O396 2.077 . S
Fe371 O369 1.715 . S
Fe371 O374 1.886 . S
Fe371 O378 1.935 . S
Fe371 O383 2.077 . S
Fe371 O389 1.935 1_455 S
Fe371 O393 2.077 1_455 S
O372 Fe368 1.715 . S
O372 Fe370 1.886 . S
O373 Fe370 1.715 . S
O373 Fe375 1.888 1_655 S
O374 Fe371 1.886 . S
O374 Fe375 1.715 . S
Fe375 O373 1.888 1_455 S
Fe375 O374 1.715 . S
Fe375 O379 2.091 . S
Fe375 O384 1.950 . S
Fe375 O386 2.064 1_455 S
Fe375 O394 1.919 1_455 S
C376 O388 1.381 . S
C376 O389 1.421 . S
O377 Fe368 2.069 1_455 S
O377 C390 1.381 . S
O378 Fe371 1.935 . S
O378 C390 1.421 . S
O379 Fe375 2.091 . S
O379 C395 1.381 . S
O380 Fe370 1.935 1_455 S
O380 C395 1.421 . S
O381 Fe370 2.077 1_455 S
O381 C385 1.381 . S
O382 Fe368 1.926 1_455 S
O382 C385 1.421 . S
O383 Fe371 2.077 . S
O383 C391 1.381 . S
O384 Fe375 1.950 . S
O384 C391 1.421 . S
C385 O381 1.381 . S
C385 O382 1.421 . S
O386 Fe375 2.064 1_655 S
O386 C398 1.381 . S
O387 Fe370 1.935 . S
O387 C398 1.421 . S
O388 Fe368 2.085 . S
O388 C376 1.381 . S
O389 Fe371 1.935 1_655 S
O389 C376 1.421 . S
C390 O377 1.381 . S
C390 O378 1.421 . S
C391 O383 1.381 . S
C391 O384 1.421 . S
C392 O393 1.381 . S
C392 O394 1.421 . S
O393 Fe371 2.077 1_655 S
O393 C392 1.381 . S
O394 Fe375 1.919 1_655 S
O394 C392 1.421 . S
C395 O379 1.381 . S
C395 O380 1.421 . S
O396 Fe370 2.077 . S
O396 C399 1.381 . S
O397 Fe368 1.944 . S
O397 C399 1.421 . S
C398 O386 1.381 . S
C398 O387 1.421 . S
C399 O396 1.381 . S
C399 O397 1.421 . S
Fe400 O401 1.886 . S
Fe400 O404 1.715 . S
Fe400 O409 2.077 . S
Fe400 O414 1.935 . S
Fe400 O420 2.077 . S
Fe400 O429 1.935 . S
O401 Fe400 1.886 . S
O401 Fe403 1.715 1_565 S
Fe402 O404 1.886 . S
Fe402 O405 1.715 1_565 S
Fe402 O412 1.935 1_565 S
Fe402 O413 2.077 . S
Fe402 O419 1.935 1_565 S
Fe402 O428 2.077 . S
Fe403 O401 1.715 1_545 S
Fe403 O406 1.886 . S
Fe403 O410 1.935 1_545 S
Fe403 O415 2.077 . S
Fe403 O421 1.935 1_545 S
Fe403 O425 2.077 . S
O404 Fe400 1.715 . S
O404 Fe402 1.886 . S
O405 Fe402 1.715 1_545 S
O405 Fe407 1.886 . S
O406 Fe403 1.886 . S
O406 Fe407 1.715 . S
Fe407 O405 1.886 . S
Fe407 O406 1.715 . S
Fe407 O411 2.077 . S
Fe407 O416 1.935 . S
Fe407 O418 2.077 . S
Fe407 O426 1.935 . S
C408 O420 1.381 . S
C408 O421 1.421 . S
O409 Fe400 2.077 . S
O409 C422 1.381 . S
O410 Fe403 1.935 1_565 S
O410 C422 1.421 . S
O411 Fe407 2.077 . S
O411 C427 1.381 . S
O412 Fe402 1.935 1_545 S
O412 C427 1.421 . S
O413 Fe402 2.077 . S
O413 C417 1.381 . S
O414 Fe400 1.935 . S
O414 C417 1.421 . S
O415 Fe403 2.077 . S
O415 C423 1.381 . S
O416 Fe407 1.935 . S
O416 C423 1.421 . S
C417 O413 1.381 . S
C417 O414 1.421 . S
O418 Fe407 2.077 . S
O418 C430 1.381 . S
O419 Fe402 1.935 1_545 S
O419 C430 1.421 . S
O420 Fe400 2.077 . S
O420 C408 1.381 . S
O421 Fe403 1.935 1_565 S
O421 C408 1.421 . S
C422 O409 1.381 . S
C422 O410 1.421 . S
C423 O415 1.381 . S
C423 O416 1.421 . S
C424 O425 1.381 . S
C424 O426 1.421 . S
O425 Fe403 2.077 . S
O425 C424 1.381 . S
O426 Fe407 1.935 . S
O426 C424 1.421 . S
C427 O411 1.381 . S
C427 O412 1.421 . S
O428 Fe402 2.077 . S
O428 C431 1.381 . S
O429 Fe400 1.935 . S
O429 C431 1.421 . S
C430 O418 1.381 . S
C430 O419 1.421 . S
C431 O428 1.381 . S
C431 O429 1.421 . S
H432 C444 0.930 . S
H433 C446 0.930 . S
H434 C447 0.930 . S
H435 C451 0.959 . S
H436 C451 0.959 . S
H437 C451 0.961 . S
H438 C452 0.960 . S
H439 C452 0.961 . S
H440 C452 0.959 . S
H441 C455 0.929 . S
H442 C456 0.931 . S
H443 C458 0.930 . S
C444 H432 0.930 . S
C444 C445 1.399 . S
C444 C449 1.399 . S
C445 C444 1.399 . S
C445 C446 1.376 . S
C446 H433 0.930 . S
C446 C445 1.376 . S
C446 C447 1.388 . S
C447 H434 0.930 . S
C447 C446 1.388 . S
C447 C448 1.390 . S
C448 C447 1.390 . S
C448 C449 1.394 . S
C448 C454 1.465 . S
C449 C444 1.399 . S
C449 C448 1.394 . S
C449 C450 1.516 . S
C450 C449 1.516 . S
C450 C451 1.502 . S
C450 C452 1.561 . S
C450 C453 1.526 . S
C451 H435 0.959 . S
C451 H436 0.959 . S
C451 H437 0.961 . S
C451 C450 1.502 . S
C452 H438 0.960 . S
C452 H439 0.961 . S
C452 H440 0.959 . S
C452 C450 1.561 . S
C453 C450 1.526 . S
C453 C454 1.396 . S
C453 C458 1.390 . S
C454 C448 1.465 . S
C454 C453 1.396 . S
C454 C455 1.399 . S
C455 H441 0.929 . S
C455 C454 1.399 . S
C455 C456 1.385 . S
C456 H442 0.931 . S
C456 C455 1.385 . S
C456 C457 1.389 . S
C457 C456 1.389 . S
C457 C458 1.387 . S
C458 H443 0.930 . S
C458 C453 1.390 . S
C458 C457 1.387 . S
H459 C471 0.930 . S
H460 C473 0.930 . S
H461 C474 0.930 . S
H462 C478 0.959 . S
H463 C478 0.959 . S
H464 C478 0.961 . S
H465 C479 0.960 . S
H466 C479 0.961 . S
H467 C479 0.959 . S
H468 C482 0.929 . S
H469 C483 0.931 . S
H470 C485 0.930 . S
C471 H459 0.930 . S
C471 C472 1.399 . S
C471 C476 1.399 . S
C472 C471 1.399 . S
C472 C473 1.376 . S
C473 H460 0.930 . S
C473 C472 1.376 . S
C473 C474 1.388 . S
C474 H461 0.930 . S
C474 C473 1.388 . S
C474 C475 1.390 . S
C475 C474 1.390 . S
C475 C476 1.394 . S
C475 C481 1.465 . S
C476 C471 1.399 . S
C476 C475 1.394 . S
C476 C477 1.516 . S
C477 C476 1.516 . S
C477 C478 1.502 . S
C477 C479 1.561 . S
C477 C480 1.526 . S
C478 H462 0.959 . S
C478 H463 0.959 . S
C478 H464 0.961 . S
C478 C477 1.502 . S
C479 H465 0.960 . S
C479 H466 0.961 . S
C479 H467 0.959 . S
C479 C477 1.561 . S
C480 C477 1.526 . S
C480 C481 1.396 . S
C480 C485 1.390 . S
C481 C475 1.465 . S
C481 C480 1.396 . S
C481 C482 1.399 . S
C482 H468 0.929 . S
C482 C481 1.399 . S
C482 C483 1.385 . S
C483 H469 0.931 . S
C483 C482 1.385 . S
C483 C484 1.389 . S
C484 C483 1.389 . S
C484 C485 1.387 . S
C485 H470 0.930 . S
C485 C480 1.390 . S
C485 C484 1.387 . S
H486 C498 0.930 . S
H487 C500 0.930 . S
H488 C501 0.930 . S
H489 C505 0.959 . S
H490 C505 0.959 . S
H491 C505 0.961 . S
H492 C506 0.960 . S
H493 C506 0.961 . S
H494 C506 0.959 . S
H495 C509 0.929 . S
H496 C510 0.931 . S
H497 C512 0.930 . S
C498 H486 0.930 . S
C498 C499 1.399 . S
C498 C503 1.399 . S
C499 C498 1.399 . S
C499 C500 1.376 . S
C500 H487 0.930 . S
C500 C499 1.376 . S
C500 C501 1.388 . S
C501 H488 0.930 . S
C501 C500 1.388 . S
C501 C502 1.390 . S
C502 C501 1.390 . S
C502 C503 1.394 . S
C502 C508 1.465 . S
C503 C498 1.399 . S
C503 C502 1.394 . S
C503 C504 1.516 . S
C504 C503 1.516 . S
C504 C505 1.502 . S
C504 C506 1.561 . S
C504 C507 1.526 . S
C505 H489 0.959 . S
C505 H490 0.959 . S
C505 H491 0.961 . S
C505 C504 1.502 . S
C506 H492 0.960 . S
C506 H493 0.961 . S
C506 H494 0.959 . S
C506 C504 1.561 . S
C507 C504 1.526 . S
C507 C508 1.396 . S
C507 C512 1.390 . S
C508 C502 1.465 . S
C508 C507 1.396 . S
C508 C509 1.399 . S
C509 H495 0.929 . S
C509 C508 1.399 . S
C509 C510 1.385 . S
C510 H496 0.931 . S
C510 C509 1.385 . S
C510 C511 1.389 . S
C511 C510 1.389 . S
C511 C512 1.387 . S
C512 H497 0.930 . S
C512 C507 1.390 . S
C512 C511 1.387 . S
H513 C525 0.930 . S
H514 C527 0.930 . S
H515 C528 0.930 . S
H516 C532 0.959 . S
H517 C532 0.959 . S
H518 C532 0.961 . S
H519 C533 0.960 . S
H520 C533 0.961 . S
H521 C533 0.959 . S
H522 C536 0.929 . S
H523 C537 0.931 . S
H524 C539 0.930 . S
C525 H513 0.930 . S
C525 C526 1.399 . S
C525 C530 1.399 . S
C526 C525 1.399 . S
C526 C527 1.376 . S
C527 H514 0.930 . S
C527 C526 1.376 . S
C527 C528 1.388 . S
C528 H515 0.930 . S
C528 C527 1.388 . S
C528 C529 1.390 . S
C529 C528 1.390 . S
C529 C530 1.394 . S
C529 C535 1.465 . S
C530 C525 1.399 . S
C530 C529 1.394 . S
C530 C531 1.516 . S
C531 C530 1.516 . S
C531 C532 1.502 . S
C531 C533 1.561 . S
C531 C534 1.526 . S
C532 H516 0.959 . S
C532 H517 0.959 . S
C532 H518 0.961 . S
C532 C531 1.502 . S
C533 H519 0.960 . S
C533 H520 0.961 . S
C533 H521 0.959 . S
C533 C531 1.561 . S
C534 C531 1.526 . S
C534 C535 1.396 . S
C534 C539 1.390 . S
C535 C529 1.465 . S
C535 C534 1.396 . S
C535 C536 1.399 . S
C536 H522 0.929 . S
C536 C535 1.399 . S
C536 C537 1.385 . S
C537 H523 0.931 . S
C537 C536 1.385 . S
C537 C538 1.389 . S
C538 C537 1.389 . S
C538 C539 1.387 . S
C539 H524 0.930 . S
C539 C534 1.390 . S
C539 C538 1.387 . S
H540 C552 0.930 . S
H541 C554 0.930 . S
H542 C555 0.930 . S
H543 C559 0.959 . S
H544 C559 0.959 . S
H545 C559 0.961 . S
H546 C560 0.960 . S
H547 C560 0.961 . S
H548 C560 0.959 . S
H549 C563 0.929 . S
H550 C564 0.931 . S
H551 C566 0.930 . S
C552 H540 0.930 . S
C552 C553 1.399 . S
C552 C557 1.399 . S
C553 C552 1.399 . S
C553 C554 1.376 . S
C554 H541 0.930 . S
C554 C553 1.376 . S
C554 C555 1.388 . S
C555 H542 0.930 . S
C555 C554 1.388 . S
C555 C556 1.390 . S
C556 C555 1.390 . S
C556 C557 1.394 . S
C556 C562 1.465 . S
C557 C552 1.399 . S
C557 C556 1.394 . S
C557 C558 1.516 . S
C558 C557 1.516 . S
C558 C559 1.502 . S
C558 C560 1.561 . S
C558 C561 1.526 . S
C559 H543 0.959 . S
C559 H544 0.959 . S
C559 H545 0.961 . S
C559 C558 1.502 . S
C560 H546 0.960 . S
C560 H547 0.961 . S
C560 H548 0.959 . S
C560 C558 1.561 . S
C561 C558 1.526 . S
C561 C562 1.396 . S
C561 C566 1.390 . S
C562 C556 1.465 . S
C562 C561 1.396 . S
C562 C563 1.399 . S
C563 H549 0.929 . S
C563 C562 1.399 . S
C563 C564 1.385 . S
C564 H550 0.931 . S
C564 C563 1.385 . S
C564 C565 1.389 . S
C565 C564 1.389 . S
C565 C566 1.387 . S
C566 H551 0.930 . S
C566 C561 1.390 . S
C566 C565 1.387 . S
H567 C579 0.930 . S
H568 C581 0.930 . S
H569 C582 0.930 . S
H570 C586 0.959 . S
H571 C586 0.959 . S
H572 C586 0.961 . S
H573 C587 0.960 . S
H574 C587 0.961 . S
H575 C587 0.959 . S
H576 C590 0.929 . S
H577 C591 0.931 . S
H578 C593 0.930 . S
C579 H567 0.930 . S
C579 C580 1.399 . S
C579 C584 1.399 . S
C580 C579 1.399 . S
C580 C581 1.376 . S
C581 H568 0.930 . S
C581 C580 1.376 . S
C581 C582 1.388 . S
C582 H569 0.930 . S
C582 C581 1.388 . S
C582 C583 1.390 . S
C583 C582 1.390 . S
C583 C584 1.394 . S
C583 C589 1.465 . S
C584 C579 1.399 . S
C584 C583 1.394 . S
C584 C585 1.516 . S
C585 C584 1.516 . S
C585 C586 1.502 . S
C585 C587 1.561 . S
C585 C588 1.526 . S
C586 H570 0.959 . S
C586 H571 0.959 . S
C586 H572 0.961 . S
C586 C585 1.502 . S
C587 H573 0.960 . S
C587 H574 0.961 . S
C587 H575 0.959 . S
C587 C585 1.561 . S
C588 C585 1.526 . S
C588 C589 1.396 . S
C588 C593 1.390 . S
C589 C583 1.465 . S
C589 C588 1.396 . S
C589 C590 1.399 . S
C590 H576 0.929 . S
C590 C589 1.399 . S
C590 C591 1.385 . S
C591 H577 0.931 . S
C591 C590 1.385 . S
C591 C592 1.389 . S
C592 C591 1.389 . S
C592 C593 1.387 . S
C593 H578 0.930 . S
C593 C588 1.390 . S
C593 C592 1.387 . S
H594 C606 0.930 . S
H595 C608 0.930 . S
H596 C609 0.930 . S
H597 C613 0.959 . S
H598 C613 0.959 . S
H599 C613 0.961 . S
H600 C614 0.960 . S
H601 C614 0.961 . S
H602 C614 0.959 . S
H603 C617 0.929 . S
H604 C618 0.931 . S
H605 C620 0.930 . S
C606 H594 0.930 . S
C606 C607 1.399 . S
C606 C611 1.399 . S
C607 C606 1.399 . S
C607 C608 1.376 . S
C608 H595 0.930 . S
C608 C607 1.376 . S
C608 C609 1.388 . S
C609 H596 0.930 . S
C609 C608 1.388 . S
C609 C610 1.390 . S
C610 C609 1.390 . S
C610 C611 1.394 . S
C610 C616 1.465 . S
C611 C606 1.399 . S
C611 C610 1.394 . S
C611 C612 1.516 . S
C612 C611 1.516 . S
C612 C613 1.502 . S
C612 C614 1.561 . S
C612 C615 1.526 . S
C613 H597 0.959 . S
C613 H598 0.959 . S
C613 H599 0.961 . S
C613 C612 1.502 . S
C614 H600 0.960 . S
C614 H601 0.961 . S
C614 H602 0.959 . S
C614 C612 1.561 . S
C615 C612 1.526 . S
C615 C616 1.396 . S
C615 C620 1.390 . S
C616 C610 1.465 . S
C616 C615 1.396 . S
C616 C617 1.399 . S
C617 H603 0.929 . S
C617 C616 1.399 . S
C617 C618 1.385 . S
C618 H604 0.931 . S
C618 C617 1.385 . S
C618 C619 1.389 . S
C619 C618 1.389 . S
C619 C620 1.387 . S
C620 H605 0.930 . S
C620 C615 1.390 . S
C620 C619 1.387 . S
H621 C633 0.930 . S
H622 C635 0.930 . S
H623 C636 0.930 . S
H624 C640 0.959 . S
H625 C640 0.959 . S
H626 C640 0.961 . S
H627 C641 0.960 . S
H628 C641 0.961 . S
H629 C641 0.959 . S
H630 C644 0.929 . S
H631 C645 0.931 . S
H632 C647 0.930 . S
C633 H621 0.930 . S
C633 C634 1.399 . S
C633 C638 1.399 . S
C634 C633 1.399 . S
C634 C635 1.376 . S
C635 H622 0.930 . S
C635 C634 1.376 . S
C635 C636 1.388 . S
C636 H623 0.930 . S
C636 C635 1.388 . S
C636 C637 1.390 . S
C637 C636 1.390 . S
C637 C638 1.394 . S
C637 C643 1.465 . S
C638 C633 1.399 . S
C638 C637 1.394 . S
C638 C639 1.516 . S
C639 C638 1.516 . S
C639 C640 1.502 . S
C639 C641 1.561 . S
C639 C642 1.526 . S
C640 H624 0.959 . S
C640 H625 0.959 . S
C640 H626 0.961 . S
C640 C639 1.502 . S
C641 H627 0.960 . S
C641 H628 0.961 . S
C641 H629 0.959 . S
C641 C639 1.561 . S
C642 C639 1.526 . S
C642 C643 1.396 . S
C642 C647 1.390 . S
C643 C637 1.465 . S
C643 C642 1.396 . S
C643 C644 1.399 . S
C644 H630 0.929 . S
C644 C643 1.399 . S
C644 C645 1.385 . S
C645 H631 0.931 . S
C645 C644 1.385 . S
C645 C646 1.389 . S
C646 C645 1.389 . S
C646 C647 1.387 . S
C647 H632 0.930 . S
C647 C642 1.390 . S
C647 C646 1.387 . S
H648 C660 0.930 . S
H649 C662 0.930 . S
H650 C663 0.930 . S
H651 C667 0.959 . S
H652 C667 0.959 . S
H653 C667 0.961 . S
H654 C668 0.960 . S
H655 C668 0.961 . S
H656 C668 0.959 . S
H657 C671 0.929 . S
H658 C672 0.931 . S
H659 C674 0.930 . S
C660 H648 0.930 . S
C660 C661 1.399 . S
C660 C665 1.399 . S
C661 C660 1.399 . S
C661 C662 1.376 . S
C662 H649 0.930 . S
C662 C661 1.376 . S
C662 C663 1.388 . S
C663 H650 0.930 . S
C663 C662 1.388 . S
C663 C664 1.390 . S
C664 C663 1.390 . S
C664 C665 1.394 . S
C664 C670 1.465 . S
C665 C660 1.399 . S
C665 C664 1.394 . S
C665 C666 1.516 . S
C666 C665 1.516 . S
C666 C667 1.502 . S
C666 C668 1.561 . S
C666 C669 1.526 . S
C667 H651 0.959 . S
C667 H652 0.959 . S
C667 H653 0.961 . S
C667 C666 1.502 . S
C668 H654 0.960 . S
C668 H655 0.961 . S
C668 H656 0.959 . S
C668 C666 1.561 . S
C669 C666 1.526 . S
C669 C670 1.396 . S
C669 C674 1.390 . S
C670 C664 1.465 . S
C670 C669 1.396 . S
C670 C671 1.399 . S
C671 H657 0.929 . S
C671 C670 1.399 . S
C671 C672 1.385 . S
C672 H658 0.931 . S
C672 C671 1.385 . S
C672 C673 1.389 . S
C673 C672 1.389 . S
C673 C674 1.387 . S
C674 H659 0.930 . S
C674 C669 1.390 . S
C674 C673 1.387 . S
H675 C687 0.930 . S
H676 C689 0.930 . S
H677 C690 0.930 . S
H678 C694 0.959 . S
H679 C694 0.959 . S
H680 C694 0.961 . S
H681 C695 0.960 . S
H682 C695 0.961 . S
H683 C695 0.959 . S
H684 C698 0.929 . S
H685 C699 0.931 . S
H686 C701 0.930 . S
C687 H675 0.930 . S
C687 C688 1.399 . S
C687 C692 1.399 . S
C688 C687 1.399 . S
C688 C689 1.376 . S
C689 H676 0.930 . S
C689 C688 1.376 . S
C689 C690 1.388 . S
C690 H677 0.930 . S
C690 C689 1.388 . S
C690 C691 1.390 . S
C691 C690 1.390 . S
C691 C692 1.394 . S
C691 C697 1.465 . S
C692 C687 1.399 . S
C692 C691 1.394 . S
C692 C693 1.516 . S
C693 C692 1.516 . S
C693 C694 1.502 . S
C693 C695 1.561 . S
C693 C696 1.526 . S
C694 H678 0.959 . S
C694 H679 0.959 . S
C694 H680 0.961 . S
C694 C693 1.502 . S
C695 H681 0.960 . S
C695 H682 0.961 . S
C695 H683 0.959 . S
C695 C693 1.561 . S
C696 C693 1.526 . S
C696 C697 1.396 . S
C696 C701 1.390 . S
C697 C691 1.465 . S
C697 C696 1.396 . S
C697 C698 1.399 . S
C698 H684 0.929 . S
C698 C697 1.399 . S
C698 C699 1.385 . S
C699 H685 0.931 . S
C699 C698 1.385 . S
C699 C700 1.389 . S
C700 C699 1.389 . S
C700 C701 1.387 . S
C701 H686 0.930 . S
C701 C696 1.390 . S
C701 C700 1.387 . S
H702 C714 0.930 . S
H703 C716 0.930 . S
H704 C717 0.930 . S
H705 C721 0.959 . S
H706 C721 0.959 . S
H707 C721 0.961 . S
H708 C722 0.960 . S
H709 C722 0.961 . S
H710 C722 0.959 . S
H711 C725 0.929 . S
H712 C726 0.931 . S
H713 C728 0.930 . S
C714 H702 0.930 . S
C714 C715 1.399 . S
C714 C719 1.399 . S
C715 C714 1.399 . S
C715 C716 1.376 . S
C716 H703 0.930 . S
C716 C715 1.376 . S
C716 C717 1.388 . S
C717 H704 0.930 . S
C717 C716 1.388 . S
C717 C718 1.390 . S
C718 C717 1.390 . S
C718 C719 1.394 . S
C718 C724 1.465 . S
C719 C714 1.399 . S
C719 C718 1.394 . S
C719 C720 1.516 . S
C720 C719 1.516 . S
C720 C721 1.502 . S
C720 C722 1.561 . S
C720 C723 1.526 . S
C721 H705 0.959 . S
C721 H706 0.959 . S
C721 H707 0.961 . S
C721 C720 1.502 . S
C722 H708 0.960 . S
C722 H709 0.961 . S
C722 H710 0.959 . S
C722 C720 1.561 . S
C723 C720 1.526 . S
C723 C724 1.396 . S
C723 C728 1.390 . S
C724 C718 1.465 . S
C724 C723 1.396 . S
C724 C725 1.399 . S
C725 H711 0.929 . S
C725 C724 1.399 . S
C725 C726 1.385 . S
C726 H712 0.931 . S
C726 C725 1.385 . S
C726 C727 1.389 . S
C727 C726 1.389 . S
C727 C728 1.387 . S
C728 H713 0.930 . S
C728 C723 1.390 . S
C728 C727 1.387 . S
H729 C741 0.930 . S
H730 C743 0.930 . S
H731 C744 0.930 . S
H732 C748 0.959 . S
H733 C748 0.959 . S
H734 C748 0.961 . S
H735 C749 0.960 . S
H736 C749 0.961 . S
H737 C749 0.959 . S
H738 C752 0.929 . S
H739 C753 0.931 . S
H740 C755 0.930 . S
C741 H729 0.930 . S
C741 C742 1.399 . S
C741 C746 1.399 . S
C742 C741 1.399 . S
C742 C743 1.376 . S
C743 H730 0.930 . S
C743 C742 1.376 . S
C743 C744 1.388 . S
C744 H731 0.930 . S
C744 C743 1.388 . S
C744 C745 1.390 . S
C745 C744 1.390 . S
C745 C746 1.394 . S
C745 C751 1.465 . S
C746 C741 1.399 . S
C746 C745 1.394 . S
C746 C747 1.516 . S
C747 C746 1.516 . S
C747 C748 1.502 . S
C747 C749 1.561 . S
C747 C750 1.526 . S
C748 H732 0.959 . S
C748 H733 0.959 . S
C748 H734 0.961 . S
C748 C747 1.502 . S
C749 H735 0.960 . S
C749 H736 0.961 . S
C749 H737 0.959 . S
C749 C747 1.561 . S
C750 C747 1.526 . S
C750 C751 1.396 . S
C750 C755 1.390 . S
C751 C745 1.465 . S
C751 C750 1.396 . S
C751 C752 1.399 . S
C752 H738 0.929 . S
C752 C751 1.399 . S
C752 C753 1.385 . S
C753 H739 0.931 . S
C753 C752 1.385 . S
C753 C754 1.389 . S
C754 C753 1.389 . S
C754 C755 1.387 . S
C755 H740 0.930 . S
C755 C750 1.390 . S
C755 C754 1.387 . S
H756 C768 0.930 . S
H757 C770 0.930 . S
H758 C771 0.930 . S
H759 C775 0.959 . S
H760 C775 0.959 . S
H761 C775 0.961 . S
H762 C776 0.960 . S
H763 C776 0.961 . S
H764 C776 0.959 . S
H765 C779 0.929 . S
H766 C780 0.931 . S
H767 C782 0.930 . S
C768 H756 0.930 . S
C768 C769 1.399 . S
C768 C773 1.399 . S
C769 C768 1.399 . S
C769 C770 1.376 . S
C770 H757 0.930 . S
C770 C769 1.376 . S
C770 C771 1.388 . S
C771 H758 0.930 . S
C771 C770 1.388 . S
C771 C772 1.390 . S
C772 C771 1.390 . S
C772 C773 1.394 . S
C772 C778 1.465 . S
C773 C768 1.399 . S
C773 C772 1.394 . S
C773 C774 1.516 . S
C774 C773 1.516 . S
C774 C775 1.502 . S
C774 C776 1.561 . S
C774 C777 1.526 . S
C775 H759 0.959 . S
C775 H760 0.959 . S
C775 H761 0.961 . S
C775 C774 1.502 . S
C776 H762 0.960 . S
C776 H763 0.961 . S
C776 H764 0.959 . S
C776 C774 1.561 . S
C777 C774 1.526 . S
C777 C778 1.396 . S
C777 C782 1.390 . S
C778 C772 1.465 . S
C778 C777 1.396 . S
C778 C779 1.399 . S
C779 H765 0.929 . S
C779 C778 1.399 . S
C779 C780 1.385 . S
C780 H766 0.931 . S
C780 C779 1.385 . S
C780 C781 1.389 . S
C781 C780 1.389 . S
C781 C782 1.387 . S
C782 H767 0.930 . S
C782 C777 1.390 . S
C782 C781 1.387 . S
H783 C795 0.930 . S
H784 C797 0.930 . S
H785 C798 0.930 . S
H786 C802 0.959 . S
H787 C802 0.959 . S
H788 C802 0.961 . S
H789 C803 0.960 . S
H790 C803 0.961 . S
H791 C803 0.959 . S
H792 C806 0.929 . S
H793 C807 0.931 . S
H794 C809 0.930 . S
C795 H783 0.930 . S
C795 C796 1.399 . S
C795 C800 1.399 . S
C796 C795 1.399 . S
C796 C797 1.376 . S
C797 H784 0.930 . S
C797 C796 1.376 . S
C797 C798 1.388 . S
C798 H785 0.930 . S
C798 C797 1.388 . S
C798 C799 1.390 . S
C799 C798 1.390 . S
C799 C800 1.394 . S
C799 C805 1.465 . S
C800 C795 1.399 . S
C800 C799 1.394 . S
C800 C801 1.516 . S
C801 C800 1.516 . S
C801 C802 1.502 . S
C801 C803 1.561 . S
C801 C804 1.526 . S
C802 H786 0.959 . S
C802 H787 0.959 . S
C802 H788 0.961 . S
C802 C801 1.502 . S
C803 H789 0.960 . S
C803 H790 0.961 . S
C803 H791 0.959 . S
C803 C801 1.561 . S
C804 C801 1.526 . S
C804 C805 1.396 . S
C804 C809 1.390 . S
C805 C799 1.465 . S
C805 C804 1.396 . S
C805 C806 1.399 . S
C806 H792 0.929 . S
C806 C805 1.399 . S
C806 C807 1.385 . S
C807 H793 0.931 . S
C807 C806 1.385 . S
C807 C808 1.389 . S
C808 C807 1.389 . S
C808 C809 1.387 . S
C809 H794 0.930 . S
C809 C804 1.390 . S
C809 C808 1.387 . S
H810 C822 0.930 . S
H811 C824 0.930 . S
H812 C825 0.930 . S
H813 C829 0.959 . S
H814 C829 0.959 . S
H815 C829 0.961 . S
H816 C830 0.960 . S
H817 C830 0.961 . S
H818 C830 0.959 . S
H819 C833 0.929 . S
H820 C834 0.931 . S
H821 C836 0.930 . S
C822 H810 0.930 . S
C822 C823 1.399 . S
C822 C827 1.399 . S
C823 C822 1.399 . S
C823 C824 1.376 . S
C824 H811 0.930 . S
C824 C823 1.376 . S
C824 C825 1.388 . S
C825 H812 0.930 . S
C825 C824 1.388 . S
C825 C826 1.390 . S
C826 C825 1.390 . S
C826 C827 1.394 . S
C826 C832 1.465 . S
C827 C822 1.399 . S
C827 C826 1.394 . S
C827 C828 1.516 . S
C828 C827 1.516 . S
C828 C829 1.502 . S
C828 C830 1.561 . S
C828 C831 1.526 . S
C829 H813 0.959 . S
C829 H814 0.959 . S
C829 H815 0.961 . S
C829 C828 1.502 . S
C830 H816 0.960 . S
C830 H817 0.961 . S
C830 H818 0.959 . S
C830 C828 1.561 . S
C831 C828 1.526 . S
C831 C832 1.396 . S
C831 C836 1.390 . S
C832 C826 1.465 . S
C832 C831 1.396 . S
C832 C833 1.399 . S
C833 H819 0.929 . S
C833 C832 1.399 . S
C833 C834 1.385 . S
C834 H820 0.931 . S
C834 C833 1.385 . S
C834 C835 1.389 . S
C835 C834 1.389 . S
C835 C836 1.387 . S
C836 H821 0.930 . S
C836 C831 1.390 . S
C836 C835 1.387 . S
H837 C849 0.930 . S
H838 C851 0.930 . S
H839 C852 0.930 . S
H840 C856 0.959 . S
H841 C856 0.959 . S
H842 C856 0.961 . S
H843 C857 0.960 . S
H844 C857 0.961 . S
H845 C857 0.959 . S
H846 C860 0.929 . S
H847 C861 0.931 . S
H848 C863 0.930 . S
C849 H837 0.930 . S
C849 C850 1.399 . S
C849 C854 1.399 . S
C850 C849 1.399 . S
C850 C851 1.376 . S
C851 H838 0.930 . S
C851 C850 1.376 . S
C851 C852 1.388 . S
C852 H839 0.930 . S
C852 C851 1.388 . S
C852 C853 1.390 . S
C853 C852 1.390 . S
C853 C854 1.394 . S
C853 C859 1.465 . S
C854 C849 1.399 . S
C854 C853 1.394 . S
C854 C855 1.516 . S
C855 C854 1.516 . S
C855 C856 1.502 . S
C855 C857 1.561 . S
C855 C858 1.526 . S
C856 H840 0.959 . S
C856 H841 0.959 . S
C856 H842 0.961 . S
C856 C855 1.502 . S
C857 H843 0.960 . S
C857 H844 0.961 . S
C857 H845 0.959 . S
C857 C855 1.561 . S
C858 C855 1.526 . S
C858 C859 1.396 . S
C858 C863 1.390 . S
C859 C853 1.465 . S
C859 C858 1.396 . S
C859 C860 1.399 . S
C860 H846 0.929 . S
C860 C859 1.399 . S
C860 C861 1.385 . S
C861 H847 0.931 . S
C861 C860 1.385 . S
C861 C862 1.389 . S
C862 C861 1.389 . S
C862 C863 1.387 . S
C863 H848 0.930 . S
C863 C858 1.390 . S
C863 C862 1.387 . S
H864 C876 0.930 . S
H865 C878 0.930 . S
H866 C879 0.930 . S
H867 C883 0.959 . S
H868 C883 0.959 . S
H869 C883 0.961 . S
H870 C884 0.960 . S
H871 C884 0.961 . S
H872 C884 0.959 . S
H873 C887 0.929 . S
H874 C888 0.931 . S
H875 C890 0.930 . S
C876 H864 0.930 . S
C876 C877 1.399 . S
C876 C881 1.399 . S
C877 C876 1.399 . S
C877 C878 1.376 . S
C878 H865 0.930 . S
C878 C877 1.376 . S
C878 C879 1.388 . S
C879 H866 0.930 . S
C879 C878 1.388 . S
C879 C880 1.390 . S
C880 C879 1.390 . S
C880 C881 1.394 . S
C880 C886 1.465 . S
C881 C876 1.399 . S
C881 C880 1.394 . S
C881 C882 1.516 . S
C882 C881 1.516 . S
C882 C883 1.502 . S
C882 C884 1.561 . S
C882 C885 1.526 . S
C883 H867 0.959 . S
C883 H868 0.959 . S
C883 H869 0.961 . S
C883 C882 1.502 . S
C884 H870 0.960 . S
C884 H871 0.961 . S
C884 H872 0.959 . S
C884 C882 1.561 . S
C885 C882 1.526 . S
C885 C886 1.396 . S
C885 C890 1.390 . S
C886 C880 1.465 . S
C886 C885 1.396 . S
C886 C887 1.399 . S
C887 H873 0.929 . S
C887 C886 1.399 . S
C887 C888 1.385 . S
C888 H874 0.931 . S
C888 C887 1.385 . S
C888 C889 1.389 . S
C889 C888 1.389 . S
C889 C890 1.387 . S
C890 H875 0.930 . S
C890 C885 1.390 . S
C890 C889 1.387 . S
H891 C903 0.930 . S
H892 C905 0.930 . S
H893 C906 0.930 . S
H894 C910 0.959 . S
H895 C910 0.959 . S
H896 C910 0.961 . S
H897 C911 0.960 . S
H898 C911 0.961 . S
H899 C911 0.959 . S
H900 C914 0.929 . S
H901 C915 0.931 . S
H902 C917 0.930 . S
C903 H891 0.930 . S
C903 C904 1.399 . S
C903 C908 1.399 . S
C904 C903 1.399 . S
C904 C905 1.376 . S
C905 H892 0.930 . S
C905 C904 1.376 . S
C905 C906 1.388 . S
C906 H893 0.930 . S
C906 C905 1.388 . S
C906 C907 1.390 . S
C907 C906 1.390 . S
C907 C908 1.394 . S
C907 C913 1.465 . S
C908 C903 1.399 . S
C908 C907 1.394 . S
C908 C909 1.516 . S
C909 C908 1.516 . S
C909 C910 1.502 . S
C909 C911 1.561 . S
C909 C912 1.526 . S
C910 H894 0.959 . S
C910 H895 0.959 . S
C910 H896 0.961 . S
C910 C909 1.502 . S
C911 H897 0.960 . S
C911 H898 0.961 . S
C911 H899 0.959 . S
C911 C909 1.561 . S
C912 C909 1.526 . S
C912 C913 1.396 . S
C912 C917 1.390 . S
C913 C907 1.465 . S
C913 C912 1.396 . S
C913 C914 1.399 . S
C914 H900 0.929 . S
C914 C913 1.399 . S
C914 C915 1.385 . S
C915 H901 0.931 . S
C915 C914 1.385 . S
C915 C916 1.389 . S
C916 C915 1.389 . S
C916 C917 1.387 . S
C917 H902 0.930 . S
C917 C912 1.390 . S
C917 C916 1.387 . S
H918 C930 0.930 . S
H919 C932 0.930 . S
H920 C933 0.930 . S
H921 C937 0.959 . S
H922 C937 0.959 . S
H923 C937 0.961 . S
H924 C938 0.960 . S
H925 C938 0.961 . S
H926 C938 0.959 . S
H927 C941 0.929 . S
H928 C942 0.931 . S
H929 C944 0.930 . S
C930 H918 0.930 . S
C930 C931 1.399 . S
C930 C935 1.399 . S
C931 C930 1.399 . S
C931 C932 1.376 . S
C932 H919 0.930 . S
C932 C931 1.376 . S
C932 C933 1.388 . S
C933 H920 0.930 . S
C933 C932 1.388 . S
C933 C934 1.390 . S
C934 C933 1.390 . S
C934 C935 1.394 . S
C934 C940 1.465 . S
C935 C930 1.399 . S
C935 C934 1.394 . S
C935 C936 1.516 . S
C936 C935 1.516 . S
C936 C937 1.502 . S
C936 C938 1.561 . S
C936 C939 1.526 . S
C937 H921 0.959 . S
C937 H922 0.959 . S
C937 H923 0.961 . S
C937 C936 1.502 . S
C938 H924 0.960 . S
C938 H925 0.961 . S
C938 H926 0.959 . S
C938 C936 1.561 . S
C939 C936 1.526 . S
C939 C940 1.396 . S
C939 C944 1.390 . S
C940 C934 1.465 . S
C940 C939 1.396 . S
C940 C941 1.399 . S
C941 H927 0.929 . S
C941 C940 1.399 . S
C941 C942 1.385 . S
C942 H928 0.931 . S
C942 C941 1.385 . S
C942 C943 1.389 . S
C943 C942 1.389 . S
C943 C944 1.387 . S
C944 H929 0.930 . S
C944 C939 1.390 . S
C944 C943 1.387 . S
H945 C957 0.930 . S
H946 C959 0.930 . S
H947 C960 0.930 . S
H948 C964 0.959 . S
H949 C964 0.959 . S
H950 C964 0.961 . S
H951 C965 0.960 . S
H952 C965 0.961 . S
H953 C965 0.959 . S
H954 C968 0.929 . S
H955 C969 0.931 . S
H956 C971 0.930 . S
C957 H945 0.930 . S
C957 C958 1.399 . S
C957 C962 1.399 . S
C958 C957 1.399 . S
C958 C959 1.376 . S
C959 H946 0.930 . S
C959 C958 1.376 . S
C959 C960 1.388 . S
C960 H947 0.930 . S
C960 C959 1.388 . S
C960 C961 1.390 . S
C961 C960 1.390 . S
C961 C962 1.394 . S
C961 C967 1.465 . S
C962 C957 1.399 . S
C962 C961 1.394 . S
C962 C963 1.516 . S
C963 C962 1.516 . S
C963 C964 1.502 . S
C963 C965 1.561 . S
C963 C966 1.526 . S
C964 H948 0.959 . S
C964 H949 0.959 . S
C964 H950 0.961 . S
C964 C963 1.502 . S
C965 H951 0.960 . S
C965 H952 0.961 . S
C965 H953 0.959 . S
C965 C963 1.561 . S
C966 C963 1.526 . S
C966 C967 1.396 . S
C966 C971 1.390 . S
C967 C961 1.465 . S
C967 C966 1.396 . S
C967 C968 1.399 . S
C968 H954 0.929 . S
C968 C967 1.399 . S
C968 C969 1.385 . S
C969 H955 0.931 . S
C969 C968 1.385 . S
C969 C970 1.389 . S
C970 C969 1.389 . S
C970 C971 1.387 . S
C971 H956 0.930 . S
C971 C966 1.390 . S
C971 C970 1.387 . S
H972 C984 0.930 . S
H973 C986 0.930 . S
H974 C987 0.930 . S
H975 C991 0.959 . S
H976 C991 0.959 . S
H977 C991 0.961 . S
H978 C992 0.960 . S
H979 C992 0.961 . S
H980 C992 0.959 . S
H981 C995 0.929 . S
H982 C996 0.931 . S
H983 C998 0.930 . S
C984 H972 0.930 . S
C984 C985 1.399 . S
C984 C989 1.399 . S
C985 C984 1.399 . S
C985 C986 1.376 . S
C986 H973 0.930 . S
C986 C985 1.376 . S
C986 C987 1.388 . S
C987 H974 0.930 . S
C987 C986 1.388 . S
C987 C988 1.390 . S
C988 C987 1.390 . S
C988 C989 1.394 . S
C988 C994 1.465 . S
C989 C984 1.399 . S
C989 C988 1.394 . S
C989 C990 1.516 . S
C990 C989 1.516 . S
C990 C991 1.502 . S
C990 C992 1.561 . S
C990 C993 1.526 . S
C991 H975 0.959 . S
C991 H976 0.959 . S
C991 H977 0.961 . S
C991 C990 1.502 . S
C992 H978 0.960 . S
C992 H979 0.961 . S
C992 H980 0.959 . S
C992 C990 1.561 . S
C993 C990 1.526 . S
C993 C994 1.396 . S
C993 C998 1.390 . S
C994 C988 1.465 . S
C994 C993 1.396 . S
C994 C995 1.399 . S
C995 H981 0.929 . S
C995 C994 1.399 . S
C995 C996 1.385 . S
C996 H982 0.931 . S
C996 C995 1.385 . S
C996 C997 1.389 . S
C997 C996 1.389 . S
C997 C998 1.387 . S
C998 H983 0.930 . S
C998 C993 1.390 . S
C998 C997 1.387 . S
H999 C1011 0.930 . S
H1000 C1013 0.930 . S
H1001 C1014 0.930 . S
H1002 C1018 0.959 . S
H1003 C1018 0.959 . S
H1004 C1018 0.961 . S
H1005 C1019 0.960 . S
H1006 C1019 0.961 . S
H1007 C1019 0.959 . S
H1008 C1022 0.929 . S
H1009 C1023 0.931 . S
H1010 C1025 0.930 . S
C1011 H999 0.930 . S
C1011 C1012 1.399 . S
C1011 C1016 1.399 . S
C1012 C1011 1.399 . S
C1012 C1013 1.376 . S
C1013 H1000 0.930 . S
C1013 C1012 1.376 . S
C1013 C1014 1.388 . S
C1014 H1001 0.930 . S
C1014 C1013 1.388 . S
C1014 C1015 1.390 . S
C1015 C1014 1.390 . S
C1015 C1016 1.394 . S
C1015 C1021 1.465 . S
C1016 C1011 1.399 . S
C1016 C1015 1.394 . S
C1016 C1017 1.516 . S
C1017 C1016 1.516 . S
C1017 C1018 1.502 . S
C1017 C1019 1.561 . S
C1017 C1020 1.526 . S
C1018 H1002 0.959 . S
C1018 H1003 0.959 . S
C1018 H1004 0.961 . S
C1018 C1017 1.502 . S
C1019 H1005 0.960 . S
C1019 H1006 0.961 . S
C1019 H1007 0.959 . S
C1019 C1017 1.561 . S
C1020 C1017 1.526 . S
C1020 C1021 1.396 . S
C1020 C1025 1.390 . S
C1021 C1015 1.465 . S
C1021 C1020 1.396 . S
C1021 C1022 1.399 . S
C1022 H1008 0.929 . S
C1022 C1021 1.399 . S
C1022 C1023 1.385 . S
C1023 H1009 0.931 . S
C1023 C1022 1.385 . S
C1023 C1024 1.389 . S
C1024 C1023 1.389 . S
C1024 C1025 1.387 . S
C1025 H1010 0.930 . S
C1025 C1020 1.390 . S
C1025 C1024 1.387 . S
H1026 C1038 0.930 . S
H1027 C1040 0.930 . S
H1028 C1041 0.930 . S
H1029 C1045 0.959 . S
H1030 C1045 0.959 . S
H1031 C1045 0.961 . S
H1032 C1046 0.960 . S
H1033 C1046 0.961 . S
H1034 C1046 0.959 . S
H1035 C1049 0.929 . S
H1036 C1050 0.931 . S
H1037 C1052 0.930 . S
C1038 H1026 0.930 . S
C1038 C1039 1.399 . S
C1038 C1043 1.399 . S
C1039 C1038 1.399 . S
C1039 C1040 1.376 . S
C1040 H1027 0.930 . S
C1040 C1039 1.376 . S
C1040 C1041 1.388 . S
C1041 H1028 0.930 . S
C1041 C1040 1.388 . S
C1041 C1042 1.390 . S
C1042 C1041 1.390 . S
C1042 C1043 1.394 . S
C1042 C1048 1.465 . S
C1043 C1038 1.399 . S
C1043 C1042 1.394 . S
C1043 C1044 1.516 . S
C1044 C1043 1.516 . S
C1044 C1045 1.502 . S
C1044 C1046 1.561 . S
C1044 C1047 1.526 . S
C1045 H1029 0.959 . S
C1045 H1030 0.959 . S
C1045 H1031 0.961 . S
C1045 C1044 1.502 . S
C1046 H1032 0.960 . S
C1046 H1033 0.961 . S
C1046 H1034 0.959 . S
C1046 C1044 1.561 . S
C1047 C1044 1.526 . S
C1047 C1048 1.396 . S
C1047 C1052 1.390 . S
C1048 C1042 1.465 . S
C1048 C1047 1.396 . S
C1048 C1049 1.399 . S
C1049 H1035 0.929 . S
C1049 C1048 1.399 . S
C1049 C1050 1.385 . S
C1050 H1036 0.931 . S
C1050 C1049 1.385 . S
C1050 C1051 1.389 . S
C1051 C1050 1.389 . S
C1051 C1052 1.387 . S
C1052 H1037 0.930 . S
C1052 C1047 1.390 . S
C1052 C1051 1.387 . S
H1053 C1065 0.930 . S
H1054 C1067 0.930 . S
H1055 C1068 0.930 . S
H1056 C1072 0.959 . S
H1057 C1072 0.959 . S
H1058 C1072 0.961 . S
H1059 C1073 0.960 . S
H1060 C1073 0.961 . S
H1061 C1073 0.959 . S
H1062 C1076 0.929 . S
H1063 C1077 0.931 . S
H1064 C1079 0.930 . S
C1065 H1053 0.930 . S
C1065 C1066 1.399 . S
C1065 C1070 1.399 . S
C1066 C1065 1.399 . S
C1066 C1067 1.376 . S
C1067 H1054 0.930 . S
C1067 C1066 1.376 . S
C1067 C1068 1.388 . S
C1068 H1055 0.930 . S
C1068 C1067 1.388 . S
C1068 C1069 1.390 . S
C1069 C1068 1.390 . S
C1069 C1070 1.394 . S
C1069 C1075 1.465 . S
C1070 C1065 1.399 . S
C1070 C1069 1.394 . S
C1070 C1071 1.516 . S
C1071 C1070 1.516 . S
C1071 C1072 1.502 . S
C1071 C1073 1.561 . S
C1071 C1074 1.526 . S
C1072 H1056 0.959 . S
C1072 H1057 0.959 . S
C1072 H1058 0.961 . S
C1072 C1071 1.502 . S
C1073 H1059 0.960 . S
C1073 H1060 0.961 . S
C1073 H1061 0.959 . S
C1073 C1071 1.561 . S
C1074 C1071 1.526 . S
C1074 C1075 1.396 . S
C1074 C1079 1.390 . S
C1075 C1069 1.465 . S
C1075 C1074 1.396 . S
C1075 C1076 1.399 . S
C1076 H1062 0.929 . S
C1076 C1075 1.399 . S
C1076 C1077 1.385 . S
C1077 H1063 0.931 . S
C1077 C1076 1.385 . S
C1077 C1078 1.389 . S
C1078 C1077 1.389 . S
C1078 C1079 1.387 . S
C1079 H1064 0.930 . S
C1079 C1074 1.390 . S
C1079 C1078 1.387 . S
H1080 C1092 0.930 . S
H1081 C1094 0.930 . S
H1082 C1095 0.930 . S
H1083 C1099 0.959 . S
H1084 C1099 0.959 . S
H1085 C1099 0.961 . S
H1086 C1100 0.960 . S
H1087 C1100 0.961 . S
H1088 C1100 0.959 . S
H1089 C1103 0.929 . S
H1090 C1104 0.931 . S
H1091 C1106 0.930 . S
C1092 H1080 0.930 . S
C1092 C1093 1.399 . S
C1092 C1097 1.399 . S
C1093 C1092 1.399 . S
C1093 C1094 1.376 . S
C1094 H1081 0.930 . S
C1094 C1093 1.376 . S
C1094 C1095 1.388 . S
C1095 H1082 0.930 . S
C1095 C1094 1.388 . S
C1095 C1096 1.390 . S
C1096 C1095 1.390 . S
C1096 C1097 1.394 . S
C1096 C1102 1.465 . S
C1097 C1092 1.399 . S
C1097 C1096 1.394 . S
C1097 C1098 1.516 . S
C1098 C1097 1.516 . S
C1098 C1099 1.502 . S
C1098 C1100 1.561 . S
C1098 C1101 1.526 . S
C1099 H1083 0.959 . S
C1099 H1084 0.959 . S
C1099 H1085 0.961 . S
C1099 C1098 1.502 . S
C1100 H1086 0.960 . S
C1100 H1087 0.961 . S
C1100 H1088 0.959 . S
C1100 C1098 1.561 . S
C1101 C1098 1.526 . S
C1101 C1102 1.396 . S
C1101 C1106 1.390 . S
C1102 C1096 1.465 . S
C1102 C1101 1.396 . S
C1102 C1103 1.399 . S
C1103 H1089 0.929 . S
C1103 C1102 1.399 . S
C1103 C1104 1.385 . S
C1104 H1090 0.931 . S
C1104 C1103 1.385 . S
C1104 C1105 1.389 . S
C1105 C1104 1.389 . S
C1105 C1106 1.387 . S
C1106 H1091 0.930 . S
C1106 C1101 1.390 . S
C1106 C1105 1.387 . S
H1107 C1119 0.930 . S
H1108 C1121 0.930 . S
H1109 C1122 0.930 . S
H1110 C1126 0.959 . S
H1111 C1126 0.959 . S
H1112 C1126 0.961 . S
H1113 C1127 0.960 . S
H1114 C1127 0.961 . S
H1115 C1127 0.959 . S
H1116 C1130 0.929 . S
H1117 C1131 0.931 . S
H1118 C1133 0.930 . S
C1119 H1107 0.930 . S
C1119 C1120 1.399 . S
C1119 C1124 1.399 . S
C1120 C1119 1.399 . S
C1120 C1121 1.376 . S
C1121 H1108 0.930 . S
C1121 C1120 1.376 . S
C1121 C1122 1.388 . S
C1122 H1109 0.930 . S
C1122 C1121 1.388 . S
C1122 C1123 1.390 . S
C1123 C1122 1.390 . S
C1123 C1124 1.394 . S
C1123 C1129 1.465 . S
C1124 C1119 1.399 . S
C1124 C1123 1.394 . S
C1124 C1125 1.516 . S
C1125 C1124 1.516 . S
C1125 C1126 1.502 . S
C1125 C1127 1.561 . S
C1125 C1128 1.526 . S
C1126 H1110 0.959 . S
C1126 H1111 0.959 . S
C1126 H1112 0.961 . S
C1126 C1125 1.502 . S
C1127 H1113 0.960 . S
C1127 H1114 0.961 . S
C1127 H1115 0.959 . S
C1127 C1125 1.561 . S
C1128 C1125 1.526 . S
C1128 C1129 1.396 . S
C1128 C1133 1.390 . S
C1129 C1123 1.465 . S
C1129 C1128 1.396 . S
C1129 C1130 1.399 . S
C1130 H1116 0.929 . S
C1130 C1129 1.399 . S
C1130 C1131 1.385 . S
C1131 H1117 0.931 . S
C1131 C1130 1.385 . S
C1131 C1132 1.389 . S
C1132 C1131 1.389 . S
C1132 C1133 1.387 . S
C1133 H1118 0.930 . S
C1133 C1128 1.390 . S
C1133 C1132 1.387 . S
H1134 C1146 0.930 . S
H1135 C1148 0.930 . S
H1136 C1149 0.930 . S
H1137 C1153 0.959 . S
H1138 C1153 0.959 . S
H1139 C1153 0.961 . S
H1140 C1154 0.960 . S
H1141 C1154 0.961 . S
H1142 C1154 0.959 . S
H1143 C1157 0.929 . S
H1144 C1158 0.931 . S
H1145 C1160 0.930 . S
C1146 H1134 0.930 . S
C1146 C1147 1.399 . S
C1146 C1151 1.399 . S
C1147 C1146 1.399 . S
C1147 C1148 1.376 . S
C1148 H1135 0.930 . S
C1148 C1147 1.376 . S
C1148 C1149 1.388 . S
C1149 H1136 0.930 . S
C1149 C1148 1.388 . S
C1149 C1150 1.390 . S
C1150 C1149 1.390 . S
C1150 C1151 1.394 . S
C1150 C1156 1.465 . S
C1151 C1146 1.399 . S
C1151 C1150 1.394 . S
C1151 C1152 1.516 . S
C1152 C1151 1.516 . S
C1152 C1153 1.502 . S
C1152 C1154 1.561 . S
C1152 C1155 1.526 . S
C1153 H1137 0.959 . S
C1153 H1138 0.959 . S
C1153 H1139 0.961 . S
C1153 C1152 1.502 . S
C1154 H1140 0.960 . S
C1154 H1141 0.961 . S
C1154 H1142 0.959 . S
C1154 C1152 1.561 . S
C1155 C1152 1.526 . S
C1155 C1156 1.396 . S
C1155 C1160 1.390 . S
C1156 C1150 1.465 . S
C1156 C1155 1.396 . S
C1156 C1157 1.399 . S
C1157 H1143 0.929 . S
C1157 C1156 1.399 . S
C1157 C1158 1.385 . S
C1158 H1144 0.931 . S
C1158 C1157 1.385 . S
C1158 C1159 1.389 . S
C1159 C1158 1.389 . S
C1159 C1160 1.387 . S
C1160 H1145 0.930 . S
C1160 C1155 1.390 . S
C1160 C1159 1.387 . S
H1161 C1173 0.930 . S
H1162 C1175 0.930 . S
H1163 C1176 0.930 . S
H1164 C1180 0.959 . S
H1165 C1180 0.959 . S
H1166 C1180 0.961 . S
H1167 C1181 0.960 . S
H1168 C1181 0.961 . S
H1169 C1181 0.959 . S
H1170 C1184 0.929 . S
H1171 C1185 0.931 . S
H1172 C1187 0.930 . S
C1173 H1161 0.930 . S
C1173 C1174 1.399 . S
C1173 C1178 1.399 . S
C1174 C1173 1.399 . S
C1174 C1175 1.376 . S
C1175 H1162 0.930 . S
C1175 C1174 1.376 . S
C1175 C1176 1.388 . S
C1176 H1163 0.930 . S
C1176 C1175 1.388 . S
C1176 C1177 1.390 . S
C1177 C1176 1.390 . S
C1177 C1178 1.394 . S
C1177 C1183 1.465 . S
C1178 C1173 1.399 . S
C1178 C1177 1.394 . S
C1178 C1179 1.516 . S
C1179 C1178 1.516 . S
C1179 C1180 1.502 . S
C1179 C1181 1.561 . S
C1179 C1182 1.526 . S
C1180 H1164 0.959 . S
C1180 H1165 0.959 . S
C1180 H1166 0.961 . S
C1180 C1179 1.502 . S
C1181 H1167 0.960 . S
C1181 H1168 0.961 . S
C1181 H1169 0.959 . S
C1181 C1179 1.561 . S
C1182 C1179 1.526 . S
C1182 C1183 1.396 . S
C1182 C1187 1.390 . S
C1183 C1177 1.465 . S
C1183 C1182 1.396 . S
C1183 C1184 1.399 . S
C1184 H1170 0.929 . S
C1184 C1183 1.399 . S
C1184 C1185 1.385 . S
C1185 H1171 0.931 . S
C1185 C1184 1.385 . S
C1185 C1186 1.389 . S
C1186 C1185 1.389 . S
C1186 C1187 1.387 . S
C1187 H1172 0.930 . S
C1187 C1182 1.390 . S
C1187 C1186 1.387 . S
H1188 C1200 0.930 . S
H1189 C1202 0.930 . S
H1190 C1203 0.930 . S
H1191 C1207 0.959 . S
H1192 C1207 0.959 . S
H1193 C1207 0.961 . S
H1194 C1208 0.960 . S
H1195 C1208 0.961 . S
H1196 C1208 0.959 . S
H1197 C1211 0.929 . S
H1198 C1212 0.931 . S
H1199 C1214 0.930 . S
C1200 H1188 0.930 . S
C1200 C1201 1.399 . S
C1200 C1205 1.399 . S
C1201 C1200 1.399 . S
C1201 C1202 1.376 . S
C1202 H1189 0.930 . S
C1202 C1201 1.376 . S
C1202 C1203 1.388 . S
C1203 H1190 0.930 . S
C1203 C1202 1.388 . S
C1203 C1204 1.390 . S
C1204 C1203 1.390 . S
C1204 C1205 1.394 . S
C1204 C1210 1.465 . S
C1205 C1200 1.399 . S
C1205 C1204 1.394 . S
C1205 C1206 1.516 . S
C1206 C1205 1.516 . S
C1206 C1207 1.502 . S
C1206 C1208 1.561 . S
C1206 C1209 1.526 . S
C1207 H1191 0.959 . S
C1207 H1192 0.959 . S
C1207 H1193 0.961 . S
C1207 C1206 1.502 . S
C1208 H1194 0.960 . S
C1208 H1195 0.961 . S
C1208 H1196 0.959 . S
C1208 C1206 1.561 . S
C1209 C1206 1.526 . S
C1209 C1210 1.396 . S
C1209 C1214 1.390 . S
C1210 C1204 1.465 . S
C1210 C1209 1.396 . S
C1210 C1211 1.399 . S
C1211 H1197 0.929 . S
C1211 C1210 1.399 . S
C1211 C1212 1.385 . S
C1212 H1198 0.931 . S
C1212 C1211 1.385 . S
C1212 C1213 1.389 . S
C1213 C1212 1.389 . S
C1213 C1214 1.387 . S
C1214 H1199 0.930 . S
C1214 C1209 1.390 . S
C1214 C1213 1.387 . S
H1215 C1227 0.930 . S
H1216 C1229 0.930 . S
H1217 C1230 0.930 . S
H1218 C1234 0.959 . S
H1219 C1234 0.959 . S
H1220 C1234 0.961 . S
H1221 C1235 0.960 . S
H1222 C1235 0.961 . S
H1223 C1235 0.959 . S
H1224 C1238 0.929 . S
H1225 C1239 0.931 . S
H1226 C1241 0.930 . S
C1227 H1215 0.930 . S
C1227 C1228 1.399 . S
C1227 C1232 1.399 . S
C1228 C1227 1.399 . S
C1228 C1229 1.376 . S
C1229 H1216 0.930 . S
C1229 C1228 1.376 . S
C1229 C1230 1.388 . S
C1230 H1217 0.930 . S
C1230 C1229 1.388 . S
C1230 C1231 1.390 . S
C1231 C1230 1.390 . S
C1231 C1232 1.394 . S
C1231 C1237 1.465 . S
C1232 C1227 1.399 . S
C1232 C1231 1.394 . S
C1232 C1233 1.516 . S
C1233 C1232 1.516 . S
C1233 C1234 1.502 . S
C1233 C1235 1.561 . S
C1233 C1236 1.526 . S
C1234 H1218 0.959 . S
C1234 H1219 0.959 . S
C1234 H1220 0.961 . S
C1234 C1233 1.502 . S
C1235 H1221 0.960 . S
C1235 H1222 0.961 . S
C1235 H1223 0.959 . S
C1235 C1233 1.561 . S
C1236 C1233 1.526 . S
C1236 C1237 1.396 . S
C1236 C1241 1.390 . S
C1237 C1231 1.465 . S
C1237 C1236 1.396 . S
C1237 C1238 1.399 . S
C1238 H1224 0.929 . S
C1238 C1237 1.399 . S
C1238 C1239 1.385 . S
C1239 H1225 0.931 . S
C1239 C1238 1.385 . S
C1239 C1240 1.389 . S
C1240 C1239 1.389 . S
C1240 C1241 1.387 . S
C1241 H1226 0.930 . S
C1241 C1236 1.390 . S
C1241 C1240 1.387 . S
H1242 C1254 0.930 . S
H1243 C1256 0.930 . S
H1244 C1257 0.930 . S
H1245 C1261 0.959 . S
H1246 C1261 0.959 . S
H1247 C1261 0.961 . S
H1248 C1262 0.960 . S
H1249 C1262 0.961 . S
H1250 C1262 0.959 . S
H1251 C1265 0.929 . S
H1252 C1266 0.931 . S
H1253 C1268 0.930 . S
C1254 H1242 0.930 . S
C1254 C1255 1.399 . S
C1254 C1259 1.399 . S
C1255 C1254 1.399 . S
C1255 C1256 1.376 . S
C1256 H1243 0.930 . S
C1256 C1255 1.376 . S
C1256 C1257 1.388 . S
C1257 H1244 0.930 . S
C1257 C1256 1.388 . S
C1257 C1258 1.390 . S
C1258 C1257 1.390 . S
C1258 C1259 1.394 . S
C1258 C1264 1.465 . S
C1259 C1254 1.399 . S
C1259 C1258 1.394 . S
C1259 C1260 1.516 . S
C1260 C1259 1.516 . S
C1260 C1261 1.502 . S
C1260 C1262 1.561 . S
C1260 C1263 1.526 . S
C1261 H1245 0.959 . S
C1261 H1246 0.959 . S
C1261 H1247 0.961 . S
C1261 C1260 1.502 . S
C1262 H1248 0.960 . S
C1262 H1249 0.961 . S
C1262 H1250 0.959 . S
C1262 C1260 1.561 . S
C1263 C1260 1.526 . S
C1263 C1264 1.396 . S
C1263 C1268 1.390 . S
C1264 C1258 1.465 . S
C1264 C1263 1.396 . S
C1264 C1265 1.399 . S
C1265 H1251 0.929 . S
C1265 C1264 1.399 . S
C1265 C1266 1.385 . S
C1266 H1252 0.931 . S
C1266 C1265 1.385 . S
C1266 C1267 1.389 . S
C1267 C1266 1.389 . S
C1267 C1268 1.387 . S
C1268 H1253 0.930 . S
C1268 C1263 1.390 . S
C1268 C1267 1.387 . S
H1269 C1281 0.930 . S
H1270 C1283 0.930 . S
H1271 C1284 0.930 . S
H1272 C1288 0.959 . S
H1273 C1288 0.959 . S
H1274 C1288 0.961 . S
H1275 C1289 0.960 . S
H1276 C1289 0.961 . S
H1277 C1289 0.959 . S
H1278 C1292 0.929 . S
H1279 C1293 0.931 . S
H1280 C1295 0.930 . S
C1281 H1269 0.930 . S
C1281 C1282 1.399 . S
C1281 C1286 1.399 . S
C1282 C1281 1.399 . S
C1282 C1283 1.376 . S
C1283 H1270 0.930 . S
C1283 C1282 1.376 . S
C1283 C1284 1.388 . S
C1284 H1271 0.930 . S
C1284 C1283 1.388 . S
C1284 C1285 1.390 . S
C1285 C1284 1.390 . S
C1285 C1286 1.394 . S
C1285 C1291 1.465 . S
C1286 C1281 1.399 . S
C1286 C1285 1.394 . S
C1286 C1287 1.516 . S
C1287 C1286 1.516 . S
C1287 C1288 1.502 . S
C1287 C1289 1.561 . S
C1287 C1290 1.526 . S
C1288 H1272 0.959 . S
C1288 H1273 0.959 . S
C1288 H1274 0.961 . S
C1288 C1287 1.502 . S
C1289 H1275 0.960 . S
C1289 H1276 0.961 . S
C1289 H1277 0.959 . S
C1289 C1287 1.561 . S
C1290 C1287 1.526 . S
C1290 C1291 1.396 . S
C1290 C1295 1.390 . S
C1291 C1285 1.465 . S
C1291 C1290 1.396 . S
C1291 C1292 1.399 . S
C1292 H1278 0.929 . S
C1292 C1291 1.399 . S
C1292 C1293 1.385 . S
C1293 H1279 0.931 . S
C1293 C1292 1.385 . S
C1293 C1294 1.389 . S
C1294 C1293 1.389 . S
C1294 C1295 1.387 . S
C1295 H1280 0.930 . S
C1295 C1290 1.390 . S
C1295 C1294 1.387 . S
H1296 C1308 0.930 . S
H1297 C1310 0.930 . S
H1298 C1311 0.930 . S
H1299 C1315 0.959 . S
H1300 C1315 0.959 . S
H1301 C1315 0.961 . S
H1302 C1316 0.960 . S
H1303 C1316 0.961 . S
H1304 C1316 0.959 . S
H1305 C1319 0.929 . S
H1306 C1320 0.931 . S
H1307 C1322 0.930 . S
C1308 H1296 0.930 . S
C1308 C1309 1.399 . S
C1308 C1313 1.399 . S
C1309 C1308 1.399 . S
C1309 C1310 1.376 . S
C1310 H1297 0.930 . S
C1310 C1309 1.376 . S
C1310 C1311 1.388 . S
C1311 H1298 0.930 . S
C1311 C1310 1.388 . S
C1311 C1312 1.390 . S
C1312 C1311 1.390 . S
C1312 C1313 1.394 . S
C1312 C1318 1.465 . S
C1313 C1308 1.399 . S
C1313 C1312 1.394 . S
C1313 C1314 1.516 . S
C1314 C1313 1.516 . S
C1314 C1315 1.502 . S
C1314 C1316 1.561 . S
C1314 C1317 1.526 . S
C1315 H1299 0.959 . S
C1315 H1300 0.959 . S
C1315 H1301 0.961 . S
C1315 C1314 1.502 . S
C1316 H1302 0.960 . S
C1316 H1303 0.961 . S
C1316 H1304 0.959 . S
C1316 C1314 1.561 . S
C1317 C1314 1.526 . S
C1317 C1318 1.396 . S
C1317 C1322 1.390 . S
C1318 C1312 1.465 . S
C1318 C1317 1.396 . S
C1318 C1319 1.399 . S
C1319 H1305 0.929 . S
C1319 C1318 1.399 . S
C1319 C1320 1.385 . S
C1320 H1306 0.931 . S
C1320 C1319 1.385 . S
C1320 C1321 1.389 . S
C1321 C1320 1.389 . S
C1321 C1322 1.387 . S
C1322 H1307 0.930 . S
C1322 C1317 1.390 . S
C1322 C1321 1.387 . S
H1323 C1335 0.930 . S
H1324 C1337 0.930 . S
H1325 C1338 0.930 . S
H1326 C1342 0.959 . S
H1327 C1342 0.959 . S
H1328 C1342 0.961 . S
H1329 C1343 0.960 . S
H1330 C1343 0.961 . S
H1331 C1343 0.959 . S
H1332 C1346 0.929 . S
H1333 C1347 0.931 . S
H1334 C1349 0.930 . S
C1335 H1323 0.930 . S
C1335 C1336 1.399 . S
C1335 C1340 1.399 . S
C1336 C1335 1.399 . S
C1336 C1337 1.376 . S
C1337 H1324 0.930 . S
C1337 C1336 1.376 . S
C1337 C1338 1.388 . S
C1338 H1325 0.930 . S
C1338 C1337 1.388 . S
C1338 C1339 1.390 . S
C1339 C1338 1.390 . S
C1339 C1340 1.394 . S
C1339 C1345 1.465 . S
C1340 C1335 1.399 . S
C1340 C1339 1.394 . S
C1340 C1341 1.516 . S
C1341 C1340 1.516 . S
C1341 C1342 1.502 . S
C1341 C1343 1.561 . S
C1341 C1344 1.526 . S
C1342 H1326 0.959 . S
C1342 H1327 0.959 . S
C1342 H1328 0.961 . S
C1342 C1341 1.502 . S
C1343 H1329 0.960 . S
C1343 H1330 0.961 . S
C1343 H1331 0.959 . S
C1343 C1341 1.561 . S
C1344 C1341 1.526 . S
C1344 C1345 1.396 . S
C1344 C1349 1.390 . S
C1345 C1339 1.465 . S
C1345 C1344 1.396 . S
C1345 C1346 1.399 . S
C1346 H1332 0.929 . S
C1346 C1345 1.399 . S
C1346 C1347 1.385 . S
C1347 H1333 0.931 . S
C1347 C1346 1.385 . S
C1347 C1348 1.389 . S
C1348 C1347 1.389 . S
C1348 C1349 1.387 . S
C1349 H1334 0.930 . S
C1349 C1344 1.390 . S
C1349 C1348 1.387 . S
H1350 C1362 0.930 . S
H1351 C1364 0.930 . S
H1352 C1365 0.930 . S
H1353 C1369 0.959 . S
H1354 C1369 0.959 . S
H1355 C1369 0.961 . S
H1356 C1370 0.960 . S
H1357 C1370 0.961 . S
H1358 C1370 0.959 . S
H1359 C1373 0.929 . S
H1360 C1374 0.931 . S
H1361 C1376 0.930 . S
C1362 H1350 0.930 . S
C1362 C1363 1.399 . S
C1362 C1367 1.399 . S
C1363 C1362 1.399 . S
C1363 C1364 1.376 . S
C1364 H1351 0.930 . S
C1364 C1363 1.376 . S
C1364 C1365 1.388 . S
C1365 H1352 0.930 . S
C1365 C1364 1.388 . S
C1365 C1366 1.390 . S
C1366 C1365 1.390 . S
C1366 C1367 1.394 . S
C1366 C1372 1.465 . S
C1367 C1362 1.399 . S
C1367 C1366 1.394 . S
C1367 C1368 1.516 . S
C1368 C1367 1.516 . S
C1368 C1369 1.502 . S
C1368 C1370 1.561 . S
C1368 C1371 1.526 . S
C1369 H1353 0.959 . S
C1369 H1354 0.959 . S
C1369 H1355 0.961 . S
C1369 C1368 1.502 . S
C1370 H1356 0.960 . S
C1370 H1357 0.961 . S
C1370 H1358 0.959 . S
C1370 C1368 1.561 . S
C1371 C1368 1.526 . S
C1371 C1372 1.396 . S
C1371 C1376 1.390 . S
C1372 C1366 1.465 . S
C1372 C1371 1.396 . S
C1372 C1373 1.399 . S
C1373 H1359 0.929 . S
C1373 C1372 1.399 . S
C1373 C1374 1.385 . S
C1374 H1360 0.931 . S
C1374 C1373 1.385 . S
C1374 C1375 1.389 . S
C1375 C1374 1.389 . S
C1375 C1376 1.387 . S
C1376 H1361 0.930 . S
C1376 C1371 1.390 . S
C1376 C1375 1.387 . S
H1377 C1389 0.930 . S
H1378 C1391 0.930 . S
H1379 C1392 0.930 . S
H1380 C1396 0.959 . S
H1381 C1396 0.959 . S
H1382 C1396 0.961 . S
H1383 C1397 0.960 . S
H1384 C1397 0.961 . S
H1385 C1397 0.959 . S
H1386 C1400 0.929 . S
H1387 C1401 0.931 . S
H1388 C1403 0.930 . S
C1389 H1377 0.930 . S
C1389 C1390 1.399 . S
C1389 C1394 1.399 . S
C1390 C1389 1.399 . S
C1390 C1391 1.376 . S
C1391 H1378 0.930 . S
C1391 C1390 1.376 . S
C1391 C1392 1.388 . S
C1392 H1379 0.930 . S
C1392 C1391 1.388 . S
C1392 C1393 1.390 . S
C1393 C1392 1.390 . S
C1393 C1394 1.394 . S
C1393 C1399 1.465 . S
C1394 C1389 1.399 . S
C1394 C1393 1.394 . S
C1394 C1395 1.516 . S
C1395 C1394 1.516 . S
C1395 C1396 1.502 . S
C1395 C1397 1.561 . S
C1395 C1398 1.526 . S
C1396 H1380 0.959 . S
C1396 H1381 0.959 . S
C1396 H1382 0.961 . S
C1396 C1395 1.502 . S
C1397 H1383 0.960 . S
C1397 H1384 0.961 . S
C1397 H1385 0.959 . S
C1397 C1395 1.561 . S
C1398 C1395 1.526 . S
C1398 C1399 1.396 . S
C1398 C1403 1.390 . S
C1399 C1393 1.465 . S
C1399 C1398 1.396 . S
C1399 C1400 1.399 . S
C1400 H1386 0.929 . S
C1400 C1399 1.399 . S
C1400 C1401 1.385 . S
C1401 H1387 0.931 . S
C1401 C1400 1.385 . S
C1401 C1402 1.389 . S
C1402 C1401 1.389 . S
C1402 C1403 1.387 . S
C1403 H1388 0.930 . S
C1403 C1398 1.390 . S
C1403 C1402 1.387 . S
H1404 C1416 0.930 . S
H1405 C1418 0.930 . S
H1406 C1419 0.930 . S
H1407 C1423 0.959 . S
H1408 C1423 0.959 . S
H1409 C1423 0.961 . S
H1410 C1424 0.960 . S
H1411 C1424 0.961 . S
H1412 C1424 0.959 . S
H1413 C1427 0.929 . S
H1414 C1428 0.931 . S
H1415 C1430 0.930 . S
C1416 H1404 0.930 . S
C1416 C1417 1.399 . S
C1416 C1421 1.399 . S
C1417 C1416 1.399 . S
C1417 C1418 1.376 . S
C1418 H1405 0.930 . S
C1418 C1417 1.376 . S
C1418 C1419 1.388 . S
C1419 H1406 0.930 . S
C1419 C1418 1.388 . S
C1419 C1420 1.390 . S
C1420 C1419 1.390 . S
C1420 C1421 1.394 . S
C1420 C1426 1.465 . S
C1421 C1416 1.399 . S
C1421 C1420 1.394 . S
C1421 C1422 1.516 . S
C1422 C1421 1.516 . S
C1422 C1423 1.502 . S
C1422 C1424 1.561 . S
C1422 C1425 1.526 . S
C1423 H1407 0.959 . S
C1423 H1408 0.959 . S
C1423 H1409 0.961 . S
C1423 C1422 1.502 . S
C1424 H1410 0.960 . S
C1424 H1411 0.961 . S
C1424 H1412 0.959 . S
C1424 C1422 1.561 . S
C1425 C1422 1.526 . S
C1425 C1426 1.396 . S
C1425 C1430 1.390 . S
C1426 C1420 1.465 . S
C1426 C1425 1.396 . S
C1426 C1427 1.399 . S
C1427 H1413 0.929 . S
C1427 C1426 1.399 . S
C1427 C1428 1.385 . S
C1428 H1414 0.931 . S
C1428 C1427 1.385 . S
C1428 C1429 1.389 . S
C1429 C1428 1.389 . S
C1429 C1430 1.387 . S
C1430 H1415 0.930 . S
C1430 C1425 1.390 . S
C1430 C1429 1.387 . S
H1431 C1443 0.930 . S
H1432 C1445 0.930 . S
H1433 C1446 0.930 . S
H1434 C1450 0.959 . S
H1435 C1450 0.959 . S
H1436 C1450 0.961 . S
H1437 C1451 0.960 . S
H1438 C1451 0.961 . S
H1439 C1451 0.959 . S
H1440 C1454 0.929 . S
H1441 C1455 0.931 . S
H1442 C1457 0.930 . S
C1443 H1431 0.930 . S
C1443 C1444 1.399 . S
C1443 C1448 1.399 . S
C1444 C1443 1.399 . S
C1444 C1445 1.376 . S
C1445 H1432 0.930 . S
C1445 C1444 1.376 . S
C1445 C1446 1.388 . S
C1446 H1433 0.930 . S
C1446 C1445 1.388 . S
C1446 C1447 1.390 . S
C1447 C1446 1.390 . S
C1447 C1448 1.394 . S
C1447 C1453 1.465 . S
C1448 C1443 1.399 . S
C1448 C1447 1.394 . S
C1448 C1449 1.516 . S
C1449 C1448 1.516 . S
C1449 C1450 1.502 . S
C1449 C1451 1.561 . S
C1449 C1452 1.526 . S
C1450 H1434 0.959 . S
C1450 H1435 0.959 . S
C1450 H1436 0.961 . S
C1450 C1449 1.502 . S
C1451 H1437 0.960 . S
C1451 H1438 0.961 . S
C1451 H1439 0.959 . S
C1451 C1449 1.561 . S
C1452 C1449 1.526 . S
C1452 C1453 1.396 . S
C1452 C1457 1.390 . S
C1453 C1447 1.465 . S
C1453 C1452 1.396 . S
C1453 C1454 1.399 . S
C1454 H1440 0.929 . S
C1454 C1453 1.399 . S
C1454 C1455 1.385 . S
C1455 H1441 0.931 . S
C1455 C1454 1.385 . S
C1455 C1456 1.389 . S
C1456 C1455 1.389 . S
C1456 C1457 1.387 . S
C1457 H1442 0.930 . S
C1457 C1452 1.390 . S
C1457 C1456 1.387 . S
H1458 C1470 0.930 . S
H1459 C1472 0.930 . S
H1460 C1473 0.930 . S
H1461 C1477 0.959 . S
H1462 C1477 0.959 . S
H1463 C1477 0.961 . S
H1464 C1478 0.960 . S
H1465 C1478 0.961 . S
H1466 C1478 0.959 . S
H1467 C1481 0.929 . S
H1468 C1482 0.931 . S
H1469 C1484 0.930 . S
C1470 H1458 0.930 . S
C1470 C1471 1.399 . S
C1470 C1475 1.399 . S
C1471 C1470 1.399 . S
C1471 C1472 1.376 . S
C1472 H1459 0.930 . S
C1472 C1471 1.376 . S
C1472 C1473 1.388 . S
C1473 H1460 0.930 . S
C1473 C1472 1.388 . S
C1473 C1474 1.390 . S
C1474 C1473 1.390 . S
C1474 C1475 1.394 . S
C1474 C1480 1.465 . S
C1475 C1470 1.399 . S
C1475 C1474 1.394 . S
C1475 C1476 1.516 . S
C1476 C1475 1.516 . S
C1476 C1477 1.502 . S
C1476 C1478 1.561 . S
C1476 C1479 1.526 . S
C1477 H1461 0.959 . S
C1477 H1462 0.959 . S
C1477 H1463 0.961 . S
C1477 C1476 1.502 . S
C1478 H1464 0.960 . S
C1478 H1465 0.961 . S
C1478 H1466 0.959 . S
C1478 C1476 1.561 . S
C1479 C1476 1.526 . S
C1479 C1480 1.396 . S
C1479 C1484 1.390 . S
C1480 C1474 1.465 . S
C1480 C1479 1.396 . S
C1480 C1481 1.399 . S
C1481 H1467 0.929 . S
C1481 C1480 1.399 . S
C1481 C1482 1.385 . S
C1482 H1468 0.931 . S
C1482 C1481 1.385 . S
C1482 C1483 1.389 . S
C1483 C1482 1.389 . S
C1483 C1484 1.387 . S
C1484 H1469 0.930 . S
C1484 C1479 1.390 . S
C1484 C1483 1.387 . S
H1485 C1497 0.930 . S
H1486 C1499 0.930 . S
H1487 C1500 0.930 . S
H1488 C1504 0.959 . S
H1489 C1504 0.959 . S
H1490 C1504 0.961 . S
H1491 C1505 0.960 . S
H1492 C1505 0.961 . S
H1493 C1505 0.959 . S
H1494 C1508 0.929 . S
H1495 C1509 0.931 . S
H1496 C1511 0.930 . S
C1497 H1485 0.930 . S
C1497 C1498 1.399 . S
C1497 C1502 1.399 . S
C1498 C1497 1.399 . S
C1498 C1499 1.376 . S
C1499 H1486 0.930 . S
C1499 C1498 1.376 . S
C1499 C1500 1.388 . S
C1500 H1487 0.930 . S
C1500 C1499 1.388 . S
C1500 C1501 1.390 . S
C1501 C1500 1.390 . S
C1501 C1502 1.394 . S
C1501 C1507 1.465 . S
C1502 C1497 1.399 . S
C1502 C1501 1.394 . S
C1502 C1503 1.516 . S
C1503 C1502 1.516 . S
C1503 C1504 1.502 . S
C1503 C1505 1.561 . S
C1503 C1506 1.526 . S
C1504 H1488 0.959 . S
C1504 H1489 0.959 . S
C1504 H1490 0.961 . S
C1504 C1503 1.502 . S
C1505 H1491 0.960 . S
C1505 H1492 0.961 . S
C1505 H1493 0.959 . S
C1505 C1503 1.561 . S
C1506 C1503 1.526 . S
C1506 C1507 1.396 . S
C1506 C1511 1.390 . S
C1507 C1501 1.465 . S
C1507 C1506 1.396 . S
C1507 C1508 1.399 . S
C1508 H1494 0.929 . S
C1508 C1507 1.399 . S
C1508 C1509 1.385 . S
C1509 H1495 0.931 . S
C1509 C1508 1.385 . S
C1509 C1510 1.389 . S
C1510 C1509 1.389 . S
C1510 C1511 1.387 . S
C1511 H1496 0.930 . S
C1511 C1506 1.390 . S
C1511 C1510 1.387 . S
H1512 C1524 0.930 . S
H1513 C1526 0.930 . S
H1514 C1527 0.930 . S
H1515 C1531 0.959 . S
H1516 C1531 0.959 . S
H1517 C1531 0.961 . S
H1518 C1532 0.960 . S
H1519 C1532 0.961 . S
H1520 C1532 0.959 . S
H1521 C1535 0.929 . S
H1522 C1536 0.931 . S
H1523 C1538 0.930 . S
C1524 H1512 0.930 . S
C1524 C1525 1.399 . S
C1524 C1529 1.399 . S
C1525 C1524 1.399 . S
C1525 C1526 1.376 . S
C1526 H1513 0.930 . S
C1526 C1525 1.376 . S
C1526 C1527 1.388 . S
C1527 H1514 0.930 . S
C1527 C1526 1.388 . S
C1527 C1528 1.390 . S
C1528 C1527 1.390 . S
C1528 C1529 1.394 . S
C1528 C1534 1.465 . S
C1529 C1524 1.399 . S
C1529 C1528 1.394 . S
C1529 C1530 1.516 . S
C1530 C1529 1.516 . S
C1530 C1531 1.502 . S
C1530 C1532 1.561 . S
C1530 C1533 1.526 . S
C1531 H1515 0.959 . S
C1531 H1516 0.959 . S
C1531 H1517 0.961 . S
C1531 C1530 1.502 . S
C1532 H1518 0.960 . S
C1532 H1519 0.961 . S
C1532 H1520 0.959 . S
C1532 C1530 1.561 . S
C1533 C1530 1.526 . S
C1533 C1534 1.396 . S
C1533 C1538 1.390 . S
C1534 C1528 1.465 . S
C1534 C1533 1.396 . S
C1534 C1535 1.399 . S
C1535 H1521 0.929 . S
C1535 C1534 1.399 . S
C1535 C1536 1.385 . S
C1536 H1522 0.931 . S
C1536 C1535 1.385 . S
C1536 C1537 1.389 . S
C1537 C1536 1.389 . S
C1537 C1538 1.387 . S
C1538 H1523 0.930 . S
C1538 C1533 1.390 . S
C1538 C1537 1.387 . S
H1539 C1551 0.930 . S
H1540 C1553 0.930 . S
H1541 C1554 0.930 . S
H1542 C1558 0.959 . S
H1543 C1558 0.959 . S
H1544 C1558 0.961 . S
H1545 C1559 0.960 . S
H1546 C1559 0.961 . S
H1547 C1559 0.959 . S
H1548 C1562 0.929 . S
H1549 C1563 0.931 . S
H1550 C1565 0.930 . S
C1551 H1539 0.930 . S
C1551 C1552 1.399 . S
C1551 C1556 1.399 . S
C1552 C1551 1.399 . S
C1552 C1553 1.376 . S
C1553 H1540 0.930 . S
C1553 C1552 1.376 . S
C1553 C1554 1.388 . S
C1554 H1541 0.930 . S
C1554 C1553 1.388 . S
C1554 C1555 1.390 . S
C1555 C1554 1.390 . S
C1555 C1556 1.394 . S
C1555 C1561 1.465 . S
C1556 C1551 1.399 . S
C1556 C1555 1.394 . S
C1556 C1557 1.516 . S
C1557 C1556 1.516 . S
C1557 C1558 1.502 . S
C1557 C1559 1.561 . S
C1557 C1560 1.526 . S
C1558 H1542 0.959 . S
C1558 H1543 0.959 . S
C1558 H1544 0.961 . S
C1558 C1557 1.502 . S
C1559 H1545 0.960 . S
C1559 H1546 0.961 . S
C1559 H1547 0.959 . S
C1559 C1557 1.561 . S
C1560 C1557 1.526 . S
C1560 C1561 1.396 . S
C1560 C1565 1.390 . S
C1561 C1555 1.465 . S
C1561 C1560 1.396 . S
C1561 C1562 1.399 . S
C1562 H1548 0.929 . S
C1562 C1561 1.399 . S
C1562 C1563 1.385 . S
C1563 H1549 0.931 . S
C1563 C1562 1.385 . S
C1563 C1564 1.389 . S
C1564 C1563 1.389 . S
C1564 C1565 1.387 . S
C1565 H1550 0.930 . S
C1565 C1560 1.390 . S
C1565 C1564 1.387 . S
H1566 C1578 0.930 . S
H1567 C1580 0.930 . S
H1568 C1581 0.930 . S
H1569 C1585 0.959 . S
H1570 C1585 0.959 . S
H1571 C1585 0.961 . S
H1572 C1586 0.960 . S
H1573 C1586 0.961 . S
H1574 C1586 0.959 . S
H1575 C1589 0.929 . S
H1576 C1590 0.931 . S
H1577 C1592 0.930 . S
C1578 H1566 0.930 . S
C1578 C1579 1.399 . S
C1578 C1583 1.399 . S
C1579 C1578 1.399 . S
C1579 C1580 1.376 . S
C1580 H1567 0.930 . S
C1580 C1579 1.376 . S
C1580 C1581 1.388 . S
C1581 H1568 0.930 . S
C1581 C1580 1.388 . S
C1581 C1582 1.390 . S
C1582 C1581 1.390 . S
C1582 C1583 1.394 . S
C1582 C1588 1.465 . S
C1583 C1578 1.399 . S
C1583 C1582 1.394 . S
C1583 C1584 1.516 . S
C1584 C1583 1.516 . S
C1584 C1585 1.502 . S
C1584 C1586 1.561 . S
C1584 C1587 1.526 . S
C1585 H1569 0.959 . S
C1585 H1570 0.959 . S
C1585 H1571 0.961 . S
C1585 C1584 1.502 . S
C1586 H1572 0.960 . S
C1586 H1573 0.961 . S
C1586 H1574 0.959 . S
C1586 C1584 1.561 . S
C1587 C1584 1.526 . S
C1587 C1588 1.396 . S
C1587 C1592 1.390 . S
C1588 C1582 1.465 . S
C1588 C1587 1.396 . S
C1588 C1589 1.399 . S
C1589 H1575 0.929 . S
C1589 C1588 1.399 . S
C1589 C1590 1.385 . S
C1590 H1576 0.931 . S
C1590 C1589 1.385 . S
C1590 C1591 1.389 . S
C1591 C1590 1.389 . S
C1591 C1592 1.387 . S
C1592 H1577 0.930 . S
C1592 C1587 1.390 . S
C1592 C1591 1.387 . S
H1593 C1605 0.930 . S
H1594 C1607 0.930 . S
H1595 C1608 0.930 . S
H1596 C1612 0.959 . S
H1597 C1612 0.959 . S
H1598 C1612 0.961 . S
H1599 C1613 0.960 . S
H1600 C1613 0.961 . S
H1601 C1613 0.959 . S
H1602 C1616 0.929 . S
H1603 C1617 0.931 . S
H1604 C1619 0.930 . S
C1605 H1593 0.930 . S
C1605 C1606 1.399 . S
C1605 C1610 1.399 . S
C1606 C1605 1.399 . S
C1606 C1607 1.376 . S
C1607 H1594 0.930 . S
C1607 C1606 1.376 . S
C1607 C1608 1.388 . S
C1608 H1595 0.930 . S
C1608 C1607 1.388 . S
C1608 C1609 1.390 . S
C1609 C1608 1.390 . S
C1609 C1610 1.394 . S
C1609 C1615 1.465 . S
C1610 C1605 1.399 . S
C1610 C1609 1.394 . S
C1610 C1611 1.516 . S
C1611 C1610 1.516 . S
C1611 C1612 1.502 . S
C1611 C1613 1.561 . S
C1611 C1614 1.526 . S
C1612 H1596 0.959 . S
C1612 H1597 0.959 . S
C1612 H1598 0.961 . S
C1612 C1611 1.502 . S
C1613 H1599 0.960 . S
C1613 H1600 0.961 . S
C1613 H1601 0.959 . S
C1613 C1611 1.561 . S
C1614 C1611 1.526 . S
C1614 C1615 1.396 . S
C1614 C1619 1.390 . S
C1615 C1609 1.465 . S
C1615 C1614 1.396 . S
C1615 C1616 1.399 . S
C1616 H1602 0.929 . S
C1616 C1615 1.399 . S
C1616 C1617 1.385 . S
C1617 H1603 0.931 . S
C1617 C1616 1.385 . S
C1617 C1618 1.389 . S
C1618 C1617 1.389 . S
C1618 C1619 1.387 . S
C1619 H1604 0.930 . S
C1619 C1614 1.390 . S
C1619 C1618 1.387 . S
H1620 C1632 0.930 . S
H1621 C1634 0.930 . S
H1622 C1635 0.930 . S
H1623 C1639 0.959 . S
H1624 C1639 0.959 . S
H1625 C1639 0.961 . S
H1626 C1640 0.960 . S
H1627 C1640 0.961 . S
H1628 C1640 0.959 . S
H1629 C1643 0.929 . S
H1630 C1644 0.931 . S
H1631 C1646 0.930 . S
C1632 H1620 0.930 . S
C1632 C1633 1.399 . S
C1632 C1637 1.399 . S
C1633 C1632 1.399 . S
C1633 C1634 1.376 . S
C1634 H1621 0.930 . S
C1634 C1633 1.376 . S
C1634 C1635 1.388 . S
C1635 H1622 0.930 . S
C1635 C1634 1.388 . S
C1635 C1636 1.390 . S
C1636 C1635 1.390 . S
C1636 C1637 1.394 . S
C1636 C1642 1.465 . S
C1637 C1632 1.399 . S
C1637 C1636 1.394 . S
C1637 C1638 1.516 . S
C1638 C1637 1.516 . S
C1638 C1639 1.502 . S
C1638 C1640 1.561 . S
C1638 C1641 1.526 . S
C1639 H1623 0.959 . S
C1639 H1624 0.959 . S
C1639 H1625 0.961 . S
C1639 C1638 1.502 . S
C1640 H1626 0.960 . S
C1640 H1627 0.961 . S
C1640 H1628 0.959 . S
C1640 C1638 1.561 . S
C1641 C1638 1.526 . S
C1641 C1642 1.396 . S
C1641 C1646 1.390 . S
C1642 C1636 1.465 . S
C1642 C1641 1.396 . S
C1642 C1643 1.399 . S
C1643 H1629 0.929 . S
C1643 C1642 1.399 . S
C1643 C1644 1.385 . S
C1644 H1630 0.931 . S
C1644 C1643 1.385 . S
C1644 C1645 1.389 . S
C1645 C1644 1.389 . S
C1645 C1646 1.387 . S
C1646 H1631 0.930 . S
C1646 C1641 1.390 . S
C1646 C1645 1.387 . S
H1647 C1659 0.930 . S
H1648 C1661 0.930 . S
H1649 C1662 0.930 . S
H1650 C1666 0.959 . S
H1651 C1666 0.959 . S
H1652 C1666 0.961 . S
H1653 C1667 0.960 . S
H1654 C1667 0.961 . S
H1655 C1667 0.959 . S
H1656 C1670 0.929 . S
H1657 C1671 0.931 . S
H1658 C1673 0.930 . S
C1659 H1647 0.930 . S
C1659 C1660 1.399 . S
C1659 C1664 1.399 . S
C1660 C1659 1.399 . S
C1660 C1661 1.376 . S
C1661 H1648 0.930 . S
C1661 C1660 1.376 . S
C1661 C1662 1.388 . S
C1662 H1649 0.930 . S
C1662 C1661 1.388 . S
C1662 C1663 1.390 . S
C1663 C1662 1.390 . S
C1663 C1664 1.394 . S
C1663 C1669 1.465 . S
C1664 C1659 1.399 . S
C1664 C1663 1.394 . S
C1664 C1665 1.516 . S
C1665 C1664 1.516 . S
C1665 C1666 1.502 . S
C1665 C1667 1.561 . S
C1665 C1668 1.526 . S
C1666 H1650 0.959 . S
C1666 H1651 0.959 . S
C1666 H1652 0.961 . S
C1666 C1665 1.502 . S
C1667 H1653 0.960 . S
C1667 H1654 0.961 . S
C1667 H1655 0.959 . S
C1667 C1665 1.561 . S
C1668 C1665 1.526 . S
C1668 C1669 1.396 . S
C1668 C1673 1.390 . S
C1669 C1663 1.465 . S
C1669 C1668 1.396 . S
C1669 C1670 1.399 . S
C1670 H1656 0.929 . S
C1670 C1669 1.399 . S
C1670 C1671 1.385 . S
C1671 H1657 0.931 . S
C1671 C1670 1.385 . S
C1671 C1672 1.389 . S
C1672 C1671 1.389 . S
C1672 C1673 1.387 . S
C1673 H1658 0.930 . S
C1673 C1668 1.390 . S
C1673 C1672 1.387 . S
H1674 C1686 0.930 . S
H1675 C1688 0.930 . S
H1676 C1689 0.930 . S
H1677 C1693 0.959 . S
H1678 C1693 0.959 . S
H1679 C1693 0.961 . S
H1680 C1694 0.960 . S
H1681 C1694 0.961 . S
H1682 C1694 0.959 . S
H1683 C1697 0.929 . S
H1684 C1698 0.931 . S
H1685 C1700 0.930 . S
C1686 H1674 0.930 . S
C1686 C1687 1.399 . S
C1686 C1691 1.399 . S
C1687 C1686 1.399 . S
C1687 C1688 1.376 . S
C1688 H1675 0.930 . S
C1688 C1687 1.376 . S
C1688 C1689 1.388 . S
C1689 H1676 0.930 . S
C1689 C1688 1.388 . S
C1689 C1690 1.390 . S
C1690 C1689 1.390 . S
C1690 C1691 1.394 . S
C1690 C1696 1.465 . S
C1691 C1686 1.399 . S
C1691 C1690 1.394 . S
C1691 C1692 1.516 . S
C1692 C1691 1.516 . S
C1692 C1693 1.502 . S
C1692 C1694 1.561 . S
C1692 C1695 1.526 . S
C1693 H1677 0.959 . S
C1693 H1678 0.959 . S
C1693 H1679 0.961 . S
C1693 C1692 1.502 . S
C1694 H1680 0.960 . S
C1694 H1681 0.961 . S
C1694 H1682 0.959 . S
C1694 C1692 1.561 . S
C1695 C1692 1.526 . S
C1695 C1696 1.396 . S
C1695 C1700 1.390 . S
C1696 C1690 1.465 . S
C1696 C1695 1.396 . S
C1696 C1697 1.399 . S
C1697 H1683 0.929 . S
C1697 C1696 1.399 . S
C1697 C1698 1.385 . S
C1698 H1684 0.931 . S
C1698 C1697 1.385 . S
C1698 C1699 1.389 . S
C1699 C1698 1.389 . S
C1699 C1700 1.387 . S
C1700 H1685 0.930 . S
C1700 C1695 1.390 . S
C1700 C1699 1.387 . S
H1701 C1713 0.930 . S
H1702 C1715 0.930 . S
H1703 C1716 0.930 . S
H1704 C1720 0.959 . S
H1705 C1720 0.959 . S
H1706 C1720 0.961 . S
H1707 C1721 0.960 . S
H1708 C1721 0.961 . S
H1709 C1721 0.959 . S
H1710 C1724 0.929 . S
H1711 C1725 0.931 . S
H1712 C1727 0.930 . S
C1713 H1701 0.930 . S
C1713 C1714 1.399 . S
C1713 C1718 1.399 . S
C1714 C1713 1.399 . S
C1714 C1715 1.376 . S
C1715 H1702 0.930 . S
C1715 C1714 1.376 . S
C1715 C1716 1.388 . S
C1716 H1703 0.930 . S
C1716 C1715 1.388 . S
C1716 C1717 1.390 . S
C1717 C1716 1.390 . S
C1717 C1718 1.394 . S
C1717 C1723 1.465 . S
C1718 C1713 1.399 . S
C1718 C1717 1.394 . S
C1718 C1719 1.516 . S
C1719 C1718 1.516 . S
C1719 C1720 1.502 . S
C1719 C1721 1.561 . S
C1719 C1722 1.526 . S
C1720 H1704 0.959 . S
C1720 H1705 0.959 . S
C1720 H1706 0.961 . S
C1720 C1719 1.502 . S
C1721 H1707 0.960 . S
C1721 H1708 0.961 . S
C1721 H1709 0.959 . S
C1721 C1719 1.561 . S
C1722 C1719 1.526 . S
C1722 C1723 1.396 . S
C1722 C1727 1.390 . S
C1723 C1717 1.465 . S
C1723 C1722 1.396 . S
C1723 C1724 1.399 . S
C1724 H1710 0.929 . S
C1724 C1723 1.399 . S
C1724 C1725 1.385 . S
C1725 H1711 0.931 . S
C1725 C1724 1.385 . S
C1725 C1726 1.389 . S
C1726 C1725 1.389 . S
C1726 C1727 1.387 . S
C1727 H1712 0.930 . S
C1727 C1722 1.390 . S
C1727 C1726 1.387 . S
C457 C257 0.977 . S
C445 N6 0.946 . S
C484 C262 1.876 . S
C472 C57 1.890 . S
C511 C263 1.302 . S
C499 C61 1.349 . S
C526 N96 0.495 . S
C538 C267 0.522 . S
C553 C136 1.870 . S
C565 C270 1.848 . S
C592 C271 1.336 . S
C580 C160 1.364 . S
C607 N194 0.475 . S
C619 C248 0.468 . S
C634 N224 0.842 . S
C646 C264 0.940 . S
C673 C302 1.827 . S
C661 C10 1.847 . S
C688 N36 0.940 . S
C700 C328 0.784 . S
C727 C280 0.668 . S
C715 N74 0.510 . S
C754 C335 1.338 . S
C742 C100 1.327 . S
C769 C121 1.340 . S
C781 C289 1.348 . S
C808 C331 1.723 . S
C796 C177 1.806 . S
C823 C196 2.212 . S
C835 C295 2.133 . S
C850 C226 1.855 . S
C862 C326 1.856 . S
C877 C27 1.855 . S
C889 C334 1.836 . S
C904 N134 0.929 . S
C916 C321 0.789 . S
C943 C299 0.587 . S
C931 N156 0.709 . S
C970 C327 1.343 . S
C958 C181 1.344 . S
C985 C211 1.869 . S
C997 C294 1.809 . S
C1012 C76 1.803 . S
C1024 C312 1.774 . S
C1051 C303 2.170 . S
C1039 C117 2.212 . S
C1066 C40 1.340 . S
C1078 C296 1.304 . S
C1093 N216 0.800 . S
C1105 C358 0.965 . S
C1120 C147 1.867 . S
C1132 C353 1.795 . S
C1159 C367 1.323 . S
C1147 C151 1.321 . S
C1186 C344 0.436 . S
C1174 N186 0.514 . S
C1201 C46 1.844 . S
C1213 C360 1.849 . S
C1240 C359 1.272 . S
C1228 C70 1.323 . S
C1255 N104 0.630 . S
C1267 C363 0.435 . S
C1282 N14 0.959 . S
C1294 C366 0.816 . S
C1309 C220 1.843 . S
C1321 C392 1.836 . S
C1348 C408 0.900 . S
C1336 N126 0.954 . S
C1363 N164 0.478 . S
C1375 C390 0.516 . S
C1390 C190 1.355 . S
C1402 C423 1.333 . S
C1429 C399 1.355 . S
C1417 C31 1.359 . S
C1444 C87 1.827 . S
C1456 C417 1.746 . S
C1483 C395 2.156 . S
C1471 C106 2.183 . S
C1510 C430 1.863 . S
C1498 C16 1.876 . S
C1537 C422 1.841 . S
C1525 C237 1.920 . S
C1552 N44 0.940 . S
C1564 C427 0.915 . S
C1579 N66 0.498 . S
C1591 C398 0.509 . S
C1618 C431 1.280 . S
C1606 C91 1.391 . S
C1633 C1 1.865 . S
C1645 C385 1.851 . S
C1660 C166 1.826 . S
C1672 C424 1.765 . S
C1699 C376 2.183 . S
C1687 C207 2.212 . S
C1726 C391 1.358 . S
C1714 C130 1.367 . S
