# Generated by pormake.
# Topology zzz, (3,6)-cn, num edge types: 1
# Building blocks:
#     Node 0, Type 0, BuildingBlock: OLANEW_clean_sbu_2, # of connection points: 3
#     Node 1, Type 0, BuildingBlock: OLANEW_clean_sbu_2, # of connection points: 3
#     Node 2, Type 0, BuildingBlock: OLANEW_clean_sbu_2, # of connection points: 3
#     Node 3, Type 0, BuildingBlock: OLANEW_clean_sbu_2, # of connection points: 3
#     Node 4, Type 0, BuildingBlock: OLANEW_clean_sbu_2, # of connection points: 3
#     Node 5, Type 0, BuildingBlock: OLANEW_clean_sbu_2, # of connection points: 3
#     Node 6, Type 0, BuildingBlock: OLANEW_clean_sbu_2, # of connection points: 3
#     Node 7, Type 0, BuildingBlock: OLANEW_clean_sbu_2, # of connection points: 3
#     Node 8, Type 1, BuildingBlock: GEDQOX_clean_sbu_0, # of connection points: 6
#     Node 9, Type 1, BuildingBlock: GEDQOX_clean_sbu_0, # of connection points: 6
#     Node 10, Type 1, BuildingBlock: GEDQOX_clean_sbu_0, # of connection points: 6
#     Node 11, Type 1, BuildingBlock: GEDQOX_clean_sbu_0, # of connection points: 6
#     Edge 12, Type (0, 1), BuildingBlock: ZUJKAS_clean_linker_0, # of connection points: 2
#     Edge 13, Type (0, 1), BuildingBlock: ZUJKAS_clean_linker_0, # of connection points: 2
#     Edge 14, Type (0, 1), BuildingBlock: ZUJKAS_clean_linker_0, # of connection points: 2
#     Edge 15, Type (0, 1), BuildingBlock: ZUJKAS_clean_linker_0, # of connection points: 2
#     Edge 16, Type (0, 1), BuildingBlock: ZUJKAS_clean_linker_0, # of connection points: 2
#     Edge 17, Type (0, 1), BuildingBlock: ZUJKAS_clean_linker_0, # of connection points: 2
#     Edge 18, Type (0, 1), BuildingBlock: ZUJKAS_clean_linker_0, # of connection points: 2
#     Edge 19, Type (0, 1), BuildingBlock: ZUJKAS_clean_linker_0, # of connection points: 2
#     Edge 20, Type (0, 1), BuildingBlock: ZUJKAS_clean_linker_0, # of connection points: 2
#     Edge 21, Type (0, 1), BuildingBlock: ZUJKAS_clean_linker_0, # of connection points: 2
#     Edge 22, Type (0, 1), BuildingBlock: ZUJKAS_clean_linker_0, # of connection points: 2
#     Edge 23, Type (0, 1), BuildingBlock: ZUJKAS_clean_linker_0, # of connection points: 2
#     Edge 24, Type (0, 1), BuildingBlock: ZUJKAS_clean_linker_0, # of connection points: 2
#     Edge 25, Type (0, 1), BuildingBlock: ZUJKAS_clean_linker_0, # of connection points: 2
#     Edge 26, Type (0, 1), BuildingBlock: ZUJKAS_clean_linker_0, # of connection points: 2
#     Edge 27, Type (0, 1), BuildingBlock: ZUJKAS_clean_linker_0, # of connection points: 2
#     Edge 28, Type (0, 1), BuildingBlock: ZUJKAS_clean_linker_0, # of connection points: 2
#     Edge 29, Type (0, 1), BuildingBlock: ZUJKAS_clean_linker_0, # of connection points: 2
#     Edge 30, Type (0, 1), BuildingBlock: ZUJKAS_clean_linker_0, # of connection points: 2
#     Edge 31, Type (0, 1), BuildingBlock: ZUJKAS_clean_linker_0, # of connection points: 2
#     Edge 32, Type (0, 1), BuildingBlock: ZUJKAS_clean_linker_0, # of connection points: 2
#     Edge 33, Type (0, 1), BuildingBlock: ZUJKAS_clean_linker_0, # of connection points: 2
#     Edge 34, Type (0, 1), BuildingBlock: ZUJKAS_clean_linker_0, # of connection points: 2
#     Edge 35, Type (0, 1), BuildingBlock: ZUJKAS_clean_linker_0, # of connection points: 2
# Relax obj value: 0.142
# Max RMSD: 0.213
# Mean RMSD: 0.108
data_MOF--net-zzz--node1-OLANEW_clean_sbu_2--node2-GEDQOX_clean_sbu_0--edge1-ZUJKAS_clean_linker_0
_symmetry_space_group_name_H-M    P1
_symmetry_Int_Tables_number       1
_symmetry_cell_setting            triclinic
loop_
_symmetry_equiv_pos_as_xyz
'x, y, z'
_cell_length_a     73.795374
_cell_length_b     71.353771
_cell_length_c     23.247273
_cell_angle_alpha  82.982922
_cell_angle_beta   90.216105
_cell_angle_gamma 100.34316
loop_
_atom_site_label
_atom_site_type_symbol
_atom_site_fract_x
_atom_site_fract_y
_atom_site_fract_z
_atom_type_partial_charge
O0 O 0.76679 0.42722 0.90472 0.0
Cd1 Cd 0.73482 0.41318 0.93293 0.0
O2 O 0.77205 0.4305 0.99615 0.0
Cd3 Cd 0.78962 0.43993 0.06706 0.0
O4 O 0.80841 0.45079 0.13311 0.0
C5 C 0.82366 0.46169 0.11809 0.0
O6 O 0.82786 0.46621 0.06265 0.0
C7 C 0.77803 0.43192 0.94426 0.0
C8 C 0.70843 0.43645 0.90826 0.0
O9 O 0.71713 0.43643 0.95612 0.0
O10 O 0.71263 0.42591 0.87131 0.0
O11 O 0.93409 0.76285 0.97929 0.0
Cd12 Cd 0.92076 0.73055 0.0238 0.0
O13 O 0.93213 0.77104 0.06645 0.0
Cd14 Cd 0.93671 0.79044 0.13337 0.0
O15 O 0.94116 0.81046 0.19826 0.0
C16 C 0.93854 0.82758 0.18533 0.0
O17 O 0.93309 0.83288 0.13297 0.0
C18 C 0.93648 0.77577 0.01302 0.0
C19 C 0.93712 0.70177 0.98649 0.0
O20 O 0.92259 0.70629 0.96242 0.0
O21 O 0.94405 0.71105 0.02761 0.0
O22 O 0.73809 0.96382 0.85733 0.0
Cd23 Cd 0.7621 0.94653 0.89573 0.0
O24 O 0.72611 0.95494 0.94438 0.0
Cd25 Cd 0.70657 0.95384 0.01581 0.0
O26 O 0.68812 0.95318 0.08942 0.0
C27 C 0.67322 0.94102 0.09712 0.0
O28 O 0.6688 0.92864 0.05967 0.0
C29 C 0.72511 0.96348 0.8934 0.0
C30 C 0.79802 0.96658 0.87723 0.0
O31 O 0.79086 0.95454 0.84317 0.0
O32 O 0.78806 0.96942 0.91924 0.0
O33 O 0.62981 0.79441 0.14984 0.0
Cd34 Cd 0.64244 0.82322 0.19407 0.0
O35 O 0.62489 0.78016 0.23864 0.0
Cd36 Cd 0.61324 0.75611 0.30279 0.0
O37 O 0.60219 0.72912 0.35538 0.0
C38 C 0.60805 0.72539 0.40617 0.0
O39 O 0.62067 0.73816 0.42683 0.0
C40 C 0.6238 0.77937 0.18434 0.0
C41 C 0.62065 0.85111 0.16834 0.0
O42 O 0.63496 0.851 0.13742 0.0
O43 O 0.61677 0.83818 0.21199 0.0
O44 O 0.25364 0.5944 0.71115 0.0
Cd45 Cd 0.28353 0.60515 0.66114 0.0
O46 O 0.2467 0.57904 0.63586 0.0
Cd47 Cd 0.22741 0.56349 0.57886 0.0
O48 O 0.20686 0.54961 0.52244 0.0
C49 C 0.21021 0.55116 0.46832 0.0
O50 O 0.22612 0.56097 0.44767 0.0
C51 C 0.24186 0.58376 0.68377 0.0
C52 C 0.31319 0.58895 0.70544 0.0
O53 O 0.31072 0.6053 0.71823 0.0
O54 O 0.30132 0.58 0.67334 0.0
O55 O 0.11322 0.267 0.70225 0.0
Cd56 Cd 0.12894 0.29989 0.67292 0.0
O57 O 0.11055 0.2624 0.61075 0.0
Cd58 Cd 0.10434 0.24404 0.54158 0.0
O59 O 0.10066 0.22362 0.47765 0.0
C60 C 0.08753 0.20929 0.48425 0.0
O61 O 0.07613 0.20737 0.52867 0.0
C62 C 0.10776 0.25604 0.66413 0.0
C63 C 0.10741 0.32694 0.6924 0.0
O64 O 0.11798 0.32099 0.73172 0.0
O65 O 0.10695 0.31999 0.64398 0.0
O66 O 0.2767 0.94436 0.70222 0.0
Cd67 Cd 0.24702 0.93491 0.65742 0.0
O68 O 0.28624 0.96251 0.62115 0.0
Cd69 Cd 0.30686 0.98285 0.56648 0.0
O70 O 0.33055 0.99916 0.51517 0.0
C71 C 0.32853 0.00616 0.4631 0.0
O72 O 0.31196 0.00383 0.44117 0.0
C73 C 0.28952 0.95558 0.67242 0.0
C74 C 0.21957 0.95418 0.68836 0.0
O75 O 0.22224 0.93866 0.71854 0.0
O76 O 0.23014 0.96076 0.6441 0.0
O77 O 0.39987 0.23713 0.49197 0.0
Cd78 Cd 0.385 0.20505 0.47439 0.0
O79 O 0.39761 0.24904 0.40109 0.0
Cd80 Cd 0.40408 0.27235 0.32991 0.0
O81 O 0.41327 0.29776 0.26777 0.0
C82 C 0.42657 0.31039 0.28086 0.0
O83 O 0.43445 0.30768 0.33124 0.0
C84 C 0.40269 0.25134 0.45248 0.0
C85 C 0.40591 0.17839 0.52216 0.0
O86 O 0.40794 0.18545 0.46867 0.0
O87 O 0.39383 0.18377 0.55276 0.0
Nd88 Nd 0.01222 0.01697 0.78163 0.0
Nd89 Nd 0.03002 0.015 0.89924 0.0
C90 C 0.98985 0.01241 0.69335 0.0
C91 C 0.98433 0.99705 0.65688 0.0
C92 C 0.96998 0.9981 0.61773 0.0
C93 C 0.96487 0.98362 0.58228 0.0
C94 C 0.97407 0.96786 0.58544 0.0
C95 C 0.98833 0.96683 0.62542 0.0
C96 C 0.99339 0.98129 0.66088 0.0
C97 C 0.04908 0.01524 0.77851 0.0
C98 C 0.01234 0.97472 0.85825 0.0
C99 C 0.05137 0.01938 0.99017 0.0
C100 C 0.05692 0.03472 0.02689 0.0
C101 C 0.0555 0.05376 0.00693 0.0
C102 C 0.05976 0.0681 0.04325 0.0
C103 C 0.06527 0.06359 0.10047 0.0
C104 C 0.06679 0.0445 0.12017 0.0
C105 C 0.06268 0.03019 0.08357 0.0
C106 C 0.99303 0.0159 0.90128 0.0
C107 C 0.0304 0.05708 0.82109 0.0
O108 O 0.98425 0.00847 0.74751 0.0
O109 O 0.00704 0.02112 0.68753 0.0
O110 O 0.04115 0.02544 0.7395 0.0
O111 O 0.03751 0.00561 0.81531 0.0
O112 O 0.00416 0.98494 0.81828 0.0
O113 O 0.02542 0.98298 0.89057 0.0
O114 O 0.05765 0.02276 0.93661 0.0
O115 O 0.034 0.01132 0.99421 0.0
O116 O 0.00094 0.00546 0.93956 0.0
O117 O 0.00467 0.02605 0.86568 0.0
O118 O 0.03877 0.04681 0.86039 0.0
O119 O 0.01686 0.04886 0.79043 0.0
H120 H 0.96277 0.01013 0.61447 0.0
H121 H 0.95365 0.98471 0.55264 0.0
H122 H 0.99586 0.95505 0.62853 0.0
H123 H 0.00451 0.98027 0.69106 0.0
H124 H 0.05077 0.05748 0.96365 0.0
H125 H 0.05821 0.08261 0.0271 0.0
H126 H 0.07113 0.04063 0.16391 0.0
H127 H 0.06373 0.01554 0.0998 0.0
Nd128 Nd 0.51529 0.99416 0.76373 0.0
Nd129 Nd 0.5156 0.02198 0.85394 0.0
C130 C 0.52038 0.96841 0.69554 0.0
C131 C 0.53535 0.96241 0.66485 0.0
C132 C 0.53304 0.94365 0.65041 0.0
C133 C 0.54566 0.93857 0.6131 0.0
C134 C 0.56075 0.95225 0.58918 0.0
C135 C 0.56354 0.97077 0.60654 0.0
C136 C 0.55098 0.97578 0.64416 0.0
C137 C 0.50154 0.02663 0.72655 0.0
C138 C 0.55468 0.02103 0.78957 0.0
C139 C 0.51452 0.04998 0.91762 0.0
C140 C 0.50116 0.05192 0.96226 0.0
C141 C 0.50582 0.06489 0.00291 0.0
C142 C 0.49314 0.06602 0.04653 0.0
C143 C 0.47559 0.05423 0.04979 0.0
C144 C 0.47104 0.04133 0.00867 0.0
C145 C 0.48371 0.04015 0.96552 0.0
C146 C 0.51682 0.98482 0.8995 0.0
C147 C 0.47737 0.99408 0.82983 0.0
O148 O 0.51943 0.96463 0.75215 0.0
O149 O 0.51692 0.98541 0.67668 0.0
O150 O 0.49438 0.0097 0.71396 0.0
O151 O 0.51573 0.02616 0.75681 0.0
O152 O 0.54566 0.00839 0.75788 0.0
O153 O 0.54638 0.02855 0.82904 0.0
O154 O 0.5082 0.05006 0.86489 0.0
O155 O 0.52435 0.03658 0.93113 0.0
O156 O 0.50724 0.99568 0.92245 0.0
O157 O 0.52544 0.99384 0.85498 0.0
O158 O 0.48482 0.01148 0.84097 0.0
O159 O 0.48749 0.98262 0.81025 0.0
H160 H 0.52108 0.93313 0.66614 0.0
H161 H 0.5433 0.92407 0.60171 0.0
H162 H 0.57486 0.98175 0.58874 0.0
H163 H 0.55303 0.99036 0.65482 0.0
H164 H 0.51929 0.07401 0.00118 0.0
H165 H 0.49701 0.07613 0.07752 0.0
H166 H 0.45781 0.03178 0.01062 0.0
H167 H 0.47993 0.02985 0.93502 0.0
Nd168 Nd 0.50992 0.5281 0.87651 0.0
Nd169 Nd 0.51511 0.50387 0.77027 0.0
C170 C 0.49889 0.55208 0.94041 0.0
C171 C 0.5081 0.57042 0.95812 0.0
C172 C 0.50032 0.57864 0.00152 0.0
C173 C 0.50946 0.59585 0.01934 0.0
C174 C 0.52656 0.60507 0.99403 0.0
C175 C 0.53418 0.59679 0.95009 0.0
C176 C 0.52505 0.57961 0.93242 0.0
C177 C 0.54494 0.51903 0.87348 0.0
C178 C 0.53177 0.54903 0.75655 0.0
C179 C 0.52282 0.47944 0.70134 0.0
C180 C 0.51295 0.46241 0.67719 0.0
C181 C 0.52171 0.4467 0.6739 0.0
C182 C 0.51253 0.43037 0.65135 0.0
C183 C 0.49439 0.4295 0.63138 0.0
C184 C 0.48568 0.44535 0.6347 0.0
C185 C 0.49483 0.4616 0.65765 0.0
C186 C 0.48403 0.52001 0.76992 0.0
C187 C 0.49561 0.48161 0.89533 0.0
O188 O 0.49553 0.55229 0.88486 0.0
O189 O 0.50551 0.53695 0.96263 0.0
O190 O 0.53959 0.52811 0.91364 0.0
O191 O 0.53188 0.51572 0.83977 0.0
O192 O 0.52031 0.55054 0.79873 0.0
O193 O 0.5349 0.53222 0.74455 0.0
O194 O 0.52566 0.4774 0.75722 0.0
O195 O 0.51805 0.49589 0.68239 0.0
O196 O 0.49236 0.51763 0.72295 0.0
O197 O 0.49119 0.51246 0.81401 0.0
O198 O 0.5026 0.48034 0.84366 0.0
O199 O 0.4955 0.49819 0.91541 0.0
H200 H 0.48727 0.57166 0.02196 0.0
H201 H 0.50332 0.60173 0.05371 0.0
H202 H 0.54716 0.60364 0.92906 0.0
H203 H 0.53127 0.57343 0.89881 0.0
H204 H 0.53565 0.44702 0.68909 0.0
H205 H 0.51955 0.41833 0.65044 0.0
H206 H 0.47183 0.4453 0.61909 0.0
H207 H 0.48773 0.47353 0.65999 0.0
Nd208 Nd 0.00708 0.52089 0.75557 0.0
Nd209 Nd 0.01307 0.49692 0.86799 0.0
C210 C 0.99423 0.54233 0.66957 0.0
C211 C 0.97917 0.53826 0.62898 0.0
C212 C 0.97655 0.55208 0.58304 0.0
C213 C 0.96279 0.54774 0.54265 0.0
C214 C 0.95144 0.52949 0.54775 0.0
C215 C 0.95401 0.51579 0.59453 0.0
C216 C 0.96778 0.52013 0.63467 0.0
C217 C 0.01789 0.48683 0.74211 0.0
C218 C 0.97204 0.4906 0.82248 0.0
C219 C 0.02583 0.47531 0.95382 0.0
C220 C 0.04155 0.47859 0.99242 0.0
C221 C 0.04387 0.46458 0.03817 0.0
C222 C 0.05834 0.46814 0.07671 0.0
C223 C 0.07071 0.48579 0.06991 0.0
C224 C 0.06843 0.49966 0.02327 0.0
C225 C 0.05395 0.4961 0.98498 0.0
C226 C 0.00214 0.53098 0.88087 0.0
C227 C 0.048 0.52749 0.80217 0.0
O228 O 0.9893 0.5418 0.72382 0.0
O229 O 0.0081 0.53358 0.66357 0.0
O230 O 0.0233 0.50263 0.70815 0.0
O231 O 0.0063 0.48899 0.77925 0.0
O232 O 0.97763 0.50669 0.78774 0.0
O233 O 0.98389 0.48169 0.85243 0.0
O234 O 0.02988 0.47504 0.89924 0.0
O235 O 0.01291 0.48523 0.96074 0.0
O236 O 0.99641 0.51511 0.91423 0.0
O237 O 0.01393 0.52884 0.84442 0.0
O238 O 0.04249 0.51115 0.83581 0.0
O239 O 0.03606 0.53643 0.77277 0.0
H240 H 0.98527 0.56614 0.57803 0.0
H241 H 0.96104 0.55866 0.50744 0.0
H242 H 0.94573 0.50151 0.59927 0.0
H243 H 0.96975 0.5092 0.6696 0.0
H244 H 0.03438 0.45099 0.04448 0.0
H245 H 0.05984 0.4571 0.11183 0.0
H246 H 0.07752 0.51349 0.01728 0.0
H247 H 0.05225 0.50716 0.95015 0.0
H248 H 0.20898 0.98576 0.62857 0.0
H249 H 0.18205 -0.00021 0.64796 0.0
H250 H 0.16826 0.95795 0.79858 0.0
H251 H 0.1952 0.94391 0.77988 0.0
H252 H 0.14569 0.97957 0.65125 0.0
H253 H 0.16344 0.00867 0.85902 0.0
H254 H 0.18048 0.00265 0.8123 0.0
H255 H 0.16596 0.98409 0.85905 0.0
C256 C 0.20038 0.97971 0.66632 0.0
C257 C 0.20422 0.9637 0.70265 0.0
C258 C 0.185 0.98775 0.67729 0.0
C259 C 0.1733 0.98005 0.72505 0.0
C260 C 0.17732 0.96434 0.76214 0.0
H261 H 0.06611 0.99035 0.848 0.0
H262 H 0.097 0.98331 0.8346 0.0
C263 C 0.19266 0.95626 0.75114 0.0
C264 C 0.15606 0.98736 0.73335 0.0
H265 H 0.13215 0.00642 0.83008 0.0
C266 C 0.14279 0.98565 0.69002 0.0
C267 C 0.15232 0.99516 0.78416 0.0
C268 C 0.16636 0.99794 0.83113 0.0
C269 C 0.12562 0.99099 0.69686 0.0
C270 C 0.12178 0.99863 0.74793 0.0
C271 C 0.13515 0.00058 0.79096 0.0
C272 C 0.10369 0.004 0.75817 0.0
C273 C 0.11149 0.98775 0.65027 0.0
C274 C 0.09743 0.01831 0.72051 0.0
C275 C 0.07977 0.02227 0.72786 0.0
C276 C 0.06817 0.01208 0.77327 0.0
C277 C 0.07474 0.99833 0.81238 0.0
C278 C 0.09237 0.99433 0.80487 0.0
H279 H 0.11492 0.9776 0.62112 0.0
H280 H 0.09756 0.98203 0.66959 0.0
H281 H 0.111 0.00161 0.62345 0.0
H282 H 0.10612 0.02622 0.68493 0.0
H283 H 0.07511 0.03308 0.69748 0.0
H284 H 0.40954 0.16618 0.63693 0.0
H285 H 0.4282 0.14316 0.67947 0.0
H286 H 0.44589 0.13568 0.50837 0.0
H287 H 0.42779 0.15917 0.46568 0.0
H288 H 0.42516 0.10655 0.66916 0.0
H289 H 0.49437 0.14308 0.58804 0.0
H290 H 0.47473 0.15501 0.58358 0.0
H291 H 0.47861 0.13995 0.52969 0.0
C292 C 0.41753 0.15975 0.60839 0.0
C293 C 0.41725 0.16453 0.54795 0.0
C294 C 0.42821 0.14662 0.63277 0.0
C295 C 0.43875 0.13796 0.59722 0.0
C296 C 0.43835 0.1426 0.53681 0.0
H297 H 0.47042 0.02838 0.66582 0.0
H298 H 0.45593 0.05627 0.63942 0.0
C299 C 0.42785 0.1559 0.51242 0.0
C300 C 0.44918 0.12316 0.62301 0.0
H301 H 0.49107 0.10924 0.62082 0.0
C302 C 0.43964 0.10728 0.65917 0.0
C303 C 0.46817 0.12426 0.61107 0.0
C304 C 0.4796 0.14161 0.5765 0.0
C305 C 0.44833 0.09209 0.68152 0.0
C306 C 0.46692 0.09252 0.66585 0.0
C307 C 0.47673 0.10879 0.63202 0.0
C308 C 0.47608 0.07579 0.68153 0.0
C309 C 0.43746 0.07573 0.72162 0.0
C310 C 0.49267 0.07767 0.71192 0.0
C311 C 0.5012 0.06174 0.72623 0.0
C312 C 0.4932 0.04375 0.71037 0.0
C313 C 0.47681 0.04204 0.67906 0.0
C314 C 0.46841 0.05792 0.6644 0.0
H315 H 0.42622 0.08048 0.74455 0.0
H316 H 0.431 0.06428 0.69583 0.0
H317 H 0.44641 0.06952 0.75441 0.0
H318 H 0.49893 0.09139 0.72495 0.0
H319 H 0.51396 0.06347 0.74976 0.0
H320 H 0.34592 0.6088 0.73816 0.0
H321 H 0.37471 0.59681 0.75608 0.0
H322 H 0.34684 0.5396 0.73451 0.0
H323 H 0.31824 0.55173 0.71347 0.0
H324 H 0.3868 0.57197 0.83203 0.0
H325 H 0.3872 0.54594 0.61724 0.0
H326 H 0.37079 0.56008 0.6367 0.0
H327 H 0.36714 0.53462 0.6598 0.0
C328 C 0.34591 0.59364 0.7376 0.0
C329 C 0.3299 0.58124 0.72364 0.0
C330 C 0.36238 0.58679 0.74787 0.0
C331 C 0.3631 0.56738 0.74509 0.0
C332 C 0.34681 0.55475 0.73485 0.0
H333 H 0.45833 0.51519 0.85725 0.0
H334 H 0.42902 0.52684 0.8541 0.0
C335 C 0.33043 0.56167 0.72333 0.0
C336 C 0.38101 0.56058 0.75095 0.0
H337 H 0.40973 0.53733 0.68319 0.0
C338 C 0.39186 0.56445 0.79939 0.0
C339 C 0.38781 0.55109 0.70781 0.0
C340 C 0.37772 0.54787 0.6522 0.0
C341 C 0.40923 0.55906 0.80599 0.0
C342 C 0.41566 0.54887 0.76401 0.0
C343 C 0.40479 0.54501 0.71566 0.0
C344 C 0.4338 0.54248 0.76795 0.0
C345 C 0.4207 0.56491 0.8569 0.0
C346 C 0.44612 0.54696 0.72022 0.0
C347 C 0.46255 0.53983 0.72136 0.0
C348 C 0.46715 0.52831 0.77055 0.0
C349 C 0.45514 0.52419 0.81896 0.0
C350 C 0.43846 0.53099 0.81735 0.0
H351 H 0.41661 0.57752 0.87356 0.0
H352 H 0.41858 0.55287 0.89264 0.0
H353 H 0.4356 0.56849 0.84515 0.0
H354 H 0.44289 0.5558 0.68162 0.0
H355 H 0.47163 0.54327 0.68357 0.0
H356 H 0.0851 0.34364 0.61566 0.0
H357 H 0.06837 0.3694 0.62997 0.0
H358 H 0.08779 0.36929 0.80517 0.0
H359 H 0.10481 0.34372 0.79104 0.0
H360 H 0.04095 0.37157 0.71131 0.0
H361 H 0.10453 0.42512 0.73314 0.0
H362 H 0.10492 0.40253 0.7062 0.0
H363 H 0.10252 0.40343 0.78267 0.0
C364 C 0.08578 0.34904 0.65732 0.0
C365 C 0.09643 0.34175 0.70204 0.0
C366 C 0.07617 0.36373 0.66545 0.0
C367 C 0.07707 0.37142 0.71832 0.0
C368 C 0.08721 0.36378 0.76367 0.0
H369 H 0.00937 0.45277 0.81292 0.0
H370 H 0.02298 0.42392 0.80969 0.0
C371 C 0.09686 0.34912 0.75556 0.0
C372 C 0.06779 0.3878 0.72524 0.0
H373 H 0.07618 0.435 0.74702 0.0
C374 C 0.0486 0.38544 0.71932 0.0
C375 C 0.07789 0.40591 0.73505 0.0
C376 C 0.09862 0.40954 0.73916 0.0
C377 C 0.03922 0.40075 0.72279 0.0
C378 C 0.04931 0.41879 0.7332 0.0
C379 C 0.06848 0.4211 0.73943 0.0
C380 C 0.04048 0.43581 0.73472 0.0
C381 C 0.01871 0.39768 0.71357 0.0
C382 C 0.04599 0.45208 0.69419 0.0
C383 C 0.03838 0.46853 0.69624 0.0
C384 C 0.02515 0.46903 0.73898 0.0
C385 C 0.0195 0.4527 0.77935 0.0
C386 C 0.02718 0.43621 0.77737 0.0
H387 H 0.01374 0.38439 0.69347 0.0
H388 H 0.01148 0.39636 0.75605 0.0
H389 H 0.01485 0.41006 0.68558 0.0
H390 H 0.05627 0.45208 0.66103 0.0
H391 H 0.04302 0.48093 0.66466 0.0
H392 H 0.81471 0.99902 0.92104 0.0
H393 H 0.84751 0.01317 0.91627 0.0
H394 H 0.85823 0.96886 0.81704 0.0
H395 H 0.82541 0.95533 0.81914 0.0
H396 H 0.87414 0.9987 0.96173 0.0
H397 H 0.88955 0.01345 0.72711 0.0
H398 H 0.86623 0.00746 0.7555 0.0
H399 H 0.87906 0.9888 0.74535 0.0
C400 C 0.82404 0.99255 0.89723 0.0
C401 C 0.81751 0.97611 0.8703 0.0
C402 C 0.84278 0.00063 0.89454 0.0
C403 C 0.85538 0.9923 0.8655 0.0
C404 C 0.84879 0.97599 0.83804 0.0
H405 H 0.9667 0.98868 0.95824 0.0
H406 H 0.93337 0.98519 0.94862 0.0
C407 C 0.83001 0.96814 0.8397 0.0
C408 C 0.87552 0.99944 0.86879 0.0
H409 H 0.91556 0.0096 0.78878 0.0
C410 C 0.88313 0.00141 0.92368 0.0
C411 C 0.88734 0.00339 0.81925 0.0
C412 C 0.88006 0.00338 0.75851 0.0
C413 C 0.90221 0.00627 0.93069 0.0
C414 C 0.9141 0.00849 0.88175 0.0
C415 C 0.90649 0.00753 0.82651 0.0
C416 C 0.93441 0.01083 0.88737 0.0
C417 C 0.90935 0.00898 0.99061 0.0
C418 C 0.94618 0.02596 0.85432 0.0
C419 C 0.96531 0.02773 0.85884 0.0
C420 C 0.97293 0.01445 0.89672 0.0
C421 C 0.96117 0.99929 0.92941 0.0
C422 C 0.94211 0.99737 0.92425 0.0
H423 H 0.89905 0.01379 0.01746 0.0
H424 H 0.91198 0.99505 0.01263 0.0
H425 H 0.92235 0.01965 0.98896 0.0
H426 H 0.94056 0.0364 0.82513 0.0
H427 H 0.97413 0.03947 0.83287 0.0
H428 H 0.62786 0.8834 0.09004 0.0
H429 H 0.60693 0.90547 0.05844 0.0
H430 H 0.56505 0.87275 0.17769 0.0
H431 H 0.586 0.85072 0.2104 0.0
H432 H 0.55578 0.88003 0.05056 0.0
H433 H 0.58577 0.94547 0.1504 0.0
H434 H 0.60177 0.93323 0.1185 0.0
H435 H 0.58833 0.9216 0.18127 0.0
C436 C 0.61428 0.88103 0.11011 0.0
C437 C 0.60856 0.8653 0.15258 0.0
C438 C 0.60239 0.89369 0.09219 0.0
C439 C 0.58454 0.89074 0.11603 0.0
C440 C 0.57885 0.87528 0.15915 0.0
H441 H 0.50935 0.97072 0.01324 0.0
H442 H 0.52322 0.94597 0.07091 0.0
C443 C 0.59083 0.86274 0.17771 0.0
C444 C 0.57142 0.90292 0.09221 0.0
H445 H 0.56383 0.94902 0.07657 0.0
C446 C 0.55734 0.89505 0.05683 0.0
C447 C 0.57348 0.92242 0.10093 0.0
C448 C 0.58806 0.93126 0.14014 0.0
C449 C 0.54576 0.90648 0.02762 0.0
C450 C 0.54841 0.92621 0.03403 0.0
C451 C 0.56191 0.93387 0.07165 0.0
C452 C 0.53835 0.93948 0.9986 0.0
C453 C 0.53102 0.89753 0.98914 0.0
C454 C 0.54211 0.94374 0.93888 0.0
C455 C 0.53436 0.95791 0.90604 0.0
C456 C 0.52266 0.96799 0.93242 0.0
C457 C 0.51826 0.96311 0.99178 0.0
C458 C 0.5262 0.94905 0.02477 0.0
H459 H 0.52791 0.88164 0.99929 0.0
H460 H 0.51814 0.90328 0.9936 0.0
H461 H 0.53581 0.90108 0.94325 0.0
H462 H 0.55163 0.93664 0.91811 0.0
H463 H 0.53804 0.96145 0.86045 0.0
H464 H 0.69584 0.45942 0.97917 0.0
H465 H 0.66903 0.47515 0.96507 0.0
H466 H 0.65992 0.45425 0.79911 0.0
H467 H 0.6866 0.43829 0.81301 0.0
H468 H 0.66037 0.50283 0.8746 0.0
H469 H 0.61081 0.43374 0.88872 0.0
H470 H 0.63441 0.43514 0.9111 0.0
H471 H 0.629 0.43667 0.83546 0.0
C472 C 0.68823 0.45827 0.93946 0.0
C473 C 0.69327 0.44746 0.89742 0.0
C474 C 0.67292 0.46729 0.93147 0.0
C475 C 0.66233 0.46559 0.88151 0.0
C476 C 0.66772 0.45543 0.83847 0.0
H477 H 0.55731 0.50043 0.79005 0.0
H478 H 0.58647 0.48856 0.78788 0.0
C479 C 0.68303 0.44641 0.84638 0.0
C480 C 0.64535 0.474 0.8754 0.0
H481 H 0.59852 0.4621 0.86895 0.0
C482 C 0.64683 0.49396 0.87325 0.0
C483 C 0.62773 0.46236 0.87356 0.0
C484 C 0.62527 0.44077 0.87779 0.0
C485 C 0.63114 0.50262 0.86909 0.0
C486 C 0.6135 0.49095 0.86823 0.0
C487 C 0.61206 0.47102 0.86953 0.0
C488 C 0.5963 0.49898 0.86803 0.0
C489 C 0.63361 0.5242 0.86501 0.0
C490 C 0.59211 0.50866 0.91395 0.0
C491 C 0.57549 0.51541 0.91525 0.0
C492 C 0.5627 0.51243 0.87094 0.0
C493 C 0.56691 0.50283 0.82487 0.0
C494 C 0.58356 0.49609 0.82354 0.0
H495 H 0.64768 0.53121 0.84924 0.0
H496 H 0.6234 0.52979 0.83556 0.0
H497 H 0.63157 0.52833 0.90869 0.0
H498 H 0.60154 0.51067 0.9494 0.0
H499 H 0.57253 0.52271 0.95138 0.0
H500 H 0.92167 0.67433 0.91984 0.0
H501 H 0.9341 0.64642 0.89775 0.0
H502 H 0.98361 0.66556 0.98939 0.0
H503 H 0.97098 0.69312 0.01346 0.0
H504 H 0.96408 0.64183 0.84004 0.0
H505 H 0.96776 0.61213 0.07075 0.0
H506 H 0.95626 0.63198 0.04823 0.0
H507 H 0.98094 0.63588 0.05438 0.0
C508 C 0.93523 0.67263 0.93513 0.0
C509 C 0.94526 0.68579 0.96901 0.0
C510 C 0.94233 0.65668 0.92242 0.0
C511 C 0.95961 0.65367 0.943 0.0
C512 C 0.97002 0.66729 0.97449 0.0
H513 H 0.01715 0.56687 0.82907 0.0
H514 H 0.00739 0.5972 0.84205 0.0
C515 C 0.96283 0.68309 0.98792 0.0
C516 C 0.96649 0.63604 0.93259 0.0
H517 H 0.98103 0.59655 0.0018 0.0
C518 C 0.96777 0.6319 0.87537 0.0
C519 C 0.97103 0.62295 0.97882 0.0
C520 C 0.96876 0.62582 0.0415 0.0
C521 C 0.97349 0.61504 0.86309 0.0
C522 C 0.97855 0.60225 0.90925 0.0
C523 C 0.9773 0.60644 0.9664 0.0
C524 C 0.98445 0.58402 0.8999 0.0
C525 C 0.97348 0.61084 0.80102 0.0
C526 C 0.97513 0.5666 0.92918 0.0
C527 C 0.98092 0.54939 0.92279 0.0
C528 C 0.99608 0.54924 0.88671 0.0
C529 C 0.00536 0.56661 0.85695 0.0
C530 C -0.00031 0.58391 0.86396 0.0
H531 H 0.96442 0.61902 0.7738 0.0
H532 H 0.98768 0.61512 0.78257 0.0
H533 H 0.96883 0.5953 0.79817 0.0
H534 H 0.96335 0.56632 0.95716 0.0
H535 H 0.97349 0.53617 0.94603 0.0
H536 H 0.11642 0.232 0.75592 0.0
H537 H 0.10222 0.19836 0.78455 0.0
H538 H 0.06415 0.20172 0.64403 0.0
H539 H 0.07861 0.23519 0.61446 0.0
H540 H 0.06705 0.18191 0.81809 0.0
H541 H 0.08577 0.15523 0.61617 0.0
H542 H 0.0949 0.17917 0.63235 0.0
H543 H 0.07217 0.17371 0.60338 0.0
C544 C 0.10508 0.22548 0.73101 0.0
C545 C 0.09891 0.23596 0.68206 0.0
C546 C 0.09698 0.20632 0.74739 0.0
C547 C 0.08245 0.1974 0.71544 0.0
C548 C 0.07578 0.20812 0.66796 0.0
H549 H 0.01666 0.08284 0.7437 0.0
H550 H 0.02847 0.11723 0.72112 0.0
C551 C 0.08405 0.2272 0.65109 0.0
C552 C 0.07417 0.17695 0.73214 0.0
H553 H 0.06507 0.13333 0.68155 0.0
C554 C 0.06668 0.17126 0.78835 0.0
C555 C 0.07372 0.16308 0.69323 0.0
C556 C 0.08224 0.16805 0.63314 0.0
C557 C 0.05851 0.15212 0.80642 0.0
C558 C 0.05799 0.13833 0.7674 0.0
C559 C 0.06543 0.144 0.71122 0.0
C560 C 0.05013 0.11782 0.78415 0.0
C561 C 0.05023 0.14685 0.86675 0.0
C562 C 0.05843 0.10679 0.82709 0.0
C563 C 0.05177 0.08713 0.84002 0.0
C564 C 0.0367 0.07812 0.81012 0.0
C565 C 0.02826 0.0893 0.76767 0.0
C566 C 0.03498 0.10896 0.75466 0.0
H567 H 0.04781 0.15968 0.88614 0.0
H568 H 0.03698 0.13663 0.86644 0.0
H569 H 0.05984 0.13976 0.89494 0.0
H570 H 0.07036 0.11331 0.84956 0.0
H571 H 0.05872 0.07895 0.87251 0.0
H572 H 0.29822 0.96009 0.78461 0.0
H573 H 0.32915 0.96716 0.82518 0.0
H574 H 0.35329 0.96713 0.65655 0.0
H575 H 0.3226 0.95968 0.61634 0.0
H576 H 0.35815 0.94578 0.82472 0.0
H577 H 0.37824 0.01898 0.7067 0.0
H578 H 0.3546 0.00662 0.71387 0.0
H579 H 0.36973 0.00108 0.66044 0.0
C580 C 0.31016 0.96174 0.75626 0.0
C581 C 0.30804 0.96007 0.69688 0.0
C582 C 0.32777 0.96575 0.77942 0.0
C583 C 0.34346 0.96812 0.74351 0.0
C584 C 0.34134 0.96595 0.68458 0.0
H585 H 0.4565 0.96135 0.7979 0.0
H586 H 0.42311 0.95467 0.78726 0.0
C587 C 0.3238 0.96191 0.66151 0.0
C588 C 0.36214 0.97236 0.76747 0.0
H589 H 0.40253 0.00447 0.7501 0.0
C590 C 0.36782 0.95871 0.80903 0.0
C591 C 0.37461 0.98935 0.74746 0.0
C592 C 0.36897 0.00495 0.70507 0.0
C593 C 0.38595 0.96125 0.82921 0.0
C594 C 0.3987 0.97774 0.80668 0.0
C595 C 0.39276 0.99176 0.76704 0.0
C596 C 0.41849 0.98042 0.821 0.0
C597 C 0.39133 0.94622 0.87414 0.0
C598 C 0.42697 0.99706 0.8438 0.0
C599 C 0.44607 0.00099 0.8496 0.0
C600 C 0.45707 0.9884 0.83226 0.0
C601 C 0.44845 0.97131 0.81185 0.0
C602 C 0.42933 0.96741 0.80603 0.0
H603 H 0.37913 0.93783 0.89925 0.0
H604 H 0.39781 0.93607 0.85214 0.0
H605 H 0.40141 0.95283 0.90474 0.0
H606 H 0.41885 0.00731 0.85539 0.0
H607 H 0.45224 0.01427 0.8656 0.0
H608 H 0.43139 0.25829 0.52475 0.0
H609 H 0.44676 0.28939 0.55079 0.0
H610 H 0.41023 0.31778 0.44022 0.0
H611 H 0.39497 0.28669 0.41352 0.0
H612 H 0.44612 0.3366 0.4281 0.0
H613 H 0.42553 0.32015 0.66037 0.0
H614 H 0.4378 0.30293 0.63616 0.0
H615 H 0.41565 0.30535 0.60649 0.0
C616 C 0.42669 0.2712 0.50596 0.0
C617 C 0.41217 0.27017 0.46662 0.0
C618 C 0.43541 0.28892 0.52103 0.0
C619 C 0.42946 0.30586 0.49808 0.0
C620 C 0.41504 0.30487 0.45839 0.0
H621 H 0.45804 0.41275 0.64735 0.0
H622 H 0.44191 0.38392 0.61001 0.0
C623 C 0.40643 0.28715 0.44284 0.0
C624 C 0.43821 0.32458 0.51585 0.0
H625 H 0.44808 0.34821 0.63432 0.0
C626 C 0.44648 0.33921 0.47313 0.0
C627 C 0.43838 0.32804 0.5745 0.0
C628 C 0.4287 0.31336 0.62196 0.0
C629 C 0.45527 0.35711 0.48769 0.0
C630 C 0.45615 0.36026 0.54669 0.0
C631 C 0.44756 0.34573 0.58917 0.0
C632 C 0.46582 0.37848 0.56571 0.0
C633 C 0.46327 0.37253 0.43966 0.0
C634 C 0.48465 0.38502 0.5533 0.0
C635 C 0.49388 0.4017 0.57389 0.0
C636 C 0.48451 0.41204 0.608 0.0
C637 C 0.46564 0.40539 0.6204 0.0
C638 C 0.45641 0.38881 0.59944 0.0
H639 H 0.45675 0.36994 0.39749 0.0
H640 H 0.46152 0.38695 0.4495 0.0
H641 H 0.47822 0.37253 0.43475 0.0
H642 H 0.49231 0.37705 0.52851 0.0
H643 H 0.50836 0.40648 0.563 0.0
H644 H 0.21848 0.54983 0.67735 0.0
H645 H 0.18558 0.5421 0.70233 0.0
H646 H 0.18884 0.59713 0.7644 0.0
H647 H 0.22183 0.60498 0.73914 0.0
H648 H 0.16755 0.56725 0.83618 0.0
H649 H 0.14675 0.56567 0.60706 0.0
H650 H 0.16255 0.54988 0.62939 0.0
H651 H 0.16986 0.57541 0.62718 0.0
C652 C 0.21213 0.56036 0.69569 0.0
C653 C 0.22254 0.57823 0.70469 0.0
C654 C 0.19336 0.5559 0.71016 0.0
C655 C 0.18466 0.56926 0.73371 0.0
C656 C 0.19525 0.58671 0.74564 0.0
H657 H 0.06507 0.56038 0.73606 0.0
H658 H 0.09823 0.57225 0.72301 0.0
C659 C 0.21407 0.59115 0.73135 0.0
C660 C 0.16448 0.56509 0.74495 0.0
H661 H 0.12324 0.55381 0.67889 0.0
C662 C 0.15783 0.56443 0.80179 0.0
C663 C 0.15182 0.56176 0.69982 0.0
C664 C 0.15806 0.56339 0.63734 0.0
C665 C 0.13886 0.5599 0.81502 0.0
C666 C 0.12627 0.55567 0.7703 0.0
C667 C 0.13291 0.55692 0.71321 0.0
C668 C 0.1062 0.54932 0.78179 0.0
C669 C 0.13249 0.55984 0.87665 0.0
C670 C 0.09967 0.5325 0.81918 0.0
C671 C 0.08077 0.52572 0.82685 0.0
C672 C 0.06797 0.53552 0.79681 0.0
C673 C 0.07454 0.5525 0.75991 0.0
C674 C 0.09348 0.5593 0.75236 0.0
H675 H 0.14288 0.56888 0.90106 0.0
H676 H 0.11925 0.56511 0.87807 0.0
H677 H 0.13041 0.54494 0.89908 0.0
H678 H 0.10921 0.52431 0.84129 0.0
H679 H 0.07623 0.51255 0.85543 0.0
H680 H 0.92857 0.80854 0.04815 0.0
H681 H 0.94277 0.84162 0.01396 0.0
H682 H 0.97508 0.82152 0.8881 0.0
H683 H 0.96165 0.78822 0.92479 0.0
H684 H 0.99585 0.84875 0.94222 0.0
H685 H 0.93194 0.87372 0.86874 0.0
H686 H 0.93009 0.86365 0.94344 0.0
H687 H 0.93283 0.84864 0.88828 0.0
C688 C 0.93905 0.81114 0.01432 0.0
C689 C 0.94444 0.79581 0.99044 0.0
C690 C 0.94684 0.83007 0.99382 0.0
C691 C 0.95984 0.83407 0.94802 0.0
C692 C 0.96506 0.81877 0.92344 0.0
H693 H 0.99235 0.95221 0.78497 0.0
H694 H 0.98122 0.91759 0.80143 0.0
C695 C 0.95734 0.79979 0.94427 0.0
C696 C 0.96833 0.85421 0.9272 0.0
H697 H 0.95794 0.89828 0.88172 0.0
C698 C 0.98758 0.85955 0.92833 0.0
C699 C 0.95759 0.86824 0.90802 0.0
C700 C 0.93699 0.86323 0.90141 0.0
C701 C 0.99632 0.87867 0.9129 0.0
C702 C 0.98547 0.89291 0.89748 0.0
C703 C 0.96627 0.88743 0.89429 0.0
C704 C 0.99358 0.91364 0.88565 0.0
C705 C 0.01709 0.88334 0.9129 0.0
C706 C 0.0043 0.92297 0.92738 0.0
C707 C 0.01089 0.94274 0.91776 0.0
C708 C 0.00655 0.95362 0.86672 0.0
C709 C 0.9959 0.94425 0.82484 0.0
C710 C 0.98953 0.92445 0.83417 0.0
H711 H 0.02324 0.87063 0.90631 0.0
H712 H 0.02253 0.89522 0.87854 0.0
H713 H 0.02167 0.88777 0.95553 0.0
H714 H 0.00718 0.91506 0.96816 0.0
H715 H 0.01889 0.94958 0.95111 0.0
H716 H 0.68934 0.95225 0.93065 0.0
H717 H 0.66317 0.96766 0.90251 0.0
H718 H 0.69828 0.01009 0.78459 0.0
H719 H 0.72487 0.99518 0.81493 0.0
H720 H 0.67394 0.02587 0.84884 0.0
H721 H 0.63735 0.96369 0.74826 0.0
H722 H 0.64336 0.95711 0.82186 0.0
H723 H 0.66126 0.96603 0.76787 0.0
C724 C 0.69165 0.96518 0.90009 0.0
C725 C 0.70926 0.97281 0.87616 0.0
C726 C 0.67659 0.97376 0.88313 0.0
C727 C 0.67875 0.98989 0.84102 0.0
C728 C 0.69633 0.99763 0.81711 0.0
H729 H 0.5764 0.01737 0.69848 0.0
H730 H 0.60886 0.01442 0.70204 0.0
C731 C 0.71146 0.98907 0.83427 0.0
C732 C 0.66252 0.99843 0.82184 0.0
H733 H 0.61931 0.98677 0.76957 0.0
C734 C 0.66206 0.01745 0.83073 0.0
C735 C 0.64722 0.98757 0.79706 0.0
C736 C 0.64736 0.96754 0.7826 0.0
C737 C 0.64626 0.02557 0.81822 0.0
C738 C 0.63047 0.01421 0.79734 0.0
C739 C 0.63133 0.99551 0.7859 0.0
C740 C 0.61243 0.02066 0.79064 0.0
C741 C 0.64668 0.04618 0.8277 0.0
C742 C 0.60382 0.02602 0.83833 0.0
C743 C 0.58532 0.02805 0.83601 0.0
C744 C 0.57501 0.0243 0.78642 0.0
C745 C 0.58398 0.02026 0.73739 0.0
C746 C 0.60253 0.01854 0.73941 0.0
H747 H 0.66091 0.0546 0.82268 0.0
H748 H 0.63763 0.05317 0.79699 0.0
H749 H 0.64185 0.04663 0.87257 0.0
H750 H 0.61097 0.0273 0.87881 0.0
H751 H 0.57874 0.03095 0.87472 0.0
H752 H 0.62574 0.74238 0.22704 0.0
H753 H 0.60928 0.71295 0.19315 0.0
H754 H 0.58623 0.74667 0.05453 0.0
H755 H 0.60241 0.77622 0.08908 0.0
H756 H 0.57076 0.70214 0.18239 0.0
H757 H 0.60786 0.70752 0.97188 0.0
H758 H 0.61666 0.72149 0.02896 0.0
H759 H 0.59865 0.72844 0.98352 0.0
C760 C 0.61692 0.74353 0.18997 0.0
C761 C 0.61493 0.76157 0.16163 0.0
C762 C 0.6077 0.72671 0.17026 0.0
C763 C 0.59657 0.72763 0.12129 0.0
C764 C 0.59492 0.74564 0.09201 0.0
H765 H 0.51229 0.63597 0.02072 0.0
H766 H 0.52898 0.66568 0.0525 0.0
C767 C 0.60413 0.76248 0.11181 0.0
C768 C 0.58628 0.70974 0.1021 0.0
H769 H 0.5816 0.68285 0.98933 0.0
C770 C 0.57312 0.6979 0.14021 0.0
C771 C 0.58954 0.70418 0.04728 0.0
C772 C 0.60405 0.71595 0.00562 0.0
C773 C 0.56299 0.6807 0.12473 0.0
C774 C 0.56596 0.67535 0.06941 0.0
C775 C 0.57925 0.68709 0.03152 0.0
C776 C 0.55574 0.65736 0.05054 0.0
C777 C 0.54944 0.66822 0.16809 0.0
C778 C 0.5653 0.64299 0.03807 0.0
C779 C 0.55581 0.62601 0.02003 0.0
C780 C 0.53657 0.62311 0.01372 0.0
C781 C 0.52705 0.63761 0.02602 0.0
C782 C 0.53657 0.6546 0.04411 0.0
H783 H 0.55188 0.67205 0.21273 0.0
H784 H 0.53526 0.67012 0.15609 0.0
H785 H 0.55024 0.65282 0.1681 0.0
H786 H 0.5801 0.64486 0.04281 0.0
H787 H 0.56355 0.61505 0.0117 0.0
H788 H 0.79366 0.45394 0.84663 0.0
H789 H 0.82668 0.46354 0.82214 0.0
H790 H 0.8399 0.43332 0.98451 0.0
H791 H 0.80706 0.42346 0.00869 0.0
H792 H 0.85564 0.48428 0.89525 0.0
H793 H 0.86695 0.41213 0.85305 0.0
H794 H 0.84443 0.41877 0.85069 0.0
H795 H 0.85476 0.41315 0.91916 0.0
C796 C 0.80365 0.44944 0.87711 0.0
C797 C 0.79784 0.43834 0.93014 0.0
C798 C 0.82244 0.45493 0.86313 0.0
C799 C 0.83565 0.44905 0.90146 0.0
C800 C 0.82988 0.43793 0.95431 0.0
H801 H 0.95454 0.46217 0.90393 0.0
H802 H 0.92131 0.45214 0.9211 0.0
C803 C 0.81114 0.43257 0.96846 0.0
C804 C 0.85552 0.4546 0.88654 0.0
H805 H 0.89341 0.43637 0.85374 0.0
C806 C 0.86392 0.47388 0.88575 0.0
C807 C 0.86621 0.44091 0.87471 0.0
C808 C 0.85769 0.42008 0.87395 0.0
C809 C 0.8829 0.4798 0.87457 0.0
C810 C 0.89363 0.46612 0.86237 0.0
C811 C 0.88516 0.44683 0.86294 0.0
C812 C 0.91372 0.47151 0.84977 0.0
C813 C 0.89136 0.50053 0.87776 0.0
C814 C 0.92047 0.48531 0.80295 0.0
C815 C 0.93943 0.49115 0.79322 0.0
C816 C 0.95202 0.4831 0.8297 0.0
C817 C 0.94522 0.46867 0.87505 0.0
C818 C 0.92623 0.46294 0.88499 0.0
H819 H 0.88247 0.50775 0.9029 0.0
H820 H 0.90511 0.50177 0.89803 0.0
H821 H 0.89311 0.50833 0.83326 0.0
H822 H 0.91107 0.49174 0.77425 0.0
H823 H 0.94418 0.50216 0.75751 0.0
H824 H 0.10628 0.21067 0.38193 0.0
H825 H 0.10257 0.18641 0.31483 0.0
H826 H 0.06068 0.15049 0.42788 0.0
H827 H 0.06392 0.17482 0.4943 0.0
H828 H 0.10772 0.14943 0.3318 0.0
H829 H 0.03509 0.15143 0.27412 0.0
H830 H 0.04876 0.16949 0.31198 0.0
H831 H 0.03817 0.1468 0.35078 0.0
C832 C 0.09618 0.19766 0.39232 0.0
C833 C 0.0853 0.19474 0.44327 0.0
C834 C 0.0941 0.1838 0.35396 0.0
C835 C 0.08112 0.16679 0.36581 0.0
C836 C 0.07044 0.16372 0.41706 0.0
H837 H 0.05328 0.06109 0.2126 0.0
H838 H 0.05798 0.08632 0.27665 0.0
C839 C 0.0724 0.17761 0.45519 0.0
C840 C 0.07911 0.152 0.32541 0.0
H841 H 0.04773 0.12541 0.2454 0.0
C842 C 0.09464 0.1443 0.31254 0.0
C843 C 0.06204 0.14535 0.30016 0.0
C844 C 0.04511 0.15382 0.30945 0.0
C845 C 0.09344 0.1298 0.27619 0.0
C846 C 0.07631 0.12292 0.25205 0.0
C847 C 0.06082 0.13069 0.26443 0.0
C848 C 0.07414 0.10758 0.21387 0.0
C849 C 0.11037 0.12163 0.26465 0.0
C850 C 0.08166 0.11128 0.15745 0.0
C851 C 0.07896 0.09693 0.12072 0.0
C852 C 0.06876 0.07863 0.13999 0.0
C853 C 0.0614 0.07496 0.19681 0.0
C854 C 0.06398 0.08936 0.2333 0.0
H855 H 0.12185 0.12638 0.29361 0.0
H856 H 0.10711 0.1057 0.27042 0.0
H857 H 0.1151 0.12639 0.21908 0.0
H858 H 0.08941 0.12533 0.14162 0.0
H859 H 0.08487 0.10013 0.07729 0.0
H860 H 0.36464 0.0135 0.49504 0.0
H861 H 0.39159 0.02712 0.43262 0.0
H862 H 0.35622 0.03338 0.28605 0.0
H863 H 0.32923 0.02013 0.34815 0.0
H864 H 0.40239 0.01159 0.34043 0.0
H865 H 0.39037 0.08503 0.26749 0.0
H866 H 0.37811 0.07014 0.32858 0.0
H867 H 0.37087 0.067 0.25579 0.0
C868 C 0.36257 0.01803 0.44968 0.0
C869 C 0.34477 0.0157 0.42655 0.0
C870 C 0.37799 0.02583 0.4141 0.0
C871 C 0.37591 0.03154 0.35485 0.0
C872 C 0.35814 0.02954 0.3319 0.0
H873 H 0.43859 0.05366 0.04053 0.0
H874 H 0.41589 0.05025 0.11918 0.0
C875 C 0.34272 0.0218 0.36743 0.0
C876 C 0.39231 0.03789 0.31592 0.0
H877 H 0.41187 0.07313 0.2101 0.0
C878 C 0.40466 0.0252 0.31265 0.0
C879 C 0.39524 0.05564 0.2797 0.0
C880 C 0.38304 0.07032 0.28342 0.0
C881 C 0.41932 0.02933 0.27217 0.0
C882 C 0.42185 0.04678 0.23454 0.0
C883 C 0.40987 0.05976 0.23901 0.0
C884 C 0.43595 0.05099 0.18733 0.0
C885 C 0.43145 0.01459 0.26809 0.0
C886 C 0.45481 0.05312 0.19953 0.0
C887 C 0.46783 0.05495 0.15463 0.0
C888 C 0.46217 0.0547 0.09683 0.0
C889 C 0.44334 0.05356 0.08469 0.0
C890 C 0.43037 0.05175 0.12951 0.0
H891 H 0.42555 0.00048 0.2927 0.0
H892 H 0.43356 0.01252 0.22218 0.0
H893 H 0.44513 0.0197 0.28616 0.0
H894 H 0.45939 0.05283 0.24389 0.0
H895 H 0.48221 0.05575 0.16541 0.0
H896 H 0.45342 0.34086 0.2981 0.0
H897 H 0.46427 0.36972 0.23045 0.0
H898 H 0.42579 0.34827 0.1035 0.0
H899 H 0.41468 0.31944 0.17101 0.0
H900 H 0.47986 0.3724 0.11922 0.0
H901 H 0.41535 0.40243 0.11352 0.0
H902 H 0.41952 0.3836 0.16849 0.0
H903 H 0.41256 0.3781 0.09739 0.0
C904 C 0.44722 0.34228 0.25584 0.0
C905 C 0.43314 0.32787 0.23999 0.0
C906 C 0.45345 0.35878 0.21726 0.0
C907 C 0.44568 0.36122 0.16229 0.0
C908 C 0.43173 0.34682 0.14613 0.0
H909 H 0.49307 0.44451 0.87146 0.0
H910 H 0.48067 0.41502 0.93454 0.0
C911 C 0.42547 0.33032 0.18469 0.0
C912 C 0.45243 0.3787 0.12154 0.0
H913 H 0.43919 0.41816 0.04719 0.0
C914 C 0.47099 0.38242 0.10342 0.0
C915 C 0.44084 0.3918 0.10152 0.0
C916 C 0.42099 0.38894 0.12153 0.0
C917 C 0.47826 0.39888 0.06547 0.0
C918 C 0.46658 0.41178 0.04453 0.0
C919 C 0.44805 0.40812 0.06292 0.0
C920 C 0.4735 0.42957 0.00525 0.0
C921 C 0.49848 0.40254 0.04917 0.0
C922 C 0.47309 0.44751 0.02349 0.0
C923 C 0.48006 0.46439 0.98752 0.0
C924 C 0.48752 0.46367 0.93238 0.0
C925 C 0.48754 0.44563 0.91374 0.0
C926 C 0.48054 0.42874 0.94983 0.0
H927 H 0.50632 0.39376 0.07915 0.0
H928 H 0.5001 0.39877 0.0048 0.0
H929 H 0.50462 0.41793 0.04926 0.0
H930 H 0.46763 0.44844 0.06605 0.0
H931 H 0.47975 0.478 0.00331 0.0
H932 H 0.17587 0.53027 0.49679 0.0
H933 H 0.15254 0.51665 0.43105 0.0
H934 H 0.18929 0.53911 0.28522 0.0
H935 H 0.21278 0.55254 0.35055 0.0
H936 H 0.13621 0.53642 0.34135 0.0
H937 H 0.17245 0.48329 0.25786 0.0
H938 H 0.17969 0.49447 0.32178 0.0
H939 H 0.18569 0.50718 0.25084 0.0
C940 C 0.17906 0.53218 0.45078 0.0
C941 C 0.19622 0.54245 0.42892 0.0
C942 C 0.16571 0.52438 0.4133 0.0
C943 C 0.16929 0.52661 0.35339 0.0
C944 C 0.18639 0.53685 0.33144 0.0
H945 H 0.10646 0.50375 0.04783 0.0
H946 H 0.13012 0.51288 0.11837 0.0
C947 C 0.19976 0.54463 0.36885 0.0
C948 C 0.15481 0.51912 0.31353 0.0
H949 H 0.14552 0.48964 0.20781 0.0
C950 C 0.13817 0.52605 0.31252 0.0
C951 C 0.15744 0.50564 0.2759 0.0
C952 C 0.17471 0.49705 0.27687 0.0
C953 C 0.12425 0.52026 0.27379 0.0
C954 C 0.12696 0.50694 0.23574 0.0
C955 C 0.14352 0.49986 0.23706 0.0
C956 C 0.11286 0.50053 0.1934 0.0
C957 C 0.10698 0.52886 0.27272 0.0
C958 C 0.09547 0.49021 0.2123 0.0
C959 C 0.0819 0.48506 0.17217 0.0
C960 C 0.08551 0.49008 0.11236 0.0
C961 C 0.10316 0.49992 0.0936 0.0
C962 C 0.11672 0.50504 0.13378 0.0
H963 H 0.10881 0.54197 0.29501 0.0
H964 H 0.10275 0.53257 0.22747 0.0
H965 H 0.09562 0.5182 0.29522 0.0
H966 H 0.09233 0.48635 0.25816 0.0
H967 H 0.06843 0.47761 0.18808 0.0
H968 H 0.9366 0.86574 0.1688 0.0
H969 H 0.94219 0.88871 0.23957 0.0
H970 H 0.95273 0.84379 0.37019 0.0
H971 H 0.9475 0.82075 0.29944 0.0
H972 H 0.92417 0.88852 0.34374 0.0
H973 H 0.99809 0.88528 0.37874 0.0
H974 H 0.98552 0.87555 0.31913 0.0
H975 H 0.983 0.86239 0.39055 0.0
C976 C 0.94016 0.86073 0.21253 0.0
C977 C 0.94171 0.84143 0.2284 0.0
C978 C 0.94334 0.87388 0.25292 0.0
C979 C 0.94815 0.86802 0.30985 0.0
C980 C 0.94943 0.84871 0.32612 0.0
H981 H 0.97171 0.92894 0.61162 0.0
H982 H 0.96469 0.90437 0.54598 0.0
C983 C 0.94634 0.83554 0.2857 0.0
C984 C 0.95155 0.88209 0.3523 0.0
H985 H 0.98427 0.90309 0.4402 0.0
C986 C 0.93732 0.89174 0.36476 0.0
C987 C 0.96872 0.88624 0.37966 0.0
C988 C 0.98478 0.87697 0.36606 0.0
C989 C 0.93975 0.90534 0.40424 0.0
C990 C 0.95692 0.90952 0.43138 0.0
C991 C 0.9711 0.89977 0.41937 0.0
C992 C 0.96064 0.92434 0.47132 0.0
C993 C 0.92387 0.91496 0.41715 0.0
C994 C 0.96081 0.94369 0.45083 0.0
C995 C 0.96497 0.95777 0.488 0.0
C996 C 0.96909 0.95277 0.54641 0.0
C997 C 0.96882 0.93332 0.56677 0.0
C998 C 0.96472 0.91925 0.52946 0.0
H999 H 0.91051 0.90693 0.40387 0.0
H1000 H 0.92304 0.91635 0.46408 0.0
H1001 H 0.92603 0.9296 0.3929 0.0
H1002 H 0.95805 0.94793 0.40577 0.0
H1003 H 0.96539 0.97264 0.47059 0.0
H1004 H 0.64054 0.91687 0.12739 0.0
H1005 H 0.62056 0.91677 0.21137 0.0
H1006 H 0.65863 0.96432 0.2658 0.0
H1007 H 0.67857 0.96457 0.18218 0.0
H1008 H 0.62738 0.91205 0.32894 0.0
H1009 H 0.61018 0.98393 0.26245 0.0
H1010 H 0.62067 0.9711 0.21335 0.0
H1011 H 0.63454 0.98428 0.26408 0.0
C1012 C 0.64461 0.92734 0.15714 0.0
C1013 C 0.66108 0.94081 0.14783 0.0
C1014 C 0.63318 0.92727 0.20507 0.0
C1015 C 0.63791 0.94083 0.24406 0.0
C1016 C 0.65448 0.95405 0.23542 0.0
H1017 H 0.59811 0.96401 0.57128 0.0
H1018 H 0.61657 0.95979 0.48808 0.0
C1019 C 0.66592 0.9541 0.18772 0.0
C1020 C 0.62573 0.9411 0.29436 0.0
H1021 H 0.60293 0.97046 0.36063 0.0
C1022 C 0.62189 0.92475 0.33565 0.0
C1023 C 0.61844 0.95764 0.30272 0.0
C1024 C 0.62099 0.97516 0.25801 0.0
C1025 C 0.61149 0.92477 0.38613 0.0
C1026 C 0.60485 0.94154 0.39533 0.0
C1027 C 0.60832 0.95773 0.35359 0.0
C1028 C 0.59407 0.9426 0.44785 0.0
C1029 C 0.60792 0.90707 0.43002 0.0
C1030 C 0.57539 0.9342 0.45265 0.0
C1031 C 0.56473 0.9368 0.49959 0.0
C1032 C 0.57259 0.94781 0.54276 0.0
C1033 C 0.59153 0.95567 0.53854 0.0
C1034 C 0.60213 0.95319 0.49128 0.0
H1035 H 0.61545 0.89579 0.41903 0.0
H1036 H 0.61205 0.91087 0.47372 0.0
H1037 H 0.59294 0.90108 0.43221 0.0
H1038 H 0.56892 0.92616 0.41908 0.0
H1039 H 0.55016 0.93082 0.50067 0.0
H1040 H 0.61625 0.71358 0.51809 0.0
H1041 H 0.60415 0.68292 0.57594 0.0
H1042 H 0.57172 0.66452 0.43157 0.0
H1043 H 0.58349 0.69523 0.37367 0.0
H1044 H 0.55188 0.65789 0.5338 0.0
H1045 H 0.61754 0.63057 0.56245 0.0
H1046 H 0.61848 0.65396 0.58461 0.0
H1047 H 0.61501 0.65065 0.50964 0.0
C1048 C 0.6066 0.70299 0.49853 0.0
C1049 C 0.60087 0.70683 0.44123 0.0
C1050 C 0.5998 0.68543 0.53154 0.0
C1051 C 0.58729 0.67134 0.50768 0.0
C1052 C 0.58146 0.67517 0.45064 0.0
H1053 H 0.55263 0.55228 0.65729 0.0
H1054 H 0.56616 0.58183 0.59599 0.0
C1055 C 0.5882 0.69273 0.41766 0.0
C1056 C 0.57973 0.65289 0.54286 0.0
H1057 H 0.5919 0.61339 0.62044 0.0
C1058 C 0.56061 0.64811 0.55253 0.0
C1059 C 0.59115 0.64005 0.56651 0.0
C1060 C 0.61166 0.64393 0.55489 0.0
C1061 C 0.55261 0.631 0.58629 0.0
C1062 C 0.5641 0.61854 0.61195 0.0
C1063 C 0.58317 0.62309 0.60122 0.0
C1064 C 0.55652 0.60074 0.65017 0.0
C1065 C 0.53191 0.62631 0.59358 0.0
C1066 C 0.547 0.60165 0.70155 0.0
C1067 C 0.5392 0.58485 0.7365 0.0
C1068 C 0.54093 0.56679 0.72098 0.0
C1069 C 0.551 0.56595 0.6704 0.0
C1070 C 0.55874 0.5828 0.63532 0.0
H1071 H 0.52498 0.63443 0.55895 0.0
H1072 H 0.52673 0.61073 0.59311 0.0
H1073 H 0.52794 0.63028 0.63585 0.0
H1074 H 0.54551 0.61538 0.71448 0.0
H1075 H 0.53173 0.58605 0.7755 0.0
H1076 H 0.85749 0.48484 0.10061 0.0
H1077 H 0.87874 0.49702 0.17413 0.0
H1078 H 0.84009 0.46815 0.30901 0.0
H1079 H 0.81884 0.45571 0.236 0.0
H1080 H 0.87304 0.52005 0.26027 0.0
H1081 H 0.88802 0.44945 0.35667 0.0
H1082 H 0.87717 0.45278 0.28735 0.0
H1083 H 0.86394 0.45069 0.35332 0.0
C1084 C 0.85352 0.48102 0.14592 0.0
C1085 C 0.83651 0.4692 0.16244 0.0
C1086 C 0.86567 0.48803 0.18783 0.0
C1087 C 0.8611 0.48326 0.24698 0.0
C1088 C 0.84404 0.47169 0.26362 0.0
H1089 H 0.91637 0.50903 0.56548 0.0
H1090 H 0.8941 0.49882 0.49216 0.0
C1091 C 0.83188 0.46467 0.22178 0.0
C1092 C 0.87408 0.49057 0.29128 0.0
H1093 H 0.8995 0.4762 0.40588 0.0
C1094 C 0.8789 0.51049 0.29201 0.0
C1095 C 0.88166 0.47804 0.33259 0.0
C1096 C 0.8776 0.45656 0.33234 0.0
C1097 C 0.89087 0.51822 0.33368 0.0
C1098 C 0.89843 0.50568 0.37503 0.0
C1099 C 0.89361 0.48577 0.37425 0.0
C1100 C 0.91156 0.51285 0.41916 0.0
C1101 C 0.89504 0.5397 0.33383 0.0
C1102 C 0.92875 0.52412 0.40237 0.0
C1103 C 0.94153 0.52991 0.44414 0.0
C1104 C 0.9374 0.52442 0.50351 0.0
C1105 C 0.92006 0.51332 0.52012 0.0
C1106 C 0.90729 0.50755 0.47833 0.0
H1107 H 0.8846 0.54684 0.30972 0.0
H1108 H 0.8956 0.5435 0.37881 0.0
H1109 H 0.90867 0.54549 0.31256 0.0
H1110 H 0.93248 0.52802 0.3569 0.0
H1111 H 0.95487 0.53817 0.42984 0.0
loop_
_geom_bond_atom_site_label_1
_geom_bond_atom_site_label_2
_geom_bond_distance
_geom_bond_site_symmetry_2
_ccdc_geom_bond_type
O0 Cd1 2.300 . S
O0 C7 1.275 . S
Cd1 O0 2.300 . S
Cd1 O9 2.381 . S
Cd1 O10 2.378 1_556 S
O2 Cd3 2.385 . S
O2 C7 1.255 1_554 S
Cd3 O2 2.385 . S
Cd3 O4 2.317 . S
O4 Cd3 2.317 . S
O4 C5 1.232 . S
C5 O4 1.232 . S
C5 O6 1.218 . S
O6 C5 1.218 . S
C7 O0 1.275 . S
C7 O2 1.255 1_556 S
C8 O9 1.258 . S
C8 O10 1.256 1_556 S
O9 Cd1 2.381 . S
O9 C8 1.258 . S
O10 Cd1 2.378 1_554 S
O10 C8 1.256 1_554 S
O11 Cd12 2.300 1_556 S
O11 C18 1.275 . S
Cd12 O11 2.300 1_554 S
Cd12 O20 2.381 1_554 S
Cd12 O21 2.378 . S
O13 Cd14 2.385 . S
O13 C18 1.255 1_554 S
Cd14 O13 2.385 . S
Cd14 O15 2.317 . S
O15 Cd14 2.317 . S
O15 C16 1.232 . S
C16 O15 1.232 . S
C16 O17 1.218 . S
O17 C16 1.218 . S
C18 O11 1.275 . S
C18 O13 1.255 1_556 S
C19 O20 1.258 1_554 S
C19 O21 1.256 . S
O20 Cd12 2.381 1_556 S
O20 C19 1.258 1_556 S
O21 Cd12 2.378 . S
O21 C19 1.256 . S
O22 Cd23 2.300 . S
O22 C29 1.275 . S
Cd23 O22 2.300 . S
Cd23 O31 2.381 . S
Cd23 O32 2.378 . S
O24 Cd25 2.385 1_566 S
O24 C29 1.255 . S
Cd25 O24 2.385 1_544 S
Cd25 O26 2.317 1_545 S
O26 Cd25 2.317 1_565 S
O26 C27 1.232 . S
C27 O26 1.232 . S
C27 O28 1.218 . S
O28 C27 1.218 . S
C29 O22 1.275 . S
C29 O24 1.255 . S
C30 O31 1.258 . S
C30 O32 1.256 . S
O31 Cd23 2.381 . S
O31 C30 1.258 . S
O32 Cd23 2.378 . S
O32 C30 1.256 . S
O33 Cd34 2.300 . S
O33 C40 1.275 . S
Cd34 O33 2.300 . S
Cd34 O42 2.381 . S
Cd34 O43 2.378 . S
O35 Cd36 2.385 . S
O35 C40 1.255 . S
Cd36 O35 2.385 . S
Cd36 O37 2.317 . S
O37 Cd36 2.317 . S
O37 C38 1.232 . S
C38 O37 1.232 . S
C38 O39 1.218 . S
O39 C38 1.218 . S
C40 O33 1.275 . S
C40 O35 1.255 . S
C41 O42 1.258 . S
C41 O43 1.256 . S
O42 Cd34 2.381 . S
O42 C41 1.258 . S
O43 Cd34 2.378 . S
O43 C41 1.256 . S
O44 Cd45 2.300 . S
O44 C51 1.275 . S
Cd45 O44 2.300 . S
Cd45 O53 2.381 . S
Cd45 O54 2.378 . S
O46 Cd47 2.385 . S
O46 C51 1.255 . S
Cd47 O46 2.385 . S
Cd47 O48 2.317 . S
O48 Cd47 2.317 . S
O48 C49 1.232 . S
C49 O48 1.232 . S
C49 O50 1.218 . S
O50 C49 1.218 . S
C51 O44 1.275 . S
C51 O46 1.255 . S
C52 O53 1.258 . S
C52 O54 1.256 . S
O53 Cd45 2.381 . S
O53 C52 1.258 . S
O54 Cd45 2.378 . S
O54 C52 1.256 . S
O55 Cd56 2.300 . S
O55 C62 1.275 . S
Cd56 O55 2.300 . S
Cd56 O64 2.381 . S
Cd56 O65 2.378 . S
O57 Cd58 2.385 . S
O57 C62 1.255 . S
Cd58 O57 2.385 . S
Cd58 O59 2.317 . S
O59 Cd58 2.317 . S
O59 C60 1.232 . S
C60 O59 1.232 . S
C60 O61 1.218 . S
O61 C60 1.218 . S
C62 O55 1.275 . S
C62 O57 1.255 . S
C63 O64 1.258 . S
C63 O65 1.256 . S
O64 Cd56 2.381 . S
O64 C63 1.258 . S
O65 Cd56 2.378 . S
O65 C63 1.256 . S
O66 Cd67 2.300 . S
O66 C73 1.275 . S
Cd67 O66 2.300 . S
Cd67 O75 2.381 . S
Cd67 O76 2.378 . S
O68 Cd69 2.385 . S
O68 C73 1.255 . S
Cd69 O68 2.385 . S
Cd69 O70 2.317 . S
O70 Cd69 2.317 . S
O70 C71 1.232 . S
C71 O70 1.232 . S
C71 O72 1.218 . S
O72 C71 1.218 . S
C73 O66 1.275 . S
C73 O68 1.255 . S
C74 O75 1.258 . S
C74 O76 1.256 . S
O75 Cd67 2.381 . S
O75 C74 1.258 . S
O76 Cd67 2.378 . S
O76 C74 1.256 . S
O77 Cd78 2.300 . S
O77 C84 1.275 . S
Cd78 O77 2.300 . S
Cd78 O86 2.381 . S
Cd78 O87 2.378 . S
O79 Cd80 2.385 . S
O79 C84 1.255 . S
Cd80 O79 2.385 . S
Cd80 O81 2.317 . S
O81 Cd80 2.317 . S
O81 C82 1.232 . S
C82 O81 1.232 . S
C82 O83 1.218 . S
O83 C82 1.218 . S
C84 O77 1.275 . S
C84 O79 1.255 . S
C85 O86 1.258 . S
C85 O87 1.256 . S
O86 Cd78 2.381 . S
O86 C85 1.258 . S
O87 Cd78 2.378 . S
O87 C85 1.256 . S
Nd88 C90 2.831 1_445 S
Nd88 O108 2.500 1_445 S
Nd88 O109 2.492 1_545 S
Nd88 O110 2.487 . S
Nd88 O111 2.682 . S
Nd88 O112 2.410 1_545 S
Nd88 O117 2.414 1_455 S
Nd88 O119 2.424 . S
Nd89 C99 2.836 . S
Nd89 O111 2.414 . S
Nd89 O113 2.424 1_545 S
Nd89 O114 2.500 . S
Nd89 O115 2.492 . S
Nd89 O116 2.487 1_455 S
Nd89 O117 2.682 1_455 S
Nd89 O118 2.410 . S
C90 Nd88 2.831 1_665 S
C90 C91 1.503 . S
C90 O108 1.277 . S
C90 O109 1.216 1_655 S
C91 C90 1.503 . S
C91 C92 1.366 . S
C91 C96 1.407 1_655 S
C92 C91 1.366 . S
C92 C93 1.392 . S
C92 H120 0.930 . S
C93 C92 1.392 . S
C93 C94 1.398 . S
C93 H121 0.929 . S
C94 C93 1.398 . S
C94 C95 1.352 . S
C95 C94 1.352 . S
C95 C96 1.384 1_655 S
C95 H122 0.930 1_655 S
C96 C91 1.407 1_455 S
C96 C95 1.384 1_455 S
C96 H123 0.929 . S
C97 O110 1.241 . S
C97 O111 1.273 . S
C98 O112 1.251 . S
C98 O113 1.268 . S
C99 Nd89 2.836 . S
C99 C100 1.498 . S
C99 O114 1.258 . S
C99 O115 1.239 . S
C100 C99 1.498 . S
C100 C101 1.366 . S
C100 C105 1.407 1_556 S
C101 C100 1.366 . S
C101 C102 1.392 1_556 S
C101 H124 0.930 . S
C102 C101 1.392 1_554 S
C102 C103 1.398 . S
C102 H125 0.929 . S
C103 C102 1.398 . S
C103 C104 1.352 . S
C104 C103 1.352 . S
C104 C105 1.384 . S
C104 H126 0.930 . S
C105 C100 1.407 1_554 S
C105 C104 1.384 . S
C105 H127 0.929 . S
C106 O116 1.241 . S
C106 O117 1.273 . S
C107 O118 1.251 . S
C107 O119 1.268 . S
O108 Nd88 2.500 1_665 S
O108 C90 1.277 . S
O109 Nd88 2.492 1_565 S
O109 C90 1.216 1_455 S
O110 Nd88 2.487 . S
O110 C97 1.241 . S
O111 Nd88 2.682 . S
O111 Nd89 2.414 . S
O111 C97 1.273 . S
O112 Nd88 2.410 1_565 S
O112 C98 1.251 . S
O113 Nd89 2.424 1_565 S
O113 C98 1.268 . S
O114 Nd89 2.500 . S
O114 C99 1.258 . S
O115 Nd89 2.492 . S
O115 C99 1.239 . S
O116 Nd89 2.487 1_655 S
O116 C106 1.241 . S
O117 Nd88 2.414 1_655 S
O117 Nd89 2.682 1_655 S
O117 C106 1.273 . S
O118 Nd89 2.410 . S
O118 C107 1.251 . S
O119 Nd88 2.424 . S
O119 C107 1.268 . S
H120 C92 0.930 . S
H121 C93 0.929 . S
H122 C95 0.930 1_455 S
H123 C96 0.929 . S
H124 C101 0.930 . S
H125 C102 0.929 . S
H126 C104 0.930 . S
H127 C105 0.929 . S
Nd128 C130 2.836 1_545 S
Nd128 O148 2.500 1_545 S
Nd128 O149 2.492 . S
Nd128 O150 2.487 . S
Nd128 O151 2.682 . S
Nd128 O152 2.410 . S
Nd128 O157 2.414 1_545 S
Nd128 O159 2.431 1_545 S
Nd129 C139 2.836 . S
Nd129 O151 2.414 . S
Nd129 O153 2.424 . S
Nd129 O154 2.500 . S
Nd129 O155 2.492 . S
Nd129 O156 2.487 1_545 S
Nd129 O157 2.682 1_545 S
Nd129 O158 2.410 . S
C130 Nd128 2.836 1_565 S
C130 C131 1.498 . S
C130 O148 1.258 . S
C130 O149 1.239 1_565 S
C131 C130 1.498 . S
C131 C132 1.366 . S
C131 C136 1.424 . S
C132 C131 1.366 . S
C132 C133 1.392 . S
C132 H160 0.930 . S
C133 C132 1.392 . S
C133 C134 1.398 . S
C133 H161 0.929 . S
C134 C133 1.398 . S
C134 C135 1.352 . S
C135 C134 1.352 . S
C135 C136 1.404 . S
C135 H162 0.930 1_565 S
C136 C131 1.424 . S
C136 C135 1.404 . S
C136 H163 0.894 1_565 S
C137 O150 1.241 . S
C137 O151 1.273 . S
C138 O152 1.251 . S
C138 O153 1.268 . S
C139 Nd129 2.836 . S
C139 C140 1.498 . S
C139 O154 1.258 . S
C139 O155 1.239 . S
C140 C139 1.498 . S
C140 C141 1.366 . S
C140 C145 1.407 1_556 S
C141 C140 1.366 . S
C141 C142 1.392 1_556 S
C141 H164 0.930 . S
C142 C141 1.392 1_554 S
C142 C143 1.398 . S
C142 H165 0.929 1_554 S
C143 C142 1.398 . S
C143 C144 1.352 . S
C144 C143 1.352 . S
C144 C145 1.384 . S
C144 H166 0.930 . S
C145 C140 1.407 1_554 S
C145 C144 1.384 . S
C145 H167 0.929 . S
C146 O156 1.241 . S
C146 O157 1.273 . S
C147 O158 1.251 . S
C147 O159 1.256 1_545 S
O148 Nd128 2.500 1_565 S
O148 C130 1.258 . S
O149 Nd128 2.492 . S
O149 C130 1.239 1_545 S
O150 Nd128 2.487 . S
O150 C137 1.241 . S
O151 Nd128 2.682 . S
O151 Nd129 2.414 . S
O151 C137 1.273 . S
O152 Nd128 2.410 . S
O152 C138 1.251 . S
O153 Nd129 2.424 . S
O153 C138 1.268 . S
O154 Nd129 2.500 . S
O154 C139 1.258 . S
O155 Nd129 2.492 . S
O155 C139 1.239 . S
O156 Nd129 2.487 1_565 S
O156 C146 1.241 . S
O157 Nd128 2.414 1_565 S
O157 Nd129 2.682 1_565 S
O157 C146 1.273 . S
O158 Nd129 2.410 . S
O158 C147 1.251 . S
O159 Nd128 2.431 1_565 S
O159 C147 1.256 1_565 S
H160 C132 0.930 . S
H161 C133 0.929 . S
H162 C135 0.930 1_545 S
H163 C136 0.894 1_545 S
H164 C141 0.930 . S
H165 C142 0.929 1_556 S
H166 C144 0.930 . S
H167 C145 0.929 . S
Nd168 C170 2.836 . S
Nd168 O188 2.500 . S
Nd168 O189 2.492 . S
Nd168 O190 2.487 . S
Nd168 O191 2.682 . S
Nd168 O192 2.410 . S
Nd168 O197 2.414 . S
Nd168 O199 2.424 . S
Nd169 C179 2.836 . S
Nd169 O191 2.414 . S
Nd169 O193 2.424 . S
Nd169 O194 2.500 . S
Nd169 O195 2.492 . S
Nd169 O196 2.487 . S
Nd169 O197 2.682 . S
Nd169 O198 2.410 . S
C170 Nd168 2.836 . S
C170 C171 1.498 . S
C170 O188 1.258 . S
C170 O189 1.239 . S
C171 C170 1.498 . S
C171 C172 1.366 . S
C171 C176 1.407 . S
C172 C171 1.366 . S
C172 C173 1.392 . S
C172 H200 0.930 . S
C173 C172 1.392 . S
C173 C174 1.398 . S
C173 H201 0.929 . S
C174 C173 1.398 . S
C174 C175 1.352 . S
C175 C174 1.352 . S
C175 C176 1.384 . S
C175 H202 0.930 1_556 S
C176 C171 1.407 . S
C176 C175 1.384 . S
C176 H203 0.929 . S
C177 O190 1.241 . S
C177 O191 1.273 . S
C178 O192 1.251 . S
C178 O193 1.268 . S
C179 Nd169 2.836 . S
C179 C180 1.498 . S
C179 O194 1.258 . S
C179 O195 1.239 . S
C180 C179 1.498 . S
C180 C181 1.366 . S
C180 C185 1.407 . S
C181 C180 1.366 . S
C181 C182 1.392 . S
C181 H204 0.930 . S
C182 C181 1.392 . S
C182 C183 1.398 . S
C182 H205 0.929 . S
C183 C182 1.398 . S
C183 C184 1.352 . S
C184 C183 1.352 . S
C184 C185 1.384 . S
C184 H206 0.930 . S
C185 C180 1.407 . S
C185 C184 1.384 . S
C185 H207 0.929 . S
C186 O196 1.241 . S
C186 O197 1.273 . S
C187 O198 1.251 . S
C187 O199 1.268 . S
O188 Nd168 2.500 . S
O188 C170 1.258 . S
O189 Nd168 2.492 . S
O189 C170 1.239 . S
O190 Nd168 2.487 . S
O190 C177 1.241 . S
O191 Nd168 2.682 . S
O191 Nd169 2.414 . S
O191 C177 1.273 . S
O192 Nd168 2.410 . S
O192 C178 1.251 . S
O193 Nd169 2.424 . S
O193 C178 1.268 . S
O194 Nd169 2.500 . S
O194 C179 1.258 . S
O195 Nd169 2.492 . S
O195 C179 1.239 . S
O196 Nd169 2.487 . S
O196 C186 1.241 . S
O197 Nd168 2.414 . S
O197 Nd169 2.682 . S
O197 C186 1.273 . S
O198 Nd169 2.410 . S
O198 C187 1.251 . S
O199 Nd168 2.424 . S
O199 C187 1.268 . S
H200 C172 0.930 . S
H201 C173 0.929 . S
H202 C175 0.930 1_554 S
H203 C176 0.929 . S
H204 C181 0.930 . S
H205 C182 0.929 . S
H206 C184 0.930 . S
H207 C185 0.929 . S
Nd208 C210 2.836 1_455 S
Nd208 O228 2.500 1_455 S
Nd208 O229 2.492 1_455 S
Nd208 O230 2.487 . S
Nd208 O231 2.682 . S
Nd208 O232 2.410 1_455 S
Nd208 O237 2.414 . S
Nd208 O239 2.424 . S
Nd209 C219 2.836 . S
Nd209 O231 2.414 . S
Nd209 O233 2.424 1_455 S
Nd209 O234 2.500 . S
Nd209 O235 2.492 . S
Nd209 O236 2.487 . S
Nd209 O237 2.682 . S
Nd209 O238 2.410 . S
C210 Nd208 2.836 1_655 S
C210 C211 1.498 . S
C210 O228 1.258 . S
C210 O229 1.239 . S
C211 C210 1.498 . S
C211 C212 1.366 . S
C211 C216 1.407 . S
C212 C211 1.366 . S
C212 C213 1.392 . S
C212 H240 0.930 . S
C213 C212 1.392 . S
C213 C214 1.398 . S
C213 H241 0.929 . S
C214 C213 1.398 . S
C214 C215 1.352 . S
C215 C214 1.352 . S
C215 C216 1.384 . S
C215 H242 0.930 . S
C216 C211 1.407 . S
C216 C215 1.384 . S
C216 H243 0.929 . S
C217 O230 1.241 . S
C217 O231 1.273 . S
C218 O232 1.251 . S
C218 O233 1.268 . S
C219 Nd209 2.836 . S
C219 C220 1.496 1_556 S
C219 O234 1.258 . S
C219 O235 1.239 . S
C220 C219 1.496 1_554 S
C220 C221 1.366 1_554 S
C220 C225 1.410 . S
C221 C220 1.366 1_556 S
C221 C222 1.392 1_556 S
C221 H244 0.930 . S
C222 C221 1.392 1_554 S
C222 C223 1.398 . S
C222 H245 0.929 . S
C223 C222 1.398 . S
C223 C224 1.352 . S
C224 C223 1.352 . S
C224 C225 1.384 . S
C224 H246 0.930 . S
C225 C220 1.410 . S
C225 C224 1.384 . S
C225 H247 0.929 . S
C226 O236 1.241 . S
C226 O237 1.273 . S
C227 O238 1.251 . S
C227 O239 1.268 . S
O228 Nd208 2.500 1_655 S
O228 C210 1.258 . S
O229 Nd208 2.492 1_655 S
O229 C210 1.239 . S
O230 Nd208 2.487 . S
O230 C217 1.241 . S
O231 Nd208 2.682 . S
O231 Nd209 2.414 . S
O231 C217 1.273 . S
O232 Nd208 2.410 1_655 S
O232 C218 1.251 . S
O233 Nd209 2.424 1_655 S
O233 C218 1.268 . S
O234 Nd209 2.500 . S
O234 C219 1.258 . S
O235 Nd209 2.492 . S
O235 C219 1.239 . S
O236 Nd209 2.487 . S
O236 C226 1.241 . S
O237 Nd208 2.414 . S
O237 Nd209 2.682 . S
O237 C226 1.273 . S
O238 Nd209 2.410 . S
O238 C227 1.251 . S
O239 Nd208 2.424 . S
O239 C227 1.268 . S
H240 C212 0.930 . S
H241 C213 0.929 . S
H242 C215 0.930 . S
H243 C216 0.929 . S
H244 C221 0.930 . S
H245 C222 0.929 . S
H246 C224 0.930 . S
H247 C225 0.929 . S
H248 C256 0.929 . S
H249 C258 0.930 . S
H250 C260 0.930 . S
H251 C263 0.929 . S
H252 C266 0.930 . S
H253 C268 0.960 . S
H254 C268 0.960 . S
H255 C268 0.960 . S
C256 H248 0.929 . S
C256 C257 1.377 . S
C256 C258 1.384 . S
C257 C256 1.377 . S
C257 C263 1.390 . S
C258 H249 0.930 . S
C258 C256 1.384 . S
C258 C259 1.372 . S
C259 C258 1.372 . S
C259 C260 1.400 . S
C259 C264 1.490 . S
C260 H250 0.930 . S
C260 C259 1.400 . S
C260 C263 1.386 . S
H261 C277 0.930 . S
H262 C278 0.928 . S
C263 H251 0.929 . S
C263 C257 1.390 . S
C263 C260 1.386 . S
C264 C259 1.490 . S
C264 C266 1.395 . S
C264 C267 1.403 . S
H265 C271 0.930 . S
C266 H252 0.930 . S
C266 C264 1.395 . S
C266 C269 1.403 . S
C267 C264 1.403 . S
C267 C268 1.524 . S
C267 C271 1.400 . S
C268 H253 0.960 . S
C268 H254 0.960 . S
C268 H255 0.960 . S
C268 C267 1.524 . S
C269 C266 1.403 . S
C269 C270 1.392 . S
C269 C273 1.495 . S
C270 C269 1.392 . S
C270 C271 1.385 . S
C270 C272 1.478 . S
C271 H265 0.930 . S
C271 C267 1.400 . S
C271 C270 1.385 . S
C272 C270 1.478 . S
C272 C274 1.381 . S
C272 C278 1.385 1_545 S
C273 C269 1.495 . S
C273 H279 0.959 . S
C273 H280 0.961 . S
C273 H281 0.960 . S
C274 C272 1.381 . S
C274 C275 1.394 . S
C274 H282 0.930 . S
C275 C274 1.394 . S
C275 C276 1.383 . S
C275 H283 0.929 . S
C276 C275 1.383 . S
C276 C277 1.377 1_545 S
C277 H261 0.930 . S
C277 C276 1.377 1_565 S
C277 C278 1.380 . S
C278 H262 0.928 . S
C278 C272 1.385 1_565 S
C278 C277 1.380 . S
H279 C273 0.959 . S
H280 C273 0.961 . S
H281 C273 0.960 . S
H282 C274 0.930 . S
H283 C275 0.929 . S
H284 C292 0.929 . S
H285 C294 0.930 . S
H286 C296 0.930 . S
H287 C299 0.929 . S
H288 C302 0.930 . S
H289 C304 0.960 . S
H290 C304 0.960 . S
H291 C304 0.960 . S
C292 H284 0.929 . S
C292 C293 1.377 . S
C292 C294 1.384 . S
C293 C292 1.377 . S
C293 C299 1.390 . S
C294 H285 0.930 . S
C294 C292 1.384 . S
C294 C295 1.372 . S
C295 C294 1.372 . S
C295 C296 1.400 . S
C295 C300 1.490 . S
C296 H286 0.930 . S
C296 C295 1.400 . S
C296 C299 1.386 . S
H297 C313 0.930 . S
H298 C314 0.931 . S
C299 H287 0.929 . S
C299 C293 1.390 . S
C299 C296 1.386 . S
C300 C295 1.490 . S
C300 C302 1.395 . S
C300 C303 1.403 . S
H301 C307 0.930 . S
C302 H288 0.930 . S
C302 C300 1.395 . S
C302 C305 1.403 . S
C303 C300 1.403 . S
C303 C304 1.524 . S
C303 C307 1.400 . S
C304 H289 0.960 . S
C304 H290 0.960 . S
C304 H291 0.960 . S
C304 C303 1.524 . S
C305 C302 1.403 . S
C305 C306 1.392 . S
C305 C309 1.495 . S
C306 C305 1.392 . S
C306 C307 1.385 . S
C306 C308 1.478 . S
C307 H301 0.930 . S
C307 C303 1.400 . S
C307 C306 1.385 . S
C308 C306 1.478 . S
C308 C310 1.381 . S
C308 C314 1.383 . S
C309 C305 1.495 . S
C309 H315 0.959 . S
C309 H316 0.961 . S
C309 H317 0.960 . S
C310 C308 1.381 . S
C310 C311 1.394 . S
C310 H318 0.930 . S
C311 C310 1.394 . S
C311 C312 1.383 . S
C311 H319 0.929 . S
C312 C311 1.383 . S
C312 C313 1.377 . S
C313 H297 0.930 . S
C313 C312 1.377 . S
C313 C314 1.379 . S
C314 H298 0.931 . S
C314 C308 1.383 . S
C314 C313 1.379 . S
H315 C309 0.959 . S
H316 C309 0.961 . S
H317 C309 0.960 . S
H318 C310 0.930 . S
H319 C311 0.929 . S
H320 C328 0.929 . S
H321 C330 0.930 . S
H322 C332 0.930 . S
H323 C335 0.929 . S
H324 C338 0.930 . S
H325 C340 0.960 . S
H326 C340 0.960 . S
H327 C340 0.960 . S
C328 H320 0.929 . S
C328 C329 1.377 . S
C328 C330 1.384 . S
C329 C328 1.377 . S
C329 C335 1.390 . S
C330 H321 0.930 . S
C330 C328 1.384 . S
C330 C331 1.372 . S
C331 C330 1.372 . S
C331 C332 1.400 . S
C331 C336 1.490 . S
C332 H322 0.930 . S
C332 C331 1.400 . S
C332 C335 1.386 . S
H333 C349 0.930 . S
H334 C350 0.931 . S
C335 H323 0.929 . S
C335 C329 1.390 . S
C335 C332 1.386 . S
C336 C331 1.490 . S
C336 C338 1.395 . S
C336 C339 1.403 . S
H337 C343 0.930 . S
C338 H324 0.930 . S
C338 C336 1.395 . S
C338 C341 1.403 . S
C339 C336 1.403 . S
C339 C340 1.524 . S
C339 C343 1.400 . S
C340 H325 0.960 . S
C340 H326 0.960 . S
C340 H327 0.960 . S
C340 C339 1.524 . S
C341 C338 1.403 . S
C341 C342 1.392 . S
C341 C345 1.495 . S
C342 C341 1.392 . S
C342 C343 1.385 . S
C342 C344 1.478 . S
C343 H337 0.930 . S
C343 C339 1.400 . S
C343 C342 1.385 . S
C344 C342 1.478 . S
C344 C346 1.381 . S
C344 C350 1.383 . S
C345 C341 1.495 . S
C345 H351 0.959 . S
C345 H352 0.961 . S
C345 H353 0.960 . S
C346 C344 1.381 . S
C346 C347 1.394 . S
C346 H354 0.930 . S
C347 C346 1.394 . S
C347 C348 1.383 . S
C347 H355 0.929 . S
C348 C347 1.383 . S
C348 C349 1.377 . S
C349 H333 0.930 . S
C349 C348 1.377 . S
C349 C350 1.379 . S
C350 H334 0.931 . S
C350 C344 1.383 . S
C350 C349 1.379 . S
H351 C345 0.959 . S
H352 C345 0.961 . S
H353 C345 0.960 . S
H354 C346 0.930 . S
H355 C347 0.929 . S
H356 C364 0.929 . S
H357 C366 0.930 . S
H358 C368 0.930 . S
H359 C371 0.929 . S
H360 C374 0.930 . S
H361 C376 0.960 . S
H362 C376 0.960 . S
H363 C376 0.960 . S
C364 H356 0.929 . S
C364 C365 1.377 . S
C364 C366 1.384 . S
C365 C364 1.377 . S
C365 C371 1.390 . S
C366 H357 0.930 . S
C366 C364 1.384 . S
C366 C367 1.372 . S
C367 C366 1.372 . S
C367 C368 1.400 . S
C367 C372 1.490 . S
C368 H358 0.930 . S
C368 C367 1.400 . S
C368 C371 1.386 . S
H369 C385 0.930 . S
H370 C386 0.931 . S
C371 H359 0.929 . S
C371 C365 1.390 . S
C371 C368 1.386 . S
C372 C367 1.490 . S
C372 C374 1.395 . S
C372 C375 1.403 . S
H373 C379 0.930 . S
C374 H360 0.930 . S
C374 C372 1.395 . S
C374 C377 1.403 . S
C375 C372 1.403 . S
C375 C376 1.524 . S
C375 C379 1.400 . S
C376 H361 0.960 . S
C376 H362 0.960 . S
C376 H363 0.960 . S
C376 C375 1.524 . S
C377 C374 1.403 . S
C377 C378 1.392 . S
C377 C381 1.495 . S
C378 C377 1.392 . S
C378 C379 1.385 . S
C378 C380 1.478 . S
C379 H373 0.930 . S
C379 C375 1.400 . S
C379 C378 1.385 . S
C380 C378 1.478 . S
C380 C382 1.381 . S
C380 C386 1.383 . S
C381 C377 1.495 . S
C381 H387 0.959 . S
C381 H388 0.961 . S
C381 H389 0.960 . S
C382 C380 1.381 . S
C382 C383 1.394 . S
C382 H390 0.930 . S
C383 C382 1.394 . S
C383 C384 1.383 . S
C383 H391 0.929 . S
C384 C383 1.383 . S
C384 C385 1.377 . S
C385 H369 0.930 . S
C385 C384 1.377 . S
C385 C386 1.379 . S
C386 H370 0.931 . S
C386 C380 1.383 . S
C386 C385 1.379 . S
H387 C381 0.959 . S
H388 C381 0.961 . S
H389 C381 0.960 . S
H390 C382 0.930 . S
H391 C383 0.929 . S
H392 C400 0.912 1_545 S
H393 C402 0.930 . S
H394 C404 0.930 . S
H395 C407 0.929 . S
H396 C410 0.930 . S
H397 C412 0.960 . S
H398 C412 0.960 . S
H399 C412 0.960 . S
C400 H392 0.912 1_565 S
C400 C401 1.394 . S
C400 C402 1.385 1_565 S
C401 C400 1.394 . S
C401 C407 1.390 . S
C402 H393 0.930 . S
C402 C400 1.385 1_545 S
C402 C403 1.372 1_545 S
C403 C402 1.372 1_565 S
C403 C404 1.400 . S
C403 C408 1.490 . S
C404 H394 0.930 . S
C404 C403 1.400 . S
C404 C407 1.386 . S
H405 C421 0.930 . S
H406 C422 0.931 . S
C407 H395 0.929 . S
C407 C401 1.390 . S
C407 C404 1.386 . S
C408 C403 1.490 . S
C408 C410 1.395 1_565 S
C408 C411 1.403 . S
H409 C415 0.930 . S
C410 H396 0.930 . S
C410 C408 1.395 1_545 S
C410 C413 1.403 . S
C411 C408 1.403 . S
C411 C412 1.524 . S
C411 C415 1.400 . S
C412 H397 0.960 . S
C412 H398 0.960 . S
C412 H399 0.960 . S
C412 C411 1.524 . S
C413 C410 1.403 . S
C413 C414 1.411 . S
C413 C417 1.495 . S
C414 C413 1.411 . S
C414 C415 1.367 1_545 S
C414 C416 1.476 . S
C415 H409 0.930 . S
C415 C411 1.400 . S
C415 C414 1.367 1_565 S
C416 C414 1.476 . S
C416 C418 1.381 . S
C416 C422 1.383 1_545 S
C417 C413 1.495 . S
C417 H423 0.959 . S
C417 H424 0.961 . S
C417 H425 0.960 . S
C418 C416 1.381 . S
C418 C419 1.394 . S
C418 H426 0.930 . S
C419 C418 1.394 . S
C419 C420 1.383 . S
C419 H427 0.929 . S
C420 C419 1.383 . S
C420 C421 1.377 1_545 S
C421 H405 0.930 . S
C421 C420 1.377 1_565 S
C421 C422 1.379 . S
C422 H406 0.931 . S
C422 C416 1.383 1_565 S
C422 C421 1.379 . S
H423 C417 0.959 . S
H424 C417 0.961 . S
H425 C417 0.960 . S
H426 C418 0.930 . S
H427 C419 0.929 . S
H428 C436 0.929 . S
H429 C438 0.930 . S
H430 C440 0.930 . S
H431 C443 0.929 . S
H432 C446 0.930 . S
H433 C448 0.960 . S
H434 C448 0.960 . S
H435 C448 0.960 . S
C436 H428 0.929 . S
C436 C437 1.377 . S
C436 C438 1.384 . S
C437 C436 1.377 . S
C437 C443 1.390 . S
C438 H429 0.930 . S
C438 C436 1.384 . S
C438 C439 1.372 . S
C439 C438 1.372 . S
C439 C440 1.400 . S
C439 C444 1.490 . S
C440 H430 0.930 . S
C440 C439 1.400 . S
C440 C443 1.386 . S
H441 C457 0.930 . S
H442 C458 0.940 . S
C443 H431 0.929 . S
C443 C437 1.390 . S
C443 C440 1.386 . S
C444 C439 1.490 . S
C444 C446 1.395 . S
C444 C447 1.403 . S
H445 C451 0.930 . S
C446 H432 0.930 . S
C446 C444 1.395 . S
C446 C449 1.403 . S
C447 C444 1.403 . S
C447 C448 1.524 . S
C447 C451 1.400 . S
C448 H433 0.960 . S
C448 H434 0.960 . S
C448 H435 0.960 . S
C448 C447 1.524 . S
C449 C446 1.403 . S
C449 C450 1.392 . S
C449 C453 1.495 . S
C450 C449 1.392 . S
C450 C451 1.385 . S
C450 C452 1.478 1_554 S
C451 H445 0.930 . S
C451 C447 1.400 . S
C451 C450 1.385 . S
C452 C450 1.478 1_556 S
C452 C454 1.381 . S
C452 C458 1.379 1_556 S
C453 C449 1.495 . S
C453 H459 0.959 . S
C453 H460 0.961 . S
C453 H461 0.960 1_554 S
C454 C452 1.381 . S
C454 C455 1.394 . S
C454 H462 0.930 . S
C455 C454 1.394 . S
C455 C456 1.383 . S
C455 H463 0.929 . S
C456 C455 1.383 . S
C456 C457 1.377 . S
C457 H441 0.930 . S
C457 C456 1.377 . S
C457 C458 1.374 1_556 S
C458 H442 0.940 . S
C458 C452 1.379 1_554 S
C458 C457 1.374 1_554 S
H459 C453 0.959 . S
H460 C453 0.961 . S
H461 C453 0.960 1_556 S
H462 C454 0.930 . S
H463 C455 0.929 . S
H464 C472 0.929 1_554 S
H465 C474 0.930 . S
H466 C476 0.930 . S
H467 C479 0.929 . S
H468 C482 0.930 . S
H469 C484 0.960 . S
H470 C484 0.960 1_554 S
H471 C484 0.960 . S
C472 H464 0.929 1_556 S
C472 C473 1.377 . S
C472 C474 1.384 . S
C473 C472 1.377 . S
C473 C479 1.390 . S
C474 H465 0.930 . S
C474 C472 1.384 . S
C474 C475 1.372 . S
C475 C474 1.372 . S
C475 C476 1.400 . S
C475 C480 1.490 . S
C476 H466 0.930 . S
C476 C475 1.400 . S
C476 C479 1.386 . S
H477 C493 0.930 . S
H478 C494 0.931 . S
C479 H467 0.929 . S
C479 C473 1.390 . S
C479 C476 1.386 . S
C480 C475 1.490 . S
C480 C482 1.395 . S
C480 C483 1.403 . S
H481 C487 0.930 . S
C482 H468 0.930 . S
C482 C480 1.395 . S
C482 C485 1.403 . S
C483 C480 1.403 . S
C483 C484 1.524 . S
C483 C487 1.400 . S
C484 H469 0.960 . S
C484 H470 0.960 1_556 S
C484 H471 0.960 . S
C484 C483 1.524 . S
C485 C482 1.403 . S
C485 C486 1.392 . S
C485 C489 1.495 . S
C486 C485 1.392 . S
C486 C487 1.385 . S
C486 C488 1.478 . S
C487 H481 0.930 . S
C487 C483 1.400 . S
C487 C486 1.385 . S
C488 C486 1.478 . S
C488 C490 1.381 . S
C488 C494 1.383 . S
C489 C485 1.495 . S
C489 H495 0.959 . S
C489 H496 0.961 . S
C489 H497 0.960 . S
C490 C488 1.381 . S
C490 C491 1.394 . S
C490 H498 0.930 . S
C491 C490 1.394 . S
C491 C492 1.383 . S
C491 H499 0.929 . S
C492 C491 1.383 . S
C492 C493 1.377 . S
C493 H477 0.930 . S
C493 C492 1.377 . S
C493 C494 1.379 . S
C494 H478 0.931 . S
C494 C488 1.383 . S
C494 C493 1.379 . S
H495 C489 0.959 . S
H496 C489 0.961 . S
H497 C489 0.960 . S
H498 C490 0.930 . S
H499 C491 0.929 . S
H500 C508 0.929 . S
H501 C510 0.930 1_554 S
H502 C512 0.930 . S
H503 C515 0.929 . S
H504 C518 0.930 . S
H505 C520 0.960 1_455 S
H506 C520 0.960 1_554 S
H507 C520 0.960 . S
C508 H500 0.929 . S
C508 C509 1.377 1_554 S
C508 C510 1.384 1_554 S
C509 C508 1.377 1_556 S
C509 C515 1.390 . S
C510 H501 0.930 1_556 S
C510 C508 1.384 1_556 S
C510 C511 1.372 . S
C511 C510 1.372 . S
C511 C512 1.400 . S
C511 C516 1.490 . S
C512 H502 0.930 . S
C512 C511 1.400 . S
C512 C515 1.386 . S
H513 C529 0.930 . S
H514 C530 0.931 . S
C515 H503 0.929 . S
C515 C509 1.390 . S
C515 C512 1.386 . S
C516 C511 1.490 . S
C516 C518 1.395 . S
C516 C519 1.403 . S
H517 C523 0.930 . S
C518 H504 0.930 . S
C518 C516 1.395 . S
C518 C521 1.403 . S
C519 C516 1.403 . S
C519 C520 1.524 . S
C519 C523 1.400 . S
C520 H505 0.960 1_655 S
C520 H506 0.960 1_556 S
C520 H507 0.960 . S
C520 C519 1.524 . S
C521 C518 1.403 . S
C521 C522 1.392 . S
C521 C525 1.495 . S
C522 C521 1.392 . S
C522 C523 1.385 . S
C522 C524 1.478 . S
C523 H517 0.930 . S
C523 C519 1.400 . S
C523 C522 1.385 . S
C524 C522 1.478 . S
C524 C526 1.381 . S
C524 C530 1.383 . S
C525 C521 1.495 . S
C525 H531 0.959 . S
C525 H532 0.961 . S
C525 H533 0.960 . S
C526 C524 1.381 . S
C526 C527 1.394 . S
C526 H534 0.930 . S
C527 C526 1.394 . S
C527 C528 1.383 . S
C527 H535 0.929 . S
C528 C527 1.383 . S
C528 C529 1.377 1_655 S
C529 H513 0.930 . S
C529 C528 1.377 1_455 S
C529 C530 1.379 1_455 S
C530 H514 0.931 . S
C530 C524 1.383 . S
C530 C529 1.379 1_655 S
H531 C525 0.959 . S
H532 C525 0.961 . S
H533 C525 0.960 . S
H534 C526 0.930 . S
H535 C527 0.929 . S
H536 C544 0.929 . S
H537 C546 0.930 . S
H538 C548 0.930 . S
H539 C551 0.929 . S
H540 C554 0.930 . S
H541 C556 0.960 . S
H542 C556 0.960 . S
H543 C556 0.960 . S
C544 H536 0.929 . S
C544 C545 1.377 . S
C544 C546 1.384 . S
C545 C544 1.377 . S
C545 C551 1.390 . S
C546 H537 0.930 . S
C546 C544 1.384 . S
C546 C547 1.372 . S
C547 C546 1.372 . S
C547 C548 1.400 . S
C547 C552 1.490 . S
C548 H538 0.930 . S
C548 C547 1.400 . S
C548 C551 1.386 . S
H549 C565 0.930 . S
H550 C566 0.931 . S
C551 H539 0.929 . S
C551 C545 1.390 . S
C551 C548 1.386 . S
C552 C547 1.490 . S
C552 C554 1.395 . S
C552 C555 1.403 . S
H553 C559 0.930 . S
C554 H540 0.930 . S
C554 C552 1.395 . S
C554 C557 1.403 . S
C555 C552 1.403 . S
C555 C556 1.524 . S
C555 C559 1.400 . S
C556 H541 0.960 . S
C556 H542 0.960 . S
C556 H543 0.960 . S
C556 C555 1.524 . S
C557 C554 1.403 . S
C557 C558 1.392 . S
C557 C561 1.495 . S
C558 C557 1.392 . S
C558 C559 1.385 . S
C558 C560 1.478 . S
C559 H553 0.930 . S
C559 C555 1.400 . S
C559 C558 1.385 . S
C560 C558 1.478 . S
C560 C562 1.381 . S
C560 C566 1.383 . S
C561 C557 1.495 . S
C561 H567 0.959 . S
C561 H568 0.961 . S
C561 H569 0.960 . S
C562 C560 1.381 . S
C562 C563 1.394 . S
C562 H570 0.930 . S
C563 C562 1.394 . S
C563 C564 1.383 . S
C563 H571 0.929 . S
C564 C563 1.383 . S
C564 C565 1.377 . S
C565 H549 0.930 . S
C565 C564 1.377 . S
C565 C566 1.379 . S
C566 H550 0.931 . S
C566 C560 1.383 . S
C566 C565 1.379 . S
H567 C561 0.959 . S
H568 C561 0.961 . S
H569 C561 0.960 . S
H570 C562 0.930 . S
H571 C563 0.929 . S
H572 C580 0.929 . S
H573 C582 0.930 . S
H574 C584 0.930 . S
H575 C587 0.929 . S
H576 C590 0.930 1_565 S
H577 C592 0.960 . S
H578 C592 0.960 . S
H579 C592 0.960 . S
C580 H572 0.929 . S
C580 C581 1.377 . S
C580 C582 1.384 . S
C581 C580 1.377 . S
C581 C587 1.390 . S
C582 H573 0.930 . S
C582 C580 1.384 . S
C582 C583 1.372 . S
C583 C582 1.372 . S
C583 C584 1.400 . S
C583 C588 1.490 . S
C584 H574 0.930 . S
C584 C583 1.400 . S
C584 C587 1.386 . S
H585 C601 0.930 . S
H586 C602 0.931 . S
C587 H575 0.929 . S
C587 C581 1.390 . S
C587 C584 1.386 . S
C588 C583 1.490 . S
C588 C590 1.395 . S
C588 C591 1.403 . S
H589 C595 0.930 . S
C590 H576 0.930 1_545 S
C590 C588 1.395 . S
C590 C593 1.403 1_545 S
C591 C588 1.403 . S
C591 C592 1.524 . S
C591 C595 1.400 . S
C592 H577 0.960 . S
C592 H578 0.960 . S
C592 H579 0.960 . S
C592 C591 1.524 . S
C593 C590 1.403 1_565 S
C593 C594 1.392 1_565 S
C593 C597 1.495 . S
C594 C593 1.392 1_545 S
C594 C595 1.385 . S
C594 C596 1.478 . S
C595 H589 0.930 . S
C595 C591 1.400 . S
C595 C594 1.385 . S
C596 C594 1.478 . S
C596 C598 1.368 1_545 S
C596 C602 1.383 . S
C597 C593 1.495 . S
C597 H603 0.959 . S
C597 H604 0.961 . S
C597 H605 0.960 . S
C598 C596 1.368 1_565 S
C598 C599 1.408 . S
C598 H606 0.933 . S
C599 C598 1.408 . S
C599 C600 1.383 1_565 S
C599 H607 0.929 . S
C600 C599 1.383 1_545 S
C600 C601 1.377 . S
C601 H585 0.930 . S
C601 C600 1.377 . S
C601 C602 1.379 . S
C602 H586 0.931 . S
C602 C596 1.383 . S
C602 C601 1.379 . S
H603 C597 0.959 . S
H604 C597 0.961 . S
H605 C597 0.960 . S
H606 C598 0.933 . S
H607 C599 0.929 . S
H608 C616 0.929 . S
H609 C618 0.930 . S
H610 C620 0.930 . S
H611 C623 0.929 . S
H612 C626 0.930 . S
H613 C628 0.960 . S
H614 C628 0.960 . S
H615 C628 0.960 . S
C616 H608 0.929 . S
C616 C617 1.377 . S
C616 C618 1.384 . S
C617 C616 1.377 . S
C617 C623 1.390 . S
C618 H609 0.930 . S
C618 C616 1.384 . S
C618 C619 1.372 . S
C619 C618 1.372 . S
C619 C620 1.400 . S
C619 C624 1.490 . S
C620 H610 0.930 . S
C620 C619 1.400 . S
C620 C623 1.386 . S
H621 C637 0.930 . S
H622 C638 0.931 . S
C623 H611 0.929 . S
C623 C617 1.390 . S
C623 C620 1.386 . S
C624 C619 1.490 . S
C624 C626 1.395 . S
C624 C627 1.403 . S
H625 C631 0.930 . S
C626 H612 0.930 . S
C626 C624 1.395 . S
C626 C629 1.403 . S
C627 C624 1.403 . S
C627 C628 1.524 . S
C627 C631 1.400 . S
C628 H613 0.960 . S
C628 H614 0.960 . S
C628 H615 0.960 . S
C628 C627 1.524 . S
C629 C626 1.403 . S
C629 C630 1.392 . S
C629 C633 1.495 . S
C630 C629 1.392 . S
C630 C631 1.385 . S
C630 C632 1.478 . S
C631 H625 0.930 . S
C631 C627 1.400 . S
C631 C630 1.385 . S
C632 C630 1.478 . S
C632 C634 1.381 . S
C632 C638 1.383 . S
C633 C629 1.495 . S
C633 H639 0.959 . S
C633 H640 0.961 . S
C633 H641 0.960 . S
C634 C632 1.381 . S
C634 C635 1.394 . S
C634 H642 0.930 . S
C635 C634 1.394 . S
C635 C636 1.383 . S
C635 H643 0.929 . S
C636 C635 1.383 . S
C636 C637 1.377 . S
C637 H621 0.930 . S
C637 C636 1.377 . S
C637 C638 1.379 . S
C638 H622 0.931 . S
C638 C632 1.383 . S
C638 C637 1.379 . S
H639 C633 0.959 . S
H640 C633 0.961 . S
H641 C633 0.960 . S
H642 C634 0.930 . S
H643 C635 0.929 . S
H644 C652 0.929 . S
H645 C654 0.930 . S
H646 C656 0.930 . S
H647 C659 0.929 . S
H648 C662 0.930 . S
H649 C664 0.960 . S
H650 C664 0.960 . S
H651 C664 0.960 . S
C652 H644 0.929 . S
C652 C653 1.377 . S
C652 C654 1.384 . S
C653 C652 1.377 . S
C653 C659 1.390 . S
C654 H645 0.930 . S
C654 C652 1.384 . S
C654 C655 1.372 . S
C655 C654 1.372 . S
C655 C656 1.400 . S
C655 C660 1.490 . S
C656 H646 0.930 . S
C656 C655 1.400 . S
C656 C659 1.386 . S
H657 C673 0.930 . S
H658 C674 0.931 . S
C659 H647 0.929 . S
C659 C653 1.390 . S
C659 C656 1.386 . S
C660 C655 1.490 . S
C660 C662 1.395 . S
C660 C663 1.403 . S
H661 C667 0.930 . S
C662 H648 0.930 . S
C662 C660 1.395 . S
C662 C665 1.403 . S
C663 C660 1.403 . S
C663 C664 1.524 . S
C663 C667 1.400 . S
C664 H649 0.960 . S
C664 H650 0.960 . S
C664 H651 0.960 . S
C664 C663 1.524 . S
C665 C662 1.403 . S
C665 C666 1.392 . S
C665 C669 1.495 . S
C666 C665 1.392 . S
C666 C667 1.385 . S
C666 C668 1.478 . S
C667 H661 0.930 . S
C667 C663 1.400 . S
C667 C666 1.385 . S
C668 C666 1.478 . S
C668 C670 1.381 . S
C668 C674 1.383 . S
C669 C665 1.495 . S
C669 H675 0.959 . S
C669 H676 0.961 . S
C669 H677 0.960 . S
C670 C668 1.381 . S
C670 C671 1.394 . S
C670 H678 0.930 . S
C671 C670 1.394 . S
C671 C672 1.383 . S
C671 H679 0.929 . S
C672 C671 1.383 . S
C672 C673 1.377 . S
C673 H657 0.930 . S
C673 C672 1.377 . S
C673 C674 1.379 . S
C674 H658 0.931 . S
C674 C668 1.383 . S
C674 C673 1.379 . S
H675 C669 0.959 . S
H676 C669 0.961 . S
H677 C669 0.960 . S
H678 C670 0.930 . S
H679 C671 0.929 . S
H680 C688 0.929 . S
H681 C690 0.930 1_554 S
H682 C692 0.930 . S
H683 C695 0.929 . S
H684 C698 0.922 1_554 S
H685 C700 0.960 . S
H686 C700 0.960 . S
H687 C700 0.960 . S
C688 H680 0.929 . S
C688 C689 1.377 1_554 S
C688 C690 1.384 1_554 S
C689 C688 1.377 1_556 S
C689 C695 1.390 . S
C690 H681 0.930 1_556 S
C690 C688 1.384 1_556 S
C690 C691 1.372 . S
C691 C690 1.372 . S
C691 C692 1.400 . S
C691 C696 1.490 . S
C692 H682 0.930 . S
C692 C691 1.400 . S
C692 C695 1.386 . S
H693 C709 0.930 . S
H694 C710 0.931 1_455 S
C695 H683 0.929 . S
C695 C689 1.390 . S
C695 C692 1.386 . S
C696 C691 1.490 . S
C696 C698 1.395 . S
C696 C699 1.403 . S
H697 C703 0.930 . S
C698 H684 0.922 1_556 S
C698 C696 1.395 . S
C698 C701 1.403 . S
C699 C696 1.403 . S
C699 C700 1.524 . S
C699 C703 1.400 . S
C700 H685 0.960 . S
C700 H686 0.960 . S
C700 H687 0.960 . S
C700 C699 1.524 . S
C701 C698 1.403 . S
C701 C702 1.392 . S
C701 C705 1.501 . S
C702 C701 1.392 . S
C702 C703 1.385 . S
C702 C704 1.478 . S
C703 H697 0.930 . S
C703 C699 1.400 . S
C703 C702 1.385 . S
C704 C702 1.478 . S
C704 C706 1.381 . S
C704 C710 1.383 . S
C705 C701 1.501 . S
C705 H711 0.958 1_556 S
C705 H712 0.965 1_655 S
C705 H713 0.955 1_556 S
C706 C704 1.381 . S
C706 C707 1.394 . S
C706 H714 0.930 . S
C707 C706 1.394 . S
C707 C708 1.383 1_655 S
C707 H715 0.929 . S
C708 C707 1.383 1_455 S
C708 C709 1.377 . S
C709 H693 0.930 . S
C709 C708 1.377 . S
C709 C710 1.379 1_455 S
C710 H694 0.931 1_655 S
C710 C704 1.383 . S
C710 C709 1.379 1_655 S
H711 C705 0.958 1_554 S
H712 C705 0.965 1_455 S
H713 C705 0.955 1_554 S
H714 C706 0.930 . S
H715 C707 0.929 . S
H716 C724 0.912 1_545 S
H717 C726 0.892 1_545 S
H718 C728 0.930 . S
H719 C731 0.929 . S
H720 C734 0.930 . S
H721 C736 0.960 . S
H722 C736 0.960 . S
H723 C736 0.960 . S
C724 H716 0.912 1_565 S
C724 C725 1.377 . S
C724 C726 1.402 . S
C725 C724 1.377 . S
C725 C731 1.390 . S
C726 H717 0.892 1_565 S
C726 C724 1.402 . S
C726 C727 1.393 . S
C727 C726 1.393 . S
C727 C728 1.400 . S
C727 C732 1.490 . S
C728 H718 0.930 . S
C728 C727 1.400 . S
C728 C731 1.386 . S
H729 C745 0.913 1_565 S
H730 C746 0.931 1_565 S
C731 H719 0.929 . S
C731 C725 1.390 . S
C731 C728 1.386 . S
C732 C727 1.490 . S
C732 C734 1.395 1_565 S
C732 C735 1.403 . S
H733 C739 0.930 . S
C734 H720 0.930 . S
C734 C732 1.395 1_545 S
C734 C737 1.403 . S
C735 C732 1.403 . S
C735 C736 1.524 . S
C735 C739 1.400 . S
C736 H721 0.960 . S
C736 H722 0.960 . S
C736 H723 0.960 . S
C736 C735 1.524 . S
C737 C734 1.403 . S
C737 C738 1.392 . S
C737 C741 1.495 . S
C738 C737 1.392 . S
C738 C739 1.385 1_545 S
C738 C740 1.478 . S
C739 H733 0.930 . S
C739 C735 1.400 . S
C739 C738 1.385 1_565 S
C740 C738 1.478 . S
C740 C742 1.381 . S
C740 C746 1.383 . S
C741 C737 1.495 . S
C741 H747 0.959 . S
C741 H748 0.961 . S
C741 H749 0.960 . S
C742 C740 1.381 . S
C742 C743 1.394 . S
C742 H750 0.930 . S
C743 C742 1.394 . S
C743 C744 1.383 . S
C743 H751 0.929 . S
C744 C743 1.383 . S
C744 C745 1.377 . S
C745 H729 0.913 1_545 S
C745 C744 1.377 . S
C745 C746 1.379 . S
C746 H730 0.931 1_545 S
C746 C740 1.383 . S
C746 C745 1.379 . S
H747 C741 0.959 . S
H748 C741 0.961 . S
H749 C741 0.960 . S
H750 C742 0.930 . S
H751 C743 0.929 . S
H752 C760 0.929 . S
H753 C762 0.930 . S
H754 C764 0.930 . S
H755 C767 0.929 . S
H756 C770 0.930 . S
H757 C772 0.960 . S
H758 C772 0.960 . S
H759 C772 0.960 . S
C760 H752 0.929 . S
C760 C761 1.377 . S
C760 C762 1.384 . S
C761 C760 1.377 . S
C761 C767 1.390 . S
C762 H753 0.930 . S
C762 C760 1.384 . S
C762 C763 1.372 . S
C763 C762 1.372 . S
C763 C764 1.400 . S
C763 C768 1.490 . S
C764 H754 0.930 . S
C764 C763 1.400 . S
C764 C767 1.386 . S
H765 C781 0.930 . S
H766 C782 0.931 1_556 S
C767 H755 0.929 . S
C767 C761 1.390 . S
C767 C764 1.386 . S
C768 C763 1.490 . S
C768 C770 1.395 . S
C768 C771 1.403 . S
H769 C775 0.930 . S
C770 H756 0.930 . S
C770 C768 1.395 . S
C770 C773 1.403 . S
C771 C768 1.403 . S
C771 C772 1.524 . S
C771 C775 1.400 . S
C772 H757 0.960 . S
C772 H758 0.960 . S
C772 H759 0.960 . S
C772 C771 1.524 . S
C773 C770 1.403 . S
C773 C774 1.392 . S
C773 C777 1.495 . S
C774 C773 1.392 . S
C774 C775 1.385 . S
C774 C776 1.478 . S
C775 H769 0.930 . S
C775 C771 1.400 . S
C775 C774 1.385 . S
C776 C774 1.478 . S
C776 C778 1.381 . S
C776 C782 1.383 . S
C777 C773 1.495 . S
C777 H783 0.959 . S
C777 H784 0.961 . S
C777 H785 0.960 . S
C778 C776 1.381 . S
C778 C779 1.394 . S
C778 H786 0.930 . S
C779 C778 1.394 . S
C779 C780 1.383 1_554 S
C779 H787 0.929 . S
C780 C779 1.383 1_556 S
C780 C781 1.377 . S
C781 H765 0.930 . S
C781 C780 1.377 . S
C781 C782 1.379 1_556 S
C782 H766 0.931 1_554 S
C782 C776 1.383 . S
C782 C781 1.379 1_554 S
H783 C777 0.959 . S
H784 C777 0.961 . S
H785 C777 0.960 . S
H786 C778 0.930 . S
H787 C779 0.929 . S
H788 C796 0.929 . S
H789 C798 0.930 . S
H790 C800 0.930 . S
H791 C803 0.929 . S
H792 C806 0.930 . S
H793 C808 0.960 . S
H794 C808 0.960 . S
H795 C808 0.960 . S
C796 H788 0.929 . S
C796 C797 1.377 . S
C796 C798 1.384 . S
C797 C796 1.377 . S
C797 C803 1.390 . S
C798 H789 0.930 . S
C798 C796 1.384 . S
C798 C799 1.372 . S
C799 C798 1.372 . S
C799 C800 1.400 . S
C799 C804 1.490 . S
C800 H790 0.930 . S
C800 C799 1.400 . S
C800 C803 1.386 . S
H801 C817 0.930 . S
H802 C818 0.931 . S
C803 H791 0.929 . S
C803 C797 1.390 . S
C803 C800 1.386 . S
C804 C799 1.490 . S
C804 C806 1.395 . S
C804 C807 1.403 . S
H805 C811 0.930 . S
C806 H792 0.930 . S
C806 C804 1.395 . S
C806 C809 1.403 . S
C807 C804 1.403 . S
C807 C808 1.524 . S
C807 C811 1.400 . S
C808 H793 0.960 . S
C808 H794 0.960 . S
C808 H795 0.960 . S
C808 C807 1.524 . S
C809 C806 1.403 . S
C809 C810 1.392 . S
C809 C813 1.495 . S
C810 C809 1.392 . S
C810 C811 1.385 . S
C810 C812 1.478 . S
C811 H805 0.930 . S
C811 C807 1.400 . S
C811 C810 1.385 . S
C812 C810 1.478 . S
C812 C814 1.381 . S
C812 C818 1.383 . S
C813 C809 1.495 . S
C813 H819 0.959 1_556 S
C813 H820 0.961 1_556 S
C813 H821 0.960 . S
C814 C812 1.381 . S
C814 C815 1.394 . S
C814 H822 0.930 . S
C815 C814 1.394 . S
C815 C816 1.383 . S
C815 H823 0.929 . S
C816 C815 1.383 . S
C816 C817 1.377 . S
C817 H801 0.930 . S
C817 C816 1.377 . S
C817 C818 1.379 . S
C818 H802 0.931 . S
C818 C812 1.383 . S
C818 C817 1.379 . S
H819 C813 0.959 1_554 S
H820 C813 0.961 1_554 S
H821 C813 0.960 . S
H822 C814 0.930 . S
H823 C815 0.929 . S
H824 C832 0.929 . S
H825 C834 0.930 . S
H826 C836 0.930 . S
H827 C839 0.929 . S
H828 C842 0.930 . S
H829 C844 0.960 . S
H830 C844 0.960 . S
H831 C844 0.960 . S
C832 H824 0.929 . S
C832 C833 1.377 . S
C832 C834 1.384 . S
C833 C832 1.377 . S
C833 C839 1.390 . S
C834 H825 0.930 . S
C834 C832 1.384 . S
C834 C835 1.372 . S
C835 C834 1.372 . S
C835 C836 1.400 . S
C835 C840 1.490 . S
C836 H826 0.930 . S
C836 C835 1.400 . S
C836 C839 1.386 . S
H837 C853 0.930 . S
H838 C854 0.931 . S
C839 H827 0.929 . S
C839 C833 1.390 . S
C839 C836 1.386 . S
C840 C835 1.490 . S
C840 C842 1.395 . S
C840 C843 1.403 . S
H841 C847 0.930 . S
C842 H828 0.930 . S
C842 C840 1.395 . S
C842 C845 1.403 . S
C843 C840 1.403 . S
C843 C844 1.524 . S
C843 C847 1.400 . S
C844 H829 0.960 . S
C844 H830 0.960 . S
C844 H831 0.960 . S
C844 C843 1.524 . S
C845 C842 1.403 . S
C845 C846 1.392 . S
C845 C849 1.495 . S
C846 C845 1.392 . S
C846 C847 1.385 . S
C846 C848 1.478 . S
C847 H841 0.930 . S
C847 C843 1.400 . S
C847 C846 1.385 . S
C848 C846 1.478 . S
C848 C850 1.381 . S
C848 C854 1.383 . S
C849 C845 1.495 . S
C849 H855 0.959 . S
C849 H856 0.961 . S
C849 H857 0.960 . S
C850 C848 1.381 . S
C850 C851 1.394 . S
C850 H858 0.930 . S
C851 C850 1.394 . S
C851 C852 1.383 . S
C851 H859 0.929 . S
C852 C851 1.383 . S
C852 C853 1.377 . S
C853 H837 0.930 . S
C853 C852 1.377 . S
C853 C854 1.379 . S
C854 H838 0.931 . S
C854 C848 1.383 . S
C854 C853 1.379 . S
H855 C849 0.959 . S
H856 C849 0.961 . S
H857 C849 0.960 . S
H858 C850 0.930 . S
H859 C851 0.929 . S
H860 C868 0.929 . S
H861 C870 0.930 . S
H862 C872 0.930 . S
H863 C875 0.929 . S
H864 C878 0.930 . S
H865 C880 0.960 . S
H866 C880 0.960 . S
H867 C880 0.960 . S
C868 H860 0.929 . S
C868 C869 1.377 . S
C868 C870 1.384 . S
C869 C868 1.377 . S
C869 C875 1.390 . S
C870 H861 0.930 . S
C870 C868 1.384 . S
C870 C871 1.372 . S
C871 C870 1.372 . S
C871 C872 1.400 . S
C871 C876 1.490 . S
C872 H862 0.930 . S
C872 C871 1.400 . S
C872 C875 1.386 . S
H873 C889 0.930 . S
H874 C890 0.931 . S
C875 H863 0.929 . S
C875 C869 1.390 . S
C875 C872 1.386 . S
C876 C871 1.490 . S
C876 C878 1.395 . S
C876 C879 1.403 . S
H877 C883 0.930 . S
C878 H864 0.930 . S
C878 C876 1.395 . S
C878 C881 1.403 . S
C879 C876 1.403 . S
C879 C880 1.524 . S
C879 C883 1.400 . S
C880 H865 0.960 . S
C880 H866 0.960 . S
C880 H867 0.960 . S
C880 C879 1.524 . S
C881 C878 1.403 . S
C881 C882 1.392 . S
C881 C885 1.495 . S
C882 C881 1.392 . S
C882 C883 1.385 . S
C882 C884 1.478 . S
C883 H877 0.930 . S
C883 C879 1.400 . S
C883 C882 1.385 . S
C884 C882 1.478 . S
C884 C886 1.381 . S
C884 C890 1.383 . S
C885 C881 1.495 . S
C885 H891 0.959 . S
C885 H892 0.961 . S
C885 H893 0.960 . S
C886 C884 1.381 . S
C886 C887 1.394 . S
C886 H894 0.930 . S
C887 C886 1.394 . S
C887 C888 1.383 . S
C887 H895 0.929 . S
C888 C887 1.383 . S
C888 C889 1.377 . S
C889 H873 0.930 . S
C889 C888 1.377 . S
C889 C890 1.379 . S
C890 H874 0.931 . S
C890 C884 1.383 . S
C890 C889 1.379 . S
H891 C885 0.959 . S
H892 C885 0.961 . S
H893 C885 0.960 . S
H894 C886 0.930 . S
H895 C887 0.929 . S
H896 C904 0.929 . S
H897 C906 0.930 . S
H898 C908 0.930 . S
H899 C911 0.929 . S
H900 C914 0.930 . S
H901 C916 0.960 . S
H902 C916 0.960 . S
H903 C916 0.960 . S
C904 H896 0.929 . S
C904 C905 1.377 . S
C904 C906 1.384 . S
C905 C904 1.377 . S
C905 C911 1.390 . S
C906 H897 0.930 . S
C906 C904 1.384 . S
C906 C907 1.372 . S
C907 C906 1.372 . S
C907 C908 1.400 . S
C907 C912 1.490 . S
C908 H898 0.930 . S
C908 C907 1.400 . S
C908 C911 1.386 . S
H909 C925 0.930 . S
H910 C926 0.931 . S
C911 H899 0.929 . S
C911 C905 1.390 . S
C911 C908 1.386 . S
C912 C907 1.490 . S
C912 C914 1.395 . S
C912 C915 1.403 . S
H913 C919 0.930 . S
C914 H900 0.930 . S
C914 C912 1.395 . S
C914 C917 1.403 1_554 S
C915 C912 1.403 . S
C915 C916 1.524 . S
C915 C919 1.400 . S
C916 H901 0.960 . S
C916 H902 0.960 . S
C916 H903 0.960 . S
C916 C915 1.524 . S
C917 C914 1.403 1_556 S
C917 C918 1.392 . S
C917 C921 1.495 . S
C918 C917 1.392 . S
C918 C919 1.385 1_556 S
C918 C920 1.478 . S
C919 H913 0.930 . S
C919 C915 1.400 . S
C919 C918 1.385 1_554 S
C920 C918 1.478 . S
C920 C922 1.381 . S
C920 C926 1.383 . S
C921 C917 1.495 . S
C921 H927 0.959 . S
C921 H928 0.961 . S
C921 H929 0.960 . S
C922 C920 1.381 . S
C922 C923 1.394 . S
C922 H930 0.930 . S
C923 C922 1.394 . S
C923 C924 1.383 . S
C923 H931 0.929 . S
C924 C923 1.383 . S
C924 C925 1.377 . S
C925 H909 0.930 . S
C925 C924 1.377 . S
C925 C926 1.379 . S
C926 H910 0.931 . S
C926 C920 1.383 . S
C926 C925 1.379 . S
H927 C921 0.959 . S
H928 C921 0.961 . S
H929 C921 0.960 . S
H930 C922 0.930 . S
H931 C923 0.929 . S
H932 C940 0.929 . S
H933 C942 0.930 . S
H934 C944 0.930 . S
H935 C947 0.929 . S
H936 C950 0.930 . S
H937 C952 0.960 . S
H938 C952 0.960 . S
H939 C952 0.960 . S
C940 H932 0.929 . S
C940 C941 1.377 . S
C940 C942 1.384 . S
C941 C940 1.377 . S
C941 C947 1.390 . S
C942 H933 0.930 . S
C942 C940 1.384 . S
C942 C943 1.372 . S
C943 C942 1.372 . S
C943 C944 1.400 . S
C943 C948 1.490 . S
C944 H934 0.930 . S
C944 C943 1.400 . S
C944 C947 1.386 . S
H945 C961 0.930 . S
H946 C962 0.931 . S
C947 H935 0.929 . S
C947 C941 1.390 . S
C947 C944 1.386 . S
C948 C943 1.490 . S
C948 C950 1.395 . S
C948 C951 1.403 . S
H949 C955 0.930 . S
C950 H936 0.930 . S
C950 C948 1.395 . S
C950 C953 1.403 . S
C951 C948 1.403 . S
C951 C952 1.524 . S
C951 C955 1.400 . S
C952 H937 0.960 . S
C952 H938 0.960 . S
C952 H939 0.960 . S
C952 C951 1.524 . S
C953 C950 1.403 . S
C953 C954 1.392 . S
C953 C957 1.495 . S
C954 C953 1.392 . S
C954 C955 1.385 . S
C954 C956 1.478 . S
C955 H949 0.930 . S
C955 C951 1.400 . S
C955 C954 1.385 . S
C956 C954 1.478 . S
C956 C958 1.381 . S
C956 C962 1.383 . S
C957 C953 1.495 . S
C957 H963 0.959 . S
C957 H964 0.961 . S
C957 H965 0.960 . S
C958 C956 1.381 . S
C958 C959 1.394 . S
C958 H966 0.930 . S
C959 C958 1.394 . S
C959 C960 1.383 . S
C959 H967 0.929 . S
C960 C959 1.383 . S
C960 C961 1.377 . S
C961 H945 0.930 . S
C961 C960 1.377 . S
C961 C962 1.379 . S
C962 H946 0.931 . S
C962 C956 1.383 . S
C962 C961 1.379 . S
H963 C957 0.959 . S
H964 C957 0.961 . S
H965 C957 0.960 . S
H966 C958 0.930 . S
H967 C959 0.929 . S
H968 C976 0.929 . S
H969 C978 0.930 . S
H970 C980 0.930 . S
H971 C983 0.929 . S
H972 C986 0.930 . S
H973 C988 0.960 . S
H974 C988 0.960 . S
H975 C988 0.960 . S
C976 H968 0.929 . S
C976 C977 1.377 . S
C976 C978 1.384 . S
C977 C976 1.377 . S
C977 C983 1.390 . S
C978 H969 0.930 . S
C978 C976 1.384 . S
C978 C979 1.372 . S
C979 C978 1.372 . S
C979 C980 1.400 . S
C979 C984 1.490 . S
C980 H970 0.930 . S
C980 C979 1.400 . S
C980 C983 1.386 . S
H981 C997 0.930 . S
H982 C998 0.931 . S
C983 H971 0.929 . S
C983 C977 1.390 . S
C983 C980 1.386 . S
C984 C979 1.490 . S
C984 C986 1.395 . S
C984 C987 1.403 . S
H985 C991 0.930 . S
C986 H972 0.930 . S
C986 C984 1.395 . S
C986 C989 1.403 . S
C987 C984 1.403 . S
C987 C988 1.524 . S
C987 C991 1.400 . S
C988 H973 0.960 . S
C988 H974 0.960 . S
C988 H975 0.960 . S
C988 C987 1.524 . S
C989 C986 1.403 . S
C989 C990 1.392 . S
C989 C993 1.495 . S
C990 C989 1.392 . S
C990 C991 1.385 . S
C990 C992 1.478 . S
C991 H985 0.930 . S
C991 C987 1.400 . S
C991 C990 1.385 . S
C992 C990 1.478 . S
C992 C994 1.381 . S
C992 C998 1.383 . S
C993 C989 1.495 . S
C993 H999 0.959 . S
C993 H1000 0.961 . S
C993 H1001 0.960 . S
C994 C992 1.381 . S
C994 C995 1.394 . S
C994 H1002 0.930 . S
C995 C994 1.394 . S
C995 C996 1.383 . S
C995 H1003 0.929 . S
C996 C995 1.383 . S
C996 C997 1.377 . S
C997 H981 0.930 . S
C997 C996 1.377 . S
C997 C998 1.379 . S
C998 H982 0.931 . S
C998 C992 1.383 . S
C998 C997 1.379 . S
H999 C993 0.959 . S
H1000 C993 0.961 . S
H1001 C993 0.960 . S
H1002 C994 0.930 . S
H1003 C995 0.929 . S
H1004 C1012 0.929 . S
H1005 C1014 0.930 . S
H1006 C1016 0.930 1_545 S
H1007 C1019 0.929 1_545 S
H1008 C1022 0.930 . S
H1009 C1024 0.960 . S
H1010 C1024 0.960 1_565 S
H1011 C1024 0.960 . S
C1012 H1004 0.929 . S
C1012 C1013 1.377 . S
C1012 C1014 1.384 . S
C1013 C1012 1.377 . S
C1013 C1019 1.390 . S
C1014 H1005 0.930 . S
C1014 C1012 1.384 . S
C1014 C1015 1.372 . S
C1015 C1014 1.372 . S
C1015 C1016 1.400 . S
C1015 C1020 1.490 . S
C1016 H1006 0.930 1_565 S
C1016 C1015 1.400 . S
C1016 C1019 1.386 . S
H1017 C1033 0.930 1_545 S
H1018 C1034 0.931 1_545 S
C1019 H1007 0.929 1_565 S
C1019 C1013 1.390 . S
C1019 C1016 1.386 . S
C1020 C1015 1.490 . S
C1020 C1022 1.395 . S
C1020 C1023 1.403 . S
H1021 C1027 0.930 . S
C1022 H1008 0.930 . S
C1022 C1020 1.395 . S
C1022 C1025 1.403 . S
C1023 C1020 1.403 . S
C1023 C1024 1.524 1_565 S
C1023 C1027 1.400 . S
C1024 H1009 0.960 . S
C1024 H1010 0.960 1_545 S
C1024 H1011 0.960 . S
C1024 C1023 1.524 1_545 S
C1025 C1022 1.403 . S
C1025 C1026 1.392 . S
C1025 C1029 1.495 . S
C1026 C1025 1.392 . S
C1026 C1027 1.385 . S
C1026 C1028 1.478 . S
C1027 H1021 0.930 . S
C1027 C1023 1.400 . S
C1027 C1026 1.385 . S
C1028 C1026 1.478 . S
C1028 C1030 1.381 . S
C1028 C1034 1.383 . S
C1029 C1025 1.495 . S
C1029 H1035 0.959 . S
C1029 H1036 0.961 . S
C1029 H1037 0.960 . S
C1030 C1028 1.381 . S
C1030 C1031 1.394 . S
C1030 H1038 0.930 . S
C1031 C1030 1.394 . S
C1031 C1032 1.383 . S
C1031 H1039 0.929 . S
C1032 C1031 1.383 . S
C1032 C1033 1.377 . S
C1033 H1017 0.930 1_565 S
C1033 C1032 1.377 . S
C1033 C1034 1.379 . S
C1034 H1018 0.931 1_565 S
C1034 C1028 1.383 . S
C1034 C1033 1.379 . S
H1035 C1029 0.959 . S
H1036 C1029 0.961 . S
H1037 C1029 0.960 . S
H1038 C1030 0.930 . S
H1039 C1031 0.929 . S
H1040 C1048 0.929 . S
H1041 C1050 0.930 . S
H1042 C1052 0.930 . S
H1043 C1055 0.929 . S
H1044 C1058 0.930 . S
H1045 C1060 0.960 . S
H1046 C1060 0.960 . S
H1047 C1060 0.960 . S
C1048 H1040 0.929 . S
C1048 C1049 1.377 . S
C1048 C1050 1.384 . S
C1049 C1048 1.377 . S
C1049 C1055 1.390 . S
C1050 H1041 0.930 . S
C1050 C1048 1.384 . S
C1050 C1051 1.372 . S
C1051 C1050 1.372 . S
C1051 C1052 1.400 . S
C1051 C1056 1.490 . S
C1052 H1042 0.930 . S
C1052 C1051 1.400 . S
C1052 C1055 1.386 . S
H1053 C1069 0.930 . S
H1054 C1070 0.931 . S
C1055 H1043 0.929 . S
C1055 C1049 1.390 . S
C1055 C1052 1.386 . S
C1056 C1051 1.490 . S
C1056 C1058 1.395 . S
C1056 C1059 1.403 . S
H1057 C1063 0.930 . S
C1058 H1044 0.930 . S
C1058 C1056 1.395 . S
C1058 C1061 1.403 . S
C1059 C1056 1.403 . S
C1059 C1060 1.524 . S
C1059 C1063 1.400 . S
C1060 H1045 0.960 . S
C1060 H1046 0.960 . S
C1060 H1047 0.960 . S
C1060 C1059 1.524 . S
C1061 C1058 1.403 . S
C1061 C1062 1.392 . S
C1061 C1065 1.495 . S
C1062 C1061 1.392 . S
C1062 C1063 1.385 . S
C1062 C1064 1.478 . S
C1063 H1057 0.930 . S
C1063 C1059 1.400 . S
C1063 C1062 1.385 . S
C1064 C1062 1.478 . S
C1064 C1066 1.381 . S
C1064 C1070 1.383 . S
C1065 C1061 1.495 . S
C1065 H1071 0.959 . S
C1065 H1072 0.961 . S
C1065 H1073 0.960 . S
C1066 C1064 1.381 . S
C1066 C1067 1.394 . S
C1066 H1074 0.930 . S
C1067 C1066 1.394 . S
C1067 C1068 1.383 . S
C1067 H1075 0.929 . S
C1068 C1067 1.383 . S
C1068 C1069 1.377 . S
C1069 H1053 0.930 . S
C1069 C1068 1.377 . S
C1069 C1070 1.379 . S
C1070 H1054 0.931 . S
C1070 C1064 1.383 . S
C1070 C1069 1.379 . S
H1071 C1065 0.959 . S
H1072 C1065 0.961 . S
H1073 C1065 0.960 . S
H1074 C1066 0.930 . S
H1075 C1067 0.929 . S
H1076 C1084 0.929 . S
H1077 C1086 0.930 . S
H1078 C1088 0.930 . S
H1079 C1091 0.929 . S
H1080 C1094 0.930 . S
H1081 C1096 0.960 . S
H1082 C1096 0.960 . S
H1083 C1096 0.960 . S
C1084 H1076 0.929 . S
C1084 C1085 1.377 . S
C1084 C1086 1.384 . S
C1085 C1084 1.377 . S
C1085 C1091 1.390 . S
C1086 H1077 0.930 . S
C1086 C1084 1.384 . S
C1086 C1087 1.372 . S
C1087 C1086 1.372 . S
C1087 C1088 1.400 . S
C1087 C1092 1.490 . S
C1088 H1078 0.930 . S
C1088 C1087 1.400 . S
C1088 C1091 1.386 . S
H1089 C1105 0.930 . S
H1090 C1106 0.931 . S
C1091 H1079 0.929 . S
C1091 C1085 1.390 . S
C1091 C1088 1.386 . S
C1092 C1087 1.490 . S
C1092 C1094 1.395 . S
C1092 C1095 1.403 . S
H1093 C1099 0.930 . S
C1094 H1080 0.930 . S
C1094 C1092 1.395 . S
C1094 C1097 1.403 . S
C1095 C1092 1.403 . S
C1095 C1096 1.524 . S
C1095 C1099 1.400 . S
C1096 H1081 0.960 . S
C1096 H1082 0.960 . S
C1096 H1083 0.960 . S
C1096 C1095 1.524 . S
C1097 C1094 1.403 . S
C1097 C1098 1.392 . S
C1097 C1101 1.495 . S
C1098 C1097 1.392 . S
C1098 C1099 1.385 . S
C1098 C1100 1.478 . S
C1099 H1093 0.930 . S
C1099 C1095 1.400 . S
C1099 C1098 1.385 . S
C1100 C1098 1.478 . S
C1100 C1102 1.381 . S
C1100 C1106 1.383 . S
C1101 C1097 1.495 . S
C1101 H1107 0.959 . S
C1101 H1108 0.961 . S
C1101 H1109 0.960 . S
C1102 C1100 1.381 . S
C1102 C1103 1.394 . S
C1102 H1110 0.930 . S
C1103 C1102 1.394 . S
C1103 C1104 1.383 . S
C1103 H1111 0.929 . S
C1104 C1103 1.383 . S
C1104 C1105 1.377 . S
C1105 H1089 0.930 . S
C1105 C1104 1.377 . S
C1105 C1106 1.379 . S
C1106 H1090 0.931 . S
C1106 C1100 1.383 . S
C1106 C1105 1.379 . S
H1107 C1101 0.959 . S
H1108 C1101 0.961 . S
H1109 C1101 0.960 . S
H1110 C1102 0.930 . S
H1111 C1103 0.929 . S
C257 C74 1.312 . S
C276 C97 1.238 . S
C312 C137 1.228 . S
C293 C85 1.318 . S
C348 C186 1.381 . S
C329 C52 1.373 . S
C384 C217 1.823 . S
C365 C63 1.919 . S
C420 C106 1.248 . S
C401 C30 1.295 . S
C437 C41 1.285 . S
C456 C146 1.274 . S
C473 C8 1.409 . S
C492 C177 1.366 . S
C509 C19 1.845 1_556 S
C528 C226 1.847 1_655 S
C564 C107 0.985 . S
C545 C62 0.982 . S
C600 C147 0.959 . S
C581 C73 0.951 . S
C636 C183 0.687 . S
C617 C84 0.713 . S
C653 C51 1.101 . S
C672 C227 1.150 . S
C689 C18 0.941 . S
C708 C98 0.978 . S
C744 C138 0.961 . S
C725 C29 0.928 . S
C780 C174 0.704 . S
C761 C40 0.731 . S
C797 C7 1.144 . S
C816 C218 1.142 . S
C833 C60 1.556 . S
C852 C103 1.734 . S
C869 C71 1.230 . S
C888 C143 1.428 . S
C924 C187 1.964 . S
C905 C82 1.659 . S
C960 C223 1.371 . S
C941 C49 1.092 . S
C977 C16 1.369 . S
C996 C94 1.745 . S
C1032 C134 1.456 . S
C1013 C27 1.247 . S
C1068 C178 1.963 . S
C1049 C38 1.500 . S
C1085 C5 1.278 . S
C1104 C214 1.399 . S
