# Generated by pormake.
# Topology ibd, (4,6)-cn, num edge types: 1
# Building blocks:
#     Node 0, Type 0, BuildingBlock: GALJAG_clean_sbu_0, # of connection points: 4
#     Node 1, Type 0, BuildingBlock: GALJAG_clean_sbu_0, # of connection points: 4
#     Node 2, Type 0, BuildingBlock: GALJAG_clean_sbu_0, # of connection points: 4
#     Node 3, Type 0, BuildingBlock: GALJAG_clean_sbu_0, # of connection points: 4
#     Node 4, Type 0, BuildingBlock: GALJAG_clean_sbu_0, # of connection points: 4
#     Node 5, Type 0, BuildingBlock: GALJAG_clean_sbu_0, # of connection points: 4
#     Node 6, Type 0, BuildingBlock: GALJAG_clean_sbu_0, # of connection points: 4
#     Node 7, Type 0, BuildingBlock: GALJAG_clean_sbu_0, # of connection points: 4
#     Node 8, Type 0, BuildingBlock: GALJAG_clean_sbu_0, # of connection points: 4
#     Node 9, Type 0, BuildingBlock: GALJAG_clean_sbu_0, # of connection points: 4
#     Node 10, Type 0, BuildingBlock: GALJAG_clean_sbu_0, # of connection points: 4
#     Node 11, Type 0, BuildingBlock: GALJAG_clean_sbu_0, # of connection points: 4
#     Node 12, Type 0, BuildingBlock: GALJAG_clean_sbu_0, # of connection points: 4
#     Node 13, Type 0, BuildingBlock: GALJAG_clean_sbu_0, # of connection points: 4
#     Node 14, Type 0, BuildingBlock: GALJAG_clean_sbu_0, # of connection points: 4
#     Node 15, Type 0, BuildingBlock: GALJAG_clean_sbu_0, # of connection points: 4
#     Node 16, Type 0, BuildingBlock: GALJAG_clean_sbu_0, # of connection points: 4
#     Node 17, Type 0, BuildingBlock: GALJAG_clean_sbu_0, # of connection points: 4
#     Node 18, Type 0, BuildingBlock: GALJAG_clean_sbu_0, # of connection points: 4
#     Node 19, Type 0, BuildingBlock: GALJAG_clean_sbu_0, # of connection points: 4
#     Node 20, Type 0, BuildingBlock: GALJAG_clean_sbu_0, # of connection points: 4
#     Node 21, Type 0, BuildingBlock: GALJAG_clean_sbu_0, # of connection points: 4
#     Node 22, Type 0, BuildingBlock: GALJAG_clean_sbu_0, # of connection points: 4
#     Node 23, Type 0, BuildingBlock: GALJAG_clean_sbu_0, # of connection points: 4
#     Node 24, Type 1, BuildingBlock: IZENUY_clean_sbu_0, # of connection points: 6
#     Node 25, Type 1, BuildingBlock: IZENUY_clean_sbu_0, # of connection points: 6
#     Node 26, Type 1, BuildingBlock: IZENUY_clean_sbu_0, # of connection points: 6
#     Node 27, Type 1, BuildingBlock: IZENUY_clean_sbu_0, # of connection points: 6
#     Node 28, Type 1, BuildingBlock: IZENUY_clean_sbu_0, # of connection points: 6
#     Node 29, Type 1, BuildingBlock: IZENUY_clean_sbu_0, # of connection points: 6
#     Node 30, Type 1, BuildingBlock: IZENUY_clean_sbu_0, # of connection points: 6
#     Node 31, Type 1, BuildingBlock: IZENUY_clean_sbu_0, # of connection points: 6
#     Node 32, Type 1, BuildingBlock: IZENUY_clean_sbu_0, # of connection points: 6
#     Node 33, Type 1, BuildingBlock: IZENUY_clean_sbu_0, # of connection points: 6
#     Node 34, Type 1, BuildingBlock: IZENUY_clean_sbu_0, # of connection points: 6
#     Node 35, Type 1, BuildingBlock: IZENUY_clean_sbu_0, # of connection points: 6
#     Node 36, Type 1, BuildingBlock: IZENUY_clean_sbu_0, # of connection points: 6
#     Node 37, Type 1, BuildingBlock: IZENUY_clean_sbu_0, # of connection points: 6
#     Node 38, Type 1, BuildingBlock: IZENUY_clean_sbu_0, # of connection points: 6
#     Node 39, Type 1, BuildingBlock: IZENUY_clean_sbu_0, # of connection points: 6
#     Edge 40, Type (0, 1), BuildingBlock: AJUNOK_clean_linker_0, # of connection points: 2
#     Edge 41, Type (0, 1), BuildingBlock: AJUNOK_clean_linker_0, # of connection points: 2
#     Edge 42, Type (0, 1), BuildingBlock: AJUNOK_clean_linker_0, # of connection points: 2
#     Edge 43, Type (0, 1), BuildingBlock: AJUNOK_clean_linker_0, # of connection points: 2
#     Edge 44, Type (0, 1), BuildingBlock: AJUNOK_clean_linker_0, # of connection points: 2
#     Edge 45, Type (0, 1), BuildingBlock: AJUNOK_clean_linker_0, # of connection points: 2
#     Edge 46, Type (0, 1), BuildingBlock: AJUNOK_clean_linker_0, # of connection points: 2
#     Edge 47, Type (0, 1), BuildingBlock: AJUNOK_clean_linker_0, # of connection points: 2
#     Edge 48, Type (0, 1), BuildingBlock: AJUNOK_clean_linker_0, # of connection points: 2
#     Edge 49, Type (0, 1), BuildingBlock: AJUNOK_clean_linker_0, # of connection points: 2
#     Edge 50, Type (0, 1), BuildingBlock: AJUNOK_clean_linker_0, # of connection points: 2
#     Edge 51, Type (0, 1), BuildingBlock: AJUNOK_clean_linker_0, # of connection points: 2
#     Edge 52, Type (0, 1), BuildingBlock: AJUNOK_clean_linker_0, # of connection points: 2
#     Edge 53, Type (0, 1), BuildingBlock: AJUNOK_clean_linker_0, # of connection points: 2
#     Edge 54, Type (0, 1), BuildingBlock: AJUNOK_clean_linker_0, # of connection points: 2
#     Edge 55, Type (0, 1), BuildingBlock: AJUNOK_clean_linker_0, # of connection points: 2
#     Edge 56, Type (0, 1), BuildingBlock: AJUNOK_clean_linker_0, # of connection points: 2
#     Edge 57, Type (0, 1), BuildingBlock: AJUNOK_clean_linker_0, # of connection points: 2
#     Edge 58, Type (0, 1), BuildingBlock: AJUNOK_clean_linker_0, # of connection points: 2
#     Edge 59, Type (0, 1), BuildingBlock: AJUNOK_clean_linker_0, # of connection points: 2
#     Edge 60, Type (0, 1), BuildingBlock: AJUNOK_clean_linker_0, # of connection points: 2
#     Edge 61, Type (0, 1), BuildingBlock: AJUNOK_clean_linker_0, # of connection points: 2
#     Edge 62, Type (0, 1), BuildingBlock: AJUNOK_clean_linker_0, # of connection points: 2
#     Edge 63, Type (0, 1), BuildingBlock: AJUNOK_clean_linker_0, # of connection points: 2
#     Edge 64, Type (0, 1), BuildingBlock: AJUNOK_clean_linker_0, # of connection points: 2
#     Edge 65, Type (0, 1), BuildingBlock: AJUNOK_clean_linker_0, # of connection points: 2
#     Edge 66, Type (0, 1), BuildingBlock: AJUNOK_clean_linker_0, # of connection points: 2
#     Edge 67, Type (0, 1), BuildingBlock: AJUNOK_clean_linker_0, # of connection points: 2
#     Edge 68, Type (0, 1), BuildingBlock: AJUNOK_clean_linker_0, # of connection points: 2
#     Edge 69, Type (0, 1), BuildingBlock: AJUNOK_clean_linker_0, # of connection points: 2
#     Edge 70, Type (0, 1), BuildingBlock: AJUNOK_clean_linker_0, # of connection points: 2
#     Edge 71, Type (0, 1), BuildingBlock: AJUNOK_clean_linker_0, # of connection points: 2
#     Edge 72, Type (0, 1), BuildingBlock: AJUNOK_clean_linker_0, # of connection points: 2
#     Edge 73, Type (0, 1), BuildingBlock: AJUNOK_clean_linker_0, # of connection points: 2
#     Edge 74, Type (0, 1), BuildingBlock: AJUNOK_clean_linker_0, # of connection points: 2
#     Edge 75, Type (0, 1), BuildingBlock: AJUNOK_clean_linker_0, # of connection points: 2
#     Edge 76, Type (0, 1), BuildingBlock: AJUNOK_clean_linker_0, # of connection points: 2
#     Edge 77, Type (0, 1), BuildingBlock: AJUNOK_clean_linker_0, # of connection points: 2
#     Edge 78, Type (0, 1), BuildingBlock: AJUNOK_clean_linker_0, # of connection points: 2
#     Edge 79, Type (0, 1), BuildingBlock: AJUNOK_clean_linker_0, # of connection points: 2
#     Edge 80, Type (0, 1), BuildingBlock: AJUNOK_clean_linker_0, # of connection points: 2
#     Edge 81, Type (0, 1), BuildingBlock: AJUNOK_clean_linker_0, # of connection points: 2
#     Edge 82, Type (0, 1), BuildingBlock: AJUNOK_clean_linker_0, # of connection points: 2
#     Edge 83, Type (0, 1), BuildingBlock: AJUNOK_clean_linker_0, # of connection points: 2
#     Edge 84, Type (0, 1), BuildingBlock: AJUNOK_clean_linker_0, # of connection points: 2
#     Edge 85, Type (0, 1), BuildingBlock: AJUNOK_clean_linker_0, # of connection points: 2
#     Edge 86, Type (0, 1), BuildingBlock: AJUNOK_clean_linker_0, # of connection points: 2
#     Edge 87, Type (0, 1), BuildingBlock: AJUNOK_clean_linker_0, # of connection points: 2
#     Edge 88, Type (0, 1), BuildingBlock: AJUNOK_clean_linker_0, # of connection points: 2
#     Edge 89, Type (0, 1), BuildingBlock: AJUNOK_clean_linker_0, # of connection points: 2
#     Edge 90, Type (0, 1), BuildingBlock: AJUNOK_clean_linker_0, # of connection points: 2
#     Edge 91, Type (0, 1), BuildingBlock: AJUNOK_clean_linker_0, # of connection points: 2
#     Edge 92, Type (0, 1), BuildingBlock: AJUNOK_clean_linker_0, # of connection points: 2
#     Edge 93, Type (0, 1), BuildingBlock: AJUNOK_clean_linker_0, # of connection points: 2
#     Edge 94, Type (0, 1), BuildingBlock: AJUNOK_clean_linker_0, # of connection points: 2
#     Edge 95, Type (0, 1), BuildingBlock: AJUNOK_clean_linker_0, # of connection points: 2
#     Edge 96, Type (0, 1), BuildingBlock: AJUNOK_clean_linker_0, # of connection points: 2
#     Edge 97, Type (0, 1), BuildingBlock: AJUNOK_clean_linker_0, # of connection points: 2
#     Edge 98, Type (0, 1), BuildingBlock: AJUNOK_clean_linker_0, # of connection points: 2
#     Edge 99, Type (0, 1), BuildingBlock: AJUNOK_clean_linker_0, # of connection points: 2
#     Edge 100, Type (0, 1), BuildingBlock: AJUNOK_clean_linker_0, # of connection points: 2
#     Edge 101, Type (0, 1), BuildingBlock: AJUNOK_clean_linker_0, # of connection points: 2
#     Edge 102, Type (0, 1), BuildingBlock: AJUNOK_clean_linker_0, # of connection points: 2
#     Edge 103, Type (0, 1), BuildingBlock: AJUNOK_clean_linker_0, # of connection points: 2
#     Edge 104, Type (0, 1), BuildingBlock: AJUNOK_clean_linker_0, # of connection points: 2
#     Edge 105, Type (0, 1), BuildingBlock: AJUNOK_clean_linker_0, # of connection points: 2
#     Edge 106, Type (0, 1), BuildingBlock: AJUNOK_clean_linker_0, # of connection points: 2
#     Edge 107, Type (0, 1), BuildingBlock: AJUNOK_clean_linker_0, # of connection points: 2
#     Edge 108, Type (0, 1), BuildingBlock: AJUNOK_clean_linker_0, # of connection points: 2
#     Edge 109, Type (0, 1), BuildingBlock: AJUNOK_clean_linker_0, # of connection points: 2
#     Edge 110, Type (0, 1), BuildingBlock: AJUNOK_clean_linker_0, # of connection points: 2
#     Edge 111, Type (0, 1), BuildingBlock: AJUNOK_clean_linker_0, # of connection points: 2
#     Edge 112, Type (0, 1), BuildingBlock: AJUNOK_clean_linker_0, # of connection points: 2
#     Edge 113, Type (0, 1), BuildingBlock: AJUNOK_clean_linker_0, # of connection points: 2
#     Edge 114, Type (0, 1), BuildingBlock: AJUNOK_clean_linker_0, # of connection points: 2
#     Edge 115, Type (0, 1), BuildingBlock: AJUNOK_clean_linker_0, # of connection points: 2
#     Edge 116, Type (0, 1), BuildingBlock: AJUNOK_clean_linker_0, # of connection points: 2
#     Edge 117, Type (0, 1), BuildingBlock: AJUNOK_clean_linker_0, # of connection points: 2
#     Edge 118, Type (0, 1), BuildingBlock: AJUNOK_clean_linker_0, # of connection points: 2
#     Edge 119, Type (0, 1), BuildingBlock: AJUNOK_clean_linker_0, # of connection points: 2
#     Edge 120, Type (0, 1), BuildingBlock: AJUNOK_clean_linker_0, # of connection points: 2
#     Edge 121, Type (0, 1), BuildingBlock: AJUNOK_clean_linker_0, # of connection points: 2
#     Edge 122, Type (0, 1), BuildingBlock: AJUNOK_clean_linker_0, # of connection points: 2
#     Edge 123, Type (0, 1), BuildingBlock: AJUNOK_clean_linker_0, # of connection points: 2
#     Edge 124, Type (0, 1), BuildingBlock: AJUNOK_clean_linker_0, # of connection points: 2
#     Edge 125, Type (0, 1), BuildingBlock: AJUNOK_clean_linker_0, # of connection points: 2
#     Edge 126, Type (0, 1), BuildingBlock: AJUNOK_clean_linker_0, # of connection points: 2
#     Edge 127, Type (0, 1), BuildingBlock: AJUNOK_clean_linker_0, # of connection points: 2
#     Edge 128, Type (0, 1), BuildingBlock: AJUNOK_clean_linker_0, # of connection points: 2
#     Edge 129, Type (0, 1), BuildingBlock: AJUNOK_clean_linker_0, # of connection points: 2
#     Edge 130, Type (0, 1), BuildingBlock: AJUNOK_clean_linker_0, # of connection points: 2
#     Edge 131, Type (0, 1), BuildingBlock: AJUNOK_clean_linker_0, # of connection points: 2
#     Edge 132, Type (0, 1), BuildingBlock: AJUNOK_clean_linker_0, # of connection points: 2
#     Edge 133, Type (0, 1), BuildingBlock: AJUNOK_clean_linker_0, # of connection points: 2
#     Edge 134, Type (0, 1), BuildingBlock: AJUNOK_clean_linker_0, # of connection points: 2
#     Edge 135, Type (0, 1), BuildingBlock: AJUNOK_clean_linker_0, # of connection points: 2
# Relax obj value: 0.206
# Max RMSD: 0.229
# Mean RMSD: 0.214
data_MOF--net-ibd--node1-GALJAG_clean_sbu_0--node2-IZENUY_clean_sbu_0--edge1-AJUNOK_clean_linker_0
_symmetry_space_group_name_H-M    P1
_symmetry_Int_Tables_number       1
_symmetry_cell_setting            triclinic
loop_
_symmetry_equiv_pos_as_xyz
'x, y, z'
_cell_length_a     36.92899
_cell_length_b     36.907832
_cell_length_c     36.922176
_cell_angle_alpha  90.064109
_cell_angle_beta   90.050513
_cell_angle_gamma 90.065838
loop_
_atom_site_label
_atom_site_type_symbol
_atom_site_fract_x
_atom_site_fract_y
_atom_site_fract_z
_atom_type_partial_charge
In0 In 0.00149 0.25088 0.37794 0.0
O1 O 0.04402 0.25404 0.33331 0.0
O2 O 0.028 0.20192 0.35153 0.0
C3 C 0.03138 0.29883 0.4244 0.0
C4 C 0.95273 0.27982 0.33186 0.0
C5 C 0.97367 0.20436 0.42683 0.0
O6 O 0.05009 0.27998 0.40289 0.0
O7 O 0.99767 0.29418 0.42163 0.0
O8 O 0.95417 0.22307 0.40592 0.0
O9 O 0.00727 0.20834 0.42222 0.0
C10 C 0.04716 0.22016 0.32994 0.0
O11 O 0.95692 0.24611 0.33546 0.0
O12 O 0.9727 0.2989 0.35203 0.0
In13 In 0.99734 0.74447 0.62545 0.0
O14 O 0.96979 0.79257 0.65205 0.0
O15 O 0.95375 0.73991 0.66896 0.0
C16 C 0.0305 0.78454 0.57443 0.0
C17 C 0.04548 0.71676 0.67305 0.0
C18 C 0.96095 0.70326 0.57726 0.0
O19 O 0.0101 0.79872 0.59782 0.0
O20 O 0.03563 0.75106 0.57812 0.0
O21 O 0.99181 0.69507 0.58923 0.0
O22 O 0.94721 0.73125 0.59135 0.0
C23 C 0.95053 0.77374 0.67311 0.0
O24 O 0.02232 0.69776 0.65667 0.0
O25 O 0.04506 0.74992 0.66488 0.0
In26 In 0.49613 0.74969 0.876 0.0
O27 O 0.54163 0.7522 0.83457 0.0
O28 O 0.51787 0.70087 0.84489 0.0
C29 C 0.52775 0.79351 0.92528 0.0
C30 C 0.45185 0.78262 0.8282 0.0
C31 C 0.46418 0.70464 0.92375 0.0
O32 O 0.54544 0.77123 0.90634 0.0
O33 O 0.49431 0.79448 0.91841 0.0
O34 O 0.44663 0.72725 0.90509 0.0
O35 O 0.49768 0.70383 0.91719 0.0
C36 C 0.54052 0.71895 0.82676 0.0
O37 O 0.45058 0.74905 0.83443 0.0
O38 O 0.47463 0.79975 0.84713 0.0
In39 In 0.50118 0.25724 0.12757 0.0
O40 O 0.52561 0.2084 0.15609 0.0
O41 O 0.5452 0.26048 0.17073 0.0
C42 C 0.47324 0.21014 0.07921 0.0
C43 C 0.45365 0.28766 0.17411 0.0
C44 C 0.53196 0.303 0.07969 0.0
O45 O 0.50676 0.21275 0.08523 0.0
O46 O 0.45376 0.23055 0.0985 0.0
O47 O 0.49812 0.29959 0.08284 0.0
O48 O 0.55022 0.28423 0.10163 0.0
C49 C 0.54647 0.22675 0.17605 0.0
O50 O 0.4745 0.30615 0.15437 0.0
O51 O 0.45614 0.25389 0.16963 0.0
In52 In 0.00542 0.75731 0.12471 0.0
O53 O 0.95711 0.7838 0.097 0.0
O54 O 0.00965 0.80049 0.08087 0.0
C55 C 0.95822 0.72807 0.17232 0.0
C56 C 0.03585 0.71029 0.07766 0.0
C57 C 0.052 0.78808 0.17189 0.0
O58 O 0.96261 0.76179 0.169 0.0
O59 O 0.97707 0.70914 0.15102 0.0
O60 O 0.04904 0.7542 0.16825 0.0
O61 O 0.03214 0.80636 0.15095 0.0
C62 C 0.97595 0.80329 0.0762 0.0
O63 O 0.05428 0.72969 0.09898 0.0
O64 O 0.00205 0.71377 0.08101 0.0
In65 In 0.49993 0.75052 0.37341 0.0
O66 O 0.51131 0.69887 0.40478 0.0
O67 O 0.54937 0.74182 0.40948 0.0
C68 C 0.45186 0.72087 0.32671 0.0
C69 C 0.46306 0.78724 0.42467 0.0
C70 C 0.54741 0.78148 0.32717 0.0
O71 O 0.47611 0.70283 0.34247 0.0
O72 O 0.45105 0.75392 0.33534 0.0
O73 O 0.53006 0.79946 0.35048 0.0
O74 O 0.54164 0.7478 0.32809 0.0
C75 C 0.53993 0.71045 0.41944 0.0
O76 O 0.47606 0.80303 0.39732 0.0
O77 O 0.46736 0.75344 0.42507 0.0
In78 In 0.4982 0.25479 0.62735 0.0
O79 O 0.53513 0.2537 0.57856 0.0
O80 O 0.5235 0.20325 0.60393 0.0
C81 C 0.54593 0.28489 0.67389 0.0
C82 C 0.45631 0.28841 0.57824 0.0
C83 C 0.4516 0.22431 0.67448 0.0
O84 O 0.5451 0.25139 0.66728 0.0
O85 O 0.52372 0.30341 0.65571 0.0
O86 O 0.45572 0.25812 0.67191 0.0
O87 O 0.46996 0.20602 0.65226 0.0
C88 C 0.53873 0.21974 0.57818 0.0
O89 O 0.45495 0.25475 0.58396 0.0
O90 O 0.47717 0.30582 0.59908 0.0
In91 In 0.00086 0.25616 0.88035 0.0
O92 O 0.01348 0.20469 0.91161 0.0
O93 O 0.05069 0.24852 0.91593 0.0
C94 C 0.96521 0.21638 0.83089 0.0
C95 C 0.9628 0.29273 0.93041 0.0
C96 C 0.03463 0.29618 0.83002 0.0
O97 O 0.99852 0.2126 0.8374 0.0
O98 O 0.94903 0.23859 0.85121 0.0
O99 O 0.00086 0.29716 0.83503 0.0
O100 O 0.05207 0.27689 0.85225 0.0
C101 C 0.04204 0.21695 0.92591 0.0
O102 O 0.98422 0.30872 0.90917 0.0
O103 O 0.95994 0.25911 0.9256 0.0
In104 In 0.37646 0.99659 0.25626 0.0
O105 O 0.34305 0.94653 0.2689 0.0
O106 O 0.34089 0.9901 0.30646 0.0
C107 C 0.42333 0.96477 0.21006 0.0
C108 C 0.32458 0.03184 0.21903 0.0
C109 C 0.42518 0.02896 0.30014 0.0
O110 O 0.40749 0.94793 0.23512 0.0
O111 O 0.41494 0.99781 0.20764 0.0
O112 O 0.40488 0.04651 0.27894 0.0
O113 O 0.41982 0.99518 0.30017 0.0
C114 C 0.32939 0.95911 0.29754 0.0
O115 O 0.3474 0.04857 0.23825 0.0
O116 O 0.32935 0.99813 0.21709 0.0
In117 In 0.24649 0.12799 0.50525 0.0
O118 O 0.19752 0.15463 0.53148 0.0
O119 O 0.24955 0.17172 0.54895 0.0
C120 C 0.1998 0.0795 0.47676 0.0
C121 C 0.27465 0.17649 0.45825 0.0
C122 C 0.29415 0.07998 0.53316 0.0
O123 O 0.20282 0.08464 0.51039 0.0
O124 O 0.21965 0.09961 0.45751 0.0
O125 O 0.29077 0.08541 0.49962 0.0
O126 O 0.27437 0.09985 0.55275 0.0
C127 C 0.2157 0.17569 0.55134 0.0
O128 O 0.29401 0.15766 0.47919 0.0
O129 O 0.2412 0.16988 0.46017 0.0
In130 In 0.12985 0.0035 0.75293 0.0
O131 O 0.08324 0.96374 0.75251 0.0
O132 O 0.10111 0.98262 0.80396 0.0
C133 C 0.177 0.9573 0.72171 0.0
C134 C 0.08176 0.04436 0.71666 0.0
C135 C 0.17733 0.04981 0.7841 0.0
O136 O 0.16975 0.95626 0.75507 0.0
O137 O 0.15952 0.98074 0.70416 0.0
O138 O 0.1708 0.0497 0.75058 0.0
O139 O 0.15886 0.02739 0.80211 0.0
C140 C 0.07846 0.96403 0.78628 0.0
O141 O 0.08767 0.0481 0.75016 0.0
O142 O 0.10165 0.02135 0.7011 0.0
In143 In 0.24952 0.87903 0.00016 0.0
O144 O 0.20463 0.92111 0.99541 0.0
O145 O 0.2231 0.90742 0.04807 0.0
C146 C 0.22232 0.82951 0.95378 0.0
C147 C 0.29597 0.92726 0.97096 0.0
C148 C 0.27767 0.83138 0.04766 0.0
O149 O 0.2025 0.84976 0.9729 0.0
O150 O 0.2558 0.83533 0.95705 0.0
O151 O 0.2971 0.85091 0.02742 0.0
O152 O 0.2441 0.83699 0.04483 0.0
C153 C 0.20242 0.92681 0.02901 0.0
O154 O 0.29457 0.92104 0.00451 0.0
O155 O 0.27477 0.90817 0.95208 0.0
In156 In 0.25034 0.37756 0.99829 0.0
O157 O 0.25784 0.34218 0.94859 0.0
O158 O 0.30253 0.3477 0.98458 0.0
C159 C 0.20041 0.42226 0.96893 0.0
C160 C 0.21963 0.32569 0.03937 0.0
C161 C 0.29765 0.42514 0.02714 0.0
O162 O 0.22337 0.40518 0.95044 0.0
O163 O 0.20151 0.4157 0.0024 0.0
O164 O 0.28344 0.39998 0.0454 0.0
O165 O 0.28916 0.42516 0.99403 0.0
C166 C 0.28981 0.33298 0.95637 0.0
O167 O 0.22759 0.35625 0.05244 0.0
O168 O 0.22502 0.32247 0.00595 0.0
In169 In 0.74751 0.12465 0.99576 0.0
O170 O 0.72397 0.09502 0.04438 0.0
O171 O 0.70226 0.0826 0.99261 0.0
C172 C 0.77555 0.17298 0.04306 0.0
C173 C 0.79368 0.07702 0.9648 0.0
C174 C 0.71812 0.17374 0.95044 0.0
O175 O 0.7421 0.16649 0.04079 0.0
O176 O 0.79504 0.15415 0.0222 0.0
O177 O 0.75175 0.16809 0.95224 0.0
O178 O 0.69924 0.15351 0.9705 0.0
C179 C 0.70199 0.07619 0.02615 0.0
O180 O 0.77101 0.09513 0.94677 0.0
O181 O 0.79388 0.08396 0.99825 0.0
In182 In 0.11928 0.5018 0.25132 0.0
O183 O 0.14584 0.4766 0.30104 0.0
O184 O 0.16385 0.4595 0.24916 0.0
C185 C 0.07141 0.53429 0.29588 0.0
C186 C 0.16706 0.54766 0.22039 0.0
C187 C 0.07209 0.46778 0.207 0.0
O188 O 0.07562 0.5004 0.29489 0.0
O189 O 0.09208 0.55182 0.27511 0.0
O190 O 0.07608 0.50174 0.20706 0.0
O191 O 0.09289 0.45107 0.22828 0.0
C192 C 0.16733 0.45705 0.28304 0.0
O193 O 0.14696 0.52687 0.20201 0.0
O194 O 0.162 0.54607 0.25412 0.0
In195 In 0.74939 0.88105 0.50427 0.0
O196 O 0.7449 0.83622 0.46207 0.0
O197 O 0.79755 0.85462 0.4761 0.0
C198 C 0.70473 0.92962 0.47283 0.0
C199 C 0.7179 0.83443 0.55075 0.0
C200 C 0.7969 0.92628 0.53672 0.0
O201 O 0.72366 0.90764 0.45484 0.0
O202 O 0.70769 0.92646 0.5067 0.0
O203 O 0.77555 0.90618 0.55421 0.0
O204 O 0.79489 0.92286 0.50277 0.0
C205 C 0.77859 0.83299 0.45757 0.0
O206 O 0.75177 0.83716 0.5473 0.0
O207 O 0.69986 0.8559 0.53124 0.0
In208 In 0.87431 0.0095 0.24857 0.0
O209 O 0.91739 0.00832 0.293 0.0
O210 O 0.90261 0.95843 0.26858 0.0
C211 C 0.82659 0.05409 0.28147 0.0
C212 C 0.92168 0.0435 0.20449 0.0
C213 C 0.8257 0.96577 0.21571 0.0
O214 O 0.84558 0.0315 0.29872 0.0
O215 O 0.83255 0.0548 0.24786 0.0
O216 O 0.84569 0.98746 0.19845 0.0
O217 O 0.83086 0.96561 0.24949 0.0
C218 C 0.92254 0.97459 0.29116 0.0
O219 O 0.91483 0.01009 0.20199 0.0
O220 O 0.90392 0.05983 0.22866 0.0
In221 In 0.24846 0.62932 0.50213 0.0
O222 O 0.27585 0.60274 0.45356 0.0
O223 O 0.29025 0.58416 0.50601 0.0
C224 C 0.21785 0.67702 0.45602 0.0
C225 C 0.20177 0.58261 0.53308 0.0
C226 C 0.27975 0.67651 0.54829 0.0
O227 O 0.25168 0.67389 0.45955 0.0
O228 O 0.19953 0.65516 0.47481 0.0
O229 O 0.24588 0.67325 0.54539 0.0
O230 O 0.2978 0.65514 0.52867 0.0
C231 C 0.29417 0.58077 0.47226 0.0
O232 O 0.22119 0.6041 0.55129 0.0
O233 O 0.20505 0.58565 0.49921 0.0
In234 In 0.37694 0.50282 0.74798 0.0
O235 O 0.4201 0.50699 0.79184 0.0
O236 O 0.40518 0.4544 0.77396 0.0
C237 C 0.32952 0.54916 0.77873 0.0
C238 C 0.42442 0.53207 0.70046 0.0
C239 C 0.32798 0.45635 0.71966 0.0
O240 O 0.35116 0.53001 0.79695 0.0
O241 O 0.33282 0.54599 0.74486 0.0
O242 O 0.34876 0.4754 0.70034 0.0
O243 O 0.33277 0.45984 0.7533 0.0
C244 C 0.42531 0.47332 0.79418 0.0
O245 O 0.41956 0.4984 0.70352 0.0
O246 O 0.40427 0.5511 0.72048 0.0
In247 In 0.6278 -6e-05 0.75084 0.0
O248 O 0.65306 0.97347 0.80048 0.0
O249 O 0.6701 0.95515 0.74874 0.0
C250 C 0.57973 0.03027 0.79668 0.0
C251 C 0.67617 0.04577 0.72063 0.0
C252 C 0.58074 0.97023 0.70352 0.0
O253 O 0.58237 0.99648 0.79238 0.0
O254 O 0.60204 0.04873 0.77853 0.0
O255 O 0.58406 0.00402 0.70758 0.0
O256 O 0.602 0.95148 0.72259 0.0
C257 C 0.67348 0.9527 0.78265 0.0
O258 O 0.65477 0.02657 0.70211 0.0
O259 O 0.67246 0.04253 0.75442 0.0
In260 In 0.75513 0.62588 0.00386 0.0
O261 O 0.70623 0.6547 0.02799 0.0
O262 O 0.75827 0.66949 0.04745 0.0
C263 C 0.7095 0.57899 0.97118 0.0
C264 C 0.78673 0.67338 0.95836 0.0
C265 C 0.79889 0.57686 0.0357 0.0
O266 O 0.70977 0.58387 0.00501 0.0
O267 O 0.73162 0.59843 0.95389 0.0
O268 O 0.79963 0.5832 0.00215 0.0
O269 O 0.77699 0.59629 0.05331 0.0
C270 C 0.7246 0.67497 0.04856 0.0
O271 O 0.80464 0.65465 0.98067 0.0
O272 O 0.75315 0.66719 0.95837 0.0
In273 In 0.87478 0.50611 0.75326 0.0
O274 O 0.83275 0.46126 0.74871 0.0
O275 O 0.84785 0.47856 0.80145 0.0
C276 C 0.92251 0.47734 0.70605 0.0
C277 C 0.8258 0.55219 0.72473 0.0
C278 C 0.92249 0.53597 0.79984 0.0
O279 O 0.90117 0.45824 0.72467 0.0
O280 O 0.91905 0.51104 0.71049 0.0
O281 O 0.90164 0.55463 0.78024 0.0
O282 O 0.91836 0.50216 0.7968 0.0
C283 C 0.82794 0.45826 0.78237 0.0
O284 O 0.83036 0.54861 0.75837 0.0
O285 O 0.84695 0.53347 0.70549 0.0
In286 In 0.75626 0.37911 0.50154 0.0
O287 O 0.70372 0.40781 0.51811 0.0
O288 O 0.75362 0.4261 0.54064 0.0
C289 C 0.71737 0.3331 0.46046 0.0
C290 C 0.79422 0.42691 0.46167 0.0
C291 C 0.7911 0.32871 0.54129 0.0
O292 O 0.70499 0.34704 0.48918 0.0
O293 O 0.74881 0.34346 0.45192 0.0
O294 O 0.79838 0.33512 0.50865 0.0
O295 O 0.76693 0.34863 0.55482 0.0
C296 C 0.71993 0.43072 0.53776 0.0
O297 O 0.80602 0.41421 0.49111 0.0
O298 O 0.76405 0.41431 0.45168 0.0
In299 In 0.6187 0.50185 0.25022 0.0
O300 O 0.58935 0.45297 0.27382 0.0
O301 O 0.57808 0.50443 0.29674 0.0
C302 C 0.66649 0.45499 0.22126 0.0
C303 C 0.57012 0.53251 0.20508 0.0
C304 C 0.66811 0.54847 0.27742 0.0
O305 O 0.66085 0.45727 0.25487 0.0
O306 O 0.64707 0.47562 0.20213 0.0
O307 O 0.66175 0.54563 0.24398 0.0
O308 O 0.64864 0.52855 0.29726 0.0
C309 C 0.57124 0.47094 0.29652 0.0
O310 O 0.58867 0.5506 0.22739 0.0
O311 O 0.57699 0.49905 0.20474 0.0
Fe312 Fe 0.123 0.09268 0.15916 0.0
Fe313 Fe 0.09752 0.16491 0.12756 0.0
O314 O 0.12818 0.12812 0.12744 0.0
Fe315 Fe 0.16378 0.12687 0.0955 0.0
O316 O 0.14767 0.08449 0.07669 0.0
O317 O 0.13995 0.05704 0.12883 0.0
O318 O 0.07794 0.08238 0.14267 0.0
C319 C 0.0522 0.10472 0.14365 0.0
C320 C 0.1964 0.09916 0.15948 0.0
O321 O 0.05862 0.13841 0.14383 0.0
C322 C 0.16485 0.19855 0.11092 0.0
O323 O 0.10535 0.12217 0.19529 0.0
O324 O 0.11027 0.17721 0.17332 0.0
O325 O 0.1959 0.10349 0.12549 0.0
O326 O 0.16765 0.10031 0.17778 0.0
C327 C 0.10445 0.15442 0.05507 0.0
O328 O 0.13057 0.19846 0.11136 0.0
O329 O 0.18214 0.16918 0.11217 0.0
C330 C 0.10706 0.15617 0.20006 0.0
O331 O 0.08305 0.15467 0.08171 0.0
O332 O 0.13815 0.14999 0.05963 0.0
C333 C 0.14367 0.0558 0.09474 0.0
Fe334 Fe 0.0894 0.84419 0.37351 0.0
Fe335 Fe 0.12406 0.91401 0.34546 0.0
O336 O 0.12177 0.87919 0.37821 0.0
Fe337 Fe 0.15205 0.87937 0.41539 0.0
O338 O 0.17046 0.83566 0.40253 0.0
O339 O 0.11801 0.809 0.39378 0.0
O340 O 0.1076 0.83085 0.32999 0.0
C341 C 0.10892 0.85157 0.30294 0.0
C342 C 0.08608 0.85431 0.44633 0.0
O343 O 0.10924 0.88557 0.30734 0.0
C344 C 0.13747 0.95139 0.41158 0.0
O345 O 0.05482 0.87321 0.35244 0.0
O346 O 0.078 0.92797 0.35492 0.0
O347 O 0.12011 0.85834 0.44717 0.0
O348 O 0.06904 0.8548 0.41675 0.0
C349 C 0.19589 0.9028 0.35676 0.0
O350 O 0.1392 0.94903 0.3774 0.0
O351 O 0.13571 0.92312 0.43068 0.0
C352 C 0.05091 0.90732 0.35175 0.0
O353 O 0.17032 0.90214 0.33407 0.0
O354 O 0.18961 0.90036 0.39038 0.0
C355 C 0.15182 0.80716 0.39909 0.0
Fe356 Fe 0.3782 0.9125 0.65872 0.0
Fe357 Fe 0.34342 0.87848 0.59143 0.0
O358 O 0.37734 0.87828 0.62523 0.0
Fe359 Fe 0.41037 0.84377 0.62587 0.0
O360 O 0.39624 0.82911 0.67038 0.0
O361 O 0.39705 0.88337 0.69452 0.0
O362 O 0.33377 0.89968 0.67475 0.0
C363 C 0.30577 0.89915 0.65522 0.0
C364 C 0.45025 0.90683 0.64488 0.0
O365 O 0.30833 0.89799 0.62097 0.0
C366 C 0.4066 0.85596 0.55347 0.0
O367 O 0.3593 0.94798 0.62928 0.0
O368 O 0.35736 0.92276 0.57553 0.0
O369 O 0.44638 0.87272 0.64454 0.0
O370 O 0.42284 0.92722 0.64464 0.0
C371 C 0.34649 0.80604 0.60566 0.0
O372 O 0.37249 0.85884 0.55597 0.0
O373 O 0.42632 0.85606 0.58135 0.0
C374 C 0.35757 0.95075 0.59511 0.0
O375 O 0.32713 0.83417 0.60505 0.0
O376 O 0.3806 0.80861 0.60724 0.0
C377 C 0.39664 0.84921 0.69796 0.0
Fe378 Fe 0.41488 0.16091 0.87795 0.0
Fe379 Fe 0.37872 0.09442 0.84417 0.0
O380 O 0.3799 0.12823 0.87806 0.0
Fe381 Fe 0.34622 0.1295 0.91199 0.0
O382 O 0.33237 0.17483 0.89881 0.0
O383 O 0.38741 0.19716 0.89774 0.0
O384 O 0.40117 0.17726 0.83382 0.0
C385 C 0.39959 0.15765 0.80584 0.0
C386 C 0.41082 0.14726 0.95013 0.0
O387 O 0.39798 0.12347 0.80865 0.0
C388 C 0.35752 0.05663 0.90774 0.0
O389 O 0.44908 0.13085 0.85815 0.0
O390 O 0.423 0.07757 0.85716 0.0
O391 O 0.37659 0.1472 0.94729 0.0
O392 O 0.43047 0.14652 0.92219 0.0
C393 C 0.30676 0.11003 0.84868 0.0
O394 O 0.35904 0.05941 0.87357 0.0
O395 O 0.35795 0.0845 0.92749 0.0
C396 C 0.45133 0.09669 0.85685 0.0
O397 O 0.33451 0.10897 0.82887 0.0
O398 O 0.30981 0.11177 0.88283 0.0
C399 C 0.35354 0.20169 0.89955 0.0
Fe400 Fe 0.59185 0.34521 0.87651 0.0
Fe401 Fe 0.62641 0.41214 0.8419 0.0
O402 O 0.62613 0.37864 0.876 0.0
Fe403 Fe 0.66023 0.37851 0.90957 0.0
O404 O 0.67517 0.33379 0.89609 0.0
O405 O 0.62093 0.30947 0.89542 0.0
O406 O 0.60473 0.32907 0.83202 0.0
C407 C 0.60523 0.34859 0.80403 0.0
C408 C 0.59694 0.35916 0.94876 0.0
O409 O 0.60681 0.38278 0.80672 0.0
C410 C 0.64776 0.45095 0.90499 0.0
O411 O 0.55659 0.37485 0.85752 0.0
O412 O 0.58225 0.42846 0.85545 0.0
O413 O 0.63105 0.35998 0.94533 0.0
O414 O 0.57684 0.35919 0.92111 0.0
C415 C 0.69855 0.39773 0.84582 0.0
O416 O 0.64608 0.4476 0.87087 0.0
O417 O 0.6474 0.42329 0.92503 0.0
C418 C 0.55413 0.40906 0.85582 0.0
O419 O 0.67063 0.39792 0.82616 0.0
O420 O 0.69571 0.39698 0.87999 0.0
C421 C 0.65509 0.30615 0.89591 0.0
Fe422 Fe 0.83605 0.37319 0.09683 0.0
Fe423 Fe 0.86868 0.40627 0.16553 0.0
O424 O 0.86867 0.37223 0.13187 0.0
Fe425 Fe 0.90135 0.33739 0.13347 0.0
O426 O 0.91893 0.34971 0.08964 0.0
O427 O 0.86618 0.35374 0.06224 0.0
O428 O 0.85124 0.41736 0.08191 0.0
C429 C 0.85139 0.44516 0.1017 0.0
C430 C 0.8377 0.3006 0.11006 0.0
O431 O 0.85101 0.4421 0.13585 0.0
C432 C 0.88648 0.3428 0.2052 0.0
O433 O 0.80012 0.39282 0.12534 0.0
O434 O 0.82368 0.39361 0.18 0.0
O435 O 0.87177 0.30256 0.11357 0.0
O436 O 0.81875 0.32897 0.10924 0.0
C437 C 0.94105 0.40024 0.15364 0.0
O438 O 0.88637 0.37691 0.20163 0.0
O439 O 0.8858 0.32271 0.17758 0.0
C440 C 0.79635 0.39376 0.1595 0.0
O441 O 0.91376 0.42076 0.15286 0.0
O442 O 0.93708 0.36611 0.15328 0.0
C443 C 0.90033 0.35077 0.06106 0.0
Fe444 Fe 0.83499 0.6319 0.40347 0.0
Fe445 Fe 0.90377 0.66565 0.37165 0.0
O446 O 0.86933 0.6324 0.37013 0.0
Fe447 Fe 0.86931 0.59953 0.33529 0.0
O448 O 0.82521 0.61406 0.31933 0.0
O449 O 0.79973 0.6143 0.373 0.0
O450 O 0.82035 0.67716 0.39128 0.0
C451 C 0.84068 0.70465 0.39241 0.0
C452 C 0.84701 0.55946 0.39693 0.0
O453 O 0.87475 0.70108 0.39099 0.0
C454 C 0.94149 0.60204 0.35059 0.0
O455 O 0.86393 0.64946 0.44006 0.0
O456 O 0.91828 0.6509 0.41613 0.0
O457 O 0.84917 0.56358 0.36299 0.0
O458 O 0.84742 0.58654 0.41784 0.0
C459 C 0.89199 0.66352 0.29888 0.0
O460 O 0.93909 0.6362 0.35272 0.0
O461 O 0.91328 0.58278 0.34914 0.0
C462 C 0.89803 0.65047 0.4436 0.0
O463 O 0.89164 0.68267 0.3272 0.0
O464 O 0.88953 0.62938 0.30107 0.0
C465 C 0.79713 0.61341 0.33877 0.0
Fe466 Fe 0.91173 0.84225 0.87432 0.0
Fe467 Fe 0.84426 0.87534 0.90895 0.0
O468 O 0.87676 0.87493 0.8739 0.0
Fe469 Fe 0.87395 0.90697 0.83853 0.0
O470 O 0.91848 0.9246 0.84862 0.0
O471 O 0.94561 0.87174 0.85264 0.0
O472 O 0.92838 0.85845 0.91758 0.0
C473 C 0.9095 0.85878 0.946 0.0
C474 C 0.89476 0.84214 0.80238 0.0
O475 O 0.87526 0.85833 0.94395 0.0
C476 C 0.80235 0.89212 0.84675 0.0
O477 O 0.88407 0.80672 0.89586 0.0
O478 O 0.82943 0.83009 0.89736 0.0
O479 O 0.89202 0.87637 0.80355 0.0
O480 O 0.89733 0.82396 0.83114 0.0
C481 C 0.85568 0.94768 0.90157 0.0
O482 O 0.80708 0.89251 0.88069 0.0
O483 O 0.82923 0.89137 0.82579 0.0
C484 C 0.84997 0.80283 0.89741 0.0
O485 O 0.85728 0.92064 0.92235 0.0
O486 O 0.85544 0.94339 0.86742 0.0
C487 C 0.9469 0.90576 0.84828 0.0
Fe488 Fe 0.87838 0.09516 0.66443 0.0
Fe489 Fe 0.846 0.12543 0.59441 0.0
O490 O 0.8788 0.12772 0.62926 0.0
Fe491 Fe 0.91205 0.16224 0.62874 0.0
O492 O 0.89797 0.17914 0.67258 0.0
O493 O 0.89638 0.126 0.69917 0.0
O494 O 0.83323 0.10859 0.67823 0.0
C495 C 0.80601 0.10692 0.65759 0.0
C496 C 0.95088 0.10019 0.65206 0.0
O497 O 0.81012 0.10689 0.62353 0.0
C498 C 0.90977 0.14581 0.5568 0.0
O499 O 0.86053 0.05816 0.63607 0.0
O500 O 0.861 0.08067 0.5812 0.0
O501 O 0.94746 0.13413 0.64911 0.0
O502 O 0.92354 0.07969 0.65297 0.0
C503 C 0.8482 0.1983 0.60541 0.0
O504 O 0.87564 0.14365 0.55895 0.0
O505 O 0.9288 0.14766 0.58505 0.0
C506 C 0.86022 0.05366 0.60205 0.0
O507 O 0.829 0.17004 0.60518 0.0
O508 O 0.88234 0.19653 0.60823 0.0
C509 C 0.89824 0.16018 0.70094 0.0
Fe510 Fe 0.62648 0.09764 0.34323 0.0
Fe511 Fe 0.65864 0.13201 0.41153 0.0
O512 O 0.62504 0.13113 0.37741 0.0
Fe513 Fe 0.59005 0.16371 0.37732 0.0
O514 O 0.60353 0.18015 0.33326 0.0
O515 O 0.60667 0.12656 0.30779 0.0
O516 O 0.67049 0.11295 0.32815 0.0
C517 C 0.69818 0.11356 0.3481 0.0
C518 C 0.55403 0.09884 0.35643 0.0
O519 O 0.695 0.11435 0.38229 0.0
C520 C 0.59427 0.15068 0.44946 0.0
O521 O 0.64647 0.06257 0.37241 0.0
O522 O 0.64642 0.08699 0.42657 0.0
O523 O 0.55568 0.13315 0.3577 0.0
O524 O 0.58259 0.08022 0.35624 0.0
C525 C 0.65182 0.20433 0.3993 0.0
O526 O 0.62846 0.14976 0.44693 0.0
O527 O 0.5746 0.14961 0.42155 0.0
C528 C 0.64721 0.05929 0.40656 0.0
O529 O 0.67278 0.17734 0.39872 0.0
O530 O 0.61786 0.20007 0.39696 0.0
C531 C 0.6048 0.16075 0.30522 0.0
Fe532 Fe 0.59321 0.84057 0.12694 0.0
Fe533 Fe 0.65819 0.87643 0.0903 0.0
O534 O 0.62543 0.87589 0.12513 0.0
Fe535 Fe 0.62484 0.91062 0.15809 0.0
O536 O 0.57918 0.92376 0.14567 0.0
O537 O 0.55708 0.86863 0.14639 0.0
O538 O 0.57564 0.8523 0.0827 0.0
C539 C 0.59452 0.85274 0.05428 0.0
C540 C 0.60821 0.8472 0.19876 0.0
O541 O 0.62871 0.8551 0.05618 0.0
C542 C 0.69759 0.90085 0.15193 0.0
O543 O 0.62344 0.80596 0.10781 0.0
O544 O 0.6762 0.8331 0.10452 0.0
O545 O 0.60828 0.88134 0.19491 0.0
O546 O 0.60873 0.82676 0.17135 0.0
C547 C 0.6418 0.94816 0.09295 0.0
O548 O 0.69362 0.89795 0.11797 0.0
O549 O 0.67044 0.89979 0.17263 0.0
C550 C 0.65766 0.80443 0.10585 0.0
O551 O 0.6423 0.91979 0.07393 0.0
O552 O 0.64129 0.94613 0.12723 0.0
C553 C 0.55238 0.90259 0.1472 0.0
Fe554 Fe 0.40273 0.66166 0.12634 0.0
Fe555 Fe 0.33487 0.6285 0.09232 0.0
O556 O 0.36871 0.62804 0.12612 0.0
Fe557 Fe 0.36857 0.59395 0.15958 0.0
O558 O 0.41291 0.5783 0.14603 0.0
O559 O 0.4381 0.63212 0.14531 0.0
O560 O 0.41823 0.64815 0.08184 0.0
C561 C 0.39842 0.6483 0.05403 0.0
C562 C 0.38885 0.65729 0.19853 0.0
O563 O 0.36423 0.64793 0.05705 0.0
C564 C 0.29634 0.60765 0.15551 0.0
O565 O 0.37357 0.69735 0.10751 0.0
O566 O 0.31942 0.67284 0.10649 0.0
O567 O 0.3876 0.62308 0.19539 0.0
O568 O 0.38925 0.67717 0.17081 0.0
C569 C 0.34918 0.55617 0.09546 0.0
O570 O 0.29928 0.609 0.12133 0.0
O571 O 0.32419 0.60741 0.17523 0.0
C572 C 0.3394 0.70057 0.10683 0.0
O573 O 0.34845 0.58431 0.07615 0.0
O574 O 0.34967 0.55869 0.12971 0.0
C575 C 0.44085 0.5979 0.14607 0.0
Fe576 Fe 0.12636 0.59263 0.84209 0.0
Fe577 Fe 0.1617 0.62586 0.90931 0.0
O578 O 0.12761 0.6267 0.87569 0.0
Fe579 Fe 0.09475 0.66148 0.87566 0.0
O580 O 0.10797 0.67628 0.83069 0.0
O581 O 0.10774 0.62199 0.80666 0.0
O582 O 0.17108 0.60491 0.82597 0.0
C583 C 0.19912 0.60469 0.84553 0.0
C584 C 0.05428 0.5988 0.85643 0.0
O585 O 0.19638 0.60586 0.87972 0.0
C586 C 0.09935 0.64868 0.94825 0.0
O587 O 0.14469 0.55692 0.87131 0.0
O588 O 0.14708 0.58168 0.9252 0.0
O589 O 0.05827 0.63288 0.85746 0.0
O590 O 0.08157 0.57826 0.85608 0.0
C591 C 0.1595 0.69832 0.89532 0.0
O592 O 0.13335 0.64584 0.94494 0.0
O593 O 0.07928 0.64908 0.92058 0.0
C594 C 0.14578 0.55381 0.90541 0.0
O595 O 0.1785 0.66994 0.89571 0.0
O596 O 0.12528 0.69629 0.89391 0.0
C597 C 0.10723 0.65608 0.80311 0.0
Fe598 Fe 0.15748 0.37969 0.59356 0.0
Fe599 Fe 0.08833 0.3475 0.62565 0.0
O600 O 0.12327 0.38021 0.627 0.0
Fe601 Fe 0.12408 0.4136 0.66143 0.0
O602 O 0.16829 0.39881 0.67713 0.0
O603 O 0.19297 0.39791 0.62324 0.0
O604 O 0.17188 0.33476 0.60697 0.0
C605 C 0.15133 0.30739 0.60669 0.0
C606 C 0.14507 0.45225 0.59838 0.0
O607 O 0.11722 0.31128 0.60727 0.0
C608 C 0.05155 0.41187 0.64667 0.0
O609 O 0.12861 0.36133 0.55741 0.0
O610 O 0.07427 0.36182 0.58087 0.0
O611 O 0.14403 0.44889 0.63253 0.0
O612 O 0.14496 0.42457 0.57826 0.0
C613 C 0.09972 0.35046 0.69838 0.0
O614 O 0.05338 0.37773 0.64392 0.0
O615 O 0.08003 0.43073 0.64811 0.0
C616 C 0.09459 0.361 0.55349 0.0
O617 O 0.09962 0.331 0.67032 0.0
O618 O 0.1039 0.38444 0.69637 0.0
C619 C 0.19615 0.39866 0.65735 0.0
Fe620 Fe 0.66229 0.63336 0.59358 0.0
Fe621 Fe 0.62459 0.59509 0.65693 0.0
O622 O 0.62583 0.63019 0.62438 0.0
Fe623 Fe 0.59067 0.66259 0.62262 0.0
O624 O 0.57917 0.64951 0.5766 0.0
O625 O 0.63511 0.65276 0.55667 0.0
O626 O 0.65253 0.5891 0.57501 0.0
C627 C 0.65201 0.56043 0.59357 0.0
C628 C 0.65356 0.70469 0.60911 0.0
O629 O 0.64659 0.56134 0.62747 0.0
C630 C 0.60011 0.65701 0.69565 0.0
O631 O 0.69615 0.6145 0.6245 0.0
O632 O 0.66764 0.60902 0.67625 0.0
O633 O 0.61968 0.69989 0.60679 0.0
O634 O 0.67451 0.67778 0.6105 0.0
C635 C 0.55305 0.59739 0.63932 0.0
O636 O 0.60256 0.62289 0.69208 0.0
O637 O 0.60032 0.67745 0.6683 0.0
C638 C 0.69675 0.61115 0.65857 0.0
O639 O 0.58148 0.57855 0.64009 0.0
O640 O 0.55507 0.63163 0.63848 0.0
C641 C 0.60135 0.65177 0.55072 0.0
Fe642 Fe 0.4023 0.34264 0.37476 0.0
Fe643 Fe 0.36966 0.41193 0.34337 0.0
O644 O 0.36945 0.37739 0.37646 0.0
Fe645 Fe 0.33622 0.37781 0.41093 0.0
O646 O 0.31911 0.33385 0.39726 0.0
O647 O 0.37211 0.30728 0.39269 0.0
O648 O 0.38808 0.32895 0.32976 0.0
C649 C 0.38906 0.34962 0.30263 0.0
C650 C 0.39944 0.35353 0.44766 0.0
O651 O 0.38822 0.3836 0.30697 0.0
C652 C 0.35102 0.44994 0.40748 0.0
O653 O 0.43839 0.3721 0.3567 0.0
O654 O 0.4144 0.42658 0.35699 0.0
O655 O 0.36546 0.3574 0.44565 0.0
O656 O 0.41882 0.35356 0.41959 0.0
C657 C 0.2973 0.39915 0.34813 0.0
O658 O 0.3513 0.44705 0.37334 0.0
O659 O 0.3511 0.4219 0.42699 0.0
C660 C 0.44189 0.40634 0.3565 0.0
O661 O 0.32489 0.39911 0.32797 0.0
O662 O 0.30079 0.39793 0.38227 0.0
C663 C 0.33796 0.30542 0.39568 0.0
C664 C 0.08104 0.2251 0.27172 0.0
C665 C 0.06798 0.20336 0.3001 0.0
C666 C 0.09552 0.20962 0.24027 0.0
C667 C 0.0976 0.17174 0.23596 0.0
H668 H 0.07855 0.25432 0.27298 0.0
H669 H 0.10373 0.22759 0.2186 0.0
S670 S 0.07204 0.10302 0.30496 0.0
N671 N 0.06166 0.14223 0.32377 0.0
N672 N 0.08904 0.11299 0.26486 0.0
C673 C 0.087 0.14976 0.26534 0.0
C674 C 0.07211 0.1656 0.29732 0.0
C675 C 0.06141 0.83682 0.54436 0.0
C676 C 0.04258 0.80383 0.54188 0.0
C677 C 0.07471 0.85387 0.51305 0.0
C678 C 0.0682 0.83909 0.4785 0.0
H679 H 0.06697 0.84874 0.57061 0.0
H680 H 0.09052 0.87847 0.51586 0.0
S681 S 0.01821 0.75422 0.458 0.0
N682 N 0.01712 0.75754 0.50258 0.0
N683 N 0.0407 0.79018 0.44377 0.0
C684 C 0.04811 0.80684 0.4758 0.0
C685 C 0.03563 0.78904 0.50756 0.0
C686 C 0.43564 0.8373 0.79202 0.0
C687 C 0.43187 0.79986 0.79804 0.0
C688 C 0.42218 0.8535 0.7605 0.0
C689 C 0.4047 0.8328 0.73363 0.0
H690 H 0.45045 0.85407 0.81106 0.0
H691 H 0.42726 0.88211 0.75638 0.0
S692 S 0.38321 0.73467 0.7387 0.0
N693 N 0.40578 0.74322 0.77637 0.0
N694 N 0.38068 0.77367 0.717 0.0
C695 C 0.3986 0.79579 0.74042 0.0
C696 C 0.41211 0.77932 0.77267 0.0
C697 C 0.42043 0.18685 0.04421 0.0
C698 C 0.45813 0.18828 0.04917 0.0
C699 C 0.40532 0.17139 0.01307 0.0
C700 C 0.42734 0.15701 0.98544 0.0
H701 H 0.40238 0.19905 0.06384 0.0
H702 H 0.37617 0.17249 0.00993 0.0
S703 S 0.52758 0.14962 0.9876 0.0
N704 N 0.51712 0.17058 0.0257 0.0
N705 N 0.48869 0.14165 0.96697 0.0
C706 C 0.46502 0.15611 0.99116 0.0
C707 C 0.48042 0.17171 0.02306 0.0
C708 C 0.08568 0.7829 0.2302 0.0
C709 C 0.07304 0.80473 0.20169 0.0
C710 C 0.09953 0.7983 0.262 0.0
C711 C 0.10144 0.83616 0.2665 0.0
H712 H 0.08307 0.75369 0.22885 0.0
H713 H 0.10718 0.7803 0.28386 0.0
S714 S 0.07757 0.90506 0.1971 0.0
N715 N 0.06747 0.86589 0.17796 0.0
N716 N 0.09375 0.89499 0.23753 0.0
C717 C 0.09171 0.85822 0.23689 0.0
C718 C 0.07738 0.84247 0.20456 0.0
C719 C 0.45561 0.79228 0.49094 0.0
C720 C 0.44852 0.80654 0.45639 0.0
C721 C 0.443 0.80949 0.52212 0.0
C722 C 0.42207 0.84116 0.51991 0.0
H723 H 0.47134 0.7677 0.49398 0.0
H724 H 0.4488 0.79726 0.54816 0.0
S725 S 0.39554 0.8893 0.43602 0.0
N726 N 0.41981 0.85452 0.42163 0.0
N727 N 0.39446 0.88614 0.48068 0.0
C728 C 0.41449 0.8557 0.48561 0.0
C729 C 0.42826 0.83863 0.4537 0.0
C730 C 0.42284 0.22846 0.73531 0.0
C731 C 0.4317 0.20745 0.70481 0.0
C732 C 0.41062 0.21225 0.7673 0.0
C733 C 0.4066 0.1744 0.76999 0.0
H734 H 0.42725 0.25749 0.73524 0.0
H735 H 0.40577 0.22952 0.79053 0.0
S736 S 0.42017 0.10803 0.69541 0.0
N737 N 0.43137 0.14746 0.67758 0.0
N738 N 0.408 0.11684 0.73751 0.0
C739 C 0.41256 0.15339 0.73863 0.0
C740 C 0.42525 0.16995 0.7061 0.0
C741 C 0.04206 0.17126 0.97556 0.0
C742 C 0.06078 0.1979 0.9557 0.0
C743 C 0.05678 0.15651 0.00727 0.0
C744 C 0.09111 0.16721 0.01969 0.0
H745 H 0.01509 0.1629 0.96753 0.0
H746 H 0.04094 0.13709 0.02253 0.0
S747 S 0.15208 0.23455 0.97661 0.0
N748 N 0.11601 0.23345 0.95013 0.0
N749 N 0.14409 0.20501 0.00919 0.0
C750 C 0.11084 0.1926 -0.00075 0.0
C751 C 0.09556 0.20815 0.96737 0.0
C752 C 0.29373 0.08405 0.18857 0.0
C753 C 0.29206 0.04924 0.20393 0.0
C754 C 0.26255 0.10044 0.17413 0.0
C755 C 0.22873 0.08302 0.17608 0.0
H756 H 0.31934 0.09831 0.18706 0.0
H757 H 0.2648 0.12688 0.16161 0.0
S758 S 0.20993 0.99229 0.21472 0.0
N759 N 0.2539 0.9981 0.22042 0.0
N760 N 0.1953 0.02949 0.1947 0.0
C761 C 0.22669 0.04859 0.19201 0.0
C762 C 0.2584 0.03154 0.20563 0.0
C763 C 0.17667 0.04542 0.42328 0.0
C764 C 0.178 0.04967 0.46107 0.0
C765 C 0.16127 0.01457 0.40753 0.0
C766 C 0.14681 0.98648 0.42894 0.0
H767 H 0.18895 0.06537 0.40563 0.0
H768 H 0.16253 0.01203 0.37833 0.0
S769 S 0.13874 0.98696 0.52917 0.0
N770 N 0.15984 0.02521 0.51952 0.0
N771 N 0.13104 0.96697 0.48988 0.0
C772 C 0.14569 0.99154 0.46672 0.0
C773 C 0.16124 0.02318 0.48279 0.0
C774 C 0.21183 0.93798 0.66731 0.0
C775 C 0.20671 0.93631 0.70501 0.0
C776 C 0.243 0.92382 0.65112 0.0
C777 C 0.27045 0.90775 0.67208 0.0
H778 H 0.19231 0.95168 0.65022 0.0
H779 H 0.24638 0.92732 0.62219 0.0
S780 S 0.26785 0.892 0.77134 0.0
N781 N 0.22984 0.91377 0.76246 0.0
N782 N 0.28862 0.88729 0.73204 0.0
C783 C 0.26456 0.90371 0.70953 0.0
C784 C 0.23263 0.91792 0.726 0.0
C785 C 0.31697 0.9629 0.91762 0.0
C786 C 0.3173 0.95737 0.95529 0.0
C787 C 0.33197 0.99416 0.90229 0.0
C788 C 0.34765 0.02131 0.92408 0.0
H789 H 0.30375 0.94361 0.89983 0.0
H790 H 0.32957 0.99778 0.87328 0.0
S791 S 0.35986 0.01763 0.02382 0.0
N792 N 0.33804 0.97987 0.01375 0.0
N793 N 0.36609 0.03877 0.98494 0.0
C794 C 0.35022 0.01507 0.96159 0.0
C795 C 0.33512 0.98306 0.9772 0.0
C796 C 0.27754 0.91592 0.29636 0.0
C797 C 0.29842 0.9414 0.31567 0.0
C798 C 0.24484 0.90271 0.3103 0.0
C799 C 0.23226 0.91385 0.34441 0.0
H800 H 0.28559 0.90734 0.26948 0.0
H801 H 0.22893 0.88419 0.29396 0.0
S802 S 0.27777 0.97853 0.40673 0.0
N803 N 0.30488 0.97623 0.37125 0.0
N804 N 0.24378 0.9508 0.39787 0.0
C805 C 0.25367 0.93805 0.36476 0.0
C806 C 0.28667 0.952 0.35028 0.0
C807 C 0.31773 0.04491 0.58593 0.0
C808 C 0.31603 0.04989 0.54821 0.0
C809 C 0.33328 0.01374 0.60092 0.0
C810 C 0.3475 0.98609 0.57878 0.0
H811 H 0.30568 0.06456 0.60408 0.0
H812 H 0.33241 0.01057 0.63007 0.0
S813 S 0.35428 0.98825 0.47847 0.0
N814 N 0.33337 0.02631 0.4891 0.0
N815 N 0.36244 0.96765 0.51729 0.0
C816 C 0.34809 0.99181 0.54109 0.0
C817 C 0.33241 0.02371 0.52581 0.0
C818 C 0.21295 0.06978 0.8381 0.0
C819 C 0.20726 0.07106 0.80045 0.0
C820 C 0.24418 0.08462 0.8538 0.0
C821 C 0.27115 0.101 0.8324 0.0
H822 H 0.19385 0.05591 0.85552 0.0
H823 H 0.24805 0.08139 0.88271 0.0
S824 S 0.26704 0.11576 0.73306 0.0
N825 N 0.22942 0.09351 0.74257 0.0
N826 N 0.28826 0.1211 0.77207 0.0
C827 C 0.2647 0.10454 0.795 0.0
C828 C 0.23273 0.08968 0.77903 0.0
C829 C 0.17847 0.96022 0.08256 0.0
C830 C 0.18099 0.95681 0.04471 0.0
C831 C 0.16395 0.9914 0.0985 0.0
C832 C 0.15178 0.02059 0.07721 0.0
H833 H 0.18918 0.93932 0.10012 0.0
H834 H 0.16426 0.99335 0.12778 0.0
S835 S 0.14761 0.02297 0.97679 0.0
N836 N 0.16634 0.9835 0.98625 0.0
N837 N 0.13935 0.04231 0.01627 0.0
C838 C 0.15181 0.01647 0.03932 0.0
C839 C 0.16633 0.98451 0.02305 0.0
C840 C 0.18153 0.29709 0.08753 0.0
C841 C 0.20899 0.29438 0.06144 0.0
C842 C 0.16855 0.26598 0.10518 0.0
C843 C 0.18345 0.23156 0.09801 0.0
H844 H 0.1688 0.32297 0.09291 0.0
H845 H 0.14593 0.26869 0.12365 0.0
S846 S 0.25881 0.21152 0.03449 0.0
N847 N 0.25246 0.25562 0.03097 0.0
N848 N 0.22909 0.19744 0.06474 0.0
C849 C 0.2126 0.22916 0.07359 0.0
C850 C 0.22508 0.26055 0.0551 0.0
C851 C 0.66471 0.21039 0.93138 0.0
C852 C 0.70234 0.20468 0.93043 0.0
C853 C 0.64943 0.24248 0.9182 0.0
C854 C 0.67124 0.27026 0.9038 0.0
H855 H 0.64695 0.19061 0.9438 0.0
H856 H 0.62048 0.24616 0.92106 0.0
S857 S 0.77075 0.26643 0.89014 0.0
N858 N 0.76068 0.22773 0.91014 0.0
N859 N 0.73197 0.28813 0.88548 0.0
C860 C 0.70865 0.26386 0.90042 0.0
C861 C 0.7242 0.23104 0.91368 0.0
C862 C 0.01346 0.47047 0.17353 0.0
C863 C 0.04197 0.44962 0.18771 0.0
C864 C 0.9816 0.45412 0.16097 0.0
C865 C 0.97704 0.41624 0.16189 0.0
H866 H 0.01496 0.49979 0.17374 0.0
H867 H 0.95989 0.4715 0.15167 0.0
S868 S 0.0459 0.34923 0.19185 0.0
N869 N 0.06527 0.389 0.19858 0.0
N870 N 0.00556 0.35812 0.17479 0.0
C871 C 0.00643 0.39493 0.17369 0.0
C872 C 0.03883 0.41166 0.18668 0.0
C873 C 0.77242 0.77448 0.42423 0.0
C874 C 0.79446 0.80344 0.43564 0.0
C875 C 0.78739 0.74344 0.40838 0.0
C876 C 0.82502 0.74016 0.40315 0.0
H877 H 0.7435 0.77498 0.42908 0.0
H878 H 0.76937 0.72128 0.40158 0.0
S879 S 0.89386 0.81107 0.42323 0.0
N880 N 0.85523 0.82877 0.437 0.0
N881 N 0.88352 0.77071 0.40691 0.0
C882 C 0.84707 0.77015 0.41205 0.0
C883 C 0.83177 0.80167 0.42841 0.0
C884 C 0.97565 0.03947 0.16404 0.0
C885 C 0.95125 0.06099 0.18384 0.0
C886 C 0.00727 0.0543 0.14924 0.0
C887 C 0.01559 0.0913 0.15338 0.0
H888 H 0.97127 0.01056 0.1614 0.0
H889 H 0.02604 0.03629 0.13567 0.0
S890 S 0.95816 0.16018 0.19914 0.0
N891 N 0.93573 0.12179 0.20398 0.0
N892 N 0.99496 0.14981 0.17603 0.0
C893 C 0.9901 0.11362 0.17098 0.0
C894 C 0.95802 0.09842 0.18629 0.0
C895 C 0.27568 0.73624 0.57958 0.0
C896 C 0.29673 0.70633 0.56899 0.0
C897 C 0.29184 0.76773 0.5933 0.0
C898 C 0.32969 0.77045 0.59718 0.0
H899 H 0.24662 0.73613 0.57549 0.0
H900 H 0.27456 0.79061 0.59948 0.0
S901 S 0.39625 0.69713 0.57887 0.0
N902 N 0.3568 0.67959 0.56719 0.0
N903 N 0.38735 0.73848 0.59337 0.0
C904 C 0.35077 0.73956 0.58931 0.0
C905 C 0.33425 0.7076 0.57507 0.0
C906 C 0.01102 0.53073 0.32566 0.0
C907 C 0.04133 0.55155 0.31579 0.0
C908 C 0.97945 0.54716 0.3387 0.0
C909 C 0.97706 0.58505 0.34264 0.0
H910 H 0.0109 0.50166 0.3215 0.0
H911 H 0.95629 0.53003 0.34434 0.0
S912 S 0.05153 0.65097 0.3264 0.0
N913 N 0.0688 0.61139 0.31483 0.0
N914 N 0.00977 0.64244 0.33987 0.0
C915 C 0.00831 0.60588 0.33553 0.0
C916 C 0.04034 0.5891 0.3219 0.0
C917 C 0.46021 0.41969 0.8159 0.0
C918 C 0.45534 0.45747 0.81552 0.0
C919 C 0.4913 0.40412 0.83103 0.0
C920 C 0.51891 0.42574 0.84612 0.0
H921 H 0.44056 0.40199 0.80313 0.0
H922 H 0.49443 0.375 0.82914 0.0
S923 S 0.517 0.52579 0.85642 0.0
N924 N 0.47896 0.51594 0.83503 0.0
N925 N 0.53749 0.48667 0.86327 0.0
C926 C 0.51331 0.46341 0.84801 0.0
C927 C 0.4815 0.47927 0.83278 0.0
C928 C 0.92865 0.82822 0.70659 0.0
C929 C 0.92991 0.79026 0.70331 0.0
C930 C 0.91513 0.84483 0.73788 0.0
C931 C 0.90255 0.82412 0.7673 0.0
H932 H 0.93966 0.84535 0.68547 0.0
H933 H 0.9164 0.87411 0.73968 0.0
S934 S 0.89491 0.72383 0.77015 0.0
N935 N 0.91359 0.73245 0.73048 0.0
N936 N 0.88825 0.76366 0.78939 0.0
C937 C 0.9013 0.78618 0.76336 0.0
C938 C 0.91493 0.76925 0.73134 0.0
C939 C 0.92043 0.18184 0.46156 0.0
C940 C 0.95822 0.18324 0.45715 0.0
C941 C 0.90493 0.16754 0.493 0.0
C942 C 0.92662 0.15428 0.52141 0.0
H943 H 0.90262 0.19333 0.44128 0.0
H944 H 0.87575 0.16874 0.49575 0.0
S945 S 0.02683 0.14643 0.5208 0.0
N946 N 0.01689 0.16617 0.48194 0.0
N947 N 0.98769 0.13935 0.54119 0.0
C948 C 0.96436 0.15312 0.51625 0.0
C949 C 0.98017 0.16756 0.48408 0.0
C950 C 0.5662 0.17244 0.21099 0.0
C951 C 0.56724 0.21022 0.20607 0.0
C952 C 0.5805 0.15637 0.24221 0.0
C953 C 0.59611 0.17752 0.26986 0.0
H954 H 0.5529 0.15517 0.1913 0.0
H955 H 0.57748 0.12736 0.24547 0.0
S956 S 0.61046 0.27707 0.26771 0.0
N957 N 0.58891 0.26796 0.22956 0.0
N958 N 0.61561 0.23776 0.28836 0.0
C959 C 0.59956 0.21507 0.26415 0.0
C960 C 0.58519 0.23142 0.23222 0.0
C961 C 0.58213 0.81268 0.96059 0.0
C962 C 0.54439 0.81377 0.95566 0.0
C963 C 0.59831 0.82717 0.99172 0.0
C964 C 0.57732 0.84295 0.01935 0.0
H965 H 0.5993 0.79946 0.94082 0.0
H966 H 0.62735 0.82437 0.99482 0.0
S967 S 0.47774 0.85642 0.01771 0.0
N968 N 0.48671 0.83495 0.9795 0.0
N969 N 0.51713 0.8619 0.03818 0.0
C970 C 0.53974 0.84601 0.01386 0.0
C971 C 0.52328 0.83152 0.98197 0.0
C972 C 0.91073 0.19349 0.7973 0.0
C973 C 0.94815 0.20081 0.79832 0.0
C974 C 0.89418 0.18049 0.76551 0.0
C975 C 0.9144 0.17599 0.73364 0.0
H976 H 0.8943 0.19745 0.82126 0.0
H977 H 0.86553 0.17415 0.76576 0.0
S978 S 0.01273 0.19251 0.72179 0.0
N979 N 0.00474 0.20246 0.76463 0.0
N980 N 0.97327 0.18026 0.70471 0.0
C981 C 0.95157 0.18386 0.7342 0.0
C982 C 0.96858 0.19575 0.76663 0.0
C983 C 0.54536 0.21441 0.51188 0.0
C984 C 0.55355 0.20085 0.54644 0.0
C985 C 0.55705 0.19658 0.48068 0.0
C986 C 0.57847 0.16524 0.48292 0.0
H987 H 0.52941 0.23884 0.50888 0.0
H988 H 0.55033 0.2082 0.45458 0.0
S989 S 0.60811 0.11923 0.56696 0.0
N990 N 0.58369 0.15391 0.58133 0.0
N991 N 0.60793 0.12152 0.52224 0.0
C992 C 0.58727 0.15153 0.51727 0.0
C993 C 0.57417 0.16903 0.54919 0.0
C994 C 0.58144 0.77733 0.26901 0.0
C995 C 0.56897 0.79864 0.29801 0.0
C996 C 0.59626 0.79322 0.23795 0.0
C997 C 0.59926 0.83112 0.23459 0.0
H998 H 0.57817 0.74816 0.26944 0.0
H999 H 0.60386 0.77558 0.21576 0.0
S1000 S 0.57598 0.89871 0.30559 0.0
N1001 N 0.56455 0.85932 0.32339 0.0
N1002 N 0.59255 0.88932 0.26514 0.0
C1003 C 0.58951 0.85261 0.26465 0.0
C1004 C 0.57428 0.83635 0.29629 0.0
C1005 C 0.92199 0.82476 0.04186 0.0
C1006 C 0.95983 0.82382 0.0458 0.0
C1007 C 0.9059 0.8383 0.01035 0.0
C1008 C 0.92703 0.85117 0.98134 0.0
H1009 H 0.90458 0.8135 0.06262 0.0
H1010 H 0.87668 0.83682 0.0081 0.0
S1011 S 0.02721 0.85984 0.98044 0.0
N1012 N 0.01798 0.84088 0.01985 0.0
N1013 N 0.98772 0.8662 0.96047 0.0
C1014 C 0.96484 0.85282 0.986 0.0
C1015 C 0.98124 0.83919 0.01827 0.0
C1016 C 0.73021 0.9165 0.77807 0.0
C1017 C 0.70249 0.93105 0.79973 0.0
C1018 C 0.76148 0.9018 0.79362 0.0
C1019 C 0.76623 0.90093 0.83146 0.0
H1020 H 0.72871 0.91819 0.74882 0.0
H1021 H 0.78279 0.8926 0.77569 0.0
S1022 S 0.69864 0.92999 0.90015 0.0
N1023 N 0.6796 0.93962 0.86087 0.0
N1024 N 0.73821 0.91176 0.89025 0.0
C1025 C 0.7373 0.91264 0.85345 0.0
C1026 C 0.70551 0.92782 0.83755 0.0
C1027 C 0.83472 0.98216 0.53288 0.0
C1028 C 0.81893 0.95487 0.55423 0.0
C1029 C 0.85012 0.01302 0.54873 0.0
C1030 C 0.85048 0.01778 0.58659 0.0
H1031 H 0.83357 0.98064 0.5036 0.0
H1032 H 0.86037 0.03403 0.531 0.0
S1033 S 0.81771 0.95129 0.65468 0.0
N1034 N 0.80834 0.93242 0.61521 0.0
N1035 N 0.83742 0.99028 0.64514 0.0
C1036 C 0.83734 0.98928 0.60833 0.0
C1037 C 0.82148 0.9579 0.59212 0.0
C1038 C 0.79095 0.07169 0.33619 0.0
C1039 C 0.79696 0.07491 0.29871 0.0
C1040 C 0.76 0.08641 0.35243 0.0
C1041 C 0.73368 0.10463 0.33174 0.0
H1042 H 0.80953 0.05641 0.35297 0.0
H1043 H 0.75577 0.08166 0.38107 0.0
S1044 S 0.73905 0.12498 0.23349 0.0
N1045 N 0.77594 0.10123 0.24203 0.0
N1046 N 0.71763 0.12858 0.27255 0.0
C1047 C 0.74051 0.11009 0.29467 0.0
C1048 C 0.77218 0.09533 0.27816 0.0
C1049 C 0.68069 0.04219 0.08037 0.0
C1050 C 0.68079 0.04639 0.04254 0.0
C1051 C 0.66578 0.01135 0.09659 0.0
C1052 C 0.65068 0.98327 0.07558 0.0
H1053 H 0.69349 0.06222 0.09763 0.0
H1054 H 0.66794 0.00874 0.12574 0.0
S1055 S 0.63992 0.98328 0.97558 0.0
N1056 N 0.66115 0.02164 0.98462 0.0
N1057 N 0.63329 0.96348 0.0151 0.0
C1058 C 0.64849 0.98821 0.03783 0.0
C1059 C 0.66349 0.01981 0.02131 0.0
C1060 C 0.7349 0.07883 0.72621 0.0
C1061 C 0.70611 0.06683 0.70429 0.0
C1062 C 0.76633 0.09362 0.71099 0.0
C1063 C 0.7702 0.09714 0.6732 0.0
H1064 H 0.73394 0.07524 0.75531 0.0
H1065 H 0.78832 0.10096 0.72901 0.0
S1066 S 0.70006 0.07484 0.60431 0.0
N1067 N 0.68163 0.06306 0.64327 0.0
N1068 N 0.74045 0.09111 0.61449 0.0
C1069 C 0.74043 0.08763 0.65115 0.0
C1070 C 0.70849 0.07237 0.66672 0.0
C1071 C 0.67411 0.98959 0.47695 0.0
C1072 C 0.68446 0.95964 0.45582 0.0
C1073 C 0.66031 0.02102 0.46091 0.0
C1074 C 0.65615 0.02371 0.42307 0.0
H1075 H 0.67832 0.98952 0.506 0.0
H1076 H 0.65424 0.04386 0.47832 0.0
S1077 S 0.67347 0.95024 0.35636 0.0
N1078 N 0.68559 0.93278 0.39569 0.0
N1079 N 0.65927 0.99167 0.36538 0.0
C1080 C 0.66382 0.99284 0.4019 0.0
C1081 C 0.67812 0.96088 0.4183 0.0
C1082 C 0.76955 0.9283 0.22006 0.0
C1083 C 0.79607 0.94496 0.19838 0.0
C1084 C 0.73857 0.91263 0.20467 0.0
C1085 C 0.73299 0.91273 0.16695 0.0
H1086 H 0.77194 0.9286 0.2493 0.0
H1087 H 0.71833 0.90132 0.22264 0.0
S1088 S 0.79635 0.94965 0.09796 0.0
N1089 N 0.81622 0.95821 0.13711 0.0
N1090 N 0.75823 0.92859 0.10805 0.0
C1091 C 0.76038 0.9275 0.1448 0.0
C1092 C 0.79182 0.9437 0.16055 0.0
C1093 C 0.81265 0.04039 0.91113 0.0
C1094 C 0.81501 0.04713 0.94857 0.0
C1095 C 0.82788 0.0092 0.89574 0.0
C1096 C 0.84584 0.98337 0.91726 0.0
H1097 H 0.79767 0.05859 0.89368 0.0
H1098 H 0.82385 0.00449 0.86706 0.0
S1099 S 0.86358 0.99055 0.01603 0.0
N1100 N 0.83988 0.02717 0.00626 0.0
N1101 N 0.86837 0.96853 0.97739 0.0
C1102 C 0.85036 0.99091 0.95438 0.0
C1103 C 0.835 0.02279 0.97002 0.0
C1104 C 0.84052 0.71024 0.9404 0.0
C1105 C 0.8032 0.70321 0.93724 0.0
C1106 C 0.85591 0.74156 0.92551 0.0
C1107 C 0.83448 0.76717 0.90718 0.0
H1108 H 0.8578 0.69221 0.95578 0.0
H1109 H 0.88446 0.74659 0.93011 0.0
S1110 S 0.73641 0.75891 0.88677 0.0
N1111 N 0.74594 0.72243 0.91078 0.0
N1112 N 0.77488 0.78142 0.88307 0.0
C1113 C 0.7976 0.7593 0.90176 0.0
C1114 C 0.78196 0.72728 0.91669 0.0
C1115 C 0.33052 0.79568 0.06969 0.0
C1116 C 0.29285 0.8011 0.06905 0.0
C1117 C 0.34548 0.764 0.08409 0.0
C1118 C 0.32332 0.73632 0.09816 0.0
H1119 H 0.3486 0.81534 0.05753 0.0
H1120 H 0.37454 0.76048 0.08235 0.0
S1121 S 0.22335 0.73973 0.10806 0.0
N1122 N 0.23392 0.77809 0.08767 0.0
N1123 N 0.26207 0.7184 0.1146 0.0
C1124 C 0.28578 0.74254 0.10008 0.0
C1125 C 0.27054 0.77497 0.08558 0.0
C1126 C 0.98189 0.53019 0.83143 0.0
C1127 C 0.9528 0.55216 0.82047 0.0
C1128 C 0.01393 0.54543 0.84494 0.0
C1129 C 0.01806 0.58323 0.8482 0.0
H1130 H 0.98073 0.50108 0.8278 0.0
H1131 H 0.03613 0.52739 0.85141 0.0
S1132 S 0.94732 0.65218 0.82875 0.0
N1133 N 0.92834 0.6132 0.81771 0.0
N1134 N 0.98829 0.64199 0.84343 0.0
C1135 C 0.988 0.60531 0.83997 0.0
C1136 C 0.95546 0.58974 0.82598 0.0
C1137 C 0.2206 0.2353 0.58289 0.0
C1138 C 0.19898 0.20605 0.57149 0.0
C1139 C 0.205 0.2673 0.59603 0.0
C1140 C 0.16713 0.27126 0.59847 0.0
H1141 H 0.24976 0.23428 0.57995 0.0
H1142 H 0.22283 0.28958 0.60295 0.0
S1143 S 0.09884 0.20016 0.57736 0.0
N1144 N 0.13808 0.18133 0.56727 0.0
N1145 N 0.10861 0.24121 0.59225 0.0
C1146 C 0.14533 0.24109 0.58967 0.0
C1147 C 0.16128 0.20858 0.57607 0.0
C1148 C 0.04619 0.92904 0.83473 0.0
C1149 C 0.04522 0.94939 0.80259 0.0
C1150 C 0.01415 0.91492 0.84975 0.0
C1151 C 0.98029 0.92207 0.83379 0.0
H1152 H 0.07184 0.92339 0.84781 0.0
H1153 H 0.01581 0.89853 0.87402 0.0
S1154 S 0.96353 0.97536 0.75029 0.0
N1155 N 0.00789 0.97649 0.75567 0.0
N1156 N 0.9478 0.9512 0.78446 0.0
C1157 C 0.97909 0.94313 0.80214 0.0
C1158 C 0.01158 0.95651 0.7864 0.0
C1159 C 0.71872 0.27985 0.4188 0.0
C1160 C 0.69861 0.30357 0.44085 0.0
C1161 C 0.70302 0.24846 0.40423 0.0
C1162 C 0.66644 0.23999 0.41058 0.0
H1163 H 0.74729 0.28459 0.41413 0.0
H1164 H 0.71991 0.2302 0.38866 0.0
S1165 S 0.60122 0.29512 0.46385 0.0
N1166 N 0.63973 0.31774 0.46652 0.0
N1167 N 0.6099 0.25927 0.43857 0.0
C1168 C 0.64551 0.26462 0.43092 0.0
C1169 C 0.66168 0.29626 0.44623 0.0
C1170 C 0.98343 0.48234 0.67744 0.0
C1171 C 0.95244 0.46146 0.68478 0.0
C1172 C 0.01476 0.46646 0.66316 0.0
C1173 C 0.01624 0.4291 0.65543 0.0
H1174 H 0.98425 0.51081 0.68459 0.0
H1175 H 0.03846 0.48342 0.65969 0.0
S1176 S 0.93969 0.36404 0.66361 0.0
N1177 N 0.92335 0.40266 0.67911 0.0
N1178 N 0.98188 0.37273 0.65165 0.0
C1179 C 0.98431 0.40855 0.65992 0.0
C1180 C 0.95253 0.42473 0.6748 0.0
C1181 C 0.53499 0.58654 0.18502 0.0
C1182 C 0.53999 0.54878 0.18429 0.0
C1183 C 0.50379 0.60243 0.17052 0.0
C1184 C 0.47617 0.58112 0.15505 0.0
H1185 H 0.55469 0.60394 0.19813 0.0
H1186 H 0.50057 0.63148 0.17323 0.0
S1187 S 0.47818 0.48134 0.14221 0.0
N1188 N 0.51638 0.49074 0.16353 0.0
N1189 N 0.45759 0.52059 0.13645 0.0
C1190 C 0.48186 0.54352 0.15208 0.0
C1191 C 0.5138 0.52735 0.16664 0.0
C1192 C 0.5588 0.6657 0.78919 0.0
C1193 C 0.56086 0.70316 0.79601 0.0
C1194 C 0.57332 0.65067 0.75752 0.0
C1195 C 0.59011 0.6726 0.73125 0.0
H1196 H 0.54477 0.64795 0.80785 0.0
H1197 H 0.56977 0.6219 0.75287 0.0
S1198 S 0.60622 0.77169 0.738 0.0
N1199 N 0.58395 0.7614 0.77536 0.0
N1200 N 0.61096 0.73317 0.71574 0.0
C1201 C 0.5941 0.7098 0.73865 0.0
C1202 C 0.57958 0.72507 0.77106 0.0
C1203 C 0.52722 0.33387 0.01983 0.0
C1204 C 0.54869 0.32323 0.04944 0.0
C1205 C 0.54295 0.34729 0.98805 0.0
C1206 C 0.58078 0.35077 0.98466 0.0
H1207 H 0.49813 0.33013 0.02042 0.0
H1208 H 0.52529 0.35357 0.96548 0.0
S1209 S 0.64852 0.33193 0.05682 0.0
N1210 N 0.60928 0.32082 0.07508 0.0
N1211 N 0.63899 0.34636 0.0156 0.0
C1212 C 0.60235 0.34273 0.01517 0.0
C1213 C 0.58627 0.32884 0.04747 0.0
C1214 C 0.91848 0.27377 0.27398 0.0
C1215 C 0.92972 0.29556 0.30315 0.0
C1216 C 0.90224 0.289 0.2433 0.0
C1217 C 0.89647 0.32664 0.24066 0.0
H1218 H 0.92402 0.24494 0.2739 0.0
H1219 H 0.89584 0.27124 0.2208 0.0
S1220 S 0.91485 0.39447 0.31292 0.0
N1221 N 0.92965 0.35581 0.32978 0.0
N1222 N 0.8987 0.38458 0.27239 0.0
C1223 C 0.90476 0.34827 0.27108 0.0
C1224 C 0.92157 0.33272 0.30221 0.0
C1225 C 0.90743 0.68852 0.53859 0.0
C1226 C 0.9446 0.6848 0.54568 0.0
C1227 C 0.89222 0.67544 0.50633 0.0
C1228 C 0.9138 0.65882 0.47959 0.0
H1229 H 0.89009 0.70249 0.55769 0.0
H1230 H 0.86363 0.68001 0.50164 0.0
S1231 S 0.01249 0.64099 0.48582 0.0
N1232 N 0.00244 0.66168 0.52417 0.0
N1233 N 0.97399 0.63768 0.4633 0.0
C1234 C 0.95083 0.65379 0.48694 0.0
C1235 C 0.96619 0.66662 0.52005 0.0
C1236 C 0.56741 0.33837 0.70921 0.0
C1237 C 0.56724 0.30063 0.70402 0.0
C1238 C 0.5818 0.3538 0.74075 0.0
C1239 C 0.59624 0.33205 0.76854 0.0
H1240 H 0.55499 0.35613 0.68944 0.0
H1241 H 0.5798 0.38289 0.74407 0.0
S1242 S 0.60666 0.23204 0.76608 0.0
N1243 N 0.58623 0.24206 0.72759 0.0
N1244 N 0.61305 0.27107 0.78703 0.0
C1245 C 0.59839 0.29443 0.76265 0.0
C1246 C 0.58398 0.27872 0.73034 0.0
C1247 C 0.95625 0.29516 0.9966 0.0
C1248 C 0.94774 0.31003 0.96272 0.0
C1249 C 0.94181 0.30968 0.02834 0.0
C1250 C 0.91756 0.33897 0.02718 0.0
H1251 H 0.97422 0.27203 0.99856 0.0
H1252 H 0.94872 0.29701 0.0539 0.0
S1253 S 0.88682 0.38757 0.94496 0.0
N1254 N 0.91462 0.35606 0.92949 0.0
N1255 N 0.88581 0.38256 0.98945 0.0
C1256 C 0.90884 0.35418 0.99342 0.0
C1257 C 0.92446 0.33995 0.96104 0.0
C1258 C 0.92636 0.73333 0.23169 0.0
C1259 C 0.93605 0.71207 0.20159 0.0
C1260 C 0.91029 0.71775 0.26232 0.0
C1261 C 0.90306 0.6803 0.26398 0.0
H1262 H 0.93281 0.76197 0.23238 0.0
H1263 H 0.90488 0.73506 0.2854 0.0
S1264 S 0.91806 0.61389 0.18965 0.0
N1265 N 0.93369 0.65254 0.17352 0.0
N1266 N 0.90303 0.62316 0.23071 0.0
C1267 C 0.91024 0.65924 0.23288 0.0
C1268 C 0.9269 0.67512 0.20183 0.0
C1269 C 0.59016 0.7054 0.4644 0.0
C1270 C 0.55801 0.69122 0.4496 0.0
C1271 C 0.60498 0.69116 0.49626 0.0
C1272 C 0.58787 0.66261 0.51478 0.0
H1273 H 0.60336 0.72848 0.45199 0.0
H1274 H 0.62902 0.70383 0.50742 0.0
S1275 S 0.5055 0.61326 0.48565 0.0
N1276 N 0.51138 0.64466 0.45435 0.0
N1277 N 0.53895 0.61872 0.51488 0.0
C1278 C 0.55669 0.64712 0.4996 0.0
C1279 C 0.54188 0.66116 0.46678 0.0
C1280 C 0.79178 0.575 0.67115 0.0
C1281 C 0.79537 0.57296 0.70898 0.0
C1282 C 0.76059 0.58933 0.65518 0.0
C1283 C 0.73151 0.60192 0.6764 0.0
H1284 H 0.81263 0.56416 0.65359 0.0
H1285 H 0.75867 0.58882 0.62591 0.0
S1286 S 0.72955 0.60743 0.77672 0.0
N1287 N 0.76889 0.58838 0.76737 0.0
N1288 N 0.71 0.6151 0.73724 0.0
C1289 C 0.73566 0.60215 0.71427 0.0
C1290 C 0.76765 0.58777 0.73058 0.0
C1291 C 0.67409 0.52151 0.97502 0.0
C1292 C 0.68835 0.54971 0.95377 0.0
C1293 C 0.65924 0.49044 0.95899 0.0
C1294 C 0.65782 0.48648 0.92107 0.0
H1295 H 0.676 0.52257 0.00428 0.0
H1296 H 0.65008 0.46881 0.97655 0.0
S1297 S 0.68678 0.55522 0.85347 0.0
N1298 N 0.69673 0.57358 0.89303 0.0
N1299 N 0.6685 0.51549 0.86274 0.0
C1300 C 0.66963 0.51574 0.89955 0.0
C1301 C 0.68503 0.54724 0.91593 0.0
C1302 C 0.70235 0.43365 0.16813 0.0
C1303 C 0.69648 0.4334 0.20576 0.0
C1304 C 0.73376 0.41866 0.15311 0.0
C1305 C 0.76064 0.40309 0.1752 0.0
H1306 H 0.68331 0.44689 0.15018 0.0
H1307 H 0.73777 0.42109 0.12416 0.0
S1308 S 0.75573 0.39068 0.27487 0.0
N1309 N 0.71818 0.41254 0.26442 0.0
N1310 N 0.77727 0.38447 0.23621 0.0
C1311 C 0.7539 0.40038 0.21262 0.0
C1312 C 0.72181 0.4155 0.2279 0.0
C1313 C 0.83309 0.48217 0.46308 0.0
C1314 C 0.81161 0.45775 0.44312 0.0
C1315 C 0.84528 0.51467 0.44768 0.0
C1316 C 0.83704 0.52352 0.41158 0.0
H1317 H 0.8391 0.477 0.49133 0.0
H1318 H 0.86068 0.5333 0.46438 0.0
S1319 S 0.78361 0.46737 0.34715 0.0
N1320 N 0.78395 0.44369 0.38505 0.0
N1321 N 0.80734 0.50432 0.35577 0.0
C1322 C 0.81694 0.49847 0.39084 0.0
C1323 C 0.80407 0.4657 0.40672 0.0
C1324 C 0.79296 0.43644 0.83581 0.0
C1325 C 0.79812 0.43657 0.79809 0.0
C1326 C 0.76161 0.4217 0.85118 0.0
C1327 C 0.73404 0.40675 0.8294 0.0
H1328 H 0.8125 0.44927 0.85359 0.0
H1329 H 0.75823 0.42387 0.88024 0.0
S1330 S 0.73702 0.39522 0.72957 0.0
N1331 N 0.77509 0.4165 0.73959 0.0
N1332 N 0.71603 0.38896 0.76852 0.0
C1333 C 0.74006 0.40434 0.79185 0.0
C1334 C 0.77213 0.41919 0.77619 0.0
C1335 C 0.81567 0.54054 0.09006 0.0
C1336 C 0.81833 0.54611 0.05248 0.0
C1337 C 0.82843 0.50865 0.10607 0.0
C1338 C 0.84407 0.48093 0.08507 0.0
H1339 H 0.80227 0.56028 0.10714 0.0
H1340 H 0.82424 0.50503 0.13488 0.0
S1341 S 0.86218 0.48442 0.98626 0.0
N1342 N 0.84143 0.523 0.99522 0.0
N1343 N 0.86526 0.46294 0.02533 0.0
C1344 C 0.8491 0.4872 0.04782 0.0
C1345 C 0.8363 0.51982 0.03153 0.0
C1346 C 0.70329 0.57282 0.32975 0.0
C1347 C 0.69843 0.57034 0.29208 0.0
C1348 C 0.73432 0.58885 0.34455 0.0
C1349 C 0.76199 0.60279 0.32228 0.0
H1350 H 0.68358 0.56113 0.34806 0.0
H1351 H 0.73729 0.58863 0.37374 0.0
S1352 S 0.76039 0.60689 0.22182 0.0
N1353 N 0.72227 0.58621 0.23271 0.0
N1354 N 0.78078 0.61615 0.26055 0.0
C1355 C 0.75649 0.6024 0.28455 0.0
C1356 C 0.72468 0.58624 0.26945 0.0
C1357 C 0.66748 0.46213 0.5674 0.0
C1358 C 0.70219 0.46354 0.55181 0.0
C1359 C 0.65095 0.49369 0.58092 0.0
C1360 C 0.6681 0.52758 0.57777 0.0
H1361 H 0.65345 0.43646 0.56984 0.0
H1362 H 0.62462 0.49167 0.59369 0.0
S1363 S 0.75848 0.54564 0.5379 0.0
N1364 N 0.7529 0.50145 0.5337 0.0
N1365 N 0.72134 0.56069 0.55767 0.0
C1366 C 0.70242 0.52929 0.56152 0.0
C1367 C 0.7196 0.49725 0.54885 0.0
C1368 C 0.72263 0.77648 0.58487 0.0
C1369 C 0.701 0.80507 0.57208 0.0
C1370 C 0.70705 0.74502 0.59914 0.0
C1371 C 0.66919 0.74092 0.60126 0.0
H1372 H 0.75181 0.77747 0.58208 0.0
H1373 H 0.72492 0.72309 0.60685 0.0
S1374 S 0.60089 0.81107 0.57795 0.0
N1375 N 0.64012 0.82959 0.56711 0.0
N1376 N 0.61065 0.7706 0.59423 0.0
C1377 C 0.64737 0.77071 0.59156 0.0
C1378 C 0.66331 0.80273 0.57684 0.0
C1379 C 0.22226 0.73756 0.42641 0.0
C1380 C 0.20116 0.70722 0.4357 0.0
C1381 C 0.20626 0.76919 0.41293 0.0
C1382 C 0.16854 0.77163 0.4079 0.0
H1383 H 0.25119 0.73762 0.43127 0.0
H1384 H 0.22354 0.79232 0.40765 0.0
S1385 S 0.10192 0.69751 0.42316 0.0
N1386 N 0.14118 0.68005 0.43547 0.0
N1387 N 0.11097 0.73918 0.40971 0.0
C1388 C 0.14743 0.74046 0.41467 0.0
C1389 C 0.16377 0.70836 0.42871 0.0
C1390 C 0.52149 0.97584 0.67172 0.0
C1391 C 0.55086 0.95406 0.68228 0.0
C1392 C 0.48978 0.96048 0.65765 0.0
C1393 C 0.48625 0.92271 0.65343 0.0
H1394 H 0.52214 0.00486 0.67613 0.0
H1395 H 0.46733 0.97834 0.65158 0.0
S1396 S 0.55814 0.85443 0.671 0.0
N1397 N 0.57639 0.89339 0.68332 0.0
N1398 N 0.51703 0.86434 0.6565 0.0
C1399 C 0.51665 0.90089 0.66111 0.0
C1400 C 0.54888 0.9166 0.67567 0.0
C1401 C 0.28784 0.2787 0.91618 0.0
C1402 C 0.30827 0.30288 0.93754 0.0
C1403 C 0.30299 0.24653 0.90293 0.0
C1404 C 0.33929 0.23766 0.91004 0.0
H1405 H 0.2594 0.28374 0.91105 0.0
H1406 H 0.2859 0.22808 0.88776 0.0
S1407 S 0.40511 0.29328 0.96237 0.0
N1408 N 0.36714 0.3168 0.96354 0.0
N1409 N 0.39591 0.25669 0.93831 0.0
C1410 C 0.36055 0.26254 0.92984 0.0
C1411 C 0.34496 0.29506 0.94369 0.0
C1412 C 0.45838 0.58574 0.67715 0.0
C1413 C 0.45428 0.5479 0.67876 0.0
C1414 C 0.48939 0.60153 0.66207 0.0
C1415 C 0.5178 0.58012 0.64828 0.0
H1416 H 0.43816 0.60338 0.68899 0.0
H1417 H 0.49184 0.63077 0.6631 0.0
S1418 S 0.51803 0.47977 0.6412 0.0
N1419 N 0.47942 0.48942 0.66154 0.0
N1420 N 0.53785 0.51912 0.63344 0.0
C1421 C 0.51293 0.5423 0.64745 0.0
C1422 C 0.48116 0.52619 0.66262 0.0
C1423 C 0.82822 0.20743 0.0679 0.0
C1424 C 0.79051 0.20281 0.06542 0.0
C1425 C 0.84324 0.23813 0.08443 0.0
C1426 C 0.82113 0.26569 0.09881 0.0
H1427 H 0.84638 0.18779 0.05585 0.0
H1428 H 0.87244 0.24103 0.08422 0.0
S1429 S 0.7207 0.26459 0.10316 0.0
N1430 N 0.73132 0.22673 0.08182 0.0
N1431 N 0.75957 0.28461 0.11262 0.0
C1432 C 0.78338 0.26041 0.0984 0.0
C1433 C 0.76807 0.22894 0.0818 0.0
C1434 C 0.51947 0.02593 0.8268 0.0
C1435 C 0.54994 0.04688 0.81761 0.0
C1436 C 0.48833 0.04198 0.8413 0.0
C1437 C 0.48651 0.07961 0.84737 0.0
H1438 H 0.51892 0.99713 0.82113 0.0
H1439 H 0.46504 0.02486 0.84637 0.0
S1440 S 0.56149 0.1455 0.83332 0.0
N1441 N 0.57808 0.1064 0.81937 0.0
N1442 N 0.51989 0.13669 0.84709 0.0
C1443 C 0.5179 0.10044 0.8408 0.0
C1444 C 0.5495 0.08406 0.82575 0.0
C1445 C 0.97926 0.97708 0.32797 0.0
C1446 C 0.95228 0.95626 0.31086 0.0
C1447 C 0.01035 0.96086 0.34244 0.0
C1448 C 0.01561 0.92311 0.34062 0.0
H1449 H 0.97712 0.00634 0.32895 0.0
H1450 H 0.03088 0.97824 0.35422 0.0
S1451 S 0.95096 0.85608 0.30199 0.0
N1452 N 0.93135 0.8957 0.29539 0.0
N1453 N 0.98954 0.86506 0.32274 0.0
C1454 C 0.98779 0.90177 0.32536 0.0
C1455 C 0.95623 0.91838 0.3104 0.0
C1456 C 0.41839 0.28164 0.23138 0.0
C1457 C 0.43155 0.30382 0.20337 0.0
C1458 C 0.40273 0.29661 0.26252 0.0
C1459 C 0.39939 0.33438 0.26681 0.0
H1460 H 0.42183 0.25251 0.23016 0.0
H1461 H 0.3946 0.27839 0.28402 0.0
S1462 S 0.42434 0.40394 0.19836 0.0
N1463 N 0.43648 0.36509 0.17983 0.0
N1464 N 0.4067 0.39341 0.23804 0.0
C1465 C 0.40993 0.35672 0.23764 0.0
C1466 C 0.42615 0.3414 0.20604 0.0
C1467 C 0.40986 0.68698 0.95979 0.0
C1468 C 0.44741 0.68439 0.954 0.0
C1469 C 0.39391 0.6733 0.99133 0.0
C1470 C 0.41495 0.6568 0.01849 0.0
H1471 H 0.39277 0.70099 0.9405 0.0
H1472 H 0.36513 0.67743 0.99517 0.0
S1473 S 0.5137 0.63867 0.01421 0.0
N1474 N 0.50468 0.66053 0.97627 0.0
N1475 N 0.47469 0.63503 0.0357 0.0
C1476 C 0.45217 0.65193 0.01199 0.0
C1477 C 0.46839 0.66564 0.9797 0.0
C1478 C 0.07745 0.72427 0.73212 0.0
C1479 C 0.06765 0.70198 0.70282 0.0
C1480 C 0.09221 0.70948 0.76383 0.0
C1481 C 0.098 0.67189 0.76724 0.0
H1482 H 0.0717 0.75304 0.73144 0.0
H1483 H 0.09754 0.72752 0.78638 0.0
S1484 S 0.08294 0.60303 0.6951 0.0
N1485 N 0.06884 0.64143 0.67711 0.0
N1486 N 0.09728 0.6135 0.73615 0.0
C1487 C 0.09109 0.64981 0.73676 0.0
C1488 C 0.07567 0.66488 0.70472 0.0
C1489 C 0.02575 0.33165 0.48313 0.0
C1490 C 0.04753 0.32072 0.45388 0.0
C1491 C 0.04102 0.3467 0.51443 0.0
C1492 C 0.07871 0.35157 0.51769 0.0
H1493 H 0.9968 0.32686 0.48271 0.0
H1494 H 0.02317 0.35302 0.53682 0.0
S1495 S 0.14687 0.33335 0.44588 0.0
N1496 N 0.10807 0.31996 0.4281 0.0
N1497 N 0.13694 0.34865 0.48671 0.0
C1498 C 0.10049 0.34347 0.48737 0.0
C1499 C 0.08487 0.32789 0.45555 0.0
C1500 C 0.42977 0.66738 0.29193 0.0
C1501 C 0.42952 0.7051 0.29739 0.0
C1502 C 0.41428 0.65189 0.26096 0.0
C1503 C 0.39831 0.67358 0.23401 0.0
H1504 H 0.44336 0.64971 0.311 0.0
H1505 H 0.41675 0.62287 0.25727 0.0
S1506 S 0.38612 0.77336 0.23779 0.0
N1507 N 0.40845 0.76346 0.27525 0.0
N1508 N 0.37952 0.73437 0.21681 0.0
C1509 C 0.39565 0.71111 0.24034 0.0
C1510 C 0.41119 0.72687 0.2721 0.0
C1511 C 0.03051 0.67699 0.01905 0.0
C1512 C 0.05231 0.68903 0.04792 0.0
C1513 C 0.04586 0.66223 0.98766 0.0
C1514 C 0.08364 0.6587 0.98394 0.0
H1515 H 0.00141 0.68056 0.01989 0.0
H1516 H 0.02794 0.65481 0.96561 0.0
S1517 S 0.15229 0.68143 0.05419 0.0
N1518 N 0.11325 0.69306 0.07253 0.0
N1519 N 0.14226 0.66502 0.0138 0.0
C1520 C 0.10559 0.6683 0.01377 0.0
C1521 C 0.08989 0.68358 0.04565 0.0
C1522 C 0.0857 0.3269 0.79743 0.0
C1523 C 0.05119 0.31075 0.79684 0.0
C1524 C 0.10169 0.33978 0.76535 0.0
C1525 C 0.08425 0.33531 0.73177 0.0
H1526 H 0.10009 0.33009 0.82282 0.0
H1527 H 0.12787 0.35298 0.76673 0.0
S1528 S 0.99416 0.29373 0.71582 0.0
N1529 N 0.00022 0.29099 0.76003 0.0
N1530 N 0.03092 0.31352 0.69983 0.0
C1531 C 0.05008 0.31861 0.73089 0.0
C1532 C 0.03338 0.3067 0.76345 0.0
C1533 C 0.42681 0.34036 0.54589 0.0
C1534 C 0.44033 0.30473 0.54554 0.0
C1535 C 0.41334 0.35639 0.51405 0.0
C1536 C 0.41464 0.33775 0.48086 0.0
H1537 H 0.42631 0.35571 0.57091 0.0
H1538 H 0.40234 0.38356 0.51526 0.0
S1539 S 0.44839 0.24446 0.46545 0.0
N1540 N 0.45389 0.25139 0.50929 0.0
N1541 N 0.43062 0.28221 0.44944 0.0
C1542 C 0.42856 0.30241 0.48018 0.0
C1543 C 0.44094 0.28571 0.51257 0.0
C1544 C 0.22687 0.42586 0.27847 0.0
C1545 C 0.19734 0.43667 0.2999 0.0
C1546 C 0.25838 0.41194 0.2942 0.0
C1547 C 0.26157 0.4081 0.33201 0.0
H1548 H 0.22643 0.4298 0.2494 0.0
H1549 H 0.28091 0.40553 0.27657 0.0
S1550 S 0.18926 0.42674 0.39952 0.0
N1551 N 0.17136 0.43864 0.36032 0.0
N1552 N 0.23039 0.41205 0.3901 0.0
C1553 C 0.23108 0.41622 0.35352 0.0
C1554 C 0.19904 0.43068 0.33743 0.0
C1555 C 0.324 0.48712 0.02373 0.0
C1556 C 0.31766 0.45553 0.044 0.0
C1557 C 0.33614 0.51897 0.04034 0.0
C1558 C 0.34248 0.52055 0.07794 0.0
H1559 H 0.31772 0.48794 0.99507 0.0
H1560 H 0.33894 0.54294 0.02367 0.0
S1561 S 0.3367 0.4431 0.14191 0.0
N1562 N 0.32335 0.42619 0.10268 0.0
N1563 N 0.34649 0.48603 0.13403 0.0
C1564 C 0.3392 0.48824 0.098 0.0
C1565 C 0.32669 0.45576 0.08102 0.0
C1566 C 0.26888 0.57861 0.77465 0.0
C1567 C 0.29928 0.56929 0.7956 0.0
C1568 C 0.23718 0.59172 0.79085 0.0
C1569 C 0.23469 0.59622 0.82867 0.0
H1570 H 0.26881 0.57402 0.74566 0.0
H1571 H 0.21403 0.59698 0.77361 0.0
S1572 S 0.30907 0.5812 0.89492 0.0
N1573 N 0.32653 0.56928 0.85553 0.0
N1574 N 0.26727 0.59433 0.88611 0.0
C1575 C 0.26593 0.58952 0.84962 0.0
C1576 C 0.29812 0.57591 0.83307 0.0
C1577 C 0.17047 0.52298 0.52849 0.0
C1578 C 0.18116 0.55268 0.54986 0.0
C1579 C 0.15702 0.49128 0.54432 0.0
C1580 C 0.15355 0.48807 0.58217 0.0
H1581 H 0.17425 0.52341 0.4994 0.0
H1582 H 0.15071 0.46862 0.52673 0.0
S1583 S 0.17208 0.5607 0.6496 0.0
N1584 N 0.18336 0.57874 0.61031 0.0
N1585 N 0.15771 0.51937 0.64025 0.0
C1586 C 0.16149 0.51872 0.60363 0.0
C1587 C 0.17543 0.55095 0.58743 0.0
C1588 C 0.20228 0.56795 0.16632 0.0
C1589 C 0.19707 0.56869 0.20405 0.0
C1590 C 0.23351 0.58267 0.15057 0.0
C1591 C 0.26091 0.59841 0.17199 0.0
H1592 H 0.1828 0.5546 0.14886 0.0
H1593 H 0.23696 0.57992 0.12156 0.0
S1594 S 0.25807 0.61175 0.27163 0.0
N1595 N 0.22014 0.59002 0.26209 0.0
N1596 N 0.27889 0.61746 0.23251 0.0
C1597 C 0.25493 0.60146 0.20951 0.0
C1598 C 0.22301 0.58667 0.22553 0.0
C1599 C 0.16964 0.48203 0.97503 0.0
C1600 C 0.17901 0.45218 0.95332 0.0
C1601 C 0.15695 0.51426 0.9595 0.0
C1602 C 0.15288 0.51768 0.9217 0.0
H1603 H 0.17434 0.48138 0.00399 0.0
H1604 H 0.15192 0.53714 0.97718 0.0
S1605 S 0.16746 0.44455 0.85386 0.0
N1606 N 0.17905 0.42616 0.8929 0.0
N1607 N 0.15458 0.48626 0.86354 0.0
C1608 C 0.15918 0.48677 0.90008 0.0
C1609 C 0.17244 0.45415 0.91593 0.0
C1610 C 0.26717 0.42743 0.72614 0.0
C1611 C 0.29726 0.43565 0.70428 0.0
C1612 C 0.23515 0.41359 0.71106 0.0
C1613 C 0.23207 0.40721 0.67355 0.0
H1614 H 0.26762 0.4335 0.75485 0.0
H1615 H 0.21219 0.40937 0.7288 0.0
S1616 S 0.30557 0.41865 0.60564 0.0
N1617 N 0.32363 0.43257 0.64413 0.0
N1618 N 0.26388 0.40603 0.61567 0.0
C1619 C 0.26306 0.41275 0.65188 0.0
C1620 C 0.29552 0.42715 0.66725 0.0
C1621 C 0.32331 0.52005 0.47741 0.0
C1622 C 0.31458 0.55035 0.45606 0.0
C1623 C 0.33699 0.48829 0.46176 0.0
C1624 C 0.34266 0.48566 0.42414 0.0
H1625 H 0.31783 0.52011 0.50624 0.0
H1626 H 0.34164 0.46517 0.47919 0.0
S1627 S 0.32975 0.55986 0.35724 0.0
N1628 N 0.31647 0.57743 0.39615 0.0
N1629 N 0.34269 0.51811 0.3666 0.0
C1630 C 0.33664 0.51687 0.4029 0.0
C1631 C 0.32242 0.54909 0.41887 0.0
C1632 C 0.32749 0.21063 0.43356 0.0
C1633 C 0.28975 0.20662 0.43648 0.0
C1634 C 0.34279 0.24166 0.41802 0.0
C1635 C 0.32098 0.27023 0.40528 0.0
H1636 H 0.34548 0.19022 0.44452 0.0
H1637 H 0.37201 0.24392 0.41773 0.0
S1638 S 0.22047 0.27092 0.40223 0.0
N1639 N 0.23075 0.23209 0.42185 0.0
N1640 N 0.25953 0.29066 0.39306 0.0
C1641 C 0.28314 0.26552 0.40593 0.0
C1642 C 0.26753 0.23368 0.42143 0.0
C1643 C 0.80247 0.2629 0.54143 0.0
C1644 C 0.80506 0.29629 0.5595 0.0
C1645 C 0.81534 0.23112 0.55738 0.0
C1646 C 0.83211 0.23185 0.59151 0.0
H1647 H 0.79016 0.26131 0.51481 0.0
H1648 H 0.81311 0.20593 0.54242 0.0
S1649 S 0.84606 0.31253 0.64963 0.0
N1650 N 0.82494 0.32838 0.61345 0.0
N1651 N 0.85106 0.26852 0.64283 0.0
C1652 C 0.83516 0.26507 0.60982 0.0
C1653 C 0.82101 0.29739 0.59399 0.0
C1654 C 0.45944 0.08423 0.31905 0.0
C1655 C 0.45551 0.04632 0.31997 0.0
C1656 C 0.49054 0.10117 0.33278 0.0
C1657 C 0.51913 0.08084 0.34768 0.0
H1658 H 0.43892 0.10096 0.30644 0.0
H1659 H 0.49283 0.13031 0.33005 0.0
S1660 S 0.52037 0.98104 0.36048 0.0
N1661 N 0.4814 0.98916 0.34011 0.0
N1662 N 0.53992 0.02095 0.36573 0.0
C1663 C 0.51463 0.04306 0.35067 0.0
C1664 C 0.48282 0.02582 0.3369 0.0
C1665 C 0.67036 0.70951 0.06904 0.0
C1666 C 0.7082 0.70541 0.06884 0.0
C1667 C 0.65415 0.74078 0.08304 0.0
C1668 C 0.67518 0.76939 0.09708 0.0
H1669 H 0.65308 0.689 0.05705 0.0
H1670 H 0.62498 0.74319 0.08113 0.0
S1671 S 0.7752 0.77007 0.10718 0.0
N1672 N 0.76616 0.73101 0.08727 0.0
N1673 N 0.73567 0.78997 0.11337 0.0
C1674 C 0.71294 0.7647 0.09908 0.0
C1675 C 0.72945 0.73267 0.08504 0.0
C1676 C 0.53526 0.41695 0.31551 0.0
C1677 C 0.54138 0.45452 0.31768 0.0
C1678 C 0.50403 0.40123 0.33021 0.0
C1679 C 0.4775 0.42253 0.34739 0.0
H1680 H 0.554 0.39963 0.30104 0.0
H1681 H 0.49984 0.37244 0.32629 0.0
S1682 S 0.48297 0.5215 0.36472 0.0
N1683 N 0.52019 0.51211 0.34182 0.0
N1684 N 0.46136 0.48259 0.36926 0.0
C1685 C 0.48442 0.45979 0.35184 0.0
C1686 C 0.51639 0.47577 0.33706 0.0
C1687 C 0.16978 0.7944 0.92996 0.0
C1688 C 0.20749 0.79857 0.93297 0.0
C1689 C 0.15461 0.76268 0.91572 0.0
C1690 C 0.17654 0.73366 0.90421 0.0
H1691 H 0.15169 0.81521 0.93997 0.0
H1692 H 0.12537 0.76036 0.91544 0.0
S1693 S 0.27708 0.73294 0.90198 0.0
N1694 N 0.26661 0.77257 0.91991 0.0
N1695 N 0.23809 0.71279 0.89329 0.0
C1696 C 0.21437 0.73842 0.90493 0.0
C1697 C 0.22984 0.77091 0.91925 0.0
C1698 C 0.47921 0.97017 0.17245 0.0
C1699 C 0.45264 0.94813 0.18851 0.0
C1700 C 0.51062 0.95508 0.15743 0.0
C1701 C 0.51646 0.91737 0.15758 0.0
H1702 H 0.47669 -0.0006 0.17318 0.0
H1703 H 0.53107 0.97328 0.14686 0.0
S1704 S 0.45219 0.84768 0.19173 0.0
N1705 N 0.43218 0.88669 0.20038 0.0
N1706 N 0.4908 0.85814 0.17181 0.0
C1707 C 0.48871 0.89492 0.17123 0.0
C1708 C 0.45694 0.91036 0.18683 0.0
C1709 C 0.0228 0.07656 0.72 0.0
C1710 C 0.05038 0.06134 0.6986 0.0
C1711 C 0.99059 0.08883 0.70442 0.0
C1712 C 0.98495 0.08657 0.66692 0.0
H1713 H 0.02556 0.07805 0.74918 0.0
H1714 H 0.96977 0.09991 0.72188 0.0
S1715 S 0.04928 0.05205 0.59842 0.0
N1716 N 0.07046 0.0465 0.63749 0.0
N1717 N 0.00966 0.07032 0.60833 0.0
C1718 C 0.01245 0.07264 0.64494 0.0
C1719 C 0.0453 0.05983 0.66078 0.0
loop_
_geom_bond_atom_site_label_1
_geom_bond_atom_site_label_2
_geom_bond_distance
_geom_bond_site_symmetry_2
_ccdc_geom_bond_type
In0 O1 2.294 . S
In0 O2 2.326 1_455 S
In0 O6 2.266 . S
In0 O7 2.326 1_455 S
In0 O8 2.266 1_455 S
In0 O9 2.326 . S
In0 O11 2.294 1_455 S
In0 O12 2.326 . S
O1 In0 2.294 . S
O1 C10 1.240 . S
O2 In0 2.326 1_655 S
O2 C10 1.252 1_655 S
C3 O6 1.252 . S
C3 O7 1.260 1_455 S
C4 O11 1.240 . S
C4 O12 1.252 1_655 S
C5 O8 1.252 . S
C5 O9 1.260 1_655 S
O6 In0 2.266 . S
O6 C3 1.252 . S
O7 In0 2.326 1_655 S
O7 C3 1.260 1_655 S
O8 In0 2.266 1_655 S
O8 C5 1.252 . S
O9 In0 2.326 . S
O9 C5 1.260 1_455 S
C10 O1 1.240 . S
C10 O2 1.252 1_455 S
O11 In0 2.294 1_655 S
O11 C4 1.240 . S
O12 In0 2.326 . S
O12 C4 1.252 1_455 S
In13 O14 2.294 1_455 S
In13 O15 2.326 1_455 S
In13 O19 2.266 . S
In13 O20 2.326 . S
In13 O21 2.266 1_455 S
In13 O22 2.326 1_455 S
In13 O24 2.294 . S
In13 O25 2.326 . S
O14 In13 2.294 1_655 S
O14 C23 1.240 . S
O15 In13 2.326 1_655 S
O15 C23 1.252 . S
C16 O19 1.252 . S
C16 O20 1.260 . S
C17 O24 1.240 . S
C17 O25 1.252 . S
C18 O21 1.252 . S
C18 O22 1.260 . S
O19 In13 2.266 . S
O19 C16 1.252 . S
O20 In13 2.326 . S
O20 C16 1.260 . S
O21 In13 2.266 1_655 S
O21 C18 1.252 . S
O22 In13 2.326 1_655 S
O22 C18 1.260 . S
C23 O14 1.240 . S
C23 O15 1.252 . S
O24 In13 2.294 . S
O24 C17 1.240 . S
O25 In13 2.326 . S
O25 C17 1.252 . S
In26 O27 2.294 . S
In26 O28 2.326 . S
In26 O32 2.266 . S
In26 O33 2.326 . S
In26 O34 2.266 . S
In26 O35 2.326 . S
In26 O37 2.294 . S
In26 O38 2.326 . S
O27 In26 2.294 . S
O27 C36 1.240 . S
O28 In26 2.326 . S
O28 C36 1.252 . S
C29 O32 1.252 . S
C29 O33 1.260 . S
C30 O37 1.240 . S
C30 O38 1.252 . S
C31 O34 1.252 . S
C31 O35 1.260 . S
O32 In26 2.266 . S
O32 C29 1.252 . S
O33 In26 2.326 . S
O33 C29 1.260 . S
O34 In26 2.266 . S
O34 C31 1.252 . S
O35 In26 2.326 . S
O35 C31 1.260 . S
C36 O27 1.240 . S
C36 O28 1.252 . S
O37 In26 2.294 . S
O37 C30 1.240 . S
O38 In26 2.326 . S
O38 C30 1.252 . S
In39 O40 2.294 . S
In39 O41 2.326 . S
In39 O45 2.266 . S
In39 O46 2.326 . S
In39 O47 2.266 . S
In39 O48 2.326 . S
In39 O50 2.294 . S
In39 O51 2.326 . S
O40 In39 2.294 . S
O40 C49 1.240 . S
O41 In39 2.326 . S
O41 C49 1.252 . S
C42 O45 1.252 . S
C42 O46 1.260 . S
C43 O50 1.240 . S
C43 O51 1.252 . S
C44 O47 1.252 . S
C44 O48 1.260 . S
O45 In39 2.266 . S
O45 C42 1.252 . S
O46 In39 2.326 . S
O46 C42 1.260 . S
O47 In39 2.266 . S
O47 C44 1.252 . S
O48 In39 2.326 . S
O48 C44 1.260 . S
C49 O40 1.240 . S
C49 O41 1.252 . S
O50 In39 2.294 . S
O50 C43 1.240 . S
O51 In39 2.326 . S
O51 C43 1.252 . S
In52 O53 2.279 1_455 S
In52 O54 2.328 . S
In52 O58 2.252 1_455 S
In52 O59 2.328 . S
In52 O60 2.281 . S
In52 O61 2.323 1_455 S
In52 O63 2.309 . S
In52 O64 2.324 1_455 S
O53 In52 2.279 1_655 S
O53 C62 1.240 . S
O54 In52 2.328 . S
O54 C62 1.252 1_455 S
C55 O58 1.252 . S
C55 O59 1.260 1_655 S
C56 O63 1.240 . S
C56 O64 1.252 1_455 S
C57 O60 1.252 . S
C57 O61 1.260 1_455 S
O58 In52 2.252 1_655 S
O58 C55 1.252 . S
O59 In52 2.328 . S
O59 C55 1.260 1_455 S
O60 In52 2.281 . S
O60 C57 1.252 . S
O61 In52 2.323 1_655 S
O61 C57 1.260 1_655 S
C62 O53 1.240 . S
C62 O54 1.252 1_655 S
O63 In52 2.309 . S
O63 C56 1.240 . S
O64 In52 2.324 1_655 S
O64 C56 1.252 1_655 S
In65 O66 2.294 . S
In65 O67 2.326 . S
In65 O71 2.266 . S
In65 O72 2.326 . S
In65 O73 2.266 . S
In65 O74 2.326 . S
In65 O76 2.294 . S
In65 O77 2.326 . S
O66 In65 2.294 . S
O66 C75 1.240 . S
O67 In65 2.326 . S
O67 C75 1.252 . S
C68 O71 1.252 . S
C68 O72 1.260 . S
C69 O76 1.240 . S
C69 O77 1.252 . S
C70 O73 1.252 . S
C70 O74 1.260 . S
O71 In65 2.266 . S
O71 C68 1.252 . S
O72 In65 2.326 . S
O72 C68 1.260 . S
O73 In65 2.266 . S
O73 C70 1.252 . S
O74 In65 2.326 . S
O74 C70 1.260 . S
C75 O66 1.240 . S
C75 O67 1.252 . S
O76 In65 2.294 . S
O76 C69 1.240 . S
O77 In65 2.326 . S
O77 C69 1.252 . S
In78 O79 2.294 . S
In78 O80 2.326 . S
In78 O84 2.266 . S
In78 O85 2.326 . S
In78 O86 2.266 . S
In78 O87 2.326 . S
In78 O89 2.294 . S
In78 O90 2.326 . S
O79 In78 2.294 . S
O79 C88 1.240 . S
O80 In78 2.326 . S
O80 C88 1.252 . S
C81 O84 1.252 . S
C81 O85 1.260 . S
C82 O89 1.240 . S
C82 O90 1.252 . S
C83 O86 1.252 . S
C83 O87 1.260 . S
O84 In78 2.266 . S
O84 C81 1.252 . S
O85 In78 2.326 . S
O85 C81 1.260 . S
O86 In78 2.266 . S
O86 C83 1.252 . S
O87 In78 2.326 . S
O87 C83 1.260 . S
C88 O79 1.240 . S
C88 O80 1.252 . S
O89 In78 2.294 . S
O89 C82 1.240 . S
O90 In78 2.326 . S
O90 C82 1.252 . S
In91 O92 2.299 . S
In91 O93 2.335 . S
In91 O97 2.261 1_455 S
In91 O98 2.316 1_455 S
In91 O99 2.271 . S
In91 O100 2.335 . S
In91 O102 2.289 1_455 S
In91 O103 2.317 1_455 S
O92 In91 2.299 . S
O92 C101 1.240 . S
O93 In91 2.335 . S
O93 C101 1.252 . S
C94 O97 1.252 . S
C94 O98 1.260 . S
C95 O102 1.240 . S
C95 O103 1.252 . S
C96 O99 1.252 . S
C96 O100 1.260 . S
O97 In91 2.261 1_655 S
O97 C94 1.252 . S
O98 In91 2.316 1_655 S
O98 C94 1.260 . S
O99 In91 2.271 . S
O99 C96 1.252 . S
O100 In91 2.335 . S
O100 C96 1.260 . S
C101 O92 1.240 . S
C101 O93 1.252 . S
O102 In91 2.289 1_655 S
O102 C95 1.240 . S
O103 In91 2.317 1_655 S
O103 C95 1.252 . S
In104 O105 2.294 1_545 S
In104 O106 2.326 . S
In104 O110 2.266 1_545 S
In104 O111 2.326 . S
In104 O112 2.266 . S
In104 O113 2.326 1_545 S
In104 O115 2.294 . S
In104 O116 2.326 1_545 S
O105 In104 2.294 1_565 S
O105 C114 1.240 . S
O106 In104 2.326 . S
O106 C114 1.252 1_545 S
C107 O110 1.252 . S
C107 O111 1.260 1_565 S
C108 O115 1.240 . S
C108 O116 1.252 1_545 S
C109 O112 1.252 . S
C109 O113 1.260 1_545 S
O110 In104 2.266 1_565 S
O110 C107 1.252 . S
O111 In104 2.326 . S
O111 C107 1.260 1_545 S
O112 In104 2.266 . S
O112 C109 1.252 . S
O113 In104 2.326 1_565 S
O113 C109 1.260 1_565 S
C114 O105 1.240 . S
C114 O106 1.252 1_565 S
O115 In104 2.294 . S
O115 C108 1.240 . S
O116 In104 2.326 1_565 S
O116 C108 1.252 1_565 S
In117 O118 2.294 . S
In117 O119 2.326 . S
In117 O123 2.266 . S
In117 O124 2.326 . S
In117 O125 2.266 . S
In117 O126 2.326 . S
In117 O128 2.294 . S
In117 O129 2.326 . S
O118 In117 2.294 . S
O118 C127 1.240 . S
O119 In117 2.326 . S
O119 C127 1.252 . S
C120 O123 1.252 . S
C120 O124 1.260 . S
C121 O128 1.240 . S
C121 O129 1.252 . S
C122 O125 1.252 . S
C122 O126 1.260 . S
O123 In117 2.266 . S
O123 C120 1.252 . S
O124 In117 2.326 . S
O124 C120 1.260 . S
O125 In117 2.266 . S
O125 C122 1.252 . S
O126 In117 2.326 . S
O126 C122 1.260 . S
C127 O118 1.240 . S
C127 O119 1.252 . S
O128 In117 2.294 . S
O128 C121 1.240 . S
O129 In117 2.326 . S
O129 C121 1.252 . S
In130 O131 2.294 1_545 S
In130 O132 2.326 . S
In130 O136 2.266 1_545 S
In130 O137 2.326 . S
In130 O138 2.266 . S
In130 O139 2.326 1_545 S
In130 O141 2.294 . S
In130 O142 2.326 1_545 S
O131 In130 2.294 1_565 S
O131 C140 1.240 . S
O132 In130 2.326 . S
O132 C140 1.252 1_545 S
C133 O136 1.252 . S
C133 O137 1.260 1_565 S
C134 O141 1.240 . S
C134 O142 1.252 1_545 S
C135 O138 1.252 . S
C135 O139 1.260 1_545 S
O136 In130 2.266 1_565 S
O136 C133 1.252 . S
O137 In130 2.326 . S
O137 C133 1.260 1_545 S
O138 In130 2.266 . S
O138 C135 1.252 . S
O139 In130 2.326 1_565 S
O139 C135 1.260 1_565 S
C140 O131 1.240 . S
C140 O132 1.252 1_565 S
O141 In130 2.294 . S
O141 C134 1.240 . S
O142 In130 2.326 1_565 S
O142 C134 1.252 1_565 S
In143 O144 2.294 . S
In143 O145 2.326 . S
In143 O149 2.266 1_554 S
In143 O150 2.326 1_554 S
In143 O151 2.266 . S
In143 O152 2.326 . S
In143 O154 2.294 1_554 S
In143 O155 2.326 1_554 S
O144 In143 2.294 . S
O144 C153 1.240 . S
O145 In143 2.326 . S
O145 C153 1.252 . S
C146 O149 1.252 . S
C146 O150 1.260 . S
C147 O154 1.240 . S
C147 O155 1.252 . S
C148 O151 1.252 . S
C148 O152 1.260 . S
O149 In143 2.266 1_556 S
O149 C146 1.252 . S
O150 In143 2.326 1_556 S
O150 C146 1.260 . S
O151 In143 2.266 . S
O151 C148 1.252 . S
O152 In143 2.326 . S
O152 C148 1.260 . S
C153 O144 1.240 . S
C153 O145 1.252 . S
O154 In143 2.294 1_556 S
O154 C147 1.240 . S
O155 In143 2.326 1_556 S
O155 C147 1.252 . S
In156 O157 2.280 1_554 S
In156 O158 2.328 . S
In156 O162 2.253 1_554 S
In156 O163 2.328 . S
In156 O164 2.280 . S
In156 O165 2.323 1_554 S
In156 O167 2.307 . S
In156 O168 2.324 1_554 S
O157 In156 2.280 1_556 S
O157 C166 1.240 . S
O158 In156 2.328 . S
O158 C166 1.252 1_554 S
C159 O162 1.252 . S
C159 O163 1.260 1_556 S
C160 O167 1.240 . S
C160 O168 1.252 1_554 S
C161 O164 1.252 . S
C161 O165 1.260 1_554 S
O162 In156 2.253 1_556 S
O162 C159 1.252 . S
O163 In156 2.328 . S
O163 C159 1.260 1_554 S
O164 In156 2.280 . S
O164 C161 1.252 . S
O165 In156 2.323 1_556 S
O165 C161 1.260 1_556 S
C166 O157 1.240 . S
C166 O158 1.252 1_556 S
O167 In156 2.307 . S
O167 C160 1.240 . S
O168 In156 2.324 1_556 S
O168 C160 1.252 1_556 S
In169 O170 2.297 . S
In169 O171 2.326 1_554 S
In169 O175 2.270 . S
In169 O176 2.325 1_554 S
In169 O177 2.263 1_554 S
In169 O178 2.326 . S
In169 O180 2.290 1_554 S
In169 O181 2.327 . S
O170 In169 2.297 . S
O170 C179 1.240 . S
O171 In169 2.326 1_556 S
O171 C179 1.252 1_556 S
C172 O175 1.252 . S
C172 O176 1.260 1_554 S
C173 O180 1.240 . S
C173 O181 1.252 1_556 S
C174 O177 1.252 . S
C174 O178 1.260 1_556 S
O175 In169 2.270 . S
O175 C172 1.252 . S
O176 In169 2.325 1_556 S
O176 C172 1.260 1_556 S
O177 In169 2.263 1_556 S
O177 C174 1.252 . S
O178 In169 2.326 . S
O178 C174 1.260 1_554 S
C179 O170 1.240 . S
C179 O171 1.252 1_554 S
O180 In169 2.290 1_556 S
O180 C173 1.240 . S
O181 In169 2.327 . S
O181 C173 1.252 1_554 S
In182 O183 2.294 . S
In182 O184 2.326 . S
In182 O188 2.266 . S
In182 O189 2.326 . S
In182 O190 2.266 . S
In182 O191 2.326 . S
In182 O193 2.294 . S
In182 O194 2.326 . S
O183 In182 2.294 . S
O183 C192 1.240 . S
O184 In182 2.326 . S
O184 C192 1.252 . S
C185 O188 1.252 . S
C185 O189 1.260 . S
C186 O193 1.240 . S
C186 O194 1.252 . S
C187 O190 1.252 . S
C187 O191 1.260 . S
O188 In182 2.266 . S
O188 C185 1.252 . S
O189 In182 2.326 . S
O189 C185 1.260 . S
O190 In182 2.266 . S
O190 C187 1.252 . S
O191 In182 2.326 . S
O191 C187 1.260 . S
C192 O183 1.240 . S
C192 O184 1.252 . S
O193 In182 2.294 . S
O193 C186 1.240 . S
O194 In182 2.326 . S
O194 C186 1.252 . S
In195 O196 2.294 . S
In195 O197 2.326 . S
In195 O201 2.266 . S
In195 O202 2.326 . S
In195 O203 2.266 . S
In195 O204 2.326 . S
In195 O206 2.294 . S
In195 O207 2.326 . S
O196 In195 2.294 . S
O196 C205 1.240 . S
O197 In195 2.326 . S
O197 C205 1.252 . S
C198 O201 1.252 . S
C198 O202 1.260 . S
C199 O206 1.240 . S
C199 O207 1.252 . S
C200 O203 1.252 . S
C200 O204 1.260 . S
O201 In195 2.266 . S
O201 C198 1.252 . S
O202 In195 2.326 . S
O202 C198 1.260 . S
O203 In195 2.266 . S
O203 C200 1.252 . S
O204 In195 2.326 . S
O204 C200 1.260 . S
C205 O196 1.240 . S
C205 O197 1.252 . S
O206 In195 2.294 . S
O206 C199 1.240 . S
O207 In195 2.326 . S
O207 C199 1.252 . S
In208 O209 2.294 1_545 S
In208 O210 2.326 1_545 S
In208 O214 2.266 . S
In208 O215 2.326 . S
In208 O216 2.266 1_545 S
In208 O217 2.326 1_545 S
In208 O219 2.294 . S
In208 O220 2.326 . S
O209 In208 2.294 1_565 S
O209 C218 1.240 . S
O210 In208 2.326 1_565 S
O210 C218 1.252 . S
C211 O214 1.252 . S
C211 O215 1.260 . S
C212 O219 1.240 . S
C212 O220 1.252 . S
C213 O216 1.252 . S
C213 O217 1.260 . S
O214 In208 2.266 . S
O214 C211 1.252 . S
O215 In208 2.326 . S
O215 C211 1.260 . S
O216 In208 2.266 1_565 S
O216 C213 1.252 . S
O217 In208 2.326 1_565 S
O217 C213 1.260 . S
C218 O209 1.240 . S
C218 O210 1.252 . S
O219 In208 2.294 . S
O219 C212 1.240 . S
O220 In208 2.326 . S
O220 C212 1.252 . S
In221 O222 2.294 . S
In221 O223 2.326 . S
In221 O227 2.266 . S
In221 O228 2.326 . S
In221 O229 2.266 . S
In221 O230 2.326 . S
In221 O232 2.294 . S
In221 O233 2.326 . S
O222 In221 2.294 . S
O222 C231 1.240 . S
O223 In221 2.326 . S
O223 C231 1.252 . S
C224 O227 1.252 . S
C224 O228 1.260 . S
C225 O232 1.240 . S
C225 O233 1.252 . S
C226 O229 1.252 . S
C226 O230 1.260 . S
O227 In221 2.266 . S
O227 C224 1.252 . S
O228 In221 2.326 . S
O228 C224 1.260 . S
O229 In221 2.266 . S
O229 C226 1.252 . S
O230 In221 2.326 . S
O230 C226 1.260 . S
C231 O222 1.240 . S
C231 O223 1.252 . S
O232 In221 2.294 . S
O232 C225 1.240 . S
O233 In221 2.326 . S
O233 C225 1.252 . S
In234 O235 2.294 . S
In234 O236 2.326 . S
In234 O240 2.266 . S
In234 O241 2.326 . S
In234 O242 2.266 . S
In234 O243 2.326 . S
In234 O245 2.294 . S
In234 O246 2.326 . S
O235 In234 2.294 . S
O235 C244 1.240 . S
O236 In234 2.326 . S
O236 C244 1.252 . S
C237 O240 1.252 . S
C237 O241 1.260 . S
C238 O245 1.240 . S
C238 O246 1.252 . S
C239 O242 1.252 . S
C239 O243 1.260 . S
O240 In234 2.266 . S
O240 C237 1.252 . S
O241 In234 2.326 . S
O241 C237 1.260 . S
O242 In234 2.266 . S
O242 C239 1.252 . S
O243 In234 2.326 . S
O243 C239 1.260 . S
C244 O235 1.240 . S
C244 O236 1.252 . S
O245 In234 2.294 . S
O245 C238 1.240 . S
O246 In234 2.326 . S
O246 C238 1.252 . S
In247 O248 2.294 1_545 S
In247 O249 2.326 1_545 S
In247 O253 2.266 . S
In247 O254 2.326 . S
In247 O255 2.266 1_545 S
In247 O256 2.326 1_545 S
In247 O258 2.294 . S
In247 O259 2.326 . S
O248 In247 2.294 1_565 S
O248 C257 1.240 . S
O249 In247 2.326 1_565 S
O249 C257 1.252 . S
C250 O253 1.252 . S
C250 O254 1.260 . S
C251 O258 1.240 . S
C251 O259 1.252 . S
C252 O255 1.252 . S
C252 O256 1.260 . S
O253 In247 2.266 . S
O253 C250 1.252 . S
O254 In247 2.326 . S
O254 C250 1.260 . S
O255 In247 2.266 1_565 S
O255 C252 1.252 . S
O256 In247 2.326 1_565 S
O256 C252 1.260 . S
C257 O248 1.240 . S
C257 O249 1.252 . S
O258 In247 2.294 . S
O258 C251 1.240 . S
O259 In247 2.326 . S
O259 C251 1.252 . S
In260 O261 2.294 . S
In260 O262 2.326 . S
In260 O266 2.266 1_554 S
In260 O267 2.326 1_554 S
In260 O268 2.266 . S
In260 O269 2.326 . S
In260 O271 2.294 1_554 S
In260 O272 2.326 1_554 S
O261 In260 2.294 . S
O261 C270 1.240 . S
O262 In260 2.326 . S
O262 C270 1.252 . S
C263 O266 1.252 . S
C263 O267 1.260 . S
C264 O271 1.240 . S
C264 O272 1.252 . S
C265 O268 1.252 . S
C265 O269 1.260 . S
O266 In260 2.266 1_556 S
O266 C263 1.252 . S
O267 In260 2.326 1_556 S
O267 C263 1.260 . S
O268 In260 2.266 . S
O268 C265 1.252 . S
O269 In260 2.326 . S
O269 C265 1.260 . S
C270 O261 1.240 . S
C270 O262 1.252 . S
O271 In260 2.294 1_556 S
O271 C264 1.240 . S
O272 In260 2.326 1_556 S
O272 C264 1.252 . S
In273 O274 2.294 . S
In273 O275 2.326 . S
In273 O279 2.266 . S
In273 O280 2.326 . S
In273 O281 2.266 . S
In273 O282 2.326 . S
In273 O284 2.294 . S
In273 O285 2.326 . S
O274 In273 2.294 . S
O274 C283 1.240 . S
O275 In273 2.326 . S
O275 C283 1.252 . S
C276 O279 1.252 . S
C276 O280 1.260 . S
C277 O284 1.240 . S
C277 O285 1.252 . S
C278 O281 1.252 . S
C278 O282 1.260 . S
O279 In273 2.266 . S
O279 C276 1.252 . S
O280 In273 2.326 . S
O280 C276 1.260 . S
O281 In273 2.266 . S
O281 C278 1.252 . S
O282 In273 2.326 . S
O282 C278 1.260 . S
C283 O274 1.240 . S
C283 O275 1.252 . S
O284 In273 2.294 . S
O284 C277 1.240 . S
O285 In273 2.326 . S
O285 C277 1.252 . S
In286 O287 2.294 . S
In286 O288 2.326 . S
In286 O292 2.266 . S
In286 O293 2.326 . S
In286 O294 2.266 . S
In286 O295 2.326 . S
In286 O297 2.294 . S
In286 O298 2.326 . S
O287 In286 2.294 . S
O287 C296 1.240 . S
O288 In286 2.326 . S
O288 C296 1.252 . S
C289 O292 1.252 . S
C289 O293 1.260 . S
C290 O297 1.240 . S
C290 O298 1.252 . S
C291 O294 1.252 . S
C291 O295 1.260 . S
O292 In286 2.266 . S
O292 C289 1.252 . S
O293 In286 2.326 . S
O293 C289 1.260 . S
O294 In286 2.266 . S
O294 C291 1.252 . S
O295 In286 2.326 . S
O295 C291 1.260 . S
C296 O287 1.240 . S
C296 O288 1.252 . S
O297 In286 2.294 . S
O297 C290 1.240 . S
O298 In286 2.326 . S
O298 C290 1.252 . S
In299 O300 2.294 . S
In299 O301 2.326 . S
In299 O305 2.266 . S
In299 O306 2.326 . S
In299 O307 2.266 . S
In299 O308 2.326 . S
In299 O310 2.294 . S
In299 O311 2.326 . S
O300 In299 2.294 . S
O300 C309 1.240 . S
O301 In299 2.326 . S
O301 C309 1.252 . S
C302 O305 1.252 . S
C302 O306 1.260 . S
C303 O310 1.240 . S
C303 O311 1.252 . S
C304 O307 1.252 . S
C304 O308 1.260 . S
O305 In299 2.266 . S
O305 C302 1.252 . S
O306 In299 2.326 . S
O306 C302 1.260 . S
O307 In299 2.266 . S
O307 C304 1.252 . S
O308 In299 2.326 . S
O308 C304 1.260 . S
C309 O300 1.240 . S
C309 O301 1.252 . S
O310 In299 2.294 . S
O310 C303 1.240 . S
O311 In299 2.326 . S
O311 C303 1.252 . S
Fe312 O314 1.918 . S
Fe312 O317 1.997 . S
Fe312 O318 2.002 . S
Fe312 O323 1.976 . S
Fe312 O326 1.996 . S
Fe313 O314 1.918 . S
Fe313 O321 1.997 . S
Fe313 O324 1.996 . S
Fe313 O328 1.976 . S
Fe313 O331 2.002 . S
O314 Fe312 1.918 . S
O314 Fe313 1.918 . S
O314 Fe315 1.918 . S
Fe315 O314 1.918 . S
Fe315 O316 2.002 . S
Fe315 O325 1.976 . S
Fe315 O329 1.996 . S
Fe315 O332 1.997 . S
O316 Fe315 2.002 . S
O316 C333 1.295 . S
O317 Fe312 1.997 . S
O317 C333 1.235 . S
O318 Fe312 2.002 . S
O318 C319 1.295 . S
C319 O318 1.295 . S
C319 O321 1.235 . S
C320 O325 1.287 . S
C320 O326 1.255 . S
O321 Fe313 1.997 . S
O321 C319 1.235 . S
C322 O328 1.287 . S
C322 O329 1.255 . S
O323 Fe312 1.976 . S
O323 C330 1.287 . S
O324 Fe313 1.996 . S
O324 C330 1.255 . S
O325 Fe315 1.976 . S
O325 C320 1.287 . S
O326 Fe312 1.996 . S
O326 C320 1.255 . S
C327 O331 1.295 . S
C327 O332 1.235 . S
O328 Fe313 1.976 . S
O328 C322 1.287 . S
O329 Fe315 1.996 . S
O329 C322 1.255 . S
C330 O323 1.287 . S
C330 O324 1.255 . S
O331 Fe313 2.002 . S
O331 C327 1.295 . S
O332 Fe315 1.997 . S
O332 C327 1.235 . S
C333 O316 1.295 . S
C333 O317 1.235 . S
Fe334 O336 1.918 . S
Fe334 O339 1.997 . S
Fe334 O340 2.002 . S
Fe334 O345 1.976 . S
Fe334 O348 1.996 . S
Fe335 O336 1.918 . S
Fe335 O343 1.997 . S
Fe335 O346 1.996 . S
Fe335 O350 1.976 . S
Fe335 O353 2.002 . S
O336 Fe334 1.918 . S
O336 Fe335 1.918 . S
O336 Fe337 1.918 . S
Fe337 O336 1.918 . S
Fe337 O338 2.002 . S
Fe337 O347 1.976 . S
Fe337 O351 1.996 . S
Fe337 O354 1.997 . S
O338 Fe337 2.002 . S
O338 C355 1.295 . S
O339 Fe334 1.997 . S
O339 C355 1.235 . S
O340 Fe334 2.002 . S
O340 C341 1.295 . S
C341 O340 1.295 . S
C341 O343 1.235 . S
C342 O347 1.287 . S
C342 O348 1.255 . S
O343 Fe335 1.997 . S
O343 C341 1.235 . S
C344 O350 1.287 . S
C344 O351 1.255 . S
O345 Fe334 1.976 . S
O345 C352 1.287 . S
O346 Fe335 1.996 . S
O346 C352 1.255 . S
O347 Fe337 1.976 . S
O347 C342 1.287 . S
O348 Fe334 1.996 . S
O348 C342 1.255 . S
C349 O353 1.295 . S
C349 O354 1.235 . S
O350 Fe335 1.976 . S
O350 C344 1.287 . S
O351 Fe337 1.996 . S
O351 C344 1.255 . S
C352 O345 1.287 . S
C352 O346 1.255 . S
O353 Fe335 2.002 . S
O353 C349 1.295 . S
O354 Fe337 1.997 . S
O354 C349 1.235 . S
C355 O338 1.295 . S
C355 O339 1.235 . S
Fe356 O358 1.918 . S
Fe356 O361 1.997 . S
Fe356 O362 2.002 . S
Fe356 O367 1.976 . S
Fe356 O370 1.996 . S
Fe357 O358 1.918 . S
Fe357 O365 1.997 . S
Fe357 O368 1.996 . S
Fe357 O372 1.976 . S
Fe357 O375 2.002 . S
O358 Fe356 1.918 . S
O358 Fe357 1.918 . S
O358 Fe359 1.918 . S
Fe359 O358 1.918 . S
Fe359 O360 2.002 . S
Fe359 O369 1.976 . S
Fe359 O373 1.996 . S
Fe359 O376 1.997 . S
O360 Fe359 2.002 . S
O360 C377 1.295 . S
O361 Fe356 1.997 . S
O361 C377 1.235 . S
O362 Fe356 2.002 . S
O362 C363 1.295 . S
C363 O362 1.295 . S
C363 O365 1.235 . S
C364 O369 1.287 . S
C364 O370 1.255 . S
O365 Fe357 1.997 . S
O365 C363 1.235 . S
C366 O372 1.287 . S
C366 O373 1.255 . S
O367 Fe356 1.976 . S
O367 C374 1.287 . S
O368 Fe357 1.996 . S
O368 C374 1.255 . S
O369 Fe359 1.976 . S
O369 C364 1.287 . S
O370 Fe356 1.996 . S
O370 C364 1.255 . S
C371 O375 1.295 . S
C371 O376 1.235 . S
O372 Fe357 1.976 . S
O372 C366 1.287 . S
O373 Fe359 1.996 . S
O373 C366 1.255 . S
C374 O367 1.287 . S
C374 O368 1.255 . S
O375 Fe357 2.002 . S
O375 C371 1.295 . S
O376 Fe359 1.997 . S
O376 C371 1.235 . S
C377 O360 1.295 . S
C377 O361 1.235 . S
Fe378 O380 1.918 . S
Fe378 O383 1.997 . S
Fe378 O384 2.002 . S
Fe378 O389 1.976 . S
Fe378 O392 1.996 . S
Fe379 O380 1.918 . S
Fe379 O387 1.997 . S
Fe379 O390 1.996 . S
Fe379 O394 1.976 . S
Fe379 O397 2.002 . S
O380 Fe378 1.918 . S
O380 Fe379 1.918 . S
O380 Fe381 1.918 . S
Fe381 O380 1.918 . S
Fe381 O382 2.002 . S
Fe381 O391 1.976 . S
Fe381 O395 1.996 . S
Fe381 O398 1.997 . S
O382 Fe381 2.002 . S
O382 C399 1.295 . S
O383 Fe378 1.997 . S
O383 C399 1.235 . S
O384 Fe378 2.002 . S
O384 C385 1.295 . S
C385 O384 1.295 . S
C385 O387 1.235 . S
C386 O391 1.287 . S
C386 O392 1.255 . S
O387 Fe379 1.997 . S
O387 C385 1.235 . S
C388 O394 1.287 . S
C388 O395 1.255 . S
O389 Fe378 1.976 . S
O389 C396 1.287 . S
O390 Fe379 1.996 . S
O390 C396 1.255 . S
O391 Fe381 1.976 . S
O391 C386 1.287 . S
O392 Fe378 1.996 . S
O392 C386 1.255 . S
C393 O397 1.295 . S
C393 O398 1.235 . S
O394 Fe379 1.976 . S
O394 C388 1.287 . S
O395 Fe381 1.996 . S
O395 C388 1.255 . S
C396 O389 1.287 . S
C396 O390 1.255 . S
O397 Fe379 2.002 . S
O397 C393 1.295 . S
O398 Fe381 1.997 . S
O398 C393 1.235 . S
C399 O382 1.295 . S
C399 O383 1.235 . S
Fe400 O402 1.918 . S
Fe400 O405 1.997 . S
Fe400 O406 2.002 . S
Fe400 O411 1.976 . S
Fe400 O414 1.996 . S
Fe401 O402 1.918 . S
Fe401 O409 1.997 . S
Fe401 O412 1.996 . S
Fe401 O416 1.976 . S
Fe401 O419 2.002 . S
O402 Fe400 1.918 . S
O402 Fe401 1.918 . S
O402 Fe403 1.918 . S
Fe403 O402 1.918 . S
Fe403 O404 2.002 . S
Fe403 O413 1.976 . S
Fe403 O417 1.996 . S
Fe403 O420 1.997 . S
O404 Fe403 2.002 . S
O404 C421 1.295 . S
O405 Fe400 1.997 . S
O405 C421 1.235 . S
O406 Fe400 2.002 . S
O406 C407 1.295 . S
C407 O406 1.295 . S
C407 O409 1.235 . S
C408 O413 1.287 . S
C408 O414 1.255 . S
O409 Fe401 1.997 . S
O409 C407 1.235 . S
C410 O416 1.287 . S
C410 O417 1.255 . S
O411 Fe400 1.976 . S
O411 C418 1.287 . S
O412 Fe401 1.996 . S
O412 C418 1.255 . S
O413 Fe403 1.976 . S
O413 C408 1.287 . S
O414 Fe400 1.996 . S
O414 C408 1.255 . S
C415 O419 1.295 . S
C415 O420 1.235 . S
O416 Fe401 1.976 . S
O416 C410 1.287 . S
O417 Fe403 1.996 . S
O417 C410 1.255 . S
C418 O411 1.287 . S
C418 O412 1.255 . S
O419 Fe401 2.002 . S
O419 C415 1.295 . S
O420 Fe403 1.997 . S
O420 C415 1.235 . S
C421 O404 1.295 . S
C421 O405 1.235 . S
Fe422 O424 1.918 . S
Fe422 O427 1.997 . S
Fe422 O428 2.002 . S
Fe422 O433 1.976 . S
Fe422 O436 1.996 . S
Fe423 O424 1.918 . S
Fe423 O431 1.997 . S
Fe423 O434 1.996 . S
Fe423 O438 1.976 . S
Fe423 O441 2.002 . S
O424 Fe422 1.918 . S
O424 Fe423 1.918 . S
O424 Fe425 1.918 . S
Fe425 O424 1.918 . S
Fe425 O426 2.002 . S
Fe425 O435 1.976 . S
Fe425 O439 1.996 . S
Fe425 O442 1.997 . S
O426 Fe425 2.002 . S
O426 C443 1.295 . S
O427 Fe422 1.997 . S
O427 C443 1.235 . S
O428 Fe422 2.002 . S
O428 C429 1.295 . S
C429 O428 1.295 . S
C429 O431 1.235 . S
C430 O435 1.287 . S
C430 O436 1.255 . S
O431 Fe423 1.997 . S
O431 C429 1.235 . S
C432 O438 1.287 . S
C432 O439 1.255 . S
O433 Fe422 1.976 . S
O433 C440 1.287 . S
O434 Fe423 1.996 . S
O434 C440 1.255 . S
O435 Fe425 1.976 . S
O435 C430 1.287 . S
O436 Fe422 1.996 . S
O436 C430 1.255 . S
C437 O441 1.295 . S
C437 O442 1.235 . S
O438 Fe423 1.976 . S
O438 C432 1.287 . S
O439 Fe425 1.996 . S
O439 C432 1.255 . S
C440 O433 1.287 . S
C440 O434 1.255 . S
O441 Fe423 2.002 . S
O441 C437 1.295 . S
O442 Fe425 1.997 . S
O442 C437 1.235 . S
C443 O426 1.295 . S
C443 O427 1.235 . S
Fe444 O446 1.918 . S
Fe444 O449 1.997 . S
Fe444 O450 2.002 . S
Fe444 O455 1.976 . S
Fe444 O458 1.996 . S
Fe445 O446 1.918 . S
Fe445 O453 1.997 . S
Fe445 O456 1.996 . S
Fe445 O460 1.976 . S
Fe445 O463 2.002 . S
O446 Fe444 1.918 . S
O446 Fe445 1.918 . S
O446 Fe447 1.918 . S
Fe447 O446 1.918 . S
Fe447 O448 2.002 . S
Fe447 O457 1.976 . S
Fe447 O461 1.996 . S
Fe447 O464 1.997 . S
O448 Fe447 2.002 . S
O448 C465 1.295 . S
O449 Fe444 1.997 . S
O449 C465 1.235 . S
O450 Fe444 2.002 . S
O450 C451 1.295 . S
C451 O450 1.295 . S
C451 O453 1.235 . S
C452 O457 1.287 . S
C452 O458 1.255 . S
O453 Fe445 1.997 . S
O453 C451 1.235 . S
C454 O460 1.287 . S
C454 O461 1.255 . S
O455 Fe444 1.976 . S
O455 C462 1.287 . S
O456 Fe445 1.996 . S
O456 C462 1.255 . S
O457 Fe447 1.976 . S
O457 C452 1.287 . S
O458 Fe444 1.996 . S
O458 C452 1.255 . S
C459 O463 1.295 . S
C459 O464 1.235 . S
O460 Fe445 1.976 . S
O460 C454 1.287 . S
O461 Fe447 1.996 . S
O461 C454 1.255 . S
C462 O455 1.287 . S
C462 O456 1.255 . S
O463 Fe445 2.002 . S
O463 C459 1.295 . S
O464 Fe447 1.997 . S
O464 C459 1.235 . S
C465 O448 1.295 . S
C465 O449 1.235 . S
Fe466 O468 1.918 . S
Fe466 O471 1.997 . S
Fe466 O472 2.002 . S
Fe466 O477 1.976 . S
Fe466 O480 1.996 . S
Fe467 O468 1.918 . S
Fe467 O475 1.997 . S
Fe467 O478 1.996 . S
Fe467 O482 1.976 . S
Fe467 O485 2.002 . S
O468 Fe466 1.918 . S
O468 Fe467 1.918 . S
O468 Fe469 1.918 . S
Fe469 O468 1.918 . S
Fe469 O470 2.002 . S
Fe469 O479 1.976 . S
Fe469 O483 1.996 . S
Fe469 O486 1.997 . S
O470 Fe469 2.002 . S
O470 C487 1.295 . S
O471 Fe466 1.997 . S
O471 C487 1.235 . S
O472 Fe466 2.002 . S
O472 C473 1.295 . S
C473 O472 1.295 . S
C473 O475 1.235 . S
C474 O479 1.287 . S
C474 O480 1.255 . S
O475 Fe467 1.997 . S
O475 C473 1.235 . S
C476 O482 1.287 . S
C476 O483 1.255 . S
O477 Fe466 1.976 . S
O477 C484 1.287 . S
O478 Fe467 1.996 . S
O478 C484 1.255 . S
O479 Fe469 1.976 . S
O479 C474 1.287 . S
O480 Fe466 1.996 . S
O480 C474 1.255 . S
C481 O485 1.295 . S
C481 O486 1.235 . S
O482 Fe467 1.976 . S
O482 C476 1.287 . S
O483 Fe469 1.996 . S
O483 C476 1.255 . S
C484 O477 1.287 . S
C484 O478 1.255 . S
O485 Fe467 2.002 . S
O485 C481 1.295 . S
O486 Fe469 1.997 . S
O486 C481 1.235 . S
C487 O470 1.295 . S
C487 O471 1.235 . S
Fe488 O490 1.918 . S
Fe488 O493 1.997 . S
Fe488 O494 2.002 . S
Fe488 O499 1.976 . S
Fe488 O502 1.996 . S
Fe489 O490 1.918 . S
Fe489 O497 1.997 . S
Fe489 O500 1.996 . S
Fe489 O504 1.976 . S
Fe489 O507 2.002 . S
O490 Fe488 1.918 . S
O490 Fe489 1.918 . S
O490 Fe491 1.918 . S
Fe491 O490 1.918 . S
Fe491 O492 2.002 . S
Fe491 O501 1.976 . S
Fe491 O505 1.996 . S
Fe491 O508 1.997 . S
O492 Fe491 2.002 . S
O492 C509 1.295 . S
O493 Fe488 1.997 . S
O493 C509 1.235 . S
O494 Fe488 2.002 . S
O494 C495 1.295 . S
C495 O494 1.295 . S
C495 O497 1.235 . S
C496 O501 1.287 . S
C496 O502 1.255 . S
O497 Fe489 1.997 . S
O497 C495 1.235 . S
C498 O504 1.287 . S
C498 O505 1.255 . S
O499 Fe488 1.976 . S
O499 C506 1.287 . S
O500 Fe489 1.996 . S
O500 C506 1.255 . S
O501 Fe491 1.976 . S
O501 C496 1.287 . S
O502 Fe488 1.996 . S
O502 C496 1.255 . S
C503 O507 1.295 . S
C503 O508 1.235 . S
O504 Fe489 1.976 . S
O504 C498 1.287 . S
O505 Fe491 1.996 . S
O505 C498 1.255 . S
C506 O499 1.287 . S
C506 O500 1.255 . S
O507 Fe489 2.002 . S
O507 C503 1.295 . S
O508 Fe491 1.997 . S
O508 C503 1.235 . S
C509 O492 1.295 . S
C509 O493 1.235 . S
Fe510 O512 1.918 . S
Fe510 O515 1.997 . S
Fe510 O516 2.002 . S
Fe510 O521 1.976 . S
Fe510 O524 1.996 . S
Fe511 O512 1.918 . S
Fe511 O519 1.997 . S
Fe511 O522 1.996 . S
Fe511 O526 1.976 . S
Fe511 O529 2.002 . S
O512 Fe510 1.918 . S
O512 Fe511 1.918 . S
O512 Fe513 1.918 . S
Fe513 O512 1.918 . S
Fe513 O514 2.002 . S
Fe513 O523 1.976 . S
Fe513 O527 1.996 . S
Fe513 O530 1.997 . S
O514 Fe513 2.002 . S
O514 C531 1.295 . S
O515 Fe510 1.997 . S
O515 C531 1.235 . S
O516 Fe510 2.002 . S
O516 C517 1.295 . S
C517 O516 1.295 . S
C517 O519 1.235 . S
C518 O523 1.287 . S
C518 O524 1.255 . S
O519 Fe511 1.997 . S
O519 C517 1.235 . S
C520 O526 1.287 . S
C520 O527 1.255 . S
O521 Fe510 1.976 . S
O521 C528 1.287 . S
O522 Fe511 1.996 . S
O522 C528 1.255 . S
O523 Fe513 1.976 . S
O523 C518 1.287 . S
O524 Fe510 1.996 . S
O524 C518 1.255 . S
C525 O529 1.295 . S
C525 O530 1.235 . S
O526 Fe511 1.976 . S
O526 C520 1.287 . S
O527 Fe513 1.996 . S
O527 C520 1.255 . S
C528 O521 1.287 . S
C528 O522 1.255 . S
O529 Fe511 2.002 . S
O529 C525 1.295 . S
O530 Fe513 1.997 . S
O530 C525 1.235 . S
C531 O514 1.295 . S
C531 O515 1.235 . S
Fe532 O534 1.918 . S
Fe532 O537 1.997 . S
Fe532 O538 2.002 . S
Fe532 O543 1.976 . S
Fe532 O546 1.996 . S
Fe533 O534 1.918 . S
Fe533 O541 1.997 . S
Fe533 O544 1.996 . S
Fe533 O548 1.976 . S
Fe533 O551 2.002 . S
O534 Fe532 1.918 . S
O534 Fe533 1.918 . S
O534 Fe535 1.918 . S
Fe535 O534 1.918 . S
Fe535 O536 2.002 . S
Fe535 O545 1.976 . S
Fe535 O549 1.996 . S
Fe535 O552 1.997 . S
O536 Fe535 2.002 . S
O536 C553 1.295 . S
O537 Fe532 1.997 . S
O537 C553 1.235 . S
O538 Fe532 2.002 . S
O538 C539 1.295 . S
C539 O538 1.295 . S
C539 O541 1.235 . S
C540 O545 1.287 . S
C540 O546 1.255 . S
O541 Fe533 1.997 . S
O541 C539 1.235 . S
C542 O548 1.287 . S
C542 O549 1.255 . S
O543 Fe532 1.976 . S
O543 C550 1.287 . S
O544 Fe533 1.996 . S
O544 C550 1.255 . S
O545 Fe535 1.976 . S
O545 C540 1.287 . S
O546 Fe532 1.996 . S
O546 C540 1.255 . S
C547 O551 1.295 . S
C547 O552 1.235 . S
O548 Fe533 1.976 . S
O548 C542 1.287 . S
O549 Fe535 1.996 . S
O549 C542 1.255 . S
C550 O543 1.287 . S
C550 O544 1.255 . S
O551 Fe533 2.002 . S
O551 C547 1.295 . S
O552 Fe535 1.997 . S
O552 C547 1.235 . S
C553 O536 1.295 . S
C553 O537 1.235 . S
Fe554 O556 1.918 . S
Fe554 O559 1.997 . S
Fe554 O560 2.002 . S
Fe554 O565 1.976 . S
Fe554 O568 1.996 . S
Fe555 O556 1.918 . S
Fe555 O563 1.997 . S
Fe555 O566 1.996 . S
Fe555 O570 1.976 . S
Fe555 O573 2.002 . S
O556 Fe554 1.918 . S
O556 Fe555 1.918 . S
O556 Fe557 1.918 . S
Fe557 O556 1.918 . S
Fe557 O558 2.002 . S
Fe557 O567 1.976 . S
Fe557 O571 1.996 . S
Fe557 O574 1.997 . S
O558 Fe557 2.002 . S
O558 C575 1.295 . S
O559 Fe554 1.997 . S
O559 C575 1.235 . S
O560 Fe554 2.002 . S
O560 C561 1.295 . S
C561 O560 1.295 . S
C561 O563 1.235 . S
C562 O567 1.287 . S
C562 O568 1.255 . S
O563 Fe555 1.997 . S
O563 C561 1.235 . S
C564 O570 1.287 . S
C564 O571 1.255 . S
O565 Fe554 1.976 . S
O565 C572 1.287 . S
O566 Fe555 1.996 . S
O566 C572 1.255 . S
O567 Fe557 1.976 . S
O567 C562 1.287 . S
O568 Fe554 1.996 . S
O568 C562 1.255 . S
C569 O573 1.295 . S
C569 O574 1.235 . S
O570 Fe555 1.976 . S
O570 C564 1.287 . S
O571 Fe557 1.996 . S
O571 C564 1.255 . S
C572 O565 1.287 . S
C572 O566 1.255 . S
O573 Fe555 2.002 . S
O573 C569 1.295 . S
O574 Fe557 1.997 . S
O574 C569 1.235 . S
C575 O558 1.295 . S
C575 O559 1.235 . S
Fe576 O578 1.918 . S
Fe576 O581 1.997 . S
Fe576 O582 2.002 . S
Fe576 O587 1.976 . S
Fe576 O590 1.996 . S
Fe577 O578 1.918 . S
Fe577 O585 1.997 . S
Fe577 O588 1.996 . S
Fe577 O592 1.976 . S
Fe577 O595 2.002 . S
O578 Fe576 1.918 . S
O578 Fe577 1.918 . S
O578 Fe579 1.918 . S
Fe579 O578 1.918 . S
Fe579 O580 2.002 . S
Fe579 O589 1.976 . S
Fe579 O593 1.996 . S
Fe579 O596 1.997 . S
O580 Fe579 2.002 . S
O580 C597 1.295 . S
O581 Fe576 1.997 . S
O581 C597 1.235 . S
O582 Fe576 2.002 . S
O582 C583 1.295 . S
C583 O582 1.295 . S
C583 O585 1.235 . S
C584 O589 1.287 . S
C584 O590 1.255 . S
O585 Fe577 1.997 . S
O585 C583 1.235 . S
C586 O592 1.287 . S
C586 O593 1.255 . S
O587 Fe576 1.976 . S
O587 C594 1.287 . S
O588 Fe577 1.996 . S
O588 C594 1.255 . S
O589 Fe579 1.976 . S
O589 C584 1.287 . S
O590 Fe576 1.996 . S
O590 C584 1.255 . S
C591 O595 1.295 . S
C591 O596 1.235 . S
O592 Fe577 1.976 . S
O592 C586 1.287 . S
O593 Fe579 1.996 . S
O593 C586 1.255 . S
C594 O587 1.287 . S
C594 O588 1.255 . S
O595 Fe577 2.002 . S
O595 C591 1.295 . S
O596 Fe579 1.997 . S
O596 C591 1.235 . S
C597 O580 1.295 . S
C597 O581 1.235 . S
Fe598 O600 1.918 . S
Fe598 O603 1.997 . S
Fe598 O604 2.002 . S
Fe598 O609 1.976 . S
Fe598 O612 1.996 . S
Fe599 O600 1.918 . S
Fe599 O607 1.997 . S
Fe599 O610 1.996 . S
Fe599 O614 1.976 . S
Fe599 O617 2.002 . S
O600 Fe598 1.918 . S
O600 Fe599 1.918 . S
O600 Fe601 1.918 . S
Fe601 O600 1.918 . S
Fe601 O602 2.002 . S
Fe601 O611 1.976 . S
Fe601 O615 1.996 . S
Fe601 O618 1.997 . S
O602 Fe601 2.002 . S
O602 C619 1.295 . S
O603 Fe598 1.997 . S
O603 C619 1.235 . S
O604 Fe598 2.002 . S
O604 C605 1.295 . S
C605 O604 1.295 . S
C605 O607 1.235 . S
C606 O611 1.287 . S
C606 O612 1.255 . S
O607 Fe599 1.997 . S
O607 C605 1.235 . S
C608 O614 1.287 . S
C608 O615 1.255 . S
O609 Fe598 1.976 . S
O609 C616 1.287 . S
O610 Fe599 1.996 . S
O610 C616 1.255 . S
O611 Fe601 1.976 . S
O611 C606 1.287 . S
O612 Fe598 1.996 . S
O612 C606 1.255 . S
C613 O617 1.295 . S
C613 O618 1.235 . S
O614 Fe599 1.976 . S
O614 C608 1.287 . S
O615 Fe601 1.996 . S
O615 C608 1.255 . S
C616 O609 1.287 . S
C616 O610 1.255 . S
O617 Fe599 2.002 . S
O617 C613 1.295 . S
O618 Fe601 1.997 . S
O618 C613 1.235 . S
C619 O602 1.295 . S
C619 O603 1.235 . S
Fe620 O622 1.918 . S
Fe620 O625 1.997 . S
Fe620 O626 2.002 . S
Fe620 O631 1.976 . S
Fe620 O634 1.996 . S
Fe621 O622 1.918 . S
Fe621 O629 1.997 . S
Fe621 O632 1.996 . S
Fe621 O636 1.976 . S
Fe621 O639 2.002 . S
O622 Fe620 1.918 . S
O622 Fe621 1.918 . S
O622 Fe623 1.918 . S
Fe623 O622 1.918 . S
Fe623 O624 2.002 . S
Fe623 O633 1.976 . S
Fe623 O637 1.996 . S
Fe623 O640 1.997 . S
O624 Fe623 2.002 . S
O624 C641 1.295 . S
O625 Fe620 1.997 . S
O625 C641 1.235 . S
O626 Fe620 2.002 . S
O626 C627 1.295 . S
C627 O626 1.295 . S
C627 O629 1.235 . S
C628 O633 1.287 . S
C628 O634 1.255 . S
O629 Fe621 1.997 . S
O629 C627 1.235 . S
C630 O636 1.287 . S
C630 O637 1.255 . S
O631 Fe620 1.976 . S
O631 C638 1.287 . S
O632 Fe621 1.996 . S
O632 C638 1.255 . S
O633 Fe623 1.976 . S
O633 C628 1.287 . S
O634 Fe620 1.996 . S
O634 C628 1.255 . S
C635 O639 1.295 . S
C635 O640 1.235 . S
O636 Fe621 1.976 . S
O636 C630 1.287 . S
O637 Fe623 1.996 . S
O637 C630 1.255 . S
C638 O631 1.287 . S
C638 O632 1.255 . S
O639 Fe621 2.002 . S
O639 C635 1.295 . S
O640 Fe623 1.997 . S
O640 C635 1.235 . S
C641 O624 1.295 . S
C641 O625 1.235 . S
Fe642 O644 1.918 . S
Fe642 O647 1.997 . S
Fe642 O648 2.002 . S
Fe642 O653 1.976 . S
Fe642 O656 1.996 . S
Fe643 O644 1.918 . S
Fe643 O651 1.997 . S
Fe643 O654 1.996 . S
Fe643 O658 1.976 . S
Fe643 O661 2.002 . S
O644 Fe642 1.918 . S
O644 Fe643 1.918 . S
O644 Fe645 1.918 . S
Fe645 O644 1.918 . S
Fe645 O646 2.002 . S
Fe645 O655 1.976 . S
Fe645 O659 1.996 . S
Fe645 O662 1.997 . S
O646 Fe645 2.002 . S
O646 C663 1.295 . S
O647 Fe642 1.997 . S
O647 C663 1.235 . S
O648 Fe642 2.002 . S
O648 C649 1.295 . S
C649 O648 1.295 . S
C649 O651 1.235 . S
C650 O655 1.287 . S
C650 O656 1.255 . S
O651 Fe643 1.997 . S
O651 C649 1.235 . S
C652 O658 1.287 . S
C652 O659 1.255 . S
O653 Fe642 1.976 . S
O653 C660 1.287 . S
O654 Fe643 1.996 . S
O654 C660 1.255 . S
O655 Fe645 1.976 . S
O655 C650 1.287 . S
O656 Fe642 1.996 . S
O656 C650 1.255 . S
C657 O661 1.295 . S
C657 O662 1.235 . S
O658 Fe643 1.976 . S
O658 C652 1.287 . S
O659 Fe645 1.996 . S
O659 C652 1.255 . S
C660 O653 1.287 . S
C660 O654 1.255 . S
O661 Fe643 2.002 . S
O661 C657 1.295 . S
O662 Fe645 1.997 . S
O662 C657 1.235 . S
C663 O646 1.295 . S
C663 O647 1.235 . S
C664 C665 1.369 . S
C664 C666 1.419 . S
C664 H668 0.930 . S
C665 C664 1.369 . S
C665 C674 1.429 . S
C666 C664 1.419 . S
C666 C667 1.363 . S
C666 H669 0.929 . S
C667 C666 1.363 . S
C667 C673 1.428 . S
H668 C664 0.930 . S
H669 C666 0.929 . S
S670 N671 1.613 . S
S670 N672 1.610 . S
N671 S670 1.613 . S
N671 C674 1.350 . S
N672 S670 1.610 . S
N672 C673 1.351 . S
C673 C667 1.428 . S
C673 N672 1.351 . S
C673 C674 1.434 . S
C674 C665 1.429 . S
C674 N671 1.350 . S
C674 C673 1.434 . S
C675 C676 1.369 . S
C675 C677 1.419 . S
C675 H679 0.930 . S
C676 C675 1.369 . S
C676 C685 1.429 . S
C677 C675 1.419 . S
C677 C678 1.363 . S
C677 H680 0.929 . S
C678 C677 1.363 . S
C678 C684 1.428 . S
H679 C675 0.930 . S
H680 C677 0.929 . S
S681 N682 1.613 . S
S681 N683 1.610 . S
N682 S681 1.613 . S
N682 C685 1.350 . S
N683 S681 1.610 . S
N683 C684 1.351 . S
C684 C678 1.428 . S
C684 N683 1.351 . S
C684 C685 1.434 . S
C685 C676 1.429 . S
C685 N682 1.350 . S
C685 C684 1.434 . S
C686 C687 1.369 . S
C686 C688 1.419 . S
C686 H690 0.930 . S
C687 C686 1.369 . S
C687 C696 1.429 . S
C688 C686 1.419 . S
C688 C689 1.363 . S
C688 H691 0.929 . S
C689 C688 1.363 . S
C689 C695 1.428 . S
H690 C686 0.930 . S
H691 C688 0.929 . S
S692 N693 1.613 . S
S692 N694 1.610 . S
N693 S692 1.613 . S
N693 C696 1.350 . S
N694 S692 1.610 . S
N694 C695 1.351 . S
C695 C689 1.428 . S
C695 N694 1.351 . S
C695 C696 1.434 . S
C696 C687 1.429 . S
C696 N693 1.350 . S
C696 C695 1.434 . S
C697 C698 1.369 . S
C697 C699 1.419 . S
C697 H701 0.930 . S
C698 C697 1.369 . S
C698 C707 1.429 . S
C699 C697 1.419 . S
C699 C700 1.363 1_554 S
C699 H702 0.929 . S
C700 C699 1.363 1_556 S
C700 C706 1.428 . S
H701 C697 0.930 . S
H702 C699 0.929 . S
S703 N704 1.613 1_556 S
S703 N705 1.610 . S
N704 S703 1.613 1_554 S
N704 C707 1.350 . S
N705 S703 1.610 . S
N705 C706 1.351 . S
C706 C700 1.428 . S
C706 N705 1.351 . S
C706 C707 1.434 1_556 S
C707 C698 1.429 . S
C707 N704 1.350 . S
C707 C706 1.434 1_554 S
C708 C709 1.369 . S
C708 C710 1.419 . S
C708 H712 0.930 . S
C709 C708 1.369 . S
C709 C718 1.429 . S
C710 C708 1.419 . S
C710 C711 1.363 . S
C710 H713 0.929 . S
C711 C710 1.363 . S
C711 C717 1.428 . S
H712 C708 0.930 . S
H713 C710 0.929 . S
S714 N715 1.613 . S
S714 N716 1.610 . S
N715 S714 1.613 . S
N715 C718 1.350 . S
N716 S714 1.610 . S
N716 C717 1.351 . S
C717 C711 1.428 . S
C717 N716 1.351 . S
C717 C718 1.434 . S
C718 C709 1.429 . S
C718 N715 1.350 . S
C718 C717 1.434 . S
C719 C720 1.369 . S
C719 C721 1.419 . S
C719 H723 0.930 . S
C720 C719 1.369 . S
C720 C729 1.429 . S
C721 C719 1.419 . S
C721 C722 1.363 . S
C721 H724 0.929 . S
C722 C721 1.363 . S
C722 C728 1.428 . S
H723 C719 0.930 . S
H724 C721 0.929 . S
S725 N726 1.613 . S
S725 N727 1.610 . S
N726 S725 1.613 . S
N726 C729 1.350 . S
N727 S725 1.610 . S
N727 C728 1.351 . S
C728 C722 1.428 . S
C728 N727 1.351 . S
C728 C729 1.434 . S
C729 C720 1.429 . S
C729 N726 1.350 . S
C729 C728 1.434 . S
C730 C731 1.369 . S
C730 C732 1.419 . S
C730 H734 0.930 . S
C731 C730 1.369 . S
C731 C740 1.429 . S
C732 C730 1.419 . S
C732 C733 1.363 . S
C732 H735 0.929 . S
C733 C732 1.363 . S
C733 C739 1.428 . S
H734 C730 0.930 . S
H735 C732 0.929 . S
S736 N737 1.613 . S
S736 N738 1.610 . S
N737 S736 1.613 . S
N737 C740 1.350 . S
N738 S736 1.610 . S
N738 C739 1.351 . S
C739 C733 1.428 . S
C739 N738 1.351 . S
C739 C740 1.434 . S
C740 C731 1.429 . S
C740 N737 1.350 . S
C740 C739 1.434 . S
C741 C742 1.369 . S
C741 C743 1.419 . S
C741 H745 0.930 . S
C742 C741 1.369 . S
C742 C751 1.429 . S
C743 C741 1.419 . S
C743 C744 1.363 1_556 S
C743 H746 0.929 . S
C744 C743 1.363 1_554 S
C744 C750 1.428 . S
H745 C741 0.930 . S
H746 C743 0.929 . S
S747 N748 1.613 . S
S747 N749 1.610 . S
N748 S747 1.613 . S
N748 C751 1.350 1_554 S
N749 S747 1.610 . S
N749 C750 1.351 . S
C750 C744 1.428 . S
C750 N749 1.351 . S
C750 C751 1.434 1_554 S
C751 C742 1.429 . S
C751 N748 1.350 1_556 S
C751 C750 1.434 1_556 S
C752 C753 1.369 . S
C752 C754 1.419 . S
C752 H756 0.930 . S
C753 C752 1.369 . S
C753 C762 1.429 . S
C754 C752 1.419 . S
C754 C755 1.363 . S
C754 H757 0.929 . S
C755 C754 1.363 . S
C755 C761 1.428 . S
H756 C752 0.930 . S
H757 C754 0.929 . S
S758 N759 1.613 . S
S758 N760 1.610 1_565 S
N759 S758 1.613 . S
N759 C762 1.350 1_565 S
N760 S758 1.610 1_545 S
N760 C761 1.351 . S
C761 C755 1.428 . S
C761 N760 1.351 . S
C761 C762 1.434 . S
C762 C753 1.429 . S
C762 N759 1.350 1_545 S
C762 C761 1.434 . S
C763 C764 1.369 . S
C763 C765 1.419 . S
C763 H767 0.930 . S
C764 C763 1.369 . S
C764 C773 1.429 . S
C765 C763 1.419 . S
C765 C766 1.363 1_545 S
C765 H768 0.929 . S
C766 C765 1.363 1_565 S
C766 C772 1.428 . S
H767 C763 0.930 . S
H768 C765 0.929 . S
S769 N770 1.613 1_565 S
S769 N771 1.610 . S
N770 S769 1.613 1_545 S
N770 C773 1.350 . S
N771 S769 1.610 . S
N771 C772 1.351 . S
C772 C766 1.428 . S
C772 N771 1.351 . S
C772 C773 1.434 1_565 S
C773 C764 1.429 . S
C773 N770 1.350 . S
C773 C772 1.434 1_545 S
C774 C775 1.369 . S
C774 C776 1.419 . S
C774 H778 0.930 . S
C775 C774 1.369 . S
C775 C784 1.429 . S
C776 C774 1.419 . S
C776 C777 1.363 . S
C776 H779 0.929 . S
C777 C776 1.363 . S
C777 C783 1.428 . S
H778 C774 0.930 . S
H779 C776 0.929 . S
S780 N781 1.613 . S
S780 N782 1.610 . S
N781 S780 1.613 . S
N781 C784 1.350 . S
N782 S780 1.610 . S
N782 C783 1.351 . S
C783 C777 1.428 . S
C783 N782 1.351 . S
C783 C784 1.434 . S
C784 C775 1.429 . S
C784 N781 1.350 . S
C784 C783 1.434 . S
C785 C786 1.369 . S
C785 C787 1.419 1_565 S
C785 H789 0.930 . S
C786 C785 1.369 . S
C786 C795 1.429 . S
C787 C785 1.419 1_545 S
C787 C788 1.363 . S
C787 H790 0.929 . S
C788 C787 1.363 . S
C788 C794 1.428 1_545 S
H789 C785 0.930 . S
H790 C787 0.929 . S
S791 N792 1.613 . S
S791 N793 1.610 . S
N792 S791 1.613 . S
N792 C795 1.350 . S
N793 S791 1.610 . S
N793 C794 1.351 . S
C794 C788 1.428 1_565 S
C794 N793 1.351 . S
C794 C795 1.434 . S
C795 C786 1.429 . S
C795 N792 1.350 . S
C795 C794 1.434 . S
C796 C797 1.369 . S
C796 C798 1.419 . S
C796 H800 0.930 . S
C797 C796 1.369 . S
C797 C806 1.429 . S
C798 C796 1.419 . S
C798 C799 1.363 . S
C798 H801 0.929 . S
C799 C798 1.363 . S
C799 C805 1.428 . S
H800 C796 0.930 . S
H801 C798 0.929 . S
S802 N803 1.613 . S
S802 N804 1.610 . S
N803 S802 1.613 . S
N803 C806 1.350 . S
N804 S802 1.610 . S
N804 C805 1.351 . S
C805 C799 1.428 . S
C805 N804 1.351 . S
C805 C806 1.434 . S
C806 C797 1.429 . S
C806 N803 1.350 . S
C806 C805 1.434 . S
C807 C808 1.369 . S
C807 C809 1.419 . S
C807 H811 0.930 . S
C808 C807 1.369 . S
C808 C817 1.429 . S
C809 C807 1.419 . S
C809 C810 1.363 1_545 S
C809 H812 0.929 1_545 S
C810 C809 1.363 1_565 S
C810 C816 1.428 1_565 S
H811 C807 0.930 . S
H812 C809 0.929 1_565 S
S813 N814 1.613 . S
S813 N815 1.610 . S
N814 S813 1.613 . S
N814 C817 1.350 . S
N815 S813 1.610 . S
N815 C816 1.351 . S
C816 C810 1.428 1_545 S
C816 N815 1.351 . S
C816 C817 1.434 . S
C817 C808 1.429 . S
C817 N814 1.350 . S
C817 C816 1.434 . S
C818 C819 1.369 . S
C818 C820 1.419 . S
C818 H822 0.930 . S
C819 C818 1.369 . S
C819 C828 1.429 . S
C820 C818 1.419 . S
C820 C821 1.363 . S
C820 H823 0.929 . S
C821 C820 1.363 . S
C821 C827 1.428 . S
H822 C818 0.930 . S
H823 C820 0.929 . S
S824 N825 1.613 . S
S824 N826 1.610 . S
N825 S824 1.613 . S
N825 C828 1.350 . S
N826 S824 1.610 . S
N826 C827 1.351 . S
C827 C821 1.428 . S
C827 N826 1.351 . S
C827 C828 1.434 . S
C828 C819 1.429 . S
C828 N825 1.350 . S
C828 C827 1.434 . S
C829 C830 1.369 . S
C829 C831 1.419 1_565 S
C829 H833 0.930 . S
C830 C829 1.369 . S
C830 C839 1.429 . S
C831 C829 1.419 1_545 S
C831 C832 1.363 . S
C831 H834 0.929 . S
C832 C831 1.363 . S
C832 C838 1.428 . S
H833 C829 0.930 . S
H834 C831 0.929 . S
S835 N836 1.613 . S
S835 N837 1.610 1_566 S
N836 S835 1.613 . S
N836 C839 1.350 1_556 S
N837 S835 1.610 1_544 S
N837 C838 1.351 . S
C838 C832 1.428 . S
C838 N837 1.351 . S
C838 C839 1.434 1_545 S
C839 C830 1.429 . S
C839 N836 1.350 1_554 S
C839 C838 1.434 1_565 S
C840 C841 1.369 . S
C840 C842 1.419 . S
C840 H844 0.930 . S
C841 C840 1.369 . S
C841 C850 1.429 . S
C842 C840 1.419 . S
C842 C843 1.363 . S
C842 H845 0.929 . S
C843 C842 1.363 . S
C843 C849 1.428 . S
H844 C840 0.930 . S
H845 C842 0.929 . S
S846 N847 1.613 . S
S846 N848 1.610 . S
N847 S846 1.613 . S
N847 C850 1.350 . S
N848 S846 1.610 . S
N848 C849 1.351 . S
C849 C843 1.428 . S
C849 N848 1.351 . S
C849 C850 1.434 . S
C850 C841 1.429 . S
C850 N847 1.350 . S
C850 C849 1.434 . S
C851 C852 1.369 . S
C851 C853 1.419 . S
C851 H855 0.930 . S
C852 C851 1.369 . S
C852 C861 1.429 . S
C853 C851 1.419 . S
C853 C854 1.363 . S
C853 H856 0.929 . S
C854 C853 1.363 . S
C854 C860 1.428 . S
H855 C851 0.930 . S
H856 C853 0.929 . S
S857 N858 1.613 . S
S857 N859 1.610 . S
N858 S857 1.613 . S
N858 C861 1.350 . S
N859 S857 1.610 . S
N859 C860 1.351 . S
C860 C854 1.428 . S
C860 N859 1.351 . S
C860 C861 1.434 . S
C861 C852 1.429 . S
C861 N858 1.350 . S
C861 C860 1.434 . S
C862 C863 1.369 . S
C862 C864 1.419 1_455 S
C862 H866 0.930 . S
C863 C862 1.369 . S
C863 C872 1.429 . S
C864 C862 1.419 1_655 S
C864 C865 1.363 . S
C864 H867 0.929 . S
C865 C864 1.363 . S
C865 C871 1.428 1_655 S
H866 C862 0.930 . S
H867 C864 0.929 . S
S868 N869 1.613 . S
S868 N870 1.610 . S
N869 S868 1.613 . S
N869 C872 1.350 . S
N870 S868 1.610 . S
N870 C871 1.351 . S
C871 C865 1.428 1_455 S
C871 N870 1.351 . S
C871 C872 1.434 . S
C872 C863 1.429 . S
C872 N869 1.350 . S
C872 C871 1.434 . S
C873 C874 1.369 . S
C873 C875 1.419 . S
C873 H877 0.930 . S
C874 C873 1.369 . S
C874 C883 1.429 . S
C875 C873 1.419 . S
C875 C876 1.363 . S
C875 H878 0.929 . S
C876 C875 1.363 . S
C876 C882 1.428 . S
H877 C873 0.930 . S
H878 C875 0.929 . S
S879 N880 1.613 . S
S879 N881 1.610 . S
N880 S879 1.613 . S
N880 C883 1.350 . S
N881 S879 1.610 . S
N881 C882 1.351 . S
C882 C876 1.428 . S
C882 N881 1.351 . S
C882 C883 1.434 . S
C883 C874 1.429 . S
C883 N880 1.350 . S
C883 C882 1.434 . S
C884 C885 1.369 . S
C884 C886 1.419 . S
C884 H888 0.930 . S
C885 C884 1.369 . S
C885 C894 1.429 . S
C886 C884 1.419 . S
C886 C887 1.363 1_655 S
C886 H889 0.929 1_655 S
C887 C886 1.363 1_455 S
C887 C893 1.428 . S
H888 C884 0.930 . S
H889 C886 0.929 1_455 S
S890 N891 1.613 . S
S890 N892 1.610 1_655 S
N891 S890 1.613 . S
N891 C894 1.350 . S
N892 S890 1.610 1_455 S
N892 C893 1.351 . S
C893 C887 1.428 . S
C893 N892 1.351 . S
C893 C894 1.434 1_455 S
C894 C885 1.429 . S
C894 N891 1.350 . S
C894 C893 1.434 1_655 S
C895 C896 1.369 . S
C895 C897 1.419 . S
C895 H899 0.930 . S
C896 C895 1.369 . S
C896 C905 1.429 . S
C897 C895 1.419 . S
C897 C898 1.363 . S
C897 H900 0.929 . S
C898 C897 1.363 . S
C898 C904 1.428 . S
H899 C895 0.930 . S
H900 C897 0.929 . S
S901 N902 1.613 . S
S901 N903 1.610 . S
N902 S901 1.613 . S
N902 C905 1.350 . S
N903 S901 1.610 . S
N903 C904 1.351 . S
C904 C898 1.428 . S
C904 N903 1.351 . S
C904 C905 1.434 . S
C905 C896 1.429 . S
C905 N902 1.350 . S
C905 C904 1.434 . S
C906 C907 1.369 . S
C906 C908 1.432 . S
C906 H910 0.930 . S
C907 C906 1.369 . S
C907 C916 1.429 . S
C908 C906 1.432 . S
C908 C909 1.357 1_455 S
C908 H911 0.922 1_455 S
C909 C908 1.357 1_655 S
C909 C915 1.428 1_655 S
H910 C906 0.930 . S
H911 C908 0.922 1_655 S
S912 N913 1.613 . S
S912 N914 1.610 1_455 S
N913 S912 1.613 . S
N913 C916 1.350 . S
N914 S912 1.610 1_655 S
N914 C915 1.351 1_655 S
C915 C909 1.428 1_455 S
C915 N914 1.351 1_455 S
C915 C916 1.434 . S
C916 C907 1.429 . S
C916 N913 1.350 . S
C916 C915 1.434 . S
C917 C918 1.369 . S
C917 C919 1.419 . S
C917 H921 0.930 . S
C918 C917 1.369 . S
C918 C927 1.429 . S
C919 C917 1.419 . S
C919 C920 1.363 . S
C919 H922 0.929 . S
C920 C919 1.363 . S
C920 C926 1.428 . S
H921 C917 0.930 . S
H922 C919 0.929 . S
S923 N924 1.613 . S
S923 N925 1.610 . S
N924 S923 1.613 . S
N924 C927 1.350 . S
N925 S923 1.610 . S
N925 C926 1.351 . S
C926 C920 1.428 . S
C926 N925 1.351 . S
C926 C927 1.434 . S
C927 C918 1.429 . S
C927 N924 1.350 . S
C927 C926 1.434 . S
C928 C929 1.369 . S
C928 C930 1.419 . S
C928 H932 0.930 . S
C929 C928 1.369 . S
C929 C938 1.429 . S
C930 C928 1.419 . S
C930 C931 1.363 . S
C930 H933 0.929 . S
C931 C930 1.363 . S
C931 C937 1.428 . S
H932 C928 0.930 . S
H933 C930 0.929 . S
S934 N935 1.613 . S
S934 N936 1.610 . S
N935 S934 1.613 . S
N935 C938 1.350 . S
N936 S934 1.610 . S
N936 C937 1.351 . S
C937 C931 1.428 . S
C937 N936 1.351 . S
C937 C938 1.434 . S
C938 C929 1.429 . S
C938 N935 1.350 . S
C938 C937 1.434 . S
C939 C940 1.369 . S
C939 C941 1.419 . S
C939 H943 0.930 . S
C940 C939 1.369 . S
C940 C949 1.429 . S
C941 C939 1.419 . S
C941 C942 1.363 . S
C941 H944 0.929 . S
C942 C941 1.363 . S
C942 C948 1.428 . S
H943 C939 0.930 . S
H944 C941 0.929 . S
S945 N946 1.613 . S
S945 N947 1.610 . S
N946 S945 1.613 . S
N946 C949 1.350 . S
N947 S945 1.610 . S
N947 C948 1.351 . S
C948 C942 1.428 . S
C948 N947 1.351 . S
C948 C949 1.434 . S
C949 C940 1.429 . S
C949 N946 1.350 . S
C949 C948 1.434 . S
C950 C951 1.369 . S
C950 C952 1.419 . S
C950 H954 0.930 . S
C951 C950 1.369 . S
C951 C960 1.429 . S
C952 C950 1.419 . S
C952 C953 1.363 . S
C952 H955 0.929 . S
C953 C952 1.363 . S
C953 C959 1.428 . S
H954 C950 0.930 . S
H955 C952 0.929 . S
S956 N957 1.613 . S
S956 N958 1.610 . S
N957 S956 1.613 . S
N957 C960 1.350 . S
N958 S956 1.610 . S
N958 C959 1.351 . S
C959 C953 1.428 . S
C959 N958 1.351 . S
C959 C960 1.434 . S
C960 C951 1.429 . S
C960 N957 1.350 . S
C960 C959 1.434 . S
C961 C962 1.369 . S
C961 C963 1.419 1_556 S
C961 H965 0.930 . S
C962 C961 1.369 . S
C962 C971 1.429 . S
C963 C961 1.419 1_554 S
C963 C964 1.363 . S
C963 H966 0.929 . S
C964 C963 1.363 . S
C964 C970 1.428 1_554 S
H965 C961 0.930 . S
H966 C963 0.929 . S
S967 N968 1.613 . S
S967 N969 1.610 . S
N968 S967 1.613 . S
N968 C971 1.350 . S
N969 S967 1.610 . S
N969 C970 1.351 . S
C970 C964 1.428 1_556 S
C970 N969 1.351 . S
C970 C971 1.434 . S
C971 C962 1.429 . S
C971 N968 1.350 . S
C971 C970 1.434 . S
C972 C973 1.369 . S
C972 C974 1.419 . S
C972 H976 0.930 . S
C973 C972 1.369 . S
C973 C982 1.429 . S
C974 C972 1.419 . S
C974 C975 1.363 . S
C974 H977 0.929 . S
C975 C974 1.363 . S
C975 C981 1.428 . S
H976 C972 0.930 . S
H977 C974 0.929 . S
S978 N979 1.613 1_455 S
S978 N980 1.610 1_455 S
N979 S978 1.613 1_655 S
N979 C982 1.350 . S
N980 S978 1.610 1_655 S
N980 C981 1.351 . S
C981 C975 1.428 . S
C981 N980 1.351 . S
C981 C982 1.434 . S
C982 C973 1.429 . S
C982 N979 1.350 . S
C982 C981 1.434 . S
C983 C984 1.369 . S
C983 C985 1.419 . S
C983 H987 0.930 . S
C984 C983 1.369 . S
C984 C993 1.429 . S
C985 C983 1.419 . S
C985 C986 1.363 . S
C985 H988 0.929 . S
C986 C985 1.363 . S
C986 C992 1.428 . S
H987 C983 0.930 . S
H988 C985 0.929 . S
S989 N990 1.613 . S
S989 N991 1.610 . S
N990 S989 1.613 . S
N990 C993 1.350 . S
N991 S989 1.610 . S
N991 C992 1.351 . S
C992 C986 1.428 . S
C992 N991 1.351 . S
C992 C993 1.434 . S
C993 C984 1.429 . S
C993 N990 1.350 . S
C993 C992 1.434 . S
C994 C995 1.369 . S
C994 C996 1.419 . S
C994 H998 0.930 . S
C995 C994 1.369 . S
C995 C1004 1.429 . S
C996 C994 1.419 . S
C996 C997 1.363 . S
C996 H999 0.929 . S
C997 C996 1.363 . S
C997 C1003 1.428 . S
H998 C994 0.930 . S
H999 C996 0.929 . S
S1000 N1001 1.613 . S
S1000 N1002 1.610 . S
N1001 S1000 1.613 . S
N1001 C1004 1.350 . S
N1002 S1000 1.610 . S
N1002 C1003 1.351 . S
C1003 C997 1.428 . S
C1003 N1002 1.351 . S
C1003 C1004 1.434 . S
C1004 C995 1.429 . S
C1004 N1001 1.350 . S
C1004 C1003 1.434 . S
C1005 C1006 1.369 . S
C1005 C1007 1.419 1_554 S
C1005 H1009 0.930 . S
C1006 C1005 1.369 . S
C1006 C1015 1.429 . S
C1007 C1005 1.419 1_556 S
C1007 C1008 1.363 . S
C1007 H1010 0.929 . S
C1008 C1007 1.363 . S
C1008 C1014 1.428 1_556 S
H1009 C1005 0.930 . S
H1010 C1007 0.929 . S
S1011 N1012 1.613 . S
S1011 N1013 1.610 . S
N1012 S1011 1.613 . S
N1012 C1015 1.350 . S
N1013 S1011 1.610 . S
N1013 C1014 1.351 . S
C1014 C1008 1.428 1_554 S
C1014 N1013 1.351 . S
C1014 C1015 1.434 . S
C1015 C1006 1.429 . S
C1015 N1012 1.350 . S
C1015 C1014 1.434 . S
C1016 C1017 1.369 . S
C1016 C1018 1.419 . S
C1016 H1020 0.930 . S
C1017 C1016 1.369 . S
C1017 C1026 1.429 . S
C1018 C1016 1.419 . S
C1018 C1019 1.363 . S
C1018 H1021 0.929 . S
C1019 C1018 1.363 . S
C1019 C1025 1.428 . S
H1020 C1016 0.930 . S
H1021 C1018 0.929 . S
S1022 N1023 1.613 . S
S1022 N1024 1.610 . S
N1023 S1022 1.613 . S
N1023 C1026 1.350 . S
N1024 S1022 1.610 . S
N1024 C1025 1.351 . S
C1025 C1019 1.428 . S
C1025 N1024 1.351 . S
C1025 C1026 1.434 . S
C1026 C1017 1.429 . S
C1026 N1023 1.350 . S
C1026 C1025 1.434 . S
C1027 C1028 1.369 . S
C1027 C1029 1.419 1_565 S
C1027 H1031 0.930 . S
C1028 C1027 1.369 . S
C1028 C1037 1.429 . S
C1029 C1027 1.419 1_545 S
C1029 C1030 1.363 . S
C1029 H1032 0.929 . S
C1030 C1029 1.363 . S
C1030 C1036 1.428 1_545 S
H1031 C1027 0.930 . S
H1032 C1029 0.929 . S
S1033 N1034 1.613 . S
S1033 N1035 1.610 . S
N1034 S1033 1.613 . S
N1034 C1037 1.350 . S
N1035 S1033 1.610 . S
N1035 C1036 1.351 . S
C1036 C1030 1.428 1_565 S
C1036 N1035 1.351 . S
C1036 C1037 1.434 . S
C1037 C1028 1.429 . S
C1037 N1034 1.350 . S
C1037 C1036 1.434 . S
C1038 C1039 1.369 . S
C1038 C1040 1.419 . S
C1038 H1042 0.930 . S
C1039 C1038 1.369 . S
C1039 C1048 1.429 . S
C1040 C1038 1.419 . S
C1040 C1041 1.363 . S
C1040 H1043 0.929 . S
C1041 C1040 1.363 . S
C1041 C1047 1.428 . S
H1042 C1038 0.930 . S
H1043 C1040 0.929 . S
S1044 N1045 1.613 . S
S1044 N1046 1.610 . S
N1045 S1044 1.613 . S
N1045 C1048 1.350 . S
N1046 S1044 1.610 . S
N1046 C1047 1.351 . S
C1047 C1041 1.428 . S
C1047 N1046 1.351 . S
C1047 C1048 1.434 . S
C1048 C1039 1.429 . S
C1048 N1045 1.350 . S
C1048 C1047 1.434 . S
C1049 C1050 1.369 . S
C1049 C1051 1.419 1_545 S
C1049 H1053 0.930 . S
C1050 C1049 1.369 . S
C1050 C1059 1.429 . S
C1051 C1049 1.419 1_565 S
C1051 C1052 1.363 . S
C1051 H1054 0.929 . S
C1052 C1051 1.363 . S
C1052 C1058 1.428 1_565 S
H1053 C1049 0.930 . S
H1054 C1051 0.929 . S
S1055 N1056 1.613 . S
S1055 N1057 1.610 . S
N1056 S1055 1.613 . S
N1056 C1059 1.350 . S
N1057 S1055 1.610 . S
N1057 C1058 1.351 . S
C1058 C1052 1.428 1_545 S
C1058 N1057 1.351 . S
C1058 C1059 1.434 . S
C1059 C1050 1.429 . S
C1059 N1056 1.350 . S
C1059 C1058 1.434 . S
C1060 C1061 1.369 . S
C1060 C1062 1.419 . S
C1060 H1064 0.930 . S
C1061 C1060 1.369 . S
C1061 C1070 1.429 . S
C1062 C1060 1.419 . S
C1062 C1063 1.363 . S
C1062 H1065 0.929 . S
C1063 C1062 1.363 . S
C1063 C1069 1.428 . S
H1064 C1060 0.930 . S
H1065 C1062 0.929 . S
S1066 N1067 1.613 . S
S1066 N1068 1.610 . S
N1067 S1066 1.613 . S
N1067 C1070 1.350 . S
N1068 S1066 1.610 . S
N1068 C1069 1.351 . S
C1069 C1063 1.428 . S
C1069 N1068 1.351 . S
C1069 C1070 1.434 . S
C1070 C1061 1.429 . S
C1070 N1067 1.350 . S
C1070 C1069 1.434 . S
C1071 C1072 1.369 . S
C1071 C1073 1.419 1_565 S
C1071 H1075 0.930 . S
C1072 C1071 1.369 . S
C1072 C1081 1.429 . S
C1073 C1071 1.419 1_545 S
C1073 C1074 1.363 . S
C1073 H1076 0.929 . S
C1074 C1073 1.363 . S
C1074 C1080 1.428 1_545 S
H1075 C1071 0.930 . S
H1076 C1073 0.929 . S
S1077 N1078 1.613 . S
S1077 N1079 1.610 . S
N1078 S1077 1.613 . S
N1078 C1081 1.350 . S
N1079 S1077 1.610 . S
N1079 C1080 1.351 . S
C1080 C1074 1.428 1_565 S
C1080 N1079 1.351 . S
C1080 C1081 1.434 . S
C1081 C1072 1.429 . S
C1081 N1078 1.350 . S
C1081 C1080 1.434 . S
C1082 C1083 1.369 . S
C1082 C1084 1.419 . S
C1082 H1086 0.930 . S
C1083 C1082 1.369 . S
C1083 C1092 1.429 . S
C1084 C1082 1.419 . S
C1084 C1085 1.363 . S
C1084 H1087 0.929 . S
C1085 C1084 1.363 . S
C1085 C1091 1.428 . S
H1086 C1082 0.930 . S
H1087 C1084 0.929 . S
S1088 N1089 1.613 . S
S1088 N1090 1.610 . S
N1089 S1088 1.613 . S
N1089 C1092 1.350 . S
N1090 S1088 1.610 . S
N1090 C1091 1.351 . S
C1091 C1085 1.428 . S
C1091 N1090 1.351 . S
C1091 C1092 1.434 . S
C1092 C1083 1.429 . S
C1092 N1089 1.350 . S
C1092 C1091 1.434 . S
C1093 C1094 1.369 . S
C1093 C1095 1.419 . S
C1093 H1097 0.930 . S
C1094 C1093 1.369 . S
C1094 C1103 1.429 . S
C1095 C1093 1.419 . S
C1095 C1096 1.363 1_545 S
C1095 H1098 0.929 1_545 S
C1096 C1095 1.363 1_565 S
C1096 C1102 1.428 1_565 S
H1097 C1093 0.930 . S
H1098 C1095 0.929 1_565 S
S1099 N1100 1.613 . S
S1099 N1101 1.610 1_544 S
N1100 S1099 1.613 . S
N1100 C1103 1.350 1_554 S
N1101 S1099 1.610 1_566 S
N1101 C1102 1.351 1_565 S
C1102 C1096 1.428 1_545 S
C1102 N1101 1.351 1_545 S
C1102 C1103 1.434 . S
C1103 C1094 1.429 . S
C1103 N1100 1.350 1_556 S
C1103 C1102 1.434 . S
C1104 C1105 1.369 . S
C1104 C1106 1.419 . S
C1104 H1108 0.930 . S
C1105 C1104 1.369 . S
C1105 C1114 1.429 . S
C1106 C1104 1.419 . S
C1106 C1107 1.363 . S
C1106 H1109 0.929 . S
C1107 C1106 1.363 . S
C1107 C1113 1.428 . S
H1108 C1104 0.930 . S
H1109 C1106 0.929 . S
S1110 N1111 1.613 . S
S1110 N1112 1.610 . S
N1111 S1110 1.613 . S
N1111 C1114 1.350 . S
N1112 S1110 1.610 . S
N1112 C1113 1.351 . S
C1113 C1107 1.428 . S
C1113 N1112 1.351 . S
C1113 C1114 1.434 . S
C1114 C1105 1.429 . S
C1114 N1111 1.350 . S
C1114 C1113 1.434 . S
C1115 C1116 1.369 . S
C1115 C1117 1.419 . S
C1115 H1119 0.930 . S
C1116 C1115 1.369 . S
C1116 C1125 1.429 . S
C1117 C1115 1.419 . S
C1117 C1118 1.363 . S
C1117 H1120 0.929 . S
C1118 C1117 1.363 . S
C1118 C1124 1.428 . S
H1119 C1115 0.930 . S
H1120 C1117 0.929 . S
S1121 N1122 1.613 . S
S1121 N1123 1.610 . S
N1122 S1121 1.613 . S
N1122 C1125 1.350 . S
N1123 S1121 1.610 . S
N1123 C1124 1.351 . S
C1124 C1118 1.428 . S
C1124 N1123 1.351 . S
C1124 C1125 1.434 . S
C1125 C1116 1.429 . S
C1125 N1122 1.350 . S
C1125 C1124 1.434 . S
C1126 C1127 1.369 . S
C1126 C1128 1.419 1_655 S
C1126 H1130 0.930 . S
C1127 C1126 1.369 . S
C1127 C1136 1.429 . S
C1128 C1126 1.419 1_455 S
C1128 C1129 1.363 . S
C1128 H1131 0.929 . S
C1129 C1128 1.363 . S
C1129 C1135 1.428 1_455 S
H1130 C1126 0.930 . S
H1131 C1128 0.929 . S
S1132 N1133 1.613 . S
S1132 N1134 1.610 1_655 S
N1133 S1132 1.613 . S
N1133 C1136 1.350 . S
N1134 S1132 1.610 1_455 S
N1134 C1135 1.351 1_455 S
C1135 C1129 1.428 1_655 S
C1135 N1134 1.351 1_655 S
C1135 C1136 1.434 . S
C1136 C1127 1.429 . S
C1136 N1133 1.350 . S
C1136 C1135 1.434 . S
C1137 C1138 1.369 . S
C1137 C1139 1.419 . S
C1137 H1141 0.930 . S
C1138 C1137 1.369 . S
C1138 C1147 1.429 . S
C1139 C1137 1.419 . S
C1139 C1140 1.363 . S
C1139 H1142 0.929 . S
C1140 C1139 1.363 . S
C1140 C1146 1.428 . S
H1141 C1137 0.930 . S
H1142 C1139 0.929 . S
S1143 N1144 1.613 . S
S1143 N1145 1.610 . S
N1144 S1143 1.613 . S
N1144 C1147 1.350 . S
N1145 S1143 1.610 . S
N1145 C1146 1.351 . S
C1146 C1140 1.428 . S
C1146 N1145 1.351 . S
C1146 C1147 1.434 . S
C1147 C1138 1.429 . S
C1147 N1144 1.350 . S
C1147 C1146 1.434 . S
C1148 C1149 1.369 . S
C1148 C1150 1.419 . S
C1148 H1152 0.930 . S
C1149 C1148 1.369 . S
C1149 C1158 1.429 . S
C1150 C1148 1.419 . S
C1150 C1151 1.363 1_455 S
C1150 H1153 0.929 . S
C1151 C1150 1.363 1_655 S
C1151 C1157 1.428 . S
H1152 C1148 0.930 . S
H1153 C1150 0.929 . S
S1154 N1155 1.613 1_655 S
S1154 N1156 1.610 . S
N1155 S1154 1.613 1_455 S
N1155 C1158 1.350 . S
N1156 S1154 1.610 . S
N1156 C1157 1.351 . S
C1157 C1151 1.428 . S
C1157 N1156 1.351 . S
C1157 C1158 1.434 1_655 S
C1158 C1149 1.429 . S
C1158 N1155 1.350 . S
C1158 C1157 1.434 1_455 S
C1159 C1160 1.369 . S
C1159 C1161 1.419 . S
C1159 H1163 0.930 . S
C1160 C1159 1.369 . S
C1160 C1169 1.429 . S
C1161 C1159 1.419 . S
C1161 C1162 1.363 . S
C1161 H1164 0.929 . S
C1162 C1161 1.363 . S
C1162 C1168 1.428 . S
H1163 C1159 0.930 . S
H1164 C1161 0.929 . S
S1165 N1166 1.613 . S
S1165 N1167 1.610 . S
N1166 S1165 1.613 . S
N1166 C1169 1.350 . S
N1167 S1165 1.610 . S
N1167 C1168 1.351 . S
C1168 C1162 1.428 . S
C1168 N1167 1.351 . S
C1168 C1169 1.434 . S
C1169 C1160 1.429 . S
C1169 N1166 1.350 . S
C1169 C1168 1.434 . S
C1170 C1171 1.369 . S
C1170 C1172 1.419 1_655 S
C1170 H1174 0.930 . S
C1171 C1170 1.369 . S
C1171 C1180 1.429 . S
C1172 C1170 1.419 1_455 S
C1172 C1173 1.363 . S
C1172 H1175 0.929 . S
C1173 C1172 1.363 . S
C1173 C1179 1.428 1_455 S
H1174 C1170 0.930 . S
H1175 C1172 0.929 . S
S1176 N1177 1.613 . S
S1176 N1178 1.610 . S
N1177 S1176 1.613 . S
N1177 C1180 1.350 . S
N1178 S1176 1.610 . S
N1178 C1179 1.351 . S
C1179 C1173 1.428 1_655 S
C1179 N1178 1.351 . S
C1179 C1180 1.434 . S
C1180 C1171 1.429 . S
C1180 N1177 1.350 . S
C1180 C1179 1.434 . S
C1181 C1182 1.369 . S
C1181 C1183 1.419 . S
C1181 H1185 0.930 . S
C1182 C1181 1.369 . S
C1182 C1191 1.429 . S
C1183 C1181 1.419 . S
C1183 C1184 1.363 . S
C1183 H1186 0.929 . S
C1184 C1183 1.363 . S
C1184 C1190 1.428 . S
H1185 C1181 0.930 . S
H1186 C1183 0.929 . S
S1187 N1188 1.613 . S
S1187 N1189 1.610 . S
N1188 S1187 1.613 . S
N1188 C1191 1.350 . S
N1189 S1187 1.610 . S
N1189 C1190 1.351 . S
C1190 C1184 1.428 . S
C1190 N1189 1.351 . S
C1190 C1191 1.434 . S
C1191 C1182 1.429 . S
C1191 N1188 1.350 . S
C1191 C1190 1.434 . S
C1192 C1193 1.369 . S
C1192 C1194 1.419 . S
C1192 H1196 0.930 . S
C1193 C1192 1.369 . S
C1193 C1202 1.429 . S
C1194 C1192 1.419 . S
C1194 C1195 1.363 . S
C1194 H1197 0.929 . S
C1195 C1194 1.363 . S
C1195 C1201 1.428 . S
H1196 C1192 0.930 . S
H1197 C1194 0.929 . S
S1198 N1199 1.613 . S
S1198 N1200 1.610 . S
N1199 S1198 1.613 . S
N1199 C1202 1.350 . S
N1200 S1198 1.610 . S
N1200 C1201 1.351 . S
C1201 C1195 1.428 . S
C1201 N1200 1.351 . S
C1201 C1202 1.434 . S
C1202 C1193 1.429 . S
C1202 N1199 1.350 . S
C1202 C1201 1.434 . S
C1203 C1204 1.369 . S
C1203 C1205 1.419 1_554 S
C1203 H1207 0.930 . S
C1204 C1203 1.369 . S
C1204 C1213 1.429 . S
C1205 C1203 1.419 1_556 S
C1205 C1206 1.363 . S
C1205 H1208 0.929 . S
C1206 C1205 1.363 . S
C1206 C1212 1.428 1_556 S
H1207 C1203 0.930 . S
H1208 C1205 0.929 . S
S1209 N1210 1.613 . S
S1209 N1211 1.610 . S
N1210 S1209 1.613 . S
N1210 C1213 1.350 . S
N1211 S1209 1.610 . S
N1211 C1212 1.351 . S
C1212 C1206 1.428 1_554 S
C1212 N1211 1.351 . S
C1212 C1213 1.434 . S
C1213 C1204 1.429 . S
C1213 N1210 1.350 . S
C1213 C1212 1.434 . S
C1214 C1215 1.369 . S
C1214 C1216 1.419 . S
C1214 H1218 0.930 . S
C1215 C1214 1.369 . S
C1215 C1224 1.429 . S
C1216 C1214 1.419 . S
C1216 C1217 1.363 . S
C1216 H1219 0.929 . S
C1217 C1216 1.363 . S
C1217 C1223 1.428 . S
H1218 C1214 0.930 . S
H1219 C1216 0.929 . S
S1220 N1221 1.613 . S
S1220 N1222 1.610 . S
N1221 S1220 1.613 . S
N1221 C1224 1.350 . S
N1222 S1220 1.610 . S
N1222 C1223 1.351 . S
C1223 C1217 1.428 . S
C1223 N1222 1.351 . S
C1223 C1224 1.434 . S
C1224 C1215 1.429 . S
C1224 N1221 1.350 . S
C1224 C1223 1.434 . S
C1225 C1226 1.369 . S
C1225 C1227 1.419 . S
C1225 H1229 0.930 . S
C1226 C1225 1.369 . S
C1226 C1235 1.429 . S
C1227 C1225 1.419 . S
C1227 C1228 1.363 . S
C1227 H1230 0.929 . S
C1228 C1227 1.363 . S
C1228 C1234 1.428 . S
H1229 C1225 0.930 . S
H1230 C1227 0.929 . S
S1231 N1232 1.613 . S
S1231 N1233 1.610 . S
N1232 S1231 1.613 . S
N1232 C1235 1.350 . S
N1233 S1231 1.610 . S
N1233 C1234 1.351 . S
C1234 C1228 1.428 . S
C1234 N1233 1.351 . S
C1234 C1235 1.434 . S
C1235 C1226 1.429 . S
C1235 N1232 1.350 . S
C1235 C1234 1.434 . S
C1236 C1237 1.369 . S
C1236 C1238 1.419 . S
C1236 H1240 0.930 . S
C1237 C1236 1.369 . S
C1237 C1246 1.429 . S
C1238 C1236 1.419 . S
C1238 C1239 1.363 . S
C1238 H1241 0.929 . S
C1239 C1238 1.363 . S
C1239 C1245 1.428 . S
H1240 C1236 0.930 . S
H1241 C1238 0.929 . S
S1242 N1243 1.613 . S
S1242 N1244 1.610 . S
N1243 S1242 1.613 . S
N1243 C1246 1.350 . S
N1244 S1242 1.610 . S
N1244 C1245 1.351 . S
C1245 C1239 1.428 . S
C1245 N1244 1.351 . S
C1245 C1246 1.434 . S
C1246 C1237 1.429 . S
C1246 N1243 1.350 . S
C1246 C1245 1.434 . S
C1247 C1248 1.369 . S
C1247 C1249 1.419 1_556 S
C1247 H1251 0.930 . S
C1248 C1247 1.369 . S
C1248 C1257 1.429 . S
C1249 C1247 1.419 1_554 S
C1249 C1250 1.363 . S
C1249 H1252 0.929 . S
C1250 C1249 1.363 . S
C1250 C1256 1.428 1_554 S
H1251 C1247 0.930 . S
H1252 C1249 0.929 . S
S1253 N1254 1.613 . S
S1253 N1255 1.610 . S
N1254 S1253 1.613 . S
N1254 C1257 1.350 . S
N1255 S1253 1.610 . S
N1255 C1256 1.351 . S
C1256 C1250 1.428 1_556 S
C1256 N1255 1.351 . S
C1256 C1257 1.434 . S
C1257 C1248 1.429 . S
C1257 N1254 1.350 . S
C1257 C1256 1.434 . S
C1258 C1259 1.369 . S
C1258 C1260 1.419 . S
C1258 H1262 0.930 . S
C1259 C1258 1.369 . S
C1259 C1268 1.429 . S
C1260 C1258 1.419 . S
C1260 C1261 1.363 . S
C1260 H1263 0.929 . S
C1261 C1260 1.363 . S
C1261 C1267 1.428 . S
H1262 C1258 0.930 . S
H1263 C1260 0.929 . S
S1264 N1265 1.613 . S
S1264 N1266 1.610 . S
N1265 S1264 1.613 . S
N1265 C1268 1.350 . S
N1266 S1264 1.610 . S
N1266 C1267 1.351 . S
C1267 C1261 1.428 . S
C1267 N1266 1.351 . S
C1267 C1268 1.434 . S
C1268 C1259 1.429 . S
C1268 N1265 1.350 . S
C1268 C1267 1.434 . S
C1269 C1270 1.369 . S
C1269 C1271 1.419 . S
C1269 H1273 0.930 . S
C1270 C1269 1.369 . S
C1270 C1279 1.429 . S
C1271 C1269 1.419 . S
C1271 C1272 1.363 . S
C1271 H1274 0.929 . S
C1272 C1271 1.363 . S
C1272 C1278 1.428 . S
H1273 C1269 0.930 . S
H1274 C1271 0.929 . S
S1275 N1276 1.613 . S
S1275 N1277 1.610 . S
N1276 S1275 1.613 . S
N1276 C1279 1.350 . S
N1277 S1275 1.610 . S
N1277 C1278 1.351 . S
C1278 C1272 1.428 . S
C1278 N1277 1.351 . S
C1278 C1279 1.434 . S
C1279 C1270 1.429 . S
C1279 N1276 1.350 . S
C1279 C1278 1.434 . S
C1280 C1281 1.369 . S
C1280 C1282 1.419 . S
C1280 H1284 0.930 . S
C1281 C1280 1.369 . S
C1281 C1290 1.429 . S
C1282 C1280 1.419 . S
C1282 C1283 1.363 . S
C1282 H1285 0.929 . S
C1283 C1282 1.363 . S
C1283 C1289 1.428 . S
H1284 C1280 0.930 . S
H1285 C1282 0.929 . S
S1286 N1287 1.613 . S
S1286 N1288 1.610 . S
N1287 S1286 1.613 . S
N1287 C1290 1.350 . S
N1288 S1286 1.610 . S
N1288 C1289 1.351 . S
C1289 C1283 1.428 . S
C1289 N1288 1.351 . S
C1289 C1290 1.434 . S
C1290 C1281 1.429 . S
C1290 N1287 1.350 . S
C1290 C1289 1.434 . S
C1291 C1292 1.369 . S
C1291 C1293 1.419 . S
C1291 H1295 0.930 . S
C1292 C1291 1.369 . S
C1292 C1301 1.429 . S
C1293 C1291 1.419 . S
C1293 C1294 1.363 . S
C1293 H1296 0.929 . S
C1294 C1293 1.363 . S
C1294 C1300 1.428 . S
H1295 C1291 0.930 . S
H1296 C1293 0.929 . S
S1297 N1298 1.613 . S
S1297 N1299 1.610 . S
N1298 S1297 1.613 . S
N1298 C1301 1.350 . S
N1299 S1297 1.610 . S
N1299 C1300 1.351 . S
C1300 C1294 1.428 . S
C1300 N1299 1.351 . S
C1300 C1301 1.434 . S
C1301 C1292 1.429 . S
C1301 N1298 1.350 . S
C1301 C1300 1.434 . S
C1302 C1303 1.369 . S
C1302 C1304 1.419 . S
C1302 H1306 0.930 . S
C1303 C1302 1.369 . S
C1303 C1312 1.429 . S
C1304 C1302 1.419 . S
C1304 C1305 1.363 . S
C1304 H1307 0.929 . S
C1305 C1304 1.363 . S
C1305 C1311 1.428 . S
H1306 C1302 0.930 . S
H1307 C1304 0.929 . S
S1308 N1309 1.613 . S
S1308 N1310 1.610 . S
N1309 S1308 1.613 . S
N1309 C1312 1.350 . S
N1310 S1308 1.610 . S
N1310 C1311 1.351 . S
C1311 C1305 1.428 . S
C1311 N1310 1.351 . S
C1311 C1312 1.434 . S
C1312 C1303 1.429 . S
C1312 N1309 1.350 . S
C1312 C1311 1.434 . S
C1313 C1314 1.369 . S
C1313 C1315 1.419 . S
C1313 H1317 0.930 . S
C1314 C1313 1.369 . S
C1314 C1323 1.429 . S
C1315 C1313 1.419 . S
C1315 C1316 1.363 . S
C1315 H1318 0.929 . S
C1316 C1315 1.363 . S
C1316 C1322 1.428 . S
H1317 C1313 0.930 . S
H1318 C1315 0.929 . S
S1319 N1320 1.613 . S
S1319 N1321 1.610 . S
N1320 S1319 1.613 . S
N1320 C1323 1.350 . S
N1321 S1319 1.610 . S
N1321 C1322 1.351 . S
C1322 C1316 1.428 . S
C1322 N1321 1.351 . S
C1322 C1323 1.434 . S
C1323 C1314 1.429 . S
C1323 N1320 1.350 . S
C1323 C1322 1.434 . S
C1324 C1325 1.369 . S
C1324 C1326 1.419 . S
C1324 H1328 0.930 . S
C1325 C1324 1.369 . S
C1325 C1334 1.429 . S
C1326 C1324 1.419 . S
C1326 C1327 1.363 . S
C1326 H1329 0.929 . S
C1327 C1326 1.363 . S
C1327 C1333 1.428 . S
H1328 C1324 0.930 . S
H1329 C1326 0.929 . S
S1330 N1331 1.613 . S
S1330 N1332 1.610 . S
N1331 S1330 1.613 . S
N1331 C1334 1.350 . S
N1332 S1330 1.610 . S
N1332 C1333 1.351 . S
C1333 C1327 1.428 . S
C1333 N1332 1.351 . S
C1333 C1334 1.434 . S
C1334 C1325 1.429 . S
C1334 N1331 1.350 . S
C1334 C1333 1.434 . S
C1335 C1336 1.369 . S
C1335 C1337 1.419 . S
C1335 H1339 0.930 . S
C1336 C1335 1.369 . S
C1336 C1345 1.429 . S
C1337 C1335 1.419 . S
C1337 C1338 1.363 . S
C1337 H1340 0.929 . S
C1338 C1337 1.363 . S
C1338 C1344 1.428 . S
H1339 C1335 0.930 . S
H1340 C1337 0.929 . S
S1341 N1342 1.613 . S
S1341 N1343 1.610 . S
N1342 S1341 1.613 . S
N1342 C1345 1.350 . S
N1343 S1341 1.610 . S
N1343 C1344 1.351 . S
C1344 C1338 1.428 . S
C1344 N1343 1.351 . S
C1344 C1345 1.434 . S
C1345 C1336 1.429 . S
C1345 N1342 1.350 . S
C1345 C1344 1.434 . S
C1346 C1347 1.369 . S
C1346 C1348 1.419 . S
C1346 H1350 0.930 . S
C1347 C1346 1.369 . S
C1347 C1356 1.429 . S
C1348 C1346 1.419 . S
C1348 C1349 1.363 . S
C1348 H1351 0.929 . S
C1349 C1348 1.363 . S
C1349 C1355 1.428 . S
H1350 C1346 0.930 . S
H1351 C1348 0.929 . S
S1352 N1353 1.613 . S
S1352 N1354 1.610 . S
N1353 S1352 1.613 . S
N1353 C1356 1.350 . S
N1354 S1352 1.610 . S
N1354 C1355 1.351 . S
C1355 C1349 1.428 . S
C1355 N1354 1.351 . S
C1355 C1356 1.434 . S
C1356 C1347 1.429 . S
C1356 N1353 1.350 . S
C1356 C1355 1.434 . S
C1357 C1358 1.369 . S
C1357 C1359 1.419 . S
C1357 H1361 0.930 . S
C1358 C1357 1.369 . S
C1358 C1367 1.429 . S
C1359 C1357 1.419 . S
C1359 C1360 1.363 . S
C1359 H1362 0.929 . S
C1360 C1359 1.363 . S
C1360 C1366 1.428 . S
H1361 C1357 0.930 . S
H1362 C1359 0.929 . S
S1363 N1364 1.613 . S
S1363 N1365 1.610 . S
N1364 S1363 1.613 . S
N1364 C1367 1.350 . S
N1365 S1363 1.610 . S
N1365 C1366 1.351 . S
C1366 C1360 1.428 . S
C1366 N1365 1.351 . S
C1366 C1367 1.434 . S
C1367 C1358 1.429 . S
C1367 N1364 1.350 . S
C1367 C1366 1.434 . S
C1368 C1369 1.369 . S
C1368 C1370 1.419 . S
C1368 H1372 0.930 . S
C1369 C1368 1.369 . S
C1369 C1378 1.429 . S
C1370 C1368 1.419 . S
C1370 C1371 1.363 . S
C1370 H1373 0.929 . S
C1371 C1370 1.363 . S
C1371 C1377 1.428 . S
H1372 C1368 0.930 . S
H1373 C1370 0.929 . S
S1374 N1375 1.613 . S
S1374 N1376 1.610 . S
N1375 S1374 1.613 . S
N1375 C1378 1.350 . S
N1376 S1374 1.610 . S
N1376 C1377 1.351 . S
C1377 C1371 1.428 . S
C1377 N1376 1.351 . S
C1377 C1378 1.434 . S
C1378 C1369 1.429 . S
C1378 N1375 1.350 . S
C1378 C1377 1.434 . S
C1379 C1380 1.369 . S
C1379 C1381 1.419 . S
C1379 H1383 0.930 . S
C1380 C1379 1.369 . S
C1380 C1389 1.429 . S
C1381 C1379 1.419 . S
C1381 C1382 1.363 . S
C1381 H1384 0.929 . S
C1382 C1381 1.363 . S
C1382 C1388 1.428 . S
H1383 C1379 0.930 . S
H1384 C1381 0.929 . S
S1385 N1386 1.613 . S
S1385 N1387 1.610 . S
N1386 S1385 1.613 . S
N1386 C1389 1.350 . S
N1387 S1385 1.610 . S
N1387 C1388 1.351 . S
C1388 C1382 1.428 . S
C1388 N1387 1.351 . S
C1388 C1389 1.434 . S
C1389 C1380 1.429 . S
C1389 N1386 1.350 . S
C1389 C1388 1.434 . S
C1390 C1391 1.369 . S
C1390 C1392 1.419 . S
C1390 H1394 0.930 . S
C1391 C1390 1.369 . S
C1391 C1400 1.429 . S
C1392 C1390 1.419 . S
C1392 C1393 1.363 . S
C1392 H1395 0.929 . S
C1393 C1392 1.363 . S
C1393 C1399 1.428 . S
H1394 C1390 0.930 . S
H1395 C1392 0.929 . S
S1396 N1397 1.613 . S
S1396 N1398 1.610 . S
N1397 S1396 1.613 . S
N1397 C1400 1.350 . S
N1398 S1396 1.610 . S
N1398 C1399 1.351 . S
C1399 C1393 1.428 . S
C1399 N1398 1.351 . S
C1399 C1400 1.434 . S
C1400 C1391 1.429 . S
C1400 N1397 1.350 . S
C1400 C1399 1.434 . S
C1401 C1402 1.369 . S
C1401 C1403 1.419 . S
C1401 H1405 0.930 . S
C1402 C1401 1.369 . S
C1402 C1411 1.429 . S
C1403 C1401 1.419 . S
C1403 C1404 1.363 . S
C1403 H1406 0.929 . S
C1404 C1403 1.363 . S
C1404 C1410 1.428 . S
H1405 C1401 0.930 . S
H1406 C1403 0.929 . S
S1407 N1408 1.613 . S
S1407 N1409 1.610 1_554 S
N1408 S1407 1.613 . S
N1408 C1411 1.350 1_554 S
N1409 S1407 1.610 1_556 S
N1409 C1410 1.351 . S
C1410 C1404 1.428 . S
C1410 N1409 1.351 . S
C1410 C1411 1.434 . S
C1411 C1402 1.429 . S
C1411 N1408 1.350 1_556 S
C1411 C1410 1.434 . S
C1412 C1413 1.369 . S
C1412 C1414 1.419 . S
C1412 H1416 0.930 . S
C1413 C1412 1.369 . S
C1413 C1422 1.429 . S
C1414 C1412 1.419 . S
C1414 C1415 1.363 . S
C1414 H1417 0.929 . S
C1415 C1414 1.363 . S
C1415 C1421 1.428 . S
H1416 C1412 0.930 . S
H1417 C1414 0.929 . S
S1418 N1419 1.613 . S
S1418 N1420 1.610 . S
N1419 S1418 1.613 . S
N1419 C1422 1.350 . S
N1420 S1418 1.610 . S
N1420 C1421 1.351 . S
C1421 C1415 1.428 . S
C1421 N1420 1.351 . S
C1421 C1422 1.434 . S
C1422 C1413 1.429 . S
C1422 N1419 1.350 . S
C1422 C1421 1.434 . S
C1423 C1424 1.369 . S
C1423 C1425 1.419 . S
C1423 H1427 0.930 . S
C1424 C1423 1.369 . S
C1424 C1433 1.429 . S
C1425 C1423 1.419 . S
C1425 C1426 1.363 . S
C1425 H1428 0.929 . S
C1426 C1425 1.363 . S
C1426 C1432 1.428 . S
H1427 C1423 0.930 . S
H1428 C1425 0.929 . S
S1429 N1430 1.613 . S
S1429 N1431 1.610 . S
N1430 S1429 1.613 . S
N1430 C1433 1.350 . S
N1431 S1429 1.610 . S
N1431 C1432 1.351 . S
C1432 C1426 1.428 . S
C1432 N1431 1.351 . S
C1432 C1433 1.434 . S
C1433 C1424 1.429 . S
C1433 N1430 1.350 . S
C1433 C1432 1.434 . S
C1434 C1435 1.369 . S
C1434 C1436 1.419 . S
C1434 H1438 0.930 . S
C1435 C1434 1.369 . S
C1435 C1444 1.429 . S
C1436 C1434 1.419 . S
C1436 C1437 1.363 . S
C1436 H1439 0.929 . S
C1437 C1436 1.363 . S
C1437 C1443 1.428 . S
H1438 C1434 0.930 . S
H1439 C1436 0.929 . S
S1440 N1441 1.613 . S
S1440 N1442 1.610 . S
N1441 S1440 1.613 . S
N1441 C1444 1.350 . S
N1442 S1440 1.610 . S
N1442 C1443 1.351 . S
C1443 C1437 1.428 . S
C1443 N1442 1.351 . S
C1443 C1444 1.434 . S
C1444 C1435 1.429 . S
C1444 N1441 1.350 . S
C1444 C1443 1.434 . S
C1445 C1446 1.369 . S
C1445 C1447 1.419 . S
C1445 H1449 0.930 . S
C1446 C1445 1.369 . S
C1446 C1455 1.429 . S
C1447 C1445 1.419 . S
C1447 C1448 1.363 1_655 S
C1447 H1450 0.929 . S
C1448 C1447 1.363 1_455 S
C1448 C1454 1.428 . S
H1449 C1445 0.930 . S
H1450 C1447 0.929 . S
S1451 N1452 1.613 1_455 S
S1451 N1453 1.610 . S
N1452 S1451 1.613 1_655 S
N1452 C1455 1.350 . S
N1453 S1451 1.610 . S
N1453 C1454 1.351 . S
C1454 C1448 1.428 . S
C1454 N1453 1.351 . S
C1454 C1455 1.434 1_455 S
C1455 C1446 1.429 . S
C1455 N1452 1.350 . S
C1455 C1454 1.434 1_655 S
C1456 C1457 1.369 . S
C1456 C1458 1.419 . S
C1456 H1460 0.930 . S
C1457 C1456 1.369 . S
C1457 C1466 1.429 . S
C1458 C1456 1.419 . S
C1458 C1459 1.363 . S
C1458 H1461 0.929 . S
C1459 C1458 1.363 . S
C1459 C1465 1.428 . S
H1460 C1456 0.930 . S
H1461 C1458 0.929 . S
S1462 N1463 1.613 . S
S1462 N1464 1.610 . S
N1463 S1462 1.613 . S
N1463 C1466 1.350 . S
N1464 S1462 1.610 . S
N1464 C1465 1.351 . S
C1465 C1459 1.428 . S
C1465 N1464 1.351 . S
C1465 C1466 1.434 . S
C1466 C1457 1.429 . S
C1466 N1463 1.350 . S
C1466 C1465 1.434 . S
C1467 C1468 1.369 . S
C1467 C1469 1.419 . S
C1467 H1471 0.930 . S
C1468 C1467 1.369 . S
C1468 C1477 1.429 . S
C1469 C1467 1.419 . S
C1469 C1470 1.363 1_556 S
C1469 H1472 0.929 . S
C1470 C1469 1.363 1_554 S
C1470 C1476 1.428 . S
H1471 C1467 0.930 . S
H1472 C1469 0.929 . S
S1473 N1474 1.613 1_554 S
S1473 N1475 1.610 . S
N1474 S1473 1.613 1_556 S
N1474 C1477 1.350 . S
N1475 S1473 1.610 . S
N1475 C1476 1.351 . S
C1476 C1470 1.428 . S
C1476 N1475 1.351 . S
C1476 C1477 1.434 1_554 S
C1477 C1468 1.429 . S
C1477 N1474 1.350 . S
C1477 C1476 1.434 1_556 S
C1478 C1479 1.369 . S
C1478 C1480 1.419 . S
C1478 H1482 0.930 . S
C1479 C1478 1.369 . S
C1479 C1488 1.429 . S
C1480 C1478 1.419 . S
C1480 C1481 1.363 . S
C1480 H1483 0.929 . S
C1481 C1480 1.363 . S
C1481 C1487 1.428 . S
H1482 C1478 0.930 . S
H1483 C1480 0.929 . S
S1484 N1485 1.613 . S
S1484 N1486 1.610 . S
N1485 S1484 1.613 . S
N1485 C1488 1.350 . S
N1486 S1484 1.610 . S
N1486 C1487 1.351 . S
C1487 C1481 1.428 . S
C1487 N1486 1.351 . S
C1487 C1488 1.434 . S
C1488 C1479 1.429 . S
C1488 N1485 1.350 . S
C1488 C1487 1.434 . S
C1489 C1490 1.369 . S
C1489 C1491 1.419 . S
C1489 H1493 0.919 1_455 S
C1490 C1489 1.369 . S
C1490 C1499 1.429 . S
C1491 C1489 1.419 . S
C1491 C1492 1.363 . S
C1491 H1494 0.929 . S
C1492 C1491 1.363 . S
C1492 C1498 1.428 . S
H1493 C1489 0.919 1_655 S
H1494 C1491 0.929 . S
S1495 N1496 1.613 . S
S1495 N1497 1.610 . S
N1496 S1495 1.613 . S
N1496 C1499 1.350 . S
N1497 S1495 1.610 . S
N1497 C1498 1.351 . S
C1498 C1492 1.428 . S
C1498 N1497 1.351 . S
C1498 C1499 1.434 . S
C1499 C1490 1.429 . S
C1499 N1496 1.350 . S
C1499 C1498 1.434 . S
C1500 C1501 1.369 . S
C1500 C1502 1.419 . S
C1500 H1504 0.930 . S
C1501 C1500 1.369 . S
C1501 C1510 1.429 . S
C1502 C1500 1.419 . S
C1502 C1503 1.363 . S
C1502 H1505 0.929 . S
C1503 C1502 1.363 . S
C1503 C1509 1.428 . S
H1504 C1500 0.930 . S
H1505 C1502 0.929 . S
S1506 N1507 1.613 . S
S1506 N1508 1.610 . S
N1507 S1506 1.613 . S
N1507 C1510 1.350 . S
N1508 S1506 1.610 . S
N1508 C1509 1.351 . S
C1509 C1503 1.428 . S
C1509 N1508 1.351 . S
C1509 C1510 1.434 . S
C1510 C1501 1.429 . S
C1510 N1507 1.350 . S
C1510 C1509 1.434 . S
C1511 C1512 1.369 . S
C1511 C1513 1.419 . S
C1511 H1515 0.930 . S
C1512 C1511 1.369 . S
C1512 C1521 1.429 . S
C1513 C1511 1.419 . S
C1513 C1514 1.363 1_554 S
C1513 H1516 0.929 1_554 S
C1514 C1513 1.363 1_556 S
C1514 C1520 1.428 1_556 S
H1515 C1511 0.930 . S
H1516 C1513 0.929 1_556 S
S1517 N1518 1.613 . S
S1517 N1519 1.610 1_554 S
N1518 S1517 1.613 . S
N1518 C1521 1.350 . S
N1519 S1517 1.610 1_556 S
N1519 C1520 1.351 1_556 S
C1520 C1514 1.428 1_554 S
C1520 N1519 1.351 1_554 S
C1520 C1521 1.434 . S
C1521 C1512 1.429 . S
C1521 N1518 1.350 . S
C1521 C1520 1.434 . S
C1522 C1523 1.369 . S
C1522 C1524 1.419 . S
C1522 H1526 0.930 . S
C1523 C1522 1.369 . S
C1523 C1532 1.429 . S
C1524 C1522 1.419 . S
C1524 C1525 1.363 . S
C1524 H1527 0.929 . S
C1525 C1524 1.363 . S
C1525 C1531 1.428 . S
H1526 C1522 0.930 . S
H1527 C1524 0.929 . S
S1528 N1529 1.613 . S
S1528 N1530 1.610 . S
N1529 S1528 1.613 . S
N1529 C1532 1.350 . S
N1530 S1528 1.610 . S
N1530 C1531 1.351 . S
C1531 C1525 1.428 . S
C1531 N1530 1.351 . S
C1531 C1532 1.434 . S
C1532 C1523 1.429 . S
C1532 N1529 1.350 . S
C1532 C1531 1.434 . S
C1533 C1534 1.369 . S
C1533 C1535 1.419 . S
C1533 H1537 0.930 . S
C1534 C1533 1.369 . S
C1534 C1543 1.429 . S
C1535 C1533 1.419 . S
C1535 C1536 1.363 . S
C1535 H1538 0.929 . S
C1536 C1535 1.363 . S
C1536 C1542 1.428 . S
H1537 C1533 0.930 . S
H1538 C1535 0.929 . S
S1539 N1540 1.613 . S
S1539 N1541 1.610 . S
N1540 S1539 1.613 . S
N1540 C1543 1.350 . S
N1541 S1539 1.610 . S
N1541 C1542 1.351 . S
C1542 C1536 1.428 . S
C1542 N1541 1.351 . S
C1542 C1543 1.434 . S
C1543 C1534 1.429 . S
C1543 N1540 1.350 . S
C1543 C1542 1.434 . S
C1544 C1545 1.369 . S
C1544 C1546 1.419 . S
C1544 H1548 0.930 . S
C1545 C1544 1.369 . S
C1545 C1554 1.429 . S
C1546 C1544 1.419 . S
C1546 C1547 1.363 . S
C1546 H1549 0.929 . S
C1547 C1546 1.363 . S
C1547 C1553 1.428 . S
H1548 C1544 0.930 . S
H1549 C1546 0.929 . S
S1550 N1551 1.613 . S
S1550 N1552 1.610 . S
N1551 S1550 1.613 . S
N1551 C1554 1.350 . S
N1552 S1550 1.610 . S
N1552 C1553 1.351 . S
C1553 C1547 1.428 . S
C1553 N1552 1.351 . S
C1553 C1554 1.434 . S
C1554 C1545 1.429 . S
C1554 N1551 1.350 . S
C1554 C1553 1.434 . S
C1555 C1556 1.369 . S
C1555 C1557 1.419 . S
C1555 H1559 0.930 . S
C1556 C1555 1.369 . S
C1556 C1565 1.429 . S
C1557 C1555 1.419 . S
C1557 C1558 1.363 . S
C1557 H1560 0.929 . S
C1558 C1557 1.363 . S
C1558 C1564 1.428 . S
H1559 C1555 0.930 . S
H1560 C1557 0.929 . S
S1561 N1562 1.613 . S
S1561 N1563 1.610 . S
N1562 S1561 1.613 . S
N1562 C1565 1.350 . S
N1563 S1561 1.610 . S
N1563 C1564 1.351 . S
C1564 C1558 1.428 . S
C1564 N1563 1.351 . S
C1564 C1565 1.434 . S
C1565 C1556 1.429 . S
C1565 N1562 1.350 . S
C1565 C1564 1.434 . S
C1566 C1567 1.369 . S
C1566 C1568 1.419 . S
C1566 H1570 0.930 . S
C1567 C1566 1.369 . S
C1567 C1576 1.429 . S
C1568 C1566 1.419 . S
C1568 C1569 1.363 . S
C1568 H1571 0.929 . S
C1569 C1568 1.363 . S
C1569 C1575 1.428 . S
H1570 C1566 0.930 . S
H1571 C1568 0.929 . S
S1572 N1573 1.613 . S
S1572 N1574 1.610 . S
N1573 S1572 1.613 . S
N1573 C1576 1.350 . S
N1574 S1572 1.610 . S
N1574 C1575 1.351 . S
C1575 C1569 1.428 . S
C1575 N1574 1.351 . S
C1575 C1576 1.434 . S
C1576 C1567 1.429 . S
C1576 N1573 1.350 . S
C1576 C1575 1.434 . S
C1577 C1578 1.369 . S
C1577 C1579 1.419 . S
C1577 H1581 0.930 . S
C1578 C1577 1.369 . S
C1578 C1587 1.429 . S
C1579 C1577 1.419 . S
C1579 C1580 1.363 . S
C1579 H1582 0.929 . S
C1580 C1579 1.363 . S
C1580 C1586 1.428 . S
H1581 C1577 0.930 . S
H1582 C1579 0.929 . S
S1583 N1584 1.613 . S
S1583 N1585 1.610 . S
N1584 S1583 1.613 . S
N1584 C1587 1.350 . S
N1585 S1583 1.610 . S
N1585 C1586 1.351 . S
C1586 C1580 1.428 . S
C1586 N1585 1.351 . S
C1586 C1587 1.434 . S
C1587 C1578 1.429 . S
C1587 N1584 1.350 . S
C1587 C1586 1.434 . S
C1588 C1589 1.369 . S
C1588 C1590 1.419 . S
C1588 H1592 0.930 . S
C1589 C1588 1.369 . S
C1589 C1598 1.429 . S
C1590 C1588 1.419 . S
C1590 C1591 1.363 . S
C1590 H1593 0.929 . S
C1591 C1590 1.363 . S
C1591 C1597 1.428 . S
H1592 C1588 0.930 . S
H1593 C1590 0.929 . S
S1594 N1595 1.613 . S
S1594 N1596 1.610 . S
N1595 S1594 1.613 . S
N1595 C1598 1.350 . S
N1596 S1594 1.610 . S
N1596 C1597 1.351 . S
C1597 C1591 1.428 . S
C1597 N1596 1.351 . S
C1597 C1598 1.434 . S
C1598 C1589 1.429 . S
C1598 N1595 1.350 . S
C1598 C1597 1.434 . S
C1599 C1600 1.369 . S
C1599 C1601 1.419 . S
C1599 H1603 0.930 . S
C1600 C1599 1.369 . S
C1600 C1609 1.429 . S
C1601 C1599 1.419 . S
C1601 C1602 1.363 . S
C1601 H1604 0.929 . S
C1602 C1601 1.363 . S
C1602 C1608 1.428 . S
H1603 C1599 0.930 . S
H1604 C1601 0.929 . S
S1605 N1606 1.613 . S
S1605 N1607 1.610 . S
N1606 S1605 1.613 . S
N1606 C1609 1.350 . S
N1607 S1605 1.610 . S
N1607 C1608 1.351 . S
C1608 C1602 1.428 . S
C1608 N1607 1.351 . S
C1608 C1609 1.434 . S
C1609 C1600 1.429 . S
C1609 N1606 1.350 . S
C1609 C1608 1.434 . S
C1610 C1611 1.369 . S
C1610 C1612 1.419 . S
C1610 H1614 0.930 . S
C1611 C1610 1.369 . S
C1611 C1620 1.429 . S
C1612 C1610 1.419 . S
C1612 C1613 1.363 . S
C1612 H1615 0.929 . S
C1613 C1612 1.363 . S
C1613 C1619 1.428 . S
H1614 C1610 0.930 . S
H1615 C1612 0.929 . S
S1616 N1617 1.613 . S
S1616 N1618 1.610 . S
N1617 S1616 1.613 . S
N1617 C1620 1.350 . S
N1618 S1616 1.610 . S
N1618 C1619 1.351 . S
C1619 C1613 1.428 . S
C1619 N1618 1.351 . S
C1619 C1620 1.434 . S
C1620 C1611 1.429 . S
C1620 N1617 1.350 . S
C1620 C1619 1.434 . S
C1621 C1622 1.369 . S
C1621 C1623 1.419 . S
C1621 H1625 0.930 . S
C1622 C1621 1.369 . S
C1622 C1631 1.429 . S
C1623 C1621 1.419 . S
C1623 C1624 1.363 . S
C1623 H1626 0.929 . S
C1624 C1623 1.363 . S
C1624 C1630 1.428 . S
H1625 C1621 0.930 . S
H1626 C1623 0.929 . S
S1627 N1628 1.613 . S
S1627 N1629 1.610 . S
N1628 S1627 1.613 . S
N1628 C1631 1.350 . S
N1629 S1627 1.610 . S
N1629 C1630 1.351 . S
C1630 C1624 1.428 . S
C1630 N1629 1.351 . S
C1630 C1631 1.434 . S
C1631 C1622 1.429 . S
C1631 N1628 1.350 . S
C1631 C1630 1.434 . S
C1632 C1633 1.369 . S
C1632 C1634 1.419 . S
C1632 H1636 0.930 . S
C1633 C1632 1.369 . S
C1633 C1642 1.429 . S
C1634 C1632 1.419 . S
C1634 C1635 1.363 . S
C1634 H1637 0.929 . S
C1635 C1634 1.363 . S
C1635 C1641 1.428 . S
H1636 C1632 0.930 . S
H1637 C1634 0.929 . S
S1638 N1639 1.613 . S
S1638 N1640 1.610 . S
N1639 S1638 1.613 . S
N1639 C1642 1.350 . S
N1640 S1638 1.610 . S
N1640 C1641 1.351 . S
C1641 C1635 1.428 . S
C1641 N1640 1.351 . S
C1641 C1642 1.434 . S
C1642 C1633 1.429 . S
C1642 N1639 1.350 . S
C1642 C1641 1.434 . S
C1643 C1644 1.369 . S
C1643 C1645 1.419 . S
C1643 H1647 0.930 . S
C1644 C1643 1.369 . S
C1644 C1653 1.429 . S
C1645 C1643 1.419 . S
C1645 C1646 1.363 . S
C1645 H1648 0.929 . S
C1646 C1645 1.363 . S
C1646 C1652 1.428 . S
H1647 C1643 0.930 . S
H1648 C1645 0.929 . S
S1649 N1650 1.613 . S
S1649 N1651 1.610 . S
N1650 S1649 1.613 . S
N1650 C1653 1.350 . S
N1651 S1649 1.610 . S
N1651 C1652 1.351 . S
C1652 C1646 1.428 . S
C1652 N1651 1.351 . S
C1652 C1653 1.434 . S
C1653 C1644 1.429 . S
C1653 N1650 1.350 . S
C1653 C1652 1.434 . S
C1654 C1655 1.369 . S
C1654 C1656 1.419 . S
C1654 H1658 0.930 . S
C1655 C1654 1.369 . S
C1655 C1664 1.429 . S
C1656 C1654 1.419 . S
C1656 C1657 1.363 . S
C1656 H1659 0.929 . S
C1657 C1656 1.363 . S
C1657 C1663 1.428 . S
H1658 C1654 0.930 . S
H1659 C1656 0.929 . S
S1660 N1661 1.613 . S
S1660 N1662 1.610 1_565 S
N1661 S1660 1.613 . S
N1661 C1664 1.350 1_565 S
N1662 S1660 1.610 1_545 S
N1662 C1663 1.351 . S
C1663 C1657 1.428 . S
C1663 N1662 1.351 . S
C1663 C1664 1.434 . S
C1664 C1655 1.429 . S
C1664 N1661 1.350 1_545 S
C1664 C1663 1.434 . S
C1665 C1666 1.369 . S
C1665 C1667 1.419 . S
C1665 H1669 0.930 . S
C1666 C1665 1.369 . S
C1666 C1675 1.429 . S
C1667 C1665 1.419 . S
C1667 C1668 1.363 . S
C1667 H1670 0.929 . S
C1668 C1667 1.363 . S
C1668 C1674 1.428 . S
H1669 C1665 0.930 . S
H1670 C1667 0.929 . S
S1671 N1672 1.613 . S
S1671 N1673 1.610 . S
N1672 S1671 1.613 . S
N1672 C1675 1.350 . S
N1673 S1671 1.610 . S
N1673 C1674 1.351 . S
C1674 C1668 1.428 . S
C1674 N1673 1.351 . S
C1674 C1675 1.434 . S
C1675 C1666 1.429 . S
C1675 N1672 1.350 . S
C1675 C1674 1.434 . S
C1676 C1677 1.369 . S
C1676 C1678 1.419 . S
C1676 H1680 0.930 . S
C1677 C1676 1.369 . S
C1677 C1686 1.429 . S
C1678 C1676 1.419 . S
C1678 C1679 1.363 . S
C1678 H1681 0.929 . S
C1679 C1678 1.363 . S
C1679 C1685 1.428 . S
H1680 C1676 0.930 . S
H1681 C1678 0.929 . S
S1682 N1683 1.613 . S
S1682 N1684 1.610 . S
N1683 S1682 1.613 . S
N1683 C1686 1.350 . S
N1684 S1682 1.610 . S
N1684 C1685 1.351 . S
C1685 C1679 1.428 . S
C1685 N1684 1.351 . S
C1685 C1686 1.434 . S
C1686 C1677 1.429 . S
C1686 N1683 1.350 . S
C1686 C1685 1.434 . S
C1687 C1688 1.369 . S
C1687 C1689 1.419 . S
C1687 H1691 0.930 . S
C1688 C1687 1.369 . S
C1688 C1697 1.429 . S
C1689 C1687 1.419 . S
C1689 C1690 1.363 . S
C1689 H1692 0.929 . S
C1690 C1689 1.363 . S
C1690 C1696 1.428 . S
H1691 C1687 0.930 . S
H1692 C1689 0.929 . S
S1693 N1694 1.613 . S
S1693 N1695 1.610 . S
N1694 S1693 1.613 . S
N1694 C1697 1.350 . S
N1695 S1693 1.610 . S
N1695 C1696 1.351 . S
C1696 C1690 1.428 . S
C1696 N1695 1.351 . S
C1696 C1697 1.434 . S
C1697 C1688 1.429 . S
C1697 N1694 1.350 . S
C1697 C1696 1.434 . S
C1698 C1699 1.369 . S
C1698 C1700 1.419 . S
C1698 H1702 0.930 1_565 S
C1699 C1698 1.369 . S
C1699 C1708 1.429 . S
C1700 C1698 1.419 . S
C1700 C1701 1.363 . S
C1700 H1703 0.929 . S
C1701 C1700 1.363 . S
C1701 C1707 1.428 . S
H1702 C1698 0.930 1_545 S
H1703 C1700 0.929 . S
S1704 N1705 1.613 . S
S1704 N1706 1.610 . S
N1705 S1704 1.613 . S
N1705 C1708 1.350 . S
N1706 S1704 1.610 . S
N1706 C1707 1.351 . S
C1707 C1701 1.428 . S
C1707 N1706 1.351 . S
C1707 C1708 1.434 . S
C1708 C1699 1.429 . S
C1708 N1705 1.350 . S
C1708 C1707 1.434 . S
C1709 C1710 1.369 . S
C1709 C1711 1.419 1_455 S
C1709 H1713 0.930 . S
C1710 C1709 1.369 . S
C1710 C1719 1.429 . S
C1711 C1709 1.419 1_655 S
C1711 C1712 1.363 . S
C1711 H1714 0.929 . S
C1712 C1711 1.363 . S
C1712 C1718 1.428 1_655 S
H1713 C1709 0.930 . S
H1714 C1711 0.929 . S
S1715 N1716 1.613 . S
S1715 N1717 1.610 . S
N1716 S1715 1.613 . S
N1716 C1719 1.350 . S
N1717 S1715 1.610 . S
N1717 C1718 1.351 . S
C1718 C1712 1.428 1_455 S
C1718 N1717 1.351 . S
C1718 C1719 1.434 . S
C1719 C1710 1.429 . S
C1719 N1716 1.350 . S
C1719 C1718 1.434 . S
C667 C330 1.327 . S
C665 C10 1.346 . S
C676 C16 1.369 . S
C678 C342 1.334 . S
C689 C377 1.337 . S
C687 C30 1.387 . S
C700 C386 1.337 . S
C698 C42 1.361 . S
C711 C341 1.337 . S
C709 C57 1.399 . S
C720 C69 1.365 . S
C722 C366 1.344 . S
C733 C385 1.323 . S
C731 C83 1.385 . S
C742 C101 1.396 . S
C744 C327 1.340 . S
C753 C108 1.366 . S
C755 C320 1.340 . S
C766 C344 1.345 . S
C764 C120 1.370 . S
C777 C363 1.338 . S
C775 C133 1.396 . S
C788 C388 1.347 . S
C786 C147 1.362 . S
C799 C349 1.319 . S
C797 C114 1.371 . S
C810 C374 1.338 . S
C808 C122 1.359 . S
C819 C135 1.388 . S
C821 C393 1.326 . S
C832 C333 1.326 . S
C830 C153 1.371 . S
C841 C160 1.359 . S
C843 C322 1.333 . S
C852 C174 1.386 . S
C854 C421 1.328 . S
C865 C437 1.333 . S
C863 C187 1.387 . S
C876 C451 1.322 . S
C874 C205 1.373 . S
C885 C212 1.387 . S
C887 C319 1.332 . S
C896 C226 1.405 . S
C898 C371 1.339 . S
C909 C454 1.344 . S
C907 C185 1.377 . S
C920 C418 1.363 . S
C918 C244 1.379 . S
C931 C474 1.302 . S
C929 C23 1.316 . S
C942 C498 1.301 . S
C940 C5 1.320 . S
C951 C49 1.347 . S
C953 C531 1.312 . S
C962 C29 1.365 . S
C964 C539 1.335 . S
C973 C94 1.364 . S
C975 C509 1.324 . S
C984 C88 1.336 . S
C986 C520 1.320 . S
C997 C540 1.319 . S
C995 C70 1.336 . S
C1006 C62 1.355 . S
C1008 C473 1.326 . S
C1017 C257 1.315 . S
C1019 C476 1.299 . S
C1030 C506 1.321 . S
C1028 C200 1.336 . S
C1041 C517 1.327 . S
C1039 C211 1.360 . S
C1052 C547 1.330 . S
C1050 C179 1.361 . S
C1063 C495 1.319 . S
C1061 C251 1.348 . S
C1074 C528 1.309 . S
C1072 C198 1.325 . S
C1085 C542 1.317 . S
C1083 C213 1.338 . S
C1094 C173 1.360 . S
C1096 C481 1.322 . S
C1107 C484 1.297 . S
C1105 C264 1.310 . S
C1116 C148 1.345 . S
C1118 C572 1.323 . S
C1129 C584 1.326 . S
C1127 C278 1.342 . S
C1138 C127 1.355 . S
C1140 C605 1.321 . S
C1151 C487 1.334 . S
C1149 C140 1.367 . S
C1162 C525 1.307 . S
C1160 C289 1.345 . S
C1173 C608 1.287 . S
C1171 C276 1.304 . S
C1182 C303 1.340 . S
C1184 C575 1.308 . S
C1193 C36 1.361 . S
C1195 C630 1.345 . S
C1204 C44 1.359 . S
C1206 C408 1.334 . S
C1217 C432 1.324 . S
C1215 C4 1.345 . S
C1226 C18 1.369 . S
C1228 C462 1.346 . S
C1237 C81 1.378 . S
C1239 C407 1.325 . S
C1248 C95 1.385 . S
C1250 C443 1.343 . S
C1261 C459 1.343 . S
C1259 C55 1.403 . S
C1272 C641 1.332 . S
C1270 C75 1.378 . S
C1283 C638 1.327 . S
C1281 C277 1.352 . S
C1294 C410 1.340 . S
C1292 C263 1.374 . S
C1305 C440 1.355 . S
C1303 C302 1.378 . S
C1314 C290 1.382 . S
C1316 C452 1.361 . S
C1327 C415 1.324 . S
C1325 C283 1.368 . S
C1336 C265 1.364 . S
C1338 C429 1.315 . S
C1349 C465 1.323 . S
C1347 C304 1.382 . S
C1358 C296 1.392 . S
C1360 C627 1.334 . S
C1371 C628 1.343 . S
C1369 C199 1.364 . S
C1380 C224 1.388 . S
C1382 C355 1.326 . S
C1393 C364 1.328 . S
C1391 C252 1.351 . S
C1402 C166 1.366 . S
C1404 C399 1.312 . S
C1415 C635 1.327 . S
C1413 C238 1.376 . S
C1426 C430 1.348 . S
C1424 C172 1.370 . S
C1437 C396 1.337 . S
C1435 C250 1.365 . S
C1448 C352 1.341 . S
C1446 C218 1.372 . S
C1457 C43 1.351 . S
C1459 C649 1.319 . S
C1468 C31 1.350 . S
C1470 C561 1.314 . S
C1479 C17 1.344 . S
C1481 C597 1.319 . S
C1492 C616 1.303 . S
C1490 C3 1.320 . S
C1503 C562 1.309 . S
C1501 C68 1.327 . S
C1512 C56 1.335 . S
C1514 C586 1.318 . S
C1525 C613 1.327 . S
C1523 C96 1.367 . S
C1534 C82 1.338 . S
C1536 C650 1.318 . S
C1547 C657 1.323 . S
C1545 C192 1.347 . S
C1556 C161 1.350 . S
C1558 C569 1.319 . S
C1567 C237 1.360 . S
C1569 C583 1.325 . S
C1580 C606 1.316 . S
C1578 C225 1.329 . S
C1591 C564 1.311 . S
C1589 C186 1.327 . S
C1600 C159 1.330 . S
C1602 C594 1.309 . S
C1613 C619 1.316 . S
C1611 C239 1.354 . S
C1624 C652 1.323 . S
C1622 C231 1.336 . S
C1635 C663 1.308 . S
C1633 C121 1.339 . S
C1646 C503 1.350 . S
C1644 C291 1.383 . S
C1655 C109 1.348 . S
C1657 C518 1.324 . S
C1666 C270 1.339 . S
C1668 C550 1.326 . S
C1679 C660 1.326 . S
C1677 C309 1.347 . S
C1690 C591 1.306 . S
C1688 C146 1.342 . S
C1701 C553 1.308 . S
C1699 C107 1.344 . S
C1712 C496 1.313 . S
C1710 C134 1.330 . S
