# Generated by pormake.
# Topology nia, (6,6)-cn, num edge types: 1
# Building blocks:
#     Node 0, Type 0, BuildingBlock: CUWYAW_clean_sbu_0, # of connection points: 6
#     Node 1, Type 0, BuildingBlock: CUWYAW_clean_sbu_0, # of connection points: 6
#     Node 2, Type 1, BuildingBlock: MIDCAF_clean_sbu_0, # of connection points: 6
#     Node 3, Type 1, BuildingBlock: MIDCAF_clean_sbu_0, # of connection points: 6
#     Edge 4, Type (0, 1), BuildingBlock: TEMPAE_clean_linker_10, # of connection points: 2
#     Edge 5, Type (0, 1), BuildingBlock: TEMPAE_clean_linker_10, # of connection points: 2
#     Edge 6, Type (0, 1), BuildingBlock: TEMPAE_clean_linker_10, # of connection points: 2
#     Edge 7, Type (0, 1), BuildingBlock: TEMPAE_clean_linker_10, # of connection points: 2
#     Edge 8, Type (0, 1), BuildingBlock: TEMPAE_clean_linker_10, # of connection points: 2
#     Edge 9, Type (0, 1), BuildingBlock: TEMPAE_clean_linker_10, # of connection points: 2
#     Edge 10, Type (0, 1), BuildingBlock: TEMPAE_clean_linker_10, # of connection points: 2
#     Edge 11, Type (0, 1), BuildingBlock: TEMPAE_clean_linker_10, # of connection points: 2
#     Edge 12, Type (0, 1), BuildingBlock: TEMPAE_clean_linker_10, # of connection points: 2
#     Edge 13, Type (0, 1), BuildingBlock: TEMPAE_clean_linker_10, # of connection points: 2
#     Edge 14, Type (0, 1), BuildingBlock: TEMPAE_clean_linker_10, # of connection points: 2
#     Edge 15, Type (0, 1), BuildingBlock: TEMPAE_clean_linker_10, # of connection points: 2
# Relax obj value: 0.285
# Max RMSD: 0.270
# Mean RMSD: 0.235
data_MOF--net-nia--node1-CUWYAW_clean_sbu_0--node2-MIDCAF_clean_sbu_0--edge1-TEMPAE_clean_linker_10
_symmetry_space_group_name_H-M    P1
_symmetry_Int_Tables_number       1
_symmetry_cell_setting            triclinic
loop_
_symmetry_equiv_pos_as_xyz
'x, y, z'
_cell_length_a     28.870415
_cell_length_b     25.647297
_cell_length_c     35.135103
_cell_angle_alpha  101.19389
_cell_angle_beta   67.785096
_cell_angle_gamma 128.65832
loop_
_atom_site_label
_atom_site_type_symbol
_atom_site_fract_x
_atom_site_fract_y
_atom_site_fract_z
_atom_type_partial_charge
C0 C 0.06262 0.9132 0.04387 0.0
Eu1 Eu 0.01465 0.96926 0.03936 0.0
C2 C 0.07108 0.89164 0.07478 0.0
C3 C 0.05141 0.90215 0.11673 0.0
C4 C 0.06017 0.88076 0.14548 0.0
C5 C 0.08838 0.84833 0.13255 0.0
C6 C 0.10813 0.83846 0.09036 0.0
C7 C 0.09942 0.85979 0.06183 0.0
C8 C 0.90123 0.93828 0.08909 0.0
C9 C 0.96888 0.9276 0.95797 0.0
C10 C 0.90686 0.07844 1.01009 0.0
Eu11 Eu 0.97113 0.04271 1.01498 0.0
C12 C 0.90467 0.10603 0.9782 0.0
C13 C 0.9572 0.16783 0.95668 0.0
C14 C 0.95275 0.19427 0.92809 0.0
C15 C 0.89596 0.15915 0.92026 0.0
C16 C 0.84414 0.09651 0.94095 0.0
C17 C 0.84842 0.07038 0.96974 0.0
C18 C 0.09402 0.09604 0.96962 0.0
C19 C 0.03254 0.0957 0.08784 0.0
O20 O 0.00467 0.87932 0.04449 0.0
O21 O 0.0953 0.97788 0.0377 0.0
O22 O 0.93814 0.93837 0.1017 0.0
O23 O 0.92355 0.94915 0.0505 0.0
O24 O -0.00387 0.92399 0.97946 0.0
O25 O 0.95152 0.96676 0.96707 0.0
O26 O 0.95625 0.11783 1.0221 0.0
O27 O 0.88827 0.0168 1.0063 0.0
O28 O 0.06501 0.11602 0.96439 0.0
O29 O 0.05582 0.05044 0.99755 0.0
O30 O -0.00983 0.08587 0.07481 0.0
O31 O 0.05705 0.06321 0.07354 0.0
H32 H 0.02938 0.92678 0.12715 0.0
H33 H 0.04444 0.889 0.17773 0.0
H34 H 0.13134 0.81511 0.0792 0.0
H35 H 0.11514 0.85165 0.02953 0.0
H36 H 0.00143 0.19627 0.9623 0.0
H37 H -0.00654 0.24252 0.91244 0.0
H38 H 0.79946 0.06879 0.93605 0.0
H39 H 0.80731 0.02273 0.98599 0.0
C40 C 0.92697 0.98857 0.44506 0.0
Eu41 Eu 0.96943 0.99922 0.5016 0.0
C42 C 0.86959 0.96039 0.43621 0.0
C43 C 0.82817 0.8917 0.43112 0.0
C44 C 0.77731 0.86677 0.41893 0.0
C45 C 0.76675 0.90995 0.41162 0.0
C46 C 0.80782 0.97855 0.4172 0.0
C47 C 0.85893 0.00355 0.42917 0.0
C48 C 0.91762 0.91209 0.56561 0.0
C49 C 0.95062 0.07969 0.58339 0.0
C50 C 0.12686 0.09221 0.59981 0.0
Eu51 Eu 0.05953 0.06201 0.55554 0.0
C52 C 0.15968 0.07368 0.61073 0.0
C53 C 0.22471 0.10837 0.59087 0.0
C54 C 0.2591 0.10162 0.60583 0.0
C55 C 0.22935 0.05983 0.64107 0.0
C56 C 0.16349 0.02157 0.65933 0.0
C57 C 0.12904 0.02884 0.64447 0.0
C58 C 0.09007 0.14394 0.49732 0.0
C59 C 0.07135 0.97195 0.47872 0.0
O60 O 0.94497 0.03861 0.46937 0.0
O61 O 0.93589 0.94673 0.45068 0.0
O62 O 0.88999 0.89862 0.53935 0.0
O63 O 0.96818 0.97017 0.55641 0.0
O64 O 0.94249 0.0594 0.54715 0.0
O65 O -0.01276 0.07714 0.59575 0.0
O66 O 0.06508 0.05334 0.61392 0.0
O67 O 0.15087 0.11786 0.56237 0.0
O68 O 0.09942 0.16383 0.53234 0.0
O69 O 0.06845 0.08358 0.49413 0.0
O70 O 0.07934 0.99298 0.51491 0.0
O71 O 0.03903 0.97917 0.4647 0.0
H72 H 0.83563 0.85723 0.43571 0.0
H73 H 0.74709 0.81382 0.41429 0.0
H74 H 0.8005 0.01297 0.41229 0.0
H75 H 0.89071 0.05687 0.43232 0.0
H76 H 0.24992 0.14399 0.56514 0.0
H77 H 0.30977 0.13306 0.59133 0.0
H78 H 0.13893 0.98833 0.68621 0.0
H79 H 0.07904 0.00192 0.66067 0.0
Zn80 Zn 0.34041 0.66462 0.20562 0.0
Zn81 Zn 0.25077 0.62635 0.3654 0.0
Zn82 Zn 0.29517 0.64099 0.28472 0.0
C83 C 0.38248 0.7068 0.34041 0.0
C84 C 0.20562 0.49938 0.3369 0.0
O85 O 0.2623 0.69054 0.26961 0.0
O86 O 0.31193 0.716 0.20269 0.0
C87 C 0.44453 0.72204 0.22579 0.0
O88 O 0.37652 0.69298 0.30456 0.0
O89 O 0.33484 0.68606 0.37255 0.0
O90 O 0.20378 0.529 0.36996 0.0
O91 O 0.23658 0.53235 0.30176 0.0
O92 O 0.4306 0.71177 0.19383 0.0
O93 O 0.40113 0.70086 0.26157 0.0
O94 O 0.25062 0.54043 0.25908 0.0
O95 O 0.29097 0.5695 0.19277 0.0
C96 C 0.25554 0.52429 0.22139 0.0
O97 O 0.24592 0.68827 0.31302 0.0
O98 O 0.20247 0.66067 0.37986 0.0
C99 C 0.27483 0.71696 0.23601 0.0
C100 C 0.21251 0.68991 0.34954 0.0
Zn101 Zn 0.66935 0.3888 0.84971 0.0
Zn102 Zn 0.72567 0.37904 0.69054 0.0
Zn103 Zn 0.69875 0.38671 0.77089 0.0
C104 C 0.77724 0.51273 0.70519 0.0
C105 C 0.59427 0.29466 0.72676 0.0
O106 O 0.73771 0.34775 0.7898 0.0
O107 O 0.69933 0.34211 0.85782 0.0
C108 C 0.7499 0.52177 0.81939 0.0
O109 O 0.75469 0.48996 0.74262 0.0
O110 O 0.77036 0.47361 0.67616 0.0
O111 O 0.63678 0.31211 0.69196 0.0
O112 O 0.60838 0.31903 0.75974 0.0
O113 O 0.72106 0.48629 0.85229 0.0
O114 O 0.74747 0.49416 0.78466 0.0
O115 O 0.59322 0.32815 0.80185 0.0
O116 O 0.57883 0.34328 0.86832 0.0
C117 C 0.55654 0.31946 0.83936 0.0
O118 O 0.74913 0.34053 0.74707 0.0
O119 O 0.77675 0.34788 0.67924 0.0
C120 C 0.73116 0.33246 0.8253 0.0
C121 C 0.77675 0.33129 0.71075 0.0
C122 C 0.1249 0.86841 0.19213 0.0
C123 C 0.09955 0.82628 0.16209 0.0
C124 C 0.14627 0.85293 0.21486 0.0
C125 C 0.14274 0.7944 0.20692 0.0
C126 C 0.11211 0.74901 0.17925 0.0
C127 C 0.09044 0.76527 0.15751 0.0
C128 C 0.17638 0.90214 0.24499 0.0
C129 C 0.10683 0.68578 0.16995 0.0
C130 C 0.27498 0.79515 0.20397 0.0
C131 C 0.24443 0.74599 0.23483 0.0
C132 C 0.2435 0.81498 0.19664 0.0
C133 C 0.17996 0.78554 0.22117 0.0
C134 C 0.15072 0.74053 0.25492 0.0
C135 C 0.18292 0.72011 0.26081 0.0
C136 C 0.27699 0.86402 0.16073 0.0
C137 C 0.08434 0.71049 0.28342 0.0
H138 H 0.13161 0.91544 0.19623 0.0
H139 H 0.06896 0.73149 0.13531 0.0
H140 H 0.14577 0.91608 0.26515 0.0
H141 H 0.1854 0.8826 0.26463 0.0
H142 H 0.22174 0.94862 0.22779 0.0
H143 H 0.07978 0.6548 0.14869 0.0
H144 H 0.1546 0.69875 0.15568 0.0
H145 H 0.08337 0.65522 0.19883 0.0
H146 H 0.32288 0.81593 0.18415 0.0
H147 H 0.1587 0.6815 0.28443 0.0
H148 H 0.27631 0.90723 0.17146 0.0
H149 H 0.25223 0.83964 0.13779 0.0
H150 H 0.32675 0.8831 0.14512 0.0
H151 H 0.06987 0.74176 0.28365 0.0
H152 H 0.07955 0.70381 0.31536 0.0
H153 H 0.05153 0.66029 0.27343 0.0
C154 C 0.32634 0.07722 0.63785 0.0
C155 C 0.2686 0.06494 0.66155 0.0
C156 C 0.37249 0.10262 0.65541 0.0
C157 C 0.35976 0.11391 0.69799 0.0
C158 C 0.29862 0.09297 0.72299 0.0
C159 C 0.25377 0.06904 0.70444 0.0
C160 C 0.43697 0.12397 0.6275 0.0
C161 C 0.2813 0.09866 0.769 0.0
C162 C 0.4958 0.17915 0.73306 0.0
C163 C 0.52858 0.24818 0.72844 0.0
C164 C 0.43764 0.13389 0.72648 0.0
C165 C 0.41332 0.15882 0.71391 0.0
C166 C 0.44478 0.22875 0.71181 0.0
C167 C 0.50221 0.27263 0.71911 0.0
C168 C 0.40391 0.0598 0.7312 0.0
C169 C 0.41964 0.25742 0.69951 0.0
H170 H 0.33725 0.07165 0.60492 0.0
H171 H 0.20892 0.05856 0.7233 0.0
H172 H 0.47091 0.17942 0.62496 0.0
H173 H 0.45382 0.1051 0.6405 0.0
H174 H 0.43738 0.10584 0.59606 0.0
H175 H 0.23766 0.09486 0.78266 0.0
H176 H 0.27313 0.05721 0.783 0.0
H177 H 0.3198 0.14635 0.77738 0.0
H178 H 0.51675 0.16067 0.74029 0.0
H179 H 0.52816 0.32624 0.7155 0.0
H180 H 0.41357 0.04032 0.70048 0.0
H181 H 0.35222 0.03251 0.74509 0.0
H182 H 0.41986 0.04879 0.75065 0.0
H183 H 0.41755 0.24345 0.66792 0.0
H184 H 0.44917 0.31281 0.70016 0.0
H185 H 0.37104 0.23626 0.72063 0.0
C186 C 0.03655 0.18872 0.12934 0.0
C187 C 0.05475 0.14684 0.11836 0.0
C188 C 0.06354 0.24315 0.15366 0.0
C189 C 0.10957 0.25586 0.16766 0.0
C190 C 0.12422 0.21057 0.15964 0.0
C191 C 0.09699 0.15682 0.13481 0.0
C192 C 0.04639 0.29006 0.16158 0.0
C193 C 0.17172 0.22135 0.17501 0.0
C194 C 0.23933 0.44006 0.16849 0.0
C195 C 0.22071 0.45365 0.20987 0.0
C196 C 0.20457 0.37554 0.15491 0.0
C197 C 0.1501 0.32234 0.18351 0.0
C198 C 0.13274 0.33469 0.2258 0.0
C199 C 0.16777 0.40056 0.23839 0.0
C200 C 0.22487 0.36504 0.10946 0.0
C201 C 0.07594 0.27917 0.25751 0.0
H202 H 0.00338 0.1811 0.1173 0.0
H203 H 0.11054 0.12406 0.1272 0.0
H204 H 0.03607 0.30105 0.19458 0.0
H205 H 0.08686 0.3382 0.14356 0.0
H206 H 0.00489 0.26926 0.15275 0.0
H207 H 0.16951 0.17607 0.17271 0.0
H208 H 0.21983 0.26315 0.15641 0.0
H209 H 0.164 0.23534 0.20753 0.0
H210 H 0.28055 0.48048 0.14615 0.0
H211 H 0.15224 0.41061 0.27016 0.0
H212 H 0.18767 0.34773 0.0969 0.0
H213 H 0.23144 0.32573 0.10464 0.0
H214 H 0.26947 0.4114 0.0915 0.0
H215 H 0.03279 0.26845 0.25652 0.0
H216 H 0.07799 0.29312 0.28914 0.0
H217 H 0.0717 0.23251 0.25107 0.0
C218 C 0.93616 0.14321 0.64506 0.0
C219 C 0.92022 0.11016 0.61012 0.0
C220 C 0.91227 0.17765 0.66827 0.0
C221 C 0.87132 0.17905 0.6564 0.0
C222 C 0.85277 0.14317 0.62234 0.0
C223 C 0.87753 0.10942 0.59959 0.0
C224 C 0.9328 0.21465 0.7045 0.0
C225 C 0.80852 0.14252 0.60891 0.0
C226 C 0.77277 0.23573 0.7235 0.0
C227 C 0.80653 0.29854 0.70434 0.0
C228 C 0.79495 0.19729 0.70995 0.0
C229 C 0.85235 0.22279 0.67677 0.0
C230 C 0.88872 0.28845 0.65969 0.0
C231 C 0.86501 0.32514 0.67338 0.0
C232 C 0.75416 0.12744 0.7289 0.0
C233 C 0.9507 0.3183 0.62487 0.0
H234 H 0.96892 0.14403 0.65366 0.0
H235 H 0.86432 0.08357 0.57294 0.0
H236 H 0.96469 0.2693 0.69688 0.0
H237 H 0.89142 0.20327 0.73147 0.0
H238 H 0.95786 0.20162 0.71312 0.0
H239 H 0.79501 0.10828 0.58378 0.0
H240 H 0.76513 0.12694 0.63536 0.0
H241 H 0.8313 0.1937 0.5979 0.0
H242 H 0.72713 0.21481 0.74713 0.0
H243 H 0.89104 0.37377 0.65856 0.0
H244 H 0.7828 0.11286 0.72962 0.0
H245 H 0.72421 0.09169 0.71009 0.0
H246 H 0.72268 0.12254 0.76071 0.0
H247 H 0.98134 0.31248 0.63237 0.0
H248 H 0.97629 0.37225 0.61812 0.0
H249 H 0.94212 0.29139 0.59659 0.0
C250 C 0.81491 0.89791 0.15717 0.0
C251 C 0.83691 0.91529 0.11524 0.0
C252 C 0.75238 0.87058 0.18187 0.0
C253 C 0.71072 0.86038 0.16425 0.0
C254 C 0.73364 0.8807 0.12229 0.0
C255 C 0.79634 0.90757 0.09826 0.0
C256 C 0.7305 0.84964 0.2262 0.0
C257 C 0.69124 0.87168 0.10228 0.0
C258 C 0.53532 0.71969 0.20073 0.0
C259 C 0.51053 0.75429 0.22025 0.0
C260 C 0.60054 0.753 0.18499 0.0
C261 C 0.64203 0.823 0.1881 0.0
C262 C 0.61697 0.85735 0.21041 0.0
C263 C 0.55121 0.82244 0.22625 0.0
C264 C 0.625 0.71389 0.16274 0.0
C265 C 0.65945 0.93169 0.21495 0.0
H266 H 0.84614 0.90394 0.17055 0.0
H267 H 0.81306 0.9208 0.06588 0.0
H268 H 0.69651 0.85914 0.24611 0.0
H269 H 0.70644 0.79517 0.22872 0.0
H270 H 0.77047 0.87621 0.23794 0.0
H271 H 0.71753 0.89539 0.07056 0.0
H272 H 0.65437 0.81754 0.10077 0.0
H273 H 0.66703 0.89349 0.12097 0.0
H274 H 0.50359 0.66696 0.19593 0.0
H275 H 0.53183 0.84922 0.24096 0.0
H276 H 0.66119 0.72519 0.17418 0.0
H277 H 0.64776 0.72884 0.12936 0.0
H278 H 0.58692 0.65906 0.16665 0.0
H279 H 0.69937 0.94608 0.22326 0.0
H280 H 0.63368 0.94869 0.23871 0.0
H281 H 0.67952 0.95845 0.18508 0.0
C282 C 0.93602 0.87842 0.61783 0.0
C283 C 0.89708 0.86333 0.59638 0.0
C284 C 0.91985 0.82938 0.64323 0.0
C285 C 0.86357 0.76342 0.64688 0.0
C286 C 0.82247 0.74918 0.62706 0.0
C287 C 0.83972 0.79924 0.60211 0.0
C288 C 0.96511 0.84864 0.66422 0.0
C289 C 0.76192 0.67978 0.63008 0.0
C290 C 0.85237 0.61078 0.65489 0.0
C291 C 0.80898 0.58353 0.69463 0.0
C292 C 0.87393 0.67182 0.64013 0.0
C293 C 0.85152 0.70678 0.66564 0.0
C294 C 0.81238 0.68282 0.7071 0.0
C295 C 0.791 0.62095 0.7211 0.0
C296 C 0.918 0.69699 0.59633 0.0
C297 C 0.79091 0.72103 0.73597 0.0
H298 H 0.9804 0.92779 0.61359 0.0
H299 H 0.8092 0.78738 0.58582 0.0
H300 H 0.94729 0.80852 0.68551 0.0
H301 H 0.01035 0.86276 0.64054 0.0
H302 H 0.97534 0.89337 0.68202 0.0
H303 H 0.73243 0.67836 0.61616 0.0
H304 H 0.77292 0.64515 0.61393 0.0
H305 H 0.73409 0.66088 0.66276 0.0
H306 H 0.86748 0.58274 0.63451 0.0
H307 H 0.75753 0.60027 0.75182 0.0
H308 H 0.95973 0.74957 0.59569 0.0
H309 H 0.89375 0.69615 0.57784 0.0
H310 H 0.9344 0.66634 0.58142 0.0
H311 H 0.83163 0.77455 0.73434 0.0
H312 H 0.76777 0.70068 0.76837 0.0
H313 H 0.75707 0.71857 0.72646 0.0
C314 C 0.13709 0.933 0.46433 0.0
C315 C 0.09765 0.9371 0.45315 0.0
C316 C 0.15836 0.89597 0.44183 0.0
C317 C 0.13928 0.86169 0.40758 0.0
C318 C 0.10139 0.86763 0.39526 0.0
C319 C 0.08114 0.90529 0.41812 0.0
C320 C 0.19937 0.89148 0.45568 0.0
C321 C 0.07935 0.83148 0.3593 0.0
C322 C 0.22722 0.79395 0.33957 0.0
C323 C 0.18899 0.72955 0.35796 0.0
C324 C 0.2101 0.83678 0.35386 0.0
C325 C 0.1539 0.81458 0.38749 0.0
C326 C 0.11333 0.74803 0.40423 0.0
C327 C 0.13156 0.7065 0.38939 0.0
C328 C 0.25386 0.90687 0.33458 0.0
C329 C 0.05219 0.72171 0.43935 0.0
H330 H 0.15053 0.95776 0.4911 0.0
H331 H 0.05065 0.90795 0.40909 0.0
H332 H 0.17318 0.83945 0.46711 0.0
H333 H 0.24195 0.90408 0.42934 0.0
H334 H 0.21439 0.92544 0.48063 0.0
H335 H 0.0636 0.85332 0.34768 0.0
H336 H 0.11711 0.8327 0.33367 0.0
H337 H 0.03914 0.77825 0.36916 0.0
H338 H 0.27195 0.81204 0.31554 0.0
H339 H 0.10188 0.65654 0.40351 0.0
H340 H 0.27796 0.94273 0.35613 0.0
H341 H 0.22711 0.92023 0.32881 0.0
H342 H 0.29016 0.91297 0.30506 0.0
H343 H 0.06219 0.74861 0.46738 0.0
H344 H 0.02368 0.66729 0.44657 0.0
H345 H 0.02371 0.73086 0.43182 0.0
C346 C 0.19057 0.15763 0.90799 0.0
C347 C 0.15956 0.12144 0.94572 0.0
C348 C 0.254 0.18546 0.88586 0.0
C349 C 0.28764 0.17827 0.90244 0.0
C350 C 0.25592 0.14041 0.94018 0.0
C351 C 0.1921 0.11205 0.96119 0.0
C352 C 0.28489 0.22503 0.84581 0.0
C353 C 0.29011 0.13239 0.95932 0.0
C354 C 0.44874 0.22003 0.83909 0.0
C355 C 0.48879 0.28548 0.84981 0.0
C356 C 0.38292 0.18442 0.85532 0.0
C357 C 0.35705 0.21547 0.88263 0.0
C358 C 0.39784 0.2824 0.89241 0.0
C359 C 0.46305 0.31636 0.876 0.0
C360 C 0.34186 0.1125 0.84501 0.0
C361 C 0.37259 0.31733 0.92167 0.0
H362 H 0.16543 0.16486 0.89585 0.0
H363 H 0.16839 0.08489 0.99059 0.0
H364 H 0.29814 0.27591 0.85264 0.0
H365 H 0.32789 0.23006 0.82571 0.0
H366 H 0.25145 0.20137 0.82857 0.0
H367 H 0.25862 0.10118 0.9887 0.0
H368 H 0.31093 0.10895 0.93768 0.0
H369 H 0.32937 0.18226 0.96542 0.0
H370 H 0.46857 0.1954 0.81998 0.0
H371 H 0.49423 0.36691 0.88456 0.0
H372 H 0.29397 0.09474 0.84907 0.0
H373 H 0.33734 0.08055 0.86549 0.0
H374 H 0.3638 0.10551 0.81291 0.0
H375 H 0.34414 0.32014 0.90921 0.0
H376 H 0.41069 0.36887 0.92695 0.0
H377 H 0.34118 0.28831 0.95178 0.0
C378 C 0.08982 0.16032 0.42927 0.0
C379 C 0.10386 0.18657 0.46567 0.0
C380 C 0.10134 0.20067 0.39977 0.0
C381 C 0.12924 0.26917 0.40641 0.0
C382 C 0.14489 0.29605 0.44273 0.0
C383 C 0.13144 0.25428 0.47201 0.0
C384 C 0.08281 0.1699 0.36195 0.0
C385 C 0.17532 0.369 0.45098 0.0
C386 C 0.21878 0.41081 0.32797 0.0
C387 C 0.17847 0.42865 0.34058 0.0
C388 C 0.20078 0.35372 0.34603 0.0
C389 C 0.14079 0.31353 0.37667 0.0
C390 C 0.09695 0.3264 0.38479 0.0
C391 C 0.11673 0.38458 0.3671 0.0
C392 C 0.24902 0.34191 0.33631 0.0
C393 C 0.03178 0.28366 0.41609 0.0
H394 H 0.06924 0.10808 0.42405 0.0
H395 H 0.14272 0.27482 0.49998 0.0
H396 H 0.04885 0.17629 0.36054 0.0
H397 H 0.1247 0.19585 0.33379 0.0
H398 H 0.06105 0.11572 0.36156 0.0
H399 H 0.18743 0.38262 0.47962 0.0
H400 H 0.21896 0.4011 0.42484 0.0
H401 H 0.14296 0.3805 0.45387 0.0
H402 H 0.26675 0.44536 0.3077 0.0
H403 H 0.08563 0.39861 0.37679 0.0
H404 H 0.22697 0.28775 0.33537 0.0
H405 H 0.27061 0.36195 0.36088 0.0
H406 H 0.28709 0.36741 0.30642 0.0
H407 H 0.01116 0.22989 0.41375 0.0
H408 H -0.00031 0.29099 0.41223 0.0
H409 H 0.0346 0.29745 0.44753 0.0
C410 C 0.90761 0.25539 0.89924 0.0
C411 C 0.88841 0.18981 0.89358 0.0
C412 C 0.89024 0.28097 0.88017 0.0
C413 C 0.85313 0.24006 0.85472 0.0
C414 C 0.83885 0.17622 0.84581 0.0
C415 C 0.85619 0.15157 0.86567 0.0
C416 C 0.90715 0.34967 0.88998 0.0
C417 C 0.80111 0.13146 0.81792 0.0
C418 C 0.73074 0.26033 0.86333 0.0
C419 C 0.76029 0.3037 0.82923 0.0
C420 C 0.75998 0.23796 0.87105 0.0
C421 C 0.82035 0.2592 0.84383 0.0
C422 C 0.84953 0.30105 0.80835 0.0
C423 C 0.81924 0.32331 0.80167 0.0
C424 C 0.72715 0.19367 0.90937 0.0
C425 C 0.91375 0.32543 0.77826 0.0
H426 H 0.93254 0.28517 0.92079 0.0
H427 H 0.84233 0.10127 0.86055 0.0
H428 H 0.92884 0.37964 0.86116 0.0
H429 H 0.86377 0.34502 0.90843 0.0
H430 H 0.94035 0.37718 0.90762 0.0
H431 H 0.81664 0.10086 0.80065 0.0
H432 H 0.75075 0.09662 0.83687 0.0
H433 H 0.80512 0.16044 0.79567 0.0
H434 H 0.68501 0.24497 0.88464 0.0
H435 H 0.84287 0.35811 0.77578 0.0
H436 H 0.7569 0.21828 0.9293 0.0
H437 H 0.71997 0.14573 0.90085 0.0
H438 H 0.68062 0.1824 0.92757 0.0
H439 H 0.94923 0.37745 0.78472 0.0
H440 H 0.91551 0.3266 0.74627 0.0
H441 H 0.92729 0.29423 0.78016 0.0
C442 C 0.72086 0.91836 0.36721 0.0
C443 C 0.71328 0.88339 0.39794 0.0
C444 C 0.67055 0.89355 0.35408 0.0
C445 C 0.61131 0.8325 0.37229 0.0
C446 C 0.60356 0.79664 0.40295 0.0
C447 C 0.65456 0.82266 0.41552 0.0
C448 C 0.6809 0.9339 0.32155 0.0
C449 C 0.54114 0.73102 0.42276 0.0
C450 C 0.4599 0.79191 0.37475 0.0
C451 C 0.44456 0.74491 0.3447 0.0
C452 C 0.51594 0.82351 0.38252 0.0
C453 C 0.5566 0.80631 0.36027 0.0
C454 C 0.54213 0.76032 0.3289 0.0
C455 C 0.48622 0.73037 0.32135 0.0
C456 C 0.53031 0.87307 0.41571 0.0
C457 C 0.58272 0.73863 0.30501 0.0
H458 H 0.76633 0.96495 0.3531 0.0
H459 H 0.64817 0.79583 0.43964 0.0
H460 H 0.65028 0.90181 0.30252 0.0
H461 H 0.66966 0.96862 0.33687 0.0
H462 H 0.73077 0.96442 0.30089 0.0
H463 H 0.5431 0.70914 0.44597 0.0
H464 H 0.50437 0.73838 0.43807 0.0
H465 H 0.52643 0.69454 0.39882 0.0
H466 H 0.42745 0.80311 0.39266 0.0
H467 H 0.47355 0.69288 0.29869 0.0
H468 H 0.57792 0.92081 0.40321 0.0
H469 H 0.53035 0.85334 0.44115 0.0
H470 H 0.49552 0.88359 0.42858 0.0
H471 H 0.63185 0.77532 0.30491 0.0
H472 H 0.58315 0.73011 0.27269 0.0
H473 H 0.56234 0.69041 0.31916 0.0
C474 C 0.93656 0.89307 0.895 0.0
C475 C 0.95345 0.88251 0.92376 0.0
C476 C 0.91306 0.84532 0.86628 0.0
C477 C 0.90468 0.78495 0.86716 0.0
C478 C 0.92634 0.77658 0.8939 0.0
C479 C 0.95091 0.82568 0.92161 0.0
C480 C 0.89317 0.85758 0.83709 0.0
C481 C 0.91849 0.71304 0.89588 0.0
C482 C 0.75991 0.61759 0.85756 0.0
C483 C 0.78561 0.59465 0.82297 0.0
C484 C 0.79741 0.68228 0.87007 0.0
C485 C 0.86239 0.72546 0.84713 0.0
C486 C 0.8869 0.70541 0.80924 0.0
C487 C 0.84809 0.63955 0.79763 0.0
C488 C 0.76862 0.7015 0.91031 0.0
C489 C 0.95509 0.75113 0.78275 0.0
H490 H 0.93971 0.93763 0.89576 0.0
H491 H 0.96442 0.81733 0.94336 0.0
H492 H 0.90196 0.83615 0.80696 0.0
H493 H 0.84197 0.83313 0.8504 0.0
H494 H 0.91835 0.91187 0.83188 0.0
H495 H 0.94294 0.71687 0.91544 0.0
H496 H 0.86766 0.67089 0.90875 0.0
H497 H 0.93708 0.70069 0.86456 0.0
H498 H 0.71114 0.583 0.87673 0.0
H499 H 0.86787 0.62195 0.77064 0.0
H500 H 0.78101 0.75114 0.9065 0.0
H501 H 0.78758 0.70502 0.93369 0.0
H502 H 0.71649 0.66453 0.92237 0.0
H503 H 0.9731 0.80415 0.78416 0.0
H504 H 0.9619 0.73743 0.75014 0.0
H505 H -0.01636 0.74669 0.79401 0.0
loop_
_geom_bond_atom_site_label_1
_geom_bond_atom_site_label_2
_geom_bond_distance
_geom_bond_site_symmetry_2
_ccdc_geom_bond_type
C0 Eu1 2.835 . S
C0 C2 1.500 . S
C0 O20 1.257 . S
C0 O21 1.260 . S
Eu1 C0 2.835 . S
Eu1 O20 2.473 . S
Eu1 O21 2.480 . S
Eu1 O22 2.430 1_455 S
Eu1 O23 2.670 1_455 S
Eu1 O24 2.394 1_455 S
Eu1 O29 2.355 1_564 S
Eu1 O31 2.374 1_565 S
C2 C0 1.500 . S
C2 C3 1.377 . S
C2 C7 1.377 . S
C3 C2 1.377 . S
C3 C4 1.395 . S
C3 H32 0.931 1_455 S
C4 C3 1.395 . S
C4 C5 1.383 . S
C4 H33 0.931 . S
C5 C4 1.383 . S
C5 C6 1.394 . S
C6 C5 1.394 . S
C6 C7 1.378 . S
C6 H34 0.931 . S
C7 C2 1.377 . S
C7 C6 1.378 . S
C7 H35 0.931 . S
C8 O22 1.259 . S
C8 O23 1.270 . S
C9 O24 1.251 1_556 S
C9 O25 1.251 . S
C10 Eu11 2.835 . S
C10 C12 1.500 . S
C10 O26 1.257 . S
C10 O27 1.260 1_655 S
Eu11 C10 2.835 . S
Eu11 O23 2.355 1_546 S
Eu11 O25 2.374 1_545 S
Eu11 O26 2.473 . S
Eu11 O27 2.480 1_655 S
Eu11 O28 2.430 1_655 S
Eu11 O29 2.670 1_655 S
Eu11 O30 2.394 1_656 S
C12 C10 1.500 . S
C12 C13 1.377 1_655 S
C12 C17 1.377 . S
C13 C12 1.377 1_455 S
C13 C14 1.395 1_455 S
C13 H36 0.931 . S
C14 C13 1.395 1_655 S
C14 C15 1.383 . S
C14 H37 0.931 1_655 S
C15 C14 1.383 . S
C15 C16 1.394 . S
C16 C15 1.394 . S
C16 C17 1.378 . S
C16 H38 0.931 . S
C17 C12 1.377 . S
C17 C16 1.378 . S
C17 H39 0.931 . S
C18 O28 1.259 . S
C18 O29 1.270 . S
C19 O30 1.251 . S
C19 O31 1.251 . S
O20 C0 1.257 . S
O20 Eu1 2.473 . S
O21 C0 1.260 . S
O21 Eu1 2.480 . S
O22 Eu1 2.430 1_655 S
O22 C8 1.259 . S
O23 Eu1 2.670 1_655 S
O23 C8 1.270 . S
O23 Eu11 2.355 1_564 S
O24 Eu1 2.394 1_655 S
O24 C9 1.251 1_554 S
O25 C9 1.251 . S
O25 Eu11 2.374 1_565 S
O26 C10 1.257 . S
O26 Eu11 2.473 . S
O27 C10 1.260 1_455 S
O27 Eu11 2.480 1_455 S
O28 Eu11 2.430 1_455 S
O28 C18 1.259 . S
O29 Eu1 2.355 1_546 S
O29 Eu11 2.670 1_455 S
O29 C18 1.270 . S
O30 Eu11 2.394 1_454 S
O30 C19 1.251 . S
O31 Eu1 2.374 1_545 S
O31 C19 1.251 . S
H32 C3 0.931 1_655 S
H33 C4 0.931 . S
H34 C6 0.931 . S
H35 C7 0.931 . S
H36 C13 0.931 . S
H37 C14 0.931 1_455 S
H38 C16 0.931 . S
H39 C17 0.931 . S
C40 Eu41 2.835 . S
C40 C42 1.500 . S
C40 O60 1.257 . S
C40 O61 1.260 . S
Eu41 C40 2.835 . S
Eu41 O60 2.473 . S
Eu41 O61 2.480 . S
Eu41 O62 2.430 . S
Eu41 O63 2.656 1_655 S
Eu41 O64 2.394 . S
Eu41 O69 2.355 1_665 S
Eu41 O71 2.374 1_655 S
C42 C40 1.500 . S
C42 C43 1.377 . S
C42 C47 1.377 . S
C43 C42 1.377 . S
C43 C44 1.395 . S
C43 H72 0.931 . S
C44 C43 1.395 . S
C44 C45 1.383 . S
C44 H73 0.931 . S
C45 C44 1.383 . S
C45 C46 1.394 . S
C46 C45 1.394 . S
C46 C47 1.378 . S
C46 H74 0.931 . S
C47 C42 1.377 . S
C47 C46 1.378 . S
C47 H75 0.931 1_565 S
C48 O62 1.259 . S
C48 O63 1.263 1_655 S
C49 O64 1.251 1_545 S
C49 O65 1.251 . S
C50 Eu51 2.835 . S
C50 C52 1.500 . S
C50 O66 1.257 . S
C50 O67 1.260 . S
Eu51 C50 2.835 . S
Eu51 O63 2.359 1_545 S
Eu51 O65 2.374 1_455 S
Eu51 O66 2.473 . S
Eu51 O67 2.480 . S
Eu51 O68 2.430 . S
Eu51 O69 2.670 . S
Eu51 O70 2.394 . S
C52 C50 1.500 . S
C52 C53 1.377 . S
C52 C57 1.377 . S
C53 C52 1.377 . S
C53 C54 1.395 . S
C53 H76 0.931 . S
C54 C53 1.395 . S
C54 C55 1.383 . S
C54 H77 0.931 . S
C55 C54 1.383 . S
C55 C56 1.394 . S
C56 C55 1.394 . S
C56 C57 1.378 . S
C56 H78 0.931 . S
C57 C52 1.377 . S
C57 C56 1.378 . S
C57 H79 0.931 . S
C58 O68 1.259 . S
C58 O69 1.270 . S
C59 O70 1.251 1_565 S
C59 O71 1.251 . S
O60 C40 1.257 . S
O60 Eu41 2.473 . S
O61 C40 1.260 . S
O61 Eu41 2.480 . S
O62 Eu41 2.430 . S
O62 C48 1.259 . S
O63 Eu41 2.656 1_455 S
O63 C48 1.263 1_455 S
O63 Eu51 2.359 1_565 S
O64 Eu41 2.394 . S
O64 C49 1.251 1_565 S
O65 C49 1.251 . S
O65 Eu51 2.374 1_655 S
O66 C50 1.257 . S
O66 Eu51 2.473 . S
O67 C50 1.260 . S
O67 Eu51 2.480 . S
O68 Eu51 2.430 . S
O68 C58 1.259 . S
O69 Eu41 2.355 1_445 S
O69 Eu51 2.670 . S
O69 C58 1.270 . S
O70 Eu51 2.394 . S
O70 C59 1.251 1_545 S
O71 Eu41 2.374 1_455 S
O71 C59 1.251 . S
H72 C43 0.931 . S
H73 C44 0.931 . S
H74 C46 0.931 . S
H75 C47 0.931 1_545 S
H76 C53 0.931 . S
H77 C54 0.931 . S
H78 C56 0.931 . S
H79 C57 0.931 . S
Zn80 O86 1.920 . S
Zn80 O92 1.898 . S
Zn80 O95 1.905 . S
Zn81 O89 1.905 . S
Zn81 O90 1.898 . S
Zn81 O98 1.920 . S
Zn82 O85 2.080 . S
Zn82 O88 2.114 . S
Zn82 O91 2.120 . S
Zn82 O93 2.120 . S
Zn82 O94 2.114 . S
Zn82 O97 2.080 . S
C83 O88 1.166 . S
C83 O89 1.182 . S
C84 O90 1.167 . S
C84 O91 1.299 . S
O85 Zn82 2.080 . S
O85 C99 1.305 . S
O86 Zn80 1.920 . S
O86 C99 1.234 . S
C87 O92 1.167 . S
C87 O93 1.299 . S
O88 Zn82 2.114 . S
O88 C83 1.166 . S
O89 Zn81 1.905 . S
O89 C83 1.182 . S
O90 Zn81 1.898 . S
O90 C84 1.167 . S
O91 Zn82 2.120 . S
O91 C84 1.299 . S
O92 Zn80 1.898 . S
O92 C87 1.167 . S
O93 Zn82 2.120 . S
O93 C87 1.299 . S
O94 Zn82 2.114 . S
O94 C96 1.166 . S
O95 Zn80 1.905 . S
O95 C96 1.182 . S
C96 O94 1.166 . S
C96 O95 1.182 . S
O97 Zn82 2.080 . S
O97 C100 1.305 . S
O98 Zn81 1.920 . S
O98 C100 1.234 . S
C99 O85 1.305 . S
C99 O86 1.234 . S
C100 O97 1.305 . S
C100 O98 1.234 . S
Zn101 O107 1.920 . S
Zn101 O113 1.898 . S
Zn101 O116 1.905 . S
Zn102 O110 1.905 . S
Zn102 O111 1.898 . S
Zn102 O119 1.920 . S
Zn103 O106 2.080 . S
Zn103 O109 2.114 . S
Zn103 O112 2.120 . S
Zn103 O114 2.120 . S
Zn103 O115 2.114 . S
Zn103 O118 2.080 . S
C104 O109 1.166 . S
C104 O110 1.182 . S
C105 O111 1.167 . S
C105 O112 1.299 . S
O106 Zn103 2.080 . S
O106 C120 1.305 . S
O107 Zn101 1.920 . S
O107 C120 1.234 . S
C108 O113 1.167 . S
C108 O114 1.299 . S
O109 Zn103 2.114 . S
O109 C104 1.166 . S
O110 Zn102 1.905 . S
O110 C104 1.182 . S
O111 Zn102 1.898 . S
O111 C105 1.167 . S
O112 Zn103 2.120 . S
O112 C105 1.299 . S
O113 Zn101 1.898 . S
O113 C108 1.167 . S
O114 Zn103 2.120 . S
O114 C108 1.299 . S
O115 Zn103 2.114 . S
O115 C117 1.166 . S
O116 Zn101 1.905 . S
O116 C117 1.182 . S
C117 O115 1.166 . S
C117 O116 1.182 . S
O118 Zn103 2.080 . S
O118 C121 1.305 . S
O119 Zn102 1.920 . S
O119 C121 1.234 . S
C120 O106 1.305 . S
C120 O107 1.234 . S
C121 O118 1.305 . S
C121 O119 1.234 . S
C122 C123 1.391 . S
C122 C124 1.394 . S
C122 H138 0.931 . S
C123 C122 1.391 . S
C123 C127 1.376 . S
C124 C122 1.394 . S
C124 C125 1.369 . S
C124 C128 1.531 . S
C125 C124 1.369 . S
C125 C126 1.410 . S
C125 C133 1.503 . S
C126 C125 1.410 . S
C126 C127 1.392 . S
C126 C129 1.511 . S
C127 C123 1.376 . S
C127 C126 1.392 . S
C127 H139 0.929 . S
C128 C124 1.531 . S
C128 H140 0.960 . S
C128 H141 0.962 . S
C128 H142 0.960 . S
C129 C126 1.511 . S
C129 H143 0.961 . S
C129 H144 0.961 . S
C129 H145 0.961 . S
C130 C131 1.370 . S
C130 C132 1.363 . S
C130 H146 0.931 . S
C131 C130 1.370 . S
C131 C135 1.408 . S
C132 C130 1.363 . S
C132 C133 1.370 . S
C132 C136 1.524 . S
C133 C125 1.503 . S
C133 C132 1.370 . S
C133 C134 1.403 . S
C134 C133 1.403 . S
C134 C135 1.404 . S
C134 C137 1.539 . S
C135 C131 1.408 . S
C135 C134 1.404 . S
C135 H147 0.930 . S
C136 C132 1.524 . S
C136 H148 0.956 . S
C136 H149 0.961 . S
C136 H150 0.961 . S
C137 C134 1.539 . S
C137 H151 0.958 . S
C137 H152 0.961 . S
C137 H153 0.960 . S
H138 C122 0.931 . S
H139 C127 0.929 . S
H140 C128 0.960 . S
H141 C128 0.962 . S
H142 C128 0.960 . S
H143 C129 0.961 . S
H144 C129 0.961 . S
H145 C129 0.961 . S
H146 C130 0.931 . S
H147 C135 0.930 . S
H148 C136 0.956 . S
H149 C136 0.961 . S
H150 C136 0.961 . S
H151 C137 0.958 . S
H152 C137 0.961 . S
H153 C137 0.960 . S
C154 C155 1.391 . S
C154 C156 1.394 . S
C154 H170 0.931 . S
C155 C154 1.391 . S
C155 C159 1.376 . S
C156 C154 1.394 . S
C156 C157 1.369 . S
C156 C160 1.531 . S
C157 C156 1.369 . S
C157 C158 1.410 . S
C157 C165 1.503 . S
C158 C157 1.410 . S
C158 C159 1.392 . S
C158 C161 1.511 . S
C159 C155 1.376 . S
C159 C158 1.392 . S
C159 H171 0.929 . S
C160 C156 1.531 . S
C160 H172 0.960 . S
C160 H173 0.962 . S
C160 H174 0.960 . S
C161 C158 1.511 . S
C161 H175 0.961 . S
C161 H176 0.961 . S
C161 H177 0.961 . S
C162 C163 1.370 . S
C162 C164 1.363 . S
C162 H178 0.931 . S
C163 C162 1.370 . S
C163 C167 1.408 . S
C164 C162 1.363 . S
C164 C165 1.370 . S
C164 C168 1.524 . S
C165 C157 1.503 . S
C165 C164 1.370 . S
C165 C166 1.403 . S
C166 C165 1.403 . S
C166 C167 1.404 . S
C166 C169 1.539 . S
C167 C163 1.408 . S
C167 C166 1.404 . S
C167 H179 0.930 . S
C168 C164 1.524 . S
C168 H180 0.956 . S
C168 H181 0.961 . S
C168 H182 0.961 . S
C169 C166 1.539 . S
C169 H183 0.958 . S
C169 H184 0.961 . S
C169 H185 0.960 . S
H170 C154 0.931 . S
H171 C159 0.929 . S
H172 C160 0.960 . S
H173 C160 0.962 . S
H174 C160 0.960 . S
H175 C161 0.961 . S
H176 C161 0.961 . S
H177 C161 0.961 . S
H178 C162 0.931 . S
H179 C167 0.930 . S
H180 C168 0.956 . S
H181 C168 0.961 . S
H182 C168 0.961 . S
H183 C169 0.958 . S
H184 C169 0.961 . S
H185 C169 0.960 . S
C186 C187 1.391 . S
C186 C188 1.394 . S
C186 H202 0.931 . S
C187 C186 1.391 . S
C187 C191 1.376 . S
C188 C186 1.394 . S
C188 C189 1.369 . S
C188 C192 1.531 . S
C189 C188 1.369 . S
C189 C190 1.410 . S
C189 C197 1.503 . S
C190 C189 1.410 . S
C190 C191 1.392 . S
C190 C193 1.511 . S
C191 C187 1.376 . S
C191 C190 1.392 . S
C191 H203 0.929 . S
C192 C188 1.531 . S
C192 H204 0.960 . S
C192 H205 0.962 . S
C192 H206 0.960 . S
C193 C190 1.511 . S
C193 H207 0.961 . S
C193 H208 0.961 . S
C193 H209 0.961 . S
C194 C195 1.370 . S
C194 C196 1.363 . S
C194 H210 0.931 . S
C195 C194 1.370 . S
C195 C199 1.408 . S
C196 C194 1.363 . S
C196 C197 1.370 . S
C196 C200 1.524 . S
C197 C189 1.503 . S
C197 C196 1.370 . S
C197 C198 1.403 . S
C198 C197 1.403 . S
C198 C199 1.404 . S
C198 C201 1.539 . S
C199 C195 1.408 . S
C199 C198 1.404 . S
C199 H211 0.930 . S
C200 C196 1.524 . S
C200 H212 0.956 . S
C200 H213 0.961 . S
C200 H214 0.961 . S
C201 C198 1.539 . S
C201 H215 0.958 . S
C201 H216 0.961 . S
C201 H217 0.960 . S
H202 C186 0.931 . S
H203 C191 0.929 . S
H204 C192 0.960 . S
H205 C192 0.962 . S
H206 C192 0.960 . S
H207 C193 0.961 . S
H208 C193 0.961 . S
H209 C193 0.961 . S
H210 C194 0.931 . S
H211 C199 0.930 . S
H212 C200 0.956 . S
H213 C200 0.961 . S
H214 C200 0.961 . S
H215 C201 0.958 . S
H216 C201 0.961 . S
H217 C201 0.960 . S
C218 C219 1.391 . S
C218 C220 1.394 . S
C218 H234 0.931 . S
C219 C218 1.391 . S
C219 C223 1.376 . S
C220 C218 1.394 . S
C220 C221 1.369 . S
C220 C224 1.531 . S
C221 C220 1.369 . S
C221 C222 1.410 . S
C221 C229 1.503 . S
C222 C221 1.410 . S
C222 C223 1.392 . S
C222 C225 1.511 . S
C223 C219 1.376 . S
C223 C222 1.392 . S
C223 H235 0.929 . S
C224 C220 1.531 . S
C224 H236 0.960 . S
C224 H237 0.962 . S
C224 H238 0.960 . S
C225 C222 1.511 . S
C225 H239 0.961 . S
C225 H240 0.961 . S
C225 H241 0.961 . S
C226 C227 1.370 . S
C226 C228 1.363 . S
C226 H242 0.931 . S
C227 C226 1.370 . S
C227 C231 1.408 . S
C228 C226 1.363 . S
C228 C229 1.370 . S
C228 C232 1.524 . S
C229 C221 1.503 . S
C229 C228 1.370 . S
C229 C230 1.403 . S
C230 C229 1.403 . S
C230 C231 1.404 . S
C230 C233 1.539 . S
C231 C227 1.408 . S
C231 C230 1.404 . S
C231 H243 0.930 . S
C232 C228 1.524 . S
C232 H244 0.956 . S
C232 H245 0.961 . S
C232 H246 0.961 . S
C233 C230 1.539 . S
C233 H247 0.958 1_655 S
C233 H248 0.961 1_655 S
C233 H249 0.965 . S
H234 C218 0.931 . S
H235 C223 0.929 . S
H236 C224 0.960 . S
H237 C224 0.962 . S
H238 C224 0.960 . S
H239 C225 0.961 . S
H240 C225 0.961 . S
H241 C225 0.961 . S
H242 C226 0.931 . S
H243 C231 0.930 . S
H244 C232 0.956 . S
H245 C232 0.961 . S
H246 C232 0.961 . S
H247 C233 0.958 1_455 S
H248 C233 0.961 1_455 S
H249 C233 0.965 . S
C250 C251 1.391 . S
C250 C252 1.394 . S
C250 H266 0.931 . S
C251 C250 1.391 . S
C251 C255 1.376 . S
C252 C250 1.394 . S
C252 C253 1.369 . S
C252 C256 1.531 . S
C253 C252 1.369 . S
C253 C254 1.410 . S
C253 C261 1.503 . S
C254 C253 1.410 . S
C254 C255 1.392 . S
C254 C257 1.511 . S
C255 C251 1.376 . S
C255 C254 1.392 . S
C255 H267 0.929 . S
C256 C252 1.531 . S
C256 H268 0.960 . S
C256 H269 0.962 . S
C256 H270 0.960 . S
C257 C254 1.511 . S
C257 H271 0.961 . S
C257 H272 0.961 . S
C257 H273 0.961 . S
C258 C259 1.370 . S
C258 C260 1.363 . S
C258 H274 0.931 . S
C259 C258 1.370 . S
C259 C263 1.408 . S
C260 C258 1.363 . S
C260 C261 1.370 . S
C260 C264 1.524 . S
C261 C253 1.503 . S
C261 C260 1.370 . S
C261 C262 1.403 . S
C262 C261 1.403 . S
C262 C263 1.404 . S
C262 C265 1.539 . S
C263 C259 1.408 . S
C263 C262 1.404 . S
C263 H275 0.930 . S
C264 C260 1.524 . S
C264 H276 0.956 . S
C264 H277 0.961 . S
C264 H278 0.961 . S
C265 C262 1.539 . S
C265 H279 0.958 . S
C265 H280 0.961 . S
C265 H281 0.960 . S
H266 C250 0.931 . S
H267 C255 0.929 . S
H268 C256 0.960 . S
H269 C256 0.962 . S
H270 C256 0.960 . S
H271 C257 0.961 . S
H272 C257 0.961 . S
H273 C257 0.961 . S
H274 C258 0.931 . S
H275 C263 0.930 . S
H276 C264 0.956 . S
H277 C264 0.961 . S
H278 C264 0.961 . S
H279 C265 0.958 . S
H280 C265 0.961 . S
H281 C265 0.960 . S
C282 C283 1.391 . S
C282 C284 1.394 . S
C282 H298 0.931 1_655 S
C283 C282 1.391 . S
C283 C287 1.376 . S
C284 C282 1.394 . S
C284 C285 1.369 . S
C284 C288 1.531 . S
C285 C284 1.369 . S
C285 C286 1.410 . S
C285 C293 1.503 . S
C286 C285 1.410 . S
C286 C287 1.392 . S
C286 C289 1.511 . S
C287 C283 1.376 . S
C287 C286 1.392 . S
C287 H299 0.929 . S
C288 C284 1.531 . S
C288 H300 0.960 . S
C288 H301 0.962 . S
C288 H302 0.960 1_655 S
C289 C286 1.511 . S
C289 H303 0.961 . S
C289 H304 0.961 . S
C289 H305 0.961 . S
C290 C291 1.370 . S
C290 C292 1.363 . S
C290 H306 0.931 . S
C291 C290 1.370 . S
C291 C295 1.408 . S
C292 C290 1.363 . S
C292 C293 1.370 . S
C292 C296 1.524 . S
C293 C285 1.503 . S
C293 C292 1.370 . S
C293 C294 1.403 . S
C294 C293 1.403 . S
C294 C295 1.404 . S
C294 C297 1.539 . S
C295 C291 1.408 . S
C295 C294 1.404 . S
C295 H307 0.930 . S
C296 C292 1.524 . S
C296 H308 0.956 . S
C296 H309 0.961 . S
C296 H310 0.961 . S
C297 C294 1.539 . S
C297 H311 0.958 . S
C297 H312 0.961 . S
C297 H313 0.960 . S
H298 C282 0.931 1_455 S
H299 C287 0.929 . S
H300 C288 0.960 . S
H301 C288 0.962 . S
H302 C288 0.960 1_455 S
H303 C289 0.961 . S
H304 C289 0.961 . S
H305 C289 0.961 . S
H306 C290 0.931 . S
H307 C295 0.930 . S
H308 C296 0.956 . S
H309 C296 0.961 . S
H310 C296 0.961 . S
H311 C297 0.958 . S
H312 C297 0.961 . S
H313 C297 0.960 . S
C314 C315 1.391 . S
C314 C316 1.394 . S
C314 H330 0.931 . S
C315 C314 1.391 . S
C315 C319 1.376 . S
C316 C314 1.394 . S
C316 C317 1.369 . S
C316 C320 1.531 . S
C317 C316 1.369 . S
C317 C318 1.410 . S
C317 C325 1.503 . S
C318 C317 1.410 . S
C318 C319 1.392 . S
C318 C321 1.511 . S
C319 C315 1.376 . S
C319 C318 1.392 . S
C319 H331 0.929 1_565 S
C320 C316 1.531 . S
C320 H332 0.960 . S
C320 H333 0.962 . S
C320 H334 0.960 . S
C321 C318 1.511 . S
C321 H335 0.961 1_565 S
C321 H336 0.961 . S
C321 H337 0.961 . S
C322 C323 1.370 . S
C322 C324 1.363 . S
C322 H338 0.931 . S
C323 C322 1.370 . S
C323 C327 1.408 . S
C324 C322 1.363 . S
C324 C325 1.370 . S
C324 C328 1.524 . S
C325 C317 1.503 . S
C325 C324 1.370 . S
C325 C326 1.403 . S
C326 C325 1.403 . S
C326 C327 1.404 . S
C326 C329 1.539 . S
C327 C323 1.408 . S
C327 C326 1.404 . S
C327 H339 0.930 . S
C328 C324 1.524 . S
C328 H340 0.956 . S
C328 H341 0.961 . S
C328 H342 0.961 . S
C329 C326 1.539 . S
C329 H343 0.958 . S
C329 H344 0.961 . S
C329 H345 0.960 . S
H330 C314 0.931 . S
H331 C319 0.929 1_545 S
H332 C320 0.960 . S
H333 C320 0.962 . S
H334 C320 0.960 . S
H335 C321 0.961 1_545 S
H336 C321 0.961 . S
H337 C321 0.961 . S
H338 C322 0.931 . S
H339 C327 0.930 . S
H340 C328 0.956 . S
H341 C328 0.961 . S
H342 C328 0.961 . S
H343 C329 0.958 . S
H344 C329 0.961 . S
H345 C329 0.960 . S
C346 C347 1.391 . S
C346 C348 1.394 . S
C346 H362 0.931 . S
C347 C346 1.391 . S
C347 C351 1.376 . S
C348 C346 1.394 . S
C348 C349 1.369 . S
C348 C352 1.531 . S
C349 C348 1.369 . S
C349 C350 1.410 . S
C349 C357 1.503 . S
C350 C349 1.410 . S
C350 C351 1.392 . S
C350 C353 1.511 . S
C351 C347 1.376 . S
C351 C350 1.392 . S
C351 H363 0.929 . S
C352 C348 1.531 . S
C352 H364 0.960 . S
C352 H365 0.962 . S
C352 H366 0.960 . S
C353 C350 1.511 . S
C353 H367 0.961 . S
C353 H368 0.961 . S
C353 H369 0.961 . S
C354 C355 1.370 . S
C354 C356 1.363 . S
C354 H370 0.931 . S
C355 C354 1.370 . S
C355 C359 1.408 . S
C356 C354 1.363 . S
C356 C357 1.370 . S
C356 C360 1.524 . S
C357 C349 1.503 . S
C357 C356 1.370 . S
C357 C358 1.403 . S
C358 C357 1.403 . S
C358 C359 1.404 . S
C358 C361 1.539 . S
C359 C355 1.408 . S
C359 C358 1.404 . S
C359 H371 0.930 . S
C360 C356 1.524 . S
C360 H372 0.956 . S
C360 H373 0.961 . S
C360 H374 0.961 . S
C361 C358 1.539 . S
C361 H375 0.958 . S
C361 H376 0.961 . S
C361 H377 0.960 . S
H362 C346 0.931 . S
H363 C351 0.929 . S
H364 C352 0.960 . S
H365 C352 0.962 . S
H366 C352 0.960 . S
H367 C353 0.961 . S
H368 C353 0.961 . S
H369 C353 0.961 . S
H370 C354 0.931 . S
H371 C359 0.930 . S
H372 C360 0.956 . S
H373 C360 0.961 . S
H374 C360 0.961 . S
H375 C361 0.958 . S
H376 C361 0.961 . S
H377 C361 0.960 . S
C378 C379 1.391 . S
C378 C380 1.394 . S
C378 H394 0.931 . S
C379 C378 1.391 . S
C379 C383 1.376 . S
C380 C378 1.394 . S
C380 C381 1.369 . S
C380 C384 1.531 . S
C381 C380 1.369 . S
C381 C382 1.410 . S
C381 C389 1.503 . S
C382 C381 1.410 . S
C382 C383 1.392 . S
C382 C385 1.511 . S
C383 C379 1.376 . S
C383 C382 1.392 . S
C383 H395 0.929 . S
C384 C380 1.531 . S
C384 H396 0.960 . S
C384 H397 0.962 . S
C384 H398 0.960 . S
C385 C382 1.511 . S
C385 H399 0.961 . S
C385 H400 0.961 . S
C385 H401 0.961 . S
C386 C387 1.370 . S
C386 C388 1.363 . S
C386 H402 0.931 . S
C387 C386 1.370 . S
C387 C391 1.408 . S
C388 C386 1.363 . S
C388 C389 1.370 . S
C388 C392 1.524 . S
C389 C381 1.503 . S
C389 C388 1.370 . S
C389 C390 1.403 . S
C390 C389 1.403 . S
C390 C391 1.404 . S
C390 C393 1.539 . S
C391 C387 1.408 . S
C391 C390 1.404 . S
C391 H403 0.930 . S
C392 C388 1.524 . S
C392 H404 0.956 . S
C392 H405 0.961 . S
C392 H406 0.961 . S
C393 C390 1.539 . S
C393 H407 0.958 . S
C393 H408 0.961 . S
C393 H409 0.960 . S
H394 C378 0.931 . S
H395 C383 0.929 . S
H396 C384 0.960 . S
H397 C384 0.962 . S
H398 C384 0.960 . S
H399 C385 0.961 . S
H400 C385 0.961 . S
H401 C385 0.961 . S
H402 C386 0.931 . S
H403 C391 0.930 . S
H404 C392 0.956 . S
H405 C392 0.961 . S
H406 C392 0.961 . S
H407 C393 0.958 . S
H408 C393 0.961 . S
H409 C393 0.960 . S
C410 C411 1.391 . S
C410 C412 1.394 . S
C410 H426 0.931 . S
C411 C410 1.391 . S
C411 C415 1.376 . S
C412 C410 1.394 . S
C412 C413 1.369 . S
C412 C416 1.531 . S
C413 C412 1.369 . S
C413 C414 1.410 . S
C413 C421 1.503 . S
C414 C413 1.410 . S
C414 C415 1.392 . S
C414 C417 1.511 . S
C415 C411 1.376 . S
C415 C414 1.392 . S
C415 H427 0.929 . S
C416 C412 1.531 . S
C416 H428 0.960 . S
C416 H429 0.962 . S
C416 H430 0.960 . S
C417 C414 1.511 . S
C417 H431 0.961 . S
C417 H432 0.961 . S
C417 H433 0.961 . S
C418 C419 1.370 . S
C418 C420 1.363 . S
C418 H434 0.931 . S
C419 C418 1.370 . S
C419 C423 1.408 . S
C420 C418 1.363 . S
C420 C421 1.370 . S
C420 C424 1.524 . S
C421 C413 1.503 . S
C421 C420 1.370 . S
C421 C422 1.403 . S
C422 C421 1.403 . S
C422 C423 1.404 . S
C422 C425 1.539 . S
C423 C419 1.408 . S
C423 C422 1.404 . S
C423 H435 0.930 . S
C424 C420 1.524 . S
C424 H436 0.956 . S
C424 H437 0.961 . S
C424 H438 0.961 . S
C425 C422 1.539 . S
C425 H439 0.958 . S
C425 H440 0.961 . S
C425 H441 0.960 . S
H426 C410 0.931 . S
H427 C415 0.929 . S
H428 C416 0.960 . S
H429 C416 0.962 . S
H430 C416 0.960 . S
H431 C417 0.961 . S
H432 C417 0.961 . S
H433 C417 0.961 . S
H434 C418 0.931 . S
H435 C423 0.930 . S
H436 C424 0.956 . S
H437 C424 0.961 . S
H438 C424 0.961 . S
H439 C425 0.958 . S
H440 C425 0.961 . S
H441 C425 0.960 . S
C442 C443 1.391 . S
C442 C444 1.394 . S
C442 H458 0.931 . S
C443 C442 1.391 . S
C443 C447 1.376 . S
C444 C442 1.394 . S
C444 C445 1.369 . S
C444 C448 1.531 . S
C445 C444 1.369 . S
C445 C446 1.410 . S
C445 C453 1.503 . S
C446 C445 1.410 . S
C446 C447 1.392 . S
C446 C449 1.511 . S
C447 C443 1.376 . S
C447 C446 1.392 . S
C447 H459 0.929 . S
C448 C444 1.531 . S
C448 H460 0.960 . S
C448 H461 0.962 . S
C448 H462 0.960 . S
C449 C446 1.511 . S
C449 H463 0.961 . S
C449 H464 0.961 . S
C449 H465 0.961 . S
C450 C451 1.370 . S
C450 C452 1.363 . S
C450 H466 0.931 . S
C451 C450 1.370 . S
C451 C455 1.408 . S
C452 C450 1.363 . S
C452 C453 1.370 . S
C452 C456 1.524 . S
C453 C445 1.503 . S
C453 C452 1.370 . S
C453 C454 1.403 . S
C454 C453 1.403 . S
C454 C455 1.404 . S
C454 C457 1.539 . S
C455 C451 1.408 . S
C455 C454 1.404 . S
C455 H467 0.930 . S
C456 C452 1.524 . S
C456 H468 0.956 . S
C456 H469 0.961 . S
C456 H470 0.961 . S
C457 C454 1.539 . S
C457 H471 0.958 . S
C457 H472 0.961 . S
C457 H473 0.960 . S
H458 C442 0.931 . S
H459 C447 0.929 . S
H460 C448 0.960 . S
H461 C448 0.962 . S
H462 C448 0.960 . S
H463 C449 0.961 . S
H464 C449 0.961 . S
H465 C449 0.961 . S
H466 C450 0.931 . S
H467 C455 0.930 . S
H468 C456 0.956 . S
H469 C456 0.961 . S
H470 C456 0.961 . S
H471 C457 0.958 . S
H472 C457 0.961 . S
H473 C457 0.960 . S
C474 C475 1.391 . S
C474 C476 1.394 . S
C474 H490 0.931 1_655 S
C475 C474 1.391 . S
C475 C479 1.376 . S
C476 C474 1.394 . S
C476 C477 1.369 . S
C476 C480 1.531 . S
C477 C476 1.369 . S
C477 C478 1.410 . S
C477 C485 1.503 . S
C478 C477 1.410 . S
C478 C479 1.392 . S
C478 C481 1.511 . S
C479 C475 1.376 . S
C479 C478 1.392 . S
C479 H491 0.929 . S
C480 C476 1.531 . S
C480 H492 0.960 . S
C480 H493 0.962 . S
C480 H494 0.960 1_655 S
C481 C478 1.511 . S
C481 H495 0.961 . S
C481 H496 0.961 . S
C481 H497 0.961 . S
C482 C483 1.370 . S
C482 C484 1.363 . S
C482 H498 0.931 . S
C483 C482 1.370 . S
C483 C487 1.408 . S
C484 C482 1.363 . S
C484 C485 1.370 . S
C484 C488 1.524 . S
C485 C477 1.503 . S
C485 C484 1.370 . S
C485 C486 1.403 . S
C486 C485 1.403 . S
C486 C487 1.404 . S
C486 C489 1.539 . S
C487 C483 1.408 . S
C487 C486 1.404 . S
C487 H499 0.930 . S
C488 C484 1.524 . S
C488 H500 0.956 . S
C488 H501 0.961 . S
C488 H502 0.961 . S
C489 C486 1.539 . S
C489 H503 0.958 1_655 S
C489 H504 0.961 . S
C489 H505 0.960 . S
H490 C474 0.931 1_455 S
H491 C479 0.929 . S
H492 C480 0.960 . S
H493 C480 0.962 . S
H494 C480 0.960 1_455 S
H495 C481 0.961 . S
H496 C481 0.961 . S
H497 C481 0.961 . S
H498 C482 0.931 . S
H499 C487 0.930 . S
H500 C488 0.956 . S
H501 C488 0.961 . S
H502 C488 0.961 . S
H503 C489 0.958 1_455 S
H504 C489 0.961 . S
H505 C489 0.960 . S
C123 C5 1.240 . S
C131 C99 1.174 . S
C155 C55 1.007 . S
C163 C105 0.912 . S
C187 C19 1.285 . S
C195 C96 1.262 . S
C219 C49 2.097 . S
C227 C121 2.001 . S
C251 C8 2.001 . S
C259 C87 1.919 . S
C291 C104 1.844 . S
C283 C48 1.932 . S
C315 C59 1.861 . S
C323 C100 1.792 . S
C355 C117 2.073 . S
C347 C18 2.149 . S
C387 C84 2.078 . S
C379 C58 2.232 . S
C419 C120 1.265 . S
C411 C15 1.356 . S
C451 C83 0.975 . S
C443 C45 1.002 . S
C483 C108 1.010 . S
C475 C9 1.121 . S
