# Generated by pormake.
# Topology zzz, (3,6)-cn, num edge types: 1
# Building blocks:
#     Node 0, Type 0, BuildingBlock: WUSLED_clean_sbu_0, # of connection points: 3
#     Node 1, Type 0, BuildingBlock: WUSLED_clean_sbu_0, # of connection points: 3
#     Node 2, Type 0, BuildingBlock: WUSLED_clean_sbu_0, # of connection points: 3
#     Node 3, Type 0, BuildingBlock: WUSLED_clean_sbu_0, # of connection points: 3
#     Node 4, Type 0, BuildingBlock: WUSLED_clean_sbu_0, # of connection points: 3
#     Node 5, Type 0, BuildingBlock: WUSLED_clean_sbu_0, # of connection points: 3
#     Node 6, Type 0, BuildingBlock: WUSLED_clean_sbu_0, # of connection points: 3
#     Node 7, Type 0, BuildingBlock: WUSLED_clean_sbu_0, # of connection points: 3
#     Node 8, Type 1, BuildingBlock: HISSIN_clean_sbu_0, # of connection points: 6
#     Node 9, Type 1, BuildingBlock: HISSIN_clean_sbu_0, # of connection points: 6
#     Node 10, Type 1, BuildingBlock: HISSIN_clean_sbu_0, # of connection points: 6
#     Node 11, Type 1, BuildingBlock: HISSIN_clean_sbu_0, # of connection points: 6
#     Edge 12, Type (0, 1), BuildingBlock: CIFDUS_clean_linker_0, # of connection points: 2
#     Edge 13, Type (0, 1), BuildingBlock: CIFDUS_clean_linker_0, # of connection points: 2
#     Edge 14, Type (0, 1), BuildingBlock: CIFDUS_clean_linker_0, # of connection points: 2
#     Edge 15, Type (0, 1), BuildingBlock: CIFDUS_clean_linker_0, # of connection points: 2
#     Edge 16, Type (0, 1), BuildingBlock: CIFDUS_clean_linker_0, # of connection points: 2
#     Edge 17, Type (0, 1), BuildingBlock: CIFDUS_clean_linker_0, # of connection points: 2
#     Edge 18, Type (0, 1), BuildingBlock: CIFDUS_clean_linker_0, # of connection points: 2
#     Edge 19, Type (0, 1), BuildingBlock: CIFDUS_clean_linker_0, # of connection points: 2
#     Edge 20, Type (0, 1), BuildingBlock: CIFDUS_clean_linker_0, # of connection points: 2
#     Edge 21, Type (0, 1), BuildingBlock: CIFDUS_clean_linker_0, # of connection points: 2
#     Edge 22, Type (0, 1), BuildingBlock: CIFDUS_clean_linker_0, # of connection points: 2
#     Edge 23, Type (0, 1), BuildingBlock: CIFDUS_clean_linker_0, # of connection points: 2
#     Edge 24, Type (0, 1), BuildingBlock: CIFDUS_clean_linker_0, # of connection points: 2
#     Edge 25, Type (0, 1), BuildingBlock: CIFDUS_clean_linker_0, # of connection points: 2
#     Edge 26, Type (0, 1), BuildingBlock: CIFDUS_clean_linker_0, # of connection points: 2
#     Edge 27, Type (0, 1), BuildingBlock: CIFDUS_clean_linker_0, # of connection points: 2
#     Edge 28, Type (0, 1), BuildingBlock: CIFDUS_clean_linker_0, # of connection points: 2
#     Edge 29, Type (0, 1), BuildingBlock: CIFDUS_clean_linker_0, # of connection points: 2
#     Edge 30, Type (0, 1), BuildingBlock: CIFDUS_clean_linker_0, # of connection points: 2
#     Edge 31, Type (0, 1), BuildingBlock: CIFDUS_clean_linker_0, # of connection points: 2
#     Edge 32, Type (0, 1), BuildingBlock: CIFDUS_clean_linker_0, # of connection points: 2
#     Edge 33, Type (0, 1), BuildingBlock: CIFDUS_clean_linker_0, # of connection points: 2
#     Edge 34, Type (0, 1), BuildingBlock: CIFDUS_clean_linker_0, # of connection points: 2
#     Edge 35, Type (0, 1), BuildingBlock: CIFDUS_clean_linker_0, # of connection points: 2
# Relax obj value: 0.380
# Max RMSD: 0.222
# Mean RMSD: 0.185
data_MOF--net-zzz--node1-WUSLED_clean_sbu_0--node2-HISSIN_clean_sbu_0--edge1-CIFDUS_clean_linker_0
_symmetry_space_group_name_H-M    P1
_symmetry_Int_Tables_number       1
_symmetry_cell_setting            triclinic
loop_
_symmetry_equiv_pos_as_xyz
'x, y, z'
_cell_length_a     54.146411
_cell_length_b     54.757485
_cell_length_c     20.675926
_cell_angle_alpha  90.145948
_cell_angle_beta   91.681273
_cell_angle_gamma 91.396074
loop_
_atom_site_label
_atom_site_type_symbol
_atom_site_fract_x
_atom_site_fract_y
_atom_site_fract_z
_atom_type_partial_charge
C0 C 0.79647 0.52161 0.41358 0.0
C1 C 0.80446 0.50734 0.46612 0.0
C2 C 0.847 0.52299 0.45685 0.0
C3 C 0.82935 0.50796 0.48741 0.0
C4 C 0.83884 0.53721 0.40381 0.0
C5 C 0.81395 0.53645 0.38233 0.0
U6 U 0.74432 0.5295 0.28519 0.0
O7 O 0.7103 0.5072 0.26811 0.0
O8 O 0.70775 0.54626 0.28939 0.0
C9 C 0.69591 0.52615 0.26989 0.0
C10 C 0.7699 0.52103 0.39294 0.0
C11 C 0.67843 0.5285 0.21369 0.0
C12 C 0.63847 0.51842 0.16166 0.0
C13 C 0.65501 0.51701 0.21497 0.0
C14 C 0.66852 0.54283 0.10442 0.0
C15 C 0.64489 0.53142 0.10551 0.0
C16 C 0.6851 0.54134 0.15779 0.0
C17 C 0.79711 0.54104 0.17172 0.0
C18 C 0.83092 0.55883 0.11222 0.0
C19 C 0.83597 0.5201 0.16685 0.0
C20 C 0.81225 0.52168 0.19054 0.0
C21 C 0.84522 0.53812 0.12498 0.0
C22 C 0.80693 0.5601 0.13475 0.0
C23 C 0.77059 0.54025 0.18476 0.0
O24 O 0.76017 0.54224 0.37902 0.0
O25 O 0.76289 0.50375 0.35162 0.0
O26 O 0.76114 0.51835 0.1954 0.0
O27 O 0.76269 0.55707 0.22407 0.0
H28 H 0.79138 0.49565 0.49086 0.0
H29 H 0.83476 0.49635 0.52742 0.0
H30 H 0.85159 0.54927 0.37922 0.0
H31 H 0.80834 0.54762 0.34155 0.0
H32 H 0.62073 0.50897 0.16424 0.0
H33 H 0.64955 0.50673 0.25717 0.0
H34 H 0.67414 0.55321 0.06261 0.0
H35 H 0.70315 0.5502 0.15535 0.0
H36 H 0.83775 0.57349 0.08202 0.0
H37 H 0.84623 0.50384 0.17784 0.0
H38 H 0.80527 0.50696 0.22035 0.0
H39 H 0.79567 0.57541 0.12077 0.0
C40 C 0.02825 0.79186 0.37446 0.0
C41 C 0.04652 0.80185 0.41698 0.0
C42 C 0.02289 0.83896 0.43008 0.0
C43 C 0.04383 0.82503 0.44477 0.0
C44 C 1.0045 0.82881 0.38766 0.0
C45 C 1.00704 0.80543 0.3607 0.0
U46 U 1.01483 0.74311 0.24184 0.0
O47 O 0.04182 0.71984 0.19584 0.0
O48 O 1.01041 0.70287 0.24455 0.0
C49 C 0.02945 0.6995 0.20764 0.0
C50 C 0.03193 0.76754 0.34454 0.0
C51 C 0.02557 0.68292 0.15124 0.0
C52 C 0.03637 0.64568 0.09498 0.0
C53 C 0.03807 0.66082 0.1498 0.0
C54 C 1.00928 0.67437 0.04195 0.0
C55 C 0.02207 0.65225 0.03993 0.0
C56 C 1.01103 0.68955 0.09697 0.0
C57 C 0.97568 0.79207 0.1693 0.0
C58 C 0.94826 0.82335 0.12957 0.0
C59 C 0.9873 0.83479 0.18284 0.0
C60 C 0.992 0.8103 0.19386 0.0
C61 C 0.96605 0.84163 0.14704 0.0
C62 C 0.9532 0.79868 0.13998 0.0
C63 C 0.98363 0.76666 0.16771 0.0
O64 O 1.01319 0.75182 0.34585 0.0
O65 O 0.04292 0.7677 0.28871 0.0
O66 O 1.00705 0.76437 0.15458 0.0
O67 O 0.97643 0.75264 0.21544 0.0
H68 H 0.06305 0.79176 0.42844 0.0
H69 H 0.05847 0.83229 0.47662 0.0
H70 H 0.98802 0.83887 0.37569 0.0
H71 H 0.99247 0.798 0.32893 0.0
H72 H 0.04687 0.6291 0.09523 0.0
H73 H 0.04964 0.65546 0.19075 0.0
H74 H 0.99787 0.68 1.00104 0.0
H75 H 1.00133 0.70662 0.09681 0.0
H76 H 0.93133 0.82794 0.10372 0.0
H77 H 1.00165 0.84798 0.19708 0.0
H78 H 1.00941 0.80556 0.21721 0.0
H79 H 0.9402 0.78479 0.12169 0.0
C80 C 0.73755 1.01279 0.30612 0.0
C81 C 0.7184 0.02953 0.2988 0.0
C82 C 0.69321 1.00727 0.37668 0.0
C83 C 0.69661 0.02686 0.33355 0.0
C84 C 0.71219 0.99016 0.38298 0.0
C85 C 0.73414 0.99298 0.34858 0.0
U86 U 0.79222 0.99474 0.19743 0.0
O87 O 0.80885 0.01844 0.12389 0.0
O88 O 0.83225 1.00407 0.20255 0.0
C89 C 0.83147 0.01604 0.14728 0.0
C90 C 0.76117 0.0174 0.27197 0.0
C91 C 0.8507 1.0112 0.09868 0.0
C92 C 0.88907 0.99256 0.06655 0.0
C93 C 0.87004 0.99498 0.11084 0.0
C94 C 0.86966 0.02206 0.99618 0.0
C95 C 0.88937 1.00634 1.00893 0.0
C96 C 0.85071 0.02452 0.04048 0.0
C97 C 0.75547 0.9369 0.17295 0.0
C98 C 0.72409 0.91424 0.11061 0.0
C99 C 0.71234 0.94625 0.18352 0.0
C100 C 0.73691 0.9492 0.20467 0.0
C101 C 0.70624 0.93077 0.13064 0.0
C102 C 0.74883 0.91772 0.13058 0.0
C103 C 0.7791 0.94993 0.16456 0.0
O104 O 0.78105 1.00648 0.29427 0.0
O105 O 0.75976 0.01798 0.20842 0.0
O106 O 0.77669 0.96875 0.12591 0.0
O107 O 0.79249 0.95505 0.21717 0.0
H108 H 0.72046 0.04502 0.26674 0.0
H109 H 0.68237 0.04023 0.32657 0.0
H110 H 0.71039 0.97494 0.41598 0.0
H111 H 0.74853 0.97978 0.35578 0.0
H112 H 0.90373 0.98002 0.07787 0.0
H113 H 0.87077 0.98445 0.15509 0.0
H114 H 0.86931 0.03324 0.95306 0.0
H115 H 0.83628 0.03741 0.02984 0.0
H116 H 0.71973 0.90118 0.07229 0.0
H117 H 0.69921 0.95896 0.20176 0.0
H118 H 0.74175 0.96396 0.23785 0.0
H119 H 0.76291 0.90774 0.10625 0.0
C120 C 0.55066 0.74356 0.36204 0.0
C121 C 0.56901 0.72587 0.36606 0.0
C122 C 0.54293 0.69954 0.4323 0.0
C123 C 0.5652 0.70415 0.4005 0.0
C124 C 0.52443 0.71715 0.42768 0.0
C125 C 0.52823 0.73888 0.39304 0.0
U126 U 0.5383 0.79204 0.22947 0.0
O127 O 0.53983 0.83236 0.23383 0.0
O128 O 0.56567 0.81287 0.17393 0.0
C129 C 0.55701 0.83416 0.1903 0.0
C130 C 0.55595 0.7671 0.32855 0.0
C131 C 0.55223 0.85118 0.13609 0.0
C132 C 0.56101 0.89003 0.08315 0.0
C133 C 0.56467 0.87394 0.13506 0.0
C134 C 0.53231 0.86079 0.03235 0.0
C135 C 0.54479 0.8837 0.03089 0.0
C136 C 0.53598 0.84473 0.08437 0.0
C137 C 0.48764 0.74806 0.1694 0.0
C138 C 0.46437 0.71563 0.11393 0.0
C139 C 0.48278 0.70835 0.2202 0.0
C140 C 0.49182 0.7325 0.22221 0.0
C141 C 0.46968 0.69936 0.16495 0.0
C142 C 0.47325 0.73973 0.11627 0.0
C143 C 0.50081 0.77166 0.1651 0.0
O144 O 0.5646 0.76553 0.26996 0.0
O145 O 0.5398 0.7845 0.33411 0.0
O146 O 0.49811 0.78693 0.21341 0.0
O147 O 0.52382 0.77004 0.14745 0.0
H148 H 0.58657 0.72904 0.34331 0.0
H149 H 0.58002 0.69123 0.40357 0.0
H150 H 0.50692 0.71414 0.45077 0.0
H151 H 0.51364 0.75206 0.39102 0.0
H152 H 0.57067 0.90757 0.08447 0.0
H153 H 0.57731 0.87928 0.17445 0.0
H154 H 0.51993 0.85507 0.9928 0.0
H155 H 0.52628 0.82718 0.08397 0.0
H156 H 0.45482 0.7094 0.06997 0.0
H157 H 0.487 0.69645 0.26059 0.0
H158 H 0.50305 0.73869 0.26352 0.0
H159 H 0.47007 0.75147 0.07487 0.0
C160 C 0.2683 0.50879 0.90997 0.0
C161 C 0.24824 0.49573 0.93605 0.0
C162 C 0.21984 0.51278 0.85441 0.0
C163 C 0.22428 0.49765 0.90845 0.0
C164 C 0.24007 0.52576 0.82874 0.0
C165 C 0.26392 0.52377 0.85614 0.0
U166 U 0.31652 0.5004 0.04997 0.0
O167 O 0.35153 0.48058 0.05367 0.0
O168 O 0.35201 0.52031 0.06642 0.0
C169 C 0.36486 0.50027 0.06902 0.0
C170 C 0.29396 0.50702 0.93686 0.0
C171 C 0.38215 0.4983 0.12563 0.0
C172 C 0.42403 0.5025 0.17152 0.0
C173 C 0.40741 0.50345 0.11832 0.0
C174 C 0.39038 0.49112 0.2406 0.0
C175 C 0.41581 0.49638 0.23361 0.0
C176 C 0.37374 0.4921 0.18723 0.0
C177 C 0.26114 0.49571 0.15742 0.0
C178 C 0.22587 0.48577 0.22254 0.0
C179 C 0.22112 0.51249 0.12985 0.0
C180 C 0.24602 0.50976 0.11642 0.0
C181 C 0.21098 0.50099 0.18398 0.0
C182 C 0.2508 0.48323 0.20942 0.0
C183 C 0.28788 0.4951 0.14888 0.0
O184 O 0.3019 0.52509 0.97458 0.0
O185 O 0.30077 0.48551 0.95814 0.0
O186 O 0.29572 0.47648 0.11563 0.0
O187 O 0.29832 0.51609 0.1331 0.0
H188 H 0.25106 0.48408 0.97775 0.0
H189 H 0.20918 0.48759 0.93006 0.0
H190 H 0.23756 0.53731 0.78673 0.0
H191 H 0.27905 0.53394 0.83492 0.0
H192 H 0.44331 0.50709 0.1641 0.0
H193 H 0.41429 0.50849 0.07138 0.0
H194 H 0.38331 0.48607 0.28727 0.0
H195 H 0.3543 0.48812 0.1941 0.0
H196 H 0.21859 0.47692 0.26499 0.0
H197 H 0.20997 0.52418 0.09921 0.0
H198 H 0.25368 0.51932 0.0755 0.0
H199 H 0.26222 0.47225 0.2413 0.0
C200 C 0.03441 0.2389 0.95053 0.0
C201 C 0.03651 0.21631 0.98254 0.0
C202 C 0.0377 0.19462 0.87902 0.0
C203 C 0.03839 0.19447 0.94719 0.0
C204 C 0.03611 0.21729 0.84736 0.0
C205 C 0.03455 0.23907 0.88261 0.0
U206 U 0.04803 0.28998 0.08059 0.0
O207 O 1.01939 0.30843 0.1343 0.0
O208 O 0.04504 0.33019 0.07635 0.0
C209 C 0.02729 0.33041 0.11858 0.0
C210 C 0.02976 0.26212 0.98555 0.0
C211 C 0.02945 0.34812 0.17318 0.0
C212 C 0.05322 0.37286 0.25279 0.0
C213 C 0.05231 0.35697 0.19899 0.0
C214 C 1.00858 0.37128 0.25534 0.0
C215 C 0.03133 0.37992 0.28224 0.0
C216 C 1.00768 0.35568 0.2016 0.0
C217 C 0.09873 0.25001 0.14534 0.0
C218 C 0.11904 0.22045 0.2139 0.0
C219 C 0.09204 0.20673 0.12491 0.0
C220 C 0.08879 0.23098 0.10645 0.0
C221 C 0.10548 0.20144 0.1822 0.0
C222 C 0.11535 0.2447 0.19612 0.0
C223 C 0.08646 0.27354 0.14533 0.0
O224 O 0.02263 0.26046 0.04566 0.0
O225 O 0.04531 0.28056 0.97649 0.0
O226 O 0.08853 0.28715 0.09339 0.0
O227 O 0.06375 0.27179 0.16568 0.0
H228 H 0.03611 0.21539 0.0348 0.0
H229 H 0.03938 0.17736 0.9732 0.0
H230 H 0.03576 0.21816 0.79501 0.0
H231 H 0.03276 0.25611 0.85652 0.0
H232 H 0.07105 0.37906 0.27244 0.0
H233 H 0.06942 0.35136 0.17828 0.0
H234 H 0.99134 0.37659 0.27596 0.0
H235 H 0.98983 0.34921 0.18262 0.0
H236 H 0.13007 0.21681 0.25721 0.0
H237 H 0.08148 0.19257 0.09901 0.0
H238 H 0.0761 0.23493 0.06666 0.0
H239 H 0.12332 0.25922 0.22637 0.0
C240 C 0.30693 0.03226 0.95327 0.0
C241 C 0.3298 0.02736 0.98408 0.0
C242 C 0.35148 0.03395 0.88292 0.0
C243 C 0.35174 0.02815 0.94939 0.0
C244 C 0.32859 0.03956 0.85288 0.0
C245 C 0.30666 0.03865 0.88754 0.0
U246 U 0.26573 0.0385 0.10206 0.0
O247 O 0.22576 0.04416 0.10853 0.0
O248 O 0.24159 1.01045 0.14657 0.0
C249 C 0.22198 0.02412 0.14222 0.0
C250 C 0.28314 0.02903 0.98715 0.0
C251 C 0.2072 0.02636 0.20166 0.0
C252 C 0.18697 0.05097 0.28247 0.0
C253 C 0.2028 0.04916 0.23012 0.0
C254 C 0.18037 1.00715 0.28099 0.0
C255 C 0.17523 0.03003 0.30813 0.0
C256 C 0.19605 1.00538 0.22832 0.0
C257 C 0.29264 0.0662 0.25755 0.0
C258 C 0.28111 0.04924 0.36095 0.0
C259 C 0.31626 0.07729 0.35472 0.0
C260 C 0.31153 0.08008 0.28849 0.0
C261 C 0.30235 0.06023 0.39031 0.0
C262 C 0.27625 0.05223 0.29472 0.0
C263 C 0.29408 0.06163 0.18794 0.0
O264 O 0.2831 0.01334 0.03515 0.0
O265 O 0.2708 0.04884 0.99962 0.0
O266 O 0.2784 0.07298 0.14952 0.0
O267 O 0.29626 0.03843 0.17342 0.0
H268 H 0.33068 0.02235 0.03472 0.0
H269 H 0.3688 0.02344 0.97441 0.0
H270 H 0.32753 0.04457 0.80228 0.0
H271 H 0.28934 0.04252 0.86251 0.0
H272 H 0.18377 0.06885 0.30261 0.0
H273 H 0.21122 0.06571 0.21126 0.0
H274 H 0.17156 0.99065 0.29892 0.0
H275 H 0.19902 0.98757 0.20736 0.0
H276 H 0.26995 0.0362 0.38741 0.0
H277 H 0.33277 0.08602 0.37577 0.0
H278 H 0.32427 0.09101 0.26048 0.0
H279 H 0.26141 0.04151 0.27145 0.0
C280 C 0.49451 0.3158 1.01934 0.0
C281 C 0.50119 0.33705 0.05478 0.0
C282 C 0.50229 0.36106 0.9553 0.0
C283 C 0.50498 0.35942 1.02312 0.0
C284 C 0.4962 0.33964 0.91997 0.0
C285 C 0.49228 0.31734 0.95163 0.0
U286 U 0.50943 0.26315 0.13734 0.0
O287 O 0.48436 0.24373 0.20257 0.0
O288 O 0.50277 0.22337 0.12706 0.0
C289 C 0.4886 0.22219 0.1776 0.0
C290 C 0.48862 0.29219 0.05155 0.0
C291 C 0.49342 0.20231 0.22431 0.0
C292 C 0.48268 0.16161 0.26309 0.0
C293 C 0.47927 0.1806 0.21884 0.0
C294 C 0.51457 0.18571 0.31973 0.0
C295 C 0.50043 0.1638 0.31411 0.0
C296 C 0.51113 0.20478 0.27514 0.0
C297 C 0.56659 0.30135 0.17421 0.0
C298 C 0.59193 0.3341 0.22174 0.0
C299 C 0.57069 0.34019 0.11844 0.0
C300 C 0.56129 0.3162 0.12054 0.0
C301 C 0.58535 0.34975 0.17032 0.0
C302 C 0.58263 0.31014 0.22358 0.0
C303 C 0.55245 0.27856 0.18425 0.0
O304 O 0.502 0.27351 0.03558 0.0
O305 O 0.48423 0.293 0.11374 0.0
O306 O 0.53167 0.28163 0.21411 0.0
O307 O 0.55007 0.26375 0.13414 0.0
H308 H 0.50327 0.33649 0.10701 0.0
H309 H 0.51 0.37546 0.05179 0.0
H310 H 0.49375 0.34024 0.86782 0.0
H311 H 0.48704 0.3013 0.92314 0.0
H312 H 0.47115 0.14526 0.25767 0.0
H313 H 0.46535 0.17838 0.18039 0.0
H314 H 0.52854 0.18799 0.35797 0.0
H315 H 0.52224 0.22143 0.28038 0.0
H316 H 0.60275 0.34081 0.26322 0.0
H317 H 0.56545 0.35159 0.07782 0.0
H318 H 0.54881 0.3097 0.08201 0.0
H319 H 0.58667 0.299 0.26565 0.0
Eu320 Eu 0.02008 0.0257 0.60593 0.0
Eu321 Eu 0.05163 1.0042 0.7274 0.0
C322 C 0.04574 0.0615 0.71461 0.0
C323 C 1.01293 0.06714 0.47064 0.0
C324 C 0.03186 0.08051 0.50349 0.0
C325 C 0.02188 0.08949 0.37249 0.0
C326 C 0.04567 0.09816 0.47141 0.0
C327 C 1.00805 0.07159 0.40485 0.0
C328 C 0.04081 0.10296 0.40567 0.0
C329 C 1.00104 0.04667 0.50426 0.0
O330 O 1.01408 0.01412 0.76335 0.0
O331 O 0.99031 1.01045 0.6707 0.0
C332 C 0.99233 1.01114 0.7343 0.0
O333 O 0.02468 0.98578 0.58125 0.0
O334 O 0.0667 1.00948 0.82565 0.0
O335 O 0.07033 0.97465 0.7784 0.0
O336 O 0.0308 0.97146 0.68391 0.0
C337 C 0.0263 0.96748 0.62191 0.0
O338 O 0.06043 0.03377 0.58648 0.0
O339 O 0.07804 1.00302 0.64458 0.0
O340 O 0.06189 0.04441 0.72585 0.0
O341 O 1.01308 0.02643 0.50149 0.0
O342 O 0.99411 0.05137 0.56286 0.0
O343 O 0.02593 0.05685 0.67795 0.0
C344 C 0.05656 0.97475 0.88455 0.0
C345 C 0.03098 0.97181 0.87425 0.0
C346 C 0.05273 0.95647 0.99062 0.0
C347 C 1.01628 0.96179 0.92175 0.0
C348 C 0.06742 0.96736 0.94334 0.0
C349 C 0.02697 0.9533 0.97986 0.0
C350 C 0.07091 0.98635 0.83347 0.0
C351 C 0.07874 0.01883 0.59685 0.0
H352 H 0.03637 0.07694 0.55393 0.0
H353 H 1.01766 0.09293 0.32186 0.0
H354 H 0.06041 0.10787 0.49801 0.0
H355 H 0.99385 0.06105 0.37847 0.0
H356 H 0.0223 0.97704 0.82886 0.0
H357 H 0.06165 0.94983 0.03446 0.0
H358 H 0.99654 0.96019 0.91207 0.0
H359 H 0.08716 0.9696 0.95216 0.0
Eu360 Eu 0.5465 0.04189 0.72412 0.0
Eu361 Eu 0.51719 1.00613 0.62237 0.0
C362 C 0.54292 0.9853 0.75031 0.0
C363 C 0.59043 0.05031 0.85823 0.0
C364 C 0.60228 0.03009 0.83283 0.0
C365 C 0.60442 0.03838 0.96611 0.0
C366 C 0.61421 0.01371 0.87347 0.0
C367 C 0.5919 0.05461 0.9251 0.0
C368 C 0.61517 0.01725 0.94094 0.0
C369 C 0.57264 0.06319 0.81636 0.0
O370 O 0.48693 0.02654 0.67074 0.0
O371 O 0.50856 0.0348 0.76468 0.0
C372 C 0.4874 0.03243 0.73229 0.0
O373 O 0.52739 0.06919 0.65947 0.0
O374 O 0.49405 0.97322 0.60866 0.0
O375 O 0.5045 0.99449 0.52554 0.0
O376 O 0.51834 0.04321 0.5738 0.0
C377 C 0.52056 0.06541 0.5985 0.0
O378 O 0.57032 0.03962 0.63659 0.0
O379 O 0.55774 1.00206 0.5978 0.0
O380 O 0.52227 0.98519 0.71594 0.0
O381 O 0.57818 0.06498 0.75554 0.0
O382 O 0.54981 0.05591 0.82311 0.0
O383 O 0.55876 1.00348 0.74425 0.0
C384 C 0.46257 0.98211 0.53375 0.0
C385 C 0.45441 1.00573 0.52001 0.0
C386 C 0.41976 0.96817 0.54163 0.0
C387 C 0.4293 1.01054 0.51721 0.0
C388 C 0.44505 0.96332 0.54421 0.0
C389 C 0.41165 0.99195 0.52888 0.0
C390 C 0.48897 0.9783 0.54835 0.0
C391 C 0.57391 0.02048 0.5998 0.0
H392 H 0.60115 0.02607 0.78148 0.0
H393 H 0.60526 0.04224 1.01748 0.0
H394 H 0.62169 0.9977 0.85139 0.0
H395 H 0.58256 0.06992 0.9458 0.0
H396 H 0.46744 0.02077 0.51307 0.0
H397 H 0.40661 0.95346 0.55075 0.0
H398 H 0.42376 0.02891 0.50539 0.0
H399 H 0.45097 0.9451 0.55642 0.0
Eu400 Eu 0.50961 0.53539 0.70891 0.0
Eu401 Eu 0.55378 0.51192 0.62232 0.0
C402 C 0.56494 0.53193 0.76992 0.0
C403 C 0.46921 0.56114 0.84217 0.0
C404 C 0.48764 0.57048 0.88507 0.0
C405 C 0.43825 0.57011 0.9209 0.0
C406 C 0.48127 0.58088 0.9437 0.0
C407 C 0.44463 0.56004 0.8616 0.0
C408 C 0.45633 0.58186 0.96115 0.0
C409 C 0.47488 0.55544 0.77472 0.0
O410 O 0.54404 0.48148 0.69083 0.0
O411 O 0.50956 0.49578 0.74021 0.0
C412 C 0.52554 0.47855 0.73006 0.0
O413 O 0.49141 0.52669 0.61163 0.0
O414 O 0.57456 0.482 0.58407 0.0
O415 O 0.58691 0.51927 0.56637 0.0
O416 O 0.51919 0.50195 0.56242 0.0
C417 C 0.49737 0.51205 0.56426 0.0
O418 O 0.52926 0.56703 0.65907 0.0
O419 O 0.54213 0.54613 0.57142 0.0
O420 O 0.57301 0.52937 0.71079 0.0
O421 O 0.49354 0.56746 0.75073 0.0
O422 O 0.47404 0.53258 0.75703 0.0
O423 O 0.54122 0.53207 0.78141 0.0
C424 C 0.59387 0.4897 0.48552 0.0
C425 C 0.57449 0.4796 0.44695 0.0
C426 C 0.62255 0.48095 0.40084 0.0
C427 C 0.57932 0.46902 0.38738 0.0
C428 C 0.61772 0.49123 0.46106 0.0
C429 C 0.60362 0.46859 0.36471 0.0
C430 C 0.58988 0.49624 0.55333 0.0
C431 C 0.53687 0.56677 0.5993 0.0
H432 H 0.50682 0.57124 0.87147 0.0
H433 H 0.41896 0.56992 0.93338 0.0
H434 H 0.49583 0.58985 0.97258 0.0
H435 H 0.43017 0.5526 0.8294 0.0
H436 H 0.55585 0.4785 0.46465 0.0
H437 H 0.64135 0.48151 0.38432 0.0
H438 H 0.5642 0.45955 0.36181 0.0
H439 H 0.63285 0.49929 0.48992 0.0
Eu440 Eu 0.03995 0.53653 0.61786 0.0
Eu441 Eu 0.02382 0.49241 0.71266 0.0
C442 C 0.08081 0.50665 0.70211 0.0
C443 C 0.07284 0.5662 0.48424 0.0
C444 C 0.08916 0.54677 0.48877 0.0
C445 C 0.08802 0.57584 0.37774 0.0
C446 C 0.10465 0.54177 0.43823 0.0
C447 C 0.07236 0.58081 0.42867 0.0
C448 C 0.10404 0.55601 0.3818 0.0
C449 C 0.05471 0.5691 0.53471 0.0
O450 O 0.03236 0.52569 0.77488 0.0
O451 O 0.02387 0.55615 0.70329 0.0
C452 C 0.02668 0.54845 0.76318 0.0
O453 O 1.00033 0.52629 0.58896 0.0
O454 O 0.03022 0.47169 0.80138 0.0
O455 O 0.99747 0.46398 0.74201 0.0
O456 O 0.98882 0.51262 0.68742 0.0
C457 C 0.9829 0.52028 0.62904 0.0
O458 O 0.05126 0.50189 0.56743 0.0
O459 O 0.02462 0.4745 0.61411 0.0
O460 O 0.06491 0.48816 0.70349 0.0
O461 O 0.03473 0.55566 0.52625 0.0
O462 O 0.0634 0.56808 0.59411 0.0
O463 O 0.07391 0.52814 0.68073 0.0
C464 C 0.99263 0.46917 0.85278 0.0
C465 C 0.98697 0.49391 0.8579 0.0
C466 C 0.96742 0.46042 0.94544 0.0
C467 C 0.97177 0.50192 0.90591 0.0
C468 C 0.98312 0.4524 0.8973 0.0
C469 C 0.96125 0.48523 0.94907 0.0
C470 C 1.00801 0.46192 0.79924 0.0
C471 C 0.03938 0.48063 0.56709 0.0
H472 H 0.08962 0.53511 0.53106 0.0
H473 H 0.0872 0.58709 0.33476 0.0
H474 H 0.11717 0.52672 0.44344 0.0
H475 H 0.05957 0.59566 0.42413 0.0
H476 H 0.99388 0.50708 0.82365 0.0
H477 H 0.9594 0.44719 0.97807 0.0
H478 H 0.96769 0.52118 0.9081 0.0
H479 H 0.98735 0.43321 0.89393 0.0
H480 H 0.16935 1.00102 0.41532 0.0
H481 H 0.13913 0.06382 0.31865 0.0
H482 H 0.10764 0.06665 0.40028 0.0
H483 H 0.08742 0.05038 0.49681 0.0
H484 H 0.11759 0.98764 0.59413 0.0
H485 H 0.15012 0.9858 0.51499 0.0
C486 C 0.15587 0.01532 0.41205 0.0
C487 C 0.15675 0.03216 0.36049 0.0
C488 C 0.13768 0.01688 0.45946 0.0
C489 C 0.13922 0.05075 0.35788 0.0
C490 C 0.12104 0.05231 0.40448 0.0
C491 C 0.1012 0.03639 0.50119 0.0
C492 C 0.09986 0.01914 0.55173 0.0
C493 C 0.11995 0.03538 0.45525 0.0
C494 C 0.11804 1.00122 0.55616 0.0
C495 C 0.13667 1.00008 0.51062 0.0
H496 H 0.50853 0.1654 0.44624 0.0
H497 H 0.50104 0.11512 0.2853 0.0
H498 H 0.50555 0.08071 0.3587 0.0
H499 H 0.51184 0.06459 0.46798 0.0
H500 H 0.5205 0.11429 0.62987 0.0
H501 H 0.51543 0.14902 0.55682 0.0
C502 C 0.5081 0.14693 0.42714 0.0
C503 C 0.50423 0.143 0.36003 0.0
C504 C 0.51085 0.12702 0.46988 0.0
C505 C 0.50352 0.11882 0.33658 0.0
C506 C 0.50624 0.09906 0.37858 0.0
C507 C 0.51252 0.08298 0.48763 0.0
C508 C 0.51649 0.08667 0.5547 0.0
C509 C 0.50982 0.1029 0.44529 0.0
C510 C 0.51744 0.11077 0.57866 0.0
C511 C 0.51458 0.1307 0.53679 0.0
H512 H 0.40854 0.51168 0.35783 0.0
H513 H 0.46354 0.48014 0.23835 0.0
H514 H 0.49327 0.48123 0.32957 0.0
H515 H 0.50425 0.49233 0.44332 0.0
H516 H 0.44867 0.52364 0.56169 0.0
H517 H 0.41877 0.52095 0.4717 0.0
C518 C 0.42689 0.50468 0.35175 0.0
C519 C 0.43364 0.49595 0.29068 0.0
C520 C 0.44397 0.5053 0.40462 0.0
C521 C 0.45778 0.48736 0.28416 0.0
C522 C 0.47483 0.48784 0.33659 0.0
C523 C 0.48553 0.49833 0.44968 0.0
C524 C 0.47892 0.50825 0.50966 0.0
C525 C 0.46823 0.49696 0.39706 0.0
C526 C 0.45452 0.51604 0.51638 0.0
C527 C 0.43729 0.51453 0.46474 0.0
H528 H 0.05905 0.4218 0.30859 0.0
H529 H 1.00457 0.37314 0.39063 0.0
H530 H 1.00285 0.39928 0.48594 0.0
H531 H 1.01556 0.43665 0.54497 0.0
H532 H 0.06958 0.48599 0.46333 0.0
H533 H 0.07281 0.45895 0.36991 0.0
C534 C 0.047 0.41681 0.34763 0.0
C535 C 0.03181 0.39555 0.34187 0.0
C536 C 0.04593 0.43213 0.40261 0.0
C537 C 1.01618 0.38953 0.393 0.0
C538 C 1.01524 0.40445 0.44781 0.0
C539 C 0.02818 0.44148 0.50704 0.0
C540 C 0.04227 0.46345 0.51164 0.0
C541 C 0.02981 0.42593 0.45292 0.0
C542 C 0.05845 0.46928 0.46151 0.0
C543 C 0.06032 0.45379 0.4078 0.0
H544 H 0.88915 1.00715 0.87517 0.0
H545 H 0.93847 1.00414 0.04277 0.0
H546 H 0.97396 1.00482 0.97311 0.0
H547 H 0.99134 1.00819 0.86571 0.0
H548 H 0.94295 1.01037 0.69642 0.0
H549 H 0.90692 1.00867 0.76565 0.0
C550 C 0.90765 1.00671 0.89653 0.0
C551 C 0.9109 1.00556 0.96465 0.0
C552 C 0.92824 1.00723 0.85586 0.0
C553 C 0.93515 1.00466 0.99089 0.0
C554 C 0.95558 1.00527 0.95098 0.0
C555 C 0.97297 1.00807 0.84349 0.0
C556 C 0.97005 1.0094 0.77548 0.0
C557 C 0.95237 1.00678 0.88353 0.0
C558 C 0.94591 1.00936 0.74836 0.0
C559 C 0.92526 1.0084 0.78807 0.0
H560 H 0.57882 0.91365 0.97225 0.0
H561 H 0.50135 0.89293 0.96483 0.0
H562 H 0.49424 0.92124 0.87571 0.0
H563 H 0.50958 0.95304 0.80178 0.0
H564 H 0.58678 0.97416 0.80988 0.0
H565 H 0.59431 0.94506 0.89731 0.0
C566 C 0.56032 0.91542 0.95158 0.0
C567 C 0.54069 0.901 0.97567 0.0
C568 C 0.55626 0.932 0.90046 0.0
C569 C 0.51694 0.9034 0.94707 0.0
C570 C 0.51279 0.91976 0.89619 0.0
C571 C 0.5281 0.95111 0.82222 0.0
C572 C 0.54758 0.96604 0.79967 0.0
C573 C 0.53227 0.93422 0.87256 0.0
C574 C 0.57141 0.96329 0.82709 0.0
C575 C 0.57573 0.94651 0.8769 0.0
H576 H 0.65449 0.53057 0.97538 0.0
H577 H 0.59456 0.53621 0.10739 0.0
H578 H 0.56496 0.53746 1.01639 0.0
H579 H 0.55568 0.53615 0.89916 0.0
H580 H 0.61556 0.53111 0.76679 0.0
H581 H 0.64534 0.53096 0.85776 0.0
C582 C 0.635 0.53238 0.98445 0.0
C583 C 0.62696 0.53308 0.04882 0.0
C584 C 0.61792 0.53328 0.93155 0.0
C585 C 0.60146 0.53512 0.05887 0.0
C586 C 0.58443 0.53603 1.00664 0.0
C587 C 0.57525 0.53519 0.88995 0.0
C588 C 0.5832 0.53363 0.82566 0.0
C589 C 0.5924 0.53495 0.94274 0.0
C590 C 0.60873 0.53237 0.81536 0.0
C591 C 0.62585 0.53221 0.86756 0.0
H592 H 0.02057 0.60228 0.03349 0.0
H593 H 0.02141 0.66615 0.91176 0.0
H594 H 0.02168 0.64015 0.81547 0.0
H595 H 0.02351 0.59888 0.76526 0.0
H596 H 0.02432 0.53568 0.88984 0.0
H597 H 0.02184 0.56171 0.9844 0.0
C598 C 0.02101 0.61063 0.98603 0.0
C599 C 0.02109 0.63629 0.98055 0.0
C600 C 0.02155 0.59557 0.93073 0.0
C601 C 0.02107 0.64652 0.91804 0.0
C602 C 0.02141 0.63162 0.86269 0.0
C603 C 0.02303 0.59081 0.81305 0.0
C604 C 0.02419 0.56521 0.81976 0.0
C605 C 0.02188 0.60606 0.86833 0.0
C606 C 0.02357 0.55522 0.88248 0.0
C607 C 0.02214 0.57014 0.93704 0.0
H608 H 0.09475 0.19784 0.30774 0.0
H609 H 0.10103 0.1542 0.13525 0.0
H610 H 0.08212 0.1191 0.19035 0.0
H611 H 0.06059 0.1022 0.28529 0.0
H612 H 0.053 0.14789 0.45382 0.0
H613 H 0.07603 0.18078 0.40253 0.0
C614 C 0.09283 0.18047 0.28256 0.0
C615 C 0.09954 0.1786 0.21762 0.0
C616 C 0.08133 0.16083 0.31362 0.0
C617 C 0.09608 0.15608 0.18537 0.0
C618 C 0.08513 0.13609 0.21671 0.0
C619 C 0.06396 0.1194 0.31053 0.0
C620 C 0.05507 0.12259 0.37326 0.0
C621 C 0.07701 0.13851 0.2803 0.0
C622 C 0.05985 0.14484 0.40583 0.0
C623 C 0.07296 0.16371 0.3765 0.0
H624 H 0.30838 1.0122 0.40933 0.0
H625 H 0.32486 0.08257 0.49653 0.0
H626 H 0.35833 0.0649 0.5618 0.0
H627 H 0.38859 0.03232 0.57193 0.0
H628 H 0.37468 0.96391 0.47152 0.0
H629 H 0.33409 0.97757 0.4356 0.0
C630 C 0.3185 0.02348 0.44479 0.0
C631 C 0.31445 0.04875 0.44739 0.0
C632 C 0.33862 0.01357 0.47873 0.0
C633 C 0.32785 0.06312 0.49329 0.0
C634 C 0.34715 0.05306 0.53001 0.0
C635 C 0.37649 0.02026 0.54301 0.0
C636 C 0.38497 0.99745 0.52268 0.0
C637 C 0.35372 0.02876 0.51952 0.0
C638 C 0.36876 0.98164 0.4874 0.0
C639 C 0.34559 0.98954 0.46631 0.0
H640 H 0.62686 0.37294 0.22063 0.0
H641 H 0.55476 0.387 0.13597 0.0
H642 H 0.55755 0.42884 0.17557 0.0
H643 H 0.5758 0.45781 0.25496 0.0
H644 H 0.6447 0.44073 0.3534 0.0
H645 H 0.64813 0.40456 0.28666 0.0
C646 C 0.61191 0.38527 0.20998 0.0
C647 C 0.59037 0.37651 0.17698 0.0
C648 C 0.61292 0.40892 0.23626 0.0
C649 C 0.57158 0.39304 0.16146 0.0
C650 C 0.573 0.417 0.18483 0.0
C651 C 0.59175 0.44636 0.2613 0.0
C652 C 0.60947 0.45171 0.31087 0.0
C653 C 0.59286 0.42459 0.22566 0.0
C654 C 0.63058 0.43722 0.31618 0.0
C655 C 0.63245 0.4162 0.27846 0.0
H656 H 0.19234 0.54604 0.19552 0.0
H657 H 0.17435 0.46965 0.22263 0.0
H658 H 0.13697 0.48034 0.27886 0.0
H659 H 0.11286 0.5113 0.3326 0.0
H660 H 0.13262 0.58764 0.31231 0.0
H661 H 0.16541 0.57715 0.23906 0.0
C662 C 0.17984 0.53175 0.21211 0.0
C663 C 0.18608 0.50711 0.2055 0.0
C664 C 0.15886 0.53805 0.24596 0.0
C665 C 0.16996 0.48874 0.22786 0.0
C666 C 0.14866 0.49485 0.26003 0.0
C667 C 0.12424 0.52565 0.31165 0.0
C668 C 0.1207 0.55016 0.32872 0.0
C669 C 0.14349 0.51943 0.27149 0.0
C670 C 0.13505 0.56863 0.29997 0.0
C671 C 0.15391 0.56262 0.25853 0.0
H672 H 0.98427 0.88548 0.19602 0.0
H673 H 0.94759 0.8533 0.02657 0.0
H674 H 0.96012 0.88802 0.96254 0.0
H675 H 0.9896 0.9213 0.94826 0.0
H676 H 0.02991 0.95241 0.11324 0.0
H677 H 1.00897 0.92344 0.18442 0.0
C678 C 0.97876 0.88616 0.14523 0.0
C679 C 0.96573 0.86617 0.11613 0.0
C680 C 0.98757 0.90546 0.10706 0.0
C681 C 0.9577 0.86809 0.05097 0.0
C682 C 0.96527 0.88786 1.01361 0.0
C683 C 0.99331 0.92248 1.0 0.0
C684 C 1.01164 0.93884 0.02511 0.0
C685 C 0.98149 0.90571 0.04023 0.0
C686 C 1.01635 0.9396 0.09234 0.0
C687 C 1.00425 0.92316 0.13312 0.0
H688 H 0.66029 0.94842 0.15774 0.0
H689 H 0.70693 0.93063 0.99872 0.0
H690 H 0.68211 0.955 0.92652 0.0
H691 H 0.6531 0.98732 0.91278 0.0
H692 H 0.60412 1.0048 0.06685 0.0
H693 H 0.62539 0.97601 0.13759 0.0
C694 C 0.66474 0.94947 0.10703 0.0
C695 C 0.68594 0.93796 0.08477 0.0
C696 C 0.65083 0.96446 0.06532 0.0
C697 C 0.69085 0.93901 1.01821 0.0
C698 C 0.67689 0.95344 0.97659 0.0
C699 C 0.64621 0.98446 0.96087 0.0
C700 C 0.62706 0.99874 0.98398 0.0
C701 C 0.65772 0.96719 1.00041 0.0
C702 C 0.61933 0.99485 0.04776 0.0
C703 C 0.63123 0.97803 0.08816 0.0
H704 H 0.42969 0.67683 0.10482 0.0
H705 H 0.49922 0.66164 0.20233 0.0
H706 H 0.49741 0.62019 0.15977 0.0
H707 H 0.4812 0.59191 0.076 0.0
H708 H 0.41544 0.61039 0.96504 0.0
H709 H 0.41034 0.64606 0.03256 0.0
C710 C 0.4443 0.66436 0.1175 0.0
C711 C 0.46488 0.67269 0.15522 0.0
C712 C 0.44397 0.64098 0.08959 0.0
C713 C 0.48315 0.65594 0.17323 0.0
C714 C 0.4823 0.63221 0.1482 0.0
C715 C 0.46558 0.60357 0.06694 0.0
C716 C 0.44924 0.59869 1.01395 0.0
C717 C 0.46361 0.62509 0.10322 0.0
C718 C 0.42848 0.61348 1.00504 0.0
C719 C 0.42568 0.63422 0.04324 0.0
H720 H 0.88716 0.5144 0.16474 0.0
H721 H 0.85364 0.55066 0.99972 0.0
H722 H 0.88713 0.53829 0.93296 0.0
H723 H 0.92347 0.51417 0.91789 0.0
H724 H 0.95642 0.47538 0.0785 0.0
H725 H 0.92473 0.49069 0.14983 0.0
C726 C 0.88712 0.51959 0.11419 0.0
C727 C 0.86773 0.53351 0.08774 0.0
C728 C 0.90595 0.51144 0.07481 0.0
C729 C 0.86842 0.54046 1.0223 0.0
C730 C 0.88741 0.53305 0.98351 0.0
C731 C 0.92395 0.50931 0.96876 0.0
C732 C 0.94228 0.49383 0.99316 0.0
C733 C 0.90588 0.51812 1.00889 0.0
C734 C 0.94234 0.48718 0.05869 0.0
C735 C 0.92437 0.49606 0.09941 0.0
H736 H 0.06653 0.15427 0.89567 0.0
H737 H 1.0072 0.1824 0.77606 0.0
H738 H 1.00503 0.1445 0.71358 0.0
H739 H 1.01911 0.10279 0.69408 0.0
H740 H 0.07895 0.07463 0.81197 0.0
H741 H 0.08181 0.11288 0.87314 0.0
C742 C 0.05311 0.15207 0.85599 0.0
C743 C 0.03707 0.1713 0.84075 0.0
C744 C 0.05205 0.13013 0.81962 0.0
C745 C 1.01997 0.16813 0.78861 0.0
C746 C 1.01863 0.14635 0.75291 0.0
C747 C 0.03289 0.10502 0.73289 0.0
C748 C 0.04873 0.08565 0.74821 0.0
C749 C 0.03449 0.12718 0.76803 0.0
C750 C 0.06653 0.08911 0.79866 0.0
C751 C 0.06812 0.11102 0.83402 0.0
H752 H 0.39892 0.04755 0.92189 0.0
H753 H 0.35679 0.01871 0.75715 0.0
H754 H 0.39439 0.01682 0.69541 0.0
H755 H 0.43975 0.02201 0.68865 0.0
H756 H 0.48182 0.04941 0.85519 0.0
H757 H 0.44398 0.05283 0.91519 0.0
C758 C 0.39787 0.04066 0.87268 0.0
C759 C 0.37474 0.03335 0.84473 0.0
C760 C 0.41974 0.03926 0.83738 0.0
C761 C 0.37405 0.02489 0.78017 0.0
C762 C 0.39567 0.02361 0.74471 0.0
C763 C 0.44066 0.02887 0.73794 0.0
C764 C 0.46381 0.03542 0.76707 0.0
C765 C 0.41868 0.03063 0.77283 0.0
C766 C 0.46444 0.04416 0.83123 0.0
C767 C 0.44272 0.04613 0.8658 0.0
H768 H 0.52641 0.37113 0.84372 0.0
H769 H 0.484 0.40513 0.99096 0.0
H770 H 0.4869 0.44419 0.93428 0.0
H771 H 0.50113 0.46879 0.84181 0.0
H772 H 0.54459 0.43479 0.69653 0.0
H773 H 0.54138 0.39581 0.75291 0.0
C774 C 0.51771 0.38706 0.86329 0.0
C775 C 0.50496 0.38508 0.92158 0.0
C776 C 0.51953 0.40954 0.83051 0.0
C777 C 0.49414 0.40609 0.94663 0.0
C778 C 0.49566 0.42844 0.91396 0.0
C779 C 0.50978 0.45283 0.82229 0.0
C780 C 0.52297 0.4548 0.76464 0.0
C781 C 0.50822 0.4304 0.85567 0.0
C782 C 0.53435 0.43392 0.74073 0.0
C783 C 0.53252 0.41155 0.77297 0.0
H784 H 0.18377 0.47719 0.83203 0.0
H785 H 0.19826 0.55453 0.81039 0.0
H786 H 0.15746 0.55928 0.75953 0.0
H787 H 0.11726 0.54177 0.72176 0.0
H788 H 0.10228 0.46455 0.74473 0.0
H789 H 0.14336 0.45962 0.7942 0.0
C790 C 0.17795 0.49513 0.8167 0.0
C791 C 0.19434 0.51543 0.82503 0.0
C792 C 0.15426 0.49781 0.78731 0.0
C793 C 0.18637 0.53846 0.80394 0.0
C794 C 0.16291 0.54125 0.77499 0.0
C795 C 0.12297 0.5238 0.73718 0.0
C796 C 0.1065 0.50358 0.72914 0.0
C797 C 0.14668 0.52107 0.76622 0.0
C798 C 0.1144 0.4805 0.74999 0.0
C799 C 0.13796 0.47764 0.77855 0.0
H800 H 0.03234 0.8545 0.55481 0.0
H801 H 1.00843 0.88036 0.36691 0.0
H802 H 1.00646 0.92195 0.40951 0.0
H803 H 1.01303 0.95148 0.49935 0.0
H804 H 0.03614 0.92534 0.68786 0.0
H805 H 0.03685 0.88367 0.64593 0.0
C806 C 0.02672 0.86924 0.52314 0.0
C807 C 0.02065 0.86418 0.45751 0.0
C808 C 0.02548 0.89321 0.54814 0.0
C809 C 1.01304 0.88356 0.41761 0.0
C810 C 1.01202 0.90743 0.44193 0.0
C811 C 1.01806 0.93668 0.53149 0.0
C812 C 0.0246 0.94179 0.59687 0.0
C813 C 1.01837 0.91255 0.50703 0.0
C814 C 0.03096 0.92217 0.63749 0.0
C815 C 0.03147 0.89824 0.61344 0.0
H816 H 0.66949 0.04372 0.43831 0.0
H817 H 0.66524 0.96602 0.40449 0.0
H818 H 0.62797 0.96285 0.46878 0.0
H819 H 0.59616 0.98242 0.5357 0.0
H820 H 0.6021 0.06023 0.56957 0.0
H821 H 0.63854 0.06295 0.50418 0.0
C822 C 0.66033 0.02608 0.44435 0.0
C823 C 0.67028 1.00518 0.416 0.0
C824 C 0.63897 0.02436 0.48176 0.0
C825 C 0.65825 0.98244 0.4259 0.0
C826 C 0.63679 0.98063 0.46254 0.0
C827 C 0.60539 0.99996 0.5286 0.0
C828 C 0.59615 0.02105 0.55812 0.0
C829 C 0.6269 1.00148 0.49092 0.0
C830 C 0.60863 0.04358 0.54828 0.0
C831 C 0.62958 0.04523 0.51055 0.0
H832 H 0.55636 0.65312 0.40232 0.0
H833 H 0.5214 0.69451 0.55038 0.0
H834 H 0.5164 0.65753 0.61522 0.0
H835 H 0.52248 0.61317 0.63088 0.0
H836 H 0.55757 0.57235 0.48158 0.0
H837 H 0.56219 0.60922 0.41737 0.0
C838 C 0.54779 0.65415 0.44898 0.0
C839 C 0.53933 0.67672 0.47119 0.0
C840 C 0.54505 0.63279 0.48626 0.0
C841 C 0.52787 0.67743 0.53144 0.0
C842 C 0.52514 0.65627 0.56888 0.0
C843 C 0.5312 0.61235 0.58441 0.0
C844 C 0.53968 0.58984 0.56155 0.0
C845 C 0.53373 0.6338 0.54695 0.0
C846 C 0.55079 0.58926 0.50081 0.0
C847 C 0.55349 0.61041 0.46378 0.0
H848 H 0.86636 0.5193 0.58139 0.0
H849 H 0.88846 0.52785 0.38354 0.0
H850 H 0.93175 0.52901 0.41924 0.0
H851 H 0.96379 0.52659 0.5061 0.0
H852 H 0.94189 0.51594 0.70323 0.0
H853 H 0.8984 0.51626 0.66811 0.0
C854 C 0.88056 0.52116 0.54576 0.0
C855 C 0.87374 0.52359 0.47954 0.0
C856 C 0.90569 0.5214 0.56653 0.0
C857 C 0.89276 0.52641 0.43483 0.0
C858 C 0.91769 0.52688 0.45519 0.0
C859 C 0.94954 0.52447 0.54156 0.0
C860 C 0.95632 0.52133 0.60745 0.0
C861 C 0.92442 0.52435 0.52088 0.0
C862 C 0.93741 0.5184 0.65229 0.0
C863 C 0.91244 0.51857 0.63219 0.0
loop_
_geom_bond_atom_site_label_1
_geom_bond_atom_site_label_2
_geom_bond_distance
_geom_bond_site_symmetry_2
_ccdc_geom_bond_type
C0 C1 1.264 . S
C0 C5 1.479 . S
C0 C10 1.465 . S
C1 C0 1.264 . S
C1 C3 1.339 . S
C1 H28 0.931 . S
C2 C3 1.395 . S
C2 C4 1.320 . S
C3 C1 1.339 . S
C3 C2 1.395 . S
C3 H29 0.929 . S
C4 C2 1.320 . S
C4 C5 1.405 . S
C4 H30 0.930 . S
C5 C0 1.479 . S
C5 C4 1.405 . S
C5 H31 0.931 . S
U6 O7 2.454 . S
U6 O8 2.458 . S
U6 C9 2.984 . S
U6 C10 2.847 . S
U6 C23 2.882 . S
U6 O24 2.441 . S
U6 O25 2.420 . S
U6 O26 2.455 . S
U6 O27 2.449 . S
O7 U6 2.454 . S
O7 C9 1.353 . S
O8 U6 2.458 . S
O8 C9 1.286 . S
C9 U6 2.984 . S
C9 O7 1.353 . S
C9 O8 1.286 . S
C9 C11 1.363 . S
C10 C0 1.465 . S
C10 U6 2.847 . S
C10 O24 1.249 . S
C10 O25 1.202 . S
C11 C9 1.363 . S
C11 C13 1.408 . S
C11 C16 1.342 . S
C12 C13 1.310 . S
C12 C15 1.461 . S
C12 H32 0.932 . S
C13 C11 1.408 . S
C13 C12 1.310 . S
C13 H33 0.930 . S
C14 C15 1.474 . S
C14 C16 1.285 . S
C14 H34 0.929 . S
C15 C12 1.461 . S
C15 C14 1.474 . S
C16 C11 1.342 . S
C16 C14 1.285 . S
C16 H35 0.930 . S
C17 C20 1.424 . S
C17 C22 1.245 . S
C17 C23 1.428 . S
C18 C21 1.260 . S
C18 C22 1.477 1_556 S
C18 H36 0.932 . S
C19 C20 1.384 . S
C19 C21 1.479 1_554 S
C19 H37 0.929 . S
C20 C17 1.424 . S
C20 C19 1.384 . S
C20 H38 0.928 . S
C21 C18 1.260 . S
C21 C19 1.479 1_556 S
C22 C17 1.245 . S
C22 C18 1.477 1_554 S
C22 H39 0.932 . S
C23 U6 2.882 . S
C23 C17 1.428 . S
C23 O26 1.301 . S
C23 O27 1.282 . S
O24 U6 2.441 . S
O24 C10 1.249 . S
O25 U6 2.420 . S
O25 C10 1.202 . S
O26 U6 2.455 . S
O26 C23 1.301 . S
O27 U6 2.449 . S
O27 C23 1.282 . S
H28 C1 0.931 . S
H29 C3 0.929 . S
H30 C4 0.930 . S
H31 C5 0.931 . S
H32 C12 0.932 . S
H33 C13 0.930 . S
H34 C14 0.929 . S
H35 C16 0.930 . S
H36 C18 0.932 . S
H37 C19 0.929 . S
H38 C20 0.928 . S
H39 C22 0.932 . S
C40 C41 1.264 . S
C40 C45 1.479 . S
C40 C50 1.465 . S
C41 C40 1.264 . S
C41 C43 1.339 . S
C41 H68 0.931 . S
C42 C43 1.395 . S
C42 C44 1.320 . S
C43 C41 1.339 . S
C43 C42 1.395 . S
C43 H69 0.929 . S
C44 C42 1.320 . S
C44 C45 1.405 . S
C44 H70 0.930 . S
C45 C40 1.479 . S
C45 C44 1.405 . S
C45 H71 0.931 . S
U46 O47 2.454 . S
U46 O48 2.458 . S
U46 C49 2.984 . S
U46 C50 2.847 . S
U46 C63 2.882 . S
U46 O64 2.441 . S
U46 O65 2.420 . S
U46 O66 2.455 . S
U46 O67 2.449 . S
O47 U46 2.454 . S
O47 C49 1.353 . S
O48 U46 2.458 . S
O48 C49 1.286 . S
C49 U46 2.984 . S
C49 O47 1.353 . S
C49 O48 1.286 . S
C49 C51 1.363 . S
C50 C40 1.465 . S
C50 U46 2.847 . S
C50 O64 1.249 . S
C50 O65 1.202 . S
C51 C49 1.363 . S
C51 C53 1.408 . S
C51 C56 1.342 . S
C52 C53 1.310 . S
C52 C55 1.461 . S
C52 H72 0.932 . S
C53 C51 1.408 . S
C53 C52 1.310 . S
C53 H73 0.930 . S
C54 C55 1.474 . S
C54 C56 1.285 . S
C54 H74 0.929 . S
C55 C52 1.461 . S
C55 C54 1.474 . S
C56 C51 1.342 . S
C56 C54 1.285 . S
C56 H75 0.930 . S
C57 C60 1.424 . S
C57 C62 1.245 . S
C57 C63 1.428 . S
C58 C61 1.260 . S
C58 C62 1.477 . S
C58 H76 0.932 1_554 S
C59 C60 1.384 . S
C59 C61 1.479 . S
C59 H77 0.929 . S
C60 C57 1.424 . S
C60 C59 1.384 . S
C60 H78 0.928 . S
C61 C58 1.260 . S
C61 C59 1.479 . S
C62 C57 1.245 . S
C62 C58 1.477 . S
C62 H79 0.932 . S
C63 U46 2.882 . S
C63 C57 1.428 . S
C63 O66 1.301 . S
C63 O67 1.282 . S
O64 U46 2.441 . S
O64 C50 1.249 . S
O65 U46 2.420 . S
O65 C50 1.202 . S
O66 U46 2.455 . S
O66 C63 1.301 . S
O67 U46 2.449 . S
O67 C63 1.282 . S
H68 C41 0.931 . S
H69 C43 0.929 . S
H70 C44 0.930 . S
H71 C45 0.931 . S
H72 C52 0.932 . S
H73 C53 0.930 . S
H74 C54 0.929 . S
H75 C56 0.930 . S
H76 C58 0.932 1_556 S
H77 C59 0.929 . S
H78 C60 0.928 . S
H79 C62 0.932 . S
C80 C81 1.264 . S
C80 C85 1.479 . S
C80 C90 1.465 . S
C81 C80 1.264 . S
C81 C83 1.339 . S
C81 H108 0.931 . S
C82 C83 1.395 . S
C82 C84 1.320 . S
C83 C81 1.339 . S
C83 C82 1.395 . S
C83 H109 0.929 . S
C84 C82 1.320 . S
C84 C85 1.405 . S
C84 H110 0.930 . S
C85 C80 1.479 . S
C85 C84 1.405 . S
C85 H111 0.931 . S
U86 O87 2.454 . S
U86 O88 2.458 . S
U86 C89 2.984 . S
U86 C90 2.847 . S
U86 C103 2.882 . S
U86 O104 2.441 . S
U86 O105 2.420 . S
U86 O106 2.455 . S
U86 O107 2.449 . S
O87 U86 2.454 . S
O87 C89 1.353 . S
O88 U86 2.458 . S
O88 C89 1.286 . S
C89 U86 2.984 . S
C89 O87 1.353 . S
C89 O88 1.286 . S
C89 C91 1.363 . S
C90 C80 1.465 . S
C90 U86 2.847 . S
C90 O104 1.249 . S
C90 O105 1.202 . S
C91 C89 1.363 . S
C91 C93 1.408 . S
C91 C96 1.342 . S
C92 C93 1.310 . S
C92 C95 1.461 . S
C92 H112 0.932 . S
C93 C91 1.408 . S
C93 C92 1.310 . S
C93 H113 0.930 . S
C94 C95 1.474 . S
C94 C96 1.285 . S
C94 H114 0.929 . S
C95 C92 1.461 . S
C95 C94 1.474 . S
C96 C91 1.342 . S
C96 C94 1.285 . S
C96 H115 0.930 . S
C97 C100 1.424 . S
C97 C102 1.245 . S
C97 C103 1.428 . S
C98 C101 1.260 . S
C98 C102 1.477 . S
C98 H116 0.932 1_554 S
C99 C100 1.384 . S
C99 C101 1.479 . S
C99 H117 0.929 . S
C100 C97 1.424 . S
C100 C99 1.384 . S
C100 H118 0.928 . S
C101 C98 1.260 . S
C101 C99 1.479 . S
C102 C97 1.245 . S
C102 C98 1.477 . S
C102 H119 0.932 . S
C103 U86 2.882 . S
C103 C97 1.428 . S
C103 O106 1.301 . S
C103 O107 1.282 . S
O104 U86 2.441 . S
O104 C90 1.249 . S
O105 U86 2.420 . S
O105 C90 1.202 . S
O106 U86 2.455 . S
O106 C103 1.301 . S
O107 U86 2.449 . S
O107 C103 1.282 . S
H108 C81 0.931 . S
H109 C83 0.929 . S
H110 C84 0.930 . S
H111 C85 0.931 . S
H112 C92 0.932 . S
H113 C93 0.930 . S
H114 C94 0.929 . S
H115 C96 0.930 . S
H116 C98 0.932 1_556 S
H117 C99 0.929 . S
H118 C100 0.928 . S
H119 C102 0.932 . S
C120 C121 1.264 . S
C120 C125 1.479 . S
C120 C130 1.465 . S
C121 C120 1.264 . S
C121 C123 1.339 . S
C121 H148 0.931 . S
C122 C123 1.395 . S
C122 C124 1.320 . S
C123 C121 1.339 . S
C123 C122 1.395 . S
C123 H149 0.929 . S
C124 C122 1.320 . S
C124 C125 1.405 . S
C124 H150 0.930 . S
C125 C120 1.479 . S
C125 C124 1.405 . S
C125 H151 0.931 . S
U126 O127 2.454 . S
U126 O128 2.458 . S
U126 C129 2.984 . S
U126 C130 2.847 . S
U126 C143 2.882 . S
U126 O144 2.441 . S
U126 O145 2.420 . S
U126 O146 2.455 . S
U126 O147 2.449 . S
O127 U126 2.454 . S
O127 C129 1.353 . S
O128 U126 2.458 . S
O128 C129 1.286 . S
C129 U126 2.984 . S
C129 O127 1.353 . S
C129 O128 1.286 . S
C129 C131 1.363 . S
C130 C120 1.465 . S
C130 U126 2.847 . S
C130 O144 1.249 . S
C130 O145 1.202 . S
C131 C129 1.363 . S
C131 C133 1.408 . S
C131 C136 1.342 . S
C132 C133 1.310 . S
C132 C135 1.461 . S
C132 H152 0.932 . S
C133 C131 1.408 . S
C133 C132 1.310 . S
C133 H153 0.930 . S
C134 C135 1.474 . S
C134 C136 1.285 . S
C134 H154 0.929 . S
C135 C132 1.461 . S
C135 C134 1.474 . S
C136 C131 1.342 . S
C136 C134 1.285 . S
C136 H155 0.930 . S
C137 C140 1.424 . S
C137 C142 1.245 . S
C137 C143 1.428 . S
C138 C141 1.261 . S
C138 C142 1.477 1_556 S
C138 H156 0.932 . S
C139 C140 1.384 . S
C139 C141 1.473 1_554 S
C139 H157 0.929 . S
C140 C137 1.424 . S
C140 C139 1.384 . S
C140 H158 0.928 . S
C141 C138 1.261 . S
C141 C139 1.473 1_556 S
C142 C137 1.245 . S
C142 C138 1.477 1_554 S
C142 H159 0.932 . S
C143 U126 2.882 . S
C143 C137 1.428 . S
C143 O146 1.301 . S
C143 O147 1.282 . S
O144 U126 2.441 . S
O144 C130 1.249 . S
O145 U126 2.420 . S
O145 C130 1.202 . S
O146 U126 2.455 . S
O146 C143 1.301 . S
O147 U126 2.449 . S
O147 C143 1.282 . S
H148 C121 0.931 . S
H149 C123 0.929 . S
H150 C124 0.930 . S
H151 C125 0.931 . S
H152 C132 0.932 . S
H153 C133 0.930 . S
H154 C134 0.929 . S
H155 C136 0.930 . S
H156 C138 0.932 . S
H157 C139 0.929 . S
H158 C140 0.928 . S
H159 C142 0.932 . S
C160 C161 1.264 . S
C160 C165 1.479 . S
C160 C170 1.465 . S
C161 C160 1.264 . S
C161 C163 1.339 . S
C161 H188 0.931 . S
C162 C163 1.395 . S
C162 C164 1.320 . S
C163 C161 1.339 . S
C163 C162 1.395 . S
C163 H189 0.929 . S
C164 C162 1.320 . S
C164 C165 1.405 . S
C164 H190 0.930 . S
C165 C160 1.479 . S
C165 C164 1.405 . S
C165 H191 0.931 . S
U166 O167 2.454 . S
U166 O168 2.458 . S
U166 C169 2.984 . S
U166 C170 2.847 1_554 S
U166 C183 2.882 . S
U166 O184 2.441 1_554 S
U166 O185 2.420 1_554 S
U166 O186 2.455 . S
U166 O187 2.449 . S
O167 U166 2.454 . S
O167 C169 1.353 . S
O168 U166 2.458 . S
O168 C169 1.286 . S
C169 U166 2.984 . S
C169 O167 1.353 . S
C169 O168 1.286 . S
C169 C171 1.363 . S
C170 C160 1.465 . S
C170 U166 2.847 1_556 S
C170 O184 1.249 . S
C170 O185 1.202 . S
C171 C169 1.363 . S
C171 C173 1.408 . S
C171 C176 1.342 . S
C172 C173 1.310 . S
C172 C175 1.461 . S
C172 H192 0.932 . S
C173 C171 1.408 . S
C173 C172 1.310 . S
C173 H193 0.930 . S
C174 C175 1.474 . S
C174 C176 1.285 . S
C174 H194 0.929 . S
C175 C172 1.461 . S
C175 C174 1.474 . S
C176 C171 1.342 . S
C176 C174 1.285 . S
C176 H195 0.930 . S
C177 C180 1.424 . S
C177 C182 1.245 . S
C177 C183 1.428 . S
C178 C181 1.260 . S
C178 C182 1.477 . S
C178 H196 0.932 . S
C179 C180 1.384 . S
C179 C181 1.479 . S
C179 H197 0.929 . S
C180 C177 1.424 . S
C180 C179 1.384 . S
C180 H198 0.928 . S
C181 C178 1.260 . S
C181 C179 1.479 . S
C182 C177 1.245 . S
C182 C178 1.477 . S
C182 H199 0.932 . S
C183 U166 2.882 . S
C183 C177 1.428 . S
C183 O186 1.301 . S
C183 O187 1.282 . S
O184 U166 2.441 1_556 S
O184 C170 1.249 . S
O185 U166 2.420 1_556 S
O185 C170 1.202 . S
O186 U166 2.455 . S
O186 C183 1.301 . S
O187 U166 2.449 . S
O187 C183 1.282 . S
H188 C161 0.931 . S
H189 C163 0.929 . S
H190 C164 0.930 . S
H191 C165 0.931 . S
H192 C172 0.932 . S
H193 C173 0.930 . S
H194 C174 0.929 . S
H195 C176 0.930 . S
H196 C178 0.932 . S
H197 C179 0.929 . S
H198 C180 0.928 . S
H199 C182 0.932 . S
C200 C201 1.264 . S
C200 C205 1.479 . S
C200 C210 1.465 . S
C201 C200 1.264 . S
C201 C203 1.339 . S
C201 H228 0.931 . S
C202 C203 1.395 . S
C202 C204 1.320 . S
C203 C201 1.339 . S
C203 C202 1.395 . S
C203 H229 0.929 . S
C204 C202 1.320 . S
C204 C205 1.405 . S
C204 H230 0.930 . S
C205 C200 1.479 . S
C205 C204 1.405 . S
C205 H231 0.931 . S
U206 O207 2.454 . S
U206 O208 2.458 . S
U206 C209 2.984 . S
U206 C210 2.847 1_554 S
U206 C223 2.882 . S
U206 O224 2.441 1_554 S
U206 O225 2.420 1_554 S
U206 O226 2.455 . S
U206 O227 2.449 . S
O207 U206 2.454 . S
O207 C209 1.353 . S
O208 U206 2.458 . S
O208 C209 1.286 . S
C209 U206 2.984 . S
C209 O207 1.353 . S
C209 O208 1.286 . S
C209 C211 1.363 . S
C210 C200 1.465 . S
C210 U206 2.847 1_556 S
C210 O224 1.249 . S
C210 O225 1.202 . S
C211 C209 1.363 . S
C211 C213 1.408 . S
C211 C216 1.342 . S
C212 C213 1.310 . S
C212 C215 1.461 . S
C212 H232 0.932 . S
C213 C211 1.408 . S
C213 C212 1.310 . S
C213 H233 0.930 1_554 S
C214 C215 1.474 . S
C214 C216 1.285 . S
C214 H234 0.929 . S
C215 C212 1.461 . S
C215 C214 1.474 . S
C216 C211 1.342 . S
C216 C214 1.285 . S
C216 H235 0.930 . S
C217 C220 1.424 . S
C217 C222 1.245 . S
C217 C223 1.428 . S
C218 C221 1.260 . S
C218 C222 1.477 . S
C218 H236 0.932 . S
C219 C220 1.384 . S
C219 C221 1.479 . S
C219 H237 0.929 . S
C220 C217 1.424 . S
C220 C219 1.384 . S
C220 H238 0.928 . S
C221 C218 1.260 . S
C221 C219 1.479 . S
C222 C217 1.245 . S
C222 C218 1.477 . S
C222 H239 0.932 . S
C223 U206 2.882 . S
C223 C217 1.428 . S
C223 O226 1.301 . S
C223 O227 1.282 . S
O224 U206 2.441 1_556 S
O224 C210 1.249 . S
O225 U206 2.420 1_556 S
O225 C210 1.202 . S
O226 U206 2.455 . S
O226 C223 1.301 . S
O227 U206 2.449 . S
O227 C223 1.282 . S
H228 C201 0.931 . S
H229 C203 0.929 . S
H230 C204 0.930 . S
H231 C205 0.931 . S
H232 C212 0.932 . S
H233 C213 0.930 1_556 S
H234 C214 0.929 . S
H235 C216 0.930 . S
H236 C218 0.932 . S
H237 C219 0.929 . S
H238 C220 0.928 . S
H239 C222 0.932 . S
C240 C241 1.264 . S
C240 C245 1.479 . S
C240 C250 1.465 . S
C241 C240 1.264 . S
C241 C243 1.339 . S
C241 H268 0.931 . S
C242 C243 1.395 . S
C242 C244 1.320 . S
C243 C241 1.339 . S
C243 C242 1.395 . S
C243 H269 0.929 . S
C244 C242 1.320 . S
C244 C245 1.405 . S
C244 H270 0.930 . S
C245 C240 1.479 . S
C245 C244 1.405 . S
C245 H271 0.931 . S
U246 O247 2.454 1_554 S
U246 O248 2.458 . S
U246 C249 2.984 . S
U246 C250 2.847 1_554 S
U246 C263 2.882 . S
U246 O264 2.441 1_554 S
U246 O265 2.420 1_554 S
U246 O266 2.455 . S
U246 O267 2.449 . S
O247 U246 2.454 1_556 S
O247 C249 1.353 1_556 S
O248 U246 2.458 . S
O248 C249 1.286 . S
C249 U246 2.984 . S
C249 O247 1.353 1_554 S
C249 O248 1.286 . S
C249 C251 1.363 . S
C250 C240 1.465 . S
C250 U246 2.847 1_556 S
C250 O264 1.249 . S
C250 O265 1.202 . S
C251 C249 1.363 . S
C251 C253 1.408 . S
C251 C256 1.342 . S
C252 C253 1.310 . S
C252 C255 1.461 . S
C252 H272 0.932 1_554 S
C253 C251 1.408 . S
C253 C252 1.310 . S
C253 H273 0.930 1_554 S
C254 C255 1.474 . S
C254 C256 1.285 . S
C254 H274 0.929 . S
C255 C252 1.461 . S
C255 C254 1.474 . S
C256 C251 1.342 . S
C256 C254 1.285 . S
C256 H275 0.930 . S
C257 C260 1.424 . S
C257 C262 1.245 . S
C257 C263 1.428 . S
C258 C261 1.260 . S
C258 C262 1.477 . S
C258 H276 0.932 . S
C259 C260 1.384 . S
C259 C261 1.479 . S
C259 H277 0.929 . S
C260 C257 1.424 . S
C260 C259 1.384 . S
C260 H278 0.928 . S
C261 C258 1.260 . S
C261 C259 1.479 . S
C262 C257 1.245 . S
C262 C258 1.477 . S
C262 H279 0.932 . S
C263 U246 2.882 . S
C263 C257 1.428 . S
C263 O266 1.301 . S
C263 O267 1.282 . S
O264 U246 2.441 1_556 S
O264 C250 1.249 . S
O265 U246 2.420 1_556 S
O265 C250 1.202 . S
O266 U246 2.455 . S
O266 C263 1.301 . S
O267 U246 2.449 . S
O267 C263 1.282 . S
H268 C241 0.931 . S
H269 C243 0.929 . S
H270 C244 0.930 . S
H271 C245 0.931 . S
H272 C252 0.932 1_556 S
H273 C253 0.930 1_556 S
H274 C254 0.929 . S
H275 C256 0.930 . S
H276 C258 0.932 . S
H277 C259 0.929 . S
H278 C260 0.928 . S
H279 C262 0.932 . S
C280 C281 1.264 . S
C280 C285 1.479 . S
C280 C290 1.465 . S
C281 C280 1.264 . S
C281 C283 1.339 . S
C281 H308 0.931 . S
C282 C283 1.395 . S
C282 C284 1.320 . S
C283 C281 1.339 . S
C283 C282 1.395 . S
C283 H309 0.929 . S
C284 C282 1.320 . S
C284 C285 1.405 . S
C284 H310 0.930 . S
C285 C280 1.479 . S
C285 C284 1.405 . S
C285 H311 0.931 . S
U286 O287 2.454 . S
U286 O288 2.458 . S
U286 C289 2.984 . S
U286 C290 2.847 1_554 S
U286 C303 2.882 . S
U286 O304 2.441 1_554 S
U286 O305 2.420 1_554 S
U286 O306 2.455 . S
U286 O307 2.449 . S
O287 U286 2.454 . S
O287 C289 1.353 . S
O288 U286 2.458 . S
O288 C289 1.286 . S
C289 U286 2.984 . S
C289 O287 1.353 . S
C289 O288 1.286 . S
C289 C291 1.363 . S
C290 C280 1.465 . S
C290 U286 2.847 1_556 S
C290 O304 1.249 . S
C290 O305 1.202 . S
C291 C289 1.363 . S
C291 C293 1.408 . S
C291 C296 1.342 . S
C292 C293 1.310 . S
C292 C295 1.461 . S
C292 H312 0.932 . S
C293 C291 1.408 . S
C293 C292 1.310 . S
C293 H313 0.930 . S
C294 C295 1.474 . S
C294 C296 1.285 . S
C294 H314 0.929 . S
C295 C292 1.461 . S
C295 C294 1.474 . S
C296 C291 1.342 . S
C296 C294 1.285 . S
C296 H315 0.930 . S
C297 C300 1.424 . S
C297 C302 1.245 . S
C297 C303 1.428 . S
C298 C301 1.260 . S
C298 C302 1.477 . S
C298 H316 0.932 . S
C299 C300 1.384 . S
C299 C301 1.479 . S
C299 H317 0.929 . S
C300 C297 1.424 . S
C300 C299 1.384 . S
C300 H318 0.928 . S
C301 C298 1.260 . S
C301 C299 1.479 . S
C302 C297 1.245 . S
C302 C298 1.477 . S
C302 H319 0.932 . S
C303 U286 2.882 . S
C303 C297 1.428 . S
C303 O306 1.301 . S
C303 O307 1.282 . S
O304 U286 2.441 1_556 S
O304 C290 1.249 . S
O305 U286 2.420 1_556 S
O305 C290 1.202 . S
O306 U286 2.455 . S
O306 C303 1.301 . S
O307 U286 2.449 . S
O307 C303 1.282 . S
H308 C281 0.931 . S
H309 C283 0.929 . S
H310 C284 0.930 . S
H311 C285 0.931 . S
H312 C292 0.932 . S
H313 C293 0.930 . S
H314 C294 0.929 . S
H315 C296 0.930 . S
H316 C298 0.932 . S
H317 C299 0.929 . S
H318 C300 0.928 . S
H319 C302 0.932 . S
Eu320 C329 2.828 . S
Eu320 O331 2.392 . S
Eu320 O333 2.418 1_545 S
Eu320 O338 2.373 1_655 S
Eu320 O341 2.488 . S
Eu320 O342 2.471 . S
Eu320 O343 2.349 1_655 S
Eu321 O330 2.373 1_455 S
Eu321 O334 2.488 . S
Eu321 O335 2.471 . S
Eu321 O336 2.349 . S
Eu321 O339 2.392 1_565 S
Eu321 O340 2.418 1_565 S
Eu321 C350 2.828 . S
C322 O340 1.244 . S
C322 O343 1.265 . S
C323 C324 1.379 1_655 S
C323 C327 1.373 . S
C323 C329 1.505 . S
C324 C323 1.379 1_455 S
C324 C326 1.369 . S
C324 H352 0.930 . S
C325 C327 1.383 . S
C325 C328 1.382 1_655 S
C325 H353 0.930 . S
C326 C324 1.369 . S
C326 C328 1.392 . S
C326 H354 0.930 . S
C327 C323 1.373 . S
C327 C325 1.383 . S
C327 H355 0.931 . S
C328 C325 1.382 1_455 S
C328 C326 1.392 . S
C329 Eu320 2.828 . S
C329 C323 1.505 . S
C329 O341 1.249 . S
C329 O342 1.244 . S
O330 Eu321 2.373 1_655 S
O330 C332 1.258 . S
O331 Eu320 2.392 . S
O331 C332 1.242 1_545 S
C332 O330 1.258 . S
C332 O331 1.242 1_565 S
O333 Eu320 2.418 1_565 S
O333 C337 1.244 . S
O334 Eu321 2.488 . S
O334 C350 1.249 . S
O335 Eu321 2.471 . S
O335 C350 1.244 . S
O336 Eu321 2.349 . S
O336 C337 1.265 1_455 S
C337 O333 1.244 . S
C337 O336 1.265 1_655 S
O338 Eu320 2.373 1_455 S
O338 C351 1.258 . S
O339 Eu321 2.392 1_545 S
O339 C351 1.242 . S
O340 Eu321 2.418 1_545 S
O340 C322 1.244 . S
O341 Eu320 2.488 . S
O341 C329 1.249 . S
O342 Eu320 2.471 . S
O342 C329 1.244 . S
O343 Eu320 2.349 1_455 S
O343 C322 1.265 . S
C344 C345 1.379 . S
C344 C348 1.373 . S
C344 C350 1.505 . S
C345 C344 1.379 . S
C345 C347 1.369 . S
C345 H356 0.930 1_455 S
C346 C348 1.383 . S
C346 C349 1.382 . S
C346 H357 0.930 . S
C347 C345 1.369 . S
C347 C349 1.392 . S
C347 H358 0.930 1_455 S
C348 C344 1.373 . S
C348 C346 1.383 . S
C348 H359 0.931 . S
C349 C346 1.382 . S
C349 C347 1.392 . S
C350 Eu321 2.828 . S
C350 O334 1.249 . S
C350 O335 1.244 . S
C350 C344 1.505 . S
C351 O338 1.258 . S
C351 O339 1.242 . S
H352 C324 0.930 . S
H353 C325 0.930 . S
H354 C326 0.930 . S
H355 C327 0.931 . S
H356 C345 0.930 1_655 S
H357 C346 0.930 . S
H358 C347 0.930 1_655 S
H359 C348 0.931 . S
Eu360 C369 2.828 . S
Eu360 O371 2.392 . S
Eu360 O373 2.418 . S
Eu360 O378 2.373 . S
Eu360 O381 2.488 . S
Eu360 O382 2.471 . S
Eu360 O383 2.349 1_545 S
Eu361 O370 2.373 1_565 S
Eu361 O374 2.488 . S
Eu361 O375 2.471 1_565 S
Eu361 O376 2.349 1_565 S
Eu361 O379 2.392 . S
Eu361 O380 2.418 . S
Eu361 C390 2.828 . S
C362 O380 1.244 . S
C362 O383 1.265 . S
C363 C364 1.379 1_545 S
C363 C367 1.373 . S
C363 C369 1.505 . S
C364 C363 1.379 1_565 S
C364 C366 1.369 . S
C364 H392 0.930 . S
C365 C367 1.383 . S
C365 C368 1.382 . S
C365 H393 0.930 . S
C366 C364 1.369 . S
C366 C368 1.392 1_565 S
C366 H394 0.930 . S
C367 C363 1.373 . S
C367 C365 1.383 . S
C367 H395 0.931 . S
C368 C365 1.382 . S
C368 C366 1.392 1_545 S
C369 Eu360 2.828 . S
C369 C363 1.505 . S
C369 O381 1.249 . S
C369 O382 1.244 . S
O370 Eu361 2.373 1_545 S
O370 C372 1.258 . S
O371 Eu360 2.392 . S
O371 C372 1.242 . S
C372 O370 1.258 . S
C372 O371 1.242 . S
O373 Eu360 2.418 . S
O373 C377 1.244 . S
O374 Eu361 2.488 . S
O374 C390 1.249 . S
O375 Eu361 2.471 1_545 S
O375 C390 1.244 1_545 S
O376 Eu361 2.349 1_545 S
O376 C377 1.265 . S
C377 O373 1.244 . S
C377 O376 1.265 . S
O378 Eu360 2.373 . S
O378 C391 1.258 1_545 S
O379 Eu361 2.392 . S
O379 C391 1.242 . S
O380 Eu361 2.418 . S
O380 C362 1.244 . S
O381 Eu360 2.488 . S
O381 C369 1.249 . S
O382 Eu360 2.471 . S
O382 C369 1.244 . S
O383 Eu360 2.349 1_565 S
O383 C362 1.265 . S
C384 C385 1.379 1_565 S
C384 C388 1.373 . S
C384 C390 1.505 . S
C385 C384 1.379 1_545 S
C385 C387 1.369 . S
C385 H396 0.930 . S
C386 C388 1.383 . S
C386 C389 1.382 . S
C386 H397 0.930 . S
C387 C385 1.369 . S
C387 C389 1.392 1_545 S
C387 H398 0.930 . S
C388 C384 1.373 . S
C388 C386 1.383 . S
C388 H399 0.931 . S
C389 C386 1.382 . S
C389 C387 1.392 1_565 S
C390 Eu361 2.828 . S
C390 O374 1.249 . S
C390 O375 1.244 1_565 S
C390 C384 1.505 . S
C391 O378 1.258 1_565 S
C391 O379 1.242 . S
H392 C364 0.930 . S
H393 C365 0.930 . S
H394 C366 0.930 . S
H395 C367 0.931 . S
H396 C385 0.930 . S
H397 C386 0.930 . S
H398 C387 0.930 . S
H399 C388 0.931 . S
Eu400 C409 2.828 . S
Eu400 O411 2.392 . S
Eu400 O413 2.418 . S
Eu400 O418 2.373 . S
Eu400 O421 2.488 . S
Eu400 O422 2.471 . S
Eu400 O423 2.349 . S
Eu401 O410 2.373 . S
Eu401 O414 2.488 . S
Eu401 O415 2.471 . S
Eu401 O416 2.349 . S
Eu401 O419 2.392 . S
Eu401 O420 2.418 . S
Eu401 C430 2.828 . S
C402 O420 1.244 . S
C402 O423 1.265 . S
C403 C404 1.379 . S
C403 C407 1.373 . S
C403 C409 1.505 . S
C404 C403 1.379 . S
C404 C406 1.369 . S
C404 H432 0.930 . S
C405 C407 1.383 . S
C405 C408 1.382 . S
C405 H433 0.930 . S
C406 C404 1.369 . S
C406 C408 1.392 . S
C406 H434 0.930 . S
C407 C403 1.373 . S
C407 C405 1.383 . S
C407 H435 0.931 . S
C408 C405 1.382 . S
C408 C406 1.392 . S
C409 Eu400 2.828 . S
C409 C403 1.505 . S
C409 O421 1.249 . S
C409 O422 1.244 . S
O410 Eu401 2.373 . S
O410 C412 1.258 . S
O411 Eu400 2.392 . S
O411 C412 1.242 . S
C412 O410 1.258 . S
C412 O411 1.242 . S
O413 Eu400 2.418 . S
O413 C417 1.244 . S
O414 Eu401 2.488 . S
O414 C430 1.249 . S
O415 Eu401 2.471 . S
O415 C430 1.244 . S
O416 Eu401 2.349 . S
O416 C417 1.265 . S
C417 O413 1.244 . S
C417 O416 1.265 . S
O418 Eu400 2.373 . S
O418 C431 1.258 . S
O419 Eu401 2.392 . S
O419 C431 1.242 . S
O420 Eu401 2.418 . S
O420 C402 1.244 . S
O421 Eu400 2.488 . S
O421 C409 1.249 . S
O422 Eu400 2.471 . S
O422 C409 1.244 . S
O423 Eu400 2.349 . S
O423 C402 1.265 . S
C424 C425 1.379 . S
C424 C428 1.373 . S
C424 C430 1.505 . S
C425 C424 1.379 . S
C425 C427 1.369 . S
C425 H436 0.930 . S
C426 C428 1.383 . S
C426 C429 1.382 . S
C426 H437 0.930 . S
C427 C425 1.369 . S
C427 C429 1.392 . S
C427 H438 0.930 . S
C428 C424 1.373 . S
C428 C426 1.383 . S
C428 H439 0.931 . S
C429 C426 1.382 . S
C429 C427 1.392 . S
C430 Eu401 2.828 . S
C430 O414 1.249 . S
C430 O415 1.244 . S
C430 C424 1.505 . S
C431 O418 1.258 . S
C431 O419 1.242 . S
H432 C404 0.930 . S
H433 C405 0.930 . S
H434 C406 0.930 . S
H435 C407 0.931 . S
H436 C425 0.930 . S
H437 C426 0.930 . S
H438 C427 0.930 . S
H439 C428 0.931 . S
Eu440 C449 2.828 . S
Eu440 O451 2.392 . S
Eu440 O453 2.418 1_455 S
Eu440 O458 2.373 . S
Eu440 O461 2.488 . S
Eu440 O462 2.471 . S
Eu440 O463 2.349 . S
Eu441 O450 2.373 . S
Eu441 O454 2.488 . S
Eu441 O455 2.471 . S
Eu441 O456 2.349 . S
Eu441 O459 2.392 1_655 S
Eu441 O460 2.418 1_655 S
Eu441 C470 2.828 . S
C442 O460 1.244 . S
C442 O463 1.265 . S
C443 C444 1.379 . S
C443 C447 1.373 . S
C443 C449 1.505 . S
C444 C443 1.379 . S
C444 C446 1.369 . S
C444 H472 0.930 . S
C445 C447 1.383 . S
C445 C448 1.382 . S
C445 H473 0.930 . S
C446 C444 1.369 . S
C446 C448 1.392 . S
C446 H474 0.930 . S
C447 C443 1.373 . S
C447 C445 1.383 . S
C447 H475 0.931 . S
C448 C445 1.382 . S
C448 C446 1.392 . S
C449 Eu440 2.828 . S
C449 C443 1.505 . S
C449 O461 1.249 . S
C449 O462 1.244 . S
O450 Eu441 2.373 . S
O450 C452 1.258 1_655 S
O451 Eu440 2.392 . S
O451 C452 1.242 . S
C452 O450 1.258 1_455 S
C452 O451 1.242 . S
O453 Eu440 2.418 1_655 S
O453 C457 1.244 . S
O454 Eu441 2.488 . S
O454 C470 1.249 . S
O455 Eu441 2.471 . S
O455 C470 1.244 . S
O456 Eu441 2.349 . S
O456 C457 1.265 . S
C457 O453 1.244 . S
C457 O456 1.265 . S
O458 Eu440 2.373 . S
O458 C471 1.258 . S
O459 Eu441 2.392 1_455 S
O459 C471 1.242 . S
O460 Eu441 2.418 1_455 S
O460 C442 1.244 . S
O461 Eu440 2.488 . S
O461 C449 1.249 . S
O462 Eu440 2.471 . S
O462 C449 1.244 . S
O463 Eu440 2.349 . S
O463 C442 1.265 . S
C464 C465 1.379 . S
C464 C468 1.373 . S
C464 C470 1.505 . S
C465 C464 1.379 . S
C465 C467 1.369 . S
C465 H476 0.930 . S
C466 C468 1.383 . S
C466 C469 1.382 . S
C466 H477 0.930 . S
C467 C465 1.369 . S
C467 C469 1.392 . S
C467 H478 0.930 . S
C468 C464 1.373 . S
C468 C466 1.383 . S
C468 H479 0.931 . S
C469 C466 1.382 . S
C469 C467 1.392 . S
C470 Eu441 2.828 . S
C470 O454 1.249 . S
C470 O455 1.244 . S
C470 C464 1.505 . S
C471 O458 1.258 . S
C471 O459 1.242 . S
H472 C444 0.930 . S
H473 C445 0.930 . S
H474 C446 0.930 . S
H475 C447 0.931 . S
H476 C465 0.930 . S
H477 C466 0.930 . S
H478 C467 0.930 . S
H479 C468 0.931 . S
H480 C486 0.930 . S
H481 C489 0.930 . S
H482 C490 0.930 . S
H483 C491 0.930 . S
H484 C494 0.930 . S
H485 C495 0.930 . S
C486 H480 0.930 . S
C486 C487 1.355 . S
C486 C488 1.415 . S
C487 C486 1.355 . S
C487 C489 1.419 . S
C488 C486 1.415 . S
C488 C493 1.425 . S
C488 C495 1.409 . S
C489 H481 0.930 . S
C489 C487 1.419 . S
C489 C490 1.362 . S
C490 H482 0.930 . S
C490 C489 1.362 . S
C490 C493 1.409 . S
C491 H483 0.930 . S
C491 C492 1.355 . S
C491 C493 1.415 . S
C492 C491 1.355 . S
C492 C494 1.419 . S
C493 C488 1.425 . S
C493 C490 1.409 . S
C493 C491 1.415 . S
C494 H484 0.930 . S
C494 C492 1.419 . S
C494 C495 1.362 . S
C495 H485 0.930 . S
C495 C488 1.409 . S
C495 C494 1.362 . S
H496 C502 0.930 . S
H497 C505 0.930 . S
H498 C506 0.930 . S
H499 C507 0.930 . S
H500 C510 0.930 . S
H501 C511 0.930 . S
C502 H496 0.930 . S
C502 C503 1.355 . S
C502 C504 1.415 . S
C503 C502 1.355 . S
C503 C505 1.419 . S
C504 C502 1.415 . S
C504 C509 1.425 . S
C504 C511 1.409 . S
C505 H497 0.930 . S
C505 C503 1.419 . S
C505 C506 1.362 . S
C506 H498 0.930 . S
C506 C505 1.362 . S
C506 C509 1.409 . S
C507 H499 0.930 . S
C507 C508 1.355 . S
C507 C509 1.415 . S
C508 C507 1.355 . S
C508 C510 1.419 . S
C509 C504 1.425 . S
C509 C506 1.409 . S
C509 C507 1.415 . S
C510 H500 0.930 . S
C510 C508 1.419 . S
C510 C511 1.362 . S
C511 H501 0.930 . S
C511 C504 1.409 . S
C511 C510 1.362 . S
H512 C518 0.930 . S
H513 C521 0.930 . S
H514 C522 0.930 . S
H515 C523 0.930 . S
H516 C526 0.930 . S
H517 C527 0.930 . S
C518 H512 0.930 . S
C518 C519 1.355 . S
C518 C520 1.415 . S
C519 C518 1.355 . S
C519 C521 1.419 . S
C520 C518 1.415 . S
C520 C525 1.425 . S
C520 C527 1.409 . S
C521 H513 0.930 . S
C521 C519 1.419 . S
C521 C522 1.362 . S
C522 H514 0.930 . S
C522 C521 1.362 . S
C522 C525 1.409 . S
C523 H515 0.930 . S
C523 C524 1.355 . S
C523 C525 1.415 . S
C524 C523 1.355 . S
C524 C526 1.419 . S
C525 C520 1.425 . S
C525 C522 1.409 . S
C525 C523 1.415 . S
C526 H516 0.930 . S
C526 C524 1.419 . S
C526 C527 1.362 . S
C527 H517 0.930 . S
C527 C520 1.409 . S
C527 C526 1.362 . S
H528 C534 0.930 . S
H529 C537 0.930 . S
H530 C538 0.930 . S
H531 C539 0.930 . S
H532 C542 0.930 . S
H533 C543 0.930 . S
C534 H528 0.930 . S
C534 C535 1.355 . S
C534 C536 1.415 . S
C535 C534 1.355 . S
C535 C537 1.419 . S
C536 C534 1.415 . S
C536 C541 1.425 . S
C536 C543 1.409 . S
C537 H529 0.930 . S
C537 C535 1.419 . S
C537 C538 1.362 . S
C538 H530 0.930 . S
C538 C537 1.362 . S
C538 C541 1.409 . S
C539 H531 0.930 . S
C539 C540 1.355 . S
C539 C541 1.415 . S
C540 C539 1.355 . S
C540 C542 1.419 . S
C541 C536 1.425 . S
C541 C538 1.409 . S
C541 C539 1.415 . S
C542 H532 0.930 . S
C542 C540 1.419 . S
C542 C543 1.362 . S
C543 H533 0.930 . S
C543 C536 1.409 . S
C543 C542 1.362 . S
H544 C550 0.930 . S
H545 C553 0.930 . S
H546 C554 0.930 1_545 S
H547 C555 0.930 1_545 S
H548 C558 0.930 . S
H549 C559 0.930 . S
C550 H544 0.930 . S
C550 C551 1.355 . S
C550 C552 1.415 1_554 S
C551 C550 1.355 . S
C551 C553 1.419 . S
C552 C550 1.415 1_556 S
C552 C557 1.425 . S
C552 C559 1.409 . S
C553 H545 0.930 . S
C553 C551 1.419 . S
C553 C554 1.362 . S
C554 H546 0.930 1_565 S
C554 C553 1.362 . S
C554 C557 1.409 1_554 S
C555 H547 0.930 1_565 S
C555 C556 1.355 . S
C555 C557 1.415 . S
C556 C555 1.355 . S
C556 C558 1.419 . S
C557 C552 1.425 . S
C557 C554 1.409 1_556 S
C557 C555 1.415 . S
C558 H548 0.930 . S
C558 C556 1.419 . S
C558 C559 1.362 . S
C559 H549 0.930 . S
C559 C552 1.409 . S
C559 C558 1.362 . S
H560 C566 0.930 . S
H561 C569 0.930 . S
H562 C570 0.930 . S
H563 C571 0.930 . S
H564 C574 0.930 . S
H565 C575 0.930 . S
C566 H560 0.930 . S
C566 C567 1.355 . S
C566 C568 1.415 1_554 S
C567 C566 1.355 . S
C567 C569 1.419 . S
C568 C566 1.415 1_556 S
C568 C573 1.425 . S
C568 C575 1.409 . S
C569 H561 0.930 . S
C569 C567 1.419 . S
C569 C570 1.362 1_554 S
C570 H562 0.930 . S
C570 C569 1.362 1_556 S
C570 C573 1.409 . S
C571 H563 0.930 . S
C571 C572 1.355 . S
C571 C573 1.415 . S
C572 C571 1.355 . S
C572 C574 1.419 . S
C573 C568 1.425 . S
C573 C570 1.409 . S
C573 C571 1.415 . S
C574 H564 0.930 . S
C574 C572 1.419 . S
C574 C575 1.362 . S
C575 H565 0.930 . S
C575 C568 1.409 . S
C575 C574 1.362 . S
H576 C582 0.930 . S
H577 C585 0.930 . S
H578 C586 0.930 . S
H579 C587 0.930 . S
H580 C590 0.930 . S
H581 C591 0.930 . S
C582 H576 0.930 . S
C582 C583 1.355 1_556 S
C582 C584 1.415 . S
C583 C582 1.355 1_554 S
C583 C585 1.419 . S
C584 C582 1.415 . S
C584 C589 1.425 . S
C584 C591 1.409 . S
C585 H577 0.930 . S
C585 C583 1.419 . S
C585 C586 1.362 1_554 S
C586 H578 0.930 . S
C586 C585 1.362 1_556 S
C586 C589 1.409 . S
C587 H579 0.930 . S
C587 C588 1.355 . S
C587 C589 1.415 . S
C588 C587 1.355 . S
C588 C590 1.419 . S
C589 C584 1.425 . S
C589 C586 1.409 . S
C589 C587 1.415 . S
C590 H580 0.930 . S
C590 C588 1.419 . S
C590 C591 1.362 . S
C591 H581 0.930 . S
C591 C584 1.409 . S
C591 C590 1.362 . S
H592 C598 0.930 . S
H593 C601 0.920 1_455 S
H594 C602 0.930 . S
H595 C603 0.930 1_455 S
H596 C606 0.930 . S
H597 C607 0.930 . S
C598 H592 0.930 . S
C598 C599 1.355 . S
C598 C600 1.415 1_554 S
C599 C598 1.355 . S
C599 C601 1.419 . S
C600 C598 1.415 1_556 S
C600 C605 1.425 . S
C600 C607 1.409 . S
C601 H593 0.920 1_655 S
C601 C599 1.419 . S
C601 C602 1.362 1_654 S
C602 H594 0.930 . S
C602 C601 1.362 1_456 S
C602 C605 1.409 1_455 S
C603 H595 0.930 1_655 S
C603 C604 1.355 . S
C603 C605 1.415 . S
C604 C603 1.355 . S
C604 C606 1.419 . S
C605 C600 1.425 . S
C605 C602 1.409 1_655 S
C605 C603 1.415 . S
C606 H596 0.930 . S
C606 C604 1.419 . S
C606 C607 1.362 . S
C607 H597 0.930 . S
C607 C600 1.409 . S
C607 C606 1.362 . S
H608 C614 0.930 . S
H609 C617 0.930 . S
H610 C618 0.930 . S
H611 C619 0.930 . S
H612 C622 0.930 . S
H613 C623 0.930 . S
C614 H608 0.930 . S
C614 C615 1.355 . S
C614 C616 1.415 . S
C615 C614 1.355 . S
C615 C617 1.419 . S
C616 C614 1.415 . S
C616 C621 1.425 . S
C616 C623 1.409 . S
C617 H609 0.930 . S
C617 C615 1.419 . S
C617 C618 1.362 . S
C618 H610 0.930 . S
C618 C617 1.362 . S
C618 C621 1.409 . S
C619 H611 0.930 . S
C619 C620 1.358 . S
C619 C621 1.415 . S
C620 C619 1.358 . S
C620 C622 1.421 . S
C621 C616 1.425 . S
C621 C618 1.409 . S
C621 C619 1.415 . S
C622 H612 0.930 . S
C622 C620 1.421 . S
C622 C623 1.362 . S
C623 H613 0.930 . S
C623 C616 1.409 . S
C623 C622 1.362 . S
H624 C630 0.930 . S
H625 C633 0.930 . S
H626 C634 0.930 . S
H627 C635 0.930 . S
H628 C638 0.930 . S
H629 C639 0.930 . S
C630 H624 0.930 . S
C630 C631 1.355 . S
C630 C632 1.415 . S
C631 C630 1.355 . S
C631 C633 1.419 . S
C632 C630 1.415 . S
C632 C637 1.425 . S
C632 C639 1.409 . S
C633 H625 0.930 . S
C633 C631 1.419 . S
C633 C634 1.362 . S
C634 H626 0.930 . S
C634 C633 1.362 . S
C634 C637 1.409 . S
C635 H627 0.930 . S
C635 C636 1.355 1_545 S
C635 C637 1.415 . S
C636 C635 1.355 1_565 S
C636 C638 1.419 . S
C637 C632 1.425 . S
C637 C634 1.409 . S
C637 C635 1.415 . S
C638 H628 0.930 . S
C638 C636 1.419 . S
C638 C639 1.362 1_565 S
C639 H629 0.930 . S
C639 C632 1.409 . S
C639 C638 1.362 1_545 S
H640 C646 0.930 . S
H641 C649 0.930 . S
H642 C650 0.930 . S
H643 C651 0.930 . S
H644 C654 0.930 . S
H645 C655 0.930 . S
C646 H640 0.930 . S
C646 C647 1.355 . S
C646 C648 1.415 . S
C647 C646 1.355 . S
C647 C649 1.419 . S
C648 C646 1.415 . S
C648 C653 1.425 . S
C648 C655 1.409 . S
C649 H641 0.930 . S
C649 C647 1.419 . S
C649 C650 1.362 . S
C650 H642 0.930 . S
C650 C649 1.362 . S
C650 C653 1.409 . S
C651 H643 0.930 . S
C651 C652 1.355 . S
C651 C653 1.415 . S
C652 C651 1.355 . S
C652 C654 1.419 . S
C653 C648 1.425 . S
C653 C650 1.409 . S
C653 C651 1.415 . S
C654 H644 0.930 . S
C654 C652 1.419 . S
C654 C655 1.362 . S
C655 H645 0.930 . S
C655 C648 1.409 . S
C655 C654 1.362 . S
H656 C662 0.930 . S
H657 C665 0.930 . S
H658 C666 0.930 . S
H659 C667 0.930 . S
H660 C670 0.930 . S
H661 C671 0.930 . S
C662 H656 0.930 . S
C662 C663 1.355 . S
C662 C664 1.415 . S
C663 C662 1.355 . S
C663 C665 1.419 . S
C664 C662 1.415 . S
C664 C669 1.425 . S
C664 C671 1.409 . S
C665 H657 0.930 . S
C665 C663 1.419 . S
C665 C666 1.362 . S
C666 H658 0.930 . S
C666 C665 1.362 . S
C666 C669 1.409 . S
C667 H659 0.930 . S
C667 C668 1.355 . S
C667 C669 1.415 . S
C668 C667 1.355 . S
C668 C670 1.419 . S
C669 C664 1.425 . S
C669 C666 1.409 . S
C669 C667 1.415 . S
C670 H660 0.930 . S
C670 C668 1.419 . S
C670 C671 1.362 . S
C671 H661 0.930 . S
C671 C664 1.409 . S
C671 C670 1.362 . S
H672 C678 0.930 . S
H673 C681 0.930 . S
H674 C682 0.973 . S
H675 C683 0.930 . S
H676 C686 0.930 . S
H677 C687 0.930 . S
C678 H672 0.930 . S
C678 C679 1.355 . S
C678 C680 1.415 1_554 S
C679 C678 1.355 . S
C679 C681 1.419 1_554 S
C680 C678 1.415 1_556 S
C680 C685 1.425 . S
C680 C687 1.409 1_556 S
C681 H673 0.930 . S
C681 C679 1.419 1_556 S
C681 C682 1.327 1_655 S
C682 H674 0.973 . S
C682 C681 1.327 1_455 S
C682 C685 1.404 1_455 S
C683 H675 0.930 . S
C683 C684 1.355 . S
C683 C685 1.415 1_455 S
C684 C683 1.355 . S
C684 C686 1.419 1_455 S
C685 C680 1.425 . S
C685 C682 1.404 1_655 S
C685 C683 1.415 1_655 S
C686 H676 0.930 . S
C686 C684 1.419 1_655 S
C686 C687 1.362 1_556 S
C687 H677 0.930 . S
C687 C680 1.409 1_554 S
C687 C686 1.362 1_554 S
H688 C694 0.930 . S
H689 C697 0.930 . S
H690 C698 0.930 . S
H691 C699 0.930 . S
H692 C702 0.933 . S
H693 C703 0.933 . S
C694 H688 0.930 . S
C694 C695 1.355 . S
C694 C696 1.415 1_554 S
C695 C694 1.355 . S
C695 C697 1.419 1_554 S
C696 C694 1.415 1_556 S
C696 C701 1.425 . S
C696 C703 1.409 . S
C697 H689 0.930 . S
C697 C695 1.419 1_556 S
C697 C698 1.362 . S
C698 H690 0.930 . S
C698 C697 1.362 . S
C698 C701 1.409 . S
C699 H691 0.930 . S
C699 C700 1.355 . S
C699 C701 1.415 1_545 S
C700 C699 1.355 . S
C700 C702 1.425 . S
C701 C696 1.425 . S
C701 C698 1.409 . S
C701 C699 1.415 1_565 S
C702 H692 0.933 . S
C702 C700 1.425 . S
C702 C703 1.353 1_545 S
C703 H693 0.933 . S
C703 C696 1.409 . S
C703 C702 1.353 1_565 S
H704 C710 0.930 . S
H705 C713 0.930 . S
H706 C714 0.930 . S
H707 C715 0.930 . S
H708 C718 0.930 . S
H709 C719 0.930 . S
C710 H704 0.930 . S
C710 C711 1.355 . S
C710 C712 1.415 . S
C711 C710 1.355 . S
C711 C713 1.419 1_556 S
C712 C710 1.415 . S
C712 C717 1.425 . S
C712 C719 1.409 . S
C713 H705 0.930 . S
C713 C711 1.419 1_554 S
C713 C714 1.362 1_554 S
C714 H706 0.930 . S
C714 C713 1.362 1_556 S
C714 C717 1.409 . S
C715 H707 0.930 . S
C715 C716 1.355 . S
C715 C717 1.415 . S
C716 C715 1.355 . S
C716 C718 1.419 . S
C717 C712 1.425 . S
C717 C714 1.409 . S
C717 C715 1.415 . S
C718 H708 0.930 . S
C718 C716 1.419 . S
C718 C719 1.362 . S
C719 H709 0.930 . S
C719 C712 1.409 . S
C719 C718 1.362 . S
H720 C726 0.930 . S
H721 C729 0.930 . S
H722 C730 0.930 . S
H723 C731 0.930 . S
H724 C734 0.930 . S
H725 C735 0.930 . S
C726 H720 0.930 . S
C726 C727 1.355 1_554 S
C726 C728 1.415 1_554 S
C727 C726 1.355 1_556 S
C727 C729 1.419 . S
C728 C726 1.415 1_556 S
C728 C733 1.425 . S
C728 C735 1.409 1_556 S
C729 H721 0.930 . S
C729 C727 1.419 . S
C729 C730 1.362 . S
C730 H722 0.930 . S
C730 C729 1.362 . S
C730 C733 1.409 . S
C731 H723 0.930 . S
C731 C732 1.355 . S
C731 C733 1.415 . S
C732 C731 1.355 . S
C732 C734 1.419 1_556 S
C733 C728 1.425 . S
C733 C730 1.409 . S
C733 C731 1.415 . S
C734 H724 0.930 . S
C734 C732 1.419 1_554 S
C734 C735 1.362 . S
C735 H725 0.930 . S
C735 C728 1.409 1_554 S
C735 C734 1.362 . S
H736 C742 0.930 . S
H737 C745 0.930 . S
H738 C746 0.930 1_655 S
H739 C747 0.930 . S
H740 C750 0.930 . S
H741 C751 0.930 . S
C742 H736 0.930 . S
C742 C743 1.355 . S
C742 C744 1.415 . S
C743 C742 1.355 . S
C743 C745 1.419 . S
C744 C742 1.415 . S
C744 C749 1.425 . S
C744 C751 1.409 . S
C745 H737 0.930 . S
C745 C743 1.419 . S
C745 C746 1.362 . S
C746 H738 0.930 1_455 S
C746 C745 1.362 . S
C746 C749 1.409 . S
C747 H739 0.930 . S
C747 C748 1.355 . S
C747 C749 1.415 . S
C748 C747 1.355 . S
C748 C750 1.419 . S
C749 C744 1.425 . S
C749 C746 1.409 . S
C749 C747 1.415 . S
C750 H740 0.930 . S
C750 C748 1.419 . S
C750 C751 1.362 . S
C751 H741 0.930 . S
C751 C744 1.409 . S
C751 C750 1.362 . S
H752 C758 0.930 . S
H753 C761 0.930 . S
H754 C762 0.930 . S
H755 C763 0.930 . S
H756 C766 0.930 . S
H757 C767 0.930 . S
C758 H752 0.930 . S
C758 C759 1.355 . S
C758 C760 1.415 . S
C759 C758 1.355 . S
C759 C761 1.419 . S
C760 C758 1.415 . S
C760 C765 1.425 . S
C760 C767 1.409 . S
C761 H753 0.930 . S
C761 C759 1.419 . S
C761 C762 1.362 . S
C762 H754 0.930 . S
C762 C761 1.362 . S
C762 C765 1.409 . S
C763 H755 0.930 . S
C763 C764 1.355 . S
C763 C765 1.415 . S
C764 C763 1.355 . S
C764 C766 1.419 . S
C765 C760 1.425 . S
C765 C762 1.409 . S
C765 C763 1.415 . S
C766 H756 0.930 . S
C766 C764 1.419 . S
C766 C767 1.362 . S
C767 H757 0.930 . S
C767 C760 1.409 . S
C767 C766 1.362 . S
H768 C774 0.930 . S
H769 C777 0.930 . S
H770 C778 0.930 . S
H771 C779 0.930 . S
H772 C782 0.930 . S
H773 C783 0.930 . S
C774 H768 0.930 . S
C774 C775 1.355 . S
C774 C776 1.415 . S
C775 C774 1.355 . S
C775 C777 1.419 . S
C776 C774 1.415 . S
C776 C781 1.425 . S
C776 C783 1.409 . S
C777 H769 0.930 . S
C777 C775 1.419 . S
C777 C778 1.362 . S
C778 H770 0.930 . S
C778 C777 1.362 . S
C778 C781 1.409 . S
C779 H771 0.930 . S
C779 C780 1.355 . S
C779 C781 1.415 . S
C780 C779 1.355 . S
C780 C782 1.419 . S
C781 C776 1.425 . S
C781 C778 1.409 . S
C781 C779 1.415 . S
C782 H772 0.930 . S
C782 C780 1.419 . S
C782 C783 1.362 . S
C783 H773 0.930 . S
C783 C776 1.409 . S
C783 C782 1.362 . S
H784 C790 0.930 . S
H785 C793 0.930 . S
H786 C794 0.930 . S
H787 C795 0.930 . S
H788 C798 0.930 . S
H789 C799 0.930 . S
C790 H784 0.930 . S
C790 C791 1.355 . S
C790 C792 1.415 . S
C791 C790 1.355 . S
C791 C793 1.419 . S
C792 C790 1.415 . S
C792 C797 1.425 . S
C792 C799 1.409 . S
C793 H785 0.930 . S
C793 C791 1.419 . S
C793 C794 1.362 . S
C794 H786 0.930 . S
C794 C793 1.362 . S
C794 C797 1.409 . S
C795 H787 0.930 . S
C795 C796 1.355 . S
C795 C797 1.415 . S
C796 C795 1.355 . S
C796 C798 1.419 . S
C797 C792 1.425 . S
C797 C794 1.409 . S
C797 C795 1.415 . S
C798 H788 0.930 . S
C798 C796 1.419 . S
C798 C799 1.362 . S
C799 H789 0.930 . S
C799 C792 1.409 . S
C799 C798 1.362 . S
H800 C806 0.930 1_455 S
H801 C809 0.930 . S
H802 C810 0.930 . S
H803 C811 0.930 . S
H804 C814 0.930 . S
H805 C815 0.930 . S
C806 H800 0.930 1_655 S
C806 C807 1.355 . S
C806 C808 1.415 . S
C807 C806 1.355 . S
C807 C809 1.419 . S
C808 C806 1.415 . S
C808 C813 1.425 . S
C808 C815 1.409 1_655 S
C809 H801 0.930 . S
C809 C807 1.419 . S
C809 C810 1.362 . S
C810 H802 0.930 . S
C810 C809 1.362 . S
C810 C813 1.409 . S
C811 H803 0.930 . S
C811 C812 1.355 . S
C811 C813 1.415 . S
C812 C811 1.355 . S
C812 C814 1.419 1_655 S
C813 C808 1.425 . S
C813 C810 1.409 . S
C813 C811 1.415 . S
C814 H804 0.930 . S
C814 C812 1.419 1_455 S
C814 C815 1.362 . S
C815 H805 0.930 . S
C815 C808 1.409 1_455 S
C815 C814 1.362 . S
H816 C822 0.930 . S
H817 C825 0.930 . S
H818 C826 0.930 . S
H819 C827 0.930 . S
H820 C830 0.927 1_545 S
H821 C831 0.961 . S
C822 H816 0.930 . S
C822 C823 1.355 . S
C822 C824 1.415 . S
C823 C822 1.355 . S
C823 C825 1.419 . S
C824 C822 1.415 . S
C824 C829 1.425 . S
C824 C831 1.380 1_565 S
C825 H817 0.930 . S
C825 C823 1.419 . S
C825 C826 1.362 . S
C826 H818 0.930 . S
C826 C825 1.362 . S
C826 C829 1.409 . S
C827 H819 0.930 . S
C827 C828 1.355 . S
C827 C829 1.415 . S
C828 C827 1.355 . S
C828 C830 1.422 . S
C829 C824 1.425 . S
C829 C826 1.409 . S
C829 C827 1.415 . S
C830 H820 0.927 1_565 S
C830 C828 1.422 . S
C830 C831 1.362 1_565 S
C831 H821 0.961 . S
C831 C824 1.380 1_545 S
C831 C830 1.362 1_545 S
H832 C838 0.930 . S
H833 C841 0.930 . S
H834 C842 0.930 . S
H835 C843 0.930 . S
H836 C846 0.930 . S
H837 C847 0.930 . S
C838 H832 0.930 . S
C838 C839 1.355 . S
C838 C840 1.415 . S
C839 C838 1.355 . S
C839 C841 1.419 . S
C840 C838 1.415 . S
C840 C845 1.425 . S
C840 C847 1.409 . S
C841 H833 0.930 . S
C841 C839 1.419 . S
C841 C842 1.362 . S
C842 H834 0.930 . S
C842 C841 1.362 . S
C842 C845 1.409 . S
C843 H835 0.930 . S
C843 C844 1.355 . S
C843 C845 1.415 . S
C844 C843 1.355 . S
C844 C846 1.419 . S
C845 C840 1.425 . S
C845 C842 1.409 . S
C845 C843 1.415 . S
C846 H836 0.930 . S
C846 C844 1.419 . S
C846 C847 1.362 . S
C847 H837 0.930 . S
C847 C840 1.409 . S
C847 C846 1.362 . S
H848 C854 0.930 . S
H849 C857 0.930 . S
H850 C858 0.930 . S
H851 C859 0.930 . S
H852 C862 0.930 . S
H853 C863 0.930 . S
C854 H848 0.930 . S
C854 C855 1.355 . S
C854 C856 1.415 . S
C855 C854 1.355 . S
C855 C857 1.419 . S
C856 C854 1.415 . S
C856 C861 1.425 . S
C856 C863 1.409 . S
C857 H849 0.930 . S
C857 C855 1.419 . S
C857 C858 1.362 . S
C858 H850 0.930 . S
C858 C857 1.362 . S
C858 C861 1.409 . S
C859 H851 0.930 . S
C859 C860 1.355 . S
C859 C861 1.415 . S
C860 C859 1.355 . S
C860 C862 1.419 . S
C861 C856 1.425 . S
C861 C858 1.409 . S
C861 C859 1.415 . S
C862 H852 0.930 . S
C862 C860 1.419 . S
C862 C863 1.362 . S
C863 H853 0.930 . S
C863 C856 1.409 . S
C863 C862 1.362 . S
C487 C255 3.040 . S
C492 C351 3.263 . S
C508 C377 2.733 . S
C503 C295 2.466 . S
C524 C417 2.654 . S
C519 C175 2.425 . S
C540 C471 3.110 . S
C535 C215 2.904 . S
C556 C332 3.260 . S
C551 C95 3.026 . S
C567 C135 2.417 . S
C572 C362 2.711 . S
C583 C15 2.422 . S
C588 C402 2.656 . S
C599 C55 2.898 . S
C604 C452 3.114 1_655 S
C620 C328 0.524 . S
C615 C221 0.507 . S
C636 C389 0.758 . S
C631 C261 0.812 . S
C652 C429 0.505 . S
C647 C301 0.350 . S
C663 C181 0.536 . S
C668 C448 0.548 . S
C679 C61 0.665 . S
C684 C349 0.623 . S
C700 C368 0.746 . S
C695 C101 0.788 . S
C716 C408 0.504 . S
C711 C141 0.450 . S
C727 C21 0.768 . S
C732 C469 0.644 . S
C743 C202 3.005 . S
C748 C322 3.344 . S
C759 C242 3.604 . S
C764 C372 3.910 . S
C780 C412 3.591 . S
C775 C282 3.225 . S
C796 C442 3.021 . S
C791 C162 2.716 . S
C807 C42 2.972 . S
C812 C337 3.357 . S
C828 C391 3.907 . S
C823 C82 3.564 . S
C844 C431 3.605 . S
C839 C122 3.344 . S
C855 C2 2.694 . S
C860 C457 3.040 . S
