# Generated by pormake.
# Topology ssb, (4,4)-cn, num edge types: 1
# Building blocks:
#     Node 0, Type 0, BuildingBlock: ESEHIV_clean_sbu_0, # of connection points: 4
#     Node 1, Type 0, BuildingBlock: ESEHIV_clean_sbu_0, # of connection points: 4
#     Node 2, Type 0, BuildingBlock: ESEHIV_clean_sbu_0, # of connection points: 4
#     Node 3, Type 0, BuildingBlock: ESEHIV_clean_sbu_0, # of connection points: 4
#     Node 4, Type 0, BuildingBlock: ESEHIV_clean_sbu_0, # of connection points: 4
#     Node 5, Type 0, BuildingBlock: ESEHIV_clean_sbu_0, # of connection points: 4
#     Node 6, Type 0, BuildingBlock: ESEHIV_clean_sbu_0, # of connection points: 4
#     Node 7, Type 0, BuildingBlock: ESEHIV_clean_sbu_0, # of connection points: 4
#     Node 8, Type 1, BuildingBlock: KOZSID_clean_sbu_0, # of connection points: 4
#     Node 9, Type 1, BuildingBlock: KOZSID_clean_sbu_0, # of connection points: 4
#     Node 10, Type 1, BuildingBlock: KOZSID_clean_sbu_0, # of connection points: 4
#     Node 11, Type 1, BuildingBlock: KOZSID_clean_sbu_0, # of connection points: 4
#     Node 12, Type 1, BuildingBlock: KOZSID_clean_sbu_0, # of connection points: 4
#     Node 13, Type 1, BuildingBlock: KOZSID_clean_sbu_0, # of connection points: 4
#     Node 14, Type 1, BuildingBlock: KOZSID_clean_sbu_0, # of connection points: 4
#     Node 15, Type 1, BuildingBlock: KOZSID_clean_sbu_0, # of connection points: 4
#     Edge 16, Type (0, 1), BuildingBlock: CIFDUS_clean_linker_0, # of connection points: 2
#     Edge 17, Type (0, 1), BuildingBlock: CIFDUS_clean_linker_0, # of connection points: 2
#     Edge 18, Type (0, 1), BuildingBlock: CIFDUS_clean_linker_0, # of connection points: 2
#     Edge 19, Type (0, 1), BuildingBlock: CIFDUS_clean_linker_0, # of connection points: 2
#     Edge 20, Type (0, 1), BuildingBlock: CIFDUS_clean_linker_0, # of connection points: 2
#     Edge 21, Type (0, 1), BuildingBlock: CIFDUS_clean_linker_0, # of connection points: 2
#     Edge 22, Type (0, 1), BuildingBlock: CIFDUS_clean_linker_0, # of connection points: 2
#     Edge 23, Type (0, 1), BuildingBlock: CIFDUS_clean_linker_0, # of connection points: 2
#     Edge 24, Type (0, 1), BuildingBlock: CIFDUS_clean_linker_0, # of connection points: 2
#     Edge 25, Type (0, 1), BuildingBlock: CIFDUS_clean_linker_0, # of connection points: 2
#     Edge 26, Type (0, 1), BuildingBlock: CIFDUS_clean_linker_0, # of connection points: 2
#     Edge 27, Type (0, 1), BuildingBlock: CIFDUS_clean_linker_0, # of connection points: 2
#     Edge 28, Type (0, 1), BuildingBlock: CIFDUS_clean_linker_0, # of connection points: 2
#     Edge 29, Type (0, 1), BuildingBlock: CIFDUS_clean_linker_0, # of connection points: 2
#     Edge 30, Type (0, 1), BuildingBlock: CIFDUS_clean_linker_0, # of connection points: 2
#     Edge 31, Type (0, 1), BuildingBlock: CIFDUS_clean_linker_0, # of connection points: 2
#     Edge 32, Type (0, 1), BuildingBlock: CIFDUS_clean_linker_0, # of connection points: 2
#     Edge 33, Type (0, 1), BuildingBlock: CIFDUS_clean_linker_0, # of connection points: 2
#     Edge 34, Type (0, 1), BuildingBlock: CIFDUS_clean_linker_0, # of connection points: 2
#     Edge 35, Type (0, 1), BuildingBlock: CIFDUS_clean_linker_0, # of connection points: 2
#     Edge 36, Type (0, 1), BuildingBlock: CIFDUS_clean_linker_0, # of connection points: 2
#     Edge 37, Type (0, 1), BuildingBlock: CIFDUS_clean_linker_0, # of connection points: 2
#     Edge 38, Type (0, 1), BuildingBlock: CIFDUS_clean_linker_0, # of connection points: 2
#     Edge 39, Type (0, 1), BuildingBlock: CIFDUS_clean_linker_0, # of connection points: 2
#     Edge 40, Type (0, 1), BuildingBlock: CIFDUS_clean_linker_0, # of connection points: 2
#     Edge 41, Type (0, 1), BuildingBlock: CIFDUS_clean_linker_0, # of connection points: 2
#     Edge 42, Type (0, 1), BuildingBlock: CIFDUS_clean_linker_0, # of connection points: 2
#     Edge 43, Type (0, 1), BuildingBlock: CIFDUS_clean_linker_0, # of connection points: 2
#     Edge 44, Type (0, 1), BuildingBlock: CIFDUS_clean_linker_0, # of connection points: 2
#     Edge 45, Type (0, 1), BuildingBlock: CIFDUS_clean_linker_0, # of connection points: 2
#     Edge 46, Type (0, 1), BuildingBlock: CIFDUS_clean_linker_0, # of connection points: 2
#     Edge 47, Type (0, 1), BuildingBlock: CIFDUS_clean_linker_0, # of connection points: 2
# Relax obj value: 0.005
# Max RMSD: 0.114
# Mean RMSD: 0.054
data_MOF--net-ssb--node1-ESEHIV_clean_sbu_0--node2-KOZSID_clean_sbu_0--edge1-CIFDUS_clean_linker_0
_symmetry_space_group_name_H-M    P1
_symmetry_Int_Tables_number       1
_symmetry_cell_setting            triclinic
loop_
_symmetry_equiv_pos_as_xyz
'x, y, z'
_cell_length_a     49.297305
_cell_length_b     49.090782
_cell_length_c     36.128825
_cell_angle_alpha  92.705435
_cell_angle_beta   95.403141
_cell_angle_gamma 89.998288
loop_
_atom_site_label
_atom_site_type_symbol
_atom_site_fract_x
_atom_site_fract_y
_atom_site_fract_z
_atom_type_partial_charge
Cu0 Cu 0.29213 0.27111 0.30004 0.0
N1 N 0.28723 0.23231 0.30011 0.0
N2 N 0.28326 0.18962 0.32088 0.0
C3 C 0.28756 0.21659 0.33032 0.0
C4 C 0.28038 0.18863 0.28318 0.0
C5 C 0.28277 0.21463 0.27065 0.0
O6 O 0.27293 0.28498 0.34244 0.0
C7 C 0.34073 0.27123 0.26932 0.0
O8 O 0.32401 0.26004 0.24244 0.0
H9 H 0.29045 0.22491 0.35869 0.0
H10 H 0.28136 0.22021 0.24193 0.0
N11 N 0.27648 0.28951 0.25733 0.0
N12 N 0.26708 0.32306 0.21708 0.0
C13 C 0.28338 0.31474 0.24685 0.0
C14 C 0.25528 0.28167 0.23294 0.0
C15 C 0.24935 0.30222 0.20854 0.0
C16 C 0.24786 0.27768 0.33899 0.0
O17 O 0.23875 0.2636 0.30854 0.0
H18 H 0.29937 0.32719 0.26168 0.0
H19 H 0.24435 0.2626 0.23341 0.0
O20 O 0.3315 0.27802 0.30037 0.0
H21 H 0.27703 0.17034 0.26546 0.0
H22 H 0.23291 0.30203 0.18644 0.0
Cu23 Cu 0.80399 0.30399 0.28381 0.0
N24 N 0.78592 0.28866 0.2391 0.0
N25 N 0.75102 0.27843 0.1957 0.0
C26 C 0.75877 0.29064 0.22948 0.0
C27 C 0.77436 0.26831 0.18376 0.0
C28 C 0.79573 0.27457 0.21047 0.0
O29 O 0.7936 0.34237 0.28217 0.0
C30 C 0.79958 0.25824 0.31981 0.0
O31 O 0.8132 0.25118 0.29131 0.0
H32 H 0.74508 0.30137 0.24674 0.0
H33 H 0.81688 0.26919 0.20904 0.0
N34 N 0.8426 0.3008 0.28943 0.0
N35 N 0.88539 0.29852 0.31759 0.0
C36 C 0.8584 0.29963 0.3222 0.0
C37 C 0.86019 0.30028 0.26317 0.0
C38 C 0.88639 0.29884 0.2803 0.0
C39 C 0.8107 0.36201 0.28477 0.0
O40 O 0.83582 0.35776 0.29871 0.0
H41 H 0.85019 0.30036 0.34897 0.0
H42 H 0.85442 0.3013 0.23364 0.0
O43 O 0.79156 0.28287 0.32317 0.0
H44 H 0.77596 0.25693 0.15767 0.0
H45 H 0.90477 0.2981 0.26612 0.0
Cu46 Cu 0.78094 0.79401 0.26404 0.0
N47 N 0.79134 0.77213 0.22196 0.0
N48 N 0.79331 0.73445 0.18305 0.0
C49 C 0.78376 0.74563 0.21454 0.0
C50 C 0.80752 0.75507 0.17027 0.0
C51 C 0.80626 0.77801 0.19402 0.0
O52 O 0.74107 0.7909 0.25751 0.0
C53 C 0.82797 0.78193 0.3037 0.0
O54 O 0.83529 0.79221 0.27322 0.0
H55 H 0.77113 0.73492 0.23202 0.0
H56 H 0.81575 0.79753 0.19105 0.0
N57 N 0.78819 0.8325 0.26857 0.0
N58 N 0.78865 0.8761 0.29263 0.0
C59 C 0.78193 0.84967 0.29727 0.0
C60 C 0.7995 0.84867 0.24517 0.0
C61 C 0.79976 0.87527 0.25974 0.0
C62 C 0.7323 0.80104 0.22665 0.0
O63 O 0.75016 0.81254 0.20745 0.0
H64 H 0.77204 0.84293 0.32075 0.0
H65 H 0.80683 0.84174 0.2191 0.0
O66 O 0.80251 0.77988 0.30749 0.0
H67 H 0.81848 0.75379 0.1457 0.0
H68 H 0.80773 0.89268 0.24692 0.0
Cu69 Cu 0.26025 0.78177 0.2515 0.0
N70 N 0.27965 0.79758 0.2152 0.0
N71 N 0.31384 0.8029 0.17889 0.0
C72 C 0.30275 0.78699 0.20324 0.0
C73 C 0.29663 0.8243 0.17529 0.0
C74 C 0.27569 0.821 0.19768 0.0
O75 O 0.25914 0.74301 0.23733 0.0
C76 C 0.2958 0.81026 0.30649 0.0
O77 O 0.30957 0.81637 0.27863 0.0
H78 H 0.3117 0.76839 0.21358 0.0
H79 H 0.25917 0.83503 0.20151 0.0
N80 N 0.224 0.79359 0.25341 0.0
N81 N 0.18372 0.80002 0.277 0.0
C82 C 0.20896 0.78913 0.28196 0.0
C83 C 0.20774 0.80778 0.22937 0.0
C84 C 0.18296 0.81179 0.24382 0.0
C85 C 0.24679 0.73835 0.20502 0.0
O86 O 0.23543 0.759 0.18771 0.0
H87 H 0.21668 0.77846 0.30627 0.0
H88 H 0.21337 0.81464 0.20314 0.0
O89 O 0.27715 0.79213 0.30119 0.0
H90 H 0.29893 0.8414 0.15802 0.0
H91 H 0.16564 0.82232 0.23059 0.0
Cu92 Cu 0.28223 0.79037 0.7709 0.0
N93 N 0.31942 0.78196 0.77221 0.0
N94 N 0.3619 0.7784 0.79976 0.0
C95 C 0.33536 0.78234 0.80463 0.0
C96 C 0.36277 0.77541 0.76253 0.0
C97 C 0.33648 0.77752 0.74557 0.0
O98 O 0.27223 0.77331 0.8175 0.0
C99 C 0.28581 0.83636 0.7284 0.0
O100 O 0.29326 0.81614 0.70655 0.0
H101 H 0.32764 0.78656 0.83137 0.0
H102 H 0.33046 0.77654 0.71598 0.0
N103 N 0.25985 0.77377 0.73111 0.0
N104 N 0.22166 0.76657 0.69291 0.0
C105 C 0.23307 0.77925 0.72462 0.0
C106 C 0.26575 0.75693 0.70251 0.0
C107 C 0.24223 0.75247 0.67889 0.0
C108 C 0.27153 0.74699 0.81614 0.0
O109 O 0.27483 0.73414 0.78419 0.0
H110 H 0.22243 0.7931 0.74235 0.0
H111 H 0.28577 0.74886 0.69875 0.0
O112 O 0.27956 0.83047 0.76099 0.0
H113 H 0.38106 0.7721 0.74857 0.0
H114 H 0.24047 0.73982 0.65342 0.0
Cu115 Cu 0.30014 0.29068 0.79281 0.0
N116 N 0.30065 0.3287 0.79614 0.0
N117 N 0.3004 0.37075 0.8227 0.0
C118 C 0.29999 0.34373 0.82811 0.0
C119 C 0.3013 0.37271 0.78565 0.0
C120 C 0.30151 0.34668 0.76932 0.0
O121 O 0.32366 0.27829 0.83669 0.0
C122 C 0.24087 0.29284 0.779 0.0
O123 O 0.24269 0.31817 0.79238 0.0
H124 H 0.29872 0.33485 0.85474 0.0
H125 H 0.30221 0.34123 0.74007 0.0
N126 N 0.316 0.27687 0.75105 0.0
N127 N 0.32506 0.24479 0.70828 0.0
C128 C 0.30843 0.25273 0.73414 0.0
C129 C 0.33808 0.28475 0.73488 0.0
C130 C 0.34394 0.26469 0.70865 0.0
C131 C 0.34823 0.2874 0.83953 0.0
O132 O 0.35488 0.30431 0.81476 0.0
H133 H 0.29203 0.24035 0.74233 0.0
H134 H 0.34977 0.30312 0.74258 0.0
O135 O 0.26198 0.2776 0.78213 0.0
H136 H 0.30205 0.39153 0.77135 0.0
H137 H 0.36107 0.26434 0.69197 0.0
Cu138 Cu 0.77983 0.28325 0.78187 0.0
N139 N 0.81814 0.28151 0.7834 0.0
N140 N 0.85958 0.28292 0.76229 0.0
C141 C 0.83242 0.28598 0.7541 0.0
C142 C 0.86246 0.27621 0.79828 0.0
C143 C 0.83694 0.27545 0.81124 0.0
O144 O 0.76665 0.26087 0.73557 0.0
C145 C 0.78515 0.34161 0.80318 0.0
O146 O 0.81134 0.33833 0.80069 0.0
H147 H 0.82292 0.29105 0.72708 0.0
H148 H 0.83249 0.27094 0.83904 0.0
N149 N 0.76479 0.26745 0.82186 0.0
N150 N 0.73362 0.26255 0.86285 0.0
C151 C 0.73995 0.27455 0.83178 0.0
C152 C 0.77471 0.25007 0.84744 0.0
C153 C 0.75554 0.24697 0.87265 0.0
C154 C 0.77236 0.23525 0.7359 0.0
O155 O 0.78494 0.22619 0.76653 0.0
H156 H 0.7269 0.28858 0.8163 0.0
H157 H 0.79456 0.24066 0.84816 0.0
O158 O 0.76869 0.32215 0.79109 0.0
H159 H 0.88166 0.27253 0.81433 0.0
H160 H 0.75802 0.23472 0.89684 0.0
Cu161 Cu 0.76976 0.78027 0.76254 0.0
N162 N 0.76268 0.74274 0.7574 0.0
N163 N 0.7586 0.70099 0.77823 0.0
C164 C 0.76234 0.72765 0.78743 0.0
C165 C 0.75659 0.69889 0.74074 0.0
C166 C 0.75887 0.72487 0.72783 0.0
O167 O 0.75372 0.79089 0.80927 0.0
C168 C 0.81543 0.7768 0.72544 0.0
O169 O 0.79585 0.76749 0.70099 0.0
H170 H 0.76541 0.73607 0.81577 0.0
H171 H 0.75805 0.73018 0.69905 0.0
N172 N 0.75224 0.80062 0.72503 0.0
N173 N 0.74396 0.83719 0.69104 0.0
C174 C 0.75911 0.82657 0.71993 0.0
C175 C 0.73206 0.79424 0.69835 0.0
C176 C 0.72686 0.81681 0.67733 0.0
C177 C 0.72817 0.78545 0.80681 0.0
O178 O 0.71638 0.77653 0.7744 0.0
H179 H 0.77544 0.83713 0.73687 0.0
H180 H 0.7219 0.77465 0.69446 0.0
O181 O 0.80912 0.78489 0.75775 0.0
H182 H 0.75347 0.68008 0.72402 0.0
H183 H 0.71154 0.81804 0.65399 0.0
C184 C 0.09573 0.31244 0.62186 0.0
C185 C 0.10746 0.33738 0.63429 0.0
C186 C 0.09677 0.35642 0.61073 0.0
C187 C 0.07932 0.34222 0.58506 0.0
N188 N 0.07798 0.31539 0.59102 0.0
Co189 Co 0.05703 0.28777 0.55738 0.0
N190 N 0.03541 0.31633 0.53016 0.0
C191 C 0.04144 0.34312 0.53167 0.0
C192 C 0.02304 0.35818 0.51041 0.0
C193 C 1.00428 0.33972 0.49407 0.0
C194 C 0.01243 0.31428 0.50608 0.0
N195 N 0.03615 0.26025 0.52344 0.0
C196 C 0.01323 0.26287 0.49971 0.0
C197 C 1.00622 0.23827 0.48072 0.0
C198 C 0.02536 0.21968 0.49283 0.0
C199 C 0.043 0.23388 0.51838 0.0
N200 N 0.07873 0.25915 0.58442 0.0
C201 C 0.08006 0.2327 0.57295 0.0
C202 C 0.09584 0.21733 0.59726 0.0
C203 C 0.10555 0.23523 0.62559 0.0
C204 C 0.09549 0.26078 0.6167 0.0
N205 N 0.02908 0.28595 0.59276 0.0
C206 C 0.98822 0.28268 0.64208 0.0
C207 C 0.99997 0.2591 0.62714 0.0
C208 C 0.0201 0.26117 0.60254 0.0
C209 C 0.99741 0.308 0.63163 0.0
C210 C 0.01796 0.3092 0.60727 0.0
N211 N 0.08502 0.2894 0.52189 0.0
C212 C 0.09688 0.29023 0.45869 0.0
C213 C 0.12477 0.28814 0.47046 0.0
C214 C 0.13227 0.28778 0.50884 0.0
C215 C 0.1122 0.28851 0.53394 0.0
C216 C 0.07749 0.29068 0.48461 0.0
H217 H 0.11885 0.28774 0.56309 0.0
H218 H 0.05632 0.2916 0.47424 0.0
H219 H 0.02825 0.24256 0.59132 0.0
H220 H 0.02479 0.32896 0.60017 0.0
C221 C 0.0624 0.3537 0.55684 0.0
C222 C 0.10435 0.28627 0.63769 0.0
C223 C 0.99897 0.28861 0.49188 0.0
C224 C 0.06375 0.22248 0.54166 0.0
H225 H 0.12286 0.34145 0.65723 0.0
H226 H 0.10122 0.37806 0.61218 0.0
H227 H 0.02285 0.38006 0.50789 0.0
H228 H 0.98674 0.34448 0.4752 0.0
H229 H 0.98925 0.23426 0.45991 0.0
H230 H 0.02592 0.1982 0.48465 0.0
H231 H 0.09936 0.19558 0.59512 0.0
H232 H 0.11883 0.23001 0.64974 0.0
H233 H 0.99337 0.23906 0.63399 0.0
H234 H 0.98913 0.32679 0.64268 0.0
H235 H 0.0899 0.29122 0.42946 0.0
H236 H 0.15344 0.286 0.5195 0.0
C237 C 0.74169 0.0969 0.56256 0.0
C238 C 0.71614 0.10796 0.56621 0.0
C239 C 0.6984 0.09448 0.54027 0.0
C240 C 0.71395 0.07586 0.52234 0.0
N241 N 0.74058 0.07641 0.53545 0.0
Co242 Co 0.77015 0.05298 0.51589 0.0
N243 N 0.74454 0.03503 0.47512 0.0
C244 C 0.71776 0.04069 0.46798 0.0
C245 C 0.705 0.02476 0.43931 0.0
C246 C 0.72469 1.00768 0.4276 0.0
C247 C 0.74851 0.01413 0.44984 0.0
N248 N 0.79968 0.02926 0.49679 0.0
C249 C 0.79852 1.00858 0.47005 0.0
C250 C 0.8239 0.99687 0.46721 0.0
C251 C 0.84158 0.01009 0.49338 0.0
C252 C 0.82613 0.02913 0.51066 0.0
N253 N 0.79593 0.07125 0.55609 0.0
C254 C 0.82293 0.06628 0.56234 0.0
C255 C 0.83603 0.08291 0.58986 0.0
C256 C 0.81636 0.09983 0.60176 0.0
C257 C 0.79214 0.09245 0.58091 0.0
N258 N 0.762 0.02372 0.54948 0.0
C259 C 0.75183 0.97574 0.58583 0.0
C260 C 0.77782 0.98746 0.58915 0.0
C261 C 0.78242 0.01133 0.57092 0.0
C262 C 0.73068 0.98952 0.56638 0.0
C263 C 0.7361 0.01348 0.54905 0.0
N264 N 0.77819 0.08213 0.48214 0.0
C265 C 0.81043 0.11149 0.45671 0.0
C266 C 0.78931 0.12652 0.4391 0.0
C267 C 0.76256 0.11859 0.44271 0.0
C268 C 0.75752 0.09641 0.4639 0.0
C269 C 0.80447 0.08955 0.47788 0.0
H270 H 0.73669 0.09135 0.46522 0.0
H271 H 0.82146 0.07909 0.49079 0.0
H272 H 0.80281 0.01888 0.57359 0.0
H273 H 0.7191 0.02287 0.53455 0.0
C274 C 0.70473 0.05932 0.49096 0.0
C275 C 0.76634 0.1068 0.58536 0.0
C276 C 0.77397 0.99885 0.44703 0.0
C277 C 0.83563 0.04662 0.54073 0.0
H278 H 0.71095 0.12444 0.5852 0.0
H279 H 0.67685 0.09836 0.53444 0.0
H280 H 0.68366 0.02488 0.429 0.0
H281 H 0.7217 0.99178 0.40582 0.0
H282 H 0.82904 0.98023 0.44844 0.0
H283 H 0.86306 1.00598 0.49954 0.0
H284 H 0.8575 0.08318 0.5995 0.0
H285 H 0.81963 0.11615 0.6229 0.0
H286 H 0.79481 0.97764 0.60436 0.0
H287 H 0.71003 0.98162 0.56405 0.0
H288 H 0.83153 0.11686 0.45463 0.0
H289 H 0.74553 0.12919 0.4288 0.0
C290 C 0.06097 0.79812 0.57309 0.0
C291 C 0.07143 0.82287 0.58817 0.0
C292 C 0.05382 0.84253 0.57543 0.0
C293 C 0.03367 0.82874 0.55335 0.0
N294 N 0.03713 0.80141 0.55163 0.0
Co295 Co 0.01327 0.77386 0.52122 0.0
N296 N 0.98953 0.803 0.49826 0.0
C297 C 0.99299 0.83025 0.50408 0.0
C298 C 0.97368 0.8453 0.48447 0.0
C299 C 0.95663 0.82658 0.4653 0.0
C300 C 0.96638 0.80102 0.47463 0.0
N301 N 0.98912 0.74619 0.49142 0.0
C302 C 0.96543 0.74942 0.46956 0.0
C303 C 0.95396 0.72443 0.45695 0.0
C304 C 0.97094 0.7048 0.47107 0.0
C305 C 0.99161 0.71874 0.49175 0.0
N306 N 0.03737 0.74469 0.54352 0.0
C307 C 0.03444 0.71743 0.53713 0.0
C308 C 0.05484 0.70251 0.55475 0.0
C309 C 0.07224 0.72136 0.57291 0.0
C310 C 0.06139 0.74678 0.56518 0.0
N311 N 0.98895 0.77227 0.56252 0.0
C312 C 0.94804 0.76894 0.61244 0.0
C313 C 0.96143 0.74564 0.59981 0.0
C314 C 0.98161 0.74774 0.57531 0.0
C315 C 0.95703 0.79418 0.60179 0.0
C316 C 0.97742 0.79537 0.57717 0.0
N317 N 0.03753 0.77553 0.47997 0.0
C318 C 0.0646 0.75256 0.4353 0.0
C319 C 0.07629 0.7772 0.42666 0.0
C320 C 0.06733 0.8011 0.44429 0.0
C321 C 0.04813 0.79982 0.47052 0.0
C322 C 0.04539 0.7522 0.46157 0.0
H323 H 0.04259 0.81875 0.48336 0.0
H324 H 0.03748 0.73272 0.46696 0.0
H325 H 0.99038 0.72908 0.5663 0.0
H326 H 0.98287 0.81519 0.56948 0.0
C327 C 0.0133 0.84099 0.53032 0.0
C328 C 0.07526 0.77226 0.57789 0.0
C329 C 0.95249 0.77557 0.46112 0.0
C330 C 0.01293 0.70657 0.5131 0.0
H331 H 0.09032 0.82644 0.60553 0.0
H332 H 0.05612 0.86437 0.58023 0.0
H333 H 0.97181 0.86728 0.48482 0.0
H334 H 0.93874 0.83128 0.44703 0.0
H335 H 0.93493 0.72063 0.44004 0.0
H336 H 0.96814 0.68293 0.46755 0.0
H337 H 0.05717 0.68057 0.5537 0.0
H338 H 0.09111 0.71695 0.58932 0.0
H339 H 0.95582 0.72561 0.60799 0.0
H340 H 0.9475 0.81288 0.61091 0.0
H341 H 0.07025 0.73346 0.42191 0.0
H342 H 0.07569 0.82075 0.43881 0.0
C343 C 0.31624 0.98158 0.59356 0.0
C344 C 0.34169 0.9716 0.60588 0.0
C345 C 0.35959 0.98028 0.58215 0.0
C346 C 0.34428 0.99529 0.55687 0.0
N347 N 0.31789 0.99726 0.56355 0.0
Co348 Co 0.28925 0.0168 0.53205 0.0
N349 N 0.31652 0.03499 0.5036 0.0
C350 C 0.3427 0.02747 0.50267 0.0
C351 C 0.35686 0.04335 0.48077 0.0
C352 C 0.33846 0.0621 0.4669 0.0
C353 C 0.31401 0.05671 0.48131 0.0
N354 N 0.26076 0.03655 0.50056 0.0
C355 C 0.26281 0.05833 0.47876 0.0
C356 C 0.23729 0.06616 0.46345 0.0
C357 C 0.2188 0.04856 0.47545 0.0
C358 C 0.23388 0.03111 0.49765 0.0
N359 N 0.26178 0.99841 0.56025 0.0
C360 C 0.23474 0.99765 0.55029 0.0
C361 C 0.22047 0.98269 0.57311 0.0
C362 C 0.23969 0.97279 0.59877 0.0
C363 C 0.26477 0.98229 0.59025 0.0
N364 N 0.29156 0.04782 0.56824 0.0
C365 C 0.29458 0.09843 0.60828 0.0
C366 C 0.26968 0.08432 0.60073 0.0
C367 C 0.26856 0.05936 0.58028 0.0
C368 C 0.31812 0.08539 0.59741 0.0
C369 C 0.31622 0.05998 0.57841 0.0
N370 N 0.28734 0.9859 0.49529 0.0
C371 C 0.29042 0.93753 0.48151 0.0
C372 C 0.29204 0.9419 0.44381 0.0
C373 C 0.28982 0.96874 0.43213 0.0
C374 C 0.28737 0.99036 0.45821 0.0
C375 C 0.28798 0.95968 0.5066 0.0
H376 H 0.2863 0.01076 0.44842 0.0
H377 H 0.28749 0.95542 0.5353 0.0
H378 H 0.24893 0.04995 0.57315 0.0
H379 H 0.33473 0.05092 0.57028 0.0
C380 C 0.35418 1.00882 0.52764 0.0
C381 C 0.29084 0.97207 0.60781 0.0
C382 C 0.28854 0.07142 0.47094 0.0
C383 C 0.22332 0.0126 0.52079 0.0
H384 H 0.34655 0.95837 0.62868 0.0
H385 H 0.38116 0.97593 0.58304 0.0
H386 H 0.37828 0.04217 0.47653 0.0
H387 H 0.34256 0.07787 0.44821 0.0
H388 H 0.23238 0.08299 0.44578 0.0
H389 H 0.19684 0.04924 0.47001 0.0
H390 H 0.19869 0.97923 0.5712 0.0
H391 H 0.23573 0.95925 0.62043 0.0
H392 H 0.25091 0.0926 0.60966 0.0
H393 H 0.33797 0.09498 0.60189 0.0
H394 H 0.29208 0.91722 0.49197 0.0
H395 H 0.29031 0.97308 0.40309 0.0
C396 C 0.57712 0.82821 0.08786 0.0
C397 C 0.58577 0.85381 0.10215 0.0
C398 C 0.57156 0.87239 0.08109 0.0
C399 C 0.55519 0.85711 0.05521 0.0
N400 N 0.55752 0.82993 0.05905 0.0
Co401 Co 0.53936 0.80038 0.02525 0.0
N402 N 0.52078 0.82744 0.9916 0.0
C403 C 0.52078 0.85483 0.99766 0.0
C404 C 0.50459 0.86819 0.97149 0.0
C405 C 0.4932 0.84812 0.94754 0.0
C406 C 0.5033 0.82354 0.96037 0.0
N407 N 0.52282 0.77069 0.9902 0.0
C408 C 0.50646 0.77207 0.95797 0.0
C409 C 0.5005 0.7463 0.94171 0.0
C410 C 0.51299 0.72801 0.96491 0.0
C411 C 0.52606 0.74357 0.99367 0.0
N412 N 0.55672 0.77337 0.06002 0.0
C413 C 0.55268 0.74612 0.05785 0.0
C414 C 0.56759 0.73271 0.08527 0.0
C415 C 0.58231 0.75257 0.10594 0.0
C416 C 0.57548 0.77706 0.08988 0.0
N417 N 0.50624 0.80105 0.05379 0.0
C418 C 0.45587 0.80487 0.08635 0.0
C419 C 0.46387 0.78053 0.06873 0.0
C420 C 0.48896 0.779 0.05309 0.0
C421 C 0.47438 0.82664 0.08909 0.0
C422 C 0.499 0.82436 0.07288 0.0
N423 N 0.5721 0.80003 0.9967 0.0
C424 C 0.61071 0.7767 0.97287 0.0
C425 C 0.6195 0.80059 0.9576 0.0
C426 C 0.60386 0.82409 0.96242 0.0
C427 C 0.58064 0.82341 0.98192 0.0
C428 C 0.58713 0.77683 0.99195 0.0
H429 H 0.56985 0.84214 0.98469 0.0
H430 H 0.58142 0.75797 1.00282 0.0
H431 H 0.49359 0.75983 0.04004 0.0
H432 H 0.51154 0.84209 0.07593 0.0
C433 C 0.5373 0.86745 0.02707 0.0
C434 C 0.58893 0.80292 0.10173 0.0
C435 C 0.4949 0.79703 0.94275 0.0
C436 C 0.539 0.73344 0.02613 0.0
H437 H 0.60109 0.85847 0.12505 0.0
H438 H 0.57331 0.89439 0.0839 0.0
H439 H 0.50142 0.88994 0.97002 0.0
H440 H 0.47884 0.85124 0.9236 0.0
H441 H 0.48782 0.74122 0.9162 0.0
H442 H 0.51193 0.70599 0.96178 0.0
H443 H 0.56895 0.71092 0.08842 0.0
H444 H 0.5972 0.74915 0.12917 0.0
H445 H 0.45055 0.76287 0.06596 0.0
H446 H 0.4699 0.84568 0.1036 0.0
H447 H 0.62205 0.75792 0.97049 0.0
H448 H 0.60913 0.84305 0.95067 0.0
C449 C 0.24476 0.57588 0.0943 0.0
C450 C 0.21889 0.57993 0.1057 0.0
C451 C 0.20135 0.5651 0.08115 0.0
C452 C 0.21745 0.55276 0.0564 0.0
N453 N 0.24426 0.55857 0.06385 0.0
Co454 Co 0.27475 0.54464 0.03533 0.0
N455 N 0.24866 0.52501 0.997 0.0
C456 C 0.22117 0.52441 0.99618 0.0
C457 C 0.20867 0.50889 0.96698 0.0
C458 C 0.22939 0.49883 0.948 0.0
C459 C 0.25347 0.50892 0.96675 0.0
N460 N 0.30529 0.53041 1.00709 0.0
C461 C 0.3048 0.51363 0.9761 0.0
C462 C 0.33083 0.50872 0.9657 0.0
C463 C 0.34843 0.52248 0.99136 0.0
C464 C 0.33221 0.53505 0.01573 0.0
N465 N 0.30078 0.56466 0.07336 0.0
C466 C 0.32825 0.56535 0.07412 0.0
C467 C 0.34069 0.58186 0.10229 0.0
C468 C 0.31992 0.59272 0.12045 0.0
C469 C 0.29589 0.58197 0.10237 0.0
N470 N 0.27726 0.51098 0.06593 0.0
C471 C 0.28099 0.46235 0.1079 0.0
C472 C 0.30362 0.47949 0.10539 0.0
C473 C 0.30141 0.50307 0.08436 0.0
C474 C 0.25639 0.47064 0.08887 0.0
C475 C 0.25495 0.49467 0.06878 0.0
N476 N 0.27215 0.57814 1.00463 0.0
C477 C 0.29315 0.61553 0.97488 0.0
C478 C 0.26797 0.62382 0.95777 0.0
C479 C 0.24494 0.60919 0.96571 0.0
C480 C 0.24739 0.58704 0.98921 0.0
C481 C 0.2948 0.59278 0.9977 0.0
H482 H 0.22889 0.57715 0.99415 0.0
H483 H 0.31471 0.58712 1.009 0.0
H484 H 0.31967 0.51459 0.08338 0.0
H485 H 0.23544 0.49943 0.05551 0.0
C486 C 0.20782 0.53723 0.02457 0.0
C487 C 0.2689 0.58992 0.1124 0.0
C488 C 0.28038 0.50159 0.95581 0.0
C489 C 0.34168 0.55126 0.04693 0.0
H490 H 0.21328 0.59274 0.12896 0.0
H491 H 0.17939 0.56399 0.08081 0.0
H492 H 0.1871 0.50481 0.96078 0.0
H493 H 0.227 0.48511 0.92358 0.0
H494 H 0.33652 0.49634 0.94209 0.0
H495 H 0.37043 0.52315 0.99224 0.0
H496 H 0.36225 0.58609 0.10827 0.0
H497 H 0.32235 0.60738 0.14381 0.0
H498 H 0.32323 0.47505 0.11979 0.0
H499 H 0.23807 0.4585 0.08868 0.0
H500 H 0.31169 0.62587 0.96953 0.0
H501 H 0.2249 0.61472 0.95349 0.0
C502 C 0.49391 0.30031 0.99868 0.0
C503 C 0.48382 0.32543 0.98779 0.0
C504 C 0.49561 0.34474 0.0128 0.0
C505 C 0.51218 0.33051 0.03759 0.0
N506 N 0.512 0.30342 0.02946 0.0
Co507 Co 0.5316 0.27583 0.0606 0.0
N508 N 0.55514 0.30402 0.08892 0.0
C509 C 0.55014 0.33093 0.09112 0.0
C510 C 0.57043 0.34547 0.11204 0.0
C511 C 0.58941 0.32648 0.12364 0.0
C512 C 0.57958 0.30135 0.10906 0.0
N513 N 0.55143 0.24859 0.09183 0.0
C514 C 0.57625 0.25052 0.11165 0.0
C515 C 0.58293 0.22633 0.12854 0.0
C516 C 0.56155 0.20868 0.11875 0.0
C517 C 0.54305 0.22304 0.09651 0.0
N518 N 0.50785 0.2474 0.03263 0.0
C519 C 0.50461 0.22176 0.04335 0.0
C520 C 0.48632 0.20672 0.01972 0.0
C521 C 0.47699 0.22408 0.99279 0.0
C522 C 0.49 0.24893 1.00165 0.0
N523 N 0.55891 0.27123 0.02445 0.0
C524 C 0.60393 0.26414 0.98215 0.0
C525 C 0.58914 0.2417 0.99249 0.0
C526 C 0.56691 0.24565 0.01355 0.0
C527 C 0.59455 0.29031 0.99194 0.0
C528 C 0.57199 0.29338 0.01273 0.0
N529 N 0.50434 0.28035 0.09718 0.0
C530 C 0.49219 0.28532 0.16062 0.0
C531 C 0.46445 0.2874 0.14801 0.0
C532 C 0.45731 0.28528 0.10953 0.0
C533 C 0.4773 0.28182 0.0849 0.0
C534 C 0.51181 0.28195 0.13476 0.0
H535 H 0.47057 0.28038 0.05576 0.0
H536 H 0.53301 0.28078 0.14516 0.0
H537 H 0.55678 0.22789 0.02206 0.0
H538 H 0.56579 0.31374 0.02054 0.0
C539 C 0.52954 0.34199 0.06715 0.0
C540 C 0.48278 0.27407 0.9823 0.0
C541 C 0.5933 0.27527 0.11602 0.0
C542 C 0.52085 0.21189 0.07376 0.0
H543 H 0.46864 0.32938 0.96508 0.0
H544 H 0.49237 0.36655 0.01295 0.0
H545 H 0.572 0.36738 0.11662 0.0
H546 H 0.60839 0.33065 0.14053 0.0
H547 H 0.6014 0.22184 0.14576 0.0
H548 H 0.56036 0.18747 0.12541 0.0
H549 H 0.48059 0.18558 0.02163 0.0
H550 H 0.46181 0.21916 0.96983 0.0
H551 H 0.59486 0.22105 0.98485 0.0
H552 H 0.60512 0.3084 0.98489 0.0
H553 H 0.49874 0.28683 0.19011 0.0
H554 H 0.43618 0.28613 0.09827 0.0
C555 C 0.7584 0.57318 0.06134 0.0
C556 C 0.73397 0.58257 0.07319 0.0
C557 C 0.71494 0.56248 0.06336 0.0
C558 C 0.72863 0.54197 0.04591 0.0
N559 N 0.75507 0.54795 0.0439 0.0
Co560 Co 0.78169 0.52355 0.02045 0.0
N561 N 0.75255 0.50017 0.99289 0.0
C562 C 0.72623 0.5001 1.00002 0.0
C563 C 0.71032 0.48305 0.97581 0.0
C564 C 0.72772 0.47135 0.95225 0.0
C565 C 0.75357 0.48157 0.96368 0.0
N566 N 0.80846 0.49914 0.99759 0.0
C567 C 0.80506 0.47976 0.96924 0.0
C568 C 0.82937 0.46609 0.9651 0.0
C569 C 0.84848 0.47738 0.99135 0.0
C570 C 0.83491 0.4971 0.01036 0.0
N571 N 0.81082 0.54695 0.04768 0.0
C572 C 0.8371 0.53981 0.0543 0.0
C573 C 0.8527 0.55965 0.07417 0.0
C574 C 0.8351 0.58059 0.0807 0.0
C575 C 0.80963 0.57237 0.06435 0.0
N576 N 0.7823 0.49983 0.06291 0.0
C577 C 0.78119 0.46536 0.12276 0.0
C578 C 0.78374 0.4937 0.12902 0.0
C579 C 0.78406 0.51056 0.09875 0.0
C580 C 0.77969 0.45473 0.08597 0.0
C581 C 0.78041 0.47216 0.05666 0.0
N582 N 0.78085 0.54698 0.97815 0.0
C583 C 0.80386 0.5714 0.93392 0.0
C584 C 0.77887 0.58111 0.91804 0.0
C585 C 0.75497 0.57299 0.93254 0.0
C586 C 0.75639 0.55596 0.96241 0.0
C587 C 0.80441 0.55444 0.96408 0.0
H588 H 0.7376 0.55017 0.97282 0.0
H589 H 0.82387 0.54754 0.97621 0.0
H590 H 0.78551 0.5323 0.10439 0.0
H591 H 0.77929 0.4631 0.02885 0.0
C592 C 0.71666 0.51931 0.02563 0.0
C593 C 0.78453 0.5881 0.06854 0.0
C594 C 0.77883 0.47182 0.94812 0.0
C595 C 0.84686 0.51608 0.03717 0.0
H596 H 0.73022 0.60192 0.08735 0.0
H597 H 0.69342 0.56326 0.0671 0.0
H598 H 0.68846 0.48025 0.97445 0.0
H599 H 0.72181 0.45702 0.92929 0.0
H600 H 0.83288 0.44925 0.94577 0.0
H601 H 0.86981 0.47206 0.99568 0.0
H602 H 0.87441 0.55925 0.08218 0.0
H603 H 0.84029 0.59953 0.0963 0.0
H604 H 0.78491 0.50281 0.15702 0.0
H605 H 0.77821 0.43294 0.07978 0.0
H606 H 0.82285 0.57737 0.92372 0.0
H607 H 0.7352 0.57972 0.92082 0.0
H608 H 0.19598 0.26002 0.3374 0.0
H609 H 0.25651 0.30754 0.4064 0.0
H610 H 0.22383 0.31531 0.45325 0.0
H611 H 0.17756 0.30839 0.47423 0.0
H612 H 0.11894 0.25907 0.40404 0.0
H613 H 0.15137 0.25263 0.35797 0.0
C614 C 0.20224 0.27219 0.3626 0.0
C615 C 0.22879 0.28324 0.36818 0.0
C616 C 0.18352 0.27638 0.38922 0.0
C617 C 0.23626 0.2988 0.40125 0.0
C618 C 0.21754 0.30322 0.42804 0.0
C619 C 0.17192 0.29612 0.44896 0.0
C620 C 0.14544 0.28461 0.44267 0.0
C621 C 0.19104 0.29206 0.42235 0.0
C622 C 0.13868 0.26886 0.40951 0.0
C623 C 0.15737 0.2649 0.38314 0.0
H624 H 0.82533 0.2103 0.3266 0.0
H625 H 0.76373 0.2596 0.37414 0.0
H626 H 0.75534 0.22314 0.41605 0.0
H627 H 0.76488 0.17651 0.43751 0.0
H628 H 0.82673 0.12827 0.38865 0.0
H629 H 0.83578 0.1653 0.34889 0.0
C630 C 0.81 0.2132 0.34608 0.0
C631 C 0.79495 0.23753 0.34701 0.0
C632 C 0.80539 0.19233 0.36981 0.0
C633 C 0.77554 0.24103 0.37286 0.0
C634 C 0.77071 0.22017 0.39669 0.0
C635 C 0.78027 0.17415 0.41806 0.0
C636 C 0.79511 0.14964 0.416 0.0
C637 C 0.78536 0.1956 0.39512 0.0
C638 C 0.81526 0.14698 0.39107 0.0
C639 C 0.82033 0.16809 0.36818 0.0
H640 H 0.83377 0.79238 0.37974 0.0
H641 H 0.87247 0.75364 0.28904 0.0
H642 H 0.91416 0.7477 0.32965 0.0
H643 H 0.94132 0.75731 0.38921 0.0
H644 H 0.90377 0.7956 0.48096 0.0
H645 H 0.86033 0.79839 0.44196 0.0
C646 C 0.85109 0.78194 0.36932 0.0
C647 C 0.84996 0.77327 0.33148 0.0
C648 C 0.8755 0.77914 0.39283 0.0
C649 C 0.8728 0.76035 0.3181 0.0
C650 C 0.89676 0.75714 0.34122 0.0
C651 C 0.9235 0.76595 0.40072 0.0
C652 C 0.92571 0.7763 0.43778 0.0
C653 C 0.89862 0.76712 0.37831 0.0
C654 C 0.90253 0.78762 0.45237 0.0
C655 C 0.8777 0.78911 0.43012 0.0
H656 H 0.32423 0.85769 0.3181 0.0
H657 H 0.26771 0.80692 0.36829 0.0
H658 H 0.26214 0.84298 0.416 0.0
H659 H 0.27022 0.89044 0.44 0.0
H660 H 0.32584 0.9412 0.38817 0.0
H661 H 0.33426 0.90379 0.34399 0.0
C662 C 0.31101 0.85423 0.33979 0.0
C663 C 0.29636 0.82958 0.33944 0.0
C664 C 0.30722 0.87533 0.36636 0.0
C665 C 0.27929 0.82563 0.36784 0.0
C666 C 0.27591 0.84635 0.39497 0.0
C667 C 0.28441 0.89323 0.4193 0.0
C668 C 0.29712 0.91877 0.41721 0.0
C669 C 0.28925 0.87154 0.39393 0.0
C670 C 0.31528 0.92203 0.38995 0.0
C671 C 0.32033 0.90054 0.36487 0.0
H672 H 0.20221 0.76036 0.62021 0.0
H673 H 0.1774 0.77719 0.73032 0.0
H674 H 0.13017 0.78149 0.70451 0.0
H675 H 0.09535 0.77986 0.6505 0.0
H676 H 0.1198 0.76242 0.54064 0.0
H677 H 0.1675 0.75879 0.56626 0.0
C678 C 0.18648 0.76474 0.63861 0.0
C679 C 0.19358 0.76849 0.67726 0.0
C680 C 0.15918 0.76716 0.62352 0.0
C681 C 0.17278 0.77455 0.7005 0.0
C682 C 0.14564 0.7769 0.68575 0.0
C683 C 0.11125 0.77549 0.63231 0.0
C684 C 0.1043 0.77163 0.5938 0.0
C685 C 0.13857 0.77329 0.64733 0.0
C686 C 0.12487 0.76565 0.57037 0.0
C687 C 0.15207 0.76351 0.58503 0.0
H688 H 0.28205 0.22085 0.66949 0.0
H689 H 0.36685 0.20977 0.70547 0.0
H690 H 0.36464 0.16263 0.67954 0.0
H691 H 0.3379 0.1244 0.6496 0.0
H692 H 0.25437 0.1377 0.60582 0.0
H693 H 0.25647 0.18372 0.63335 0.0
C694 C 0.30003 0.20807 0.67111 0.0
C695 C 0.32458 0.21851 0.68912 0.0
C696 C 0.29866 0.18129 0.6556 0.0
C697 C 0.34789 0.20207 0.69125 0.0
C698 C 0.34651 0.17514 0.67676 0.0
C699 C 0.32019 0.13728 0.64509 0.0
C700 C 0.2959 0.12685 0.62565 0.0
C701 C 0.3219 0.16446 0.65916 0.0
C702 C 0.27318 0.1443 0.6215 0.0
C703 C 0.27441 0.17099 0.63679 0.0
H704 H 0.90829 0.25721 0.76421 0.0
H705 H 0.85908 0.31653 0.70478 0.0
H706 H 0.89464 0.32235 0.663 0.0
H707 H 0.93981 0.31023 0.6426 0.0
H708 H 0.98845 0.25012 0.70134 0.0
H709 H 0.95333 0.24514 0.74397 0.0
C710 C 0.90542 0.27157 0.74232 0.0
C711 C 0.8809 0.28639 0.73779 0.0
C712 C 0.92596 0.27469 0.7181 0.0
C713 C 0.87749 0.30461 0.70878 0.0
C714 C 0.89794 0.30807 0.68493 0.0
C715 C 0.94281 0.29622 0.66492 0.0
C716 C 0.96683 0.28057 0.66864 0.0
C717 C 0.92227 0.29318 0.68922 0.0
C718 C 0.97013 0.26224 0.69751 0.0
C719 C 0.95005 0.25943 0.72204 0.0
H720 H 0.72539 0.85475 0.62318 0.0
H721 H 0.76775 0.88164 0.72871 0.0
H722 H 0.77421 0.92652 0.7054 0.0
H723 H 0.76844 0.95844 0.65482 0.0
H724 H 0.72443 0.93242 0.55035 0.0
H725 H 0.71756 0.88726 0.57376 0.0
C726 C 0.73575 0.87041 0.64134 0.0
C727 C 0.74634 0.86435 0.6776 0.0
C728 C 0.73908 0.89655 0.62796 0.0
C729 C 0.75988 0.88518 0.70041 0.0
C730 C 0.76346 0.91109 0.6872 0.0
C731 C 0.75738 0.94284 0.63723 0.0
C732 C 0.74698 0.94874 0.60094 0.0
C733 C 0.75336 0.91696 0.65094 0.0
C734 C 0.73241 0.92845 0.57855 0.0
C735 C 0.72859 0.90258 0.59184 0.0
H736 H 0.83514 0.7439 0.67318 0.0
H737 H 0.85882 0.81125 0.75023 0.0
H738 H 0.9025 0.81478 0.72264 0.0
H739 H 0.9328 0.79991 0.67343 0.0
H740 H 0.9069 0.73235 0.59737 0.0
H741 H 0.86536 0.72783 0.6277 0.0
C742 C 0.84989 0.75931 0.68426 0.0
C743 C 0.84359 0.77741 0.71361 0.0
C744 C 0.87459 0.76126 0.66816 0.0
C745 C 0.86316 0.79696 0.72781 0.0
C746 C 0.88804 0.79909 0.71178 0.0
C747 C 0.91807 0.78419 0.66362 0.0
C748 C 0.92325 0.76637 0.63312 0.0
C749 C 0.89381 0.7816 0.68142 0.0
C750 C 0.90389 0.74604 0.62102 0.0
C751 C 0.87994 0.74351 0.63825 0.0
H752 H 0.2991 0.85042 0.6606 0.0
H753 H 0.27065 0.88648 0.76093 0.0
H754 H 0.26961 0.93149 0.7332 0.0
H755 H 0.27689 0.9609 0.67916 0.0
H756 H 0.3052 0.92244 0.58018 0.0
H757 H 0.30613 0.87842 0.6086 0.0
C758 C 0.29263 0.86798 0.67681 0.0
C759 C 0.28497 0.86463 0.71318 0.0
C760 C 0.29208 0.89366 0.66066 0.0
C761 C 0.27671 0.88808 0.73307 0.0
C762 C 0.27611 0.91392 0.71708 0.0
C763 C 0.28328 0.94284 0.66394 0.0
C764 C 0.29115 0.94525 0.62736 0.0
C765 C 0.28375 0.91705 0.68074 0.0
C766 C 0.29922 0.92148 0.60818 0.0
C767 C 0.29973 0.89616 0.62449 0.0
H768 H 0.18773 0.30884 0.7815 0.0
H769 H 0.23956 0.25911 0.7165 0.0
H770 H 0.20218 0.25224 0.66743 0.0
H771 H 0.15582 0.26389 0.64025 0.0
H772 H 0.10239 0.30943 0.70767 0.0
H773 H 0.1392 0.3147 0.75807 0.0
C774 C 0.19068 0.29605 0.75691 0.0
C775 C 0.21657 0.28456 0.75285 0.0
C776 C 0.16882 0.29176 0.72888 0.0
C777 C 0.21991 0.26802 0.72072 0.0
C778 C 0.19854 0.26427 0.69239 0.0
C779 C 0.15196 0.27429 0.66635 0.0
C780 C 0.1262 0.28624 0.67004 0.0
C781 C 0.17304 0.27649 0.69578 0.0
C782 C 0.12192 0.30009 0.70397 0.0
C783 C 0.14302 0.30312 0.73282 0.0
H784 H 0.77323 0.17984 0.73612 0.0
H785 H 0.75949 0.24505 0.66085 0.0
H786 H 0.75527 0.21145 0.60778 0.0
H787 H 0.75802 0.16288 0.58234 0.0
H788 H 0.7716 0.09886 0.65946 0.0
H789 H 0.77332 0.13242 0.71182 0.0
C790 C 0.76914 0.18691 0.70817 0.0
C791 C 0.76682 0.21527 0.70287 0.0
C792 C 0.76684 0.16745 0.67785 0.0
C793 C 0.76129 0.22357 0.66615 0.0
C794 C 0.75902 0.20425 0.63568 0.0
C795 C 0.76106 0.15634 0.61066 0.0
C796 C 0.76481 0.12819 0.61685 0.0
C797 C 0.76209 0.17606 0.64107 0.0
C798 C 0.76874 0.1202 0.6538 0.0
C799 C 0.76978 0.13946 0.68381 0.0
H800 H 0.88643 0.28158 0.38882 0.0
H801 H 0.93712 0.31549 0.31122 0.0
H802 H 0.97624 0.31501 0.3575 0.0
H803 H 0.99679 0.30518 0.42043 0.0
H804 H 0.94686 0.27184 0.49883 0.0
H805 H 0.9071 0.27191 0.45234 0.0
C806 C 0.90595 0.28904 0.38204 0.0
C807 C 0.90848 0.29841 0.34603 0.0
C808 C 0.92873 0.28884 0.40917 0.0
C809 C 0.93428 0.30771 0.33811 0.0
C810 C 0.95682 0.30762 0.36479 0.0
C811 C 0.97713 0.2981 0.42733 0.0
C812 C 0.9747 0.28883 0.46322 0.0
C813 C 0.95437 0.29823 0.4004 0.0
C814 C 0.9492 0.27928 0.47155 0.0
C815 C 0.92647 0.27933 0.44492 0.0
H816 H 0.78559 0.88019 0.36827 0.0
H817 H 0.78136 0.92793 0.27069 0.0
H818 H 0.77579 0.96939 0.30889 0.0
H819 H 0.77304 0.99317 0.37059 0.0
H820 H 0.7779 0.94624 0.46857 0.0
H821 H 0.78201 0.90405 0.43023 0.0
C822 C 0.78324 0.8996 0.35527 0.0
C823 C 0.78418 0.90051 0.31623 0.0
C824 C 0.7801 0.92386 0.37774 0.0
C825 C 0.78126 0.92622 0.30042 0.0
C826 C 0.77788 0.95014 0.32236 0.0
C827 C 0.77476 0.97366 0.38346 0.0
C828 C 0.77494 0.97296 0.42252 0.0
C829 C 0.77745 0.94936 0.3611 0.0
C830 C 0.77753 0.94744 0.43866 0.0
C831 C 0.77995 0.92325 0.41665 0.0
H832 H 0.17638 0.76289 0.32863 0.0
H833 H 0.14234 0.83616 0.28215 0.0
H834 H 0.10616 0.83555 0.32378 0.0
H835 H 0.08391 0.81429 0.37372 0.0
H836 H 0.11846 0.74139 0.42074 0.0
H837 H 0.15442 0.74187 0.37879 0.0
C838 C 0.16122 0.77888 0.32773 0.0
C839 C 0.1623 0.79954 0.302 0.0
C840 C 0.14034 0.77845 0.35192 0.0
C841 C 0.14203 0.81979 0.30113 0.0
C842 C 0.12133 0.81955 0.32517 0.0
C843 C 0.09939 0.79859 0.37501 0.0
C844 C 0.0982 0.77776 0.40048 0.0
C845 C 0.12023 0.79899 0.35073 0.0
C846 C 0.11841 0.75745 0.40118 0.0
C847 C 0.13918 0.75779 0.37729 0.0
H848 H 0.3034 0.1852 0.39425 0.0
H849 H 0.25818 0.14084 0.30243 0.0
H850 H 0.25608 0.1012 0.33971 0.0
H851 H 0.26746 0.0778 0.39824 0.0
H852 H 0.31146 0.12142 0.49117 0.0
H853 H 0.31365 0.16193 0.45411 0.0
C854 C 0.29291 0.16699 0.38238 0.0
C855 C 0.28131 0.16646 0.34483 0.0
C856 C 0.29153 0.14372 0.40441 0.0
C857 C 0.26792 0.14223 0.33054 0.0
C858 C 0.2665 0.11932 0.3521 0.0
C859 C 0.27721 0.09629 0.41058 0.0
C860 C 0.28889 0.09653 0.44786 0.0
C861 C 0.27832 0.11966 0.389 0.0
C862 C 0.30206 0.1206 0.4628 0.0
C863 C 0.30332 0.14384 0.4415 0.0
H864 H 0.71925 0.82402 0.86282 0.0
H865 H 0.70009 0.74159 0.82251 0.0
H866 H 0.66622 0.73812 0.86695 0.0
H867 H 0.63833 0.75987 0.91214 0.0
H868 H 0.65661 0.84234 0.9537 0.0
H869 H 0.69378 0.84452 0.9138 0.0
C870 C 0.70815 0.80513 0.8646 0.0
C871 C 0.71239 0.78299 0.83958 0.0
C872 C 0.6879 0.80346 0.88983 0.0
C873 C 0.6974 0.75883 0.84166 0.0
C874 C 0.67781 0.75688 0.86689 0.0
C875 C 0.65072 0.77819 0.91327 0.0
C876 C 0.6441 0.80099 0.93583 0.0
C877 C 0.67231 0.77929 0.8904 0.0
C878 C 0.6605 0.82459 0.93608 0.0
C879 C 0.68204 0.82583 0.9134 0.0
H880 H 0.24879 0.69673 0.81644 0.0
H881 H 0.29116 0.75738 0.89025 0.0
H882 H 0.29451 0.72495 0.94051 0.0
H883 H 0.28734 0.67766 0.96263 0.0
H884 H 0.24301 0.61881 0.88768 0.0
H885 H 0.23875 0.65186 0.83918 0.0
C886 C 0.25843 0.70312 0.8437 0.0
C887 C 0.26956 0.72974 0.84932 0.0
C888 C 0.26026 0.68433 0.87238 0.0
C889 C 0.28198 0.73736 0.885 0.0
C890 C 0.28417 0.71859 0.9137 0.0
C891 C 0.27673 0.67213 0.93569 0.0
C892 C 0.2656 0.64543 0.92905 0.0
C893 C 0.27377 0.69175 0.90762 0.0
C894 C 0.25169 0.63897 0.89391 0.0
C895 C 0.24924 0.65795 0.866 0.0
H896 H 0.4028 0.29168 0.83788 0.0
H897 H 0.34256 0.26672 0.90866 0.0
H898 H 0.37886 0.25919 0.95869 0.0
H899 H 0.42804 0.26248 0.98349 0.0
H900 H 0.48728 0.28698 0.91102 0.0
H901 H 0.45113 0.29202 0.86057 0.0
C902 C 0.39746 0.28445 0.86416 0.0
C903 C 0.36978 0.28 0.86944 0.0
C904 C 0.4184 0.28019 0.89261 0.0
C905 C 0.36355 0.2703 0.90366 0.0
C906 C 0.38437 0.26611 0.93235 0.0
C907 C 0.43298 0.26845 0.9564 0.0
C908 C 0.46043 0.27417 0.95088 0.0
C909 C 0.4119 0.27133 0.92733 0.0
C910 C 0.46646 0.2823 0.91585 0.0
C911 C 0.44575 0.28527 0.88707 0.0
H912 H 0.80391 0.39442 0.80849 0.0
H913 H 0.74772 0.34125 0.85471 0.0
H914 H 0.74032 0.37634 0.90327 0.0
H915 H 0.75335 0.42081 0.93644 0.0
H916 H 0.80543 0.47582 0.88584 0.0
H917 H 0.81122 0.44146 0.83595 0.0
C918 C 0.78954 0.39073 0.82866 0.0
C919 C 0.77633 0.36506 0.82759 0.0
C920 C 0.78497 0.41132 0.85629 0.0
C921 C 0.7579 0.36077 0.85427 0.0
C922 C 0.75387 0.38083 0.8824 0.0
C923 C 0.76515 0.42577 0.91384 0.0
C924 C 0.77874 0.45132 0.9151 0.0
C925 C 0.76769 0.40606 0.88421 0.0
C926 C 0.79471 0.45656 0.88586 0.0
C927 C 0.79805 0.43683 0.85721 0.0
H928 H 0.70224 0.28035 0.2254 0.0
H929 H 0.73802 0.27348 0.12093 0.0
H930 H 0.69275 0.27118 0.08722 0.0
H931 H 0.64239 0.27188 0.08687 0.0
H932 H 0.60654 0.27859 0.19099 0.0
H933 H 0.65201 0.28036 0.22516 0.0
C934 C 0.7002 0.27852 0.19527 0.0
C935 C 0.72384 0.27709 0.17597 0.0
C936 C 0.67387 0.27716 0.17585 0.0
C937 C 0.72047 0.27432 0.13679 0.0
C938 C 0.69446 0.27314 0.11736 0.0
C939 C 0.64466 0.27357 0.11705 0.0
C940 C 0.6212 0.275 0.13647 0.0
C941 C 0.67097 0.27455 0.13651 0.0
C942 C 0.62433 0.27732 0.17554 0.0
C943 C 0.65034 0.2784 0.19503 0.0
H944 H 0.80372 0.71458 0.11335 0.0
H945 H 0.77431 0.68988 0.21561 0.0
H946 H 0.76818 0.64343 0.18942 0.0
H947 H 0.77198 0.60863 0.1377 0.0
H948 H 0.80223 0.63303 0.03628 0.0
H949 H 0.80746 0.6801 0.06193 0.0
C950 C 0.79608 0.6992 0.13024 0.0
C951 C 0.78953 0.7065 0.16687 0.0
C952 C 0.79272 0.67203 0.11497 0.0
C953 C 0.77938 0.68564 0.18746 0.0
C954 C 0.77593 0.65874 0.17245 0.0
C955 C 0.77939 0.62435 0.12107 0.0
C956 C 0.78627 0.61723 0.08469 0.0
C957 C 0.78254 0.65157 0.13624 0.0
C958 C 0.79648 0.63786 0.06405 0.0
C959 C 0.79953 0.66484 0.07882 0.0
H960 H 0.3426 0.83976 0.14391 0.0
H961 H 0.34351 0.75594 0.17543 0.0
H962 H 0.3871 0.74914 0.15007 0.0
H963 H 0.42588 0.76704 0.11979 0.0
H964 H 0.42332 0.85013 0.08537 0.0
H965 H 0.37977 0.85684 0.11089 0.0
C966 C 0.35199 0.81986 0.14505 0.0
C967 C 0.33937 0.79857 0.16218 0.0
C968 C 0.37714 0.81586 0.12992 0.0
C969 C 0.35252 0.77304 0.16324 0.0
C970 C 0.37758 0.769 0.14845 0.0
C971 C 0.41573 0.78655 0.11747 0.0
C972 C 0.42843 0.80812 0.10099 0.0
C973 C 0.39022 0.7903 0.13187 0.0
C974 C 0.41471 0.83327 0.09866 0.0
C975 C 0.38954 0.83713 0.11303 0.0
H976 H 0.30906 0.35165 0.19276 0.0
H977 H 0.22266 0.35396 0.202 0.0
H978 H 0.21931 0.39716 0.17078 0.0
H979 H 0.24053 0.43426 0.14008 0.0
H980 H 0.32639 0.42987 0.12489 0.0
H981 H 0.3302 0.38853 0.1594 0.0
C982 C 0.28958 0.36178 0.18818 0.0
C983 C 0.26613 0.34948 0.20008 0.0
C984 C 0.28762 0.38654 0.16902 0.0
C985 C 0.241 0.36281 0.19324 0.0
C986 C 0.23908 0.3876 0.17531 0.0
C987 C 0.26015 0.42434 0.14361 0.0
C988 C 0.28311 0.43618 0.12945 0.0
C989 C 0.26219 0.39964 0.16273 0.0
C990 C 0.30823 0.42241 0.13572 0.0
C991 C 0.31048 0.39827 0.15538 0.0
H992 H 0.35448 0.30717 0.22085 0.0
H993 H 0.38877 0.2478 0.29547 0.0
H994 H 0.43197 0.24926 0.26664 0.0
H995 H 0.45754 0.26301 0.214 0.0
H996 H 0.42196 0.32261 0.14005 0.0
H997 H 0.38202 0.32562 0.17476 0.0
C998 C 0.37178 0.29527 0.23161 0.0
C999 C 0.36867 0.27773 0.26056 0.0
C1000 C 0.3962 0.29586 0.21439 0.0
C1001 C 0.39094 0.26193 0.27378 0.0
C1002 C 0.4155 0.26251 0.2569 0.0
C1003 C 0.44132 0.27707 0.20602 0.0
C1004 C 0.4426 0.29207 0.17378 0.0
C1005 C 0.41807 0.27873 0.22628 0.0
C1006 C 0.42131 0.31026 0.16402 0.0
C1007 C 0.39843 0.31211 0.18399 0.0
H1008 H 0.76956 0.36919 0.23024 0.0
H1009 H 0.8389 0.41021 0.29011 0.0
H1010 H 0.8344 0.44729 0.24711 0.0
H1011 H 0.8139 0.46554 0.18833 0.0
H1012 H 0.74609 0.423 0.12711 0.0
H1013 H 0.74692 0.38916 0.17459 0.0
C1014 C 0.78333 0.38653 0.23446 0.0
C1015 C 0.80457 0.38683 0.26345 0.0
C1016 C 0.78119 0.40736 0.20889 0.0
C1017 C 0.82238 0.40939 0.26808 0.0
C1018 C 0.81991 0.43056 0.24334 0.0
C1019 C 0.79903 0.44912 0.18575 0.0
C1020 C 0.78014 0.44668 0.15398 0.0
C1021 C 0.79989 0.42939 0.21298 0.0
C1022 C 0.76112 0.42513 0.15095 0.0
C1023 C 0.76151 0.40581 0.17818 0.0
H1024 H 0.71361 0.8126 0.15683 0.0
H1025 H 0.6861 0.7851 0.25871 0.0
H1026 H 0.63896 0.78336 0.22927 0.0
H1027 H 0.60553 0.79041 0.17395 0.0
H1028 H 0.63505 0.81669 0.07279 0.0
H1029 H 0.68158 0.81848 0.10278 0.0
C1030 C 0.69741 0.80625 0.17292 0.0
C1031 C 0.70347 0.79916 0.21015 0.0
C1032 C 0.6707 0.80518 0.15582 0.0
C1033 C 0.68207 0.79072 0.23009 0.0
C1034 C 0.65512 0.78976 0.21323 0.0
C1035 C 0.62229 0.79632 0.1586 0.0
C1036 C 0.61702 0.80332 0.12116 0.0
C1037 C 0.64918 0.79702 0.17606 0.0
C1038 C 0.63871 0.81124 0.10156 0.0
C1039 C 0.66526 0.81222 0.11868 0.0
H1040 H 0.26777 0.6898 0.23013 0.0
H1041 H 0.22668 0.72627 0.13381 0.0
H1042 H 0.22958 0.68378 0.09746 0.0
H1043 H 0.24536 0.63676 0.09149 0.0
H1044 H 0.28461 0.59855 0.18697 0.0
H1045 H 0.28096 0.641 0.22507 0.0
C1046 C 0.2593 0.68834 0.20129 0.0
C1047 C 0.24721 0.71136 0.18482 0.0
C1048 C 0.26087 0.66355 0.18022 0.0
C1049 C 0.2362 0.70903 0.14739 0.0
C1050 C 0.23786 0.68469 0.12638 0.0
C1051 C 0.25291 0.63777 0.12073 0.0
C1052 C 0.26558 0.61494 0.13642 0.0
C1053 C 0.25039 0.66196 0.14232 0.0
C1054 C 0.27513 0.61619 0.17434 0.0
C1055 C 0.27298 0.64038 0.19604 0.0
H1056 H 0.41368 0.79578 0.79555 0.0
H1057 H 0.36038 0.76191 0.86973 0.0
H1058 H 0.39672 0.76492 0.92048 0.0
H1059 H 0.44357 0.77792 0.94449 0.0
H1060 H 0.49724 0.81172 0.87111 0.0
H1061 H 0.46109 0.80806 0.81944 0.0
C1062 C 0.41015 0.78879 0.8227 0.0
C1063 C 0.38423 0.77874 0.82878 0.0
C1064 C 0.43121 0.79075 0.85202 0.0
C1065 C 0.37995 0.77006 0.86435 0.0
C1066 C 0.40077 0.7717 0.89341 0.0
C1067 C 0.44722 0.78445 0.91711 0.0
C1068 C 0.47284 0.79518 0.91145 0.0
C1069 C 0.42639 0.78221 0.88769 0.0
C1070 C 0.47754 0.80356 0.87598 0.0
C1071 C 0.45692 0.80138 0.84651 0.0
H1072 H 0.2821 0.42219 0.81315 0.0
H1073 H 0.31714 0.36868 0.89612 0.0
H1074 H 0.31382 0.40442 0.94448 0.0
H1075 H 0.30029 0.45079 0.96375 0.0
H1076 H 0.26666 0.50499 0.88127 0.0
H1077 H 0.2703 0.46928 0.83208 0.0
C1078 C 0.28931 0.41842 0.84169 0.0
C1079 C 0.2996 0.39258 0.85085 0.0
C1080 C 0.28753 0.43922 0.86951 0.0
C1081 C 0.3086 0.38809 0.8882 0.0
C1082 C 0.30688 0.40861 0.91595 0.0
C1083 C 0.29388 0.45467 0.93492 0.0
C1084 C 0.28308 0.4802 0.92588 0.0
C1085 C 0.2962 0.43416 0.90699 0.0
C1086 C 0.27487 0.48529 0.88861 0.0
C1087 C 0.27699 0.46493 0.86062 0.0
H1088 H 0.7144 0.23068 0.91445 0.0
H1089 H 0.69689 0.30396 0.85512 0.0
H1090 H 0.65538 0.31039 0.8856 0.0
H1091 H 0.62346 0.29542 0.92899 0.0
H1092 H 0.64242 0.22392 0.99152 0.0
H1093 H 0.68349 0.21678 0.95988 0.0
C1094 C 0.70173 0.2482 0.90827 0.0
C1095 C 0.70908 0.26655 0.8819 0.0
C1096 C 0.67779 0.25215 0.92646 0.0
C1097 C 0.6919 0.28901 0.87445 0.0
C1098 C 0.66805 0.2929 0.89218 0.0
C1099 C 0.63663 0.2784 0.93609 0.0
C1100 C 0.62934 0.26013 0.96257 0.0
C1101 C 0.66071 0.27459 0.9182 0.0
C1102 C 0.64683 0.23804 0.97075 0.0
C1103 C 0.67061 0.23403 0.95284 0.0
H1104 H 0.78509 0.65298 0.77762 0.0
H1105 H 0.73008 0.70227 0.83771 0.0
H1106 H 0.73097 0.66902 0.886 0.0
H1107 H 0.74907 0.62721 0.91264 0.0
H1108 H 0.80583 0.57823 0.8549 0.0
H1109 H 0.80304 0.61014 0.80447 0.0
C1110 C 0.77304 0.65605 0.80105 0.0
C1111 C 0.75736 0.67982 0.80416 0.0
C1112 C 0.77431 0.63714 0.82932 0.0
C1113 C 0.7422 0.68404 0.8349 0.0
C1114 C 0.74279 0.66511 0.8625 0.0
C1115 C 0.76061 0.62335 0.88882 0.0
C1116 C 0.77751 0.60035 0.8874 0.0
C1117 C 0.75904 0.64179 0.86024 0.0
C1118 C 0.7928 0.59592 0.85674 0.0
C1119 C 0.79109 0.61406 0.82782 0.0
loop_
_geom_bond_atom_site_label_1
_geom_bond_atom_site_label_2
_geom_bond_distance
_geom_bond_site_symmetry_2
_ccdc_geom_bond_type
Cu0 N1 1.999 . S
Cu0 O6 1.974 . S
Cu0 N11 1.985 . S
Cu0 O20 1.959 . S
N1 Cu0 1.999 . S
N1 C3 1.263 . S
N1 C5 1.389 . S
N2 C3 1.358 . S
N2 C4 1.400 . S
C3 N1 1.263 . S
C3 N2 1.358 . S
C3 H9 0.930 . S
C4 N2 1.400 . S
C4 C5 1.351 . S
C4 H21 0.930 . S
C5 N1 1.389 . S
C5 C4 1.351 . S
C5 H10 0.930 . S
O6 Cu0 1.974 . S
O6 C16 1.282 . S
C7 O8 1.261 . S
C7 O20 1.251 . S
O8 C7 1.261 . S
H9 C3 0.930 . S
H10 C5 0.930 . S
N11 Cu0 1.985 . S
N11 C13 1.335 . S
N11 C14 1.390 . S
N12 C13 1.345 . S
N12 C15 1.336 . S
C13 N11 1.335 . S
C13 N12 1.345 . S
C13 H18 0.930 . S
C14 N11 1.390 . S
C14 C15 1.346 . S
C14 H19 0.930 . S
C15 N12 1.336 . S
C15 C14 1.346 . S
C15 H22 0.929 . S
C16 O6 1.282 . S
C16 O17 1.216 . S
O17 C16 1.216 . S
H18 C13 0.930 . S
H19 C14 0.930 . S
O20 Cu0 1.959 . S
O20 C7 1.251 . S
H21 C4 0.930 . S
H22 C15 0.929 . S
Cu23 N24 1.999 . S
Cu23 O29 1.974 . S
Cu23 N34 1.985 . S
Cu23 O43 1.959 . S
N24 Cu23 1.999 . S
N24 C26 1.263 . S
N24 C28 1.389 . S
N25 C26 1.358 . S
N25 C27 1.400 . S
C26 N24 1.263 . S
C26 N25 1.358 . S
C26 H32 0.930 . S
C27 N25 1.400 . S
C27 C28 1.351 . S
C27 H44 0.930 . S
C28 N24 1.389 . S
C28 C27 1.351 . S
C28 H33 0.930 . S
O29 Cu23 1.974 . S
O29 C39 1.282 . S
C30 O31 1.261 . S
C30 O43 1.251 . S
O31 C30 1.261 . S
H32 C26 0.930 . S
H33 C28 0.930 . S
N34 Cu23 1.985 . S
N34 C36 1.335 . S
N34 C37 1.390 . S
N35 C36 1.345 . S
N35 C38 1.336 . S
C36 N34 1.335 . S
C36 N35 1.345 . S
C36 H41 0.930 . S
C37 N34 1.390 . S
C37 C38 1.346 . S
C37 H42 0.930 . S
C38 N35 1.336 . S
C38 C37 1.346 . S
C38 H45 0.929 . S
C39 O29 1.282 . S
C39 O40 1.216 . S
O40 C39 1.216 . S
H41 C36 0.930 . S
H42 C37 0.930 . S
O43 Cu23 1.959 . S
O43 C30 1.251 . S
H44 C27 0.930 . S
H45 C38 0.929 . S
Cu46 N47 1.999 . S
Cu46 O52 1.974 . S
Cu46 N57 1.985 . S
Cu46 O66 1.959 . S
N47 Cu46 1.999 . S
N47 C49 1.263 . S
N47 C51 1.389 . S
N48 C49 1.358 . S
N48 C50 1.400 . S
C49 N47 1.263 . S
C49 N48 1.358 . S
C49 H55 0.930 . S
C50 N48 1.400 . S
C50 C51 1.351 . S
C50 H67 0.930 . S
C51 N47 1.389 . S
C51 C50 1.351 . S
C51 H56 0.930 . S
O52 Cu46 1.974 . S
O52 C62 1.282 . S
C53 O54 1.261 . S
C53 O66 1.251 . S
O54 C53 1.261 . S
H55 C49 0.930 . S
H56 C51 0.930 . S
N57 Cu46 1.985 . S
N57 C59 1.335 . S
N57 C60 1.390 . S
N58 C59 1.345 . S
N58 C61 1.336 . S
C59 N57 1.335 . S
C59 N58 1.345 . S
C59 H64 0.930 . S
C60 N57 1.390 . S
C60 C61 1.346 . S
C60 H65 0.930 . S
C61 N58 1.336 . S
C61 C60 1.346 . S
C61 H68 0.929 . S
C62 O52 1.282 . S
C62 O63 1.216 . S
O63 C62 1.216 . S
H64 C59 0.930 . S
H65 C60 0.930 . S
O66 Cu46 1.959 . S
O66 C53 1.251 . S
H67 C50 0.930 . S
H68 C61 0.929 . S
Cu69 N70 1.999 . S
Cu69 O75 1.974 . S
Cu69 N80 1.985 . S
Cu69 O89 1.959 . S
N70 Cu69 1.999 . S
N70 C72 1.263 . S
N70 C74 1.389 . S
N71 C72 1.358 . S
N71 C73 1.400 . S
C72 N70 1.263 . S
C72 N71 1.358 . S
C72 H78 0.930 . S
C73 N71 1.400 . S
C73 C74 1.351 . S
C73 H90 0.930 . S
C74 N70 1.389 . S
C74 C73 1.351 . S
C74 H79 0.930 . S
O75 Cu69 1.974 . S
O75 C85 1.282 . S
C76 O77 1.261 . S
C76 O89 1.251 . S
O77 C76 1.261 . S
H78 C72 0.930 . S
H79 C74 0.930 . S
N80 Cu69 1.985 . S
N80 C82 1.335 . S
N80 C83 1.390 . S
N81 C82 1.345 . S
N81 C84 1.336 . S
C82 N80 1.335 . S
C82 N81 1.345 . S
C82 H87 0.930 . S
C83 N80 1.390 . S
C83 C84 1.346 . S
C83 H88 0.930 . S
C84 N81 1.336 . S
C84 C83 1.346 . S
C84 H91 0.929 . S
C85 O75 1.282 . S
C85 O86 1.216 . S
O86 C85 1.216 . S
H87 C82 0.930 . S
H88 C83 0.930 . S
O89 Cu69 1.959 . S
O89 C76 1.251 . S
H90 C73 0.930 . S
H91 C84 0.929 . S
Cu92 N93 1.999 . S
Cu92 O98 1.974 . S
Cu92 N103 1.985 . S
Cu92 O112 1.959 . S
N93 Cu92 1.999 . S
N93 C95 1.263 . S
N93 C97 1.389 . S
N94 C95 1.358 . S
N94 C96 1.400 . S
C95 N93 1.263 . S
C95 N94 1.358 . S
C95 H101 0.930 . S
C96 N94 1.400 . S
C96 C97 1.351 . S
C96 H113 0.930 . S
C97 N93 1.389 . S
C97 C96 1.351 . S
C97 H102 0.930 . S
O98 Cu92 1.974 . S
O98 C108 1.282 . S
C99 O100 1.261 . S
C99 O112 1.251 . S
O100 C99 1.261 . S
H101 C95 0.930 . S
H102 C97 0.930 . S
N103 Cu92 1.985 . S
N103 C105 1.335 . S
N103 C106 1.390 . S
N104 C105 1.345 . S
N104 C107 1.336 . S
C105 N103 1.335 . S
C105 N104 1.345 . S
C105 H110 0.930 . S
C106 N103 1.390 . S
C106 C107 1.346 . S
C106 H111 0.930 . S
C107 N104 1.336 . S
C107 C106 1.346 . S
C107 H114 0.929 . S
C108 O98 1.282 . S
C108 O109 1.216 . S
O109 C108 1.216 . S
H110 C105 0.930 . S
H111 C106 0.930 . S
O112 Cu92 1.959 . S
O112 C99 1.251 . S
H113 C96 0.930 . S
H114 C107 0.929 . S
Cu115 N116 1.999 . S
Cu115 O121 1.974 . S
Cu115 N126 1.985 . S
Cu115 O135 1.959 . S
N116 Cu115 1.999 . S
N116 C118 1.263 . S
N116 C120 1.389 . S
N117 C118 1.358 . S
N117 C119 1.400 . S
C118 N116 1.263 . S
C118 N117 1.358 . S
C118 H124 0.930 . S
C119 N117 1.400 . S
C119 C120 1.351 . S
C119 H136 0.930 . S
C120 N116 1.389 . S
C120 C119 1.351 . S
C120 H125 0.930 . S
O121 Cu115 1.974 . S
O121 C131 1.282 . S
C122 O123 1.261 . S
C122 O135 1.251 . S
O123 C122 1.261 . S
H124 C118 0.930 . S
H125 C120 0.930 . S
N126 Cu115 1.985 . S
N126 C128 1.335 . S
N126 C129 1.390 . S
N127 C128 1.345 . S
N127 C130 1.336 . S
C128 N126 1.335 . S
C128 N127 1.345 . S
C128 H133 0.930 . S
C129 N126 1.390 . S
C129 C130 1.346 . S
C129 H134 0.930 . S
C130 N127 1.336 . S
C130 C129 1.346 . S
C130 H137 0.929 . S
C131 O121 1.282 . S
C131 O132 1.216 . S
O132 C131 1.216 . S
H133 C128 0.930 . S
H134 C129 0.930 . S
O135 Cu115 1.959 . S
O135 C122 1.251 . S
H136 C119 0.930 . S
H137 C130 0.929 . S
Cu138 N139 1.999 . S
Cu138 O144 1.974 . S
Cu138 N149 1.985 . S
Cu138 O158 1.959 . S
N139 Cu138 1.999 . S
N139 C141 1.263 . S
N139 C143 1.389 . S
N140 C141 1.358 . S
N140 C142 1.400 . S
C141 N139 1.263 . S
C141 N140 1.358 . S
C141 H147 0.930 . S
C142 N140 1.400 . S
C142 C143 1.351 . S
C142 H159 0.930 . S
C143 N139 1.389 . S
C143 C142 1.351 . S
C143 H148 0.930 . S
O144 Cu138 1.974 . S
O144 C154 1.282 . S
C145 O146 1.261 . S
C145 O158 1.251 . S
O146 C145 1.261 . S
H147 C141 0.930 . S
H148 C143 0.930 . S
N149 Cu138 1.985 . S
N149 C151 1.335 . S
N149 C152 1.390 . S
N150 C151 1.345 . S
N150 C153 1.336 . S
C151 N149 1.335 . S
C151 N150 1.345 . S
C151 H156 0.930 . S
C152 N149 1.390 . S
C152 C153 1.346 . S
C152 H157 0.930 . S
C153 N150 1.336 . S
C153 C152 1.346 . S
C153 H160 0.929 . S
C154 O144 1.282 . S
C154 O155 1.216 . S
O155 C154 1.216 . S
H156 C151 0.930 . S
H157 C152 0.930 . S
O158 Cu138 1.959 . S
O158 C145 1.251 . S
H159 C142 0.930 . S
H160 C153 0.929 . S
Cu161 N162 1.999 . S
Cu161 O167 1.974 . S
Cu161 N172 1.985 . S
Cu161 O181 1.959 . S
N162 Cu161 1.999 . S
N162 C164 1.263 . S
N162 C166 1.389 . S
N163 C164 1.358 . S
N163 C165 1.400 . S
C164 N162 1.263 . S
C164 N163 1.358 . S
C164 H170 0.930 . S
C165 N163 1.400 . S
C165 C166 1.351 . S
C165 H182 0.930 . S
C166 N162 1.389 . S
C166 C165 1.351 . S
C166 H171 0.930 . S
O167 Cu161 1.974 . S
O167 C177 1.282 . S
C168 O169 1.261 . S
C168 O181 1.251 . S
O169 C168 1.261 . S
H170 C164 0.930 . S
H171 C166 0.930 . S
N172 Cu161 1.985 . S
N172 C174 1.335 . S
N172 C175 1.390 . S
N173 C174 1.345 . S
N173 C176 1.336 . S
C174 N172 1.335 . S
C174 N173 1.345 . S
C174 H179 0.930 . S
C175 N172 1.390 . S
C175 C176 1.346 . S
C175 H180 0.930 . S
C176 N173 1.336 . S
C176 C175 1.346 . S
C176 H183 0.929 . S
C177 O167 1.282 . S
C177 O178 1.216 . S
O178 C177 1.216 . S
H179 C174 0.930 . S
H180 C175 0.930 . S
O181 Cu161 1.959 . S
O181 C168 1.251 . S
H182 C165 0.930 . S
H183 C176 0.929 . S
C184 C185 1.443 . S
C184 N188 1.376 . S
C184 C222 1.389 . S
C185 C184 1.443 . S
C185 C186 1.340 . S
C185 H225 0.951 . S
C186 C185 1.340 . S
C186 C187 1.439 . S
C186 H226 0.950 . S
C187 C186 1.439 . S
C187 N188 1.374 . S
C187 C221 1.395 . S
N188 C184 1.376 . S
N188 C187 1.374 . S
N188 Co189 2.008 . S
Co189 N188 2.008 . S
Co189 N190 1.995 . S
Co189 N195 2.008 . S
Co189 N200 1.995 . S
Co189 N205 2.282 . S
Co189 N211 2.282 . S
N190 Co189 1.995 . S
N190 C191 1.376 . S
N190 C194 1.384 1_455 S
C191 N190 1.376 . S
C191 C192 1.446 . S
C191 C221 1.391 . S
C192 C191 1.446 . S
C192 C193 1.339 1_455 S
C192 H227 0.949 . S
C193 C192 1.339 1_655 S
C193 C194 1.438 . S
C193 H228 0.950 . S
C194 N190 1.384 1_655 S
C194 C193 1.438 . S
C194 C223 1.392 . S
N195 Co189 2.008 . S
N195 C196 1.376 1_455 S
N195 C199 1.374 . S
C196 N195 1.376 1_655 S
C196 C197 1.443 . S
C196 C223 1.389 . S
C197 C196 1.443 . S
C197 C198 1.340 . S
C197 H229 0.951 . S
C198 C197 1.340 . S
C198 C199 1.439 1_655 S
C198 H230 0.950 . S
C199 N195 1.374 . S
C199 C198 1.439 1_455 S
C199 C224 1.395 . S
N200 Co189 1.995 . S
N200 C201 1.376 . S
N200 C204 1.383 . S
C201 N200 1.376 . S
C201 C202 1.446 . S
C201 C224 1.391 . S
C202 C201 1.446 . S
C202 C203 1.339 . S
C202 H231 0.949 . S
C203 C202 1.339 . S
C203 C204 1.439 . S
C203 H232 0.950 . S
C204 N200 1.383 . S
C204 C203 1.439 . S
C204 C222 1.392 . S
N205 Co189 2.282 . S
N205 C208 1.332 . S
N205 C210 1.332 1_455 S
C206 C207 1.386 . S
C206 C209 1.388 . S
C207 C206 1.386 . S
C207 C208 1.382 1_655 S
C207 H233 0.950 . S
C208 N205 1.332 . S
C208 C207 1.382 1_455 S
C208 H219 0.952 . S
C209 C206 1.388 . S
C209 C210 1.382 . S
C209 H234 0.950 . S
C210 N205 1.332 1_655 S
C210 C209 1.382 . S
C210 H220 0.938 1_655 S
N211 Co189 2.282 . S
N211 C215 1.332 . S
N211 C216 1.332 . S
C212 C213 1.388 . S
C212 C216 1.382 . S
C212 H235 0.950 . S
C213 C212 1.388 . S
C213 C214 1.386 . S
C214 C213 1.386 . S
C214 C215 1.382 . S
C214 H236 0.950 . S
C215 N211 1.332 . S
C215 C214 1.382 . S
C215 H217 0.952 . S
C216 N211 1.332 . S
C216 C212 1.382 . S
C216 H218 0.948 . S
H217 C215 0.952 . S
H218 C216 0.948 . S
H219 C208 0.952 . S
H220 C210 0.938 1_455 S
C221 C187 1.395 . S
C221 C191 1.391 . S
C222 C184 1.389 . S
C222 C204 1.392 . S
C223 C194 1.392 . S
C223 C196 1.389 . S
C224 C199 1.395 . S
C224 C201 1.391 . S
H225 C185 0.951 . S
H226 C186 0.950 . S
H227 C192 0.949 . S
H228 C193 0.950 . S
H229 C197 0.951 . S
H230 C198 0.950 . S
H231 C202 0.949 . S
H232 C203 0.950 . S
H233 C207 0.950 . S
H234 C209 0.950 . S
H235 C212 0.950 . S
H236 C214 0.950 . S
C237 C238 1.443 . S
C237 N241 1.376 . S
C237 C275 1.389 . S
C238 C237 1.443 . S
C238 C239 1.340 . S
C238 H278 0.951 . S
C239 C238 1.340 . S
C239 C240 1.439 . S
C239 H279 0.950 . S
C240 C239 1.439 . S
C240 N241 1.374 . S
C240 C274 1.395 . S
N241 C237 1.376 . S
N241 C240 1.374 . S
N241 Co242 2.008 . S
Co242 N241 2.008 . S
Co242 N243 1.995 . S
Co242 N248 2.008 . S
Co242 N253 1.995 . S
Co242 N258 2.282 . S
Co242 N264 2.282 . S
N243 Co242 1.995 . S
N243 C244 1.376 . S
N243 C247 1.403 . S
C244 N243 1.376 . S
C244 C245 1.446 . S
C244 C274 1.391 . S
C245 C244 1.446 . S
C245 C246 1.339 1_545 S
C245 H280 0.949 . S
C246 C245 1.339 1_565 S
C246 C247 1.431 1_565 S
C246 H281 0.950 . S
C247 N243 1.403 . S
C247 C246 1.431 1_545 S
C247 C276 1.381 1_545 S
N248 Co242 2.008 . S
N248 C249 1.376 1_545 S
N248 C252 1.374 . S
C249 N248 1.376 1_565 S
C249 C250 1.443 . S
C249 C276 1.389 . S
C250 C249 1.443 . S
C250 C251 1.340 . S
C250 H282 0.951 . S
C251 C250 1.340 . S
C251 C252 1.439 1_565 S
C251 H283 0.950 . S
C252 N248 1.374 . S
C252 C251 1.439 1_545 S
C252 C277 1.395 . S
N253 Co242 1.995 . S
N253 C254 1.376 . S
N253 C257 1.383 . S
C254 N253 1.376 . S
C254 C255 1.446 . S
C254 C277 1.391 . S
C255 C254 1.446 . S
C255 C256 1.339 . S
C255 H284 0.949 . S
C256 C255 1.339 . S
C256 C257 1.439 . S
C256 H285 0.950 . S
C257 N253 1.383 . S
C257 C256 1.439 . S
C257 C275 1.392 . S
N258 Co242 2.282 . S
N258 C261 1.332 . S
N258 C263 1.332 1_545 S
C259 C260 1.386 . S
C259 C262 1.388 . S
C260 C259 1.386 . S
C260 C261 1.382 1_565 S
C260 H286 0.950 . S
C261 N258 1.332 . S
C261 C260 1.382 1_545 S
C261 H272 0.952 . S
C262 C259 1.388 . S
C262 C263 1.382 . S
C262 H287 0.950 . S
C263 N258 1.332 1_565 S
C263 C262 1.382 . S
C263 H273 0.950 . S
N264 Co242 2.282 . S
N264 C268 1.332 . S
N264 C269 1.332 . S
C265 C266 1.388 . S
C265 C269 1.382 . S
C265 H288 0.950 . S
C266 C265 1.388 . S
C266 C267 1.386 . S
C267 C266 1.386 . S
C267 C268 1.382 . S
C267 H289 0.950 . S
C268 N264 1.332 . S
C268 C267 1.382 . S
C268 H270 0.952 . S
C269 N264 1.332 . S
C269 C265 1.382 . S
C269 H271 0.948 . S
H270 C268 0.952 . S
H271 C269 0.948 . S
H272 C261 0.952 . S
H273 C263 0.950 . S
C274 C240 1.395 . S
C274 C244 1.391 . S
C275 C237 1.389 . S
C275 C257 1.392 . S
C276 C247 1.381 1_565 S
C276 C249 1.389 . S
C277 C252 1.395 . S
C277 C254 1.391 . S
H278 C238 0.951 . S
H279 C239 0.950 . S
H280 C245 0.949 . S
H281 C246 0.950 . S
H282 C250 0.951 . S
H283 C251 0.950 . S
H284 C255 0.949 . S
H285 C256 0.950 . S
H286 C260 0.950 . S
H287 C262 0.950 . S
H288 C265 0.950 . S
H289 C267 0.950 . S
C290 C291 1.443 . S
C290 N294 1.376 . S
C290 C328 1.389 . S
C291 C290 1.443 . S
C291 C292 1.340 . S
C291 H331 0.951 . S
C292 C291 1.340 . S
C292 C293 1.439 . S
C292 H332 0.950 . S
C293 C292 1.439 . S
C293 N294 1.374 . S
C293 C327 1.395 . S
N294 C290 1.376 . S
N294 C293 1.374 . S
N294 Co295 2.008 . S
Co295 N294 2.008 . S
Co295 N296 1.995 1_455 S
Co295 N301 2.008 1_455 S
Co295 N306 1.995 . S
Co295 N311 2.282 1_455 S
Co295 N317 2.282 . S
N296 Co295 1.995 1_655 S
N296 C297 1.376 . S
N296 C300 1.383 . S
C297 N296 1.376 . S
C297 C298 1.446 . S
C297 C327 1.391 1_655 S
C298 C297 1.446 . S
C298 C299 1.339 . S
C298 H333 0.949 . S
C299 C298 1.339 . S
C299 C300 1.439 . S
C299 H334 0.950 . S
C300 N296 1.383 . S
C300 C299 1.439 . S
C300 C329 1.392 . S
N301 Co295 2.008 1_655 S
N301 C302 1.376 . S
N301 C305 1.374 . S
C302 N301 1.376 . S
C302 C303 1.443 . S
C302 C329 1.389 . S
C303 C302 1.443 . S
C303 C304 1.340 . S
C303 H335 0.951 . S
C304 C303 1.340 . S
C304 C305 1.439 . S
C304 H336 0.950 . S
C305 N301 1.374 . S
C305 C304 1.439 . S
C305 C330 1.395 1_655 S
N306 Co295 1.995 . S
N306 C307 1.376 . S
N306 C310 1.383 . S
C307 N306 1.376 . S
C307 C308 1.446 . S
C307 C330 1.391 . S
C308 C307 1.446 . S
C308 C309 1.339 . S
C308 H337 0.949 . S
C309 C308 1.339 . S
C309 C310 1.439 . S
C309 H338 0.950 . S
C310 N306 1.383 . S
C310 C309 1.439 . S
C310 C328 1.392 . S
N311 Co295 2.282 1_655 S
N311 C314 1.332 . S
N311 C316 1.332 . S
C312 C313 1.386 . S
C312 C315 1.388 . S
C313 C312 1.386 . S
C313 C314 1.382 . S
C313 H339 0.950 . S
C314 N311 1.332 . S
C314 C313 1.382 . S
C314 H325 0.952 . S
C315 C312 1.388 . S
C315 C316 1.382 . S
C315 H340 0.950 . S
C316 N311 1.332 . S
C316 C315 1.382 . S
C316 H326 0.948 . S
N317 Co295 2.282 . S
N317 C321 1.332 . S
N317 C322 1.332 . S
C318 C319 1.388 . S
C318 C322 1.382 . S
C318 H341 0.950 . S
C319 C318 1.388 . S
C319 C320 1.386 . S
C320 C319 1.386 . S
C320 C321 1.382 . S
C320 H342 0.950 . S
C321 N317 1.332 . S
C321 C320 1.382 . S
C321 H323 0.952 . S
C322 N317 1.332 . S
C322 C318 1.382 . S
C322 H324 0.948 . S
H323 C321 0.952 . S
H324 C322 0.948 . S
H325 C314 0.952 . S
H326 C316 0.948 . S
C327 C293 1.395 . S
C327 C297 1.391 1_455 S
C328 C290 1.389 . S
C328 C310 1.392 . S
C329 C300 1.392 . S
C329 C302 1.389 . S
C330 C305 1.395 1_455 S
C330 C307 1.391 . S
H331 C291 0.951 . S
H332 C292 0.950 . S
H333 C298 0.949 . S
H334 C299 0.950 . S
H335 C303 0.951 . S
H336 C304 0.950 . S
H337 C308 0.949 . S
H338 C309 0.950 . S
H339 C313 0.950 . S
H340 C315 0.950 . S
H341 C318 0.950 . S
H342 C320 0.950 . S
C343 C344 1.443 . S
C343 N347 1.376 . S
C343 C381 1.389 . S
C344 C343 1.443 . S
C344 C345 1.340 . S
C344 H384 0.951 . S
C345 C344 1.340 . S
C345 C346 1.439 . S
C345 H385 0.950 . S
C346 C345 1.439 . S
C346 N347 1.374 . S
C346 C380 1.395 1_565 S
N347 C343 1.376 . S
N347 C346 1.374 . S
N347 Co348 2.008 1_565 S
Co348 N347 2.008 1_545 S
Co348 N349 1.995 . S
Co348 N354 2.008 . S
Co348 N359 1.995 1_545 S
Co348 N364 2.282 . S
Co348 N370 2.282 1_545 S
N349 Co348 1.995 . S
N349 C350 1.376 . S
N349 C353 1.383 . S
C350 N349 1.376 . S
C350 C351 1.446 . S
C350 C380 1.391 . S
C351 C350 1.446 . S
C351 C352 1.339 . S
C351 H386 0.949 . S
C352 C351 1.339 . S
C352 C353 1.439 . S
C352 H387 0.950 . S
C353 N349 1.383 . S
C353 C352 1.439 . S
C353 C382 1.392 . S
N354 Co348 2.008 . S
N354 C355 1.376 . S
N354 C358 1.374 . S
C355 N354 1.376 . S
C355 C356 1.443 . S
C355 C382 1.389 . S
C356 C355 1.443 . S
C356 C357 1.340 . S
C356 H388 0.951 . S
C357 C356 1.340 . S
C357 C358 1.439 . S
C357 H389 0.950 . S
C358 N354 1.374 . S
C358 C357 1.439 . S
C358 C383 1.395 . S
N359 Co348 1.995 1_565 S
N359 C360 1.376 . S
N359 C363 1.383 . S
C360 N359 1.376 . S
C360 C361 1.446 . S
C360 C383 1.391 1_565 S
C361 C360 1.446 . S
C361 C362 1.339 . S
C361 H390 0.949 . S
C362 C361 1.339 . S
C362 C363 1.439 . S
C362 H391 0.950 . S
C363 N359 1.383 . S
C363 C362 1.439 . S
C363 C381 1.392 . S
N364 Co348 2.282 . S
N364 C367 1.332 . S
N364 C369 1.332 . S
C365 C366 1.386 . S
C365 C368 1.388 . S
C366 C365 1.386 . S
C366 C367 1.382 . S
C366 H392 0.950 . S
C367 N364 1.332 . S
C367 C366 1.382 . S
C367 H378 0.952 . S
C368 C365 1.388 . S
C368 C369 1.382 . S
C368 H393 0.950 . S
C369 N364 1.332 . S
C369 C368 1.382 . S
C369 H379 0.948 . S
N370 Co348 2.282 1_565 S
N370 C374 1.332 . S
N370 C375 1.332 . S
C371 C372 1.388 . S
C371 C375 1.382 . S
C371 H394 0.950 . S
C372 C371 1.388 . S
C372 C373 1.386 . S
C373 C372 1.386 . S
C373 C374 1.382 . S
C373 H395 0.950 . S
C374 N370 1.332 . S
C374 C373 1.382 . S
C374 H376 0.952 . S
C375 N370 1.332 . S
C375 C371 1.382 . S
C375 H377 0.948 . S
H376 C374 0.952 . S
H377 C375 0.948 . S
H378 C367 0.952 . S
H379 C369 0.948 . S
C380 C346 1.395 1_545 S
C380 C350 1.391 . S
C381 C343 1.389 . S
C381 C363 1.392 . S
C382 C353 1.392 . S
C382 C355 1.389 . S
C383 C358 1.395 . S
C383 C360 1.391 1_545 S
H384 C344 0.951 . S
H385 C345 0.950 . S
H386 C351 0.949 . S
H387 C352 0.950 . S
H388 C356 0.951 . S
H389 C357 0.950 . S
H390 C361 0.949 . S
H391 C362 0.950 . S
H392 C366 0.950 . S
H393 C368 0.950 . S
H394 C371 0.950 . S
H395 C373 0.950 . S
C396 C397 1.443 . S
C396 N400 1.376 . S
C396 C434 1.389 . S
C397 C396 1.443 . S
C397 C398 1.340 . S
C397 H437 0.951 . S
C398 C397 1.340 . S
C398 C399 1.439 . S
C398 H438 0.950 . S
C399 C398 1.439 . S
C399 N400 1.374 . S
C399 C433 1.395 1_554 S
N400 C396 1.376 . S
N400 C399 1.374 . S
N400 Co401 2.008 . S
Co401 N400 2.008 . S
Co401 N402 1.995 1_554 S
Co401 N407 2.008 1_554 S
Co401 N412 1.995 . S
Co401 N417 2.282 . S
Co401 N423 2.282 1_554 S
N402 Co401 1.995 1_556 S
N402 C403 1.376 . S
N402 C406 1.383 . S
C403 N402 1.376 . S
C403 C404 1.446 . S
C403 C433 1.391 . S
C404 C403 1.446 . S
C404 C405 1.339 . S
C404 H439 0.949 . S
C405 C404 1.339 . S
C405 C406 1.439 . S
C405 H440 0.950 . S
C406 N402 1.383 . S
C406 C405 1.439 . S
C406 C435 1.392 . S
N407 Co401 2.008 1_556 S
N407 C408 1.376 . S
N407 C411 1.374 . S
C408 N407 1.376 . S
C408 C409 1.443 . S
C408 C435 1.389 . S
C409 C408 1.443 . S
C409 C410 1.340 . S
C409 H441 0.951 . S
C410 C409 1.340 . S
C410 C411 1.439 . S
C410 H442 0.950 . S
C411 N407 1.374 . S
C411 C410 1.439 . S
C411 C436 1.395 1_556 S
N412 Co401 1.995 . S
N412 C413 1.376 . S
N412 C416 1.383 . S
C413 N412 1.376 . S
C413 C414 1.446 . S
C413 C436 1.391 . S
C414 C413 1.446 . S
C414 C415 1.339 . S
C414 H443 0.949 . S
C415 C414 1.339 . S
C415 C416 1.439 . S
C415 H444 0.950 . S
C416 N412 1.383 . S
C416 C415 1.439 . S
C416 C434 1.392 . S
N417 Co401 2.282 . S
N417 C420 1.332 . S
N417 C422 1.332 . S
C418 C419 1.386 . S
C418 C421 1.388 . S
C419 C418 1.386 . S
C419 C420 1.382 . S
C419 H445 0.950 . S
C420 N417 1.332 . S
C420 C419 1.382 . S
C420 H431 0.952 . S
C421 C418 1.388 . S
C421 C422 1.382 . S
C421 H446 0.950 . S
C422 N417 1.332 . S
C422 C421 1.382 . S
C422 H432 0.948 . S
N423 Co401 2.282 1_556 S
N423 C427 1.332 . S
N423 C428 1.332 . S
C424 C425 1.388 . S
C424 C428 1.382 . S
C424 H447 0.950 . S
C425 C424 1.388 . S
C425 C426 1.386 . S
C426 C425 1.386 . S
C426 C427 1.382 . S
C426 H448 0.950 . S
C427 N423 1.332 . S
C427 C426 1.382 . S
C427 H429 0.952 . S
C428 N423 1.332 . S
C428 C424 1.382 . S
C428 H430 0.948 . S
H429 C427 0.952 . S
H430 C428 0.948 . S
H431 C420 0.952 . S
H432 C422 0.948 . S
C433 C399 1.395 1_556 S
C433 C403 1.391 . S
C434 C396 1.389 . S
C434 C416 1.392 . S
C435 C406 1.392 . S
C435 C408 1.389 . S
C436 C411 1.395 1_554 S
C436 C413 1.391 . S
H437 C397 0.951 . S
H438 C398 0.950 . S
H439 C404 0.949 . S
H440 C405 0.950 . S
H441 C409 0.951 . S
H442 C410 0.950 . S
H443 C414 0.949 . S
H444 C415 0.950 . S
H445 C419 0.950 . S
H446 C421 0.950 . S
H447 C424 0.950 . S
H448 C426 0.950 . S
C449 C450 1.443 . S
C449 N453 1.376 . S
C449 C487 1.389 . S
C450 C449 1.443 . S
C450 C451 1.340 . S
C450 H490 0.951 . S
C451 C450 1.340 . S
C451 C452 1.439 . S
C451 H491 0.950 . S
C452 C451 1.439 . S
C452 N453 1.374 . S
C452 C486 1.395 1_554 S
N453 C449 1.376 . S
N453 C452 1.374 . S
N453 Co454 2.008 . S
Co454 N453 2.008 . S
Co454 N455 1.995 1_554 S
Co454 N460 2.008 1_554 S
Co454 N465 1.995 . S
Co454 N470 2.282 . S
Co454 N476 2.282 1_554 S
N455 Co454 1.995 1_556 S
N455 C456 1.376 . S
N455 C459 1.383 . S
C456 N455 1.376 . S
C456 C457 1.446 . S
C456 C486 1.391 . S
C457 C456 1.446 . S
C457 C458 1.339 . S
C457 H492 0.949 . S
C458 C457 1.339 . S
C458 C459 1.439 . S
C458 H493 0.950 . S
C459 N455 1.383 . S
C459 C458 1.439 . S
C459 C488 1.392 . S
N460 Co454 2.008 1_556 S
N460 C461 1.376 . S
N460 C464 1.374 1_556 S
C461 N460 1.376 . S
C461 C462 1.443 . S
C461 C488 1.389 . S
C462 C461 1.443 . S
C462 C463 1.340 . S
C462 H494 0.951 . S
C463 C462 1.340 . S
C463 C464 1.439 1_556 S
C463 H495 0.950 . S
C464 N460 1.374 1_554 S
C464 C463 1.439 1_554 S
C464 C489 1.395 . S
N465 Co454 1.995 . S
N465 C466 1.376 . S
N465 C469 1.383 . S
C466 N465 1.376 . S
C466 C467 1.446 . S
C466 C489 1.391 . S
C467 C466 1.446 . S
C467 C468 1.339 . S
C467 H496 0.949 . S
C468 C467 1.339 . S
C468 C469 1.439 . S
C468 H497 0.950 . S
C469 N465 1.383 . S
C469 C468 1.439 . S
C469 C487 1.392 . S
N470 Co454 2.282 . S
N470 C473 1.332 . S
N470 C475 1.332 . S
C471 C472 1.386 . S
C471 C474 1.388 . S
C472 C471 1.386 . S
C472 C473 1.382 . S
C472 H498 0.950 . S
C473 N470 1.332 . S
C473 C472 1.382 . S
C473 H484 0.952 . S
C474 C471 1.388 . S
C474 C475 1.382 . S
C474 H499 0.950 . S
C475 N470 1.332 . S
C475 C474 1.382 . S
C475 H485 0.948 . S
N476 Co454 2.282 1_556 S
N476 C480 1.332 . S
N476 C481 1.332 . S
C477 C478 1.388 . S
C477 C481 1.382 . S
C477 H500 0.950 . S
C478 C477 1.388 . S
C478 C479 1.386 . S
C479 C478 1.386 . S
C479 C480 1.382 . S
C479 H501 0.950 . S
C480 N476 1.332 . S
C480 C479 1.382 . S
C480 H482 0.952 . S
C481 N476 1.332 . S
C481 C477 1.382 . S
C481 H483 0.948 . S
H482 C480 0.952 . S
H483 C481 0.948 . S
H484 C473 0.952 . S
H485 C475 0.948 . S
C486 C452 1.395 1_556 S
C486 C456 1.391 . S
C487 C449 1.389 . S
C487 C469 1.392 . S
C488 C459 1.392 . S
C488 C461 1.389 . S
C489 C464 1.395 . S
C489 C466 1.391 . S
H490 C450 0.951 . S
H491 C451 0.950 . S
H492 C457 0.949 . S
H493 C458 0.950 . S
H494 C462 0.951 . S
H495 C463 0.950 . S
H496 C467 0.949 . S
H497 C468 0.950 . S
H498 C472 0.950 . S
H499 C474 0.950 . S
H500 C477 0.950 . S
H501 C479 0.950 . S
C502 C503 1.443 . S
C502 N506 1.376 1_556 S
C502 C540 1.389 . S
C503 C502 1.443 . S
C503 C504 1.340 1_556 S
C503 H543 0.951 . S
C504 C503 1.340 1_554 S
C504 C505 1.439 . S
C504 H544 0.950 . S
C505 C504 1.439 . S
C505 N506 1.374 . S
C505 C539 1.395 . S
N506 C502 1.376 1_554 S
N506 C505 1.374 . S
N506 Co507 2.008 . S
Co507 N506 2.008 . S
Co507 N508 1.995 . S
Co507 N513 2.008 . S
Co507 N518 1.995 . S
Co507 N523 2.282 1_554 S
Co507 N529 2.282 . S
N508 Co507 1.995 . S
N508 C509 1.376 . S
N508 C512 1.383 . S
C509 N508 1.376 . S
C509 C510 1.446 . S
C509 C539 1.391 . S
C510 C509 1.446 . S
C510 C511 1.339 . S
C510 H545 0.949 . S
C511 C510 1.339 . S
C511 C512 1.439 . S
C511 H546 0.950 . S
C512 N508 1.383 . S
C512 C511 1.439 . S
C512 C541 1.392 . S
N513 Co507 2.008 . S
N513 C514 1.376 . S
N513 C517 1.374 . S
C514 N513 1.376 . S
C514 C515 1.443 . S
C514 C541 1.389 . S
C515 C514 1.443 . S
C515 C516 1.340 . S
C515 H547 0.951 . S
C516 C515 1.340 . S
C516 C517 1.439 . S
C516 H548 0.950 . S
C517 N513 1.374 . S
C517 C516 1.439 . S
C517 C542 1.395 . S
N518 Co507 1.995 . S
N518 C519 1.376 . S
N518 C522 1.383 1_554 S
C519 N518 1.376 . S
C519 C520 1.446 1_554 S
C519 C542 1.391 . S
C520 C519 1.446 1_556 S
C520 C521 1.339 . S
C520 H549 0.949 . S
C521 C520 1.339 . S
C521 C522 1.439 . S
C521 H550 0.950 . S
C522 N518 1.383 1_556 S
C522 C521 1.439 . S
C522 C540 1.392 . S
N523 Co507 2.282 1_556 S
N523 C526 1.332 . S
N523 C528 1.332 . S
C524 C525 1.386 . S
C524 C527 1.388 . S
C525 C524 1.386 . S
C525 C526 1.382 . S
C525 H551 0.950 . S
C526 N523 1.332 . S
C526 C525 1.382 . S
C526 H537 0.952 . S
C527 C524 1.388 . S
C527 C528 1.382 . S
C527 H552 0.950 . S
C528 N523 1.332 . S
C528 C527 1.382 . S
C528 H538 0.948 1_556 S
N529 Co507 2.282 . S
N529 C533 1.332 . S
N529 C534 1.332 . S
C530 C531 1.388 . S
C530 C534 1.382 . S
C530 H553 0.950 . S
C531 C530 1.388 . S
C531 C532 1.386 . S
C532 C531 1.386 . S
C532 C533 1.382 . S
C532 H554 0.950 . S
C533 N529 1.332 . S
C533 C532 1.382 . S
C533 H535 0.952 . S
C534 N529 1.332 . S
C534 C530 1.382 . S
C534 H536 0.948 . S
H535 C533 0.952 . S
H536 C534 0.948 . S
H537 C526 0.952 . S
H538 C528 0.948 1_554 S
C539 C505 1.395 . S
C539 C509 1.391 . S
C540 C502 1.389 . S
C540 C522 1.392 . S
C541 C512 1.392 . S
C541 C514 1.389 . S
C542 C517 1.395 . S
C542 C519 1.391 . S
H543 C503 0.951 . S
H544 C504 0.950 . S
H545 C510 0.949 . S
H546 C511 0.950 . S
H547 C515 0.951 . S
H548 C516 0.950 . S
H549 C520 0.949 . S
H550 C521 0.950 . S
H551 C525 0.950 . S
H552 C527 0.950 . S
H553 C530 0.950 . S
H554 C532 0.950 . S
C555 C556 1.443 . S
C555 N559 1.376 . S
C555 C593 1.389 . S
C556 C555 1.443 . S
C556 C557 1.340 . S
C556 H596 0.951 . S
C557 C556 1.340 . S
C557 C558 1.439 . S
C557 H597 0.950 . S
C558 C557 1.439 . S
C558 N559 1.374 . S
C558 C592 1.395 1_554 S
N559 C555 1.376 . S
N559 C558 1.374 . S
N559 Co560 2.008 . S
Co560 N559 2.008 . S
Co560 N561 1.995 1_554 S
Co560 N566 2.008 1_554 S
Co560 N571 1.995 . S
Co560 N576 2.282 . S
Co560 N582 2.282 1_554 S
N561 Co560 1.995 1_556 S
N561 C562 1.376 . S
N561 C565 1.383 . S
C562 N561 1.376 . S
C562 C563 1.446 . S
C562 C592 1.391 . S
C563 C562 1.446 . S
C563 C564 1.339 . S
C563 H598 0.949 . S
C564 C563 1.339 . S
C564 C565 1.439 . S
C564 H599 0.950 . S
C565 N561 1.383 . S
C565 C564 1.439 . S
C565 C594 1.392 . S
N566 Co560 2.008 1_556 S
N566 C567 1.376 . S
N566 C570 1.374 1_556 S
C567 N566 1.376 . S
C567 C568 1.443 . S
C567 C594 1.389 . S
C568 C567 1.443 . S
C568 C569 1.340 . S
C568 H600 0.951 . S
C569 C568 1.340 . S
C569 C570 1.439 1_556 S
C569 H601 0.950 . S
C570 N566 1.374 1_554 S
C570 C569 1.439 1_554 S
C570 C595 1.395 . S
N571 Co560 1.995 . S
N571 C572 1.376 . S
N571 C575 1.383 . S
C572 N571 1.376 . S
C572 C573 1.446 . S
C572 C595 1.391 . S
C573 C572 1.446 . S
C573 C574 1.339 . S
C573 H602 0.949 . S
C574 C573 1.339 . S
C574 C575 1.439 . S
C574 H603 0.950 . S
C575 N571 1.383 . S
C575 C574 1.439 . S
C575 C593 1.392 . S
N576 Co560 2.282 . S
N576 C579 1.332 . S
N576 C581 1.332 . S
C577 C578 1.386 . S
C577 C580 1.388 . S
C578 C577 1.386 . S
C578 C579 1.382 . S
C578 H604 0.950 . S
C579 N576 1.332 . S
C579 C578 1.382 . S
C579 H590 0.952 . S
C580 C577 1.388 . S
C580 C581 1.382 . S
C580 H605 0.950 . S
C581 N576 1.332 . S
C581 C580 1.382 . S
C581 H591 0.948 . S
N582 Co560 2.282 1_556 S
N582 C586 1.332 . S
N582 C587 1.332 . S
C583 C584 1.388 . S
C583 C587 1.382 . S
C583 H606 0.950 . S
C584 C583 1.388 . S
C584 C585 1.386 . S
C585 C584 1.386 . S
C585 C586 1.382 . S
C585 H607 0.950 . S
C586 N582 1.332 . S
C586 C585 1.382 . S
C586 H588 0.952 . S
C587 N582 1.332 . S
C587 C583 1.382 . S
C587 H589 0.948 . S
H588 C586 0.952 . S
H589 C587 0.948 . S
H590 C579 0.952 . S
H591 C581 0.948 . S
C592 C558 1.395 1_556 S
C592 C562 1.391 . S
C593 C555 1.389 . S
C593 C575 1.392 . S
C594 C565 1.392 . S
C594 C567 1.389 . S
C595 C570 1.395 . S
C595 C572 1.391 . S
H596 C556 0.951 . S
H597 C557 0.950 . S
H598 C563 0.949 . S
H599 C564 0.950 . S
H600 C568 0.951 . S
H601 C569 0.950 . S
H602 C573 0.949 . S
H603 C574 0.950 . S
H604 C578 0.950 . S
H605 C580 0.950 . S
H606 C583 0.950 . S
H607 C585 0.950 . S
H608 C614 0.930 . S
H609 C617 0.930 . S
H610 C618 0.930 . S
H611 C619 0.930 . S
H612 C622 0.930 . S
H613 C623 0.930 . S
C614 H608 0.930 . S
C614 C615 1.355 . S
C614 C616 1.415 . S
C615 C614 1.355 . S
C615 C617 1.419 . S
C616 C614 1.415 . S
C616 C621 1.425 . S
C616 C623 1.409 . S
C617 H609 0.930 . S
C617 C615 1.419 . S
C617 C618 1.362 . S
C618 H610 0.930 . S
C618 C617 1.362 . S
C618 C621 1.409 . S
C619 H611 0.930 . S
C619 C620 1.355 . S
C619 C621 1.415 . S
C620 C619 1.355 . S
C620 C622 1.419 . S
C621 C616 1.425 . S
C621 C618 1.409 . S
C621 C619 1.415 . S
C622 H612 0.930 . S
C622 C620 1.419 . S
C622 C623 1.362 . S
C623 H613 0.930 . S
C623 C616 1.409 . S
C623 C622 1.362 . S
H624 C630 0.930 . S
H625 C633 0.930 . S
H626 C634 0.930 . S
H627 C635 0.930 . S
H628 C638 0.930 . S
H629 C639 0.930 . S
C630 H624 0.930 . S
C630 C631 1.355 . S
C630 C632 1.415 . S
C631 C630 1.355 . S
C631 C633 1.419 . S
C632 C630 1.415 . S
C632 C637 1.425 . S
C632 C639 1.409 . S
C633 H625 0.930 . S
C633 C631 1.419 . S
C633 C634 1.362 . S
C634 H626 0.930 . S
C634 C633 1.362 . S
C634 C637 1.409 . S
C635 H627 0.930 . S
C635 C636 1.355 . S
C635 C637 1.415 . S
C636 C635 1.355 . S
C636 C638 1.419 . S
C637 C632 1.425 . S
C637 C634 1.409 . S
C637 C635 1.415 . S
C638 H628 0.930 . S
C638 C636 1.419 . S
C638 C639 1.362 . S
C639 H629 0.930 . S
C639 C632 1.409 . S
C639 C638 1.362 . S
H640 C646 0.930 . S
H641 C649 0.930 . S
H642 C650 0.930 . S
H643 C651 0.930 . S
H644 C654 0.930 . S
H645 C655 0.930 . S
C646 H640 0.930 . S
C646 C647 1.355 . S
C646 C648 1.415 . S
C647 C646 1.355 . S
C647 C649 1.419 . S
C648 C646 1.415 . S
C648 C653 1.425 . S
C648 C655 1.409 . S
C649 H641 0.930 . S
C649 C647 1.419 . S
C649 C650 1.362 . S
C650 H642 0.930 . S
C650 C649 1.362 . S
C650 C653 1.409 . S
C651 H643 0.930 . S
C651 C652 1.355 . S
C651 C653 1.415 . S
C652 C651 1.355 . S
C652 C654 1.419 . S
C653 C648 1.425 . S
C653 C650 1.409 . S
C653 C651 1.415 . S
C654 H644 0.930 . S
C654 C652 1.419 . S
C654 C655 1.362 . S
C655 H645 0.930 . S
C655 C648 1.409 . S
C655 C654 1.362 . S
H656 C662 0.930 . S
H657 C665 0.930 . S
H658 C666 0.930 . S
H659 C667 0.930 . S
H660 C670 0.930 . S
H661 C671 0.930 . S
C662 H656 0.930 . S
C662 C663 1.355 . S
C662 C664 1.415 . S
C663 C662 1.355 . S
C663 C665 1.419 . S
C664 C662 1.415 . S
C664 C669 1.425 . S
C664 C671 1.409 . S
C665 H657 0.930 . S
C665 C663 1.419 . S
C665 C666 1.362 . S
C666 H658 0.930 . S
C666 C665 1.362 . S
C666 C669 1.409 . S
C667 H659 0.930 . S
C667 C668 1.355 . S
C667 C669 1.415 . S
C668 C667 1.355 . S
C668 C670 1.419 . S
C669 C664 1.425 . S
C669 C666 1.409 . S
C669 C667 1.415 . S
C670 H660 0.930 . S
C670 C668 1.419 . S
C670 C671 1.362 . S
C671 H661 0.930 . S
C671 C664 1.409 . S
C671 C670 1.362 . S
H672 C678 0.930 . S
H673 C681 0.930 . S
H674 C682 0.930 . S
H675 C683 0.930 . S
H676 C686 0.930 . S
H677 C687 0.930 . S
C678 H672 0.930 . S
C678 C679 1.355 . S
C678 C680 1.415 . S
C679 C678 1.355 . S
C679 C681 1.419 . S
C680 C678 1.415 . S
C680 C685 1.425 . S
C680 C687 1.409 . S
C681 H673 0.930 . S
C681 C679 1.419 . S
C681 C682 1.362 . S
C682 H674 0.930 . S
C682 C681 1.362 . S
C682 C685 1.409 . S
C683 H675 0.930 . S
C683 C684 1.355 . S
C683 C685 1.415 . S
C684 C683 1.355 . S
C684 C686 1.419 . S
C685 C680 1.425 . S
C685 C682 1.409 . S
C685 C683 1.415 . S
C686 H676 0.930 . S
C686 C684 1.419 . S
C686 C687 1.362 . S
C687 H677 0.930 . S
C687 C680 1.409 . S
C687 C686 1.362 . S
H688 C694 0.930 . S
H689 C697 0.930 . S
H690 C698 0.930 . S
H691 C699 0.930 . S
H692 C702 0.930 . S
H693 C703 0.930 . S
C694 H688 0.930 . S
C694 C695 1.355 . S
C694 C696 1.415 . S
C695 C694 1.355 . S
C695 C697 1.419 . S
C696 C694 1.415 . S
C696 C701 1.425 . S
C696 C703 1.409 . S
C697 H689 0.930 . S
C697 C695 1.419 . S
C697 C698 1.362 . S
C698 H690 0.930 . S
C698 C697 1.362 . S
C698 C701 1.409 . S
C699 H691 0.930 . S
C699 C700 1.355 . S
C699 C701 1.415 . S
C700 C699 1.355 . S
C700 C702 1.419 . S
C701 C696 1.425 . S
C701 C698 1.409 . S
C701 C699 1.415 . S
C702 H692 0.930 . S
C702 C700 1.419 . S
C702 C703 1.362 . S
C703 H693 0.930 . S
C703 C696 1.409 . S
C703 C702 1.362 . S
H704 C710 0.930 . S
H705 C713 0.930 . S
H706 C714 0.930 . S
H707 C715 0.930 . S
H708 C718 0.930 . S
H709 C719 0.930 . S
C710 H704 0.930 . S
C710 C711 1.355 . S
C710 C712 1.415 . S
C711 C710 1.355 . S
C711 C713 1.419 . S
C712 C710 1.415 . S
C712 C717 1.425 . S
C712 C719 1.409 . S
C713 H705 0.930 . S
C713 C711 1.419 . S
C713 C714 1.362 . S
C714 H706 0.930 . S
C714 C713 1.362 . S
C714 C717 1.409 . S
C715 H707 0.930 . S
C715 C716 1.355 . S
C715 C717 1.415 . S
C716 C715 1.355 . S
C716 C718 1.419 . S
C717 C712 1.425 . S
C717 C714 1.409 . S
C717 C715 1.415 . S
C718 H708 0.930 . S
C718 C716 1.419 . S
C718 C719 1.362 . S
C719 H709 0.930 . S
C719 C712 1.409 . S
C719 C718 1.362 . S
H720 C726 0.930 . S
H721 C729 0.930 . S
H722 C730 0.930 . S
H723 C731 0.930 . S
H724 C734 0.930 . S
H725 C735 0.930 . S
C726 H720 0.930 . S
C726 C727 1.355 . S
C726 C728 1.415 . S
C727 C726 1.355 . S
C727 C729 1.419 . S
C728 C726 1.415 . S
C728 C733 1.425 . S
C728 C735 1.409 . S
C729 H721 0.930 . S
C729 C727 1.419 . S
C729 C730 1.362 . S
C730 H722 0.930 . S
C730 C729 1.362 . S
C730 C733 1.409 . S
C731 H723 0.930 . S
C731 C732 1.355 . S
C731 C733 1.415 . S
C732 C731 1.355 . S
C732 C734 1.419 . S
C733 C728 1.425 . S
C733 C730 1.409 . S
C733 C731 1.415 . S
C734 H724 0.930 . S
C734 C732 1.419 . S
C734 C735 1.362 . S
C735 H725 0.930 . S
C735 C728 1.409 . S
C735 C734 1.362 . S
H736 C742 0.930 . S
H737 C745 0.930 . S
H738 C746 0.930 . S
H739 C747 0.930 . S
H740 C750 0.930 . S
H741 C751 0.930 . S
C742 H736 0.930 . S
C742 C743 1.355 . S
C742 C744 1.415 . S
C743 C742 1.355 . S
C743 C745 1.419 . S
C744 C742 1.415 . S
C744 C749 1.425 . S
C744 C751 1.409 . S
C745 H737 0.930 . S
C745 C743 1.419 . S
C745 C746 1.362 . S
C746 H738 0.930 . S
C746 C745 1.362 . S
C746 C749 1.409 . S
C747 H739 0.930 . S
C747 C748 1.355 . S
C747 C749 1.415 . S
C748 C747 1.355 . S
C748 C750 1.419 . S
C749 C744 1.425 . S
C749 C746 1.409 . S
C749 C747 1.415 . S
C750 H740 0.930 . S
C750 C748 1.419 . S
C750 C751 1.362 . S
C751 H741 0.930 . S
C751 C744 1.409 . S
C751 C750 1.362 . S
H752 C758 0.930 . S
H753 C761 0.930 . S
H754 C762 0.930 . S
H755 C763 0.930 . S
H756 C766 0.930 . S
H757 C767 0.930 . S
C758 H752 0.930 . S
C758 C759 1.355 . S
C758 C760 1.415 . S
C759 C758 1.355 . S
C759 C761 1.419 . S
C760 C758 1.415 . S
C760 C765 1.425 . S
C760 C767 1.409 . S
C761 H753 0.930 . S
C761 C759 1.419 . S
C761 C762 1.362 . S
C762 H754 0.930 . S
C762 C761 1.362 . S
C762 C765 1.409 . S
C763 H755 0.930 . S
C763 C764 1.355 . S
C763 C765 1.415 . S
C764 C763 1.355 . S
C764 C766 1.419 . S
C765 C760 1.425 . S
C765 C762 1.409 . S
C765 C763 1.415 . S
C766 H756 0.930 . S
C766 C764 1.419 . S
C766 C767 1.362 . S
C767 H757 0.930 . S
C767 C760 1.409 . S
C767 C766 1.362 . S
H768 C774 0.930 . S
H769 C777 0.930 . S
H770 C778 0.930 . S
H771 C779 0.930 . S
H772 C782 0.930 . S
H773 C783 0.930 . S
C774 H768 0.930 . S
C774 C775 1.355 . S
C774 C776 1.415 . S
C775 C774 1.355 . S
C775 C777 1.419 . S
C776 C774 1.415 . S
C776 C781 1.425 . S
C776 C783 1.409 . S
C777 H769 0.930 . S
C777 C775 1.419 . S
C777 C778 1.362 . S
C778 H770 0.930 . S
C778 C777 1.362 . S
C778 C781 1.409 . S
C779 H771 0.930 . S
C779 C780 1.355 . S
C779 C781 1.415 . S
C780 C779 1.355 . S
C780 C782 1.419 . S
C781 C776 1.425 . S
C781 C778 1.409 . S
C781 C779 1.415 . S
C782 H772 0.930 . S
C782 C780 1.419 . S
C782 C783 1.362 . S
C783 H773 0.930 . S
C783 C776 1.409 . S
C783 C782 1.362 . S
H784 C790 0.930 . S
H785 C793 0.930 . S
H786 C794 0.930 . S
H787 C795 0.930 . S
H788 C798 0.930 . S
H789 C799 0.930 . S
C790 H784 0.930 . S
C790 C791 1.355 . S
C790 C792 1.415 . S
C791 C790 1.355 . S
C791 C793 1.419 . S
C792 C790 1.415 . S
C792 C797 1.425 . S
C792 C799 1.409 . S
C793 H785 0.930 . S
C793 C791 1.419 . S
C793 C794 1.362 . S
C794 H786 0.930 . S
C794 C793 1.362 . S
C794 C797 1.409 . S
C795 H787 0.930 . S
C795 C796 1.355 . S
C795 C797 1.415 . S
C796 C795 1.355 . S
C796 C798 1.419 . S
C797 C792 1.425 . S
C797 C794 1.409 . S
C797 C795 1.415 . S
C798 H788 0.930 . S
C798 C796 1.419 . S
C798 C799 1.362 . S
C799 H789 0.930 . S
C799 C792 1.409 . S
C799 C798 1.362 . S
H800 C806 0.930 . S
H801 C809 0.930 . S
H802 C810 0.930 . S
H803 C811 0.930 . S
H804 C814 0.930 . S
H805 C815 0.930 . S
C806 H800 0.930 . S
C806 C807 1.355 . S
C806 C808 1.415 . S
C807 C806 1.355 . S
C807 C809 1.419 . S
C808 C806 1.415 . S
C808 C813 1.425 . S
C808 C815 1.409 . S
C809 H801 0.930 . S
C809 C807 1.419 . S
C809 C810 1.362 . S
C810 H802 0.930 . S
C810 C809 1.362 . S
C810 C813 1.409 . S
C811 H803 0.930 . S
C811 C812 1.355 . S
C811 C813 1.415 . S
C812 C811 1.355 . S
C812 C814 1.419 . S
C813 C808 1.425 . S
C813 C810 1.409 . S
C813 C811 1.415 . S
C814 H804 0.930 . S
C814 C812 1.419 . S
C814 C815 1.362 . S
C815 H805 0.930 . S
C815 C808 1.409 . S
C815 C814 1.362 . S
H816 C822 0.930 . S
H817 C825 0.930 . S
H818 C826 0.930 . S
H819 C827 0.930 . S
H820 C830 0.930 . S
H821 C831 0.930 . S
C822 H816 0.930 . S
C822 C823 1.355 . S
C822 C824 1.415 . S
C823 C822 1.355 . S
C823 C825 1.419 . S
C824 C822 1.415 . S
C824 C829 1.425 . S
C824 C831 1.409 . S
C825 H817 0.930 . S
C825 C823 1.419 . S
C825 C826 1.362 . S
C826 H818 0.930 . S
C826 C825 1.362 . S
C826 C829 1.409 . S
C827 H819 0.930 . S
C827 C828 1.355 . S
C827 C829 1.415 . S
C828 C827 1.355 . S
C828 C830 1.419 . S
C829 C824 1.425 . S
C829 C826 1.409 . S
C829 C827 1.415 . S
C830 H820 0.930 . S
C830 C828 1.419 . S
C830 C831 1.362 . S
C831 H821 0.930 . S
C831 C824 1.409 . S
C831 C830 1.362 . S
H832 C838 0.930 . S
H833 C841 0.930 . S
H834 C842 0.930 . S
H835 C843 0.930 . S
H836 C846 0.930 . S
H837 C847 0.930 . S
C838 H832 0.930 . S
C838 C839 1.355 . S
C838 C840 1.415 . S
C839 C838 1.355 . S
C839 C841 1.419 . S
C840 C838 1.415 . S
C840 C845 1.425 . S
C840 C847 1.409 . S
C841 H833 0.930 . S
C841 C839 1.419 . S
C841 C842 1.362 . S
C842 H834 0.930 . S
C842 C841 1.362 . S
C842 C845 1.409 . S
C843 H835 0.930 . S
C843 C844 1.355 . S
C843 C845 1.415 . S
C844 C843 1.355 . S
C844 C846 1.419 . S
C845 C840 1.425 . S
C845 C842 1.409 . S
C845 C843 1.415 . S
C846 H836 0.930 . S
C846 C844 1.419 . S
C846 C847 1.362 . S
C847 H837 0.930 . S
C847 C840 1.409 . S
C847 C846 1.362 . S
H848 C854 0.930 . S
H849 C857 0.930 . S
H850 C858 0.930 . S
H851 C859 0.930 . S
H852 C862 0.930 . S
H853 C863 0.930 . S
C854 H848 0.930 . S
C854 C855 1.355 . S
C854 C856 1.415 . S
C855 C854 1.355 . S
C855 C857 1.419 . S
C856 C854 1.415 . S
C856 C861 1.425 . S
C856 C863 1.409 . S
C857 H849 0.930 . S
C857 C855 1.419 . S
C857 C858 1.362 . S
C858 H850 0.930 . S
C858 C857 1.362 . S
C858 C861 1.409 . S
C859 H851 0.930 . S
C859 C860 1.355 . S
C859 C861 1.415 . S
C860 C859 1.355 . S
C860 C862 1.419 . S
C861 C856 1.425 . S
C861 C858 1.409 . S
C861 C859 1.415 . S
C862 H852 0.930 . S
C862 C860 1.419 . S
C862 C863 1.362 . S
C863 H853 0.930 . S
C863 C856 1.409 . S
C863 C862 1.362 . S
H864 C870 0.930 . S
H865 C873 0.930 . S
H866 C874 0.930 . S
H867 C875 0.930 . S
H868 C878 0.930 . S
H869 C879 0.930 . S
C870 H864 0.930 . S
C870 C871 1.355 . S
C870 C872 1.415 . S
C871 C870 1.355 . S
C871 C873 1.419 . S
C872 C870 1.415 . S
C872 C877 1.425 . S
C872 C879 1.409 . S
C873 H865 0.930 . S
C873 C871 1.419 . S
C873 C874 1.362 . S
C874 H866 0.930 . S
C874 C873 1.362 . S
C874 C877 1.409 . S
C875 H867 0.930 . S
C875 C876 1.355 . S
C875 C877 1.415 . S
C876 C875 1.355 . S
C876 C878 1.419 . S
C877 C872 1.425 . S
C877 C874 1.409 . S
C877 C875 1.415 . S
C878 H868 0.930 . S
C878 C876 1.419 . S
C878 C879 1.362 . S
C879 H869 0.930 . S
C879 C872 1.409 . S
C879 C878 1.362 . S
H880 C886 0.930 . S
H881 C889 0.930 . S
H882 C890 0.930 . S
H883 C891 0.930 . S
H884 C894 0.930 . S
H885 C895 0.930 . S
C886 H880 0.930 . S
C886 C887 1.355 . S
C886 C888 1.415 . S
C887 C886 1.355 . S
C887 C889 1.419 . S
C888 C886 1.415 . S
C888 C893 1.425 . S
C888 C895 1.409 . S
C889 H881 0.930 . S
C889 C887 1.419 . S
C889 C890 1.362 . S
C890 H882 0.930 . S
C890 C889 1.362 . S
C890 C893 1.409 . S
C891 H883 0.930 . S
C891 C892 1.355 . S
C891 C893 1.415 . S
C892 C891 1.355 . S
C892 C894 1.419 . S
C893 C888 1.425 . S
C893 C890 1.409 . S
C893 C891 1.415 . S
C894 H884 0.930 . S
C894 C892 1.419 . S
C894 C895 1.362 . S
C895 H885 0.930 . S
C895 C888 1.409 . S
C895 C894 1.362 . S
H896 C902 0.930 . S
H897 C905 0.930 . S
H898 C906 0.930 . S
H899 C907 0.930 . S
H900 C910 0.930 . S
H901 C911 0.930 . S
C902 H896 0.930 . S
C902 C903 1.355 . S
C902 C904 1.415 . S
C903 C902 1.355 . S
C903 C905 1.419 . S
C904 C902 1.415 . S
C904 C909 1.425 . S
C904 C911 1.409 . S
C905 H897 0.930 . S
C905 C903 1.419 . S
C905 C906 1.362 . S
C906 H898 0.930 . S
C906 C905 1.362 . S
C906 C909 1.409 . S
C907 H899 0.930 . S
C907 C908 1.355 . S
C907 C909 1.415 . S
C908 C907 1.355 . S
C908 C910 1.419 . S
C909 C904 1.425 . S
C909 C906 1.409 . S
C909 C907 1.415 . S
C910 H900 0.930 . S
C910 C908 1.419 . S
C910 C911 1.362 . S
C911 H901 0.930 . S
C911 C904 1.409 . S
C911 C910 1.362 . S
H912 C918 0.930 . S
H913 C921 0.930 . S
H914 C922 0.930 . S
H915 C923 0.930 . S
H916 C926 0.930 . S
H917 C927 0.930 . S
C918 H912 0.930 . S
C918 C919 1.355 . S
C918 C920 1.415 . S
C919 C918 1.355 . S
C919 C921 1.419 . S
C920 C918 1.415 . S
C920 C925 1.425 . S
C920 C927 1.409 . S
C921 H913 0.930 . S
C921 C919 1.419 . S
C921 C922 1.362 . S
C922 H914 0.930 . S
C922 C921 1.362 . S
C922 C925 1.409 . S
C923 H915 0.930 . S
C923 C924 1.355 . S
C923 C925 1.415 . S
C924 C923 1.355 . S
C924 C926 1.419 . S
C925 C920 1.425 . S
C925 C922 1.409 . S
C925 C923 1.415 . S
C926 H916 0.930 . S
C926 C924 1.419 . S
C926 C927 1.362 . S
C927 H917 0.930 . S
C927 C920 1.409 . S
C927 C926 1.362 . S
H928 C934 0.930 . S
H929 C937 0.930 . S
H930 C938 0.930 . S
H931 C939 0.930 . S
H932 C942 0.930 . S
H933 C943 0.930 . S
C934 H928 0.930 . S
C934 C935 1.355 . S
C934 C936 1.415 . S
C935 C934 1.355 . S
C935 C937 1.419 . S
C936 C934 1.415 . S
C936 C941 1.425 . S
C936 C943 1.409 . S
C937 H929 0.930 . S
C937 C935 1.419 . S
C937 C938 1.362 . S
C938 H930 0.930 . S
C938 C937 1.362 . S
C938 C941 1.409 . S
C939 H931 0.930 . S
C939 C940 1.355 . S
C939 C941 1.415 . S
C940 C939 1.355 . S
C940 C942 1.419 . S
C941 C936 1.425 . S
C941 C938 1.409 . S
C941 C939 1.415 . S
C942 H932 0.930 . S
C942 C940 1.419 . S
C942 C943 1.362 . S
C943 H933 0.930 . S
C943 C936 1.409 . S
C943 C942 1.362 . S
H944 C950 0.930 . S
H945 C953 0.930 . S
H946 C954 0.930 . S
H947 C955 0.930 . S
H948 C958 0.930 . S
H949 C959 0.930 . S
C950 H944 0.930 . S
C950 C951 1.355 . S
C950 C952 1.415 . S
C951 C950 1.355 . S
C951 C953 1.419 . S
C952 C950 1.415 . S
C952 C957 1.425 . S
C952 C959 1.409 . S
C953 H945 0.930 . S
C953 C951 1.419 . S
C953 C954 1.362 . S
C954 H946 0.930 . S
C954 C953 1.362 . S
C954 C957 1.409 . S
C955 H947 0.930 . S
C955 C956 1.355 . S
C955 C957 1.415 . S
C956 C955 1.355 . S
C956 C958 1.419 . S
C957 C952 1.425 . S
C957 C954 1.409 . S
C957 C955 1.415 . S
C958 H948 0.930 . S
C958 C956 1.419 . S
C958 C959 1.362 . S
C959 H949 0.930 . S
C959 C952 1.409 . S
C959 C958 1.362 . S
H960 C966 0.930 . S
H961 C969 0.930 . S
H962 C970 0.930 . S
H963 C971 0.930 . S
H964 C974 0.930 . S
H965 C975 0.930 . S
C966 H960 0.930 . S
C966 C967 1.355 . S
C966 C968 1.415 . S
C967 C966 1.355 . S
C967 C969 1.419 . S
C968 C966 1.415 . S
C968 C973 1.425 . S
C968 C975 1.409 . S
C969 H961 0.930 . S
C969 C967 1.419 . S
C969 C970 1.362 . S
C970 H962 0.930 . S
C970 C969 1.362 . S
C970 C973 1.409 . S
C971 H963 0.930 . S
C971 C972 1.355 . S
C971 C973 1.415 . S
C972 C971 1.355 . S
C972 C974 1.419 . S
C973 C968 1.425 . S
C973 C970 1.409 . S
C973 C971 1.415 . S
C974 H964 0.930 . S
C974 C972 1.419 . S
C974 C975 1.362 . S
C975 H965 0.930 . S
C975 C968 1.409 . S
C975 C974 1.362 . S
H976 C982 0.930 . S
H977 C985 0.930 . S
H978 C986 0.930 . S
H979 C987 0.930 . S
H980 C990 0.930 . S
H981 C991 0.930 . S
C982 H976 0.930 . S
C982 C983 1.355 . S
C982 C984 1.415 . S
C983 C982 1.355 . S
C983 C985 1.419 . S
C984 C982 1.415 . S
C984 C989 1.425 . S
C984 C991 1.409 . S
C985 H977 0.930 . S
C985 C983 1.419 . S
C985 C986 1.362 . S
C986 H978 0.930 . S
C986 C985 1.362 . S
C986 C989 1.409 . S
C987 H979 0.930 . S
C987 C988 1.355 . S
C987 C989 1.415 . S
C988 C987 1.355 . S
C988 C990 1.419 . S
C989 C984 1.425 . S
C989 C986 1.409 . S
C989 C987 1.415 . S
C990 H980 0.930 . S
C990 C988 1.419 . S
C990 C991 1.362 . S
C991 H981 0.930 . S
C991 C984 1.409 . S
C991 C990 1.362 . S
H992 C998 0.930 . S
H993 C1001 0.930 . S
H994 C1002 0.930 . S
H995 C1003 0.930 . S
H996 C1006 0.930 . S
H997 C1007 0.930 . S
C998 H992 0.930 . S
C998 C999 1.355 . S
C998 C1000 1.415 . S
C999 C998 1.355 . S
C999 C1001 1.419 . S
C1000 C998 1.415 . S
C1000 C1005 1.425 . S
C1000 C1007 1.409 . S
C1001 H993 0.930 . S
C1001 C999 1.419 . S
C1001 C1002 1.362 . S
C1002 H994 0.930 . S
C1002 C1001 1.362 . S
C1002 C1005 1.409 . S
C1003 H995 0.930 . S
C1003 C1004 1.355 . S
C1003 C1005 1.415 . S
C1004 C1003 1.355 . S
C1004 C1006 1.419 . S
C1005 C1000 1.425 . S
C1005 C1002 1.409 . S
C1005 C1003 1.415 . S
C1006 H996 0.930 . S
C1006 C1004 1.419 . S
C1006 C1007 1.362 . S
C1007 H997 0.930 . S
C1007 C1000 1.409 . S
C1007 C1006 1.362 . S
H1008 C1014 0.930 . S
H1009 C1017 0.930 . S
H1010 C1018 0.930 . S
H1011 C1019 0.930 . S
H1012 C1022 0.930 . S
H1013 C1023 0.930 . S
C1014 H1008 0.930 . S
C1014 C1015 1.355 . S
C1014 C1016 1.415 . S
C1015 C1014 1.355 . S
C1015 C1017 1.419 . S
C1016 C1014 1.415 . S
C1016 C1021 1.425 . S
C1016 C1023 1.409 . S
C1017 H1009 0.930 . S
C1017 C1015 1.419 . S
C1017 C1018 1.362 . S
C1018 H1010 0.930 . S
C1018 C1017 1.362 . S
C1018 C1021 1.409 . S
C1019 H1011 0.930 . S
C1019 C1020 1.355 . S
C1019 C1021 1.415 . S
C1020 C1019 1.355 . S
C1020 C1022 1.419 . S
C1021 C1016 1.425 . S
C1021 C1018 1.409 . S
C1021 C1019 1.415 . S
C1022 H1012 0.930 . S
C1022 C1020 1.419 . S
C1022 C1023 1.362 . S
C1023 H1013 0.930 . S
C1023 C1016 1.409 . S
C1023 C1022 1.362 . S
H1024 C1030 0.930 . S
H1025 C1033 0.930 . S
H1026 C1034 0.930 . S
H1027 C1035 0.930 . S
H1028 C1038 0.930 . S
H1029 C1039 0.930 . S
C1030 H1024 0.930 . S
C1030 C1031 1.355 . S
C1030 C1032 1.415 . S
C1031 C1030 1.355 . S
C1031 C1033 1.419 . S
C1032 C1030 1.415 . S
C1032 C1037 1.425 . S
C1032 C1039 1.409 . S
C1033 H1025 0.930 . S
C1033 C1031 1.419 . S
C1033 C1034 1.362 . S
C1034 H1026 0.930 . S
C1034 C1033 1.362 . S
C1034 C1037 1.409 . S
C1035 H1027 0.930 . S
C1035 C1036 1.355 . S
C1035 C1037 1.415 . S
C1036 C1035 1.355 . S
C1036 C1038 1.419 . S
C1037 C1032 1.425 . S
C1037 C1034 1.409 . S
C1037 C1035 1.415 . S
C1038 H1028 0.930 . S
C1038 C1036 1.419 . S
C1038 C1039 1.362 . S
C1039 H1029 0.930 . S
C1039 C1032 1.409 . S
C1039 C1038 1.362 . S
H1040 C1046 0.930 . S
H1041 C1049 0.930 . S
H1042 C1050 0.930 . S
H1043 C1051 0.930 . S
H1044 C1054 0.930 . S
H1045 C1055 0.930 . S
C1046 H1040 0.930 . S
C1046 C1047 1.355 . S
C1046 C1048 1.415 . S
C1047 C1046 1.355 . S
C1047 C1049 1.419 . S
C1048 C1046 1.415 . S
C1048 C1053 1.425 . S
C1048 C1055 1.409 . S
C1049 H1041 0.930 . S
C1049 C1047 1.419 . S
C1049 C1050 1.362 . S
C1050 H1042 0.930 . S
C1050 C1049 1.362 . S
C1050 C1053 1.409 . S
C1051 H1043 0.930 . S
C1051 C1052 1.355 . S
C1051 C1053 1.415 . S
C1052 C1051 1.355 . S
C1052 C1054 1.419 . S
C1053 C1048 1.425 . S
C1053 C1050 1.409 . S
C1053 C1051 1.415 . S
C1054 H1044 0.930 . S
C1054 C1052 1.419 . S
C1054 C1055 1.362 . S
C1055 H1045 0.930 . S
C1055 C1048 1.409 . S
C1055 C1054 1.362 . S
H1056 C1062 0.930 . S
H1057 C1065 0.930 . S
H1058 C1066 0.930 . S
H1059 C1067 0.930 . S
H1060 C1070 0.930 . S
H1061 C1071 0.930 . S
C1062 H1056 0.930 . S
C1062 C1063 1.355 . S
C1062 C1064 1.415 . S
C1063 C1062 1.355 . S
C1063 C1065 1.419 . S
C1064 C1062 1.415 . S
C1064 C1069 1.425 . S
C1064 C1071 1.409 . S
C1065 H1057 0.930 . S
C1065 C1063 1.419 . S
C1065 C1066 1.362 . S
C1066 H1058 0.930 . S
C1066 C1065 1.362 . S
C1066 C1069 1.409 . S
C1067 H1059 0.930 . S
C1067 C1068 1.355 . S
C1067 C1069 1.415 . S
C1068 C1067 1.355 . S
C1068 C1070 1.419 . S
C1069 C1064 1.425 . S
C1069 C1066 1.409 . S
C1069 C1067 1.415 . S
C1070 H1060 0.930 . S
C1070 C1068 1.419 . S
C1070 C1071 1.362 . S
C1071 H1061 0.930 . S
C1071 C1064 1.409 . S
C1071 C1070 1.362 . S
H1072 C1078 0.930 . S
H1073 C1081 0.930 . S
H1074 C1082 0.930 . S
H1075 C1083 0.930 . S
H1076 C1086 0.930 . S
H1077 C1087 0.930 . S
C1078 H1072 0.930 . S
C1078 C1079 1.355 . S
C1078 C1080 1.415 . S
C1079 C1078 1.355 . S
C1079 C1081 1.419 . S
C1080 C1078 1.415 . S
C1080 C1085 1.425 . S
C1080 C1087 1.409 . S
C1081 H1073 0.930 . S
C1081 C1079 1.419 . S
C1081 C1082 1.362 . S
C1082 H1074 0.930 . S
C1082 C1081 1.362 . S
C1082 C1085 1.409 . S
C1083 H1075 0.930 . S
C1083 C1084 1.355 . S
C1083 C1085 1.415 . S
C1084 C1083 1.355 . S
C1084 C1086 1.419 . S
C1085 C1080 1.425 . S
C1085 C1082 1.409 . S
C1085 C1083 1.415 . S
C1086 H1076 0.930 . S
C1086 C1084 1.419 . S
C1086 C1087 1.362 . S
C1087 H1077 0.930 . S
C1087 C1080 1.409 . S
C1087 C1086 1.362 . S
H1088 C1094 0.930 . S
H1089 C1097 0.930 . S
H1090 C1098 0.930 . S
H1091 C1099 0.930 . S
H1092 C1102 0.930 . S
H1093 C1103 0.930 . S
C1094 H1088 0.930 . S
C1094 C1095 1.355 . S
C1094 C1096 1.415 . S
C1095 C1094 1.355 . S
C1095 C1097 1.419 . S
C1096 C1094 1.415 . S
C1096 C1101 1.425 . S
C1096 C1103 1.409 . S
C1097 H1089 0.930 . S
C1097 C1095 1.419 . S
C1097 C1098 1.362 . S
C1098 H1090 0.930 . S
C1098 C1097 1.362 . S
C1098 C1101 1.409 . S
C1099 H1091 0.930 . S
C1099 C1100 1.355 . S
C1099 C1101 1.415 . S
C1100 C1099 1.355 . S
C1100 C1102 1.419 . S
C1101 C1096 1.425 . S
C1101 C1098 1.409 . S
C1101 C1099 1.415 . S
C1102 H1092 0.930 . S
C1102 C1100 1.419 . S
C1102 C1103 1.362 . S
C1103 H1093 0.930 . S
C1103 C1096 1.409 . S
C1103 C1102 1.362 . S
H1104 C1110 0.930 . S
H1105 C1113 0.930 . S
H1106 C1114 0.930 . S
H1107 C1115 0.930 . S
H1108 C1118 0.930 . S
H1109 C1119 0.930 . S
C1110 H1104 0.930 . S
C1110 C1111 1.355 . S
C1110 C1112 1.415 . S
C1111 C1110 1.355 . S
C1111 C1113 1.419 . S
C1112 C1110 1.415 . S
C1112 C1117 1.425 . S
C1112 C1119 1.409 . S
C1113 H1105 0.930 . S
C1113 C1111 1.419 . S
C1113 C1114 1.362 . S
C1114 H1106 0.930 . S
C1114 C1113 1.362 . S
C1114 C1117 1.409 . S
C1115 H1107 0.930 . S
C1115 C1116 1.355 . S
C1115 C1117 1.415 . S
C1116 C1115 1.355 . S
C1116 C1118 1.419 . S
C1117 C1112 1.425 . S
C1117 C1114 1.409 . S
C1117 C1115 1.415 . S
C1118 H1108 0.930 . S
C1118 C1116 1.419 . S
C1118 C1119 1.362 . S
C1119 H1109 0.930 . S
C1119 C1112 1.409 . S
C1119 C1118 1.362 . S
C620 C213 1.531 . S
C615 C16 1.515 . S
C636 C266 1.328 . S
C631 C30 1.328 . S
C652 C329 1.611 . S
C647 C53 1.612 . S
C668 C372 1.360 . S
C663 C76 1.362 . S
C679 N104 1.458 . S
C684 C328 1.513 . S
C700 C365 1.327 . S
C695 N127 1.252 . S
C716 C206 1.418 . S
C711 N140 1.408 . S
C732 C259 1.195 . S
C727 N173 1.163 . S
C748 C312 1.515 . S
C743 C168 1.511 . S
C764 C381 1.873 . S
C759 C99 1.860 . S
C780 C222 1.593 . S
C775 C122 1.600 . S
C796 C275 1.743 . S
C791 C154 1.744 . S
C812 C223 1.506 . S
C807 N35 1.442 . S
C828 C276 1.731 . S
C823 N58 1.657 . S
C844 C319 1.436 . S
C839 N81 1.378 . S
C860 C382 1.699 . S
C855 N2 1.686 . S
C876 C425 1.483 . S
C871 C177 1.473 . S
C887 C108 1.743 . S
C892 C478 1.738 . S
C903 C131 1.636 . S
C908 C540 1.614 . S
C919 C145 1.742 . S
C924 C594 1.735 . S
C935 N25 1.462 . S
C940 C541 1.473 . S
C951 N48 1.653 . S
C956 C593 1.726 . S
C967 N71 1.394 . S
C972 C418 1.464 . S
C988 C471 1.569 . S
C983 N12 1.501 . S
C1004 C531 1.476 . S
C999 C7 1.482 . S
C1015 C39 1.368 . S
C1020 C577 1.379 . S
C1031 C62 1.624 . S
C1036 C434 1.632 . S
C1047 C85 1.338 . S
C1052 C487 1.340 . S
C1068 C435 1.479 . S
C1063 N94 1.467 . S
C1084 C488 1.378 . S
C1079 N117 1.370 . S
C1095 N150 1.398 . S
C1100 C524 1.458 . S
C1116 C584 1.250 . S
C1111 N163 1.227 . S
