# Generated by pormake.
# Topology gar, (4,6)-cn, num edge types: 1
# Building blocks:
#     Node 0, Type 0, BuildingBlock: CEKHIL_clean_sbu_0, # of connection points: 4
#     Node 1, Type 0, BuildingBlock: CEKHIL_clean_sbu_0, # of connection points: 4
#     Node 2, Type 0, BuildingBlock: CEKHIL_clean_sbu_0, # of connection points: 4
#     Node 3, Type 0, BuildingBlock: CEKHIL_clean_sbu_0, # of connection points: 4
#     Node 4, Type 0, BuildingBlock: CEKHIL_clean_sbu_0, # of connection points: 4
#     Node 5, Type 0, BuildingBlock: CEKHIL_clean_sbu_0, # of connection points: 4
#     Node 6, Type 0, BuildingBlock: CEKHIL_clean_sbu_0, # of connection points: 4
#     Node 7, Type 0, BuildingBlock: CEKHIL_clean_sbu_0, # of connection points: 4
#     Node 8, Type 0, BuildingBlock: CEKHIL_clean_sbu_0, # of connection points: 4
#     Node 9, Type 0, BuildingBlock: CEKHIL_clean_sbu_0, # of connection points: 4
#     Node 10, Type 0, BuildingBlock: CEKHIL_clean_sbu_0, # of connection points: 4
#     Node 11, Type 0, BuildingBlock: CEKHIL_clean_sbu_0, # of connection points: 4
#     Node 12, Type 0, BuildingBlock: CEKHIL_clean_sbu_0, # of connection points: 4
#     Node 13, Type 0, BuildingBlock: CEKHIL_clean_sbu_0, # of connection points: 4
#     Node 14, Type 0, BuildingBlock: CEKHIL_clean_sbu_0, # of connection points: 4
#     Node 15, Type 0, BuildingBlock: CEKHIL_clean_sbu_0, # of connection points: 4
#     Node 16, Type 0, BuildingBlock: CEKHIL_clean_sbu_0, # of connection points: 4
#     Node 17, Type 0, BuildingBlock: CEKHIL_clean_sbu_0, # of connection points: 4
#     Node 18, Type 0, BuildingBlock: CEKHIL_clean_sbu_0, # of connection points: 4
#     Node 19, Type 0, BuildingBlock: CEKHIL_clean_sbu_0, # of connection points: 4
#     Node 20, Type 0, BuildingBlock: CEKHIL_clean_sbu_0, # of connection points: 4
#     Node 21, Type 0, BuildingBlock: CEKHIL_clean_sbu_0, # of connection points: 4
#     Node 22, Type 0, BuildingBlock: CEKHIL_clean_sbu_0, # of connection points: 4
#     Node 23, Type 0, BuildingBlock: CEKHIL_clean_sbu_0, # of connection points: 4
#     Node 24, Type 1, BuildingBlock: BETDEL_clean_sbu_0, # of connection points: 6
#     Node 25, Type 1, BuildingBlock: BETDEL_clean_sbu_0, # of connection points: 6
#     Node 26, Type 1, BuildingBlock: BETDEL_clean_sbu_0, # of connection points: 6
#     Node 27, Type 1, BuildingBlock: BETDEL_clean_sbu_0, # of connection points: 6
#     Node 28, Type 1, BuildingBlock: BETDEL_clean_sbu_0, # of connection points: 6
#     Node 29, Type 1, BuildingBlock: BETDEL_clean_sbu_0, # of connection points: 6
#     Node 30, Type 1, BuildingBlock: BETDEL_clean_sbu_0, # of connection points: 6
#     Node 31, Type 1, BuildingBlock: BETDEL_clean_sbu_0, # of connection points: 6
#     Node 32, Type 1, BuildingBlock: BETDEL_clean_sbu_0, # of connection points: 6
#     Node 33, Type 1, BuildingBlock: BETDEL_clean_sbu_0, # of connection points: 6
#     Node 34, Type 1, BuildingBlock: BETDEL_clean_sbu_0, # of connection points: 6
#     Node 35, Type 1, BuildingBlock: BETDEL_clean_sbu_0, # of connection points: 6
#     Node 36, Type 1, BuildingBlock: BETDEL_clean_sbu_0, # of connection points: 6
#     Node 37, Type 1, BuildingBlock: BETDEL_clean_sbu_0, # of connection points: 6
#     Node 38, Type 1, BuildingBlock: BETDEL_clean_sbu_0, # of connection points: 6
#     Node 39, Type 1, BuildingBlock: BETDEL_clean_sbu_0, # of connection points: 6
#     Edge 40, Type (0, 1), None
#     Edge 41, Type (0, 1), None
#     Edge 42, Type (0, 1), None
#     Edge 43, Type (0, 1), None
#     Edge 44, Type (0, 1), None
#     Edge 45, Type (0, 1), None
#     Edge 46, Type (0, 1), None
#     Edge 47, Type (0, 1), None
#     Edge 48, Type (0, 1), None
#     Edge 49, Type (0, 1), None
#     Edge 50, Type (0, 1), None
#     Edge 51, Type (0, 1), None
#     Edge 52, Type (0, 1), None
#     Edge 53, Type (0, 1), None
#     Edge 54, Type (0, 1), None
#     Edge 55, Type (0, 1), None
#     Edge 56, Type (0, 1), None
#     Edge 57, Type (0, 1), None
#     Edge 58, Type (0, 1), None
#     Edge 59, Type (0, 1), None
#     Edge 60, Type (0, 1), None
#     Edge 61, Type (0, 1), None
#     Edge 62, Type (0, 1), None
#     Edge 63, Type (0, 1), None
#     Edge 64, Type (0, 1), None
#     Edge 65, Type (0, 1), None
#     Edge 66, Type (0, 1), None
#     Edge 67, Type (0, 1), None
#     Edge 68, Type (0, 1), None
#     Edge 69, Type (0, 1), None
#     Edge 70, Type (0, 1), None
#     Edge 71, Type (0, 1), None
#     Edge 72, Type (0, 1), None
#     Edge 73, Type (0, 1), None
#     Edge 74, Type (0, 1), None
#     Edge 75, Type (0, 1), None
#     Edge 76, Type (0, 1), None
#     Edge 77, Type (0, 1), None
#     Edge 78, Type (0, 1), None
#     Edge 79, Type (0, 1), None
#     Edge 80, Type (0, 1), None
#     Edge 81, Type (0, 1), None
#     Edge 82, Type (0, 1), None
#     Edge 83, Type (0, 1), None
#     Edge 84, Type (0, 1), None
#     Edge 85, Type (0, 1), None
#     Edge 86, Type (0, 1), None
#     Edge 87, Type (0, 1), None
#     Edge 88, Type (0, 1), None
#     Edge 89, Type (0, 1), None
#     Edge 90, Type (0, 1), None
#     Edge 91, Type (0, 1), None
#     Edge 92, Type (0, 1), None
#     Edge 93, Type (0, 1), None
#     Edge 94, Type (0, 1), None
#     Edge 95, Type (0, 1), None
#     Edge 96, Type (0, 1), None
#     Edge 97, Type (0, 1), None
#     Edge 98, Type (0, 1), None
#     Edge 99, Type (0, 1), None
#     Edge 100, Type (0, 1), None
#     Edge 101, Type (0, 1), None
#     Edge 102, Type (0, 1), None
#     Edge 103, Type (0, 1), None
#     Edge 104, Type (0, 1), None
#     Edge 105, Type (0, 1), None
#     Edge 106, Type (0, 1), None
#     Edge 107, Type (0, 1), None
#     Edge 108, Type (0, 1), None
#     Edge 109, Type (0, 1), None
#     Edge 110, Type (0, 1), None
#     Edge 111, Type (0, 1), None
#     Edge 112, Type (0, 1), None
#     Edge 113, Type (0, 1), None
#     Edge 114, Type (0, 1), None
#     Edge 115, Type (0, 1), None
#     Edge 116, Type (0, 1), None
#     Edge 117, Type (0, 1), None
#     Edge 118, Type (0, 1), None
#     Edge 119, Type (0, 1), None
#     Edge 120, Type (0, 1), None
#     Edge 121, Type (0, 1), None
#     Edge 122, Type (0, 1), None
#     Edge 123, Type (0, 1), None
#     Edge 124, Type (0, 1), None
#     Edge 125, Type (0, 1), None
#     Edge 126, Type (0, 1), None
#     Edge 127, Type (0, 1), None
#     Edge 128, Type (0, 1), None
#     Edge 129, Type (0, 1), None
#     Edge 130, Type (0, 1), None
#     Edge 131, Type (0, 1), None
#     Edge 132, Type (0, 1), None
#     Edge 133, Type (0, 1), None
#     Edge 134, Type (0, 1), None
#     Edge 135, Type (0, 1), None
# Relax obj value: 0.178
# Max RMSD: 0.310
# Mean RMSD: 0.156
data_MOF--net-gar--node1-CEKHIL_clean_sbu_0--node2-BETDEL_clean_sbu_0--edge1-none
_symmetry_space_group_name_H-M    P1
_symmetry_Int_Tables_number       1
_symmetry_cell_setting            triclinic
loop_
_symmetry_equiv_pos_as_xyz
'x, y, z'
_cell_length_a     25.680831
_cell_length_b     23.055735
_cell_length_c     24.27538
_cell_angle_alpha  94.555591
_cell_angle_beta   90.997698
_cell_angle_gamma 99.169096
loop_
_atom_site_label
_atom_site_type_symbol
_atom_site_fract_x
_atom_site_fract_y
_atom_site_fract_z
_atom_type_partial_charge
Co0 Co 0.10548 0.30123 0.41153 0.0
O1 O 0.17801 0.28618 0.41269 0.0
O2 O 0.1247 0.26966 0.33934 0.0
C3 C 0.11848 0.39111 0.46294 0.0
O4 O 1.03312 0.3116 0.38566 0.0
Co5 Co 1.03543 0.32651 0.51173 0.0
O6 O 1.00483 0.36728 0.45253 0.0
C7 C 0.05864 0.20755 0.48503 0.0
C8 C 0.17085 0.2678 0.36044 0.0
C9 C 1.00431 0.34905 0.40202 0.0
O10 O 0.07749 0.22071 0.43736 0.0
O11 O 0.04509 0.24446 0.52177 0.0
O12 O 0.1291 0.38861 0.4104 0.0
O13 O 0.10435 0.34123 0.48153 0.0
Co14 Co 1.02877 0.7892 0.62412 0.0
O15 O 0.9573 0.8078 0.62953 0.0
O16 O 1.00187 0.77913 0.69771 0.0
C17 C 0.06319 0.8689 0.57797 0.0
O18 O 0.09981 0.76799 0.64237 0.0
Co19 Co 0.09283 0.77125 0.51617 0.0
O20 O 0.15274 0.77519 0.57062 0.0
C21 C 1.0037 0.68813 0.54304 0.0
C22 C 0.95985 0.79802 0.68155 0.0
C23 C 0.14426 0.76524 0.62071 0.0
O24 O 1.0048 0.7039 0.59534 0.0
O25 O 1.01871 0.726 0.50874 0.0
O26 O 0.05769 0.87381 0.6314 0.0
O27 O 0.04617 0.81782 0.55404 0.0
Co28 Co 0.60548 0.80123 0.91153 0.0
O29 O 0.67801 0.78618 0.91269 0.0
O30 O 0.6247 0.76966 0.83934 0.0
C31 C 0.61848 0.89111 0.96294 0.0
O32 O 0.53312 0.8116 0.88566 0.0
Co33 Co 0.53543 0.82651 1.01173 0.0
O34 O 0.50483 0.86728 0.95253 0.0
C35 C 0.55864 0.70755 0.98503 0.0
C36 C 0.67085 0.7678 0.86044 0.0
C37 C 0.50431 0.84905 0.90202 0.0
O38 O 0.57749 0.72071 0.93736 0.0
O39 O 0.54509 0.74446 0.02177 0.0
O40 O 0.6291 0.88861 0.9104 0.0
O41 O 0.60435 0.84123 0.98153 0.0
Co42 Co 0.52877 0.2892 0.12412 0.0
O43 O 0.4573 0.30781 0.12953 0.0
O44 O 0.50187 0.27913 0.19771 0.0
C45 C 0.56319 0.3689 0.07797 0.0
O46 O 0.59981 0.26799 0.14237 0.0
Co47 Co 0.59283 0.27125 0.01617 0.0
O48 O 0.65274 0.27519 0.07062 0.0
C49 C 0.5037 0.18813 0.04304 0.0
C50 C 0.45985 0.29802 0.18155 0.0
C51 C 0.64426 0.26524 0.12071 0.0
O52 O 0.5048 0.2039 0.09534 0.0
O53 O 0.51871 0.226 1.00874 0.0
O54 O 0.55769 0.37381 0.1314 0.0
O55 O 0.54617 0.31782 0.05404 0.0
Co56 Co 0.08159 0.80699 0.17365 0.0
O57 O 1.00791 0.78186 0.15433 0.0
O58 O 0.04521 0.7771 0.23664 0.0
C59 C 0.08411 0.89159 0.13013 0.0
O60 O 0.15207 0.82903 0.21722 0.0
Co61 Co 0.17387 0.83024 0.10204 0.0
O62 O 0.22273 0.85311 0.16767 0.0
C63 C 0.11885 0.70863 0.1044 0.0
C64 C 1.00309 0.76838 0.20529 0.0
C65 C 0.20196 0.84568 0.21411 0.0
O66 O 0.09561 0.72585 0.14777 0.0
O67 O 0.14985 0.74419 0.07728 0.0
O68 O 0.06879 0.88878 0.18083 0.0
O69 O 0.10035 0.84504 0.10771 0.0
Co70 Co 0.53606 0.79149 0.38696 0.0
O71 O 0.60894 0.8211 0.4072 0.0
O72 O 0.57709 0.78933 0.32247 0.0
C73 C 0.50681 0.86781 0.43699 0.0
O74 O 0.46758 0.76285 0.34095 0.0
Co75 Co 0.44748 0.75137 0.4545 0.0
O76 O 0.39677 0.73845 0.38944 0.0
C77 C 0.54177 0.69434 0.45545 0.0
C78 C 0.61664 0.813 0.35446 0.0
C79 C 0.41778 0.74539 0.34309 0.0
O80 O 0.54831 0.71056 0.40615 0.0
O81 O 0.5053 0.71129 0.48481 0.0
O82 O 0.52329 0.87114 0.3872 0.0
O83 O 0.50679 0.81687 0.45599 0.0
Co84 Co 0.58159 0.30699 0.67365 0.0
O85 O 0.50791 0.28186 0.65433 0.0
O86 O 0.54521 0.2771 0.73664 0.0
C87 C 0.58411 0.39159 0.63013 0.0
O88 O 0.65208 0.32903 0.71722 0.0
Co89 Co 0.67387 0.33024 0.60204 0.0
O90 O 0.72273 0.35311 0.66767 0.0
C91 C 0.61885 0.20863 0.60439 0.0
C92 C 0.50309 0.26838 0.70529 0.0
C93 C 0.70196 0.34568 0.71411 0.0
O94 O 0.59561 0.22585 0.64777 0.0
O95 O 0.64985 0.24419 0.57728 0.0
O96 O 0.56879 0.38878 0.68083 0.0
O97 O 0.60035 0.34504 0.60771 0.0
Co98 Co 1.03606 0.29149 0.88696 0.0
O99 O 0.10894 0.3211 0.9072 0.0
O100 O 0.07709 0.28933 0.82247 0.0
C101 C 1.00681 0.36781 0.93699 0.0
O102 O 0.96758 0.26285 0.84095 0.0
Co103 Co 0.94748 0.25137 0.9545 0.0
O104 O 0.89677 0.23846 0.88944 0.0
C105 C 0.04177 0.19434 0.95545 0.0
C106 C 0.11664 0.313 0.85446 0.0
C107 C 0.91779 0.24539 0.84309 0.0
O108 O 0.04831 0.21056 0.90615 0.0
O109 O 1.0053 0.21129 0.98481 0.0
O110 O 1.02329 0.37114 0.8872 0.0
O111 O 1.00679 0.31687 0.95599 0.0
Co112 Co 0.46461 0.04128 0.3215 0.0
O113 O 0.45908 0.1166 0.29521 0.0
O114 O 0.39195 0.04497 0.30657 0.0
C115 C 0.52587 0.07279 0.39007 0.0
O116 O 0.44718 0.96299 0.35213 0.0
Co117 Co 0.55117 0.96925 0.32794 0.0
O118 O 0.48999 0.90673 0.30079 0.0
C119 C 0.52222 1.00807 0.22488 0.0
C120 C 0.40832 0.09698 0.29199 0.0
C121 C 0.44742 0.91548 0.32296 0.0
O122 O 0.47547 1.00973 0.24306 0.0
O123 O 0.56099 1.00216 0.25597 0.0
O124 O 0.47619 0.07689 0.39734 0.0
O125 O 0.53682 0.05102 0.34237 0.0
Co126 Co 0.30721 0.17737 0.49629 0.0
O127 O 0.38348 0.19219 0.51075 0.0
O128 O 0.33201 0.10562 0.5096 0.0
C129 C 0.31162 0.2375 0.4211 0.0
O130 O 0.23283 0.1293 0.48155 0.0
Co131 Co 0.22713 0.25101 0.5004 0.0
O132 O 0.1697 0.18324 0.47997 0.0
C133 C 0.27168 0.2301 0.60721 0.0
C134 C 0.37844 0.13584 0.5168 0.0
C135 C 0.18379 0.13299 0.47762 0.0
O136 O 0.29593 0.19257 0.57985 0.0
O137 O 0.24292 0.26097 0.58254 0.0
O138 O 0.31911 0.18276 0.41554 0.0
O139 O 0.29897 0.25444 0.47077 0.0
Co140 Co 0.20037 0.02978 0.83005 0.0
O141 O 0.19752 0.94947 0.7949 0.0
O142 O 0.27103 1.01054 0.81524 0.0
C143 C 0.1359 1.00687 0.89691 0.0
O144 O 0.22824 0.11176 0.86509 0.0
Co145 Co 0.12175 0.11513 0.85225 0.0
O146 O 0.18282 0.17635 0.83574 0.0
C147 C 0.15409 0.08712 0.73801 0.0
C148 C 0.24914 0.95919 0.79434 0.0
C149 C 0.22701 0.15976 0.8425 0.0
O150 O 0.19189 0.06088 0.75456 0.0
O151 O 0.12097 0.10662 0.77028 0.0
O152 O 0.18454 0.99813 0.90369 0.0
O153 O 0.12797 0.03082 0.85225 0.0
Co154 Co 0.3025 0.91341 0.97383 0.0
O155 O 0.23331 0.91455 1.00282 0.0
O156 O 0.2952 0.99309 1.00095 0.0
C157 C 0.27686 0.85116 0.8963 0.0
O158 O 0.37602 0.93802 0.9468 0.0
Co159 Co 0.3618 0.80889 0.95026 0.0
O160 O 0.41707 0.87389 0.98408 0.0
C161 C 0.33219 0.84031 0.05958 0.0
C162 C 0.24791 0.97136 0.01339 0.0
C163 C 0.41701 0.92555 0.96996 0.0
O164 O 0.32887 0.89341 0.04786 0.0
O165 O 0.3337 0.79764 0.02357 0.0
O166 O 0.27225 0.90685 0.89778 0.0
O167 O 0.29434 0.83494 0.94098 0.0
Co168 Co 0.32342 0.40092 0.0352 0.0
O169 O 0.24892 0.38515 0.01369 0.0
O170 O 0.29056 0.46786 0.05756 0.0
C171 C 0.3497 0.36777 0.94886 0.0
O172 O 0.39666 0.44497 0.06085 0.0
Co173 Co 0.39922 0.319 0.04027 0.0
O174 O 0.45733 0.38829 0.04468 0.0
C175 C 0.31455 0.3093 0.12083 0.0
C176 C 0.2481 0.43928 0.03305 0.0
C177 C 0.4451 0.43883 0.05678 0.0
O178 O 0.30702 0.36134 0.10865 0.0
O179 O 0.34706 0.28201 0.09406 0.0
O180 O 0.33973 0.42082 0.95997 0.0
O181 O 0.3439 0.33533 0.99027 0.0
Co182 Co 0.82499 0.16368 0.04754 0.0
O183 O 0.89658 0.1574 0.02883 0.0
O184 O 0.84212 0.08725 0.0649 0.0
C185 C 0.80525 0.19926 0.96849 0.0
O186 O 0.74761 0.14927 0.06891 0.0
Co187 Co 0.77202 0.27774 0.04573 0.0
O188 O 0.71195 0.2137 0.02289 0.0
C189 C 0.85366 0.26755 0.13085 0.0
C190 C 0.88707 0.10342 0.04257 0.0
C191 C 0.70791 0.16507 0.04482 0.0
O192 O 0.84905 0.21035 0.12136 0.0
O193 O 0.83193 0.30032 0.10052 0.0
O194 O 0.80355 0.14257 0.96932 0.0
O195 O 0.82001 0.2309 0.01289 0.0
Co196 Co 0.17616 0.53593 0.23251 0.0
O197 O 0.18339 0.46104 0.25818 0.0
O198 O 0.24442 0.51688 0.21308 0.0
C199 C 0.14398 0.56964 0.31086 0.0
O200 O 0.18463 0.61475 0.2009 0.0
Co201 Co 0.07203 0.59448 0.2301 0.0
O202 O 0.12837 0.66622 0.24258 0.0
C203 C 0.08626 0.48956 0.16491 0.0
C204 C 0.23126 0.47101 0.24047 0.0
C205 C 0.17414 0.66275 0.22426 0.0
O206 O 0.13707 0.49866 0.16348 0.0
O207 O 0.06415 0.50643 0.20846 0.0
O208 O 0.1948 0.57187 0.30714 0.0
O209 O 0.11504 0.54737 0.26874 0.0
Co210 Co 0.82342 0.90092 0.5352 0.0
O211 O 0.74892 0.88515 0.51369 0.0
O212 O 0.79056 0.96786 0.55756 0.0
C213 C 0.8497 0.86777 0.44886 0.0
O214 O 0.89666 0.94497 0.56086 0.0
Co215 Co 0.89922 0.819 0.54027 0.0
O216 O 0.95733 0.88829 0.54468 0.0
C217 C 0.81455 0.80929 0.62083 0.0
C218 C 0.7481 0.93928 0.53305 0.0
C219 C 0.9451 0.93883 0.55678 0.0
O220 O 0.80702 0.86134 0.60865 0.0
O221 O 0.84706 0.78201 0.59406 0.0
O222 O 0.83973 0.92082 0.45997 0.0
O223 O 0.8439 0.83533 0.49027 0.0
Co224 Co 0.92344 0.05457 0.24718 0.0
O225 O 0.93037 0.13794 0.27427 0.0
O226 O 0.8627 0.09043 0.22413 0.0
C227 C 0.94935 0.02063 0.32737 0.0
O228 O 0.8939 0.97112 0.21542 0.0
Co229 Co 1.00466 0.96648 0.24537 0.0
O230 O 0.93872 0.90979 0.25505 0.0
C231 C 1.01783 0.06454 0.17201 0.0
C232 C 0.88351 0.13849 0.25268 0.0
C233 C 0.8954 0.92239 0.237 0.0
O234 O 0.96906 0.07347 0.17886 0.0
O235 O 0.0391 0.02855 0.19899 0.0
O236 O 0.9018 0.03309 0.32229 0.0
O237 O 0.9789 0.03103 0.28643 0.0
Co238 Co 0.32499 0.66368 0.54754 0.0
O239 O 0.39658 0.6574 0.52883 0.0
O240 O 0.34212 0.58725 0.5649 0.0
C241 C 0.30525 0.69926 0.46849 0.0
O242 O 0.24761 0.64927 0.56891 0.0
Co243 Co 0.27202 0.77774 0.54573 0.0
O244 O 0.21195 0.7137 0.52289 0.0
C245 C 0.35366 0.76755 0.63085 0.0
C246 C 0.38707 0.60342 0.54257 0.0
C247 C 0.20791 0.66507 0.54482 0.0
O248 O 0.34905 0.71035 0.62136 0.0
O249 O 0.33193 0.80032 0.60052 0.0
O250 O 0.30355 0.64257 0.46932 0.0
O251 O 0.32001 0.7309 0.51289 0.0
Co252 Co 0.42344 0.55457 0.74718 0.0
O253 O 0.43037 0.63794 0.77427 0.0
O254 O 0.3627 0.59043 0.72413 0.0
C255 C 0.44935 0.52063 0.82737 0.0
O256 O 0.3939 0.47112 0.71542 0.0
Co257 Co 0.50466 0.46648 0.74537 0.0
O258 O 0.43872 0.40979 0.75505 0.0
C259 C 0.51783 0.56454 0.67201 0.0
C260 C 0.38351 0.63849 0.75268 0.0
C261 C 0.3954 0.42239 0.737 0.0
O262 O 0.46906 0.57347 0.67886 0.0
O263 O 0.5391 0.52855 0.69899 0.0
O264 O 0.4018 0.53309 0.82229 0.0
O265 O 0.4789 0.53103 0.78643 0.0
Co266 Co 0.67616 0.03593 0.73251 0.0
O267 O 0.68339 0.96104 0.75818 0.0
O268 O 0.74442 1.01688 0.71308 0.0
C269 C 0.64398 0.06964 0.81086 0.0
O270 O 0.68463 0.11475 0.7009 0.0
Co271 Co 0.57203 0.09448 0.7301 0.0
O272 O 0.62837 0.16622 0.74258 0.0
C273 C 0.58626 0.98956 0.66491 0.0
C274 C 0.73126 0.97101 0.74047 0.0
C275 C 0.67414 0.16275 0.72426 0.0
O276 O 0.63707 0.99866 0.66348 0.0
O277 O 0.56415 1.00643 0.70846 0.0
O278 O 0.6948 0.07187 0.80714 0.0
O279 O 0.61504 0.04737 0.76874 0.0
Co280 Co 0.80721 0.67737 0.99629 0.0
O281 O 0.88348 0.69219 1.01075 0.0
O282 O 0.83201 0.60562 1.0096 0.0
C283 C 0.81162 0.7375 0.9211 0.0
O284 O 0.73283 0.6293 0.98155 0.0
Co285 Co 0.72713 0.75101 1.0004 0.0
O286 O 0.6697 0.68324 0.97997 0.0
C287 C 0.77168 0.7301 0.10721 0.0
C288 C 0.87844 0.63584 0.0168 0.0
C289 C 0.68379 0.63299 0.97762 0.0
O290 O 0.79593 0.69257 0.07985 0.0
O291 O 0.74292 0.76097 0.08254 0.0
O292 O 0.81911 0.68276 0.91554 0.0
O293 O 0.79897 0.75444 0.97077 0.0
Co294 Co 0.96461 0.54128 0.8215 0.0
O295 O 0.95908 0.6166 0.79521 0.0
O296 O 0.89195 0.54497 0.80657 0.0
C297 C 1.02587 0.57279 0.89007 0.0
O298 O 0.94718 0.46299 0.85213 0.0
Co299 Co 0.05117 0.46925 0.82794 0.0
O300 O 0.98999 0.40673 0.80079 0.0
C301 C 1.02222 0.50807 0.72488 0.0
C302 C 0.90832 0.59698 0.79199 0.0
C303 C 0.94743 0.41548 0.82296 0.0
O304 O 0.97547 0.50973 0.74306 0.0
O305 O 0.06099 0.50216 0.75597 0.0
O306 O 0.97619 0.57689 0.89734 0.0
O307 O 0.03682 0.55102 0.84237 0.0
Co308 Co 0.8025 0.41341 0.47383 0.0
O309 O 0.73331 0.41455 0.50282 0.0
O310 O 0.7952 0.49309 0.50095 0.0
C311 C 0.77686 0.35116 0.3963 0.0
O312 O 0.87602 0.43802 0.4468 0.0
Co313 Co 0.8618 0.30889 0.45026 0.0
O314 O 0.91707 0.37389 0.48408 0.0
C315 C 0.83219 0.34031 0.55958 0.0
C316 C 0.74791 0.47136 0.51339 0.0
C317 C 0.91701 0.42555 0.46996 0.0
O318 O 0.82887 0.39341 0.54786 0.0
O319 O 0.8337 0.29764 0.52357 0.0
O320 O 0.77225 0.40685 0.39778 0.0
O321 O 0.79434 0.33494 0.44098 0.0
Co322 Co 0.70037 0.52978 0.33005 0.0
O323 O 0.69752 0.44947 0.2949 0.0
O324 O 0.77103 0.51054 0.31524 0.0
C325 C 0.6359 0.50687 0.39691 0.0
O326 O 0.72824 0.61176 0.36509 0.0
Co327 Co 0.62175 0.61513 0.35225 0.0
O328 O 0.68282 0.67635 0.33574 0.0
C329 C 0.65409 0.58712 0.23801 0.0
C330 C 0.74914 0.45919 0.29434 0.0
C331 C 0.72701 0.65976 0.3425 0.0
O332 O 0.69189 0.56088 0.25456 0.0
O333 O 0.62097 0.60662 0.27028 0.0
O334 O 0.68454 0.49813 0.40369 0.0
O335 O 0.62797 0.53082 0.35225 0.0
Dy336 Dy 1.01318 1.01164 1.01029 0.0
C337 C 0.20962 1.00908 0.03165 0.0
C338 C 0.92796 0.06539 0.03512 0.0
Dy339 Dy 0.12941 0.06956 0.05417 0.0
O340 O 0.9237 1.01058 0.01253 0.0
O341 O 0.97692 0.08832 0.04204 0.0
O342 O 0.04691 0.96647 0.93362 0.0
O343 O 0.08937 0.03973 0.97723 0.0
C344 C 0.09386 0.99971 0.94001 0.0
C345 C 0.0497 0.08349 0.12419 0.0
O346 O 0.10497 0.14338 1.00414 0.0
O347 O 1.02402 0.09337 0.9654 0.0
O348 O 0.21743 0.06594 0.04862 0.0
O349 O 0.16005 0.98819 0.02737 0.0
O350 O 0.09745 0.11503 0.13087 0.0
O351 O 0.05408 0.04451 0.08587 0.0
O352 O 1.03351 0.94032 0.06525 0.0
O353 O 0.11596 0.988 0.10207 0.0
C354 C 0.06051 0.14106 0.97277 0.0
C355 C 0.07733 0.94178 0.09721 0.0
Dy356 Dy 0.32996 0.78969 0.21653 0.0
C357 C 0.28711 0.72846 0.42308 0.0
C358 C 0.33558 0.82503 0.11537 0.0
Dy359 Dy 0.28812 0.79227 0.33626 0.0
O360 O 0.34069 0.7719 0.12742 0.0
O361 O 0.32936 0.85955 0.15855 0.0
O362 O 0.40455 0.75725 0.24414 0.0
O363 O 0.33583 0.74115 0.28768 0.0
C364 C 0.3849 0.73986 0.2905 0.0
C365 C 0.23564 0.84787 0.26528 0.0
O366 O 0.36442 0.85815 0.34691 0.0
O367 O 0.39021 0.86072 0.25473 0.0
O368 O 0.28488 0.78531 0.42676 0.0
O369 O 0.2869 0.70662 0.37236 0.0
O370 O 0.21615 0.83142 0.31227 0.0
O371 O 0.28399 0.84264 0.26592 0.0
O372 O 0.25526 0.72369 0.20437 0.0
O373 O 0.22313 0.72779 0.29386 0.0
C374 C 0.39787 0.87665 0.30797 0.0
C375 C 0.21871 0.70871 0.24093 0.0
Dy376 Dy 0.61973 0.02676 0.5119 0.0
C377 C 0.42229 0.10543 0.52963 0.0
C378 C 0.70318 0.96935 0.52382 0.0
Dy379 Dy 0.50171 0.04265 0.54181 0.0
O380 O 0.70652 0.02247 0.50757 0.0
O381 O 0.65475 0.94772 0.53284 0.0
O382 O 0.61328 0.07345 0.43306 0.0
O383 O 0.54758 0.03471 0.47148 0.0
C384 C 0.56189 0.06912 0.4361 0.0
C385 C 0.55638 0.99393 0.61473 0.0
O386 O 0.48579 0.95726 0.48608 0.0
O387 O 0.57252 0.93787 0.48439 0.0
O388 O 0.41695 0.05392 0.5499 0.0
O389 O 0.47054 0.1222 0.51599 0.0
O390 O 0.5046 0.98673 0.61326 0.0
O391 O 0.57346 0.03304 0.58382 0.0
O392 O 0.63715 0.1159 0.56027 0.0
O393 O 0.54992 0.12879 0.57701 0.0
C394 C 0.52101 0.92157 0.47426 0.0
C395 C 0.60168 0.14797 0.57979 0.0
Dy396 Dy 0.26034 0.3167 0.78259 0.0
C397 C 0.45147 0.25483 0.729 0.0
C398 C 0.16846 0.32374 0.83183 0.0
Dy399 Dy 0.35914 0.25794 0.77995 0.0
O400 O 0.17815 0.33776 0.7815 0.0
O401 O 0.20852 0.30674 0.85466 0.0
O402 O 0.29833 0.39265 0.73516 0.0
O403 O 0.34364 0.34673 0.7832 0.0
C404 C 0.34598 0.38301 0.747 0.0
C405 C 0.27554 0.19333 0.82092 0.0
O406 O 0.37332 0.31018 0.86499 0.0
O407 O 0.29468 0.34846 0.86738 0.0
O408 O 0.44205 0.23712 0.77832 0.0
O409 O 0.41078 0.27267 0.70831 0.0
O410 O 0.32371 0.18407 0.83078 0.0
O411 O 0.27556 0.22709 0.78227 0.0
O412 O 0.24686 0.27146 0.69651 0.0
O413 O 0.32476 0.23199 0.69228 0.0
C414 C 0.33934 0.34026 0.89134 0.0
C415 C 0.2807 0.24323 0.66854 0.0
Dy416 Dy 0.0448 1.01156 0.46094 0.0
C417 C 0.14039 0.0877 0.67944 0.0
C418 C 0.97188 0.99757 0.37577 0.0
Dy419 Dy 0.08714 0.05413 0.58159 0.0
O420 O 1.01768 0.97918 0.37396 0.0
O421 O 0.96426 0.01769 0.42586 0.0
O422 O 0.11244 0.0692 0.42265 0.0
O423 O 0.12311 0.04341 0.50124 0.0
C424 C 0.14353 0.07807 0.46627 0.0
C425 C 0.98737 0.99046 0.57241 0.0
O426 O 0.08094 0.14015 0.54758 0.0
O427 O 1.03276 0.1048 0.46615 0.0
O428 O 0.09716 0.10542 0.66372 0.0
O429 O 0.15648 0.05417 0.64006 0.0
O430 O 1.01825 0.99379 0.61568 0.0
O431 O 1.00974 0.02652 0.54018 0.0
O432 O 0.05213 0.9258 0.49946 0.0
O433 O 0.10932 0.9655 0.5731 0.0
C434 C 0.05613 0.14799 0.501 0.0
C435 C 0.0794 0.92039 0.54589 0.0
Dy436 Dy 0.37606 0.83257 0.79293 0.0
C437 C 0.18788 0.75631 0.65739 0.0
C438 C 0.45839 0.85473 0.86724 0.0
Dy439 Dy 0.264 0.77273 0.73869 0.0
O440 O 0.45931 0.87603 0.81883 0.0
O441 O 0.4123 0.82511 0.87504 0.0
O442 O 0.41259 0.79951 0.71365 0.0
O443 O 0.33661 0.82103 0.71364 0.0
C444 C 0.36909 0.79779 0.68521 0.0
C445 C 0.2666 0.80875 0.84689 0.0
O446 O 0.30946 0.69369 0.73547 0.0
O447 O 0.38256 0.73678 0.79183 0.0
O448 O 0.18223 0.7344 0.7055 0.0
O449 O 0.23594 0.78232 0.65257 0.0
O450 O 0.22381 0.8016 0.81603 0.0
O451 O 0.30203 0.78749 0.82034 0.0
O452 O 0.32867 0.91027 0.79875 0.0
O453 O 0.2543 0.86751 0.74384 0.0
C454 C 0.35623 0.69152 0.7606 0.0
C455 C 0.28065 0.91195 0.77588 0.0
Dy456 Dy 0.56355 0.02375 0.0624 0.0
C457 C 0.61835 0.08098 0.86172 0.0
C458 C 0.53476 1.0134 0.16757 0.0
Dy459 Dy 0.56258 0.06353 0.95312 0.0
O460 O 0.58206 1.0122 0.14984 0.0
O461 O 0.5027 0.02133 0.12819 0.0
O462 O 0.598 0.94022 0.05052 0.0
O463 O 0.58924 0.9876 0.98247 0.0
C464 C 0.6052 0.9424 0.99791 0.0
C465 C 0.5083 0.12739 0.02258 0.0
O466 O 0.4928 0.99127 0.93914 0.0
O467 O 0.48283 0.98044 0.03207 0.0
O468 O 0.56793 0.08347 0.86463 0.0
O469 O 0.63739 0.06899 0.90805 0.0
O470 O 0.49582 0.11254 0.97041 0.0
O471 O 0.55062 0.10818 0.03376 0.0
O472 O 0.64073 0.0864 0.07223 0.0
O473 O 0.63056 0.1281 0.99016 0.0
C474 C 0.46502 0.96988 0.98048 0.0
C475 C 0.65784 0.12439 0.03593 0.0
Dy476 Dy 0.32291 0.35128 0.28926 0.0
C477 C 0.37048 0.13403 0.27777 0.0
C478 C 0.26828 0.43153 0.25224 0.0
Dy479 Dy 0.30611 0.20966 0.25406 0.0
O480 O 0.31359 0.44593 0.28028 0.0
O481 O 0.25397 0.375 0.24579 0.0
O482 O 0.33092 0.33902 0.38344 0.0
O483 O 0.32566 0.26988 0.32499 0.0
C484 C 0.32563 0.28106 0.37685 0.0
C485 C 0.29013 0.27996 0.16992 0.0
O486 O 0.23302 0.21686 0.3056 0.0
O487 O 0.24128 0.32028 0.31627 0.0
O488 O 0.32305 0.1168 0.25483 0.0
O489 O 0.38045 0.19031 0.28912 0.0
O490 O 0.27493 0.2223 0.16702 0.0
O491 O 0.31222 0.29055 0.21729 0.0
O492 O 0.3996 0.34404 0.24313 0.0
O493 O 0.38392 0.24212 0.21597 0.0
C494 C 0.21625 0.26699 0.32409 0.0
C495 C 0.41335 0.29518 0.21697 0.0
Dy496 Dy 0.5448 0.51156 0.96094 0.0
C497 C 0.64039 0.5877 0.17944 0.0
C498 C 0.47188 0.49757 0.87577 0.0
Dy499 Dy 0.58714 0.55413 0.08159 0.0
O500 O 0.51768 0.47918 0.87396 0.0
O501 O 0.46426 0.51769 0.92586 0.0
O502 O 0.61244 0.5692 0.92265 0.0
O503 O 0.62311 0.54341 1.00124 0.0
C504 C 0.64353 0.57807 0.96627 0.0
C505 C 0.48737 0.49046 0.07241 0.0
O506 O 0.58094 0.64015 0.04758 0.0
O507 O 0.53276 0.6048 0.96615 0.0
O508 O 0.59716 0.60542 0.16372 0.0
O509 O 0.65649 0.55417 0.14006 0.0
O510 O 0.51825 0.49379 0.11568 0.0
O511 O 0.50974 0.52652 0.04018 0.0
O512 O 0.55213 0.4258 0.99946 0.0
O513 O 0.60932 0.4655 0.0731 0.0
C514 C 0.55613 0.64799 1.001 0.0
C515 C 0.5794 0.42039 0.04589 0.0
Dy516 Dy 0.87606 0.33257 0.29293 0.0
C517 C 0.68788 0.25631 0.15739 0.0
C518 C 0.95839 0.35473 0.36724 0.0
Dy519 Dy 0.764 0.27273 0.23869 0.0
O520 O 0.95931 0.37603 0.31883 0.0
O521 O 0.9123 0.32511 0.37504 0.0
O522 O 0.91259 0.29951 0.21365 0.0
O523 O 0.83661 0.32103 0.21364 0.0
C524 C 0.86909 0.29779 0.18521 0.0
C525 C 0.7666 0.30875 0.34689 0.0
O526 O 0.80946 0.19369 0.23547 0.0
O527 O 0.88256 0.23678 0.29183 0.0
O528 O 0.68223 0.2344 0.2055 0.0
O529 O 0.73594 0.28232 0.15257 0.0
O530 O 0.72381 0.3016 0.31603 0.0
O531 O 0.80203 0.28749 0.32034 0.0
O532 O 0.82867 0.41027 0.29875 0.0
O533 O 0.7543 0.36751 0.24384 0.0
C534 C 0.85623 0.19152 0.2606 0.0
C535 C 0.78065 0.41195 0.27588 0.0
Dy536 Dy 0.06355 0.52375 0.5624 0.0
C537 C 0.11835 0.58098 0.36172 0.0
C538 C 1.03476 0.5134 0.66757 0.0
Dy539 Dy 0.06258 0.56353 0.45312 0.0
O540 O 0.08206 0.5122 0.64984 0.0
O541 O 1.0027 0.52133 0.62819 0.0
O542 O 0.098 0.44022 0.55052 0.0
O543 O 0.08924 0.4876 0.48247 0.0
C544 C 0.1052 0.4424 0.49791 0.0
C545 C 1.00829 0.62739 0.52258 0.0
O546 O 0.9928 0.49127 0.43914 0.0
O547 O 0.98283 0.48044 0.53207 0.0
O548 O 0.06793 0.58347 0.36463 0.0
O549 O 0.13739 0.56899 0.40805 0.0
O550 O 0.99582 0.61254 0.47041 0.0
O551 O 0.05062 0.60818 0.53376 0.0
O552 O 0.14073 0.5864 0.57223 0.0
O553 O 0.13056 0.6281 0.49016 0.0
C554 C 0.96502 0.46988 0.48048 0.0
C555 C 0.15784 0.62439 0.53593 0.0
Dy556 Dy 0.76034 0.8167 0.28259 0.0
C557 C 0.95147 0.75483 0.229 0.0
C558 C 0.66846 0.82374 0.33183 0.0
Dy559 Dy 0.85914 0.75794 0.27995 0.0
O560 O 0.67815 0.83776 0.2815 0.0
O561 O 0.70852 0.80674 0.35466 0.0
O562 O 0.79833 0.89265 0.23516 0.0
O563 O 0.84364 0.84673 0.2832 0.0
C564 C 0.84598 0.88301 0.247 0.0
C565 C 0.77554 0.69333 0.32092 0.0
O566 O 0.87332 0.81018 0.36499 0.0
O567 O 0.79468 0.84846 0.36738 0.0
O568 O 0.94205 0.73712 0.27832 0.0
O569 O 0.91078 0.77267 0.20831 0.0
O570 O 0.82371 0.68407 0.33078 0.0
O571 O 0.77556 0.72709 0.28227 0.0
O572 O 0.74686 0.77146 0.19651 0.0
O573 O 0.82476 0.73199 0.19228 0.0
C574 C 0.83934 0.84026 0.39134 0.0
C575 C 0.7807 0.74323 0.16854 0.0
Dy576 Dy 0.82996 0.28969 0.71653 0.0
C577 C 0.78711 0.22846 0.92308 0.0
C578 C 0.83558 0.32503 0.61537 0.0
Dy579 Dy 0.78812 0.29227 0.83626 0.0
O580 O 0.84069 0.2719 0.62742 0.0
O581 O 0.82936 0.35955 0.65855 0.0
O582 O 0.90455 0.25725 0.74414 0.0
O583 O 0.83583 0.24115 0.78768 0.0
C584 C 0.8849 0.23986 0.7905 0.0
C585 C 0.73564 0.34787 0.76528 0.0
O586 O 0.86442 0.35815 0.84691 0.0
O587 O 0.89021 0.36072 0.75473 0.0
O588 O 0.78488 0.28531 0.92676 0.0
O589 O 0.7869 0.20662 0.87236 0.0
O590 O 0.71615 0.33142 0.81227 0.0
O591 O 0.78399 0.34264 0.76592 0.0
O592 O 0.75526 0.22369 0.70437 0.0
O593 O 0.72313 0.22779 0.79386 0.0
C594 C 0.89787 0.37665 0.80797 0.0
C595 C 0.71871 0.20871 0.74093 0.0
Dy596 Dy 0.82291 0.85128 0.78926 0.0
C597 C 0.87048 0.63403 0.77777 0.0
C598 C 0.76828 0.93153 0.75224 0.0
Dy599 Dy 0.80611 0.70966 0.75406 0.0
O600 O 0.81359 0.94593 0.78028 0.0
O601 O 0.75397 0.875 0.74579 0.0
O602 O 0.83092 0.83902 0.88344 0.0
O603 O 0.82566 0.76988 0.82499 0.0
C604 C 0.82563 0.78106 0.87685 0.0
C605 C 0.79013 0.77996 0.66992 0.0
O606 O 0.73302 0.71686 0.8056 0.0
O607 O 0.74128 0.82028 0.81627 0.0
O608 O 0.82305 0.6168 0.75483 0.0
O609 O 0.88045 0.69031 0.78912 0.0
O610 O 0.77493 0.7223 0.66702 0.0
O611 O 0.81222 0.79055 0.71729 0.0
O612 O 0.8996 0.84404 0.74313 0.0
O613 O 0.88392 0.74212 0.71597 0.0
C614 C 0.71625 0.76699 0.82409 0.0
C615 C 0.91335 0.79518 0.71697 0.0
Dy616 Dy 0.51318 0.51164 0.51029 0.0
C617 C 0.70962 0.50908 0.53165 0.0
C618 C 0.42796 0.56539 0.53512 0.0
Dy619 Dy 0.62941 0.56956 0.55417 0.0
O620 O 0.4237 0.51058 0.51253 0.0
O621 O 0.47692 0.58832 0.54204 0.0
O622 O 0.54691 0.46647 0.43362 0.0
O623 O 0.58937 0.53973 0.47723 0.0
C624 C 0.59386 0.49971 0.44001 0.0
C625 C 0.5497 0.58349 0.62419 0.0
O626 O 0.60497 0.64338 0.50414 0.0
O627 O 0.52402 0.59337 0.4654 0.0
O628 O 0.71743 0.56594 0.54861 0.0
O629 O 0.66005 0.48819 0.52737 0.0
O630 O 0.59745 0.61503 0.63087 0.0
O631 O 0.55408 0.54451 0.58587 0.0
O632 O 0.53351 0.44032 0.56525 0.0
O633 O 0.61596 0.488 0.60207 0.0
C634 C 0.56051 0.64106 0.47277 0.0
C635 C 0.57733 0.44178 0.59721 0.0
Dy636 Dy 0.11973 0.52676 1.0119 0.0
C637 C 0.92229 0.60543 0.02963 0.0
C638 C 0.20318 0.46935 0.02382 0.0
Dy639 Dy 1.00171 0.54265 0.04181 0.0
O640 O 0.20652 0.52248 1.00757 0.0
O641 O 0.15475 0.44772 0.03283 0.0
O642 O 0.11328 0.57345 0.93306 0.0
O643 O 0.04758 0.53471 0.97148 0.0
C644 C 0.06189 0.56912 0.9361 0.0
C645 C 0.05638 0.49393 0.11473 0.0
O646 O 0.9858 0.45726 0.98608 0.0
O647 O 0.07252 0.43787 0.98439 0.0
O648 O 0.91695 0.55392 0.0499 0.0
O649 O 0.97054 0.6222 0.01599 0.0
O650 O 1.0046 0.48673 0.11326 0.0
O651 O 0.07346 0.53304 0.08382 0.0
O652 O 0.13715 0.6159 0.06027 0.0
O653 O 0.04992 0.62879 0.07701 0.0
C654 C 1.02101 0.42157 0.97426 0.0
C655 C 0.10168 0.64797 0.07979 0.0
loop_
_geom_bond_atom_site_label_1
_geom_bond_atom_site_label_2
_geom_bond_distance
_geom_bond_site_symmetry_2
_ccdc_geom_bond_type
Co0 O1 2.216 . S
Co0 O2 2.091 . S
Co0 O4 2.004 1_455 S
Co0 O10 2.021 . S
Co0 O12 2.137 . S
Co0 O13 2.244 . S
O1 Co0 2.216 . S
O1 C8 1.247 . S
O2 Co0 2.091 . S
O2 C8 1.261 . S
C3 O12 1.247 . S
C3 O13 1.272 . S
O4 Co0 2.004 1_655 S
O4 C9 1.259 . S
Co5 O6 2.061 . S
Co5 O11 2.052 1_655 S
Co5 O13 2.135 1_655 S
O6 Co5 2.061 . S
O6 C9 1.235 . S
C7 O10 1.238 . S
C7 O11 1.241 . S
C8 O1 1.247 . S
C8 O2 1.261 . S
C9 O4 1.259 . S
C9 O6 1.235 . S
O10 Co0 2.021 . S
O10 C7 1.238 . S
O11 Co5 2.052 1_455 S
O11 C7 1.241 . S
O12 Co0 2.137 . S
O12 C3 1.247 . S
O13 Co0 2.244 . S
O13 C3 1.272 . S
O13 Co5 2.135 1_455 S
Co14 O15 2.216 . S
Co14 O16 2.091 . S
Co14 O18 2.004 1_655 S
Co14 O24 2.021 . S
Co14 O26 2.137 1_655 S
Co14 O27 2.244 1_655 S
O15 Co14 2.216 . S
O15 C22 1.247 . S
O16 Co14 2.091 . S
O16 C22 1.261 . S
C17 O26 1.247 . S
C17 O27 1.272 . S
O18 Co14 2.004 1_455 S
O18 C23 1.259 . S
Co19 O20 2.061 . S
Co19 O25 2.052 . S
Co19 O27 2.135 . S
O20 Co19 2.061 . S
O20 C23 1.235 . S
C21 O24 1.238 1_455 S
C21 O25 1.241 . S
C22 O15 1.247 . S
C22 O16 1.261 . S
C23 O18 1.259 . S
C23 O20 1.235 . S
O24 Co14 2.021 . S
O24 C21 1.238 1_655 S
O25 Co19 2.052 . S
O25 C21 1.241 . S
O26 Co14 2.137 1_455 S
O26 C17 1.247 . S
O27 Co14 2.244 1_455 S
O27 C17 1.272 . S
O27 Co19 2.135 . S
Co28 O29 2.216 . S
Co28 O30 2.091 . S
Co28 O32 2.004 . S
Co28 O38 2.021 . S
Co28 O40 2.137 . S
Co28 O41 2.244 . S
O29 Co28 2.216 . S
O29 C36 1.247 . S
O30 Co28 2.091 . S
O30 C36 1.261 . S
C31 O40 1.247 . S
C31 O41 1.272 . S
O32 Co28 2.004 . S
O32 C37 1.259 . S
Co33 O34 2.061 . S
Co33 O39 2.052 . S
Co33 O41 2.135 . S
O34 Co33 2.061 . S
O34 C37 1.235 . S
C35 O38 1.238 . S
C35 O39 1.241 . S
C36 O29 1.247 . S
C36 O30 1.261 . S
C37 O32 1.259 . S
C37 O34 1.235 . S
O38 Co28 2.021 . S
O38 C35 1.238 . S
O39 Co33 2.052 . S
O39 C35 1.241 . S
O40 Co28 2.137 . S
O40 C31 1.247 . S
O41 Co28 2.244 . S
O41 C31 1.272 . S
O41 Co33 2.135 . S
Co42 O43 2.216 . S
Co42 O44 2.091 . S
Co42 O46 2.004 . S
Co42 O52 2.021 . S
Co42 O54 2.137 . S
Co42 O55 2.244 . S
O43 Co42 2.216 . S
O43 C50 1.247 . S
O44 Co42 2.091 . S
O44 C50 1.261 . S
C45 O54 1.247 . S
C45 O55 1.272 . S
O46 Co42 2.004 . S
O46 C51 1.259 . S
Co47 O48 2.061 . S
Co47 O53 2.052 . S
Co47 O55 2.135 . S
O48 Co47 2.061 . S
O48 C51 1.235 . S
C49 O52 1.238 . S
C49 O53 1.241 . S
C50 O43 1.247 . S
C50 O44 1.261 . S
C51 O46 1.259 . S
C51 O48 1.235 . S
O52 Co42 2.021 . S
O52 C49 1.238 . S
O53 Co47 2.052 . S
O53 C49 1.241 . S
O54 Co42 2.137 . S
O54 C45 1.247 . S
O55 Co42 2.244 . S
O55 C45 1.272 . S
O55 Co47 2.135 . S
Co56 O57 2.216 1_455 S
Co56 O58 2.092 1_455 S
Co56 O60 2.004 . S
Co56 O66 2.021 . S
Co56 O68 2.137 . S
Co56 O69 2.244 . S
O57 Co56 2.216 1_655 S
O57 C64 1.247 . S
O58 Co56 2.092 1_655 S
O58 C64 1.260 . S
C59 O68 1.247 . S
C59 O69 1.272 . S
O60 Co56 2.004 . S
O60 C65 1.259 . S
Co61 O62 2.061 . S
Co61 O67 2.052 . S
Co61 O69 2.135 . S
O62 Co61 2.061 . S
O62 C65 1.235 . S
C63 O66 1.238 . S
C63 O67 1.241 . S
C64 O57 1.247 . S
C64 O58 1.260 . S
C65 O60 1.259 . S
C65 O62 1.235 . S
O66 Co56 2.021 . S
O66 C63 1.238 . S
O67 Co61 2.052 . S
O67 C63 1.241 . S
O68 Co56 2.137 . S
O68 C59 1.247 . S
O69 Co56 2.244 . S
O69 C59 1.272 . S
O69 Co61 2.135 . S
Co70 O71 2.216 . S
Co70 O72 2.091 . S
Co70 O74 2.004 . S
Co70 O80 2.021 . S
Co70 O82 2.137 . S
Co70 O83 2.244 . S
O71 Co70 2.216 . S
O71 C78 1.247 . S
O72 Co70 2.091 . S
O72 C78 1.261 . S
C73 O82 1.247 . S
C73 O83 1.272 . S
O74 Co70 2.004 . S
O74 C79 1.259 . S
Co75 O76 2.061 . S
Co75 O81 2.052 . S
Co75 O83 2.135 . S
O76 Co75 2.061 . S
O76 C79 1.235 . S
C77 O80 1.238 . S
C77 O81 1.241 . S
C78 O71 1.247 . S
C78 O72 1.261 . S
C79 O74 1.259 . S
C79 O76 1.235 . S
O80 Co70 2.021 . S
O80 C77 1.238 . S
O81 Co75 2.052 . S
O81 C77 1.241 . S
O82 Co70 2.137 . S
O82 C73 1.247 . S
O83 Co70 2.244 . S
O83 C73 1.272 . S
O83 Co75 2.135 . S
Co84 O85 2.216 . S
Co84 O86 2.091 . S
Co84 O88 2.004 . S
Co84 O94 2.021 . S
Co84 O96 2.137 . S
Co84 O97 2.244 . S
O85 Co84 2.216 . S
O85 C92 1.247 . S
O86 Co84 2.091 . S
O86 C92 1.261 . S
C87 O96 1.247 . S
C87 O97 1.272 . S
O88 Co84 2.004 . S
O88 C93 1.259 . S
Co89 O90 2.061 . S
Co89 O95 2.052 . S
Co89 O97 2.135 . S
O90 Co89 2.061 . S
O90 C93 1.235 . S
C91 O94 1.238 . S
C91 O95 1.241 . S
C92 O85 1.247 . S
C92 O86 1.261 . S
C93 O88 1.259 . S
C93 O90 1.235 . S
O94 Co84 2.021 . S
O94 C91 1.238 . S
O95 Co89 2.052 . S
O95 C91 1.241 . S
O96 Co84 2.137 . S
O96 C87 1.247 . S
O97 Co84 2.244 . S
O97 C87 1.272 . S
O97 Co89 2.135 . S
Co98 O99 2.216 . S
Co98 O100 2.091 . S
Co98 O102 2.004 1_455 S
Co98 O108 2.021 1_455 S
Co98 O110 2.137 . S
Co98 O111 2.244 1_455 S
O99 Co98 2.216 . S
O99 C106 1.247 . S
O100 Co98 2.091 . S
O100 C106 1.261 . S
C101 O110 1.247 . S
C101 O111 1.272 1_455 S
O102 Co98 2.004 1_655 S
O102 C107 1.259 . S
Co103 O104 2.061 . S
Co103 O109 2.052 . S
Co103 O111 2.135 . S
O104 Co103 2.061 . S
O104 C107 1.235 . S
C105 O108 1.238 . S
C105 O109 1.241 . S
C106 O99 1.247 . S
C106 O100 1.261 . S
C107 O102 1.259 . S
C107 O104 1.235 . S
O108 Co98 2.021 1_655 S
O108 C105 1.238 . S
O109 Co103 2.052 . S
O109 C105 1.241 . S
O110 Co98 2.137 . S
O110 C101 1.247 . S
O111 Co98 2.244 1_655 S
O111 C101 1.272 1_655 S
O111 Co103 2.135 . S
Co112 O113 2.216 . S
Co112 O114 2.091 . S
Co112 O116 2.004 1_545 S
Co112 O122 2.021 . S
Co112 O124 2.137 . S
Co112 O125 2.244 . S
O113 Co112 2.216 . S
O113 C120 1.247 . S
O114 Co112 2.091 . S
O114 C120 1.261 . S
C115 O124 1.247 . S
C115 O125 1.272 . S
O116 Co112 2.004 1_565 S
O116 C121 1.259 . S
Co117 O118 2.061 . S
Co117 O123 2.052 . S
Co117 O125 2.135 1_565 S
O118 Co117 2.061 . S
O118 C121 1.235 . S
C119 O122 1.238 1_565 S
C119 O123 1.241 . S
C120 O113 1.247 . S
C120 O114 1.261 . S
C121 O116 1.259 . S
C121 O118 1.235 . S
O122 Co112 2.021 . S
O122 C119 1.238 1_545 S
O123 Co117 2.052 . S
O123 C119 1.241 . S
O124 Co112 2.137 . S
O124 C115 1.247 . S
O125 Co112 2.244 . S
O125 C115 1.272 . S
O125 Co117 2.135 1_545 S
Co126 O127 2.216 . S
Co126 O128 2.091 . S
Co126 O130 2.004 . S
Co126 O136 2.021 . S
Co126 O138 2.137 . S
Co126 O139 2.244 . S
O127 Co126 2.216 . S
O127 C134 1.247 . S
O128 Co126 2.091 . S
O128 C134 1.261 . S
C129 O138 1.247 . S
C129 O139 1.272 . S
O130 Co126 2.004 . S
O130 C135 1.259 . S
Co131 O132 2.061 . S
Co131 O137 2.052 . S
Co131 O139 2.135 . S
O132 Co131 2.061 . S
O132 C135 1.235 . S
C133 O136 1.238 . S
C133 O137 1.241 . S
C134 O127 1.247 . S
C134 O128 1.261 . S
C135 O130 1.259 . S
C135 O132 1.235 . S
O136 Co126 2.021 . S
O136 C133 1.238 . S
O137 Co131 2.052 . S
O137 C133 1.241 . S
O138 Co126 2.137 . S
O138 C129 1.247 . S
O139 Co126 2.244 . S
O139 C129 1.272 . S
O139 Co131 2.135 . S
Co140 O141 2.216 . S
Co140 O142 2.091 . S
Co140 O144 2.004 1_565 S
Co140 O150 2.021 . S
Co140 O152 2.137 . S
Co140 O153 2.244 1_565 S
O141 Co140 2.216 . S
O141 C148 1.247 . S
O142 Co140 2.091 . S
O142 C148 1.261 . S
C143 O152 1.247 1_545 S
C143 O153 1.272 . S
O144 Co140 2.004 1_545 S
O144 C149 1.259 . S
Co145 O146 2.061 . S
Co145 O151 2.052 . S
Co145 O153 2.135 . S
O146 Co145 2.061 . S
O146 C149 1.235 . S
C147 O150 1.238 . S
C147 O151 1.241 1_565 S
C148 O141 1.247 . S
C148 O142 1.261 . S
C149 O144 1.259 . S
C149 O146 1.235 . S
O150 Co140 2.021 . S
O150 C147 1.238 . S
O151 Co145 2.052 . S
O151 C147 1.241 1_545 S
O152 Co140 2.137 . S
O152 C143 1.247 1_565 S
O153 Co140 2.244 1_545 S
O153 C143 1.272 . S
O153 Co145 2.135 . S
Co154 O155 2.216 . S
Co154 O156 2.091 1_556 S
Co154 O158 2.005 1_556 S
Co154 O164 2.021 1_556 S
Co154 O166 2.137 . S
Co154 O167 2.244 . S
O155 Co154 2.216 . S
O155 C162 1.247 1_556 S
O156 Co154 2.091 1_554 S
O156 C162 1.261 . S
C157 O166 1.247 . S
C157 O167 1.272 . S
O158 Co154 2.005 1_554 S
O158 C163 1.261 . S
Co159 O160 2.061 1_556 S
Co159 O165 2.052 1_556 S
Co159 O167 2.135 . S
O160 Co159 2.061 1_554 S
O160 C163 1.235 . S
C161 O164 1.238 . S
C161 O165 1.241 . S
C162 O155 1.247 1_554 S
C162 O156 1.261 . S
C163 O158 1.261 . S
C163 O160 1.235 . S
O164 Co154 2.021 1_554 S
O164 C161 1.238 . S
O165 Co159 2.052 1_554 S
O165 C161 1.241 . S
O166 Co154 2.137 . S
O166 C157 1.247 . S
O167 Co154 2.244 . S
O167 C157 1.272 . S
O167 Co159 2.135 . S
Co168 O169 2.216 . S
Co168 O170 2.091 . S
Co168 O172 2.004 . S
Co168 O178 2.021 . S
Co168 O180 2.137 1_554 S
Co168 O181 2.244 1_554 S
O169 Co168 2.216 . S
O169 C176 1.247 . S
O170 Co168 2.091 . S
O170 C176 1.261 . S
C171 O180 1.247 . S
C171 O181 1.272 . S
O172 Co168 2.004 . S
O172 C177 1.259 . S
Co173 O174 2.061 . S
Co173 O179 2.052 . S
Co173 O181 2.135 1_554 S
O174 Co173 2.061 . S
O174 C177 1.235 . S
C175 O178 1.238 . S
C175 O179 1.241 . S
C176 O169 1.247 . S
C176 O170 1.261 . S
C177 O172 1.259 . S
C177 O174 1.235 . S
O178 Co168 2.021 . S
O178 C175 1.238 . S
O179 Co173 2.052 . S
O179 C175 1.241 . S
O180 Co168 2.137 1_556 S
O180 C171 1.247 . S
O181 Co168 2.244 1_556 S
O181 C171 1.272 . S
O181 Co173 2.135 1_556 S
Co182 O183 2.216 . S
Co182 O184 2.091 . S
Co182 O186 2.004 . S
Co182 O192 2.021 . S
Co182 O194 2.137 1_554 S
Co182 O195 2.244 1_554 S
O183 Co182 2.216 . S
O183 C190 1.247 . S
O184 Co182 2.091 . S
O184 C190 1.261 . S
C185 O194 1.247 . S
C185 O195 1.272 . S
O186 Co182 2.004 . S
O186 C191 1.261 . S
Co187 O188 2.061 . S
Co187 O193 2.052 . S
Co187 O195 2.135 1_554 S
O188 Co187 2.061 . S
O188 C191 1.235 . S
C189 O192 1.238 . S
C189 O193 1.241 . S
C190 O183 1.247 . S
C190 O184 1.261 . S
C191 O186 1.261 . S
C191 O188 1.235 . S
O192 Co182 2.021 . S
O192 C189 1.238 . S
O193 Co187 2.052 . S
O193 C189 1.241 . S
O194 Co182 2.137 1_556 S
O194 C185 1.247 . S
O195 Co182 2.244 1_556 S
O195 C185 1.272 . S
O195 Co187 2.135 1_556 S
Co196 O197 2.216 . S
Co196 O198 2.091 . S
Co196 O200 2.004 . S
Co196 O206 2.021 . S
Co196 O208 2.137 . S
Co196 O209 2.244 . S
O197 Co196 2.216 . S
O197 C204 1.247 . S
O198 Co196 2.091 . S
O198 C204 1.261 . S
C199 O208 1.247 . S
C199 O209 1.272 . S
O200 Co196 2.004 . S
O200 C205 1.259 . S
Co201 O202 2.061 . S
Co201 O207 2.052 . S
Co201 O209 2.135 . S
O202 Co201 2.061 . S
O202 C205 1.235 . S
C203 O206 1.238 . S
C203 O207 1.241 . S
C204 O197 1.247 . S
C204 O198 1.261 . S
C205 O200 1.259 . S
C205 O202 1.235 . S
O206 Co196 2.021 . S
O206 C203 1.238 . S
O207 Co201 2.052 . S
O207 C203 1.241 . S
O208 Co196 2.137 . S
O208 C199 1.247 . S
O209 Co196 2.244 . S
O209 C199 1.272 . S
O209 Co201 2.135 . S
Co210 O211 2.216 . S
Co210 O212 2.091 . S
Co210 O214 2.004 . S
Co210 O220 2.021 . S
Co210 O222 2.137 . S
Co210 O223 2.244 . S
O211 Co210 2.216 . S
O211 C218 1.247 . S
O212 Co210 2.091 . S
O212 C218 1.261 . S
C213 O222 1.247 . S
C213 O223 1.272 . S
O214 Co210 2.004 . S
O214 C219 1.259 . S
Co215 O216 2.061 . S
Co215 O221 2.052 . S
Co215 O223 2.135 . S
O216 Co215 2.061 . S
O216 C219 1.235 . S
C217 O220 1.238 . S
C217 O221 1.241 . S
C218 O211 1.247 . S
C218 O212 1.261 . S
C219 O214 1.259 . S
C219 O216 1.235 . S
O220 Co210 2.021 . S
O220 C217 1.238 . S
O221 Co215 2.052 . S
O221 C217 1.241 . S
O222 Co210 2.137 . S
O222 C213 1.247 . S
O223 Co210 2.244 . S
O223 C213 1.272 . S
O223 Co215 2.135 . S
Co224 O225 2.216 . S
Co224 O226 2.091 . S
Co224 O228 2.004 1_545 S
Co224 O234 2.021 . S
Co224 O236 2.137 . S
Co224 O237 2.244 . S
O225 Co224 2.216 . S
O225 C232 1.247 . S
O226 Co224 2.091 . S
O226 C232 1.261 . S
C227 O236 1.247 . S
C227 O237 1.272 . S
O228 Co224 2.004 1_565 S
O228 C233 1.259 . S
Co229 O230 2.061 . S
Co229 O235 2.052 1_565 S
Co229 O237 2.135 1_565 S
O230 Co229 2.061 . S
O230 C233 1.235 . S
C231 O234 1.238 . S
C231 O235 1.241 . S
C232 O225 1.247 . S
C232 O226 1.261 . S
C233 O228 1.259 . S
C233 O230 1.235 . S
O234 Co224 2.021 . S
O234 C231 1.238 . S
O235 Co229 2.052 1_545 S
O235 C231 1.241 . S
O236 Co224 2.137 . S
O236 C227 1.247 . S
O237 Co224 2.244 . S
O237 C227 1.272 . S
O237 Co229 2.135 1_545 S
Co238 O239 2.216 . S
Co238 O240 2.091 . S
Co238 O242 2.004 . S
Co238 O248 2.021 . S
Co238 O250 2.137 . S
Co238 O251 2.244 . S
O239 Co238 2.216 . S
O239 C246 1.247 . S
O240 Co238 2.091 . S
O240 C246 1.261 . S
C241 O250 1.247 . S
C241 O251 1.272 . S
O242 Co238 2.004 . S
O242 C247 1.259 . S
Co243 O244 2.061 . S
Co243 O249 2.052 . S
Co243 O251 2.135 . S
O244 Co243 2.061 . S
O244 C247 1.235 . S
C245 O248 1.238 . S
C245 O249 1.241 . S
C246 O239 1.247 . S
C246 O240 1.261 . S
C247 O242 1.259 . S
C247 O244 1.235 . S
O248 Co238 2.021 . S
O248 C245 1.238 . S
O249 Co243 2.052 . S
O249 C245 1.241 . S
O250 Co238 2.137 . S
O250 C241 1.247 . S
O251 Co238 2.244 . S
O251 C241 1.272 . S
O251 Co243 2.135 . S
Co252 O253 2.216 . S
Co252 O254 2.091 . S
Co252 O256 2.004 . S
Co252 O262 2.021 . S
Co252 O264 2.137 . S
Co252 O265 2.244 . S
O253 Co252 2.216 . S
O253 C260 1.247 . S
O254 Co252 2.091 . S
O254 C260 1.261 . S
C255 O264 1.247 . S
C255 O265 1.272 . S
O256 Co252 2.004 . S
O256 C261 1.259 . S
Co257 O258 2.061 . S
Co257 O263 2.052 . S
Co257 O265 2.135 . S
O258 Co257 2.061 . S
O258 C261 1.235 . S
C259 O262 1.238 . S
C259 O263 1.241 . S
C260 O253 1.247 . S
C260 O254 1.261 . S
C261 O256 1.259 . S
C261 O258 1.235 . S
O262 Co252 2.021 . S
O262 C259 1.238 . S
O263 Co257 2.052 . S
O263 C259 1.241 . S
O264 Co252 2.137 . S
O264 C255 1.247 . S
O265 Co252 2.244 . S
O265 C255 1.272 . S
O265 Co257 2.135 . S
Co266 O267 2.216 1_545 S
Co266 O268 2.091 1_545 S
Co266 O270 2.004 . S
Co266 O276 2.021 . S
Co266 O278 2.137 . S
Co266 O279 2.244 . S
O267 Co266 2.216 1_565 S
O267 C274 1.247 . S
O268 Co266 2.091 1_565 S
O268 C274 1.261 . S
C269 O278 1.247 . S
C269 O279 1.272 . S
O270 Co266 2.004 . S
O270 C275 1.259 . S
Co271 O272 2.061 . S
Co271 O277 2.052 . S
Co271 O279 2.135 . S
O272 Co271 2.061 . S
O272 C275 1.235 . S
C273 O276 1.238 . S
C273 O277 1.241 . S
C274 O267 1.247 . S
C274 O268 1.261 . S
C275 O270 1.259 . S
C275 O272 1.235 . S
O276 Co266 2.021 . S
O276 C273 1.238 . S
O277 Co271 2.052 . S
O277 C273 1.241 . S
O278 Co266 2.137 . S
O278 C269 1.247 . S
O279 Co266 2.244 . S
O279 C269 1.272 . S
O279 Co271 2.135 . S
Co280 O281 2.216 1_556 S
Co280 O282 2.091 . S
Co280 O284 2.004 . S
Co280 O290 2.021 1_556 S
Co280 O292 2.137 . S
Co280 O293 2.244 . S
O281 Co280 2.216 1_554 S
O281 C288 1.247 . S
O282 Co280 2.091 . S
O282 C288 1.261 1_556 S
C283 O292 1.247 . S
C283 O293 1.272 . S
O284 Co280 2.004 . S
O284 C289 1.259 . S
Co285 O286 2.061 . S
Co285 O291 2.052 . S
Co285 O293 2.135 1_554 S
O286 Co285 2.061 . S
O286 C289 1.235 1_554 S
C287 O290 1.238 . S
C287 O291 1.241 . S
C288 O281 1.247 . S
C288 O282 1.261 1_554 S
C289 O284 1.259 . S
C289 O286 1.235 1_556 S
O290 Co280 2.021 1_554 S
O290 C287 1.238 . S
O291 Co285 2.052 . S
O291 C287 1.241 . S
O292 Co280 2.137 . S
O292 C283 1.247 . S
O293 Co280 2.244 . S
O293 C283 1.272 . S
O293 Co285 2.135 1_556 S
Co294 O295 2.216 . S
Co294 O296 2.091 . S
Co294 O298 2.004 . S
Co294 O304 2.021 . S
Co294 O306 2.137 . S
Co294 O307 2.244 . S
O295 Co294 2.216 . S
O295 C302 1.247 . S
O296 Co294 2.091 . S
O296 C302 1.261 . S
C297 O306 1.247 . S
C297 O307 1.272 . S
O298 Co294 2.004 . S
O298 C303 1.259 . S
Co299 O300 2.061 . S
Co299 O305 2.052 . S
Co299 O307 2.135 . S
O300 Co299 2.061 . S
O300 C303 1.235 . S
C301 O304 1.238 . S
C301 O305 1.241 . S
C302 O295 1.247 . S
C302 O296 1.261 . S
C303 O298 1.259 . S
C303 O300 1.235 . S
O304 Co294 2.021 . S
O304 C301 1.238 . S
O305 Co299 2.052 . S
O305 C301 1.241 . S
O306 Co294 2.137 . S
O306 C297 1.247 . S
O307 Co294 2.244 . S
O307 C297 1.272 . S
O307 Co299 2.135 . S
Co308 O309 2.216 . S
Co308 O310 2.091 . S
Co308 O312 2.004 . S
Co308 O318 2.021 . S
Co308 O320 2.137 . S
Co308 O321 2.244 . S
O309 Co308 2.216 . S
O309 C316 1.247 . S
O310 Co308 2.091 . S
O310 C316 1.261 . S
C311 O320 1.247 . S
C311 O321 1.272 . S
O312 Co308 2.004 . S
O312 C317 1.259 . S
Co313 O314 2.061 . S
Co313 O319 2.052 . S
Co313 O321 2.135 . S
O314 Co313 2.061 . S
O314 C317 1.235 . S
C315 O318 1.238 . S
C315 O319 1.241 . S
C316 O309 1.247 . S
C316 O310 1.261 . S
C317 O312 1.259 . S
C317 O314 1.235 . S
O318 Co308 2.021 . S
O318 C315 1.238 . S
O319 Co313 2.052 . S
O319 C315 1.241 . S
O320 Co308 2.137 . S
O320 C311 1.247 . S
O321 Co308 2.244 . S
O321 C311 1.272 . S
O321 Co313 2.135 . S
Co322 O323 2.216 . S
Co322 O324 2.091 . S
Co322 O326 2.004 . S
Co322 O332 2.021 . S
Co322 O334 2.137 . S
Co322 O335 2.244 . S
O323 Co322 2.216 . S
O323 C330 1.247 . S
O324 Co322 2.091 . S
O324 C330 1.261 . S
C325 O334 1.247 . S
C325 O335 1.272 . S
O326 Co322 2.004 . S
O326 C331 1.259 . S
Co327 O328 2.061 . S
Co327 O333 2.052 . S
Co327 O335 2.135 . S
O328 Co327 2.061 . S
O328 C331 1.235 . S
C329 O332 1.238 . S
C329 O333 1.241 . S
C330 O323 1.247 . S
C330 O324 1.261 . S
C331 O326 1.259 . S
C331 O328 1.235 . S
O332 Co322 2.021 . S
O332 C329 1.238 . S
O333 Co327 2.052 . S
O333 C329 1.241 . S
O334 Co322 2.137 . S
O334 C325 1.247 . S
O335 Co322 2.244 . S
O335 C325 1.272 . S
O335 Co327 2.135 . S
Dy336 O340 2.398 1_565 S
Dy336 O341 2.491 1_566 S
Dy336 O342 2.403 . S
Dy336 O343 2.664 1_665 S
Dy336 O347 2.326 1_565 S
Dy336 O351 2.310 1_666 S
Dy336 O352 2.351 1_556 S
C337 O348 1.185 . S
C337 O349 1.355 1_545 S
C338 O340 1.185 . S
C338 O341 1.355 1_556 S
Dy339 O343 2.310 1_554 S
Dy339 O346 2.351 . S
Dy339 O348 2.398 . S
Dy339 O349 2.491 1_545 S
Dy339 O350 2.403 . S
Dy339 O351 2.664 . S
Dy339 O353 2.326 1_545 S
O340 Dy336 2.398 1_545 S
O340 C338 1.185 . S
O341 Dy336 2.491 1_544 S
O341 C338 1.355 1_554 S
O342 Dy336 2.403 . S
O342 C344 1.254 1_655 S
O343 Dy336 2.664 1_445 S
O343 Dy339 2.310 1_556 S
O343 C344 1.268 1_545 S
C344 O342 1.254 1_455 S
C344 O343 1.268 1_565 S
C345 O350 1.254 . S
C345 O351 1.268 . S
O346 Dy339 2.351 . S
O346 C354 1.249 1_554 S
O347 Dy336 2.326 1_545 S
O347 C354 1.267 1_655 S
O348 C337 1.185 . S
O348 Dy339 2.398 . S
O349 C337 1.355 1_565 S
O349 Dy339 2.491 1_565 S
O350 Dy339 2.403 . S
O350 C345 1.254 . S
O351 Dy336 2.310 1_444 S
O351 Dy339 2.664 . S
O351 C345 1.268 . S
O352 Dy336 2.351 1_554 S
O352 C355 1.249 1_655 S
O353 Dy339 2.326 1_565 S
O353 C355 1.267 . S
C354 O346 1.249 1_556 S
C354 O347 1.267 1_455 S
C355 O352 1.249 1_455 S
C355 O353 1.267 . S
Dy356 O360 2.398 . S
Dy356 O361 2.491 . S
Dy356 O362 2.403 . S
Dy356 O363 2.664 . S
Dy356 O367 2.326 . S
Dy356 O371 2.310 . S
Dy356 O372 2.351 . S
C357 O368 1.185 . S
C357 O369 1.355 . S
C358 O360 1.185 . S
C358 O361 1.355 . S
Dy359 O363 2.310 . S
Dy359 O366 2.351 . S
Dy359 O368 2.398 . S
Dy359 O369 2.491 . S
Dy359 O370 2.403 . S
Dy359 O371 2.664 . S
Dy359 O373 2.326 . S
O360 Dy356 2.398 . S
O360 C358 1.185 . S
O361 Dy356 2.491 . S
O361 C358 1.355 . S
O362 Dy356 2.403 . S
O362 C364 1.254 . S
O363 Dy356 2.664 . S
O363 Dy359 2.310 . S
O363 C364 1.268 . S
C364 O362 1.254 . S
C364 O363 1.268 . S
C365 O370 1.254 . S
C365 O371 1.268 . S
O366 Dy359 2.351 . S
O366 C374 1.249 . S
O367 Dy356 2.326 . S
O367 C374 1.267 . S
O368 C357 1.185 . S
O368 Dy359 2.398 . S
O369 C357 1.355 . S
O369 Dy359 2.491 . S
O370 Dy359 2.403 . S
O370 C365 1.254 . S
O371 Dy356 2.310 . S
O371 Dy359 2.664 . S
O371 C365 1.268 . S
O372 Dy356 2.351 . S
O372 C375 1.249 . S
O373 Dy359 2.326 . S
O373 C375 1.267 . S
C374 O366 1.249 . S
C374 O367 1.267 . S
C375 O372 1.249 . S
C375 O373 1.267 . S
Dy376 O380 2.398 1_545 S
Dy376 O381 2.491 1_545 S
Dy376 O382 2.403 . S
Dy376 O383 2.664 . S
Dy376 O387 2.326 1_545 S
Dy376 O391 2.310 . S
Dy376 O392 2.351 . S
C377 O388 1.185 . S
C377 O389 1.355 . S
C378 O380 1.185 . S
C378 O381 1.355 . S
Dy379 O383 2.310 . S
Dy379 O386 2.351 1_545 S
Dy379 O388 2.398 . S
Dy379 O389 2.491 . S
Dy379 O390 2.403 . S
Dy379 O391 2.664 . S
Dy379 O393 2.326 . S
O380 Dy376 2.398 1_565 S
O380 C378 1.185 . S
O381 Dy376 2.491 1_565 S
O381 C378 1.355 . S
O382 Dy376 2.403 . S
O382 C384 1.254 . S
O383 Dy376 2.664 . S
O383 Dy379 2.310 . S
O383 C384 1.268 . S
C384 O382 1.254 . S
C384 O383 1.268 . S
C385 O390 1.254 . S
C385 O391 1.268 . S
O386 Dy379 2.351 1_565 S
O386 C394 1.249 . S
O387 Dy376 2.326 1_565 S
O387 C394 1.267 . S
O388 C377 1.185 . S
O388 Dy379 2.398 . S
O389 C377 1.355 . S
O389 Dy379 2.491 . S
O390 Dy379 2.403 . S
O390 C385 1.254 . S
O391 Dy376 2.310 . S
O391 Dy379 2.664 . S
O391 C385 1.268 . S
O392 Dy376 2.351 . S
O392 C395 1.249 . S
O393 Dy379 2.326 . S
O393 C395 1.267 . S
C394 O386 1.249 . S
C394 O387 1.267 . S
C395 O392 1.249 . S
C395 O393 1.267 . S
Dy396 O400 2.398 . S
Dy396 O401 2.491 . S
Dy396 O402 2.403 . S
Dy396 O403 2.664 . S
Dy396 O407 2.326 . S
Dy396 O411 2.310 . S
Dy396 O412 2.351 . S
C397 O408 1.185 . S
C397 O409 1.355 . S
C398 O400 1.185 . S
C398 O401 1.355 . S
Dy399 O403 2.310 . S
Dy399 O406 2.351 . S
Dy399 O408 2.398 . S
Dy399 O409 2.491 . S
Dy399 O410 2.403 . S
Dy399 O411 2.664 . S
Dy399 O413 2.326 . S
O400 Dy396 2.398 . S
O400 C398 1.185 . S
O401 Dy396 2.491 . S
O401 C398 1.355 . S
O402 Dy396 2.403 . S
O402 C404 1.254 . S
O403 Dy396 2.664 . S
O403 Dy399 2.310 . S
O403 C404 1.268 . S
C404 O402 1.254 . S
C404 O403 1.268 . S
C405 O410 1.254 . S
C405 O411 1.268 . S
O406 Dy399 2.351 . S
O406 C414 1.249 . S
O407 Dy396 2.326 . S
O407 C414 1.267 . S
O408 C397 1.185 . S
O408 Dy399 2.398 . S
O409 C397 1.355 . S
O409 Dy399 2.491 . S
O410 Dy399 2.403 . S
O410 C405 1.254 . S
O411 Dy396 2.310 . S
O411 Dy399 2.664 . S
O411 C405 1.268 . S
O412 Dy396 2.351 . S
O412 C415 1.249 . S
O413 Dy399 2.326 . S
O413 C415 1.267 . S
C414 O406 1.249 . S
C414 O407 1.267 . S
C415 O412 1.249 . S
C415 O413 1.267 . S
Dy416 O420 2.398 1_565 S
Dy416 O421 2.491 1_465 S
Dy416 O422 2.403 1_565 S
Dy416 O423 2.664 1_565 S
Dy416 O427 2.326 1_565 S
Dy416 O431 2.310 1_465 S
Dy416 O432 2.351 . S
C417 O428 1.185 . S
C417 O429 1.355 . S
C418 O420 1.185 1_655 S
C418 O421 1.355 . S
Dy419 O423 2.310 . S
Dy419 O426 2.351 . S
Dy419 O428 2.398 . S
Dy419 O429 2.491 . S
Dy419 O430 2.403 1_455 S
Dy419 O431 2.664 1_455 S
Dy419 O433 2.326 1_545 S
O420 Dy416 2.398 1_545 S
O420 C418 1.185 1_455 S
O421 Dy416 2.491 1_645 S
O421 C418 1.355 . S
O422 Dy416 2.403 1_545 S
O422 C424 1.254 . S
O423 Dy416 2.664 1_545 S
O423 Dy419 2.310 . S
O423 C424 1.268 . S
C424 O422 1.254 . S
C424 O423 1.268 . S
C425 O430 1.254 1_565 S
C425 O431 1.268 1_565 S
O426 Dy419 2.351 . S
O426 C434 1.249 . S
O427 Dy416 2.326 1_545 S
O427 C434 1.267 . S
O428 C417 1.185 . S
O428 Dy419 2.398 . S
O429 C417 1.355 . S
O429 Dy419 2.491 . S
O430 Dy419 2.403 1_655 S
O430 C425 1.254 1_545 S
O431 Dy416 2.310 1_645 S
O431 Dy419 2.664 1_655 S
O431 C425 1.268 1_545 S
O432 Dy416 2.351 . S
O432 C435 1.249 . S
O433 Dy419 2.326 1_565 S
O433 C435 1.267 . S
C434 O426 1.249 . S
C434 O427 1.267 . S
C435 O432 1.249 . S
C435 O433 1.267 . S
Dy436 O440 2.398 . S
Dy436 O441 2.491 . S
Dy436 O442 2.403 . S
Dy436 O443 2.664 . S
Dy436 O447 2.326 . S
Dy436 O451 2.310 . S
Dy436 O452 2.351 . S
C437 O448 1.185 . S
C437 O449 1.355 . S
C438 O440 1.185 . S
C438 O441 1.355 . S
Dy439 O443 2.310 . S
Dy439 O446 2.351 . S
Dy439 O448 2.398 . S
Dy439 O449 2.491 . S
Dy439 O450 2.403 . S
Dy439 O451 2.664 . S
Dy439 O453 2.326 . S
O440 Dy436 2.398 . S
O440 C438 1.185 . S
O441 Dy436 2.491 . S
O441 C438 1.355 . S
O442 Dy436 2.403 . S
O442 C444 1.254 . S
O443 Dy436 2.664 . S
O443 Dy439 2.310 . S
O443 C444 1.268 . S
C444 O442 1.254 . S
C444 O443 1.268 . S
C445 O450 1.254 . S
C445 O451 1.268 . S
O446 Dy439 2.351 . S
O446 C454 1.249 . S
O447 Dy436 2.326 . S
O447 C454 1.267 . S
O448 C437 1.185 . S
O448 Dy439 2.398 . S
O449 C437 1.355 . S
O449 Dy439 2.491 . S
O450 Dy439 2.403 . S
O450 C445 1.254 . S
O451 Dy436 2.310 . S
O451 Dy439 2.664 . S
O451 C445 1.268 . S
O452 Dy436 2.351 . S
O452 C455 1.249 . S
O453 Dy439 2.326 . S
O453 C455 1.267 . S
C454 O446 1.249 . S
C454 O447 1.267 . S
C455 O452 1.249 . S
C455 O453 1.267 . S
Dy456 O460 2.398 1_545 S
Dy456 O461 2.491 . S
Dy456 O462 2.403 1_545 S
Dy456 O463 2.664 1_544 S
Dy456 O467 2.326 1_545 S
Dy456 O471 2.310 . S
Dy456 O472 2.351 . S
C457 O468 1.185 . S
C457 O469 1.355 . S
C458 O460 1.185 . S
C458 O461 1.355 1_565 S
Dy459 O463 2.310 1_545 S
Dy459 O466 2.351 . S
Dy459 O468 2.398 . S
Dy459 O469 2.491 . S
Dy459 O470 2.403 . S
Dy459 O471 2.664 1_556 S
Dy459 O473 2.326 . S
O460 Dy456 2.398 1_565 S
O460 C458 1.185 . S
O461 Dy456 2.491 . S
O461 C458 1.355 1_545 S
O462 Dy456 2.403 1_565 S
O462 C464 1.254 1_554 S
O463 Dy456 2.664 1_566 S
O463 Dy459 2.310 1_565 S
O463 C464 1.268 . S
C464 O462 1.254 1_556 S
C464 O463 1.268 . S
C465 O470 1.254 1_554 S
C465 O471 1.268 . S
O466 Dy459 2.351 . S
O466 C474 1.249 1_546 S
O467 Dy456 2.326 1_565 S
O467 C474 1.267 . S
O468 C457 1.185 . S
O468 Dy459 2.398 . S
O469 C457 1.355 . S
O469 Dy459 2.491 . S
O470 Dy459 2.403 . S
O470 C465 1.254 1_556 S
O471 Dy456 2.310 . S
O471 Dy459 2.664 1_554 S
O471 C465 1.268 . S
O472 Dy456 2.351 . S
O472 C475 1.249 . S
O473 Dy459 2.326 . S
O473 C475 1.267 1_556 S
C474 O466 1.249 1_564 S
C474 O467 1.267 . S
C475 O472 1.249 . S
C475 O473 1.267 1_554 S
Dy476 O480 2.398 . S
Dy476 O481 2.491 . S
Dy476 O482 2.403 . S
Dy476 O483 2.664 . S
Dy476 O487 2.326 . S
Dy476 O491 2.310 . S
Dy476 O492 2.351 . S
C477 O488 1.185 . S
C477 O489 1.355 . S
C478 O480 1.185 . S
C478 O481 1.355 . S
Dy479 O483 2.310 . S
Dy479 O486 2.351 . S
Dy479 O488 2.398 . S
Dy479 O489 2.491 . S
Dy479 O490 2.403 . S
Dy479 O491 2.664 . S
Dy479 O493 2.326 . S
O480 Dy476 2.398 . S
O480 C478 1.185 . S
O481 Dy476 2.491 . S
O481 C478 1.355 . S
O482 Dy476 2.403 . S
O482 C484 1.254 . S
O483 Dy476 2.664 . S
O483 Dy479 2.310 . S
O483 C484 1.268 . S
C484 O482 1.254 . S
C484 O483 1.268 . S
C485 O490 1.254 . S
C485 O491 1.268 . S
O486 Dy479 2.351 . S
O486 C494 1.249 . S
O487 Dy476 2.326 . S
O487 C494 1.267 . S
O488 C477 1.185 . S
O488 Dy479 2.398 . S
O489 C477 1.355 . S
O489 Dy479 2.491 . S
O490 Dy479 2.403 . S
O490 C485 1.254 . S
O491 Dy476 2.310 . S
O491 Dy479 2.664 . S
O491 C485 1.268 . S
O492 Dy476 2.351 . S
O492 C495 1.249 . S
O493 Dy479 2.326 . S
O493 C495 1.267 . S
C494 O486 1.249 . S
C494 O487 1.267 . S
C495 O492 1.249 . S
C495 O493 1.267 . S
Dy496 O500 2.398 . S
Dy496 O501 2.491 . S
Dy496 O502 2.403 . S
Dy496 O503 2.664 1_556 S
Dy496 O507 2.326 . S
Dy496 O511 2.295 1_556 S
Dy496 O512 2.351 . S
C497 O508 1.185 . S
C497 O509 1.355 . S
C498 O500 1.185 . S
C498 O501 1.355 . S
Dy499 O503 2.310 . S
Dy499 O506 2.351 . S
Dy499 O508 2.398 . S
Dy499 O509 2.491 . S
Dy499 O510 2.403 . S
Dy499 O511 2.678 . S
Dy499 O513 2.326 . S
O500 Dy496 2.398 . S
O500 C498 1.185 . S
O501 Dy496 2.491 . S
O501 C498 1.355 . S
O502 Dy496 2.403 . S
O502 C504 1.254 . S
O503 Dy496 2.664 1_554 S
O503 Dy499 2.310 . S
O503 C504 1.268 1_554 S
C504 O502 1.254 . S
C504 O503 1.268 1_556 S
C505 O510 1.254 . S
C505 O511 1.281 . S
O506 Dy499 2.351 . S
O506 C514 1.249 1_554 S
O507 Dy496 2.326 . S
O507 C514 1.267 . S
O508 C497 1.185 . S
O508 Dy499 2.398 . S
O509 C497 1.355 . S
O509 Dy499 2.491 . S
O510 Dy499 2.403 . S
O510 C505 1.254 . S
O511 Dy496 2.295 1_554 S
O511 Dy499 2.678 . S
O511 C505 1.281 . S
O512 Dy496 2.351 . S
O512 C515 1.249 1_556 S
O513 Dy499 2.326 . S
O513 C515 1.267 . S
C514 O506 1.249 1_556 S
C514 O507 1.267 . S
C515 O512 1.249 1_554 S
C515 O513 1.267 . S
Dy516 O520 2.398 . S
Dy516 O521 2.491 . S
Dy516 O522 2.403 . S
Dy516 O523 2.664 . S
Dy516 O527 2.326 . S
Dy516 O531 2.310 . S
Dy516 O532 2.351 . S
C517 O528 1.185 . S
C517 O529 1.355 . S
C518 O520 1.185 . S
C518 O521 1.355 . S
Dy519 O523 2.310 . S
Dy519 O526 2.351 . S
Dy519 O528 2.398 . S
Dy519 O529 2.491 . S
Dy519 O530 2.403 . S
Dy519 O531 2.664 . S
Dy519 O533 2.326 . S
O520 Dy516 2.398 . S
O520 C518 1.185 . S
O521 Dy516 2.491 . S
O521 C518 1.355 . S
O522 Dy516 2.403 . S
O522 C524 1.254 . S
O523 Dy516 2.664 . S
O523 Dy519 2.310 . S
O523 C524 1.268 . S
C524 O522 1.254 . S
C524 O523 1.268 . S
C525 O530 1.254 . S
C525 O531 1.268 . S
O526 Dy519 2.351 . S
O526 C534 1.249 . S
O527 Dy516 2.326 . S
O527 C534 1.267 . S
O528 C517 1.185 . S
O528 Dy519 2.398 . S
O529 C517 1.355 . S
O529 Dy519 2.491 . S
O530 Dy519 2.403 . S
O530 C525 1.254 . S
O531 Dy516 2.310 . S
O531 Dy519 2.664 . S
O531 C525 1.268 . S
O532 Dy516 2.351 . S
O532 C535 1.249 . S
O533 Dy519 2.326 . S
O533 C535 1.267 . S
C534 O526 1.249 . S
C534 O527 1.267 . S
C535 O532 1.249 . S
C535 O533 1.267 . S
Dy536 O540 2.398 1_455 S
Dy536 O541 2.491 1_455 S
Dy536 O542 2.403 . S
Dy536 O543 2.664 . S
Dy536 O547 2.326 1_455 S
Dy536 O551 2.310 . S
Dy536 O552 2.351 . S
C537 O548 1.185 . S
C537 O549 1.355 . S
C538 O540 1.185 . S
C538 O541 1.355 . S
Dy539 O543 2.310 . S
Dy539 O546 2.351 1_455 S
Dy539 O548 2.398 . S
Dy539 O549 2.491 . S
Dy539 O550 2.403 . S
Dy539 O551 2.664 . S
Dy539 O553 2.326 . S
O540 Dy536 2.398 1_655 S
O540 C538 1.185 . S
O541 Dy536 2.491 1_655 S
O541 C538 1.355 . S
O542 Dy536 2.403 . S
O542 C544 1.254 . S
O543 Dy536 2.664 . S
O543 Dy539 2.310 . S
O543 C544 1.268 . S
C544 O542 1.254 . S
C544 O543 1.268 . S
C545 O550 1.254 . S
C545 O551 1.268 . S
O546 Dy539 2.351 1_655 S
O546 C554 1.249 . S
O547 Dy536 2.326 1_655 S
O547 C554 1.267 . S
O548 C537 1.185 . S
O548 Dy539 2.398 . S
O549 C537 1.355 . S
O549 Dy539 2.491 . S
O550 Dy539 2.403 . S
O550 C545 1.254 . S
O551 Dy536 2.310 . S
O551 Dy539 2.664 . S
O551 C545 1.268 . S
O552 Dy536 2.351 . S
O552 C555 1.249 . S
O553 Dy539 2.326 . S
O553 C555 1.267 . S
C554 O546 1.249 . S
C554 O547 1.267 . S
C555 O552 1.249 . S
C555 O553 1.267 . S
Dy556 O560 2.398 . S
Dy556 O561 2.491 . S
Dy556 O562 2.403 . S
Dy556 O563 2.664 . S
Dy556 O567 2.326 . S
Dy556 O571 2.310 . S
Dy556 O572 2.351 . S
C557 O568 1.185 . S
C557 O569 1.355 . S
C558 O560 1.185 . S
C558 O561 1.355 . S
Dy559 O563 2.310 . S
Dy559 O566 2.351 . S
Dy559 O568 2.398 . S
Dy559 O569 2.491 . S
Dy559 O570 2.403 . S
Dy559 O571 2.664 . S
Dy559 O573 2.326 . S
O560 Dy556 2.398 . S
O560 C558 1.185 . S
O561 Dy556 2.491 . S
O561 C558 1.355 . S
O562 Dy556 2.403 . S
O562 C564 1.254 . S
O563 Dy556 2.664 . S
O563 Dy559 2.310 . S
O563 C564 1.268 . S
C564 O562 1.254 . S
C564 O563 1.268 . S
C565 O570 1.254 . S
C565 O571 1.268 . S
O566 Dy559 2.351 . S
O566 C574 1.249 . S
O567 Dy556 2.326 . S
O567 C574 1.267 . S
O568 C557 1.185 . S
O568 Dy559 2.398 . S
O569 C557 1.355 . S
O569 Dy559 2.491 . S
O570 Dy559 2.403 . S
O570 C565 1.254 . S
O571 Dy556 2.310 . S
O571 Dy559 2.664 . S
O571 C565 1.268 . S
O572 Dy556 2.351 . S
O572 C575 1.249 . S
O573 Dy559 2.326 . S
O573 C575 1.267 . S
C574 O566 1.249 . S
C574 O567 1.267 . S
C575 O572 1.249 . S
C575 O573 1.267 . S
Dy576 O580 2.398 . S
Dy576 O581 2.491 . S
Dy576 O582 2.403 . S
Dy576 O583 2.664 . S
Dy576 O587 2.326 . S
Dy576 O591 2.310 . S
Dy576 O592 2.351 . S
C577 O588 1.185 . S
C577 O589 1.355 . S
C578 O580 1.185 . S
C578 O581 1.355 . S
Dy579 O583 2.310 . S
Dy579 O586 2.351 . S
Dy579 O588 2.398 . S
Dy579 O589 2.491 . S
Dy579 O590 2.403 . S
Dy579 O591 2.664 . S
Dy579 O593 2.326 . S
O580 Dy576 2.398 . S
O580 C578 1.185 . S
O581 Dy576 2.491 . S
O581 C578 1.355 . S
O582 Dy576 2.403 . S
O582 C584 1.254 . S
O583 Dy576 2.664 . S
O583 Dy579 2.310 . S
O583 C584 1.268 . S
C584 O582 1.254 . S
C584 O583 1.268 . S
C585 O590 1.254 . S
C585 O591 1.268 . S
O586 Dy579 2.351 . S
O586 C594 1.249 . S
O587 Dy576 2.326 . S
O587 C594 1.267 . S
O588 C577 1.185 . S
O588 Dy579 2.398 . S
O589 C577 1.355 . S
O589 Dy579 2.491 . S
O590 Dy579 2.403 . S
O590 C585 1.254 . S
O591 Dy576 2.310 . S
O591 Dy579 2.664 . S
O591 C585 1.268 . S
O592 Dy576 2.351 . S
O592 C595 1.249 . S
O593 Dy579 2.326 . S
O593 C595 1.267 . S
C594 O586 1.249 . S
C594 O587 1.267 . S
C595 O592 1.249 . S
C595 O593 1.267 . S
Dy596 O600 2.398 . S
Dy596 O601 2.491 . S
Dy596 O602 2.403 . S
Dy596 O603 2.664 . S
Dy596 O607 2.326 . S
Dy596 O611 2.310 . S
Dy596 O612 2.351 . S
C597 O608 1.185 . S
C597 O609 1.355 . S
C598 O600 1.185 . S
C598 O601 1.355 . S
Dy599 O603 2.310 . S
Dy599 O606 2.351 . S
Dy599 O608 2.398 . S
Dy599 O609 2.491 . S
Dy599 O610 2.403 . S
Dy599 O611 2.664 . S
Dy599 O613 2.326 . S
O600 Dy596 2.398 . S
O600 C598 1.185 . S
O601 Dy596 2.491 . S
O601 C598 1.355 . S
O602 Dy596 2.403 . S
O602 C604 1.254 . S
O603 Dy596 2.664 . S
O603 Dy599 2.310 . S
O603 C604 1.268 . S
C604 O602 1.254 . S
C604 O603 1.268 . S
C605 O610 1.254 . S
C605 O611 1.268 . S
O606 Dy599 2.351 . S
O606 C614 1.249 . S
O607 Dy596 2.326 . S
O607 C614 1.267 . S
O608 C597 1.185 . S
O608 Dy599 2.398 . S
O609 C597 1.355 . S
O609 Dy599 2.491 . S
O610 Dy599 2.403 . S
O610 C605 1.254 . S
O611 Dy596 2.310 . S
O611 Dy599 2.664 . S
O611 C605 1.268 . S
O612 Dy596 2.351 . S
O612 C615 1.249 . S
O613 Dy599 2.326 . S
O613 C615 1.267 . S
C614 O606 1.249 . S
C614 O607 1.267 . S
C615 O612 1.249 . S
C615 O613 1.267 . S
Dy616 O620 2.398 . S
Dy616 O621 2.491 . S
Dy616 O622 2.403 . S
Dy616 O623 2.664 . S
Dy616 O627 2.326 . S
Dy616 O631 2.310 . S
Dy616 O632 2.351 . S
C617 O628 1.185 . S
C617 O629 1.355 . S
C618 O620 1.185 . S
C618 O621 1.355 . S
Dy619 O623 2.310 . S
Dy619 O626 2.351 . S
Dy619 O628 2.398 . S
Dy619 O629 2.491 . S
Dy619 O630 2.403 . S
Dy619 O631 2.664 . S
Dy619 O633 2.326 . S
O620 Dy616 2.398 . S
O620 C618 1.185 . S
O621 Dy616 2.491 . S
O621 C618 1.355 . S
O622 Dy616 2.403 . S
O622 C624 1.254 . S
O623 Dy616 2.664 . S
O623 Dy619 2.310 . S
O623 C624 1.268 . S
C624 O622 1.254 . S
C624 O623 1.268 . S
C625 O630 1.254 . S
C625 O631 1.268 . S
O626 Dy619 2.351 . S
O626 C634 1.249 . S
O627 Dy616 2.326 . S
O627 C634 1.267 . S
O628 C617 1.185 . S
O628 Dy619 2.398 . S
O629 C617 1.355 . S
O629 Dy619 2.491 . S
O630 Dy619 2.403 . S
O630 C625 1.254 . S
O631 Dy616 2.310 . S
O631 Dy619 2.664 . S
O631 C625 1.268 . S
O632 Dy616 2.351 . S
O632 C635 1.249 . S
O633 Dy619 2.326 . S
O633 C635 1.267 . S
C634 O626 1.249 . S
C634 O627 1.267 . S
C635 O632 1.249 . S
C635 O633 1.267 . S
Dy636 O640 2.398 . S
Dy636 O641 2.491 1_556 S
Dy636 O642 2.403 . S
Dy636 O643 2.664 . S
Dy636 O647 2.326 . S
Dy636 O651 2.310 1_556 S
Dy636 O652 2.351 1_556 S
C637 O648 1.185 . S
C637 O649 1.355 . S
C638 O640 1.185 . S
C638 O641 1.355 1_556 S
Dy639 O643 2.310 1_654 S
Dy639 O646 2.351 . S
Dy639 O648 2.398 . S
Dy639 O649 2.491 . S
Dy639 O650 2.403 . S
Dy639 O651 2.664 1_655 S
Dy639 O653 2.326 1_655 S
O640 Dy636 2.398 . S
O640 C638 1.185 . S
O641 Dy636 2.491 1_554 S
O641 C638 1.355 1_554 S
O642 Dy636 2.403 . S
O642 C644 1.254 . S
O643 Dy636 2.664 . S
O643 Dy639 2.310 1_456 S
O643 C644 1.268 . S
C644 O642 1.254 . S
C644 O643 1.268 . S
C645 O650 1.254 1_455 S
C645 O651 1.268 . S
O646 Dy639 2.351 . S
O646 C654 1.249 1_654 S
O647 Dy636 2.326 . S
O647 C654 1.267 . S
O648 C637 1.185 . S
O648 Dy639 2.398 . S
O649 C637 1.355 . S
O649 Dy639 2.491 . S
O650 Dy639 2.403 . S
O650 C645 1.254 1_655 S
O651 Dy636 2.310 1_554 S
O651 Dy639 2.664 1_455 S
O651 C645 1.268 . S
O652 Dy636 2.351 1_554 S
O652 C655 1.249 . S
O653 Dy639 2.326 1_455 S
O653 C655 1.267 . S
C654 O646 1.249 1_456 S
C654 O647 1.267 . S
C655 O652 1.249 . S
C655 O653 1.267 . S
C105 C354 2.110 1_655 S
C65 C365 2.366 . S
C73 C394 1.327 . S
C397 C92 1.541 . S
C17 C435 1.959 . S
C438 C37 2.032 . S
C465 C49 1.710 . S
C8 C494 2.115 . S
C345 C231 2.163 1_455 S
C241 C357 1.572 . S
C385 C273 1.667 . S
C414 C171 1.408 . S
C227 C418 1.717 . S
C444 C245 1.858 . S
C457 C269 0.953 . S
C485 C175 2.099 . S
C337 C162 2.246 1_545 S
C289 C504 2.226 . S
C535 C330 2.201 . S
C554 C317 0.898 . S
C120 C477 2.244 . S
C134 C377 2.105 . S
C331 C565 1.963 . S
C594 C303 1.534 . S
C355 C59 2.076 . S
C584 C107 2.331 . S
C91 C395 1.243 . S
C78 C558 1.521 . S
C434 C7 1.823 . S
C51 C517 2.013 . S
C464 C31 1.928 . S
C615 C22 2.063 . S
C344 C143 2.301 1_565 S
C578 C315 1.224 . S
C115 C384 1.773 . S
C287 C575 1.469 . S
C147 C417 1.372 1_565 S
C525 C311 1.923 . S
C119 C458 0.717 . S
C283 C604 2.130 . S
C190 C338 2.159 1_554 S
C177 C505 2.208 . S
C260 C454 2.145 . S
C247 C555 0.926 . S
C598 C274 2.123 . S
C218 C378 2.026 . S
C404 C261 1.930 . S
C375 C205 1.447 . S
C77 C634 2.112 . S
C585 C93 2.366 . S
C101 C654 1.327 . S
C64 C557 1.541 . S
C45 C515 1.959 . S
C518 C9 2.033 . S
C545 C21 1.710 . S
C614 C36 2.115 . S
C625 C259 2.162 . S
C185 C577 1.571 . S
C645 C203 1.667 . S
C574 C213 1.408 . S
C498 C255 1.717 . S
C189 C524 1.858 . S
C537 C199 0.953 . S
C217 C605 2.100 . S
C617 C316 2.246 . S
C135 C424 2.226 . S
C455 C148 2.201 . S
C474 C163 0.899 . S
C597 C302 2.245 . S
C288 C637 2.105 . S
C405 C149 1.963 . S
C374 C121 1.534 . S
C87 C635 2.076 . S
C364 C79 2.329 . S
C63 C655 1.243 . S
C106 C398 1.519 . S
C35 C514 1.823 . S
C437 C23 2.013 . S
C3 C544 1.928 . S
C50 C495 2.063 . S
C624 C325 2.302 . S
C161 C358 1.223 . S
C644 C297 1.773 1_455 S
C133 C415 1.469 . S
C329 C497 1.372 . S
C445 C157 1.923 . S
C301 C538 0.717 . S
C484 C129 2.130 . S
C618 C246 2.159 . S
C425 C219 2.208 . S
C232 C534 2.145 . S
C475 C191 0.926 . S
C204 C478 2.124 . S
C176 C638 2.027 1_554 S
C564 C233 1.931 . S
C595 C275 1.448 . S
