# Generated by pormake.
# Topology pyr, (3,6)-cn, num edge types: 1
# Building blocks:
#     Node 0, Type 0, BuildingBlock: OLANEW_clean_sbu_2, # of connection points: 3
#     Node 1, Type 0, BuildingBlock: OLANEW_clean_sbu_2, # of connection points: 3
#     Node 2, Type 0, BuildingBlock: OLANEW_clean_sbu_2, # of connection points: 3
#     Node 3, Type 0, BuildingBlock: OLANEW_clean_sbu_2, # of connection points: 3
#     Node 4, Type 0, BuildingBlock: OLANEW_clean_sbu_2, # of connection points: 3
#     Node 5, Type 0, BuildingBlock: OLANEW_clean_sbu_2, # of connection points: 3
#     Node 6, Type 0, BuildingBlock: OLANEW_clean_sbu_2, # of connection points: 3
#     Node 7, Type 0, BuildingBlock: OLANEW_clean_sbu_2, # of connection points: 3
#     Node 8, Type 1, BuildingBlock: BETGAK_clean_sbu_0, # of connection points: 6
#     Node 9, Type 1, BuildingBlock: BETGAK_clean_sbu_0, # of connection points: 6
#     Node 10, Type 1, BuildingBlock: BETGAK_clean_sbu_0, # of connection points: 6
#     Node 11, Type 1, BuildingBlock: BETGAK_clean_sbu_0, # of connection points: 6
#     Edge 12, Type (0, 1), BuildingBlock: EZIPEK_clean_linker_0, # of connection points: 2
#     Edge 13, Type (0, 1), BuildingBlock: EZIPEK_clean_linker_0, # of connection points: 2
#     Edge 14, Type (0, 1), BuildingBlock: EZIPEK_clean_linker_0, # of connection points: 2
#     Edge 15, Type (0, 1), BuildingBlock: EZIPEK_clean_linker_0, # of connection points: 2
#     Edge 16, Type (0, 1), BuildingBlock: EZIPEK_clean_linker_0, # of connection points: 2
#     Edge 17, Type (0, 1), BuildingBlock: EZIPEK_clean_linker_0, # of connection points: 2
#     Edge 18, Type (0, 1), BuildingBlock: EZIPEK_clean_linker_0, # of connection points: 2
#     Edge 19, Type (0, 1), BuildingBlock: EZIPEK_clean_linker_0, # of connection points: 2
#     Edge 20, Type (0, 1), BuildingBlock: EZIPEK_clean_linker_0, # of connection points: 2
#     Edge 21, Type (0, 1), BuildingBlock: EZIPEK_clean_linker_0, # of connection points: 2
#     Edge 22, Type (0, 1), BuildingBlock: EZIPEK_clean_linker_0, # of connection points: 2
#     Edge 23, Type (0, 1), BuildingBlock: EZIPEK_clean_linker_0, # of connection points: 2
#     Edge 24, Type (0, 1), BuildingBlock: EZIPEK_clean_linker_0, # of connection points: 2
#     Edge 25, Type (0, 1), BuildingBlock: EZIPEK_clean_linker_0, # of connection points: 2
#     Edge 26, Type (0, 1), BuildingBlock: EZIPEK_clean_linker_0, # of connection points: 2
#     Edge 27, Type (0, 1), BuildingBlock: EZIPEK_clean_linker_0, # of connection points: 2
#     Edge 28, Type (0, 1), BuildingBlock: EZIPEK_clean_linker_0, # of connection points: 2
#     Edge 29, Type (0, 1), BuildingBlock: EZIPEK_clean_linker_0, # of connection points: 2
#     Edge 30, Type (0, 1), BuildingBlock: EZIPEK_clean_linker_0, # of connection points: 2
#     Edge 31, Type (0, 1), BuildingBlock: EZIPEK_clean_linker_0, # of connection points: 2
#     Edge 32, Type (0, 1), BuildingBlock: EZIPEK_clean_linker_0, # of connection points: 2
#     Edge 33, Type (0, 1), BuildingBlock: EZIPEK_clean_linker_0, # of connection points: 2
#     Edge 34, Type (0, 1), BuildingBlock: EZIPEK_clean_linker_0, # of connection points: 2
#     Edge 35, Type (0, 1), BuildingBlock: EZIPEK_clean_linker_0, # of connection points: 2
# Relax obj value: 0.190
# Max RMSD: 0.178
# Mean RMSD: 0.124
data_MOF--net-pyr--node1-OLANEW_clean_sbu_2--node2-BETGAK_clean_sbu_0--edge1-EZIPEK_clean_linker_0
_symmetry_space_group_name_H-M    P1
_symmetry_Int_Tables_number       1
_symmetry_cell_setting            triclinic
loop_
_symmetry_equiv_pos_as_xyz
'x, y, z'
_cell_length_a     30.729284
_cell_length_b     34.449758
_cell_length_c     30.742243
_cell_angle_alpha  96.178361
_cell_angle_beta   87.678507
_cell_angle_gamma 104.24972
loop_
_atom_site_label
_atom_site_type_symbol
_atom_site_fract_x
_atom_site_fract_y
_atom_site_fract_z
_atom_type_partial_charge
O0 O 0.40773 0.26423 0.1596 0.0
Cd1 Cd 0.39334 0.33288 0.17159 0.0
O2 O 0.41375 0.26772 0.23055 0.0
Cd3 Cd 0.41667 0.24217 0.29158 0.0
O4 O 0.36435 0.2228 0.33947 0.0
C5 C 0.35339 0.2485 0.36777 0.0
O6 O 0.37792 0.28573 0.37193 0.0
C7 C 0.41585 0.24856 0.19319 0.0
C8 C 0.31361 0.3528 0.14993 0.0
O9 O 0.34635 0.3547 0.12237 0.0
O10 O 0.31713 0.33927 0.18656 0.0
O11 O 0.27625 0.9373 0.72055 0.0
Cd12 Cd 0.26884 0.92579 0.64121 0.0
O13 O 0.24285 0.8745 0.73142 0.0
Cd14 Cd 0.21112 0.86434 0.66762 0.0
O15 O 0.17512 0.88869 0.62184 0.0
C16 C 0.172 0.92372 0.6368 0.0
O17 O 0.18839 0.93856 0.67559 0.0
C18 C 0.26613 0.90918 0.7456 0.0
C19 C 0.33416 0.8845 0.62058 0.0
O20 O 0.34338 0.92272 0.61939 0.0
O21 O 0.29349 0.86564 0.62749 0.0
O22 O 0.74369 0.45107 0.90294 0.0
Cd23 Cd 0.67588 0.44518 0.8516 0.0
O24 O 0.72304 0.39488 0.93624 0.0
Cd25 Cd 0.69816 0.33578 0.96981 0.0
O26 O 0.65221 0.27416 0.98596 0.0
C27 C 0.65471 0.25273 0.01717 0.0
O28 O 0.68752 0.2657 0.04519 0.0
C29 C 0.75203 0.42832 0.93077 0.0
C30 C 0.65151 0.49026 0.78479 0.0
O31 O 0.64923 0.50161 0.82585 0.0
O32 O 0.66847 0.45987 0.77462 0.0
O33 O 0.94746 0.79345 0.37488 0.0
Cd34 Cd 0.91786 0.72055 0.34078 0.0
O35 O 0.89649 0.79172 0.42868 0.0
Cd36 Cd 0.85268 0.73061 0.42257 0.0
O37 O 0.79457 0.68808 0.44941 0.0
C38 C 0.77101 0.70263 0.47885 0.0
O39 O 0.78251 0.74131 0.49183 0.0
C40 C 0.9309 0.81069 0.40853 0.0
C41 C 0.94228 0.67732 0.26154 0.0
O42 O 0.91354 0.69878 0.26152 0.0
O43 O 0.96193 0.67808 0.29778 0.0
O44 O 0.6909 0.77881 0.79071 0.0
Cd45 Cd 0.64914 0.74687 0.85162 0.0
O46 O 0.71622 0.83392 0.83505 0.0
Cd47 Cd 0.66431 0.82296 0.88572 0.0
O48 O 0.6233 0.85327 0.93041 0.0
C49 C 0.64028 0.89054 0.94062 0.0
O50 O 0.6801 0.90726 0.92496 0.0
C51 C 0.71794 0.81306 0.79863 0.0
C52 C 0.70984 0.71079 0.88616 0.0
O53 O 0.70918 0.74731 0.8988 0.0
O54 O 0.67989 0.69034 0.85928 0.0
O55 O 0.74791 0.21035 0.47539 0.0
Cd56 Cd 0.77831 0.21999 0.54797 0.0
O57 O 0.81213 0.24528 0.4501 0.0
Cd58 Cd 0.82214 0.27973 0.51407 0.0
O59 O 0.77613 0.31735 0.53542 0.0
C60 C 0.78378 0.35205 0.52209 0.0
O61 O 0.82136 0.36575 0.50069 0.0
C62 C 0.7739 0.22115 0.44341 0.0
C63 C 0.83442 0.16788 0.54752 0.0
O64 O 0.79313 0.15689 0.5593 0.0
O65 O 0.84967 0.20372 0.53689 0.0
O66 O 0.43925 0.8273 0.26909 0.0
Cd67 Cd 0.42401 0.7595 0.3078 0.0
O68 O 0.39015 0.81747 0.21417 0.0
Cd69 Cd 0.33797 0.75826 0.20261 0.0
O70 O 0.28003 0.70771 0.17544 0.0
C71 C 0.25879 0.70965 0.14104 0.0
O72 O 0.27128 0.74201 0.12015 0.0
C73 C 0.42318 0.84001 0.23641 0.0
C74 C 0.45126 0.72514 0.38337 0.0
O75 O 0.477 0.73207 0.34964 0.0
O76 O 0.41454 0.73666 0.38356 0.0
O77 O 0.16259 0.464 0.80371 0.0
Cd78 Cd 0.20221 0.44932 0.73235 0.0
O79 O 0.10909 0.40764 0.81101 0.0
Cd80 Cd 0.11669 0.35931 0.75785 0.0
O81 O 0.10487 0.30239 0.71139 0.0
C82 C 0.09107 0.26697 0.7235 0.0
O83 O 0.08372 0.2627 0.7653 0.0
C84 C 0.12853 0.44417 0.82425 0.0
C85 C 0.28636 0.49557 0.70053 0.0
O86 O 0.25152 0.50995 0.70494 0.0
O87 O 0.28252 0.46085 0.71387 0.0
La88 La 0.03048 0.06174 0.51702 0.0
La89 La 0.99934 1.02123 0.59959 0.0
C90 C 0.04865 0.10598 0.4557 0.0
C91 C 0.08879 0.13786 0.44789 0.0
C92 C 0.11654 0.15752 0.48292 0.0
C93 C 0.15934 0.18128 0.47487 0.0
C94 C 0.17501 0.18515 0.43173 0.0
C95 C 0.14646 0.16734 0.39679 0.0
C96 C 0.10354 0.14375 0.40485 0.0
C97 C 0.09081 0.03142 0.55392 0.0
C98 C 0.0432 0.11624 0.60842 0.0
C99 C 0.98861 0.97638 0.66052 0.0
C100 C 0.94993 0.94556 0.67399 0.0
C101 C 0.91398 0.92937 0.64538 0.0
C102 C 0.87497 0.90342 0.65991 0.0
C103 C 0.87141 0.89383 0.70331 0.0
C104 C 0.9079 0.90896 0.73143 0.0
C105 C 0.947 0.93474 0.71682 0.0
C106 C 0.9377 0.05188 0.56877 0.0
C107 C 0.98636 0.96994 0.50512 0.0
O108 O 0.0563 0.07015 0.45376 0.0
O109 O 0.02322 0.11304 0.48943 0.0
O110 O 0.08752 0.03328 0.51249 0.0
O111 O 0.06237 0.04838 0.57249 0.0
O112 O 0.04286 0.11464 0.56532 0.0
O113 O 0.03313 0.08271 0.62867 0.0
O114 O 0.98315 1.01306 0.66544 0.0
O115 O 1.00685 0.96807 0.62255 0.0
O116 O 0.93554 0.03868 0.60673 0.0
O117 O 0.96738 0.03825 0.54698 0.0
O118 O 0.99235 0.97015 0.54771 0.0
O119 O 0.99124 1.00398 0.48704 0.0
H120 H 0.10617 0.1529 0.51639 0.0
H121 H 0.18105 0.19491 0.50211 0.0
H122 H 0.1582 0.17018 0.3633 0.0
H123 H 0.08286 0.12838 0.37748 0.0
H124 H 0.91561 0.93776 0.61226 0.0
H125 H 0.84702 0.89197 0.63791 0.0
H126 H 0.90553 0.90179 0.76504 0.0
H127 H 0.97436 0.9472 0.73929 0.0
La128 La 0.55605 0.06153 0.13221 0.0
La129 La 0.46887 0.03236 0.07962 0.0
C130 C 0.63176 0.10316 0.15708 0.0
C131 C 0.65526 0.11956 0.19788 0.0
C132 C 0.64353 0.10095 0.23653 0.0
C133 C 0.66558 0.11809 0.27533 0.0
C134 C 0.69912 0.15406 0.27574 0.0
C135 C 0.71091 0.17256 0.23712 0.0
C136 C 0.68911 0.15528 0.19829 0.0
C137 C 0.50072 0.99955 0.17016 0.0
C138 C 0.47197 0.09871 0.15497 0.0
C139 C 0.39614 0.99226 0.04505 0.0
C140 C 0.37869 0.97492 1.00175 0.0
C141 C 0.33301 0.95565 0.99782 0.0
C142 C 0.31441 0.94238 0.95658 0.0
C143 C 0.34137 0.94833 0.91882 0.0
C144 C 0.38742 0.96661 0.92273 0.0
C145 C 0.40605 0.97991 0.96408 0.0
C146 C 0.52666 0.09973 0.05538 0.0
C147 C 0.55225 0.99724 0.04885 0.0
O148 O 0.62237 0.06395 0.14811 0.0
O149 O 0.59831 0.1185 0.14901 0.0
O150 O 0.53955 1.0201 0.1847 0.0
O151 O 0.49424 1.0169 0.13738 0.0
O152 O 0.51635 0.10558 0.15308 0.0
O153 O 0.44686 0.06381 0.13849 0.0
O154 O 0.4081 0.0315 0.05063 0.0
O155 O 0.42506 0.97597 0.06166 0.0
O156 O 0.48361 0.09031 0.04954 0.0
O157 O 0.53532 0.0693 0.06931 0.0
O158 O 0.5094 0.99579 0.04327 0.0
O159 O 0.57739 1.0229 0.07855 0.0
H160 H 0.61714 0.07353 0.23676 0.0
H161 H 0.65604 0.10378 0.30515 0.0
H162 H 0.73659 0.20048 0.23722 0.0
H163 H 0.69826 0.17004 0.16868 0.0
H164 H 0.31148 0.9518 0.02663 0.0
H165 H 0.27884 0.92835 0.95401 0.0
H166 H 0.40858 0.97141 0.89379 0.0
H167 H 0.44138 0.99493 0.96666 0.0
La168 La 0.52533 0.56151 0.55744 0.0
La169 La 0.53623 0.63365 0.61881 0.0
C170 C 0.54203 0.50192 0.51106 0.0
C171 C 0.57679 0.47945 0.51424 0.0
C172 C 0.5642 0.43766 0.51641 0.0
C173 C 0.59686 0.4162 0.52001 0.0
C174 C 0.64254 0.43625 0.52099 0.0
C175 C 0.65521 0.47801 0.51931 0.0
C176 C 0.62263 0.49952 0.51624 0.0
C177 C 0.45174 0.5637 0.60438 0.0
C178 C 0.57273 0.56537 0.65152 0.0
C179 C 0.51874 0.69198 0.66625 0.0
C180 C 0.49492 0.72252 0.65747 0.0
C181 C 0.51849 0.76307 0.65818 0.0
C182 C 0.49664 0.79208 0.64847 0.0
C183 C 0.45081 0.78093 0.63857 0.0
C184 C 0.42729 0.74047 0.63741 0.0
C185 C 0.44917 0.71142 0.6466 0.0
C186 C 0.61008 0.62982 0.57241 0.0
C187 C 0.49665 0.63415 0.52233 0.0
O188 O 0.51144 0.49859 0.54215 0.0
O189 O 0.55628 0.53905 0.50165 0.0
O190 O 0.45239 0.55005 0.5634 0.0
O191 O 0.49182 0.5748 0.61775 0.0
O192 O 0.56519 0.54806 0.61075 0.0
O193 O 0.56121 0.5995 0.66379 0.0
O194 O 0.55709 0.69387 0.64552 0.0
O195 O 0.49445 0.65493 0.6661 0.0
O196 O 0.60926 0.64566 0.61267 0.0
O197 O 0.57005 0.61959 0.55945 0.0
O198 O 0.50439 0.65185 0.56286 0.0
O199 O 0.5031 0.5976 0.51161 0.0
H200 H 0.52912 0.42164 0.51526 0.0
H201 H 0.58664 0.38391 0.52124 0.0
H202 H 0.69034 0.49388 0.52016 0.0
H203 H 0.63345 0.53182 0.51533 0.0
H204 H 0.5538 0.77227 0.66619 0.0
H205 H 0.51511 0.82331 0.64958 0.0
H206 H 0.39185 0.7315 0.62988 0.0
H207 H 0.43012 0.68035 0.64523 0.0
La208 La 0.01788 0.51584 0.06319 0.0
La209 La 0.01108 0.58299 1.01366 0.0
C210 C 0.04368 0.4577 0.08881 0.0
C211 C 0.08542 0.44619 0.09883 0.0
C212 C 0.08604 0.42515 0.13541 0.0
C213 C 0.12348 0.41072 0.14362 0.0
C214 C 0.16099 0.41692 0.11527 0.0
C215 C 0.16085 0.43854 0.07904 0.0
C216 C 0.12342 0.45308 0.07089 0.0
C217 C 0.97866 0.56971 0.10851 0.0
C218 C 0.1002 0.59514 0.06479 0.0
C219 C 0.98494 0.63992 0.98634 0.0
C220 C 0.94303 0.64584 0.96977 0.0
C221 C 0.94466 0.67795 0.94488 0.0
C222 C 0.90496 0.68547 0.93114 0.0
C223 C 0.86317 0.66092 0.94215 0.0
C224 C 0.86151 0.62831 0.96636 0.0
C225 C 0.90122 0.62091 0.9802 0.0
C226 C 0.05532 0.53333 0.97085 0.0
C227 C 0.92746 0.504 1.01264 0.0
O228 O 0.03151 0.48553 0.11539 0.0
O229 O 0.03729 0.46166 0.04789 0.0
O230 O 0.96855 0.53113 0.11187 0.0
O231 O 0.01153 0.57616 0.08191 0.0
O232 O 0.08614 0.5565 0.07148 0.0
O233 O 0.07509 0.61324 0.04419 0.0
O234 O 1.00509 0.61623 0.96149 0.0
O235 O 0.98394 0.63313 0.02743 0.0
O236 O 0.06433 0.57186 0.96842 0.0
O237 O 0.02037 0.52368 0.99473 0.0
O238 O 0.94371 0.54154 1.00296 0.0
O239 O 0.95137 0.48644 0.03568 0.0
H240 H 0.05713 0.4192 0.15726 0.0
H241 H 0.12298 0.39424 0.17179 0.0
H242 H 0.18953 0.44379 0.05688 0.0
H243 H 0.12391 0.46907 0.04237 0.0
H244 H 0.9766 0.69756 0.93664 0.0
H245 H 0.90675 0.7107 0.91235 0.0
H246 H 0.82952 0.60903 0.97503 0.0
H247 H 0.89924 0.59624 0.99966 0.0
C248 C 0.30147 0.20299 0.41533 0.0
C249 C 0.31002 0.23713 0.39149 0.0
C250 C 0.23271 0.24295 0.40568 0.0
C251 C 0.22244 0.2051 0.4226 0.0
N252 N 0.24584 0.1467 0.4403 0.0
N253 N 0.28202 0.28708 0.35894 0.0
C254 C 0.25657 0.18459 0.42705 0.0
C255 C 0.27542 0.25694 0.38583 0.0
N256 N 0.33641 0.18853 0.42719 0.0
N257 N 0.20157 0.26544 0.40857 0.0
H258 H 0.31212 0.29769 0.34239 0.0
H259 H 0.25627 0.29922 0.34983 0.0
H260 H 0.16984 0.25579 0.4228 0.0
H261 H 0.20869 0.29508 0.40078 0.0
H262 H 0.33275 0.16607 0.44815 0.0
H263 H 0.3698 0.20182 0.4196 0.0
H264 H 0.26847 0.12853 0.43918 0.0
H265 H 0.21336 0.13203 0.44929 0.0
C266 C 0.27319 0.94973 0.8187 0.0
C267 C 0.28269 0.917 0.79109 0.0
C268 C 0.32575 0.90159 0.84972 0.0
C269 C 0.32074 0.93715 0.87504 0.0
N270 N 0.29518 0.99841 0.88165 0.0
N271 N 0.32337 0.86492 0.77778 0.0
C272 C 0.29592 0.96216 0.85901 0.0
C273 C 0.31017 0.89352 0.80597 0.0
N274 N 0.24114 0.96794 0.80717 0.0
N275 N 0.34467 0.87518 0.86778 0.0
H276 H 0.31344 0.85828 0.74528 0.0
H277 H 0.34734 0.85011 0.78545 0.0
H278 H 0.35702 0.88043 0.89954 0.0
H279 H 0.34471 0.84662 0.85272 0.0
H280 H 0.22951 0.98922 0.828 0.0
H281 H 0.2228 0.95889 0.77846 0.0
H282 H 0.28192 1.01991 0.86914 0.0
H283 H 0.31119 1.00856 0.91148 0.0
C284 C 0.58765 0.51587 0.75611 0.0
C285 C 0.63176 0.50959 0.75037 0.0
C286 C 0.63441 0.53373 0.67667 0.0
C287 C 0.59287 0.54516 0.68499 0.0
N288 N 0.53223 0.54999 0.73662 0.0
N289 N 0.7 0.51942 0.70712 0.0
C290 C 0.57055 0.53745 0.72606 0.0
C291 C 0.65576 0.5202 0.71101 0.0
N292 N 0.56031 0.49858 0.78859 0.0
N293 N 0.65387 0.53552 0.63595 0.0
H294 H 0.71721 0.51114 0.73173 0.0
H295 H 0.72085 0.53093 0.6816 0.0
H296 H 0.64118 0.54644 0.61023 0.0
H297 H 0.68099 0.52321 0.62658 0.0
H298 H 0.52626 0.49796 0.79139 0.0
H299 H 0.56997 0.48067 0.80977 0.0
H300 H 0.51846 0.55053 0.76815 0.0
H301 H 0.51525 0.56194 0.7149 0.0
C302 C 0.99226 0.65974 0.19826 0.0
C303 C 0.95069 0.65069 0.22128 0.0
C304 C 0.9251 0.59065 0.16785 0.0
C305 C 0.96651 0.60053 0.14378 0.0
N306 N 0.03 0.65518 0.12844 0.0
N307 N 0.87486 0.61016 0.22484 0.0
C308 C 0.99751 0.63804 0.15681 0.0
C309 C 0.91631 0.61698 0.20497 0.0
N310 N 0.02698 0.68963 0.21552 0.0
N311 N 0.89366 0.5561 0.15514 0.0
H312 H 0.86793 0.62663 0.25363 0.0
H313 H 0.84652 0.58969 0.21176 0.0
H314 H 0.89502 0.53931 0.1251 0.0
H315 H 0.8664 0.54353 0.17458 0.0
H316 H 0.05972 0.69407 0.20312 0.0
H317 H 0.02395 0.70785 0.24429 0.0
H318 H 0.0517 0.68345 0.13524 0.0
H319 H 0.0301 0.64494 0.0956 0.0
C320 C 0.3985 0.17573 0.16258 0.0
C321 C 0.42601 0.20795 0.18885 0.0
C322 C 0.47234 0.16226 0.20454 0.0
C323 C 0.45117 0.13326 0.17059 0.0
N324 N 0.39761 0.11822 0.11099 0.0
N325 N 0.49405 0.23296 0.23067 0.0
C326 C 0.41464 0.1411 0.14829 0.0
C327 C 0.46411 0.20147 0.20911 0.0
N328 N 0.35668 0.1779 0.15131 0.0
N329 N 0.49975 0.1522 0.23303 0.0
H330 H 0.49064 0.26248 0.23349 0.0
H331 H 0.5246 0.23032 0.24202 0.0
H332 H 0.50451 0.12316 0.23217 0.0
H333 H 0.51316 0.17119 0.26048 0.0
H334 H 0.33363 0.15351 0.13562 0.0
H335 H 0.34323 0.20231 0.16212 0.0
H336 H 0.37439 0.12575 0.0917 0.0
H337 H 0.41039 0.09506 0.09585 0.0
C338 C 0.11829 0.9664 0.6353 0.0
C339 C 0.14982 0.94805 0.61236 0.0
C340 C 0.14686 0.98682 0.55031 0.0
C341 C 0.1171 1.00704 0.57505 0.0
N342 N 0.0958 0.02825 0.64878 0.0
N343 N 0.20103 0.94604 0.55102 0.0
C344 C 0.10879 1.00038 0.61979 0.0
C345 C 0.16573 0.95926 0.57036 0.0
N346 N 0.09753 0.95163 0.67235 0.0
N347 N 0.15891 0.99492 0.5084 0.0
H348 H 0.21621 0.9264 0.56467 0.0
H349 H 0.21771 0.95687 0.52295 0.0
H350 H 0.15614 1.02106 0.49582 0.0
H351 H 0.17291 0.97604 0.48643 0.0
H352 H 0.07197 0.96266 0.68861 0.0
H353 H 0.1025 0.92568 0.68395 0.0
H354 H 0.09194 0.02557 0.68228 0.0
H355 H 0.09713 0.05688 0.64071 0.0
C356 C 0.83388 0.42825 0.94392 0.0
C357 C 0.79522 0.44277 0.95671 0.0
C358 C 0.84247 0.49572 1.00794 0.0
C359 C 0.88125 0.48106 0.99558 0.0
N360 N 0.91243 0.42993 0.95525 0.0
N361 N 0.76109 0.48571 1.00633 0.0
C362 C 0.87631 0.44604 0.96491 0.0
C363 C 0.79922 0.4752 0.99033 0.0
N364 N 0.83048 0.39861 0.91 0.0
N365 N 0.84701 0.52979 0.03635 0.0
H366 H 0.72925 0.47131 0.99438 0.0
H367 H 0.76015 0.50612 0.03366 0.0
H368 H 0.87689 0.54395 0.05227 0.0
H369 H 0.82211 0.54546 0.04251 0.0
H370 H 0.85782 0.38967 0.89484 0.0
H371 H 0.80003 0.38414 0.89516 0.0
H372 H 0.91041 0.4021 0.9375 0.0
H373 H 0.94453 0.44335 0.96697 0.0
C374 C 0.73324 0.66981 0.5441 0.0
C375 C 0.73149 0.6766 0.49964 0.0
C376 C 0.65094 0.64317 0.49837 0.0
C377 C 0.65199 0.63843 0.54401 0.0
N378 N 0.69773 0.63317 0.60414 0.0
N379 N 0.69201 0.66213 0.43153 0.0
C380 C 0.69432 0.64742 0.56492 0.0
C381 C 0.6914 0.66073 0.47587 0.0
N382 N 0.77204 0.68541 0.56685 0.0
N383 N 0.61147 0.63213 0.47634 0.0
H384 H 0.72025 0.67633 0.4142 0.0
H385 H 0.66566 0.64682 0.41122 0.0
H386 H 0.58356 0.61153 0.48672 0.0
H387 H 0.60666 0.64276 0.4469 0.0
H388 H 0.7738 0.68638 0.60073 0.0
H389 H 0.80215 0.69949 0.55213 0.0
H390 H 0.72819 0.63512 0.61892 0.0
H391 H 0.67053 0.61528 0.61963 0.0
C392 C 0.26843 0.40488 0.16527 0.0
C393 C 0.27422 0.36884 0.14101 0.0
C394 C 0.2047 0.36344 0.10111 0.0
C395 C 0.20038 0.40059 0.12362 0.0
N396 N 0.23077 0.45965 0.17252 0.0
N397 N 0.25107 0.31592 0.08268 0.0
C398 C 0.23293 0.42206 0.15456 0.0
C399 C 0.24333 0.34883 0.10787 0.0
N400 N 0.29692 0.42275 0.19868 0.0
N401 N 0.17101 0.34146 0.07434 0.0
H402 H 0.27736 0.30297 0.08832 0.0
H403 H 0.23314 0.30273 0.05467 0.0
H404 H 0.14272 0.35148 0.06805 0.0
H405 H 0.16933 0.31216 0.06068 0.0
H406 H 0.29132 0.44585 0.22123 0.0
H407 H 0.32526 0.41311 0.20561 0.0
H408 H 0.256 0.47906 0.1914 0.0
H409 H 0.20504 0.47295 0.1659 0.0
C410 C 0.57624 0.21257 0.03761 0.0
C411 C 0.62085 0.21308 0.02303 0.0
C412 C 0.60275 0.13883 0.02511 0.0
C413 C 0.55966 0.13884 0.0444 0.0
N414 N 0.50979 0.17891 0.07637 0.0
N415 N 0.67823 0.17661 1.00782 0.0
C416 C 0.54752 0.17657 0.05224 0.0
C417 C 0.63454 0.17618 0.01855 0.0
N418 N 0.5611 0.24672 0.038 0.0
N419 N 0.61267 0.10314 1.01027 0.0
H420 H 0.70158 0.2023 0.99937 0.0
H421 H 0.69198 0.15209 1.00987 0.0
H422 H 0.59016 0.07537 1.01209 0.0
H423 H 0.6413 0.10107 0.99177 0.0
H424 H 0.5275 0.2472 0.04299 0.0
H425 H 0.5814 0.27403 0.02982 0.0
H426 H 0.50187 0.20593 0.08785 0.0
H427 H 0.48866 0.15424 0.08906 0.0
C428 C 0.92362 0.88207 0.42499 0.0
C429 C 0.95033 0.85383 0.42585 0.0
C430 C 1.00418 0.90428 0.47314 0.0
C431 C 0.97438 0.93034 0.47688 0.0
N432 N 0.90267 0.94146 0.46043 0.0
N433 N 0.01447 0.83672 0.45387 0.0
C434 C 0.93346 0.91871 0.45349 0.0
C435 C 0.99045 0.86474 0.45048 0.0
N436 N 0.8889 0.87391 0.39635 0.0
N437 N 0.04624 0.91774 0.4902 0.0
H438 H 1.00635 0.80814 0.43673 0.0
H439 H 0.04072 0.84087 0.47562 0.0
H440 H 0.05754 0.94632 0.50669 0.0
H441 H 0.07126 0.90209 0.48476 0.0
H442 H 0.87075 0.89469 0.39075 0.0
H443 H 0.88116 0.8476 0.37494 0.0
H444 H 0.87026 0.93251 0.44815 0.0
H445 H 0.90796 0.96767 0.48192 0.0
C446 C 0.37855 0.83709 0.58575 0.0
C447 C 0.3702 0.86339 0.62204 0.0
C448 C 0.41677 0.83731 0.66857 0.0
C449 C 0.42629 0.81174 0.63201 0.0
N450 N 0.42452 0.7928 0.55418 0.0
N451 N 0.38882 0.89544 0.69503 0.0
C452 C 0.40976 0.81339 0.58997 0.0
C453 C 0.39208 0.86595 0.66238 0.0
N454 N 0.35588 0.83419 0.54774 0.0
N455 N 0.42868 0.83247 0.70969 0.0
H456 H 0.36941 0.91603 0.69276 0.0
H457 H 0.40818 0.90156 0.72312 0.0
H458 H 0.4462 0.81139 0.71603 0.0
H459 H 0.41797 0.84695 0.73811 0.0
H460 H 0.35648 0.81231 0.52172 0.0
H461 H 0.33443 0.85259 0.54311 0.0
H462 H 0.41694 0.79555 0.52214 0.0
H463 H 0.44764 0.77541 0.55631 0.0
C464 C 0.75286 0.8665 0.75079 0.0
C465 C 0.75272 0.82921 0.76626 0.0
C466 C 0.82511 0.8299 0.72951 0.0
C467 C 0.82853 0.87007 0.72062 0.0
N468 N 0.79744 0.92837 0.72553 0.0
N469 N 0.78993 0.77616 0.77354 0.0
C470 C 0.79265 0.88875 0.73148 0.0
C471 C 0.78884 0.81068 0.75591 0.0
N472 N 0.71469 0.88034 0.75424 0.0
N473 N 0.85651 0.81021 0.71255 0.0
H474 H 0.76412 0.76117 0.79313 0.0
H475 H 0.81781 0.76389 0.7714 0.0
H476 H 0.88357 0.82368 0.69321 0.0
H477 H 0.85355 0.77964 0.71426 0.0
H478 H 0.71126 0.90542 0.73984 0.0
H479 H 0.68485 0.86434 0.76785 0.0
H480 H 0.77455 0.94484 0.7376 0.0
H481 H 0.82598 0.94585 0.71136 0.0
C482 C 0.77762 0.1791 0.3724 0.0
C483 C 0.75821 0.20711 0.39856 0.0
C484 C 0.70043 0.20061 0.344 0.0
C485 C 0.72051 0.17343 0.31727 0.0
N486 N 0.78174 0.14153 0.30153 0.0
N487 N 0.70762 0.25102 0.40641 0.0
C488 C 0.76034 0.1642 0.33006 0.0
C489 C 0.72146 0.21979 0.38349 0.0
N490 N 0.81113 0.16541 0.38885 0.0
N491 N 0.66064 0.20724 0.33211 0.0
H492 H 0.7224 0.26584 0.43552 0.0
H493 H 0.68425 0.26463 0.39487 0.0
H494 H 0.64497 0.19488 0.30259 0.0
H495 H 0.64154 0.22284 0.35263 0.0
H496 H 0.82305 0.14148 0.37366 0.0
H497 H 0.82531 0.17631 0.41936 0.0
H498 H 0.81341 0.13733 0.30692 0.0
H499 H 0.76922 0.12913 0.27073 0.0
C500 C 0.50079 0.71856 0.44633 0.0
C501 C 0.46233 0.7023 0.41984 0.0
C502 C 0.44392 0.64303 0.46317 0.0
C503 C 0.48437 0.65773 0.48719 0.0
N504 N 0.55514 0.70709 0.49583 0.0
N505 N 0.40088 0.64551 0.39917 0.0
C506 C 0.51369 0.69496 0.47726 0.0
C507 C 0.43482 0.66362 0.42742 0.0
N508 N 0.52437 0.75734 0.44309 0.0
N509 N 0.41319 0.60997 0.47547 0.0
H510 H 0.39311 0.65919 0.37284 0.0
H511 H 0.38288 0.61568 0.39946 0.0
H512 H 0.41867 0.59406 0.50089 0.0
H513 H 0.38084 0.60028 0.46311 0.0
H514 H 0.54943 0.77286 0.46474 0.0
H515 H 0.51617 0.77532 0.42103 0.0
H516 H 0.58017 0.73112 0.48626 0.0
H517 H 0.56623 0.69098 0.51809 0.0
C518 C 0.13359 0.47805 0.9023 0.0
C519 C 0.10879 0.46485 0.86316 0.0
C520 C 0.04518 0.48914 0.89843 0.0
C521 C 0.07165 0.50585 0.93595 0.0
N522 N 0.14251 0.51906 0.97234 0.0
N523 N 0.04305 0.46256 0.82182 0.0
C524 C 0.11626 0.50101 0.93746 0.0
C525 C 0.06492 0.47127 0.86087 0.0
N526 N 0.17308 0.46734 0.90651 0.0
N527 N 1.00113 0.4906 0.89834 0.0
H528 H 0.05634 0.4501 0.79349 0.0
H529 H 0.01351 0.47077 0.81623 0.0
H530 H 0.98603 0.50552 0.92359 0.0
H531 H 0.97846 0.47456 0.87471 0.0
H532 H 0.19051 0.47198 0.93569 0.0
H533 H 0.1867 0.45069 0.8816 0.0
H534 H 0.17689 0.5214 0.97321 0.0
H535 H 0.1302 0.53357 0.99988 0.0
C536 C 0.59908 0.94526 0.94835 0.0
C537 C 0.61479 0.91577 0.96777 0.0
C538 C 0.58948 0.93971 0.04019 0.0
C539 C 0.5731 0.96887 0.02068 0.0
N540 N 0.55652 0.99639 0.95601 0.0
N541 N 0.62021 0.88069 0.03027 0.0
C542 C 0.57605 0.97066 0.97466 0.0
C543 C 0.60843 0.91167 1.01315 0.0
N544 N 0.60692 0.94938 0.90474 0.0
N545 N 0.5873 0.93909 0.0847 0.0
H546 H 0.6362 0.8608 1.012 0.0
H547 H 0.61187 0.87288 0.06183 0.0
H548 H 0.57088 0.95695 0.10554 0.0
H549 H 0.60347 0.92226 0.10163 0.0
H550 H 0.60195 0.97345 0.8895 0.0
H551 H 0.62053 0.92948 0.88367 0.0
H552 H 0.55239 0.99568 0.92249 0.0
H553 H 0.5419 1.01736 0.97402 0.0
C554 C 0.86846 0.1117 0.51527 0.0
C555 C 0.86476 0.14104 0.55035 0.0
C556 C 0.91282 0.11519 0.59532 0.0
C557 C 0.91741 0.08559 0.56004 0.0
N558 N 0.90652 0.06131 0.48349 0.0
N559 N 0.8906 0.17687 0.61965 0.0
C560 C 0.89769 0.08581 0.51895 0.0
C561 C 0.88906 0.14455 0.5891 0.0
N562 N 0.84276 0.10774 0.47901 0.0
N563 N 0.93139 0.11587 0.63516 0.0
H564 H 0.87264 0.19854 0.61703 0.0
H565 H 0.91249 0.18428 0.64591 0.0
H566 H 0.95708 0.10222 0.64012 0.0
H567 H 0.92141 0.13059 0.6638 0.0
H568 H 0.83957 0.08408 0.45433 0.0
H569 H 0.82199 0.12685 0.47493 0.0
H570 H 0.89729 0.0633 0.45175 0.0
H571 H 0.92619 0.04093 0.48481 0.0
C572 C 0.18107 0.66272 0.14949 0.0
C573 C 0.22026 0.67598 0.12351 0.0
C574 C 0.18113 0.63519 0.05895 0.0
C575 C 0.1429 0.62034 0.08535 0.0
N576 N 0.1094 0.6146 0.15748 0.0
N577 N 0.26085 0.6672 0.0559 0.0
C578 C 0.14402 0.63219 0.13122 0.0
C579 C 0.22115 0.65993 0.0789 0.0
N580 N 0.17784 0.68114 0.19075 0.0
N581 N 0.17903 0.62632 0.01457 0.0
H582 H 0.29098 0.68403 0.06972 0.0
H583 H 0.26493 0.65325 0.02476 0.0
H584 H 0.15107 0.60729 0.99896 0.0
H585 H 0.20366 0.63998 0.99302 0.0
H586 H 0.14825 0.6765 0.20931 0.0
H587 H 0.20365 0.70378 0.20525 0.0
H588 H 0.11039 0.61853 0.19151 0.0
H589 H 0.08087 0.59357 0.14546 0.0
C590 C 0.37166 0.51469 0.69386 0.0
C591 C 0.32932 0.51722 0.67885 0.0
C592 C 0.36988 0.55899 0.62242 0.0
C593 C 0.41084 0.55028 0.63274 0.0
N594 N 0.44657 0.5096 0.67209 0.0
N595 N 0.28913 0.53519 0.62071 0.0
C596 C 0.41079 0.52549 0.66693 0.0
C597 C 0.3286 0.53791 0.6411 0.0
N598 N 0.37508 0.50299 0.73437 0.0
N599 N 0.37025 0.58756 0.59475 0.0
H600 H 0.25839 0.51752 0.63029 0.0
H601 H 0.2877 0.54659 0.59088 0.0
H602 H 0.39981 0.60394 0.58104 0.0
H603 H 0.34195 0.59783 0.58925 0.0
H604 H 0.40589 0.50391 0.74802 0.0
H605 H 0.348 0.49726 0.75627 0.0
H606 H 0.44606 0.48839 0.69402 0.0
H607 H 0.47462 0.51385 0.65138 0.0
C608 C 0.77395 0.67763 0.86937 0.0
C609 C 0.74593 0.69359 0.90075 0.0
C610 C 0.79484 0.68795 0.95964 0.0
C611 C 0.82117 0.66987 0.92854 0.0
N612 N 0.82998 0.63891 0.8557 0.0
N613 N 0.72358 0.70491 0.97622 0.0
C614 C 0.80879 0.66194 0.88398 0.0
C615 C 0.75456 0.69605 0.94609 0.0
N616 N 0.7693 0.67967 0.82568 0.0
N617 N 0.80915 0.69881 1.00173 0.0
H618 H 0.69312 0.70991 0.96744 0.0
H619 H 0.72595 0.70327 1.00965 0.0
H620 H 0.83838 0.69326 1.01304 0.0
H621 H 0.79405 0.71619 0.02451 0.0
H622 H 0.79225 0.67291 0.80198 0.0
H623 H 0.745 0.69158 0.81312 0.0
H624 H 0.81918 0.6285 0.82392 0.0
H625 H 0.85577 0.62699 0.86528 0.0
C626 C 0.45917 0.88411 0.17641 0.0
C627 C 0.4443 0.88142 0.22079 0.0
C628 C 0.4644 0.95643 0.2315 0.0
C629 C 0.47579 0.95902 0.18611 0.0
N630 N 0.47641 0.92339 0.11432 0.0
N631 N 0.42658 0.91603 0.28883 0.0
C632 C 0.47054 0.92224 0.15835 0.0
C633 C 0.44547 0.91794 0.24789 0.0
N634 N 0.465 0.85021 0.15181 0.0
N635 N 0.47172 0.99102 0.25933 0.0
H636 H 0.41279 0.88887 0.30187 0.0
H637 H 0.42139 0.94103 0.3086 0.0
H638 H 0.4816 1.01961 0.24851 0.0
H639 H 0.47007 0.9914 0.29326 0.0
H640 H 0.48056 0.8505 0.12108 0.0
H641 H 0.45875 0.8222 0.16395 0.0
H642 H 0.46798 0.89808 0.09168 0.0
H643 H 0.48607 0.95017 0.10015 0.0
C644 C 0.04517 0.22349 0.66158 0.0
C645 C 0.08158 0.23034 0.69081 0.0
C646 C 0.09692 0.1655 0.66082 0.0
C647 C 0.0582 0.15694 0.63439 0.0
N648 N 1.00524 0.18429 0.59881 0.0
N649 N 0.1408 0.20689 0.72042 0.0
C650 C 0.03522 0.18787 0.63151 0.0
C651 C 0.10701 0.20099 0.69103 0.0
N652 N 0.01802 0.24977 0.66454 0.0
N653 N 0.12675 0.14188 0.65349 0.0
H654 H 0.15157 0.23362 0.74066 0.0
H655 H 0.15659 0.18456 0.7265 0.0
H656 H 0.12344 0.11956 0.62729 0.0
H657 H 0.15757 0.14773 0.66886 0.0
H658 H 0.98744 0.24397 0.6487 0.0
H659 H 0.02405 0.27619 0.68575 0.0
H660 H 0.99185 0.20774 0.59145 0.0
H661 H 0.99643 0.15914 0.57618 0.0
C662 C 0.73236 0.39058 0.5624 0.0
C663 C 0.7469 0.37283 0.52238 0.0
C664 C 0.69022 0.39354 0.48224 0.0
C665 C 0.67755 0.41336 0.52186 0.0
N666 N 0.68684 0.43322 0.59915 0.0
N667 N 0.74127 0.35739 0.44398 0.0
C668 C 0.69865 0.41247 0.56188 0.0
C669 C 0.72621 0.37429 0.48222 0.0
N670 N 0.75058 0.38605 0.60086 0.0
N671 N 0.66722 0.39267 0.44476 0.0
H672 H 0.76483 0.34008 0.44275 0.0
H673 H 0.73191 0.36145 0.41299 0.0
H674 H 0.64235 0.40824 0.44286 0.0
H675 H 0.67076 0.375 0.41585 0.0
H676 H 0.73859 0.39443 0.63168 0.0
H677 H 0.77669 0.3718 0.60222 0.0
H678 H 0.70405 0.43794 0.62845 0.0
H679 H 0.66057 0.44758 0.60044 0.0
loop_
_geom_bond_atom_site_label_1
_geom_bond_atom_site_label_2
_geom_bond_distance
_geom_bond_site_symmetry_2
_ccdc_geom_bond_type
O0 Cd1 2.300 . S
O0 C7 1.275 . S
Cd1 O0 2.300 . S
Cd1 O9 2.381 . S
Cd1 O10 2.378 . S
O2 Cd3 2.385 . S
O2 C7 1.255 . S
Cd3 O2 2.385 . S
Cd3 O4 2.317 . S
O4 Cd3 2.317 . S
O4 C5 1.232 . S
C5 O4 1.232 . S
C5 O6 1.218 . S
O6 C5 1.218 . S
C7 O0 1.275 . S
C7 O2 1.255 . S
C8 O9 1.258 . S
C8 O10 1.256 . S
O9 Cd1 2.381 . S
O9 C8 1.258 . S
O10 Cd1 2.378 . S
O10 C8 1.256 . S
O11 Cd12 2.300 . S
O11 C18 1.275 . S
Cd12 O11 2.300 . S
Cd12 O20 2.381 . S
Cd12 O21 2.378 . S
O13 Cd14 2.385 . S
O13 C18 1.255 . S
Cd14 O13 2.385 . S
Cd14 O15 2.317 . S
O15 Cd14 2.317 . S
O15 C16 1.232 . S
C16 O15 1.232 . S
C16 O17 1.218 . S
O17 C16 1.218 . S
C18 O11 1.275 . S
C18 O13 1.255 . S
C19 O20 1.258 . S
C19 O21 1.256 . S
O20 Cd12 2.381 . S
O20 C19 1.258 . S
O21 Cd12 2.378 . S
O21 C19 1.256 . S
O22 Cd23 2.300 . S
O22 C29 1.275 . S
Cd23 O22 2.300 . S
Cd23 O31 2.381 . S
Cd23 O32 2.378 . S
O24 Cd25 2.385 . S
O24 C29 1.255 . S
Cd25 O24 2.385 . S
Cd25 O26 2.317 . S
O26 Cd25 2.317 . S
O26 C27 1.232 . S
C27 O26 1.232 . S
C27 O28 1.218 . S
O28 C27 1.218 . S
C29 O22 1.275 . S
C29 O24 1.255 . S
C30 O31 1.258 . S
C30 O32 1.256 . S
O31 Cd23 2.381 . S
O31 C30 1.258 . S
O32 Cd23 2.378 . S
O32 C30 1.256 . S
O33 Cd34 2.300 . S
O33 C40 1.275 . S
Cd34 O33 2.300 . S
Cd34 O42 2.381 . S
Cd34 O43 2.378 . S
O35 Cd36 2.385 . S
O35 C40 1.255 . S
Cd36 O35 2.385 . S
Cd36 O37 2.317 . S
O37 Cd36 2.317 . S
O37 C38 1.232 . S
C38 O37 1.232 . S
C38 O39 1.218 . S
O39 C38 1.218 . S
C40 O33 1.275 . S
C40 O35 1.255 . S
C41 O42 1.258 . S
C41 O43 1.256 . S
O42 Cd34 2.381 . S
O42 C41 1.258 . S
O43 Cd34 2.378 . S
O43 C41 1.256 . S
O44 Cd45 2.300 . S
O44 C51 1.275 . S
Cd45 O44 2.300 . S
Cd45 O53 2.381 . S
Cd45 O54 2.378 . S
O46 Cd47 2.385 . S
O46 C51 1.255 . S
Cd47 O46 2.385 . S
Cd47 O48 2.317 . S
O48 Cd47 2.317 . S
O48 C49 1.232 . S
C49 O48 1.232 . S
C49 O50 1.218 . S
O50 C49 1.218 . S
C51 O44 1.275 . S
C51 O46 1.255 . S
C52 O53 1.258 . S
C52 O54 1.256 . S
O53 Cd45 2.381 . S
O53 C52 1.258 . S
O54 Cd45 2.378 . S
O54 C52 1.256 . S
O55 Cd56 2.300 . S
O55 C62 1.275 . S
Cd56 O55 2.300 . S
Cd56 O64 2.381 . S
Cd56 O65 2.378 . S
O57 Cd58 2.385 . S
O57 C62 1.255 . S
Cd58 O57 2.385 . S
Cd58 O59 2.317 . S
O59 Cd58 2.317 . S
O59 C60 1.232 . S
C60 O59 1.232 . S
C60 O61 1.218 . S
O61 C60 1.218 . S
C62 O55 1.275 . S
C62 O57 1.255 . S
C63 O64 1.258 . S
C63 O65 1.256 . S
O64 Cd56 2.381 . S
O64 C63 1.258 . S
O65 Cd56 2.378 . S
O65 C63 1.256 . S
O66 Cd67 2.300 . S
O66 C73 1.275 . S
Cd67 O66 2.300 . S
Cd67 O75 2.381 . S
Cd67 O76 2.378 . S
O68 Cd69 2.385 . S
O68 C73 1.255 . S
Cd69 O68 2.385 . S
Cd69 O70 2.317 . S
O70 Cd69 2.317 . S
O70 C71 1.232 . S
C71 O70 1.232 . S
C71 O72 1.218 . S
O72 C71 1.218 . S
C73 O66 1.275 . S
C73 O68 1.255 . S
C74 O75 1.258 . S
C74 O76 1.256 . S
O75 Cd67 2.381 . S
O75 C74 1.258 . S
O76 Cd67 2.378 . S
O76 C74 1.256 . S
O77 Cd78 2.300 . S
O77 C84 1.275 . S
Cd78 O77 2.300 . S
Cd78 O86 2.381 . S
Cd78 O87 2.378 . S
O79 Cd80 2.385 . S
O79 C84 1.255 . S
Cd80 O79 2.385 . S
Cd80 O81 2.317 . S
O81 Cd80 2.317 . S
O81 C82 1.232 . S
C82 O81 1.232 . S
C82 O83 1.218 . S
O83 C82 1.218 . S
C84 O77 1.275 . S
C84 O79 1.255 . S
C85 O86 1.258 . S
C85 O87 1.256 . S
O86 Cd78 2.381 . S
O86 C85 1.258 . S
O87 Cd78 2.378 . S
O87 C85 1.256 . S
La88 C90 2.928 . S
La88 O108 2.521 . S
La88 O109 2.628 . S
La88 O110 2.554 . S
La88 O111 2.757 1_545 S
La88 O112 2.470 . S
La88 O117 2.482 1_455 S
La88 O119 2.503 1_445 S
La89 C99 2.928 1_545 S
La89 O111 2.482 1_645 S
La89 O113 2.503 1_655 S
La89 O114 2.521 1_545 S
La89 O115 2.628 1_545 S
La89 O116 2.554 . S
La89 O117 2.757 . S
La89 O118 2.470 1_545 S
C90 La88 2.928 . S
C90 C91 1.503 . S
C90 O108 1.261 . S
C90 O109 1.243 . S
C91 C90 1.503 . S
C91 C92 1.394 . S
C91 C96 1.373 . S
C92 C91 1.394 . S
C92 C93 1.380 . S
C92 H120 0.930 . S
C93 C92 1.380 . S
C93 C94 1.376 . S
C93 H121 0.930 . S
C94 C93 1.376 . S
C94 C95 1.370 . S
C95 C94 1.370 . S
C95 C96 1.396 . S
C95 H122 0.929 . S
C96 C91 1.373 . S
C96 C95 1.396 . S
C96 H123 0.929 . S
C97 O110 1.240 1_565 S
C97 O111 1.289 . S
C98 O112 1.258 . S
C98 O113 1.256 . S
C99 La89 2.928 1_565 S
C99 C100 1.503 . S
C99 O114 1.261 . S
C99 O115 1.243 . S
C100 C99 1.503 . S
C100 C101 1.394 . S
C100 C105 1.373 . S
C101 C100 1.394 . S
C101 C102 1.380 . S
C101 H124 0.930 . S
C102 C101 1.380 . S
C102 C103 1.376 . S
C102 H125 0.930 . S
C103 C102 1.376 . S
C103 C104 1.370 . S
C104 C103 1.370 . S
C104 C105 1.396 . S
C104 H126 0.929 . S
C105 C100 1.373 . S
C105 C104 1.396 . S
C105 H127 0.929 . S
C106 O116 1.240 . S
C106 O117 1.289 . S
C107 O118 1.258 . S
C107 O119 1.256 . S
O108 La88 2.521 . S
O108 C90 1.261 . S
O109 La88 2.628 . S
O109 C90 1.243 . S
O110 La88 2.554 . S
O110 C97 1.240 1_545 S
O111 La88 2.757 1_565 S
O111 La89 2.482 1_465 S
O111 C97 1.289 . S
O112 La88 2.470 . S
O112 C98 1.258 . S
O113 La89 2.503 1_455 S
O113 C98 1.256 . S
O114 La89 2.521 1_565 S
O114 C99 1.261 . S
O115 La89 2.628 1_565 S
O115 C99 1.243 . S
O116 La89 2.554 . S
O116 C106 1.240 . S
O117 La88 2.482 1_655 S
O117 La89 2.757 . S
O117 C106 1.289 . S
O118 La89 2.470 1_565 S
O118 C107 1.258 . S
O119 La88 2.503 1_665 S
O119 C107 1.256 . S
H120 C92 0.930 . S
H121 C93 0.930 . S
H122 C95 0.929 . S
H123 C96 0.929 . S
H124 C101 0.930 . S
H125 C102 0.930 . S
H126 C104 0.929 . S
H127 C105 0.929 . S
La128 C130 2.928 . S
La128 O148 2.521 . S
La128 O149 2.628 . S
La128 O150 2.554 1_545 S
La128 O151 2.757 . S
La128 O152 2.470 . S
La128 O157 2.482 . S
La128 O159 2.503 . S
La129 C139 2.928 1_544 S
La129 O151 2.482 . S
La129 O153 2.503 . S
La129 O154 2.521 1_554 S
La129 O155 2.628 1_544 S
La129 O156 2.554 . S
La129 O157 2.757 . S
La129 O158 2.470 1_554 S
C130 La128 2.928 . S
C130 C131 1.503 . S
C130 O148 1.261 . S
C130 O149 1.243 . S
C131 C130 1.503 . S
C131 C132 1.394 . S
C131 C136 1.373 . S
C132 C131 1.394 . S
C132 C133 1.380 . S
C132 H160 0.930 . S
C133 C132 1.380 . S
C133 C134 1.376 . S
C133 H161 0.930 . S
C134 C133 1.376 . S
C134 C135 1.370 . S
C135 C134 1.370 . S
C135 C136 1.396 . S
C135 H162 0.929 . S
C136 C131 1.373 . S
C136 C135 1.396 . S
C136 H163 0.929 . S
C137 O150 1.240 . S
C137 O151 1.289 1_565 S
C138 O152 1.258 . S
C138 O153 1.256 . S
C139 La129 2.928 1_566 S
C139 C140 1.503 . S
C139 O154 1.261 1_565 S
C139 O155 1.243 . S
C140 C139 1.503 . S
C140 C141 1.394 . S
C140 C145 1.373 . S
C141 C140 1.394 . S
C141 C142 1.380 . S
C141 H164 0.930 1_565 S
C142 C141 1.380 . S
C142 C143 1.376 . S
C142 H165 0.930 . S
C143 C142 1.376 . S
C143 C144 1.370 . S
C144 C143 1.370 . S
C144 C145 1.396 . S
C144 H166 0.929 . S
C145 C140 1.373 . S
C145 C144 1.396 . S
C145 H167 0.929 . S
C146 O156 1.240 . S
C146 O157 1.289 . S
C147 O158 1.258 1_554 S
C147 O159 1.256 . S
O148 La128 2.521 . S
O148 C130 1.261 . S
O149 La128 2.628 . S
O149 C130 1.243 . S
O150 La128 2.554 1_565 S
O150 C137 1.240 . S
O151 La128 2.757 . S
O151 La129 2.482 . S
O151 C137 1.289 1_545 S
O152 La128 2.470 . S
O152 C138 1.258 . S
O153 La129 2.503 . S
O153 C138 1.256 . S
O154 La129 2.521 1_556 S
O154 C139 1.261 1_545 S
O155 La129 2.628 1_566 S
O155 C139 1.243 . S
O156 La129 2.554 . S
O156 C146 1.240 . S
O157 La128 2.482 . S
O157 La129 2.757 . S
O157 C146 1.289 . S
O158 La129 2.470 1_556 S
O158 C147 1.258 1_556 S
O159 La128 2.503 . S
O159 C147 1.256 . S
H160 C132 0.930 . S
H161 C133 0.930 . S
H162 C135 0.929 . S
H163 C136 0.929 . S
H164 C141 0.930 1_545 S
H165 C142 0.930 . S
H166 C144 0.929 . S
H167 C145 0.929 . S
La168 C170 2.928 . S
La168 O188 2.521 . S
La168 O189 2.628 . S
La168 O190 2.554 . S
La168 O191 2.757 . S
La168 O192 2.470 . S
La168 O197 2.482 . S
La168 O199 2.503 . S
La169 C179 2.928 . S
La169 O191 2.482 . S
La169 O193 2.503 . S
La169 O194 2.521 . S
La169 O195 2.628 . S
La169 O196 2.554 . S
La169 O197 2.757 . S
La169 O198 2.470 . S
C170 La168 2.928 . S
C170 C171 1.503 . S
C170 O188 1.261 . S
C170 O189 1.243 . S
C171 C170 1.503 . S
C171 C172 1.394 . S
C171 C176 1.373 . S
C172 C171 1.394 . S
C172 C173 1.380 . S
C172 H200 0.930 . S
C173 C172 1.380 . S
C173 C174 1.376 . S
C173 H201 0.930 . S
C174 C173 1.376 . S
C174 C175 1.370 . S
C175 C174 1.370 . S
C175 C176 1.396 . S
C175 H202 0.929 . S
C176 C171 1.373 . S
C176 C175 1.396 . S
C176 H203 0.929 . S
C177 O190 1.240 . S
C177 O191 1.289 . S
C178 O192 1.258 . S
C178 O193 1.256 . S
C179 La169 2.928 . S
C179 C180 1.503 . S
C179 O194 1.261 . S
C179 O195 1.243 . S
C180 C179 1.503 . S
C180 C181 1.394 . S
C180 C185 1.373 . S
C181 C180 1.394 . S
C181 C182 1.380 . S
C181 H204 0.930 . S
C182 C181 1.380 . S
C182 C183 1.376 . S
C182 H205 0.930 . S
C183 C182 1.376 . S
C183 C184 1.370 . S
C184 C183 1.370 . S
C184 C185 1.396 . S
C184 H206 0.929 . S
C185 C180 1.373 . S
C185 C184 1.396 . S
C185 H207 0.929 . S
C186 O196 1.240 . S
C186 O197 1.289 . S
C187 O198 1.258 . S
C187 O199 1.256 . S
O188 La168 2.521 . S
O188 C170 1.261 . S
O189 La168 2.628 . S
O189 C170 1.243 . S
O190 La168 2.554 . S
O190 C177 1.240 . S
O191 La168 2.757 . S
O191 La169 2.482 . S
O191 C177 1.289 . S
O192 La168 2.470 . S
O192 C178 1.258 . S
O193 La169 2.503 . S
O193 C178 1.256 . S
O194 La169 2.521 . S
O194 C179 1.261 . S
O195 La169 2.628 . S
O195 C179 1.243 . S
O196 La169 2.554 . S
O196 C186 1.240 . S
O197 La168 2.482 . S
O197 La169 2.757 . S
O197 C186 1.289 . S
O198 La169 2.470 . S
O198 C187 1.258 . S
O199 La168 2.503 . S
O199 C187 1.256 . S
H200 C172 0.930 . S
H201 C173 0.930 . S
H202 C175 0.929 . S
H203 C176 0.929 . S
H204 C181 0.930 . S
H205 C182 0.930 . S
H206 C184 0.929 . S
H207 C185 0.929 . S
La208 C210 2.928 . S
La208 O228 2.521 . S
La208 O229 2.628 . S
La208 O230 2.554 1_455 S
La208 O231 2.757 1_455 S
La208 O232 2.470 . S
La208 O237 2.482 1_554 S
La208 O239 2.503 1_455 S
La209 C219 2.928 1_455 S
La209 O231 2.482 1_456 S
La209 O233 2.503 1_556 S
La209 O234 2.521 1_455 S
La209 O235 2.628 1_455 S
La209 O236 2.554 . S
La209 O237 2.757 . S
La209 O238 2.470 1_455 S
C210 La208 2.928 . S
C210 C211 1.503 . S
C210 O228 1.261 . S
C210 O229 1.243 . S
C211 C210 1.503 . S
C211 C212 1.394 . S
C211 C216 1.373 . S
C212 C211 1.394 . S
C212 C213 1.380 . S
C212 H240 0.930 . S
C213 C212 1.380 . S
C213 C214 1.376 . S
C213 H241 0.930 . S
C214 C213 1.376 . S
C214 C215 1.370 . S
C215 C214 1.370 . S
C215 C216 1.396 . S
C215 H242 0.929 . S
C216 C211 1.373 . S
C216 C215 1.396 . S
C216 H243 0.929 . S
C217 O230 1.240 . S
C217 O231 1.289 . S
C218 O232 1.258 . S
C218 O233 1.256 . S
C219 La209 2.928 1_655 S
C219 C220 1.503 . S
C219 O234 1.261 . S
C219 O235 1.243 . S
C220 C219 1.503 . S
C220 C221 1.394 . S
C220 C225 1.373 . S
C221 C220 1.394 . S
C221 C222 1.380 . S
C221 H244 0.930 . S
C222 C221 1.380 . S
C222 C223 1.376 . S
C222 H245 0.930 . S
C223 C222 1.376 . S
C223 C224 1.370 . S
C224 C223 1.370 . S
C224 C225 1.396 . S
C224 H246 0.929 . S
C225 C220 1.373 . S
C225 C224 1.396 . S
C225 H247 0.929 . S
C226 O236 1.240 . S
C226 O237 1.289 . S
C227 O238 1.258 . S
C227 O239 1.256 1_556 S
O228 La208 2.521 . S
O228 C210 1.261 . S
O229 La208 2.628 . S
O229 C210 1.243 . S
O230 La208 2.554 1_655 S
O230 C217 1.240 . S
O231 La208 2.757 1_655 S
O231 La209 2.482 1_654 S
O231 C217 1.289 . S
O232 La208 2.470 . S
O232 C218 1.258 . S
O233 La209 2.503 1_554 S
O233 C218 1.256 . S
O234 La209 2.521 1_655 S
O234 C219 1.261 . S
O235 La209 2.628 1_655 S
O235 C219 1.243 . S
O236 La209 2.554 . S
O236 C226 1.240 . S
O237 La208 2.482 1_556 S
O237 La209 2.757 . S
O237 C226 1.289 . S
O238 La209 2.470 1_655 S
O238 C227 1.258 . S
O239 La208 2.503 1_655 S
O239 C227 1.256 1_554 S
H240 C212 0.930 . S
H241 C213 0.930 . S
H242 C215 0.929 . S
H243 C216 0.929 . S
H244 C221 0.930 . S
H245 C222 0.930 . S
H246 C224 0.929 . S
H247 C225 0.929 . S
C248 C249 1.363 . S
C248 C254 1.379 . S
C248 N256 1.356 . S
C249 C248 1.363 . S
C249 C255 1.363 . S
C250 C251 1.363 . S
C250 C255 1.379 . S
C250 N257 1.356 . S
C251 C250 1.363 . S
C251 C254 1.363 . S
N252 C254 1.356 . S
N252 H264 0.984 . S
N252 H265 0.985 . S
N253 C255 1.356 . S
N253 H258 0.984 . S
N253 H259 0.985 . S
C254 C248 1.379 . S
C254 C251 1.363 . S
C254 N252 1.356 . S
C255 C249 1.363 . S
C255 C250 1.379 . S
C255 N253 1.356 . S
N256 C248 1.356 . S
N256 H262 0.984 . S
N256 H263 0.984 . S
N257 C250 1.356 . S
N257 H260 0.984 . S
N257 H261 0.985 . S
H258 N253 0.984 . S
H259 N253 0.985 . S
H260 N257 0.984 . S
H261 N257 0.985 . S
H262 N256 0.984 . S
H263 N256 0.984 . S
H264 N252 0.984 . S
H265 N252 0.985 . S
C266 C267 1.363 . S
C266 C272 1.379 . S
C266 N274 1.356 . S
C267 C266 1.363 . S
C267 C273 1.363 . S
C268 C269 1.363 . S
C268 C273 1.379 . S
C268 N275 1.356 . S
C269 C268 1.363 . S
C269 C272 1.363 . S
N270 C272 1.356 . S
N270 H282 0.984 . S
N270 H283 0.985 . S
N271 C273 1.356 . S
N271 H276 0.984 . S
N271 H277 0.985 . S
C272 C266 1.379 . S
C272 C269 1.363 . S
C272 N270 1.356 . S
C273 C267 1.363 . S
C273 C268 1.379 . S
C273 N271 1.356 . S
N274 C266 1.356 . S
N274 H280 0.984 1_565 S
N274 H281 0.984 . S
N275 C268 1.356 . S
N275 H278 0.984 . S
N275 H279 0.985 . S
H276 N271 0.984 . S
H277 N271 0.985 . S
H278 N275 0.984 . S
H279 N275 0.985 . S
H280 N274 0.984 1_545 S
H281 N274 0.984 . S
H282 N270 0.984 . S
H283 N270 0.985 . S
C284 C285 1.363 . S
C284 C290 1.379 . S
C284 N292 1.356 . S
C285 C284 1.363 . S
C285 C291 1.363 . S
C286 C287 1.363 . S
C286 C291 1.379 . S
C286 N293 1.356 . S
C287 C286 1.363 . S
C287 C290 1.363 . S
N288 C290 1.356 . S
N288 H300 0.984 . S
N288 H301 0.985 . S
N289 C291 1.356 . S
N289 H294 0.984 . S
N289 H295 0.985 . S
C290 C284 1.379 . S
C290 C287 1.363 . S
C290 N288 1.356 . S
C291 C285 1.363 . S
C291 C286 1.379 . S
C291 N289 1.356 . S
N292 C284 1.356 . S
N292 H298 0.984 . S
N292 H299 0.984 . S
N293 C286 1.356 . S
N293 H296 0.984 . S
N293 H297 0.985 . S
H294 N289 0.984 . S
H295 N289 0.985 . S
H296 N293 0.984 . S
H297 N293 0.985 . S
H298 N292 0.984 . S
H299 N292 0.984 . S
H300 N288 0.984 . S
H301 N288 0.985 . S
C302 C303 1.363 . S
C302 C308 1.387 . S
C302 N310 1.356 1_655 S
C303 C302 1.363 . S
C303 C309 1.363 . S
C304 C305 1.363 . S
C304 C309 1.379 . S
C304 N311 1.356 . S
C305 C304 1.363 . S
C305 C308 1.377 . S
N306 C308 1.336 1_455 S
N306 H318 0.984 . S
N306 H319 0.985 . S
N307 C309 1.356 . S
N307 H312 0.984 . S
N307 H313 0.985 . S
C308 C302 1.387 . S
C308 C305 1.377 . S
C308 N306 1.336 1_655 S
C309 C303 1.363 . S
C309 C304 1.379 . S
C309 N307 1.356 . S
N310 C302 1.356 1_455 S
N310 H316 0.984 . S
N310 H317 0.984 1_455 S
N311 C304 1.356 . S
N311 H314 0.984 . S
N311 H315 0.985 . S
H312 N307 0.984 . S
H313 N307 0.985 . S
H314 N311 0.984 . S
H315 N311 0.985 . S
H316 N310 0.984 . S
H317 N310 0.984 1_655 S
H318 N306 0.984 . S
H319 N306 0.985 . S
C320 C321 1.363 . S
C320 C326 1.379 . S
C320 N328 1.356 . S
C321 C320 1.363 . S
C321 C327 1.363 . S
C322 C323 1.363 . S
C322 C327 1.379 . S
C322 N329 1.356 . S
C323 C322 1.363 . S
C323 C326 1.363 . S
N324 C326 1.356 . S
N324 H336 0.984 . S
N324 H337 0.985 . S
N325 C327 1.356 . S
N325 H330 0.984 . S
N325 H331 0.985 . S
C326 C320 1.379 . S
C326 C323 1.363 . S
C326 N324 1.356 . S
C327 C321 1.363 . S
C327 C322 1.379 . S
C327 N325 1.356 . S
N328 C320 1.356 . S
N328 H334 0.984 . S
N328 H335 0.984 . S
N329 C322 1.356 . S
N329 H332 0.984 . S
N329 H333 0.985 . S
H330 N325 0.984 . S
H331 N325 0.985 . S
H332 N329 0.984 . S
H333 N329 0.985 . S
H334 N328 0.984 . S
H335 N328 0.984 . S
H336 N324 0.984 . S
H337 N324 0.985 . S
C338 C339 1.363 . S
C338 C344 1.379 . S
C338 N346 1.356 . S
C339 C338 1.363 . S
C339 C345 1.363 . S
C340 C341 1.363 . S
C340 C345 1.379 . S
C340 N347 1.356 1_565 S
C341 C340 1.363 . S
C341 C344 1.363 . S
N342 C344 1.356 . S
N342 H354 0.984 . S
N342 H355 0.985 . S
N343 C345 1.356 . S
N343 H348 0.984 . S
N343 H349 0.985 . S
C344 C338 1.379 . S
C344 C341 1.363 . S
C344 N342 1.356 . S
C345 C339 1.363 . S
C345 C340 1.379 . S
C345 N343 1.356 . S
N346 C338 1.356 . S
N346 H352 0.984 . S
N346 H353 0.984 . S
N347 C340 1.356 1_545 S
N347 H350 0.984 . S
N347 H351 0.985 . S
H348 N343 0.984 . S
H349 N343 0.985 . S
H350 N347 0.984 . S
H351 N347 0.985 . S
H352 N346 0.984 . S
H353 N346 0.984 . S
H354 N342 0.984 . S
H355 N342 0.985 . S
C356 C357 1.363 . S
C356 C362 1.379 . S
C356 N364 1.356 . S
C357 C356 1.363 . S
C357 C363 1.363 . S
C358 C359 1.363 . S
C358 C363 1.379 . S
C358 N365 1.356 . S
C359 C358 1.363 . S
C359 C362 1.363 . S
N360 C362 1.356 1_554 S
N360 H372 0.984 . S
N360 H373 0.985 . S
N361 C363 1.356 . S
N361 H366 0.984 . S
N361 H367 0.985 . S
C362 C356 1.379 . S
C362 C359 1.363 . S
C362 N360 1.356 1_556 S
C363 C357 1.363 . S
C363 C358 1.379 . S
C363 N361 1.356 . S
N364 C356 1.356 . S
N364 H370 0.984 . S
N364 H371 0.984 . S
N365 C358 1.356 . S
N365 H368 0.984 . S
N365 H369 0.985 . S
H366 N361 0.984 . S
H367 N361 0.985 . S
H368 N365 0.984 . S
H369 N365 0.985 . S
H370 N364 0.984 . S
H371 N364 0.984 . S
H372 N360 0.984 . S
H373 N360 0.985 . S
C374 C375 1.363 . S
C374 C380 1.379 . S
C374 N382 1.356 . S
C375 C374 1.363 . S
C375 C381 1.363 . S
C376 C377 1.363 . S
C376 C381 1.379 . S
C376 N383 1.356 . S
C377 C376 1.363 . S
C377 C380 1.363 . S
N378 C380 1.356 . S
N378 H390 0.984 . S
N378 H391 0.985 . S
N379 C381 1.356 . S
N379 H384 0.984 . S
N379 H385 0.985 . S
C380 C374 1.379 . S
C380 C377 1.363 . S
C380 N378 1.356 . S
C381 C375 1.363 . S
C381 C376 1.379 . S
C381 N379 1.356 . S
N382 C374 1.356 . S
N382 H388 0.984 . S
N382 H389 0.984 . S
N383 C376 1.356 . S
N383 H386 0.984 . S
N383 H387 0.985 . S
H384 N379 0.984 . S
H385 N379 0.985 . S
H386 N383 0.984 . S
H387 N383 0.985 . S
H388 N382 0.984 . S
H389 N382 0.984 . S
H390 N378 0.984 . S
H391 N378 0.985 . S
C392 C393 1.363 . S
C392 C398 1.379 . S
C392 N400 1.356 . S
C393 C392 1.363 . S
C393 C399 1.363 . S
C394 C395 1.363 . S
C394 C399 1.379 . S
C394 N401 1.356 . S
C395 C394 1.363 . S
C395 C398 1.363 . S
N396 C398 1.356 . S
N396 H408 0.984 . S
N396 H409 0.985 . S
N397 C399 1.356 . S
N397 H402 0.984 . S
N397 H403 0.985 . S
C398 C392 1.379 . S
C398 C395 1.363 . S
C398 N396 1.356 . S
C399 C393 1.363 . S
C399 C394 1.379 . S
C399 N397 1.356 . S
N400 C392 1.356 . S
N400 H406 0.984 . S
N400 H407 0.984 . S
N401 C394 1.356 . S
N401 H404 0.984 . S
N401 H405 0.985 . S
H402 N397 0.984 . S
H403 N397 0.985 . S
H404 N401 0.984 . S
H405 N401 0.985 . S
H406 N400 0.984 . S
H407 N400 0.984 . S
H408 N396 0.984 . S
H409 N396 0.985 . S
C410 C411 1.363 . S
C410 C416 1.379 1_556 S
C410 N418 1.356 . S
C411 C410 1.363 . S
C411 C417 1.363 . S
C412 C413 1.350 1_556 S
C412 C417 1.379 . S
C412 N419 1.356 . S
C413 C412 1.350 1_554 S
C413 C416 1.365 . S
N414 C416 1.356 . S
N414 H426 0.984 . S
N414 H427 0.985 . S
N415 C417 1.356 . S
N415 H420 0.984 . S
N415 H421 0.985 . S
C416 C410 1.379 1_554 S
C416 C413 1.365 . S
C416 N414 1.356 . S
C417 C411 1.363 . S
C417 C412 1.379 . S
C417 N415 1.356 . S
N418 C410 1.356 . S
N418 H424 0.984 1_556 S
N418 H425 0.984 . S
N419 C412 1.356 . S
N419 H422 0.984 . S
N419 H423 0.985 . S
H420 N415 0.984 . S
H421 N415 0.985 . S
H422 N419 0.984 . S
H423 N419 0.985 . S
H424 N418 0.984 1_554 S
H425 N418 0.984 . S
H426 N414 0.984 . S
H427 N414 0.985 . S
C428 C429 1.363 . S
C428 C434 1.379 . S
C428 N436 1.356 . S
C429 C428 1.363 . S
C429 C435 1.363 . S
C430 C431 1.363 . S
C430 C435 1.379 . S
C430 N437 1.356 . S
C431 C430 1.363 . S
C431 C434 1.363 . S
N432 C434 1.356 . S
N432 H444 0.984 . S
N432 H445 0.985 . S
N433 C435 1.356 . S
N433 H438 0.984 . S
N433 H439 0.985 . S
C434 C428 1.379 . S
C434 C431 1.363 . S
C434 N432 1.356 . S
C435 C429 1.363 . S
C435 C430 1.379 . S
C435 N433 1.356 . S
N436 C428 1.356 . S
N436 H442 0.984 . S
N436 H443 0.984 . S
N437 C430 1.356 . S
N437 H440 0.984 . S
N437 H441 0.985 . S
H438 N433 0.984 . S
H439 N433 0.985 . S
H440 N437 0.984 . S
H441 N437 0.985 . S
H442 N436 0.984 . S
H443 N436 0.984 . S
H444 N432 0.984 . S
H445 N432 0.985 . S
C446 C447 1.363 . S
C446 C452 1.379 . S
C446 N454 1.356 . S
C447 C446 1.363 . S
C447 C453 1.363 . S
C448 C449 1.363 . S
C448 C453 1.379 . S
C448 N455 1.356 . S
C449 C448 1.363 . S
C449 C452 1.363 . S
N450 C452 1.356 . S
N450 H462 0.984 . S
N450 H463 0.985 . S
N451 C453 1.356 . S
N451 H456 0.984 . S
N451 H457 0.985 . S
C452 C446 1.379 . S
C452 C449 1.363 . S
C452 N450 1.356 . S
C453 C447 1.363 . S
C453 C448 1.379 . S
C453 N451 1.356 . S
N454 C446 1.356 . S
N454 H460 0.984 . S
N454 H461 0.984 . S
N455 C448 1.356 . S
N455 H458 0.984 . S
N455 H459 0.985 . S
H456 N451 0.984 . S
H457 N451 0.985 . S
H458 N455 0.984 . S
H459 N455 0.985 . S
H460 N454 0.984 . S
H461 N454 0.984 . S
H462 N450 0.984 . S
H463 N450 0.985 . S
C464 C465 1.363 . S
C464 C470 1.379 . S
C464 N472 1.356 . S
C465 C464 1.363 . S
C465 C471 1.363 . S
C466 C467 1.363 . S
C466 C471 1.379 . S
C466 N473 1.356 . S
C467 C466 1.363 . S
C467 C470 1.363 . S
N468 C470 1.356 . S
N468 H480 0.984 . S
N468 H481 0.985 . S
N469 C471 1.356 . S
N469 H474 0.984 . S
N469 H475 0.985 . S
C470 C464 1.379 . S
C470 C467 1.363 . S
C470 N468 1.356 . S
C471 C465 1.363 . S
C471 C466 1.379 . S
C471 N469 1.356 . S
N472 C464 1.356 . S
N472 H478 0.984 . S
N472 H479 0.984 . S
N473 C466 1.356 . S
N473 H476 0.984 . S
N473 H477 0.985 . S
H474 N469 0.984 . S
H475 N469 0.985 . S
H476 N473 0.984 . S
H477 N473 0.985 . S
H478 N472 0.984 . S
H479 N472 0.984 . S
H480 N468 0.984 . S
H481 N468 0.985 . S
C482 C483 1.363 . S
C482 C488 1.379 . S
C482 N490 1.356 . S
C483 C482 1.363 . S
C483 C489 1.363 . S
C484 C485 1.363 . S
C484 C489 1.379 . S
C484 N491 1.356 . S
C485 C484 1.363 . S
C485 C488 1.363 . S
N486 C488 1.356 . S
N486 H498 0.984 . S
N486 H499 0.985 . S
N487 C489 1.356 . S
N487 H492 0.984 . S
N487 H493 0.985 . S
C488 C482 1.379 . S
C488 C485 1.363 . S
C488 N486 1.356 . S
C489 C483 1.363 . S
C489 C484 1.379 . S
C489 N487 1.356 . S
N490 C482 1.356 . S
N490 H496 0.984 . S
N490 H497 0.984 . S
N491 C484 1.356 . S
N491 H494 0.984 . S
N491 H495 0.985 . S
H492 N487 0.984 . S
H493 N487 0.985 . S
H494 N491 0.984 . S
H495 N491 0.985 . S
H496 N490 0.984 . S
H497 N490 0.984 . S
H498 N486 0.984 . S
H499 N486 0.985 . S
C500 C501 1.363 . S
C500 C506 1.379 . S
C500 N508 1.356 . S
C501 C500 1.363 . S
C501 C507 1.363 . S
C502 C503 1.363 . S
C502 C507 1.379 . S
C502 N509 1.356 . S
C503 C502 1.363 . S
C503 C506 1.363 . S
N504 C506 1.356 . S
N504 H516 0.984 . S
N504 H517 0.985 . S
N505 C507 1.356 . S
N505 H510 0.984 . S
N505 H511 0.985 . S
C506 C500 1.379 . S
C506 C503 1.363 . S
C506 N504 1.356 . S
C507 C501 1.363 . S
C507 C502 1.379 . S
C507 N505 1.356 . S
N508 C500 1.356 . S
N508 H514 0.984 . S
N508 H515 0.984 . S
N509 C502 1.356 . S
N509 H512 0.984 . S
N509 H513 0.985 . S
H510 N505 0.984 . S
H511 N505 0.985 . S
H512 N509 0.984 . S
H513 N509 0.985 . S
H514 N508 0.984 . S
H515 N508 0.984 . S
H516 N504 0.984 . S
H517 N504 0.985 . S
C518 C519 1.363 . S
C518 C524 1.379 . S
C518 N526 1.356 . S
C519 C518 1.363 . S
C519 C525 1.363 . S
C520 C521 1.363 . S
C520 C525 1.379 . S
C520 N527 1.356 . S
C521 C520 1.363 . S
C521 C524 1.363 . S
N522 C524 1.356 . S
N522 H534 0.984 . S
N522 H535 0.985 . S
N523 C525 1.356 . S
N523 H528 0.984 . S
N523 H529 0.985 . S
C524 C518 1.379 . S
C524 C521 1.363 . S
C524 N522 1.356 . S
C525 C519 1.363 . S
C525 C520 1.379 . S
C525 N523 1.356 . S
N526 C518 1.356 . S
N526 H532 0.984 . S
N526 H533 0.984 . S
N527 C520 1.356 . S
N527 H530 0.984 . S
N527 H531 0.985 1_455 S
H528 N523 0.984 . S
H529 N523 0.985 . S
H530 N527 0.984 . S
H531 N527 0.985 1_655 S
H532 N526 0.984 . S
H533 N526 0.984 . S
H534 N522 0.984 . S
H535 N522 0.985 . S
C536 C537 1.363 . S
C536 C542 1.379 . S
C536 N544 1.356 . S
C537 C536 1.363 . S
C537 C543 1.363 . S
C538 C539 1.363 . S
C538 C543 1.379 . S
C538 N545 1.356 1_556 S
C539 C538 1.363 . S
C539 C542 1.363 . S
N540 C542 1.356 . S
N540 H552 0.984 . S
N540 H553 0.985 . S
N541 C543 1.356 . S
N541 H546 0.984 . S
N541 H547 0.985 . S
C542 C536 1.379 . S
C542 C539 1.363 . S
C542 N540 1.356 . S
C543 C537 1.363 . S
C543 C538 1.379 . S
C543 N541 1.356 . S
N544 C536 1.356 . S
N544 H550 0.984 . S
N544 H551 0.984 . S
N545 C538 1.356 1_554 S
N545 H548 0.984 . S
N545 H549 0.985 . S
H546 N541 0.984 . S
H547 N541 0.985 . S
H548 N545 0.984 . S
H549 N545 0.985 . S
H550 N544 0.984 . S
H551 N544 0.984 . S
H552 N540 0.984 . S
H553 N540 0.985 . S
C554 C555 1.363 . S
C554 C560 1.379 . S
C554 N562 1.356 . S
C555 C554 1.363 . S
C555 C561 1.363 . S
C556 C557 1.363 . S
C556 C561 1.379 . S
C556 N563 1.356 . S
C557 C556 1.363 . S
C557 C560 1.363 . S
N558 C560 1.356 . S
N558 H570 0.984 . S
N558 H571 0.985 . S
N559 C561 1.356 . S
N559 H564 0.984 . S
N559 H565 0.985 . S
C560 C554 1.379 . S
C560 C557 1.363 . S
C560 N558 1.356 . S
C561 C555 1.363 . S
C561 C556 1.379 . S
C561 N559 1.356 . S
N562 C554 1.356 . S
N562 H568 0.984 . S
N562 H569 0.984 . S
N563 C556 1.356 . S
N563 H566 0.984 . S
N563 H567 0.985 . S
H564 N559 0.984 . S
H565 N559 0.985 . S
H566 N563 0.984 . S
H567 N563 0.985 . S
H568 N562 0.984 . S
H569 N562 0.984 . S
H570 N558 0.984 . S
H571 N558 0.985 . S
C572 C573 1.363 . S
C572 C578 1.379 . S
C572 N580 1.356 . S
C573 C572 1.363 . S
C573 C579 1.363 . S
C574 C575 1.363 . S
C574 C579 1.379 . S
C574 N581 1.356 . S
C575 C574 1.363 . S
C575 C578 1.363 . S
N576 C578 1.356 . S
N576 H588 0.984 . S
N576 H589 0.985 . S
N577 C579 1.356 . S
N577 H582 0.984 . S
N577 H583 0.985 . S
C578 C572 1.379 . S
C578 C575 1.363 . S
C578 N576 1.356 . S
C579 C573 1.363 . S
C579 C574 1.379 . S
C579 N577 1.356 . S
N580 C572 1.356 . S
N580 H586 0.984 . S
N580 H587 0.984 . S
N581 C574 1.356 . S
N581 H584 0.984 . S
N581 H585 0.976 1_554 S
H582 N577 0.984 . S
H583 N577 0.985 . S
H584 N581 0.984 . S
H585 N581 0.976 1_556 S
H586 N580 0.984 . S
H587 N580 0.984 . S
H588 N576 0.984 . S
H589 N576 0.985 . S
C590 C591 1.363 . S
C590 C596 1.379 . S
C590 N598 1.356 . S
C591 C590 1.363 . S
C591 C597 1.363 . S
C592 C593 1.363 . S
C592 C597 1.379 . S
C592 N599 1.356 . S
C593 C592 1.363 . S
C593 C596 1.363 . S
N594 C596 1.356 . S
N594 H606 0.984 . S
N594 H607 0.985 . S
N595 C597 1.356 . S
N595 H600 0.984 . S
N595 H601 0.985 . S
C596 C590 1.379 . S
C596 C593 1.363 . S
C596 N594 1.356 . S
C597 C591 1.363 . S
C597 C592 1.379 . S
C597 N595 1.356 . S
N598 C590 1.356 . S
N598 H604 0.984 . S
N598 H605 0.984 . S
N599 C592 1.356 . S
N599 H602 0.984 . S
N599 H603 0.985 . S
H600 N595 0.984 . S
H601 N595 0.985 . S
H602 N599 0.984 . S
H603 N599 0.985 . S
H604 N598 0.984 . S
H605 N598 0.984 . S
H606 N594 0.984 . S
H607 N594 0.985 . S
C608 C609 1.363 . S
C608 C614 1.379 . S
C608 N616 1.356 . S
C609 C608 1.363 . S
C609 C615 1.363 . S
C610 C611 1.363 . S
C610 C615 1.379 . S
C610 N617 1.356 . S
C611 C610 1.363 . S
C611 C614 1.363 . S
N612 C614 1.356 . S
N612 H624 0.984 . S
N612 H625 0.985 . S
N613 C615 1.356 . S
N613 H618 0.984 . S
N613 H619 0.985 . S
C614 C608 1.379 . S
C614 C611 1.363 . S
C614 N612 1.356 . S
C615 C609 1.363 . S
C615 C610 1.379 . S
C615 N613 1.356 . S
N616 C608 1.356 . S
N616 H622 0.984 . S
N616 H623 0.984 . S
N617 C610 1.356 . S
N617 H620 0.984 . S
N617 H621 0.985 . S
H618 N613 0.984 . S
H619 N613 0.985 . S
H620 N617 0.984 . S
H621 N617 0.985 . S
H622 N616 0.984 . S
H623 N616 0.984 . S
H624 N612 0.984 . S
H625 N612 0.985 . S
C626 C627 1.363 . S
C626 C632 1.379 . S
C626 N634 1.356 . S
C627 C626 1.363 . S
C627 C633 1.363 . S
C628 C629 1.363 . S
C628 C633 1.379 . S
C628 N635 1.356 . S
C629 C628 1.363 . S
C629 C632 1.363 . S
N630 C632 1.356 . S
N630 H642 0.984 . S
N630 H643 0.985 . S
N631 C633 1.356 . S
N631 H636 0.984 . S
N631 H637 0.985 . S
C632 C626 1.379 . S
C632 C629 1.363 . S
C632 N630 1.356 . S
C633 C627 1.363 . S
C633 C628 1.379 . S
C633 N631 1.356 . S
N634 C626 1.356 . S
N634 H640 0.984 . S
N634 H641 0.984 . S
N635 C628 1.356 . S
N635 H638 0.984 . S
N635 H639 0.985 . S
H636 N631 0.984 . S
H637 N631 0.985 . S
H638 N635 0.984 . S
H639 N635 0.985 . S
H640 N634 0.984 . S
H641 N634 0.984 . S
H642 N630 0.984 . S
H643 N630 0.985 . S
C644 C645 1.363 . S
C644 C650 1.379 . S
C644 N652 1.356 . S
C645 C644 1.363 . S
C645 C651 1.363 . S
C646 C647 1.363 . S
C646 C651 1.379 . S
C646 N653 1.356 . S
C647 C646 1.363 . S
C647 C650 1.363 . S
N648 C650 1.356 . S
N648 H660 0.984 . S
N648 H661 0.985 . S
N649 C651 1.356 . S
N649 H654 0.984 . S
N649 H655 0.985 . S
C650 C644 1.379 . S
C650 C647 1.363 . S
C650 N648 1.356 . S
C651 C645 1.363 . S
C651 C646 1.379 . S
C651 N649 1.356 . S
N652 C644 1.356 . S
N652 H658 0.984 . S
N652 H659 0.984 . S
N653 C646 1.356 . S
N653 H656 0.984 . S
N653 H657 0.985 . S
H654 N649 0.984 . S
H655 N649 0.985 . S
H656 N653 0.984 . S
H657 N653 0.985 . S
H658 N652 0.984 . S
H659 N652 0.984 . S
H660 N648 0.984 . S
H661 N648 0.985 . S
C662 C663 1.363 . S
C662 C668 1.379 . S
C662 N670 1.356 . S
C663 C662 1.363 . S
C663 C669 1.363 . S
C664 C665 1.363 . S
C664 C669 1.379 . S
C664 N671 1.356 . S
C665 C664 1.363 . S
C665 C668 1.363 . S
N666 C668 1.356 . S
N666 H678 0.984 . S
N666 H679 0.985 . S
N667 C669 1.356 . S
N667 H672 0.984 . S
N667 H673 0.985 . S
C668 C662 1.379 . S
C668 C665 1.363 . S
C668 N666 1.356 . S
C669 C663 1.363 . S
C669 C664 1.379 . S
C669 N667 1.356 . S
N670 C662 1.356 . S
N670 H676 0.984 . S
N670 H677 0.984 . S
N671 C664 1.356 . S
N671 H674 0.984 . S
N671 H675 0.985 . S
H672 N667 0.984 . S
H673 N667 0.985 . S
H674 N671 0.984 . S
H675 N671 0.985 . S
H676 N670 0.984 . S
H677 N670 0.984 . S
H678 N666 0.984 . S
H679 N666 0.985 . S
C249 C5 0.993 . S
C251 C94 1.237 . S
C267 C18 1.030 . S
C269 C143 1.168 . S
C287 C178 2.385 . S
C285 C30 2.443 . S
C303 C41 2.234 . S
C305 C217 2.190 . S
C323 C138 2.287 . S
C321 C7 2.018 . S
C341 C97 0.819 . S
C339 C16 0.795 . S
C359 C227 2.000 . S
C357 C29 1.981 . S
C377 C186 1.402 . S
C375 C38 1.287 . S
C393 C8 1.453 . S
C395 C214 1.586 . S
C413 C146 2.561 . S
C411 C27 2.379 . S
C429 C40 2.488 . S
C431 C107 2.482 . S
C447 C19 1.056 . S
C449 C183 1.053 . S
C467 C103 1.250 . S
C465 C51 0.987 . S
C483 C62 1.477 . S
C485 C134 1.397 . S
C501 C74 2.540 . S
C503 C187 2.488 . S
C519 C84 2.296 . S
C521 C226 2.389 . S
C537 C49 1.757 . S
C539 C147 2.490 1_566 S
C557 C106 0.931 . S
C555 C63 0.945 . S
C575 C218 1.841 . S
C573 C71 1.768 . S
C593 C177 1.563 . S
C591 C85 1.543 . S
C609 C52 1.535 . S
C611 C223 1.681 . S
C629 C137 2.644 . S
C627 C73 2.744 . S
C647 C98 2.126 . S
C645 C82 1.803 . S
C663 C60 0.935 . S
C665 C174 1.030 . S
