# Generated by pormake.
# Topology ssa, (4,4)-cn, num edge types: 1
# Building blocks:
#     Node 0, Type 0, BuildingBlock: ESEHIV_clean_sbu_0, # of connection points: 4
#     Node 1, Type 0, BuildingBlock: ESEHIV_clean_sbu_0, # of connection points: 4
#     Node 2, Type 0, BuildingBlock: ESEHIV_clean_sbu_0, # of connection points: 4
#     Node 3, Type 0, BuildingBlock: ESEHIV_clean_sbu_0, # of connection points: 4
#     Node 4, Type 0, BuildingBlock: ESEHIV_clean_sbu_0, # of connection points: 4
#     Node 5, Type 0, BuildingBlock: ESEHIV_clean_sbu_0, # of connection points: 4
#     Node 6, Type 1, BuildingBlock: MUDLON_clean_sbu_0, # of connection points: 4
#     Node 7, Type 1, BuildingBlock: MUDLON_clean_sbu_0, # of connection points: 4
#     Node 8, Type 1, BuildingBlock: MUDLON_clean_sbu_0, # of connection points: 4
#     Node 9, Type 1, BuildingBlock: MUDLON_clean_sbu_0, # of connection points: 4
#     Node 10, Type 1, BuildingBlock: MUDLON_clean_sbu_0, # of connection points: 4
#     Node 11, Type 1, BuildingBlock: MUDLON_clean_sbu_0, # of connection points: 4
#     Edge 12, Type (0, 1), BuildingBlock: TEMPAE_clean_linker_10, # of connection points: 2
#     Edge 13, Type (0, 1), BuildingBlock: TEMPAE_clean_linker_10, # of connection points: 2
#     Edge 14, Type (0, 1), BuildingBlock: TEMPAE_clean_linker_10, # of connection points: 2
#     Edge 15, Type (0, 1), BuildingBlock: TEMPAE_clean_linker_10, # of connection points: 2
#     Edge 16, Type (0, 1), BuildingBlock: TEMPAE_clean_linker_10, # of connection points: 2
#     Edge 17, Type (0, 1), BuildingBlock: TEMPAE_clean_linker_10, # of connection points: 2
#     Edge 18, Type (0, 1), BuildingBlock: TEMPAE_clean_linker_10, # of connection points: 2
#     Edge 19, Type (0, 1), BuildingBlock: TEMPAE_clean_linker_10, # of connection points: 2
#     Edge 20, Type (0, 1), BuildingBlock: TEMPAE_clean_linker_10, # of connection points: 2
#     Edge 21, Type (0, 1), BuildingBlock: TEMPAE_clean_linker_10, # of connection points: 2
#     Edge 22, Type (0, 1), BuildingBlock: TEMPAE_clean_linker_10, # of connection points: 2
#     Edge 23, Type (0, 1), BuildingBlock: TEMPAE_clean_linker_10, # of connection points: 2
#     Edge 24, Type (0, 1), BuildingBlock: TEMPAE_clean_linker_10, # of connection points: 2
#     Edge 25, Type (0, 1), BuildingBlock: TEMPAE_clean_linker_10, # of connection points: 2
#     Edge 26, Type (0, 1), BuildingBlock: TEMPAE_clean_linker_10, # of connection points: 2
#     Edge 27, Type (0, 1), BuildingBlock: TEMPAE_clean_linker_10, # of connection points: 2
#     Edge 28, Type (0, 1), BuildingBlock: TEMPAE_clean_linker_10, # of connection points: 2
#     Edge 29, Type (0, 1), BuildingBlock: TEMPAE_clean_linker_10, # of connection points: 2
#     Edge 30, Type (0, 1), BuildingBlock: TEMPAE_clean_linker_10, # of connection points: 2
#     Edge 31, Type (0, 1), BuildingBlock: TEMPAE_clean_linker_10, # of connection points: 2
#     Edge 32, Type (0, 1), BuildingBlock: TEMPAE_clean_linker_10, # of connection points: 2
#     Edge 33, Type (0, 1), BuildingBlock: TEMPAE_clean_linker_10, # of connection points: 2
#     Edge 34, Type (0, 1), BuildingBlock: TEMPAE_clean_linker_10, # of connection points: 2
#     Edge 35, Type (0, 1), BuildingBlock: TEMPAE_clean_linker_10, # of connection points: 2
# Relax obj value: 0.022
# Max RMSD: 0.109
# Mean RMSD: 0.059
data_MOF--net-ssa--node1-ESEHIV_clean_sbu_0--node2-MUDLON_clean_sbu_0--edge1-TEMPAE_clean_linker_10
_symmetry_space_group_name_H-M    P1
_symmetry_Int_Tables_number       1
_symmetry_cell_setting            triclinic
loop_
_symmetry_equiv_pos_as_xyz
'x, y, z'
_cell_length_a     43.806821
_cell_length_b     47.54389
_cell_length_c     42.100643
_cell_angle_alpha  87.771864
_cell_angle_beta   91.273497
_cell_angle_gamma 123.16702
loop_
_atom_site_label
_atom_site_type_symbol
_atom_site_fract_x
_atom_site_fract_y
_atom_site_fract_z
_atom_type_partial_charge
Cu0 Cu 1.01076 0.49485 0.01914 0.0
N1 N 0.02212 0.48168 0.98233 0.0
N2 N 0.012 0.44945 0.94106 0.0
C3 C 0.99718 0.45485 0.96593 0.0
C4 C 0.04784 0.4739 0.94176 0.0
C5 C 0.05399 0.49399 0.96719 0.0
O6 O 0.9612 0.48375 1.01069 0.0
C7 C 0.04878 0.47772 0.05861 0.0
O8 O 0.07323 0.49804 0.03735 0.0
H9 H 0.96872 0.43907 0.97261 0.0
H10 H 0.07986 0.51576 0.97425 0.0
N11 N 0.0434 0.5408 0.02631 0.0
N12 N 0.08004 0.58782 0.05304 0.0
C13 C 0.05486 0.55436 0.05512 0.0
C14 C 0.06182 0.56651 1.00513 0.0
C15 C 0.08443 0.59553 0.02153 0.0
C16 C 0.95363 0.50597 1.0062 0.0
O17 O 0.97778 0.53703 1.0141 0.0
H18 H 0.04581 0.53959 0.07714 0.0
H19 H 0.05937 0.56421 0.9796 0.0
O20 O 0.01638 0.4709 0.05535 0.0
H21 H 0.06801 0.47715 0.92501 0.0
H22 H 0.10278 0.62032 1.01098 0.0
Cu23 Cu 0.50386 0.01734 0.51955 0.0
N24 N 0.52294 0.0141 0.48166 0.0
N25 N 0.53067 0.98821 0.44232 0.0
C26 C 0.51734 0.98505 0.47177 0.0
C27 C 0.54547 0.02079 0.4334 0.0
C28 C 0.54043 0.03666 0.45765 0.0
O29 O 0.45755 0.9739 0.52283 0.0
C30 C 0.57055 0.05242 0.55063 0.0
O31 O 0.57966 0.06801 0.52265 0.0
H32 H 0.50348 0.96195 0.48603 0.0
H33 H 0.54824 0.06253 0.4575 0.0
N34 N 0.49583 0.05208 0.51758 0.0
N35 N 0.48405 0.0887 0.53583 0.0
C36 C 0.49363 0.06669 0.54336 0.0
C37 C 0.48757 0.06536 0.49266 0.0
C38 C 0.48019 0.08799 0.5039 0.0
C39 C 0.42745 0.97102 0.51617 0.0
O40 O 0.42513 0.99719 0.51902 0.0
H41 H 0.49748 0.06012 0.56735 0.0
H42 H 0.48585 0.05829 0.46826 0.0
O43 O 0.53792 0.02726 0.55473 0.0
H44 H 0.55821 0.03219 0.4107 0.0
H45 H 0.47235 0.10254 0.48972 0.0
Cu46 Cu 0.48337 0.49657 0.03115 0.0
N47 N 0.47247 0.45347 0.02321 0.0
N48 N 0.46675 0.41164 0.99529 0.0
C49 C 0.47338 0.44297 0.99418 0.0
C50 C 0.46147 0.40209 0.02638 0.0
C51 C 0.46505 0.42793 0.04353 0.0
O52 O 0.51745 0.52565 0.99786 0.0
C53 C 0.41521 0.47677 0.0518 0.0
O54 O 0.41704 0.45165 0.06324 0.0
H55 H 0.48009 0.45861 0.97278 0.0
H56 H 0.46281 0.42815 0.06903 0.0
N57 N 0.50297 0.51126 0.07148 0.0
N58 N 0.51189 0.53918 0.11597 0.0
C59 C 0.50161 0.53562 0.08517 0.0
C60 C 0.51491 0.49889 0.09423 0.0
C61 C 0.52063 0.51621 0.12172 0.0
C62 C 0.55145 0.54597 1.00284 0.0
O63 O 0.56349 0.55208 0.03222 0.0
H64 H 0.49249 0.54999 0.07256 0.0
H65 H 0.51807 0.4781 0.09144 0.0
O66 O 0.4398 0.4978 0.03243 0.0
H67 H 0.45554 0.37821 0.03612 0.0
H68 H 0.52937 0.51139 0.14436 0.0
Cu69 Cu 0.04002 0.56894 0.5355 0.0
N70 N 0.03225 0.55478 0.49362 0.0
N71 N 0.05334 0.54441 0.45059 0.0
C72 C 0.04693 0.5387 0.48217 0.0
C73 C 0.04061 0.56372 0.44155 0.0
C74 C 0.02785 0.57024 0.46814 0.0
O75 O 0.09187 0.60439 0.53492 0.0
C76 C 0.99011 0.50609 0.56139 0.0
O77 O 0.97222 0.50766 0.53663 0.0
H78 H 0.05616 0.52593 0.49735 0.0
H79 H 0.02027 0.58831 0.46927 0.0
N80 N 0.01367 0.58784 0.54545 0.0
N81 N 0.97777 0.59771 0.57344 0.0
C82 C 0.99188 0.57877 0.57099 0.0
C83 C 0.01366 0.61368 0.53123 0.0
C84 C 0.9913 0.61967 0.54832 0.0
C85 C 0.11586 0.59849 0.52748 0.0
O86 O 0.10866 0.568 0.5326 0.0
H87 H 0.98651 0.55857 0.5875 0.0
H88 H 0.02936 0.62762 0.51032 0.0
O89 O 0.02314 0.53045 0.56531 0.0
H90 H 0.04398 0.57537 0.41818 0.0
H91 H 0.98615 0.63919 0.54307 0.0
Cu92 Cu 0.57017 0.03187 0.027 0.0
N93 N 0.54674 0.02659 0.98798 0.0
N94 N 0.53223 0.0466 0.94541 0.0
C95 C 0.53933 0.04917 0.97682 0.0
C96 C 0.53492 0.02115 0.9363 0.0
C97 C 0.54363 0.00864 0.96271 0.0
O98 O 0.60549 0.08051 0.02657 0.0
C99 C 0.51495 0.97993 0.06347 0.0
O100 O 0.51784 0.96341 0.04068 0.0
H101 H 0.54259 0.06926 0.99086 0.0
H102 H 0.54968 0.98945 0.96289 0.0
N103 N 0.59461 0.00966 0.03046 0.0
N104 N 0.61378 0.97986 0.05597 0.0
C105 C 0.60009 0.99909 0.05877 0.0
C106 C 0.60637 0.99773 1.00867 0.0
C107 C 0.61814 0.97922 0.02437 0.0
C108 C 0.63882 0.09319 0.0193 0.0
O109 O 0.65281 0.07507 0.02456 0.0
H110 H 0.59281 1.00464 0.08096 0.0
H111 H 0.60549 1.00128 0.98325 0.0
O112 O 0.53425 0.01209 0.06177 0.0
H113 H 0.53254 0.01332 0.91207 0.0
H114 H 0.62736 0.96504 1.01319 0.0
Cu115 Cu 0.53081 0.48156 0.49899 0.0
N116 N 0.56748 0.51719 0.47469 0.0
N117 N 0.59749 0.56641 0.44782 0.0
C118 C 0.57154 0.54715 0.46968 0.0
C119 C 0.61031 0.54782 0.43875 0.0
C120 C 0.59182 0.51745 0.45553 0.0
O121 O 0.48518 0.47526 0.48281 0.0
C122 C 0.52713 0.47292 0.56696 0.0
O123 O 0.49734 0.44331 0.56216 0.0
H124 H 0.55412 0.5538 0.48032 0.0
H125 H 0.59472 0.49648 0.4529 0.0
N126 N 0.53356 0.44408 0.4946 0.0
N127 N 0.54482 0.40538 0.51117 0.0
C128 C 0.55167 0.43626 0.51543 0.0
C129 C 0.51544 0.41765 0.47553 0.0
C130 C 0.52197 0.39345 0.48602 0.0
C131 C 0.45432 0.44775 0.47974 0.0
O132 O 0.4495 0.4197 0.49179 0.0
H133 H 0.56707 0.45177 0.53521 0.0
H134 H 0.49703 0.41522 0.4567 0.0
O135 O 0.54237 0.49362 0.54347 0.0
H136 H 0.63064 0.5552 0.42053 0.0
H137 H 0.50924 0.36838 0.47707 0.0
Mg138 Mg 0.24522 0.47944 0.28015 0.0
C139 C 0.17788 0.46647 0.24896 0.0
O140 O 0.19362 0.49659 0.26055 0.0
C141 C 0.29405 0.45802 0.30952 0.0
O142 O 0.31221 0.47293 0.28319 0.0
C143 C 0.20807 0.48847 0.32986 0.0
O144 O 0.19547 0.45625 0.32934 0.0
O145 O 0.23457 0.50854 0.31154 0.0
O146 O 0.19304 0.45015 0.25399 0.0
O147 O 0.28697 0.50603 0.2431 0.0
C148 C 0.27827 0.51009 0.215 0.0
O149 O 0.2452 0.50309 0.20978 0.0
O150 O 0.26322 0.45428 0.3134 0.0
Mg151 Mg 0.78984 0.2569 0.76088 0.0
C152 C 0.75193 0.19051 0.72146 0.0
O153 O 0.7714 0.18198 0.73833 0.0
C154 C 0.8432 0.25691 0.8077 0.0
O155 O 0.81363 0.23709 0.82458 0.0
C156 C 0.73452 0.21592 0.81128 0.0
O157 O 0.72894 0.19372 0.79043 0.0
O158 O 0.75763 0.24693 0.80441 0.0
O159 O 0.75562 0.21852 0.72615 0.0
O160 O 0.8149 0.30559 0.73457 0.0
C161 C 0.8384 0.30867 0.71486 0.0
O162 O 0.84215 0.28322 0.71257 0.0
O163 O 0.83978 0.26202 0.77834 0.0
Mg164 Mg 0.56941 0.78179 0.28773 0.0
C165 C 0.58236 0.81648 0.22671 0.0
O166 O 0.54817 0.79099 0.22647 0.0
C167 C 0.57358 0.74173 0.33739 0.0
O168 O 0.53911 0.73132 0.33351 0.0
C169 C 0.55764 0.81712 0.33754 0.0
O170 O 0.5874 0.81885 0.34697 0.0
O171 O 0.54121 0.8005 0.31296 0.0
O172 O 0.6015 0.8203 0.25133 0.0
O173 O 0.53772 0.73504 0.26214 0.0
C174 C 0.5593 0.73126 0.2458 0.0
O175 O 0.59426 0.75493 0.24618 0.0
O176 O 0.59738 0.76768 0.32145 0.0
Mg177 Mg 0.74908 0.52871 0.79763 0.0
C178 C 0.68778 0.51909 0.75915 0.0
O179 O 0.70498 0.55015 0.76873 0.0
C180 C 0.80098 0.51512 0.8314 0.0
O181 O 0.82273 0.54142 0.81301 0.0
C182 C 0.71643 0.53671 0.85262 0.0
O183 O 0.7095 0.5061 0.85507 0.0
O184 O 0.73612 0.55576 0.82957 0.0
O185 O 0.6994 0.50079 0.76877 0.0
O186 O 0.79188 0.55769 0.76222 0.0
C187 C 0.78987 0.5394 0.7399 0.0
O188 O 0.76322 0.50747 0.74072 0.0
O189 O 0.76668 0.50184 0.82903 0.0
Mg190 Mg 0.28481 0.77693 0.28072 0.0
C191 C 0.23783 0.72684 0.23452 0.0
O192 O 0.26198 0.71993 0.24367 0.0
C193 C 0.31693 0.82267 0.33144 0.0
O194 O 0.33843 0.81221 0.32562 0.0
C195 C 0.24329 0.7185 0.32545 0.0
O196 O 0.21785 0.71862 0.30846 0.0
O197 O 0.27654 0.73886 0.31726 0.0
O198 O 0.23912 0.75143 0.24714 0.0
O199 O 0.33336 0.80405 0.24923 0.0
C200 C 0.35356 0.83617 0.24797 0.0
O201 O 0.34755 0.85324 0.26779 0.0
O202 O 0.28894 0.8129 0.31393 0.0
Mg203 Mg 0.49337 0.25154 0.76619 0.0
C204 C 0.47926 0.21872 0.70808 0.0
O205 O 0.5141 0.2337 0.71482 0.0
C206 C 0.49827 0.29917 0.81238 0.0
O207 O 0.53194 0.3132 0.80238 0.0
C208 C 0.5231 0.22562 0.81826 0.0
O209 O 0.533 0.25376 0.83195 0.0
O210 O 0.50836 0.21988 0.79095 0.0
O211 O 0.45838 0.21979 0.72794 0.0
O212 O 0.5353 0.29326 0.73712 0.0
C213 C 0.52319 0.30936 0.72297 0.0
O214 O 0.49189 0.30381 0.73239 0.0
O215 O 0.4735 0.27146 0.80052 0.0
C216 C 0.09824 0.48064 0.09159 0.0
C217 C 0.06078 0.46654 0.08696 0.0
C218 C 0.11151 0.47345 0.11916 0.0
C219 C 0.08676 0.45096 0.14276 0.0
C220 C 0.04872 0.43508 0.13757 0.0
C221 C 0.03615 0.44338 0.10985 0.0
C222 C 0.15232 0.4915 0.12374 0.0
C223 C 0.0214 0.41026 0.16172 0.0
C224 C 0.13742 0.43063 0.20421 0.0
C225 C 0.14742 0.45584 0.22605 0.0
C226 C 0.11427 0.42619 0.17837 0.0
C227 C 0.10156 0.44788 0.17408 0.0
C228 C 0.10909 0.4713 0.19763 0.0
C229 C 0.13148 0.47466 0.22341 0.0
C230 C 0.10572 0.40004 0.15442 0.0
C231 C 0.09665 0.4953 0.19405 0.0
H232 H 0.11763 0.49847 0.07409 0.0
H233 H 1.00716 0.43211 0.10636 0.0
H234 H 0.16085 0.508 0.14444 0.0
H235 H 0.16005 0.47313 0.12884 0.0
H236 H 0.16781 0.50723 0.10256 0.0
H237 H 0.99353 0.39508 0.15148 0.0
H238 H 0.0294 0.39306 0.17116 0.0
H239 H 0.02055 0.42397 0.18204 0.0
H240 H 0.14926 0.41571 0.20621 0.0
H241 H 0.1384 0.49377 0.24051 0.0
H242 H 0.12373 0.41232 0.13344 0.0
H243 H 0.07709 0.38762 0.14605 0.0
H244 H 0.11014 0.38059 0.16447 0.0
H245 H 0.11187 0.51373 0.1743 0.0
H246 H 0.10132 0.5094 0.216 0.0
H247 H 0.06726 0.48163 0.188 0.0
C248 C 0.58563 0.05943 0.60912 0.0
C249 C 0.59709 0.06691 0.57731 0.0
C250 C 0.61021 0.07677 0.63408 0.0
C251 C 0.64714 0.10199 0.62707 0.0
C252 C 0.65912 0.1084 0.5951 0.0
C253 C 0.63401 0.09092 0.57071 0.0
C254 C 0.59629 0.06917 0.66781 0.0
C255 C 0.69822 0.13482 0.58648 0.0
C256 C 0.70199 0.17555 0.68182 0.0
C257 C 0.72465 0.16728 0.69786 0.0
C258 C 0.67611 0.15412 0.65942 0.0
C259 C 0.67273 0.12358 0.65262 0.0
C260 C 0.69517 0.11482 0.66897 0.0
C261 C 0.7208 0.13672 0.6914 0.0
C262 C 0.65274 0.16448 0.64263 0.0
C263 C 0.69251 0.08258 0.66237 0.0
H264 H 0.55715 0.04104 0.61445 0.0
H265 H 0.64323 0.09673 0.54624 0.0
H266 H 0.61415 0.06487 0.68347 0.0
H267 H 0.59693 0.09109 0.67688 0.0
H268 H 0.56793 0.04678 0.66966 0.0
H269 H 0.70385 0.13493 0.56086 0.0
H270 H 0.70442 0.16004 0.59212 0.0
H271 H 0.71708 0.13062 0.60071 0.0
H272 H 0.70448 0.19894 0.68668 0.0
H273 H 0.73803 0.12998 0.70368 0.0
H274 H 0.62345 0.14444 0.64571 0.0
H275 H 0.65855 0.16791 0.61676 0.0
H276 H 0.65756 0.18826 0.65159 0.0
H277 H 0.664 0.06082 0.66557 0.0
H278 H 0.71057 0.07857 0.67814 0.0
H279 H 0.70011 0.08301 0.63731 0.0
C280 C 0.49326 0.57767 0.13073 0.0
C281 C 0.51271 0.56248 0.1377 0.0
C282 C 0.49701 0.60316 0.14947 0.0
C283 C 0.51956 0.61286 0.17674 0.0
C284 C 0.53722 0.59605 0.18526 0.0
C285 C 0.53393 0.57136 0.16548 0.0
C286 C 0.47752 0.62023 0.13942 0.0
C287 C 0.56095 0.60524 0.21454 0.0
C288 C 0.56794 0.70332 0.20155 0.0
C289 C 0.54668 0.70104 0.22714 0.0
C290 C 0.55892 0.6749 0.18476 0.0
C291 C 0.52818 0.64311 0.19411 0.0
C292 C 0.5061 0.64063 0.21957 0.0
C293 C 0.51544 0.66977 0.23567 0.0
C294 C 0.58235 0.67894 0.15693 0.0
C295 C 0.473 0.60718 0.23002 0.0
H296 H 0.47546 0.57019 0.11023 0.0
H297 H 0.54898 0.55987 0.17134 0.0
H298 H 0.45301 0.6103 0.15449 0.0
H299 H 0.49511 0.6478 0.14238 0.0
H300 H 0.46865 0.61565 0.11421 0.0
H301 H 0.56909 0.58717 0.22004 0.0
H302 H 0.58603 0.63066 0.21091 0.0
H303 H 0.54646 0.60611 0.23539 0.0
H304 H 0.59189 0.72751 0.19462 0.0
H305 H 0.49904 0.66791 0.25554 0.0
H306 H 0.56529 0.66914 0.13522 0.0
H307 H 0.59466 0.66407 0.16157 0.0
H308 H 0.60464 0.70557 0.15211 0.0
H309 H 0.45251 0.59726 0.21061 0.0
H310 H 0.46017 0.60907 0.2516 0.0
H311 H 0.48059 0.58866 0.23497 0.0
C312 C 0.95326 0.58099 0.62808 0.0
C313 C 0.95339 0.59469 0.59789 0.0
C314 C 0.92798 0.57546 0.65139 0.0
C315 C 0.90215 0.58396 0.64453 0.0
C316 C 0.903 0.59904 0.61459 0.0
C317 C 0.92859 0.60421 0.59162 0.0
C318 C 0.92807 0.55931 0.68299 0.0
C319 C 0.87591 0.60844 0.60634 0.0
C320 C 0.81304 0.5314 0.68969 0.0
C321 C 0.81772 0.55246 0.71438 0.0
C322 C 0.83985 0.54179 0.6664 0.0
C323 C 0.87233 0.57414 0.66764 0.0
C324 C 0.87687 0.596 0.6919 0.0
C325 C 0.84948 0.5849 0.71504 0.0
C326 C 0.83385 0.51763 0.641 0.0
C327 C 0.91108 0.63072 0.69393 0.0
H328 H 0.9728 0.57427 0.63348 0.0
H329 H 0.92831 0.61464 0.56838 0.0
H330 H 0.92894 0.57447 0.70278 0.0
H331 H 0.90252 0.53404 0.68556 0.0
H332 H 0.95156 0.55647 0.68545 0.0
H333 H 0.88243 0.62294 0.58341 0.0
H334 H 0.84819 0.5853 0.60462 0.0
H335 H 0.87517 0.62358 0.62534 0.0
H336 H 0.78853 0.50636 0.6888 0.0
H337 H 0.85331 0.60133 0.73399 0.0
H338 H 0.85451 0.51105 0.64343 0.0
H339 H 0.83729 0.52962 0.61707 0.0
H340 H 0.8063 0.49405 0.64237 0.0
H341 H 0.93478 0.62872 0.69909 0.0
H342 H 0.90934 0.64553 0.71275 0.0
H343 H 0.91643 0.64466 0.67082 0.0
C344 C 0.47063 0.9676 0.10743 0.0
C345 C 0.49396 0.96074 0.09238 0.0
C346 C 0.44834 0.94689 0.13302 0.0
C347 C 0.4504 0.91946 0.1445 0.0
C348 C 0.47505 0.91339 0.13001 0.0
C349 C 0.49598 0.9337 0.1039 0.0
C350 C 0.42175 0.95373 0.14715 0.0
C351 C 0.47929 0.88535 0.14201 0.0
C352 C 0.41371 0.88456 0.22811 0.0
C353 C 0.38013 0.85485 0.22184 0.0
C354 C 0.43735 0.90518 0.20328 0.0
C355 C 0.42646 0.89676 0.17126 0.0
C356 C 0.39259 0.86658 0.16484 0.0
C357 C 0.37015 0.84571 0.19021 0.0
C358 C 0.47379 0.93623 0.21134 0.0
C359 C 0.37941 0.85696 0.13116 0.0
H360 H 0.46879 0.98828 0.09841 0.0
H361 H 0.51422 0.92846 0.09246 0.0
H362 H 0.39357 0.93129 0.145 0.0
H363 H 0.42741 0.95855 0.17285 0.0
H364 H 0.42301 0.97564 0.13532 0.0
H365 H 0.49999 0.88422 0.12836 0.0
H366 H 0.48743 0.88886 0.16743 0.0
H367 H 0.4529 0.8608 0.14048 0.0
H368 H 0.4214 0.89177 0.25255 0.0
H369 H 0.34388 0.82312 0.18527 0.0
H370 H 0.4746 0.95903 0.20297 0.0
H371 H 0.49599 0.93636 0.19898 0.0
H372 H 0.47937 0.93789 0.23731 0.0
H373 H 0.37749 0.87709 0.11902 0.0
H374 H 0.3523 0.83293 0.13014 0.0
H375 H 0.39919 0.85446 0.11763 0.0
C376 C 0.52456 0.35396 0.54382 0.0
C377 C 0.55201 0.38696 0.53476 0.0
C378 C 0.52686 0.33956 0.5728 0.0
C379 C 0.55703 0.35887 0.59319 0.0
C380 C 0.58702 0.39028 0.582 0.0
C381 C 0.58409 0.40391 0.55285 0.0
C382 C 0.49524 0.30506 0.58298 0.0
C383 C 0.62157 0.41091 0.60101 0.0
C384 C 0.5269 0.34732 0.67885 0.0
C385 C 0.53807 0.3268 0.69186 0.0
C386 C 0.53431 0.35894 0.64712 0.0
C387 C 0.55315 0.34958 0.62771 0.0
C388 C 0.56607 0.33018 0.64104 0.0
C389 C 0.55861 0.31918 0.67312 0.0
C390 C 0.5206 0.38015 0.63402 0.0
C391 C 0.58666 0.32021 0.62113 0.0
H392 H 0.49987 0.3405 0.52977 0.0
H393 H 0.60596 0.42898 0.54525 0.0
H394 H 0.50502 0.29053 0.59568 0.0
H395 H 0.47762 0.30762 0.59956 0.0
H396 H 0.47836 0.29062 0.56235 0.0
H397 H 0.62868 0.43714 0.60233 0.0
H398 H 0.62006 0.40057 0.62537 0.0
H399 H 0.6443 0.4122 0.58837 0.0
H400 H 0.51123 0.35347 0.69325 0.0
H401 H 0.56713 0.30312 0.68297 0.0
H402 H 0.49917 0.36605 0.61593 0.0
H403 H 0.54308 0.40341 0.62211 0.0
H404 H 0.50881 0.38719 0.65279 0.0
H405 H 0.57072 0.30753 0.59954 0.0
H406 H 0.59274 0.30317 0.63441 0.0
H407 H 0.61273 0.3431 0.61308 0.0
C408 C 0.5024 0.92809 0.43097 0.0
C409 C 0.52944 0.96212 0.42462 0.0
C410 C 0.50272 0.90233 0.416 0.0
C411 C 0.53037 0.91072 0.39364 0.0
C412 C 0.55669 0.945 0.386 0.0
C413 C 0.55598 0.97023 0.40162 0.0
C414 C 0.47383 0.86617 0.42461 0.0
C415 C 0.58659 0.95507 0.36225 0.0
C416 C 0.56228 0.85186 0.3826 0.0
C417 C 0.54669 0.83773 0.35326 0.0
C418 C 0.55612 0.87471 0.39639 0.0
C419 C 0.53397 0.88398 0.38041 0.0
C420 C 0.51692 0.86884 0.35138 0.0
C421 C 0.52339 0.84578 0.33817 0.0
C422 C 0.57415 0.88963 0.42774 0.0
C423 C 0.49297 0.87795 0.33373 0.0
H424 H 0.48108 0.92148 0.44792 0.0
H425 H 0.57703 0.99634 0.39659 0.0
H426 H 0.45491 0.8546 0.40426 0.0
H427 H 0.48628 0.85148 0.4297 0.0
H428 H 0.45772 0.86391 0.44568 0.0
H429 H 0.60305 0.98259 0.35693 0.0
H430 H 0.60505 0.94754 0.37171 0.0
H431 H 0.57481 0.94183 0.33972 0.0
H432 H 0.58004 0.84557 0.3946 0.0
H433 H 0.5113 0.83505 0.31546 0.0
H434 H 0.55338 0.88555 0.4452 0.0
H435 H 0.59367 0.91718 0.42448 0.0
H436 H 0.58912 0.87859 0.43786 0.0
H437 H 0.47121 0.87446 0.34962 0.0
H438 H 0.48008 0.86262 0.31241 0.0
H439 H 0.50945 0.90488 0.32608 0.0
C440 C 0.56591 0.53997 0.94726 0.0
C441 C 0.57777 0.5559 0.97648 0.0
C442 C 0.59094 0.54292 0.92496 0.0
C443 C 0.62875 0.56249 0.9319 0.0
C444 C 0.64099 0.58119 0.95995 0.0
C445 C 0.61534 0.57757 0.98197 0.0
C446 C 0.57666 0.52258 0.89532 0.0
C447 C 0.68104 0.60272 0.96807 0.0
C448 C 0.68114 0.52664 0.9019 0.0
C449 C 0.69796 0.54654 0.87443 0.0
C450 C 0.65951 0.53234 0.92116 0.0
C451 C 0.65446 0.55867 0.91284 0.0
C452 C 0.67252 0.57979 0.88583 0.0
C453 C 0.69416 0.57349 0.8669 0.0
C454 C 0.64101 0.50931 0.94986 0.0
C455 C 0.66786 0.60814 0.87627 0.0
H456 H 0.53696 0.5233 0.94267 0.0
H457 H 0.6248 0.59032 1.0043 0.0
H458 H 0.59265 0.53789 0.8742 0.0
H459 H 0.57958 0.50083 0.89779 0.0
H460 H 0.54743 0.51286 0.89103 0.0
H461 H 0.68645 0.62011 0.98745 0.0
H462 H 0.69067 0.5863 0.97594 0.0
H463 H 0.69729 0.61769 0.94692 0.0
H464 H 0.68416 0.50593 0.90805 0.0
H465 H 0.70696 0.58888 0.84561 0.0
H466 H 0.61097 0.49516 0.94678 0.0
H467 H 0.64786 0.52424 0.97152 0.0
H468 H 0.64901 0.49094 0.95379 0.0
H469 H 0.63951 0.59762 0.86791 0.0
H470 H 0.68687 0.62454 0.85694 0.0
H471 H 0.67235 0.62373 0.89697 0.0
C472 C 0.16814 0.61294 0.49177 0.0
C473 C 0.14496 0.62161 0.50421 0.0
C474 C 0.19007 0.6302 0.46496 0.0
C475 C 0.18879 0.65674 0.45001 0.0
C476 C 0.16767 0.66732 0.46395 0.0
C477 C 0.14608 0.6497 0.49082 0.0
C478 C 0.21239 0.61827 0.45121 0.0
C479 C 0.16594 0.69588 0.44924 0.0
C480 C 0.25486 0.71308 0.38352 0.0
C481 C 0.23278 0.69959 0.35649 0.0
C482 C 0.24147 0.69892 0.41414 0.0
C483 C 0.20534 0.67037 0.41776 0.0
C484 C 0.18382 0.6556 0.3903 0.0
C485 C 0.19767 0.6705 0.36015 0.0
C486 C 0.26523 0.71571 0.4427 0.0
C487 C 0.14533 0.625 0.39282 0.0
H488 H 0.16778 0.59145 0.50191 0.0
H489 H 0.12851 0.65686 0.50019 0.0
H490 H 0.19837 0.60383 0.42976 0.0
H491 H 0.23971 0.6398 0.44376 0.0
H492 H 0.21586 0.60185 0.46834 0.0
H493 H 0.15238 0.70398 0.46509 0.0
H494 H 0.19374 0.7178 0.44359 0.0
H495 H 0.15044 0.68781 0.4266 0.0
H496 H 0.28177 0.7359 0.38095 0.0
H497 H 0.18043 0.65997 0.33939 0.0
H498 H 0.26472 0.69683 0.45941 0.0
H499 H 0.25448 0.72841 0.45564 0.0
H500 H 0.29395 0.73475 0.43589 0.0
H501 H 0.1444 0.6055 0.40887 0.0
H502 H 0.13402 0.6139 0.36933 0.0
H503 H 0.12743 0.63202 0.40321 0.0
C504 C 0.50686 0.08108 0.93445 0.0
C505 C 0.52951 0.07046 0.92553 0.0
C506 C 0.50554 0.10594 0.91651 0.0
C507 C 0.52854 0.12153 0.88968 0.0
C508 C 0.55181 0.1111 0.88078 0.0
C509 C 0.55142 0.08516 0.89844 0.0
C510 C 0.47988 0.11585 0.9265 0.0
C511 C 0.57784 0.128 0.85319 0.0
C512 C 0.50494 0.16586 0.82614 0.0
C513 C 0.52582 0.19935 0.83562 0.0
C514 C 0.50546 0.14034 0.84362 0.0
C515 C 0.52799 0.14855 0.87089 0.0
C516 C 0.54929 0.18243 0.88036 0.0
C517 C 0.54792 0.20733 0.86263 0.0
C518 C 0.48103 0.10442 0.83346 0.0
C519 C 0.57439 0.19309 0.9087 0.0
H520 H 0.49003 0.06968 0.95547 0.0
H521 H 0.56921 0.07716 0.89183 0.0
H522 H 0.4958 0.14239 0.9338 0.0
H523 H 0.46238 0.11403 0.90617 0.0
H524 H 0.4621 0.0998 0.94661 0.0
H525 H 0.59528 0.11798 0.8502 0.0
H526 H 0.56244 0.1245 0.83085 0.0
H527 H 0.59568 0.15546 0.85681 0.0
H528 H 0.48739 0.1594 0.80547 0.0
H529 H 0.5643 0.23319 0.86997 0.0
H530 H 0.46225 0.08868 0.85315 0.0
H531 H 0.49758 0.09402 0.82812 0.0
H532 H 0.46453 0.10213 0.81211 0.0
H533 H 0.57895 0.21633 0.91884 0.0
H534 H 0.60116 0.19871 0.90069 0.0
H535 H 0.56379 0.17328 0.92776 0.0
C536 C 0.43018 0.47698 0.4471 0.0
C537 C 0.42588 0.44696 0.45885 0.0
C538 C 0.40579 0.47675 0.4246 0.0
C539 C 0.37642 0.44576 0.4132 0.0
C540 C 0.37118 0.41532 0.42576 0.0
C541 C 0.39582 0.41628 0.44849 0.0
C542 C 0.41225 0.50982 0.4122 0.0
C543 C 0.34045 0.38174 0.41418 0.0
C544 C 0.30051 0.44678 0.36752 0.0
C545 C 0.31211 0.45056 0.33591 0.0
C546 C 0.32063 0.44442 0.39292 0.0
C547 C 0.3529 0.44544 0.38661 0.0
C548 C 0.36377 0.44775 0.35465 0.0
C549 C 0.34343 0.45047 0.32981 0.0
C550 C 0.30817 0.44221 0.42658 0.0
C551 C 0.39762 0.44844 0.34669 0.0
H552 H 0.45317 0.50084 0.45497 0.0
H553 H 0.39221 0.39291 0.45727 0.0
H554 H 0.41956 0.51345 0.38663 0.0
H555 H 0.38697 0.5097 0.4142 0.0
H556 H 0.43451 0.53154 0.42517 0.0
H557 H 0.33835 0.36035 0.42798 0.0
H558 H 0.31409 0.37974 0.41575 0.0
H559 H 0.34487 0.37949 0.3888 0.0
H560 H 0.27652 0.44705 0.37255 0.0
H561 H 0.35258 0.45323 0.3055 0.0
H562 H 0.32852 0.46532 0.43908 0.0
H563 H 0.30625 0.42066 0.4398 0.0
H564 H 0.28127 0.43934 0.42751 0.0
H565 H 0.42204 0.47146 0.35604 0.0
H566 H 0.40105 0.44808 0.32067 0.0
H567 H 0.39657 0.42654 0.35822 0.0
C568 C 0.95712 0.41119 0.91007 0.0
C569 C 0.99296 0.42254 0.9191 0.0
C570 C 0.93715 0.38375 0.89028 0.0
C571 C 0.9532 0.36683 0.87951 0.0
C572 C 0.98965 0.37851 0.8881 0.0
C573 C 1.00922 0.40644 0.90764 0.0
C574 C 0.89859 0.37258 0.88129 0.0
C575 C 1.00755 0.36094 0.87741 0.0
C576 C 0.88072 0.27776 0.85723 0.0
C577 C 0.87721 0.28182 0.82445 0.0
C578 C 0.90747 0.30464 0.87516 0.0
C579 C 0.93107 0.33645 0.86 0.0
C580 C 0.92975 0.33989 0.82653 0.0
C581 C 0.90303 0.31246 0.80911 0.0
C582 C 0.90845 0.29966 0.91072 0.0
C583 C 0.9543 0.37333 0.80938 0.0
H584 H 0.9447 0.42391 0.91855 0.0
H585 H 0.03681 0.41501 0.91483 0.0
H586 H 0.89548 0.37186 0.85506 0.0
H587 H 0.87923 0.34675 0.89099 0.0
H588 H 0.8908 0.38943 0.8904 0.0
H589 H 0.03667 0.37424 0.88463 0.0
H590 H 0.99292 0.33498 0.88782 0.0
H591 H 1.0058 0.35889 0.85119 0.0
H592 H 0.86116 0.25411 0.86926 0.0
H593 H 0.90071 0.31594 0.78378 0.0
H594 H 0.89687 0.31221 0.92265 0.0
H595 H 0.93695 0.31128 0.91916 0.0
H596 H 0.89247 0.27263 0.91816 0.0
H597 H 0.94525 0.39039 0.81453 0.0
H598 H 0.95373 0.37075 0.78322 0.0
H599 H 0.98285 0.38544 0.81782 0.0
C600 C 0.90435 0.47084 0.96654 0.0
C601 C 0.92205 0.49898 0.98589 0.0
C602 C 0.87968 0.46768 0.94266 0.0
C603 C 0.87238 0.49317 0.93805 0.0
C604 C 0.8882 0.52034 0.95901 0.0
C605 C 0.91282 0.52293 0.98255 0.0
C606 C 0.86344 0.43823 0.92102 0.0
C607 C 0.8811 0.54799 0.95523 0.0
C608 C 0.85444 0.51668 0.85564 0.0
C609 C 0.8172 0.50461 0.85691 0.0
C610 C 0.87215 0.51161 0.88127 0.0
C611 C 0.85229 0.49407 0.90916 0.0
C612 C 0.81424 0.48023 0.91001 0.0
C613 C 0.7971 0.48562 0.88386 0.0
C614 C 0.91264 0.52657 0.87903 0.0
C615 C 0.79199 0.46112 0.93913 0.0
H616 H 0.91132 0.45221 0.96877 0.0
H617 H 0.9261 0.54463 0.99747 0.0
H618 H 0.83413 0.42788 0.91661 0.0
H619 H 0.87757 0.44674 0.89772 0.0
H620 H 0.86633 0.41782 0.93102 0.0
H621 H 0.89223 0.56535 0.97538 0.0
H622 H 0.89394 0.5628 0.93294 0.0
H623 H 0.8514 0.53721 0.95334 0.0
H624 H 0.87018 0.5311 0.83484 0.0
H625 H 0.76835 0.47622 0.88512 0.0
H626 H 0.91867 0.50718 0.88512 0.0
H627 H 0.92734 0.54682 0.8964 0.0
H628 H 0.92358 0.53733 0.85493 0.0
H629 H 0.7977 0.44195 0.94721 0.0
H630 H 0.76225 0.44847 0.93471 0.0
H631 H 0.79974 0.47872 0.95878 0.0
C632 C 0.40276 0.91537 0.49125 0.0
C633 C 0.40104 0.94363 0.49523 0.0
C634 C 0.38363 0.89322 0.4665 0.0
C635 C 0.36298 0.89993 0.44481 0.0
C636 C 0.35932 0.92718 0.44993 0.0
C637 C 0.37796 0.94839 0.47532 0.0
C638 C 0.38717 0.86372 0.46244 0.0
C639 C 0.33834 0.93574 0.42701 0.0
C640 C 0.36144 0.87334 0.36068 0.0
C641 C 0.32599 0.84489 0.35827 0.0
C642 C 0.37327 0.89206 0.38832 0.0
C643 C 0.34939 0.88133 0.41468 0.0
C644 C 0.31328 0.85273 0.41219 0.0
C645 C 0.30183 0.83502 0.38375 0.0
C646 C 0.41177 0.92274 0.38963 0.0
C647 C 0.28744 0.83983 0.44005 0.0
H648 H 0.42033 0.91136 0.50661 0.0
H649 H 0.37643 0.97016 0.47806 0.0
H650 H 0.35975 0.84026 0.46041 0.0
H651 H 0.40202 0.86726 0.44012 0.0
H652 H 0.40199 0.86053 0.48254 0.0
H653 H 0.33469 0.95532 0.43617 0.0
H654 H 0.3533 0.94518 0.40412 0.0
H655 H 0.31111 0.91308 0.42197 0.0
H656 H 0.3802 0.88057 0.34103 0.0
H657 H 0.27474 0.81239 0.38209 0.0
H658 H 0.42795 0.91822 0.40726 0.0
H659 H 0.41161 0.94469 0.39743 0.0
H660 H 0.42576 0.92922 0.36627 0.0
H661 H 0.29789 0.8307 0.45935 0.0
H662 H 0.25954 0.81889 0.43356 0.0
H663 H 0.28581 0.86032 0.44975 0.0
C664 C 0.47674 0.36954 0.97375 0.0
C665 C 0.46737 0.3933 0.96894 0.0
C666 C 0.47928 0.35282 0.94812 0.0
C667 C 0.47219 0.35989 0.91682 0.0
C668 C 0.46185 0.38321 0.91187 0.0
C669 C 0.45961 0.39962 0.93793 0.0
C670 C 0.49067 0.32834 0.95444 0.0
C671 C 0.45397 0.39143 0.87893 0.0
C672 C 0.51855 0.34616 0.84943 0.0
C673 C 0.49046 0.31498 0.83808 0.0
C674 C 0.51277 0.36113 0.8747 0.0
C675 C 0.478 0.3446 0.88915 0.0
C676 C 0.44929 0.31338 0.87753 0.0
C677 C 0.45585 0.29893 0.85211 0.0
C678 C 0.54414 0.39449 0.88622 0.0
C679 C 0.41181 0.29504 0.89225 0.0
H680 H 0.4832 0.36471 0.99748 0.0
H681 H 0.45178 0.41749 0.93398 0.0
H682 H 0.47067 0.30383 0.94384 0.0
H683 H 0.5174 0.33806 0.94304 0.0
H684 H 0.4931 0.32408 0.98025 0.0
H685 H 0.44403 0.40848 0.87927 0.0
H686 H 0.4791 0.40367 0.8643 0.0
H687 H 0.43321 0.36803 0.86704 0.0
H688 H 0.54539 0.35891 0.83875 0.0
H689 H 0.434 0.27485 0.84354 0.0
H690 H 0.55024 0.39174 0.91145 0.0
H691 H 0.53664 0.41333 0.88508 0.0
H692 H 0.56931 0.4044 0.87202 0.0
H693 H 0.41339 0.28852 0.91757 0.0
H694 H 0.3921 0.27158 0.87984 0.0
H695 H 0.40119 0.31154 0.89172 0.0
C696 C 0.07328 0.53604 0.39923 0.0
C697 C 0.07686 0.5386 0.43236 0.0
C698 C 0.09642 0.53088 0.38127 0.0
C699 C 0.12379 0.52822 0.39681 0.0
C700 C 0.12823 0.53177 0.43009 0.0
C701 C 0.10475 0.53684 0.44742 0.0
C702 C 0.09136 0.52785 0.34574 0.0
C703 C 0.15726 0.52939 0.44758 0.0
C704 C 0.15466 0.47531 0.36234 0.0
C705 C 0.18776 0.49954 0.34761 0.0
C706 C 0.1334 0.48444 0.37764 0.0
C707 C 0.14568 0.51878 0.37885 0.0
C708 C 0.17905 0.54348 0.3639 0.0
C709 C 0.19968 0.53352 0.34846 0.0
C710 C 0.09746 0.45715 0.39223 0.0
C711 C 0.19382 0.58053 0.36407 0.0
H712 H 0.05204 0.53763 0.38739 0.0
H713 H 0.10863 0.53977 0.47281 0.0
H714 H 0.11715 0.54714 0.33364 0.0
H715 H 0.08481 0.50285 0.33877 0.0
H716 H 0.06925 0.53106 0.33713 0.0
H717 H 0.16117 0.5382 0.47229 0.0
H718 H 0.14933 0.50287 0.44865 0.0
H719 H 0.18368 0.54438 0.43482 0.0
H720 H 0.14489 0.44892 0.36153 0.0
H721 H 0.22508 0.55242 0.33698 0.0
H722 H 0.07506 0.4593 0.38243 0.0
H723 H 0.09814 0.4601 0.41828 0.0
H724 H 0.09093 0.43154 0.38777 0.0
H725 H 0.17364 0.58592 0.37192 0.0
H726 H 0.20345 0.59204 0.33992 0.0
H727 H 0.21785 0.59302 0.3801 0.0
C728 C 0.63768 0.13442 0.98093 0.0
C729 C 0.65707 0.12186 0.99571 0.0
C730 C 0.65087 0.15489 0.9531 0.0
C731 C 0.68453 0.16355 0.93986 0.0
C732 C 0.70571 0.15342 0.95632 0.0
C733 C 0.69178 0.13278 0.98399 0.0
C734 C 0.62769 0.16558 0.93691 0.0
C735 C 0.74177 0.162 0.94329 0.0
C736 C 0.6942 0.16927 0.84991 0.0
C737 C 0.71855 0.20389 0.84374 0.0
C738 C 0.68236 0.15618 0.88087 0.0
C739 C 0.69474 0.17815 0.90666 0.0
C740 C 0.71789 0.21331 0.90053 0.0
C741 C 0.72968 0.22579 0.86915 0.0
C742 C 0.65779 0.11853 0.8861 0.0
C743 C 0.73108 0.23761 0.92723 0.0
H744 H 0.61102 0.1265 0.98988 0.0
H745 H 0.70726 0.12355 0.99533 0.0
H746 H 0.64168 0.19324 0.93823 0.0
H747 H 0.62403 0.15939 0.91143 0.0
H748 H 0.60038 0.15336 0.94806 0.0
H749 H 0.75711 0.15627 0.96083 0.0
H750 H 0.73688 0.14727 0.92179 0.0
H751 H 0.75896 0.18901 0.93607 0.0
H752 H 0.68516 0.15202 0.83057 0.0
H753 H 0.74846 0.25256 0.86472 0.0
H754 H 0.63436 0.11201 0.90137 0.0
H755 H 0.67321 0.10912 0.89862 0.0
H756 H 0.64715 0.10519 0.86343 0.0
H757 H 0.70753 0.23325 0.94108 0.0
H758 H 0.74718 0.26422 0.91843 0.0
H759 H 0.74833 0.23333 0.94375 0.0
C760 C 0.60916 0.60315 0.40056 0.0
C761 C 0.60471 0.59747 0.43353 0.0
C762 C 0.60994 0.6305 0.38571 0.0
C763 C 0.60676 0.65292 0.4044 0.0
C764 C 0.6052 0.64876 0.43793 0.0
C765 C 0.6038 0.62085 0.45207 0.0
C766 C 0.61112 0.63371 0.34987 0.0
C767 C 0.60251 0.67245 0.45875 0.0
C768 C 0.61931 0.73132 0.3628 0.0
C769 C 0.58299 0.72066 0.35648 0.0
C770 C 0.62768 0.70993 0.37915 0.0
C771 C 0.59908 0.67704 0.38876 0.0
C772 C 0.56243 0.66642 0.38276 0.0
C773 C 0.55488 0.68841 0.36701 0.0
C774 C 0.66703 0.72227 0.38572 0.0
C775 C 0.53105 0.63143 0.39225 0.0
H776 H 0.6096 0.58498 0.38617 0.0
H777 H 0.60085 0.61667 0.47761 0.0
H778 H 0.58402 0.62693 0.34074 0.0
H779 H 0.63125 0.66002 0.34186 0.0
H780 H 0.61818 0.61702 0.33908 0.0
H781 H 0.60762 0.66915 0.48417 0.0
H782 H 0.62226 0.69896 0.45099 0.0
H783 H 0.57479 0.66772 0.45665 0.0
H784 H 0.64115 0.75622 0.35479 0.0
H785 H 0.52672 0.67982 0.36216 0.0
H786 H 0.67462 0.70724 0.3725 0.0
H787 H 0.6709 0.71883 0.41138 0.0
H788 H 0.68588 0.74921 0.37868 0.0
H789 H 0.53385 0.61244 0.38055 0.0
H790 H 0.50412 0.6271 0.3857 0.0
H791 H 0.53146 0.62712 0.4183 0.0
C792 C 0.45222 0.11601 0.55136 0.0
C793 C 0.47796 0.10766 0.55785 0.0
C794 C 0.44552 0.13362 0.57331 0.0
C795 C 0.46519 0.14323 0.60229 0.0
C796 C 0.49126 0.13492 0.60884 0.0
C797 C 0.49728 0.11729 0.5866 0.0
C798 C 0.41754 0.14202 0.56552 0.0
C799 C 0.51325 0.14502 0.63926 0.0
C800 C 0.4871 0.21711 0.65064 0.0
C801 C 0.4664 0.20091 0.67807 0.0
C802 C 0.48418 0.19883 0.62418 0.0
C803 C 0.46032 0.16339 0.62544 0.0
C804 C 0.43667 0.14731 0.65188 0.0
C805 C 0.43995 0.16639 0.67803 0.0
C806 C 0.5096 0.21718 0.59645 0.0
C807 C 0.41062 0.10963 0.65402 0.0
H808 H 0.4369 0.10831 0.52935 0.0
H809 H 0.51759 0.11141 0.59155 0.0
H810 H 0.39644 0.13146 0.58439 0.0
H811 H 0.4307 0.16968 0.56482 0.0
H812 H 0.40396 0.13211 0.54231 0.0
H813 H 0.53178 0.13588 0.64105 0.0
H814 H 0.52991 0.17281 0.64065 0.0
H815 H 0.49474 0.13486 0.6601 0.0
H816 H 0.50758 0.2439 0.65078 0.0
H817 H 0.42426 0.15387 0.69941 0.0
H818 H 0.4954 0.20713 0.57354 0.0
H819 H 0.53254 0.21351 0.59799 0.0
H820 H 0.52113 0.24459 0.59636 0.0
H821 H 0.39672 0.09986 0.63093 0.0
H822 H 0.38968 0.10175 0.67272 0.0
H823 H 0.42611 0.09786 0.65987 0.0
C824 C 0.36363 0.46042 0.08814 0.0
C825 C 0.39162 0.48499 0.06833 0.0
C826 C 0.34583 0.46874 0.10942 0.0
C827 C 0.35613 0.50255 0.11099 0.0
C828 C 0.38287 0.5272 0.08976 0.0
C829 C 0.40029 0.51812 0.06857 0.0
C830 C 0.31724 0.44154 0.1314 0.0
C831 C 0.39378 0.56328 0.09004 0.0
C832 C 0.28789 0.51095 0.1565 0.0
C833 C 0.30182 0.51529 0.18758 0.0
C834 C 0.30649 0.50902 0.13078 0.0
C835 C 0.34003 0.51183 0.13617 0.0
C836 C 0.35577 0.51915 0.16698 0.0
C837 C 0.33638 0.52058 0.19237 0.0
C838 C 0.28884 0.50145 0.09835 0.0
C839 C 0.39205 0.52333 0.17352 0.0
H840 H 0.35664 0.43474 0.08799 0.0
H841 H 0.42196 0.53731 0.05341 0.0
H842 H 0.32694 0.44687 0.15635 0.0
H843 H 0.2917 0.44115 0.12974 0.0
H844 H 0.31088 0.4162 0.12591 0.0
H845 H 0.41791 0.5801 0.07481 0.0
H846 H 0.37076 0.56498 0.08126 0.0
H847 H 0.39985 0.57251 0.11462 0.0
H848 H 0.26136 0.5071 0.1524 0.0
H849 H 0.3476 0.52436 0.21619 0.0
H850 H 0.27808 0.47492 0.09295 0.0
H851 H 0.30905 0.51756 0.0797 0.0
H852 H 0.2659 0.50516 0.09698 0.0
H853 H 0.3891 0.49875 0.17144 0.0
H854 H 0.40254 0.53277 0.19766 0.0
H855 H 0.41256 0.54102 0.15572 0.0
C856 C 0.98436 0.47937 0.61598 0.0
C857 C 0.97004 0.47819 0.58554 0.0
C858 C 0.96387 0.45377 0.63922 0.0
C859 C 0.92832 0.42625 0.63181 0.0
C860 C 0.91388 0.425 0.60111 0.0
C861 C 0.93479 0.45086 0.5785 0.0
C862 C 0.98027 0.45609 0.67167 0.0
C863 C 0.87634 0.39607 0.59193 0.0
C864 C 0.88797 0.34128 0.67471 0.0
C865 C 0.86195 0.33979 0.69491 0.0
C866 C 0.91036 0.36959 0.65496 0.0
C867 C 0.90693 0.39749 0.65516 0.0
C868 C 0.8813 0.3966 0.67595 0.0
C869 C 0.85909 0.36776 0.69559 0.0
C870 C 0.93709 0.36921 0.63318 0.0
C871 C 0.87683 0.42585 0.67694 0.0
H872 H 1.01136 0.50051 0.6218 0.0
H873 H 0.92333 0.44959 0.55511 0.0
H874 H 0.96202 0.45491 0.69027 0.0
H875 H 0.98291 0.43437 0.67619 0.0
H876 H 1.00759 0.47964 0.67414 0.0
H877 H 0.86856 0.39937 0.56745 0.0
H878 H 0.87537 0.37224 0.59344 0.0
H879 H 0.8557 0.39341 0.60874 0.0
H880 H 0.89075 0.32003 0.674 0.0
H881 H 0.83927 0.367 0.71117 0.0
H882 H 0.96493 0.39166 0.63682 0.0
H883 H 0.92953 0.37028 0.60804 0.0
H884 H 0.93784 0.34635 0.63707 0.0
H885 H 0.90361 0.44947 0.68098 0.0
H886 H 0.85767 0.42235 0.69587 0.0
H887 H 0.86639 0.42898 0.65371 0.0
C888 C 0.598 0.95278 0.10967 0.0
C889 C 0.61742 0.96027 0.08112 0.0
C890 C 0.59867 0.93163 0.13333 0.0
C891 C 0.61907 0.91722 0.12844 0.0
C892 C 0.63998 0.92562 0.1004 0.0
C893 C 0.63894 0.94708 0.07705 0.0
C894 C 0.57615 0.92353 0.16303 0.0
C895 C 0.66221 0.91085 0.09447 0.0
C896 C 0.62712 0.8739 0.2029 0.0
C897 C 0.59628 0.84125 0.19975 0.0
C898 C 0.63658 0.8987 0.17881 0.0
C899 C 0.61468 0.89047 0.15111 0.0
C900 C 0.58509 0.85695 0.14698 0.0
C901 C 0.57629 0.83281 0.17132 0.0
C902 C 0.66852 0.93411 0.18394 0.0
C903 C 0.56099 0.84703 0.11785 0.0
H904 H 0.58094 0.9623 0.11327 0.0
H905 H 0.65454 0.95308 0.05543 0.0
H906 H 0.55487 0.89622 0.16464 0.0
H907 H 0.59367 0.92965 0.18442 0.0
H908 H 0.56258 0.93757 0.16357 0.0
H909 H 0.68053 0.92311 0.07361 0.0
H910 H 0.67892 0.9133 0.11566 0.0
H911 H 0.64366 0.88362 0.0901 0.0
H912 H 0.64276 0.88054 0.22477 0.0
H913 H 0.55272 0.80748 0.16851 0.0
H914 H 0.65831 0.95007 0.18992 0.0
H915 H 0.68503 0.94507 0.16196 0.0
H916 H 0.68641 0.93517 0.20362 0.0
H917 H 0.54499 0.85877 0.11811 0.0
H918 H 0.54164 0.81936 0.1167 0.0
H919 H 0.57774 0.85626 0.09591 0.0
C920 C 0.52911 0.46247 0.62587 0.0
C921 C 0.54734 0.47906 0.59745 0.0
C922 C 0.54859 0.46644 0.65427 0.0
C923 C 0.58722 0.48671 0.65405 0.0
C924 C 0.60568 0.50294 0.62526 0.0
C925 C 0.58558 0.49935 0.59752 0.0
C926 C 0.52795 0.44896 0.6845 0.0
C927 C 0.64681 0.52355 0.62358 0.0
C928 C 0.64492 0.52817 0.7272 0.0
C929 C 0.65823 0.50779 0.73509 0.0
C930 C 0.62029 0.52051 0.702 0.0
C931 C 0.60877 0.4919 0.68385 0.0
C932 C 0.62065 0.47025 0.69273 0.0
C933 C 0.64504 0.47834 0.71837 0.0
C934 C 0.6077 0.54386 0.69405 0.0
C935 C 0.60789 0.43847 0.67544 0.0
H936 H 0.49959 0.44644 0.6259 0.0
H937 H 0.59997 0.51158 0.57554 0.0
H938 H 0.53681 0.43262 0.69456 0.0
H939 H 0.5342 0.4679 0.70246 0.0
H940 H 0.49798 0.43338 0.68063 0.0
H941 H 0.65706 0.53382 0.59921 0.0
H942 H 0.65819 0.54481 0.63992 0.0
H943 H 0.65728 0.50777 0.63143 0.0
H944 H 0.65445 0.55075 0.74027 0.0
H945 H 0.65469 0.46214 0.72457 0.0
H946 H 0.57759 0.52933 0.69149 0.0
H947 H 0.61956 0.55721 0.67096 0.0
H948 H 0.61592 0.5629 0.71244 0.0
H949 H 0.58279 0.41763 0.68716 0.0
H950 H 0.62856 0.4318 0.67663 0.0
H951 H 0.60143 0.44041 0.65021 0.0
C952 C 0.13495 0.63876 0.0743 0.0
C953 C 0.09983 0.60989 0.07902 0.0
C954 C 0.15545 0.65912 0.09976 0.0
C955 C 0.1406 0.65053 0.13084 0.0
C956 C 0.10471 0.62211 0.13562 0.0
C957 C 0.08483 0.60218 0.10973 0.0
C958 C 0.19365 0.68909 0.09358 0.0
C959 C 0.08774 0.61207 0.1683 0.0
C960 C 0.20874 0.67788 0.19881 0.0
C961 C 0.21103 0.70668 0.20928 0.0
C962 C 0.1855 0.6592 0.17382 0.0
C963 C 0.16383 0.66945 0.15862 0.0
C964 C 0.16532 0.69807 0.16944 0.0
C965 C 0.18887 0.71634 0.19469 0.0
C966 C 0.18467 0.62875 0.16329 0.0
C967 C 0.14256 0.70974 0.15393 0.0
H968 H 0.14704 0.64488 0.05086 0.0
H969 H 0.05753 0.58034 0.11362 0.0
H970 H 0.19728 0.71192 0.10373 0.0
H971 H 0.21361 0.6847 0.10549 0.0
H972 H 0.20016 0.694 0.06781 0.0
H973 H 0.05854 0.59118 0.16764 0.0
H974 H 0.10263 0.60395 0.18368 0.0
H975 H 0.09003 0.63386 0.17955 0.0
H976 H 0.2255 0.66997 0.20999 0.0
H977 H 0.19044 0.73853 0.20257 0.0
H978 H 0.19369 0.63255 0.13819 0.0
H979 H 0.15641 0.6062 0.16447 0.0
H980 H 0.2025 0.62361 0.17811 0.0
H981 H 0.15078 0.71718 0.12871 0.0
H982 H 0.14547 0.73144 0.16602 0.0
H983 H 0.11337 0.68889 0.15408 0.0
loop_
_geom_bond_atom_site_label_1
_geom_bond_atom_site_label_2
_geom_bond_distance
_geom_bond_site_symmetry_2
_ccdc_geom_bond_type
Cu0 N1 1.999 1_454 S
Cu0 O6 1.974 1_454 S
Cu0 N11 1.985 . S
Cu0 O20 1.959 . S
N1 Cu0 1.999 1_656 S
N1 C3 1.263 . S
N1 C5 1.389 1_556 S
N2 C3 1.358 . S
N2 C4 1.400 . S
C3 N1 1.263 . S
C3 N2 1.358 . S
C3 H9 0.930 . S
C4 N2 1.400 . S
C4 C5 1.351 1_556 S
C4 H21 0.930 . S
C5 N1 1.389 1_554 S
C5 C4 1.351 1_554 S
C5 H10 0.930 . S
O6 Cu0 1.974 1_656 S
O6 C16 1.282 1_655 S
C7 O8 1.261 . S
C7 O20 1.251 . S
O8 C7 1.261 . S
H9 C3 0.930 . S
H10 C5 0.930 . S
N11 Cu0 1.985 . S
N11 C13 1.335 . S
N11 C14 1.390 . S
N12 C13 1.345 . S
N12 C15 1.336 . S
C13 N11 1.335 . S
C13 N12 1.345 . S
C13 H18 0.930 . S
C14 N11 1.390 . S
C14 C15 1.346 . S
C14 H19 0.923 1_554 S
C15 N12 1.336 . S
C15 C14 1.346 . S
C15 H22 0.929 . S
C16 O6 1.282 1_455 S
C16 O17 1.216 . S
O17 C16 1.216 . S
H18 C13 0.930 . S
H19 C14 0.923 1_556 S
O20 Cu0 1.959 . S
O20 C7 1.251 . S
H21 C4 0.930 . S
H22 C15 0.929 . S
Cu23 N24 1.999 . S
Cu23 O29 1.974 . S
Cu23 N34 1.985 1_565 S
Cu23 O43 1.959 1_565 S
N24 Cu23 1.999 . S
N24 C26 1.263 . S
N24 C28 1.389 . S
N25 C26 1.358 . S
N25 C27 1.400 . S
C26 N24 1.263 . S
C26 N25 1.358 . S
C26 H32 0.930 . S
C27 N25 1.400 . S
C27 C28 1.351 . S
C27 H44 0.930 . S
C28 N24 1.389 . S
C28 C27 1.351 . S
C28 H33 0.930 . S
O29 Cu23 1.974 . S
O29 C39 1.282 . S
C30 O31 1.261 . S
C30 O43 1.251 . S
O31 C30 1.261 . S
H32 C26 0.930 . S
H33 C28 0.930 . S
N34 Cu23 1.985 1_545 S
N34 C36 1.335 . S
N34 C37 1.390 . S
N35 C36 1.345 . S
N35 C38 1.336 . S
C36 N34 1.335 . S
C36 N35 1.345 . S
C36 H41 0.930 . S
C37 N34 1.390 . S
C37 C38 1.346 . S
C37 H42 0.930 . S
C38 N35 1.336 . S
C38 C37 1.346 . S
C38 H45 0.929 . S
C39 O29 1.282 . S
C39 O40 1.216 1_565 S
O40 C39 1.216 1_545 S
H41 C36 0.930 . S
H42 C37 0.930 . S
O43 Cu23 1.959 1_545 S
O43 C30 1.251 . S
H44 C27 0.930 . S
H45 C38 0.929 . S
Cu46 N47 1.999 1_554 S
Cu46 O52 1.974 1_554 S
Cu46 N57 1.985 . S
Cu46 O66 1.959 . S
N47 Cu46 1.999 1_556 S
N47 C49 1.263 . S
N47 C51 1.389 . S
N48 C49 1.358 . S
N48 C50 1.400 . S
C49 N47 1.263 . S
C49 N48 1.358 . S
C49 H55 0.930 . S
C50 N48 1.400 . S
C50 C51 1.351 . S
C50 H67 0.930 . S
C51 N47 1.389 . S
C51 C50 1.351 . S
C51 H56 0.930 . S
O52 Cu46 1.974 1_556 S
O52 C62 1.282 . S
C53 O54 1.261 . S
C53 O66 1.251 . S
O54 C53 1.261 . S
H55 C49 0.930 . S
H56 C51 0.930 . S
N57 Cu46 1.985 . S
N57 C59 1.335 . S
N57 C60 1.390 . S
N58 C59 1.345 . S
N58 C61 1.336 . S
C59 N57 1.335 . S
C59 N58 1.345 . S
C59 H64 0.930 . S
C60 N57 1.390 . S
C60 C61 1.346 . S
C60 H65 0.930 . S
C61 N58 1.336 . S
C61 C60 1.346 . S
C61 H68 0.929 . S
C62 O52 1.282 . S
C62 O63 1.203 1_556 S
O63 C62 1.203 1_554 S
H64 C59 0.930 . S
H65 C60 0.930 . S
O66 Cu46 1.959 . S
O66 C53 1.251 . S
H67 C50 0.930 . S
H68 C61 0.929 . S
Cu69 N70 1.999 1_655 S
Cu69 O75 1.974 1_655 S
Cu69 N80 1.985 . S
Cu69 O89 1.959 . S
N70 Cu69 1.999 1_455 S
N70 C72 1.263 . S
N70 C74 1.389 1_455 S
N71 C72 1.358 . S
N71 C73 1.414 . S
C72 N70 1.263 . S
C72 N71 1.358 . S
C72 H78 0.930 . S
C73 N71 1.414 . S
C73 C74 1.328 1_455 S
C73 H90 0.938 1_455 S
C74 N70 1.389 1_655 S
C74 C73 1.328 1_655 S
C74 H79 0.930 . S
O75 Cu69 1.974 1_455 S
O75 C85 1.282 . S
C76 O77 1.261 1_655 S
C76 O89 1.251 . S
O77 C76 1.261 1_455 S
H78 C72 0.930 . S
H79 C74 0.930 . S
N80 Cu69 1.985 . S
N80 C82 1.335 . S
N80 C83 1.390 . S
N81 C82 1.345 . S
N81 C84 1.336 . S
C82 N80 1.335 . S
C82 N81 1.345 . S
C82 H87 0.930 . S
C83 N80 1.390 . S
C83 C84 1.346 . S
C83 H88 0.930 1_655 S
C84 N81 1.336 . S
C84 C83 1.346 . S
C84 H91 0.929 . S
C85 O75 1.282 . S
C85 O86 1.216 . S
O86 C85 1.216 . S
H87 C82 0.930 . S
H88 C83 0.930 1_455 S
O89 Cu69 1.959 . S
O89 C76 1.251 . S
H90 C73 0.938 1_655 S
H91 C84 0.929 . S
Cu92 N93 1.999 1_554 S
Cu92 O98 1.974 1_554 S
Cu92 N103 1.985 1_545 S
Cu92 O112 1.959 1_545 S
N93 Cu92 1.999 1_556 S
N93 C95 1.263 . S
N93 C97 1.389 1_556 S
N94 C95 1.358 . S
N94 C96 1.400 . S
C95 N93 1.263 . S
C95 N94 1.358 . S
C95 H101 0.930 . S
C96 N94 1.400 . S
C96 C97 1.351 1_556 S
C96 H113 0.930 . S
C97 N93 1.389 1_554 S
C97 C96 1.351 1_554 S
C97 H102 0.930 . S
O98 Cu92 1.974 1_556 S
O98 C108 1.282 . S
C99 O100 1.261 . S
C99 O112 1.251 . S
O100 C99 1.261 . S
H101 C95 0.930 . S
H102 C97 0.930 . S
N103 Cu92 1.985 1_565 S
N103 C105 1.335 . S
N103 C106 1.390 . S
N104 C105 1.345 . S
N104 C107 1.336 . S
C105 N103 1.335 . S
C105 N104 1.345 . S
C105 H110 0.930 . S
C106 N103 1.390 . S
C106 C107 1.346 . S
C106 H111 0.930 . S
C107 N104 1.336 . S
C107 C106 1.346 . S
C107 H114 0.929 . S
C108 O98 1.282 . S
C108 O109 1.216 1_545 S
O109 C108 1.216 1_565 S
H110 C105 0.930 . S
H111 C106 0.930 . S
O112 Cu92 1.959 1_565 S
O112 C99 1.251 . S
H113 C96 0.930 . S
H114 C107 0.929 . S
Cu115 N116 1.999 . S
Cu115 O121 1.974 . S
Cu115 N126 1.985 . S
Cu115 O135 1.959 . S
N116 Cu115 1.999 . S
N116 C118 1.263 . S
N116 C120 1.389 . S
N117 C118 1.358 . S
N117 C119 1.400 . S
C118 N116 1.263 . S
C118 N117 1.358 . S
C118 H124 0.930 . S
C119 N117 1.400 . S
C119 C120 1.351 . S
C119 H136 0.930 . S
C120 N116 1.389 . S
C120 C119 1.351 . S
C120 H125 0.930 . S
O121 Cu115 1.974 . S
O121 C131 1.282 . S
C122 O123 1.261 . S
C122 O135 1.251 . S
O123 C122 1.261 . S
H124 C118 0.930 . S
H125 C120 0.930 . S
N126 Cu115 1.985 . S
N126 C128 1.335 . S
N126 C129 1.390 . S
N127 C128 1.345 . S
N127 C130 1.336 . S
C128 N126 1.335 . S
C128 N127 1.345 . S
C128 H133 0.930 . S
C129 N126 1.390 . S
C129 C130 1.346 . S
C129 H134 0.930 . S
C130 N127 1.336 . S
C130 C129 1.346 . S
C130 H137 0.929 . S
C131 O121 1.282 . S
C131 O132 1.216 . S
O132 C131 1.216 . S
H133 C128 0.930 . S
H134 C129 0.930 . S
O135 Cu115 1.959 . S
O135 C122 1.251 . S
H136 C119 0.930 . S
H137 C130 0.929 . S
Mg138 O145 2.141 . S
Mg138 O146 2.048 . S
Mg138 O147 2.048 . S
Mg138 O150 2.141 . S
C139 O140 1.313 . S
C139 O146 1.195 . S
O140 C139 1.313 . S
C141 O142 1.245 . S
C141 O150 1.289 . S
O142 C141 1.245 . S
C143 O144 1.245 . S
C143 O145 1.289 . S
O144 C143 1.245 . S
O145 Mg138 2.141 . S
O145 C143 1.289 . S
O146 Mg138 2.048 . S
O146 C139 1.195 . S
O147 Mg138 2.048 . S
O147 C148 1.195 . S
C148 O147 1.195 . S
C148 O149 1.313 . S
O149 C148 1.313 . S
O150 Mg138 2.141 . S
O150 C141 1.289 . S
Mg151 O158 2.141 . S
Mg151 O159 2.048 . S
Mg151 O160 2.048 . S
Mg151 O163 2.141 . S
C152 O153 1.313 . S
C152 O159 1.195 . S
O153 C152 1.313 . S
C154 O155 1.245 . S
C154 O163 1.289 . S
O155 C154 1.245 . S
C156 O157 1.245 . S
C156 O158 1.289 . S
O157 C156 1.245 . S
O158 Mg151 2.141 . S
O158 C156 1.289 . S
O159 Mg151 2.048 . S
O159 C152 1.195 . S
O160 Mg151 2.048 . S
O160 C161 1.195 . S
C161 O160 1.195 . S
C161 O162 1.313 . S
O162 C161 1.313 . S
O163 Mg151 2.141 . S
O163 C154 1.289 . S
Mg164 O171 2.141 . S
Mg164 O172 2.048 . S
Mg164 O173 2.048 . S
Mg164 O176 2.141 . S
C165 O166 1.313 . S
C165 O172 1.195 . S
O166 C165 1.313 . S
C167 O168 1.245 . S
C167 O176 1.289 . S
O168 C167 1.245 . S
C169 O170 1.245 . S
C169 O171 1.289 . S
O170 C169 1.245 . S
O171 Mg164 2.141 . S
O171 C169 1.289 . S
O172 Mg164 2.048 . S
O172 C165 1.195 . S
O173 Mg164 2.048 . S
O173 C174 1.195 . S
C174 O173 1.195 . S
C174 O175 1.313 . S
O175 C174 1.313 . S
O176 Mg164 2.141 . S
O176 C167 1.289 . S
Mg177 O184 2.141 . S
Mg177 O185 2.048 . S
Mg177 O186 2.048 . S
Mg177 O189 2.141 . S
C178 O179 1.313 . S
C178 O185 1.195 . S
O179 C178 1.313 . S
C180 O181 1.245 . S
C180 O189 1.289 . S
O181 C180 1.245 . S
C182 O183 1.245 . S
C182 O184 1.289 . S
O183 C182 1.245 . S
O184 Mg177 2.141 . S
O184 C182 1.289 . S
O185 Mg177 2.048 . S
O185 C178 1.195 . S
O186 Mg177 2.048 . S
O186 C187 1.195 . S
C187 O186 1.195 . S
C187 O188 1.313 . S
O188 C187 1.313 . S
O189 Mg177 2.141 . S
O189 C180 1.289 . S
Mg190 O197 2.141 . S
Mg190 O198 2.048 . S
Mg190 O199 2.048 . S
Mg190 O202 2.141 . S
C191 O192 1.313 . S
C191 O198 1.195 . S
O192 C191 1.313 . S
C193 O194 1.245 . S
C193 O202 1.289 . S
O194 C193 1.245 . S
C195 O196 1.245 . S
C195 O197 1.289 . S
O196 C195 1.245 . S
O197 Mg190 2.141 . S
O197 C195 1.289 . S
O198 Mg190 2.048 . S
O198 C191 1.195 . S
O199 Mg190 2.048 . S
O199 C200 1.195 . S
C200 O199 1.195 . S
C200 O201 1.313 . S
O201 C200 1.313 . S
O202 Mg190 2.141 . S
O202 C193 1.289 . S
Mg203 O210 2.141 . S
Mg203 O211 2.048 . S
Mg203 O212 2.048 . S
Mg203 O215 2.141 . S
C204 O205 1.313 . S
C204 O211 1.195 . S
O205 C204 1.313 . S
C206 O207 1.245 . S
C206 O215 1.289 . S
O207 C206 1.245 . S
C208 O209 1.245 . S
C208 O210 1.289 . S
O209 C208 1.245 . S
O210 Mg203 2.141 . S
O210 C208 1.289 . S
O211 Mg203 2.048 . S
O211 C204 1.195 . S
O212 Mg203 2.048 . S
O212 C213 1.195 . S
C213 O212 1.195 . S
C213 O214 1.313 . S
O214 C213 1.313 . S
O215 Mg203 2.141 . S
O215 C206 1.289 . S
C216 C217 1.391 . S
C216 C218 1.394 . S
C216 H232 0.931 . S
C217 C216 1.391 . S
C217 C221 1.376 . S
C218 C216 1.394 . S
C218 C219 1.369 . S
C218 C222 1.531 . S
C219 C218 1.369 . S
C219 C220 1.410 . S
C219 C227 1.503 . S
C220 C219 1.410 . S
C220 C221 1.392 . S
C220 C223 1.511 . S
C221 C217 1.376 . S
C221 C220 1.392 . S
C221 H233 0.929 . S
C222 C218 1.531 . S
C222 H234 0.960 . S
C222 H235 0.962 . S
C222 H236 0.960 . S
C223 C220 1.511 . S
C223 H237 0.961 . S
C223 H238 0.961 . S
C223 H239 0.961 . S
C224 C225 1.370 . S
C224 C226 1.363 . S
C224 H240 0.931 . S
C225 C224 1.370 . S
C225 C229 1.408 . S
C226 C224 1.363 . S
C226 C227 1.370 . S
C226 C230 1.524 . S
C227 C219 1.503 . S
C227 C226 1.370 . S
C227 C228 1.403 . S
C228 C227 1.403 . S
C228 C229 1.404 . S
C228 C231 1.539 . S
C229 C225 1.408 . S
C229 C228 1.404 . S
C229 H241 0.930 . S
C230 C226 1.524 . S
C230 H242 0.956 . S
C230 H243 0.961 . S
C230 H244 0.961 . S
C231 C228 1.539 . S
C231 H245 0.958 . S
C231 H246 0.961 . S
C231 H247 0.960 . S
H232 C216 0.931 . S
H233 C221 0.929 . S
H234 C222 0.960 . S
H235 C222 0.962 . S
H236 C222 0.960 . S
H237 C223 0.961 . S
H238 C223 0.961 . S
H239 C223 0.961 . S
H240 C224 0.931 . S
H241 C229 0.930 . S
H242 C230 0.956 . S
H243 C230 0.961 . S
H244 C230 0.961 . S
H245 C231 0.958 . S
H246 C231 0.961 . S
H247 C231 0.960 . S
C248 C249 1.391 . S
C248 C250 1.394 . S
C248 H264 0.931 . S
C249 C248 1.391 . S
C249 C253 1.376 . S
C250 C248 1.394 . S
C250 C251 1.369 . S
C250 C254 1.531 . S
C251 C250 1.369 . S
C251 C252 1.410 . S
C251 C259 1.503 . S
C252 C251 1.410 . S
C252 C253 1.392 . S
C252 C255 1.511 . S
C253 C249 1.376 . S
C253 C252 1.392 . S
C253 H265 0.929 . S
C254 C250 1.531 . S
C254 H266 0.960 . S
C254 H267 0.962 . S
C254 H268 0.960 . S
C255 C252 1.511 . S
C255 H269 0.961 . S
C255 H270 0.961 . S
C255 H271 0.961 . S
C256 C257 1.370 . S
C256 C258 1.363 . S
C256 H272 0.931 . S
C257 C256 1.370 . S
C257 C261 1.408 . S
C258 C256 1.363 . S
C258 C259 1.370 . S
C258 C262 1.524 . S
C259 C251 1.503 . S
C259 C258 1.370 . S
C259 C260 1.403 . S
C260 C259 1.403 . S
C260 C261 1.404 . S
C260 C263 1.539 . S
C261 C257 1.408 . S
C261 C260 1.404 . S
C261 H273 0.930 . S
C262 C258 1.524 . S
C262 H274 0.956 . S
C262 H275 0.961 . S
C262 H276 0.961 . S
C263 C260 1.539 . S
C263 H277 0.958 . S
C263 H278 0.961 . S
C263 H279 0.960 . S
H264 C248 0.931 . S
H265 C253 0.929 . S
H266 C254 0.960 . S
H267 C254 0.962 . S
H268 C254 0.960 . S
H269 C255 0.961 . S
H270 C255 0.961 . S
H271 C255 0.961 . S
H272 C256 0.931 . S
H273 C261 0.930 . S
H274 C262 0.956 . S
H275 C262 0.961 . S
H276 C262 0.961 . S
H277 C263 0.958 . S
H278 C263 0.961 . S
H279 C263 0.960 . S
C280 C281 1.391 . S
C280 C282 1.394 . S
C280 H296 0.931 . S
C281 C280 1.391 . S
C281 C285 1.376 . S
C282 C280 1.394 . S
C282 C283 1.369 . S
C282 C286 1.531 . S
C283 C282 1.369 . S
C283 C284 1.410 . S
C283 C291 1.503 . S
C284 C283 1.410 . S
C284 C285 1.392 . S
C284 C287 1.511 . S
C285 C281 1.376 . S
C285 C284 1.392 . S
C285 H297 0.929 . S
C286 C282 1.531 . S
C286 H298 0.960 . S
C286 H299 0.962 . S
C286 H300 0.960 . S
C287 C284 1.511 . S
C287 H301 0.961 . S
C287 H302 0.961 . S
C287 H303 0.961 . S
C288 C289 1.370 . S
C288 C290 1.363 . S
C288 H304 0.931 . S
C289 C288 1.370 . S
C289 C293 1.408 . S
C290 C288 1.363 . S
C290 C291 1.370 . S
C290 C294 1.524 . S
C291 C283 1.503 . S
C291 C290 1.370 . S
C291 C292 1.403 . S
C292 C291 1.403 . S
C292 C293 1.404 . S
C292 C295 1.539 . S
C293 C289 1.408 . S
C293 C292 1.404 . S
C293 H305 0.930 . S
C294 C290 1.524 . S
C294 H306 0.956 . S
C294 H307 0.961 . S
C294 H308 0.961 . S
C295 C292 1.539 . S
C295 H309 0.958 . S
C295 H310 0.961 . S
C295 H311 0.960 . S
H296 C280 0.931 . S
H297 C285 0.929 . S
H298 C286 0.960 . S
H299 C286 0.962 . S
H300 C286 0.960 . S
H301 C287 0.961 . S
H302 C287 0.961 . S
H303 C287 0.961 . S
H304 C288 0.931 . S
H305 C293 0.930 . S
H306 C294 0.956 . S
H307 C294 0.961 . S
H308 C294 0.961 . S
H309 C295 0.958 . S
H310 C295 0.961 . S
H311 C295 0.960 . S
C312 C313 1.391 . S
C312 C314 1.394 . S
C312 H328 0.931 . S
C313 C312 1.391 . S
C313 C317 1.376 . S
C314 C312 1.394 . S
C314 C315 1.369 . S
C314 C318 1.531 . S
C315 C314 1.369 . S
C315 C316 1.410 . S
C315 C323 1.503 . S
C316 C315 1.410 . S
C316 C317 1.392 . S
C316 C319 1.511 . S
C317 C313 1.376 . S
C317 C316 1.392 . S
C317 H329 0.929 . S
C318 C314 1.531 . S
C318 H330 0.960 . S
C318 H331 0.962 . S
C318 H332 0.960 . S
C319 C316 1.511 . S
C319 H333 0.961 . S
C319 H334 0.961 . S
C319 H335 0.961 . S
C320 C321 1.370 . S
C320 C322 1.363 . S
C320 H336 0.931 . S
C321 C320 1.370 . S
C321 C325 1.408 . S
C322 C320 1.363 . S
C322 C323 1.370 . S
C322 C326 1.524 . S
C323 C315 1.503 . S
C323 C322 1.370 . S
C323 C324 1.403 . S
C324 C323 1.403 . S
C324 C325 1.404 . S
C324 C327 1.539 . S
C325 C321 1.408 . S
C325 C324 1.404 . S
C325 H337 0.930 . S
C326 C322 1.524 . S
C326 H338 0.956 . S
C326 H339 0.961 . S
C326 H340 0.961 . S
C327 C324 1.539 . S
C327 H341 0.958 . S
C327 H342 0.961 . S
C327 H343 0.960 . S
H328 C312 0.931 . S
H329 C317 0.929 . S
H330 C318 0.960 . S
H331 C318 0.962 . S
H332 C318 0.960 . S
H333 C319 0.961 . S
H334 C319 0.961 . S
H335 C319 0.961 . S
H336 C320 0.931 . S
H337 C325 0.930 . S
H338 C326 0.956 . S
H339 C326 0.961 . S
H340 C326 0.961 . S
H341 C327 0.958 . S
H342 C327 0.961 . S
H343 C327 0.960 . S
C344 C345 1.391 . S
C344 C346 1.394 . S
C344 H360 0.931 . S
C345 C344 1.391 . S
C345 C349 1.376 . S
C346 C344 1.394 . S
C346 C347 1.369 . S
C346 C350 1.531 . S
C347 C346 1.369 . S
C347 C348 1.410 . S
C347 C355 1.503 . S
C348 C347 1.410 . S
C348 C349 1.392 . S
C348 C351 1.511 . S
C349 C345 1.376 . S
C349 C348 1.392 . S
C349 H361 0.929 . S
C350 C346 1.531 . S
C350 H362 0.960 . S
C350 H363 0.962 . S
C350 H364 0.960 . S
C351 C348 1.511 . S
C351 H365 0.961 . S
C351 H366 0.961 . S
C351 H367 0.961 . S
C352 C353 1.370 . S
C352 C354 1.363 . S
C352 H368 0.931 . S
C353 C352 1.370 . S
C353 C357 1.408 . S
C354 C352 1.363 . S
C354 C355 1.370 . S
C354 C358 1.524 . S
C355 C347 1.503 . S
C355 C354 1.370 . S
C355 C356 1.403 . S
C356 C355 1.403 . S
C356 C357 1.404 . S
C356 C359 1.539 . S
C357 C353 1.408 . S
C357 C356 1.404 . S
C357 H369 0.930 . S
C358 C354 1.524 . S
C358 H370 0.956 . S
C358 H371 0.961 . S
C358 H372 0.961 . S
C359 C356 1.539 . S
C359 H373 0.958 . S
C359 H374 0.961 . S
C359 H375 0.960 . S
H360 C344 0.931 . S
H361 C349 0.929 . S
H362 C350 0.960 . S
H363 C350 0.962 . S
H364 C350 0.960 . S
H365 C351 0.961 . S
H366 C351 0.961 . S
H367 C351 0.961 . S
H368 C352 0.931 . S
H369 C357 0.930 . S
H370 C358 0.956 . S
H371 C358 0.961 . S
H372 C358 0.961 . S
H373 C359 0.958 . S
H374 C359 0.961 . S
H375 C359 0.960 . S
C376 C377 1.391 . S
C376 C378 1.394 . S
C376 H392 0.931 . S
C377 C376 1.391 . S
C377 C381 1.376 . S
C378 C376 1.394 . S
C378 C379 1.369 . S
C378 C382 1.531 . S
C379 C378 1.369 . S
C379 C380 1.410 . S
C379 C387 1.503 . S
C380 C379 1.410 . S
C380 C381 1.392 . S
C380 C383 1.511 . S
C381 C377 1.376 . S
C381 C380 1.392 . S
C381 H393 0.929 . S
C382 C378 1.531 . S
C382 H394 0.960 . S
C382 H395 0.962 . S
C382 H396 0.960 . S
C383 C380 1.511 . S
C383 H397 0.961 . S
C383 H398 0.961 . S
C383 H399 0.961 . S
C384 C385 1.370 . S
C384 C386 1.363 . S
C384 H400 0.931 . S
C385 C384 1.370 . S
C385 C389 1.408 . S
C386 C384 1.363 . S
C386 C387 1.370 . S
C386 C390 1.524 . S
C387 C379 1.503 . S
C387 C386 1.370 . S
C387 C388 1.403 . S
C388 C387 1.403 . S
C388 C389 1.404 . S
C388 C391 1.539 . S
C389 C385 1.408 . S
C389 C388 1.404 . S
C389 H401 0.930 . S
C390 C386 1.524 . S
C390 H402 0.956 . S
C390 H403 0.961 . S
C390 H404 0.961 . S
C391 C388 1.539 . S
C391 H405 0.958 . S
C391 H406 0.961 . S
C391 H407 0.960 . S
H392 C376 0.931 . S
H393 C381 0.929 . S
H394 C382 0.960 . S
H395 C382 0.962 . S
H396 C382 0.960 . S
H397 C383 0.961 . S
H398 C383 0.961 . S
H399 C383 0.961 . S
H400 C384 0.931 . S
H401 C389 0.930 . S
H402 C390 0.956 . S
H403 C390 0.961 . S
H404 C390 0.961 . S
H405 C391 0.958 . S
H406 C391 0.961 . S
H407 C391 0.960 . S
C408 C409 1.391 . S
C408 C410 1.394 . S
C408 H424 0.931 . S
C409 C408 1.391 . S
C409 C413 1.376 . S
C410 C408 1.394 . S
C410 C411 1.369 . S
C410 C414 1.531 . S
C411 C410 1.369 . S
C411 C412 1.410 . S
C411 C419 1.503 . S
C412 C411 1.410 . S
C412 C413 1.392 . S
C412 C415 1.511 . S
C413 C409 1.376 . S
C413 C412 1.392 . S
C413 H425 0.929 . S
C414 C410 1.531 . S
C414 H426 0.960 . S
C414 H427 0.962 . S
C414 H428 0.960 . S
C415 C412 1.511 . S
C415 H429 0.961 . S
C415 H430 0.961 . S
C415 H431 0.961 . S
C416 C417 1.370 . S
C416 C418 1.363 . S
C416 H432 0.931 . S
C417 C416 1.370 . S
C417 C421 1.408 . S
C418 C416 1.363 . S
C418 C419 1.370 . S
C418 C422 1.524 . S
C419 C411 1.503 . S
C419 C418 1.370 . S
C419 C420 1.403 . S
C420 C419 1.403 . S
C420 C421 1.404 . S
C420 C423 1.539 . S
C421 C417 1.408 . S
C421 C420 1.404 . S
C421 H433 0.930 . S
C422 C418 1.524 . S
C422 H434 0.956 . S
C422 H435 0.961 . S
C422 H436 0.961 . S
C423 C420 1.539 . S
C423 H437 0.958 . S
C423 H438 0.961 . S
C423 H439 0.960 . S
H424 C408 0.931 . S
H425 C413 0.929 . S
H426 C414 0.960 . S
H427 C414 0.962 . S
H428 C414 0.960 . S
H429 C415 0.961 . S
H430 C415 0.961 . S
H431 C415 0.961 . S
H432 C416 0.931 . S
H433 C421 0.930 . S
H434 C422 0.956 . S
H435 C422 0.961 . S
H436 C422 0.961 . S
H437 C423 0.958 . S
H438 C423 0.961 . S
H439 C423 0.960 . S
C440 C441 1.391 . S
C440 C442 1.394 . S
C440 H456 0.931 . S
C441 C440 1.391 . S
C441 C445 1.376 . S
C442 C440 1.394 . S
C442 C443 1.369 . S
C442 C446 1.531 . S
C443 C442 1.369 . S
C443 C444 1.410 . S
C443 C451 1.503 . S
C444 C443 1.410 . S
C444 C445 1.392 . S
C444 C447 1.511 . S
C445 C441 1.376 . S
C445 C444 1.392 . S
C445 H457 0.929 . S
C446 C442 1.531 . S
C446 H458 0.960 . S
C446 H459 0.962 . S
C446 H460 0.960 . S
C447 C444 1.511 . S
C447 H461 0.961 . S
C447 H462 0.961 . S
C447 H463 0.961 . S
C448 C449 1.370 . S
C448 C450 1.363 . S
C448 H464 0.931 . S
C449 C448 1.370 . S
C449 C453 1.408 . S
C450 C448 1.363 . S
C450 C451 1.370 . S
C450 C454 1.524 . S
C451 C443 1.503 . S
C451 C450 1.370 . S
C451 C452 1.403 . S
C452 C451 1.403 . S
C452 C453 1.404 . S
C452 C455 1.539 . S
C453 C449 1.408 . S
C453 C452 1.404 . S
C453 H465 0.930 . S
C454 C450 1.524 . S
C454 H466 0.956 . S
C454 H467 0.961 . S
C454 H468 0.961 . S
C455 C452 1.539 . S
C455 H469 0.958 . S
C455 H470 0.961 . S
C455 H471 0.960 . S
H456 C440 0.931 . S
H457 C445 0.929 . S
H458 C446 0.960 . S
H459 C446 0.962 . S
H460 C446 0.960 . S
H461 C447 0.961 . S
H462 C447 0.961 . S
H463 C447 0.961 . S
H464 C448 0.931 . S
H465 C453 0.930 . S
H466 C454 0.956 . S
H467 C454 0.961 . S
H468 C454 0.961 . S
H469 C455 0.958 . S
H470 C455 0.961 . S
H471 C455 0.960 . S
C472 C473 1.391 . S
C472 C474 1.394 . S
C472 H488 0.931 . S
C473 C472 1.391 . S
C473 C477 1.376 . S
C474 C472 1.394 . S
C474 C475 1.369 . S
C474 C478 1.531 . S
C475 C474 1.369 . S
C475 C476 1.410 . S
C475 C483 1.503 . S
C476 C475 1.410 . S
C476 C477 1.392 . S
C476 C479 1.511 . S
C477 C473 1.376 . S
C477 C476 1.392 . S
C477 H489 0.929 . S
C478 C474 1.531 . S
C478 H490 0.960 . S
C478 H491 0.962 . S
C478 H492 0.960 . S
C479 C476 1.511 . S
C479 H493 0.961 . S
C479 H494 0.961 . S
C479 H495 0.961 . S
C480 C481 1.370 . S
C480 C482 1.363 . S
C480 H496 0.931 . S
C481 C480 1.370 . S
C481 C485 1.408 . S
C482 C480 1.363 . S
C482 C483 1.370 . S
C482 C486 1.524 . S
C483 C475 1.503 . S
C483 C482 1.370 . S
C483 C484 1.403 . S
C484 C483 1.403 . S
C484 C485 1.404 . S
C484 C487 1.539 . S
C485 C481 1.408 . S
C485 C484 1.404 . S
C485 H497 0.930 . S
C486 C482 1.524 . S
C486 H498 0.956 . S
C486 H499 0.961 . S
C486 H500 0.961 . S
C487 C484 1.539 . S
C487 H501 0.958 . S
C487 H502 0.961 . S
C487 H503 0.960 . S
H488 C472 0.931 . S
H489 C477 0.929 . S
H490 C478 0.960 . S
H491 C478 0.962 . S
H492 C478 0.960 . S
H493 C479 0.961 . S
H494 C479 0.961 . S
H495 C479 0.961 . S
H496 C480 0.931 . S
H497 C485 0.930 . S
H498 C486 0.956 . S
H499 C486 0.961 . S
H500 C486 0.961 . S
H501 C487 0.958 . S
H502 C487 0.961 . S
H503 C487 0.960 . S
C504 C505 1.391 . S
C504 C506 1.394 . S
C504 H520 0.931 . S
C505 C504 1.391 . S
C505 C509 1.376 . S
C506 C504 1.394 . S
C506 C507 1.369 . S
C506 C510 1.531 . S
C507 C506 1.369 . S
C507 C508 1.410 . S
C507 C515 1.503 . S
C508 C507 1.410 . S
C508 C509 1.392 . S
C508 C511 1.511 . S
C509 C505 1.376 . S
C509 C508 1.392 . S
C509 H521 0.929 . S
C510 C506 1.531 . S
C510 H522 0.960 . S
C510 H523 0.962 . S
C510 H524 0.960 . S
C511 C508 1.511 . S
C511 H525 0.961 . S
C511 H526 0.961 . S
C511 H527 0.961 . S
C512 C513 1.370 . S
C512 C514 1.363 . S
C512 H528 0.931 . S
C513 C512 1.370 . S
C513 C517 1.408 . S
C514 C512 1.363 . S
C514 C515 1.370 . S
C514 C518 1.524 . S
C515 C507 1.503 . S
C515 C514 1.370 . S
C515 C516 1.403 . S
C516 C515 1.403 . S
C516 C517 1.404 . S
C516 C519 1.539 . S
C517 C513 1.408 . S
C517 C516 1.404 . S
C517 H529 0.930 . S
C518 C514 1.524 . S
C518 H530 0.956 . S
C518 H531 0.961 . S
C518 H532 0.961 . S
C519 C516 1.539 . S
C519 H533 0.958 . S
C519 H534 0.961 . S
C519 H535 0.960 . S
H520 C504 0.931 . S
H521 C509 0.929 . S
H522 C510 0.960 . S
H523 C510 0.962 . S
H524 C510 0.960 . S
H525 C511 0.961 . S
H526 C511 0.961 . S
H527 C511 0.961 . S
H528 C512 0.931 . S
H529 C517 0.930 . S
H530 C518 0.956 . S
H531 C518 0.961 . S
H532 C518 0.961 . S
H533 C519 0.958 . S
H534 C519 0.961 . S
H535 C519 0.960 . S
C536 C537 1.391 . S
C536 C538 1.394 . S
C536 H552 0.931 . S
C537 C536 1.391 . S
C537 C541 1.376 . S
C538 C536 1.394 . S
C538 C539 1.369 . S
C538 C542 1.531 . S
C539 C538 1.369 . S
C539 C540 1.410 . S
C539 C547 1.503 . S
C540 C539 1.410 . S
C540 C541 1.392 . S
C540 C543 1.511 . S
C541 C537 1.376 . S
C541 C540 1.392 . S
C541 H553 0.929 . S
C542 C538 1.531 . S
C542 H554 0.960 . S
C542 H555 0.962 . S
C542 H556 0.960 . S
C543 C540 1.511 . S
C543 H557 0.961 . S
C543 H558 0.961 . S
C543 H559 0.961 . S
C544 C545 1.370 . S
C544 C546 1.363 . S
C544 H560 0.931 . S
C545 C544 1.370 . S
C545 C549 1.408 . S
C546 C544 1.363 . S
C546 C547 1.370 . S
C546 C550 1.524 . S
C547 C539 1.503 . S
C547 C546 1.370 . S
C547 C548 1.403 . S
C548 C547 1.403 . S
C548 C549 1.404 . S
C548 C551 1.539 . S
C549 C545 1.408 . S
C549 C548 1.404 . S
C549 H561 0.930 . S
C550 C546 1.524 . S
C550 H562 0.956 . S
C550 H563 0.961 . S
C550 H564 0.961 . S
C551 C548 1.539 . S
C551 H565 0.958 . S
C551 H566 0.961 . S
C551 H567 0.960 . S
H552 C536 0.931 . S
H553 C541 0.929 . S
H554 C542 0.960 . S
H555 C542 0.962 . S
H556 C542 0.960 . S
H557 C543 0.961 . S
H558 C543 0.961 . S
H559 C543 0.961 . S
H560 C544 0.931 . S
H561 C549 0.930 . S
H562 C550 0.956 . S
H563 C550 0.961 . S
H564 C550 0.961 . S
H565 C551 0.958 . S
H566 C551 0.961 . S
H567 C551 0.960 . S
C568 C569 1.391 . S
C568 C570 1.394 . S
C568 H584 0.931 . S
C569 C568 1.391 . S
C569 C573 1.376 . S
C570 C568 1.394 . S
C570 C571 1.369 . S
C570 C574 1.531 . S
C571 C570 1.369 . S
C571 C572 1.410 . S
C571 C579 1.503 . S
C572 C571 1.410 . S
C572 C573 1.392 . S
C572 C575 1.511 . S
C573 C569 1.376 . S
C573 C572 1.392 . S
C573 H585 0.929 1_655 S
C574 C570 1.531 . S
C574 H586 0.960 . S
C574 H587 0.962 . S
C574 H588 0.960 . S
C575 C572 1.511 . S
C575 H589 0.961 1_655 S
C575 H590 0.961 . S
C575 H591 0.961 1_655 S
C576 C577 1.370 . S
C576 C578 1.363 . S
C576 H592 0.931 . S
C577 C576 1.370 . S
C577 C581 1.408 . S
C578 C576 1.363 . S
C578 C579 1.370 . S
C578 C582 1.524 . S
C579 C571 1.503 . S
C579 C578 1.370 . S
C579 C580 1.403 . S
C580 C579 1.403 . S
C580 C581 1.404 . S
C580 C583 1.539 . S
C581 C577 1.408 . S
C581 C580 1.404 . S
C581 H593 0.930 . S
C582 C578 1.524 . S
C582 H594 0.956 . S
C582 H595 0.961 . S
C582 H596 0.961 . S
C583 C580 1.539 . S
C583 H597 0.958 . S
C583 H598 0.961 . S
C583 H599 0.960 . S
H584 C568 0.931 . S
H585 C573 0.929 1_455 S
H586 C574 0.960 . S
H587 C574 0.962 . S
H588 C574 0.960 . S
H589 C575 0.961 1_455 S
H590 C575 0.961 . S
H591 C575 0.961 1_455 S
H592 C576 0.931 . S
H593 C581 0.930 . S
H594 C582 0.956 . S
H595 C582 0.961 . S
H596 C582 0.961 . S
H597 C583 0.958 . S
H598 C583 0.961 . S
H599 C583 0.960 . S
C600 C601 1.391 . S
C600 C602 1.394 . S
C600 H616 0.931 . S
C601 C600 1.391 . S
C601 C605 1.376 . S
C602 C600 1.394 . S
C602 C603 1.369 . S
C602 C606 1.531 . S
C603 C602 1.369 . S
C603 C604 1.410 . S
C603 C611 1.503 . S
C604 C603 1.410 . S
C604 C605 1.392 . S
C604 C607 1.511 . S
C605 C601 1.376 . S
C605 C604 1.392 . S
C605 H617 0.929 . S
C606 C602 1.531 . S
C606 H618 0.960 . S
C606 H619 0.962 . S
C606 H620 0.960 . S
C607 C604 1.511 . S
C607 H621 0.961 . S
C607 H622 0.961 . S
C607 H623 0.961 . S
C608 C609 1.370 . S
C608 C610 1.363 . S
C608 H624 0.931 . S
C609 C608 1.370 . S
C609 C613 1.408 . S
C610 C608 1.363 . S
C610 C611 1.370 . S
C610 C614 1.524 . S
C611 C603 1.503 . S
C611 C610 1.370 . S
C611 C612 1.403 . S
C612 C611 1.403 . S
C612 C613 1.404 . S
C612 C615 1.539 . S
C613 C609 1.408 . S
C613 C612 1.404 . S
C613 H625 0.930 . S
C614 C610 1.524 . S
C614 H626 0.956 . S
C614 H627 0.961 . S
C614 H628 0.961 . S
C615 C612 1.539 . S
C615 H629 0.958 . S
C615 H630 0.961 . S
C615 H631 0.960 . S
H616 C600 0.931 . S
H617 C605 0.929 . S
H618 C606 0.960 . S
H619 C606 0.962 . S
H620 C606 0.960 . S
H621 C607 0.961 . S
H622 C607 0.961 . S
H623 C607 0.961 . S
H624 C608 0.931 . S
H625 C613 0.930 . S
H626 C614 0.956 . S
H627 C614 0.961 . S
H628 C614 0.961 . S
H629 C615 0.958 . S
H630 C615 0.961 . S
H631 C615 0.960 . S
C632 C633 1.391 . S
C632 C634 1.394 . S
C632 H648 0.931 . S
C633 C632 1.391 . S
C633 C637 1.376 . S
C634 C632 1.394 . S
C634 C635 1.369 . S
C634 C638 1.531 . S
C635 C634 1.369 . S
C635 C636 1.410 . S
C635 C643 1.503 . S
C636 C635 1.410 . S
C636 C637 1.392 . S
C636 C639 1.511 . S
C637 C633 1.376 . S
C637 C636 1.392 . S
C637 H649 0.929 1_565 S
C638 C634 1.531 . S
C638 H650 0.960 . S
C638 H651 0.962 . S
C638 H652 0.960 . S
C639 C636 1.511 . S
C639 H653 0.961 1_565 S
C639 H654 0.961 . S
C639 H655 0.961 . S
C640 C641 1.370 . S
C640 C642 1.363 . S
C640 H656 0.931 . S
C641 C640 1.370 . S
C641 C645 1.408 . S
C642 C640 1.363 . S
C642 C643 1.370 . S
C642 C646 1.524 . S
C643 C635 1.503 . S
C643 C642 1.370 . S
C643 C644 1.403 . S
C644 C643 1.403 . S
C644 C645 1.404 . S
C644 C647 1.539 . S
C645 C641 1.408 . S
C645 C644 1.404 . S
C645 H657 0.930 . S
C646 C642 1.524 . S
C646 H658 0.956 . S
C646 H659 0.961 . S
C646 H660 0.961 . S
C647 C644 1.539 . S
C647 H661 0.958 . S
C647 H662 0.961 . S
C647 H663 0.960 . S
H648 C632 0.931 . S
H649 C637 0.929 1_545 S
H650 C638 0.960 . S
H651 C638 0.962 . S
H652 C638 0.960 . S
H653 C639 0.961 1_545 S
H654 C639 0.961 . S
H655 C639 0.961 . S
H656 C640 0.931 . S
H657 C645 0.930 . S
H658 C646 0.956 . S
H659 C646 0.961 . S
H660 C646 0.961 . S
H661 C647 0.958 . S
H662 C647 0.961 . S
H663 C647 0.960 . S
C664 C665 1.391 . S
C664 C666 1.394 . S
C664 H680 0.931 . S
C665 C664 1.391 . S
C665 C669 1.376 . S
C666 C664 1.394 . S
C666 C667 1.369 . S
C666 C670 1.531 . S
C667 C666 1.369 . S
C667 C668 1.410 . S
C667 C675 1.503 . S
C668 C667 1.410 . S
C668 C669 1.392 . S
C668 C671 1.511 . S
C669 C665 1.376 . S
C669 C668 1.392 . S
C669 H681 0.929 . S
C670 C666 1.531 . S
C670 H682 0.960 . S
C670 H683 0.962 . S
C670 H684 0.960 . S
C671 C668 1.511 . S
C671 H685 0.961 . S
C671 H686 0.961 . S
C671 H687 0.961 . S
C672 C673 1.370 . S
C672 C674 1.363 . S
C672 H688 0.931 . S
C673 C672 1.370 . S
C673 C677 1.408 . S
C674 C672 1.363 . S
C674 C675 1.370 . S
C674 C678 1.524 . S
C675 C667 1.503 . S
C675 C674 1.370 . S
C675 C676 1.403 . S
C676 C675 1.403 . S
C676 C677 1.404 . S
C676 C679 1.539 . S
C677 C673 1.408 . S
C677 C676 1.404 . S
C677 H689 0.930 . S
C678 C674 1.524 . S
C678 H690 0.956 . S
C678 H691 0.961 . S
C678 H692 0.961 . S
C679 C676 1.539 . S
C679 H693 0.958 . S
C679 H694 0.961 . S
C679 H695 0.960 . S
H680 C664 0.931 . S
H681 C669 0.929 . S
H682 C670 0.960 . S
H683 C670 0.962 . S
H684 C670 0.960 . S
H685 C671 0.961 . S
H686 C671 0.961 . S
H687 C671 0.961 . S
H688 C672 0.931 . S
H689 C677 0.930 . S
H690 C678 0.956 . S
H691 C678 0.961 . S
H692 C678 0.961 . S
H693 C679 0.958 . S
H694 C679 0.961 . S
H695 C679 0.960 . S
C696 C697 1.391 . S
C696 C698 1.394 . S
C696 H712 0.931 . S
C697 C696 1.391 . S
C697 C701 1.376 . S
C698 C696 1.394 . S
C698 C699 1.369 . S
C698 C702 1.531 . S
C699 C698 1.369 . S
C699 C700 1.410 . S
C699 C707 1.503 . S
C700 C699 1.410 . S
C700 C701 1.392 . S
C700 C703 1.511 . S
C701 C697 1.376 . S
C701 C700 1.392 . S
C701 H713 0.929 . S
C702 C698 1.531 . S
C702 H714 0.960 . S
C702 H715 0.962 . S
C702 H716 0.960 . S
C703 C700 1.511 . S
C703 H717 0.961 . S
C703 H718 0.961 . S
C703 H719 0.961 . S
C704 C705 1.370 . S
C704 C706 1.363 . S
C704 H720 0.931 . S
C705 C704 1.370 . S
C705 C709 1.408 . S
C706 C704 1.363 . S
C706 C707 1.370 . S
C706 C710 1.524 . S
C707 C699 1.503 . S
C707 C706 1.370 . S
C707 C708 1.403 . S
C708 C707 1.403 . S
C708 C709 1.404 . S
C708 C711 1.539 . S
C709 C705 1.408 . S
C709 C708 1.404 . S
C709 H721 0.930 . S
C710 C706 1.524 . S
C710 H722 0.956 . S
C710 H723 0.961 . S
C710 H724 0.961 . S
C711 C708 1.539 . S
C711 H725 0.958 . S
C711 H726 0.961 . S
C711 H727 0.960 . S
H712 C696 0.931 . S
H713 C701 0.929 . S
H714 C702 0.960 . S
H715 C702 0.962 . S
H716 C702 0.960 . S
H717 C703 0.961 . S
H718 C703 0.961 . S
H719 C703 0.961 . S
H720 C704 0.931 . S
H721 C709 0.930 . S
H722 C710 0.956 . S
H723 C710 0.961 . S
H724 C710 0.961 . S
H725 C711 0.958 . S
H726 C711 0.961 . S
H727 C711 0.960 . S
C728 C729 1.391 . S
C728 C730 1.394 . S
C728 H744 0.931 . S
C729 C728 1.391 . S
C729 C733 1.376 . S
C730 C728 1.394 . S
C730 C731 1.369 . S
C730 C734 1.531 . S
C731 C730 1.369 . S
C731 C732 1.410 . S
C731 C739 1.503 . S
C732 C731 1.410 . S
C732 C733 1.392 . S
C732 C735 1.511 . S
C733 C729 1.376 . S
C733 C732 1.392 . S
C733 H745 0.929 . S
C734 C730 1.531 . S
C734 H746 0.960 . S
C734 H747 0.962 . S
C734 H748 0.960 . S
C735 C732 1.511 . S
C735 H749 0.961 . S
C735 H750 0.961 . S
C735 H751 0.961 . S
C736 C737 1.370 . S
C736 C738 1.363 . S
C736 H752 0.931 . S
C737 C736 1.370 . S
C737 C741 1.408 . S
C738 C736 1.363 . S
C738 C739 1.370 . S
C738 C742 1.524 . S
C739 C731 1.503 . S
C739 C738 1.370 . S
C739 C740 1.403 . S
C740 C739 1.403 . S
C740 C741 1.404 . S
C740 C743 1.539 . S
C741 C737 1.408 . S
C741 C740 1.404 . S
C741 H753 0.930 . S
C742 C738 1.524 . S
C742 H754 0.956 . S
C742 H755 0.961 . S
C742 H756 0.961 . S
C743 C740 1.539 . S
C743 H757 0.958 . S
C743 H758 0.961 . S
C743 H759 0.960 . S
H744 C728 0.931 . S
H745 C733 0.929 . S
H746 C734 0.960 . S
H747 C734 0.962 . S
H748 C734 0.960 . S
H749 C735 0.961 . S
H750 C735 0.961 . S
H751 C735 0.961 . S
H752 C736 0.931 . S
H753 C741 0.930 . S
H754 C742 0.956 . S
H755 C742 0.961 . S
H756 C742 0.961 . S
H757 C743 0.958 . S
H758 C743 0.961 . S
H759 C743 0.960 . S
C760 C761 1.391 . S
C760 C762 1.394 . S
C760 H776 0.931 . S
C761 C760 1.391 . S
C761 C765 1.376 . S
C762 C760 1.394 . S
C762 C763 1.369 . S
C762 C766 1.531 . S
C763 C762 1.369 . S
C763 C764 1.410 . S
C763 C771 1.503 . S
C764 C763 1.410 . S
C764 C765 1.392 . S
C764 C767 1.511 . S
C765 C761 1.376 . S
C765 C764 1.392 . S
C765 H777 0.929 . S
C766 C762 1.531 . S
C766 H778 0.960 . S
C766 H779 0.962 . S
C766 H780 0.960 . S
C767 C764 1.511 . S
C767 H781 0.961 . S
C767 H782 0.961 . S
C767 H783 0.961 . S
C768 C769 1.370 . S
C768 C770 1.363 . S
C768 H784 0.931 . S
C769 C768 1.370 . S
C769 C773 1.408 . S
C770 C768 1.363 . S
C770 C771 1.370 . S
C770 C774 1.524 . S
C771 C763 1.503 . S
C771 C770 1.370 . S
C771 C772 1.403 . S
C772 C771 1.403 . S
C772 C773 1.404 . S
C772 C775 1.539 . S
C773 C769 1.408 . S
C773 C772 1.404 . S
C773 H785 0.930 . S
C774 C770 1.524 . S
C774 H786 0.956 . S
C774 H787 0.961 . S
C774 H788 0.961 . S
C775 C772 1.539 . S
C775 H789 0.958 . S
C775 H790 0.961 . S
C775 H791 0.960 . S
H776 C760 0.931 . S
H777 C765 0.929 . S
H778 C766 0.960 . S
H779 C766 0.962 . S
H780 C766 0.960 . S
H781 C767 0.961 . S
H782 C767 0.961 . S
H783 C767 0.961 . S
H784 C768 0.931 . S
H785 C773 0.930 . S
H786 C774 0.956 . S
H787 C774 0.961 . S
H788 C774 0.961 . S
H789 C775 0.958 . S
H790 C775 0.961 . S
H791 C775 0.960 . S
C792 C793 1.391 . S
C792 C794 1.394 . S
C792 H808 0.931 . S
C793 C792 1.391 . S
C793 C797 1.376 . S
C794 C792 1.394 . S
C794 C795 1.369 . S
C794 C798 1.531 . S
C795 C794 1.369 . S
C795 C796 1.410 . S
C795 C803 1.503 . S
C796 C795 1.410 . S
C796 C797 1.392 . S
C796 C799 1.511 . S
C797 C793 1.376 . S
C797 C796 1.392 . S
C797 H809 0.929 . S
C798 C794 1.531 . S
C798 H810 0.960 . S
C798 H811 0.962 . S
C798 H812 0.960 . S
C799 C796 1.511 . S
C799 H813 0.961 . S
C799 H814 0.961 . S
C799 H815 0.961 . S
C800 C801 1.370 . S
C800 C802 1.363 . S
C800 H816 0.931 . S
C801 C800 1.370 . S
C801 C805 1.408 . S
C802 C800 1.363 . S
C802 C803 1.370 . S
C802 C806 1.524 . S
C803 C795 1.503 . S
C803 C802 1.370 . S
C803 C804 1.403 . S
C804 C803 1.403 . S
C804 C805 1.404 . S
C804 C807 1.539 . S
C805 C801 1.408 . S
C805 C804 1.404 . S
C805 H817 0.930 . S
C806 C802 1.524 . S
C806 H818 0.956 . S
C806 H819 0.961 . S
C806 H820 0.961 . S
C807 C804 1.539 . S
C807 H821 0.958 . S
C807 H822 0.961 . S
C807 H823 0.960 . S
H808 C792 0.931 . S
H809 C797 0.929 . S
H810 C798 0.960 . S
H811 C798 0.962 . S
H812 C798 0.960 . S
H813 C799 0.961 . S
H814 C799 0.961 . S
H815 C799 0.961 . S
H816 C800 0.931 . S
H817 C805 0.930 . S
H818 C806 0.956 . S
H819 C806 0.961 . S
H820 C806 0.961 . S
H821 C807 0.958 . S
H822 C807 0.961 . S
H823 C807 0.960 . S
C824 C825 1.391 . S
C824 C826 1.394 . S
C824 H840 0.931 . S
C825 C824 1.391 . S
C825 C829 1.376 . S
C826 C824 1.394 . S
C826 C827 1.369 . S
C826 C830 1.531 . S
C827 C826 1.369 . S
C827 C828 1.410 . S
C827 C835 1.503 . S
C828 C827 1.410 . S
C828 C829 1.392 . S
C828 C831 1.511 . S
C829 C825 1.376 . S
C829 C828 1.392 . S
C829 H841 0.929 . S
C830 C826 1.531 . S
C830 H842 0.960 . S
C830 H843 0.962 . S
C830 H844 0.960 . S
C831 C828 1.511 . S
C831 H845 0.961 . S
C831 H846 0.961 . S
C831 H847 0.961 . S
C832 C833 1.370 . S
C832 C834 1.363 . S
C832 H848 0.931 . S
C833 C832 1.370 . S
C833 C837 1.408 . S
C834 C832 1.363 . S
C834 C835 1.370 . S
C834 C838 1.524 . S
C835 C827 1.503 . S
C835 C834 1.370 . S
C835 C836 1.403 . S
C836 C835 1.403 . S
C836 C837 1.404 . S
C836 C839 1.539 . S
C837 C833 1.408 . S
C837 C836 1.404 . S
C837 H849 0.930 . S
C838 C834 1.524 . S
C838 H850 0.956 . S
C838 H851 0.961 . S
C838 H852 0.961 . S
C839 C836 1.539 . S
C839 H853 0.958 . S
C839 H854 0.961 . S
C839 H855 0.960 . S
H840 C824 0.931 . S
H841 C829 0.929 . S
H842 C830 0.960 . S
H843 C830 0.962 . S
H844 C830 0.960 . S
H845 C831 0.961 . S
H846 C831 0.961 . S
H847 C831 0.961 . S
H848 C832 0.931 . S
H849 C837 0.930 . S
H850 C838 0.956 . S
H851 C838 0.961 . S
H852 C838 0.961 . S
H853 C839 0.958 . S
H854 C839 0.961 . S
H855 C839 0.960 . S
C856 C857 1.391 . S
C856 C858 1.394 . S
C856 H872 0.931 1_655 S
C857 C856 1.391 . S
C857 C861 1.376 . S
C858 C856 1.394 . S
C858 C859 1.369 . S
C858 C862 1.531 . S
C859 C858 1.369 . S
C859 C860 1.410 . S
C859 C867 1.503 . S
C860 C859 1.410 . S
C860 C861 1.392 . S
C860 C863 1.511 . S
C861 C857 1.376 . S
C861 C860 1.392 . S
C861 H873 0.929 . S
C862 C858 1.531 . S
C862 H874 0.960 . S
C862 H875 0.962 . S
C862 H876 0.960 1_655 S
C863 C860 1.511 . S
C863 H877 0.961 . S
C863 H878 0.961 . S
C863 H879 0.961 . S
C864 C865 1.370 . S
C864 C866 1.363 . S
C864 H880 0.931 . S
C865 C864 1.370 . S
C865 C869 1.408 . S
C866 C864 1.363 . S
C866 C867 1.370 . S
C866 C870 1.524 . S
C867 C859 1.503 . S
C867 C866 1.370 . S
C867 C868 1.403 . S
C868 C867 1.403 . S
C868 C869 1.404 . S
C868 C871 1.539 . S
C869 C865 1.408 . S
C869 C868 1.404 . S
C869 H881 0.930 . S
C870 C866 1.524 . S
C870 H882 0.956 . S
C870 H883 0.961 . S
C870 H884 0.961 . S
C871 C868 1.539 . S
C871 H885 0.958 . S
C871 H886 0.961 . S
C871 H887 0.960 . S
H872 C856 0.931 1_455 S
H873 C861 0.929 . S
H874 C862 0.960 . S
H875 C862 0.962 . S
H876 C862 0.960 1_455 S
H877 C863 0.961 . S
H878 C863 0.961 . S
H879 C863 0.961 . S
H880 C864 0.931 . S
H881 C869 0.930 . S
H882 C870 0.956 . S
H883 C870 0.961 . S
H884 C870 0.961 . S
H885 C871 0.958 . S
H886 C871 0.961 . S
H887 C871 0.960 . S
C888 C889 1.391 . S
C888 C890 1.394 . S
C888 H904 0.931 . S
C889 C888 1.391 . S
C889 C893 1.376 . S
C890 C888 1.394 . S
C890 C891 1.369 . S
C890 C894 1.531 . S
C891 C890 1.369 . S
C891 C892 1.410 . S
C891 C899 1.503 . S
C892 C891 1.410 . S
C892 C893 1.392 . S
C892 C895 1.511 . S
C893 C889 1.376 . S
C893 C892 1.392 . S
C893 H905 0.929 . S
C894 C890 1.531 . S
C894 H906 0.960 . S
C894 H907 0.962 . S
C894 H908 0.960 . S
C895 C892 1.511 . S
C895 H909 0.961 . S
C895 H910 0.961 . S
C895 H911 0.961 . S
C896 C897 1.370 . S
C896 C898 1.363 . S
C896 H912 0.931 . S
C897 C896 1.370 . S
C897 C901 1.408 . S
C898 C896 1.363 . S
C898 C899 1.370 . S
C898 C902 1.524 . S
C899 C891 1.503 . S
C899 C898 1.370 . S
C899 C900 1.403 . S
C900 C899 1.403 . S
C900 C901 1.404 . S
C900 C903 1.539 . S
C901 C897 1.408 . S
C901 C900 1.404 . S
C901 H913 0.930 . S
C902 C898 1.524 . S
C902 H914 0.956 . S
C902 H915 0.961 . S
C902 H916 0.961 . S
C903 C900 1.539 . S
C903 H917 0.958 . S
C903 H918 0.961 . S
C903 H919 0.960 . S
H904 C888 0.931 . S
H905 C893 0.929 . S
H906 C894 0.960 . S
H907 C894 0.962 . S
H908 C894 0.960 . S
H909 C895 0.961 . S
H910 C895 0.961 . S
H911 C895 0.961 . S
H912 C896 0.931 . S
H913 C901 0.930 . S
H914 C902 0.956 . S
H915 C902 0.961 . S
H916 C902 0.961 . S
H917 C903 0.958 . S
H918 C903 0.961 . S
H919 C903 0.960 . S
C920 C921 1.391 . S
C920 C922 1.394 . S
C920 H936 0.931 . S
C921 C920 1.391 . S
C921 C925 1.376 . S
C922 C920 1.394 . S
C922 C923 1.369 . S
C922 C926 1.531 . S
C923 C922 1.369 . S
C923 C924 1.410 . S
C923 C931 1.503 . S
C924 C923 1.410 . S
C924 C925 1.392 . S
C924 C927 1.511 . S
C925 C921 1.376 . S
C925 C924 1.392 . S
C925 H937 0.929 . S
C926 C922 1.531 . S
C926 H938 0.960 . S
C926 H939 0.962 . S
C926 H940 0.960 . S
C927 C924 1.511 . S
C927 H941 0.961 . S
C927 H942 0.961 . S
C927 H943 0.961 . S
C928 C929 1.370 . S
C928 C930 1.363 . S
C928 H944 0.931 . S
C929 C928 1.370 . S
C929 C933 1.408 . S
C930 C928 1.363 . S
C930 C931 1.370 . S
C930 C934 1.524 . S
C931 C923 1.503 . S
C931 C930 1.370 . S
C931 C932 1.403 . S
C932 C931 1.403 . S
C932 C933 1.404 . S
C932 C935 1.539 . S
C933 C929 1.408 . S
C933 C932 1.404 . S
C933 H945 0.930 . S
C934 C930 1.524 . S
C934 H946 0.956 . S
C934 H947 0.961 . S
C934 H948 0.961 . S
C935 C932 1.539 . S
C935 H949 0.958 . S
C935 H950 0.961 . S
C935 H951 0.960 . S
H936 C920 0.931 . S
H937 C925 0.929 . S
H938 C926 0.960 . S
H939 C926 0.962 . S
H940 C926 0.960 . S
H941 C927 0.961 . S
H942 C927 0.961 . S
H943 C927 0.961 . S
H944 C928 0.931 . S
H945 C933 0.930 . S
H946 C934 0.956 . S
H947 C934 0.961 . S
H948 C934 0.961 . S
H949 C935 0.958 . S
H950 C935 0.961 . S
H951 C935 0.960 . S
C952 C953 1.391 . S
C952 C954 1.394 . S
C952 H968 0.931 . S
C953 C952 1.391 . S
C953 C957 1.376 . S
C954 C952 1.394 . S
C954 C955 1.369 . S
C954 C958 1.531 . S
C955 C954 1.369 . S
C955 C956 1.410 . S
C955 C963 1.503 . S
C956 C955 1.410 . S
C956 C957 1.392 . S
C956 C959 1.511 . S
C957 C953 1.376 . S
C957 C956 1.392 . S
C957 H969 0.929 . S
C958 C954 1.531 . S
C958 H970 0.960 . S
C958 H971 0.962 . S
C958 H972 0.960 . S
C959 C956 1.511 . S
C959 H973 0.961 . S
C959 H974 0.961 . S
C959 H975 0.961 . S
C960 C961 1.370 . S
C960 C962 1.363 . S
C960 H976 0.931 . S
C961 C960 1.370 . S
C961 C965 1.408 . S
C962 C960 1.363 . S
C962 C963 1.370 . S
C962 C966 1.524 . S
C963 C955 1.503 . S
C963 C962 1.370 . S
C963 C964 1.403 . S
C964 C963 1.403 . S
C964 C965 1.404 . S
C964 C967 1.539 . S
C965 C961 1.408 . S
C965 C964 1.404 . S
C965 H977 0.930 . S
C966 C962 1.524 . S
C966 H978 0.956 . S
C966 H979 0.961 . S
C966 H980 0.961 . S
C967 C964 1.539 . S
C967 H981 0.958 . S
C967 H982 0.961 . S
C967 H983 0.960 . S
H968 C952 0.931 . S
H969 C957 0.929 . S
H970 C958 0.960 . S
H971 C958 0.962 . S
H972 C958 0.960 . S
H973 C959 0.961 . S
H974 C959 0.961 . S
H975 C959 0.961 . S
H976 C960 0.931 . S
H977 C965 0.930 . S
H978 C966 0.956 . S
H979 C966 0.961 . S
H980 C966 0.961 . S
H981 C967 0.958 . S
H982 C967 0.961 . S
H983 C967 0.960 . S
C217 C7 1.844 . S
C225 C139 1.843 . S
C249 C30 1.624 . S
C257 C152 1.631 . S
C289 C174 1.640 . S
C281 N58 1.637 . S
C321 C187 1.447 . S
C313 N81 1.427 . S
C353 C200 1.731 . S
C345 C99 1.792 . S
C385 C213 1.420 . S
C377 N127 1.426 . S
C409 N25 1.657 . S
C417 C169 1.612 . S
C441 C62 1.619 . S
C449 C182 1.548 . S
C481 C195 1.711 . S
C473 C85 1.776 . S
C513 C208 1.381 . S
C505 N94 1.443 . S
C537 C131 1.797 . S
C545 C141 1.807 . S
C577 C154 1.496 . S
C569 N2 1.481 . S
C609 C180 1.717 . S
C601 C16 1.781 1_655 S
C633 C39 1.584 . S
C641 C193 1.550 . S
C673 C206 1.621 . S
C665 N48 1.618 . S
C697 N71 1.480 . S
C705 C143 1.494 . S
C729 C108 1.791 . S
C737 C156 1.790 . S
C761 N117 1.437 . S
C769 C167 1.384 . S
C793 N35 1.645 . S
C801 C204 1.621 . S
C833 C148 1.614 . S
C825 C53 1.624 . S
C857 C76 1.819 . S
C865 C161 1.812 . S
C889 N104 1.415 . S
C897 C165 1.402 . S
C921 C122 1.780 . S
C929 C178 1.712 . S
C953 N12 1.404 . S
C961 C191 1.425 . S
