# Generated by pormake.
# Topology zzz, (3,6)-cn, num edge types: 1
# Building blocks:
#     Node 0, Type 0, BuildingBlock: OLANEW_clean_sbu_2, # of connection points: 3
#     Node 1, Type 0, BuildingBlock: OLANEW_clean_sbu_2, # of connection points: 3
#     Node 2, Type 0, BuildingBlock: OLANEW_clean_sbu_2, # of connection points: 3
#     Node 3, Type 0, BuildingBlock: OLANEW_clean_sbu_2, # of connection points: 3
#     Node 4, Type 0, BuildingBlock: OLANEW_clean_sbu_2, # of connection points: 3
#     Node 5, Type 0, BuildingBlock: OLANEW_clean_sbu_2, # of connection points: 3
#     Node 6, Type 0, BuildingBlock: OLANEW_clean_sbu_2, # of connection points: 3
#     Node 7, Type 0, BuildingBlock: OLANEW_clean_sbu_2, # of connection points: 3
#     Node 8, Type 1, BuildingBlock: HISSIN_clean_sbu_0, # of connection points: 6
#     Node 9, Type 1, BuildingBlock: HISSIN_clean_sbu_0, # of connection points: 6
#     Node 10, Type 1, BuildingBlock: HISSIN_clean_sbu_0, # of connection points: 6
#     Node 11, Type 1, BuildingBlock: HISSIN_clean_sbu_0, # of connection points: 6
#     Edge 12, Type (0, 1), BuildingBlock: MIFKUJ_clean_linker_0, # of connection points: 2
#     Edge 13, Type (0, 1), BuildingBlock: MIFKUJ_clean_linker_0, # of connection points: 2
#     Edge 14, Type (0, 1), BuildingBlock: MIFKUJ_clean_linker_0, # of connection points: 2
#     Edge 15, Type (0, 1), BuildingBlock: MIFKUJ_clean_linker_0, # of connection points: 2
#     Edge 16, Type (0, 1), BuildingBlock: MIFKUJ_clean_linker_0, # of connection points: 2
#     Edge 17, Type (0, 1), BuildingBlock: MIFKUJ_clean_linker_0, # of connection points: 2
#     Edge 18, Type (0, 1), BuildingBlock: MIFKUJ_clean_linker_0, # of connection points: 2
#     Edge 19, Type (0, 1), BuildingBlock: MIFKUJ_clean_linker_0, # of connection points: 2
#     Edge 20, Type (0, 1), BuildingBlock: MIFKUJ_clean_linker_0, # of connection points: 2
#     Edge 21, Type (0, 1), BuildingBlock: MIFKUJ_clean_linker_0, # of connection points: 2
#     Edge 22, Type (0, 1), BuildingBlock: MIFKUJ_clean_linker_0, # of connection points: 2
#     Edge 23, Type (0, 1), BuildingBlock: MIFKUJ_clean_linker_0, # of connection points: 2
#     Edge 24, Type (0, 1), BuildingBlock: MIFKUJ_clean_linker_0, # of connection points: 2
#     Edge 25, Type (0, 1), BuildingBlock: MIFKUJ_clean_linker_0, # of connection points: 2
#     Edge 26, Type (0, 1), BuildingBlock: MIFKUJ_clean_linker_0, # of connection points: 2
#     Edge 27, Type (0, 1), BuildingBlock: MIFKUJ_clean_linker_0, # of connection points: 2
#     Edge 28, Type (0, 1), BuildingBlock: MIFKUJ_clean_linker_0, # of connection points: 2
#     Edge 29, Type (0, 1), BuildingBlock: MIFKUJ_clean_linker_0, # of connection points: 2
#     Edge 30, Type (0, 1), BuildingBlock: MIFKUJ_clean_linker_0, # of connection points: 2
#     Edge 31, Type (0, 1), BuildingBlock: MIFKUJ_clean_linker_0, # of connection points: 2
#     Edge 32, Type (0, 1), BuildingBlock: MIFKUJ_clean_linker_0, # of connection points: 2
#     Edge 33, Type (0, 1), BuildingBlock: MIFKUJ_clean_linker_0, # of connection points: 2
#     Edge 34, Type (0, 1), BuildingBlock: MIFKUJ_clean_linker_0, # of connection points: 2
#     Edge 35, Type (0, 1), BuildingBlock: MIFKUJ_clean_linker_0, # of connection points: 2
# Relax obj value: 0.191
# Max RMSD: 0.178
# Mean RMSD: 0.094
data_MOF--net-zzz--node1-OLANEW_clean_sbu_2--node2-HISSIN_clean_sbu_0--edge1-MIFKUJ_clean_linker_0
_symmetry_space_group_name_H-M    P1
_symmetry_Int_Tables_number       1
_symmetry_cell_setting            triclinic
loop_
_symmetry_equiv_pos_as_xyz
'x, y, z'
_cell_length_a     68.171706
_cell_length_b     68.450426
_cell_length_c     23.44116
_cell_angle_alpha  89.451862
_cell_angle_beta   92.414644
_cell_angle_gamma 90.277635
loop_
_atom_site_label
_atom_site_type_symbol
_atom_site_fract_x
_atom_site_fract_y
_atom_site_fract_z
_atom_type_partial_charge
O0 O 0.75889 0.6027 0.10542 0.0
Cd1 Cd 0.72875 0.61324 0.14803 0.0
O2 O 0.75495 0.57562 0.15412 0.0
Cd3 Cd 0.76289 0.54626 0.18442 0.0
O4 O 0.78354 0.52884 0.23639 0.0
C5 C 0.79738 0.51976 0.21374 0.0
O6 O 0.79761 0.51878 0.15784 0.0
C7 C 0.76495 0.58579 0.11994 0.0
C8 C 0.69674 0.59816 0.08543 0.0
O9 O 0.70283 0.61562 0.07648 0.0
O10 O 0.70559 0.58797 0.12469 0.0
O11 O 0.92993 0.75507 0.07077 0.0
Cd12 Cd 0.91694 0.72493 0.11064 0.0
O13 O 0.94973 0.75434 0.14628 0.0
Cd14 Cd 0.97257 0.76343 0.20845 0.0
O15 O 0.97932 0.78529 0.27297 0.0
C16 C 0.96441 0.79499 0.28659 0.0
O17 O 0.94714 0.79038 0.26335 0.0
C18 C 0.94405 0.76275 0.09979 0.0
C19 C 0.93327 0.69402 0.05372 0.0
O20 O 0.91618 0.70048 0.0388 0.0
O21 O 0.94241 0.70184 0.09664 0.0
O22 O 0.77725 0.96713 0.14964 0.0
Cd23 Cd 0.81049 0.95798 0.18323 0.0
O24 O 0.76594 0.96623 0.23569 0.0
Cd25 Cd 0.74587 0.96609 0.30673 0.0
O26 O 0.74978 0.95669 0.40062 0.0
C27 C 0.7379 0.95215 0.43975 0.0
O28 O 0.75029 0.95667 0.40099 0.0
C29 C 0.76294 0.96895 0.18228 0.0
C30 C 0.83839 0.96587 0.10174 0.0
O31 O 0.8287 0.94978 0.10125 0.0
O32 O 0.83488 0.97825 0.14066 0.0
O33 O 0.49064 0.77886 0.14823 0.0
Cd34 Cd 0.48996 0.80755 0.2089 0.0
O35 O 0.46439 0.76965 0.1915 0.0
Cd36 Cd 0.44457 0.74764 0.22389 0.0
O37 O 0.45015 0.72136 0.2737 0.0
C38 C 0.46835 0.71754 0.27941 0.0
O39 O 0.48095 0.72917 0.25493 0.0
C40 C 0.47729 0.7662 0.15527 0.0
C41 C 0.49488 0.84047 0.14156 0.0
O42 O 0.50969 0.83218 0.1669 0.0
O43 O 0.47774 0.83344 0.14952 0.0
O44 O 0.26923 0.44795 0.14418 0.0
Cd45 Cd 0.29695 0.43162 0.10352 0.0
O46 O 0.25154 0.42394 0.1093 0.0
Cd47 Cd 0.2258 0.40663 0.08426 0.0
O48 O 0.20309 0.40972 0.01737 0.0
C49 C 0.20717 0.42297 0.98137 0.0
O50 O 0.2242 0.432 0.98693 0.0
C51 C 0.25253 0.43992 0.13668 0.0
C52 C 0.32978 0.43809 0.17453 0.0
O53 O 0.32606 0.44917 0.13107 0.0
O54 O 0.3182 0.42367 0.18335 0.0
O55 O 0.05167 0.27646 0.10155 0.0
Cd56 Cd 0.0655 0.30726 0.06924 0.0
O57 O 0.08071 0.2635 0.09348 0.0
Cd58 Cd 0.09934 0.23804 0.08496 0.0
O59 O 0.09793 0.21126 0.03624 0.0
C60 C 0.0818 0.20975 0.00746 0.0
O61 O 0.06882 0.22379 0.01061 0.0
C62 C 0.06281 0.26169 0.1061 0.0
C63 C 0.05704 0.33606 0.14685 0.0
O64 O 0.04559 0.33289 0.1031 0.0
O65 O 0.07269 0.32583 0.15316 0.0
O66 O 0.23816 0.04718 0.06199 0.0
Cd67 Cd 0.20699 0.04953 0.00714 0.0
O68 O 0.26064 0.05811 0.00369 0.0
Cd69 Cd 0.24684 0.06038 0.91827 0.0
O70 O 0.26901 0.05672 0.85369 0.0
C71 C 0.28256 0.04491 0.86977 0.0
O72 O 0.2809 0.03553 0.91853 0.0
C73 C 0.25578 0.05198 0.05251 0.0
C74 C 0.17717 0.04503 0.0851 0.0
O75 O 0.18409 0.03029 0.05944 0.0
O76 O 0.1839 0.06199 0.07264 0.0
O77 O 0.59146 0.24512 0.13213 0.0
Cd78 Cd 0.60005 0.21387 0.09153 0.0
O79 O 0.5632 0.24343 0.08479 0.0
Cd80 Cd 0.53621 0.25519 0.04551 0.0
O81 O 0.52273 0.27707 0.9894 0.0
C82 C 0.53514 0.28606 0.95979 0.0
O83 O 0.55371 0.28106 0.96553 0.0
C84 C 0.57484 0.2526 0.11908 0.0
C85 C 0.58304 0.18444 0.15515 0.0
O86 O 0.59994 0.19152 0.16968 0.0
O87 O 0.57431 0.19099 0.10943 0.0
Eu88 Eu 0.99807 0.02317 0.57155 0.0
Eu89 Eu 0.02957 -0.00044 0.66012 0.0
C90 C 0.02807 0.04548 0.65954 0.0
C91 C 0.97946 0.06207 0.46803 0.0
C92 C 0.99187 0.07693 0.48963 0.0
C93 C 0.97709 0.07918 0.37666 0.0
C94 C 0.99686 0.09277 0.455 0.0
C95 C 0.97199 0.0634 0.41151 0.0
C96 C 0.98976 0.09397 0.39779 0.0
C97 C 0.97579 0.04429 0.50198 0.0
O98 O 0.00268 0.00762 0.70771 0.0
O99 O 0.97935 0.00767 0.63473 0.0
C100 C 0.98431 0.00593 0.68921 0.0
O101 O 0.99655 0.99206 0.54201 0.0
O102 O 0.04235 0.99642 0.74673 0.0
O103 O 0.04983 0.97581 0.68182 0.0
O104 O 0.01016 0.97629 0.62134 0.0
C105 C 1.00067 0.97611 0.57154 0.0
O106 O 0.02742 0.02652 0.53237 0.0
O107 O 0.04617 0.0028 0.57929 0.0
O108 O 0.04001 0.03057 0.6592 0.0
O109 O 0.98513 0.02881 0.48631 0.0
O110 O 0.97615 0.04609 0.55744 0.0
O111 O 0.00993 0.04417 0.63859 0.0
C112 C 0.04338 0.96325 0.77229 0.0
C113 C 0.02408 0.95631 0.7642 0.0
C114 C 0.04928 0.93863 0.84627 0.0
C115 C 0.01751 0.94048 0.79609 0.0
C116 C 0.05593 0.95446 0.81376 0.0
C117 C 0.03005 0.93135 0.83723 0.0
C118 C 0.05005 0.97947 0.73638 0.0
C119 C 0.0431 0.01545 0.53732 0.0
H120 H 0.99804 0.07613 0.53294 0.0
H121 H 0.9716 0.07943 0.33264 0.0
H122 H 0.00641 0.10401 0.47303 0.0
H123 H 0.96263 0.05194 0.3938 0.0
H124 H 0.01411 0.96305 0.73274 0.0
H125 H 0.05931 0.93181 0.87741 0.0
H126 H 0.00257 0.93541 0.78849 0.0
H127 H 0.07086 0.95968 0.82059 0.0
Eu128 Eu 0.52181 0.02559 0.66483 0.0
Eu129 Eu 0.49688 0.99841 0.57246 0.0
C130 C 0.51203 0.98197 0.69393 0.0
C131 C 0.55883 0.0392 0.78176 0.0
C132 C 0.5669 0.02045 0.77899 0.0
C133 C 0.58212 0.047 0.85947 0.0
C134 C 0.58249 0.01499 0.81618 0.0
C135 C 0.56648 0.05244 0.82217 0.0
C136 C 0.59032 0.02821 0.85682 0.0
C137 C 0.5421 0.04465 0.7436 0.0
O138 O 0.47631 0.02178 0.59897 0.0
O139 O 0.48992 0.02552 0.68859 0.0
C140 C 0.47481 0.0269 0.65219 0.0
O141 O 0.51099 0.04688 0.59736 0.0
O142 O 0.47224 0.97845 0.55784 0.0
O143 O 0.4907 0.98607 0.48804 0.0
O144 O 0.5065 0.02508 0.52378 0.0
C145 C 0.50903 0.04299 0.5426 0.0
O146 O 0.54289 0.01596 0.59886 0.0
O147 O 0.52793 0.98726 0.57111 0.0
O148 O 0.49668 0.98372 0.65875 0.0
O149 O 0.54557 0.04575 0.68937 0.0
O150 O 0.52579 0.03536 0.75279 0.0
O151 O 0.52655 0.99447 0.69222 0.0
C152 C 0.45664 0.98416 0.46904 0.0
C153 C 0.4522 0.00409 0.46342 0.0
C154 C 0.42631 0.9762 0.41644 0.0
C155 C 0.43501 0.01006 0.43421 0.0
C156 C 0.4436 0.97023 0.44573 0.0
C157 C 0.42191 0.99619 0.41021 0.0
C158 C 0.47419 0.97815 0.50281 0.0
C159 C 0.54336 0.99883 0.57412 0.0
H160 H 0.56106 0.00999 0.74824 0.0
H161 H 0.58795 0.05758 0.88983 0.0
H162 H 0.58827 0.00033 0.81354 0.0
H163 H 0.56035 0.06696 0.8249 0.0
H164 H 0.46197 0.01504 0.48215 0.0
H165 H 0.41652 0.96521 0.39808 0.0
H166 H 0.43185 0.02553 0.43097 0.0
H167 H 0.44672 0.95478 0.45043 0.0
Eu168 Eu 0.50096 0.51413 0.68761 0.0
Eu169 Eu 0.53101 0.49874 0.59106 0.0
C170 C 0.54673 0.521 0.70276 0.0
C171 C 0.47986 0.54734 0.79735 0.0
C172 C 0.49727 0.55472 0.82346 0.0
C173 C 0.46271 0.57642 0.82648 0.0
C174 C 0.49733 0.57269 0.85127 0.0
C175 C 0.46262 0.55836 0.79904 0.0
C176 C 0.48005 0.58379 0.85326 0.0
C177 C 0.47962 0.52858 0.76668 0.0
O178 O 0.51688 0.47215 0.62874 0.0
O179 O 0.51275 0.4849 0.71702 0.0
C180 C 0.51436 0.46984 0.68345 0.0
O181 O 0.48213 0.49534 0.62889 0.0
O182 O 0.55565 0.48044 0.56942 0.0
O183 O 0.54089 0.49808 0.50373 0.0
O184 O 0.50062 0.49947 0.54995 0.0
C185 C 0.48404 0.49486 0.57337 0.0
O186 O 0.50038 0.53617 0.61611 0.0
O187 O 0.53098 0.5315 0.5817 0.0
O188 O 0.54935 0.50565 0.6709 0.0
O189 O 0.47456 0.52939 0.71241 0.0
O190 O 0.49445 0.51693 0.77732 0.0
O191 O 0.52965 0.52962 0.70341 0.0
C192 C 0.55225 0.46716 0.47754 0.0
C193 C 0.5361 0.45441 0.47942 0.0
C194 C 0.56666 0.4464 0.40742 0.0
C195 C 0.53536 0.43759 0.44595 0.0
C196 C 0.5674 0.46319 0.44097 0.0
C197 C 0.55075 0.43327 0.41004 0.0
C198 C 0.55363 0.48426 0.51487 0.0
C199 C 0.51519 0.54218 0.58638 0.0
H200 H 0.51088 0.54666 0.82244 0.0
H201 H 0.4492 0.58469 0.82603 0.0
H202 H 0.51092 0.57775 0.87174 0.0
H203 H 0.44908 0.55306 0.77867 0.0
H204 H 0.52426 0.45728 0.50756 0.0
H205 H 0.57861 0.44367 0.37958 0.0
H206 H 0.52303 0.42768 0.44953 0.0
H207 H 0.57992 0.47294 0.43886 0.0
Eu208 Eu 0.02078 0.53 0.5737 0.0
Eu209 Eu 0.99567 0.50204 0.66176 0.0
C210 C 0.04233 0.50109 0.66506 0.0
C211 C 0.0597 0.54384 0.47212 0.0
C212 C 0.07505 0.53336 0.49997 0.0
C213 C 0.07564 0.53995 0.3821 0.0
C214 C 0.09057 0.5263 0.46915 0.0
C215 C 0.06021 0.54721 0.41306 0.0
C216 C 0.09091 0.52934 0.40982 0.0
C217 C 0.04218 0.54946 0.50286 0.0
O218 O 0.00498 0.52944 0.70768 0.0
O219 O 0.00618 0.55075 0.63216 0.0
C220 C 0.0042 0.54726 0.68676 0.0
O221 O 0.99027 0.52691 0.53483 0.0
O222 O 0.99231 0.49005 0.74738 0.0
O223 O 0.97004 0.48435 0.68103 0.0
O224 O 0.97393 0.52211 0.61691 0.0
C225 C 0.97391 0.52624 0.56221 0.0
O226 O 0.02469 0.4993 0.54414 0.0
O227 O 0.9979 0.4841 0.58221 0.0
O228 O 0.02639 0.49033 0.66682 0.0
O229 O 0.02609 0.54027 0.48727 0.0
O230 O 0.04424 0.55101 0.55829 0.0
O231 O 0.04205 0.51872 0.64242 0.0
C232 C 0.9594 0.4908 0.77268 0.0
C233 C 0.95512 0.51082 0.77302 0.0
C234 C 0.93393 0.48495 0.84024 0.0
C235 C 0.94028 0.51786 0.80642 0.0
C236 C 0.94885 0.47791 0.80671 0.0
C237 C 0.92936 0.505 0.83999 0.0
C238 C 0.97457 0.48359 0.73564 0.0
C239 C 0.01194 0.48489 0.54548 0.0
H240 H 0.07484 0.53019 0.54531 0.0
H241 H 0.07561 0.54256 0.33644 0.0
H242 H 0.10201 0.51793 0.49145 0.0
H243 H 0.0484 0.55504 0.39066 0.0
H244 H 0.96316 0.52099 0.74697 0.0
H245 H 0.92567 0.47465 0.86522 0.0
H246 H 0.93736 0.5334 0.80592 0.0
H247 H 0.95196 0.4624 0.80678 0.0
H248 H 0.16033 0.07331 0.14871 0.0
H249 H 0.13793 0.06871 0.22667 0.0
H250 H 0.13835 0.00645 0.2001 0.0
H251 H 0.16091 0.01088 0.12268 0.0
H252 H 0.10179 0.05401 0.23378 0.0
H253 H 0.13691 0.98295 0.32785 0.0
H254 H 0.1694 0.96719 0.33595 0.0
H255 H 0.19759 0.02318 0.32268 0.0
H256 H 0.1653 0.03929 0.31531 0.0
H257 H 0.03568 0.01354 0.42359 0.0
H258 H 0.05881 0.01788 0.34767 0.0
H259 H 0.10573 0.02743 0.47412 0.0
H260 H 0.08269 0.02141 0.55028 0.0
H261 H 0.11997 0.00877 0.39392 0.0
H262 H 0.08018 0.06686 0.39266 0.0
H263 H 0.04856 0.08418 0.39138 0.0
H264 H 0.03222 0.05881 0.2293 0.0
H265 H 0.06378 0.04133 0.22969 0.0
C266 C 0.15558 0.05864 0.15924 0.0
C267 C 0.16251 0.04245 0.12963 0.0
C268 C 0.14274 0.05604 0.20378 0.0
C269 C 0.13667 0.03721 0.2198 0.0
C270 C 0.1431 0.02109 0.18918 0.0
C271 C 0.15593 0.02366 0.1447 0.0
C272 C 0.12384 0.03438 0.26903 0.0
C273 C 0.10579 0.04415 0.26885 0.0
C274 C 0.12917 0.02184 0.31546 0.0
C275 C 0.14867 0.01229 0.32043 0.0
C276 C 0.15005 0.9919 0.32687 0.0
C277 C 0.16843 0.9829 0.33131 0.0
C278 C 0.18555 0.99417 0.32964 0.0
C279 C 0.18432 0.01446 0.32374 0.0
C280 C 0.16598 0.02353 0.31935 0.0
C281 C 0.05099 0.01641 0.43498 0.0
C282 C 0.05748 0.01726 0.49248 0.0
C283 C 0.06419 0.0191 0.39162 0.0
C284 C 0.08398 0.02368 0.40482 0.0
C285 C 0.09055 0.02406 0.46259 0.0
C286 C 0.07742 0.02066 0.5061 0.0
C287 C 0.09771 0.02815 0.35844 0.0
C288 C 0.11596 0.0187 0.35906 0.0
C289 C 0.09278 0.0414 0.31316 0.0
C290 C 0.07429 0.05275 0.31134 0.0
C291 C 0.06987 0.06506 0.35665 0.0
C292 C 0.05195 0.07492 0.35603 0.0
C293 C 0.03838 0.07265 0.31017 0.0
C294 C 0.04276 0.0606 0.26471 0.0
C295 C 0.0607 0.05079 0.26497 0.0
H296 H 0.02446 0.08018 0.30982 0.0
H297 H 0.19976 0.98718 0.33305 0.0
H298 H 0.55117 0.16137 0.12767 0.0
H299 H 0.5357 0.13703 0.18867 0.0
H300 H 0.57783 0.15042 0.32557 0.0
H301 H 0.59374 0.1741 0.26429 0.0
H302 H 0.57388 0.11327 0.31916 0.0
H303 H 0.52869 0.1671 0.3201 0.0
H304 H 0.50622 0.19191 0.27769 0.0
H305 H 0.47 0.14668 0.20265 0.0
H306 H 0.49241 0.1216 0.24404 0.0
H307 H 0.52691 0.07817 0.5612 0.0
H308 H 0.5362 0.10215 0.48923 0.0
H309 H 0.50705 0.06784 0.35747 0.0
H310 H 0.49793 0.04347 0.42915 0.0
H311 H 0.50266 0.11346 0.35533 0.0
H312 H 0.54934 0.05988 0.35623 0.0
H313 H 0.57196 0.03611 0.40295 0.0
H314 H 0.60522 0.08295 0.48086 0.0
H315 H 0.58269 0.10701 0.43463 0.0
C316 C 0.55713 0.15906 0.17076 0.0
C317 C 0.57368 0.16959 0.19121 0.0
C318 C 0.5482 0.14525 0.20569 0.0
C319 C 0.55544 0.14207 0.26199 0.0
C320 C 0.572 0.15258 0.28227 0.0
C321 C 0.58108 0.16613 0.24719 0.0
C322 C 0.5462 0.12752 0.29983 0.0
C323 C 0.55832 0.11349 0.32724 0.0
C324 C 0.52581 0.12744 0.30959 0.0
C325 C 0.51235 0.14249 0.28461 0.0
C326 C 0.51602 0.16246 0.29416 0.0
C327 C 0.50328 0.17656 0.27038 0.0
C328 C 0.48673 0.17088 0.23734 0.0
C329 C 0.48285 0.15107 0.22815 0.0
C330 C 0.49556 0.1369 0.25178 0.0
C331 C 0.5221 0.07589 0.51713 0.0
C332 C 0.51181 0.05888 0.50072 0.0
C333 C 0.52746 0.08959 0.47613 0.0
C334 C 0.52236 0.08663 0.41831 0.0
C335 C 0.51105 0.07031 0.40205 0.0
C336 C 0.50595 0.05641 0.44296 0.0
C337 C 0.53046 0.0997 0.3748 0.0
C338 C 0.51815 0.11331 0.34651 0.0
C339 C 0.55071 0.09962 0.36458 0.0
C340 C 0.56424 0.0852 0.39248 0.0
C341 C 0.56138 0.06509 0.38375 0.0
C342 C 0.57421 0.05157 0.41003 0.0
C343 C 0.58998 0.058 0.44513 0.0
C344 C 0.59298 0.07798 0.45377 0.0
C345 C 0.58022 0.09157 0.42743 0.0
H346 H 0.59991 0.04754 0.4655 0.0
H347 H 0.47688 0.18182 0.21899 0.0
H348 H 0.33693 0.42226 0.28052 0.0
H349 H 0.36322 0.43098 0.34995 0.0
H350 H 0.38643 0.47216 0.22951 0.0
H351 H 0.36006 0.46368 0.15985 0.0
H352 H 0.41522 0.44823 0.28688 0.0
H353 H 0.36085 0.4897 0.32827 0.0
H354 H 0.32654 0.49673 0.35005 0.0
H355 H 0.33248 0.46182 0.50292 0.0
H356 H 0.36677 0.45436 0.48159 0.0
H357 H 0.47803 0.50468 0.46179 0.0
H358 H 0.45144 0.49408 0.39656 0.0
H359 H 0.42593 0.461 0.53275 0.0
H360 H 0.45231 0.47224 0.5992 0.0
H361 H 0.39819 0.47888 0.46931 0.0
H362 H 0.45336 0.43862 0.43043 0.0
H363 H 0.48791 0.43243 0.40938 0.0
H364 H 0.48071 0.46483 0.25221 0.0
H365 H 0.44617 0.47141 0.27263 0.0
C366 C 0.34771 0.43306 0.2686 0.0
C367 C 0.34642 0.44234 0.21483 0.0
C368 C 0.36266 0.43806 0.30836 0.0
C369 C 0.3766 0.45229 0.29482 0.0
C370 C 0.37574 0.46115 0.2406 0.0
C371 C 0.36066 0.45632 0.201 0.0
C372 C 0.39183 0.45831 0.3378 0.0
C373 C 0.41156 0.45508 0.32658 0.0
C374 C 0.3869 0.4668 0.39003 0.0
C375 C 0.3663 0.47128 0.40298 0.0
C376 C 0.35478 0.48337 0.36624 0.0
C377 C 0.33535 0.48747 0.37857 0.0
C378 C 0.32731 0.47968 0.42774 0.0
C379 C 0.33871 0.46782 0.46479 0.0
C380 C 0.35815 0.46366 0.45262 0.0
C381 C 0.46674 0.49517 0.47795 0.0
C382 C 0.46731 0.48909 0.53539 0.0
C383 C 0.4516 0.48906 0.44055 0.0
C384 C 0.43699 0.47634 0.45944 0.0
C385 C 0.43716 0.47071 0.51725 0.0
C386 C 0.4522 0.47711 0.55509 0.0
C387 C 0.4217 0.4689 0.41843 0.0
C388 C 0.40191 0.47185 0.42993 0.0
C389 C 0.42659 0.46007 0.3665 0.0
C390 C 0.44721 0.45563 0.35328 0.0
C391 C 0.45917 0.44448 0.39147 0.0
C392 C 0.47875 0.44091 0.37966 0.0
C393 C 0.48652 0.4483 0.32959 0.0
C394 C 0.47468 0.45914 0.29101 0.0
C395 C 0.45508 0.46277 0.30263 0.0
H396 H 0.50171 0.44564 0.32064 0.0
H397 H 0.31226 0.48287 0.43723 0.0
H398 H 0.07659 0.34382 0.24827 0.0
H399 H 0.06779 0.36751 0.32012 0.0
H400 H 0.01785 0.38548 0.21346 0.0
H401 H 0.0263 0.36155 0.14198 0.0
H402 H 0.06553 0.40574 0.31686 0.0
H403 H 0.98052 0.3986 0.29549 0.0
H404 H 0.95552 0.37337 0.2726 0.0
H405 H 0.99603 0.32848 0.32758 0.0
H406 H 0.02117 0.35344 0.35155 0.0
H407 H 0.02471 0.48788 0.43803 0.0
H408 H 0.03042 0.46143 0.37174 0.0
H409 H 0.0102 0.4195 0.49513 0.0
H410 H 0.00347 0.44617 0.56062 0.0
H411 H 0.99869 0.40873 0.39237 0.0
H412 H 0.05882 0.4314 0.48041 0.0
H413 H 0.08303 0.45669 0.50818 0.0
H414 H 0.09498 0.46699 0.33206 0.0
H415 H 0.06984 0.44273 0.30288 0.0
C416 C 0.06373 0.35281 0.24011 0.0
C417 C 0.0521 0.35078 0.18953 0.0
C418 C 0.05873 0.36634 0.2812 0.0
C419 C 0.04203 0.37807 0.27247 0.0
C420 C 0.03058 0.3763 0.22158 0.0
C421 C 0.0355 0.3627 0.18062 0.0
C422 C 0.03681 0.39248 0.31601 0.0
C423 C 0.05094 0.40638 0.33353 0.0
C424 C 0.01788 0.39303 0.33853 0.0
C425 C 0.00278 0.3779 0.32479 0.0
C426 C 0.98406 0.38335 0.3029 0.0
C427 C 0.96987 0.3691 0.28971 0.0
C428 C 0.9742 0.34934 0.29846 0.0
C429 C 0.99272 0.34379 0.32061 0.0
C430 C 0.00695 0.35799 0.33393 0.0
C431 C 0.02133 0.47302 0.45077 0.0
C432 C 0.01394 0.46895 0.50462 0.0
C433 C 0.02461 0.45794 0.41294 0.0
C434 C 0.02125 0.43845 0.42913 0.0
C435 C 0.01303 0.43443 0.48196 0.0
C436 C 0.00925 0.44962 0.51935 0.0
C437 C 0.02725 0.42232 0.39206 0.0
C438 C 0.0133 0.40806 0.37589 0.0
C439 C 0.04651 0.4212 0.37172 0.0
C440 C 0.06224 0.43532 0.38939 0.0
C441 C 0.06647 0.43917 0.4475 0.0
C442 C 0.08035 0.4534 0.46352 0.0
C443 C 0.09063 0.46344 0.42198 0.0
C444 C 0.08697 0.4593 0.36426 0.0
C445 C 0.0728 0.44538 0.34791 0.0
H446 H 0.10142 0.47442 0.43449 0.0
H447 H 0.9632 0.33832 0.28818 0.0
H448 H 0.8655 0.99544 0.10195 0.0
H449 H 0.8901 0.00209 0.0314 0.0
H450 H 0.86917 0.95268 0.933 0.0
H451 H 0.84496 0.94556 0.0045 0.0
H452 H 0.90732 0.95298 0.93589 0.0
H453 H 0.85798 0.00118 0.89389 0.0
H454 H 0.83542 0.02801 0.91466 0.0
H455 H 0.88439 0.06435 0.96637 0.0
H456 H 0.90724 0.03764 0.94661 0.0
H457 H 0.94746 0.99074 0.66927 0.0
H458 H 0.92275 0.98352 0.73984 0.0
H459 H 0.9618 0.00556 0.87378 0.0
H460 H 0.98676 0.01237 0.80403 0.0
H461 H 0.91441 0.01902 0.84973 0.0
H462 H 0.96262 0.96757 0.9048 0.0
H463 H 0.98424 0.9401 0.88267 0.0
H464 H 0.93561 0.91024 0.79941 0.0
H465 H 0.9137 0.93756 0.82135 0.0
C466 C 0.86611 0.986 0.06525 0.0
C467 C 0.85322 0.97001 0.05872 0.0
C468 C 0.88013 0.98988 0.02474 0.0
C469 C 0.88131 0.97809 0.97625 0.0
C470 C 0.86855 0.96202 0.96993 0.0
C471 C 0.85467 0.95799 0.01078 0.0
C472 C 0.896 0.98238 0.93254 0.0
C473 C 0.90865 0.96739 0.91678 0.0
C474 C 0.898 0.00122 0.90765 0.0
C475 C 0.8843 0.01735 0.91925 0.0
C476 C 0.86393 0.01485 0.91005 0.0
C477 C 0.85109 0.03004 0.92159 0.0
C478 C 0.85846 0.04786 0.94195 0.0
C479 C 0.8787 0.05054 0.95066 0.0
C480 C 0.8916 0.03538 0.93924 0.0
C481 C 0.95076 0.9941 0.71372 0.0
C482 C 0.96905 0.00216 0.73108 0.0
C483 C 0.93668 0.98991 0.75389 0.0
C484 C 0.94056 0.99396 0.81181 0.0
C485 C 0.95863 0.00227 0.82921 0.0
C486 C 0.97284 0.00613 0.7893 0.0
C487 C 0.92562 0.98972 0.85418 0.0
C488 C 0.91293 0.00467 0.8692 0.0
C489 C 0.92346 0.97088 0.87809 0.0
C490 C 0.93662 0.95467 0.86399 0.0
C491 C 0.95661 0.95523 0.88123 0.0
C492 C 0.96889 0.93966 0.86894 0.0
C493 C 0.96133 0.92349 0.8393 0.0
C494 C 0.94145 0.9228 0.8222 0.0
C495 C 0.92909 0.93829 0.83469 0.0
H496 H 0.97083 0.91145 0.82975 0.0
H497 H 0.8485 0.0596 0.95087 0.0
H498 H 0.52888 0.86008 0.12012 0.0
H499 H 0.53373 0.88498 0.04631 0.0
H500 H 0.47202 0.88255 0.99797 0.0
H501 H 0.467 0.85774 0.07152 0.0
H502 H 0.49665 0.8779 0.90699 0.0
H503 H 0.48951 0.9212 0.06693 0.0
H504 H 0.49785 0.93376 0.16323 0.0
H505 H 0.55678 0.94567 0.11477 0.0
H506 H 0.54885 0.93302 0.0183 0.0
H507 H 0.48202 0.9577 0.72142 0.0
H508 H 0.48164 0.93377 0.79887 0.0
H509 H 0.54211 0.94739 0.84485 0.0
H510 H 0.54245 0.97189 0.76817 0.0
H511 H 0.52149 0.94543 0.93697 0.0
H512 H 0.52929 0.90436 0.77719 0.0
H513 H 0.5224 0.89124 0.68079 0.0
H514 H 0.46466 0.87384 0.72806 0.0
H515 H 0.47109 0.8871 0.82455 0.0
C516 C 0.5163 0.86503 0.09425 0.0
C517 C 0.49757 0.8569 0.1014 0.0
C518 C 0.5191 0.87927 0.05225 0.0
C519 C 0.50322 0.88553 0.01683 0.0
C520 C 0.48444 0.87783 0.02492 0.0
C521 C 0.48161 0.86371 0.06707 0.0
C522 C 0.50629 0.89925 0.96906 0.0
C523 C 0.50187 0.89275 0.91344 0.0
C524 C 0.51389 0.91828 0.97769 0.0
C525 C 0.51864 0.92596 0.03561 0.0
C526 C 0.50429 0.92635 0.07696 0.0
C527 C 0.50893 0.93354 0.13153 0.0
C528 C 0.52785 0.94048 0.14516 0.0
C529 C 0.54214 0.9403 0.10417 0.0
C530 C 0.53758 0.93314 0.04952 0.0
C531 C 0.49531 0.95551 0.74763 0.0
C532 C 0.51229 0.96663 0.73856 0.0
C533 C 0.49509 0.94176 0.7918 0.0
C534 C 0.51194 0.93859 0.82711 0.0
C535 C 0.52897 0.94958 0.81798 0.0
C536 C 0.52915 0.96351 0.77405 0.0
C537 C 0.51141 0.92425 0.87469 0.0
C538 C 0.5164 0.93056 0.93029 0.0
C539 C 0.50457 0.90491 0.86602 0.0
C540 C 0.50063 0.89687 0.80801 0.0
C541 C 0.51506 0.89787 0.76692 0.0
C542 C 0.51125 0.89038 0.71227 0.0
C543 C 0.49309 0.88175 0.69827 0.0
C544 C 0.47872 0.88054 0.73895 0.0
C545 C 0.48245 0.88802 0.79366 0.0
H546 H 0.49016 0.87596 0.65594 0.0
H547 H 0.53142 0.94602 0.18744 0.0
H548 H 0.68766 0.55963 0.0709 0.0
H549 H 0.66186 0.5457 0.00748 0.0
H550 H 0.6431 0.60368 0.9575 0.0
H551 H 0.66912 0.61775 0.01988 0.0
H552 H 0.61186 0.57487 0.98652 0.0
H553 H 0.66872 0.58355 0.87023 0.0
H554 H 0.70352 0.57907 0.84892 0.0
H555 H 0.69574 0.51679 0.85274 0.0
H556 H 0.66094 0.52091 0.87494 0.0
H557 H 0.55082 0.55771 0.74478 0.0
H558 H 0.57645 0.56991 0.81096 0.0
H559 H 0.6043 0.51337 0.81353 0.0
H560 H 0.57908 0.50134 0.74488 0.0
H561 H 0.63108 0.53989 0.81308 0.0
H562 H 0.57508 0.5294 0.92416 0.0
H563 H 0.54043 0.53186 0.94934 0.0
H564 H 0.54619 0.59417 0.96195 0.0
H565 H 0.58084 0.59212 0.9361 0.0
C566 C 0.67794 0.56941 0.04674 0.0
C567 C 0.68042 0.58978 0.05013 0.0
C568 C 0.66327 0.56144 0.01054 0.0
C569 C 0.65069 0.5737 0.9779 0.0
C570 C 0.6527 0.59402 0.98253 0.0
C571 C 0.66759 0.60201 0.01793 0.0
C572 C 0.63589 0.56534 0.93724 0.0
C573 C 0.61597 0.56738 0.94824 0.0
C574 C 0.64142 0.55502 0.88858 0.0
C575 C 0.6623 0.55254 0.8749 0.0
C576 C 0.67448 0.5689 0.86707 0.0
C577 C 0.69419 0.56642 0.85472 0.0
C578 C 0.70185 0.54765 0.84966 0.0
C579 C 0.68979 0.53132 0.85677 0.0
C580 C 0.67007 0.53372 0.8692 0.0
C581 C 0.56247 0.5479 0.7592 0.0
C582 C 0.56292 0.52854 0.74003 0.0
C583 C 0.57704 0.55485 0.79736 0.0
C584 C 0.59203 0.54241 0.81846 0.0
C585 C 0.59281 0.5232 0.79811 0.0
C586 C 0.57842 0.51634 0.75892 0.0
C587 C 0.60683 0.54953 0.86172 0.0
C588 C 0.62682 0.54725 0.8514 0.0
C589 C 0.60133 0.55929 0.91166 0.0
C590 C 0.58054 0.56061 0.92781 0.0
C591 C 0.56894 0.54364 0.932 0.0
C592 C 0.5493 0.54496 0.94645 0.0
C593 C 0.54113 0.56316 0.95731 0.0
C594 C 0.55257 0.58008 0.95366 0.0
C595 C 0.57221 0.57885 0.93917 0.0
H596 H 0.52593 0.56414 0.96858 0.0
H597 H 0.71712 0.54576 0.84008 0.0
H598 H 0.97217 0.6848 0.0531 0.0
H599 H 0.98781 0.66149 0.99113 0.0
H600 H 0.93092 0.64481 0.91912 0.0
H601 H 0.91532 0.66866 0.97912 0.0
H602 H 0.98735 0.62431 0.97736 0.0
H603 H 0.93251 0.63433 0.78198 0.0
H604 H 0.91173 0.66024 0.7379 0.0
H605 H 0.94958 0.70408 0.81339 0.0
H606 H 0.97073 0.67844 0.85728 0.0
H607 H 0.99031 0.54456 0.79364 0.0
H608 H 0.98227 0.57106 0.85676 0.0
H609 H 0.00183 0.61313 0.73285 0.0
H610 H 0.00923 0.58653 0.6681 0.0
H611 H 0.96925 0.62464 0.77009 0.0
H612 H 0.02866 0.60344 0.86106 0.0
H613 H 0.05294 0.58028 0.90301 0.0
H614 H 0.01283 0.56384 0.03163 0.0
H615 H 0.98818 0.5867 0.98998 0.0
C616 C 0.963 0.67608 0.02421 0.0
C617 C 0.94255 0.67867 0.02046 0.0
C618 C 0.97196 0.66277 0.98886 0.0
C619 C 0.96058 0.6517 0.94958 0.0
C620 C 0.94006 0.65359 0.9479 0.0
C621 C 0.93114 0.66713 0.98246 0.0
C622 C 0.97011 0.63835 0.90976 0.0
C623 C 0.98346 0.62441 0.93201 0.0
C624 C 0.96559 0.63892 0.85024 0.0
C625 C 0.95311 0.65445 0.82327 0.0
C626 C 0.93645 0.64949 0.78892 0.0
C627 C 0.9246 0.66413 0.76403 0.0
C628 C 0.9293 0.68379 0.77296 0.0
C629 C 0.94592 0.68885 0.80665 0.0
C630 C 0.95783 0.67427 0.83159 0.0
C631 C 0.99308 0.55944 0.77988 0.0
C632 C 1.00044 0.56347 0.72586 0.0
C633 C 0.98859 0.5746 0.81629 0.0
C634 C 0.99176 0.59411 0.80007 0.0
C635 C 0.99931 0.59818 0.74635 0.0
C636 C 0.00355 0.58299 0.70943 0.0
C637 C 0.98601 0.61016 0.83793 0.0
C638 C 0.97334 0.62463 0.81532 0.0
C639 C 0.99173 0.61048 0.89673 0.0
C640 C 0.00651 0.59671 0.92211 0.0
C641 C 0.02495 0.59479 0.89805 0.0
C642 C 0.0388 0.58173 0.92182 0.0
C643 C 0.03442 0.57057 0.9699 0.0
C644 C 0.0162 0.57249 0.99438 0.0
C645 C 0.00229 0.58552 0.97075 0.0
H646 H 0.04516 0.56047 0.98824 0.0
H647 H 0.92009 0.6951 0.75371 0.0
H648 H 0.02603 0.24715 0.08389 0.0
H649 H 0.01209 0.21656 0.11968 0.0
H650 H 0.06733 0.20325 0.20781 0.0
H651 H 0.0813 0.23367 0.17178 0.0
H652 H 0.05143 0.17085 0.16214 0.0
H653 H 0.02885 0.22439 0.27618 0.0
H654 H 0.0124 0.25583 0.29123 0.0
H655 H 0.95857 0.23266 0.21737 0.0
H656 H 0.97479 0.20114 0.20126 0.0
H657 H 0.0261 0.11114 0.39482 0.0
H658 H 0.03675 0.13732 0.33204 0.0
H659 H 0.97874 0.13995 0.25167 0.0
H660 H 0.96784 0.11375 0.3149 0.0
H661 H 0.99312 0.17606 0.28075 0.0
H662 H 0.01492 0.12091 0.17948 0.0
H663 H 0.03159 0.08973 0.16335 0.0
H664 H 0.08694 0.11546 0.21559 0.0
H665 H 0.07061 0.14689 0.23178 0.0
C666 C 0.03522 0.23758 0.11049 0.0
C667 C 0.05481 0.24267 0.12459 0.0
C668 C 0.02725 0.22013 0.13093 0.0
C669 C 0.0386 0.20769 0.16694 0.0
C670 C 0.05832 0.21254 0.1798 0.0
C671 C 0.06634 0.22989 0.15897 0.0
C672 C 0.02975 0.19024 0.19412 0.0
C673 C 0.03877 0.17201 0.18843 0.0
C674 C 0.01285 0.19161 0.227 0.0
C675 C 0.00308 0.21051 0.23694 0.0
C676 C 0.01354 0.22606 0.2628 0.0
C677 C 0.00425 0.24388 0.27157 0.0
C678 C 0.98446 0.24626 0.25511 0.0
C679 C 0.9739 0.2308 0.23 0.0
C680 C 0.98313 0.21296 0.22106 0.0
C681 C 0.01554 0.11725 0.36396 0.0
C682 C 0.99611 0.11019 0.35984 0.0
C683 C 0.02173 0.13211 0.32764 0.0
C684 C 0.00862 0.14039 0.28662 0.0
C685 C 0.98915 0.13362 0.28271 0.0
C686 C 0.98298 0.11859 0.31872 0.0
C687 C 0.01511 0.15678 0.25003 0.0
C688 C 0.00563 0.17482 0.25391 0.0
C689 C 0.03164 0.15523 0.2158 0.0
C690 C 0.0415 0.13625 0.20719 0.0
C691 C 0.03062 0.1199 0.18801 0.0
C692 C 0.04003 0.10219 0.17859 0.0
C693 C 0.06031 0.1006 0.18858 0.0
C694 C 0.07123 0.11673 0.20783 0.0
C695 C 0.06192 0.13452 0.21687 0.0
H696 H 0.06756 0.08686 0.18137 0.0
H697 H 0.9773 0.26007 0.26193 0.0
H698 H 0.29281 0.06727 0.05614 0.0
H699 H 0.3199 0.05904 0.12313 0.0
H700 H 0.28165 0.02092 0.21568 0.0
H701 H 0.25423 0.02956 0.14967 0.0
H702 H 0.30606 0.03916 0.28788 0.0
H703 H 0.31241 0.00347 0.11529 0.0
H704 H 0.31538 0.99763 0.01238 0.0
H705 H 0.3681 0.03217 0.01302 0.0
H706 H 0.36519 0.03867 0.11562 0.0
H707 H 0.3846 0.98129 0.41511 0.0
H708 H 0.35512 0.99227 0.36079 0.0
H709 H 0.38927 0.0366 0.27786 0.0
H710 H 0.41873 0.02571 0.33173 0.0
H711 H 0.36638 0.01419 0.20296 0.0
H712 H 0.35917 0.05013 0.37671 0.0
H713 H 0.35677 0.0539 0.4807 0.0
H714 H 0.30613 0.01633 0.47823 0.0
H715 H 0.30833 0.01219 0.37423 0.0
C716 C 0.29007 0.05732 0.09115 0.0
C717 C 0.27142 0.04889 0.09725 0.0
C718 C 0.30561 0.05256 0.12926 0.0
C719 C 0.30291 0.03898 0.17351 0.0
C720 C 0.28408 0.03132 0.18157 0.0
C721 C 0.26843 0.03628 0.14381 0.0
C722 C 0.31993 0.03219 0.20968 0.0
C723 C 0.31916 0.03348 0.26931 0.0
C724 C 0.33712 0.02496 0.18543 0.0
C725 C 0.33848 0.0217 0.12314 0.0
C726 C 0.32448 0.01006 0.09336 0.0
C727 C 0.32618 0.00661 0.03507 0.0
C728 C 0.34191 0.01455 0.00622 0.0
C729 C 0.35589 0.0261 0.03542 0.0
C730 C 0.35422 0.02968 0.09362 0.0
C731 C 0.3858 0.9934 0.38541 0.0
C732 C 0.40394 0.00272 0.3779 0.0
C733 C 0.36895 -0.00027 0.35477 0.0
C734 C 0.37005 0.01534 0.31579 0.0
C735 C 0.38814 0.0246 0.30804 0.0
C736 C 0.40491 0.01842 0.33901 0.0
C737 C 0.35259 0.02147 0.28077 0.0
C738 C 0.35327 0.01992 0.22135 0.0
C739 C 0.33533 0.02828 0.30523 0.0
C740 C 0.33403 0.03071 0.36777 0.0
C741 C 0.34761 0.04255 0.3984 0.0
C742 C 0.34624 0.04482 0.45731 0.0
C743 C 0.33132 0.03534 0.48606 0.0
C744 C 0.31769 0.02364 0.45591 0.0
C745 C 0.31897 0.02136 0.39697 0.0
H746 H 0.33029 0.03709 0.53167 0.0
H747 H 0.34338 0.01163 0.96135 0.0
H748 H 0.5382 0.26785 0.13659 0.0
H749 H 0.53062 0.29935 0.17876 0.0
H750 H 0.59245 0.3114 0.20406 0.0
H751 H 0.60019 0.28057 0.15863 0.0
H752 H 0.56689 0.31304 0.30518 0.0
H753 H 0.57211 0.33525 0.10876 0.0
H754 H 0.56307 0.33683 0.00587 0.0
H755 H 0.50435 0.35325 0.04342 0.0
H756 H 0.51289 0.35132 0.14668 0.0
H757 H 0.5816 0.40883 0.39513 0.0
H758 H 0.58169 0.37823 0.34284 0.0
H759 H 0.51988 0.38461 0.30003 0.0
H760 H 0.51975 0.4156 0.35161 0.0
H761 H 0.54012 0.37253 0.20828 0.0
H762 H 0.53321 0.3525 0.39967 0.0
H763 H 0.53989 0.35119 0.50382 0.0
H764 H 0.59792 0.32972 0.47837 0.0
H765 H 0.59169 0.33117 0.37399 0.0
C766 C 0.55019 0.27754 0.14855 0.0
C767 C 0.56981 0.27192 0.1424 0.0
C768 C 0.54581 0.29542 0.17354 0.0
C769 C 0.56099 0.3077 0.19397 0.0
C770 C 0.58055 0.30213 0.18817 0.0
C771 C 0.58493 0.28448 0.16231 0.0
C772 C 0.55668 0.32576 0.22511 0.0
C773 C 0.56117 0.32611 0.28401 0.0
C774 C 0.54836 0.34244 0.19767 0.0
C775 C 0.54308 0.34287 0.13558 0.0
C776 C 0.55717 0.33885 0.09519 0.0
C777 C 0.55216 0.3399 0.03678 0.0
C778 C 0.53316 0.34515 0.01821 0.0
C779 C 0.51906 0.34918 0.05794 0.0
C780 C 0.52397 0.34808 0.1164 0.0
C781 C 0.56805 0.40389 0.37406 0.0
C782 C 0.55069 0.41474 0.37734 0.0
C783 C 0.56808 0.38628 0.34463 0.0
C784 C 0.55075 0.37903 0.31804 0.0
C785 C 0.53341 0.38991 0.3204 0.0
C786 C 0.53335 0.40756 0.35014 0.0
C787 C 0.55098 0.36003 0.28813 0.0
C788 C 0.54562 0.35942 0.22965 0.0
C789 C 0.55812 0.34292 0.3161 0.0
C790 C 0.56203 0.3421 0.37891 0.0
C791 C 0.54746 0.34766 0.41623 0.0
C792 C 0.55115 0.34686 0.47533 0.0
C793 C 0.56933 0.34042 0.49768 0.0
C794 C 0.58384 0.33473 0.46098 0.0
C795 C 0.58023 0.33551 0.40183 0.0
H796 H 0.57217 0.33981 0.54342 0.0
H797 H 0.52938 0.34625 0.97306 0.0
H798 H 0.25189 0.46442 0.22688 0.0
H799 H 0.22352 0.47958 0.2681 0.0
H800 H 0.18522 0.45177 0.14183 0.0
H801 H 0.21369 0.4375 0.09855 0.0
H802 H 0.17365 0.48799 0.15803 0.0
H803 H 0.19017 0.43376 0.28053 0.0
H804 H 0.21186 0.41278 0.34128 0.0
H805 H 0.22391 0.46071 0.45446 0.0
H806 H 0.2025 0.48206 0.39395 0.0
H807 H 0.08757 0.5083 0.31145 0.0
H808 H 0.1139 0.49292 0.2604 0.0
H809 H 0.15666 0.51634 0.3828 0.0
H810 H 0.1303 0.53121 0.4348 0.0
H811 H 0.16437 0.4801 0.36578 0.0
H812 H 0.14941 0.53492 0.23791 0.0
H813 H 0.12771 0.55552 0.17584 0.0
H814 H 0.11209 0.50572 0.07324 0.0
H815 H 0.13347 0.4848 0.13527 0.0
C816 C 0.23744 0.46153 0.20776 0.0
C817 C 0.23504 0.44913 0.16047 0.0
C818 C 0.2212 0.47011 0.23164 0.0
C819 C 0.20216 0.46637 0.20911 0.0
C820 C 0.19974 0.45459 0.16062 0.0
C821 C 0.21604 0.44609 0.13647 0.0
C822 C 0.18486 0.47475 0.23649 0.0
C823 C 0.17148 0.48607 0.20334 0.0
C824 C 0.18208 0.4724 0.29569 0.0
C825 C 0.19485 0.45955 0.33244 0.0
C826 C 0.19754 0.43986 0.31818 0.0
C827 C 0.20977 0.42789 0.3526 0.0
C828 C 0.21929 0.43542 0.40163 0.0
C829 C 0.21655 0.45491 0.41644 0.0
C830 C 0.20435 0.46694 0.38214 0.0
C831 C 0.10263 0.51036 0.32693 0.0
C832 C 0.10692 0.52097 0.37698 0.0
C833 C 0.11768 0.50161 0.29765 0.0
C834 C 0.13735 0.50366 0.31723 0.0
C835 C 0.14162 0.5145 0.36685 0.0
C836 C 0.12657 0.52299 0.39655 0.0
C837 C 0.15347 0.49387 0.28777 0.0
C838 C 0.16655 0.48209 0.3205 0.0
C839 C 0.1559 0.49575 0.22824 0.0
C840 C 0.14296 0.50831 0.19128 0.0
C841 C 0.14125 0.52836 0.2023 0.0
C842 C 0.12901 0.54009 0.16713 0.0
C843 C 0.11851 0.53193 0.12067 0.0
C844 C 0.1202 0.51202 0.10929 0.0
C845 C 0.13239 0.50023 0.14438 0.0
H846 H 0.10907 0.54103 0.09345 0.0
H847 H 0.22876 0.42613 0.42821 0.0
H848 H 0.96394 0.79151 0.16076 0.0
H849 H 0.98124 0.81971 0.1233 0.0
H850 H 0.96125 0.80431 0.95241 0.0
H851 H 0.94519 0.7752 0.98962 0.0
H852 H 0.99832 0.81422 0.95271 0.0
H853 H 0.9403 0.84238 0.03382 0.0
H854 H 0.91825 0.84827 0.11261 0.0
H855 H 0.9658 0.8744 0.2112 0.0
H856 H 0.98817 0.86852 0.13309 0.0
H857 H 0.00886 0.90046 0.79502 0.0
H858 H 0.99619 0.8725 0.84724 0.0
H859 H 0.02303 0.89455 0.00383 0.0
H860 H 0.03526 0.92311 0.95177 0.0
H861 H 0.98616 0.88142 0.02004 0.0
H862 H 0.04343 0.85631 0.93828 0.0
H863 H 0.06646 0.85001 0.86232 0.0
H864 H 0.02182 0.81767 0.76875 0.0
H865 H 0.99843 0.82399 0.84383 0.0
C866 C 0.96373 0.79371 0.11525 0.0
C867 C 0.9537 0.78067 0.07826 0.0
C868 C 0.97327 0.81017 0.09381 0.0
C869 C 0.97248 0.81427 0.03495 0.0
C870 C 0.96216 0.80145 0.99799 0.0
C871 C 0.95287 0.78487 0.01938 0.0
C872 C 0.98254 0.8317 0.01129 0.0
C873 C 0.99547 0.82892 0.96705 0.0
C874 C 0.97952 0.85084 0.0316 0.0
C875 C 0.96594 0.85486 0.07784 0.0
C876 C 0.94606 0.84933 0.07237 0.0
C877 C 0.93351 0.85267 0.11689 0.0
C878 C 0.94063 0.86166 0.16694 0.0
C879 C 0.96031 0.86743 0.17243 0.0
C880 C 0.97292 0.86413 0.12801 0.0
C881 C 0.012 0.89945 0.84063 0.0
C882 C 0.02305 0.91402 0.86928 0.0
C883 C 0.00488 0.88335 0.87038 0.0
C884 C 0.00887 0.88128 0.92935 0.0
C885 C 0.01984 0.89582 0.95829 0.0
C886 C 0.02696 0.91202 0.92845 0.0
C887 C 0.00138 0.86392 0.96024 0.0
C888 C 0.98907 0.8667 0.00597 0.0
C889 C 0.00507 0.84473 0.94166 0.0
C890 C 0.01913 0.84074 0.89655 0.0
C891 C 0.03848 0.84796 0.90134 0.0
C892 C 0.05161 0.84437 0.85846 0.0
C893 C 0.0456 0.83347 0.8107 0.0
C894 C 0.02646 0.82611 0.80578 0.0
C895 C 0.01326 0.82966 0.84853 0.0
H896 H 0.05578 0.83072 0.77753 0.0
H897 H 0.93091 0.86417 0.20143 0.0
H898 H 0.74924 0.96144 0.0747 0.0
H899 H 0.71847 0.97208 0.02812 0.0
H900 H 0.70163 0.99884 0.18446 0.0
H901 H 0.73258 0.98806 0.23179 0.0
H902 H 0.67033 0.98048 0.12756 0.0
H903 H 0.71995 0.027 0.08303 0.0
H904 H 0.75224 0.03802 0.05129 0.0
H905 H 0.73983 0.01297 0.88639 0.0
H906 H 0.70757 0.00155 0.91739 0.0
H907 H 0.59593 0.03583 0.97114 0.0
H908 H 0.62398 0.0265 0.03416 0.0
H909 H 0.65042 0.99785 0.89359 0.0
H910 H 0.62284 0.00762 0.83016 0.0
H911 H 0.67645 0.02034 0.95118 0.0
H912 H 0.62748 0.97211 -0.0014 0.0
H913 H 0.59532 0.96099 0.03127 0.0
H914 H 0.6064 0.98976 0.19147 0.0
H915 H 0.63851 0.00129 0.15944 0.0
C916 C 0.73894 0.96945 0.09943 0.0
C917 C 0.74335 0.97393 0.15694 0.0
C918 C 0.72137 0.97555 0.0727 0.0
C919 C 0.70793 0.98656 0.10253 0.0
C920 C 0.71185 0.99039 0.16067 0.0
C921 C 0.72948 0.98414 0.18773 0.0
C922 C 0.69033 0.99468 0.07164 0.0
C923 C 0.67161 0.98948 0.08955 0.0
C924 C 0.69206 0.00627 0.02174 0.0
C925 C 0.71138 0.0133 0.0027 0.0
C926 C 0.72415 0.02374 0.04011 0.0
C927 C 0.74245 0.03007 0.02224 0.0
C928 C 0.7481 0.02617 0.96689 0.0
C929 C 0.73544 0.01598 0.92925 0.0
C930 C 0.71713 0.00959 0.94693 0.0
C931 C 0.6078 0.02765 0.95362 0.0
C932 C 0.60714 0.02243 0.89563 0.0
C933 C 0.62371 0.02217 0.98981 0.0
C934 C 0.6392 0.01131 0.9687 0.0
C935 C 0.6386 0.00616 0.91084 0.0
C936 C 0.62274 0.01163 0.87472 0.0
C937 C 0.6564 0.00569 0.00605 0.0
C938 C 0.6751 0.01148 0.98946 0.0
C939 C 0.65459 0.99472 0.05713 0.0
C940 C 0.6353 0.98776 0.07635 0.0
C941 C 0.62298 0.97622 0.04059 0.0
C942 C 0.60478 0.96981 0.05903 0.0
C943 C 0.5988 0.97473 0.11333 0.0
C944 C 0.61104 0.986 0.14937 0.0
C945 C 0.62924 0.99247 0.13111 0.0
H946 H 0.58471 0.96978 0.12754 0.0
H947 H 0.76227 0.03108 0.95314 0.0
H948 H 0.50919 0.74845 0.11267 0.0
H949 H 0.51023 0.71742 0.06173 0.0
H950 H 0.44784 0.71031 0.07784 0.0
H951 H 0.44651 0.74173 0.12616 0.0
H952 H 0.47117 0.67599 0.10734 0.0
H953 H 0.46211 0.72438 0.9566 0.0
H954 H 0.47062 0.75437 0.90382 0.0
H955 H 0.52722 0.7307 0.87104 0.0
H956 H 0.51914 0.70067 0.92436 0.0
H957 H 0.45092 0.59921 0.9163 0.0
H958 H 0.45103 0.63022 0.96632 0.0
H959 H 0.50973 0.6421 0.9129 0.0
H960 H 0.50923 0.61171 0.85928 0.0
H961 H 0.48963 0.67398 0.90493 0.0
H962 H 0.4999 0.62588 0.05126 0.0
H963 H 0.4935 0.59594 0.10687 0.0
H964 H 0.4376 0.61852 0.15161 0.0
H965 H 0.44356 0.64852 0.09561 0.0
C966 C 0.49568 0.74029 0.10535 0.0
C967 C 0.47783 0.74732 0.12494 0.0
C968 C 0.49632 0.72256 0.07639 0.0
C969 C 0.47913 0.71153 0.06645 0.0
C970 C 0.46131 0.71848 0.08589 0.0
C971 C 0.46062 0.73634 0.11419 0.0
C972 C 0.47965 0.69296 0.03461 0.0
C973 C 0.47495 0.67552 0.06288 0.0
C974 C 0.48527 0.69236 0.97727 0.0
C975 C 0.4901 0.71037 0.94499 0.0
C976 C 0.47643 0.72564 0.93857 0.0
C977 C 0.48116 0.74263 0.90847 0.0
C978 C 0.49947 0.74446 0.88423 0.0
C979 C 0.51306 0.72928 0.88991 0.0
C980 C 0.5084 0.71226 0.92003 0.0
C981 C 0.46376 0.60851 0.91428 0.0
C982 C 0.48009 0.60282 0.88373 0.0
C983 C 0.46391 0.62616 0.94373 0.0
C984 C 0.48054 0.63836 0.94447 0.0
C985 C 0.49676 0.63289 0.91337 0.0
C986 C 0.49653 0.61536 0.88321 0.0
C987 C 0.48093 0.65685 0.97736 0.0
C988 C 0.48586 0.67433 0.94941 0.0
C989 C 0.47581 0.65743 0.03531 0.0
C990 C 0.47211 0.63937 0.06879 0.0
C991 C 0.48616 0.62438 0.07247 0.0
C992 C 0.48262 0.60741 0.10415 0.0
C993 C 0.46513 0.6053 0.1326 0.0
C994 C 0.45113 0.62017 0.12946 0.0
C995 C 0.45459 0.63716 0.09781 0.0
H996 H 0.46244 0.59218 0.15722 0.0
H997 H 0.50311 0.75763 0.86094 0.0
H998 H 0.79326 0.56328 0.17392 0.0
H999 H 0.82173 0.54848 0.13183 0.0
H1000 H 0.80708 0.57771 0.97184 0.0
H1001 H 0.77798 0.59167 0.01318 0.0
H1002 H 0.81504 0.54181 0.95151 0.0
H1003 H 0.84743 0.591 0.07202 0.0
H1004 H 0.85463 0.60709 0.16435 0.0
H1005 H 0.8765 0.55305 0.23587 0.0
H1006 H 0.86926 0.5366 0.14408 0.0
H1007 H 0.90183 0.53192 0.80551 0.0
H1008 H 0.87486 0.54453 0.85923 0.0
H1009 H 0.89205 0.5074 0.00224 0.0
H1010 H 0.91957 0.49505 0.94906 0.0
H1011 H 0.88283 0.54396 0.03689 0.0
H1012 H 0.85299 0.49509 0.9194 0.0
H1013 H 0.84501 0.47724 0.83052 0.0
H1014 H 0.81759 0.52848 0.75716 0.0
H1015 H 0.82565 0.54675 0.84535 0.0
C1016 C 0.79588 0.56616 0.12943 0.0
C1017 C 0.78304 0.57803 0.09621 0.0
C1018 C 0.8124 0.55801 0.10566 0.0
C1019 C 0.8166 0.56187 0.04848 0.0
C1020 C 0.8041 0.57433 0.01589 0.0
C1021 C 0.78753 0.58239 0.03959 0.0
C1022 C 0.83348 0.5524 0.02162 0.0
C1023 C 0.8299 0.54259 0.96982 0.0
C1024 C 0.85277 0.5525 0.04677 0.0
C1025 C 0.85767 0.56255 0.10134 0.0
C1026 C 0.85373 0.58255 0.10749 0.0
C1027 C 0.85781 0.59172 0.15972 0.0
C1028 C 0.86595 0.58108 0.206 0.0
C1029 C 0.87016 0.56126 0.20002 0.0
C1030 C 0.86611 0.55202 0.14788 0.0
C1031 C 0.90003 0.52655 0.8486 0.0
C1032 C 0.91288 0.51249 0.87303 0.0
C1033 C 0.88448 0.53365 0.87908 0.0
C1034 C 0.8813 0.52675 0.93452 0.0
C1035 C 0.8942 0.51287 0.95944 0.0
C1036 C 0.9098 0.50572 0.92885 0.0
C1037 C 0.86441 0.5341 0.96591 0.0
C1038 C 0.86796 0.54329 0.01864 0.0
C1039 C 0.84503 0.53328 0.942 0.0
C1040 C 0.84008 0.52234 0.88886 0.0
C1041 C 0.84539 0.50261 0.88416 0.0
C1042 C 0.84083 0.4924 0.83393 0.0
C1043 C 0.83084 0.50173 0.78817 0.0
C1044 C 0.82534 0.52128 0.79262 0.0
C1045 C 0.82989 0.53156 0.84275 0.0
H1046 H 0.82732 0.4938 0.74932 0.0
H1047 H 0.86903 0.58819 0.24646 0.0
H1048 H 0.04709 0.20081 0.9523 0.0
H1049 H 0.0396 0.17282 0.89157 0.0
H1050 H 0.09898 0.15216 0.91844 0.0
H1051 H 0.1067 0.18031 0.97957 0.0
H1052 H 0.08476 0.15085 0.80317 0.0
H1053 H 0.06548 0.13044 0.98828 0.0
H1054 H 0.04898 0.13467 0.07879 0.0
H1055 H 0.99303 0.13704 0.98779 0.0
H1056 H 0.00926 0.13326 0.89645 0.0
H1057 H 0.06503 0.05449 0.70115 0.0
H1058 H 0.07515 0.08284 0.75779 0.0
H1059 H 0.01614 0.10533 0.74288 0.0
H1060 H 0.00582 0.07699 0.68622 0.0
H1061 H 0.03139 0.1051 0.85399 0.0
H1062 H 0.05076 0.12641 0.66892 0.0
H1063 H 0.06739 0.12373 0.57797 0.0
H1064 H 0.12323 0.1199 0.66912 0.0
H1065 H 0.10689 0.12227 0.76074 0.0
C1066 C 0.05861 0.19036 0.94532 0.0
C1067 C 0.07748 0.19273 0.97085 0.0
C1068 C 0.05428 0.17437 0.91067 0.0
C1069 C 0.06871 0.16042 0.90095 0.0
C1070 C 0.08767 0.16283 0.92557 0.0
C1071 C 0.09201 0.17882 0.96063 0.0
C1072 C 0.06373 0.14318 0.86571 0.0
C1073 C 0.07333 0.14062 0.81462 0.0
C1074 C 0.04853 0.13017 0.88041 0.0
C1075 C 0.03862 0.13173 0.93542 0.0
C1076 C 0.04966 0.13196 0.98751 0.0
C1077 C 0.04035 0.13428 0.03899 0.0
C1078 C 0.01996 0.13617 0.03906 0.0
C1079 C 0.00883 0.13561 0.98765 0.0
C1080 C 0.01808 0.13337 0.93599 0.0
C1081 C 0.05422 0.06554 0.70944 0.0
C1082 C 0.0346 0.06345 0.68933 0.0
C1083 C 0.06005 0.08175 0.74172 0.0
C1084 C 0.04638 0.09615 0.75442 0.0
C1085 C 0.02688 0.09431 0.7336 0.0
C1086 C 0.02105 0.07816 0.70101 0.0
C1087 C 0.05232 0.11281 0.79105 0.0
C1088 C 0.04289 0.11524 0.84257 0.0
C1089 C 0.0677 0.12567 0.77676 0.0
C1090 C 0.07758 0.1243 0.72172 0.0
C1091 C 0.06657 0.12482 0.66961 0.0
C1092 C 0.07595 0.12339 0.61792 0.0
C1093 C 0.09635 0.12159 0.61777 0.0
C1094 C 0.10742 0.12127 0.66931 0.0
C1095 C 0.09811 0.12267 0.72113 0.0
H1096 H 0.10359 0.12049 0.57771 0.0
H1097 H 0.01277 0.13807 0.07891 0.0
H1098 H 0.31516 0.02439 0.90258 0.0
H1099 H 0.34678 0.02391 0.85771 0.0
H1100 H 0.32356 0.06069 0.72103 0.0
H1101 H 0.2917 0.06162 0.76655 0.0
H1102 H 0.34903 0.02534 0.69087 0.0
H1103 H 0.34845 0.0834 0.80751 0.0
H1104 H 0.34293 0.10105 0.89658 0.0
H1105 H 0.38552 0.06496 0.98654 0.0
H1106 H 0.39097 0.04678 0.89825 0.0
H1107 H 0.44368 0.04117 0.588 0.0
H1108 H 0.41051 0.0474 0.61879 0.0
H1109 H 0.42834 0.03021 0.79085 0.0
H1110 H 0.46179 0.02495 0.76074 0.0
H1111 H 0.40416 0.05845 0.7967 0.0
H1112 H 0.40309 0.99837 0.69382 0.0
H1113 H 0.40976 0.9776 0.61152 0.0
H1114 H 0.37155 0.01293 0.50363 0.0
H1115 H 0.36484 0.03414 0.58536 0.0
C1116 C 0.31666 0.03229 0.86277 0.0
C1117 C 0.30094 0.04319 0.83845 0.0
C1118 C 0.33475 0.03196 0.83718 0.0
C1119 C 0.33751 0.04236 0.78636 0.0
C1120 C 0.32167 0.05258 0.76033 0.0
C1121 C 0.30353 0.05313 0.78643 0.0
C1122 C 0.35736 0.04327 0.76292 0.0
C1123 C 0.36104 0.03291 0.71317 0.0
C1124 C 0.37309 0.05257 0.79331 0.0
C1125 C 0.37 0.06363 0.84633 0.0
C1126 C 0.35651 0.07911 0.84639 0.0
C1127 C 0.3534 0.08921 0.89674 0.0
C1128 C 0.36382 0.08408 0.94723 0.0
C1129 C 0.37743 0.06888 0.94742 0.0
C1130 C 0.38053 0.05868 0.89724 0.0
C1131 C 0.44057 0.03897 0.63256 0.0
C1132 C 0.4553 0.03247 0.67194 0.0
C1133 C 0.42156 0.0424 0.65006 0.0
C1134 C 0.41672 0.03882 0.70692 0.0
C1135 C 0.43163 0.03304 0.74671 0.0
C1136 C 0.45077 0.03001 0.72947 0.0
C1137 C 0.39604 0.04037 0.72463 0.0
C1138 C 0.39218 0.05111 0.7736 0.0
C1139 C 0.38024 0.03098 0.69432 0.0
C1140 C 0.38357 0.01791 0.64555 0.0
C1141 C 0.39613 0.00173 0.65252 0.0
C1142 C 0.39993 0.98991 0.60602 0.0
C1143 C 0.39111 0.99399 0.55241 0.0
C1144 C 0.37836 0.00984 0.54524 0.0
C1145 C 0.37452 0.02174 0.59165 0.0
H1146 H 0.39415 0.98484 0.51652 0.0
H1147 H 0.36139 0.09192 0.98617 0.0
H1148 H 0.49822 0.30099 0.93994 0.0
H1149 H 0.48906 0.32963 0.88154 0.0
H1150 H 0.54947 0.33709 0.83727 0.0
H1151 H 0.55862 0.30842 0.89428 0.0
H1152 H 0.50006 0.36574 0.89764 0.0
H1153 H 0.5532 0.35807 0.7096 0.0
H1154 H 0.56575 0.33212 0.6489 0.0
H1155 H 0.51571 0.29625 0.6834 0.0
H1156 H 0.50274 0.32206 0.74382 0.0
H1157 H 0.52537 0.45778 0.79078 0.0
H1158 H 0.52397 0.42464 0.82982 0.0
H1159 H 0.49778 0.40428 0.67007 0.0
H1160 H 0.50037 0.43725 0.62983 0.0
H1161 H 0.52259 0.37963 0.70287 0.0
H1162 H 0.47111 0.41033 0.79812 0.0
H1163 H 0.4551 0.43549 0.85436 0.0
H1164 H 0.49483 0.42345 0.99722 0.0
H1165 H 0.51128 0.39841 0.94162 0.0
C1166 C 0.50948 0.30857 0.91703 0.0
C1167 C 0.52915 0.30247 0.92175 0.0
C1168 C 0.50423 0.32492 0.88372 0.0
C1169 C 0.51854 0.33535 0.8545 0.0
C1170 C 0.5381 0.32902 0.85834 0.0
C1171 C 0.54334 0.3127 0.8914 0.0
C1172 C 0.51358 0.35387 0.82421 0.0
C1173 C 0.50476 0.36874 0.85478 0.0
C1174 C 0.5193 0.35762 0.76785 0.0
C1175 C 0.52706 0.34198 0.7316 0.0
C1176 C 0.54482 0.34469 0.70406 0.0
C1177 C 0.55202 0.32999 0.6697 0.0
C1178 C 0.54154 0.31255 0.66231 0.0
C1179 C 0.52384 0.30975 0.68929 0.0
C1180 C 0.51658 0.32439 0.72371 0.0
C1181 C 0.51926 0.44621 0.76418 0.0
C1182 C 0.51297 0.44999 0.70743 0.0
C1183 C 0.51829 0.4273 0.78662 0.0
C1184 C 0.51034 0.41197 0.75338 0.0
C1185 C 0.50393 0.41583 0.69665 0.0
C1186 C 0.5054 0.43465 0.6737 0.0
C1187 C 0.50965 0.39178 0.77698 0.0
C1188 C 0.51749 0.37659 0.74526 0.0
C1189 C 0.50247 0.3876 0.83166 0.0
C1190 C 0.49251 0.40256 0.8655 0.0
C1191 C 0.47651 0.41312 0.84142 0.0
C1192 C 0.46735 0.42736 0.87321 0.0
C1193 C 0.47396 0.43109 0.92929 0.0
C1194 C 0.48972 0.42055 0.95377 0.0
C1195 C 0.49896 0.40631 0.92215 0.0
H1196 H 0.46685 0.44213 0.95382 0.0
H1197 H 0.54713 0.3012 0.63564 0.0
H1198 H 0.20815 0.45637 0.91756 0.0
H1199 H 0.18202 0.46959 0.8542 0.0
H1200 H 0.14653 0.41851 0.8843 0.0
H1201 H 0.17254 0.40519 0.9486 0.0
H1202 H 0.14722 0.43313 0.76468 0.0
H1203 H 0.13801 0.45461 0.95888 0.0
H1204 H 0.14978 0.46999 0.04868 0.0
H1205 H 0.15982 0.52387 0.95903 0.0
H1206 H 0.14863 0.50862 0.86832 0.0
H1207 H 0.05012 0.46357 0.69913 0.0
H1208 H 0.08074 0.45077 0.74188 0.0
H1209 H 0.10753 0.50776 0.72861 0.0
H1210 H 0.07691 0.52076 0.68561 0.0
H1211 H 0.11339 0.49177 0.83464 0.0
H1212 H 0.12437 0.47328 0.64443 0.0
H1213 H 0.11755 0.45948 0.54891 0.0
H1214 H 0.10691 0.40316 0.62405 0.0
H1215 H 0.11394 0.41661 0.72016 0.0
C1216 C 0.19491 0.44779 0.91017 0.0
C1217 C 0.1923 0.42981 0.93838 0.0
C1218 C 0.18002 0.45539 0.87401 0.0
C1219 C 0.1624 0.44505 0.86513 0.0
C1220 C 0.1601 0.42665 0.89084 0.0
C1221 C 0.17489 0.41913 0.92764 0.0
C1222 C 0.14585 0.45406 0.83229 0.0
C1223 C 0.13963 0.4458 0.78014 0.0
C1224 C 0.13659 0.47105 0.85176 0.0
C1225 C 0.14271 0.48039 0.90665 0.0
C1226 C 0.14288 0.46968 0.9582 0.0
C1227 C 0.14945 0.47838 0.00929 0.0
C1228 C 0.15561 0.49788 0.00953 0.0
C1229 C 0.1551 0.50875 0.95874 0.0
C1230 C 0.14867 0.50008 0.90746 0.0
C1231 C 0.06252 0.47339 0.70507 0.0
C1232 C 0.06104 0.49321 0.68934 0.0
C1233 C 0.08006 0.46601 0.7291 0.0
C1234 C 0.09641 0.4783 0.73801 0.0
C1235 C 0.09506 0.49805 0.72194 0.0
C1236 C 0.07756 0.50543 0.6974 0.0
C1237 C 0.11446 0.47065 0.76719 0.0
C1238 C 0.12098 0.47915 0.81886 0.0
C1239 C 0.12425 0.45412 0.74677 0.0
C1240 C 0.11947 0.446 0.68945 0.0
C1241 C 0.12041 0.45799 0.64061 0.0
C1242 C 0.1166 0.45021 0.58635 0.0
C1243 C 0.11166 0.43048 0.5804 0.0
C1244 C 0.11068 0.41845 0.62873 0.0
C1245 C 0.11468 0.42612 0.68309 0.0
H1246 H 0.10866 0.42449 0.53834 0.0
H1247 H 0.16076 0.50457 0.04907 0.0
H1248 H 0.9966 0.80623 0.35222 0.0
H1249 H 1.00049 0.83618 0.40808 0.0
H1250 H 0.94113 0.85275 0.35924 0.0
H1251 H 0.93705 0.82291 0.30372 0.0
H1252 H 0.96904 0.88165 0.3394 0.0
H1253 H 0.95104 0.83793 0.49125 0.0
H1254 H 0.95399 0.80848 0.55234 0.0
H1255 H 0.01238 0.82564 0.60737 0.0
H1256 H 0.0099 0.85505 0.54588 0.0
H1257 H 0.96824 0.96741 0.50422 0.0
H1258 H 0.95946 0.93569 0.46275 0.0
H1259 H 0.01229 0.91071 0.54053 0.0
H1260 H 0.02029 0.94197 0.58506 0.0
H1261 H 0.98576 0.88548 0.54698 0.0
H1262 H 0.00657 0.92647 0.39281 0.0
H1263 H 0.00621 0.95547 0.3295 0.0
H1264 H 0.94656 0.94294 0.27523 0.0
H1265 H 0.94648 0.914 0.33881 0.0
C1266 C 0.98432 0.81616 0.35391 0.0
C1267 C 0.96653 0.81224 0.32361 0.0
C1268 C 0.98654 0.83319 0.38598 0.0
C1269 C 0.97105 0.84656 0.38791 0.0
C1270 C 0.95321 0.84255 0.35835 0.0
C1271 C 0.95091 0.82547 0.3268 0.0
C1272 C 0.97381 0.86534 0.41767 0.0
C1273 C 0.97242 0.88256 0.38498 0.0
C1274 C 0.97882 0.86635 0.47667 0.0
C1275 C 0.98034 0.84861 0.51348 0.0
C1276 C 0.96458 0.83533 0.51592 0.0
C1277 C 0.96616 0.81866 0.55072 0.0
C1278 C 0.98338 0.81516 0.58359 0.0
C1279 C 0.99906 0.82835 0.58181 0.0
C1280 C 0.99756 0.84503 0.54702 0.0
C1281 C 0.97786 0.95506 0.51256 0.0
C1282 C 0.99497 0.95707 0.54743 0.0
C1283 C 0.97292 0.93699 0.48864 0.0
C1284 C 0.98545 0.92086 0.49734 0.0
C1285 C 0.00237 0.92287 0.53309 0.0
C1286 C 0.00698 0.94076 0.55838 0.0
C1287 C 0.98122 0.90196 0.46866 0.0
C1288 C 0.98233 0.88467 0.50145 0.0
C1289 C 0.97641 0.90083 0.40936 0.0
C1290 C 0.97645 0.91821 0.37105 0.0
C1291 C 0.99333 0.92998 0.36767 0.0
C1292 C 0.99322 0.9464 0.3317 0.0
C1293 C 0.97636 0.95108 0.2985 0.0
C1294 C 0.9596 0.93932 0.30106 0.0
C1295 C 0.95963 0.92291 0.33703 0.0
H1296 H 0.9763 0.96379 0.27067 0.0
H1297 H 0.98457 0.80226 0.61054 0.0
H1298 H 0.71694 0.97747 0.36595 0.0
H1299 H 0.68172 0.98493 0.36938 0.0
H1300 H 0.67604 0.94226 0.50436 0.0
H1301 H 0.71101 0.93498 0.50148 0.0
H1302 H 0.64436 0.94164 0.42257 0.0
H1303 H 0.6835 0.98865 0.53708 0.0
H1304 H 0.70843 0.01472 0.54874 0.0
H1305 H 0.67675 0.05017 0.42432 0.0
H1306 H 0.65177 0.02419 0.41144 0.0
H1307 H 0.56283 0.96422 0.58511 0.0
H1308 H 0.5943 0.95591 0.54514 0.0
H1309 H 0.59512 0.01173 0.45779 0.0
H1310 H 0.56461 0.02066 0.50232 0.0
H1311 H 0.62837 0.00702 0.49664 0.0
H1312 H 0.58687 0.96392 0.38873 0.0
H1313 H 0.56151 0.93868 0.3703 0.0
H1314 H 0.59598 0.89697 0.46833 0.0
H1315 H 0.62144 0.92201 0.48796 0.0
C1316 C 0.70805 0.9694 0.39531 0.0
C1317 C 0.71658 0.95552 0.43332 0.0
C1318 C 0.68798 0.97373 0.39746 0.0
C1319 C 0.67629 0.96415 0.43725 0.0
C1320 C 0.68474 0.94973 0.47315 0.0
C1321 C 0.70471 0.94561 0.47154 0.0
C1322 C 0.65568 0.97 0.4456 0.0
C1323 C 0.64075 0.95593 0.43867 0.0
C1324 C 0.65092 0.98883 0.4648 0.0
C1325 C 0.66594 0.0044 0.47276 0.0
C1326 C 0.68196 0.00194 0.51187 0.0
C1327 C 0.69607 0.01671 0.51876 0.0
C1328 C 0.69421 0.03407 0.48714 0.0
C1329 C 0.6782 0.03671 0.44867 0.0
C1330 C 0.66407 0.02197 0.44157 0.0
C1331 C 0.56977 0.97461 0.55711 0.0
C1332 C 0.56145 0.99306 0.54671 0.0
C1333 C 0.58766 0.96981 0.53369 0.0
C1334 C 0.5971 0.98305 0.49734 0.0
C1335 C 0.58832 0.00129 0.48584 0.0
C1336 C 0.57086 0.00636 0.51102 0.0
C1337 C 0.61672 0.97853 0.47462 0.0
C1338 C 0.63159 0.99283 0.47916 0.0
C1339 C 0.62127 0.96004 0.45187 0.0
C1340 C 0.606 0.9449 0.44012 0.0
C1341 C 0.58899 0.9494 0.40666 0.0
C1342 C 0.5746 0.93511 0.39595 0.0
C1343 C 0.57712 0.91624 0.41822 0.0
C1344 C 0.59405 0.91159 0.45113 0.0
C1345 C 0.60847 0.92582 0.46198 0.0
H1346 H 0.56596 0.90521 0.4099 0.0
H1347 H 0.70515 0.04549 0.49256 0.0
H1348 H 0.50605 0.70474 0.29423 0.0
H1349 H 0.51782 0.67666 0.35073 0.0
H1350 H 0.45862 0.66408 0.39848 0.0
H1351 H 0.44668 0.69223 0.34234 0.0
H1352 H 0.48616 0.66165 0.48976 0.0
H1353 H 0.47806 0.6404 0.29416 0.0
H1354 H 0.48436 0.64305 0.19185 0.0
H1355 H 0.54566 0.63239 0.22767 0.0
H1356 H 0.53988 0.63056 0.33082 0.0
H1357 H 0.48245 0.56443 0.57278 0.0
H1358 H 0.47889 0.59567 0.52386 0.0
H1359 H 0.54006 0.59471 0.48364 0.0
H1360 H 0.54373 0.56285 0.53196 0.0
H1361 H 0.51695 0.60614 0.39285 0.0
H1362 H 0.52499 0.62446 0.58761 0.0
H1363 H 0.5191 0.62276 0.6906 0.0
H1364 H 0.45885 0.63867 0.65709 0.0
H1365 H 0.46428 0.64017 0.55378 0.0
C1366 C 0.49552 0.69604 0.31687 0.0
C1367 C 0.47541 0.70062 0.31367 0.0
C1368 C 0.50229 0.68003 0.3491 0.0
C1369 C 0.48906 0.66832 0.37846 0.0
C1370 C 0.46904 0.67303 0.37616 0.0
C1371 C 0.46224 0.68901 0.34382 0.0
C1372 C 0.49591 0.6507 0.41002 0.0
C1373 C 0.49281 0.64946 0.46867 0.0
C1374 C 0.50519 0.63515 0.38251 0.0
C1375 C 0.50857 0.6356 0.32035 0.0
C1376 C 0.49292 0.63879 0.28035 0.0
C1377 C 0.4964 0.64014 0.22214 0.0
C1378 C 0.51539 0.63784 0.20315 0.0
C1379 C 0.53096 0.6342 0.24243 0.0
C1380 C 0.5276 0.63308 0.30083 0.0
C1381 C 0.49524 0.57082 0.55387 0.0
C1382 C 0.51344 0.56122 0.55665 0.0
C1383 C 0.49317 0.58875 0.52605 0.0
C1384 C 0.50931 0.59768 0.5012 0.0
C1385 C 0.52748 0.58808 0.50302 0.0
C1386 C 0.52954 0.56994 0.53063 0.0
C1387 C 0.50675 0.61686 0.47245 0.0
C1388 C 0.51065 0.61845 0.4143 0.0
C1389 C 0.4983 0.6328 0.50049 0.0
C1390 C 0.49504 0.63234 0.56281 0.0
C1391 C 0.51046 0.62751 0.60214 0.0
C1392 C 0.5072 0.62658 0.6606 0.0
C1393 C 0.48861 0.63058 0.68038 0.0
C1394 C 0.47325 0.63558 0.64172 0.0
C1395 C 0.47642 0.63651 0.58319 0.0
H1396 H 0.48611 0.62981 0.72565 0.0
H1397 H 0.51804 0.63889 0.15802 0.0
H1398 H 0.79966 0.51202 0.32806 0.0
H1399 H 0.82946 0.51041 0.38958 0.0
H1400 H 0.86478 0.51602 0.24172 0.0
H1401 H 0.83505 0.51678 0.17986 0.0
H1402 H 0.88303 0.49388 0.31694 0.0
H1403 H 0.85161 0.55654 0.32296 0.0
H1404 H 0.82413 0.57909 0.33663 0.0
H1405 H 0.82078 0.55964 0.5107 0.0
H1406 H 0.84811 0.5368 0.49781 0.0
H1407 H 0.96817 0.53455 0.44859 0.0
H1408 H 0.9375 0.53227 0.39155 0.0
H1409 H 0.90623 0.51871 0.54322 0.0
H1410 H 0.93686 0.52112 0.60099 0.0
H1411 H 0.88591 0.54403 0.46876 0.0
H1412 H 0.91995 0.4825 0.46055 0.0
H1413 H 0.94885 0.4621 0.44397 0.0
H1414 H 0.94854 0.4817 0.26938 0.0
H1415 H 0.91983 0.50248 0.28518 0.0
C1416 C 0.81379 0.51245 0.30863 0.0
C1417 C 0.81504 0.51477 0.2493 0.0
C1418 C 0.83081 0.51169 0.34382 0.0
C1419 C 0.84934 0.5138 0.3204 0.0
C1420 C 0.85064 0.51461 0.26081 0.0
C1421 C 0.83362 0.51501 0.22547 0.0
C1422 C 0.86719 0.51662 0.35795 0.0
C1423 C 0.88369 0.50495 0.34979 0.0
C1424 C 0.86805 0.53097 0.40124 0.0
C1425 C 0.85177 0.54484 0.40926 0.0
C1426 C 0.84494 0.55701 0.36405 0.0
C1427 C 0.8294 0.56984 0.37167 0.0
C1428 C 0.82068 0.57076 0.42447 0.0
C1429 C 0.82753 0.55889 0.46982 0.0
C1430 C 0.84305 0.54601 0.4624 0.0
C1431 C 0.95475 0.53135 0.47008 0.0
C1432 C 0.955 0.52781 0.5293 0.0
C1433 C 0.93725 0.52997 0.43732 0.0
C1434 C 0.91972 0.52492 0.46309 0.0
C1435 C 0.91967 0.52249 0.52257 0.0
C1436 C 0.93719 0.52389 0.55546 0.0
C1437 C 0.90163 0.52132 0.42761 0.0
C1438 C 0.88514 0.53288 0.43613 0.0
C1439 C 0.9009 0.50708 0.38416 0.0
C1440 C 0.91782 0.49415 0.37418 0.0
C1441 C 0.92609 0.48253 0.41869 0.0
C1442 C 0.94244 0.4709 0.40944 0.0
C1443 C 0.95054 0.47063 0.35568 0.0
C1444 C 0.94226 0.48193 0.31101 0.0
C1445 C 0.92593 0.49362 0.32007 0.0
H1446 H 0.96322 0.46165 0.34864 0.0
H1447 H 0.80864 0.5807 0.43028 0.0
loop_
_geom_bond_atom_site_label_1
_geom_bond_atom_site_label_2
_geom_bond_distance
_geom_bond_site_symmetry_2
_ccdc_geom_bond_type
O0 Cd1 2.300 . S
O0 C7 1.275 . S
Cd1 O0 2.300 . S
Cd1 O9 2.381 . S
Cd1 O10 2.378 . S
O2 Cd3 2.385 . S
O2 C7 1.255 . S
Cd3 O2 2.385 . S
Cd3 O4 2.317 . S
O4 Cd3 2.317 . S
O4 C5 1.232 . S
C5 O4 1.232 . S
C5 O6 1.218 . S
O6 C5 1.218 . S
C7 O0 1.275 . S
C7 O2 1.255 . S
C8 O9 1.258 . S
C8 O10 1.256 . S
O9 Cd1 2.381 . S
O9 C8 1.258 . S
O10 Cd1 2.378 . S
O10 C8 1.256 . S
O11 Cd12 2.300 . S
O11 C18 1.275 . S
Cd12 O11 2.300 . S
Cd12 O20 2.381 . S
Cd12 O21 2.378 . S
O13 Cd14 2.385 1_655 S
O13 C18 1.255 . S
Cd14 O13 2.385 1_455 S
Cd14 O15 2.317 1_455 S
O15 Cd14 2.317 1_655 S
O15 C16 1.232 . S
C16 O15 1.232 . S
C16 O17 1.218 . S
O17 C16 1.218 . S
C18 O11 1.275 . S
C18 O13 1.255 . S
C19 O20 1.258 . S
C19 O21 1.256 . S
O20 Cd12 2.381 . S
O20 C19 1.258 . S
O21 Cd12 2.378 . S
O21 C19 1.256 . S
O22 Cd23 2.300 . S
O22 C29 1.275 . S
Cd23 O22 2.300 . S
Cd23 O31 2.381 . S
Cd23 O32 2.378 . S
O24 Cd25 2.385 1_565 S
O24 C29 1.255 . S
Cd25 O24 2.385 1_545 S
Cd25 O26 2.317 1_545 S
O26 Cd25 2.317 1_565 S
O26 C27 1.232 . S
C27 O26 1.232 . S
C27 O28 1.218 . S
O28 C27 1.218 . S
C29 O22 1.275 . S
C29 O24 1.255 . S
C30 O31 1.258 . S
C30 O32 1.256 . S
O31 Cd23 2.381 . S
O31 C30 1.258 . S
O32 Cd23 2.378 . S
O32 C30 1.256 . S
O33 Cd34 2.300 . S
O33 C40 1.275 . S
Cd34 O33 2.300 . S
Cd34 O42 2.381 . S
Cd34 O43 2.378 . S
O35 Cd36 2.385 . S
O35 C40 1.255 . S
Cd36 O35 2.385 . S
Cd36 O37 2.317 . S
O37 Cd36 2.317 . S
O37 C38 1.232 . S
C38 O37 1.232 . S
C38 O39 1.218 . S
O39 C38 1.218 . S
C40 O33 1.275 . S
C40 O35 1.255 . S
C41 O42 1.258 . S
C41 O43 1.256 . S
O42 Cd34 2.381 . S
O42 C41 1.258 . S
O43 Cd34 2.378 . S
O43 C41 1.256 . S
O44 Cd45 2.300 . S
O44 C51 1.275 . S
Cd45 O44 2.300 . S
Cd45 O53 2.381 . S
Cd45 O54 2.378 . S
O46 Cd47 2.385 . S
O46 C51 1.255 . S
Cd47 O46 2.385 . S
Cd47 O48 2.317 1_554 S
O48 Cd47 2.317 1_556 S
O48 C49 1.232 . S
C49 O48 1.232 . S
C49 O50 1.218 . S
O50 C49 1.218 . S
C51 O44 1.275 . S
C51 O46 1.255 . S
C52 O53 1.258 . S
C52 O54 1.256 . S
O53 Cd45 2.381 . S
O53 C52 1.258 . S
O54 Cd45 2.378 . S
O54 C52 1.256 . S
O55 Cd56 2.300 . S
O55 C62 1.275 . S
Cd56 O55 2.300 . S
Cd56 O64 2.381 . S
Cd56 O65 2.378 . S
O57 Cd58 2.383 . S
O57 C62 1.255 . S
Cd58 O57 2.383 . S
Cd58 O59 2.318 1_554 S
O59 Cd58 2.318 1_556 S
O59 C60 1.232 . S
C60 O59 1.232 . S
C60 O61 1.218 . S
O61 C60 1.218 . S
C62 O55 1.275 . S
C62 O57 1.255 . S
C63 O64 1.258 . S
C63 O65 1.256 . S
O64 Cd56 2.381 . S
O64 C63 1.258 . S
O65 Cd56 2.378 . S
O65 C63 1.256 . S
O66 Cd67 2.300 . S
O66 C73 1.275 . S
Cd67 O66 2.300 . S
Cd67 O75 2.381 . S
Cd67 O76 2.378 . S
O68 Cd69 2.385 1_554 S
O68 C73 1.255 . S
Cd69 O68 2.385 1_556 S
Cd69 O70 2.317 . S
O70 Cd69 2.317 . S
O70 C71 1.232 . S
C71 O70 1.232 . S
C71 O72 1.218 . S
O72 C71 1.218 . S
C73 O66 1.275 . S
C73 O68 1.255 . S
C74 O75 1.258 . S
C74 O76 1.256 . S
O75 Cd67 2.381 . S
O75 C74 1.258 . S
O76 Cd67 2.378 . S
O76 C74 1.256 . S
O77 Cd78 2.300 . S
O77 C84 1.275 . S
Cd78 O77 2.300 . S
Cd78 O86 2.381 . S
Cd78 O87 2.378 . S
O79 Cd80 2.385 . S
O79 C84 1.255 . S
Cd80 O79 2.385 . S
Cd80 O81 2.317 1_554 S
O81 Cd80 2.317 1_556 S
O81 C82 1.232 . S
C82 O81 1.232 . S
C82 O83 1.218 . S
O83 C82 1.218 . S
C84 O77 1.275 . S
C84 O79 1.255 . S
C85 O86 1.258 . S
C85 O87 1.256 . S
O86 Cd78 2.381 . S
O86 C85 1.258 . S
O87 Cd78 2.378 . S
O87 C85 1.256 . S
Eu88 C97 2.828 . S
Eu88 O99 2.392 . S
Eu88 O101 2.418 1_545 S
Eu88 O106 2.373 1_655 S
Eu88 O109 2.488 . S
Eu88 O110 2.471 1_655 S
Eu88 O111 2.349 1_655 S
Eu89 O98 2.373 1_455 S
Eu89 O102 2.488 . S
Eu89 O103 2.471 . S
Eu89 O104 2.349 . S
Eu89 O107 2.392 1_565 S
Eu89 O108 2.418 1_565 S
Eu89 C118 2.828 . S
C90 O108 1.244 . S
C90 O111 1.265 . S
C91 C92 1.379 . S
C91 C95 1.373 1_455 S
C91 C97 1.505 1_455 S
C92 C91 1.379 . S
C92 C94 1.369 . S
C92 H120 0.930 . S
C93 C95 1.383 . S
C93 C96 1.382 1_655 S
C93 H121 0.930 . S
C94 C92 1.369 . S
C94 C96 1.392 . S
C94 H122 0.930 . S
C95 C91 1.373 1_655 S
C95 C93 1.383 . S
C95 H123 0.931 . S
C96 C93 1.382 1_455 S
C96 C94 1.392 . S
C97 Eu88 2.828 . S
C97 C91 1.505 1_655 S
C97 O109 1.249 . S
C97 O110 1.244 1_655 S
O98 Eu89 2.373 1_655 S
O98 C100 1.258 1_565 S
O99 Eu88 2.392 . S
O99 C100 1.242 . S
C100 O98 1.258 1_545 S
C100 O99 1.242 . S
O101 Eu88 2.418 1_565 S
O101 C105 1.244 . S
O102 Eu89 2.488 . S
O102 C118 1.249 . S
O103 Eu89 2.471 . S
O103 C118 1.244 . S
O104 Eu89 2.349 . S
O104 C105 1.265 1_455 S
C105 O101 1.244 . S
C105 O104 1.265 1_655 S
O106 Eu88 2.373 1_455 S
O106 C119 1.258 . S
O107 Eu89 2.392 1_545 S
O107 C119 1.242 . S
O108 Eu89 2.418 1_545 S
O108 C90 1.244 . S
O109 Eu88 2.488 . S
O109 C97 1.249 . S
O110 Eu88 2.471 1_455 S
O110 C97 1.244 1_455 S
O111 Eu88 2.349 1_455 S
O111 C90 1.265 . S
C112 C113 1.379 . S
C112 C116 1.373 . S
C112 C118 1.505 . S
C113 C112 1.379 . S
C113 C115 1.373 . S
C113 H124 0.930 1_455 S
C114 C116 1.383 . S
C114 C117 1.382 . S
C114 H125 0.930 . S
C115 C113 1.373 . S
C115 C117 1.399 . S
C115 H126 0.920 1_455 S
C116 C112 1.373 . S
C116 C114 1.383 . S
C116 H127 0.931 . S
C117 C114 1.382 . S
C117 C115 1.399 . S
C118 Eu89 2.828 . S
C118 O102 1.249 . S
C118 O103 1.244 . S
C118 C112 1.505 . S
C119 O106 1.258 . S
C119 O107 1.242 . S
H120 C92 0.930 . S
H121 C93 0.930 . S
H122 C94 0.930 . S
H123 C95 0.931 . S
H124 C113 0.930 1_655 S
H125 C114 0.930 . S
H126 C115 0.920 1_655 S
H127 C116 0.931 . S
Eu128 C137 2.828 . S
Eu128 O139 2.392 . S
Eu128 O141 2.418 . S
Eu128 O146 2.373 . S
Eu128 O149 2.488 . S
Eu128 O150 2.471 . S
Eu128 O151 2.349 1_545 S
Eu129 O138 2.373 1_565 S
Eu129 O142 2.488 . S
Eu129 O143 2.471 1_565 S
Eu129 O144 2.349 1_565 S
Eu129 O147 2.392 . S
Eu129 O148 2.418 . S
Eu129 C158 2.832 . S
C130 O148 1.244 . S
C130 O151 1.265 . S
C131 C132 1.359 1_545 S
C131 C135 1.373 . S
C131 C137 1.505 . S
C132 C131 1.359 1_565 S
C132 C134 1.372 . S
C132 H160 0.948 . S
C133 C135 1.383 . S
C133 C136 1.382 . S
C133 H161 0.930 . S
C134 C132 1.372 . S
C134 C136 1.392 1_565 S
C134 H162 0.930 . S
C135 C131 1.373 . S
C135 C133 1.383 . S
C135 H163 0.931 . S
C136 C133 1.382 . S
C136 C134 1.392 1_545 S
C137 Eu128 2.828 . S
C137 C131 1.505 . S
C137 O149 1.249 . S
C137 O150 1.244 . S
O138 Eu129 2.373 1_545 S
O138 C140 1.258 . S
O139 Eu128 2.392 . S
O139 C140 1.242 . S
C140 O138 1.258 . S
C140 O139 1.242 . S
O141 Eu128 2.418 . S
O141 C145 1.244 . S
O142 Eu129 2.488 . S
O142 C158 1.292 . S
O143 Eu129 2.471 1_545 S
O143 C158 1.207 1_545 S
O144 Eu129 2.349 1_545 S
O144 C145 1.265 . S
C145 O141 1.244 . S
C145 O144 1.265 . S
O146 Eu128 2.373 . S
O146 C159 1.258 1_545 S
O147 Eu129 2.392 . S
O147 C159 1.242 . S
O148 Eu129 2.418 . S
O148 C130 1.244 . S
O149 Eu128 2.488 . S
O149 C137 1.249 . S
O150 Eu128 2.471 . S
O150 C137 1.244 . S
O151 Eu128 2.349 1_565 S
O151 C130 1.265 . S
C152 C153 1.379 . S
C152 C156 1.373 1_545 S
C152 C158 1.501 1_545 S
C153 C152 1.379 . S
C153 C155 1.369 . S
C153 H164 0.930 . S
C154 C156 1.383 . S
C154 C157 1.382 1_565 S
C154 H165 0.930 . S
C155 C153 1.369 . S
C155 C157 1.392 . S
C155 H166 0.930 . S
C156 C152 1.373 1_565 S
C156 C154 1.383 . S
C156 H167 0.931 . S
C157 C154 1.382 1_545 S
C157 C155 1.392 . S
C158 Eu129 2.832 . S
C158 O142 1.292 . S
C158 O143 1.207 1_565 S
C158 C152 1.501 1_565 S
C159 O146 1.258 1_565 S
C159 O147 1.242 . S
H160 C132 0.948 . S
H161 C133 0.930 . S
H162 C134 0.930 . S
H163 C135 0.931 . S
H164 C153 0.930 . S
H165 C154 0.930 . S
H166 C155 0.930 . S
H167 C156 0.931 . S
Eu168 C177 2.828 . S
Eu168 O179 2.392 . S
Eu168 O181 2.418 . S
Eu168 O186 2.373 . S
Eu168 O189 2.488 . S
Eu168 O190 2.471 . S
Eu168 O191 2.349 . S
Eu169 O178 2.373 . S
Eu169 O182 2.488 . S
Eu169 O183 2.471 . S
Eu169 O184 2.349 . S
Eu169 O187 2.392 . S
Eu169 O188 2.418 . S
Eu169 C198 2.828 . S
C170 O188 1.244 . S
C170 O191 1.265 . S
C171 C172 1.379 . S
C171 C175 1.373 . S
C171 C177 1.505 . S
C172 C171 1.379 . S
C172 C174 1.369 . S
C172 H200 0.930 . S
C173 C175 1.383 . S
C173 C176 1.382 . S
C173 H201 0.930 . S
C174 C172 1.369 . S
C174 C176 1.392 . S
C174 H202 0.930 . S
C175 C171 1.373 . S
C175 C173 1.383 . S
C175 H203 0.931 . S
C176 C173 1.382 . S
C176 C174 1.392 . S
C177 Eu168 2.828 . S
C177 C171 1.505 . S
C177 O189 1.249 . S
C177 O190 1.244 . S
O178 Eu169 2.373 . S
O178 C180 1.258 . S
O179 Eu168 2.392 . S
O179 C180 1.242 . S
C180 O178 1.258 . S
C180 O179 1.242 . S
O181 Eu168 2.418 . S
O181 C185 1.244 . S
O182 Eu169 2.488 . S
O182 C198 1.249 . S
O183 Eu169 2.471 . S
O183 C198 1.244 . S
O184 Eu169 2.349 . S
O184 C185 1.265 . S
C185 O181 1.244 . S
C185 O184 1.265 . S
O186 Eu168 2.373 . S
O186 C199 1.258 . S
O187 Eu169 2.392 . S
O187 C199 1.242 . S
O188 Eu169 2.418 . S
O188 C170 1.244 . S
O189 Eu168 2.488 . S
O189 C177 1.249 . S
O190 Eu168 2.471 . S
O190 C177 1.244 . S
O191 Eu168 2.349 . S
O191 C170 1.265 . S
C192 C193 1.379 . S
C192 C196 1.373 . S
C192 C198 1.505 . S
C193 C192 1.379 . S
C193 C195 1.369 . S
C193 H204 0.930 . S
C194 C196 1.383 . S
C194 C197 1.382 . S
C194 H205 0.930 . S
C195 C193 1.369 . S
C195 C197 1.392 . S
C195 H206 0.930 . S
C196 C192 1.373 . S
C196 C194 1.383 . S
C196 H207 0.931 . S
C197 C194 1.382 . S
C197 C195 1.392 . S
C198 Eu169 2.828 . S
C198 O182 1.249 . S
C198 O183 1.244 . S
C198 C192 1.505 . S
C199 O186 1.258 . S
C199 O187 1.242 . S
H200 C172 0.930 . S
H201 C173 0.930 . S
H202 C174 0.930 . S
H203 C175 0.931 . S
H204 C193 0.930 . S
H205 C194 0.930 . S
H206 C195 0.930 . S
H207 C196 0.931 . S
Eu208 C217 2.828 . S
Eu208 O219 2.392 . S
Eu208 O221 2.418 1_455 S
Eu208 O226 2.373 . S
Eu208 O229 2.488 . S
Eu208 O230 2.471 . S
Eu208 O231 2.349 . S
Eu209 O218 2.377 . S
Eu209 O222 2.488 . S
Eu209 O223 2.471 . S
Eu209 O224 2.349 . S
Eu209 O227 2.392 1_655 S
Eu209 O228 2.418 1_655 S
Eu209 C238 2.828 . S
C210 O228 1.244 . S
C210 O231 1.265 . S
C211 C212 1.379 . S
C211 C215 1.373 . S
C211 C217 1.505 . S
C212 C211 1.379 . S
C212 C214 1.369 . S
C212 H240 0.930 . S
C213 C215 1.383 . S
C213 C216 1.382 . S
C213 H241 0.930 . S
C214 C212 1.369 . S
C214 C216 1.392 . S
C214 H242 0.930 . S
C215 C211 1.373 . S
C215 C213 1.383 . S
C215 H243 0.931 . S
C216 C213 1.382 . S
C216 C214 1.392 . S
C217 Eu208 2.828 . S
C217 C211 1.505 . S
C217 O229 1.249 . S
C217 O230 1.244 . S
O218 Eu209 2.377 . S
O218 C220 1.250 1_655 S
O219 Eu208 2.392 . S
O219 C220 1.242 . S
C220 O218 1.250 1_455 S
C220 O219 1.242 . S
O221 Eu208 2.418 1_655 S
O221 C225 1.244 . S
O222 Eu209 2.488 . S
O222 C238 1.249 . S
O223 Eu209 2.471 . S
O223 C238 1.244 . S
O224 Eu209 2.349 . S
O224 C225 1.265 . S
C225 O221 1.244 . S
C225 O224 1.265 . S
O226 Eu208 2.373 . S
O226 C239 1.258 . S
O227 Eu209 2.392 1_455 S
O227 C239 1.242 . S
O228 Eu209 2.418 1_455 S
O228 C210 1.244 . S
O229 Eu208 2.488 . S
O229 C217 1.249 . S
O230 Eu208 2.471 . S
O230 C217 1.244 . S
O231 Eu208 2.349 . S
O231 C210 1.265 . S
C232 C233 1.379 . S
C232 C236 1.373 . S
C232 C238 1.505 . S
C233 C232 1.379 . S
C233 C235 1.369 . S
C233 H244 0.930 . S
C234 C236 1.383 . S
C234 C237 1.382 . S
C234 H245 0.930 . S
C235 C233 1.369 . S
C235 C237 1.392 . S
C235 H246 0.930 . S
C236 C232 1.373 . S
C236 C234 1.383 . S
C236 H247 0.931 . S
C237 C234 1.382 . S
C237 C235 1.392 . S
C238 Eu209 2.828 . S
C238 O222 1.249 . S
C238 O223 1.244 . S
C238 C232 1.505 . S
C239 O226 1.258 . S
C239 O227 1.242 . S
H240 C212 0.930 . S
H241 C213 0.930 . S
H242 C214 0.930 . S
H243 C215 0.931 . S
H244 C233 0.930 . S
H245 C234 0.930 . S
H246 C235 0.930 . S
H247 C236 0.931 . S
H248 C266 0.951 . S
H249 C268 0.951 . S
H250 C270 0.950 . S
H251 C271 0.950 . S
H252 C273 0.950 . S
H253 C276 0.950 . S
H254 C277 0.950 . S
H255 C279 0.950 . S
H256 C280 0.950 . S
H257 C281 0.951 . S
H258 C283 0.951 . S
H259 C285 0.950 . S
H260 C286 0.950 . S
H261 C288 0.950 . S
H262 C291 0.950 . S
H263 C292 0.950 . S
H264 C294 0.950 . S
H265 C295 0.950 . S
C266 H248 0.951 . S
C266 C267 1.366 . S
C266 C268 1.388 . S
C267 C266 1.366 . S
C267 C271 1.385 . S
C268 H249 0.951 . S
C268 C266 1.388 . S
C268 C269 1.366 . S
C269 C268 1.366 . S
C269 C270 1.414 . S
C269 C272 1.499 . S
C270 H250 0.950 . S
C270 C269 1.414 . S
C270 C271 1.374 . S
C271 H251 0.950 . S
C271 C267 1.385 . S
C271 C270 1.374 . S
C272 C269 1.499 . S
C272 C273 1.373 . S
C272 C274 1.389 . S
C273 H252 0.950 . S
C273 C272 1.373 . S
C273 C289 1.377 . S
C274 C272 1.389 . S
C274 C275 1.524 . S
C274 C288 1.377 . S
C275 C274 1.524 . S
C275 C276 1.397 . S
C275 C280 1.363 . S
C276 H253 0.950 . S
C276 C275 1.397 . S
C276 C277 1.334 1_545 S
C277 H254 0.950 . S
C277 C276 1.334 1_565 S
C277 C278 1.287 . S
C278 C277 1.287 . S
C278 C279 1.524 1_565 S
C278 H297 0.913 . S
C279 H255 0.950 . S
C279 C278 1.524 1_545 S
C279 C280 1.415 . S
C280 H256 0.950 . S
C280 C275 1.363 . S
C280 C279 1.415 . S
C281 H257 0.951 . S
C281 C282 1.366 . S
C281 C283 1.388 . S
C282 C281 1.366 . S
C282 C286 1.385 . S
C283 H258 0.951 . S
C283 C281 1.388 . S
C283 C284 1.366 . S
C284 C283 1.366 . S
C284 C285 1.414 . S
C284 C287 1.499 . S
C285 H259 0.950 . S
C285 C284 1.414 . S
C285 C286 1.374 . S
C286 H260 0.950 . S
C286 C282 1.385 . S
C286 C285 1.374 . S
C287 C284 1.499 . S
C287 C288 1.373 . S
C287 C289 1.389 . S
C288 H261 0.950 . S
C288 C274 1.377 . S
C288 C287 1.373 . S
C289 C273 1.377 . S
C289 C287 1.389 . S
C289 C290 1.524 . S
C290 C289 1.524 . S
C290 C291 1.397 . S
C290 C295 1.363 . S
C291 H262 0.950 . S
C291 C290 1.397 . S
C291 C292 1.334 . S
C292 H263 0.950 . S
C292 C291 1.334 . S
C292 C293 1.287 . S
C293 C292 1.287 . S
C293 C294 1.524 . S
C293 H296 0.999 . S
C294 H264 0.950 . S
C294 C293 1.524 . S
C294 C295 1.415 . S
C295 H265 0.950 . S
C295 C290 1.363 . S
C295 C294 1.415 . S
H296 C293 0.999 . S
H297 C278 0.913 . S
H298 C316 0.951 . S
H299 C318 0.951 . S
H300 C320 0.950 . S
H301 C321 0.950 . S
H302 C323 0.950 . S
H303 C326 0.950 . S
H304 C327 0.950 . S
H305 C329 0.950 . S
H306 C330 0.950 . S
H307 C331 0.951 . S
H308 C333 0.951 . S
H309 C335 0.950 . S
H310 C336 0.950 . S
H311 C338 0.950 . S
H312 C341 0.950 . S
H313 C342 0.950 . S
H314 C344 0.950 . S
H315 C345 0.950 . S
C316 H298 0.951 . S
C316 C317 1.366 . S
C316 C318 1.388 . S
C317 C316 1.366 . S
C317 C321 1.385 . S
C318 H299 0.951 . S
C318 C316 1.388 . S
C318 C319 1.366 . S
C319 C318 1.366 . S
C319 C320 1.414 . S
C319 C322 1.499 . S
C320 H300 0.950 . S
C320 C319 1.414 . S
C320 C321 1.374 . S
C321 H301 0.950 . S
C321 C317 1.385 . S
C321 C320 1.374 . S
C322 C319 1.499 . S
C322 C323 1.373 . S
C322 C324 1.389 . S
C323 H302 0.950 . S
C323 C322 1.373 . S
C323 C339 1.377 . S
C324 C322 1.389 . S
C324 C325 1.524 . S
C324 C338 1.377 . S
C325 C324 1.524 . S
C325 C326 1.397 . S
C325 C330 1.363 . S
C326 H303 0.950 . S
C326 C325 1.397 . S
C326 C327 1.334 . S
C327 H304 0.950 . S
C327 C326 1.334 . S
C327 C328 1.287 . S
C328 C327 1.287 . S
C328 C329 1.524 . S
C328 H347 0.913 . S
C329 H305 0.950 . S
C329 C328 1.524 . S
C329 C330 1.415 . S
C330 H306 0.950 . S
C330 C325 1.363 . S
C330 C329 1.415 . S
C331 H307 0.951 . S
C331 C332 1.366 . S
C331 C333 1.388 . S
C332 C331 1.366 . S
C332 C336 1.385 . S
C333 H308 0.951 . S
C333 C331 1.388 . S
C333 C334 1.366 . S
C334 C333 1.366 . S
C334 C335 1.414 . S
C334 C337 1.499 . S
C335 H309 0.950 . S
C335 C334 1.414 . S
C335 C336 1.374 . S
C336 H310 0.950 . S
C336 C332 1.385 . S
C336 C335 1.374 . S
C337 C334 1.499 . S
C337 C338 1.373 . S
C337 C339 1.389 . S
C338 H311 0.950 . S
C338 C324 1.377 . S
C338 C337 1.373 . S
C339 C323 1.377 . S
C339 C337 1.389 . S
C339 C340 1.524 . S
C340 C339 1.524 . S
C340 C341 1.397 . S
C340 C345 1.363 . S
C341 H312 0.950 . S
C341 C340 1.397 . S
C341 C342 1.334 . S
C342 H313 0.950 . S
C342 C341 1.334 . S
C342 C343 1.287 . S
C343 C342 1.287 . S
C343 C344 1.524 . S
C343 H346 0.999 . S
C344 H314 0.950 . S
C344 C343 1.524 . S
C344 C345 1.415 . S
C345 H315 0.950 . S
C345 C340 1.363 . S
C345 C344 1.415 . S
H346 C343 0.999 . S
H347 C328 0.913 . S
H348 C366 0.951 . S
H349 C368 0.951 . S
H350 C370 0.950 . S
H351 C371 0.950 . S
H352 C373 0.950 . S
H353 C376 0.950 . S
H354 C377 0.950 . S
H355 C379 0.950 . S
H356 C380 0.950 . S
H357 C381 0.951 . S
H358 C383 0.951 . S
H359 C385 0.950 . S
H360 C386 0.950 . S
H361 C388 0.950 . S
H362 C391 0.950 . S
H363 C392 0.950 . S
H364 C394 0.950 . S
H365 C395 0.950 . S
C366 H348 0.951 . S
C366 C367 1.366 . S
C366 C368 1.388 . S
C367 C366 1.366 . S
C367 C371 1.385 . S
C368 H349 0.951 . S
C368 C366 1.388 . S
C368 C369 1.366 . S
C369 C368 1.366 . S
C369 C370 1.414 . S
C369 C372 1.499 . S
C370 H350 0.950 . S
C370 C369 1.414 . S
C370 C371 1.374 . S
C371 H351 0.950 . S
C371 C367 1.385 . S
C371 C370 1.374 . S
C372 C369 1.499 . S
C372 C373 1.373 . S
C372 C374 1.389 . S
C373 H352 0.950 . S
C373 C372 1.373 . S
C373 C389 1.377 . S
C374 C372 1.389 . S
C374 C375 1.524 . S
C374 C388 1.377 . S
C375 C374 1.524 . S
C375 C376 1.397 . S
C375 C380 1.363 . S
C376 H353 0.950 . S
C376 C375 1.397 . S
C376 C377 1.334 . S
C377 H354 0.950 . S
C377 C376 1.334 . S
C377 C378 1.287 . S
C378 C377 1.287 . S
C378 C379 1.524 . S
C378 H397 0.913 . S
C379 H355 0.950 . S
C379 C378 1.524 . S
C379 C380 1.415 . S
C380 H356 0.950 . S
C380 C375 1.363 . S
C380 C379 1.415 . S
C381 H357 0.951 . S
C381 C382 1.366 . S
C381 C383 1.388 . S
C382 C381 1.366 . S
C382 C386 1.385 . S
C383 H358 0.951 . S
C383 C381 1.388 . S
C383 C384 1.366 . S
C384 C383 1.366 . S
C384 C385 1.414 . S
C384 C387 1.499 . S
C385 H359 0.950 . S
C385 C384 1.414 . S
C385 C386 1.374 . S
C386 H360 0.950 . S
C386 C382 1.385 . S
C386 C385 1.374 . S
C387 C384 1.499 . S
C387 C388 1.373 . S
C387 C389 1.389 . S
C388 H361 0.950 . S
C388 C374 1.377 . S
C388 C387 1.373 . S
C389 C373 1.377 . S
C389 C387 1.389 . S
C389 C390 1.524 . S
C390 C389 1.524 . S
C390 C391 1.397 . S
C390 C395 1.363 . S
C391 H362 0.950 . S
C391 C390 1.397 . S
C391 C392 1.334 . S
C392 H363 0.950 . S
C392 C391 1.334 . S
C392 C393 1.287 . S
C393 C392 1.287 . S
C393 C394 1.524 . S
C393 H396 0.999 . S
C394 H364 0.950 . S
C394 C393 1.524 . S
C394 C395 1.415 . S
C395 H365 0.950 . S
C395 C390 1.363 . S
C395 C394 1.415 . S
H396 C393 0.999 . S
H397 C378 0.913 . S
H398 C416 0.951 . S
H399 C418 0.951 . S
H400 C420 0.950 . S
H401 C421 0.950 . S
H402 C423 0.950 . S
H403 C426 0.950 1_455 S
H404 C427 0.950 . S
H405 C429 0.950 . S
H406 C430 0.961 . S
H407 C431 0.951 . S
H408 C433 0.951 . S
H409 C435 0.950 . S
H410 C436 0.950 . S
H411 C438 0.950 . S
H412 C441 0.950 . S
H413 C442 0.950 . S
H414 C444 0.950 . S
H415 C445 0.950 . S
C416 H398 0.951 . S
C416 C417 1.366 . S
C416 C418 1.388 . S
C417 C416 1.366 . S
C417 C421 1.385 . S
C418 H399 0.951 . S
C418 C416 1.388 . S
C418 C419 1.366 . S
C419 C418 1.366 . S
C419 C420 1.414 . S
C419 C422 1.499 . S
C420 H400 0.950 . S
C420 C419 1.414 . S
C420 C421 1.374 . S
C421 H401 0.950 . S
C421 C417 1.385 . S
C421 C420 1.374 . S
C422 C419 1.499 . S
C422 C423 1.373 . S
C422 C424 1.389 . S
C423 H402 0.950 . S
C423 C422 1.373 . S
C423 C439 1.377 . S
C424 C422 1.389 . S
C424 C425 1.524 . S
C424 C438 1.377 . S
C425 C424 1.524 . S
C425 C426 1.397 1_455 S
C425 C430 1.372 . S
C426 H403 0.950 1_655 S
C426 C425 1.397 1_655 S
C426 C427 1.334 . S
C427 H404 0.950 . S
C427 C426 1.334 . S
C427 C428 1.287 . S
C428 C427 1.287 . S
C428 C429 1.524 . S
C428 H447 0.913 . S
C429 H405 0.950 . S
C429 C428 1.524 . S
C429 C430 1.395 1_655 S
C430 H406 0.961 . S
C430 C425 1.372 . S
C430 C429 1.395 1_455 S
C431 H407 0.951 . S
C431 C432 1.366 . S
C431 C433 1.388 . S
C432 C431 1.366 . S
C432 C436 1.385 . S
C433 H408 0.951 . S
C433 C431 1.388 . S
C433 C434 1.366 . S
C434 C433 1.366 . S
C434 C435 1.414 . S
C434 C437 1.499 . S
C435 H409 0.950 . S
C435 C434 1.414 . S
C435 C436 1.374 . S
C436 H410 0.950 . S
C436 C432 1.385 . S
C436 C435 1.374 . S
C437 C434 1.499 . S
C437 C438 1.373 . S
C437 C439 1.389 . S
C438 H411 0.950 . S
C438 C424 1.377 . S
C438 C437 1.373 . S
C439 C423 1.377 . S
C439 C437 1.389 . S
C439 C440 1.524 . S
C440 C439 1.524 . S
C440 C441 1.397 . S
C440 C445 1.363 . S
C441 H412 0.950 . S
C441 C440 1.397 . S
C441 C442 1.334 . S
C442 H413 0.950 . S
C442 C441 1.334 . S
C442 C443 1.287 . S
C443 C442 1.287 . S
C443 C444 1.524 . S
C443 H446 0.999 . S
C444 H414 0.950 . S
C444 C443 1.524 . S
C444 C445 1.415 . S
C445 H415 0.950 . S
C445 C440 1.363 . S
C445 C444 1.415 . S
H446 C443 0.999 . S
H447 C428 0.913 . S
H448 C466 0.951 . S
H449 C468 0.951 . S
H450 C470 0.950 1_556 S
H451 C471 0.950 . S
H452 C473 0.950 . S
H453 C476 0.950 . S
H454 C477 0.950 . S
H455 C479 0.950 . S
H456 C480 0.950 . S
H457 C481 0.951 . S
H458 C483 0.951 . S
H459 C485 0.977 . S
H460 C486 0.950 . S
H461 C488 0.950 . S
H462 C491 0.950 . S
H463 C492 0.950 . S
H464 C494 0.950 . S
H465 C495 0.950 . S
C466 H448 0.951 . S
C466 C467 1.366 . S
C466 C468 1.388 . S
C467 C466 1.366 . S
C467 C471 1.385 . S
C468 H449 0.951 . S
C468 C466 1.388 . S
C468 C469 1.366 . S
C469 C468 1.366 . S
C469 C470 1.414 . S
C469 C472 1.499 1_554 S
C470 H450 0.950 1_554 S
C470 C469 1.414 . S
C470 C471 1.374 . S
C471 H451 0.950 . S
C471 C467 1.385 . S
C471 C470 1.374 . S
C472 C469 1.499 1_556 S
C472 C473 1.373 . S
C472 C474 1.389 . S
C473 H452 0.950 . S
C473 C472 1.373 . S
C473 C489 1.377 . S
C474 C472 1.389 . S
C474 C475 1.524 1_565 S
C474 C488 1.377 1_565 S
C475 C474 1.524 1_545 S
C475 C476 1.397 . S
C475 C480 1.363 1_556 S
C476 H453 0.950 . S
C476 C475 1.397 . S
C476 C477 1.334 1_556 S
C477 H454 0.950 . S
C477 C476 1.334 1_554 S
C477 C478 1.287 . S
C478 C477 1.287 . S
C478 C479 1.524 . S
C478 H497 0.913 . S
C479 H455 0.950 . S
C479 C478 1.524 . S
C479 C480 1.415 . S
C480 H456 0.950 . S
C480 C475 1.363 1_554 S
C480 C479 1.415 . S
C481 H457 0.951 . S
C481 C482 1.366 . S
C481 C483 1.388 . S
C482 C481 1.366 . S
C482 C486 1.385 1_565 S
C483 H458 0.951 . S
C483 C481 1.388 . S
C483 C484 1.366 . S
C484 C483 1.366 . S
C484 C485 1.380 1_565 S
C484 C487 1.499 . S
C485 H459 0.977 . S
C485 C484 1.380 1_545 S
C485 C486 1.385 . S
C486 H460 0.950 . S
C486 C482 1.385 1_545 S
C486 C485 1.385 . S
C487 C484 1.499 . S
C487 C488 1.373 1_565 S
C487 C489 1.389 . S
C488 H461 0.950 . S
C488 C474 1.377 1_545 S
C488 C487 1.373 1_545 S
C489 C473 1.377 . S
C489 C487 1.389 . S
C489 C490 1.524 . S
C490 C489 1.524 . S
C490 C491 1.397 . S
C490 C495 1.363 . S
C491 H462 0.950 . S
C491 C490 1.397 . S
C491 C492 1.334 . S
C492 H463 0.950 . S
C492 C491 1.334 . S
C492 C493 1.287 . S
C493 C492 1.287 . S
C493 C494 1.524 . S
C493 H496 0.999 . S
C494 H464 0.950 . S
C494 C493 1.524 . S
C494 C495 1.415 . S
C495 H465 0.950 . S
C495 C490 1.363 . S
C495 C494 1.415 . S
H496 C493 0.999 . S
H497 C478 0.913 . S
H498 C516 0.951 . S
H499 C518 0.951 . S
H500 C520 0.950 1_556 S
H501 C521 0.950 . S
H502 C523 0.950 . S
H503 C526 0.950 . S
H504 C527 0.950 . S
H505 C529 0.950 . S
H506 C530 0.950 . S
H507 C531 0.951 . S
H508 C533 0.951 . S
H509 C535 0.950 . S
H510 C536 0.950 . S
H511 C538 0.950 . S
H512 C541 0.950 . S
H513 C542 0.950 . S
H514 C544 0.950 . S
H515 C545 0.950 . S
C516 H498 0.951 . S
C516 C517 1.366 . S
C516 C518 1.388 . S
C517 C516 1.366 . S
C517 C521 1.385 . S
C518 H499 0.951 . S
C518 C516 1.388 . S
C518 C519 1.366 1_554 S
C519 C518 1.366 1_556 S
C519 C520 1.414 1_556 S
C519 C522 1.499 . S
C520 H500 0.950 1_554 S
C520 C519 1.414 1_554 S
C520 C521 1.374 . S
C521 H501 0.950 . S
C521 C517 1.385 . S
C521 C520 1.374 . S
C522 C519 1.499 . S
C522 C523 1.373 . S
C522 C524 1.389 . S
C523 H502 0.950 . S
C523 C522 1.373 . S
C523 C539 1.377 . S
C524 C522 1.389 . S
C524 C525 1.524 1_556 S
C524 C538 1.377 . S
C525 C524 1.524 1_554 S
C525 C526 1.397 . S
C525 C530 1.363 . S
C526 H503 0.950 . S
C526 C525 1.397 . S
C526 C527 1.334 . S
C527 H504 0.950 . S
C527 C526 1.334 . S
C527 C528 1.287 . S
C528 C527 1.287 . S
C528 C529 1.524 . S
C528 H547 0.913 . S
C529 H505 0.950 . S
C529 C528 1.524 . S
C529 C530 1.415 . S
C530 H506 0.950 . S
C530 C525 1.363 . S
C530 C529 1.415 . S
C531 H507 0.951 . S
C531 C532 1.366 . S
C531 C533 1.388 . S
C532 C531 1.366 . S
C532 C536 1.385 . S
C533 H508 0.951 . S
C533 C531 1.388 . S
C533 C534 1.366 . S
C534 C533 1.366 . S
C534 C535 1.414 . S
C534 C537 1.499 . S
C535 H509 0.950 . S
C535 C534 1.414 . S
C535 C536 1.374 . S
C536 H510 0.950 . S
C536 C532 1.385 . S
C536 C535 1.374 . S
C537 C534 1.499 . S
C537 C538 1.373 . S
C537 C539 1.389 . S
C538 H511 0.950 . S
C538 C524 1.377 . S
C538 C537 1.373 . S
C539 C523 1.377 . S
C539 C537 1.389 . S
C539 C540 1.524 . S
C540 C539 1.524 . S
C540 C541 1.397 . S
C540 C545 1.363 . S
C541 H512 0.950 . S
C541 C540 1.397 . S
C541 C542 1.334 . S
C542 H513 0.950 . S
C542 C541 1.334 . S
C542 C543 1.287 . S
C543 C542 1.287 . S
C543 C544 1.524 . S
C543 H546 0.999 . S
C544 H514 0.950 . S
C544 C543 1.524 . S
C544 C545 1.415 . S
C545 H515 0.950 . S
C545 C540 1.363 . S
C545 C544 1.415 . S
H546 C543 0.999 . S
H547 C528 0.913 . S
H548 C566 0.951 . S
H549 C568 0.951 . S
H550 C570 0.950 . S
H551 C571 0.950 . S
H552 C573 0.950 . S
H553 C576 0.950 . S
H554 C577 0.950 . S
H555 C579 0.950 . S
H556 C580 0.950 . S
H557 C581 0.951 . S
H558 C583 0.951 . S
H559 C585 0.950 . S
H560 C586 0.950 . S
H561 C588 0.950 . S
H562 C591 0.950 . S
H563 C592 0.950 . S
H564 C594 0.950 1_554 S
H565 C595 0.950 . S
C566 H548 0.951 . S
C566 C567 1.366 . S
C566 C568 1.388 1_554 S
C567 C566 1.366 . S
C567 C571 1.385 . S
C568 H549 0.951 . S
C568 C566 1.388 1_556 S
C568 C569 1.366 . S
C569 C568 1.366 . S
C569 C570 1.414 1_556 S
C569 C572 1.499 . S
C570 H550 0.950 . S
C570 C569 1.414 1_554 S
C570 C571 1.374 . S
C571 H551 0.950 . S
C571 C567 1.385 . S
C571 C570 1.374 . S
C572 C569 1.499 . S
C572 C573 1.373 . S
C572 C574 1.389 . S
C573 H552 0.950 . S
C573 C572 1.373 . S
C573 C589 1.377 . S
C574 C572 1.389 . S
C574 C575 1.524 . S
C574 C588 1.377 . S
C575 C574 1.524 . S
C575 C576 1.397 . S
C575 C580 1.363 . S
C576 H553 0.950 . S
C576 C575 1.397 . S
C576 C577 1.334 . S
C577 H554 0.950 . S
C577 C576 1.334 . S
C577 C578 1.287 . S
C578 C577 1.287 . S
C578 C579 1.524 . S
C578 H597 0.913 . S
C579 H555 0.950 . S
C579 C578 1.524 . S
C579 C580 1.415 . S
C580 H556 0.950 . S
C580 C575 1.363 . S
C580 C579 1.415 . S
C581 H557 0.951 . S
C581 C582 1.366 . S
C581 C583 1.388 . S
C582 C581 1.366 . S
C582 C586 1.385 . S
C583 H558 0.951 . S
C583 C581 1.388 . S
C583 C584 1.366 . S
C584 C583 1.366 . S
C584 C585 1.414 . S
C584 C587 1.499 . S
C585 H559 0.950 . S
C585 C584 1.414 . S
C585 C586 1.374 . S
C586 H560 0.950 . S
C586 C582 1.385 . S
C586 C585 1.374 . S
C587 C584 1.499 . S
C587 C588 1.373 . S
C587 C589 1.389 . S
C588 H561 0.950 . S
C588 C574 1.377 . S
C588 C587 1.373 . S
C589 C573 1.377 . S
C589 C587 1.389 . S
C589 C590 1.524 . S
C590 C589 1.524 . S
C590 C591 1.397 . S
C590 C595 1.363 . S
C591 H562 0.950 . S
C591 C590 1.397 . S
C591 C592 1.334 . S
C592 H563 0.950 . S
C592 C591 1.334 . S
C592 C593 1.287 . S
C593 C592 1.287 . S
C593 C594 1.524 . S
C593 H596 0.999 . S
C594 H564 0.950 1_556 S
C594 C593 1.524 . S
C594 C595 1.415 . S
C595 H565 0.950 . S
C595 C590 1.363 . S
C595 C594 1.415 . S
H596 C593 0.999 . S
H597 C578 0.913 . S
H598 C616 0.951 . S
H599 C618 0.958 . S
H600 C620 0.950 . S
H601 C621 0.950 . S
H602 C623 0.950 1_554 S
H603 C626 0.950 . S
H604 C627 0.950 . S
H605 C629 0.950 . S
H606 C630 0.950 . S
H607 C631 0.951 . S
H608 C633 0.951 . S
H609 C635 0.950 . S
H610 C636 0.950 1_455 S
H611 C638 0.950 . S
H612 C641 0.950 . S
H613 C642 0.950 . S
H614 C644 0.950 . S
H615 C645 0.950 . S
C616 H598 0.951 . S
C616 C617 1.366 . S
C616 C618 1.382 1_554 S
C617 C616 1.366 . S
C617 C621 1.385 . S
C618 H599 0.958 . S
C618 C616 1.382 1_556 S
C618 C619 1.364 1_556 S
C619 C618 1.364 1_554 S
C619 C620 1.414 . S
C619 C622 1.499 1_554 S
C620 H600 0.950 . S
C620 C619 1.414 . S
C620 C621 1.374 . S
C621 H601 0.950 . S
C621 C617 1.385 . S
C621 C620 1.374 . S
C622 C619 1.499 1_556 S
C622 C623 1.373 . S
C622 C624 1.389 . S
C623 H602 0.950 1_556 S
C623 C622 1.373 . S
C623 C639 1.377 . S
C624 C622 1.389 . S
C624 C625 1.524 . S
C624 C638 1.377 . S
C625 C624 1.524 . S
C625 C626 1.397 . S
C625 C630 1.363 . S
C626 H603 0.950 . S
C626 C625 1.397 . S
C626 C627 1.334 . S
C627 H604 0.950 . S
C627 C626 1.334 . S
C627 C628 1.287 . S
C628 C627 1.287 . S
C628 C629 1.524 . S
C628 H647 0.913 . S
C629 H605 0.950 . S
C629 C628 1.524 . S
C629 C630 1.415 . S
C630 H606 0.950 . S
C630 C625 1.363 . S
C630 C629 1.415 . S
C631 H607 0.951 . S
C631 C632 1.366 . S
C631 C633 1.388 . S
C632 C631 1.366 . S
C632 C636 1.385 . S
C633 H608 0.951 . S
C633 C631 1.388 . S
C633 C634 1.366 . S
C634 C633 1.366 . S
C634 C635 1.414 . S
C634 C637 1.499 . S
C635 H609 0.950 . S
C635 C634 1.414 . S
C635 C636 1.374 . S
C636 H610 0.950 1_655 S
C636 C632 1.385 . S
C636 C635 1.374 . S
C637 C634 1.499 . S
C637 C638 1.373 . S
C637 C639 1.389 . S
C638 H611 0.950 . S
C638 C624 1.377 . S
C638 C637 1.373 . S
C639 C623 1.377 . S
C639 C637 1.389 . S
C639 C640 1.524 1_655 S
C640 C639 1.524 1_455 S
C640 C641 1.397 . S
C640 C645 1.363 1_556 S
C641 H612 0.950 . S
C641 C640 1.397 . S
C641 C642 1.334 . S
C642 H613 0.950 . S
C642 C641 1.334 . S
C642 C643 1.287 . S
C643 C642 1.287 . S
C643 C644 1.524 1_556 S
C643 H646 0.999 . S
C644 H614 0.950 . S
C644 C643 1.524 1_554 S
C644 C645 1.415 . S
C645 H615 0.950 . S
C645 C640 1.363 1_554 S
C645 C644 1.415 . S
H646 C643 0.999 . S
H647 C628 0.913 . S
H648 C666 0.951 . S
H649 C668 0.951 . S
H650 C670 0.950 . S
H651 C671 0.950 . S
H652 C673 0.950 . S
H653 C676 0.950 . S
H654 C677 0.950 . S
H655 C679 0.950 . S
H656 C680 0.950 . S
H657 C681 0.951 . S
H658 C683 0.951 . S
H659 C685 0.950 1_655 S
H660 C686 0.950 . S
H661 C688 0.950 . S
H662 C691 0.950 . S
H663 C692 0.950 . S
H664 C694 0.950 . S
H665 C695 0.950 . S
C666 H648 0.951 . S
C666 C667 1.366 . S
C666 C668 1.388 . S
C667 C666 1.366 . S
C667 C671 1.385 . S
C668 H649 0.951 . S
C668 C666 1.388 . S
C668 C669 1.366 . S
C669 C668 1.366 . S
C669 C670 1.414 . S
C669 C672 1.499 . S
C670 H650 0.950 . S
C670 C669 1.414 . S
C670 C671 1.374 . S
C671 H651 0.950 . S
C671 C667 1.385 . S
C671 C670 1.374 . S
C672 C669 1.499 . S
C672 C673 1.373 . S
C672 C674 1.389 . S
C673 H652 0.950 . S
C673 C672 1.373 . S
C673 C689 1.377 . S
C674 C672 1.389 . S
C674 C675 1.524 . S
C674 C688 1.377 . S
C675 C674 1.524 . S
C675 C676 1.397 . S
C675 C680 1.363 1_455 S
C676 H653 0.950 . S
C676 C675 1.397 . S
C676 C677 1.334 . S
C677 H654 0.950 . S
C677 C676 1.334 . S
C677 C678 1.287 1_455 S
C678 C677 1.287 1_655 S
C678 C679 1.524 . S
C678 H697 0.913 . S
C679 H655 0.950 . S
C679 C678 1.524 . S
C679 C680 1.415 . S
C680 H656 0.950 . S
C680 C675 1.363 1_655 S
C680 C679 1.415 . S
C681 H657 0.951 . S
C681 C682 1.366 . S
C681 C683 1.388 . S
C682 C681 1.366 . S
C682 C686 1.385 1_455 S
C683 H658 0.951 . S
C683 C681 1.388 . S
C683 C684 1.366 . S
C684 C683 1.366 . S
C684 C685 1.414 . S
C684 C687 1.499 . S
C685 H659 0.950 1_455 S
C685 C684 1.414 . S
C685 C686 1.374 1_455 S
C686 H660 0.950 . S
C686 C682 1.385 1_655 S
C686 C685 1.374 1_655 S
C687 C684 1.499 . S
C687 C688 1.373 . S
C687 C689 1.389 . S
C688 H661 0.950 . S
C688 C674 1.377 . S
C688 C687 1.373 . S
C689 C673 1.377 . S
C689 C687 1.389 . S
C689 C690 1.524 . S
C690 C689 1.524 . S
C690 C691 1.397 . S
C690 C695 1.363 . S
C691 H662 0.950 . S
C691 C690 1.397 . S
C691 C692 1.334 . S
C692 H663 0.950 . S
C692 C691 1.334 . S
C692 C693 1.287 . S
C693 C692 1.287 . S
C693 C694 1.524 . S
C693 H696 0.999 . S
C694 H664 0.950 . S
C694 C693 1.524 . S
C694 C695 1.415 . S
C695 H665 0.950 . S
C695 C690 1.363 . S
C695 C694 1.415 . S
H696 C693 0.999 . S
H697 C678 0.913 . S
H698 C716 0.951 . S
H699 C718 0.951 . S
H700 C720 0.950 . S
H701 C721 0.950 . S
H702 C723 0.950 . S
H703 C726 0.950 . S
H704 C727 0.950 1_565 S
H705 C729 0.950 . S
H706 C730 0.950 . S
H707 C731 0.951 1_565 S
H708 C733 0.951 . S
H709 C735 0.950 . S
H710 C736 0.950 . S
H711 C738 0.950 . S
H712 C741 0.950 . S
H713 C742 0.950 . S
H714 C744 0.950 . S
H715 C745 0.950 . S
C716 H698 0.951 . S
C716 C717 1.366 . S
C716 C718 1.388 . S
C717 C716 1.366 . S
C717 C721 1.385 . S
C718 H699 0.951 . S
C718 C716 1.388 . S
C718 C719 1.366 . S
C719 C718 1.366 . S
C719 C720 1.414 . S
C719 C722 1.499 . S
C720 H700 0.950 . S
C720 C719 1.414 . S
C720 C721 1.374 . S
C721 H701 0.950 . S
C721 C717 1.385 . S
C721 C720 1.374 . S
C722 C719 1.499 . S
C722 C723 1.373 . S
C722 C724 1.389 . S
C723 H702 0.950 . S
C723 C722 1.373 . S
C723 C739 1.377 . S
C724 C722 1.389 . S
C724 C725 1.524 . S
C724 C738 1.377 . S
C725 C724 1.524 . S
C725 C726 1.397 . S
C725 C730 1.363 . S
C726 H703 0.950 . S
C726 C725 1.397 . S
C726 C727 1.334 . S
C727 H704 0.950 1_545 S
C727 C726 1.334 . S
C727 C728 1.287 . S
C728 C727 1.287 . S
C728 C729 1.524 . S
C728 H747 0.926 1_554 S
C729 H705 0.950 . S
C729 C728 1.524 . S
C729 C730 1.415 . S
C730 H706 0.950 . S
C730 C725 1.363 . S
C730 C729 1.415 . S
C731 H707 0.951 1_545 S
C731 C732 1.366 . S
C731 C733 1.388 . S
C732 C731 1.366 . S
C732 C736 1.385 . S
C733 H708 0.951 . S
C733 C731 1.388 . S
C733 C734 1.366 . S
C734 C733 1.366 . S
C734 C735 1.414 . S
C734 C737 1.499 . S
C735 H709 0.950 . S
C735 C734 1.414 . S
C735 C736 1.374 . S
C736 H710 0.950 . S
C736 C732 1.385 . S
C736 C735 1.374 . S
C737 C734 1.499 . S
C737 C738 1.373 . S
C737 C739 1.389 . S
C738 H711 0.950 . S
C738 C724 1.377 . S
C738 C737 1.373 . S
C739 C723 1.377 . S
C739 C737 1.389 . S
C739 C740 1.524 . S
C740 C739 1.524 . S
C740 C741 1.397 . S
C740 C745 1.363 . S
C741 H712 0.950 . S
C741 C740 1.397 . S
C741 C742 1.334 . S
C742 H713 0.950 . S
C742 C741 1.334 . S
C742 C743 1.287 . S
C743 C742 1.287 . S
C743 C744 1.524 . S
C743 H746 0.999 . S
C744 H714 0.950 . S
C744 C743 1.524 . S
C744 C745 1.415 . S
C745 H715 0.950 . S
C745 C740 1.363 . S
C745 C744 1.415 . S
H746 C743 0.999 . S
H747 C728 0.926 1_556 S
H748 C766 0.951 . S
H749 C768 0.951 . S
H750 C770 0.950 . S
H751 C771 0.950 . S
H752 C773 0.950 . S
H753 C776 0.950 . S
H754 C777 0.950 . S
H755 C779 0.950 . S
H756 C780 0.950 . S
H757 C781 0.951 . S
H758 C783 0.951 . S
H759 C785 0.950 . S
H760 C786 0.950 . S
H761 C788 0.950 . S
H762 C791 0.950 . S
H763 C792 0.950 . S
H764 C794 0.950 . S
H765 C795 0.950 . S
C766 H748 0.951 . S
C766 C767 1.366 . S
C766 C768 1.388 . S
C767 C766 1.366 . S
C767 C771 1.385 . S
C768 H749 0.951 . S
C768 C766 1.388 . S
C768 C769 1.366 . S
C769 C768 1.366 . S
C769 C770 1.414 . S
C769 C772 1.499 . S
C770 H750 0.950 . S
C770 C769 1.414 . S
C770 C771 1.374 . S
C771 H751 0.950 . S
C771 C767 1.385 . S
C771 C770 1.374 . S
C772 C769 1.499 . S
C772 C773 1.373 . S
C772 C774 1.389 . S
C773 H752 0.950 . S
C773 C772 1.373 . S
C773 C789 1.377 . S
C774 C772 1.389 . S
C774 C775 1.524 . S
C774 C788 1.377 . S
C775 C774 1.524 . S
C775 C776 1.397 . S
C775 C780 1.363 . S
C776 H753 0.950 . S
C776 C775 1.397 . S
C776 C777 1.334 . S
C777 H754 0.950 . S
C777 C776 1.334 . S
C777 C778 1.287 . S
C778 C777 1.287 . S
C778 C779 1.524 . S
C778 H797 0.913 . S
C779 H755 0.950 . S
C779 C778 1.524 . S
C779 C780 1.415 . S
C780 H756 0.950 . S
C780 C775 1.363 . S
C780 C779 1.415 . S
C781 H757 0.951 . S
C781 C782 1.366 . S
C781 C783 1.388 . S
C782 C781 1.366 . S
C782 C786 1.385 . S
C783 H758 0.951 . S
C783 C781 1.388 . S
C783 C784 1.366 . S
C784 C783 1.366 . S
C784 C785 1.414 . S
C784 C787 1.499 . S
C785 H759 0.950 . S
C785 C784 1.414 . S
C785 C786 1.374 . S
C786 H760 0.950 . S
C786 C782 1.385 . S
C786 C785 1.374 . S
C787 C784 1.499 . S
C787 C788 1.373 . S
C787 C789 1.389 . S
C788 H761 0.950 . S
C788 C774 1.377 . S
C788 C787 1.373 . S
C789 C773 1.377 . S
C789 C787 1.389 . S
C789 C790 1.524 . S
C790 C789 1.524 . S
C790 C791 1.397 . S
C790 C795 1.363 . S
C791 H762 0.950 . S
C791 C790 1.397 . S
C791 C792 1.334 . S
C792 H763 0.950 . S
C792 C791 1.334 . S
C792 C793 1.287 . S
C793 C792 1.287 . S
C793 C794 1.524 . S
C793 H796 0.999 . S
C794 H764 0.950 . S
C794 C793 1.524 . S
C794 C795 1.415 . S
C795 H765 0.950 . S
C795 C790 1.363 . S
C795 C794 1.415 . S
H796 C793 0.999 . S
H797 C778 0.913 . S
H798 C816 0.951 . S
H799 C818 0.951 . S
H800 C820 0.950 . S
H801 C821 0.950 . S
H802 C823 0.950 . S
H803 C826 0.950 . S
H804 C827 0.950 . S
H805 C829 0.950 . S
H806 C830 0.950 . S
H807 C831 0.951 . S
H808 C833 0.951 . S
H809 C835 0.950 . S
H810 C836 0.950 . S
H811 C838 0.950 . S
H812 C841 0.950 . S
H813 C842 0.950 . S
H814 C844 0.950 . S
H815 C845 0.950 . S
C816 H798 0.951 . S
C816 C817 1.366 . S
C816 C818 1.388 . S
C817 C816 1.366 . S
C817 C821 1.385 . S
C818 H799 0.951 . S
C818 C816 1.388 . S
C818 C819 1.366 . S
C819 C818 1.366 . S
C819 C820 1.414 . S
C819 C822 1.499 . S
C820 H800 0.950 . S
C820 C819 1.414 . S
C820 C821 1.374 . S
C821 H801 0.950 . S
C821 C817 1.385 . S
C821 C820 1.374 . S
C822 C819 1.499 . S
C822 C823 1.373 . S
C822 C824 1.389 . S
C823 H802 0.950 . S
C823 C822 1.373 . S
C823 C839 1.377 . S
C824 C822 1.389 . S
C824 C825 1.524 . S
C824 C838 1.377 . S
C825 C824 1.524 . S
C825 C826 1.397 . S
C825 C830 1.363 . S
C826 H803 0.950 . S
C826 C825 1.397 . S
C826 C827 1.334 . S
C827 H804 0.950 . S
C827 C826 1.334 . S
C827 C828 1.287 . S
C828 C827 1.287 . S
C828 C829 1.524 . S
C828 H847 0.913 . S
C829 H805 0.950 . S
C829 C828 1.524 . S
C829 C830 1.415 . S
C830 H806 0.950 . S
C830 C825 1.363 . S
C830 C829 1.415 . S
C831 H807 0.951 . S
C831 C832 1.366 . S
C831 C833 1.388 . S
C832 C831 1.366 . S
C832 C836 1.385 . S
C833 H808 0.951 . S
C833 C831 1.388 . S
C833 C834 1.366 . S
C834 C833 1.366 . S
C834 C835 1.414 . S
C834 C837 1.499 . S
C835 H809 0.950 . S
C835 C834 1.414 . S
C835 C836 1.374 . S
C836 H810 0.950 . S
C836 C832 1.385 . S
C836 C835 1.374 . S
C837 C834 1.499 . S
C837 C838 1.373 . S
C837 C839 1.389 . S
C838 H811 0.950 . S
C838 C824 1.377 . S
C838 C837 1.373 . S
C839 C823 1.377 . S
C839 C837 1.389 . S
C839 C840 1.524 . S
C840 C839 1.524 . S
C840 C841 1.397 . S
C840 C845 1.363 . S
C841 H812 0.950 . S
C841 C840 1.397 . S
C841 C842 1.334 . S
C842 H813 0.950 . S
C842 C841 1.334 . S
C842 C843 1.287 . S
C843 C842 1.287 . S
C843 C844 1.524 . S
C843 H846 0.999 . S
C844 H814 0.950 . S
C844 C843 1.524 . S
C844 C845 1.415 . S
C845 H815 0.950 . S
C845 C840 1.363 . S
C845 C844 1.415 . S
H846 C843 0.999 . S
H847 C828 0.913 . S
H848 C866 0.951 . S
H849 C868 0.951 . S
H850 C870 0.950 . S
H851 C871 0.950 . S
H852 C873 0.965 . S
H853 C876 0.950 . S
H854 C877 0.950 . S
H855 C879 0.950 . S
H856 C880 0.950 . S
H857 C881 0.951 . S
H858 C883 0.961 . S
H859 C885 0.950 1_554 S
H860 C886 0.950 . S
H861 C888 0.950 . S
H862 C891 0.950 . S
H863 C892 0.950 . S
H864 C894 0.950 . S
H865 C895 0.950 . S
C866 H848 0.951 . S
C866 C867 1.366 . S
C866 C868 1.388 . S
C867 C866 1.366 . S
C867 C871 1.385 . S
C868 H849 0.951 . S
C868 C866 1.388 . S
C868 C869 1.366 . S
C869 C868 1.366 . S
C869 C870 1.414 . S
C869 C872 1.499 . S
C870 H850 0.950 . S
C870 C869 1.414 . S
C870 C871 1.374 . S
C871 H851 0.950 . S
C871 C867 1.385 . S
C871 C870 1.374 . S
C872 C869 1.499 . S
C872 C873 1.373 . S
C872 C874 1.389 . S
C873 H852 0.965 . S
C873 C872 1.373 . S
C873 C889 1.363 1_654 S
C874 C872 1.389 . S
C874 C875 1.524 . S
C874 C888 1.377 . S
C875 C874 1.524 . S
C875 C876 1.397 . S
C875 C880 1.363 . S
C876 H853 0.950 . S
C876 C875 1.397 . S
C876 C877 1.334 . S
C877 H854 0.950 . S
C877 C876 1.334 . S
C877 C878 1.287 . S
C878 C877 1.287 . S
C878 C879 1.524 . S
C878 H897 0.913 . S
C879 H855 0.950 . S
C879 C878 1.524 . S
C879 C880 1.415 . S
C880 H856 0.950 . S
C880 C875 1.363 . S
C880 C879 1.415 . S
C881 H857 0.951 . S
C881 C882 1.366 . S
C881 C883 1.376 1_455 S
C882 C881 1.366 . S
C882 C886 1.385 . S
C883 H858 0.961 . S
C883 C881 1.376 1_655 S
C883 C884 1.370 . S
C884 C883 1.370 . S
C884 C885 1.414 1_655 S
C884 C887 1.499 . S
C885 H859 0.950 1_556 S
C885 C884 1.414 1_455 S
C885 C886 1.374 . S
C886 H860 0.950 . S
C886 C882 1.385 . S
C886 C885 1.374 . S
C887 C884 1.499 . S
C887 C888 1.373 1_556 S
C887 C889 1.373 1_655 S
C888 H861 0.950 . S
C888 C874 1.377 . S
C888 C887 1.373 1_554 S
C889 C873 1.363 1_456 S
C889 C887 1.373 1_455 S
C889 C890 1.558 . S
C890 C889 1.558 . S
C890 C891 1.397 . S
C890 C895 1.363 . S
C891 H862 0.950 . S
C891 C890 1.397 . S
C891 C892 1.334 . S
C892 H863 0.950 . S
C892 C891 1.334 . S
C892 C893 1.287 . S
C893 C892 1.287 . S
C893 C894 1.524 . S
C893 H896 0.999 . S
C894 H864 0.950 . S
C894 C893 1.524 . S
C894 C895 1.415 . S
C895 H865 0.950 . S
C895 C890 1.363 . S
C895 C894 1.415 . S
H896 C893 0.999 . S
H897 C878 0.913 . S
H898 C916 0.951 . S
H899 C918 0.951 . S
H900 C920 0.950 . S
H901 C921 0.950 . S
H902 C923 0.950 . S
H903 C926 0.950 . S
H904 C927 0.943 1_554 S
H905 C929 0.942 1_565 S
H906 C930 0.950 . S
H907 C931 0.951 . S
H908 C933 0.951 . S
H909 C935 0.950 . S
H910 C936 0.950 1_565 S
H911 C938 0.950 1_545 S
H912 C941 0.950 . S
H913 C942 0.950 . S
H914 C944 0.950 . S
H915 C945 0.950 . S
C916 H898 0.951 . S
C916 C917 1.366 . S
C916 C918 1.388 . S
C917 C916 1.366 . S
C917 C921 1.385 . S
C918 H899 0.951 . S
C918 C916 1.388 . S
C918 C919 1.366 . S
C919 C918 1.366 . S
C919 C920 1.414 . S
C919 C922 1.499 . S
C920 H900 0.950 . S
C920 C919 1.414 . S
C920 C921 1.374 . S
C921 H901 0.950 . S
C921 C917 1.385 . S
C921 C920 1.374 . S
C922 C919 1.499 . S
C922 C923 1.373 . S
C922 C924 1.389 1_554 S
C923 H902 0.950 . S
C923 C922 1.373 . S
C923 C939 1.377 . S
C924 C922 1.389 1_556 S
C924 C925 1.533 . S
C924 C938 1.377 . S
C925 C924 1.533 . S
C925 C926 1.380 1_566 S
C925 C930 1.369 . S
C926 H903 0.950 . S
C926 C925 1.380 1_544 S
C926 C927 1.332 1_554 S
C927 H904 0.943 1_556 S
C927 C926 1.332 1_556 S
C927 C928 1.296 . S
C928 C927 1.296 . S
C928 C929 1.524 . S
C928 H947 0.913 . S
C929 H905 0.942 1_545 S
C929 C928 1.524 . S
C929 C930 1.415 1_545 S
C930 H906 0.950 . S
C930 C925 1.369 . S
C930 C929 1.415 1_565 S
C931 H907 0.951 . S
C931 C932 1.366 . S
C931 C933 1.388 . S
C932 C931 1.366 . S
C932 C936 1.385 . S
C933 H908 0.951 . S
C933 C931 1.388 . S
C933 C934 1.363 1_545 S
C934 C933 1.363 1_565 S
C934 C935 1.415 . S
C934 C937 1.500 . S
C935 H909 0.950 . S
C935 C934 1.415 . S
C935 C936 1.374 1_565 S
C936 H910 0.950 1_545 S
C936 C932 1.385 . S
C936 C935 1.374 1_545 S
C937 C934 1.500 . S
C937 C938 1.373 . S
C937 C939 1.389 1_556 S
C938 H911 0.950 1_565 S
C938 C924 1.377 . S
C938 C937 1.373 . S
C939 C923 1.377 . S
C939 C937 1.389 1_554 S
C939 C940 1.524 . S
C940 C939 1.524 . S
C940 C941 1.397 1_554 S
C940 C945 1.363 . S
C941 H912 0.950 . S
C941 C940 1.397 1_556 S
C941 C942 1.334 . S
C942 H913 0.950 . S
C942 C941 1.334 . S
C942 C943 1.287 1_556 S
C943 C942 1.287 1_554 S
C943 C944 1.524 . S
C943 H946 0.999 . S
C944 H914 0.950 . S
C944 C943 1.524 . S
C944 C945 1.415 . S
C945 H915 0.950 . S
C945 C940 1.363 . S
C945 C944 1.415 . S
H946 C943 0.999 . S
H947 C928 0.913 . S
H948 C966 0.951 . S
H949 C968 0.951 . S
H950 C970 0.950 . S
H951 C971 0.950 . S
H952 C973 0.950 . S
H953 C976 0.950 . S
H954 C977 0.950 . S
H955 C979 0.950 . S
H956 C980 0.950 . S
H957 C981 0.951 . S
H958 C983 0.951 . S
H959 C985 0.950 . S
H960 C986 0.950 . S
H961 C988 0.950 . S
H962 C991 0.950 1_556 S
H963 C992 0.950 . S
H964 C994 0.950 . S
H965 C995 0.950 . S
C966 H948 0.951 . S
C966 C967 1.366 . S
C966 C968 1.388 . S
C967 C966 1.366 . S
C967 C971 1.385 . S
C968 H949 0.951 . S
C968 C966 1.388 . S
C968 C969 1.366 . S
C969 C968 1.366 . S
C969 C970 1.414 . S
C969 C972 1.499 1_554 S
C970 H950 0.950 . S
C970 C969 1.414 . S
C970 C971 1.374 . S
C971 H951 0.950 . S
C971 C967 1.385 . S
C971 C970 1.374 . S
C972 C969 1.499 1_556 S
C972 C973 1.373 1_556 S
C972 C974 1.389 . S
C973 H952 0.950 . S
C973 C972 1.373 1_554 S
C973 C989 1.377 1_554 S
C974 C972 1.389 . S
C974 C975 1.524 . S
C974 C988 1.377 . S
C975 C974 1.524 . S
C975 C976 1.397 . S
C975 C980 1.363 . S
C976 H953 0.950 . S
C976 C975 1.397 . S
C976 C977 1.334 . S
C977 H954 0.950 . S
C977 C976 1.334 . S
C977 C978 1.287 . S
C978 C977 1.287 . S
C978 C979 1.524 . S
C978 H997 0.913 . S
C979 H955 0.950 . S
C979 C978 1.524 . S
C979 C980 1.415 . S
C980 H956 0.950 . S
C980 C975 1.363 . S
C980 C979 1.415 . S
C981 H957 0.951 . S
C981 C982 1.366 . S
C981 C983 1.388 . S
C982 C981 1.366 . S
C982 C986 1.385 . S
C983 H958 0.951 . S
C983 C981 1.388 . S
C983 C984 1.366 . S
C984 C983 1.366 . S
C984 C985 1.414 . S
C984 C987 1.499 . S
C985 H959 0.950 . S
C985 C984 1.414 . S
C985 C986 1.374 . S
C986 H960 0.950 . S
C986 C982 1.385 . S
C986 C985 1.374 . S
C987 C984 1.499 . S
C987 C988 1.373 . S
C987 C989 1.389 . S
C988 H961 0.950 . S
C988 C974 1.377 . S
C988 C987 1.373 . S
C989 C973 1.377 1_556 S
C989 C987 1.389 . S
C989 C990 1.529 . S
C990 C989 1.529 . S
C990 C991 1.396 1_556 S
C990 C995 1.359 1_556 S
C991 H962 0.950 1_554 S
C991 C990 1.396 1_554 S
C991 C992 1.334 . S
C992 H963 0.950 . S
C992 C991 1.334 . S
C992 C993 1.287 . S
C993 C992 1.287 . S
C993 C994 1.524 . S
C993 H996 0.999 . S
C994 H964 0.950 . S
C994 C993 1.524 . S
C994 C995 1.415 . S
C995 H965 0.950 . S
C995 C990 1.359 1_554 S
C995 C994 1.415 . S
H996 C993 0.999 . S
H997 C978 0.913 . S
H998 C1016 0.951 . S
H999 C1018 0.951 . S
H1000 C1020 0.950 1_556 S
H1001 C1021 0.950 . S
H1002 C1023 0.950 . S
H1003 C1026 0.950 . S
H1004 C1027 0.950 . S
H1005 C1029 0.950 . S
H1006 C1030 0.950 . S
H1007 C1031 0.951 . S
H1008 C1033 0.951 . S
H1009 C1035 0.950 1_554 S
H1010 C1036 0.950 . S
H1011 C1038 0.950 . S
H1012 C1041 0.950 . S
H1013 C1042 0.950 . S
H1014 C1044 0.950 . S
H1015 C1045 0.950 . S
C1016 H998 0.951 . S
C1016 C1017 1.366 . S
C1016 C1018 1.388 . S
C1017 C1016 1.366 . S
C1017 C1021 1.385 . S
C1018 H999 0.951 . S
C1018 C1016 1.388 . S
C1018 C1019 1.366 . S
C1019 C1018 1.366 . S
C1019 C1020 1.414 . S
C1019 C1022 1.499 . S
C1020 H1000 0.950 1_554 S
C1020 C1019 1.414 . S
C1020 C1021 1.374 . S
C1021 H1001 0.950 . S
C1021 C1017 1.385 . S
C1021 C1020 1.374 . S
C1022 C1019 1.499 . S
C1022 C1023 1.373 1_554 S
C1022 C1024 1.389 . S
C1023 H1002 0.950 . S
C1023 C1022 1.373 1_556 S
C1023 C1039 1.377 . S
C1024 C1022 1.389 . S
C1024 C1025 1.524 . S
C1024 C1038 1.377 . S
C1025 C1024 1.524 . S
C1025 C1026 1.397 . S
C1025 C1030 1.363 . S
C1026 H1003 0.950 . S
C1026 C1025 1.397 . S
C1026 C1027 1.334 . S
C1027 H1004 0.950 . S
C1027 C1026 1.334 . S
C1027 C1028 1.287 . S
C1028 C1027 1.287 . S
C1028 C1029 1.524 . S
C1028 H1047 0.913 . S
C1029 H1005 0.950 . S
C1029 C1028 1.524 . S
C1029 C1030 1.415 . S
C1030 H1006 0.950 . S
C1030 C1025 1.363 . S
C1030 C1029 1.415 . S
C1031 H1007 0.951 . S
C1031 C1032 1.366 . S
C1031 C1033 1.388 . S
C1032 C1031 1.366 . S
C1032 C1036 1.385 . S
C1033 H1008 0.951 . S
C1033 C1031 1.388 . S
C1033 C1034 1.366 . S
C1034 C1033 1.366 . S
C1034 C1035 1.414 . S
C1034 C1037 1.499 . S
C1035 H1009 0.950 1_556 S
C1035 C1034 1.414 . S
C1035 C1036 1.374 . S
C1036 H1010 0.950 . S
C1036 C1032 1.385 . S
C1036 C1035 1.374 . S
C1037 C1034 1.499 . S
C1037 C1038 1.373 1_556 S
C1037 C1039 1.389 . S
C1038 H1011 0.950 . S
C1038 C1024 1.377 . S
C1038 C1037 1.373 1_554 S
C1039 C1023 1.377 . S
C1039 C1037 1.389 . S
C1039 C1040 1.524 . S
C1040 C1039 1.524 . S
C1040 C1041 1.397 . S
C1040 C1045 1.363 . S
C1041 H1012 0.950 . S
C1041 C1040 1.397 . S
C1041 C1042 1.334 . S
C1042 H1013 0.950 . S
C1042 C1041 1.334 . S
C1042 C1043 1.287 . S
C1043 C1042 1.287 . S
C1043 C1044 1.524 . S
C1043 H1046 0.999 . S
C1044 H1014 0.950 . S
C1044 C1043 1.524 . S
C1044 C1045 1.415 . S
C1045 H1015 0.950 . S
C1045 C1040 1.363 . S
C1045 C1044 1.415 . S
H1046 C1043 0.999 . S
H1047 C1028 0.913 . S
H1048 C1066 0.951 . S
H1049 C1068 0.951 . S
H1050 C1070 0.950 . S
H1051 C1071 0.950 . S
H1052 C1073 0.950 . S
H1053 C1076 0.950 . S
H1054 C1077 0.950 1_554 S
H1055 C1079 0.950 . S
H1056 C1080 0.950 . S
H1057 C1081 0.951 . S
H1058 C1083 0.951 . S
H1059 C1085 0.950 . S
H1060 C1086 0.950 1_655 S
H1061 C1088 0.950 . S
H1062 C1091 0.950 . S
H1063 C1092 0.950 . S
H1064 C1094 0.950 . S
H1065 C1095 0.950 . S
C1066 H1048 0.951 . S
C1066 C1067 1.366 . S
C1066 C1068 1.388 . S
C1067 C1066 1.366 . S
C1067 C1071 1.385 . S
C1068 H1049 0.951 . S
C1068 C1066 1.388 . S
C1068 C1069 1.366 . S
C1069 C1068 1.366 . S
C1069 C1070 1.414 . S
C1069 C1072 1.499 . S
C1070 H1050 0.950 . S
C1070 C1069 1.414 . S
C1070 C1071 1.374 . S
C1071 H1051 0.950 . S
C1071 C1067 1.385 . S
C1071 C1070 1.374 . S
C1072 C1069 1.499 . S
C1072 C1073 1.373 . S
C1072 C1074 1.389 . S
C1073 H1052 0.950 . S
C1073 C1072 1.373 . S
C1073 C1089 1.377 . S
C1074 C1072 1.389 . S
C1074 C1075 1.524 . S
C1074 C1088 1.377 . S
C1075 C1074 1.524 . S
C1075 C1076 1.397 . S
C1075 C1080 1.363 1_455 S
C1076 H1053 0.950 . S
C1076 C1075 1.397 . S
C1076 C1077 1.334 . S
C1077 H1054 0.950 1_556 S
C1077 C1076 1.334 . S
C1077 C1078 1.287 1_455 S
C1078 C1077 1.287 1_655 S
C1078 C1079 1.524 . S
C1078 H1097 0.913 1_556 S
C1079 H1055 0.950 . S
C1079 C1078 1.524 . S
C1079 C1080 1.415 . S
C1080 H1056 0.950 . S
C1080 C1075 1.363 1_655 S
C1080 C1079 1.415 . S
C1081 H1057 0.951 . S
C1081 C1082 1.366 . S
C1081 C1083 1.388 . S
C1082 C1081 1.366 . S
C1082 C1086 1.385 . S
C1083 H1058 0.951 . S
C1083 C1081 1.388 . S
C1083 C1084 1.366 . S
C1084 C1083 1.366 . S
C1084 C1085 1.414 . S
C1084 C1087 1.499 . S
C1085 H1059 0.950 . S
C1085 C1084 1.414 . S
C1085 C1086 1.374 . S
C1086 H1060 0.950 1_455 S
C1086 C1082 1.385 . S
C1086 C1085 1.374 . S
C1087 C1084 1.499 . S
C1087 C1088 1.373 . S
C1087 C1089 1.389 . S
C1088 H1061 0.950 . S
C1088 C1074 1.377 . S
C1088 C1087 1.373 . S
C1089 C1073 1.377 . S
C1089 C1087 1.389 . S
C1089 C1090 1.524 . S
C1090 C1089 1.524 . S
C1090 C1091 1.397 . S
C1090 C1095 1.363 . S
C1091 H1062 0.950 . S
C1091 C1090 1.397 . S
C1091 C1092 1.334 . S
C1092 H1063 0.950 . S
C1092 C1091 1.334 . S
C1092 C1093 1.287 . S
C1093 C1092 1.287 . S
C1093 C1094 1.524 . S
C1093 H1096 0.999 . S
C1094 H1064 0.950 . S
C1094 C1093 1.524 . S
C1094 C1095 1.415 . S
C1095 H1065 0.950 . S
C1095 C1090 1.363 . S
C1095 C1094 1.415 . S
H1096 C1093 0.999 . S
H1097 C1078 0.913 1_554 S
H1098 C1116 0.951 . S
H1099 C1118 0.951 . S
H1100 C1120 0.950 . S
H1101 C1121 0.950 . S
H1102 C1123 0.950 . S
H1103 C1126 0.950 . S
H1104 C1127 0.950 . S
H1105 C1129 0.950 . S
H1106 C1130 0.950 . S
H1107 C1131 0.951 . S
H1108 C1133 0.951 . S
H1109 C1135 0.950 . S
H1110 C1136 0.950 . S
H1111 C1138 0.950 . S
H1112 C1141 0.950 . S
H1113 C1142 0.950 . S
H1114 C1144 0.950 . S
H1115 C1145 0.950 . S
C1116 H1098 0.951 . S
C1116 C1117 1.366 . S
C1116 C1118 1.388 . S
C1117 C1116 1.366 . S
C1117 C1121 1.385 . S
C1118 H1099 0.951 . S
C1118 C1116 1.388 . S
C1118 C1119 1.366 . S
C1119 C1118 1.366 . S
C1119 C1120 1.414 . S
C1119 C1122 1.499 . S
C1120 H1100 0.950 . S
C1120 C1119 1.414 . S
C1120 C1121 1.374 . S
C1121 H1101 0.950 . S
C1121 C1117 1.385 . S
C1121 C1120 1.374 . S
C1122 C1119 1.499 . S
C1122 C1123 1.373 . S
C1122 C1124 1.389 . S
C1123 H1102 0.950 . S
C1123 C1122 1.373 . S
C1123 C1139 1.377 . S
C1124 C1122 1.389 . S
C1124 C1125 1.524 . S
C1124 C1138 1.377 . S
C1125 C1124 1.524 . S
C1125 C1126 1.397 . S
C1125 C1130 1.363 . S
C1126 H1103 0.950 . S
C1126 C1125 1.397 . S
C1126 C1127 1.334 . S
C1127 H1104 0.950 . S
C1127 C1126 1.334 . S
C1127 C1128 1.287 . S
C1128 C1127 1.287 . S
C1128 C1129 1.524 . S
C1128 H1147 0.913 . S
C1129 H1105 0.950 . S
C1129 C1128 1.524 . S
C1129 C1130 1.415 . S
C1130 H1106 0.950 . S
C1130 C1125 1.363 . S
C1130 C1129 1.415 . S
C1131 H1107 0.951 . S
C1131 C1132 1.366 . S
C1131 C1133 1.388 . S
C1132 C1131 1.366 . S
C1132 C1136 1.385 . S
C1133 H1108 0.951 . S
C1133 C1131 1.388 . S
C1133 C1134 1.366 . S
C1134 C1133 1.366 . S
C1134 C1135 1.414 . S
C1134 C1137 1.499 . S
C1135 H1109 0.950 . S
C1135 C1134 1.414 . S
C1135 C1136 1.374 . S
C1136 H1110 0.950 . S
C1136 C1132 1.385 . S
C1136 C1135 1.374 . S
C1137 C1134 1.499 . S
C1137 C1138 1.373 . S
C1137 C1139 1.389 . S
C1138 H1111 0.950 . S
C1138 C1124 1.377 . S
C1138 C1137 1.373 . S
C1139 C1123 1.377 . S
C1139 C1137 1.389 . S
C1139 C1140 1.524 . S
C1140 C1139 1.524 . S
C1140 C1141 1.397 1_545 S
C1140 C1145 1.363 . S
C1141 H1112 0.950 . S
C1141 C1140 1.397 1_565 S
C1141 C1142 1.334 . S
C1142 H1113 0.950 . S
C1142 C1141 1.334 . S
C1142 C1143 1.287 . S
C1143 C1142 1.287 . S
C1143 C1144 1.524 . S
C1143 H1146 0.999 . S
C1144 H1114 0.950 . S
C1144 C1143 1.524 . S
C1144 C1145 1.415 1_565 S
C1145 H1115 0.950 . S
C1145 C1140 1.363 . S
C1145 C1144 1.415 1_545 S
H1146 C1143 0.999 . S
H1147 C1128 0.913 . S
H1148 C1166 0.951 . S
H1149 C1168 0.951 . S
H1150 C1170 0.950 . S
H1151 C1171 0.950 . S
H1152 C1173 0.950 . S
H1153 C1176 0.950 . S
H1154 C1177 0.950 . S
H1155 C1179 0.950 . S
H1156 C1180 0.950 . S
H1157 C1181 0.951 . S
H1158 C1183 0.951 . S
H1159 C1185 0.950 . S
H1160 C1186 0.950 . S
H1161 C1188 0.950 . S
H1162 C1191 0.950 . S
H1163 C1192 0.950 . S
H1164 C1194 0.950 . S
H1165 C1195 0.950 . S
C1166 H1148 0.951 . S
C1166 C1167 1.366 . S
C1166 C1168 1.388 . S
C1167 C1166 1.366 . S
C1167 C1171 1.385 . S
C1168 H1149 0.951 . S
C1168 C1166 1.388 . S
C1168 C1169 1.366 . S
C1169 C1168 1.366 . S
C1169 C1170 1.414 . S
C1169 C1172 1.499 . S
C1170 H1150 0.950 . S
C1170 C1169 1.414 . S
C1170 C1171 1.374 . S
C1171 H1151 0.950 . S
C1171 C1167 1.385 . S
C1171 C1170 1.374 . S
C1172 C1169 1.499 . S
C1172 C1173 1.373 . S
C1172 C1174 1.389 . S
C1173 H1152 0.950 . S
C1173 C1172 1.373 . S
C1173 C1189 1.377 . S
C1174 C1172 1.389 . S
C1174 C1175 1.524 . S
C1174 C1188 1.377 . S
C1175 C1174 1.524 . S
C1175 C1176 1.397 . S
C1175 C1180 1.363 . S
C1176 H1153 0.950 . S
C1176 C1175 1.397 . S
C1176 C1177 1.334 . S
C1177 H1154 0.950 . S
C1177 C1176 1.334 . S
C1177 C1178 1.287 . S
C1178 C1177 1.287 . S
C1178 C1179 1.524 . S
C1178 H1197 0.913 . S
C1179 H1155 0.950 . S
C1179 C1178 1.524 . S
C1179 C1180 1.415 . S
C1180 H1156 0.950 . S
C1180 C1175 1.363 . S
C1180 C1179 1.415 . S
C1181 H1157 0.951 . S
C1181 C1182 1.366 . S
C1181 C1183 1.388 . S
C1182 C1181 1.366 . S
C1182 C1186 1.385 . S
C1183 H1158 0.951 . S
C1183 C1181 1.388 . S
C1183 C1184 1.366 . S
C1184 C1183 1.366 . S
C1184 C1185 1.414 . S
C1184 C1187 1.499 . S
C1185 H1159 0.950 . S
C1185 C1184 1.414 . S
C1185 C1186 1.374 . S
C1186 H1160 0.950 . S
C1186 C1182 1.385 . S
C1186 C1185 1.374 . S
C1187 C1184 1.499 . S
C1187 C1188 1.373 . S
C1187 C1189 1.389 . S
C1188 H1161 0.950 . S
C1188 C1174 1.377 . S
C1188 C1187 1.373 . S
C1189 C1173 1.377 . S
C1189 C1187 1.389 . S
C1189 C1190 1.524 . S
C1190 C1189 1.524 . S
C1190 C1191 1.397 . S
C1190 C1195 1.363 . S
C1191 H1162 0.950 . S
C1191 C1190 1.397 . S
C1191 C1192 1.334 . S
C1192 H1163 0.950 . S
C1192 C1191 1.334 . S
C1192 C1193 1.287 . S
C1193 C1192 1.287 . S
C1193 C1194 1.524 . S
C1193 H1196 0.999 . S
C1194 H1164 0.950 . S
C1194 C1193 1.524 . S
C1194 C1195 1.415 . S
C1195 H1165 0.950 . S
C1195 C1190 1.363 . S
C1195 C1194 1.415 . S
H1196 C1193 0.999 . S
H1197 C1178 0.913 . S
H1198 C1216 0.951 . S
H1199 C1218 0.951 . S
H1200 C1220 0.950 . S
H1201 C1221 0.950 . S
H1202 C1223 0.950 . S
H1203 C1226 0.950 . S
H1204 C1227 0.950 . S
H1205 C1229 0.950 . S
H1206 C1230 0.950 . S
H1207 C1231 0.951 . S
H1208 C1233 0.951 . S
H1209 C1235 0.950 . S
H1210 C1236 0.950 . S
H1211 C1238 0.950 . S
H1212 C1241 0.950 . S
H1213 C1242 0.950 . S
H1214 C1244 0.950 . S
H1215 C1245 0.950 . S
C1216 H1198 0.951 . S
C1216 C1217 1.366 . S
C1216 C1218 1.388 . S
C1217 C1216 1.366 . S
C1217 C1221 1.385 . S
C1218 H1199 0.951 . S
C1218 C1216 1.388 . S
C1218 C1219 1.366 . S
C1219 C1218 1.366 . S
C1219 C1220 1.414 . S
C1219 C1222 1.499 . S
C1220 H1200 0.950 . S
C1220 C1219 1.414 . S
C1220 C1221 1.374 . S
C1221 H1201 0.950 . S
C1221 C1217 1.385 . S
C1221 C1220 1.374 . S
C1222 C1219 1.499 . S
C1222 C1223 1.373 . S
C1222 C1224 1.389 . S
C1223 H1202 0.950 . S
C1223 C1222 1.373 . S
C1223 C1239 1.377 . S
C1224 C1222 1.389 . S
C1224 C1225 1.524 . S
C1224 C1238 1.377 . S
C1225 C1224 1.524 . S
C1225 C1226 1.397 . S
C1225 C1230 1.363 . S
C1226 H1203 0.950 . S
C1226 C1225 1.397 . S
C1226 C1227 1.334 1_556 S
C1227 H1204 0.950 . S
C1227 C1226 1.334 1_554 S
C1227 C1228 1.287 . S
C1228 C1227 1.287 . S
C1228 C1229 1.524 . S
C1228 H1247 0.913 . S
C1229 H1205 0.950 . S
C1229 C1228 1.524 . S
C1229 C1230 1.415 1_554 S
C1230 H1206 0.950 . S
C1230 C1225 1.363 . S
C1230 C1229 1.415 1_556 S
C1231 H1207 0.951 . S
C1231 C1232 1.366 . S
C1231 C1233 1.388 . S
C1232 C1231 1.366 . S
C1232 C1236 1.385 . S
C1233 H1208 0.951 . S
C1233 C1231 1.388 . S
C1233 C1234 1.366 . S
C1234 C1233 1.366 . S
C1234 C1235 1.414 . S
C1234 C1237 1.499 . S
C1235 H1209 0.950 . S
C1235 C1234 1.414 . S
C1235 C1236 1.374 . S
C1236 H1210 0.950 . S
C1236 C1232 1.385 . S
C1236 C1235 1.374 . S
C1237 C1234 1.499 . S
C1237 C1238 1.373 . S
C1237 C1239 1.389 . S
C1238 H1211 0.950 . S
C1238 C1224 1.377 . S
C1238 C1237 1.373 . S
C1239 C1223 1.377 . S
C1239 C1237 1.389 . S
C1239 C1240 1.524 . S
C1240 C1239 1.524 . S
C1240 C1241 1.397 . S
C1240 C1245 1.363 . S
C1241 H1212 0.950 . S
C1241 C1240 1.397 . S
C1241 C1242 1.334 . S
C1242 H1213 0.950 . S
C1242 C1241 1.334 . S
C1242 C1243 1.287 . S
C1243 C1242 1.287 . S
C1243 C1244 1.524 . S
C1243 H1246 0.999 . S
C1244 H1214 0.950 . S
C1244 C1243 1.524 . S
C1244 C1245 1.415 . S
C1245 H1215 0.950 . S
C1245 C1240 1.363 . S
C1245 C1244 1.415 . S
H1246 C1243 0.999 . S
H1247 C1228 0.913 . S
H1248 C1266 0.951 . S
H1249 C1268 0.951 1_455 S
H1250 C1270 0.950 . S
H1251 C1271 0.950 . S
H1252 C1273 0.950 . S
H1253 C1276 0.950 . S
H1254 C1277 0.950 . S
H1255 C1279 0.950 . S
H1256 C1280 0.950 . S
H1257 C1281 0.951 . S
H1258 C1283 0.951 . S
H1259 C1285 0.950 . S
H1260 C1286 0.950 . S
H1261 C1288 0.950 1_455 S
H1262 C1291 0.950 . S
H1263 C1292 0.950 . S
H1264 C1294 0.950 . S
H1265 C1295 0.950 . S
C1266 H1248 0.951 . S
C1266 C1267 1.366 . S
C1266 C1268 1.388 . S
C1267 C1266 1.366 . S
C1267 C1271 1.385 . S
C1268 H1249 0.951 1_655 S
C1268 C1266 1.388 . S
C1268 C1269 1.366 . S
C1269 C1268 1.366 . S
C1269 C1270 1.414 . S
C1269 C1272 1.499 . S
C1270 H1250 0.950 . S
C1270 C1269 1.414 . S
C1270 C1271 1.374 . S
C1271 H1251 0.950 . S
C1271 C1267 1.385 . S
C1271 C1270 1.374 . S
C1272 C1269 1.499 . S
C1272 C1273 1.373 . S
C1272 C1274 1.389 . S
C1273 H1252 0.950 . S
C1273 C1272 1.373 . S
C1273 C1289 1.377 . S
C1274 C1272 1.389 . S
C1274 C1275 1.524 . S
C1274 C1288 1.377 . S
C1275 C1274 1.524 . S
C1275 C1276 1.397 . S
C1275 C1280 1.363 1_655 S
C1276 H1253 0.950 . S
C1276 C1275 1.397 . S
C1276 C1277 1.334 . S
C1277 H1254 0.950 . S
C1277 C1276 1.334 . S
C1277 C1278 1.287 1_655 S
C1278 C1277 1.287 1_455 S
C1278 C1279 1.524 . S
C1278 H1297 0.913 . S
C1279 H1255 0.950 . S
C1279 C1278 1.524 . S
C1279 C1280 1.415 . S
C1280 H1256 0.950 . S
C1280 C1275 1.363 1_455 S
C1280 C1279 1.415 . S
C1281 H1257 0.951 . S
C1281 C1282 1.366 . S
C1281 C1283 1.388 . S
C1282 C1281 1.366 . S
C1282 C1286 1.385 1_655 S
C1283 H1258 0.951 . S
C1283 C1281 1.388 . S
C1283 C1284 1.366 . S
C1284 C1283 1.366 . S
C1284 C1285 1.414 1_655 S
C1284 C1287 1.499 . S
C1285 H1259 0.950 . S
C1285 C1284 1.414 1_455 S
C1285 C1286 1.374 . S
C1286 H1260 0.950 . S
C1286 C1282 1.385 1_455 S
C1286 C1285 1.374 . S
C1287 C1284 1.499 . S
C1287 C1288 1.373 . S
C1287 C1289 1.389 . S
C1288 H1261 0.950 1_655 S
C1288 C1274 1.377 . S
C1288 C1287 1.373 . S
C1289 C1273 1.377 . S
C1289 C1287 1.389 . S
C1289 C1290 1.524 . S
C1290 C1289 1.524 . S
C1290 C1291 1.397 . S
C1290 C1295 1.363 . S
C1291 H1262 0.950 . S
C1291 C1290 1.397 . S
C1291 C1292 1.334 . S
C1292 H1263 0.950 . S
C1292 C1291 1.334 . S
C1292 C1293 1.287 . S
C1293 C1292 1.287 . S
C1293 C1294 1.524 . S
C1293 H1296 0.999 . S
C1294 H1264 0.950 . S
C1294 C1293 1.524 . S
C1294 C1295 1.415 . S
C1295 H1265 0.950 . S
C1295 C1290 1.363 . S
C1295 C1294 1.415 . S
H1296 C1293 0.999 . S
H1297 C1278 0.913 . S
H1298 C1316 0.951 . S
H1299 C1318 0.951 . S
H1300 C1320 0.950 . S
H1301 C1321 0.950 . S
H1302 C1323 0.950 . S
H1303 C1326 0.950 . S
H1304 C1327 0.950 . S
H1305 C1329 0.950 . S
H1306 C1330 0.950 . S
H1307 C1331 0.951 . S
H1308 C1333 0.951 . S
H1309 C1335 0.950 1_545 S
H1310 C1336 0.950 . S
H1311 C1338 0.950 1_545 S
H1312 C1341 0.950 . S
H1313 C1342 0.950 . S
H1314 C1344 0.950 . S
H1315 C1345 0.950 . S
C1316 H1298 0.951 . S
C1316 C1317 1.366 . S
C1316 C1318 1.388 . S
C1317 C1316 1.366 . S
C1317 C1321 1.385 . S
C1318 H1299 0.951 . S
C1318 C1316 1.388 . S
C1318 C1319 1.366 . S
C1319 C1318 1.366 . S
C1319 C1320 1.414 . S
C1319 C1322 1.499 . S
C1320 H1300 0.950 . S
C1320 C1319 1.414 . S
C1320 C1321 1.374 . S
C1321 H1301 0.950 . S
C1321 C1317 1.385 . S
C1321 C1320 1.374 . S
C1322 C1319 1.499 . S
C1322 C1323 1.373 . S
C1322 C1324 1.389 . S
C1323 H1302 0.950 . S
C1323 C1322 1.373 . S
C1323 C1339 1.377 . S
C1324 C1322 1.389 . S
C1324 C1325 1.524 1_565 S
C1324 C1338 1.377 . S
C1325 C1324 1.524 1_545 S
C1325 C1326 1.397 . S
C1325 C1330 1.363 . S
C1326 H1303 0.950 . S
C1326 C1325 1.397 . S
C1326 C1327 1.334 . S
C1327 H1304 0.950 . S
C1327 C1326 1.334 . S
C1327 C1328 1.287 . S
C1328 C1327 1.287 . S
C1328 C1329 1.524 . S
C1328 H1347 0.913 . S
C1329 H1305 0.950 . S
C1329 C1328 1.524 . S
C1329 C1330 1.415 . S
C1330 H1306 0.950 . S
C1330 C1325 1.363 . S
C1330 C1329 1.415 . S
C1331 H1307 0.951 . S
C1331 C1332 1.366 . S
C1331 C1333 1.388 . S
C1332 C1331 1.366 . S
C1332 C1336 1.385 1_565 S
C1333 H1308 0.951 . S
C1333 C1331 1.388 . S
C1333 C1334 1.366 . S
C1334 C1333 1.366 . S
C1334 C1335 1.414 . S
C1334 C1337 1.499 . S
C1335 H1309 0.950 1_565 S
C1335 C1334 1.414 . S
C1335 C1336 1.374 1_565 S
C1336 H1310 0.950 . S
C1336 C1332 1.385 1_545 S
C1336 C1335 1.374 1_545 S
C1337 C1334 1.499 . S
C1337 C1338 1.373 . S
C1337 C1339 1.389 . S
C1338 H1311 0.950 1_565 S
C1338 C1324 1.377 . S
C1338 C1337 1.373 . S
C1339 C1323 1.377 . S
C1339 C1337 1.389 . S
C1339 C1340 1.524 . S
C1340 C1339 1.524 . S
C1340 C1341 1.397 . S
C1340 C1345 1.363 . S
C1341 H1312 0.950 . S
C1341 C1340 1.397 . S
C1341 C1342 1.334 . S
C1342 H1313 0.950 . S
C1342 C1341 1.334 . S
C1342 C1343 1.287 . S
C1343 C1342 1.287 . S
C1343 C1344 1.524 . S
C1343 H1346 0.999 . S
C1344 H1314 0.950 . S
C1344 C1343 1.524 . S
C1344 C1345 1.415 . S
C1345 H1315 0.950 . S
C1345 C1340 1.363 . S
C1345 C1344 1.415 . S
H1346 C1343 0.999 . S
H1347 C1328 0.913 . S
H1348 C1366 0.951 . S
H1349 C1368 0.951 . S
H1350 C1370 0.950 . S
H1351 C1371 0.950 . S
H1352 C1373 0.950 . S
H1353 C1376 0.950 . S
H1354 C1377 0.950 . S
H1355 C1379 0.950 . S
H1356 C1380 0.950 . S
H1357 C1381 0.951 . S
H1358 C1383 0.951 . S
H1359 C1385 0.950 . S
H1360 C1386 0.950 . S
H1361 C1388 0.950 . S
H1362 C1391 0.950 . S
H1363 C1392 0.950 . S
H1364 C1394 0.950 . S
H1365 C1395 0.950 . S
C1366 H1348 0.951 . S
C1366 C1367 1.366 . S
C1366 C1368 1.388 . S
C1367 C1366 1.366 . S
C1367 C1371 1.385 . S
C1368 H1349 0.951 . S
C1368 C1366 1.388 . S
C1368 C1369 1.366 . S
C1369 C1368 1.366 . S
C1369 C1370 1.414 . S
C1369 C1372 1.499 . S
C1370 H1350 0.950 . S
C1370 C1369 1.414 . S
C1370 C1371 1.374 . S
C1371 H1351 0.950 . S
C1371 C1367 1.385 . S
C1371 C1370 1.374 . S
C1372 C1369 1.499 . S
C1372 C1373 1.373 . S
C1372 C1374 1.389 . S
C1373 H1352 0.950 . S
C1373 C1372 1.373 . S
C1373 C1389 1.377 . S
C1374 C1372 1.389 . S
C1374 C1375 1.524 . S
C1374 C1388 1.377 . S
C1375 C1374 1.524 . S
C1375 C1376 1.397 . S
C1375 C1380 1.363 . S
C1376 H1353 0.950 . S
C1376 C1375 1.397 . S
C1376 C1377 1.334 . S
C1377 H1354 0.950 . S
C1377 C1376 1.334 . S
C1377 C1378 1.287 . S
C1378 C1377 1.287 . S
C1378 C1379 1.524 . S
C1378 H1397 0.913 . S
C1379 H1355 0.950 . S
C1379 C1378 1.524 . S
C1379 C1380 1.415 . S
C1380 H1356 0.950 . S
C1380 C1375 1.363 . S
C1380 C1379 1.415 . S
C1381 H1357 0.951 . S
C1381 C1382 1.366 . S
C1381 C1383 1.388 . S
C1382 C1381 1.366 . S
C1382 C1386 1.385 . S
C1383 H1358 0.951 . S
C1383 C1381 1.388 . S
C1383 C1384 1.366 . S
C1384 C1383 1.366 . S
C1384 C1385 1.414 . S
C1384 C1387 1.499 . S
C1385 H1359 0.950 . S
C1385 C1384 1.414 . S
C1385 C1386 1.374 . S
C1386 H1360 0.950 . S
C1386 C1382 1.385 . S
C1386 C1385 1.374 . S
C1387 C1384 1.499 . S
C1387 C1388 1.373 . S
C1387 C1389 1.389 . S
C1388 H1361 0.950 . S
C1388 C1374 1.377 . S
C1388 C1387 1.373 . S
C1389 C1373 1.377 . S
C1389 C1387 1.389 . S
C1389 C1390 1.524 . S
C1390 C1389 1.524 . S
C1390 C1391 1.397 . S
C1390 C1395 1.363 . S
C1391 H1362 0.950 . S
C1391 C1390 1.397 . S
C1391 C1392 1.334 . S
C1392 H1363 0.950 . S
C1392 C1391 1.334 . S
C1392 C1393 1.287 . S
C1393 C1392 1.287 . S
C1393 C1394 1.524 . S
C1393 H1396 0.999 . S
C1394 H1364 0.950 . S
C1394 C1393 1.524 . S
C1394 C1395 1.415 . S
C1395 H1365 0.950 . S
C1395 C1390 1.363 . S
C1395 C1394 1.415 . S
H1396 C1393 0.999 . S
H1397 C1378 0.913 . S
H1398 C1416 0.951 . S
H1399 C1418 0.951 . S
H1400 C1420 0.950 . S
H1401 C1421 0.950 . S
H1402 C1423 0.950 . S
H1403 C1426 0.950 . S
H1404 C1427 0.950 . S
H1405 C1429 0.950 . S
H1406 C1430 0.950 . S
H1407 C1431 0.951 . S
H1408 C1433 0.951 . S
H1409 C1435 0.950 . S
H1410 C1436 0.950 . S
H1411 C1438 0.950 . S
H1412 C1441 0.950 . S
H1413 C1442 0.950 . S
H1414 C1444 0.950 . S
H1415 C1445 0.950 . S
C1416 H1398 0.951 . S
C1416 C1417 1.366 . S
C1416 C1418 1.388 . S
C1417 C1416 1.366 . S
C1417 C1421 1.385 . S
C1418 H1399 0.951 . S
C1418 C1416 1.388 . S
C1418 C1419 1.366 . S
C1419 C1418 1.366 . S
C1419 C1420 1.414 . S
C1419 C1422 1.499 . S
C1420 H1400 0.950 . S
C1420 C1419 1.414 . S
C1420 C1421 1.374 . S
C1421 H1401 0.950 . S
C1421 C1417 1.385 . S
C1421 C1420 1.374 . S
C1422 C1419 1.499 . S
C1422 C1423 1.373 . S
C1422 C1424 1.389 . S
C1423 H1402 0.950 . S
C1423 C1422 1.373 . S
C1423 C1439 1.377 . S
C1424 C1422 1.389 . S
C1424 C1425 1.524 . S
C1424 C1438 1.377 . S
C1425 C1424 1.524 . S
C1425 C1426 1.397 . S
C1425 C1430 1.363 . S
C1426 H1403 0.950 . S
C1426 C1425 1.397 . S
C1426 C1427 1.334 . S
C1427 H1404 0.950 . S
C1427 C1426 1.334 . S
C1427 C1428 1.287 . S
C1428 C1427 1.287 . S
C1428 C1429 1.524 . S
C1428 H1447 0.913 . S
C1429 H1405 0.950 . S
C1429 C1428 1.524 . S
C1429 C1430 1.415 . S
C1430 H1406 0.950 . S
C1430 C1425 1.363 . S
C1430 C1429 1.415 . S
C1431 H1407 0.951 . S
C1431 C1432 1.366 . S
C1431 C1433 1.388 . S
C1432 C1431 1.366 . S
C1432 C1436 1.385 . S
C1433 H1408 0.951 . S
C1433 C1431 1.388 . S
C1433 C1434 1.366 . S
C1434 C1433 1.366 . S
C1434 C1435 1.414 . S
C1434 C1437 1.499 . S
C1435 H1409 0.950 . S
C1435 C1434 1.414 . S
C1435 C1436 1.374 . S
C1436 H1410 0.950 . S
C1436 C1432 1.385 . S
C1436 C1435 1.374 . S
C1437 C1434 1.499 . S
C1437 C1438 1.373 . S
C1437 C1439 1.389 . S
C1438 H1411 0.950 . S
C1438 C1424 1.377 . S
C1438 C1437 1.373 . S
C1439 C1423 1.377 . S
C1439 C1437 1.389 . S
C1439 C1440 1.524 . S
C1440 C1439 1.524 . S
C1440 C1441 1.397 . S
C1440 C1445 1.363 . S
C1441 H1412 0.950 . S
C1441 C1440 1.397 . S
C1441 C1442 1.334 . S
C1442 H1413 0.950 . S
C1442 C1441 1.334 . S
C1442 C1443 1.287 . S
C1443 C1442 1.287 . S
C1443 C1444 1.524 . S
C1443 H1446 0.999 . S
C1444 H1414 0.950 . S
C1444 C1443 1.524 . S
C1444 C1445 1.415 . S
C1445 H1415 0.950 . S
C1445 C1440 1.363 . S
C1445 C1444 1.415 . S
H1446 C1443 0.999 . S
H1447 C1428 0.913 . S
C267 C74 2.148 . S
C282 C119 2.232 . S
C332 C145 1.590 . S
C317 C85 1.507 . S
C382 C185 1.759 . S
C367 C52 1.712 . S
C432 C239 2.307 . S
C417 C63 2.238 . S
C482 C100 2.232 1_565 S
C467 C30 2.110 . S
C517 C41 1.531 . S
C532 C130 1.591 . S
C567 C8 1.677 . S
C582 C170 1.759 . S
C617 C19 2.200 . S
C632 C220 2.307 1_655 S
C682 C96 0.320 . S
C667 C62 0.300 . S
C732 C157 0.683 . S
C717 C73 0.683 . S
C782 C197 0.542 . S
C767 C84 0.557 . S
C817 C51 0.158 . S
C832 C216 0.201 . S
C867 C18 0.462 . S
C882 C117 0.322 . S
C932 C136 0.683 . S
C917 C29 0.699 . S
C982 C176 0.543 . S
C967 C40 0.559 . S
C1017 C7 0.422 . S
C1032 C237 0.204 . S
C1067 C60 1.555 . S
C1082 C90 1.884 . S
C1117 C71 2.159 . S
C1132 C140 2.552 . S
C1182 C180 2.278 . S
C1167 C82 1.773 . S
C1232 C210 1.638 . S
C1217 C49 1.364 . S
C1267 C16 1.401 . S
C1282 C105 1.885 . S
C1332 C159 2.552 . S
C1317 C27 2.017 . S
C1382 C199 2.278 . S
C1367 C38 1.927 . S
C1417 C5 1.214 . S
C1432 C225 1.638 . S
