# Generated by pormake.
# Topology zzz, (3,6)-cn, num edge types: 1
# Building blocks:
#     Node 0, Type 0, BuildingBlock: OLANEW_clean_sbu_2, # of connection points: 3
#     Node 1, Type 0, BuildingBlock: OLANEW_clean_sbu_2, # of connection points: 3
#     Node 2, Type 0, BuildingBlock: OLANEW_clean_sbu_2, # of connection points: 3
#     Node 3, Type 0, BuildingBlock: OLANEW_clean_sbu_2, # of connection points: 3
#     Node 4, Type 0, BuildingBlock: OLANEW_clean_sbu_2, # of connection points: 3
#     Node 5, Type 0, BuildingBlock: OLANEW_clean_sbu_2, # of connection points: 3
#     Node 6, Type 0, BuildingBlock: OLANEW_clean_sbu_2, # of connection points: 3
#     Node 7, Type 0, BuildingBlock: OLANEW_clean_sbu_2, # of connection points: 3
#     Node 8, Type 1, BuildingBlock: PAMTOO_clean_sbu_0, # of connection points: 6
#     Node 9, Type 1, BuildingBlock: PAMTOO_clean_sbu_0, # of connection points: 6
#     Node 10, Type 1, BuildingBlock: PAMTOO_clean_sbu_0, # of connection points: 6
#     Node 11, Type 1, BuildingBlock: PAMTOO_clean_sbu_0, # of connection points: 6
#     Edge 12, Type (0, 1), BuildingBlock: AJUNOK_clean_linker_0, # of connection points: 2
#     Edge 13, Type (0, 1), BuildingBlock: AJUNOK_clean_linker_0, # of connection points: 2
#     Edge 14, Type (0, 1), BuildingBlock: AJUNOK_clean_linker_0, # of connection points: 2
#     Edge 15, Type (0, 1), BuildingBlock: AJUNOK_clean_linker_0, # of connection points: 2
#     Edge 16, Type (0, 1), BuildingBlock: AJUNOK_clean_linker_0, # of connection points: 2
#     Edge 17, Type (0, 1), BuildingBlock: AJUNOK_clean_linker_0, # of connection points: 2
#     Edge 18, Type (0, 1), BuildingBlock: AJUNOK_clean_linker_0, # of connection points: 2
#     Edge 19, Type (0, 1), BuildingBlock: AJUNOK_clean_linker_0, # of connection points: 2
#     Edge 20, Type (0, 1), BuildingBlock: AJUNOK_clean_linker_0, # of connection points: 2
#     Edge 21, Type (0, 1), BuildingBlock: AJUNOK_clean_linker_0, # of connection points: 2
#     Edge 22, Type (0, 1), BuildingBlock: AJUNOK_clean_linker_0, # of connection points: 2
#     Edge 23, Type (0, 1), BuildingBlock: AJUNOK_clean_linker_0, # of connection points: 2
#     Edge 24, Type (0, 1), BuildingBlock: AJUNOK_clean_linker_0, # of connection points: 2
#     Edge 25, Type (0, 1), BuildingBlock: AJUNOK_clean_linker_0, # of connection points: 2
#     Edge 26, Type (0, 1), BuildingBlock: AJUNOK_clean_linker_0, # of connection points: 2
#     Edge 27, Type (0, 1), BuildingBlock: AJUNOK_clean_linker_0, # of connection points: 2
#     Edge 28, Type (0, 1), BuildingBlock: AJUNOK_clean_linker_0, # of connection points: 2
#     Edge 29, Type (0, 1), BuildingBlock: AJUNOK_clean_linker_0, # of connection points: 2
#     Edge 30, Type (0, 1), BuildingBlock: AJUNOK_clean_linker_0, # of connection points: 2
#     Edge 31, Type (0, 1), BuildingBlock: AJUNOK_clean_linker_0, # of connection points: 2
#     Edge 32, Type (0, 1), BuildingBlock: AJUNOK_clean_linker_0, # of connection points: 2
#     Edge 33, Type (0, 1), BuildingBlock: AJUNOK_clean_linker_0, # of connection points: 2
#     Edge 34, Type (0, 1), BuildingBlock: AJUNOK_clean_linker_0, # of connection points: 2
#     Edge 35, Type (0, 1), BuildingBlock: AJUNOK_clean_linker_0, # of connection points: 2
# Relax obj value: 0.225
# Max RMSD: 0.250
# Mean RMSD: 0.138
data_MOF--net-zzz--node1-OLANEW_clean_sbu_2--node2-PAMTOO_clean_sbu_0--edge1-AJUNOK_clean_linker_0
_symmetry_space_group_name_H-M    P1
_symmetry_Int_Tables_number       1
_symmetry_cell_setting            triclinic
loop_
_symmetry_equiv_pos_as_xyz
'x, y, z'
_cell_length_a     48.516496
_cell_length_b     39.207002
_cell_length_c     13.294211
_cell_angle_alpha  92.752125
_cell_angle_beta   78.788666
_cell_angle_gamma 84.713944
loop_
_atom_site_label
_atom_site_type_symbol
_atom_site_fract_x
_atom_site_fract_y
_atom_site_fract_z
_atom_type_partial_charge
O0 O 0.77824 0.59724 0.38651 0.0
Cd1 Cd 0.73275 0.63181 0.42446 0.0
O2 O 0.77012 0.57771 0.54016 0.0
Cd3 Cd 0.78437 0.55043 0.66268 0.0
O4 O 0.81816 0.53836 0.74511 0.0
C5 C 0.8395 0.55441 0.71498 0.0
O6 O 0.83854 0.57568 0.64197 0.0
C7 C 0.78609 0.57808 0.45222 0.0
C8 C 0.69553 0.59739 0.33216 0.0
O9 O 0.7102 0.61936 0.28428 0.0
O10 O 0.69803 0.59248 0.42471 0.0
O11 O 0.94139 0.73988 0.47445 0.0
Cd12 Cd 0.94416 0.68141 0.52658 0.0
O13 O 0.98703 0.72664 0.4212 0.0
Cd14 Cd 0.02751 0.74659 0.36933 0.0
O15 O 0.03407 0.79646 0.43427 0.0
C16 C 0.02153 0.80177 0.52776 0.0
O17 O 0.00907 0.77662 0.57305 0.0
C18 C 0.96525 0.74816 0.43072 0.0
C19 C 0.96002 0.63787 0.34936 0.0
O20 O 0.93406 0.64382 0.39487 0.0
O21 O 0.97863 0.65179 0.38905 0.0
O22 O 0.75828 0.91241 0.00248 0.0
Cd23 Cd 0.80294 0.88299 0.02471 0.0
O24 O 0.75964 0.94764 0.13426 0.0
Cd25 Cd 0.73657 0.98545 0.25327 0.0
O26 O 0.69651 0.00138 0.35702 0.0
C27 C 0.67734 0.98165 0.35297 0.0
O28 O 0.68324 0.95428 0.28861 0.0
C29 C 0.74708 0.93783 0.06425 0.0
C30 C 0.84752 0.92268 0.96897 0.0
O31 O 0.83995 0.90253 0.90295 0.0
O32 O 0.83393 0.92402 0.06224 0.0
O33 O 0.56884 0.69769 0.98073 0.0
Cd34 Cd 0.59807 0.74569 0.97116 0.0
O35 O 0.55344 0.70636 0.14766 0.0
Cd36 Cd 0.53286 0.6854 0.28813 0.0
O37 O 0.52066 0.65046 0.40731 0.0
C38 C 0.53992 0.63047 0.43272 0.0
O39 O 0.56629 0.63184 0.38665 0.0
C40 C 0.55438 0.68889 0.06397 0.0
C41 C 0.57331 0.80814 0.92162 0.0
O42 O 0.58387 0.78428 0.85181 0.0
O43 O 0.57395 0.8023 0.01523 0.0
O44 O 0.24673 0.42769 0.26065 0.0
Cd45 Cd 0.29611 0.40417 0.22433 0.0
O46 O 0.23219 0.39365 0.14996 0.0
Cd47 Cd 0.2003 0.37814 0.06616 0.0
O48 O 0.16075 0.3827 0.0111 0.0
C49 C 0.15811 0.40772 0.95543 0.0
O50 O 0.17922 0.42663 0.93414 0.0
C51 C 0.22689 0.41803 0.21994 0.0
C52 C 0.32072 0.43522 0.37307 0.0
O53 O 0.32119 0.448 0.2859 0.0
O54 O 0.3095 0.40709 0.3881 0.0
O55 O 0.94607 0.2922 0.2276 0.0
Cd56 Cd 0.94504 0.35045 0.17259 0.0
O57 O 0.99195 0.29423 0.19636 0.0
Cd58 Cd 0.03292 0.26439 0.17606 0.0
O59 O 0.03737 0.21128 0.11598 0.0
C60 C 0.02247 0.20571 0.04929 0.0
O61 O 0.00835 0.232 0.01794 0.0
C62 C 0.97064 0.27838 0.22955 0.0
C63 C 0.96038 0.38827 0.33125 0.0
O64 O 0.93443 0.38493 0.32985 0.0
O65 O 0.97916 0.37486 0.25469 0.0
O66 O 0.26382 0.94708 0.43038 0.0
Cd67 Cd 0.22238 0.94301 0.35468 0.0
O68 O 0.26953 0.99252 0.34267 0.0
Cd69 Cd 0.29651 0.02833 0.26409 0.0
O70 O 0.33513 0.03868 0.16282 0.0
C71 C 0.35661 0.01822 0.1677 0.0
O72 O 0.35388 0.99419 0.23334 0.0
C73 C 0.27828 0.97155 0.40243 0.0
C74 C 0.17249 0.9635 0.49421 0.0
O75 O 0.1839 0.93242 0.48543 0.0
O76 O 0.18486 0.98512 0.43652 0.0
O77 O 0.45877 0.31302 0.57294 0.0
Cd78 Cd 0.43951 0.26315 0.50703 0.0
O79 O 0.42007 0.34645 0.56819 0.0
Cd80 Cd 0.40386 0.31252 0.46467 0.0
O81 O 0.41423 0.34204 0.33009 0.0
C82 C 0.40607 0.37402 0.34187 0.0
O83 O 0.38899 0.38607 0.42797 0.0
C84 C 0.44426 0.3421 0.5917 0.0
C85 C 0.46234 0.202 0.57204 0.0
O86 O 0.47319 0.21346 0.48613 0.0
O87 O 0.44071 0.21965 0.62773 0.0
Dy88 Dy 0.99828 0.02152 0.70699 0.0
Dy89 Dy 0.00824 0.9888 0.92382 0.0
C90 C 0.06016 0.00014 0.74158 0.0
O91 O 0.01183 0.96549 0.66679 0.0
O92 O 0.00038 0.94427 0.8268 0.0
O93 O 0.01146 0.03321 0.54843 0.0
O94 O 0.96828 0.04757 0.62891 0.0
O95 O 0.96176 0.00086 0.93528 0.0
O96 O 0.96129 0.99343 0.76518 0.0
O97 O 0.02097 0.04156 0.92745 0.0
O98 O 0.99148 0.06472 0.82874 0.0
O99 O 0.99586 0.99099 0.08966 0.0
O100 O 0.03023 0.95439 0.01028 0.0
C101 C 0.00745 0.9397 0.72603 0.0
O102 O 0.04409 0.02372 0.70652 0.0
O103 O 0.04978 0.98101 0.81528 0.0
C104 C 0.98628 0.08259 0.49669 0.0
C105 C 0.98335 0.14559 0.40243 0.0
C106 C 0.00935 0.13012 0.4186 0.0
C107 C 0.01082 0.09896 0.46547 0.0
C108 C 0.96044 0.09773 0.47902 0.0
C109 C 0.95896 0.1289 0.43272 0.0
C110 C 0.98694 0.04938 0.54478 0.0
C111 C 0.94866 0.99294 0.86132 0.0
C112 C 0.00728 0.06826 0.89766 0.0
C113 C 0.00114 0.93671 0.15596 0.0
C114 C 0.98282 0.87941 0.25907 0.0
C115 C 0.99704 0.90329 0.30618 0.0
C116 C 0.00623 0.93174 0.2547 0.0
C117 C 0.98578 0.91382 0.11076 0.0
C118 C 0.97681 0.88531 0.16174 0.0
C119 C 0.01333 0.96437 0.09754 0.0
H120 H 0.02865 0.14191 0.39403 0.0
H121 H 0.03113 0.08771 0.4769 0.0
H122 H 0.94127 0.08546 0.50147 0.0
H123 H 0.93858 0.14019 0.42204 0.0
H124 H 0.00216 0.89915 0.38059 0.0
H125 H 0.01806 0.94923 0.29056 0.0
H126 H 0.98154 0.91744 0.0347 0.0
H127 H 0.96579 0.86733 0.12399 0.0
Dy128 Dy 0.50183 0.98964 0.67079 0.0
Dy129 Dy 0.53056 0.02386 0.85272 0.0
C130 C 0.50237 0.07061 0.70595 0.0
O131 O 0.54822 0.97955 0.61139 0.0
O132 O 0.56177 0.02338 0.7052 0.0
O133 O 0.49137 0.98983 0.51957 0.0
O134 O 0.47842 0.9502 0.62078 0.0
O135 O 0.54766 0.96873 0.83169 0.0
O136 O 0.51117 0.94764 0.77074 0.0
O137 O 0.48811 0.01055 0.92815 0.0
O138 O 0.46623 0.01451 0.79094 0.0
O139 O 0.53764 0.02391 0.00809 0.0
O140 O 0.55565 0.06105 0.90631 0.0
C141 C 0.56699 0.00023 0.62737 0.0
O142 O 0.50716 0.04419 0.63822 0.0
O143 O 0.50411 0.06702 0.80236 0.0
C144 C 0.44756 0.96889 0.51466 0.0
C145 C 0.39182 0.97358 0.48104 0.0
C146 C 0.39782 0.98933 0.57046 0.0
C147 C 0.4255 0.98706 0.58703 0.0
C148 C 0.44177 0.95375 0.42454 0.0
C149 C 0.41411 0.95605 0.40783 0.0
C150 C 0.47628 0.96405 0.53519 0.0
C151 C 0.5334 0.94314 0.81297 0.0
C152 C 0.46511 0.0144 0.89018 0.0
C153 C 0.58413 0.0355 0.01521 0.0
C154 C 0.63735 0.00663 0.04301 0.0
C155 C 0.61258 0.99973 0.10958 0.0
C156 C 0.58622 0.01419 0.09615 0.0
C157 C 0.60911 0.04372 0.95189 0.0
C158 C 0.63547 0.02948 0.96598 0.0
C159 C 0.55606 0.04628 0.99208 0.0
H160 H 0.38102 0.00253 0.62891 0.0
H161 H 0.42961 0.99877 0.65733 0.0
H162 H 0.45855 0.93963 0.36796 0.0
H163 H 0.41007 0.94387 0.33799 0.0
H164 H 0.61361 0.9826 0.17063 0.0
H165 H 0.56739 0.00769 0.14687 0.0
H166 H 0.60834 0.06018 0.88914 0.0
H167 H 0.65435 0.03521 0.91399 0.0
Dy168 Dy 0.51905 0.4922 0.93648 0.0
Dy169 Dy 0.45457 0.52806 0.93448 0.0
C170 C 0.46471 0.46995 0.07847 0.0
O171 O 0.50661 0.45988 0.8133 0.0
O172 O 0.45846 0.47693 0.84962 0.0
O173 O 0.5455 0.46213 0.01886 0.0
O174 O 0.56432 0.48439 0.87892 0.0
O175 O 0.48072 0.53281 0.77925 0.0
O176 O 0.52348 0.53352 0.82658 0.0
O177 O 0.47705 0.57038 0.9873 0.0
O178 O 0.50812 0.53589 0.0561 0.0
O179 O 0.42511 0.56277 0.87546 0.0
O180 O 0.40984 0.53071 0.99773 0.0
C181 C 0.48066 0.45665 0.80115 0.0
O182 O 0.48797 0.45872 0.01338 0.0
O183 O 0.45421 0.50207 0.08071 0.0
C184 C 0.58792 0.48674 0.01797 0.0
C185 C 0.62376 0.5213 0.12108 0.0
C186 C 0.59501 0.52167 0.16503 0.0
C187 C 0.57726 0.50461 0.11401 0.0
C188 C 0.61664 0.48648 0.97355 0.0
C189 C 0.63445 0.50377 0.02464 0.0
C190 C 0.56874 0.47026 0.96208 0.0
C191 C 0.50673 0.54111 0.76263 0.0
C192 C 0.49719 0.56652 0.03991 0.0
C193 C 0.38572 0.53393 0.86009 0.0
C194 C 0.36057 0.50381 0.70823 0.0
C195 C 0.3581 0.53973 0.72661 0.0
C196 C 0.3707 0.55468 0.8017 0.0
C197 C 0.38695 0.49803 0.8452 0.0
C198 C 0.37436 0.48317 0.77062 0.0
C199 C 0.40334 0.54925 0.9252 0.0
H200 H 0.58617 0.53567 0.23818 0.0
H201 H 0.55505 0.50593 0.14919 0.0
H202 H 0.62518 0.47323 0.89906 0.0
H203 H 0.65657 0.50334 0.98922 0.0
H204 H 0.34692 0.55628 0.68157 0.0
H205 H 0.36962 0.58239 0.81156 0.0
H206 H 0.39869 0.4813 0.88811 0.0
H207 H 0.37669 0.45545 0.75831 0.0
Dy208 Dy 0.01449 0.51159 0.76409 0.0
Dy209 Dy 0.98233 0.46286 0.93848 0.0
C210 C 0.99244 0.44315 0.70024 0.0
O211 O 0.9689 0.52051 0.75916 0.0
O212 O 0.94908 0.50401 0.91879 0.0
O213 O 0.02113 0.52707 0.60812 0.0
O214 O 0.0474 0.54392 0.71084 0.0
O215 O 0.9928 0.50894 0.02171 0.0
O216 O 0.99658 0.54873 0.89882 0.0
O217 O 0.02678 0.43833 0.88784 0.0
O218 O 0.04552 0.48855 0.8505 0.0
O219 O 0.98078 0.43991 0.08397 0.0
O220 O 0.94884 0.43167 0.99502 0.0
C221 C 0.9469 0.51862 0.83325 0.0
O222 O 0.0155 0.45854 0.69341 0.0
O223 O 0.97435 0.44426 0.78746 0.0
C224 C 0.06968 0.52304 0.54414 0.0
C225 C 0.11777 0.48869 0.4119 0.0
C226 C 0.10374 0.47282 0.49686 0.0
C227 C 0.07973 0.48956 0.56095 0.0
C228 C 0.08347 0.53929 0.45993 0.0
C229 C 0.10741 0.52218 0.39399 0.0
C230 C 0.0446 0.53981 0.61544 0.0
C231 C 0.99233 0.54076 0.99524 0.0
C232 C 0.04859 0.45632 0.87146 0.0
C233 C 0.93297 0.44537 0.17217 0.0
C234 C 0.88718 0.48486 0.30221 0.0
C235 C 0.91497 0.4919 0.30296 0.0
C236 C 0.93769 0.47235 0.23853 0.0
C237 C 0.90534 0.43642 0.17859 0.0
C238 C 0.88261 0.45601 0.2432 0.0
C239 C 0.95553 0.43074 0.08531 0.0
H240 H 0.11166 0.4477 0.51575 0.0
H241 H 0.06918 0.47649 0.62511 0.0
H242 H 0.07583 0.56507 0.44542 0.0
H243 H 0.11787 0.53513 0.32937 0.0
H244 H 0.91901 0.51374 0.34907 0.0
H245 H 0.95872 0.47987 0.23618 0.0
H246 H 0.90114 0.41573 0.12853 0.0
H247 H 0.86133 0.45008 0.24142 0.0
C248 C 0.12976 0.00539 0.55726 0.0
C249 C 0.14518 0.9738 0.56559 0.0
C250 C 0.1027 0.01434 0.61727 0.0
C251 C 0.0901 0.9922 0.68873 0.0
H252 H 0.13822 0.02296 0.50157 0.0
H253 H 0.09135 0.03847 0.60568 0.0
S254 S 0.1227 0.90756 0.74604 0.0
N255 N 0.14663 0.92122 0.65532 0.0
N256 N 0.09598 0.93794 0.7683 0.0
C257 C 0.10586 0.96116 0.70104 0.0
C258 C 0.13332 0.95196 0.63939 0.0
C259 C 0.46589 0.16063 0.70819 0.0
C260 C 0.47405 0.16909 0.60556 0.0
C261 C 0.47586 0.12918 0.7411 0.0
C262 C 0.494 0.10479 0.67222 0.0
H263 H 0.45154 0.17835 0.76367 0.0
H264 H 0.46863 0.12355 0.82033 0.0
S265 S 0.52279 0.11474 0.39653 0.0
N266 N 0.50235 0.15077 0.43625 0.0
N267 N 0.52074 0.09167 0.49785 0.0
C268 C 0.50274 0.1131 0.56993 0.0
C269 C 0.49289 0.14525 0.53669 0.0
C270 C 0.32611 0.44158 0.55606 0.0
C271 C 0.33154 0.45308 0.45609 0.0
C272 C 0.33511 0.45849 0.63718 0.0
C273 C 0.35002 0.48752 0.62175 0.0
H274 H 0.31455 0.41948 0.57241 0.0
H275 H 0.3302 0.4488 0.71286 0.0
S276 S 0.37131 0.52683 0.37366 0.0
N277 N 0.35354 0.49492 0.34572 0.0
N278 N 0.37116 0.52602 0.49778 0.0
C279 C 0.35594 0.49909 0.52201 0.0
C280 C 0.34656 0.48204 0.43937 0.0
C281 C 0.99684 0.40068 0.4343 0.0
C282 C 0.96852 0.40486 0.42207 0.0
C283 C 0.00461 0.41322 0.52436 0.0
C284 C 0.98425 0.42986 0.60578 0.0
H285 H 0.01309 0.38697 0.37487 0.0
H286 H 0.02655 0.40925 0.53115 0.0
S287 S 0.90814 0.45214 0.6064 0.0
N288 N 0.9207 0.43039 0.49498 0.0
N289 N 0.9352 0.45328 0.66444 0.0
C290 C 0.9561 0.43543 0.59303 0.0
C291 C 0.94826 0.42312 0.50108 0.0
C292 C 0.88382 0.95867 0.0155 0.0
C293 C 0.87183 0.94295 0.93928 0.0
C294 C 0.90804 0.97588 0.98965 0.0
C295 C 0.92115 0.97831 0.88635 0.0
H296 H 0.87491 0.9569 0.09626 0.0
H297 H 0.91689 0.98661 0.05133 0.0
S298 S 0.89661 0.94399 0.65703 0.0
N299 N 0.87389 0.93268 0.75589 0.0
N300 N 0.91916 0.96512 0.70697 0.0
C301 C 0.90868 0.96385 0.8092 0.0
C302 C 0.88413 0.94613 0.83562 0.0
C303 C 0.5643 0.87187 0.95402 0.0
C304 C 0.5619 0.84203 0.89452 0.0
C305 C 0.55519 0.9045 0.92667 0.0
C306 C 0.54267 0.90841 0.84041 0.0
H307 H 0.57393 0.87008 0.02085 0.0
H308 H 0.5578 0.92682 0.97392 0.0
S309 S 0.53078 0.83837 0.66095 0.0
N310 N 0.54595 0.81845 0.74586 0.0
N311 N 0.52804 0.8797 0.69627 0.0
C312 C 0.53963 0.87876 0.78143 0.0
C313 C 0.54948 0.84559 0.80795 0.0
C314 C 0.67516 0.58324 0.17796 0.0
C315 C 0.67686 0.57774 0.28069 0.0
C316 C 0.65826 0.56453 0.1263 0.0
C317 C 0.64232 0.53979 0.17558 0.0
H318 H 0.68699 0.60212 0.13674 0.0
H319 H 0.65732 0.56982 0.0477 0.0
S320 S 0.64001 0.51426 0.44168 0.0
N321 N 0.66146 0.5448 0.42861 0.0
N322 N 0.62978 0.50978 0.33086 0.0
C323 C 0.64386 0.53381 0.27771 0.0
C324 C 0.66111 0.55272 0.33041 0.0
C325 C 0.95242 0.58714 0.24266 0.0
C326 C 0.96822 0.61474 0.25529 0.0
C327 C 0.96028 0.56381 0.15675 0.0
C328 C 0.98382 0.56766 0.07929 0.0
H329 H 0.93431 0.58296 0.30099 0.0
H330 H 0.94787 0.54245 0.15103 0.0
S331 S 0.03122 0.63661 0.07252 0.0
N332 N 0.00803 0.64528 0.18162 0.0
N333 N 0.02228 0.6016 0.01807 0.0
C334 C -0.00072 0.59568 0.08885 0.0
C335 C 0.99165 0.61914 0.17768 0.0
C336 C 0.96127 0.21674 0.2397 0.0
C337 C 0.97459 0.24449 0.27143 0.0
C338 C 0.9648 0.1846 0.28042 0.0
C339 C 0.98131 0.17931 0.35584 0.0
H340 H 0.94835 0.21979 0.18216 0.0
H341 H 0.9545 0.16373 0.25269 0.0
S342 S 0.01843 0.24512 0.4707 0.0
N343 N 0.00382 0.26536 0.38506 0.0
N344 N 0.00978 0.20544 0.46405 0.0
C345 C 0.99441 0.20716 0.38886 0.0
C346 C 0.99112 0.23966 0.34634 0.0
C347 C 0.32453 0.9424 0.42211 0.0
C348 C 0.3064 0.97285 0.42856 0.0
C349 C 0.35205 0.94295 0.43959 0.0
C350 C 0.36231 0.97391 0.4657 0.0
H351 H 0.31766 0.91803 0.40076 0.0
H352 H 0.36543 0.9189 0.43261 0.0
S353 S 0.32243 0.06043 0.49914 0.0
N354 N 0.2999 0.03455 0.46837 0.0
N355 N 0.35182 0.0357 0.5003 0.0
C356 C 0.34406 0.00445 0.47554 0.0
C357 C 0.31606 0.00389 0.45704 0.0
C358 C 0.47553 0.3662 0.70098 0.0
C359 C 0.45568 0.3715 0.63729 0.0
C360 C 0.48513 0.39409 0.74951 0.0
C361 C 0.47514 0.42796 0.73555 0.0
H362 H 0.48291 0.34041 0.71629 0.0
H363 H 0.49933 0.38912 0.80196 0.0
S364 S 0.42761 0.45573 0.56156 0.0
N365 N 0.42958 0.41341 0.55219 0.0
N366 N 0.44737 0.46551 0.64464 0.0
C367 C 0.45671 0.4336 0.6676 0.0
C368 C 0.44703 0.40542 0.61809 0.0
C369 C 0.19482 0.47148 0.27964 0.0
C370 C 0.19813 0.43583 0.25513 0.0
C371 C 0.16841 0.48877 0.32494 0.0
C372 C 0.14429 0.47103 0.3477 0.0
H373 H 0.21298 0.48602 0.26639 0.0
H374 H 0.16722 0.51592 0.34686 0.0
S375 S 0.14137 0.37771 0.29506 0.0
N376 N 0.17504 0.38335 0.25771 0.0
N377 N 0.12502 0.41618 0.33483 0.0
C378 C 0.14707 0.43562 0.31895 0.0
C379 C 0.17408 0.41791 0.27474 0.0
C380 C 0.98247 0.78396 0.28799 0.0
C381 C 0.96807 0.78213 0.38961 0.0
C382 C 0.98665 0.81559 0.2465 0.0
C383 C 0.9769 0.84661 0.30556 0.0
H384 H 0.99065 0.76066 0.2402 0.0
H385 H 0.99813 0.81576 0.16802 0.0
S386 S 0.93833 0.85562 0.57674 0.0
N387 N 0.94396 0.81371 0.54881 0.0
N388 N 0.95232 0.87357 0.47134 0.0
C389 C 0.96249 0.84517 0.40764 0.0
C390 C 0.9578 0.81281 0.4494 0.0
C391 C 0.71408 0.99084 0.06711 0.0
C392 C 0.71905 0.95479 0.05814 0.0
C393 C 0.68756 0.00752 0.06244 0.0
C394 C 0.66502 0.98867 0.05018 0.0
H395 H 0.73093 0.00626 0.07665 0.0
H396 H 0.68459 0.03532 0.06905 0.0
S397 S 0.66713 0.89387 0.02252 0.0
N398 N 0.69938 0.90083 0.03527 0.0
N399 N 0.64939 0.93217 0.02792 0.0
C400 C 0.6697 0.95265 0.0412 0.0
C401 C 0.6968 0.9357 0.04436 0.0
C402 C 0.51121 0.65779 0.10474 0.0
C403 C 0.54032 0.65711 0.0644 0.0
C404 C 0.49728 0.62803 0.10003 0.0
C405 C 0.51227 0.5965 0.05839 0.0
H406 H 0.49901 0.68171 0.13692 0.0
H407 H 0.47464 0.62977 0.12777 0.0
S408 S 0.58895 0.5812 0.9459 0.0
N409 N 0.58368 0.6225 0.98285 0.0
N410 N 0.55785 0.56641 0.97713 0.0
C411 C 0.54155 0.59538 0.02096 0.0
C412 C 0.5555 0.62577 0.02313 0.0
C413 C 0.81526 0.52208 0.45454 0.0
C414 C 0.81327 0.55604 0.42458 0.0
C415 C 0.83967 0.49936 0.41789 0.0
C416 C 0.86298 0.50996 0.35092 0.0
H417 H 0.79735 0.51244 0.50245 0.0
H418 H 0.84005 0.4731 0.43993 0.0
S419 S 0.86875 0.59638 0.25163 0.0
N420 N 0.83703 0.59934 0.32624 0.0
N421 N 0.88275 0.55669 0.25718 0.0
C422 C 0.86157 0.5441 0.32285 0.0
C423 C 0.83672 0.5671 0.3595 0.0
C424 C 0.00597 0.16523 0.92817 0.0
C425 C 0.01924 0.17035 0.01216 0.0
C426 C 0.00186 0.13224 0.89253 0.0
C427 C 0.01082 0.103 0.93953 0.0
H428 H 0.99876 0.18688 0.88896 0.0
H429 H 0.99186 0.12973 0.82682 0.0
S430 S 0.04527 0.10246 0.16616 0.0
N431 N 0.04039 0.14341 0.14401 0.0
N432 N 0.03265 0.08145 0.07756 0.0
C433 C 0.02378 0.10777 0.0247 0.0
C434 C 0.028 0.14139 0.06083 0.0
C435 C 0.40889 0.0056 0.1257 0.0
C436 C 0.38402 0.01986 0.09784 0.0
C437 C 0.43509 0.00472 0.05888 0.0
C438 C 0.43734 0.01757 0.96098 0.0
H439 H 0.40815 0.99482 0.19961 0.0
H440 H 0.4536 0.99307 0.08339 0.0
S441 S 0.37858 0.05857 0.85217 0.0
N442 N 0.36328 0.04806 0.96697 0.0
N443 N 0.41256 0.04613 0.84073 0.0
C444 C 0.41268 0.03245 0.93269 0.0
C445 C 0.38601 0.03373 0.00138 0.0
C446 C 0.41541 0.43368 0.29586 0.0
C447 C 0.41925 0.39811 0.26865 0.0
C448 C 0.42997 0.45684 0.2338 0.0
C449 C 0.44905 0.44532 0.14233 0.0
H450 H 0.40164 0.44373 0.36717 0.0
H451 H 0.42676 0.48385 0.25892 0.0
S452 S 0.46436 0.35533 0.02989 0.0
N453 N 0.44194 0.35292 0.13927 0.0
N454 N 0.46927 0.39631 0.02294 0.0
C455 C 0.45235 0.40999 0.11221 0.0
C456 C 0.43744 0.38644 0.17514 0.0
C457 C 0.1064 0.40233 0.96603 0.0
C458 C 0.1309 0.4176 0.92394 0.0
C459 C 0.0799 0.41394 0.9456 0.0
C460 C 0.07692 0.44143 0.88308 0.0
H461 H 0.1075 0.38196 0.01778 0.0
H462 H 0.06151 0.4022 0.98228 0.0
S463 S 0.13494 0.4873 0.74359 0.0
N464 N 0.15073 0.45933 0.80824 0.0
N465 N 0.10113 0.48159 0.77208 0.0
C466 C 0.10144 0.45583 0.83687 0.0
C467 C 0.12837 0.44381 0.85669 0.0
C468 C 0.02996 0.86383 0.52938 0.0
C469 C 0.01847 0.83638 0.58141 0.0
C470 C 0.02609 0.89716 0.57639 0.0
C471 C 0.01069 0.90435 0.67755 0.0
H472 H 0.04185 0.85971 0.45117 0.0
H473 H 0.03544 0.91736 0.53305 0.0
S474 S 0.9756 0.84181 0.84701 0.0
N475 N 0.99069 0.81883 0.73999 0.0
N476 N 0.98335 0.88137 0.82774 0.0
C477 C 0.99906 0.87717 0.73061 0.0
C478 C 0.00299 0.84324 0.68277 0.0
C479 C 0.62795 0.96702 0.40969 0.0
C480 C 0.64912 0.98826 0.42145 0.0
C481 C 0.60145 0.97137 0.47569 0.0
C482 C 0.59495 0.99717 0.55642 0.0
H483 H 0.63185 0.94656 0.34936 0.0
H484 H 0.58608 0.95404 0.46361 0.0
S485 S 0.64267 0.06072 0.61788 0.0
N486 N 0.66154 0.03684 0.51818 0.0
N487 N 0.61179 0.04515 0.64227 0.0
C488 C 0.61577 0.01911 0.5679 0.0
C489 C 0.6428 0.01466 0.50042 0.0
C490 C 0.50469 0.59777 0.54011 0.0
C491 C 0.5326 0.60625 0.51354 0.0
C492 C 0.4968 0.57589 0.61847 0.0
C493 C 0.51644 0.56185 0.67447 0.0
H494 H 0.48867 0.60822 0.5003 0.0
H495 H 0.47492 0.57061 0.63652 0.0
S496 S 0.59245 0.5757 0.63407 0.0
N497 N 0.58015 0.5984 0.54794 0.0
N498 N 0.56534 0.55754 0.69604 0.0
C499 C 0.54459 0.56969 0.6476 0.0
C500 C 0.55267 0.59178 0.56695 0.0
C501 C 0.89106 0.55808 0.69894 0.0
C502 C 0.86588 0.54754 0.75418 0.0
C503 C 0.91687 0.5499 0.7282 0.0
C504 C 0.91866 0.53097 0.81441 0.0
H505 H 0.8911 0.57191 0.6303 0.0
H506 H 0.93568 0.55782 0.68081 0.0
S507 S 0.85841 0.5002 0.99177 0.0
N508 N 0.84391 0.51928 0.90383 0.0
N509 N 0.89255 0.50395 0.9594 0.0
C510 C 0.89345 0.52161 0.8735 0.0
C511 C 0.86706 0.5298 0.8431 0.0
loop_
_geom_bond_atom_site_label_1
_geom_bond_atom_site_label_2
_geom_bond_distance
_geom_bond_site_symmetry_2
_ccdc_geom_bond_type
O0 Cd1 2.300 . S
O0 C7 1.275 . S
Cd1 O0 2.300 . S
Cd1 O9 2.381 . S
Cd1 O10 2.378 . S
O2 Cd3 2.385 . S
O2 C7 1.255 . S
Cd3 O2 2.385 . S
Cd3 O4 2.317 . S
O4 Cd3 2.317 . S
O4 C5 1.232 . S
C5 O4 1.232 . S
C5 O6 1.218 . S
O6 C5 1.218 . S
C7 O0 1.275 . S
C7 O2 1.255 . S
C8 O9 1.258 . S
C8 O10 1.256 . S
O9 Cd1 2.381 . S
O9 C8 1.258 . S
O10 Cd1 2.378 . S
O10 C8 1.256 . S
O11 Cd12 2.300 1_655 S
O11 C18 1.275 1_655 S
Cd12 O11 2.300 1_455 S
Cd12 O20 2.381 1_455 S
Cd12 O21 2.378 . S
O13 Cd14 2.385 . S
O13 C18 1.255 . S
Cd14 O13 2.385 . S
Cd14 O15 2.317 . S
O15 Cd14 2.317 . S
O15 C16 1.232 . S
C16 O15 1.232 . S
C16 O17 1.218 . S
O17 C16 1.218 . S
C18 O11 1.275 1_455 S
C18 O13 1.255 . S
C19 O20 1.258 1_455 S
C19 O21 1.256 . S
O20 Cd12 2.381 1_655 S
O20 C19 1.258 1_655 S
O21 Cd12 2.378 . S
O21 C19 1.256 . S
O22 Cd23 2.300 1_565 S
O22 C29 1.275 1_565 S
Cd23 O22 2.300 1_545 S
Cd23 O31 2.381 1_545 S
Cd23 O32 2.378 . S
O24 Cd25 2.385 . S
O24 C29 1.255 . S
Cd25 O24 2.385 . S
Cd25 O26 2.317 . S
O26 Cd25 2.317 . S
O26 C27 1.232 . S
C27 O26 1.232 . S
C27 O28 1.218 . S
O28 C27 1.218 . S
C29 O22 1.275 1_545 S
C29 O24 1.255 . S
C30 O31 1.258 1_545 S
C30 O32 1.256 . S
O31 Cd23 2.381 1_565 S
O31 C30 1.258 1_565 S
O32 Cd23 2.378 . S
O32 C30 1.256 . S
O33 Cd34 2.300 . S
O33 C40 1.275 . S
Cd34 O33 2.300 . S
Cd34 O42 2.381 . S
Cd34 O43 2.378 . S
O35 Cd36 2.385 . S
O35 C40 1.255 . S
Cd36 O35 2.385 . S
Cd36 O37 2.317 . S
O37 Cd36 2.317 . S
O37 C38 1.232 . S
C38 O37 1.232 . S
C38 O39 1.218 . S
O39 C38 1.218 . S
C40 O33 1.275 . S
C40 O35 1.255 . S
C41 O42 1.258 . S
C41 O43 1.256 . S
O42 Cd34 2.381 . S
O42 C41 1.258 . S
O43 Cd34 2.378 . S
O43 C41 1.256 . S
O44 Cd45 2.300 . S
O44 C51 1.275 . S
Cd45 O44 2.300 . S
Cd45 O53 2.381 . S
Cd45 O54 2.378 . S
O46 Cd47 2.385 1_554 S
O46 C51 1.255 . S
Cd47 O46 2.385 1_556 S
Cd47 O48 2.317 . S
O48 Cd47 2.317 . S
O48 C49 1.232 . S
C49 O48 1.232 . S
C49 O50 1.218 . S
O50 C49 1.218 . S
C51 O44 1.275 . S
C51 O46 1.255 . S
C52 O53 1.258 . S
C52 O54 1.256 . S
O53 Cd45 2.381 . S
O53 C52 1.258 . S
O54 Cd45 2.378 . S
O54 C52 1.256 . S
O55 Cd56 2.300 1_655 S
O55 C62 1.275 1_655 S
Cd56 O55 2.300 1_455 S
Cd56 O64 2.381 1_455 S
Cd56 O65 2.378 . S
O57 Cd58 2.385 . S
O57 C62 1.255 . S
Cd58 O57 2.385 . S
Cd58 O59 2.317 1_554 S
O59 Cd58 2.317 1_556 S
O59 C60 1.232 . S
C60 O59 1.232 . S
C60 O61 1.218 . S
O61 C60 1.218 . S
C62 O55 1.275 1_455 S
C62 O57 1.255 . S
C63 O64 1.258 1_455 S
C63 O65 1.256 . S
O64 Cd56 2.381 1_655 S
O64 C63 1.258 1_655 S
O65 Cd56 2.378 . S
O65 C63 1.256 . S
O66 Cd67 2.300 1_565 S
O66 C73 1.275 1_565 S
Cd67 O66 2.300 1_545 S
Cd67 O75 2.381 1_545 S
Cd67 O76 2.378 . S
O68 Cd69 2.385 . S
O68 C73 1.255 . S
Cd69 O68 2.385 . S
Cd69 O70 2.317 . S
O70 Cd69 2.317 . S
O70 C71 1.232 . S
C71 O70 1.232 . S
C71 O72 1.218 . S
O72 C71 1.218 . S
C73 O66 1.275 1_545 S
C73 O68 1.255 . S
C74 O75 1.258 1_545 S
C74 O76 1.256 . S
O75 Cd67 2.381 1_565 S
O75 C74 1.258 1_565 S
O76 Cd67 2.378 . S
O76 C74 1.256 . S
O77 Cd78 2.300 . S
O77 C84 1.275 . S
Cd78 O77 2.300 . S
Cd78 O86 2.381 . S
Cd78 O87 2.378 . S
O79 Cd80 2.385 . S
O79 C84 1.255 . S
Cd80 O79 2.385 . S
Cd80 O81 2.317 . S
O81 Cd80 2.317 . S
O81 C82 1.232 . S
C82 O81 1.232 . S
C82 O83 1.218 . S
O83 C82 1.218 . S
C84 O77 1.275 . S
C84 O79 1.255 . S
C85 O86 1.258 . S
C85 O87 1.256 . S
O86 Cd78 2.381 . S
O86 C85 1.258 . S
O87 Cd78 2.378 . S
O87 C85 1.256 . S
Dy88 O91 2.307 1_545 S
Dy88 O93 2.395 1_655 S
Dy88 O94 2.379 . S
Dy88 O96 2.339 . S
Dy88 O98 2.298 . S
Dy88 O102 2.275 1_655 S
Dy88 C110 2.738 . S
Dy89 O92 2.298 . S
Dy89 O95 2.275 1_455 S
Dy89 O97 2.307 1_565 S
Dy89 O99 2.395 1_456 S
Dy89 O100 2.379 . S
Dy89 O103 2.339 . S
Dy89 C119 2.738 1_556 S
C90 O102 1.254 1_565 S
C90 O103 1.257 . S
O91 Dy88 2.307 1_565 S
O91 C101 1.266 . S
O92 Dy89 2.298 . S
O92 C101 1.236 1_455 S
O93 Dy88 2.395 1_455 S
O93 C110 1.255 1_455 S
O94 Dy88 2.379 . S
O94 C110 1.249 . S
O95 Dy89 2.275 1_655 S
O95 C111 1.254 1_565 S
O96 Dy88 2.339 . S
O96 C111 1.257 . S
O97 Dy89 2.307 1_545 S
O97 C112 1.266 . S
O98 Dy88 2.298 . S
O98 C112 1.236 1_655 S
O99 Dy89 2.395 1_654 S
O99 C119 1.255 1_655 S
O100 Dy89 2.379 . S
O100 C119 1.249 1_556 S
C101 O91 1.266 . S
C101 O92 1.236 1_655 S
O102 Dy88 2.275 1_455 S
O102 C90 1.254 1_545 S
O103 Dy89 2.339 . S
O103 C90 1.257 . S
C104 C107 1.344 1_655 S
C104 C108 1.328 . S
C104 C110 1.516 . S
C105 C106 1.304 1_655 S
C105 C109 1.323 . S
C106 C105 1.304 1_455 S
C106 C107 1.371 . S
C106 H120 0.930 . S
C107 C104 1.344 1_455 S
C107 C106 1.371 . S
C107 H121 0.931 . S
C108 C104 1.328 . S
C108 C109 1.433 . S
C108 H122 0.931 . S
C109 C105 1.323 . S
C109 C108 1.433 . S
C109 H123 0.933 . S
C110 Dy88 2.738 . S
C110 O93 1.255 1_655 S
C110 O94 1.249 . S
C110 C104 1.516 . S
C111 O95 1.254 1_545 S
C111 O96 1.257 . S
C112 O97 1.266 . S
C112 O98 1.236 1_455 S
C113 C116 1.344 1_455 S
C113 C117 1.328 . S
C113 C119 1.516 . S
C114 C115 1.304 1_455 S
C114 C118 1.323 . S
C115 C114 1.304 1_655 S
C115 C116 1.371 . S
C115 H124 0.930 . S
C116 C113 1.344 1_655 S
C116 C115 1.371 . S
C116 H125 0.931 . S
C117 C113 1.328 . S
C117 C118 1.433 . S
C117 H126 0.931 . S
C118 C114 1.323 . S
C118 C117 1.433 . S
C118 H127 0.933 . S
C119 Dy89 2.738 1_554 S
C119 O99 1.255 1_455 S
C119 O100 1.249 1_554 S
C119 C113 1.516 . S
H120 C106 0.930 . S
H121 C107 0.931 . S
H122 C108 0.931 . S
H123 C109 0.933 . S
H124 C115 0.930 . S
H125 C116 0.931 . S
H126 C117 0.931 . S
H127 C118 0.933 . S
Dy128 O131 2.307 . S
Dy128 O133 2.395 1_565 S
Dy128 O134 2.379 . S
Dy128 O136 2.339 . S
Dy128 O138 2.298 . S
Dy128 O142 2.275 1_565 S
Dy128 C150 2.738 . S
Dy129 O132 2.298 . S
Dy129 O135 2.275 1_545 S
Dy129 O137 2.307 . S
Dy129 O139 2.395 1_546 S
Dy129 O140 2.379 1_556 S
Dy129 O143 2.339 . S
Dy129 C159 2.738 1_556 S
C130 O142 1.254 . S
C130 O143 1.257 . S
O131 Dy128 2.307 . S
O131 C141 1.266 . S
O132 Dy129 2.298 . S
O132 C141 1.236 1_545 S
O133 Dy128 2.395 1_545 S
O133 C150 1.255 1_545 S
O134 Dy128 2.379 . S
O134 C150 1.249 . S
O135 Dy129 2.275 1_565 S
O135 C151 1.254 . S
O136 Dy128 2.339 . S
O136 C151 1.257 . S
O137 Dy129 2.307 . S
O137 C152 1.266 . S
O138 Dy128 2.298 . S
O138 C152 1.236 1_565 S
O139 Dy129 2.395 1_564 S
O139 C159 1.255 1_565 S
O140 Dy129 2.379 1_554 S
O140 C159 1.249 . S
C141 O131 1.266 . S
C141 O132 1.236 1_565 S
O142 Dy128 2.275 1_545 S
O142 C130 1.254 . S
O143 Dy129 2.339 . S
O143 C130 1.257 . S
C144 C147 1.344 1_565 S
C144 C148 1.328 . S
C144 C150 1.516 . S
C145 C146 1.304 1_565 S
C145 C149 1.323 . S
C146 C145 1.304 1_545 S
C146 C147 1.371 . S
C146 H160 0.930 . S
C147 C144 1.344 1_545 S
C147 C146 1.371 . S
C147 H161 0.931 . S
C148 C144 1.328 . S
C148 C149 1.433 . S
C148 H162 0.931 . S
C149 C145 1.323 . S
C149 C148 1.433 . S
C149 H163 0.933 . S
C150 Dy128 2.738 . S
C150 O133 1.255 1_565 S
C150 O134 1.249 . S
C150 C144 1.516 . S
C151 O135 1.254 . S
C151 O136 1.257 . S
C152 O137 1.266 . S
C152 O138 1.236 1_545 S
C153 C156 1.344 1_545 S
C153 C157 1.328 . S
C153 C159 1.516 . S
C154 C155 1.280 1_545 S
C154 C158 1.323 . S
C155 C154 1.280 1_565 S
C155 C156 1.374 . S
C155 H164 0.953 . S
C156 C153 1.344 1_565 S
C156 C155 1.374 . S
C156 H165 0.931 . S
C157 C153 1.328 . S
C157 C158 1.433 . S
C157 H166 0.931 . S
C158 C154 1.323 . S
C158 C157 1.433 . S
C158 H167 0.933 . S
C159 Dy129 2.738 1_554 S
C159 O139 1.255 1_545 S
C159 O140 1.249 . S
C159 C153 1.516 . S
H160 C146 0.930 . S
H161 C147 0.931 . S
H162 C148 0.931 . S
H163 C149 0.933 . S
H164 C155 0.953 . S
H165 C156 0.931 . S
H166 C157 0.931 . S
H167 C158 0.933 . S
Dy168 O171 2.307 . S
Dy168 O173 2.395 . S
Dy168 O174 2.379 . S
Dy168 O176 2.339 . S
Dy168 O178 2.298 . S
Dy168 O182 2.275 . S
Dy168 C190 2.738 . S
Dy169 O172 2.298 . S
Dy169 O175 2.275 . S
Dy169 O177 2.307 . S
Dy169 O179 2.395 . S
Dy169 O180 2.379 . S
Dy169 O183 2.339 . S
Dy169 C199 2.738 . S
C170 O182 1.254 . S
C170 O183 1.257 . S
O171 Dy168 2.307 . S
O171 C181 1.266 . S
O172 Dy169 2.298 . S
O172 C181 1.236 . S
O173 Dy168 2.395 . S
O173 C190 1.255 . S
O174 Dy168 2.379 . S
O174 C190 1.249 . S
O175 Dy169 2.275 . S
O175 C191 1.254 . S
O176 Dy168 2.339 . S
O176 C191 1.257 . S
O177 Dy169 2.307 . S
O177 C192 1.266 . S
O178 Dy168 2.298 . S
O178 C192 1.236 . S
O179 Dy169 2.395 . S
O179 C199 1.255 . S
O180 Dy169 2.379 . S
O180 C199 1.249 . S
C181 O171 1.266 . S
C181 O172 1.236 . S
O182 Dy168 2.275 . S
O182 C170 1.254 . S
O183 Dy169 2.339 . S
O183 C170 1.257 . S
C184 C187 1.333 1_556 S
C184 C188 1.331 . S
C184 C190 1.523 . S
C185 C186 1.304 . S
C185 C189 1.323 . S
C186 C185 1.304 . S
C186 C187 1.371 . S
C186 H200 0.930 . S
C187 C184 1.333 1_554 S
C187 C186 1.371 . S
C187 H201 0.931 . S
C188 C184 1.331 . S
C188 C189 1.433 1_556 S
C188 H202 0.931 . S
C189 C185 1.323 . S
C189 C188 1.433 1_554 S
C189 H203 0.933 1_554 S
C190 Dy168 2.738 . S
C190 O173 1.255 . S
C190 O174 1.249 . S
C190 C184 1.523 . S
C191 O175 1.254 . S
C191 O176 1.257 . S
C192 O177 1.266 . S
C192 O178 1.236 . S
C193 C196 1.344 . S
C193 C197 1.328 . S
C193 C199 1.516 . S
C194 C195 1.304 . S
C194 C198 1.323 . S
C195 C194 1.304 . S
C195 C196 1.371 . S
C195 H204 0.930 . S
C196 C193 1.344 . S
C196 C195 1.371 . S
C196 H205 0.931 . S
C197 C193 1.328 . S
C197 C198 1.433 . S
C197 H206 0.931 . S
C198 C194 1.323 . S
C198 C197 1.433 . S
C198 H207 0.933 . S
C199 Dy169 2.738 . S
C199 O179 1.255 . S
C199 O180 1.249 . S
C199 C193 1.516 . S
H200 C186 0.930 . S
H201 C187 0.931 . S
H202 C188 0.931 . S
H203 C189 0.933 1_556 S
H204 C195 0.930 . S
H205 C196 0.931 . S
H206 C197 0.931 . S
H207 C198 0.933 . S
Dy208 O211 2.307 1_455 S
Dy208 O213 2.395 . S
Dy208 O214 2.379 . S
Dy208 O216 2.339 . S
Dy208 O218 2.298 . S
Dy208 O222 2.275 . S
Dy208 C230 2.738 . S
Dy209 O212 2.298 . S
Dy209 O215 2.275 . S
Dy209 O217 2.307 1_655 S
Dy209 O219 2.395 1_556 S
Dy209 O220 2.379 1_556 S
Dy209 O223 2.339 . S
Dy209 C239 2.738 1_556 S
C210 O222 1.254 1_655 S
C210 O223 1.257 . S
O211 Dy208 2.307 1_655 S
O211 C221 1.266 . S
O212 Dy209 2.298 . S
O212 C221 1.236 . S
O213 Dy208 2.395 . S
O213 C230 1.255 . S
O214 Dy208 2.379 . S
O214 C230 1.249 . S
O215 Dy209 2.275 . S
O215 C231 1.254 1_655 S
O216 Dy208 2.339 . S
O216 C231 1.257 . S
O217 Dy209 2.307 1_455 S
O217 C232 1.266 . S
O218 Dy208 2.298 . S
O218 C232 1.236 . S
O219 Dy209 2.395 1_554 S
O219 C239 1.255 . S
O220 Dy209 2.379 1_554 S
O220 C239 1.249 . S
C221 O211 1.266 . S
C221 O212 1.236 . S
O222 Dy208 2.275 . S
O222 C210 1.254 1_455 S
O223 Dy209 2.339 . S
O223 C210 1.257 . S
C224 C227 1.344 . S
C224 C228 1.328 . S
C224 C230 1.516 . S
C225 C226 1.304 . S
C225 C229 1.323 . S
C226 C225 1.304 . S
C226 C227 1.371 . S
C226 H240 0.930 . S
C227 C224 1.344 . S
C227 C226 1.371 . S
C227 H241 0.931 . S
C228 C224 1.328 . S
C228 C229 1.433 . S
C228 H242 0.931 . S
C229 C225 1.323 . S
C229 C228 1.433 . S
C229 H243 0.933 . S
C230 Dy208 2.738 . S
C230 O213 1.255 . S
C230 O214 1.249 . S
C230 C224 1.516 . S
C231 O215 1.254 1_455 S
C231 O216 1.257 . S
C232 O217 1.266 . S
C232 O218 1.236 . S
C233 C236 1.344 . S
C233 C237 1.328 . S
C233 C239 1.516 . S
C234 C235 1.304 . S
C234 C238 1.323 . S
C235 C234 1.304 . S
C235 C236 1.371 . S
C235 H244 0.930 . S
C236 C233 1.344 . S
C236 C235 1.371 . S
C236 H245 0.931 . S
C237 C233 1.328 . S
C237 C238 1.433 . S
C237 H246 0.931 . S
C238 C234 1.323 . S
C238 C237 1.433 . S
C238 H247 0.933 . S
C239 Dy209 2.738 1_554 S
C239 O219 1.255 . S
C239 O220 1.249 . S
C239 C233 1.516 . S
H240 C226 0.930 . S
H241 C227 0.931 . S
H242 C228 0.931 . S
H243 C229 0.933 . S
H244 C235 0.930 . S
H245 C236 0.931 . S
H246 C237 0.931 . S
H247 C238 0.933 . S
C248 C249 1.374 . S
C248 C250 1.419 . S
C248 H252 0.930 . S
C249 C248 1.374 . S
C249 C258 1.423 1_545 S
C250 C248 1.419 . S
C250 C251 1.363 . S
C250 H253 0.929 . S
C251 C250 1.363 . S
C251 C257 1.428 1_545 S
H252 C248 0.930 . S
H253 C250 0.929 . S
S254 N255 1.613 . S
S254 N256 1.610 . S
N255 S254 1.613 . S
N255 C258 1.350 . S
N256 S254 1.610 . S
N256 C257 1.351 . S
C257 C251 1.428 1_565 S
C257 N256 1.351 . S
C257 C258 1.434 . S
C258 C249 1.423 1_565 S
C258 N255 1.350 . S
C258 C257 1.434 . S
C259 C260 1.369 . S
C259 C261 1.419 . S
C259 H263 0.930 . S
C260 C259 1.369 . S
C260 C269 1.429 . S
C261 C259 1.419 . S
C261 C262 1.363 . S
C261 H264 0.929 . S
C262 C261 1.363 . S
C262 C268 1.428 . S
H263 C259 0.930 . S
H264 C261 0.929 . S
S265 N266 1.613 . S
S265 N267 1.610 . S
N266 S265 1.613 . S
N266 C269 1.350 . S
N267 S265 1.610 . S
N267 C268 1.351 . S
C268 C262 1.428 . S
C268 N267 1.351 . S
C268 C269 1.434 . S
C269 C260 1.429 . S
C269 N266 1.350 . S
C269 C268 1.434 . S
C270 C271 1.369 . S
C270 C272 1.419 . S
C270 H274 0.930 . S
C271 C270 1.369 . S
C271 C280 1.429 . S
C272 C270 1.419 . S
C272 C273 1.363 . S
C272 H275 0.929 . S
C273 C272 1.363 . S
C273 C279 1.428 . S
H274 C270 0.930 . S
H275 C272 0.929 . S
S276 N277 1.613 . S
S276 N278 1.610 . S
N277 S276 1.613 . S
N277 C280 1.350 . S
N278 S276 1.610 . S
N278 C279 1.351 . S
C279 C273 1.428 . S
C279 N278 1.351 . S
C279 C280 1.434 . S
C280 C271 1.429 . S
C280 N277 1.350 . S
C280 C279 1.434 . S
C281 C282 1.399 . S
C281 C283 1.419 . S
C281 H285 0.930 . S
C282 C281 1.399 . S
C282 C291 1.410 1_455 S
C283 C281 1.419 . S
C283 C284 1.363 . S
C283 H286 0.929 . S
C284 C283 1.363 . S
C284 C290 1.428 1_455 S
H285 C281 0.930 . S
H286 C283 0.929 . S
S287 N288 1.613 . S
S287 N289 1.610 . S
N288 S287 1.613 . S
N288 C291 1.350 . S
N289 S287 1.610 . S
N289 C290 1.351 . S
C290 C284 1.428 1_655 S
C290 N289 1.351 . S
C290 C291 1.434 . S
C291 C282 1.410 1_655 S
C291 N288 1.350 . S
C291 C290 1.434 . S
C292 C293 1.349 1_545 S
C292 C294 1.419 . S
C292 H296 0.930 . S
C293 C292 1.349 1_565 S
C293 C302 1.447 . S
C294 C292 1.419 . S
C294 C295 1.363 1_545 S
C294 H297 0.929 . S
C295 C294 1.363 1_565 S
C295 C301 1.428 . S
H296 C292 0.930 . S
H297 C294 0.929 . S
S298 N299 1.613 . S
S298 N300 1.610 1_554 S
N299 S298 1.613 . S
N299 C302 1.350 . S
N300 S298 1.610 1_556 S
N300 C301 1.351 1_556 S
C301 C295 1.428 . S
C301 N300 1.351 1_554 S
C301 C302 1.434 . S
C302 C293 1.447 . S
C302 N299 1.350 . S
C302 C301 1.434 . S
C303 C304 1.369 . S
C303 C305 1.419 . S
C303 H307 0.930 . S
C304 C303 1.369 . S
C304 C313 1.429 1_554 S
C305 C303 1.419 . S
C305 C306 1.363 1_554 S
C305 H308 0.929 . S
C306 C305 1.363 1_556 S
C306 C312 1.428 . S
H307 C303 0.930 . S
H308 C305 0.929 . S
S309 N310 1.613 . S
S309 N311 1.610 . S
N310 S309 1.613 . S
N310 C313 1.350 . S
N311 S309 1.610 . S
N311 C312 1.351 . S
C312 C306 1.428 . S
C312 N311 1.351 . S
C312 C313 1.434 . S
C313 C304 1.429 1_556 S
C313 N310 1.350 . S
C313 C312 1.434 . S
C314 C315 1.369 . S
C314 C316 1.419 . S
C314 H318 0.930 . S
C315 C314 1.369 . S
C315 C324 1.429 . S
C316 C314 1.419 . S
C316 C317 1.363 . S
C316 H319 0.929 . S
C317 C316 1.363 . S
C317 C323 1.428 . S
H318 C314 0.930 . S
H319 C316 0.929 . S
S320 N321 1.613 . S
S320 N322 1.610 . S
N321 S320 1.613 . S
N321 C324 1.350 . S
N322 S320 1.610 . S
N322 C323 1.351 . S
C323 C317 1.428 . S
C323 N322 1.351 . S
C323 C324 1.434 . S
C324 C315 1.429 . S
C324 N321 1.350 . S
C324 C323 1.434 . S
C325 C326 1.381 . S
C325 C327 1.419 . S
C325 H329 0.930 . S
C326 C325 1.381 . S
C326 C335 1.420 1_655 S
C327 C325 1.419 . S
C327 C328 1.363 . S
C327 H330 0.929 . S
C328 C327 1.363 . S
C328 C334 1.428 1_655 S
H329 C325 0.930 . S
H330 C327 0.929 . S
S331 N332 1.613 . S
S331 N333 1.610 . S
N332 S331 1.613 . S
N332 C335 1.350 . S
N333 S331 1.610 . S
N333 C334 1.351 . S
C334 C328 1.428 1_455 S
C334 N333 1.351 . S
C334 C335 1.434 . S
C335 C326 1.420 1_455 S
C335 N332 1.350 . S
C335 C334 1.434 . S
C336 C337 1.369 1_655 S
C336 C338 1.419 . S
C336 H340 0.931 . S
C337 C336 1.369 1_455 S
C337 C346 1.429 1_455 S
C338 C336 1.419 . S
C338 C339 1.363 . S
C338 H341 0.929 . S
C339 C338 1.363 . S
C339 C345 1.428 . S
H340 C336 0.931 . S
H341 C338 0.929 . S
S342 N343 1.608 1_655 S
S342 N344 1.610 . S
N343 S342 1.608 1_455 S
N343 C346 1.334 1_455 S
N344 S342 1.610 . S
N344 C345 1.351 . S
C345 C339 1.428 . S
C345 N344 1.351 . S
C345 C346 1.434 . S
C346 C337 1.429 1_655 S
C346 N343 1.334 1_655 S
C346 C345 1.434 . S
C347 C348 1.369 . S
C347 C349 1.419 . S
C347 H351 0.930 . S
C348 C347 1.369 . S
C348 C357 1.429 1_565 S
C349 C347 1.419 . S
C349 C350 1.363 . S
C349 H352 0.929 . S
C350 C349 1.363 . S
C350 C356 1.428 1_565 S
H351 C347 0.930 . S
H352 C349 0.929 . S
S353 N354 1.613 . S
S353 N355 1.610 . S
N354 S353 1.613 . S
N354 C357 1.350 . S
N355 S353 1.610 . S
N355 C356 1.351 . S
C356 C350 1.428 1_545 S
C356 N355 1.351 . S
C356 C357 1.434 . S
C357 C348 1.429 1_545 S
C357 N354 1.350 . S
C357 C356 1.434 . S
C358 C359 1.369 . S
C358 C360 1.419 . S
C358 H362 0.930 . S
C359 C358 1.369 . S
C359 C368 1.429 . S
C360 C358 1.419 . S
C360 C361 1.363 . S
C360 H363 0.929 . S
C361 C360 1.363 . S
C361 C367 1.428 . S
H362 C358 0.930 . S
H363 C360 0.929 . S
S364 N365 1.613 . S
S364 N366 1.610 . S
N365 S364 1.613 . S
N365 C368 1.350 . S
N366 S364 1.610 . S
N366 C367 1.351 . S
C367 C361 1.428 . S
C367 N366 1.351 . S
C367 C368 1.434 . S
C368 C359 1.429 . S
C368 N365 1.350 . S
C368 C367 1.434 . S
C369 C370 1.369 . S
C369 C371 1.419 . S
C369 H373 0.930 . S
C370 C369 1.369 . S
C370 C379 1.429 . S
C371 C369 1.419 . S
C371 C372 1.363 . S
C371 H374 0.929 . S
C372 C371 1.363 . S
C372 C378 1.428 . S
H373 C369 0.930 . S
H374 C371 0.929 . S
S375 N376 1.613 . S
S375 N377 1.610 . S
N376 S375 1.613 . S
N376 C379 1.350 . S
N377 S375 1.610 . S
N377 C378 1.351 . S
C378 C372 1.428 . S
C378 N377 1.351 . S
C378 C379 1.434 . S
C379 C370 1.429 . S
C379 N376 1.350 . S
C379 C378 1.434 . S
C380 C381 1.333 1_455 S
C380 C382 1.419 . S
C380 H384 0.930 . S
C381 C380 1.333 1_655 S
C381 C390 1.449 . S
C382 C380 1.419 . S
C382 C383 1.363 . S
C382 H385 0.929 . S
C383 C382 1.363 . S
C383 C389 1.452 . S
H384 C380 0.930 . S
H385 C382 0.929 . S
S386 N387 1.613 . S
S386 N388 1.610 . S
N387 S386 1.613 . S
N387 C390 1.350 . S
N388 S386 1.610 . S
N388 C389 1.336 1_655 S
C389 C383 1.452 . S
C389 N388 1.336 1_455 S
C389 C390 1.424 1_455 S
C390 C381 1.449 . S
C390 N387 1.350 . S
C390 C389 1.424 1_655 S
C391 C392 1.369 . S
C391 C393 1.419 . S
C391 H395 0.930 . S
C392 C391 1.369 . S
C392 C401 1.429 1_545 S
C393 C391 1.419 . S
C393 C394 1.363 . S
C393 H396 0.929 . S
C394 C393 1.363 . S
C394 C400 1.428 1_545 S
H395 C391 0.930 . S
H396 C393 0.929 . S
S397 N398 1.613 . S
S397 N399 1.610 . S
N398 S397 1.613 . S
N398 C401 1.350 . S
N399 S397 1.610 . S
N399 C400 1.351 . S
C400 C394 1.428 1_565 S
C400 N399 1.351 . S
C400 C401 1.434 . S
C401 C392 1.429 1_565 S
C401 N398 1.350 . S
C401 C400 1.434 . S
C402 C403 1.369 . S
C402 C404 1.419 . S
C402 H406 0.930 . S
C403 C402 1.369 . S
C403 C412 1.429 . S
C404 C402 1.419 . S
C404 C405 1.363 . S
C404 H407 0.929 . S
C405 C404 1.363 . S
C405 C411 1.428 . S
H406 C402 0.930 . S
H407 C404 0.929 . S
S408 N409 1.613 . S
S408 N410 1.610 . S
N409 S408 1.613 . S
N409 C412 1.350 . S
N410 S408 1.610 . S
N410 C411 1.351 . S
C411 C405 1.428 . S
C411 N410 1.351 . S
C411 C412 1.434 . S
C412 C403 1.429 . S
C412 N409 1.350 . S
C412 C411 1.434 . S
C413 C414 1.369 . S
C413 C415 1.419 . S
C413 H417 0.930 . S
C414 C413 1.369 . S
C414 C423 1.429 . S
C415 C413 1.419 . S
C415 C416 1.363 . S
C415 H418 0.929 . S
C416 C415 1.363 . S
C416 C422 1.428 . S
H417 C413 0.930 . S
H418 C415 0.929 . S
S419 N420 1.613 . S
S419 N421 1.610 . S
N420 S419 1.613 . S
N420 C423 1.350 . S
N421 S419 1.610 . S
N421 C422 1.351 . S
C422 C416 1.428 . S
C422 N421 1.351 . S
C422 C423 1.434 . S
C423 C414 1.429 . S
C423 N420 1.350 . S
C423 C422 1.434 . S
C424 C425 1.369 1_655 S
C424 C426 1.419 . S
C424 H428 0.930 . S
C425 C424 1.369 1_455 S
C425 C434 1.429 . S
C426 C424 1.419 . S
C426 C427 1.363 1_655 S
C426 H429 0.929 . S
C427 C426 1.363 1_455 S
C427 C433 1.428 . S
H428 C424 0.930 . S
H429 C426 0.929 . S
S430 N431 1.613 . S
S430 N432 1.610 . S
N431 S430 1.613 . S
N431 C434 1.350 . S
N432 S430 1.610 . S
N432 C433 1.351 . S
C433 C427 1.428 . S
C433 N432 1.351 . S
C433 C434 1.434 . S
C434 C425 1.429 . S
C434 N431 1.350 . S
C434 C433 1.434 . S
C435 C436 1.369 1_564 S
C435 C437 1.419 . S
C435 H439 0.930 . S
C436 C435 1.369 1_546 S
C436 C445 1.429 . S
C437 C435 1.419 . S
C437 C438 1.363 1_564 S
C437 H440 0.929 . S
C438 C437 1.363 1_546 S
C438 C444 1.428 . S
H439 C435 0.930 . S
H440 C437 0.929 . S
S441 N442 1.613 . S
S441 N443 1.610 . S
N442 S441 1.613 . S
N442 C445 1.350 . S
N443 S441 1.610 . S
N443 C444 1.351 . S
C444 C438 1.428 . S
C444 N443 1.351 . S
C444 C445 1.434 . S
C445 C436 1.429 . S
C445 N442 1.350 . S
C445 C444 1.434 . S
C446 C447 1.369 . S
C446 C448 1.419 . S
C446 H450 0.930 . S
C447 C446 1.369 . S
C447 C456 1.429 . S
C448 C446 1.419 . S
C448 C449 1.363 . S
C448 H451 0.929 . S
C449 C448 1.363 . S
C449 C455 1.428 . S
H450 C446 0.930 . S
H451 C448 0.929 . S
S452 N453 1.613 1_556 S
S452 N454 1.610 . S
N453 S452 1.613 1_554 S
N453 C456 1.350 . S
N454 S452 1.610 . S
N454 C455 1.351 1_556 S
C455 C449 1.428 . S
C455 N454 1.351 1_554 S
C455 C456 1.434 . S
C456 C447 1.429 . S
C456 N453 1.350 . S
C456 C455 1.434 . S
C457 C458 1.369 . S
C457 C459 1.419 . S
C457 H461 0.930 . S
C458 C457 1.369 . S
C458 C467 1.429 . S
C459 C457 1.419 . S
C459 C460 1.363 . S
C459 H462 0.929 . S
C460 C459 1.363 . S
C460 C466 1.428 . S
H461 C457 0.930 . S
H462 C459 0.929 . S
S463 N464 1.613 . S
S463 N465 1.610 . S
N464 S463 1.613 . S
N464 C467 1.350 . S
N465 S463 1.610 . S
N465 C466 1.351 . S
C466 C460 1.428 . S
C466 N465 1.351 . S
C466 C467 1.434 . S
C467 C458 1.429 . S
C467 N464 1.350 . S
C467 C466 1.434 . S
C468 C469 1.369 . S
C468 C470 1.419 . S
C468 H472 0.930 . S
C469 C468 1.369 . S
C469 C478 1.429 1_655 S
C470 C468 1.419 . S
C470 C471 1.363 . S
C470 H473 0.929 . S
C471 C470 1.363 . S
C471 C477 1.431 . S
H472 C468 0.930 . S
H473 C470 0.929 . S
S474 N475 1.613 . S
S474 N476 1.610 . S
N475 S474 1.613 . S
N475 C478 1.350 . S
N476 S474 1.610 . S
N476 C477 1.348 1_455 S
C477 C471 1.431 . S
C477 N476 1.348 1_655 S
C477 C478 1.434 1_655 S
C478 C469 1.429 1_455 S
C478 N475 1.350 . S
C478 C477 1.434 1_455 S
C479 C480 1.369 1_545 S
C479 C481 1.419 . S
C479 H483 0.930 . S
C480 C479 1.369 1_565 S
C480 C489 1.429 . S
C481 C479 1.419 . S
C481 C482 1.363 1_545 S
C481 H484 0.929 . S
C482 C481 1.363 1_565 S
C482 C488 1.428 . S
H483 C479 0.930 . S
H484 C481 0.929 . S
S485 N486 1.613 . S
S485 N487 1.610 . S
N486 S485 1.613 . S
N486 C489 1.350 . S
N487 S485 1.610 . S
N487 C488 1.351 . S
C488 C482 1.428 . S
C488 N487 1.351 . S
C488 C489 1.434 . S
C489 C480 1.429 . S
C489 N486 1.350 . S
C489 C488 1.434 . S
C490 C491 1.369 . S
C490 C492 1.419 . S
C490 H494 0.930 . S
C491 C490 1.369 . S
C491 C500 1.429 . S
C492 C490 1.419 . S
C492 C493 1.363 . S
C492 H495 0.929 . S
C493 C492 1.363 . S
C493 C499 1.428 . S
H494 C490 0.930 . S
H495 C492 0.929 . S
S496 N497 1.613 . S
S496 N498 1.610 . S
N497 S496 1.613 . S
N497 C500 1.350 . S
N498 S496 1.610 . S
N498 C499 1.351 . S
C499 C493 1.428 . S
C499 N498 1.351 . S
C499 C500 1.434 . S
C500 C491 1.429 . S
C500 N497 1.350 . S
C500 C499 1.434 . S
C501 C502 1.369 . S
C501 C503 1.419 . S
C501 H505 0.930 . S
C502 C501 1.369 . S
C502 C511 1.429 . S
C503 C501 1.419 . S
C503 C504 1.363 . S
C503 H506 0.929 . S
C504 C503 1.363 . S
C504 C510 1.428 . S
H505 C501 0.930 . S
H506 C503 0.929 . S
S507 N508 1.613 . S
S507 N509 1.610 . S
N508 S507 1.613 . S
N508 C511 1.350 . S
N509 S507 1.610 . S
N509 C510 1.351 . S
C510 C504 1.428 . S
C510 N509 1.351 . S
C510 C511 1.434 . S
C511 C502 1.429 . S
C511 N508 1.350 . S
C511 C510 1.434 . S
C249 C74 2.008 . S
C251 C90 2.071 1_545 S
C262 C130 1.992 . S
C260 C85 1.974 . S
C273 C194 2.089 . S
C271 C52 2.038 . S
C284 C210 1.934 1_455 S
C282 C63 1.708 . S
C295 C111 2.073 1_564 S
C293 C30 2.006 1_565 S
C304 C41 1.934 . S
C306 C151 1.995 . S
C315 C8 1.976 . S
C317 C185 2.094 . S
C326 C19 1.701 1_655 S
C328 C231 1.936 1_654 S
C339 C105 0.684 . S
C337 C62 0.666 . S
C350 C145 0.973 . S
C348 C73 1.019 1_565 S
C361 C181 1.084 . S
C359 C84 1.156 . S
C370 C51 1.085 . S
C372 C225 0.974 . S
C381 C18 0.684 1_655 S
C383 C114 0.685 . S
C394 C154 0.971 . S
C392 C29 0.976 . S
C405 C192 1.079 1_554 S
C403 C40 1.077 . S
C414 C7 0.907 . S
C416 C234 0.981 . S
C425 C60 1.648 . S
C427 C112 2.228 . S
C436 C71 1.661 1_556 S
C438 C152 2.194 . S
C449 C170 1.709 1_554 S
C447 C82 1.528 . S
C460 C232 2.651 . S
C458 C49 2.116 . S
C469 C16 1.730 1_655 S
C471 C101 2.233 . S
C482 C141 2.197 . S
C480 C27 1.745 1_565 S
C493 C191 1.710 . S
C491 C38 1.368 . S
C502 C5 1.997 . S
C504 C221 2.650 . S
