# Generated by pormake.
# Topology zzz, (3,6)-cn, num edge types: 1
# Building blocks:
#     Node 0, Type 0, BuildingBlock: OLANEW_clean_sbu_2, # of connection points: 3
#     Node 1, Type 0, BuildingBlock: OLANEW_clean_sbu_2, # of connection points: 3
#     Node 2, Type 0, BuildingBlock: OLANEW_clean_sbu_2, # of connection points: 3
#     Node 3, Type 0, BuildingBlock: OLANEW_clean_sbu_2, # of connection points: 3
#     Node 4, Type 0, BuildingBlock: OLANEW_clean_sbu_2, # of connection points: 3
#     Node 5, Type 0, BuildingBlock: OLANEW_clean_sbu_2, # of connection points: 3
#     Node 6, Type 0, BuildingBlock: OLANEW_clean_sbu_2, # of connection points: 3
#     Node 7, Type 0, BuildingBlock: OLANEW_clean_sbu_2, # of connection points: 3
#     Node 8, Type 1, BuildingBlock: BETFEN_clean_sbu_0, # of connection points: 6
#     Node 9, Type 1, BuildingBlock: BETFEN_clean_sbu_0, # of connection points: 6
#     Node 10, Type 1, BuildingBlock: BETFEN_clean_sbu_0, # of connection points: 6
#     Node 11, Type 1, BuildingBlock: BETFEN_clean_sbu_0, # of connection points: 6
#     Edge 12, Type (0, 1), BuildingBlock: TEMPAE_clean_linker_10, # of connection points: 2
#     Edge 13, Type (0, 1), BuildingBlock: TEMPAE_clean_linker_10, # of connection points: 2
#     Edge 14, Type (0, 1), BuildingBlock: TEMPAE_clean_linker_10, # of connection points: 2
#     Edge 15, Type (0, 1), BuildingBlock: TEMPAE_clean_linker_10, # of connection points: 2
#     Edge 16, Type (0, 1), BuildingBlock: TEMPAE_clean_linker_10, # of connection points: 2
#     Edge 17, Type (0, 1), BuildingBlock: TEMPAE_clean_linker_10, # of connection points: 2
#     Edge 18, Type (0, 1), BuildingBlock: TEMPAE_clean_linker_10, # of connection points: 2
#     Edge 19, Type (0, 1), BuildingBlock: TEMPAE_clean_linker_10, # of connection points: 2
#     Edge 20, Type (0, 1), BuildingBlock: TEMPAE_clean_linker_10, # of connection points: 2
#     Edge 21, Type (0, 1), BuildingBlock: TEMPAE_clean_linker_10, # of connection points: 2
#     Edge 22, Type (0, 1), BuildingBlock: TEMPAE_clean_linker_10, # of connection points: 2
#     Edge 23, Type (0, 1), BuildingBlock: TEMPAE_clean_linker_10, # of connection points: 2
#     Edge 24, Type (0, 1), BuildingBlock: TEMPAE_clean_linker_10, # of connection points: 2
#     Edge 25, Type (0, 1), BuildingBlock: TEMPAE_clean_linker_10, # of connection points: 2
#     Edge 26, Type (0, 1), BuildingBlock: TEMPAE_clean_linker_10, # of connection points: 2
#     Edge 27, Type (0, 1), BuildingBlock: TEMPAE_clean_linker_10, # of connection points: 2
#     Edge 28, Type (0, 1), BuildingBlock: TEMPAE_clean_linker_10, # of connection points: 2
#     Edge 29, Type (0, 1), BuildingBlock: TEMPAE_clean_linker_10, # of connection points: 2
#     Edge 30, Type (0, 1), BuildingBlock: TEMPAE_clean_linker_10, # of connection points: 2
#     Edge 31, Type (0, 1), BuildingBlock: TEMPAE_clean_linker_10, # of connection points: 2
#     Edge 32, Type (0, 1), BuildingBlock: TEMPAE_clean_linker_10, # of connection points: 2
#     Edge 33, Type (0, 1), BuildingBlock: TEMPAE_clean_linker_10, # of connection points: 2
#     Edge 34, Type (0, 1), BuildingBlock: TEMPAE_clean_linker_10, # of connection points: 2
#     Edge 35, Type (0, 1), BuildingBlock: TEMPAE_clean_linker_10, # of connection points: 2
# Relax obj value: 0.252
# Max RMSD: 0.192
# Mean RMSD: 0.172
data_MOF--net-zzz--node1-OLANEW_clean_sbu_2--node2-BETFEN_clean_sbu_0--edge1-TEMPAE_clean_linker_10
_symmetry_space_group_name_H-M    P1
_symmetry_Int_Tables_number       1
_symmetry_cell_setting            triclinic
loop_
_symmetry_equiv_pos_as_xyz
'x, y, z'
_cell_length_a     56.526267
_cell_length_b     56.486087
_cell_length_c     15.489378
_cell_angle_alpha  89.763
_cell_angle_beta   90.217011
_cell_angle_gamma 89.991596
loop_
_atom_site_label
_atom_site_type_symbol
_atom_site_fract_x
_atom_site_fract_y
_atom_site_fract_z
_atom_type_partial_charge
O0 O 0.74904 0.4783 0.27338 0.0
Cd1 Cd 0.70722 0.4739 0.31216 0.0
O2 O 0.75497 0.4928 0.40208 0.0
Cd3 Cd 0.7721 0.50728 0.51762 0.0
O4 O 0.77025 0.52972 0.64001 0.0
C5 C 0.78673 0.53911 0.68557 0.0
O6 O 0.76955 0.52985 0.64088 0.0
C7 C 0.76329 0.4866 0.32934 0.0
C8 C 0.67465 0.48536 0.18224 0.0
O9 O 0.68093 0.50076 0.2384 0.0
O10 O 0.68412 0.46476 0.18655 0.0
O11 O 0.95571 0.75214 0.2399 0.0
Cd12 Cd 0.9395 0.71407 0.28551 0.0
O13 O 0.97611 0.75293 0.35982 0.0
Cd14 Cd 0.99798 0.76635 0.46533 0.0
O15 O 1.00534 0.76128 0.60906 0.0
C16 C 1.00153 0.77735 0.66524 0.0
O17 O 0.00573 0.76034 0.61071 0.0
C18 C 0.9704 0.76267 0.28865 0.0
C19 C 0.95774 0.67731 0.18669 0.0
O20 O 0.93944 0.68896 0.16209 0.0
O21 O 0.96742 0.68297 0.25868 0.0
O22 O 0.78557 0.98368 0.25673 0.0
Cd23 Cd 0.82606 0.98233 0.31297 0.0
O24 O 0.7819 0.01493 0.3388 0.0
Cd25 Cd 0.75883 0.03968 0.40503 0.0
O26 O 0.72534 0.04058 0.47282 0.0
C27 C 0.71938 0.02086 0.50597 0.0
O28 O 0.73383 1.00276 0.49875 0.0
C29 C 0.77286 1.00038 0.28562 0.0
C30 C 0.86021 0.9867 0.1848 0.0
O31 O 0.85373 0.96627 0.21224 0.0
O32 O 0.85044 1.00502 0.21772 0.0
O33 O 0.52184 0.75833 0.27321 0.0
Cd34 Cd 0.53432 0.79691 0.32822 0.0
O35 O 0.50286 0.75423 0.39459 0.0
Cd36 Cd 0.48328 0.7392 0.5033 0.0
O37 O 0.47362 0.74574 0.64403 0.0
C38 C 0.47895 0.73138 0.7051 0.0
O39 O 0.47308 0.74666 0.64536 0.0
C40 C 0.50882 0.74576 0.3219 0.0
C41 C 0.52502 0.83403 0.21391 0.0
O42 O 0.54473 0.82281 0.21182 0.0
O43 O 0.50964 0.82757 0.26986 0.0
O44 O 0.26815 0.52676 0.09619 0.0
Cd45 Cd 0.30767 0.52257 0.03378 0.0
O46 O 0.25944 0.48974 0.06695 0.0
Cd47 Cd 0.28461 0.48812 0.9615 0.0
O48 O 0.25175 0.49344 0.88878 0.0
C49 C 0.23741 0.47614 0.88414 0.0
O50 O 0.24419 0.45533 0.91321 0.0
C51 C 0.25425 0.50916 0.10339 0.0
C52 C 0.34211 0.51859 0.16338 0.0
O53 O 0.33666 0.53877 0.13082 0.0
O54 O 0.33138 0.50027 0.13427 0.0
O55 O 0.9667 0.28216 0.12892 0.0
Cd56 Cd 0.9679 0.3221 0.06742 0.0
O57 O 1.00054 0.27955 0.06257 0.0
Cd58 Cd 0.02954 0.26063 0.00234 0.0
O59 O 0.0382 0.22965 0.92732 0.0
C60 C 0.02001 0.21774 0.9067 0.0
O61 O 0.99912 0.22537 0.93119 0.0
C62 C 0.98461 0.26985 0.10859 0.0
C63 C 0.98025 0.35559 0.19039 0.0
O64 O 0.95859 0.35261 0.16824 0.0
O65 O 0.99607 0.34284 0.15407 0.0
O66 O 0.24647 0.98558 0.04216 0.0
Cd67 Cd 0.20912 0.98687 0.96301 0.0
O68 O 0.2477 0.02433 0.05256 0.0
Cd69 Cd 0.22817 0.02752 0.93219 0.0
O70 O 0.26377 0.02395 0.87862 0.0
C71 C 0.27813 0.04105 0.88904 0.0
O72 O 0.27025 0.06099 0.92154 0.0
C73 C 0.25556 1.00411 0.07464 0.0
C74 C 0.17343 0.99109 0.08562 0.0
O75 O 0.18152 0.97079 0.06383 0.0
O76 O 0.18168 0.00945 0.0473 0.0
O77 O 0.47867 0.24372 0.13622 0.0
Cd78 Cd 0.47686 0.20219 0.09222 0.0
O79 O 0.48987 0.25201 0.00496 0.0
Cd80 Cd 0.50376 0.26882 0.88716 0.0
O81 O 0.52202 0.26395 0.75669 0.0
C82 C 0.52938 0.27946 0.70238 0.0
O83 O 0.52215 0.26319 0.75592 0.0
C84 C 0.48548 0.25905 0.08133 0.0
C85 C 0.48185 0.17101 0.23141 0.0
O86 O 0.49994 0.1806 0.19604 0.0
O87 O 0.46134 0.17617 0.2012 0.0
Pr88 Pr 0.03215 0.99595 0.73121 0.0
Pr89 Pr 0.00673 0.00852 0.55768 0.0
C90 C 0.045 0.97786 0.88606 0.0
C91 C 0.04052 0.95568 0.933 0.0
C92 C 0.04868 0.95268 0.01791 0.0
C93 C 0.04393 0.93166 0.06287 0.0
C94 C 0.03109 0.91332 0.02306 0.0
C95 C 0.02304 0.91647 0.93785 0.0
C96 C 0.02761 0.93749 0.89356 0.0
C97 C 0.06159 1.0014 0.58873 0.0
C98 C 0.00891 0.95301 0.61031 0.0
C99 C 0.99584 0.02756 0.40247 0.0
C100 C 0.99576 0.05175 0.36618 0.0
C101 C 0.97999 0.05783 0.29956 0.0
C102 C 0.97922 0.08106 0.26746 0.0
C103 C 0.99409 0.09864 0.30208 0.0
C104 C 0.01009 0.09235 0.36803 0.0
C105 C 0.01096 0.06914 0.39953 0.0
C106 C 0.9766 1.00197 0.69667 0.0
C107 C 0.02794 0.05169 0.68819 0.0
O108 O 0.02665 0.99164 0.87507 0.0
O109 O 0.05805 0.97614 0.81682 0.0
O110 O 0.04196 0.99091 0.58915 0.0
O111 O 0.06734 0.0089 0.66531 0.0
O112 O 0.00739 0.96728 0.54263 0.0
O113 O 0.01379 0.96094 0.68832 0.0
O114 O 0.01662 0.01865 0.42118 0.0
O115 O 0.97996 0.02309 0.46155 0.0
O116 O 0.99618 0.01273 0.69971 0.0
O117 O 0.97124 0.99548 0.61842 0.0
O118 O 0.0314 0.0362 0.75055 0.0
O119 O 0.02116 0.04524 0.60975 0.0
H120 H 0.0586 0.96661 0.04952 0.0
H121 H 0.05038 0.92969 0.12844 0.0
H122 H 0.01273 0.90287 0.90596 0.0
H123 H 0.02082 0.93962 0.82882 0.0
H124 H 0.9681 0.04467 0.273 0.0
H125 H 0.96661 0.08539 0.217 0.0
H126 H 0.02204 0.10537 0.39504 0.0
H127 H 0.02346 0.06481 0.45027 0.0
Pr128 Pr 0.51023 0.02337 0.85755 0.0
Pr129 Pr 0.49637 1.00305 0.66464 0.0
C130 C 0.53084 0.03096 0.01184 0.0
C131 C 0.55523 0.02798 0.04511 0.0
C132 C 0.5746 0.03751 0.00017 0.0
C133 C 0.59766 0.03377 0.0298 0.0
C134 C 0.602 0.02016 0.10445 0.0
C135 C 0.58258 0.01081 0.1499 0.0
C136 C 0.55942 0.0147 0.12045 0.0
C137 C 0.50302 0.05634 0.72665 0.0
C138 C 0.55267 1.00503 0.71783 0.0
C139 C 0.48073 1.00218 0.50096 0.0
C140 C 0.45719 1.00044 0.46014 0.0
C141 C 0.45223 0.98208 0.40211 0.0
C142 C 0.42976 0.98011 0.36468 0.0
C143 C 0.4119 0.99657 0.38433 0.0
C144 C 0.41702 0.01501 0.44211 0.0
C145 C 0.43933 0.01686 0.47991 0.0
C146 C 0.49633 0.96661 0.7884 0.0
C147 C 0.45401 0.0191 0.80522 0.0
O148 O 0.51928 0.01151 0.99401 0.0
O149 O 0.52747 0.04773 0.95442 0.0
O150 O 0.51339 0.0367 0.71893 0.0
O151 O 0.4966 0.06015 0.80612 0.0
O152 O 0.53718 1.00214 0.6546 0.0
O153 O 0.54658 0.01116 0.79741 0.0
O154 O 0.48505 0.02175 0.54311 0.0
O155 O 0.48873 0.98319 0.54033 0.0
O156 O 0.50035 0.98826 0.79938 0.0
O157 O 0.49161 0.96287 0.70733 0.0
O158 O 0.46914 0.01952 0.87097 0.0
O159 O 0.46077 0.01626 0.72412 0.0
H160 H 0.57201 0.04773 0.94157 0.0
H161 H 0.61213 0.04166 -0.00575 0.0
H162 H 0.58529 1.00009 0.20721 0.0
H163 H 0.54478 0.00704 0.15584 0.0
H164 H 0.4657 0.96918 0.38619 0.0
H165 H 0.42632 0.96555 0.32114 0.0
H166 H 0.40386 0.02827 0.45748 0.0
H167 H 0.44252 0.03122 0.52462 0.0
Pr168 Pr 0.49311 0.50752 0.78933 0.0
Pr169 Pr 0.51663 0.50343 0.59413 0.0
C170 C 0.48898 0.5181 0.95764 0.0
C171 C 0.48217 0.53993 0.00269 0.0
C172 C 0.4789 0.54017 0.0923 0.0
C173 C 0.47547 0.56169 0.13532 0.0
C174 C 0.47557 0.58331 0.08928 0.0
C175 C 0.47792 0.58267 -0.00109 0.0
C176 C 0.481 0.56123 0.95631 0.0
C177 C 0.45858 0.5084 0.65805 0.0
C178 C 0.5036 0.55616 0.66723 0.0
C179 C 0.52743 0.48973 0.4331 0.0
C180 C 0.52103 0.46875 0.38228 0.0
C181 C 0.53558 0.4613 0.3146 0.0
C182 C 0.53106 0.43986 0.27273 0.0
C183 C 0.51193 0.42551 0.29818 0.0
C184 C 0.49703 0.43341 0.36463 0.0
C185 C 0.50156 0.45482 0.40634 0.0
C186 C 0.54756 0.50954 0.7327 0.0
C187 C 0.50021 0.45484 0.70754 0.0
O188 O 0.50893 0.51964 0.91515 0.0
O189 O 0.47224 0.5072 0.91437 0.0
O190 O 0.48058 0.50692 0.65181 0.0
O191 O 0.45301 0.50945 0.73947 0.0
O192 O 0.50795 0.54383 0.59647 0.0
O193 O 0.50075 0.5464 0.7444 0.0
O194 O 0.51028 0.50463 0.44977 0.0
O195 O 0.54112 0.48551 0.49979 0.0
O196 O 0.52914 0.49694 0.73277 0.0
O197 O 0.55136 0.51867 0.6566 0.0
O198 O 0.49834 0.46688 0.78029 0.0
O199 O 0.50346 0.46502 0.6311 0.0
H200 H 0.47968 0.52385 0.12922 0.0
H201 H 0.4733 0.56143 0.20474 0.0
H202 H 0.47857 0.59881 0.96098 0.0
H203 H 0.48353 0.56139 0.88728 0.0
H204 H 0.55076 0.47178 0.29556 0.0
H205 H 0.5427 0.43436 0.22116 0.0
H206 H 0.48237 0.42265 0.3866 0.0
H207 H 0.49025 0.46016 0.45907 0.0
Pr208 Pr 0.00621 0.49187 0.83919 0.0
Pr209 Pr 0.0168 0.51448 0.66178 0.0
C210 C 0.9988 0.48246 0.00735 0.0
C211 C 0.97815 0.48478 0.06523 0.0
C212 C 0.96614 0.46442 0.09349 0.0
C213 C 0.94472 0.46636 0.13776 0.0
C214 C 0.93494 0.48873 0.15515 0.0
C215 C 0.94769 0.50909 0.13148 0.0
C216 C 0.96908 0.50715 0.08712 0.0
C217 C 0.00735 0.45978 0.70423 0.0
C218 C 0.96061 0.50564 0.71726 0.0
C219 C 0.0254 0.52719 0.49741 0.0
C220 C 0.04684 0.52445 0.44489 0.0
C221 C 0.05303 0.54171 0.38372 0.0
C222 C 0.07508 0.54077 0.34278 0.0
C223 C 0.09122 0.52249 0.36234 0.0
C224 C 0.08442 0.50478 0.42135 0.0
C225 C 0.06267 0.50596 0.46302 0.0
C226 C 0.0127 0.54612 0.79926 0.0
C227 C 0.06243 0.49839 0.77726 0.0
O228 O 0.00867 0.50209 0.97999 0.0
O229 O 0.99707 0.46636 0.94708 0.0
O230 O 0.02167 0.47677 0.71354 0.0
O231 O 0.993 0.45787 0.76919 0.0
O232 O 0.97568 0.50838 0.65282 0.0
O233 O 0.96793 0.50237 0.79756 0.0
O234 O 0.0142 0.50768 0.51801 0.0
O235 O 0.02758 0.54178 0.56219 0.0
O236 O 0.99943 0.52876 0.78478 0.0
O237 O 0.02867 0.54824 0.73976 0.0
O238 O 0.04772 0.49677 0.8433 0.0
O239 O 0.05458 0.50164 0.69792 0.0
H240 H 0.97282 0.44696 0.07822 0.0
H241 H 0.93528 0.45032 0.15458 0.0
H242 H 0.94085 0.52656 0.1455 0.0
H243 H 0.97809 0.52321 0.0677 0.0
H244 H 0.0412 0.55635 0.37 0.0
H245 H 0.07979 0.55485 0.29844 0.0
H246 H 0.09611 0.49016 0.43685 0.0
H247 H 0.05859 0.49277 0.5115 0.0
C248 C 0.1432 0.01439 0.16715 0.0
C249 C 0.15586 0.99328 0.15571 0.0
C250 C 0.12717 0.01687 0.23561 0.0
C251 C 0.12413 0.99797 0.29485 0.0
C252 C 0.13684 0.97662 0.28346 0.0
C253 C 0.15238 0.97446 0.21357 0.0
C254 C 0.11351 0.03969 0.24465 0.0
C255 C 0.13428 0.95616 0.34586 0.0
C256 C 0.10049 0.01035 0.51962 0.0
C257 C 0.07728 1.00189 0.51281 0.0
C258 C 0.11588 0.00952 0.44868 0.0
C259 C 0.10766 1.00038 0.36893 0.0
C260 C 0.084 0.99248 0.36117 0.0
C261 C 0.06919 0.99307 0.43353 0.0
C262 C 0.1411 0.01778 0.45972 0.0
C263 C 0.07444 0.98294 0.27697 0.0
H264 H 0.14576 0.02895 0.12239 0.0
H265 H 0.16223 0.95816 0.20544 0.0
H266 H 0.09423 0.03598 0.24473 0.0
H267 H 0.11786 0.04816 0.3072 0.0
H268 H 0.11741 0.05244 0.19178 0.0
H269 H 0.14571 0.94091 0.32858 0.0
H270 H 0.13896 0.96198 0.41211 0.0
H271 H 0.11563 0.95008 0.34734 0.0
H272 H 0.1068 0.01711 0.58093 0.0
H273 H 0.0513 0.98633 0.42816 0.0
H274 H 0.14529 0.03164 0.41121 0.0
H275 H 0.15338 1.00278 0.44857 0.0
H276 H 0.14453 0.02502 0.52518 0.0
H277 H 0.07782 0.99571 0.22379 0.0
H278 H 0.05514 0.97934 0.27985 0.0
H279 H 0.08368 0.96624 0.26047 0.0
C280 C 0.50483 0.15536 0.3573 0.0
C281 C 0.48461 0.15439 0.30479 0.0
C282 C 0.50768 0.13979 0.42744 0.0
C283 C 0.49017 0.12245 0.444 0.0
C284 C 0.46984 0.12121 0.39052 0.0
C285 C 0.46714 0.13743 0.32221 0.0
C286 C 0.52939 0.14196 0.48403 0.0
C287 C 0.4511 0.10255 0.40475 0.0
C288 C 0.50945 0.06857 0.57365 0.0
C289 C 0.49968 0.07329 0.6548 0.0
C290 C 0.50606 0.08416 0.50401 0.0
C291 C 0.4933 0.10542 0.51671 0.0
C292 C 0.48383 0.11054 0.59912 0.0
C293 C 0.48696 0.09428 0.66709 0.0
C294 C 0.51607 0.07783 0.41683 0.0
C295 C 0.47055 0.13326 0.6156 0.0
H296 H 0.5183 0.16855 0.34432 0.0
H297 H 0.45158 0.13652 0.28127 0.0
H298 H 0.52406 0.14456 0.55222 0.0
H299 H 0.53987 0.12538 0.48142 0.0
H300 H 0.54091 0.15695 0.46429 0.0
H301 H 0.43658 0.10368 0.35636 0.0
H302 H 0.45915 0.08465 0.40133 0.0
H303 H 0.4434 0.10441 0.47013 0.0
H304 H 0.51972 0.05258 0.56437 0.0
H305 H 0.47955 0.09807 0.72998 0.0
H306 H 0.52942 0.09116 0.39713 0.0
H307 H 0.50182 0.07805 0.36735 0.0
H308 H 0.52453 0.06007 0.41683 0.0
H309 H 0.48198 0.14866 0.60004 0.0
H310 H 0.46466 0.13476 0.6837 0.0
H311 H 0.45479 0.13433 0.57288 0.0
C312 C 0.36381 0.49479 0.27533 0.0
C313 C 0.35999 0.51654 0.23342 0.0
C314 C 0.38015 0.49277 0.34353 0.0
C315 C 0.39308 0.51294 0.37023 0.0
C316 C 0.3896 0.53485 0.32723 0.0
C317 C 0.37305 0.5364 0.25957 0.0
C318 C 0.38337 0.4691 0.38775 0.0
C319 C 0.40322 0.5567 0.35321 0.0
C320 C 0.41788 0.51441 0.59879 0.0
C321 C 0.44172 0.50896 0.58498 0.0
C322 C 0.40182 0.51565 0.52945 0.0
C323 C 0.40985 0.51127 0.44442 0.0
C324 C 0.43389 0.50545 0.43044 0.0
C325 C 0.4495 0.50434 0.50104 0.0
C326 C 0.37631 0.52186 0.54707 0.0
C327 C 0.44319 0.50057 0.34097 0.0
H328 H 0.35381 0.47936 0.25558 0.0
H329 H 0.3703 0.55325 0.22729 0.0
H330 H 0.40221 0.46363 0.38506 0.0
H331 H 0.37858 0.47058 0.45692 0.0
H332 H 0.37237 0.45501 0.35799 0.0
H333 H 0.39878 0.57228 0.31227 0.0
H334 H 0.3994 0.5611 0.42149 0.0
H335 H 0.42251 0.55332 0.34853 0.0
H336 H 0.4118 0.51796 0.66377 0.0
H337 H 0.46781 0.49974 0.49063 0.0
H338 H 0.36454 0.50763 0.52279 0.0
H339 H 0.3715 0.53836 0.51209 0.0
H340 H 0.37283 0.52442 0.61696 0.0
H341 H 0.43301 0.48597 0.31083 0.0
H342 H 0.46224 0.49569 0.34149 0.0
H343 H 0.44083 0.51647 0.2995 0.0
C344 C 0.00624 0.36817 0.31198 0.0
C345 C 0.98668 0.37259 0.2585 0.0
C346 C 0.01133 0.38295 0.38217 0.0
C347 C 0.99686 0.40295 0.39751 0.0
C348 C 0.97783 0.40817 0.34083 0.0
C349 C 0.97274 0.39269 0.27261 0.0
C350 C 0.03147 0.37654 0.44218 0.0
C351 C 0.96249 0.42977 0.35348 0.0
C352 C 0.99037 0.42531 0.62644 0.0
C353 C 0.00589 0.44462 0.62714 0.0
C354 C 0.98763 0.41137 0.55247 0.0
C355 C 1.00039 0.41722 0.47683 0.0
C356 C 0.01627 0.4366 0.47738 0.0
C357 C 0.01905 0.44989 0.55316 0.0
C358 C 0.97091 0.39052 0.55507 0.0
C359 C 0.02981 0.44367 0.39749 0.0
H360 H 0.01698 0.35256 0.30119 0.0
H361 H 0.9578 0.39628 0.23044 0.0
H362 H 0.04363 0.3918 0.44994 0.0
H363 H 0.02437 0.3722 0.50705 0.0
H364 H 0.04178 0.36113 0.41866 0.0
H365 H 0.94916 0.43189 0.3012 0.0
H366 H 0.95309 0.4285 0.41605 0.0
H367 H 0.97366 0.44592 0.35567 0.0
H368 H 0.98024 0.4211 0.68379 0.0
H369 H 0.03116 0.46468 0.55408 0.0
H370 H 0.98032 0.37415 0.53575 0.0
H371 H 0.95625 0.39332 0.5083 0.0
H372 H 0.96319 0.38772 0.62017 0.0
H373 H 0.03947 0.42826 0.37096 0.0
H374 H 0.04268 0.45809 0.41032 0.0
H375 H 0.01722 0.44977 0.34696 0.0
C376 C 0.89323 0.97 0.0969 0.0
C377 C 0.87834 0.98907 0.11671 0.0
C378 C 0.91031 0.97195 0.0317 0.0
C379 C 0.9122 0.99332 0.98414 0.0
C380 C 0.89731 0.01267 0.00423 0.0
C381 C 0.8807 0.01038 0.07084 0.0
C382 C 0.92619 0.95109 0.01319 0.0
C383 C 0.89856 0.03563 0.95409 0.0
C384 C 0.96747 0.00651 0.85351 0.0
C385 C 0.96042 0.99947 0.77068 0.0
C386 C 0.95213 1.0042 0.92414 0.0
C387 C 0.92904 0.99513 0.91094 0.0
C388 C 0.92183 0.9881 0.82725 0.0
C389 C 0.9377 0.99017 0.75825 0.0
C390 C 0.96058 0.01152 0.01269 0.0
C391 C 0.89725 0.97867 0.81035 0.0
H392 H 0.89162 0.95355 0.13271 0.0
H393 H 0.8692 0.02516 0.08575 0.0
H394 H 0.92285 0.94457 0.9468 0.0
H395 H 0.94502 0.95658 0.01648 0.0
H396 H 0.92338 0.93623 0.05924 0.0
H397 H 0.886 0.04911 0.97872 0.0
H398 H 0.91672 0.043 0.95728 0.0
H399 H 0.89448 0.03231 0.88504 0.0
H400 H 0.98497 0.01387 0.86315 0.0
H401 H 0.93218 0.98475 0.69421 0.0
H402 H 0.95852 0.99661 0.05891 0.0
H403 H 0.94961 0.02637 0.03672 0.0
H404 H 0.9794 0.01717 0.01268 0.0
H405 H 0.89411 0.96258 0.84998 0.0
H406 H 0.89437 0.97416 0.74136 0.0
H407 H 0.88389 0.99202 0.82954 0.0
C408 C 0.53745 0.86107 0.09403 0.0
C409 C 0.52022 0.8539 0.1536 0.0
C410 C 0.53316 0.8798 0.03627 0.0
C411 C 0.51108 0.89162 0.03798 0.0
C412 C 0.49366 0.88459 0.09825 0.0
C413 C 0.49844 0.86581 0.15538 0.0
C414 C 0.55221 0.88685 0.97307 0.0
C415 C 0.46993 0.89681 0.10202 0.0
C416 C 0.50829 0.95278 0.93563 0.0
C417 C 0.49889 0.94777 0.8541 0.0
C418 C 0.512 0.93477 -0.00314 0.0
C419 C 0.50616 0.91112 0.97565 0.0
C420 C 0.49628 0.90599 0.89368 0.0
C421 C 0.4928 0.92439 0.83381 0.0
C422 C 0.52263 0.941 0.08345 0.0
C423 C 0.48981 0.881 0.86866 0.0
H424 H 0.55435 0.85202 0.09235 0.0
H425 H 0.48504 0.86041 0.2013 0.0
H426 H 0.54561 0.88473 0.90599 0.0
H427 H 0.55681 0.90579 0.98159 0.0
H428 H 0.56855 0.87611 0.98097 0.0
H429 H 0.45841 0.88941 0.15344 0.0
H430 H 0.47242 0.91601 0.11397 0.0
H431 H 0.46067 0.89507 0.03909 0.0
H432 H 0.51324 0.9707 0.95084 0.0
H433 H 0.48552 0.92043 0.77065 0.0
H434 H 0.53987 0.93187 0.09169 0.0
H435 H 0.51091 0.93478 0.13618 0.0
H436 H 0.52548 0.96035 0.09073 0.0
H437 H 0.50587 0.86971 0.8692 0.0
H438 H 0.48157 0.88009 0.80354 0.0
H439 H 0.47732 0.87339 0.91639 0.0
C440 C 0.64227 0.51118 0.12317 0.0
C441 C 0.65645 0.49089 0.11595 0.0
C442 C 0.62416 0.51592 0.0631 0.0
C443 C 0.62037 0.50016 0.99357 0.0
C444 C 0.63494 0.47991 0.98504 0.0
C445 C 0.65269 0.47544 0.04659 0.0
C446 C 0.6088 0.53752 0.07493 0.0
C447 C 0.63164 0.46282 0.91121 0.0
C448 C 0.56099 0.49628 0.8789 0.0
C449 C 0.56534 0.50909 0.80289 0.0
C450 C 0.57844 0.49404 0.94313 0.0
C451 C 0.60093 0.5045 0.93027 0.0
C452 C 0.60522 0.51794 0.85453 0.0
C453 C 0.5873 0.52019 0.79193 0.0
C454 C 0.57303 0.47984 0.02351 0.0
C455 C 0.62901 0.5292 0.83811 0.0
H456 H 0.645 0.52314 0.17684 0.0
H457 H 0.66362 0.45978 0.04036 0.0
H458 H 0.60947 0.54887 0.01636 0.0
H459 H 0.59011 0.53205 0.08372 0.0
H460 H 0.6143 0.54824 0.13152 0.0
H461 H 0.64498 0.44837 0.91212 0.0
H462 H 0.61375 0.4548 0.91429 0.0
H463 H 0.63292 0.47238 0.84868 0.0
H464 H 0.54409 0.48753 0.88742 0.0
H465 H 0.59075 0.53008 0.73319 0.0
H466 H 0.57754 0.49019 0.08201 0.0
H467 H 0.58402 0.46357 0.02476 0.0
H468 H 0.55411 0.47459 0.027 0.0
H469 H 0.63418 0.54054 0.89336 0.0
H470 H 0.62909 0.54014 0.77833 0.0
H471 H 0.64268 0.51521 0.83209 0.0
C472 C 0.98457 0.64245 0.16652 0.0
C473 C 0.96735 0.65792 0.13324 0.0
C474 C 0.99344 0.62377 0.11654 0.0
C475 C 0.98507 0.62071 0.03107 0.0
C476 C 0.96792 0.63646 -0.00315 0.0
C477 C 0.95918 0.65479 0.04849 0.0
C478 C 0.01152 0.60714 0.15542 0.0
C479 C 0.95857 0.63378 0.9059 0.0
C480 C 0.02007 0.58556 0.86663 0.0
C481 C 0.00722 0.56439 0.86388 0.0
C482 C 0.01351 0.60384 0.92287 0.0
C483 C 0.9937 0.60075 0.97753 0.0
C484 C 0.98116 0.57906 0.97687 0.0
C485 C 0.98812 0.56111 0.92016 0.0
C486 C 0.02722 0.62678 0.92148 0.0
C487 C 0.96007 0.57496 0.03469 0.0
H488 H 0.99091 0.64474 0.23208 0.0
H489 H 0.94596 0.66673 0.0222 0.0
H490 H 1.00431 0.58887 0.15702 0.0
H491 H 0.02765 0.60677 0.11487 0.0
H492 H 0.01663 0.61226 0.2221 0.0
H493 H 0.94579 0.64795 0.88814 0.0
H494 H 0.97342 0.63416 0.85927 0.0
H495 H 0.94964 0.6164 0.89905 0.0
H496 H 0.03487 0.58809 0.82325 0.0
H497 H 0.97824 0.54467 0.91849 0.0
H498 H 0.03303 0.63149 0.98769 0.0
H499 H 0.01562 0.6413 0.8979 0.0
H500 H 0.04302 0.62583 0.87921 0.0
H501 H 0.94708 0.58957 0.02742 0.0
H502 H 0.96594 0.57471 0.10311 0.0
H503 H 0.95095 0.558 0.02045 0.0
C504 C 0.96541 0.23133 0.14764 0.0
C505 C 0.9861 0.24451 0.13403 0.0
C506 C 0.96645 0.20737 0.17227 0.0
C507 C 0.98873 0.19628 0.18368 0.0
C508 C 0.00967 0.20947 0.16976 0.0
C509 C 0.0081 0.23348 0.14626 0.0
C510 C 0.9437 0.19393 0.1865 0.0
C511 C 0.03377 0.19832 0.18084 0.0
C512 C 0.99239 0.14225 0.33062 0.0
C513 C 0.99265 0.12359 0.27113 0.0
C514 C 0.99109 0.16592 0.30299 0.0
C515 C 0.9901 0.17115 0.21351 0.0
C516 C 0.99036 0.15239 0.15303 0.0
C517 C 0.99159 0.12884 0.18257 0.0
C518 C 0.99066 0.18533 0.36972 0.0
C519 C 0.98981 0.15718 0.0571 0.0
H520 H 0.94833 0.23975 0.13862 0.0
H521 H 0.02415 0.24374 0.13959 0.0
H522 H 0.94306 0.17826 0.1436 0.0
H523 H 0.94297 0.18732 0.25401 0.0
H524 H 0.92781 0.20501 0.17388 0.0
H525 H 0.04832 0.21072 0.1641 0.0
H526 H 0.03618 0.1924 0.24869 0.0
H527 H 0.03524 0.18242 0.13939 0.0
H528 H 0.99289 0.1383 0.39915 0.0
H529 H 0.9921 0.11451 0.13626 0.0
H530 H 0.97416 0.19583 0.36285 0.0
H531 H 0.00571 0.19761 0.35935 0.0
H532 H 0.99169 0.1783 0.43673 0.0
H533 H 0.97542 0.16976 0.04044 0.0
H534 H 0.98728 0.14074 0.01906 0.0
H535 H 0.00674 0.16548 0.03733 0.0
C536 C 0.29182 0.0219 0.13927 0.0
C537 C 0.27683 1.0023 0.12987 0.0
C538 C 0.31335 0.01991 0.18376 0.0
C539 C 0.31983 0.9979 0.22092 0.0
C540 C 0.30449 0.97822 0.21374 0.0
C541 C 0.2832 0.98061 0.16768 0.0
C542 C 0.32949 0.04118 0.18874 0.0
C543 C 0.31083 0.95452 0.25284 0.0
C544 C 0.38562 0.98905 0.25647 0.0
C545 C 0.38808 0.99497 0.34392 0.0
C546 C 0.36336 0.98914 0.21624 0.0
C547 C 0.34311 0.99545 0.26456 0.0
C548 C 0.34535 1.00073 0.35337 0.0
C549 C 0.36779 1.00028 0.3921 0.0
C550 C 0.36157 0.98258 0.12198 0.0
C551 C 0.32413 0.00737 0.40704 0.0
H552 H 0.28715 0.03863 0.10918 0.0
H553 H 0.27166 0.96541 0.16044 0.0
H554 H 0.3328 0.04583 0.25725 0.0
H555 H 0.34685 0.03691 0.15947 0.0
H556 H 0.32201 0.05689 0.15502 0.0
H557 H 0.29611 0.94156 0.24765 0.0
H558 H 0.32651 0.94716 0.21952 0.0
H559 H 0.31561 0.95657 0.32193 0.0
H560 H 0.40118 0.98499 0.21865 0.0
H561 H 0.36946 1.00431 0.46021 0.0
H562 H 0.34983 0.995 0.08643 0.0
H563 H 0.35368 0.96467 0.11634 0.0
H564 H 0.37913 0.98233 0.09009 0.0
H565 H 0.31641 0.02416 0.38237 0.0
H566 H 0.3287 0.00971 0.47631 0.0
H567 H 0.31026 0.99356 0.40162 0.0
C568 C 0.49272 0.30217 0.04865 0.0
C569 C 0.48911 0.28396 0.10887 0.0
C570 C 0.49683 0.32554 0.07548 0.0
C571 C 0.49671 0.331 0.16455 0.0
C572 C 0.4927 0.3128 0.22574 0.0
C573 C 0.48903 0.28953 0.19722 0.0
C574 C 0.50121 0.34437 0.0083 0.0
C575 C 0.49241 0.31787 0.32143 0.0
C576 C 0.52735 0.38657 0.24552 0.0
C577 C 0.50814 0.40185 0.25879 0.0
C578 C 0.52392 0.36361 0.21344 0.0
C579 C 0.50073 0.35573 0.1941 0.0
C580 C 0.48133 0.37124 0.20551 0.0
C581 C 0.48526 0.39409 0.23787 0.0
C582 C 0.54508 0.34763 0.20172 0.0
C583 C 0.45637 0.36355 0.18483 0.0
H584 H 0.49213 0.29835 0.98047 0.0
H585 H 0.48621 0.27565 0.24458 0.0
H586 H 0.48561 0.35624 0.00389 0.0
H587 H 0.51668 0.35538 0.02649 0.0
H588 H 0.50451 0.3366 0.94381 0.0
H589 H 0.4889 0.30176 0.36066 0.0
H590 H 0.50966 0.32543 0.34178 0.0
H591 H 0.47863 0.33125 0.33596 0.0
H592 H 0.54505 0.39233 0.26254 0.0
H593 H 0.47038 0.40592 0.24699 0.0
H594 H 0.54574 0.34113 0.13427 0.0
H595 H 0.54345 0.33191 0.24443 0.0
H596 H 0.56202 0.35673 0.21671 0.0
H597 H 0.45518 0.3578 0.11656 0.0
H598 H 0.44328 0.37791 0.19547 0.0
H599 H 0.45149 0.34815 0.22572 0.0
C600 C 0.22452 0.53319 0.18489 0.0
C601 C 0.23103 0.51173 0.14634 0.0
C602 C 0.20185 0.53626 0.21997 0.0
C603 C 0.18536 0.51744 0.21639 0.0
C604 C 0.19182 0.49576 0.17758 0.0
C605 C 0.21458 0.49313 0.14339 0.0
C606 C 0.19543 0.55972 0.25989 0.0
C607 C 0.17468 0.4753 0.17213 0.0
C608 C 0.13476 0.51499 0.3757 0.0
C609 C 0.11544 0.52223 0.32482 0.0
C610 C 0.1576 0.51365 0.34145 0.0
C611 C 0.16142 0.52014 0.25436 0.0
C612 C 0.14219 0.52817 0.20305 0.0
C613 C 0.11941 0.52906 0.23887 0.0
C614 C 0.17762 0.50502 0.39835 0.0
C615 C 0.14556 0.53613 0.11069 0.0
H616 H 0.23703 0.54772 0.18677 0.0
H617 H 0.21932 0.47655 0.11303 0.0
H618 H 0.18035 0.5677 0.22412 0.0
H619 H 0.18966 0.55706 0.32761 0.0
H620 H 0.21043 0.57242 0.25928 0.0
H621 H 0.18133 0.46083 0.13031 0.0
H622 H 0.17162 0.46802 0.23778 0.0
H623 H 0.15734 0.48136 0.14663 0.0
H624 H 0.13206 0.51038 0.44283 0.0
H625 H 0.10466 0.53473 0.19893 0.0
H626 H 0.19195 0.51842 0.40038 0.0
H627 H 0.18526 0.48859 0.37107 0.0
H628 H 0.17179 0.50129 0.46547 0.0
H629 H 0.15168 0.55479 0.11034 0.0
H630 H 0.12878 0.53523 0.07327 0.0
H631 H 0.15914 0.52542 0.07723 0.0
C632 C 1.0036 0.79197 0.2808 0.0
C633 C 0.98015 0.78579 0.26177 0.0
C634 C 0.01358 0.8128 0.24669 0.0
C635 C 0.99959 0.8279 0.19401 0.0
C636 C 0.97566 0.8221 0.17742 0.0
C637 C 0.96632 0.80099 0.2107 0.0
C638 C 0.0393 0.81819 0.26413 0.0
C639 C 0.96004 0.83796 0.12299 0.0
C640 C 0.0163 0.89217 0.15457 0.0
C641 C 0.02529 0.89121 0.07045 0.0
C642 C 0.00861 0.87158 0.19693 0.0
C643 C 0.00998 0.84951 0.15413 0.0
C644 C 0.01983 0.84834 0.07034 0.0
C645 C 0.02734 0.86922 0.0295 0.0
C646 C 0.99776 0.87388 0.28531 0.0
C647 C 0.02159 0.82519 0.02238 0.0
H648 H 0.01444 0.78005 0.31904 0.0
H649 H 0.94814 0.79626 0.19623 0.0
H650 H 0.04959 0.81572 0.20401 0.0
H651 H 0.04151 0.83692 0.28399 0.0
H652 H 0.04689 0.80647 0.31492 0.0
H653 H 0.94165 0.83116 0.11783 0.0
H654 H 0.9595 0.85598 0.15117 0.0
H655 H 0.96745 0.83963 0.05701 0.0
H656 H 0.01436 0.90916 0.1861 0.0
H657 H 0.03452 0.86839 0.96477 0.0
H658 H 1.00533 0.88917 0.32089 0.0
H659 H 1.00024 0.85763 0.32458 0.0
H660 H 0.97846 0.87695 0.27801 0.0
H661 H 0.03086 0.81178 0.0626 0.0
H662 H 0.03111 0.82708 0.96012 0.0
H663 H 1.00357 0.8183 0.0089 0.0
C664 C 0.73788 0.02472 0.24308 0.0
C665 C 0.74768 1.00242 0.26063 0.0
C666 C 0.71401 0.02713 0.2195 0.0
C667 C 0.69951 0.00674 0.21397 0.0
C668 C 0.70929 0.98417 0.23239 0.0
C669 C 0.73337 0.98225 0.25448 0.0
C670 C 0.7043 0.0515 0.20024 0.0
C671 C 0.69425 0.96211 0.2293 0.0
C672 C 0.63288 0.01667 0.2215 0.0
C673 C 0.62676 0.01567 0.13367 0.0
C674 C 0.65644 0.01354 0.2488 0.0
C675 C 0.67428 0.0091 0.1869 0.0
C676 C 0.66814 0.0077 0.09838 0.0
C677 C 0.6445 0.01087 0.07299 0.0
C678 C 0.66218 0.01508 0.34385 0.0
C679 C 0.68662 1.00327 0.03016 0.0
H680 H 0.74905 0.04029 0.24644 0.0
H681 H 0.74093 0.96501 0.26849 0.0
H682 H 0.69707 0.0521 0.13356 0.0
H683 H 0.68952 0.05552 0.2448 0.0
H684 H 0.71794 0.06553 0.20688 0.0
H685 H 0.70445 0.94593 0.24637 0.0
H686 H 0.67923 0.96384 0.27475 0.0
H687 H 0.68665 0.95989 0.16369 0.0
H688 H 0.61935 0.02046 0.26888 0.0
H689 H 0.63988 0.00955 0.00524 0.0
H690 H 0.67854 0.02548 0.35496 0.0
H691 H 0.66527 0.997 0.36988 0.0
H692 H 0.64762 0.02338 0.38086 0.0
H693 H 0.70013 0.01752 0.0319 0.0
H694 H 0.67891 1.00257 0.96411 0.0
H695 H 0.69588 0.98632 0.04344 0.0
C696 C 0.48097 0.71106 0.32495 0.0
C697 C 0.50175 0.72169 0.29437 0.0
C698 C 0.47405 0.6885 0.29619 0.0
C699 C 0.48836 0.67627 0.23621 0.0
C700 C 0.50933 0.68696 0.2052 0.0
C701 C 0.51568 0.70955 0.2343 0.0
C702 C 0.45128 0.67788 0.32887 0.0
C703 C 0.52508 0.67454 0.14114 0.0
C704 C 0.48807 0.60946 0.21214 0.0
C705 C 0.47543 0.60656 0.1347 0.0
C706 C 0.49115 0.63192 0.24883 0.0
C707 C 0.4818 0.65211 0.20629 0.0
C708 C 0.46803 0.64924 0.13057 0.0
C709 C 0.46477 0.62649 0.09634 0.0
C710 C 0.50583 0.63403 0.33 0.0
C711 C 0.45797 0.67029 0.08249 0.0
H712 H 0.4698 0.72059 0.36956 0.0
H713 H 0.53176 0.71768 0.21036 0.0
H714 H 0.43846 0.67628 0.27486 0.0
H715 H 0.4545 0.65975 0.35415 0.0
H716 H 0.4431 0.6888 0.3802 0.0
H717 H 0.54047 0.68554 0.12172 0.0
H718 H 0.53177 0.65775 0.16958 0.0
H719 H 0.51482 0.66991 0.08237 0.0
H720 H 0.49668 0.59436 0.24211 0.0
H721 H 0.4545 0.62446 0.03763 0.0
H722 H 0.49961 0.64875 0.37115 0.0
H723 H 0.52447 0.63771 0.31218 0.0
H724 H 0.50547 0.61737 0.36838 0.0
H725 H 0.44856 0.68227 0.1273 0.0
H726 H 0.44557 0.66493 0.0303 0.0
H727 H 0.47262 0.68057 0.05311 0.0
C728 C 0.80392 0.50358 0.3544 0.0
C729 C 0.78892 0.48809 0.30961 0.0
C730 C 0.82821 0.50464 0.33598 0.0
C731 C 0.83766 0.49021 0.27001 0.0
C732 C 0.82257 0.47473 0.22393 0.0
C733 C 0.79843 0.47385 0.24432 0.0
C734 C 0.84376 0.52129 0.38667 0.0
C735 C 0.83191 0.45911 0.15285 0.0
C736 C 0.8945 0.50678 0.15503 0.0
C737 C 0.91071 0.49073 0.19139 0.0
C738 C 0.87087 0.50738 0.18228 0.0
C739 C 0.86321 0.49154 0.24746 0.0
C740 C 0.87968 0.47592 0.28677 0.0
C741 C 0.90322 0.47566 0.25807 0.0
C742 C 0.85388 0.52428 0.13858 0.0
C743 C 0.8723 0.45871 0.35641 0.0
H744 H 0.7967 0.51531 0.40246 0.0
H745 H 0.78698 0.46184 0.20921 0.0
H746 H 0.85925 0.51157 0.41279 0.0
H747 H 0.85059 0.53541 0.34346 0.0
H748 H 0.8342 0.52971 0.44107 0.0
H749 H 0.81784 0.44804 0.12321 0.0
H750 H 0.84007 0.47015 0.10156 0.0
H751 H 0.84592 0.44726 0.17878 0.0
H752 H 0.90005 0.51826 0.10262 0.0
H753 H 0.9157 0.46339 0.28706 0.0
H754 H 0.84427 0.53484 0.18745 0.0
H755 H 0.84047 0.51411 0.10162 0.0
H756 H 0.86298 0.5366 0.09353 0.0
H757 H 0.86004 0.46717 0.40266 0.0
H758 H 0.88776 0.45158 0.39261 0.0
H759 H 0.86278 0.44365 0.32638 0.0
C760 C 0.04411 0.18754 0.82861 0.0
C761 C 0.02219 0.19506 0.86048 0.0
C762 C 0.04654 0.16525 0.79001 0.0
C763 C 0.02666 0.15011 0.78452 0.0
C764 C 1.00434 0.15795 0.81393 0.0
C765 C 1.00234 0.18043 0.85085 0.0
C766 C 0.07054 0.15756 0.75813 0.0
C767 C 0.98278 0.14218 0.81013 0.0
C768 C 0.02555 0.09467 0.64709 0.0
C769 C 0.03009 0.07712 0.70935 0.0
C770 C 0.02537 0.11872 0.66961 0.0
C771 C 0.02954 0.12523 0.7565 0.0
C772 C 0.03492 0.10768 0.81888 0.0
C773 C 0.03527 0.08388 0.79444 0.0
C774 C 0.01981 0.13704 0.6012 0.0
C775 C 0.03928 0.11391 0.91245 0.0
H776 H 0.05947 0.19889 0.83508 0.0
H777 H 0.98531 0.18617 0.87504 0.0
H778 H 0.07743 0.14311 0.79992 0.0
H779 H 0.06912 0.15046 0.69162 0.0
H780 H 0.08354 0.1723 0.75836 0.0
H781 H 0.96653 0.15133 0.8325 0.0
H782 H 0.97983 0.13592 0.74318 0.0
H783 H 0.98566 0.1263 0.85127 0.0
H784 H 0.02156 0.08965 0.58125 0.0
H785 H 0.03888 0.07052 0.84313 0.0
H786 H 0.03234 0.15212 0.60534 0.0
H787 H 1.00177 0.14416 0.61171 0.0
H788 H 0.02059 0.12954 0.53512 0.0
H789 H 0.05345 0.12741 0.91766 0.0
H790 H 0.04442 0.09826 0.95194 0.0
H791 H 0.02301 0.12169 0.94043 0.0
C792 C 0.31868 0.05738 0.86517 0.0
C793 C 0.30381 0.03771 0.8755 0.0
C794 C 0.34323 0.05458 0.85623 0.0
C795 C 0.3532 0.0316 0.85925 0.0
C796 C 0.33832 0.01171 0.87161 0.0
C797 C 0.31377 0.01497 0.87849 0.0
C798 C 0.35853 0.07621 0.84355 0.0
C799 C 0.34835 0.98699 0.87789 0.0
C800 C 0.41233 0.0212 0.75096 0.0
C801 C 0.42826 0.02216 0.82079 0.0
C802 C 0.38797 0.02428 0.76284 0.0
C803 C 0.37911 0.02829 0.84679 0.0
C804 C 0.39501 0.02924 0.91781 0.0
C805 C 0.41941 0.02622 0.90389 0.0
C806 C 0.37174 0.02353 0.68509 0.0
C807 C 0.38666 0.03412 0.00847 0.0
H808 H 0.31108 0.075 0.86355 0.0
H809 H 0.30242 0.99974 0.8883 0.0
H810 H 0.37137 0.07763 0.89763 0.0
H811 H 0.36886 0.07453 0.78309 0.0
H812 H 0.34799 0.09279 0.84032 0.0
H813 H 0.3349 0.97386 0.89885 0.0
H814 H 0.35526 0.98157 0.81402 0.0
H815 H 0.36339 0.98654 0.92415 0.0
H816 H 0.41885 0.01813 0.68625 0.0
H817 H 0.4315 0.02719 0.95823 0.0
H818 H 0.36171 0.04037 0.6798 0.0
H819 H 0.35864 0.00907 0.69272 0.0
H820 H 0.38152 0.02071 0.62388 0.0
H821 H 0.3881 0.05339 0.02107 0.0
H822 H 0.39794 0.02482 0.05675 0.0
H823 H 0.36801 0.02882 0.01858 0.0
C824 C 0.50273 0.31267 0.75096 0.0
C825 C 0.52351 0.30475 0.71111 0.0
C826 C 0.49701 0.33692 0.75175 0.0
C827 C 0.51259 0.35346 0.71295 0.0
C828 C 0.5337 0.34544 0.67388 0.0
C829 C 0.53866 0.32114 0.67224 0.0
C830 C 0.47416 0.3448 0.79264 0.0
C831 C 0.55118 0.36257 0.63469 0.0
C832 C 0.493 0.41498 0.64306 0.0
C833 C 0.50096 0.42878 0.71226 0.0
C834 C 0.4957 0.39025 0.64428 0.0
C835 C 0.50733 0.37925 0.71511 0.0
C836 C 0.51527 0.39324 0.78529 0.0
C837 C 0.51157 0.41775 0.78359 0.0
C838 C 0.48679 0.37602 0.56852 0.0
C839 C 0.52891 0.38311 0.86083 0.0
H840 H 0.49063 0.29995 0.77904 0.0
H841 H 0.55462 0.31492 0.64093 0.0
H842 H 0.47737 0.35978 0.83729 0.0
H843 H 0.46189 0.35121 0.74156 0.0
H844 H 0.46539 0.33024 0.82887 0.0
H845 H 0.56684 0.35346 0.60722 0.0
H846 H 0.54253 0.37306 0.58275 0.0
H847 H 0.55733 0.37521 0.68468 0.0
H848 H 0.48482 0.42354 0.58771 0.0
H849 H 0.51816 0.42842 0.83656 0.0
H850 H 0.47549 0.36123 0.59148 0.0
H851 H 0.50196 0.36811 0.53372 0.0
H852 H 0.47644 0.38698 0.52212 0.0
H853 H 0.52086 0.38922 0.92212 0.0
H854 H 0.54725 0.39012 0.85943 0.0
H855 H 0.52984 0.36354 0.86143 0.0
C856 C 0.19767 0.46068 0.841 0.0
C857 C 0.21236 0.48003 0.85937 0.0
C858 C 0.17339 0.46379 0.82536 0.0
C859 C 0.16349 0.48677 0.82919 0.0
C860 C 0.17825 0.50642 0.84696 0.0
C861 C 0.20256 0.50285 0.86113 0.0
C862 C 0.15823 0.44241 0.8065 0.0
C863 C 0.16822 0.53111 0.85383 0.0
C864 C 0.10393 0.49749 0.72137 0.0
C865 C 0.08829 0.49579 0.7914 0.0
C866 C 0.12841 0.49469 0.73288 0.0
C867 C 0.13757 0.49019 0.81648 0.0
C868 C 0.12193 0.48865 0.8876 0.0
C869 C 0.09749 0.49141 0.87416 0.0
C870 C 0.14446 0.49634 0.65535 0.0
C871 C 0.13079 0.48341 0.97774 0.0
H872 H 0.20513 0.443 0.83977 0.0
H873 H 0.21372 0.51785 0.87659 0.0
H874 H 0.14504 0.44003 0.85868 0.0
H875 H 0.14829 0.44508 0.74533 0.0
H876 H 0.16883 0.42592 0.80128 0.0
H877 H 0.18204 0.5445 0.86842 0.0
H878 H 0.15927 0.53611 0.79256 0.0
H879 H 0.15469 0.53161 0.90556 0.0
H880 H 0.09707 0.50088 0.65705 0.0
H881 H 0.08559 0.48995 0.92866 0.0
H882 H 0.15485 0.47978 0.64885 0.0
H883 H 0.15726 0.51103 0.66405 0.0
H884 H 0.13446 0.49938 0.59451 0.0
H885 H 0.13318 0.46402 0.98525 0.0
H886 H 0.11805 0.4894 0.02755 0.0
H887 H 0.14813 0.4919 0.99015 0.0
C888 C 0.012 0.81184 0.57061 0.0
C889 C 0.99874 0.80224 0.63854 0.0
C890 C 0.0122 0.83634 0.55525 0.0
C891 C 0.99832 0.85142 0.6075 0.0
C892 C 0.98385 0.84156 0.67283 0.0
C893 C 0.98461 0.81709 0.68863 0.0
C894 C 0.02895 0.8461 0.48846 0.0
C895 C 0.96867 0.85699 0.72955 0.0
C896 C 0.02127 0.91286 0.65446 0.0
C897 C 0.00698 0.92711 0.60141 0.0
C898 C 0.0188 0.88827 0.65583 0.0
C899 C 1.00156 0.87751 0.60254 0.0
C900 C 0.98753 0.8917 0.54645 0.0
C901 C 0.99049 0.91647 0.5462 0.0
C902 C 0.03437 0.87389 0.7159 0.0
C903 C 0.96877 0.88084 0.48956 0.0
H904 H 0.02345 0.80044 0.53317 0.0
H905 H 0.97452 0.80961 0.74154 0.0
H906 H 0.02168 0.8621 0.45634 0.0
H907 H 0.04574 0.85123 0.52062 0.0
H908 H 0.03312 0.83264 0.43898 0.0
H909 H 0.95615 0.84642 0.76918 0.0
H910 H 0.98013 0.86738 0.7737 0.0
H911 H 0.95844 0.86978 0.68967 0.0
H912 H 0.03444 0.92103 0.69576 0.0
H913 H 0.97937 0.92751 0.50545 0.0
H914 H 0.04394 0.8601 0.67909 0.0
H915 H 0.02333 0.86471 0.76472 0.0
H916 H 0.04756 0.88499 0.75043 0.0
H917 H 0.97537 0.86443 0.45872 0.0
H918 H 0.9627 0.89332 0.43847 0.0
H919 H 0.95333 0.87589 0.52978 0.0
C920 C 0.69011 0.99618 0.58655 0.0
C921 C 0.69604 0.0178 0.54727 0.0
C922 C 0.66752 0.99242 0.62104 0.0
C923 C 0.65042 0.01063 0.61536 0.0
C924 C 0.6564 0.03263 0.57716 0.0
C925 C 0.67922 0.03602 0.54422 0.0
C926 C 0.66166 0.96868 0.66066 0.0
C927 C 0.63844 0.05229 0.56839 0.0
C928 C 0.58501 0.99626 0.61344 0.0
C929 C 0.57811 1.00345 0.69619 0.0
C930 C 0.60867 0.99753 0.58747 0.0
C931 C 0.62588 0.0064 0.64551 0.0
C932 C 0.61929 0.01259 0.73056 0.0
C933 C 0.59545 0.01096 0.75507 0.0
C934 C 0.61469 0.99071 0.49596 0.0
C935 C 0.63726 0.02176 0.79453 0.0
H936 H 0.70303 0.98201 0.58932 0.0
H937 H 0.68364 0.05273 0.5136 0.0
H938 H 0.65423 0.97105 0.72625 0.0
H939 H 0.64794 0.95975 0.621 0.0
H940 H 0.67737 0.95691 0.66522 0.0
H941 H 0.62372 0.04643 0.52598 0.0
H942 H 0.63077 0.05651 0.63234 0.0
H943 H 0.64621 0.06869 0.54058 0.0
H944 H 0.57182 0.99026 0.56751 0.0
H945 H 0.59035 0.01643 0.81934 0.0
H946 H 0.6328 0.98331 0.49072 0.0
H947 H 0.61361 0.00671 0.4544 0.0
H948 H 0.60195 0.97752 0.47015 0.0
H949 H 0.65173 0.00868 0.80314 0.0
H950 H 0.62932 0.02546 0.85847 0.0
H951 H 0.64534 0.03833 0.7696 0.0
C952 C 0.5019 0.6953 0.73911 0.0
C953 C 0.4855 0.70677 0.68567 0.0
C954 C 0.50683 0.67113 0.72883 0.0
C955 C 0.4942 0.65799 0.66614 0.0
C956 C 0.47761 0.66958 0.6118 0.0
C957 C 0.47382 0.694 0.62086 0.0
C958 C 0.52481 0.65947 0.78745 0.0
C959 C 0.46299 0.65593 0.5473 0.0
C960 C 0.51451 0.5959 0.60598 0.0
C961 C 0.5008 0.58208 0.66195 0.0
C962 C 0.51266 0.62075 0.60653 0.0
C963 C 0.49649 0.63179 0.66341 0.0
C964 C 0.48219 0.61777 0.71821 0.0
C965 C 0.48458 0.59314 0.71686 0.0
C966 C 0.52866 0.63517 0.549 0.0
C967 C 0.46439 0.62875 0.77867 0.0
H968 H 0.51072 0.70523 0.78963 0.0
H969 H 0.46075 0.7028 0.58065 0.0
H970 H 0.51572 0.64733 0.83298 0.0
H971 H 0.53734 0.64869 0.7491 0.0
H972 H 0.53503 0.67261 0.8256 0.0
H973 H 0.44947 0.66721 0.51529 0.0
H974 H 0.47471 0.6482 0.49763 0.0
H975 H 0.45378 0.64101 0.57965 0.0
H976 H 0.52716 0.58735 0.56388 0.0
H977 H 0.47354 0.58245 0.75866 0.0
H978 H 0.54257 0.64364 0.5891 0.0
H979 H 0.51866 0.64957 0.51638 0.0
H980 H 0.53742 0.62412 0.49932 0.0
H981 H 0.47361 0.64 0.8267 0.0
H982 H 0.45389 0.61523 0.81407 0.0
H983 H 0.45204 0.64032 0.742 0.0
C984 C 0.81971 0.51272 0.63157 0.0
C985 C 0.81193 0.53349 0.67201 0.0
C986 C 0.84395 0.50707 0.62899 0.0
C987 C 0.86058 0.52245 0.6682 0.0
C988 C 0.85278 0.54385 0.70573 0.0
C989 C 0.82854 0.54895 0.7079 0.0
C990 C 0.85164 0.48424 0.58754 0.0
C991 C 0.87003 0.56114 0.74532 0.0
C992 C 0.91855 0.50047 0.76262 0.0
C993 C 0.93491 0.50791 0.70039 0.0
C994 C 0.8942 0.50406 0.75059 0.0
C995 C 0.886 0.51577 0.67514 0.0
C996 C 0.90242 0.52275 0.6109 0.0
C997 C 0.92664 0.51845 0.62391 0.0
C998 C 0.87732 0.49605 0.82022 0.0
C999 C 0.89505 0.53524 0.52875 0.0
H1000 H 0.80695 0.50041 0.60524 0.0
H1001 H 0.82249 0.56499 0.73914 0.0
H1002 H 0.86756 0.48712 0.54709 0.0
H1003 H 0.85646 0.47127 0.63866 0.0
H1004 H 0.83742 0.47646 0.54689 0.0
H1005 H 0.86123 0.57762 0.76737 0.0
H1006 H 0.87905 0.55279 0.80145 0.0
H1007 H 0.88386 0.5659 0.69758 0.0
H1008 H 0.92478 0.49205 0.82149 0.0
H1009 H 0.93913 0.52417 0.57514 0.0
H1010 H 0.86291 0.48523 0.79174 0.0
H1011 H 0.86902 0.51171 0.85074 0.0
H1012 H 0.88629 0.48547 0.87137 0.0
H1013 H 0.8982 0.52327 0.47329 0.0
H1014 H 0.90627 0.55114 0.51855 0.0
H1015 H 0.87625 0.54081 0.52789 0.0
loop_
_geom_bond_atom_site_label_1
_geom_bond_atom_site_label_2
_geom_bond_distance
_geom_bond_site_symmetry_2
_ccdc_geom_bond_type
O0 Cd1 2.300 . S
O0 C7 1.275 . S
Cd1 O0 2.300 . S
Cd1 O9 2.381 . S
Cd1 O10 2.378 . S
O2 Cd3 2.385 . S
O2 C7 1.255 . S
Cd3 O2 2.385 . S
Cd3 O4 2.317 . S
O4 Cd3 2.317 . S
O4 C5 1.232 . S
C5 O4 1.232 . S
C5 O6 1.218 . S
O6 C5 1.218 . S
C7 O0 1.275 . S
C7 O2 1.255 . S
C8 O9 1.258 . S
C8 O10 1.256 . S
O9 Cd1 2.381 . S
O9 C8 1.258 . S
O10 Cd1 2.378 . S
O10 C8 1.256 . S
O11 Cd12 2.300 1_655 S
O11 C18 1.275 1_655 S
Cd12 O11 2.300 1_455 S
Cd12 O20 2.381 1_455 S
Cd12 O21 2.378 . S
O13 Cd14 2.385 . S
O13 C18 1.255 . S
Cd14 O13 2.385 . S
Cd14 O15 2.317 . S
O15 Cd14 2.317 . S
O15 C16 1.232 . S
C16 O15 1.232 . S
C16 O17 1.218 . S
O17 C16 1.218 . S
C18 O11 1.275 1_455 S
C18 O13 1.255 . S
C19 O20 1.258 1_455 S
C19 O21 1.256 . S
O20 Cd12 2.381 1_655 S
O20 C19 1.258 1_655 S
O21 Cd12 2.378 . S
O21 C19 1.256 . S
O22 Cd23 2.300 1_565 S
O22 C29 1.275 1_565 S
Cd23 O22 2.300 1_545 S
Cd23 O31 2.381 1_545 S
Cd23 O32 2.378 . S
O24 Cd25 2.385 . S
O24 C29 1.255 . S
Cd25 O24 2.385 . S
Cd25 O26 2.317 . S
O26 Cd25 2.317 . S
O26 C27 1.232 . S
C27 O26 1.232 . S
C27 O28 1.218 . S
O28 C27 1.218 . S
C29 O22 1.275 1_545 S
C29 O24 1.255 . S
C30 O31 1.258 1_545 S
C30 O32 1.256 . S
O31 Cd23 2.381 1_565 S
O31 C30 1.258 1_565 S
O32 Cd23 2.378 . S
O32 C30 1.256 . S
O33 Cd34 2.300 . S
O33 C40 1.275 . S
Cd34 O33 2.300 . S
Cd34 O42 2.381 . S
Cd34 O43 2.378 . S
O35 Cd36 2.385 . S
O35 C40 1.255 . S
Cd36 O35 2.385 . S
Cd36 O37 2.317 . S
O37 Cd36 2.317 . S
O37 C38 1.232 . S
C38 O37 1.232 . S
C38 O39 1.218 . S
O39 C38 1.218 . S
C40 O33 1.275 . S
C40 O35 1.255 . S
C41 O42 1.258 . S
C41 O43 1.256 . S
O42 Cd34 2.381 . S
O42 C41 1.258 . S
O43 Cd34 2.378 . S
O43 C41 1.256 . S
O44 Cd45 2.300 . S
O44 C51 1.275 . S
Cd45 O44 2.300 . S
Cd45 O53 2.381 . S
Cd45 O54 2.378 . S
O46 Cd47 2.385 1_554 S
O46 C51 1.255 . S
Cd47 O46 2.385 1_556 S
Cd47 O48 2.317 . S
O48 Cd47 2.317 . S
O48 C49 1.232 . S
C49 O48 1.232 . S
C49 O50 1.218 . S
O50 C49 1.218 . S
C51 O44 1.275 . S
C51 O46 1.255 . S
C52 O53 1.258 . S
C52 O54 1.256 . S
O53 Cd45 2.381 . S
O53 C52 1.258 . S
O54 Cd45 2.378 . S
O54 C52 1.256 . S
O55 Cd56 2.300 1_655 S
O55 C62 1.275 1_655 S
Cd56 O55 2.300 1_455 S
Cd56 O64 2.381 1_455 S
Cd56 O65 2.378 . S
O57 Cd58 2.385 1_554 S
O57 C62 1.255 . S
Cd58 O57 2.385 1_556 S
Cd58 O59 2.317 . S
O59 Cd58 2.317 . S
O59 C60 1.232 . S
C60 O59 1.232 . S
C60 O61 1.218 . S
O61 C60 1.218 . S
C62 O55 1.275 1_455 S
C62 O57 1.255 . S
C63 O64 1.258 1_455 S
C63 O65 1.256 . S
O64 Cd56 2.381 1_655 S
O64 C63 1.258 1_655 S
O65 Cd56 2.378 . S
O65 C63 1.256 . S
O66 Cd67 2.300 1_565 S
O66 C73 1.275 1_565 S
Cd67 O66 2.300 1_545 S
Cd67 O75 2.381 1_545 S
Cd67 O76 2.378 . S
O68 Cd69 2.385 1_554 S
O68 C73 1.255 . S
Cd69 O68 2.385 1_556 S
Cd69 O70 2.317 . S
O70 Cd69 2.317 . S
O70 C71 1.232 . S
C71 O70 1.232 . S
C71 O72 1.218 . S
O72 C71 1.218 . S
C73 O66 1.275 1_545 S
C73 O68 1.255 . S
C74 O75 1.258 1_545 S
C74 O76 1.256 . S
O75 Cd67 2.381 1_565 S
O75 C74 1.258 1_565 S
O76 Cd67 2.378 . S
O76 C74 1.256 . S
O77 Cd78 2.300 . S
O77 C84 1.275 . S
Cd78 O77 2.300 . S
Cd78 O86 2.381 . S
Cd78 O87 2.378 . S
O79 Cd80 2.385 1_554 S
O79 C84 1.255 . S
Cd80 O79 2.385 1_556 S
Cd80 O81 2.317 . S
O81 Cd80 2.317 . S
O81 C82 1.232 . S
C82 O81 1.232 . S
C82 O83 1.218 . S
O83 C82 1.218 . S
C84 O77 1.275 . S
C84 O79 1.255 . S
C85 O86 1.258 . S
C85 O87 1.256 . S
O86 Cd78 2.381 . S
O86 C85 1.258 . S
O87 Cd78 2.378 . S
O87 C85 1.256 . S
Pr88 C90 2.880 . S
Pr88 O108 2.562 . S
Pr88 O109 2.490 . S
Pr88 O110 2.695 1_565 S
Pr88 O111 2.512 . S
Pr88 O113 2.437 . S
Pr88 O116 2.436 1_455 S
Pr88 O118 2.438 1_565 S
Pr89 C99 2.880 . S
Pr89 O110 2.436 1_655 S
Pr89 O112 2.438 1_545 S
Pr89 O114 2.562 . S
Pr89 O115 2.490 . S
Pr89 O116 2.695 1_545 S
Pr89 O117 2.512 . S
Pr89 O119 2.437 . S
C90 Pr88 2.880 . S
C90 C91 1.491 . S
C90 O108 1.254 . S
C90 O109 1.225 . S
C91 C90 1.491 . S
C91 C92 1.392 . S
C91 C96 1.356 . S
C92 C91 1.392 . S
C92 C93 1.368 . S
C92 H120 0.929 . S
C93 C92 1.368 . S
C93 C94 1.386 1_556 S
C93 H121 0.929 1_556 S
C94 C93 1.386 1_554 S
C94 C95 1.373 . S
C95 C94 1.373 . S
C95 C96 1.409 1_554 S
C95 H122 0.931 1_455 S
C96 C91 1.356 . S
C96 C95 1.409 1_556 S
C96 H123 0.930 1_455 S
C97 O110 1.270 1_565 S
C97 O111 1.248 . S
C98 O112 1.267 . S
C98 O113 1.278 1_655 S
C99 Pr89 2.880 . S
C99 C100 1.491 . S
C99 O114 1.254 . S
C99 O115 1.225 . S
C100 C99 1.491 . S
C100 C101 1.392 . S
C100 C105 1.356 . S
C101 C100 1.392 . S
C101 C102 1.368 . S
C101 H124 0.929 . S
C102 C101 1.368 . S
C102 C103 1.386 . S
C102 H125 0.929 . S
C103 C102 1.386 . S
C103 C104 1.373 . S
C104 C103 1.373 . S
C104 C105 1.409 . S
C104 H126 0.931 1_655 S
C105 C100 1.356 . S
C105 C104 1.409 . S
C105 H127 0.930 1_655 S
C106 O116 1.270 1_545 S
C106 O117 1.248 . S
C107 O118 1.267 . S
C107 O119 1.278 1_455 S
O108 Pr88 2.562 . S
O108 C90 1.254 . S
O109 Pr88 2.490 . S
O109 C90 1.225 . S
O110 Pr88 2.695 1_545 S
O110 Pr89 2.436 1_455 S
O110 C97 1.270 1_545 S
O111 Pr88 2.512 . S
O111 C97 1.248 . S
O112 Pr89 2.438 1_565 S
O112 C98 1.267 . S
O113 Pr88 2.437 . S
O113 C98 1.278 1_455 S
O114 Pr89 2.562 . S
O114 C99 1.254 . S
O115 Pr89 2.490 . S
O115 C99 1.225 . S
O116 Pr88 2.436 1_655 S
O116 Pr89 2.695 1_565 S
O116 C106 1.270 1_565 S
O117 Pr89 2.512 . S
O117 C106 1.248 . S
O118 Pr88 2.438 1_545 S
O118 C107 1.267 . S
O119 Pr89 2.437 . S
O119 C107 1.278 1_655 S
H120 C92 0.929 . S
H121 C93 0.929 1_554 S
H122 C95 0.931 1_655 S
H123 C96 0.930 1_655 S
H124 C101 0.929 . S
H125 C102 0.929 . S
H126 C104 0.931 1_455 S
H127 C105 0.930 1_455 S
Pr128 C130 2.880 . S
Pr128 O148 2.562 . S
Pr128 O149 2.490 . S
Pr128 O150 2.695 . S
Pr128 O151 2.512 . S
Pr128 O153 2.437 . S
Pr128 O156 2.436 1_545 S
Pr128 O158 2.438 . S
Pr129 C139 2.880 . S
Pr129 O150 2.436 1_565 S
Pr129 O152 2.438 . S
Pr129 O154 2.562 . S
Pr129 O155 2.490 . S
Pr129 O156 2.695 . S
Pr129 O157 2.512 . S
Pr129 O159 2.437 . S
C130 Pr128 2.880 . S
C130 C131 1.491 . S
C130 O148 1.254 . S
C130 O149 1.225 . S
C131 C130 1.491 . S
C131 C132 1.392 . S
C131 C136 1.356 . S
C132 C131 1.392 . S
C132 C133 1.368 . S
C132 H160 0.929 . S
C133 C132 1.368 . S
C133 C134 1.386 1_556 S
C133 H161 0.929 1_556 S
C134 C133 1.386 1_554 S
C134 C135 1.373 . S
C135 C134 1.373 . S
C135 C136 1.409 1_554 S
C135 H162 0.931 1_545 S
C136 C131 1.356 . S
C136 C135 1.409 1_556 S
C136 H163 0.930 1_545 S
C137 O150 1.270 . S
C137 O151 1.248 . S
C138 O152 1.267 . S
C138 O153 1.278 1_565 S
C139 Pr129 2.880 . S
C139 C140 1.491 . S
C139 O154 1.254 . S
C139 O155 1.225 . S
C140 C139 1.491 . S
C140 C141 1.392 . S
C140 C145 1.356 . S
C141 C140 1.392 . S
C141 C142 1.368 . S
C141 H164 0.929 . S
C142 C141 1.368 . S
C142 C143 1.386 . S
C142 H165 0.929 . S
C143 C142 1.386 . S
C143 C144 1.373 . S
C144 C143 1.373 . S
C144 C145 1.409 . S
C144 H166 0.931 1_565 S
C145 C140 1.356 . S
C145 C144 1.409 . S
C145 H167 0.930 1_565 S
C146 O156 1.270 . S
C146 O157 1.248 . S
C147 O158 1.267 . S
C147 O159 1.278 1_545 S
O148 Pr128 2.562 . S
O148 C130 1.254 . S
O149 Pr128 2.490 . S
O149 C130 1.225 . S
O150 Pr128 2.695 . S
O150 Pr129 2.436 1_545 S
O150 C137 1.270 . S
O151 Pr128 2.512 . S
O151 C137 1.248 . S
O152 Pr129 2.438 . S
O152 C138 1.267 . S
O153 Pr128 2.437 . S
O153 C138 1.278 1_545 S
O154 Pr129 2.562 . S
O154 C139 1.254 . S
O155 Pr129 2.490 . S
O155 C139 1.225 . S
O156 Pr128 2.436 1_565 S
O156 Pr129 2.695 . S
O156 C146 1.270 . S
O157 Pr129 2.512 . S
O157 C146 1.248 . S
O158 Pr128 2.438 . S
O158 C147 1.267 . S
O159 Pr129 2.437 . S
O159 C147 1.278 1_565 S
H160 C132 0.929 . S
H161 C133 0.929 1_554 S
H162 C135 0.931 1_565 S
H163 C136 0.930 1_565 S
H164 C141 0.929 . S
H165 C142 0.929 . S
H166 C144 0.931 1_545 S
H167 C145 0.930 1_545 S
Pr168 C170 2.880 . S
Pr168 O188 2.562 . S
Pr168 O189 2.490 . S
Pr168 O190 2.695 . S
Pr168 O191 2.512 . S
Pr168 O193 2.437 . S
Pr168 O196 2.436 . S
Pr168 O198 2.438 . S
Pr169 C179 2.880 . S
Pr169 O190 2.436 . S
Pr169 O192 2.438 . S
Pr169 O194 2.562 . S
Pr169 O195 2.490 . S
Pr169 O196 2.695 . S
Pr169 O197 2.512 . S
Pr169 O199 2.437 . S
C170 Pr168 2.880 . S
C170 C171 1.491 . S
C170 O188 1.254 . S
C170 O189 1.225 . S
C171 C170 1.491 . S
C171 C172 1.392 . S
C171 C176 1.356 . S
C172 C171 1.392 . S
C172 C173 1.368 . S
C172 H200 0.929 . S
C173 C172 1.368 . S
C173 C174 1.386 1_556 S
C173 H201 0.929 1_556 S
C174 C173 1.386 1_554 S
C174 C175 1.373 . S
C175 C174 1.373 . S
C175 C176 1.409 1_554 S
C175 H202 0.931 . S
C176 C171 1.356 . S
C176 C175 1.409 1_556 S
C176 H203 0.930 . S
C177 O190 1.270 . S
C177 O191 1.248 . S
C178 O192 1.267 . S
C178 O193 1.278 . S
C179 Pr169 2.880 . S
C179 C180 1.491 . S
C179 O194 1.254 . S
C179 O195 1.225 . S
C180 C179 1.491 . S
C180 C181 1.392 . S
C180 C185 1.356 . S
C181 C180 1.392 . S
C181 C182 1.368 . S
C181 H204 0.929 . S
C182 C181 1.368 . S
C182 C183 1.386 . S
C182 H205 0.929 . S
C183 C182 1.386 . S
C183 C184 1.373 . S
C184 C183 1.373 . S
C184 C185 1.409 . S
C184 H206 0.931 . S
C185 C180 1.356 . S
C185 C184 1.409 . S
C185 H207 0.930 . S
C186 O196 1.270 . S
C186 O197 1.248 . S
C187 O198 1.267 . S
C187 O199 1.278 . S
O188 Pr168 2.562 . S
O188 C170 1.254 . S
O189 Pr168 2.490 . S
O189 C170 1.225 . S
O190 Pr168 2.695 . S
O190 Pr169 2.436 . S
O190 C177 1.270 . S
O191 Pr168 2.512 . S
O191 C177 1.248 . S
O192 Pr169 2.438 . S
O192 C178 1.267 . S
O193 Pr168 2.437 . S
O193 C178 1.278 . S
O194 Pr169 2.562 . S
O194 C179 1.254 . S
O195 Pr169 2.490 . S
O195 C179 1.225 . S
O196 Pr168 2.436 . S
O196 Pr169 2.695 . S
O196 C186 1.270 . S
O197 Pr169 2.512 . S
O197 C186 1.248 . S
O198 Pr168 2.438 . S
O198 C187 1.267 . S
O199 Pr169 2.437 . S
O199 C187 1.278 . S
H200 C172 0.929 . S
H201 C173 0.929 1_554 S
H202 C175 0.931 . S
H203 C176 0.930 . S
H204 C181 0.929 . S
H205 C182 0.929 . S
H206 C184 0.931 . S
H207 C185 0.930 . S
Pr208 C210 2.880 . S
Pr208 O228 2.562 . S
Pr208 O229 2.490 . S
Pr208 O230 2.695 1_655 S
Pr208 O231 2.512 . S
Pr208 O233 2.437 . S
Pr208 O236 2.436 . S
Pr208 O238 2.438 1_655 S
Pr209 C219 2.880 . S
Pr209 O230 2.436 . S
Pr209 O232 2.438 1_455 S
Pr209 O234 2.562 . S
Pr209 O235 2.490 . S
Pr209 O236 2.695 1_455 S
Pr209 O237 2.512 . S
Pr209 O239 2.437 . S
C210 Pr208 2.880 . S
C210 C211 1.491 . S
C210 O228 1.254 . S
C210 O229 1.225 . S
C211 C210 1.491 . S
C211 C212 1.392 . S
C211 C216 1.356 . S
C212 C211 1.392 . S
C212 C213 1.368 . S
C212 H240 0.929 . S
C213 C212 1.368 . S
C213 C214 1.386 1_556 S
C213 H241 0.929 1_556 S
C214 C213 1.386 1_554 S
C214 C215 1.373 . S
C215 C214 1.373 . S
C215 C216 1.409 1_554 S
C215 H242 0.931 . S
C216 C211 1.356 . S
C216 C215 1.409 1_556 S
C216 H243 0.930 . S
C217 O230 1.256 1_655 S
C217 O231 1.273 . S
C218 O232 1.267 . S
C218 O233 1.278 . S
C219 Pr209 2.880 . S
C219 C220 1.491 . S
C219 O234 1.254 . S
C219 O235 1.225 . S
C220 C219 1.491 . S
C220 C221 1.392 . S
C220 C225 1.356 . S
C221 C220 1.392 . S
C221 C222 1.368 . S
C221 H244 0.929 . S
C222 C221 1.368 . S
C222 C223 1.386 . S
C222 H245 0.929 . S
C223 C222 1.386 . S
C223 C224 1.373 . S
C224 C223 1.373 . S
C224 C225 1.409 . S
C224 H246 0.931 . S
C225 C220 1.356 . S
C225 C224 1.409 . S
C225 H247 0.930 . S
C226 O236 1.270 1_455 S
C226 O237 1.248 . S
C227 O238 1.267 . S
C227 O239 1.278 . S
O228 Pr208 2.562 . S
O228 C210 1.254 . S
O229 Pr208 2.490 . S
O229 C210 1.225 . S
O230 Pr208 2.695 1_455 S
O230 Pr209 2.436 . S
O230 C217 1.256 1_455 S
O231 Pr208 2.512 . S
O231 C217 1.273 . S
O232 Pr209 2.438 1_655 S
O232 C218 1.267 . S
O233 Pr208 2.437 . S
O233 C218 1.278 . S
O234 Pr209 2.562 . S
O234 C219 1.254 . S
O235 Pr209 2.490 . S
O235 C219 1.225 . S
O236 Pr208 2.436 . S
O236 Pr209 2.695 1_655 S
O236 C226 1.270 1_655 S
O237 Pr209 2.512 . S
O237 C226 1.248 . S
O238 Pr208 2.438 1_455 S
O238 C227 1.267 . S
O239 Pr209 2.437 . S
O239 C227 1.278 . S
H240 C212 0.929 . S
H241 C213 0.929 1_554 S
H242 C215 0.931 . S
H243 C216 0.930 . S
H244 C221 0.929 . S
H245 C222 0.929 . S
H246 C224 0.931 . S
H247 C225 0.930 . S
C248 C249 1.390 1_545 S
C248 C250 1.392 1_545 S
C248 H264 0.933 . S
C249 C248 1.390 1_565 S
C249 C253 1.376 . S
C250 C248 1.392 1_565 S
C250 C251 1.378 . S
C250 C254 1.526 1_565 S
C251 C250 1.378 . S
C251 C252 1.410 . S
C251 C259 1.503 . S
C252 C251 1.410 . S
C252 C253 1.392 . S
C252 C255 1.511 . S
C253 C249 1.376 . S
C253 C252 1.392 . S
C253 H265 0.929 . S
C254 C250 1.526 1_545 S
C254 H266 0.960 1_545 S
C254 H267 0.962 . S
C254 H268 0.960 1_545 S
C255 C252 1.511 . S
C255 H269 0.961 . S
C255 H270 0.961 . S
C255 H271 0.961 . S
C256 C257 1.384 . S
C256 C258 1.363 . S
C256 H272 0.931 . S
C257 C256 1.384 . S
C257 C261 1.393 1_545 S
C258 C256 1.363 . S
C258 C259 1.370 1_545 S
C258 C262 1.524 . S
C259 C251 1.503 . S
C259 C258 1.370 1_565 S
C259 C260 1.403 . S
C260 C259 1.403 . S
C260 C261 1.404 . S
C260 C263 1.539 . S
C261 C257 1.393 1_565 S
C261 C260 1.404 . S
C261 H273 0.930 . S
C262 C258 1.524 . S
C262 H274 0.956 . S
C262 H275 0.961 . S
C262 H276 0.961 . S
C263 C260 1.539 . S
C263 H277 0.958 . S
C263 H278 0.961 . S
C263 H279 0.960 . S
H264 C248 0.933 . S
H265 C253 0.929 . S
H266 C254 0.960 1_565 S
H267 C254 0.962 . S
H268 C254 0.960 1_565 S
H269 C255 0.961 . S
H270 C255 0.961 . S
H271 C255 0.961 . S
H272 C256 0.931 . S
H273 C261 0.930 . S
H274 C262 0.956 . S
H275 C262 0.961 . S
H276 C262 0.961 . S
H277 C263 0.958 . S
H278 C263 0.961 . S
H279 C263 0.960 . S
C280 C281 1.391 . S
C280 C282 1.394 . S
C280 H296 0.931 . S
C281 C280 1.391 . S
C281 C285 1.376 . S
C282 C280 1.394 . S
C282 C283 1.369 . S
C282 C286 1.531 . S
C283 C282 1.369 . S
C283 C284 1.410 . S
C283 C291 1.503 . S
C284 C283 1.410 . S
C284 C285 1.392 . S
C284 C287 1.511 . S
C285 C281 1.376 . S
C285 C284 1.392 . S
C285 H297 0.929 . S
C286 C282 1.531 . S
C286 H298 0.960 . S
C286 H299 0.962 . S
C286 H300 0.960 . S
C287 C284 1.511 . S
C287 H301 0.961 . S
C287 H302 0.961 . S
C287 H303 0.961 . S
C288 C289 1.370 . S
C288 C290 1.363 . S
C288 H304 0.931 . S
C289 C288 1.370 . S
C289 C293 1.408 . S
C290 C288 1.363 . S
C290 C291 1.370 . S
C290 C294 1.524 . S
C291 C283 1.503 . S
C291 C290 1.370 . S
C291 C292 1.403 . S
C292 C291 1.403 . S
C292 C293 1.404 . S
C292 C295 1.539 . S
C293 C289 1.408 . S
C293 C292 1.404 . S
C293 H305 0.930 . S
C294 C290 1.524 . S
C294 H306 0.956 . S
C294 H307 0.961 . S
C294 H308 0.961 . S
C295 C292 1.539 . S
C295 H309 0.958 . S
C295 H310 0.961 . S
C295 H311 0.960 . S
H296 C280 0.931 . S
H297 C285 0.929 . S
H298 C286 0.960 . S
H299 C286 0.962 . S
H300 C286 0.960 . S
H301 C287 0.961 . S
H302 C287 0.961 . S
H303 C287 0.961 . S
H304 C288 0.931 . S
H305 C293 0.930 . S
H306 C294 0.956 . S
H307 C294 0.961 . S
H308 C294 0.961 . S
H309 C295 0.958 . S
H310 C295 0.961 . S
H311 C295 0.960 . S
C312 C313 1.391 . S
C312 C314 1.394 . S
C312 H328 0.931 . S
C313 C312 1.391 . S
C313 C317 1.376 . S
C314 C312 1.394 . S
C314 C315 1.369 . S
C314 C318 1.531 . S
C315 C314 1.369 . S
C315 C316 1.410 . S
C315 C323 1.503 . S
C316 C315 1.410 . S
C316 C317 1.392 . S
C316 C319 1.511 . S
C317 C313 1.376 . S
C317 C316 1.392 . S
C317 H329 0.929 . S
C318 C314 1.531 . S
C318 H330 0.960 . S
C318 H331 0.962 . S
C318 H332 0.960 . S
C319 C316 1.511 . S
C319 H333 0.961 . S
C319 H334 0.961 . S
C319 H335 0.961 . S
C320 C321 1.370 . S
C320 C322 1.363 . S
C320 H336 0.931 . S
C321 C320 1.370 . S
C321 C325 1.408 . S
C322 C320 1.363 . S
C322 C323 1.370 . S
C322 C326 1.524 . S
C323 C315 1.503 . S
C323 C322 1.370 . S
C323 C324 1.403 . S
C324 C323 1.403 . S
C324 C325 1.404 . S
C324 C327 1.539 . S
C325 C321 1.408 . S
C325 C324 1.404 . S
C325 H337 0.930 . S
C326 C322 1.524 . S
C326 H338 0.956 . S
C326 H339 0.961 . S
C326 H340 0.961 . S
C327 C324 1.539 . S
C327 H341 0.958 . S
C327 H342 0.961 . S
C327 H343 0.960 . S
H328 C312 0.931 . S
H329 C317 0.929 . S
H330 C318 0.960 . S
H331 C318 0.962 . S
H332 C318 0.960 . S
H333 C319 0.961 . S
H334 C319 0.961 . S
H335 C319 0.961 . S
H336 C320 0.931 . S
H337 C325 0.930 . S
H338 C326 0.956 . S
H339 C326 0.961 . S
H340 C326 0.961 . S
H341 C327 0.958 . S
H342 C327 0.961 . S
H343 C327 0.960 . S
C344 C345 1.391 . S
C344 C346 1.394 . S
C344 H360 0.931 . S
C345 C344 1.391 . S
C345 C349 1.376 1_455 S
C346 C344 1.394 . S
C346 C347 1.369 . S
C346 C350 1.531 . S
C347 C346 1.369 . S
C347 C348 1.410 1_455 S
C347 C355 1.503 . S
C348 C347 1.410 1_655 S
C348 C349 1.392 . S
C348 C351 1.511 . S
C349 C345 1.376 1_655 S
C349 C348 1.392 . S
C349 H361 0.929 . S
C350 C346 1.531 . S
C350 H362 0.960 . S
C350 H363 0.962 . S
C350 H364 0.960 . S
C351 C348 1.511 . S
C351 H365 0.961 . S
C351 H366 0.961 . S
C351 H367 0.961 1_655 S
C352 C353 1.370 1_655 S
C352 C354 1.363 . S
C352 H368 0.931 . S
C353 C352 1.370 1_455 S
C353 C357 1.408 . S
C354 C352 1.363 . S
C354 C355 1.370 1_655 S
C354 C358 1.524 . S
C355 C347 1.503 . S
C355 C354 1.370 1_455 S
C355 C356 1.403 . S
C356 C355 1.403 . S
C356 C357 1.404 . S
C356 C359 1.539 . S
C357 C353 1.408 . S
C357 C356 1.404 . S
C357 H369 0.930 . S
C358 C354 1.524 . S
C358 H370 0.956 . S
C358 H371 0.961 . S
C358 H372 0.961 . S
C359 C356 1.539 . S
C359 H373 0.958 . S
C359 H374 0.961 . S
C359 H375 0.960 . S
H360 C344 0.931 . S
H361 C349 0.929 . S
H362 C350 0.960 . S
H363 C350 0.962 . S
H364 C350 0.960 . S
H365 C351 0.961 . S
H366 C351 0.961 . S
H367 C351 0.961 1_455 S
H368 C352 0.931 . S
H369 C357 0.930 . S
H370 C358 0.956 . S
H371 C358 0.961 . S
H372 C358 0.961 . S
H373 C359 0.958 . S
H374 C359 0.961 . S
H375 C359 0.960 . S
C376 C377 1.391 . S
C376 C378 1.394 . S
C376 H392 0.931 . S
C377 C376 1.391 . S
C377 C381 1.376 1_565 S
C378 C376 1.394 . S
C378 C379 1.369 . S
C378 C382 1.531 . S
C379 C378 1.369 . S
C379 C380 1.410 1_565 S
C379 C387 1.503 . S
C380 C379 1.410 1_545 S
C380 C381 1.392 . S
C380 C383 1.511 . S
C381 C377 1.376 1_545 S
C381 C380 1.392 . S
C381 H393 0.929 . S
C382 C378 1.531 . S
C382 H394 0.960 . S
C382 H395 0.962 . S
C382 H396 0.960 . S
C383 C380 1.511 . S
C383 H397 0.961 . S
C383 H398 0.961 1_554 S
C383 H399 0.961 1_554 S
C384 C385 1.370 1_545 S
C384 C386 1.363 1_556 S
C384 H400 0.931 . S
C385 C384 1.370 1_565 S
C385 C389 1.408 . S
C386 C384 1.363 1_554 S
C386 C387 1.370 1_545 S
C386 C390 1.524 . S
C387 C379 1.503 . S
C387 C386 1.370 1_565 S
C387 C388 1.403 1_554 S
C388 C387 1.403 1_556 S
C388 C389 1.404 . S
C388 C391 1.539 . S
C389 C385 1.408 . S
C389 C388 1.404 . S
C389 H401 0.930 . S
C390 C386 1.524 . S
C390 H402 0.956 . S
C390 H403 0.961 . S
C390 H404 0.961 . S
C391 C388 1.539 . S
C391 H405 0.958 . S
C391 H406 0.961 . S
C391 H407 0.960 . S
H392 C376 0.931 . S
H393 C381 0.929 . S
H394 C382 0.960 . S
H395 C382 0.962 . S
H396 C382 0.960 . S
H397 C383 0.961 . S
H398 C383 0.961 1_556 S
H399 C383 0.961 1_556 S
H400 C384 0.931 . S
H401 C389 0.930 . S
H402 C390 0.956 . S
H403 C390 0.961 . S
H404 C390 0.961 . S
H405 C391 0.958 . S
H406 C391 0.961 . S
H407 C391 0.960 . S
C408 C409 1.391 . S
C408 C410 1.394 . S
C408 H424 0.931 . S
C409 C408 1.391 . S
C409 C413 1.376 . S
C410 C408 1.394 . S
C410 C411 1.369 . S
C410 C414 1.531 . S
C411 C410 1.369 . S
C411 C412 1.410 . S
C411 C419 1.503 . S
C412 C411 1.410 . S
C412 C413 1.392 . S
C412 C415 1.511 . S
C413 C409 1.376 . S
C413 C412 1.392 . S
C413 H425 0.929 . S
C414 C410 1.531 . S
C414 H426 0.960 1_554 S
C414 H427 0.962 . S
C414 H428 0.960 . S
C415 C412 1.511 . S
C415 H429 0.961 . S
C415 H430 0.961 . S
C415 H431 0.961 . S
C416 C417 1.370 . S
C416 C418 1.363 1_556 S
C416 H432 0.931 . S
C417 C416 1.370 . S
C417 C421 1.408 . S
C418 C416 1.363 1_554 S
C418 C419 1.370 . S
C418 C422 1.524 . S
C419 C411 1.503 . S
C419 C418 1.370 . S
C419 C420 1.403 1_554 S
C420 C419 1.403 1_556 S
C420 C421 1.404 . S
C420 C423 1.539 . S
C421 C417 1.408 . S
C421 C420 1.404 . S
C421 H433 0.930 . S
C422 C418 1.524 . S
C422 H434 0.956 . S
C422 H435 0.961 . S
C422 H436 0.961 . S
C423 C420 1.539 . S
C423 H437 0.958 . S
C423 H438 0.961 . S
C423 H439 0.960 . S
H424 C408 0.931 . S
H425 C413 0.929 . S
H426 C414 0.960 1_556 S
H427 C414 0.962 . S
H428 C414 0.960 . S
H429 C415 0.961 . S
H430 C415 0.961 . S
H431 C415 0.961 . S
H432 C416 0.931 . S
H433 C421 0.930 . S
H434 C422 0.956 . S
H435 C422 0.961 . S
H436 C422 0.961 . S
H437 C423 0.958 . S
H438 C423 0.961 . S
H439 C423 0.960 . S
C440 C441 1.391 . S
C440 C442 1.394 . S
C440 H456 0.931 . S
C441 C440 1.391 . S
C441 C445 1.376 . S
C442 C440 1.394 . S
C442 C443 1.369 . S
C442 C446 1.531 . S
C443 C442 1.369 . S
C443 C444 1.410 . S
C443 C451 1.503 . S
C444 C443 1.410 . S
C444 C445 1.392 . S
C444 C447 1.511 1_554 S
C445 C441 1.376 . S
C445 C444 1.392 . S
C445 H457 0.929 . S
C446 C442 1.531 . S
C446 H458 0.960 . S
C446 H459 0.962 . S
C446 H460 0.960 . S
C447 C444 1.511 1_556 S
C447 H461 0.961 1_556 S
C447 H462 0.961 . S
C447 H463 0.961 . S
C448 C449 1.370 . S
C448 C450 1.363 1_556 S
C448 H464 0.931 . S
C449 C448 1.370 . S
C449 C453 1.408 . S
C450 C448 1.363 1_554 S
C450 C451 1.370 . S
C450 C454 1.524 . S
C451 C443 1.503 . S
C451 C450 1.370 . S
C451 C452 1.403 1_554 S
C452 C451 1.403 1_556 S
C452 C453 1.404 . S
C452 C455 1.539 . S
C453 C449 1.408 . S
C453 C452 1.404 . S
C453 H465 0.930 . S
C454 C450 1.524 . S
C454 H466 0.956 . S
C454 H467 0.961 . S
C454 H468 0.961 . S
C455 C452 1.539 . S
C455 H469 0.958 . S
C455 H470 0.961 . S
C455 H471 0.960 . S
H456 C440 0.931 . S
H457 C445 0.929 . S
H458 C446 0.960 . S
H459 C446 0.962 . S
H460 C446 0.960 . S
H461 C447 0.961 1_554 S
H462 C447 0.961 . S
H463 C447 0.961 . S
H464 C448 0.931 . S
H465 C453 0.930 . S
H466 C454 0.956 . S
H467 C454 0.961 . S
H468 C454 0.961 . S
H469 C455 0.958 . S
H470 C455 0.961 . S
H471 C455 0.960 . S
C472 C473 1.391 1_455 S
C472 C474 1.394 . S
C472 H488 0.931 . S
C473 C472 1.391 1_655 S
C473 C477 1.376 . S
C474 C472 1.394 . S
C474 C475 1.369 1_455 S
C474 C478 1.531 . S
C475 C474 1.369 1_655 S
C475 C476 1.410 . S
C475 C483 1.503 . S
C476 C475 1.410 . S
C476 C477 1.392 . S
C476 C479 1.511 . S
C477 C473 1.376 . S
C477 C476 1.392 . S
C477 H489 0.929 . S
C478 C474 1.531 . S
C478 H490 0.960 . S
C478 H491 0.962 . S
C478 H492 0.960 . S
C479 C476 1.511 . S
C479 H493 0.961 . S
C479 H494 0.961 1_554 S
C479 H495 0.961 . S
C480 C481 1.370 1_455 S
C480 C482 1.363 . S
C480 H496 0.931 . S
C481 C480 1.370 1_655 S
C481 C485 1.408 . S
C482 C480 1.363 . S
C482 C483 1.370 1_456 S
C482 C486 1.524 . S
C483 C475 1.503 . S
C483 C482 1.370 1_654 S
C483 C484 1.403 . S
C484 C483 1.403 . S
C484 C485 1.404 1_554 S
C484 C487 1.539 . S
C485 C481 1.408 . S
C485 C484 1.404 1_556 S
C485 H497 0.930 . S
C486 C482 1.524 . S
C486 H498 0.956 . S
C486 H499 0.961 . S
C486 H500 0.961 . S
C487 C484 1.539 . S
C487 H501 0.958 . S
C487 H502 0.961 . S
C487 H503 0.960 . S
H488 C472 0.931 . S
H489 C477 0.929 . S
H490 C478 0.960 . S
H491 C478 0.962 . S
H492 C478 0.960 . S
H493 C479 0.961 . S
H494 C479 0.961 1_556 S
H495 C479 0.961 . S
H496 C480 0.931 . S
H497 C485 0.930 . S
H498 C486 0.956 . S
H499 C486 0.961 . S
H500 C486 0.961 . S
H501 C487 0.958 . S
H502 C487 0.961 . S
H503 C487 0.960 . S
C504 C505 1.385 1_655 S
C504 C506 1.394 . S
C504 H520 0.931 . S
C505 C504 1.385 1_455 S
C505 C509 1.380 . S
C506 C504 1.394 . S
C506 C507 1.369 . S
C506 C510 1.531 . S
C507 C506 1.369 . S
C507 C508 1.410 1_655 S
C507 C515 1.503 . S
C508 C507 1.410 1_455 S
C508 C509 1.392 . S
C508 C511 1.511 . S
C509 C505 1.380 . S
C509 C508 1.392 . S
C509 H521 0.929 . S
C510 C506 1.531 . S
C510 H522 0.960 . S
C510 H523 0.962 . S
C510 H524 0.960 . S
C511 C508 1.511 . S
C511 H525 0.961 . S
C511 H526 0.961 . S
C511 H527 0.961 . S
C512 C513 1.370 . S
C512 C514 1.363 . S
C512 H528 0.931 . S
C513 C512 1.370 . S
C513 C517 1.408 . S
C514 C512 1.363 . S
C514 C515 1.370 . S
C514 C518 1.524 . S
C515 C507 1.503 . S
C515 C514 1.370 . S
C515 C516 1.403 . S
C516 C515 1.403 . S
C516 C517 1.404 . S
C516 C519 1.539 . S
C517 C513 1.408 . S
C517 C516 1.404 . S
C517 H529 0.930 . S
C518 C514 1.524 . S
C518 H530 0.956 . S
C518 H531 0.961 1_655 S
C518 H532 0.954 1_655 S
C519 C516 1.539 . S
C519 H533 0.958 . S
C519 H534 0.961 . S
C519 H535 0.960 . S
H520 C504 0.931 . S
H521 C509 0.929 . S
H522 C510 0.960 . S
H523 C510 0.962 . S
H524 C510 0.960 . S
H525 C511 0.961 . S
H526 C511 0.961 . S
H527 C511 0.961 . S
H528 C512 0.931 . S
H529 C517 0.930 . S
H530 C518 0.956 . S
H531 C518 0.961 1_455 S
H532 C518 0.954 1_455 S
H533 C519 0.958 . S
H534 C519 0.961 . S
H535 C519 0.960 . S
C536 C537 1.391 . S
C536 C538 1.394 . S
C536 H552 0.931 . S
C537 C536 1.391 . S
C537 C541 1.376 1_545 S
C538 C536 1.394 . S
C538 C539 1.369 1_545 S
C538 C542 1.531 . S
C539 C538 1.369 1_565 S
C539 C540 1.410 . S
C539 C547 1.503 . S
C540 C539 1.410 . S
C540 C541 1.392 . S
C540 C543 1.511 . S
C541 C537 1.376 1_565 S
C541 C540 1.392 . S
C541 H553 0.929 . S
C542 C538 1.531 . S
C542 H554 0.960 . S
C542 H555 0.962 1_545 S
C542 H556 0.960 . S
C543 C540 1.511 . S
C543 H557 0.961 . S
C543 H558 0.961 . S
C543 H559 0.961 . S
C544 C545 1.370 . S
C544 C546 1.363 . S
C544 H560 0.931 . S
C545 C544 1.370 . S
C545 C549 1.408 . S
C546 C544 1.363 . S
C546 C547 1.370 . S
C546 C550 1.524 . S
C547 C539 1.503 . S
C547 C546 1.370 . S
C547 C548 1.403 . S
C548 C547 1.403 . S
C548 C549 1.404 . S
C548 C551 1.539 1_565 S
C549 C545 1.408 . S
C549 C548 1.404 . S
C549 H561 0.930 . S
C550 C546 1.524 . S
C550 H562 0.956 . S
C550 H563 0.961 . S
C550 H564 0.961 . S
C551 C548 1.539 1_545 S
C551 H565 0.958 . S
C551 H566 0.961 . S
C551 H567 0.960 . S
H552 C536 0.931 . S
H553 C541 0.929 . S
H554 C542 0.960 . S
H555 C542 0.962 1_565 S
H556 C542 0.960 . S
H557 C543 0.961 . S
H558 C543 0.961 . S
H559 C543 0.961 . S
H560 C544 0.931 . S
H561 C549 0.930 . S
H562 C550 0.956 . S
H563 C550 0.961 . S
H564 C550 0.961 . S
H565 C551 0.958 . S
H566 C551 0.961 . S
H567 C551 0.960 . S
C568 C569 1.391 . S
C568 C570 1.394 . S
C568 H584 0.931 . S
C569 C568 1.391 . S
C569 C573 1.376 . S
C570 C568 1.394 . S
C570 C571 1.369 . S
C570 C574 1.531 . S
C571 C570 1.369 . S
C571 C572 1.410 . S
C571 C579 1.503 . S
C572 C571 1.410 . S
C572 C573 1.392 . S
C572 C575 1.511 . S
C573 C569 1.376 . S
C573 C572 1.392 . S
C573 H585 0.929 . S
C574 C570 1.531 . S
C574 H586 0.960 . S
C574 H587 0.962 . S
C574 H588 0.960 . S
C575 C572 1.511 . S
C575 H589 0.961 . S
C575 H590 0.961 . S
C575 H591 0.961 . S
C576 C577 1.370 . S
C576 C578 1.363 . S
C576 H592 0.931 . S
C577 C576 1.370 . S
C577 C581 1.408 . S
C578 C576 1.363 . S
C578 C579 1.370 . S
C578 C582 1.524 . S
C579 C571 1.503 . S
C579 C578 1.370 . S
C579 C580 1.403 . S
C580 C579 1.403 . S
C580 C581 1.404 . S
C580 C583 1.539 . S
C581 C577 1.408 . S
C581 C580 1.404 . S
C581 H593 0.930 . S
C582 C578 1.524 . S
C582 H594 0.956 . S
C582 H595 0.961 . S
C582 H596 0.961 . S
C583 C580 1.539 . S
C583 H597 0.958 . S
C583 H598 0.961 . S
C583 H599 0.960 . S
H584 C568 0.931 . S
H585 C573 0.929 . S
H586 C574 0.960 . S
H587 C574 0.962 . S
H588 C574 0.960 . S
H589 C575 0.961 . S
H590 C575 0.961 . S
H591 C575 0.961 . S
H592 C576 0.931 . S
H593 C581 0.930 . S
H594 C582 0.956 . S
H595 C582 0.961 . S
H596 C582 0.961 . S
H597 C583 0.958 . S
H598 C583 0.961 . S
H599 C583 0.960 . S
C600 C601 1.391 . S
C600 C602 1.394 . S
C600 H616 0.931 . S
C601 C600 1.391 . S
C601 C605 1.376 . S
C602 C600 1.394 . S
C602 C603 1.369 . S
C602 C606 1.531 . S
C603 C602 1.369 . S
C603 C604 1.410 . S
C603 C611 1.503 . S
C604 C603 1.410 . S
C604 C605 1.392 . S
C604 C607 1.511 . S
C605 C601 1.376 . S
C605 C604 1.392 . S
C605 H617 0.929 . S
C606 C602 1.531 . S
C606 H618 0.960 . S
C606 H619 0.962 . S
C606 H620 0.960 . S
C607 C604 1.511 . S
C607 H621 0.961 . S
C607 H622 0.961 . S
C607 H623 0.961 . S
C608 C609 1.370 . S
C608 C610 1.363 . S
C608 H624 0.931 . S
C609 C608 1.370 . S
C609 C613 1.408 . S
C610 C608 1.363 . S
C610 C611 1.370 . S
C610 C614 1.524 . S
C611 C603 1.503 . S
C611 C610 1.370 . S
C611 C612 1.403 . S
C612 C611 1.403 . S
C612 C613 1.404 . S
C612 C615 1.539 . S
C613 C609 1.408 . S
C613 C612 1.404 . S
C613 H625 0.930 . S
C614 C610 1.524 . S
C614 H626 0.956 . S
C614 H627 0.961 . S
C614 H628 0.961 . S
C615 C612 1.539 . S
C615 H629 0.958 . S
C615 H630 0.961 . S
C615 H631 0.960 . S
H616 C600 0.931 . S
H617 C605 0.929 . S
H618 C606 0.960 . S
H619 C606 0.962 . S
H620 C606 0.960 . S
H621 C607 0.961 . S
H622 C607 0.961 . S
H623 C607 0.961 . S
H624 C608 0.931 . S
H625 C613 0.930 . S
H626 C614 0.956 . S
H627 C614 0.961 . S
H628 C614 0.961 . S
H629 C615 0.958 . S
H630 C615 0.961 . S
H631 C615 0.960 . S
C632 C633 1.391 1_455 S
C632 C634 1.394 . S
C632 H648 0.931 . S
C633 C632 1.391 1_655 S
C633 C637 1.376 . S
C634 C632 1.394 . S
C634 C635 1.369 . S
C634 C638 1.531 . S
C635 C634 1.369 . S
C635 C636 1.410 1_455 S
C635 C643 1.503 . S
C636 C635 1.410 1_655 S
C636 C637 1.392 . S
C636 C639 1.511 . S
C637 C633 1.376 . S
C637 C636 1.392 . S
C637 H649 0.929 . S
C638 C634 1.531 . S
C638 H650 0.960 . S
C638 H651 0.962 . S
C638 H652 0.960 . S
C639 C636 1.511 . S
C639 H653 0.961 . S
C639 H654 0.961 . S
C639 H655 0.961 . S
C640 C641 1.370 . S
C640 C642 1.363 . S
C640 H656 0.931 . S
C641 C640 1.370 . S
C641 C645 1.408 1_554 S
C642 C640 1.363 . S
C642 C643 1.370 . S
C642 C646 1.524 . S
C643 C635 1.503 . S
C643 C642 1.370 . S
C643 C644 1.403 . S
C644 C643 1.403 . S
C644 C645 1.404 1_554 S
C644 C647 1.539 1_554 S
C645 C641 1.408 1_556 S
C645 C644 1.404 1_556 S
C645 H657 0.930 . S
C646 C642 1.524 . S
C646 H658 0.956 . S
C646 H659 0.961 . S
C646 H660 0.961 . S
C647 C644 1.539 1_556 S
C647 H661 0.958 . S
C647 H662 0.961 1_455 S
C647 H663 0.960 1_456 S
H648 C632 0.931 . S
H649 C637 0.929 . S
H650 C638 0.960 . S
H651 C638 0.962 . S
H652 C638 0.960 . S
H653 C639 0.961 . S
H654 C639 0.961 . S
H655 C639 0.961 . S
H656 C640 0.931 . S
H657 C645 0.930 . S
H658 C646 0.956 . S
H659 C646 0.961 . S
H660 C646 0.961 . S
H661 C647 0.958 . S
H662 C647 0.961 1_655 S
H663 C647 0.960 1_654 S
C664 C665 1.398 . S
C664 C666 1.394 . S
C664 H680 0.931 . S
C665 C664 1.398 . S
C665 C669 1.372 1_545 S
C666 C664 1.394 . S
C666 C667 1.369 . S
C666 C670 1.531 . S
C667 C666 1.369 . S
C667 C668 1.410 1_545 S
C667 C675 1.503 . S
C668 C667 1.410 1_565 S
C668 C669 1.392 . S
C668 C671 1.511 . S
C669 C665 1.372 1_565 S
C669 C668 1.392 . S
C669 H681 0.929 . S
C670 C666 1.531 . S
C670 H682 0.960 . S
C670 H683 0.962 . S
C670 H684 0.960 . S
C671 C668 1.511 . S
C671 H685 0.961 . S
C671 H686 0.961 . S
C671 H687 0.961 . S
C672 C673 1.370 . S
C672 C674 1.363 . S
C672 H688 0.931 . S
C673 C672 1.370 . S
C673 C677 1.408 1_554 S
C674 C672 1.363 . S
C674 C675 1.370 . S
C674 C678 1.524 1_545 S
C675 C667 1.503 . S
C675 C674 1.370 . S
C675 C676 1.403 . S
C676 C675 1.403 . S
C676 C677 1.404 1_554 S
C676 C679 1.538 1_554 S
C677 C673 1.408 1_556 S
C677 C676 1.404 1_556 S
C677 H689 0.930 . S
C678 C674 1.524 1_565 S
C678 H690 0.956 1_565 S
C678 H691 0.961 . S
C678 H692 0.961 . S
C679 C676 1.538 1_556 S
C679 H693 0.957 1_556 S
C679 H694 0.965 . S
C679 H695 0.959 1_556 S
H680 C664 0.931 . S
H681 C669 0.929 . S
H682 C670 0.960 . S
H683 C670 0.962 . S
H684 C670 0.960 . S
H685 C671 0.961 . S
H686 C671 0.961 . S
H687 C671 0.961 . S
H688 C672 0.931 . S
H689 C677 0.930 . S
H690 C678 0.956 1_545 S
H691 C678 0.961 . S
H692 C678 0.961 . S
H693 C679 0.957 1_554 S
H694 C679 0.965 . S
H695 C679 0.959 1_554 S
C696 C697 1.391 . S
C696 C698 1.394 . S
C696 H712 0.931 . S
C697 C696 1.391 . S
C697 C701 1.376 . S
C698 C696 1.394 . S
C698 C699 1.369 . S
C698 C702 1.531 . S
C699 C698 1.369 . S
C699 C700 1.410 . S
C699 C707 1.503 . S
C700 C699 1.410 . S
C700 C701 1.392 . S
C700 C703 1.511 . S
C701 C697 1.376 . S
C701 C700 1.392 . S
C701 H713 0.929 . S
C702 C698 1.531 . S
C702 H714 0.960 . S
C702 H715 0.962 . S
C702 H716 0.960 . S
C703 C700 1.511 . S
C703 H717 0.961 . S
C703 H718 0.961 . S
C703 H719 0.961 . S
C704 C705 1.370 . S
C704 C706 1.363 . S
C704 H720 0.931 . S
C705 C704 1.370 . S
C705 C709 1.408 1_554 S
C706 C704 1.363 . S
C706 C707 1.370 . S
C706 C710 1.524 . S
C707 C699 1.503 . S
C707 C706 1.370 . S
C707 C708 1.403 . S
C708 C707 1.403 . S
C708 C709 1.404 1_554 S
C708 C711 1.539 1_554 S
C709 C705 1.408 1_556 S
C709 C708 1.404 1_556 S
C709 H721 0.930 . S
C710 C706 1.524 . S
C710 H722 0.956 . S
C710 H723 0.961 . S
C710 H724 0.961 . S
C711 C708 1.539 1_556 S
C711 H725 0.958 . S
C711 H726 0.961 . S
C711 H727 0.960 1_556 S
H712 C696 0.931 . S
H713 C701 0.929 . S
H714 C702 0.960 . S
H715 C702 0.962 . S
H716 C702 0.960 . S
H717 C703 0.961 . S
H718 C703 0.961 . S
H719 C703 0.961 . S
H720 C704 0.931 . S
H721 C709 0.930 . S
H722 C710 0.956 . S
H723 C710 0.961 . S
H724 C710 0.961 . S
H725 C711 0.958 . S
H726 C711 0.961 . S
H727 C711 0.960 1_554 S
C728 C729 1.391 . S
C728 C730 1.394 . S
C728 H744 0.931 . S
C729 C728 1.391 . S
C729 C733 1.376 . S
C730 C728 1.394 . S
C730 C731 1.369 . S
C730 C734 1.531 . S
C731 C730 1.369 . S
C731 C732 1.410 . S
C731 C739 1.503 . S
C732 C731 1.410 . S
C732 C733 1.392 . S
C732 C735 1.511 . S
C733 C729 1.376 . S
C733 C732 1.392 . S
C733 H745 0.929 . S
C734 C730 1.531 . S
C734 H746 0.960 . S
C734 H747 0.962 . S
C734 H748 0.960 . S
C735 C732 1.511 . S
C735 H749 0.961 . S
C735 H750 0.961 . S
C735 H751 0.961 . S
C736 C737 1.370 . S
C736 C738 1.363 . S
C736 H752 0.931 . S
C737 C736 1.370 . S
C737 C741 1.408 . S
C738 C736 1.363 . S
C738 C739 1.370 . S
C738 C742 1.524 . S
C739 C731 1.503 . S
C739 C738 1.370 . S
C739 C740 1.403 . S
C740 C739 1.403 . S
C740 C741 1.404 . S
C740 C743 1.539 . S
C741 C737 1.408 . S
C741 C740 1.404 . S
C741 H753 0.930 . S
C742 C738 1.524 . S
C742 H754 0.956 . S
C742 H755 0.961 . S
C742 H756 0.961 . S
C743 C740 1.539 . S
C743 H757 0.958 . S
C743 H758 0.961 . S
C743 H759 0.960 . S
H744 C728 0.931 . S
H745 C733 0.929 . S
H746 C734 0.960 . S
H747 C734 0.962 . S
H748 C734 0.960 . S
H749 C735 0.961 . S
H750 C735 0.961 . S
H751 C735 0.961 . S
H752 C736 0.931 . S
H753 C741 0.930 . S
H754 C742 0.956 . S
H755 C742 0.961 . S
H756 C742 0.961 . S
H757 C743 0.958 . S
H758 C743 0.961 . S
H759 C743 0.960 . S
C760 C761 1.391 . S
C760 C762 1.394 . S
C760 H776 0.931 . S
C761 C760 1.391 . S
C761 C765 1.376 1_455 S
C762 C760 1.394 . S
C762 C763 1.369 . S
C762 C766 1.531 . S
C763 C762 1.369 . S
C763 C764 1.410 1_455 S
C763 C771 1.503 . S
C764 C763 1.410 1_655 S
C764 C765 1.392 . S
C764 C767 1.511 . S
C765 C761 1.376 1_655 S
C765 C764 1.392 . S
C765 H777 0.929 . S
C766 C762 1.531 . S
C766 H778 0.960 . S
C766 H779 0.962 . S
C766 H780 0.960 . S
C767 C764 1.511 . S
C767 H781 0.961 . S
C767 H782 0.961 . S
C767 H783 0.961 . S
C768 C769 1.370 . S
C768 C770 1.363 . S
C768 H784 0.931 . S
C769 C768 1.370 . S
C769 C773 1.408 . S
C770 C768 1.363 . S
C770 C771 1.370 . S
C770 C774 1.524 . S
C771 C763 1.503 . S
C771 C770 1.370 . S
C771 C772 1.403 . S
C772 C771 1.403 . S
C772 C773 1.404 . S
C772 C775 1.539 . S
C773 C769 1.408 . S
C773 C772 1.404 . S
C773 H785 0.930 . S
C774 C770 1.524 . S
C774 H786 0.956 . S
C774 H787 0.961 1_455 S
C774 H788 0.961 . S
C775 C772 1.539 . S
C775 H789 0.958 1_556 S
C775 H790 0.961 1_456 S
C775 H791 0.960 1_455 S
H776 C760 0.931 . S
H777 C765 0.929 . S
H778 C766 0.960 . S
H779 C766 0.962 . S
H780 C766 0.960 . S
H781 C767 0.961 . S
H782 C767 0.961 . S
H783 C767 0.961 . S
H784 C768 0.931 . S
H785 C773 0.930 . S
H786 C774 0.956 . S
H787 C774 0.961 1_655 S
H788 C774 0.961 . S
H789 C775 0.958 1_554 S
H790 C775 0.961 1_654 S
H791 C775 0.960 1_655 S
C792 C793 1.391 . S
C792 C794 1.394 . S
C792 H808 0.931 . S
C793 C792 1.391 . S
C793 C797 1.376 1_545 S
C794 C792 1.394 . S
C794 C795 1.369 . S
C794 C798 1.531 . S
C795 C794 1.369 . S
C795 C796 1.410 1_545 S
C795 C803 1.503 . S
C796 C795 1.410 1_565 S
C796 C797 1.392 . S
C796 C799 1.511 . S
C797 C793 1.376 1_565 S
C797 C796 1.392 . S
C797 H809 0.929 . S
C798 C794 1.531 . S
C798 H810 0.960 . S
C798 H811 0.962 . S
C798 H812 0.960 . S
C799 C796 1.511 . S
C799 H813 0.961 . S
C799 H814 0.961 . S
C799 H815 0.961 1_556 S
C800 C801 1.370 1_565 S
C800 C802 1.363 . S
C800 H816 0.931 . S
C801 C800 1.370 1_545 S
C801 C805 1.408 . S
C802 C800 1.363 . S
C802 C803 1.370 1_565 S
C802 C806 1.524 . S
C803 C795 1.503 . S
C803 C802 1.370 1_545 S
C803 C804 1.403 . S
C804 C803 1.403 . S
C804 C805 1.404 . S
C804 C807 1.539 . S
C805 C801 1.408 . S
C805 C804 1.404 . S
C805 H817 0.930 . S
C806 C802 1.524 . S
C806 H818 0.956 . S
C806 H819 0.961 . S
C806 H820 0.961 . S
C807 C804 1.539 . S
C807 H821 0.958 . S
C807 H822 0.961 . S
C807 H823 0.960 . S
H808 C792 0.931 . S
H809 C797 0.929 . S
H810 C798 0.960 . S
H811 C798 0.962 . S
H812 C798 0.960 . S
H813 C799 0.961 . S
H814 C799 0.961 . S
H815 C799 0.961 1_554 S
H816 C800 0.931 . S
H817 C805 0.930 . S
H818 C806 0.956 . S
H819 C806 0.961 . S
H820 C806 0.961 . S
H821 C807 0.958 . S
H822 C807 0.961 . S
H823 C807 0.960 . S
C824 C825 1.391 . S
C824 C826 1.394 . S
C824 H840 0.931 . S
C825 C824 1.391 . S
C825 C829 1.376 . S
C826 C824 1.394 . S
C826 C827 1.369 . S
C826 C830 1.531 . S
C827 C826 1.369 . S
C827 C828 1.410 . S
C827 C835 1.503 . S
C828 C827 1.410 . S
C828 C829 1.392 . S
C828 C831 1.511 . S
C829 C825 1.376 . S
C829 C828 1.392 . S
C829 H841 0.929 . S
C830 C826 1.531 . S
C830 H842 0.960 . S
C830 H843 0.962 . S
C830 H844 0.960 . S
C831 C828 1.511 . S
C831 H845 0.961 . S
C831 H846 0.961 . S
C831 H847 0.961 . S
C832 C833 1.370 . S
C832 C834 1.363 . S
C832 H848 0.931 . S
C833 C832 1.370 . S
C833 C837 1.408 . S
C834 C832 1.363 . S
C834 C835 1.370 . S
C834 C838 1.524 . S
C835 C827 1.503 . S
C835 C834 1.370 . S
C835 C836 1.403 . S
C836 C835 1.403 . S
C836 C837 1.404 . S
C836 C839 1.539 . S
C837 C833 1.408 . S
C837 C836 1.404 . S
C837 H849 0.930 . S
C838 C834 1.524 . S
C838 H850 0.956 . S
C838 H851 0.961 . S
C838 H852 0.961 . S
C839 C836 1.539 . S
C839 H853 0.958 . S
C839 H854 0.961 . S
C839 H855 0.960 . S
H840 C824 0.931 . S
H841 C829 0.929 . S
H842 C830 0.960 . S
H843 C830 0.962 . S
H844 C830 0.960 . S
H845 C831 0.961 . S
H846 C831 0.961 . S
H847 C831 0.961 . S
H848 C832 0.931 . S
H849 C837 0.930 . S
H850 C838 0.956 . S
H851 C838 0.961 . S
H852 C838 0.961 . S
H853 C839 0.958 . S
H854 C839 0.961 . S
H855 C839 0.960 . S
C856 C857 1.391 . S
C856 C858 1.394 . S
C856 H872 0.931 . S
C857 C856 1.391 . S
C857 C861 1.376 . S
C858 C856 1.394 . S
C858 C859 1.369 . S
C858 C862 1.531 . S
C859 C858 1.369 . S
C859 C860 1.410 . S
C859 C867 1.503 . S
C860 C859 1.410 . S
C860 C861 1.392 . S
C860 C863 1.511 . S
C861 C857 1.376 . S
C861 C860 1.392 . S
C861 H873 0.929 . S
C862 C858 1.531 . S
C862 H874 0.960 . S
C862 H875 0.962 . S
C862 H876 0.960 . S
C863 C860 1.511 . S
C863 H877 0.961 . S
C863 H878 0.961 . S
C863 H879 0.961 . S
C864 C865 1.370 . S
C864 C866 1.363 . S
C864 H880 0.931 . S
C865 C864 1.370 . S
C865 C869 1.408 . S
C866 C864 1.363 . S
C866 C867 1.370 . S
C866 C870 1.524 . S
C867 C859 1.503 . S
C867 C866 1.370 . S
C867 C868 1.403 . S
C868 C867 1.403 . S
C868 C869 1.404 . S
C868 C871 1.539 . S
C869 C865 1.408 . S
C869 C868 1.404 . S
C869 H881 0.930 . S
C870 C866 1.524 . S
C870 H882 0.956 . S
C870 H883 0.961 . S
C870 H884 0.961 . S
C871 C868 1.539 . S
C871 H885 0.958 . S
C871 H886 0.961 . S
C871 H887 0.960 . S
H872 C856 0.931 . S
H873 C861 0.929 . S
H874 C862 0.960 . S
H875 C862 0.962 . S
H876 C862 0.960 . S
H877 C863 0.961 . S
H878 C863 0.961 . S
H879 C863 0.961 . S
H880 C864 0.931 . S
H881 C869 0.930 . S
H882 C870 0.956 . S
H883 C870 0.961 . S
H884 C870 0.961 . S
H885 C871 0.958 . S
H886 C871 0.961 . S
H887 C871 0.960 . S
C888 C889 1.391 1_455 S
C888 C890 1.394 . S
C888 H904 0.931 . S
C889 C888 1.391 1_655 S
C889 C893 1.376 . S
C890 C888 1.394 . S
C890 C891 1.369 1_455 S
C890 C894 1.531 . S
C891 C890 1.369 1_655 S
C891 C892 1.410 . S
C891 C899 1.503 . S
C892 C891 1.410 . S
C892 C893 1.392 . S
C892 C895 1.511 . S
C893 C889 1.376 . S
C893 C892 1.392 . S
C893 H905 0.929 . S
C894 C890 1.531 . S
C894 H906 0.960 . S
C894 H907 0.962 . S
C894 H908 0.960 . S
C895 C892 1.511 . S
C895 H909 0.961 . S
C895 H910 0.961 . S
C895 H911 0.961 . S
C896 C897 1.370 . S
C896 C898 1.363 . S
C896 H912 0.931 1_655 S
C897 C896 1.370 . S
C897 C901 1.408 . S
C898 C896 1.363 . S
C898 C899 1.370 . S
C898 C902 1.524 1_655 S
C899 C891 1.503 . S
C899 C898 1.370 . S
C899 C900 1.403 . S
C900 C899 1.403 . S
C900 C901 1.404 . S
C900 C903 1.539 . S
C901 C897 1.408 . S
C901 C900 1.404 . S
C901 H913 0.930 . S
C902 C898 1.524 1_455 S
C902 H914 0.956 . S
C902 H915 0.961 1_455 S
C902 H916 0.961 . S
C903 C900 1.539 . S
C903 H917 0.958 . S
C903 H918 0.961 . S
C903 H919 0.960 . S
H904 C888 0.931 . S
H905 C893 0.929 . S
H906 C894 0.960 . S
H907 C894 0.962 . S
H908 C894 0.960 . S
H909 C895 0.961 . S
H910 C895 0.961 . S
H911 C895 0.961 . S
H912 C896 0.931 1_455 S
H913 C901 0.930 . S
H914 C902 0.956 . S
H915 C902 0.961 1_655 S
H916 C902 0.961 . S
H917 C903 0.958 . S
H918 C903 0.961 . S
H919 C903 0.960 . S
C920 C921 1.389 1_565 S
C920 C922 1.394 . S
C920 H936 0.931 . S
C921 C920 1.389 1_545 S
C921 C925 1.378 . S
C922 C920 1.394 . S
C922 C923 1.367 1_565 S
C922 C926 1.531 . S
C923 C922 1.367 1_545 S
C923 C924 1.411 . S
C923 C931 1.502 1_545 S
C924 C923 1.411 . S
C924 C925 1.392 . S
C924 C927 1.511 . S
C925 C921 1.378 . S
C925 C924 1.392 . S
C925 H937 0.929 . S
C926 C922 1.531 . S
C926 H938 0.961 1_565 S
C926 H939 0.962 . S
C926 H940 0.960 . S
C927 C924 1.511 . S
C927 H941 0.961 . S
C927 H942 0.961 . S
C927 H943 0.961 . S
C928 C929 1.370 . S
C928 C930 1.363 . S
C928 H944 0.931 . S
C929 C928 1.370 . S
C929 C933 1.408 1_565 S
C930 C928 1.363 . S
C930 C931 1.370 . S
C930 C934 1.524 . S
C931 C923 1.502 1_565 S
C931 C930 1.370 . S
C931 C932 1.403 1_565 S
C932 C931 1.403 1_545 S
C932 C933 1.404 . S
C932 C935 1.539 . S
C933 C929 1.408 1_545 S
C933 C932 1.404 . S
C933 H945 0.930 . S
C934 C930 1.524 . S
C934 H946 0.956 . S
C934 H947 0.961 . S
C934 H948 0.961 . S
C935 C932 1.539 . S
C935 H949 0.958 . S
C935 H950 0.961 . S
C935 H951 0.960 . S
H936 C920 0.931 . S
H937 C925 0.929 . S
H938 C926 0.961 1_545 S
H939 C926 0.962 . S
H940 C926 0.960 . S
H941 C927 0.961 . S
H942 C927 0.961 . S
H943 C927 0.961 . S
H944 C928 0.931 . S
H945 C933 0.930 . S
H946 C934 0.956 . S
H947 C934 0.961 . S
H948 C934 0.961 . S
H949 C935 0.958 . S
H950 C935 0.961 . S
H951 C935 0.960 . S
C952 C953 1.391 . S
C952 C954 1.394 . S
C952 H968 0.931 . S
C953 C952 1.391 . S
C953 C957 1.376 . S
C954 C952 1.394 . S
C954 C955 1.369 . S
C954 C958 1.531 . S
C955 C954 1.369 . S
C955 C956 1.410 . S
C955 C963 1.503 . S
C956 C955 1.410 . S
C956 C957 1.392 . S
C956 C959 1.511 . S
C957 C953 1.376 . S
C957 C956 1.392 . S
C957 H969 0.929 . S
C958 C954 1.531 . S
C958 H970 0.960 . S
C958 H971 0.962 . S
C958 H972 0.960 . S
C959 C956 1.511 . S
C959 H973 0.961 . S
C959 H974 0.961 . S
C959 H975 0.961 . S
C960 C961 1.370 . S
C960 C962 1.363 . S
C960 H976 0.931 . S
C961 C960 1.370 . S
C961 C965 1.408 . S
C962 C960 1.363 . S
C962 C963 1.370 . S
C962 C966 1.524 . S
C963 C955 1.503 . S
C963 C962 1.370 . S
C963 C964 1.403 . S
C964 C963 1.403 . S
C964 C965 1.404 . S
C964 C967 1.539 . S
C965 C961 1.408 . S
C965 C964 1.404 . S
C965 H977 0.930 . S
C966 C962 1.524 . S
C966 H978 0.956 . S
C966 H979 0.961 . S
C966 H980 0.961 . S
C967 C964 1.539 . S
C967 H981 0.958 . S
C967 H982 0.961 . S
C967 H983 0.960 . S
H968 C952 0.931 . S
H969 C957 0.929 . S
H970 C958 0.960 . S
H971 C958 0.962 . S
H972 C958 0.960 . S
H973 C959 0.961 . S
H974 C959 0.961 . S
H975 C959 0.961 . S
H976 C960 0.931 . S
H977 C965 0.930 . S
H978 C966 0.956 . S
H979 C966 0.961 . S
H980 C966 0.961 . S
H981 C967 0.958 . S
H982 C967 0.961 . S
H983 C967 0.960 . S
C984 C985 1.391 . S
C984 C986 1.394 . S
C984 H1000 0.931 . S
C985 C984 1.391 . S
C985 C989 1.376 . S
C986 C984 1.394 . S
C986 C987 1.369 . S
C986 C990 1.531 . S
C987 C986 1.369 . S
C987 C988 1.410 . S
C987 C995 1.503 . S
C988 C987 1.410 . S
C988 C989 1.392 . S
C988 C991 1.511 . S
C989 C985 1.376 . S
C989 C988 1.392 . S
C989 H1001 0.929 . S
C990 C986 1.531 . S
C990 H1002 0.960 . S
C990 H1003 0.962 . S
C990 H1004 0.960 . S
C991 C988 1.511 . S
C991 H1005 0.961 . S
C991 H1006 0.961 . S
C991 H1007 0.961 . S
C992 C993 1.370 . S
C992 C994 1.363 . S
C992 H1008 0.931 . S
C993 C992 1.370 . S
C993 C997 1.408 . S
C994 C992 1.363 . S
C994 C995 1.370 . S
C994 C998 1.524 . S
C995 C987 1.503 . S
C995 C994 1.370 . S
C995 C996 1.403 . S
C996 C995 1.403 . S
C996 C997 1.404 . S
C996 C999 1.539 . S
C997 C993 1.408 . S
C997 C996 1.404 . S
C997 H1009 0.930 . S
C998 C994 1.524 . S
C998 H1010 0.956 . S
C998 H1011 0.961 . S
C998 H1012 0.961 . S
C999 C996 1.539 . S
C999 H1013 0.958 . S
C999 H1014 0.961 . S
C999 H1015 0.960 . S
H1000 C984 0.931 . S
H1001 C989 0.929 . S
H1002 C990 0.960 . S
H1003 C990 0.962 . S
H1004 C990 0.960 . S
H1005 C991 0.961 . S
H1006 C991 0.961 . S
H1007 C991 0.961 . S
H1008 C992 0.931 . S
H1009 C997 0.930 . S
H1010 C998 0.956 . S
H1011 C998 0.961 . S
H1012 C998 0.961 . S
H1013 C999 0.958 . S
H1014 C999 0.961 . S
H1015 C999 0.960 . S
C249 C74 1.784 1_565 S
C257 C97 1.862 1_545 S
C289 C137 1.875 . S
C281 C85 1.736 . S
C321 C177 1.881 . S
C313 C52 1.771 . S
C353 C217 1.873 1_455 S
C345 C63 1.774 . S
C385 C106 1.872 1_565 S
C377 C30 1.759 1_565 S
C409 C41 1.745 . S
C417 C146 1.873 . S
C441 C8 1.770 . S
C449 C186 1.877 . S
C473 C19 1.805 1_655 S
C481 C226 1.877 1_655 S
C513 C103 0.602 . S
C505 C62 0.601 . S
C545 C143 0.578 . S
C537 C73 0.566 . S
C577 C183 0.574 . S
C569 C84 0.585 . S
C601 C51 0.594 . S
C609 C223 0.618 . S
C633 C18 0.632 1_655 S
C641 C94 0.585 . S
C673 C134 0.609 . S
C665 C29 0.559 . S
C705 C174 0.606 . S
C697 C40 0.573 . S
C729 C7 0.538 . S
C737 C214 0.627 . S
C761 C60 1.677 . S
C769 C107 2.233 . S
C793 C71 1.646 . S
C801 C147 2.236 . S
C833 C187 2.222 . S
C825 C82 1.693 . S
C865 C227 2.239 . S
C857 C49 1.642 . S
C889 C16 1.767 1_655 S
C897 C98 2.250 . S
C929 C138 2.225 . S
C921 C27 1.738 . S
C961 C178 2.221 . S
C953 C38 1.765 . S
C985 C5 1.777 . S
C993 C218 2.244 . S
