# Generated by pormake.
# Topology tsx, (6,3)-cn, num edge types: 1
# Building blocks:
#     Node 0, Type 0, BuildingBlock: MIDCAF_clean_sbu_0, # of connection points: 6
#     Node 1, Type 0, BuildingBlock: MIDCAF_clean_sbu_0, # of connection points: 6
#     Node 2, Type 1, BuildingBlock: OLANEW_clean_sbu_2, # of connection points: 3
#     Node 3, Type 1, BuildingBlock: OLANEW_clean_sbu_2, # of connection points: 3
#     Node 4, Type 1, BuildingBlock: OLANEW_clean_sbu_2, # of connection points: 3
#     Node 5, Type 1, BuildingBlock: OLANEW_clean_sbu_2, # of connection points: 3
#     Edge 6, Type (0, 1), BuildingBlock: XUDNAN_clean_linker_2, # of connection points: 2
#     Edge 7, Type (0, 1), BuildingBlock: XUDNAN_clean_linker_2, # of connection points: 2
#     Edge 8, Type (0, 1), BuildingBlock: XUDNAN_clean_linker_2, # of connection points: 2
#     Edge 9, Type (0, 1), BuildingBlock: XUDNAN_clean_linker_2, # of connection points: 2
#     Edge 10, Type (0, 1), BuildingBlock: XUDNAN_clean_linker_2, # of connection points: 2
#     Edge 11, Type (0, 1), BuildingBlock: XUDNAN_clean_linker_2, # of connection points: 2
#     Edge 12, Type (0, 1), BuildingBlock: XUDNAN_clean_linker_2, # of connection points: 2
#     Edge 13, Type (0, 1), BuildingBlock: XUDNAN_clean_linker_2, # of connection points: 2
#     Edge 14, Type (0, 1), BuildingBlock: XUDNAN_clean_linker_2, # of connection points: 2
#     Edge 15, Type (0, 1), BuildingBlock: XUDNAN_clean_linker_2, # of connection points: 2
#     Edge 16, Type (0, 1), BuildingBlock: XUDNAN_clean_linker_2, # of connection points: 2
#     Edge 17, Type (0, 1), BuildingBlock: XUDNAN_clean_linker_2, # of connection points: 2
# Relax obj value: 0.070
# Max RMSD: 0.154
# Mean RMSD: 0.098
data_MOF--net-tsx--node1-MIDCAF_clean_sbu_0--node2-OLANEW_clean_sbu_2--edge1-XUDNAN_clean_linker_2
_symmetry_space_group_name_H-M    P1
_symmetry_Int_Tables_number       1
_symmetry_cell_setting            triclinic
loop_
_symmetry_equiv_pos_as_xyz
'x, y, z'
_cell_length_a     21.866308
_cell_length_b     22.518067
_cell_length_c     36.65636
_cell_angle_alpha  96.303146
_cell_angle_beta   94.581832
_cell_angle_gamma 89.908605
loop_
_atom_site_label
_atom_site_type_symbol
_atom_site_fract_x
_atom_site_fract_y
_atom_site_fract_z
_atom_type_partial_charge
Zn0 Zn 0.92831 0.01195 0.97415 0.0
Zn1 Zn 0.12324 0.06233 0.0652 0.0
Zn2 Zn 0.0315 0.0349 0.0168 0.0
C3 C 0.0735 0.16977 0.05205 0.0
C4 C 0.17185 0.00401 0.00237 0.0
O5 O 0.97274 0.96884 0.0395 0.0
O6 O 0.88894 0.95444 0.00143 0.0
C7 C 0.93131 0.13416 0.99246 0.0
O8 O 0.03936 0.13388 0.02922 0.0
O9 O 0.11402 0.14954 0.07369 0.0
O10 O 0.18787 0.03088 0.03373 0.0
O11 O 0.1146 0.00074 0.99068 0.0
O12 O 0.89553 0.0938 0.97656 0.0
O13 O 0.984 0.12045 0.00763 0.0
O14 O 0.06249 0.99373 0.96477 0.0
O15 O 0.97355 0.97932 0.93137 0.0
C16 C 0.03136 0.97567 0.93433 0.0
O17 O 0.0192 0.98883 0.06668 0.0
O18 O 0.1021 0.01371 0.1037 0.0
C19 C 0.92073 0.94223 0.02982 0.0
C20 C 0.05195 0.9855 0.09726 0.0
Zn21 Zn 0.64579 0.51366 0.52378 0.0
Zn22 Zn 0.43448 0.48793 0.44625 0.0
Zn23 Zn 0.54121 0.50371 0.487 0.0
C24 C 0.52686 0.44735 0.40144 0.0
C25 C 0.44963 0.61103 0.4675 0.0
O26 O 0.53073 0.46799 0.54001 0.0
O27 O 0.61829 0.49556 0.57153 0.0
C28 C 0.66549 0.43215 0.46552 0.0
O29 O 0.56028 0.46075 0.43186 0.0
O30 O 0.46944 0.45418 0.40038 0.0
O31 O 0.41195 0.57349 0.45029 0.0
O32 O 0.50114 0.59376 0.48238 0.0
O33 O 0.69196 0.45175 0.49628 0.0
O34 O 0.61095 0.45019 0.45613 0.0
O35 O 0.56241 0.60087 0.49665 0.0
O36 O 0.66089 0.5971 0.51532 0.0
C37 C 0.61485 0.62682 0.50521 0.0
O38 O 0.48088 0.44817 0.51521 0.0
O39 O 0.39644 0.43407 0.47762 0.0
C40 C 0.56538 0.4727 0.57033 0.0
C41 C 0.42738 0.42414 0.50689 0.0
O42 O 0.99694 0.91904 0.36755 0.0
Cd43 Cd 0.03262 0.96222 0.43009 0.0
O44 O 0.06842 0.975 0.3494 0.0
Cd45 Cd 0.05599 0.044 0.3946 0.0
O46 O 0.98896 0.11454 0.40557 0.0
C47 C 0.93807 0.10824 0.38607 0.0
O48 O 0.92934 0.06044 0.36221 0.0
C49 C 0.03005 0.93208 0.34254 0.0
C50 C 0.14387 0.91094 0.45316 0.0
O51 O 0.09364 0.89688 0.46591 0.0
O52 O 0.14197 0.94939 0.42984 0.0
O53 O 0.1018 0.01398 0.672 0.0
Cd54 Cd 0.08905 0.04061 0.6092 0.0
O55 O 0.04375 0.93387 0.65729 0.0
Cd56 Cd 0.00393 0.95556 0.60379 0.0
O57 O 0.92186 0.93672 0.5661 0.0
C58 C 0.86998 0.95524 0.57587 0.0
O59 O 0.86802 0.99052 0.60677 0.0
C60 C 0.07958 0.96576 0.68054 0.0
C61 C 0.17919 0.12237 0.59791 0.0
O62 O 0.12506 0.13982 0.60477 0.0
O63 O 0.19055 0.06635 0.59612 0.0
O64 O 0.57495 0.50323 0.84361 0.0
Cd65 Cd 0.59865 0.54681 0.90752 0.0
O66 O 0.47497 0.50077 0.84653 0.0
Cd67 Cd 0.48019 0.55682 0.89881 0.0
O68 O 0.45559 0.64545 0.92278 0.0
C69 C 0.4072 0.66653 0.90764 0.0
O70 O 0.37617 0.63341 0.88066 0.0
C71 C 0.52172 0.48872 0.82871 0.0
C72 C 0.69074 0.48094 0.94145 0.0
O73 O 0.63388 0.46795 0.94241 0.0
O74 O 0.70419 0.52603 0.92504 0.0
O75 O 0.61993 0.4614 0.12598 0.0
Cd76 Cd 0.61355 0.49179 0.06414 0.0
O77 O 0.52064 0.45152 0.1311 0.0
Cd78 Cd 0.4801 0.47218 0.07755 0.0
O79 O 0.38648 0.45971 0.05182 0.0
C80 C 0.34335 0.48371 0.06947 0.0
O81 O 0.35775 0.51992 0.09955 0.0
C82 C 0.57591 0.44922 0.14458 0.0
C83 C 0.69676 0.58561 0.06485 0.0
O84 O 0.63991 0.5957 0.06906 0.0
O85 O 0.71394 0.53116 0.05926 0.0
H86 H 0.12882 0.21643 -0.00035 0.0
H87 H 0.03537 0.26369 0.09801 0.0
H88 H 0.07648 0.3667 0.10224 0.0
H89 H 0.25889 0.27236 0.03215 0.0
H90 H 0.2845 0.30019 0.99163 0.0
H91 H 0.22948 0.24057 0.98684 0.0
H92 H 0.15344 0.30155 0.94823 0.0
H93 H 0.20893 0.3616 0.95229 0.0
H94 H 0.13257 0.37591 0.96618 0.0
H95 H 0.14824 0.45214 0.10573 0.0
H96 H 0.24506 0.50896 0.11024 0.0
H97 H 0.29856 0.40422 0.0116 0.0
C98 C 0.11388 0.24997 0.02051 0.0
C99 C 0.07725 0.23349 0.04768 0.0
C100 C 0.0615 0.27659 0.07622 0.0
C101 C 0.08482 0.33508 0.07876 0.0
C102 C 0.12432 0.34924 0.05276 0.0
C103 C 0.1382 0.30787 0.02381 0.0
C104 C 0.19176 0.32875 0.00455 0.0
C105 C 0.24419 0.28277 0.00382 0.0
C106 C 0.17039 0.34281 0.9655 0.0
C107 C 0.20975 0.38532 0.02928 0.0
C108 C 0.16866 0.39786 0.05587 0.0
C109 C 0.17977 0.44363 0.08448 0.0
C110 C 0.2352 0.47562 0.0869 0.0
C111 C 0.2796 0.46082 0.06133 0.0
C112 C 0.26526 0.41693 0.03131 0.0
H113 H 0.15587 0.91319 0.94569 0.0
H114 H 0.29582 0.01669 0.01551 0.0
H115 H 0.37445 0.94655 0.99337 0.0
H116 H 0.20344 0.77778 0.95839 0.0
H117 H 0.19061 0.74209 0.91192 0.0
H118 H 0.14652 0.80643 0.92658 0.0
H119 H 0.18241 0.86342 0.87411 0.0
H120 H 0.22316 0.7973 0.85795 0.0
H121 H 0.2628 0.86814 0.86772 0.0
H122 H 0.4334 0.85538 0.97389 0.0
H123 H 0.47097 0.75524 0.95199 0.0
H124 H 0.29451 0.71414 0.89161 0.0
C125 C 0.20328 0.92306 0.95477 0.0
C126 C 0.21942 0.97073 0.98213 0.0
C127 C 0.28212 0.98047 0.99452 0.0
C128 C 0.32732 0.94095 0.98204 0.0
C129 C 0.30943 0.8927 0.95642 0.0
C130 C 0.24924 0.88459 0.94201 0.0
C131 C 0.24158 0.82674 0.91676 0.0
C132 C 0.19267 0.78588 0.9292 0.0
C133 C 0.22664 0.8396 0.87673 0.0
C134 C 0.3054 0.80129 0.92189 0.0
C135 C 0.34422 0.84053 0.94429 0.0
C136 C 0.40398 0.8249 0.95547 0.0
C137 C 0.42474 0.76778 0.94317 0.0
C138 C 0.38578 0.72712 0.91995 0.0
C139 C 0.32564 0.74456 0.90893 0.0
H140 H 0.80382 0.91447 0.04174 0.0
H141 H 0.99168 0.85499 0.05722 0.0
H142 H 0.95478 0.75868 0.07427 0.0
H143 H 0.74357 0.83411 0.11733 0.0
H144 H 0.6715 0.81855 0.09055 0.0
H145 H 0.7136 0.88591 0.08635 0.0
H146 H 0.71171 0.85677 0.01591 0.0
H147 H 0.6709 0.78887 0.01985 0.0
H148 H 0.74262 0.78581 -0.00133 0.0
H149 H 0.8965 0.66298 0.07719 0.0
H150 H 0.82203 0.57975 0.07428 0.0
H151 H 0.67222 0.70359 0.05943 0.0
C152 C 0.83714 0.88192 0.05008 0.0
C153 C 0.90047 0.89204 0.04859 0.0
C154 C 0.94298 0.8483 0.05892 0.0
C155 C 0.92239 0.79343 0.06841 0.0
C156 C 0.85929 0.78373 0.06798 0.0
C157 C 0.81735 0.82744 0.06003 0.0
C158 C 0.75207 0.80465 0.0589 0.0
C159 C 0.71819 0.83776 0.09015 0.0
C160 C 0.71734 0.8093 0.02109 0.0
C161 C 0.76373 0.74031 0.06538 0.0
C162 C 0.82581 0.72911 0.07079 0.0
C163 C 0.84777 0.67159 0.07397 0.0
C164 C 0.80517 0.62454 0.07197 0.0
C165 C 0.74137 0.63535 0.06695 0.0
C166 C 0.72065 0.69412 0.0639 0.0
H167 H 0.81664 0.17475 0.00185 0.0
H168 H 0.99835 0.23266 0.98182 0.0
H169 H 0.95909 0.33468 0.97561 0.0
H170 H 0.73918 0.24656 0.93522 0.0
H171 H 0.67305 0.26598 0.9603 0.0
H172 H 0.71785 0.20189 0.97017 0.0
H173 H 0.73427 0.24465 0.03887 0.0
H174 H 0.68906 0.30895 0.02924 0.0
H175 H 0.76587 0.31877 0.05089 0.0
H176 H 0.89574 0.42554 0.96238 0.0
H177 H 0.81569 0.49656 0.94398 0.0
H178 H 0.67539 0.37731 0.97212 0.0
C179 C 0.84844 0.20946 0.99718 0.0
C180 C 0.9109 0.19667 0.99338 0.0
C181 C 0.95102 0.24252 0.98643 0.0
C182 C 0.92884 0.3003 0.98248 0.0
C183 C 0.86647 0.3112 0.9857 0.0
C184 C 0.82701 0.267 0.99323 0.0
C185 C 0.76117 0.28783 0.99184 0.0
C186 C 0.72047 0.24823 0.96264 0.0
C187 C 0.73613 0.2902 0.02999 0.0
C188 C 0.7691 0.34984 0.98073 0.0
C189 C 0.83016 0.36301 0.97783 0.0
C190 C 0.84795 0.41607 0.9652 0.0
C191 C 0.80213 0.45607 0.95472 0.0
C192 C 0.73926 0.44256 0.95669 0.0
C193 C 0.723 0.38931 0.97066 0.0
H194 H 0.70351 0.67606 0.47204 0.0
H195 H 0.55162 0.7203 0.53831 0.0
H196 H 0.5909 0.82412 0.55216 0.0
H197 H 0.81019 0.73775 0.52957 0.0
H198 H 0.85857 0.7661 0.49775 0.0
H199 H 0.80856 0.70391 0.48256 0.0
H200 H 0.75765 0.76052 0.43044 0.0
H201 H 0.80858 0.82305 0.44506 0.0
H202 H 0.72673 0.834 0.44136 0.0
H203 H 0.66115 0.91151 0.57219 0.0
H204 H 0.75193 0.97373 0.59484 0.0
H205 H 0.85917 0.87195 0.51559 0.0
C206 C 0.67683 0.70878 0.48773 0.0
C207 C 0.62414 0.69107 0.5036 0.0
C208 C 0.59103 0.73381 0.52506 0.0
C209 C 0.61336 0.79274 0.53317 0.0
C210 C 0.66814 0.80794 0.51906 0.0
C211 C 0.69867 0.76729 0.496 0.0
C212 C 0.76143 0.79033 0.48945 0.0
C213 C 0.81261 0.74698 0.50054 0.0
C214 C 0.7637 0.80273 0.44918 0.0
C215 C 0.76398 0.84786 0.51498 0.0
C216 C 0.70914 0.85836 0.53094 0.0
C217 C 0.70356 0.90467 0.55903 0.0
C218 C 0.75558 0.93972 0.57184 0.0
C219 C 0.81276 0.92772 0.55697 0.0
C220 C 0.81599 0.88278 0.52718 0.0
H221 H 0.7878 0.4101 0.46847 0.0
H222 H 0.61416 0.34622 0.4126 0.0
H223 H 0.66719 0.26036 0.38127 0.0
H224 H 0.88749 0.35878 0.39441 0.0
H225 H 0.94772 0.33804 0.427 0.0
H226 H 0.89754 0.39906 0.4398 0.0
H227 H 0.87002 0.34746 0.49621 0.0
H228 H 0.91935 0.286 0.4834 0.0
H229 H 0.83973 0.27228 0.48927 0.0
H230 H 0.73821 0.1758 0.36149 0.0
H231 H 0.82021 0.10086 0.35431 0.0
H232 H 0.94569 0.21864 0.42621 0.0
C233 C 0.76102 0.37889 0.44894 0.0
C234 C 0.69696 0.38561 0.44233 0.0
C235 C 0.66349 0.34311 0.41716 0.0
C236 C 0.69323 0.29389 0.39951 0.0
C237 C 0.75629 0.28782 0.40755 0.0
C238 C 0.78976 0.32946 0.43156 0.0
C239 C 0.85575 0.3104 0.43823 0.0
C240 C 0.89972 0.35417 0.424 0.0
C241 C 0.87212 0.30362 0.4792 0.0
C242 C 0.85401 0.25057 0.41503 0.0
C243 C 0.79653 0.23863 0.39713 0.0
C244 C 0.78349 0.18502 0.3751 0.0
C245 C 0.83037 0.14266 0.37129 0.0
C246 C 0.8894 0.15382 0.38976 0.0
C247 C 0.90113 0.20871 0.41174 0.0
H248 H 0.30775 0.40732 0.51876 0.0
H249 H 0.49139 0.34379 0.5455 0.0
H250 H 0.44808 0.26307 0.57659 0.0
H251 H 0.24364 0.37248 0.60527 0.0
H252 H 0.17023 0.35138 0.58149 0.0
H253 H 0.21649 0.40758 0.56519 0.0
H254 H 0.21181 0.34661 0.5008 0.0
H255 H 0.1662 0.28998 0.51692 0.0
H256 H 0.23698 0.27004 0.49678 0.0
H257 H 0.38357 0.18089 0.59591 0.0
H258 H 0.30349 0.10994 0.60838 0.0
H259 H 0.16247 0.23111 0.57239 0.0
C260 C 0.33883 0.37712 0.53187 0.0
C261 C 0.4028 0.38165 0.52995 0.0
C262 C 0.44223 0.3413 0.54712 0.0
C263 C 0.41803 0.29531 0.5647 0.0
C264 C 0.35447 0.29108 0.56527 0.0
C265 C 0.31551 0.33169 0.54995 0.0
C266 C 0.24892 0.31607 0.55289 0.0
C267 C 0.21801 0.36477 0.57769 0.0
C268 C 0.21397 0.30501 0.51457 0.0
C269 C 0.25632 0.25896 0.57092 0.0
C270 C 0.31752 0.24522 0.57786 0.0
C271 C 0.33556 0.19189 0.59142 0.0
C272 C 0.28984 0.15175 0.59819 0.0
C273 C 0.22697 0.16552 0.59174 0.0
C274 C 0.21021 0.22008 0.57829 0.0
H275 H 0.40738 0.68013 0.41512 0.0
H276 H 0.43997 0.67823 0.53294 0.0
H277 H 0.37435 0.76729 0.54293 0.0
H278 H 0.39579 0.85136 0.41729 0.0
H279 H 0.33724 0.84326 0.37954 0.0
H280 H 0.39743 0.7887 0.38226 0.0
H281 H 0.31529 0.7051 0.37835 0.0
H282 H 0.25497 0.75911 0.37653 0.0
H283 H 0.2589 0.70914 0.41183 0.0
H284 H 0.28443 0.83685 0.53922 0.0
H285 H 0.1913 0.89397 0.52234 0.0
H286 H 0.22402 0.858 0.40711 0.0
C287 C 0.40327 0.70067 0.44295 0.0
C288 C 0.42946 0.67346 0.47332 0.0
C289 C 0.42161 0.69971 0.50943 0.0
C290 C 0.384 0.74995 0.51528 0.0
C291 C 0.35597 0.77399 0.48467 0.0
C292 C 0.36697 0.75146 0.44915 0.0
C293 C 0.32723 0.7817 0.42095 0.0
C294 C 0.36679 0.81846 0.3987 0.0
C295 C 0.28672 0.73603 0.39545 0.0
C296 C 0.28922 0.82187 0.44602 0.0
C297 C 0.30647 0.81693 0.48271 0.0
C298 C 0.27212 0.84296 0.51069 0.0
C299 C 0.21914 0.87488 0.50092 0.0
C300 C 0.20175 0.88129 0.46358 0.0
C301 C 0.2378 0.85532 0.43593 0.0
H302 H 0.12533 0.93136 0.14587 0.0
H303 H 0.93437 0.96585 0.11532 0.0
H304 H 0.90524 0.92464 0.17134 0.0
H305 H 0.10144 0.79752 0.20041 0.0
H306 H 0.16277 0.82462 0.23385 0.0
H307 H 0.16616 0.83594 0.18609 0.0
H308 H 0.18012 0.94984 0.20468 0.0
H309 H 0.17679 0.9389 0.25209 0.0
H310 H 0.12409 0.98955 0.23137 0.0
H311 H 0.89971 0.90277 0.23655 0.0
H312 H 0.91859 0.91224 0.30436 0.0
H313 H 0.11396 0.89993 0.294 0.0
C314 C 0.07713 0.92794 0.15029 0.0
C315 C 0.03193 0.95045 0.12596 0.0
C316 C 0.96949 0.94686 0.13296 0.0
C317 C 0.95265 0.92362 0.16482 0.0
C318 C 0.99888 0.90433 0.18931 0.0
C319 C 0.06002 0.90604 0.18215 0.0
C320 C 0.10203 0.89458 0.21542 0.0
C321 C 0.13503 0.83458 0.20852 0.0
C322 C 0.14836 0.94631 0.22653 0.0
C323 C 0.05552 0.89159 0.24352 0.0
C324 C 0.99607 0.89431 0.22765 0.0
C325 C 0.94589 0.89902 0.24905 0.0
C326 C 0.95695 0.90411 0.28756 0.0
C327 C 0.01772 0.90618 0.30405 0.0
C328 C 0.06715 0.89721 0.28177 0.0
H329 H 0.10412 0.03832 0.89571 0.0
H330 H 0.0194 0.86535 0.89743 0.0
H331 H 0.04478 0.83611 0.83354 0.0
H332 H 0.04029 0.0625 0.8139 0.0
H333 H 0.10336 0.10048 0.79738 0.0
H334 H 0.09732 0.10155 0.84597 0.0
H335 H 0.2062 0.05713 0.85403 0.0
H336 H 0.21315 0.05643 0.80527 0.0
H337 H 0.22444 0.98867 0.8269 0.0
H338 H 0.0581 0.83342 0.76764 0.0
H339 H 0.05526 0.85785 0.70377 0.0
H340 H 0.12783 0.03481 0.74259 0.0
C341 C 0.09434 0.9932 0.88311 0.0
C342 C 0.06153 0.95325 0.90137 0.0
C343 C 0.04587 0.89573 0.88383 0.0
C344 C 0.06009 0.87889 0.84761 0.0
C345 C 0.08991 0.92026 0.82944 0.0
C346 C 0.10736 0.97619 0.84664 0.0
C347 C 0.12835 0.01595 0.81916 0.0
C348 C 0.09001 0.07345 0.81911 0.0
C349 C 0.19714 0.03038 0.82679 0.0
C350 C 0.11589 0.97512 0.78362 0.0
C351 C 0.09578 0.91949 0.79039 0.0
C352 C 0.07511 0.8763 0.76198 0.0
C353 C 0.07326 0.89078 0.72575 0.0
C354 C 0.09132 0.94826 0.71819 0.0
C355 C 0.11472 0.9902 0.74749 0.0
H356 H 0.63581 0.44454 0.63022 0.0
H357 H 0.44655 0.46583 0.58917 0.0
H358 H 0.41293 0.45014 0.65013 0.0
H359 H 0.60824 0.33749 0.69994 0.0
H360 H 0.66645 0.37411 0.73223 0.0
H361 H 0.67404 0.37102 0.68343 0.0
H362 H 0.68488 0.48638 0.68962 0.0
H363 H 0.67709 0.48987 0.73817 0.0
H364 H 0.62576 0.5318 0.70991 0.0
H365 H 0.40178 0.45024 0.71766 0.0
H366 H 0.41384 0.47097 0.78531 0.0
H367 H 0.61131 0.45509 0.78277 0.0
C368 C 0.58711 0.44394 0.63373 0.0
C369 C 0.54362 0.45473 0.60467 0.0
C370 C 0.48047 0.45527 0.61057 0.0
C371 C 0.46103 0.44674 0.64523 0.0
C372 C 0.5054 0.43797 0.67366 0.0
C373 C 0.56722 0.43633 0.66816 0.0
C374 C 0.60639 0.4354 0.70403 0.0
C375 C 0.6408 0.37595 0.70495 0.0
C376 C 0.65109 0.48906 0.71081 0.0
C377 C 0.55724 0.44045 0.73092 0.0
C378 C 0.49919 0.44006 0.71286 0.0
C379 C 0.44691 0.44943 0.73206 0.0
C380 C 0.45428 0.46126 0.77054 0.0
C381 C 0.5136 0.4647 0.78937 0.0
C382 C 0.56537 0.45222 0.76924 0.0
H383 H 0.46983 0.39408 0.33774 0.0
H384 H 0.64558 0.46636 0.38546 0.0
H385 H 0.68441 0.45692 0.32369 0.0
H386 H 0.52862 0.29374 0.25823 0.0
H387 H 0.46345 0.31171 0.22823 0.0
H388 H 0.45549 0.3091 0.27661 0.0
H389 H 0.41327 0.41704 0.28126 0.0
H390 H 0.42182 0.4204 0.23325 0.0
H391 H 0.45855 0.47598 0.26704 0.0
H392 H 0.69709 0.45765 0.25602 0.0
H393 H 0.68236 0.4686 0.18951 0.0
H394 H 0.49648 0.40018 0.18673 0.0
C395 C 0.51725 0.40587 0.3354 0.0
C396 C 0.55494 0.43013 0.36648 0.0
C397 C 0.61629 0.44631 0.36218 0.0
C398 C 0.63868 0.44126 0.32712 0.0
C399 C 0.59918 0.41981 0.29676 0.0
C400 C 0.53987 0.40175 0.3007 0.0
C401 C 0.50358 0.38851 0.26382 0.0
C402 C 0.48682 0.32179 0.25628 0.0
C403 C 0.44597 0.42785 0.26122 0.0
C404 C 0.55045 0.40536 0.23857 0.0
C405 C 0.60587 0.42176 0.25785 0.0
C406 C 0.65434 0.44369 0.24056 0.0
C407 C 0.6455 0.4499 0.20279 0.0
C408 C 0.58824 0.43529 0.18297 0.0
C409 C 0.54086 0.41149 0.20108 0.0
loop_
_geom_bond_atom_site_label_1
_geom_bond_atom_site_label_2
_geom_bond_distance
_geom_bond_site_symmetry_2
_ccdc_geom_bond_type
Zn0 O6 1.920 1_545 S
Zn0 O12 1.898 . S
Zn0 O15 1.905 1_545 S
Zn1 O9 1.905 . S
Zn1 O10 1.898 1_545 S
Zn1 O18 1.920 1_545 S
Zn2 O5 2.081 1_444 S
Zn2 O8 2.114 . S
Zn2 O11 2.120 1_544 S
Zn2 O13 2.121 1_455 S
Zn2 O14 2.099 1_554 S
Zn2 O17 2.095 . S
C3 O8 1.176 . S
C3 O9 1.182 . S
C4 O10 1.167 1_556 S
C4 O11 1.299 . S
O5 Zn2 2.081 1_666 S
O5 C19 1.309 . S
O6 Zn0 1.920 1_565 S
O6 C19 1.249 . S
C7 O12 1.167 . S
C7 O13 1.299 1_556 S
O8 Zn2 2.114 . S
O8 C3 1.176 . S
O9 Zn1 1.905 . S
O9 C3 1.182 . S
O10 Zn1 1.898 1_565 S
O10 C4 1.167 1_554 S
O11 Zn2 2.120 1_566 S
O11 C4 1.299 . S
O12 Zn0 1.898 . S
O12 C7 1.167 . S
O13 Zn2 2.121 1_655 S
O13 C7 1.299 1_554 S
O14 Zn2 2.099 1_556 S
O14 C16 1.166 1_445 S
O15 Zn0 1.905 1_565 S
O15 C16 1.182 . S
C16 O14 1.166 1_665 S
C16 O15 1.182 . S
O17 Zn2 2.095 . S
O17 C20 1.305 1_545 S
O18 Zn1 1.920 1_565 S
O18 C20 1.234 . S
C19 O5 1.309 . S
C19 O6 1.249 . S
C20 O17 1.305 1_565 S
C20 O18 1.234 . S
Zn21 O27 1.920 . S
Zn21 O33 1.898 . S
Zn21 O36 1.905 . S
Zn22 O30 1.905 . S
Zn22 O31 1.898 . S
Zn22 O39 1.920 . S
Zn23 O26 2.080 . S
Zn23 O29 2.114 . S
Zn23 O32 2.120 . S
Zn23 O34 2.120 . S
Zn23 O35 2.114 . S
Zn23 O38 2.080 . S
C24 O29 1.166 . S
C24 O30 1.182 . S
C25 O31 1.167 . S
C25 O32 1.299 . S
O26 Zn23 2.080 . S
O26 C40 1.305 . S
O27 Zn21 1.920 . S
O27 C40 1.234 . S
C28 O33 1.167 . S
C28 O34 1.299 . S
O29 Zn23 2.114 . S
O29 C24 1.166 . S
O30 Zn22 1.905 . S
O30 C24 1.182 . S
O31 Zn22 1.898 . S
O31 C25 1.167 . S
O32 Zn23 2.120 . S
O32 C25 1.299 . S
O33 Zn21 1.898 . S
O33 C28 1.167 . S
O34 Zn23 2.120 . S
O34 C28 1.299 . S
O35 Zn23 2.114 . S
O35 C37 1.166 . S
O36 Zn21 1.905 . S
O36 C37 1.182 . S
C37 O35 1.166 . S
C37 O36 1.182 . S
O38 Zn23 2.080 . S
O38 C41 1.305 . S
O39 Zn22 1.920 . S
O39 C41 1.234 . S
C40 O26 1.305 . S
C40 O27 1.234 . S
C41 O38 1.305 . S
C41 O39 1.234 . S
O42 Cd43 2.300 1_565 S
O42 C49 1.275 1_565 S
Cd43 O42 2.300 1_545 S
Cd43 O51 2.381 1_545 S
Cd43 O52 2.378 1_545 S
O44 Cd45 2.385 . S
O44 C49 1.255 . S
Cd45 O44 2.385 . S
Cd45 O46 2.317 . S
O46 Cd45 2.317 . S
O46 C47 1.232 1_455 S
C47 O46 1.232 1_655 S
C47 O48 1.218 . S
O48 C47 1.218 . S
C49 O42 1.275 1_545 S
C49 O44 1.255 . S
C50 O51 1.258 . S
C50 O52 1.256 . S
O51 Cd43 2.381 1_565 S
O51 C50 1.258 . S
O52 Cd43 2.378 1_565 S
O52 C50 1.256 . S
O53 Cd54 2.300 . S
O53 C60 1.275 . S
Cd54 O53 2.300 . S
Cd54 O62 2.381 . S
Cd54 O63 2.378 . S
O55 Cd56 2.385 . S
O55 C60 1.255 1_565 S
Cd56 O55 2.385 . S
Cd56 O57 2.317 1_455 S
O57 Cd56 2.317 1_655 S
O57 C58 1.232 . S
C58 O57 1.232 . S
C58 O59 1.218 . S
O59 C58 1.218 . S
C60 O53 1.275 . S
C60 O55 1.255 1_545 S
C61 O62 1.258 . S
C61 O63 1.256 . S
O62 Cd54 2.381 . S
O62 C61 1.258 . S
O63 Cd54 2.378 . S
O63 C61 1.256 . S
O64 Cd65 2.300 . S
O64 C71 1.275 . S
Cd65 O64 2.300 . S
Cd65 O73 2.381 . S
Cd65 O74 2.378 . S
O66 Cd67 2.385 . S
O66 C71 1.255 . S
Cd67 O66 2.385 . S
Cd67 O68 2.317 . S
O68 Cd67 2.317 . S
O68 C69 1.232 . S
C69 O68 1.232 . S
C69 O70 1.218 . S
O70 C69 1.218 . S
C71 O64 1.275 . S
C71 O66 1.255 . S
C72 O73 1.258 . S
C72 O74 1.256 . S
O73 Cd65 2.381 . S
O73 C72 1.258 . S
O74 Cd65 2.378 . S
O74 C72 1.256 . S
O75 Cd76 2.300 . S
O75 C82 1.275 . S
Cd76 O75 2.300 . S
Cd76 O84 2.381 . S
Cd76 O85 2.378 . S
O77 Cd78 2.385 . S
O77 C82 1.255 . S
Cd78 O77 2.385 . S
Cd78 O79 2.317 . S
O79 Cd78 2.317 . S
O79 C80 1.232 . S
C80 O79 1.232 . S
C80 O81 1.218 . S
O81 C80 1.218 . S
C82 O75 1.275 . S
C82 O77 1.255 . S
C83 O84 1.258 . S
C83 O85 1.256 . S
O84 Cd76 2.381 . S
O84 C83 1.258 . S
O85 Cd76 2.378 . S
O85 C83 1.256 . S
H86 C98 0.929 1_556 S
H87 C100 0.930 . S
H88 C101 0.930 . S
H89 C105 0.959 . S
H90 C105 0.959 . S
H91 C105 0.961 . S
H92 C106 0.960 . S
H93 C106 0.961 . S
H94 C106 0.959 . S
H95 C109 0.929 . S
H96 C110 0.931 . S
H97 C112 0.930 . S
C98 H86 0.929 1_554 S
C98 C99 1.400 . S
C98 C103 1.399 . S
C99 C98 1.400 . S
C99 C100 1.376 . S
C100 H87 0.930 . S
C100 C99 1.376 . S
C100 C101 1.388 . S
C101 H88 0.930 . S
C101 C100 1.388 . S
C101 C102 1.390 . S
C102 C101 1.390 . S
C102 C103 1.394 . S
C102 C108 1.465 . S
C103 C98 1.399 . S
C103 C102 1.394 . S
C103 C104 1.516 1_554 S
C104 C103 1.516 1_556 S
C104 C105 1.502 . S
C104 C106 1.561 . S
C104 C107 1.526 1_556 S
C105 H89 0.959 . S
C105 H90 0.959 . S
C105 H91 0.961 . S
C105 C104 1.502 . S
C106 H92 0.960 . S
C106 H93 0.961 . S
C106 H94 0.959 . S
C106 C104 1.561 . S
C107 C104 1.526 1_554 S
C107 C108 1.396 . S
C107 C112 1.390 . S
C108 C102 1.465 . S
C108 C107 1.396 . S
C108 C109 1.399 . S
C109 H95 0.929 . S
C109 C108 1.399 . S
C109 C110 1.385 . S
C110 H96 0.931 . S
C110 C109 1.385 . S
C110 C111 1.389 . S
C111 C110 1.389 . S
C111 C112 1.387 . S
C112 H97 0.930 . S
C112 C107 1.390 . S
C112 C111 1.387 . S
H113 C125 0.930 . S
H114 C127 0.930 . S
H115 C128 0.930 . S
H116 C132 0.959 . S
H117 C132 0.959 . S
H118 C132 0.961 . S
H119 C133 0.960 . S
H120 C133 0.961 . S
H121 C133 0.959 . S
H122 C136 0.929 1_554 S
H123 C137 0.931 . S
H124 C139 0.930 . S
C125 H113 0.930 . S
C125 C126 1.399 . S
C125 C130 1.399 . S
C126 C125 1.399 . S
C126 C127 1.376 1_556 S
C127 H114 0.930 . S
C127 C126 1.376 1_554 S
C127 C128 1.388 . S
C128 H115 0.930 . S
C128 C127 1.388 . S
C128 C129 1.390 1_554 S
C129 C128 1.390 1_556 S
C129 C130 1.394 . S
C129 C135 1.465 . S
C130 C125 1.399 . S
C130 C129 1.394 . S
C130 C131 1.516 . S
C131 C130 1.516 . S
C131 C132 1.502 . S
C131 C133 1.561 . S
C131 C134 1.526 . S
C132 H116 0.959 . S
C132 H117 0.959 . S
C132 H118 0.961 . S
C132 C131 1.502 . S
C133 H119 0.960 . S
C133 H120 0.961 . S
C133 H121 0.959 . S
C133 C131 1.561 . S
C134 C131 1.526 . S
C134 C135 1.396 . S
C134 C139 1.390 . S
C135 C129 1.465 . S
C135 C134 1.396 . S
C135 C136 1.399 . S
C136 H122 0.929 1_556 S
C136 C135 1.399 . S
C136 C137 1.385 . S
C137 H123 0.931 . S
C137 C136 1.385 . S
C137 C138 1.389 . S
C138 C137 1.389 . S
C138 C139 1.387 . S
C139 H124 0.930 . S
C139 C134 1.390 . S
C139 C138 1.387 . S
H140 C152 0.930 . S
H141 C154 0.930 . S
H142 C155 0.930 . S
H143 C159 0.959 . S
H144 C159 0.959 . S
H145 C159 0.961 . S
H146 C160 0.960 . S
H147 C160 0.961 . S
H148 C160 0.959 . S
H149 C163 0.929 . S
H150 C164 0.931 1_556 S
H151 C166 0.930 . S
C152 H140 0.930 . S
C152 C153 1.399 . S
C152 C157 1.399 . S
C153 C152 1.399 . S
C153 C154 1.376 1_554 S
C154 H141 0.930 . S
C154 C153 1.376 1_556 S
C154 C155 1.388 . S
C155 H142 0.930 . S
C155 C154 1.388 . S
C155 C156 1.390 1_556 S
C156 C155 1.390 1_554 S
C156 C157 1.394 . S
C156 C162 1.465 . S
C157 C152 1.399 . S
C157 C156 1.394 . S
C157 C158 1.516 . S
C158 C157 1.516 . S
C158 C159 1.502 . S
C158 C160 1.561 . S
C158 C161 1.526 . S
C159 H143 0.959 . S
C159 H144 0.959 . S
C159 H145 0.961 . S
C159 C158 1.502 . S
C160 H146 0.960 . S
C160 H147 0.961 . S
C160 H148 0.959 . S
C160 C158 1.561 . S
C161 C158 1.526 . S
C161 C162 1.396 . S
C161 C166 1.390 . S
C162 C156 1.465 . S
C162 C161 1.396 . S
C162 C163 1.399 1_554 S
C163 H149 0.929 . S
C163 C162 1.399 1_556 S
C163 C164 1.385 1_556 S
C164 H150 0.931 1_554 S
C164 C163 1.385 1_554 S
C164 C165 1.389 . S
C165 C164 1.389 . S
C165 C166 1.387 . S
C166 H151 0.930 . S
C166 C161 1.390 . S
C166 C165 1.387 . S
H167 C179 0.930 . S
H168 C181 0.930 . S
H169 C182 0.930 . S
H170 C186 0.959 . S
H171 C186 0.959 . S
H172 C186 0.961 . S
H173 C187 0.960 . S
H174 C187 0.961 . S
H175 C187 0.959 . S
H176 C190 0.929 . S
H177 C191 0.931 . S
H178 C193 0.930 1_554 S
C179 H167 0.930 . S
C179 C180 1.399 1_554 S
C179 C184 1.399 1_554 S
C180 C179 1.399 1_556 S
C180 C181 1.376 . S
C181 H168 0.930 . S
C181 C180 1.376 . S
C181 C182 1.388 . S
C182 H169 0.930 . S
C182 C181 1.388 . S
C182 C183 1.390 . S
C183 C182 1.390 . S
C183 C184 1.394 . S
C183 C189 1.465 . S
C184 C179 1.399 1_556 S
C184 C183 1.394 . S
C184 C185 1.516 1_556 S
C185 C184 1.516 1_554 S
C185 C186 1.502 . S
C185 C187 1.561 . S
C185 C188 1.526 1_554 S
C186 H170 0.959 . S
C186 H171 0.959 . S
C186 H172 0.961 . S
C186 C185 1.502 . S
C187 H173 0.960 . S
C187 H174 0.961 . S
C187 H175 0.959 . S
C187 C185 1.561 . S
C188 C185 1.526 1_556 S
C188 C189 1.396 . S
C188 C193 1.390 . S
C189 C183 1.465 . S
C189 C188 1.396 . S
C189 C190 1.399 . S
C190 H176 0.929 . S
C190 C189 1.399 . S
C190 C191 1.385 . S
C191 H177 0.931 . S
C191 C190 1.385 . S
C191 C192 1.389 . S
C192 C191 1.389 . S
C192 C193 1.387 . S
C193 H178 0.930 1_556 S
C193 C188 1.390 . S
C193 C192 1.387 . S
H194 C206 0.930 . S
H195 C208 0.930 . S
H196 C209 0.930 . S
H197 C213 0.959 . S
H198 C213 0.959 . S
H199 C213 0.961 . S
H200 C214 0.960 . S
H201 C214 0.961 . S
H202 C214 0.959 . S
H203 C217 0.929 . S
H204 C218 0.931 . S
H205 C220 0.930 . S
C206 H194 0.930 . S
C206 C207 1.399 . S
C206 C211 1.399 . S
C207 C206 1.399 . S
C207 C208 1.376 . S
C208 H195 0.930 . S
C208 C207 1.376 . S
C208 C209 1.388 . S
C209 H196 0.930 . S
C209 C208 1.388 . S
C209 C210 1.390 . S
C210 C209 1.390 . S
C210 C211 1.394 . S
C210 C216 1.465 . S
C211 C206 1.399 . S
C211 C210 1.394 . S
C211 C212 1.516 . S
C212 C211 1.516 . S
C212 C213 1.502 . S
C212 C214 1.561 . S
C212 C215 1.526 . S
C213 H197 0.959 . S
C213 H198 0.959 . S
C213 H199 0.961 . S
C213 C212 1.502 . S
C214 H200 0.960 . S
C214 H201 0.961 . S
C214 H202 0.959 . S
C214 C212 1.561 . S
C215 C212 1.526 . S
C215 C216 1.396 . S
C215 C220 1.390 . S
C216 C210 1.465 . S
C216 C215 1.396 . S
C216 C217 1.399 . S
C217 H203 0.929 . S
C217 C216 1.399 . S
C217 C218 1.385 . S
C218 H204 0.931 . S
C218 C217 1.385 . S
C218 C219 1.389 . S
C219 C218 1.389 . S
C219 C220 1.387 . S
C220 H205 0.930 . S
C220 C215 1.390 . S
C220 C219 1.387 . S
H221 C233 0.930 . S
H222 C235 0.930 . S
H223 C236 0.930 . S
H224 C240 0.959 . S
H225 C240 0.959 . S
H226 C240 0.961 . S
H227 C241 0.960 . S
H228 C241 0.961 . S
H229 C241 0.959 . S
H230 C244 0.929 . S
H231 C245 0.931 . S
H232 C247 0.930 . S
C233 H221 0.930 . S
C233 C234 1.399 . S
C233 C238 1.399 . S
C234 C233 1.399 . S
C234 C235 1.376 . S
C235 H222 0.930 . S
C235 C234 1.376 . S
C235 C236 1.388 . S
C236 H223 0.930 . S
C236 C235 1.388 . S
C236 C237 1.390 . S
C237 C236 1.390 . S
C237 C238 1.394 . S
C237 C243 1.465 . S
C238 C233 1.399 . S
C238 C237 1.394 . S
C238 C239 1.516 . S
C239 C238 1.516 . S
C239 C240 1.502 . S
C239 C241 1.561 . S
C239 C242 1.526 . S
C240 H224 0.959 . S
C240 H225 0.959 . S
C240 H226 0.961 . S
C240 C239 1.502 . S
C241 H227 0.960 . S
C241 H228 0.961 . S
C241 H229 0.959 . S
C241 C239 1.561 . S
C242 C239 1.526 . S
C242 C243 1.396 . S
C242 C247 1.390 . S
C243 C237 1.465 . S
C243 C242 1.396 . S
C243 C244 1.399 . S
C244 H230 0.929 . S
C244 C243 1.399 . S
C244 C245 1.385 . S
C245 H231 0.931 . S
C245 C244 1.385 . S
C245 C246 1.389 . S
C246 C245 1.389 . S
C246 C247 1.387 . S
C247 H232 0.930 . S
C247 C242 1.390 . S
C247 C246 1.387 . S
H248 C260 0.930 . S
H249 C262 0.930 . S
H250 C263 0.930 . S
H251 C267 0.959 . S
H252 C267 0.959 . S
H253 C267 0.961 . S
H254 C268 0.960 . S
H255 C268 0.961 . S
H256 C268 0.959 . S
H257 C271 0.929 . S
H258 C272 0.931 . S
H259 C274 0.930 . S
C260 H248 0.930 . S
C260 C261 1.399 . S
C260 C265 1.399 . S
C261 C260 1.399 . S
C261 C262 1.376 . S
C262 H249 0.930 . S
C262 C261 1.376 . S
C262 C263 1.388 . S
C263 H250 0.930 . S
C263 C262 1.388 . S
C263 C264 1.390 . S
C264 C263 1.390 . S
C264 C265 1.394 . S
C264 C270 1.465 . S
C265 C260 1.399 . S
C265 C264 1.394 . S
C265 C266 1.516 . S
C266 C265 1.516 . S
C266 C267 1.502 . S
C266 C268 1.561 . S
C266 C269 1.526 . S
C267 H251 0.959 . S
C267 H252 0.959 . S
C267 H253 0.961 . S
C267 C266 1.502 . S
C268 H254 0.960 . S
C268 H255 0.961 . S
C268 H256 0.959 . S
C268 C266 1.561 . S
C269 C266 1.526 . S
C269 C270 1.396 . S
C269 C274 1.390 . S
C270 C264 1.465 . S
C270 C269 1.396 . S
C270 C271 1.399 . S
C271 H257 0.929 . S
C271 C270 1.399 . S
C271 C272 1.385 . S
C272 H258 0.931 . S
C272 C271 1.385 . S
C272 C273 1.389 . S
C273 C272 1.389 . S
C273 C274 1.387 . S
C274 H259 0.930 . S
C274 C269 1.390 . S
C274 C273 1.387 . S
H275 C287 0.930 . S
H276 C289 0.930 . S
H277 C290 0.930 . S
H278 C294 0.959 . S
H279 C294 0.959 . S
H280 C294 0.961 . S
H281 C295 0.960 . S
H282 C295 0.961 . S
H283 C295 0.959 . S
H284 C298 0.929 . S
H285 C299 0.931 . S
H286 C301 0.930 . S
C287 H275 0.930 . S
C287 C288 1.399 . S
C287 C292 1.399 . S
C288 C287 1.399 . S
C288 C289 1.376 . S
C289 H276 0.930 . S
C289 C288 1.376 . S
C289 C290 1.388 . S
C290 H277 0.930 . S
C290 C289 1.388 . S
C290 C291 1.390 . S
C291 C290 1.390 . S
C291 C292 1.394 . S
C291 C297 1.465 . S
C292 C287 1.399 . S
C292 C291 1.394 . S
C292 C293 1.516 . S
C293 C292 1.516 . S
C293 C294 1.502 . S
C293 C295 1.561 . S
C293 C296 1.526 . S
C294 H278 0.959 . S
C294 H279 0.959 . S
C294 H280 0.961 . S
C294 C293 1.502 . S
C295 H281 0.960 . S
C295 H282 0.961 . S
C295 H283 0.959 . S
C295 C293 1.561 . S
C296 C293 1.526 . S
C296 C297 1.396 . S
C296 C301 1.390 . S
C297 C291 1.465 . S
C297 C296 1.396 . S
C297 C298 1.399 . S
C298 H284 0.929 . S
C298 C297 1.399 . S
C298 C299 1.385 . S
C299 H285 0.931 . S
C299 C298 1.385 . S
C299 C300 1.389 . S
C300 C299 1.389 . S
C300 C301 1.387 . S
C301 H286 0.930 . S
C301 C296 1.390 . S
C301 C300 1.387 . S
H302 C314 0.930 . S
H303 C316 0.930 . S
H304 C317 0.930 . S
H305 C321 0.959 . S
H306 C321 0.959 . S
H307 C321 0.961 . S
H308 C322 0.960 . S
H309 C322 0.961 . S
H310 C322 0.959 . S
H311 C325 0.929 . S
H312 C326 0.931 . S
H313 C328 0.930 . S
C314 H302 0.930 . S
C314 C315 1.399 . S
C314 C319 1.399 . S
C315 C314 1.399 . S
C315 C316 1.376 1_565 S
C316 H303 0.930 . S
C316 C315 1.376 1_545 S
C316 C317 1.388 . S
C317 H304 0.930 . S
C317 C316 1.388 . S
C317 C318 1.390 . S
C318 C317 1.390 . S
C318 C319 1.394 1_545 S
C318 C324 1.465 . S
C319 C314 1.399 . S
C319 C318 1.394 1_565 S
C319 C320 1.516 . S
C320 C319 1.516 . S
C320 C321 1.502 1_455 S
C320 C322 1.561 . S
C320 C323 1.526 . S
C321 H305 0.959 . S
C321 H306 0.959 . S
C321 H307 0.961 . S
C321 C320 1.502 1_655 S
C322 H308 0.960 . S
C322 H309 0.961 . S
C322 H310 0.959 . S
C322 C320 1.561 . S
C323 C320 1.526 . S
C323 C324 1.396 1_565 S
C323 C328 1.390 . S
C324 C318 1.465 . S
C324 C323 1.396 1_545 S
C324 C325 1.399 . S
C325 H311 0.929 . S
C325 C324 1.399 . S
C325 C326 1.385 . S
C326 H312 0.931 . S
C326 C325 1.385 . S
C326 C327 1.389 . S
C327 C326 1.389 . S
C327 C328 1.387 1_545 S
C328 H313 0.930 . S
C328 C323 1.390 . S
C328 C327 1.387 1_565 S
H329 C341 0.930 . S
H330 C343 0.930 . S
H331 C344 0.930 . S
H332 C348 0.959 . S
H333 C348 0.959 . S
H334 C348 0.961 . S
H335 C349 0.960 . S
H336 C349 0.961 . S
H337 C349 0.959 1_565 S
H338 C352 0.929 . S
H339 C353 0.931 . S
H340 C355 0.930 . S
C341 H329 0.930 . S
C341 C342 1.399 1_545 S
C341 C346 1.399 . S
C342 C341 1.399 1_565 S
C342 C343 1.376 1_455 S
C343 H330 0.930 . S
C343 C342 1.376 1_655 S
C343 C344 1.388 . S
C344 H331 0.930 . S
C344 C343 1.388 . S
C344 C345 1.390 . S
C345 C344 1.390 . S
C345 C346 1.394 1_665 S
C345 C351 1.465 . S
C346 C341 1.399 . S
C346 C345 1.394 1_445 S
C346 C347 1.516 . S
C347 C346 1.516 . S
C347 C348 1.502 . S
C347 C349 1.561 . S
C347 C350 1.526 . S
C348 H332 0.959 . S
C348 H333 0.959 . S
C348 H334 0.961 . S
C348 C347 1.502 . S
C349 H335 0.960 . S
C349 H336 0.961 . S
C349 H337 0.959 1_545 S
C349 C347 1.561 . S
C350 C347 1.526 . S
C350 C351 1.396 1_445 S
C350 C355 1.390 . S
C351 C345 1.465 . S
C351 C350 1.396 1_665 S
C351 C352 1.399 . S
C352 H338 0.929 . S
C352 C351 1.399 . S
C352 C353 1.385 . S
C353 H339 0.931 . S
C353 C352 1.385 . S
C353 C354 1.389 1_565 S
C354 C353 1.389 1_545 S
C354 C355 1.387 1_655 S
C355 H340 0.930 . S
C355 C350 1.390 . S
C355 C354 1.387 1_455 S
H356 C368 0.930 . S
H357 C370 0.930 . S
H358 C371 0.930 . S
H359 C375 0.959 . S
H360 C375 0.959 . S
H361 C375 0.961 . S
H362 C376 0.960 . S
H363 C376 0.961 . S
H364 C376 0.959 . S
H365 C379 0.929 . S
H366 C380 0.931 . S
H367 C382 0.930 . S
C368 H356 0.930 . S
C368 C369 1.399 . S
C368 C373 1.399 . S
C369 C368 1.399 . S
C369 C370 1.376 . S
C370 H357 0.930 . S
C370 C369 1.376 . S
C370 C371 1.388 . S
C371 H358 0.930 . S
C371 C370 1.388 . S
C371 C372 1.390 . S
C372 C371 1.390 . S
C372 C373 1.394 . S
C372 C378 1.465 . S
C373 C368 1.399 . S
C373 C372 1.394 . S
C373 C374 1.516 . S
C374 C373 1.516 . S
C374 C375 1.502 . S
C374 C376 1.561 . S
C374 C377 1.526 . S
C375 H359 0.959 . S
C375 H360 0.959 . S
C375 H361 0.961 . S
C375 C374 1.502 . S
C376 H362 0.960 . S
C376 H363 0.961 . S
C376 H364 0.959 . S
C376 C374 1.561 . S
C377 C374 1.526 . S
C377 C378 1.396 . S
C377 C382 1.390 . S
C378 C372 1.465 . S
C378 C377 1.396 . S
C378 C379 1.399 . S
C379 H365 0.929 . S
C379 C378 1.399 . S
C379 C380 1.385 . S
C380 H366 0.931 . S
C380 C379 1.385 . S
C380 C381 1.389 . S
C381 C380 1.389 . S
C381 C382 1.387 . S
C382 H367 0.930 . S
C382 C377 1.390 . S
C382 C381 1.387 . S
H383 C395 0.930 . S
H384 C397 0.930 . S
H385 C398 0.930 . S
H386 C402 0.959 . S
H387 C402 0.959 . S
H388 C402 0.961 . S
H389 C403 0.960 . S
H390 C403 0.961 . S
H391 C403 0.959 . S
H392 C406 0.929 . S
H393 C407 0.931 . S
H394 C409 0.930 . S
C395 H383 0.930 . S
C395 C396 1.399 . S
C395 C400 1.399 . S
C396 C395 1.399 . S
C396 C397 1.376 . S
C397 H384 0.930 . S
C397 C396 1.376 . S
C397 C398 1.388 . S
C398 H385 0.930 . S
C398 C397 1.388 . S
C398 C399 1.390 . S
C399 C398 1.390 . S
C399 C400 1.394 . S
C399 C405 1.465 . S
C400 C395 1.399 . S
C400 C399 1.394 . S
C400 C401 1.516 . S
C401 C400 1.516 . S
C401 C402 1.502 . S
C401 C403 1.561 . S
C401 C404 1.526 . S
C402 H386 0.959 . S
C402 H387 0.959 . S
C402 H388 0.961 . S
C402 C401 1.502 . S
C403 H389 0.960 . S
C403 H390 0.961 . S
C403 H391 0.959 . S
C403 C401 1.561 . S
C404 C401 1.526 . S
C404 C405 1.396 . S
C404 C409 1.390 . S
C405 C399 1.465 . S
C405 C404 1.396 . S
C405 C406 1.399 . S
C406 H392 0.929 . S
C406 C405 1.399 . S
C406 C407 1.385 . S
C407 H393 0.931 . S
C407 C406 1.385 . S
C407 C408 1.389 . S
C408 C407 1.389 . S
C408 C409 1.387 . S
C409 H394 0.930 . S
C409 C404 1.390 . S
C409 C408 1.387 . S
C111 C80 1.104 . S
C99 C3 1.174 . S
C126 C4 1.459 . S
C138 C69 1.431 . S
C153 C19 1.423 1_554 S
C165 C83 1.585 . S
C180 C7 1.120 . S
C192 C72 1.235 . S
C207 C37 1.224 . S
C219 C58 1.162 . S
C234 C28 1.563 . S
C246 C47 1.449 . S
C273 C61 1.543 . S
C261 C41 1.513 . S
C300 C50 1.286 . S
C288 C25 1.128 . S
C315 C20 1.260 . S
C327 C49 1.431 . S
C342 C16 1.384 1_455 S
C354 C60 1.500 1_655 S
C381 C71 1.430 . S
C369 C40 1.260 . S
C396 C24 1.308 . S
C408 C82 1.502 . S
